# Generated by pormake.
# Topology zzz, (3,6)-cn, num edge types: 1
# Building blocks:
#     Node 0, Type 0, BuildingBlock: WUSLED_clean_sbu_0, # of connection points: 3
#     Node 1, Type 0, BuildingBlock: WUSLED_clean_sbu_0, # of connection points: 3
#     Node 2, Type 0, BuildingBlock: WUSLED_clean_sbu_0, # of connection points: 3
#     Node 3, Type 0, BuildingBlock: WUSLED_clean_sbu_0, # of connection points: 3
#     Node 4, Type 0, BuildingBlock: WUSLED_clean_sbu_0, # of connection points: 3
#     Node 5, Type 0, BuildingBlock: WUSLED_clean_sbu_0, # of connection points: 3
#     Node 6, Type 0, BuildingBlock: WUSLED_clean_sbu_0, # of connection points: 3
#     Node 7, Type 0, BuildingBlock: WUSLED_clean_sbu_0, # of connection points: 3
#     Node 8, Type 1, BuildingBlock: BETDIP_clean_sbu_0, # of connection points: 6
#     Node 9, Type 1, BuildingBlock: BETDIP_clean_sbu_0, # of connection points: 6
#     Node 10, Type 1, BuildingBlock: BETDIP_clean_sbu_0, # of connection points: 6
#     Node 11, Type 1, BuildingBlock: BETDIP_clean_sbu_0, # of connection points: 6
#     Edge 12, Type (0, 1), BuildingBlock: XUDNAN_clean_linker_2, # of connection points: 2
#     Edge 13, Type (0, 1), BuildingBlock: XUDNAN_clean_linker_2, # of connection points: 2
#     Edge 14, Type (0, 1), BuildingBlock: XUDNAN_clean_linker_2, # of connection points: 2
#     Edge 15, Type (0, 1), BuildingBlock: XUDNAN_clean_linker_2, # of connection points: 2
#     Edge 16, Type (0, 1), BuildingBlock: XUDNAN_clean_linker_2, # of connection points: 2
#     Edge 17, Type (0, 1), BuildingBlock: XUDNAN_clean_linker_2, # of connection points: 2
#     Edge 18, Type (0, 1), BuildingBlock: XUDNAN_clean_linker_2, # of connection points: 2
#     Edge 19, Type (0, 1), BuildingBlock: XUDNAN_clean_linker_2, # of connection points: 2
#     Edge 20, Type (0, 1), BuildingBlock: XUDNAN_clean_linker_2, # of connection points: 2
#     Edge 21, Type (0, 1), BuildingBlock: XUDNAN_clean_linker_2, # of connection points: 2
#     Edge 22, Type (0, 1), BuildingBlock: XUDNAN_clean_linker_2, # of connection points: 2
#     Edge 23, Type (0, 1), BuildingBlock: XUDNAN_clean_linker_2, # of connection points: 2
#     Edge 24, Type (0, 1), BuildingBlock: XUDNAN_clean_linker_2, # of connection points: 2
#     Edge 25, Type (0, 1), BuildingBlock: XUDNAN_clean_linker_2, # of connection points: 2
#     Edge 26, Type (0, 1), BuildingBlock: XUDNAN_clean_linker_2, # of connection points: 2
#     Edge 27, Type (0, 1), BuildingBlock: XUDNAN_clean_linker_2, # of connection points: 2
#     Edge 28, Type (0, 1), BuildingBlock: XUDNAN_clean_linker_2, # of connection points: 2
#     Edge 29, Type (0, 1), BuildingBlock: XUDNAN_clean_linker_2, # of connection points: 2
#     Edge 30, Type (0, 1), BuildingBlock: XUDNAN_clean_linker_2, # of connection points: 2
#     Edge 31, Type (0, 1), BuildingBlock: XUDNAN_clean_linker_2, # of connection points: 2
#     Edge 32, Type (0, 1), BuildingBlock: XUDNAN_clean_linker_2, # of connection points: 2
#     Edge 33, Type (0, 1), BuildingBlock: XUDNAN_clean_linker_2, # of connection points: 2
#     Edge 34, Type (0, 1), BuildingBlock: XUDNAN_clean_linker_2, # of connection points: 2
#     Edge 35, Type (0, 1), BuildingBlock: XUDNAN_clean_linker_2, # of connection points: 2
# Relax obj value: 0.410
# Max RMSD: 0.258
# Mean RMSD: 0.236
data_MOF--net-zzz--node1-WUSLED_clean_sbu_0--node2-BETDIP_clean_sbu_0--edge1-XUDNAN_clean_linker_2
_symmetry_space_group_name_H-M    P1
_symmetry_Int_Tables_number       1
_symmetry_cell_setting            triclinic
loop_
_symmetry_equiv_pos_as_xyz
'x, y, z'
_cell_length_a     63.551578
_cell_length_b     64.075808
_cell_length_c     19.815528
_cell_angle_alpha  89.781508
_cell_angle_beta   89.93072
_cell_angle_gamma 90.01331
loop_
_atom_site_label
_atom_site_type_symbol
_atom_site_fract_x
_atom_site_fract_y
_atom_site_fract_z
_atom_type_partial_charge
C0 C 0.78723 0.51967 0.39445 0.0
C1 C 0.80524 0.51374 0.35773 0.0
C2 C 0.82632 0.51257 0.46143 0.0
C3 C 0.82455 0.51021 0.39085 0.0
C4 C 0.80817 0.51854 0.49754 0.0
C5 C 0.78898 0.52198 0.46458 0.0
U6 U 0.74243 0.51175 0.26217 0.0
O7 O 0.70788 0.51368 0.27307 0.0
O8 O 0.72462 0.53652 0.21021 0.0
C9 C 0.70627 0.52942 0.23052 0.0
C10 C 0.76674 0.52465 0.3616 0.0
C11 C 0.68964 0.52836 0.17797 0.0
C12 C 0.66408 0.54698 0.10875 0.0
C13 C 0.67922 0.54684 0.15996 0.0
C14 C 0.66887 0.50987 0.09323 0.0
C15 C 0.65886 0.52859 0.07391 0.0
C16 C 0.68422 0.50976 0.14457 0.0
C17 C 0.77753 0.46988 0.19389 0.0
C18 C 0.80797 0.45704 0.1334 0.0
C19 C 0.81014 0.46314 0.25386 0.0
C20 C 0.78905 0.46926 0.25429 0.0
C21 C 0.82006 0.45774 0.1929 0.0
C22 C 0.78688 0.46306 0.134 0.0
C23 C 0.75732 0.48085 0.19072 0.0
O24 O 0.76739 0.53248 0.30023 0.0
O25 O 0.7514 0.51109 0.36997 0.0
O26 O 0.74458 0.47803 0.24234 0.0
O27 O 0.75903 0.50049 0.17225 0.0
H28 H 0.80444 0.51193 0.30348 0.0
H29 H 0.83803 0.50547 0.36119 0.0
H30 H 0.80883 0.52098 0.55153 0.0
H31 H 0.77546 0.52678 0.49406 0.0
H32 H 0.65653 0.56163 0.09604 0.0
H33 H 0.68301 0.56136 0.18509 0.0
H34 H 0.66533 0.49545 0.06722 0.0
H35 H 0.69205 0.49527 0.1574 0.0
H36 H 0.81512 0.45331 0.08531 0.0
H37 H 0.81893 0.46362 0.30063 0.0
H38 H 0.78212 0.47464 0.30107 0.0
H39 H 0.77827 0.46368 0.08685 0.0
C40 C 1.00834 0.77971 0.3828 0.0
C41 C 0.01539 0.7975 0.3473 0.0
C42 C 1.00834 0.8197 0.44522 0.0
C43 C 0.01531 0.81729 0.3781 0.0
C44 C 1.00046 0.80196 0.47912 0.0
C45 C 1.00052 0.7823 0.44844 0.0
U46 U 1.00262 0.73771 0.24274 0.0
O47 O 0.99244 0.70481 0.24881 0.0
O48 O 0.02477 0.71233 0.21827 0.0
C49 C 1.01055 0.69764 0.22642 0.0
C50 C 1.01023 0.75816 0.35528 0.0
C51 C 1.01017 0.68086 0.17464 0.0
C52 C 0.99241 0.65967 0.08942 0.0
C53 C 0.99256 0.67687 0.13355 0.0
C54 C 0.02754 0.65052 0.12567 0.0
C55 C 1.00978 0.64601 0.08585 0.0
C56 C 0.02769 0.66764 0.16938 0.0
C57 C 0.98405 0.78341 0.14278 0.0
C58 C 0.9886 0.81613 0.08311 0.0
C59 C 0.98061 0.81628 0.20282 0.0
C60 C 0.97998 0.79447 0.20258 0.0
C61 C 0.98562 0.8272 0.1435 0.0
C62 C 0.98779 0.79437 0.08277 0.0
C63 C 0.98784 0.76083 0.14491 0.0
O64 O 0.99258 0.74802 0.34415 0.0
O65 O 0.02444 0.75507 0.30811 0.0
O66 O 1.00783 0.75586 0.15002 0.0
O67 O 0.97561 0.75002 0.18572 0.0
H68 H 0.02143 0.79606 0.2964 0.0
H69 H 0.02148 0.83052 0.35028 0.0
H70 H 0.9945 0.80318 0.53017 0.0
H71 H 0.9949 0.76894 0.4769 0.0
H72 H 0.97844 0.65669 0.05976 0.0
H73 H 0.97879 0.68678 0.1364 0.0
H74 H 0.04138 0.6407 0.12349 0.0
H75 H 0.04148 0.67032 0.20028 0.0
H76 H 0.99238 0.82431 0.03669 0.0
H77 H 0.97845 0.82452 0.24998 0.0
H78 H 0.97741 0.78626 0.24977 0.0
H79 H 0.99118 0.7861 0.03643 0.0
C80 C 0.74295 0.01131 0.39379 0.0
C81 C 0.7248 1.00171 0.36751 0.0
C82 C 0.70589 1.0071 0.47428 0.0
C83 C 0.70651 0.99954 0.40741 0.0
C84 C 0.72399 0.01725 0.49904 0.0
C85 C 0.7422 0.01917 0.45966 0.0
U86 U 0.78661 0.99416 0.2661 0.0
O87 O 0.80446 0.01414 0.19584 0.0
O88 O 0.82117 0.99712 0.27542 0.0
C89 C 0.82283 1.00899 0.22139 0.0
C90 C 0.76281 0.0139 0.35459 0.0
C91 C 0.83959 1.00344 0.17221 0.0
C92 C 0.87609 1.00675 0.13454 0.0
C93 C 0.86014 0.01097 0.18172 0.0
C94 C 0.8512 0.98732 0.06725 0.0
C95 C 0.87189 0.99485 0.07645 0.0
C96 C 0.83529 0.99151 0.11455 0.0
C97 C 0.75111 0.94867 0.23335 0.0
C98 C 0.71931 0.93508 0.18218 0.0
C99 C 0.71816 0.9492 0.29537 0.0
C100 C 0.73981 0.95284 0.29272 0.0
C101 C 0.70754 0.94145 0.23859 0.0
C102 C 0.74097 0.93875 0.17953 0.0
C103 C 0.77157 0.95873 0.22158 0.0
O104 O 0.77851 1.00162 0.37162 0.0
O105 O 0.76134 0.01673 0.289 0.0
O106 O 0.77009 0.97638 0.18796 0.0
O107 O 0.7843 0.95989 0.27376 0.0
H108 H 0.72477 0.99581 0.3164 0.0
H109 H 0.69302 0.99162 0.38618 0.0
H110 H 0.72416 0.02396 0.54908 0.0
H111 H 0.7558 0.02696 0.48085 0.0
H112 H 0.89177 0.01263 0.14411 0.0
H113 H 0.86385 0.02026 0.2257 0.0
H114 H 0.84714 0.97842 0.02282 0.0
H115 H 0.81956 0.98561 0.10568 0.0
H116 H 0.71153 0.92923 0.13747 0.0
H117 H 0.70945 0.9541 0.33959 0.0
H118 H 0.74732 0.96058 0.33484 0.0
H119 H 0.74942 0.93555 0.13317 0.0
C120 C 0.52995 0.73195 0.41442 0.0
C121 C 0.50912 0.72468 0.41025 0.0
C122 C 0.51943 0.69084 0.45788 0.0
C123 C 0.50396 0.70434 0.43124 0.0
C124 C 0.54019 0.69833 0.46296 0.0
C125 C 0.54537 0.71858 0.44125 0.0
U126 U 0.52707 0.78108 0.29831 0.0
O127 O 0.52762 0.81437 0.32664 0.0
O128 O 0.553 0.80141 0.26468 0.0
C129 C 0.54442 0.81833 0.29001 0.0
C130 C 0.53595 0.75348 0.39339 0.0
C131 C 0.5431 0.83672 0.24443 0.0
C132 C 0.54591 0.87435 0.2289 0.0
C133 C 0.54706 0.85665 0.27046 0.0
C134 C 0.53706 0.85252 0.13374 0.0
C135 C 0.5408 0.87259 0.16 0.0
C136 C 0.53811 0.83477 0.17558 0.0
C137 C 0.48774 0.75097 0.19297 0.0
C138 C 0.46297 0.73188 0.12373 0.0
C139 C 0.48212 0.71404 0.21267 0.0
C140 C 0.49213 0.73269 0.22928 0.0
C141 C 0.46776 0.71337 0.15883 0.0
C142 C 0.47287 0.75059 0.1409 0.0
C143 C 0.49958 0.77009 0.20651 0.0
O144 O 0.54676 0.75524 0.33703 0.0
O145 O 0.52158 0.7681 0.39997 0.0
O146 O 0.49435 0.77998 0.26204 0.0
O147 O 0.52002 0.76837 0.19823 0.0
H148 H 0.4968 0.73469 0.39078 0.0
H149 H 0.48777 0.69924 0.42717 0.0
H150 H 0.55256 0.68837 0.48244 0.0
H151 H 0.56152 0.72382 0.44547 0.0
H152 H 0.54916 0.88947 0.25081 0.0
H153 H 0.55104 0.85856 0.32324 0.0
H154 H 0.53287 0.85056 0.08119 0.0
H155 H 0.53492 0.81956 0.15425 0.0
H156 H 0.45193 0.73176 0.08212 0.0
H157 H 0.48642 0.69996 0.23978 0.0
H158 H 0.50388 0.73272 0.26876 0.0
H159 H 0.46937 0.76462 0.11233 0.0
C160 C 0.23636 0.5014 0.99674 0.0
C161 C 0.23124 0.52116 0.97022 0.0
C162 C 0.19779 0.50781 0.92582 0.0
C163 C 0.21221 0.52432 0.93533 0.0
C164 C 0.20272 0.48827 0.95445 0.0
C165 C 0.22171 0.48513 0.98916 0.0
U166 U 0.28488 0.50735 0.11957 0.0
O167 O 0.30247 0.48105 0.16388 0.0
O168 O 0.3188 0.50342 0.09842 0.0
C169 C 0.32063 0.48738 0.13962 0.0
C170 C 0.25749 0.49654 0.02575 0.0
C171 C 0.33828 0.48764 0.18869 0.0
C172 C 0.36501 0.46812 0.25035 0.0
C173 C 0.34922 0.46902 0.20123 0.0
C174 C 0.35985 0.50474 0.27438 0.0
C175 C 0.37037 0.48585 0.28841 0.0
C176 C 0.34385 0.5056 0.22526 0.0
C177 C 0.25769 0.55232 0.21265 0.0
C178 C 0.23654 0.57159 0.29288 0.0
C179 C 0.22529 0.56892 0.17637 0.0
C180 C 0.24321 0.55713 0.16153 0.0
C181 C 0.22145 0.57581 0.24272 0.0
C182 C 0.25449 0.56 0.27785 0.0
C183 C 0.27539 0.53814 0.20092 0.0
O184 O 0.27291 0.5099 0.01533 0.0
O185 O 0.25796 0.48814 0.08636 0.0
O186 O 0.27158 0.51846 0.21522 0.0
O187 O 0.28592 0.54077 0.14434 0.0
H188 H 0.24213 0.53407 0.97502 0.0
H189 H 0.20891 0.5397 0.91518 0.0
H190 H 0.19229 0.47507 0.94779 0.0
H191 H 0.22527 0.46967 1.00829 0.0
H192 H 0.37292 0.45338 0.25907 0.0
H193 H 0.34527 0.45498 0.1737 0.0
H194 H 0.36347 0.51865 0.30303 0.0
H195 H 0.33557 0.52015 0.21682 0.0
H196 H 0.23398 0.57621 0.34475 0.0
H197 H 0.21411 0.57207 0.1364 0.0
H198 H 0.24544 0.55125 0.11082 0.0
H199 H 0.26549 0.55632 0.31792 0.0
C200 C 0.02106 0.22563 0.97954 0.0
C201 C 0.01562 0.20875 0.02166 0.0
C202 C 1.01207 0.18553 0.92402 0.0
C203 C 1.01115 0.18902 0.99431 0.0
C204 C 0.01754 0.20249 0.88211 0.0
C205 C 0.02194 0.22223 0.90951 0.0
U206 U 1.01334 0.27461 0.09395 0.0
O207 O 0.01911 0.30787 0.07156 0.0
O208 O 0.03763 0.29212 0.14979 0.0
C209 C 0.03269 0.30999 0.1212 0.0
C210 C 0.02702 0.24649 1.00708 0.0
C211 C 0.0296 0.32798 0.16775 0.0
C212 C 1.00779 0.35538 0.21709 0.0
C213 C 1.01002 0.33798 0.17469 0.0
C214 C 0.04449 0.35286 0.24787 0.0
C215 C 0.02502 0.36318 0.25403 0.0
C216 C 0.04674 0.33556 0.20515 0.0
C217 C 0.9649 0.24747 0.1639 0.0
C218 C 0.93985 0.22719 0.22891 0.0
C219 C 0.95823 0.21136 0.13479 0.0
C220 C 0.96838 0.23029 0.12181 0.0
C221 C 0.94445 0.20942 0.19011 0.0
C222 C 0.95009 0.24606 0.21603 0.0
C223 C 0.9787 0.26572 0.16006 0.0
O224 O 0.01511 0.26241 0.98976 0.0
O225 O 0.03305 0.24726 0.07051 0.0
O226 O 0.99762 0.26244 0.1844 0.0
O227 O 0.97879 0.27594 0.10241 0.0
H228 H 0.01498 0.21069 0.07589 0.0
H229 H 1.00731 0.17639 0.02862 0.0
H230 H 0.0182 0.20062 0.82787 0.0
H231 H 0.02622 0.23488 0.87575 0.0
H232 H 0.99247 0.36266 0.22118 0.0
H233 H 0.99642 0.33246 0.1471 0.0
H234 H 0.05817 0.35847 0.27482 0.0
H235 H 0.06202 0.32819 0.20078 0.0
H236 H 0.92911 0.22622 0.2713 0.0
H237 H 0.96231 0.19794 0.10439 0.0
H238 H 0.97983 0.2312 0.08138 0.0
H239 H 0.94727 0.25923 0.24897 0.0
C240 C 0.29358 0.02078 0.98268 0.0
C241 C 0.30878 0.01648 0.03221 0.0
C242 C 0.33744 0.02357 0.95201 0.0
C243 C 0.33037 0.01791 0.01719 0.0
C244 C 0.32214 0.02756 0.90225 0.0
C245 C 0.30053 0.02625 0.9175 0.0
U246 U 0.24248 0.02545 0.09276 0.0
O247 O 0.21029 0.03523 0.06436 0.0
O248 O 0.21619 1.00315 0.09777 0.0
C249 C 0.20196 0.01743 0.08417 0.0
C250 C 0.27054 0.01871 0.99643 0.0
C251 C 0.18415 0.0188 0.1328 0.0
C252 C 0.14651 0.02234 0.15391 0.0
C253 C 0.16363 0.02209 0.10911 0.0
C254 C 0.17012 0.01645 0.24762 0.0
C255 C 0.14939 0.01917 0.22385 0.0
C256 C 0.18727 0.0163 0.2027 0.0
C257 C 0.275 0.04545 0.24305 0.0
C258 C 0.29238 0.0633 0.33526 0.0
C259 C 0.3108 0.03646 0.27254 0.0
C260 C 0.29333 0.03388 0.23113 0.0
C261 C 0.31018 0.0507 0.32622 0.0
C262 C 0.27479 0.0606 0.29394 0.0
C263 C 0.25534 0.04016 0.20879 0.0
O264 O 0.26472 1.00451 0.04084 0.0
O265 O 0.25965 0.03609 1.00159 0.0
O266 O 0.2497 0.05228 0.1583 0.0
O267 O 0.25256 0.02019 0.19685 0.0
H268 H 0.30402 0.01184 0.08248 0.0
H269 H 0.34155 0.01436 0.05676 0.0
H270 H 0.32685 0.03212 0.85176 0.0
H271 H 0.28919 0.02947 0.87804 0.0
H272 H 0.13094 0.02497 0.13346 0.0
H273 H 0.16079 0.02423 0.05563 0.0
H274 H 0.17308 0.0138 0.30076 0.0
H275 H 0.20296 0.01385 0.22253 0.0
H276 H 0.29163 0.07435 0.37643 0.0
H277 H 0.32453 0.02677 0.26426 0.0
H278 H 0.29376 0.02211 0.19217 0.0
H279 H 0.2607 0.06961 0.30377 0.0
C280 C 0.51095 0.28944 0.03096 0.0
C281 C 0.51667 0.30821 0.06288 0.0
C282 C 0.51836 0.32638 0.9538 0.0
C283 C 0.52032 0.32647 0.02472 0.0
C284 C 0.51267 0.30752 0.92242 0.0
C285 C 0.50902 0.2894 0.96039 0.0
U286 U 0.52137 0.24308 0.15618 0.0
O287 O 0.4988 0.22772 0.22463 0.0
O288 O 0.51321 0.20984 0.14255 0.0
C289 C 0.5014 0.20926 0.19706 0.0
C290 C 0.50549 0.27004 0.06903 0.0
C291 C 0.50486 0.19137 0.24375 0.0
C292 C 0.50036 0.1543 0.26797 0.0
C293 C 0.49795 0.17146 0.22464 0.0
C294 C 0.51661 0.1766 0.3512 0.0
C295 C 0.50974 0.15657 0.33191 0.0
C296 C 0.51427 0.1938 0.30752 0.0
C297 C 0.57314 0.26909 0.19776 0.0
C298 C 0.60126 0.28957 0.24677 0.0
C299 C 0.57839 0.30497 0.16236 0.0
C300 C 0.56767 0.28605 0.15649 0.0
C301 C 0.59471 0.30718 0.20977 0.0
C302 C 0.59047 0.27066 0.24099 0.0
C303 C 0.5589 0.25124 0.20407 0.0
O304 O 0.51547 0.25296 0.05117 0.0
O305 O 0.50263 0.27137 0.13466 0.0
O306 O 0.54139 0.25555 0.2364 0.0
O307 O 0.55588 0.24018 0.14916 0.0
H308 H 0.51821 0.30886 0.11726 0.0
H309 H 0.52484 0.3406 0.05075 0.0
H310 H 0.51057 0.3068 0.86826 0.0
H311 H 0.50432 0.2753 0.93437 0.0
H312 H 0.49459 0.13925 0.25159 0.0
H313 H 0.4905 0.16918 0.17606 0.0
H314 H 0.5241 0.17893 0.39965 0.0
H315 H 0.51979 0.20897 0.32366 0.0
H316 H 0.61392 0.29075 0.28313 0.0
H317 H 0.57275 0.31826 0.13368 0.0
H318 H 0.55422 0.28507 0.12312 0.0
H319 H 0.59484 0.25769 0.27327 0.0
Tb320 Tb 0.02736 1.0031 0.71166 0.0
Tb321 Tb 0.9963 1.00957 0.60704 0.0
C322 C 0.04787 0.99146 0.81375 0.0
C323 C 0.04098 0.98463 0.88081 0.0
C324 C 0.01944 0.98255 0.8947 0.0
C325 C 1.01276 0.9721 0.95281 0.0
C326 C 0.02759 0.9636 0.99785 0.0
C327 C 0.04913 0.96753 0.9867 0.0
C328 C 0.05578 0.97785 0.92823 0.0
C329 C 0.04405 0.01554 0.59398 0.0
C330 C 1.01219 0.96428 0.62497 0.0
C331 C 0.97528 0.02063 0.50539 0.0
C332 C 0.96619 0.0395 0.4752 0.0
C333 C 0.97587 0.05903 0.48231 0.0
C334 C 0.96772 0.07644 0.44876 0.0
C335 C 0.94969 0.07462 0.40792 0.0
C336 C 0.93969 0.05512 0.40289 0.0
C337 C 0.94791 0.03771 0.43619 0.0
C338 C 0.9801 0.99352 0.71938 0.0
C339 C 1.00707 0.04684 0.70651 0.0
O340 O 0.04442 0.01099 0.79877 0.0
O341 O 0.04233 0.97906 0.76484 0.0
O342 O 0.0291 1.00312 0.6036 0.0
O343 O 0.05132 0.02039 0.65263 0.0
O344 O 0.01849 0.97085 0.68502 0.0
O345 O 1.00527 0.97781 0.57974 0.0
O346 O 0.99582 0.01944 0.50629 0.0
O347 O 0.9668 0.01421 0.5618 0.0
O348 O 0.99388 1.00771 0.71608 0.0
O349 O 0.97459 0.98853 0.65874 0.0
O350 O 1.00143 0.04194 0.64416 0.0
O351 O 1.0141 0.03225 0.74751 0.0
H352 H 1.00783 0.98779 0.85841 0.0
H353 H 0.99608 0.96924 0.95937 0.0
H354 H 0.0609 0.96144 0.02104 0.0
H355 H 0.07247 0.9795 0.91831 0.0
H356 H 0.98999 0.06072 0.51239 0.0
H357 H 0.97599 0.09116 0.45302 0.0
H358 H 0.92563 0.05326 0.37267 0.0
H359 H 0.9402 0.02273 0.43053 0.0
Tb360 Tb 0.53529 0.03041 0.80517 0.0
Tb361 Tb 0.51922 1.00247 0.69948 0.0
C362 C 0.55449 0.0443 0.90642 0.0
C363 C 0.56477 0.03323 0.96285 0.0
C364 C 0.554 0.01774 0.99971 0.0
C365 C 0.56479 1.00487 0.04495 0.0
C366 C 0.58645 1.00758 0.05522 0.0
C367 C 0.59696 0.02385 0.02127 0.0
C368 C 0.58622 0.03651 0.97528 0.0
C369 C 0.5228 0.05065 0.69478 0.0
C370 C 0.56741 1.00725 0.70631 0.0
C371 C 0.49813 0.98823 0.60382 0.0
C372 C 0.4773 0.9953 0.58021 0.0
C373 C 0.47592 0.01126 0.53155 0.0
C374 C 0.45672 0.02089 0.51823 0.0
C375 C 0.43848 0.01459 0.55264 0.0
C376 C 0.43957 0.99791 0.59862 0.0
C377 C 0.45882 0.98835 0.61238 0.0
C378 C 0.53248 0.98259 0.80939 0.0
C379 C 0.4871 0.02339 0.80229 0.0
O380 O 0.53404 0.04284 0.9029 0.0
O381 O 0.56333 0.04178 0.84751 0.0
O382 O 0.53195 0.0333 0.69819 0.0
O383 O 0.52248 0.0584 0.75491 0.0
O384 O 0.56375 0.01414 0.76834 0.0
O385 O 0.55168 1.00337 0.6648 0.0
O386 O 0.51342 1.00168 0.59565 0.0
O387 O 0.49868 0.97942 0.6635 0.0
O388 O 0.52262 0.99962 0.80662 0.0
O389 O 0.53426 0.97543 0.74848 0.0
O390 O 0.49009 0.01712 0.73935 0.0
O391 O 0.5034 0.02641 0.8422 0.0
H392 H 0.53737 0.01513 0.99217 0.0
H393 H 0.55631 0.99258 0.07104 0.0
H394 H 0.61372 0.02617 0.02785 0.0
H395 H 0.59485 0.04831 0.9474 0.0
H396 H 0.48983 0.01688 0.5055 0.0
H397 H 0.45617 0.03333 0.48109 0.0
H398 H 0.42565 0.99266 0.62532 0.0
H399 H 0.45932 0.97608 0.65007 0.0
Tb400 Tb 0.50401 0.51007 0.73841 0.0
Tb401 Tb 0.52727 0.50121 0.61741 0.0
C402 C 0.48886 0.52371 0.84705 0.0
C403 C 0.48069 0.54316 0.87592 0.0
C404 C 0.49127 0.56223 0.86773 0.0
C405 C 0.48384 0.58011 0.90004 0.0
C406 C 0.46565 0.57925 0.94064 0.0
C407 C 0.45472 0.56026 0.94652 0.0
C408 C 0.46224 0.54238 0.91461 0.0
C409 C 0.48082 0.4941 0.64001 0.0
C410 C 0.51028 0.54606 0.6294 0.0
C411 C 0.54179 0.48778 0.50765 0.0
C412 C 0.55535 0.47103 0.48149 0.0
C413 C 0.55096 0.44991 0.49432 0.0
C414 C 0.56273 0.43434 0.46279 0.0
C415 C 0.5792 0.43956 0.41816 0.0
C416 C 0.5841 0.46073 0.40781 0.0
C417 C 0.57222 0.47629 0.439 0.0
C418 C 0.55068 0.51684 0.71593 0.0
C419 C 0.5204 0.46457 0.72623 0.0
O420 O 0.50905 0.52278 0.8343 0.0
O421 O 0.47755 0.51536 0.79934 0.0
O422 O 0.49482 0.50788 0.63372 0.0
O423 O 0.47934 0.48898 0.70298 0.0
O424 O 0.50842 0.54184 0.69468 0.0
O425 O 0.51386 0.53084 0.5864 0.0
O426 O 0.5234 0.48245 0.53206 0.0
O427 O 0.55101 0.50212 0.54375 0.0
O428 O 0.5365 0.50322 0.7221 0.0
O429 O 0.55248 0.52163 0.65281 0.0
O430 O 0.52536 0.46968 0.6632 0.0
O431 O 0.51372 0.47889 0.7688 0.0
H432 H 0.5055 0.56322 0.83773 0.0
H433 H 0.4928 0.59442 0.89509 0.0
H434 H 0.4405 0.55915 0.97648 0.0
H435 H 0.4538 0.5278 0.92108 0.0
H436 H 0.53804 0.4454 0.52697 0.0
H437 H 0.55828 0.41823 0.47121 0.0
H438 H 0.59684 0.46528 0.37452 0.0
H439 H 0.57589 0.49251 0.42855 0.0
Tb440 Tb 1.012 0.48928 0.72245 0.0
Tb441 Tb 0.01765 0.52066 0.6157 0.0
C442 C 1.00208 0.46808 0.82486 0.0
C443 C 0.98516 0.46661 0.87506 0.0
C444 C 0.97484 0.4845 0.89886 0.0
C445 C 0.95983 0.4828 0.95008 0.0
C446 C 0.95479 0.46318 0.97778 0.0
C447 C 0.96488 0.44529 0.95289 0.0
C448 C 0.98002 0.44702 0.90209 0.0
C449 C 0.02242 0.47336 0.60341 0.0
C450 C 0.97195 0.50633 0.64275 0.0
C451 C 0.02881 0.53979 0.51052 0.0
C452 C 0.04788 0.55007 0.48346 0.0
C453 C 0.06339 0.53828 0.45049 0.0
C454 C 0.08093 0.54801 0.42225 0.0
C455 C 0.08332 0.56979 0.42568 0.0
C456 C 0.06791 0.58163 0.45899 0.0
C457 C 0.05027 0.57186 0.48729 0.0
C458 C 1.00699 0.53691 0.7339 0.0
C459 C 0.05795 0.50559 0.70203 0.0
O460 O 1.01358 0.48497 0.82679 0.0
O461 O 0.99746 0.46254 0.76322 0.0
O462 O 1.00994 0.48826 0.61447 0.0
O463 O 0.02905 0.46644 0.66099 0.0
O464 O 0.97932 0.49959 0.70169 0.0
O465 O 0.985 0.51289 0.5954 0.0
O466 O 0.02956 0.51946 0.51745 0.0
O467 O 0.01939 0.5488 0.56137 0.0
O468 O 0.01932 0.52179 0.72368 0.0
O469 O 1.00108 0.54417 0.6758 0.0
O470 O 0.05068 0.51587 0.64851 0.0
O471 O 0.04521 0.49466 0.7411 0.0
H472 H 0.97853 0.49978 0.87838 0.0
H473 H 0.95199 0.49679 0.96753 0.0
H474 H 0.9613 0.43001 0.97347 0.0
H475 H 0.98792 0.43308 0.88444 0.0
H476 H 0.062 0.52149 0.44609 0.0
H477 H 0.09274 0.5384 0.39809 0.0
H478 H 0.06932 0.59844 0.46215 0.0
H479 H 0.03843 0.58139 0.51163 0.0
H480 H 0.14571 0.03311 0.3567 0.0
H481 H 0.11076 1.00166 0.19861 0.0
H482 H 0.08007 0.99906 0.27387 0.0
H483 H 0.12533 1.00195 0.49396 0.0
H484 H 0.1242 0.0233 0.5528 0.0
H485 H 0.14336 0.02354 0.48574 0.0
H486 H 0.12943 0.05945 0.44555 0.0
H487 H 0.11016 0.05929 0.51234 0.0
H488 H 0.1019 0.06242 0.42591 0.0
H489 H 0.05327 0.99871 0.36673 0.0
H490 H 0.03245 1.00021 0.47168 0.0
H491 H 0.08409 0.03164 0.57205 0.0
C492 C 0.13165 0.02562 0.33781 0.0
C493 C 0.13079 0.01783 0.27078 0.0
C494 C 0.11188 1.00824 0.2487 0.0
C495 C 0.09431 1.00654 0.29141 0.0
C496 C 0.09568 0.01443 0.35667 0.0
C497 C 0.11385 0.02375 0.38001 0.0
C498 C 0.11118 0.03053 0.45311 0.0
C499 C 0.12695 0.01915 0.49911 0.0
C500 C 0.11329 0.05434 0.45958 0.0
C501 C 0.08872 0.02345 0.46717 0.0
C502 C 0.08012 0.01425 0.4106 0.0
C503 C 0.05981 1.00602 0.41117 0.0
C504 C 0.04804 1.00702 0.4711 0.0
C505 C 0.05647 0.01622 0.53008 0.0
C506 C 0.07708 0.0247 0.52769 0.0
H507 H 0.50412 0.15383 0.47066 0.0
H508 H 0.52195 0.11707 0.29614 0.0
H509 H 0.52597 0.08605 0.36898 0.0
H510 H 0.5403 0.12976 0.5876 0.0
H511 H 0.52227 0.13048 0.65786 0.0
H512 H 0.52045 0.14981 0.59188 0.0
H513 H 0.48135 0.13998 0.57311 0.0
H514 H 0.4831 0.12055 0.63885 0.0
H515 H 0.47449 0.11324 0.55559 0.0
H516 H 0.52879 0.05895 0.46094 0.0
H517 H 0.53064 0.03803 0.56562 0.0
H518 H 0.51067 0.0918 0.68146 0.0
C519 C 0.509 0.1393 0.44778 0.0
C520 C 0.51258 0.13798 0.37723 0.0
C521 C 0.51876 0.11852 0.34961 0.0
C522 C 0.52119 0.10078 0.39071 0.0
C523 C 0.51737 0.10258 0.45971 0.0
C524 C 0.51143 0.12133 0.48816 0.0
C525 C 0.5084 0.11898 0.56394 0.0
C526 C 0.52377 0.13309 0.60259 0.0
C527 C 0.48547 0.12346 0.58403 0.0
C528 C 0.51377 0.09605 0.57366 0.0
C529 C 0.51885 0.08689 0.51276 0.0
C530 C 0.52473 0.06595 0.50882 0.0
C531 C 0.52564 0.05413 0.56861 0.0
C532 C 0.52062 0.06316 0.63174 0.0
C533 C 0.51447 0.0844 0.63395 0.0
H534 H 0.40353 0.51233 0.3223 0.0
H535 H 0.37218 0.45513 0.38362 0.0
H536 H 0.39756 0.45077 0.4764 0.0
H537 H 0.45668 0.49453 0.35812 0.0
H538 H 0.46563 0.51936 0.38947 0.0
H539 H 0.44497 0.51835 0.32734 0.0
H540 H 0.42065 0.53971 0.40599 0.0
H541 H 0.44128 0.54085 0.46813 0.0
H542 H 0.41582 0.53056 0.49077 0.0
H543 H 0.42542 0.45275 0.56446 0.0
H544 H 0.45456 0.46087 0.64232 0.0
H545 H 0.46953 0.5161 0.52448 0.0
C546 C 0.40199 0.49895 0.35548 0.0
C547 C 0.38585 0.48398 0.34513 0.0
C548 C 0.38451 0.46664 0.38962 0.0
C549 C 0.39883 0.46406 0.44277 0.0
C550 C 0.41463 0.47889 0.45115 0.0
C551 C 0.4164 0.49599 0.40882 0.0
C552 C 0.43506 0.50948 0.4294 0.0
C553 C 0.45157 0.51048 0.37269 0.0
C554 C 0.42776 0.53145 0.44979 0.0
C555 C 0.44332 0.49734 0.49005 0.0
C556 C 0.43119 0.47977 0.50157 0.0
C557 C 0.43511 0.46638 0.55569 0.0
C558 C 0.45171 0.47111 0.59967 0.0
C559 C 0.46441 0.48898 0.58928 0.0
C560 C 0.46027 0.50216 0.53317 0.0
H561 H 0.04216 0.37083 0.38032 0.0
H562 H 1.00294 0.39904 0.22579 0.0
H563 H 0.99913 0.43058 0.2959 0.0
H564 H 1.01354 0.39074 0.52224 0.0
H565 H 0.03661 0.39504 0.57314 0.0
H566 H 0.03664 0.37486 0.51013 0.0
H567 H 0.06982 0.3912 0.45531 0.0
H568 H 0.06985 0.41148 0.51807 0.0
H569 H 0.0694 0.41823 0.42969 0.0
H570 H 0.99931 0.45928 0.38388 0.0
H571 H 1.00233 0.48194 0.48429 0.0
H572 H 0.0415 0.43535 0.58176 0.0
C573 C 0.03292 0.3837 0.36085 0.0
C574 C 0.02282 0.38229 0.29719 0.0
C575 C 1.01062 0.39949 0.27451 0.0
C576 C 1.00849 0.41759 0.31386 0.0
C577 C 0.01862 0.41843 0.37619 0.0
C578 C 0.03054 0.4019 0.3997 0.0
C579 C 0.03936 0.40659 0.4693 0.0
C580 C 0.03104 0.39087 0.5218 0.0
C581 C 0.06354 0.40689 0.46798 0.0
C582 C 0.03048 0.42828 0.48136 0.0
C583 C 0.01865 0.43488 0.42685 0.0
C584 C 1.0086 0.45426 0.4267 0.0
C585 C 1.01044 0.46707 0.48394 0.0
C586 C 0.02219 0.46051 0.54089 0.0
C587 C 0.0325 0.44091 0.53894 0.0
H588 H 0.90492 0.02018 0.03252 0.0
H589 H 0.87779 0.95854 1.00558 0.0
H590 H 0.90436 0.95086 0.91876 0.0
H591 H 0.91685 0.03023 0.86177 0.0
H592 H 0.9416 0.0431 0.87729 0.0
H593 H 0.92125 0.04352 0.94056 0.0
H594 H 0.94715 0.02759 0.02763 0.0
H595 H 0.96753 0.02715 0.96427 0.0
H596 H 0.96045 1.00349 1.00824 0.0
H597 H 0.93185 0.95057 0.82865 0.0
H598 H 0.9586 0.95783 0.74116 0.0
H599 H 0.97 0.01868 0.82854 0.0
C600 C 0.90476 1.00491 0.00933 0.0
C601 C 0.88893 0.99006 0.02605 0.0
C602 C 0.8893 0.97041 0.99323 0.0
C603 C 0.90453 0.96579 0.94414 0.0
C604 C 0.91964 0.98081 0.92843 0.0
C605 C 0.92002 0.99994 0.96026 0.0
C606 C 0.93763 0.01354 0.93184 0.0
C607 C 0.9288 0.03379 0.90103 0.0
C608 C 0.95417 0.01821 0.98626 0.0
C609 C 0.9466 0.99929 0.8777 0.0
C610 C 0.93603 0.98042 0.87719 0.0
C611 C 0.94043 0.96516 0.82926 0.0
C612 C 0.95565 0.96942 0.77974 0.0
C613 C 0.96652 0.98869 0.77845 0.0
C614 C 0.96223 1.00366 0.82907 0.0
H615 H 0.55434 0.87892 0.02816 0.0
H616 H 0.52221 0.90966 0.19369 0.0
H617 H 0.5184 0.9414 0.12413 0.0
H618 H 0.58252 0.92521 0.96795 0.0
H619 H 0.57993 0.91839 0.88018 0.0
H620 H 0.58094 0.89818 0.94359 0.0
H621 H 0.54551 0.88329 0.90054 0.0
H622 H 0.54443 0.90341 0.83693 0.0
H623 H 0.52289 0.9002 0.89531 0.0
H624 H 0.51627 0.96925 0.03527 0.0
H625 H 0.51616 0.99132 0.93301 0.0
H626 H 0.55043 0.94354 0.8244 0.0
C627 C 0.54648 0.89231 0.04974 0.0
C628 C 0.53868 0.89173 0.11685 0.0
C629 C 0.52863 0.90973 0.14304 0.0
C630 C 0.52631 0.92786 0.10375 0.0
C631 C 0.53419 0.92793 0.03812 0.0
C632 C 0.54413 0.91068 0.01122 0.0
C633 C 0.55091 0.91489 0.93879 0.0
C634 C 0.57501 0.91412 0.93227 0.0
C635 C 0.5403 0.89954 0.89002 0.0
C636 C 0.54274 0.93698 0.92873 0.0
C637 C 0.53328 0.94421 0.98696 0.0
C638 C 0.52389 0.96384 0.98972 0.0
C639 C 0.52406 0.97637 0.93147 0.0
C640 C 0.53369 0.96941 0.87117 0.0
C641 C 0.5432 0.94942 0.87003 0.0
H642 H 0.62561 0.50196 0.04169 0.0
H643 H 0.65849 0.55749 0.97278 0.0
H644 H 0.63383 0.56075 0.87766 0.0
H645 H 0.61415 0.48126 0.87511 0.0
H646 H 0.58837 0.47174 0.89764 0.0
H647 H 0.60864 0.4735 0.96088 0.0
H648 H 0.5842 0.49642 0.03439 0.0
H649 H 0.56392 0.49482 0.97112 0.0
H650 H 0.57313 0.51995 0.99912 0.0
H651 H 0.60635 0.55813 0.78908 0.0
H652 H 0.57748 0.54951 0.71095 0.0
H653 H 0.56086 0.49613 0.83538 0.0
C654 C 0.62766 0.51472 1.0063 0.0
C655 C 0.64399 0.52959 0.01531 0.0
C656 C 0.64599 0.5461 0.96788 0.0
C657 C 0.63208 0.54805 0.91339 0.0
C658 C 0.61605 0.53341 0.90649 0.0
C659 C 0.61369 0.51703 0.95142 0.0
C660 C 0.5949 0.50356 0.93174 0.0
C661 C 0.60194 0.48119 0.91537 0.0
C662 C 0.57804 0.5037 0.98742 0.0
C663 C 0.58724 0.51491 0.86869 0.0
C664 C 0.59977 0.53206 0.85529 0.0
C665 C 0.59637 0.54479 0.79919 0.0
C666 C 0.57992 0.53977 0.75506 0.0
C667 C 0.56686 0.52225 0.76711 0.0
C668 C 0.57044 0.50977 0.82526 0.0
H669 H 0.9941 0.64083 0.95588 0.0
H670 H 0.02448 0.60715 0.11936 0.0
H671 H 0.02555 0.57547 0.04941 0.0
H672 H 0.96184 0.5971 0.89651 0.0
H673 H 0.96478 0.60402 0.80875 0.0
H674 H 0.96561 0.624 0.87244 0.0
H675 H 1.00201 0.63608 0.82817 0.0
H676 H 1.00127 0.61615 0.7644 0.0
H677 H 0.02315 0.61743 0.82204 0.0
H678 H 0.02487 0.5476 0.96012 0.0
H679 H 0.02249 0.52584 0.85761 0.0
H680 H 0.99178 0.5768 0.75202 0.0
C681 C 1.00073 0.62673 0.9773 0.0
C682 C 1.00936 0.62667 0.04332 0.0
C683 C 0.01809 0.60784 0.06876 0.0
C684 C 0.01864 0.58964 0.02951 0.0
C685 C 1.01029 0.5903 0.96458 0.0
C686 C 1.00143 0.60832 0.93859 0.0
C687 C 0.99412 0.6049 0.86642 0.0
C688 C 0.97016 0.60767 0.86072 0.0
C689 C 1.00584 0.61951 0.81738 0.0
C690 C 1.00045 0.58225 0.85581 0.0
C691 C 1.00969 0.57412 0.91324 0.0
C692 C 0.01749 0.55376 0.91508 0.0
C693 C 0.01604 0.54147 0.85661 0.0
C694 C 1.00681 0.54949 0.79692 0.0
C695 C 0.99872 0.57011 0.79705 0.0
H696 H 0.94441 0.19446 0.31874 0.0
H697 H 0.93022 0.17675 0.1127 0.0
H698 H 0.92495 0.14025 0.15011 0.0
H699 H 0.97473 0.15297 0.35646 0.0
H700 H 0.96636 0.14981 0.44285 0.0
H701 H 0.96481 0.175 0.40308 0.0
H702 H 0.92499 0.17713 0.43043 0.0
H703 H 0.92644 0.15199 0.47135 0.0
H704 H 0.90775 0.15632 0.40437 0.0
H705 H 0.92684 0.10526 0.20665 0.0
H706 H 0.93551 0.0747 0.27727 0.0
H707 H 0.94758 0.11559 0.44704 0.0
C708 C 0.93927 0.18312 0.28188 0.0
C709 C 0.93747 0.18848 0.21293 0.0
C710 C 0.93163 0.17297 0.16582 0.0
C711 C 0.92848 0.15225 0.18668 0.0
C712 C 0.93109 0.14739 0.25483 0.0
C713 C 0.93613 0.16246 0.30184 0.0
C714 C 0.94044 0.15294 0.37042 0.0
C715 C 0.96291 0.15798 0.39454 0.0
C716 C 0.92391 0.16001 0.4222 0.0
C717 C 0.938 0.13006 0.35402 0.0
C718 C 0.93224 0.12717 0.28745 0.0
C719 C 0.93084 0.10733 0.25927 0.0
C720 C 0.93575 0.09005 0.2999 0.0
C721 C 0.94213 0.09273 0.36786 0.0
C722 C 0.94278 0.11301 0.39532 0.0
H723 H 0.32589 0.01728 0.39234 0.0
H724 H 0.33313 0.0842 0.37043 0.0
H725 H 0.36459 0.08301 0.44441 0.0
H726 H 0.3459 0.01349 0.57099 0.0
H727 H 0.35863 0.98897 0.5535 0.0
H728 H 0.33466 0.99585 0.51019 0.0
H729 H 0.35331 0.99039 0.39505 0.0
H730 H 0.37723 0.98356 0.43786 0.0
H731 H 0.37721 1.00454 0.37698 0.0
H732 H 0.39815 0.07344 0.50328 0.0
H733 H 0.43081 0.05653 0.54348 0.0
H734 H 0.40097 0.99592 0.52709 0.0
C735 C 0.33389 0.03173 0.40439 0.0
C736 C 0.32738 0.05081 0.37582 0.0
C737 C 0.33801 0.06947 0.39237 0.0
C738 C 0.35576 0.06891 0.43439 0.0
C739 C 0.36222 0.04965 0.46017 0.0
C740 C 0.35141 0.03143 0.44643 0.0
C741 C 0.36262 0.01248 0.47411 0.0
C742 C 0.34968 1.00209 0.53056 0.0
C743 C 0.36791 0.99684 0.41763 0.0
C744 C 0.38214 0.02268 0.50192 0.0
C745 C 0.38147 0.04417 0.49478 0.0
C746 C 0.39867 0.0567 0.5105 0.0
C747 C 0.41717 0.04697 0.5327 0.0
C748 C 0.41826 0.02496 0.53837 0.0
C749 C 0.40035 0.0128 0.52461 0.0
H750 H 0.59999 0.32216 0.33663 0.0
H751 H 0.60422 0.34028 0.12604 0.0
H752 H 0.60785 0.37717 0.15996 0.0
H753 H 0.56753 0.35934 0.384 0.0
H754 H 0.57832 0.36426 0.4665 0.0
H755 H 0.58192 0.33922 0.42803 0.0
H756 H 0.62236 0.34257 0.44008 0.0
H757 H 0.61892 0.36759 0.47995 0.0
H758 H 0.63559 0.36526 0.4067 0.0
H759 H 0.60306 0.41176 0.21466 0.0
H760 H 0.59081 0.44096 0.28484 0.0
H761 H 0.5908 0.40042 0.46077 0.0
C762 C 0.60283 0.33373 0.29771 0.0
C763 C 0.60206 0.32833 0.22873 0.0
C764 C 0.60484 0.34408 0.17921 0.0
C765 C 0.60705 0.36505 0.19806 0.0
C766 C 0.60667 0.36995 0.2666 0.0
C767 C 0.60496 0.35466 0.31575 0.0
C768 C 0.60177 0.36404 0.38501 0.0
C769 C 0.58117 0.35626 0.41771 0.0
C770 C 0.6208 0.35961 0.43062 0.0
C771 C 0.60051 0.38692 0.36664 0.0
C772 C 0.60389 0.39008 0.29841 0.0
C773 C 0.60104 0.40958 0.26847 0.0
C774 C 0.59411 0.42612 0.3089 0.0
C775 C 0.58992 0.42303 0.37854 0.0
C776 C 0.59387 0.4033 0.4078 0.0
H777 H 0.18278 0.56424 0.19649 0.0
H778 H 0.21322 0.60678 0.33542 0.0
H779 H 0.17872 0.61508 0.38579 0.0
H780 H 0.13126 0.59531 0.18084 0.0
H781 H 0.11654 0.57131 0.17615 0.0
H782 H 0.14267 0.57276 0.14081 0.0
H783 H 0.1537 0.54092 0.21352 0.0
H784 H 0.12789 0.53955 0.24991 0.0
H785 H 0.15055 0.54201 0.30393 0.0
H786 H 0.14271 0.61254 0.43666 0.0
H787 H 0.10833 0.60036 0.47999 0.0
H788 H 0.10111 0.56109 0.30383 0.0
C789 C 0.18215 0.57613 0.23507 0.0
C790 C 0.20075 0.5848 0.26197 0.0
C791 C 0.19921 0.59974 0.31434 0.0
C792 C 0.17964 0.60472 0.34289 0.0
C793 C 0.16172 0.59499 0.31748 0.0
C794 C 0.16277 0.58135 0.26364 0.0
C795 C 0.1418 0.57092 0.25109 0.0
C796 C 0.13252 0.57801 0.18319 0.0
C797 C 0.14362 0.54695 0.25492 0.0
C798 C 0.12925 0.57955 0.30947 0.0
C799 C 0.14078 0.59381 0.34632 0.0
C800 C 0.13329 0.60191 0.40705 0.0
C801 C 0.11375 0.59491 0.43131 0.0
C802 C 0.10211 0.57978 0.3952 0.0
C803 C 0.1097 0.57265 0.33249 0.0
H804 H 0.02115 0.8463 0.10173 0.0
H805 H 0.95989 0.8587 0.18861 0.0
H806 H 0.96664 0.89681 0.17957 0.0
H807 H 0.04894 0.89219 0.17782 0.0
H808 H 0.06456 0.89583 0.10271 0.0
H809 H 0.05618 0.87 0.1272 0.0
H810 H 0.03892 0.86485 0.00978 0.0
H811 H 0.04738 0.89047 0.98496 0.0
H812 H 0.0199 0.88365 0.98023 0.0
H813 H 0.97794 0.93307 0.14192 0.0
H814 H 0.99258 0.96358 0.08084 0.0
H815 H 0.04663 0.92652 0.02219 0.0
C816 C 1.00934 0.85709 0.11999 0.0
C817 C 0.98997 0.84979 0.14525 0.0
C818 C 0.97484 0.86417 0.16912 0.0
C819 C 0.9786 0.88576 0.16441 0.0
C820 C 0.99773 0.89251 0.13723 0.0
C821 C 1.01294 0.8785 0.11633 0.0
C822 C 0.03132 0.88936 0.08313 0.0
C823 C 0.05144 0.88669 0.12526 0.0
C824 C 0.03454 0.88164 0.01024 0.0
C825 C 0.02361 0.91163 0.08487 0.0
C826 C 1.0044 0.9133 0.11728 0.0
C827 C 0.99321 0.93203 0.11795 0.0
C828 C 1.00159 0.94925 0.08293 0.0
C829 C 0.0209 0.94753 0.04751 0.0
C830 C 0.03224 0.92863 0.05069 0.0
H831 H 0.68612 0.97686 0.26467 0.0
H832 H 0.67792 0.91392 0.19027 0.0
H833 H 0.64177 0.92284 0.15368 0.0
H834 H 0.62859 0.98772 0.3114 0.0
H835 H 0.63162 0.01423 0.28246 0.0
H836 H 0.65363 1.00072 0.31988 0.0
H837 H 0.67545 1.00918 0.21211 0.0
H838 H 0.65322 0.02174 0.17385 0.0
H839 H 0.666 1.0004 0.13125 0.0
H840 H 0.60951 0.94037 0.1071 0.0
H841 H 0.58513 0.96495 0.05092 0.0
H842 H 0.61553 0.01674 0.15171 0.0
C843 C 0.6763 0.96462 0.24413 0.0
C844 C 0.68457 0.94456 0.23171 0.0
C845 C 0.67169 0.92927 0.20118 0.0
C846 C 0.65114 0.93421 0.18048 0.0
C847 C 0.64381 0.9545 0.19065 0.0
C848 C 0.65601 0.96942 0.22228 0.0
C849 C 0.64623 0.99089 0.21702 0.0
C850 C 0.63963 0.99886 0.2869 0.0
C851 C 0.66111 1.00644 0.18141 0.0
C852 C 0.62723 0.98598 0.17425 0.0
C853 C 0.62568 0.96483 0.16125 0.0
C854 C 0.61032 0.95688 0.11821 0.0
C855 C 0.59652 0.97094 0.08659 0.0
C856 C 0.5985 0.99269 0.0973 0.0
C857 C 0.61368 1.00016 0.14301 0.0
H858 H 0.46691 0.69918 0.02963 0.0
H859 H 0.4517 0.68137 0.23529 0.0
H860 H 0.4441 0.64546 0.19725 0.0
H861 H 0.42814 0.66326 0.94321 0.0
H862 H 0.44661 0.65806 0.87625 0.0
H863 H 0.44655 0.68314 0.91722 0.0
H864 H 0.48616 0.67873 0.9447 0.0
H865 H 0.4863 0.65362 0.90477 0.0
H866 H 0.49476 0.65605 0.99118 0.0
H867 H 0.44393 0.61081 0.14089 0.0
H868 H 0.45115 0.57997 0.07085 0.0
H869 H 0.46585 0.62037 0.90083 0.0
C870 C 0.46111 0.68794 0.06614 0.0
C871 C 0.45965 0.69303 0.13521 0.0
C872 C 0.45283 0.67773 0.18207 0.0
C873 C 0.44837 0.65737 0.16086 0.0
C874 C 0.45068 0.65265 0.09263 0.0
C875 C 0.45671 0.66756 0.04582 0.0
C876 C 0.46055 0.65798 0.97719 0.0
C877 C 0.4445 0.66609 0.92541 0.0
C878 C 0.48329 0.66182 0.95312 0.0
C879 C 0.45678 0.63522 0.99352 0.0
C880 C 0.4507 0.63251 0.05998 0.0
C881 C 0.44816 0.61275 0.08831 0.0
C882 C 0.45224 0.5953 0.04798 0.0
C883 C 0.45894 0.59773 0.98012 0.0
C884 C 0.46076 0.61799 0.95245 0.0
H885 H 0.84316 0.43079 0.11491 0.0
H886 H 0.84943 0.48139 0.25849 0.0
H887 H 0.88718 0.48381 0.23262 0.0
H888 H 0.89846 0.40861 0.13502 0.0
H889 H 0.90007 0.4035 0.04578 0.0
H890 H 0.87508 0.40177 0.08866 0.0
H891 H 0.85925 0.42815 1.00327 0.0
H892 H 0.88414 0.43019 0.96079 0.0
H893 H 0.87151 0.45334 0.99268 0.0
H894 H 0.92158 0.48631 0.17391 0.0
H895 H 0.9507 0.48709 0.09113 0.0
H896 H 0.92203 0.43572 0.9831 0.0
C897 C 0.85262 0.44193 0.14244 0.0
C898 C 0.8433 0.45581 0.18892 0.0
C899 C 0.85621 0.47025 0.22372 0.0
C900 C 0.87771 0.47183 0.2091 0.0
C901 C 0.88613 0.45875 0.16002 0.0
C902 C 0.87405 0.44382 0.12794 0.0
C903 C 0.88606 0.43369 0.07076 0.0
C904 C 0.89017 0.41051 0.08599 0.0
C905 C 0.87456 0.43653 1.00292 0.0
C906 C 0.90625 0.44617 0.07295 0.0
C907 C 0.90616 0.46025 0.12566 0.0
C908 C 0.92209 0.475 0.13352 0.0
C909 C 0.93843 0.47548 0.08598 0.0
C910 C 0.93861 0.46137 0.03117 0.0
C911 C 0.92252 0.44632 0.02551 0.0
H912 H 0.03098 0.16518 0.81553 0.0
H913 H 0.98177 0.15769 0.96595 0.0
H914 H 0.97394 0.1227 0.92142 0.0
H915 H 1.00327 0.13805 0.67893 0.0
H916 H 0.02684 0.12606 0.64644 0.0
H917 H 0.02831 0.15093 0.6884 0.0
H918 H 0.05572 0.13591 0.77201 0.0
H919 H 0.05439 0.11105 0.73018 0.0
H920 H 0.04946 0.11268 0.81961 0.0
H921 H 0.97233 0.08776 0.86459 0.0
H922 H 0.97755 0.05518 0.80038 0.0
H923 H 0.02686 0.0848 0.68324 0.0
C924 C 0.01835 0.15634 0.83862 0.0
C925 C 1.00709 0.1644 0.89488 0.0
C926 C 0.99093 0.15196 0.92381 0.0
C927 C 0.9862 0.13205 0.89839 0.0
C928 C 0.99764 0.12459 0.84341 0.0
C929 C 1.01337 0.13634 0.81369 0.0
C930 C 0.02367 0.12427 0.75632 0.0
C931 C 0.02032 0.1355 0.6885 0.0
C932 C 0.04721 0.12077 0.7704 0.0
C933 C 1.01148 0.10383 0.75907 0.0
C934 C 0.99645 0.10446 0.8096 0.0
C935 C 0.98384 0.08722 0.82436 0.0
C936 C 0.98686 0.06878 0.78748 0.0
C937 C 1.00221 0.0676 0.73586 0.0
C938 C 0.01456 0.08546 0.72105 0.0
H939 H 0.36032 0.01226 0.83676 0.0
H940 H 0.3673 0.04081 0.03392 0.0
H941 H 0.40532 0.04457 0.01414 0.0
H942 H 0.40873 0.98326 0.84037 0.0
H943 H 0.41503 0.98715 0.75252 0.0
H944 H 0.38797 0.98711 0.77968 0.0
H945 H 0.38261 0.02351 0.72604 0.0
H946 H 0.40966 0.02381 0.6987 0.0
H947 H 0.39964 0.04474 0.74998 0.0
H948 H 0.44247 0.04476 0.97618 0.0
H949 H 0.4771 0.04098 0.92284 0.0
H950 H 0.44784 0.01251 0.74782 0.0
C951 C 0.36982 0.01948 0.8755 0.0
C952 C 0.36059 0.02607 0.93746 0.0
C953 C 0.3738 0.03525 0.98676 0.0
C954 C 0.39548 0.03763 0.97574 0.0
C955 C 0.40404 0.03083 0.91488 0.0
C956 C 0.39172 0.02195 0.86533 0.0
C957 C 0.40532 0.01555 0.80518 0.0
C958 C 0.40419 0.99186 0.79378 0.0
C959 C 0.39892 0.02762 0.7412 0.0
C960 C 0.42715 0.02211 0.82919 0.0
C961 C 0.42586 0.03096 0.89256 0.0
C962 C 0.44367 0.03791 0.9265 0.0
C963 C 0.46338 0.03564 0.89554 0.0
C964 C 0.46545 0.02644 0.83084 0.0
C965 C 0.44691 0.01973 0.79702 0.0
H966 H 0.50707 0.36742 0.98145 0.0
H967 H 0.53812 0.32923 0.83073 0.0
H968 H 0.54231 0.36013 0.75754 0.0
H969 H 0.47871 0.39986 0.86689 0.0
H970 H 0.48189 0.42342 0.9152 0.0
H971 H 0.48185 0.39845 0.95721 0.0
H972 H 0.51817 0.40667 0.00999 0.0
H973 H 0.51827 0.43172 0.96838 0.0
H974 H 0.53982 0.41387 0.95585 0.0
H975 H 0.54197 0.3951 0.69783 0.0
H976 H 0.53811 0.43154 0.65857 0.0
H977 H 0.50813 0.44752 0.84846 0.0
C978 C 0.51503 0.36558 0.93352 0.0
C979 C 0.5221 0.34567 0.912 0.0
C980 C 0.5322 0.3441 0.84826 0.0
C981 C 0.53478 0.36164 0.8063 0.0
C982 C 0.52733 0.38088 0.82849 0.0
C983 C 0.51779 0.38301 0.89082 0.0
C984 C 0.51092 0.40547 0.90202 0.0
C985 C 0.48692 0.40687 0.91084 0.0
C986 C 0.52249 0.41499 0.96266 0.0
C987 C 0.51795 0.41555 0.83614 0.0
C988 C 0.52738 0.40108 0.79442 0.0
C989 C 0.53472 0.40658 0.73033 0.0
C990 C 0.53241 0.42736 0.70834 0.0
C991 C 0.52288 0.44256 0.75024 0.0
C992 C 0.51562 0.43642 0.81513 0.0
H993 H 0.15801 0.4907 0.9453 0.0
H994 H 0.19317 0.53096 0.80925 0.0
H995 H 0.16175 0.53457 0.73709 0.0
H996 H 0.12897 0.46344 0.81718 0.0
H997 H 0.10509 0.46189 0.86611 0.0
H998 H 0.1302 0.46286 0.90806 0.0
H999 H 0.11802 0.49517 0.97586 0.0
H1000 H 0.09284 0.49423 0.93433 0.0
H1001 H 0.10833 0.51779 0.93137 0.0
H1002 H 0.12612 0.53324 0.67743 0.0
H1003 H 0.08945 0.52808 0.63905 0.0
H1004 H 0.07772 0.48836 0.81304 0.0
C1005 C 0.15921 0.50023 0.90024 0.0
C1006 C 0.17828 0.5106 0.88357 0.0
C1007 C 0.17881 0.5231 0.82426 0.0
C1008 C 0.16102 0.52512 0.78242 0.0
C1009 C 0.14261 0.51458 0.80013 0.0
C1010 C 0.14156 0.50244 0.85786 0.0
C1011 C 0.11985 0.49278 0.86571 0.0
C1012 C 0.12112 0.46882 0.86416 0.0
C1013 C 0.10913 0.50046 0.93067 0.0
C1014 C 0.10887 0.50128 0.8033 0.0
C1015 C 0.12225 0.51381 0.766 0.0
C1016 C 0.11555 0.52344 0.70641 0.0
C1017 C 0.09464 0.52037 0.68483 0.0
C1018 C 0.08053 0.50776 0.7226 0.0
C1019 C 0.08798 0.49803 0.78249 0.0
H1020 H 1.00084 0.86023 0.39833 0.0
H1021 H 0.021 0.82557 0.57557 0.0
H1022 H 0.02392 0.85834 0.63903 0.0
H1023 H 0.0354 0.9049 0.42433 0.0
H1024 H 0.01638 0.9238 0.39566 0.0
H1025 H 0.01582 0.8976 0.363 0.0
H1026 H 0.97696 0.89388 0.40001 0.0
H1027 H 0.97737 0.92005 0.43293 0.0
H1028 H 0.96988 0.89856 0.48679 0.0
H1029 H 0.02462 0.89461 0.68475 0.0
H1030 H 0.02315 0.93223 0.70948 0.0
H1031 H 1.0028 0.94449 0.50395 0.0
C1032 C 1.00599 0.85955 0.45035 0.0
C1033 C 1.01042 0.84009 0.48192 0.0
C1034 C 0.01704 0.84006 0.55032 0.0
C1035 C 0.01891 0.85867 0.58687 0.0
C1036 C 1.01421 0.87745 0.55471 0.0
C1037 C 1.00792 0.87812 0.48799 0.0
C1038 C 1.00372 0.90056 0.46612 0.0
C1039 C 0.01873 0.9071 0.40888 0.0
C1040 C 0.98061 0.90343 0.44524 0.0
C1041 C 1.00858 0.91229 0.53104 0.0
C1042 C 0.01464 0.89858 0.58132 0.0
C1043 C 0.01991 0.9055 0.64574 0.0
C1044 C 0.01902 0.92698 0.65932 0.0
C1045 C 1.01285 0.94149 0.60892 0.0
C1046 C 1.00755 0.9339 0.54381 0.0
H1047 H 0.66318 1.00737 0.4398 0.0
H1048 H 0.70507 1.00027 0.61147 0.0
H1049 H 0.67456 0.99871 0.68743 0.0
H1050 H 0.6247 0.03875 0.51687 0.0
H1051 H 0.6023 0.02618 0.47888 0.0
H1052 H 0.62734 0.02602 0.43627 0.0
H1053 H 0.62687 0.98545 0.43144 0.0
H1054 H 0.60135 0.98591 0.47123 0.0
H1055 H 0.62242 0.9708 0.50775 0.0
H1056 H 0.63965 1.00027 0.74689 0.0
H1057 H 0.60265 1.00274 0.78422 0.0
H1058 H 0.58257 1.00629 0.57524 0.0
C1059 C 0.66601 1.00514 0.49315 0.0
C1060 C 0.68685 1.0044 0.51907 0.0
C1061 C 0.68951 1.00159 0.58974 0.0
C1062 C 0.67219 1.00046 0.63363 0.0
C1063 C 0.65201 1.00172 0.60664 0.0
C1064 C 0.64877 1.00366 0.53797 0.0
C1065 C 0.62533 1.00458 0.52247 0.0
C1066 C 0.61959 0.02511 0.48651 0.0
C1067 C 0.61858 0.98556 0.48074 0.0
C1068 C 0.616 1.00358 0.59324 0.0
C1069 C 0.63173 1.00183 0.64096 0.0
C1070 C 0.62719 1.00139 0.70988 0.0
C1071 C 0.60608 1.00283 0.73067 0.0
C1072 C 0.58959 1.00451 0.6829 0.0
C1073 C 0.59473 1.0047 0.61314 0.0
H1074 H 0.53282 0.66826 0.57 0.0
H1075 H 0.49415 0.66336 0.39034 0.0
H1076 H 0.48587 0.62684 0.41968 0.0
H1077 H 0.55471 0.617 0.56293 0.0
H1078 H 0.5543 0.6127 0.65286 0.0
H1079 H 0.55649 0.63883 0.6198 0.0
H1080 H 0.52366 0.6498 0.68855 0.0
H1081 H 0.52132 0.62366 0.72164 0.0
H1082 H 0.49941 0.63556 0.67855 0.0
H1083 H 0.48383 0.5902 0.46294 0.0
H1084 H 0.48732 0.55596 0.51922 0.0
H1085 H 0.52595 0.58396 0.67472 0.0
C1086 C 0.52256 0.65952 0.53693 0.0
C1087 C 0.51406 0.66886 0.47781 0.0
C1088 C 0.50062 0.6568 0.43629 0.0
C1089 C 0.49588 0.63596 0.45244 0.0
C1090 C 0.50452 0.62727 0.51078 0.0
C1091 C 0.51747 0.63866 0.55275 0.0
C1092 C 0.52492 0.62531 0.61186 0.0
C1093 C 0.54904 0.62335 0.61183 0.0
C1094 C 0.51684 0.63411 0.67914 0.0
C1095 C 0.51447 0.60454 0.59578 0.0
C1096 C 0.50278 0.60612 0.53711 0.0
C1097 C 0.49268 0.58887 0.50938 0.0
C1098 C 0.49476 0.56947 0.54171 0.0
C1099 C 0.50662 0.56735 0.60181 0.0
C1100 C 0.51635 0.58523 0.62977 0.0
H1101 H 0.86714 0.52216 0.42006 0.0
H1102 H 0.83216 0.49452 0.58621 0.0
H1103 H 0.86508 0.49036 0.65029 0.0
H1104 H 0.91314 0.48825 0.43612 0.0
H1105 H 0.93151 0.50866 0.4146 0.0
H1106 H 0.90515 0.5093 0.38125 0.0
H1107 H 0.89996 0.5463 0.43076 0.0
H1108 H 0.92623 0.5457 0.46467 0.0
H1109 H 0.90416 0.5505 0.51965 0.0
H1110 H 0.90199 0.48993 0.69865 0.0
H1111 H 0.93998 0.49202 0.72464 0.0
H1112 H 0.9514 0.51908 0.52676 0.0
C1113 C 0.86638 0.51499 0.46955 0.0
C1114 C 0.84677 0.50892 0.49798 0.0
C1115 C 0.84673 0.49977 0.56341 0.0
C1116 C 0.86544 0.4972 0.60027 0.0
C1117 C 0.88435 0.50367 0.57131 0.0
C1118 C 0.885 0.51223 0.50719 0.0
C1119 C 0.90747 0.51792 0.48791 0.0
C1120 C 0.91474 0.50528 0.42632 0.0
C1121 C 0.90957 0.54151 0.475 0.0
C1122 C 0.91926 0.51137 0.55132 0.0
C1123 C 0.90563 0.50319 0.59884 0.0
C1124 C 0.91281 0.49625 0.66163 0.0
C1125 C 0.93447 0.49755 0.67607 0.0
C1126 C 0.94885 0.50572 0.62803 0.0
C1127 C 0.94095 0.51275 0.56487 0.0
loop_
_geom_bond_atom_site_label_1
_geom_bond_atom_site_label_2
_geom_bond_distance
_geom_bond_site_symmetry_2
_ccdc_geom_bond_type
C0 C1 1.264 . S
C0 C5 1.479 . S
C0 C10 1.465 . S
C1 C0 1.264 . S
C1 C3 1.339 . S
C1 H28 0.931 . S
C2 C3 1.395 . S
C2 C4 1.320 . S
C3 C1 1.339 . S
C3 C2 1.395 . S
C3 H29 0.929 . S
C4 C2 1.320 . S
C4 C5 1.405 . S
C4 H30 0.930 . S
C5 C0 1.479 . S
C5 C4 1.405 . S
C5 H31 0.931 . S
U6 O7 2.454 . S
U6 O8 2.458 . S
U6 C9 2.984 . S
U6 C10 2.847 . S
U6 C23 2.882 . S
U6 O24 2.441 . S
U6 O25 2.420 . S
U6 O26 2.455 . S
U6 O27 2.449 . S
O7 U6 2.454 . S
O7 C9 1.353 . S
O8 U6 2.458 . S
O8 C9 1.286 . S
C9 U6 2.984 . S
C9 O7 1.353 . S
C9 O8 1.286 . S
C9 C11 1.363 . S
C10 C0 1.465 . S
C10 U6 2.847 . S
C10 O24 1.249 . S
C10 O25 1.202 . S
C11 C9 1.363 . S
C11 C13 1.408 . S
C11 C16 1.342 . S
C12 C13 1.310 . S
C12 C15 1.461 . S
C12 H32 0.932 . S
C13 C11 1.408 . S
C13 C12 1.310 . S
C13 H33 0.930 . S
C14 C15 1.474 . S
C14 C16 1.285 . S
C14 H34 0.929 . S
C15 C12 1.461 . S
C15 C14 1.474 . S
C16 C11 1.342 . S
C16 C14 1.285 . S
C16 H35 0.930 . S
C17 C20 1.424 . S
C17 C22 1.245 . S
C17 C23 1.428 . S
C18 C21 1.260 . S
C18 C22 1.477 . S
C18 H36 0.932 . S
C19 C20 1.384 . S
C19 C21 1.479 . S
C19 H37 0.929 . S
C20 C17 1.424 . S
C20 C19 1.384 . S
C20 H38 0.928 . S
C21 C18 1.260 . S
C21 C19 1.479 . S
C22 C17 1.245 . S
C22 C18 1.477 . S
C22 H39 0.932 . S
C23 U6 2.882 . S
C23 C17 1.428 . S
C23 O26 1.301 . S
C23 O27 1.282 . S
O24 U6 2.441 . S
O24 C10 1.249 . S
O25 U6 2.420 . S
O25 C10 1.202 . S
O26 U6 2.455 . S
O26 C23 1.301 . S
O27 U6 2.449 . S
O27 C23 1.282 . S
H28 C1 0.931 . S
H29 C3 0.929 . S
H30 C4 0.930 . S
H31 C5 0.931 . S
H32 C12 0.932 . S
H33 C13 0.930 . S
H34 C14 0.929 . S
H35 C16 0.930 . S
H36 C18 0.932 . S
H37 C19 0.929 . S
H38 C20 0.928 . S
H39 C22 0.932 . S
C40 C41 1.264 . S
C40 C45 1.479 . S
C40 C50 1.465 . S
C41 C40 1.264 . S
C41 C43 1.339 . S
C41 H68 0.931 . S
C42 C43 1.395 . S
C42 C44 1.320 . S
C43 C41 1.339 . S
C43 C42 1.395 . S
C43 H69 0.929 . S
C44 C42 1.320 . S
C44 C45 1.405 . S
C44 H70 0.921 1_455 S
C45 C40 1.479 . S
C45 C44 1.405 . S
C45 H71 0.931 . S
U46 O47 2.454 . S
U46 O48 2.458 . S
U46 C49 2.984 . S
U46 C50 2.847 . S
U46 C63 2.882 . S
U46 O64 2.441 . S
U46 O65 2.420 . S
U46 O66 2.455 . S
U46 O67 2.449 . S
O47 U46 2.454 . S
O47 C49 1.353 . S
O48 U46 2.458 . S
O48 C49 1.286 . S
C49 U46 2.984 . S
C49 O47 1.353 . S
C49 O48 1.286 . S
C49 C51 1.363 . S
C50 C40 1.465 . S
C50 U46 2.847 . S
C50 O64 1.249 . S
C50 O65 1.202 . S
C51 C49 1.363 . S
C51 C53 1.408 . S
C51 C56 1.342 . S
C52 C53 1.310 . S
C52 C55 1.461 . S
C52 H72 0.932 . S
C53 C51 1.408 . S
C53 C52 1.310 . S
C53 H73 0.930 . S
C54 C55 1.474 1_655 S
C54 C56 1.285 1_655 S
C54 H74 0.930 . S
C55 C52 1.461 . S
C55 C54 1.474 1_455 S
C56 C51 1.342 . S
C56 C54 1.285 1_455 S
C56 H75 0.932 . S
C57 C60 1.424 . S
C57 C62 1.245 . S
C57 C63 1.428 . S
C58 C61 1.260 . S
C58 C62 1.477 . S
C58 H76 0.932 . S
C59 C60 1.384 . S
C59 C61 1.479 . S
C59 H77 0.929 . S
C60 C57 1.424 . S
C60 C59 1.384 . S
C60 H78 0.928 . S
C61 C58 1.260 . S
C61 C59 1.479 . S
C62 C57 1.245 . S
C62 C58 1.477 . S
C62 H79 0.932 . S
C63 U46 2.882 . S
C63 C57 1.428 . S
C63 O66 1.301 . S
C63 O67 1.282 . S
O64 U46 2.441 . S
O64 C50 1.249 . S
O65 U46 2.420 . S
O65 C50 1.202 . S
O66 U46 2.455 . S
O66 C63 1.301 . S
O67 U46 2.449 . S
O67 C63 1.282 . S
H68 C41 0.931 . S
H69 C43 0.929 . S
H70 C44 0.921 1_655 S
H71 C45 0.931 . S
H72 C52 0.932 . S
H73 C53 0.930 . S
H74 C54 0.930 . S
H75 C56 0.932 . S
H76 C58 0.932 . S
H77 C59 0.929 . S
H78 C60 0.928 . S
H79 C62 0.932 . S
C80 C81 1.264 . S
C80 C85 1.479 . S
C80 C90 1.465 . S
C81 C80 1.264 . S
C81 C83 1.339 . S
C81 H108 0.931 . S
C82 C83 1.395 . S
C82 C84 1.320 . S
C83 C81 1.339 . S
C83 C82 1.395 . S
C83 H109 0.929 . S
C84 C82 1.320 . S
C84 C85 1.405 . S
C84 H110 0.921 1_545 S
C85 C80 1.479 . S
C85 C84 1.405 . S
C85 H111 0.931 . S
U86 O87 2.454 . S
U86 O88 2.458 . S
U86 C89 2.984 . S
U86 C90 2.847 . S
U86 C103 2.882 . S
U86 O104 2.441 . S
U86 O105 2.420 . S
U86 O106 2.455 . S
U86 O107 2.449 . S
O87 U86 2.454 . S
O87 C89 1.353 . S
O88 U86 2.458 . S
O88 C89 1.286 . S
C89 U86 2.984 . S
C89 O87 1.353 . S
C89 O88 1.286 . S
C89 C91 1.363 . S
C90 C80 1.465 . S
C90 U86 2.847 . S
C90 O104 1.249 . S
C90 O105 1.202 . S
C91 C89 1.363 . S
C91 C93 1.408 . S
C91 C96 1.342 . S
C92 C93 1.310 . S
C92 C95 1.461 . S
C92 H112 0.932 . S
C93 C91 1.408 . S
C93 C92 1.310 . S
C93 H113 0.930 . S
C94 C95 1.474 1_565 S
C94 C96 1.285 1_565 S
C94 H114 0.930 . S
C95 C92 1.461 . S
C95 C94 1.474 1_545 S
C96 C91 1.342 . S
C96 C94 1.285 1_545 S
C96 H115 0.932 . S
C97 C100 1.424 . S
C97 C102 1.245 . S
C97 C103 1.428 . S
C98 C101 1.260 . S
C98 C102 1.477 . S
C98 H116 0.932 . S
C99 C100 1.384 . S
C99 C101 1.479 . S
C99 H117 0.929 . S
C100 C97 1.424 . S
C100 C99 1.384 . S
C100 H118 0.928 . S
C101 C98 1.260 . S
C101 C99 1.479 . S
C102 C97 1.245 . S
C102 C98 1.477 . S
C102 H119 0.932 . S
C103 U86 2.882 . S
C103 C97 1.428 . S
C103 O106 1.301 . S
C103 O107 1.282 . S
O104 U86 2.441 . S
O104 C90 1.249 . S
O105 U86 2.420 . S
O105 C90 1.202 . S
O106 U86 2.455 . S
O106 C103 1.301 . S
O107 U86 2.449 . S
O107 C103 1.282 . S
H108 C81 0.931 . S
H109 C83 0.929 . S
H110 C84 0.921 1_565 S
H111 C85 0.931 . S
H112 C92 0.932 . S
H113 C93 0.930 . S
H114 C94 0.930 . S
H115 C96 0.932 . S
H116 C98 0.932 . S
H117 C99 0.929 . S
H118 C100 0.928 . S
H119 C102 0.932 . S
C120 C121 1.264 . S
C120 C125 1.479 . S
C120 C130 1.465 . S
C121 C120 1.264 . S
C121 C123 1.339 . S
C121 H148 0.931 . S
C122 C123 1.395 . S
C122 C124 1.320 . S
C123 C121 1.339 . S
C123 C122 1.395 . S
C123 H149 0.929 . S
C124 C122 1.320 . S
C124 C125 1.405 . S
C124 H150 0.930 . S
C125 C120 1.479 . S
C125 C124 1.405 . S
C125 H151 0.931 . S
U126 O127 2.454 . S
U126 O128 2.458 . S
U126 C129 2.984 . S
U126 C130 2.847 . S
U126 C143 2.882 . S
U126 O144 2.441 . S
U126 O145 2.420 . S
U126 O146 2.455 . S
U126 O147 2.449 . S
O127 U126 2.454 . S
O127 C129 1.353 . S
O128 U126 2.458 . S
O128 C129 1.286 . S
C129 U126 2.984 . S
C129 O127 1.353 . S
C129 O128 1.286 . S
C129 C131 1.363 . S
C130 C120 1.465 . S
C130 U126 2.847 . S
C130 O144 1.249 . S
C130 O145 1.202 . S
C131 C129 1.363 . S
C131 C133 1.408 . S
C131 C136 1.342 . S
C132 C133 1.310 . S
C132 C135 1.461 . S
C132 H152 0.932 . S
C133 C131 1.408 . S
C133 C132 1.310 . S
C133 H153 0.930 . S
C134 C135 1.474 . S
C134 C136 1.285 . S
C134 H154 0.929 . S
C135 C132 1.461 . S
C135 C134 1.474 . S
C136 C131 1.342 . S
C136 C134 1.285 . S
C136 H155 0.930 . S
C137 C140 1.424 . S
C137 C142 1.245 . S
C137 C143 1.428 . S
C138 C141 1.260 . S
C138 C142 1.477 . S
C138 H156 0.932 . S
C139 C140 1.384 . S
C139 C141 1.479 . S
C139 H157 0.929 . S
C140 C137 1.424 . S
C140 C139 1.384 . S
C140 H158 0.928 . S
C141 C138 1.260 . S
C141 C139 1.479 . S
C142 C137 1.245 . S
C142 C138 1.477 . S
C142 H159 0.932 . S
C143 U126 2.882 . S
C143 C137 1.428 . S
C143 O146 1.301 . S
C143 O147 1.282 . S
O144 U126 2.441 . S
O144 C130 1.249 . S
O145 U126 2.420 . S
O145 C130 1.202 . S
O146 U126 2.455 . S
O146 C143 1.301 . S
O147 U126 2.449 . S
O147 C143 1.282 . S
H148 C121 0.931 . S
H149 C123 0.929 . S
H150 C124 0.930 . S
H151 C125 0.931 . S
H152 C132 0.932 . S
H153 C133 0.930 . S
H154 C134 0.929 . S
H155 C136 0.930 . S
H156 C138 0.932 . S
H157 C139 0.929 . S
H158 C140 0.928 . S
H159 C142 0.932 . S
C160 C161 1.264 . S
C160 C165 1.479 . S
C160 C170 1.465 . S
C161 C160 1.264 . S
C161 C163 1.339 . S
C161 H188 0.931 . S
C162 C163 1.395 . S
C162 C164 1.320 . S
C163 C161 1.339 . S
C163 C162 1.395 . S
C163 H189 0.929 . S
C164 C162 1.320 . S
C164 C165 1.405 . S
C164 H190 0.930 . S
C165 C160 1.479 . S
C165 C164 1.405 . S
C165 H191 0.931 . S
U166 O167 2.454 . S
U166 O168 2.458 . S
U166 C169 2.984 . S
U166 C170 2.847 1_554 S
U166 C183 2.882 . S
U166 O184 2.441 1_554 S
U166 O185 2.420 1_554 S
U166 O186 2.455 . S
U166 O187 2.449 . S
O167 U166 2.454 . S
O167 C169 1.353 . S
O168 U166 2.458 . S
O168 C169 1.286 . S
C169 U166 2.984 . S
C169 O167 1.353 . S
C169 O168 1.286 . S
C169 C171 1.363 . S
C170 C160 1.465 . S
C170 U166 2.847 1_556 S
C170 O184 1.249 . S
C170 O185 1.202 . S
C171 C169 1.363 . S
C171 C173 1.408 . S
C171 C176 1.342 . S
C172 C173 1.310 . S
C172 C175 1.461 . S
C172 H192 0.932 . S
C173 C171 1.408 . S
C173 C172 1.310 . S
C173 H193 0.930 . S
C174 C175 1.474 . S
C174 C176 1.285 . S
C174 H194 0.929 . S
C175 C172 1.461 . S
C175 C174 1.474 . S
C176 C171 1.342 . S
C176 C174 1.285 . S
C176 H195 0.930 . S
C177 C180 1.424 . S
C177 C182 1.245 . S
C177 C183 1.428 . S
C178 C181 1.260 . S
C178 C182 1.477 . S
C178 H196 0.932 . S
C179 C180 1.384 . S
C179 C181 1.479 . S
C179 H197 0.929 . S
C180 C177 1.424 . S
C180 C179 1.384 . S
C180 H198 0.928 . S
C181 C178 1.260 . S
C181 C179 1.479 . S
C182 C177 1.245 . S
C182 C178 1.477 . S
C182 H199 0.932 . S
C183 U166 2.882 . S
C183 C177 1.428 . S
C183 O186 1.301 . S
C183 O187 1.282 . S
O184 U166 2.441 1_556 S
O184 C170 1.249 . S
O185 U166 2.420 1_556 S
O185 C170 1.202 . S
O186 U166 2.455 . S
O186 C183 1.301 . S
O187 U166 2.449 . S
O187 C183 1.282 . S
H188 C161 0.931 . S
H189 C163 0.929 . S
H190 C164 0.930 . S
H191 C165 0.931 . S
H192 C172 0.932 . S
H193 C173 0.930 . S
H194 C174 0.929 . S
H195 C176 0.930 . S
H196 C178 0.932 . S
H197 C179 0.929 . S
H198 C180 0.928 . S
H199 C182 0.932 . S
C200 C201 1.264 . S
C200 C205 1.479 . S
C200 C210 1.465 . S
C201 C200 1.264 . S
C201 C203 1.339 . S
C201 H228 0.931 . S
C202 C203 1.395 . S
C202 C204 1.320 . S
C203 C201 1.339 . S
C203 C202 1.395 . S
C203 H229 0.929 . S
C204 C202 1.320 . S
C204 C205 1.405 . S
C204 H230 0.923 1_455 S
C205 C200 1.479 . S
C205 C204 1.405 . S
C205 H231 0.931 . S
U206 O207 2.454 . S
U206 O208 2.458 . S
U206 C209 2.984 . S
U206 C210 2.847 1_554 S
U206 C223 2.882 . S
U206 O224 2.441 1_554 S
U206 O225 2.420 1_554 S
U206 O226 2.455 . S
U206 O227 2.449 . S
O207 U206 2.454 . S
O207 C209 1.353 . S
O208 U206 2.458 . S
O208 C209 1.286 . S
C209 U206 2.984 . S
C209 O207 1.353 . S
C209 O208 1.286 . S
C209 C211 1.363 . S
C210 C200 1.465 . S
C210 U206 2.847 1_556 S
C210 O224 1.249 . S
C210 O225 1.202 . S
C211 C209 1.363 . S
C211 C213 1.408 . S
C211 C216 1.342 . S
C212 C213 1.310 . S
C212 C215 1.462 . S
C212 H232 0.932 . S
C213 C211 1.408 . S
C213 C212 1.310 . S
C213 H233 0.930 . S
C214 C215 1.474 1_655 S
C214 C216 1.286 1_655 S
C214 H234 0.929 . S
C215 C212 1.462 . S
C215 C214 1.474 1_455 S
C216 C211 1.342 . S
C216 C214 1.286 1_455 S
C216 H235 0.933 . S
C217 C220 1.424 . S
C217 C222 1.245 . S
C217 C223 1.428 . S
C218 C221 1.260 . S
C218 C222 1.477 . S
C218 H236 0.932 . S
C219 C220 1.384 . S
C219 C221 1.479 . S
C219 H237 0.929 . S
C220 C217 1.424 . S
C220 C219 1.384 . S
C220 H238 0.928 . S
C221 C218 1.260 . S
C221 C219 1.479 . S
C222 C217 1.245 . S
C222 C218 1.477 . S
C222 H239 0.932 . S
C223 U206 2.882 . S
C223 C217 1.428 . S
C223 O226 1.301 . S
C223 O227 1.282 . S
O224 U206 2.441 1_556 S
O224 C210 1.249 . S
O225 U206 2.420 1_556 S
O225 C210 1.202 . S
O226 U206 2.455 . S
O226 C223 1.301 . S
O227 U206 2.449 . S
O227 C223 1.282 . S
H228 C201 0.931 . S
H229 C203 0.929 . S
H230 C204 0.923 1_655 S
H231 C205 0.931 . S
H232 C212 0.932 . S
H233 C213 0.930 . S
H234 C214 0.929 . S
H235 C216 0.933 . S
H236 C218 0.932 . S
H237 C219 0.929 . S
H238 C220 0.928 . S
H239 C222 0.932 . S
C240 C241 1.264 . S
C240 C245 1.479 . S
C240 C250 1.465 . S
C241 C240 1.264 . S
C241 C243 1.339 . S
C241 H268 0.931 . S
C242 C243 1.395 . S
C242 C244 1.320 . S
C243 C241 1.339 . S
C243 C242 1.395 . S
C243 H269 0.929 . S
C244 C242 1.320 . S
C244 C245 1.405 . S
C244 H270 0.923 1_545 S
C245 C240 1.479 . S
C245 C244 1.405 . S
C245 H271 0.931 . S
U246 O247 2.454 . S
U246 O248 2.458 . S
U246 C249 2.984 . S
U246 C250 2.847 1_554 S
U246 C263 2.882 . S
U246 O264 2.441 1_554 S
U246 O265 2.420 1_554 S
U246 O266 2.455 . S
U246 O267 2.449 . S
O247 U246 2.454 . S
O247 C249 1.353 . S
O248 U246 2.458 . S
O248 C249 1.286 . S
C249 U246 2.984 . S
C249 O247 1.353 . S
C249 O248 1.286 . S
C249 C251 1.363 . S
C250 C240 1.465 . S
C250 U246 2.847 1_556 S
C250 O264 1.249 . S
C250 O265 1.202 . S
C251 C249 1.363 . S
C251 C253 1.408 . S
C251 C256 1.342 . S
C252 C253 1.310 . S
C252 C255 1.462 . S
C252 H272 0.932 . S
C253 C251 1.408 . S
C253 C252 1.310 . S
C253 H273 0.930 . S
C254 C255 1.474 1_565 S
C254 C256 1.286 1_565 S
C254 H274 0.929 . S
C255 C252 1.462 . S
C255 C254 1.474 1_545 S
C256 C251 1.342 . S
C256 C254 1.286 1_545 S
C256 H275 0.933 . S
C257 C260 1.424 . S
C257 C262 1.245 . S
C257 C263 1.428 . S
C258 C261 1.260 . S
C258 C262 1.477 . S
C258 H276 0.932 . S
C259 C260 1.384 . S
C259 C261 1.479 . S
C259 H277 0.929 . S
C260 C257 1.424 . S
C260 C259 1.384 . S
C260 H278 0.928 . S
C261 C258 1.260 . S
C261 C259 1.479 . S
C262 C257 1.245 . S
C262 C258 1.477 . S
C262 H279 0.932 . S
C263 U246 2.882 . S
C263 C257 1.428 . S
C263 O266 1.301 . S
C263 O267 1.282 . S
O264 U246 2.441 1_556 S
O264 C250 1.249 . S
O265 U246 2.420 1_556 S
O265 C250 1.202 . S
O266 U246 2.455 . S
O266 C263 1.301 . S
O267 U246 2.449 . S
O267 C263 1.282 . S
H268 C241 0.931 . S
H269 C243 0.929 . S
H270 C244 0.923 1_565 S
H271 C245 0.931 . S
H272 C252 0.932 . S
H273 C253 0.930 . S
H274 C254 0.929 . S
H275 C256 0.933 . S
H276 C258 0.932 . S
H277 C259 0.929 . S
H278 C260 0.928 . S
H279 C262 0.932 . S
C280 C281 1.264 . S
C280 C285 1.479 . S
C280 C290 1.465 . S
C281 C280 1.264 . S
C281 C283 1.339 . S
C281 H308 0.931 . S
C282 C283 1.395 . S
C282 C284 1.320 . S
C283 C281 1.339 . S
C283 C282 1.395 . S
C283 H309 0.929 . S
C284 C282 1.320 . S
C284 C285 1.405 . S
C284 H310 0.930 . S
C285 C280 1.479 . S
C285 C284 1.405 . S
C285 H311 0.931 . S
U286 O287 2.454 . S
U286 O288 2.458 . S
U286 C289 2.984 . S
U286 C290 2.847 1_554 S
U286 C303 2.882 . S
U286 O304 2.441 1_554 S
U286 O305 2.420 1_554 S
U286 O306 2.455 . S
U286 O307 2.449 . S
O287 U286 2.454 . S
O287 C289 1.353 . S
O288 U286 2.458 . S
O288 C289 1.286 . S
C289 U286 2.984 . S
C289 O287 1.353 . S
C289 O288 1.286 . S
C289 C291 1.363 . S
C290 C280 1.465 . S
C290 U286 2.847 1_556 S
C290 O304 1.249 . S
C290 O305 1.202 . S
C291 C289 1.363 . S
C291 C293 1.408 . S
C291 C296 1.342 . S
C292 C293 1.310 . S
C292 C295 1.461 . S
C292 H312 0.932 . S
C293 C291 1.408 . S
C293 C292 1.310 . S
C293 H313 0.930 . S
C294 C295 1.474 . S
C294 C296 1.285 . S
C294 H314 0.929 . S
C295 C292 1.461 . S
C295 C294 1.474 . S
C296 C291 1.342 . S
C296 C294 1.285 . S
C296 H315 0.930 . S
C297 C300 1.424 . S
C297 C302 1.245 . S
C297 C303 1.428 . S
C298 C301 1.260 . S
C298 C302 1.477 . S
C298 H316 0.932 . S
C299 C300 1.384 . S
C299 C301 1.479 . S
C299 H317 0.929 . S
C300 C297 1.424 . S
C300 C299 1.384 . S
C300 H318 0.928 . S
C301 C298 1.260 . S
C301 C299 1.479 . S
C302 C297 1.245 . S
C302 C298 1.477 . S
C302 H319 0.932 . S
C303 U286 2.882 . S
C303 C297 1.428 . S
C303 O306 1.301 . S
C303 O307 1.282 . S
O304 U286 2.441 1_556 S
O304 C290 1.249 . S
O305 U286 2.420 1_556 S
O305 C290 1.202 . S
O306 U286 2.455 . S
O306 C303 1.301 . S
O307 U286 2.449 . S
O307 C303 1.282 . S
H308 C281 0.931 . S
H309 C283 0.929 . S
H310 C284 0.930 . S
H311 C285 0.931 . S
H312 C292 0.932 . S
H313 C293 0.930 . S
H314 C294 0.929 . S
H315 C296 0.930 . S
H316 C298 0.932 . S
H317 C299 0.929 . S
H318 C300 0.928 . S
H319 C302 0.932 . S
Tb320 C322 2.809 . S
Tb320 O340 2.484 . S
Tb320 O341 2.440 . S
Tb320 O342 2.658 1_565 S
Tb320 O343 2.409 . S
Tb320 O344 2.378 . S
Tb320 O348 2.325 1_455 S
Tb320 O351 2.341 1_565 S
Tb321 C331 2.809 . S
Tb321 O342 2.325 1_655 S
Tb321 O345 2.341 1_545 S
Tb321 O346 2.484 . S
Tb321 O347 2.440 . S
Tb321 O348 2.658 1_545 S
Tb321 O349 2.409 . S
Tb321 O350 2.378 . S
C322 Tb320 2.809 . S
C322 C323 1.514 . S
C322 O340 1.248 . S
C322 O341 1.266 . S
C323 C322 1.514 . S
C323 C324 1.359 . S
C323 C328 1.348 . S
C324 C323 1.359 . S
C324 C325 1.380 . S
C324 H352 0.929 1_455 S
C325 C324 1.380 . S
C325 C326 1.347 . S
C325 H353 0.931 1_455 S
C326 C325 1.347 . S
C326 C327 1.369 . S
C327 C326 1.369 . S
C327 C328 1.408 . S
C327 H354 0.930 . S
C328 C323 1.348 . S
C328 C327 1.408 . S
C328 H355 0.930 . S
C329 O342 1.281 1_565 S
C329 O343 1.254 . S
C330 O344 1.236 1_655 S
C330 O345 1.266 . S
C331 Tb321 2.809 . S
C331 C332 1.514 . S
C331 O346 1.248 . S
C331 O347 1.266 . S
C332 C331 1.514 . S
C332 C333 1.359 . S
C332 C337 1.348 . S
C333 C332 1.359 . S
C333 C334 1.380 . S
C333 H356 0.929 1_655 S
C334 C333 1.380 . S
C334 C335 1.347 . S
C334 H357 0.931 1_655 S
C335 C334 1.347 . S
C335 C336 1.369 . S
C336 C335 1.369 . S
C336 C337 1.408 . S
C336 H358 0.930 . S
C337 C332 1.348 . S
C337 C336 1.408 . S
C337 H359 0.930 . S
C338 O348 1.281 1_545 S
C338 O349 1.254 . S
C339 O350 1.236 1_455 S
C339 O351 1.266 . S
O340 Tb320 2.484 . S
O340 C322 1.248 . S
O341 Tb320 2.440 . S
O341 C322 1.266 . S
O342 Tb320 2.658 1_545 S
O342 Tb321 2.325 1_455 S
O342 C329 1.281 1_545 S
O343 Tb320 2.409 . S
O343 C329 1.254 . S
O344 Tb320 2.378 . S
O344 C330 1.236 1_455 S
O345 Tb321 2.341 1_565 S
O345 C330 1.266 . S
O346 Tb321 2.484 . S
O346 C331 1.248 . S
O347 Tb321 2.440 . S
O347 C331 1.266 . S
O348 Tb320 2.325 1_655 S
O348 Tb321 2.658 1_565 S
O348 C338 1.281 1_565 S
O349 Tb321 2.409 . S
O349 C338 1.254 . S
O350 Tb321 2.378 . S
O350 C339 1.236 1_655 S
O351 Tb320 2.341 1_545 S
O351 C339 1.266 . S
H352 C324 0.929 1_655 S
H353 C325 0.931 1_655 S
H354 C327 0.930 . S
H355 C328 0.930 . S
H356 C333 0.929 1_455 S
H357 C334 0.931 1_455 S
H358 C336 0.930 . S
H359 C337 0.930 . S
Tb360 C362 2.809 . S
Tb360 O380 2.484 . S
Tb360 O381 2.440 . S
Tb360 O382 2.658 . S
Tb360 O383 2.409 . S
Tb360 O384 2.378 . S
Tb360 O388 2.325 1_545 S
Tb360 O391 2.341 . S
Tb361 C371 2.809 . S
Tb361 O382 2.325 1_565 S
Tb361 O385 2.341 . S
Tb361 O386 2.484 . S
Tb361 O387 2.440 . S
Tb361 O388 2.658 . S
Tb361 O389 2.409 . S
Tb361 O390 2.378 . S
C362 Tb360 2.809 . S
C362 C363 1.514 . S
C362 O380 1.248 . S
C362 O381 1.266 . S
C363 C362 1.514 . S
C363 C364 1.359 . S
C363 C368 1.348 . S
C364 C363 1.359 . S
C364 C365 1.380 . S
C364 H392 0.929 1_545 S
C365 C364 1.380 . S
C365 C366 1.347 . S
C365 H393 0.931 1_545 S
C366 C365 1.347 . S
C366 C367 1.369 . S
C367 C366 1.369 . S
C367 C368 1.408 . S
C367 H394 0.930 . S
C368 C363 1.348 . S
C368 C367 1.408 . S
C368 H395 0.930 . S
C369 O382 1.281 . S
C369 O383 1.254 . S
C370 O384 1.236 1_565 S
C370 O385 1.266 . S
C371 Tb361 2.809 . S
C371 C372 1.514 . S
C371 O386 1.248 . S
C371 O387 1.266 . S
C372 C371 1.514 . S
C372 C373 1.359 . S
C372 C377 1.348 . S
C373 C372 1.359 . S
C373 C374 1.380 . S
C373 H396 0.929 1_565 S
C374 C373 1.380 . S
C374 C375 1.347 . S
C374 H397 0.931 1_565 S
C375 C374 1.347 . S
C375 C376 1.369 . S
C376 C375 1.369 . S
C376 C377 1.408 . S
C376 H398 0.930 . S
C377 C372 1.348 . S
C377 C376 1.408 . S
C377 H399 0.930 . S
C378 O388 1.281 . S
C378 O389 1.254 . S
C379 O390 1.236 1_545 S
C379 O391 1.266 . S
O380 Tb360 2.484 . S
O380 C362 1.248 . S
O381 Tb360 2.440 . S
O381 C362 1.266 . S
O382 Tb360 2.658 . S
O382 Tb361 2.325 1_545 S
O382 C369 1.281 . S
O383 Tb360 2.409 . S
O383 C369 1.254 . S
O384 Tb360 2.378 . S
O384 C370 1.236 1_545 S
O385 Tb361 2.341 . S
O385 C370 1.266 . S
O386 Tb361 2.484 . S
O386 C371 1.248 . S
O387 Tb361 2.440 . S
O387 C371 1.266 . S
O388 Tb360 2.325 1_565 S
O388 Tb361 2.658 . S
O388 C378 1.281 . S
O389 Tb361 2.409 . S
O389 C378 1.254 . S
O390 Tb361 2.378 . S
O390 C379 1.236 1_565 S
O391 Tb360 2.341 . S
O391 C379 1.266 . S
H392 C364 0.929 1_565 S
H393 C365 0.931 1_565 S
H394 C367 0.930 . S
H395 C368 0.930 . S
H396 C373 0.929 1_545 S
H397 C374 0.931 1_545 S
H398 C376 0.930 . S
H399 C377 0.930 . S
Tb400 C402 2.809 . S
Tb400 O420 2.484 . S
Tb400 O421 2.440 . S
Tb400 O422 2.658 . S
Tb400 O423 2.409 . S
Tb400 O424 2.378 . S
Tb400 O428 2.325 . S
Tb400 O431 2.341 . S
Tb401 C411 2.809 . S
Tb401 O422 2.325 . S
Tb401 O425 2.341 . S
Tb401 O426 2.484 . S
Tb401 O427 2.440 . S
Tb401 O428 2.658 . S
Tb401 O429 2.409 . S
Tb401 O430 2.378 . S
C402 Tb400 2.809 . S
C402 C403 1.514 . S
C402 O420 1.248 . S
C402 O421 1.266 . S
C403 C402 1.514 . S
C403 C404 1.359 . S
C403 C408 1.348 . S
C404 C403 1.359 . S
C404 C405 1.380 . S
C404 H432 0.929 . S
C405 C404 1.380 . S
C405 C406 1.347 . S
C405 H433 0.931 . S
C406 C405 1.347 . S
C406 C407 1.369 . S
C407 C406 1.369 . S
C407 C408 1.408 . S
C407 H434 0.930 . S
C408 C403 1.348 . S
C408 C407 1.408 . S
C408 H435 0.930 . S
C409 O422 1.281 . S
C409 O423 1.254 . S
C410 O424 1.236 . S
C410 O425 1.266 . S
C411 Tb401 2.809 . S
C411 C412 1.514 . S
C411 O426 1.248 . S
C411 O427 1.266 . S
C412 C411 1.514 . S
C412 C413 1.359 . S
C412 C417 1.348 . S
C413 C412 1.359 . S
C413 C414 1.380 . S
C413 H436 0.929 . S
C414 C413 1.380 . S
C414 C415 1.347 . S
C414 H437 0.931 . S
C415 C414 1.347 . S
C415 C416 1.369 . S
C416 C415 1.369 . S
C416 C417 1.408 . S
C416 H438 0.930 . S
C417 C412 1.348 . S
C417 C416 1.408 . S
C417 H439 0.930 . S
C418 O428 1.281 . S
C418 O429 1.254 . S
C419 O430 1.236 . S
C419 O431 1.266 . S
O420 Tb400 2.484 . S
O420 C402 1.248 . S
O421 Tb400 2.440 . S
O421 C402 1.266 . S
O422 Tb400 2.658 . S
O422 Tb401 2.325 . S
O422 C409 1.281 . S
O423 Tb400 2.409 . S
O423 C409 1.254 . S
O424 Tb400 2.378 . S
O424 C410 1.236 . S
O425 Tb401 2.341 . S
O425 C410 1.266 . S
O426 Tb401 2.484 . S
O426 C411 1.248 . S
O427 Tb401 2.440 . S
O427 C411 1.266 . S
O428 Tb400 2.325 . S
O428 Tb401 2.658 . S
O428 C418 1.281 . S
O429 Tb401 2.409 . S
O429 C418 1.254 . S
O430 Tb401 2.378 . S
O430 C419 1.236 . S
O431 Tb400 2.341 . S
O431 C419 1.266 . S
H432 C404 0.929 . S
H433 C405 0.931 . S
H434 C407 0.930 . S
H435 C408 0.930 . S
H436 C413 0.929 . S
H437 C414 0.931 . S
H438 C416 0.930 . S
H439 C417 0.930 . S
Tb440 C442 2.809 . S
Tb440 O460 2.484 . S
Tb440 O461 2.440 . S
Tb440 O462 2.658 1_655 S
Tb440 O463 2.409 . S
Tb440 O464 2.378 . S
Tb440 O468 2.325 . S
Tb440 O471 2.341 1_655 S
Tb441 C451 2.809 . S
Tb441 O462 2.325 . S
Tb441 O465 2.341 1_455 S
Tb441 O466 2.484 . S
Tb441 O467 2.440 . S
Tb441 O468 2.658 1_455 S
Tb441 O469 2.409 . S
Tb441 O470 2.378 . S
C442 Tb440 2.809 . S
C442 C443 1.514 . S
C442 O460 1.248 . S
C442 O461 1.266 . S
C443 C442 1.514 . S
C443 C444 1.359 . S
C443 C448 1.348 . S
C444 C443 1.359 . S
C444 C445 1.380 . S
C444 H472 0.929 . S
C445 C444 1.380 . S
C445 C446 1.347 . S
C445 H473 0.931 . S
C446 C445 1.347 . S
C446 C447 1.369 . S
C447 C446 1.369 . S
C447 C448 1.408 . S
C447 H474 0.930 . S
C448 C443 1.348 . S
C448 C447 1.408 . S
C448 H475 0.930 . S
C449 O462 1.273 1_655 S
C449 O463 1.265 . S
C450 O464 1.236 . S
C450 O465 1.266 . S
C451 Tb441 2.809 . S
C451 C452 1.514 . S
C451 O466 1.248 . S
C451 O467 1.266 . S
C452 C451 1.514 . S
C452 C453 1.359 . S
C452 C457 1.348 . S
C453 C452 1.359 . S
C453 C454 1.380 . S
C453 H476 0.929 . S
C454 C453 1.380 . S
C454 C455 1.347 . S
C454 H477 0.931 . S
C455 C454 1.347 . S
C455 C456 1.369 . S
C456 C455 1.369 . S
C456 C457 1.408 . S
C456 H478 0.930 . S
C457 C452 1.348 . S
C457 C456 1.408 . S
C457 H479 0.930 . S
C458 O468 1.269 1_455 S
C458 O469 1.271 . S
C459 O470 1.236 . S
C459 O471 1.266 . S
O460 Tb440 2.484 . S
O460 C442 1.248 . S
O461 Tb440 2.440 . S
O461 C442 1.266 . S
O462 Tb440 2.658 1_455 S
O462 Tb441 2.325 . S
O462 C449 1.273 1_455 S
O463 Tb440 2.409 . S
O463 C449 1.265 . S
O464 Tb440 2.378 . S
O464 C450 1.236 . S
O465 Tb441 2.341 1_655 S
O465 C450 1.266 . S
O466 Tb441 2.484 . S
O466 C451 1.248 . S
O467 Tb441 2.440 . S
O467 C451 1.266 . S
O468 Tb440 2.325 . S
O468 Tb441 2.658 1_655 S
O468 C458 1.269 1_655 S
O469 Tb441 2.409 . S
O469 C458 1.271 . S
O470 Tb441 2.378 . S
O470 C459 1.236 . S
O471 Tb440 2.341 1_455 S
O471 C459 1.266 . S
H472 C444 0.929 . S
H473 C445 0.931 . S
H474 C447 0.930 . S
H475 C448 0.930 . S
H476 C453 0.929 . S
H477 C454 0.931 . S
H478 C456 0.930 . S
H479 C457 0.930 . S
H480 C492 0.930 . S
H481 C494 0.930 . S
H482 C495 0.930 . S
H483 C499 0.959 . S
H484 C499 0.959 . S
H485 C499 0.961 . S
H486 C500 0.960 . S
H487 C500 0.961 . S
H488 C500 0.959 . S
H489 C503 0.929 . S
H490 C504 0.931 . S
H491 C506 0.930 . S
C492 H480 0.930 . S
C492 C493 1.399 1_545 S
C492 C497 1.399 . S
C493 C492 1.399 1_565 S
C493 C494 1.376 . S
C494 H481 0.930 . S
C494 C493 1.376 . S
C494 C495 1.388 . S
C495 H482 0.930 . S
C495 C494 1.388 . S
C495 C496 1.390 . S
C496 C495 1.390 . S
C496 C497 1.394 1_565 S
C496 C502 1.465 . S
C497 C492 1.399 . S
C497 C496 1.394 1_545 S
C497 C498 1.516 . S
C498 C497 1.516 . S
C498 C499 1.502 . S
C498 C500 1.561 . S
C498 C501 1.526 . S
C499 H483 0.959 . S
C499 H484 0.959 . S
C499 H485 0.961 . S
C499 C498 1.502 . S
C500 H486 0.960 . S
C500 H487 0.961 . S
C500 H488 0.959 . S
C500 C498 1.561 . S
C501 C498 1.526 . S
C501 C502 1.396 1_545 S
C501 C506 1.390 . S
C502 C496 1.465 . S
C502 C501 1.396 1_565 S
C502 C503 1.399 . S
C503 H489 0.929 . S
C503 C502 1.399 . S
C503 C504 1.385 . S
C504 H490 0.931 . S
C504 C503 1.385 . S
C504 C505 1.389 . S
C505 C504 1.389 . S
C505 C506 1.387 1_565 S
C506 H491 0.930 . S
C506 C501 1.390 . S
C506 C505 1.387 1_545 S
H507 C519 0.930 . S
H508 C521 0.930 . S
H509 C522 0.930 . S
H510 C526 0.959 . S
H511 C526 0.959 . S
H512 C526 0.961 . S
H513 C527 0.960 . S
H514 C527 0.961 . S
H515 C527 0.959 . S
H516 C530 0.929 . S
H517 C531 0.931 . S
H518 C533 0.930 . S
C519 H507 0.930 . S
C519 C520 1.399 . S
C519 C524 1.399 . S
C520 C519 1.399 . S
C520 C521 1.376 . S
C521 H508 0.930 . S
C521 C520 1.376 . S
C521 C522 1.388 . S
C522 H509 0.930 . S
C522 C521 1.388 . S
C522 C523 1.390 . S
C523 C522 1.390 . S
C523 C524 1.394 . S
C523 C529 1.465 . S
C524 C519 1.399 . S
C524 C523 1.394 . S
C524 C525 1.516 . S
C525 C524 1.516 . S
C525 C526 1.502 . S
C525 C527 1.561 . S
C525 C528 1.526 . S
C526 H510 0.959 . S
C526 H511 0.959 . S
C526 H512 0.961 . S
C526 C525 1.502 . S
C527 H513 0.960 . S
C527 H514 0.961 . S
C527 H515 0.959 . S
C527 C525 1.561 . S
C528 C525 1.526 . S
C528 C529 1.396 . S
C528 C533 1.390 . S
C529 C523 1.465 . S
C529 C528 1.396 . S
C529 C530 1.399 . S
C530 H516 0.929 . S
C530 C529 1.399 . S
C530 C531 1.385 . S
C531 H517 0.931 . S
C531 C530 1.385 . S
C531 C532 1.389 . S
C532 C531 1.389 . S
C532 C533 1.387 . S
C533 H518 0.930 . S
C533 C528 1.390 . S
C533 C532 1.387 . S
H534 C546 0.930 . S
H535 C548 0.930 . S
H536 C549 0.930 . S
H537 C553 0.959 . S
H538 C553 0.959 . S
H539 C553 0.961 . S
H540 C554 0.960 . S
H541 C554 0.961 . S
H542 C554 0.959 . S
H543 C557 0.929 . S
H544 C558 0.931 . S
H545 C560 0.930 . S
C546 H534 0.930 . S
C546 C547 1.399 . S
C546 C551 1.399 . S
C547 C546 1.399 . S
C547 C548 1.376 . S
C548 H535 0.930 . S
C548 C547 1.376 . S
C548 C549 1.388 . S
C549 H536 0.930 . S
C549 C548 1.388 . S
C549 C550 1.390 . S
C550 C549 1.390 . S
C550 C551 1.394 . S
C550 C556 1.465 . S
C551 C546 1.399 . S
C551 C550 1.394 . S
C551 C552 1.516 . S
C552 C551 1.516 . S
C552 C553 1.502 . S
C552 C554 1.561 . S
C552 C555 1.526 . S
C553 H537 0.959 . S
C553 H538 0.959 . S
C553 H539 0.961 . S
C553 C552 1.502 . S
C554 H540 0.960 . S
C554 H541 0.961 . S
C554 H542 0.959 . S
C554 C552 1.561 . S
C555 C552 1.526 . S
C555 C556 1.396 . S
C555 C560 1.390 . S
C556 C550 1.465 . S
C556 C555 1.396 . S
C556 C557 1.399 . S
C557 H543 0.929 . S
C557 C556 1.399 . S
C557 C558 1.385 . S
C558 H544 0.931 . S
C558 C557 1.385 . S
C558 C559 1.389 . S
C559 C558 1.389 . S
C559 C560 1.387 . S
C560 H545 0.930 . S
C560 C555 1.390 . S
C560 C559 1.387 . S
H561 C573 0.930 . S
H562 C575 0.930 . S
H563 C576 0.930 . S
H564 C580 0.959 . S
H565 C580 0.959 . S
H566 C580 0.961 . S
H567 C581 0.960 . S
H568 C581 0.961 . S
H569 C581 0.959 . S
H570 C584 0.929 . S
H571 C585 0.931 . S
H572 C587 0.930 . S
C573 H561 0.930 . S
C573 C574 1.399 1_655 S
C573 C578 1.399 . S
C574 C573 1.399 1_455 S
C574 C575 1.376 . S
C575 H562 0.930 . S
C575 C574 1.376 . S
C575 C576 1.388 . S
C576 H563 0.930 . S
C576 C575 1.388 . S
C576 C577 1.390 . S
C577 C576 1.390 . S
C577 C578 1.394 1_455 S
C577 C583 1.465 . S
C578 C573 1.399 . S
C578 C577 1.394 1_655 S
C578 C579 1.516 . S
C579 C578 1.516 . S
C579 C580 1.502 . S
C579 C581 1.561 1_655 S
C579 C582 1.526 . S
C580 H564 0.959 . S
C580 H565 0.959 . S
C580 H566 0.961 . S
C580 C579 1.502 . S
C581 H567 0.960 . S
C581 H568 0.961 . S
C581 H569 0.959 . S
C581 C579 1.561 1_455 S
C582 C579 1.526 . S
C582 C583 1.396 1_655 S
C582 C587 1.390 . S
C583 C577 1.465 . S
C583 C582 1.396 1_455 S
C583 C584 1.399 . S
C584 H570 0.929 . S
C584 C583 1.399 . S
C584 C585 1.385 . S
C585 H571 0.931 . S
C585 C584 1.385 . S
C585 C586 1.389 . S
C586 C585 1.389 . S
C586 C587 1.387 1_455 S
C587 H572 0.930 . S
C587 C582 1.390 . S
C587 C586 1.387 1_655 S
H588 C600 0.930 . S
H589 C602 0.930 . S
H590 C603 0.930 . S
H591 C607 0.959 . S
H592 C607 0.959 . S
H593 C607 0.961 1_554 S
H594 C608 0.960 . S
H595 C608 0.961 . S
H596 C608 0.959 . S
H597 C611 0.929 . S
H598 C612 0.931 . S
H599 C614 0.930 . S
C600 H588 0.930 . S
C600 C601 1.399 1_545 S
C600 C605 1.399 . S
C601 C600 1.399 1_565 S
C601 C602 1.376 . S
C602 H589 0.930 . S
C602 C601 1.376 . S
C602 C603 1.388 . S
C603 H590 0.930 . S
C603 C602 1.388 . S
C603 C604 1.390 . S
C604 C603 1.390 . S
C604 C605 1.394 1_565 S
C604 C610 1.465 1_554 S
C605 C600 1.399 . S
C605 C604 1.394 1_545 S
C605 C606 1.516 . S
C606 C605 1.516 . S
C606 C607 1.502 1_554 S
C606 C608 1.561 . S
C606 C609 1.526 1_554 S
C607 H591 0.959 . S
C607 H592 0.959 . S
C607 H593 0.961 1_556 S
C607 C606 1.502 1_556 S
C608 H594 0.960 . S
C608 H595 0.961 . S
C608 H596 0.959 . S
C608 C606 1.561 . S
C609 C606 1.526 1_556 S
C609 C610 1.396 1_545 S
C609 C614 1.390 . S
C610 C604 1.465 1_556 S
C610 C609 1.396 1_565 S
C610 C611 1.399 . S
C611 H597 0.929 . S
C611 C610 1.399 . S
C611 C612 1.385 . S
C612 H598 0.931 . S
C612 C611 1.385 . S
C612 C613 1.389 . S
C613 C612 1.389 . S
C613 C614 1.387 1_565 S
C614 H599 0.930 . S
C614 C609 1.390 . S
C614 C613 1.387 1_545 S
H615 C627 0.930 . S
H616 C629 0.930 . S
H617 C630 0.930 . S
H618 C634 0.959 . S
H619 C634 0.959 . S
H620 C634 0.961 1_554 S
H621 C635 0.960 . S
H622 C635 0.961 . S
H623 C635 0.959 . S
H624 C638 0.929 . S
H625 C639 0.931 . S
H626 C641 0.930 . S
C627 H615 0.930 . S
C627 C628 1.399 . S
C627 C632 1.399 . S
C628 C627 1.399 . S
C628 C629 1.376 . S
C629 H616 0.930 . S
C629 C628 1.376 . S
C629 C630 1.388 . S
C630 H617 0.930 . S
C630 C629 1.388 . S
C630 C631 1.390 . S
C631 C630 1.390 . S
C631 C632 1.394 . S
C631 C637 1.465 1_554 S
C632 C627 1.399 . S
C632 C631 1.394 . S
C632 C633 1.516 1_554 S
C633 C632 1.516 1_556 S
C633 C634 1.502 . S
C633 C635 1.561 . S
C633 C636 1.526 . S
C634 H618 0.959 . S
C634 H619 0.959 . S
C634 H620 0.961 1_556 S
C634 C633 1.502 . S
C635 H621 0.960 . S
C635 H622 0.961 . S
C635 H623 0.959 . S
C635 C633 1.561 . S
C636 C633 1.526 . S
C636 C637 1.396 . S
C636 C641 1.390 . S
C637 C631 1.465 1_556 S
C637 C636 1.396 . S
C637 C638 1.399 . S
C638 H624 0.929 . S
C638 C637 1.399 . S
C638 C639 1.385 . S
C639 H625 0.931 . S
C639 C638 1.385 . S
C639 C640 1.389 . S
C640 C639 1.389 . S
C640 C641 1.387 . S
C641 H626 0.930 . S
C641 C636 1.390 . S
C641 C640 1.387 . S
H642 C654 0.930 . S
H643 C656 0.930 . S
H644 C657 0.930 . S
H645 C661 0.959 . S
H646 C661 0.959 . S
H647 C661 0.961 1_554 S
H648 C662 0.960 . S
H649 C662 0.961 1_556 S
H650 C662 0.959 . S
H651 C665 0.929 . S
H652 C666 0.931 . S
H653 C668 0.930 . S
C654 H642 0.930 . S
C654 C655 1.399 . S
C654 C659 1.399 . S
C655 C654 1.399 . S
C655 C656 1.376 . S
C656 H643 0.930 . S
C656 C655 1.376 . S
C656 C657 1.388 . S
C657 H644 0.930 . S
C657 C656 1.388 . S
C657 C658 1.390 . S
C658 C657 1.390 . S
C658 C659 1.394 . S
C658 C664 1.465 1_554 S
C659 C654 1.399 . S
C659 C658 1.394 . S
C659 C660 1.516 . S
C660 C659 1.516 . S
C660 C661 1.502 1_554 S
C660 C662 1.561 . S
C660 C663 1.526 1_554 S
C661 H645 0.959 . S
C661 H646 0.959 . S
C661 H647 0.961 1_556 S
C661 C660 1.502 1_556 S
C662 H648 0.960 . S
C662 H649 0.961 1_554 S
C662 H650 0.959 . S
C662 C660 1.561 . S
C663 C660 1.526 1_556 S
C663 C664 1.396 . S
C663 C668 1.390 . S
C664 C658 1.465 1_556 S
C664 C663 1.396 . S
C664 C665 1.399 . S
C665 H651 0.929 . S
C665 C664 1.399 . S
C665 C666 1.385 . S
C666 H652 0.931 . S
C666 C665 1.385 . S
C666 C667 1.389 . S
C667 C666 1.389 . S
C667 C668 1.387 . S
C668 H653 0.930 . S
C668 C663 1.390 . S
C668 C667 1.387 . S
H669 C681 0.930 . S
H670 C683 0.930 . S
H671 C684 0.930 . S
H672 C688 0.959 . S
H673 C688 0.959 . S
H674 C688 0.961 . S
H675 C689 0.960 . S
H676 C689 0.961 . S
H677 C689 0.959 . S
H678 C692 0.929 . S
H679 C693 0.929 1_455 S
H680 C695 0.930 . S
C681 H669 0.930 . S
C681 C682 1.399 . S
C681 C686 1.399 . S
C682 C681 1.399 . S
C682 C683 1.376 . S
C683 H670 0.930 . S
C683 C682 1.376 . S
C683 C684 1.388 . S
C684 H671 0.930 . S
C684 C683 1.388 . S
C684 C685 1.390 . S
C685 C684 1.390 . S
C685 C686 1.394 . S
C685 C691 1.465 1_554 S
C686 C681 1.399 . S
C686 C685 1.394 . S
C686 C687 1.516 . S
C687 C686 1.516 . S
C687 C688 1.502 1_655 S
C687 C689 1.561 . S
C687 C690 1.526 1_554 S
C688 H672 0.959 . S
C688 H673 0.959 . S
C688 H674 0.961 . S
C688 C687 1.502 1_455 S
C689 H675 0.960 . S
C689 H676 0.961 . S
C689 H677 0.959 . S
C689 C687 1.561 . S
C690 C687 1.526 1_556 S
C690 C691 1.396 . S
C690 C695 1.390 . S
C691 C685 1.465 1_556 S
C691 C690 1.396 . S
C691 C692 1.399 . S
C692 H678 0.929 . S
C692 C691 1.399 . S
C692 C693 1.386 . S
C693 H679 0.929 1_655 S
C693 C692 1.386 . S
C693 C694 1.390 . S
C694 C693 1.390 . S
C694 C695 1.387 . S
C695 H680 0.930 . S
C695 C690 1.390 . S
C695 C694 1.387 . S
H696 C708 0.930 . S
H697 C710 0.930 . S
H698 C711 0.930 . S
H699 C715 0.959 1_455 S
H700 C715 0.959 . S
H701 C715 0.961 . S
H702 C716 0.960 . S
H703 C716 0.961 . S
H704 C716 0.959 . S
H705 C719 0.929 . S
H706 C720 0.931 . S
H707 C722 0.930 . S
C708 H696 0.930 . S
C708 C709 1.399 1_655 S
C708 C713 1.399 . S
C709 C708 1.399 1_455 S
C709 C710 1.376 . S
C710 H697 0.930 . S
C710 C709 1.376 . S
C710 C711 1.388 1_455 S
C711 H698 0.930 . S
C711 C710 1.388 1_655 S
C711 C712 1.390 . S
C712 C711 1.390 . S
C712 C713 1.394 . S
C712 C718 1.465 . S
C713 C708 1.399 . S
C713 C712 1.394 . S
C713 C714 1.516 . S
C714 C713 1.516 . S
C714 C715 1.502 . S
C714 C716 1.561 . S
C714 C717 1.526 . S
C715 H699 0.959 1_655 S
C715 H700 0.959 . S
C715 H701 0.961 . S
C715 C714 1.502 . S
C716 H702 0.960 . S
C716 H703 0.961 . S
C716 H704 0.959 . S
C716 C714 1.561 . S
C717 C714 1.526 . S
C717 C718 1.396 . S
C717 C722 1.390 . S
C718 C712 1.465 . S
C718 C717 1.396 . S
C718 C719 1.399 . S
C719 H705 0.929 . S
C719 C718 1.399 . S
C719 C720 1.385 . S
C720 H706 0.931 . S
C720 C719 1.385 . S
C720 C721 1.389 . S
C721 C720 1.389 . S
C721 C722 1.387 . S
C722 H707 0.930 . S
C722 C717 1.390 . S
C722 C721 1.387 . S
H723 C735 0.930 . S
H724 C737 0.930 . S
H725 C738 0.930 . S
H726 C742 0.959 . S
H727 C742 0.959 . S
H728 C742 0.961 . S
H729 C743 0.960 . S
H730 C743 0.961 . S
H731 C743 0.959 . S
H732 C746 0.929 . S
H733 C747 0.931 1_545 S
H734 C749 0.930 . S
C735 H723 0.930 . S
C735 C736 1.399 1_565 S
C735 C740 1.399 . S
C736 C735 1.399 1_545 S
C736 C737 1.376 . S
C737 H724 0.930 . S
C737 C736 1.376 . S
C737 C738 1.388 . S
C738 H725 0.930 . S
C738 C737 1.388 . S
C738 C739 1.390 1_545 S
C739 C738 1.390 1_565 S
C739 C740 1.393 . S
C739 C745 1.465 . S
C740 C735 1.399 . S
C740 C739 1.393 . S
C740 C741 1.516 . S
C741 C740 1.516 . S
C741 C742 1.502 . S
C741 C743 1.561 . S
C741 C744 1.526 . S
C742 H726 0.959 . S
C742 H727 0.959 . S
C742 H728 0.961 . S
C742 C741 1.502 . S
C743 H729 0.960 . S
C743 H730 0.961 . S
C743 H731 0.959 . S
C743 C741 1.561 . S
C744 C741 1.526 . S
C744 C745 1.396 . S
C744 C749 1.390 . S
C745 C739 1.465 . S
C745 C744 1.396 . S
C745 C746 1.399 1_565 S
C746 H732 0.929 . S
C746 C745 1.399 1_545 S
C746 C747 1.385 1_545 S
C747 H733 0.931 1_565 S
C747 C746 1.385 1_565 S
C747 C748 1.389 . S
C748 C747 1.389 . S
C748 C749 1.387 . S
C749 H734 0.930 . S
C749 C744 1.390 . S
C749 C748 1.387 . S
H750 C762 0.930 . S
H751 C764 0.930 . S
H752 C765 0.930 . S
H753 C769 0.959 . S
H754 C769 0.959 . S
H755 C769 0.961 . S
H756 C770 0.960 . S
H757 C770 0.961 . S
H758 C770 0.959 . S
H759 C773 0.929 . S
H760 C774 0.931 . S
H761 C776 0.930 . S
C762 H750 0.930 . S
C762 C763 1.399 . S
C762 C767 1.399 . S
C763 C762 1.399 . S
C763 C764 1.376 . S
C764 H751 0.930 . S
C764 C763 1.376 . S
C764 C765 1.388 . S
C765 H752 0.930 . S
C765 C764 1.388 . S
C765 C766 1.390 . S
C766 C765 1.390 . S
C766 C767 1.394 . S
C766 C772 1.465 . S
C767 C762 1.399 . S
C767 C766 1.394 . S
C767 C768 1.516 . S
C768 C767 1.516 . S
C768 C769 1.502 . S
C768 C770 1.561 . S
C768 C771 1.526 . S
C769 H753 0.959 . S
C769 H754 0.959 . S
C769 H755 0.961 . S
C769 C768 1.502 . S
C770 H756 0.960 . S
C770 H757 0.961 . S
C770 H758 0.959 . S
C770 C768 1.561 . S
C771 C768 1.526 . S
C771 C772 1.396 . S
C771 C776 1.390 . S
C772 C766 1.465 . S
C772 C771 1.396 . S
C772 C773 1.399 . S
C773 H759 0.929 . S
C773 C772 1.399 . S
C773 C774 1.385 . S
C774 H760 0.931 . S
C774 C773 1.385 . S
C774 C775 1.389 . S
C775 C774 1.389 . S
C775 C776 1.387 . S
C776 H761 0.930 . S
C776 C771 1.390 . S
C776 C775 1.387 . S
H777 C789 0.930 . S
H778 C791 0.930 . S
H779 C792 0.930 . S
H780 C796 0.959 . S
H781 C796 0.959 . S
H782 C796 0.961 . S
H783 C797 0.960 . S
H784 C797 0.961 . S
H785 C797 0.959 . S
H786 C800 0.929 . S
H787 C801 0.931 . S
H788 C803 0.930 . S
C789 H777 0.930 . S
C789 C790 1.399 . S
C789 C794 1.399 . S
C790 C789 1.399 . S
C790 C791 1.376 . S
C791 H778 0.930 . S
C791 C790 1.376 . S
C791 C792 1.388 . S
C792 H779 0.930 . S
C792 C791 1.388 . S
C792 C793 1.390 . S
C793 C792 1.390 . S
C793 C794 1.394 . S
C793 C799 1.465 . S
C794 C789 1.399 . S
C794 C793 1.394 . S
C794 C795 1.516 . S
C795 C794 1.516 . S
C795 C796 1.502 . S
C795 C797 1.561 . S
C795 C798 1.526 . S
C796 H780 0.959 . S
C796 H781 0.959 . S
C796 H782 0.961 . S
C796 C795 1.502 . S
C797 H783 0.960 . S
C797 H784 0.961 . S
C797 H785 0.959 . S
C797 C795 1.561 . S
C798 C795 1.526 . S
C798 C799 1.396 . S
C798 C803 1.390 . S
C799 C793 1.465 . S
C799 C798 1.396 . S
C799 C800 1.399 . S
C800 H786 0.929 . S
C800 C799 1.399 . S
C800 C801 1.385 . S
C801 H787 0.931 . S
C801 C800 1.385 . S
C801 C802 1.389 . S
C802 C801 1.389 . S
C802 C803 1.387 . S
C803 H788 0.930 . S
C803 C798 1.390 . S
C803 C802 1.387 . S
H804 C816 0.930 1_556 S
H805 C818 0.930 . S
H806 C819 0.928 1_655 S
H807 C823 0.959 . S
H808 C823 0.959 . S
H809 C823 0.961 . S
H810 C824 0.960 . S
H811 C824 0.959 1_455 S
H812 C824 0.959 . S
H813 C827 0.929 . S
H814 C828 0.931 1_554 S
H815 C830 0.930 . S
C816 H804 0.930 1_554 S
C816 C817 1.399 1_455 S
C816 C821 1.399 1_554 S
C817 C816 1.399 1_655 S
C817 C818 1.376 . S
C818 H805 0.930 . S
C818 C817 1.376 . S
C818 C819 1.389 1_655 S
C819 H806 0.928 1_455 S
C819 C818 1.389 1_455 S
C819 C820 1.389 . S
C820 C819 1.389 . S
C820 C821 1.394 1_554 S
C820 C826 1.465 . S
C821 C816 1.399 1_556 S
C821 C820 1.394 1_556 S
C821 C822 1.516 . S
C822 C821 1.516 . S
C822 C823 1.502 . S
C822 C824 1.561 1_455 S
C822 C825 1.526 . S
C823 H807 0.959 . S
C823 H808 0.959 . S
C823 H809 0.961 . S
C823 C822 1.502 . S
C824 H810 0.960 . S
C824 H811 0.959 1_655 S
C824 H812 0.959 . S
C824 C822 1.561 1_655 S
C825 C822 1.526 . S
C825 C826 1.396 1_556 S
C825 C830 1.390 . S
C826 C820 1.465 . S
C826 C825 1.396 1_554 S
C826 C827 1.399 . S
C827 H813 0.929 . S
C827 C826 1.399 . S
C827 C828 1.385 1_554 S
C828 H814 0.931 1_556 S
C828 C827 1.385 1_556 S
C828 C829 1.389 . S
C829 C828 1.389 . S
C829 C830 1.387 . S
C830 H815 0.930 . S
C830 C825 1.390 . S
C830 C829 1.387 . S
H831 C843 0.930 . S
H832 C845 0.930 . S
H833 C846 0.930 . S
H834 C850 0.959 . S
H835 C850 0.959 . S
H836 C850 0.961 . S
H837 C851 0.960 1_554 S
H838 C851 0.961 . S
H839 C851 0.959 . S
H840 C854 0.929 . S
H841 C855 0.928 1_565 S
H842 C857 0.930 . S
C843 H831 0.930 . S
C843 C844 1.399 1_545 S
C843 C848 1.399 . S
C844 C843 1.399 1_565 S
C844 C845 1.376 . S
C845 H832 0.930 . S
C845 C844 1.376 . S
C845 C846 1.388 1_554 S
C846 H833 0.930 . S
C846 C845 1.388 1_556 S
C846 C847 1.390 1_565 S
C847 C846 1.390 1_545 S
C847 C848 1.394 1_556 S
C847 C853 1.465 . S
C848 C843 1.399 . S
C848 C847 1.394 1_554 S
C848 C849 1.516 . S
C849 C848 1.516 . S
C849 C850 1.502 . S
C849 C851 1.561 1_554 S
C849 C852 1.526 1_554 S
C850 H834 0.959 . S
C850 H835 0.959 . S
C850 H836 0.961 . S
C850 C849 1.502 . S
C851 H837 0.960 1_556 S
C851 H838 0.961 . S
C851 H839 0.959 . S
C851 C849 1.561 1_556 S
C852 C849 1.526 1_556 S
C852 C853 1.396 . S
C852 C857 1.390 . S
C853 C847 1.465 . S
C853 C852 1.396 . S
C853 C854 1.399 1_545 S
C854 H840 0.929 . S
C854 C853 1.399 1_565 S
C854 C855 1.385 1_565 S
C855 H841 0.928 1_545 S
C855 C854 1.385 1_545 S
C855 C856 1.389 . S
C856 C855 1.389 . S
C856 C857 1.387 . S
C857 H842 0.930 . S
C857 C852 1.390 . S
C857 C856 1.387 . S
H858 C870 0.930 1_556 S
H859 C872 0.930 . S
H860 C873 0.930 . S
H861 C877 0.959 . S
H862 C877 0.959 . S
H863 C877 0.961 . S
H864 C878 0.960 . S
H865 C878 0.961 . S
H866 C878 0.959 . S
H867 C881 0.929 . S
H868 C882 0.931 1_554 S
H869 C884 0.930 . S
C870 H858 0.930 1_554 S
C870 C871 1.399 . S
C870 C875 1.399 . S
C871 C870 1.399 . S
C871 C872 1.376 . S
C872 H859 0.930 . S
C872 C871 1.376 . S
C872 C873 1.388 . S
C873 H860 0.930 . S
C873 C872 1.388 . S
C873 C874 1.390 . S
C874 C873 1.390 . S
C874 C875 1.395 . S
C874 C880 1.465 . S
C875 C870 1.399 . S
C875 C874 1.395 . S
C875 C876 1.515 1_554 S
C876 C875 1.515 1_556 S
C876 C877 1.502 . S
C876 C878 1.561 . S
C876 C879 1.526 . S
C877 H861 0.959 . S
C877 H862 0.959 . S
C877 H863 0.961 . S
C877 C876 1.502 . S
C878 H864 0.960 . S
C878 H865 0.961 . S
C878 H866 0.959 . S
C878 C876 1.561 . S
C879 C876 1.526 . S
C879 C880 1.396 1_556 S
C879 C884 1.390 . S
C880 C874 1.465 . S
C880 C879 1.396 1_554 S
C880 C881 1.399 . S
C881 H867 0.929 . S
C881 C880 1.399 . S
C881 C882 1.385 1_554 S
C882 H868 0.931 1_556 S
C882 C881 1.385 1_556 S
C882 C883 1.389 . S
C883 C882 1.389 . S
C883 C884 1.387 . S
C884 H869 0.930 . S
C884 C879 1.390 . S
C884 C883 1.387 . S
H885 C897 0.930 1_556 S
H886 C899 0.930 . S
H887 C900 0.930 . S
H888 C904 0.959 . S
H889 C904 0.959 . S
H890 C904 0.961 . S
H891 C905 0.960 . S
H892 C905 0.961 . S
H893 C905 0.959 . S
H894 C908 0.929 . S
H895 C909 0.924 1_554 S
H896 C911 0.930 . S
C897 H885 0.930 1_554 S
C897 C898 1.399 . S
C897 C902 1.399 1_554 S
C898 C897 1.399 . S
C898 C899 1.376 . S
C899 H886 0.930 . S
C899 C898 1.376 . S
C899 C900 1.388 . S
C900 H887 0.930 . S
C900 C899 1.388 . S
C900 C901 1.390 . S
C901 C900 1.390 . S
C901 C902 1.394 1_554 S
C901 C907 1.465 . S
C902 C897 1.399 1_556 S
C902 C901 1.394 1_556 S
C902 C903 1.516 . S
C903 C902 1.516 . S
C903 C904 1.502 . S
C903 C905 1.561 . S
C903 C906 1.526 . S
C904 H888 0.959 . S
C904 H889 0.959 . S
C904 H890 0.961 . S
C904 C903 1.502 . S
C905 H891 0.960 . S
C905 H892 0.961 . S
C905 H893 0.959 . S
C905 C903 1.561 . S
C906 C903 1.526 . S
C906 C907 1.396 1_556 S
C906 C911 1.390 . S
C907 C901 1.465 . S
C907 C906 1.396 1_554 S
C907 C908 1.399 . S
C908 H894 0.929 . S
C908 C907 1.399 . S
C908 C909 1.375 1_554 S
C909 H895 0.924 1_556 S
C909 C908 1.375 1_556 S
C909 C910 1.406 . S
C910 C909 1.406 . S
C910 C911 1.387 . S
C911 H896 0.930 . S
C911 C906 1.390 . S
C911 C910 1.387 . S
H912 C924 0.930 1_655 S
H913 C926 0.930 . S
H914 C927 0.930 . S
H915 C931 0.959 . S
H916 C931 0.959 . S
H917 C931 0.961 . S
H918 C932 0.960 . S
H919 C932 0.961 . S
H920 C932 0.959 . S
H921 C935 0.929 . S
H922 C936 0.931 . S
H923 C938 0.930 . S
C924 H912 0.930 1_455 S
C924 C925 1.399 . S
C924 C929 1.399 . S
C925 C924 1.399 . S
C925 C926 1.376 . S
C926 H913 0.930 . S
C926 C925 1.376 . S
C926 C927 1.388 . S
C927 H914 0.930 . S
C927 C926 1.388 . S
C927 C928 1.390 . S
C928 C927 1.390 . S
C928 C929 1.394 . S
C928 C934 1.465 . S
C929 C924 1.399 . S
C929 C928 1.394 . S
C929 C930 1.516 . S
C930 C929 1.516 . S
C930 C931 1.502 1_455 S
C930 C932 1.561 . S
C930 C933 1.526 . S
C931 H915 0.959 . S
C931 H916 0.959 . S
C931 H917 0.961 . S
C931 C930 1.502 1_655 S
C932 H918 0.960 . S
C932 H919 0.961 . S
C932 H920 0.959 . S
C932 C930 1.561 . S
C933 C930 1.526 . S
C933 C934 1.396 . S
C933 C938 1.390 . S
C934 C928 1.465 . S
C934 C933 1.396 . S
C934 C935 1.399 . S
C935 H921 0.929 . S
C935 C934 1.399 . S
C935 C936 1.385 . S
C936 H922 0.931 . S
C936 C935 1.385 . S
C936 C937 1.389 . S
C937 C936 1.389 . S
C937 C938 1.387 . S
C938 H923 0.930 . S
C938 C933 1.390 . S
C938 C937 1.387 . S
H939 C951 0.930 . S
H940 C953 0.930 . S
H941 C954 0.930 . S
H942 C958 0.959 . S
H943 C958 0.959 . S
H944 C958 0.961 . S
H945 C959 0.960 . S
H946 C959 0.961 . S
H947 C959 0.959 . S
H948 C962 0.929 . S
H949 C963 0.931 . S
H950 C965 0.930 . S
C951 H939 0.930 . S
C951 C952 1.399 1_565 S
C951 C956 1.399 . S
C952 C951 1.399 1_545 S
C952 C953 1.376 . S
C953 H940 0.930 . S
C953 C952 1.376 . S
C953 C954 1.388 . S
C954 H941 0.930 . S
C954 C953 1.388 . S
C954 C955 1.390 . S
C955 C954 1.390 . S
C955 C956 1.394 1_545 S
C955 C961 1.465 . S
C956 C951 1.399 . S
C956 C955 1.394 1_565 S
C956 C957 1.516 . S
C957 C956 1.516 . S
C957 C958 1.502 . S
C957 C959 1.561 . S
C957 C960 1.526 . S
C958 H942 0.959 . S
C958 H943 0.959 . S
C958 H944 0.961 . S
C958 C957 1.502 . S
C959 H945 0.960 . S
C959 H946 0.961 . S
C959 H947 0.959 . S
C959 C957 1.561 . S
C960 C957 1.526 . S
C960 C961 1.396 1_565 S
C960 C965 1.390 . S
C961 C955 1.465 . S
C961 C960 1.396 1_545 S
C961 C962 1.399 . S
C962 H948 0.929 . S
C962 C961 1.399 . S
C962 C963 1.385 . S
C963 H949 0.931 . S
C963 C962 1.385 . S
C963 C964 1.389 . S
C964 C963 1.389 . S
C964 C965 1.387 1_545 S
C965 H950 0.930 . S
C965 C960 1.390 . S
C965 C964 1.387 1_565 S
H966 C978 0.930 . S
H967 C980 0.930 . S
H968 C981 0.930 . S
H969 C985 0.959 . S
H970 C985 0.959 . S
H971 C985 0.961 . S
H972 C986 0.960 . S
H973 C986 0.961 . S
H974 C986 0.959 . S
H975 C989 0.929 . S
H976 C990 0.931 . S
H977 C992 0.930 . S
C978 H966 0.930 . S
C978 C979 1.399 . S
C978 C983 1.399 . S
C979 C978 1.399 . S
C979 C980 1.376 . S
C980 H967 0.930 . S
C980 C979 1.376 . S
C980 C981 1.388 . S
C981 H968 0.930 . S
C981 C980 1.388 . S
C981 C982 1.390 . S
C982 C981 1.390 . S
C982 C983 1.394 . S
C982 C988 1.465 . S
C983 C978 1.399 . S
C983 C982 1.394 . S
C983 C984 1.516 . S
C984 C983 1.516 . S
C984 C985 1.502 . S
C984 C986 1.561 . S
C984 C987 1.526 . S
C985 H969 0.959 . S
C985 H970 0.959 . S
C985 H971 0.961 . S
C985 C984 1.502 . S
C986 H972 0.960 . S
C986 H973 0.961 . S
C986 H974 0.959 . S
C986 C984 1.561 . S
C987 C984 1.526 . S
C987 C988 1.396 . S
C987 C992 1.390 . S
C988 C982 1.465 . S
C988 C987 1.396 . S
C988 C989 1.399 . S
C989 H975 0.929 . S
C989 C988 1.399 . S
C989 C990 1.385 . S
C990 H976 0.931 . S
C990 C989 1.385 . S
C990 C991 1.389 . S
C991 C990 1.389 . S
C991 C992 1.387 . S
C992 H977 0.930 . S
C992 C987 1.390 . S
C992 C991 1.387 . S
H993 C1005 0.930 . S
H994 C1007 0.930 . S
H995 C1008 0.930 . S
H996 C1012 0.959 . S
H997 C1012 0.959 . S
H998 C1012 0.961 . S
H999 C1013 0.960 . S
H1000 C1013 0.961 . S
H1001 C1013 0.959 . S
H1002 C1016 0.929 . S
H1003 C1017 0.931 . S
H1004 C1019 0.930 . S
C1005 H993 0.930 . S
C1005 C1006 1.399 . S
C1005 C1010 1.399 . S
C1006 C1005 1.399 . S
C1006 C1007 1.376 . S
C1007 H994 0.930 . S
C1007 C1006 1.376 . S
C1007 C1008 1.388 . S
C1008 H995 0.930 . S
C1008 C1007 1.388 . S
C1008 C1009 1.390 . S
C1009 C1008 1.390 . S
C1009 C1010 1.394 . S
C1009 C1015 1.465 . S
C1010 C1005 1.399 . S
C1010 C1009 1.394 . S
C1010 C1011 1.516 . S
C1011 C1010 1.516 . S
C1011 C1012 1.502 . S
C1011 C1013 1.561 . S
C1011 C1014 1.526 . S
C1012 H996 0.959 . S
C1012 H997 0.959 . S
C1012 H998 0.961 . S
C1012 C1011 1.502 . S
C1013 H999 0.960 . S
C1013 H1000 0.961 . S
C1013 H1001 0.959 . S
C1013 C1011 1.561 . S
C1014 C1011 1.526 . S
C1014 C1015 1.396 . S
C1014 C1019 1.390 . S
C1015 C1009 1.465 . S
C1015 C1014 1.396 . S
C1015 C1016 1.399 . S
C1016 H1002 0.929 . S
C1016 C1015 1.399 . S
C1016 C1017 1.385 . S
C1017 H1003 0.931 . S
C1017 C1016 1.385 . S
C1017 C1018 1.389 . S
C1018 C1017 1.389 . S
C1018 C1019 1.387 . S
C1019 H1004 0.930 . S
C1019 C1014 1.390 . S
C1019 C1018 1.387 . S
H1020 C1032 0.930 . S
H1021 C1034 0.930 . S
H1022 C1035 0.930 . S
H1023 C1039 0.959 . S
H1024 C1039 0.959 . S
H1025 C1039 0.961 . S
H1026 C1040 0.960 . S
H1027 C1040 0.961 . S
H1028 C1040 0.959 . S
H1029 C1043 0.929 . S
H1030 C1044 0.931 . S
H1031 C1046 0.930 1_455 S
C1032 H1020 0.930 . S
C1032 C1033 1.399 1_455 S
C1032 C1037 1.399 1_455 S
C1033 C1032 1.399 1_655 S
C1033 C1034 1.376 . S
C1034 H1021 0.930 . S
C1034 C1033 1.376 . S
C1034 C1035 1.388 . S
C1035 H1022 0.930 . S
C1035 C1034 1.388 . S
C1035 C1036 1.390 . S
C1036 C1035 1.390 . S
C1036 C1037 1.394 . S
C1036 C1042 1.465 . S
C1037 C1032 1.399 1_655 S
C1037 C1036 1.394 . S
C1037 C1038 1.516 1_655 S
C1038 C1037 1.516 1_455 S
C1038 C1039 1.502 . S
C1038 C1040 1.561 1_455 S
C1038 C1041 1.526 1_455 S
C1039 H1023 0.959 . S
C1039 H1024 0.959 . S
C1039 H1025 0.961 . S
C1039 C1038 1.502 . S
C1040 H1026 0.960 . S
C1040 H1027 0.961 . S
C1040 H1028 0.959 . S
C1040 C1038 1.561 1_655 S
C1041 C1038 1.526 1_655 S
C1041 C1042 1.396 . S
C1041 C1046 1.390 . S
C1042 C1036 1.465 . S
C1042 C1041 1.396 . S
C1042 C1043 1.399 . S
C1043 H1029 0.929 . S
C1043 C1042 1.399 . S
C1043 C1044 1.385 . S
C1044 H1030 0.931 . S
C1044 C1043 1.385 . S
C1044 C1045 1.389 . S
C1045 C1044 1.389 . S
C1045 C1046 1.387 . S
C1046 H1031 0.930 1_655 S
C1046 C1041 1.390 . S
C1046 C1045 1.387 . S
H1047 C1059 0.930 . S
H1048 C1061 0.930 . S
H1049 C1062 0.930 . S
H1050 C1066 0.959 . S
H1051 C1066 0.959 . S
H1052 C1066 0.961 . S
H1053 C1067 0.960 . S
H1054 C1067 0.961 . S
H1055 C1067 0.959 1_565 S
H1056 C1070 0.929 . S
H1057 C1071 0.931 . S
H1058 C1073 0.930 . S
C1059 H1047 0.930 . S
C1059 C1060 1.399 1_545 S
C1059 C1064 1.399 . S
C1060 C1059 1.399 1_565 S
C1060 C1061 1.376 . S
C1061 H1048 0.930 . S
C1061 C1060 1.376 . S
C1061 C1062 1.388 . S
C1062 H1049 0.930 . S
C1062 C1061 1.388 . S
C1062 C1063 1.390 . S
C1063 C1062 1.390 . S
C1063 C1064 1.394 1_565 S
C1063 C1069 1.465 . S
C1064 C1059 1.399 . S
C1064 C1063 1.394 1_545 S
C1064 C1065 1.516 . S
C1065 C1064 1.516 . S
C1065 C1066 1.502 . S
C1065 C1067 1.561 . S
C1065 C1068 1.524 1_545 S
C1066 H1050 0.959 . S
C1066 H1051 0.959 . S
C1066 H1052 0.961 . S
C1066 C1065 1.502 . S
C1067 H1053 0.960 . S
C1067 H1054 0.961 . S
C1067 H1055 0.959 1_545 S
C1067 C1065 1.561 . S
C1068 C1065 1.524 1_565 S
C1068 C1069 1.398 . S
C1068 C1073 1.389 1_565 S
C1069 C1063 1.465 . S
C1069 C1068 1.398 . S
C1069 C1070 1.399 . S
C1070 H1056 0.929 . S
C1070 C1069 1.399 . S
C1070 C1071 1.385 . S
C1071 H1057 0.931 . S
C1071 C1070 1.385 . S
C1071 C1072 1.389 . S
C1072 C1071 1.389 . S
C1072 C1073 1.387 1_565 S
C1073 H1058 0.930 . S
C1073 C1068 1.389 1_545 S
C1073 C1072 1.387 1_545 S
H1074 C1086 0.930 . S
H1075 C1088 0.930 . S
H1076 C1089 0.930 . S
H1077 C1093 0.959 . S
H1078 C1093 0.959 . S
H1079 C1093 0.961 . S
H1080 C1094 0.960 . S
H1081 C1094 0.961 . S
H1082 C1094 0.959 . S
H1083 C1097 0.929 . S
H1084 C1098 0.931 . S
H1085 C1100 0.930 . S
C1086 H1074 0.930 . S
C1086 C1087 1.399 . S
C1086 C1091 1.399 . S
C1087 C1086 1.399 . S
C1087 C1088 1.376 . S
C1088 H1075 0.930 . S
C1088 C1087 1.376 . S
C1088 C1089 1.388 . S
C1089 H1076 0.930 . S
C1089 C1088 1.388 . S
C1089 C1090 1.390 . S
C1090 C1089 1.390 . S
C1090 C1091 1.394 . S
C1090 C1096 1.465 . S
C1091 C1086 1.399 . S
C1091 C1090 1.394 . S
C1091 C1092 1.516 . S
C1092 C1091 1.516 . S
C1092 C1093 1.502 . S
C1092 C1094 1.561 . S
C1092 C1095 1.526 . S
C1093 H1077 0.959 . S
C1093 H1078 0.959 . S
C1093 H1079 0.961 . S
C1093 C1092 1.502 . S
C1094 H1080 0.960 . S
C1094 H1081 0.961 . S
C1094 H1082 0.959 . S
C1094 C1092 1.561 . S
C1095 C1092 1.526 . S
C1095 C1096 1.396 . S
C1095 C1100 1.390 . S
C1096 C1090 1.465 . S
C1096 C1095 1.396 . S
C1096 C1097 1.399 . S
C1097 H1083 0.929 . S
C1097 C1096 1.399 . S
C1097 C1098 1.385 . S
C1098 H1084 0.931 . S
C1098 C1097 1.385 . S
C1098 C1099 1.389 . S
C1099 C1098 1.389 . S
C1099 C1100 1.387 . S
C1100 H1085 0.930 . S
C1100 C1095 1.390 . S
C1100 C1099 1.387 . S
H1101 C1113 0.930 . S
H1102 C1115 0.930 . S
H1103 C1116 0.930 . S
H1104 C1120 0.959 . S
H1105 C1120 0.959 . S
H1106 C1120 0.961 . S
H1107 C1121 0.960 . S
H1108 C1121 0.961 . S
H1109 C1121 0.959 . S
H1110 C1124 0.929 . S
H1111 C1125 0.931 . S
H1112 C1127 0.930 . S
C1113 H1101 0.930 . S
C1113 C1114 1.399 . S
C1113 C1118 1.399 . S
C1114 C1113 1.399 . S
C1114 C1115 1.376 . S
C1115 H1102 0.930 . S
C1115 C1114 1.376 . S
C1115 C1116 1.388 . S
C1116 H1103 0.930 . S
C1116 C1115 1.388 . S
C1116 C1117 1.390 . S
C1117 C1116 1.390 . S
C1117 C1118 1.394 . S
C1117 C1123 1.465 . S
C1118 C1113 1.399 . S
C1118 C1117 1.394 . S
C1118 C1119 1.516 . S
C1119 C1118 1.516 . S
C1119 C1120 1.502 . S
C1119 C1121 1.561 . S
C1119 C1122 1.526 . S
C1120 H1104 0.959 . S
C1120 H1105 0.959 . S
C1120 H1106 0.961 . S
C1120 C1119 1.502 . S
C1121 H1107 0.960 . S
C1121 H1108 0.961 . S
C1121 H1109 0.959 . S
C1121 C1119 1.561 . S
C1122 C1119 1.526 . S
C1122 C1123 1.396 . S
C1122 C1127 1.390 . S
C1123 C1117 1.465 . S
C1123 C1122 1.396 . S
C1123 C1124 1.399 . S
C1124 H1110 0.929 . S
C1124 C1123 1.399 . S
C1124 C1125 1.385 . S
C1125 H1111 0.931 . S
C1125 C1124 1.385 . S
C1125 C1126 1.389 . S
C1126 C1125 1.389 . S
C1126 C1127 1.387 . S
C1127 H1112 0.930 . S
C1127 C1122 1.390 . S
C1127 C1126 1.387 . S
C493 C255 2.265 1_565 S
C505 C329 2.439 . S
C532 C369 2.460 . S
C520 C295 2.283 . S
C559 C409 2.476 . S
C547 C175 2.228 . S
C586 C449 2.449 1_455 S
C574 C215 2.267 . S
C613 C338 2.455 1_565 S
C601 C95 2.258 1_565 S
C628 C135 2.275 . S
C640 C378 2.459 . S
C655 C15 2.278 . S
C667 C418 2.473 . S
C682 C55 2.203 1_655 S
C694 C458 2.457 1_655 S
C721 C335 0.444 . S
C709 C221 0.295 . S
C748 C375 0.321 . S
C736 C261 0.384 . S
C775 C415 0.480 . S
C763 C301 0.346 . S
C790 C181 0.504 . S
C802 C455 0.409 . S
C817 C61 0.506 1_655 S
C829 C326 0.414 . S
C856 C366 0.324 . S
C844 C101 0.628 1_565 S
C883 C406 0.492 . S
C871 C141 0.379 . S
C898 C21 0.446 . S
C910 C446 0.442 . S
C925 C202 3.129 . S
C937 C339 3.513 . S
C952 C242 3.137 . S
C964 C379 3.494 . S
C991 C419 3.458 . S
C979 C282 3.122 . S
C1018 C459 3.495 . S
C1006 C162 3.113 . S
C1033 C42 3.201 1_655 S
C1045 C330 3.517 . S
C1072 C370 3.488 . S
C1060 C82 3.164 1_565 S
C1099 C410 3.471 . S
C1087 C122 3.114 . S
C1114 C2 3.200 . S
C1126 C450 3.495 . S
