# Generated by pormake.
# Topology gar, (4,6)-cn, num edge types: 1
# Building blocks:
#     Node 0, Type 0, BuildingBlock: TATPOV_clean_sbu_0, # of connection points: 4
#     Node 1, Type 0, BuildingBlock: TATPOV_clean_sbu_0, # of connection points: 4
#     Node 2, Type 0, BuildingBlock: TATPOV_clean_sbu_0, # of connection points: 4
#     Node 3, Type 0, BuildingBlock: TATPOV_clean_sbu_0, # of connection points: 4
#     Node 4, Type 0, BuildingBlock: TATPOV_clean_sbu_0, # of connection points: 4
#     Node 5, Type 0, BuildingBlock: TATPOV_clean_sbu_0, # of connection points: 4
#     Node 6, Type 0, BuildingBlock: TATPOV_clean_sbu_0, # of connection points: 4
#     Node 7, Type 0, BuildingBlock: TATPOV_clean_sbu_0, # of connection points: 4
#     Node 8, Type 0, BuildingBlock: TATPOV_clean_sbu_0, # of connection points: 4
#     Node 9, Type 0, BuildingBlock: TATPOV_clean_sbu_0, # of connection points: 4
#     Node 10, Type 0, BuildingBlock: TATPOV_clean_sbu_0, # of connection points: 4
#     Node 11, Type 0, BuildingBlock: TATPOV_clean_sbu_0, # of connection points: 4
#     Node 12, Type 0, BuildingBlock: TATPOV_clean_sbu_0, # of connection points: 4
#     Node 13, Type 0, BuildingBlock: TATPOV_clean_sbu_0, # of connection points: 4
#     Node 14, Type 0, BuildingBlock: TATPOV_clean_sbu_0, # of connection points: 4
#     Node 15, Type 0, BuildingBlock: TATPOV_clean_sbu_0, # of connection points: 4
#     Node 16, Type 0, BuildingBlock: TATPOV_clean_sbu_0, # of connection points: 4
#     Node 17, Type 0, BuildingBlock: TATPOV_clean_sbu_0, # of connection points: 4
#     Node 18, Type 0, BuildingBlock: TATPOV_clean_sbu_0, # of connection points: 4
#     Node 19, Type 0, BuildingBlock: TATPOV_clean_sbu_0, # of connection points: 4
#     Node 20, Type 0, BuildingBlock: TATPOV_clean_sbu_0, # of connection points: 4
#     Node 21, Type 0, BuildingBlock: TATPOV_clean_sbu_0, # of connection points: 4
#     Node 22, Type 0, BuildingBlock: TATPOV_clean_sbu_0, # of connection points: 4
#     Node 23, Type 0, BuildingBlock: TATPOV_clean_sbu_0, # of connection points: 4
#     Node 24, Type 1, BuildingBlock: KUMJIN_clean_sbu_1, # of connection points: 6
#     Node 25, Type 1, BuildingBlock: KUMJIN_clean_sbu_1, # of connection points: 6
#     Node 26, Type 1, BuildingBlock: KUMJIN_clean_sbu_1, # of connection points: 6
#     Node 27, Type 1, BuildingBlock: KUMJIN_clean_sbu_1, # of connection points: 6
#     Node 28, Type 1, BuildingBlock: KUMJIN_clean_sbu_1, # of connection points: 6
#     Node 29, Type 1, BuildingBlock: KUMJIN_clean_sbu_1, # of connection points: 6
#     Node 30, Type 1, BuildingBlock: KUMJIN_clean_sbu_1, # of connection points: 6
#     Node 31, Type 1, BuildingBlock: KUMJIN_clean_sbu_1, # of connection points: 6
#     Node 32, Type 1, BuildingBlock: KUMJIN_clean_sbu_1, # of connection points: 6
#     Node 33, Type 1, BuildingBlock: KUMJIN_clean_sbu_1, # of connection points: 6
#     Node 34, Type 1, BuildingBlock: KUMJIN_clean_sbu_1, # of connection points: 6
#     Node 35, Type 1, BuildingBlock: KUMJIN_clean_sbu_1, # of connection points: 6
#     Node 36, Type 1, BuildingBlock: KUMJIN_clean_sbu_1, # of connection points: 6
#     Node 37, Type 1, BuildingBlock: KUMJIN_clean_sbu_1, # of connection points: 6
#     Node 38, Type 1, BuildingBlock: KUMJIN_clean_sbu_1, # of connection points: 6
#     Node 39, Type 1, BuildingBlock: KUMJIN_clean_sbu_1, # of connection points: 6
#     Edge 40, Type (0, 1), BuildingBlock: OJICUG_clean_linker_0, # of connection points: 2
#     Edge 41, Type (0, 1), BuildingBlock: OJICUG_clean_linker_0, # of connection points: 2
#     Edge 42, Type (0, 1), BuildingBlock: OJICUG_clean_linker_0, # of connection points: 2
#     Edge 43, Type (0, 1), BuildingBlock: OJICUG_clean_linker_0, # of connection points: 2
#     Edge 44, Type (0, 1), BuildingBlock: OJICUG_clean_linker_0, # of connection points: 2
#     Edge 45, Type (0, 1), BuildingBlock: OJICUG_clean_linker_0, # of connection points: 2
#     Edge 46, Type (0, 1), BuildingBlock: OJICUG_clean_linker_0, # of connection points: 2
#     Edge 47, Type (0, 1), BuildingBlock: OJICUG_clean_linker_0, # of connection points: 2
#     Edge 48, Type (0, 1), BuildingBlock: OJICUG_clean_linker_0, # of connection points: 2
#     Edge 49, Type (0, 1), BuildingBlock: OJICUG_clean_linker_0, # of connection points: 2
#     Edge 50, Type (0, 1), BuildingBlock: OJICUG_clean_linker_0, # of connection points: 2
#     Edge 51, Type (0, 1), BuildingBlock: OJICUG_clean_linker_0, # of connection points: 2
#     Edge 52, Type (0, 1), BuildingBlock: OJICUG_clean_linker_0, # of connection points: 2
#     Edge 53, Type (0, 1), BuildingBlock: OJICUG_clean_linker_0, # of connection points: 2
#     Edge 54, Type (0, 1), BuildingBlock: OJICUG_clean_linker_0, # of connection points: 2
#     Edge 55, Type (0, 1), BuildingBlock: OJICUG_clean_linker_0, # of connection points: 2
#     Edge 56, Type (0, 1), BuildingBlock: OJICUG_clean_linker_0, # of connection points: 2
#     Edge 57, Type (0, 1), BuildingBlock: OJICUG_clean_linker_0, # of connection points: 2
#     Edge 58, Type (0, 1), BuildingBlock: OJICUG_clean_linker_0, # of connection points: 2
#     Edge 59, Type (0, 1), BuildingBlock: OJICUG_clean_linker_0, # of connection points: 2
#     Edge 60, Type (0, 1), BuildingBlock: OJICUG_clean_linker_0, # of connection points: 2
#     Edge 61, Type (0, 1), BuildingBlock: OJICUG_clean_linker_0, # of connection points: 2
#     Edge 62, Type (0, 1), BuildingBlock: OJICUG_clean_linker_0, # of connection points: 2
#     Edge 63, Type (0, 1), BuildingBlock: OJICUG_clean_linker_0, # of connection points: 2
#     Edge 64, Type (0, 1), BuildingBlock: OJICUG_clean_linker_0, # of connection points: 2
#     Edge 65, Type (0, 1), BuildingBlock: OJICUG_clean_linker_0, # of connection points: 2
#     Edge 66, Type (0, 1), BuildingBlock: OJICUG_clean_linker_0, # of connection points: 2
#     Edge 67, Type (0, 1), BuildingBlock: OJICUG_clean_linker_0, # of connection points: 2
#     Edge 68, Type (0, 1), BuildingBlock: OJICUG_clean_linker_0, # of connection points: 2
#     Edge 69, Type (0, 1), BuildingBlock: OJICUG_clean_linker_0, # of connection points: 2
#     Edge 70, Type (0, 1), BuildingBlock: OJICUG_clean_linker_0, # of connection points: 2
#     Edge 71, Type (0, 1), BuildingBlock: OJICUG_clean_linker_0, # of connection points: 2
#     Edge 72, Type (0, 1), BuildingBlock: OJICUG_clean_linker_0, # of connection points: 2
#     Edge 73, Type (0, 1), BuildingBlock: OJICUG_clean_linker_0, # of connection points: 2
#     Edge 74, Type (0, 1), BuildingBlock: OJICUG_clean_linker_0, # of connection points: 2
#     Edge 75, Type (0, 1), BuildingBlock: OJICUG_clean_linker_0, # of connection points: 2
#     Edge 76, Type (0, 1), BuildingBlock: OJICUG_clean_linker_0, # of connection points: 2
#     Edge 77, Type (0, 1), BuildingBlock: OJICUG_clean_linker_0, # of connection points: 2
#     Edge 78, Type (0, 1), BuildingBlock: OJICUG_clean_linker_0, # of connection points: 2
#     Edge 79, Type (0, 1), BuildingBlock: OJICUG_clean_linker_0, # of connection points: 2
#     Edge 80, Type (0, 1), BuildingBlock: OJICUG_clean_linker_0, # of connection points: 2
#     Edge 81, Type (0, 1), BuildingBlock: OJICUG_clean_linker_0, # of connection points: 2
#     Edge 82, Type (0, 1), BuildingBlock: OJICUG_clean_linker_0, # of connection points: 2
#     Edge 83, Type (0, 1), BuildingBlock: OJICUG_clean_linker_0, # of connection points: 2
#     Edge 84, Type (0, 1), BuildingBlock: OJICUG_clean_linker_0, # of connection points: 2
#     Edge 85, Type (0, 1), BuildingBlock: OJICUG_clean_linker_0, # of connection points: 2
#     Edge 86, Type (0, 1), BuildingBlock: OJICUG_clean_linker_0, # of connection points: 2
#     Edge 87, Type (0, 1), BuildingBlock: OJICUG_clean_linker_0, # of connection points: 2
#     Edge 88, Type (0, 1), BuildingBlock: OJICUG_clean_linker_0, # of connection points: 2
#     Edge 89, Type (0, 1), BuildingBlock: OJICUG_clean_linker_0, # of connection points: 2
#     Edge 90, Type (0, 1), BuildingBlock: OJICUG_clean_linker_0, # of connection points: 2
#     Edge 91, Type (0, 1), BuildingBlock: OJICUG_clean_linker_0, # of connection points: 2
#     Edge 92, Type (0, 1), BuildingBlock: OJICUG_clean_linker_0, # of connection points: 2
#     Edge 93, Type (0, 1), BuildingBlock: OJICUG_clean_linker_0, # of connection points: 2
#     Edge 94, Type (0, 1), BuildingBlock: OJICUG_clean_linker_0, # of connection points: 2
#     Edge 95, Type (0, 1), BuildingBlock: OJICUG_clean_linker_0, # of connection points: 2
#     Edge 96, Type (0, 1), BuildingBlock: OJICUG_clean_linker_0, # of connection points: 2
#     Edge 97, Type (0, 1), BuildingBlock: OJICUG_clean_linker_0, # of connection points: 2
#     Edge 98, Type (0, 1), BuildingBlock: OJICUG_clean_linker_0, # of connection points: 2
#     Edge 99, Type (0, 1), BuildingBlock: OJICUG_clean_linker_0, # of connection points: 2
#     Edge 100, Type (0, 1), BuildingBlock: OJICUG_clean_linker_0, # of connection points: 2
#     Edge 101, Type (0, 1), BuildingBlock: OJICUG_clean_linker_0, # of connection points: 2
#     Edge 102, Type (0, 1), BuildingBlock: OJICUG_clean_linker_0, # of connection points: 2
#     Edge 103, Type (0, 1), BuildingBlock: OJICUG_clean_linker_0, # of connection points: 2
#     Edge 104, Type (0, 1), BuildingBlock: OJICUG_clean_linker_0, # of connection points: 2
#     Edge 105, Type (0, 1), BuildingBlock: OJICUG_clean_linker_0, # of connection points: 2
#     Edge 106, Type (0, 1), BuildingBlock: OJICUG_clean_linker_0, # of connection points: 2
#     Edge 107, Type (0, 1), BuildingBlock: OJICUG_clean_linker_0, # of connection points: 2
#     Edge 108, Type (0, 1), BuildingBlock: OJICUG_clean_linker_0, # of connection points: 2
#     Edge 109, Type (0, 1), BuildingBlock: OJICUG_clean_linker_0, # of connection points: 2
#     Edge 110, Type (0, 1), BuildingBlock: OJICUG_clean_linker_0, # of connection points: 2
#     Edge 111, Type (0, 1), BuildingBlock: OJICUG_clean_linker_0, # of connection points: 2
#     Edge 112, Type (0, 1), BuildingBlock: OJICUG_clean_linker_0, # of connection points: 2
#     Edge 113, Type (0, 1), BuildingBlock: OJICUG_clean_linker_0, # of connection points: 2
#     Edge 114, Type (0, 1), BuildingBlock: OJICUG_clean_linker_0, # of connection points: 2
#     Edge 115, Type (0, 1), BuildingBlock: OJICUG_clean_linker_0, # of connection points: 2
#     Edge 116, Type (0, 1), BuildingBlock: OJICUG_clean_linker_0, # of connection points: 2
#     Edge 117, Type (0, 1), BuildingBlock: OJICUG_clean_linker_0, # of connection points: 2
#     Edge 118, Type (0, 1), BuildingBlock: OJICUG_clean_linker_0, # of connection points: 2
#     Edge 119, Type (0, 1), BuildingBlock: OJICUG_clean_linker_0, # of connection points: 2
#     Edge 120, Type (0, 1), BuildingBlock: OJICUG_clean_linker_0, # of connection points: 2
#     Edge 121, Type (0, 1), BuildingBlock: OJICUG_clean_linker_0, # of connection points: 2
#     Edge 122, Type (0, 1), BuildingBlock: OJICUG_clean_linker_0, # of connection points: 2
#     Edge 123, Type (0, 1), BuildingBlock: OJICUG_clean_linker_0, # of connection points: 2
#     Edge 124, Type (0, 1), BuildingBlock: OJICUG_clean_linker_0, # of connection points: 2
#     Edge 125, Type (0, 1), BuildingBlock: OJICUG_clean_linker_0, # of connection points: 2
#     Edge 126, Type (0, 1), BuildingBlock: OJICUG_clean_linker_0, # of connection points: 2
#     Edge 127, Type (0, 1), BuildingBlock: OJICUG_clean_linker_0, # of connection points: 2
#     Edge 128, Type (0, 1), BuildingBlock: OJICUG_clean_linker_0, # of connection points: 2
#     Edge 129, Type (0, 1), BuildingBlock: OJICUG_clean_linker_0, # of connection points: 2
#     Edge 130, Type (0, 1), BuildingBlock: OJICUG_clean_linker_0, # of connection points: 2
#     Edge 131, Type (0, 1), BuildingBlock: OJICUG_clean_linker_0, # of connection points: 2
#     Edge 132, Type (0, 1), BuildingBlock: OJICUG_clean_linker_0, # of connection points: 2
#     Edge 133, Type (0, 1), BuildingBlock: OJICUG_clean_linker_0, # of connection points: 2
#     Edge 134, Type (0, 1), BuildingBlock: OJICUG_clean_linker_0, # of connection points: 2
#     Edge 135, Type (0, 1), BuildingBlock: OJICUG_clean_linker_0, # of connection points: 2
# Relax obj value: 0.122
# Max RMSD: 0.205
# Mean RMSD: 0.135
data_MOF--net-gar--node1-TATPOV_clean_sbu_0--node2-KUMJIN_clean_sbu_1--edge1-OJICUG_clean_linker_0
_symmetry_space_group_name_H-M    P1
_symmetry_Int_Tables_number       1
_symmetry_cell_setting            triclinic
loop_
_symmetry_equiv_pos_as_xyz
'x, y, z'
_cell_length_a     45.592157
_cell_length_b     45.460296
_cell_length_c     42.192029
_cell_angle_alpha  97.55671
_cell_angle_beta   98.261147
_cell_angle_gamma 104.54833
loop_
_atom_site_label
_atom_site_type_symbol
_atom_site_fract_x
_atom_site_fract_y
_atom_site_fract_z
_atom_type_partial_charge
Zn0 Zn 0.03674 0.33627 0.39445 0.0
Zn1 Zn 0.07275 0.34268 0.35752 0.0
O2 O 0.0826 0.38805 0.39186 0.0
O3 O 0.04072 0.37813 0.41339 0.0
O4 O 0.11536 0.33506 0.33738 0.0
O5 O 0.05276 0.31172 0.42425 0.0
O6 O 0.06952 0.30284 0.37885 0.0
C7 C 0.06502 0.3972 0.41043 0.0
C8 C 0.99836 0.32411 0.33529 0.0
O9 O 0.02504 0.3355 0.32731 0.0
O10 O 0.99781 0.31726 0.36326 0.0
C11 C 0.13417 0.34361 0.31767 0.0
O12 O 0.12906 0.36476 0.3009 0.0
C13 C 0.06432 0.29541 0.40603 0.0
Zn14 Zn 0.03551 0.7283 0.7484 0.0
Zn15 Zn 0.0411 0.76642 0.7117 0.0
O16 O 0.99847 0.77136 0.72905 0.0
O17 O 0.9965 0.74307 0.76674 0.0
O18 O 0.04738 0.80176 0.68876 0.0
O19 O 0.08537 0.74238 0.76766 0.0
O20 O 0.08897 0.77707 0.73635 0.0
C21 C 0.98447 0.76096 0.75138 0.0
C22 C 0.03099 0.70058 0.67797 0.0
O23 O 0.0355 0.72881 0.67477 0.0
O24 O 0.02764 0.6937 0.70588 0.0
C25 C 0.02727 0.81016 0.67091 0.0
O26 O 0.99841 0.79335 0.66421 0.0
C27 C 0.10266 0.76364 0.75628 0.0
Zn28 Zn 0.53756 0.83756 0.8996 0.0
Zn29 Zn 0.57371 0.84282 0.85947 0.0
O30 O 0.58235 0.88845 0.89311 0.0
O31 O 0.54647 0.87874 0.92342 0.0
O32 O 0.61692 0.83587 0.83937 0.0
O33 O 0.55036 0.80843 0.92458 0.0
O34 O 0.57077 0.80314 0.8809 0.0
C35 C 0.56846 0.89766 0.91584 0.0
C36 C 0.49929 0.82705 0.83794 0.0
O37 O 0.52604 0.83492 0.82888 0.0
O38 O 0.49853 0.82378 0.86709 0.0
C39 C 0.63312 0.8403 0.81639 0.0
O40 O 0.62393 0.85544 0.79424 0.0
C41 C 0.56365 0.7938 0.90671 0.0
Zn42 Zn 0.53396 0.22476 0.24539 0.0
Zn43 Zn 0.54124 0.266 0.21226 0.0
O44 O 0.49901 0.27127 0.22976 0.0
O45 O 0.49461 0.23878 0.26334 0.0
O46 O 0.54749 0.30102 0.18908 0.0
O47 O 0.58409 0.23917 0.26415 0.0
O48 O 0.58821 0.27797 0.23827 0.0
C49 C 0.48384 0.25869 0.25022 0.0
C50 C 0.53122 0.19978 0.17613 0.0
O51 O 0.53727 0.22861 0.17513 0.0
O52 O 0.52587 0.19091 0.20266 0.0
C53 C 0.52755 0.31008 0.17178 0.0
O54 O 0.4984 0.29418 0.16577 0.0
C55 C 0.6016 0.26241 0.2557 0.0
Zn56 Zn 0.12301 0.81437 0.078 0.0
Zn57 Zn 0.0896 0.81288 0.11851 0.0
O58 O 0.08224 0.85412 0.09856 0.0
O59 O 0.11088 0.85609 0.06169 0.0
O60 O 0.05424 0.80583 0.1411 0.0
O61 O 0.10443 0.76547 0.05519 0.0
O62 O 0.08156 0.76389 0.09694 0.0
C63 C 0.0928 0.86819 0.07628 0.0
C64 C 0.15415 0.82003 0.15012 0.0
O65 O 0.12798 0.8222 0.15584 0.0
O66 O 0.15788 0.81691 0.12049 0.0
C67 C 0.04399 0.82559 0.15682 0.0
O68 O 0.05874 0.85507 0.16167 0.0
C69 C 0.08889 0.74897 0.07262 0.0
Zn70 Zn 0.48264 0.77669 0.50173 0.0
Zn71 Zn 0.51504 0.77794 0.45968 0.0
O72 O 0.52639 0.82737 0.48214 0.0
O73 O 0.49959 0.82561 0.52108 0.0
O74 O 0.54928 0.77716 0.43554 0.0
O75 O 0.49705 0.73707 0.52039 0.0
O76 O 0.52057 0.73659 0.47937 0.0
C77 C 0.51689 0.84209 0.50504 0.0
C78 C 0.44974 0.77338 0.43114 0.0
O79 O 0.47571 0.77194 0.424 0.0
O80 O 0.44656 0.77382 0.46084 0.0
C81 C 0.55874 0.79685 0.41826 0.0
O82 O 0.54528 0.8189 0.41495 0.0
C83 C 0.51307 0.72404 0.50363 0.0
Zn84 Zn 0.62537 0.31648 0.57914 0.0
Zn85 Zn 0.58901 0.31257 0.61739 0.0
O86 O 0.58264 0.35464 0.59856 0.0
O87 O 0.61132 0.35696 0.56166 0.0
O88 O 0.55395 0.30586 0.64052 0.0
O89 O 0.60898 0.26701 0.55833 0.0
O90 O 0.57833 0.26419 0.59351 0.0
C91 C 0.59308 0.36881 0.57628 0.0
C92 C 0.6551 0.32067 0.65018 0.0
O93 O 0.62765 0.31927 0.65454 0.0
O94 O 0.66064 0.32105 0.62136 0.0
C95 C 0.54387 0.32556 0.65658 0.0
O96 O 0.55867 0.35503 0.66156 0.0
C97 C 0.58944 0.24996 0.57187 0.0
Zn98 Zn 0.98054 0.27529 0.00171 0.0
Zn99 Zn 0.016 0.27961 0.96263 0.0
O100 O 0.02862 0.32834 0.9865 0.0
O101 O 0.99565 0.32496 0.01949 0.0
O102 O 0.0509 0.27976 0.93926 0.0
O103 O 0.99576 0.23619 0.02071 0.0
O104 O 0.0215 0.23779 0.98142 0.0
C105 C 0.01593 0.34217 0.00694 0.0
C106 C 0.94891 0.27221 0.9323 0.0
O107 O 0.9763 0.27467 0.92689 0.0
O108 O 0.94412 0.26951 0.96102 0.0
C109 C 0.05743 0.29518 0.91725 0.0
O110 O 0.04072 0.31338 0.90835 0.0
C111 C 0.01293 0.22414 0.00466 0.0
Zn112 Zn 0.43854 0.98471 0.3496 0.0
Zn113 Zn 0.40772 0.03683 0.33971 0.0
O114 O 0.42959 0.03983 0.38327 0.0
O115 O 0.40841 0.99145 0.38006 0.0
O116 O 0.39487 0.07374 0.34416 0.0
O117 O 0.45797 1.00632 0.3156 0.0
O118 O 0.43177 0.03943 0.30411 0.0
C119 C 0.42117 0.01732 0.39751 0.0
C120 C 0.36967 0.9732 0.32281 0.0
O121 O 0.37006 1.00132 0.32525 0.0
O122 O 0.39356 0.96462 0.33193 0.0
C123 C 0.36694 0.07206 0.34482 0.0
O124 O 0.34958 0.0483 0.35425 0.0
C125 C 0.45167 0.02544 0.29824 0.0
Zn126 Zn 0.24597 0.2373 0.52123 0.0
Zn127 Zn 0.28128 0.20269 0.52199 0.0
O128 O 0.29036 0.22369 0.48129 0.0
O129 O 0.26028 0.25442 0.48126 0.0
O130 O 0.31397 0.18186 0.52767 0.0
O131 O 0.26259 0.26017 0.56819 0.0
O132 O 0.28875 0.226 0.57066 0.0
C133 C 0.27983 0.24375 0.46842 0.0
C134 C 0.21492 0.17059 0.51431 0.0
O135 O 0.24171 0.16728 0.51373 0.0
O136 O 0.21092 0.19738 0.5172 0.0
C137 C 0.32282 0.16288 0.50917 0.0
O138 O 0.30863 0.15289 0.47882 0.0
C139 C 0.27984 0.24783 0.58507 0.0
Zn140 Zn 0.1189 0.11008 0.80583 0.0
Zn141 Zn 0.14841 0.06968 0.80291 0.0
O142 O 0.12736 0.06098 0.84392 0.0
O143 O 0.10236 0.09636 0.84614 0.0
O144 O 0.17274 0.03984 0.79863 0.0
O145 O 0.09706 0.09402 0.75792 0.0
O146 O 0.12357 0.06005 0.7551 0.0
C147 C 0.11012 0.07461 0.85805 0.0
C148 C 0.18356 0.13772 0.81132 0.0
O149 O 0.18365 0.10956 0.80831 0.0
O150 O 0.15858 0.14493 0.81214 0.0
C151 C 0.18791 0.02821 0.81866 0.0
O152 O 0.18746 0.03368 0.84989 0.0
C153 C 0.10484 0.07299 0.74101 0.0
Zn154 Zn 0.37741 0.92712 0.98838 0.0
Zn155 Zn 0.31795 0.94565 0.98743 0.0
O156 O 0.31555 0.922 0.94568 0.0
O157 O 0.36425 0.94285 0.94658 0.0
O158 O 0.28125 0.95889 0.98286 0.0
O159 O 0.35712 0.91362 0.02692 0.0
O160 O 0.31087 0.92111 0.02151 0.0
C161 C 0.33764 0.92888 0.93073 0.0
C162 C 0.37886 0.98212 0.02302 0.0
O163 O 0.356 0.98169 0.00159 0.0
O164 O 0.38228 0.95694 0.03035 0.0
C165 C 0.28093 0.9863 0.98171 0.0
O166 O 0.30455 1.00542 0.97403 0.0
C167 C 0.33141 0.91118 0.03608 0.0
Zn168 Zn 0.36524 0.36365 0.05742 0.0
Zn169 Zn 0.32562 0.39391 0.05552 0.0
O170 O 0.31689 0.36932 0.00786 0.0
O171 O 0.35178 0.34373 0.0094 0.0
O172 O 0.29103 0.41252 0.05044 0.0
O173 O 0.34995 0.34298 0.0949 0.0
O174 O 0.31842 0.37223 0.09617 0.0
C175 C 0.33004 0.35131 0.99332 0.0
C176 C 0.39241 0.42981 0.06378 0.0
O177 O 0.36444 0.43057 0.06092 0.0
O178 O 0.39897 0.40441 0.06474 0.0
C179 C 0.28958 0.43936 0.06119 0.0
O180 O 0.31351 0.45943 0.08029 0.0
C181 C 0.32966 0.35207 0.10797 0.0
Zn182 Zn 0.73251 0.16884 0.06877 0.0
Zn183 Zn 0.78621 0.14432 0.09408 0.0
O184 O 0.79789 0.1726 0.06212 0.0
O185 O 0.75267 0.14901 0.03417 0.0
O186 O 0.81858 0.12514 0.10179 0.0
O187 O 0.74883 0.18376 0.11864 0.0
O188 O 0.78923 0.16779 0.13566 0.0
C189 C 0.77929 0.16632 0.03534 0.0
C190 C 0.72051 0.11725 0.08706 0.0
O191 O 0.74481 0.11252 0.07888 0.0
O192 O 0.72227 0.14313 0.10336 0.0
C193 C 0.814 0.09798 0.08731 0.0
O194 O 0.78608 0.08203 0.07261 0.0
C195 C 0.77019 0.18267 0.14115 0.0
Zn196 Zn 0.17445 0.61204 0.25188 0.0
Zn197 Zn 0.20026 0.56334 0.23935 0.0
O198 O 0.1801 0.55573 0.27799 0.0
O199 O 0.19825 0.6053 0.29407 0.0
O200 O 0.22331 0.53339 0.23361 0.0
O201 O 0.17618 0.60499 0.20289 0.0
O202 O 0.17177 0.55543 0.19813 0.0
C203 C 0.18865 0.57876 0.30092 0.0
C204 C 0.2308 0.62864 0.23737 0.0
O205 O 0.23275 0.60459 0.24831 0.0
O206 O 0.20469 0.62934 0.2228 0.0
C207 C 0.24897 0.54153 0.25282 0.0
O208 O 0.25627 0.56734 0.27389 0.0
C209 C 0.1696 0.57852 0.18534 0.0
Zn210 Zn 0.86231 0.86285 0.55749 0.0
Zn211 Zn 0.82484 0.89313 0.55463 0.0
O212 O 0.81439 0.86837 0.5071 0.0
O213 O 0.85059 0.84443 0.50954 0.0
O214 O 0.78973 0.91108 0.55305 0.0
O215 O 0.84789 0.84025 0.59322 0.0
O216 O 0.8189 0.87188 0.59583 0.0
C217 C 0.82866 0.85131 0.49295 0.0
C218 C 0.89227 0.9277 0.56436 0.0
O219 O 0.86455 0.92941 0.55874 0.0
O220 O 0.89721 0.90203 0.568 0.0
C221 C 0.79105 0.93932 0.55441 0.0
O222 O 0.8177 0.95978 0.55678 0.0
C223 C 0.82898 0.85086 0.60715 0.0
Zn224 Zn 0.98741 0.98526 0.26844 0.0
Zn225 Zn 0.95959 0.02753 0.26981 0.0
O226 O 0.98367 0.03837 0.31756 0.0
O227 O 1.00676 1.00135 0.31711 0.0
O228 O 0.93901 0.06116 0.26802 0.0
O229 O 1.00704 0.99739 0.22936 0.0
O230 O 0.9828 0.03335 0.23005 0.0
C231 C 1.00065 0.02429 0.33257 0.0
C232 C 0.92262 0.95931 0.26234 0.0
O233 O 0.92331 0.98777 0.26607 0.0
O234 O 0.94709 0.95145 0.2602 0.0
C235 C 0.91394 0.05887 0.27835 0.0
O236 O 0.90222 0.03467 0.29103 0.0
C237 C 1.00032 0.01936 0.21703 0.0
Zn238 Zn 0.23738 0.67647 0.59554 0.0
Zn239 Zn 0.29114 0.65102 0.59152 0.0
O240 O 0.30087 0.67421 0.55649 0.0
O241 O 0.25268 0.67696 0.55157 0.0
O242 O 0.31897 0.62548 0.59644 0.0
O243 O 0.24869 0.65758 0.63621 0.0
O244 O 0.29678 0.67711 0.63416 0.0
C245 C 0.27691 0.67746 0.53976 0.0
C246 C 0.22729 0.61441 0.58681 0.0
O247 O 0.24997 0.62068 0.57289 0.0
O248 O 0.22612 0.63401 0.61057 0.0
C249 C 0.31164 0.60456 0.57155 0.0
O250 O 0.29055 0.60537 0.54722 0.0
C251 C 0.27565 0.67206 0.65069 0.0
Zn252 Zn 0.48538 0.4843 0.76597 0.0
Zn253 Zn 0.45847 0.5267 0.76911 0.0
O254 O 0.4838 0.53648 0.81595 0.0
O255 O 0.50587 0.49886 0.81394 0.0
O256 O 0.44044 0.56186 0.77353 0.0
O257 O 0.50479 0.49725 0.72745 0.0
O258 O 0.48034 0.53308 0.72849 0.0
C259 C 0.50034 0.52169 0.83027 0.0
C260 C 0.42071 0.45918 0.76152 0.0
O261 O 0.42167 0.48773 0.76576 0.0
O262 O 0.44488 0.45101 0.75856 0.0
C263 C 0.41273 0.56215 0.76524 0.0
O264 O 0.39185 0.53695 0.74966 0.0
C265 C 0.49794 0.51927 0.71534 0.0
Zn266 Zn 0.66688 0.10058 0.74926 0.0
Zn267 Zn 0.69931 0.06348 0.73991 0.0
O268 O 0.68376 0.0564 0.78239 0.0
O269 O 0.69102 0.10593 0.79524 0.0
O270 O 0.72356 0.03437 0.73398 0.0
O271 O 0.67616 0.10402 0.70466 0.0
O272 O 0.66883 0.05427 0.70009 0.0
C273 C 0.68845 0.08001 0.80411 0.0
C274 C 0.73125 0.12728 0.76245 0.0
O275 O 0.72974 0.10471 0.74086 0.0
O276 O 0.70823 0.12777 0.77627 0.0
C277 C 0.75023 0.04411 0.75138 0.0
O278 O 0.75866 0.07187 0.76902 0.0
C279 C 0.66948 0.07783 0.68693 0.0
Zn280 Zn 0.74371 0.73601 0.02147 0.0
Zn281 Zn 0.7809 0.70284 0.02379 0.0
O282 O 0.78846 0.72283 0.98196 0.0
O283 O 0.75957 0.75469 0.98291 0.0
O284 O 0.81422 0.68273 0.0288 0.0
O285 O 0.75857 0.75699 0.06989 0.0
O286 O 0.7894 0.72698 0.07162 0.0
C287 C 0.77837 0.74331 0.96942 0.0
C288 C 0.71407 0.66934 0.01387 0.0
O289 O 0.74165 0.66738 0.01813 0.0
O290 O 0.70882 0.69533 0.01255 0.0
C291 C 0.82201 0.66329 0.00977 0.0
O292 O 0.80591 0.65225 0.9803 0.0
C293 C 0.77842 0.747 0.08618 0.0
Zn294 Zn 0.94144 0.48982 0.8488 0.0
Zn295 Zn 0.90722 0.5401 0.83646 0.0
O296 O 0.92693 0.54103 0.88038 0.0
O297 O 0.90907 0.49202 0.8777 0.0
O298 O 0.89199 0.57572 0.84135 0.0
O299 O 0.95325 0.50709 0.80928 0.0
O300 O 0.93298 0.54578 0.80318 0.0
C301 C 0.92088 0.51828 0.89489 0.0
C302 C 0.87128 0.47656 0.82279 0.0
O303 O 0.87151 0.50356 0.81841 0.0
O304 O 0.89493 0.47002 0.83694 0.0
C305 C 0.86458 0.57091 0.84598 0.0
O306 O 0.85247 0.54683 0.85863 0.0
C307 C 0.94918 0.52852 0.79425 0.0
Zn308 Zn 0.86813 0.41303 0.49355 0.0
Zn309 Zn 0.81928 0.43955 0.49192 0.0
O310 O 0.81849 0.4253 0.44644 0.0
O311 O 0.86852 0.43519 0.45347 0.0
O312 O 0.78341 0.45377 0.49327 0.0
O313 O 0.85912 0.42003 0.5391 0.0
O314 O 0.8102 0.4063 0.51744 0.0
C315 C 0.84268 0.42819 0.43445 0.0
C316 C 0.88037 0.4798 0.50226 0.0
O317 O 0.85536 0.47654 0.51286 0.0
O318 O 0.88671 0.45682 0.48673 0.0
C319 C 0.78075 0.47906 0.48587 0.0
O320 O 0.80155 0.49525 0.47169 0.0
C321 C 0.83121 0.41101 0.54181 0.0
Zn322 Zn 0.61606 0.60728 0.30292 0.0
Zn323 Zn 0.64881 0.5702 0.30188 0.0
O324 O 0.62833 0.56316 0.34359 0.0
O325 O 0.59811 0.59369 0.34251 0.0
O326 O 0.66778 0.53597 0.29808 0.0
O327 O 0.5933 0.59134 0.2552 0.0
O328 O 0.62529 0.56265 0.25348 0.0
C329 C 0.60871 0.57434 0.35622 0.0
C330 C 0.68313 0.6364 0.31061 0.0
O331 O 0.68513 0.60882 0.30804 0.0
O332 O 0.65702 0.64167 0.31032 0.0
C333 C 0.68939 0.53085 0.31709 0.0
O334 O 0.70305 0.55049 0.344 0.0
C335 C 0.60433 0.57272 0.23882 0.0
Eu336 Eu 0.09818 0.06729 0.05804 0.0
C337 C 0.9843 0.96159 0.98735 0.0
N338 N 1.00233 0.98744 0.97955 0.0
C339 C 0.99769 0.96104 0.92535 0.0
C340 C 0.9734 0.93401 0.96457 0.0
C341 C 1.00826 0.98782 0.94878 0.0
C342 C 0.98072 0.93398 0.93352 0.0
C343 C 0.95638 0.93672 0.02607 0.0
C344 C 0.97577 0.96293 0.01788 0.0
C345 C 0.94654 0.90893 0.00378 0.0
C346 C 0.95505 0.90759 0.97319 0.0
Eu347 Eu 0.01601 0.03147 0.02028 0.0
N348 N 0.98562 0.99007 0.03917 0.0
C349 C 0.94681 0.93939 0.05613 0.0
C350 C 0.97467 0.99338 0.06747 0.0
C351 C 0.95563 0.96799 0.07671 0.0
H352 H 0.02016 0.00882 0.94168 0.0
H353 H 0.94738 0.97062 0.09944 0.0
H354 H 0.08964 0.09147 0.13436 0.0
H355 H 0.15967 0.13037 0.9747 0.0
H356 H 0.9798 0.01571 0.08258 0.0
H357 H 0.93184 0.91977 0.06322 0.0
H358 H 0.13057 0.08463 0.99263 0.0
H359 H 1.00241 0.96134 0.90096 0.0
H360 H 0.93186 0.88846 0.00973 0.0
H361 H 0.94684 0.88602 0.95633 0.0
H362 H 0.10105 0.14069 0.17206 0.0
H363 H 0.97293 0.91338 0.91549 0.0
H364 H 0.17239 0.18145 0.00986 0.0
N365 N 0.10634 0.11236 0.0958 0.0
C366 C 0.12248 0.13856 0.08684 0.0
C367 C 0.10685 0.14037 0.14805 0.0
C368 C 0.13053 0.16698 0.1082 0.0
C369 C 0.09973 0.1126 0.12634 0.0
C370 C 0.1216 0.16769 0.13857 0.0
N371 N 0.12209 0.10955 0.03513 0.0
C372 C 0.1332 0.10688 0.00679 0.0
C373 C 0.14846 0.16386 0.04713 0.0
C374 C 0.1306 0.13709 0.05596 0.0
C375 C 0.15832 0.16145 0.01724 0.0
C376 C 0.15095 0.13276 0.99717 0.0
H377 H 0.126 0.18921 0.15485 0.0
H378 H 0.15327 0.21589 0.11454 0.0
H379 H 0.17006 0.2129 0.06204 0.0
O380 O 0.14383 0.06798 0.04993 0.0
O381 O 0.06718 0.10265 0.05383 0.0
O382 O 0.0326 0.08028 0.00766 0.0
O383 O 0.13571 0.07389 0.09936 0.0
O384 O 0.09024 0.04317 0.00478 0.0
O385 O 0.04495 0.05197 0.98514 0.0
O386 O 0.97874 0.04964 0.03344 0.0
O387 O 0.03938 0.99222 0.0336 0.0
O388 O 0.0897 0.01482 0.05979 0.0
O389 O 0.97581 0.0259 0.98341 0.0
O390 O 0.02618 0.05403 0.07396 0.0
O391 O 0.07075 0.04336 0.09281 0.0
C392 C 0.04717 0.10553 0.02884 0.0
C393 C 0.18052 0.05896 0.0899 0.0
C394 C 0.2209 0.03774 0.07442 0.0
C395 C 0.23316 0.03956 0.10729 0.0
C396 C 0.19286 0.061 0.12282 0.0
C397 C 0.21913 0.05124 0.13144 0.0
C398 C 0.19472 0.04734 0.06581 0.0
C399 C 0.07142 0.04786 0.98055 0.0
C400 C 0.1559 0.07301 0.08065 0.0
C401 C 0.14719 0.19374 0.09871 0.0
C402 C 0.15654 0.1921 0.06856 0.0
C403 C 0.06633 0.9897 0.04868 0.0
C404 C 0.93355 0.04564 0.99358 0.0
C405 C 0.89198 0.06442 0.00826 0.0
C406 C 0.87968 0.06234 0.97537 0.0
C407 C 0.92123 0.04285 0.96048 0.0
C408 C 0.91864 0.05599 0.01735 0.0
C409 C 0.89423 0.05123 0.95145 0.0
C410 C 0.04366 0.0462 0.09702 0.0
C411 C 0.96326 0.04062 0.00364 0.0
H412 H 0.25357 0.03207 0.11418 0.0
H413 H 0.18266 0.07076 0.14181 0.0
H414 H 0.22877 0.053 0.15681 0.0
H415 H 0.18566 0.04584 0.04023 0.0
H416 H 0.85875 0.06893 0.96833 0.0
H417 H 0.9328 0.03499 0.94173 0.0
H418 H 0.92806 0.05823 0.043 0.0
H419 H 0.88478 0.0494 0.92601 0.0
Eu420 Eu 0.27611 0.80237 0.33206 0.0
C421 C 0.3401 0.73869 0.21814 0.0
N422 N 0.35439 0.76389 0.24128 0.0
C423 C 0.40055 0.74751 0.24788 0.0
C424 C 0.35568 0.71673 0.20889 0.0
C425 C 0.38415 0.76855 0.2563 0.0
C426 C 0.38622 0.72141 0.22415 0.0
C427 C 0.296 0.71105 0.1763 0.0
C428 C 0.31055 0.73584 0.20232 0.0
C429 C 0.31081 0.68834 0.16808 0.0
C430 C 0.34068 0.69127 0.18424 0.0
Eu431 Eu 0.32542 0.7979 0.25608 0.0
N432 N 0.2976 0.7591 0.20977 0.0
C433 C 0.26806 0.71101 0.15772 0.0
C434 C 0.27331 0.76146 0.18799 0.0
C435 C 0.25721 0.73689 0.16292 0.0
H436 H 0.39545 0.78887 0.27448 0.0
H437 H 0.23718 0.73853 0.14676 0.0
H438 H 0.20478 0.81046 0.31158 0.0
H439 H 0.35602 0.85781 0.4474 0.0
H440 H 0.26687 0.78268 0.18856 0.0
H441 H 0.25614 0.69239 0.13767 0.0
H442 H 0.32696 0.81394 0.40374 0.0
H443 H 0.42423 0.75147 0.25966 0.0
H444 H 0.29992 0.66917 0.1483 0.0
H445 H 0.35229 0.67415 0.1769 0.0
H446 H 0.17606 0.84831 0.32353 0.0
H447 H 0.39905 0.70521 0.21752 0.0
H448 H 0.33854 0.90516 0.45427 0.0
N449 N 0.24563 0.83601 0.34516 0.0
C450 C 0.25883 0.86112 0.36868 0.0
C451 C 0.19948 0.85242 0.33618 0.0
C452 C 0.24324 0.88352 0.37624 0.0
C453 C 0.21602 0.83107 0.32936 0.0
C454 C 0.21331 0.87901 0.35938 0.0
N455 N 0.29924 0.8391 0.38109 0.0
C456 C 0.32169 0.83576 0.40431 0.0
C457 C 0.30045 0.88747 0.41356 0.0
C458 C 0.28677 0.86288 0.38716 0.0
C459 C 0.32708 0.88662 0.434 0.0
C460 C 0.33713 0.86005 0.43003 0.0
H461 H 0.20039 0.89548 0.36471 0.0
H462 H 0.24606 0.92669 0.40695 0.0
H463 H 0.29661 0.93039 0.43945 0.0
O464 O 0.27453 0.76261 0.35575 0.0
O465 O 0.29069 0.83928 0.30397 0.0
O466 O 0.33873 0.83907 0.29599 0.0
O467 O 0.23289 0.77654 0.34296 0.0
O468 O 0.32691 0.8009 0.34801 0.0
O469 O 0.35567 0.7998 0.30604 0.0
O470 O 0.32419 0.83428 0.22884 0.0
O471 O 0.31897 0.75861 0.28185 0.0
O472 O 0.27463 0.76656 0.29009 0.0
O473 O 0.3657 0.81748 0.2348 0.0
O474 O 0.275 0.80085 0.24306 0.0
O475 O 0.24535 0.80295 0.28359 0.0
C476 C 0.31941 0.85332 0.30606 0.0
C477 C 0.23785 0.75367 0.38973 0.0
C478 C 0.24423 0.72912 0.43652 0.0
C479 C 0.21994 0.73875 0.44746 0.0
C480 C 0.21362 0.76349 0.40079 0.0
C481 C 0.20483 0.75608 0.42969 0.0
C482 C 0.25343 0.73684 0.40802 0.0
C483 C 0.35267 0.79943 0.33704 0.0
C484 C 0.24564 0.75855 0.35813 0.0
C485 C 0.25751 0.90903 0.40112 0.0
C486 C 0.28627 0.91116 0.4196 0.0
C487 C 0.29351 0.74936 0.29208 0.0
C488 C 0.36467 0.85778 0.203 0.0
C489 C 0.35708 0.88205 0.15657 0.0
C490 C 0.38891 0.89459 0.16063 0.0
C491 C 0.39662 0.87047 0.20735 0.0
C492 C 0.3448 0.86382 0.17784 0.0
C493 C 0.40875 0.88913 0.18614 0.0
C494 C 0.24896 0.80266 0.25285 0.0
C495 C 0.35189 0.83649 0.22304 0.0
H496 H 0.21262 0.73267 0.46964 0.0
H497 H 0.20113 0.77638 0.38693 0.0
H498 H 0.186 0.76336 0.43807 0.0
H499 H 0.27187 0.72872 0.39956 0.0
H500 H 0.39795 0.90731 0.14279 0.0
H501 H 0.41206 0.86552 0.22668 0.0
H502 H 0.32015 0.85298 0.1736 0.0
H503 H 0.43343 0.89852 0.18885 0.0
Eu504 Eu 0.51004 0.04192 0.55994 0.0
C505 C 0.61967 0.10594 0.48103 0.0
N506 N 0.59673 0.07886 0.4722 0.0
C507 C 0.58785 0.08836 0.41744 0.0
C508 C 0.62613 0.12598 0.45847 0.0
C509 C 0.58207 0.06923 0.44043 0.0
C510 C 0.6095 0.11709 0.42662 0.0
C511 C 0.66265 0.14054 0.52097 0.0
C512 C 0.6382 0.1131 0.51207 0.0
C513 C 0.66776 0.16108 0.49903 0.0
C514 C 0.64968 0.15377 0.46788 0.0
Eu515 Eu 0.59092 0.04897 0.51396 0.0
N516 N 0.63293 0.09303 0.53326 0.0
C517 C 0.68181 0.14624 0.55145 0.0
C518 C 0.65351 0.09698 0.56136 0.0
C519 C 0.67761 0.12402 0.57143 0.0
H520 H 0.5665 0.04648 0.432 0.0
H521 H 0.69336 0.12735 0.59423 0.0
H522 H 0.53486 0.04665 0.64225 0.0
H523 H 0.40957 0.95959 0.48023 0.0
H524 H 0.65215 0.0789 0.57553 0.0
H525 H 0.70073 0.16708 0.55914 0.0
H526 H 0.44987 0.00853 0.49787 0.0
H527 H 0.57591 0.0807 0.39247 0.0
H528 H 0.68624 0.18234 0.50561 0.0
H529 H 0.65462 0.16947 0.45089 0.0
H530 H 0.52517 0.01424 0.68334 0.0
H531 H 0.61403 0.13174 0.4086 0.0
H532 H 0.40166 0.92197 0.51757 0.0
N533 N 0.50456 0.01326 0.60289 0.0
C534 C 0.48169 0.98607 0.59489 0.0
C535 C 0.51325 1.00578 0.65844 0.0
C536 C 0.4749 0.9672 0.61844 0.0
C537 C 0.51921 0.02386 0.63456 0.0
C538 C 0.49137 0.97717 0.65028 0.0
N539 N 0.46884 0.99677 0.54156 0.0
C540 C 0.44876 0.99129 0.51283 0.0
C541 C 0.43919 0.95005 0.55553 0.0
C542 C 0.46352 0.97765 0.56365 0.0
C543 C 0.42048 0.94294 0.52467 0.0
C544 C 0.42498 0.96396 0.50343 0.0
H545 H 0.4866 0.96341 0.66902 0.0
H546 H 0.44589 0.92477 0.62783 0.0
H547 H 0.41499 0.90963 0.57275 0.0
O548 O 0.46885 0.05742 0.5428 0.0
O549 O 0.51718 0.99355 0.53881 0.0
O550 O 0.5622 0.99824 0.51563 0.0
O551 O 0.49123 0.06586 0.59461 0.0
O552 O 0.53193 0.05357 0.51814 0.0
O553 O 0.54821 0.03201 0.47721 0.0
O554 O 0.63031 0.03143 0.53137 0.0
O555 O 0.58445 0.09734 0.53608 0.0
O556 O 0.5384 0.09282 0.55729 0.0
O557 O 0.61147 0.02716 0.479 0.0
O558 O 0.56976 0.03709 0.55599 0.0
O559 O 0.55283 0.05916 0.59619 0.0
C560 C 0.53697 0.98112 0.5245 0.0
C561 C 0.44526 0.08074 0.58502 0.0
C562 C 0.40594 0.10754 0.57748 0.0
C563 C 0.40208 0.10636 0.60987 0.0
C564 C 0.44152 0.08015 0.61746 0.0
C565 C 0.41997 0.09294 0.62975 0.0
C566 C 0.42745 0.09436 0.56502 0.0
C567 C 0.52537 0.03699 0.48954 0.0
C568 C 0.46921 0.06899 0.57306 0.0
C569 C 0.4512 0.93947 0.61 0.0
C570 C 0.43355 0.93085 0.57864 0.0
C571 C 0.56427 0.10994 0.54942 0.0
C572 C 0.65481 1.00781 0.49062 0.0
C573 C 0.69243 0.97976 0.50101 0.0
C574 C 0.69534 0.97686 0.46813 0.0
C575 C 0.65807 1.00511 0.4578 0.0
C576 C 0.67239 0.99552 0.51245 0.0
C577 C 0.6783 0.98967 0.44667 0.0
C578 C 0.57587 0.05476 0.58386 0.0
C579 C 0.63206 0.02238 0.50105 0.0
H580 H 0.38516 0.11584 0.61991 0.0
H581 H 0.45533 0.06994 0.63343 0.0
H582 H 0.41714 0.09247 0.65472 0.0
H583 H 0.43107 0.0956 0.54031 0.0
H584 H 0.71125 0.96511 0.4592 0.0
H585 H 0.64487 0.01476 0.44059 0.0
H586 H 0.67015 0.99765 0.53786 0.0
H587 H 0.68074 0.98763 0.42141 0.0
Eu588 Eu 0.34173 0.2839 0.79414 0.0
C589 C 0.23552 0.32667 0.72034 0.0
N590 N 0.25752 0.34178 0.74675 0.0
C591 C 0.26355 0.38913 0.72614 0.0
C592 C 0.22682 0.34244 0.69556 0.0
C593 C 0.27128 0.37262 0.75021 0.0
C594 C 0.24127 0.37398 0.69868 0.0
C595 C 0.19827 0.27926 0.69124 0.0
C596 C 0.22166 0.29527 0.71805 0.0
C597 C 0.18962 0.29494 0.66652 0.0
C598 C 0.20391 0.3264 0.66863 0.0
Eu599 Eu 0.26768 0.31232 0.7867 0.0
N600 N 0.23064 0.28058 0.74227 0.0
C601 C 0.18373 0.2481 0.69044 0.0
C602 C 0.2152 0.2508 0.74251 0.0
C603 C 0.19199 0.23392 0.7164 0.0
H604 H 0.28765 0.38478 0.77191 0.0
H605 H 0.17999 0.21019 0.71667 0.0
H606 H 0.32065 0.21145 0.80905 0.0
H607 H 0.43012 0.38538 0.86456 0.0
H608 H 0.21964 0.24038 0.76338 0.0
H609 H 0.16554 0.23507 0.67038 0.0
H610 H 0.38989 0.3558 0.81801 0.0
H611 H 0.27451 0.4136 0.72898 0.0
H612 H 0.1717 0.28299 0.64578 0.0
H613 H 0.19689 0.3382 0.64941 0.0
H614 H 0.33377 0.18227 0.85162 0.0
H615 H 0.23518 0.38692 0.68017 0.0
H616 H 0.44457 0.36003 0.91045 0.0
N617 N 0.3512 0.25424 0.8342 0.0
C618 C 0.37345 0.2691 0.86053 0.0
C619 C 0.3449 0.20672 0.85455 0.0
C620 C 0.38214 0.25309 0.88511 0.0
C621 C 0.33716 0.22344 0.83069 0.0
C622 C 0.36745 0.22159 0.88189 0.0
N623 N 0.37895 0.3153 0.83869 0.0
C624 C 0.39454 0.34508 0.83862 0.0
C625 C 0.41139 0.31612 0.88953 0.0
C626 C 0.38776 0.3004 0.86282 0.0
C627 C 0.42623 0.34722 0.89043 0.0
C628 C 0.418 0.36165 0.86467 0.0
H629 H 0.37357 0.20847 0.9002 0.0
H630 H 0.4124 0.25683 0.93092 0.0
H631 H 0.4381 0.31194 0.9347 0.0
O632 O 0.38169 0.29766 0.77007 0.0
O633 O 0.32479 0.29507 0.84192 0.0
O634 O 0.30196 0.33362 0.83349 0.0
O635 O 0.36639 0.25083 0.78095 0.0
O636 O 0.34341 0.32804 0.77361 0.0
O637 O 0.31216 0.35077 0.80038 0.0
O638 O 0.22788 0.29802 0.81126 0.0
O639 O 0.28515 0.30217 0.73911 0.0
O640 O 0.30799 0.2635 0.74639 0.0
O641 O 0.24289 0.34487 0.80041 0.0
O642 O 0.26695 0.26873 0.80782 0.0
O643 O 0.2971 0.24578 0.7798 0.0
C644 C 0.31435 0.31811 0.85304 0.0
C645 C 0.41106 0.26124 0.75587 0.0
C646 C 0.45181 0.26943 0.72409 0.0
C647 C 0.45789 0.24187 0.73098 0.0
C648 C 0.41732 0.23366 0.76219 0.0
C649 C 0.44071 0.22416 0.74989 0.0
C650 C 0.42858 0.27942 0.73703 0.0
C651 C 0.33493 0.35247 0.78432 0.0
C652 C 0.38617 0.27035 0.76918 0.0
C653 C 0.40537 0.26882 0.91188 0.0
C654 C 0.41998 0.30022 0.91407 0.0
C655 C 0.29549 0.27931 0.72713 0.0
C656 C 0.19829 0.33454 0.82531 0.0
C657 C 0.15834 0.32826 0.85812 0.0
C658 C 0.15138 0.35474 0.84901 0.0
C659 C 0.19106 0.36106 0.81676 0.0
C660 C 0.18158 0.3177 0.8458 0.0
C661 C 0.16766 0.37097 0.82849 0.0
C662 C 0.27461 0.24412 0.79618 0.0
C663 C 0.22328 0.32529 0.81229 0.0
H664 H 0.47611 0.23403 0.72176 0.0
H665 H 0.40423 0.21943 0.77683 0.0
H666 H 0.44552 0.20296 0.75498 0.0
H667 H 0.42376 0.30066 0.73185 0.0
H668 H 0.13308 0.36282 0.85775 0.0
H669 H 0.2034 0.37416 0.80076 0.0
H670 H 0.18689 0.29713 0.85252 0.0
H671 H 0.16213 0.39133 0.82165 0.0
Eu672 Eu 0.06797 0.01189 0.53044 0.0
C673 C 0.02223 0.11825 0.6037 0.0
N674 N 1.00744 0.09649 0.57709 0.0
C675 C 0.95995 0.08994 0.59694 0.0
C676 C 1.00653 0.12589 0.62866 0.0
C677 C 0.97653 0.0831 0.57291 0.0
C678 C 0.97509 0.11111 0.62516 0.0
C679 C 0.06875 0.15713 0.6322 0.0
C680 C 0.05306 0.13348 0.6056 0.0
C681 C 0.05351 0.164 0.65768 0.0
C682 C 0.02248 0.14838 0.65593 0.0
Eu683 Eu 0.03756 0.08587 0.53815 0.0
N684 N 0.06739 0.12581 0.58094 0.0
C685 C 0.09896 0.17382 0.63183 0.0
C686 C 0.09547 0.14403 0.5789 0.0
C687 C 0.11208 0.16778 0.60461 0.0
H688 H 0.96442 0.06797 0.55057 0.0
H689 H 0.13469 0.18178 0.60312 0.0
H690 H 0.14048 0.03098 0.51663 0.0
H691 H 0.9643 0.92778 0.45732 0.0
H692 H 0.1045 0.14109 0.5569 0.0
H693 H 0.11174 0.1923 0.65166 0.0
H694 H 0.99403 0.96763 0.50368 0.0
H695 H 0.93542 0.07915 0.59349 0.0
H696 H 0.06529 0.18184 0.67846 0.0
H697 H 1.01083 0.15434 0.67546 0.0
H698 H 0.16947 0.01633 0.47502 0.0
H699 H 0.96215 0.11644 0.6437 0.0
H700 H 0.98988 0.91146 0.41301 0.0
N701 N 0.09729 1.00161 0.49093 0.0
C702 C 0.082 0.97979 0.46449 0.0
C703 C 0.14486 1.00605 0.47166 0.0
C704 C 0.09786 0.97027 0.44046 0.0
C705 C 0.12829 0.01461 0.49498 0.0
C706 C 0.1296 0.98381 0.44428 0.0
N707 N 0.03562 0.97612 0.48515 0.0
C708 C 1.00525 0.962 0.48408 0.0
C709 C 0.03435 0.94328 0.43476 0.0
C710 C 0.05043 0.96662 0.46157 0.0
C711 C 1.00294 0.92958 0.43307 0.0
C712 C 0.9884 0.93884 0.45796 0.0
H713 H 0.1426 0.97705 0.4264 0.0
H714 H 0.09365 0.93969 0.39507 0.0
H715 H 0.03813 0.91591 0.3902 0.0
O716 O 0.05307 0.96968 0.55097 0.0
O717 O 0.05865 0.03188 0.48413 0.0
O718 O 0.01727 0.04926 0.49293 0.0
O719 O 0.10134 0.98788 0.54581 0.0
O720 O 0.02601 0.01163 0.55338 0.0
O721 O 0.99901 0.04096 0.52819 0.0
O722 O 0.05053 0.12203 0.50834 0.0
O723 O 0.05218 0.07143 0.58679 0.0
O724 O 0.08709 0.04313 0.57984 0.0
O725 O 1.0057 0.11165 0.52394 0.0
O726 O 0.08352 0.08921 0.52106 0.0
O727 O 0.10664 0.0558 0.54489 0.0
C728 C 0.03431 0.04054 0.47311 0.0
C729 C 0.08958 0.94127 0.56817 0.0
C730 C 0.08139 0.9012 0.60122 0.0
C731 C 0.10908 0.89516 0.59536 0.0
C732 C 0.11724 0.93505 0.56277 0.0
C733 C 0.12682 0.91197 0.5762 0.0
C734 C 0.07131 0.92403 0.58711 0.0
C735 C 0.9999 0.01763 0.5434 0.0
C736 C 0.081 0.96663 0.55493 0.0
C737 C 0.08177 0.94734 0.41365 0.0
C738 C 0.05014 0.93384 0.41085 0.0
C739 C 0.07306 0.05828 0.59867 0.0
C740 C 0.01549 0.15322 0.49376 0.0
C741 C 0.02438 0.19362 0.46095 0.0
C742 C 0.99749 0.20081 0.46785 0.0
C743 C 0.98863 0.16077 0.50017 0.0
C744 C 0.03373 0.16998 0.47432 0.0
C745 C 0.97981 0.18449 0.48737 0.0
C746 C 0.10807 0.08061 0.53185 0.0
C747 C 0.02452 0.12893 0.50911 0.0
H748 H 0.11702 0.8773 0.60563 0.0
H749 H 0.13156 0.94806 0.54816 0.0
H750 H 0.14814 0.90723 0.57191 0.0
H751 H 0.05008 0.92897 0.59173 0.0
H752 H 0.99031 0.21942 0.45835 0.0
H753 H 0.97451 0.14859 0.51549 0.0
H754 H 0.05478 0.16473 0.46956 0.0
H755 H 0.95924 0.19032 0.4927 0.0
Eu756 Eu 0.30854 0.84277 0.76602 0.0
C757 C 0.24673 0.72884 0.84496 0.0
N758 N 0.27439 0.75092 0.85311 0.0
C759 C 0.26794 0.75875 0.90881 0.0
C760 C 0.22805 0.72208 0.86849 0.0
C761 C 0.28584 0.76453 0.88491 0.0
C762 C 0.23873 0.73785 0.90049 0.0
C763 C 0.20957 0.68776 0.80512 0.0
C764 C 0.23764 0.7114 0.81356 0.0
C765 C 0.19054 0.68212 0.8282 0.0
C766 C 0.1998 0.69911 0.85979 0.0
Eu767 Eu 0.3011 0.7586 0.80931 0.0
N768 N 0.2566 0.71673 0.79158 0.0
C769 C 0.20174 0.66986 0.7739 0.0
C770 C 0.25011 0.69784 0.76211 0.0
C771 C 0.22234 0.67467 0.75246 0.0
H772 H 0.309 0.7795 0.89246 0.0
H773 H 0.21712 0.66017 0.72873 0.0
H774 H 0.30461 0.82306 0.68262 0.0
H775 H 0.3913 0.94036 0.8492 0.0
H776 H 0.26659 0.69999 0.74638 0.0
H777 H 0.18036 0.6516 0.76653 0.0
H778 H 0.34184 0.90085 0.82942 0.0
H779 H 0.2769 0.77008 0.9338 0.0
H780 H 0.16892 0.6641 0.82209 0.0
H781 H 0.1852 0.69383 0.87757 0.0
H782 H 0.33865 0.83262 0.6435 0.0
H783 H 0.22508 0.73322 0.9192 0.0
H784 H 0.42997 0.94888 0.8135 0.0
N785 N 0.33837 0.84967 0.72401 0.0
C786 C 0.36611 0.87162 0.73334 0.0
C787 C 0.34695 0.84319 0.66881 0.0
C788 C 0.38583 0.8788 0.71076 0.0
C789 C 0.32795 0.83712 0.69167 0.0
C790 C 0.37622 0.86366 0.67848 0.0
N791 N 0.35414 0.88329 0.78591 0.0
C792 C 0.3594 0.90251 0.81501 0.0
C793 C 0.40203 0.91269 0.77425 0.0
C794 C 0.37409 0.88887 0.76484 0.0
C795 C 0.40872 0.93054 0.80539 0.0
C796 C 0.38707 0.9257 0.82569 0.0
H797 H 0.39066 0.86869 0.6605 0.0
H798 H 0.4293 0.90738 0.70346 0.0
H799 H 0.44362 0.9367 0.75907 0.0
O800 O 0.29317 0.88406 0.78187 0.0
O801 O 0.35562 0.83659 0.79162 0.0
O802 O 0.349 0.78482 0.79898 0.0
O803 O 0.28459 0.8613 0.73047 0.0
O804 O 0.29412 0.82167 0.80813 0.0
O805 O 0.31633 0.80119 0.84641 0.0
O806 O 0.31629 0.71782 0.79218 0.0
O807 O 0.25328 0.76365 0.78402 0.0
O808 O 0.25841 0.81366 0.77055 0.0
O809 O 0.33459 0.74562 0.84097 0.0
O810 O 0.30909 0.78544 0.7707 0.0
O811 O 0.29444 0.80168 0.72716 0.0
C812 C 0.36683 0.81287 0.79763 0.0
C813 C 0.26528 0.90475 0.73967 0.0
C814 C 0.24074 0.94553 0.74938 0.0
C815 C 0.22924 0.9409 0.71571 0.0
C816 C 0.25454 0.90119 0.70606 0.0
C817 C 0.2365 0.91914 0.69423 0.0
C818 C 0.25873 0.92717 0.76134 0.0
C819 C 0.31187 0.82546 0.83594 0.0
C820 C 0.28138 0.88338 0.75147 0.0
C821 C 0.41397 0.90181 0.72052 0.0
C822 C 0.4221 0.91858 0.75217 0.0
C823 C 0.24117 0.78596 0.77465 0.0
C824 C 0.34242 0.69638 0.83348 0.0
C825 C 0.36877 0.65628 0.82971 0.0
C826 C 0.36837 0.65489 0.86278 0.0
C827 C 0.34179 0.69446 0.86639 0.0
C828 C 0.35571 0.67712 0.81519 0.0
C829 C 0.35488 0.67386 0.88093 0.0
C830 C 0.29831 0.77878 0.74011 0.0
C831 C 0.33531 0.72219 0.81989 0.0
H832 H 0.21433 0.95393 0.70587 0.0
H833 H 0.25946 0.88406 0.68879 0.0
H834 H 0.22776 0.91587 0.6684 0.0
H835 H 0.26738 0.93015 0.78722 0.0
H836 H 0.37806 0.63879 0.87454 0.0
H837 H 0.33217 0.70959 0.8812 0.0
H838 H 0.35712 0.67936 0.79011 0.0
H839 H 0.3548 0.67277 0.90638 0.0
Eu840 Eu 0.55251 0.08303 0.99618 0.0
C841 C 0.60956 0.01518 0.11433 0.0
N842 N 0.58458 1.00166 0.09048 0.0
C843 C 0.60002 0.95501 0.0837 0.0
C844 C 0.63096 0.9989 0.12377 0.0
C845 C 0.57934 0.97196 0.07533 0.0
C846 C 0.62598 0.96855 0.10798 0.0
C847 C 0.63935 0.05975 0.15449 0.0
C848 C 0.61396 0.0455 0.12896 0.0
C849 C 0.6607 0.04362 0.16395 0.0
C850 C 0.65661 0.01334 0.14849 0.0
Eu851 Eu 0.55251 0.03221 0.07435 0.0
N852 N 0.59316 0.06075 0.11874 0.0
C853 C 0.64233 0.08962 0.17022 0.0
C854 C 0.59528 0.08935 0.13547 0.0
C855 C 0.61993 0.10428 0.16097 0.0
H856 H 0.55932 0.96136 0.05649 0.0
H857 H 0.62138 0.127 0.17377 0.0
H858 H 0.54154 0.15186 0.01756 0.0
H859 H 0.49582 0.99795 0.88464 0.0
H860 H 0.57783 0.10084 0.13052 0.0
H861 H 0.66134 0.10123 0.19005 0.0
H862 H 0.54008 0.02806 0.92724 0.0
H863 H 0.59595 0.93154 0.07138 0.0
H864 H 0.68036 0.05431 0.18334 0.0
H865 H 0.67328 1.00117 0.15603 0.0
H866 H 0.50283 0.17987 0.00397 0.0
H867 H 0.64199 0.95535 0.11441 0.0
H868 H 0.44847 0.01528 0.87645 0.0
N869 N 0.51795 0.11196 0.98231 0.0
C870 C 0.49325 0.09814 0.95825 0.0
C871 C 0.49974 0.15679 0.99107 0.0
C872 C 0.47011 0.11282 0.95033 0.0
C873 C 0.52164 0.14093 0.99866 0.0
C874 C 0.47369 0.14256 0.96705 0.0
N875 N 0.51562 0.05741 0.94792 0.0
C876 C 0.51851 0.03382 0.9261 0.0
C877 C 0.46662 0.0548 0.91531 0.0
C878 C 0.49163 0.0696 0.94103 0.0
C879 C 0.46731 0.02752 0.89624 0.0
C880 C 0.49389 0.01756 0.90095 0.0
H881 H 0.45662 0.15481 0.96142 0.0
H882 H 0.42624 0.10835 0.91967 0.0
H883 H 0.42304 0.0573 0.88913 0.0
O884 O 0.59164 0.08532 0.97232 0.0
O885 O 0.50746 0.07192 0.01243 0.0
O886 O 0.52002 0.03197 0.02926 0.0
O887 O 0.57737 0.12667 0.9843 0.0
O888 O 0.55648 0.03289 0.98318 0.0
O889 O 0.5519 1.00276 0.02488 0.0
O890 O 0.52614 0.03298 0.11262 0.0
O891 O 0.59739 0.04076 0.05871 0.0
O892 O 0.58019 0.07687 0.0407 0.0
O893 O 0.52069 0.98908 0.08037 0.0
O894 O 0.54176 0.07943 0.08342 0.0
O895 O 0.5588 0.1127 0.04737 0.0
C896 C 0.50111 0.04915 0.02798 0.0
C897 C 0.59831 0.1205 0.93652 0.0
C898 C 0.62134 0.11192 0.88951 0.0
C899 C 0.61147 0.13561 0.87704 0.0
C900 C 0.58797 0.14406 0.92403 0.0
C901 C 0.59442 0.1514 0.89416 0.0
C902 C 0.61439 0.1041 0.9187 0.0
C903 C 0.55586 1.00679 0.99478 0.0
C904 C 0.595 0.11395 0.96896 0.0
C905 C 0.44446 0.09758 0.92583 0.0
C906 C 0.44258 0.06847 0.90852 0.0
C907 C 0.60079 0.06163 0.04077 0.0
C908 C 0.48971 0.98889 0.12259 0.0
C909 C 0.46401 0.99179 0.16856 0.0
C910 C 0.44759 0.96074 0.15839 0.0
C911 C 0.47352 0.95774 0.11262 0.0
C912 C 0.48456 1.00607 0.15029 0.0
C913 C 0.45236 0.94374 0.13045 0.0
C914 C 0.54768 0.10691 0.07425 0.0
C915 C 0.51221 1.00366 0.10454 0.0
H916 H 0.61751 0.14221 0.85455 0.0
H917 H 0.57556 0.15716 0.93754 0.0
H918 H 0.58696 0.16986 0.88474 0.0
H919 H 0.62315 0.08634 0.92838 0.0
H920 H 0.43261 0.94966 0.17348 0.0
H921 H 0.47747 0.94417 0.09137 0.0
H922 H 0.49785 0.02991 0.15891 0.0
H923 H 0.44074 0.91945 0.12308 0.0
Eu924 Eu 0.28539 0.25229 0.26775 0.0
C925 C 0.39584 0.3616 0.3368 0.0
N926 N 0.36906 0.3457 0.34475 0.0
C927 C 0.39599 0.34517 0.39766 0.0
C928 C 0.42399 0.36849 0.3587 0.0
C929 C 0.36855 0.33929 0.37542 0.0
C930 C 0.4239 0.35876 0.38878 0.0
C931 C 0.42236 0.38906 0.29866 0.0
C932 C 0.39527 0.3712 0.30662 0.0
C933 C 0.45033 0.39587 0.32052 0.0
C934 C 0.45126 0.38497 0.35005 0.0
Eu935 Eu 0.32504 0.33691 0.30417 0.0
N936 N 0.36828 0.36285 0.28495 0.0
C937 C 0.42058 0.39948 0.26883 0.0
C938 C 0.36623 0.37347 0.25621 0.0
C939 C 0.3923 0.39184 0.24762 0.0
H940 H 0.34725 0.33023 0.38334 0.0
H941 H 0.39048 0.40035 0.22484 0.0
H942 H 0.26258 0.26171 0.18986 0.0
H943 H 0.21836 0.19128 0.34826 0.0
H944 H 0.34428 0.36899 0.2406 0.0
H945 H 0.44084 0.41363 0.26207 0.0
H946 H 0.26522 0.22053 0.33209 0.0
H947 H 0.3956 0.33925 0.42165 0.0
H948 H 0.47147 0.40924 0.31466 0.0
H949 H 0.47327 0.38977 0.36615 0.0
H950 H 0.21406 0.25482 0.15246 0.0
H951 H 0.44522 0.36217 0.40557 0.0
H952 H 0.16799 0.18004 0.3116 0.0
N953 N 0.24092 0.24604 0.22842 0.0
C954 C 0.21402 0.23048 0.23649 0.0
C955 C 0.21375 0.24835 0.17623 0.0
C956 C 0.18575 0.22478 0.21506 0.0
C957 C 0.24128 0.25314 0.19799 0.0
C958 C 0.18586 0.23511 0.18529 0.0
N959 N 0.24177 0.22821 0.28815 0.0
C960 C 0.24336 0.21739 0.31681 0.0
C961 C 0.1871 0.20397 0.27495 0.0
C962 C 0.21456 0.22086 0.26673 0.0
C963 C 0.18854 0.19346 0.30469 0.0
C964 C 0.21685 0.2 0.32559 0.0
H965 H 0.16459 0.23281 0.16904 0.0
H966 H 0.13624 0.20534 0.20843 0.0
H967 H 0.1377 0.18558 0.25956 0.0
O968 O 0.28492 0.20636 0.2759 0.0
O969 O 0.25039 0.28078 0.27928 0.0
O970 O 0.27524 0.32686 0.31343 0.0
O971 O 0.27756 0.21515 0.22648 0.0
O972 O 0.30891 0.26075 0.3211 0.0
O973 O 0.30442 0.30851 0.34013 0.0
O974 O 0.31637 0.37817 0.28979 0.0
O975 O 0.36057 0.31173 0.28624 0.0
O976 O 0.33806 0.25941 0.26964 0.0
O977 O 0.33441 0.37835 0.34052 0.0
O978 O 0.29863 0.32614 0.252 0.0
O979 O 0.30782 0.28099 0.23292 0.0
C980 C 0.24954 0.30589 0.29876 0.0
C981 C 0.2928 0.17028 0.23474 0.0
C982 C 0.31237 0.12811 0.24839 0.0
C983 C 0.31 0.11696 0.21519 0.0
C984 C 0.29048 0.15922 0.20155 0.0
C985 C 0.29923 0.13266 0.19187 0.0
C986 C 0.30407 0.15481 0.25801 0.0
C987 C 0.30546 0.28078 0.34478 0.0
C988 C 0.27909 0.1947 0.24502 0.0
C989 C 0.1583 0.20916 0.224 0.0
C990 C 0.15906 0.19817 0.25344 0.0
C991 C 0.36278 0.28357 0.27584 0.0
C992 C 0.30704 0.41456 0.3288 0.0
C993 C 0.28743 0.45644 0.31551 0.0
C994 C 0.28242 0.46298 0.34736 0.0
C995 C 0.30179 0.42052 0.36075 0.0
C996 C 0.29902 0.43207 0.30611 0.0
C997 C 0.28921 0.44466 0.36986 0.0
C998 C 0.30471 0.30812 0.22843 0.0
C999 C 0.32504 0.3939 0.31929 0.0
H1000 H 0.31636 0.09614 0.20736 0.0
H1001 H 0.28111 0.17056 0.18313 0.0
H1002 H 0.2972 0.12397 0.16629 0.0
H1003 H 0.30612 0.16329 0.28374 0.0
H1004 H 0.27361 0.48233 0.35475 0.0
H1005 H 0.30824 0.40731 0.3788 0.0
H1006 H 0.30372 0.42814 0.28159 0.0
H1007 H 0.28555 0.44972 0.39453 0.0
Eu1008 Eu 0.56735 0.51152 0.03133 0.0
C1009 C 0.52461 0.61859 0.10432 0.0
N1010 N 0.50895 0.59702 0.07786 0.0
C1011 C 0.46166 0.59308 0.09753 0.0
C1012 C 0.5091 0.62822 0.12861 0.0
C1013 C 0.4779 0.5844 0.07395 0.0
C1014 C 0.4773 0.61504 0.125 0.0
C1015 C 0.57267 0.6546 0.13373 0.0
C1016 C 0.55621 0.6314 0.10699 0.0
C1017 C 0.55725 0.66412 0.15797 0.0
C1018 C 0.52559 0.6509 0.15546 0.0
Eu1019 Eu 0.53792 0.58576 0.03848 0.0
N1020 N 0.57066 0.62177 0.08313 0.0
C1021 C 0.60405 0.66813 0.13498 0.0
C1022 C 0.60088 0.63596 0.08357 0.0
C1023 C 0.61813 0.65896 0.10963 0.0
H1024 H 0.46545 0.56818 0.05228 0.0
H1025 H 0.64214 0.67005 0.10981 0.0
H1026 H 0.64026 0.53467 0.01765 0.0
H1027 H 0.47133 0.41568 0.96426 0.0
H1028 H 0.61158 0.63068 0.06339 0.0
H1029 H 0.6174 0.68617 0.15498 0.0
H1030 H 0.49996 0.45722 0.01037 0.0
H1031 H 0.43701 0.58308 0.09432 0.0
H1032 H 0.56955 0.68192 0.17862 0.0
H1033 H 0.514 0.65864 0.17428 0.0
H1034 H 0.66968 0.52432 0.97503 0.0
H1035 H 0.46457 0.62189 0.1431 0.0
H1036 H 0.49632 0.40418 0.91756 0.0
N1037 N 0.59797 0.50346 0.99196 0.0
C1038 C 0.58402 0.48082 0.96577 0.0
C1039 C 0.64547 0.51225 0.97188 0.0
C1040 C 0.60018 0.47374 0.94102 0.0
C1041 C 0.62853 0.51851 0.99577 0.0
C1042 C 0.63117 0.49003 0.94422 0.0
N1043 N 0.5385 0.47167 0.9881 0.0
C1044 C 0.51 0.4537 0.98916 0.0
C1045 C 0.53885 0.43981 0.93774 0.0
C1046 C 0.55365 0.46411 0.96407 0.0
C1047 C 0.50854 0.42287 0.93741 0.0
C1048 C 0.49424 0.42953 0.96354 0.0
H1049 H 0.64444 0.48514 0.92585 0.0
H1050 H 0.59719 0.44481 0.89487 0.0
H1051 H 0.54342 0.41519 0.89194 0.0
O1052 O 0.55503 0.47371 0.05904 0.0
O1053 O 0.55149 0.52523 0.98277 0.0
O1054 O 0.51689 0.55376 0.9904 0.0
O1055 O 0.60019 0.48643 0.04414 0.0
O1056 O 0.52172 0.50788 0.04898 0.0
O1057 O 0.49888 0.54183 0.02568 0.0
O1058 O 0.55322 0.62674 0.01595 0.0
O1059 O 0.54703 0.56631 0.08536 0.0
O1060 O 0.58753 0.5468 0.07787 0.0
O1061 O 0.50529 0.61045 0.02295 0.0
O1062 O 0.57967 0.585 0.01536 0.0
O1063 O 0.60486 0.5567 0.04408 0.0
C1064 C 0.53033 0.53823 0.97145 0.0
C1065 C 0.59101 0.44331 0.07199 0.0
C1066 C 0.58244 0.40177 0.10305 0.0
C1067 C 0.60958 0.39525 0.09592 0.0
C1068 C 0.61821 0.43668 0.06539 0.0
C1069 C 0.62732 0.41267 0.07723 0.0
C1070 C 0.57285 0.42561 0.09064 0.0
C1071 C 0.49739 0.51722 0.03919 0.0
C1072 C 0.58149 0.46784 0.05793 0.0
C1073 C 0.58517 0.45033 0.91422 0.0
C1074 C 0.55458 0.43341 0.91258 0.0
C1075 C 0.57089 0.5572 0.09724 0.0
C1076 C 0.51724 0.65572 0.99834 0.0
C1077 C 0.52487 0.69422 0.96329 0.0
C1078 C 0.49769 0.70113 0.96969 0.0
C1079 C 0.49016 0.66294 0.00435 0.0
C1080 C 0.53501 0.67175 0.97811 0.0
C1081 C 0.48056 0.68563 0.99019 0.0
C1082 C 0.60518 0.57868 0.02683 0.0
C1083 C 0.52558 0.63057 0.01238 0.0
H1084 H 0.61708 0.37658 0.10486 0.0
H1085 H 0.63235 0.44981 0.05073 0.0
H1086 H 0.64819 0.40754 0.07188 0.0
H1087 H 0.5518 0.43057 0.09587 0.0
H1088 H 0.48987 0.71887 0.95904 0.0
H1089 H 0.47628 0.65098 0.02001 0.0
H1090 H 0.55598 0.66635 0.9733 0.0
H1091 H 0.45972 0.69116 0.99504 0.0
Eu1092 Eu 0.80834 0.34271 0.26718 0.0
C1093 C 0.74464 0.22966 0.34556 0.0
N1094 N 0.77166 0.25271 0.35366 0.0
C1095 C 0.76454 0.2609 0.40911 0.0
C1096 C 0.72598 0.22253 0.36901 0.0
C1097 C 0.7824 0.2672 0.3853 0.0
C1098 C 0.73603 0.23884 0.40086 0.0
C1099 C 0.70885 0.18708 0.30614 0.0
C1100 C 0.73623 0.21162 0.31433 0.0
C1101 C 0.68979 0.18114 0.32913 0.0
C1102 C 0.6984 0.19866 0.36047 0.0
Eu1103 Eu 0.79957 0.25873 0.31077 0.0
N1104 N 0.75512 0.21728 0.29229 0.0
C1105 C 0.70169 0.16867 0.27522 0.0
C1106 C 0.74955 0.19774 0.26334 0.0
C1107 C 0.72238 0.17378 0.25389 0.0
H1108 H 0.80512 0.283 0.39298 0.0
H1109 H 0.71779 0.15881 0.23052 0.0
H1110 H 0.80321 0.32372 0.1837 0.0
H1111 H 0.89252 0.43962 0.35008 0.0
H1112 H 0.76641 0.19977 0.24797 0.0
H1113 H 0.68081 0.14977 0.26802 0.0
H1114 H 0.84284 0.40066 0.33059 0.0
H1115 H 0.77306 0.2727 0.434 0.0
H1116 H 0.66867 0.16248 0.32316 0.0
H1117 H 0.68382 0.19311 0.3782 0.0
H1118 H 0.83669 0.33327 0.14394 0.0
H1119 H 0.72243 0.23382 0.41953 0.0
H1120 H 0.93075 0.44791 0.31388 0.0
N1121 N 0.83764 0.34973 0.22476 0.0
C1122 C 0.86562 0.37132 0.23391 0.0
C1123 C 0.84538 0.34357 0.16927 0.0
C1124 C 0.88502 0.3785 0.21104 0.0
C1125 C 0.8267 0.33753 0.19242 0.0
C1126 C 0.87487 0.36367 0.1787 0.0
N1127 N 0.85453 0.38267 0.28693 0.0
C1128 C 0.86022 0.40192 0.31607 0.0
C1129 C 0.90226 0.41191 0.27473 0.0
C1130 C 0.87415 0.38826 0.26554 0.0
C1131 C 0.9094 0.42966 0.30596 0.0
C1132 C 0.88803 0.42494 0.32654 0.0
H1133 H 0.88908 0.36868 0.16051 0.0
H1134 H 0.92846 0.40678 0.20333 0.0
H1135 H 0.94363 0.43576 0.25909 0.0
O1136 O 0.7945 0.38457 0.28385 0.0
O1137 O 0.8553 0.33541 0.29124 0.0
O1138 O 0.84847 0.28479 0.30289 0.0
O1139 O 0.78471 0.36231 0.2321 0.0
O1140 O 0.79365 0.3229 0.31007 0.0
O1141 O 0.81733 0.30176 0.34701 0.0
O1142 O 0.81698 0.21959 0.29271 0.0
O1143 O 0.75216 0.2645 0.28643 0.0
O1144 O 0.75776 0.31332 0.26989 0.0
O1145 O 0.8245 0.23957 0.34511 0.0
O1146 O 0.80819 0.28537 0.27234 0.0
O1147 O 0.79453 0.3017 0.22853 0.0
C1148 C 0.86626 0.31202 0.29901 0.0
C1149 C 0.76973 0.40827 0.24263 0.0
C1150 C 0.74208 0.4462 0.25217 0.0
C1151 C 0.73971 0.44946 0.21928 0.0
C1152 C 0.76744 0.41166 0.20981 0.0
C1153 C 0.7525 0.4323 0.19825 0.0
C1154 C 0.75753 0.4259 0.26399 0.0
C1155 C 0.81215 0.32616 0.33739 0.0
C1156 C 0.78318 0.38491 0.25361 0.0
C1157 C 0.91337 0.40122 0.22062 0.0
C1158 C 0.92199 0.41779 0.25235 0.0
C1159 C 0.74031 0.28627 0.27537 0.0
C1160 C 0.84616 0.19795 0.33293 0.0
C1161 C 0.87108 0.15809 0.3207 0.0
C1162 C 0.8813 0.15973 0.35404 0.0
C1163 C 0.85631 0.19928 0.36637 0.0
C1164 C 0.85347 0.17714 0.30996 0.0
C1165 C 0.87383 0.18025 0.37679 0.0
C1166 C 0.79772 0.27872 0.2417 0.0
C1167 C 0.82898 0.2192 0.32284 0.0
H1168 H 0.7279 0.46529 0.20989 0.0
H1169 H 0.77691 0.39816 0.19298 0.0
H1170 H 0.75058 0.43476 0.17293 0.0
H1171 H 0.75885 0.42293 0.28922 0.0
H1172 H 0.8947 0.14472 0.36241 0.0
H1173 H 0.85087 0.21515 0.38462 0.0
H1174 H 0.84563 0.1757 0.28413 0.0
H1175 H 0.88154 0.18135 0.40251 0.0
Eu1176 Eu 0.04893 0.58106 0.49651 0.0
C1177 C 0.11241 0.51521 0.61607 0.0
N1178 N 0.08831 0.50219 0.59125 0.0
C1179 C 0.10319 0.45509 0.58566 0.0
C1180 C 0.13327 0.49862 0.62644 0.0
C1181 C 0.08311 0.47237 0.57649 0.0
C1182 C 0.12854 0.46834 0.61063 0.0
C1183 C 0.14118 0.55918 0.65725 0.0
C1184 C 0.11647 0.54525 0.63081 0.0
C1185 C 0.16191 0.54276 0.6677 0.0
C1186 C 0.15806 0.51259 0.65219 0.0
Eu1187 Eu 0.05525 0.53198 0.5747 0.0
N1188 N 0.09635 0.56076 0.61948 0.0
C1189 C 0.1443 0.58913 0.67269 0.0
C1190 C 0.09941 0.59008 0.63527 0.0
C1191 C 0.12315 0.60451 0.66179 0.0
H1192 H 0.06264 0.46158 0.55855 0.0
H1193 H 0.12505 0.62761 0.6739 0.0
H1194 H 0.03755 0.64979 0.51745 0.0
H1195 H 0.98612 0.49033 0.38975 0.0
H1196 H 0.08385 0.60315 0.62856 0.0
H1197 H 0.16274 0.60045 0.69319 0.0
H1198 H 0.02802 0.51579 0.43425 0.0
H1199 H 0.09885 0.43143 0.57375 0.0
H1200 H 0.18097 0.55319 0.68781 0.0
H1201 H 0.17426 0.50017 0.66046 0.0
H1202 H 1.00007 0.67852 0.50276 0.0
H1203 H 0.14407 0.45488 0.61784 0.0
H1204 H 0.94425 0.51413 0.37513 0.0
N1205 N 0.01408 0.60976 0.48215 0.0
C1206 C 0.99021 0.59667 0.45707 0.0
C1207 C 0.99681 0.6554 0.4899 0.0
C1208 C 0.96817 0.61237 0.44782 0.0
C1209 C 0.01783 0.63886 0.4984 0.0
C1210 C 0.97172 0.642 0.46467 0.0
N1211 N 1.01042 0.55391 0.449 0.0
C1212 C 1.01009 0.52673 0.43018 0.0
C1213 C 0.96382 0.55412 0.41321 0.0
C1214 C 0.9883 0.56802 0.43993 0.0
C1215 C 0.9627 0.52555 0.39559 0.0
C1216 C 0.98618 0.51204 0.40388 0.0
H1217 H 0.95543 0.65489 0.45812 0.0
H1218 H 0.92637 0.61002 0.4146 0.0
H1219 H 0.92238 0.55874 0.38444 0.0
O1220 O 0.08917 0.58413 0.47373 0.0
O1221 O 0.01373 0.56266 0.52493 0.0
O1222 O 0.0143 0.5152 0.53418 0.0
O1223 O 0.06836 0.62233 0.47785 0.0
O1224 O 0.05758 0.53288 0.4838 0.0
O1225 O 0.05443 0.50271 0.52519 0.0
O1226 O 0.01848 0.53404 0.60137 0.0
O1227 O 0.08772 0.54942 0.54369 0.0
O1228 O 0.08891 0.59754 0.53754 0.0
O1229 O 0.03373 0.49147 0.59422 0.0
O1230 O 0.04536 0.57874 0.58612 0.0
O1231 O 0.04942 0.61044 0.54637 0.0
C1232 C 1.00025 0.53358 0.52117 0.0
C1233 C 0.0943 0.61659 0.43406 0.0
C1234 C 0.12032 0.60819 0.38924 0.0
C1235 C 0.11194 0.63248 0.37645 0.0
C1236 C 0.08586 0.64095 0.42117 0.0
C1237 C 0.0945 0.64865 0.3923 0.0
C1238 C 0.11118 0.59992 0.41761 0.0
C1239 C 0.05746 0.50664 0.49481 0.0
C1240 C 0.08921 0.61127 0.46649 0.0
C1241 C 0.94359 0.59835 0.42183 0.0
C1242 C 0.94133 0.56921 0.40465 0.0
C1243 C 0.10262 0.57802 0.5481 0.0
C1244 C 0.99173 0.49075 0.62297 0.0
C1245 C 0.96444 0.49463 0.66727 0.0
C1246 C 0.94955 0.46292 0.65909 0.0
C1247 C 0.97749 0.45893 0.61503 0.0
C1248 C 0.98484 0.50867 0.64873 0.0
C1249 C 0.95603 0.44513 0.63286 0.0
C1250 C 0.0454 0.60521 0.57611 0.0
C1251 C 0.01462 0.50537 0.60537 0.0
H1252 H 0.11949 0.6393 0.35463 0.0
H1253 H 0.07335 0.6546 0.4338 0.0
H1254 H 0.0884 0.66768 0.38271 0.0
H1255 H 0.11875 0.58173 0.4277 0.0
H1256 H 0.93429 0.45174 0.67406 0.0
H1257 H 0.983 0.44485 0.59519 0.0
H1258 H 0.99699 0.53304 0.65587 0.0
H1259 H 0.94522 0.42054 0.62703 0.0
Eu1260 Eu 0.84145 0.78385 0.29389 0.0
C1261 C 0.73516 0.82679 0.21964 0.0
N1262 N 0.75729 0.84211 0.24585 0.0
C1263 C 0.76268 0.88936 0.2252 0.0
C1264 C 0.72585 0.84249 0.19507 0.0
C1265 C 0.77093 0.87296 0.24914 0.0
C1266 C 0.74004 0.87409 0.19806 0.0
C1267 C 0.69815 0.77912 0.19074 0.0
C1268 C 0.7217 0.79527 0.21735 0.0
C1269 C 0.68874 0.79481 0.16637 0.0
C1270 C 0.70262 0.82636 0.16847 0.0
Eu1271 Eu 0.76777 0.81294 0.28575 0.0
N1272 N 0.73135 0.78054 0.24126 0.0
C1273 C 0.68432 0.74776 0.18966 0.0
C1274 C 0.717 0.7503 0.24094 0.0
C1275 C 0.69365 0.73336 0.215 0.0
H1276 H 0.78756 0.88519 0.27063 0.0
H1277 H 0.68243 0.70934 0.21488 0.0
H1278 H 0.82071 0.71127 0.30897 0.0
H1279 H 0.93003 0.88552 0.36402 0.0
H1280 H 0.72252 0.73935 0.26108 0.0
H1281 H 0.66604 0.73463 0.16974 0.0
H1282 H 0.88877 0.85644 0.31828 0.0
H1283 H 0.77349 0.91386 0.2279 0.0
H1284 H 0.67063 0.78276 0.14584 0.0
H1285 H 0.69507 0.83813 0.14947 0.0
H1286 H 0.83382 0.68234 0.35168 0.0
H1287 H 0.7335 0.88697 0.17968 0.0
H1288 H 0.94593 0.85969 0.40893 0.0
N1289 N 0.85135 0.75416 0.33383 0.0
C1290 C 0.87399 0.76896 0.35983 0.0
C1291 C 0.84505 0.70675 0.35444 0.0
C1292 C 0.88271 0.75304 0.3845 0.0
C1293 C 0.83726 0.72338 0.33052 0.0
C1294 C 0.86777 0.72165 0.38161 0.0
N1295 N 0.87929 0.81517 0.33802 0.0
C1296 C 0.89437 0.84521 0.33823 0.0
C1297 C 0.91269 0.81577 0.38816 0.0
C1298 C 0.88866 0.80012 0.36176 0.0
C1299 C 0.92742 0.84691 0.38907 0.0
C1300 C 0.91833 0.86162 0.36388 0.0
H1301 H 0.87389 0.70861 0.4 0.0
H1302 H 0.91315 0.75684 0.43019 0.0
H1303 H 0.93943 0.81171 0.43337 0.0
O1304 O 0.88089 0.79745 0.26896 0.0
O1305 O 0.8267 0.79814 0.34207 0.0
O1306 O 0.80069 0.83451 0.33308 0.0
O1307 O 0.86617 0.75089 0.28064 0.0
O1308 O 0.84312 0.82749 0.27253 0.0
O1309 O 0.81239 0.85131 0.29892 0.0
O1310 O 0.72727 0.79805 0.30899 0.0
O1311 O 0.78573 0.80272 0.23854 0.0
O1312 O 0.8063 0.76282 0.24711 0.0
O1313 O 0.74297 0.84548 0.29975 0.0
O1314 O 0.76776 0.77078 0.30895 0.0
O1315 O 0.79675 0.7456 0.28188 0.0
C1316 C 0.81446 0.82002 0.35272 0.0
C1317 C 0.9106 0.76115 0.25525 0.0
C1318 C 0.95167 0.76952 0.22392 0.0
C1319 C 0.95793 0.74211 0.23108 0.0
C1320 C 0.91707 0.73375 0.26191 0.0
C1321 C 0.9407 0.7244 0.24995 0.0
C1322 C 0.92819 0.77935 0.23649 0.0
C1323 C 0.83523 0.85237 0.28303 0.0
C1324 C 0.88576 0.77033 0.26861 0.0
C1325 C 0.90621 0.76874 0.41104 0.0
C1326 C 0.9212 0.79998 0.41283 0.0
C1327 C 0.79503 0.77895 0.22733 0.0
C1328 C 0.69788 0.83438 0.32393 0.0
C1329 C 0.65826 0.82782 0.35716 0.0
C1330 C 0.6511 0.85428 0.34825 0.0
C1331 C 0.69049 0.8609 0.31565 0.0
C1332 C 0.68144 0.8174 0.34453 0.0
C1333 C 0.66714 0.87067 0.32767 0.0
C1334 C 0.77447 0.74531 0.29844 0.0
C1335 C 0.72303 0.82552 0.31091 0.0
H1336 H 0.97633 0.73441 0.22211 0.0
H1337 H 0.90401 0.71956 0.2766 0.0
H1338 H 0.94567 0.70334 0.2553 0.0
H1339 H 0.9233 0.80051 0.23116 0.0
H1340 H 0.6329 0.86231 0.3573 0.0
H1341 H 0.7027 0.87415 0.29966 0.0
H1342 H 0.687 0.79693 0.35119 0.0
H1343 H 0.6615 0.89105 0.32107 0.0
Eu1344 Eu 0.77704 0.30461 0.83259 0.0
C1345 C 0.84155 0.24088 0.71582 0.0
N1346 N 0.8552 0.26498 0.74038 0.0
C1347 C 0.90128 0.24834 0.74669 0.0
C1348 C 0.8571 0.21897 0.70617 0.0
C1349 C 0.88491 0.26935 0.75536 0.0
C1350 C 0.88719 0.22281 0.72224 0.0
C1351 C 0.7988 0.21553 0.67173 0.0
C1352 C 0.81295 0.23939 0.69882 0.0
C1353 C 0.8134 0.19273 0.66314 0.0
C1354 C 0.84261 0.19455 0.68023 0.0
Eu1355 Eu 0.82638 0.29911 0.75627 0.0
N1356 N 0.79998 0.26242 0.7073 0.0
C1357 C 0.77099 0.21593 0.65329 0.0
C1358 C 0.77469 0.26456 0.68673 0.0
C1359 C 0.75924 0.24095 0.66042 0.0
H1360 H 0.89632 0.28952 0.77359 0.0
H1361 H 0.7387 0.24254 0.6451 0.0
H1362 H 0.70757 0.31451 0.80904 0.0
H1363 H 0.87137 0.37571 0.93211 0.0
H1364 H 0.76649 0.28474 0.68922 0.0
H1365 H 0.75932 0.19797 0.63254 0.0
H1366 H 0.84862 0.33565 0.88528 0.0
H1367 H 0.92483 0.25199 0.75875 0.0
H1368 H 0.80278 0.1742 0.64263 0.0
H1369 H 0.85414 0.1774 0.67269 0.0
H1370 H 0.67745 0.35049 0.82336 0.0
H1371 H 0.89999 0.20663 0.71541 0.0
H1372 H 0.8424 0.4113 0.95152 0.0
N1373 N 0.74682 0.33804 0.8456 0.0
C1374 C 0.75913 0.36158 0.87111 0.0
C1375 C 0.70045 0.354 0.83688 0.0
C1376 C 0.74232 0.3824 0.8805 0.0
C1377 C 0.71783 0.33389 0.82855 0.0
C1378 C 0.71276 0.37841 0.86292 0.0
N1379 N 0.80489 0.3456 0.87708 0.0
C1380 C 0.83447 0.34961 0.89294 0.0
C1381 C 0.80175 0.38945 0.91461 0.0
C1382 C 0.7886 0.36505 0.88779 0.0
C1383 C 0.83164 0.39298 0.93084 0.0
C1384 C 0.84803 0.37298 0.91992 0.0
H1385 H 0.69918 0.39392 0.86939 0.0
H1386 H 0.74274 0.42266 0.91454 0.0
H1387 H 0.79478 0.42875 0.94455 0.0
O1388 O 0.77872 0.27001 0.86328 0.0
O1389 O 0.79167 0.34483 0.80906 0.0
O1390 O 0.83724 0.33766 0.79912 0.0
O1391 O 0.73758 0.28723 0.8553 0.0
O1392 O 0.82485 0.29515 0.84481 0.0
O1393 O 0.85568 0.29577 0.80479 0.0
O1394 O 0.82732 0.33849 0.73309 0.0
O1395 O 0.80646 0.26461 0.78448 0.0
O1396 O 0.75916 0.26394 0.79255 0.0
O1397 O 0.86896 0.32361 0.7427 0.0
O1398 O 0.77794 0.30616 0.74263 0.0
O1399 O 0.74668 0.30136 0.7823 0.0
C1400 C 0.81861 0.35508 0.80193 0.0
C1401 C 0.73672 0.24889 0.88982 0.0
C1402 C 0.74091 0.22413 0.93681 0.0
C1403 C 0.70868 0.21213 0.93095 0.0
C1404 C 0.70456 0.23714 0.88421 0.0
C1405 C 0.69062 0.21852 0.9046 0.0
C1406 C 0.75497 0.24204 0.91587 0.0
C1407 C 0.85097 0.29327 0.83497 0.0
C1408 C 0.75115 0.26898 0.8691 0.0
C1409 C 0.75537 0.40652 0.90704 0.0
C1410 C 0.78496 0.40995 0.92414 0.0
C1411 C 0.77741 0.25113 0.77836 0.0
C1412 C 0.86447 0.3521 0.70023 0.0
C1413 C 0.85416 0.3761 0.65395 0.0
C1414 C 0.88399 0.37789 0.6479 0.0
C1415 C 0.89429 0.35379 0.69411 0.0
C1416 C 0.84419 0.36292 0.67967 0.0
C1417 C 0.90393 0.36658 0.66787 0.0
C1418 C 0.75139 0.30534 0.75248 0.0
C1419 C 0.85621 0.34314 0.73032 0.0
H1420 H 0.69754 0.19769 0.94669 0.0
H1421 H 0.69028 0.24226 0.864 0.0
H1422 H 0.66582 0.2092 0.90012 0.0
H1423 H 0.77987 0.25134 0.92047 0.0
H1424 H 0.89168 0.38793 0.62759 0.0
H1425 H 0.91042 0.34599 0.71009 0.0
H1426 H 0.82117 0.36218 0.68412 0.0
H1427 H 0.92696 0.36814 0.66329 0.0
Eu1428 Eu 0.78766 0.7544 0.76714 0.0
C1429 C 0.89464 0.86332 0.83707 0.0
N1430 N 0.86821 0.84783 0.84586 0.0
C1431 C 0.89606 0.84717 0.89815 0.0
C1432 C 0.92311 0.87025 0.85833 0.0
C1433 C 0.86826 0.84123 0.87648 0.0
C1434 C 0.92364 0.86066 0.88853 0.0
C1435 C 0.9201 0.88907 0.79738 0.0
C1436 C 0.89337 0.87145 0.80623 0.0
C1437 C 0.94846 0.89621 0.81869 0.0
C1438 C 0.95008 0.88608 0.84865 0.0
Eu1439 Eu 0.8237 0.83626 0.80577 0.0
N1440 N 0.866 0.86256 0.7851 0.0
C1441 C 0.91753 0.89915 0.76741 0.0
C1442 C 0.86307 0.8737 0.75669 0.0
C1443 C 0.88875 0.89183 0.74721 0.0
H1444 H 0.8471 0.83135 0.88438 0.0
H1445 H 0.88622 0.90052 0.72457 0.0
H1446 H 0.76372 0.76135 0.68938 0.0
H1447 H 0.72354 0.68831 0.84661 0.0
H1448 H 0.84081 0.87011 0.74208 0.0
H1449 H 0.93748 0.91313 0.75998 0.0
H1450 H 0.76977 0.71684 0.82867 0.0
H1451 H 0.89622 0.84098 0.92207 0.0
H1452 H 0.96935 0.90926 0.81208 0.0
H1453 H 0.97237 0.8909 0.86418 0.0
H1454 H 0.71459 0.75386 0.6523 0.0
H1455 H 0.94524 0.86354 0.90458 0.0
H1456 H 0.67212 0.67923 0.81259 0.0
N1457 N 0.74255 0.74456 0.72767 0.0
C1458 C 0.71593 0.72934 0.73629 0.0
C1459 C 0.71468 0.74715 0.67599 0.0
C1460 C 0.68737 0.72383 0.71547 0.0
C1461 C 0.74248 0.75197 0.69736 0.0
C1462 C 0.687 0.73402 0.68559 0.0
N1463 N 0.74495 0.72663 0.78669 0.0
C1464 C 0.74753 0.7145 0.81451 0.0
C1465 C 0.69009 0.70326 0.77546 0.0
C1466 C 0.71722 0.71994 0.76644 0.0
C1467 C 0.69241 0.69232 0.80494 0.0
C1468 C 0.72134 0.69758 0.82431 0.0
H1469 H 0.66552 0.73189 0.66979 0.0
H1470 H 0.63789 0.70498 0.71012 0.0
H1471 H 0.64046 0.68557 0.76159 0.0
O1472 O 0.80119 0.71368 0.77754 0.0
O1473 O 0.7519 0.7837 0.77347 0.0
O1474 O 0.77498 0.82084 0.81813 0.0
O1475 O 0.78042 0.71587 0.72769 0.0
O1476 O 0.80884 0.76185 0.82169 0.0
O1477 O 0.8026 0.8085 0.84162 0.0
O1478 O 0.81097 0.87564 0.79035 0.0
O1479 O 0.86093 0.80849 0.79936 0.0
O1480 O 0.83753 0.76937 0.75673 0.0
O1481 O 0.83207 0.87839 0.8408 0.0
O1482 O 0.7992 0.82717 0.75253 0.0
O1483 O 0.80983 0.78317 0.73315 0.0
C1484 C 0.7496 0.80393 0.79822 0.0
C1485 C 0.79556 0.66994 0.73549 0.0
C1486 C 0.80715 0.62343 0.74864 0.0
C1487 C 0.7993 0.61037 0.71528 0.0
C1488 C 0.7884 0.65715 0.70231 0.0
C1489 C 0.79058 0.62745 0.69227 0.0
C1490 C 0.80596 0.6536 0.75819 0.0
C1491 C 0.80422 0.78082 0.84571 0.0
C1492 C 0.79272 0.70044 0.74698 0.0
C1493 C 0.66018 0.70867 0.72523 0.0
C1494 C 0.66159 0.6979 0.75482 0.0
C1495 C 0.86315 0.78685 0.77599 0.0
C1496 C 0.80396 0.91421 0.82908 0.0
C1497 C 0.78745 0.95844 0.81719 0.0
C1498 C 0.78276 0.96473 0.84923 0.0
C1499 C 0.79892 0.92008 0.86109 0.0
C1500 C 0.79738 0.93295 0.80701 0.0
C1501 C 0.7881 0.94527 0.87101 0.0
C1502 C 0.80541 0.80962 0.72866 0.0
C1503 C 0.8209 0.89259 0.8192 0.0
H1504 H 0.7995 0.58695 0.70676 0.0
H1505 H 0.78104 0.66994 0.68425 0.0
H1506 H 0.78495 0.61743 0.66668 0.0
H1507 H 0.81338 0.66475 0.78341 0.0
H1508 H 0.7751 0.9847 0.85733 0.0
H1509 H 0.80428 0.90594 0.87862 0.0
H1510 H 0.80193 0.92897 0.78245 0.0
H1511 H 0.78465 0.9502 0.89577 0.0
Eu1512 Eu 0.59748 0.56655 0.55818 0.0
C1513 C 0.4833 0.46205 0.48754 0.0
N1514 N 0.50099 0.48781 0.47931 0.0
C1515 C 0.49406 0.46176 0.42456 0.0
C1516 C 0.471 0.43476 0.46448 0.0
C1517 C 0.50609 0.48823 0.44826 0.0
C1518 C 0.47672 0.43494 0.43284 0.0
C1519 C 0.45751 0.43706 0.5275 0.0
C1520 C 0.47655 0.46324 0.51883 0.0
C1521 C 0.4462 0.40955 0.50484 0.0
C1522 C 0.45283 0.40845 0.47344 0.0
Eu1523 Eu 0.51655 0.53174 0.52016 0.0
N1524 N 0.48734 0.49028 0.54025 0.0
C1525 C 0.44949 0.43958 0.55833 0.0
C1526 C 0.47729 0.49353 0.56909 0.0
C1527 C 0.45901 0.46811 0.57902 0.0
H1528 H 0.5184 0.50912 0.44124 0.0
H1529 H 0.45161 0.47075 0.60223 0.0
H1530 H 0.59073 0.5906 0.63525 0.0
H1531 H 0.66064 0.62972 0.47594 0.0
H1532 H 0.48204 0.51587 0.58394 0.0
H1533 H 0.43489 0.41998 0.56584 0.0
H1534 H 0.63212 0.58387 0.49439 0.0
H1535 H 0.49787 0.46214 0.39986 0.0
H1536 H 0.43167 0.38917 0.51111 0.0
H1537 H 0.44333 0.38719 0.45622 0.0
H1538 H 0.60188 0.63976 0.67302 0.0
H1539 H 0.46735 0.41469 0.41449 0.0
H1540 H 0.67261 0.68103 0.51058 0.0
N1541 N 0.60815 0.61158 0.59706 0.0
C1542 C 0.62407 0.6379 0.58822 0.0
C1543 C 0.60798 0.63951 0.64914 0.0
C1544 C 0.6316 0.66637 0.60943 0.0
C1545 C 0.60117 0.61176 0.62744 0.0
C1546 C 0.62253 0.66695 0.63973 0.0
N1547 N 0.62405 0.60887 0.53699 0.0
C1548 C 0.63509 0.60611 0.50866 0.0
C1549 C 0.64953 0.66336 0.54837 0.0
C1550 C 0.63228 0.63648 0.55754 0.0
C1551 C 0.65915 0.66093 0.51834 0.0
C1552 C 0.65223 0.63208 0.49861 0.0
H1553 H 0.62655 0.68845 0.65597 0.0
H1554 H 0.65322 0.7155 0.61531 0.0
H1555 H 0.66996 0.71264 0.56273 0.0
O1556 O 0.63895 0.55616 0.54738 0.0
O1557 O 0.56824 0.60337 0.55314 0.0
O1558 O 0.53297 0.58041 0.50756 0.0
O1559 O 0.63634 0.57303 0.59801 0.0
O1560 O 0.58997 0.54396 0.50429 0.0
O1561 O 0.54462 0.55239 0.48461 0.0
O1562 O 0.47909 0.54942 0.5346 0.0
O1563 O 0.54173 0.49228 0.52744 0.0
O1564 O 0.58443 0.51559 0.56684 0.0
O1565 O 0.47687 0.52779 0.48385 0.0
O1566 O 0.52616 0.55515 0.57356 0.0
O1567 O 0.56967 0.54326 0.59256 0.0
C1568 C 0.54767 0.60584 0.52841 0.0
C1569 C 0.68356 0.56147 0.58799 0.0
C1570 C 0.72541 0.54254 0.57351 0.0
C1571 C 0.73863 0.54675 0.60648 0.0
C1572 C 0.69687 0.56632 0.62105 0.0
C1573 C 0.72458 0.55918 0.6302 0.0
C1574 C 0.69841 0.55047 0.56433 0.0
C1575 C 0.57139 0.54909 0.48011 0.0
C1576 C 0.65245 0.56352 0.57787 0.0
C1577 C 0.64768 0.69328 0.59971 0.0
C1578 C 0.657 0.69172 0.56952 0.0
C1579 C 0.56518 0.48996 0.54909 0.0
C1580 C 0.43536 0.54807 0.49382 0.0
C1581 C 0.38967 0.55936 0.50702 0.0
C1582 C 0.38115 0.56369 0.47497 0.0
C1583 C 0.42707 0.55211 0.46167 0.0
C1584 C 0.41681 0.55185 0.51647 0.0
C1585 C 0.39993 0.56003 0.45232 0.0
C1586 C 0.54331 0.5476 0.59702 0.0
C1587 C 0.46431 0.542 0.50449 0.0
H1588 H 0.75939 0.53998 0.61375 0.0
H1589 H 0.68542 0.57456 0.63972 0.0
H1590 H 0.73464 0.56235 0.65568 0.0
H1591 H 0.68794 0.5459 0.53874 0.0
H1592 H 0.36025 0.57023 0.46766 0.0
H1593 H 0.4418 0.54973 0.44407 0.0
H1594 H 0.42338 0.54889 0.5414 0.0
H1595 H 0.39357 0.56353 0.42768 0.0
Eu1596 Eu 1.00928 0.54183 0.06152 0.0
C1597 C 0.12011 0.60423 0.98269 0.0
N1598 N 0.09776 0.57673 0.97397 0.0
C1599 C 0.08832 0.58583 0.91917 0.0
C1600 C 0.12619 0.62417 0.95997 0.0
C1601 C 0.08293 0.56681 0.94235 0.0
C1602 C 0.10964 0.6148 0.92811 0.0
C1603 C 0.162 0.64003 0.02286 0.0
C1604 C 0.13831 0.612 0.01386 0.0
C1605 C 0.16685 0.66038 0.00069 0.0
C1606 C 0.14916 0.65239 0.96931 0.0
Eu1607 Eu 0.09095 0.54784 0.0164 0.0
N1608 N 0.13359 0.59181 0.03499 0.0
C1609 C 0.18081 0.64644 0.05362 0.0
C1610 C 0.15383 0.59666 0.06353 0.0
C1611 C 0.17707 0.62436 0.07379 0.0
H1612 H 0.06733 0.54401 0.93436 0.0
H1613 H 0.1925 0.62837 0.09693 0.0
H1614 H 0.03128 0.54613 0.14463 0.0
H1615 H 0.90815 0.46215 0.98127 0.0
H1616 H 0.15282 0.57891 0.07805 0.0
H1617 H 0.19913 0.66776 0.06143 0.0
H1618 H 0.94996 0.51056 -0.00051 0.0
H1619 H 0.07624 0.57797 0.89426 0.0
H1620 H 0.18486 0.682 0.00727 0.0
H1621 H 0.15388 0.66797 0.95217 0.0
H1622 H 0.02205 0.51244 0.18458 0.0
H1623 H 0.11385 0.62938 0.90995 0.0
H1624 H 0.89997 0.42328 0.0173 0.0
N1625 N 1.00307 0.51251 0.10407 0.0
C1626 C 0.98061 0.4851 0.09534 0.0
C1627 C 1.0108 0.50416 0.15943 0.0
C1628 C 0.97383 0.46552 0.11828 0.0
C1629 C 0.01662 0.52295 0.13615 0.0
C1630 C 0.98982 0.47507 0.15035 0.0
N1631 N 0.96794 0.49719 0.04268 0.0
C1632 C 0.94791 0.49277 0.01412 0.0
C1633 C 0.93798 0.45002 0.05544 0.0
C1634 C 0.9625 0.47741 0.06413 0.0
C1635 C 0.919 0.44404 0.02481 0.0
C1636 C 0.92364 0.46581 0.0043 0.0
H1637 H 0.98509 0.46075 0.16862 0.0
H1638 H 0.94514 0.42235 0.12637 0.0
H1639 H 0.91403 0.40869 0.07136 0.0
O1640 O 0.96889 0.5584 0.04429 0.0
O1641 O 0.01493 0.49343 0.03802 0.0
O1642 O 0.06431 0.49854 0.02435 0.0
O1643 O 0.9892 0.56433 0.09633 0.0
O1644 O 0.02813 0.55407 0.01754 0.0
O1645 O 0.04788 0.53071 0.98003 0.0
O1646 O 0.13117 0.53144 0.03319 0.0
O1647 O 0.08394 0.59631 0.03702 0.0
O1648 O 0.03929 0.59258 0.06084 0.0
O1649 O 0.10499 0.51729 0.98301 0.0
O1650 O 0.06566 0.53948 0.05574 0.0
O1651 O 0.05118 0.55656 0.09929 0.0
C1652 C 0.03707 0.4812 0.02875 0.0
C1653 C 0.94445 0.58142 0.08576 0.0
C1654 C 0.9059 0.60885 0.07682 0.0
C1655 C 0.90192 0.60893 0.10931 0.0
C1656 C 0.94047 0.58188 0.11824 0.0
C1657 C 0.91922 0.59556 0.12988 0.0
C1658 C 0.92695 0.59464 0.06491 0.0
C1659 C 0.02375 0.53464 0.99079 0.0
C1660 C 0.96772 0.56801 0.07461 0.0
C1661 C 0.95036 0.43766 0.10907 0.0
C1662 C 0.93257 0.42991 0.07776 0.0
C1663 C 0.06463 0.60919 0.05164 0.0
C1664 C 0.15391 0.50859 0.99125 0.0
C1665 C 0.19514 0.48371 0.99584 0.0
C1666 C 0.19638 0.48439 0.96278 0.0
C1667 C 0.1556 0.50931 0.95831 0.0
C1668 C 0.17383 0.49597 0.00998 0.0
C1669 C 0.17668 0.49709 0.9442 0.0
C1670 C 0.07332 0.55181 0.08582 0.0
C1671 C 0.12772 0.51484 0.00427 0.0
H1672 H 0.88539 0.6194 0.11883 0.0
H1673 H 0.95382 0.57171 0.13475 0.0
H1674 H 0.91624 0.59589 0.15489 0.0
H1675 H 0.93041 0.5948 0.04001 0.0
H1676 H 0.21284 0.4754 0.95129 0.0
H1677 H 0.13996 0.51833 0.9431 0.0
H1678 H 0.1717 0.49433 0.03502 0.0
H1679 H 0.17758 0.49723 0.91873 0.0
C1680 C 0.02605 0.18558 0.04316 0.0
C1681 C 0.02246 0.19421 0.01182 0.0
H1682 H 0.03744 0.15329 0.07359 0.0
C1683 C 0.02835 0.17332 0.9869 0.0
H1684 H 0.02209 0.20026 0.06354 0.0
C1685 C 0.0362 0.14549 0.99256 0.0
C1686 C 0.04017 0.13699 0.02383 0.0
H1687 H 0.02614 0.17811 0.96233 0.0
H1688 H 0.03938 0.13047 0.97198 0.0
C1689 C 0.03517 0.15824 0.04908 0.0
C1690 C 0.18976 0.83752 0.20654 0.0
C1691 C 0.17828 0.8162 0.17705 0.0
H1692 H 0.22109 0.85038 0.25299 0.0
C1693 C 0.18877 0.78949 0.17412 0.0
H1694 H 0.18197 0.85813 0.21021 0.0
C1695 C 0.21012 0.78445 0.19924 0.0
C1696 C 0.22309 0.80646 0.22787 0.0
H1697 H 0.17978 0.77191 0.15253 0.0
H1698 H 0.21612 0.76288 0.19635 0.0
C1699 C 0.21206 0.83292 0.2313 0.0
C1700 C 0.54229 0.89724 0.49372 0.0
C1701 C 0.52323 0.87795 0.51092 0.0
H1702 H 0.5616 0.94318 0.4842 0.0
C1703 C 0.50853 0.89352 0.53248 0.0
H1704 H 0.554 0.88702 0.47657 0.0
C1705 C 0.51253 0.92615 0.5365 0.0
C1706 C 0.53166 0.94545 0.51939 0.0
H1707 H 0.49342 0.88035 0.54628 0.0
H1708 H 0.50077 0.93629 0.55359 0.0
C1709 C 0.54658 0.92996 0.49805 0.0
C1710 C 0.50961 0.33177 0.6971 0.0
C1711 C 0.51622 0.31426 0.67042 0.0
H1712 H 0.48321 0.33104 0.73544 0.0
C1713 C 0.49748 0.28412 0.65833 0.0
H1714 H 0.52348 0.35523 0.70655 0.0
C1715 C 0.47453 0.27063 0.6744 0.0
C1716 C 0.47003 0.28685 0.70306 0.0
H1717 H 0.50147 0.2703 0.63726 0.0
H1718 H 0.46153 0.24677 0.66552 0.0
C1719 C 0.48654 0.31805 0.71347 0.0
C1720 C 0.06701 0.85791 0.66913 0.0
C1721 C 0.0376 0.83775 0.65643 0.0
H1722 H 0.10349 0.89465 0.66171 0.0
C1723 C 0.02012 0.8428 0.62846 0.0
H1724 H 0.08074 0.8551 0.69113 0.0
C1725 C 0.03335 0.86569 0.61152 0.0
C1726 C 0.06401 0.88353 0.62261 0.0
H1727 H 0.99721 0.82781 0.6185 0.0
H1728 H 0.02055 0.8678 0.58862 0.0
C1729 C 0.08002 0.88064 0.65242 0.0
C1730 C 0.44586 0.79435 0.8105 0.0
C1731 C 0.46789 0.82351 0.81743 0.0
H1732 H 0.39817 0.76812 0.79876 0.0
C1733 C 0.45608 0.84938 0.81591 0.0
H1734 H 0.45339 0.77384 0.81287 0.0
C1735 C 0.42381 0.8462 0.80851 0.0
C1736 C 0.40178 0.81699 0.80264 0.0
H1737 H 0.47175 0.87238 0.8228 0.0
H1738 H 0.41615 0.86686 0.80921 0.0
C1739 C 0.41375 0.79115 0.80303 0.0
C1740 C 0.50968 0.15282 0.13073 0.0
C1741 C 0.53467 0.17733 0.14808 0.0
H1742 H 0.49415 0.11202 0.09353 0.0
C1743 C 0.56385 0.17938 0.13948 0.0
H1744 H 0.48693 0.1504 0.13658 0.0
C1745 C 0.56798 0.15748 0.11461 0.0
C1746 C 0.54301 0.1328 0.09749 0.0
H1747 H 0.58377 0.19751 0.15273 0.0
H1748 H 0.59095 0.15915 0.10967 0.0
C1749 C 0.51382 0.1309 0.10591 0.0
C1750 C 0.18115 0.34271 0.29036 0.0
C1751 C 0.16259 0.3313 0.31284 0.0
H1752 H 0.22143 0.34406 0.26849 0.0
C1753 C 0.17257 0.30941 0.32971 0.0
H1754 H 0.17508 0.35931 0.27635 0.0
C1755 C 0.19982 0.30023 0.32464 0.0
C1756 C 0.21848 0.31255 0.3026 0.0
H1757 H 0.15959 0.29962 0.34719 0.0
H1758 H 0.20665 0.28389 0.33859 0.0
C1759 C 0.20818 0.3338 0.28557 0.0
C1760 C 0.01656 1.0039 0.16418 0.0
C1761 C 1.01147 0.02714 0.18652 0.0
H1762 H 0.03023 0.99184 0.11873 0.0
C1763 C 0.01702 0.05718 0.17902 0.0
H1764 H 0.01195 0.98039 0.16864 0.0
C1765 C 0.02753 0.06364 0.15006 0.0
C1766 C 0.03282 0.04025 0.12804 0.0
H1767 H 0.01355 0.07572 0.19568 0.0
H1768 H 0.03182 0.08695 0.14505 0.0
C1769 C 0.02717 0.01041 0.13554 0.0
C1770 C 0.29693 0.70893 0.50022 0.0
C1771 C 0.27618 0.68293 0.50659 0.0
H1772 H 0.30244 0.74473 0.47137 0.0
C1773 C 0.24929 0.66759 0.48384 0.0
H1774 H 0.3178 0.72084 0.51763 0.0
C1775 C 0.24056 0.68112 0.45784 0.0
C1776 C 0.2588 0.70985 0.45458 0.0
H1777 H 0.23323 0.64723 0.4884 0.0
H1778 H 0.21804 0.67102 0.44258 0.0
C1779 C 0.28811 0.72258 0.47404 0.0
C1780 C 0.64361 0.09893 0.64427 0.0
C1781 C 0.65393 0.07426 0.65388 0.0
H1782 H 0.60821 0.11119 0.61443 0.0
C1783 C 0.64278 0.0446 0.63515 0.0
H1784 H 0.65255 0.12219 0.65797 0.0
C1785 C 0.61836 0.03877 0.60966 0.0
C1786 C 0.60538 0.06261 0.60344 0.0
H1787 H 0.65074 0.02542 0.64212 0.0
H1788 H 0.60789 0.01529 0.59689 0.0
C1789 C 0.61832 0.09281 0.61979 0.0
C1790 C 0.34696 0.35816 0.9404 0.0
C1791 C 0.32432 0.3439 0.95718 0.0
H1792 H 0.36128 0.36146 0.89429 0.0
C1793 C 0.2977 0.32186 0.93924 0.0
H1794 H 0.36759 0.3754 0.95363 0.0
C1795 C 0.29439 0.31352 0.90527 0.0
C1796 C 0.31741 0.32738 0.8887 0.0
H1797 H 0.27992 0.31055 0.95154 0.0
H1798 H 0.27398 0.29603 0.89195 0.0
C1799 C 0.34345 0.35014 0.90652 0.0
C1800 C 0.035 0.05335 0.38571 0.0
C1801 C 1.00845 0.03063 0.36873 0.0
H1802 H 0.06419 0.07403 0.43228 0.0
C1803 C 0.98987 0.01211 0.38653 0.0
H1804 H 0.0497 0.0679 0.3726 0.0
C1805 C 0.99781 0.01593 0.42054 0.0
C1806 C 0.02483 0.03796 0.43743 0.0
H1807 H 0.96935 0.9943 0.37402 0.0
H1808 H 0.98328 1.00106 0.43354 0.0
C1809 C 0.04328 0.05677 0.41975 0.0
C1810 C 0.25548 0.71008 0.67997 0.0
C1811 C 0.27847 0.69456 0.6789 0.0
H1812 H 0.24457 0.7505 0.70079 0.0
C1813 C 0.30659 0.70528 0.70059 0.0
H1814 H 0.23388 0.70243 0.66274 0.0
C1815 C 0.31239 0.73244 0.72236 0.0
C1816 C 0.29005 0.74858 0.72201 0.0
H1817 H 0.32454 0.69365 0.69934 0.0
H1818 H 0.33477 0.74169 0.73811 0.0
C1819 C 0.26157 0.73753 0.7012 0.0
C1820 C 0.65126 0.05825 0.83657 0.0
C1821 C 0.68001 0.07819 0.83578 0.0
H1822 H 0.60881 0.05448 0.85412 0.0
C1823 C 0.69224 0.10509 0.85938 0.0
H1824 H 0.6416 0.03729 0.81873 0.0
C1825 C 0.67313 0.11551 0.87817 0.0
C1826 C 0.64254 0.09813 0.87462 0.0
H1827 H 0.71457 0.12063 0.85926 0.0
H1828 H 0.68143 0.13811 0.89349 0.0
C1829 C 0.63226 0.06843 0.85596 0.0
C1830 C 0.30663 0.35568 0.15945 0.0
C1831 C 0.32008 0.33966 0.13732 0.0
H1832 H 0.29097 0.35835 0.20525 0.0
C1833 C 0.32587 0.31199 0.14434 0.0
H1834 H 0.30172 0.37702 0.15493 0.0
C1835 C 0.31982 0.30135 0.17315 0.0
C1836 C 0.30794 0.31812 0.19617 0.0
H1837 H 0.33568 0.29868 0.12772 0.0
H1838 H 0.32535 0.28032 0.17779 0.0
C1839 C 0.30054 0.34499 0.18841 0.0
C1840 C 0.24963 0.98111 0.02474 0.0
C1841 C 0.26122 0.9981 0.00141 0.0
H1842 H 0.22863 0.98119 0.06674 0.0
C1843 C 0.25753 0.02766 0.00081 0.0
H1844 H 0.25213 0.95819 0.02601 0.0
C1845 C 0.24363 0.04061 0.02427 0.0
C1846 C 0.23422 0.02426 0.04878 0.0
H1847 H 0.26622 0.04098 0.98299 0.0
H1848 H 0.24126 0.0637 0.02403 0.0
C1849 C 0.23657 0.99428 0.04842 0.0
C1850 C 0.6895 0.62346 0.03751 0.0
C1851 C 0.68804 0.64229 0.0137 0.0
H1852 H 0.66415 0.58859 0.06078 0.0
C1853 C 0.66009 0.63766 0.99242 0.0
H1854 H 0.71075 0.62695 0.05456 0.0
C1855 C 0.63371 0.61564 0.99569 0.0
C1856 C 0.63453 0.59806 0.02069 0.0
H1857 H 0.65841 0.6518 0.97385 0.0
H1858 H 0.61233 0.61323 0.97929 0.0
C1859 C 0.66287 0.60159 0.04111 0.0
C1860 C 0.73096 0.50382 0.31847 0.0
C1861 C 0.70113 0.50493 0.30575 0.0
H1862 H 0.7677 0.48353 0.31099 0.0
C1863 C 0.68348 0.48294 0.27879 0.0
H1864 H 0.74487 0.52035 0.33942 0.0
C1865 C 0.6964 0.46229 0.26277 0.0
C1866 C 0.72713 0.46327 0.27342 0.0
H1867 H 0.66016 0.48278 0.26884 0.0
H1868 H 0.68292 0.44667 0.24095 0.0
C1869 C 0.74396 0.48289 0.3023 0.0
C1870 C 0.92126 0.51692 0.54055 0.0
C1871 C 0.90402 0.50861 0.50892 0.0
H1872 H 0.96664 0.53049 0.56915 0.0
C1873 C 0.9183 0.51519 0.48245 0.0
H1874 H 0.91043 0.5122 0.56128 0.0
C1875 C 0.94999 0.52195 0.48658 0.0
C1876 C 0.96735 0.52593 0.5175 0.0
H1877 H 0.90513 0.50879 0.45785 0.0
H1878 H 0.96056 0.52151 0.46545 0.0
C1879 C 0.95323 0.52571 0.54486 0.0
C1880 C 0.32544 0.09517 0.32496 0.0
C1881 C 0.35284 0.08763 0.32169 0.0
H1882 H 0.29062 0.11429 0.30358 0.0
C1883 C 0.36625 0.09286 0.2942 0.0
H1884 H 0.31478 0.09095 0.3459 0.0
C1885 C 0.35259 0.10554 0.27029 0.0
C1886 C 0.32529 0.1132 0.27331 0.0
H1887 H 0.38711 0.08658 0.29064 0.0
H1888 H 0.36365 0.10973 0.2496 0.0
C1889 C 0.31177 0.10829 0.30087 0.0
C1890 C 0.35422 0.12471 0.50793 0.0
C1891 C 0.34744 0.15066 0.5238 0.0
H1892 H 0.37835 0.0902 0.5128 0.0
C1893 C 0.36291 0.16411 0.55566 0.0
H1894 H 0.34285 0.11415 0.48324 0.0
C1895 C 0.38314 0.15084 0.57219 0.0
C1896 C 0.3881 0.12353 0.55752 0.0
H1897 H 0.35874 0.18451 0.56844 0.0
H1898 H 0.39422 0.16154 0.59695 0.0
C1899 C 0.37453 0.11113 0.52478 0.0
C1900 C 0.71374 0.6908 0.3311 0.0
C1901 C 0.71037 0.66245 0.31136 0.0
H1902 H 0.73724 0.7388 0.34321 0.0
C1903 C 0.73072 0.6606 0.28949 0.0
H1904 H 0.69847 0.6928 0.34821 0.0
C1905 C 0.75278 0.68725 0.28606 0.0
C1906 C 0.75499 0.71598 0.30476 0.0
H1907 H 0.72831 0.639 0.27369 0.0
H1908 H 0.76698 0.68564 0.26776 0.0
C1909 C 0.73592 0.71716 0.32807 0.0
C1910 C 0.8356 0.43713 0.83961 0.0
C1911 C 0.84382 0.45167 0.8138 0.0
H1912 H 0.82779 0.39509 0.85712 0.0
C1913 C 0.83973 0.43442 0.78276 0.0
H1914 H 0.83908 0.45035 0.86388 0.0
C1915 C 0.83236 0.40252 0.77883 0.0
C1916 C 0.82932 0.38814 0.80592 0.0
H1917 H 0.84608 0.44554 0.76259 0.0
H1918 H 0.82967 0.38965 0.75485 0.0
C1919 C 0.83006 0.40554 0.83604 0.0
C1920 C 0.09234 0.91227 0.04086 0.0
C1921 C 0.08465 0.89867 0.06825 0.0
H1922 H 0.09271 0.94947 0.0131 0.0
C1923 C 0.06948 0.91545 0.08823 0.0
H1924 H 0.10385 0.90105 0.02427 0.0
C1925 C 0.063 0.94377 0.08163 0.0
C1926 C 0.07094 0.95741 0.05442 0.0
H1927 H 0.06293 0.90694 0.10971 0.0
H1928 H 0.05205 0.95527 0.09851 0.0
C1929 C 0.08575 0.94054 0.03423 0.0
C1930 C 0.92715 0.27776 0.87409 0.0
C1931 C 0.92339 0.27575 0.90651 0.0
H1932 H 0.9083 0.28471 0.8268 0.0
C1933 C 0.8954 0.27944 0.91474 0.0
H1934 H 0.9482 0.27531 0.86641 0.0
C1935 C 0.87229 0.28481 0.8918 0.0
C1936 C 0.87608 0.28719 0.85944 0.0
H1937 H 0.89134 0.27854 0.93931 0.0
H1938 H 0.85133 0.28721 0.89973 0.0
C1939 C 0.90403 0.28332 0.85112 0.0
C1940 C 0.59829 0.19816 0.54579 0.0
C1941 C 0.58182 0.21393 0.56486 0.0
H1942 H 0.60607 0.15515 0.52592 0.0
C1943 C 0.55935 0.1945 0.5787 0.0
H1944 H 0.61595 0.21134 0.53459 0.0
C1945 C 0.55371 0.16156 0.57372 0.0
C1946 C 0.57046 0.14585 0.55495 0.0
H1947 H 0.54596 0.20481 0.59375 0.0
H1948 H 0.53616 0.14834 0.58502 0.0
C1949 C 0.5928 0.1653 0.54105 0.0
C1950 C 0.59104 0.77778 0.38193 0.0
C1951 C 0.5883 0.79884 0.40804 0.0
H1952 H 0.61747 0.77033 0.34489 0.0
C1953 C 0.61341 0.82397 0.42271 0.0
H1954 H 0.57194 0.75781 0.3709 0.0
C1955 C 0.63968 0.83031 0.4089 0.0
C1956 C 0.64051 0.81223 0.37956 0.0
H1957 H 0.6118 0.83995 0.44342 0.0
H1958 H 0.65758 0.85162 0.41865 0.0
C1959 C 0.61719 0.7846 0.36748 0.0
C1960 C 0.03779 0.24022 0.39586 0.0
C1961 C 0.06306 0.26442 0.41264 0.0
H1962 H 1.00578 0.19763 0.39846 0.0
C1963 C 0.0802 0.26081 0.44153 0.0
H1964 H 0.02382 0.24297 0.37397 0.0
C1965 C 0.07008 0.23461 0.45539 0.0
C1966 C 0.04236 0.2124 0.44074 0.0
H1967 H 0.09947 0.27956 0.45499 0.0
H1968 H 0.08176 0.23364 0.47932 0.0
C1969 C 0.02742 0.21436 0.40991 0.0
C1970 C 0.65187 0.24523 0.26503 0.0
C1971 C 0.63729 0.26917 0.26252 0.0
H1972 H 0.69388 0.23114 0.26951 0.0
C1973 C 0.65746 0.29892 0.26391 0.0
H1974 H 0.63786 0.2218 0.26333 0.0
C1975 C 0.69023 0.30441 0.26796 0.0
C1976 C 0.70476 0.28039 0.27027 0.0
H1977 H 0.64789 0.31826 0.26196 0.0
H1978 H 0.70428 0.32778 0.26938 0.0
C1979 C 0.68452 0.25065 0.26859 0.0
C1980 C 0.55206 0.94597 0.92034 0.0
C1981 C 0.57337 0.93038 0.93185 0.0
H1982 H 0.52745 0.97903 0.93142 0.0
C1983 C 0.58897 0.94048 0.96442 0.0
H1984 H 0.53779 0.93749 0.8964 0.0
C1985 C 0.58364 0.96541 0.98447 0.0
C1986 C 0.56185 0.98057 0.97299 0.0
H1987 H 0.60402 0.92792 0.97502 0.0
H1988 H 0.59608 0.97237 0.00932 0.0
C1989 C 0.54613 0.97021 0.9406 0.0
C1990 C 0.92983 0.76885 0.73271 0.0
C1991 C 0.95387 0.76873 0.75822 0.0
H1992 H 0.8838 0.77339 0.71768 0.0
C1993 C 0.94758 0.77581 0.79005 0.0
H1994 H 0.93275 0.76364 0.70776 0.0
C1995 C 0.91944 0.78286 0.79587 0.0
C1996 C 0.89505 0.78191 0.77026 0.0
H1997 H 0.96475 0.7763 0.81083 0.0
H1998 H 0.91647 0.78823 0.82078 0.0
C1999 C 0.90124 0.77454 0.7385 0.0
C2000 C 0.10112 0.03874 0.89993 0.0
C2001 C 0.10019 0.06671 0.88922 0.0
H2002 H 0.09273 0.01065 0.93704 0.0
C2003 C 0.0898 0.08794 0.90908 0.0
H2004 H 0.10873 0.02169 0.88532 0.0
C2005 C 0.08039 0.08144 0.93826 0.0
C2006 C 0.08155 0.05374 0.94911 0.0
H2007 H 0.08913 0.10993 0.9022 0.0
H2008 H 0.07281 0.09854 0.95285 0.0
C2009 C 0.09201 0.0324 0.92959 0.0
C2010 C 0.83884 0.42775 0.60024 0.0
C2011 C 0.82392 0.4053 0.57286 0.0
H2012 H 0.85866 0.43544 0.65053 0.0
C2013 C 0.80885 0.37532 0.5761 0.0
H2014 H 0.85022 0.45111 0.59776 0.0
C2015 C 0.81383 0.36637 0.6062 0.0
C2016 C 0.83381 0.3876 0.63227 0.0
H2017 H 0.79715 0.35796 0.55486 0.0
H2018 H 0.80632 0.34208 0.60769 0.0
C2019 C 0.84334 0.41893 0.63031 0.0
C2020 C 0.45582 0.9946 0.42941 0.0
C2021 C 0.44112 0.0182 0.42741 0.0
H2022 H 0.49592 0.98302 0.45076 0.0
C2023 C 0.45225 0.04629 0.44902 0.0
H2024 H 0.44768 0.97287 0.41255 0.0
C2025 C 0.47966 0.05195 0.4705 0.0
C2026 C 0.49543 0.02928 0.47053 0.0
H2027 H 0.44125 0.0647 0.44726 0.0
H2028 H 0.48928 0.07445 0.48583 0.0
C2029 C 0.4835 1.00046 0.45055 0.0
C2030 C 0.80295 0.78393 0.13914 0.0
C2031 C 0.78482 0.75472 0.12249 0.0
H2032 H 0.82047 0.81434 0.18539 0.0
C2033 C 0.77082 0.73322 0.14079 0.0
H2034 H 0.81404 0.80094 0.12576 0.0
C2035 C 0.77458 0.74081 0.17486 0.0
C2036 C 0.79228 0.77018 0.19145 0.0
H2037 H 0.75632 0.71069 0.12859 0.0
H2038 H 0.76295 0.72402 0.18816 0.0
C2039 C 0.80656 0.79159 0.17322 0.0
C2040 C 0.10615 0.04649 0.68399 0.0
C2041 C 0.09502 0.06661 0.70455 0.0
H2042 H 0.10831 0.02815 0.63482 0.0
C2043 C 0.07624 0.08308 0.68971 0.0
H2044 H 0.12072 0.03335 0.69432 0.0
C2045 C 0.06909 0.07995 0.6558 0.0
C2046 C 0.08088 0.06082 0.63508 0.0
H2047 H 0.06718 0.09886 0.70435 0.0
H2048 H 0.05416 0.09275 0.64602 0.0
C2049 C 0.09923 0.0437 0.64975 0.0
C2050 C 0.81052 0.40071 0.38263 0.0
C2051 C 0.83944 0.40941 0.40312 0.0
H2052 H 0.77866 0.36581 0.34629 0.0
C2053 C 0.86083 0.39231 0.39906 0.0
H2054 H 0.79374 0.41354 0.38565 0.0
C2055 C 0.8519 0.36472 0.37736 0.0
C2056 C 0.8222 0.35513 0.35879 0.0
H2057 H 0.88323 0.39851 0.41478 0.0
H2058 H 0.86785 0.35073 0.37542 0.0
C2059 C 0.80171 0.37329 0.3608 0.0
C2060 C 0.47965 1.00482 0.2588 0.0
C2061 C 0.4617 0.02475 0.26662 0.0
H2062 H 0.49349 0.9784 0.22108 0.0
C2063 C 0.44821 0.03789 0.24187 0.0
H2064 H 0.49051 0.9944 0.27716 0.0
C2065 C 0.45025 0.02869 0.20945 0.0
C2066 C 0.46555 1.00628 0.20192 0.0
H2067 H 0.43428 0.05338 0.24719 0.0
H2068 H 0.43842 0.03753 0.1903 0.0
C2069 C 0.48124 0.99543 0.22672 0.0
C2070 C 0.79993 0.7356 0.91709 0.0
C2071 C 0.78741 0.75336 0.93869 0.0
H2072 H 0.81536 0.73013 0.87119 0.0
C2073 C 0.78209 0.78063 0.92987 0.0
H2074 H 0.80434 0.71441 0.92286 0.0
C2075 C 0.78826 0.78952 0.90033 0.0
C2076 C 0.7998 0.7714 0.87812 0.0
H2077 H 0.77277 0.79515 0.94578 0.0
H2078 H 0.78329 0.81051 0.89464 0.0
C2079 C 0.80607 0.74452 0.88726 0.0
C2080 C 0.85472 0.11329 0.05656 0.0
C2081 C 0.83938 0.09176 0.07388 0.0
H2082 H 0.88364 0.12073 0.02115 0.0
C2083 C 0.84482 0.06289 0.07315 0.0
H2084 H 0.85034 0.13568 0.05679 0.0
C2085 C 0.86414 0.05468 0.05319 0.0
C2086 C 0.87685 0.07505 0.03338 0.0
H2087 H 0.83292 0.04634 0.08653 0.0
H2088 H 0.86739 0.03176 0.05145 0.0
C2089 C 0.87333 0.1048 0.03606 0.0
C2090 C 0.43199 0.48165 0.08043 0.0
C2091 C 0.41599 0.45568 0.05678 0.0
H2092 H 0.47118 0.52181 0.0933 0.0
C2093 C 0.4245 0.45264 0.02609 0.0
H2094 H 0.42561 0.48454 0.10416 0.0
C2095 C 0.44937 0.47447 0.01945 0.0
C2096 C 0.4672 0.49886 0.04391 0.0
H2097 H 0.41232 0.43285 0.00742 0.0
H2098 H 0.45549 0.47143 0.99562 0.0
C2099 C 0.45783 0.50293 0.07416 0.0
C2100 C 0.42004 0.60645 0.8092 0.0
C2101 C 0.4036 0.58904 0.77901 0.0
H2102 H 0.42215 0.64194 0.84859 0.0
C2103 C 0.37773 0.59644 0.76364 0.0
H2104 H 0.44016 0.60124 0.82156 0.0
C2105 C 0.3674 0.61989 0.77923 0.0
C2106 C 0.38254 0.63566 0.81058 0.0
H2107 H 0.36508 0.58356 0.74012 0.0
H2108 H 0.3466 0.6244 0.76758 0.0
C2109 C 0.40961 0.62956 0.82483 0.0
C2110 C 0.18459 0.61608 0.54704 0.0
C2111 C 0.19844 0.59873 0.56653 0.0
H2112 H 0.14211 0.62415 0.52732 0.0
C2113 C 0.1813 0.57187 0.57451 0.0
H2114 H 0.1981 0.63697 0.54072 0.0
C2115 C 0.14973 0.56408 0.56584 0.0
C2116 C 0.13547 0.58424 0.55139 0.0
H2117 H 0.19199 0.55846 0.58957 0.0
H2118 H 0.13652 0.54324 0.57211 0.0
C2119 C 0.15283 0.60925 0.54006 0.0
C2120 C 0.79178 0.03174 0.78613 0.0
C2121 C 0.76662 0.02194 0.76019 0.0
H2122 H 0.81766 0.0185 0.82534 0.0
C2123 C 0.75312 0.99029 0.74857 0.0
H2124 H 0.80306 0.05602 0.79503 0.0
C2125 C 0.76167 0.96892 0.76593 0.0
C2126 C 0.78352 0.97937 0.79479 0.0
H2127 H 0.73403 0.98221 0.72816 0.0
H2128 H 0.74943 0.94467 0.75848 0.0
C2129 C 0.79996 0.01047 0.80364 0.0
C2130 C 0.76138 0.97818 0.55832 0.0
C2131 C 0.76231 0.94795 0.54776 0.0
H2132 H 0.73661 0.01194 0.55232 0.0
C2133 C 0.73637 0.92659 0.52777 0.0
H2134 H 0.78096 0.99472 0.57429 0.0
C2135 C 0.71133 0.93637 0.5153 0.0
C2136 C 0.71197 0.96743 0.52298 0.0
H2137 H 0.73648 0.90303 0.51948 0.0
H2138 H 0.69277 0.92044 0.49739 0.0
C2139 C 0.736 0.98786 0.54618 0.0
C2140 C 0.39021 0.43209 0.7985 0.0
C2141 C 0.39372 0.43574 0.76656 0.0
H2142 H 0.36815 0.40276 0.82919 0.0
C2143 C 0.37526 0.41333 0.74046 0.0
H2144 H 0.40492 0.44866 0.81903 0.0
C2145 C 0.35469 0.38689 0.7463 0.0
C2146 C 0.35225 0.3826 0.77828 0.0
H2147 H 0.3779 0.41552 0.7157 0.0
H2148 H 0.34153 0.36921 0.72591 0.0
C2149 C 0.36936 0.40586 0.80432 0.0
C2150 C 0.23485 0.67453 0.27594 0.0
C2151 C 0.24946 0.65706 0.25705 0.0
H2152 H 0.23785 0.71843 0.30228 0.0
C2153 C 0.28086 0.66728 0.25696 0.0
H2154 H 0.2107 0.66599 0.27728 0.0
C2155 C 0.29687 0.69689 0.27267 0.0
C2156 C 0.28096 0.71622 0.28736 0.0
H2157 H 0.29239 0.6533 0.24322 0.0
H2158 H 0.32079 0.70544 0.27056 0.0
C2159 C 0.2505 0.70422 0.29086 0.0
C2160 C 0.51717 0.66796 0.48621 0.0
C2161 C 0.52224 0.69405 0.51095 0.0
H2162 H 0.51989 0.62133 0.47194 0.0
C2163 C 0.53682 0.69076 0.54205 0.0
H2164 H 0.50622 0.66859 0.46187 0.0
C2165 C 0.54594 0.66335 0.54776 0.0
C2166 C 0.54012 0.63699 0.52298 0.0
H2167 H 0.54177 0.70975 0.56217 0.0
H2168 H 0.55714 0.66269 0.57199 0.0
C2169 C 0.52525 0.64034 0.49213 0.0
C2170 C 0.68607 0.28844 0.67751 0.0
C2171 C 0.67912 0.317 0.67732 0.0
H2172 H 0.71294 0.26197 0.70133 0.0
C2173 C 0.69509 0.34118 0.70336 0.0
H2174 H 0.67409 0.26909 0.65829 0.0
C2175 C 0.71781 0.33715 0.72802 0.0
C2176 C 0.72511 0.30872 0.72784 0.0
H2177 H 0.69045 0.36346 0.70436 0.0
H2178 H 0.73013 0.35656 0.74705 0.0
C2179 C 0.70843 0.28432 0.70234 0.0
C2180 C 0.05142 0.39887 0.01595 0.0
C2181 C 0.02195 0.37791 0.01332 0.0
H2182 H 0.07939 0.44626 0.02345 0.0
C2183 C 0.99748 0.39178 0.01553 0.0
H2184 H 0.07114 0.38993 0.01437 0.0
C2185 C 1.00213 0.4245 0.02016 0.0
C2186 C 0.03166 0.44553 0.02341 0.0
H2187 H 0.97422 0.37713 0.01292 0.0
H2188 H 0.98226 0.43328 0.02075 0.0
C2189 C 0.05616 0.43166 0.02114 0.0
C2190 C 0.99749 0.78423 0.15833 0.0
C2191 C 0.01624 0.81435 0.1705 0.0
H2192 H 0.96149 0.74688 0.16543 0.0
C2193 C 1.00961 0.83185 0.19717 0.0
H2194 H 1.00152 0.77044 0.13727 0.0
C2195 C 0.98649 0.81813 0.21346 0.0
C2196 C 0.96996 0.78695 0.20298 0.0
H2197 H 0.02352 0.85529 0.20668 0.0
H2198 H 0.98314 0.83109 0.23544 0.0
C2199 C 0.97449 0.77074 0.17433 0.0
C2200 C 0.56837 0.35675 0.1696 0.0
C2201 C 0.53838 0.33764 0.15745 0.0
H2202 H 0.60537 0.39281 0.16204 0.0
C2203 C 0.52071 0.34374 0.13025 0.0
H2204 H 0.58232 0.35313 0.19101 0.0
C2205 C 0.53415 0.36674 0.11354 0.0
C2206 C 0.56521 0.3836 0.12412 0.0
H2207 H 0.49738 0.32955 0.12074 0.0
H2208 H 0.52109 0.36977 0.09124 0.0
C2209 C 0.58158 0.37956 0.15315 0.0
C2210 C 0.94448 0.29233 0.30933 0.0
C2211 C 0.96681 0.32127 0.31571 0.0
H2212 H 0.89665 0.26671 0.29907 0.0
C2213 C 0.95547 0.34745 0.31456 0.0
H2214 H 0.95178 0.27164 0.31131 0.0
C2215 C 0.92325 0.34471 0.30821 0.0
C2216 C 0.90099 0.31569 0.3031 0.0
H2217 H 0.97146 0.3703 0.32103 0.0
H2218 H 0.91587 0.36554 0.30916 0.0
C2219 C 0.91248 0.28958 0.30297 0.0
C2220 C 0.02346 0.64469 0.65212 0.0
C2221 C 0.0325 0.67631 0.65028 0.0
H2222 H 0.0199 0.5982 0.63074 0.0
C2223 C 0.04509 0.68437 0.62278 0.0
H2224 H 0.01375 0.63727 0.67266 0.0
C2225 C 0.04886 0.66167 0.5984 0.0
C2226 C 0.04016 0.63008 0.60063 0.0
H2227 H 0.05283 0.7084 0.62045 0.0
H2228 H 0.0593 0.66898 0.57823 0.0
C2229 C 0.02713 0.62213 0.62786 0.0
C2230 C 0.67925 0.81761 0.83692 0.0
C2231 C 0.66202 0.82842 0.81247 0.0
H2232 H 0.71958 0.80196 0.85215 0.0
C2233 C 0.67363 0.82901 0.78287 0.0
H2234 H 0.67186 0.81639 0.86009 0.0
C2235 C 0.7006 0.81985 0.77797 0.0
C2236 C 0.71839 0.8102 0.80263 0.0
H2237 H 0.66182 0.83693 0.76298 0.0
H2238 H 0.70819 0.82143 0.75492 0.0
C2239 C 0.70695 0.8092 0.83227 0.0
C2240 C 0.50915 0.55566 0.67459 0.0
C2241 C 0.50972 0.52764 0.68534 0.0
H2242 H 0.51947 0.58416 0.63827 0.0
C2243 C 0.52168 0.50693 0.66678 0.0
H2244 H 0.5003 0.57227 0.68828 0.0
C2245 C 0.53291 0.51397 0.63869 0.0
C2246 C 0.53224 0.54168 0.62783 0.0
H2247 H 0.5221 0.48493 0.67375 0.0
H2248 H 0.54135 0.49723 0.62481 0.0
C2249 C 0.52015 0.56251 0.64601 0.0
C2250 C 0.7907 0.18582 0.98527 0.0
C2251 C 0.78066 0.18978 0.01497 0.0
H2252 H 0.78622 0.19504 0.93648 0.0
C2253 C 0.76313 0.21056 0.02075 0.0
H2254 H 0.80392 0.16952 0.98045 0.0
C2255 C 0.75229 0.22414 0.99567 0.0
C2256 C 0.75942 0.2175 0.96484 0.0
H2257 H 0.75498 0.21357 0.04354 0.0
H2258 H 0.73633 0.23777 -0.00042 0.0
C2259 C 0.78041 0.20012 0.96023 0.0
C2260 C 0.1412 0.59841 0.14376 0.0
C2261 C 0.15338 0.57453 0.15252 0.0
H2262 H 0.10384 0.60894 0.11541 0.0
C2263 C 0.14358 0.54507 0.13328 0.0
H2264 H 0.14892 0.62153 0.1579 0.0
C2265 C 0.1186 0.5384 0.10818 0.0
C2266 C 0.10388 0.56124 0.1029 0.0
H2267 H 0.15304 0.52656 0.13962 0.0
H2268 H 0.10901 0.51489 0.09517 0.0
C2269 C 0.11552 0.59141 0.11968 0.0
C2270 C 0.79435 0.83508 0.43697 0.0
C2271 C 0.82375 0.84379 0.45688 0.0
H2272 H 0.76832 0.82011 0.38798 0.0
C2273 C 0.84972 0.84629 0.44198 0.0
H2274 H 0.77393 0.83331 0.44773 0.0
C2275 C 0.84649 0.8394 0.40823 0.0
C2276 C 0.81734 0.82932 0.38833 0.0
H2277 H 0.87275 0.85405 0.4565 0.0
H2278 H 0.86688 0.8425 0.39766 0.0
C2279 C 0.79117 0.82767 0.40289 0.0
C2280 C 0.51113 0.50246 0.88212 0.0
C2281 C 0.50866 0.52738 0.86648 0.0
H2282 H 0.51686 0.48612 0.92686 0.0
C2283 C 0.51153 0.55606 0.88592 0.0
H2284 H 0.5077 0.4797 0.86816 0.0
C2285 C 0.51803 0.55974 0.9202 0.0
C2286 C 0.52119 0.53469 0.93552 0.0
H2287 H 0.50911 0.57562 0.87469 0.0
H2288 H 0.52107 0.58219 0.93466 0.0
C2289 C 0.51682 0.50606 0.91596 0.0
C2290 C 0.80183 0.20735 0.19465 0.0
C2291 C 0.77351 0.2001 0.17313 0.0
H2292 H 0.83188 0.23977 0.23462 0.0
C2293 C 0.75061 0.21428 0.17979 0.0
H2294 H 0.81962 0.19627 0.19004 0.0
C2295 C 0.75775 0.23902 0.20487 0.0
C2296 C 0.78723 0.24842 0.22384 0.0
H2297 H 0.72835 0.20832 0.16383 0.0
H2298 H 0.74115 0.25205 0.20803 0.0
C2299 C 0.80886 0.23196 0.22001 0.0
C2300 C 0.19024 0.60322 0.35667 0.0
C2301 C 0.17753 0.57757 0.33162 0.0
H2302 H 0.18077 0.63354 0.39458 0.0
C2303 C 0.14877 0.55727 0.33198 0.0
H2304 H 0.21258 0.61897 0.35706 0.0
C2305 C 0.13064 0.5657 0.35356 0.0
C2306 C 0.14161 0.59408 0.37475 0.0
H2307 H 0.13864 0.53725 0.31301 0.0
H2308 H 0.10712 0.55179 0.35141 0.0
C2309 C 0.17209 0.61172 0.3779 0.0
C2310 C 0.80528 0.85502 0.65812 0.0
C2311 C 0.81992 0.83937 0.63698 0.0
H2312 H 0.78885 0.85791 0.70356 0.0
C2313 C 0.82747 0.81291 0.6454 0.0
H2314 H 0.79902 0.87544 0.65244 0.0
C2315 C 0.8218 0.80304 0.67452 0.0
C2316 C 0.80849 0.81934 0.69644 0.0
H2317 H 0.83838 0.79997 0.62968 0.0
H2318 H 0.82873 0.78294 0.68019 0.0
C2319 C 0.79953 0.84504 0.68748 0.0
C2320 C 0.76064 0.52401 0.50099 0.0
C2321 C 0.76099 0.49358 0.50304 0.0
H2322 H 0.74867 0.56381 0.5225 0.0
C2323 C 0.74654 0.47861 0.52619 0.0
H2324 H 0.77127 0.53583 0.48312 0.0
C2325 C 0.73497 0.4948 0.54909 0.0
C2326 C 0.73696 0.52583 0.54864 0.0
H2327 H 0.7459 0.45493 0.52811 0.0
H2328 H 0.72505 0.48332 0.56758 0.0
C2329 C 0.74824 0.54004 0.52361 0.0
C2330 C 0.17532 0.1191 0.49455 0.0
C2331 C 0.19 0.14474 0.51913 0.0
H2332 H 0.13671 0.07854 0.47915 0.0
C2333 C 0.18005 0.14653 0.5491 0.0
H2334 H 0.18304 0.11699 0.47146 0.0
C2335 C 0.15518 0.1237 0.55416 0.0
C2336 C 0.1384 0.09987 0.52864 0.0
H2337 H 0.19142 0.16583 0.5686 0.0
H2338 H 0.14817 0.12554 0.57761 0.0
C2339 C 0.14912 0.09709 0.49904 0.0
C2340 C 0.21154 0.98409 0.81851 0.0
C2341 C 0.20694 0.00979 0.80561 0.0
H2342 H 0.22575 0.94266 0.81026 0.0
C2343 C 0.21812 0.01657 0.77737 0.0
H2344 H 0.2033 0.97872 0.84048 0.0
C2345 C 0.23149 0.99675 0.76076 0.0
C2346 C 0.2331 0.96922 0.77142 0.0
H2347 H 0.21551 0.03672 0.76736 0.0
H2348 H 0.23918 1.00228 0.73858 0.0
C2349 C 0.22444 0.96363 0.80129 0.0
C2350 C 0.42738 0.01653 0.0557 0.0
C2351 C 0.4073 1.00601 0.02561 0.0
H2352 H 0.47367 0.03972 0.08004 0.0
C2353 C 0.41785 0.01161 0.99678 0.0
H2354 H 0.41957 0.01164 0.07801 0.0
C2355 C 0.44865 0.02602 0.99789 0.0
C2356 C 0.46891 0.03551 0.0278 0.0
H2357 H 0.40295 1.00262 0.97324 0.0
H2358 H 0.45689 0.02856 0.97532 0.0
C2359 C 0.4582 0.0317 0.05681 0.0
C2360 C 0.84645 0.57125 0.78908 0.0
C2361 C 0.84491 0.58021 0.82173 0.0
H2362 H 0.83744 0.57906 0.74082 0.0
C2363 C 0.82834 0.60085 0.8304 0.0
H2364 H 0.85936 0.55513 0.78223 0.0
C2365 C 0.8143 0.61361 0.8063 0.0
C2366 C 0.81782 0.60659 0.77357 0.0
H2367 H 0.82724 0.60788 0.85566 0.0
H2368 H 0.80137 0.62945 0.81365 0.0
C2369 C 0.83356 0.58475 0.76528 0.0
C2370 C 0.86575 0.66684 0.05325 0.0
C2371 C 0.84743 0.65148 0.02308 0.0
H2372 H 0.8992 0.66551 0.09335 0.0
C2373 C 0.85188 0.62385 0.00818 0.0
H2374 H 0.86339 0.68854 0.06509 0.0
C2375 C 0.87252 0.61047 0.02476 0.0
C2376 C 0.88864 0.62473 0.05623 0.0
H2377 H 0.83825 0.61179 0.98475 0.0
H2378 H 0.87445 0.58823 0.01391 0.0
C2379 C 0.88622 0.65366 0.06955 0.0
C2380 C 0.22752 0.18395 0.83588 0.0
C2381 C 0.21121 0.16162 0.80876 0.0
H2382 H 0.26117 0.22776 0.85298 0.0
C2383 C 0.21873 0.16473 0.77798 0.0
H2384 H 0.22203 0.18191 0.85977 0.0
C2385 C 0.24132 0.19062 0.77415 0.0
C2386 C 0.25615 0.21397 0.80097 0.0
H2387 H 0.20595 0.14799 0.75666 0.0
H2388 H 0.24551 0.19349 0.74994 0.0
C2389 C 0.24979 0.21003 0.83198 0.0
C2390 C 0.33482 0.93528 0.34238 0.0
C2391 C 0.34127 0.94933 0.31562 0.0
H2392 H 0.32966 0.89331 0.36075 0.0
C2393 C 0.33469 0.93161 0.28445 0.0
H2394 H 0.34025 0.94884 0.36669 0.0
C2395 C 0.32737 0.89971 0.28106 0.0
C2396 C 0.32666 0.88609 0.30886 0.0
H2397 H 0.33964 0.94231 0.26362 0.0
H2398 H 0.32384 0.88604 0.25717 0.0
C2399 C 0.32938 0.90367 0.33925 0.0
C2400 C 0.57652 0.41968 0.59202 0.0
C2401 C 0.58469 0.39924 0.56845 0.0
H2402 H 0.5654 0.46271 0.60548 0.0
C2403 C 0.58509 0.40909 0.5377 0.0
H2404 H 0.57579 0.41414 0.61613 0.0
C2405 C 0.5776 0.43704 0.53105 0.0
C2406 C 0.57019 0.45779 0.55496 0.0
H2407 H 0.5911 0.39496 0.51832 0.0
H2408 H 0.57853 0.44286 0.50708 0.0
C2409 C 0.57023 0.44812 0.58573 0.0
C2410 C 0.41975 0.76766 0.37264 0.0
C2411 C 0.42499 0.77934 0.40635 0.0
H2412 H 0.39281 0.76387 0.32498 0.0
C2413 C 0.40766 0.79938 0.41631 0.0
H2414 H 0.43291 0.7527 0.36355 0.0
C2415 C 0.38592 0.80715 0.39386 0.0
C2416 C 0.37904 0.79411 0.3605 0.0
H2417 H 0.41174 0.81015 0.44161 0.0
H2418 H 0.37551 0.82447 0.40278 0.0
C2419 C 0.39689 0.7745 0.35028 0.0
C2420 C 0.07968 0.69598 0.09274 0.0
C2421 C 0.08176 0.71294 0.06673 0.0
H2422 H 0.07332 0.6518 0.10901 0.0
C2423 C 0.07837 0.69477 0.03562 0.0
H2424 H 0.08266 0.7083 0.11727 0.0
C2425 C 0.07317 0.66185 0.03088 0.0
C2426 C 0.07103 0.645 0.05694 0.0
H2427 H 0.07955 0.70603 0.01459 0.0
H2428 H 0.07043 0.64943 0.00643 0.0
C2429 C 0.07439 0.66309 0.08799 0.0
C2430 C 0.11199 0.32329 0.92265 0.0
C2431 C 0.08725 0.29798 0.90746 0.0
H2432 H 0.15608 0.35174 0.91932 0.0
C2433 C 0.09057 0.27744 0.88123 0.0
H2434 H 0.10989 0.33894 0.94338 0.0
C2435 C 0.11704 0.28474 0.8674 0.0
C2436 C 0.14001 0.31251 0.88 0.0
H2437 H 0.07175 0.25736 0.86982 0.0
H2438 H 0.11786 0.27071 0.84488 0.0
C2439 C 0.13849 0.33029 0.90923 0.0
C2440 C 0.58102 0.75928 0.94091 0.0
C2441 C 0.5633 0.76278 0.91234 0.0
H2442 H 0.58291 0.73301 0.97942 0.0
C2443 C 0.53749 0.73876 0.89641 0.0
H2444 H 0.60069 0.77793 0.95375 0.0
C2445 C 0.52701 0.71352 0.9113 0.0
C2446 C 0.54242 0.71202 0.94208 0.0
H2447 H 0.52309 0.74146 0.87479 0.0
H2448 H 0.50499 0.69706 0.9006 0.0
C2449 C 0.57079 0.7337 0.95561 0.0
C2450 C 0.1592 0.797 0.78053 0.0
C2451 C 0.13827 0.7695 0.76204 0.0
H2452 H 0.20671 0.82359 0.79911 0.0
C2453 C 0.15207 0.74758 0.74777 0.0
H2454 H 0.15023 0.81464 0.79222 0.0
C2455 C 0.18478 0.75269 0.75187 0.0
C2456 C 0.20569 0.78026 0.77012 0.0
H2457 H 0.13738 0.72629 0.73291 0.0
H2458 H 0.19374 0.73504 0.74016 0.0
C2459 C 0.19197 0.80223 0.78441 0.0
C2460 C 0.06647 0.42686 0.46439 0.0
C2461 C 0.07203 0.42787 0.43251 0.0
H2462 H 0.05496 0.44852 0.50657 0.0
C2463 C 0.07447 0.45614 0.42132 0.0
H2464 H 0.06355 0.40544 0.4738 0.0
C2465 C 0.07085 0.48219 0.44151 0.0
C2466 C 0.06322 0.4802 0.47279 0.0
H2467 H 0.07766 0.45773 0.3966 0.0
H2468 H 0.0733 0.50356 0.43218 0.0
C2469 C 0.06149 0.45199 0.48359 0.0
C2470 C 0.43907 0.25669 0.28376 0.0
C2471 C 0.45344 0.26644 0.25767 0.0
H2472 H 0.40103 0.25424 0.30994 0.0
C2473 C 0.4375 0.28307 0.23833 0.0
H2474 H 0.44982 0.24414 0.29981 0.0
C2475 C 0.40909 0.2891 0.24442 0.0
C2476 C 0.39454 0.27873 0.27012 0.0
H2477 H 0.4468 0.29117 0.21786 0.0
H2478 H 0.39809 0.30149 0.22834 0.0
C2479 C 0.4106 0.26256 0.2897 0.0
C2480 C 0.57446 0.57587 0.39811 0.0
C2481 C 0.59877 0.56594 0.38726 0.0
H2482 H 0.54696 0.5783 0.43491 0.0
C2483 C 0.61371 0.5493 0.40708 0.0
H2484 H 0.56225 0.5887 0.38382 0.0
C2485 C 0.60491 0.54338 0.437 0.0
C2486 C 0.5808 0.55377 0.44786 0.0
H2487 H 0.63259 0.54129 0.39977 0.0
H2488 H 0.61714 0.5309 0.45175 0.0
C2489 C 0.56557 0.56977 0.42763 0.0
C2490 C 0.32161 0.91686 0.09236 0.0
C2491 C 0.32703 0.89874 0.06538 0.0
H2492 H 0.32684 0.92492 0.14443 0.0
C2493 C 0.33458 0.87123 0.06839 0.0
H2494 H 0.31608 0.93844 0.09021 0.0
C2495 C 0.33976 0.86322 0.09877 0.0
C2496 C 0.33829 0.88324 0.12627 0.0
H2497 H 0.33899 0.85732 0.04766 0.0
H2498 H 0.34852 0.84341 0.10118 0.0
C2499 C 0.32755 0.90916 0.1231 0.0
C2500 C 0.95833 0.55026 0.94137 0.0
C2501 C 0.94245 0.52063 0.92434 0.0
H2502 H 0.99798 0.57771 0.97506 0.0
C2503 C 0.95259 0.49487 0.93086 0.0
H2504 H 0.95113 0.57041 0.93633 0.0
C2505 C 0.97996 0.49927 0.95234 0.0
C2506 C 0.9959 0.52912 0.96829 0.0
H2507 H 0.94061 0.47177 0.91794 0.0
H2508 H 0.98833 0.47964 0.95695 0.0
C2509 C 0.98514 0.55449 0.96305 0.0
C2510 C 0.28052 0.28365 0.63647 0.0
C2511 C 0.28667 0.25681 0.62157 0.0
H2512 H 0.27878 0.31186 0.6806 0.0
C2513 C 0.29664 0.23763 0.642 0.0
H2514 H 0.27286 0.29907 0.6218 0.0
C2515 C 0.29967 0.24484 0.67613 0.0
C2516 C 0.29288 0.27145 0.69087 0.0
H2517 H 0.30131 0.21658 0.63158 0.0
H2518 H 0.30692 0.22928 0.69093 0.0
C2519 C 0.28369 0.29089 0.67042 0.0
C2520 C 0.61809 0.56738 0.18274 0.0
C2521 C 0.59542 0.56578 0.20244 0.0
H2522 H 0.62834 0.56653 0.13439 0.0
C2523 C 0.56462 0.56042 0.18703 0.0
H2524 H 0.64214 0.57214 0.1938 0.0
C2525 C 0.55671 0.55724 0.15299 0.0
C2526 C 0.57941 0.55951 0.13334 0.0
H2527 H 0.5466 0.55895 0.20139 0.0
H2528 H 0.53273 0.55313 0.14203 0.0
C2529 C 0.6102 0.56432 0.14867 0.0
C2530 C 0.30617 0.8987 0.87986 0.0
C2531 C 0.33495 0.90883 0.90055 0.0
H2532 H 0.2761 0.86287 0.84315 0.0
C2533 C 0.3574 0.8929 0.89769 0.0
H2534 H 0.28856 0.91057 0.88235 0.0
C2535 C 0.34994 0.86523 0.87628 0.0
C2536 C 0.32058 0.85447 0.857 0.0
H2537 H 0.37954 0.90022 0.914 0.0
H2538 H 0.36672 0.85212 0.87506 0.0
C2539 C 0.29893 0.87138 0.85812 0.0
C2540 C 0.94062 0.53663 0.73696 0.0
C2541 C 0.95882 0.52907 0.76285 0.0
H2542 H 0.92821 0.53114 0.68495 0.0
C2543 C 0.98223 0.5154 0.75687 0.0
H2544 H 0.92226 0.54704 0.74111 0.0
C2545 C 0.98535 0.50637 0.72524 0.0
C2546 C 0.96502 0.51081 0.6994 0.0
H2547 H 0.99652 0.50946 0.77649 0.0
H2548 H 1.00215 0.49387 0.72086 0.0
C2549 C 0.9437 0.52736 0.70505 0.0
C2550 C 0.30089 0.2358 0.41604 0.0
C2551 C 0.28926 0.25407 0.43802 0.0
H2552 H 0.31534 0.22975 0.36976 0.0
C2553 C 0.28511 0.28197 0.42982 0.0
H2554 H 0.30439 0.21414 0.42138 0.0
C2555 C 0.29129 0.29086 0.40026 0.0
C2556 C 0.30165 0.27207 0.37756 0.0
H2557 H 0.2766 0.2969 0.44618 0.0
H2558 H 0.28713 0.31227 0.39489 0.0
C2559 C 0.30705 0.24471 0.38629 0.0
C2560 C 0.3631 0.59652 0.57683 0.0
C2561 C 0.33127 0.58494 0.56552 0.0
H2562 H 0.40748 0.59723 0.56575 0.0
C2563 C 0.31942 0.55918 0.5407 0.0
H2564 H 0.3725 0.6163 0.59626 0.0
C2565 C 0.33917 0.54873 0.52312 0.0
C2566 C 0.37063 0.56374 0.53088 0.0
H2567 H 0.29479 0.54971 0.53225 0.0
H2568 H 0.3297 0.53096 0.50174 0.0
C2569 C 0.38297 0.58589 0.55926 0.0
C2570 C 0.91568 0.97918 0.54806 0.0
C2571 C 0.91901 0.95371 0.5626 0.0
H2572 H 0.93822 0.0187 0.52896 0.0
C2573 C 0.94881 0.95072 0.57173 0.0
H2574 H 0.89298 0.98191 0.54025 0.0
C2575 C 0.97445 0.97187 0.56595 0.0
C2576 C 0.97147 0.99688 0.55054 0.0
H2577 H 0.95244 0.93137 0.58268 0.0
H2578 H 0.99672 0.96787 0.57298 0.0
C2579 C 0.94168 1.00037 0.54168 0.0
C2580 C 0.9183 0.11486 0.28097 0.0
C2581 C 0.90009 0.08466 0.27987 0.0
H2582 H 0.92244 0.16305 0.29466 0.0
C2583 C 0.86941 0.07967 0.28418 0.0
H2584 H 0.942 0.11925 0.27751 0.0
C2585 C 0.85814 0.10463 0.2931 0.0
C2586 C 0.87762 0.13462 0.29813 0.0
H2587 H 0.85484 0.05655 0.28292 0.0
H2588 H 0.83541 0.10043 0.29941 0.0
C2589 C 0.90711 0.13986 0.29038 0.0
C2590 C 0.68263 0.07059 0.0541 0.0
C2591 C 0.69185 0.10251 0.06438 0.0
H2592 H 0.64421 0.03151 0.03457 0.0
C2593 C 0.67253 0.12056 0.05416 0.0
H2594 H 0.69768 0.05649 0.0608 0.0
C2595 C 0.64238 0.10649 0.03896 0.0
C2596 C 0.63149 0.07445 0.03478 0.0
H2597 H 0.67964 0.14548 0.06051 0.0
H2598 H 0.62679 0.12076 0.03561 0.0
C2599 C 0.65237 0.05649 0.0386 0.0
C2600 C 0.2927 0.52813 0.2818 0.0
C2601 C 0.26535 0.51879 0.2587 0.0
H2602 H 0.32069 0.51471 0.31914 0.0
C2603 C 0.24998 0.48731 0.24853 0.0
H2604 H 0.30535 0.55227 0.28919 0.0
C2605 C 0.25883 0.46599 0.26566 0.0
C2606 C 0.28289 0.47647 0.29256 0.0
H2607 H 0.22914 0.47959 0.23018 0.0
H2608 H 0.24523 0.44206 0.25996 0.0
C2609 C 0.30127 0.50693 0.29908 0.0
C2610 C 0.24621 0.43331 0.01625 0.0
C2611 C 0.2629 0.44888 0.04705 0.0
H2612 H 0.21103 0.43159 0.97646 0.0
C2613 C 0.2547 0.47393 0.06278 0.0
H2614 H 0.25193 0.41379 0.00354 0.0
C2615 C 0.23117 0.48434 0.04697 0.0
C2616 C 0.21607 0.47001 0.01512 0.0
H2617 H 0.26696 0.48588 0.08679 0.0
H2618 H 0.22601 0.50453 0.05892 0.0
C2619 C 0.22295 0.44367 0.00055 0.0
C2620 C 0.88293 0.90939 0.24029 0.0
C2621 C 0.89487 0.93533 0.26499 0.0
H2622 H 0.85408 0.86291 0.22665 0.0
C2623 C 0.88431 0.93511 0.29473 0.0
H2624 H 0.89093 0.90895 0.21732 0.0
C2625 C 0.86333 0.90865 0.3002 0.0
C2626 C 0.85284 0.88208 0.27603 0.0
H2627 H 0.89387 0.95456 0.31448 0.0
H2628 H 0.85692 0.90826 0.32393 0.0
C2629 C 0.86207 0.88305 0.24574 0.0
C2630 C 0.76414 0.17292 0.79802 0.0
C2631 C 0.75487 0.1555 0.76663 0.0
H2632 H 0.77763 0.21826 0.82608 0.0
C2633 C 0.75722 0.16952 0.73919 0.0
H2634 H 0.76198 0.16204 0.81927 0.0
C2635 C 0.76396 0.20126 0.74306 0.0
C2636 C 0.77002 0.2185 0.77422 0.0
H2637 H 0.74949 0.15609 0.71484 0.0
H2638 H 0.76229 0.21206 0.72188 0.0
C2639 C 0.77181 0.20467 0.80183 0.0
loop_
_geom_bond_atom_site_label_1
_geom_bond_atom_site_label_2
_geom_bond_distance
_geom_bond_site_symmetry_2
_ccdc_geom_bond_type
Zn0 O3 2.031 . S
Zn0 O5 2.049 . S
Zn0 O10 2.067 1_455 S
Zn1 O2 1.962 . S
Zn1 O4 1.986 . S
Zn1 O6 1.996 . S
Zn1 O9 1.943 . S
O2 Zn1 1.962 . S
O2 C7 1.254 . S
O3 Zn0 2.031 . S
O3 C7 1.269 . S
O4 Zn1 1.986 . S
O4 C11 1.262 . S
O5 Zn0 2.049 . S
O5 C13 1.260 . S
O6 Zn1 1.996 . S
O6 C13 1.257 . S
C7 O2 1.254 . S
C7 O3 1.269 . S
C8 O9 1.249 . S
C8 O10 1.270 1_455 S
O9 Zn1 1.943 . S
O9 C8 1.249 . S
O10 Zn0 2.067 1_655 S
O10 C8 1.270 1_655 S
C11 O4 1.262 . S
C11 O12 1.232 . S
O12 C11 1.232 . S
C13 O5 1.260 . S
C13 O6 1.257 . S
Zn14 O17 2.031 1_455 S
Zn14 O19 2.049 . S
Zn14 O24 2.067 . S
Zn15 O16 1.962 1_455 S
Zn15 O18 1.986 . S
Zn15 O20 1.996 . S
Zn15 O23 1.943 . S
O16 Zn15 1.962 1_655 S
O16 C21 1.254 . S
O17 Zn14 2.031 1_655 S
O17 C21 1.269 . S
O18 Zn15 1.986 . S
O18 C25 1.262 . S
O19 Zn14 2.049 . S
O19 C27 1.260 . S
O20 Zn15 1.996 . S
O20 C27 1.257 . S
C21 O16 1.254 . S
C21 O17 1.269 . S
C22 O23 1.249 . S
C22 O24 1.270 . S
O23 Zn15 1.943 . S
O23 C22 1.249 . S
O24 Zn14 2.067 . S
O24 C22 1.270 . S
C25 O18 1.262 . S
C25 O26 1.232 . S
O26 C25 1.232 . S
C27 O19 1.260 . S
C27 O20 1.257 . S
Zn28 O31 2.031 . S
Zn28 O33 2.049 . S
Zn28 O38 2.067 . S
Zn29 O30 1.962 . S
Zn29 O32 1.986 . S
Zn29 O34 1.996 . S
Zn29 O37 1.943 . S
O30 Zn29 1.962 . S
O30 C35 1.254 . S
O31 Zn28 2.031 . S
O31 C35 1.269 . S
O32 Zn29 1.986 . S
O32 C39 1.262 . S
O33 Zn28 2.049 . S
O33 C41 1.260 . S
O34 Zn29 1.996 . S
O34 C41 1.257 . S
C35 O30 1.254 . S
C35 O31 1.269 . S
C36 O37 1.249 . S
C36 O38 1.270 . S
O37 Zn29 1.943 . S
O37 C36 1.249 . S
O38 Zn28 2.067 . S
O38 C36 1.270 . S
C39 O32 1.262 . S
C39 O40 1.232 . S
O40 C39 1.232 . S
C41 O33 1.260 . S
C41 O34 1.257 . S
Zn42 O45 2.031 . S
Zn42 O47 2.049 . S
Zn42 O52 2.067 . S
Zn43 O44 1.962 . S
Zn43 O46 1.986 . S
Zn43 O48 1.996 . S
Zn43 O51 1.943 . S
O44 Zn43 1.962 . S
O44 C49 1.254 . S
O45 Zn42 2.031 . S
O45 C49 1.269 . S
O46 Zn43 1.986 . S
O46 C53 1.262 . S
O47 Zn42 2.049 . S
O47 C55 1.260 . S
O48 Zn43 1.996 . S
O48 C55 1.257 . S
C49 O44 1.254 . S
C49 O45 1.269 . S
C50 O51 1.249 . S
C50 O52 1.270 . S
O51 Zn43 1.943 . S
O51 C50 1.249 . S
O52 Zn42 2.067 . S
O52 C50 1.270 . S
C53 O46 1.262 . S
C53 O54 1.232 . S
O54 C53 1.232 . S
C55 O47 1.260 . S
C55 O48 1.257 . S
Zn56 O59 2.031 . S
Zn56 O61 2.049 . S
Zn56 O66 2.067 . S
Zn57 O58 1.962 . S
Zn57 O60 1.986 . S
Zn57 O62 1.996 . S
Zn57 O65 1.943 . S
O58 Zn57 1.962 . S
O58 C63 1.254 . S
O59 Zn56 2.031 . S
O59 C63 1.269 . S
O60 Zn57 1.986 . S
O60 C67 1.262 . S
O61 Zn56 2.049 . S
O61 C69 1.260 . S
O62 Zn57 1.996 . S
O62 C69 1.257 . S
C63 O58 1.254 . S
C63 O59 1.269 . S
C64 O65 1.249 . S
C64 O66 1.270 . S
O65 Zn57 1.943 . S
O65 C64 1.249 . S
O66 Zn56 2.067 . S
O66 C64 1.270 . S
C67 O60 1.262 . S
C67 O68 1.232 . S
O68 C67 1.232 . S
C69 O61 1.260 . S
C69 O62 1.257 . S
Zn70 O73 2.031 . S
Zn70 O75 2.049 . S
Zn70 O80 2.067 . S
Zn71 O72 1.962 . S
Zn71 O74 1.986 . S
Zn71 O76 1.996 . S
Zn71 O79 1.943 . S
O72 Zn71 1.962 . S
O72 C77 1.254 . S
O73 Zn70 2.031 . S
O73 C77 1.269 . S
O74 Zn71 1.986 . S
O74 C81 1.262 . S
O75 Zn70 2.049 . S
O75 C83 1.260 . S
O76 Zn71 1.996 . S
O76 C83 1.257 . S
C77 O72 1.254 . S
C77 O73 1.269 . S
C78 O79 1.249 . S
C78 O80 1.270 . S
O79 Zn71 1.943 . S
O79 C78 1.249 . S
O80 Zn70 2.067 . S
O80 C78 1.270 . S
C81 O74 1.262 . S
C81 O82 1.232 . S
O82 C81 1.232 . S
C83 O75 1.260 . S
C83 O76 1.257 . S
Zn84 O87 2.031 . S
Zn84 O89 2.049 . S
Zn84 O94 2.067 . S
Zn85 O86 1.962 . S
Zn85 O88 1.986 . S
Zn85 O90 1.996 . S
Zn85 O93 1.943 . S
O86 Zn85 1.962 . S
O86 C91 1.254 . S
O87 Zn84 2.031 . S
O87 C91 1.269 . S
O88 Zn85 1.986 . S
O88 C95 1.262 . S
O89 Zn84 2.049 . S
O89 C97 1.260 . S
O90 Zn85 1.996 . S
O90 C97 1.257 . S
C91 O86 1.254 . S
C91 O87 1.269 . S
C92 O93 1.249 . S
C92 O94 1.270 . S
O93 Zn85 1.943 . S
O93 C92 1.249 . S
O94 Zn84 2.067 . S
O94 C92 1.270 . S
C95 O88 1.262 . S
C95 O96 1.232 . S
O96 C95 1.232 . S
C97 O89 1.260 . S
C97 O90 1.257 . S
Zn98 O101 2.031 1_554 S
Zn98 O103 2.049 . S
Zn98 O108 2.067 1_554 S
Zn99 O100 1.962 . S
Zn99 O102 1.986 . S
Zn99 O104 1.996 . S
Zn99 O107 1.943 1_455 S
O100 Zn99 1.962 . S
O100 C105 1.254 1_556 S
O101 Zn98 2.031 1_556 S
O101 C105 1.269 1_656 S
O102 Zn99 1.986 . S
O102 C109 1.262 . S
O103 Zn98 2.049 . S
O103 C111 1.260 . S
O104 Zn99 1.996 . S
O104 C111 1.257 1_456 S
C105 O100 1.254 1_554 S
C105 O101 1.269 1_454 S
C106 O107 1.249 . S
C106 O108 1.270 . S
O107 Zn99 1.943 1_655 S
O107 C106 1.249 . S
O108 Zn98 2.067 1_556 S
O108 C106 1.270 . S
C109 O102 1.262 . S
C109 O110 1.232 . S
O110 C109 1.232 . S
C111 O103 1.260 . S
C111 O104 1.257 1_654 S
Zn112 O115 2.031 . S
Zn112 O117 2.049 . S
Zn112 O122 2.067 . S
Zn113 O114 1.962 . S
Zn113 O116 1.986 . S
Zn113 O118 1.996 . S
Zn113 O121 1.943 1_545 S
O114 Zn113 1.962 . S
O114 C119 1.254 . S
O115 Zn112 2.031 . S
O115 C119 1.269 1_565 S
O116 Zn113 1.986 . S
O116 C123 1.262 . S
O117 Zn112 2.049 . S
O117 C125 1.260 . S
O118 Zn113 1.996 . S
O118 C125 1.257 1_545 S
C119 O114 1.254 . S
C119 O115 1.269 1_545 S
C120 O121 1.249 . S
C120 O122 1.270 . S
O121 Zn113 1.943 1_565 S
O121 C120 1.249 . S
O122 Zn112 2.067 . S
O122 C120 1.270 . S
C123 O116 1.262 . S
C123 O124 1.232 . S
O124 C123 1.232 . S
C125 O117 1.260 . S
C125 O118 1.257 1_565 S
Zn126 O129 2.031 . S
Zn126 O131 2.049 . S
Zn126 O136 2.067 . S
Zn127 O128 1.962 . S
Zn127 O130 1.986 . S
Zn127 O132 1.996 . S
Zn127 O135 1.943 . S
O128 Zn127 1.962 . S
O128 C133 1.254 . S
O129 Zn126 2.031 . S
O129 C133 1.269 . S
O130 Zn127 1.986 . S
O130 C137 1.262 . S
O131 Zn126 2.049 . S
O131 C139 1.260 . S
O132 Zn127 1.996 . S
O132 C139 1.257 . S
C133 O128 1.254 . S
C133 O129 1.269 . S
C134 O135 1.249 . S
C134 O136 1.270 . S
O135 Zn127 1.943 . S
O135 C134 1.249 . S
O136 Zn126 2.067 . S
O136 C134 1.270 . S
C137 O130 1.262 . S
C137 O138 1.232 . S
O138 C137 1.232 . S
C139 O131 1.260 . S
C139 O132 1.257 . S
Zn140 O143 2.031 . S
Zn140 O145 2.049 . S
Zn140 O150 2.067 . S
Zn141 O142 1.962 . S
Zn141 O144 1.986 . S
Zn141 O146 1.996 . S
Zn141 O149 1.943 . S
O142 Zn141 1.962 . S
O142 C147 1.254 . S
O143 Zn140 2.031 . S
O143 C147 1.269 . S
O144 Zn141 1.986 . S
O144 C151 1.262 . S
O145 Zn140 2.049 . S
O145 C153 1.260 . S
O146 Zn141 1.996 . S
O146 C153 1.257 . S
C147 O142 1.254 . S
C147 O143 1.269 . S
C148 O149 1.249 . S
C148 O150 1.270 . S
O149 Zn141 1.943 . S
O149 C148 1.249 . S
O150 Zn140 2.067 . S
O150 C148 1.270 . S
C151 O144 1.262 . S
C151 O152 1.232 . S
O152 C151 1.232 . S
C153 O145 1.260 . S
C153 O146 1.257 . S
Zn154 O157 2.031 1_554 S
Zn154 O159 2.049 . S
Zn154 O164 2.067 . S
Zn155 O156 1.962 . S
Zn155 O158 1.986 1_556 S
Zn155 O160 1.996 1_556 S
Zn155 O163 1.943 1_556 S
O156 Zn155 1.962 . S
O156 C161 1.254 . S
O157 Zn154 2.031 1_556 S
O157 C161 1.269 . S
O158 Zn155 1.986 1_554 S
O158 C165 1.262 1_554 S
O159 Zn154 2.049 . S
O159 C167 1.260 . S
O160 Zn155 1.996 1_554 S
O160 C167 1.257 . S
C161 O156 1.254 . S
C161 O157 1.269 . S
C162 O163 1.249 . S
C162 O164 1.270 . S
O163 Zn155 1.943 1_554 S
O163 C162 1.249 . S
O164 Zn154 2.067 . S
O164 C162 1.270 . S
C165 O158 1.262 1_556 S
C165 O166 1.232 . S
O166 C165 1.232 . S
C167 O159 1.260 . S
C167 O160 1.257 . S
Zn168 O171 2.031 . S
Zn168 O173 2.049 . S
Zn168 O178 2.067 . S
Zn169 O170 1.962 . S
Zn169 O172 1.986 . S
Zn169 O174 1.996 . S
Zn169 O177 1.943 . S
O170 Zn169 1.962 . S
O170 C175 1.254 1_554 S
O171 Zn168 2.031 . S
O171 C175 1.269 1_554 S
O172 Zn169 1.986 . S
O172 C179 1.262 . S
O173 Zn168 2.049 . S
O173 C181 1.260 . S
O174 Zn169 1.996 . S
O174 C181 1.257 . S
C175 O170 1.254 1_556 S
C175 O171 1.269 1_556 S
C176 O177 1.249 . S
C176 O178 1.270 . S
O177 Zn169 1.943 . S
O177 C176 1.249 . S
O178 Zn168 2.067 . S
O178 C176 1.270 . S
C179 O172 1.262 . S
C179 O180 1.232 . S
O180 C179 1.232 . S
C181 O173 1.260 . S
C181 O174 1.257 . S
Zn182 O185 2.031 . S
Zn182 O187 2.049 . S
Zn182 O192 2.067 . S
Zn183 O184 1.962 . S
Zn183 O186 1.986 . S
Zn183 O188 1.996 . S
Zn183 O191 1.943 . S
O184 Zn183 1.962 . S
O184 C189 1.254 . S
O185 Zn182 2.031 . S
O185 C189 1.269 . S
O186 Zn183 1.986 . S
O186 C193 1.262 . S
O187 Zn182 2.049 . S
O187 C195 1.260 . S
O188 Zn183 1.996 . S
O188 C195 1.257 . S
C189 O184 1.254 . S
C189 O185 1.269 . S
C190 O191 1.249 . S
C190 O192 1.270 . S
O191 Zn183 1.943 . S
O191 C190 1.249 . S
O192 Zn182 2.067 . S
O192 C190 1.270 . S
C193 O186 1.262 . S
C193 O194 1.232 . S
O194 C193 1.232 . S
C195 O187 1.260 . S
C195 O188 1.257 . S
Zn196 O199 2.031 . S
Zn196 O201 2.049 . S
Zn196 O206 2.067 . S
Zn197 O198 1.962 . S
Zn197 O200 1.986 . S
Zn197 O202 1.996 . S
Zn197 O205 1.943 . S
O198 Zn197 1.962 . S
O198 C203 1.254 . S
O199 Zn196 2.031 . S
O199 C203 1.269 . S
O200 Zn197 1.986 . S
O200 C207 1.262 . S
O201 Zn196 2.049 . S
O201 C209 1.260 . S
O202 Zn197 1.996 . S
O202 C209 1.257 . S
C203 O198 1.254 . S
C203 O199 1.269 . S
C204 O205 1.249 . S
C204 O206 1.270 . S
O205 Zn197 1.943 . S
O205 C204 1.249 . S
O206 Zn196 2.067 . S
O206 C204 1.270 . S
C207 O200 1.262 . S
C207 O208 1.232 . S
O208 C207 1.232 . S
C209 O201 1.260 . S
C209 O202 1.257 . S
Zn210 O213 2.031 . S
Zn210 O215 2.049 . S
Zn210 O220 2.067 . S
Zn211 O212 1.962 . S
Zn211 O214 1.986 . S
Zn211 O216 1.996 . S
Zn211 O219 1.943 . S
O212 Zn211 1.962 . S
O212 C217 1.254 . S
O213 Zn210 2.031 . S
O213 C217 1.269 . S
O214 Zn211 1.986 . S
O214 C221 1.262 . S
O215 Zn210 2.049 . S
O215 C223 1.260 . S
O216 Zn211 1.996 . S
O216 C223 1.257 . S
C217 O212 1.254 . S
C217 O213 1.269 . S
C218 O219 1.249 . S
C218 O220 1.270 . S
O219 Zn211 1.943 . S
O219 C218 1.249 . S
O220 Zn210 2.067 . S
O220 C218 1.270 . S
C221 O214 1.262 . S
C221 O222 1.232 . S
O222 C221 1.232 . S
C223 O215 1.260 . S
C223 O216 1.257 . S
Zn224 O227 2.031 . S
Zn224 O229 2.049 . S
Zn224 O234 2.067 . S
Zn225 O226 1.962 . S
Zn225 O228 1.986 . S
Zn225 O230 1.996 . S
Zn225 O233 1.943 1_545 S
O226 Zn225 1.962 . S
O226 C231 1.254 . S
O227 Zn224 2.031 . S
O227 C231 1.269 1_565 S
O228 Zn225 1.986 . S
O228 C235 1.262 . S
O229 Zn224 2.049 . S
O229 C237 1.260 1_565 S
O230 Zn225 1.996 . S
O230 C237 1.257 . S
C231 O226 1.254 . S
C231 O227 1.269 1_545 S
C232 O233 1.249 . S
C232 O234 1.270 . S
O233 Zn225 1.943 1_565 S
O233 C232 1.249 . S
O234 Zn224 2.067 . S
O234 C232 1.270 . S
C235 O228 1.262 . S
C235 O236 1.232 . S
O236 C235 1.232 . S
C237 O229 1.260 1_545 S
C237 O230 1.257 . S
Zn238 O241 2.031 . S
Zn238 O243 2.049 . S
Zn238 O248 2.067 . S
Zn239 O240 1.962 . S
Zn239 O242 1.986 . S
Zn239 O244 1.996 . S
Zn239 O247 1.943 . S
O240 Zn239 1.962 . S
O240 C245 1.254 . S
O241 Zn238 2.031 . S
O241 C245 1.269 . S
O242 Zn239 1.986 . S
O242 C249 1.262 . S
O243 Zn238 2.049 . S
O243 C251 1.260 . S
O244 Zn239 1.996 . S
O244 C251 1.257 . S
C245 O240 1.254 . S
C245 O241 1.269 . S
C246 O247 1.249 . S
C246 O248 1.270 . S
O247 Zn239 1.943 . S
O247 C246 1.249 . S
O248 Zn238 2.067 . S
O248 C246 1.270 . S
C249 O242 1.262 . S
C249 O250 1.232 . S
O250 C249 1.232 . S
C251 O243 1.260 . S
C251 O244 1.257 . S
Zn252 O255 2.031 . S
Zn252 O257 2.049 . S
Zn252 O262 2.067 . S
Zn253 O254 1.962 . S
Zn253 O256 1.986 . S
Zn253 O258 1.996 . S
Zn253 O261 1.943 . S
O254 Zn253 1.962 . S
O254 C259 1.254 . S
O255 Zn252 2.031 . S
O255 C259 1.269 . S
O256 Zn253 1.986 . S
O256 C263 1.262 . S
O257 Zn252 2.049 . S
O257 C265 1.260 . S
O258 Zn253 1.996 . S
O258 C265 1.257 . S
C259 O254 1.254 . S
C259 O255 1.269 . S
C260 O261 1.249 . S
C260 O262 1.270 . S
O261 Zn253 1.943 . S
O261 C260 1.249 . S
O262 Zn252 2.067 . S
O262 C260 1.270 . S
C263 O256 1.262 . S
C263 O264 1.232 . S
O264 C263 1.232 . S
C265 O257 1.260 . S
C265 O258 1.257 . S
Zn266 O269 2.031 . S
Zn266 O271 2.049 . S
Zn266 O276 2.067 . S
Zn267 O268 1.962 . S
Zn267 O270 1.986 . S
Zn267 O272 1.996 . S
Zn267 O275 1.943 . S
O268 Zn267 1.962 . S
O268 C273 1.254 . S
O269 Zn266 2.031 . S
O269 C273 1.269 . S
O270 Zn267 1.986 . S
O270 C277 1.262 . S
O271 Zn266 2.049 . S
O271 C279 1.260 . S
O272 Zn267 1.996 . S
O272 C279 1.257 . S
C273 O268 1.254 . S
C273 O269 1.269 . S
C274 O275 1.249 . S
C274 O276 1.270 . S
O275 Zn267 1.943 . S
O275 C274 1.249 . S
O276 Zn266 2.067 . S
O276 C274 1.270 . S
C277 O270 1.262 . S
C277 O278 1.232 . S
O278 C277 1.232 . S
C279 O271 1.260 . S
C279 O272 1.257 . S
Zn280 O283 2.031 1_554 S
Zn280 O285 2.049 . S
Zn280 O290 2.067 . S
Zn281 O282 1.962 1_554 S
Zn281 O284 1.986 . S
Zn281 O286 1.996 . S
Zn281 O289 1.943 . S
O282 Zn281 1.962 1_556 S
O282 C287 1.254 . S
O283 Zn280 2.031 1_556 S
O283 C287 1.269 . S
O284 Zn281 1.986 . S
O284 C291 1.262 . S
O285 Zn280 2.049 . S
O285 C293 1.260 . S
O286 Zn281 1.996 . S
O286 C293 1.257 . S
C287 O282 1.254 . S
C287 O283 1.269 . S
C288 O289 1.249 . S
C288 O290 1.270 . S
O289 Zn281 1.943 . S
O289 C288 1.249 . S
O290 Zn280 2.067 . S
O290 C288 1.270 . S
C291 O284 1.262 . S
C291 O292 1.232 1_554 S
O292 C291 1.232 1_556 S
C293 O285 1.260 . S
C293 O286 1.257 . S
Zn294 O297 2.031 . S
Zn294 O299 2.049 . S
Zn294 O304 2.067 . S
Zn295 O296 1.962 . S
Zn295 O298 1.986 . S
Zn295 O300 1.996 . S
Zn295 O303 1.943 . S
O296 Zn295 1.962 . S
O296 C301 1.254 . S
O297 Zn294 2.031 . S
O297 C301 1.269 . S
O298 Zn295 1.986 . S
O298 C305 1.262 . S
O299 Zn294 2.049 . S
O299 C307 1.260 . S
O300 Zn295 1.996 . S
O300 C307 1.257 . S
C301 O296 1.254 . S
C301 O297 1.269 . S
C302 O303 1.249 . S
C302 O304 1.270 . S
O303 Zn295 1.943 . S
O303 C302 1.249 . S
O304 Zn294 2.067 . S
O304 C302 1.270 . S
C305 O298 1.262 . S
C305 O306 1.232 . S
O306 C305 1.232 . S
C307 O299 1.260 . S
C307 O300 1.257 . S
Zn308 O311 2.031 . S
Zn308 O313 2.049 . S
Zn308 O318 2.067 . S
Zn309 O310 1.962 . S
Zn309 O312 1.986 . S
Zn309 O314 1.996 . S
Zn309 O317 1.943 . S
O310 Zn309 1.962 . S
O310 C315 1.254 . S
O311 Zn308 2.031 . S
O311 C315 1.269 . S
O312 Zn309 1.986 . S
O312 C319 1.262 . S
O313 Zn308 2.049 . S
O313 C321 1.260 . S
O314 Zn309 1.996 . S
O314 C321 1.257 . S
C315 O310 1.254 . S
C315 O311 1.269 . S
C316 O317 1.249 . S
C316 O318 1.270 . S
O317 Zn309 1.943 . S
O317 C316 1.249 . S
O318 Zn308 2.067 . S
O318 C316 1.270 . S
C319 O312 1.262 . S
C319 O320 1.232 . S
O320 C319 1.232 . S
C321 O313 1.260 . S
C321 O314 1.257 . S
Zn322 O325 2.031 . S
Zn322 O327 2.049 . S
Zn322 O332 2.067 . S
Zn323 O324 1.962 . S
Zn323 O326 1.986 . S
Zn323 O328 1.996 . S
Zn323 O331 1.943 . S
O324 Zn323 1.962 . S
O324 C329 1.254 . S
O325 Zn322 2.031 . S
O325 C329 1.269 . S
O326 Zn323 1.986 . S
O326 C333 1.262 . S
O327 Zn322 2.049 . S
O327 C335 1.260 . S
O328 Zn323 1.996 . S
O328 C335 1.257 . S
C329 O324 1.254 . S
C329 O325 1.269 . S
C330 O331 1.249 . S
C330 O332 1.270 . S
O331 Zn323 1.943 . S
O331 C330 1.249 . S
O332 Zn322 2.067 . S
O332 C330 1.270 . S
C333 O326 1.262 . S
C333 O334 1.232 . S
O334 C333 1.232 . S
C335 O327 1.260 . S
C335 O328 1.257 . S
Eu336 N365 2.600 . S
Eu336 N371 2.562 . S
Eu336 O380 2.462 . S
Eu336 O381 2.373 . S
Eu336 O383 2.432 . S
Eu336 O384 2.291 . S
Eu336 O388 2.335 . S
Eu336 O391 2.372 . S
Eu336 C400 2.787 . S
C337 N338 1.365 . S
C337 C340 1.405 . S
C337 C344 1.448 1_556 S
N338 C337 1.365 . S
N338 C341 1.319 . S
N338 Eu347 2.600 1_566 S
C339 C341 1.397 . S
C339 C342 1.367 . S
C339 H359 0.931 . S
C340 C337 1.405 . S
C340 C342 1.403 . S
C340 C346 1.439 . S
C341 N338 1.319 . S
C341 C339 1.397 . S
C341 H352 0.930 . S
C342 C339 1.367 . S
C342 C340 1.403 . S
C342 H363 0.929 . S
C343 C344 1.430 . S
C343 C345 1.387 1_554 S
C343 C349 1.404 . S
C344 C337 1.448 1_554 S
C344 C343 1.430 . S
C344 N348 1.351 . S
C345 C343 1.387 1_556 S
C345 C346 1.374 . S
C345 H360 0.931 . S
C346 C340 1.439 . S
C346 C345 1.374 . S
C346 H361 0.931 . S
Eu347 N338 2.600 1_544 S
Eu347 N348 2.562 1_545 S
Eu347 O382 2.335 1_655 S
Eu347 O385 2.372 1_654 S
Eu347 O386 2.462 . S
Eu347 O387 2.373 1_645 S
Eu347 O389 2.432 1_554 S
Eu347 O390 2.291 1_655 S
Eu347 C411 2.787 . S
N348 C344 1.351 . S
N348 Eu347 2.562 1_565 S
N348 C350 1.325 . S
C349 C343 1.404 . S
C349 C351 1.366 . S
C349 H357 0.930 . S
C350 N348 1.325 . S
C350 C351 1.416 . S
C350 H356 0.929 . S
C351 C349 1.366 . S
C351 C350 1.416 . S
C351 H353 0.930 . S
H352 C341 0.930 . S
H353 C351 0.930 . S
H354 C369 0.930 . S
H355 C376 0.930 1_556 S
H356 C350 0.929 . S
H357 C349 0.930 . S
H358 C372 0.929 . S
H359 C339 0.931 . S
H360 C345 0.931 . S
H361 C346 0.931 . S
H362 C367 0.931 . S
H363 C342 0.929 . S
H364 C375 0.930 . S
N365 Eu336 2.600 . S
N365 C366 1.365 . S
N365 C369 1.319 . S
C366 N365 1.365 . S
C366 C368 1.405 . S
C366 C374 1.448 . S
C367 H362 0.931 . S
C367 C369 1.397 . S
C367 C370 1.367 . S
C368 C366 1.405 . S
C368 C370 1.403 . S
C368 C401 1.439 . S
C369 H354 0.930 . S
C369 N365 1.319 . S
C369 C367 1.397 . S
C370 C367 1.367 . S
C370 C368 1.403 . S
C370 H377 0.929 . S
N371 Eu336 2.562 . S
N371 C372 1.325 . S
N371 C374 1.351 . S
C372 H358 0.929 . S
C372 N371 1.325 . S
C372 C376 1.416 . S
C373 C374 1.430 . S
C373 C375 1.404 . S
C373 C402 1.387 . S
C374 C366 1.448 . S
C374 N371 1.351 . S
C374 C373 1.430 . S
C375 H364 0.930 . S
C375 C373 1.404 . S
C375 C376 1.366 . S
C376 H355 0.930 1_554 S
C376 C372 1.416 . S
C376 C375 1.366 . S
H377 C370 0.929 . S
H378 C401 0.931 . S
H379 C402 0.931 . S
O380 Eu336 2.462 . S
O380 C400 1.252 . S
O381 Eu336 2.373 . S
O381 C392 1.249 . S
O382 Eu347 2.335 1_455 S
O382 C392 1.264 . S
O383 Eu336 2.432 . S
O383 C400 1.268 . S
O384 Eu336 2.291 . S
O384 C399 1.255 1_554 S
O385 Eu347 2.372 1_456 S
O385 C399 1.257 . S
O386 Eu347 2.462 . S
O386 C411 1.252 . S
O387 Eu347 2.373 1_465 S
O387 C403 1.249 . S
O388 Eu336 2.335 . S
O388 C403 1.264 1_545 S
O389 Eu347 2.432 1_556 S
O389 C411 1.268 1_556 S
O390 Eu347 2.291 1_455 S
O390 C410 1.255 . S
O391 Eu336 2.372 . S
O391 C410 1.257 . S
C392 O381 1.249 . S
C392 O382 1.264 . S
C393 C396 1.382 . S
C393 C398 1.390 . S
C393 C400 1.506 . S
C394 C395 1.398 . S
C394 C398 1.392 . S
C395 C394 1.398 . S
C395 C397 1.372 . S
C395 H412 0.931 . S
C396 C393 1.382 . S
C396 C397 1.390 . S
C396 H413 0.931 . S
C397 C395 1.372 . S
C397 C396 1.390 . S
C397 H414 0.929 . S
C398 C393 1.390 . S
C398 C394 1.392 . S
C398 H415 0.930 . S
C399 O384 1.255 1_556 S
C399 O385 1.257 . S
C400 Eu336 2.787 . S
C400 O380 1.252 . S
C400 O383 1.268 . S
C400 C393 1.506 . S
C401 C368 1.439 . S
C401 H378 0.931 . S
C401 C402 1.374 . S
C402 C373 1.387 . S
C402 H379 0.931 . S
C402 C401 1.374 . S
C403 O387 1.249 . S
C403 O388 1.264 1_565 S
C404 C407 1.382 1_554 S
C404 C408 1.390 . S
C404 C411 1.506 . S
C405 C406 1.398 1_554 S
C405 C408 1.392 . S
C406 C405 1.398 1_556 S
C406 C409 1.372 . S
C406 H416 0.931 . S
C407 C404 1.382 1_556 S
C407 C409 1.390 . S
C407 H417 0.931 . S
C408 C404 1.390 . S
C408 C405 1.392 . S
C408 H418 0.930 . S
C409 C406 1.372 . S
C409 C407 1.390 . S
C409 H419 0.929 . S
C410 O390 1.255 . S
C410 O391 1.257 . S
C411 Eu347 2.787 . S
C411 O386 1.252 . S
C411 O389 1.268 1_554 S
C411 C404 1.506 . S
H412 C395 0.931 . S
H413 C396 0.931 . S
H414 C397 0.929 . S
H415 C398 0.930 . S
H416 C406 0.931 . S
H417 C407 0.931 . S
H418 C408 0.930 . S
H419 C409 0.929 . S
Eu420 N449 2.600 . S
Eu420 N455 2.562 . S
Eu420 O464 2.462 . S
Eu420 O465 2.373 . S
Eu420 O467 2.432 . S
Eu420 O468 2.291 . S
Eu420 O472 2.335 . S
Eu420 O475 2.372 . S
Eu420 C484 2.787 . S
C421 N422 1.365 . S
C421 C424 1.405 . S
C421 C428 1.448 . S
N422 C421 1.365 . S
N422 C425 1.319 . S
N422 Eu431 2.600 . S
C423 C425 1.397 . S
C423 C426 1.367 . S
C423 H443 0.931 . S
C424 C421 1.405 . S
C424 C426 1.403 . S
C424 C430 1.439 . S
C425 N422 1.319 . S
C425 C423 1.397 . S
C425 H436 0.930 . S
C426 C423 1.367 . S
C426 C424 1.403 . S
C426 H447 0.929 . S
C427 C428 1.430 . S
C427 C429 1.387 . S
C427 C433 1.404 . S
C428 C421 1.448 . S
C428 C427 1.430 . S
C428 N432 1.351 . S
C429 C427 1.387 . S
C429 C430 1.374 . S
C429 H444 0.931 . S
C430 C424 1.439 . S
C430 C429 1.374 . S
C430 H445 0.931 . S
Eu431 N422 2.600 . S
Eu431 N432 2.562 . S
Eu431 O466 2.335 . S
Eu431 O469 2.372 . S
Eu431 O470 2.462 . S
Eu431 O471 2.373 . S
Eu431 O473 2.432 . S
Eu431 O474 2.291 . S
Eu431 C495 2.787 . S
N432 C428 1.351 . S
N432 Eu431 2.562 . S
N432 C434 1.325 . S
C433 C427 1.404 . S
C433 C435 1.366 . S
C433 H441 0.930 . S
C434 N432 1.325 . S
C434 C435 1.416 . S
C434 H440 0.929 . S
C435 C433 1.366 . S
C435 C434 1.416 . S
C435 H437 0.930 . S
H436 C425 0.930 . S
H437 C435 0.930 . S
H438 C453 0.930 . S
H439 C460 0.930 . S
H440 C434 0.929 . S
H441 C433 0.930 . S
H442 C456 0.929 . S
H443 C423 0.931 . S
H444 C429 0.931 . S
H445 C430 0.931 . S
H446 C451 0.931 . S
H447 C426 0.929 . S
H448 C459 0.930 . S
N449 Eu420 2.600 . S
N449 C450 1.365 . S
N449 C453 1.319 . S
C450 N449 1.365 . S
C450 C452 1.405 . S
C450 C458 1.448 . S
C451 H446 0.931 . S
C451 C453 1.397 . S
C451 C454 1.367 . S
C452 C450 1.405 . S
C452 C454 1.403 . S
C452 C485 1.439 . S
C453 H438 0.930 . S
C453 N449 1.319 . S
C453 C451 1.397 . S
C454 C451 1.367 . S
C454 C452 1.403 . S
C454 H461 0.929 . S
N455 Eu420 2.562 . S
N455 C456 1.325 . S
N455 C458 1.351 . S
C456 H442 0.929 . S
C456 N455 1.325 . S
C456 C460 1.416 . S
C457 C458 1.430 . S
C457 C459 1.404 . S
C457 C486 1.387 . S
C458 C450 1.448 . S
C458 N455 1.351 . S
C458 C457 1.430 . S
C459 H448 0.930 . S
C459 C457 1.404 . S
C459 C460 1.366 . S
C460 H439 0.930 . S
C460 C456 1.416 . S
C460 C459 1.366 . S
H461 C454 0.929 . S
H462 C485 0.931 . S
H463 C486 0.931 . S
O464 Eu420 2.462 . S
O464 C484 1.252 . S
O465 Eu420 2.373 . S
O465 C476 1.249 . S
O466 Eu431 2.335 . S
O466 C476 1.264 . S
O467 Eu420 2.432 . S
O467 C484 1.268 . S
O468 Eu420 2.291 . S
O468 C483 1.255 . S
O469 Eu431 2.372 . S
O469 C483 1.257 . S
O470 Eu431 2.462 . S
O470 C495 1.252 . S
O471 Eu431 2.373 . S
O471 C487 1.249 . S
O472 Eu420 2.335 . S
O472 C487 1.264 . S
O473 Eu431 2.432 . S
O473 C495 1.268 . S
O474 Eu431 2.291 . S
O474 C494 1.255 . S
O475 Eu420 2.372 . S
O475 C494 1.257 . S
C476 O465 1.249 . S
C476 O466 1.264 . S
C477 C480 1.382 . S
C477 C482 1.390 . S
C477 C484 1.506 . S
C478 C479 1.398 . S
C478 C482 1.392 . S
C479 C478 1.398 . S
C479 C481 1.372 . S
C479 H496 0.931 . S
C480 C477 1.382 . S
C480 C481 1.390 . S
C480 H497 0.931 . S
C481 C479 1.372 . S
C481 C480 1.390 . S
C481 H498 0.929 . S
C482 C477 1.390 . S
C482 C478 1.392 . S
C482 H499 0.930 . S
C483 O468 1.255 . S
C483 O469 1.257 . S
C484 Eu420 2.787 . S
C484 O464 1.252 . S
C484 O467 1.268 . S
C484 C477 1.506 . S
C485 C452 1.439 . S
C485 H462 0.931 . S
C485 C486 1.374 . S
C486 C457 1.387 . S
C486 H463 0.931 . S
C486 C485 1.374 . S
C487 O471 1.249 . S
C487 O472 1.264 . S
C488 C491 1.382 . S
C488 C492 1.390 . S
C488 C495 1.506 . S
C489 C490 1.398 . S
C489 C492 1.392 . S
C490 C489 1.398 . S
C490 C493 1.372 . S
C490 H500 0.931 . S
C491 C488 1.382 . S
C491 C493 1.390 . S
C491 H501 0.931 . S
C492 C488 1.390 . S
C492 C489 1.392 . S
C492 H502 0.930 . S
C493 C490 1.372 . S
C493 C491 1.390 . S
C493 H503 0.929 . S
C494 O474 1.255 . S
C494 O475 1.257 . S
C495 Eu431 2.787 . S
C495 O470 1.252 . S
C495 O473 1.268 . S
C495 C488 1.506 . S
H496 C479 0.931 . S
H497 C480 0.931 . S
H498 C481 0.929 . S
H499 C482 0.930 . S
H500 C490 0.931 . S
H501 C491 0.931 . S
H502 C492 0.930 . S
H503 C493 0.929 . S
Eu504 N533 2.600 . S
Eu504 N539 2.562 1_545 S
Eu504 O548 2.462 . S
Eu504 O549 2.373 1_545 S
Eu504 O551 2.432 . S
Eu504 O552 2.291 . S
Eu504 O556 2.335 . S
Eu504 O559 2.372 . S
Eu504 C568 2.787 . S
C505 N506 1.365 . S
C505 C508 1.405 . S
C505 C512 1.448 . S
N506 C505 1.365 . S
N506 C509 1.319 . S
N506 Eu515 2.600 . S
C507 C509 1.397 . S
C507 C510 1.367 . S
C507 H527 0.931 . S
C508 C505 1.405 . S
C508 C510 1.403 . S
C508 C514 1.439 . S
C509 N506 1.319 . S
C509 C507 1.397 . S
C509 H520 0.930 . S
C510 C507 1.367 . S
C510 C508 1.403 . S
C510 H531 0.929 . S
C511 C512 1.430 . S
C511 C513 1.387 . S
C511 C517 1.404 . S
C512 C505 1.448 . S
C512 C511 1.430 . S
C512 N516 1.351 . S
C513 C511 1.387 . S
C513 C514 1.374 . S
C513 H528 0.931 . S
C514 C508 1.439 . S
C514 C513 1.374 . S
C514 H529 0.931 . S
Eu515 N506 2.600 . S
Eu515 N516 2.562 . S
Eu515 O550 2.335 1_545 S
Eu515 O553 2.372 . S
Eu515 O554 2.462 . S
Eu515 O555 2.373 . S
Eu515 O557 2.432 . S
Eu515 O558 2.291 . S
Eu515 C579 2.787 . S
N516 C512 1.351 . S
N516 Eu515 2.562 . S
N516 C518 1.325 . S
C517 C511 1.404 . S
C517 C519 1.366 . S
C517 H525 0.930 . S
C518 N516 1.325 . S
C518 C519 1.416 . S
C518 H524 0.929 . S
C519 C517 1.366 . S
C519 C518 1.416 . S
C519 H521 0.930 . S
H520 C509 0.930 . S
H521 C519 0.930 . S
H522 C537 0.930 . S
H523 C544 0.930 . S
H524 C518 0.929 . S
H525 C517 0.930 . S
H526 C540 0.929 . S
H527 C507 0.931 . S
H528 C513 0.931 . S
H529 C514 0.931 . S
H530 C535 0.931 . S
H531 C510 0.929 . S
H532 C543 0.930 . S
N533 Eu504 2.600 . S
N533 C534 1.365 1_545 S
N533 C537 1.319 . S
C534 N533 1.365 1_565 S
C534 C536 1.405 . S
C534 C542 1.448 . S
C535 H530 0.931 . S
C535 C537 1.397 1_565 S
C535 C538 1.367 . S
C536 C534 1.405 . S
C536 C538 1.403 . S
C536 C569 1.439 . S
C537 H522 0.930 . S
C537 N533 1.319 . S
C537 C535 1.397 1_545 S
C538 C535 1.367 . S
C538 C536 1.403 . S
C538 H545 0.929 . S
N539 Eu504 2.562 1_565 S
N539 C540 1.325 . S
N539 C542 1.351 . S
C540 H526 0.929 . S
C540 N539 1.325 . S
C540 C544 1.416 . S
C541 C542 1.430 . S
C541 C543 1.404 . S
C541 C570 1.387 . S
C542 C534 1.448 . S
C542 N539 1.351 . S
C542 C541 1.430 . S
C543 H532 0.930 . S
C543 C541 1.404 . S
C543 C544 1.366 . S
C544 H523 0.930 . S
C544 C540 1.416 . S
C544 C543 1.366 . S
H545 C538 0.929 . S
H546 C569 0.931 . S
H547 C570 0.931 . S
O548 Eu504 2.462 . S
O548 C568 1.252 . S
O549 Eu504 2.373 1_565 S
O549 C560 1.249 . S
O550 Eu515 2.335 1_565 S
O550 C560 1.264 . S
O551 Eu504 2.432 . S
O551 C568 1.268 . S
O552 Eu504 2.291 . S
O552 C567 1.255 . S
O553 Eu515 2.372 . S
O553 C567 1.257 . S
O554 Eu515 2.462 . S
O554 C579 1.252 . S
O555 Eu515 2.373 . S
O555 C571 1.249 . S
O556 Eu504 2.335 . S
O556 C571 1.264 . S
O557 Eu515 2.432 . S
O557 C579 1.268 . S
O558 Eu515 2.291 . S
O558 C578 1.255 . S
O559 Eu504 2.372 . S
O559 C578 1.257 . S
C560 O549 1.249 . S
C560 O550 1.264 . S
C561 C564 1.382 . S
C561 C566 1.390 . S
C561 C568 1.506 . S
C562 C563 1.398 . S
C562 C566 1.392 . S
C563 C562 1.398 . S
C563 C565 1.372 . S
C563 H580 0.931 . S
C564 C561 1.382 . S
C564 C565 1.390 . S
C564 H581 0.931 . S
C565 C563 1.372 . S
C565 C564 1.390 . S
C565 H582 0.929 . S
C566 C561 1.390 . S
C566 C562 1.392 . S
C566 H583 0.930 . S
C567 O552 1.255 . S
C567 O553 1.257 . S
C568 Eu504 2.787 . S
C568 O548 1.252 . S
C568 O551 1.268 . S
C568 C561 1.506 . S
C569 C536 1.439 . S
C569 H546 0.931 . S
C569 C570 1.374 . S
C570 C541 1.387 . S
C570 H547 0.931 . S
C570 C569 1.374 . S
C571 O555 1.249 . S
C571 O556 1.264 . S
C572 C575 1.382 . S
C572 C576 1.390 . S
C572 C579 1.506 1_565 S
C573 C574 1.398 . S
C573 C576 1.392 . S
C574 C573 1.398 . S
C574 C577 1.372 . S
C574 H584 0.931 . S
C575 C572 1.382 . S
C575 C577 1.390 . S
C575 H585 0.931 . S
C576 C572 1.390 . S
C576 C573 1.392 . S
C576 H586 0.930 . S
C577 C574 1.372 . S
C577 C575 1.390 . S
C577 H587 0.929 . S
C578 O558 1.255 . S
C578 O559 1.257 . S
C579 Eu515 2.787 . S
C579 O554 1.252 . S
C579 O557 1.268 . S
C579 C572 1.506 1_545 S
H580 C563 0.931 . S
H581 C564 0.931 . S
H582 C565 0.929 . S
H583 C566 0.930 . S
H584 C574 0.931 . S
H585 C575 0.931 . S
H586 C576 0.930 . S
H587 C577 0.929 . S
Eu588 N617 2.600 . S
Eu588 N623 2.562 . S
Eu588 O632 2.462 . S
Eu588 O633 2.373 . S
Eu588 O635 2.432 . S
Eu588 O636 2.291 . S
Eu588 O640 2.335 . S
Eu588 O643 2.372 . S
Eu588 C652 2.787 . S
C589 N590 1.365 . S
C589 C592 1.405 . S
C589 C596 1.448 . S
N590 C589 1.365 . S
N590 C593 1.319 . S
N590 Eu599 2.600 . S
C591 C593 1.397 . S
C591 C594 1.367 . S
C591 H611 0.931 . S
C592 C589 1.405 . S
C592 C594 1.403 . S
C592 C598 1.439 . S
C593 N590 1.319 . S
C593 C591 1.397 . S
C593 H604 0.930 . S
C594 C591 1.367 . S
C594 C592 1.403 . S
C594 H615 0.929 . S
C595 C596 1.430 . S
C595 C597 1.387 . S
C595 C601 1.404 . S
C596 C589 1.448 . S
C596 C595 1.430 . S
C596 N600 1.351 . S
C597 C595 1.387 . S
C597 C598 1.374 . S
C597 H612 0.931 . S
C598 C592 1.439 . S
C598 C597 1.374 . S
C598 H613 0.931 . S
Eu599 N590 2.600 . S
Eu599 N600 2.562 . S
Eu599 O634 2.335 . S
Eu599 O637 2.372 . S
Eu599 O638 2.462 . S
Eu599 O639 2.373 . S
Eu599 O641 2.432 . S
Eu599 O642 2.291 . S
Eu599 C663 2.787 . S
N600 C596 1.351 . S
N600 Eu599 2.562 . S
N600 C602 1.325 . S
C601 C595 1.404 . S
C601 C603 1.366 . S
C601 H609 0.930 . S
C602 N600 1.325 . S
C602 C603 1.416 . S
C602 H608 0.929 . S
C603 C601 1.366 . S
C603 C602 1.416 . S
C603 H605 0.930 . S
H604 C593 0.930 . S
H605 C603 0.930 . S
H606 C621 0.930 . S
H607 C628 0.930 . S
H608 C602 0.929 . S
H609 C601 0.930 . S
H610 C624 0.929 . S
H611 C591 0.931 . S
H612 C597 0.931 . S
H613 C598 0.931 . S
H614 C619 0.931 . S
H615 C594 0.929 . S
H616 C627 0.930 . S
N617 Eu588 2.600 . S
N617 C618 1.365 . S
N617 C621 1.319 . S
C618 N617 1.365 . S
C618 C620 1.405 . S
C618 C626 1.448 . S
C619 H614 0.931 . S
C619 C621 1.397 . S
C619 C622 1.367 . S
C620 C618 1.405 . S
C620 C622 1.403 . S
C620 C653 1.439 . S
C621 H606 0.930 . S
C621 N617 1.319 . S
C621 C619 1.397 . S
C622 C619 1.367 . S
C622 C620 1.403 . S
C622 H629 0.929 . S
N623 Eu588 2.562 . S
N623 C624 1.325 . S
N623 C626 1.351 . S
C624 H610 0.929 . S
C624 N623 1.325 . S
C624 C628 1.416 . S
C625 C626 1.430 . S
C625 C627 1.404 . S
C625 C654 1.387 . S
C626 C618 1.448 . S
C626 N623 1.351 . S
C626 C625 1.430 . S
C627 H616 0.930 . S
C627 C625 1.404 . S
C627 C628 1.366 . S
C628 H607 0.930 . S
C628 C624 1.416 . S
C628 C627 1.366 . S
H629 C622 0.929 . S
H630 C653 0.931 . S
H631 C654 0.931 . S
O632 Eu588 2.462 . S
O632 C652 1.252 . S
O633 Eu588 2.373 . S
O633 C644 1.249 . S
O634 Eu599 2.335 . S
O634 C644 1.264 . S
O635 Eu588 2.432 . S
O635 C652 1.268 . S
O636 Eu588 2.291 . S
O636 C651 1.255 . S
O637 Eu599 2.372 . S
O637 C651 1.257 . S
O638 Eu599 2.462 . S
O638 C663 1.252 . S
O639 Eu599 2.373 . S
O639 C655 1.249 . S
O640 Eu588 2.335 . S
O640 C655 1.264 . S
O641 Eu599 2.432 . S
O641 C663 1.268 . S
O642 Eu599 2.291 . S
O642 C662 1.255 . S
O643 Eu588 2.372 . S
O643 C662 1.257 . S
C644 O633 1.249 . S
C644 O634 1.264 . S
C645 C648 1.382 . S
C645 C650 1.390 . S
C645 C652 1.506 . S
C646 C647 1.398 . S
C646 C650 1.392 . S
C647 C646 1.398 . S
C647 C649 1.372 . S
C647 H664 0.931 . S
C648 C645 1.382 . S
C648 C649 1.390 . S
C648 H665 0.931 . S
C649 C647 1.372 . S
C649 C648 1.390 . S
C649 H666 0.929 . S
C650 C645 1.390 . S
C650 C646 1.392 . S
C650 H667 0.930 . S
C651 O636 1.255 . S
C651 O637 1.257 . S
C652 Eu588 2.787 . S
C652 O632 1.252 . S
C652 O635 1.268 . S
C652 C645 1.506 . S
C653 C620 1.439 . S
C653 H630 0.931 . S
C653 C654 1.374 . S
C654 C625 1.387 . S
C654 H631 0.931 . S
C654 C653 1.374 . S
C655 O639 1.249 . S
C655 O640 1.264 . S
C656 C659 1.382 . S
C656 C660 1.390 . S
C656 C663 1.506 . S
C657 C658 1.398 . S
C657 C660 1.392 . S
C658 C657 1.398 . S
C658 C661 1.372 . S
C658 H668 0.931 . S
C659 C656 1.382 . S
C659 C661 1.390 . S
C659 H669 0.931 . S
C660 C656 1.390 . S
C660 C657 1.392 . S
C660 H670 0.930 . S
C661 C658 1.372 . S
C661 C659 1.390 . S
C661 H671 0.929 . S
C662 O642 1.255 . S
C662 O643 1.257 . S
C663 Eu599 2.787 . S
C663 O638 1.252 . S
C663 O641 1.268 . S
C663 C656 1.506 . S
H664 C647 0.931 . S
H665 C648 0.931 . S
H666 C649 0.929 . S
H667 C650 0.930 . S
H668 C658 0.931 . S
H669 C659 0.931 . S
H670 C660 0.930 . S
H671 C661 0.929 . S
Eu672 N701 2.587 1_545 S
Eu672 N707 2.540 1_545 S
Eu672 O716 2.433 1_545 S
Eu672 O717 2.393 . S
Eu672 O719 2.405 1_545 S
Eu672 O720 2.302 . S
Eu672 O724 2.347 . S
Eu672 O727 2.394 . S
Eu672 C736 2.755 1_545 S
C673 N674 1.365 1_455 S
C673 C676 1.405 1_455 S
C673 C680 1.448 . S
N674 C673 1.365 1_655 S
N674 C677 1.319 . S
N674 Eu683 2.600 1_655 S
C675 C677 1.397 . S
C675 C678 1.367 . S
C675 H695 0.931 . S
C676 C673 1.405 1_655 S
C676 C678 1.403 . S
C676 C682 1.439 1_655 S
C677 N674 1.319 . S
C677 C675 1.397 . S
C677 H688 0.930 . S
C678 C675 1.367 . S
C678 C676 1.403 . S
C678 H699 0.929 . S
C679 C680 1.430 . S
C679 C681 1.387 . S
C679 C685 1.404 . S
C680 C673 1.448 . S
C680 C679 1.430 . S
C680 N684 1.351 . S
C681 C679 1.387 . S
C681 C682 1.374 . S
C681 H696 0.931 . S
C682 C676 1.439 1_455 S
C682 C681 1.374 . S
C682 H697 0.931 . S
Eu683 N674 2.600 1_455 S
Eu683 N684 2.562 . S
Eu683 O718 2.335 . S
Eu683 O721 2.372 1_455 S
Eu683 O722 2.462 . S
Eu683 O723 2.373 . S
Eu683 O725 2.432 1_455 S
Eu683 O726 2.291 . S
Eu683 C747 2.787 . S
N684 C680 1.351 . S
N684 Eu683 2.562 . S
N684 C686 1.325 . S
C685 C679 1.404 . S
C685 C687 1.366 . S
C685 H693 0.930 . S
C686 N684 1.325 . S
C686 C687 1.416 . S
C686 H692 0.929 . S
C687 C685 1.366 . S
C687 C686 1.416 . S
C687 H689 0.930 . S
H688 C677 0.930 . S
H689 C687 0.930 . S
H690 C705 0.930 1_545 S
H691 C712 0.930 . S
H692 C686 0.929 . S
H693 C685 0.930 . S
H694 C708 0.929 . S
H695 C675 0.931 . S
H696 C681 0.931 . S
H697 C682 0.931 . S
H698 C703 0.931 1_545 S
H699 C678 0.929 . S
H700 C711 0.930 . S
N701 Eu672 2.587 1_565 S
N701 C702 1.365 . S
N701 C705 1.319 . S
C702 N701 1.365 . S
C702 C704 1.405 . S
C702 C710 1.448 . S
C703 H698 0.931 1_565 S
C703 C705 1.397 . S
C703 C706 1.367 . S
C704 C702 1.405 . S
C704 C706 1.403 . S
C704 C737 1.439 . S
C705 H690 0.930 1_565 S
C705 N701 1.319 . S
C705 C703 1.397 . S
C706 C703 1.367 . S
C706 C704 1.403 . S
C706 H713 0.929 . S
N707 Eu672 2.540 1_565 S
N707 C708 1.325 1_455 S
N707 C710 1.351 . S
C708 H694 0.929 . S
C708 N707 1.325 1_655 S
C708 C712 1.416 . S
C709 C710 1.430 . S
C709 C711 1.404 1_455 S
C709 C738 1.387 . S
C710 C702 1.448 . S
C710 N707 1.351 . S
C710 C709 1.430 . S
C711 H700 0.930 . S
C711 C709 1.404 1_655 S
C711 C712 1.366 . S
C712 H691 0.930 . S
C712 C708 1.416 . S
C712 C711 1.366 . S
H713 C706 0.929 . S
H714 C737 0.931 . S
H715 C738 0.931 . S
O716 Eu672 2.433 1_565 S
O716 C736 1.252 . S
O717 Eu672 2.393 . S
O717 C728 1.249 . S
O718 Eu683 2.335 . S
O718 C728 1.264 . S
O719 Eu672 2.405 1_565 S
O719 C736 1.268 . S
O720 Eu672 2.302 . S
O720 C735 1.255 1_455 S
O721 Eu683 2.372 1_655 S
O721 C735 1.257 . S
O722 Eu683 2.462 . S
O722 C747 1.252 . S
O723 Eu683 2.373 . S
O723 C739 1.249 . S
O724 Eu672 2.347 . S
O724 C739 1.264 . S
O725 Eu683 2.432 1_655 S
O725 C747 1.268 1_655 S
O726 Eu683 2.291 . S
O726 C746 1.255 . S
O727 Eu672 2.394 . S
O727 C746 1.257 . S
C728 O717 1.249 . S
C728 O718 1.264 . S
C729 C732 1.382 . S
C729 C734 1.390 . S
C729 C736 1.506 . S
C730 C731 1.398 . S
C730 C734 1.392 . S
C731 C730 1.398 . S
C731 C733 1.372 . S
C731 H748 0.931 . S
C732 C729 1.382 . S
C732 C733 1.390 . S
C732 H749 0.931 . S
C733 C731 1.372 . S
C733 C732 1.390 . S
C733 H750 0.929 . S
C734 C729 1.390 . S
C734 C730 1.392 . S
C734 H751 0.930 . S
C735 O720 1.255 1_655 S
C735 O721 1.257 . S
C736 Eu672 2.755 1_565 S
C736 O716 1.252 . S
C736 O719 1.268 . S
C736 C729 1.506 . S
C737 C704 1.439 . S
C737 H714 0.931 . S
C737 C738 1.374 . S
C738 C709 1.387 . S
C738 H715 0.931 . S
C738 C737 1.374 . S
C739 O723 1.249 . S
C739 O724 1.264 . S
C740 C743 1.382 1_455 S
C740 C744 1.390 . S
C740 C747 1.506 . S
C741 C742 1.423 . S
C741 C744 1.392 . S
C742 C741 1.423 . S
C742 C745 1.355 1_455 S
C742 H752 0.923 1_455 S
C743 C740 1.382 1_655 S
C743 C745 1.390 . S
C743 H753 0.931 . S
C744 C740 1.390 . S
C744 C741 1.392 . S
C744 H754 0.930 . S
C745 C742 1.355 1_655 S
C745 C743 1.390 . S
C745 H755 0.929 . S
C746 O726 1.255 . S
C746 O727 1.257 . S
C747 Eu683 2.787 . S
C747 O722 1.252 . S
C747 O725 1.268 1_455 S
C747 C740 1.506 . S
H748 C731 0.931 . S
H749 C732 0.931 . S
H750 C733 0.929 . S
H751 C734 0.930 . S
H752 C742 0.923 1_655 S
H753 C743 0.931 . S
H754 C744 0.930 . S
H755 C745 0.929 . S
Eu756 N785 2.600 . S
Eu756 N791 2.562 . S
Eu756 O800 2.462 . S
Eu756 O801 2.373 . S
Eu756 O803 2.432 . S
Eu756 O804 2.291 . S
Eu756 O808 2.335 . S
Eu756 O811 2.372 . S
Eu756 C820 2.787 . S
C757 N758 1.365 . S
C757 C760 1.405 . S
C757 C764 1.448 . S
N758 C757 1.365 . S
N758 C761 1.319 . S
N758 Eu767 2.600 . S
C759 C761 1.397 . S
C759 C762 1.367 . S
C759 H779 0.931 . S
C760 C757 1.405 . S
C760 C762 1.403 . S
C760 C766 1.439 . S
C761 N758 1.319 . S
C761 C759 1.397 . S
C761 H772 0.930 . S
C762 C759 1.367 . S
C762 C760 1.403 . S
C762 H783 0.929 . S
C763 C764 1.430 . S
C763 C765 1.387 . S
C763 C769 1.404 . S
C764 C757 1.448 . S
C764 C763 1.430 . S
C764 N768 1.351 . S
C765 C763 1.387 . S
C765 C766 1.374 . S
C765 H780 0.931 . S
C766 C760 1.439 . S
C766 C765 1.374 . S
C766 H781 0.931 . S
Eu767 N758 2.600 . S
Eu767 N768 2.562 . S
Eu767 O802 2.335 . S
Eu767 O805 2.372 . S
Eu767 O806 2.462 . S
Eu767 O807 2.373 . S
Eu767 O809 2.432 . S
Eu767 O810 2.291 . S
Eu767 C831 2.787 . S
N768 C764 1.351 . S
N768 Eu767 2.562 . S
N768 C770 1.325 . S
C769 C763 1.404 . S
C769 C771 1.366 . S
C769 H777 0.930 . S
C770 N768 1.325 . S
C770 C771 1.416 . S
C770 H776 0.929 . S
C771 C769 1.366 . S
C771 C770 1.416 . S
C771 H773 0.930 . S
H772 C761 0.930 . S
H773 C771 0.930 . S
H774 C789 0.930 . S
H775 C796 0.930 . S
H776 C770 0.929 . S
H777 C769 0.930 . S
H778 C792 0.929 . S
H779 C759 0.931 . S
H780 C765 0.931 . S
H781 C766 0.931 . S
H782 C787 0.931 . S
H783 C762 0.929 . S
H784 C795 0.930 . S
N785 Eu756 2.600 . S
N785 C786 1.365 . S
N785 C789 1.319 . S
C786 N785 1.365 . S
C786 C788 1.405 . S
C786 C794 1.448 . S
C787 H782 0.931 . S
C787 C789 1.397 . S
C787 C790 1.367 . S
C788 C786 1.405 . S
C788 C790 1.403 . S
C788 C821 1.439 . S
C789 H774 0.930 . S
C789 N785 1.319 . S
C789 C787 1.397 . S
C790 C787 1.367 . S
C790 C788 1.403 . S
C790 H797 0.929 . S
N791 Eu756 2.562 . S
N791 C792 1.325 . S
N791 C794 1.351 . S
C792 H778 0.929 . S
C792 N791 1.325 . S
C792 C796 1.416 . S
C793 C794 1.430 . S
C793 C795 1.404 . S
C793 C822 1.387 . S
C794 C786 1.448 . S
C794 N791 1.351 . S
C794 C793 1.430 . S
C795 H784 0.930 . S
C795 C793 1.404 . S
C795 C796 1.366 . S
C796 H775 0.930 . S
C796 C792 1.416 . S
C796 C795 1.366 . S
H797 C790 0.929 . S
H798 C821 0.931 . S
H799 C822 0.931 . S
O800 Eu756 2.462 . S
O800 C820 1.252 . S
O801 Eu756 2.373 . S
O801 C812 1.249 . S
O802 Eu767 2.335 . S
O802 C812 1.264 . S
O803 Eu756 2.432 . S
O803 C820 1.268 . S
O804 Eu756 2.291 . S
O804 C819 1.255 . S
O805 Eu767 2.372 . S
O805 C819 1.257 . S
O806 Eu767 2.462 . S
O806 C831 1.252 . S
O807 Eu767 2.373 . S
O807 C823 1.249 . S
O808 Eu756 2.335 . S
O808 C823 1.264 . S
O809 Eu767 2.432 . S
O809 C831 1.268 . S
O810 Eu767 2.291 . S
O810 C830 1.255 . S
O811 Eu756 2.372 . S
O811 C830 1.257 . S
C812 O801 1.249 . S
C812 O802 1.264 . S
C813 C816 1.382 . S
C813 C818 1.390 . S
C813 C820 1.506 . S
C814 C815 1.398 . S
C814 C818 1.392 . S
C815 C814 1.398 . S
C815 C817 1.372 . S
C815 H832 0.931 . S
C816 C813 1.382 . S
C816 C817 1.390 . S
C816 H833 0.931 . S
C817 C815 1.372 . S
C817 C816 1.390 . S
C817 H834 0.929 . S
C818 C813 1.390 . S
C818 C814 1.392 . S
C818 H835 0.930 . S
C819 O804 1.255 . S
C819 O805 1.257 . S
C820 Eu756 2.787 . S
C820 O800 1.252 . S
C820 O803 1.268 . S
C820 C813 1.506 . S
C821 C788 1.439 . S
C821 H798 0.931 . S
C821 C822 1.374 . S
C822 C793 1.387 . S
C822 H799 0.931 . S
C822 C821 1.374 . S
C823 O807 1.249 . S
C823 O808 1.264 . S
C824 C827 1.382 . S
C824 C828 1.390 . S
C824 C831 1.506 . S
C825 C826 1.398 . S
C825 C828 1.392 . S
C826 C825 1.398 . S
C826 C829 1.372 . S
C826 H836 0.931 . S
C827 C824 1.382 . S
C827 C829 1.390 . S
C827 H837 0.931 . S
C828 C824 1.390 . S
C828 C825 1.392 . S
C828 H838 0.930 . S
C829 C826 1.372 . S
C829 C827 1.390 . S
C829 H839 0.929 . S
C830 O810 1.255 . S
C830 O811 1.257 . S
C831 Eu767 2.787 . S
C831 O806 1.252 . S
C831 O809 1.268 . S
C831 C824 1.506 . S
H832 C815 0.931 . S
H833 C816 0.931 . S
H834 C817 0.929 . S
H835 C818 0.930 . S
H836 C826 0.931 . S
H837 C827 0.931 . S
H838 C828 0.930 . S
H839 C829 0.929 . S
Eu840 N869 2.600 . S
Eu840 N875 2.562 . S
Eu840 O884 2.462 . S
Eu840 O885 2.373 1_556 S
Eu840 O887 2.432 . S
Eu840 O888 2.291 . S
Eu840 O892 2.335 1_556 S
Eu840 O895 2.372 1_556 S
Eu840 C904 2.787 . S
C841 N842 1.365 1_545 S
C841 C844 1.405 1_545 S
C841 C848 1.448 . S
N842 C841 1.365 1_565 S
N842 C845 1.319 . S
N842 Eu851 2.600 1_565 S
C843 C845 1.397 . S
C843 C846 1.367 . S
C843 H863 0.931 . S
C844 C841 1.405 1_565 S
C844 C846 1.403 . S
C844 C850 1.439 1_565 S
C845 N842 1.319 . S
C845 C843 1.397 . S
C845 H856 0.930 . S
C846 C843 1.367 . S
C846 C844 1.403 . S
C846 H867 0.929 . S
C847 C848 1.430 . S
C847 C849 1.387 . S
C847 C853 1.404 . S
C848 C841 1.448 . S
C848 C847 1.430 . S
C848 N852 1.351 . S
C849 C847 1.387 . S
C849 C850 1.374 . S
C849 H864 0.931 . S
C850 C844 1.439 1_545 S
C850 C849 1.374 . S
C850 H865 0.931 1_545 S
Eu851 N842 2.600 1_545 S
Eu851 N852 2.562 . S
Eu851 O886 2.335 . S
Eu851 O889 2.372 1_545 S
Eu851 O890 2.462 . S
Eu851 O891 2.373 . S
Eu851 O893 2.432 1_545 S
Eu851 O894 2.291 . S
Eu851 C915 2.787 . S
N852 C848 1.351 . S
N852 Eu851 2.562 . S
N852 C854 1.325 . S
C853 C847 1.404 . S
C853 C855 1.366 . S
C853 H861 0.930 . S
C854 N852 1.325 . S
C854 C855 1.416 . S
C854 H860 0.929 . S
C855 C853 1.366 . S
C855 C854 1.416 . S
C855 H857 0.930 . S
H856 C845 0.930 . S
H857 C855 0.930 . S
H858 C873 0.930 1_554 S
H859 C880 0.925 1_565 S
H860 C854 0.929 . S
H861 C853 0.930 . S
H862 C876 0.929 . S
H863 C843 0.931 . S
H864 C849 0.931 . S
H865 C850 0.931 1_565 S
H866 C871 0.931 . S
H867 C846 0.929 . S
H868 C879 0.930 . S
N869 Eu840 2.600 . S
N869 C870 1.365 . S
N869 C873 1.319 . S
C870 N869 1.365 . S
C870 C872 1.405 . S
C870 C878 1.448 . S
C871 H866 0.931 . S
C871 C873 1.397 . S
C871 C874 1.367 . S
C872 C870 1.405 . S
C872 C874 1.403 . S
C872 C905 1.439 . S
C873 H858 0.930 1_556 S
C873 N869 1.319 . S
C873 C871 1.397 . S
C874 C871 1.367 . S
C874 C872 1.403 . S
C874 H881 0.929 . S
N875 Eu840 2.562 . S
N875 C876 1.325 . S
N875 C878 1.351 . S
C876 H862 0.929 . S
C876 N875 1.325 . S
C876 C880 1.417 . S
C877 C878 1.430 . S
C877 C879 1.404 . S
C877 C906 1.387 . S
C878 C870 1.448 . S
C878 N875 1.351 . S
C878 C877 1.430 . S
C879 H868 0.930 . S
C879 C877 1.404 . S
C879 C880 1.370 . S
C880 H859 0.925 1_545 S
C880 C876 1.417 . S
C880 C879 1.370 . S
H881 C874 0.929 . S
H882 C905 0.931 . S
H883 C906 0.931 . S
O884 Eu840 2.462 . S
O884 C904 1.252 . S
O885 Eu840 2.373 1_554 S
O885 C896 1.249 . S
O886 Eu851 2.335 . S
O886 C896 1.264 . S
O887 Eu840 2.432 . S
O887 C904 1.268 . S
O888 Eu840 2.291 . S
O888 C903 1.255 1_546 S
O889 Eu851 2.372 1_565 S
O889 C903 1.257 . S
O890 Eu851 2.462 . S
O890 C915 1.252 . S
O891 Eu851 2.373 . S
O891 C907 1.249 . S
O892 Eu840 2.335 1_554 S
O892 C907 1.264 . S
O893 Eu851 2.432 1_565 S
O893 C915 1.268 1_565 S
O894 Eu851 2.291 . S
O894 C914 1.255 . S
O895 Eu840 2.372 1_554 S
O895 C914 1.257 . S
C896 O885 1.249 . S
C896 O886 1.264 . S
C897 C900 1.382 . S
C897 C902 1.390 . S
C897 C904 1.506 . S
C898 C899 1.398 . S
C898 C902 1.392 . S
C899 C898 1.398 . S
C899 C901 1.372 . S
C899 H916 0.931 . S
C900 C897 1.382 . S
C900 C901 1.390 . S
C900 H917 0.931 . S
C901 C899 1.372 . S
C901 C900 1.390 . S
C901 H918 0.929 . S
C902 C897 1.390 . S
C902 C898 1.392 . S
C902 H919 0.930 . S
C903 O888 1.255 1_564 S
C903 O889 1.257 . S
C904 Eu840 2.787 . S
C904 O884 1.252 . S
C904 O887 1.268 . S
C904 C897 1.506 . S
C905 C872 1.439 . S
C905 H882 0.931 . S
C905 C906 1.374 . S
C906 C877 1.387 . S
C906 H883 0.931 . S
C906 C905 1.374 . S
C907 O891 1.249 . S
C907 O892 1.264 . S
C908 C911 1.382 . S
C908 C912 1.390 1_565 S
C908 C915 1.506 1_565 S
C909 C910 1.398 1_545 S
C909 C912 1.392 . S
C910 C909 1.398 1_565 S
C910 C913 1.372 . S
C910 H920 0.931 . S
C911 C908 1.382 . S
C911 C913 1.390 . S
C911 H921 0.931 . S
C912 C908 1.390 1_545 S
C912 C909 1.392 . S
C912 H922 0.930 . S
C913 C910 1.372 . S
C913 C911 1.390 . S
C913 H923 0.929 . S
C914 O894 1.255 . S
C914 O895 1.257 . S
C915 Eu851 2.787 . S
C915 O890 1.252 . S
C915 O893 1.268 1_545 S
C915 C908 1.506 1_545 S
H916 C899 0.931 . S
H917 C900 0.931 . S
H918 C901 0.929 . S
H919 C902 0.930 . S
H920 C910 0.931 . S
H921 C911 0.931 . S
H922 C912 0.930 . S
H923 C913 0.929 . S
Eu924 N953 2.600 . S
Eu924 N959 2.562 . S
Eu924 O968 2.462 . S
Eu924 O969 2.373 . S
Eu924 O971 2.432 . S
Eu924 O972 2.291 . S
Eu924 O976 2.335 . S
Eu924 O979 2.372 . S
Eu924 C988 2.787 . S
C925 N926 1.365 . S
C925 C928 1.405 . S
C925 C932 1.448 . S
N926 C925 1.365 . S
N926 C929 1.319 . S
N926 Eu935 2.600 . S
C927 C929 1.397 . S
C927 C930 1.367 . S
C927 H947 0.931 . S
C928 C925 1.405 . S
C928 C930 1.403 . S
C928 C934 1.439 . S
C929 N926 1.319 . S
C929 C927 1.397 . S
C929 H940 0.930 . S
C930 C927 1.367 . S
C930 C928 1.403 . S
C930 H951 0.929 . S
C931 C932 1.430 . S
C931 C933 1.387 . S
C931 C937 1.404 . S
C932 C925 1.448 . S
C932 C931 1.430 . S
C932 N936 1.351 . S
C933 C931 1.387 . S
C933 C934 1.374 . S
C933 H948 0.931 . S
C934 C928 1.439 . S
C934 C933 1.374 . S
C934 H949 0.931 . S
Eu935 N926 2.600 . S
Eu935 N936 2.562 . S
Eu935 O970 2.335 . S
Eu935 O973 2.372 . S
Eu935 O974 2.462 . S
Eu935 O975 2.373 . S
Eu935 O977 2.432 . S
Eu935 O978 2.291 . S
Eu935 C999 2.787 . S
N936 C932 1.351 . S
N936 Eu935 2.562 . S
N936 C938 1.325 . S
C937 C931 1.404 . S
C937 C939 1.366 . S
C937 H945 0.930 . S
C938 N936 1.325 . S
C938 C939 1.416 . S
C938 H944 0.929 . S
C939 C937 1.366 . S
C939 C938 1.416 . S
C939 H941 0.930 . S
H940 C929 0.930 . S
H941 C939 0.930 . S
H942 C957 0.930 . S
H943 C964 0.930 . S
H944 C938 0.929 . S
H945 C937 0.930 . S
H946 C960 0.929 . S
H947 C927 0.931 . S
H948 C933 0.931 . S
H949 C934 0.931 . S
H950 C955 0.931 . S
H951 C930 0.929 . S
H952 C963 0.930 . S
N953 Eu924 2.600 . S
N953 C954 1.365 . S
N953 C957 1.319 . S
C954 N953 1.365 . S
C954 C956 1.405 . S
C954 C962 1.448 . S
C955 H950 0.931 . S
C955 C957 1.397 . S
C955 C958 1.367 . S
C956 C954 1.405 . S
C956 C958 1.403 . S
C956 C989 1.439 . S
C957 H942 0.930 . S
C957 N953 1.319 . S
C957 C955 1.397 . S
C958 C955 1.367 . S
C958 C956 1.403 . S
C958 H965 0.929 . S
N959 Eu924 2.562 . S
N959 C960 1.325 . S
N959 C962 1.351 . S
C960 H946 0.929 . S
C960 N959 1.325 . S
C960 C964 1.416 . S
C961 C962 1.430 . S
C961 C963 1.404 . S
C961 C990 1.387 . S
C962 C954 1.448 . S
C962 N959 1.351 . S
C962 C961 1.430 . S
C963 H952 0.930 . S
C963 C961 1.404 . S
C963 C964 1.366 . S
C964 H943 0.930 . S
C964 C960 1.416 . S
C964 C963 1.366 . S
H965 C958 0.929 . S
H966 C989 0.931 . S
H967 C990 0.931 . S
O968 Eu924 2.462 . S
O968 C988 1.252 . S
O969 Eu924 2.373 . S
O969 C980 1.249 . S
O970 Eu935 2.335 . S
O970 C980 1.264 . S
O971 Eu924 2.432 . S
O971 C988 1.268 . S
O972 Eu924 2.291 . S
O972 C987 1.255 . S
O973 Eu935 2.372 . S
O973 C987 1.257 . S
O974 Eu935 2.462 . S
O974 C999 1.252 . S
O975 Eu935 2.373 . S
O975 C991 1.249 . S
O976 Eu924 2.335 . S
O976 C991 1.264 . S
O977 Eu935 2.432 . S
O977 C999 1.268 . S
O978 Eu935 2.291 . S
O978 C998 1.255 . S
O979 Eu924 2.372 . S
O979 C998 1.257 . S
C980 O969 1.249 . S
C980 O970 1.264 . S
C981 C984 1.382 . S
C981 C986 1.390 . S
C981 C988 1.506 . S
C982 C983 1.398 . S
C982 C986 1.392 . S
C983 C982 1.398 . S
C983 C985 1.372 . S
C983 H1000 0.931 . S
C984 C981 1.382 . S
C984 C985 1.390 . S
C984 H1001 0.931 . S
C985 C983 1.372 . S
C985 C984 1.390 . S
C985 H1002 0.929 . S
C986 C981 1.390 . S
C986 C982 1.392 . S
C986 H1003 0.930 . S
C987 O972 1.255 . S
C987 O973 1.257 . S
C988 Eu924 2.787 . S
C988 O968 1.252 . S
C988 O971 1.268 . S
C988 C981 1.506 . S
C989 C956 1.439 . S
C989 H966 0.931 . S
C989 C990 1.374 . S
C990 C961 1.387 . S
C990 H967 0.931 . S
C990 C989 1.374 . S
C991 O975 1.249 . S
C991 O976 1.264 . S
C992 C995 1.382 . S
C992 C996 1.390 . S
C992 C999 1.506 . S
C993 C994 1.398 . S
C993 C996 1.392 . S
C994 C993 1.398 . S
C994 C997 1.372 . S
C994 H1004 0.931 . S
C995 C992 1.382 . S
C995 C997 1.390 . S
C995 H1005 0.931 . S
C996 C992 1.390 . S
C996 C993 1.392 . S
C996 H1006 0.930 . S
C997 C994 1.372 . S
C997 C995 1.390 . S
C997 H1007 0.929 . S
C998 O978 1.255 . S
C998 O979 1.257 . S
C999 Eu935 2.787 . S
C999 O974 1.252 . S
C999 O977 1.268 . S
C999 C992 1.506 . S
H1000 C983 0.931 . S
H1001 C984 0.931 . S
H1002 C985 0.929 . S
H1003 C986 0.930 . S
H1004 C994 0.931 . S
H1005 C995 0.931 . S
H1006 C996 0.930 . S
H1007 C997 0.929 . S
Eu1008 N1037 2.600 1_554 S
Eu1008 N1043 2.562 1_554 S
Eu1008 O1052 2.462 . S
Eu1008 O1053 2.373 1_554 S
Eu1008 O1055 2.432 . S
Eu1008 O1056 2.291 . S
Eu1008 O1060 2.335 . S
Eu1008 O1063 2.372 . S
Eu1008 C1072 2.787 . S
C1009 N1010 1.365 . S
C1009 C1012 1.405 . S
C1009 C1016 1.448 . S
N1010 C1009 1.365 . S
N1010 C1013 1.319 . S
N1010 Eu1019 2.600 . S
C1011 C1013 1.397 . S
C1011 C1014 1.367 . S
C1011 H1031 0.931 . S
C1012 C1009 1.405 . S
C1012 C1014 1.403 . S
C1012 C1018 1.439 . S
C1013 N1010 1.319 . S
C1013 C1011 1.397 . S
C1013 H1024 0.930 . S
C1014 C1011 1.367 . S
C1014 C1012 1.403 . S
C1014 H1035 0.929 . S
C1015 C1016 1.430 . S
C1015 C1017 1.387 . S
C1015 C1021 1.404 . S
C1016 C1009 1.448 . S
C1016 C1015 1.430 . S
C1016 N1020 1.351 . S
C1017 C1015 1.387 . S
C1017 C1018 1.374 . S
C1017 H1032 0.931 . S
C1018 C1012 1.439 . S
C1018 C1017 1.374 . S
C1018 H1033 0.931 . S
Eu1019 N1010 2.600 . S
Eu1019 N1020 2.562 . S
Eu1019 O1054 2.335 1_554 S
Eu1019 O1057 2.372 . S
Eu1019 O1058 2.462 . S
Eu1019 O1059 2.373 . S
Eu1019 O1061 2.432 . S
Eu1019 O1062 2.291 . S
Eu1019 C1083 2.787 . S
N1020 C1016 1.351 . S
N1020 Eu1019 2.562 . S
N1020 C1022 1.325 . S
C1021 C1015 1.404 . S
C1021 C1023 1.366 . S
C1021 H1029 0.930 . S
C1022 N1020 1.325 . S
C1022 C1023 1.416 . S
C1022 H1028 0.929 . S
C1023 C1021 1.366 . S
C1023 C1022 1.416 . S
C1023 H1025 0.930 . S
H1024 C1013 0.930 . S
H1025 C1023 0.930 . S
H1026 C1041 0.930 1_554 S
H1027 C1048 0.930 . S
H1028 C1022 0.929 . S
H1029 C1021 0.930 . S
H1030 C1044 0.929 . S
H1031 C1011 0.931 . S
H1032 C1017 0.931 . S
H1033 C1018 0.931 . S
H1034 C1039 0.931 . S
H1035 C1014 0.929 . S
H1036 C1047 0.930 . S
N1037 Eu1008 2.600 1_556 S
N1037 C1038 1.365 . S
N1037 C1041 1.319 . S
C1038 N1037 1.365 . S
C1038 C1040 1.405 . S
C1038 C1046 1.448 . S
C1039 H1034 0.931 . S
C1039 C1041 1.397 . S
C1039 C1042 1.367 . S
C1040 C1038 1.405 . S
C1040 C1042 1.403 . S
C1040 C1073 1.439 . S
C1041 H1026 0.930 1_556 S
C1041 N1037 1.319 . S
C1041 C1039 1.397 . S
C1042 C1039 1.367 . S
C1042 C1040 1.403 . S
C1042 H1049 0.929 . S
N1043 Eu1008 2.562 1_556 S
N1043 C1044 1.325 . S
N1043 C1046 1.351 . S
C1044 H1030 0.929 . S
C1044 N1043 1.325 . S
C1044 C1048 1.416 . S
C1045 C1046 1.430 . S
C1045 C1047 1.404 . S
C1045 C1074 1.387 . S
C1046 C1038 1.448 . S
C1046 N1043 1.351 . S
C1046 C1045 1.430 . S
C1047 H1036 0.930 . S
C1047 C1045 1.404 . S
C1047 C1048 1.366 . S
C1048 H1027 0.930 . S
C1048 C1044 1.416 . S
C1048 C1047 1.366 . S
H1049 C1042 0.929 . S
H1050 C1073 0.931 . S
H1051 C1074 0.931 . S
O1052 Eu1008 2.462 . S
O1052 C1072 1.252 . S
O1053 Eu1008 2.373 1_556 S
O1053 C1064 1.249 . S
O1054 Eu1019 2.335 1_556 S
O1054 C1064 1.264 . S
O1055 Eu1008 2.432 . S
O1055 C1072 1.268 . S
O1056 Eu1008 2.291 . S
O1056 C1071 1.255 . S
O1057 Eu1019 2.372 . S
O1057 C1071 1.257 . S
O1058 Eu1019 2.462 . S
O1058 C1083 1.252 . S
O1059 Eu1019 2.373 . S
O1059 C1075 1.249 . S
O1060 Eu1008 2.335 . S
O1060 C1075 1.264 . S
O1061 Eu1019 2.432 . S
O1061 C1083 1.268 . S
O1062 Eu1019 2.291 . S
O1062 C1082 1.255 . S
O1063 Eu1008 2.372 . S
O1063 C1082 1.257 . S
C1064 O1053 1.249 . S
C1064 O1054 1.264 . S
C1065 C1068 1.382 . S
C1065 C1070 1.390 . S
C1065 C1072 1.506 . S
C1066 C1067 1.398 . S
C1066 C1070 1.392 . S
C1067 C1066 1.398 . S
C1067 C1069 1.372 . S
C1067 H1084 0.931 . S
C1068 C1065 1.382 . S
C1068 C1069 1.390 . S
C1068 H1085 0.931 . S
C1069 C1067 1.372 . S
C1069 C1068 1.390 . S
C1069 H1086 0.929 . S
C1070 C1065 1.390 . S
C1070 C1066 1.392 . S
C1070 H1087 0.930 . S
C1071 O1056 1.255 . S
C1071 O1057 1.257 . S
C1072 Eu1008 2.787 . S
C1072 O1052 1.252 . S
C1072 O1055 1.268 . S
C1072 C1065 1.506 . S
C1073 C1040 1.439 . S
C1073 H1050 0.931 . S
C1073 C1074 1.374 . S
C1074 C1045 1.387 . S
C1074 H1051 0.931 . S
C1074 C1073 1.374 . S
C1075 O1059 1.249 . S
C1075 O1060 1.264 . S
C1076 C1079 1.382 . S
C1076 C1080 1.390 . S
C1076 C1083 1.506 1_556 S
C1077 C1078 1.398 . S
C1077 C1080 1.392 . S
C1078 C1077 1.398 . S
C1078 C1081 1.372 . S
C1078 H1088 0.931 . S
C1079 C1076 1.382 . S
C1079 C1081 1.390 . S
C1079 H1089 0.931 . S
C1080 C1076 1.390 . S
C1080 C1077 1.392 . S
C1080 H1090 0.930 . S
C1081 C1078 1.372 . S
C1081 C1079 1.390 . S
C1081 H1091 0.929 . S
C1082 O1062 1.255 . S
C1082 O1063 1.257 . S
C1083 Eu1019 2.787 . S
C1083 O1058 1.252 . S
C1083 O1061 1.268 . S
C1083 C1076 1.506 1_554 S
H1084 C1067 0.931 . S
H1085 C1068 0.931 . S
H1086 C1069 0.929 . S
H1087 C1070 0.930 . S
H1088 C1078 0.931 . S
H1089 C1079 0.931 . S
H1090 C1080 0.930 . S
H1091 C1081 0.929 . S
Eu1092 N1121 2.600 . S
Eu1092 N1127 2.562 . S
Eu1092 O1136 2.462 . S
Eu1092 O1137 2.373 . S
Eu1092 O1139 2.432 . S
Eu1092 O1140 2.291 . S
Eu1092 O1144 2.335 . S
Eu1092 O1147 2.372 . S
Eu1092 C1156 2.787 . S
C1093 N1094 1.365 . S
C1093 C1096 1.405 . S
C1093 C1100 1.448 . S
N1094 C1093 1.365 . S
N1094 C1097 1.319 . S
N1094 Eu1103 2.600 . S
C1095 C1097 1.397 . S
C1095 C1098 1.367 . S
C1095 H1115 0.931 . S
C1096 C1093 1.405 . S
C1096 C1098 1.403 . S
C1096 C1102 1.439 . S
C1097 N1094 1.319 . S
C1097 C1095 1.397 . S
C1097 H1108 0.930 . S
C1098 C1095 1.367 . S
C1098 C1096 1.403 . S
C1098 H1119 0.929 . S
C1099 C1100 1.430 . S
C1099 C1101 1.387 . S
C1099 C1105 1.404 . S
C1100 C1093 1.448 . S
C1100 C1099 1.430 . S
C1100 N1104 1.351 . S
C1101 C1099 1.387 . S
C1101 C1102 1.374 . S
C1101 H1116 0.931 . S
C1102 C1096 1.439 . S
C1102 C1101 1.374 . S
C1102 H1117 0.931 . S
Eu1103 N1094 2.600 . S
Eu1103 N1104 2.562 . S
Eu1103 O1138 2.335 . S
Eu1103 O1141 2.372 . S
Eu1103 O1142 2.462 . S
Eu1103 O1143 2.373 . S
Eu1103 O1145 2.432 . S
Eu1103 O1146 2.291 . S
Eu1103 C1167 2.787 . S
N1104 C1100 1.351 . S
N1104 Eu1103 2.562 . S
N1104 C1106 1.325 . S
C1105 C1099 1.404 . S
C1105 C1107 1.366 . S
C1105 H1113 0.930 . S
C1106 N1104 1.325 . S
C1106 C1107 1.416 . S
C1106 H1112 0.929 . S
C1107 C1105 1.366 . S
C1107 C1106 1.416 . S
C1107 H1109 0.930 . S
H1108 C1097 0.930 . S
H1109 C1107 0.930 . S
H1110 C1125 0.930 . S
H1111 C1132 0.930 . S
H1112 C1106 0.929 . S
H1113 C1105 0.930 . S
H1114 C1128 0.929 . S
H1115 C1095 0.931 . S
H1116 C1101 0.931 . S
H1117 C1102 0.931 . S
H1118 C1123 0.931 . S
H1119 C1098 0.929 . S
H1120 C1131 0.930 . S
N1121 Eu1092 2.600 . S
N1121 C1122 1.365 . S
N1121 C1125 1.319 . S
C1122 N1121 1.365 . S
C1122 C1124 1.405 . S
C1122 C1130 1.448 . S
C1123 H1118 0.931 . S
C1123 C1125 1.397 . S
C1123 C1126 1.367 . S
C1124 C1122 1.405 . S
C1124 C1126 1.403 . S
C1124 C1157 1.439 . S
C1125 H1110 0.930 . S
C1125 N1121 1.319 . S
C1125 C1123 1.397 . S
C1126 C1123 1.367 . S
C1126 C1124 1.403 . S
C1126 H1133 0.929 . S
N1127 Eu1092 2.562 . S
N1127 C1128 1.325 . S
N1127 C1130 1.351 . S
C1128 H1114 0.929 . S
C1128 N1127 1.325 . S
C1128 C1132 1.416 . S
C1129 C1130 1.430 . S
C1129 C1131 1.404 . S
C1129 C1158 1.387 . S
C1130 C1122 1.448 . S
C1130 N1127 1.351 . S
C1130 C1129 1.430 . S
C1131 H1120 0.930 . S
C1131 C1129 1.404 . S
C1131 C1132 1.366 . S
C1132 H1111 0.930 . S
C1132 C1128 1.416 . S
C1132 C1131 1.366 . S
H1133 C1126 0.929 . S
H1134 C1157 0.931 . S
H1135 C1158 0.931 . S
O1136 Eu1092 2.462 . S
O1136 C1156 1.252 . S
O1137 Eu1092 2.373 . S
O1137 C1148 1.249 . S
O1138 Eu1103 2.335 . S
O1138 C1148 1.264 . S
O1139 Eu1092 2.432 . S
O1139 C1156 1.268 . S
O1140 Eu1092 2.291 . S
O1140 C1155 1.255 . S
O1141 Eu1103 2.372 . S
O1141 C1155 1.257 . S
O1142 Eu1103 2.462 . S
O1142 C1167 1.252 . S
O1143 Eu1103 2.373 . S
O1143 C1159 1.249 . S
O1144 Eu1092 2.335 . S
O1144 C1159 1.264 . S
O1145 Eu1103 2.432 . S
O1145 C1167 1.268 . S
O1146 Eu1103 2.291 . S
O1146 C1166 1.255 . S
O1147 Eu1092 2.372 . S
O1147 C1166 1.257 . S
C1148 O1137 1.249 . S
C1148 O1138 1.264 . S
C1149 C1152 1.382 . S
C1149 C1154 1.390 . S
C1149 C1156 1.506 . S
C1150 C1151 1.398 . S
C1150 C1154 1.392 . S
C1151 C1150 1.398 . S
C1151 C1153 1.372 . S
C1151 H1168 0.931 . S
C1152 C1149 1.382 . S
C1152 C1153 1.390 . S
C1152 H1169 0.931 . S
C1153 C1151 1.372 . S
C1153 C1152 1.390 . S
C1153 H1170 0.929 . S
C1154 C1149 1.390 . S
C1154 C1150 1.392 . S
C1154 H1171 0.930 . S
C1155 O1140 1.255 . S
C1155 O1141 1.257 . S
C1156 Eu1092 2.787 . S
C1156 O1136 1.252 . S
C1156 O1139 1.268 . S
C1156 C1149 1.506 . S
C1157 C1124 1.439 . S
C1157 H1134 0.931 . S
C1157 C1158 1.374 . S
C1158 C1129 1.387 . S
C1158 H1135 0.931 . S
C1158 C1157 1.374 . S
C1159 O1143 1.249 . S
C1159 O1144 1.264 . S
C1160 C1163 1.382 . S
C1160 C1164 1.390 . S
C1160 C1167 1.506 . S
C1161 C1162 1.398 . S
C1161 C1164 1.392 . S
C1162 C1161 1.398 . S
C1162 C1165 1.372 . S
C1162 H1172 0.931 . S
C1163 C1160 1.382 . S
C1163 C1165 1.390 . S
C1163 H1173 0.931 . S
C1164 C1160 1.390 . S
C1164 C1161 1.392 . S
C1164 H1174 0.930 . S
C1165 C1162 1.372 . S
C1165 C1163 1.390 . S
C1165 H1175 0.929 . S
C1166 O1146 1.255 . S
C1166 O1147 1.257 . S
C1167 Eu1103 2.787 . S
C1167 O1142 1.252 . S
C1167 O1145 1.268 . S
C1167 C1160 1.506 . S
H1168 C1151 0.931 . S
H1169 C1152 0.931 . S
H1170 C1153 0.929 . S
H1171 C1154 0.930 . S
H1172 C1162 0.931 . S
H1173 C1163 0.931 . S
H1174 C1164 0.930 . S
H1175 C1165 0.929 . S
Eu1176 N1205 2.588 1_455 S
Eu1176 N1211 2.562 1_455 S
Eu1176 O1220 2.462 . S
Eu1176 O1221 2.373 1_455 S
Eu1176 O1223 2.432 . S
Eu1176 O1224 2.291 . S
Eu1176 O1228 2.335 . S
Eu1176 O1231 2.372 . S
Eu1176 C1240 2.787 . S
C1177 N1178 1.365 . S
C1177 C1180 1.405 . S
C1177 C1184 1.448 . S
N1178 C1177 1.365 . S
N1178 C1181 1.319 . S
N1178 Eu1187 2.600 . S
C1179 C1181 1.397 . S
C1179 C1182 1.367 . S
C1179 H1199 0.931 . S
C1180 C1177 1.405 . S
C1180 C1182 1.403 . S
C1180 C1186 1.439 . S
C1181 N1178 1.319 . S
C1181 C1179 1.397 . S
C1181 H1192 0.930 . S
C1182 C1179 1.367 . S
C1182 C1180 1.403 . S
C1182 H1203 0.929 . S
C1183 C1184 1.430 . S
C1183 C1185 1.387 . S
C1183 C1189 1.404 . S
C1184 C1177 1.448 . S
C1184 C1183 1.430 . S
C1184 N1188 1.351 . S
C1185 C1183 1.387 . S
C1185 C1186 1.374 . S
C1185 H1200 0.931 . S
C1186 C1180 1.439 . S
C1186 C1185 1.374 . S
C1186 H1201 0.931 . S
Eu1187 N1178 2.600 . S
Eu1187 N1188 2.562 . S
Eu1187 O1222 2.335 1_455 S
Eu1187 O1225 2.372 . S
Eu1187 O1226 2.462 . S
Eu1187 O1227 2.373 . S
Eu1187 O1229 2.432 . S
Eu1187 O1230 2.291 . S
Eu1187 C1251 2.787 . S
N1188 C1184 1.351 . S
N1188 Eu1187 2.562 . S
N1188 C1190 1.325 . S
C1189 C1183 1.404 . S
C1189 C1191 1.366 . S
C1189 H1197 0.930 . S
C1190 N1188 1.325 . S
C1190 C1191 1.416 . S
C1190 H1196 0.929 . S
C1191 C1189 1.366 . S
C1191 C1190 1.416 . S
C1191 H1193 0.930 . S
H1192 C1181 0.930 . S
H1193 C1191 0.930 . S
H1194 C1209 0.930 . S
H1195 C1216 0.930 . S
H1196 C1190 0.929 . S
H1197 C1189 0.930 . S
H1198 C1212 0.929 1_455 S
H1199 C1179 0.931 . S
H1200 C1185 0.931 . S
H1201 C1186 0.931 . S
H1202 C1207 0.931 . S
H1203 C1182 0.929 . S
H1204 C1215 0.930 . S
N1205 Eu1176 2.588 1_655 S
N1205 C1206 1.375 . S
N1205 C1209 1.323 1_655 S
C1206 N1205 1.375 . S
C1206 C1208 1.405 . S
C1206 C1214 1.448 . S
C1207 H1202 0.931 . S
C1207 C1209 1.397 1_655 S
C1207 C1210 1.367 . S
C1208 C1206 1.405 . S
C1208 C1210 1.403 . S
C1208 C1241 1.439 . S
C1209 H1194 0.930 . S
C1209 N1205 1.323 1_455 S
C1209 C1207 1.397 1_455 S
C1210 C1207 1.367 . S
C1210 C1208 1.403 . S
C1210 H1217 0.929 . S
N1211 Eu1176 2.562 1_655 S
N1211 C1212 1.325 . S
N1211 C1214 1.351 . S
C1212 H1198 0.929 1_655 S
C1212 N1211 1.325 . S
C1212 C1216 1.416 . S
C1213 C1214 1.430 . S
C1213 C1215 1.404 . S
C1213 C1242 1.387 . S
C1214 C1206 1.448 . S
C1214 N1211 1.351 . S
C1214 C1213 1.430 . S
C1215 H1204 0.930 . S
C1215 C1213 1.404 . S
C1215 C1216 1.366 . S
C1216 H1195 0.930 . S
C1216 C1212 1.416 . S
C1216 C1215 1.366 . S
H1217 C1210 0.929 . S
H1218 C1241 0.931 . S
H1219 C1242 0.931 . S
O1220 Eu1176 2.462 . S
O1220 C1240 1.252 . S
O1221 Eu1176 2.373 1_655 S
O1221 C1232 1.249 . S
O1222 Eu1187 2.335 1_655 S
O1222 C1232 1.264 . S
O1223 Eu1176 2.432 . S
O1223 C1240 1.268 . S
O1224 Eu1176 2.291 . S
O1224 C1239 1.255 . S
O1225 Eu1187 2.372 . S
O1225 C1239 1.257 . S
O1226 Eu1187 2.462 . S
O1226 C1251 1.252 . S
O1227 Eu1187 2.373 . S
O1227 C1243 1.249 . S
O1228 Eu1176 2.335 . S
O1228 C1243 1.264 . S
O1229 Eu1187 2.432 . S
O1229 C1251 1.268 . S
O1230 Eu1187 2.291 . S
O1230 C1250 1.255 . S
O1231 Eu1176 2.372 . S
O1231 C1250 1.257 . S
C1232 O1221 1.249 . S
C1232 O1222 1.264 . S
C1233 C1236 1.382 . S
C1233 C1238 1.390 . S
C1233 C1240 1.506 . S
C1234 C1235 1.398 . S
C1234 C1238 1.392 . S
C1235 C1234 1.398 . S
C1235 C1237 1.372 . S
C1235 H1252 0.931 . S
C1236 C1233 1.382 . S
C1236 C1237 1.390 . S
C1236 H1253 0.931 . S
C1237 C1235 1.372 . S
C1237 C1236 1.390 . S
C1237 H1254 0.929 . S
C1238 C1233 1.390 . S
C1238 C1234 1.392 . S
C1238 H1255 0.930 . S
C1239 O1224 1.255 . S
C1239 O1225 1.257 . S
C1240 Eu1176 2.787 . S
C1240 O1220 1.252 . S
C1240 O1223 1.268 . S
C1240 C1233 1.506 . S
C1241 C1208 1.439 . S
C1241 H1218 0.931 . S
C1241 C1242 1.374 . S
C1242 C1213 1.387 . S
C1242 H1219 0.931 . S
C1242 C1241 1.374 . S
C1243 O1227 1.249 . S
C1243 O1228 1.264 . S
C1244 C1247 1.382 . S
C1244 C1248 1.390 . S
C1244 C1251 1.506 1_655 S
C1245 C1246 1.398 . S
C1245 C1248 1.392 . S
C1246 C1245 1.398 . S
C1246 C1249 1.372 . S
C1246 H1256 0.931 . S
C1247 C1244 1.382 . S
C1247 C1249 1.390 . S
C1247 H1257 0.931 . S
C1248 C1244 1.390 . S
C1248 C1245 1.392 . S
C1248 H1258 0.930 . S
C1249 C1246 1.372 . S
C1249 C1247 1.390 . S
C1249 H1259 0.929 . S
C1250 O1230 1.255 . S
C1250 O1231 1.257 . S
C1251 Eu1187 2.787 . S
C1251 O1226 1.252 . S
C1251 O1229 1.268 . S
C1251 C1244 1.506 1_455 S
H1252 C1235 0.931 . S
H1253 C1236 0.931 . S
H1254 C1237 0.929 . S
H1255 C1238 0.930 . S
H1256 C1246 0.931 . S
H1257 C1247 0.931 . S
H1258 C1248 0.930 . S
H1259 C1249 0.929 . S
Eu1260 N1289 2.600 . S
Eu1260 N1295 2.562 . S
Eu1260 O1304 2.462 . S
Eu1260 O1305 2.373 . S
Eu1260 O1307 2.432 . S
Eu1260 O1308 2.291 . S
Eu1260 O1312 2.335 . S
Eu1260 O1315 2.372 . S
Eu1260 C1324 2.787 . S
C1261 N1262 1.365 . S
C1261 C1264 1.405 . S
C1261 C1268 1.448 . S
N1262 C1261 1.365 . S
N1262 C1265 1.319 . S
N1262 Eu1271 2.600 . S
C1263 C1265 1.397 . S
C1263 C1266 1.367 . S
C1263 H1283 0.931 . S
C1264 C1261 1.405 . S
C1264 C1266 1.403 . S
C1264 C1270 1.439 . S
C1265 N1262 1.319 . S
C1265 C1263 1.397 . S
C1265 H1276 0.930 . S
C1266 C1263 1.367 . S
C1266 C1264 1.403 . S
C1266 H1287 0.929 . S
C1267 C1268 1.430 . S
C1267 C1269 1.387 . S
C1267 C1273 1.404 . S
C1268 C1261 1.448 . S
C1268 C1267 1.430 . S
C1268 N1272 1.351 . S
C1269 C1267 1.387 . S
C1269 C1270 1.374 . S
C1269 H1284 0.931 . S
C1270 C1264 1.439 . S
C1270 C1269 1.374 . S
C1270 H1285 0.931 . S
Eu1271 N1262 2.600 . S
Eu1271 N1272 2.562 . S
Eu1271 O1306 2.335 . S
Eu1271 O1309 2.372 . S
Eu1271 O1310 2.462 . S
Eu1271 O1311 2.373 . S
Eu1271 O1313 2.432 . S
Eu1271 O1314 2.291 . S
Eu1271 C1335 2.787 . S
N1272 C1268 1.351 . S
N1272 Eu1271 2.562 . S
N1272 C1274 1.325 . S
C1273 C1267 1.404 . S
C1273 C1275 1.366 . S
C1273 H1281 0.930 . S
C1274 N1272 1.325 . S
C1274 C1275 1.416 . S
C1274 H1280 0.929 . S
C1275 C1273 1.366 . S
C1275 C1274 1.416 . S
C1275 H1277 0.930 . S
H1276 C1265 0.930 . S
H1277 C1275 0.930 . S
H1278 C1293 0.930 . S
H1279 C1300 0.930 . S
H1280 C1274 0.929 . S
H1281 C1273 0.930 . S
H1282 C1296 0.929 . S
H1283 C1263 0.931 . S
H1284 C1269 0.931 . S
H1285 C1270 0.931 . S
H1286 C1291 0.931 . S
H1287 C1266 0.929 . S
H1288 C1299 0.930 . S
N1289 Eu1260 2.600 . S
N1289 C1290 1.365 . S
N1289 C1293 1.319 . S
C1290 N1289 1.365 . S
C1290 C1292 1.405 . S
C1290 C1298 1.448 . S
C1291 H1286 0.931 . S
C1291 C1293 1.397 . S
C1291 C1294 1.367 . S
C1292 C1290 1.405 . S
C1292 C1294 1.403 . S
C1292 C1325 1.439 . S
C1293 H1278 0.930 . S
C1293 N1289 1.319 . S
C1293 C1291 1.397 . S
C1294 C1291 1.367 . S
C1294 C1292 1.403 . S
C1294 H1301 0.929 . S
N1295 Eu1260 2.562 . S
N1295 C1296 1.325 . S
N1295 C1298 1.351 . S
C1296 H1282 0.929 . S
C1296 N1295 1.325 . S
C1296 C1300 1.416 . S
C1297 C1298 1.430 . S
C1297 C1299 1.404 . S
C1297 C1326 1.387 . S
C1298 C1290 1.448 . S
C1298 N1295 1.351 . S
C1298 C1297 1.430 . S
C1299 H1288 0.930 . S
C1299 C1297 1.404 . S
C1299 C1300 1.366 . S
C1300 H1279 0.930 . S
C1300 C1296 1.416 . S
C1300 C1299 1.366 . S
H1301 C1294 0.929 . S
H1302 C1325 0.931 . S
H1303 C1326 0.931 . S
O1304 Eu1260 2.462 . S
O1304 C1324 1.252 . S
O1305 Eu1260 2.373 . S
O1305 C1316 1.249 . S
O1306 Eu1271 2.335 . S
O1306 C1316 1.264 . S
O1307 Eu1260 2.432 . S
O1307 C1324 1.268 . S
O1308 Eu1260 2.291 . S
O1308 C1323 1.255 . S
O1309 Eu1271 2.372 . S
O1309 C1323 1.257 . S
O1310 Eu1271 2.462 . S
O1310 C1335 1.252 . S
O1311 Eu1271 2.373 . S
O1311 C1327 1.249 . S
O1312 Eu1260 2.335 . S
O1312 C1327 1.264 . S
O1313 Eu1271 2.432 . S
O1313 C1335 1.268 . S
O1314 Eu1271 2.291 . S
O1314 C1334 1.255 . S
O1315 Eu1260 2.372 . S
O1315 C1334 1.257 . S
C1316 O1305 1.249 . S
C1316 O1306 1.264 . S
C1317 C1320 1.382 . S
C1317 C1322 1.390 . S
C1317 C1324 1.506 . S
C1318 C1319 1.398 . S
C1318 C1322 1.392 . S
C1319 C1318 1.398 . S
C1319 C1321 1.372 . S
C1319 H1336 0.931 . S
C1320 C1317 1.382 . S
C1320 C1321 1.390 . S
C1320 H1337 0.931 . S
C1321 C1319 1.372 . S
C1321 C1320 1.390 . S
C1321 H1338 0.929 . S
C1322 C1317 1.390 . S
C1322 C1318 1.392 . S
C1322 H1339 0.930 . S
C1323 O1308 1.255 . S
C1323 O1309 1.257 . S
C1324 Eu1260 2.787 . S
C1324 O1304 1.252 . S
C1324 O1307 1.268 . S
C1324 C1317 1.506 . S
C1325 C1292 1.439 . S
C1325 H1302 0.931 . S
C1325 C1326 1.374 . S
C1326 C1297 1.387 . S
C1326 H1303 0.931 . S
C1326 C1325 1.374 . S
C1327 O1311 1.249 . S
C1327 O1312 1.264 . S
C1328 C1331 1.382 . S
C1328 C1332 1.390 . S
C1328 C1335 1.506 . S
C1329 C1330 1.398 . S
C1329 C1332 1.392 . S
C1330 C1329 1.398 . S
C1330 C1333 1.372 . S
C1330 H1340 0.931 . S
C1331 C1328 1.382 . S
C1331 C1333 1.390 . S
C1331 H1341 0.931 . S
C1332 C1328 1.390 . S
C1332 C1329 1.392 . S
C1332 H1342 0.930 . S
C1333 C1330 1.372 . S
C1333 C1331 1.390 . S
C1333 H1343 0.929 . S
C1334 O1314 1.255 . S
C1334 O1315 1.257 . S
C1335 Eu1271 2.787 . S
C1335 O1310 1.252 . S
C1335 O1313 1.268 . S
C1335 C1328 1.506 . S
H1336 C1319 0.931 . S
H1337 C1320 0.931 . S
H1338 C1321 0.929 . S
H1339 C1322 0.930 . S
H1340 C1330 0.931 . S
H1341 C1331 0.931 . S
H1342 C1332 0.930 . S
H1343 C1333 0.929 . S
Eu1344 N1373 2.600 . S
Eu1344 N1379 2.562 . S
Eu1344 O1388 2.462 . S
Eu1344 O1389 2.373 . S
Eu1344 O1391 2.432 . S
Eu1344 O1392 2.291 . S
Eu1344 O1396 2.335 . S
Eu1344 O1399 2.372 . S
Eu1344 C1408 2.787 . S
C1345 N1346 1.365 . S
C1345 C1348 1.405 . S
C1345 C1352 1.448 . S
N1346 C1345 1.365 . S
N1346 C1349 1.319 . S
N1346 Eu1355 2.600 . S
C1347 C1349 1.397 . S
C1347 C1350 1.367 . S
C1347 H1367 0.931 . S
C1348 C1345 1.405 . S
C1348 C1350 1.403 . S
C1348 C1354 1.439 . S
C1349 N1346 1.319 . S
C1349 C1347 1.397 . S
C1349 H1360 0.930 . S
C1350 C1347 1.367 . S
C1350 C1348 1.403 . S
C1350 H1371 0.929 . S
C1351 C1352 1.430 . S
C1351 C1353 1.387 . S
C1351 C1357 1.404 . S
C1352 C1345 1.448 . S
C1352 C1351 1.430 . S
C1352 N1356 1.351 . S
C1353 C1351 1.387 . S
C1353 C1354 1.374 . S
C1353 H1368 0.931 . S
C1354 C1348 1.439 . S
C1354 C1353 1.374 . S
C1354 H1369 0.931 . S
Eu1355 N1346 2.600 . S
Eu1355 N1356 2.562 . S
Eu1355 O1390 2.335 . S
Eu1355 O1393 2.372 . S
Eu1355 O1394 2.462 . S
Eu1355 O1395 2.373 . S
Eu1355 O1397 2.432 . S
Eu1355 O1398 2.291 . S
Eu1355 C1419 2.787 . S
N1356 C1352 1.351 . S
N1356 Eu1355 2.562 . S
N1356 C1358 1.325 . S
C1357 C1351 1.404 . S
C1357 C1359 1.366 . S
C1357 H1365 0.930 . S
C1358 N1356 1.325 . S
C1358 C1359 1.416 . S
C1358 H1364 0.929 . S
C1359 C1357 1.366 . S
C1359 C1358 1.416 . S
C1359 H1361 0.930 . S
H1360 C1349 0.930 . S
H1361 C1359 0.930 . S
H1362 C1377 0.930 . S
H1363 C1384 0.930 . S
H1364 C1358 0.929 . S
H1365 C1357 0.930 . S
H1366 C1380 0.929 . S
H1367 C1347 0.931 . S
H1368 C1353 0.931 . S
H1369 C1354 0.931 . S
H1370 C1375 0.931 . S
H1371 C1350 0.929 . S
H1372 C1383 0.930 . S
N1373 Eu1344 2.600 . S
N1373 C1374 1.365 . S
N1373 C1377 1.319 . S
C1374 N1373 1.365 . S
C1374 C1376 1.405 . S
C1374 C1382 1.448 . S
C1375 H1370 0.931 . S
C1375 C1377 1.397 . S
C1375 C1378 1.367 . S
C1376 C1374 1.405 . S
C1376 C1378 1.403 . S
C1376 C1409 1.439 . S
C1377 H1362 0.930 . S
C1377 N1373 1.319 . S
C1377 C1375 1.397 . S
C1378 C1375 1.367 . S
C1378 C1376 1.403 . S
C1378 H1385 0.929 . S
N1379 Eu1344 2.562 . S
N1379 C1380 1.325 . S
N1379 C1382 1.351 . S
C1380 H1366 0.929 . S
C1380 N1379 1.325 . S
C1380 C1384 1.416 . S
C1381 C1382 1.430 . S
C1381 C1383 1.404 . S
C1381 C1410 1.387 . S
C1382 C1374 1.448 . S
C1382 N1379 1.351 . S
C1382 C1381 1.430 . S
C1383 H1372 0.930 . S
C1383 C1381 1.404 . S
C1383 C1384 1.366 . S
C1384 H1363 0.930 . S
C1384 C1380 1.416 . S
C1384 C1383 1.366 . S
H1385 C1378 0.929 . S
H1386 C1409 0.931 . S
H1387 C1410 0.931 . S
O1388 Eu1344 2.462 . S
O1388 C1408 1.252 . S
O1389 Eu1344 2.373 . S
O1389 C1400 1.249 . S
O1390 Eu1355 2.335 . S
O1390 C1400 1.264 . S
O1391 Eu1344 2.432 . S
O1391 C1408 1.268 . S
O1392 Eu1344 2.291 . S
O1392 C1407 1.255 . S
O1393 Eu1355 2.372 . S
O1393 C1407 1.257 . S
O1394 Eu1355 2.462 . S
O1394 C1419 1.252 . S
O1395 Eu1355 2.373 . S
O1395 C1411 1.249 . S
O1396 Eu1344 2.335 . S
O1396 C1411 1.264 . S
O1397 Eu1355 2.432 . S
O1397 C1419 1.268 . S
O1398 Eu1355 2.291 . S
O1398 C1418 1.255 . S
O1399 Eu1344 2.372 . S
O1399 C1418 1.257 . S
C1400 O1389 1.249 . S
C1400 O1390 1.264 . S
C1401 C1404 1.382 . S
C1401 C1406 1.390 . S
C1401 C1408 1.506 . S
C1402 C1403 1.398 . S
C1402 C1406 1.392 . S
C1403 C1402 1.398 . S
C1403 C1405 1.372 . S
C1403 H1420 0.931 . S
C1404 C1401 1.382 . S
C1404 C1405 1.390 . S
C1404 H1421 0.931 . S
C1405 C1403 1.372 . S
C1405 C1404 1.390 . S
C1405 H1422 0.929 . S
C1406 C1401 1.390 . S
C1406 C1402 1.392 . S
C1406 H1423 0.930 . S
C1407 O1392 1.255 . S
C1407 O1393 1.257 . S
C1408 Eu1344 2.787 . S
C1408 O1388 1.252 . S
C1408 O1391 1.268 . S
C1408 C1401 1.506 . S
C1409 C1376 1.439 . S
C1409 H1386 0.931 . S
C1409 C1410 1.374 . S
C1410 C1381 1.387 . S
C1410 H1387 0.931 . S
C1410 C1409 1.374 . S
C1411 O1395 1.249 . S
C1411 O1396 1.264 . S
C1412 C1415 1.382 . S
C1412 C1416 1.390 . S
C1412 C1419 1.506 . S
C1413 C1414 1.398 . S
C1413 C1416 1.392 . S
C1414 C1413 1.398 . S
C1414 C1417 1.372 . S
C1414 H1424 0.931 . S
C1415 C1412 1.382 . S
C1415 C1417 1.390 . S
C1415 H1425 0.931 . S
C1416 C1412 1.390 . S
C1416 C1413 1.392 . S
C1416 H1426 0.930 . S
C1417 C1414 1.372 . S
C1417 C1415 1.390 . S
C1417 H1427 0.929 . S
C1418 O1398 1.255 . S
C1418 O1399 1.257 . S
C1419 Eu1355 2.787 . S
C1419 O1394 1.252 . S
C1419 O1397 1.268 . S
C1419 C1412 1.506 . S
H1420 C1403 0.931 . S
H1421 C1404 0.931 . S
H1422 C1405 0.929 . S
H1423 C1406 0.930 . S
H1424 C1414 0.931 . S
H1425 C1415 0.931 . S
H1426 C1416 0.930 . S
H1427 C1417 0.929 . S
Eu1428 N1457 2.600 . S
Eu1428 N1463 2.562 . S
Eu1428 O1472 2.462 . S
Eu1428 O1473 2.373 . S
Eu1428 O1475 2.432 . S
Eu1428 O1476 2.291 . S
Eu1428 O1480 2.335 . S
Eu1428 O1483 2.372 . S
Eu1428 C1492 2.787 . S
C1429 N1430 1.365 . S
C1429 C1432 1.405 . S
C1429 C1436 1.448 . S
N1430 C1429 1.365 . S
N1430 C1433 1.319 . S
N1430 Eu1439 2.600 . S
C1431 C1433 1.397 . S
C1431 C1434 1.367 . S
C1431 H1451 0.931 . S
C1432 C1429 1.405 . S
C1432 C1434 1.403 . S
C1432 C1438 1.439 . S
C1433 N1430 1.319 . S
C1433 C1431 1.397 . S
C1433 H1444 0.930 . S
C1434 C1431 1.367 . S
C1434 C1432 1.403 . S
C1434 H1455 0.929 . S
C1435 C1436 1.430 . S
C1435 C1437 1.387 . S
C1435 C1441 1.404 . S
C1436 C1429 1.448 . S
C1436 C1435 1.430 . S
C1436 N1440 1.351 . S
C1437 C1435 1.387 . S
C1437 C1438 1.374 . S
C1437 H1452 0.931 . S
C1438 C1432 1.439 . S
C1438 C1437 1.374 . S
C1438 H1453 0.931 . S
Eu1439 N1430 2.600 . S
Eu1439 N1440 2.562 . S
Eu1439 O1474 2.335 . S
Eu1439 O1477 2.372 . S
Eu1439 O1478 2.462 . S
Eu1439 O1479 2.373 . S
Eu1439 O1481 2.432 . S
Eu1439 O1482 2.291 . S
Eu1439 C1503 2.787 . S
N1440 C1436 1.351 . S
N1440 Eu1439 2.562 . S
N1440 C1442 1.325 . S
C1441 C1435 1.404 . S
C1441 C1443 1.366 . S
C1441 H1449 0.930 . S
C1442 N1440 1.325 . S
C1442 C1443 1.416 . S
C1442 H1448 0.929 . S
C1443 C1441 1.366 . S
C1443 C1442 1.416 . S
C1443 H1445 0.930 . S
H1444 C1433 0.930 . S
H1445 C1443 0.930 . S
H1446 C1461 0.930 . S
H1447 C1468 0.930 . S
H1448 C1442 0.929 . S
H1449 C1441 0.930 . S
H1450 C1464 0.929 . S
H1451 C1431 0.931 . S
H1452 C1437 0.931 . S
H1453 C1438 0.931 . S
H1454 C1459 0.931 . S
H1455 C1434 0.929 . S
H1456 C1467 0.930 . S
N1457 Eu1428 2.600 . S
N1457 C1458 1.365 . S
N1457 C1461 1.319 . S
C1458 N1457 1.365 . S
C1458 C1460 1.405 . S
C1458 C1466 1.448 . S
C1459 H1454 0.931 . S
C1459 C1461 1.397 . S
C1459 C1462 1.367 . S
C1460 C1458 1.405 . S
C1460 C1462 1.403 . S
C1460 C1493 1.439 . S
C1461 H1446 0.930 . S
C1461 N1457 1.319 . S
C1461 C1459 1.397 . S
C1462 C1459 1.367 . S
C1462 C1460 1.403 . S
C1462 H1469 0.929 . S
N1463 Eu1428 2.562 . S
N1463 C1464 1.325 . S
N1463 C1466 1.351 . S
C1464 H1450 0.929 . S
C1464 N1463 1.325 . S
C1464 C1468 1.416 . S
C1465 C1466 1.430 . S
C1465 C1467 1.404 . S
C1465 C1494 1.387 . S
C1466 C1458 1.448 . S
C1466 N1463 1.351 . S
C1466 C1465 1.430 . S
C1467 H1456 0.930 . S
C1467 C1465 1.404 . S
C1467 C1468 1.366 . S
C1468 H1447 0.930 . S
C1468 C1464 1.416 . S
C1468 C1467 1.366 . S
H1469 C1462 0.929 . S
H1470 C1493 0.931 . S
H1471 C1494 0.931 . S
O1472 Eu1428 2.462 . S
O1472 C1492 1.252 . S
O1473 Eu1428 2.373 . S
O1473 C1484 1.249 . S
O1474 Eu1439 2.335 . S
O1474 C1484 1.264 . S
O1475 Eu1428 2.432 . S
O1475 C1492 1.268 . S
O1476 Eu1428 2.291 . S
O1476 C1491 1.255 . S
O1477 Eu1439 2.372 . S
O1477 C1491 1.257 . S
O1478 Eu1439 2.462 . S
O1478 C1503 1.252 . S
O1479 Eu1439 2.373 . S
O1479 C1495 1.249 . S
O1480 Eu1428 2.335 . S
O1480 C1495 1.264 . S
O1481 Eu1439 2.432 . S
O1481 C1503 1.268 . S
O1482 Eu1439 2.291 . S
O1482 C1502 1.255 . S
O1483 Eu1428 2.372 . S
O1483 C1502 1.257 . S
C1484 O1473 1.249 . S
C1484 O1474 1.264 . S
C1485 C1488 1.382 . S
C1485 C1490 1.390 . S
C1485 C1492 1.506 . S
C1486 C1487 1.398 . S
C1486 C1490 1.392 . S
C1487 C1486 1.398 . S
C1487 C1489 1.372 . S
C1487 H1504 0.931 . S
C1488 C1485 1.382 . S
C1488 C1489 1.390 . S
C1488 H1505 0.931 . S
C1489 C1487 1.372 . S
C1489 C1488 1.390 . S
C1489 H1506 0.929 . S
C1490 C1485 1.390 . S
C1490 C1486 1.392 . S
C1490 H1507 0.930 . S
C1491 O1476 1.255 . S
C1491 O1477 1.257 . S
C1492 Eu1428 2.787 . S
C1492 O1472 1.252 . S
C1492 O1475 1.268 . S
C1492 C1485 1.506 . S
C1493 C1460 1.439 . S
C1493 H1470 0.931 . S
C1493 C1494 1.374 . S
C1494 C1465 1.387 . S
C1494 H1471 0.931 . S
C1494 C1493 1.374 . S
C1495 O1479 1.249 . S
C1495 O1480 1.264 . S
C1496 C1499 1.382 . S
C1496 C1500 1.390 . S
C1496 C1503 1.506 . S
C1497 C1498 1.398 . S
C1497 C1500 1.392 . S
C1498 C1497 1.398 . S
C1498 C1501 1.372 . S
C1498 H1508 0.931 . S
C1499 C1496 1.382 . S
C1499 C1501 1.390 . S
C1499 H1509 0.931 . S
C1500 C1496 1.390 . S
C1500 C1497 1.392 . S
C1500 H1510 0.930 . S
C1501 C1498 1.372 . S
C1501 C1499 1.390 . S
C1501 H1511 0.929 . S
C1502 O1482 1.255 . S
C1502 O1483 1.257 . S
C1503 Eu1439 2.787 . S
C1503 O1478 1.252 . S
C1503 O1481 1.268 . S
C1503 C1496 1.506 . S
H1504 C1487 0.931 . S
H1505 C1488 0.931 . S
H1506 C1489 0.929 . S
H1507 C1490 0.930 . S
H1508 C1498 0.931 . S
H1509 C1499 0.931 . S
H1510 C1500 0.930 . S
H1511 C1501 0.929 . S
Eu1512 N1541 2.600 . S
Eu1512 N1547 2.562 . S
Eu1512 O1556 2.462 . S
Eu1512 O1557 2.373 . S
Eu1512 O1559 2.432 . S
Eu1512 O1560 2.291 . S
Eu1512 O1564 2.335 . S
Eu1512 O1567 2.372 . S
Eu1512 C1576 2.787 . S
C1513 N1514 1.365 . S
C1513 C1516 1.405 . S
C1513 C1520 1.448 . S
N1514 C1513 1.365 . S
N1514 C1517 1.319 . S
N1514 Eu1523 2.600 . S
C1515 C1517 1.397 . S
C1515 C1518 1.367 . S
C1515 H1535 0.931 . S
C1516 C1513 1.405 . S
C1516 C1518 1.403 . S
C1516 C1522 1.439 . S
C1517 N1514 1.319 . S
C1517 C1515 1.397 . S
C1517 H1528 0.930 . S
C1518 C1515 1.367 . S
C1518 C1516 1.403 . S
C1518 H1539 0.929 . S
C1519 C1520 1.430 . S
C1519 C1521 1.387 . S
C1519 C1525 1.404 . S
C1520 C1513 1.448 . S
C1520 C1519 1.430 . S
C1520 N1524 1.351 . S
C1521 C1519 1.387 . S
C1521 C1522 1.374 . S
C1521 H1536 0.931 . S
C1522 C1516 1.439 . S
C1522 C1521 1.374 . S
C1522 H1537 0.931 . S
Eu1523 N1514 2.600 . S
Eu1523 N1524 2.562 . S
Eu1523 O1558 2.335 . S
Eu1523 O1561 2.372 . S
Eu1523 O1562 2.462 . S
Eu1523 O1563 2.373 . S
Eu1523 O1565 2.432 . S
Eu1523 O1566 2.291 . S
Eu1523 C1587 2.787 . S
N1524 C1520 1.351 . S
N1524 Eu1523 2.562 . S
N1524 C1526 1.325 . S
C1525 C1519 1.404 . S
C1525 C1527 1.366 . S
C1525 H1533 0.930 . S
C1526 N1524 1.325 . S
C1526 C1527 1.416 . S
C1526 H1532 0.929 . S
C1527 C1525 1.366 . S
C1527 C1526 1.416 . S
C1527 H1529 0.930 . S
H1528 C1517 0.930 . S
H1529 C1527 0.930 . S
H1530 C1545 0.930 . S
H1531 C1552 0.930 . S
H1532 C1526 0.929 . S
H1533 C1525 0.930 . S
H1534 C1548 0.929 . S
H1535 C1515 0.931 . S
H1536 C1521 0.931 . S
H1537 C1522 0.931 . S
H1538 C1543 0.931 . S
H1539 C1518 0.929 . S
H1540 C1551 0.930 . S
N1541 Eu1512 2.600 . S
N1541 C1542 1.365 . S
N1541 C1545 1.319 . S
C1542 N1541 1.365 . S
C1542 C1544 1.405 . S
C1542 C1550 1.448 . S
C1543 H1538 0.931 . S
C1543 C1545 1.397 . S
C1543 C1546 1.367 . S
C1544 C1542 1.405 . S
C1544 C1546 1.403 . S
C1544 C1577 1.439 . S
C1545 H1530 0.930 . S
C1545 N1541 1.319 . S
C1545 C1543 1.397 . S
C1546 C1543 1.367 . S
C1546 C1544 1.403 . S
C1546 H1553 0.929 . S
N1547 Eu1512 2.562 . S
N1547 C1548 1.325 . S
N1547 C1550 1.351 . S
C1548 H1534 0.929 . S
C1548 N1547 1.325 . S
C1548 C1552 1.416 . S
C1549 C1550 1.430 . S
C1549 C1551 1.404 . S
C1549 C1578 1.387 . S
C1550 C1542 1.448 . S
C1550 N1547 1.351 . S
C1550 C1549 1.430 . S
C1551 H1540 0.930 . S
C1551 C1549 1.404 . S
C1551 C1552 1.366 . S
C1552 H1531 0.930 . S
C1552 C1548 1.416 . S
C1552 C1551 1.366 . S
H1553 C1546 0.929 . S
H1554 C1577 0.931 . S
H1555 C1578 0.931 . S
O1556 Eu1512 2.462 . S
O1556 C1576 1.252 . S
O1557 Eu1512 2.373 . S
O1557 C1568 1.249 . S
O1558 Eu1523 2.335 . S
O1558 C1568 1.264 . S
O1559 Eu1512 2.432 . S
O1559 C1576 1.268 . S
O1560 Eu1512 2.291 . S
O1560 C1575 1.255 . S
O1561 Eu1523 2.372 . S
O1561 C1575 1.257 . S
O1562 Eu1523 2.462 . S
O1562 C1587 1.252 . S
O1563 Eu1523 2.373 . S
O1563 C1579 1.249 . S
O1564 Eu1512 2.335 . S
O1564 C1579 1.264 . S
O1565 Eu1523 2.432 . S
O1565 C1587 1.268 . S
O1566 Eu1523 2.291 . S
O1566 C1586 1.255 . S
O1567 Eu1512 2.372 . S
O1567 C1586 1.257 . S
C1568 O1557 1.249 . S
C1568 O1558 1.264 . S
C1569 C1572 1.382 . S
C1569 C1574 1.390 . S
C1569 C1576 1.506 . S
C1570 C1571 1.398 . S
C1570 C1574 1.392 . S
C1571 C1570 1.398 . S
C1571 C1573 1.372 . S
C1571 H1588 0.931 . S
C1572 C1569 1.382 . S
C1572 C1573 1.390 . S
C1572 H1589 0.931 . S
C1573 C1571 1.372 . S
C1573 C1572 1.390 . S
C1573 H1590 0.929 . S
C1574 C1569 1.390 . S
C1574 C1570 1.392 . S
C1574 H1591 0.930 . S
C1575 O1560 1.255 . S
C1575 O1561 1.257 . S
C1576 Eu1512 2.787 . S
C1576 O1556 1.252 . S
C1576 O1559 1.268 . S
C1576 C1569 1.506 . S
C1577 C1544 1.439 . S
C1577 H1554 0.931 . S
C1577 C1578 1.374 . S
C1578 C1549 1.387 . S
C1578 H1555 0.931 . S
C1578 C1577 1.374 . S
C1579 O1563 1.249 . S
C1579 O1564 1.264 . S
C1580 C1583 1.382 . S
C1580 C1584 1.390 . S
C1580 C1587 1.506 . S
C1581 C1582 1.398 . S
C1581 C1584 1.392 . S
C1582 C1581 1.398 . S
C1582 C1585 1.372 . S
C1582 H1592 0.931 . S
C1583 C1580 1.382 . S
C1583 C1585 1.390 . S
C1583 H1593 0.931 . S
C1584 C1580 1.390 . S
C1584 C1581 1.392 . S
C1584 H1594 0.930 . S
C1585 C1582 1.372 . S
C1585 C1583 1.390 . S
C1585 H1595 0.929 . S
C1586 O1566 1.255 . S
C1586 O1567 1.257 . S
C1587 Eu1523 2.787 . S
C1587 O1562 1.252 . S
C1587 O1565 1.268 . S
C1587 C1580 1.506 . S
H1588 C1571 0.931 . S
H1589 C1572 0.931 . S
H1590 C1573 0.929 . S
H1591 C1574 0.930 . S
H1592 C1582 0.931 . S
H1593 C1583 0.931 . S
H1594 C1584 0.930 . S
H1595 C1585 0.929 . S
Eu1596 N1625 2.592 1_455 S
Eu1596 N1631 2.540 1_455 S
Eu1596 O1640 2.431 1_455 S
Eu1596 O1641 2.393 . S
Eu1596 O1643 2.407 1_455 S
Eu1596 O1644 2.297 1_455 S
Eu1596 O1648 2.344 . S
Eu1596 O1651 2.397 . S
Eu1596 C1660 2.755 1_455 S
C1597 N1598 1.365 . S
C1597 C1600 1.405 . S
C1597 C1604 1.448 1_556 S
N1598 C1597 1.365 . S
N1598 C1601 1.319 . S
N1598 Eu1607 2.600 1_556 S
C1599 C1601 1.397 . S
C1599 C1602 1.367 . S
C1599 H1619 0.931 . S
C1600 C1597 1.405 . S
C1600 C1602 1.403 . S
C1600 C1606 1.439 . S
C1601 N1598 1.319 . S
C1601 C1599 1.397 . S
C1601 H1612 0.930 . S
C1602 C1599 1.367 . S
C1602 C1600 1.403 . S
C1602 H1623 0.929 . S
C1603 C1604 1.430 . S
C1603 C1605 1.370 1_554 S
C1603 C1609 1.404 . S
C1604 C1597 1.448 1_554 S
C1604 C1603 1.430 . S
C1604 N1608 1.351 . S
C1605 C1603 1.370 1_556 S
C1605 C1606 1.392 . S
C1605 H1620 0.930 1_556 S
C1606 C1600 1.439 . S
C1606 C1605 1.392 . S
C1606 H1621 0.931 . S
Eu1607 N1598 2.600 1_554 S
Eu1607 N1608 2.562 . S
Eu1607 O1642 2.335 . S
Eu1607 O1645 2.372 1_554 S
Eu1607 O1646 2.462 . S
Eu1607 O1647 2.373 . S
Eu1607 O1649 2.432 1_554 S
Eu1607 O1650 2.291 . S
Eu1607 C1671 2.787 . S
N1608 C1604 1.351 . S
N1608 Eu1607 2.562 . S
N1608 C1610 1.325 . S
C1609 C1603 1.404 . S
C1609 C1611 1.366 . S
C1609 H1617 0.930 . S
C1610 N1608 1.325 . S
C1610 C1611 1.416 . S
C1610 H1616 0.929 . S
C1611 C1609 1.366 . S
C1611 C1610 1.416 . S
C1611 H1613 0.930 . S
H1612 C1601 0.930 . S
H1613 C1611 0.930 . S
H1614 C1629 0.930 . S
H1615 C1636 0.930 1_556 S
H1616 C1610 0.929 . S
H1617 C1609 0.930 . S
H1618 C1632 0.929 . S
H1619 C1599 0.931 . S
H1620 C1605 0.930 1_554 S
H1621 C1606 0.931 . S
H1622 C1627 0.931 1_455 S
H1623 C1602 0.929 . S
H1624 C1635 0.930 . S
N1625 Eu1596 2.592 1_655 S
N1625 C1626 1.365 . S
N1625 C1629 1.319 1_655 S
C1626 N1625 1.365 . S
C1626 C1628 1.405 . S
C1626 C1634 1.448 . S
C1627 H1622 0.931 1_655 S
C1627 C1629 1.397 1_655 S
C1627 C1630 1.367 . S
C1628 C1626 1.405 . S
C1628 C1630 1.403 . S
C1628 C1661 1.439 . S
C1629 H1614 0.930 . S
C1629 N1625 1.319 1_455 S
C1629 C1627 1.397 1_455 S
C1630 C1627 1.367 . S
C1630 C1628 1.403 . S
C1630 H1637 0.929 . S
N1631 Eu1596 2.540 1_655 S
N1631 C1632 1.325 . S
N1631 C1634 1.351 . S
C1632 H1618 0.929 . S
C1632 N1631 1.325 . S
C1632 C1636 1.416 . S
C1633 C1634 1.430 . S
C1633 C1635 1.404 . S
C1633 C1662 1.387 . S
C1634 C1626 1.448 . S
C1634 N1631 1.351 . S
C1634 C1633 1.430 . S
C1635 H1624 0.930 . S
C1635 C1633 1.404 . S
C1635 C1636 1.366 . S
C1636 H1615 0.930 1_554 S
C1636 C1632 1.416 . S
C1636 C1635 1.366 . S
H1637 C1630 0.929 . S
H1638 C1661 0.931 . S
H1639 C1662 0.931 . S
O1640 Eu1596 2.431 1_655 S
O1640 C1660 1.252 . S
O1641 Eu1596 2.393 . S
O1641 C1652 1.249 . S
O1642 Eu1607 2.335 . S
O1642 C1652 1.264 . S
O1643 Eu1596 2.407 1_655 S
O1643 C1660 1.268 . S
O1644 Eu1596 2.297 1_655 S
O1644 C1659 1.254 1_654 S
O1645 Eu1607 2.372 1_556 S
O1645 C1659 1.257 . S
O1646 Eu1607 2.462 . S
O1646 C1671 1.252 . S
O1647 Eu1607 2.373 . S
O1647 C1663 1.249 . S
O1648 Eu1596 2.344 . S
O1648 C1663 1.264 . S
O1649 Eu1607 2.432 1_556 S
O1649 C1671 1.268 1_556 S
O1650 Eu1607 2.291 . S
O1650 C1670 1.255 . S
O1651 Eu1596 2.397 . S
O1651 C1670 1.257 . S
C1652 O1641 1.249 . S
C1652 O1642 1.264 . S
C1653 C1656 1.382 . S
C1653 C1658 1.390 . S
C1653 C1660 1.506 . S
C1654 C1655 1.398 . S
C1654 C1658 1.392 . S
C1655 C1654 1.398 . S
C1655 C1657 1.372 . S
C1655 H1672 0.931 . S
C1656 C1653 1.382 . S
C1656 C1657 1.390 . S
C1656 H1673 0.931 . S
C1657 C1655 1.372 . S
C1657 C1656 1.390 . S
C1657 H1674 0.929 . S
C1658 C1653 1.390 . S
C1658 C1654 1.392 . S
C1658 H1675 0.930 . S
C1659 O1644 1.254 1_456 S
C1659 O1645 1.257 . S
C1660 Eu1596 2.755 1_655 S
C1660 O1640 1.252 . S
C1660 O1643 1.268 . S
C1660 C1653 1.506 . S
C1661 C1628 1.439 . S
C1661 H1638 0.931 . S
C1661 C1662 1.374 . S
C1662 C1633 1.387 . S
C1662 H1639 0.931 . S
C1662 C1661 1.374 . S
C1663 O1647 1.249 . S
C1663 O1648 1.264 . S
C1664 C1667 1.382 . S
C1664 C1668 1.390 1_556 S
C1664 C1671 1.506 1_556 S
C1665 C1666 1.398 1_554 S
C1665 C1668 1.392 . S
C1666 C1665 1.398 1_556 S
C1666 C1669 1.372 . S
C1666 H1676 0.931 . S
C1667 C1664 1.382 . S
C1667 C1669 1.390 . S
C1667 H1677 0.931 . S
C1668 C1664 1.390 1_554 S
C1668 C1665 1.392 . S
C1668 H1678 0.930 . S
C1669 C1666 1.372 . S
C1669 C1667 1.390 . S
C1669 H1679 0.929 . S
C1670 O1650 1.255 . S
C1670 O1651 1.257 . S
C1671 Eu1607 2.787 . S
C1671 O1646 1.252 . S
C1671 O1649 1.268 1_554 S
C1671 C1664 1.506 1_554 S
H1672 C1655 0.931 . S
H1673 C1656 0.931 . S
H1674 C1657 0.929 . S
H1675 C1658 0.930 . S
H1676 C1666 0.931 . S
H1677 C1667 0.931 . S
H1678 C1668 0.930 . S
H1679 C1669 0.929 . S
C1680 C1681 1.387 . S
C1680 H1684 0.950 . S
C1680 C1689 1.390 . S
C1681 C1680 1.387 . S
C1681 C1683 1.387 1_554 S
H1682 C1689 0.950 . S
C1683 C1681 1.387 1_556 S
C1683 C1685 1.390 . S
C1683 H1687 0.950 . S
H1684 C1680 0.950 . S
C1685 C1683 1.390 . S
C1685 C1686 1.387 1_556 S
C1685 H1688 0.950 . S
C1686 C1685 1.387 1_554 S
C1686 C1689 1.387 . S
H1687 C1683 0.950 . S
H1688 C1685 0.950 . S
C1689 C1680 1.390 . S
C1689 H1682 0.950 . S
C1689 C1686 1.387 . S
C1690 C1691 1.387 . S
C1690 H1694 0.950 . S
C1690 C1699 1.390 . S
C1691 C1690 1.387 . S
C1691 C1693 1.387 . S
H1692 C1699 0.950 . S
C1693 C1691 1.387 . S
C1693 C1695 1.390 . S
C1693 H1697 0.950 . S
H1694 C1690 0.950 . S
C1695 C1693 1.390 . S
C1695 C1696 1.387 . S
C1695 H1698 0.950 . S
C1696 C1695 1.387 . S
C1696 C1699 1.387 . S
H1697 C1693 0.950 . S
H1698 C1695 0.950 . S
C1699 C1690 1.390 . S
C1699 H1692 0.950 . S
C1699 C1696 1.387 . S
C1700 C1701 1.387 . S
C1700 H1704 0.950 . S
C1700 C1709 1.390 . S
C1701 C1700 1.387 . S
C1701 C1703 1.387 . S
H1702 C1709 0.950 . S
C1703 C1701 1.387 . S
C1703 C1705 1.390 . S
C1703 H1707 0.950 . S
H1704 C1700 0.950 . S
C1705 C1703 1.390 . S
C1705 C1706 1.387 . S
C1705 H1708 0.950 . S
C1706 C1705 1.387 . S
C1706 C1709 1.387 . S
H1707 C1703 0.950 . S
H1708 C1705 0.950 . S
C1709 C1700 1.390 . S
C1709 H1702 0.950 . S
C1709 C1706 1.387 . S
C1710 C1711 1.387 . S
C1710 H1714 0.950 . S
C1710 C1719 1.390 . S
C1711 C1710 1.387 . S
C1711 C1713 1.387 . S
H1712 C1719 0.950 . S
C1713 C1711 1.387 . S
C1713 C1715 1.390 . S
C1713 H1717 0.950 . S
H1714 C1710 0.950 . S
C1715 C1713 1.390 . S
C1715 C1716 1.387 . S
C1715 H1718 0.950 . S
C1716 C1715 1.387 . S
C1716 C1719 1.387 . S
H1717 C1713 0.950 . S
H1718 C1715 0.950 . S
C1719 C1710 1.390 . S
C1719 H1712 0.950 . S
C1719 C1716 1.387 . S
C1720 C1721 1.387 . S
C1720 H1724 0.950 . S
C1720 C1729 1.390 . S
C1721 C1720 1.387 . S
C1721 C1723 1.387 . S
H1722 C1729 0.950 . S
C1723 C1721 1.387 . S
C1723 C1725 1.390 . S
C1723 H1727 0.950 1_455 S
H1724 C1720 0.950 . S
C1725 C1723 1.390 . S
C1725 C1726 1.387 . S
C1725 H1728 0.950 1_455 S
C1726 C1725 1.387 . S
C1726 C1729 1.387 . S
H1727 C1723 0.950 1_655 S
H1728 C1725 0.950 1_655 S
C1729 C1720 1.390 . S
C1729 H1722 0.950 . S
C1729 C1726 1.387 . S
C1730 C1731 1.387 . S
C1730 H1734 0.950 . S
C1730 C1739 1.390 . S
C1731 C1730 1.387 . S
C1731 C1733 1.387 . S
H1732 C1739 0.950 . S
C1733 C1731 1.387 . S
C1733 C1735 1.390 . S
C1733 H1737 0.950 . S
H1734 C1730 0.950 . S
C1735 C1733 1.390 . S
C1735 C1736 1.387 . S
C1735 H1738 0.950 . S
C1736 C1735 1.387 . S
C1736 C1739 1.387 . S
H1737 C1733 0.950 . S
H1738 C1735 0.950 . S
C1739 C1730 1.390 . S
C1739 H1732 0.950 . S
C1739 C1736 1.387 . S
C1740 C1741 1.387 . S
C1740 H1744 0.950 . S
C1740 C1749 1.390 . S
C1741 C1740 1.387 . S
C1741 C1743 1.387 . S
H1742 C1749 0.950 . S
C1743 C1741 1.387 . S
C1743 C1745 1.390 . S
C1743 H1747 0.950 . S
H1744 C1740 0.950 . S
C1745 C1743 1.390 . S
C1745 C1746 1.387 . S
C1745 H1748 0.950 . S
C1746 C1745 1.387 . S
C1746 C1749 1.387 . S
H1747 C1743 0.950 . S
H1748 C1745 0.950 . S
C1749 C1740 1.390 . S
C1749 H1742 0.950 . S
C1749 C1746 1.387 . S
C1750 C1751 1.387 . S
C1750 H1754 0.950 . S
C1750 C1759 1.390 . S
C1751 C1750 1.387 . S
C1751 C1753 1.387 . S
H1752 C1759 0.950 . S
C1753 C1751 1.387 . S
C1753 C1755 1.390 . S
C1753 H1757 0.950 . S
H1754 C1750 0.950 . S
C1755 C1753 1.390 . S
C1755 C1756 1.387 . S
C1755 H1758 0.950 . S
C1756 C1755 1.387 . S
C1756 C1759 1.387 . S
H1757 C1753 0.950 . S
H1758 C1755 0.950 . S
C1759 C1750 1.390 . S
C1759 H1752 0.950 . S
C1759 C1756 1.387 . S
C1760 C1761 1.387 . S
C1760 H1764 0.950 1_545 S
C1760 C1769 1.390 . S
C1761 C1760 1.387 . S
C1761 C1763 1.387 1_655 S
H1762 C1769 0.950 1_565 S
C1763 C1761 1.387 1_455 S
C1763 C1765 1.390 . S
C1763 H1767 0.950 . S
H1764 C1760 0.950 1_565 S
C1765 C1763 1.390 . S
C1765 C1766 1.387 . S
C1765 H1768 0.950 . S
C1766 C1765 1.387 . S
C1766 C1769 1.387 1_455 S
H1767 C1763 0.950 . S
H1768 C1765 0.950 . S
C1769 C1760 1.390 . S
C1769 H1762 0.950 1_545 S
C1769 C1766 1.387 1_655 S
C1770 C1771 1.387 . S
C1770 H1774 0.950 . S
C1770 C1779 1.390 . S
C1771 C1770 1.387 . S
C1771 C1773 1.387 . S
H1772 C1779 0.950 . S
C1773 C1771 1.387 . S
C1773 C1775 1.390 . S
C1773 H1777 0.950 . S
H1774 C1770 0.950 . S
C1775 C1773 1.390 . S
C1775 C1776 1.387 . S
C1775 H1778 0.950 . S
C1776 C1775 1.387 . S
C1776 C1779 1.387 . S
H1777 C1773 0.950 . S
H1778 C1775 0.950 . S
C1779 C1770 1.390 . S
C1779 H1772 0.950 . S
C1779 C1776 1.387 . S
C1780 C1781 1.387 . S
C1780 H1784 0.950 . S
C1780 C1789 1.390 . S
C1781 C1780 1.387 . S
C1781 C1783 1.387 . S
H1782 C1789 0.950 . S
C1783 C1781 1.387 . S
C1783 C1785 1.390 . S
C1783 H1787 0.950 . S
H1784 C1780 0.950 . S
C1785 C1783 1.390 . S
C1785 C1786 1.387 . S
C1785 H1788 0.950 . S
C1786 C1785 1.387 . S
C1786 C1789 1.387 . S
H1787 C1783 0.950 . S
H1788 C1785 0.950 . S
C1789 C1780 1.390 . S
C1789 H1782 0.950 . S
C1789 C1786 1.387 . S
C1790 C1791 1.387 . S
C1790 H1794 0.950 . S
C1790 C1799 1.390 . S
C1791 C1790 1.387 . S
C1791 C1793 1.387 . S
H1792 C1799 0.950 . S
C1793 C1791 1.387 . S
C1793 C1795 1.390 . S
C1793 H1797 0.950 . S
H1794 C1790 0.950 . S
C1795 C1793 1.390 . S
C1795 C1796 1.387 . S
C1795 H1798 0.950 . S
C1796 C1795 1.387 . S
C1796 C1799 1.387 . S
H1797 C1793 0.950 . S
H1798 C1795 0.950 . S
C1799 C1790 1.390 . S
C1799 H1792 0.950 . S
C1799 C1796 1.387 . S
C1800 C1801 1.387 1_455 S
C1800 H1804 0.950 . S
C1800 C1809 1.390 . S
C1801 C1800 1.387 1_655 S
C1801 C1803 1.387 . S
H1802 C1809 0.950 . S
C1803 C1801 1.387 . S
C1803 C1805 1.390 . S
C1803 H1807 0.950 1_545 S
H1804 C1800 0.950 . S
C1805 C1803 1.390 . S
C1805 C1806 1.387 1_655 S
C1805 H1808 0.950 1_545 S
C1806 C1805 1.387 1_455 S
C1806 C1809 1.387 . S
H1807 C1803 0.950 1_565 S
H1808 C1805 0.950 1_565 S
C1809 C1800 1.390 . S
C1809 H1802 0.950 . S
C1809 C1806 1.387 . S
C1810 C1811 1.387 . S
C1810 H1814 0.950 . S
C1810 C1819 1.390 . S
C1811 C1810 1.387 . S
C1811 C1813 1.387 . S
H1812 C1819 0.950 . S
C1813 C1811 1.387 . S
C1813 C1815 1.390 . S
C1813 H1817 0.950 . S
H1814 C1810 0.950 . S
C1815 C1813 1.390 . S
C1815 C1816 1.387 . S
C1815 H1818 0.950 . S
C1816 C1815 1.387 . S
C1816 C1819 1.387 . S
H1817 C1813 0.950 . S
H1818 C1815 0.950 . S
C1819 C1810 1.390 . S
C1819 H1812 0.950 . S
C1819 C1816 1.387 . S
C1820 C1821 1.387 . S
C1820 H1824 0.950 . S
C1820 C1829 1.390 . S
C1821 C1820 1.387 . S
C1821 C1823 1.387 . S
H1822 C1829 0.950 . S
C1823 C1821 1.387 . S
C1823 C1825 1.390 . S
C1823 H1827 0.950 . S
H1824 C1820 0.950 . S
C1825 C1823 1.390 . S
C1825 C1826 1.387 . S
C1825 H1828 0.950 . S
C1826 C1825 1.387 . S
C1826 C1829 1.387 . S
H1827 C1823 0.950 . S
H1828 C1825 0.950 . S
C1829 C1820 1.390 . S
C1829 H1822 0.950 . S
C1829 C1826 1.387 . S
C1830 C1831 1.387 . S
C1830 H1834 0.950 . S
C1830 C1839 1.390 . S
C1831 C1830 1.387 . S
C1831 C1833 1.387 . S
H1832 C1839 0.950 . S
C1833 C1831 1.387 . S
C1833 C1835 1.390 . S
C1833 H1837 0.950 . S
H1834 C1830 0.950 . S
C1835 C1833 1.390 . S
C1835 C1836 1.387 . S
C1835 H1838 0.950 . S
C1836 C1835 1.387 . S
C1836 C1839 1.387 . S
H1837 C1833 0.950 . S
H1838 C1835 0.950 . S
C1839 C1830 1.390 . S
C1839 H1832 0.950 . S
C1839 C1836 1.387 . S
C1840 C1841 1.387 . S
C1840 H1844 0.950 . S
C1840 C1849 1.390 . S
C1841 C1840 1.387 . S
C1841 C1843 1.387 1_564 S
H1842 C1849 0.950 . S
C1843 C1841 1.387 1_546 S
C1843 C1845 1.390 1_556 S
C1843 H1847 0.950 . S
H1844 C1840 0.950 . S
C1845 C1843 1.390 1_554 S
C1845 C1846 1.387 . S
C1845 H1848 0.950 . S
C1846 C1845 1.387 . S
C1846 C1849 1.387 1_545 S
H1847 C1843 0.950 . S
H1848 C1845 0.950 . S
C1849 C1840 1.390 . S
C1849 H1842 0.950 . S
C1849 C1846 1.387 1_565 S
C1850 C1851 1.387 . S
C1850 H1854 0.950 . S
C1850 C1859 1.390 . S
C1851 C1850 1.387 . S
C1851 C1853 1.387 1_554 S
H1852 C1859 0.950 . S
C1853 C1851 1.387 1_556 S
C1853 C1855 1.390 . S
C1853 H1857 0.950 . S
H1854 C1850 0.950 . S
C1855 C1853 1.390 . S
C1855 C1856 1.387 1_556 S
C1855 H1858 0.950 . S
C1856 C1855 1.387 1_554 S
C1856 C1859 1.387 . S
H1857 C1853 0.950 . S
H1858 C1855 0.950 . S
C1859 C1850 1.390 . S
C1859 H1852 0.950 . S
C1859 C1856 1.387 . S
C1860 C1861 1.387 . S
C1860 H1864 0.950 . S
C1860 C1869 1.390 . S
C1861 C1860 1.387 . S
C1861 C1863 1.387 . S
H1862 C1869 0.950 . S
C1863 C1861 1.387 . S
C1863 C1865 1.390 . S
C1863 H1867 0.950 . S
H1864 C1860 0.950 . S
C1865 C1863 1.390 . S
C1865 C1866 1.387 . S
C1865 H1868 0.950 . S
C1866 C1865 1.387 . S
C1866 C1869 1.387 . S
H1867 C1863 0.950 . S
H1868 C1865 0.950 . S
C1869 C1860 1.390 . S
C1869 H1862 0.950 . S
C1869 C1866 1.387 . S
C1870 C1871 1.387 . S
C1870 H1874 0.950 . S
C1870 C1879 1.390 . S
C1871 C1870 1.387 . S
C1871 C1873 1.387 . S
H1872 C1879 0.950 . S
C1873 C1871 1.387 . S
C1873 C1875 1.390 . S
C1873 H1877 0.950 . S
H1874 C1870 0.950 . S
C1875 C1873 1.390 . S
C1875 C1876 1.387 . S
C1875 H1878 0.950 . S
C1876 C1875 1.387 . S
C1876 C1879 1.387 . S
H1877 C1873 0.950 . S
H1878 C1875 0.950 . S
C1879 C1870 1.390 . S
C1879 H1872 0.950 . S
C1879 C1876 1.387 . S
C1880 C1881 1.387 . S
C1880 H1884 0.950 . S
C1880 C1889 1.390 . S
C1881 C1880 1.387 . S
C1881 C1883 1.387 . S
H1882 C1889 0.950 . S
C1883 C1881 1.387 . S
C1883 C1885 1.390 . S
C1883 H1887 0.950 . S
H1884 C1880 0.950 . S
C1885 C1883 1.390 . S
C1885 C1886 1.387 . S
C1885 H1888 0.950 . S
C1886 C1885 1.387 . S
C1886 C1889 1.387 . S
H1887 C1883 0.950 . S
H1888 C1885 0.950 . S
C1889 C1880 1.390 . S
C1889 H1882 0.950 . S
C1889 C1886 1.387 . S
C1890 C1891 1.387 . S
C1890 H1894 0.950 . S
C1890 C1899 1.390 . S
C1891 C1890 1.387 . S
C1891 C1893 1.387 . S
H1892 C1899 0.950 . S
C1893 C1891 1.387 . S
C1893 C1895 1.390 . S
C1893 H1897 0.950 . S
H1894 C1890 0.950 . S
C1895 C1893 1.390 . S
C1895 C1896 1.387 . S
C1895 H1898 0.950 . S
C1896 C1895 1.387 . S
C1896 C1899 1.387 . S
H1897 C1893 0.950 . S
H1898 C1895 0.950 . S
C1899 C1890 1.390 . S
C1899 H1892 0.950 . S
C1899 C1896 1.387 . S
C1900 C1901 1.387 . S
C1900 H1904 0.950 . S
C1900 C1909 1.390 . S
C1901 C1900 1.387 . S
C1901 C1903 1.387 . S
H1902 C1909 0.950 . S
C1903 C1901 1.387 . S
C1903 C1905 1.390 . S
C1903 H1907 0.950 . S
H1904 C1900 0.950 . S
C1905 C1903 1.390 . S
C1905 C1906 1.387 . S
C1905 H1908 0.950 . S
C1906 C1905 1.387 . S
C1906 C1909 1.387 . S
H1907 C1903 0.950 . S
H1908 C1905 0.950 . S
C1909 C1900 1.390 . S
C1909 H1902 0.950 . S
C1909 C1906 1.387 . S
C1910 C1911 1.387 . S
C1910 H1914 0.950 . S
C1910 C1919 1.390 . S
C1911 C1910 1.387 . S
C1911 C1913 1.387 . S
H1912 C1919 0.950 . S
C1913 C1911 1.387 . S
C1913 C1915 1.390 . S
C1913 H1917 0.950 . S
H1914 C1910 0.950 . S
C1915 C1913 1.390 . S
C1915 C1916 1.387 . S
C1915 H1918 0.950 . S
C1916 C1915 1.387 . S
C1916 C1919 1.387 . S
H1917 C1913 0.950 . S
H1918 C1915 0.950 . S
C1919 C1910 1.390 . S
C1919 H1912 0.950 . S
C1919 C1916 1.387 . S
C1920 C1921 1.387 . S
C1920 H1924 0.950 . S
C1920 C1929 1.390 . S
C1921 C1920 1.387 . S
C1921 C1923 1.387 . S
H1922 C1929 0.950 . S
C1923 C1921 1.387 . S
C1923 C1925 1.390 . S
C1923 H1927 0.950 . S
H1924 C1920 0.950 . S
C1925 C1923 1.390 . S
C1925 C1926 1.387 . S
C1925 H1928 0.950 . S
C1926 C1925 1.387 . S
C1926 C1929 1.387 . S
H1927 C1923 0.950 . S
H1928 C1925 0.950 . S
C1929 C1920 1.390 . S
C1929 H1922 0.950 . S
C1929 C1926 1.387 . S
C1930 C1931 1.387 . S
C1930 H1934 0.950 . S
C1930 C1939 1.390 . S
C1931 C1930 1.387 . S
C1931 C1933 1.387 . S
H1932 C1939 0.950 . S
C1933 C1931 1.387 . S
C1933 C1935 1.390 . S
C1933 H1937 0.950 . S
H1934 C1930 0.950 . S
C1935 C1933 1.390 . S
C1935 C1936 1.387 . S
C1935 H1938 0.950 . S
C1936 C1935 1.387 . S
C1936 C1939 1.387 . S
H1937 C1933 0.950 . S
H1938 C1935 0.950 . S
C1939 C1930 1.390 . S
C1939 H1932 0.950 . S
C1939 C1936 1.387 . S
C1940 C1941 1.387 . S
C1940 H1944 0.950 . S
C1940 C1949 1.390 . S
C1941 C1940 1.387 . S
C1941 C1943 1.387 . S
H1942 C1949 0.950 . S
C1943 C1941 1.387 . S
C1943 C1945 1.390 . S
C1943 H1947 0.950 . S
H1944 C1940 0.950 . S
C1945 C1943 1.390 . S
C1945 C1946 1.387 . S
C1945 H1948 0.950 . S
C1946 C1945 1.387 . S
C1946 C1949 1.387 . S
H1947 C1943 0.950 . S
H1948 C1945 0.950 . S
C1949 C1940 1.390 . S
C1949 H1942 0.950 . S
C1949 C1946 1.387 . S
C1950 C1951 1.387 . S
C1950 H1954 0.950 . S
C1950 C1959 1.390 . S
C1951 C1950 1.387 . S
C1951 C1953 1.387 . S
H1952 C1959 0.950 . S
C1953 C1951 1.387 . S
C1953 C1955 1.390 . S
C1953 H1957 0.950 . S
H1954 C1950 0.950 . S
C1955 C1953 1.390 . S
C1955 C1956 1.387 . S
C1955 H1958 0.950 . S
C1956 C1955 1.387 . S
C1956 C1959 1.387 . S
H1957 C1953 0.950 . S
H1958 C1955 0.950 . S
C1959 C1950 1.390 . S
C1959 H1952 0.950 . S
C1959 C1956 1.387 . S
C1960 C1961 1.387 . S
C1960 H1964 0.962 . S
C1960 C1969 1.390 . S
C1961 C1960 1.387 . S
C1961 C1963 1.387 . S
H1962 C1969 0.950 1_655 S
C1963 C1961 1.387 . S
C1963 C1965 1.390 . S
C1963 H1967 0.950 . S
H1964 C1960 0.962 . S
C1965 C1963 1.390 . S
C1965 C1966 1.387 . S
C1965 H1968 0.950 . S
C1966 C1965 1.387 . S
C1966 C1969 1.387 . S
H1967 C1963 0.950 . S
H1968 C1965 0.950 . S
C1969 C1960 1.390 . S
C1969 H1962 0.950 1_455 S
C1969 C1966 1.387 . S
C1970 C1971 1.387 . S
C1970 H1974 0.950 . S
C1970 C1979 1.390 . S
C1971 C1970 1.387 . S
C1971 C1973 1.387 . S
H1972 C1979 0.950 . S
C1973 C1971 1.387 . S
C1973 C1975 1.390 . S
C1973 H1977 0.950 . S
H1974 C1970 0.950 . S
C1975 C1973 1.390 . S
C1975 C1976 1.387 . S
C1975 H1978 0.950 . S
C1976 C1975 1.387 . S
C1976 C1979 1.387 . S
H1977 C1973 0.950 . S
H1978 C1975 0.950 . S
C1979 C1970 1.390 . S
C1979 H1972 0.950 . S
C1979 C1976 1.387 . S
C1980 C1981 1.387 . S
C1980 H1984 0.950 . S
C1980 C1989 1.390 . S
C1981 C1980 1.387 . S
C1981 C1983 1.387 . S
H1982 C1989 0.950 . S
C1983 C1981 1.387 . S
C1983 C1985 1.390 . S
C1983 H1987 0.950 . S
H1984 C1980 0.950 . S
C1985 C1983 1.390 . S
C1985 C1986 1.387 . S
C1985 H1988 0.950 1_556 S
C1986 C1985 1.387 . S
C1986 C1989 1.387 . S
H1987 C1983 0.950 . S
H1988 C1985 0.950 1_554 S
C1989 C1980 1.390 . S
C1989 H1982 0.950 . S
C1989 C1986 1.387 . S
C1990 C1991 1.387 . S
C1990 H1994 0.950 . S
C1990 C1999 1.390 . S
C1991 C1990 1.387 . S
C1991 C1993 1.387 . S
H1992 C1999 0.950 . S
C1993 C1991 1.387 . S
C1993 C1995 1.390 . S
C1993 H1997 0.950 . S
H1994 C1990 0.950 . S
C1995 C1993 1.390 . S
C1995 C1996 1.387 . S
C1995 H1998 0.950 . S
C1996 C1995 1.387 . S
C1996 C1999 1.387 . S
H1997 C1993 0.950 . S
H1998 C1995 0.950 . S
C1999 C1990 1.390 . S
C1999 H1992 0.950 . S
C1999 C1996 1.387 . S
C2000 C2001 1.387 . S
C2000 H2004 0.950 . S
C2000 C2009 1.390 . S
C2001 C2000 1.387 . S
C2001 C2003 1.387 . S
H2002 C2009 0.950 . S
C2003 C2001 1.387 . S
C2003 C2005 1.390 . S
C2003 H2007 0.950 . S
H2004 C2000 0.950 . S
C2005 C2003 1.390 . S
C2005 C2006 1.387 . S
C2005 H2008 0.950 . S
C2006 C2005 1.387 . S
C2006 C2009 1.387 . S
H2007 C2003 0.950 . S
H2008 C2005 0.950 . S
C2009 C2000 1.390 . S
C2009 H2002 0.950 . S
C2009 C2006 1.387 . S
C2010 C2011 1.387 . S
C2010 H2014 0.950 . S
C2010 C2019 1.390 . S
C2011 C2010 1.387 . S
C2011 C2013 1.387 . S
H2012 C2019 0.950 . S
C2013 C2011 1.387 . S
C2013 C2015 1.390 . S
C2013 H2017 0.950 . S
H2014 C2010 0.950 . S
C2015 C2013 1.390 . S
C2015 C2016 1.387 . S
C2015 H2018 0.950 . S
C2016 C2015 1.387 . S
C2016 C2019 1.387 . S
H2017 C2013 0.950 . S
H2018 C2015 0.950 . S
C2019 C2010 1.390 . S
C2019 H2012 0.950 . S
C2019 C2016 1.387 . S
C2020 C2021 1.387 1_565 S
C2020 H2024 0.950 . S
C2020 C2029 1.390 . S
C2021 C2020 1.387 1_545 S
C2021 C2023 1.387 . S
H2022 C2029 0.953 . S
C2023 C2021 1.387 . S
C2023 C2025 1.390 . S
C2023 H2027 0.950 . S
H2024 C2020 0.950 . S
C2025 C2023 1.390 . S
C2025 C2026 1.387 . S
C2025 H2028 0.950 . S
C2026 C2025 1.387 . S
C2026 C2029 1.384 1_545 S
H2027 C2023 0.950 . S
H2028 C2025 0.950 . S
C2029 C2020 1.390 . S
C2029 H2022 0.953 . S
C2029 C2026 1.384 1_565 S
C2030 C2031 1.387 . S
C2030 H2034 0.950 . S
C2030 C2039 1.390 . S
C2031 C2030 1.387 . S
C2031 C2033 1.387 . S
H2032 C2039 0.950 . S
C2033 C2031 1.387 . S
C2033 C2035 1.390 . S
C2033 H2037 0.950 . S
H2034 C2030 0.950 . S
C2035 C2033 1.390 . S
C2035 C2036 1.387 . S
C2035 H2038 0.950 . S
C2036 C2035 1.387 . S
C2036 C2039 1.387 . S
H2037 C2033 0.950 . S
H2038 C2035 0.950 . S
C2039 C2030 1.390 . S
C2039 H2032 0.950 . S
C2039 C2036 1.387 . S
C2040 C2041 1.387 . S
C2040 H2044 0.950 . S
C2040 C2049 1.390 . S
C2041 C2040 1.387 . S
C2041 C2043 1.387 . S
H2042 C2049 0.950 . S
C2043 C2041 1.387 . S
C2043 C2045 1.390 . S
C2043 H2047 0.950 . S
H2044 C2040 0.950 . S
C2045 C2043 1.390 . S
C2045 C2046 1.387 . S
C2045 H2048 0.950 . S
C2046 C2045 1.387 . S
C2046 C2049 1.387 . S
H2047 C2043 0.950 . S
H2048 C2045 0.950 . S
C2049 C2040 1.390 . S
C2049 H2042 0.950 . S
C2049 C2046 1.387 . S
C2050 C2051 1.387 . S
C2050 H2054 0.950 . S
C2050 C2059 1.390 . S
C2051 C2050 1.387 . S
C2051 C2053 1.387 . S
H2052 C2059 0.950 . S
C2053 C2051 1.387 . S
C2053 C2055 1.390 . S
C2053 H2057 0.950 . S
H2054 C2050 0.950 . S
C2055 C2053 1.390 . S
C2055 C2056 1.387 . S
C2055 H2058 0.950 . S
C2056 C2055 1.387 . S
C2056 C2059 1.387 . S
H2057 C2053 0.950 . S
H2058 C2055 0.950 . S
C2059 C2050 1.390 . S
C2059 H2052 0.950 . S
C2059 C2056 1.387 . S
C2060 C2061 1.387 1_565 S
C2060 H2064 0.950 . S
C2060 C2069 1.390 . S
C2061 C2060 1.387 1_545 S
C2061 C2063 1.387 . S
H2062 C2069 0.950 . S
C2063 C2061 1.387 . S
C2063 C2065 1.390 . S
C2063 H2067 0.950 . S
H2064 C2060 0.950 . S
C2065 C2063 1.390 . S
C2065 C2066 1.387 . S
C2065 H2068 0.950 . S
C2066 C2065 1.387 . S
C2066 C2069 1.387 1_545 S
H2067 C2063 0.950 . S
H2068 C2065 0.950 . S
C2069 C2060 1.390 . S
C2069 H2062 0.950 . S
C2069 C2066 1.387 1_565 S
C2070 C2071 1.387 . S
C2070 H2074 0.950 . S
C2070 C2079 1.390 . S
C2071 C2070 1.387 . S
C2071 C2073 1.387 . S
H2072 C2079 0.950 . S
C2073 C2071 1.387 . S
C2073 C2075 1.390 . S
C2073 H2077 0.950 . S
H2074 C2070 0.950 . S
C2075 C2073 1.390 . S
C2075 C2076 1.387 . S
C2075 H2078 0.950 . S
C2076 C2075 1.387 . S
C2076 C2079 1.387 . S
H2077 C2073 0.950 . S
H2078 C2075 0.950 . S
C2079 C2070 1.390 . S
C2079 H2072 0.950 . S
C2079 C2076 1.387 . S
C2080 C2081 1.387 . S
C2080 H2084 0.950 . S
C2080 C2089 1.390 . S
C2081 C2080 1.387 . S
C2081 C2083 1.387 . S
H2082 C2089 0.950 . S
C2083 C2081 1.387 . S
C2083 C2085 1.390 . S
C2083 H2087 0.950 . S
H2084 C2080 0.950 . S
C2085 C2083 1.390 . S
C2085 C2086 1.387 . S
C2085 H2088 0.950 . S
C2086 C2085 1.387 . S
C2086 C2089 1.387 . S
H2087 C2083 0.950 . S
H2088 C2085 0.950 . S
C2089 C2080 1.390 . S
C2089 H2082 0.950 . S
C2089 C2086 1.387 . S
C2090 C2091 1.387 . S
C2090 H2094 0.950 . S
C2090 C2099 1.390 . S
C2091 C2090 1.387 . S
C2091 C2093 1.387 . S
H2092 C2099 0.950 . S
C2093 C2091 1.387 . S
C2093 C2095 1.390 . S
C2093 H2097 0.950 . S
H2094 C2090 0.950 . S
C2095 C2093 1.390 . S
C2095 C2096 1.387 . S
C2095 H2098 0.950 . S
C2096 C2095 1.387 . S
C2096 C2099 1.387 . S
H2097 C2093 0.950 . S
H2098 C2095 0.950 . S
C2099 C2090 1.390 . S
C2099 H2092 0.950 . S
C2099 C2096 1.387 . S
C2100 C2101 1.387 . S
C2100 H2104 0.950 . S
C2100 C2109 1.390 . S
C2101 C2100 1.387 . S
C2101 C2103 1.387 . S
H2102 C2109 0.950 . S
C2103 C2101 1.387 . S
C2103 C2105 1.390 . S
C2103 H2107 0.950 . S
H2104 C2100 0.950 . S
C2105 C2103 1.390 . S
C2105 C2106 1.387 . S
C2105 H2108 0.950 . S
C2106 C2105 1.387 . S
C2106 C2109 1.387 . S
H2107 C2103 0.950 . S
H2108 C2105 0.950 . S
C2109 C2100 1.390 . S
C2109 H2102 0.950 . S
C2109 C2106 1.387 . S
C2110 C2111 1.387 . S
C2110 H2114 0.950 . S
C2110 C2119 1.390 . S
C2111 C2110 1.387 . S
C2111 C2113 1.387 . S
H2112 C2119 0.950 . S
C2113 C2111 1.387 . S
C2113 C2115 1.390 . S
C2113 H2117 0.950 . S
H2114 C2110 0.950 . S
C2115 C2113 1.390 . S
C2115 C2116 1.387 . S
C2115 H2118 0.950 . S
C2116 C2115 1.387 . S
C2116 C2119 1.387 . S
H2117 C2113 0.950 . S
H2118 C2115 0.950 . S
C2119 C2110 1.390 . S
C2119 H2112 0.950 . S
C2119 C2116 1.387 . S
C2120 C2121 1.387 . S
C2120 H2124 0.950 . S
C2120 C2129 1.390 1_545 S
C2121 C2120 1.387 . S
C2121 C2123 1.387 1_545 S
H2122 C2129 0.950 1_545 S
C2123 C2121 1.387 1_565 S
C2123 C2125 1.390 . S
C2123 H2127 0.950 . S
H2124 C2120 0.950 . S
C2125 C2123 1.390 . S
C2125 C2126 1.387 . S
C2125 H2128 0.950 . S
C2126 C2125 1.387 . S
C2126 C2129 1.387 . S
H2127 C2123 0.950 . S
H2128 C2125 0.950 . S
C2129 C2120 1.390 1_565 S
C2129 H2122 0.950 1_565 S
C2129 C2126 1.387 . S
C2130 C2131 1.387 . S
C2130 H2134 0.950 . S
C2130 C2139 1.390 . S
C2131 C2130 1.387 . S
C2131 C2133 1.387 . S
H2132 C2139 0.950 . S
C2133 C2131 1.387 . S
C2133 C2135 1.390 . S
C2133 H2137 0.950 . S
H2134 C2130 0.950 . S
C2135 C2133 1.390 . S
C2135 C2136 1.387 . S
C2135 H2138 0.950 . S
C2136 C2135 1.387 . S
C2136 C2139 1.387 . S
H2137 C2133 0.950 . S
H2138 C2135 0.950 . S
C2139 C2130 1.390 . S
C2139 H2132 0.950 . S
C2139 C2136 1.387 . S
C2140 C2141 1.387 . S
C2140 H2144 0.950 . S
C2140 C2149 1.390 . S
C2141 C2140 1.387 . S
C2141 C2143 1.387 . S
H2142 C2149 0.950 . S
C2143 C2141 1.387 . S
C2143 C2145 1.390 . S
C2143 H2147 0.950 . S
H2144 C2140 0.950 . S
C2145 C2143 1.390 . S
C2145 C2146 1.387 . S
C2145 H2148 0.950 . S
C2146 C2145 1.387 . S
C2146 C2149 1.387 . S
H2147 C2143 0.950 . S
H2148 C2145 0.950 . S
C2149 C2140 1.390 . S
C2149 H2142 0.950 . S
C2149 C2146 1.387 . S
C2150 C2151 1.387 . S
C2150 H2154 0.950 . S
C2150 C2159 1.390 . S
C2151 C2150 1.387 . S
C2151 C2153 1.387 . S
H2152 C2159 0.950 . S
C2153 C2151 1.387 . S
C2153 C2155 1.390 . S
C2153 H2157 0.950 . S
H2154 C2150 0.950 . S
C2155 C2153 1.390 . S
C2155 C2156 1.387 . S
C2155 H2158 0.950 . S
C2156 C2155 1.387 . S
C2156 C2159 1.387 . S
H2157 C2153 0.950 . S
H2158 C2155 0.950 . S
C2159 C2150 1.390 . S
C2159 H2152 0.950 . S
C2159 C2156 1.387 . S
C2160 C2161 1.387 . S
C2160 H2164 0.950 . S
C2160 C2169 1.390 . S
C2161 C2160 1.387 . S
C2161 C2163 1.387 . S
H2162 C2169 0.950 . S
C2163 C2161 1.387 . S
C2163 C2165 1.390 . S
C2163 H2167 0.950 . S
H2164 C2160 0.950 . S
C2165 C2163 1.390 . S
C2165 C2166 1.387 . S
C2165 H2168 0.950 . S
C2166 C2165 1.387 . S
C2166 C2169 1.387 . S
H2167 C2163 0.950 . S
H2168 C2165 0.950 . S
C2169 C2160 1.390 . S
C2169 H2162 0.950 . S
C2169 C2166 1.387 . S
C2170 C2171 1.387 . S
C2170 H2174 0.950 . S
C2170 C2179 1.390 . S
C2171 C2170 1.387 . S
C2171 C2173 1.387 . S
H2172 C2179 0.950 . S
C2173 C2171 1.387 . S
C2173 C2175 1.390 . S
C2173 H2177 0.950 . S
H2174 C2170 0.950 . S
C2175 C2173 1.390 . S
C2175 C2176 1.387 . S
C2175 H2178 0.950 . S
C2176 C2175 1.387 . S
C2176 C2179 1.387 . S
H2177 C2173 0.950 . S
H2178 C2175 0.950 . S
C2179 C2170 1.390 . S
C2179 H2172 0.950 . S
C2179 C2176 1.387 . S
C2180 C2181 1.387 . S
C2180 H2184 0.950 . S
C2180 C2189 1.390 . S
C2181 C2180 1.387 . S
C2181 C2183 1.387 1_455 S
H2182 C2189 0.950 . S
C2183 C2181 1.387 1_655 S
C2183 C2185 1.390 . S
C2183 H2187 0.950 1_554 S
H2184 C2180 0.950 . S
C2185 C2183 1.390 . S
C2185 C2186 1.387 1_655 S
C2185 H2188 0.950 . S
C2186 C2185 1.387 1_455 S
C2186 C2189 1.387 . S
H2187 C2183 0.950 1_556 S
H2188 C2185 0.950 . S
C2189 C2180 1.390 . S
C2189 H2182 0.950 . S
C2189 C2186 1.387 . S
C2190 C2191 1.387 1_655 S
C2190 H2194 0.950 . S
C2190 C2199 1.390 . S
C2191 C2190 1.387 1_455 S
C2191 C2193 1.401 . S
H2192 C2199 0.950 . S
C2193 C2191 1.401 . S
C2193 C2195 1.369 1_455 S
C2193 H2197 0.957 . S
H2194 C2190 0.950 . S
C2195 C2193 1.369 1_655 S
C2195 C2196 1.387 . S
C2195 H2198 0.950 . S
C2196 C2195 1.387 . S
C2196 C2199 1.387 . S
H2197 C2193 0.957 . S
H2198 C2195 0.950 . S
C2199 C2190 1.390 . S
C2199 H2192 0.950 . S
C2199 C2196 1.387 . S
C2200 C2201 1.387 . S
C2200 H2204 0.950 . S
C2200 C2209 1.390 . S
C2201 C2200 1.387 . S
C2201 C2203 1.387 . S
H2202 C2209 0.950 . S
C2203 C2201 1.387 . S
C2203 C2205 1.390 . S
C2203 H2207 0.950 . S
H2204 C2200 0.950 . S
C2205 C2203 1.390 . S
C2205 C2206 1.387 . S
C2205 H2208 0.950 . S
C2206 C2205 1.387 . S
C2206 C2209 1.387 . S
H2207 C2203 0.950 . S
H2208 C2205 0.950 . S
C2209 C2200 1.390 . S
C2209 H2202 0.950 . S
C2209 C2206 1.387 . S
C2210 C2211 1.387 . S
C2210 H2214 0.950 . S
C2210 C2219 1.390 . S
C2211 C2210 1.387 . S
C2211 C2213 1.387 . S
H2212 C2219 0.950 . S
C2213 C2211 1.387 . S
C2213 C2215 1.390 . S
C2213 H2217 0.950 . S
H2214 C2210 0.950 . S
C2215 C2213 1.390 . S
C2215 C2216 1.387 . S
C2215 H2218 0.950 . S
C2216 C2215 1.387 . S
C2216 C2219 1.387 . S
H2217 C2213 0.950 . S
H2218 C2215 0.950 . S
C2219 C2210 1.390 . S
C2219 H2212 0.950 . S
C2219 C2216 1.387 . S
C2220 C2221 1.387 . S
C2220 H2224 0.950 1_455 S
C2220 C2229 1.390 . S
C2221 C2220 1.387 . S
C2221 C2223 1.387 . S
H2222 C2229 0.944 1_655 S
C2223 C2221 1.387 . S
C2223 C2225 1.390 . S
C2223 H2227 0.950 . S
H2224 C2220 0.950 1_655 S
C2225 C2223 1.390 . S
C2225 C2226 1.387 . S
C2225 H2228 0.950 . S
C2226 C2225 1.387 . S
C2226 C2229 1.387 . S
H2227 C2223 0.950 . S
H2228 C2225 0.950 . S
C2229 C2220 1.390 . S
C2229 H2222 0.944 1_455 S
C2229 C2226 1.387 . S
C2230 C2231 1.387 . S
C2230 H2234 0.950 . S
C2230 C2239 1.390 . S
C2231 C2230 1.387 . S
C2231 C2233 1.387 . S
H2232 C2239 0.950 . S
C2233 C2231 1.387 . S
C2233 C2235 1.390 . S
C2233 H2237 0.950 . S
H2234 C2230 0.950 . S
C2235 C2233 1.390 . S
C2235 C2236 1.387 . S
C2235 H2238 0.950 . S
C2236 C2235 1.387 . S
C2236 C2239 1.387 . S
H2237 C2233 0.950 . S
H2238 C2235 0.950 . S
C2239 C2230 1.390 . S
C2239 H2232 0.950 . S
C2239 C2236 1.387 . S
C2240 C2241 1.387 . S
C2240 H2244 0.950 . S
C2240 C2249 1.390 . S
C2241 C2240 1.387 . S
C2241 C2243 1.387 . S
H2242 C2249 0.950 . S
C2243 C2241 1.387 . S
C2243 C2245 1.390 . S
C2243 H2247 0.950 . S
H2244 C2240 0.950 . S
C2245 C2243 1.390 . S
C2245 C2246 1.387 . S
C2245 H2248 0.950 . S
C2246 C2245 1.387 . S
C2246 C2249 1.387 . S
H2247 C2243 0.950 . S
H2248 C2245 0.950 . S
C2249 C2240 1.390 . S
C2249 H2242 0.950 . S
C2249 C2246 1.387 . S
C2250 C2251 1.387 . S
C2250 H2254 0.950 . S
C2250 C2259 1.390 1_554 S
C2251 C2250 1.387 . S
C2251 C2253 1.390 . S
H2252 C2259 0.950 . S
C2253 C2251 1.390 . S
C2253 C2255 1.384 1_554 S
C2253 H2257 0.954 . S
H2254 C2250 0.950 . S
C2255 C2253 1.384 1_556 S
C2255 C2256 1.387 . S
C2255 H2258 0.950 . S
C2256 C2255 1.387 . S
C2256 C2259 1.387 . S
H2257 C2253 0.954 . S
H2258 C2255 0.950 . S
C2259 C2250 1.390 1_556 S
C2259 H2252 0.950 . S
C2259 C2256 1.387 . S
C2260 C2261 1.387 . S
C2260 H2264 0.950 . S
C2260 C2269 1.390 . S
C2261 C2260 1.387 . S
C2261 C2263 1.387 . S
H2262 C2269 0.950 . S
C2263 C2261 1.387 . S
C2263 C2265 1.390 . S
C2263 H2267 0.950 . S
H2264 C2260 0.950 . S
C2265 C2263 1.390 . S
C2265 C2266 1.387 . S
C2265 H2268 0.950 . S
C2266 C2265 1.387 . S
C2266 C2269 1.387 . S
H2267 C2263 0.950 . S
H2268 C2265 0.950 . S
C2269 C2260 1.390 . S
C2269 H2262 0.950 . S
C2269 C2266 1.387 . S
C2270 C2271 1.387 . S
C2270 H2274 0.950 . S
C2270 C2279 1.390 . S
C2271 C2270 1.387 . S
C2271 C2273 1.387 . S
H2272 C2279 0.950 . S
C2273 C2271 1.387 . S
C2273 C2275 1.390 . S
C2273 H2277 0.950 . S
H2274 C2270 0.950 . S
C2275 C2273 1.390 . S
C2275 C2276 1.387 . S
C2275 H2278 0.950 . S
C2276 C2275 1.387 . S
C2276 C2279 1.387 . S
H2277 C2273 0.950 . S
H2278 C2275 0.950 . S
C2279 C2270 1.390 . S
C2279 H2272 0.950 . S
C2279 C2276 1.387 . S
C2280 C2281 1.387 . S
C2280 H2284 0.950 . S
C2280 C2289 1.390 . S
C2281 C2280 1.387 . S
C2281 C2283 1.387 . S
H2282 C2289 0.950 . S
C2283 C2281 1.387 . S
C2283 C2285 1.390 . S
C2283 H2287 0.950 . S
H2284 C2280 0.950 . S
C2285 C2283 1.390 . S
C2285 C2286 1.387 . S
C2285 H2288 0.950 . S
C2286 C2285 1.387 . S
C2286 C2289 1.387 . S
H2287 C2283 0.950 . S
H2288 C2285 0.950 . S
C2289 C2280 1.390 . S
C2289 H2282 0.950 . S
C2289 C2286 1.387 . S
C2290 C2291 1.387 . S
C2290 H2294 0.950 . S
C2290 C2299 1.390 . S
C2291 C2290 1.387 . S
C2291 C2293 1.387 . S
H2292 C2299 0.950 . S
C2293 C2291 1.387 . S
C2293 C2295 1.390 . S
C2293 H2297 0.950 . S
H2294 C2290 0.950 . S
C2295 C2293 1.390 . S
C2295 C2296 1.387 . S
C2295 H2298 0.950 . S
C2296 C2295 1.387 . S
C2296 C2299 1.387 . S
H2297 C2293 0.950 . S
H2298 C2295 0.950 . S
C2299 C2290 1.390 . S
C2299 H2292 0.950 . S
C2299 C2296 1.387 . S
C2300 C2301 1.387 . S
C2300 H2304 0.950 . S
C2300 C2309 1.390 . S
C2301 C2300 1.387 . S
C2301 C2303 1.387 . S
H2302 C2309 0.950 . S
C2303 C2301 1.387 . S
C2303 C2305 1.390 . S
C2303 H2307 0.950 . S
H2304 C2300 0.950 . S
C2305 C2303 1.390 . S
C2305 C2306 1.387 . S
C2305 H2308 0.950 . S
C2306 C2305 1.387 . S
C2306 C2309 1.387 . S
H2307 C2303 0.950 . S
H2308 C2305 0.950 . S
C2309 C2300 1.390 . S
C2309 H2302 0.950 . S
C2309 C2306 1.387 . S
C2310 C2311 1.387 . S
C2310 H2314 0.950 . S
C2310 C2319 1.390 . S
C2311 C2310 1.387 . S
C2311 C2313 1.387 . S
H2312 C2319 0.950 . S
C2313 C2311 1.387 . S
C2313 C2315 1.390 . S
C2313 H2317 0.950 . S
H2314 C2310 0.950 . S
C2315 C2313 1.390 . S
C2315 C2316 1.387 . S
C2315 H2318 0.950 . S
C2316 C2315 1.387 . S
C2316 C2319 1.387 . S
H2317 C2313 0.950 . S
H2318 C2315 0.950 . S
C2319 C2310 1.390 . S
C2319 H2312 0.950 . S
C2319 C2316 1.387 . S
C2320 C2321 1.387 . S
C2320 H2324 0.950 . S
C2320 C2329 1.390 . S
C2321 C2320 1.387 . S
C2321 C2323 1.387 . S
H2322 C2329 0.950 . S
C2323 C2321 1.387 . S
C2323 C2325 1.390 . S
C2323 H2327 0.950 . S
H2324 C2320 0.950 . S
C2325 C2323 1.390 . S
C2325 C2326 1.387 . S
C2325 H2328 0.950 . S
C2326 C2325 1.387 . S
C2326 C2329 1.387 . S
H2327 C2323 0.950 . S
H2328 C2325 0.950 . S
C2329 C2320 1.390 . S
C2329 H2322 0.950 . S
C2329 C2326 1.387 . S
C2330 C2331 1.387 . S
C2330 H2334 0.950 . S
C2330 C2339 1.390 . S
C2331 C2330 1.387 . S
C2331 C2333 1.387 . S
H2332 C2339 0.950 . S
C2333 C2331 1.387 . S
C2333 C2335 1.390 . S
C2333 H2337 0.950 . S
H2334 C2330 0.950 . S
C2335 C2333 1.390 . S
C2335 C2336 1.387 . S
C2335 H2338 0.950 . S
C2336 C2335 1.387 . S
C2336 C2339 1.387 . S
H2337 C2333 0.950 . S
H2338 C2335 0.950 . S
C2339 C2330 1.390 . S
C2339 H2332 0.950 . S
C2339 C2336 1.387 . S
C2340 C2341 1.387 . S
C2340 H2344 0.950 . S
C2340 C2349 1.390 . S
C2341 C2340 1.387 . S
C2341 C2343 1.387 . S
H2342 C2349 0.950 . S
C2343 C2341 1.387 . S
C2343 C2345 1.390 . S
C2343 H2347 0.950 1_565 S
H2344 C2340 0.950 . S
C2345 C2343 1.390 . S
C2345 C2346 1.387 . S
C2345 H2348 0.950 . S
C2346 C2345 1.387 . S
C2346 C2349 1.387 . S
H2347 C2343 0.950 1_545 S
H2348 C2345 0.950 . S
C2349 C2340 1.390 . S
C2349 H2342 0.950 . S
C2349 C2346 1.387 . S
C2350 C2351 1.387 . S
C2350 H2354 0.950 . S
C2350 C2359 1.390 1_565 S
C2351 C2350 1.387 . S
C2351 C2353 1.387 1_554 S
H2352 C2359 0.950 . S
C2353 C2351 1.387 1_556 S
C2353 C2355 1.390 1_565 S
C2353 H2357 0.950 . S
H2354 C2350 0.950 . S
C2355 C2353 1.390 1_545 S
C2355 C2356 1.387 1_556 S
C2355 H2358 0.950 . S
C2356 C2355 1.387 1_554 S
C2356 C2359 1.387 . S
H2357 C2353 0.950 . S
H2358 C2355 0.950 . S
C2359 C2350 1.390 1_545 S
C2359 H2352 0.950 . S
C2359 C2356 1.387 . S
C2360 C2361 1.387 . S
C2360 H2364 0.950 . S
C2360 C2369 1.390 . S
C2361 C2360 1.387 . S
C2361 C2363 1.387 . S
H2362 C2369 0.950 . S
C2363 C2361 1.387 . S
C2363 C2365 1.390 . S
C2363 H2367 0.950 . S
H2364 C2360 0.950 . S
C2365 C2363 1.390 . S
C2365 C2366 1.387 . S
C2365 H2368 0.950 . S
C2366 C2365 1.387 . S
C2366 C2369 1.387 . S
H2367 C2363 0.950 . S
H2368 C2365 0.950 . S
C2369 C2360 1.390 . S
C2369 H2362 0.950 . S
C2369 C2366 1.387 . S
C2370 C2371 1.387 . S
C2370 H2374 0.950 . S
C2370 C2379 1.390 . S
C2371 C2370 1.387 . S
C2371 C2373 1.387 . S
H2372 C2379 0.950 . S
C2373 C2371 1.387 . S
C2373 C2375 1.390 . S
C2373 H2377 0.950 1_554 S
H2374 C2370 0.950 . S
C2375 C2373 1.390 . S
C2375 C2376 1.387 . S
C2375 H2378 0.934 1_554 S
C2376 C2375 1.387 . S
C2376 C2379 1.387 . S
H2377 C2373 0.950 1_556 S
H2378 C2375 0.934 1_556 S
C2379 C2370 1.390 . S
C2379 H2372 0.950 . S
C2379 C2376 1.387 . S
C2380 C2381 1.387 . S
C2380 H2384 0.950 . S
C2380 C2389 1.390 . S
C2381 C2380 1.387 . S
C2381 C2383 1.387 . S
H2382 C2389 0.950 . S
C2383 C2381 1.387 . S
C2383 C2385 1.390 . S
C2383 H2387 0.950 . S
H2384 C2380 0.950 . S
C2385 C2383 1.390 . S
C2385 C2386 1.387 . S
C2385 H2388 0.950 . S
C2386 C2385 1.387 . S
C2386 C2389 1.387 . S
H2387 C2383 0.950 . S
H2388 C2385 0.950 . S
C2389 C2380 1.390 . S
C2389 H2382 0.950 . S
C2389 C2386 1.387 . S
C2390 C2391 1.387 . S
C2390 H2394 0.950 . S
C2390 C2399 1.390 . S
C2391 C2390 1.387 . S
C2391 C2393 1.387 . S
H2392 C2399 0.950 . S
C2393 C2391 1.387 . S
C2393 C2395 1.390 . S
C2393 H2397 0.950 . S
H2394 C2390 0.950 . S
C2395 C2393 1.390 . S
C2395 C2396 1.387 . S
C2395 H2398 0.950 . S
C2396 C2395 1.387 . S
C2396 C2399 1.387 . S
H2397 C2393 0.950 . S
H2398 C2395 0.950 . S
C2399 C2390 1.390 . S
C2399 H2392 0.950 . S
C2399 C2396 1.387 . S
C2400 C2401 1.387 . S
C2400 H2404 0.950 . S
C2400 C2409 1.390 . S
C2401 C2400 1.387 . S
C2401 C2403 1.387 . S
H2402 C2409 0.950 . S
C2403 C2401 1.387 . S
C2403 C2405 1.390 . S
C2403 H2407 0.950 . S
H2404 C2400 0.950 . S
C2405 C2403 1.390 . S
C2405 C2406 1.387 . S
C2405 H2408 0.950 . S
C2406 C2405 1.387 . S
C2406 C2409 1.387 . S
H2407 C2403 0.950 . S
H2408 C2405 0.950 . S
C2409 C2400 1.390 . S
C2409 H2402 0.950 . S
C2409 C2406 1.387 . S
C2410 C2411 1.387 . S
C2410 H2414 0.950 . S
C2410 C2419 1.390 . S
C2411 C2410 1.387 . S
C2411 C2413 1.387 . S
H2412 C2419 0.950 . S
C2413 C2411 1.387 . S
C2413 C2415 1.390 . S
C2413 H2417 0.950 . S
H2414 C2410 0.950 . S
C2415 C2413 1.390 . S
C2415 C2416 1.387 . S
C2415 H2418 0.950 . S
C2416 C2415 1.387 . S
C2416 C2419 1.387 . S
H2417 C2413 0.950 . S
H2418 C2415 0.950 . S
C2419 C2410 1.390 . S
C2419 H2412 0.950 . S
C2419 C2416 1.387 . S
C2420 C2421 1.387 . S
C2420 H2424 0.950 . S
C2420 C2429 1.390 . S
C2421 C2420 1.387 . S
C2421 C2423 1.387 . S
H2422 C2429 0.950 . S
C2423 C2421 1.387 . S
C2423 C2425 1.390 . S
C2423 H2427 0.950 . S
H2424 C2420 0.950 . S
C2425 C2423 1.390 . S
C2425 C2426 1.387 . S
C2425 H2428 0.950 . S
C2426 C2425 1.387 . S
C2426 C2429 1.387 . S
H2427 C2423 0.950 . S
H2428 C2425 0.950 . S
C2429 C2420 1.390 . S
C2429 H2422 0.950 . S
C2429 C2426 1.387 . S
C2430 C2431 1.387 . S
C2430 H2434 0.950 . S
C2430 C2439 1.390 . S
C2431 C2430 1.387 . S
C2431 C2433 1.387 . S
H2432 C2439 0.950 . S
C2433 C2431 1.387 . S
C2433 C2435 1.390 . S
C2433 H2437 0.950 . S
H2434 C2430 0.950 . S
C2435 C2433 1.390 . S
C2435 C2436 1.387 . S
C2435 H2438 0.950 . S
C2436 C2435 1.387 . S
C2436 C2439 1.387 . S
H2437 C2433 0.950 . S
H2438 C2435 0.950 . S
C2439 C2430 1.390 . S
C2439 H2432 0.950 . S
C2439 C2436 1.387 . S
C2440 C2441 1.387 . S
C2440 H2444 0.950 . S
C2440 C2449 1.390 . S
C2441 C2440 1.387 . S
C2441 C2443 1.387 . S
H2442 C2449 0.950 . S
C2443 C2441 1.387 . S
C2443 C2445 1.390 . S
C2443 H2447 0.950 . S
H2444 C2440 0.950 . S
C2445 C2443 1.390 . S
C2445 C2446 1.387 . S
C2445 H2448 0.950 . S
C2446 C2445 1.387 . S
C2446 C2449 1.387 . S
H2447 C2443 0.950 . S
H2448 C2445 0.950 . S
C2449 C2440 1.390 . S
C2449 H2442 0.950 . S
C2449 C2446 1.387 . S
C2450 C2451 1.387 . S
C2450 H2454 0.950 . S
C2450 C2459 1.390 . S
C2451 C2450 1.387 . S
C2451 C2453 1.387 . S
H2452 C2459 0.950 . S
C2453 C2451 1.387 . S
C2453 C2455 1.390 . S
C2453 H2457 0.950 . S
H2454 C2450 0.950 . S
C2455 C2453 1.390 . S
C2455 C2456 1.387 . S
C2455 H2458 0.950 . S
C2456 C2455 1.387 . S
C2456 C2459 1.387 . S
H2457 C2453 0.950 . S
H2458 C2455 0.950 . S
C2459 C2450 1.390 . S
C2459 H2452 0.950 . S
C2459 C2456 1.387 . S
C2460 C2461 1.387 . S
C2460 H2464 0.950 . S
C2460 C2469 1.390 . S
C2461 C2460 1.387 . S
C2461 C2463 1.387 . S
H2462 C2469 0.950 . S
C2463 C2461 1.387 . S
C2463 C2465 1.390 . S
C2463 H2467 0.950 . S
H2464 C2460 0.950 . S
C2465 C2463 1.390 . S
C2465 C2466 1.387 . S
C2465 H2468 0.950 . S
C2466 C2465 1.387 . S
C2466 C2469 1.387 . S
H2467 C2463 0.950 . S
H2468 C2465 0.950 . S
C2469 C2460 1.390 . S
C2469 H2462 0.950 . S
C2469 C2466 1.387 . S
C2470 C2471 1.387 . S
C2470 H2474 0.950 . S
C2470 C2479 1.390 . S
C2471 C2470 1.387 . S
C2471 C2473 1.387 . S
H2472 C2479 0.950 . S
C2473 C2471 1.387 . S
C2473 C2475 1.390 . S
C2473 H2477 0.950 . S
H2474 C2470 0.950 . S
C2475 C2473 1.390 . S
C2475 C2476 1.387 . S
C2475 H2478 0.950 . S
C2476 C2475 1.387 . S
C2476 C2479 1.387 . S
H2477 C2473 0.950 . S
H2478 C2475 0.950 . S
C2479 C2470 1.390 . S
C2479 H2472 0.950 . S
C2479 C2476 1.387 . S
C2480 C2481 1.387 . S
C2480 H2484 0.950 . S
C2480 C2489 1.390 . S
C2481 C2480 1.387 . S
C2481 C2483 1.387 . S
H2482 C2489 0.950 . S
C2483 C2481 1.387 . S
C2483 C2485 1.390 . S
C2483 H2487 0.950 . S
H2484 C2480 0.950 . S
C2485 C2483 1.390 . S
C2485 C2486 1.387 . S
C2485 H2488 0.950 . S
C2486 C2485 1.387 . S
C2486 C2489 1.387 . S
H2487 C2483 0.950 . S
H2488 C2485 0.950 . S
C2489 C2480 1.390 . S
C2489 H2482 0.950 . S
C2489 C2486 1.387 . S
C2490 C2491 1.387 . S
C2490 H2494 0.950 . S
C2490 C2499 1.390 . S
C2491 C2490 1.387 . S
C2491 C2493 1.387 . S
H2492 C2499 0.950 . S
C2493 C2491 1.387 . S
C2493 C2495 1.390 . S
C2493 H2497 0.950 . S
H2494 C2490 0.950 . S
C2495 C2493 1.390 . S
C2495 C2496 1.387 . S
C2495 H2498 0.950 . S
C2496 C2495 1.387 . S
C2496 C2499 1.387 . S
H2497 C2493 0.950 . S
H2498 C2495 0.950 . S
C2499 C2490 1.390 . S
C2499 H2492 0.950 . S
C2499 C2496 1.387 . S
C2500 C2501 1.387 . S
C2500 H2504 0.950 . S
C2500 C2509 1.390 . S
C2501 C2500 1.387 . S
C2501 C2503 1.387 . S
H2502 C2509 0.950 . S
C2503 C2501 1.387 . S
C2503 C2505 1.390 . S
C2503 H2507 0.950 . S
H2504 C2500 0.950 . S
C2505 C2503 1.390 . S
C2505 C2506 1.387 . S
C2505 H2508 0.950 . S
C2506 C2505 1.387 . S
C2506 C2509 1.387 . S
H2507 C2503 0.950 . S
H2508 C2505 0.950 . S
C2509 C2500 1.390 . S
C2509 H2502 0.950 . S
C2509 C2506 1.387 . S
C2510 C2511 1.387 . S
C2510 H2514 0.950 . S
C2510 C2519 1.390 . S
C2511 C2510 1.387 . S
C2511 C2513 1.387 . S
H2512 C2519 0.950 . S
C2513 C2511 1.387 . S
C2513 C2515 1.390 . S
C2513 H2517 0.950 . S
H2514 C2510 0.950 . S
C2515 C2513 1.390 . S
C2515 C2516 1.387 . S
C2515 H2518 0.950 . S
C2516 C2515 1.387 . S
C2516 C2519 1.387 . S
H2517 C2513 0.950 . S
H2518 C2515 0.950 . S
C2519 C2510 1.390 . S
C2519 H2512 0.950 . S
C2519 C2516 1.387 . S
C2520 C2521 1.387 . S
C2520 H2524 0.950 . S
C2520 C2529 1.390 . S
C2521 C2520 1.387 . S
C2521 C2523 1.387 . S
H2522 C2529 0.950 . S
C2523 C2521 1.387 . S
C2523 C2525 1.390 . S
C2523 H2527 0.950 . S
H2524 C2520 0.950 . S
C2525 C2523 1.390 . S
C2525 C2526 1.387 . S
C2525 H2528 0.950 . S
C2526 C2525 1.387 . S
C2526 C2529 1.387 . S
H2527 C2523 0.950 . S
H2528 C2525 0.950 . S
C2529 C2520 1.390 . S
C2529 H2522 0.950 . S
C2529 C2526 1.387 . S
C2530 C2531 1.387 . S
C2530 H2534 0.950 . S
C2530 C2539 1.390 . S
C2531 C2530 1.387 . S
C2531 C2533 1.387 . S
H2532 C2539 0.950 . S
C2533 C2531 1.387 . S
C2533 C2535 1.390 . S
C2533 H2537 0.950 . S
H2534 C2530 0.950 . S
C2535 C2533 1.390 . S
C2535 C2536 1.387 . S
C2535 H2538 0.950 . S
C2536 C2535 1.387 . S
C2536 C2539 1.387 . S
H2537 C2533 0.950 . S
H2538 C2535 0.950 . S
C2539 C2530 1.390 . S
C2539 H2532 0.950 . S
C2539 C2536 1.387 . S
C2540 C2541 1.387 . S
C2540 H2544 0.950 . S
C2540 C2549 1.390 . S
C2541 C2540 1.387 . S
C2541 C2543 1.387 . S
H2542 C2549 0.950 . S
C2543 C2541 1.387 . S
C2543 C2545 1.390 . S
C2543 H2547 0.950 . S
H2544 C2540 0.950 . S
C2545 C2543 1.390 . S
C2545 C2546 1.387 . S
C2545 H2548 0.950 . S
C2546 C2545 1.387 . S
C2546 C2549 1.387 . S
H2547 C2543 0.950 . S
H2548 C2545 0.950 . S
C2549 C2540 1.390 . S
C2549 H2542 0.950 . S
C2549 C2546 1.387 . S
C2550 C2551 1.387 . S
C2550 H2554 0.950 . S
C2550 C2559 1.390 . S
C2551 C2550 1.387 . S
C2551 C2553 1.387 . S
H2552 C2559 0.950 . S
C2553 C2551 1.387 . S
C2553 C2555 1.390 . S
C2553 H2557 0.950 . S
H2554 C2550 0.950 . S
C2555 C2553 1.390 . S
C2555 C2556 1.387 . S
C2555 H2558 0.950 . S
C2556 C2555 1.387 . S
C2556 C2559 1.387 . S
H2557 C2553 0.950 . S
H2558 C2555 0.950 . S
C2559 C2550 1.390 . S
C2559 H2552 0.950 . S
C2559 C2556 1.387 . S
C2560 C2561 1.387 . S
C2560 H2564 0.950 . S
C2560 C2569 1.390 . S
C2561 C2560 1.387 . S
C2561 C2563 1.387 . S
H2562 C2569 0.950 . S
C2563 C2561 1.387 . S
C2563 C2565 1.390 . S
C2563 H2567 0.950 . S
H2564 C2560 0.950 . S
C2565 C2563 1.390 . S
C2565 C2566 1.387 . S
C2565 H2568 0.950 . S
C2566 C2565 1.387 . S
C2566 C2569 1.387 . S
H2567 C2563 0.950 . S
H2568 C2565 0.950 . S
C2569 C2560 1.390 . S
C2569 H2562 0.950 . S
C2569 C2566 1.387 . S
C2570 C2571 1.387 . S
C2570 H2574 0.950 . S
C2570 C2579 1.390 . S
C2571 C2570 1.387 . S
C2571 C2573 1.387 . S
H2572 C2579 0.950 1_545 S
C2573 C2571 1.387 . S
C2573 C2575 1.390 . S
C2573 H2577 0.950 . S
H2574 C2570 0.950 . S
C2575 C2573 1.390 . S
C2575 C2576 1.387 . S
C2575 H2578 0.950 . S
C2576 C2575 1.387 . S
C2576 C2579 1.387 . S
H2577 C2573 0.950 . S
H2578 C2575 0.950 . S
C2579 C2570 1.390 . S
C2579 H2572 0.950 1_565 S
C2579 C2576 1.387 . S
C2580 C2581 1.387 . S
C2580 H2584 0.950 . S
C2580 C2589 1.390 . S
C2581 C2580 1.387 . S
C2581 C2583 1.387 . S
H2582 C2589 0.950 . S
C2583 C2581 1.387 . S
C2583 C2585 1.390 . S
C2583 H2587 0.950 . S
H2584 C2580 0.950 . S
C2585 C2583 1.390 . S
C2585 C2586 1.387 . S
C2585 H2588 0.950 . S
C2586 C2585 1.387 . S
C2586 C2589 1.387 . S
H2587 C2583 0.950 . S
H2588 C2585 0.950 . S
C2589 C2580 1.390 . S
C2589 H2582 0.950 . S
C2589 C2586 1.387 . S
C2590 C2591 1.387 . S
C2590 H2594 0.950 . S
C2590 C2599 1.390 . S
C2591 C2590 1.387 . S
C2591 C2593 1.387 . S
H2592 C2599 0.950 . S
C2593 C2591 1.387 . S
C2593 C2595 1.390 . S
C2593 H2597 0.950 . S
H2594 C2590 0.950 . S
C2595 C2593 1.390 . S
C2595 C2596 1.387 . S
C2595 H2598 0.950 . S
C2596 C2595 1.387 . S
C2596 C2599 1.387 . S
H2597 C2593 0.950 . S
H2598 C2595 0.950 . S
C2599 C2590 1.390 . S
C2599 H2592 0.950 . S
C2599 C2596 1.387 . S
C2600 C2601 1.387 . S
C2600 H2604 0.950 . S
C2600 C2609 1.390 . S
C2601 C2600 1.387 . S
C2601 C2603 1.387 . S
H2602 C2609 0.950 . S
C2603 C2601 1.387 . S
C2603 C2605 1.390 . S
C2603 H2607 0.950 . S
H2604 C2600 0.950 . S
C2605 C2603 1.390 . S
C2605 C2606 1.387 . S
C2605 H2608 0.950 . S
C2606 C2605 1.387 . S
C2606 C2609 1.387 . S
H2607 C2603 0.950 . S
H2608 C2605 0.950 . S
C2609 C2600 1.390 . S
C2609 H2602 0.950 . S
C2609 C2606 1.387 . S
C2610 C2611 1.387 . S
C2610 H2614 0.950 . S
C2610 C2619 1.390 . S
C2611 C2610 1.387 . S
C2611 C2613 1.387 . S
H2612 C2619 0.950 1_556 S
C2613 C2611 1.387 . S
C2613 C2615 1.390 . S
C2613 H2617 0.950 . S
H2614 C2610 0.950 . S
C2615 C2613 1.390 . S
C2615 C2616 1.387 . S
C2615 H2618 0.950 . S
C2616 C2615 1.387 . S
C2616 C2619 1.387 . S
H2617 C2613 0.950 . S
H2618 C2615 0.950 . S
C2619 C2610 1.390 . S
C2619 H2612 0.950 1_554 S
C2619 C2616 1.387 . S
C2620 C2621 1.387 . S
C2620 H2624 0.950 . S
C2620 C2629 1.390 . S
C2621 C2620 1.387 . S
C2621 C2623 1.387 . S
H2622 C2629 0.950 . S
C2623 C2621 1.387 . S
C2623 C2625 1.390 . S
C2623 H2627 0.950 . S
H2624 C2620 0.950 . S
C2625 C2623 1.390 . S
C2625 C2626 1.387 . S
C2625 H2628 0.950 . S
C2626 C2625 1.387 . S
C2626 C2629 1.387 . S
H2627 C2623 0.950 . S
H2628 C2625 0.950 . S
C2629 C2620 1.390 . S
C2629 H2622 0.950 . S
C2629 C2626 1.387 . S
C2630 C2631 1.387 . S
C2630 H2634 0.950 . S
C2630 C2639 1.390 . S
C2631 C2630 1.387 . S
C2631 C2633 1.387 . S
H2632 C2639 0.950 . S
C2633 C2631 1.387 . S
C2633 C2635 1.390 . S
C2633 H2637 0.950 . S
H2634 C2630 0.950 . S
C2635 C2633 1.390 . S
C2635 C2636 1.387 . S
C2635 H2638 0.950 . S
C2636 C2635 1.387 . S
C2636 C2639 1.387 . S
H2637 C2633 0.950 . S
H2638 C2635 0.950 . S
C2639 C2630 1.390 . S
C2639 H2632 0.950 . S
C2639 C2636 1.387 . S
C1681 C111 2.311 1_455 S
C1686 C392 2.298 . S
C1691 C64 1.926 . S
C1696 C494 2.023 . S
C1701 C77 1.912 . S
C1706 C560 1.923 . S
C1716 C646 1.195 . S
C1711 C95 1.277 . S
C1721 C25 1.283 . S
C1726 C730 1.198 . S
C1736 C812 1.991 . S
C1731 C36 1.846 . S
C1746 C914 2.005 . S
C1741 C50 1.910 . S
C1751 C11 2.208 . S
C1756 C980 2.232 . S
C1766 C410 1.780 . S
C1761 C237 1.814 . S
C1771 C245 0.949 . S
C1776 C478 0.912 . S
C1786 C578 1.145 . S
C1781 C279 1.054 . S
C1796 C644 1.610 . S
C1791 C175 1.614 . S
C1801 C231 1.585 . S
C1806 C728 1.582 . S
C1816 C830 1.146 . S
C1811 C251 1.055 . S
C1826 C898 0.940 . S
C1821 C273 0.975 . S
C1836 C998 1.786 . S
C1831 C181 1.821 . S
C1846 C394 1.165 . S
C1841 C165 1.159 1_554 S
C1851 C288 1.632 . S
C1856 C1082 1.705 . S
C1866 C1150 1.348 . S
C1861 C333 1.401 . S
C1876 C1232 0.830 . S
C1871 C316 0.816 . S
C1881 C123 1.144 . S
C1886 C982 1.154 . S
C1891 C137 1.381 . S
C1896 C562 1.331 . S
C1901 C330 1.629 . S
C1906 C1334 1.703 . S
C1916 C1400 0.841 . S
C1911 C302 0.820 . S
C1926 C403 2.404 . S
C1921 C63 2.385 . S
C1936 C1407 2.034 . S
C1931 C106 2.034 . S
C1941 C97 1.938 . S
C1946 C571 1.987 . S
C1951 C81 1.309 . S
C1956 C1329 1.227 . S
C1966 C741 1.270 . S
C1961 C13 1.280 . S
C1971 C55 1.933 . S
C1976 C1159 1.987 . S
C1986 C903 1.943 1_556 S
C1981 C35 1.898 . S
C1996 C1495 2.397 . S
C1991 C21 2.378 . S
C2006 C399 1.889 . S
C2001 C147 1.956 . S
C2016 C1413 0.912 . S
C2011 C321 0.933 . S
C2021 C119 1.171 . S
C2026 C567 1.172 . S
C2031 C293 1.635 . S
C2036 C1327 1.694 . S
C2041 C153 1.633 . S
C2046 C739 1.697 . S
C2056 C1155 1.189 . S
C2051 C315 1.181 . S
C2061 C125 0.941 1_545 S
C2066 C909 0.912 . S
C2071 C287 1.947 . S
C2076 C1491 1.875 . S
C2081 C193 1.132 . S
C2086 C405 1.200 . S
C2091 C176 1.702 . S
C2096 C1071 1.705 . S
C2101 C263 1.346 . S
C2106 C825 1.343 . S
C2111 C246 0.944 . S
C2116 C1243 0.989 . S
C2126 C1497 1.163 . S
C2121 C277 1.117 . S
C2131 C221 1.343 . S
C2136 C573 1.321 . S
C2146 C651 1.720 . S
C2141 C260 1.716 . S
C2156 C487 0.973 . S
C2151 C204 0.931 . S
C2161 C83 2.311 . S
C2166 C1568 2.299 . S
C2176 C1418 2.023 . S
C2171 C92 1.925 . S
C2181 C105 1.912 . S
C2186 C1652 1.922 . S
C2191 C67 1.277 . S
C2196 C1318 1.195 . S
C2201 C53 1.283 . S
C2206 C1066 1.198 . S
C2216 C1148 1.991 . S
C2211 C8 1.846 1_655 S
C2226 C1250 2.005 . S
C2221 C22 1.909 . S
C2236 C1484 2.233 . S
C2231 C39 2.208 . S
C2246 C1586 1.779 . S
C2241 C265 1.816 . S
C2251 C189 0.949 . S
C2256 C1402 0.911 . S
C2266 C1670 1.145 . S
C2261 C209 1.054 . S
C2276 C1316 1.611 . S
C2271 C217 1.614 . S
C2286 C1064 1.581 . S
C2281 C259 1.585 . S
C2291 C195 1.059 . S
C2296 C1166 1.148 . S
C2306 C1234 0.940 . S
C2301 C203 0.978 . S
C2311 C223 1.821 . S
C2316 C1502 1.785 . S
C2326 C1570 1.166 . S
C2321 C319 1.158 . S
C2331 C134 1.631 . S
C2336 C746 1.704 . S
C2346 C814 1.346 . S
C2341 C151 1.401 1_565 S
C2356 C896 0.830 . S
C2351 C162 0.816 . S
C2366 C1486 1.155 . S
C2361 C305 1.144 . S
C2371 C291 1.382 . S
C2376 C1654 1.332 . S
C2386 C662 1.703 . S
C2381 C148 1.630 . S
C2396 C476 0.841 . S
C2391 C120 0.820 . S
C2401 C91 2.384 . S
C2406 C1579 2.403 . S
C2416 C483 2.034 . S
C2411 C78 2.034 . S
C2421 C69 1.936 . S
C2426 C1663 1.986 . S
C2431 C109 1.309 . S
C2436 C657 1.228 . S
C2441 C41 1.284 . S
C2446 C1077 1.270 . S
C2456 C823 1.986 . S
C2451 C27 1.934 . S
C2461 C7 1.896 . S
C2466 C1239 1.944 . S
C2471 C49 2.380 . S
C2476 C991 2.398 . S
C2486 C1575 1.889 . S
C2481 C329 1.957 . S
C2491 C167 0.936 . S
C2496 C489 0.910 . S
C2506 C1659 1.172 1_655 S
C2501 C301 1.168 . S
C2511 C139 1.635 . S
C2516 C655 1.694 . S
C2521 C335 1.632 . S
C2526 C1075 1.697 . S
C2536 C819 1.189 . S
C2531 C161 1.181 . S
C2541 C307 0.944 . S
C2546 C1245 0.913 . S
C2556 C987 1.875 . S
C2551 C133 1.947 . S
C2566 C1581 1.200 . S
C2561 C249 1.131 . S
C2576 C735 1.705 1_565 S
C2571 C218 1.701 . S
C2581 C235 1.344 . S
C2586 C1161 1.345 . S
C2596 C907 0.990 . S
C2591 C190 0.949 . S
C2601 C207 1.118 . S
C2606 C993 1.162 . S
C2611 C179 1.342 . S
C2616 C1665 1.321 . S
C2626 C1323 1.720 . S
C2621 C232 1.718 . S
C2636 C1411 0.972 . S
C2631 C274 0.931 . S
