# Generated by pormake.
# Topology gar, (4,6)-cn, num edge types: 1
# Building blocks:
#     Node 0, Type 0, BuildingBlock: NAHDIM_clean_sbu_0, # of connection points: 4
#     Node 1, Type 0, BuildingBlock: NAHDIM_clean_sbu_0, # of connection points: 4
#     Node 2, Type 0, BuildingBlock: NAHDIM_clean_sbu_0, # of connection points: 4
#     Node 3, Type 0, BuildingBlock: NAHDIM_clean_sbu_0, # of connection points: 4
#     Node 4, Type 0, BuildingBlock: NAHDIM_clean_sbu_0, # of connection points: 4
#     Node 5, Type 0, BuildingBlock: NAHDIM_clean_sbu_0, # of connection points: 4
#     Node 6, Type 0, BuildingBlock: NAHDIM_clean_sbu_0, # of connection points: 4
#     Node 7, Type 0, BuildingBlock: NAHDIM_clean_sbu_0, # of connection points: 4
#     Node 8, Type 0, BuildingBlock: NAHDIM_clean_sbu_0, # of connection points: 4
#     Node 9, Type 0, BuildingBlock: NAHDIM_clean_sbu_0, # of connection points: 4
#     Node 10, Type 0, BuildingBlock: NAHDIM_clean_sbu_0, # of connection points: 4
#     Node 11, Type 0, BuildingBlock: NAHDIM_clean_sbu_0, # of connection points: 4
#     Node 12, Type 0, BuildingBlock: NAHDIM_clean_sbu_0, # of connection points: 4
#     Node 13, Type 0, BuildingBlock: NAHDIM_clean_sbu_0, # of connection points: 4
#     Node 14, Type 0, BuildingBlock: NAHDIM_clean_sbu_0, # of connection points: 4
#     Node 15, Type 0, BuildingBlock: NAHDIM_clean_sbu_0, # of connection points: 4
#     Node 16, Type 0, BuildingBlock: NAHDIM_clean_sbu_0, # of connection points: 4
#     Node 17, Type 0, BuildingBlock: NAHDIM_clean_sbu_0, # of connection points: 4
#     Node 18, Type 0, BuildingBlock: NAHDIM_clean_sbu_0, # of connection points: 4
#     Node 19, Type 0, BuildingBlock: NAHDIM_clean_sbu_0, # of connection points: 4
#     Node 20, Type 0, BuildingBlock: NAHDIM_clean_sbu_0, # of connection points: 4
#     Node 21, Type 0, BuildingBlock: NAHDIM_clean_sbu_0, # of connection points: 4
#     Node 22, Type 0, BuildingBlock: NAHDIM_clean_sbu_0, # of connection points: 4
#     Node 23, Type 0, BuildingBlock: NAHDIM_clean_sbu_0, # of connection points: 4
#     Node 24, Type 1, BuildingBlock: BETDEL_clean_sbu_0, # of connection points: 6
#     Node 25, Type 1, BuildingBlock: BETDEL_clean_sbu_0, # of connection points: 6
#     Node 26, Type 1, BuildingBlock: BETDEL_clean_sbu_0, # of connection points: 6
#     Node 27, Type 1, BuildingBlock: BETDEL_clean_sbu_0, # of connection points: 6
#     Node 28, Type 1, BuildingBlock: BETDEL_clean_sbu_0, # of connection points: 6
#     Node 29, Type 1, BuildingBlock: BETDEL_clean_sbu_0, # of connection points: 6
#     Node 30, Type 1, BuildingBlock: BETDEL_clean_sbu_0, # of connection points: 6
#     Node 31, Type 1, BuildingBlock: BETDEL_clean_sbu_0, # of connection points: 6
#     Node 32, Type 1, BuildingBlock: BETDEL_clean_sbu_0, # of connection points: 6
#     Node 33, Type 1, BuildingBlock: BETDEL_clean_sbu_0, # of connection points: 6
#     Node 34, Type 1, BuildingBlock: BETDEL_clean_sbu_0, # of connection points: 6
#     Node 35, Type 1, BuildingBlock: BETDEL_clean_sbu_0, # of connection points: 6
#     Node 36, Type 1, BuildingBlock: BETDEL_clean_sbu_0, # of connection points: 6
#     Node 37, Type 1, BuildingBlock: BETDEL_clean_sbu_0, # of connection points: 6
#     Node 38, Type 1, BuildingBlock: BETDEL_clean_sbu_0, # of connection points: 6
#     Node 39, Type 1, BuildingBlock: BETDEL_clean_sbu_0, # of connection points: 6
#     Edge 40, Type (0, 1), BuildingBlock: UVAHIK_clean_linker_0, # of connection points: 2
#     Edge 41, Type (0, 1), BuildingBlock: UVAHIK_clean_linker_0, # of connection points: 2
#     Edge 42, Type (0, 1), BuildingBlock: UVAHIK_clean_linker_0, # of connection points: 2
#     Edge 43, Type (0, 1), BuildingBlock: UVAHIK_clean_linker_0, # of connection points: 2
#     Edge 44, Type (0, 1), BuildingBlock: UVAHIK_clean_linker_0, # of connection points: 2
#     Edge 45, Type (0, 1), BuildingBlock: UVAHIK_clean_linker_0, # of connection points: 2
#     Edge 46, Type (0, 1), BuildingBlock: UVAHIK_clean_linker_0, # of connection points: 2
#     Edge 47, Type (0, 1), BuildingBlock: UVAHIK_clean_linker_0, # of connection points: 2
#     Edge 48, Type (0, 1), BuildingBlock: UVAHIK_clean_linker_0, # of connection points: 2
#     Edge 49, Type (0, 1), BuildingBlock: UVAHIK_clean_linker_0, # of connection points: 2
#     Edge 50, Type (0, 1), BuildingBlock: UVAHIK_clean_linker_0, # of connection points: 2
#     Edge 51, Type (0, 1), BuildingBlock: UVAHIK_clean_linker_0, # of connection points: 2
#     Edge 52, Type (0, 1), BuildingBlock: UVAHIK_clean_linker_0, # of connection points: 2
#     Edge 53, Type (0, 1), BuildingBlock: UVAHIK_clean_linker_0, # of connection points: 2
#     Edge 54, Type (0, 1), BuildingBlock: UVAHIK_clean_linker_0, # of connection points: 2
#     Edge 55, Type (0, 1), BuildingBlock: UVAHIK_clean_linker_0, # of connection points: 2
#     Edge 56, Type (0, 1), BuildingBlock: UVAHIK_clean_linker_0, # of connection points: 2
#     Edge 57, Type (0, 1), BuildingBlock: UVAHIK_clean_linker_0, # of connection points: 2
#     Edge 58, Type (0, 1), BuildingBlock: UVAHIK_clean_linker_0, # of connection points: 2
#     Edge 59, Type (0, 1), BuildingBlock: UVAHIK_clean_linker_0, # of connection points: 2
#     Edge 60, Type (0, 1), BuildingBlock: UVAHIK_clean_linker_0, # of connection points: 2
#     Edge 61, Type (0, 1), BuildingBlock: UVAHIK_clean_linker_0, # of connection points: 2
#     Edge 62, Type (0, 1), BuildingBlock: UVAHIK_clean_linker_0, # of connection points: 2
#     Edge 63, Type (0, 1), BuildingBlock: UVAHIK_clean_linker_0, # of connection points: 2
#     Edge 64, Type (0, 1), BuildingBlock: UVAHIK_clean_linker_0, # of connection points: 2
#     Edge 65, Type (0, 1), BuildingBlock: UVAHIK_clean_linker_0, # of connection points: 2
#     Edge 66, Type (0, 1), BuildingBlock: UVAHIK_clean_linker_0, # of connection points: 2
#     Edge 67, Type (0, 1), BuildingBlock: UVAHIK_clean_linker_0, # of connection points: 2
#     Edge 68, Type (0, 1), BuildingBlock: UVAHIK_clean_linker_0, # of connection points: 2
#     Edge 69, Type (0, 1), BuildingBlock: UVAHIK_clean_linker_0, # of connection points: 2
#     Edge 70, Type (0, 1), BuildingBlock: UVAHIK_clean_linker_0, # of connection points: 2
#     Edge 71, Type (0, 1), BuildingBlock: UVAHIK_clean_linker_0, # of connection points: 2
#     Edge 72, Type (0, 1), BuildingBlock: UVAHIK_clean_linker_0, # of connection points: 2
#     Edge 73, Type (0, 1), BuildingBlock: UVAHIK_clean_linker_0, # of connection points: 2
#     Edge 74, Type (0, 1), BuildingBlock: UVAHIK_clean_linker_0, # of connection points: 2
#     Edge 75, Type (0, 1), BuildingBlock: UVAHIK_clean_linker_0, # of connection points: 2
#     Edge 76, Type (0, 1), BuildingBlock: UVAHIK_clean_linker_0, # of connection points: 2
#     Edge 77, Type (0, 1), BuildingBlock: UVAHIK_clean_linker_0, # of connection points: 2
#     Edge 78, Type (0, 1), BuildingBlock: UVAHIK_clean_linker_0, # of connection points: 2
#     Edge 79, Type (0, 1), BuildingBlock: UVAHIK_clean_linker_0, # of connection points: 2
#     Edge 80, Type (0, 1), BuildingBlock: UVAHIK_clean_linker_0, # of connection points: 2
#     Edge 81, Type (0, 1), BuildingBlock: UVAHIK_clean_linker_0, # of connection points: 2
#     Edge 82, Type (0, 1), BuildingBlock: UVAHIK_clean_linker_0, # of connection points: 2
#     Edge 83, Type (0, 1), BuildingBlock: UVAHIK_clean_linker_0, # of connection points: 2
#     Edge 84, Type (0, 1), BuildingBlock: UVAHIK_clean_linker_0, # of connection points: 2
#     Edge 85, Type (0, 1), BuildingBlock: UVAHIK_clean_linker_0, # of connection points: 2
#     Edge 86, Type (0, 1), BuildingBlock: UVAHIK_clean_linker_0, # of connection points: 2
#     Edge 87, Type (0, 1), BuildingBlock: UVAHIK_clean_linker_0, # of connection points: 2
#     Edge 88, Type (0, 1), BuildingBlock: UVAHIK_clean_linker_0, # of connection points: 2
#     Edge 89, Type (0, 1), BuildingBlock: UVAHIK_clean_linker_0, # of connection points: 2
#     Edge 90, Type (0, 1), BuildingBlock: UVAHIK_clean_linker_0, # of connection points: 2
#     Edge 91, Type (0, 1), BuildingBlock: UVAHIK_clean_linker_0, # of connection points: 2
#     Edge 92, Type (0, 1), BuildingBlock: UVAHIK_clean_linker_0, # of connection points: 2
#     Edge 93, Type (0, 1), BuildingBlock: UVAHIK_clean_linker_0, # of connection points: 2
#     Edge 94, Type (0, 1), BuildingBlock: UVAHIK_clean_linker_0, # of connection points: 2
#     Edge 95, Type (0, 1), BuildingBlock: UVAHIK_clean_linker_0, # of connection points: 2
#     Edge 96, Type (0, 1), BuildingBlock: UVAHIK_clean_linker_0, # of connection points: 2
#     Edge 97, Type (0, 1), BuildingBlock: UVAHIK_clean_linker_0, # of connection points: 2
#     Edge 98, Type (0, 1), BuildingBlock: UVAHIK_clean_linker_0, # of connection points: 2
#     Edge 99, Type (0, 1), BuildingBlock: UVAHIK_clean_linker_0, # of connection points: 2
#     Edge 100, Type (0, 1), BuildingBlock: UVAHIK_clean_linker_0, # of connection points: 2
#     Edge 101, Type (0, 1), BuildingBlock: UVAHIK_clean_linker_0, # of connection points: 2
#     Edge 102, Type (0, 1), BuildingBlock: UVAHIK_clean_linker_0, # of connection points: 2
#     Edge 103, Type (0, 1), BuildingBlock: UVAHIK_clean_linker_0, # of connection points: 2
#     Edge 104, Type (0, 1), BuildingBlock: UVAHIK_clean_linker_0, # of connection points: 2
#     Edge 105, Type (0, 1), BuildingBlock: UVAHIK_clean_linker_0, # of connection points: 2
#     Edge 106, Type (0, 1), BuildingBlock: UVAHIK_clean_linker_0, # of connection points: 2
#     Edge 107, Type (0, 1), BuildingBlock: UVAHIK_clean_linker_0, # of connection points: 2
#     Edge 108, Type (0, 1), BuildingBlock: UVAHIK_clean_linker_0, # of connection points: 2
#     Edge 109, Type (0, 1), BuildingBlock: UVAHIK_clean_linker_0, # of connection points: 2
#     Edge 110, Type (0, 1), BuildingBlock: UVAHIK_clean_linker_0, # of connection points: 2
#     Edge 111, Type (0, 1), BuildingBlock: UVAHIK_clean_linker_0, # of connection points: 2
#     Edge 112, Type (0, 1), BuildingBlock: UVAHIK_clean_linker_0, # of connection points: 2
#     Edge 113, Type (0, 1), BuildingBlock: UVAHIK_clean_linker_0, # of connection points: 2
#     Edge 114, Type (0, 1), BuildingBlock: UVAHIK_clean_linker_0, # of connection points: 2
#     Edge 115, Type (0, 1), BuildingBlock: UVAHIK_clean_linker_0, # of connection points: 2
#     Edge 116, Type (0, 1), BuildingBlock: UVAHIK_clean_linker_0, # of connection points: 2
#     Edge 117, Type (0, 1), BuildingBlock: UVAHIK_clean_linker_0, # of connection points: 2
#     Edge 118, Type (0, 1), BuildingBlock: UVAHIK_clean_linker_0, # of connection points: 2
#     Edge 119, Type (0, 1), BuildingBlock: UVAHIK_clean_linker_0, # of connection points: 2
#     Edge 120, Type (0, 1), BuildingBlock: UVAHIK_clean_linker_0, # of connection points: 2
#     Edge 121, Type (0, 1), BuildingBlock: UVAHIK_clean_linker_0, # of connection points: 2
#     Edge 122, Type (0, 1), BuildingBlock: UVAHIK_clean_linker_0, # of connection points: 2
#     Edge 123, Type (0, 1), BuildingBlock: UVAHIK_clean_linker_0, # of connection points: 2
#     Edge 124, Type (0, 1), BuildingBlock: UVAHIK_clean_linker_0, # of connection points: 2
#     Edge 125, Type (0, 1), BuildingBlock: UVAHIK_clean_linker_0, # of connection points: 2
#     Edge 126, Type (0, 1), BuildingBlock: UVAHIK_clean_linker_0, # of connection points: 2
#     Edge 127, Type (0, 1), BuildingBlock: UVAHIK_clean_linker_0, # of connection points: 2
#     Edge 128, Type (0, 1), BuildingBlock: UVAHIK_clean_linker_0, # of connection points: 2
#     Edge 129, Type (0, 1), BuildingBlock: UVAHIK_clean_linker_0, # of connection points: 2
#     Edge 130, Type (0, 1), BuildingBlock: UVAHIK_clean_linker_0, # of connection points: 2
#     Edge 131, Type (0, 1), BuildingBlock: UVAHIK_clean_linker_0, # of connection points: 2
#     Edge 132, Type (0, 1), BuildingBlock: UVAHIK_clean_linker_0, # of connection points: 2
#     Edge 133, Type (0, 1), BuildingBlock: UVAHIK_clean_linker_0, # of connection points: 2
#     Edge 134, Type (0, 1), BuildingBlock: UVAHIK_clean_linker_0, # of connection points: 2
#     Edge 135, Type (0, 1), BuildingBlock: UVAHIK_clean_linker_0, # of connection points: 2
# Relax obj value: 0.152
# Max RMSD: 0.262
# Mean RMSD: 0.172
data_MOF--net-gar--node1-NAHDIM_clean_sbu_0--node2-BETDEL_clean_sbu_0--edge1-UVAHIK_clean_linker_0
_symmetry_space_group_name_H-M    P1
_symmetry_Int_Tables_number       1
_symmetry_cell_setting            triclinic
loop_
_symmetry_equiv_pos_as_xyz
'x, y, z'
_cell_length_a     72.446746
_cell_length_b     68.356268
_cell_length_c     68.318399
_cell_angle_alpha  95.265691
_cell_angle_beta   92.848478
_cell_angle_gamma 100.83075
loop_
_atom_site_label
_atom_site_type_symbol
_atom_site_fract_x
_atom_site_fract_y
_atom_site_fract_z
_atom_type_partial_charge
C0 C 0.04938 0.27512 0.34806 0.0
O1 O 0.04217 0.29138 0.35002 0.0
O2 O 0.02128 0.23816 0.39273 0.0
Zn3 Zn 0.02331 0.2621 0.37721 0.0
O4 O 0.03104 0.28765 0.39545 0.0
C5 C 0.9842 0.26295 0.37371 0.0
O6 O 0.9865 0.26222 0.3928 0.0
O7 O 0.04314 0.26061 0.35782 0.0
C8 C 0.02506 0.30323 0.39136 0.0
O9 O 0.01419 0.3024 0.37522 0.0
C10 C 0.01819 0.23895 0.41092 0.0
O11 O 0.01623 0.25603 0.42029 0.0
O12 O -0.00184 0.26235 0.36326 0.0
C13 C 0.97027 0.77762 0.66017 0.0
O14 O 0.98295 0.79374 0.65841 0.0
O15 O 0.98397 0.73453 0.6128 0.0
Zn16 Zn 0.99079 0.76055 0.63027 0.0
O17 O 0.9927 0.78468 0.61477 0.0
C18 C 0.02767 0.75185 0.63686 0.0
O19 O 0.02443 0.74461 0.61827 0.0
O20 O 0.97085 0.7615 0.64957 0.0
C21 C 0.00783 0.79299 0.6078 0.0
O22 O 0.02312 0.78554 0.61029 0.0
C23 C 0.98553 0.73255 0.59431 0.0
O24 O 0.99068 0.74856 0.58515 0.0
O25 O 0.0154 0.7601 0.64528 0.0
C26 C 0.54601 0.77918 0.8503 0.0
O27 O 0.53461 0.79113 0.84566 0.0
O28 O 0.51701 0.74827 0.89792 0.0
Zn29 Zn 0.52334 0.77319 0.88406 0.0
O30 O 0.5322 0.79689 0.90418 0.0
C31 C 0.48671 0.78139 0.87958 0.0
O32 O 0.48828 0.78073 0.89874 0.0
O33 O 0.54363 0.77009 0.86567 0.0
C34 C 0.53518 0.81455 0.89907 0.0
O35 O 0.53309 0.81713 0.88034 0.0
C36 C 0.52552 0.74714 0.91439 0.0
O37 O 0.5384 0.76242 0.92217 0.0
O38 O 0.50022 0.77804 0.86942 0.0
C39 C 0.47196 0.28476 0.1578 0.0
O40 O 0.48472 0.30032 0.15462 0.0
O41 O 0.48055 0.24002 0.10934 0.0
Zn42 Zn 0.48979 0.26564 0.1269 0.0
O43 O 0.49227 0.28985 0.11156 0.0
C44 C 0.52623 0.2548 0.13143 0.0
O45 O 0.52239 0.24801 0.11278 0.0
O46 O 0.47139 0.26812 0.14758 0.0
C47 C 0.50758 0.29812 0.10492 0.0
O48 O 0.52279 0.29063 0.10774 0.0
C49 C 0.4821 0.23822 0.09084 0.0
O50 O 0.48908 0.25408 0.08215 0.0
O51 O 0.51457 0.26345 0.14047 0.0
C52 C 0.9873 0.80221 0.16797 0.0
O53 O 0.99357 0.81781 0.15861 0.0
O54 O 0.00651 0.75629 0.12916 0.0
Zn55 Zn 0.01269 0.78379 0.14437 0.0
O56 O 0.01287 0.80499 0.12581 0.0
C57 C 0.04999 0.77709 0.15387 0.0
O58 O 0.04575 0.76379 0.1384 0.0
O59 O 0.99338 0.7861 0.16413 0.0
C60 C 0.02771 0.8126 0.11793 0.0
O61 O 0.04352 0.80661 0.12206 0.0
C62 C 0.00755 0.75376 0.11059 0.0
O63 O 0.01214 0.76944 0.10084 0.0
O64 O 0.03803 0.7876 0.15915 0.0
C65 C 0.53085 0.76165 0.35133 0.0
O66 O 0.53322 0.77461 0.36711 0.0
O67 O 0.49476 0.72885 0.38352 0.0
Zn68 Zn 0.49389 0.75007 0.36526 0.0
O69 O 0.49665 0.77699 0.38112 0.0
C70 C 0.4538 0.74006 0.35659 0.0
O71 O 0.45372 0.73979 0.37579 0.0
O72 O 0.51506 0.74985 0.34746 0.0
C73 C 0.48646 0.78958 0.37732 0.0
O74 O 0.47401 0.78536 0.36215 0.0
C75 C 0.49245 0.73155 0.40182 0.0
O76 O 0.4889 0.74875 0.40929 0.0
O77 O 0.46945 0.74382 0.34877 0.0
C78 C 0.48611 0.3038 0.66909 0.0
O79 O 0.4887 0.31602 0.65529 0.0
O80 O 0.50969 0.2599 0.63554 0.0
Zn81 Zn 0.51588 0.28741 0.65079 0.0
O82 O 0.51704 0.30862 0.63211 0.0
C83 C 0.55311 0.2808 0.66077 0.0
O84 O 0.54921 0.26794 0.64494 0.0
O85 O 0.49599 0.29032 0.6699 0.0
C86 C 0.5321 0.31678 0.62495 0.0
O87 O 0.54801 0.31128 0.62974 0.0
C88 C 0.51183 0.25746 0.61716 0.0
O89 O 0.51762 0.27319 0.60781 0.0
O90 O 0.54092 0.29094 0.66621 0.0
C91 C 0.02157 0.24738 0.83759 0.0
O92 O 0.01081 0.25911 0.8309 0.0
O93 O 0.99282 0.22533 0.8895 0.0
Zn94 Zn 0.99611 0.24447 0.86883 0.0
O95 O 0.00087 0.27275 0.88186 0.0
C96 C 0.95679 0.23786 0.85879 0.0
O97 O 0.95655 0.23885 0.87807 0.0
O98 O 0.01791 0.23966 0.85349 0.0
C99 C 0.99271 0.28606 0.8755 0.0
O100 O 0.98158 0.28165 0.85931 0.0
C101 C 0.99637 0.23084 0.90779 0.0
O102 O 0.00244 0.24989 0.91375 0.0
O103 O 0.97251 0.23949 0.85104 0.0
C104 C 0.36689 0.06461 0.27112 0.0
O105 O 0.37138 0.0575 0.28755 0.0
O106 O 0.41231 0.04785 0.23664 0.0
Zn107 Zn 0.39289 0.04149 0.25602 0.0
O108 O 0.4061 0.04437 0.28282 0.0
C109 C 0.38457 -0.0014 0.24335 0.0
O110 O 0.40249 0.00085 0.23993 0.0
O111 O 0.37468 0.06006 0.25553 0.0
C112 C 0.4218 0.03891 0.28524 0.0
O113 O 0.42922 0.0311 0.26995 0.0
C114 C 0.41977 0.06588 0.23473 0.0
O115 O 0.41388 0.08052 0.24486 0.0
O116 O 0.37799 0.01367 0.24994 0.0
C117 C 0.29167 0.12559 0.48082 0.0
O118 O 0.28829 0.13376 0.46467 0.0
O119 O 0.2675 0.16385 0.52393 0.0
Zn120 Zn 0.26573 0.14916 0.49687 0.0
O121 O 0.27143 0.16838 0.47636 0.0
C122 C 0.22584 0.13931 0.4996 0.0
O123 O 0.22906 0.15711 0.50959 0.0
O124 O 0.28376 0.13018 0.49631 0.0
C125 C 0.26605 0.18507 0.47732 0.0
O126 O 0.25646 0.19008 0.49218 0.0
C127 C 0.28176 0.1761 0.5321 0.0
O128 O 0.29709 0.18007 0.52252 0.0
O129 O 0.23946 0.13286 0.49194 0.0
C130 C 0.15461 0.97567 0.7655 0.0
O131 O 0.13773 0.97468 0.75704 0.0
O132 O 0.13191 0.01575 0.75994 0.0
Zn133 Zn 0.14647 0.01162 0.78453 0.0
O134 O 0.1291 0.00373 0.80569 0.0
C135 C 0.15647 0.05317 0.79598 0.0
O136 O 0.13812 0.05119 0.79314 0.0
O137 O 0.16146 0.99035 0.77817 0.0
C138 C 0.13488 0.00893 0.82361 0.0
O139 O 0.1522 0.01884 0.82782 0.0
C140 C 0.11513 0.01878 0.75949 0.0
O141 O 0.10616 0.01862 0.77573 0.0
O142 O 0.16384 0.03774 0.79353 0.0
C143 C 0.21813 0.92556 0.00482 0.0
O144 O 0.22373 0.9187 0.988 0.0
O145 O 0.2355 0.88116 0.04104 0.0
Zn146 Zn 0.24171 0.90065 0.02119 0.0
O147 O 0.24143 0.8846 0.99505 0.0
C148 C 0.28103 0.90925 0.03411 0.0
O149 O 0.27797 0.89002 0.03627 0.0
O150 O 0.22357 0.91943 0.02072 0.0
C151 C 0.25299 0.88988 0.98225 0.0
O152 O 0.26513 0.90689 0.98573 0.0
C153 C 0.22196 0.86626 0.03745 0.0
O154 O 0.21119 0.86454 0.0211 0.0
O155 O 0.26748 0.91702 0.02809 0.0
C156 C 0.22534 0.43846 0.02494 0.0
O157 O 0.23581 0.43997 0.00978 0.0
O158 O 0.24956 0.39442 0.0574 0.0
Zn159 Zn 0.2477 0.40954 0.03373 0.0
O160 O 0.24084 0.391 0.00862 0.0
C161 C 0.2856 0.41878 0.02344 0.0
O162 O 0.28173 0.39945 0.01798 0.0
O163 O 0.22805 0.42642 0.0374 0.0
C164 C 0.24303 0.37291 0.00665 0.0
O165 O 0.2492 0.36511 0.02198 0.0
C166 C 0.23548 0.38256 0.06278 0.0
O167 O 0.21929 0.37971 0.05235 0.0
O168 O 0.27297 0.42704 0.03108 0.0
C169 C 0.79554 0.10462 0.99498 0.0
O170 O 0.78429 0.10146 0.97886 0.0
O171 O 0.7728 0.15104 0.03018 0.0
Zn172 Zn 0.77542 0.13612 0.0042 0.0
O173 O 0.78228 0.15592 0.98469 0.0
C174 C 0.74399 0.10638 0.00803 0.0
O175 O 0.75381 0.1063 0.02472 0.0
O176 O 0.79468 0.11915 0.00766 0.0
C177 C 0.77092 0.16772 0.98238 0.0
O178 O 0.75564 0.16569 0.99219 0.0
C179 C 0.78327 0.16787 0.03592 0.0
O180 O 0.79643 0.17555 0.02474 0.0
O181 O 0.75062 0.1183 0.9958 0.0
C182 C 0.14154 0.47487 0.26624 0.0
O183 O 0.13918 0.48585 0.28241 0.0
O184 O 0.09772 0.49018 0.22652 0.0
Zn185 Zn 0.11025 0.4903 0.25316 0.0
O186 O 0.09097 0.48 0.27167 0.0
C187 C 0.1191 0.53381 0.25687 0.0
O188 O 0.10413 0.53207 0.24469 0.0
O189 O 0.13001 0.47363 0.25136 0.0
C190 C 0.07875 0.49041 0.27625 0.0
O191 O 0.07928 0.50762 0.26898 0.0
C192 C 0.08458 0.47593 0.21938 0.0
O193 O 0.07928 0.46075 0.22964 0.0
O194 O 0.12376 0.51818 0.26267 0.0
C195 C 0.72519 0.93885 0.52447 0.0
O196 O 0.7363 0.94195 0.50997 0.0
O197 O 0.7476 0.89217 0.5543 0.0
Zn198 Zn 0.7466 0.90829 0.53129 0.0
O199 O 0.74 0.89048 0.50568 0.0
C200 C 0.78481 0.9173 0.52214 0.0
O201 O 0.78072 0.89811 0.51602 0.0
O202 O 0.72718 0.92531 0.5355 0.0
C203 C 0.74174 0.87225 0.5037 0.0
O204 O 0.74717 0.8641 0.51913 0.0
C205 C 0.73294 0.88084 0.55921 0.0
O206 O 0.71693 0.87937 0.54874 0.0
O207 O 0.77216 0.92558 0.5297 0.0
C208 C 0.86855 0.07509 0.25787 0.0
O209 O 0.88458 0.07831 0.26862 0.0
O210 O 0.89437 0.04032 0.21846 0.0
Zn211 Zn 0.88076 0.03905 0.24319 0.0
O212 O 0.89882 0.04178 0.26686 0.0
C213 C 0.85336 0.00305 0.2287 0.0
O214 O 0.85111 0.01216 0.21288 0.0
O215 O 0.86421 0.05948 0.24571 0.0
C216 C 0.91108 0.03072 0.2671 0.0
O217 O 0.91269 0.01907 0.25112 0.0
C218 C 0.90768 0.05462 0.21585 0.0
O219 O 0.91265 0.06961 0.22971 0.0
O220 O 0.86485 0.01187 0.2428 0.0
C221 C 0.29972 0.60978 0.49877 0.0
O222 O 0.28837 0.60651 0.48271 0.0
O223 O 0.27603 0.65506 0.5349 0.0
Zn224 Zn 0.27851 0.64022 0.5088 0.0
O225 O 0.28443 0.65993 0.48904 0.0
C226 C 0.24829 0.60912 0.51286 0.0
O227 O 0.25921 0.60837 0.52861 0.0
O228 O 0.29841 0.6239 0.51174 0.0
C229 C 0.27263 0.67124 0.48662 0.0
O230 O 0.25746 0.66893 0.49661 0.0
C231 C 0.28565 0.67243 0.54028 0.0
O232 O 0.29799 0.68086 0.52863 0.0
O233 O 0.25382 0.6219 0.501 0.0
C234 C 0.36842 0.57648 0.75851 0.0
O235 O 0.38459 0.57782 0.7686 0.0
O236 O 0.3913 0.54172 0.71693 0.0
Zn237 Zn 0.37764 0.53978 0.74162 0.0
O238 O 0.39601 0.54088 0.76474 0.0
C239 C 0.34912 0.50435 0.72659 0.0
O240 O 0.34742 0.51323 0.71052 0.0
O241 O 0.36264 0.56156 0.74576 0.0
C242 C 0.4082 0.52973 0.76442 0.0
O243 O 0.4095 0.5183 0.7482 0.0
C244 C 0.40395 0.55685 0.71483 0.0
O245 O 0.4077 0.57173 0.72892 0.0
O246 O 0.36063 0.51308 0.74072 0.0
C247 C 0.65463 0.98396 0.75796 0.0
O248 O 0.65639 -0.0023 0.77304 0.0
O249 O 0.60439 0.99724 0.72719 0.0
Zn250 Zn 0.61998 0.99679 0.75202 0.0
O251 O 0.60334 0.98552 0.7725 0.0
C252 C 0.62624 0.03996 0.76403 0.0
O253 O 0.60787 0.03809 0.76156 0.0
O254 O 0.63967 0.98037 0.74664 0.0
C255 C 0.6084 0.98937 0.79071 0.0
O256 O 0.6248 0.00095 0.79615 0.0
C257 C 0.5909 0.98292 0.72105 0.0
O258 O 0.58719 0.96737 0.73117 0.0
O259 O 0.63364 0.02463 0.76104 0.0
C260 C 0.79311 0.62427 0.97828 0.0
O261 O 0.79106 0.634 0.96285 0.0
O262 O 0.77419 0.66407 0.02321 0.0
Zn263 Zn 0.76818 0.64859 0.99633 0.0
O264 O 0.77173 0.66662 0.97443 0.0
C265 C 0.72925 0.63881 0.00582 0.0
O266 O 0.73397 0.65537 0.01781 0.0
O267 O 0.78491 0.62829 0.99374 0.0
C268 C 0.75981 0.67738 0.97038 0.0
O269 O 0.74506 0.67695 0.98088 0.0
C270 C 0.77714 0.68302 0.0268 0.0
O271 O 0.77707 0.69416 0.01215 0.0
O272 O 0.74144 0.63328 0.99492 0.0
C273 C 0.87962 0.58257 0.76256 0.0
O274 O 0.89226 0.58752 0.77752 0.0
O275 O 0.92161 0.55576 0.74043 0.0
Zn276 Zn 0.89866 0.54995 0.75569 0.0
O277 O 0.90701 0.55408 0.78428 0.0
C278 C 0.89181 0.50648 0.74403 0.0
O279 O 0.90993 0.50883 0.74158 0.0
O280 O 0.88035 0.56759 0.7504 0.0
C281 C 0.8972 0.54583 0.79723 0.0
O282 O 0.88073 0.53435 0.79187 0.0
C283 C 0.93683 0.55178 0.74768 0.0
O284 O 0.93683 0.54389 0.7645 0.0
O285 O 0.88475 0.52162 0.74938 0.0
C286 C 0.72617 0.43537 0.50381 0.0
O287 O 0.73231 0.43111 0.48647 0.0
O288 O 0.73502 0.38179 0.53257 0.0
Zn289 Zn 0.74272 0.40213 0.51373 0.0
O290 O 0.73736 0.38792 0.48641 0.0
C291 C 0.77866 0.42258 0.53353 0.0
O292 O 0.76864 0.42694 0.54825 0.0
O293 O 0.72892 0.42488 0.5177 0.0
C294 C 0.74861 0.3922 0.47307 0.0
O295 O 0.76299 0.40719 0.47684 0.0
C296 C 0.73941 0.36473 0.52895 0.0
O297 O 0.74881 0.36143 0.51342 0.0
O298 O 0.77047 0.41242 0.51797 0.0
C299 C 0.6528 0.47057 0.26334 0.0
O300 O 0.63624 0.46898 0.25393 0.0
O301 O 0.62742 0.50809 0.25635 0.0
Zn302 Zn 0.64271 0.50615 0.28133 0.0
O303 O 0.62632 0.49936 0.30363 0.0
C304 C 0.65365 0.54853 0.28368 0.0
O305 O 0.63731 0.54616 0.27364 0.0
O306 O 0.65867 0.4854 0.27617 0.0
C307 C 0.61382 0.50949 0.30798 0.0
O308 O 0.61136 0.52402 0.29742 0.0
C309 C 0.60988 0.5017 0.25243 0.0
O310 O 0.59987 0.4917 0.26508 0.0
O311 O 0.65936 0.5332 0.28896 0.0
Dy312 Dy 0.98892 0.01471 0.00829 0.0
C313 C 0.06995 0.03072 0.00915 0.0
C314 C 0.95121 0.01128 0.01183 0.0
Dy315 Dy 0.03242 0.02796 0.01355 0.0
O316 O 0.95892 0.00724 0.99557 0.0
O317 O 0.9641 0.01705 0.02614 0.0
O318 O 0.99191 -0.00212 0.97906 0.0
O319 O 0.01125 0.02424 0.98932 0.0
C320 C 0.00743 0.00988 0.97597 0.0
C321 C 0.01409 0.03328 0.04585 0.0
O322 O 0.02538 0.05601 0.00376 0.0
O323 O 0.99347 0.04834 0.00918 0.0
O324 O 0.06278 0.03702 0.02504 0.0
O325 O 0.05662 0.02309 0.99572 0.0
O326 O 0.02986 0.04487 0.04274 0.0
O327 O 0.0101 0.01873 0.03266 0.0
O328 O 0.9957 0.98654 0.01795 0.0
O329 O 0.02789 0.99442 0.01392 0.0
C330 C 0.00876 0.06124 0.00555 0.0
C331 C 0.01246 0.98148 0.01711 0.0
Dy332 Dy 0.25016 0.75974 0.23286 0.0
C333 C 0.26502 0.77212 0.31969 0.0
C334 C 0.23354 0.75961 0.19643 0.0
Dy335 Dy 0.25538 0.7704 0.28057 0.0
O336 O 0.24325 0.74636 0.20138 0.0
O337 O 0.2332 0.77285 0.21126 0.0
O338 O 0.27894 0.75134 0.22931 0.0
O339 O 0.27028 0.76057 0.25649 0.0
C340 C 0.28351 0.75456 0.24823 0.0
C341 C 0.2252 0.77895 0.26149 0.0
O342 O 0.27286 0.79754 0.27055 0.0
O343 O 0.26294 0.79259 0.23694 0.0
O344 O 0.24783 0.76848 0.31186 0.0
O345 O 0.27694 0.77499 0.30615 0.0
O346 O 0.23284 0.78912 0.27792 0.0
O347 O 0.23311 0.76439 0.25748 0.0
O348 O 0.23561 0.7311 0.24311 0.0
O349 O 0.24594 0.73689 0.2767 0.0
C350 C 0.27226 0.80368 0.25268 0.0
C351 C 0.23739 0.72507 0.26097 0.0
Dy352 Dy 0.5207 0.02064 0.51077 0.0
C353 C 0.44128 0.01891 0.49612 0.0
C354 C 0.55668 0.01731 0.52119 0.0
Dy355 Dy 0.47702 0.01486 0.50667 0.0
O356 O 0.5517 0.02606 0.50625 0.0
O357 O 0.54203 0.01049 0.53051 0.0
O358 O 0.52263 0.03867 0.48475 0.0
O359 O 0.49931 0.01559 0.48662 0.0
C360 C 0.50608 0.02976 0.47702 0.0
C361 C 0.49184 0.00577 0.54039 0.0
O362 O 0.48007 0.98553 0.49146 0.0
O363 O 0.51146 0.98731 0.50213 0.0
O364 O 0.44611 0.01078 0.51157 0.0
O365 O 0.45594 0.0246 0.48638 0.0
O366 O 0.47534 0.99666 0.53264 0.0
O367 O 0.49842 0.02 0.53078 0.0
O368 O 0.51756 0.05013 0.52579 0.0
O369 O 0.48624 0.04813 0.51482 0.0
C370 C 0.49508 0.9772 0.49361 0.0
C371 C 0.50253 0.05839 0.52333 0.0
Dy372 Dy 0.24003 0.26977 0.76521 0.0
C373 C 0.32061 0.29623 0.77121 0.0
C374 C 0.20262 0.25446 0.76664 0.0
Dy375 Dy 0.28328 0.28088 0.77326 0.0
O376 O 0.20954 0.26872 0.75625 0.0
O377 O 0.21613 0.2485 0.77616 0.0
O378 O 0.24095 0.29517 0.74645 0.0
O379 O 0.26074 0.29754 0.77053 0.0
C380 C 0.25614 0.30575 0.75577 0.0
C381 C 0.26712 0.24486 0.78259 0.0
O382 O 0.27505 0.29532 0.8013 0.0
O383 O 0.24358 0.27926 0.79788 0.0
O384 O 0.31389 0.28125 0.78083 0.0
O385 O 0.3069 0.30303 0.76295 0.0
O386 O 0.28238 0.2553 0.79194 0.0
O387 O 0.26259 0.25326 0.76796 0.0
O388 O 0.24838 0.25461 0.73765 0.0
O389 O 0.27964 0.27123 0.74055 0.0
C390 C 0.25838 0.29024 0.8086 0.0
C391 C 0.26491 0.2598 0.73011 0.0
Dy392 Dy 0.0035 0.00839 0.4927 0.0
C393 C 0.0331 0.0401 0.57097 0.0
C394 C 0.98449 -0.00221 0.45671 0.0
Dy395 Dy 0.01485 0.02781 0.53485 0.0
O396 O 0.00164 0.99567 0.46091 0.0
O397 O 0.97764 0.00518 0.4723 0.0
O398 O 0.03343 0.00533 0.48836 0.0
O399 O 0.02784 0.02929 0.50699 0.0
C400 C 0.04062 0.02053 0.50106 0.0
C401 C 0.9778 0.0164 0.52597 0.0
O402 O 0.01592 0.05578 0.52009 0.0
O403 O -0.00111 0.04004 0.49142 0.0
O404 O 0.01544 0.04 0.56661 0.0
O405 O 0.04086 0.03371 0.55552 0.0
O406 O 0.98505 0.03176 0.53844 0.0
O407 O 0.99042 0.00716 0.52049 0.0
O408 O 0.00258 0.98039 0.50736 0.0
O409 O 0.01919 0.99607 0.53633 0.0
C410 C 0.0064 0.05648 0.50316 0.0
C411 C 0.0118 0.97964 0.52446 0.0
Dy412 Dy 0.27771 0.78576 0.76859 0.0
C413 C 0.20329 0.74572 0.73842 0.0
C414 C 0.3116 0.80165 0.78839 0.0
Dy415 Dy 0.2377 0.76161 0.75713 0.0
O416 O 0.30812 0.80095 0.76948 0.0
O417 O 0.29644 0.79399 0.79651 0.0
O418 O 0.28242 0.78914 0.73681 0.0
O419 O 0.26488 0.76334 0.74467 0.0
C420 C 0.27072 0.77268 0.73043 0.0
C421 C 0.24513 0.77503 0.79523 0.0
O422 O 0.25203 0.7359 0.76068 0.0
O423 O 0.27912 0.75505 0.77744 0.0
O424 O 0.20676 0.74909 0.75737 0.0
O425 O 0.21873 0.75069 0.72966 0.0
O426 O 0.23366 0.75831 0.7892 0.0
O427 O 0.25057 0.78415 0.78078 0.0
O428 O 0.26309 0.81126 0.76509 0.0
O429 O 0.23665 0.79203 0.74732 0.0
C430 C 0.26818 0.73746 0.77128 0.0
C431 C 0.24733 0.80966 0.75381 0.0
Dy432 Dy 0.51455 0.02416 0.03444 0.0
C433 C 0.50491 0.98978 0.95332 0.0
C434 C 0.51621 0.04355 0.07128 0.0
Dy435 Dy 0.50539 0.00947 0.9899 0.0
O436 O 0.51739 0.02488 0.06739 0.0
O437 O 0.51411 0.05161 0.05505 0.0
O438 O 0.53061 -0.00074 0.03714 0.0
O439 O 0.50698 0.99549 0.01695 0.0
C440 C 0.52027 0.98762 0.02298 0.0
C441 C 0.49966 0.04608 0.00116 0.0
O442 O 0.47772 0.99717 0.00102 0.0
O443 O 0.48281 0.01564 0.0319 0.0
O444 O 0.50122 0.0076 0.95692 0.0
O445 O 0.50866 0.98269 0.96972 0.0
O446 O 0.4896 0.03447 0.98679 0.0
O447 O 0.51293 0.03824 0.00738 0.0
O448 O 0.54265 0.03536 0.02378 0.0
O449 O 0.53709 0.01805 0.99232 0.0
C450 C 0.47159 0.00372 0.0179 0.0
C451 C 0.54855 0.02902 0.00671 0.0
Dy452 Dy 0.27368 0.30915 0.27353 0.0
C453 C 0.26899 0.224 0.26927 0.0
C454 C 0.27138 0.34794 0.26976 0.0
Dy455 Dy 0.26754 0.2631 0.26649 0.0
O456 O 0.27366 0.34065 0.28643 0.0
O457 O 0.27056 0.33409 0.25528 0.0
O458 O 0.28898 0.30831 0.30287 0.0
O459 O 0.26701 0.28467 0.2916 0.0
C460 C 0.2797 0.29053 0.30526 0.0
C461 C 0.26059 0.28156 0.23503 0.0
O462 O 0.23924 0.26578 0.27621 0.0
O463 O 0.24194 0.29961 0.27225 0.0
O464 O 0.26348 0.23111 0.25347 0.0
O465 O 0.27368 0.23825 0.28356 0.0
O466 O 0.2515 0.2638 0.23767 0.0
O467 O 0.2737 0.28751 0.24826 0.0
O468 O 0.30247 0.30677 0.26493 0.0
O469 O 0.2991 0.27235 0.2662 0.0
C470 C 0.23173 0.28193 0.27517 0.0
C471 C 0.30954 0.2902 0.26434 0.0
Dy472 Dy 0.50394 0.51366 0.99042 0.0
C473 C 0.52955 0.54354 0.07017 0.0
C474 C 0.48601 0.50314 0.95391 0.0
Dy475 Dy 0.51351 0.53251 0.03289 0.0
O476 O 0.50312 0.5012 0.95864 0.0
O477 O 0.47865 0.51037 0.96923 0.0
O478 O 0.534 0.51059 0.98736 0.0
O479 O 0.52783 0.53443 0.00579 0.0
C480 C 0.54078 0.52565 0.00037 0.0
C481 C 0.47677 0.5211 0.02228 0.0
O482 O 0.51449 0.56088 0.01887 0.0
O483 O 0.49965 0.54537 0.98901 0.0
O484 O 0.51165 0.5407 0.06522 0.0
O485 O 0.53876 0.54076 0.05465 0.0
O486 O 0.48359 0.53658 0.03478 0.0
O487 O 0.48961 0.51186 0.01745 0.0
O488 O 0.50257 0.48549 0.00478 0.0
O489 O 0.51867 0.50104 0.03399 0.0
C490 C 0.50612 0.56169 0.00133 0.0
C491 C 0.51157 0.48466 0.02196 0.0
Dy492 Dy 0.77597 0.27965 0.26501 0.0
C493 C 0.70138 0.24372 0.23175 0.0
C494 C 0.80965 0.29281 0.28616 0.0
Dy495 Dy 0.73546 0.25766 0.25191 0.0
O496 O 0.80698 0.29271 0.26721 0.0
O497 O 0.7938 0.28618 0.29359 0.0
O498 O 0.78198 0.28337 0.23357 0.0
O499 O 0.76294 0.25814 0.24047 0.0
C500 C 0.76974 0.2675 0.22663 0.0
C501 C 0.74196 0.27047 0.29027 0.0
O502 O 0.74822 0.23084 0.25538 0.0
O503 O 0.7753 0.24837 0.27338 0.0
O504 O 0.70436 0.24544 0.25077 0.0
O505 O 0.71711 0.2493 0.22368 0.0
O506 O 0.72977 0.25443 0.28371 0.0
O507 O 0.74853 0.27936 0.27612 0.0
O508 O 0.763 0.30637 0.26157 0.0
O509 O 0.73634 0.28875 0.24288 0.0
C510 C 0.76385 0.23131 0.26652 0.0
C511 C 0.74763 0.30585 0.24996 0.0
Dy512 Dy 0.01964 0.51014 0.54151 0.0
C513 C 0.0089 0.48364 0.45725 0.0
C514 C 0.0232 0.52298 0.58048 0.0
Dy515 Dy 0.01067 0.50232 0.49426 0.0
O516 O 0.02061 0.50432 0.57327 0.0
O517 O 0.02357 0.5346 0.56642 0.0
O518 O 0.03578 0.48479 0.53897 0.0
O519 O 0.01295 0.48503 0.519 0.0
C520 C 0.02597 0.47598 0.52305 0.0
C521 C 0.00875 0.53992 0.50814 0.0
O522 O 0.98302 0.48906 0.50547 0.0
O523 O 0.98806 0.50227 0.53867 0.0
O524 O 0.99572 0.49224 0.46436 0.0
O525 O 0.02294 0.48542 0.4703 0.0
O526 O 0.00584 0.53349 0.48948 0.0
O527 O 0.01274 0.52597 0.51722 0.0
O528 O 0.04653 0.52531 0.53095 0.0
O529 O 0.04227 0.5116 0.49797 0.0
C530 C 0.97692 0.49281 0.52325 0.0
C531 C 0.05292 0.52169 0.5134 0.0
Dy532 Dy 0.74075 0.76838 0.26301 0.0
C533 C 0.82169 0.79065 0.2707 0.0
C534 C 0.70284 0.75558 0.26385 0.0
Dy535 Dy 0.78393 0.77707 0.2719 0.0
O536 O 0.71086 0.76887 0.25295 0.0
O537 O 0.71556 0.74909 0.27412 0.0
O538 O 0.74327 0.79435 0.24487 0.0
O539 O 0.76254 0.7952 0.26909 0.0
C540 C 0.75868 0.804 0.25448 0.0
C541 C 0.76582 0.7415 0.28045 0.0
O542 O 0.77602 0.7914 0.30013 0.0
O543 O 0.74403 0.7774 0.29577 0.0
O544 O 0.81408 0.7747 0.27849 0.0
O545 O 0.80865 0.79934 0.2638 0.0
O546 O 0.78118 0.75111 0.29026 0.0
O547 O 0.76214 0.75039 0.26585 0.0
O548 O 0.74883 0.75315 0.23536 0.0
O549 O 0.78049 0.76842 0.23905 0.0
C550 C 0.75902 0.78731 0.30694 0.0
C551 C 0.76559 0.75786 0.22818 0.0
Dy552 Dy 0.75706 0.26795 0.73423 0.0
C553 C 0.77044 0.27815 0.82116 0.0
C554 C 0.74203 0.26851 0.69723 0.0
Dy555 Dy 0.76158 0.27775 0.78201 0.0
O556 O 0.75069 0.25463 0.70271 0.0
O557 O 0.74174 0.28196 0.7119 0.0
O558 O 0.78544 0.25853 0.73103 0.0
O559 O 0.77665 0.26772 0.75813 0.0
C560 C 0.78976 0.26133 0.74998 0.0
C561 C 0.7321 0.28753 0.76265 0.0
O562 O 0.77989 0.30479 0.77272 0.0
O563 O 0.77041 0.30062 0.73903 0.0
O564 O 0.7534 0.27516 0.81303 0.0
O565 O 0.78265 0.28117 0.80791 0.0
O566 O 0.73958 0.29714 0.7794 0.0
O567 O 0.73972 0.27279 0.75854 0.0
O568 O 0.741 0.23967 0.74386 0.0
O569 O 0.75126 0.24437 0.77743 0.0
C570 C 0.77974 0.31127 0.75498 0.0
C571 C 0.74234 0.23312 0.76154 0.0
Dy572 Dy 0.76502 0.79971 0.76422 0.0
C573 C 0.75806 0.7144 0.76306 0.0
C574 C 0.76405 0.83805 0.75723 0.0
Dy575 Dy 0.75765 0.75338 0.75859 0.0
O576 O 0.76835 0.83258 0.77435 0.0
O577 O 0.76031 0.82263 0.74416 0.0
O578 O 0.77928 0.79967 0.79432 0.0
O579 O 0.75747 0.77596 0.78291 0.0
C580 C 0.76984 0.78198 0.79682 0.0
C581 C 0.75227 0.77119 0.7263 0.0
O582 O 0.72972 0.75758 0.76848 0.0
O583 O 0.73324 0.79133 0.76377 0.0
O584 O 0.751 0.7207 0.74752 0.0
O585 O 0.76489 0.7294 0.77608 0.0
O586 O 0.74257 0.75375 0.72908 0.0
O587 O 0.76504 0.77706 0.73987 0.0
O588 O 0.79366 0.79591 0.75622 0.0
O589 O 0.78933 0.76151 0.75821 0.0
C590 C 0.72266 0.774 0.76717 0.0
C591 C 0.80025 0.77908 0.75619 0.0
Dy592 Dy 0.49508 0.51993 0.51345 0.0
C593 C 0.57642 0.53654 0.51892 0.0
C594 C 0.45739 0.51744 0.51638 0.0
Dy595 Dy 0.53844 0.53337 0.52008 0.0
O596 O 0.46512 0.51197 0.50055 0.0
O597 O 0.47023 0.52405 0.53057 0.0
O598 O 0.4984 0.50079 0.48591 0.0
O599 O 0.51817 0.52737 0.4947 0.0
C600 C 0.51438 0.51188 0.48258 0.0
C601 C 0.5186 0.54083 0.55082 0.0
O602 O 0.53223 0.56081 0.50821 0.0
O603 O 0.49976 0.55311 0.51064 0.0
O604 O 0.56768 0.53922 0.53479 0.0
O605 O 0.56442 0.53233 0.50369 0.0
O606 O 0.53426 0.55252 0.54754 0.0
O607 O 0.51538 0.52549 0.53858 0.0
O608 O 0.50161 0.49262 0.52538 0.0
O609 O 0.53378 0.49994 0.52115 0.0
C610 C 0.51539 0.56576 0.50745 0.0
C611 C 0.51832 0.48739 0.52497 0.0
Dy612 Dy 0.01898 0.51707 0.0065 0.0
C613 C 0.93913 0.51377 0.99233 0.0
C614 C 0.05533 0.51458 0.0163 0.0
Dy615 Dy 0.97491 0.51006 0.00317 0.0
O616 O 0.04975 0.52213 0.0008 0.0
O617 O 0.04108 0.50854 0.0265 0.0
O618 O 0.01946 0.53459 0.97994 0.0
O619 O -0.00295 0.51096 0.98308 0.0
C620 C 0.00295 0.52485 0.97285 0.0
C621 C 0.99054 0.50166 0.03664 0.0
O622 O 0.97869 0.48095 0.98798 0.0
O623 O 0.01025 0.48358 -0.00143 0.0
O624 O 0.94375 0.50479 0.00728 0.0
O625 O 0.954 0.5205 0.98332 0.0
O626 O 0.97387 0.49244 0.02942 0.0
O627 O 0.9968 0.51584 0.0268 0.0
O628 O 0.01545 0.54658 0.02106 0.0
O629 O 0.98363 0.54339 0.01134 0.0
C630 C 0.99398 0.47306 0.99017 0.0
C631 C -2e-05 0.55421 0.01913 0.0
C632 C 0.98758 0.19547 0.91562 0.0
C633 C 0.99455 0.21574 0.92207 0.0
C634 C 0.98693 0.18095 0.92874 0.0
C635 C 0.01037 0.17142 0.97442 0.0
H636 H 0.97064 0.12417 0.96921 0.0
C637 C 0.98952 0.08798 0.00427 0.0
C638 C 0.00676 0.08173 0.00187 0.0
C639 C 0.98704 0.10659 -0.00107 0.0
C640 C 0.98171 0.1374 0.97117 0.0
H641 H 0.00569 0.23678 0.94752 0.0
H642 H 0.00453 0.21129 0.97053 0.0
H643 H 0.96684 0.1527 0.95163 0.0
H644 H 0.03521 0.09056 0.99292 0.0
H645 H 0.03076 0.12279 0.98327 0.0
H646 H 0.02535 0.15598 0.99375 0.0
C647 C -0.00027 0.20668 0.95524 0.0
C648 C 0.97961 0.15365 0.96091 0.0
C649 C 0.00034 0.22126 0.94208 0.0
C650 C 0.02173 0.09487 0.99491 0.0
C651 C 0.01922 0.11345 0.98951 0.0
C652 C 0.01246 0.15516 0.98472 0.0
C653 C 0.99323 0.18635 0.94864 0.0
C654 C 0.99416 0.17057 0.96194 0.0
C655 C 0.00172 0.11932 0.99105 0.0
C656 C -0.00161 0.13775 0.98274 0.0
H657 H 0.98296 0.19071 0.9003 0.0
H658 H 0.98211 0.16538 0.92312 0.0
H659 H 0.02187 0.18422 0.97546 0.0
H660 H 0.97776 0.07832 0.00983 0.0
H661 H 0.97348 0.11083 0.00058 0.0
C662 C 0.08017 0.76576 0.16117 0.0
C663 C 0.06826 0.7794 0.16528 0.0
C664 C 0.09706 0.76731 0.17243 0.0
C665 C 0.13304 0.80157 0.20488 0.0
H666 H 0.14362 0.75241 0.22296 0.0
C667 C 0.19896 0.79759 0.256 0.0
C668 C 0.20767 0.78131 0.25095 0.0
C669 C 0.18175 0.79881 0.24634 0.0
C670 C 0.14096 0.76625 0.21789 0.0
H671 H 0.06496 0.80573 0.18408 0.0
H672 H 0.09468 0.80847 0.20372 0.0
H673 H 0.11403 0.7519 0.2043 0.0
H674 H 0.2054 0.75367 0.23185 0.0
H675 H 0.17599 0.75613 0.2147 0.0
H676 H 0.16026 0.81582 0.2182 0.0
C677 C 0.09084 0.79659 0.19179 0.0
C678 C 0.12401 0.76594 0.20723 0.0
C679 C 0.07381 0.79494 0.18061 0.0
C680 C 0.1991 0.76649 0.23598 0.0
C681 C 0.1821 0.76776 0.22629 0.0
C682 C 0.15014 0.80186 0.2155 0.0
C683 C 0.10247 0.78261 0.18795 0.0
C684 C 0.12001 0.7835 0.20033 0.0
C685 C 0.17305 0.78373 0.23156 0.0
C686 C 0.1544 0.7841 0.22177 0.0
H687 H 0.07634 0.75367 0.14943 0.0
H688 H 0.10591 0.7565 0.16899 0.0
H689 H 0.13028 0.81531 0.19968 0.0
H690 H 0.2053 0.80917 0.26756 0.0
H691 H 0.17505 0.81126 0.25075 0.0
C692 C 0.50285 0.81427 0.40503 0.0
C693 C 0.488 0.80836 0.39038 0.0
C694 C 0.50399 0.8318 0.41767 0.0
C695 C 0.47499 0.86607 0.43836 0.0
H696 H 0.5219 0.90477 0.44714 0.0
C697 C 0.47809 0.94673 0.47244 0.0
C698 C 0.49399 0.95645 0.4846 0.0
C699 C 0.47751 0.92775 0.4627 0.0
C700 C 0.50877 0.89398 0.44516 0.0
H701 H 0.46272 0.81619 0.37751 0.0
H702 H 0.46467 0.84669 0.39967 0.0
H703 H 0.52079 0.87339 0.42659 0.0
H704 H 0.52153 0.95352 0.4966 0.0
H705 H 0.52034 0.92016 0.47989 0.0
H706 H 0.46292 0.8865 0.45693 0.0
C707 C 0.47538 0.83773 0.40139 0.0
C708 C 0.50814 0.87604 0.43332 0.0
C709 C 0.47435 0.82034 0.38862 0.0
C710 C 0.50911 0.9465 0.48724 0.0
C711 C 0.50848 0.92742 0.47756 0.0
C712 C 0.47565 0.88391 0.45033 0.0
C713 C 0.49018 0.8436 0.41607 0.0
C714 C 0.49117 0.86207 0.42956 0.0
C715 C 0.49276 0.91793 0.46498 0.0
C716 C 0.49247 0.89823 0.45362 0.0
H717 H 0.51359 0.80536 0.40675 0.0
H718 H 0.51549 0.83594 0.42892 0.0
H719 H 0.46179 0.85539 0.43597 0.0
H720 H 0.46622 0.95396 0.46998 0.0
H721 H 0.46531 0.92106 0.4529 0.0
C722 C 0.46981 0.29369 0.69914 0.0
C723 C 0.47166 0.30556 0.68335 0.0
C724 C 0.4558 0.295 0.71226 0.0
C725 C 0.42179 0.32653 0.72887 0.0
H726 H 0.39336 0.27621 0.74234 0.0
C727 C 0.34596 0.31608 0.75376 0.0
C728 C 0.34055 0.30202 0.76715 0.0
C729 C 0.36415 0.31899 0.74723 0.0
C730 C 0.40136 0.29044 0.73908 0.0
H731 H 0.46046 0.32838 0.66914 0.0
H732 H 0.43578 0.33034 0.69173 0.0
H733 H 0.42099 0.27625 0.72361 0.0
H734 H 0.35013 0.28105 0.78534 0.0
H735 H 0.38199 0.28629 0.7741 0.0
H736 H 0.40164 0.3406 0.74384 0.0
C737 C 0.44536 0.32027 0.69422 0.0
C738 C 0.41723 0.29047 0.72831 0.0
C739 C 0.45942 0.31903 0.68116 0.0
C740 C 0.35393 0.29189 0.7749 0.0
C741 C 0.37212 0.2948 0.76838 0.0
C742 C 0.40585 0.3265 0.73962 0.0
C743 C 0.44327 0.30815 0.70982 0.0
C744 C 0.42745 0.30847 0.7228 0.0
C745 C 0.37722 0.30788 0.75399 0.0
C746 C 0.39531 0.30841 0.74457 0.0
H747 H 0.47913 0.28328 0.70133 0.0
H748 H 0.45474 0.28565 0.72428 0.0
H749 H 0.42955 0.34069 0.72514 0.0
H750 H 0.33587 0.32408 0.74758 0.0
H751 H 0.36759 0.32907 0.73604 0.0
C752 C 0.02483 0.81981 0.58895 0.0
C753 C 0.00836 0.81117 0.59744 0.0
C754 C 0.02556 0.83732 0.57969 0.0
C755 C 0.99542 0.8692 0.55801 0.0
H756 H 0.04077 0.91014 0.56714 0.0
C757 C 0.00469 0.94203 0.51958 0.0
C758 C 0.01274 0.95987 0.53132 0.0
C759 C 0.00479 0.92343 0.52655 0.0
C760 C 0.02796 0.89891 0.56452 0.0
H761 H 0.97966 0.81407 0.60268 0.0
H762 H 0.98103 0.84476 0.5868 0.0
H763 H 0.03928 0.87866 0.58157 0.0
H764 H 0.02745 0.97206 0.55955 0.0
H765 H 0.02739 0.93975 0.57173 0.0
H766 H 0.98389 0.88974 0.54151 0.0
C767 C 0.9933 0.83785 0.58703 0.0
C768 C 0.02719 0.88074 0.57259 0.0
C769 C 0.99256 0.8203 0.59624 0.0
C770 C 0.02116 0.95865 0.55005 0.0
C771 C 0.02123 0.94008 0.55702 0.0
C772 C 0.99619 0.8874 0.54996 0.0
C773 C 0.00986 0.84664 0.57874 0.0
C774 C 0.01087 0.86571 0.56955 0.0
C775 C 0.01293 0.92224 0.54542 0.0
C776 C 0.01242 0.90254 0.55323 0.0
H777 H 0.03723 0.81311 0.58951 0.0
H778 H 0.03844 0.84351 0.5732 0.0
H779 H 0.98271 0.85786 0.55518 0.0
H780 H -0.00186 0.94239 0.50505 0.0
H781 H -0.00149 0.90997 0.51712 0.0
C782 C 0.46909 0.79025 0.85024 0.0
C783 C 0.46969 0.78651 0.87012 0.0
C784 C 0.45305 0.79529 0.8414 0.0
C785 C 0.40897 0.81311 0.85289 0.0
H786 H 0.39203 0.78879 0.79998 0.0
C787 C 0.33301 0.80476 0.81869 0.0
C788 C 0.33056 0.80662 0.79848 0.0
C789 C 0.35104 0.80612 0.8276 0.0
C790 C 0.39674 0.79599 0.81463 0.0
H791 H 0.45397 0.78513 0.89632 0.0
H792 H 0.42584 0.79337 0.88079 0.0
H793 H 0.42142 0.78313 0.81507 0.0
H794 H 0.34494 0.81261 0.77198 0.0
H795 H 0.3765 0.81506 0.78757 0.0
H796 H 0.38383 0.82539 0.85259 0.0
C797 C 0.43788 0.79287 0.87211 0.0
C798 C 0.4136 0.79275 0.8233 0.0
C799 C 0.45396 0.78797 0.88098 0.0
C800 C 0.34646 0.81104 0.78758 0.0
C801 C 0.36449 0.81232 0.79646 0.0
C802 C 0.39202 0.81625 0.84425 0.0
C803 C 0.43721 0.79656 0.8522 0.0
C804 C 0.41983 0.80107 0.84262 0.0
C805 C 0.36692 0.80928 0.81642 0.0
C806 C 0.38564 0.80756 0.8251 0.0
H807 H 0.48105 0.78942 0.84151 0.0
H808 H 0.45311 0.79831 0.82611 0.0
H809 H 0.41353 0.82004 0.86767 0.0
H810 H 0.32094 0.80134 0.82741 0.0
H811 H 0.35246 0.8036 0.84298 0.0
C812 C 0.47233 0.201 0.08963 0.0
C813 C 0.47885 0.21801 0.07996 0.0
C814 C 0.47169 0.18182 0.08029 0.0
C815 C 0.48696 0.14607 0.06355 0.0
H816 H 0.47288 0.13025 0.00804 0.0
C817 C 0.50963 0.07856 0.02205 0.0
C818 C 0.49606 0.06563 0.00918 0.0
C819 C 0.50599 0.09676 0.03034 0.0
C820 C 0.47671 0.1344 0.0236 0.0
H821 H 0.4888 0.22818 0.0525 0.0
H822 H 0.48782 0.19467 0.03627 0.0
H823 H 0.46783 0.16255 0.02302 0.0
H824 H 0.46826 0.06166 0.99438 0.0
H825 H 0.46187 0.09363 0.00882 0.0
H826 H 0.49586 0.11801 0.06419 0.0
C827 C 0.48311 0.19618 0.05103 0.0
C828 C 0.47396 0.15294 0.03213 0.0
C829 C 0.48374 0.21539 0.06037 0.0
C830 C 0.47895 0.0714 0.0043 0.0
C831 C 0.47532 0.08968 0.01252 0.0
C832 C 0.48976 0.12761 0.05503 0.0
C833 C 0.47755 0.17921 0.06109 0.0
C834 C 0.47921 0.15904 0.05217 0.0
C835 C 0.48874 0.10246 0.02578 0.0
C836 C 0.48487 0.12167 0.03492 0.0
H837 H 0.46829 0.20248 0.10466 0.0
H838 H 0.46701 0.16903 0.08829 0.0
H839 H 0.49137 0.15041 0.07897 0.0
H840 H 0.5231 0.07463 0.02571 0.0
H841 H 0.51675 0.10645 0.04021 0.0
C842 C 0.07522 0.29179 0.3287 0.0
C843 C 0.06581 0.27444 0.3362 0.0
C844 C 0.09189 0.29165 0.31928 0.0
C845 C 0.13106 0.26436 0.31771 0.0
H846 H 0.1453 0.29487 0.27383 0.0
C847 C 0.20058 0.26184 0.28195 0.0
C848 C 0.21153 0.28037 0.27866 0.0
C849 C 0.1819 0.26046 0.28668 0.0
C850 C 0.14153 0.28637 0.28616 0.0
H851 H 0.06591 0.24305 0.33868 0.0
H852 H 0.09475 0.24271 0.32192 0.0
H853 H 0.11386 0.29326 0.28586 0.0
H854 H 0.21118 0.31186 0.27702 0.0
H855 H 0.17853 0.30943 0.28546 0.0
H856 H 0.15869 0.25761 0.31818 0.0
C857 C 0.08952 0.25656 0.32375 0.0
C858 C 0.12355 0.28545 0.29305 0.0
C859 C 0.07293 0.25673 0.33327 0.0
C860 C 0.20316 0.29737 0.27953 0.0
C861 C 0.18442 0.29597 0.28425 0.0
C862 C 0.14895 0.26522 0.3108 0.0
C863 C 0.09944 0.27414 0.31706 0.0
C864 C 0.11815 0.27448 0.30896 0.0
C865 C 0.17371 0.27756 0.28823 0.0
C866 C 0.15442 0.27628 0.295 0.0
H867 H 0.0701 0.30569 0.33071 0.0
H868 H 0.09925 0.30549 0.31445 0.0
H869 H 0.12755 0.25615 0.33027 0.0
H870 H 0.20648 0.24839 0.28123 0.0
H871 H 0.17391 0.246 0.28933 0.0
C872 C 0.93312 0.06905 0.19471 0.0
C873 C 0.918 0.05369 0.19776 0.0
C874 C 0.94333 0.06756 0.17798 0.0
C875 C 0.95499 0.03004 0.14104 0.0
H876 H 0.96996 0.07509 0.11088 0.0
C877 C 0.98796 0.02104 0.06673 0.0
C878 C 0.00305 0.03607 0.06302 0.0
C879 C 0.97745 0.02368 0.083 0.0
C880 C 0.96606 0.06244 0.11929 0.0
H881 H 0.90146 0.02496 0.1854 0.0
H882 H 0.91919 0.02246 0.15627 0.0
H883 H 0.9518 0.07905 0.13969 0.0
H884 H 0.01914 0.06555 0.07334 0.0
H885 H 0.00101 0.07006 0.10207 0.0
H886 H 0.9693 0.01344 0.12084 0.0
C887 C 0.92332 0.03551 0.16692 0.0
C888 C 0.95566 0.06471 0.13576 0.0
C889 C 0.9131 0.03702 0.18357 0.0
C890 C 0.00753 0.05376 0.07588 0.0
C891 C -0.00294 0.05639 0.09222 0.0
C892 C 0.96541 0.02778 0.12465 0.0
C893 C 0.93865 0.05066 0.16404 0.0
C894 C 0.94994 0.04849 0.14673 0.0
C895 C 0.98193 0.04135 0.09598 0.0
C896 C 0.97099 0.04392 0.11352 0.0
H897 H 0.93723 0.08209 0.20537 0.0
H898 H 0.95517 0.07941 0.17619 0.0
H899 H 0.95108 0.01737 0.14943 0.0
H900 H 0.98433 0.00718 0.05711 0.0
H901 H 0.96574 0.01191 0.08534 0.0
C902 C 0.29308 0.69105 0.46403 0.0
C903 C 0.27585 0.68672 0.47281 0.0
C904 C 0.2958 0.70525 0.45047 0.0
C905 C 0.27517 0.74593 0.43037 0.0
H906 H 0.29729 0.72936 0.38259 0.0
C907 C 0.25618 0.76732 0.35387 0.0
C908 C 0.27018 0.77017 0.34039 0.0
C909 C 0.26046 0.76232 0.37268 0.0
C910 C 0.29146 0.73448 0.39599 0.0
H911 H 0.24813 0.69419 0.47465 0.0
H912 H 0.25265 0.71844 0.45061 0.0
H913 H 0.2981 0.71024 0.41077 0.0
H914 H 0.2998 0.77127 0.33617 0.0
H915 H 0.30727 0.76232 0.3691 0.0
H916 H 0.2676 0.76953 0.415 0.0
C917 C 0.26424 0.71126 0.45448 0.0
C918 C 0.29193 0.72351 0.41218 0.0
C919 C 0.26158 0.69719 0.46813 0.0
C920 C 0.28876 0.7691 0.34633 0.0
C921 C 0.29301 0.76392 0.36511 0.0
C922 C 0.27458 0.75682 0.4141 0.0
C923 C 0.28131 0.7153 0.44531 0.0
C924 C 0.2833 0.72876 0.42936 0.0
C925 C 0.27878 0.75992 0.37824 0.0
C926 C 0.28227 0.75085 0.39658 0.0
H927 H 0.30442 0.68338 0.46752 0.0
H928 H 0.30921 0.70821 0.44388 0.0
H929 H 0.26876 0.75062 0.44355 0.0
H930 H 0.24176 0.76811 0.3496 0.0
H931 H 0.24916 0.75913 0.38242 0.0
C932 C 0.56396 0.96872 0.6962 0.0
C933 C 0.57942 0.98401 0.70285 0.0
C934 C 0.55302 0.97006 0.6791 0.0
C935 C 0.54138 0.00701 0.64673 0.0
H936 H 0.52605 0.96116 0.60764 0.0
C937 C 0.51669 0.01535 0.56774 0.0
C938 C 0.50066 0.00194 0.55913 0.0
C939 C 0.525 0.01223 0.58571 0.0
C940 C 0.53002 0.97401 0.61856 0.0
H941 H 0.59568 0.01257 0.69665 0.0
H942 H 0.57682 0.01475 0.66682 0.0
H943 H 0.54305 0.95741 0.63849 0.0
H944 H 0.4808 0.97466 0.5623 0.0
H945 H 0.49544 0.96913 0.59398 0.0
H946 H 0.52872 0.0237 0.62671 0.0
C947 C 0.57291 0.0019 0.67496 0.0
C948 C 0.53973 0.97187 0.6362 0.0
C949 C 0.5838 0.00057 0.692 0.0
C950 C 0.49316 0.98521 0.5687 0.0
C951 C 0.50156 0.98202 0.58672 0.0
C952 C 0.53176 0.00915 0.62913 0.0
C953 C 0.55734 0.98673 0.66837 0.0
C954 C 0.54579 0.98845 0.65031 0.0
C955 C 0.51746 0.99563 0.59546 0.0
C956 C 0.52628 0.99277 0.61472 0.0
H957 H 0.56022 0.95577 0.70425 0.0
H958 H 0.54103 0.95821 0.67444 0.0
H959 H 0.54548 0.01996 0.65751 0.0
H960 H 0.52276 0.02839 0.56067 0.0
H961 H 0.53742 0.02279 0.59195 0.0
C962 C 0.23547 0.37061 0.97025 0.0
C963 C 0.24124 0.36186 0.98677 0.0
C964 C 0.23571 0.3612 0.95126 0.0
C965 C 0.22977 0.3338 0.91291 0.0
H966 H 0.2744 0.31233 0.90143 0.0
C967 C 0.23822 0.2927 0.83714 0.0
C968 C 0.25588 0.29747 0.82922 0.0
C969 C 0.23577 0.2995 0.85657 0.0
C970 C 0.26189 0.31834 0.90439 0.0
H971 H 0.25103 0.33593 0.99631 0.0
H972 H 0.25131 0.31944 0.96313 0.0
H973 H 0.27058 0.32578 0.93498 0.0
H974 H 0.28482 0.31309 0.83562 0.0
H975 H 0.28047 0.32507 0.86949 0.0
H976 H 0.22132 0.32684 0.88221 0.0
C977 C 0.24686 0.33373 0.96489 0.0
C978 C 0.25959 0.32581 0.92365 0.0
C979 C 0.24657 0.34312 0.98391 0.0
C980 C 0.27104 0.30912 0.84123 0.0
C981 C 0.26858 0.31589 0.86069 0.0
C982 C 0.23205 0.32627 0.89365 0.0
C983 C 0.24175 0.34284 0.94835 0.0
C984 C 0.24357 0.33378 0.9281 0.0
C985 C 0.2509 0.31118 0.86856 0.0
C986 C 0.24821 0.31861 0.88914 0.0
H987 H 0.23126 0.38503 0.97193 0.0
H988 H 0.23183 0.36869 0.93883 0.0
H989 H 0.21721 0.33969 0.9159 0.0
H990 H 0.22624 0.28368 0.82837 0.0
H991 H 0.22203 0.29541 0.86227 0.0
C992 C 0.93524 0.017 0.2863 0.0
C993 C 0.92134 0.02882 0.28585 0.0
C994 C 0.94343 0.01345 0.30427 0.0
C995 C 0.94852 0.03104 0.35786 0.0
H996 H 0.95654 0.97724 0.36356 0.0
C997 C 0.95924 0.00415 0.43359 0.0
C998 C 0.97576 0.9966 0.43662 0.0
C999 C 0.95276 0.00669 0.41461 0.0
C1000 C 0.95445 0.99233 0.36209 0.0
H1001 H 0.90551 0.04664 0.30389 0.0
H1002 H 0.91935 0.0401 0.33508 0.0
H1003 H 0.94599 0.98567 0.33139 0.0
H1004 H -0.00218 0.98456 0.42225 0.0
H1005 H 0.98617 0.98862 0.38883 0.0
H1006 H 0.95639 0.03746 0.38871 0.0
C1007 C 0.92428 0.03385 0.32163 0.0
C1008 C 0.94855 0.99724 0.34368 0.0
C1009 C 0.91625 0.03754 0.30369 0.0
C1010 C 0.98502 0.9904 0.42026 0.0
C1011 C 0.97838 0.99272 0.4012 0.0
C1012 C 0.95415 0.02605 0.37626 0.0
C1013 C 0.93779 0.02154 0.32217 0.0
C1014 C 0.94532 0.01662 0.34139 0.0
C1015 C 0.96256 0.00151 0.3983 0.0
C1016 C 0.95698 0.00662 0.37859 0.0
H1017 H 0.93954 0.01015 0.27277 0.0
H1018 H 0.95405 0.00422 0.30413 0.0
H1019 H 0.94662 0.04622 0.35659 0.0
H1020 H 0.95182 0.00903 0.44595 0.0
H1021 H 0.94036 0.01324 0.4127 0.0
C1022 C 0.29208 0.7029 0.56475 0.0
C1023 C 0.28261 0.68311 0.55928 0.0
C1024 C 0.28906 0.71298 0.58269 0.0
C1025 C 0.27349 0.70381 0.63185 0.0
H1026 H 0.26778 0.7593 0.63543 0.0
C1027 C 0.25814 0.74427 0.70484 0.0
C1028 C 0.26884 0.76359 0.70989 0.0
C1029 C 0.2578 0.73487 0.68578 0.0
C1030 C 0.26948 0.74385 0.63468 0.0
H1031 H 0.26243 0.6584 0.56824 0.0
H1032 H 0.2572 0.676 0.5995 0.0
H1033 H 0.27157 0.74197 0.60342 0.0
H1034 H 0.287 0.78858 0.69895 0.0
H1035 H 0.28672 0.77205 0.66572 0.0
H1036 H 0.2718 0.7057 0.66306 0.0
C1037 C 0.26706 0.68367 0.59 0.0
C1038 C 0.27166 0.73394 0.61637 0.0
C1039 C 0.27002 0.67363 0.57206 0.0
C1040 C 0.27865 0.77365 0.69541 0.0
C1041 C 0.27839 0.76422 0.67636 0.0
C1042 C 0.27138 0.71371 0.65013 0.0
C1043 C 0.27657 0.70342 0.59552 0.0
C1044 C 0.27377 0.71386 0.6148 0.0
C1045 C 0.26824 0.74458 0.67143 0.0
C1046 C 0.26945 0.73387 0.65178 0.0
H1047 H 0.30185 0.71063 0.55521 0.0
H1048 H 0.29674 0.72814 0.58666 0.0
H1049 H 0.27536 0.68842 0.63113 0.0
H1050 H 0.2504 0.73621 0.71574 0.0
H1051 H 0.24959 0.71987 0.68235 0.0
C1052 C 0.60097 0.98653 0.82577 0.0
C1053 C 0.5956 0.98168 0.80562 0.0
C1054 C 0.58847 0.98041 0.83989 0.0
C1055 C 0.53797 0.96785 0.84609 0.0
H1056 H 0.55573 0.95655 0.89753 0.0
C1057 C 0.515 0.96285 0.93175 0.0
C1058 C 0.50811 0.98075 0.93373 0.0
C1059 C 0.52164 0.9564 0.9139 0.0
C1060 C 0.55032 0.9592 0.88315 0.0
H1061 H 0.57317 0.96591 0.78447 0.0
H1062 H 0.55134 0.95515 0.80923 0.0
H1063 H 0.57634 0.95687 0.87052 0.0
H1064 H 0.50124 0.00508 0.91839 0.0
H1065 H 0.51307 0.99413 0.88741 0.0
H1066 H 0.51207 0.97059 0.85886 0.0
C1067 C 0.56516 0.96388 0.81406 0.0
C1068 C 0.56227 0.95966 0.86773 0.0
C1069 C 0.57768 0.97001 0.7999 0.0
C1070 C 0.50655 0.99125 0.91723 0.0
C1071 C 0.51322 0.98486 0.89942 0.0
C1072 C 0.52598 0.96731 0.86151 0.0
C1073 C 0.57033 0.96926 0.83421 0.0
C1074 C 0.5565 0.96482 0.84928 0.0
C1075 C 0.52152 0.9678 0.89777 0.0
C1076 C 0.53231 0.9638 0.88042 0.0
H1077 H 0.61467 0.99548 0.83067 0.0
H1078 H 0.5928 0.98511 0.85527 0.0
H1079 H 0.53309 0.97189 0.83205 0.0
H1080 H 0.51621 0.95441 0.94427 0.0
H1081 H 0.52766 0.94302 0.913 0.0
C1082 C 0.22252 0.35752 0.08567 0.0
C1083 C 0.23734 0.37225 0.0807 0.0
C1084 C 0.22433 0.34787 0.10265 0.0
C1085 C 0.25073 0.35368 0.15092 0.0
H1086 H 0.23595 0.29591 0.14812 0.0
C1087 C 0.27046 0.30895 0.21375 0.0
C1088 C 0.25719 0.29237 0.21795 0.0
C1089 C 0.26736 0.31899 0.19735 0.0
C1090 C 0.23988 0.31208 0.14926 0.0
H1091 H 0.26566 0.38847 0.08969 0.0
H1092 H 0.26877 0.37167 0.1193 0.0
H1093 H 0.2316 0.31287 0.11885 0.0
H1094 H 0.23022 0.27334 0.20854 0.0
H1095 H 0.22459 0.29104 0.18003 0.0
H1096 H 0.25891 0.35296 0.18133 0.0
C1097 C 0.25572 0.36766 0.11013 0.0
C1098 C 0.23742 0.32178 0.13246 0.0
C1099 C 0.25397 0.37718 0.09309 0.0
C1100 C 0.24071 0.28604 0.20555 0.0
C1101 C 0.23756 0.29613 0.18918 0.0
C1102 C 0.25308 0.344 0.16775 0.0
C1103 C 0.24094 0.35289 0.11508 0.0
C1104 C 0.24295 0.34266 0.13308 0.0
C1105 C 0.25089 0.31267 0.18482 0.0
C1106 C 0.24781 0.32306 0.16709 0.0
H1107 H 0.20952 0.35338 0.07643 0.0
H1108 H 0.21265 0.33665 0.10618 0.0
H1109 H 0.25487 0.36983 0.1519 0.0
H1110 H 0.2834 0.31398 0.22298 0.0
H1111 H 0.27807 0.33146 0.19428 0.0
C1112 C 0.20384 0.95156 0.02332 0.0
C1113 C 0.20609 0.94075 0.00539 0.0
C1114 C 0.19239 0.96586 0.02394 0.0
C1115 C 0.16723 0.99551 0.9924 0.0
H1116 H 0.13458 0.995 0.0357 0.0
C1117 C 0.09544 0.02003 0.99027 0.0
C1118 C 0.08969 0.02872 0.00778 0.0
C1119 C 0.11293 0.0143 0.99 0.0
C1120 C 0.14386 0.99567 0.02372 0.0
H1121 H 0.19833 0.93659 0.974 0.0
H1122 H 0.17777 0.96102 0.97518 0.0
H1123 H 0.15853 0.97454 0.03528 0.0
H1124 H 0.09815 0.03986 0.03824 0.0
H1125 H 0.12881 0.02985 0.03778 0.0
H1126 H 0.1517 0.01598 0.98042 0.0
C1127 C 0.18522 0.95885 0.9887 0.0
C1128 C 0.15762 0.98392 0.02347 0.0
C1129 C 0.19687 0.94471 0.98805 0.0
C1130 C 0.10225 0.03306 0.02459 0.0
C1131 C 0.11972 0.02726 0.02435 0.0
C1132 C 0.15331 0.00718 0.99258 0.0
C1133 C 0.18273 0.96949 0.0067 0.0
C1134 C 0.16928 0.98342 0.00766 0.0
C1135 C 0.1249 0.01713 0.00726 0.0
C1136 C 0.14131 0.00712 0.00811 0.0
H1137 H 0.21098 0.94904 0.0369 0.0
H1138 H 0.19108 0.97403 0.03799 0.0
H1139 H 0.17619 0.99575 0.98017 0.0
H1140 H 0.086 0.01661 0.97707 0.0
H1141 H 0.1165 0.00643 0.97664 0.0
C1142 C 0.69656 0.63263 0.01727 0.0
C1143 C 0.7102 0.6263 0.00563 0.0
C1144 C 0.67873 0.62058 0.01752 0.0
C1145 C 0.64585 0.57871 0.9889 0.0
H1146 H 0.6214 0.57496 0.03802 0.0
C1147 C 0.57443 0.52615 0.99365 0.0
C1148 C 0.56093 0.53483 0.00348 0.0
C1149 C 0.59328 0.53593 0.99507 0.0
C1150 C 0.62802 0.57594 0.02418 0.0
H1151 H 0.71584 0.6023 0.9851 0.0
H1152 H 0.68482 0.58119 0.98571 0.0
H1153 H 0.65305 0.59499 0.03789 0.0
H1154 H 0.55655 0.5601 0.02307 0.0
H1155 H 0.58944 0.57718 0.02558 0.0
H1156 H 0.62078 0.55978 0.97518 0.0
C1157 C 0.6878 0.5956 0.99445 0.0
C1158 C 0.64612 0.58745 0.02408 0.0
C1159 C 0.70561 0.60768 0.99417 0.0
C1160 C 0.56669 0.55305 0.01536 0.0
C1161 C 0.58554 0.56279 0.01686 0.0
C1162 C 0.62779 0.56716 0.98901 0.0
C1163 C 0.67416 0.6019 0.00616 0.0
C1164 C 0.65518 0.58912 0.00641 0.0
C1165 C 0.59897 0.55452 0.00643 0.0
C1166 C 0.61861 0.56578 0.00662 0.0
H1167 H 0.69962 0.64693 0.02623 0.0
H1168 H 0.66845 0.62603 0.02645 0.0
H1169 H 0.6523 0.5799 0.97499 0.0
H1170 H 0.57035 0.51205 0.98446 0.0
H1171 H 0.60337 0.52906 0.9871 0.0
C1172 C 0.65798 0.43921 0.24445 0.0
C1173 C 0.66428 0.45515 0.25917 0.0
C1174 C 0.66847 0.42426 0.24086 0.0
C1175 C 0.71568 0.41199 0.24936 0.0
H1176 H 0.68765 0.35734 0.24339 0.0
C1177 C 0.74925 0.3426 0.25846 0.0
C1178 C 0.74141 0.32474 0.24668 0.0
C1179 C 0.74136 0.35966 0.25737 0.0
C1180 C 0.69569 0.37251 0.24467 0.0
H1181 H 0.68676 0.46815 0.28139 0.0
H1182 H 0.70495 0.44184 0.27531 0.0
H1183 H 0.67082 0.3849 0.24664 0.0
H1184 H 0.7201 0.3112 0.22344 0.0
H1185 H 0.70658 0.34099 0.22133 0.0
H1186 H 0.74061 0.39944 0.24776 0.0
C1187 C 0.692 0.44105 0.26638 0.0
C1188 C 0.68603 0.38832 0.24656 0.0
C1189 C 0.68151 0.45604 0.26996 0.0
C1190 C 0.72631 0.32464 0.23293 0.0
C1191 C 0.7185 0.34169 0.23177 0.0
C1192 C 0.72538 0.39612 0.24746 0.0
C1193 C 0.68548 0.42488 0.25194 0.0
C1194 C 0.6959 0.40823 0.24905 0.0
C1195 C 0.72555 0.35919 0.24441 0.0
C1196 C 0.71547 0.3762 0.2452 0.0
H1197 H 0.64485 0.43816 0.23575 0.0
H1198 H 0.66322 0.41215 0.22943 0.0
H1199 H 0.72366 0.42719 0.25103 0.0
H1200 H 0.76089 0.34317 0.26922 0.0
H1201 H 0.74706 0.37288 0.26738 0.0
C1202 C 0.8089 0.44088 0.55164 0.0
C1203 C 0.79933 0.4294 0.53476 0.0
C1204 C 0.82847 0.44733 0.55248 0.0
C1205 C 0.87093 0.43642 0.52923 0.0
H1206 H 0.89306 0.49151 0.54805 0.0
C1207 C 0.94501 0.47332 0.51106 0.0
C1208 C 0.9568 0.48548 0.52618 0.0
C1209 C 0.9261 0.46614 0.51385 0.0
C1210 C 0.88711 0.47601 0.543 0.0
H1211 H 0.80277 0.41573 0.50553 0.0
H1212 H 0.83665 0.4271 0.50694 0.0
H1213 H 0.85933 0.47937 0.5501 0.0
H1214 H 0.95787 0.49976 0.55607 0.0
H1215 H 0.92476 0.48717 0.56087 0.0
H1216 H 0.89858 0.43314 0.52177 0.0
C1217 C 0.82916 0.43088 0.51965 0.0
C1218 C 0.86782 0.46906 0.5442 0.0
C1219 C 0.80969 0.42448 0.5188 0.0
C1220 C 0.94919 0.4904 0.54411 0.0
C1221 C 0.93021 0.48328 0.54686 0.0
C1222 C 0.89016 0.44337 0.52799 0.0
C1223 C 0.83879 0.44234 0.53649 0.0
C1224 C 0.85948 0.44929 0.53698 0.0
C1225 C 0.91851 0.471 0.53178 0.0
C1226 C 0.89839 0.46332 0.53453 0.0
H1227 H 0.80131 0.4449 0.56418 0.0
H1228 H 0.83553 0.45604 0.5657 0.0
H1229 H 0.86498 0.42099 0.52393 0.0
H1230 H 0.95036 0.46925 0.49705 0.0
H1231 H 0.91734 0.45695 0.50185 0.0
C1232 C 0.34794 0.08709 0.28824 0.0
C1233 C 0.35289 0.07767 0.27068 0.0
C1234 C 0.33519 0.10005 0.28772 0.0
C1235 C 0.31597 0.13146 0.25392 0.0
H1236 H 0.28224 0.1378 0.2954 0.0
C1237 C 0.26958 0.19018 0.25277 0.0
C1238 C 0.27216 0.20349 0.27001 0.0
C1239 C 0.27548 0.1719 0.25267 0.0
C1240 C 0.29155 0.1361 0.2837 0.0
H1241 H 0.3478 0.07364 0.23889 0.0
H1242 H 0.32515 0.09574 0.23799 0.0
H1243 H 0.30038 0.11101 0.29525 0.0
H1244 H 0.28159 0.20773 0.30098 0.0
H1245 H 0.29194 0.1757 0.30082 0.0
H1246 H 0.30732 0.1566 0.2425 0.0
C1247 C 0.3315 0.09365 0.25214 0.0
C1248 C 0.30201 0.12087 0.28365 0.0
C1249 C 0.34444 0.08093 0.25264 0.0
C1250 C 0.27953 0.1977 0.28748 0.0
C1251 C 0.28534 0.17936 0.28742 0.0
C1252 C 0.3054 0.14649 0.25387 0.0
C1253 C 0.32696 0.10364 0.26964 0.0
C1254 C 0.31458 0.1186 0.26893 0.0
C1255 C 0.28396 0.16661 0.26984 0.0
C1256 C 0.29332 0.14916 0.26891 0.0
H1257 H 0.35427 0.08486 0.30236 0.0
H1258 H 0.33225 0.10772 0.30146 0.0
H1259 H 0.32577 0.13045 0.24259 0.0
H1260 H 0.26381 0.19428 0.23914 0.0
H1261 H 0.27407 0.16221 0.23899 0.0
C1262 C 0.316 0.10874 0.46535 0.0
C1263 C 0.30459 0.11125 0.48107 0.0
C1264 C 0.32865 0.09565 0.46596 0.0
C1265 C 0.35436 0.07123 0.50155 0.0
H1266 H 0.36592 0.04074 0.45457 0.0
C1267 C 0.4087 0.02041 0.50538 0.0
C1268 C 0.42267 0.02382 0.49191 0.0
C1269 C 0.39211 0.02781 0.50291 0.0
C1270 C 0.36281 0.04918 0.46779 0.0
H1271 H 0.297 0.10148 0.50943 0.0
H1272 H 0.31873 0.07838 0.5103 0.0
H1273 H 0.34092 0.06017 0.4526 0.0
H1274 H 0.42993 0.03648 0.46472 0.0
H1275 H 0.40094 0.04941 0.46039 0.0
H1276 H 0.37632 0.06043 0.5167 0.0
C1277 C 0.31827 0.08686 0.49771 0.0
C1278 C 0.34857 0.06037 0.46667 0.0
C1279 C 0.30576 0.10006 0.49718 0.0
C1280 C 0.41936 0.0337 0.47534 0.0
C1281 C 0.40273 0.041 0.47281 0.0
C1282 C 0.36847 0.05995 0.50269 0.0
C1283 C 0.33006 0.08468 0.48224 0.0
C1284 C 0.34433 0.07173 0.4835 0.0
C1285 C 0.38919 0.03864 0.48688 0.0
C1286 C 0.373 0.049 0.4858 0.0
H1287 H 0.31544 0.11717 0.45274 0.0
H1288 H 0.33769 0.09457 0.45391 0.0
H1289 H 0.35175 0.08008 0.51474 0.0
H1290 H 0.4109 0.01277 0.51825 0.0
H1291 H 0.38179 0.02554 0.51384 0.0
C1292 C 0.68207 0.57212 0.30027 0.0
C1293 C 0.6653 0.56878 0.28814 0.0
C1294 C 0.69316 0.59135 0.30388 0.0
C1295 C 0.69174 0.64496 0.29924 0.0
H1296 H 0.74569 0.65051 0.29554 0.0
C1297 C 0.73833 0.71347 0.27328 0.0
C1298 C 0.7548 0.72227 0.28492 0.0
C1299 C 0.72763 0.69539 0.27751 0.0
C1300 C 0.73068 0.64915 0.29693 0.0
H1301 H 0.64696 0.58294 0.27039 0.0
H1302 H 0.66642 0.61609 0.27617 0.0
H1303 H 0.72628 0.61725 0.29615 0.0
H1304 H 0.77334 0.719 0.3098 0.0
H1305 H 0.75481 0.68675 0.31679 0.0
H1306 H 0.6961 0.67678 0.29878 0.0
C1307 C 0.67085 0.60411 0.28337 0.0
C1308 C 0.71956 0.63014 0.29734 0.0
C1309 C 0.65975 0.58501 0.27989 0.0
C1310 C 0.76062 0.71252 0.30067 0.0
C1311 C 0.75008 0.69415 0.30467 0.0
C1312 C 0.70281 0.66387 0.29855 0.0
C1313 C 0.68772 0.60754 0.29535 0.0
C1314 C 0.69988 0.62779 0.29792 0.0
C1315 C 0.73343 0.68556 0.29318 0.0
C1316 C 0.72228 0.66604 0.29688 0.0
H1317 H 0.68665 0.5599 0.30692 0.0
H1318 H 0.70599 0.59353 0.31332 0.0
H1319 H 0.6767 0.64374 0.30022 0.0
H1320 H 0.73371 0.72051 0.26084 0.0
H1321 H 0.71499 0.68886 0.26826 0.0
C1322 C 0.86054 0.48405 0.74548 0.0
C1323 C 0.87978 0.48629 0.74215 0.0
C1324 C 0.84936 0.46505 0.7453 0.0
C1325 C 0.84644 0.4115 0.72935 0.0
H1326 H 0.81364 0.40407 0.77236 0.0
C1327 C 0.79204 0.33863 0.73418 0.0
C1328 C 0.79083 0.33138 0.75279 0.0
C1329 C 0.80277 0.35748 0.73212 0.0
C1330 C 0.8228 0.40588 0.76032 0.0
H1331 H 0.90223 0.4703 0.7353 0.0
H1332 H 0.88264 0.43701 0.7351 0.0
H1333 H 0.83273 0.43694 0.76968 0.0
H1334 H 0.80003 0.33834 0.78382 0.0
H1335 H 0.81874 0.3711 0.78015 0.0
H1336 H 0.83669 0.38027 0.72024 0.0
C1337 C 0.87623 0.45002 0.73775 0.0
C1338 C 0.83357 0.42475 0.75866 0.0
C1339 C 0.88746 0.46908 0.73796 0.0
C1340 C 0.80056 0.34343 0.76927 0.0
C1341 C 0.81124 0.36228 0.7672 0.0
C1342 C 0.83558 0.3926 0.73098 0.0
C1343 C 0.85714 0.44784 0.74177 0.0
C1344 C 0.84553 0.42777 0.74318 0.0
C1345 C 0.81245 0.3695 0.74862 0.0
C1346 C 0.82372 0.38959 0.74655 0.0
H1347 H 0.85412 0.49699 0.7486 0.0
H1348 H 0.83462 0.46384 0.7481 0.0
H1349 H 0.85545 0.41343 0.71721 0.0
H1350 H 0.78473 0.32976 0.72116 0.0
H1351 H 0.8033 0.36274 0.71764 0.0
C1352 C 0.04337 0.83648 0.09536 0.0
C1353 C 0.027 0.82769 0.10392 0.0
C1354 C 0.04268 0.85102 0.08238 0.0
C1355 C 0.00987 0.87205 0.05089 0.0
H1356 H 0.04783 0.9207 0.06037 0.0
C1357 C 0.03209 0.95552 0.02159 0.0
C1358 C 0.01442 0.96121 0.02165 0.0
C1359 C 0.03436 0.93724 0.02799 0.0
C1360 C 0.03733 0.90708 0.05722 0.0
H1361 H -0.00299 0.827 0.10532 0.0
H1362 H 0.99589 0.85248 0.0829 0.0
H1363 H 0.0506 0.89233 0.07861 0.0
H1364 H 0.98507 0.95168 0.02747 0.0
H1365 H 0.9891 0.91999 0.03884 0.0
H1366 H 0.99633 0.88705 0.02987 0.0
C1367 C 0.0092 0.84797 0.08601 0.0
C1368 C 0.03891 0.89083 0.0677 0.0
C1369 C 0.00989 0.83349 0.099 0.0
C1370 C -0.00111 0.94781 0.0273 0.0
C1371 C 0.00117 0.92955 0.0337 0.0
C1372 C 0.0083 0.88831 0.04038 0.0
C1373 C 0.02561 0.85699 0.07767 0.0
C1374 C 0.02499 0.87331 0.06495 0.0
C1375 C 0.01901 0.92428 0.03454 0.0
C1376 C 0.0218 0.90615 0.04375 0.0
H1377 H 0.05675 0.83226 0.09878 0.0
H1378 H 0.05552 0.8576 0.07605 0.0
H1379 H -0.00091 0.8586 0.04823 0.0
H1380 H 0.04432 0.96539 0.01714 0.0
H1381 H 0.04821 0.93344 0.02818 0.0
C1382 C 0.93969 0.23719 0.82592 0.0
C1383 C 0.93924 0.2367 0.84642 0.0
C1384 C 0.92332 0.23764 0.81443 0.0
C1385 C 0.87136 0.22823 0.8144 0.0
H1386 H 0.87543 0.26716 0.77617 0.0
C1387 C 0.80674 0.25363 0.78 0.0
C1388 C 0.80663 0.25686 0.76005 0.0
C1389 C 0.82282 0.24962 0.78969 0.0
C1390 C 0.87409 0.256 0.78657 0.0
H1391 H 0.92116 0.23568 0.87084 0.0
H1392 H 0.89264 0.23661 0.8508 0.0
H1393 H 0.90368 0.26245 0.79453 0.0
H1394 H 0.82278 0.25772 0.73421 0.0
H1395 H 0.85097 0.25049 0.75105 0.0
H1396 H 0.84171 0.22198 0.8066 0.0
C1397 C 0.90561 0.23648 0.84359 0.0
C1398 C 0.89028 0.2533 0.79708 0.0
C1399 C 0.92198 0.23606 0.85509 0.0
C1400 C 0.82265 0.25549 0.74971 0.0
C1401 C 0.83877 0.25147 0.75937 0.0
C1402 C 0.85516 0.23093 0.80387 0.0
C1403 C 0.90616 0.23756 0.82318 0.0
C1404 C 0.88907 0.23952 0.81124 0.0
C1405 C 0.83906 0.24861 0.7795 0.0
C1406 C 0.85633 0.24498 0.78998 0.0
H1407 H 0.95275 0.23761 0.81878 0.0
H1408 H 0.92412 0.23818 0.79869 0.0
H1409 H 0.87002 0.2173 0.82502 0.0
H1410 H 0.7943 0.25387 0.78804 0.0
H1411 H 0.8226 0.24758 0.80522 0.0
C1412 C 0.50345 0.22009 0.61658 0.0
C1413 C 0.5093 0.23711 0.60671 0.0
C1414 C 0.50206 0.2009 0.60689 0.0
C1415 C 0.52048 0.17413 0.56541 0.0
H1416 H 0.47857 0.13131 0.57208 0.0
C1417 C 0.52029 0.09091 0.54069 0.0
C1418 C 0.50343 0.07938 0.53153 0.0
C1419 C 0.52084 0.11043 0.54918 0.0
C1420 C 0.4903 0.14315 0.56997 0.0
H1421 H 0.5179 0.24731 0.57878 0.0
H1422 H 0.5154 0.21384 0.56191 0.0
H1423 H 0.47928 0.1649 0.58808 0.0
H1424 H 0.474 0.07951 0.52381 0.0
H1425 H 0.47505 0.11353 0.53856 0.0
H1426 H 0.53145 0.15241 0.54721 0.0
C1427 C 0.5121 0.21535 0.5772 0.0
C1428 C 0.49079 0.16233 0.57928 0.0
C1429 C 0.51341 0.23452 0.58685 0.0
C1430 C 0.48722 0.08792 0.5308 0.0
C1431 C 0.48777 0.10738 0.53935 0.0
C1432 C 0.52003 0.15494 0.55618 0.0
C1433 C 0.50656 0.19834 0.58716 0.0
C1434 C 0.50589 0.17802 0.57711 0.0
C1435 C 0.50454 0.1188 0.54875 0.0
C1436 C 0.50495 0.13924 0.55837 0.0
H1437 H 0.50019 0.22158 0.63189 0.0
H1438 H 0.4979 0.18807 0.615 0.0
H1439 H 0.53239 0.18588 0.56362 0.0
H1440 H 0.53303 0.08481 0.54152 0.0
H1441 H 0.53394 0.11881 0.55646 0.0
C1442 C 0.54484 0.74468 0.32326 0.0
C1443 C 0.5466 0.76017 0.33868 0.0
C1444 C 0.56002 0.74279 0.31186 0.0
C1445 C 0.60503 0.77088 0.29761 0.0
H1446 H 0.61858 0.71867 0.28871 0.0
C1447 C 0.67035 0.76133 0.25679 0.0
C1448 C 0.68256 0.75136 0.26681 0.0
C1449 C 0.65181 0.7601 0.262 0.0
C1450 C 0.61491 0.73332 0.29101 0.0
H1451 H 0.56554 0.78601 0.354 0.0
H1452 H 0.592 0.7827 0.33413 0.0
H1453 H 0.59 0.722 0.30523 0.0
H1454 H 0.6848 0.73123 0.28915 0.0
H1455 H 0.65244 0.72916 0.2984 0.0
H1456 H 0.63023 0.78238 0.28412 0.0
C1457 C 0.57885 0.7721 0.33077 0.0
C1458 C 0.59849 0.7352 0.30032 0.0
C1459 C 0.56372 0.77392 0.34223 0.0
C1460 C 0.67564 0.73908 0.28122 0.0
C1461 C 0.65708 0.73784 0.28644 0.0
C1462 C 0.62137 0.76899 0.28824 0.0
C1463 C 0.5772 0.75643 0.31556 0.0
C1464 C 0.5936 0.75408 0.30406 0.0
C1465 C 0.64517 0.74886 0.27733 0.0
C1466 C 0.62668 0.75025 0.28515 0.0
H1467 H 0.53182 0.73384 0.32012 0.0
H1468 H 0.55831 0.73067 0.30013 0.0
H1469 H 0.60149 0.78558 0.30009 0.0
H1470 H 0.67534 0.7708 0.24552 0.0
H1471 H 0.64285 0.76848 0.2545 0.0
C1472 C 0.02209 0.20353 0.41258 0.0
C1473 C 0.01656 0.22073 0.42133 0.0
C1474 C 0.02041 0.18624 0.4223 0.0
C1475 C 0.01414 0.1679 0.47156 0.0
H1476 H 0.00031 0.11639 0.4404 0.0
C1477 C 0.01871 0.09331 0.50354 0.0
C1478 C 0.00557 0.07609 0.49606 0.0
C1479 C 0.01906 0.11139 0.49537 0.0
C1480 C 0.00392 0.13062 0.44941 0.0
H1481 H 0.00484 0.23327 0.44711 0.0
H1482 H 0.00138 0.20292 0.46383 0.0
H1483 H 0.00251 0.14683 0.42429 0.0
H1484 H 0.98186 0.06453 0.47488 0.0
H1485 H 0.98202 0.09614 0.46111 0.0
H1486 H 0.01492 0.15161 0.49678 0.0
C1487 C 0.00744 0.2029 0.44966 0.0
C1488 C 0.0055 0.14814 0.44009 0.0
C1489 C 0.00932 0.22028 0.44002 0.0
C1490 C 0.99231 0.0775 0.48081 0.0
C1491 C 0.99249 0.0956 0.47282 0.0
C1492 C 0.01238 0.15035 0.48092 0.0
C1493 C 0.01293 0.18563 0.4409 0.0
C1494 C 0.01079 0.16701 0.451 0.0
C1495 C 0.00613 0.11269 0.47968 0.0
C1496 C 0.00735 0.13147 0.46995 0.0
H1497 H 0.02787 0.20344 0.39827 0.0
H1498 H 0.02515 0.17339 0.41526 0.0
H1499 H 0.01842 0.18215 0.48043 0.0
H1500 H 0.0292 0.09266 0.51521 0.0
H1501 H 0.02991 0.12413 0.5009 0.0
C1502 C 0.54582 0.25436 0.16253 0.0
C1503 C 0.54376 0.25204 0.14186 0.0
C1504 C 0.56223 0.25127 0.17238 0.0
C1505 C 0.60468 0.22868 0.16491 0.0
H1506 H 0.6242 0.26318 0.21254 0.0
C1507 C 0.68072 0.2387 0.20063 0.0
C1508 C 0.6826 0.2395 0.22126 0.0
C1509 C 0.66303 0.23753 0.19093 0.0
C1510 C 0.61878 0.25328 0.19938 0.0
H1511 H 0.55733 0.24488 0.11526 0.0
H1512 H 0.58623 0.24024 0.13238 0.0
H1513 H 0.59506 0.26726 0.19558 0.0
H1514 H 0.66752 0.23875 0.24788 0.0
H1515 H 0.63664 0.2369 0.23094 0.0
H1516 H 0.62899 0.21528 0.16849 0.0
C1517 C 0.57499 0.24386 0.14106 0.0
C1518 C 0.60204 0.25556 0.18966 0.0
C1519 C 0.55847 0.24668 0.13122 0.0
C1520 C 0.66645 0.23819 0.23196 0.0
C1521 C 0.64882 0.23725 0.2223 0.0
C1522 C 0.62159 0.22658 0.17452 0.0
C1523 C 0.57707 0.24607 0.16178 0.0
C1524 C 0.59476 0.24331 0.17228 0.0
C1525 C 0.64702 0.23736 0.20175 0.0
C1526 C 0.62877 0.23887 0.19184 0.0
H1527 H 0.53464 0.25828 0.17114 0.0
H1528 H 0.56315 0.25275 0.18833 0.0
H1529 H 0.59935 0.21874 0.15176 0.0
H1530 H 0.69299 0.2397 0.19206 0.0
H1531 H 0.66202 0.23772 0.17508 0.0
C1532 C 0.53849 0.82924 0.93429 0.0
C1533 C 0.53897 0.83199 0.91417 0.0
C1534 C 0.53994 0.84566 0.94843 0.0
C1535 C 0.55313 0.90087 0.957 0.0
H1536 H 0.51311 0.89537 0.99296 0.0
C1537 C 0.50988 0.9549 0.00293 0.0
C1538 C 0.52433 0.96876 0.0138 0.0
C1539 C 0.51373 0.93751 0.99307 0.0
C1540 C 0.52444 0.89706 0.9831 0.0
H1541 H 0.54238 0.85417 0.89318 0.0
H1542 H 0.54484 0.8828 0.91787 0.0
H1543 H 0.5172 0.86636 0.97123 0.0
H1544 H 0.55403 0.97543 0.02321 0.0
H1545 H 0.56088 0.94489 0.00562 0.0
H1546 H 0.55991 0.9318 0.96852 0.0
C1547 C 0.54342 0.86797 0.92271 0.0
C1548 C 0.52689 0.88044 0.97079 0.0
C1549 C 0.54188 0.85155 0.90856 0.0
C1550 C 0.54266 0.96485 0.01496 0.0
C1551 C 0.54659 0.94752 0.00484 0.0
C1552 C 0.55078 0.91747 0.96948 0.0
C1553 C 0.54201 0.86514 0.94274 0.0
C1554 C 0.54101 0.88226 0.95733 0.0
C1555 C 0.53214 0.93375 0.99377 0.0
C1556 C 0.53614 0.91578 0.98232 0.0
H1557 H 0.53639 0.81437 0.93911 0.0
H1558 H 0.53903 0.84308 0.96379 0.0
H1559 H 0.5642 0.90265 0.94684 0.0
H1560 H 0.49563 0.95764 0.00184 0.0
H1561 H 0.50239 0.92725 0.98444 0.0
C1562 C 0.95289 0.79671 0.68359 0.0
C1563 C 0.95508 0.77838 0.67377 0.0
C1564 C 0.93796 0.79755 0.69564 0.0
C1565 C 0.90248 0.76671 0.72284 0.0
H1566 H 0.87301 0.8073 0.714 0.0
C1567 C 0.82644 0.76175 0.74631 0.0
C1568 C 0.82011 0.77958 0.75172 0.0
C1569 C 0.8445 0.76235 0.73979 0.0
C1570 C 0.88125 0.79611 0.717 0.0
H1571 H 0.94365 0.74647 0.66938 0.0
H1572 H 0.91761 0.74798 0.69038 0.0
H1573 H 0.90175 0.80706 0.69714 0.0
H1574 H 0.82823 0.81198 0.75572 0.0
H1575 H 0.85984 0.81298 0.74481 0.0
H1576 H 0.88186 0.75563 0.74257 0.0
C1577 C 0.92748 0.76167 0.68883 0.0
C1578 C 0.89773 0.79596 0.70727 0.0
C1579 C 0.94233 0.76085 0.67668 0.0
C1580 C 0.83257 0.79796 0.75143 0.0
C1581 C 0.85068 0.79855 0.74506 0.0
C1582 C 0.88604 0.76693 0.73269 0.0
C1583 C 0.92499 0.78007 0.69824 0.0
C1584 C 0.90837 0.78109 0.70986 0.0
C1585 C 0.8567 0.78077 0.73868 0.0
C1586 C 0.87506 0.78147 0.72966 0.0
H1587 H 0.9625 0.81048 0.68171 0.0
H1588 H 0.93649 0.81191 0.70285 0.0
H1589 H 0.91054 0.75522 0.72531 0.0
H1590 H 0.8172 0.74732 0.74633 0.0
H1591 H 0.84856 0.74836 0.73481 0.0
C1592 C 0.12637 0.01569 0.85816 0.0
C1593 C 0.12193 0.00508 0.83943 0.0
C1594 C 0.11369 0.01309 0.87284 0.0
C1595 C 0.06305 0.99525 0.87951 0.0
H1596 H 0.08102 0.0026 0.93463 0.0
C1597 C 0.01549 0.98955 0.94636 0.0
C1598 C 0.01929 0.00713 0.95944 0.0
C1599 C 0.02745 0.98679 0.9313 0.0
C1600 C 0.07585 0.00041 0.91927 0.0
H1601 H 0.10105 0.98286 0.82154 0.0
H1602 H 0.07915 0.97774 0.84742 0.0
H1603 H 0.10341 0.00122 0.90929 0.0
H1604 H 0.03789 0.03598 0.96654 0.0
H1605 H 0.05916 0.03078 0.94082 0.0
H1606 H 0.0354 0.99423 0.88979 0.0
C1607 C 0.09218 0.98853 0.85063 0.0
C1608 C 0.08864 -0.00022 0.90474 0.0
C1609 C 0.10478 0.99137 0.83582 0.0
C1610 C 0.0349 0.02208 0.95695 0.0
C1611 C 0.04704 0.01915 0.94225 0.0
C1612 C 0.05021 0.99552 0.8941 0.0
C1613 C 0.09637 -0.00044 0.86926 0.0
C1614 C 0.08249 -0.00223 0.88466 0.0
C1615 C 0.04349 0.00145 0.9294 0.0
C1616 C 0.0566 -0.00139 0.91405 0.0
H1617 H 0.13942 0.02648 0.86135 0.0
H1618 H 0.11728 0.02219 0.88682 0.0
H1619 H 0.05778 0.99392 0.86425 0.0
H1620 H 0.00344 0.97786 0.94792 0.0
H1621 H 0.02445 0.97308 0.92144 0.0
C1622 C 0.74026 0.33053 0.5388 0.0
C1623 C 0.73461 0.34905 0.54235 0.0
C1624 C 0.73678 0.31617 0.55213 0.0
C1625 C 0.74136 0.2977 0.59038 0.0
H1626 H 0.69671 0.29018 0.62 0.0
C1627 C 0.72473 0.28503 0.67349 0.0
C1628 C 0.73514 0.27021 0.67699 0.0
C1629 C 0.72047 0.28892 0.6543 0.0
C1630 C 0.70921 0.29202 0.61177 0.0
H1631 H 0.72021 0.3667 0.56225 0.0
H1632 H 0.71436 0.34179 0.58562 0.0
H1633 H 0.6972 0.30829 0.59077 0.0
H1634 H 0.74819 0.24685 0.66336 0.0
H1635 H 0.74077 0.25371 0.62957 0.0
H1636 H 0.75374 0.28237 0.61187 0.0
C1637 C 0.72129 0.33825 0.57242 0.0
C1638 C 0.70951 0.30241 0.59508 0.0
C1639 C 0.7248 0.35262 0.55913 0.0
C1640 C 0.74022 0.25845 0.66098 0.0
C1641 C 0.73604 0.26242 0.6417 0.0
C1642 C 0.74107 0.28734 0.60707 0.0
C1643 C 0.72752 0.32001 0.56924 0.0
C1644 C 0.72583 0.30598 0.58464 0.0
C1645 C 0.7266 0.2781 0.63821 0.0
C1646 C 0.72525 0.28504 0.61835 0.0
H1647 H 0.74773 0.32726 0.52592 0.0
H1648 H 0.74159 0.30218 0.5492 0.0
H1649 H 0.75421 0.30034 0.58277 0.0
H1650 H 0.72054 0.29421 0.68563 0.0
H1651 H 0.71338 0.30125 0.65217 0.0
C1652 C 0.42404 0.05064 0.32117 0.0
C1653 C 0.43138 0.04104 0.3051 0.0
C1654 C 0.43272 0.05211 0.34008 0.0
C1655 C 0.47702 0.04796 0.36739 0.0
H1656 H 0.44431 0.03601 0.40974 0.0
C1657 C 0.48128 0.02049 0.44955 0.0
C1658 C 0.49757 0.03352 0.45809 0.0
C1659 C 0.47331 0.02358 0.43139 0.0
C1660 C 0.45363 0.03935 0.39806 0.0
H1661 H 0.45377 0.02579 0.29619 0.0
H1662 H 0.46873 0.02802 0.32928 0.0
H1663 H 0.43057 0.03719 0.37674 0.0
H1664 H 0.51832 0.06002 0.45457 0.0
H1665 H 0.5043 0.06553 0.42266 0.0
H1666 H 0.50008 0.04932 0.38863 0.0
C1667 C 0.45643 0.03468 0.32721 0.0
C1668 C 0.44577 0.04025 0.3792 0.0
C1669 C 0.44778 0.03327 0.30827 0.0
C1670 C 0.50575 0.04976 0.44823 0.0
C1671 C 0.49778 0.05285 0.42998 0.0
C1672 C 0.4849 0.04702 0.38628 0.0
C1673 C 0.44889 0.04395 0.34334 0.0
C1674 C 0.45736 0.04432 0.3636 0.0
C1675 C 0.4815 0.03974 0.42137 0.0
C1676 C 0.47327 0.04241 0.40174 0.0
H1677 H 0.41151 0.05693 0.31919 0.0
H1678 H 0.42674 0.0596 0.35216 0.0
H1679 H 0.48633 0.05137 0.35572 0.0
H1680 H 0.47482 0.0077 0.45674 0.0
H1681 H 0.46097 0.013 0.42498 0.0
C1682 C 0.77837 0.71257 0.05177 0.0
C1683 C 0.779 0.69221 0.04744 0.0
C1684 C 0.77856 0.72079 0.0713 0.0
C1685 C 0.79038 0.71289 0.12274 0.0
H1686 H 0.75234 0.74435 0.13503 0.0
C1687 C 0.75219 0.7421 0.19466 0.0
C1688 C 0.76795 0.7508 0.20749 0.0
C1689 C 0.75442 0.73578 0.17504 0.0
C1690 C 0.763 0.73556 0.13182 0.0
H1691 H 0.781 0.6647 0.06023 0.0
H1692 H 0.7814 0.6791 0.09426 0.0
H1693 H 0.75533 0.73208 0.10085 0.0
H1694 H 0.79845 0.75956 0.20977 0.0
H1695 H 0.80229 0.7484 0.17554 0.0
H1696 H 0.79784 0.71612 0.15376 0.0
C1697 C 0.78079 0.68869 0.08257 0.0
C1698 C 0.76485 0.72872 0.11225 0.0
C1699 C 0.78045 0.68043 0.06306 0.0
C1700 C 0.786 0.75292 0.20029 0.0
C1701 C 0.78823 0.74645 0.18071 0.0
C1702 C 0.78863 0.71988 0.1423 0.0
C1703 C 0.77955 0.70888 0.08688 0.0
C1704 C 0.77843 0.71716 0.10753 0.0
C1705 C 0.77246 0.73789 0.16786 0.0
C1706 C 0.77479 0.7311 0.14705 0.0
H1707 H 0.77727 0.72205 0.04008 0.0
H1708 H 0.77778 0.73646 0.07422 0.0
H1709 H 0.80105 0.70412 0.11951 0.0
H1710 H 0.73809 0.74027 0.19971 0.0
H1711 H 0.74203 0.72903 0.16552 0.0
C1712 C 0.08822 0.02827 0.74045 0.0
C1713 C 0.10627 0.02349 0.74099 0.0
C1714 C 0.08015 0.0332 0.72301 0.0
C1715 C 0.09233 0.05003 0.67445 0.0
H1716 H 0.04021 0.02634 0.65854 0.0
C1717 C 0.06099 0.04196 0.59438 0.0
C1718 C 0.04222 0.04398 0.59103 0.0
C1719 C 0.06891 0.043 0.61359 0.0
C1720 C 0.05469 0.03339 0.66292 0.0
H1721 H 0.12995 0.02002 0.7236 0.0
H1722 H 0.11578 0.02831 0.69321 0.0
H1723 H 0.05363 0.0209 0.69052 0.0
H1724 H 0.01723 0.04965 0.60493 0.0
H1725 H 0.03111 0.0516 0.63857 0.0
H1726 H 0.09349 0.06208 0.64659 0.0
C1727 C 0.10799 0.02861 0.70632 0.0
C1728 C 0.06238 0.03025 0.68125 0.0
C1729 C 0.11604 0.02369 0.72372 0.0
C1730 C 0.03174 0.04798 0.60715 0.0
C1731 C 0.03964 0.04897 0.62637 0.0
C1732 C 0.08464 0.05315 0.65611 0.0
C1733 C 0.08998 0.03346 0.70576 0.0
C1734 C 0.08138 0.03823 0.68706 0.0
C1735 C 0.05817 0.04603 0.62978 0.0
C1736 C 0.06583 0.04458 0.65002 0.0
H1737 H 0.08037 0.02833 0.75353 0.0
H1738 H 0.0663 0.03701 0.72307 0.0
H1739 H 0.10692 0.05671 0.67868 0.0
H1740 H 0.06935 0.03885 0.58217 0.0
H1741 H 0.08317 0.0405 0.61572 0.0
C1742 C 0.73339 0.36111 0.45164 0.0
C1743 C 0.74672 0.37913 0.45436 0.0
C1744 C 0.73278 0.34788 0.43468 0.0
C1745 C 0.76251 0.33493 0.39504 0.0
H1746 H 0.71511 0.30752 0.36794 0.0
C1747 C 0.75642 0.29833 0.3155 0.0
C1748 C 0.74395 0.27996 0.31067 0.0
C1749 C 0.75731 0.30844 0.33427 0.0
C1750 C 0.72845 0.31482 0.37555 0.0
H1751 H 0.76939 0.39773 0.44113 0.0
H1752 H 0.76807 0.37485 0.41138 0.0
H1753 H 0.71498 0.32984 0.39793 0.0
H1754 H 0.72295 0.25745 0.32168 0.0
H1755 H 0.72439 0.27533 0.35469 0.0
H1756 H 0.77595 0.32029 0.37239 0.0
C1757 C 0.75839 0.37072 0.42256 0.0
C1758 C 0.72838 0.32762 0.39269 0.0
C1759 C 0.75904 0.38391 0.43953 0.0
C1760 C 0.73269 0.27161 0.32508 0.0
C1761 C 0.73345 0.28185 0.34388 0.0
C1762 C 0.76257 0.32221 0.37789 0.0
C1763 C 0.74545 0.35242 0.42009 0.0
C1764 C 0.74542 0.33806 0.40244 0.0
C1765 C 0.74563 0.30048 0.34855 0.0
C1766 C 0.74555 0.31226 0.36782 0.0
H1767 H 0.72374 0.35695 0.46284 0.0
H1768 H 0.72274 0.33384 0.43327 0.0
H1769 H 0.77587 0.34239 0.40247 0.0
H1770 H 0.76516 0.30519 0.30461 0.0
H1771 H 0.76665 0.32289 0.33736 0.0
C1772 C 0.44507 0.05506 0.21552 0.0
C1773 C 0.43527 0.07017 0.22162 0.0
C1774 C 0.45935 0.05871 0.20265 0.0
C1775 C 0.47198 0.08702 0.16209 0.0
H1776 H 0.51736 0.06485 0.16626 0.0
C1777 C 0.51167 0.07298 0.09363 0.0
C1778 C 0.51489 0.05331 0.09109 0.0
C1779 C 0.50756 0.0811 0.11206 0.0
C1780 C 0.50481 0.07122 0.1649 0.0
H1781 H 0.43302 0.1011 0.21949 0.0
H1782 H 0.45779 0.10731 0.19638 0.0
H1783 H 0.49889 0.06784 0.19495 0.0
H1784 H 0.51765 0.02719 0.10584 0.0
H1785 H 0.51009 0.04104 0.13778 0.0
H1786 H 0.47695 0.089 0.13175 0.0
C1787 C 0.45447 0.09274 0.20179 0.0
C1788 C 0.4943 0.07299 0.18132 0.0
C1789 C 0.44032 0.08917 0.21496 0.0
C1790 C 0.51516 0.04237 0.10743 0.0
C1791 C 0.51099 0.05043 0.1258 0.0
C1792 C 0.48238 0.08508 0.14561 0.0
C1793 C 0.464 0.07747 0.19544 0.0
C1794 C 0.47737 0.0801 0.17981 0.0
C1795 C 0.50655 0.06965 0.1282 0.0
C1796 C 0.49844 0.0763 0.14661 0.0
H1797 H 0.4416 0.04031 0.22054 0.0
H1798 H 0.46627 0.04657 0.19774 0.0
H1799 H 0.45892 0.09245 0.16051 0.0
H1800 H 0.51154 0.08177 0.08122 0.0
H1801 H 0.50447 0.09605 0.11349 0.0
C1802 C 0.75029 0.70344 0.95071 0.0
C1803 C 0.76239 0.69006 0.95392 0.0
C1804 C 0.75225 0.7149 0.93476 0.0
C1805 C 0.75098 0.72635 0.89314 0.0
H1806 H 0.79972 0.74815 0.87489 0.0
C1807 C 0.75761 0.75438 0.81688 0.0
C1808 C 0.77057 0.77206 0.81505 0.0
C1809 C 0.75752 0.74519 0.83427 0.0
C1810 C 0.78601 0.74233 0.87991 0.0
H1811 H 0.78629 0.67846 0.94308 0.0
H1812 H 0.78944 0.69814 0.915 0.0
H1813 H 0.79803 0.73148 0.90507 0.0
H1814 H 0.79373 0.79394 0.82988 0.0
H1815 H 0.79342 0.77799 0.86061 0.0
H1816 H 0.73892 0.73743 0.86828 0.0
C1817 C 0.77863 0.70004 0.925 0.0
C1818 C 0.78504 0.73257 0.89708 0.0
C1819 C 0.77673 0.68866 0.94103 0.0
C1820 C 0.78362 0.78029 0.83091 0.0
C1821 C 0.78348 0.7711 0.84844 0.0
C1822 C 0.75196 0.73612 0.87606 0.0
C1823 C 0.76628 0.71316 0.92155 0.0
C1824 C 0.76749 0.72432 0.90381 0.0
C1825 C 0.77028 0.75355 0.85036 0.0
C1826 C 0.76946 0.74402 0.86909 0.0
H1827 H 0.73921 0.70502 0.96047 0.0
H1828 H 0.74271 0.72511 0.93276 0.0
H1829 H 0.73723 0.72 0.89773 0.0
H1830 H 0.74733 0.74772 0.80492 0.0
H1831 H 0.74741 0.73148 0.83508 0.0
C1832 C 0.81755 0.09187 0.01764 0.0
C1833 C 0.8087 0.09112 -0.00125 0.0
C1834 C 0.83024 0.0794 0.02127 0.0
C1835 C 0.84764 0.03454 0.00056 0.0
H1836 H 0.89345 0.06031 0.03162 0.0
C1837 C 0.91919 0.00976 0.99602 0.0
C1838 C 0.93136 0.01289 0.01312 0.0
C1839 C 0.90153 0.01511 0.99653 0.0
C1840 C 0.88059 0.05271 0.02327 0.0
H1841 H 0.80585 0.07644 0.96895 0.0
H1842 H 0.82853 0.0551 0.97511 0.0
H1843 H 0.86792 0.07833 0.02789 0.0
H1844 H 0.93417 0.0223 0.04447 0.0
H1845 H 0.90323 0.03152 0.04541 0.0
H1846 H 0.8609 0.00919 0.9953 0.0
C1847 C 0.82536 0.06501 0.98723 0.0
C1848 C 0.86592 0.06307 0.02111 0.0
C1849 C 0.8125 0.07737 0.98365 0.0
C1850 C 0.92507 0.01992 0.03104 0.0
C1851 C 0.90743 0.02527 0.03156 0.0
C1852 C 0.86242 0.02419 0.00265 0.0
C1853 C 0.83453 0.06606 0.00605 0.0
C1854 C 0.84938 0.05424 0.00951 0.0
C1855 C 0.89581 0.02367 0.01416 0.0
C1856 C 0.87914 0.0333 0.01381 0.0
H1857 H 0.8147 0.1021 0.02967 0.0
H1858 H 0.83678 0.08032 0.03602 0.0
H1859 H 0.83496 0.02722 0.99177 0.0
H1860 H 0.92373 0.00429 0.98203 0.0
H1861 H 0.89294 0.0138 0.98286 0.0
C1862 C 0.30981 0.45061 0.02889 0.0
C1863 C 0.30449 0.43052 0.02088 0.0
C1864 C 0.32799 0.4613 0.02701 0.0
C1865 C 0.37591 0.45299 0.0184 0.0
H1866 H 0.38588 0.50912 0.00952 0.0
C1867 C 0.45061 0.49402 0.00727 0.0
C1868 C 0.45654 0.51258 0.01854 0.0
C1869 C 0.43161 0.48488 0.00541 0.0
C1870 C 0.38329 0.49346 0.01209 0.0
H1871 H 0.31381 0.40613 0.00401 0.0
H1872 H 0.34527 0.42482 0.00047 0.0
H1873 H 0.35336 0.49139 0.01053 0.0
H1874 H 0.44729 0.53665 0.03588 0.0
H1875 H 0.41401 0.5206 0.03275 0.0
H1876 H 0.40574 0.45502 0.02012 0.0
C1877 C 0.33561 0.43221 0.00859 0.0
C1878 C 0.36469 0.48333 0.01272 0.0
C1879 C 0.31752 0.42152 0.01056 0.0
C1880 C 0.44306 0.52228 0.02716 0.0
C1881 C 0.42402 0.51315 0.02528 0.0
C1882 C 0.39443 0.46307 0.01771 0.0
C1883 C 0.34115 0.45214 0.01701 0.0
C1884 C 0.3608 0.46298 0.01593 0.0
C1885 C 0.41816 0.49414 0.01475 0.0
C1886 C 0.39835 0.48342 0.0146 0.0
H1887 H 0.30008 0.45796 0.03693 0.0
H1888 H 0.33187 0.47657 0.03383 0.0
H1889 H 0.37345 0.43743 0.02132 0.0
H1890 H 0.46072 0.48629 0.00034 0.0
H1891 H 0.42746 0.47039 0.99692 0.0
C1892 C 0.33954 0.59061 0.75156 0.0
C1893 C 0.35697 0.59204 0.76215 0.0
C1894 C 0.32882 0.60542 0.75495 0.0
C1895 C 0.33371 0.65832 0.77365 0.0
H1896 H 0.27931 0.64539 0.7747 0.0
C1897 C 0.29139 0.72031 0.78756 0.0
C1898 C 0.27551 0.71917 0.77454 0.0
C1899 C 0.30003 0.70381 0.78867 0.0
C1900 C 0.29448 0.64921 0.77434 0.0
H1901 H 0.37665 0.60996 0.78482 0.0
H1902 H 0.35791 0.63572 0.79076 0.0
H1903 H 0.29718 0.61842 0.77128 0.0
H1904 H 0.25561 0.6995 0.75324 0.0
H1905 H 0.27088 0.67077 0.75495 0.0
H1906 H 0.33109 0.68902 0.77627 0.0
C1907 C 0.35264 0.62327 0.7797 0.0
C1908 C 0.3047 0.63379 0.77237 0.0
C1909 C 0.36335 0.60847 0.77633 0.0
C1910 C 0.26783 0.70086 0.76343 0.0
C1911 C 0.27655 0.68436 0.76446 0.0
C1912 C 0.32352 0.67369 0.77558 0.0
C1913 C 0.33532 0.62197 0.76897 0.0
C1914 C 0.32442 0.6382 0.77188 0.0
C1915 C 0.29306 0.68585 0.77669 0.0
C1916 C 0.30378 0.66934 0.77584 0.0
H1917 H 0.33422 0.57812 0.74054 0.0
H1918 H 0.31564 0.60412 0.74628 0.0
H1919 H 0.34884 0.66221 0.77297 0.0
H1920 H 0.29752 0.73413 0.79653 0.0
H1921 H 0.31248 0.70529 0.79857 0.0
C1922 C 0.21766 0.5967 0.49291 0.0
C1923 C 0.2291 0.59688 0.51021 0.0
C1924 C 0.19884 0.58677 0.49139 0.0
C1925 C 0.16056 0.57466 0.52256 0.0
H1926 H 0.13547 0.53662 0.47941 0.0
C1927 C 0.08574 0.53228 0.52812 0.0
C1928 C 0.07315 0.5289 0.51134 0.0
C1929 C 0.10484 0.53954 0.52664 0.0
C1930 C 0.14222 0.54744 0.49142 0.0
H1931 H 0.23006 0.58603 0.53905 0.0
H1932 H 0.19718 0.56902 0.53645 0.0
H1933 H 0.1691 0.55086 0.47885 0.0
H1934 H 0.07066 0.53008 0.47974 0.0
H1935 H 0.10414 0.54356 0.47721 0.0
H1936 H 0.13391 0.57196 0.53496 0.0
C1937 C 0.20279 0.57657 0.52414 0.0
C1938 C 0.16144 0.55548 0.49112 0.0
C1939 C 0.22161 0.58626 0.52558 0.0
C1940 C 0.08009 0.53259 0.49292 0.0
C1941 C 0.09926 0.5402 0.49147 0.0
C1942 C 0.14139 0.56691 0.52274 0.0
C1943 C 0.19116 0.5771 0.50722 0.0
C1944 C 0.17079 0.5689 0.50687 0.0
C1945 C 0.11181 0.54398 0.50839 0.0
C1946 C 0.13202 0.55293 0.50736 0.0
H1947 H 0.22309 0.60466 0.48078 0.0
H1948 H 0.19009 0.58739 0.47822 0.0
H1949 H 0.1674 0.58534 0.53467 0.0
H1950 H 0.08088 0.52918 0.54246 0.0
H1951 H 0.11414 0.54167 0.53988 0.0
C1952 C 0.68407 0.9731 0.76915 0.0
C1953 C 0.66988 0.97281 0.75432 0.0
C1954 C 0.69807 0.96188 0.76608 0.0
C1955 C 0.70605 0.91742 0.73566 0.0
H1956 H 0.7562 0.93257 0.76177 0.0
C1957 C 0.7548 0.86138 0.73452 0.0
C1958 C 0.76072 0.85796 0.75357 0.0
C1959 C 0.74804 0.87872 0.73146 0.0
C1960 C 0.74229 0.92824 0.75429 0.0
H1961 H 0.65971 0.96144 0.72427 0.0
H1962 H 0.68444 0.94226 0.71868 0.0
H1963 H 0.73553 0.95704 0.76182 0.0
H1964 H 0.76583 0.87055 0.78406 0.0
H1965 H 0.75385 0.90091 0.77876 0.0
H1966 H 0.71261 0.88858 0.72849 0.0
C1967 C 0.68448 0.95069 0.7329 0.0
C1968 C 0.73041 0.94217 0.7544 0.0
C1969 C 0.67033 0.9617 0.73608 0.0
C1970 C 0.76126 0.87286 0.76925 0.0
C1971 C 0.75451 0.89025 0.76619 0.0
C1972 C 0.71796 0.90363 0.73538 0.0
C1973 C 0.69831 0.95033 0.748 0.0
C1974 C 0.71196 0.93672 0.74555 0.0
C1975 C 0.74711 0.89292 0.74741 0.0
C1976 C 0.736 0.90873 0.74512 0.0
H1977 H 0.68408 0.98154 0.78337 0.0
H1978 H 0.70827 0.9617 0.77816 0.0
H1979 H 0.69186 0.91254 0.729 0.0
H1980 H 0.75445 0.85017 0.72213 0.0
H1981 H 0.74266 0.88056 0.7168 0.0
C1982 C 0.69818 0.94688 0.54302 0.0
C1983 C 0.7099 0.95021 0.52738 0.0
C1984 C 0.68301 0.95664 0.54514 0.0
C1985 C 0.66265 -0.00104 0.52933 0.0
H1986 H 0.61535 0.96543 0.53938 0.0
C1987 C 0.59012 0.01951 0.51304 0.0
C1988 C 0.57577 0.01365 0.52557 0.0
C1989 C 0.60764 0.0141 0.51589 0.0
C1990 C 0.62849 0.97514 0.53694 0.0
H1991 H 0.71523 0.9669 0.50207 0.0
H1992 H 0.68856 0.98376 0.50562 0.0
H1993 H 0.6439 0.95163 0.53941 0.0
H1994 H 0.56863 -0.0015 0.55145 0.0
H1995 H 0.59934 0.98924 0.55662 0.0
H1996 H 0.64705 0.02236 0.52646 0.0
C1997 C 0.69124 0.97374 0.51636 0.0
C1998 C 0.64488 0.9672 0.53693 0.0
C1999 C 0.70645 0.96398 0.51425 0.0
C2000 C 0.57945 0.00308 0.54151 0.0
C2001 C 0.59698 -0.00231 0.54439 0.0
C2002 C 0.64622 0.00692 0.52935 0.0
C2003 C 0.67919 0.96994 0.53166 0.0
C2004 C 0.66211 0.97894 0.53292 0.0
C2005 C 0.61113 0.00276 0.53134 0.0
C2006 C 0.62892 0.99501 0.53293 0.0
H2007 H 0.70053 0.93648 0.5535 0.0
H2008 H 0.67416 0.95363 0.55726 0.0
H2009 H 0.67576 0.00846 0.52645 0.0
H2010 H 0.58761 0.02767 0.50063 0.0
H2011 H 0.61815 0.01807 0.50546 0.0
C2012 C 0.34101 0.47469 0.74539 0.0
C2013 C 0.3381 0.48417 0.72841 0.0
C2014 C 0.3309 0.45562 0.74737 0.0
C2015 C 0.30404 0.40996 0.71908 0.0
H2016 H 0.2873 0.39808 0.77051 0.0
C2017 C 0.25929 0.33374 0.73441 0.0
C2018 C 0.26512 0.32588 0.75143 0.0
C2019 C 0.26742 0.35313 0.73066 0.0
C2020 C 0.29199 0.40115 0.75609 0.0
H2021 H 0.32222 0.48104 0.70016 0.0
H2022 H 0.30429 0.44759 0.70375 0.0
H2023 H 0.3022 0.43212 0.76559 0.0
H2024 H 0.28413 0.33181 0.77773 0.0
H2025 H 0.29834 0.36566 0.7712 0.0
H2026 H 0.29376 0.37885 0.70966 0.0
C2027 C 0.31459 0.45494 0.71542 0.0
C2028 C 0.30053 0.42063 0.75327 0.0
C2029 C 0.32479 0.47411 0.71342 0.0
C2030 C 0.27935 0.33755 0.76452 0.0
C2031 C 0.28739 0.35695 0.76084 0.0
C2032 C 0.29538 0.39044 0.72189 0.0
C2033 C 0.31752 0.44554 0.73247 0.0
C2034 C 0.30697 0.42519 0.73484 0.0
C2035 C 0.2814 0.36499 0.74397 0.0
C2036 C 0.28958 0.38581 0.74053 0.0
H2037 H 0.35124 0.48192 0.75719 0.0
H2038 H 0.33378 0.44865 0.7605 0.0
H2039 H 0.30899 0.41297 0.70475 0.0
H2040 H 0.24836 0.32497 0.72408 0.0
H2041 H 0.26249 0.359 0.7176 0.0
C2042 C 0.12573 0.57117 0.25779 0.0
C2043 C 0.13157 0.5535 0.26217 0.0
C2044 C 0.13818 0.58958 0.26124 0.0
C2045 C 0.18795 0.61046 0.26221 0.0
H2046 H 0.17423 0.65925 0.28539 0.0
C2047 C 0.22285 0.69947 0.28243 0.0
C2048 C 0.22823 0.70444 0.26375 0.0
C2049 C 0.21249 0.68048 0.28466 0.0
C2050 C 0.17831 0.64569 0.27909 0.0
H2051 H 0.15482 0.54132 0.27419 0.0
H2052 H 0.1766 0.57349 0.27987 0.0
H2053 H 0.15246 0.62719 0.28556 0.0
H2054 H 0.2278 0.69321 0.23294 0.0
H2055 H 0.21002 0.65993 0.23695 0.0
H2056 H 0.21349 0.62904 0.2551 0.0
C2057 C 0.1624 0.57304 0.27382 0.0
C2058 C 0.16583 0.62743 0.27907 0.0
C2059 C 0.14989 0.55467 0.27063 0.0
C2060 C 0.22376 0.68983 0.2475 0.0
C2061 C 0.21369 0.67077 0.2498 0.0
C2062 C 0.20029 0.62874 0.26198 0.0
C2063 C 0.15673 0.5906 0.26889 0.0
C2064 C 0.17047 0.6097 0.27043 0.0
C2065 C 0.20767 0.66606 0.26831 0.0
C2066 C 0.19548 0.64653 0.2702 0.0
H2067 H 0.11168 0.57073 0.25133 0.0
H2068 H 0.13353 0.60292 0.25719 0.0
H2069 H 0.19178 0.59701 0.25533 0.0
H2070 H 0.22604 0.71044 0.29521 0.0
H2071 H 0.20806 0.67713 0.29909 0.0
C2072 C 0.49819 0.69732 0.40649 0.0
C2073 C 0.49451 0.71571 0.41463 0.0
C2074 C 0.50087 0.68257 0.41856 0.0
C2075 C 0.49185 0.66559 0.46739 0.0
H2076 H 0.53109 0.63566 0.45545 0.0
C2077 C 0.49584 0.59007 0.4971 0.0
C2078 C 0.51368 0.58551 0.50117 0.0
C2079 C 0.49418 0.60779 0.48911 0.0
C2080 C 0.52025 0.64405 0.4592 0.0
H2081 H 0.49048 0.73294 0.44184 0.0
H2082 H 0.49532 0.70716 0.46298 0.0
H2083 H 0.52695 0.66298 0.43632 0.0
H2084 H 0.5438 0.59659 0.50118 0.0
H2085 H 0.54087 0.62763 0.48752 0.0
H2086 H 0.48525 0.64664 0.49038 0.0
C2087 C 0.49598 0.70414 0.44721 0.0
C2088 C 0.5177 0.65953 0.44804 0.0
C2089 C 0.49328 0.71892 0.43511 0.0
C2090 C 0.52983 0.59952 0.498 0.0
C2091 C 0.52816 0.61728 0.49009 0.0
C2092 C 0.49441 0.65007 0.4786 0.0
C2093 C 0.49997 0.68588 0.43907 0.0
C2094 C 0.5033 0.67027 0.4518 0.0
C2095 C 0.51031 0.62138 0.48511 0.0
C2096 C 0.5085 0.63897 0.47445 0.0
H2097 H 0.49911 0.6943 0.39076 0.0
H2098 H 0.50356 0.66851 0.41179 0.0
H2099 H 0.48058 0.67354 0.47059 0.0
H2100 H 0.48309 0.57964 0.49939 0.0
H2101 H 0.48022 0.6104 0.48528 0.0
C2102 C 0.58394 0.27054 0.66726 0.0
C2103 C 0.57146 0.28337 0.67209 0.0
C2104 C 0.60113 0.27258 0.6781 0.0
C2105 C 0.63656 0.30771 0.71055 0.0
H2106 H 0.65098 0.25902 0.72549 0.0
C2107 C 0.70501 0.30534 0.75869 0.0
C2108 C 0.71447 0.29 0.75237 0.0
C2109 C 0.6874 0.30616 0.74966 0.0
C2110 C 0.64724 0.27275 0.7213 0.0
H2111 H 0.56737 0.3087 0.69185 0.0
H2112 H 0.59759 0.31229 0.71081 0.0
H2113 H 0.62041 0.25729 0.70833 0.0
H2114 H 0.71323 0.26381 0.73147 0.0
H2115 H 0.6831 0.26561 0.71546 0.0
H2116 H 0.66366 0.32309 0.72331 0.0
C2117 C 0.59399 0.30067 0.69861 0.0
C2118 C 0.62972 0.27174 0.71149 0.0
C2119 C 0.57668 0.29853 0.68782 0.0
C2120 C 0.70635 0.2759 0.7366 0.0
C2121 C 0.68895 0.27678 0.72757 0.0
C2122 C 0.65421 0.30871 0.72035 0.0
C2123 C 0.60628 0.28757 0.69395 0.0
C2124 C 0.62434 0.28913 0.70568 0.0
C2125 C 0.67906 0.2916 0.73426 0.0
C2126 C 0.65985 0.29116 0.72544 0.0
H2127 H 0.5804 0.25876 0.65519 0.0
H2128 H 0.61047 0.26245 0.67401 0.0
H2129 H 0.63274 0.32134 0.70618 0.0
H2130 H 0.71098 0.31635 0.77087 0.0
H2131 H 0.68006 0.31774 0.75513 0.0
C2132 C 0.0078 0.31139 0.90328 0.0
C2133 C 0.9943 0.30561 0.88727 0.0
C2134 C 0.00838 0.32925 0.91523 0.0
C2135 C 0.97819 0.36358 0.93186 0.0
H2136 H 0.02457 0.40219 0.94554 0.0
C2137 C 0.97847 0.44306 0.96753 0.0
C2138 C 0.99349 0.45252 0.98098 0.0
C2139 C 0.9787 0.42444 0.95742 0.0
C2140 C 0.01155 0.39141 0.94218 0.0
H2141 H 0.97107 0.31416 0.87104 0.0
H2142 H 0.972 0.34522 0.89206 0.0
H2143 H 0.02517 0.37123 0.9249 0.0
H2144 H 0.02021 0.44947 0.99495 0.0
H2145 H 0.02035 0.41664 0.97771 0.0
H2146 H 0.96453 0.38342 0.94928 0.0
C2147 C 0.98208 0.3359 0.89534 0.0
C2148 C 0.0119 0.37375 0.93027 0.0
C2149 C 0.98164 0.3182 0.88324 0.0
C2150 C 0.00847 0.44264 0.98457 0.0
C2151 C 0.00862 0.42388 0.97459 0.0
C2152 C 0.97785 0.38109 0.94395 0.0
C2153 C 0.99533 0.34149 0.91155 0.0
C2154 C 0.99518 0.35982 0.92479 0.0
C2155 C 0.99385 0.41468 0.96067 0.0
C2156 C 0.99448 0.39537 0.94903 0.0
H2157 H 0.01776 0.302 0.90674 0.0
H2158 H 0.0187 0.33321 0.92768 0.0
H2159 H 0.96515 0.35289 0.92812 0.0
H2160 H 0.96676 0.45031 0.96427 0.0
H2161 H 0.96724 0.41801 0.94659 0.0
C2162 C 0.96309 0.81899 0.18373 0.0
C2163 C 0.97301 0.80318 0.18254 0.0
C2164 C 0.94891 0.81933 0.19683 0.0
C2165 C 0.9164 0.78509 0.22396 0.0
H2166 H 0.90543 0.83442 0.24917 0.0
C2167 C 0.85414 0.7835 0.27232 0.0
C2168 C 0.84175 0.79588 0.26693 0.0
C2169 C 0.8723 0.78627 0.26574 0.0
C2170 C 0.90837 0.82054 0.24223 0.0
H2171 H 0.97647 0.7758 0.19477 0.0
H2172 H 0.95212 0.77665 0.21794 0.0
H2173 H 0.93342 0.83545 0.23041 0.0
H2174 H 0.83888 0.82169 0.25168 0.0
H2175 H 0.87065 0.82654 0.24013 0.0
H2176 H 0.89131 0.77021 0.23554 0.0
C2177 C 0.95488 0.78851 0.20839 0.0
C2178 C 0.92434 0.82112 0.23143 0.0
C2179 C 0.9689 0.78806 0.19516 0.0
C2180 C 0.84819 0.81192 0.256 0.0
C2181 C 0.86639 0.81474 0.24947 0.0
C2182 C 0.90059 0.78451 0.23486 0.0
C2183 C 0.94448 0.80396 0.20916 0.0
C2184 C 0.92839 0.80341 0.22193 0.0
C2185 C 0.87838 0.8015 0.25371 0.0
C2186 C 0.89626 0.80223 0.2439 0.0
H2187 H 0.96592 0.83085 0.17417 0.0
H2188 H 0.94103 0.83131 0.19681 0.0
H2189 H 0.91882 0.7712 0.21654 0.0
H2190 H 0.84954 0.77108 0.28084 0.0
H2191 H 0.88135 0.77603 0.26948 0.0
C2192 C 0.525 0.32496 0.08637 0.0
C2193 C 0.50834 0.31628 0.0945 0.0
C2194 C 0.52588 0.34241 0.077 0.0
C2195 C 0.49599 0.37394 0.05436 0.0
H2196 H 0.5409 0.41535 0.0646 0.0
C2197 C 0.50518 0.4471 0.01659 0.0
C2198 C 0.51271 0.46489 0.02865 0.0
C2199 C 0.50546 0.42846 0.02338 0.0
C2200 C 0.52822 0.40397 0.06166 0.0
H2201 H 0.47946 0.31906 0.09902 0.0
H2202 H 0.48109 0.34965 0.08296 0.0
H2203 H 0.53938 0.38382 0.07898 0.0
H2204 H 0.52669 0.47698 0.05724 0.0
H2205 H 0.52693 0.44459 0.06911 0.0
H2206 H 0.48458 0.39438 0.03762 0.0
C2207 C 0.4934 0.3428 0.08354 0.0
C2208 C 0.52744 0.38579 0.0697 0.0
C2209 C 0.49251 0.32532 0.09286 0.0
C2210 C 0.5208 0.4636 0.04751 0.0
C2211 C 0.52105 0.445 0.0543 0.0
C2212 C 0.49676 0.39214 0.04634 0.0
C2213 C 0.51013 0.35162 0.07558 0.0
C2214 C 0.51125 0.37062 0.06629 0.0
C2215 C 0.51326 0.42719 0.04238 0.0
C2216 C 0.51283 0.40745 0.05004 0.0
H2217 H 0.53742 0.31832 0.08728 0.0
H2218 H 0.53889 0.34865 0.07078 0.0
H2219 H 0.4834 0.36248 0.05123 0.0
H2220 H 0.4989 0.44753 0.00195 0.0
H2221 H 0.49957 0.41504 0.01373 0.0
C2222 C 0.96442 0.27046 0.3452 0.0
C2223 C 0.96618 0.26649 0.36496 0.0
C2224 C 0.94773 0.27506 0.3374 0.0
C2225 C 0.8972 0.26985 0.34521 0.0
H2226 H 0.8994 0.31321 0.31201 0.0
C2227 C 0.82957 0.29327 0.31706 0.0
C2228 C 0.82824 0.29569 0.2969 0.0
C2229 C 0.84689 0.29238 0.32652 0.0
C2230 C 0.89856 0.30099 0.32117 0.0
H2231 H 0.95171 0.26397 0.39194 0.0
H2232 H 0.92265 0.27196 0.37833 0.0
H2233 H 0.92858 0.30526 0.32571 0.0
H2234 H 0.84401 0.30022 0.27102 0.0
H2235 H 0.87423 0.29846 0.28743 0.0
H2236 H 0.86727 0.26528 0.34045 0.0
C2237 C 0.93412 0.27142 0.36883 0.0
C2238 C 0.91526 0.29642 0.32897 0.0
C2239 C 0.95081 0.2669 0.37665 0.0
C2240 C 0.84467 0.29839 0.28661 0.0
C2241 C 0.86199 0.29743 0.29604 0.0
C2242 C 0.88053 0.27438 0.33738 0.0
C2243 C 0.93243 0.27569 0.34917 0.0
C2244 C 0.91475 0.28073 0.34101 0.0
C2245 C 0.86319 0.2938 0.31596 0.0
C2246 C 0.88099 0.28995 0.3252 0.0
H2247 H 0.97602 0.27029 0.33581 0.0
H2248 H 0.94676 0.27802 0.32211 0.0
H2249 H 0.89634 0.25751 0.35421 0.0
H2250 H 0.8171 0.29124 0.32534 0.0
H2251 H 0.84741 0.29 0.34197 0.0
C2252 C 0.98137 0.6954 0.59455 0.0
C2253 C 0.98441 0.71231 0.58399 0.0
C2254 C 0.98254 0.67656 0.58549 0.0
C2255 C 0.00425 0.65328 0.54409 0.0
H2256 H 0.97239 0.60447 0.55673 0.0
C2257 C 0.00683 0.57542 0.50493 0.0
C2258 C 0.00633 0.55969 0.51684 0.0
C2259 C 0.00376 0.59403 0.51278 0.0
C2260 C 0.9815 0.61797 0.55321 0.0
H2261 H 0.99015 0.72249 0.55537 0.0
H2262 H 0.99182 0.68949 0.53944 0.0
H2263 H 0.96653 0.63685 0.57029 0.0
H2264 H 0.00155 0.55072 0.54598 0.0
H2265 H 0.99654 0.58341 0.55996 0.0
H2266 H 0.0192 0.63438 0.527 0.0
C2267 C 0.98895 0.69091 0.55486 0.0
C2268 C 0.97814 0.63652 0.56095 0.0
C2269 C 0.98784 0.7098 0.56394 0.0
C2270 C 0.00258 0.5628 0.5367 0.0
C2271 C -0.00061 0.58139 0.54456 0.0
C2272 C 0.00756 0.63474 0.53629 0.0
C2273 C 0.98668 0.67414 0.56564 0.0
C2274 C 0.98954 0.65441 0.55658 0.0
C2275 C -8e-05 0.5972 0.53266 0.0
C2276 C 0.99629 0.61689 0.54086 0.0
H2277 H 0.97872 0.69678 0.61003 0.0
H2278 H 0.9809 0.66403 0.5943 0.0
H2279 H 0.01354 0.66673 0.54071 0.0
H2280 H 0.00954 0.5733 0.4895 0.0
H2281 H 0.00402 0.60583 0.50318 0.0
C2282 C 0.57147 0.76107 0.84034 0.0
C2283 C 0.5622 0.77715 0.8385 0.0
C2284 C 0.58756 0.75978 0.83028 0.0
C2285 C 0.61618 0.78061 0.79046 0.0
H2286 H 0.65582 0.76227 0.81966 0.0
C2287 C 0.69437 0.79015 0.77019 0.0
C2288 C 0.70281 0.77338 0.77168 0.0
C2289 C 0.67617 0.78998 0.77623 0.0
C2290 C 0.64481 0.76724 0.81124 0.0
H2291 H 0.5622 0.80425 0.82433 0.0
H2292 H 0.59071 0.80242 0.80727 0.0
H2293 H 0.62609 0.7632 0.83428 0.0
H2294 H 0.69841 0.74297 0.77992 0.0
H2295 H 0.66686 0.74283 0.79054 0.0
H2296 H 0.63545 0.78523 0.76767 0.0
C2297 C 0.58533 0.79053 0.81613 0.0
C2298 C 0.62771 0.76769 0.81957 0.0
C2299 C 0.56904 0.79165 0.82598 0.0
C2300 C 0.69242 0.75621 0.77865 0.0
C2301 C 0.67436 0.75612 0.78482 0.0
C2302 C 0.63345 0.78037 0.7822 0.0
C2303 C 0.59497 0.77474 0.81841 0.0
C2304 C 0.61311 0.77425 0.80926 0.0
C2305 C 0.6662 0.77311 0.78402 0.0
C2306 C 0.64786 0.77355 0.7925 0.0
H2307 H 0.56637 0.74951 0.84968 0.0
H2308 H 0.59429 0.74712 0.83199 0.0
H2309 H 0.6052 0.78557 0.78202 0.0
H2310 H 0.70196 0.80358 0.76479 0.0
H2311 H 0.67019 0.80331 0.77552 0.0
C2312 C 0.41191 0.54028 0.68307 0.0
C2313 C 0.41512 0.55696 0.69731 0.0
C2314 C 0.42319 0.53971 0.66716 0.0
C2315 C 0.45581 0.57077 0.6377 0.0
H2316 H 0.47364 0.52131 0.6253 0.0
C2317 C 0.51057 0.56195 0.57985 0.0
C2318 C 0.50709 0.54385 0.56758 0.0
C2319 C 0.49961 0.56449 0.59585 0.0
C2320 C 0.46862 0.53516 0.62842 0.0
H2321 H 0.43235 0.5864 0.70567 0.0
H2322 H 0.45212 0.58535 0.67776 0.0
H2323 H 0.45368 0.52416 0.6526 0.0
H2324 H 0.48961 0.51419 0.56234 0.0
H2325 H 0.47024 0.51874 0.58983 0.0
H2326 H 0.47068 0.58168 0.61333 0.0
C2327 C 0.44081 0.57277 0.67896 0.0
C2328 C 0.45719 0.53678 0.64407 0.0
C2329 C 0.42954 0.57332 0.69497 0.0
C2330 C 0.49251 0.52836 0.5715 0.0
C2331 C 0.48154 0.53091 0.58737 0.0
C2332 C 0.46723 0.56911 0.62194 0.0
C2333 C 0.43791 0.55581 0.66507 0.0
C2334 C 0.45051 0.55452 0.64876 0.0
C2335 C 0.48504 0.54893 0.59983 0.0
C2336 C 0.47359 0.5512 0.61702 0.0
H2337 H 0.40085 0.52747 0.68436 0.0
H2338 H 0.42043 0.52658 0.6565 0.0
H2339 H 0.45076 0.58458 0.64093 0.0
H2340 H 0.52178 0.57409 0.57712 0.0
H2341 H 0.50275 0.57849 0.60528 0.0
C2342 C 0.79223 0.18766 0.96056 0.0
C2343 C 0.77484 0.18362 0.96909 0.0
C2344 C 0.79568 0.20246 0.94766 0.0
C2345 C 0.77718 0.24542 0.92971 0.0
H2346 H 0.79944 0.23039 0.88151 0.0
C2347 C 0.76081 0.27205 0.85484 0.0
C2348 C 0.77509 0.27508 0.84169 0.0
C2349 C 0.76446 0.2658 0.87327 0.0
C2350 C 0.79359 0.23506 0.89505 0.0
H2351 H 0.74757 0.19216 0.9711 0.0
H2352 H 0.75334 0.21746 0.94822 0.0
H2353 H 0.79889 0.20947 0.90844 0.0
H2354 H 0.80462 0.27522 0.83776 0.0
H2355 H 0.81098 0.26409 0.87001 0.0
H2356 H 0.77095 0.27044 0.9157 0.0
C2357 C 0.76451 0.20958 0.95179 0.0
C2358 C 0.79327 0.22305 0.91052 0.0
C2359 C 0.76112 0.19491 0.96477 0.0
C2360 C 0.79336 0.27295 0.84767 0.0
C2361 C 0.79698 0.26652 0.86605 0.0
C2362 C 0.77737 0.25735 0.91415 0.0
C2363 C 0.78176 0.21342 0.94294 0.0
C2364 C 0.78457 0.22777 0.92781 0.0
C2365 C 0.78242 0.26231 0.87877 0.0
C2366 C 0.78513 0.25196 0.89649 0.0
H2367 H 0.80316 0.17935 0.96378 0.0
H2368 H 0.8092 0.20521 0.94129 0.0
H2369 H 0.77075 0.24971 0.943 0.0
H2370 H 0.7466 0.27363 0.85054 0.0
H2371 H 0.75291 0.26249 0.88268 0.0
C2372 C 0.08099 0.49322 0.18923 0.0
C2373 C 0.07496 0.47698 0.20007 0.0
C2374 C 0.07152 0.49483 0.17138 0.0
C2375 C 0.03919 0.46622 0.13114 0.0
H2376 H 0.02991 0.51877 0.12178 0.0
C2377 C 0.99277 0.48076 0.06442 0.0
C2378 C -7e-05 0.49769 0.05499 0.0
C2379 C 0.00161 0.47733 0.08208 0.0
C2380 C 0.03255 0.50404 0.12411 0.0
H2381 H 0.05447 0.44947 0.20053 0.0
H2382 H 0.03776 0.4524 0.1693 0.0
H2383 H 0.04594 0.5143 0.15273 0.0
H2384 H 0.02182 0.52429 0.05639 0.0
H2385 H 0.03738 0.5182 0.08704 0.0
H2386 H 0.02574 0.45603 0.1024 0.0
C2387 C 0.04994 0.46378 0.17459 0.0
C2388 C 0.04172 0.50148 0.14182 0.0
C2389 C 0.05945 0.46216 0.1925 0.0
C2390 C 0.01607 0.51107 0.06335 0.0
C2391 C 0.02488 0.50767 0.08096 0.0
C2392 C 0.02995 0.46879 0.11338 0.0
C2393 C 0.05577 0.48026 0.16398 0.0
C2394 C 0.04534 0.48261 0.14544 0.0
C2395 C 0.01766 0.49086 0.09059 0.0
C2396 C 0.02674 0.48778 0.10963 0.0
H2397 H 0.09298 0.50484 0.19457 0.0
H2398 H 0.07655 0.5075 0.16335 0.0
H2399 H 0.04191 0.45154 0.13349 0.0
H2400 H 0.98031 0.47024 0.05821 0.0
H2401 H 0.99568 0.46433 0.08928 0.0
C2402 C 0.74451 0.84203 0.4812 0.0
C2403 C 0.74017 0.86126 0.48381 0.0
C2404 C 0.74498 0.83252 0.46228 0.0
C2405 C 0.75859 0.82361 0.42167 0.0
H2406 H 0.72224 0.82669 0.379 0.0
C2407 C 0.77165 0.80545 0.3399 0.0
C2408 C 0.75637 0.79461 0.3275 0.0
C2409 C 0.76899 0.8125 0.35921 0.0
C2410 C 0.73242 0.82555 0.39079 0.0
H2411 H 0.73218 0.88524 0.4686 0.0
H2412 H 0.73309 0.86867 0.43564 0.0
H2413 H 0.71779 0.8402 0.41237 0.0
H2414 H 0.72631 0.78252 0.32581 0.0
H2415 H 0.72176 0.79473 0.35946 0.0
H2416 H 0.77318 0.80889 0.40011 0.0
C2417 C 0.73603 0.86089 0.44821 0.0
C2418 C 0.72996 0.83345 0.40986 0.0
C2419 C 0.7356 0.87043 0.46711 0.0
C2420 C 0.7384 0.79089 0.3349 0.0
C2421 C 0.73575 0.79797 0.35418 0.0
C2422 C 0.76108 0.81576 0.40259 0.0
C2423 C 0.74106 0.84199 0.44558 0.0
C2424 C 0.74307 0.83267 0.42549 0.0
C2425 C 0.751 0.80891 0.36653 0.0
C2426 C 0.74809 0.81676 0.38691 0.0
H2427 H 0.74802 0.8345 0.49375 0.0
H2428 H 0.74862 0.81782 0.46073 0.0
H2429 H 0.76906 0.82297 0.43335 0.0
H2430 H 0.78567 0.80861 0.33468 0.0
H2431 H 0.78099 0.82109 0.3683 0.0
C2432 C 0.41513 0.53745 0.80075 0.0
C2433 C 0.41916 0.52797 0.78278 0.0
C2434 C 0.42411 0.53438 0.8184 0.0
C2435 C 0.44924 0.49863 0.84056 0.0
H2436 H 0.45945 0.54087 0.88384 0.0
C2437 C 0.48716 0.49505 0.9176 0.0
C2438 C 0.47765 0.50157 0.93364 0.0
C2439 C 0.48063 0.49673 0.89832 0.0
C2440 C 0.45662 0.52893 0.87187 0.0
H2441 H 0.43634 0.50846 0.76917 0.0
H2442 H 0.45247 0.50353 0.80005 0.0
H2443 H 0.44864 0.54824 0.85152 0.0
H2444 H 0.45346 0.51397 0.9422 0.0
H2445 H 0.44226 0.51713 0.90858 0.0
H2446 H 0.45763 0.47947 0.86116 0.0
C2447 C 0.442 0.51295 0.8005 0.0
C2448 C 0.45037 0.53311 0.85337 0.0
C2449 C 0.43286 0.51589 0.78279 0.0
C2450 C 0.46106 0.50886 0.9301 0.0
C2451 C 0.45472 0.51079 0.91091 0.0
C2452 C 0.45579 0.49453 0.85907 0.0
C2453 C 0.43753 0.52196 0.81855 0.0
C2454 C 0.44616 0.51792 0.83759 0.0
C2455 C 0.46471 0.50521 0.89491 0.0
C2456 C 0.45909 0.50956 0.87495 0.0
H2457 H 0.40458 0.54678 0.80129 0.0
H2458 H 0.42004 0.54129 0.83201 0.0
H2459 H 0.44598 0.48651 0.8288 0.0
H2460 H 0.5 0.4894 0.91999 0.0
H2461 H 0.48853 0.49233 0.88616 0.0
C2462 C 0.791 0.19798 0.06081 0.0
C2463 C 0.78041 0.17874 0.05488 0.0
C2464 C 0.78822 0.20819 0.07875 0.0
C2465 C 0.77089 0.19938 0.12727 0.0
H2466 H 0.76901 0.25594 0.13168 0.0
C2467 C 0.75625 0.24016 0.2003 0.0
C2468 C 0.76796 0.25884 0.20596 0.0
C2469 C 0.75589 0.23104 0.18113 0.0
C2470 C 0.76964 0.24018 0.1307 0.0
H2471 H 0.75849 0.15519 0.06302 0.0
H2472 H 0.75368 0.17302 0.09429 0.0
H2473 H 0.77246 0.23862 0.09955 0.0
H2474 H 0.78791 0.28303 0.19598 0.0
H2475 H 0.78759 0.26694 0.16255 0.0
H2476 H 0.76847 0.20091 0.15837 0.0
C2477 C 0.76422 0.18013 0.08514 0.0
C2478 C 0.77162 0.23028 0.11233 0.0
C2479 C 0.76694 0.16996 0.06719 0.0
C2480 C 0.77878 0.26859 0.19197 0.0
C2481 C 0.7785 0.25943 0.1728 0.0
C2482 C 0.76899 0.20927 0.14562 0.0
C2483 C 0.77486 0.19932 0.09113 0.0
C2484 C 0.77234 0.2098 0.11046 0.0
C2485 C 0.76732 0.24037 0.16729 0.0
C2486 C 0.76841 0.22979 0.14756 0.0
H2487 H 0.80147 0.20515 0.05163 0.0
H2488 H 0.79677 0.22288 0.0831 0.0
H2489 H 0.77169 0.18366 0.12633 0.0
H2490 H 0.74772 0.23236 0.21082 0.0
H2491 H 0.74687 0.21652 0.17723 0.0
C2492 C 0.06031 0.46368 0.29405 0.0
C2493 C 0.06486 0.48388 0.29051 0.0
C2494 C 0.0481 0.45782 0.30857 0.0
C2495 C 0.01613 0.47726 0.34404 0.0
H2496 H 0.03286 0.43966 0.37669 0.0
C2497 C 0.02519 0.46843 0.43051 0.0
C2498 C 0.00907 0.47503 0.43677 0.0
C2499 C 0.02688 0.4632 0.41059 0.0
C2500 C 0.02799 0.45022 0.36777 0.0
H2501 H 0.05987 0.51369 0.29888 0.0
H2502 H 0.03953 0.50381 0.32479 0.0
H2503 H 0.04567 0.44389 0.34497 0.0
H2504 H 0.98129 0.47959 0.42757 0.0
H2505 H 0.98389 0.46978 0.39265 0.0
H2506 H -3e-05 0.48513 0.36771 0.0
C2507 C 0.04469 0.49223 0.31602 0.0
C2508 C 0.03513 0.45243 0.34933 0.0
C2509 C 0.05656 0.498 0.30126 0.0
C2510 C 0.99399 0.4748 0.42301 0.0
C2511 C 0.99555 0.4693 0.40302 0.0
C2512 C 0.00933 0.4754 0.36267 0.0
C2513 C 0.04051 0.47211 0.32011 0.0
C2514 C 0.02994 0.46665 0.3376 0.0
C2515 C 0.01233 0.46419 0.39647 0.0
C2516 C 0.01585 0.46252 0.37515 0.0
H2517 H 0.06633 0.45244 0.28574 0.0
H2518 H 0.04492 0.44214 0.31097 0.0
H2519 H 0.01127 0.48784 0.33514 0.0
H2520 H 0.03698 0.46831 0.44088 0.0
H2521 H 0.04012 0.45963 0.40626 0.0
C2522 C 0.75053 0.87296 0.58899 0.0
C2523 C 0.73396 0.86953 0.57653 0.0
C2524 C 0.75153 0.86244 0.60546 0.0
C2525 C 0.73077 0.8161 0.62561 0.0
H2526 H 0.75341 0.84434 0.67542 0.0
C2527 C 0.73277 0.77693 0.69701 0.0
C2528 C 0.74945 0.78219 0.70921 0.0
C2529 C 0.72999 0.7877 0.68103 0.0
C2530 C 0.74723 0.83619 0.66157 0.0
H2531 H 0.70547 0.8523 0.57155 0.0
H2532 H 0.70728 0.83383 0.60034 0.0
H2533 H 0.75023 0.86295 0.64706 0.0
H2534 H 0.77654 0.80233 0.71414 0.0
H2535 H 0.77185 0.82099 0.68617 0.0
H2536 H 0.72809 0.78927 0.63997 0.0
C2537 C 0.71949 0.84464 0.59728 0.0
C2538 C 0.74538 0.84687 0.64535 0.0
C2539 C 0.71843 0.85528 0.58086 0.0
C2540 C 0.76343 0.79816 0.70508 0.0
C2541 C 0.76069 0.8089 0.68912 0.0
C2542 C 0.73273 0.80538 0.6418 0.0
C2543 C 0.73603 0.84817 0.60977 0.0
C2544 C 0.73727 0.83691 0.62717 0.0
C2545 C 0.74392 0.80385 0.67694 0.0
C2546 C 0.74112 0.81529 0.65993 0.0
H2547 H 0.76276 0.88382 0.58607 0.0
H2548 H 0.76454 0.86529 0.61469 0.0
H2549 H 0.72464 0.80801 0.61172 0.0
H2550 H 0.72177 0.76468 0.69995 0.0
H2551 H 0.71684 0.78356 0.67206 0.0
C2552 C 0.70791 0.45954 0.49078 0.0
C2553 C 0.71539 0.45155 0.50692 0.0
C2554 C 0.69645 0.47372 0.49367 0.0
C2555 C 0.66538 0.49021 0.53016 0.0
H2556 H 0.66164 0.53066 0.49466 0.0
C2557 C 0.60731 0.53605 0.53636 0.0
C2558 C 0.59636 0.5349 0.51863 0.0
C2559 C 0.62508 0.53092 0.53632 0.0
C2560 C 0.66261 0.51949 0.50473 0.0
H2561 H 0.71772 0.45301 0.53882 0.0
H2562 H 0.69817 0.47814 0.54391 0.0
H2563 H 0.68725 0.512 0.49231 0.0
H2564 H 0.59575 0.529 0.48687 0.0
H2565 H 0.62679 0.51999 0.48677 0.0
H2566 H 0.64058 0.49737 0.5423 0.0
C2567 C 0.70066 0.47304 0.52897 0.0
C2568 C 0.6772 0.50874 0.50335 0.0
C2569 C 0.71191 0.45868 0.52606 0.0
C2570 C 0.60394 0.52995 0.50075 0.0
C2571 C 0.62174 0.52491 0.5007 0.0
C2572 C 0.65094 0.50106 0.53164 0.0
C2573 C 0.69241 0.48038 0.5128 0.0
C2574 C 0.67848 0.49363 0.51574 0.0
C2575 C 0.63218 0.52465 0.51854 0.0
C2576 C 0.64915 0.51548 0.51867 0.0
H2577 H 0.71034 0.45433 0.47584 0.0
H2578 H 0.69015 0.47881 0.48085 0.0
H2579 H 0.66567 0.47847 0.53972 0.0
H2580 H 0.6018 0.53994 0.55034 0.0
H2581 H 0.63294 0.53108 0.55026 0.0
C2582 C 0.2035 0.10696 0.48874 0.0
C2583 C 0.207 0.12627 0.49891 0.0
C2584 C 0.18606 0.0942 0.48927 0.0
C2585 C 0.14502 0.08559 0.51925 0.0
H2586 H 0.11942 0.05467 0.47194 0.0
C2587 C 0.06662 0.04846 0.51458 0.0
C2588 C 0.06073 0.03 0.50314 0.0
C2589 C 0.08526 0.05859 0.51503 0.0
C2590 C 0.12653 0.06293 0.48536 0.0
H2591 H 0.19477 0.14748 0.51722 0.0
H2592 H 0.16437 0.12528 0.51801 0.0
H2593 H 0.15029 0.07585 0.47021 0.0
H2594 H 0.06979 0.00718 0.48385 0.0
H2595 H 0.10256 0.0248 0.4848 0.0
H2596 H 0.12126 0.07282 0.5344 0.0
C2597 C 0.17519 0.11991 0.50986 0.0
C2598 C 0.14418 0.07511 0.48434 0.0
C2599 C 0.19258 0.13268 0.50927 0.0
C2600 C 0.07397 0.02146 0.49272 0.0
C2601 C 0.09267 0.0316 0.49317 0.0
C2602 C 0.12741 0.07338 0.52029 0.0
C2603 C 0.17181 0.10047 0.50004 0.0
C2604 C 0.15349 0.08678 0.50123 0.0
C2605 C 0.09845 0.05045 0.50407 0.0
C2606 C 0.11784 0.06211 0.5033 0.0
H2607 H 0.21433 0.10156 0.48063 0.0
H2608 H 0.18388 0.07926 0.48163 0.0
H2609 H 0.15202 0.09412 0.5326 0.0
H2610 H 0.05668 0.05541 0.52274 0.0
H2611 H 0.08916 0.07317 0.52339 0.0
C2612 C 0.18326 0.96059 0.76993 0.0
C2613 C 0.16535 0.95974 0.76061 0.0
C2614 C 0.19312 0.94517 0.76583 0.0
C2615 C 0.18503 0.89178 0.74842 0.0
H2616 H 0.23925 0.90166 0.74519 0.0
C2617 C 0.22422 0.82668 0.7371 0.0
C2618 C 0.24029 0.82795 0.74991 0.0
C2619 C 0.21617 0.84346 0.73515 0.0
C2620 C 0.22411 0.89869 0.74613 0.0
H2621 H 0.14398 0.94232 0.73924 0.0
H2622 H 0.16125 0.91545 0.73203 0.0
H2623 H 0.22287 0.92986 0.74793 0.0
H2624 H 0.26107 0.8481 0.76997 0.0
H2625 H 0.24685 0.87732 0.76678 0.0
H2626 H 0.18624 0.86073 0.74714 0.0
C2627 C 0.16755 0.92794 0.74268 0.0
C2628 C 0.21475 0.91481 0.7477 0.0
C2629 C 0.15769 0.94336 0.74678 0.0
C2630 C 0.24868 0.8466 0.75998 0.0
C2631 C 0.24058 0.86339 0.75808 0.0
C2632 C 0.19438 0.8757 0.74687 0.0
C2633 C 0.18528 0.92857 0.75232 0.0
C2634 C 0.19514 0.91153 0.74912 0.0
C2635 C 0.22397 0.86188 0.74601 0.0
C2636 C 0.21404 0.87897 0.74595 0.0
H2637 H 0.18957 0.97302 0.78064 0.0
H2638 H 0.20665 0.94597 0.77368 0.0
H2639 H 0.16996 0.88877 0.74981 0.0
H2640 H 0.21752 0.81259 0.72893 0.0
H2641 H 0.20358 0.84192 0.72544 0.0
C2642 C 0.30343 0.9418 0.03382 0.0
C2643 C 0.30026 0.92144 0.03696 0.0
C2644 C 0.32173 0.95294 0.03464 0.0
C2645 C 0.37129 0.95364 0.05091 0.0
H2646 H 0.38211 0.98415 0.00628 0.0
C2647 C 0.44517 -7e-05 0.04047 0.0
C2648 C 0.45162 0.99677 0.02157 0.0
C2649 C 0.42641 0.99258 0.04398 0.0
C2650 C 0.37929 0.97572 0.01884 0.0
H2651 H 0.31373 0.89703 0.04433 0.0
H2652 H 0.34574 0.91649 0.04559 0.0
H2653 H 0.34986 0.96774 0.01034 0.0
H2654 H 0.44336 0.98378 0.99148 0.0
H2655 H 0.41074 0.97106 0.99763 0.0
H2656 H 0.40091 0.96117 0.05901 0.0
C2657 C 0.33404 0.92385 0.04263 0.0
C2658 C 0.3608 0.9665 0.02129 0.0
C2659 C 0.31572 0.91267 0.04178 0.0
C2660 C 0.43888 0.98645 0.00622 0.0
C2661 C 0.42015 0.97926 0.0097 0.0
C2662 C 0.3898 0.96298 0.04851 0.0
C2663 C 0.33723 0.94397 0.03864 0.0
C2664 C 0.35664 0.95511 0.03718 0.0
C2665 C 0.41375 0.98215 0.02862 0.0
C2666 C 0.394 0.9738 0.03225 0.0
H2667 H 0.29182 0.94906 0.03024 0.0
H2668 H 0.32375 0.96851 0.0318 0.0
H2669 H 0.36845 0.94508 0.06338 0.0
H2670 H 0.45464 0.00782 0.05262 0.0
H2671 H 0.42179 0.99512 0.05868 0.0
C2672 C 0.86032 0.60615 0.77701 0.0
C2673 C 0.86328 0.59251 0.76137 0.0
C2674 C 0.84409 0.6143 0.77671 0.0
C2675 C 0.8087 0.62711 0.74352 0.0
H2676 H 0.78279 0.63369 0.79134 0.0
C2677 C 0.75651 0.6795 0.74802 0.0
C2678 C 0.76119 0.69396 0.76432 0.0
C2679 C 0.76318 0.6616 0.74769 0.0
C2680 C 0.78979 0.63184 0.77783 0.0
H2681 H 0.85171 0.57695 0.733 0.0
H2682 H 0.82342 0.59157 0.73239 0.0
H2683 H 0.80714 0.61335 0.79023 0.0
H2684 H 0.77479 0.70048 0.79378 0.0
H2685 H 0.78674 0.66957 0.79314 0.0
H2686 H 0.79231 0.64654 0.73145 0.0
C2687 C 0.83364 0.59577 0.7449 0.0
C2688 C 0.80372 0.62026 0.77722 0.0
C2689 C 0.84983 0.58747 0.74526 0.0
C2690 C 0.77112 0.68958 0.78097 0.0
C2691 C 0.77783 0.67176 0.78064 0.0
C2692 C 0.79487 0.6388 0.74416 0.0
C2693 C 0.83055 0.6091 0.76073 0.0
C2694 C 0.81375 0.61842 0.7603 0.0
C2695 C 0.77466 0.65799 0.76365 0.0
C2696 C 0.78578 0.64191 0.76158 0.0
H2697 H 0.87039 0.6103 0.78965 0.0
H2698 H 0.84222 0.62489 0.78892 0.0
H2699 H 0.81628 0.62599 0.73031 0.0
H2700 H 0.74868 0.6825 0.73507 0.0
H2701 H 0.76024 0.6511 0.73454 0.0
C2702 C 0.80496 0.59654 0.99322 0.0
C2703 C 0.80508 0.60896 0.97792 0.0
C2704 C 0.81676 0.5826 0.9934 0.0
C2705 C 0.8474 0.55655 0.96243 0.0
H2706 H 0.87316 0.55357 0.01287 0.0
C2707 C 0.91749 0.52893 0.97165 0.0
C2708 C 0.92047 0.51849 0.98792 0.0
C2709 C 0.90087 0.53619 0.96901 0.0
C2710 C 0.86584 0.5539 -0.00127 0.0
H2711 H 0.81737 0.61618 0.95055 0.0
H2712 H 0.83837 0.5922 0.95112 0.0
H2713 H 0.84913 0.57388 0.01107 0.0
H2714 H 0.90812 0.50635 0.01352 0.0
H2715 H 0.87895 0.51902 0.0089 0.0
H2716 H 0.86476 0.53707 0.95006 0.0
C2717 C 0.82889 0.59297 0.9628 0.0
C2718 C 0.85204 0.56557 0.99768 0.0
C2719 C 0.81695 0.60682 0.96255 0.0
C2720 C 0.90616 0.51443 0.0009 0.0
C2721 C 0.88954 0.52178 -0.00169 0.0
C2722 C 0.86131 0.54493 0.96347 0.0
C2723 C 0.82909 0.58086 0.97836 0.0
C2724 C 0.84281 0.56725 0.97949 0.0
C2725 C 0.88697 0.53321 0.98265 0.0
C2726 C 0.87083 0.54368 0.98161 0.0
H2727 H 0.7958 0.59765 0.00517 0.0
H2728 H 0.81629 0.57326 0.00541 0.0
H2729 H 0.84035 0.55727 0.94823 0.0
H2730 H 0.92832 0.5322 0.96139 0.0
H2731 H 0.89937 0.54507 0.95689 0.0
C2732 C 0.16109 0.09029 0.79674 0.0
C2733 C 0.16843 0.07325 0.80026 0.0
C2734 C 0.17269 0.1092 0.79905 0.0
C2735 C 0.22297 0.13316 0.79984 0.0
H2736 H 0.20283 0.18123 0.81216 0.0
C2737 C 0.2634 0.21677 0.80394 0.0
C2738 C 0.25702 0.22544 0.78767 0.0
C2739 C 0.2536 0.19835 0.80872 0.0
C2740 C 0.20863 0.16788 0.80893 0.0
H2741 H 0.19342 0.06269 0.80997 0.0
H2742 H 0.21359 0.09585 0.81476 0.0
H2743 H 0.18372 0.14857 0.81619 0.0
H2744 H 0.2358 0.22159 0.76337 0.0
H2745 H 0.21825 0.18986 0.77228 0.0
H2746 H 0.24794 0.15279 0.79271 0.0
C2747 C 0.199 0.09457 0.80958 0.0
C2748 C 0.19769 0.14918 0.81102 0.0
C2749 C 0.18743 0.07557 0.80695 0.0
C2750 C 0.2408 0.21543 0.77621 0.0
C2751 C 0.23081 0.1973 0.78123 0.0
C2752 C 0.23403 0.15191 0.79812 0.0
C2753 C 0.19186 0.11158 0.80527 0.0
C2754 C 0.20448 0.13153 0.8059 0.0
C2755 C 0.23717 0.18867 0.79747 0.0
C2756 C 0.22672 0.16929 0.80217 0.0
H2757 H 0.14651 0.08896 0.79146 0.0
H2758 H 0.16671 0.12181 0.7952 0.0
H2759 H 0.22862 0.11996 0.79549 0.0
H2760 H 0.27594 0.22417 0.81293 0.0
H2761 H 0.25871 0.19177 0.82124 0.0
C2762 C 0.35283 0.97671 0.2433 0.0
C2763 C 0.37219 0.9786 0.24072 0.0
C2764 C 0.34125 0.95786 0.24237 0.0
C2765 C 0.33797 0.90414 0.22632 0.0
H2766 H 0.3038 0.8971 0.26819 0.0
C2767 C 0.28413 0.8307 0.23132 0.0
C2768 C 0.28286 0.82391 0.25012 0.0
C2769 C 0.2945 0.84967 0.22897 0.0
C2770 C 0.3133 0.89881 0.25645 0.0
H2771 H 0.39445 0.96219 0.23438 0.0
H2772 H 0.37418 0.92914 0.23302 0.0
H2773 H 0.32307 0.92988 0.26574 0.0
H2774 H 0.29148 0.8318 0.28119 0.0
H2775 H 0.30953 0.86471 0.27704 0.0
H2776 H 0.32846 0.87282 0.2174 0.0
C2777 C 0.36797 0.9423 0.23559 0.0
C2778 C 0.32419 0.91764 0.2549 0.0
C2779 C 0.37959 0.96122 0.23647 0.0
C2780 C 0.2921 0.83653 0.2665 0.0
C2781 C 0.30238 0.85547 0.26415 0.0
C2782 C 0.327 0.88525 0.22785 0.0
C2783 C 0.34874 0.94044 0.23891 0.0
C2784 C 0.33673 0.9205 0.2399 0.0
C2785 C 0.3037 0.86224 0.24538 0.0
C2786 C 0.3147 0.88238 0.24306 0.0
H2787 H 0.34663 0.9898 0.24636 0.0
H2788 H 0.32642 0.95692 0.24462 0.0
H2789 H 0.3474 0.90593 0.21453 0.0
H2790 H 0.27721 0.82138 0.21837 0.0
H2791 H 0.29514 0.85457 0.21434 0.0
C2792 C 0.51441 0.33785 0.60613 0.0
C2793 C 0.53154 0.33218 0.61124 0.0
C2794 C 0.51384 0.35274 0.59359 0.0
C2795 C 0.54367 0.39658 0.57692 0.0
H2796 H 0.50161 0.39344 0.53857 0.0
C2797 C 0.53779 0.46157 0.53072 0.0
C2798 C 0.52015 0.46734 0.53031 0.0
C2799 C 0.53987 0.44339 0.53748 0.0
C2800 C 0.51342 0.39453 0.54925 0.0
H2801 H 0.56146 0.33738 0.60687 0.0
H2802 H 0.56043 0.36341 0.58486 0.0
H2803 H 0.50418 0.36455 0.55632 0.0
H2804 H 0.4907 0.45812 0.53587 0.0
H2805 H 0.49439 0.42655 0.54783 0.0
H2806 H 0.55266 0.42669 0.57024 0.0
C2807 C 0.54748 0.35643 0.59073 0.0
C2808 C 0.51489 0.37802 0.55941 0.0
C2809 C 0.54805 0.34149 0.60329 0.0
C2810 C 0.5045 0.45417 0.53604 0.0
C2811 C 0.50658 0.43599 0.54278 0.0
C2812 C 0.5422 0.41308 0.56676 0.0
C2813 C 0.53038 0.3623 0.58587 0.0
C2814 C 0.52984 0.37901 0.57362 0.0
C2815 C 0.52436 0.43059 0.54392 0.0
C2816 C 0.52688 0.41236 0.55308 0.0
H2817 H 0.50143 0.33097 0.612 0.0
H2818 H 0.5005 0.35713 0.59037 0.0
H2819 H 0.55522 0.3979 0.58795 0.0
H2820 H 0.55013 0.47127 0.52626 0.0
H2821 H 0.55369 0.43949 0.53793 0.0
C2822 C 0.41869 0.73613 0.35314 0.0
C2823 C 0.43598 0.73791 0.34438 0.0
C2824 C 0.40204 0.73569 0.34174 0.0
C2825 C 0.38538 0.75172 0.29524 0.0
H2826 H 0.33797 0.71817 0.30491 0.0
C2827 C 0.31685 0.75011 0.2478 0.0
C2828 C 0.30076 0.75086 0.25821 0.0
C2829 C 0.33333 0.74693 0.25746 0.0
C2830 C 0.35109 0.72772 0.30213 0.0
H2831 H 0.44927 0.73983 0.31665 0.0
H2832 H 0.4202 0.73882 0.29676 0.0
H2833 H 0.36684 0.71509 0.32335 0.0
H2834 H 0.2887 0.74759 0.28632 0.0
H2835 H 0.31758 0.74271 0.30346 0.0
H2836 H 0.36964 0.76454 0.27423 0.0
C2837 C 0.41956 0.73813 0.31249 0.0
C2838 C 0.36761 0.72595 0.31269 0.0
C2839 C 0.4362 0.73859 0.32389 0.0
C2840 C 0.30117 0.74781 0.27822 0.0
C2841 C 0.31759 0.74462 0.28789 0.0
C2842 C 0.36888 0.75348 0.28469 0.0
C2843 C 0.40234 0.73698 0.32133 0.0
C2844 C 0.38491 0.73805 0.30947 0.0
C2845 C 0.3339 0.74428 0.27765 0.0
C2846 C 0.35154 0.74163 0.28814 0.0
H2847 H 0.41805 0.73558 0.3689 0.0
H2848 H 0.38902 0.73499 0.34902 0.0
H2849 H 0.39844 0.76149 0.29264 0.0
H2850 H 0.31676 0.75221 0.23228 0.0
H2851 H 0.34559 0.74647 0.24912 0.0
C2852 C 0.00812 0.73063 0.08014 0.0
C2853 C 0.00503 0.73335 0.10028 0.0
C2854 C 0.00686 0.71142 0.0706 0.0
C2855 C 0.98734 0.6582 0.07413 0.0
H2856 H 0.02679 0.64893 0.04009 0.0
C2857 C 0.98398 0.58316 0.02683 0.0
C2858 C 0.00054 0.57523 0.027 0.0
C2859 C 0.98426 0.6027 0.03502 0.0
C2860 C 0.01572 0.65128 0.04961 0.0
H2861 H -0.0022 0.71801 0.12609 0.0
H2862 H 0.9956 0.68446 0.10939 0.0
H2863 H 0.02743 0.68251 0.05608 0.0
H2864 H 0.03049 0.58182 0.03561 0.0
H2865 H 0.03094 0.61593 0.04993 0.0
H2866 H 0.9758 0.62691 0.06791 0.0
C2867 C -0.0011 0.6972 0.10099 0.0
C2868 C 0.01597 0.67053 0.0586 0.0
C2869 C 0.00025 0.71643 0.11056 0.0
C2870 C 0.01747 0.58743 0.03523 0.0
C2871 C 0.01776 0.60702 0.04335 0.0
C2872 C 0.98703 0.63897 0.06505 0.0
C2873 C 0.0024 0.69451 0.08096 0.0
C2874 C 0.00183 0.67417 0.07103 0.0
C2875 C 0.00112 0.61479 0.04349 0.0
C2876 C 0.00126 0.6353 0.05277 0.0
H2877 H 0.01179 0.74334 0.07177 0.0
H2878 H 0.00939 0.70979 0.05509 0.0
H2879 H 0.97617 0.66059 0.08351 0.0
H2880 H 0.97069 0.57424 0.02055 0.0
H2881 H 0.97127 0.60837 0.03467 0.0
C2882 C 0.04878 0.22997 0.83371 0.0
C2883 C 0.03821 0.24369 0.82721 0.0
C2884 C 0.06512 0.22726 0.82473 0.0
C2885 C 0.09194 0.23699 0.78063 0.0
H2886 H 0.13495 0.23682 0.8167 0.0
C2887 C 0.16913 0.25754 0.76068 0.0
C2888 C 0.18246 0.24793 0.76935 0.0
C2889 C 0.15036 0.25331 0.76541 0.0
C2890 C 0.12303 0.23643 0.80635 0.0
H2891 H 0.03616 0.26484 0.80578 0.0
H2892 H 0.06494 0.26038 0.79033 0.0
H2893 H 0.10423 0.23655 0.82943 0.0
H2894 H 0.18659 0.22549 0.78869 0.0
H2895 H 0.15372 0.21788 0.79679 0.0
H2896 H 0.11101 0.23744 0.7576 0.0
C2897 C 0.06044 0.25152 0.8022 0.0
C2898 C 0.10539 0.2363 0.81367 0.0
C2899 C 0.04402 0.25418 0.81114 0.0
C2900 C 0.17658 0.23322 0.78194 0.0
C2901 C 0.1578 0.22895 0.78664 0.0
C2902 C 0.10964 0.23713 0.77329 0.0
C2903 C 0.07133 0.23826 0.80912 0.0
C2904 C 0.08969 0.23685 0.80094 0.0
C2905 C 0.1446 0.23936 0.77886 0.0
C2906 C 0.12543 0.23712 0.78613 0.0
H2907 H 0.04458 0.22147 0.84591 0.0
H2908 H 0.07303 0.21668 0.83018 0.0
H2909 H 0.08005 0.23714 0.77043 0.0
H2910 H 0.17334 0.26894 0.7509 0.0
H2911 H 0.14059 0.26172 0.75929 0.0
C2912 C 0.53055 0.72764 0.94283 0.0
C2913 C 0.52142 0.72867 0.92441 0.0
C2914 C 0.5272 0.70999 0.95201 0.0
C2915 C 0.51149 0.65568 0.94064 0.0
H2916 H 0.50667 0.65608 0.99696 0.0
C2917 C 0.49478 0.58243 0.97674 0.0
C2918 C 0.50527 0.58138 0.99435 0.0
C2919 C 0.49519 0.60072 0.96908 0.0
C2920 C 0.50815 0.65575 0.98124 0.0
H2921 H 0.50129 0.71209 0.9014 0.0
H2922 H 0.49542 0.6813 0.91746 0.0
H2923 H 0.51029 0.6875 0.98183 0.0
H2924 H 0.52393 0.59887 0.01809 0.0
H2925 H 0.52484 0.63084 0.00456 0.0
H2926 H 0.50967 0.62408 0.94 0.0
C2927 C 0.50532 0.6941 0.92469 0.0
C2928 C 0.5102 0.67373 0.97258 0.0
C2929 C 0.50862 0.71177 0.91553 0.0
C2930 C 0.51566 0.59917 0.00451 0.0
C2931 C 0.51613 0.6175 0.99678 0.0
C2932 C 0.50948 0.63775 0.94929 0.0
C2933 C 0.51469 0.69296 0.94295 0.0
C2934 C 0.51194 0.67388 0.95218 0.0
C2935 C 0.50616 0.61842 0.9788 0.0
C2936 C 0.50782 0.63755 0.96969 0.0
H2937 H 0.54048 0.7404 0.95009 0.0
H2938 H 0.53479 0.70952 0.96597 0.0
H2939 H 0.51314 0.65534 0.92495 0.0
H2940 H 0.48644 0.56906 0.96864 0.0
H2941 H 0.48702 0.60096 0.95542 0.0
C2942 C 0.0469 0.75282 0.66857 0.0
C2943 C 0.04514 0.74978 0.64789 0.0
C2944 C 0.0632 0.75009 0.67893 0.0
C2945 C 0.10551 0.72695 0.67309 0.0
H2946 H 0.12528 0.76328 0.71948 0.0
C2947 C 0.18187 0.73848 0.7078 0.0
C2948 C 0.18427 0.74066 0.72845 0.0
C2949 C 0.16396 0.73669 0.69841 0.0
C2950 C 0.11978 0.75284 0.7067 0.0
H2951 H 0.05917 0.74184 0.62185 0.0
H2952 H 0.0878 0.73779 0.63982 0.0
H2953 H 0.09604 0.76669 0.70221 0.0
H2954 H 0.1699 0.7417 0.7555 0.0
H2955 H 0.13862 0.73872 0.73907 0.0
H2956 H 0.12979 0.71366 0.67731 0.0
C2957 C 0.07643 0.74168 0.64813 0.0
C2958 C 0.103 0.75476 0.6968 0.0
C2959 C 0.06006 0.74418 0.63779 0.0
C2960 C 0.16842 0.74007 0.73955 0.0
C2961 C 0.15056 0.73848 0.73017 0.0
C2962 C 0.12244 0.72519 0.68288 0.0
C2963 C 0.07818 0.7445 0.66884 0.0
C2964 C 0.09569 0.74192 0.67979 0.0
C2965 C 0.14822 0.73726 0.70953 0.0
C2966 C 0.12976 0.73819 0.69973 0.0
H2967 H 0.03557 0.75697 0.67677 0.0
H2968 H 0.06392 0.75211 0.69487 0.0
H2969 H 0.10013 0.71654 0.66028 0.0
H2970 H 0.1939 0.73891 0.69894 0.0
H2971 H 0.16256 0.73586 0.68248 0.0
C2972 C 0.0427 0.32389 0.42115 0.0
C2973 C 0.02971 0.32195 0.40477 0.0
C2974 C 0.04655 0.34152 0.43402 0.0
C2975 C 0.04028 0.39462 0.43817 0.0
H2976 H 0.04206 0.38982 0.49435 0.0
C2977 C 0.01721 0.45031 0.49441 0.0
C2978 C 0.02977 0.45863 0.51063 0.0
C2979 C 0.02094 0.43463 0.48174 0.0
C2980 C 0.04193 0.39139 0.4787 0.0
H2981 H 0.01066 0.33697 0.389 0.0
H2982 H 0.01692 0.36727 0.41157 0.0
H2983 H 0.0418 0.36028 0.47118 0.0
H2984 H 0.05561 0.45652 0.52697 0.0
H2985 H 0.06178 0.42816 0.50499 0.0
H2986 H 0.03917 0.42546 0.44575 0.0
C2987 C 0.02456 0.35551 0.4143 0.0
C2988 C 0.04182 0.37452 0.46542 0.0
C2989 C 0.02083 0.33801 0.40141 0.0
C2990 C 0.0458 0.45042 0.51445 0.0
C2991 C 0.04933 0.43431 0.50193 0.0
C2992 C 0.04013 0.41135 0.45141 0.0
C2993 C 0.03742 0.3575 0.4308 0.0
C2994 C 0.04041 0.37583 0.44497 0.0
C2995 C 0.03704 0.42655 0.48532 0.0
C2996 C 0.04044 0.40974 0.47174 0.0
H2997 H 0.04984 0.31178 0.42407 0.0
H2998 H 0.05666 0.34263 0.44648 0.0
H2999 H 0.0397 0.39629 0.42255 0.0
H3000 H 0.00454 0.45608 0.49135 0.0
H3001 H 0.01109 0.42863 0.46921 0.0
C3002 C 0.45673 0.30555 0.18186 0.0
C3003 C 0.45809 0.28665 0.17269 0.0
C3004 C 0.44302 0.30739 0.19524 0.0
C3005 C 0.4106 0.27902 0.22725 0.0
H3006 H 0.37957 0.31817 0.21816 0.0
C3007 C 0.33619 0.27361 0.25462 0.0
C3008 C 0.32934 0.29125 0.25938 0.0
C3009 C 0.35401 0.27445 0.24746 0.0
C3010 C 0.38831 0.30744 0.22125 0.0
H3011 H 0.4465 0.25481 0.17082 0.0
H3012 H 0.42262 0.25806 0.19416 0.0
H3013 H 0.407 0.3171 0.19925 0.0
H3014 H 0.33639 0.3237 0.26157 0.0
H3015 H 0.36765 0.32518 0.24949 0.0
H3016 H 0.39178 0.26916 0.24909 0.0
C3017 C 0.4322 0.27143 0.19107 0.0
C3018 C 0.40402 0.30681 0.21034 0.0
C3019 C 0.44579 0.2696 0.17757 0.0
C3020 C 0.34114 0.30981 0.25784 0.0
C3021 C 0.35903 0.31066 0.2508 0.0
C3022 C 0.39496 0.27974 0.23828 0.0
C3023 C 0.43052 0.29036 0.19986 0.0
C3024 C 0.4151 0.29233 0.21293 0.0
C3025 C 0.36549 0.29297 0.24504 0.0
C3026 C 0.38339 0.29369 0.23512 0.0
H3027 H 0.46604 0.31898 0.17846 0.0
H3028 H 0.44214 0.32216 0.20192 0.0
H3029 H 0.41907 0.26788 0.22975 0.0
H3030 H 0.3275 0.25904 0.25561 0.0
H3031 H 0.3584 0.26052 0.24298 0.0
C3032 C 0.60821 0.49389 0.33945 0.0
C3033 C 0.60265 0.50557 0.32518 0.0
C3034 C 0.59834 0.4914 0.35639 0.0
C3035 C 0.55311 0.49464 0.37726 0.0
H3036 H 0.58252 0.50767 0.42737 0.0
C3037 C 0.54062 0.52278 0.46136 0.0
C3038 C 0.52505 0.50842 0.46525 0.0
C3039 C 0.55044 0.51978 0.44463 0.0
C3040 C 0.57416 0.50391 0.41347 0.0
H3041 H 0.58201 0.52318 0.31709 0.0
H3042 H 0.56469 0.51865 0.34657 0.0
H3043 H 0.59857 0.50675 0.39674 0.0
H3044 H 0.50746 0.4797 0.45483 0.0
H3045 H 0.52446 0.47464 0.42526 0.0
H3046 H 0.52869 0.49224 0.39397 0.0
C3047 C 0.57669 0.51146 0.34466 0.0
C3048 C 0.58332 0.50322 0.39599 0.0
C3049 C 0.58668 0.51416 0.32786 0.0
C3050 C 0.51944 0.49099 0.45215 0.0
C3051 C 0.52912 0.48811 0.43526 0.0
C3052 C 0.54395 0.4951 0.39475 0.0
C3053 C 0.58258 0.50031 0.35921 0.0
C3054 C 0.57287 0.49896 0.37772 0.0
C3055 C 0.54468 0.50252 0.43134 0.0
C3056 C 0.55439 0.50011 0.41299 0.0
H3057 H 0.62046 0.48708 0.33778 0.0
H3058 H 0.60309 0.48263 0.36736 0.0
H3059 H 0.54475 0.4912 0.36335 0.0
H3060 H 0.54501 0.53651 0.47102 0.0
H3061 H 0.56221 0.53127 0.44179 0.0
C3062 C 0.23329 0.85039 0.06599 0.0
C3063 C 0.21954 0.8502 0.0507 0.0
C3064 C 0.2317 0.83481 0.07795 0.0
C3065 C 0.19801 0.79675 0.0976 0.0
H3066 H 0.24332 0.77797 0.1132 0.0
C3067 C 0.23126 0.75053 0.15999 0.0
C3068 C 0.22562 0.76105 0.17652 0.0
C3069 C 0.22636 0.75492 0.14104 0.0
C3070 C 0.23038 0.78258 0.1087 0.0
H3071 H 0.19318 0.83364 0.03614 0.0
H3072 H 0.19027 0.80643 0.05747 0.0
H3073 H 0.24359 0.79885 0.08622 0.0
H3074 H 0.20904 0.78288 0.18643 0.0
H3075 H 0.20065 0.79068 0.15358 0.0
H3076 H 0.18503 0.78114 0.12069 0.0
C3077 C 0.20232 0.81864 0.05998 0.0
C3078 C 0.23062 0.79476 0.0934 0.0
C3079 C 0.204 0.83419 0.04782 0.0
C3080 C 0.21374 0.77473 0.17387 0.0
C3081 C 0.20876 0.77903 0.15501 0.0
C3082 C 0.19776 0.78457 0.11298 0.0
C3083 C 0.21628 0.81873 0.07502 0.0
C3084 C 0.21471 0.80266 0.08829 0.0
C3085 C 0.21565 0.76978 0.13843 0.0
C3086 C 0.2142 0.77809 0.11923 0.0
H3087 H 0.24544 0.86248 0.06862 0.0
H3088 H 0.24248 0.83548 0.08971 0.0
H3089 H 0.18552 0.8026 0.0939 0.0
H3090 H 0.24034 0.7398 0.16172 0.0
H3091 H 0.23169 0.74741 0.12851 0.0
C3092 C 0.89792 0.53363 0.83055 0.0
C3093 C 0.90542 0.54737 0.81759 0.0
C3094 C 0.90743 0.5332 0.84872 0.0
C3095 C 0.94423 0.56058 0.88542 0.0
H3096 H 0.95408 0.50771 0.89227 0.0
C3097 C -0.00207 0.54602 0.94574 0.0
C3098 C 0.99241 0.52868 0.95516 0.0
C3099 C 0.98717 0.54949 0.92926 0.0
C3100 C 0.95126 0.52253 0.89077 0.0
H3101 H 0.92791 0.57243 0.81404 0.0
H3102 H 0.94443 0.57171 0.84587 0.0
H3103 H 0.93392 0.51228 0.86426 0.0
H3104 H 0.97168 0.50122 0.95471 0.0
H3105 H 0.95268 0.50754 0.92673 0.0
H3106 H 0.96147 0.57078 0.91214 0.0
C3107 C 0.93129 0.56124 0.84192 0.0
C3108 C 0.9397 0.52511 0.87473 0.0
C3109 C 0.92189 0.56155 0.82367 0.0
C3110 C 0.9762 0.5148 0.94781 0.0
C3111 C 0.96539 0.51834 0.93162 0.0
C3112 C 0.95568 0.55795 0.90168 0.0
C3113 C 0.92446 0.54665 0.8543 0.0
C3114 C 0.93603 0.54412 0.87193 0.0
C3115 C 0.97077 0.53564 0.92206 0.0
C3116 C 0.95925 0.53886 0.90455 0.0
H3117 H 0.88521 0.5226 0.82629 0.0
H3118 H 0.90181 0.52194 0.85817 0.0
H3119 H 0.94162 0.5754 0.88349 0.0
H3120 H 0.01043 0.5569 0.95115 0.0
H3121 H 0.99179 0.56286 0.92207 0.0
C3122 C 0.26436 0.18106 0.56226 0.0
C3123 C 0.28097 0.18543 0.55238 0.0
C3124 C 0.2635 0.1894 0.58152 0.0
C3125 C 0.28589 0.23106 0.61815 0.0
H3126 H 0.26022 0.19724 0.65497 0.0
C3127 C 0.28459 0.25706 0.70116 0.0
C3128 C 0.26732 0.2518 0.70971 0.0
C3129 C 0.28694 0.24921 0.68201 0.0
C3130 C 0.26728 0.20694 0.64482 0.0
H3131 H 0.3097 0.2022 0.55497 0.0
H3132 H 0.30822 0.21673 0.5888 0.0
H3133 H 0.26333 0.1831 0.62154 0.0
H3134 H 0.2389 0.23434 0.70471 0.0
H3135 H 0.24298 0.22081 0.67134 0.0
H3136 H 0.28975 0.25493 0.64149 0.0
C3137 C 0.29582 0.20693 0.5815 0.0
C3138 C 0.26907 0.19884 0.62566 0.0
C3139 C 0.29669 0.19854 0.56217 0.0
C3140 C 0.25242 0.23865 0.69863 0.0
C3141 C 0.25478 0.23079 0.67953 0.0
C3142 C 0.2841 0.23918 0.63735 0.0
C3143 C 0.27924 0.20233 0.59142 0.0
C3144 C 0.27821 0.21084 0.61204 0.0
C3145 C 0.27209 0.2359 0.67103 0.0
C3146 C 0.2746 0.22724 0.65083 0.0
H3147 H 0.25194 0.17113 0.55514 0.0
H3148 H 0.25041 0.18584 0.5886 0.0
H3149 H 0.29285 0.24075 0.60794 0.0
H3150 H 0.29638 0.26715 0.70926 0.0
H3151 H 0.3005 0.25331 0.67594 0.0
C3152 C 0.61184 0.51498 0.21961 0.0
C3153 C 0.60077 0.50695 0.23434 0.0
C3154 C 0.60347 0.52105 0.20298 0.0
C3155 C 0.558 0.51506 0.17389 0.0
H3156 H 0.5837 0.56188 0.15122 0.0
C3157 C 0.5257 0.54345 0.10615 0.0
C3158 C 0.53764 0.54548 0.09059 0.0
C3159 C 0.53295 0.5417 0.12509 0.0
C3160 C 0.57638 0.54879 0.15742 0.0
H3161 H 0.57222 0.49895 0.24318 0.0
H3162 H 0.55758 0.50992 0.21427 0.0
H3163 H 0.59693 0.55238 0.1817 0.0
H3164 H 0.56656 0.54856 0.08269 0.0
H3165 H 0.5793 0.54574 0.11591 0.0
H3166 H 0.53747 0.51151 0.14956 0.0
C3167 C 0.57273 0.5112 0.21541 0.0
C3168 C 0.58399 0.54326 0.17479 0.0
C3169 C 0.58111 0.50494 0.232 0.0
C3170 C 0.55708 0.54701 0.09448 0.0
C3171 C 0.56436 0.54545 0.11347 0.0
C3172 C 0.55032 0.52071 0.15663 0.0
C3173 C 0.58383 0.51944 0.20075 0.0
C3174 C 0.57506 0.52612 0.18305 0.0
C3175 C 0.55227 0.54215 0.1288 0.0
C3176 C 0.55958 0.53745 0.14808 0.0
H3177 H 0.62703 0.51661 0.22092 0.0
H3178 H 0.61243 0.52688 0.19178 0.0
H3179 H 0.55088 0.50163 0.17965 0.0
H3180 H 0.51064 0.54226 0.10353 0.0
H3181 H 0.52337 0.5394 0.13672 0.0
C3182 C 0.24152 0.85752 0.96124 0.0
C3183 C 0.25297 0.87673 0.96385 0.0
C3184 C 0.24165 0.84494 0.94399 0.0
C3185 C 0.26971 0.83727 0.90107 0.0
H3186 H 0.22216 0.80671 0.87696 0.0
C3187 C 0.25943 0.80332 0.82018 0.0
C3188 C 0.24806 0.78424 0.81574 0.0
C3189 C 0.26125 0.81283 0.83931 0.0
C3190 C 0.23558 0.8149 0.88368 0.0
H3191 H 0.27347 0.89782 0.9504 0.0
H3192 H 0.27338 0.87603 0.92009 0.0
H3193 H 0.22272 0.82715 0.9082 0.0
H3194 H 0.23004 0.75987 0.82777 0.0
H3195 H 0.23309 0.77665 0.86135 0.0
H3196 H 0.28245 0.82539 0.87619 0.0
C3197 C 0.26459 0.87054 0.93154 0.0
C3198 C 0.23591 0.82662 0.90158 0.0
C3199 C 0.26453 0.88309 0.94885 0.0
C3200 C 0.23886 0.77461 0.83084 0.0
C3201 C 0.24055 0.78422 0.84999 0.0
C3202 C 0.26935 0.82562 0.88312 0.0
C3203 C 0.25315 0.85131 0.92892 0.0
C3204 C 0.25295 0.83812 0.91037 0.0
C3205 C 0.2516 0.80352 0.85434 0.0
C3206 C 0.25226 0.8145 0.87415 0.0
H3207 H 0.23254 0.85211 0.97259 0.0
H3208 H 0.23287 0.83013 0.94255 0.0
H3209 H 0.28311 0.84564 0.90765 0.0
H3210 H 0.26659 0.81113 0.80878 0.0
H3211 H 0.26966 0.8278 0.84217 0.0
C3212 C 0.95511 0.56559 0.72034 0.0
C3213 C 0.95381 0.55416 0.73645 0.0
C3214 C 0.97017 0.56595 0.70836 0.0
C3215 C -0.00225 0.53186 0.6893 0.0
H3216 H 0.02351 0.57695 0.66426 0.0
C3217 C 0.02834 0.51739 0.61561 0.0
C3218 C 0.02408 0.52982 0.60153 0.0
C3219 C 0.02707 0.52294 0.6356 0.0
C3220 C 0.01641 0.56418 0.67107 0.0
H3221 H 0.96779 0.53514 0.7534 0.0
H3222 H 0.99385 0.53531 0.73201 0.0
H3223 H 0.00716 0.58289 0.69403 0.0
H3224 H 0.0162 0.55817 0.59699 0.0
H3225 H 0.01277 0.56736 0.63161 0.0
H3226 H 0.00519 0.51307 0.66566 0.0
C3227 C 0.98329 0.54411 0.72885 0.0
C3228 C 0.00722 0.56762 0.68819 0.0
C3229 C 0.96837 0.544 0.74101 0.0
C3230 C 0.01951 0.54833 0.60767 0.0
C3231 C 0.01776 0.55367 0.62759 0.0
C3232 C 0.00658 0.52841 0.67203 0.0
C3233 C 0.98404 0.55468 0.71215 0.0
C3234 C -0.00272 0.55147 0.69701 0.0
C3235 C 0.02096 0.54075 0.64178 0.0
C3236 C 0.0154 0.54452 0.66224 0.0
H3237 H 0.94417 0.57372 0.71661 0.0
H3238 H 0.97034 0.57402 0.69542 0.0
H3239 H 0.98999 0.51915 0.69572 0.0
H3240 H 0.03222 0.50317 0.61115 0.0
H3241 H 0.03017 0.51288 0.64611 0.0
C3242 C 0.28126 0.1936 0.44624 0.0
C3243 C 0.26991 0.1983 0.46142 0.0
C3244 C 0.28413 0.20551 0.43069 0.0
C3245 C 0.29466 0.23897 0.40411 0.0
H3246 H 0.24971 0.25231 0.37987 0.0
C3247 C 0.29457 0.28812 0.33867 0.0
C3248 C 0.2806 0.28059 0.32344 0.0
C3249 C 0.29455 0.27911 0.35628 0.0
C3250 C 0.26239 0.2487 0.38649 0.0
H3251 H 0.25311 0.21953 0.47245 0.0
H3252 H 0.25806 0.24025 0.44521 0.0
H3253 H 0.24762 0.23517 0.40967 0.0
H3254 H 0.25591 0.25759 0.31447 0.0
H3255 H 0.25588 0.24195 0.34507 0.0
H3256 H 0.30932 0.25222 0.38059 0.0
C3257 C 0.26463 0.22727 0.44532 0.0
C3258 C 0.26123 0.23907 0.40365 0.0
C3259 C 0.26186 0.21544 0.46095 0.0
C3260 C 0.26684 0.26374 0.32596 0.0
C3261 C 0.26674 0.25487 0.34354 0.0
C3262 C 0.29585 0.24879 0.38698 0.0
C3263 C 0.27562 0.2223 0.42991 0.0
C3264 C 0.27729 0.23386 0.41251 0.0
C3265 C 0.28045 0.26257 0.35896 0.0
C3266 C 0.27965 0.25344 0.37784 0.0
H3267 H 0.28772 0.18054 0.4462 0.0
H3268 H 0.29251 0.20119 0.41893 0.0
H3269 H 0.3073 0.23526 0.41071 0.0
H3270 H 0.30534 0.30109 0.33706 0.0
H3271 H 0.30526 0.28536 0.36796 0.0
C3272 C 0.323 0.59801 0.52075 0.0
C3273 C 0.31354 0.59688 0.50211 0.0
C3274 C 0.33626 0.58609 0.52399 0.0
C3275 C 0.35413 0.54171 0.50307 0.0
H3276 H 0.40012 0.56837 0.53331 0.0
C3277 C 0.42564 0.5161 0.4999 0.0
C3278 C 0.43763 0.51959 0.51715 0.0
C3279 C 0.40814 0.52187 0.49986 0.0
C3280 C 0.38723 0.56054 0.52516 0.0
H3281 H 0.31031 0.58212 0.47231 0.0
H3282 H 0.33394 0.56169 0.47781 0.0
H3283 H 0.37434 0.58605 0.52946 0.0
H3284 H 0.44026 0.53018 0.54824 0.0
H3285 H 0.4096 0.54007 0.54824 0.0
H3286 H 0.36752 0.5164 0.49823 0.0
C3287 C 0.33082 0.57151 0.49004 0.0
C3288 C 0.37243 0.5707 0.52293 0.0
C3289 C 0.3174 0.58333 0.48684 0.0
C3290 C 0.43131 0.5275 0.5347 0.0
C3291 C 0.41383 0.53324 0.53467 0.0
C3292 C 0.36904 0.53154 0.50523 0.0
C3293 C 0.34054 0.57291 0.50861 0.0
C3294 C 0.35576 0.56149 0.51173 0.0
C3295 C 0.4024 0.53121 0.51709 0.0
C3296 C 0.38579 0.54094 0.51618 0.0
H3297 H 0.32016 0.60811 0.53291 0.0
H3298 H 0.34322 0.58726 0.53857 0.0
H3299 H 0.34137 0.53411 0.49456 0.0
H3300 H 0.43022 0.50998 0.48619 0.0
H3301 H 0.39968 0.5202 0.48607 0.0
C3302 C 0.81714 0.91985 0.51035 0.0
C3303 C 0.80398 0.92882 0.52049 0.0
C3304 C 0.83549 0.9303 0.50927 0.0
C3305 C 0.86545 0.98098 0.51562 0.0
H3306 H 0.90551 0.95134 0.52314 0.0
C3307 C 0.94427 0.01803 0.53144 0.0
C3308 C 0.9575 0.00817 0.52251 0.0
C3309 C 0.92513 0.00928 0.5295 0.0
C3310 C 0.89449 0.95977 0.52074 0.0
H3311 H 0.79963 0.95597 0.53714 0.0
H3312 H 0.83186 0.97415 0.53557 0.0
H3313 H 0.87289 0.93435 0.52325 0.0
H3314 H 0.96114 0.98194 0.50386 0.0
H3315 H 0.92773 0.96672 0.50036 0.0
H3316 H 0.88725 0.00652 0.51345 0.0
C3317 C 0.82789 0.95909 0.52822 0.0
C3318 C 0.87578 0.95003 0.5208 0.0
C3319 C 0.80946 0.94864 0.52922 0.0
C3320 C 0.95124 0.9898 0.51101 0.0
C3321 C 0.93214 0.98104 0.5091 0.0
C3322 C 0.88423 0.99076 0.51562 0.0
C3323 C 0.84116 0.94994 0.51841 0.0
C3324 C 0.86103 0.96049 0.51821 0.0
C3325 C 0.91892 0.99049 0.51864 0.0
C3326 C 0.89894 0.98023 0.51815 0.0
H3327 H 0.81333 0.90467 0.50328 0.0
H3328 H 0.84525 0.92294 0.50127 0.0
H3329 H 0.8544 0.9894 0.51337 0.0
H3330 H 0.94876 0.03225 0.54034 0.0
H3331 H 0.91529 0.01686 0.53712 0.0
C3332 C 0.8379 0.08523 0.2494 0.0
C3333 C 0.85544 0.08917 0.26024 0.0
C3334 C 0.82546 0.09847 0.25171 0.0
C3335 C 0.81499 0.14005 0.2853 0.0
H3336 H 0.79086 0.15423 0.23812 0.0
C3337 C 0.78617 0.21254 0.28203 0.0
C3338 C 0.7701 0.21236 0.26954 0.0
C3339 C 0.79379 0.19533 0.28282 0.0
C3340 C 0.79717 0.15015 0.25148 0.0
H3341 H 0.87363 0.11005 0.28208 0.0
H3342 H 0.85205 0.1333 0.28587 0.0
H3343 H 0.80993 0.12848 0.23543 0.0
H3344 H 0.74877 0.19361 0.249 0.0
H3345 H 0.76209 0.16348 0.25049 0.0
H3346 H 0.8026 0.16216 0.30127 0.0
C3347 C 0.84779 0.11981 0.27582 0.0
C3348 C 0.80814 0.13541 0.24994 0.0
C3349 C 0.86022 0.10657 0.27352 0.0
C3350 C 0.76121 0.19429 0.2587 0.0
C3351 C 0.7689 0.17706 0.25945 0.0
C3352 C 0.80402 0.15481 0.28685 0.0
C3353 C 0.83029 0.11594 0.2649 0.0
C3354 C 0.81744 0.13045 0.26679 0.0
C3355 C 0.78554 0.17755 0.27114 0.0
C3356 C 0.79526 0.16026 0.26991 0.0
H3357 H 0.83373 0.07189 0.23913 0.0
H3358 H 0.81201 0.09495 0.24324 0.0
H3359 H 0.8217 0.13629 0.29859 0.0
H3360 H 0.79332 0.22618 0.29068 0.0
H3361 H 0.80671 0.19627 0.29185 0.0
C3362 C 0.71607 0.08437 0.01961 0.0
C3363 C 0.72494 0.09395 0.00431 0.0
C3364 C 0.69749 0.074 0.01671 0.0
C3365 C 0.65425 0.07208 0.98524 0.0
H3366 H 0.63574 0.02716 0.01443 0.0
C3367 C 0.5753 0.03411 0.9847 0.0
C3368 C 0.56882 0.03409 0.00375 0.0
C3369 C 0.59459 0.03892 0.98211 0.0
C3370 C 0.64078 0.03962 0.00611 0.0
H3371 H 0.72166 0.09939 0.97366 0.0
H3372 H 0.6893 0.08079 0.96842 0.0
H3373 H 0.66961 0.03926 0.01398 0.0
H3374 H 0.57737 0.03854 0.03499 0.0
H3375 H 0.61101 0.04658 0.03041 0.0
H3376 H 0.62526 0.07235 0.97749 0.0
C3377 C 0.69655 0.08172 0.98282 0.0
C3378 C 0.66012 0.04664 0.00593 0.0
C3379 C 0.71511 0.0923 0.98579 0.0
C3380 C 0.58194 0.03861 0.02013 0.0
C3381 C 0.60118 0.04302 0.01753 0.0
C3382 C 0.63489 0.06485 0.98519 0.0
C3383 C 0.6874 0.07276 -0.00164 0.0
C3384 C 0.66708 0.06337 0.99603 0.0
C3385 C 0.60765 0.04331 -0.00147 0.0
C3386 C 0.62802 0.04896 0.99611 0.0
H3387 H 0.72325 0.08542 0.03407 0.0
H3388 H 0.69084 0.06763 0.02914 0.0
H3389 H 0.65905 0.08513 0.97765 0.0
H3390 H 0.56548 0.03068 0.97182 0.0
H3391 H 0.59933 0.03909 0.96732 0.0
C3392 C 0.16269 0.45697 0.24668 0.0
C3393 C 0.158 0.4651 0.26498 0.0
C3394 C 0.17844 0.44804 0.2454 0.0
C3395 C 0.22244 0.44288 0.27321 0.0
H3396 H 0.21556 0.39265 0.23989 0.0
C3397 C 0.26307 0.37962 0.28433 0.0
C3398 C 0.26617 0.36743 0.26764 0.0
C3399 C 0.25397 0.39567 0.28225 0.0
C3400 C 0.21791 0.40688 0.24894 0.0
H3401 H 0.16619 0.4704 0.29627 0.0
H3402 H 0.19333 0.45419 0.29414 0.0
H3403 H 0.19089 0.41218 0.23974 0.0
H3404 H 0.26404 0.36344 0.2357 0.0
H3405 H 0.24827 0.39159 0.23206 0.0
H3406 H 0.24921 0.43689 0.28305 0.0
C3407 C 0.18512 0.45514 0.2807 0.0
C3408 C 0.20373 0.41809 0.24888 0.0
C3409 C 0.16945 0.46425 0.28196 0.0
C3410 C 0.26163 0.37255 0.24881 0.0
C3411 C 0.25254 0.38858 0.24673 0.0
C3412 C 0.23662 0.43156 0.27336 0.0
C3413 C 0.18975 0.44685 0.26242 0.0
C3414 C 0.20566 0.43604 0.26126 0.0
C3415 C 0.24786 0.39971 0.26345 0.0
C3416 C 0.23434 0.41328 0.26145 0.0
H3417 H 0.15427 0.45762 0.23329 0.0
H3418 H 0.18177 0.44207 0.23105 0.0
H3419 H 0.22449 0.45683 0.28267 0.0
H3420 H 0.26651 0.37598 0.299 0.0
H3421 H 0.25047 0.40393 0.2954 0.0
C3422 C 0.19854 0.44788 0.04301 0.0
C3423 C 0.20988 0.44975 0.02691 0.0
C3424 C 0.1832 0.45751 0.04426 0.0
C3425 C 0.16174 0.49736 0.02439 0.0
H3426 H 0.11516 0.46504 0.03807 0.0
C3427 C 0.08842 0.51588 0.00718 0.0
C3428 C 0.07457 0.51129 0.02057 0.0
C3429 C 0.10607 0.51077 0.01016 0.0
C3430 C 0.1281 0.47443 0.03457 0.0
H3431 H 0.21433 0.4637 -0.00018 0.0
H3432 H 0.1874 0.4803 0.0019 0.0
H3433 H 0.14395 0.45168 0.03921 0.0
H3434 H 0.06844 0.49871 0.04804 0.0
H3435 H 0.09936 0.49003 0.05345 0.0
H3436 H 0.1457 0.51998 0.01938 0.0
C3437 C 0.1905 0.47156 0.01366 0.0
C3438 C 0.14463 0.46675 0.03521 0.0
C3439 C 0.20586 0.46194 0.0124 0.0
C3440 C 0.07887 0.50229 0.03742 0.0
C3441 C 0.09652 0.49722 0.04045 0.0
C3442 C 0.14517 0.50507 0.02376 0.0
C3443 C 0.17883 0.46921 0.02946 0.0
C3444 C 0.1616 0.47803 0.02994 0.0
C3445 C 0.11018 0.50101 0.02663 0.0
C3446 C 0.12812 0.4936 0.02866 0.0
H3447 H 0.20133 0.43873 0.05452 0.0
H3448 H 0.17465 0.45565 0.05678 0.0
H3449 H 0.17465 0.50652 0.02049 0.0
H3450 H 0.08543 0.5228 0.99404 0.0
H3451 H 0.11619 0.51372 -0.00086 0.0
C3452 C 0.84641 0.97283 0.24691 0.0
C3453 C 0.84288 0.98259 0.23028 0.0
C3454 C 0.83669 0.95354 0.24867 0.0
C3455 C 0.80973 0.9081 0.22008 0.0
H3456 H 0.7933 0.89534 0.27139 0.0
C3457 C 0.76335 0.83244 0.23375 0.0
C3458 C 0.76855 0.82395 0.25063 0.0
C3459 C 0.77222 0.85171 0.23046 0.0
C3460 C 0.79796 0.89864 0.25702 0.0
H3461 H 0.82642 0.97972 0.20241 0.0
H3462 H 0.8092 0.9459 0.20563 0.0
H3463 H 0.80852 0.92943 0.26705 0.0
H3464 H 0.78719 0.82863 0.27715 0.0
H3465 H 0.80277 0.86229 0.27138 0.0
H3466 H 0.79906 0.87721 0.21011 0.0
C3467 C 0.81966 0.9532 0.21719 0.0
C3468 C 0.80666 0.91815 0.25452 0.0
C3469 C 0.82944 0.97258 0.21539 0.0
C3470 C 0.78292 0.83487 0.26403 0.0
C3471 C 0.79173 0.85416 0.26079 0.0
C3472 C 0.80094 0.88855 0.22257 0.0
C3473 C 0.82315 0.94353 0.23391 0.0
C3474 C 0.81286 0.92305 0.2361 0.0
C3475 C 0.78635 0.86284 0.24407 0.0
C3476 C 0.79517 0.88361 0.24114 0.0
H3477 H 0.85676 0.98004 0.2586 0.0
H3478 H 0.83997 0.94636 0.26155 0.0
H3479 H 0.81453 0.91138 0.20576 0.0
H3480 H 0.75231 0.82426 0.22319 0.0
H3481 H 0.76771 0.85809 0.21753 0.0
C3482 C 0.65822 0.0614 0.77093 0.0
C3483 C 0.6386 0.05987 0.76841 0.0
C3484 C 0.67022 0.08006 0.77294 0.0
C3485 C 0.67276 0.13431 0.78381 0.0
H3486 H 0.71401 0.13833 0.74934 0.0
C3487 C 0.7254 0.19913 0.74726 0.0
C3488 C 0.73238 0.21262 0.7639 0.0
C3489 C 0.71499 0.18019 0.74939 0.0
C3490 C 0.70257 0.13742 0.75905 0.0
H3491 H 0.61615 0.07679 0.76709 0.0
H3492 H 0.63723 0.10953 0.77056 0.0
H3493 H 0.69342 0.10602 0.75096 0.0
H3494 H 0.73407 0.21669 0.79589 0.0
H3495 H 0.71575 0.18354 0.79955 0.0
H3496 H 0.68177 0.1659 0.79156 0.0
C3497 C 0.64325 0.09621 0.771 0.0
C3498 C 0.69089 0.11891 0.76012 0.0
C3499 C 0.6312 0.07748 0.76894 0.0
C3500 C 0.72894 0.20663 0.78276 0.0
C3501 C 0.71835 0.18773 0.78488 0.0
C3502 C 0.68457 0.15285 0.78286 0.0
C3503 C 0.66289 0.09763 0.77254 0.0
C3504 C 0.67576 0.11719 0.77237 0.0
C3505 C 0.71119 0.17439 0.7682 0.0
C3506 C 0.69944 0.1546 0.77027 0.0
H3507 H 0.66441 0.04814 0.77083 0.0
H3508 H 0.68529 0.08074 0.77445 0.0
H3509 H 0.66127 0.13337 0.79345 0.0
H3510 H 0.72782 0.20324 0.73253 0.0
H3511 H 0.7095 0.17025 0.73628 0.0
loop_
_geom_bond_atom_site_label_1
_geom_bond_atom_site_label_2
_geom_bond_distance
_geom_bond_site_symmetry_2
_ccdc_geom_bond_type
C0 O1 1.160 . S
C0 O7 1.185 . S
O1 C0 1.160 . S
O2 Zn3 1.899 . S
O2 C10 1.284 . S
Zn3 O2 1.899 . S
Zn3 O4 2.032 . S
Zn3 O7 2.086 . S
Zn3 O12 1.977 1_455 S
O4 Zn3 2.032 . S
O4 C8 1.278 . S
C5 O6 1.203 . S
C5 O12 1.267 . S
O6 C5 1.203 . S
O7 C0 1.185 . S
O7 Zn3 2.086 . S
C8 O4 1.278 . S
C8 O9 1.211 1_455 S
O9 C8 1.211 1_655 S
C10 O2 1.284 . S
C10 O11 1.273 . S
O11 C10 1.273 . S
O12 Zn3 1.977 1_655 S
O12 C5 1.267 . S
C13 O14 1.160 . S
C13 O20 1.185 . S
O14 C13 1.160 . S
O15 Zn16 1.899 . S
O15 C23 1.284 . S
Zn16 O15 1.899 . S
Zn16 O17 2.036 . S
Zn16 O20 2.086 1_455 S
Zn16 O25 1.977 . S
O17 Zn16 2.036 . S
O17 C21 1.287 . S
C18 O19 1.203 . S
C18 O25 1.267 . S
O19 C18 1.203 . S
O20 C13 1.185 . S
O20 Zn16 2.086 1_655 S
C21 O17 1.287 . S
C21 O22 1.211 . S
O22 C21 1.211 . S
C23 O15 1.284 . S
C23 O24 1.273 . S
O24 C23 1.273 . S
O25 Zn16 1.977 . S
O25 C18 1.267 . S
C26 O27 1.160 . S
C26 O33 1.185 . S
O27 C26 1.160 . S
O28 Zn29 1.899 . S
O28 C36 1.284 . S
Zn29 O28 1.899 . S
Zn29 O30 2.032 . S
Zn29 O33 2.086 . S
Zn29 O38 1.977 . S
O30 Zn29 2.032 . S
O30 C34 1.278 . S
C31 O32 1.203 . S
C31 O38 1.267 . S
O32 C31 1.203 . S
O33 C26 1.185 . S
O33 Zn29 2.086 . S
C34 O30 1.278 . S
C34 O35 1.211 . S
O35 C34 1.211 . S
C36 O28 1.284 . S
C36 O37 1.273 . S
O37 C36 1.273 . S
O38 Zn29 1.977 . S
O38 C31 1.267 . S
C39 O40 1.160 . S
C39 O46 1.185 . S
O40 C39 1.160 . S
O41 Zn42 1.899 . S
O41 C49 1.284 . S
Zn42 O41 1.899 . S
Zn42 O43 2.032 . S
Zn42 O46 2.086 . S
Zn42 O51 1.977 . S
O43 Zn42 2.032 . S
O43 C47 1.278 . S
C44 O45 1.203 . S
C44 O51 1.267 . S
O45 C44 1.203 . S
O46 C39 1.185 . S
O46 Zn42 2.086 . S
C47 O43 1.278 . S
C47 O48 1.211 . S
O48 C47 1.211 . S
C49 O41 1.284 . S
C49 O50 1.273 . S
O50 C49 1.273 . S
O51 Zn42 1.977 . S
O51 C44 1.267 . S
C52 O53 1.160 . S
C52 O59 1.185 . S
O53 C52 1.160 . S
O54 Zn55 1.899 . S
O54 C62 1.284 . S
Zn55 O54 1.899 . S
Zn55 O56 2.032 . S
Zn55 O59 2.086 1_455 S
Zn55 O64 1.977 . S
O56 Zn55 2.032 . S
O56 C60 1.278 . S
C57 O58 1.203 . S
C57 O64 1.267 . S
O58 C57 1.203 . S
O59 C52 1.185 . S
O59 Zn55 2.086 1_655 S
C60 O56 1.278 . S
C60 O61 1.211 . S
O61 C60 1.211 . S
C62 O54 1.284 . S
C62 O63 1.273 . S
O63 C62 1.273 . S
O64 Zn55 1.977 . S
O64 C57 1.267 . S
C65 O66 1.160 . S
C65 O72 1.185 . S
O66 C65 1.160 . S
O67 Zn68 1.899 . S
O67 C75 1.284 . S
Zn68 O67 1.899 . S
Zn68 O69 2.032 . S
Zn68 O72 2.086 . S
Zn68 O77 1.977 . S
O69 Zn68 2.032 . S
O69 C73 1.278 . S
C70 O71 1.203 . S
C70 O77 1.267 . S
O71 C70 1.203 . S
O72 C65 1.185 . S
O72 Zn68 2.086 . S
C73 O69 1.278 . S
C73 O74 1.211 . S
O74 C73 1.211 . S
C75 O67 1.284 . S
C75 O76 1.273 . S
O76 C75 1.273 . S
O77 Zn68 1.977 . S
O77 C70 1.267 . S
C78 O79 1.160 . S
C78 O85 1.185 . S
O79 C78 1.160 . S
O80 Zn81 1.899 . S
O80 C88 1.284 . S
Zn81 O80 1.899 . S
Zn81 O82 2.032 . S
Zn81 O85 2.086 . S
Zn81 O90 1.977 . S
O82 Zn81 2.032 . S
O82 C86 1.278 . S
C83 O84 1.203 . S
C83 O90 1.267 . S
O84 C83 1.203 . S
O85 C78 1.185 . S
O85 Zn81 2.086 . S
C86 O82 1.278 . S
C86 O87 1.211 . S
O87 C86 1.211 . S
C88 O80 1.284 . S
C88 O89 1.273 . S
O89 C88 1.273 . S
O90 Zn81 1.977 . S
O90 C83 1.267 . S
C91 O92 1.160 . S
C91 O98 1.185 . S
O92 C91 1.160 . S
O93 Zn94 1.899 . S
O93 C101 1.280 1_455 S
Zn94 O93 1.899 . S
Zn94 O95 2.032 . S
Zn94 O98 2.086 . S
Zn94 O103 1.977 1_455 S
O95 Zn94 2.032 . S
O95 C99 1.278 . S
C96 O97 1.203 . S
C96 O103 1.267 . S
O97 C96 1.203 . S
O98 C91 1.185 . S
O98 Zn94 2.086 . S
C99 O95 1.278 . S
C99 O100 1.211 1_455 S
O100 C99 1.211 1_655 S
C101 O93 1.280 1_655 S
C101 O102 1.281 . S
O102 C101 1.281 . S
O103 Zn94 1.977 1_655 S
O103 C96 1.267 . S
C104 O105 1.160 . S
C104 O111 1.185 . S
O105 C104 1.160 . S
O106 Zn107 1.899 . S
O106 C114 1.284 . S
Zn107 O106 1.899 . S
Zn107 O108 2.032 . S
Zn107 O111 2.086 . S
Zn107 O116 2.003 . S
O108 Zn107 2.032 . S
O108 C112 1.278 . S
C109 O110 1.203 . S
C109 O116 1.235 1_565 S
O110 C109 1.203 . S
O111 C104 1.185 . S
O111 Zn107 2.086 . S
C112 O108 1.278 . S
C112 O113 1.211 . S
O113 C112 1.211 . S
C114 O106 1.284 . S
C114 O115 1.273 . S
O115 C114 1.273 . S
O116 Zn107 2.003 . S
O116 C109 1.235 1_545 S
C117 O118 1.160 . S
C117 O124 1.185 . S
O118 C117 1.160 . S
O119 Zn120 1.899 . S
O119 C127 1.284 . S
Zn120 O119 1.899 . S
Zn120 O121 2.032 . S
Zn120 O124 2.086 . S
Zn120 O129 1.977 . S
O121 Zn120 2.032 . S
O121 C125 1.278 . S
C122 O123 1.203 . S
C122 O129 1.267 . S
O123 C122 1.203 . S
O124 C117 1.185 . S
O124 Zn120 2.086 . S
C125 O121 1.278 . S
C125 O126 1.211 . S
O126 C125 1.211 . S
C127 O119 1.284 . S
C127 O128 1.273 . S
O128 C127 1.273 . S
O129 Zn120 1.977 . S
O129 C122 1.267 . S
C130 O131 1.160 . S
C130 O137 1.185 . S
O131 C130 1.160 . S
O132 Zn133 1.899 . S
O132 C140 1.284 . S
Zn133 O132 1.899 . S
Zn133 O134 2.032 . S
Zn133 O137 2.086 . S
Zn133 O142 1.977 1_565 S
O134 Zn133 2.032 . S
O134 C138 1.278 1_565 S
C135 O136 1.203 . S
C135 O142 1.267 . S
O136 C135 1.203 . S
O137 C130 1.185 . S
O137 Zn133 2.086 . S
C138 O134 1.278 1_545 S
C138 O139 1.211 . S
O139 C138 1.211 . S
C140 O132 1.284 . S
C140 O141 1.273 1_565 S
O141 C140 1.273 1_545 S
O142 Zn133 1.977 1_545 S
O142 C135 1.267 . S
C143 O144 1.160 . S
C143 O150 1.185 . S
O144 C143 1.160 . S
O145 Zn146 1.899 . S
O145 C153 1.284 . S
Zn146 O145 1.899 . S
Zn146 O147 2.032 . S
Zn146 O150 2.086 . S
Zn146 O155 1.977 . S
O147 Zn146 2.032 . S
O147 C151 1.278 1_554 S
C148 O149 1.203 . S
C148 O155 1.267 . S
O149 C148 1.203 . S
O150 C143 1.185 . S
O150 Zn146 2.086 . S
C151 O147 1.278 1_556 S
C151 O152 1.211 . S
O152 C151 1.211 . S
C153 O145 1.284 . S
C153 O154 1.273 . S
O154 C153 1.273 . S
O155 Zn146 1.977 . S
O155 C148 1.267 . S
C156 O157 1.160 . S
C156 O163 1.185 . S
O157 C156 1.160 . S
O158 Zn159 1.899 . S
O158 C166 1.284 . S
Zn159 O158 1.899 . S
Zn159 O160 2.032 1_554 S
Zn159 O163 2.086 . S
Zn159 O168 1.977 . S
O160 Zn159 2.032 1_556 S
O160 C164 1.278 . S
C161 O162 1.203 . S
C161 O168 1.267 . S
O162 C161 1.203 . S
O163 C156 1.185 . S
O163 Zn159 2.086 . S
C164 O160 1.278 . S
C164 O165 1.211 . S
O165 C164 1.211 . S
C166 O158 1.284 . S
C166 O167 1.273 . S
O167 C166 1.273 . S
O168 Zn159 1.977 . S
O168 C161 1.267 . S
C169 O170 1.160 . S
C169 O176 1.185 1_554 S
O170 C169 1.160 . S
O171 Zn172 1.899 . S
O171 C179 1.284 . S
Zn172 O171 1.899 . S
Zn172 O173 2.032 1_554 S
Zn172 O176 2.086 1_554 S
Zn172 O181 1.977 1_554 S
O173 Zn172 2.032 1_556 S
O173 C177 1.278 . S
C174 O175 1.220 . S
C174 O181 1.255 1_554 S
O175 C174 1.220 . S
O176 C169 1.185 1_556 S
O176 Zn172 2.086 1_556 S
C177 O173 1.278 . S
C177 O178 1.211 . S
O178 C177 1.211 . S
C179 O171 1.284 . S
C179 O180 1.273 . S
O180 C179 1.273 . S
O181 Zn172 1.977 1_556 S
O181 C174 1.255 1_556 S
C182 O183 1.160 . S
C182 O189 1.185 . S
O183 C182 1.160 . S
O184 Zn185 1.899 . S
O184 C192 1.284 . S
Zn185 O184 1.899 . S
Zn185 O186 2.032 . S
Zn185 O189 2.086 . S
Zn185 O194 1.977 . S
O186 Zn185 2.032 . S
O186 C190 1.278 . S
C187 O188 1.203 . S
C187 O194 1.267 . S
O188 C187 1.203 . S
O189 C182 1.185 . S
O189 Zn185 2.086 . S
C190 O186 1.278 . S
C190 O191 1.211 . S
O191 C190 1.211 . S
C192 O184 1.284 . S
C192 O193 1.273 . S
O193 C192 1.273 . S
O194 Zn185 1.977 . S
O194 C187 1.267 . S
C195 O196 1.160 . S
C195 O202 1.185 . S
O196 C195 1.160 . S
O197 Zn198 1.899 . S
O197 C205 1.284 . S
Zn198 O197 1.899 . S
Zn198 O199 2.032 . S
Zn198 O202 2.086 . S
Zn198 O207 1.977 . S
O199 Zn198 2.032 . S
O199 C203 1.278 . S
C200 O201 1.203 . S
C200 O207 1.267 . S
O201 C200 1.203 . S
O202 C195 1.185 . S
O202 Zn198 2.086 . S
C203 O199 1.278 . S
C203 O204 1.211 . S
O204 C203 1.211 . S
C205 O197 1.284 . S
C205 O206 1.273 . S
O206 C205 1.273 . S
O207 Zn198 1.977 . S
O207 C200 1.267 . S
C208 O209 1.160 . S
C208 O215 1.185 . S
O209 C208 1.160 . S
O210 Zn211 1.899 . S
O210 C218 1.284 . S
Zn211 O210 1.899 . S
Zn211 O212 2.032 . S
Zn211 O215 2.086 . S
Zn211 O220 1.977 . S
O212 Zn211 2.032 . S
O212 C216 1.278 . S
C213 O214 1.203 . S
C213 O220 1.267 . S
O214 C213 1.203 . S
O215 C208 1.185 . S
O215 Zn211 2.086 . S
C216 O212 1.278 . S
C216 O217 1.211 . S
O217 C216 1.211 . S
C218 O210 1.284 . S
C218 O219 1.273 . S
O219 C218 1.273 . S
O220 Zn211 1.977 . S
O220 C213 1.267 . S
C221 O222 1.160 . S
C221 O228 1.185 . S
O222 C221 1.160 . S
O223 Zn224 1.899 . S
O223 C231 1.284 . S
Zn224 O223 1.899 . S
Zn224 O225 2.032 . S
Zn224 O228 2.086 . S
Zn224 O233 1.977 . S
O225 Zn224 2.032 . S
O225 C229 1.278 . S
C226 O227 1.203 . S
C226 O233 1.267 . S
O227 C226 1.203 . S
O228 C221 1.185 . S
O228 Zn224 2.086 . S
C229 O225 1.278 . S
C229 O230 1.211 . S
O230 C229 1.211 . S
C231 O223 1.284 . S
C231 O232 1.273 . S
O232 C231 1.273 . S
O233 Zn224 1.977 . S
O233 C226 1.267 . S
C234 O235 1.160 . S
C234 O241 1.185 . S
O235 C234 1.160 . S
O236 Zn237 1.899 . S
O236 C244 1.284 . S
Zn237 O236 1.899 . S
Zn237 O238 2.032 . S
Zn237 O241 2.086 . S
Zn237 O246 1.977 . S
O238 Zn237 2.032 . S
O238 C242 1.278 . S
C239 O240 1.203 . S
C239 O246 1.267 . S
O240 C239 1.203 . S
O241 C234 1.185 . S
O241 Zn237 2.086 . S
C242 O238 1.278 . S
C242 O243 1.211 . S
O243 C242 1.211 . S
C244 O236 1.284 . S
C244 O245 1.273 . S
O245 C244 1.273 . S
O246 Zn237 1.977 . S
O246 C239 1.267 . S
C247 O248 1.160 . S
C247 O254 1.185 1_565 S
O248 C247 1.160 . S
O249 Zn250 1.899 . S
O249 C257 1.284 . S
Zn250 O249 1.899 . S
Zn250 O251 2.032 . S
Zn250 O254 2.086 . S
Zn250 O259 1.977 . S
O251 Zn250 2.032 . S
O251 C255 1.278 . S
C252 O253 1.203 . S
C252 O259 1.267 . S
O253 C252 1.203 . S
O254 C247 1.185 1_545 S
O254 Zn250 2.086 . S
C255 O251 1.278 . S
C255 O256 1.211 . S
O256 C255 1.211 . S
C257 O249 1.284 . S
C257 O258 1.273 . S
O258 C257 1.273 . S
O259 Zn250 1.977 . S
O259 C252 1.267 . S
C260 O261 1.160 . S
C260 O267 1.185 . S
O261 C260 1.160 . S
O262 Zn263 1.899 . S
O262 C270 1.284 . S
Zn263 O262 1.899 . S
Zn263 O264 2.032 1_554 S
Zn263 O267 2.086 . S
Zn263 O272 1.977 . S
O264 Zn263 2.032 1_556 S
O264 C268 1.278 . S
C265 O266 1.203 . S
C265 O272 1.267 . S
O266 C265 1.203 . S
O267 C260 1.185 . S
O267 Zn263 2.086 . S
C268 O264 1.278 . S
C268 O269 1.211 . S
O269 C268 1.211 . S
C270 O262 1.284 . S
C270 O271 1.273 . S
O271 C270 1.273 . S
O272 Zn263 1.977 . S
O272 C265 1.267 . S
C273 O274 1.160 . S
C273 O280 1.185 . S
O274 C273 1.160 . S
O275 Zn276 1.899 . S
O275 C283 1.284 . S
Zn276 O275 1.899 . S
Zn276 O277 2.032 . S
Zn276 O280 2.086 . S
Zn276 O285 1.977 . S
O277 Zn276 2.032 . S
O277 C281 1.278 . S
C278 O279 1.203 . S
C278 O285 1.267 . S
O279 C278 1.203 . S
O280 C273 1.185 . S
O280 Zn276 2.086 . S
C281 O277 1.278 . S
C281 O282 1.211 . S
O282 C281 1.211 . S
C283 O275 1.284 . S
C283 O284 1.273 . S
O284 C283 1.273 . S
O285 Zn276 1.977 . S
O285 C278 1.267 . S
C286 O287 1.160 . S
C286 O293 1.185 . S
O287 C286 1.160 . S
O288 Zn289 1.899 . S
O288 C296 1.284 . S
Zn289 O288 1.899 . S
Zn289 O290 2.032 . S
Zn289 O293 2.086 . S
Zn289 O298 1.977 . S
O290 Zn289 2.032 . S
O290 C294 1.278 . S
C291 O292 1.203 . S
C291 O298 1.267 . S
O292 C291 1.203 . S
O293 C286 1.185 . S
O293 Zn289 2.086 . S
C294 O290 1.278 . S
C294 O295 1.211 . S
O295 C294 1.211 . S
C296 O288 1.284 . S
C296 O297 1.273 . S
O297 C296 1.273 . S
O298 Zn289 1.977 . S
O298 C291 1.267 . S
C299 O300 1.160 . S
C299 O306 1.185 . S
O300 C299 1.160 . S
O301 Zn302 1.899 . S
O301 C309 1.284 . S
Zn302 O301 1.899 . S
Zn302 O303 2.032 . S
Zn302 O306 2.086 . S
Zn302 O311 1.977 . S
O303 Zn302 2.032 . S
O303 C307 1.278 . S
C304 O305 1.203 . S
C304 O311 1.267 . S
O305 C304 1.203 . S
O306 C299 1.185 . S
O306 Zn302 2.086 . S
C307 O303 1.278 . S
C307 O308 1.211 . S
O308 C307 1.211 . S
C309 O301 1.284 . S
C309 O310 1.273 . S
O310 C309 1.273 . S
O311 Zn302 1.977 . S
O311 C304 1.267 . S
Dy312 O316 2.417 . S
Dy312 O317 2.484 1_556 S
Dy312 O318 2.433 . S
Dy312 O319 2.672 1_655 S
Dy312 O323 2.337 . S
Dy312 O327 2.290 1_556 S
Dy312 O328 2.340 1_546 S
C313 O324 1.185 . S
C313 O325 1.355 . S
C314 O316 1.185 . S
C314 O317 1.355 1_556 S
Dy315 O319 2.310 1_554 S
Dy315 O322 2.351 . S
Dy315 O324 2.398 . S
Dy315 O325 2.491 . S
Dy315 O326 2.403 . S
Dy315 O327 2.650 1_455 S
Dy315 O329 2.326 1_545 S
O316 Dy312 2.417 . S
O316 C314 1.185 . S
O317 Dy312 2.484 1_554 S
O317 C314 1.355 1_554 S
O318 Dy312 2.433 . S
O318 C320 1.254 1_655 S
O319 Dy312 2.672 1_455 S
O319 Dy315 2.310 1_556 S
O319 C320 1.268 . S
C320 O318 1.254 1_455 S
C320 O319 1.268 . S
C321 O326 1.254 . S
C321 O327 1.265 1_455 S
O322 Dy315 2.351 . S
O322 C330 1.249 . S
O323 Dy312 2.337 . S
O323 C330 1.267 1_656 S
O324 C313 1.185 . S
O324 Dy315 2.398 . S
O325 C313 1.355 . S
O325 Dy315 2.491 . S
O326 Dy315 2.403 . S
O326 C321 1.254 . S
O327 Dy312 2.290 1_554 S
O327 Dy315 2.650 1_655 S
O327 C321 1.265 1_655 S
O328 Dy312 2.340 1_564 S
O328 C331 1.249 1_655 S
O329 Dy315 2.326 1_565 S
O329 C331 1.267 . S
C330 O322 1.249 . S
C330 O323 1.267 1_454 S
C331 O328 1.249 1_455 S
C331 O329 1.267 . S
Dy332 O336 2.398 . S
Dy332 O337 2.491 . S
Dy332 O338 2.403 . S
Dy332 O339 2.664 . S
Dy332 O343 2.326 . S
Dy332 O347 2.310 . S
Dy332 O348 2.351 . S
C333 O344 1.185 . S
C333 O345 1.355 . S
C334 O336 1.185 . S
C334 O337 1.355 . S
Dy335 O339 2.310 . S
Dy335 O342 2.351 . S
Dy335 O344 2.398 . S
Dy335 O345 2.491 . S
Dy335 O346 2.403 . S
Dy335 O347 2.664 . S
Dy335 O349 2.326 . S
O336 Dy332 2.398 . S
O336 C334 1.185 . S
O337 Dy332 2.491 . S
O337 C334 1.355 . S
O338 Dy332 2.403 . S
O338 C340 1.254 . S
O339 Dy332 2.664 . S
O339 Dy335 2.310 . S
O339 C340 1.268 . S
C340 O338 1.254 . S
C340 O339 1.268 . S
C341 O346 1.254 . S
C341 O347 1.268 . S
O342 Dy335 2.351 . S
O342 C350 1.249 . S
O343 Dy332 2.326 . S
O343 C350 1.267 . S
O344 C333 1.185 . S
O344 Dy335 2.398 . S
O345 C333 1.355 . S
O345 Dy335 2.491 . S
O346 Dy335 2.403 . S
O346 C341 1.254 . S
O347 Dy332 2.310 . S
O347 Dy335 2.664 . S
O347 C341 1.268 . S
O348 Dy332 2.351 . S
O348 C351 1.249 . S
O349 Dy335 2.326 . S
O349 C351 1.267 . S
C350 O342 1.249 . S
C350 O343 1.267 . S
C351 O348 1.249 . S
C351 O349 1.267 . S
Dy352 O356 2.398 . S
Dy352 O357 2.491 . S
Dy352 O358 2.403 . S
Dy352 O359 2.664 . S
Dy352 O363 2.326 1_545 S
Dy352 O367 2.310 . S
Dy352 O368 2.351 . S
C353 O364 1.185 . S
C353 O365 1.355 . S
C354 O356 1.185 . S
C354 O357 1.355 . S
Dy355 O359 2.310 . S
Dy355 O362 2.351 1_545 S
Dy355 O364 2.398 . S
Dy355 O365 2.491 . S
Dy355 O366 2.403 . S
Dy355 O367 2.664 . S
Dy355 O369 2.326 . S
O356 Dy352 2.398 . S
O356 C354 1.185 . S
O357 Dy352 2.491 . S
O357 C354 1.355 . S
O358 Dy352 2.403 . S
O358 C360 1.254 . S
O359 Dy352 2.664 . S
O359 Dy355 2.310 . S
O359 C360 1.268 . S
C360 O358 1.254 . S
C360 O359 1.268 . S
C361 O366 1.254 . S
C361 O367 1.268 . S
O362 Dy355 2.351 1_565 S
O362 C370 1.249 . S
O363 Dy352 2.326 1_565 S
O363 C370 1.267 . S
O364 C353 1.185 . S
O364 Dy355 2.398 . S
O365 C353 1.355 . S
O365 Dy355 2.491 . S
O366 Dy355 2.403 . S
O366 C361 1.254 . S
O367 Dy352 2.310 . S
O367 Dy355 2.664 . S
O367 C361 1.268 . S
O368 Dy352 2.351 . S
O368 C371 1.249 . S
O369 Dy355 2.326 . S
O369 C371 1.267 . S
C370 O362 1.249 . S
C370 O363 1.267 . S
C371 O368 1.249 . S
C371 O369 1.267 . S
Dy372 O376 2.398 . S
Dy372 O377 2.491 . S
Dy372 O378 2.403 . S
Dy372 O379 2.664 . S
Dy372 O383 2.326 . S
Dy372 O387 2.310 . S
Dy372 O388 2.351 . S
C373 O384 1.185 . S
C373 O385 1.355 . S
C374 O376 1.185 . S
C374 O377 1.355 . S
Dy375 O379 2.310 . S
Dy375 O382 2.351 . S
Dy375 O384 2.398 . S
Dy375 O385 2.491 . S
Dy375 O386 2.403 . S
Dy375 O387 2.664 . S
Dy375 O389 2.326 . S
O376 Dy372 2.398 . S
O376 C374 1.185 . S
O377 Dy372 2.491 . S
O377 C374 1.355 . S
O378 Dy372 2.403 . S
O378 C380 1.254 . S
O379 Dy372 2.664 . S
O379 Dy375 2.310 . S
O379 C380 1.268 . S
C380 O378 1.254 . S
C380 O379 1.268 . S
C381 O386 1.254 . S
C381 O387 1.268 . S
O382 Dy375 2.351 . S
O382 C390 1.249 . S
O383 Dy372 2.326 . S
O383 C390 1.267 . S
O384 C373 1.185 . S
O384 Dy375 2.398 . S
O385 C373 1.355 . S
O385 Dy375 2.491 . S
O386 Dy375 2.403 . S
O386 C381 1.254 . S
O387 Dy372 2.310 . S
O387 Dy375 2.664 . S
O387 C381 1.268 . S
O388 Dy372 2.351 . S
O388 C391 1.249 . S
O389 Dy375 2.326 . S
O389 C391 1.267 . S
C390 O382 1.249 . S
C390 O383 1.267 . S
C391 O388 1.249 . S
C391 O389 1.267 . S
Dy392 O396 2.398 . S
Dy392 O397 2.491 1_455 S
Dy392 O398 2.403 . S
Dy392 O399 2.664 . S
Dy392 O403 2.326 . S
Dy392 O407 2.310 1_455 S
Dy392 O408 2.351 1_545 S
C393 O404 1.185 . S
C393 O405 1.355 . S
C394 O396 1.185 1_655 S
C394 O397 1.355 . S
Dy395 O399 2.310 . S
Dy395 O402 2.351 . S
Dy395 O404 2.398 . S
Dy395 O405 2.491 . S
Dy395 O406 2.403 1_455 S
Dy395 O407 2.664 1_455 S
Dy395 O409 2.326 . S
O396 Dy392 2.398 . S
O396 C394 1.185 1_455 S
O397 Dy392 2.491 1_655 S
O397 C394 1.355 . S
O398 Dy392 2.403 . S
O398 C400 1.254 . S
O399 Dy392 2.664 . S
O399 Dy395 2.310 . S
O399 C400 1.268 . S
C400 O398 1.254 . S
C400 O399 1.268 . S
C401 O406 1.254 . S
C401 O407 1.268 . S
O402 Dy395 2.351 . S
O402 C410 1.249 . S
O403 Dy392 2.326 . S
O403 C410 1.267 . S
O404 C393 1.185 . S
O404 Dy395 2.398 . S
O405 C393 1.355 . S
O405 Dy395 2.491 . S
O406 Dy395 2.403 1_655 S
O406 C401 1.254 . S
O407 Dy392 2.310 1_655 S
O407 Dy395 2.664 1_655 S
O407 C401 1.268 . S
O408 Dy392 2.351 1_565 S
O408 C411 1.249 . S
O409 Dy395 2.326 . S
O409 C411 1.267 1_545 S
C410 O402 1.249 . S
C410 O403 1.267 . S
C411 O408 1.249 . S
C411 O409 1.267 1_565 S
Dy412 O416 2.398 . S
Dy412 O417 2.491 . S
Dy412 O418 2.403 . S
Dy412 O419 2.664 . S
Dy412 O423 2.326 . S
Dy412 O427 2.310 . S
Dy412 O428 2.351 . S
C413 O424 1.185 . S
C413 O425 1.355 . S
C414 O416 1.185 . S
C414 O417 1.355 . S
Dy415 O419 2.310 . S
Dy415 O422 2.351 . S
Dy415 O424 2.398 . S
Dy415 O425 2.491 . S
Dy415 O426 2.403 . S
Dy415 O427 2.664 . S
Dy415 O429 2.326 . S
O416 Dy412 2.398 . S
O416 C414 1.185 . S
O417 Dy412 2.491 . S
O417 C414 1.355 . S
O418 Dy412 2.403 . S
O418 C420 1.254 . S
O419 Dy412 2.664 . S
O419 Dy415 2.310 . S
O419 C420 1.268 . S
C420 O418 1.254 . S
C420 O419 1.268 . S
C421 O426 1.254 . S
C421 O427 1.268 . S
O422 Dy415 2.351 . S
O422 C430 1.249 . S
O423 Dy412 2.326 . S
O423 C430 1.267 . S
O424 C413 1.185 . S
O424 Dy415 2.398 . S
O425 C413 1.355 . S
O425 Dy415 2.491 . S
O426 Dy415 2.403 . S
O426 C421 1.254 . S
O427 Dy412 2.310 . S
O427 Dy415 2.664 . S
O427 C421 1.268 . S
O428 Dy412 2.351 . S
O428 C431 1.249 . S
O429 Dy415 2.326 . S
O429 C431 1.267 . S
C430 O422 1.249 . S
C430 O423 1.267 . S
C431 O428 1.249 . S
C431 O429 1.267 . S
Dy432 O436 2.398 1_545 S
Dy432 O437 2.491 . S
Dy432 O438 2.403 1_545 S
Dy432 O439 2.664 . S
Dy432 O443 2.326 . S
Dy432 O447 2.310 . S
Dy432 O448 2.351 . S
C433 O444 1.185 . S
C433 O445 1.355 . S
C434 O436 1.185 1_545 S
C434 O437 1.355 . S
Dy435 O439 2.310 1_556 S
Dy435 O442 2.354 1_556 S
Dy435 O444 2.398 . S
Dy435 O445 2.491 . S
Dy435 O446 2.403 1_556 S
Dy435 O447 2.664 1_556 S
Dy435 O449 2.326 1_556 S
O436 Dy432 2.398 1_565 S
O436 C434 1.185 1_565 S
O437 Dy432 2.491 . S
O437 C434 1.355 . S
O438 Dy432 2.403 1_565 S
O438 C440 1.254 . S
O439 Dy432 2.664 . S
O439 Dy435 2.310 1_554 S
O439 C440 1.268 1_545 S
C440 O438 1.254 . S
C440 O439 1.268 1_565 S
C441 O446 1.254 . S
C441 O447 1.268 . S
O442 Dy435 2.354 1_554 S
O442 C450 1.243 . S
O443 Dy432 2.326 . S
O443 C450 1.267 . S
O444 C433 1.185 . S
O444 Dy435 2.398 . S
O445 C433 1.355 . S
O445 Dy435 2.491 . S
O446 Dy435 2.403 1_554 S
O446 C441 1.254 . S
O447 Dy432 2.310 . S
O447 Dy435 2.664 1_554 S
O447 C441 1.268 . S
O448 Dy432 2.351 . S
O448 C451 1.249 . S
O449 Dy435 2.326 1_554 S
O449 C451 1.267 . S
C450 O442 1.243 . S
C450 O443 1.267 . S
C451 O448 1.249 . S
C451 O449 1.267 . S
Dy452 O456 2.398 . S
Dy452 O457 2.491 . S
Dy452 O458 2.403 . S
Dy452 O459 2.664 . S
Dy452 O463 2.326 . S
Dy452 O467 2.310 . S
Dy452 O468 2.351 . S
C453 O464 1.185 . S
C453 O465 1.355 . S
C454 O456 1.185 . S
C454 O457 1.355 . S
Dy455 O459 2.310 . S
Dy455 O462 2.351 . S
Dy455 O464 2.398 . S
Dy455 O465 2.491 . S
Dy455 O466 2.403 . S
Dy455 O467 2.664 . S
Dy455 O469 2.326 . S
O456 Dy452 2.398 . S
O456 C454 1.185 . S
O457 Dy452 2.491 . S
O457 C454 1.355 . S
O458 Dy452 2.403 . S
O458 C460 1.254 . S
O459 Dy452 2.664 . S
O459 Dy455 2.310 . S
O459 C460 1.268 . S
C460 O458 1.254 . S
C460 O459 1.268 . S
C461 O466 1.254 . S
C461 O467 1.268 . S
O462 Dy455 2.351 . S
O462 C470 1.249 . S
O463 Dy452 2.326 . S
O463 C470 1.267 . S
O464 C453 1.185 . S
O464 Dy455 2.398 . S
O465 C453 1.355 . S
O465 Dy455 2.491 . S
O466 Dy455 2.403 . S
O466 C461 1.254 . S
O467 Dy452 2.310 . S
O467 Dy455 2.664 . S
O467 C461 1.268 . S
O468 Dy452 2.351 . S
O468 C471 1.249 . S
O469 Dy455 2.326 . S
O469 C471 1.267 . S
C470 O462 1.249 . S
C470 O463 1.267 . S
C471 O468 1.249 . S
C471 O469 1.267 . S
Dy472 O476 2.398 . S
Dy472 O477 2.491 . S
Dy472 O478 2.403 . S
Dy472 O479 2.664 1_556 S
Dy472 O483 2.326 . S
Dy472 O487 2.310 1_556 S
Dy472 O488 2.351 1_556 S
C473 O484 1.185 . S
C473 O485 1.355 . S
C474 O476 1.185 . S
C474 O477 1.355 . S
Dy475 O479 2.310 . S
Dy475 O482 2.351 . S
Dy475 O484 2.398 . S
Dy475 O485 2.491 . S
Dy475 O486 2.403 . S
Dy475 O487 2.664 . S
Dy475 O489 2.326 . S
O476 Dy472 2.398 . S
O476 C474 1.185 . S
O477 Dy472 2.491 . S
O477 C474 1.355 . S
O478 Dy472 2.403 . S
O478 C480 1.254 1_556 S
O479 Dy472 2.664 1_554 S
O479 Dy475 2.310 . S
O479 C480 1.268 . S
C480 O478 1.254 1_554 S
C480 O479 1.268 . S
C481 O486 1.254 . S
C481 O487 1.268 . S
O482 Dy475 2.351 . S
O482 C490 1.249 . S
O483 Dy472 2.326 . S
O483 C490 1.267 1_556 S
O484 C473 1.185 . S
O484 Dy475 2.398 . S
O485 C473 1.355 . S
O485 Dy475 2.491 . S
O486 Dy475 2.403 . S
O486 C481 1.254 . S
O487 Dy472 2.310 1_554 S
O487 Dy475 2.664 . S
O487 C481 1.268 . S
O488 Dy472 2.351 1_554 S
O488 C491 1.249 . S
O489 Dy475 2.326 . S
O489 C491 1.267 . S
C490 O482 1.249 . S
C490 O483 1.267 1_554 S
C491 O488 1.249 . S
C491 O489 1.267 . S
Dy492 O496 2.398 . S
Dy492 O497 2.491 . S
Dy492 O498 2.403 . S
Dy492 O499 2.664 . S
Dy492 O503 2.326 . S
Dy492 O507 2.310 . S
Dy492 O508 2.351 . S
C493 O504 1.185 . S
C493 O505 1.355 . S
C494 O496 1.185 . S
C494 O497 1.355 . S
Dy495 O499 2.310 . S
Dy495 O502 2.351 . S
Dy495 O504 2.398 . S
Dy495 O505 2.491 . S
Dy495 O506 2.403 . S
Dy495 O507 2.664 . S
Dy495 O509 2.326 . S
O496 Dy492 2.398 . S
O496 C494 1.185 . S
O497 Dy492 2.491 . S
O497 C494 1.355 . S
O498 Dy492 2.403 . S
O498 C500 1.254 . S
O499 Dy492 2.664 . S
O499 Dy495 2.310 . S
O499 C500 1.268 . S
C500 O498 1.254 . S
C500 O499 1.268 . S
C501 O506 1.254 . S
C501 O507 1.268 . S
O502 Dy495 2.351 . S
O502 C510 1.249 . S
O503 Dy492 2.326 . S
O503 C510 1.267 . S
O504 C493 1.185 . S
O504 Dy495 2.398 . S
O505 C493 1.355 . S
O505 Dy495 2.491 . S
O506 Dy495 2.403 . S
O506 C501 1.254 . S
O507 Dy492 2.310 . S
O507 Dy495 2.664 . S
O507 C501 1.268 . S
O508 Dy492 2.351 . S
O508 C511 1.249 . S
O509 Dy495 2.326 . S
O509 C511 1.267 . S
C510 O502 1.249 . S
C510 O503 1.267 . S
C511 O508 1.249 . S
C511 O509 1.267 . S
Dy512 O516 2.398 . S
Dy512 O517 2.491 1_455 S
Dy512 O518 2.403 . S
Dy512 O519 2.664 . S
Dy512 O523 2.326 1_455 S
Dy512 O527 2.310 . S
Dy512 O528 2.351 . S
C513 O524 1.185 . S
C513 O525 1.355 . S
C514 O516 1.185 1_655 S
C514 O517 1.355 . S
Dy515 O519 2.310 . S
Dy515 O522 2.351 1_455 S
Dy515 O524 2.398 . S
Dy515 O525 2.491 . S
Dy515 O526 2.403 . S
Dy515 O527 2.664 . S
Dy515 O529 2.326 . S
O516 Dy512 2.398 . S
O516 C514 1.185 1_455 S
O517 Dy512 2.491 1_655 S
O517 C514 1.355 . S
O518 Dy512 2.403 . S
O518 C520 1.254 . S
O519 Dy512 2.664 . S
O519 Dy515 2.310 . S
O519 C520 1.268 . S
C520 O518 1.254 . S
C520 O519 1.268 . S
C521 O526 1.254 . S
C521 O527 1.268 . S
O522 Dy515 2.351 1_655 S
O522 C530 1.249 . S
O523 Dy512 2.326 1_655 S
O523 C530 1.267 . S
O524 C513 1.185 . S
O524 Dy515 2.398 . S
O525 C513 1.355 . S
O525 Dy515 2.491 . S
O526 Dy515 2.403 . S
O526 C521 1.254 . S
O527 Dy512 2.310 . S
O527 Dy515 2.664 . S
O527 C521 1.268 . S
O528 Dy512 2.351 . S
O528 C531 1.249 . S
O529 Dy515 2.326 . S
O529 C531 1.267 . S
C530 O522 1.249 . S
C530 O523 1.267 . S
C531 O528 1.249 . S
C531 O529 1.267 . S
Dy532 O536 2.398 . S
Dy532 O537 2.491 . S
Dy532 O538 2.403 . S
Dy532 O539 2.664 . S
Dy532 O543 2.326 . S
Dy532 O547 2.310 . S
Dy532 O548 2.351 . S
C533 O544 1.185 . S
C533 O545 1.355 . S
C534 O536 1.185 . S
C534 O537 1.355 . S
Dy535 O539 2.310 . S
Dy535 O542 2.351 . S
Dy535 O544 2.398 . S
Dy535 O545 2.491 . S
Dy535 O546 2.403 . S
Dy535 O547 2.664 . S
Dy535 O549 2.326 . S
O536 Dy532 2.398 . S
O536 C534 1.185 . S
O537 Dy532 2.491 . S
O537 C534 1.355 . S
O538 Dy532 2.403 . S
O538 C540 1.254 . S
O539 Dy532 2.664 . S
O539 Dy535 2.310 . S
O539 C540 1.268 . S
C540 O538 1.254 . S
C540 O539 1.268 . S
C541 O546 1.254 . S
C541 O547 1.268 . S
O542 Dy535 2.351 . S
O542 C550 1.249 . S
O543 Dy532 2.326 . S
O543 C550 1.267 . S
O544 C533 1.185 . S
O544 Dy535 2.398 . S
O545 C533 1.355 . S
O545 Dy535 2.491 . S
O546 Dy535 2.403 . S
O546 C541 1.254 . S
O547 Dy532 2.310 . S
O547 Dy535 2.664 . S
O547 C541 1.268 . S
O548 Dy532 2.351 . S
O548 C551 1.249 . S
O549 Dy535 2.326 . S
O549 C551 1.267 . S
C550 O542 1.249 . S
C550 O543 1.267 . S
C551 O548 1.249 . S
C551 O549 1.267 . S
Dy552 O556 2.398 . S
Dy552 O557 2.491 . S
Dy552 O558 2.403 . S
Dy552 O559 2.664 . S
Dy552 O563 2.326 . S
Dy552 O567 2.310 . S
Dy552 O568 2.351 . S
C553 O564 1.185 . S
C553 O565 1.355 . S
C554 O556 1.185 . S
C554 O557 1.355 . S
Dy555 O559 2.310 . S
Dy555 O562 2.351 . S
Dy555 O564 2.398 . S
Dy555 O565 2.491 . S
Dy555 O566 2.403 . S
Dy555 O567 2.664 . S
Dy555 O569 2.326 . S
O556 Dy552 2.398 . S
O556 C554 1.185 . S
O557 Dy552 2.491 . S
O557 C554 1.355 . S
O558 Dy552 2.403 . S
O558 C560 1.254 . S
O559 Dy552 2.664 . S
O559 Dy555 2.310 . S
O559 C560 1.268 . S
C560 O558 1.254 . S
C560 O559 1.268 . S
C561 O566 1.254 . S
C561 O567 1.268 . S
O562 Dy555 2.351 . S
O562 C570 1.249 . S
O563 Dy552 2.326 . S
O563 C570 1.267 . S
O564 C553 1.185 . S
O564 Dy555 2.398 . S
O565 C553 1.355 . S
O565 Dy555 2.491 . S
O566 Dy555 2.403 . S
O566 C561 1.254 . S
O567 Dy552 2.310 . S
O567 Dy555 2.664 . S
O567 C561 1.268 . S
O568 Dy552 2.351 . S
O568 C571 1.249 . S
O569 Dy555 2.326 . S
O569 C571 1.267 . S
C570 O562 1.249 . S
C570 O563 1.267 . S
C571 O568 1.249 . S
C571 O569 1.267 . S
Dy572 O576 2.398 . S
Dy572 O577 2.491 . S
Dy572 O578 2.403 . S
Dy572 O579 2.664 . S
Dy572 O583 2.326 . S
Dy572 O587 2.310 . S
Dy572 O588 2.351 . S
C573 O584 1.185 . S
C573 O585 1.355 . S
C574 O576 1.185 . S
C574 O577 1.355 . S
Dy575 O579 2.310 . S
Dy575 O582 2.351 . S
Dy575 O584 2.398 . S
Dy575 O585 2.491 . S
Dy575 O586 2.403 . S
Dy575 O587 2.664 . S
Dy575 O589 2.326 . S
O576 Dy572 2.398 . S
O576 C574 1.185 . S
O577 Dy572 2.491 . S
O577 C574 1.355 . S
O578 Dy572 2.403 . S
O578 C580 1.254 . S
O579 Dy572 2.664 . S
O579 Dy575 2.310 . S
O579 C580 1.268 . S
C580 O578 1.254 . S
C580 O579 1.268 . S
C581 O586 1.254 . S
C581 O587 1.268 . S
O582 Dy575 2.351 . S
O582 C590 1.249 . S
O583 Dy572 2.326 . S
O583 C590 1.267 . S
O584 C573 1.185 . S
O584 Dy575 2.398 . S
O585 C573 1.355 . S
O585 Dy575 2.491 . S
O586 Dy575 2.403 . S
O586 C581 1.254 . S
O587 Dy572 2.310 . S
O587 Dy575 2.664 . S
O587 C581 1.268 . S
O588 Dy572 2.351 . S
O588 C591 1.249 . S
O589 Dy575 2.326 . S
O589 C591 1.267 . S
C590 O582 1.249 . S
C590 O583 1.267 . S
C591 O588 1.249 . S
C591 O589 1.267 . S
Dy592 O596 2.398 . S
Dy592 O597 2.491 . S
Dy592 O598 2.403 . S
Dy592 O599 2.664 . S
Dy592 O603 2.326 . S
Dy592 O607 2.310 . S
Dy592 O608 2.351 . S
C593 O604 1.185 . S
C593 O605 1.355 . S
C594 O596 1.185 . S
C594 O597 1.355 . S
Dy595 O599 2.310 . S
Dy595 O602 2.351 . S
Dy595 O604 2.398 . S
Dy595 O605 2.491 . S
Dy595 O606 2.403 . S
Dy595 O607 2.664 . S
Dy595 O609 2.326 . S
O596 Dy592 2.398 . S
O596 C594 1.185 . S
O597 Dy592 2.491 . S
O597 C594 1.355 . S
O598 Dy592 2.403 . S
O598 C600 1.254 . S
O599 Dy592 2.664 . S
O599 Dy595 2.310 . S
O599 C600 1.268 . S
C600 O598 1.254 . S
C600 O599 1.268 . S
C601 O606 1.254 . S
C601 O607 1.268 . S
O602 Dy595 2.351 . S
O602 C610 1.249 . S
O603 Dy592 2.326 . S
O603 C610 1.267 . S
O604 C593 1.185 . S
O604 Dy595 2.398 . S
O605 C593 1.355 . S
O605 Dy595 2.491 . S
O606 Dy595 2.403 . S
O606 C601 1.254 . S
O607 Dy592 2.310 . S
O607 Dy595 2.664 . S
O607 C601 1.268 . S
O608 Dy592 2.351 . S
O608 C611 1.249 . S
O609 Dy595 2.326 . S
O609 C611 1.267 . S
C610 O602 1.249 . S
C610 O603 1.267 . S
C611 O608 1.249 . S
C611 O609 1.267 . S
Dy612 O616 2.398 1_554 S
Dy612 O617 2.491 . S
Dy612 O618 2.403 1_554 S
Dy612 O619 2.664 1_554 S
Dy612 O623 2.326 1_554 S
Dy612 O627 2.310 . S
Dy612 O628 2.351 . S
C613 O624 1.185 . S
C613 O625 1.355 . S
C614 O616 1.185 . S
C614 O617 1.355 1_556 S
Dy615 O619 2.310 1_654 S
Dy615 O622 2.351 . S
Dy615 O624 2.398 . S
Dy615 O625 2.491 . S
Dy615 O626 2.403 1_655 S
Dy615 O627 2.664 1_655 S
Dy615 O629 2.326 1_655 S
O616 Dy612 2.398 1_556 S
O616 C614 1.185 . S
O617 Dy612 2.491 . S
O617 C614 1.355 1_554 S
O618 Dy612 2.403 1_556 S
O618 C620 1.254 . S
O619 Dy612 2.664 1_556 S
O619 Dy615 2.310 1_456 S
O619 C620 1.268 . S
C620 O618 1.254 . S
C620 O619 1.268 . S
C621 O626 1.254 . S
C621 O627 1.268 . S
O622 Dy615 2.351 . S
O622 C630 1.233 1_654 S
O623 Dy612 2.326 1_556 S
O623 C630 1.286 . S
O624 C613 1.185 . S
O624 Dy615 2.398 . S
O625 C613 1.355 . S
O625 Dy615 2.491 . S
O626 Dy615 2.403 1_455 S
O626 C621 1.254 . S
O627 Dy612 2.310 . S
O627 Dy615 2.664 1_455 S
O627 C621 1.268 . S
O628 Dy612 2.351 . S
O628 C631 1.249 . S
O629 Dy615 2.326 1_455 S
O629 C631 1.267 . S
C630 O622 1.233 1_456 S
C630 O623 1.286 . S
C631 O628 1.249 . S
C631 O629 1.267 . S
C632 C633 1.341 . S
C632 C634 1.330 . S
C632 H657 0.950 . S
C633 C632 1.341 . S
C633 C649 1.349 1_655 S
C634 C632 1.330 . S
C634 C653 1.428 1_655 S
C634 H658 0.954 . S
C635 C652 1.574 . S
C635 C654 1.368 . S
C635 H659 0.949 . S
H636 C640 0.949 . S
C637 C638 1.349 1_554 S
C637 C639 1.327 . S
C637 H660 0.950 . S
C638 C637 1.349 1_556 S
C638 C650 1.349 . S
C639 C637 1.327 . S
C639 C655 1.429 1_554 S
C639 H661 0.950 . S
C640 H636 0.949 . S
C640 C648 1.574 . S
C640 C656 1.368 . S
H641 C649 0.954 . S
H642 C647 0.950 . S
H643 C648 0.952 . S
H644 C650 0.950 . S
H645 C651 0.950 . S
H646 C652 0.944 . S
C647 H642 0.950 . S
C647 C649 1.336 . S
C647 C653 1.429 . S
C648 C640 1.574 . S
C648 H643 0.952 . S
C648 C654 1.368 . S
C649 C633 1.349 1_455 S
C649 H641 0.954 . S
C649 C647 1.336 . S
C650 C638 1.349 . S
C650 H644 0.950 . S
C650 C651 1.327 . S
C651 H645 0.950 . S
C651 C650 1.327 . S
C651 C655 1.429 . S
C652 C635 1.574 . S
C652 H646 0.944 . S
C652 C656 1.368 . S
C653 C634 1.428 1_455 S
C653 C647 1.429 . S
C653 C654 1.523 . S
C654 C635 1.368 . S
C654 C648 1.368 . S
C654 C653 1.523 . S
C655 C639 1.429 1_556 S
C655 C651 1.429 . S
C655 C656 1.523 . S
C656 C640 1.368 . S
C656 C652 1.368 . S
C656 C655 1.523 . S
H657 C632 0.950 . S
H658 C634 0.954 . S
H659 C635 0.949 . S
H660 C637 0.950 . S
H661 C639 0.950 . S
C662 C663 1.349 . S
C662 C664 1.327 . S
C662 H687 0.950 . S
C663 C662 1.349 . S
C663 C679 1.349 . S
C664 C662 1.327 . S
C664 C683 1.429 . S
C664 H688 0.950 . S
C665 C682 1.574 . S
C665 C684 1.368 . S
C665 H689 0.949 . S
H666 C670 0.949 . S
C667 C668 1.349 . S
C667 C669 1.327 . S
C667 H690 0.950 . S
C668 C667 1.349 . S
C668 C680 1.349 . S
C669 C667 1.327 . S
C669 C685 1.429 . S
C669 H691 0.950 . S
C670 H666 0.949 . S
C670 C678 1.574 . S
C670 C686 1.368 . S
H671 C679 0.950 . S
H672 C677 0.950 . S
H673 C678 0.949 . S
H674 C680 0.950 . S
H675 C681 0.950 . S
H676 C682 0.949 . S
C677 H672 0.950 . S
C677 C679 1.327 . S
C677 C683 1.429 . S
C678 C670 1.574 . S
C678 H673 0.949 . S
C678 C684 1.368 . S
C679 C663 1.349 . S
C679 H671 0.950 . S
C679 C677 1.327 . S
C680 C668 1.349 . S
C680 H674 0.950 . S
C680 C681 1.327 . S
C681 H675 0.950 . S
C681 C680 1.327 . S
C681 C685 1.429 . S
C682 C665 1.574 . S
C682 H676 0.949 . S
C682 C686 1.368 . S
C683 C664 1.429 . S
C683 C677 1.429 . S
C683 C684 1.523 . S
C684 C665 1.368 . S
C684 C678 1.368 . S
C684 C683 1.523 . S
C685 C669 1.429 . S
C685 C681 1.429 . S
C685 C686 1.523 . S
C686 C670 1.368 . S
C686 C682 1.368 . S
C686 C685 1.523 . S
H687 C662 0.950 . S
H688 C664 0.950 . S
H689 C665 0.949 . S
H690 C667 0.950 . S
H691 C669 0.950 . S
C692 C693 1.349 . S
C692 C694 1.327 . S
C692 H717 0.950 . S
C693 C692 1.349 . S
C693 C709 1.349 . S
C694 C692 1.327 . S
C694 C713 1.429 . S
C694 H718 0.950 . S
C695 C712 1.574 . S
C695 C714 1.368 . S
C695 H719 0.949 . S
H696 C700 0.949 . S
C697 C698 1.349 . S
C697 C699 1.327 . S
C697 H720 0.950 . S
C698 C697 1.349 . S
C698 C710 1.349 . S
C699 C697 1.327 . S
C699 C715 1.429 . S
C699 H721 0.950 . S
C700 H696 0.949 . S
C700 C708 1.574 . S
C700 C716 1.368 . S
H701 C709 0.950 . S
H702 C707 0.950 . S
H703 C708 0.949 . S
H704 C710 0.950 . S
H705 C711 0.950 . S
H706 C712 0.949 . S
C707 H702 0.950 . S
C707 C709 1.327 . S
C707 C713 1.429 . S
C708 C700 1.574 . S
C708 H703 0.949 . S
C708 C714 1.368 . S
C709 C693 1.349 . S
C709 H701 0.950 . S
C709 C707 1.327 . S
C710 C698 1.349 . S
C710 H704 0.950 . S
C710 C711 1.327 . S
C711 H705 0.950 . S
C711 C710 1.327 . S
C711 C715 1.429 . S
C712 C695 1.574 . S
C712 H706 0.949 . S
C712 C716 1.368 . S
C713 C694 1.429 . S
C713 C707 1.429 . S
C713 C714 1.523 . S
C714 C695 1.368 . S
C714 C708 1.368 . S
C714 C713 1.523 . S
C715 C699 1.429 . S
C715 C711 1.429 . S
C715 C716 1.523 . S
C716 C700 1.368 . S
C716 C712 1.368 . S
C716 C715 1.523 . S
H717 C692 0.950 . S
H718 C694 0.950 . S
H719 C695 0.949 . S
H720 C697 0.950 . S
H721 C699 0.950 . S
C722 C723 1.349 . S
C722 C724 1.327 . S
C722 H747 0.950 . S
C723 C722 1.349 . S
C723 C739 1.349 . S
C724 C722 1.327 . S
C724 C743 1.429 . S
C724 H748 0.950 . S
C725 C742 1.574 . S
C725 C744 1.368 . S
C725 H749 0.949 . S
H726 C730 0.949 . S
C727 C728 1.349 . S
C727 C729 1.327 . S
C727 H750 0.950 . S
C728 C727 1.349 . S
C728 C740 1.349 . S
C729 C727 1.327 . S
C729 C745 1.429 . S
C729 H751 0.950 . S
C730 H726 0.949 . S
C730 C738 1.574 . S
C730 C746 1.368 . S
H731 C739 0.950 . S
H732 C737 0.950 . S
H733 C738 0.949 . S
H734 C740 0.950 . S
H735 C741 0.950 . S
H736 C742 0.949 . S
C737 H732 0.950 . S
C737 C739 1.327 . S
C737 C743 1.429 . S
C738 C730 1.574 . S
C738 H733 0.949 . S
C738 C744 1.368 . S
C739 C723 1.349 . S
C739 H731 0.950 . S
C739 C737 1.327 . S
C740 C728 1.349 . S
C740 H734 0.950 . S
C740 C741 1.327 . S
C741 H735 0.950 . S
C741 C740 1.327 . S
C741 C745 1.429 . S
C742 C725 1.574 . S
C742 H736 0.949 . S
C742 C746 1.368 . S
C743 C724 1.429 . S
C743 C737 1.429 . S
C743 C744 1.523 . S
C744 C725 1.368 . S
C744 C738 1.368 . S
C744 C743 1.523 . S
C745 C729 1.429 . S
C745 C741 1.429 . S
C745 C746 1.523 . S
C746 C730 1.368 . S
C746 C742 1.368 . S
C746 C745 1.523 . S
H747 C722 0.950 . S
H748 C724 0.950 . S
H749 C725 0.949 . S
H750 C727 0.950 . S
H751 C729 0.950 . S
C752 C753 1.349 . S
C752 C754 1.327 . S
C752 H777 0.950 . S
C753 C752 1.349 . S
C753 C769 1.349 . S
C754 C752 1.327 . S
C754 C773 1.429 . S
C754 H778 0.950 . S
C755 C772 1.574 . S
C755 C774 1.368 . S
C755 H779 0.949 1_455 S
H756 C760 0.949 . S
C757 C758 1.349 . S
C757 C759 1.327 . S
C757 H780 0.950 . S
C758 C757 1.349 . S
C758 C770 1.349 . S
C759 C757 1.327 . S
C759 C775 1.429 . S
C759 H781 0.950 . S
C760 H756 0.949 . S
C760 C768 1.574 . S
C760 C776 1.368 . S
H761 C769 0.950 1_655 S
H762 C767 0.950 1_655 S
H763 C768 0.949 . S
H764 C770 0.950 . S
H765 C771 0.950 . S
H766 C772 0.967 . S
C767 H762 0.950 1_455 S
C767 C769 1.327 . S
C767 C773 1.429 . S
C768 C760 1.574 . S
C768 H763 0.949 . S
C768 C774 1.368 . S
C769 C753 1.349 . S
C769 H761 0.950 1_455 S
C769 C767 1.327 . S
C770 C758 1.349 . S
C770 H764 0.950 . S
C770 C771 1.327 . S
C771 H765 0.950 . S
C771 C770 1.327 . S
C771 C775 1.429 . S
C772 C755 1.574 . S
C772 H766 0.967 . S
C772 C776 1.368 . S
C773 C754 1.429 . S
C773 C767 1.429 . S
C773 C774 1.523 . S
C774 C755 1.368 . S
C774 C768 1.368 . S
C774 C773 1.523 . S
C775 C759 1.429 . S
C775 C771 1.429 . S
C775 C776 1.523 . S
C776 C760 1.368 . S
C776 C772 1.368 . S
C776 C775 1.523 . S
H777 C752 0.950 . S
H778 C754 0.950 . S
H779 C755 0.949 1_655 S
H780 C757 0.950 . S
H781 C759 0.950 . S
C782 C783 1.349 . S
C782 C784 1.327 . S
C782 H807 0.950 . S
C783 C782 1.349 . S
C783 C799 1.349 . S
C784 C782 1.327 . S
C784 C803 1.429 . S
C784 H808 0.950 . S
C785 C802 1.574 . S
C785 C804 1.368 . S
C785 H809 0.949 . S
H786 C790 0.949 . S
C787 C788 1.349 . S
C787 C789 1.327 . S
C787 H810 0.950 . S
C788 C787 1.349 . S
C788 C800 1.349 . S
C789 C787 1.327 . S
C789 C805 1.429 . S
C789 H811 0.950 . S
C790 H786 0.949 . S
C790 C798 1.574 . S
C790 C806 1.368 . S
H791 C799 0.950 . S
H792 C797 0.950 . S
H793 C798 0.949 . S
H794 C800 0.950 . S
H795 C801 0.950 . S
H796 C802 0.949 . S
C797 H792 0.950 . S
C797 C799 1.327 . S
C797 C803 1.429 . S
C798 C790 1.574 . S
C798 H793 0.949 . S
C798 C804 1.368 . S
C799 C783 1.349 . S
C799 H791 0.950 . S
C799 C797 1.327 . S
C800 C788 1.349 . S
C800 H794 0.950 . S
C800 C801 1.327 . S
C801 H795 0.950 . S
C801 C800 1.327 . S
C801 C805 1.429 . S
C802 C785 1.574 . S
C802 H796 0.949 . S
C802 C806 1.368 . S
C803 C784 1.429 . S
C803 C797 1.429 . S
C803 C804 1.523 . S
C804 C785 1.368 . S
C804 C798 1.368 . S
C804 C803 1.523 . S
C805 C789 1.429 . S
C805 C801 1.429 . S
C805 C806 1.523 . S
C806 C790 1.368 . S
C806 C802 1.368 . S
C806 C805 1.523 . S
H807 C782 0.950 . S
H808 C784 0.950 . S
H809 C785 0.949 . S
H810 C787 0.950 . S
H811 C789 0.950 . S
C812 C813 1.349 . S
C812 C814 1.327 . S
C812 H837 0.950 . S
C813 C812 1.349 . S
C813 C829 1.349 . S
C814 C812 1.327 . S
C814 C833 1.429 . S
C814 H838 0.950 . S
C815 C832 1.574 . S
C815 C834 1.368 . S
C815 H839 0.949 . S
H816 C820 0.949 . S
C817 C818 1.349 . S
C817 C819 1.327 . S
C817 H840 0.950 . S
C818 C817 1.349 . S
C818 C830 1.349 . S
C819 C817 1.327 . S
C819 C835 1.429 . S
C819 H841 0.950 . S
C820 H816 0.949 . S
C820 C828 1.574 . S
C820 C836 1.368 . S
H821 C829 0.950 . S
H822 C827 0.950 . S
H823 C828 0.949 . S
H824 C830 0.950 . S
H825 C831 0.950 . S
H826 C832 0.949 . S
C827 H822 0.950 . S
C827 C829 1.327 . S
C827 C833 1.429 . S
C828 C820 1.574 . S
C828 H823 0.949 . S
C828 C834 1.368 . S
C829 C813 1.349 . S
C829 H821 0.950 . S
C829 C827 1.327 . S
C830 C818 1.349 . S
C830 H824 0.950 . S
C830 C831 1.327 . S
C831 H825 0.950 . S
C831 C830 1.327 . S
C831 C835 1.429 . S
C832 C815 1.574 . S
C832 H826 0.949 . S
C832 C836 1.368 . S
C833 C814 1.429 . S
C833 C827 1.429 . S
C833 C834 1.523 . S
C834 C815 1.368 . S
C834 C828 1.368 . S
C834 C833 1.523 . S
C835 C819 1.429 . S
C835 C831 1.429 . S
C835 C836 1.523 . S
C836 C820 1.368 . S
C836 C832 1.368 . S
C836 C835 1.523 . S
H837 C812 0.950 . S
H838 C814 0.950 . S
H839 C815 0.949 . S
H840 C817 0.950 . S
H841 C819 0.950 . S
C842 C843 1.349 . S
C842 C844 1.327 . S
C842 H867 0.950 . S
C843 C842 1.349 . S
C843 C859 1.349 . S
C844 C842 1.327 . S
C844 C863 1.429 . S
C844 H868 0.950 . S
C845 C862 1.574 . S
C845 C864 1.368 . S
C845 H869 0.949 . S
H846 C850 0.949 . S
C847 C848 1.349 . S
C847 C849 1.327 . S
C847 H870 0.950 . S
C848 C847 1.349 . S
C848 C860 1.349 . S
C849 C847 1.327 . S
C849 C865 1.429 . S
C849 H871 0.950 . S
C850 H846 0.949 . S
C850 C858 1.574 . S
C850 C866 1.368 . S
H851 C859 0.950 . S
H852 C857 0.950 . S
H853 C858 0.949 . S
H854 C860 0.950 . S
H855 C861 0.950 . S
H856 C862 0.949 . S
C857 H852 0.950 . S
C857 C859 1.327 . S
C857 C863 1.429 . S
C858 C850 1.574 . S
C858 H853 0.949 . S
C858 C864 1.368 . S
C859 C843 1.349 . S
C859 H851 0.950 . S
C859 C857 1.327 . S
C860 C848 1.349 . S
C860 H854 0.950 . S
C860 C861 1.327 . S
C861 H855 0.950 . S
C861 C860 1.327 . S
C861 C865 1.429 . S
C862 C845 1.574 . S
C862 H856 0.949 . S
C862 C866 1.368 . S
C863 C844 1.429 . S
C863 C857 1.429 . S
C863 C864 1.523 . S
C864 C845 1.368 . S
C864 C858 1.368 . S
C864 C863 1.523 . S
C865 C849 1.429 . S
C865 C861 1.429 . S
C865 C866 1.523 . S
C866 C850 1.368 . S
C866 C862 1.368 . S
C866 C865 1.523 . S
H867 C842 0.950 . S
H868 C844 0.950 . S
H869 C845 0.949 . S
H870 C847 0.950 . S
H871 C849 0.950 . S
C872 C873 1.349 . S
C872 C874 1.327 . S
C872 H897 0.950 . S
C873 C872 1.349 . S
C873 C889 1.349 . S
C874 C872 1.327 . S
C874 C893 1.429 . S
C874 H898 0.950 . S
C875 C892 1.574 . S
C875 C894 1.368 . S
C875 H899 0.949 . S
H876 C880 0.949 . S
C877 C878 1.349 . S
C877 C879 1.327 . S
C877 H900 0.950 . S
C878 C877 1.349 . S
C878 C890 1.352 . S
C879 C877 1.327 . S
C879 C895 1.429 . S
C879 H901 0.950 . S
C880 H876 0.949 . S
C880 C888 1.574 . S
C880 C896 1.368 . S
H881 C889 0.950 . S
H882 C887 0.950 . S
H883 C888 0.949 . S
H884 C890 0.933 1_455 S
H885 C891 0.950 . S
H886 C892 0.949 . S
C887 H882 0.950 . S
C887 C889 1.327 . S
C887 C893 1.429 . S
C888 C880 1.574 . S
C888 H883 0.949 . S
C888 C894 1.368 . S
C889 C873 1.349 . S
C889 H881 0.950 . S
C889 C887 1.327 . S
C890 C878 1.352 . S
C890 H884 0.933 1_655 S
C890 C891 1.340 . S
C891 H885 0.950 . S
C891 C890 1.340 . S
C891 C895 1.429 . S
C892 C875 1.574 . S
C892 H886 0.949 . S
C892 C896 1.368 . S
C893 C874 1.429 . S
C893 C887 1.429 . S
C893 C894 1.523 . S
C894 C875 1.368 . S
C894 C888 1.368 . S
C894 C893 1.523 . S
C895 C879 1.429 . S
C895 C891 1.429 . S
C895 C896 1.523 . S
C896 C880 1.368 . S
C896 C892 1.368 . S
C896 C895 1.523 . S
H897 C872 0.950 . S
H898 C874 0.950 . S
H899 C875 0.949 . S
H900 C877 0.950 . S
H901 C879 0.950 . S
C902 C903 1.349 . S
C902 C904 1.327 . S
C902 H927 0.950 . S
C903 C902 1.349 . S
C903 C919 1.349 . S
C904 C902 1.327 . S
C904 C923 1.429 . S
C904 H928 0.950 . S
C905 C922 1.574 . S
C905 C924 1.368 . S
C905 H929 0.949 . S
H906 C910 0.949 . S
C907 C908 1.349 . S
C907 C909 1.327 . S
C907 H930 0.950 . S
C908 C907 1.349 . S
C908 C920 1.349 . S
C909 C907 1.327 . S
C909 C925 1.429 . S
C909 H931 0.950 . S
C910 H906 0.949 . S
C910 C918 1.574 . S
C910 C926 1.368 . S
H911 C919 0.950 . S
H912 C917 0.950 . S
H913 C918 0.949 . S
H914 C920 0.950 . S
H915 C921 0.950 . S
H916 C922 0.949 . S
C917 H912 0.950 . S
C917 C919 1.327 . S
C917 C923 1.429 . S
C918 C910 1.574 . S
C918 H913 0.949 . S
C918 C924 1.368 . S
C919 C903 1.349 . S
C919 H911 0.950 . S
C919 C917 1.327 . S
C920 C908 1.349 . S
C920 H914 0.950 . S
C920 C921 1.327 . S
C921 H915 0.950 . S
C921 C920 1.327 . S
C921 C925 1.429 . S
C922 C905 1.574 . S
C922 H916 0.949 . S
C922 C926 1.368 . S
C923 C904 1.429 . S
C923 C917 1.429 . S
C923 C924 1.523 . S
C924 C905 1.368 . S
C924 C918 1.368 . S
C924 C923 1.523 . S
C925 C909 1.429 . S
C925 C921 1.429 . S
C925 C926 1.523 . S
C926 C910 1.368 . S
C926 C922 1.368 . S
C926 C925 1.523 . S
H927 C902 0.950 . S
H928 C904 0.950 . S
H929 C905 0.949 . S
H930 C907 0.950 . S
H931 C909 0.950 . S
C932 C933 1.349 . S
C932 C934 1.327 . S
C932 H957 0.950 1_545 S
C933 C932 1.349 . S
C933 C949 1.349 . S
C934 C932 1.327 . S
C934 C953 1.429 . S
C934 H958 0.950 1_545 S
C935 C952 1.574 . S
C935 C954 1.368 . S
C935 H959 0.949 . S
H936 C940 0.949 1_565 S
C937 C938 1.349 . S
C937 C939 1.327 . S
C937 H960 0.950 . S
C938 C937 1.349 . S
C938 C950 1.349 . S
C939 C937 1.327 . S
C939 C955 1.429 . S
C939 H961 0.950 . S
C940 H936 0.949 1_545 S
C940 C948 1.574 . S
C940 C956 1.368 . S
H941 C949 0.950 . S
H942 C947 0.950 . S
H943 C948 0.949 1_565 S
H944 C950 0.950 1_565 S
H945 C951 0.950 1_565 S
H946 C952 0.949 . S
C947 H942 0.950 . S
C947 C949 1.327 . S
C947 C953 1.429 . S
C948 C940 1.574 . S
C948 H943 0.949 1_545 S
C948 C954 1.368 . S
C949 C933 1.349 . S
C949 H941 0.950 . S
C949 C947 1.327 . S
C950 C938 1.349 . S
C950 H944 0.950 1_545 S
C950 C951 1.327 . S
C951 H945 0.950 1_545 S
C951 C950 1.327 . S
C951 C955 1.429 . S
C952 C935 1.574 . S
C952 H946 0.949 . S
C952 C956 1.368 . S
C953 C934 1.429 . S
C953 C947 1.429 . S
C953 C954 1.523 . S
C954 C935 1.368 . S
C954 C948 1.368 . S
C954 C953 1.523 . S
C955 C939 1.429 . S
C955 C951 1.429 . S
C955 C956 1.523 . S
C956 C940 1.368 . S
C956 C952 1.368 . S
C956 C955 1.523 . S
H957 C932 0.950 1_565 S
H958 C934 0.950 1_565 S
H959 C935 0.949 . S
H960 C937 0.950 . S
H961 C939 0.950 . S
C962 C963 1.349 . S
C962 C964 1.327 . S
C962 H987 0.950 . S
C963 C962 1.349 . S
C963 C979 1.349 . S
C964 C962 1.327 . S
C964 C983 1.429 . S
C964 H988 0.950 . S
C965 C982 1.574 . S
C965 C984 1.368 . S
C965 H989 0.949 . S
H966 C970 0.949 . S
C967 C968 1.349 . S
C967 C969 1.327 . S
C967 H990 0.950 . S
C968 C967 1.349 . S
C968 C980 1.349 . S
C969 C967 1.327 . S
C969 C985 1.429 . S
C969 H991 0.950 . S
C970 H966 0.949 . S
C970 C978 1.574 . S
C970 C986 1.368 . S
H971 C979 0.950 . S
H972 C977 0.950 . S
H973 C978 0.949 . S
H974 C980 0.950 . S
H975 C981 0.950 . S
H976 C982 0.949 . S
C977 H972 0.950 . S
C977 C979 1.327 . S
C977 C983 1.429 . S
C978 C970 1.574 . S
C978 H973 0.949 . S
C978 C984 1.368 . S
C979 C963 1.349 . S
C979 H971 0.950 . S
C979 C977 1.327 . S
C980 C968 1.349 . S
C980 H974 0.950 . S
C980 C981 1.327 . S
C981 H975 0.950 . S
C981 C980 1.327 . S
C981 C985 1.429 . S
C982 C965 1.574 . S
C982 H976 0.949 . S
C982 C986 1.368 . S
C983 C964 1.429 . S
C983 C977 1.429 . S
C983 C984 1.523 . S
C984 C965 1.368 . S
C984 C978 1.368 . S
C984 C983 1.523 . S
C985 C969 1.429 . S
C985 C981 1.429 . S
C985 C986 1.523 . S
C986 C970 1.368 . S
C986 C982 1.368 . S
C986 C985 1.523 . S
H987 C962 0.950 . S
H988 C964 0.950 . S
H989 C965 0.949 . S
H990 C967 0.950 . S
H991 C969 0.950 . S
C992 C993 1.349 . S
C992 C994 1.327 . S
C992 H1017 0.950 . S
C993 C992 1.349 . S
C993 C1009 1.349 . S
C994 C992 1.327 . S
C994 C1013 1.429 . S
C994 H1018 0.950 . S
C995 C1012 1.574 . S
C995 C1014 1.368 . S
C995 H1019 0.949 . S
H996 C1000 0.949 . S
C997 C998 1.349 . S
C997 C999 1.327 . S
C997 H1020 0.950 . S
C998 C997 1.349 . S
C998 C1010 1.349 . S
C999 C997 1.327 . S
C999 C1015 1.429 . S
C999 H1021 0.950 . S
C1000 H996 0.949 . S
C1000 C1008 1.574 . S
C1000 C1016 1.368 . S
H1001 C1009 0.950 . S
H1002 C1007 0.950 . S
H1003 C1008 0.949 . S
H1004 C1010 0.950 1_455 S
H1005 C1011 0.950 . S
H1006 C1012 0.949 . S
C1007 H1002 0.950 . S
C1007 C1009 1.327 . S
C1007 C1013 1.429 . S
C1008 C1000 1.574 . S
C1008 H1003 0.949 . S
C1008 C1014 1.368 . S
C1009 C993 1.349 . S
C1009 H1001 0.950 . S
C1009 C1007 1.327 . S
C1010 C998 1.349 . S
C1010 H1004 0.950 1_655 S
C1010 C1011 1.327 . S
C1011 H1005 0.950 . S
C1011 C1010 1.327 . S
C1011 C1015 1.429 . S
C1012 C995 1.574 . S
C1012 H1006 0.949 . S
C1012 C1016 1.368 . S
C1013 C994 1.429 . S
C1013 C1007 1.429 . S
C1013 C1014 1.523 . S
C1014 C995 1.368 . S
C1014 C1008 1.368 . S
C1014 C1013 1.523 . S
C1015 C999 1.429 . S
C1015 C1011 1.429 . S
C1015 C1016 1.523 . S
C1016 C1000 1.368 . S
C1016 C1012 1.368 . S
C1016 C1015 1.523 . S
H1017 C992 0.950 . S
H1018 C994 0.950 . S
H1019 C995 0.949 . S
H1020 C997 0.950 . S
H1021 C999 0.950 . S
C1022 C1023 1.349 . S
C1022 C1024 1.327 . S
C1022 H1047 0.950 . S
C1023 C1022 1.349 . S
C1023 C1039 1.349 . S
C1024 C1022 1.327 . S
C1024 C1043 1.429 . S
C1024 H1048 0.950 . S
C1025 C1042 1.574 . S
C1025 C1044 1.368 . S
C1025 H1049 0.949 . S
H1026 C1030 0.949 . S
C1027 C1028 1.349 . S
C1027 C1029 1.327 . S
C1027 H1050 0.950 . S
C1028 C1027 1.349 . S
C1028 C1040 1.349 . S
C1029 C1027 1.327 . S
C1029 C1045 1.429 . S
C1029 H1051 0.950 . S
C1030 H1026 0.949 . S
C1030 C1038 1.574 . S
C1030 C1046 1.368 . S
H1031 C1039 0.950 . S
H1032 C1037 0.950 . S
H1033 C1038 0.949 . S
H1034 C1040 0.950 . S
H1035 C1041 0.950 . S
H1036 C1042 0.949 . S
C1037 H1032 0.950 . S
C1037 C1039 1.327 . S
C1037 C1043 1.429 . S
C1038 C1030 1.574 . S
C1038 H1033 0.949 . S
C1038 C1044 1.368 . S
C1039 C1023 1.349 . S
C1039 H1031 0.950 . S
C1039 C1037 1.327 . S
C1040 C1028 1.349 . S
C1040 H1034 0.950 . S
C1040 C1041 1.327 . S
C1041 H1035 0.950 . S
C1041 C1040 1.327 . S
C1041 C1045 1.429 . S
C1042 C1025 1.574 . S
C1042 H1036 0.949 . S
C1042 C1046 1.368 . S
C1043 C1024 1.429 . S
C1043 C1037 1.429 . S
C1043 C1044 1.523 . S
C1044 C1025 1.368 . S
C1044 C1038 1.368 . S
C1044 C1043 1.523 . S
C1045 C1029 1.429 . S
C1045 C1041 1.429 . S
C1045 C1046 1.523 . S
C1046 C1030 1.368 . S
C1046 C1042 1.368 . S
C1046 C1045 1.523 . S
H1047 C1022 0.950 . S
H1048 C1024 0.950 . S
H1049 C1025 0.949 . S
H1050 C1027 0.950 . S
H1051 C1029 0.950 . S
C1052 C1053 1.349 . S
C1052 C1054 1.327 . S
C1052 H1077 0.950 . S
C1053 C1052 1.349 . S
C1053 C1069 1.349 . S
C1054 C1052 1.327 . S
C1054 C1073 1.429 . S
C1054 H1078 0.950 . S
C1055 C1072 1.574 . S
C1055 C1074 1.368 . S
C1055 H1079 0.949 . S
H1056 C1060 0.949 . S
C1057 C1058 1.349 . S
C1057 C1059 1.327 . S
C1057 H1080 0.950 . S
C1058 C1057 1.349 . S
C1058 C1070 1.349 . S
C1059 C1057 1.327 . S
C1059 C1075 1.429 . S
C1059 H1081 0.950 . S
C1060 H1056 0.949 . S
C1060 C1068 1.574 . S
C1060 C1076 1.368 . S
H1061 C1069 0.950 . S
H1062 C1067 0.950 . S
H1063 C1068 0.949 . S
H1064 C1070 0.950 . S
H1065 C1071 0.950 . S
H1066 C1072 0.949 . S
C1067 H1062 0.950 . S
C1067 C1069 1.327 . S
C1067 C1073 1.429 . S
C1068 C1060 1.574 . S
C1068 H1063 0.949 . S
C1068 C1074 1.368 . S
C1069 C1053 1.349 . S
C1069 H1061 0.950 . S
C1069 C1067 1.327 . S
C1070 C1058 1.349 . S
C1070 H1064 0.950 . S
C1070 C1071 1.327 . S
C1071 H1065 0.950 . S
C1071 C1070 1.327 . S
C1071 C1075 1.429 . S
C1072 C1055 1.574 . S
C1072 H1066 0.949 . S
C1072 C1076 1.368 . S
C1073 C1054 1.429 . S
C1073 C1067 1.429 . S
C1073 C1074 1.523 . S
C1074 C1055 1.368 . S
C1074 C1068 1.368 . S
C1074 C1073 1.523 . S
C1075 C1059 1.429 . S
C1075 C1071 1.429 . S
C1075 C1076 1.523 . S
C1076 C1060 1.368 . S
C1076 C1072 1.368 . S
C1076 C1075 1.523 . S
H1077 C1052 0.950 . S
H1078 C1054 0.950 . S
H1079 C1055 0.949 . S
H1080 C1057 0.950 . S
H1081 C1059 0.950 . S
C1082 C1083 1.349 . S
C1082 C1084 1.327 . S
C1082 H1107 0.950 . S
C1083 C1082 1.349 . S
C1083 C1099 1.349 . S
C1084 C1082 1.327 . S
C1084 C1103 1.429 . S
C1084 H1108 0.950 . S
C1085 C1102 1.574 . S
C1085 C1104 1.368 . S
C1085 H1109 0.949 . S
H1086 C1090 0.949 . S
C1087 C1088 1.349 . S
C1087 C1089 1.327 . S
C1087 H1110 0.950 . S
C1088 C1087 1.349 . S
C1088 C1100 1.349 . S
C1089 C1087 1.327 . S
C1089 C1105 1.429 . S
C1089 H1111 0.950 . S
C1090 H1086 0.949 . S
C1090 C1098 1.574 . S
C1090 C1106 1.368 . S
H1091 C1099 0.950 . S
H1092 C1097 0.950 . S
H1093 C1098 0.949 . S
H1094 C1100 0.950 . S
H1095 C1101 0.950 . S
H1096 C1102 0.949 . S
C1097 H1092 0.950 . S
C1097 C1099 1.327 . S
C1097 C1103 1.429 . S
C1098 C1090 1.574 . S
C1098 H1093 0.949 . S
C1098 C1104 1.368 . S
C1099 C1083 1.349 . S
C1099 H1091 0.950 . S
C1099 C1097 1.327 . S
C1100 C1088 1.349 . S
C1100 H1094 0.950 . S
C1100 C1101 1.327 . S
C1101 H1095 0.950 . S
C1101 C1100 1.327 . S
C1101 C1105 1.429 . S
C1102 C1085 1.574 . S
C1102 H1096 0.949 . S
C1102 C1106 1.368 . S
C1103 C1084 1.429 . S
C1103 C1097 1.429 . S
C1103 C1104 1.523 . S
C1104 C1085 1.368 . S
C1104 C1098 1.368 . S
C1104 C1103 1.523 . S
C1105 C1089 1.429 . S
C1105 C1101 1.429 . S
C1105 C1106 1.523 . S
C1106 C1090 1.368 . S
C1106 C1102 1.368 . S
C1106 C1105 1.523 . S
H1107 C1082 0.950 . S
H1108 C1084 0.950 . S
H1109 C1085 0.949 . S
H1110 C1087 0.950 . S
H1111 C1089 0.950 . S
C1112 C1113 1.349 . S
C1112 C1114 1.327 . S
C1112 H1137 0.950 . S
C1113 C1112 1.349 . S
C1113 C1129 1.349 . S
C1114 C1112 1.327 . S
C1114 C1133 1.429 . S
C1114 H1138 0.950 . S
C1115 C1132 1.574 . S
C1115 C1134 1.368 . S
C1115 H1139 0.949 . S
H1116 C1120 0.949 . S
C1117 C1118 1.349 . S
C1117 C1119 1.327 . S
C1117 H1140 0.950 . S
C1118 C1117 1.349 . S
C1118 C1130 1.349 1_565 S
C1119 C1117 1.327 . S
C1119 C1135 1.429 . S
C1119 H1141 0.950 . S
C1120 H1116 0.949 . S
C1120 C1128 1.574 . S
C1120 C1136 1.368 . S
H1121 C1129 0.972 . S
H1122 C1127 0.950 . S
H1123 C1128 0.949 . S
H1124 C1130 0.950 . S
H1125 C1131 0.950 . S
H1126 C1132 0.949 . S
C1127 H1122 0.950 . S
C1127 C1129 1.327 . S
C1127 C1133 1.429 . S
C1128 C1120 1.574 . S
C1128 H1123 0.949 . S
C1128 C1134 1.368 . S
C1129 C1113 1.349 . S
C1129 H1121 0.972 . S
C1129 C1127 1.327 . S
C1130 C1118 1.349 1_545 S
C1130 H1124 0.950 . S
C1130 C1131 1.327 1_545 S
C1131 H1125 0.950 . S
C1131 C1130 1.327 1_565 S
C1131 C1135 1.429 . S
C1132 C1115 1.574 . S
C1132 H1126 0.949 . S
C1132 C1136 1.368 . S
C1133 C1114 1.429 . S
C1133 C1127 1.429 . S
C1133 C1134 1.523 . S
C1134 C1115 1.368 . S
C1134 C1128 1.368 . S
C1134 C1133 1.523 . S
C1135 C1119 1.429 . S
C1135 C1131 1.429 . S
C1135 C1136 1.523 . S
C1136 C1120 1.368 . S
C1136 C1132 1.368 . S
C1136 C1135 1.523 . S
H1137 C1112 0.950 . S
H1138 C1114 0.950 . S
H1139 C1115 0.949 . S
H1140 C1117 0.950 . S
H1141 C1119 0.950 . S
C1142 C1143 1.349 . S
C1142 C1144 1.327 . S
C1142 H1167 0.950 . S
C1143 C1142 1.349 . S
C1143 C1159 1.349 1_554 S
C1144 C1142 1.327 . S
C1144 C1163 1.429 . S
C1144 H1168 0.950 . S
C1145 C1162 1.574 . S
C1145 C1164 1.368 1_556 S
C1145 H1169 0.949 . S
H1146 C1150 0.949 . S
C1147 C1148 1.349 1_556 S
C1147 C1149 1.327 . S
C1147 H1170 0.950 . S
C1148 C1147 1.349 1_554 S
C1148 C1160 1.349 . S
C1149 C1147 1.327 . S
C1149 C1165 1.429 1_556 S
C1149 H1171 0.950 . S
C1150 H1146 0.949 . S
C1150 C1158 1.574 . S
C1150 C1166 1.368 . S
H1151 C1159 0.950 . S
H1152 C1157 0.950 . S
H1153 C1158 0.949 . S
H1154 C1160 0.950 . S
H1155 C1161 0.950 . S
H1156 C1162 0.949 . S
C1157 H1152 0.950 . S
C1157 C1159 1.327 . S
C1157 C1163 1.429 1_556 S
C1158 C1150 1.574 . S
C1158 H1153 0.949 . S
C1158 C1164 1.368 . S
C1159 C1143 1.349 1_556 S
C1159 H1151 0.950 . S
C1159 C1157 1.327 . S
C1160 C1148 1.349 . S
C1160 H1154 0.950 . S
C1160 C1161 1.327 . S
C1161 H1155 0.950 . S
C1161 C1160 1.327 . S
C1161 C1165 1.429 . S
C1162 C1145 1.574 . S
C1162 H1156 0.949 . S
C1162 C1166 1.368 1_556 S
C1163 C1144 1.429 . S
C1163 C1157 1.429 1_554 S
C1163 C1164 1.523 . S
C1164 C1145 1.368 1_554 S
C1164 C1158 1.368 . S
C1164 C1163 1.523 . S
C1165 C1149 1.429 1_554 S
C1165 C1161 1.429 . S
C1165 C1166 1.523 . S
C1166 C1150 1.368 . S
C1166 C1162 1.368 1_554 S
C1166 C1165 1.523 . S
H1167 C1142 0.950 . S
H1168 C1144 0.950 . S
H1169 C1145 0.949 . S
H1170 C1147 0.950 . S
H1171 C1149 0.950 . S
C1172 C1173 1.349 . S
C1172 C1174 1.327 . S
C1172 H1197 0.950 . S
C1173 C1172 1.349 . S
C1173 C1189 1.349 . S
C1174 C1172 1.327 . S
C1174 C1193 1.429 . S
C1174 H1198 0.950 . S
C1175 C1192 1.574 . S
C1175 C1194 1.368 . S
C1175 H1199 0.949 . S
H1176 C1180 0.949 . S
C1177 C1178 1.349 . S
C1177 C1179 1.327 . S
C1177 H1200 0.950 . S
C1178 C1177 1.349 . S
C1178 C1190 1.349 . S
C1179 C1177 1.327 . S
C1179 C1195 1.429 . S
C1179 H1201 0.950 . S
C1180 H1176 0.949 . S
C1180 C1188 1.574 . S
C1180 C1196 1.368 . S
H1181 C1189 0.950 . S
H1182 C1187 0.950 . S
H1183 C1188 0.949 . S
H1184 C1190 0.950 . S
H1185 C1191 0.950 . S
H1186 C1192 0.949 . S
C1187 H1182 0.950 . S
C1187 C1189 1.327 . S
C1187 C1193 1.429 . S
C1188 C1180 1.574 . S
C1188 H1183 0.949 . S
C1188 C1194 1.368 . S
C1189 C1173 1.349 . S
C1189 H1181 0.950 . S
C1189 C1187 1.327 . S
C1190 C1178 1.349 . S
C1190 H1184 0.950 . S
C1190 C1191 1.327 . S
C1191 H1185 0.950 . S
C1191 C1190 1.327 . S
C1191 C1195 1.429 . S
C1192 C1175 1.574 . S
C1192 H1186 0.949 . S
C1192 C1196 1.368 . S
C1193 C1174 1.429 . S
C1193 C1187 1.429 . S
C1193 C1194 1.523 . S
C1194 C1175 1.368 . S
C1194 C1188 1.368 . S
C1194 C1193 1.523 . S
C1195 C1179 1.429 . S
C1195 C1191 1.429 . S
C1195 C1196 1.523 . S
C1196 C1180 1.368 . S
C1196 C1192 1.368 . S
C1196 C1195 1.523 . S
H1197 C1172 0.950 . S
H1198 C1174 0.950 . S
H1199 C1175 0.949 . S
H1200 C1177 0.950 . S
H1201 C1179 0.950 . S
C1202 C1203 1.349 . S
C1202 C1204 1.327 . S
C1202 H1227 0.950 . S
C1203 C1202 1.349 . S
C1203 C1219 1.349 . S
C1204 C1202 1.327 . S
C1204 C1223 1.429 . S
C1204 H1228 0.950 . S
C1205 C1222 1.574 . S
C1205 C1224 1.368 . S
C1205 H1229 0.949 . S
H1206 C1210 0.949 . S
C1207 C1208 1.349 . S
C1207 C1209 1.327 . S
C1207 H1230 0.950 . S
C1208 C1207 1.349 . S
C1208 C1220 1.349 . S
C1209 C1207 1.327 . S
C1209 C1225 1.429 . S
C1209 H1231 0.950 . S
C1210 H1206 0.949 . S
C1210 C1218 1.574 . S
C1210 C1226 1.368 . S
H1211 C1219 0.950 . S
H1212 C1217 0.950 . S
H1213 C1218 0.949 . S
H1214 C1220 0.950 . S
H1215 C1221 0.950 . S
H1216 C1222 0.949 . S
C1217 H1212 0.950 . S
C1217 C1219 1.327 . S
C1217 C1223 1.429 . S
C1218 C1210 1.574 . S
C1218 H1213 0.949 . S
C1218 C1224 1.368 . S
C1219 C1203 1.349 . S
C1219 H1211 0.950 . S
C1219 C1217 1.327 . S
C1220 C1208 1.349 . S
C1220 H1214 0.950 . S
C1220 C1221 1.327 . S
C1221 H1215 0.950 . S
C1221 C1220 1.327 . S
C1221 C1225 1.429 . S
C1222 C1205 1.574 . S
C1222 H1216 0.949 . S
C1222 C1226 1.368 . S
C1223 C1204 1.429 . S
C1223 C1217 1.429 . S
C1223 C1224 1.523 . S
C1224 C1205 1.368 . S
C1224 C1218 1.368 . S
C1224 C1223 1.523 . S
C1225 C1209 1.429 . S
C1225 C1221 1.429 . S
C1225 C1226 1.523 . S
C1226 C1210 1.368 . S
C1226 C1222 1.368 . S
C1226 C1225 1.523 . S
H1227 C1202 0.950 . S
H1228 C1204 0.950 . S
H1229 C1205 0.949 . S
H1230 C1207 0.950 . S
H1231 C1209 0.950 . S
C1232 C1233 1.349 . S
C1232 C1234 1.327 . S
C1232 H1257 0.950 . S
C1233 C1232 1.349 . S
C1233 C1249 1.349 . S
C1234 C1232 1.327 . S
C1234 C1253 1.429 . S
C1234 H1258 0.950 . S
C1235 C1252 1.574 . S
C1235 C1254 1.368 . S
C1235 H1259 0.949 . S
H1236 C1240 0.949 . S
C1237 C1238 1.349 . S
C1237 C1239 1.327 . S
C1237 H1260 0.950 . S
C1238 C1237 1.349 . S
C1238 C1250 1.349 . S
C1239 C1237 1.327 . S
C1239 C1255 1.429 . S
C1239 H1261 0.950 . S
C1240 H1236 0.949 . S
C1240 C1248 1.574 . S
C1240 C1256 1.368 . S
H1241 C1249 0.950 . S
H1242 C1247 0.950 . S
H1243 C1248 0.949 . S
H1244 C1250 0.950 . S
H1245 C1251 0.950 . S
H1246 C1252 0.949 . S
C1247 H1242 0.950 . S
C1247 C1249 1.327 . S
C1247 C1253 1.429 . S
C1248 C1240 1.574 . S
C1248 H1243 0.949 . S
C1248 C1254 1.368 . S
C1249 C1233 1.349 . S
C1249 H1241 0.950 . S
C1249 C1247 1.327 . S
C1250 C1238 1.349 . S
C1250 H1244 0.950 . S
C1250 C1251 1.327 . S
C1251 H1245 0.950 . S
C1251 C1250 1.327 . S
C1251 C1255 1.429 . S
C1252 C1235 1.574 . S
C1252 H1246 0.949 . S
C1252 C1256 1.368 . S
C1253 C1234 1.429 . S
C1253 C1247 1.429 . S
C1253 C1254 1.523 . S
C1254 C1235 1.368 . S
C1254 C1248 1.368 . S
C1254 C1253 1.523 . S
C1255 C1239 1.429 . S
C1255 C1251 1.429 . S
C1255 C1256 1.523 . S
C1256 C1240 1.368 . S
C1256 C1252 1.368 . S
C1256 C1255 1.523 . S
H1257 C1232 0.950 . S
H1258 C1234 0.950 . S
H1259 C1235 0.949 . S
H1260 C1237 0.950 . S
H1261 C1239 0.950 . S
C1262 C1263 1.349 . S
C1262 C1264 1.327 . S
C1262 H1287 0.950 . S
C1263 C1262 1.349 . S
C1263 C1279 1.349 . S
C1264 C1262 1.327 . S
C1264 C1283 1.429 . S
C1264 H1288 0.950 . S
C1265 C1282 1.574 . S
C1265 C1284 1.368 . S
C1265 H1289 0.949 . S
H1266 C1270 0.949 . S
C1267 C1268 1.349 . S
C1267 C1269 1.327 . S
C1267 H1290 0.950 . S
C1268 C1267 1.349 . S
C1268 C1280 1.349 . S
C1269 C1267 1.327 . S
C1269 C1285 1.429 . S
C1269 H1291 0.950 . S
C1270 H1266 0.949 . S
C1270 C1278 1.574 . S
C1270 C1286 1.368 . S
H1271 C1279 0.950 . S
H1272 C1277 0.950 . S
H1273 C1278 0.949 . S
H1274 C1280 0.950 . S
H1275 C1281 0.950 . S
H1276 C1282 0.949 . S
C1277 H1272 0.950 . S
C1277 C1279 1.327 . S
C1277 C1283 1.429 . S
C1278 C1270 1.574 . S
C1278 H1273 0.949 . S
C1278 C1284 1.368 . S
C1279 C1263 1.349 . S
C1279 H1271 0.950 . S
C1279 C1277 1.327 . S
C1280 C1268 1.349 . S
C1280 H1274 0.950 . S
C1280 C1281 1.327 . S
C1281 H1275 0.950 . S
C1281 C1280 1.327 . S
C1281 C1285 1.429 . S
C1282 C1265 1.574 . S
C1282 H1276 0.949 . S
C1282 C1286 1.368 . S
C1283 C1264 1.429 . S
C1283 C1277 1.429 . S
C1283 C1284 1.523 . S
C1284 C1265 1.368 . S
C1284 C1278 1.368 . S
C1284 C1283 1.523 . S
C1285 C1269 1.429 . S
C1285 C1281 1.429 . S
C1285 C1286 1.523 . S
C1286 C1270 1.368 . S
C1286 C1282 1.368 . S
C1286 C1285 1.523 . S
H1287 C1262 0.950 . S
H1288 C1264 0.950 . S
H1289 C1265 0.949 . S
H1290 C1267 0.950 . S
H1291 C1269 0.950 . S
C1292 C1293 1.349 . S
C1292 C1294 1.327 . S
C1292 H1317 0.950 . S
C1293 C1292 1.349 . S
C1293 C1309 1.349 . S
C1294 C1292 1.327 . S
C1294 C1313 1.429 . S
C1294 H1318 0.950 . S
C1295 C1312 1.574 . S
C1295 C1314 1.368 . S
C1295 H1319 0.949 . S
H1296 C1300 0.949 . S
C1297 C1298 1.349 . S
C1297 C1299 1.327 . S
C1297 H1320 0.950 . S
C1298 C1297 1.349 . S
C1298 C1310 1.349 . S
C1299 C1297 1.327 . S
C1299 C1315 1.429 . S
C1299 H1321 0.950 . S
C1300 H1296 0.949 . S
C1300 C1308 1.574 . S
C1300 C1316 1.368 . S
H1301 C1309 0.950 . S
H1302 C1307 0.950 . S
H1303 C1308 0.949 . S
H1304 C1310 0.950 . S
H1305 C1311 0.950 . S
H1306 C1312 0.949 . S
C1307 H1302 0.950 . S
C1307 C1309 1.327 . S
C1307 C1313 1.429 . S
C1308 C1300 1.574 . S
C1308 H1303 0.949 . S
C1308 C1314 1.368 . S
C1309 C1293 1.349 . S
C1309 H1301 0.950 . S
C1309 C1307 1.327 . S
C1310 C1298 1.349 . S
C1310 H1304 0.950 . S
C1310 C1311 1.327 . S
C1311 H1305 0.950 . S
C1311 C1310 1.327 . S
C1311 C1315 1.429 . S
C1312 C1295 1.574 . S
C1312 H1306 0.949 . S
C1312 C1316 1.368 . S
C1313 C1294 1.429 . S
C1313 C1307 1.429 . S
C1313 C1314 1.523 . S
C1314 C1295 1.368 . S
C1314 C1308 1.368 . S
C1314 C1313 1.523 . S
C1315 C1299 1.429 . S
C1315 C1311 1.429 . S
C1315 C1316 1.523 . S
C1316 C1300 1.368 . S
C1316 C1312 1.368 . S
C1316 C1315 1.523 . S
H1317 C1292 0.950 . S
H1318 C1294 0.950 . S
H1319 C1295 0.949 . S
H1320 C1297 0.950 . S
H1321 C1299 0.950 . S
C1322 C1323 1.349 . S
C1322 C1324 1.327 . S
C1322 H1347 0.950 . S
C1323 C1322 1.349 . S
C1323 C1339 1.349 . S
C1324 C1322 1.327 . S
C1324 C1343 1.429 . S
C1324 H1348 0.950 . S
C1325 C1342 1.574 . S
C1325 C1344 1.368 . S
C1325 H1349 0.949 . S
H1326 C1330 0.949 . S
C1327 C1328 1.349 . S
C1327 C1329 1.327 . S
C1327 H1350 0.950 . S
C1328 C1327 1.349 . S
C1328 C1340 1.349 . S
C1329 C1327 1.327 . S
C1329 C1345 1.429 . S
C1329 H1351 0.950 . S
C1330 H1326 0.949 . S
C1330 C1338 1.574 . S
C1330 C1346 1.368 . S
H1331 C1339 0.950 . S
H1332 C1337 0.950 . S
H1333 C1338 0.949 . S
H1334 C1340 0.950 . S
H1335 C1341 0.950 . S
H1336 C1342 0.949 . S
C1337 H1332 0.950 . S
C1337 C1339 1.327 . S
C1337 C1343 1.429 . S
C1338 C1330 1.574 . S
C1338 H1333 0.949 . S
C1338 C1344 1.368 . S
C1339 C1323 1.349 . S
C1339 H1331 0.950 . S
C1339 C1337 1.327 . S
C1340 C1328 1.349 . S
C1340 H1334 0.950 . S
C1340 C1341 1.327 . S
C1341 H1335 0.950 . S
C1341 C1340 1.327 . S
C1341 C1345 1.429 . S
C1342 C1325 1.574 . S
C1342 H1336 0.949 . S
C1342 C1346 1.368 . S
C1343 C1324 1.429 . S
C1343 C1337 1.429 . S
C1343 C1344 1.523 . S
C1344 C1325 1.368 . S
C1344 C1338 1.368 . S
C1344 C1343 1.523 . S
C1345 C1329 1.429 . S
C1345 C1341 1.429 . S
C1345 C1346 1.523 . S
C1346 C1330 1.368 . S
C1346 C1342 1.368 . S
C1346 C1345 1.523 . S
H1347 C1322 0.950 . S
H1348 C1324 0.950 . S
H1349 C1325 0.949 . S
H1350 C1327 0.950 . S
H1351 C1329 0.950 . S
C1352 C1353 1.349 . S
C1352 C1354 1.327 . S
C1352 H1377 0.950 . S
C1353 C1352 1.349 . S
C1353 C1369 1.349 . S
C1354 C1352 1.327 . S
C1354 C1373 1.429 . S
C1354 H1378 0.950 . S
C1355 C1372 1.574 . S
C1355 C1374 1.368 . S
C1355 H1379 0.949 . S
H1356 C1360 0.949 . S
C1357 C1358 1.349 . S
C1357 C1359 1.327 . S
C1357 H1380 0.950 1_455 S
C1358 C1357 1.349 . S
C1358 C1370 1.349 . S
C1359 C1357 1.327 . S
C1359 C1375 1.429 . S
C1359 H1381 0.950 1_455 S
C1360 H1356 0.949 . S
C1360 C1368 1.574 . S
C1360 C1376 1.368 . S
H1361 C1369 0.950 . S
H1362 C1367 0.950 . S
H1363 C1368 0.949 . S
H1364 C1370 0.950 . S
H1365 C1371 0.950 . S
H1366 C1372 0.939 1_655 S
C1367 H1362 0.950 . S
C1367 C1369 1.327 . S
C1367 C1373 1.429 . S
C1368 C1360 1.574 . S
C1368 H1363 0.949 . S
C1368 C1374 1.368 . S
C1369 C1353 1.349 . S
C1369 H1361 0.950 . S
C1369 C1367 1.327 . S
C1370 C1358 1.349 . S
C1370 H1364 0.950 . S
C1370 C1371 1.327 . S
C1371 H1365 0.950 . S
C1371 C1370 1.327 . S
C1371 C1375 1.429 . S
C1372 C1355 1.574 . S
C1372 H1366 0.939 1_455 S
C1372 C1376 1.368 . S
C1373 C1354 1.429 . S
C1373 C1367 1.429 . S
C1373 C1374 1.523 . S
C1374 C1355 1.368 . S
C1374 C1368 1.368 . S
C1374 C1373 1.523 . S
C1375 C1359 1.429 . S
C1375 C1371 1.429 . S
C1375 C1376 1.523 . S
C1376 C1360 1.368 . S
C1376 C1372 1.368 . S
C1376 C1375 1.523 . S
H1377 C1352 0.950 . S
H1378 C1354 0.950 . S
H1379 C1355 0.949 . S
H1380 C1357 0.950 1_655 S
H1381 C1359 0.950 1_655 S
C1382 C1383 1.349 . S
C1382 C1384 1.327 . S
C1382 H1407 0.950 . S
C1383 C1382 1.349 . S
C1383 C1399 1.349 . S
C1384 C1382 1.327 . S
C1384 C1403 1.429 . S
C1384 H1408 0.950 . S
C1385 C1402 1.574 . S
C1385 C1404 1.368 . S
C1385 H1409 0.949 . S
H1386 C1390 0.949 . S
C1387 C1388 1.349 . S
C1387 C1389 1.327 . S
C1387 H1410 0.950 . S
C1388 C1387 1.349 . S
C1388 C1400 1.349 . S
C1389 C1387 1.327 . S
C1389 C1405 1.429 . S
C1389 H1411 0.950 . S
C1390 H1386 0.949 . S
C1390 C1398 1.574 . S
C1390 C1406 1.368 . S
H1391 C1399 0.950 . S
H1392 C1397 0.950 . S
H1393 C1398 0.949 . S
H1394 C1400 0.950 . S
H1395 C1401 0.950 . S
H1396 C1402 0.949 . S
C1397 H1392 0.950 . S
C1397 C1399 1.327 . S
C1397 C1403 1.429 . S
C1398 C1390 1.574 . S
C1398 H1393 0.949 . S
C1398 C1404 1.368 . S
C1399 C1383 1.349 . S
C1399 H1391 0.950 . S
C1399 C1397 1.327 . S
C1400 C1388 1.349 . S
C1400 H1394 0.950 . S
C1400 C1401 1.327 . S
C1401 H1395 0.950 . S
C1401 C1400 1.327 . S
C1401 C1405 1.429 . S
C1402 C1385 1.574 . S
C1402 H1396 0.949 . S
C1402 C1406 1.368 . S
C1403 C1384 1.429 . S
C1403 C1397 1.429 . S
C1403 C1404 1.523 . S
C1404 C1385 1.368 . S
C1404 C1398 1.368 . S
C1404 C1403 1.523 . S
C1405 C1389 1.429 . S
C1405 C1401 1.429 . S
C1405 C1406 1.523 . S
C1406 C1390 1.368 . S
C1406 C1402 1.368 . S
C1406 C1405 1.523 . S
H1407 C1382 0.950 . S
H1408 C1384 0.950 . S
H1409 C1385 0.949 . S
H1410 C1387 0.950 . S
H1411 C1389 0.950 . S
C1412 C1413 1.349 . S
C1412 C1414 1.327 . S
C1412 H1437 0.950 . S
C1413 C1412 1.349 . S
C1413 C1429 1.349 . S
C1414 C1412 1.327 . S
C1414 C1433 1.429 . S
C1414 H1438 0.950 . S
C1415 C1432 1.574 . S
C1415 C1434 1.368 . S
C1415 H1439 0.949 . S
H1416 C1420 0.949 . S
C1417 C1418 1.349 . S
C1417 C1419 1.327 . S
C1417 H1440 0.950 . S
C1418 C1417 1.349 . S
C1418 C1430 1.349 . S
C1419 C1417 1.327 . S
C1419 C1435 1.429 . S
C1419 H1441 0.950 . S
C1420 H1416 0.949 . S
C1420 C1428 1.574 . S
C1420 C1436 1.368 . S
H1421 C1429 0.950 . S
H1422 C1427 0.950 . S
H1423 C1428 0.949 . S
H1424 C1430 0.950 . S
H1425 C1431 0.950 . S
H1426 C1432 0.949 . S
C1427 H1422 0.950 . S
C1427 C1429 1.327 . S
C1427 C1433 1.429 . S
C1428 C1420 1.574 . S
C1428 H1423 0.949 . S
C1428 C1434 1.368 . S
C1429 C1413 1.349 . S
C1429 H1421 0.950 . S
C1429 C1427 1.327 . S
C1430 C1418 1.349 . S
C1430 H1424 0.950 . S
C1430 C1431 1.327 . S
C1431 H1425 0.950 . S
C1431 C1430 1.327 . S
C1431 C1435 1.429 . S
C1432 C1415 1.574 . S
C1432 H1426 0.949 . S
C1432 C1436 1.368 . S
C1433 C1414 1.429 . S
C1433 C1427 1.429 . S
C1433 C1434 1.523 . S
C1434 C1415 1.368 . S
C1434 C1428 1.368 . S
C1434 C1433 1.523 . S
C1435 C1419 1.429 . S
C1435 C1431 1.429 . S
C1435 C1436 1.523 . S
C1436 C1420 1.368 . S
C1436 C1432 1.368 . S
C1436 C1435 1.523 . S
H1437 C1412 0.950 . S
H1438 C1414 0.950 . S
H1439 C1415 0.949 . S
H1440 C1417 0.950 . S
H1441 C1419 0.950 . S
C1442 C1443 1.349 . S
C1442 C1444 1.327 . S
C1442 H1467 0.950 . S
C1443 C1442 1.349 . S
C1443 C1459 1.349 . S
C1444 C1442 1.327 . S
C1444 C1463 1.429 . S
C1444 H1468 0.950 . S
C1445 C1462 1.574 . S
C1445 C1464 1.368 . S
C1445 H1469 0.949 . S
H1446 C1450 0.949 . S
C1447 C1448 1.349 . S
C1447 C1449 1.327 . S
C1447 H1470 0.950 . S
C1448 C1447 1.349 . S
C1448 C1460 1.349 . S
C1449 C1447 1.327 . S
C1449 C1465 1.429 . S
C1449 H1471 0.950 . S
C1450 H1446 0.949 . S
C1450 C1458 1.574 . S
C1450 C1466 1.368 . S
H1451 C1459 0.950 . S
H1452 C1457 0.950 . S
H1453 C1458 0.949 . S
H1454 C1460 0.950 . S
H1455 C1461 0.950 . S
H1456 C1462 0.949 . S
C1457 H1452 0.950 . S
C1457 C1459 1.327 . S
C1457 C1463 1.429 . S
C1458 C1450 1.574 . S
C1458 H1453 0.949 . S
C1458 C1464 1.368 . S
C1459 C1443 1.349 . S
C1459 H1451 0.950 . S
C1459 C1457 1.327 . S
C1460 C1448 1.349 . S
C1460 H1454 0.950 . S
C1460 C1461 1.327 . S
C1461 H1455 0.950 . S
C1461 C1460 1.327 . S
C1461 C1465 1.429 . S
C1462 C1445 1.574 . S
C1462 H1456 0.949 . S
C1462 C1466 1.368 . S
C1463 C1444 1.429 . S
C1463 C1457 1.429 . S
C1463 C1464 1.523 . S
C1464 C1445 1.368 . S
C1464 C1458 1.368 . S
C1464 C1463 1.523 . S
C1465 C1449 1.429 . S
C1465 C1461 1.429 . S
C1465 C1466 1.523 . S
C1466 C1450 1.368 . S
C1466 C1462 1.368 . S
C1466 C1465 1.523 . S
H1467 C1442 0.950 . S
H1468 C1444 0.950 . S
H1469 C1445 0.949 . S
H1470 C1447 0.950 . S
H1471 C1449 0.950 . S
C1472 C1473 1.349 . S
C1472 C1474 1.327 . S
C1472 H1497 0.950 . S
C1473 C1472 1.349 . S
C1473 C1489 1.349 . S
C1474 C1472 1.327 . S
C1474 C1493 1.429 . S
C1474 H1498 0.950 . S
C1475 C1492 1.574 . S
C1475 C1494 1.368 . S
C1475 H1499 0.949 . S
H1476 C1480 0.949 . S
C1477 C1478 1.350 1_655 S
C1477 C1479 1.324 . S
C1477 H1500 0.950 . S
C1478 C1477 1.350 1_455 S
C1478 C1490 1.348 . S
C1479 C1477 1.324 . S
C1479 C1495 1.418 1_655 S
C1479 H1501 0.967 . S
C1480 H1476 0.949 . S
C1480 C1488 1.574 . S
C1480 C1496 1.368 . S
H1481 C1489 0.950 . S
H1482 C1487 0.950 . S
H1483 C1488 0.949 . S
H1484 C1490 0.950 . S
H1485 C1491 0.950 . S
H1486 C1492 0.941 1_655 S
C1487 H1482 0.950 . S
C1487 C1489 1.327 . S
C1487 C1493 1.429 . S
C1488 C1480 1.574 . S
C1488 H1483 0.949 . S
C1488 C1494 1.368 . S
C1489 C1473 1.349 . S
C1489 H1481 0.950 . S
C1489 C1487 1.327 . S
C1490 C1478 1.348 . S
C1490 H1484 0.950 . S
C1490 C1491 1.327 . S
C1491 H1485 0.950 . S
C1491 C1490 1.327 . S
C1491 C1495 1.429 . S
C1492 C1475 1.574 . S
C1492 H1486 0.941 1_455 S
C1492 C1496 1.368 . S
C1493 C1474 1.429 . S
C1493 C1487 1.429 . S
C1493 C1494 1.523 . S
C1494 C1475 1.368 . S
C1494 C1488 1.368 . S
C1494 C1493 1.523 . S
C1495 C1479 1.418 1_455 S
C1495 C1491 1.429 . S
C1495 C1496 1.523 . S
C1496 C1480 1.368 . S
C1496 C1492 1.368 . S
C1496 C1495 1.523 . S
H1497 C1472 0.950 . S
H1498 C1474 0.950 . S
H1499 C1475 0.949 . S
H1500 C1477 0.950 . S
H1501 C1479 0.967 . S
C1502 C1503 1.349 . S
C1502 C1504 1.327 . S
C1502 H1527 0.950 . S
C1503 C1502 1.349 . S
C1503 C1519 1.349 . S
C1504 C1502 1.327 . S
C1504 C1523 1.429 . S
C1504 H1528 0.950 . S
C1505 C1522 1.574 . S
C1505 C1524 1.368 . S
C1505 H1529 0.949 . S
H1506 C1510 0.949 . S
C1507 C1508 1.349 . S
C1507 C1509 1.327 . S
C1507 H1530 0.950 . S
C1508 C1507 1.349 . S
C1508 C1520 1.349 . S
C1509 C1507 1.327 . S
C1509 C1525 1.429 . S
C1509 H1531 0.950 . S
C1510 H1506 0.949 . S
C1510 C1518 1.574 . S
C1510 C1526 1.368 . S
H1511 C1519 0.950 . S
H1512 C1517 0.950 . S
H1513 C1518 0.949 . S
H1514 C1520 0.950 . S
H1515 C1521 0.950 . S
H1516 C1522 0.949 . S
C1517 H1512 0.950 . S
C1517 C1519 1.327 . S
C1517 C1523 1.429 . S
C1518 C1510 1.574 . S
C1518 H1513 0.949 . S
C1518 C1524 1.368 . S
C1519 C1503 1.349 . S
C1519 H1511 0.950 . S
C1519 C1517 1.327 . S
C1520 C1508 1.349 . S
C1520 H1514 0.950 . S
C1520 C1521 1.327 . S
C1521 H1515 0.950 . S
C1521 C1520 1.327 . S
C1521 C1525 1.429 . S
C1522 C1505 1.574 . S
C1522 H1516 0.949 . S
C1522 C1526 1.368 . S
C1523 C1504 1.429 . S
C1523 C1517 1.429 . S
C1523 C1524 1.523 . S
C1524 C1505 1.368 . S
C1524 C1518 1.368 . S
C1524 C1523 1.523 . S
C1525 C1509 1.429 . S
C1525 C1521 1.429 . S
C1525 C1526 1.523 . S
C1526 C1510 1.368 . S
C1526 C1522 1.368 . S
C1526 C1525 1.523 . S
H1527 C1502 0.950 . S
H1528 C1504 0.950 . S
H1529 C1505 0.949 . S
H1530 C1507 0.950 . S
H1531 C1509 0.950 . S
C1532 C1533 1.349 . S
C1532 C1534 1.327 . S
C1532 H1557 0.950 . S
C1533 C1532 1.349 . S
C1533 C1549 1.349 . S
C1534 C1532 1.327 . S
C1534 C1553 1.429 . S
C1534 H1558 0.950 . S
C1535 C1552 1.574 . S
C1535 C1554 1.368 . S
C1535 H1559 0.949 . S
H1536 C1540 0.949 . S
C1537 C1538 1.349 . S
C1537 C1539 1.327 . S
C1537 H1560 0.950 . S
C1538 C1537 1.349 . S
C1538 C1550 1.349 1_556 S
C1539 C1537 1.327 . S
C1539 C1555 1.429 . S
C1539 H1561 0.950 . S
C1540 H1536 0.949 . S
C1540 C1548 1.574 . S
C1540 C1556 1.368 . S
H1541 C1549 0.950 . S
H1542 C1547 0.950 . S
H1543 C1548 0.949 . S
H1544 C1550 0.950 . S
H1545 C1551 0.950 1_554 S
H1546 C1552 0.949 . S
C1547 H1542 0.950 . S
C1547 C1549 1.327 . S
C1547 C1553 1.429 . S
C1548 C1540 1.574 . S
C1548 H1543 0.949 . S
C1548 C1554 1.368 . S
C1549 C1533 1.349 . S
C1549 H1541 0.950 . S
C1549 C1547 1.327 . S
C1550 C1538 1.349 1_554 S
C1550 H1544 0.950 . S
C1550 C1551 1.327 1_554 S
C1551 H1545 0.950 1_556 S
C1551 C1550 1.327 1_556 S
C1551 C1555 1.429 . S
C1552 C1535 1.574 . S
C1552 H1546 0.949 . S
C1552 C1556 1.368 . S
C1553 C1534 1.429 . S
C1553 C1547 1.429 . S
C1553 C1554 1.523 . S
C1554 C1535 1.368 . S
C1554 C1548 1.368 . S
C1554 C1553 1.523 . S
C1555 C1539 1.429 . S
C1555 C1551 1.429 . S
C1555 C1556 1.523 . S
C1556 C1540 1.368 . S
C1556 C1552 1.368 . S
C1556 C1555 1.523 . S
H1557 C1532 0.950 . S
H1558 C1534 0.950 . S
H1559 C1535 0.949 . S
H1560 C1537 0.950 . S
H1561 C1539 0.950 . S
C1562 C1563 1.349 . S
C1562 C1564 1.327 . S
C1562 H1587 0.950 . S
C1563 C1562 1.349 . S
C1563 C1579 1.349 . S
C1564 C1562 1.327 . S
C1564 C1583 1.429 . S
C1564 H1588 0.950 . S
C1565 C1582 1.574 . S
C1565 C1584 1.368 . S
C1565 H1589 0.949 . S
H1566 C1570 0.949 . S
C1567 C1568 1.349 . S
C1567 C1569 1.327 . S
C1567 H1590 0.950 . S
C1568 C1567 1.349 . S
C1568 C1580 1.349 . S
C1569 C1567 1.327 . S
C1569 C1585 1.429 . S
C1569 H1591 0.950 . S
C1570 H1566 0.949 . S
C1570 C1578 1.574 . S
C1570 C1586 1.368 . S
H1571 C1579 0.950 . S
H1572 C1577 0.950 . S
H1573 C1578 0.949 . S
H1574 C1580 0.950 . S
H1575 C1581 0.950 . S
H1576 C1582 0.949 . S
C1577 H1572 0.950 . S
C1577 C1579 1.327 . S
C1577 C1583 1.429 . S
C1578 C1570 1.574 . S
C1578 H1573 0.949 . S
C1578 C1584 1.368 . S
C1579 C1563 1.349 . S
C1579 H1571 0.950 . S
C1579 C1577 1.327 . S
C1580 C1568 1.349 . S
C1580 H1574 0.950 . S
C1580 C1581 1.327 . S
C1581 H1575 0.950 . S
C1581 C1580 1.327 . S
C1581 C1585 1.429 . S
C1582 C1565 1.574 . S
C1582 H1576 0.949 . S
C1582 C1586 1.368 . S
C1583 C1564 1.429 . S
C1583 C1577 1.429 . S
C1583 C1584 1.523 . S
C1584 C1565 1.368 . S
C1584 C1578 1.368 . S
C1584 C1583 1.523 . S
C1585 C1569 1.429 . S
C1585 C1581 1.429 . S
C1585 C1586 1.523 . S
C1586 C1570 1.368 . S
C1586 C1582 1.368 . S
C1586 C1585 1.523 . S
H1587 C1562 0.950 . S
H1588 C1564 0.950 . S
H1589 C1565 0.949 . S
H1590 C1567 0.950 . S
H1591 C1569 0.950 . S
C1592 C1593 1.301 1_545 S
C1592 C1594 1.327 . S
C1592 H1617 0.950 . S
C1593 C1592 1.301 1_565 S
C1593 C1609 1.393 . S
C1594 C1592 1.327 . S
C1594 C1613 1.429 . S
C1594 H1618 0.950 . S
C1595 C1612 1.574 . S
C1595 C1614 1.368 1_565 S
C1595 H1619 0.949 . S
H1596 C1600 0.949 . S
C1597 C1598 1.349 1_565 S
C1597 C1599 1.327 . S
C1597 H1620 0.950 . S
C1598 C1597 1.349 1_545 S
C1598 C1610 1.349 . S
C1599 C1597 1.327 . S
C1599 C1615 1.429 1_565 S
C1599 H1621 0.950 . S
C1600 H1596 0.949 . S
C1600 C1608 1.574 . S
C1600 C1616 1.368 . S
H1601 C1609 0.950 . S
H1602 C1607 0.950 . S
H1603 C1608 0.949 . S
H1604 C1610 0.950 . S
H1605 C1611 0.950 . S
H1606 C1612 0.949 . S
C1607 H1602 0.950 . S
C1607 C1609 1.327 . S
C1607 C1613 1.429 1_565 S
C1608 C1600 1.574 . S
C1608 H1603 0.949 . S
C1608 C1614 1.368 . S
C1609 C1593 1.393 . S
C1609 H1601 0.950 . S
C1609 C1607 1.327 . S
C1610 C1598 1.349 . S
C1610 H1604 0.950 . S
C1610 C1611 1.327 . S
C1611 H1605 0.950 . S
C1611 C1610 1.327 . S
C1611 C1615 1.429 . S
C1612 C1595 1.574 . S
C1612 H1606 0.949 . S
C1612 C1616 1.368 1_565 S
C1613 C1594 1.429 . S
C1613 C1607 1.429 1_545 S
C1613 C1614 1.523 . S
C1614 C1595 1.368 1_545 S
C1614 C1608 1.368 . S
C1614 C1613 1.523 . S
C1615 C1599 1.429 1_545 S
C1615 C1611 1.429 . S
C1615 C1616 1.523 . S
C1616 C1600 1.368 . S
C1616 C1612 1.368 1_545 S
C1616 C1615 1.523 . S
H1617 C1592 0.950 . S
H1618 C1594 0.950 . S
H1619 C1595 0.949 . S
H1620 C1597 0.950 . S
H1621 C1599 0.950 . S
C1622 C1623 1.349 . S
C1622 C1624 1.327 . S
C1622 H1647 0.950 . S
C1623 C1622 1.349 . S
C1623 C1639 1.349 . S
C1624 C1622 1.327 . S
C1624 C1643 1.429 . S
C1624 H1648 0.950 . S
C1625 C1642 1.574 . S
C1625 C1644 1.368 . S
C1625 H1649 0.949 . S
H1626 C1630 0.949 . S
C1627 C1628 1.349 . S
C1627 C1629 1.327 . S
C1627 H1650 0.950 . S
C1628 C1627 1.349 . S
C1628 C1640 1.349 . S
C1629 C1627 1.327 . S
C1629 C1645 1.429 . S
C1629 H1651 0.950 . S
C1630 H1626 0.949 . S
C1630 C1638 1.574 . S
C1630 C1646 1.368 . S
H1631 C1639 0.950 . S
H1632 C1637 0.950 . S
H1633 C1638 0.949 . S
H1634 C1640 0.950 . S
H1635 C1641 0.950 . S
H1636 C1642 0.949 . S
C1637 H1632 0.950 . S
C1637 C1639 1.327 . S
C1637 C1643 1.429 . S
C1638 C1630 1.574 . S
C1638 H1633 0.949 . S
C1638 C1644 1.368 . S
C1639 C1623 1.349 . S
C1639 H1631 0.950 . S
C1639 C1637 1.327 . S
C1640 C1628 1.349 . S
C1640 H1634 0.950 . S
C1640 C1641 1.327 . S
C1641 H1635 0.950 . S
C1641 C1640 1.327 . S
C1641 C1645 1.429 . S
C1642 C1625 1.574 . S
C1642 H1636 0.949 . S
C1642 C1646 1.368 . S
C1643 C1624 1.429 . S
C1643 C1637 1.429 . S
C1643 C1644 1.523 . S
C1644 C1625 1.368 . S
C1644 C1638 1.368 . S
C1644 C1643 1.523 . S
C1645 C1629 1.429 . S
C1645 C1641 1.429 . S
C1645 C1646 1.523 . S
C1646 C1630 1.368 . S
C1646 C1642 1.368 . S
C1646 C1645 1.523 . S
H1647 C1622 0.950 . S
H1648 C1624 0.950 . S
H1649 C1625 0.949 . S
H1650 C1627 0.950 . S
H1651 C1629 0.950 . S
C1652 C1653 1.349 . S
C1652 C1654 1.327 . S
C1652 H1677 0.950 . S
C1653 C1652 1.349 . S
C1653 C1669 1.349 . S
C1654 C1652 1.327 . S
C1654 C1673 1.429 . S
C1654 H1678 0.950 . S
C1655 C1672 1.574 . S
C1655 C1674 1.368 . S
C1655 H1679 0.949 . S
H1656 C1660 0.949 . S
C1657 C1658 1.349 . S
C1657 C1659 1.327 . S
C1657 H1680 0.950 . S
C1658 C1657 1.349 . S
C1658 C1670 1.349 . S
C1659 C1657 1.327 . S
C1659 C1675 1.429 . S
C1659 H1681 0.950 . S
C1660 H1656 0.949 . S
C1660 C1668 1.574 . S
C1660 C1676 1.368 . S
H1661 C1669 0.950 . S
H1662 C1667 0.950 . S
H1663 C1668 0.949 . S
H1664 C1670 0.950 . S
H1665 C1671 0.950 . S
H1666 C1672 0.949 . S
C1667 H1662 0.950 . S
C1667 C1669 1.327 . S
C1667 C1673 1.429 . S
C1668 C1660 1.574 . S
C1668 H1663 0.949 . S
C1668 C1674 1.368 . S
C1669 C1653 1.349 . S
C1669 H1661 0.950 . S
C1669 C1667 1.327 . S
C1670 C1658 1.349 . S
C1670 H1664 0.950 . S
C1670 C1671 1.327 . S
C1671 H1665 0.950 . S
C1671 C1670 1.327 . S
C1671 C1675 1.429 . S
C1672 C1655 1.574 . S
C1672 H1666 0.949 . S
C1672 C1676 1.368 . S
C1673 C1654 1.429 . S
C1673 C1667 1.429 . S
C1673 C1674 1.523 . S
C1674 C1655 1.368 . S
C1674 C1668 1.368 . S
C1674 C1673 1.523 . S
C1675 C1659 1.429 . S
C1675 C1671 1.429 . S
C1675 C1676 1.523 . S
C1676 C1660 1.368 . S
C1676 C1672 1.368 . S
C1676 C1675 1.523 . S
H1677 C1652 0.950 . S
H1678 C1654 0.950 . S
H1679 C1655 0.949 . S
H1680 C1657 0.950 . S
H1681 C1659 0.950 . S
C1682 C1683 1.349 . S
C1682 C1684 1.327 . S
C1682 H1707 0.950 . S
C1683 C1682 1.349 . S
C1683 C1699 1.349 . S
C1684 C1682 1.327 . S
C1684 C1703 1.429 . S
C1684 H1708 0.950 . S
C1685 C1702 1.574 . S
C1685 C1704 1.368 . S
C1685 H1709 0.949 . S
H1686 C1690 0.949 . S
C1687 C1688 1.349 . S
C1687 C1689 1.327 . S
C1687 H1710 0.950 . S
C1688 C1687 1.349 . S
C1688 C1700 1.349 . S
C1689 C1687 1.327 . S
C1689 C1705 1.429 . S
C1689 H1711 0.950 . S
C1690 H1686 0.949 . S
C1690 C1698 1.574 . S
C1690 C1706 1.368 . S
H1691 C1699 0.950 . S
H1692 C1697 0.950 . S
H1693 C1698 0.949 . S
H1694 C1700 0.950 . S
H1695 C1701 0.950 . S
H1696 C1702 0.949 . S
C1697 H1692 0.950 . S
C1697 C1699 1.327 . S
C1697 C1703 1.429 . S
C1698 C1690 1.574 . S
C1698 H1693 0.949 . S
C1698 C1704 1.368 . S
C1699 C1683 1.349 . S
C1699 H1691 0.950 . S
C1699 C1697 1.327 . S
C1700 C1688 1.349 . S
C1700 H1694 0.950 . S
C1700 C1701 1.327 . S
C1701 H1695 0.950 . S
C1701 C1700 1.327 . S
C1701 C1705 1.429 . S
C1702 C1685 1.574 . S
C1702 H1696 0.949 . S
C1702 C1706 1.368 . S
C1703 C1684 1.429 . S
C1703 C1697 1.429 . S
C1703 C1704 1.523 . S
C1704 C1685 1.368 . S
C1704 C1698 1.368 . S
C1704 C1703 1.523 . S
C1705 C1689 1.429 . S
C1705 C1701 1.429 . S
C1705 C1706 1.523 . S
C1706 C1690 1.368 . S
C1706 C1702 1.368 . S
C1706 C1705 1.523 . S
H1707 C1682 0.950 . S
H1708 C1684 0.950 . S
H1709 C1685 0.949 . S
H1710 C1687 0.950 . S
H1711 C1689 0.950 . S
C1712 C1713 1.349 . S
C1712 C1714 1.327 . S
C1712 H1737 0.950 . S
C1713 C1712 1.349 . S
C1713 C1729 1.349 1_565 S
C1714 C1712 1.327 . S
C1714 C1733 1.429 1_565 S
C1714 H1738 0.950 . S
C1715 C1732 1.574 . S
C1715 C1734 1.368 . S
C1715 H1739 0.949 . S
H1716 C1720 0.949 . S
C1717 C1718 1.349 . S
C1717 C1719 1.327 . S
C1717 H1740 0.950 . S
C1718 C1717 1.349 . S
C1718 C1730 1.349 . S
C1719 C1717 1.327 . S
C1719 C1735 1.429 . S
C1719 H1741 0.950 . S
C1720 H1716 0.949 . S
C1720 C1728 1.574 . S
C1720 C1736 1.368 1_565 S
H1721 C1729 0.950 . S
H1722 C1727 0.950 . S
H1723 C1728 0.949 . S
H1724 C1730 0.950 1_565 S
H1725 C1731 0.950 1_565 S
H1726 C1732 0.949 . S
C1727 H1722 0.950 . S
C1727 C1729 1.327 . S
C1727 C1733 1.429 . S
C1728 C1720 1.574 . S
C1728 H1723 0.949 . S
C1728 C1734 1.368 1_565 S
C1729 C1713 1.349 1_545 S
C1729 H1721 0.950 . S
C1729 C1727 1.327 . S
C1730 C1718 1.349 . S
C1730 H1724 0.950 1_545 S
C1730 C1731 1.327 . S
C1731 H1725 0.950 1_545 S
C1731 C1730 1.327 . S
C1731 C1735 1.429 . S
C1732 C1715 1.574 . S
C1732 H1726 0.949 . S
C1732 C1736 1.368 . S
C1733 C1714 1.429 1_545 S
C1733 C1727 1.429 . S
C1733 C1734 1.523 . S
C1734 C1715 1.368 . S
C1734 C1728 1.368 1_545 S
C1734 C1733 1.523 . S
C1735 C1719 1.429 . S
C1735 C1731 1.429 . S
C1735 C1736 1.523 . S
C1736 C1720 1.368 1_545 S
C1736 C1732 1.368 . S
C1736 C1735 1.523 . S
H1737 C1712 0.950 . S
H1738 C1714 0.950 . S
H1739 C1715 0.949 . S
H1740 C1717 0.950 . S
H1741 C1719 0.950 . S
C1742 C1743 1.349 . S
C1742 C1744 1.327 . S
C1742 H1767 0.950 . S
C1743 C1742 1.349 . S
C1743 C1759 1.349 . S
C1744 C1742 1.327 . S
C1744 C1763 1.429 . S
C1744 H1768 0.950 . S
C1745 C1762 1.574 . S
C1745 C1764 1.368 . S
C1745 H1769 0.949 . S
H1746 C1750 0.949 . S
C1747 C1748 1.349 . S
C1747 C1749 1.327 . S
C1747 H1770 0.950 . S
C1748 C1747 1.349 . S
C1748 C1760 1.349 . S
C1749 C1747 1.327 . S
C1749 C1765 1.429 . S
C1749 H1771 0.950 . S
C1750 H1746 0.949 . S
C1750 C1758 1.574 . S
C1750 C1766 1.368 . S
H1751 C1759 0.950 . S
H1752 C1757 0.950 . S
H1753 C1758 0.949 . S
H1754 C1760 0.950 . S
H1755 C1761 0.950 . S
H1756 C1762 0.949 . S
C1757 H1752 0.950 . S
C1757 C1759 1.327 . S
C1757 C1763 1.429 . S
C1758 C1750 1.574 . S
C1758 H1753 0.949 . S
C1758 C1764 1.368 . S
C1759 C1743 1.349 . S
C1759 H1751 0.950 . S
C1759 C1757 1.327 . S
C1760 C1748 1.349 . S
C1760 H1754 0.950 . S
C1760 C1761 1.327 . S
C1761 H1755 0.950 . S
C1761 C1760 1.327 . S
C1761 C1765 1.429 . S
C1762 C1745 1.574 . S
C1762 H1756 0.949 . S
C1762 C1766 1.368 . S
C1763 C1744 1.429 . S
C1763 C1757 1.429 . S
C1763 C1764 1.523 . S
C1764 C1745 1.368 . S
C1764 C1758 1.368 . S
C1764 C1763 1.523 . S
C1765 C1749 1.429 . S
C1765 C1761 1.429 . S
C1765 C1766 1.523 . S
C1766 C1750 1.368 . S
C1766 C1762 1.368 . S
C1766 C1765 1.523 . S
H1767 C1742 0.950 . S
H1768 C1744 0.950 . S
H1769 C1745 0.949 . S
H1770 C1747 0.950 . S
H1771 C1749 0.950 . S
C1772 C1773 1.349 . S
C1772 C1774 1.327 . S
C1772 H1797 0.950 1_545 S
C1773 C1772 1.349 . S
C1773 C1789 1.349 . S
C1774 C1772 1.327 . S
C1774 C1793 1.429 . S
C1774 H1798 0.950 1_545 S
C1775 C1792 1.574 . S
C1775 C1794 1.368 . S
C1775 H1799 0.949 . S
H1776 C1780 0.949 . S
C1777 C1778 1.349 . S
C1777 C1779 1.327 . S
C1777 H1800 0.950 . S
C1778 C1777 1.349 . S
C1778 C1790 1.349 1_545 S
C1779 C1777 1.327 . S
C1779 C1795 1.429 . S
C1779 H1801 0.950 . S
C1780 H1776 0.949 . S
C1780 C1788 1.574 . S
C1780 C1796 1.368 1_565 S
H1781 C1789 0.950 . S
H1782 C1787 0.950 . S
H1783 C1788 0.949 . S
H1784 C1790 0.950 . S
H1785 C1791 0.950 . S
H1786 C1792 0.949 . S
C1787 H1782 0.950 . S
C1787 C1789 1.327 . S
C1787 C1793 1.429 . S
C1788 C1780 1.574 . S
C1788 H1783 0.949 . S
C1788 C1794 1.368 1_565 S
C1789 C1773 1.349 . S
C1789 H1781 0.950 . S
C1789 C1787 1.327 . S
C1790 C1778 1.349 1_565 S
C1790 H1784 0.950 . S
C1790 C1791 1.327 . S
C1791 H1785 0.950 . S
C1791 C1790 1.327 . S
C1791 C1795 1.429 1_565 S
C1792 C1775 1.574 . S
C1792 H1786 0.949 . S
C1792 C1796 1.368 . S
C1793 C1774 1.429 . S
C1793 C1787 1.429 . S
C1793 C1794 1.523 . S
C1794 C1775 1.368 . S
C1794 C1788 1.368 1_545 S
C1794 C1793 1.523 . S
C1795 C1779 1.429 . S
C1795 C1791 1.429 1_545 S
C1795 C1796 1.523 . S
C1796 C1780 1.368 1_545 S
C1796 C1792 1.368 . S
C1796 C1795 1.523 . S
H1797 C1772 0.950 1_565 S
H1798 C1774 0.950 1_565 S
H1799 C1775 0.949 . S
H1800 C1777 0.950 . S
H1801 C1779 0.950 . S
C1802 C1803 1.349 . S
C1802 C1804 1.327 . S
C1802 H1827 0.950 . S
C1803 C1802 1.349 . S
C1803 C1819 1.349 . S
C1804 C1802 1.327 . S
C1804 C1823 1.429 . S
C1804 H1828 0.950 . S
C1805 C1822 1.574 . S
C1805 C1824 1.368 . S
C1805 H1829 0.949 . S
H1806 C1810 0.949 . S
C1807 C1808 1.349 . S
C1807 C1809 1.327 . S
C1807 H1830 0.950 . S
C1808 C1807 1.349 . S
C1808 C1820 1.349 . S
C1809 C1807 1.327 . S
C1809 C1825 1.429 . S
C1809 H1831 0.950 . S
C1810 H1806 0.949 . S
C1810 C1818 1.574 . S
C1810 C1826 1.368 . S
H1811 C1819 0.950 . S
H1812 C1817 0.950 . S
H1813 C1818 0.949 . S
H1814 C1820 0.950 . S
H1815 C1821 0.950 . S
H1816 C1822 0.949 . S
C1817 H1812 0.950 . S
C1817 C1819 1.327 . S
C1817 C1823 1.429 . S
C1818 C1810 1.574 . S
C1818 H1813 0.949 . S
C1818 C1824 1.368 . S
C1819 C1803 1.349 . S
C1819 H1811 0.950 . S
C1819 C1817 1.327 . S
C1820 C1808 1.349 . S
C1820 H1814 0.950 . S
C1820 C1821 1.327 . S
C1821 H1815 0.950 . S
C1821 C1820 1.327 . S
C1821 C1825 1.429 . S
C1822 C1805 1.574 . S
C1822 H1816 0.949 . S
C1822 C1826 1.368 . S
C1823 C1804 1.429 . S
C1823 C1817 1.429 . S
C1823 C1824 1.523 . S
C1824 C1805 1.368 . S
C1824 C1818 1.368 . S
C1824 C1823 1.523 . S
C1825 C1809 1.429 . S
C1825 C1821 1.429 . S
C1825 C1826 1.523 . S
C1826 C1810 1.368 . S
C1826 C1822 1.368 . S
C1826 C1825 1.523 . S
H1827 C1802 0.950 . S
H1828 C1804 0.950 . S
H1829 C1805 0.949 . S
H1830 C1807 0.950 . S
H1831 C1809 0.950 . S
C1832 C1833 1.349 1_554 S
C1832 C1834 1.327 . S
C1832 H1857 0.950 . S
C1833 C1832 1.349 1_556 S
C1833 C1849 1.349 . S
C1834 C1832 1.327 . S
C1834 C1853 1.429 1_554 S
C1834 H1858 0.950 . S
C1835 C1852 1.574 . S
C1835 C1854 1.368 . S
C1835 H1859 0.949 . S
H1836 C1840 0.949 . S
C1837 C1838 1.349 . S
C1837 C1839 1.327 . S
C1837 H1860 0.950 . S
C1838 C1837 1.349 . S
C1838 C1850 1.349 1_556 S
C1839 C1837 1.327 . S
C1839 C1855 1.429 . S
C1839 H1861 0.950 . S
C1840 H1836 0.949 . S
C1840 C1848 1.574 . S
C1840 C1856 1.368 1_554 S
H1841 C1849 0.950 . S
H1842 C1847 0.950 . S
H1843 C1848 0.949 . S
H1844 C1850 0.950 . S
H1845 C1851 0.950 . S
H1846 C1852 0.949 . S
C1847 H1842 0.950 . S
C1847 C1849 1.327 . S
C1847 C1853 1.429 . S
C1848 C1840 1.574 . S
C1848 H1843 0.949 . S
C1848 C1854 1.368 1_554 S
C1849 C1833 1.349 . S
C1849 H1841 0.950 . S
C1849 C1847 1.327 . S
C1850 C1838 1.349 1_554 S
C1850 H1844 0.950 . S
C1850 C1851 1.327 . S
C1851 H1845 0.950 . S
C1851 C1850 1.327 . S
C1851 C1855 1.429 1_554 S
C1852 C1835 1.574 . S
C1852 H1846 0.949 . S
C1852 C1856 1.368 . S
C1853 C1834 1.429 1_556 S
C1853 C1847 1.429 . S
C1853 C1854 1.523 . S
C1854 C1835 1.368 . S
C1854 C1848 1.368 1_556 S
C1854 C1853 1.523 . S
C1855 C1839 1.429 . S
C1855 C1851 1.429 1_556 S
C1855 C1856 1.523 . S
C1856 C1840 1.368 1_556 S
C1856 C1852 1.368 . S
C1856 C1855 1.523 . S
H1857 C1832 0.950 . S
H1858 C1834 0.950 . S
H1859 C1835 0.949 . S
H1860 C1837 0.950 . S
H1861 C1839 0.950 . S
C1862 C1863 1.349 . S
C1862 C1864 1.327 . S
C1862 H1887 0.950 1_554 S
C1863 C1862 1.349 . S
C1863 C1879 1.349 . S
C1864 C1862 1.327 . S
C1864 C1883 1.429 . S
C1864 H1888 0.950 1_554 S
C1865 C1882 1.574 . S
C1865 C1884 1.368 . S
C1865 H1889 0.949 . S
H1866 C1870 0.949 1_556 S
C1867 C1868 1.349 . S
C1867 C1869 1.327 . S
C1867 H1890 0.950 . S
C1868 C1867 1.349 . S
C1868 C1880 1.349 . S
C1869 C1867 1.327 . S
C1869 C1885 1.429 . S
C1869 H1891 0.950 . S
C1870 H1866 0.949 1_554 S
C1870 C1878 1.574 . S
C1870 C1886 1.368 . S
H1871 C1879 0.950 . S
H1872 C1877 0.950 . S
H1873 C1878 0.949 1_556 S
H1874 C1880 0.950 1_556 S
H1875 C1881 0.950 1_556 S
H1876 C1882 0.949 . S
C1877 H1872 0.950 . S
C1877 C1879 1.327 . S
C1877 C1883 1.429 . S
C1878 C1870 1.574 . S
C1878 H1873 0.949 1_554 S
C1878 C1884 1.368 . S
C1879 C1863 1.349 . S
C1879 H1871 0.950 . S
C1879 C1877 1.327 . S
C1880 C1868 1.349 . S
C1880 H1874 0.950 1_554 S
C1880 C1881 1.327 . S
C1881 H1875 0.950 1_554 S
C1881 C1880 1.327 . S
C1881 C1885 1.429 . S
C1882 C1865 1.574 . S
C1882 H1876 0.949 . S
C1882 C1886 1.368 . S
C1883 C1864 1.429 . S
C1883 C1877 1.429 . S
C1883 C1884 1.523 . S
C1884 C1865 1.368 . S
C1884 C1878 1.368 . S
C1884 C1883 1.523 . S
C1885 C1869 1.429 . S
C1885 C1881 1.429 . S
C1885 C1886 1.523 . S
C1886 C1870 1.368 . S
C1886 C1882 1.368 . S
C1886 C1885 1.523 . S
H1887 C1862 0.950 1_556 S
H1888 C1864 0.950 1_556 S
H1889 C1865 0.949 . S
H1890 C1867 0.950 . S
H1891 C1869 0.950 . S
C1892 C1893 1.349 . S
C1892 C1894 1.327 . S
C1892 H1917 0.950 . S
C1893 C1892 1.349 . S
C1893 C1909 1.349 . S
C1894 C1892 1.327 . S
C1894 C1913 1.429 . S
C1894 H1918 0.950 . S
C1895 C1912 1.574 . S
C1895 C1914 1.368 . S
C1895 H1919 0.949 . S
H1896 C1900 0.949 . S
C1897 C1898 1.349 . S
C1897 C1899 1.327 . S
C1897 H1920 0.950 . S
C1898 C1897 1.349 . S
C1898 C1910 1.349 . S
C1899 C1897 1.327 . S
C1899 C1915 1.429 . S
C1899 H1921 0.950 . S
C1900 H1896 0.949 . S
C1900 C1908 1.574 . S
C1900 C1916 1.368 . S
H1901 C1909 0.950 . S
H1902 C1907 0.950 . S
H1903 C1908 0.949 . S
H1904 C1910 0.950 . S
H1905 C1911 0.950 . S
H1906 C1912 0.949 . S
C1907 H1902 0.950 . S
C1907 C1909 1.327 . S
C1907 C1913 1.429 . S
C1908 C1900 1.574 . S
C1908 H1903 0.949 . S
C1908 C1914 1.368 . S
C1909 C1893 1.349 . S
C1909 H1901 0.950 . S
C1909 C1907 1.327 . S
C1910 C1898 1.349 . S
C1910 H1904 0.950 . S
C1910 C1911 1.327 . S
C1911 H1905 0.950 . S
C1911 C1910 1.327 . S
C1911 C1915 1.429 . S
C1912 C1895 1.574 . S
C1912 H1906 0.949 . S
C1912 C1916 1.368 . S
C1913 C1894 1.429 . S
C1913 C1907 1.429 . S
C1913 C1914 1.523 . S
C1914 C1895 1.368 . S
C1914 C1908 1.368 . S
C1914 C1913 1.523 . S
C1915 C1899 1.429 . S
C1915 C1911 1.429 . S
C1915 C1916 1.523 . S
C1916 C1900 1.368 . S
C1916 C1912 1.368 . S
C1916 C1915 1.523 . S
H1917 C1892 0.950 . S
H1918 C1894 0.950 . S
H1919 C1895 0.949 . S
H1920 C1897 0.950 . S
H1921 C1899 0.950 . S
C1922 C1923 1.349 . S
C1922 C1924 1.327 . S
C1922 H1947 0.950 . S
C1923 C1922 1.349 . S
C1923 C1939 1.349 . S
C1924 C1922 1.327 . S
C1924 C1943 1.429 . S
C1924 H1948 0.950 . S
C1925 C1942 1.574 . S
C1925 C1944 1.368 . S
C1925 H1949 0.949 . S
H1926 C1930 0.949 . S
C1927 C1928 1.349 . S
C1927 C1929 1.327 . S
C1927 H1950 0.950 . S
C1928 C1927 1.349 . S
C1928 C1940 1.349 . S
C1929 C1927 1.327 . S
C1929 C1945 1.429 . S
C1929 H1951 0.950 . S
C1930 H1926 0.949 . S
C1930 C1938 1.574 . S
C1930 C1946 1.368 . S
H1931 C1939 0.950 . S
H1932 C1937 0.950 . S
H1933 C1938 0.949 . S
H1934 C1940 0.950 . S
H1935 C1941 0.950 . S
H1936 C1942 0.949 . S
C1937 H1932 0.950 . S
C1937 C1939 1.327 . S
C1937 C1943 1.429 . S
C1938 C1930 1.574 . S
C1938 H1933 0.949 . S
C1938 C1944 1.368 . S
C1939 C1923 1.349 . S
C1939 H1931 0.950 . S
C1939 C1937 1.327 . S
C1940 C1928 1.349 . S
C1940 H1934 0.950 . S
C1940 C1941 1.327 . S
C1941 H1935 0.950 . S
C1941 C1940 1.327 . S
C1941 C1945 1.429 . S
C1942 C1925 1.574 . S
C1942 H1936 0.949 . S
C1942 C1946 1.368 . S
C1943 C1924 1.429 . S
C1943 C1937 1.429 . S
C1943 C1944 1.523 . S
C1944 C1925 1.368 . S
C1944 C1938 1.368 . S
C1944 C1943 1.523 . S
C1945 C1929 1.429 . S
C1945 C1941 1.429 . S
C1945 C1946 1.523 . S
C1946 C1930 1.368 . S
C1946 C1942 1.368 . S
C1946 C1945 1.523 . S
H1947 C1922 0.950 . S
H1948 C1924 0.950 . S
H1949 C1925 0.949 . S
H1950 C1927 0.950 . S
H1951 C1929 0.950 . S
C1952 C1953 1.349 . S
C1952 C1954 1.327 . S
C1952 H1977 0.950 . S
C1953 C1952 1.349 . S
C1953 C1969 1.349 . S
C1954 C1952 1.327 . S
C1954 C1973 1.429 . S
C1954 H1978 0.950 . S
C1955 C1972 1.574 . S
C1955 C1974 1.368 . S
C1955 H1979 0.949 . S
H1956 C1960 0.949 . S
C1957 C1958 1.349 . S
C1957 C1959 1.327 . S
C1957 H1980 0.950 . S
C1958 C1957 1.349 . S
C1958 C1970 1.349 . S
C1959 C1957 1.327 . S
C1959 C1975 1.429 . S
C1959 H1981 0.950 . S
C1960 H1956 0.949 . S
C1960 C1968 1.574 . S
C1960 C1976 1.368 . S
H1961 C1969 0.950 . S
H1962 C1967 0.950 . S
H1963 C1968 0.949 . S
H1964 C1970 0.950 . S
H1965 C1971 0.950 . S
H1966 C1972 0.949 . S
C1967 H1962 0.950 . S
C1967 C1969 1.327 . S
C1967 C1973 1.429 . S
C1968 C1960 1.574 . S
C1968 H1963 0.949 . S
C1968 C1974 1.368 . S
C1969 C1953 1.349 . S
C1969 H1961 0.950 . S
C1969 C1967 1.327 . S
C1970 C1958 1.349 . S
C1970 H1964 0.950 . S
C1970 C1971 1.327 . S
C1971 H1965 0.950 . S
C1971 C1970 1.327 . S
C1971 C1975 1.429 . S
C1972 C1955 1.574 . S
C1972 H1966 0.949 . S
C1972 C1976 1.368 . S
C1973 C1954 1.429 . S
C1973 C1967 1.429 . S
C1973 C1974 1.523 . S
C1974 C1955 1.368 . S
C1974 C1968 1.368 . S
C1974 C1973 1.523 . S
C1975 C1959 1.429 . S
C1975 C1971 1.429 . S
C1975 C1976 1.523 . S
C1976 C1960 1.368 . S
C1976 C1972 1.368 . S
C1976 C1975 1.523 . S
H1977 C1952 0.950 . S
H1978 C1954 0.950 . S
H1979 C1955 0.949 . S
H1980 C1957 0.950 . S
H1981 C1959 0.950 . S
C1982 C1983 1.349 . S
C1982 C1984 1.327 . S
C1982 H2007 0.950 . S
C1983 C1982 1.349 . S
C1983 C1999 1.349 . S
C1984 C1982 1.327 . S
C1984 C2003 1.429 . S
C1984 H2008 0.950 . S
C1985 C2002 1.574 . S
C1985 C2004 1.368 . S
C1985 H2009 0.949 . S
H1986 C1990 0.949 . S
C1987 C1988 1.349 . S
C1987 C1989 1.327 . S
C1987 H2010 0.950 . S
C1988 C1987 1.349 . S
C1988 C2000 1.349 1_565 S
C1989 C1987 1.327 . S
C1989 C2005 1.429 . S
C1989 H2011 0.950 . S
C1990 H1986 0.949 . S
C1990 C1998 1.574 . S
C1990 C2006 1.368 . S
H1991 C1999 0.950 . S
H1992 C1997 0.950 . S
H1993 C1998 0.949 . S
H1994 C2000 0.950 . S
H1995 C2001 0.950 . S
H1996 C2002 0.949 . S
C1997 H1992 0.950 . S
C1997 C1999 1.327 . S
C1997 C2003 1.429 . S
C1998 C1990 1.574 . S
C1998 H1993 0.949 . S
C1998 C2004 1.368 . S
C1999 C1983 1.349 . S
C1999 H1991 0.950 . S
C1999 C1997 1.327 . S
C2000 C1988 1.349 1_545 S
C2000 H1994 0.950 . S
C2000 C2001 1.327 1_545 S
C2001 H1995 0.950 . S
C2001 C2000 1.327 1_565 S
C2001 C2005 1.429 . S
C2002 C1985 1.574 . S
C2002 H1996 0.949 . S
C2002 C2006 1.368 . S
C2003 C1984 1.429 . S
C2003 C1997 1.429 . S
C2003 C2004 1.523 . S
C2004 C1985 1.368 . S
C2004 C1998 1.368 . S
C2004 C2003 1.523 . S
C2005 C1989 1.429 . S
C2005 C2001 1.429 . S
C2005 C2006 1.523 . S
C2006 C1990 1.368 . S
C2006 C2002 1.368 . S
C2006 C2005 1.523 . S
H2007 C1982 0.950 . S
H2008 C1984 0.950 . S
H2009 C1985 0.949 . S
H2010 C1987 0.950 . S
H2011 C1989 0.950 . S
C2012 C2013 1.349 . S
C2012 C2014 1.327 . S
C2012 H2037 0.950 . S
C2013 C2012 1.349 . S
C2013 C2029 1.349 . S
C2014 C2012 1.327 . S
C2014 C2033 1.429 . S
C2014 H2038 0.950 . S
C2015 C2032 1.574 . S
C2015 C2034 1.368 . S
C2015 H2039 0.949 . S
H2016 C2020 0.949 . S
C2017 C2018 1.349 . S
C2017 C2019 1.327 . S
C2017 H2040 0.950 . S
C2018 C2017 1.349 . S
C2018 C2030 1.349 . S
C2019 C2017 1.327 . S
C2019 C2035 1.429 . S
C2019 H2041 0.950 . S
C2020 H2016 0.949 . S
C2020 C2028 1.574 . S
C2020 C2036 1.368 . S
H2021 C2029 0.950 . S
H2022 C2027 0.950 . S
H2023 C2028 0.949 . S
H2024 C2030 0.950 . S
H2025 C2031 0.950 . S
H2026 C2032 0.949 . S
C2027 H2022 0.950 . S
C2027 C2029 1.327 . S
C2027 C2033 1.429 . S
C2028 C2020 1.574 . S
C2028 H2023 0.949 . S
C2028 C2034 1.368 . S
C2029 C2013 1.349 . S
C2029 H2021 0.950 . S
C2029 C2027 1.327 . S
C2030 C2018 1.349 . S
C2030 H2024 0.950 . S
C2030 C2031 1.327 . S
C2031 H2025 0.950 . S
C2031 C2030 1.327 . S
C2031 C2035 1.429 . S
C2032 C2015 1.574 . S
C2032 H2026 0.949 . S
C2032 C2036 1.368 . S
C2033 C2014 1.429 . S
C2033 C2027 1.429 . S
C2033 C2034 1.523 . S
C2034 C2015 1.368 . S
C2034 C2028 1.368 . S
C2034 C2033 1.523 . S
C2035 C2019 1.429 . S
C2035 C2031 1.429 . S
C2035 C2036 1.523 . S
C2036 C2020 1.368 . S
C2036 C2032 1.368 . S
C2036 C2035 1.523 . S
H2037 C2012 0.950 . S
H2038 C2014 0.950 . S
H2039 C2015 0.949 . S
H2040 C2017 0.950 . S
H2041 C2019 0.950 . S
C2042 C2043 1.349 . S
C2042 C2044 1.327 . S
C2042 H2067 0.950 . S
C2043 C2042 1.349 . S
C2043 C2059 1.349 . S
C2044 C2042 1.327 . S
C2044 C2063 1.429 . S
C2044 H2068 0.950 . S
C2045 C2062 1.574 . S
C2045 C2064 1.368 . S
C2045 H2069 0.949 . S
H2046 C2050 0.949 . S
C2047 C2048 1.349 . S
C2047 C2049 1.327 . S
C2047 H2070 0.950 . S
C2048 C2047 1.349 . S
C2048 C2060 1.349 . S
C2049 C2047 1.327 . S
C2049 C2065 1.429 . S
C2049 H2071 0.950 . S
C2050 H2046 0.949 . S
C2050 C2058 1.574 . S
C2050 C2066 1.368 . S
H2051 C2059 0.950 . S
H2052 C2057 0.950 . S
H2053 C2058 0.949 . S
H2054 C2060 0.950 . S
H2055 C2061 0.950 . S
H2056 C2062 0.949 . S
C2057 H2052 0.950 . S
C2057 C2059 1.327 . S
C2057 C2063 1.429 . S
C2058 C2050 1.574 . S
C2058 H2053 0.949 . S
C2058 C2064 1.368 . S
C2059 C2043 1.349 . S
C2059 H2051 0.950 . S
C2059 C2057 1.327 . S
C2060 C2048 1.349 . S
C2060 H2054 0.950 . S
C2060 C2061 1.327 . S
C2061 H2055 0.950 . S
C2061 C2060 1.327 . S
C2061 C2065 1.429 . S
C2062 C2045 1.574 . S
C2062 H2056 0.949 . S
C2062 C2066 1.368 . S
C2063 C2044 1.429 . S
C2063 C2057 1.429 . S
C2063 C2064 1.523 . S
C2064 C2045 1.368 . S
C2064 C2058 1.368 . S
C2064 C2063 1.523 . S
C2065 C2049 1.429 . S
C2065 C2061 1.429 . S
C2065 C2066 1.523 . S
C2066 C2050 1.368 . S
C2066 C2062 1.368 . S
C2066 C2065 1.523 . S
H2067 C2042 0.950 . S
H2068 C2044 0.950 . S
H2069 C2045 0.949 . S
H2070 C2047 0.950 . S
H2071 C2049 0.950 . S
C2072 C2073 1.349 . S
C2072 C2074 1.327 . S
C2072 H2097 0.950 . S
C2073 C2072 1.349 . S
C2073 C2089 1.349 . S
C2074 C2072 1.327 . S
C2074 C2093 1.429 . S
C2074 H2098 0.950 . S
C2075 C2092 1.574 . S
C2075 C2094 1.368 . S
C2075 H2099 0.949 . S
H2076 C2080 0.949 . S
C2077 C2078 1.349 . S
C2077 C2079 1.327 . S
C2077 H2100 0.950 . S
C2078 C2077 1.349 . S
C2078 C2090 1.349 . S
C2079 C2077 1.327 . S
C2079 C2095 1.429 . S
C2079 H2101 0.950 . S
C2080 H2076 0.949 . S
C2080 C2088 1.574 . S
C2080 C2096 1.368 . S
H2081 C2089 0.950 . S
H2082 C2087 0.950 . S
H2083 C2088 0.949 . S
H2084 C2090 0.950 . S
H2085 C2091 0.950 . S
H2086 C2092 0.949 . S
C2087 H2082 0.950 . S
C2087 C2089 1.327 . S
C2087 C2093 1.429 . S
C2088 C2080 1.574 . S
C2088 H2083 0.949 . S
C2088 C2094 1.368 . S
C2089 C2073 1.349 . S
C2089 H2081 0.950 . S
C2089 C2087 1.327 . S
C2090 C2078 1.349 . S
C2090 H2084 0.950 . S
C2090 C2091 1.327 . S
C2091 H2085 0.950 . S
C2091 C2090 1.327 . S
C2091 C2095 1.429 . S
C2092 C2075 1.574 . S
C2092 H2086 0.949 . S
C2092 C2096 1.368 . S
C2093 C2074 1.429 . S
C2093 C2087 1.429 . S
C2093 C2094 1.523 . S
C2094 C2075 1.368 . S
C2094 C2088 1.368 . S
C2094 C2093 1.523 . S
C2095 C2079 1.429 . S
C2095 C2091 1.429 . S
C2095 C2096 1.523 . S
C2096 C2080 1.368 . S
C2096 C2092 1.368 . S
C2096 C2095 1.523 . S
H2097 C2072 0.950 . S
H2098 C2074 0.950 . S
H2099 C2075 0.949 . S
H2100 C2077 0.950 . S
H2101 C2079 0.950 . S
C2102 C2103 1.349 . S
C2102 C2104 1.327 . S
C2102 H2127 0.950 . S
C2103 C2102 1.349 . S
C2103 C2119 1.349 . S
C2104 C2102 1.327 . S
C2104 C2123 1.429 . S
C2104 H2128 0.950 . S
C2105 C2122 1.574 . S
C2105 C2124 1.368 . S
C2105 H2129 0.949 . S
H2106 C2110 0.949 . S
C2107 C2108 1.349 . S
C2107 C2109 1.327 . S
C2107 H2130 0.950 . S
C2108 C2107 1.349 . S
C2108 C2120 1.349 . S
C2109 C2107 1.327 . S
C2109 C2125 1.429 . S
C2109 H2131 0.950 . S
C2110 H2106 0.949 . S
C2110 C2118 1.574 . S
C2110 C2126 1.368 . S
H2111 C2119 0.950 . S
H2112 C2117 0.950 . S
H2113 C2118 0.949 . S
H2114 C2120 0.950 . S
H2115 C2121 0.950 . S
H2116 C2122 0.949 . S
C2117 H2112 0.950 . S
C2117 C2119 1.327 . S
C2117 C2123 1.429 . S
C2118 C2110 1.574 . S
C2118 H2113 0.949 . S
C2118 C2124 1.368 . S
C2119 C2103 1.349 . S
C2119 H2111 0.950 . S
C2119 C2117 1.327 . S
C2120 C2108 1.349 . S
C2120 H2114 0.950 . S
C2120 C2121 1.327 . S
C2121 H2115 0.950 . S
C2121 C2120 1.327 . S
C2121 C2125 1.429 . S
C2122 C2105 1.574 . S
C2122 H2116 0.949 . S
C2122 C2126 1.368 . S
C2123 C2104 1.429 . S
C2123 C2117 1.429 . S
C2123 C2124 1.523 . S
C2124 C2105 1.368 . S
C2124 C2118 1.368 . S
C2124 C2123 1.523 . S
C2125 C2109 1.429 . S
C2125 C2121 1.429 . S
C2125 C2126 1.523 . S
C2126 C2110 1.368 . S
C2126 C2122 1.368 . S
C2126 C2125 1.523 . S
H2127 C2102 0.950 . S
H2128 C2104 0.950 . S
H2129 C2105 0.949 . S
H2130 C2107 0.950 . S
H2131 C2109 0.950 . S
C2132 C2133 1.349 . S
C2132 C2134 1.327 . S
C2132 H2157 0.950 . S
C2133 C2132 1.349 . S
C2133 C2149 1.349 1_455 S
C2134 C2132 1.327 . S
C2134 C2153 1.429 . S
C2134 H2158 0.950 . S
C2135 C2152 1.574 . S
C2135 C2154 1.368 1_655 S
C2135 H2159 0.949 . S
H2136 C2140 0.949 . S
C2137 C2138 1.349 1_655 S
C2137 C2139 1.327 . S
C2137 H2160 0.950 . S
C2138 C2137 1.349 1_455 S
C2138 C2150 1.349 1_556 S
C2139 C2137 1.327 . S
C2139 C2155 1.429 1_655 S
C2139 H2161 0.950 . S
C2140 H2136 0.949 . S
C2140 C2148 1.574 . S
C2140 C2156 1.368 . S
H2141 C2149 0.950 . S
H2142 C2147 0.950 . S
H2143 C2148 0.949 . S
H2144 C2150 0.950 . S
H2145 C2151 0.950 1_554 S
H2146 C2152 0.949 . S
C2147 H2142 0.950 . S
C2147 C2149 1.327 . S
C2147 C2153 1.429 1_655 S
C2148 C2140 1.574 . S
C2148 H2143 0.949 . S
C2148 C2154 1.368 . S
C2149 C2133 1.349 1_655 S
C2149 H2141 0.950 . S
C2149 C2147 1.327 . S
C2150 C2138 1.349 1_554 S
C2150 H2144 0.950 . S
C2150 C2151 1.327 1_554 S
C2151 H2145 0.950 1_556 S
C2151 C2150 1.327 1_556 S
C2151 C2155 1.429 . S
C2152 C2135 1.574 . S
C2152 H2146 0.949 . S
C2152 C2156 1.368 1_655 S
C2153 C2134 1.429 . S
C2153 C2147 1.429 1_455 S
C2153 C2154 1.523 . S
C2154 C2135 1.368 1_455 S
C2154 C2148 1.368 . S
C2154 C2153 1.523 . S
C2155 C2139 1.429 1_455 S
C2155 C2151 1.429 . S
C2155 C2156 1.523 . S
C2156 C2140 1.368 . S
C2156 C2152 1.368 1_455 S
C2156 C2155 1.523 . S
H2157 C2132 0.950 . S
H2158 C2134 0.950 . S
H2159 C2135 0.949 . S
H2160 C2137 0.950 . S
H2161 C2139 0.950 . S
C2162 C2163 1.349 . S
C2162 C2164 1.327 . S
C2162 H2187 0.950 . S
C2163 C2162 1.349 . S
C2163 C2179 1.349 . S
C2164 C2162 1.327 . S
C2164 C2183 1.429 . S
C2164 H2188 0.950 . S
C2165 C2182 1.574 . S
C2165 C2184 1.368 . S
C2165 H2189 0.949 . S
H2166 C2170 0.949 . S
C2167 C2168 1.349 . S
C2167 C2169 1.327 . S
C2167 H2190 0.950 . S
C2168 C2167 1.349 . S
C2168 C2180 1.349 . S
C2169 C2167 1.327 . S
C2169 C2185 1.429 . S
C2169 H2191 0.950 . S
C2170 H2166 0.949 . S
C2170 C2178 1.574 . S
C2170 C2186 1.368 . S
H2171 C2179 0.950 . S
H2172 C2177 0.950 . S
H2173 C2178 0.949 . S
H2174 C2180 0.950 . S
H2175 C2181 0.950 . S
H2176 C2182 0.949 . S
C2177 H2172 0.950 . S
C2177 C2179 1.327 . S
C2177 C2183 1.429 . S
C2178 C2170 1.574 . S
C2178 H2173 0.949 . S
C2178 C2184 1.368 . S
C2179 C2163 1.349 . S
C2179 H2171 0.950 . S
C2179 C2177 1.327 . S
C2180 C2168 1.349 . S
C2180 H2174 0.950 . S
C2180 C2181 1.327 . S
C2181 H2175 0.950 . S
C2181 C2180 1.327 . S
C2181 C2185 1.429 . S
C2182 C2165 1.574 . S
C2182 H2176 0.949 . S
C2182 C2186 1.368 . S
C2183 C2164 1.429 . S
C2183 C2177 1.429 . S
C2183 C2184 1.523 . S
C2184 C2165 1.368 . S
C2184 C2178 1.368 . S
C2184 C2183 1.523 . S
C2185 C2169 1.429 . S
C2185 C2181 1.429 . S
C2185 C2186 1.523 . S
C2186 C2170 1.368 . S
C2186 C2182 1.368 . S
C2186 C2185 1.523 . S
H2187 C2162 0.950 . S
H2188 C2164 0.950 . S
H2189 C2165 0.949 . S
H2190 C2167 0.950 . S
H2191 C2169 0.950 . S
C2192 C2193 1.349 . S
C2192 C2194 1.327 . S
C2192 H2217 0.950 . S
C2193 C2192 1.349 . S
C2193 C2209 1.349 . S
C2194 C2192 1.327 . S
C2194 C2213 1.429 . S
C2194 H2218 0.950 . S
C2195 C2212 1.574 . S
C2195 C2214 1.368 . S
C2195 H2219 0.949 . S
H2196 C2200 0.949 . S
C2197 C2198 1.349 . S
C2197 C2199 1.327 . S
C2197 H2220 0.950 . S
C2198 C2197 1.349 . S
C2198 C2210 1.349 . S
C2199 C2197 1.327 . S
C2199 C2215 1.429 . S
C2199 H2221 0.950 . S
C2200 H2196 0.949 . S
C2200 C2208 1.574 . S
C2200 C2216 1.368 . S
H2201 C2209 0.950 . S
H2202 C2207 0.950 . S
H2203 C2208 0.949 . S
H2204 C2210 0.950 . S
H2205 C2211 0.950 . S
H2206 C2212 0.949 . S
C2207 H2202 0.950 . S
C2207 C2209 1.327 . S
C2207 C2213 1.429 . S
C2208 C2200 1.574 . S
C2208 H2203 0.949 . S
C2208 C2214 1.368 . S
C2209 C2193 1.349 . S
C2209 H2201 0.950 . S
C2209 C2207 1.327 . S
C2210 C2198 1.349 . S
C2210 H2204 0.950 . S
C2210 C2211 1.327 . S
C2211 H2205 0.950 . S
C2211 C2210 1.327 . S
C2211 C2215 1.429 . S
C2212 C2195 1.574 . S
C2212 H2206 0.949 . S
C2212 C2216 1.368 . S
C2213 C2194 1.429 . S
C2213 C2207 1.429 . S
C2213 C2214 1.523 . S
C2214 C2195 1.368 . S
C2214 C2208 1.368 . S
C2214 C2213 1.523 . S
C2215 C2199 1.429 . S
C2215 C2211 1.429 . S
C2215 C2216 1.523 . S
C2216 C2200 1.368 . S
C2216 C2212 1.368 . S
C2216 C2215 1.523 . S
H2217 C2192 0.950 . S
H2218 C2194 0.950 . S
H2219 C2195 0.949 . S
H2220 C2197 0.950 . S
H2221 C2199 0.950 . S
C2222 C2223 1.349 . S
C2222 C2224 1.327 . S
C2222 H2247 0.950 . S
C2223 C2222 1.349 . S
C2223 C2239 1.349 . S
C2224 C2222 1.327 . S
C2224 C2243 1.429 . S
C2224 H2248 0.950 . S
C2225 C2242 1.574 . S
C2225 C2244 1.368 . S
C2225 H2249 0.949 . S
H2226 C2230 0.949 . S
C2227 C2228 1.349 . S
C2227 C2229 1.327 . S
C2227 H2250 0.950 . S
C2228 C2227 1.349 . S
C2228 C2240 1.349 . S
C2229 C2227 1.327 . S
C2229 C2245 1.429 . S
C2229 H2251 0.950 . S
C2230 H2226 0.949 . S
C2230 C2238 1.574 . S
C2230 C2246 1.368 . S
H2231 C2239 0.950 . S
H2232 C2237 0.950 . S
H2233 C2238 0.949 . S
H2234 C2240 0.950 . S
H2235 C2241 0.950 . S
H2236 C2242 0.949 . S
C2237 H2232 0.950 . S
C2237 C2239 1.327 . S
C2237 C2243 1.429 . S
C2238 C2230 1.574 . S
C2238 H2233 0.949 . S
C2238 C2244 1.368 . S
C2239 C2223 1.349 . S
C2239 H2231 0.950 . S
C2239 C2237 1.327 . S
C2240 C2228 1.349 . S
C2240 H2234 0.950 . S
C2240 C2241 1.327 . S
C2241 H2235 0.950 . S
C2241 C2240 1.327 . S
C2241 C2245 1.429 . S
C2242 C2225 1.574 . S
C2242 H2236 0.949 . S
C2242 C2246 1.368 . S
C2243 C2224 1.429 . S
C2243 C2237 1.429 . S
C2243 C2244 1.523 . S
C2244 C2225 1.368 . S
C2244 C2238 1.368 . S
C2244 C2243 1.523 . S
C2245 C2229 1.429 . S
C2245 C2241 1.429 . S
C2245 C2246 1.523 . S
C2246 C2230 1.368 . S
C2246 C2242 1.368 . S
C2246 C2245 1.523 . S
H2247 C2222 0.950 . S
H2248 C2224 0.950 . S
H2249 C2225 0.949 . S
H2250 C2227 0.950 . S
H2251 C2229 0.950 . S
C2252 C2253 1.349 1_655 S
C2252 C2254 1.327 . S
C2252 H2277 0.950 . S
C2253 C2252 1.349 1_455 S
C2253 C2269 1.349 . S
C2254 C2252 1.327 . S
C2254 C2273 1.429 1_655 S
C2254 H2278 0.950 . S
C2255 C2272 1.574 . S
C2255 C2274 1.368 . S
C2255 H2279 0.949 . S
H2256 C2260 0.949 . S
C2257 C2258 1.349 . S
C2257 C2259 1.327 . S
C2257 H2280 0.950 . S
C2258 C2257 1.349 . S
C2258 C2270 1.349 1_455 S
C2259 C2257 1.327 . S
C2259 C2275 1.429 . S
C2259 H2281 0.950 . S
C2260 H2256 0.949 . S
C2260 C2268 1.574 . S
C2260 C2276 1.368 1_655 S
H2261 C2269 0.950 . S
H2262 C2267 0.950 . S
H2263 C2268 0.949 . S
H2264 C2270 0.950 . S
H2265 C2271 0.950 . S
H2266 C2272 0.949 . S
C2267 H2262 0.950 . S
C2267 C2269 1.327 . S
C2267 C2273 1.429 . S
C2268 C2260 1.574 . S
C2268 H2263 0.949 . S
C2268 C2274 1.368 1_655 S
C2269 C2253 1.349 . S
C2269 H2261 0.950 . S
C2269 C2267 1.327 . S
C2270 C2258 1.349 1_655 S
C2270 H2264 0.950 . S
C2270 C2271 1.327 . S
C2271 H2265 0.950 . S
C2271 C2270 1.327 . S
C2271 C2275 1.429 1_655 S
C2272 C2255 1.574 . S
C2272 H2266 0.949 . S
C2272 C2276 1.368 . S
C2273 C2254 1.429 1_455 S
C2273 C2267 1.429 . S
C2273 C2274 1.523 . S
C2274 C2255 1.368 . S
C2274 C2268 1.368 1_455 S
C2274 C2273 1.523 . S
C2275 C2259 1.429 . S
C2275 C2271 1.429 1_455 S
C2275 C2276 1.523 . S
C2276 C2260 1.368 1_455 S
C2276 C2272 1.368 . S
C2276 C2275 1.523 . S
H2277 C2252 0.950 . S
H2278 C2254 0.950 . S
H2279 C2255 0.949 . S
H2280 C2257 0.950 . S
H2281 C2259 0.950 . S
C2282 C2283 1.349 . S
C2282 C2284 1.327 . S
C2282 H2307 0.950 . S
C2283 C2282 1.349 . S
C2283 C2299 1.349 . S
C2284 C2282 1.327 . S
C2284 C2303 1.429 . S
C2284 H2308 0.950 . S
C2285 C2302 1.574 . S
C2285 C2304 1.368 . S
C2285 H2309 0.949 . S
H2286 C2290 0.949 . S
C2287 C2288 1.349 . S
C2287 C2289 1.327 . S
C2287 H2310 0.950 . S
C2288 C2287 1.349 . S
C2288 C2300 1.349 . S
C2289 C2287 1.327 . S
C2289 C2305 1.429 . S
C2289 H2311 0.950 . S
C2290 H2286 0.949 . S
C2290 C2298 1.574 . S
C2290 C2306 1.368 . S
H2291 C2299 0.950 . S
H2292 C2297 0.950 . S
H2293 C2298 0.949 . S
H2294 C2300 0.950 . S
H2295 C2301 0.950 . S
H2296 C2302 0.949 . S
C2297 H2292 0.950 . S
C2297 C2299 1.327 . S
C2297 C2303 1.429 . S
C2298 C2290 1.574 . S
C2298 H2293 0.949 . S
C2298 C2304 1.368 . S
C2299 C2283 1.349 . S
C2299 H2291 0.950 . S
C2299 C2297 1.327 . S
C2300 C2288 1.349 . S
C2300 H2294 0.950 . S
C2300 C2301 1.327 . S
C2301 H2295 0.950 . S
C2301 C2300 1.327 . S
C2301 C2305 1.429 . S
C2302 C2285 1.574 . S
C2302 H2296 0.949 . S
C2302 C2306 1.368 . S
C2303 C2284 1.429 . S
C2303 C2297 1.429 . S
C2303 C2304 1.523 . S
C2304 C2285 1.368 . S
C2304 C2298 1.368 . S
C2304 C2303 1.523 . S
C2305 C2289 1.429 . S
C2305 C2301 1.429 . S
C2305 C2306 1.523 . S
C2306 C2290 1.368 . S
C2306 C2302 1.368 . S
C2306 C2305 1.523 . S
H2307 C2282 0.950 . S
H2308 C2284 0.950 . S
H2309 C2285 0.949 . S
H2310 C2287 0.950 . S
H2311 C2289 0.950 . S
C2312 C2313 1.349 . S
C2312 C2314 1.327 . S
C2312 H2337 0.950 . S
C2313 C2312 1.349 . S
C2313 C2329 1.349 . S
C2314 C2312 1.327 . S
C2314 C2333 1.429 . S
C2314 H2338 0.950 . S
C2315 C2332 1.574 . S
C2315 C2334 1.368 . S
C2315 H2339 0.949 . S
H2316 C2320 0.949 . S
C2317 C2318 1.349 . S
C2317 C2319 1.327 . S
C2317 H2340 0.950 . S
C2318 C2317 1.349 . S
C2318 C2330 1.349 . S
C2319 C2317 1.327 . S
C2319 C2335 1.429 . S
C2319 H2341 0.950 . S
C2320 H2316 0.949 . S
C2320 C2328 1.574 . S
C2320 C2336 1.368 . S
H2321 C2329 0.950 . S
H2322 C2327 0.950 . S
H2323 C2328 0.949 . S
H2324 C2330 0.950 . S
H2325 C2331 0.950 . S
H2326 C2332 0.949 . S
C2327 H2322 0.950 . S
C2327 C2329 1.327 . S
C2327 C2333 1.429 . S
C2328 C2320 1.574 . S
C2328 H2323 0.949 . S
C2328 C2334 1.368 . S
C2329 C2313 1.349 . S
C2329 H2321 0.950 . S
C2329 C2327 1.327 . S
C2330 C2318 1.349 . S
C2330 H2324 0.950 . S
C2330 C2331 1.327 . S
C2331 H2325 0.950 . S
C2331 C2330 1.327 . S
C2331 C2335 1.429 . S
C2332 C2315 1.574 . S
C2332 H2326 0.949 . S
C2332 C2336 1.368 . S
C2333 C2314 1.429 . S
C2333 C2327 1.429 . S
C2333 C2334 1.523 . S
C2334 C2315 1.368 . S
C2334 C2328 1.368 . S
C2334 C2333 1.523 . S
C2335 C2319 1.429 . S
C2335 C2331 1.429 . S
C2335 C2336 1.523 . S
C2336 C2320 1.368 . S
C2336 C2332 1.368 . S
C2336 C2335 1.523 . S
H2337 C2312 0.950 . S
H2338 C2314 0.950 . S
H2339 C2315 0.949 . S
H2340 C2317 0.950 . S
H2341 C2319 0.950 . S
C2342 C2343 1.349 . S
C2342 C2344 1.327 . S
C2342 H2367 0.950 . S
C2343 C2342 1.349 . S
C2343 C2359 1.349 . S
C2344 C2342 1.327 . S
C2344 C2363 1.429 . S
C2344 H2368 0.950 . S
C2345 C2362 1.574 . S
C2345 C2364 1.368 . S
C2345 H2369 0.949 . S
H2346 C2350 0.949 . S
C2347 C2348 1.349 . S
C2347 C2349 1.327 . S
C2347 H2370 0.950 . S
C2348 C2347 1.349 . S
C2348 C2360 1.349 . S
C2349 C2347 1.327 . S
C2349 C2365 1.429 . S
C2349 H2371 0.950 . S
C2350 H2346 0.949 . S
C2350 C2358 1.574 . S
C2350 C2366 1.368 . S
H2351 C2359 0.950 . S
H2352 C2357 0.950 . S
H2353 C2358 0.949 . S
H2354 C2360 0.950 . S
H2355 C2361 0.950 . S
H2356 C2362 0.949 . S
C2357 H2352 0.950 . S
C2357 C2359 1.327 . S
C2357 C2363 1.429 . S
C2358 C2350 1.574 . S
C2358 H2353 0.949 . S
C2358 C2364 1.368 . S
C2359 C2343 1.349 . S
C2359 H2351 0.950 . S
C2359 C2357 1.327 . S
C2360 C2348 1.349 . S
C2360 H2354 0.950 . S
C2360 C2361 1.327 . S
C2361 H2355 0.950 . S
C2361 C2360 1.327 . S
C2361 C2365 1.429 . S
C2362 C2345 1.574 . S
C2362 H2356 0.949 . S
C2362 C2366 1.368 . S
C2363 C2344 1.429 . S
C2363 C2357 1.429 . S
C2363 C2364 1.523 . S
C2364 C2345 1.368 . S
C2364 C2358 1.368 . S
C2364 C2363 1.523 . S
C2365 C2349 1.429 . S
C2365 C2361 1.429 . S
C2365 C2366 1.523 . S
C2366 C2350 1.368 . S
C2366 C2362 1.368 . S
C2366 C2365 1.523 . S
H2367 C2342 0.950 . S
H2368 C2344 0.950 . S
H2369 C2345 0.949 . S
H2370 C2347 0.950 . S
H2371 C2349 0.950 . S
C2372 C2373 1.349 . S
C2372 C2374 1.327 . S
C2372 H2397 0.950 . S
C2373 C2372 1.349 . S
C2373 C2389 1.349 . S
C2374 C2372 1.327 . S
C2374 C2393 1.429 . S
C2374 H2398 0.950 . S
C2375 C2392 1.574 . S
C2375 C2394 1.368 . S
C2375 H2399 0.949 . S
H2376 C2380 0.949 . S
C2377 C2378 1.349 . S
C2377 C2379 1.327 . S
C2377 H2400 0.950 . S
C2378 C2377 1.349 . S
C2378 C2390 1.349 . S
C2379 C2377 1.327 . S
C2379 C2395 1.429 . S
C2379 H2401 0.950 . S
C2380 H2376 0.949 . S
C2380 C2388 1.574 . S
C2380 C2396 1.368 . S
H2381 C2389 0.950 . S
H2382 C2387 0.950 . S
H2383 C2388 0.949 . S
H2384 C2390 0.950 . S
H2385 C2391 0.950 . S
H2386 C2392 0.949 . S
C2387 H2382 0.950 . S
C2387 C2389 1.327 . S
C2387 C2393 1.429 . S
C2388 C2380 1.574 . S
C2388 H2383 0.949 . S
C2388 C2394 1.368 . S
C2389 C2373 1.349 . S
C2389 H2381 0.950 . S
C2389 C2387 1.327 . S
C2390 C2378 1.349 . S
C2390 H2384 0.950 . S
C2390 C2391 1.327 . S
C2391 H2385 0.950 . S
C2391 C2390 1.327 . S
C2391 C2395 1.429 . S
C2392 C2375 1.574 . S
C2392 H2386 0.949 . S
C2392 C2396 1.368 . S
C2393 C2374 1.429 . S
C2393 C2387 1.429 . S
C2393 C2394 1.523 . S
C2394 C2375 1.368 . S
C2394 C2388 1.368 . S
C2394 C2393 1.523 . S
C2395 C2379 1.429 . S
C2395 C2391 1.429 . S
C2395 C2396 1.523 . S
C2396 C2380 1.368 . S
C2396 C2392 1.368 . S
C2396 C2395 1.523 . S
H2397 C2372 0.950 . S
H2398 C2374 0.950 . S
H2399 C2375 0.949 . S
H2400 C2377 0.950 . S
H2401 C2379 0.950 . S
C2402 C2403 1.349 . S
C2402 C2404 1.327 . S
C2402 H2427 0.950 . S
C2403 C2402 1.349 . S
C2403 C2419 1.349 . S
C2404 C2402 1.327 . S
C2404 C2423 1.429 . S
C2404 H2428 0.950 . S
C2405 C2422 1.574 . S
C2405 C2424 1.368 . S
C2405 H2429 0.949 . S
H2406 C2410 0.949 . S
C2407 C2408 1.349 . S
C2407 C2409 1.327 . S
C2407 H2430 0.950 . S
C2408 C2407 1.349 . S
C2408 C2420 1.349 . S
C2409 C2407 1.327 . S
C2409 C2425 1.429 . S
C2409 H2431 0.950 . S
C2410 H2406 0.949 . S
C2410 C2418 1.574 . S
C2410 C2426 1.368 . S
H2411 C2419 0.950 . S
H2412 C2417 0.950 . S
H2413 C2418 0.949 . S
H2414 C2420 0.950 . S
H2415 C2421 0.950 . S
H2416 C2422 0.949 . S
C2417 H2412 0.950 . S
C2417 C2419 1.327 . S
C2417 C2423 1.429 . S
C2418 C2410 1.574 . S
C2418 H2413 0.949 . S
C2418 C2424 1.368 . S
C2419 C2403 1.349 . S
C2419 H2411 0.950 . S
C2419 C2417 1.327 . S
C2420 C2408 1.349 . S
C2420 H2414 0.950 . S
C2420 C2421 1.327 . S
C2421 H2415 0.950 . S
C2421 C2420 1.327 . S
C2421 C2425 1.429 . S
C2422 C2405 1.574 . S
C2422 H2416 0.949 . S
C2422 C2426 1.368 . S
C2423 C2404 1.429 . S
C2423 C2417 1.429 . S
C2423 C2424 1.523 . S
C2424 C2405 1.368 . S
C2424 C2418 1.368 . S
C2424 C2423 1.523 . S
C2425 C2409 1.429 . S
C2425 C2421 1.429 . S
C2425 C2426 1.523 . S
C2426 C2410 1.368 . S
C2426 C2422 1.368 . S
C2426 C2425 1.523 . S
H2427 C2402 0.950 . S
H2428 C2404 0.950 . S
H2429 C2405 0.949 . S
H2430 C2407 0.950 . S
H2431 C2409 0.950 . S
C2432 C2433 1.349 . S
C2432 C2434 1.327 . S
C2432 H2457 0.950 . S
C2433 C2432 1.349 . S
C2433 C2449 1.349 . S
C2434 C2432 1.327 . S
C2434 C2453 1.429 . S
C2434 H2458 0.950 . S
C2435 C2452 1.574 . S
C2435 C2454 1.368 . S
C2435 H2459 0.949 . S
H2436 C2440 0.949 . S
C2437 C2438 1.349 . S
C2437 C2439 1.327 . S
C2437 H2460 0.950 . S
C2438 C2437 1.349 . S
C2438 C2450 1.349 . S
C2439 C2437 1.327 . S
C2439 C2455 1.429 . S
C2439 H2461 0.950 . S
C2440 H2436 0.949 . S
C2440 C2448 1.574 . S
C2440 C2456 1.368 . S
H2441 C2449 0.950 . S
H2442 C2447 0.950 . S
H2443 C2448 0.949 . S
H2444 C2450 0.950 . S
H2445 C2451 0.950 . S
H2446 C2452 0.949 . S
C2447 H2442 0.950 . S
C2447 C2449 1.327 . S
C2447 C2453 1.429 . S
C2448 C2440 1.574 . S
C2448 H2443 0.949 . S
C2448 C2454 1.368 . S
C2449 C2433 1.349 . S
C2449 H2441 0.950 . S
C2449 C2447 1.327 . S
C2450 C2438 1.349 . S
C2450 H2444 0.950 . S
C2450 C2451 1.327 . S
C2451 H2445 0.950 . S
C2451 C2450 1.327 . S
C2451 C2455 1.429 . S
C2452 C2435 1.574 . S
C2452 H2446 0.949 . S
C2452 C2456 1.368 . S
C2453 C2434 1.429 . S
C2453 C2447 1.429 . S
C2453 C2454 1.523 . S
C2454 C2435 1.368 . S
C2454 C2448 1.368 . S
C2454 C2453 1.523 . S
C2455 C2439 1.429 . S
C2455 C2451 1.429 . S
C2455 C2456 1.523 . S
C2456 C2440 1.368 . S
C2456 C2452 1.368 . S
C2456 C2455 1.523 . S
H2457 C2432 0.950 . S
H2458 C2434 0.950 . S
H2459 C2435 0.949 . S
H2460 C2437 0.950 . S
H2461 C2439 0.950 . S
C2462 C2463 1.349 . S
C2462 C2464 1.327 . S
C2462 H2487 0.950 . S
C2463 C2462 1.349 . S
C2463 C2479 1.349 . S
C2464 C2462 1.327 . S
C2464 C2483 1.429 . S
C2464 H2488 0.950 . S
C2465 C2482 1.574 . S
C2465 C2484 1.368 . S
C2465 H2489 0.949 . S
H2466 C2470 0.949 . S
C2467 C2468 1.349 . S
C2467 C2469 1.327 . S
C2467 H2490 0.950 . S
C2468 C2467 1.349 . S
C2468 C2480 1.349 . S
C2469 C2467 1.327 . S
C2469 C2485 1.429 . S
C2469 H2491 0.950 . S
C2470 H2466 0.949 . S
C2470 C2478 1.574 . S
C2470 C2486 1.368 . S
H2471 C2479 0.950 . S
H2472 C2477 0.950 . S
H2473 C2478 0.949 . S
H2474 C2480 0.950 . S
H2475 C2481 0.950 . S
H2476 C2482 0.949 . S
C2477 H2472 0.950 . S
C2477 C2479 1.327 . S
C2477 C2483 1.429 . S
C2478 C2470 1.574 . S
C2478 H2473 0.949 . S
C2478 C2484 1.368 . S
C2479 C2463 1.349 . S
C2479 H2471 0.950 . S
C2479 C2477 1.327 . S
C2480 C2468 1.349 . S
C2480 H2474 0.950 . S
C2480 C2481 1.327 . S
C2481 H2475 0.950 . S
C2481 C2480 1.327 . S
C2481 C2485 1.429 . S
C2482 C2465 1.574 . S
C2482 H2476 0.949 . S
C2482 C2486 1.368 . S
C2483 C2464 1.429 . S
C2483 C2477 1.429 . S
C2483 C2484 1.523 . S
C2484 C2465 1.368 . S
C2484 C2478 1.368 . S
C2484 C2483 1.523 . S
C2485 C2469 1.429 . S
C2485 C2481 1.429 . S
C2485 C2486 1.523 . S
C2486 C2470 1.368 . S
C2486 C2482 1.368 . S
C2486 C2485 1.523 . S
H2487 C2462 0.950 . S
H2488 C2464 0.950 . S
H2489 C2465 0.949 . S
H2490 C2467 0.950 . S
H2491 C2469 0.950 . S
C2492 C2493 1.349 . S
C2492 C2494 1.327 . S
C2492 H2517 0.950 . S
C2493 C2492 1.349 . S
C2493 C2509 1.349 . S
C2494 C2492 1.327 . S
C2494 C2513 1.429 . S
C2494 H2518 0.950 . S
C2495 C2512 1.574 . S
C2495 C2514 1.368 . S
C2495 H2519 0.949 . S
H2496 C2500 0.949 . S
C2497 C2498 1.349 . S
C2497 C2499 1.327 . S
C2497 H2520 0.950 . S
C2498 C2497 1.349 . S
C2498 C2510 1.349 . S
C2499 C2497 1.327 . S
C2499 C2515 1.429 . S
C2499 H2521 0.950 . S
C2500 H2496 0.949 . S
C2500 C2508 1.574 . S
C2500 C2516 1.368 . S
H2501 C2509 0.950 . S
H2502 C2507 0.950 . S
H2503 C2508 0.949 . S
H2504 C2510 0.950 . S
H2505 C2511 0.950 . S
H2506 C2512 0.949 . S
C2507 H2502 0.950 . S
C2507 C2509 1.327 . S
C2507 C2513 1.429 . S
C2508 C2500 1.574 . S
C2508 H2503 0.949 . S
C2508 C2514 1.368 . S
C2509 C2493 1.349 . S
C2509 H2501 0.950 . S
C2509 C2507 1.327 . S
C2510 C2498 1.349 . S
C2510 H2504 0.950 . S
C2510 C2511 1.327 . S
C2511 H2505 0.950 . S
C2511 C2510 1.327 . S
C2511 C2515 1.429 . S
C2512 C2495 1.574 . S
C2512 H2506 0.949 . S
C2512 C2516 1.368 . S
C2513 C2494 1.429 . S
C2513 C2507 1.429 . S
C2513 C2514 1.523 . S
C2514 C2495 1.368 . S
C2514 C2508 1.368 . S
C2514 C2513 1.523 . S
C2515 C2499 1.429 . S
C2515 C2511 1.429 . S
C2515 C2516 1.523 . S
C2516 C2500 1.368 . S
C2516 C2512 1.368 . S
C2516 C2515 1.523 . S
H2517 C2492 0.950 . S
H2518 C2494 0.950 . S
H2519 C2495 0.949 . S
H2520 C2497 0.950 . S
H2521 C2499 0.950 . S
C2522 C2523 1.349 . S
C2522 C2524 1.327 . S
C2522 H2547 0.950 . S
C2523 C2522 1.349 . S
C2523 C2539 1.349 . S
C2524 C2522 1.327 . S
C2524 C2543 1.429 . S
C2524 H2548 0.950 . S
C2525 C2542 1.574 . S
C2525 C2544 1.368 . S
C2525 H2549 0.949 . S
H2526 C2530 0.949 . S
C2527 C2528 1.349 . S
C2527 C2529 1.327 . S
C2527 H2550 0.950 . S
C2528 C2527 1.349 . S
C2528 C2540 1.349 . S
C2529 C2527 1.327 . S
C2529 C2545 1.429 . S
C2529 H2551 0.950 . S
C2530 H2526 0.949 . S
C2530 C2538 1.574 . S
C2530 C2546 1.368 . S
H2531 C2539 0.950 . S
H2532 C2537 0.950 . S
H2533 C2538 0.949 . S
H2534 C2540 0.950 . S
H2535 C2541 0.950 . S
H2536 C2542 0.949 . S
C2537 H2532 0.950 . S
C2537 C2539 1.327 . S
C2537 C2543 1.429 . S
C2538 C2530 1.574 . S
C2538 H2533 0.949 . S
C2538 C2544 1.368 . S
C2539 C2523 1.349 . S
C2539 H2531 0.950 . S
C2539 C2537 1.327 . S
C2540 C2528 1.349 . S
C2540 H2534 0.950 . S
C2540 C2541 1.327 . S
C2541 H2535 0.950 . S
C2541 C2540 1.327 . S
C2541 C2545 1.429 . S
C2542 C2525 1.574 . S
C2542 H2536 0.949 . S
C2542 C2546 1.368 . S
C2543 C2524 1.429 . S
C2543 C2537 1.429 . S
C2543 C2544 1.523 . S
C2544 C2525 1.368 . S
C2544 C2538 1.368 . S
C2544 C2543 1.523 . S
C2545 C2529 1.429 . S
C2545 C2541 1.429 . S
C2545 C2546 1.523 . S
C2546 C2530 1.368 . S
C2546 C2542 1.368 . S
C2546 C2545 1.523 . S
H2547 C2522 0.950 . S
H2548 C2524 0.950 . S
H2549 C2525 0.949 . S
H2550 C2527 0.950 . S
H2551 C2529 0.950 . S
C2552 C2553 1.349 . S
C2552 C2554 1.327 . S
C2552 H2577 0.950 . S
C2553 C2552 1.349 . S
C2553 C2569 1.349 . S
C2554 C2552 1.327 . S
C2554 C2573 1.429 . S
C2554 H2578 0.950 . S
C2555 C2572 1.574 . S
C2555 C2574 1.368 . S
C2555 H2579 0.949 . S
H2556 C2560 0.949 . S
C2557 C2558 1.349 . S
C2557 C2559 1.327 . S
C2557 H2580 0.950 . S
C2558 C2557 1.349 . S
C2558 C2570 1.349 . S
C2559 C2557 1.327 . S
C2559 C2575 1.429 . S
C2559 H2581 0.950 . S
C2560 H2556 0.949 . S
C2560 C2568 1.574 . S
C2560 C2576 1.368 . S
H2561 C2569 0.950 . S
H2562 C2567 0.950 . S
H2563 C2568 0.949 . S
H2564 C2570 0.950 . S
H2565 C2571 0.950 . S
H2566 C2572 0.949 . S
C2567 H2562 0.950 . S
C2567 C2569 1.327 . S
C2567 C2573 1.429 . S
C2568 C2560 1.574 . S
C2568 H2563 0.949 . S
C2568 C2574 1.368 . S
C2569 C2553 1.349 . S
C2569 H2561 0.950 . S
C2569 C2567 1.327 . S
C2570 C2558 1.349 . S
C2570 H2564 0.950 . S
C2570 C2571 1.327 . S
C2571 H2565 0.950 . S
C2571 C2570 1.327 . S
C2571 C2575 1.429 . S
C2572 C2555 1.574 . S
C2572 H2566 0.949 . S
C2572 C2576 1.368 . S
C2573 C2554 1.429 . S
C2573 C2567 1.429 . S
C2573 C2574 1.523 . S
C2574 C2555 1.368 . S
C2574 C2568 1.368 . S
C2574 C2573 1.523 . S
C2575 C2559 1.429 . S
C2575 C2571 1.429 . S
C2575 C2576 1.523 . S
C2576 C2560 1.368 . S
C2576 C2572 1.368 . S
C2576 C2575 1.523 . S
H2577 C2552 0.950 . S
H2578 C2554 0.950 . S
H2579 C2555 0.949 . S
H2580 C2557 0.950 . S
H2581 C2559 0.950 . S
C2582 C2583 1.349 . S
C2582 C2584 1.327 . S
C2582 H2607 0.950 . S
C2583 C2582 1.349 . S
C2583 C2599 1.349 . S
C2584 C2582 1.327 . S
C2584 C2603 1.429 . S
C2584 H2608 0.950 . S
C2585 C2602 1.574 . S
C2585 C2604 1.368 . S
C2585 H2609 0.949 . S
H2586 C2590 0.949 . S
C2587 C2588 1.349 . S
C2587 C2589 1.327 . S
C2587 H2610 0.950 . S
C2588 C2587 1.349 . S
C2588 C2600 1.349 . S
C2589 C2587 1.327 . S
C2589 C2605 1.429 . S
C2589 H2611 0.950 . S
C2590 H2586 0.949 . S
C2590 C2598 1.574 . S
C2590 C2606 1.368 . S
H2591 C2599 0.950 . S
H2592 C2597 0.950 . S
H2593 C2598 0.949 . S
H2594 C2600 0.950 . S
H2595 C2601 0.950 . S
H2596 C2602 0.949 . S
C2597 H2592 0.950 . S
C2597 C2599 1.327 . S
C2597 C2603 1.429 . S
C2598 C2590 1.574 . S
C2598 H2593 0.949 . S
C2598 C2604 1.368 . S
C2599 C2583 1.349 . S
C2599 H2591 0.950 . S
C2599 C2597 1.327 . S
C2600 C2588 1.349 . S
C2600 H2594 0.950 . S
C2600 C2601 1.327 . S
C2601 H2595 0.950 . S
C2601 C2600 1.327 . S
C2601 C2605 1.429 . S
C2602 C2585 1.574 . S
C2602 H2596 0.949 . S
C2602 C2606 1.368 . S
C2603 C2584 1.429 . S
C2603 C2597 1.429 . S
C2603 C2604 1.523 . S
C2604 C2585 1.368 . S
C2604 C2598 1.368 . S
C2604 C2603 1.523 . S
C2605 C2589 1.429 . S
C2605 C2601 1.429 . S
C2605 C2606 1.523 . S
C2606 C2590 1.368 . S
C2606 C2602 1.368 . S
C2606 C2605 1.523 . S
H2607 C2582 0.950 . S
H2608 C2584 0.950 . S
H2609 C2585 0.949 . S
H2610 C2587 0.950 . S
H2611 C2589 0.950 . S
C2612 C2613 1.349 . S
C2612 C2614 1.327 . S
C2612 H2637 0.950 . S
C2613 C2612 1.349 . S
C2613 C2629 1.349 . S
C2614 C2612 1.327 . S
C2614 C2633 1.429 . S
C2614 H2638 0.950 . S
C2615 C2632 1.574 . S
C2615 C2634 1.368 . S
C2615 H2639 0.949 . S
H2616 C2620 0.949 . S
C2617 C2618 1.349 . S
C2617 C2619 1.327 . S
C2617 H2640 0.950 . S
C2618 C2617 1.349 . S
C2618 C2630 1.349 . S
C2619 C2617 1.327 . S
C2619 C2635 1.429 . S
C2619 H2641 0.950 . S
C2620 H2616 0.949 . S
C2620 C2628 1.574 . S
C2620 C2636 1.368 . S
H2621 C2629 0.950 . S
H2622 C2627 0.950 . S
H2623 C2628 0.949 . S
H2624 C2630 0.950 . S
H2625 C2631 0.950 . S
H2626 C2632 0.949 . S
C2627 H2622 0.950 . S
C2627 C2629 1.327 . S
C2627 C2633 1.429 . S
C2628 C2620 1.574 . S
C2628 H2623 0.949 . S
C2628 C2634 1.368 . S
C2629 C2613 1.349 . S
C2629 H2621 0.950 . S
C2629 C2627 1.327 . S
C2630 C2618 1.349 . S
C2630 H2624 0.950 . S
C2630 C2631 1.327 . S
C2631 H2625 0.950 . S
C2631 C2630 1.327 . S
C2631 C2635 1.429 . S
C2632 C2615 1.574 . S
C2632 H2626 0.949 . S
C2632 C2636 1.368 . S
C2633 C2614 1.429 . S
C2633 C2627 1.429 . S
C2633 C2634 1.523 . S
C2634 C2615 1.368 . S
C2634 C2628 1.368 . S
C2634 C2633 1.523 . S
C2635 C2619 1.429 . S
C2635 C2631 1.429 . S
C2635 C2636 1.523 . S
C2636 C2620 1.368 . S
C2636 C2632 1.368 . S
C2636 C2635 1.523 . S
H2637 C2612 0.950 . S
H2638 C2614 0.950 . S
H2639 C2615 0.949 . S
H2640 C2617 0.950 . S
H2641 C2619 0.950 . S
C2642 C2643 1.349 . S
C2642 C2644 1.327 . S
C2642 H2667 0.950 . S
C2643 C2642 1.349 . S
C2643 C2659 1.349 . S
C2644 C2642 1.327 . S
C2644 C2663 1.429 . S
C2644 H2668 0.950 . S
C2645 C2662 1.574 . S
C2645 C2664 1.368 . S
C2645 H2669 0.949 . S
H2646 C2650 0.949 . S
C2647 C2648 1.349 1_565 S
C2647 C2649 1.327 . S
C2647 H2670 0.950 . S
C2648 C2647 1.349 1_545 S
C2648 C2660 1.349 . S
C2649 C2647 1.327 . S
C2649 C2665 1.429 . S
C2649 H2671 0.950 . S
C2650 H2646 0.949 . S
C2650 C2658 1.574 . S
C2650 C2666 1.368 . S
H2651 C2659 0.950 . S
H2652 C2657 0.950 . S
H2653 C2658 0.949 . S
H2654 C2660 0.950 1_556 S
H2655 C2661 0.937 1_556 S
H2656 C2662 0.949 . S
C2657 H2652 0.950 . S
C2657 C2659 1.327 . S
C2657 C2663 1.429 . S
C2658 C2650 1.574 . S
C2658 H2653 0.949 . S
C2658 C2664 1.368 . S
C2659 C2643 1.349 . S
C2659 H2651 0.950 . S
C2659 C2657 1.327 . S
C2660 C2648 1.349 . S
C2660 H2654 0.950 1_554 S
C2660 C2661 1.327 . S
C2661 H2655 0.937 1_554 S
C2661 C2660 1.327 . S
C2661 C2665 1.429 1_545 S
C2662 C2645 1.574 . S
C2662 H2656 0.949 . S
C2662 C2666 1.368 . S
C2663 C2644 1.429 . S
C2663 C2657 1.429 . S
C2663 C2664 1.523 . S
C2664 C2645 1.368 . S
C2664 C2658 1.368 . S
C2664 C2663 1.523 . S
C2665 C2649 1.429 . S
C2665 C2661 1.429 1_565 S
C2665 C2666 1.523 . S
C2666 C2650 1.368 . S
C2666 C2662 1.368 . S
C2666 C2665 1.523 . S
H2667 C2642 0.950 . S
H2668 C2644 0.950 . S
H2669 C2645 0.949 . S
H2670 C2647 0.950 . S
H2671 C2649 0.950 . S
C2672 C2673 1.349 . S
C2672 C2674 1.327 . S
C2672 H2697 0.950 . S
C2673 C2672 1.349 . S
C2673 C2689 1.349 . S
C2674 C2672 1.327 . S
C2674 C2693 1.429 . S
C2674 H2698 0.950 . S
C2675 C2692 1.574 . S
C2675 C2694 1.368 . S
C2675 H2699 0.949 . S
H2676 C2680 0.949 . S
C2677 C2678 1.349 . S
C2677 C2679 1.327 . S
C2677 H2700 0.950 . S
C2678 C2677 1.349 . S
C2678 C2690 1.349 . S
C2679 C2677 1.327 . S
C2679 C2695 1.429 . S
C2679 H2701 0.950 . S
C2680 H2676 0.949 . S
C2680 C2688 1.574 . S
C2680 C2696 1.368 . S
H2681 C2689 0.950 . S
H2682 C2687 0.950 . S
H2683 C2688 0.949 . S
H2684 C2690 0.950 . S
H2685 C2691 0.950 . S
H2686 C2692 0.949 . S
C2687 H2682 0.950 . S
C2687 C2689 1.327 . S
C2687 C2693 1.429 . S
C2688 C2680 1.574 . S
C2688 H2683 0.949 . S
C2688 C2694 1.368 . S
C2689 C2673 1.349 . S
C2689 H2681 0.950 . S
C2689 C2687 1.327 . S
C2690 C2678 1.349 . S
C2690 H2684 0.950 . S
C2690 C2691 1.327 . S
C2691 H2685 0.950 . S
C2691 C2690 1.327 . S
C2691 C2695 1.429 . S
C2692 C2675 1.574 . S
C2692 H2686 0.949 . S
C2692 C2696 1.368 . S
C2693 C2674 1.429 . S
C2693 C2687 1.429 . S
C2693 C2694 1.523 . S
C2694 C2675 1.368 . S
C2694 C2688 1.368 . S
C2694 C2693 1.523 . S
C2695 C2679 1.429 . S
C2695 C2691 1.429 . S
C2695 C2696 1.523 . S
C2696 C2680 1.368 . S
C2696 C2692 1.368 . S
C2696 C2695 1.523 . S
H2697 C2672 0.950 . S
H2698 C2674 0.950 . S
H2699 C2675 0.949 . S
H2700 C2677 0.950 . S
H2701 C2679 0.950 . S
C2702 C2703 1.349 . S
C2702 C2704 1.327 . S
C2702 H2727 0.950 . S
C2703 C2702 1.349 . S
C2703 C2719 1.349 1_554 S
C2704 C2702 1.327 . S
C2704 C2723 1.429 . S
C2704 H2728 0.950 . S
C2705 C2722 1.574 . S
C2705 C2724 1.368 . S
C2705 H2729 0.949 1_554 S
H2706 C2710 0.949 . S
C2707 C2708 1.349 . S
C2707 C2709 1.327 . S
C2707 H2730 0.950 . S
C2708 C2707 1.349 . S
C2708 C2720 1.349 . S
C2709 C2707 1.327 . S
C2709 C2725 1.429 . S
C2709 H2731 0.950 1_554 S
C2710 H2706 0.949 . S
C2710 C2718 1.574 . S
C2710 C2726 1.368 . S
H2711 C2719 0.950 . S
H2712 C2717 0.959 . S
H2713 C2718 0.949 . S
H2714 C2720 0.950 . S
H2715 C2721 0.950 . S
H2716 C2722 0.949 1_556 S
C2717 H2712 0.959 . S
C2717 C2719 1.328 . S
C2717 C2723 1.419 1_556 S
C2718 C2710 1.574 . S
C2718 H2713 0.949 . S
C2718 C2724 1.368 . S
C2719 C2703 1.349 1_556 S
C2719 H2711 0.950 . S
C2719 C2717 1.328 . S
C2720 C2708 1.349 . S
C2720 H2714 0.950 . S
C2720 C2721 1.327 . S
C2721 H2715 0.950 . S
C2721 C2720 1.327 . S
C2721 C2725 1.429 . S
C2722 C2705 1.574 . S
C2722 H2716 0.949 1_554 S
C2722 C2726 1.368 . S
C2723 C2704 1.429 . S
C2723 C2717 1.419 1_554 S
C2723 C2724 1.523 . S
C2724 C2705 1.368 . S
C2724 C2718 1.368 . S
C2724 C2723 1.523 . S
C2725 C2709 1.429 . S
C2725 C2721 1.429 . S
C2725 C2726 1.523 . S
C2726 C2710 1.368 . S
C2726 C2722 1.368 . S
C2726 C2725 1.523 . S
H2727 C2702 0.950 . S
H2728 C2704 0.950 . S
H2729 C2705 0.949 1_556 S
H2730 C2707 0.950 . S
H2731 C2709 0.950 1_556 S
C2732 C2733 1.349 . S
C2732 C2734 1.327 . S
C2732 H2757 0.950 . S
C2733 C2732 1.349 . S
C2733 C2749 1.349 . S
C2734 C2732 1.327 . S
C2734 C2753 1.429 . S
C2734 H2758 0.950 . S
C2735 C2752 1.574 . S
C2735 C2754 1.368 . S
C2735 H2759 0.949 . S
H2736 C2740 0.949 . S
C2737 C2738 1.349 . S
C2737 C2739 1.327 . S
C2737 H2760 0.950 . S
C2738 C2737 1.349 . S
C2738 C2750 1.349 . S
C2739 C2737 1.327 . S
C2739 C2755 1.429 . S
C2739 H2761 0.950 . S
C2740 H2736 0.949 . S
C2740 C2748 1.574 . S
C2740 C2756 1.368 . S
H2741 C2749 0.950 . S
H2742 C2747 0.950 . S
H2743 C2748 0.949 . S
H2744 C2750 0.950 . S
H2745 C2751 0.950 . S
H2746 C2752 0.949 . S
C2747 H2742 0.950 . S
C2747 C2749 1.327 . S
C2747 C2753 1.429 . S
C2748 C2740 1.574 . S
C2748 H2743 0.949 . S
C2748 C2754 1.368 . S
C2749 C2733 1.349 . S
C2749 H2741 0.950 . S
C2749 C2747 1.327 . S
C2750 C2738 1.349 . S
C2750 H2744 0.950 . S
C2750 C2751 1.327 . S
C2751 H2745 0.950 . S
C2751 C2750 1.327 . S
C2751 C2755 1.429 . S
C2752 C2735 1.574 . S
C2752 H2746 0.949 . S
C2752 C2756 1.368 . S
C2753 C2734 1.429 . S
C2753 C2747 1.429 . S
C2753 C2754 1.523 . S
C2754 C2735 1.368 . S
C2754 C2748 1.368 . S
C2754 C2753 1.523 . S
C2755 C2739 1.429 . S
C2755 C2751 1.429 . S
C2755 C2756 1.523 . S
C2756 C2740 1.368 . S
C2756 C2752 1.368 . S
C2756 C2755 1.523 . S
H2757 C2732 0.950 . S
H2758 C2734 0.950 . S
H2759 C2735 0.949 . S
H2760 C2737 0.950 . S
H2761 C2739 0.950 . S
C2762 C2763 1.349 . S
C2762 C2764 1.327 . S
C2762 H2787 0.950 . S
C2763 C2762 1.349 . S
C2763 C2779 1.349 . S
C2764 C2762 1.327 . S
C2764 C2783 1.429 . S
C2764 H2788 0.950 . S
C2765 C2782 1.574 . S
C2765 C2784 1.368 . S
C2765 H2789 0.949 . S
H2766 C2770 0.949 . S
C2767 C2768 1.349 . S
C2767 C2769 1.327 . S
C2767 H2790 0.950 . S
C2768 C2767 1.349 . S
C2768 C2780 1.349 . S
C2769 C2767 1.327 . S
C2769 C2785 1.429 . S
C2769 H2791 0.950 . S
C2770 H2766 0.949 . S
C2770 C2778 1.574 . S
C2770 C2786 1.368 . S
H2771 C2779 0.950 . S
H2772 C2777 0.950 . S
H2773 C2778 0.949 . S
H2774 C2780 0.950 . S
H2775 C2781 0.950 . S
H2776 C2782 0.949 . S
C2777 H2772 0.950 . S
C2777 C2779 1.327 . S
C2777 C2783 1.429 . S
C2778 C2770 1.574 . S
C2778 H2773 0.949 . S
C2778 C2784 1.368 . S
C2779 C2763 1.349 . S
C2779 H2771 0.950 . S
C2779 C2777 1.327 . S
C2780 C2768 1.349 . S
C2780 H2774 0.950 . S
C2780 C2781 1.327 . S
C2781 H2775 0.950 . S
C2781 C2780 1.327 . S
C2781 C2785 1.429 . S
C2782 C2765 1.574 . S
C2782 H2776 0.949 . S
C2782 C2786 1.368 . S
C2783 C2764 1.429 . S
C2783 C2777 1.429 . S
C2783 C2784 1.523 . S
C2784 C2765 1.368 . S
C2784 C2778 1.368 . S
C2784 C2783 1.523 . S
C2785 C2769 1.429 . S
C2785 C2781 1.429 . S
C2785 C2786 1.523 . S
C2786 C2770 1.368 . S
C2786 C2782 1.368 . S
C2786 C2785 1.523 . S
H2787 C2762 0.950 . S
H2788 C2764 0.950 . S
H2789 C2765 0.949 . S
H2790 C2767 0.950 . S
H2791 C2769 0.950 . S
C2792 C2793 1.349 . S
C2792 C2794 1.327 . S
C2792 H2817 0.950 . S
C2793 C2792 1.349 . S
C2793 C2809 1.349 . S
C2794 C2792 1.327 . S
C2794 C2813 1.429 . S
C2794 H2818 0.950 . S
C2795 C2812 1.574 . S
C2795 C2814 1.368 . S
C2795 H2819 0.949 . S
H2796 C2800 0.949 . S
C2797 C2798 1.349 . S
C2797 C2799 1.327 . S
C2797 H2820 0.950 . S
C2798 C2797 1.349 . S
C2798 C2810 1.349 . S
C2799 C2797 1.327 . S
C2799 C2815 1.429 . S
C2799 H2821 0.950 . S
C2800 H2796 0.949 . S
C2800 C2808 1.574 . S
C2800 C2816 1.368 . S
H2801 C2809 0.950 . S
H2802 C2807 0.950 . S
H2803 C2808 0.949 . S
H2804 C2810 0.950 . S
H2805 C2811 0.950 . S
H2806 C2812 0.949 . S
C2807 H2802 0.950 . S
C2807 C2809 1.327 . S
C2807 C2813 1.429 . S
C2808 C2800 1.574 . S
C2808 H2803 0.949 . S
C2808 C2814 1.368 . S
C2809 C2793 1.349 . S
C2809 H2801 0.950 . S
C2809 C2807 1.327 . S
C2810 C2798 1.349 . S
C2810 H2804 0.950 . S
C2810 C2811 1.327 . S
C2811 H2805 0.950 . S
C2811 C2810 1.327 . S
C2811 C2815 1.429 . S
C2812 C2795 1.574 . S
C2812 H2806 0.949 . S
C2812 C2816 1.368 . S
C2813 C2794 1.429 . S
C2813 C2807 1.429 . S
C2813 C2814 1.523 . S
C2814 C2795 1.368 . S
C2814 C2808 1.368 . S
C2814 C2813 1.523 . S
C2815 C2799 1.429 . S
C2815 C2811 1.429 . S
C2815 C2816 1.523 . S
C2816 C2800 1.368 . S
C2816 C2812 1.368 . S
C2816 C2815 1.523 . S
H2817 C2792 0.950 . S
H2818 C2794 0.950 . S
H2819 C2795 0.949 . S
H2820 C2797 0.950 . S
H2821 C2799 0.950 . S
C2822 C2823 1.349 . S
C2822 C2824 1.327 . S
C2822 H2847 0.950 . S
C2823 C2822 1.349 . S
C2823 C2839 1.349 . S
C2824 C2822 1.327 . S
C2824 C2843 1.429 . S
C2824 H2848 0.950 . S
C2825 C2842 1.574 . S
C2825 C2844 1.368 . S
C2825 H2849 0.949 . S
H2826 C2830 0.949 . S
C2827 C2828 1.349 . S
C2827 C2829 1.327 . S
C2827 H2850 0.950 . S
C2828 C2827 1.349 . S
C2828 C2840 1.349 . S
C2829 C2827 1.327 . S
C2829 C2845 1.429 . S
C2829 H2851 0.950 . S
C2830 H2826 0.949 . S
C2830 C2838 1.574 . S
C2830 C2846 1.368 . S
H2831 C2839 0.950 . S
H2832 C2837 0.950 . S
H2833 C2838 0.949 . S
H2834 C2840 0.950 . S
H2835 C2841 0.950 . S
H2836 C2842 0.949 . S
C2837 H2832 0.950 . S
C2837 C2839 1.327 . S
C2837 C2843 1.429 . S
C2838 C2830 1.574 . S
C2838 H2833 0.949 . S
C2838 C2844 1.368 . S
C2839 C2823 1.349 . S
C2839 H2831 0.950 . S
C2839 C2837 1.327 . S
C2840 C2828 1.349 . S
C2840 H2834 0.950 . S
C2840 C2841 1.327 . S
C2841 H2835 0.950 . S
C2841 C2840 1.327 . S
C2841 C2845 1.429 . S
C2842 C2825 1.574 . S
C2842 H2836 0.949 . S
C2842 C2846 1.368 . S
C2843 C2824 1.429 . S
C2843 C2837 1.429 . S
C2843 C2844 1.523 . S
C2844 C2825 1.368 . S
C2844 C2838 1.368 . S
C2844 C2843 1.523 . S
C2845 C2829 1.429 . S
C2845 C2841 1.429 . S
C2845 C2846 1.523 . S
C2846 C2830 1.368 . S
C2846 C2842 1.368 . S
C2846 C2845 1.523 . S
H2847 C2822 0.950 . S
H2848 C2824 0.950 . S
H2849 C2825 0.949 . S
H2850 C2827 0.950 . S
H2851 C2829 0.950 . S
C2852 C2853 1.349 . S
C2852 C2854 1.327 . S
C2852 H2877 0.950 . S
C2853 C2852 1.349 . S
C2853 C2869 1.349 . S
C2854 C2852 1.327 . S
C2854 C2873 1.429 . S
C2854 H2878 0.950 . S
C2855 C2872 1.574 . S
C2855 C2874 1.368 . S
C2855 H2879 0.949 1_455 S
H2856 C2860 0.949 . S
C2857 C2858 1.349 . S
C2857 C2859 1.327 . S
C2857 H2880 0.950 1_455 S
C2858 C2857 1.349 . S
C2858 C2870 1.349 . S
C2859 C2857 1.327 . S
C2859 C2875 1.429 . S
C2859 H2881 0.950 1_455 S
C2860 H2856 0.949 . S
C2860 C2868 1.574 . S
C2860 C2876 1.368 . S
H2861 C2869 0.950 1_655 S
H2862 C2867 0.950 1_655 S
H2863 C2868 0.949 . S
H2864 C2870 0.950 . S
H2865 C2871 0.950 . S
H2866 C2872 0.949 1_655 S
C2867 H2862 0.950 1_455 S
C2867 C2869 1.327 . S
C2867 C2873 1.429 . S
C2868 C2860 1.574 . S
C2868 H2863 0.949 . S
C2868 C2874 1.368 . S
C2869 C2853 1.349 . S
C2869 H2861 0.950 1_455 S
C2869 C2867 1.327 . S
C2870 C2858 1.349 . S
C2870 H2864 0.950 . S
C2870 C2871 1.327 . S
C2871 H2865 0.950 . S
C2871 C2870 1.327 . S
C2871 C2875 1.429 . S
C2872 C2855 1.574 . S
C2872 H2866 0.949 1_455 S
C2872 C2876 1.368 . S
C2873 C2854 1.429 . S
C2873 C2867 1.429 . S
C2873 C2874 1.523 . S
C2874 C2855 1.368 . S
C2874 C2868 1.368 . S
C2874 C2873 1.523 . S
C2875 C2859 1.429 . S
C2875 C2871 1.429 . S
C2875 C2876 1.523 . S
C2876 C2860 1.368 . S
C2876 C2872 1.368 . S
C2876 C2875 1.523 . S
H2877 C2852 0.950 . S
H2878 C2854 0.950 . S
H2879 C2855 0.949 1_655 S
H2880 C2857 0.950 1_655 S
H2881 C2859 0.950 1_655 S
C2882 C2883 1.349 . S
C2882 C2884 1.327 . S
C2882 H2907 0.950 . S
C2883 C2882 1.349 . S
C2883 C2899 1.349 . S
C2884 C2882 1.327 . S
C2884 C2903 1.429 . S
C2884 H2908 0.950 . S
C2885 C2902 1.574 . S
C2885 C2904 1.368 . S
C2885 H2909 0.949 . S
H2886 C2890 0.949 . S
C2887 C2888 1.349 . S
C2887 C2889 1.327 . S
C2887 H2910 0.950 . S
C2888 C2887 1.349 . S
C2888 C2900 1.349 . S
C2889 C2887 1.327 . S
C2889 C2905 1.429 . S
C2889 H2911 0.950 . S
C2890 H2886 0.949 . S
C2890 C2898 1.574 . S
C2890 C2906 1.368 . S
H2891 C2899 0.950 . S
H2892 C2897 0.950 . S
H2893 C2898 0.949 . S
H2894 C2900 0.950 . S
H2895 C2901 0.950 . S
H2896 C2902 0.949 . S
C2897 H2892 0.950 . S
C2897 C2899 1.327 . S
C2897 C2903 1.429 . S
C2898 C2890 1.574 . S
C2898 H2893 0.949 . S
C2898 C2904 1.368 . S
C2899 C2883 1.349 . S
C2899 H2891 0.950 . S
C2899 C2897 1.327 . S
C2900 C2888 1.349 . S
C2900 H2894 0.950 . S
C2900 C2901 1.327 . S
C2901 H2895 0.950 . S
C2901 C2900 1.327 . S
C2901 C2905 1.429 . S
C2902 C2885 1.574 . S
C2902 H2896 0.949 . S
C2902 C2906 1.368 . S
C2903 C2884 1.429 . S
C2903 C2897 1.429 . S
C2903 C2904 1.523 . S
C2904 C2885 1.368 . S
C2904 C2898 1.368 . S
C2904 C2903 1.523 . S
C2905 C2889 1.429 . S
C2905 C2901 1.429 . S
C2905 C2906 1.523 . S
C2906 C2890 1.368 . S
C2906 C2902 1.368 . S
C2906 C2905 1.523 . S
H2907 C2882 0.950 . S
H2908 C2884 0.950 . S
H2909 C2885 0.949 . S
H2910 C2887 0.950 . S
H2911 C2889 0.950 . S
C2912 C2913 1.349 . S
C2912 C2914 1.327 . S
C2912 H2937 0.950 . S
C2913 C2912 1.349 . S
C2913 C2929 1.349 . S
C2914 C2912 1.327 . S
C2914 C2933 1.429 . S
C2914 H2938 0.950 . S
C2915 C2932 1.574 . S
C2915 C2934 1.368 . S
C2915 H2939 0.949 . S
H2916 C2920 0.949 . S
C2917 C2918 1.349 . S
C2917 C2919 1.327 . S
C2917 H2940 0.950 . S
C2918 C2917 1.349 . S
C2918 C2930 1.341 1_556 S
C2919 C2917 1.327 . S
C2919 C2935 1.429 . S
C2919 H2941 0.950 . S
C2920 H2916 0.949 . S
C2920 C2928 1.574 . S
C2920 C2936 1.368 . S
H2921 C2929 0.950 . S
H2922 C2927 0.950 . S
H2923 C2928 0.949 . S
H2924 C2930 0.973 . S
H2925 C2931 0.950 . S
H2926 C2932 0.949 . S
C2927 H2922 0.950 . S
C2927 C2929 1.327 . S
C2927 C2933 1.429 . S
C2928 C2920 1.574 . S
C2928 H2923 0.949 . S
C2928 C2934 1.368 . S
C2929 C2913 1.349 . S
C2929 H2921 0.950 . S
C2929 C2927 1.327 . S
C2930 C2918 1.341 1_554 S
C2930 H2924 0.973 . S
C2930 C2931 1.312 1_554 S
C2931 H2925 0.950 . S
C2931 C2930 1.312 1_556 S
C2931 C2935 1.429 . S
C2932 C2915 1.574 . S
C2932 H2926 0.949 . S
C2932 C2936 1.368 . S
C2933 C2914 1.429 . S
C2933 C2927 1.429 . S
C2933 C2934 1.523 . S
C2934 C2915 1.368 . S
C2934 C2928 1.368 . S
C2934 C2933 1.523 . S
C2935 C2919 1.429 . S
C2935 C2931 1.429 . S
C2935 C2936 1.523 . S
C2936 C2920 1.368 . S
C2936 C2932 1.368 . S
C2936 C2935 1.523 . S
H2937 C2912 0.950 . S
H2938 C2914 0.950 . S
H2939 C2915 0.949 . S
H2940 C2917 0.950 . S
H2941 C2919 0.950 . S
C2942 C2943 1.349 . S
C2942 C2944 1.327 . S
C2942 H2967 0.950 . S
C2943 C2942 1.349 . S
C2943 C2959 1.349 . S
C2944 C2942 1.327 . S
C2944 C2963 1.429 . S
C2944 H2968 0.950 . S
C2945 C2962 1.574 . S
C2945 C2964 1.368 . S
C2945 H2969 0.949 . S
H2946 C2950 0.949 . S
C2947 C2948 1.349 . S
C2947 C2949 1.327 . S
C2947 H2970 0.950 . S
C2948 C2947 1.349 . S
C2948 C2960 1.349 . S
C2949 C2947 1.327 . S
C2949 C2965 1.429 . S
C2949 H2971 0.950 . S
C2950 H2946 0.949 . S
C2950 C2958 1.574 . S
C2950 C2966 1.368 . S
H2951 C2959 0.950 . S
H2952 C2957 0.950 . S
H2953 C2958 0.949 . S
H2954 C2960 0.950 . S
H2955 C2961 0.950 . S
H2956 C2962 0.949 . S
C2957 H2952 0.950 . S
C2957 C2959 1.327 . S
C2957 C2963 1.429 . S
C2958 C2950 1.574 . S
C2958 H2953 0.949 . S
C2958 C2964 1.368 . S
C2959 C2943 1.349 . S
C2959 H2951 0.950 . S
C2959 C2957 1.327 . S
C2960 C2948 1.349 . S
C2960 H2954 0.950 . S
C2960 C2961 1.327 . S
C2961 H2955 0.950 . S
C2961 C2960 1.327 . S
C2961 C2965 1.429 . S
C2962 C2945 1.574 . S
C2962 H2956 0.949 . S
C2962 C2966 1.368 . S
C2963 C2944 1.429 . S
C2963 C2957 1.429 . S
C2963 C2964 1.523 . S
C2964 C2945 1.368 . S
C2964 C2958 1.368 . S
C2964 C2963 1.523 . S
C2965 C2949 1.429 . S
C2965 C2961 1.429 . S
C2965 C2966 1.523 . S
C2966 C2950 1.368 . S
C2966 C2962 1.368 . S
C2966 C2965 1.523 . S
H2967 C2942 0.950 . S
H2968 C2944 0.950 . S
H2969 C2945 0.949 . S
H2970 C2947 0.950 . S
H2971 C2949 0.950 . S
C2972 C2973 1.349 . S
C2972 C2974 1.327 . S
C2972 H2997 0.950 . S
C2973 C2972 1.349 . S
C2973 C2989 1.349 . S
C2974 C2972 1.327 . S
C2974 C2993 1.429 . S
C2974 H2998 0.950 . S
C2975 C2992 1.574 . S
C2975 C2994 1.368 . S
C2975 H2999 0.949 1_455 S
H2976 C2980 0.949 . S
C2977 C2978 1.349 . S
C2977 C2979 1.327 . S
C2977 H3000 0.950 1_455 S
C2978 C2977 1.349 . S
C2978 C2990 1.349 . S
C2979 C2977 1.327 . S
C2979 C2995 1.429 . S
C2979 H3001 0.950 1_455 S
C2980 H2976 0.949 . S
C2980 C2988 1.574 . S
C2980 C2996 1.368 . S
H2981 C2989 0.950 1_655 S
H2982 C2987 0.950 1_655 S
H2983 C2988 0.949 . S
H2984 C2990 0.950 . S
H2985 C2991 0.950 . S
H2986 C2992 0.949 1_655 S
C2987 H2982 0.950 1_455 S
C2987 C2989 1.327 . S
C2987 C2993 1.429 . S
C2988 C2980 1.574 . S
C2988 H2983 0.949 . S
C2988 C2994 1.368 . S
C2989 C2973 1.349 . S
C2989 H2981 0.950 1_455 S
C2989 C2987 1.327 . S
C2990 C2978 1.349 . S
C2990 H2984 0.950 . S
C2990 C2991 1.327 . S
C2991 H2985 0.950 . S
C2991 C2990 1.327 . S
C2991 C2995 1.429 . S
C2992 C2975 1.574 . S
C2992 H2986 0.949 1_455 S
C2992 C2996 1.368 . S
C2993 C2974 1.429 . S
C2993 C2987 1.429 . S
C2993 C2994 1.523 . S
C2994 C2975 1.368 . S
C2994 C2988 1.368 . S
C2994 C2993 1.523 . S
C2995 C2979 1.429 . S
C2995 C2991 1.429 . S
C2995 C2996 1.523 . S
C2996 C2980 1.368 . S
C2996 C2992 1.368 . S
C2996 C2995 1.523 . S
H2997 C2972 0.950 . S
H2998 C2974 0.950 . S
H2999 C2975 0.949 1_655 S
H3000 C2977 0.950 1_655 S
H3001 C2979 0.950 1_655 S
C3002 C3003 1.349 . S
C3002 C3004 1.327 . S
C3002 H3027 0.950 . S
C3003 C3002 1.349 . S
C3003 C3019 1.349 . S
C3004 C3002 1.327 . S
C3004 C3023 1.429 . S
C3004 H3028 0.950 . S
C3005 C3022 1.574 . S
C3005 C3024 1.368 . S
C3005 H3029 0.949 . S
H3006 C3010 0.949 . S
C3007 C3008 1.349 . S
C3007 C3009 1.327 . S
C3007 H3030 0.950 . S
C3008 C3007 1.349 . S
C3008 C3020 1.349 . S
C3009 C3007 1.327 . S
C3009 C3025 1.429 . S
C3009 H3031 0.950 . S
C3010 H3006 0.949 . S
C3010 C3018 1.574 . S
C3010 C3026 1.368 . S
H3011 C3019 0.950 . S
H3012 C3017 0.950 . S
H3013 C3018 0.949 . S
H3014 C3020 0.950 . S
H3015 C3021 0.950 . S
H3016 C3022 0.949 . S
C3017 H3012 0.950 . S
C3017 C3019 1.327 . S
C3017 C3023 1.429 . S
C3018 C3010 1.574 . S
C3018 H3013 0.949 . S
C3018 C3024 1.368 . S
C3019 C3003 1.349 . S
C3019 H3011 0.950 . S
C3019 C3017 1.327 . S
C3020 C3008 1.349 . S
C3020 H3014 0.950 . S
C3020 C3021 1.327 . S
C3021 H3015 0.950 . S
C3021 C3020 1.327 . S
C3021 C3025 1.429 . S
C3022 C3005 1.574 . S
C3022 H3016 0.949 . S
C3022 C3026 1.368 . S
C3023 C3004 1.429 . S
C3023 C3017 1.429 . S
C3023 C3024 1.523 . S
C3024 C3005 1.368 . S
C3024 C3018 1.368 . S
C3024 C3023 1.523 . S
C3025 C3009 1.429 . S
C3025 C3021 1.429 . S
C3025 C3026 1.523 . S
C3026 C3010 1.368 . S
C3026 C3022 1.368 . S
C3026 C3025 1.523 . S
H3027 C3002 0.950 . S
H3028 C3004 0.950 . S
H3029 C3005 0.949 . S
H3030 C3007 0.950 . S
H3031 C3009 0.950 . S
C3032 C3033 1.349 . S
C3032 C3034 1.327 . S
C3032 H3057 0.950 . S
C3033 C3032 1.349 . S
C3033 C3049 1.349 . S
C3034 C3032 1.327 . S
C3034 C3053 1.429 . S
C3034 H3058 0.950 . S
C3035 C3052 1.574 . S
C3035 C3054 1.368 . S
C3035 H3059 0.949 . S
H3036 C3040 0.949 . S
C3037 C3038 1.349 . S
C3037 C3039 1.327 . S
C3037 H3060 0.950 . S
C3038 C3037 1.349 . S
C3038 C3050 1.349 . S
C3039 C3037 1.327 . S
C3039 C3055 1.429 . S
C3039 H3061 0.950 . S
C3040 H3036 0.949 . S
C3040 C3048 1.574 . S
C3040 C3056 1.368 . S
H3041 C3049 0.950 . S
H3042 C3047 0.950 . S
H3043 C3048 0.949 . S
H3044 C3050 0.950 . S
H3045 C3051 0.950 . S
H3046 C3052 0.949 . S
C3047 H3042 0.950 . S
C3047 C3049 1.327 . S
C3047 C3053 1.429 . S
C3048 C3040 1.574 . S
C3048 H3043 0.949 . S
C3048 C3054 1.368 . S
C3049 C3033 1.349 . S
C3049 H3041 0.950 . S
C3049 C3047 1.327 . S
C3050 C3038 1.349 . S
C3050 H3044 0.950 . S
C3050 C3051 1.327 . S
C3051 H3045 0.950 . S
C3051 C3050 1.327 . S
C3051 C3055 1.429 . S
C3052 C3035 1.574 . S
C3052 H3046 0.949 . S
C3052 C3056 1.368 . S
C3053 C3034 1.429 . S
C3053 C3047 1.429 . S
C3053 C3054 1.523 . S
C3054 C3035 1.368 . S
C3054 C3048 1.368 . S
C3054 C3053 1.523 . S
C3055 C3039 1.429 . S
C3055 C3051 1.429 . S
C3055 C3056 1.523 . S
C3056 C3040 1.368 . S
C3056 C3052 1.368 . S
C3056 C3055 1.523 . S
H3057 C3032 0.950 . S
H3058 C3034 0.950 . S
H3059 C3035 0.949 . S
H3060 C3037 0.950 . S
H3061 C3039 0.950 . S
C3062 C3063 1.349 . S
C3062 C3064 1.327 . S
C3062 H3087 0.950 . S
C3063 C3062 1.349 . S
C3063 C3079 1.349 . S
C3064 C3062 1.327 . S
C3064 C3083 1.429 . S
C3064 H3088 0.950 . S
C3065 C3082 1.574 . S
C3065 C3084 1.368 . S
C3065 H3089 0.949 . S
H3066 C3070 0.949 . S
C3067 C3068 1.349 . S
C3067 C3069 1.327 . S
C3067 H3090 0.950 . S
C3068 C3067 1.349 . S
C3068 C3080 1.349 . S
C3069 C3067 1.327 . S
C3069 C3085 1.429 . S
C3069 H3091 0.950 . S
C3070 H3066 0.949 . S
C3070 C3078 1.574 . S
C3070 C3086 1.368 . S
H3071 C3079 0.950 . S
H3072 C3077 0.950 . S
H3073 C3078 0.949 . S
H3074 C3080 0.950 . S
H3075 C3081 0.950 . S
H3076 C3082 0.949 . S
C3077 H3072 0.950 . S
C3077 C3079 1.327 . S
C3077 C3083 1.429 . S
C3078 C3070 1.574 . S
C3078 H3073 0.949 . S
C3078 C3084 1.368 . S
C3079 C3063 1.349 . S
C3079 H3071 0.950 . S
C3079 C3077 1.327 . S
C3080 C3068 1.349 . S
C3080 H3074 0.950 . S
C3080 C3081 1.327 . S
C3081 H3075 0.950 . S
C3081 C3080 1.327 . S
C3081 C3085 1.429 . S
C3082 C3065 1.574 . S
C3082 H3076 0.949 . S
C3082 C3086 1.368 . S
C3083 C3064 1.429 . S
C3083 C3077 1.429 . S
C3083 C3084 1.523 . S
C3084 C3065 1.368 . S
C3084 C3078 1.368 . S
C3084 C3083 1.523 . S
C3085 C3069 1.429 . S
C3085 C3081 1.429 . S
C3085 C3086 1.523 . S
C3086 C3070 1.368 . S
C3086 C3082 1.368 . S
C3086 C3085 1.523 . S
H3087 C3062 0.950 . S
H3088 C3064 0.950 . S
H3089 C3065 0.949 . S
H3090 C3067 0.950 . S
H3091 C3069 0.950 . S
C3092 C3093 1.349 . S
C3092 C3094 1.327 . S
C3092 H3117 0.950 . S
C3093 C3092 1.349 . S
C3093 C3109 1.349 . S
C3094 C3092 1.327 . S
C3094 C3113 1.429 . S
C3094 H3118 0.950 . S
C3095 C3112 1.574 . S
C3095 C3114 1.368 . S
C3095 H3119 0.949 . S
H3096 C3100 0.949 . S
C3097 C3098 1.349 . S
C3097 C3099 1.327 . S
C3097 H3120 0.950 . S
C3098 C3097 1.349 . S
C3098 C3110 1.349 . S
C3099 C3097 1.327 . S
C3099 C3115 1.429 . S
C3099 H3121 0.950 . S
C3100 H3096 0.949 . S
C3100 C3108 1.574 . S
C3100 C3116 1.368 . S
H3101 C3109 0.950 . S
H3102 C3107 0.950 . S
H3103 C3108 0.949 . S
H3104 C3110 0.950 1_455 S
H3105 C3111 0.950 . S
H3106 C3112 0.949 . S
C3107 H3102 0.950 . S
C3107 C3109 1.327 . S
C3107 C3113 1.429 . S
C3108 C3100 1.574 . S
C3108 H3103 0.949 . S
C3108 C3114 1.368 . S
C3109 C3093 1.349 . S
C3109 H3101 0.950 . S
C3109 C3107 1.327 . S
C3110 C3098 1.349 . S
C3110 H3104 0.950 1_655 S
C3110 C3111 1.327 . S
C3111 H3105 0.950 . S
C3111 C3110 1.327 . S
C3111 C3115 1.429 . S
C3112 C3095 1.574 . S
C3112 H3106 0.949 . S
C3112 C3116 1.368 . S
C3113 C3094 1.429 . S
C3113 C3107 1.429 . S
C3113 C3114 1.523 . S
C3114 C3095 1.368 . S
C3114 C3108 1.368 . S
C3114 C3113 1.523 . S
C3115 C3099 1.429 . S
C3115 C3111 1.429 . S
C3115 C3116 1.523 . S
C3116 C3100 1.368 . S
C3116 C3112 1.368 . S
C3116 C3115 1.523 . S
H3117 C3092 0.950 . S
H3118 C3094 0.950 . S
H3119 C3095 0.949 . S
H3120 C3097 0.950 . S
H3121 C3099 0.950 . S
C3122 C3123 1.349 . S
C3122 C3124 1.327 . S
C3122 H3147 0.950 . S
C3123 C3122 1.349 . S
C3123 C3139 1.349 . S
C3124 C3122 1.327 . S
C3124 C3143 1.429 . S
C3124 H3148 0.950 . S
C3125 C3142 1.574 . S
C3125 C3144 1.368 . S
C3125 H3149 0.949 . S
H3126 C3130 0.949 . S
C3127 C3128 1.349 . S
C3127 C3129 1.327 . S
C3127 H3150 0.950 . S
C3128 C3127 1.349 . S
C3128 C3140 1.349 . S
C3129 C3127 1.327 . S
C3129 C3145 1.429 . S
C3129 H3151 0.950 . S
C3130 H3126 0.949 . S
C3130 C3138 1.574 . S
C3130 C3146 1.368 . S
H3131 C3139 0.950 . S
H3132 C3137 0.950 . S
H3133 C3138 0.949 . S
H3134 C3140 0.950 . S
H3135 C3141 0.950 . S
H3136 C3142 0.949 . S
C3137 H3132 0.950 . S
C3137 C3139 1.327 . S
C3137 C3143 1.429 . S
C3138 C3130 1.574 . S
C3138 H3133 0.949 . S
C3138 C3144 1.368 . S
C3139 C3123 1.349 . S
C3139 H3131 0.950 . S
C3139 C3137 1.327 . S
C3140 C3128 1.349 . S
C3140 H3134 0.950 . S
C3140 C3141 1.327 . S
C3141 H3135 0.950 . S
C3141 C3140 1.327 . S
C3141 C3145 1.429 . S
C3142 C3125 1.574 . S
C3142 H3136 0.949 . S
C3142 C3146 1.368 . S
C3143 C3124 1.429 . S
C3143 C3137 1.429 . S
C3143 C3144 1.523 . S
C3144 C3125 1.368 . S
C3144 C3138 1.368 . S
C3144 C3143 1.523 . S
C3145 C3129 1.429 . S
C3145 C3141 1.429 . S
C3145 C3146 1.523 . S
C3146 C3130 1.368 . S
C3146 C3142 1.368 . S
C3146 C3145 1.523 . S
H3147 C3122 0.950 . S
H3148 C3124 0.950 . S
H3149 C3125 0.949 . S
H3150 C3127 0.950 . S
H3151 C3129 0.950 . S
C3152 C3153 1.349 . S
C3152 C3154 1.327 . S
C3152 H3177 0.950 . S
C3153 C3152 1.349 . S
C3153 C3169 1.349 . S
C3154 C3152 1.327 . S
C3154 C3173 1.429 . S
C3154 H3178 0.950 . S
C3155 C3172 1.574 . S
C3155 C3174 1.368 . S
C3155 H3179 0.949 . S
H3156 C3160 0.949 . S
C3157 C3158 1.349 . S
C3157 C3159 1.327 . S
C3157 H3180 0.950 . S
C3158 C3157 1.349 . S
C3158 C3170 1.349 . S
C3159 C3157 1.327 . S
C3159 C3175 1.429 . S
C3159 H3181 0.950 . S
C3160 H3156 0.949 . S
C3160 C3168 1.574 . S
C3160 C3176 1.368 . S
H3161 C3169 0.950 . S
H3162 C3167 0.950 . S
H3163 C3168 0.949 . S
H3164 C3170 0.950 . S
H3165 C3171 0.950 . S
H3166 C3172 0.949 . S
C3167 H3162 0.950 . S
C3167 C3169 1.327 . S
C3167 C3173 1.429 . S
C3168 C3160 1.574 . S
C3168 H3163 0.949 . S
C3168 C3174 1.368 . S
C3169 C3153 1.349 . S
C3169 H3161 0.950 . S
C3169 C3167 1.327 . S
C3170 C3158 1.349 . S
C3170 H3164 0.950 . S
C3170 C3171 1.327 . S
C3171 H3165 0.950 . S
C3171 C3170 1.327 . S
C3171 C3175 1.429 . S
C3172 C3155 1.574 . S
C3172 H3166 0.949 . S
C3172 C3176 1.368 . S
C3173 C3154 1.429 . S
C3173 C3167 1.429 . S
C3173 C3174 1.523 . S
C3174 C3155 1.368 . S
C3174 C3168 1.368 . S
C3174 C3173 1.523 . S
C3175 C3159 1.429 . S
C3175 C3171 1.429 . S
C3175 C3176 1.523 . S
C3176 C3160 1.368 . S
C3176 C3172 1.368 . S
C3176 C3175 1.523 . S
H3177 C3152 0.950 . S
H3178 C3154 0.950 . S
H3179 C3155 0.949 . S
H3180 C3157 0.950 . S
H3181 C3159 0.950 . S
C3182 C3183 1.349 . S
C3182 C3184 1.327 . S
C3182 H3207 0.950 . S
C3183 C3182 1.349 . S
C3183 C3199 1.349 . S
C3184 C3182 1.327 . S
C3184 C3203 1.429 . S
C3184 H3208 0.950 . S
C3185 C3202 1.574 . S
C3185 C3204 1.368 . S
C3185 H3209 0.949 . S
H3186 C3190 0.949 . S
C3187 C3188 1.349 . S
C3187 C3189 1.327 . S
C3187 H3210 0.950 . S
C3188 C3187 1.349 . S
C3188 C3200 1.349 . S
C3189 C3187 1.327 . S
C3189 C3205 1.429 . S
C3189 H3211 0.950 . S
C3190 H3186 0.949 . S
C3190 C3198 1.574 . S
C3190 C3206 1.368 . S
H3191 C3199 0.950 . S
H3192 C3197 0.950 . S
H3193 C3198 0.949 . S
H3194 C3200 0.950 . S
H3195 C3201 0.950 . S
H3196 C3202 0.949 . S
C3197 H3192 0.950 . S
C3197 C3199 1.327 . S
C3197 C3203 1.429 . S
C3198 C3190 1.574 . S
C3198 H3193 0.949 . S
C3198 C3204 1.368 . S
C3199 C3183 1.349 . S
C3199 H3191 0.950 . S
C3199 C3197 1.327 . S
C3200 C3188 1.349 . S
C3200 H3194 0.950 . S
C3200 C3201 1.327 . S
C3201 H3195 0.950 . S
C3201 C3200 1.327 . S
C3201 C3205 1.429 . S
C3202 C3185 1.574 . S
C3202 H3196 0.949 . S
C3202 C3206 1.368 . S
C3203 C3184 1.429 . S
C3203 C3197 1.429 . S
C3203 C3204 1.523 . S
C3204 C3185 1.368 . S
C3204 C3198 1.368 . S
C3204 C3203 1.523 . S
C3205 C3189 1.429 . S
C3205 C3201 1.429 . S
C3205 C3206 1.523 . S
C3206 C3190 1.368 . S
C3206 C3202 1.368 . S
C3206 C3205 1.523 . S
H3207 C3182 0.950 . S
H3208 C3184 0.950 . S
H3209 C3185 0.949 . S
H3210 C3187 0.950 . S
H3211 C3189 0.950 . S
C3212 C3213 1.349 . S
C3212 C3214 1.327 . S
C3212 H3237 0.950 . S
C3213 C3212 1.349 . S
C3213 C3229 1.349 . S
C3214 C3212 1.327 . S
C3214 C3233 1.429 . S
C3214 H3238 0.950 . S
C3215 C3232 1.574 . S
C3215 C3234 1.368 . S
C3215 H3239 0.949 . S
H3216 C3220 0.949 . S
C3217 C3218 1.349 . S
C3217 C3219 1.327 . S
C3217 H3240 0.950 . S
C3218 C3217 1.349 . S
C3218 C3230 1.349 . S
C3219 C3217 1.327 . S
C3219 C3235 1.429 . S
C3219 H3241 0.950 . S
C3220 H3216 0.949 . S
C3220 C3228 1.574 . S
C3220 C3236 1.368 . S
H3221 C3229 0.950 . S
H3222 C3227 0.950 . S
H3223 C3228 0.949 . S
H3224 C3230 0.950 . S
H3225 C3231 0.950 . S
H3226 C3232 0.949 . S
C3227 H3222 0.950 . S
C3227 C3229 1.327 . S
C3227 C3233 1.429 . S
C3228 C3220 1.574 . S
C3228 H3223 0.949 . S
C3228 C3234 1.368 . S
C3229 C3213 1.349 . S
C3229 H3221 0.950 . S
C3229 C3227 1.327 . S
C3230 C3218 1.349 . S
C3230 H3224 0.950 . S
C3230 C3231 1.327 . S
C3231 H3225 0.950 . S
C3231 C3230 1.327 . S
C3231 C3235 1.429 . S
C3232 C3215 1.574 . S
C3232 H3226 0.949 . S
C3232 C3236 1.368 . S
C3233 C3214 1.429 . S
C3233 C3227 1.429 . S
C3233 C3234 1.523 . S
C3234 C3215 1.368 . S
C3234 C3228 1.368 . S
C3234 C3233 1.523 . S
C3235 C3219 1.429 . S
C3235 C3231 1.429 . S
C3235 C3236 1.523 . S
C3236 C3220 1.368 . S
C3236 C3232 1.368 . S
C3236 C3235 1.523 . S
H3237 C3212 0.950 . S
H3238 C3214 0.950 . S
H3239 C3215 0.949 . S
H3240 C3217 0.950 . S
H3241 C3219 0.950 . S
C3242 C3243 1.349 . S
C3242 C3244 1.327 . S
C3242 H3267 0.950 . S
C3243 C3242 1.349 . S
C3243 C3259 1.349 . S
C3244 C3242 1.327 . S
C3244 C3263 1.429 . S
C3244 H3268 0.950 . S
C3245 C3262 1.574 . S
C3245 C3264 1.368 . S
C3245 H3269 0.949 . S
H3246 C3250 0.949 . S
C3247 C3248 1.349 . S
C3247 C3249 1.327 . S
C3247 H3270 0.950 . S
C3248 C3247 1.349 . S
C3248 C3260 1.349 . S
C3249 C3247 1.327 . S
C3249 C3265 1.429 . S
C3249 H3271 0.950 . S
C3250 H3246 0.949 . S
C3250 C3258 1.574 . S
C3250 C3266 1.368 . S
H3251 C3259 0.950 . S
H3252 C3257 0.950 . S
H3253 C3258 0.949 . S
H3254 C3260 0.950 . S
H3255 C3261 0.950 . S
H3256 C3262 0.949 . S
C3257 H3252 0.950 . S
C3257 C3259 1.327 . S
C3257 C3263 1.429 . S
C3258 C3250 1.574 . S
C3258 H3253 0.949 . S
C3258 C3264 1.368 . S
C3259 C3243 1.349 . S
C3259 H3251 0.950 . S
C3259 C3257 1.327 . S
C3260 C3248 1.349 . S
C3260 H3254 0.950 . S
C3260 C3261 1.327 . S
C3261 H3255 0.950 . S
C3261 C3260 1.327 . S
C3261 C3265 1.429 . S
C3262 C3245 1.574 . S
C3262 H3256 0.949 . S
C3262 C3266 1.368 . S
C3263 C3244 1.429 . S
C3263 C3257 1.429 . S
C3263 C3264 1.523 . S
C3264 C3245 1.368 . S
C3264 C3258 1.368 . S
C3264 C3263 1.523 . S
C3265 C3249 1.429 . S
C3265 C3261 1.429 . S
C3265 C3266 1.523 . S
C3266 C3250 1.368 . S
C3266 C3262 1.368 . S
C3266 C3265 1.523 . S
H3267 C3242 0.950 . S
H3268 C3244 0.950 . S
H3269 C3245 0.949 . S
H3270 C3247 0.950 . S
H3271 C3249 0.950 . S
C3272 C3273 1.349 . S
C3272 C3274 1.327 . S
C3272 H3297 0.950 . S
C3273 C3272 1.349 . S
C3273 C3289 1.349 . S
C3274 C3272 1.327 . S
C3274 C3293 1.429 . S
C3274 H3298 0.950 . S
C3275 C3292 1.574 . S
C3275 C3294 1.368 . S
C3275 H3299 0.949 . S
H3276 C3280 0.949 . S
C3277 C3278 1.349 . S
C3277 C3279 1.327 . S
C3277 H3300 0.950 . S
C3278 C3277 1.349 . S
C3278 C3290 1.349 . S
C3279 C3277 1.327 . S
C3279 C3295 1.429 . S
C3279 H3301 0.950 . S
C3280 H3276 0.949 . S
C3280 C3288 1.574 . S
C3280 C3296 1.368 . S
H3281 C3289 0.950 . S
H3282 C3287 0.950 . S
H3283 C3288 0.949 . S
H3284 C3290 0.950 . S
H3285 C3291 0.950 . S
H3286 C3292 0.949 . S
C3287 H3282 0.950 . S
C3287 C3289 1.327 . S
C3287 C3293 1.429 . S
C3288 C3280 1.574 . S
C3288 H3283 0.949 . S
C3288 C3294 1.368 . S
C3289 C3273 1.349 . S
C3289 H3281 0.950 . S
C3289 C3287 1.327 . S
C3290 C3278 1.349 . S
C3290 H3284 0.950 . S
C3290 C3291 1.327 . S
C3291 H3285 0.950 . S
C3291 C3290 1.327 . S
C3291 C3295 1.429 . S
C3292 C3275 1.574 . S
C3292 H3286 0.949 . S
C3292 C3296 1.368 . S
C3293 C3274 1.429 . S
C3293 C3287 1.429 . S
C3293 C3294 1.523 . S
C3294 C3275 1.368 . S
C3294 C3288 1.368 . S
C3294 C3293 1.523 . S
C3295 C3279 1.429 . S
C3295 C3291 1.429 . S
C3295 C3296 1.523 . S
C3296 C3280 1.368 . S
C3296 C3292 1.368 . S
C3296 C3295 1.523 . S
H3297 C3272 0.950 . S
H3298 C3274 0.950 . S
H3299 C3275 0.949 . S
H3300 C3277 0.950 . S
H3301 C3279 0.950 . S
C3302 C3303 1.349 . S
C3302 C3304 1.327 . S
C3302 H3327 0.950 . S
C3303 C3302 1.349 . S
C3303 C3319 1.349 . S
C3304 C3302 1.327 . S
C3304 C3323 1.429 . S
C3304 H3328 0.950 . S
C3305 C3322 1.574 . S
C3305 C3324 1.368 . S
C3305 H3329 0.949 . S
H3306 C3310 0.949 . S
C3307 C3308 1.349 . S
C3307 C3309 1.327 1_545 S
C3307 H3330 0.950 . S
C3308 C3307 1.349 . S
C3308 C3320 1.349 1_545 S
C3309 C3307 1.327 1_565 S
C3309 C3325 1.429 . S
C3309 H3331 0.962 . S
C3310 H3306 0.949 . S
C3310 C3318 1.574 . S
C3310 C3326 1.368 . S
H3311 C3319 0.950 . S
H3312 C3317 0.950 . S
H3313 C3318 0.949 . S
H3314 C3320 0.950 . S
H3315 C3321 0.950 . S
H3316 C3322 0.949 . S
C3317 H3312 0.950 . S
C3317 C3319 1.327 . S
C3317 C3323 1.429 . S
C3318 C3310 1.574 . S
C3318 H3313 0.949 . S
C3318 C3324 1.368 . S
C3319 C3303 1.349 . S
C3319 H3311 0.950 . S
C3319 C3317 1.327 . S
C3320 C3308 1.349 1_565 S
C3320 H3314 0.950 . S
C3320 C3321 1.327 . S
C3321 H3315 0.950 . S
C3321 C3320 1.327 . S
C3321 C3325 1.429 . S
C3322 C3305 1.574 . S
C3322 H3316 0.949 . S
C3322 C3326 1.368 . S
C3323 C3304 1.429 . S
C3323 C3317 1.429 . S
C3323 C3324 1.523 . S
C3324 C3305 1.368 . S
C3324 C3318 1.368 . S
C3324 C3323 1.523 . S
C3325 C3309 1.429 . S
C3325 C3321 1.429 . S
C3325 C3326 1.523 . S
C3326 C3310 1.368 . S
C3326 C3322 1.368 . S
C3326 C3325 1.523 . S
H3327 C3302 0.950 . S
H3328 C3304 0.950 . S
H3329 C3305 0.949 . S
H3330 C3307 0.950 . S
H3331 C3309 0.962 . S
C3332 C3333 1.349 . S
C3332 C3334 1.327 . S
C3332 H3357 0.950 . S
C3333 C3332 1.349 . S
C3333 C3349 1.349 . S
C3334 C3332 1.327 . S
C3334 C3353 1.429 . S
C3334 H3358 0.950 . S
C3335 C3352 1.574 . S
C3335 C3354 1.368 . S
C3335 H3359 0.949 . S
H3336 C3340 0.949 . S
C3337 C3338 1.349 . S
C3337 C3339 1.327 . S
C3337 H3360 0.950 . S
C3338 C3337 1.349 . S
C3338 C3350 1.349 . S
C3339 C3337 1.327 . S
C3339 C3355 1.429 . S
C3339 H3361 0.950 . S
C3340 H3336 0.949 . S
C3340 C3348 1.574 . S
C3340 C3356 1.368 . S
H3341 C3349 0.950 . S
H3342 C3347 0.950 . S
H3343 C3348 0.949 . S
H3344 C3350 0.950 . S
H3345 C3351 0.950 . S
H3346 C3352 0.949 . S
C3347 H3342 0.950 . S
C3347 C3349 1.327 . S
C3347 C3353 1.429 . S
C3348 C3340 1.574 . S
C3348 H3343 0.949 . S
C3348 C3354 1.368 . S
C3349 C3333 1.349 . S
C3349 H3341 0.950 . S
C3349 C3347 1.327 . S
C3350 C3338 1.349 . S
C3350 H3344 0.950 . S
C3350 C3351 1.327 . S
C3351 H3345 0.950 . S
C3351 C3350 1.327 . S
C3351 C3355 1.429 . S
C3352 C3335 1.574 . S
C3352 H3346 0.949 . S
C3352 C3356 1.368 . S
C3353 C3334 1.429 . S
C3353 C3347 1.429 . S
C3353 C3354 1.523 . S
C3354 C3335 1.368 . S
C3354 C3348 1.368 . S
C3354 C3353 1.523 . S
C3355 C3339 1.429 . S
C3355 C3351 1.429 . S
C3355 C3356 1.523 . S
C3356 C3340 1.368 . S
C3356 C3352 1.368 . S
C3356 C3355 1.523 . S
H3357 C3332 0.950 . S
H3358 C3334 0.950 . S
H3359 C3335 0.949 . S
H3360 C3337 0.950 . S
H3361 C3339 0.950 . S
C3362 C3363 1.349 1_554 S
C3362 C3364 1.327 . S
C3362 H3387 0.950 . S
C3363 C3362 1.349 1_556 S
C3363 C3379 1.349 . S
C3364 C3362 1.327 . S
C3364 C3383 1.429 . S
C3364 H3388 0.950 . S
C3365 C3382 1.574 . S
C3365 C3384 1.368 1_556 S
C3365 H3389 0.949 . S
H3366 C3370 0.949 . S
C3367 C3368 1.349 . S
C3367 C3369 1.327 . S
C3367 H3390 0.950 1_554 S
C3368 C3367 1.349 . S
C3368 C3380 1.349 . S
C3369 C3367 1.327 . S
C3369 C3385 1.429 . S
C3369 H3391 0.950 1_554 S
C3370 H3366 0.949 . S
C3370 C3378 1.574 . S
C3370 C3386 1.368 . S
H3371 C3379 0.950 . S
H3372 C3377 0.950 . S
H3373 C3378 0.949 . S
H3374 C3380 0.950 . S
H3375 C3381 0.950 . S
H3376 C3382 0.949 . S
C3377 H3372 0.950 . S
C3377 C3379 1.327 . S
C3377 C3383 1.429 1_556 S
C3378 C3370 1.574 . S
C3378 H3373 0.949 . S
C3378 C3384 1.368 . S
C3379 C3363 1.349 . S
C3379 H3371 0.950 . S
C3379 C3377 1.327 . S
C3380 C3368 1.349 . S
C3380 H3374 0.950 . S
C3380 C3381 1.327 . S
C3381 H3375 0.950 . S
C3381 C3380 1.327 . S
C3381 C3385 1.429 . S
C3382 C3365 1.574 . S
C3382 H3376 0.949 . S
C3382 C3386 1.368 1_556 S
C3383 C3364 1.429 . S
C3383 C3377 1.429 1_554 S
C3383 C3384 1.523 . S
C3384 C3365 1.368 1_554 S
C3384 C3378 1.368 . S
C3384 C3383 1.523 . S
C3385 C3369 1.429 . S
C3385 C3381 1.429 . S
C3385 C3386 1.523 . S
C3386 C3370 1.368 . S
C3386 C3382 1.368 1_554 S
C3386 C3385 1.523 . S
H3387 C3362 0.950 . S
H3388 C3364 0.950 . S
H3389 C3365 0.949 . S
H3390 C3367 0.950 1_556 S
H3391 C3369 0.950 1_556 S
C3392 C3393 1.349 . S
C3392 C3394 1.327 . S
C3392 H3417 0.950 . S
C3393 C3392 1.349 . S
C3393 C3409 1.349 . S
C3394 C3392 1.327 . S
C3394 C3413 1.429 . S
C3394 H3418 0.950 . S
C3395 C3412 1.574 . S
C3395 C3414 1.368 . S
C3395 H3419 0.949 . S
H3396 C3400 0.949 . S
C3397 C3398 1.349 . S
C3397 C3399 1.327 . S
C3397 H3420 0.950 . S
C3398 C3397 1.349 . S
C3398 C3410 1.349 . S
C3399 C3397 1.327 . S
C3399 C3415 1.429 . S
C3399 H3421 0.950 . S
C3400 H3396 0.949 . S
C3400 C3408 1.574 . S
C3400 C3416 1.368 . S
H3401 C3409 0.950 . S
H3402 C3407 0.950 . S
H3403 C3408 0.949 . S
H3404 C3410 0.950 . S
H3405 C3411 0.950 . S
H3406 C3412 0.949 . S
C3407 H3402 0.950 . S
C3407 C3409 1.327 . S
C3407 C3413 1.429 . S
C3408 C3400 1.574 . S
C3408 H3403 0.949 . S
C3408 C3414 1.368 . S
C3409 C3393 1.349 . S
C3409 H3401 0.950 . S
C3409 C3407 1.327 . S
C3410 C3398 1.349 . S
C3410 H3404 0.950 . S
C3410 C3411 1.327 . S
C3411 H3405 0.950 . S
C3411 C3410 1.327 . S
C3411 C3415 1.429 . S
C3412 C3395 1.574 . S
C3412 H3406 0.949 . S
C3412 C3416 1.368 . S
C3413 C3394 1.429 . S
C3413 C3407 1.429 . S
C3413 C3414 1.523 . S
C3414 C3395 1.368 . S
C3414 C3408 1.368 . S
C3414 C3413 1.523 . S
C3415 C3399 1.429 . S
C3415 C3411 1.429 . S
C3415 C3416 1.523 . S
C3416 C3400 1.368 . S
C3416 C3412 1.368 . S
C3416 C3415 1.523 . S
H3417 C3392 0.950 . S
H3418 C3394 0.950 . S
H3419 C3395 0.949 . S
H3420 C3397 0.950 . S
H3421 C3399 0.950 . S
C3422 C3423 1.349 . S
C3422 C3424 1.327 . S
C3422 H3447 0.950 . S
C3423 C3422 1.349 . S
C3423 C3439 1.349 1_554 S
C3424 C3422 1.327 . S
C3424 C3443 1.429 . S
C3424 H3448 0.950 . S
C3425 C3442 1.574 . S
C3425 C3444 1.368 1_556 S
C3425 H3449 0.949 . S
H3426 C3430 0.949 . S
C3427 C3428 1.349 . S
C3427 C3429 1.327 . S
C3427 H3450 0.950 . S
C3428 C3427 1.349 . S
C3428 C3440 1.349 1_556 S
C3429 C3427 1.327 . S
C3429 C3445 1.429 . S
C3429 H3451 0.950 . S
C3430 H3426 0.949 . S
C3430 C3438 1.574 . S
C3430 C3446 1.390 . S
H3431 C3439 0.950 . S
H3432 C3437 0.950 . S
H3433 C3438 0.949 . S
H3434 C3440 0.950 . S
H3435 C3441 0.950 . S
H3436 C3442 0.949 . S
C3437 H3432 0.950 . S
C3437 C3439 1.327 . S
C3437 C3443 1.429 1_556 S
C3438 C3430 1.574 . S
C3438 H3433 0.949 . S
C3438 C3444 1.368 . S
C3439 C3423 1.349 1_556 S
C3439 H3431 0.950 . S
C3439 C3437 1.327 . S
C3440 C3428 1.349 1_554 S
C3440 H3434 0.950 . S
C3440 C3441 1.327 . S
C3441 H3435 0.950 . S
C3441 C3440 1.327 . S
C3441 C3445 1.429 1_554 S
C3442 C3425 1.574 . S
C3442 H3436 0.949 . S
C3442 C3446 1.349 1_556 S
C3443 C3424 1.429 . S
C3443 C3437 1.429 1_554 S
C3443 C3444 1.523 . S
C3444 C3425 1.368 1_554 S
C3444 C3438 1.368 . S
C3444 C3443 1.523 . S
C3445 C3429 1.429 . S
C3445 C3441 1.429 1_556 S
C3445 C3446 1.520 1_556 S
C3446 C3430 1.390 . S
C3446 C3442 1.349 1_554 S
C3446 C3445 1.520 1_554 S
H3447 C3422 0.950 . S
H3448 C3424 0.950 . S
H3449 C3425 0.949 . S
H3450 C3427 0.950 . S
H3451 C3429 0.950 . S
C3452 C3453 1.349 . S
C3452 C3454 1.327 . S
C3452 H3477 0.950 . S
C3453 C3452 1.349 . S
C3453 C3469 1.349 . S
C3454 C3452 1.327 . S
C3454 C3473 1.429 . S
C3454 H3478 0.950 . S
C3455 C3472 1.574 . S
C3455 C3474 1.368 . S
C3455 H3479 0.949 . S
H3456 C3460 0.949 . S
C3457 C3458 1.349 . S
C3457 C3459 1.327 . S
C3457 H3480 0.950 . S
C3458 C3457 1.349 . S
C3458 C3470 1.349 . S
C3459 C3457 1.327 . S
C3459 C3475 1.429 . S
C3459 H3481 0.950 . S
C3460 H3456 0.949 . S
C3460 C3468 1.574 . S
C3460 C3476 1.368 . S
H3461 C3469 0.950 . S
H3462 C3467 0.950 . S
H3463 C3468 0.949 . S
H3464 C3470 0.950 . S
H3465 C3471 0.950 . S
H3466 C3472 0.949 . S
C3467 H3462 0.950 . S
C3467 C3469 1.327 . S
C3467 C3473 1.429 . S
C3468 C3460 1.574 . S
C3468 H3463 0.949 . S
C3468 C3474 1.368 . S
C3469 C3453 1.349 . S
C3469 H3461 0.950 . S
C3469 C3467 1.327 . S
C3470 C3458 1.349 . S
C3470 H3464 0.950 . S
C3470 C3471 1.327 . S
C3471 H3465 0.950 . S
C3471 C3470 1.327 . S
C3471 C3475 1.429 . S
C3472 C3455 1.574 . S
C3472 H3466 0.949 . S
C3472 C3476 1.368 . S
C3473 C3454 1.429 . S
C3473 C3467 1.429 . S
C3473 C3474 1.523 . S
C3474 C3455 1.368 . S
C3474 C3468 1.368 . S
C3474 C3473 1.523 . S
C3475 C3459 1.429 . S
C3475 C3471 1.429 . S
C3475 C3476 1.523 . S
C3476 C3460 1.368 . S
C3476 C3472 1.368 . S
C3476 C3475 1.523 . S
H3477 C3452 0.950 . S
H3478 C3454 0.950 . S
H3479 C3455 0.949 . S
H3480 C3457 0.950 . S
H3481 C3459 0.950 . S
C3482 C3483 1.349 . S
C3482 C3484 1.327 . S
C3482 H3507 0.950 . S
C3483 C3482 1.349 . S
C3483 C3499 1.349 . S
C3484 C3482 1.327 . S
C3484 C3503 1.429 . S
C3484 H3508 0.950 . S
C3485 C3502 1.574 . S
C3485 C3504 1.368 . S
C3485 H3509 0.949 . S
H3486 C3490 0.949 . S
C3487 C3488 1.349 . S
C3487 C3489 1.327 . S
C3487 H3510 0.950 . S
C3488 C3487 1.349 . S
C3488 C3500 1.349 . S
C3489 C3487 1.327 . S
C3489 C3505 1.429 . S
C3489 H3511 0.950 . S
C3490 H3486 0.949 . S
C3490 C3498 1.574 . S
C3490 C3506 1.368 . S
H3491 C3499 0.950 . S
H3492 C3497 0.950 . S
H3493 C3498 0.949 . S
H3494 C3500 0.950 . S
H3495 C3501 0.950 . S
H3496 C3502 0.949 . S
C3497 H3492 0.950 . S
C3497 C3499 1.327 . S
C3497 C3503 1.429 . S
C3498 C3490 1.574 . S
C3498 H3493 0.949 . S
C3498 C3504 1.368 . S
C3499 C3483 1.349 . S
C3499 H3491 0.950 . S
C3499 C3497 1.327 . S
C3500 C3488 1.349 . S
C3500 H3494 0.950 . S
C3500 C3501 1.327 . S
C3501 H3495 0.950 . S
C3501 C3500 1.327 . S
C3501 C3505 1.429 . S
C3502 C3485 1.574 . S
C3502 H3496 0.949 . S
C3502 C3506 1.368 . S
C3503 C3484 1.429 . S
C3503 C3497 1.429 . S
C3503 C3504 1.523 . S
C3504 C3485 1.368 . S
C3504 C3498 1.368 . S
C3504 C3503 1.523 . S
C3505 C3489 1.429 . S
C3505 C3501 1.429 . S
C3505 C3506 1.523 . S
C3506 C3490 1.368 . S
C3506 C3502 1.368 . S
C3506 C3505 1.523 . S
H3507 C3482 0.950 . S
H3508 C3484 0.950 . S
H3509 C3485 0.949 . S
H3510 C3487 0.950 . S
H3511 C3489 0.950 . S
C633 C101 1.555 . S
C638 C330 1.521 1_556 S
C663 C57 1.542 . S
C668 C341 1.571 . S
C693 C73 0.888 . S
C698 C370 0.898 . S
C728 C373 1.400 . S
C723 C78 1.378 . S
C753 C21 1.628 . S
C758 C411 1.614 . S
C788 C414 0.808 . S
C783 C31 0.804 . S
C818 C441 1.436 . S
C813 C49 1.445 . S
C843 C0 1.543 . S
C848 C470 1.545 . S
C878 C321 1.473 1_655 S
C873 C218 1.481 . S
C903 C229 0.685 . S
C908 C333 0.678 . S
C938 C361 1.592 . S
C933 C257 1.605 . S
C968 C390 0.957 . S
C963 C164 0.933 . S
C993 C216 0.814 . S
C998 C394 0.830 . S
C1028 C420 1.619 . S
C1023 C231 1.643 . S
C1058 C433 0.603 . S
C1053 C255 0.618 . S
C1088 C461 1.526 . S
C1083 C166 1.543 . S
C1118 C313 1.477 1_565 S
C1113 C143 1.453 . S
C1143 C265 1.723 . S
C1148 C480 1.741 . S
C1178 C511 1.376 . S
C1173 C299 1.392 . S
C1208 C530 0.843 . S
C1203 C291 0.839 . S
C1233 C104 1.185 . S
C1238 C453 1.204 . S
C1263 C117 1.344 . S
C1268 C353 1.370 . S
C1293 C304 1.508 . S
C1298 C541 1.535 . S
C1328 C570 0.728 . S
C1323 C278 0.727 . S
C1358 C331 1.460 . S
C1353 C60 1.480 . S
C1388 C560 1.486 . S
C1383 C96 1.476 . S
C1413 C88 0.796 . S
C1418 C371 0.792 . S
C1443 C65 1.310 . S
C1448 C534 1.326 . S
C1478 C410 1.515 . S
C1473 C10 1.561 . S
C1503 C44 0.740 . S
C1508 C493 0.738 . S
C1538 C440 1.348 1_556 S
C1533 C34 1.309 . S
C1568 C591 1.480 . S
C1563 C13 1.502 . S
C1598 C320 1.410 . S
C1593 C138 1.371 1_565 S
C1628 C554 0.589 . S
C1623 C296 0.582 . S
C1653 C112 1.488 . S
C1658 C360 1.525 . S
C1683 C270 0.847 . S
C1688 C551 0.842 . S
C1713 C140 0.730 . S
C1718 C393 0.726 . S
C1748 C501 1.554 . S
C1743 C294 1.532 . S
C1773 C114 0.503 . S
C1778 C434 0.516 . S
C1803 C268 1.427 . S
C1808 C580 1.458 . S
C1833 C169 1.419 1_556 S
C1838 C314 1.428 . S
C1863 C161 1.663 . S
C1868 C481 1.668 . S
C1893 C234 1.366 . S
C1898 C430 1.322 . S
C1923 C226 0.728 . S
C1928 C531 0.727 . S
C1958 C574 1.149 . S
C1953 C247 1.151 . S
C1983 C195 1.319 . S
C1988 C354 1.316 1_565 S
C2018 C380 1.445 . S
C2013 C239 1.432 . S
C2048 C351 0.641 . S
C2043 C187 0.636 . S
C2073 C75 1.550 . S
C2078 C610 1.521 . S
C2108 C561 1.571 . S
C2103 C83 1.542 . S
C2133 C99 0.888 . S
C2138 C630 0.899 . S
C2163 C52 1.378 . S
C2168 C533 1.400 . S
C2193 C47 1.628 . S
C2198 C491 1.614 . S
C2228 C494 0.808 . S
C2223 C5 0.804 . S
C2258 C521 1.436 . S
C2253 C23 1.446 . S
C2288 C590 1.545 . S
C2283 C26 1.543 . S
C2318 C601 1.474 . S
C2313 C244 1.481 . S
C2343 C177 0.685 . S
C2348 C553 0.683 . S
C2378 C621 1.592 . S
C2373 C192 1.605 . S
C2408 C550 0.958 . S
C2403 C203 0.933 . S
C2438 C474 0.830 . S
C2433 C242 0.814 . S
C2463 C179 1.643 . S
C2468 C500 1.614 . S
C2498 C513 0.603 . S
C2493 C190 0.618 . S
C2523 C205 1.543 . S
C2528 C581 1.526 . S
C2558 C593 1.477 . S
C2553 C286 1.453 . S
C2583 C122 1.723 . S
C2588 C400 1.740 . S
C2618 C431 1.377 . S
C2613 C130 1.399 . S
C2648 C450 0.843 . S
C2643 C148 0.839 . S
C2678 C573 1.204 . S
C2673 C273 1.185 . S
C2703 C260 1.344 . S
C2708 C613 1.370 . S
C2738 C381 1.533 . S
C2733 C135 1.501 . S
C2768 C350 0.728 . S
C2763 C109 0.727 . S
C2793 C86 1.479 . S
C2798 C611 1.460 . S
C2828 C340 1.486 . S
C2823 C70 1.476 . S
C2853 C62 0.796 . S
C2858 C631 0.792 . S
C2883 C91 1.310 . S
C2888 C374 1.326 . S
C2913 C36 1.561 . S
C2918 C490 1.517 1_556 S
C2948 C413 0.738 . S
C2943 C18 0.739 . S
C2973 C8 1.310 . S
C2978 C520 1.348 . S
C3003 C39 1.502 . S
C3008 C471 1.480 . S
C3038 C600 1.410 . S
C3033 C307 1.378 . S
C3063 C153 0.582 . S
C3068 C334 0.589 . S
C3098 C620 1.525 1_655 S
C3093 C281 1.488 . S
C3123 C127 0.848 . S
C3128 C391 0.843 . S
C3153 C309 0.730 . S
C3158 C473 0.729 . S
C3188 C421 1.553 . S
C3183 C151 1.532 . S
C3213 C283 0.503 . S
C3218 C514 0.516 . S
C3248 C460 1.458 . S
C3243 C125 1.427 . S
C3278 C594 1.429 . S
C3273 C221 1.419 . S
C3308 C401 1.669 . S
C3303 C200 1.663 . S
C3333 C208 1.366 . S
C3338 C510 1.322 . S
C3368 C451 0.727 . S
C3363 C174 0.725 1_556 S
C3393 C182 1.151 . S
C3398 C454 1.149 . S
C3423 C156 1.319 . S
C3428 C614 1.316 . S
C3458 C540 1.446 . S
C3453 C213 1.433 1_565 S
C3488 C571 0.641 . S
C3483 C252 0.636 . S
