# Generated by pormake.
# Topology tsx, (6,3)-cn, num edge types: 1
# Building blocks:
#     Node 0, Type 0, BuildingBlock: CIFDUS_clean_sbu_1, # of connection points: 6
#     Node 1, Type 0, BuildingBlock: CIFDUS_clean_sbu_1, # of connection points: 6
#     Node 2, Type 1, BuildingBlock: OLANEW_clean_sbu_2, # of connection points: 3
#     Node 3, Type 1, BuildingBlock: OLANEW_clean_sbu_2, # of connection points: 3
#     Node 4, Type 1, BuildingBlock: OLANEW_clean_sbu_2, # of connection points: 3
#     Node 5, Type 1, BuildingBlock: OLANEW_clean_sbu_2, # of connection points: 3
#     Edge 6, Type (0, 1), BuildingBlock: EZIPEK_clean_linker_0, # of connection points: 2
#     Edge 7, Type (0, 1), BuildingBlock: EZIPEK_clean_linker_0, # of connection points: 2
#     Edge 8, Type (0, 1), BuildingBlock: EZIPEK_clean_linker_0, # of connection points: 2
#     Edge 9, Type (0, 1), BuildingBlock: EZIPEK_clean_linker_0, # of connection points: 2
#     Edge 10, Type (0, 1), BuildingBlock: EZIPEK_clean_linker_0, # of connection points: 2
#     Edge 11, Type (0, 1), BuildingBlock: EZIPEK_clean_linker_0, # of connection points: 2
#     Edge 12, Type (0, 1), BuildingBlock: EZIPEK_clean_linker_0, # of connection points: 2
#     Edge 13, Type (0, 1), BuildingBlock: EZIPEK_clean_linker_0, # of connection points: 2
#     Edge 14, Type (0, 1), BuildingBlock: EZIPEK_clean_linker_0, # of connection points: 2
#     Edge 15, Type (0, 1), BuildingBlock: EZIPEK_clean_linker_0, # of connection points: 2
#     Edge 16, Type (0, 1), BuildingBlock: EZIPEK_clean_linker_0, # of connection points: 2
#     Edge 17, Type (0, 1), BuildingBlock: EZIPEK_clean_linker_0, # of connection points: 2
# Relax obj value: 0.039
# Max RMSD: 0.095
# Mean RMSD: 0.049
data_MOF--net-tsx--node1-CIFDUS_clean_sbu_1--node2-OLANEW_clean_sbu_2--edge1-EZIPEK_clean_linker_0
_symmetry_space_group_name_H-M    P1
_symmetry_Int_Tables_number       1
_symmetry_cell_setting            triclinic
loop_
_symmetry_equiv_pos_as_xyz
'x, y, z'
_cell_length_a     15.283666
_cell_length_b     18.539414
_cell_length_c     25.593505
_cell_angle_alpha  102.84635
_cell_angle_beta   91.471268
_cell_angle_gamma 92.620306
loop_
_atom_site_label
_atom_site_type_symbol
_atom_site_fract_x
_atom_site_fract_y
_atom_site_fract_z
_atom_type_partial_charge
O0 O 0.98465 0.1431 0.03932 0.0
Mn1 Mn 0.04024 0.03866 0.02532 0.0
O2 O 0.84031 0.12091 0.02052 0.0
Mn3 Mn 0.85245 0.02934 0.97647 0.0
O4 O 0.09312 0.93529 0.00873 0.0
O5 O 0.15976 0.08967 0.03769 0.0
Mn6 Mn 0.22968 0.04209 0.07292 0.0
O7 O 0.0367 0.0428 0.10793 0.0
O8 O 0.23728 0.94824 0.02978 0.0
O9 O 0.0469 0.03784 0.94427 0.0
O10 O 0.90723 0.02966 0.9121 0.0
O11 O 0.29526 0.1232 0.06114 0.0
O12 O 0.17656 0.04518 0.13779 0.0
C13 C 0.86095 0.92884 0.00463 0.0
C14 C 0.90589 0.16488 0.03852 0.0
C15 C 0.16938 0.90962 0.00834 0.0
C16 C 0.22366 0.1376 0.03837 0.0
C17 C 0.09434 0.04568 0.14602 0.0
C18 C 0.98995 0.03426 0.90599 0.0
O19 O 0.92194 0.98177 0.01153 0.0
O20 O 0.78869 0.94568 0.98379 0.0
O21 O 0.47998 0.61456 0.526 0.0
Mn22 Mn 0.54625 0.51657 0.50813 0.0
O23 O 0.35909 0.59311 0.47044 0.0
Mn24 Mn 0.38043 0.49869 0.43221 0.0
O25 O 0.60969 0.41772 0.48845 0.0
O26 O 0.65746 0.573 0.53687 0.0
Mn27 Mn 0.72273 0.52576 0.57415 0.0
O28 O 0.52179 0.49643 0.5838 0.0
O29 O 0.74585 0.439 0.5258 0.0
O30 O 0.57529 0.53651 0.4328 0.0
O31 O 0.45795 0.49616 0.37755 0.0
O32 O 0.78308 0.61526 0.5739 0.0
O33 O 0.65256 0.5122 0.62968 0.0
C34 C 0.37137 0.41031 0.47421 0.0
C35 C 0.40822 0.6345 0.50734 0.0
C36 C 0.68768 0.39784 0.49498 0.0
C37 C 0.71635 0.6262 0.54516 0.0
C38 C 0.56994 0.4969 0.62598 0.0
C39 C 0.53748 0.52077 0.38595 0.0
O40 O 0.43474 0.45968 0.47956 0.0
O41 O 0.31138 0.41649 0.43919 0.0
O42 O 0.05098 0.89003 0.34224 0.0
Cd43 Cd 0.03075 0.86981 0.43247 0.0
O44 O 0.07364 0.00165 0.39156 0.0
Cd45 Cd 0.07852 0.11991 0.3991 0.0
O46 O 0.97517 0.19543 0.41773 0.0
C47 C 0.89805 0.16842 0.40371 0.0
O48 O 0.88582 0.09905 0.37763 0.0
C49 C 0.06465 0.95885 0.34544 0.0
C50 C 0.17994 0.83352 0.48263 0.0
O51 O 0.12586 0.78367 0.45524 0.0
O52 O 0.16444 0.90182 0.48657 0.0
O53 O 0.04859 0.08866 0.66821 0.0
Cd54 Cd 0.07096 0.08886 0.57411 0.0
O55 O 0.07089 0.96952 0.65116 0.0
Cd56 Cd 0.03279 0.95224 0.5663 0.0
O57 O 0.92513 0.88556 0.51804 0.0
C58 C 0.84737 0.89472 0.53394 0.0
O59 O 0.8362 0.94762 0.57647 0.0
C60 C 0.05971 0.02983 0.68472 0.0
C61 C 0.20452 0.18789 0.55718 0.0
O62 O 0.12522 0.2071 0.56283 0.0
O63 O 0.22204 0.12247 0.5615 0.0
O64 O 0.54859 0.35197 0.82842 0.0
Cd65 Cd 0.52691 0.32456 0.9167 0.0
O66 O 0.43413 0.41743 0.84907 0.0
Cd67 Cd 0.34526 0.49974 0.83611 0.0
O68 O 0.29025 0.60575 0.86582 0.0
C69 C 0.23436 0.61062 0.90209 0.0
O70 O 0.20577 0.55062 0.917 0.0
C71 C 0.49358 0.39555 0.81655 0.0
C72 C 0.67925 0.32805 0.97932 0.0
O73 O 0.6509 0.26923 0.94561 0.0
O74 O 0.63683 0.38689 0.98322 0.0
O75 O 0.69905 0.52333 0.15013 0.0
Cd76 Cd 0.71505 0.50677 0.05383 0.0
O77 O 0.55442 0.50767 0.14645 0.0
Cd78 Cd 0.52363 0.47616 0.06013 0.0
O79 O 0.42203 0.40255 0.01065 0.0
C80 C 0.3433 0.41106 0.02496 0.0
O81 O 0.32922 0.46678 0.06501 0.0
C82 C 0.62679 0.52116 0.17336 0.0
C83 C 0.7897 0.63569 0.03155 0.0
O84 O 0.70634 0.62506 0.03218 0.0
O85 O 0.83837 0.58491 0.04043 0.0
C86 C 0.18464 0.26953 0.05261 0.0
C87 C 0.21818 0.20637 0.01888 0.0
C88 C 0.29476 0.28559 0.96802 0.0
C89 C 0.27662 0.34754 0.00896 0.0
N90 N 0.16195 0.40079 0.06536 0.0
N91 N 0.28715 0.15104 0.93745 0.0
C92 C 0.20721 0.34047 0.04325 0.0
C93 C 0.26604 0.21347 0.9734 0.0
N94 N 0.13639 0.26228 0.09549 0.0
N95 N 0.338 0.29692 0.92435 0.0
H96 H 0.26306 0.09839 0.94013 0.0
H97 H 0.32706 0.15086 0.90514 0.0
H98 H 0.35307 0.35039 0.9193 0.0
H99 H 0.35274 0.25517 0.89185 0.0
H100 H 0.11856 0.30735 0.12472 0.0
H101 H 0.11803 0.21085 0.10315 0.0
H102 H 0.10663 0.39775 0.08789 0.0
H103 H 0.17292 0.4515 0.05464 0.0
C104 C 0.20182 0.78056 0.01288 0.0
C105 C 0.17858 0.83149 0.98176 0.0
C106 C 0.17257 0.73255 0.90042 0.0
C107 C 0.20848 0.68448 0.93041 0.0
N108 N 0.27012 0.66603 0.01428 0.0
N109 N 0.15038 0.85931 0.89526 0.0
C110 C 0.22587 0.70897 0.98655 0.0
C111 C 0.16559 0.80839 0.92532 0.0
N112 N 0.19911 0.80008 0.06755 0.0
N113 N 0.14319 0.70523 0.84856 0.0
H114 H 0.1454 0.91556 0.91196 0.0
H115 H 0.14984 0.84697 0.85352 0.0
H116 H 0.14601 0.64955 0.82936 0.0
H117 H 0.10842 0.73594 0.82638 0.0
H118 H 0.20626 0.76251 0.09198 0.0
H119 H 0.18123 0.85213 0.08818 0.0
H120 H 0.29275 0.68488 0.05394 0.0
H121 H 0.29171 0.61404 0.9966 0.0
C122 C 0.90231 0.82786 0.05293 0.0
C123 C 0.87213 0.84917 0.00611 0.0
C124 C 0.81191 0.72179 0.96979 0.0
C125 C 0.82825 0.70532 0.02056 0.0
N126 N 0.88762 0.74212 0.11142 0.0
N127 N 0.82827 0.80989 0.91274 0.0
C128 C 0.87488 0.75754 0.06202 0.0
C129 C 0.83608 0.79376 0.96219 0.0
N130 N 0.96031 0.87335 0.08744 0.0
N131 N 0.7705 0.66921 0.9296 0.0
H132 H 0.84849 0.86133 0.90594 0.0
H133 H 0.80916 0.77156 0.87765 0.0
H134 H 0.75746 0.61465 0.9328 0.0
H135 H 0.74657 0.67935 0.89366 0.0
H136 H 0.99273 0.85848 0.11945 0.0
H137 H 0.9839 0.92238 0.07914 0.0
H138 H 0.91076 0.78154 0.14516 0.0
H139 H 0.86925 0.69119 0.11986 0.0
C140 C 0.90636 0.28043 0.00576 0.0
C141 C 0.88789 0.24446 0.04791 0.0
C142 C 0.75011 0.30627 0.06294 0.0
C143 C 0.75883 0.32579 0.01285 0.0
N144 N 0.85292 0.35763 0.9472 0.0
N145 N 0.81488 0.24637 0.12944 0.0
C146 C 0.8407 0.32271 0.98832 0.0
C147 C 0.81803 0.26736 0.0817 0.0
N148 N 0.98298 0.26823 0.9799 0.0
N149 N 0.67464 0.32033 0.08991 0.0
H150 H 0.86485 0.21651 0.14176 0.0
H151 H 0.7674 0.26192 0.15758 0.0
H152 H 0.62596 0.35071 0.07692 0.0
H153 H 0.66023 0.30261 0.12468 0.0
H154 H 0.99939 0.28771 0.94616 0.0
H155 H 0.03141 0.2385 0.99348 0.0
H156 H 0.9113 0.35953 0.92745 0.0
H157 H 0.80451 0.38908 0.93509 0.0
C158 C 0.67694 0.7573 0.55557 0.0
C159 C 0.71277 0.69371 0.52393 0.0
C160 C 0.79635 0.77139 0.47514 0.0
C161 C 0.77829 0.83354 0.51592 0.0
N162 N 0.6632 0.89028 0.57019 0.0
N163 N 0.78952 0.63685 0.44594 0.0
C164 C 0.70548 0.82819 0.54816 0.0
C165 C 0.76537 0.69975 0.48016 0.0
N166 N 0.62054 0.74993 0.59479 0.0
N167 N 0.84196 0.78193 0.43208 0.0
H168 H 0.76468 0.58441 0.44854 0.0
H169 H 0.83401 0.63617 0.41579 0.0
H170 H 0.85886 0.83513 0.42704 0.0
H171 H 0.85558 0.73977 0.39955 0.0
H172 H 0.59971 0.79459 0.62322 0.0
H173 H 0.59719 0.69821 0.59983 0.0
H174 H 0.60616 0.88945 0.5915 0.0
H175 H 0.67952 0.94121 0.56098 0.0
C176 C 0.71041 0.29647 0.41352 0.0
C177 C 0.71174 0.32177 0.47002 0.0
C178 C 0.80879 0.22434 0.48064 0.0
C179 C 0.82286 0.21103 0.42484 0.0
N180 N 0.78429 0.22805 0.33666 0.0
N181 N 0.73419 0.29512 0.55681 0.0
C182 C 0.77117 0.24379 0.39057 0.0
C183 C 0.7519 0.28038 0.50347 0.0
N184 N 0.65053 0.32143 0.38214 0.0
N185 N 0.85212 0.18474 0.51144 0.0
H186 H 0.68889 0.3336 0.57316 0.0
H187 H 0.75938 0.26729 0.5844 0.0
H188 H 0.89079 0.14097 0.495 0.0
H189 H 0.85013 0.19405 0.55294 0.0
H190 H 0.64148 0.30019 0.34105 0.0
H191 H 0.60348 0.35825 0.39778 0.0
H192 H 0.75709 0.25709 0.31034 0.0
H193 H 0.82643 0.18798 0.31848 0.0
C194 C 0.32317 0.37029 0.55639 0.0
C195 C 0.36175 0.35292 0.50572 0.0
C196 C 0.31579 0.22221 0.49448 0.0
C197 C 0.27256 0.24004 0.54392 0.0
N198 N 0.2601 0.32411 0.62952 0.0
N199 N 0.42124 0.26219 0.43584 0.0
C200 C 0.28495 0.31197 0.57754 0.0
C201 C 0.36759 0.27842 0.47826 0.0
N202 N 0.31827 0.44263 0.58259 0.0
N203 N 0.30176 0.15391 0.46093 0.0
H204 H 0.45927 0.30331 0.42365 0.0
H205 H 0.43461 0.20836 0.41665 0.0
H206 H 0.26343 0.11109 0.47047 0.0
H207 H 0.32317 0.14112 0.4218 0.0
H208 H 0.28228 0.4595 0.61677 0.0
H209 H 0.34723 0.4863 0.56844 0.0
H210 H 0.27438 0.37363 0.65749 0.0
H211 H 0.23308 0.28175 0.64595 0.0
C212 C 0.40337 0.76165 0.49434 0.0
C213 C 0.38021 0.71054 0.52583 0.0
C214 C 0.24573 0.77355 0.5507 0.0
C215 C 0.25819 0.81079 0.5086 0.0
N216 N 0.35319 0.85266 0.44661 0.0
N217 N 0.29251 0.67571 0.5932 0.0
C218 C 0.33981 0.81059 0.48353 0.0
C219 C 0.30652 0.72071 0.55831 0.0
N220 N 0.48418 0.75963 0.4727 0.0
N221 N 0.17442 0.7876 0.58175 0.0
H222 H 0.33882 0.63857 0.59968 0.0
H223 H 0.23629 0.67454 0.61511 0.0
H224 H 0.13017 0.82687 0.57638 0.0
H225 H 0.16227 0.76489 0.6147 0.0
H226 H 0.50839 0.79741 0.45138 0.0
H227 H 0.52959 0.72212 0.47962 0.0
H228 H 0.40751 0.84991 0.42272 0.0
H229 H 0.30821 0.89022 0.43927 0.0
C230 C 0.99071 0.00593 0.21344 0.0
C231 C 0.06813 0.04463 0.20218 0.0
C232 C 0.13631 0.03591 0.28795 0.0
C233 C 0.0639 0.99018 0.29686 0.0
N234 N 0.91219 0.94927 0.27709 0.0
N235 N 0.18782 0.1294 0.24188 0.0
C236 C 0.98791 0.98012 0.26212 0.0
C237 C 0.13227 0.07035 0.24393 0.0
N238 N 0.91946 0.99557 0.17885 0.0
N239 N 0.21095 0.04365 0.31974 0.0
H240 H 0.18199 0.1584 0.21143 0.0
H241 H 0.23136 0.15475 0.2733 0.0
H242 H 0.21817 0.01773 0.35171 0.0
H243 H 0.26859 0.07044 0.31135 0.0
H244 H 0.86722 0.95781 0.17943 0.0
H245 H 0.91076 0.02695 0.15029 0.0
H246 H 0.85225 0.94514 0.25622 0.0
H247 H 0.90721 0.93217 0.3131 0.0
C248 C 0.99074 0.96824 0.81023 0.0
C249 C 0.02044 0.02988 0.8509 0.0
C250 C 0.09351 0.08395 0.78324 0.0
C251 C 0.04938 0.02904 0.74215 0.0
N252 N 0.93852 0.92802 0.71848 0.0
N253 N 0.09609 0.15034 0.87632 0.0
C254 C 0.99352 0.97327 0.75604 0.0
C255 C 0.07143 0.08879 0.83763 0.0
N256 N 0.96188 0.90401 0.82336 0.0
N257 N 0.15831 0.12973 0.77064 0.0
H258 H 0.08278 0.15511 0.9166 0.0
H259 H 0.12467 0.19841 0.86795 0.0
H260 H 0.17811 0.12619 0.73149 0.0
H261 H 0.19825 0.16595 0.79942 0.0
H262 H 0.946 0.85527 0.79478 0.0
H263 H 0.96519 0.89732 0.86273 0.0
H264 H 0.89149 0.89123 0.72835 0.0
H265 H 0.9319 0.93318 0.67887 0.0
C266 C 0.50559 0.39843 0.66895 0.0
C267 C 0.53088 0.4741 0.67245 0.0
C268 C 0.52773 0.4991 0.77048 0.0
C269 C 0.5013 0.42371 0.767 0.0
N270 N 0.4444 0.30622 0.71368 0.0
N271 N 0.54572 0.59953 0.7242 0.0
C272 C 0.48354 0.37481 0.71638 0.0
C273 C 0.53511 0.52545 0.72262 0.0
N274 N 0.50781 0.34827 0.62099 0.0
N275 N 0.5502 0.54452 0.81928 0.0
H276 H 0.5505 0.62013 0.68952 0.0
H277 H 0.54142 0.64058 0.75903 0.0
H278 H 0.54571 0.52741 0.85533 0.0
H279 H 0.57963 0.59744 0.82391 0.0
H280 H 0.50037 0.2912 0.61712 0.0
H281 H 0.52252 0.36315 0.58513 0.0
H282 H 0.42142 0.27095 0.67793 0.0
H283 H 0.42775 0.28714 0.74772 0.0
C284 C 0.5456 0.58957 0.31262 0.0
C285 C 0.58297 0.53868 0.33959 0.0
C286 C 0.6667 0.48763 0.26104 0.0
C287 C 0.62475 0.53498 0.23263 0.0
N288 N 0.54749 0.64606 0.23564 0.0
N289 N 0.70323 0.46212 0.34768 0.0
C290 C 0.5717 0.59108 0.25998 0.0
C291 C 0.65201 0.4955 0.3166 0.0
N292 N 0.4836 0.63504 0.33708 0.0
N293 N 0.71521 0.43173 0.23448 0.0
H294 H 0.69495 0.46853 0.3887 0.0
H295 H 0.75932 0.43499 0.33414 0.0
H296 H 0.72769 0.42347 0.19383 0.0
H297 H 0.73787 0.39012 0.25196 0.0
H298 H 0.44555 0.66685 0.31755 0.0
H299 H 0.46831 0.63911 0.37712 0.0
H300 H 0.51471 0.69203 0.25476 0.0
H301 H 0.56765 0.6492 0.19751 0.0
loop_
_geom_bond_atom_site_label_1
_geom_bond_atom_site_label_2
_geom_bond_distance
_geom_bond_site_symmetry_2
_ccdc_geom_bond_type
O0 Mn1 2.163 1_654 S
O0 C14 1.244 1_554 S
Mn1 O0 2.163 1_456 S
Mn1 O4 2.160 1_545 S
Mn1 O5 2.221 1_556 S
Mn1 O7 2.163 1_556 S
Mn1 O9 2.160 . S
Mn1 O19 2.221 1_445 S
O2 Mn3 2.087 1_545 S
O2 C14 1.256 . S
Mn3 O2 2.087 1_565 S
Mn3 O10 2.089 1_565 S
Mn3 O19 2.290 . S
Mn3 O20 2.251 . S
O4 Mn1 2.160 1_565 S
O4 C15 1.239 1_556 S
O5 Mn1 2.221 1_554 S
O5 Mn6 2.290 . S
O5 C16 1.278 . S
Mn6 O5 2.290 . S
Mn6 O8 2.089 1_545 S
Mn6 O11 2.251 . S
Mn6 O12 2.087 . S
O7 Mn1 2.163 1_554 S
O7 C17 1.244 . S
O8 Mn6 2.089 1_565 S
O8 C15 1.256 . S
O9 Mn1 2.160 . S
O9 C18 1.239 . S
O10 Mn3 2.089 1_545 S
O10 C18 1.256 1_655 S
O11 Mn6 2.251 . S
O11 C16 1.241 . S
O12 Mn6 2.087 . S
O12 C17 1.256 . S
C13 O19 1.278 . S
C13 O20 1.241 . S
C14 O0 1.244 1_556 S
C14 O2 1.256 . S
C15 O4 1.239 1_554 S
C15 O8 1.256 . S
C16 O5 1.278 . S
C16 O11 1.241 . S
C17 O7 1.244 . S
C17 O12 1.256 . S
C18 O9 1.239 . S
C18 O10 1.256 1_455 S
O19 Mn1 2.221 1_665 S
O19 Mn3 2.290 . S
O19 C13 1.278 . S
O20 Mn3 2.251 . S
O20 C13 1.241 . S
O21 Mn22 2.163 . S
O21 C35 1.244 . S
Mn22 O21 2.163 . S
Mn22 O25 2.160 . S
Mn22 O26 2.221 . S
Mn22 O28 2.163 . S
Mn22 O30 2.160 . S
Mn22 O40 2.221 . S
O23 Mn24 2.087 . S
O23 C35 1.256 . S
Mn24 O23 2.087 . S
Mn24 O31 2.089 . S
Mn24 O40 2.290 . S
Mn24 O41 2.251 . S
O25 Mn22 2.160 . S
O25 C36 1.239 . S
O26 Mn22 2.221 . S
O26 Mn27 2.290 . S
O26 C37 1.278 . S
Mn27 O26 2.290 . S
Mn27 O29 2.089 . S
Mn27 O32 2.251 . S
Mn27 O33 2.087 . S
O28 Mn22 2.163 . S
O28 C38 1.244 . S
O29 Mn27 2.089 . S
O29 C36 1.256 . S
O30 Mn22 2.160 . S
O30 C39 1.239 . S
O31 Mn24 2.089 . S
O31 C39 1.256 . S
O32 Mn27 2.251 . S
O32 C37 1.241 . S
O33 Mn27 2.087 . S
O33 C38 1.256 . S
C34 O40 1.278 . S
C34 O41 1.241 . S
C35 O21 1.244 . S
C35 O23 1.256 . S
C36 O25 1.239 . S
C36 O29 1.256 . S
C37 O26 1.278 . S
C37 O32 1.241 . S
C38 O28 1.244 . S
C38 O33 1.256 . S
C39 O30 1.239 . S
C39 O31 1.256 . S
O40 Mn22 2.221 . S
O40 Mn24 2.290 . S
O40 C34 1.278 . S
O41 Mn24 2.251 . S
O41 C34 1.241 . S
O42 Cd43 2.300 . S
O42 C49 1.275 1_565 S
Cd43 O42 2.300 . S
Cd43 O51 2.381 . S
Cd43 O52 2.378 . S
O44 Cd45 2.385 . S
O44 C49 1.255 . S
Cd45 O44 2.385 . S
Cd45 O46 2.317 1_455 S
O46 Cd45 2.317 1_655 S
O46 C47 1.232 . S
C47 O46 1.232 . S
C47 O48 1.218 . S
O48 C47 1.218 . S
C49 O42 1.275 1_545 S
C49 O44 1.255 . S
C50 O51 1.258 . S
C50 O52 1.256 . S
O51 Cd43 2.381 . S
O51 C50 1.258 . S
O52 Cd43 2.378 . S
O52 C50 1.256 . S
O53 Cd54 2.300 . S
O53 C60 1.275 . S
Cd54 O53 2.300 . S
Cd54 O62 2.381 . S
Cd54 O63 2.378 . S
O55 Cd56 2.385 . S
O55 C60 1.255 1_565 S
Cd56 O55 2.385 . S
Cd56 O57 2.317 1_455 S
O57 Cd56 2.317 1_655 S
O57 C58 1.232 . S
C58 O57 1.232 . S
C58 O59 1.218 . S
O59 C58 1.218 . S
C60 O53 1.275 . S
C60 O55 1.255 1_545 S
C61 O62 1.258 . S
C61 O63 1.256 . S
O62 Cd54 2.381 . S
O62 C61 1.258 . S
O63 Cd54 2.378 . S
O63 C61 1.256 . S
O64 Cd65 2.300 . S
O64 C71 1.275 . S
Cd65 O64 2.300 . S
Cd65 O73 2.381 . S
Cd65 O74 2.378 1_556 S
O66 Cd67 2.385 . S
O66 C71 1.255 . S
Cd67 O66 2.385 . S
Cd67 O68 2.317 . S
O68 Cd67 2.317 . S
O68 C69 1.232 . S
C69 O68 1.232 . S
C69 O70 1.218 . S
O70 C69 1.218 . S
C71 O64 1.275 . S
C71 O66 1.255 . S
C72 O73 1.258 . S
C72 O74 1.256 1_556 S
O73 Cd65 2.381 . S
O73 C72 1.258 . S
O74 Cd65 2.378 1_554 S
O74 C72 1.256 1_554 S
O75 Cd76 2.300 . S
O75 C82 1.275 . S
Cd76 O75 2.300 . S
Cd76 O84 2.381 . S
Cd76 O85 2.378 . S
O77 Cd78 2.385 . S
O77 C82 1.255 . S
Cd78 O77 2.385 . S
Cd78 O79 2.317 . S
O79 Cd78 2.317 . S
O79 C80 1.232 . S
C80 O79 1.232 . S
C80 O81 1.218 . S
O81 C80 1.218 . S
C82 O75 1.275 . S
C82 O77 1.255 . S
C83 O84 1.258 . S
C83 O85 1.256 . S
O84 Cd76 2.381 . S
O84 C83 1.258 . S
O85 Cd76 2.378 . S
O85 C83 1.256 . S
C86 C87 1.363 . S
C86 C92 1.379 . S
C86 N94 1.356 . S
C87 C86 1.363 . S
C87 C93 1.363 1_554 S
C88 C89 1.363 1_556 S
C88 C93 1.379 . S
C88 N95 1.356 . S
C89 C88 1.363 1_554 S
C89 C92 1.363 . S
N90 C92 1.356 . S
N90 H102 0.984 . S
N90 H103 0.985 . S
N91 C93 1.356 . S
N91 H96 0.984 . S
N91 H97 0.985 . S
C92 C86 1.379 . S
C92 C89 1.363 . S
C92 N90 1.356 . S
C93 C87 1.363 1_556 S
C93 C88 1.379 . S
C93 N91 1.356 . S
N94 C86 1.356 . S
N94 H100 0.984 . S
N94 H101 0.984 . S
N95 C88 1.356 . S
N95 H98 0.984 . S
N95 H99 0.985 . S
H96 N91 0.984 . S
H97 N91 0.985 . S
H98 N95 0.984 . S
H99 N95 0.985 . S
H100 N94 0.984 . S
H101 N94 0.984 . S
H102 N90 0.984 . S
H103 N90 0.985 . S
C104 C105 1.363 1_554 S
C104 C110 1.379 . S
C104 N112 1.356 . S
C105 C104 1.363 1_556 S
C105 C111 1.363 . S
C106 C107 1.363 . S
C106 C111 1.379 . S
C106 N113 1.356 . S
C107 C106 1.363 . S
C107 C110 1.363 1_556 S
N108 C110 1.356 . S
N108 H120 0.984 . S
N108 H121 0.985 . S
N109 C111 1.356 . S
N109 H114 0.984 . S
N109 H115 0.985 . S
C110 C104 1.379 . S
C110 C107 1.363 1_554 S
C110 N108 1.356 . S
C111 C105 1.363 . S
C111 C106 1.379 . S
C111 N109 1.356 . S
N112 C104 1.356 . S
N112 H118 0.984 . S
N112 H119 0.984 . S
N113 C106 1.356 . S
N113 H116 0.984 . S
N113 H117 0.985 . S
H114 N109 0.984 . S
H115 N109 0.985 . S
H116 N113 0.984 . S
H117 N113 0.985 . S
H118 N112 0.984 . S
H119 N112 0.984 . S
H120 N108 0.984 . S
H121 N108 0.985 . S
C122 C123 1.363 . S
C122 C128 1.379 . S
C122 N130 1.356 . S
C123 C122 1.363 . S
C123 C129 1.363 1_554 S
C124 C125 1.363 1_556 S
C124 C129 1.379 . S
C124 N131 1.356 . S
C125 C124 1.363 1_554 S
C125 C128 1.363 . S
N126 C128 1.356 . S
N126 H138 0.984 . S
N126 H139 0.985 . S
N127 C129 1.356 . S
N127 H132 0.984 . S
N127 H133 0.985 . S
C128 C122 1.379 . S
C128 C125 1.363 . S
C128 N126 1.356 . S
C129 C123 1.363 1_556 S
C129 C124 1.379 . S
C129 N127 1.356 . S
N130 C122 1.356 . S
N130 H136 0.984 . S
N130 H137 0.984 . S
N131 C124 1.356 . S
N131 H134 0.984 . S
N131 H135 0.985 . S
H132 N127 0.984 . S
H133 N127 0.985 . S
H134 N131 0.984 . S
H135 N131 0.985 . S
H136 N130 0.984 . S
H137 N130 0.984 . S
H138 N126 0.984 . S
H139 N126 0.985 . S
C140 C141 1.377 . S
C140 C146 1.379 . S
C140 N148 1.356 . S
C141 C140 1.377 . S
C141 C147 1.353 1_556 S
C142 C143 1.363 1_554 S
C142 C147 1.379 . S
C142 N149 1.356 . S
C143 C142 1.363 1_556 S
C143 C146 1.363 . S
N144 C146 1.356 . S
N144 H156 0.984 . S
N144 H157 0.985 . S
N145 C147 1.356 . S
N145 H150 0.984 . S
N145 H151 0.985 . S
C146 C140 1.379 . S
C146 C143 1.363 . S
C146 N144 1.356 . S
C147 C141 1.353 1_554 S
C147 C142 1.379 . S
C147 N145 1.356 . S
N148 C140 1.356 . S
N148 H154 0.984 . S
N148 H155 0.984 . S
N149 C142 1.356 . S
N149 H152 0.984 . S
N149 H153 0.985 . S
H150 N145 0.984 . S
H151 N145 0.985 . S
H152 N149 0.984 . S
H153 N149 0.985 . S
H154 N148 0.984 . S
H155 N148 0.984 . S
H156 N144 0.984 . S
H157 N144 0.985 . S
C158 C159 1.363 . S
C158 C164 1.379 . S
C158 N166 1.356 . S
C159 C158 1.363 . S
C159 C165 1.363 . S
C160 C161 1.363 . S
C160 C165 1.379 . S
C160 N167 1.356 . S
C161 C160 1.363 . S
C161 C164 1.363 . S
N162 C164 1.356 . S
N162 H174 0.984 . S
N162 H175 0.985 . S
N163 C165 1.356 . S
N163 H168 0.984 . S
N163 H169 0.985 . S
C164 C158 1.379 . S
C164 C161 1.363 . S
C164 N162 1.356 . S
C165 C159 1.363 . S
C165 C160 1.379 . S
C165 N163 1.356 . S
N166 C158 1.356 . S
N166 H172 0.984 . S
N166 H173 0.984 . S
N167 C160 1.356 . S
N167 H170 0.984 . S
N167 H171 0.985 . S
H168 N163 0.984 . S
H169 N163 0.985 . S
H170 N167 0.984 . S
H171 N167 0.985 . S
H172 N166 0.984 . S
H173 N166 0.984 . S
H174 N162 0.984 . S
H175 N162 0.985 . S
C176 C177 1.363 . S
C176 C182 1.379 . S
C176 N184 1.356 . S
C177 C176 1.363 . S
C177 C183 1.363 . S
C178 C179 1.363 . S
C178 C183 1.379 . S
C178 N185 1.356 . S
C179 C178 1.363 . S
C179 C182 1.363 . S
N180 C182 1.356 . S
N180 H192 0.984 . S
N180 H193 0.985 . S
N181 C183 1.356 . S
N181 H186 0.984 . S
N181 H187 0.985 . S
C182 C176 1.379 . S
C182 C179 1.363 . S
C182 N180 1.356 . S
C183 C177 1.363 . S
C183 C178 1.379 . S
C183 N181 1.356 . S
N184 C176 1.356 . S
N184 H190 0.984 . S
N184 H191 0.984 . S
N185 C178 1.356 . S
N185 H188 0.984 . S
N185 H189 0.985 . S
H186 N181 0.984 . S
H187 N181 0.985 . S
H188 N185 0.984 . S
H189 N185 0.985 . S
H190 N184 0.984 . S
H191 N184 0.984 . S
H192 N180 0.984 . S
H193 N180 0.985 . S
C194 C195 1.363 . S
C194 C200 1.379 . S
C194 N202 1.356 . S
C195 C194 1.363 . S
C195 C201 1.363 . S
C196 C197 1.363 . S
C196 C201 1.379 . S
C196 N203 1.356 . S
C197 C196 1.363 . S
C197 C200 1.363 . S
N198 C200 1.356 . S
N198 H210 0.984 . S
N198 H211 0.985 . S
N199 C201 1.356 . S
N199 H204 0.984 . S
N199 H205 0.985 . S
C200 C194 1.379 . S
C200 C197 1.363 . S
C200 N198 1.356 . S
C201 C195 1.363 . S
C201 C196 1.379 . S
C201 N199 1.356 . S
N202 C194 1.356 . S
N202 H208 0.984 . S
N202 H209 0.984 . S
N203 C196 1.356 . S
N203 H206 0.984 . S
N203 H207 0.985 . S
H204 N199 0.984 . S
H205 N199 0.985 . S
H206 N203 0.984 . S
H207 N203 0.985 . S
H208 N202 0.984 . S
H209 N202 0.984 . S
H210 N198 0.984 . S
H211 N198 0.985 . S
C212 C213 1.363 . S
C212 C218 1.379 . S
C212 N220 1.356 . S
C213 C212 1.363 . S
C213 C219 1.363 . S
C214 C215 1.363 . S
C214 C219 1.379 . S
C214 N221 1.356 . S
C215 C214 1.363 . S
C215 C218 1.363 . S
N216 C218 1.356 . S
N216 H228 0.984 . S
N216 H229 0.985 . S
N217 C219 1.356 . S
N217 H222 0.984 . S
N217 H223 0.985 . S
C218 C212 1.379 . S
C218 C215 1.363 . S
C218 N216 1.356 . S
C219 C213 1.363 . S
C219 C214 1.379 . S
C219 N217 1.356 . S
N220 C212 1.356 . S
N220 H226 0.984 . S
N220 H227 0.984 . S
N221 C214 1.356 . S
N221 H224 0.984 . S
N221 H225 0.985 . S
H222 N217 0.984 . S
H223 N217 0.985 . S
H224 N221 0.984 . S
H225 N221 0.985 . S
H226 N220 0.984 . S
H227 N220 0.984 . S
H228 N216 0.984 . S
H229 N216 0.985 . S
C230 C231 1.362 1_665 S
C230 C236 1.379 . S
C230 N238 1.357 . S
C231 C230 1.362 1_445 S
C231 C237 1.363 . S
C232 C233 1.363 . S
C232 C237 1.379 . S
C232 N239 1.356 . S
C233 C232 1.363 . S
C233 C236 1.363 1_445 S
N234 C236 1.356 . S
N234 H246 0.984 . S
N234 H247 0.985 . S
N235 C237 1.356 . S
N235 H240 0.984 . S
N235 H241 0.985 . S
C236 C230 1.379 . S
C236 C233 1.363 1_665 S
C236 N234 1.356 . S
C237 C231 1.363 . S
C237 C232 1.379 . S
C237 N235 1.356 . S
N238 C230 1.357 . S
N238 H244 0.984 . S
N238 H245 0.984 . S
N239 C232 1.356 . S
N239 H242 0.984 . S
N239 H243 0.985 . S
H240 N235 0.984 . S
H241 N235 0.985 . S
H242 N239 0.984 . S
H243 N239 0.985 . S
H244 N238 0.984 . S
H245 N238 0.984 . S
H246 N234 0.984 . S
H247 N234 0.985 . S
C248 C249 1.363 1_565 S
C248 C254 1.379 . S
C248 N256 1.356 . S
C249 C248 1.363 1_545 S
C249 C255 1.363 . S
C250 C251 1.363 . S
C250 C255 1.379 . S
C250 N257 1.356 1_455 S
C251 C250 1.363 . S
C251 C254 1.363 1_545 S
N252 C254 1.356 . S
N252 H264 0.984 . S
N252 H265 0.985 . S
N253 C255 1.356 . S
N253 H258 0.984 . S
N253 H259 0.985 . S
C254 C248 1.379 . S
C254 C251 1.363 1_565 S
C254 N252 1.356 . S
C255 C249 1.363 . S
C255 C250 1.379 . S
C255 N253 1.356 . S
N256 C248 1.356 . S
N256 H262 0.984 . S
N256 H263 0.984 . S
N257 C250 1.356 1_655 S
N257 H260 0.984 . S
N257 H261 0.985 . S
H258 N253 0.984 . S
H259 N253 0.985 . S
H260 N257 0.984 . S
H261 N257 0.985 . S
H262 N256 0.984 . S
H263 N256 0.984 . S
H264 N252 0.984 . S
H265 N252 0.985 . S
C266 C267 1.363 . S
C266 C272 1.379 . S
C266 N274 1.356 . S
C267 C266 1.363 . S
C267 C273 1.363 . S
C268 C269 1.363 . S
C268 C273 1.379 . S
C268 N275 1.356 . S
C269 C268 1.363 . S
C269 C272 1.363 . S
N270 C272 1.356 . S
N270 H282 0.984 . S
N270 H283 0.985 . S
N271 C273 1.356 . S
N271 H276 0.984 . S
N271 H277 0.985 . S
C272 C266 1.379 . S
C272 C269 1.363 . S
C272 N270 1.356 . S
C273 C267 1.363 . S
C273 C268 1.379 . S
C273 N271 1.356 . S
N274 C266 1.356 . S
N274 H280 0.984 . S
N274 H281 0.984 . S
N275 C268 1.356 . S
N275 H278 0.984 . S
N275 H279 0.985 . S
H276 N271 0.984 . S
H277 N271 0.985 . S
H278 N275 0.984 . S
H279 N275 0.985 . S
H280 N274 0.984 . S
H281 N274 0.984 . S
H282 N270 0.984 . S
H283 N270 0.985 . S
C284 C285 1.363 . S
C284 C290 1.379 . S
C284 N292 1.356 . S
C285 C284 1.363 . S
C285 C291 1.363 . S
C286 C287 1.363 . S
C286 C291 1.379 . S
C286 N293 1.356 . S
C287 C286 1.363 . S
C287 C290 1.363 . S
N288 C290 1.356 . S
N288 H300 0.984 . S
N288 H301 0.985 . S
N289 C291 1.356 . S
N289 H294 0.984 . S
N289 H295 0.985 . S
C290 C284 1.379 . S
C290 C287 1.363 . S
C290 N288 1.356 . S
C291 C285 1.363 . S
C291 C286 1.379 . S
C291 N289 1.356 . S
N292 C284 1.356 . S
N292 H298 0.984 . S
N292 H299 0.984 . S
N293 C286 1.356 . S
N293 H296 0.984 . S
N293 H297 0.985 . S
H294 N289 0.984 . S
H295 N289 0.985 . S
H296 N293 0.984 . S
H297 N293 0.985 . S
H298 N292 0.984 . S
H299 N292 0.984 . S
H300 N288 0.984 . S
H301 N288 0.985 . S
C89 C80 1.202 . S
C87 C16 1.317 . S
C105 C15 1.488 1_556 S
C107 C69 1.272 . S
C123 C13 1.289 1_554 S
C125 C83 1.451 . S
C141 C14 1.400 . S
C143 C72 1.423 . S
C159 C37 1.317 . S
C161 C58 1.202 . S
C177 C36 1.488 . S
C179 C47 1.272 . S
C197 C61 1.451 . S
C195 C34 1.289 . S
C215 C50 1.423 . S
C213 C35 1.402 . S
C231 C17 1.517 . S
C233 C49 1.506 . S
C249 C18 1.388 . S
C251 C60 1.382 . S
C269 C71 1.506 . S
C267 C38 1.517 . S
C285 C39 1.388 . S
C287 C82 1.382 . S
