# Generated by pormake.
# Topology cor, (4,6)-cn, num edge types: 1
# Building blocks:
#     Node 0, Type 0, BuildingBlock: GALJAG_clean_sbu_0, # of connection points: 4
#     Node 1, Type 0, BuildingBlock: GALJAG_clean_sbu_0, # of connection points: 4
#     Node 2, Type 0, BuildingBlock: GALJAG_clean_sbu_0, # of connection points: 4
#     Node 3, Type 0, BuildingBlock: GALJAG_clean_sbu_0, # of connection points: 4
#     Node 4, Type 0, BuildingBlock: GALJAG_clean_sbu_0, # of connection points: 4
#     Node 5, Type 0, BuildingBlock: GALJAG_clean_sbu_0, # of connection points: 4
#     Node 6, Type 0, BuildingBlock: GALJAG_clean_sbu_0, # of connection points: 4
#     Node 7, Type 0, BuildingBlock: GALJAG_clean_sbu_0, # of connection points: 4
#     Node 8, Type 0, BuildingBlock: GALJAG_clean_sbu_0, # of connection points: 4
#     Node 9, Type 0, BuildingBlock: GALJAG_clean_sbu_0, # of connection points: 4
#     Node 10, Type 0, BuildingBlock: GALJAG_clean_sbu_0, # of connection points: 4
#     Node 11, Type 0, BuildingBlock: GALJAG_clean_sbu_0, # of connection points: 4
#     Node 12, Type 0, BuildingBlock: GALJAG_clean_sbu_0, # of connection points: 4
#     Node 13, Type 0, BuildingBlock: GALJAG_clean_sbu_0, # of connection points: 4
#     Node 14, Type 0, BuildingBlock: GALJAG_clean_sbu_0, # of connection points: 4
#     Node 15, Type 0, BuildingBlock: GALJAG_clean_sbu_0, # of connection points: 4
#     Node 16, Type 0, BuildingBlock: GALJAG_clean_sbu_0, # of connection points: 4
#     Node 17, Type 0, BuildingBlock: GALJAG_clean_sbu_0, # of connection points: 4
#     Node 18, Type 1, BuildingBlock: MIDCAF_clean_sbu_0, # of connection points: 6
#     Node 19, Type 1, BuildingBlock: MIDCAF_clean_sbu_0, # of connection points: 6
#     Node 20, Type 1, BuildingBlock: MIDCAF_clean_sbu_0, # of connection points: 6
#     Node 21, Type 1, BuildingBlock: MIDCAF_clean_sbu_0, # of connection points: 6
#     Node 22, Type 1, BuildingBlock: MIDCAF_clean_sbu_0, # of connection points: 6
#     Node 23, Type 1, BuildingBlock: MIDCAF_clean_sbu_0, # of connection points: 6
#     Node 24, Type 1, BuildingBlock: MIDCAF_clean_sbu_0, # of connection points: 6
#     Node 25, Type 1, BuildingBlock: MIDCAF_clean_sbu_0, # of connection points: 6
#     Node 26, Type 1, BuildingBlock: MIDCAF_clean_sbu_0, # of connection points: 6
#     Node 27, Type 1, BuildingBlock: MIDCAF_clean_sbu_0, # of connection points: 6
#     Node 28, Type 1, BuildingBlock: MIDCAF_clean_sbu_0, # of connection points: 6
#     Node 29, Type 1, BuildingBlock: MIDCAF_clean_sbu_0, # of connection points: 6
#     Edge 30, Type (0, 1), BuildingBlock: TEMPAE_clean_linker_10, # of connection points: 2
#     Edge 31, Type (0, 1), BuildingBlock: TEMPAE_clean_linker_10, # of connection points: 2
#     Edge 32, Type (0, 1), BuildingBlock: TEMPAE_clean_linker_10, # of connection points: 2
#     Edge 33, Type (0, 1), BuildingBlock: TEMPAE_clean_linker_10, # of connection points: 2
#     Edge 34, Type (0, 1), BuildingBlock: TEMPAE_clean_linker_10, # of connection points: 2
#     Edge 35, Type (0, 1), BuildingBlock: TEMPAE_clean_linker_10, # of connection points: 2
#     Edge 36, Type (0, 1), BuildingBlock: TEMPAE_clean_linker_10, # of connection points: 2
#     Edge 37, Type (0, 1), BuildingBlock: TEMPAE_clean_linker_10, # of connection points: 2
#     Edge 38, Type (0, 1), BuildingBlock: TEMPAE_clean_linker_10, # of connection points: 2
#     Edge 39, Type (0, 1), BuildingBlock: TEMPAE_clean_linker_10, # of connection points: 2
#     Edge 40, Type (0, 1), BuildingBlock: TEMPAE_clean_linker_10, # of connection points: 2
#     Edge 41, Type (0, 1), BuildingBlock: TEMPAE_clean_linker_10, # of connection points: 2
#     Edge 42, Type (0, 1), BuildingBlock: TEMPAE_clean_linker_10, # of connection points: 2
#     Edge 43, Type (0, 1), BuildingBlock: TEMPAE_clean_linker_10, # of connection points: 2
#     Edge 44, Type (0, 1), BuildingBlock: TEMPAE_clean_linker_10, # of connection points: 2
#     Edge 45, Type (0, 1), BuildingBlock: TEMPAE_clean_linker_10, # of connection points: 2
#     Edge 46, Type (0, 1), BuildingBlock: TEMPAE_clean_linker_10, # of connection points: 2
#     Edge 47, Type (0, 1), BuildingBlock: TEMPAE_clean_linker_10, # of connection points: 2
#     Edge 48, Type (0, 1), BuildingBlock: TEMPAE_clean_linker_10, # of connection points: 2
#     Edge 49, Type (0, 1), BuildingBlock: TEMPAE_clean_linker_10, # of connection points: 2
#     Edge 50, Type (0, 1), BuildingBlock: TEMPAE_clean_linker_10, # of connection points: 2
#     Edge 51, Type (0, 1), BuildingBlock: TEMPAE_clean_linker_10, # of connection points: 2
#     Edge 52, Type (0, 1), BuildingBlock: TEMPAE_clean_linker_10, # of connection points: 2
#     Edge 53, Type (0, 1), BuildingBlock: TEMPAE_clean_linker_10, # of connection points: 2
#     Edge 54, Type (0, 1), BuildingBlock: TEMPAE_clean_linker_10, # of connection points: 2
#     Edge 55, Type (0, 1), BuildingBlock: TEMPAE_clean_linker_10, # of connection points: 2
#     Edge 56, Type (0, 1), BuildingBlock: TEMPAE_clean_linker_10, # of connection points: 2
#     Edge 57, Type (0, 1), BuildingBlock: TEMPAE_clean_linker_10, # of connection points: 2
#     Edge 58, Type (0, 1), BuildingBlock: TEMPAE_clean_linker_10, # of connection points: 2
#     Edge 59, Type (0, 1), BuildingBlock: TEMPAE_clean_linker_10, # of connection points: 2
#     Edge 60, Type (0, 1), BuildingBlock: TEMPAE_clean_linker_10, # of connection points: 2
#     Edge 61, Type (0, 1), BuildingBlock: TEMPAE_clean_linker_10, # of connection points: 2
#     Edge 62, Type (0, 1), BuildingBlock: TEMPAE_clean_linker_10, # of connection points: 2
#     Edge 63, Type (0, 1), BuildingBlock: TEMPAE_clean_linker_10, # of connection points: 2
#     Edge 64, Type (0, 1), BuildingBlock: TEMPAE_clean_linker_10, # of connection points: 2
#     Edge 65, Type (0, 1), BuildingBlock: TEMPAE_clean_linker_10, # of connection points: 2
#     Edge 66, Type (0, 1), BuildingBlock: TEMPAE_clean_linker_10, # of connection points: 2
#     Edge 67, Type (0, 1), BuildingBlock: TEMPAE_clean_linker_10, # of connection points: 2
#     Edge 68, Type (0, 1), BuildingBlock: TEMPAE_clean_linker_10, # of connection points: 2
#     Edge 69, Type (0, 1), BuildingBlock: TEMPAE_clean_linker_10, # of connection points: 2
#     Edge 70, Type (0, 1), BuildingBlock: TEMPAE_clean_linker_10, # of connection points: 2
#     Edge 71, Type (0, 1), BuildingBlock: TEMPAE_clean_linker_10, # of connection points: 2
#     Edge 72, Type (0, 1), BuildingBlock: TEMPAE_clean_linker_10, # of connection points: 2
#     Edge 73, Type (0, 1), BuildingBlock: TEMPAE_clean_linker_10, # of connection points: 2
#     Edge 74, Type (0, 1), BuildingBlock: TEMPAE_clean_linker_10, # of connection points: 2
#     Edge 75, Type (0, 1), BuildingBlock: TEMPAE_clean_linker_10, # of connection points: 2
#     Edge 76, Type (0, 1), BuildingBlock: TEMPAE_clean_linker_10, # of connection points: 2
#     Edge 77, Type (0, 1), BuildingBlock: TEMPAE_clean_linker_10, # of connection points: 2
#     Edge 78, Type (0, 1), BuildingBlock: TEMPAE_clean_linker_10, # of connection points: 2
#     Edge 79, Type (0, 1), BuildingBlock: TEMPAE_clean_linker_10, # of connection points: 2
#     Edge 80, Type (0, 1), BuildingBlock: TEMPAE_clean_linker_10, # of connection points: 2
#     Edge 81, Type (0, 1), BuildingBlock: TEMPAE_clean_linker_10, # of connection points: 2
#     Edge 82, Type (0, 1), BuildingBlock: TEMPAE_clean_linker_10, # of connection points: 2
#     Edge 83, Type (0, 1), BuildingBlock: TEMPAE_clean_linker_10, # of connection points: 2
#     Edge 84, Type (0, 1), BuildingBlock: TEMPAE_clean_linker_10, # of connection points: 2
#     Edge 85, Type (0, 1), BuildingBlock: TEMPAE_clean_linker_10, # of connection points: 2
#     Edge 86, Type (0, 1), BuildingBlock: TEMPAE_clean_linker_10, # of connection points: 2
#     Edge 87, Type (0, 1), BuildingBlock: TEMPAE_clean_linker_10, # of connection points: 2
#     Edge 88, Type (0, 1), BuildingBlock: TEMPAE_clean_linker_10, # of connection points: 2
#     Edge 89, Type (0, 1), BuildingBlock: TEMPAE_clean_linker_10, # of connection points: 2
#     Edge 90, Type (0, 1), BuildingBlock: TEMPAE_clean_linker_10, # of connection points: 2
#     Edge 91, Type (0, 1), BuildingBlock: TEMPAE_clean_linker_10, # of connection points: 2
#     Edge 92, Type (0, 1), BuildingBlock: TEMPAE_clean_linker_10, # of connection points: 2
#     Edge 93, Type (0, 1), BuildingBlock: TEMPAE_clean_linker_10, # of connection points: 2
#     Edge 94, Type (0, 1), BuildingBlock: TEMPAE_clean_linker_10, # of connection points: 2
#     Edge 95, Type (0, 1), BuildingBlock: TEMPAE_clean_linker_10, # of connection points: 2
#     Edge 96, Type (0, 1), BuildingBlock: TEMPAE_clean_linker_10, # of connection points: 2
#     Edge 97, Type (0, 1), BuildingBlock: TEMPAE_clean_linker_10, # of connection points: 2
#     Edge 98, Type (0, 1), BuildingBlock: TEMPAE_clean_linker_10, # of connection points: 2
#     Edge 99, Type (0, 1), BuildingBlock: TEMPAE_clean_linker_10, # of connection points: 2
#     Edge 100, Type (0, 1), BuildingBlock: TEMPAE_clean_linker_10, # of connection points: 2
#     Edge 101, Type (0, 1), BuildingBlock: TEMPAE_clean_linker_10, # of connection points: 2
# Relax obj value: 0.119
# Max RMSD: 0.171
# Mean RMSD: 0.112
data_MOF--net-cor--node1-GALJAG_clean_sbu_0--node2-MIDCAF_clean_sbu_0--edge1-TEMPAE_clean_linker_10
_symmetry_space_group_name_H-M    P1
_symmetry_Int_Tables_number       1
_symmetry_cell_setting            triclinic
loop_
_symmetry_equiv_pos_as_xyz
'x, y, z'
_cell_length_a     37.88444
_cell_length_b     37.904232
_cell_length_c     106.47959
_cell_angle_alpha  89.732315
_cell_angle_beta   90.193332
_cell_angle_gamma 120.2592
loop_
_atom_site_label
_atom_site_type_symbol
_atom_site_fract_x
_atom_site_fract_y
_atom_site_fract_z
_atom_type_partial_charge
In0 In 0.76125 0.03127 0.26342 0.0
O1 O 0.77863 0.09911 0.2641 0.0
O2 O 0.73647 0.06099 0.2502 0.0
C3 C 0.80918 0.0447 0.28373 0.0
C4 C 0.79052 0.02072 0.24154 0.0
C5 C 0.69492 0.96444 0.2731 0.0
O6 O 0.78132 0.05381 0.28353 0.0
O7 O 0.81439 0.03137 0.27346 0.0
O8 O 0.72617 0.96406 0.26929 0.0
O9 O 0.69585 0.99785 0.27134 0.0
C10 C 0.75723 0.09639 0.25463 0.0
O11 O 0.75276 0.00447 0.24374 0.0
O12 O 0.81354 0.04019 0.25064 0.0
In13 In 0.02866 0.77039 0.26238 0.0
O14 O 0.09642 0.80585 0.26748 0.0
O15 O 0.06691 0.74105 0.2672 0.0
C16 C 0.04218 0.80899 0.23996 0.0
C17 C 0.01506 0.79404 0.28492 0.0
C18 C 0.95813 0.70412 0.25507 0.0
O19 O 0.04704 0.77874 0.24165 0.0
O20 O 0.03298 0.82128 0.24976 0.0
O21 O 0.9608 0.738 0.25739 0.0
O22 O 0.99036 0.70298 0.25719 0.0
C23 C 0.09911 0.77446 0.2695 0.0
O24 O 0.01 0.75891 0.28308 0.0
O25 O 0.02459 0.81628 0.27522 0.0
In26 In 0.28671 0.28996 0.26687 0.0
O27 O 0.25167 0.32278 0.27168 0.0
O28 O 0.31651 0.35759 0.27183 0.0
C29 C 0.24146 0.25713 0.24587 0.0
C30 C 0.26496 0.25337 0.28968 0.0
C31 C 0.35415 0.2903 0.25825 0.0
O32 O 0.26824 0.29452 0.24659 0.0
O33 O 0.23627 0.23719 0.25588 0.0
O34 O 0.32319 0.25845 0.26229 0.0
O35 O 0.35205 0.32236 0.2592 0.0
C36 C 0.28328 0.35676 0.27386 0.0
O37 O 0.29994 0.28379 0.28761 0.0
O38 O 0.2421 0.24041 0.28016 0.0
In39 In 0.28926 0.05127 0.76621 0.0
O40 O 0.29768 0.08115 0.78553 0.0
O41 O 0.239 0.05407 0.77716 0.0
C42 C 0.36362 0.10514 0.75696 0.0
C43 C 0.28665 0.98321 0.77592 0.0
C44 C 0.24984 0.04964 0.74465 0.0
O45 O 0.34646 0.11433 0.76547 0.0
O46 O 0.34416 0.06814 0.7536 0.0
O47 O 0.24726 0.01773 0.74936 0.0
O48 O 0.27063 0.08152 0.75103 0.0
C49 C 0.26087 0.07195 0.78659 0.0
O50 O 0.25523 0.98353 0.77212 0.0
O51 O 0.31955 0.01648 0.77422 0.0
In52 In 0.0012 0.26643 0.76416 0.0
O53 O 0.03581 0.25516 0.74853 0.0
O54 O 0.975 0.20839 0.75283 0.0
C55 C 0.05728 0.33563 0.7758 0.0
C56 C 0.95352 0.28748 0.75091 0.0
C57 C 0.98858 0.21512 0.78343 0.0
O58 O 0.06624 0.32086 0.76653 0.0
O59 O 0.01991 0.31663 0.77874 0.0
O60 O 0.96001 0.21989 0.77913 0.0
O61 O 0.02249 0.23573 0.77793 0.0
C62 C 0.00609 0.22001 0.74598 0.0
O63 O 0.94238 0.26935 0.76141 0.0
O64 O 0.98903 0.29663 0.74757 0.0
In65 In 0.73915 0.78001 0.76062 0.0
O66 O 0.7294 0.78694 0.73967 0.0
O67 O 0.78614 0.83006 0.74764 0.0
C68 C 0.66608 0.76286 0.77 0.0
C69 C 0.74014 0.71093 0.75501 0.0
C70 C 0.78218 0.82337 0.78093 0.0
O71 O 0.68411 0.78936 0.76148 0.0
O72 O 0.68408 0.74389 0.77332 0.0
O73 O 0.78618 0.79487 0.77638 0.0
O74 O 0.75813 0.83116 0.77496 0.0
C75 C 0.76477 0.81677 0.73782 0.0
O76 O 0.77188 0.74356 0.7582 0.0
O77 O 0.7077 0.71255 0.75533 0.0
In78 In 0.42708 0.32722 0.59302 0.0
O79 O 0.42219 0.30831 0.57244 0.0
O80 O 0.4801 0.3325 0.58119 0.0
C81 C 0.35443 0.26901 0.60222 0.0
C82 C 0.42321 0.39323 0.58532 0.0
C83 C 0.46778 0.32788 0.61399 0.0
O84 O 0.3755 0.26101 0.59484 0.0
O85 O 0.36901 0.30658 0.60442 0.0
O86 O 0.46871 0.35974 0.60989 0.0
O87 O 0.44832 0.29668 0.6072 0.0
C88 C 0.45956 0.32012 0.57119 0.0
O89 O 0.45254 0.3965 0.59192 0.0
O90 O 0.395 0.35698 0.58345 0.0
In91 In 0.70063 0.10358 0.59674 0.0
O92 O 0.66984 0.11818 0.6127 0.0
O93 O 0.72534 0.16655 0.60513 0.0
C94 C 0.64657 0.02847 0.58843 0.0
C95 C 0.75554 0.09212 0.60966 0.0
C96 C 0.69763 0.13674 0.57468 0.0
O97 O 0.63712 0.04642 0.59663 0.0
O98 O 0.68379 0.04711 0.58528 0.0
O99 O 0.7313 0.14247 0.57907 0.0
O100 O 0.66698 0.11661 0.58165 0.0
C101 C 0.69751 0.15542 0.61328 0.0
O102 O 0.76299 0.1073 0.59869 0.0
O103 O 0.72032 0.0815 0.61372 0.0
In104 In 0.96378 0.60277 0.59685 0.0
O105 O 0.92854 0.63654 0.59957 0.0
O106 O 0.99319 0.67052 0.60138 0.0
C107 C 0.92302 0.55626 0.57688 0.0
C108 C 0.94 0.56738 0.61984 0.0
C109 C 0.0361 0.62109 0.58676 0.0
O110 O 0.91865 0.58564 0.5804 0.0
O111 O 0.9453 0.54872 0.58389 0.0
O112 O 0.02151 0.59798 0.59626 0.0
O113 O 0.01558 0.63697 0.58299 0.0
C114 C 0.95986 0.67031 0.60219 0.0
O115 O 0.97539 0.59693 0.61771 0.0
O116 O 0.91772 0.55373 0.6102 0.0
In117 In 0.95758 0.36833 0.09647 0.0
O118 O 0.92477 0.29953 0.10059 0.0
O119 O 0.98823 0.3343 0.10446 0.0
C120 C 0.9182 0.35262 0.07413 0.0
C121 C 0.9287 0.38361 0.11779 0.0
C122 C 0.02528 0.43706 0.08852 0.0
O123 O 0.95094 0.35195 0.07553 0.0
O124 O 0.90443 0.35916 0.08408 0.0
O125 O 0.99274 0.43658 0.09142 0.0
O126 O 0.02427 0.40363 0.09031 0.0
C127 C 0.95592 0.29996 0.105 0.0
O128 O 0.96461 0.38979 0.11696 0.0
O129 O 0.90852 0.37218 0.1077 0.0
In130 In 0.67963 0.62192 0.09678 0.0
O131 O 0.70574 0.60067 0.08104 0.0
O132 O 0.64196 0.56519 0.08514 0.0
C133 C 0.75016 0.69062 0.10282 0.0
C134 C 0.62876 0.63996 0.08428 0.0
C135 C 0.66539 0.5826 0.1192 0.0
O136 O 0.74929 0.65858 0.09914 0.0
O137 O 0.71594 0.68869 0.10271 0.0
O138 O 0.65658 0.61016 0.11725 0.0
O139 O 0.67884 0.57344 0.1097 0.0
C140 C 0.67114 0.57063 0.07815 0.0
O141 O 0.62033 0.62417 0.09516 0.0
O142 O 0.66371 0.64929 0.08026 0.0
In143 In 0.41529 0.07747 0.10171 0.0
O144 O 0.45361 0.04867 0.09664 0.0
O145 O 0.38901 0.01059 0.09621 0.0
C146 C 0.46113 0.11664 0.12197 0.0
C147 C 0.43408 0.11256 0.07879 0.0
C148 C 0.3461 0.06961 0.11156 0.0
O149 O 0.44077 0.07823 0.12116 0.0
O150 O 0.46071 0.1355 0.1122 0.0
O151 O 0.36362 0.09241 0.10224 0.0
O152 O 0.36179 0.04906 0.11534 0.0
C153 C 0.42342 0.0141 0.09406 0.0
O154 O 0.40075 0.08015 0.08106 0.0
O155 O 0.4566 0.1288 0.08831 0.0
In156 In 0.05562 0.65499 0.93373 0.0
O157 O 0.05568 0.71477 0.93539 0.0
O158 O 0.01104 0.66848 0.92351 0.0
C159 C 0.10074 0.67308 0.95506 0.0
C160 C 0.09587 0.66674 0.91169 0.0
C161 C 0.99292 0.58049 0.94008 0.0
O162 O 0.06713 0.67229 0.95453 0.0
O163 O 0.11255 0.66657 0.94472 0.0
O164 O 0.02834 0.58652 0.93799 0.0
O165 O 0.98901 0.61122 0.93829 0.0
C166 C 0.0266 0.70445 0.92768 0.0
O167 O 0.07381 0.63143 0.91628 0.0
O168 O 0.09901 0.69534 0.91842 0.0
In169 In 0.35576 0.41531 0.92656 0.0
O170 O 0.42169 0.4261 0.92649 0.0
O171 O 0.38751 0.40774 0.94348 0.0
C172 C 0.3469 0.44815 0.90495 0.0
C173 C 0.34261 0.45662 0.94474 0.0
C174 C 0.3076 0.33654 0.91992 0.0
O175 O 0.38175 0.46055 0.90984 0.0
O176 O 0.31743 0.42067 0.9111 0.0
O177 O 0.29543 0.35516 0.9269 0.0
O178 O 0.34488 0.357 0.91689 0.0
C179 C 0.42086 0.41816 0.9381 0.0
O180 O 0.3233 0.41803 0.94424 0.0
O181 O 0.36638 0.47423 0.9356 0.0
In182 In 0.61274 0.96071 0.92407 0.0
O183 O 0.62745 0.95362 0.94454 0.0
O184 O 0.57209 0.90647 0.93668 0.0
C185 C 0.68646 0.97973 0.91465 0.0
C186 C 0.59737 0.01862 0.93259 0.0
C187 C 0.57215 0.92462 0.90267 0.0
O188 O 0.66548 0.94802 0.92122 0.0
O189 O 0.67142 0.00261 0.91358 0.0
O190 O 0.59361 0.96282 0.90384 0.0
O191 O 0.56914 0.90453 0.9125 0.0
C192 C 0.59429 0.92057 0.94635 0.0
O193 O 0.56923 0.98399 0.92906 0.0
O194 O 0.63302 0.02465 0.93115 0.0
In195 In 0.62735 0.68541 0.42807 0.0
O196 O 0.63934 0.7022 0.44897 0.0
O197 O 0.58273 0.69047 0.4413 0.0
C198 C 0.699 0.73919 0.41736 0.0
C199 C 0.62132 0.61249 0.43303 0.0
C200 C 0.58613 0.69552 0.40906 0.0
O201 O 0.68953 0.74461 0.42828 0.0
O202 O 0.6739 0.70562 0.41235 0.0
O203 O 0.58091 0.66071 0.41187 0.0
O204 O 0.60956 0.72406 0.41632 0.0
C205 C 0.6047 0.69818 0.45098 0.0
O206 O 0.59042 0.61611 0.43107 0.0
O207 O 0.65511 0.64505 0.43164 0.0
In208 In 0.3609 0.94739 0.43121 0.0
O209 O 0.37335 0.95784 0.41009 0.0
O210 O 0.36591 0.90292 0.41792 0.0
C211 C 0.43251 0.01367 0.43789 0.0
C212 C 0.28988 0.94463 0.42553 0.0
C213 C 0.3503 0.90695 0.45319 0.0
O214 O 0.4293 0.97961 0.43552 0.0
O215 O 0.40024 0.01502 0.43614 0.0
O216 O 0.34696 0.93836 0.45231 0.0
O217 O 0.35624 0.8945 0.44287 0.0
C218 C 0.37085 0.92386 0.40814 0.0
O219 O 0.29213 0.91284 0.42722 0.0
O220 O 0.32278 0.97764 0.42756 0.0
In221 In 0.0993 0.42954 0.42926 0.0
O222 O 0.09015 0.4337 0.40812 0.0
O223 O 0.1436 0.4818 0.41647 0.0
C224 C 0.03352 0.43385 0.43694 0.0
C225 C 0.10109 0.36154 0.4228 0.0
C226 C 0.14078 0.45587 0.45116 0.0
O227 O 0.06749 0.46516 0.43455 0.0
O228 O 0.03194 0.40044 0.43468 0.0
O229 O 0.10879 0.42142 0.4501 0.0
O230 O 0.15311 0.47586 0.44103 0.0
C231 C 0.12365 0.46638 0.40651 0.0
O232 O 0.1331 0.39495 0.42523 0.0
O233 O 0.06825 0.36189 0.42437 0.0
Zn234 Zn 0.03147 0.03358 0.13352 0.0
Zn235 Zn 0.00225 0.01305 0.1761 0.0
Zn236 Zn 0.01497 0.02335 0.15604 0.0
C237 C 0.01777 0.95542 0.17051 0.0
C238 C 0.06543 0.0867 0.17613 0.0
O239 O 0.98132 0.05355 0.14905 0.0
O240 O 0.00888 0.06936 0.13016 0.0
C241 C 0.98333 0.94934 0.13662 0.0
O242 O 9e-05 0.95987 0.16076 0.0
O243 O 0.03123 0.98256 0.17886 0.0
O244 O 0.03045 0.07163 0.18102 0.0
O245 O 0.0702 0.06785 0.16682 0.0
O246 O 0.99801 0.97607 0.12806 0.0
O247 O 0.98927 0.96062 0.14822 0.0
O248 O 0.08251 0.05958 0.15539 0.0
O249 O 0.09116 0.05711 0.13497 0.0
C250 C 0.10605 0.06654 0.14587 0.0
O251 O 0.96535 0.03569 0.16148 0.0
O252 O 0.94185 0.9825 0.17393 0.0
C253 C 0.98593 0.07134 0.13835 0.0
C254 C 0.93636 0.00896 0.16847 0.0
Zn255 Zn 0.04592 0.02939 0.35208 0.0
Zn256 Zn 0.01794 0.01594 0.39506 0.0
Zn257 Zn 0.03299 0.0232 0.37219 0.0
C258 C 0.0653 0.09955 0.3907 0.0
C259 C 0.94234 0.97693 0.38301 0.0
O260 O 0.04769 0.97546 0.36641 0.0
O261 O 0.01685 0.97026 0.34844 0.0
C262 C 0.11263 0.08974 0.36032 0.0
O263 O 0.0675 0.08654 0.37973 0.0
O264 O 0.04367 0.07442 0.39912 0.0
O265 O 0.95778 0.98244 0.39384 0.0
O266 O 0.96551 0.99254 0.37332 0.0
O267 O 0.10648 0.05933 0.35387 0.0
O268 O 0.0837 0.08609 0.36754 0.0
O269 O 0.97764 0.01383 0.36174 0.0
O270 O 0.01759 0.06028 0.34809 0.0
C271 C 0.98252 0.03911 0.35284 0.0
O272 O 0.05741 0.98427 0.37922 0.0
O273 O 0.04876 0.98819 0.39954 0.0
C274 C 0.03024 0.95512 0.35637 0.0
C275 C 0.06267 0.97671 0.39069 0.0
Zn276 Zn 0.00648 0.00793 0.89496 0.0
Zn277 Zn 0.01454 0.96744 0.85643 0.0
Zn278 Zn 0.01274 0.00085 0.87341 0.0
C279 C 0.99711 0.02725 0.8479 0.0
C280 C 0.93506 0.93716 0.85992 0.0
O281 O 0.00351 0.94379 0.88062 0.0
O282 O 0.98817 0.95019 0.9 0.0
C283 C 0.08574 0.06934 0.88812 0.0
O284 O 0.98215 0.01864 0.85913 0.0
O285 O 0.01761 0.0113 0.84415 0.0
O286 O 0.95644 0.91999 0.85946 0.0
O287 O 0.95238 0.97437 0.86391 0.0
O288 O 0.06476 0.05108 0.89772 0.0
O289 O 0.07076 0.05671 0.87714 0.0
O290 O 0.96088 0.01161 0.87236 0.0
O291 O 0.96502 0.02524 0.89264 0.0
C292 C 0.94866 0.02275 0.88206 0.0
O293 O 0.07339 0.03294 0.86497 0.0
O294 O 0.06938 0.97428 0.86102 0.0
C295 C 0.99227 0.92899 0.89162 0.0
C296 C 0.09069 0.01299 0.86135 0.0
Zn297 Zn 0.02638 0.96776 0.67243 0.0
Zn298 Zn 0.99819 0.00537 0.6334 0.0
Zn299 Zn 0.01174 0.99826 0.65538 0.0
C300 C 0.97476 0.92481 0.63529 0.0
C301 C 0.08217 0.05486 0.63653 0.0
O302 O 0.99391 0.0285 0.66842 0.0
O303 O 0.02674 0.01362 0.68269 0.0
C304 C 0.95403 0.90779 0.66901 0.0
O305 O 0.98122 0.93643 0.64684 0.0
O306 O 0.98128 0.95063 0.62678 0.0
O307 O 0.0538 0.04927 0.62909 0.0
O308 O 0.07314 0.03582 0.6471 0.0
O309 O 0.98101 0.91456 0.6771 0.0
O310 O 0.96306 0.93256 0.65958 0.0
O311 O 0.07816 0.02624 0.66131 0.0
O312 O 0.07946 0.97225 0.66822 0.0
C313 C 0.09827 0.01012 0.66606 0.0
O314 O 0.97626 0.03031 0.65643 0.0
O315 O 0.95581 0.01961 0.63665 0.0
C316 C 0.009 0.03315 0.67949 0.0
C317 C 0.95405 0.0318 0.6475 0.0
Zn318 Zn 0.68546 0.35432 0.50785 0.0
Zn319 Zn 0.69768 0.35043 0.46344 0.0
Zn320 Zn 0.69402 0.3521 0.48683 0.0
C321 C 0.7778 0.40082 0.47131 0.0
C322 C 0.66393 0.26995 0.47063 0.0
O323 O 0.65005 0.37283 0.49228 0.0
O324 O 0.67508 0.39995 0.51066 0.0
C325 C 0.76566 0.3858 0.50679 0.0
O326 O 0.76025 0.39079 0.48214 0.0
O327 O 0.75659 0.38785 0.46145 0.0
O328 O 0.67677 0.29188 0.46089 0.0
O329 O 0.6679 0.28691 0.4814 0.0
O330 O 0.73757 0.36255 0.51419 0.0
O331 O 0.75623 0.39052 0.4955 0.0
O332 O 0.66991 0.29012 0.49518 0.0
O333 O 0.63948 0.2987 0.51139 0.0
C334 C 0.64807 0.27573 0.5052 0.0
O335 O 0.65832 0.37922 0.47882 0.0
O336 O 0.66188 0.37166 0.45844 0.0
C337 C 0.64867 0.39153 0.50222 0.0
C338 C 0.64954 0.38404 0.46746 0.0
Zn339 Zn 0.71497 0.3778 0.72468 0.0
Zn340 Zn 0.68444 0.41251 0.6867 0.0
Zn341 Zn 0.7018 0.38353 0.70332 0.0
C342 C 0.61335 0.36705 0.69325 0.0
C343 C 0.75573 0.4746 0.68986 0.0
O344 O 0.74077 0.35542 0.7023 0.0
O345 O 0.76568 0.37694 0.72126 0.0
C346 C 0.6345 0.31921 0.72128 0.0
O347 O 0.63514 0.35241 0.6977 0.0
O348 O 0.63034 0.40501 0.69134 0.0
O349 O 0.72819 0.46644 0.68184 0.0
O350 O 0.7479 0.45037 0.69938 0.0
O351 O 0.66413 0.32559 0.72827 0.0
O352 O 0.64127 0.3418 0.71153 0.0
O353 O 0.72794 0.44521 0.71181 0.0
O354 O 0.71968 0.42804 0.73177 0.0
C355 C 0.72821 0.45483 0.72341 0.0
O356 O 0.72186 0.35558 0.69005 0.0
O357 O 0.68571 0.36782 0.67631 0.0
C358 C 0.76727 0.36181 0.7109 0.0
C359 C 0.70538 0.34994 0.67916 0.0
Zn360 Zn 0.69585 0.36423 0.22809 0.0
Zn361 Zn 0.6859 0.36879 0.18492 0.0
Zn362 Zn 0.68907 0.36674 0.20521 0.0
C363 C 0.67306 0.42716 0.19066 0.0
C364 C 0.62793 0.29467 0.1899 0.0
O365 O 0.72777 0.3385 0.20843 0.0
O366 O 0.72348 0.33197 0.22909 0.0
C367 C 0.73015 0.44662 0.22203 0.0
O368 O 0.69842 0.42746 0.19884 0.0
O369 O 0.652 0.39514 0.18435 0.0
O370 O 0.65894 0.30878 0.18291 0.0
O371 O 0.62785 0.31686 0.19903 0.0
O372 O 0.72724 0.42349 0.23103 0.0
O373 O 0.71545 0.43131 0.21118 0.0
O374 O 0.62499 0.32707 0.21174 0.0
O375 O 0.63701 0.33609 0.23209 0.0
C376 C 0.61178 0.32175 0.22313 0.0
O377 O 0.73785 0.35793 0.19657 0.0
O378 O 0.74586 0.40249 0.18202 0.0
C379 C 0.73492 0.32515 0.21874 0.0
C380 C 0.75958 0.38264 0.18771 0.0
Zn381 Zn 0.6665 0.31371 0.01651 0.0
Zn382 Zn 0.65858 0.33391 0.97045 0.0
Zn383 Zn 0.6612 0.3256 0.99414 0.0
C384 C 0.60713 0.25162 0.97502 0.0
C385 C 0.73872 0.3581 0.97503 0.0
O386 O 0.64303 0.36596 1.00374 0.0
O387 O 0.64033 0.34329 0.02302 0.0
C388 C 0.61061 0.23917 1.00958 0.0
O389 O 0.62047 0.26401 0.98622 0.0
O390 O 0.61734 0.27722 0.96619 0.0
O391 O 0.71516 0.35143 0.96583 0.0
O392 O 0.72429 0.35088 0.98631 0.0
O393 O 0.63534 0.25442 0.01858 0.0
O394 O 0.61528 0.26107 0.99972 0.0
O395 O 0.72643 0.34438 0.99914 0.0
O396 O 0.7246 0.33935 0.01982 0.0
C397 C 0.74464 0.34856 1.00976 0.0
O398 O 0.6356 0.36652 0.99053 0.0
O399 O 0.64169 0.37513 0.96994 0.0
C400 C 0.63559 0.36644 0.01552 0.0
C401 C 0.63099 0.38241 0.98035 0.0
Zn402 Zn 0.33853 0.6938 0.84747 0.0
Zn403 Zn 0.31624 0.68223 0.80351 0.0
Zn404 Zn 0.3253 0.68747 0.82508 0.0
C405 C 0.39473 0.70228 0.80563 0.0
C406 C 0.2608 0.60676 0.81118 0.0
O407 O 0.2884 0.71389 0.83265 0.0
O408 O 0.3048 0.71628 0.85266 0.0
C409 C 0.41382 0.74312 0.83866 0.0
O410 O 0.38716 0.71375 0.81618 0.0
O411 O 0.3655 0.68125 0.79825 0.0
O412 O 0.26407 0.63102 0.80254 0.0
O413 O 0.28602 0.62047 0.82051 0.0
O414 O 0.39667 0.73012 0.84911 0.0
O415 O 0.39287 0.73006 0.8284 0.0
O416 O 0.30198 0.62346 0.83273 0.0
O417 O 0.31884 0.63812 0.85269 0.0
C418 C 0.30378 0.61206 0.84406 0.0
O419 O 0.2952 0.72404 0.81962 0.0
O420 O 0.31382 0.73148 0.79979 0.0
C421 C 0.28454 0.72151 0.84421 0.0
C422 C 0.29887 0.74114 0.80879 0.0
Zn423 Zn 0.36884 0.6901 0.05568 0.0
Zn424 Zn 0.35468 0.71224 1.0133 0.0
Zn425 Zn 0.36204 0.70068 0.03309 0.0
C426 C 0.29214 0.71162 0.02197 0.0
C427 C 0.42883 0.77142 0.01703 0.0
O428 O 0.39195 0.66297 0.03374 0.0
O429 O 0.3993 0.66095 0.05429 0.0
C430 C 0.28589 0.65626 0.0522 0.0
O431 O 0.29839 0.68703 0.02879 0.0
O432 O 0.32169 0.73905 0.01581 0.0
O433 O 0.4121 0.74587 1.00833 0.0
O434 O 0.41056 0.76466 0.02773 0.0
O435 O 0.31105 0.65933 0.06052 0.0
O436 O 0.29877 0.67115 0.04114 0.0
O437 O 0.40153 0.76332 0.04059 0.0
O438 O 0.39929 0.74807 0.06071 0.0
C439 C 0.41025 0.77466 0.05214 0.0
O440 O 0.37137 0.65665 0.02194 0.0
O441 O 0.3264 0.65391 1.00835 0.0
C442 C 0.40562 0.65273 0.04335 0.0
C443 C 0.34668 0.63853 1.01272 0.0
Zn444 Zn 0.37438 0.68532 0.55772 0.0
Zn445 Zn 0.37847 0.68431 0.51654 0.0
Zn446 Zn 0.37635 0.68428 0.53689 0.0
C447 C 0.37316 0.74959 0.52155 0.0
C448 C 0.31177 0.61514 0.52131 0.0
O449 O 0.4042 0.64754 0.54334 0.0
O450 O 0.36827 0.63128 0.56071 0.0
C451 C 0.43618 0.76027 0.55204 0.0
O452 O 0.39492 0.7474 0.53053 0.0
O453 O 0.35315 0.71889 0.51461 0.0
O454 O 0.34354 0.62385 0.51514 0.0
O455 O 0.31395 0.6403 0.5298 0.0
O456 O 0.42886 0.73341 0.56026 0.0
O457 O 0.41346 0.75013 0.54214 0.0
O458 O 0.31034 0.65606 0.54138 0.0
O459 O 0.32612 0.69211 0.55871 0.0
C460 C 0.2998 0.6709 0.55053 0.0
O461 O 0.42084 0.66514 0.53131 0.0
O462 O 0.43888 0.71021 0.51612 0.0
C463 C 0.39031 0.62496 0.55325 0.0
C464 C 0.44703 0.68794 0.52293 0.0
Zn465 Zn 0.36112 0.69878 0.29929 0.0
Zn466 Zn 0.34592 0.69408 0.34491 0.0
Zn467 Zn 0.35683 0.6978 0.32295 0.0
C468 C 0.42869 0.73293 0.34312 0.0
C469 C 0.30584 0.61563 0.33989 0.0
O470 O 0.33107 0.73543 0.31561 0.0
O471 O 0.33739 0.73289 0.29511 0.0
C472 C 0.44138 0.73392 0.30763 0.0
O473 O 0.41819 0.72013 0.33176 0.0
O474 O 0.402 0.73048 0.35066 0.0
O475 O 0.32411 0.63669 0.34937 0.0
O476 O 0.31235 0.63308 0.32902 0.0
O477 O 0.42043 0.72396 0.29768 0.0
O478 O 0.42333 0.72601 0.31838 0.0
O479 O 0.321 0.63313 0.31602 0.0
O480 O 0.32818 0.64048 0.29545 0.0
C481 C 0.31422 0.61743 0.30492 0.0
O482 O 0.33578 0.74075 0.32914 0.0
O483 O 0.30878 0.71551 0.34761 0.0
C484 C 0.32566 0.74481 0.3044 0.0
C485 C 0.31729 0.74194 0.33916 0.0
C486 C 0.23029 0.25878 0.22264 0.0
C487 C 0.21981 0.23728 0.23407 0.0
C488 C 0.21087 0.23934 0.21136 0.0
C489 C 0.18012 0.19755 0.21156 0.0
C490 C 0.16976 0.17573 0.22307 0.0
C491 C 0.18975 0.19581 0.23415 0.0
C492 C 0.22288 0.26354 0.19928 0.0
C493 C 0.13693 0.13121 0.22375 0.0
C494 C 0.09122 0.14905 0.18903 0.0
C495 C 0.09966 0.12236 0.18235 0.0
C496 C 0.1189 0.17634 0.19784 0.0
C497 C 0.15604 0.17697 0.20006 0.0
C498 C 0.16651 0.15294 0.19245 0.0
C499 C 0.1381 0.12583 0.18362 0.0
C500 C 0.10648 0.20156 0.20561 0.0
C501 C 0.20608 0.15318 0.19438 0.0
H502 H 0.25384 0.29075 0.2225 0.0
H503 H 0.18166 0.17893 0.24293 0.0
H504 H 0.2308 0.24767 0.19205 0.0
H505 H 0.19668 0.26582 0.19559 0.0
H506 H 0.24928 0.2949 0.20055 0.0
H507 H 0.13366 0.11824 0.23334 0.0
H508 H 0.10712 0.12764 0.22087 0.0
H509 H 0.144 0.11305 0.21715 0.0
H510 H 0.06165 0.14675 0.18794 0.0
H511 H 0.14471 0.10522 0.17846 0.0
H512 H 0.13205 0.23349 0.20641 0.0
H513 H 0.09862 0.18867 0.21525 0.0
H514 H 0.07955 0.20188 0.20158 0.0
H515 H 0.23183 0.18475 0.19581 0.0
H516 H 0.21323 0.1394 0.1863 0.0
H517 H 0.20368 0.13532 0.20295 0.0
C518 C 0.78511 0.01971 0.21814 0.0
C519 C 0.80661 0.02024 0.22896 0.0
C520 C 0.80115 0.02162 0.20609 0.0
C521 C 0.83882 0.02258 0.20487 0.0
C522 C 0.86052 0.02302 0.21582 0.0
C523 C 0.84447 0.02259 0.22773 0.0
C524 C 0.77793 0.02277 0.1947 0.0
C525 C 0.90039 0.02315 0.21498 0.0
C526 C 0.86757 0.97887 0.17771 0.0
C527 C 0.90249 0.01383 0.17322 0.0
C528 C 0.84383 0.98152 0.18731 0.0
C529 C 0.8547 0.02026 0.19228 0.0
C530 C 0.88607 0.05601 0.18641 0.0
C531 C 0.90995 0.05238 0.17695 0.0
C532 C 0.81081 0.94249 0.19323 0.0
C533 C 0.89748 0.09799 0.19103 0.0
H534 H 0.75619 0.0188 0.2191 0.0
H535 H 0.86118 0.02327 0.2361 0.0
H536 H 0.79828 0.04901 0.18859 0.0
H537 H 0.76737 0.99465 0.18907 0.0
H538 H 0.75092 0.02534 0.19727 0.0
H539 H 0.91306 0.02283 0.22438 0.0
H540 H 0.89582 0.99603 0.20967 0.0
H541 H 0.92331 0.05066 0.20981 0.0
H542 H 0.86162 0.949 0.17476 0.0
H543 H 0.93698 0.07952 0.17357 0.0
H544 H 0.7832 0.94449 0.19526 0.0
H545 H 0.82216 0.9374 0.20229 0.0
H546 H 0.80193 0.91557 0.18713 0.0
H547 H 0.86996 0.09927 0.19382 0.0
H548 H 0.9144 0.12168 0.18375 0.0
H549 H 0.91747 0.10546 0.19941 0.0
C550 C 0.04038 0.86144 0.22617 0.0
C551 C 0.04251 0.82576 0.22734 0.0
C552 C 0.0365 0.87569 0.21436 0.0
C553 C 0.03429 0.85353 0.2034 0.0
C554 C 0.03725 0.81788 0.20448 0.0
C555 C 0.04144 0.80445 0.21645 0.0
C556 C 0.03411 0.91428 0.21367 0.0
C557 C 0.03472 0.79323 0.19307 0.0
C558 C 0.98531 0.88439 0.17808 0.0
C559 C 0.01997 0.91859 0.17321 0.0
C560 C 0.98935 0.85902 0.18696 0.0
C561 C 0.02892 0.86847 0.19095 0.0
C562 C 0.06363 0.89919 0.18456 0.0
C563 C 0.05867 0.92397 0.17575 0.0
C564 C 0.95144 0.82579 0.19325 0.0
C565 C 0.10635 0.9099 0.18828 0.0
H566 H 0.04117 0.878 0.23454 0.0
H567 H 0.04264 0.77657 0.2173 0.0
H568 H 0.05864 0.93701 0.20748 0.0
H569 H 0.00443 0.90746 0.20952 0.0
H570 H 0.03718 0.92833 0.22304 0.0
H571 H 0.04297 0.76961 0.19528 0.0
H572 H 0.00308 0.77776 0.18933 0.0
H573 H 0.05513 0.81336 0.18552 0.0
H574 H 0.95539 0.8805 0.17621 0.0
H575 H 0.0855 0.95069 0.17202 0.0
H576 H 0.94725 0.83711 0.2024 0.0
H577 H 0.95432 0.79854 0.19514 0.0
H578 H 0.92373 0.81654 0.18744 0.0
H579 H 0.11521 0.92851 0.19698 0.0
H580 H 0.1289 0.9279 0.18084 0.0
H581 H 0.108 0.88203 0.19029 0.0
C582 C 0.27065 0.25794 0.31321 0.0
C583 C 0.25035 0.23604 0.30237 0.0
C584 C 0.25484 0.24282 0.32526 0.0
C585 C 0.21818 0.20478 0.32645 0.0
C586 C 0.19798 0.18241 0.3155 0.0
C587 C 0.21417 0.19844 0.30363 0.0
C588 C 0.27684 0.26787 0.33666 0.0
C589 C 0.15912 0.14137 0.31629 0.0
C590 C 0.1841 0.13021 0.35325 0.0
C591 C 0.14807 0.12942 0.35676 0.0
C592 C 0.21068 0.15852 0.34439 0.0
C593 C 0.20094 0.18677 0.339 0.0
C594 C 0.16814 0.19017 0.34402 0.0
C595 C 0.14187 0.16123 0.35288 0.0
C596 C 0.24559 0.15405 0.33952 0.0
C597 C 0.15745 0.22072 0.33885 0.0
H598 H 0.29837 0.28734 0.31226 0.0
H599 H 0.19833 0.18144 0.2953 0.0
H600 H 0.25752 0.27824 0.34132 0.0
H601 H 0.28219 0.2491 0.34359 0.0
H602 H 0.30664 0.29513 0.33422 0.0
H603 H 0.14747 0.12779 0.30689 0.0
H604 H 0.16455 0.11977 0.32188 0.0
H605 H 0.13501 0.14458 0.32113 0.0
H606 H 0.189 0.10567 0.35632 0.0
H607 H 0.11395 0.16062 0.35552 0.0
H608 H 0.2729 0.18429 0.33762 0.0
H609 H 0.23631 0.13692 0.33054 0.0
H610 H 0.25411 0.13707 0.34625 0.0
H611 H 0.18539 0.25018 0.33666 0.0
H612 H 0.13836 0.22628 0.34555 0.0
H613 H 0.1399 0.20872 0.33 0.0
C614 C 0.81958 0.05305 0.30708 0.0
C615 C 0.8314 0.04572 0.29535 0.0
C616 C 0.83874 0.05118 0.31822 0.0
C617 C 0.87064 0.04206 0.31759 0.0
C618 C 0.88266 0.03471 0.30575 0.0
C619 C 0.86286 0.03653 0.29481 0.0
C620 C 0.82495 0.05902 0.33065 0.0
C621 C 0.91679 0.02527 0.3046 0.0
C622 C 0.9567 0.07803 0.34112 0.0
C623 C 0.94839 0.04122 0.34683 0.0
C624 C 0.92982 0.07932 0.33231 0.0
C625 C 0.89368 0.04279 0.32908 0.0
C626 C 0.88321 0.00621 0.33571 0.0
C627 C 0.91077 0.00585 0.34458 0.0
C628 C 0.94216 0.11911 0.32562 0.0
C629 C 0.84469 0.96672 0.33268 0.0
H630 H 0.79496 0.05971 0.30759 0.0
H631 H 0.87202 0.0306 0.28579 0.0
H632 H 0.8161 0.03278 0.33709 0.0
H633 H 0.85052 0.08629 0.33517 0.0
H634 H 0.79864 0.06408 0.32961 0.0
H635 H 0.92167 0.01918 0.29475 0.0
H636 H 0.94572 0.05135 0.30818 0.0
H637 H 0.90994 0.99821 0.31042 0.0
H638 H 0.98568 0.10554 0.34294 0.0
H639 H 0.90433 0.97732 0.34895 0.0
H640 H 0.91603 0.12451 0.325 0.0
H641 H 0.95168 0.11761 0.31589 0.0
H642 H 0.96797 0.14558 0.3304 0.0
H643 H 0.81842 0.97173 0.33156 0.0
H644 H 0.83728 0.94319 0.34006 0.0
H645 H 0.84873 0.95472 0.32364 0.0
C646 C 0.01692 0.84757 0.29892 0.0
C647 C 0.01418 0.80954 0.2976 0.0
C648 C 0.01963 0.86451 0.31082 0.0
C649 C 0.02 0.84308 0.32173 0.0
C650 C 0.01678 0.80439 0.32049 0.0
C651 C 0.01377 0.788 0.30843 0.0
C652 C 0.02245 0.90565 0.31168 0.0
C653 C 0.01738 0.78078 0.33185 0.0
C654 C 0.0641 0.91862 0.34838 0.0
C655 C 0.02856 0.91692 0.35282 0.0
C656 C 0.06178 0.8911 0.33913 0.0
C657 C 0.02304 0.86157 0.33432 0.0
C658 C 0.98715 0.85626 0.34015 0.0
C659 C 0.9904 0.88412 0.34934 0.0
C660 C 0.10084 0.8972 0.33341 0.0
C661 C 0.9452 0.82495 0.33551 0.0
H662 H 0.01734 0.86439 0.2906 0.0
H663 H 0.01209 0.75873 0.30747 0.0
H664 H 0.99692 0.90311 0.31745 0.0
H665 H 0.05139 0.92783 0.31638 0.0
H666 H 0.02135 0.91809 0.30231 0.0
H667 H 0.01184 0.74996 0.32936 0.0
H668 H 0.04749 0.79789 0.3366 0.0
H669 H 0.99391 0.77733 0.33873 0.0
H670 H 0.09362 0.94429 0.35096 0.0
H671 H 0.96291 0.88309 0.35273 0.0
H672 H 0.1069 0.91472 0.32452 0.0
H673 H 0.0983 0.86748 0.33115 0.0
H674 H 0.12734 0.9145 0.33979 0.0
H675 H 0.93837 0.83634 0.32674 0.0
H676 H 0.92115 0.8191 0.34251 0.0
H677 H 0.94372 0.79567 0.3333 0.0
C678 C 0.84083 0.85352 0.79597 0.0
C679 C 0.80077 0.84316 0.793 0.0
C680 C 0.85805 0.87086 0.80765 0.0
C681 C 0.83391 0.87607 0.81681 0.0
C682 C 0.79328 0.86544 0.81383 0.0
C683 C 0.77748 0.84989 0.80185 0.0
C684 C 0.90202 0.88326 0.81025 0.0
C685 C 0.76605 0.86902 0.82344 0.0
C686 C 0.87595 0.87863 0.84933 0.0
C687 C 0.89877 0.92072 0.85162 0.0
C688 C 0.85133 0.86336 0.83856 0.0
C689 C 0.85099 0.89097 0.82961 0.0
C690 C 0.87118 0.93323 0.83242 0.0
C691 C 0.89377 0.94738 0.8436 0.0
C692 C 0.82844 0.81788 0.8363 0.0
C693 C 0.87287 0.96413 0.82307 0.0
H694 H 0.85882 0.84843 0.78908 0.0
H695 H 0.74624 0.84134 0.79959 0.0
H696 H 0.91906 0.9152 0.8137 0.0
H697 H 0.90339 0.86346 0.81771 0.0
H698 H 0.91769 0.88087 0.80177 0.0
H699 H 0.73558 0.8606 0.81953 0.0
H700 H 0.76169 0.84869 0.83154 0.0
H701 H 0.78059 0.90064 0.8271 0.0
H702 H 0.87941 0.85782 0.85555 0.0
H703 H 0.91075 0.97987 0.84538 0.0
H704 H 0.84489 0.81028 0.82919 0.0
H705 H 0.79738 0.80772 0.83258 0.0
H706 H 0.82564 0.80042 0.84501 0.0
H707 H 0.89463 0.96822 0.81547 0.0
H708 H 0.88341 0.99437 0.82747 0.0
H709 H 0.84265 0.95351 0.81865 0.0
C710 C 0.26797 0.0929 0.80922 0.0
C711 C 0.24343 0.07661 0.79849 0.0
C712 C 0.25049 0.09135 0.821 0.0
C713 C 0.2075 0.07259 0.82207 0.0
C714 C 0.18292 0.05843 0.81112 0.0
C715 C 0.2012 0.06077 0.79947 0.0
C716 C 0.27786 0.10768 0.83237 0.0
C717 C 0.13694 0.03837 0.81179 0.0
C718 C 0.14684 0.01047 0.85006 0.0
C719 C 0.12988 0.03362 0.85438 0.0
C720 C 0.17521 0.02455 0.84021 0.0
C721 C 0.18727 0.06295 0.83461 0.0
C722 C 0.17414 0.08856 0.83996 0.0
C723 C 0.14548 0.07355 0.8498 0.0
C724 C 0.18882 0.99639 0.83495 0.0
C725 C 0.18725 0.13022 0.83456 0.0
H726 H 0.30069 0.10544 0.80851 0.0
H727 H 0.18206 0.04835 0.79122 0.0
H728 H 0.26785 0.12434 0.83862 0.0
H729 H 0.27606 0.08185 0.83784 0.0
H730 H 0.31027 0.12845 0.8297 0.0
H731 H 0.12252 0.03153 0.80234 0.0
H732 H 0.12433 0.00934 0.81716 0.0
H733 H 0.12813 0.05834 0.81682 0.0
H734 H 0.13549 0.97985 0.8537 0.0
H735 H 0.13292 0.09191 0.85316 0.0
H736 H 0.2223 0.01312 0.83336 0.0
H737 H 0.1738 0.98449 0.82573 0.0
H738 H 0.18088 0.97001 0.84126 0.0
H739 H 0.21984 0.14605 0.8317 0.0
H740 H 0.18269 0.14968 0.84138 0.0
H741 H 0.16875 0.12681 0.82606 0.0
C742 C 0.01837 0.19283 0.80035 0.0
C743 C 0.98358 0.18747 0.79399 0.0
C744 C 0.01545 0.16573 0.80982 0.0
C745 C 0.97679 0.1319 0.8129 0.0
C746 C 0.94129 0.12683 0.80675 0.0
C747 C 0.94507 0.15497 0.7974 0.0
C748 C 0.05406 0.17263 0.81624 0.0
C749 C 0.89964 0.09086 0.80969 0.0
C750 C 0.98786 0.04515 0.82606 0.0
C751 C 0.98651 0.05058 0.83903 0.0
C752 C 0.98156 0.06946 0.81743 0.0
C753 C 0.97462 0.1006 0.82187 0.0
C754 C 0.97101 0.10475 0.83495 0.0
C755 C 0.97662 0.07934 0.8434 0.0
C756 C 0.98462 0.06325 0.80357 0.0
C757 C 0.96384 0.13767 0.84007 0.0
H758 H 0.04818 0.21816 0.79783 0.0
H759 H 0.91812 0.15072 0.79247 0.0
H760 H 0.0506 0.17236 0.82659 0.0
H761 H 0.05981 0.14751 0.81383 0.0
H762 H 0.08122 0.20206 0.81345 0.0
H763 H 0.87478 0.093 0.80483 0.0
H764 H 0.89837 0.06219 0.80674 0.0
H765 H 0.89394 0.08854 0.81995 0.0
H766 H 0.99456 0.02226 0.82264 0.0
H767 H 0.97521 0.08332 0.85343 0.0
H768 H 0.01332 0.08916 0.79979 0.0
H769 H 0.95883 0.0626 0.7984 0.0
H770 H 0.9846 0.03446 0.80164 0.0
H771 H 0.9919 0.16786 0.8388 0.0
H772 H 0.95608 0.13323 0.85023 0.0
H773 H 0.93886 0.13849 0.83487 0.0
C774 C 0.82192 0.86334 0.7236 0.0
C775 C 0.7822 0.83019 0.72506 0.0
C776 C 0.84195 0.87185 0.71195 0.0
C777 C 0.82188 0.84643 0.70149 0.0
C778 C 0.7808 0.81453 0.7027 0.0
C779 C 0.76142 0.8068 0.71448 0.0
C780 C 0.88555 0.9067 0.71107 0.0
C781 C 0.75812 0.7869 0.69182 0.0
C782 C 0.88333 0.89383 0.67194 0.0
C783 C 0.91114 0.87972 0.67268 0.0
C784 C 0.85081 0.88007 0.68053 0.0
C785 C 0.84586 0.85115 0.68986 0.0
C786 C 0.87004 0.83235 0.6893 0.0
C787 C 0.9025 0.84697 0.68072 0.0
C788 C 0.8252 0.90026 0.68056 0.0
C789 C 0.86511 0.80049 0.69879 0.0
H790 H 0.8381 0.88165 0.7317 0.0
H791 H 0.73069 0.78104 0.71552 0.0
H792 H 0.90625 0.89439 0.70945 0.0
H793 H 0.88903 0.92679 0.70299 0.0
H794 H 0.8956 0.9255 0.71973 0.0
H795 H 0.72458 0.76978 0.69342 0.0
H796 H 0.76458 0.80456 0.68295 0.0
H797 H 0.76844 0.76446 0.69058 0.0
H798 H 0.88986 0.91926 0.66577 0.0
H799 H 0.92381 0.83584 0.68126 0.0
H800 H 0.83717 0.92458 0.68779 0.0
H801 H 0.79294 0.87802 0.68294 0.0
H802 H 0.82619 0.91449 0.67132 0.0
H803 H 0.87786 0.81547 0.70795 0.0
H804 H 0.8813 0.78427 0.69586 0.0
H805 H 0.83235 0.7777 0.70025 0.0
C806 C 0.19602 0.01681 0.72804 0.0
C807 C 0.23235 0.0505 0.73227 0.0
C808 C 0.17934 0.01757 0.71629 0.0
C809 C 0.20039 0.05224 0.70834 0.0
C810 C 0.23756 0.08606 0.7125 0.0
C811 C 0.25268 0.08508 0.72451 0.0
C812 C 0.139 0.98129 0.71241 0.0
C813 C 0.26174 0.12288 0.70417 0.0
C814 C 0.16469 0.02298 0.67471 0.0
C815 C 0.13519 0.03478 0.67373 0.0
C816 C 0.18947 0.03241 0.68546 0.0
C817 C 0.18324 0.05249 0.69569 0.0
C818 C 0.15615 0.06777 0.69422 0.0
C819 C 0.1332 0.05957 0.68311 0.0
C820 C 0.21947 0.01738 0.68633 0.0
C821 C 0.14754 0.08839 0.70491 0.0
H822 H 0.18024 0.99013 0.73405 0.0
H823 H 0.28111 0.11101 0.72771 0.0
H824 H 0.11709 0.99142 0.7098 0.0
H825 H 0.14336 0.96669 0.70401 0.0
H826 H 0.12524 0.95798 0.71998 0.0
H827 H 0.29039 0.14644 0.70873 0.0
H828 H 0.26966 0.11335 0.69528 0.0
H829 H 0.24307 0.13688 0.70165 0.0
H830 H 0.16609 0.00355 0.66752 0.0
H831 H 0.11003 0.06829 0.68248 0.0
H832 H 0.20627 0.9893 0.69219 0.0
H833 H 0.24831 0.04055 0.69087 0.0
H834 H 0.22667 0.01004 0.67693 0.0
H835 H 0.12868 0.0651 0.71207 0.0
H836 H 0.13065 0.10374 0.70173 0.0
H837 H 0.17623 0.11123 0.70956 0.0
C838 C 0.97285 0.15528 0.73374 0.0
C839 C 0.00655 0.19452 0.73558 0.0
C840 C 0.97226 0.13038 0.72395 0.0
C841 C 0.00615 0.1451 0.71576 0.0
C842 C 0.03997 0.18501 0.71741 0.0
C843 C 0.03982 0.20926 0.72734 0.0
C844 C 0.9358 0.08787 0.7226 0.0
C845 C 0.07661 0.20175 0.70883 0.0
C846 C 0.02394 0.06515 0.70067 0.0
C847 C 0.00755 0.06184 0.68859 0.0
C848 C 0.02406 0.09245 0.70949 0.0
C849 C 0.00751 0.11735 0.70619 0.0
C850 C 0.99114 0.11451 0.694 0.0
C851 C 0.99126 0.08665 0.68533 0.0
C852 C 0.04158 0.09429 0.72241 0.0
C853 C 0.97347 0.1408 0.69013 0.0
H854 H 0.94693 0.14376 0.74004 0.0
H855 H 0.06579 0.23968 0.72866 0.0
H856 H 0.92341 0.08324 0.71291 0.0
H857 H 0.94534 0.06494 0.72424 0.0
H858 H 0.91097 0.08188 0.72931 0.0
H859 H 0.09912 0.23429 0.71081 0.0
H860 H 0.09204 0.18364 0.70995 0.0
H861 H 0.06676 0.19899 0.69888 0.0
H862 H 0.03679 0.04628 0.7033 0.0
H863 H 0.97878 0.08448 0.676 0.0
H864 H 0.01751 0.08581 0.72962 0.0
H865 H 0.06631 0.12588 0.72447 0.0
H866 H 0.05415 0.07351 0.72336 0.0
H867 H 0.94713 0.13414 0.69623 0.0
H868 H 0.96306 0.13578 0.68019 0.0
H869 H 0.99664 0.17353 0.69139 0.0
C870 C 0.93278 0.52761 0.5571 0.0
C871 C 0.90739 0.53527 0.56478 0.0
C872 C 0.9189 0.50787 0.54548 0.0
C873 C 0.87802 0.49369 0.54178 0.0
C874 C 0.85249 0.502 0.54946 0.0
C875 C 0.86785 0.52354 0.56075 0.0
C876 C 0.94775 0.50147 0.53735 0.0
C877 C 0.80839 0.48662 0.54604 0.0
C878 C 0.82778 0.45421 0.51005 0.0
C879 C 0.80623 0.41214 0.51249 0.0
C880 C 0.85517 0.4816 0.51904 0.0
C881 C 0.86016 0.4663 0.5307 0.0
C882 C 0.84242 0.42364 0.5324 0.0
C883 C 0.81634 0.39715 0.52315 0.0
C884 C 0.87553 0.52686 0.51655 0.0
C885 C 0.84662 0.40569 0.54463 0.0
H886 H 0.96378 0.53758 0.56012 0.0
H887 H 0.84843 0.52979 0.56668 0.0
H888 H 0.94089 0.46949 0.5383 0.0
H889 H 0.94398 0.50683 0.5273 0.0
H890 H 0.98016 0.52201 0.54009 0.0
H891 H 0.79275 0.49586 0.55297 0.0
H892 H 0.80649 0.49846 0.53667 0.0
H893 H 0.79162 0.45277 0.54546 0.0
H894 H 0.82028 0.46596 0.50179 0.0
H895 H 0.80005 0.36451 0.52496 0.0
H896 H 0.90695 0.54312 0.52049 0.0
H897 H 0.8578 0.53921 0.52115 0.0
H898 H 0.877 0.53352 0.50633 0.0
H899 H 0.87908 0.4203 0.54753 0.0
H900 H 0.83402 0.37219 0.54401 0.0
H901 H 0.82996 0.41158 0.55213 0.0
C902 C 0.46249 0.33504 0.54825 0.0
C903 C 0.47895 0.32585 0.55875 0.0
C904 C 0.48376 0.34706 0.53679 0.0
C905 C 0.52185 0.34885 0.53573 0.0
C906 C 0.5375 0.33748 0.54615 0.0
C907 C 0.5162 0.32684 0.55759 0.0
C908 C 0.46653 0.35994 0.52607 0.0
C909 C 0.57743 0.33774 0.54534 0.0
C910 C 0.5745 0.34908 0.50561 0.0
C911 C 0.60978 0.38776 0.50631 0.0
C912 C 0.54322 0.33672 0.51455 0.0
C913 C 0.54681 0.36435 0.52406 0.0
C914 C 0.57918 0.40545 0.52348 0.0
C915 C 0.61067 0.41655 0.5147 0.0
C916 C 0.50945 0.29261 0.51478 0.0
C917 C 0.58319 0.43646 0.53306 0.0
H918 H 0.43396 0.33498 0.54918 0.0
H919 H 0.52897 0.31981 0.56571 0.0
H920 H 0.48523 0.39354 0.52481 0.0
H921 H 0.46793 0.34575 0.51714 0.0
H922 H 0.43437 0.35177 0.52779 0.0
H923 H 0.58351 0.32471 0.55389 0.0
H924 H 0.57728 0.31996 0.53706 0.0
H925 H 0.60299 0.36954 0.54409 0.0
H926 H 0.57379 0.32655 0.4992 0.0
H927 H 0.63791 0.4465 0.51525 0.0
H928 H 0.47979 0.28977 0.51736 0.0
H929 H 0.5167 0.27592 0.52198 0.0
H930 H 0.5061 0.27758 0.50557 0.0
H931 H 0.55305 0.43347 0.53501 0.0
H932 H 0.60471 0.46818 0.52989 0.0
H933 H 0.5949 0.43109 0.54201 0.0
C934 C 0.71719 0.19052 0.55818 0.0
C935 C 0.69285 0.15 0.56208 0.0
C936 C 0.70783 0.20442 0.54708 0.0
C937 C 0.67418 0.17667 0.53957 0.0
C938 C 0.65177 0.13494 0.54301 0.0
C939 C 0.66081 0.1223 0.55438 0.0
C940 C 0.73216 0.24932 0.54385 0.0
C941 C 0.61691 0.104 0.53505 0.0
C942 C 0.62224 0.22678 0.52304 0.0
C943 C 0.64369 0.23896 0.51164 0.0
C944 C 0.63025 0.20442 0.53196 0.0
C945 C 0.65929 0.1925 0.52922 0.0
C946 C 0.67675 0.19976 0.51706 0.0
C947 C 0.669 0.22327 0.50841 0.0
C948 C 0.61069 0.19731 0.54477 0.0
C949 C 0.70617 0.18567 0.51352 0.0
H950 H 0.74185 0.21184 0.56419 0.0
H951 H 0.64227 0.09075 0.55738 0.0
H952 H 0.74354 0.25359 0.53406 0.0
H953 H 0.71214 0.26281 0.54447 0.0
H954 H 0.75866 0.26642 0.55024 0.0
H955 H 0.60844 0.07221 0.53757 0.0
H956 H 0.5897 0.10727 0.53643 0.0
H957 H 0.62495 0.1091 0.52493 0.0
H958 H 0.60203 0.23813 0.52553 0.0
H959 H 0.68539 0.23208 0.49956 0.0
H960 H 0.6345 0.21535 0.55187 0.0
H961 H 0.59642 0.16471 0.54748 0.0
H962 H 0.58698 0.20632 0.54513 0.0
H963 H 0.7367 0.2069 0.51755 0.0
H964 H 0.70943 0.18511 0.50317 0.0
H965 H 0.69605 0.15475 0.51736 0.0
C966 C 0.9448 0.57865 0.64314 0.0
C967 C 0.9236 0.55447 0.63274 0.0
C968 C 0.92625 0.5711 0.65505 0.0
C969 C 0.8856 0.53856 0.65658 0.0
C970 C 0.86517 0.51246 0.64628 0.0
C971 C 0.88434 0.52084 0.6345 0.0
C972 C 0.94929 0.59951 0.66575 0.0
C973 C 0.82203 0.47692 0.6475 0.0
C974 C 0.82702 0.49093 0.68655 0.0
C975 C 0.79816 0.50374 0.68601 0.0
C976 C 0.85901 0.50534 0.67775 0.0
C977 C 0.86237 0.53362 0.6684 0.0
C978 C 0.83718 0.55126 0.66916 0.0
C979 C 0.80525 0.53599 0.67795 0.0
C980 C 0.88573 0.48639 0.6775 0.0
C981 C 0.84041 0.58244 0.65966 0.0
H982 H 0.97516 0.60482 0.64186 0.0
H983 H 0.86785 0.50193 0.62652 0.0
H984 H 0.93827 0.62138 0.66703 0.0
H985 H 0.94392 0.58238 0.67469 0.0
H986 H 0.98268 0.61726 0.6639 0.0
H987 H 0.81167 0.45776 0.63891 0.0
H988 H 0.81975 0.45735 0.65559 0.0
H989 H 0.80082 0.48851 0.64928 0.0
H990 H 0.82168 0.46589 0.69273 0.0
H991 H 0.78311 0.54612 0.67756 0.0
H992 H 0.91759 0.50926 0.6749 0.0
H993 H 0.87386 0.46185 0.67034 0.0
H994 H 0.8859 0.47267 0.68674 0.0
H995 H 0.87283 0.60581 0.65796 0.0
H996 H 0.82373 0.59801 0.66275 0.0
H997 H 0.82715 0.56699 0.6506 0.0
C998 C 0.46404 0.29075 0.6338 0.0
C999 C 0.48472 0.32601 0.62634 0.0
C1000 C 0.47805 0.28912 0.64592 0.0
C1001 C 0.51445 0.32299 0.65048 0.0
C1002 C 0.53601 0.35825 0.6428 0.0
C1003 C 0.52038 0.35965 0.63093 0.0
C1004 C 0.45334 0.25167 0.65396 0.0
C1005 C 0.57565 0.39461 0.64712 0.0
C1006 C 0.54658 0.35187 0.6843 0.0
C1007 C 0.57692 0.34129 0.68553 0.0
C1008 C 0.52246 0.34185 0.67339 0.0
C1009 C 0.53017 0.32235 0.66331 0.0
C1010 C 0.55778 0.30786 0.66509 0.0
C1011 C 0.58009 0.31664 0.67634 0.0
C1012 C 0.49179 0.35593 0.67217 0.0
C1013 C 0.56783 0.28777 0.65457 0.0
H1014 H 0.43606 0.26489 0.63031 0.0
H1015 H 0.53636 0.38685 0.62515 0.0
H1016 H 0.47235 0.23846 0.65693 0.0
H1017 H 0.44337 0.26031 0.66263 0.0
H1018 H 0.42587 0.22778 0.64899 0.0
H1019 H 0.59013 0.41829 0.63968 0.0
H1020 H 0.57003 0.40866 0.65542 0.0
H1021 H 0.5975 0.3847 0.65002 0.0
H1022 H 0.54415 0.37102 0.69137 0.0
H1023 H 0.60376 0.30868 0.67719 0.0
H1024 H 0.46368 0.33255 0.66736 0.0
H1025 H 0.50506 0.38425 0.66643 0.0
H1026 H 0.48332 0.36257 0.68148 0.0
H1027 H 0.53986 0.26528 0.64953 0.0
H1028 H 0.58415 0.27215 0.65805 0.0
H1029 H 0.58783 0.31148 0.64768 0.0
C1030 C 0.7313 0.22398 0.62349 0.0
C1031 C 0.69909 0.18335 0.62323 0.0
C1032 C 0.73431 0.25065 0.63308 0.0
C1033 C 0.7044 0.23637 0.64266 0.0
C1034 C 0.67202 0.19525 0.64253 0.0
C1035 C 0.66972 0.16921 0.63281 0.0
C1036 C 0.76911 0.29435 0.63281 0.0
C1037 C 0.63946 0.17894 0.65257 0.0
C1038 C 0.72698 0.29986 0.67246 0.0
C1039 C 0.7067 0.32148 0.66991 0.0
C1040 C 0.72647 0.27184 0.66371 0.0
C1041 C 0.70516 0.26539 0.65219 0.0
C1042 C 0.68476 0.2872 0.64959 0.0
C1043 C 0.68582 0.31489 0.65844 0.0
C1044 C 0.74857 0.24908 0.66679 0.0
C1045 C 0.6616 0.28124 0.63746 0.0
H1046 H 0.75426 0.23506 0.61616 0.0
H1047 H 0.64495 0.13775 0.63272 0.0
H1048 H 0.75686 0.31526 0.63157 0.0
H1049 H 0.78585 0.30218 0.64188 0.0
H1050 H 0.79108 0.30006 0.62511 0.0
H1051 H 0.61762 0.1457 0.65152 0.0
H1052 H 0.65374 0.18448 0.66201 0.0
H1053 H 0.6221 0.19532 0.65215 0.0
H1054 H 0.74304 0.30465 0.6813 0.0
H1055 H 0.66982 0.3312 0.65636 0.0
H1056 H 0.77239 0.25593 0.65963 0.0
H1057 H 0.72686 0.21568 0.66653 0.0
H1058 H 0.76329 0.25719 0.6762 0.0
H1059 H 0.68236 0.28817 0.62933 0.0
H1060 H 0.64772 0.30095 0.63684 0.0
H1061 H 0.6369 0.24891 0.6366 0.0
C1062 C 0.51142 0.17879 0.13375 0.0
C1063 C 0.48057 0.1377 0.13384 0.0
C1064 C 0.52936 0.19934 0.14499 0.0
C1065 C 0.51535 0.17857 0.15664 0.0
C1066 C 0.48332 0.13737 0.1568 0.0
C1067 C 0.46668 0.11725 0.14538 0.0
C1068 C 0.56398 0.24309 0.14437 0.0
C1069 C 0.46679 0.11456 0.169 0.0
C1070 C 0.59869 0.22594 0.18096 0.0
C1071 C 0.5919 0.25623 0.18589 0.0
C1072 C 0.57174 0.19767 0.17222 0.0
C1073 C 0.53682 0.19945 0.16845 0.0
C1074 C 0.52701 0.22641 0.17469 0.0
C1075 C 0.55494 0.25482 0.18336 0.0
C1076 C 0.58355 0.16953 0.16589 0.0
C1077 C 0.48934 0.22829 0.17128 0.0
H1078 H 0.522 0.19471 0.12485 0.0
H1079 H 0.44222 0.08564 0.14549 0.0
H1080 H 0.55619 0.26297 0.1499 0.0
H1081 H 0.59196 0.24552 0.14858 0.0
H1082 H 0.57099 0.25492 0.13459 0.0
H1083 H 0.43951 0.08387 0.16756 0.0
H1084 H 0.49066 0.11076 0.17383 0.0
H1085 H 0.45846 0.13231 0.17537 0.0
H1086 H 0.62736 0.22709 0.18296 0.0
H1087 H 0.54979 0.27842 0.18709 0.0
H1088 H 0.59491 0.18111 0.15628 0.0
H1089 H 0.55681 0.13832 0.16495 0.0
H1090 H 0.60798 0.16763 0.17111 0.0
H1091 H 0.49508 0.24618 0.16248 0.0
H1092 H 0.48119 0.24329 0.17875 0.0
H1093 H 0.46293 0.19727 0.16959 0.0
C1094 C 0.87029 0.37905 0.12991 0.0
C1095 C 0.9102 0.38575 0.1298 0.0
C1096 C 0.85092 0.37815 0.14121 0.0
C1097 C 0.87186 0.38397 0.15276 0.0
C1098 C 0.9122 0.39077 0.15274 0.0
C1099 C 0.93096 0.39167 0.14125 0.0
C1100 C 0.80797 0.37113 0.14076 0.0
C1101 C 0.93544 0.39698 0.16484 0.0
C1102 C 0.82655 0.42127 0.17716 0.0
C1103 C 0.79645 0.38436 0.18247 0.0
C1104 C 0.85428 0.42214 0.16833 0.0
C1105 C 0.85172 0.38509 0.16466 0.0
C1106 C 0.82442 0.34836 0.17105 0.0
C1107 C 0.79701 0.34843 0.17996 0.0
C1108 C 0.8831 0.4621 0.16192 0.0
C1109 C 0.82114 0.30829 0.16758 0.0
H1110 H 0.85397 0.37424 0.12112 0.0
H1111 H 0.96169 0.39646 0.14124 0.0
H1112 H 0.7873 0.34405 0.14652 0.0
H1113 H 0.80748 0.39782 0.14479 0.0
H1114 H 0.79565 0.36627 0.13104 0.0
H1115 H 0.96621 0.40095 0.16326 0.0
H1116 H 0.93907 0.42433 0.16978 0.0
H1117 H 0.918 0.37044 0.17118 0.0
H1118 H 0.82624 0.44915 0.17917 0.0
H1119 H 0.77364 0.31983 0.18401 0.0
H1120 H 0.87124 0.46248 0.1524 0.0
H1121 H 0.91381 0.46567 0.16077 0.0
H1122 H 0.88625 0.48872 0.16722 0.0
H1123 H 0.80367 0.29708 0.15869 0.0
H1124 H 0.80512 0.28468 0.17495 0.0
H1125 H 0.85182 0.31213 0.16601 0.0
C1126 C 0.66254 0.58448 0.14277 0.0
C1127 C 0.66405 0.56497 0.13178 0.0
C1128 C 0.66523 0.56979 0.15472 0.0
C1129 C 0.66896 0.53452 0.15567 0.0
C1130 C 0.66982 0.51444 0.14456 0.0
C1131 C 0.66764 0.53006 0.1328 0.0
C1132 C 0.6648 0.59237 0.1663 0.0
C1133 C 0.67305 0.47631 0.14508 0.0
C1134 C 0.70895 0.49847 0.18249 0.0
C1135 C 0.67262 0.46403 0.1864 0.0
C1136 C 0.70819 0.52515 0.17337 0.0
C1137 C 0.67026 0.51687 0.16813 0.0
C1138 C 0.63347 0.48538 0.17338 0.0
C1139 C 0.63515 0.45941 0.18248 0.0
C1140 C 0.74813 0.55909 0.1683 0.0
C1141 C 0.5923 0.47547 0.16824 0.0
H1142 H 0.66035 0.61184 0.14203 0.0
H1143 H 0.66893 0.51491 0.12434 0.0
H1144 H 0.64017 0.57134 0.17277 0.0
H1145 H 0.69414 0.60416 0.17143 0.0
H1146 H 0.66026 0.61843 0.16401 0.0
H1147 H 0.6731 0.46428 0.13559 0.0
H1148 H 0.70156 0.48281 0.15 0.0
H1149 H 0.64704 0.4521 0.15048 0.0
H1150 H 0.73798 0.50201 0.18544 0.0
H1151 H 0.607 0.43275 0.18553 0.0
H1152 H 0.74605 0.58666 0.16617 0.0
H1153 H 0.75551 0.54898 0.15943 0.0
H1154 H 0.77361 0.5674 0.17503 0.0
H1155 H 0.59116 0.50368 0.16638 0.0
H1156 H 0.56711 0.45569 0.17477 0.0
H1157 H 0.58691 0.45909 0.15919 0.0
C1158 C 0.43025 0.10057 0.05558 0.0
C1159 C 0.44853 0.12683 0.06584 0.0
C1160 C 0.44802 0.11092 0.04356 0.0
C1161 C 0.48476 0.14849 0.04177 0.0
C1162 C 0.50181 0.17614 0.05195 0.0
C1163 C 0.48364 0.16485 0.06386 0.0
C1164 C 0.42878 0.08049 0.03303 0.0
C1165 C 0.54057 0.21695 0.05044 0.0
C1166 C 0.57202 0.17225 0.02012 0.0
C1167 C 0.57143 0.20208 1.01246 0.0
C1168 C 0.54049 0.14995 0.02875 0.0
C1169 C 0.50801 0.15813 0.02975 0.0
C1170 C 0.50408 0.1832 0.0206 0.0
C1171 C 0.53584 0.20468 1.01191 0.0
C1172 C 0.54512 0.12219 0.03797 0.0
C1173 C 0.46941 0.1919 0.02107 0.0
H1174 H 0.4032 0.07095 0.05706 0.0
H1175 H 0.49777 0.18531 0.07173 0.0
H1176 H 0.43114 0.09597 0.02395 0.0
H1177 H 0.44513 0.06325 0.03202 0.0
H1178 H 0.3961 0.05822 0.03495 0.0
H1179 H 0.54809 0.23609 0.059 0.0
H1180 H 0.56652 0.21209 0.0484 0.0
H1181 H 0.53765 0.23406 0.04241 0.0
H1182 H 0.59944 0.17 0.02047 0.0
H1183 H 0.53524 0.22772 1.00598 0.0
H1184 H 0.51526 0.09424 0.03976 0.0
H1185 H 0.55656 0.13833 0.04705 0.0
H1186 H 0.56708 0.11311 0.03456 0.0
H1187 H 0.4403 0.16412 0.02367 0.0
H1188 H 0.46535 0.20363 1.01192 0.0
H1189 H 0.47616 0.21541 0.02832 0.0
C1190 C 0.85875 0.34085 0.06102 0.0
C1191 C 0.89937 0.35 0.06172 0.0
C1192 C 0.84134 0.34236 0.04954 0.0
C1193 C 0.86541 0.35416 0.03846 0.0
C1194 C 0.90624 0.36245 0.03904 0.0
C1195 C 0.92269 0.36 0.05067 0.0
C1196 C 0.79734 0.33237 0.04936 0.0
C1197 C 0.9332 0.3758 0.02755 0.0
C1198 C 0.79347 0.3245 1.01102 0.0
C1199 C 0.78706 0.35778 1.01081 0.0
C1200 C 0.82327 0.32458 0.01893 0.0
C1201 C 0.84738 0.35909 0.02656 0.0
C1202 C 0.84574 0.39524 0.0246 0.0
C1203 C 0.81511 0.39399 0.01683 0.0
C1204 C 0.82444 0.28561 0.0205 0.0
C1205 C 0.87218 0.43338 0.03208 0.0
H1206 H 0.84063 0.33301 0.06952 0.0
H1207 H 0.95433 0.36758 0.05121 0.0
H1208 H 0.79591 0.35999 0.04674 0.0
H1209 H 0.77975 0.3086 0.04223 0.0
H1210 H 0.78218 0.32127 0.05862 0.0
H1211 H 0.96047 0.37247 0.02891 0.0
H1212 H 0.9162 0.35813 0.01916 0.0
H1213 H 0.94388 0.40844 0.02561 0.0
H1214 H 0.7715 0.29633 1.00644 0.0
H1215 H 0.81003 0.41971 0.0167 0.0
H1216 H 0.80626 0.26893 0.02889 0.0
H1217 H 0.85614 0.29209 0.02199 0.0
H1218 H 0.81125 0.26536 1.01221 0.0
H1219 H 0.85903 0.42987 0.04162 0.0
H1220 H 0.87389 0.46072 0.0276 0.0
H1221 H 0.90357 0.43851 0.03315 0.0
C1222 C 0.62838 0.53282 0.05975 0.0
C1223 C 0.66413 0.54575 0.06681 0.0
C1224 C 0.6201 0.50799 0.04915 0.0
C1225 C 0.64739 0.49432 0.04587 0.0
C1226 C 0.68427 0.50854 0.05275 0.0
C1227 C 0.69255 0.53476 0.06302 0.0
C1228 C 0.58142 0.49518 0.04177 0.0
C1229 C 0.71391 0.49419 0.04972 0.0
C1230 C 0.60869 0.38854 0.03301 0.0
C1231 C 0.62719 0.39705 0.02114 0.0
C1232 C 0.61277 0.41987 0.04085 0.0
C1233 C 0.63501 0.46079 0.03658 0.0
C1234 C 0.64926 0.46908 0.024 0.0
C1235 C 0.64545 0.43698 0.0164 0.0
C1236 C 0.59684 0.40937 0.05414 0.0
C1237 C 0.67135 0.51209 0.0189 0.0
H1238 H 0.60681 0.54219 0.06253 0.0
H1239 H 0.72031 0.5451 0.06844 0.0
H1240 H 0.58698 0.49535 0.03154 0.0
H1241 H 0.558 0.4636 0.04445 0.0
H1242 H 0.56878 0.5155 0.04364 0.0
H1243 H 0.74203 0.50958 0.05555 0.0
H1244 H 0.69896 0.46074 0.05133 0.0
H1245 H 0.72278 0.49992 0.03968 0.0
H1246 H 0.59391 0.35752 0.03662 0.0
H1247 H 0.65964 0.44372 1.00721 0.0
H1248 H 0.57815 0.42344 0.05644 0.0
H1249 H 0.62295 0.42184 0.0608 0.0
H1250 H 0.57794 0.37588 0.0557 0.0
H1251 H 0.657 0.5296 0.02226 0.0
H1252 H 0.67166 0.51243 1.00847 0.0
H1253 H 0.70346 0.52796 0.02225 0.0
C1254 C 0.57704 0.92205 0.87934 0.0
C1255 C 0.55519 0.90486 0.89047 0.0
C1256 C 0.56308 0.90182 0.86778 0.0
C1257 C 0.52576 0.86419 0.86732 0.0
C1258 C 0.50307 0.84743 0.87854 0.0
C1259 C 0.51851 0.86758 0.89 0.0
C1260 C 0.58911 0.91987 0.85621 0.0
C1261 C 0.46249 0.80794 0.87848 0.0
C1262 C 0.45532 0.81704 0.83973 0.0
C1263 C 0.45449 0.77973 0.83917 0.0
C1264 C 0.48213 0.84783 0.84797 0.0
C1265 C 0.50974 0.8415 0.8553 0.0
C1266 C 0.51428 0.80733 0.85279 0.0
C1267 C 0.48599 0.77633 0.84487 0.0
C1268 C 0.47616 0.88376 0.85025 0.0
C1269 C 0.54509 0.80064 0.85978 0.0
H1270 H 0.60592 0.95058 0.87976 0.0
H1271 H 0.50171 0.85433 0.89861 0.0
H1272 H 0.6039 0.90186 0.85386 0.0
H1273 H 0.5703 0.91834 0.848 0.0
H1274 H 0.61343 0.95215 0.85766 0.0
H1275 H 0.44732 0.80079 0.8878 0.0
H1276 H 0.44164 0.80962 0.87146 0.0
H1277 H 0.46708 0.78232 0.87575 0.0
H1278 H 0.43074 0.81954 0.83537 0.0
H1279 H 0.4854 0.74746 0.84443 0.0
H1280 H 0.50578 0.91216 0.8518 0.0
H1281 H 0.45741 0.87785 0.85883 0.0
H1282 H 0.46012 0.88867 0.84227 0.0
H1283 H 0.57411 0.82991 0.86113 0.0
H1284 H 0.55161 0.77896 0.85474 0.0
H1285 H 0.53285 0.78768 0.8692 0.0
C1286 C 0.13555 0.65423 0.89536 0.0
C1287 C 0.11553 0.67477 0.89923 0.0
C1288 C 0.15852 0.66556 0.8842 0.0
C1289 C 0.16003 0.69705 0.87651 0.0
C1290 C 0.13717 0.71564 0.87997 0.0
C1291 C 0.11603 0.70498 0.89145 0.0
C1292 C 0.18307 0.64543 0.88102 0.0
C1293 C 0.13619 0.74786 0.87184 0.0
C1294 C 0.26057 0.75341 0.85935 0.0
C1295 C 0.25211 0.72909 0.84863 0.0
C1296 C 0.22993 0.74555 0.86811 0.0
C1297 C 0.1895 0.71354 0.86582 0.0
C1298 C 0.17968 0.69358 0.85402 0.0
C1299 C 0.21133 0.70137 0.84554 0.0
C1300 C 0.24208 0.76786 0.8805 0.0
C1301 C 0.13655 0.66104 0.85088 0.0
H1302 H 0.13511 0.6309 0.9014 0.0
H1303 H 0.09997 0.72049 0.89438 0.0
H1304 H 0.17503 0.63198 0.87149 0.0
H1305 H 0.21613 0.66866 0.88098 0.0
H1306 H 0.17794 0.62097 0.88782 0.0
H1307 H 0.1094 0.75124 0.87404 0.0
H1308 H 0.16423 0.77773 0.87348 0.0
H1309 H 0.13525 0.74043 0.86173 0.0
H1310 H 0.29216 0.77503 0.8617 0.0
H1311 H 0.20459 0.68245 0.83726 0.0
H1312 H 0.24017 0.74656 0.88801 0.0
H1313 H 0.22097 0.77888 0.88305 0.0
H1314 H 0.27373 0.7944 0.88032 0.0
H1315 H 0.12977 0.63183 0.85538 0.0
H1316 H 0.1322 0.656 0.84059 0.0
H1317 H 0.11422 0.66931 0.85449 0.0
C1318 C 0.36433 0.50574 0.88995 0.0
C1319 C 0.34004 0.46444 0.8931 0.0
C1320 C 0.35416 0.52237 0.87966 0.0
C1321 C 0.31966 0.49674 0.8721 0.0
C1322 C 0.29699 0.45437 0.87472 0.0
C1323 C 0.30692 0.43889 0.88534 0.0
C1324 C 0.37888 0.56785 0.87735 0.0
C1325 C 0.26116 0.42561 0.86665 0.0
C1326 C 0.27102 0.55481 0.85885 0.0
C1327 C 0.29272 0.5701 0.84761 0.0
C1328 C 0.27702 0.52809 0.8665 0.0
C1329 C 0.30462 0.51541 0.86263 0.0
C1330 C 0.32187 0.52597 0.85042 0.0
C1331 C 0.31601 0.55365 0.84306 0.0
C1332 C 0.25776 0.51776 0.87939 0.0
C1333 C 0.34975 0.51143 0.84564 0.0
H1334 H 0.38987 0.5255 0.89595 0.0
H1335 H 0.28837 0.40674 0.88767 0.0
H1336 H 0.38992 0.57414 0.86751 0.0
H1337 H 0.35928 0.58154 0.87875 0.0
H1338 H 0.40566 0.58327 0.88374 0.0
H1339 H 0.25273 0.39327 0.86818 0.0
H1340 H 0.23428 0.42858 0.86899 0.0
H1341 H 0.26806 0.43321 0.85655 0.0
H1342 H 0.25319 0.56776 0.8624 0.0
H1343 H 0.33316 0.56566 0.83443 0.0
H1344 H 0.28178 0.53405 0.8866 0.0
H1345 H 0.2435 0.48459 0.88131 0.0
H1346 H 0.23414 0.52667 0.88048 0.0
H1347 H 0.38077 0.53079 0.84964 0.0
H1348 H 0.35222 0.51347 0.83524 0.0
H1349 H 0.33875 0.47942 0.84858 0.0
C1350 C 0.59989 0.92441 0.96991 0.0
C1351 C 0.57976 0.90263 0.95903 0.0
C1352 C 0.58311 0.91003 0.98193 0.0
C1353 C 0.54536 0.87301 0.98308 0.0
C1354 C 0.52578 0.85025 0.97213 0.0
C1355 C 0.54315 0.86535 0.96028 0.0
C1356 C 0.60502 0.9352 0.99332 0.0
C1357 C 0.48571 0.81034 0.97287 0.0
C1358 C 0.50121 0.80393 1.01132 0.0
C1359 C 0.46753 0.80855 0.01392 0.0
C1360 C 0.53018 0.82835 1.00222 0.0
C1361 C 0.52506 0.85787 0.99555 0.0
C1362 C 0.49429 0.86634 0.99942 0.0
C1363 C 0.46576 0.84144 1.00858 0.0
C1364 C 0.5629 0.8187 0.99864 0.0
C1365 C 0.48812 0.89805 0.99277 0.0
H1366 H 0.62806 0.95344 0.96903 0.0
H1367 H 0.52741 0.84834 0.95193 0.0
H1368 H 0.5878 0.94933 0.99711 0.0
H1369 H 0.60651 0.91566 1.00085 0.0
H1370 H 0.63655 0.95992 0.99107 0.0
H1371 H 0.47508 0.79581 0.96352 0.0
H1372 H 0.48886 0.78864 0.97915 0.0
H1373 H 0.46182 0.81561 0.97693 0.0
H1374 H 0.50224 0.77805 0.0153 0.0
H1375 H 0.43934 0.8446 1.01041 0.0
H1376 H 0.59207 0.84699 0.99645 0.0
H1377 H 0.55314 0.79942 0.99008 0.0
H1378 H 0.56836 0.8018 1.00623 0.0
H1379 H 0.51784 0.92606 0.99088 0.0
H1380 H 0.46863 0.90639 0.99832 0.0
H1381 H 0.47299 0.88574 0.98359 0.0
C1382 C 0.16244 0.68369 0.96682 0.0
C1383 C 0.12312 0.67843 0.96699 0.0
C1384 C 0.18352 0.68713 0.97803 0.0
C1385 C 0.16466 0.68477 0.98973 0.0
C1386 C 0.12481 0.67919 0.98997 0.0
C1387 C 0.10458 0.67634 0.97859 0.0
C1388 C 0.22619 0.69351 0.97731 0.0
C1389 C 0.10352 0.67598 1.00224 0.0
C1390 C 0.22089 0.66313 0.01523 0.0
C1391 C 0.2509 0.70302 0.01838 0.0
C1392 C 0.18918 0.65611 1.00687 0.0
C1393 C 0.18792 0.68984 1.00156 0.0
C1394 C 0.215 0.72966 1.00605 0.0
C1395 C 0.24611 0.73573 0.01446 0.0
C1396 C 0.16025 0.61302 1.0026 0.0
C1397 C 0.21466 0.76654 1.00079 0.0
H1398 H 0.17685 0.68521 0.9579 0.0
H1399 H 0.07397 0.67183 0.97877 0.0
H1400 H 0.2481 0.7225 0.98203 0.0
H1401 H 0.22742 0.6684 0.9823 0.0
H1402 H 0.23646 0.69468 0.96748 0.0
H1403 H 0.07233 0.67115 1.00082 0.0
H1404 H 0.10122 0.65023 1.00789 0.0
H1405 H 0.12163 0.70417 1.00782 0.0
H1406 H 0.22472 0.63779 0.01809 0.0
H1407 H 0.26928 0.76663 0.01693 0.0
H1408 H 0.17095 0.60776 0.99349 0.0
H1409 H 0.129 0.60791 1.00116 0.0
H1410 H 0.15886 0.59021 1.00947 0.0
H1411 H 0.22878 0.77359 0.99132 0.0
H1412 H 0.23215 0.79387 1.00681 0.0
H1413 H 0.18298 0.76057 0.99976 0.0
C1414 C 0.32636 0.45921 0.96736 0.0
C1415 C 0.34147 0.47935 0.95585 0.0
C1416 C 0.32811 0.481 0.97823 0.0
C1417 C 0.34464 0.52378 0.97749 0.0
C1418 C 0.35992 0.5442 0.96587 0.0
C1419 C 0.35846 0.52178 0.95523 0.0
C1420 C 0.31209 0.45824 0.99047 0.0
C1421 C 0.37713 0.58969 0.96461 0.0
C1422 C 0.3088 0.57892 0.99875 0.0
C1423 C 0.34364 0.60285 1.0061 0.0
C1424 C 0.30793 0.55129 0.98992 0.0
C1425 C 0.34263 0.54696 0.98847 0.0
C1426 C 0.37659 0.5683 0.99665 0.0
C1427 C 0.37677 0.59622 1.0054 0.0
C1428 C 0.27103 0.52925 0.98146 0.0
C1429 C 0.41378 0.56375 0.99558 0.0
H1430 H 0.31384 0.42647 0.96795 0.0
H1431 H 0.37044 0.53751 0.94637 0.0
H1432 H 0.33567 0.47256 0.99791 0.0
H1433 H 0.28513 0.46009 0.99355 0.0
H1434 H 0.30304 0.42553 0.98969 0.0
H1435 H 0.38889 0.60111 0.95502 0.0
H1436 H 0.35308 0.59723 0.96682 0.0
H1437 H 0.40236 0.60625 0.97143 0.0
H1438 H 0.28281 0.58347 0.9994 0.0
H1439 H 0.40372 0.61458 1.01107 0.0
H1440 H 0.26044 0.49616 0.98115 0.0
H1441 H 0.27946 0.54131 0.97175 0.0
H1442 H 0.2452 0.5331 0.98456 0.0
H1443 H 0.40472 0.53114 0.99456 0.0
H1444 H 0.43421 0.57657 1.00387 0.0
H1445 H 0.43131 0.58008 0.98707 0.0
C1446 C 0.19734 0.51023 0.46388 0.0
C1447 C 0.16024 0.47318 0.46344 0.0
C1448 C 0.21518 0.52852 0.47538 0.0
C1449 C 0.19531 0.5095 0.48679 0.0
C1450 C 0.15768 0.47215 0.48642 0.0
C1451 C 0.14066 0.45431 0.47474 0.0
C1452 C 0.25559 0.56818 0.47531 0.0
C1453 C 0.13541 0.45119 0.49835 0.0
C1454 C 0.27359 0.54555 0.51267 0.0
C1455 C 0.27306 0.58032 0.51683 0.0
C1456 C 0.24525 0.51928 0.5038 0.0
C1457 C 0.21573 0.52811 0.49895 0.0
C1458 C 0.21178 0.56013 0.50435 0.0
C1459 C 0.24065 0.58601 0.51329 0.0
C1460 C 0.25042 0.48528 0.49849 0.0
C1461 C 0.18013 0.57004 0.49968 0.0
H1462 H 0.2125 0.52507 0.45519 0.0
H1463 H 0.11169 0.42588 0.47446 0.0
H1464 H 0.25262 0.5921 0.48036 0.0
H1465 H 0.27902 0.56408 0.48032 0.0
H1466 H 0.26671 0.5793 0.46565 0.0
H1467 H 0.10595 0.4228 0.49646 0.0
H1468 H 0.15477 0.44336 0.50421 0.0
H1469 H 0.12928 0.47215 0.50394 0.0
H1470 H 0.29867 0.54113 0.51546 0.0
H1471 H 0.24033 0.61301 0.51645 0.0
H1472 H 0.26563 0.49481 0.4892 0.0
H1473 H 0.22039 0.45723 0.49706 0.0
H1474 H 0.26943 0.47784 0.5047 0.0
H1475 H 0.19089 0.58754 0.49077 0.0
H1476 H 0.17483 0.58884 0.50656 0.0
H1477 H 0.1507 0.54178 0.49774 0.0
C1478 C 0.5531 0.69928 0.46522 0.0
C1479 C 0.58913 0.69795 0.46375 0.0
C1480 C 0.53576 0.69559 0.47712 0.0
C1481 C 0.55454 0.68981 0.48787 0.0
C1482 C 0.5911 0.68864 0.48647 0.0
C1483 C 0.60812 0.69298 0.47442 0.0
C1484 C 0.49711 0.69773 0.47817 0.0
C1485 C 0.61168 0.68193 0.49763 0.0
C1486 C 0.51878 0.72107 0.5164 0.0
C1487 C 0.48257 0.68463 0.51915 0.0
C1488 C 0.5456 0.72247 0.50711 0.0
C1489 C 0.53596 0.6864 0.50049 0.0
C1490 C 0.50272 0.64851 0.5046 0.0
C1491 C 0.4762 0.64806 0.51392 0.0
C1492 C 0.58083 0.76351 0.50322 0.0
C1493 C 0.49204 0.60912 0.49808 0.0
H1494 H 0.53824 0.70298 0.45701 0.0
H1495 H 0.63569 0.69135 0.47332 0.0
H1496 H 0.47227 0.66888 0.48224 0.0
H1497 H 0.50216 0.72289 0.48457 0.0
H1498 H 0.48668 0.70288 0.46893 0.0
H1499 H 0.64117 0.68419 0.49509 0.0
H1500 H 0.61737 0.70456 0.50508 0.0
H1501 H 0.59125 0.65121 0.50169 0.0
H1502 H 0.52359 0.74941 0.52042 0.0
H1503 H 0.44802 0.61989 0.51594 0.0
H1504 H 0.57212 0.77419 0.49466 0.0
H1505 H 0.60823 0.76141 0.50092 0.0
H1506 H 0.58897 0.78678 0.51068 0.0
H1507 H 0.47541 0.60682 0.48924 0.0
H1508 H 0.47212 0.58216 0.50403 0.0
H1509 H 0.51998 0.60822 0.4956 0.0
C1510 C 0.35598 0.90953 0.47672 0.0
C1511 C 0.35183 0.88883 0.46541 0.0
C1512 C 0.36145 0.8944 0.48823 0.0
C1513 C 0.36247 0.85757 0.48843 0.0
C1514 C 0.3576 0.83628 0.47704 0.0
C1515 C 0.35254 0.85225 0.4657 0.0
C1516 C 0.3668 0.91811 0.50012 0.0
C1517 C 0.35793 0.79658 0.47681 0.0
C1518 C 0.40882 0.82 0.51287 0.0
C1519 C 0.37333 0.78717 0.51792 0.0
C1520 C 0.40623 0.84664 0.50413 0.0
C1521 C 0.36728 0.83993 0.50044 0.0
C1522 C 0.33199 0.81013 0.50683 0.0
C1523 C 0.33549 0.78406 0.51548 0.0
C1524 C 0.44474 0.87865 0.49778 0.0
C1525 C 0.28988 0.80207 0.50338 0.0
H1526 H 0.35594 0.9381 0.47654 0.0
H1527 H 0.34949 0.83617 0.45701 0.0
H1528 H 0.34382 0.89835 0.50721 0.0
H1529 H 0.39739 0.92814 0.50421 0.0
H1530 H 0.36384 0.94546 0.49845 0.0
H1531 H 0.35367 0.78382 0.46719 0.0
H1532 H 0.38734 0.80137 0.48059 0.0
H1533 H 0.3332 0.77363 0.48289 0.0
H1534 H 0.43805 0.82213 0.51464 0.0
H1535 H 0.308 0.75841 0.51934 0.0
H1536 H 0.44383 0.90711 0.49617 0.0
H1537 H 0.4475 0.86714 0.48848 0.0
H1538 H 0.47237 0.88595 0.50339 0.0
H1539 H 0.28988 0.83105 0.50194 0.0
H1540 H 0.26697 0.78375 0.51069 0.0
H1541 H 0.2802 0.78484 0.49442 0.0
C1542 C 0.17326 0.52249 0.39258 0.0
C1543 C 0.14087 0.48237 0.39391 0.0
C1544 C 0.19372 0.53662 0.38108 0.0
C1545 C 0.18211 0.50968 0.37069 0.0
C1546 C 0.14841 0.4695 0.37185 0.0
C1547 C 0.12797 0.4564 0.38344 0.0
C1548 C 0.2289 0.58006 0.38021 0.0
C1549 C 0.13536 0.43958 0.36113 0.0
C1550 C 0.2315 0.57087 0.34135 0.0
C1551 C 0.27031 0.5751 0.34245 0.0
C1552 C 0.20001 0.5456 0.3497 0.0
C1553 C 0.20756 0.52351 0.35906 0.0
C1554 C 0.2444 0.52247 0.35868 0.0
C1555 C 0.27562 0.54873 0.35045 0.0
C1556 C 0.16105 0.54724 0.3496 0.0
C1557 C 0.25313 0.498 0.36811 0.0
H1558 H 0.18324 0.54266 0.40063 0.0
H1559 H 0.10317 0.42515 0.38447 0.0
H1560 H 0.25791 0.58002 0.37886 0.0
H1561 H 0.22484 0.59578 0.37199 0.0
H1562 H 0.23187 0.59797 0.38878 0.0
H1563 H 0.10422 0.41297 0.36261 0.0
H1564 H 0.13594 0.45444 0.35207 0.0
H1565 H 0.15705 0.42813 0.36034 0.0
H1566 H 0.22746 0.59153 0.33523 0.0
H1567 H 0.3057 0.55206 0.35131 0.0
H1568 H 0.16303 0.56898 0.3569 0.0
H1569 H 0.13424 0.51694 0.35182 0.0
H1570 H 0.15599 0.55777 0.34037 0.0
H1571 H 0.26157 0.51427 0.37724 0.0
H1572 H 0.27876 0.49379 0.36504 0.0
H1573 H 0.22567 0.46756 0.36966 0.0
C1574 C 0.5958 0.73805 0.39013 0.0
C1575 C 0.5702 0.70362 0.39742 0.0
C1576 C 0.58152 0.74699 0.37906 0.0
C1577 C 0.54006 0.722 0.37557 0.0
C1578 C 0.51433 0.68665 0.38282 0.0
C1579 C 0.53003 0.67741 0.39352 0.0
C1580 C 0.61054 0.78372 0.37133 0.0
C1581 C 0.46967 0.65964 0.37961 0.0
C1582 C 0.48033 0.76494 0.35988 0.0
C1583 C 0.46856 0.74288 0.34861 0.0
C1584 C 0.50618 0.76076 0.36841 0.0
C1585 C 0.52197 0.73507 0.36538 0.0
C1586 C 0.51516 0.71771 0.3532 0.0
C1587 C 0.48807 0.7215 0.34495 0.0
C1588 C 0.5124 0.77992 0.38124 0.0
C1589 C 0.53337 0.69207 0.34932 0.0
H1590 H 0.62723 0.7579 0.39304 0.0
H1591 H 0.51043 0.65068 0.39915 0.0
H1592 H 0.60602 0.77649 0.36115 0.0
H1593 H 0.6045 0.80905 0.37299 0.0
H1594 H 0.64297 0.79462 0.37377 0.0
H1595 H 0.45401 0.63303 0.38606 0.0
H1596 H 0.45393 0.67761 0.38012 0.0
H1597 H 0.46633 0.64819 0.36987 0.0
H1598 H 0.46579 0.78209 0.36265 0.0
H1599 H 0.47937 0.70461 0.3362 0.0
H1600 H 0.54519 0.79631 0.38385 0.0
H1601 H 0.49588 0.75557 0.38836 0.0
H1602 H 0.50096 0.80171 0.38172 0.0
H1603 H 0.56495 0.70504 0.353 0.0
H1604 H 0.53389 0.68959 0.33894 0.0
H1605 H 0.51473 0.66083 0.35325 0.0
C1606 C 0.35609 0.92237 0.38513 0.0
C1607 C 0.36803 0.90728 0.39537 0.0
C1608 C 0.34689 0.90265 0.37341 0.0
C1609 C 0.35022 0.86736 0.37188 0.0
C1610 C 0.36458 0.85352 0.38202 0.0
C1611 C 0.37289 0.87339 0.39366 0.0
C1612 C 0.33136 0.91823 0.36294 0.0
C1613 C 0.36951 0.81654 0.38075 0.0
C1614 C 0.28762 0.77635 0.35124 0.0
C1615 C 0.31762 0.77952 0.3429 0.0
C1616 C 0.29622 0.80766 0.35983 0.0
C1617 C 0.33595 0.8425 0.36017 0.0
C1618 C 0.36416 0.84833 0.35056 0.0
C1619 C 0.35441 0.81681 0.34189 0.0
C1620 C 0.26456 0.80088 0.36958 0.0
C1621 C 0.40661 0.88521 0.35042 0.0
H1622 H 0.35193 0.94839 0.38644 0.0
H1623 H 0.38224 0.86173 0.40153 0.0
H1624 H 0.34471 0.91726 0.35378 0.0
H1625 H 0.29771 0.89834 0.36218 0.0
H1626 H 0.33832 0.94998 0.36469 0.0
H1627 H 0.38406 0.81175 0.38916 0.0
H1628 H 0.33913 0.78883 0.37937 0.0
H1629 H 0.38839 0.81979 0.3724 0.0
H1630 H 0.25904 0.74761 0.35198 0.0
H1631 H 0.37777 0.81939 0.33547 0.0
H1632 H 0.26429 0.82954 0.37139 0.0
H1633 H 0.27216 0.79113 0.37854 0.0
H1634 H 0.23344 0.77686 0.36665 0.0
H1635 H 0.40611 0.91327 0.35299 0.0
H1636 H 0.42123 0.88976 0.34106 0.0
H1637 H 0.42578 0.88081 0.35744 0.0
C1638 C 0.27904 0.06682 0.11257 0.0
C1639 C 0.31374 0.07127 0.11865 0.0
C1640 C 0.24826 0.06858 0.11937 0.0
C1641 C 0.25345 0.07699 0.13244 0.0
C1642 C 0.28925 0.0828 0.13853 0.0
C1643 C 0.31859 0.07893 0.13159 0.0
C1644 C 0.20996 0.06087 0.11258 0.0
C1645 C 0.29685 0.09373 0.15227 0.0
C1646 C 0.18055 0.11179 0.14285 0.0
C1647 C 0.14808 0.07515 0.14742 0.0
C1648 C 0.2174 0.11424 0.13926 0.0
C1649 C 0.22066 0.07859 0.13966 0.0
C1650 C 0.18912 0.04256 0.1453 0.0
C1651 C 0.15345 0.0416 0.14935 0.0
C1652 C 0.25122 0.1539 0.13397 0.0
C1653 C 0.19056 0.00348 0.14564 0.0
H1654 H 0.27558 0.06103 0.10255 0.0
H1655 H 0.34599 0.08309 0.13621 0.0
H1656 H 0.18262 0.03603 0.11734 0.0
H1657 H 0.20729 0.08868 0.11285 0.0
H1658 H 0.20964 0.05225 0.10261 0.0
H1659 H 0.32711 0.09904 0.15545 0.0
H1660 H 0.29527 0.12173 0.15406 0.0
H1661 H 0.27279 0.06896 0.15807 0.0
H1662 H 0.17607 0.13751 0.1412 0.0
H1663 H 0.12782 0.013 0.15263 0.0
H1664 H 0.25026 0.15251 0.12356 0.0
H1665 H 0.28157 0.15926 0.13702 0.0
H1666 H 0.24805 0.18026 0.1369 0.0
H1667 H 0.18543 0.99066 0.13601 0.0
H1668 H 0.16677 0.9802 0.15192 0.0
H1669 H 0.22088 0.00916 0.1488 0.0
C1670 C 0.99064 0.26483 0.11435 0.0
C1671 C 0.95437 0.2639 0.11103 0.0
C1672 C 0.98986 0.23116 0.12018 0.0
C1673 C 0.95185 0.19579 0.12292 0.0
C1674 C 0.91508 0.19518 0.11996 0.0
C1675 C 0.91676 0.22913 0.11395 0.0
C1676 C 0.02983 0.23297 0.12303 0.0
C1677 C 0.87401 0.15837 0.12291 0.0
C1678 C 0.95961 0.10038 0.12255 0.0
C1679 C 0.967 0.09619 0.13524 0.0
C1680 C 0.95194 0.13107 0.11854 0.0
C1681 C 0.95112 0.15816 0.12747 0.0
C1682 C 0.95471 0.15172 0.14045 0.0
C1683 C 0.96283 0.12076 0.1442 0.0
C1684 C 0.94827 0.13659 0.10462 0.0
C1685 C 0.95298 0.17928 0.15029 0.0
H1686 H 0.01977 0.29172 0.1122 0.0
H1687 H 0.8886 0.22849 0.11158 0.0
H1688 H 0.03108 0.22576 0.13307 0.0
H1689 H 0.03218 0.2097 0.11738 0.0
H1690 H 0.05671 0.26342 0.12091 0.0
H1691 H 0.84853 0.16443 0.12135 0.0
H1692 H 0.86891 0.13243 0.11688 0.0
H1693 H 0.87316 0.1487 0.13281 0.0
H1694 H 0.9623 0.08105 0.11559 0.0
H1695 H 0.96873 0.11779 0.154 0.0
H1696 H 0.97566 0.16507 0.10137 0.0
H1697 H 0.92122 0.1397 0.10264 0.0
H1698 H 0.94568 0.11069 0.09904 0.0
H1699 H 0.9824 0.20864 0.15039 0.0
H1700 H 0.9477 0.16544 0.15981 0.0
H1701 H 0.92844 0.18623 0.14812 0.0
C1702 C 0.7876 0.7627 0.11038 0.0
C1703 C 0.78736 0.72628 0.10795 0.0
C1704 C 0.82166 0.79615 0.11588 0.0
C1705 C 0.85622 0.793 0.11921 0.0
C1706 C 0.85599 0.75611 0.11692 0.0
C1707 C 0.82166 0.72326 0.11122 0.0
C1708 C 0.82084 0.83512 0.11798 0.0
C1709 C 0.892 0.75139 0.12048 0.0
C1710 C 0.95393 0.89541 0.1202 0.0
C1711 C 0.95618 0.9061 0.13291 0.0
C1712 C 0.92286 0.85768 0.11576 0.0
C1713 C 0.89342 0.82949 0.12424 0.0
C1714 C 0.89746 0.83859 0.13726 0.0
C1715 C 0.92879 0.87695 0.14146 0.0
C1716 C 0.91985 0.84936 0.10181 0.0
C1717 C 0.86721 0.80895 0.14665 0.0
H1718 H 0.76111 0.76513 0.10793 0.0
H1719 H 0.82141 0.69496 0.10953 0.0
H1720 H 0.82616 0.84366 0.12805 0.0
H1721 H 0.84579 0.86045 0.11257 0.0
H1722 H 0.79133 0.83234 0.1151 0.0
H1723 H 0.88618 0.72005 0.1187 0.0
H1724 H 0.91935 0.77337 0.11506 0.0
H1725 H 0.89937 0.75856 0.13058 0.0
H1726 H 0.97529 0.91748 0.11353 0.0
H1727 H 0.93037 0.88482 0.1513 0.0
H1728 H 0.89264 0.84945 0.09796 0.0
H1729 H 0.91585 0.81879 0.09997 0.0
H1730 H 0.94728 0.87258 0.09665 0.0
H1731 H 0.83793 0.80878 0.14575 0.0
H1732 H 0.87836 0.81731 0.15646 0.0
H1733 H 0.86075 0.77747 0.1448 0.0
C1734 C 0.0653 0.28925 0.4154 0.0
C1735 C 0.10194 0.3259 0.4175 0.0
C1736 C 0.06519 0.25566 0.40987 0.0
C1737 C 0.10265 0.25876 0.40628 0.0
C1738 C 0.13974 0.29589 0.40819 0.0
C1739 C 0.13896 0.32899 0.41383 0.0
C1740 C 0.02493 0.21654 0.40809 0.0
C1741 C 0.1802 0.30048 0.4044 0.0
C1742 C 0.09505 0.15554 0.40628 0.0
C1743 C 0.08501 0.14352 0.39372 0.0
C1744 C 0.10386 0.19424 0.41031 0.0
C1745 C 0.10269 0.2218 0.40155 0.0
C1746 C 0.09623 0.21125 0.38863 0.0
C1747 C 0.08738 0.17203 0.38485 0.0
C1748 C 0.11089 0.20416 0.42414 0.0
C1749 C 0.09543 0.24001 0.37896 0.0
H1750 H 0.03657 0.28674 0.41811 0.0
H1751 H 0.16737 0.35743 0.41528 0.0
H1752 H 0.02104 0.20704 0.39811 0.0
H1753 H 0.02463 0.19172 0.41375 0.0
H1754 H 0.99843 0.21962 0.41093 0.0
H1755 H 0.20597 0.33217 0.4057 0.0
H1756 H 0.18633 0.27952 0.41008 0.0
H1757 H 0.17919 0.29182 0.39441 0.0
H1758 H 0.09369 0.13367 0.41315 0.0
H1759 H 0.07937 0.16277 0.37516 0.0
H1760 H 0.08397 0.20433 0.42815 0.0
H1761 H 0.13784 0.23498 0.42559 0.0
H1762 H 0.11566 0.18159 0.42945 0.0
H1763 H 0.0661 0.23978 0.37968 0.0
H1764 H 0.0982 0.23097 0.36926 0.0
H1765 H 0.12047 0.27178 0.38063 0.0
C1766 C 0.7702 0.79848 0.41583 0.0
C1767 C 0.73273 0.77213 0.41013 0.0
C1768 C 0.80148 0.83116 0.40907 0.0
C1769 C 0.79428 0.83873 0.39651 0.0
C1770 C 0.75615 0.81235 0.39078 0.0
C1771 C 0.72612 0.77886 0.3976 0.0
C1772 C 0.84217 0.85773 0.4154 0.0
C1773 C 0.74646 0.82036 0.37768 0.0
C1774 C 0.86925 0.94874 0.38807 0.0
C1775 C 0.8994 0.94469 0.3818 0.0
C1776 C 0.83244 0.91409 0.39172 0.0
C1777 C 0.82678 0.87469 0.38957 0.0
C1778 C 0.85572 0.87061 0.38226 0.0
C1779 C 0.89144 0.90582 0.37826 0.0
C1780 C 0.80142 0.9198 0.3989 0.0
C1781 C 0.85153 0.8294 0.37995 0.0
H1782 H 0.77514 0.79325 0.42553 0.0
H1783 H 0.69672 0.75882 0.39327 0.0
H1784 H 0.86729 0.86004 0.40946 0.0
H1785 H 0.84742 0.88907 0.41659 0.0
H1786 H 0.84393 0.84574 0.42478 0.0
H1787 H 0.7163 0.79559 0.37431 0.0
H1788 H 0.74622 0.84952 0.37755 0.0
H1789 H 0.77034 0.82377 0.37098 0.0
H1790 H 0.87575 0.97883 0.39096 0.0
H1791 H 0.91528 0.90278 0.37366 0.0
H1792 H 0.80418 0.91521 0.40907 0.0
H1793 H 0.76989 0.89702 0.39595 0.0
H1794 H 0.80609 0.95095 0.39753 0.0
H1795 H 0.85797 0.81813 0.38882 0.0
H1796 H 0.87314 0.83091 0.37265 0.0
H1797 H 0.81998 0.80672 0.37703 0.0
C1798 C 0.25145 0.97964 0.41937 0.0
C1799 C 0.25314 0.94363 0.42025 0.0
C1800 C 0.21826 0.97995 0.41357 0.0
C1801 C 0.18605 0.9434 0.40841 0.0
C1802 C 0.18764 0.90694 0.40921 0.0
C1803 C 0.22107 0.90743 0.41519 0.0
C1804 C 0.21757 0.01943 0.41305 0.0
C1805 C 0.15412 0.86749 0.40373 0.0
C1806 C 0.08693 0.9445 0.40627 0.0
C1807 C 0.08853 0.95891 0.39399 0.0
C1808 C 0.11712 0.93677 0.41082 0.0
C1809 C 0.14976 0.94333 0.40289 0.0
C1810 C 0.14964 0.95437 0.39014 0.0
C1811 C 0.11895 0.96207 0.38582 0.0
C1812 C 0.11575 0.92476 0.42444 0.0
C1813 C 0.18349 0.96094 0.3813 0.0
H1814 H 0.27623 0.00775 0.42318 0.0
H1815 H 0.22245 0.87958 0.41569 0.0
H1816 H 0.21518 0.02732 0.40316 0.0
H1817 H 0.19033 0.01575 0.4181 0.0
H1818 H 0.24532 0.04531 0.4173 0.0
H1819 H 0.16062 0.84212 0.40473 0.0
H1820 H 0.12471 0.85851 0.40846 0.0
H1821 H 0.15008 0.87174 0.39362 0.0
H1822 H 0.06317 0.94141 0.4126 0.0
H1823 H 0.12038 0.97311 0.37632 0.0
H1824 H 0.14055 0.95067 0.42969 0.0
H1825 H 0.12093 0.89855 0.42533 0.0
H1826 H 0.08613 0.91643 0.42894 0.0
H1827 H 0.21157 0.99008 0.38366 0.0
H1828 H 0.17545 0.96246 0.37134 0.0
H1829 H 0.19071 0.93611 0.38232 0.0
C1830 C 0.73855 0.01627 0.8979 0.0
C1831 C 0.72401 0.98816 0.90789 0.0
C1832 C 0.77355 0.02412 0.89113 0.0
C1833 C 0.79505 0.00404 0.89461 0.0
C1834 C 0.78014 0.97518 0.90458 0.0
C1835 C 0.74456 0.96731 0.91102 0.0
C1836 C 0.78792 0.0544 0.8804 0.0
C1837 C 0.80246 0.95347 0.9087 0.0
C1838 C 0.87666 0.99859 0.87544 0.0
C1839 C 0.91189 0.02677 0.88191 0.0
C1840 C 0.83817 0.99291 0.87876 0.0
C1841 C 0.83525 0.01589 0.88877 0.0
C1842 C 0.87134 0.04732 0.89435 0.0
C1843 C 0.90918 0.05247 0.8908 0.0
C1844 C 0.80051 0.9599 0.87231 0.0
C1845 C 0.86988 0.0728 0.90499 0.0
H1846 H 0.72234 0.032 0.89529 0.0
H1847 H 0.73326 0.94536 0.91867 0.0
H1848 H 0.81728 0.08194 0.88294 0.0
H1849 H 0.79355 0.04103 0.87193 0.0
H1850 H 0.76545 0.06405 0.87801 0.0
H1851 H 0.7861 0.93085 0.91629 0.0
H1852 H 0.80645 0.93744 0.90062 0.0
H1853 H 0.83341 0.97612 0.91215 0.0
H1854 H 0.8786 0.97853 0.86861 0.0
H1855 H 0.93653 0.07453 0.89575 0.0
H1856 H 0.77811 0.97006 0.87055 0.0
H1857 H 0.78559 0.93255 0.87848 0.0
H1858 H 0.80808 0.95085 0.86325 0.0
H1859 H 0.84955 0.08501 0.9026 0.0
H1860 H 0.90063 0.09881 0.90734 0.0
H1861 H 0.85717 0.05337 0.91349 0.0
C1862 C 0.98227 0.72072 0.91431 0.0
C1863 C 0.01501 0.73368 0.92274 0.0
C1864 C 0.97365 0.74892 0.90853 0.0
C1865 C 0.99866 0.79101 0.91117 0.0
C1866 C 0.03124 0.80414 0.91987 0.0
C1867 C 0.03886 0.77527 0.9256 0.0
C1868 C 0.93831 0.73379 0.89945 0.0
C1869 C 0.05868 0.84882 0.92291 0.0
C1870 C 0.00945 0.87394 0.88874 0.0
C1871 C 0.98788 0.88928 0.89518 0.0
C1872 C 0.01162 0.84048 0.89352 0.0
C1873 C 0.9912 0.82172 0.90487 0.0
C1874 C 0.9669 0.83522 0.91087 0.0
C1875 C 0.96577 0.86904 0.906 0.0
C1876 C 0.03798 0.827 0.88688 0.0
C1877 C 0.94402 0.81554 0.92285 0.0
H1878 H 0.96376 0.68856 0.91205 0.0
H1879 H 0.06434 0.78547 0.93206 0.0
H1880 H 0.9174 0.74481 0.9023 0.0
H1881 H 0.94983 0.74625 0.88994 0.0
H1882 H 0.9206 0.69992 0.89889 0.0
H1883 H 0.08265 0.85394 0.92989 0.0
H1884 H 0.0738 0.86608 0.91423 0.0
H1885 H 0.04028 0.86168 0.92669 0.0
H1886 H 0.02665 0.88956 0.88039 0.0
H1887 H 0.94866 0.88054 0.91093 0.0
H1888 H 0.02107 0.7934 0.8856 0.0
H1889 H 0.06527 0.83481 0.89272 0.0
H1890 H 0.04842 0.84187 0.87755 0.0
H1891 H 0.92658 0.78181 0.92191 0.0
H1892 H 0.92252 0.82616 0.92543 0.0
H1893 H 0.96613 0.82304 0.93066 0.0
C1894 C 0.29371 0.27639 0.90663 0.0
C1895 C 0.27929 0.29581 0.91458 0.0
C1896 C 0.26655 0.23909 0.90081 0.0
C1897 C 0.22403 0.22103 0.90293 0.0
C1898 C 0.2094 0.2406 0.91094 0.0
C1899 C 0.23719 0.2776 0.9167 0.0
C1900 C 0.2833 0.21892 0.89245 0.0
C1901 C 0.16428 0.22241 0.91346 0.0
C1902 C 0.14074 0.14011 0.88229 0.0
C1903 C 0.12643 0.10574 0.89008 0.0
C1904 C 0.17455 0.17772 0.88592 0.0
C1905 C 0.19455 0.1805 0.89748 0.0
C1906 C 0.18241 0.14483 0.90472 0.0
C1907 C 0.14835 0.108 0.90098 0.0
C1908 C 0.18665 0.21502 0.87791 0.0
C1909 C 0.20331 0.14612 0.91696 0.0
H1910 H 0.32623 0.29047 0.90489 0.0
H1911 H 0.2258 0.29259 0.92273 0.0
H1912 H 0.27508 0.1885 0.89631 0.0
H1913 H 0.26941 0.21389 0.88296 0.0
H1914 H 0.31707 0.2374 0.89151 0.0
H1915 H 0.15779 0.2423 0.91949 0.0
H1916 H 0.14747 0.21719 0.90447 0.0
H1917 H 0.15208 0.19231 0.91817 0.0
H1918 H 0.12383 0.13838 0.87385 0.0
H1919 H 0.13764 0.08124 0.90693 0.0
H1920 H 0.22036 0.23366 0.877 0.0
H1921 H 0.17612 0.23434 0.88248 0.0
H1922 H 0.17293 0.20682 0.86837 0.0
H1923 H 0.237 0.16359 0.91585 0.0
H1924 H 0.19411 0.11505 0.92051 0.0
H1925 H 0.19521 0.16192 0.92416 0.0
C1926 C 0.99333 0.74366 0.60837 0.0
C1927 C 0.9576 0.70568 0.607 0.0
C1928 C 0.99222 0.77692 0.61366 0.0
C1929 C 0.9545 0.77198 0.61783 0.0
C1930 C 0.91831 0.73362 0.61653 0.0
C1931 C 0.92024 0.70096 0.61104 0.0
C1932 C 0.03143 0.81749 0.6147 0.0
C1933 C 0.87763 0.72706 0.62099 0.0
C1934 C 0.96561 0.85553 0.63999 0.0
C1935 C 0.96267 0.8825 0.63157 0.0
C1936 C 0.96072 0.81814 0.6358 0.0
C1937 C 0.95302 0.80777 0.62291 0.0
C1938 C 0.94761 0.83378 0.61456 0.0
C1939 C 0.9523 0.87063 0.619 0.0
C1940 C 0.96602 0.79084 0.64504 0.0
C1941 C 0.93935 0.82396 0.60075 0.0
H1942 H 0.02229 0.74741 0.6053 0.0
H1943 H 0.89259 0.6715 0.61015 0.0
H1944 H 0.02873 0.8411 0.60928 0.0
H1945 H 0.03714 0.8275 0.62464 0.0
H1946 H 0.05826 0.81614 0.61115 0.0
H1947 H 0.85257 0.69501 0.6197 0.0
H1948 H 0.87953 0.73499 0.63108 0.0
H1949 H 0.86972 0.74753 0.61577 0.0
H1950 H 0.97362 0.86438 0.64971 0.0
H1951 H 0.94949 0.89102 0.61243 0.0
H1952 H 0.99539 0.79201 0.64319 0.0
H1953 H 0.94125 0.75865 0.6439 0.0
H1954 H 0.96615 0.80024 0.65492 0.0
H1955 H 0.96649 0.82535 0.59631 0.0
H1956 H 0.93248 0.84557 0.59573 0.0
H1957 H 0.91328 0.79252 0.59944 0.0
C1958 C 0.3066 0.19577 0.60779 0.0
C1959 C 0.31698 0.23684 0.60844 0.0
C1960 C 0.27134 0.16498 0.61374 0.0
C1961 C 0.24552 0.17545 0.62034 0.0
C1962 C 0.25649 0.21702 0.62131 0.0
C1963 C 0.29219 0.24722 0.6154 0.0
C1964 C 0.26094 0.12109 0.61257 0.0
C1965 C 0.22958 0.22946 0.62811 0.0
C1966 C 0.1321 0.09911 0.62027 0.0
C1967 C 0.12491 0.08383 0.63262 0.0
C1968 C 0.17118 0.12836 0.6162 0.0
C1969 C 0.20444 0.14283 0.62464 0.0
C1970 C 0.19789 0.12691 0.63705 0.0
C1971 C 0.15807 0.09758 0.64092 0.0
C1972 C 0.17662 0.14437 0.60289 0.0
C1973 C 0.23273 0.14139 0.64628 0.0
H1974 H 0.326 0.18761 0.6026 0.0
H1975 H 0.30025 0.27896 0.61603 0.0
H1976 H 0.25317 0.1059 0.6219 0.0
H1977 H 0.2337 0.10426 0.60646 0.0
H1978 H 0.28646 0.11848 0.60848 0.0
H1979 H 0.24418 0.26315 0.62901 0.0
H1980 H 0.20036 0.21794 0.62293 0.0
H1981 H 0.22204 0.21565 0.63763 0.0
H1982 H 0.1069 0.08856 0.61369 0.0
H1983 H 0.15289 0.0861 0.65046 0.0
H1984 H 0.19933 0.13933 0.59789 0.0
H1985 H 0.18853 0.17778 0.603 0.0
H1986 H 0.14761 0.12949 0.59746 0.0
H1987 H 0.25817 0.13885 0.64212 0.0
H1988 H 0.22324 0.12373 0.6552 0.0
H1989 H 0.24477 0.1741 0.64844 0.0
C1990 C 0.81711 0.08431 0.61193 0.0
C1991 C 0.78573 0.08806 0.61747 0.0
C1992 C 0.8444 0.07821 0.61934 0.0
C1993 C 0.84097 0.07711 0.63263 0.0
C1994 C 0.81043 0.08278 0.63827 0.0
C1995 C 0.78278 0.08751 0.63062 0.0
C1996 C 0.87605 0.07157 0.61292 0.0
C1997 C 0.80654 0.08316 0.65237 0.0
C1998 C 0.88269 0.01482 0.64752 0.0
C1999 C 0.92373 0.04459 0.64933 0.0
C2000 C 0.85437 0.02533 0.64302 0.0
C2001 C 0.86741 0.06682 0.64044 0.0
C2002 C 0.90764 0.09743 0.64377 0.0
C2003 C 0.93562 0.08588 0.64805 0.0
C2004 C 0.81195 0.99154 0.63961 0.0
C2005 C 0.92237 0.14209 0.64165 0.0
H2006 H 0.81946 0.08476 0.60178 0.0
H2007 H 0.75887 0.09102 0.63495 0.0
H2008 H 0.90709 0.09453 0.61618 0.0
H2009 H 0.87115 0.04097 0.61543 0.0
H2010 H 0.87496 0.0737 0.60253 0.0
H2011 H 0.78436 0.09258 0.65527 0.0
H2012 H 0.79627 0.05225 0.65622 0.0
H2013 H 0.83668 0.10427 0.65666 0.0
H2014 H 0.87376 0.98282 0.64831 0.0
H2015 H 0.96754 0.10888 0.64924 0.0
H2016 H 0.80928 0.98855 0.62923 0.0
H2017 H 0.78853 0.99869 0.6429 0.0
H2018 H 0.80504 0.96167 0.64366 0.0
H2019 H 0.9295 0.14953 0.63156 0.0
H2020 H 0.95044 0.16188 0.64717 0.0
H2021 H 0.8984 0.14939 0.64422 0.0
C2022 C 0.00701 0.47115 0.44957 0.0
C2023 C -0.00041 0.43591 0.44307 0.0
C2024 C 0.97556 0.47243 0.45617 0.0
C2025 C 0.9356 0.43801 0.456 0.0
C2026 C 0.92803 0.40242 0.44941 0.0
C2027 C 0.96019 0.40168 0.44314 0.0
C2028 C 0.98503 0.51053 0.4633 0.0
C2029 C 0.88574 0.36524 0.44879 0.0
C2030 C 0.84716 0.41434 0.47778 0.0
C2031 C 0.82268 0.42245 0.46977 0.0
C2032 C 0.88628 0.42296 0.47393 0.0
C2033 C 0.9007 0.43966 0.46181 0.0
C2034 C 0.87786 0.45207 0.45436 0.0
C2035 C 0.83931 0.44357 0.45849 0.0
C2036 C 0.9103 0.41056 0.48235 0.0
C2037 C 0.89188 0.47008 0.44141 0.0
H2038 H 0.03763 0.49747 0.44972 0.0
H2039 H 0.9544 0.37434 0.43819 0.0
H2040 H 0.96798 0.52445 0.45916 0.0
H2041 H 0.97489 0.5027 0.4732 0.0
H2042 H 0.01816 0.53363 0.4632 0.0
H2043 H 0.88507 0.3399 0.44338 0.0
H2044 H 0.87427 0.35408 0.45841 0.0
H2045 H 0.86433 0.37343 0.4443 0.0
H2046 H 0.8345 0.39801 0.48651 0.0
H2047 H 0.8206 0.45036 0.45233 0.0
H2048 H 0.94344 0.43334 0.48194 0.0
H2049 H 0.90612 0.3809 0.47912 0.0
H2050 H 0.89992 0.40696 0.49226 0.0
H2051 H 0.92453 0.49431 0.4415 0.0
H2052 H 0.8736 0.48318 0.43759 0.0
H2053 H 0.88877 0.44581 0.43492 0.0
C2054 C 0.6534 0.57095 0.43861 0.0
C2055 C 0.61843 0.57458 0.43801 0.0
C2056 C 0.65225 0.53691 0.44429 0.0
C2057 C 0.61532 0.5059 0.44967 0.0
C2058 C 0.57982 0.50932 0.44908 0.0
C2059 C 0.58172 0.54352 0.44317 0.0
C2060 C 0.69069 0.5342 0.44455 0.0
C2061 C 0.54006 0.47718 0.45483 0.0
C2062 C 0.61397 0.40581 0.45235 0.0
C2063 C 0.63022 0.40868 0.46442 0.0
C2064 C 0.60598 0.43577 0.44774 0.0
C2065 C 0.61406 0.46935 0.45543 0.0
C2066 C 0.62645 0.47024 0.46807 0.0
C2067 C 0.63454 0.43988 0.47242 0.0
C2068 C 0.59256 0.43336 0.43424 0.0
C2069 C 0.63452 0.50503 0.47668 0.0
H2070 H 0.68187 0.59493 0.43468 0.0
H2071 H 0.55471 0.54646 0.44288 0.0
H2072 H 0.69932 0.53246 0.4544 0.0
H2073 H 0.6852 0.50595 0.43974 0.0
H2074 H 0.71684 0.56081 0.43991 0.0
H2075 H 0.51524 0.4844 0.4536 0.0
H2076 H 0.53022 0.44701 0.45054 0.0
H2077 H 0.54439 0.47432 0.46502 0.0
H2078 H 0.61003 0.38145 0.44615 0.0
H2079 H 0.64717 0.44246 0.48174 0.0
H2080 H 0.6185 0.45664 0.42859 0.0
H2081 H 0.56733 0.44007 0.43347 0.0
H2082 H 0.58229 0.40285 0.43009 0.0
H2083 H 0.66397 0.53241 0.47407 0.0
H2084 H 0.63637 0.49752 0.48667 0.0
H2085 H 0.61027 0.5131 0.47571 0.0
C2086 C 0.49837 0.04089 0.44967 0.0
C2087 C 0.46975 0.04798 0.44347 0.0
C2088 C 0.53236 0.07271 0.45581 0.0
C2089 C 0.53832 0.11269 0.45548 0.0
C2090 C 0.50959 0.11997 0.44915 0.0
C2091 C 0.47545 0.08745 0.44334 0.0
C2092 C 0.56174 0.06357 0.4627 0.0
C2093 C 0.51515 0.16229 0.44837 0.0
C2094 C 0.60606 0.20111 0.47694 0.0
C2095 C 0.63865 0.2252 0.46884 0.0
C2096 C 0.57456 0.16229 0.47318 0.0
C2097 C 0.57566 0.14771 0.46103 0.0
C2098 C 0.61059 0.17017 0.45341 0.0
C2099 C 0.64178 0.20842 0.45747 0.0
C2100 C 0.53847 0.13867 0.48177 0.0
C2101 C 0.61322 0.15594 0.4404 0.0
H2102 H 0.49368 0.01022 0.44997 0.0
H2103 H 0.45328 0.09297 0.43862 0.0
H2104 H 0.59252 0.08084 0.4584 0.0
H2105 H 0.5648 0.07368 0.47261 0.0
H2106 H 0.55173 0.03052 0.46258 0.0
H2107 H 0.49005 0.16279 0.44309 0.0
H2108 H 0.51645 0.17427 0.45795 0.0
H2109 H 0.54454 0.18336 0.44367 0.0
H2110 H 0.60329 0.21376 0.48573 0.0
H2111 H 0.66722 0.22667 0.45123 0.0
H2112 H 0.52781 0.10553 0.48149 0.0
H2113 H 0.51281 0.14273 0.4786 0.0
H2114 H 0.54594 0.1494 0.49164 0.0
H2115 H 0.60444 0.12327 0.44051 0.0
H2116 H 0.64441 0.17405 0.43636 0.0
H2117 H 0.59153 0.15902 0.43409 0.0
C2118 C 0.70474 0.63888 0.74732 0.0
C2119 C 0.7412 0.6748 0.75026 0.0
C2120 C 0.70518 0.60497 0.74224 0.0
C2121 C 0.74302 0.60707 0.73997 0.0
C2122 C 0.77997 0.64341 0.7428 0.0
C2123 C 0.77862 0.67679 0.74797 0.0
C2124 C 0.66508 0.56666 0.73948 0.0
C2125 C 0.8209 0.64691 0.74046 0.0
C2126 C 0.73934 0.50529 0.74014 0.0
C2127 C 0.73664 0.49599 0.72728 0.0
C2128 C 0.74264 0.54181 0.74433 0.0
C2129 C 0.74361 0.57018 0.73547 0.0
C2130 C 0.74273 0.56196 0.72245 0.0
C2131 C 0.73909 0.52484 0.7185 0.0
C2132 C 0.74344 0.54924 0.75828 0.0
C2133 C 0.74417 0.59171 0.71271 0.0
H2134 H 0.67573 0.63721 0.74899 0.0
H2135 H 0.80693 0.70462 0.75009 0.0
H2136 H 0.664 0.5579 0.7295 0.0
H2137 H 0.66232 0.54104 0.74531 0.0
H2138 H 0.63834 0.57041 0.7414 0.0
H2139 H 0.84681 0.67795 0.74255 0.0
H2140 H 0.82402 0.62449 0.74639 0.0
H2141 H 0.82311 0.63954 0.73053 0.0
H2142 H 0.73777 0.48342 0.74704 0.0
H2143 H 0.73693 0.51798 0.70857 0.0
H2144 H 0.71575 0.55031 0.76101 0.0
H2145 H 0.77034 0.57917 0.76075 0.0
H2146 H 0.74454 0.52509 0.76393 0.0
H2147 H 0.71568 0.59317 0.71318 0.0
H2148 H 0.74741 0.58284 0.70304 0.0
H2149 H 0.77003 0.62286 0.71464 0.0
C2150 C 0.41737 0.12534 0.74042 0.0
C2151 C 0.402 0.13595 0.7508 0.0
C2152 C 0.45313 0.15458 0.73428 0.0
C2153 C 0.47415 0.19535 0.73868 0.0
C2154 C 0.45835 0.20635 0.74904 0.0
C2155 C 0.42247 0.17655 0.75495 0.0
C2156 C 0.46895 0.14163 0.72328 0.0
C2157 C 0.47998 0.24939 0.75408 0.0
C2158 C 0.58885 0.25871 0.73444 0.0
C2159 C 0.59292 0.28605 0.72483 0.0
C2160 C 0.55043 0.22862 0.73877 0.0
C2161 C 0.51481 0.22547 0.73338 0.0
C2162 C 0.51845 0.25206 0.7234 0.0
C2163 C 0.55755 0.28212 0.71923 0.0
C2164 C 0.54808 0.20085 0.74937 0.0
C2165 C 0.48111 0.24944 0.71737 0.0
H2166 H 0.40146 0.09411 0.73707 0.0
H2167 H 0.41058 0.18505 0.76291 0.0
H2168 H 0.47472 0.16226 0.71515 0.0
H2169 H 0.4985 0.144 0.72581 0.0
H2170 H 0.4473 0.10974 0.72034 0.0
H2171 H 0.46234 0.25366 0.76164 0.0
H2172 H 0.51026 0.2569 0.75791 0.0
H2173 H 0.48546 0.27148 0.74642 0.0
H2174 H 0.6159 0.26107 0.73876 0.0
H2175 H 0.56033 0.30305 0.71183 0.0
H2176 H 0.52898 0.16841 0.74655 0.0
H2177 H 0.53335 0.20562 0.75767 0.0
H2178 H 0.57867 0.20631 0.75222 0.0
H2179 H 0.45959 0.21765 0.71436 0.0
H2180 H 0.48897 0.27002 0.70909 0.0
H2181 H 0.46487 0.25785 0.72432 0.0
C2182 C 0.89253 0.29576 0.7476 0.0
C2183 C 0.92664 0.29551 0.74271 0.0
C2184 C 0.86757 0.30429 0.73986 0.0
C2185 C 0.87637 0.31177 0.72685 0.0
C2186 C 0.90985 0.3099 0.72178 0.0
C2187 C 0.93489 0.30234 0.72979 0.0
C2188 C 0.83252 0.30658 0.7457 0.0
C2189 C 0.91965 0.3166 0.70794 0.0
C2190 C 0.78797 0.30931 0.70905 0.0
C2191 C 0.79899 0.35048 0.70975 0.0
C2192 C 0.81465 0.29633 0.71353 0.0
C2193 C 0.85268 0.32525 0.71893 0.0
C2194 C 0.86551 0.36733 0.71828 0.0
C2195 C 0.83856 0.37938 0.71362 0.0
C2196 C 0.80041 0.25133 0.71361 0.0
C2197 C 0.9057 0.39938 0.72385 0.0
H2198 H 0.88595 0.29031 0.75755 0.0
H2199 H 0.96088 0.30152 0.72591 0.0
H2200 H 0.83742 0.33785 0.74452 0.0
H2201 H 0.80349 0.28524 0.74089 0.0
H2202 H 0.82912 0.299 0.75588 0.0
H2203 H 0.94367 0.30945 0.70525 0.0
H2204 H 0.8918 0.29736 0.70229 0.0
H2205 H 0.93043 0.3489 0.70545 0.0
H2206 H 0.75719 0.28687 0.70619 0.0
H2207 H 0.84691 0.41124 0.71422 0.0
H2208 H 0.78877 0.23861 0.72309 0.0
H2209 H 0.82599 0.24601 0.71146 0.0
H2210 H 0.7754 0.23441 0.70672 0.0
H2211 H 0.90396 0.39683 0.73425 0.0
H2212 H 0.9133 0.43082 0.72119 0.0
H2213 H 0.93097 0.3947 0.72079 0.0
C2214 C 0.4255 0.3262 0.24988 0.0
C2215 C 0.38882 0.28968 0.25207 0.0
C2216 C 0.45842 0.32622 0.24385 0.0
C2217 C 0.45435 0.28887 0.23968 0.0
C2218 C 0.41691 0.25201 0.24153 0.0
C2219 C 0.38473 0.2528 0.24783 0.0
C2220 C 0.498 0.36617 0.24226 0.0
C2221 C 0.41105 0.21172 0.237 0.0
C2222 C 0.54003 0.30412 0.21764 0.0
C2223 C 0.56781 0.30337 0.22622 0.0
C2224 C 0.50136 0.29645 0.22168 0.0
C2225 C 0.49071 0.28836 0.23457 0.0
C2226 C 0.5174 0.28427 0.24298 0.0
C2227 C 0.55533 0.29144 0.23868 0.0
C2228 C 0.47324 0.29985 0.21232 0.0
C2229 C 0.5075 0.27575 0.25679 0.0
H2230 H 0.42871 0.3548 0.25307 0.0
H2231 H 0.35617 0.22452 0.24931 0.0
H2232 H 0.52274 0.36508 0.24754 0.0
H2233 H 0.50705 0.37119 0.23222 0.0
H2234 H 0.49578 0.39267 0.24564 0.0
H2235 H 0.37895 0.18648 0.23806 0.0
H2236 H 0.41994 0.21411 0.22698 0.0
H2237 H 0.43114 0.20373 0.24241 0.0
H2238 H 0.54941 0.31331 0.20801 0.0
H2239 H 0.5764 0.29019 0.24533 0.0
H2240 H 0.47481 0.32967 0.21353 0.0
H2241 H 0.44108 0.27549 0.21391 0.0
H2242 H 0.48188 0.2979 0.2025 0.0
H2243 H 0.50775 0.30236 0.26119 0.0
H2244 H 0.5298 0.26995 0.26185 0.0
H2245 H 0.47649 0.24894 0.25811 0.0
C2246 C 0.76862 0.13764 0.23531 0.0
C2247 C 0.75977 0.13209 0.24818 0.0
C2248 C 0.77042 0.17078 0.22876 0.0
C2249 C 0.76125 0.19787 0.23513 0.0
C2250 C 0.75241 0.19234 0.24819 0.0
C2251 C 0.75269 0.15996 0.25462 0.0
C2252 C 0.7818 0.17657 0.21502 0.0
C2253 C 0.74122 0.21973 0.25527 0.0
C2254 C 0.78487 0.30281 0.22373 0.0
C2255 C 0.74703 0.29394 0.21877 0.0
C2256 C 0.79124 0.27133 0.22809 0.0
C2257 C 0.75826 0.23043 0.22807 0.0
C2258 C 0.72077 0.2213 0.22236 0.0
C2259 C 0.71591 0.25317 0.21759 0.0
C2260 C 0.83232 0.2822 0.23352 0.0
C2261 C 0.68438 0.17845 0.22241 0.0
H2262 H 0.77459 0.11619 0.23038 0.0
H2263 H 0.74577 0.15546 0.26457 0.0
H2264 H 0.75508 0.17105 0.20925 0.0
H2265 H 0.80639 0.2085 0.21323 0.0
H2266 H 0.79233 0.15554 0.21182 0.0
H2267 H 0.7344 0.21087 0.26531 0.0
H2268 H 0.76657 0.25185 0.25475 0.0
H2269 H 0.71401 0.21853 0.25088 0.0
H2270 H 0.80864 0.33445 0.22488 0.0
H2271 H 0.68627 0.24653 0.21406 0.0
H2272 H 0.84128 0.25975 0.23058 0.0
H2273 H 0.8306 0.28146 0.24392 0.0
H2274 H 0.85651 0.31324 0.23057 0.0
H2275 H 0.69286 0.1565 0.21865 0.0
H2276 H 0.65848 0.17599 0.21678 0.0
H2277 H 0.67384 0.1691 0.23221 0.0
C2278 C 0.89025 0.67542 0.24432 0.0
C2279 C 0.9214 0.66968 0.24927 0.0
C2280 C 0.85625 0.64347 0.23822 0.0
C2281 C 0.8531 0.60477 0.23721 0.0
C2282 C 0.88466 0.59898 0.24212 0.0
C2283 C 0.91848 0.63154 0.24802 0.0
C2284 C 0.82355 0.65098 0.23296 0.0
C2285 C 0.88233 0.55806 0.24137 0.0
C2286 C 0.75321 0.50504 0.23646 0.0
C2287 C 0.75366 0.49103 0.22433 0.0
C2288 C 0.78369 0.54368 0.24045 0.0
C2289 C 0.81544 0.56906 0.23208 0.0
C2290 C 0.81358 0.55686 0.2194 0.0
C2291 C 0.78253 0.51776 0.21564 0.0
C2292 C 0.78408 0.55541 0.25402 0.0
C2293 C 0.84634 0.58343 0.2101 0.0
H2294 H 0.89264 0.70506 0.2451 0.0
H2295 H 0.94259 0.62703 0.25175 0.0
H2296 H 0.8175 0.64143 0.22298 0.0
H2297 H 0.79457 0.6323 0.23816 0.0
H2298 H 0.83212 0.68359 0.23359 0.0
H2299 H 0.91004 0.55899 0.24526 0.0
H2300 H 0.8553 0.53485 0.24667 0.0
H2301 H 0.87847 0.54781 0.23146 0.0
H2302 H 0.73056 0.48448 0.24316 0.0
H2303 H 0.783 0.50695 0.20627 0.0
H2304 H 0.79052 0.58729 0.25473 0.0
H2305 H 0.80874 0.55364 0.25912 0.0
H2306 H 0.75462 0.53494 0.2588 0.0
H2307 H 0.85531 0.61599 0.21121 0.0
H2308 H 0.83619 0.574 0.20026 0.0
H2309 H 0.8739 0.58094 0.21183 0.0
C2310 C 0.62118 0.08884 0.94039 0.0
C2311 C 0.58955 0.04836 0.93908 0.0
C2312 C 0.61568 0.11694 0.94737 0.0
C2313 C 0.57776 0.10407 0.95339 0.0
C2314 C 0.54559 0.06318 0.95209 0.0
C2315 C 0.55177 0.03582 0.94485 0.0
C2316 C 0.65064 0.16046 0.94832 0.0
C2317 C 0.50508 0.04818 0.95857 0.0
C2318 C 0.59363 0.18058 0.97856 0.0
C2319 C 0.58635 0.20783 0.97164 0.0
C2320 C 0.58654 0.14373 0.97321 0.0
C2321 C 0.57221 0.13437 0.96066 0.0
C2322 C 0.56001 0.15932 0.9543 0.0
C2323 C 0.56699 0.19564 0.95991 0.0
C2324 C 0.59871 0.11725 0.98048 0.0
C2325 C 0.54427 0.15046 0.94097 0.0
H2326 H 0.65044 0.09857 0.93597 0.0
H2327 H 0.52743 0.0043 0.94401 0.0
H2328 H 0.64087 0.1818 0.94477 0.0
H2329 H 0.65972 0.16826 0.95829 0.0
H2330 H 0.67786 0.16563 0.9429 0.0
H2331 H 0.48265 0.01592 0.95621 0.0
H2332 H 0.50969 0.05066 0.96889 0.0
H2333 H 0.49192 0.06752 0.95593 0.0
H2334 H 0.60843 0.18961 0.98765 0.0
H2335 H 0.5606 0.21628 0.9546 0.0
H2336 H 0.62933 0.12384 0.97731 0.0
H2337 H 0.57691 0.08439 0.97878 0.0
H2338 H 0.60028 0.12322 0.99073 0.0
H2339 H 0.57021 0.15865 0.93449 0.0
H2340 H 0.5295 0.16829 0.9382 0.0
H2341 H 0.52198 0.11751 0.93969 0.0
C2342 C 0.96699 0.51267 0.95078 0.0
C2343 C 0.95939 0.54206 0.94538 0.0
C2344 C 0.93568 0.47811 0.95694 0.0
C2345 C 0.89597 0.47285 0.95758 0.0
C2346 C 0.88816 0.50218 0.95194 0.0
C2347 C 0.91994 0.5364 0.94597 0.0
C2348 C 0.94519 0.44769 0.96293 0.0
C2349 C 0.84615 0.4976 0.95225 0.0
C2350 C 0.79636 0.37407 0.96069 0.0
C2351 C 0.78305 0.37908 0.97247 0.0
C2352 C 0.83534 0.40227 0.9562 0.0
C2353 C 0.86161 0.43629 0.96369 0.0
C2354 C 0.85022 0.43864 0.9762 0.0
C2355 C 0.81082 0.40997 0.98045 0.0
C2356 C 0.84628 0.39815 0.94287 0.0
C2357 C 0.87768 0.47386 0.98463 0.0
H2358 H 0.9976 0.51721 0.95048 0.0
H2359 H 0.91393 0.55904 0.94183 0.0
H2360 H 0.94025 0.44677 0.97322 0.0
H2361 H 0.9242 0.41657 0.9593 0.0
H2362 H 0.97719 0.45536 0.96119 0.0
H2363 H 0.84523 0.52314 0.9474 0.0
H2364 H 0.82364 0.46855 0.94769 0.0
H2365 H 0.83628 0.49634 0.96212 0.0
H2366 H 0.77507 0.34983 0.95456 0.0
H2367 H 0.80065 0.41418 0.98953 0.0
H2368 H 0.87862 0.40593 0.94221 0.0
H2369 H 0.84246 0.41976 0.93674 0.0
H2370 H 0.82644 0.36677 0.9392 0.0
H2371 H 0.91012 0.48238 0.98347 0.0
H2372 H 0.86905 0.46651 0.99467 0.0
H2373 H 0.87506 0.50085 0.98204 0.0
C2374 C 0.47965 0.40603 0.94046 0.0
C2375 C 0.45591 0.42155 0.94523 0.0
C2376 C 0.50959 0.40467 0.94797 0.0
C2377 C 0.51693 0.4207 0.96035 0.0
C2378 C 0.4944 0.43844 0.96492 0.0
C2379 C 0.46356 0.43782 0.9574 0.0
C2380 C 0.53227 0.38463 0.94282 0.0
C2381 C 0.50239 0.45744 0.9778 0.0
C2382 C 0.56281 0.37476 0.98213 0.0
C2383 C 0.60456 0.40044 0.97981 0.0
C2384 C 0.53368 0.38224 0.97642 0.0
C2385 C 0.54689 0.41708 0.96861 0.0
C2386 C 0.58919 0.44575 0.9676 0.0
C2387 C 0.61759 0.43663 0.973 0.0
C2388 C 0.48899 0.35044 0.97762 0.0
C2389 C 0.60462 0.48429 0.95992 0.0
H2390 H 0.47342 0.39315 0.93109 0.0
H2391 H 0.44526 0.4501 0.96106 0.0
H2392 H 0.56559 0.4067 0.94275 0.0
H2393 H 0.52709 0.35871 0.94897 0.0
H2394 H 0.52248 0.37301 0.93313 0.0
H2395 H 0.48558 0.47403 0.97937 0.0
H2396 H 0.4929 0.43339 0.9851 0.0
H2397 H 0.53556 0.47905 0.97911 0.0
H2398 H 0.55273 0.34631 0.98716 0.0
H2399 H 0.6499 0.45623 0.97107 0.0
H2400 H 0.47785 0.33419 0.96854 0.0
H2401 H 0.47054 0.36489 0.97975 0.0
H2402 H 0.4835 0.32758 0.98505 0.0
H2403 H 0.60263 0.47678 0.94979 0.0
H2404 H 0.63697 0.50689 0.96216 0.0
H2405 H 0.58565 0.49854 0.96154 0.0
C2406 C 0.611 0.72815 0.7861 0.0
C2407 C 0.6281 0.7561 0.77614 0.0
C2408 C 0.57522 0.72159 0.79211 0.0
C2409 C 0.55596 0.74339 0.78805 0.0
C2410 C 0.57366 0.77237 0.7782 0.0
C2411 C 0.60951 0.77838 0.77237 0.0
C2412 C 0.55734 0.69041 0.80257 0.0
C2413 C 0.55399 0.79612 0.77355 0.0
C2414 C 0.44102 0.692 0.79151 0.0
C2415 C 0.43654 0.71263 0.80176 0.0
C2416 C 0.47961 0.70155 0.7871 0.0
C2417 C 0.51502 0.73257 0.79307 0.0
C2418 C 0.51096 0.75317 0.80357 0.0
C2419 C 0.47169 0.743 0.80778 0.0
C2420 C 0.4824 0.67862 0.77592 0.0
C2421 C 0.54804 0.78633 0.81022 0.0
H2422 H 0.62543 0.71112 0.78917 0.0
H2423 H 0.62278 0.8003 0.76476 0.0
H2424 H 0.55113 0.70382 0.81091 0.0
H2425 H 0.52774 0.66417 0.79948 0.0
H2426 H 0.5779 0.67877 0.80538 0.0
H2427 H 0.57324 0.81982 0.76653 0.0
H2428 H 0.52407 0.77492 0.76916 0.0
H2429 H 0.54804 0.81113 0.78152 0.0
H2430 H 0.41414 0.66822 0.78681 0.0
H2431 H 0.46859 0.75936 0.81557 0.0
H2432 H 0.50015 0.66362 0.77844 0.0
H2433 H 0.49879 0.70026 0.76813 0.0
H2434 H 0.45187 0.65491 0.77246 0.0
H2435 H 0.56848 0.77475 0.81318 0.0
H2436 H 0.53974 0.79785 0.81863 0.0
H2437 H 0.56567 0.81226 0.80369 0.0
C2438 C 0.32093 0.94658 0.78476 0.0
C2439 C 0.28496 0.9475 0.78239 0.0
C2440 C 0.31985 0.91286 0.79074 0.0
C2441 C 0.28191 0.87932 0.79464 0.0
C2442 C 0.24566 0.88085 0.79273 0.0
C2443 C 0.24757 0.9147 0.78653 0.0
C2444 C 0.35921 0.91242 0.79241 0.0
C2445 C 0.20469 0.84615 0.79689 0.0
C2446 C 0.2784 0.77768 0.79371 0.0
C2447 C 0.287 0.77239 0.8062 0.0
C2448 C 0.27504 0.81134 0.79001 0.0
C2449 C 0.27984 0.8407 0.79903 0.0
C2450 C 0.28562 0.83419 0.81186 0.0
C2451 C 0.28925 0.80005 0.81531 0.0
C2452 C 0.26877 0.81665 0.77625 0.0
C2453 C 0.29002 0.86429 0.82181 0.0
H2454 H 0.34998 0.97191 0.78168 0.0
H2455 H 0.21968 0.91543 0.78492 0.0
H2456 H 0.36268 0.90548 0.80231 0.0
H2457 H 0.35846 0.88797 0.78652 0.0
H2458 H 0.38643 0.94198 0.78973 0.0
H2459 H 0.1803 0.8542 0.79624 0.0
H2460 H 0.19586 0.81905 0.79092 0.0
H2461 H 0.20643 0.83726 0.80672 0.0
H2462 H 0.27597 0.75613 0.78661 0.0
H2463 H 0.29591 0.79624 0.82497 0.0
H2464 H 0.29612 0.84424 0.77252 0.0
H2465 H 0.2423 0.82126 0.775 0.0
H2466 H 0.26348 0.78997 0.77053 0.0
H2467 H 0.3203 0.89245 0.82088 0.0
H2468 H 0.28757 0.85175 0.83143 0.0
H2469 H 0.26639 0.87313 0.82062 0.0
C2470 C 0.12737 0.39693 0.7781 0.0
C2471 C 0.08818 0.37147 0.78299 0.0
C2472 C 0.15616 0.43198 0.78461 0.0
C2473 C 0.14576 0.44149 0.7964 0.0
C2474 C 0.10702 0.41454 0.8017 0.0
C2475 C 0.07857 0.38013 0.79488 0.0
C2476 C 0.1969 0.46008 0.77853 0.0
C2477 C 0.09493 0.42302 0.81434 0.0
C2478 C 0.23304 0.53095 0.81403 0.0
C2479 C 0.22839 0.56339 0.80975 0.0
C2480 C 0.20524 0.49044 0.8103 0.0
C2481 C 0.1725 0.48263 0.80206 0.0
C2482 C 0.1665 0.51515 0.79841 0.0
C2483 C 0.19423 0.55483 0.80236 0.0
C2484 C 0.21212 0.45647 0.81464 0.0
C2485 C 0.13207 0.50854 0.78971 0.0
H2486 H 0.13512 0.3902 0.76897 0.0
H2487 H 0.04857 0.36016 0.79883 0.0
H2488 H 0.19856 0.48926 0.77592 0.0
H2489 H 0.22214 0.46742 0.78523 0.0
H2490 H 0.20182 0.44657 0.76995 0.0
H2491 H 0.06672 0.39619 0.81802 0.0
H2492 H 0.11994 0.43178 0.82125 0.0
H2493 H 0.08941 0.44902 0.81349 0.0
H2494 H 0.25938 0.53737 0.81972 0.0
H2495 H 0.19006 0.57971 0.79917 0.0
H2496 H 0.22475 0.44713 0.80678 0.0
H2497 H 0.18285 0.4293 0.8175 0.0
H2498 H 0.23391 0.46606 0.82264 0.0
H2499 H 0.13604 0.49758 0.78047 0.0
H2500 H 0.13076 0.53687 0.78818 0.0
H2501 H 0.10229 0.48475 0.79357 0.0
C2502 C 0.39424 0.94263 0.0863 0.0
C2503 C 0.42791 0.98206 0.08763 0.0
C2504 C 0.39729 0.91272 0.07945 0.0
C2505 C 0.43479 0.92266 0.07362 0.0
C2506 C 0.46885 0.96254 0.07485 0.0
C2507 C 0.4651 0.99169 0.08193 0.0
C2508 C 0.36037 0.87036 0.07853 0.0
C2509 C 0.50911 0.97445 0.06863 0.0
C2510 C 0.44381 0.82914 0.06815 0.0
C2511 C 0.42768 0.81777 0.05599 0.0
C2512 C 0.44914 0.86494 0.0737 0.0
C2513 C 0.43848 0.89031 0.06687 0.0
C2514 C 0.42634 0.88128 0.05412 0.0
C2515 C 0.42101 0.84495 0.0488 0.0
C2516 C 0.46245 0.87341 0.08727 0.0
C2517 C 0.41565 0.90811 0.04642 0.0
H2518 H 0.3654 0.93512 0.09062 0.0
H2519 H 0.49109 0.02235 0.08277 0.0
H2520 H 0.35208 0.86218 0.06853 0.0
H2521 H 0.36759 0.84771 0.08259 0.0
H2522 H 0.33341 0.86769 0.08352 0.0
H2523 H 0.53226 0.00711 0.07014 0.0
H2524 H 0.52138 0.95538 0.07235 0.0
H2525 H 0.50455 0.96874 0.05838 0.0
H2526 H 0.44958 0.80851 0.07371 0.0
H2527 H 0.40864 0.83642 0.03939 0.0
H2528 H 0.43596 0.86758 0.09319 0.0
H2529 H 0.48634 0.90585 0.08856 0.0
H2530 H 0.4745 0.85381 0.09073 0.0
H2531 H 0.38536 0.90295 0.04939 0.0
H2532 H 0.41421 0.90138 0.03622 0.0
H2533 H 0.43828 0.94086 0.04795 0.0
C2534 C 0.09701 0.47234 0.08054 0.0
C2535 C 0.06063 0.47268 0.08252 0.0
C2536 C 0.13034 0.50486 0.07441 0.0
C2537 C 0.12723 0.53856 0.07002 0.0
C2538 C 0.09034 0.53883 0.07181 0.0
C2539 C 0.05754 0.50598 0.07811 0.0
C2540 C 0.16923 0.50345 0.07283 0.0
C2541 C 0.08567 0.57393 0.06716 0.0
C2542 C 0.23098 0.63418 0.06805 0.0
C2543 C 0.24203 0.63326 0.05554 0.0
C2544 C 0.1924 0.60529 0.07264 0.0
C2545 C 0.16395 0.57463 0.06452 0.0
C2546 C 0.17355 0.57581 0.05159 0.0
C2547 C 0.2127 0.60514 0.04724 0.0
C2548 C 0.18362 0.6055 0.08646 0.0
C2549 C 0.14382 0.54417 0.04256 0.0
H2550 H 0.09954 0.44661 0.08385 0.0
H2551 H 0.02929 0.50619 0.07947 0.0
H2552 H 0.17786 0.50681 0.06277 0.0
H2553 H 0.19459 0.52931 0.07793 0.0
H2554 H 0.16627 0.47451 0.07641 0.0
H2555 H 0.05417 0.56827 0.06852 0.0
H2556 H 0.10727 0.60227 0.07221 0.0
H2557 H 0.09341 0.57944 0.05703 0.0
H2558 H 0.25355 0.65613 0.07448 0.0
H2559 H 0.22129 0.60396 0.03763 0.0
H2560 H 0.18364 0.57931 0.09116 0.0
H2561 H 0.15298 0.60188 0.08787 0.0
H2562 H 0.20673 0.63407 0.09114 0.0
H2563 H 0.14359 0.51507 0.04405 0.0
H2564 H 0.15229 0.55379 0.03263 0.0
H2565 H 0.11234 0.5381 0.04421 0.0
C2566 C 0.57018 0.65166 0.08062 0.0
C2567 C 0.59795 0.64092 0.07599 0.0
C2568 C 0.53994 0.65101 0.07277 0.0
C2569 C 0.53627 0.63748 0.06016 0.0
C2570 C 0.56389 0.62583 0.05554 0.0
C2571 C 0.59492 0.6285 0.06344 0.0
C2572 C 0.51183 0.66475 0.07799 0.0
C2573 C 0.55996 0.60948 0.04239 0.0
C2574 C 0.42996 0.60491 0.04835 0.0
C2575 C 0.43663 0.64055 0.04225 0.0
C2576 C 0.46288 0.60153 0.05302 0.0
C2577 C 0.50312 0.63532 0.05199 0.0
C2578 C 0.51018 0.66962 0.04468 0.0
C2579 C 0.47674 0.67146 0.0397 0.0
C2580 C 0.45408 0.56353 0.06019 0.0
C2581 C 0.55235 0.70665 0.04348 0.0
H2582 H 0.57249 0.66107 0.09033 0.0
H2583 H 0.61598 0.61938 0.05994 0.0
H2584 H 0.51217 0.68866 0.07185 0.0
H2585 H 0.48 0.63868 0.07821 0.0
H2586 H 0.52057 0.67713 0.08766 0.0
H2587 H 0.58364 0.60128 0.04029 0.0
H2588 H 0.52938 0.58192 0.04116 0.0
H2589 H 0.56245 0.63242 0.03541 0.0
H2590 H 0.39891 0.58126 0.05048 0.0
H2591 H 0.48184 0.69944 0.03523 0.0
H2592 H 0.45504 0.56942 0.07041 0.0
H2593 H 0.47745 0.55491 0.05816 0.0
H2594 H 0.4234 0.53737 0.05786 0.0
H2595 H 0.5608 0.72362 0.05248 0.0
H2596 H 0.55374 0.7276 0.03591 0.0
H2597 H 0.57548 0.69767 0.04154 0.0
C2598 C 0.09697 0.61217 0.58497 0.0
C2599 C 0.07218 0.62619 0.57983 0.0
C2600 C 0.13099 0.61649 0.57838 0.0
C2601 C 0.14013 0.63483 0.5663 0.0
C2602 C 0.1142 0.64753 0.56086 0.0
C2603 C 0.08073 0.64337 0.56773 0.0
C2604 C 0.15812 0.60293 0.58457 0.0
C2605 C 0.12257 0.66671 0.54795 0.0
C2606 C 0.25303 0.69217 0.55918 0.0
C2607 C 0.25793 0.66358 0.55223 0.0
C2608 C 0.21458 0.68382 0.56327 0.0
C2609 C 0.1798 0.6459 0.56026 0.0
C2610 C 0.18401 0.61803 0.55242 0.0
C2611 C 0.22327 0.62721 0.54847 0.0
C2612 C 0.21164 0.71467 0.57148 0.0
C2613 C 0.14748 0.57765 0.5488 0.0
H2614 H 0.09021 0.59846 0.59425 0.0
H2615 H 0.06118 0.65356 0.5636 0.0
H2616 H 0.16294 0.5827 0.57819 0.0
H2617 H 0.18853 0.62999 0.58653 0.0
H2618 H 0.14514 0.58643 0.59355 0.0
H2619 H 0.09672 0.66994 0.5444 0.0
H2620 H 0.15032 0.69747 0.54826 0.0
H2621 H 0.12855 0.64818 0.54119 0.0
H2622 H 0.27974 0.72072 0.56191 0.0
H2623 H 0.22696 0.60512 0.54307 0.0
H2624 H 0.20165 0.70179 0.58105 0.0
H2625 H 0.18851 0.72162 0.5677 0.0
H2626 H 0.24127 0.74373 0.57228 0.0
H2627 H 0.13747 0.55675 0.55702 0.0
H2628 H 0.15463 0.56294 0.54098 0.0
H2629 H 0.12149 0.58164 0.54597 0.0
C2630 C 0.39294 0.42192 0.57045 0.0
C2631 C 0.42292 0.42856 0.5794 0.0
C2632 C 0.3919 0.4547 0.56464 0.0
C2633 C 0.42129 0.49525 0.56796 0.0
C2634 C 0.45255 0.5022 0.57665 0.0
C2635 C 0.45308 0.46875 0.58225 0.0
C2636 C 0.35806 0.44583 0.55542 0.0
C2637 C 0.48426 0.54493 0.58052 0.0
C2638 C 0.42456 0.58331 0.54918 0.0
C2639 C 0.39955 0.5923 0.55658 0.0
C2640 C 0.43251 0.55204 0.55276 0.0
C2641 C 0.41509 0.52953 0.56398 0.0
C2642 C 0.39008 0.53877 0.57144 0.0
C2643 C 0.38265 0.56977 0.56766 0.0
C2644 C 0.45928 0.54291 0.54455 0.0
C2645 C 0.37066 0.5156 0.58344 0.0
H2646 H 0.36992 0.39094 0.56802 0.0
H2647 H 0.47662 0.47409 0.58904 0.0
H2648 H 0.33624 0.45366 0.55972 0.0
H2649 H 0.3706 0.4649 0.54685 0.0
H2650 H 0.34095 0.41318 0.55262 0.0
H2651 H 0.50931 0.54545 0.58612 0.0
H2652 H 0.4976 0.56471 0.57213 0.0
H2653 H 0.46959 0.55836 0.58626 0.0
H2654 H 0.4378 0.60056 0.54063 0.0
H2655 H 0.36324 0.57623 0.57351 0.0
H2656 H 0.44191 0.51076 0.54132 0.0
H2657 H 0.48579 0.54639 0.55004 0.0
H2658 H 0.47076 0.56331 0.5362 0.0
H2659 H 0.34995 0.48278 0.58134 0.0
H2660 H 0.35277 0.52728 0.58833 0.0
H2661 H 0.39455 0.51771 0.58997 0.0
C2662 C 0.57544 0.96902 0.58614 0.0
C2663 C 0.61586 0.99111 0.58186 0.0
C2664 C 0.546 0.93418 0.57971 0.0
C2665 C 0.55718 0.92144 0.56866 0.0
C2666 C 0.59759 0.94457 0.56405 0.0
C2667 C 0.6265 0.97891 0.57076 0.0
C2668 C 0.50334 0.91007 0.58501 0.0
C2669 C 0.61065 0.93228 0.55226 0.0
C2670 C 0.49979 0.80747 0.56334 0.0
C2671 C 0.46983 0.80231 0.55456 0.0
C2672 C 0.52886 0.84611 0.56769 0.0
C2673 C 0.52846 0.88091 0.56307 0.0
C2674 C 0.49983 0.87634 0.55364 0.0
C2675 C 0.47065 0.83687 0.54948 0.0
C2676 C 0.55892 0.84941 0.57765 0.0
C2677 C 0.49899 0.91287 0.54835 0.0
H2678 H 0.56694 0.97862 0.59462 0.0
H2679 H 0.65752 0.99632 0.56725 0.0
H2680 H 0.48043 0.90463 0.57763 0.0
H2681 H 0.49759 0.87976 0.58827 0.0
H2682 H 0.49857 0.92582 0.59304 0.0
H2683 H 0.64151 0.95615 0.54908 0.0
H2684 H 0.61116 0.90367 0.55401 0.0
H2685 H 0.58846 0.92609 0.54457 0.0
H2686 H 0.49983 0.78092 0.56716 0.0
H2687 H 0.44761 0.83303 0.54269 0.0
H2688 H 0.55402 0.86227 0.58637 0.0
H2689 H 0.59068 0.87047 0.5745 0.0
H2690 H 0.55593 0.8194 0.57994 0.0
H2691 H 0.48781 0.92571 0.55563 0.0
H2692 H 0.47872 0.90483 0.54 0.0
H2693 H 0.53022 0.9372 0.54568 0.0
C2694 C 0.2454 0.38666 0.2845 0.0
C2695 C 0.28172 0.39188 0.27928 0.0
C2696 C 0.24421 0.41939 0.29025 0.0
C2697 C 0.28 0.45839 0.2906 0.0
C2698 C 0.31674 0.4637 0.28536 0.0
C2699 C 0.3172 0.43036 0.27985 0.0
C2700 C 0.20467 0.41234 0.29591 0.0
C2701 C 0.35551 0.50487 0.28537 0.0
C2702 C 0.2786 0.55733 0.29089 0.0
C2703 C 0.29482 0.57285 0.3028 0.0
C2704 C 0.27074 0.51868 0.28712 0.0
C2705 C 0.27887 0.4946 0.29551 0.0
C2706 C 0.29121 0.5083 0.308 0.0
C2707 C 0.29926 0.54748 0.3115 0.0
C2708 C 0.25742 0.5054 0.27374 0.0
C2709 C 0.2992 0.48314 0.31736 0.0
H2710 H 0.21799 0.35681 0.28424 0.0
H2711 H 0.34539 0.43453 0.2759 0.0
H2712 H 0.20967 0.4228 0.30581 0.0
H2713 H 0.19378 0.43054 0.29074 0.0
H2714 H 0.18032 0.37967 0.29563 0.0
H2715 H 0.38169 0.5037 0.28116 0.0
H2716 H 0.35064 0.52722 0.27999 0.0
H2717 H 0.36369 0.51641 0.29512 0.0
H2718 H 0.27463 0.57663 0.28416 0.0
H2719 H 0.31197 0.55928 0.32069 0.0
H2720 H 0.2318 0.47338 0.27345 0.0
H2721 H 0.2832 0.50677 0.26841 0.0
H2722 H 0.2477 0.52516 0.2689 0.0
H2723 H 0.27543 0.45038 0.31671 0.0
H2724 H 0.30016 0.49369 0.32714 0.0
H2725 H 0.32909 0.48573 0.31525 0.0
C2726 C 0.62234 0.92474 0.28038 0.0
C2727 C 0.66143 0.92952 0.27991 0.0
C2728 C 0.59033 0.89148 0.28675 0.0
C2729 C 0.59792 0.86297 0.29312 0.0
C2730 C 0.63785 0.86875 0.29312 0.0
C2731 C 0.66897 0.90156 0.28634 0.0
C2732 C 0.54804 0.88608 0.28628 0.0
C2733 C 0.64756 0.83993 0.30012 0.0
C2734 C 0.5093 0.79242 0.3144 0.0
C2735 C 0.48622 0.75996 0.30617 0.0
C2736 C 0.54783 0.82498 0.31073 0.0
C2737 C 0.563 0.82509 0.29855 0.0
C2738 C 0.54157 0.79034 0.29081 0.0
C2739 C 0.50379 0.75808 0.29479 0.0
C2740 C 0.57054 0.86067 0.31949 0.0
C2741 C 0.5563 0.7889 0.27775 0.0
H2742 H 0.61652 0.94645 0.27549 0.0
H2743 H 0.69943 0.90564 0.2862 0.0
H2744 H 0.52677 0.85692 0.28153 0.0
H2745 H 0.53639 0.88435 0.29594 0.0
H2746 H 0.54742 0.91142 0.28119 0.0
H2747 H 0.68095 0.85157 0.30056 0.0
H2748 H 0.63538 0.83498 0.30983 0.0
H2749 H 0.6326 0.80978 0.29541 0.0
H2750 H 0.49599 0.79412 0.3232 0.0
H2751 H 0.48629 0.73275 0.28847 0.0
H2752 H 0.56524 0.88577 0.31658 0.0
H2753 H 0.60394 0.87252 0.31909 0.0
H2754 H 0.56002 0.85221 0.32935 0.0
H2755 H 0.55388 0.81145 0.27166 0.0
H2756 H 0.53818 0.75823 0.27342 0.0
H2757 H 0.58887 0.79729 0.27793 0.0
C2758 C 0.16562 0.81246 0.28102 0.0
C2759 C 0.13572 0.77647 0.27522 0.0
C2760 C 0.19912 0.81391 0.28724 0.0
C2761 C 0.20312 0.77876 0.28747 0.0
C2762 C 0.17308 0.74243 0.28157 0.0
C2763 C 0.13962 0.74166 0.2756 0.0
C2764 C 0.23011 0.85294 0.2936 0.0
C2765 C 0.17648 0.7044 0.28143 0.0
C2766 C 0.30428 0.78231 0.29 0.0
C2767 C 0.30093 0.76429 0.30181 0.0
C2768 C 0.27401 0.7901 0.28557 0.0
C2769 C 0.23971 0.78007 0.2932 0.0
C2770 C 0.23834 0.76599 0.30565 0.0
C2771 C 0.26898 0.75805 0.30981 0.0
C2772 C 0.27693 0.80533 0.27226 0.0
C2773 C 0.20281 0.75593 0.31421 0.0
H2774 H 0.16243 0.83932 0.2809 0.0
H2775 H 0.1165 0.71375 0.27119 0.0
H2776 H 0.23316 0.8469 0.30364 0.0
H2777 H 0.26054 0.86471 0.28921 0.0
H2778 H 0.22168 0.87705 0.29302 0.0
H2779 H 0.15039 0.67859 0.27652 0.0
H2780 H 0.2052 0.71093 0.27669 0.0
H2781 H 0.17781 0.69473 0.29119 0.0
H2782 H 0.32921 0.78768 0.28382 0.0
H2783 H 0.26601 0.74395 0.31891 0.0
H2784 H 0.26973 0.83027 0.27186 0.0
H2785 H 0.2542 0.78004 0.26631 0.0
H2786 H 0.30776 0.81664 0.26817 0.0
H2787 H 0.1937 0.77947 0.31348 0.0
H2788 H 0.21012 0.75339 0.32417 0.0
H2789 H 0.17615 0.7263 0.31136 0.0
loop_
_geom_bond_atom_site_label_1
_geom_bond_atom_site_label_2
_geom_bond_distance
_geom_bond_site_symmetry_2
_ccdc_geom_bond_type
In0 O1 2.294 . S
In0 O2 2.326 . S
In0 O6 2.266 . S
In0 O7 2.326 1_545 S
In0 O8 2.266 1_545 S
In0 O9 2.326 . S
In0 O11 2.294 1_545 S
In0 O12 2.326 . S
O1 In0 2.294 . S
O1 C10 1.240 . S
O2 In0 2.326 . S
O2 C10 1.252 . S
C3 O6 1.252 . S
C3 O7 1.260 1_545 S
C4 O11 1.240 1_545 S
C4 O12 1.252 . S
C5 O8 1.252 . S
C5 O9 1.260 1_565 S
O6 In0 2.266 . S
O6 C3 1.252 . S
O7 In0 2.326 1_565 S
O7 C3 1.260 1_565 S
O8 In0 2.266 1_565 S
O8 C5 1.252 . S
O9 In0 2.326 . S
O9 C5 1.260 1_545 S
C10 O1 1.240 . S
C10 O2 1.252 . S
O11 In0 2.294 1_565 S
O11 C4 1.240 1_565 S
O12 In0 2.326 . S
O12 C4 1.252 . S
In13 O14 2.294 . S
In13 O15 2.326 . S
In13 O19 2.266 . S
In13 O20 2.326 1_455 S
In13 O21 2.266 1_455 S
In13 O22 2.326 . S
In13 O24 2.294 1_455 S
In13 O25 2.326 . S
O14 In13 2.294 . S
O14 C23 1.240 . S
O15 In13 2.326 . S
O15 C23 1.252 . S
C16 O19 1.252 . S
C16 O20 1.260 1_455 S
C17 O24 1.240 1_455 S
C17 O25 1.252 . S
C18 O21 1.252 . S
C18 O22 1.260 1_655 S
O19 In13 2.266 . S
O19 C16 1.252 . S
O20 In13 2.326 1_655 S
O20 C16 1.260 1_655 S
O21 In13 2.266 1_655 S
O21 C18 1.252 . S
O22 In13 2.326 . S
O22 C18 1.260 1_455 S
C23 O14 1.240 . S
C23 O15 1.252 . S
O24 In13 2.294 1_655 S
O24 C17 1.240 1_655 S
O25 In13 2.326 . S
O25 C17 1.252 . S
In26 O27 2.294 . S
In26 O28 2.326 . S
In26 O32 2.266 . S
In26 O33 2.326 . S
In26 O34 2.266 . S
In26 O35 2.326 . S
In26 O37 2.294 . S
In26 O38 2.326 . S
O27 In26 2.294 . S
O27 C36 1.240 . S
O28 In26 2.326 . S
O28 C36 1.252 . S
C29 O32 1.252 . S
C29 O33 1.260 . S
C30 O37 1.240 . S
C30 O38 1.252 . S
C31 O34 1.252 . S
C31 O35 1.260 . S
O32 In26 2.266 . S
O32 C29 1.252 . S
O33 In26 2.326 . S
O33 C29 1.260 . S
O34 In26 2.266 . S
O34 C31 1.252 . S
O35 In26 2.326 . S
O35 C31 1.260 . S
C36 O27 1.240 . S
C36 O28 1.252 . S
O37 In26 2.294 . S
O37 C30 1.240 . S
O38 In26 2.326 . S
O38 C30 1.252 . S
In39 O40 2.294 . S
In39 O41 2.326 1_545 S
In39 O45 2.266 . S
In39 O46 2.326 . S
In39 O47 2.266 1_545 S
In39 O48 2.326 . S
In39 O50 2.294 1_545 S
In39 O51 2.326 . S
O40 In39 2.294 . S
O40 C49 1.240 . S
O41 In39 2.326 1_565 S
O41 C49 1.252 1_565 S
C42 O45 1.252 . S
C42 O46 1.260 . S
C43 O50 1.240 . S
C43 O51 1.252 1_565 S
C44 O47 1.252 1_545 S
C44 O48 1.260 . S
O45 In39 2.266 . S
O45 C42 1.252 . S
O46 In39 2.326 . S
O46 C42 1.260 . S
O47 In39 2.266 1_565 S
O47 C44 1.252 1_565 S
O48 In39 2.326 . S
O48 C44 1.260 . S
C49 O40 1.240 . S
C49 O41 1.252 1_545 S
O50 In39 2.294 1_565 S
O50 C43 1.240 . S
O51 In39 2.326 . S
O51 C43 1.252 1_545 S
In52 O53 2.294 . S
In52 O54 2.326 1_455 S
In52 O58 2.266 . S
In52 O59 2.326 . S
In52 O60 2.266 1_455 S
In52 O61 2.326 . S
In52 O63 2.294 1_455 S
In52 O64 2.326 . S
O53 In52 2.294 . S
O53 C62 1.240 . S
O54 In52 2.326 1_655 S
O54 C62 1.252 1_655 S
C55 O58 1.252 . S
C55 O59 1.260 . S
C56 O63 1.240 . S
C56 O64 1.252 1_655 S
C57 O60 1.252 1_455 S
C57 O61 1.260 . S
O58 In52 2.266 . S
O58 C55 1.252 . S
O59 In52 2.326 . S
O59 C55 1.260 . S
O60 In52 2.266 1_655 S
O60 C57 1.252 1_655 S
O61 In52 2.326 . S
O61 C57 1.260 . S
C62 O53 1.240 . S
C62 O54 1.252 1_455 S
O63 In52 2.294 1_655 S
O63 C56 1.240 . S
O64 In52 2.326 . S
O64 C56 1.252 1_455 S
In65 O66 2.294 . S
In65 O67 2.326 . S
In65 O71 2.266 . S
In65 O72 2.326 . S
In65 O73 2.266 . S
In65 O74 2.326 . S
In65 O76 2.294 . S
In65 O77 2.326 . S
O66 In65 2.294 . S
O66 C75 1.240 . S
O67 In65 2.326 . S
O67 C75 1.252 . S
C68 O71 1.252 . S
C68 O72 1.260 . S
C69 O76 1.240 . S
C69 O77 1.252 . S
C70 O73 1.252 . S
C70 O74 1.260 . S
O71 In65 2.266 . S
O71 C68 1.252 . S
O72 In65 2.326 . S
O72 C68 1.260 . S
O73 In65 2.266 . S
O73 C70 1.252 . S
O74 In65 2.326 . S
O74 C70 1.260 . S
C75 O66 1.240 . S
C75 O67 1.252 . S
O76 In65 2.294 . S
O76 C69 1.240 . S
O77 In65 2.326 . S
O77 C69 1.252 . S
In78 O79 2.294 . S
In78 O80 2.326 . S
In78 O84 2.266 . S
In78 O85 2.326 . S
In78 O86 2.266 . S
In78 O87 2.326 . S
In78 O89 2.294 . S
In78 O90 2.326 . S
O79 In78 2.294 . S
O79 C88 1.240 . S
O80 In78 2.326 . S
O80 C88 1.252 . S
C81 O84 1.252 . S
C81 O85 1.260 . S
C82 O89 1.240 . S
C82 O90 1.252 . S
C83 O86 1.252 . S
C83 O87 1.260 . S
O84 In78 2.266 . S
O84 C81 1.252 . S
O85 In78 2.326 . S
O85 C81 1.260 . S
O86 In78 2.266 . S
O86 C83 1.252 . S
O87 In78 2.326 . S
O87 C83 1.260 . S
C88 O79 1.240 . S
C88 O80 1.252 . S
O89 In78 2.294 . S
O89 C82 1.240 . S
O90 In78 2.326 . S
O90 C82 1.252 . S
In91 O92 2.294 . S
In91 O93 2.326 . S
In91 O97 2.266 . S
In91 O98 2.326 . S
In91 O99 2.266 . S
In91 O100 2.326 . S
In91 O102 2.294 . S
In91 O103 2.326 . S
O92 In91 2.294 . S
O92 C101 1.240 . S
O93 In91 2.326 . S
O93 C101 1.252 . S
C94 O97 1.252 . S
C94 O98 1.260 . S
C95 O102 1.240 . S
C95 O103 1.252 . S
C96 O99 1.252 . S
C96 O100 1.260 . S
O97 In91 2.266 . S
O97 C94 1.252 . S
O98 In91 2.326 . S
O98 C94 1.260 . S
O99 In91 2.266 . S
O99 C96 1.252 . S
O100 In91 2.326 . S
O100 C96 1.260 . S
C101 O92 1.240 . S
C101 O93 1.252 . S
O102 In91 2.294 . S
O102 C95 1.240 . S
O103 In91 2.326 . S
O103 C95 1.252 . S
In104 O105 2.294 . S
In104 O106 2.324 1_655 S
In104 O110 2.266 . S
In104 O111 2.326 . S
In104 O112 2.266 1_655 S
In104 O113 2.326 1_655 S
In104 O115 2.294 . S
In104 O116 2.326 . S
O105 In104 2.294 . S
O105 C114 1.240 . S
O106 In104 2.324 1_455 S
O106 C114 1.227 1_455 S
C107 O110 1.252 . S
C107 O111 1.260 . S
C108 O115 1.240 . S
C108 O116 1.252 . S
C109 O112 1.252 . S
C109 O113 1.260 . S
O110 In104 2.266 . S
O110 C107 1.252 . S
O111 In104 2.326 . S
O111 C107 1.260 . S
O112 In104 2.266 1_455 S
O112 C109 1.252 . S
O113 In104 2.326 1_455 S
O113 C109 1.260 . S
C114 O105 1.240 . S
C114 O106 1.227 1_655 S
O115 In104 2.294 . S
O115 C108 1.240 . S
O116 In104 2.326 . S
O116 C108 1.252 . S
In117 O118 2.294 . S
In117 O119 2.326 . S
In117 O123 2.266 . S
In117 O124 2.326 . S
In117 O125 2.266 1_655 S
In117 O126 2.326 1_655 S
In117 O128 2.294 . S
In117 O129 2.326 . S
O118 In117 2.294 . S
O118 C127 1.240 . S
O119 In117 2.326 . S
O119 C127 1.252 . S
C120 O123 1.252 . S
C120 O124 1.260 . S
C121 O128 1.240 . S
C121 O129 1.252 . S
C122 O125 1.252 . S
C122 O126 1.260 . S
O123 In117 2.266 . S
O123 C120 1.252 . S
O124 In117 2.326 . S
O124 C120 1.260 . S
O125 In117 2.266 1_455 S
O125 C122 1.252 . S
O126 In117 2.326 1_455 S
O126 C122 1.260 . S
C127 O118 1.240 . S
C127 O119 1.252 . S
O128 In117 2.294 . S
O128 C121 1.240 . S
O129 In117 2.326 . S
O129 C121 1.252 . S
In130 O131 2.294 . S
In130 O132 2.326 . S
In130 O136 2.266 . S
In130 O137 2.326 . S
In130 O138 2.266 . S
In130 O139 2.326 . S
In130 O141 2.294 . S
In130 O142 2.326 . S
O131 In130 2.294 . S
O131 C140 1.240 . S
O132 In130 2.326 . S
O132 C140 1.252 . S
C133 O136 1.252 . S
C133 O137 1.260 . S
C134 O141 1.240 . S
C134 O142 1.252 . S
C135 O138 1.252 . S
C135 O139 1.260 . S
O136 In130 2.266 . S
O136 C133 1.252 . S
O137 In130 2.326 . S
O137 C133 1.260 . S
O138 In130 2.266 . S
O138 C135 1.252 . S
O139 In130 2.326 . S
O139 C135 1.260 . S
C140 O131 1.240 . S
C140 O132 1.252 . S
O141 In130 2.294 . S
O141 C134 1.240 . S
O142 In130 2.326 . S
O142 C134 1.252 . S
In143 O144 2.294 . S
In143 O145 2.326 . S
In143 O149 2.266 . S
In143 O150 2.326 . S
In143 O151 2.266 . S
In143 O152 2.326 . S
In143 O154 2.294 . S
In143 O155 2.326 . S
O144 In143 2.294 . S
O144 C153 1.240 . S
O145 In143 2.326 . S
O145 C153 1.252 . S
C146 O149 1.252 . S
C146 O150 1.260 . S
C147 O154 1.240 . S
C147 O155 1.252 . S
C148 O151 1.252 . S
C148 O152 1.260 . S
O149 In143 2.266 . S
O149 C146 1.252 . S
O150 In143 2.326 . S
O150 C146 1.260 . S
O151 In143 2.266 . S
O151 C148 1.252 . S
O152 In143 2.326 . S
O152 C148 1.260 . S
C153 O144 1.240 . S
C153 O145 1.252 . S
O154 In143 2.294 . S
O154 C147 1.240 . S
O155 In143 2.326 . S
O155 C147 1.252 . S
In156 O157 2.294 . S
In156 O158 2.326 . S
In156 O162 2.266 . S
In156 O163 2.326 . S
In156 O164 2.266 . S
In156 O165 2.326 . S
In156 O167 2.294 . S
In156 O168 2.326 . S
O157 In156 2.294 . S
O157 C166 1.240 . S
O158 In156 2.326 . S
O158 C166 1.252 . S
C159 O162 1.252 . S
C159 O163 1.260 . S
C160 O167 1.240 . S
C160 O168 1.252 . S
C161 O164 1.252 . S
C161 O165 1.260 . S
O162 In156 2.266 . S
O162 C159 1.252 . S
O163 In156 2.326 . S
O163 C159 1.260 . S
O164 In156 2.266 . S
O164 C161 1.252 . S
O165 In156 2.326 . S
O165 C161 1.260 . S
C166 O157 1.240 . S
C166 O158 1.252 . S
O167 In156 2.294 . S
O167 C160 1.240 . S
O168 In156 2.326 . S
O168 C160 1.252 . S
In169 O170 2.294 . S
In169 O171 2.326 . S
In169 O175 2.266 . S
In169 O176 2.326 . S
In169 O177 2.266 . S
In169 O178 2.326 . S
In169 O180 2.294 . S
In169 O181 2.326 . S
O170 In169 2.294 . S
O170 C179 1.240 . S
O171 In169 2.326 . S
O171 C179 1.252 . S
C172 O175 1.252 . S
C172 O176 1.260 . S
C173 O180 1.240 . S
C173 O181 1.252 . S
C174 O177 1.252 . S
C174 O178 1.260 . S
O175 In169 2.266 . S
O175 C172 1.252 . S
O176 In169 2.326 . S
O176 C172 1.260 . S
O177 In169 2.266 . S
O177 C174 1.252 . S
O178 In169 2.326 . S
O178 C174 1.260 . S
C179 O170 1.240 . S
C179 O171 1.252 . S
O180 In169 2.294 . S
O180 C173 1.240 . S
O181 In169 2.326 . S
O181 C173 1.252 . S
In182 O183 2.294 . S
In182 O184 2.326 . S
In182 O188 2.266 . S
In182 O189 2.326 1_565 S
In182 O190 2.266 . S
In182 O191 2.326 . S
In182 O193 2.294 1_565 S
In182 O194 2.326 1_565 S
O183 In182 2.294 . S
O183 C192 1.240 . S
O184 In182 2.326 . S
O184 C192 1.252 . S
C185 O188 1.252 . S
C185 O189 1.260 1_565 S
C186 O193 1.240 . S
C186 O194 1.252 . S
C187 O190 1.252 . S
C187 O191 1.260 . S
O188 In182 2.266 . S
O188 C185 1.252 . S
O189 In182 2.326 1_545 S
O189 C185 1.260 1_545 S
O190 In182 2.266 . S
O190 C187 1.252 . S
O191 In182 2.326 . S
O191 C187 1.260 . S
C192 O183 1.240 . S
C192 O184 1.252 . S
O193 In182 2.294 1_545 S
O193 C186 1.240 . S
O194 In182 2.326 1_545 S
O194 C186 1.252 . S
In195 O196 2.294 . S
In195 O197 2.326 . S
In195 O201 2.266 . S
In195 O202 2.326 . S
In195 O203 2.266 . S
In195 O204 2.326 . S
In195 O206 2.294 . S
In195 O207 2.326 . S
O196 In195 2.294 . S
O196 C205 1.240 . S
O197 In195 2.326 . S
O197 C205 1.252 . S
C198 O201 1.252 . S
C198 O202 1.260 . S
C199 O206 1.240 . S
C199 O207 1.252 . S
C200 O203 1.252 . S
C200 O204 1.260 . S
O201 In195 2.266 . S
O201 C198 1.252 . S
O202 In195 2.326 . S
O202 C198 1.260 . S
O203 In195 2.266 . S
O203 C200 1.252 . S
O204 In195 2.326 . S
O204 C200 1.260 . S
C205 O196 1.240 . S
C205 O197 1.252 . S
O206 In195 2.294 . S
O206 C199 1.240 . S
O207 In195 2.326 . S
O207 C199 1.252 . S
In208 O209 2.294 . S
In208 O210 2.326 . S
In208 O214 2.266 1_565 S
In208 O215 2.326 1_565 S
In208 O216 2.266 . S
In208 O217 2.326 . S
In208 O219 2.294 . S
In208 O220 2.326 . S
O209 In208 2.294 . S
O209 C218 1.240 . S
O210 In208 2.326 . S
O210 C218 1.252 . S
C211 O214 1.252 . S
C211 O215 1.260 . S
C212 O219 1.240 . S
C212 O220 1.252 . S
C213 O216 1.252 . S
C213 O217 1.260 . S
O214 In208 2.266 1_545 S
O214 C211 1.252 . S
O215 In208 2.326 1_545 S
O215 C211 1.260 . S
O216 In208 2.266 . S
O216 C213 1.252 . S
O217 In208 2.326 . S
O217 C213 1.260 . S
C218 O209 1.240 . S
C218 O210 1.252 . S
O219 In208 2.294 . S
O219 C212 1.240 . S
O220 In208 2.326 . S
O220 C212 1.252 . S
In221 O222 2.294 . S
In221 O223 2.326 . S
In221 O227 2.266 . S
In221 O228 2.326 . S
In221 O229 2.266 . S
In221 O230 2.326 . S
In221 O232 2.294 . S
In221 O233 2.326 . S
O222 In221 2.294 . S
O222 C231 1.240 . S
O223 In221 2.326 . S
O223 C231 1.252 . S
C224 O227 1.252 . S
C224 O228 1.260 . S
C225 O232 1.240 . S
C225 O233 1.252 . S
C226 O229 1.252 . S
C226 O230 1.260 . S
O227 In221 2.266 . S
O227 C224 1.252 . S
O228 In221 2.326 . S
O228 C224 1.260 . S
O229 In221 2.266 . S
O229 C226 1.252 . S
O230 In221 2.326 . S
O230 C226 1.260 . S
C231 O222 1.240 . S
C231 O223 1.252 . S
O232 In221 2.294 . S
O232 C225 1.240 . S
O233 In221 2.326 . S
O233 C225 1.252 . S
Zn234 O240 1.920 1_455 S
Zn234 O246 1.898 1_445 S
Zn234 O249 1.905 . S
Zn235 O243 1.905 1_545 S
Zn235 O244 1.898 . S
Zn235 O252 1.920 1_455 S
Zn236 O239 2.080 . S
Zn236 O242 2.114 1_545 S
Zn236 O245 2.120 . S
Zn236 O247 2.120 1_445 S
Zn236 O248 2.114 . S
Zn236 O251 2.080 1_455 S
C237 O242 1.166 . S
C237 O243 1.182 . S
C238 O244 1.167 . S
C238 O245 1.299 . S
O239 Zn236 2.080 . S
O239 C253 1.305 . S
O240 Zn234 1.920 1_655 S
O240 C253 1.234 1_655 S
C241 O246 1.167 . S
C241 O247 1.299 . S
O242 Zn236 2.114 1_565 S
O242 C237 1.166 . S
O243 Zn235 1.905 1_565 S
O243 C237 1.182 . S
O244 Zn235 1.898 . S
O244 C238 1.167 . S
O245 Zn236 2.120 . S
O245 C238 1.299 . S
O246 Zn234 1.898 1_665 S
O246 C241 1.167 . S
O247 Zn236 2.120 1_665 S
O247 C241 1.299 . S
O248 Zn236 2.114 . S
O248 C250 1.166 . S
O249 Zn234 1.905 . S
O249 C250 1.182 . S
C250 O248 1.166 . S
C250 O249 1.182 . S
O251 Zn236 2.080 1_655 S
O251 C254 1.305 . S
O252 Zn235 1.920 1_655 S
O252 C254 1.234 . S
C253 O239 1.305 . S
C253 O240 1.234 1_455 S
C254 O251 1.305 . S
C254 O252 1.234 . S
Zn255 O261 1.920 1_545 S
Zn255 O267 1.898 . S
Zn255 O270 1.905 1_455 S
Zn256 O264 1.905 . S
Zn256 O265 1.898 1_445 S
Zn256 O273 1.920 1_545 S
Zn257 O260 2.080 1_545 S
Zn257 O263 2.114 . S
Zn257 O266 2.120 1_445 S
Zn257 O268 2.120 . S
Zn257 O269 2.114 1_455 S
Zn257 O272 2.080 . S
C258 O263 1.166 . S
C258 O264 1.182 . S
C259 O265 1.167 . S
C259 O266 1.299 . S
O260 Zn257 2.080 1_565 S
O260 C274 1.305 . S
O261 Zn255 1.920 1_565 S
O261 C274 1.234 . S
C262 O267 1.167 . S
C262 O268 1.299 . S
O263 Zn257 2.114 . S
O263 C258 1.166 . S
O264 Zn256 1.905 . S
O264 C258 1.182 . S
O265 Zn256 1.898 1_665 S
O265 C259 1.167 . S
O266 Zn257 2.120 1_665 S
O266 C259 1.299 . S
O267 Zn255 1.898 . S
O267 C262 1.167 . S
O268 Zn257 2.120 . S
O268 C262 1.299 . S
O269 Zn257 2.114 1_655 S
O269 C271 1.166 . S
O270 Zn255 1.905 1_655 S
O270 C271 1.182 . S
C271 O269 1.166 . S
C271 O270 1.182 . S
O272 Zn257 2.080 . S
O272 C275 1.305 . S
O273 Zn256 1.920 1_565 S
O273 C275 1.234 1_565 S
C274 O260 1.305 . S
C274 O261 1.234 . S
C275 O272 1.305 . S
C275 O273 1.234 1_545 S
Zn276 O282 1.920 1_545 S
Zn276 O288 1.898 . S
Zn276 O291 1.905 1_445 S
Zn277 O285 1.905 . S
Zn277 O286 1.898 1_445 S
Zn277 O294 1.920 . S
Zn278 O281 2.080 1_545 S
Zn278 O284 2.114 . S
Zn278 O287 2.120 1_445 S
Zn278 O289 2.120 . S
Zn278 O290 2.114 1_455 S
Zn278 O293 2.080 . S
C279 O284 1.166 . S
C279 O285 1.182 . S
C280 O286 1.167 . S
C280 O287 1.299 . S
O281 Zn278 2.080 1_565 S
O281 C295 1.305 . S
O282 Zn276 1.920 1_565 S
O282 C295 1.234 . S
C283 O288 1.167 . S
C283 O289 1.299 . S
O284 Zn278 2.114 . S
O284 C279 1.166 . S
O285 Zn277 1.905 . S
O285 C279 1.182 . S
O286 Zn277 1.898 1_665 S
O286 C280 1.167 . S
O287 Zn278 2.120 1_665 S
O287 C280 1.299 . S
O288 Zn276 1.898 . S
O288 C283 1.167 . S
O289 Zn278 2.120 . S
O289 C283 1.299 . S
O290 Zn278 2.114 1_655 S
O290 C292 1.166 . S
O291 Zn276 1.905 1_665 S
O291 C292 1.182 1_565 S
C292 O290 1.166 . S
C292 O291 1.182 1_545 S
O293 Zn278 2.080 . S
O293 C296 1.305 . S
O294 Zn277 1.920 . S
O294 C296 1.234 . S
C295 O281 1.305 . S
C295 O282 1.234 . S
C296 O293 1.305 . S
C296 O294 1.234 . S
Zn297 O303 1.920 . S
Zn297 O309 1.898 1_445 S
Zn297 O312 1.905 . S
Zn298 O306 1.905 1_445 S
Zn298 O307 1.898 . S
Zn298 O315 1.920 1_455 S
Zn299 O302 2.080 . S
Zn299 O305 2.114 1_545 S
Zn299 O308 2.120 . S
Zn299 O310 2.120 1_445 S
Zn299 O311 2.114 . S
Zn299 O314 2.080 1_455 S
C300 O305 1.166 . S
C300 O306 1.182 1_455 S
C301 O307 1.167 . S
C301 O308 1.299 . S
O302 Zn299 2.080 . S
O302 C316 1.305 . S
O303 Zn297 1.920 . S
O303 C316 1.234 . S
C304 O309 1.167 . S
C304 O310 1.299 . S
O305 Zn299 2.114 1_565 S
O305 C300 1.166 . S
O306 Zn298 1.905 1_665 S
O306 C300 1.182 1_655 S
O307 Zn298 1.898 . S
O307 C301 1.167 . S
O308 Zn299 2.120 . S
O308 C301 1.299 . S
O309 Zn297 1.898 1_665 S
O309 C304 1.167 . S
O310 Zn299 2.120 1_665 S
O310 C304 1.299 . S
O311 Zn299 2.114 . S
O311 C313 1.166 . S
O312 Zn297 1.905 . S
O312 C313 1.182 . S
C313 O311 1.166 . S
C313 O312 1.182 . S
O314 Zn299 2.080 1_655 S
O314 C317 1.305 . S
O315 Zn298 1.920 1_655 S
O315 C317 1.234 . S
C316 O302 1.305 . S
C316 O303 1.234 . S
C317 O314 1.305 . S
C317 O315 1.234 . S
Zn318 O324 1.920 . S
Zn318 O330 1.898 . S
Zn318 O333 1.905 . S
Zn319 O327 1.905 . S
Zn319 O328 1.898 . S
Zn319 O336 1.920 . S
Zn320 O323 2.080 . S
Zn320 O326 2.114 . S
Zn320 O329 2.120 . S
Zn320 O331 2.120 . S
Zn320 O332 2.114 . S
Zn320 O335 2.080 . S
C321 O326 1.166 . S
C321 O327 1.182 . S
C322 O328 1.167 . S
C322 O329 1.299 . S
O323 Zn320 2.080 . S
O323 C337 1.305 . S
O324 Zn318 1.920 . S
O324 C337 1.234 . S
C325 O330 1.167 . S
C325 O331 1.299 . S
O326 Zn320 2.114 . S
O326 C321 1.166 . S
O327 Zn319 1.905 . S
O327 C321 1.182 . S
O328 Zn319 1.898 . S
O328 C322 1.167 . S
O329 Zn320 2.120 . S
O329 C322 1.299 . S
O330 Zn318 1.898 . S
O330 C325 1.167 . S
O331 Zn320 2.120 . S
O331 C325 1.299 . S
O332 Zn320 2.114 . S
O332 C334 1.166 . S
O333 Zn318 1.905 . S
O333 C334 1.182 . S
C334 O332 1.166 . S
C334 O333 1.182 . S
O335 Zn320 2.080 . S
O335 C338 1.305 . S
O336 Zn319 1.920 . S
O336 C338 1.234 . S
C337 O323 1.305 . S
C337 O324 1.234 . S
C338 O335 1.305 . S
C338 O336 1.234 . S
Zn339 O345 1.920 . S
Zn339 O351 1.898 . S
Zn339 O354 1.905 . S
Zn340 O348 1.905 . S
Zn340 O349 1.898 . S
Zn340 O357 1.920 . S
Zn341 O344 2.080 . S
Zn341 O347 2.114 . S
Zn341 O350 2.120 . S
Zn341 O352 2.120 . S
Zn341 O353 2.114 . S
Zn341 O356 2.080 . S
C342 O347 1.166 . S
C342 O348 1.182 . S
C343 O349 1.167 . S
C343 O350 1.299 . S
O344 Zn341 2.080 . S
O344 C358 1.305 . S
O345 Zn339 1.920 . S
O345 C358 1.234 . S
C346 O351 1.167 . S
C346 O352 1.299 . S
O347 Zn341 2.114 . S
O347 C342 1.166 . S
O348 Zn340 1.905 . S
O348 C342 1.182 . S
O349 Zn340 1.898 . S
O349 C343 1.167 . S
O350 Zn341 2.120 . S
O350 C343 1.299 . S
O351 Zn339 1.898 . S
O351 C346 1.167 . S
O352 Zn341 2.120 . S
O352 C346 1.299 . S
O353 Zn341 2.114 . S
O353 C355 1.166 . S
O354 Zn339 1.905 . S
O354 C355 1.182 . S
C355 O353 1.166 . S
C355 O354 1.182 . S
O356 Zn341 2.080 . S
O356 C359 1.305 . S
O357 Zn340 1.920 . S
O357 C359 1.234 . S
C358 O344 1.305 . S
C358 O345 1.234 . S
C359 O356 1.305 . S
C359 O357 1.234 . S
Zn360 O366 1.920 . S
Zn360 O372 1.898 . S
Zn360 O375 1.905 . S
Zn361 O369 1.905 . S
Zn361 O370 1.898 . S
Zn361 O378 1.920 . S
Zn362 O365 2.080 . S
Zn362 O368 2.114 . S
Zn362 O371 2.120 . S
Zn362 O373 2.120 . S
Zn362 O374 2.114 . S
Zn362 O377 2.080 . S
C363 O368 1.166 . S
C363 O369 1.182 . S
C364 O370 1.167 . S
C364 O371 1.299 . S
O365 Zn362 2.080 . S
O365 C379 1.305 . S
O366 Zn360 1.920 . S
O366 C379 1.234 . S
C367 O372 1.167 . S
C367 O373 1.299 . S
O368 Zn362 2.114 . S
O368 C363 1.166 . S
O369 Zn361 1.905 . S
O369 C363 1.182 . S
O370 Zn361 1.898 . S
O370 C364 1.167 . S
O371 Zn362 2.120 . S
O371 C364 1.299 . S
O372 Zn360 1.898 . S
O372 C367 1.167 . S
O373 Zn362 2.120 . S
O373 C367 1.299 . S
O374 Zn362 2.114 . S
O374 C376 1.166 . S
O375 Zn360 1.905 . S
O375 C376 1.182 . S
C376 O374 1.166 . S
C376 O375 1.182 . S
O377 Zn362 2.080 . S
O377 C380 1.305 . S
O378 Zn361 1.920 . S
O378 C380 1.234 . S
C379 O365 1.305 . S
C379 O366 1.234 . S
C380 O377 1.305 . S
C380 O378 1.234 . S
Zn381 O387 1.920 . S
Zn381 O393 1.898 . S
Zn381 O396 1.905 . S
Zn382 O390 1.905 . S
Zn382 O391 1.898 . S
Zn382 O399 1.920 . S
Zn383 O386 2.080 . S
Zn383 O389 2.114 . S
Zn383 O392 2.120 . S
Zn383 O394 2.120 . S
Zn383 O395 2.114 . S
Zn383 O398 2.080 . S
C384 O389 1.166 . S
C384 O390 1.182 . S
C385 O391 1.167 . S
C385 O392 1.299 . S
O386 Zn383 2.080 . S
O386 C400 1.305 1_556 S
O387 Zn381 1.920 . S
O387 C400 1.234 . S
C388 O393 1.167 . S
C388 O394 1.299 1_554 S
O389 Zn383 2.114 . S
O389 C384 1.166 . S
O390 Zn382 1.905 . S
O390 C384 1.182 . S
O391 Zn382 1.898 . S
O391 C385 1.167 . S
O392 Zn383 2.120 . S
O392 C385 1.299 . S
O393 Zn381 1.898 . S
O393 C388 1.167 . S
O394 Zn383 2.120 . S
O394 C388 1.299 1_556 S
O395 Zn383 2.114 . S
O395 C397 1.166 1_556 S
O396 Zn381 1.905 . S
O396 C397 1.182 . S
C397 O395 1.166 1_554 S
C397 O396 1.182 . S
O398 Zn383 2.080 . S
O398 C401 1.305 . S
O399 Zn382 1.920 . S
O399 C401 1.234 . S
C400 O386 1.305 1_554 S
C400 O387 1.234 . S
C401 O398 1.305 . S
C401 O399 1.234 . S
Zn402 O408 1.920 . S
Zn402 O414 1.898 . S
Zn402 O417 1.905 . S
Zn403 O411 1.905 . S
Zn403 O412 1.898 . S
Zn403 O420 1.920 . S
Zn404 O407 2.080 . S
Zn404 O410 2.114 . S
Zn404 O413 2.120 . S
Zn404 O415 2.120 . S
Zn404 O416 2.114 . S
Zn404 O419 2.080 . S
C405 O410 1.166 . S
C405 O411 1.182 . S
C406 O412 1.167 . S
C406 O413 1.299 . S
O407 Zn404 2.080 . S
O407 C421 1.305 . S
O408 Zn402 1.920 . S
O408 C421 1.234 . S
C409 O414 1.167 . S
C409 O415 1.299 . S
O410 Zn404 2.114 . S
O410 C405 1.166 . S
O411 Zn403 1.905 . S
O411 C405 1.182 . S
O412 Zn403 1.898 . S
O412 C406 1.167 . S
O413 Zn404 2.120 . S
O413 C406 1.299 . S
O414 Zn402 1.898 . S
O414 C409 1.167 . S
O415 Zn404 2.120 . S
O415 C409 1.299 . S
O416 Zn404 2.114 . S
O416 C418 1.166 . S
O417 Zn402 1.905 . S
O417 C418 1.182 . S
C418 O416 1.166 . S
C418 O417 1.182 . S
O419 Zn404 2.080 . S
O419 C422 1.305 . S
O420 Zn403 1.920 . S
O420 C422 1.234 . S
C421 O407 1.305 . S
C421 O408 1.234 . S
C422 O419 1.305 . S
C422 O420 1.234 . S
Zn423 O429 1.920 . S
Zn423 O435 1.898 . S
Zn423 O438 1.905 . S
Zn424 O432 1.905 . S
Zn424 O433 1.898 . S
Zn424 O441 1.920 . S
Zn425 O428 2.080 . S
Zn425 O431 2.114 . S
Zn425 O434 2.120 . S
Zn425 O436 2.120 . S
Zn425 O437 2.114 . S
Zn425 O440 2.080 . S
C426 O431 1.166 1_556 S
C426 O432 1.182 . S
C427 O433 1.167 . S
C427 O434 1.299 1_556 S
O428 Zn425 2.080 . S
O428 C442 1.305 . S
O429 Zn423 1.920 . S
O429 C442 1.234 . S
C430 O435 1.167 . S
C430 O436 1.299 . S
O431 Zn425 2.114 . S
O431 C426 1.166 1_554 S
O432 Zn424 1.905 . S
O432 C426 1.182 . S
O433 Zn424 1.898 . S
O433 C427 1.167 . S
O434 Zn425 2.120 . S
O434 C427 1.299 1_554 S
O435 Zn423 1.898 . S
O435 C430 1.167 . S
O436 Zn425 2.120 . S
O436 C430 1.299 . S
O437 Zn425 2.114 . S
O437 C439 1.166 . S
O438 Zn423 1.905 . S
O438 C439 1.182 . S
C439 O437 1.166 . S
C439 O438 1.182 . S
O440 Zn425 2.080 . S
O440 C443 1.305 1_554 S
O441 Zn424 1.920 . S
O441 C443 1.234 . S
C442 O428 1.305 . S
C442 O429 1.234 . S
C443 O440 1.305 1_556 S
C443 O441 1.234 . S
Zn444 O450 1.920 . S
Zn444 O456 1.898 . S
Zn444 O459 1.905 . S
Zn445 O453 1.905 . S
Zn445 O454 1.898 . S
Zn445 O462 1.920 . S
Zn446 O449 2.080 . S
Zn446 O452 2.114 . S
Zn446 O455 2.120 . S
Zn446 O457 2.120 . S
Zn446 O458 2.114 . S
Zn446 O461 2.080 . S
C447 O452 1.166 . S
C447 O453 1.182 . S
C448 O454 1.167 . S
C448 O455 1.299 . S
O449 Zn446 2.080 . S
O449 C463 1.305 . S
O450 Zn444 1.920 . S
O450 C463 1.234 . S
C451 O456 1.167 . S
C451 O457 1.299 . S
O452 Zn446 2.114 . S
O452 C447 1.166 . S
O453 Zn445 1.905 . S
O453 C447 1.182 . S
O454 Zn445 1.898 . S
O454 C448 1.167 . S
O455 Zn446 2.120 . S
O455 C448 1.299 . S
O456 Zn444 1.898 . S
O456 C451 1.167 . S
O457 Zn446 2.120 . S
O457 C451 1.299 . S
O458 Zn446 2.114 . S
O458 C460 1.166 . S
O459 Zn444 1.905 . S
O459 C460 1.182 . S
C460 O458 1.166 . S
C460 O459 1.182 . S
O461 Zn446 2.080 . S
O461 C464 1.305 . S
O462 Zn445 1.920 . S
O462 C464 1.234 . S
C463 O449 1.305 . S
C463 O450 1.234 . S
C464 O461 1.305 . S
C464 O462 1.234 . S
Zn465 O471 1.920 . S
Zn465 O477 1.898 . S
Zn465 O480 1.905 . S
Zn466 O474 1.905 . S
Zn466 O475 1.898 . S
Zn466 O483 1.920 . S
Zn467 O470 2.080 . S
Zn467 O473 2.114 . S
Zn467 O476 2.120 . S
Zn467 O478 2.120 . S
Zn467 O479 2.114 . S
Zn467 O482 2.080 . S
C468 O473 1.166 . S
C468 O474 1.182 . S
C469 O475 1.167 . S
C469 O476 1.299 . S
O470 Zn467 2.080 . S
O470 C484 1.305 . S
O471 Zn465 1.920 . S
O471 C484 1.234 . S
C472 O477 1.167 . S
C472 O478 1.299 . S
O473 Zn467 2.114 . S
O473 C468 1.166 . S
O474 Zn466 1.905 . S
O474 C468 1.182 . S
O475 Zn466 1.898 . S
O475 C469 1.167 . S
O476 Zn467 2.120 . S
O476 C469 1.299 . S
O477 Zn465 1.898 . S
O477 C472 1.167 . S
O478 Zn467 2.120 . S
O478 C472 1.299 . S
O479 Zn467 2.114 . S
O479 C481 1.166 . S
O480 Zn465 1.905 . S
O480 C481 1.182 . S
C481 O479 1.166 . S
C481 O480 1.182 . S
O482 Zn467 2.080 . S
O482 C485 1.305 . S
O483 Zn466 1.920 . S
O483 C485 1.234 . S
C484 O470 1.305 . S
C484 O471 1.234 . S
C485 O482 1.305 . S
C485 O483 1.234 . S
C486 C487 1.391 . S
C486 C488 1.394 . S
C486 H502 0.931 . S
C487 C486 1.391 . S
C487 C491 1.376 . S
C488 C486 1.394 . S
C488 C489 1.369 . S
C488 C492 1.531 . S
C489 C488 1.369 . S
C489 C490 1.410 . S
C489 C497 1.503 . S
C490 C489 1.410 . S
C490 C491 1.392 . S
C490 C493 1.511 . S
C491 C487 1.376 . S
C491 C490 1.392 . S
C491 H503 0.929 . S
C492 C488 1.531 . S
C492 H504 0.960 . S
C492 H505 0.962 . S
C492 H506 0.960 . S
C493 C490 1.511 . S
C493 H507 0.961 . S
C493 H508 0.961 . S
C493 H509 0.961 . S
C494 C495 1.370 . S
C494 C496 1.363 . S
C494 H510 0.931 . S
C495 C494 1.370 . S
C495 C499 1.408 . S
C496 C494 1.363 . S
C496 C497 1.370 . S
C496 C500 1.524 . S
C497 C489 1.503 . S
C497 C496 1.370 . S
C497 C498 1.403 . S
C498 C497 1.403 . S
C498 C499 1.404 . S
C498 C501 1.539 . S
C499 C495 1.408 . S
C499 C498 1.404 . S
C499 H511 0.930 . S
C500 C496 1.524 . S
C500 H512 0.956 . S
C500 H513 0.961 . S
C500 H514 0.961 . S
C501 C498 1.539 . S
C501 H515 0.958 . S
C501 H516 0.961 . S
C501 H517 0.960 . S
H502 C486 0.931 . S
H503 C491 0.929 . S
H504 C492 0.960 . S
H505 C492 0.962 . S
H506 C492 0.960 . S
H507 C493 0.961 . S
H508 C493 0.961 . S
H509 C493 0.961 . S
H510 C494 0.931 . S
H511 C499 0.930 . S
H512 C500 0.956 . S
H513 C500 0.961 . S
H514 C500 0.961 . S
H515 C501 0.958 . S
H516 C501 0.961 . S
H517 C501 0.960 . S
C518 C519 1.391 . S
C518 C520 1.394 . S
C518 H534 0.931 1_545 S
C519 C518 1.391 . S
C519 C523 1.376 . S
C520 C518 1.394 . S
C520 C521 1.369 . S
C520 C524 1.531 1_545 S
C521 C520 1.369 . S
C521 C522 1.410 . S
C521 C529 1.503 . S
C522 C521 1.410 . S
C522 C523 1.392 . S
C522 C525 1.511 . S
C523 C519 1.376 . S
C523 C522 1.392 . S
C523 H535 0.929 . S
C524 C520 1.531 1_565 S
C524 H536 0.960 1_565 S
C524 H537 0.962 . S
C524 H538 0.960 . S
C525 C522 1.511 . S
C525 H539 0.961 . S
C525 H540 0.961 . S
C525 H541 0.961 . S
C526 C527 1.370 . S
C526 C528 1.363 . S
C526 H542 0.931 1_545 S
C527 C526 1.370 . S
C527 C531 1.408 . S
C528 C526 1.363 . S
C528 C529 1.370 . S
C528 C532 1.524 1_545 S
C529 C521 1.503 . S
C529 C528 1.370 . S
C529 C530 1.403 . S
C530 C529 1.403 . S
C530 C531 1.404 . S
C530 C533 1.539 . S
C531 C527 1.408 . S
C531 C530 1.404 . S
C531 H543 0.930 . S
C532 C528 1.524 1_565 S
C532 H544 0.956 . S
C532 H545 0.961 . S
C532 H546 0.961 . S
C533 C530 1.539 . S
C533 H547 0.958 . S
C533 H548 0.961 . S
C533 H549 0.960 . S
H534 C518 0.931 1_565 S
H535 C523 0.929 . S
H536 C524 0.960 1_545 S
H537 C524 0.962 . S
H538 C524 0.960 . S
H539 C525 0.961 . S
H540 C525 0.961 . S
H541 C525 0.961 . S
H542 C526 0.931 1_565 S
H543 C531 0.930 . S
H544 C532 0.956 . S
H545 C532 0.961 . S
H546 C532 0.961 . S
H547 C533 0.958 . S
H548 C533 0.961 . S
H549 C533 0.960 . S
C550 C551 1.391 . S
C550 C552 1.394 . S
C550 H566 0.931 1_455 S
C551 C550 1.391 . S
C551 C555 1.376 . S
C552 C550 1.394 . S
C552 C553 1.369 . S
C552 C556 1.531 1_455 S
C553 C552 1.369 . S
C553 C554 1.410 . S
C553 C561 1.503 . S
C554 C553 1.410 . S
C554 C555 1.392 . S
C554 C557 1.511 . S
C555 C551 1.376 . S
C555 C554 1.392 . S
C555 H567 0.929 . S
C556 C552 1.531 1_655 S
C556 H568 0.960 1_655 S
C556 H569 0.962 . S
C556 H570 0.960 . S
C557 C554 1.511 . S
C557 H571 0.961 . S
C557 H572 0.961 . S
C557 H573 0.961 . S
C558 C559 1.370 1_655 S
C558 C560 1.363 . S
C558 H574 0.931 . S
C559 C558 1.370 1_455 S
C559 C563 1.408 . S
C560 C558 1.363 . S
C560 C561 1.370 1_655 S
C560 C564 1.524 . S
C561 C553 1.503 . S
C561 C560 1.370 1_455 S
C561 C562 1.403 . S
C562 C561 1.403 . S
C562 C563 1.404 . S
C562 C565 1.539 . S
C563 C559 1.408 . S
C563 C562 1.404 . S
C563 H575 0.930 . S
C564 C560 1.524 . S
C564 H576 0.956 . S
C564 H577 0.961 . S
C564 H578 0.961 . S
C565 C562 1.539 . S
C565 H579 0.958 . S
C565 H580 0.961 . S
C565 H581 0.960 . S
H566 C550 0.931 1_655 S
H567 C555 0.929 . S
H568 C556 0.960 1_455 S
H569 C556 0.962 . S
H570 C556 0.960 . S
H571 C557 0.961 . S
H572 C557 0.961 . S
H573 C557 0.961 . S
H574 C558 0.931 . S
H575 C563 0.930 . S
H576 C564 0.956 . S
H577 C564 0.961 . S
H578 C564 0.961 . S
H579 C565 0.958 . S
H580 C565 0.961 . S
H581 C565 0.960 . S
C582 C583 1.391 . S
C582 C584 1.394 . S
C582 H598 0.931 . S
C583 C582 1.391 . S
C583 C587 1.376 . S
C584 C582 1.394 . S
C584 C585 1.369 . S
C584 C588 1.531 . S
C585 C584 1.369 . S
C585 C586 1.410 . S
C585 C593 1.503 . S
C586 C585 1.410 . S
C586 C587 1.392 . S
C586 C589 1.511 . S
C587 C583 1.376 . S
C587 C586 1.392 . S
C587 H599 0.929 . S
C588 C584 1.531 . S
C588 H600 0.960 . S
C588 H601 0.962 . S
C588 H602 0.960 . S
C589 C586 1.511 . S
C589 H603 0.961 . S
C589 H604 0.961 . S
C589 H605 0.961 . S
C590 C591 1.370 . S
C590 C592 1.363 . S
C590 H606 0.931 . S
C591 C590 1.370 . S
C591 C595 1.408 . S
C592 C590 1.363 . S
C592 C593 1.370 . S
C592 C596 1.524 . S
C593 C585 1.503 . S
C593 C592 1.370 . S
C593 C594 1.403 . S
C594 C593 1.403 . S
C594 C595 1.404 . S
C594 C597 1.539 . S
C595 C591 1.408 . S
C595 C594 1.404 . S
C595 H607 0.930 . S
C596 C592 1.524 . S
C596 H608 0.956 . S
C596 H609 0.961 . S
C596 H610 0.961 . S
C597 C594 1.539 . S
C597 H611 0.958 . S
C597 H612 0.961 . S
C597 H613 0.960 . S
H598 C582 0.931 . S
H599 C587 0.929 . S
H600 C588 0.960 . S
H601 C588 0.962 . S
H602 C588 0.960 . S
H603 C589 0.961 . S
H604 C589 0.961 . S
H605 C589 0.961 . S
H606 C590 0.931 . S
H607 C595 0.930 . S
H608 C596 0.956 . S
H609 C596 0.961 . S
H610 C596 0.961 . S
H611 C597 0.958 . S
H612 C597 0.961 . S
H613 C597 0.960 . S
C614 C615 1.391 . S
C614 C616 1.394 1_545 S
C614 H630 0.931 1_545 S
C615 C614 1.391 . S
C615 C619 1.376 . S
C616 C614 1.394 1_565 S
C616 C617 1.369 1_565 S
C616 C620 1.531 . S
C617 C616 1.369 1_545 S
C617 C618 1.410 . S
C617 C625 1.503 . S
C618 C617 1.410 . S
C618 C619 1.392 . S
C618 C621 1.511 . S
C619 C615 1.376 . S
C619 C618 1.392 . S
C619 H631 0.929 . S
C620 C616 1.531 . S
C620 H632 0.960 . S
C620 H633 0.962 1_565 S
C620 H634 0.960 . S
C621 C618 1.511 . S
C621 H635 0.961 . S
C621 H636 0.961 . S
C621 H637 0.961 . S
C622 C623 1.370 . S
C622 C624 1.363 . S
C622 H638 0.931 . S
C623 C622 1.370 . S
C623 C627 1.408 1_545 S
C624 C622 1.363 . S
C624 C625 1.370 . S
C624 C628 1.524 . S
C625 C617 1.503 . S
C625 C624 1.370 . S
C625 C626 1.403 1_545 S
C626 C625 1.403 1_565 S
C626 C627 1.404 . S
C626 C629 1.539 . S
C627 C623 1.408 1_565 S
C627 C626 1.404 . S
C627 H639 0.930 . S
C628 C624 1.524 . S
C628 H640 0.956 . S
C628 H641 0.961 . S
C628 H642 0.961 . S
C629 C626 1.539 . S
C629 H643 0.958 . S
C629 H644 0.961 . S
C629 H645 0.960 . S
H630 C614 0.931 1_565 S
H631 C619 0.929 . S
H632 C620 0.960 . S
H633 C620 0.962 1_545 S
H634 C620 0.960 . S
H635 C621 0.961 . S
H636 C621 0.961 . S
H637 C621 0.961 . S
H638 C622 0.931 . S
H639 C627 0.930 . S
H640 C628 0.956 . S
H641 C628 0.961 . S
H642 C628 0.961 . S
H643 C629 0.958 . S
H644 C629 0.961 . S
H645 C629 0.960 . S
C646 C647 1.408 . S
C646 C648 1.387 . S
C646 H662 0.921 1_455 S
C647 C646 1.408 . S
C647 C651 1.376 . S
C648 C646 1.387 . S
C648 C649 1.369 . S
C648 C652 1.531 1_455 S
C649 C648 1.369 . S
C649 C650 1.410 . S
C649 C657 1.503 . S
C650 C649 1.410 . S
C650 C651 1.392 . S
C650 C653 1.511 . S
C651 C647 1.376 . S
C651 C650 1.392 . S
C651 H663 0.929 . S
C652 C648 1.531 1_655 S
C652 H664 0.960 . S
C652 H665 0.962 1_655 S
C652 H666 0.960 . S
C653 C650 1.511 . S
C653 H667 0.961 . S
C653 H668 0.961 . S
C653 H669 0.961 . S
C654 C655 1.370 . S
C654 C656 1.363 . S
C654 H670 0.931 . S
C655 C654 1.370 . S
C655 C659 1.402 1_455 S
C656 C654 1.363 . S
C656 C657 1.370 . S
C656 C660 1.524 . S
C657 C649 1.503 . S
C657 C656 1.370 . S
C657 C658 1.403 1_455 S
C658 C657 1.403 1_655 S
C658 C659 1.400 . S
C658 C661 1.539 . S
C659 C655 1.402 1_655 S
C659 C658 1.400 . S
C659 H671 0.940 . S
C660 C656 1.524 . S
C660 H672 0.956 . S
C660 H673 0.961 . S
C660 H674 0.961 . S
C661 C658 1.539 . S
C661 H675 0.958 . S
C661 H676 0.961 . S
C661 H677 0.960 . S
H662 C646 0.921 1_655 S
H663 C651 0.929 . S
H664 C652 0.960 . S
H665 C652 0.962 1_455 S
H666 C652 0.960 . S
H667 C653 0.961 . S
H668 C653 0.961 . S
H669 C653 0.961 . S
H670 C654 0.931 . S
H671 C659 0.940 . S
H672 C660 0.956 . S
H673 C660 0.961 . S
H674 C660 0.961 . S
H675 C661 0.958 . S
H676 C661 0.961 . S
H677 C661 0.960 . S
C678 C679 1.391 . S
C678 C680 1.394 . S
C678 H694 0.931 . S
C679 C678 1.391 . S
C679 C683 1.376 . S
C680 C678 1.394 . S
C680 C681 1.369 . S
C680 C684 1.531 . S
C681 C680 1.369 . S
C681 C682 1.410 . S
C681 C689 1.503 . S
C682 C681 1.410 . S
C682 C683 1.392 . S
C682 C685 1.511 . S
C683 C679 1.376 . S
C683 C682 1.392 . S
C683 H695 0.929 . S
C684 C680 1.531 . S
C684 H696 0.960 . S
C684 H697 0.962 . S
C684 H698 0.960 . S
C685 C682 1.511 . S
C685 H699 0.961 . S
C685 H700 0.961 . S
C685 H701 0.961 . S
C686 C687 1.370 . S
C686 C688 1.363 . S
C686 H702 0.931 . S
C687 C686 1.370 . S
C687 C691 1.408 . S
C688 C686 1.363 . S
C688 C689 1.370 . S
C688 C692 1.524 . S
C689 C681 1.503 . S
C689 C688 1.370 . S
C689 C690 1.403 . S
C690 C689 1.403 . S
C690 C691 1.404 . S
C690 C693 1.539 . S
C691 C687 1.408 . S
C691 C690 1.404 . S
C691 H703 0.930 . S
C692 C688 1.524 . S
C692 H704 0.956 . S
C692 H705 0.961 . S
C692 H706 0.961 . S
C693 C690 1.539 . S
C693 H707 0.958 . S
C693 H708 0.961 . S
C693 H709 0.960 . S
H694 C678 0.931 . S
H695 C683 0.929 . S
H696 C684 0.960 . S
H697 C684 0.962 . S
H698 C684 0.960 . S
H699 C685 0.961 . S
H700 C685 0.961 . S
H701 C685 0.961 . S
H702 C686 0.931 . S
H703 C691 0.930 . S
H704 C692 0.956 . S
H705 C692 0.961 . S
H706 C692 0.961 . S
H707 C693 0.958 . S
H708 C693 0.961 . S
H709 C693 0.960 . S
C710 C711 1.391 . S
C710 C712 1.394 . S
C710 H726 0.931 . S
C711 C710 1.391 . S
C711 C715 1.376 1_545 S
C712 C710 1.394 . S
C712 C713 1.369 . S
C712 C716 1.531 . S
C713 C712 1.369 . S
C713 C714 1.410 1_545 S
C713 C721 1.503 . S
C714 C713 1.410 1_565 S
C714 C715 1.392 . S
C714 C717 1.511 . S
C715 C711 1.376 1_565 S
C715 C714 1.392 . S
C715 H727 0.929 . S
C716 C712 1.531 . S
C716 H728 0.960 . S
C716 H729 0.962 . S
C716 H730 0.960 . S
C717 C714 1.511 . S
C717 H731 0.961 . S
C717 H732 0.961 . S
C717 H733 0.961 . S
C718 C719 1.370 1_565 S
C718 C720 1.363 . S
C718 H734 0.931 . S
C719 C718 1.370 1_545 S
C719 C723 1.408 . S
C720 C718 1.363 . S
C720 C721 1.370 1_565 S
C720 C724 1.524 . S
C721 C713 1.503 . S
C721 C720 1.370 1_545 S
C721 C722 1.403 . S
C722 C721 1.403 . S
C722 C723 1.404 . S
C722 C725 1.539 . S
C723 C719 1.408 . S
C723 C722 1.404 . S
C723 H735 0.930 . S
C724 C720 1.524 . S
C724 H736 0.956 . S
C724 H737 0.961 . S
C724 H738 0.961 . S
C725 C722 1.539 . S
C725 H739 0.958 . S
C725 H740 0.961 . S
C725 H741 0.960 . S
H726 C710 0.931 . S
H727 C715 0.929 . S
H728 C716 0.960 . S
H729 C716 0.962 . S
H730 C716 0.960 . S
H731 C717 0.961 . S
H732 C717 0.961 . S
H733 C717 0.961 . S
H734 C718 0.931 . S
H735 C723 0.930 . S
H736 C724 0.956 . S
H737 C724 0.961 . S
H738 C724 0.961 . S
H739 C725 0.958 . S
H740 C725 0.961 . S
H741 C725 0.960 . S
C742 C743 1.391 . S
C742 C744 1.394 . S
C742 H758 0.931 . S
C743 C742 1.391 . S
C743 C747 1.376 1_455 S
C744 C742 1.394 . S
C744 C745 1.369 . S
C744 C748 1.531 . S
C745 C744 1.369 . S
C745 C746 1.410 . S
C745 C753 1.503 . S
C746 C745 1.410 . S
C746 C747 1.392 1_455 S
C746 C749 1.511 1_455 S
C747 C743 1.376 1_655 S
C747 C746 1.392 1_655 S
C747 H759 0.929 . S
C748 C744 1.531 . S
C748 H760 0.960 . S
C748 H761 0.962 . S
C748 H762 0.960 . S
C749 C746 1.511 1_655 S
C749 H763 0.961 . S
C749 H764 0.961 . S
C749 H765 0.961 . S
C750 C751 1.370 . S
C750 C752 1.363 . S
C750 H766 0.931 . S
C751 C750 1.370 . S
C751 C755 1.408 . S
C752 C750 1.363 . S
C752 C753 1.370 . S
C752 C756 1.524 1_455 S
C753 C745 1.503 . S
C753 C752 1.370 . S
C753 C754 1.403 . S
C754 C753 1.403 . S
C754 C755 1.404 . S
C754 C757 1.539 . S
C755 C751 1.408 . S
C755 C754 1.404 . S
C755 H767 0.930 . S
C756 C752 1.524 1_655 S
C756 H768 0.956 1_655 S
C756 H769 0.961 . S
C756 H770 0.961 . S
C757 C754 1.539 . S
C757 H771 0.958 . S
C757 H772 0.961 . S
C757 H773 0.960 . S
H758 C742 0.931 . S
H759 C747 0.929 . S
H760 C748 0.960 . S
H761 C748 0.962 . S
H762 C748 0.960 . S
H763 C749 0.961 . S
H764 C749 0.961 . S
H765 C749 0.961 . S
H766 C750 0.931 . S
H767 C755 0.930 . S
H768 C756 0.956 1_455 S
H769 C756 0.961 . S
H770 C756 0.961 . S
H771 C757 0.958 . S
H772 C757 0.961 . S
H773 C757 0.960 . S
C774 C775 1.391 . S
C774 C776 1.394 . S
C774 H790 0.931 . S
C775 C774 1.391 . S
C775 C779 1.376 . S
C776 C774 1.394 . S
C776 C777 1.369 . S
C776 C780 1.531 . S
C777 C776 1.369 . S
C777 C778 1.410 . S
C777 C785 1.503 . S
C778 C777 1.410 . S
C778 C779 1.392 . S
C778 C781 1.511 . S
C779 C775 1.376 . S
C779 C778 1.392 . S
C779 H791 0.929 . S
C780 C776 1.531 . S
C780 H792 0.960 . S
C780 H793 0.962 . S
C780 H794 0.960 . S
C781 C778 1.511 . S
C781 H795 0.961 . S
C781 H796 0.961 . S
C781 H797 0.961 . S
C782 C783 1.370 . S
C782 C784 1.363 . S
C782 H798 0.931 . S
C783 C782 1.370 . S
C783 C787 1.408 . S
C784 C782 1.363 . S
C784 C785 1.370 . S
C784 C788 1.524 . S
C785 C777 1.503 . S
C785 C784 1.370 . S
C785 C786 1.403 . S
C786 C785 1.403 . S
C786 C787 1.404 . S
C786 C789 1.539 . S
C787 C783 1.408 . S
C787 C786 1.404 . S
C787 H799 0.930 . S
C788 C784 1.524 . S
C788 H800 0.956 . S
C788 H801 0.961 . S
C788 H802 0.961 . S
C789 C786 1.539 . S
C789 H803 0.958 . S
C789 H804 0.961 . S
C789 H805 0.960 . S
H790 C774 0.931 . S
H791 C779 0.929 . S
H792 C780 0.960 . S
H793 C780 0.962 . S
H794 C780 0.960 . S
H795 C781 0.961 . S
H796 C781 0.961 . S
H797 C781 0.961 . S
H798 C782 0.931 . S
H799 C787 0.930 . S
H800 C788 0.956 . S
H801 C788 0.961 . S
H802 C788 0.961 . S
H803 C789 0.958 . S
H804 C789 0.961 . S
H805 C789 0.960 . S
C806 C807 1.391 1_565 S
C806 C808 1.394 1_565 S
C806 H822 0.931 . S
C807 C806 1.391 1_545 S
C807 C811 1.376 . S
C808 C806 1.394 1_545 S
C808 C809 1.369 . S
C808 C812 1.531 1_545 S
C809 C808 1.369 . S
C809 C810 1.410 . S
C809 C817 1.503 . S
C810 C809 1.410 . S
C810 C811 1.392 . S
C810 C813 1.511 . S
C811 C807 1.376 . S
C811 C810 1.392 . S
C811 H823 0.929 . S
C812 C808 1.531 1_565 S
C812 H824 0.960 . S
C812 H825 0.962 . S
C812 H826 0.960 . S
C813 C810 1.511 . S
C813 H827 0.961 . S
C813 H828 0.961 . S
C813 H829 0.961 . S
C814 C815 1.370 . S
C814 C816 1.363 . S
C814 H830 0.919 1_545 S
C815 C814 1.370 . S
C815 C819 1.408 . S
C816 C814 1.363 . S
C816 C817 1.370 . S
C816 C820 1.524 1_545 S
C817 C809 1.503 . S
C817 C816 1.370 . S
C817 C818 1.403 . S
C818 C817 1.403 . S
C818 C819 1.404 . S
C818 C821 1.539 . S
C819 C815 1.408 . S
C819 C818 1.404 . S
C819 H831 0.930 . S
C820 C816 1.524 1_565 S
C820 H832 0.956 . S
C820 H833 0.961 1_565 S
C820 H834 0.961 . S
C821 C818 1.539 . S
C821 H835 0.958 . S
C821 H836 0.961 . S
C821 H837 0.960 . S
H822 C806 0.931 . S
H823 C811 0.929 . S
H824 C812 0.960 . S
H825 C812 0.962 . S
H826 C812 0.960 . S
H827 C813 0.961 . S
H828 C813 0.961 . S
H829 C813 0.961 . S
H830 C814 0.919 1_565 S
H831 C819 0.930 . S
H832 C820 0.956 . S
H833 C820 0.961 1_545 S
H834 C820 0.961 . S
H835 C821 0.958 . S
H836 C821 0.961 . S
H837 C821 0.960 . S
C838 C839 1.391 1_655 S
C838 C840 1.394 . S
C838 H854 0.931 . S
C839 C838 1.391 1_455 S
C839 C843 1.376 . S
C840 C838 1.394 . S
C840 C841 1.369 1_655 S
C840 C844 1.531 . S
C841 C840 1.369 1_455 S
C841 C842 1.410 . S
C841 C849 1.503 . S
C842 C841 1.410 . S
C842 C843 1.392 . S
C842 C845 1.511 . S
C843 C839 1.376 . S
C843 C842 1.392 . S
C843 H855 0.929 . S
C844 C840 1.531 . S
C844 H856 0.960 . S
C844 H857 0.962 . S
C844 H858 0.960 . S
C845 C842 1.511 . S
C845 H859 0.961 . S
C845 H860 0.961 . S
C845 H861 0.961 . S
C846 C847 1.370 1_655 S
C846 C848 1.363 1_655 S
C846 H862 0.931 . S
C847 C846 1.370 1_455 S
C847 C851 1.408 . S
C848 C846 1.363 1_455 S
C848 C849 1.370 . S
C848 C852 1.524 1_455 S
C849 C841 1.503 . S
C849 C848 1.370 . S
C849 C850 1.403 . S
C850 C849 1.403 . S
C850 C851 1.404 . S
C850 C853 1.539 . S
C851 C847 1.408 . S
C851 C850 1.404 . S
C851 H863 0.930 . S
C852 C848 1.524 1_655 S
C852 H864 0.956 . S
C852 H865 0.961 1_655 S
C852 H866 0.961 . S
C853 C850 1.539 . S
C853 H867 0.958 . S
C853 H868 0.961 . S
C853 H869 0.960 . S
H854 C838 0.931 . S
H855 C843 0.929 . S
H856 C844 0.960 . S
H857 C844 0.962 . S
H858 C844 0.960 . S
H859 C845 0.961 . S
H860 C845 0.961 . S
H861 C845 0.961 . S
H862 C846 0.931 . S
H863 C851 0.930 . S
H864 C852 0.956 . S
H865 C852 0.961 1_455 S
H866 C852 0.961 . S
H867 C853 0.958 . S
H868 C853 0.961 . S
H869 C853 0.960 . S
C870 C871 1.391 . S
C870 C872 1.394 . S
C870 H886 0.931 . S
C871 C870 1.391 . S
C871 C875 1.376 . S
C872 C870 1.394 . S
C872 C873 1.369 . S
C872 C876 1.531 . S
C873 C872 1.369 . S
C873 C874 1.410 . S
C873 C881 1.503 . S
C874 C873 1.410 . S
C874 C875 1.392 . S
C874 C877 1.511 . S
C875 C871 1.376 . S
C875 C874 1.392 . S
C875 H887 0.929 . S
C876 C872 1.531 . S
C876 H888 0.960 . S
C876 H889 0.962 . S
C876 H890 0.960 . S
C877 C874 1.511 . S
C877 H891 0.961 . S
C877 H892 0.961 . S
C877 H893 0.961 . S
C878 C879 1.370 . S
C878 C880 1.363 . S
C878 H894 0.931 . S
C879 C878 1.370 . S
C879 C883 1.408 . S
C880 C878 1.363 . S
C880 C881 1.370 . S
C880 C884 1.524 . S
C881 C873 1.503 . S
C881 C880 1.370 . S
C881 C882 1.403 . S
C882 C881 1.403 . S
C882 C883 1.404 . S
C882 C885 1.539 . S
C883 C879 1.408 . S
C883 C882 1.404 . S
C883 H895 0.930 . S
C884 C880 1.524 . S
C884 H896 0.956 . S
C884 H897 0.961 . S
C884 H898 0.961 . S
C885 C882 1.539 . S
C885 H899 0.958 . S
C885 H900 0.961 . S
C885 H901 0.960 . S
H886 C870 0.931 . S
H887 C875 0.929 . S
H888 C876 0.960 . S
H889 C876 0.962 . S
H890 C876 0.960 . S
H891 C877 0.961 . S
H892 C877 0.961 . S
H893 C877 0.961 . S
H894 C878 0.931 . S
H895 C883 0.930 . S
H896 C884 0.956 . S
H897 C884 0.961 . S
H898 C884 0.961 . S
H899 C885 0.958 . S
H900 C885 0.961 . S
H901 C885 0.960 . S
C902 C903 1.391 . S
C902 C904 1.394 . S
C902 H918 0.931 . S
C903 C902 1.391 . S
C903 C907 1.376 . S
C904 C902 1.394 . S
C904 C905 1.369 . S
C904 C908 1.531 . S
C905 C904 1.369 . S
C905 C906 1.410 . S
C905 C913 1.503 . S
C906 C905 1.410 . S
C906 C907 1.392 . S
C906 C909 1.511 . S
C907 C903 1.376 . S
C907 C906 1.392 . S
C907 H919 0.929 . S
C908 C904 1.531 . S
C908 H920 0.960 . S
C908 H921 0.962 . S
C908 H922 0.960 . S
C909 C906 1.511 . S
C909 H923 0.961 . S
C909 H924 0.961 . S
C909 H925 0.961 . S
C910 C911 1.370 . S
C910 C912 1.363 . S
C910 H926 0.931 . S
C911 C910 1.370 . S
C911 C915 1.408 . S
C912 C910 1.363 . S
C912 C913 1.370 . S
C912 C916 1.524 . S
C913 C905 1.503 . S
C913 C912 1.370 . S
C913 C914 1.403 . S
C914 C913 1.403 . S
C914 C915 1.404 . S
C914 C917 1.539 . S
C915 C911 1.408 . S
C915 C914 1.404 . S
C915 H927 0.930 . S
C916 C912 1.524 . S
C916 H928 0.956 . S
C916 H929 0.961 . S
C916 H930 0.961 . S
C917 C914 1.539 . S
C917 H931 0.958 . S
C917 H932 0.961 . S
C917 H933 0.960 . S
H918 C902 0.931 . S
H919 C907 0.929 . S
H920 C908 0.960 . S
H921 C908 0.962 . S
H922 C908 0.960 . S
H923 C909 0.961 . S
H924 C909 0.961 . S
H925 C909 0.961 . S
H926 C910 0.931 . S
H927 C915 0.930 . S
H928 C916 0.956 . S
H929 C916 0.961 . S
H930 C916 0.961 . S
H931 C917 0.958 . S
H932 C917 0.961 . S
H933 C917 0.960 . S
C934 C935 1.391 . S
C934 C936 1.394 . S
C934 H950 0.931 . S
C935 C934 1.391 . S
C935 C939 1.376 . S
C936 C934 1.394 . S
C936 C937 1.369 . S
C936 C940 1.531 . S
C937 C936 1.369 . S
C937 C938 1.410 . S
C937 C945 1.503 . S
C938 C937 1.410 . S
C938 C939 1.392 . S
C938 C941 1.511 . S
C939 C935 1.376 . S
C939 C938 1.392 . S
C939 H951 0.929 . S
C940 C936 1.531 . S
C940 H952 0.960 . S
C940 H953 0.962 . S
C940 H954 0.960 . S
C941 C938 1.511 . S
C941 H955 0.961 . S
C941 H956 0.961 . S
C941 H957 0.961 . S
C942 C943 1.370 . S
C942 C944 1.363 . S
C942 H958 0.931 . S
C943 C942 1.370 . S
C943 C947 1.408 . S
C944 C942 1.363 . S
C944 C945 1.370 . S
C944 C948 1.524 . S
C945 C937 1.503 . S
C945 C944 1.370 . S
C945 C946 1.403 . S
C946 C945 1.403 . S
C946 C947 1.404 . S
C946 C949 1.539 . S
C947 C943 1.408 . S
C947 C946 1.404 . S
C947 H959 0.930 . S
C948 C944 1.524 . S
C948 H960 0.956 . S
C948 H961 0.961 . S
C948 H962 0.961 . S
C949 C946 1.539 . S
C949 H963 0.958 . S
C949 H964 0.961 . S
C949 H965 0.960 . S
H950 C934 0.931 . S
H951 C939 0.929 . S
H952 C940 0.960 . S
H953 C940 0.962 . S
H954 C940 0.960 . S
H955 C941 0.961 . S
H956 C941 0.961 . S
H957 C941 0.961 . S
H958 C942 0.931 . S
H959 C947 0.930 . S
H960 C948 0.956 . S
H961 C948 0.961 . S
H962 C948 0.961 . S
H963 C949 0.958 . S
H964 C949 0.961 . S
H965 C949 0.960 . S
C966 C967 1.391 . S
C966 C968 1.394 . S
C966 H982 0.931 . S
C967 C966 1.391 . S
C967 C971 1.376 . S
C968 C966 1.394 . S
C968 C969 1.369 . S
C968 C972 1.531 . S
C969 C968 1.369 . S
C969 C970 1.410 . S
C969 C977 1.503 . S
C970 C969 1.410 . S
C970 C971 1.392 . S
C970 C973 1.511 . S
C971 C967 1.376 . S
C971 C970 1.392 . S
C971 H983 0.929 . S
C972 C968 1.531 . S
C972 H984 0.960 . S
C972 H985 0.962 . S
C972 H986 0.960 . S
C973 C970 1.511 . S
C973 H987 0.961 . S
C973 H988 0.961 . S
C973 H989 0.961 . S
C974 C975 1.370 . S
C974 C976 1.363 . S
C974 H990 0.931 . S
C975 C974 1.370 . S
C975 C979 1.408 . S
C976 C974 1.363 . S
C976 C977 1.370 . S
C976 C980 1.524 . S
C977 C969 1.503 . S
C977 C976 1.370 . S
C977 C978 1.403 . S
C978 C977 1.403 . S
C978 C979 1.404 . S
C978 C981 1.539 . S
C979 C975 1.408 . S
C979 C978 1.404 . S
C979 H991 0.930 . S
C980 C976 1.524 . S
C980 H992 0.956 . S
C980 H993 0.961 . S
C980 H994 0.961 . S
C981 C978 1.539 . S
C981 H995 0.958 . S
C981 H996 0.961 . S
C981 H997 0.960 . S
H982 C966 0.931 . S
H983 C971 0.929 . S
H984 C972 0.960 . S
H985 C972 0.962 . S
H986 C972 0.960 . S
H987 C973 0.961 . S
H988 C973 0.961 . S
H989 C973 0.961 . S
H990 C974 0.931 . S
H991 C979 0.930 . S
H992 C980 0.956 . S
H993 C980 0.961 . S
H994 C980 0.961 . S
H995 C981 0.958 . S
H996 C981 0.961 . S
H997 C981 0.960 . S
C998 C999 1.391 . S
C998 C1000 1.394 . S
C998 H1014 0.931 . S
C999 C998 1.391 . S
C999 C1003 1.376 . S
C1000 C998 1.394 . S
C1000 C1001 1.369 . S
C1000 C1004 1.531 . S
C1001 C1000 1.369 . S
C1001 C1002 1.410 . S
C1001 C1009 1.503 . S
C1002 C1001 1.410 . S
C1002 C1003 1.392 . S
C1002 C1005 1.511 . S
C1003 C999 1.376 . S
C1003 C1002 1.392 . S
C1003 H1015 0.929 . S
C1004 C1000 1.531 . S
C1004 H1016 0.960 . S
C1004 H1017 0.962 . S
C1004 H1018 0.960 . S
C1005 C1002 1.511 . S
C1005 H1019 0.961 . S
C1005 H1020 0.961 . S
C1005 H1021 0.961 . S
C1006 C1007 1.370 . S
C1006 C1008 1.363 . S
C1006 H1022 0.931 . S
C1007 C1006 1.370 . S
C1007 C1011 1.408 . S
C1008 C1006 1.363 . S
C1008 C1009 1.370 . S
C1008 C1012 1.524 . S
C1009 C1001 1.503 . S
C1009 C1008 1.370 . S
C1009 C1010 1.403 . S
C1010 C1009 1.403 . S
C1010 C1011 1.404 . S
C1010 C1013 1.539 . S
C1011 C1007 1.408 . S
C1011 C1010 1.404 . S
C1011 H1023 0.930 . S
C1012 C1008 1.524 . S
C1012 H1024 0.956 . S
C1012 H1025 0.961 . S
C1012 H1026 0.961 . S
C1013 C1010 1.539 . S
C1013 H1027 0.958 . S
C1013 H1028 0.961 . S
C1013 H1029 0.960 . S
H1014 C998 0.931 . S
H1015 C1003 0.929 . S
H1016 C1004 0.960 . S
H1017 C1004 0.962 . S
H1018 C1004 0.960 . S
H1019 C1005 0.961 . S
H1020 C1005 0.961 . S
H1021 C1005 0.961 . S
H1022 C1006 0.931 . S
H1023 C1011 0.930 . S
H1024 C1012 0.956 . S
H1025 C1012 0.961 . S
H1026 C1012 0.961 . S
H1027 C1013 0.958 . S
H1028 C1013 0.961 . S
H1029 C1013 0.960 . S
C1030 C1031 1.391 . S
C1030 C1032 1.394 . S
C1030 H1046 0.931 . S
C1031 C1030 1.391 . S
C1031 C1035 1.376 . S
C1032 C1030 1.394 . S
C1032 C1033 1.369 . S
C1032 C1036 1.531 . S
C1033 C1032 1.369 . S
C1033 C1034 1.410 . S
C1033 C1041 1.503 . S
C1034 C1033 1.410 . S
C1034 C1035 1.392 . S
C1034 C1037 1.511 . S
C1035 C1031 1.376 . S
C1035 C1034 1.392 . S
C1035 H1047 0.929 . S
C1036 C1032 1.531 . S
C1036 H1048 0.960 . S
C1036 H1049 0.962 . S
C1036 H1050 0.960 . S
C1037 C1034 1.511 . S
C1037 H1051 0.961 . S
C1037 H1052 0.961 . S
C1037 H1053 0.961 . S
C1038 C1039 1.370 . S
C1038 C1040 1.363 . S
C1038 H1054 0.931 . S
C1039 C1038 1.370 . S
C1039 C1043 1.408 . S
C1040 C1038 1.363 . S
C1040 C1041 1.370 . S
C1040 C1044 1.524 . S
C1041 C1033 1.503 . S
C1041 C1040 1.370 . S
C1041 C1042 1.403 . S
C1042 C1041 1.403 . S
C1042 C1043 1.404 . S
C1042 C1045 1.539 . S
C1043 C1039 1.408 . S
C1043 C1042 1.404 . S
C1043 H1055 0.930 . S
C1044 C1040 1.524 . S
C1044 H1056 0.956 . S
C1044 H1057 0.961 . S
C1044 H1058 0.961 . S
C1045 C1042 1.539 . S
C1045 H1059 0.958 . S
C1045 H1060 0.961 . S
C1045 H1061 0.960 . S
H1046 C1030 0.931 . S
H1047 C1035 0.929 . S
H1048 C1036 0.960 . S
H1049 C1036 0.962 . S
H1050 C1036 0.960 . S
H1051 C1037 0.961 . S
H1052 C1037 0.961 . S
H1053 C1037 0.961 . S
H1054 C1038 0.931 . S
H1055 C1043 0.930 . S
H1056 C1044 0.956 . S
H1057 C1044 0.961 . S
H1058 C1044 0.961 . S
H1059 C1045 0.958 . S
H1060 C1045 0.961 . S
H1061 C1045 0.960 . S
C1062 C1063 1.391 . S
C1062 C1064 1.394 . S
C1062 H1078 0.931 . S
C1063 C1062 1.391 . S
C1063 C1067 1.376 . S
C1064 C1062 1.394 . S
C1064 C1065 1.369 . S
C1064 C1068 1.531 . S
C1065 C1064 1.369 . S
C1065 C1066 1.410 . S
C1065 C1073 1.503 . S
C1066 C1065 1.410 . S
C1066 C1067 1.392 . S
C1066 C1069 1.511 . S
C1067 C1063 1.376 . S
C1067 C1066 1.392 . S
C1067 H1079 0.929 . S
C1068 C1064 1.531 . S
C1068 H1080 0.960 . S
C1068 H1081 0.962 . S
C1068 H1082 0.960 . S
C1069 C1066 1.511 . S
C1069 H1083 0.961 . S
C1069 H1084 0.961 . S
C1069 H1085 0.961 . S
C1070 C1071 1.370 . S
C1070 C1072 1.363 . S
C1070 H1086 0.931 . S
C1071 C1070 1.370 . S
C1071 C1075 1.408 . S
C1072 C1070 1.363 . S
C1072 C1073 1.370 . S
C1072 C1076 1.524 . S
C1073 C1065 1.503 . S
C1073 C1072 1.370 . S
C1073 C1074 1.403 . S
C1074 C1073 1.403 . S
C1074 C1075 1.404 . S
C1074 C1077 1.539 . S
C1075 C1071 1.408 . S
C1075 C1074 1.404 . S
C1075 H1087 0.930 . S
C1076 C1072 1.524 . S
C1076 H1088 0.956 . S
C1076 H1089 0.961 . S
C1076 H1090 0.961 . S
C1077 C1074 1.539 . S
C1077 H1091 0.958 . S
C1077 H1092 0.961 . S
C1077 H1093 0.960 . S
H1078 C1062 0.931 . S
H1079 C1067 0.929 . S
H1080 C1068 0.960 . S
H1081 C1068 0.962 . S
H1082 C1068 0.960 . S
H1083 C1069 0.961 . S
H1084 C1069 0.961 . S
H1085 C1069 0.961 . S
H1086 C1070 0.931 . S
H1087 C1075 0.930 . S
H1088 C1076 0.956 . S
H1089 C1076 0.961 . S
H1090 C1076 0.961 . S
H1091 C1077 0.958 . S
H1092 C1077 0.961 . S
H1093 C1077 0.960 . S
C1094 C1095 1.391 . S
C1094 C1096 1.394 . S
C1094 H1110 0.931 . S
C1095 C1094 1.391 . S
C1095 C1099 1.376 . S
C1096 C1094 1.394 . S
C1096 C1097 1.369 . S
C1096 C1100 1.531 . S
C1097 C1096 1.369 . S
C1097 C1098 1.410 . S
C1097 C1105 1.503 . S
C1098 C1097 1.410 . S
C1098 C1099 1.392 . S
C1098 C1101 1.511 . S
C1099 C1095 1.376 . S
C1099 C1098 1.392 . S
C1099 H1111 0.929 . S
C1100 C1096 1.531 . S
C1100 H1112 0.960 . S
C1100 H1113 0.962 . S
C1100 H1114 0.960 . S
C1101 C1098 1.511 . S
C1101 H1115 0.961 . S
C1101 H1116 0.961 . S
C1101 H1117 0.961 . S
C1102 C1103 1.370 . S
C1102 C1104 1.363 . S
C1102 H1118 0.931 . S
C1103 C1102 1.370 . S
C1103 C1107 1.408 . S
C1104 C1102 1.363 . S
C1104 C1105 1.370 . S
C1104 C1108 1.524 . S
C1105 C1097 1.503 . S
C1105 C1104 1.370 . S
C1105 C1106 1.403 . S
C1106 C1105 1.403 . S
C1106 C1107 1.404 . S
C1106 C1109 1.539 . S
C1107 C1103 1.408 . S
C1107 C1106 1.404 . S
C1107 H1119 0.930 . S
C1108 C1104 1.524 . S
C1108 H1120 0.956 . S
C1108 H1121 0.961 . S
C1108 H1122 0.961 . S
C1109 C1106 1.539 . S
C1109 H1123 0.958 . S
C1109 H1124 0.961 . S
C1109 H1125 0.960 . S
H1110 C1094 0.931 . S
H1111 C1099 0.929 . S
H1112 C1100 0.960 . S
H1113 C1100 0.962 . S
H1114 C1100 0.960 . S
H1115 C1101 0.961 . S
H1116 C1101 0.961 . S
H1117 C1101 0.961 . S
H1118 C1102 0.931 . S
H1119 C1107 0.930 . S
H1120 C1108 0.956 . S
H1121 C1108 0.961 . S
H1122 C1108 0.961 . S
H1123 C1109 0.958 . S
H1124 C1109 0.961 . S
H1125 C1109 0.960 . S
C1126 C1127 1.391 . S
C1126 C1128 1.394 . S
C1126 H1142 0.931 . S
C1127 C1126 1.391 . S
C1127 C1131 1.376 . S
C1128 C1126 1.394 . S
C1128 C1129 1.369 . S
C1128 C1132 1.531 . S
C1129 C1128 1.369 . S
C1129 C1130 1.410 . S
C1129 C1137 1.503 . S
C1130 C1129 1.410 . S
C1130 C1131 1.392 . S
C1130 C1133 1.511 . S
C1131 C1127 1.376 . S
C1131 C1130 1.392 . S
C1131 H1143 0.929 . S
C1132 C1128 1.531 . S
C1132 H1144 0.960 . S
C1132 H1145 0.962 . S
C1132 H1146 0.960 . S
C1133 C1130 1.511 . S
C1133 H1147 0.961 . S
C1133 H1148 0.961 . S
C1133 H1149 0.961 . S
C1134 C1135 1.370 . S
C1134 C1136 1.363 . S
C1134 H1150 0.931 . S
C1135 C1134 1.370 . S
C1135 C1139 1.408 . S
C1136 C1134 1.363 . S
C1136 C1137 1.370 . S
C1136 C1140 1.524 . S
C1137 C1129 1.503 . S
C1137 C1136 1.370 . S
C1137 C1138 1.403 . S
C1138 C1137 1.403 . S
C1138 C1139 1.404 . S
C1138 C1141 1.539 . S
C1139 C1135 1.408 . S
C1139 C1138 1.404 . S
C1139 H1151 0.930 . S
C1140 C1136 1.524 . S
C1140 H1152 0.956 . S
C1140 H1153 0.961 . S
C1140 H1154 0.961 . S
C1141 C1138 1.539 . S
C1141 H1155 0.958 . S
C1141 H1156 0.961 . S
C1141 H1157 0.960 . S
H1142 C1126 0.931 . S
H1143 C1131 0.929 . S
H1144 C1132 0.960 . S
H1145 C1132 0.962 . S
H1146 C1132 0.960 . S
H1147 C1133 0.961 . S
H1148 C1133 0.961 . S
H1149 C1133 0.961 . S
H1150 C1134 0.931 . S
H1151 C1139 0.930 . S
H1152 C1140 0.956 . S
H1153 C1140 0.961 . S
H1154 C1140 0.961 . S
H1155 C1141 0.958 . S
H1156 C1141 0.961 . S
H1157 C1141 0.960 . S
C1158 C1159 1.391 . S
C1158 C1160 1.394 . S
C1158 H1174 0.931 . S
C1159 C1158 1.391 . S
C1159 C1163 1.376 . S
C1160 C1158 1.394 . S
C1160 C1161 1.369 . S
C1160 C1164 1.531 . S
C1161 C1160 1.369 . S
C1161 C1162 1.410 . S
C1161 C1169 1.503 . S
C1162 C1161 1.410 . S
C1162 C1163 1.392 . S
C1162 C1165 1.511 . S
C1163 C1159 1.376 . S
C1163 C1162 1.392 . S
C1163 H1175 0.929 . S
C1164 C1160 1.531 . S
C1164 H1176 0.960 . S
C1164 H1177 0.962 . S
C1164 H1178 0.960 . S
C1165 C1162 1.511 . S
C1165 H1179 0.961 . S
C1165 H1180 0.961 . S
C1165 H1181 0.961 . S
C1166 C1167 1.370 . S
C1166 C1168 1.363 . S
C1166 H1182 0.931 . S
C1167 C1166 1.370 . S
C1167 C1171 1.408 . S
C1168 C1166 1.363 . S
C1168 C1169 1.370 . S
C1168 C1172 1.524 . S
C1169 C1161 1.503 . S
C1169 C1168 1.370 . S
C1169 C1170 1.403 . S
C1170 C1169 1.403 . S
C1170 C1171 1.404 . S
C1170 C1173 1.539 . S
C1171 C1167 1.408 . S
C1171 C1170 1.404 . S
C1171 H1183 0.930 1_554 S
C1172 C1168 1.524 . S
C1172 H1184 0.956 . S
C1172 H1185 0.961 . S
C1172 H1186 0.961 . S
C1173 C1170 1.539 . S
C1173 H1187 0.958 . S
C1173 H1188 0.961 . S
C1173 H1189 0.960 . S
H1174 C1158 0.931 . S
H1175 C1163 0.929 . S
H1176 C1164 0.960 . S
H1177 C1164 0.962 . S
H1178 C1164 0.960 . S
H1179 C1165 0.961 . S
H1180 C1165 0.961 . S
H1181 C1165 0.961 . S
H1182 C1166 0.931 . S
H1183 C1171 0.930 1_556 S
H1184 C1172 0.956 . S
H1185 C1172 0.961 . S
H1186 C1172 0.961 . S
H1187 C1173 0.958 . S
H1188 C1173 0.961 . S
H1189 C1173 0.960 . S
C1190 C1191 1.391 . S
C1190 C1192 1.394 . S
C1190 H1206 0.931 . S
C1191 C1190 1.391 . S
C1191 C1195 1.376 . S
C1192 C1190 1.394 . S
C1192 C1193 1.369 . S
C1192 C1196 1.531 . S
C1193 C1192 1.369 . S
C1193 C1194 1.410 . S
C1193 C1201 1.503 . S
C1194 C1193 1.410 . S
C1194 C1195 1.392 . S
C1194 C1197 1.511 . S
C1195 C1191 1.376 . S
C1195 C1194 1.392 . S
C1195 H1207 0.929 . S
C1196 C1192 1.531 . S
C1196 H1208 0.960 . S
C1196 H1209 0.962 . S
C1196 H1210 0.960 . S
C1197 C1194 1.511 . S
C1197 H1211 0.961 . S
C1197 H1212 0.961 . S
C1197 H1213 0.961 . S
C1198 C1199 1.370 . S
C1198 C1200 1.363 . S
C1198 H1214 0.931 1_554 S
C1199 C1198 1.370 . S
C1199 C1203 1.408 . S
C1200 C1198 1.363 . S
C1200 C1201 1.370 . S
C1200 C1204 1.524 . S
C1201 C1193 1.503 . S
C1201 C1200 1.370 . S
C1201 C1202 1.403 . S
C1202 C1201 1.403 . S
C1202 C1203 1.404 . S
C1202 C1205 1.539 . S
C1203 C1199 1.408 . S
C1203 C1202 1.404 . S
C1203 H1215 0.930 . S
C1204 C1200 1.524 . S
C1204 H1216 0.956 . S
C1204 H1217 0.961 . S
C1204 H1218 0.961 . S
C1205 C1202 1.539 . S
C1205 H1219 0.958 . S
C1205 H1220 0.961 . S
C1205 H1221 0.960 . S
H1206 C1190 0.931 . S
H1207 C1195 0.929 . S
H1208 C1196 0.960 . S
H1209 C1196 0.962 . S
H1210 C1196 0.960 . S
H1211 C1197 0.961 . S
H1212 C1197 0.961 . S
H1213 C1197 0.961 . S
H1214 C1198 0.931 1_556 S
H1215 C1203 0.930 . S
H1216 C1204 0.956 . S
H1217 C1204 0.961 . S
H1218 C1204 0.961 . S
H1219 C1205 0.958 . S
H1220 C1205 0.961 . S
H1221 C1205 0.960 . S
C1222 C1223 1.391 . S
C1222 C1224 1.394 . S
C1222 H1238 0.931 . S
C1223 C1222 1.391 . S
C1223 C1227 1.376 . S
C1224 C1222 1.394 . S
C1224 C1225 1.369 . S
C1224 C1228 1.531 . S
C1225 C1224 1.369 . S
C1225 C1226 1.410 . S
C1225 C1233 1.503 . S
C1226 C1225 1.410 . S
C1226 C1227 1.392 . S
C1226 C1229 1.511 . S
C1227 C1223 1.376 . S
C1227 C1226 1.392 . S
C1227 H1239 0.929 . S
C1228 C1224 1.531 . S
C1228 H1240 0.960 . S
C1228 H1241 0.962 . S
C1228 H1242 0.960 . S
C1229 C1226 1.511 . S
C1229 H1243 0.961 . S
C1229 H1244 0.961 . S
C1229 H1245 0.961 . S
C1230 C1231 1.370 . S
C1230 C1232 1.363 . S
C1230 H1246 0.931 . S
C1231 C1230 1.370 . S
C1231 C1235 1.408 . S
C1232 C1230 1.363 . S
C1232 C1233 1.370 . S
C1232 C1236 1.524 . S
C1233 C1225 1.503 . S
C1233 C1232 1.370 . S
C1233 C1234 1.403 . S
C1234 C1233 1.403 . S
C1234 C1235 1.404 . S
C1234 C1237 1.539 . S
C1235 C1231 1.408 . S
C1235 C1234 1.404 . S
C1235 H1247 0.930 1_554 S
C1236 C1232 1.524 . S
C1236 H1248 0.956 . S
C1236 H1249 0.961 . S
C1236 H1250 0.961 . S
C1237 C1234 1.539 . S
C1237 H1251 0.958 . S
C1237 H1252 0.961 . S
C1237 H1253 0.960 . S
H1238 C1222 0.931 . S
H1239 C1227 0.929 . S
H1240 C1228 0.960 . S
H1241 C1228 0.962 . S
H1242 C1228 0.960 . S
H1243 C1229 0.961 . S
H1244 C1229 0.961 . S
H1245 C1229 0.961 . S
H1246 C1230 0.931 . S
H1247 C1235 0.930 1_556 S
H1248 C1236 0.956 . S
H1249 C1236 0.961 . S
H1250 C1236 0.961 . S
H1251 C1237 0.958 . S
H1252 C1237 0.961 . S
H1253 C1237 0.960 . S
C1254 C1255 1.391 . S
C1254 C1256 1.394 . S
C1254 H1270 0.931 . S
C1255 C1254 1.391 . S
C1255 C1259 1.376 . S
C1256 C1254 1.394 . S
C1256 C1257 1.369 . S
C1256 C1260 1.531 . S
C1257 C1256 1.369 . S
C1257 C1258 1.410 . S
C1257 C1265 1.503 . S
C1258 C1257 1.410 . S
C1258 C1259 1.392 . S
C1258 C1261 1.511 . S
C1259 C1255 1.376 . S
C1259 C1258 1.392 . S
C1259 H1271 0.929 . S
C1260 C1256 1.531 . S
C1260 H1272 0.960 . S
C1260 H1273 0.962 . S
C1260 H1274 0.960 . S
C1261 C1258 1.511 . S
C1261 H1275 0.961 . S
C1261 H1276 0.961 . S
C1261 H1277 0.961 . S
C1262 C1263 1.370 . S
C1262 C1264 1.363 . S
C1262 H1278 0.931 . S
C1263 C1262 1.370 . S
C1263 C1267 1.408 . S
C1264 C1262 1.363 . S
C1264 C1265 1.370 . S
C1264 C1268 1.524 . S
C1265 C1257 1.503 . S
C1265 C1264 1.370 . S
C1265 C1266 1.403 . S
C1266 C1265 1.403 . S
C1266 C1267 1.404 . S
C1266 C1269 1.539 . S
C1267 C1263 1.408 . S
C1267 C1266 1.404 . S
C1267 H1279 0.930 . S
C1268 C1264 1.524 . S
C1268 H1280 0.956 . S
C1268 H1281 0.961 . S
C1268 H1282 0.961 . S
C1269 C1266 1.539 . S
C1269 H1283 0.958 . S
C1269 H1284 0.961 . S
C1269 H1285 0.960 . S
H1270 C1254 0.931 . S
H1271 C1259 0.929 . S
H1272 C1260 0.960 . S
H1273 C1260 0.962 . S
H1274 C1260 0.960 . S
H1275 C1261 0.961 . S
H1276 C1261 0.961 . S
H1277 C1261 0.961 . S
H1278 C1262 0.931 . S
H1279 C1267 0.930 . S
H1280 C1268 0.956 . S
H1281 C1268 0.961 . S
H1282 C1268 0.961 . S
H1283 C1269 0.958 . S
H1284 C1269 0.961 . S
H1285 C1269 0.960 . S
C1286 C1287 1.391 . S
C1286 C1288 1.394 . S
C1286 H1302 0.931 . S
C1287 C1286 1.391 . S
C1287 C1291 1.376 . S
C1288 C1286 1.394 . S
C1288 C1289 1.369 . S
C1288 C1292 1.531 . S
C1289 C1288 1.369 . S
C1289 C1290 1.410 . S
C1289 C1297 1.503 . S
C1290 C1289 1.410 . S
C1290 C1291 1.392 . S
C1290 C1293 1.511 . S
C1291 C1287 1.376 . S
C1291 C1290 1.392 . S
C1291 H1303 0.929 . S
C1292 C1288 1.531 . S
C1292 H1304 0.960 . S
C1292 H1305 0.962 . S
C1292 H1306 0.960 . S
C1293 C1290 1.511 . S
C1293 H1307 0.961 . S
C1293 H1308 0.961 . S
C1293 H1309 0.961 . S
C1294 C1295 1.370 . S
C1294 C1296 1.363 . S
C1294 H1310 0.931 . S
C1295 C1294 1.370 . S
C1295 C1299 1.408 . S
C1296 C1294 1.363 . S
C1296 C1297 1.370 . S
C1296 C1300 1.524 . S
C1297 C1289 1.503 . S
C1297 C1296 1.370 . S
C1297 C1298 1.403 . S
C1298 C1297 1.403 . S
C1298 C1299 1.404 . S
C1298 C1301 1.539 . S
C1299 C1295 1.408 . S
C1299 C1298 1.404 . S
C1299 H1311 0.930 . S
C1300 C1296 1.524 . S
C1300 H1312 0.956 . S
C1300 H1313 0.961 . S
C1300 H1314 0.961 . S
C1301 C1298 1.539 . S
C1301 H1315 0.958 . S
C1301 H1316 0.961 . S
C1301 H1317 0.960 . S
H1302 C1286 0.931 . S
H1303 C1291 0.929 . S
H1304 C1292 0.960 . S
H1305 C1292 0.962 . S
H1306 C1292 0.960 . S
H1307 C1293 0.961 . S
H1308 C1293 0.961 . S
H1309 C1293 0.961 . S
H1310 C1294 0.931 . S
H1311 C1299 0.930 . S
H1312 C1300 0.956 . S
H1313 C1300 0.961 . S
H1314 C1300 0.961 . S
H1315 C1301 0.958 . S
H1316 C1301 0.961 . S
H1317 C1301 0.960 . S
C1318 C1319 1.391 . S
C1318 C1320 1.394 . S
C1318 H1334 0.931 . S
C1319 C1318 1.391 . S
C1319 C1323 1.376 . S
C1320 C1318 1.394 . S
C1320 C1321 1.369 . S
C1320 C1324 1.531 . S
C1321 C1320 1.369 . S
C1321 C1322 1.410 . S
C1321 C1329 1.503 . S
C1322 C1321 1.410 . S
C1322 C1323 1.392 . S
C1322 C1325 1.511 . S
C1323 C1319 1.376 . S
C1323 C1322 1.392 . S
C1323 H1335 0.929 . S
C1324 C1320 1.531 . S
C1324 H1336 0.960 . S
C1324 H1337 0.962 . S
C1324 H1338 0.960 . S
C1325 C1322 1.511 . S
C1325 H1339 0.961 . S
C1325 H1340 0.961 . S
C1325 H1341 0.961 . S
C1326 C1327 1.370 . S
C1326 C1328 1.363 . S
C1326 H1342 0.931 . S
C1327 C1326 1.370 . S
C1327 C1331 1.408 . S
C1328 C1326 1.363 . S
C1328 C1329 1.370 . S
C1328 C1332 1.524 . S
C1329 C1321 1.503 . S
C1329 C1328 1.370 . S
C1329 C1330 1.403 . S
C1330 C1329 1.403 . S
C1330 C1331 1.404 . S
C1330 C1333 1.539 . S
C1331 C1327 1.408 . S
C1331 C1330 1.404 . S
C1331 H1343 0.930 . S
C1332 C1328 1.524 . S
C1332 H1344 0.956 . S
C1332 H1345 0.961 . S
C1332 H1346 0.961 . S
C1333 C1330 1.539 . S
C1333 H1347 0.958 . S
C1333 H1348 0.961 . S
C1333 H1349 0.960 . S
H1334 C1318 0.931 . S
H1335 C1323 0.929 . S
H1336 C1324 0.960 . S
H1337 C1324 0.962 . S
H1338 C1324 0.960 . S
H1339 C1325 0.961 . S
H1340 C1325 0.961 . S
H1341 C1325 0.961 . S
H1342 C1326 0.931 . S
H1343 C1331 0.930 . S
H1344 C1332 0.956 . S
H1345 C1332 0.961 . S
H1346 C1332 0.961 . S
H1347 C1333 0.958 . S
H1348 C1333 0.961 . S
H1349 C1333 0.960 . S
C1350 C1351 1.391 . S
C1350 C1352 1.394 . S
C1350 H1366 0.931 . S
C1351 C1350 1.391 . S
C1351 C1355 1.376 . S
C1352 C1350 1.394 . S
C1352 C1353 1.369 . S
C1352 C1356 1.531 . S
C1353 C1352 1.369 . S
C1353 C1354 1.410 . S
C1353 C1361 1.503 . S
C1354 C1353 1.410 . S
C1354 C1355 1.392 . S
C1354 C1357 1.511 . S
C1355 C1351 1.376 . S
C1355 C1354 1.392 . S
C1355 H1367 0.929 . S
C1356 C1352 1.531 . S
C1356 H1368 0.960 . S
C1356 H1369 0.962 . S
C1356 H1370 0.960 . S
C1357 C1354 1.511 . S
C1357 H1371 0.961 . S
C1357 H1372 0.961 . S
C1357 H1373 0.961 . S
C1358 C1359 1.370 . S
C1358 C1360 1.363 . S
C1358 H1374 0.931 . S
C1359 C1358 1.370 . S
C1359 C1363 1.408 . S
C1360 C1358 1.363 . S
C1360 C1361 1.370 . S
C1360 C1364 1.524 . S
C1361 C1353 1.503 . S
C1361 C1360 1.370 . S
C1361 C1362 1.403 . S
C1362 C1361 1.403 . S
C1362 C1363 1.404 . S
C1362 C1365 1.539 . S
C1363 C1359 1.408 . S
C1363 C1362 1.404 . S
C1363 H1375 0.930 1_556 S
C1364 C1360 1.524 . S
C1364 H1376 0.956 . S
C1364 H1377 0.961 . S
C1364 H1378 0.961 . S
C1365 C1362 1.539 . S
C1365 H1379 0.958 . S
C1365 H1380 0.961 . S
C1365 H1381 0.960 . S
H1366 C1350 0.931 . S
H1367 C1355 0.929 . S
H1368 C1356 0.960 . S
H1369 C1356 0.962 . S
H1370 C1356 0.960 . S
H1371 C1357 0.961 . S
H1372 C1357 0.961 . S
H1373 C1357 0.961 . S
H1374 C1358 0.931 . S
H1375 C1363 0.930 1_554 S
H1376 C1364 0.956 . S
H1377 C1364 0.961 . S
H1378 C1364 0.961 . S
H1379 C1365 0.958 . S
H1380 C1365 0.961 . S
H1381 C1365 0.960 . S
C1382 C1383 1.391 . S
C1382 C1384 1.394 . S
C1382 H1398 0.931 . S
C1383 C1382 1.391 . S
C1383 C1387 1.376 . S
C1384 C1382 1.394 . S
C1384 C1385 1.369 . S
C1384 C1388 1.531 . S
C1385 C1384 1.369 . S
C1385 C1386 1.410 . S
C1385 C1393 1.503 . S
C1386 C1385 1.410 . S
C1386 C1387 1.392 . S
C1386 C1389 1.511 . S
C1387 C1383 1.376 . S
C1387 C1386 1.392 . S
C1387 H1399 0.929 . S
C1388 C1384 1.531 . S
C1388 H1400 0.960 . S
C1388 H1401 0.962 . S
C1388 H1402 0.960 . S
C1389 C1386 1.511 . S
C1389 H1403 0.961 . S
C1389 H1404 0.961 . S
C1389 H1405 0.961 . S
C1390 C1391 1.370 . S
C1390 C1392 1.363 . S
C1390 H1406 0.931 . S
C1391 C1390 1.370 . S
C1391 C1395 1.408 . S
C1392 C1390 1.363 . S
C1392 C1393 1.370 . S
C1392 C1396 1.524 . S
C1393 C1385 1.503 . S
C1393 C1392 1.370 . S
C1393 C1394 1.403 . S
C1394 C1393 1.403 . S
C1394 C1395 1.404 . S
C1394 C1397 1.539 . S
C1395 C1391 1.408 . S
C1395 C1394 1.404 . S
C1395 H1407 0.874 1_556 S
C1396 C1392 1.524 . S
C1396 H1408 0.956 . S
C1396 H1409 0.961 . S
C1396 H1410 0.961 . S
C1397 C1394 1.539 . S
C1397 H1411 0.958 . S
C1397 H1412 0.961 . S
C1397 H1413 0.960 . S
H1398 C1382 0.931 . S
H1399 C1387 0.929 . S
H1400 C1388 0.960 . S
H1401 C1388 0.962 . S
H1402 C1388 0.960 . S
H1403 C1389 0.961 . S
H1404 C1389 0.961 . S
H1405 C1389 0.961 . S
H1406 C1390 0.931 . S
H1407 C1395 0.874 1_554 S
H1408 C1396 0.956 . S
H1409 C1396 0.961 . S
H1410 C1396 0.961 . S
H1411 C1397 0.958 . S
H1412 C1397 0.961 . S
H1413 C1397 0.960 . S
C1414 C1415 1.391 . S
C1414 C1416 1.394 . S
C1414 H1430 0.931 . S
C1415 C1414 1.391 . S
C1415 C1419 1.376 . S
C1416 C1414 1.394 . S
C1416 C1417 1.369 . S
C1416 C1420 1.531 . S
C1417 C1416 1.369 . S
C1417 C1418 1.410 . S
C1417 C1425 1.503 . S
C1418 C1417 1.410 . S
C1418 C1419 1.392 . S
C1418 C1421 1.511 . S
C1419 C1415 1.376 . S
C1419 C1418 1.392 . S
C1419 H1431 0.929 . S
C1420 C1416 1.531 . S
C1420 H1432 0.960 . S
C1420 H1433 0.962 . S
C1420 H1434 0.960 . S
C1421 C1418 1.511 . S
C1421 H1435 0.961 . S
C1421 H1436 0.961 . S
C1421 H1437 0.961 . S
C1422 C1423 1.370 . S
C1422 C1424 1.363 . S
C1422 H1438 0.931 . S
C1423 C1422 1.370 . S
C1423 C1427 1.408 . S
C1424 C1422 1.363 . S
C1424 C1425 1.370 . S
C1424 C1428 1.524 . S
C1425 C1417 1.503 . S
C1425 C1424 1.370 . S
C1425 C1426 1.403 . S
C1426 C1425 1.403 . S
C1426 C1427 1.404 . S
C1426 C1429 1.539 . S
C1427 C1423 1.408 . S
C1427 C1426 1.404 . S
C1427 H1439 0.930 1_556 S
C1428 C1424 1.524 . S
C1428 H1440 0.956 . S
C1428 H1441 0.961 . S
C1428 H1442 0.961 . S
C1429 C1426 1.539 . S
C1429 H1443 0.958 . S
C1429 H1444 0.970 1_556 S
C1429 H1445 0.960 . S
H1430 C1414 0.931 . S
H1431 C1419 0.929 . S
H1432 C1420 0.960 . S
H1433 C1420 0.962 . S
H1434 C1420 0.960 . S
H1435 C1421 0.961 . S
H1436 C1421 0.961 . S
H1437 C1421 0.961 . S
H1438 C1422 0.931 . S
H1439 C1427 0.930 1_554 S
H1440 C1428 0.956 . S
H1441 C1428 0.961 . S
H1442 C1428 0.961 . S
H1443 C1429 0.958 . S
H1444 C1429 0.970 1_554 S
H1445 C1429 0.960 . S
C1446 C1447 1.391 . S
C1446 C1448 1.394 . S
C1446 H1462 0.931 . S
C1447 C1446 1.391 . S
C1447 C1451 1.376 . S
C1448 C1446 1.394 . S
C1448 C1449 1.369 . S
C1448 C1452 1.531 . S
C1449 C1448 1.369 . S
C1449 C1450 1.410 . S
C1449 C1457 1.503 . S
C1450 C1449 1.410 . S
C1450 C1451 1.392 . S
C1450 C1453 1.511 . S
C1451 C1447 1.376 . S
C1451 C1450 1.392 . S
C1451 H1463 0.929 . S
C1452 C1448 1.531 . S
C1452 H1464 0.960 . S
C1452 H1465 0.962 . S
C1452 H1466 0.960 . S
C1453 C1450 1.511 . S
C1453 H1467 0.961 . S
C1453 H1468 0.961 . S
C1453 H1469 0.961 . S
C1454 C1455 1.370 . S
C1454 C1456 1.363 . S
C1454 H1470 0.931 . S
C1455 C1454 1.370 . S
C1455 C1459 1.408 . S
C1456 C1454 1.363 . S
C1456 C1457 1.370 . S
C1456 C1460 1.524 . S
C1457 C1449 1.503 . S
C1457 C1456 1.370 . S
C1457 C1458 1.403 . S
C1458 C1457 1.403 . S
C1458 C1459 1.404 . S
C1458 C1461 1.539 . S
C1459 C1455 1.408 . S
C1459 C1458 1.404 . S
C1459 H1471 0.930 . S
C1460 C1456 1.524 . S
C1460 H1472 0.956 . S
C1460 H1473 0.961 . S
C1460 H1474 0.961 . S
C1461 C1458 1.539 . S
C1461 H1475 0.958 . S
C1461 H1476 0.961 . S
C1461 H1477 0.960 . S
H1462 C1446 0.931 . S
H1463 C1451 0.929 . S
H1464 C1452 0.960 . S
H1465 C1452 0.962 . S
H1466 C1452 0.960 . S
H1467 C1453 0.961 . S
H1468 C1453 0.961 . S
H1469 C1453 0.961 . S
H1470 C1454 0.931 . S
H1471 C1459 0.930 . S
H1472 C1460 0.956 . S
H1473 C1460 0.961 . S
H1474 C1460 0.961 . S
H1475 C1461 0.958 . S
H1476 C1461 0.961 . S
H1477 C1461 0.960 . S
C1478 C1479 1.391 . S
C1478 C1480 1.394 . S
C1478 H1494 0.931 . S
C1479 C1478 1.391 . S
C1479 C1483 1.376 . S
C1480 C1478 1.394 . S
C1480 C1481 1.369 . S
C1480 C1484 1.531 . S
C1481 C1480 1.369 . S
C1481 C1482 1.410 . S
C1481 C1489 1.503 . S
C1482 C1481 1.410 . S
C1482 C1483 1.392 . S
C1482 C1485 1.511 . S
C1483 C1479 1.376 . S
C1483 C1482 1.392 . S
C1483 H1495 0.929 . S
C1484 C1480 1.531 . S
C1484 H1496 0.960 . S
C1484 H1497 0.962 . S
C1484 H1498 0.960 . S
C1485 C1482 1.511 . S
C1485 H1499 0.961 . S
C1485 H1500 0.961 . S
C1485 H1501 0.961 . S
C1486 C1487 1.370 . S
C1486 C1488 1.363 . S
C1486 H1502 0.931 . S
C1487 C1486 1.370 . S
C1487 C1491 1.408 . S
C1488 C1486 1.363 . S
C1488 C1489 1.370 . S
C1488 C1492 1.524 . S
C1489 C1481 1.503 . S
C1489 C1488 1.370 . S
C1489 C1490 1.403 . S
C1490 C1489 1.403 . S
C1490 C1491 1.404 . S
C1490 C1493 1.539 . S
C1491 C1487 1.408 . S
C1491 C1490 1.404 . S
C1491 H1503 0.930 . S
C1492 C1488 1.524 . S
C1492 H1504 0.956 . S
C1492 H1505 0.961 . S
C1492 H1506 0.961 . S
C1493 C1490 1.539 . S
C1493 H1507 0.958 . S
C1493 H1508 0.961 . S
C1493 H1509 0.960 . S
H1494 C1478 0.931 . S
H1495 C1483 0.929 . S
H1496 C1484 0.960 . S
H1497 C1484 0.962 . S
H1498 C1484 0.960 . S
H1499 C1485 0.961 . S
H1500 C1485 0.961 . S
H1501 C1485 0.961 . S
H1502 C1486 0.931 . S
H1503 C1491 0.930 . S
H1504 C1492 0.956 . S
H1505 C1492 0.961 . S
H1506 C1492 0.961 . S
H1507 C1493 0.958 . S
H1508 C1493 0.961 . S
H1509 C1493 0.960 . S
C1510 C1511 1.391 . S
C1510 C1512 1.394 . S
C1510 H1526 0.931 . S
C1511 C1510 1.391 . S
C1511 C1515 1.376 . S
C1512 C1510 1.394 . S
C1512 C1513 1.369 . S
C1512 C1516 1.531 . S
C1513 C1512 1.369 . S
C1513 C1514 1.410 . S
C1513 C1521 1.503 . S
C1514 C1513 1.410 . S
C1514 C1515 1.392 . S
C1514 C1517 1.511 . S
C1515 C1511 1.376 . S
C1515 C1514 1.392 . S
C1515 H1527 0.929 . S
C1516 C1512 1.531 . S
C1516 H1528 0.960 . S
C1516 H1529 0.962 . S
C1516 H1530 0.960 . S
C1517 C1514 1.511 . S
C1517 H1531 0.961 . S
C1517 H1532 0.961 . S
C1517 H1533 0.961 . S
C1518 C1519 1.370 . S
C1518 C1520 1.363 . S
C1518 H1534 0.931 . S
C1519 C1518 1.370 . S
C1519 C1523 1.408 . S
C1520 C1518 1.363 . S
C1520 C1521 1.370 . S
C1520 C1524 1.524 . S
C1521 C1513 1.503 . S
C1521 C1520 1.370 . S
C1521 C1522 1.403 . S
C1522 C1521 1.403 . S
C1522 C1523 1.404 . S
C1522 C1525 1.539 . S
C1523 C1519 1.408 . S
C1523 C1522 1.404 . S
C1523 H1535 0.930 . S
C1524 C1520 1.524 . S
C1524 H1536 0.956 . S
C1524 H1537 0.961 . S
C1524 H1538 0.961 . S
C1525 C1522 1.539 . S
C1525 H1539 0.958 . S
C1525 H1540 0.961 . S
C1525 H1541 0.960 . S
H1526 C1510 0.931 . S
H1527 C1515 0.929 . S
H1528 C1516 0.960 . S
H1529 C1516 0.962 . S
H1530 C1516 0.960 . S
H1531 C1517 0.961 . S
H1532 C1517 0.961 . S
H1533 C1517 0.961 . S
H1534 C1518 0.931 . S
H1535 C1523 0.930 . S
H1536 C1524 0.956 . S
H1537 C1524 0.961 . S
H1538 C1524 0.961 . S
H1539 C1525 0.958 . S
H1540 C1525 0.961 . S
H1541 C1525 0.960 . S
C1542 C1543 1.391 . S
C1542 C1544 1.394 . S
C1542 H1558 0.931 . S
C1543 C1542 1.391 . S
C1543 C1547 1.376 . S
C1544 C1542 1.394 . S
C1544 C1545 1.369 . S
C1544 C1548 1.531 . S
C1545 C1544 1.369 . S
C1545 C1546 1.410 . S
C1545 C1553 1.503 . S
C1546 C1545 1.410 . S
C1546 C1547 1.392 . S
C1546 C1549 1.511 . S
C1547 C1543 1.376 . S
C1547 C1546 1.392 . S
C1547 H1559 0.929 . S
C1548 C1544 1.531 . S
C1548 H1560 0.960 . S
C1548 H1561 0.962 . S
C1548 H1562 0.960 . S
C1549 C1546 1.511 . S
C1549 H1563 0.961 . S
C1549 H1564 0.961 . S
C1549 H1565 0.961 . S
C1550 C1551 1.370 . S
C1550 C1552 1.363 . S
C1550 H1566 0.931 . S
C1551 C1550 1.370 . S
C1551 C1555 1.408 . S
C1552 C1550 1.363 . S
C1552 C1553 1.370 . S
C1552 C1556 1.524 . S
C1553 C1545 1.503 . S
C1553 C1552 1.370 . S
C1553 C1554 1.403 . S
C1554 C1553 1.403 . S
C1554 C1555 1.404 . S
C1554 C1557 1.539 . S
C1555 C1551 1.408 . S
C1555 C1554 1.404 . S
C1555 H1567 0.930 . S
C1556 C1552 1.524 . S
C1556 H1568 0.956 . S
C1556 H1569 0.961 . S
C1556 H1570 0.961 . S
C1557 C1554 1.539 . S
C1557 H1571 0.958 . S
C1557 H1572 0.961 . S
C1557 H1573 0.960 . S
H1558 C1542 0.931 . S
H1559 C1547 0.929 . S
H1560 C1548 0.960 . S
H1561 C1548 0.962 . S
H1562 C1548 0.960 . S
H1563 C1549 0.961 . S
H1564 C1549 0.961 . S
H1565 C1549 0.961 . S
H1566 C1550 0.931 . S
H1567 C1555 0.930 . S
H1568 C1556 0.956 . S
H1569 C1556 0.961 . S
H1570 C1556 0.961 . S
H1571 C1557 0.958 . S
H1572 C1557 0.961 . S
H1573 C1557 0.960 . S
C1574 C1575 1.391 . S
C1574 C1576 1.394 . S
C1574 H1590 0.931 . S
C1575 C1574 1.391 . S
C1575 C1579 1.376 . S
C1576 C1574 1.394 . S
C1576 C1577 1.369 . S
C1576 C1580 1.531 . S
C1577 C1576 1.369 . S
C1577 C1578 1.410 . S
C1577 C1585 1.503 . S
C1578 C1577 1.410 . S
C1578 C1579 1.392 . S
C1578 C1581 1.511 . S
C1579 C1575 1.376 . S
C1579 C1578 1.392 . S
C1579 H1591 0.929 . S
C1580 C1576 1.531 . S
C1580 H1592 0.960 . S
C1580 H1593 0.962 . S
C1580 H1594 0.960 . S
C1581 C1578 1.511 . S
C1581 H1595 0.961 . S
C1581 H1596 0.961 . S
C1581 H1597 0.961 . S
C1582 C1583 1.370 . S
C1582 C1584 1.363 . S
C1582 H1598 0.931 . S
C1583 C1582 1.370 . S
C1583 C1587 1.408 . S
C1584 C1582 1.363 . S
C1584 C1585 1.370 . S
C1584 C1588 1.524 . S
C1585 C1577 1.503 . S
C1585 C1584 1.370 . S
C1585 C1586 1.403 . S
C1586 C1585 1.403 . S
C1586 C1587 1.404 . S
C1586 C1589 1.539 . S
C1587 C1583 1.408 . S
C1587 C1586 1.404 . S
C1587 H1599 0.930 . S
C1588 C1584 1.524 . S
C1588 H1600 0.956 . S
C1588 H1601 0.961 . S
C1588 H1602 0.961 . S
C1589 C1586 1.539 . S
C1589 H1603 0.958 . S
C1589 H1604 0.961 . S
C1589 H1605 0.960 . S
H1590 C1574 0.931 . S
H1591 C1579 0.929 . S
H1592 C1580 0.960 . S
H1593 C1580 0.962 . S
H1594 C1580 0.960 . S
H1595 C1581 0.961 . S
H1596 C1581 0.961 . S
H1597 C1581 0.961 . S
H1598 C1582 0.931 . S
H1599 C1587 0.930 . S
H1600 C1588 0.956 . S
H1601 C1588 0.961 . S
H1602 C1588 0.961 . S
H1603 C1589 0.958 . S
H1604 C1589 0.961 . S
H1605 C1589 0.960 . S
C1606 C1607 1.391 . S
C1606 C1608 1.394 . S
C1606 H1622 0.931 . S
C1607 C1606 1.391 . S
C1607 C1611 1.376 . S
C1608 C1606 1.394 . S
C1608 C1609 1.369 . S
C1608 C1612 1.531 . S
C1609 C1608 1.369 . S
C1609 C1610 1.410 . S
C1609 C1617 1.503 . S
C1610 C1609 1.410 . S
C1610 C1611 1.392 . S
C1610 C1613 1.511 . S
C1611 C1607 1.376 . S
C1611 C1610 1.392 . S
C1611 H1623 0.929 . S
C1612 C1608 1.531 . S
C1612 H1624 0.960 . S
C1612 H1625 0.962 . S
C1612 H1626 0.960 . S
C1613 C1610 1.511 . S
C1613 H1627 0.961 . S
C1613 H1628 0.961 . S
C1613 H1629 0.961 . S
C1614 C1615 1.370 . S
C1614 C1616 1.363 . S
C1614 H1630 0.931 . S
C1615 C1614 1.370 . S
C1615 C1619 1.408 . S
C1616 C1614 1.363 . S
C1616 C1617 1.370 . S
C1616 C1620 1.524 . S
C1617 C1609 1.503 . S
C1617 C1616 1.370 . S
C1617 C1618 1.403 . S
C1618 C1617 1.403 . S
C1618 C1619 1.404 . S
C1618 C1621 1.539 . S
C1619 C1615 1.408 . S
C1619 C1618 1.404 . S
C1619 H1631 0.930 . S
C1620 C1616 1.524 . S
C1620 H1632 0.956 . S
C1620 H1633 0.961 . S
C1620 H1634 0.961 . S
C1621 C1618 1.539 . S
C1621 H1635 0.958 . S
C1621 H1636 0.961 . S
C1621 H1637 0.960 . S
H1622 C1606 0.931 . S
H1623 C1611 0.929 . S
H1624 C1612 0.960 . S
H1625 C1612 0.962 . S
H1626 C1612 0.960 . S
H1627 C1613 0.961 . S
H1628 C1613 0.961 . S
H1629 C1613 0.961 . S
H1630 C1614 0.931 . S
H1631 C1619 0.930 . S
H1632 C1620 0.956 . S
H1633 C1620 0.961 . S
H1634 C1620 0.961 . S
H1635 C1621 0.958 . S
H1636 C1621 0.961 . S
H1637 C1621 0.960 . S
C1638 C1639 1.391 . S
C1638 C1640 1.394 . S
C1638 H1654 0.931 . S
C1639 C1638 1.391 . S
C1639 C1643 1.376 . S
C1640 C1638 1.394 . S
C1640 C1641 1.369 . S
C1640 C1644 1.531 . S
C1641 C1640 1.369 . S
C1641 C1642 1.410 . S
C1641 C1649 1.503 . S
C1642 C1641 1.410 . S
C1642 C1643 1.392 . S
C1642 C1645 1.511 . S
C1643 C1639 1.376 . S
C1643 C1642 1.392 . S
C1643 H1655 0.929 . S
C1644 C1640 1.531 . S
C1644 H1656 0.960 1_545 S
C1644 H1657 0.962 . S
C1644 H1658 0.960 1_545 S
C1645 C1642 1.511 . S
C1645 H1659 0.961 . S
C1645 H1660 0.961 . S
C1645 H1661 0.961 . S
C1646 C1647 1.370 . S
C1646 C1648 1.363 . S
C1646 H1662 0.931 . S
C1647 C1646 1.370 . S
C1647 C1651 1.408 . S
C1648 C1646 1.363 . S
C1648 C1649 1.370 . S
C1648 C1652 1.524 . S
C1649 C1641 1.503 . S
C1649 C1648 1.370 . S
C1649 C1650 1.403 . S
C1650 C1649 1.403 . S
C1650 C1651 1.404 . S
C1650 C1653 1.539 1_545 S
C1651 C1647 1.408 . S
C1651 C1650 1.404 . S
C1651 H1663 0.930 1_545 S
C1652 C1648 1.524 . S
C1652 H1664 0.956 . S
C1652 H1665 0.961 . S
C1652 H1666 0.961 . S
C1653 C1650 1.539 1_565 S
C1653 H1667 0.958 . S
C1653 H1668 0.961 . S
C1653 H1669 0.960 . S
H1654 C1638 0.931 . S
H1655 C1643 0.929 . S
H1656 C1644 0.960 1_565 S
H1657 C1644 0.962 . S
H1658 C1644 0.960 1_565 S
H1659 C1645 0.961 . S
H1660 C1645 0.961 . S
H1661 C1645 0.961 . S
H1662 C1646 0.931 . S
H1663 C1651 0.930 1_565 S
H1664 C1652 0.956 . S
H1665 C1652 0.961 . S
H1666 C1652 0.961 . S
H1667 C1653 0.958 . S
H1668 C1653 0.961 . S
H1669 C1653 0.960 . S
C1670 C1671 1.391 1_455 S
C1670 C1672 1.394 . S
C1670 H1686 0.931 . S
C1671 C1670 1.391 1_655 S
C1671 C1675 1.376 . S
C1672 C1670 1.394 . S
C1672 C1673 1.369 1_455 S
C1672 C1676 1.531 . S
C1673 C1672 1.369 1_655 S
C1673 C1674 1.410 . S
C1673 C1681 1.503 . S
C1674 C1673 1.410 . S
C1674 C1675 1.392 . S
C1674 C1677 1.511 . S
C1675 C1671 1.376 . S
C1675 C1674 1.392 . S
C1675 H1687 0.929 . S
C1676 C1672 1.531 . S
C1676 H1688 0.960 . S
C1676 H1689 0.962 . S
C1676 H1690 0.960 . S
C1677 C1674 1.511 . S
C1677 H1691 0.961 . S
C1677 H1692 0.961 . S
C1677 H1693 0.961 . S
C1678 C1679 1.370 . S
C1678 C1680 1.363 . S
C1678 H1694 0.927 1_655 S
C1679 C1678 1.370 . S
C1679 C1683 1.408 . S
C1680 C1678 1.363 . S
C1680 C1681 1.370 . S
C1680 C1684 1.524 . S
C1681 C1673 1.503 . S
C1681 C1680 1.370 . S
C1681 C1682 1.403 . S
C1682 C1681 1.403 . S
C1682 C1683 1.404 . S
C1682 C1685 1.539 . S
C1683 C1679 1.408 . S
C1683 C1682 1.404 . S
C1683 H1695 0.930 . S
C1684 C1680 1.524 . S
C1684 H1696 0.956 1_655 S
C1684 H1697 0.961 . S
C1684 H1698 0.961 . S
C1685 C1682 1.539 . S
C1685 H1699 0.958 1_655 S
C1685 H1700 0.961 . S
C1685 H1701 0.960 . S
H1686 C1670 0.931 . S
H1687 C1675 0.929 . S
H1688 C1676 0.960 . S
H1689 C1676 0.962 . S
H1690 C1676 0.960 . S
H1691 C1677 0.961 . S
H1692 C1677 0.961 . S
H1693 C1677 0.961 . S
H1694 C1678 0.927 1_455 S
H1695 C1683 0.930 . S
H1696 C1684 0.956 1_455 S
H1697 C1684 0.961 . S
H1698 C1684 0.961 . S
H1699 C1685 0.958 1_455 S
H1700 C1685 0.961 . S
H1701 C1685 0.960 . S
C1702 C1703 1.391 . S
C1702 C1704 1.394 . S
C1702 H1718 0.931 . S
C1703 C1702 1.391 . S
C1703 C1707 1.376 . S
C1704 C1702 1.394 . S
C1704 C1705 1.369 . S
C1704 C1708 1.531 . S
C1705 C1704 1.369 . S
C1705 C1706 1.410 . S
C1705 C1713 1.503 . S
C1706 C1705 1.410 . S
C1706 C1707 1.392 . S
C1706 C1709 1.511 . S
C1707 C1703 1.376 . S
C1707 C1706 1.392 . S
C1707 H1719 0.929 . S
C1708 C1704 1.531 . S
C1708 H1720 0.960 . S
C1708 H1721 0.962 . S
C1708 H1722 0.960 . S
C1709 C1706 1.511 . S
C1709 H1723 0.961 . S
C1709 H1724 0.961 . S
C1709 H1725 0.961 . S
C1710 C1711 1.370 . S
C1710 C1712 1.363 . S
C1710 H1726 0.931 . S
C1711 C1710 1.370 . S
C1711 C1715 1.408 . S
C1712 C1710 1.363 . S
C1712 C1713 1.370 . S
C1712 C1716 1.524 . S
C1713 C1705 1.503 . S
C1713 C1712 1.370 . S
C1713 C1714 1.403 . S
C1714 C1713 1.403 . S
C1714 C1715 1.404 . S
C1714 C1717 1.539 . S
C1715 C1711 1.408 . S
C1715 C1714 1.404 . S
C1715 H1727 0.930 . S
C1716 C1712 1.524 . S
C1716 H1728 0.956 . S
C1716 H1729 0.961 . S
C1716 H1730 0.961 . S
C1717 C1714 1.539 . S
C1717 H1731 0.958 . S
C1717 H1732 0.961 . S
C1717 H1733 0.960 . S
H1718 C1702 0.931 . S
H1719 C1707 0.929 . S
H1720 C1708 0.960 . S
H1721 C1708 0.962 . S
H1722 C1708 0.960 . S
H1723 C1709 0.961 . S
H1724 C1709 0.961 . S
H1725 C1709 0.961 . S
H1726 C1710 0.931 . S
H1727 C1715 0.930 . S
H1728 C1716 0.956 . S
H1729 C1716 0.961 . S
H1730 C1716 0.961 . S
H1731 C1717 0.958 . S
H1732 C1717 0.961 . S
H1733 C1717 0.960 . S
C1734 C1735 1.391 . S
C1734 C1736 1.394 . S
C1734 H1750 0.931 . S
C1735 C1734 1.391 . S
C1735 C1739 1.376 . S
C1736 C1734 1.394 . S
C1736 C1737 1.369 . S
C1736 C1740 1.531 . S
C1737 C1736 1.369 . S
C1737 C1738 1.410 . S
C1737 C1745 1.503 . S
C1738 C1737 1.410 . S
C1738 C1739 1.392 . S
C1738 C1741 1.511 . S
C1739 C1735 1.376 . S
C1739 C1738 1.392 . S
C1739 H1751 0.929 . S
C1740 C1736 1.531 . S
C1740 H1752 0.960 . S
C1740 H1753 0.962 . S
C1740 H1754 0.960 . S
C1741 C1738 1.511 . S
C1741 H1755 0.961 . S
C1741 H1756 0.961 . S
C1741 H1757 0.961 . S
C1742 C1743 1.370 . S
C1742 C1744 1.363 . S
C1742 H1758 0.931 1_455 S
C1743 C1742 1.370 . S
C1743 C1747 1.408 . S
C1744 C1742 1.363 . S
C1744 C1745 1.370 . S
C1744 C1748 1.524 1_455 S
C1745 C1737 1.503 . S
C1745 C1744 1.370 . S
C1745 C1746 1.403 . S
C1746 C1745 1.403 . S
C1746 C1747 1.404 . S
C1746 C1749 1.539 . S
C1747 C1743 1.408 . S
C1747 C1746 1.404 . S
C1747 H1759 0.930 . S
C1748 C1744 1.524 1_655 S
C1748 H1760 0.956 . S
C1748 H1761 0.961 . S
C1748 H1762 0.961 . S
C1749 C1746 1.539 . S
C1749 H1763 0.958 . S
C1749 H1764 0.961 . S
C1749 H1765 0.960 . S
H1750 C1734 0.931 . S
H1751 C1739 0.929 . S
H1752 C1740 0.960 . S
H1753 C1740 0.962 . S
H1754 C1740 0.960 . S
H1755 C1741 0.961 . S
H1756 C1741 0.961 . S
H1757 C1741 0.961 . S
H1758 C1742 0.931 1_655 S
H1759 C1747 0.930 . S
H1760 C1748 0.956 . S
H1761 C1748 0.961 . S
H1762 C1748 0.961 . S
H1763 C1749 0.958 . S
H1764 C1749 0.961 . S
H1765 C1749 0.960 . S
C1766 C1767 1.391 . S
C1766 C1768 1.394 . S
C1766 H1782 0.931 . S
C1767 C1766 1.391 . S
C1767 C1771 1.376 . S
C1768 C1766 1.394 . S
C1768 C1769 1.369 . S
C1768 C1772 1.531 . S
C1769 C1768 1.369 . S
C1769 C1770 1.410 . S
C1769 C1777 1.503 . S
C1770 C1769 1.410 . S
C1770 C1771 1.392 . S
C1770 C1773 1.511 . S
C1771 C1767 1.376 . S
C1771 C1770 1.392 . S
C1771 H1783 0.929 . S
C1772 C1768 1.531 . S
C1772 H1784 0.960 . S
C1772 H1785 0.962 . S
C1772 H1786 0.960 . S
C1773 C1770 1.511 . S
C1773 H1787 0.961 . S
C1773 H1788 0.961 . S
C1773 H1789 0.961 . S
C1774 C1775 1.370 . S
C1774 C1776 1.363 . S
C1774 H1790 0.931 . S
C1775 C1774 1.370 . S
C1775 C1779 1.408 . S
C1776 C1774 1.363 . S
C1776 C1777 1.370 . S
C1776 C1780 1.524 . S
C1777 C1769 1.503 . S
C1777 C1776 1.370 . S
C1777 C1778 1.403 . S
C1778 C1777 1.403 . S
C1778 C1779 1.404 . S
C1778 C1781 1.539 . S
C1779 C1775 1.408 . S
C1779 C1778 1.404 . S
C1779 H1791 0.930 . S
C1780 C1776 1.524 . S
C1780 H1792 0.956 . S
C1780 H1793 0.961 . S
C1780 H1794 0.961 . S
C1781 C1778 1.539 . S
C1781 H1795 0.958 . S
C1781 H1796 0.961 . S
C1781 H1797 0.960 . S
H1782 C1766 0.931 . S
H1783 C1771 0.929 . S
H1784 C1772 0.960 . S
H1785 C1772 0.962 . S
H1786 C1772 0.960 . S
H1787 C1773 0.961 . S
H1788 C1773 0.961 . S
H1789 C1773 0.961 . S
H1790 C1774 0.931 . S
H1791 C1779 0.930 . S
H1792 C1780 0.956 . S
H1793 C1780 0.961 . S
H1794 C1780 0.961 . S
H1795 C1781 0.958 . S
H1796 C1781 0.961 . S
H1797 C1781 0.960 . S
C1798 C1799 1.391 1_545 S
C1798 C1800 1.394 . S
C1798 H1814 0.931 . S
C1799 C1798 1.391 1_565 S
C1799 C1803 1.376 . S
C1800 C1798 1.394 . S
C1800 C1801 1.369 1_545 S
C1800 C1804 1.531 . S
C1801 C1800 1.369 1_565 S
C1801 C1802 1.410 . S
C1801 C1809 1.503 . S
C1802 C1801 1.410 . S
C1802 C1803 1.392 . S
C1802 C1805 1.511 . S
C1803 C1799 1.376 . S
C1803 C1802 1.392 . S
C1803 H1815 0.929 . S
C1804 C1800 1.531 . S
C1804 H1816 0.960 . S
C1804 H1817 0.962 . S
C1804 H1818 0.960 . S
C1805 C1802 1.511 . S
C1805 H1819 0.961 . S
C1805 H1820 0.961 . S
C1805 H1821 0.961 . S
C1806 C1807 1.370 . S
C1806 C1808 1.363 . S
C1806 H1822 0.931 . S
C1807 C1806 1.370 . S
C1807 C1811 1.408 . S
C1808 C1806 1.363 . S
C1808 C1809 1.370 . S
C1808 C1812 1.524 . S
C1809 C1801 1.503 . S
C1809 C1808 1.370 . S
C1809 C1810 1.403 . S
C1810 C1809 1.403 . S
C1810 C1811 1.404 . S
C1810 C1813 1.539 . S
C1811 C1807 1.408 . S
C1811 C1810 1.404 . S
C1811 H1823 0.930 . S
C1812 C1808 1.524 . S
C1812 H1824 0.956 1_565 S
C1812 H1825 0.961 . S
C1812 H1826 0.961 . S
C1813 C1810 1.539 . S
C1813 H1827 0.958 1_565 S
C1813 H1828 0.961 . S
C1813 H1829 0.960 . S
H1814 C1798 0.931 . S
H1815 C1803 0.929 . S
H1816 C1804 0.960 . S
H1817 C1804 0.962 . S
H1818 C1804 0.960 . S
H1819 C1805 0.961 . S
H1820 C1805 0.961 . S
H1821 C1805 0.961 . S
H1822 C1806 0.931 . S
H1823 C1811 0.930 . S
H1824 C1812 0.956 1_545 S
H1825 C1812 0.961 . S
H1826 C1812 0.961 . S
H1827 C1813 0.958 1_545 S
H1828 C1813 0.961 . S
H1829 C1813 0.960 . S
C1830 C1831 1.391 1_545 S
C1830 C1832 1.394 . S
C1830 H1846 0.931 . S
C1831 C1830 1.391 1_565 S
C1831 C1835 1.376 . S
C1832 C1830 1.394 . S
C1832 C1833 1.369 1_545 S
C1832 C1836 1.531 . S
C1833 C1832 1.369 1_565 S
C1833 C1834 1.410 . S
C1833 C1841 1.503 . S
C1834 C1833 1.410 . S
C1834 C1835 1.392 . S
C1834 C1837 1.511 . S
C1835 C1831 1.376 . S
C1835 C1834 1.392 . S
C1835 H1847 0.929 . S
C1836 C1832 1.531 . S
C1836 H1848 0.960 . S
C1836 H1849 0.962 . S
C1836 H1850 0.960 . S
C1837 C1834 1.511 . S
C1837 H1851 0.961 . S
C1837 H1852 0.961 . S
C1837 H1853 0.961 . S
C1838 C1839 1.370 . S
C1838 C1840 1.363 . S
C1838 H1854 0.931 1_565 S
C1839 C1838 1.370 . S
C1839 C1843 1.408 . S
C1840 C1838 1.363 . S
C1840 C1841 1.370 . S
C1840 C1844 1.524 1_565 S
C1841 C1833 1.503 . S
C1841 C1840 1.370 . S
C1841 C1842 1.403 . S
C1842 C1841 1.403 . S
C1842 C1843 1.404 . S
C1842 C1845 1.539 . S
C1843 C1839 1.408 . S
C1843 C1842 1.404 . S
C1843 H1855 0.930 . S
C1844 C1840 1.524 1_545 S
C1844 H1856 0.956 . S
C1844 H1857 0.961 1_545 S
C1844 H1858 0.961 1_545 S
C1845 C1842 1.539 . S
C1845 H1859 0.958 1_565 S
C1845 H1860 0.961 . S
C1845 H1861 0.960 . S
H1846 C1830 0.931 . S
H1847 C1835 0.929 . S
H1848 C1836 0.960 . S
H1849 C1836 0.962 . S
H1850 C1836 0.960 . S
H1851 C1837 0.961 . S
H1852 C1837 0.961 . S
H1853 C1837 0.961 . S
H1854 C1838 0.931 1_545 S
H1855 C1843 0.930 . S
H1856 C1844 0.956 . S
H1857 C1844 0.961 1_565 S
H1858 C1844 0.961 1_565 S
H1859 C1845 0.958 1_545 S
H1860 C1845 0.961 . S
H1861 C1845 0.960 . S
C1862 C1863 1.391 . S
C1862 C1864 1.394 . S
C1862 H1878 0.931 1_455 S
C1863 C1862 1.391 . S
C1863 C1867 1.376 . S
C1864 C1862 1.394 . S
C1864 C1865 1.369 . S
C1864 C1868 1.531 1_455 S
C1865 C1864 1.369 . S
C1865 C1866 1.410 . S
C1865 C1873 1.503 . S
C1866 C1865 1.410 . S
C1866 C1867 1.392 . S
C1866 C1869 1.511 . S
C1867 C1863 1.376 . S
C1867 C1866 1.392 . S
C1867 H1879 0.929 . S
C1868 C1864 1.531 1_655 S
C1868 H1880 0.960 . S
C1868 H1881 0.962 . S
C1868 H1882 0.960 . S
C1869 C1866 1.511 . S
C1869 H1883 0.961 . S
C1869 H1884 0.961 . S
C1869 H1885 0.961 . S
C1870 C1871 1.370 . S
C1870 C1872 1.363 . S
C1870 H1886 0.931 . S
C1871 C1870 1.370 . S
C1871 C1875 1.408 . S
C1872 C1870 1.363 . S
C1872 C1873 1.370 . S
C1872 C1876 1.524 . S
C1873 C1865 1.503 . S
C1873 C1872 1.370 . S
C1873 C1874 1.403 . S
C1874 C1873 1.403 . S
C1874 C1875 1.404 . S
C1874 C1877 1.539 . S
C1875 C1871 1.408 . S
C1875 C1874 1.404 . S
C1875 H1887 0.930 . S
C1876 C1872 1.524 . S
C1876 H1888 0.956 . S
C1876 H1889 0.961 . S
C1876 H1890 0.961 . S
C1877 C1874 1.539 . S
C1877 H1891 0.958 . S
C1877 H1892 0.961 . S
C1877 H1893 0.960 . S
H1878 C1862 0.931 1_655 S
H1879 C1867 0.929 . S
H1880 C1868 0.960 . S
H1881 C1868 0.962 . S
H1882 C1868 0.960 . S
H1883 C1869 0.961 . S
H1884 C1869 0.961 . S
H1885 C1869 0.961 . S
H1886 C1870 0.931 . S
H1887 C1875 0.930 . S
H1888 C1876 0.956 . S
H1889 C1876 0.961 . S
H1890 C1876 0.961 . S
H1891 C1877 0.958 . S
H1892 C1877 0.961 . S
H1893 C1877 0.960 . S
C1894 C1895 1.391 . S
C1894 C1896 1.394 . S
C1894 H1910 0.931 . S
C1895 C1894 1.391 . S
C1895 C1899 1.376 . S
C1896 C1894 1.394 . S
C1896 C1897 1.369 . S
C1896 C1900 1.531 . S
C1897 C1896 1.369 . S
C1897 C1898 1.410 . S
C1897 C1905 1.503 . S
C1898 C1897 1.410 . S
C1898 C1899 1.392 . S
C1898 C1901 1.511 . S
C1899 C1895 1.376 . S
C1899 C1898 1.392 . S
C1899 H1911 0.929 . S
C1900 C1896 1.531 . S
C1900 H1912 0.960 . S
C1900 H1913 0.962 . S
C1900 H1914 0.960 . S
C1901 C1898 1.511 . S
C1901 H1915 0.961 . S
C1901 H1916 0.961 . S
C1901 H1917 0.961 . S
C1902 C1903 1.370 . S
C1902 C1904 1.363 . S
C1902 H1918 0.931 . S
C1903 C1902 1.370 . S
C1903 C1907 1.408 . S
C1904 C1902 1.363 . S
C1904 C1905 1.370 . S
C1904 C1908 1.524 . S
C1905 C1897 1.503 . S
C1905 C1904 1.370 . S
C1905 C1906 1.403 . S
C1906 C1905 1.403 . S
C1906 C1907 1.404 . S
C1906 C1909 1.539 . S
C1907 C1903 1.408 . S
C1907 C1906 1.404 . S
C1907 H1919 0.930 . S
C1908 C1904 1.524 . S
C1908 H1920 0.956 . S
C1908 H1921 0.961 . S
C1908 H1922 0.961 . S
C1909 C1906 1.539 . S
C1909 H1923 0.958 . S
C1909 H1924 0.961 . S
C1909 H1925 0.960 . S
H1910 C1894 0.931 . S
H1911 C1899 0.929 . S
H1912 C1900 0.960 . S
H1913 C1900 0.962 . S
H1914 C1900 0.960 . S
H1915 C1901 0.961 . S
H1916 C1901 0.961 . S
H1917 C1901 0.961 . S
H1918 C1902 0.931 . S
H1919 C1907 0.930 . S
H1920 C1908 0.956 . S
H1921 C1908 0.961 . S
H1922 C1908 0.961 . S
H1923 C1909 0.958 . S
H1924 C1909 0.961 . S
H1925 C1909 0.960 . S
C1926 C1927 1.391 1_455 S
C1926 C1928 1.394 . S
C1926 H1942 0.931 . S
C1927 C1926 1.391 1_655 S
C1927 C1931 1.376 . S
C1928 C1926 1.394 . S
C1928 C1929 1.369 1_455 S
C1928 C1932 1.531 . S
C1929 C1928 1.369 1_655 S
C1929 C1930 1.410 . S
C1929 C1937 1.503 . S
C1930 C1929 1.410 . S
C1930 C1931 1.392 . S
C1930 C1933 1.511 . S
C1931 C1927 1.376 . S
C1931 C1930 1.392 . S
C1931 H1943 0.929 . S
C1932 C1928 1.531 . S
C1932 H1944 0.960 . S
C1932 H1945 0.962 . S
C1932 H1946 0.960 . S
C1933 C1930 1.511 . S
C1933 H1947 0.961 . S
C1933 H1948 0.961 . S
C1933 H1949 0.961 . S
C1934 C1935 1.370 . S
C1934 C1936 1.363 . S
C1934 H1950 0.929 1_655 S
C1935 C1934 1.370 . S
C1935 C1939 1.408 . S
C1936 C1934 1.363 . S
C1936 C1937 1.370 . S
C1936 C1940 1.524 . S
C1937 C1929 1.503 . S
C1937 C1936 1.370 . S
C1937 C1938 1.403 . S
C1938 C1937 1.403 . S
C1938 C1939 1.404 . S
C1938 C1941 1.539 . S
C1939 C1935 1.408 . S
C1939 C1938 1.404 . S
C1939 H1951 0.930 . S
C1940 C1936 1.524 . S
C1940 H1952 0.956 1_655 S
C1940 H1953 0.961 . S
C1940 H1954 0.961 . S
C1941 C1938 1.539 . S
C1941 H1955 0.958 1_655 S
C1941 H1956 0.961 . S
C1941 H1957 0.960 . S
H1942 C1926 0.931 . S
H1943 C1931 0.929 . S
H1944 C1932 0.960 . S
H1945 C1932 0.962 . S
H1946 C1932 0.960 . S
H1947 C1933 0.961 . S
H1948 C1933 0.961 . S
H1949 C1933 0.961 . S
H1950 C1934 0.929 1_455 S
H1951 C1939 0.930 . S
H1952 C1940 0.956 1_455 S
H1953 C1940 0.961 . S
H1954 C1940 0.961 . S
H1955 C1941 0.958 1_455 S
H1956 C1941 0.961 . S
H1957 C1941 0.960 . S
C1958 C1959 1.391 . S
C1958 C1960 1.394 . S
C1958 H1974 0.931 . S
C1959 C1958 1.391 . S
C1959 C1963 1.376 . S
C1960 C1958 1.394 . S
C1960 C1961 1.369 . S
C1960 C1964 1.531 . S
C1961 C1960 1.369 . S
C1961 C1962 1.410 . S
C1961 C1969 1.503 . S
C1962 C1961 1.410 . S
C1962 C1963 1.392 . S
C1962 C1965 1.511 . S
C1963 C1959 1.376 . S
C1963 C1962 1.392 . S
C1963 H1975 0.929 . S
C1964 C1960 1.531 . S
C1964 H1976 0.960 . S
C1964 H1977 0.962 . S
C1964 H1978 0.960 . S
C1965 C1962 1.511 . S
C1965 H1979 0.961 . S
C1965 H1980 0.961 . S
C1965 H1981 0.961 . S
C1966 C1967 1.370 . S
C1966 C1968 1.363 . S
C1966 H1982 0.931 . S
C1967 C1966 1.370 . S
C1967 C1971 1.408 . S
C1968 C1966 1.363 . S
C1968 C1969 1.370 . S
C1968 C1972 1.524 . S
C1969 C1961 1.503 . S
C1969 C1968 1.370 . S
C1969 C1970 1.403 . S
C1970 C1969 1.403 . S
C1970 C1971 1.404 . S
C1970 C1973 1.539 . S
C1971 C1967 1.408 . S
C1971 C1970 1.404 . S
C1971 H1983 0.930 . S
C1972 C1968 1.524 . S
C1972 H1984 0.956 . S
C1972 H1985 0.961 . S
C1972 H1986 0.961 . S
C1973 C1970 1.539 . S
C1973 H1987 0.958 . S
C1973 H1988 0.961 . S
C1973 H1989 0.960 . S
H1974 C1958 0.931 . S
H1975 C1963 0.929 . S
H1976 C1964 0.960 . S
H1977 C1964 0.962 . S
H1978 C1964 0.960 . S
H1979 C1965 0.961 . S
H1980 C1965 0.961 . S
H1981 C1965 0.961 . S
H1982 C1966 0.931 . S
H1983 C1971 0.930 . S
H1984 C1972 0.956 . S
H1985 C1972 0.961 . S
H1986 C1972 0.961 . S
H1987 C1973 0.958 . S
H1988 C1973 0.961 . S
H1989 C1973 0.960 . S
C1990 C1991 1.391 . S
C1990 C1992 1.394 . S
C1990 H2006 0.931 . S
C1991 C1990 1.391 . S
C1991 C1995 1.376 . S
C1992 C1990 1.394 . S
C1992 C1993 1.369 . S
C1992 C1996 1.531 . S
C1993 C1992 1.369 . S
C1993 C1994 1.410 . S
C1993 C2001 1.503 . S
C1994 C1993 1.410 . S
C1994 C1995 1.392 . S
C1994 C1997 1.511 . S
C1995 C1991 1.376 . S
C1995 C1994 1.392 . S
C1995 H2007 0.929 . S
C1996 C1992 1.531 . S
C1996 H2008 0.960 . S
C1996 H2009 0.962 1_545 S
C1996 H2010 0.960 . S
C1997 C1994 1.511 . S
C1997 H2011 0.961 . S
C1997 H2012 0.961 . S
C1997 H2013 0.961 . S
C1998 C1999 1.370 . S
C1998 C2000 1.363 . S
C1998 H2014 0.931 1_545 S
C1999 C1998 1.370 . S
C1999 C2003 1.408 . S
C2000 C1998 1.363 . S
C2000 C2001 1.370 . S
C2000 C2004 1.524 1_545 S
C2001 C1993 1.503 . S
C2001 C2000 1.370 . S
C2001 C2002 1.403 . S
C2002 C2001 1.403 . S
C2002 C2003 1.404 . S
C2002 C2005 1.539 . S
C2003 C1999 1.408 . S
C2003 C2002 1.404 . S
C2003 H2015 0.930 . S
C2004 C2000 1.524 1_565 S
C2004 H2016 0.956 . S
C2004 H2017 0.961 1_565 S
C2004 H2018 0.961 . S
C2005 C2002 1.539 . S
C2005 H2019 0.958 . S
C2005 H2020 0.961 . S
C2005 H2021 0.960 . S
H2006 C1990 0.931 . S
H2007 C1995 0.929 . S
H2008 C1996 0.960 . S
H2009 C1996 0.962 1_565 S
H2010 C1996 0.960 . S
H2011 C1997 0.961 . S
H2012 C1997 0.961 . S
H2013 C1997 0.961 . S
H2014 C1998 0.931 1_565 S
H2015 C2003 0.930 . S
H2016 C2004 0.956 . S
H2017 C2004 0.961 1_545 S
H2018 C2004 0.961 . S
H2019 C2005 0.958 . S
H2020 C2005 0.961 . S
H2021 C2005 0.960 . S
C2022 C2023 1.391 . S
C2022 C2024 1.394 . S
C2022 H2038 0.931 . S
C2023 C2022 1.391 . S
C2023 C2027 1.376 . S
C2024 C2022 1.394 . S
C2024 C2025 1.369 . S
C2024 C2028 1.531 . S
C2025 C2024 1.369 . S
C2025 C2026 1.410 . S
C2025 C2033 1.503 . S
C2026 C2025 1.410 . S
C2026 C2027 1.392 . S
C2026 C2029 1.511 . S
C2027 C2023 1.376 . S
C2027 C2026 1.392 . S
C2027 H2039 0.929 . S
C2028 C2024 1.531 . S
C2028 H2040 0.960 . S
C2028 H2041 0.962 . S
C2028 H2042 0.960 . S
C2029 C2026 1.511 . S
C2029 H2043 0.961 . S
C2029 H2044 0.961 . S
C2029 H2045 0.961 . S
C2030 C2031 1.370 . S
C2030 C2032 1.363 . S
C2030 H2046 0.931 . S
C2031 C2030 1.370 . S
C2031 C2035 1.408 . S
C2032 C2030 1.363 . S
C2032 C2033 1.370 . S
C2032 C2036 1.524 . S
C2033 C2025 1.503 . S
C2033 C2032 1.370 . S
C2033 C2034 1.403 . S
C2034 C2033 1.403 . S
C2034 C2035 1.404 . S
C2034 C2037 1.539 . S
C2035 C2031 1.408 . S
C2035 C2034 1.404 . S
C2035 H2047 0.930 . S
C2036 C2032 1.524 . S
C2036 H2048 0.956 . S
C2036 H2049 0.961 . S
C2036 H2050 0.961 . S
C2037 C2034 1.539 . S
C2037 H2051 0.958 . S
C2037 H2052 0.961 . S
C2037 H2053 0.960 . S
H2038 C2022 0.931 . S
H2039 C2027 0.929 . S
H2040 C2028 0.960 . S
H2041 C2028 0.962 . S
H2042 C2028 0.960 . S
H2043 C2029 0.961 . S
H2044 C2029 0.961 . S
H2045 C2029 0.961 . S
H2046 C2030 0.931 . S
H2047 C2035 0.930 . S
H2048 C2036 0.956 . S
H2049 C2036 0.961 . S
H2050 C2036 0.961 . S
H2051 C2037 0.958 . S
H2052 C2037 0.961 . S
H2053 C2037 0.960 . S
C2054 C2055 1.391 . S
C2054 C2056 1.394 . S
C2054 H2070 0.931 . S
C2055 C2054 1.391 . S
C2055 C2059 1.376 . S
C2056 C2054 1.394 . S
C2056 C2057 1.369 . S
C2056 C2060 1.531 . S
C2057 C2056 1.369 . S
C2057 C2058 1.410 . S
C2057 C2065 1.503 . S
C2058 C2057 1.410 . S
C2058 C2059 1.392 . S
C2058 C2061 1.511 . S
C2059 C2055 1.376 . S
C2059 C2058 1.392 . S
C2059 H2071 0.929 . S
C2060 C2056 1.531 . S
C2060 H2072 0.960 . S
C2060 H2073 0.962 . S
C2060 H2074 0.960 . S
C2061 C2058 1.511 . S
C2061 H2075 0.961 . S
C2061 H2076 0.961 . S
C2061 H2077 0.961 . S
C2062 C2063 1.370 . S
C2062 C2064 1.363 . S
C2062 H2078 0.931 . S
C2063 C2062 1.370 . S
C2063 C2067 1.408 . S
C2064 C2062 1.363 . S
C2064 C2065 1.370 . S
C2064 C2068 1.524 . S
C2065 C2057 1.503 . S
C2065 C2064 1.370 . S
C2065 C2066 1.403 . S
C2066 C2065 1.403 . S
C2066 C2067 1.404 . S
C2066 C2069 1.539 . S
C2067 C2063 1.408 . S
C2067 C2066 1.404 . S
C2067 H2079 0.930 . S
C2068 C2064 1.524 . S
C2068 H2080 0.956 . S
C2068 H2081 0.961 . S
C2068 H2082 0.961 . S
C2069 C2066 1.539 . S
C2069 H2083 0.958 . S
C2069 H2084 0.961 . S
C2069 H2085 0.960 . S
H2070 C2054 0.931 . S
H2071 C2059 0.929 . S
H2072 C2060 0.960 . S
H2073 C2060 0.962 . S
H2074 C2060 0.960 . S
H2075 C2061 0.961 . S
H2076 C2061 0.961 . S
H2077 C2061 0.961 . S
H2078 C2062 0.931 . S
H2079 C2067 0.930 . S
H2080 C2068 0.956 . S
H2081 C2068 0.961 . S
H2082 C2068 0.961 . S
H2083 C2069 0.958 . S
H2084 C2069 0.961 . S
H2085 C2069 0.960 . S
C2086 C2087 1.391 . S
C2086 C2088 1.394 . S
C2086 H2102 0.931 . S
C2087 C2086 1.391 . S
C2087 C2091 1.376 . S
C2088 C2086 1.394 . S
C2088 C2089 1.369 . S
C2088 C2092 1.531 . S
C2089 C2088 1.369 . S
C2089 C2090 1.410 . S
C2089 C2097 1.503 . S
C2090 C2089 1.410 . S
C2090 C2091 1.392 . S
C2090 C2093 1.511 . S
C2091 C2087 1.376 . S
C2091 C2090 1.392 . S
C2091 H2103 0.929 . S
C2092 C2088 1.531 . S
C2092 H2104 0.960 . S
C2092 H2105 0.962 . S
C2092 H2106 0.960 . S
C2093 C2090 1.511 . S
C2093 H2107 0.961 . S
C2093 H2108 0.961 . S
C2093 H2109 0.961 . S
C2094 C2095 1.370 . S
C2094 C2096 1.363 . S
C2094 H2110 0.931 . S
C2095 C2094 1.370 . S
C2095 C2099 1.408 . S
C2096 C2094 1.363 . S
C2096 C2097 1.370 . S
C2096 C2100 1.524 . S
C2097 C2089 1.503 . S
C2097 C2096 1.370 . S
C2097 C2098 1.403 . S
C2098 C2097 1.403 . S
C2098 C2099 1.404 . S
C2098 C2101 1.539 . S
C2099 C2095 1.408 . S
C2099 C2098 1.404 . S
C2099 H2111 0.930 . S
C2100 C2096 1.524 . S
C2100 H2112 0.956 . S
C2100 H2113 0.961 . S
C2100 H2114 0.961 . S
C2101 C2098 1.539 . S
C2101 H2115 0.958 . S
C2101 H2116 0.961 . S
C2101 H2117 0.960 . S
H2102 C2086 0.931 . S
H2103 C2091 0.929 . S
H2104 C2092 0.960 . S
H2105 C2092 0.962 . S
H2106 C2092 0.960 . S
H2107 C2093 0.961 . S
H2108 C2093 0.961 . S
H2109 C2093 0.961 . S
H2110 C2094 0.931 . S
H2111 C2099 0.930 . S
H2112 C2100 0.956 . S
H2113 C2100 0.961 . S
H2114 C2100 0.961 . S
H2115 C2101 0.958 . S
H2116 C2101 0.961 . S
H2117 C2101 0.960 . S
C2118 C2119 1.391 . S
C2118 C2120 1.394 . S
C2118 H2134 0.931 . S
C2119 C2118 1.391 . S
C2119 C2123 1.376 . S
C2120 C2118 1.394 . S
C2120 C2121 1.369 . S
C2120 C2124 1.531 . S
C2121 C2120 1.369 . S
C2121 C2122 1.410 . S
C2121 C2129 1.503 . S
C2122 C2121 1.410 . S
C2122 C2123 1.392 . S
C2122 C2125 1.511 . S
C2123 C2119 1.376 . S
C2123 C2122 1.392 . S
C2123 H2135 0.929 . S
C2124 C2120 1.531 . S
C2124 H2136 0.960 . S
C2124 H2137 0.962 . S
C2124 H2138 0.960 . S
C2125 C2122 1.511 . S
C2125 H2139 0.961 . S
C2125 H2140 0.961 . S
C2125 H2141 0.961 . S
C2126 C2127 1.370 . S
C2126 C2128 1.363 . S
C2126 H2142 0.931 . S
C2127 C2126 1.370 . S
C2127 C2131 1.408 . S
C2128 C2126 1.363 . S
C2128 C2129 1.370 . S
C2128 C2132 1.524 . S
C2129 C2121 1.503 . S
C2129 C2128 1.370 . S
C2129 C2130 1.403 . S
C2130 C2129 1.403 . S
C2130 C2131 1.404 . S
C2130 C2133 1.539 . S
C2131 C2127 1.408 . S
C2131 C2130 1.404 . S
C2131 H2143 0.930 . S
C2132 C2128 1.524 . S
C2132 H2144 0.956 . S
C2132 H2145 0.961 . S
C2132 H2146 0.961 . S
C2133 C2130 1.539 . S
C2133 H2147 0.958 . S
C2133 H2148 0.961 . S
C2133 H2149 0.960 . S
H2134 C2118 0.931 . S
H2135 C2123 0.929 . S
H2136 C2124 0.960 . S
H2137 C2124 0.962 . S
H2138 C2124 0.960 . S
H2139 C2125 0.961 . S
H2140 C2125 0.961 . S
H2141 C2125 0.961 . S
H2142 C2126 0.931 . S
H2143 C2131 0.930 . S
H2144 C2132 0.956 . S
H2145 C2132 0.961 . S
H2146 C2132 0.961 . S
H2147 C2133 0.958 . S
H2148 C2133 0.961 . S
H2149 C2133 0.960 . S
C2150 C2151 1.391 . S
C2150 C2152 1.394 . S
C2150 H2166 0.931 . S
C2151 C2150 1.391 . S
C2151 C2155 1.376 . S
C2152 C2150 1.394 . S
C2152 C2153 1.369 . S
C2152 C2156 1.531 . S
C2153 C2152 1.369 . S
C2153 C2154 1.410 . S
C2153 C2161 1.503 . S
C2154 C2153 1.410 . S
C2154 C2155 1.392 . S
C2154 C2157 1.511 . S
C2155 C2151 1.376 . S
C2155 C2154 1.392 . S
C2155 H2167 0.929 . S
C2156 C2152 1.531 . S
C2156 H2168 0.960 . S
C2156 H2169 0.962 . S
C2156 H2170 0.960 . S
C2157 C2154 1.511 . S
C2157 H2171 0.961 . S
C2157 H2172 0.961 . S
C2157 H2173 0.961 . S
C2158 C2159 1.370 . S
C2158 C2160 1.363 . S
C2158 H2174 0.931 . S
C2159 C2158 1.370 . S
C2159 C2163 1.408 . S
C2160 C2158 1.363 . S
C2160 C2161 1.370 . S
C2160 C2164 1.524 . S
C2161 C2153 1.503 . S
C2161 C2160 1.370 . S
C2161 C2162 1.403 . S
C2162 C2161 1.403 . S
C2162 C2163 1.404 . S
C2162 C2165 1.539 . S
C2163 C2159 1.408 . S
C2163 C2162 1.404 . S
C2163 H2175 0.930 . S
C2164 C2160 1.524 . S
C2164 H2176 0.956 . S
C2164 H2177 0.961 . S
C2164 H2178 0.961 . S
C2165 C2162 1.539 . S
C2165 H2179 0.958 . S
C2165 H2180 0.961 . S
C2165 H2181 0.960 . S
H2166 C2150 0.931 . S
H2167 C2155 0.929 . S
H2168 C2156 0.960 . S
H2169 C2156 0.962 . S
H2170 C2156 0.960 . S
H2171 C2157 0.961 . S
H2172 C2157 0.961 . S
H2173 C2157 0.961 . S
H2174 C2158 0.931 . S
H2175 C2163 0.930 . S
H2176 C2164 0.956 . S
H2177 C2164 0.961 . S
H2178 C2164 0.961 . S
H2179 C2165 0.958 . S
H2180 C2165 0.961 . S
H2181 C2165 0.960 . S
C2182 C2183 1.391 . S
C2182 C2184 1.394 . S
C2182 H2198 0.931 . S
C2183 C2182 1.391 . S
C2183 C2187 1.376 . S
C2184 C2182 1.394 . S
C2184 C2185 1.369 . S
C2184 C2188 1.531 . S
C2185 C2184 1.369 . S
C2185 C2186 1.410 . S
C2185 C2193 1.503 . S
C2186 C2185 1.410 . S
C2186 C2187 1.392 . S
C2186 C2189 1.511 . S
C2187 C2183 1.376 . S
C2187 C2186 1.392 . S
C2187 H2199 0.929 . S
C2188 C2184 1.531 . S
C2188 H2200 0.960 . S
C2188 H2201 0.962 . S
C2188 H2202 0.960 . S
C2189 C2186 1.511 . S
C2189 H2203 0.961 . S
C2189 H2204 0.961 . S
C2189 H2205 0.961 . S
C2190 C2191 1.370 . S
C2190 C2192 1.363 . S
C2190 H2206 0.931 . S
C2191 C2190 1.370 . S
C2191 C2195 1.408 . S
C2192 C2190 1.363 . S
C2192 C2193 1.370 . S
C2192 C2196 1.524 . S
C2193 C2185 1.503 . S
C2193 C2192 1.370 . S
C2193 C2194 1.403 . S
C2194 C2193 1.403 . S
C2194 C2195 1.404 . S
C2194 C2197 1.539 . S
C2195 C2191 1.408 . S
C2195 C2194 1.404 . S
C2195 H2207 0.930 . S
C2196 C2192 1.524 . S
C2196 H2208 0.956 . S
C2196 H2209 0.961 . S
C2196 H2210 0.961 . S
C2197 C2194 1.539 . S
C2197 H2211 0.958 . S
C2197 H2212 0.961 . S
C2197 H2213 0.960 . S
H2198 C2182 0.931 . S
H2199 C2187 0.929 . S
H2200 C2188 0.960 . S
H2201 C2188 0.962 . S
H2202 C2188 0.960 . S
H2203 C2189 0.961 . S
H2204 C2189 0.961 . S
H2205 C2189 0.961 . S
H2206 C2190 0.931 . S
H2207 C2195 0.930 . S
H2208 C2196 0.956 . S
H2209 C2196 0.961 . S
H2210 C2196 0.961 . S
H2211 C2197 0.958 . S
H2212 C2197 0.961 . S
H2213 C2197 0.960 . S
C2214 C2215 1.391 . S
C2214 C2216 1.394 . S
C2214 H2230 0.931 . S
C2215 C2214 1.391 . S
C2215 C2219 1.376 . S
C2216 C2214 1.394 . S
C2216 C2217 1.369 . S
C2216 C2220 1.531 . S
C2217 C2216 1.369 . S
C2217 C2218 1.410 . S
C2217 C2225 1.503 . S
C2218 C2217 1.410 . S
C2218 C2219 1.392 . S
C2218 C2221 1.511 . S
C2219 C2215 1.376 . S
C2219 C2218 1.392 . S
C2219 H2231 0.929 . S
C2220 C2216 1.531 . S
C2220 H2232 0.960 . S
C2220 H2233 0.962 . S
C2220 H2234 0.960 . S
C2221 C2218 1.511 . S
C2221 H2235 0.961 . S
C2221 H2236 0.961 . S
C2221 H2237 0.961 . S
C2222 C2223 1.370 . S
C2222 C2224 1.363 . S
C2222 H2238 0.931 . S
C2223 C2222 1.370 . S
C2223 C2227 1.408 . S
C2224 C2222 1.363 . S
C2224 C2225 1.370 . S
C2224 C2228 1.524 . S
C2225 C2217 1.503 . S
C2225 C2224 1.370 . S
C2225 C2226 1.403 . S
C2226 C2225 1.403 . S
C2226 C2227 1.404 . S
C2226 C2229 1.539 . S
C2227 C2223 1.408 . S
C2227 C2226 1.404 . S
C2227 H2239 0.930 . S
C2228 C2224 1.524 . S
C2228 H2240 0.956 . S
C2228 H2241 0.961 . S
C2228 H2242 0.961 . S
C2229 C2226 1.539 . S
C2229 H2243 0.958 . S
C2229 H2244 0.961 . S
C2229 H2245 0.960 . S
H2230 C2214 0.931 . S
H2231 C2219 0.929 . S
H2232 C2220 0.960 . S
H2233 C2220 0.962 . S
H2234 C2220 0.960 . S
H2235 C2221 0.961 . S
H2236 C2221 0.961 . S
H2237 C2221 0.961 . S
H2238 C2222 0.931 . S
H2239 C2227 0.930 . S
H2240 C2228 0.956 . S
H2241 C2228 0.961 . S
H2242 C2228 0.961 . S
H2243 C2229 0.958 . S
H2244 C2229 0.961 . S
H2245 C2229 0.960 . S
C2246 C2247 1.391 . S
C2246 C2248 1.394 . S
C2246 H2262 0.931 . S
C2247 C2246 1.391 . S
C2247 C2251 1.376 . S
C2248 C2246 1.394 . S
C2248 C2249 1.369 . S
C2248 C2252 1.531 . S
C2249 C2248 1.369 . S
C2249 C2250 1.410 . S
C2249 C2257 1.503 . S
C2250 C2249 1.410 . S
C2250 C2251 1.392 . S
C2250 C2253 1.511 . S
C2251 C2247 1.376 . S
C2251 C2250 1.392 . S
C2251 H2263 0.929 . S
C2252 C2248 1.531 . S
C2252 H2264 0.960 . S
C2252 H2265 0.962 . S
C2252 H2266 0.960 . S
C2253 C2250 1.511 . S
C2253 H2267 0.961 . S
C2253 H2268 0.961 . S
C2253 H2269 0.961 . S
C2254 C2255 1.370 . S
C2254 C2256 1.363 . S
C2254 H2270 0.931 . S
C2255 C2254 1.370 . S
C2255 C2259 1.408 . S
C2256 C2254 1.363 . S
C2256 C2257 1.370 . S
C2256 C2260 1.524 . S
C2257 C2249 1.503 . S
C2257 C2256 1.370 . S
C2257 C2258 1.403 . S
C2258 C2257 1.403 . S
C2258 C2259 1.404 . S
C2258 C2261 1.539 . S
C2259 C2255 1.408 . S
C2259 C2258 1.404 . S
C2259 H2271 0.930 . S
C2260 C2256 1.524 . S
C2260 H2272 0.956 . S
C2260 H2273 0.961 . S
C2260 H2274 0.961 . S
C2261 C2258 1.539 . S
C2261 H2275 0.958 . S
C2261 H2276 0.961 . S
C2261 H2277 0.960 . S
H2262 C2246 0.931 . S
H2263 C2251 0.929 . S
H2264 C2252 0.960 . S
H2265 C2252 0.962 . S
H2266 C2252 0.960 . S
H2267 C2253 0.961 . S
H2268 C2253 0.961 . S
H2269 C2253 0.961 . S
H2270 C2254 0.931 . S
H2271 C2259 0.930 . S
H2272 C2260 0.956 . S
H2273 C2260 0.961 . S
H2274 C2260 0.961 . S
H2275 C2261 0.958 . S
H2276 C2261 0.961 . S
H2277 C2261 0.960 . S
C2278 C2279 1.391 . S
C2278 C2280 1.394 . S
C2278 H2294 0.931 . S
C2279 C2278 1.391 . S
C2279 C2283 1.376 . S
C2280 C2278 1.394 . S
C2280 C2281 1.369 . S
C2280 C2284 1.531 . S
C2281 C2280 1.369 . S
C2281 C2282 1.410 . S
C2281 C2289 1.503 . S
C2282 C2281 1.410 . S
C2282 C2283 1.392 . S
C2282 C2285 1.511 . S
C2283 C2279 1.376 . S
C2283 C2282 1.392 . S
C2283 H2295 0.929 . S
C2284 C2280 1.531 . S
C2284 H2296 0.960 . S
C2284 H2297 0.962 . S
C2284 H2298 0.960 . S
C2285 C2282 1.511 . S
C2285 H2299 0.961 . S
C2285 H2300 0.961 . S
C2285 H2301 0.961 . S
C2286 C2287 1.370 . S
C2286 C2288 1.363 . S
C2286 H2302 0.931 . S
C2287 C2286 1.370 . S
C2287 C2291 1.408 . S
C2288 C2286 1.363 . S
C2288 C2289 1.370 . S
C2288 C2292 1.524 . S
C2289 C2281 1.503 . S
C2289 C2288 1.370 . S
C2289 C2290 1.403 . S
C2290 C2289 1.403 . S
C2290 C2291 1.404 . S
C2290 C2293 1.539 . S
C2291 C2287 1.408 . S
C2291 C2290 1.404 . S
C2291 H2303 0.930 . S
C2292 C2288 1.524 . S
C2292 H2304 0.956 . S
C2292 H2305 0.961 . S
C2292 H2306 0.961 . S
C2293 C2290 1.539 . S
C2293 H2307 0.958 . S
C2293 H2308 0.961 . S
C2293 H2309 0.960 . S
H2294 C2278 0.931 . S
H2295 C2283 0.929 . S
H2296 C2284 0.960 . S
H2297 C2284 0.962 . S
H2298 C2284 0.960 . S
H2299 C2285 0.961 . S
H2300 C2285 0.961 . S
H2301 C2285 0.961 . S
H2302 C2286 0.931 . S
H2303 C2291 0.930 . S
H2304 C2292 0.956 . S
H2305 C2292 0.961 . S
H2306 C2292 0.961 . S
H2307 C2293 0.958 . S
H2308 C2293 0.961 . S
H2309 C2293 0.960 . S
C2310 C2311 1.391 . S
C2310 C2312 1.394 . S
C2310 H2326 0.931 . S
C2311 C2310 1.391 . S
C2311 C2315 1.376 . S
C2312 C2310 1.394 . S
C2312 C2313 1.369 . S
C2312 C2316 1.531 . S
C2313 C2312 1.369 . S
C2313 C2314 1.410 . S
C2313 C2321 1.503 . S
C2314 C2313 1.410 . S
C2314 C2315 1.392 . S
C2314 C2317 1.511 . S
C2315 C2311 1.376 . S
C2315 C2314 1.392 . S
C2315 H2327 0.929 . S
C2316 C2312 1.531 . S
C2316 H2328 0.960 . S
C2316 H2329 0.962 . S
C2316 H2330 0.960 . S
C2317 C2314 1.511 . S
C2317 H2331 0.961 . S
C2317 H2332 0.961 . S
C2317 H2333 0.961 . S
C2318 C2319 1.370 . S
C2318 C2320 1.363 . S
C2318 H2334 0.931 . S
C2319 C2318 1.370 . S
C2319 C2323 1.408 . S
C2320 C2318 1.363 . S
C2320 C2321 1.370 . S
C2320 C2324 1.524 . S
C2321 C2313 1.503 . S
C2321 C2320 1.370 . S
C2321 C2322 1.403 . S
C2322 C2321 1.403 . S
C2322 C2323 1.404 . S
C2322 C2325 1.539 . S
C2323 C2319 1.408 . S
C2323 C2322 1.404 . S
C2323 H2335 0.930 . S
C2324 C2320 1.524 . S
C2324 H2336 0.956 . S
C2324 H2337 0.961 . S
C2324 H2338 0.961 . S
C2325 C2322 1.539 . S
C2325 H2339 0.958 . S
C2325 H2340 0.961 . S
C2325 H2341 0.960 . S
H2326 C2310 0.931 . S
H2327 C2315 0.929 . S
H2328 C2316 0.960 . S
H2329 C2316 0.962 . S
H2330 C2316 0.960 . S
H2331 C2317 0.961 . S
H2332 C2317 0.961 . S
H2333 C2317 0.961 . S
H2334 C2318 0.931 . S
H2335 C2323 0.930 . S
H2336 C2324 0.956 . S
H2337 C2324 0.961 . S
H2338 C2324 0.961 . S
H2339 C2325 0.958 . S
H2340 C2325 0.961 . S
H2341 C2325 0.960 . S
C2342 C2343 1.391 . S
C2342 C2344 1.394 . S
C2342 H2358 0.931 . S
C2343 C2342 1.391 . S
C2343 C2347 1.376 . S
C2344 C2342 1.394 . S
C2344 C2345 1.369 . S
C2344 C2348 1.531 . S
C2345 C2344 1.369 . S
C2345 C2346 1.410 . S
C2345 C2353 1.503 . S
C2346 C2345 1.410 . S
C2346 C2347 1.392 . S
C2346 C2349 1.511 . S
C2347 C2343 1.376 . S
C2347 C2346 1.392 . S
C2347 H2359 0.929 . S
C2348 C2344 1.531 . S
C2348 H2360 0.960 . S
C2348 H2361 0.962 . S
C2348 H2362 0.960 . S
C2349 C2346 1.511 . S
C2349 H2363 0.961 . S
C2349 H2364 0.961 . S
C2349 H2365 0.961 . S
C2350 C2351 1.370 . S
C2350 C2352 1.363 . S
C2350 H2366 0.931 . S
C2351 C2350 1.370 . S
C2351 C2355 1.408 . S
C2352 C2350 1.363 . S
C2352 C2353 1.370 . S
C2352 C2356 1.524 . S
C2353 C2345 1.503 . S
C2353 C2352 1.370 . S
C2353 C2354 1.403 . S
C2354 C2353 1.403 . S
C2354 C2355 1.404 . S
C2354 C2357 1.539 . S
C2355 C2351 1.408 . S
C2355 C2354 1.404 . S
C2355 H2367 0.930 . S
C2356 C2352 1.524 . S
C2356 H2368 0.956 . S
C2356 H2369 0.961 . S
C2356 H2370 0.961 . S
C2357 C2354 1.539 . S
C2357 H2371 0.958 . S
C2357 H2372 0.961 . S
C2357 H2373 0.960 . S
H2358 C2342 0.931 . S
H2359 C2347 0.929 . S
H2360 C2348 0.960 . S
H2361 C2348 0.962 . S
H2362 C2348 0.960 . S
H2363 C2349 0.961 . S
H2364 C2349 0.961 . S
H2365 C2349 0.961 . S
H2366 C2350 0.931 . S
H2367 C2355 0.930 . S
H2368 C2356 0.956 . S
H2369 C2356 0.961 . S
H2370 C2356 0.961 . S
H2371 C2357 0.958 . S
H2372 C2357 0.961 . S
H2373 C2357 0.960 . S
C2374 C2375 1.391 . S
C2374 C2376 1.394 . S
C2374 H2390 0.931 . S
C2375 C2374 1.391 . S
C2375 C2379 1.376 . S
C2376 C2374 1.394 . S
C2376 C2377 1.369 . S
C2376 C2380 1.531 . S
C2377 C2376 1.369 . S
C2377 C2378 1.410 . S
C2377 C2385 1.503 . S
C2378 C2377 1.410 . S
C2378 C2379 1.392 . S
C2378 C2381 1.511 . S
C2379 C2375 1.376 . S
C2379 C2378 1.392 . S
C2379 H2391 0.929 . S
C2380 C2376 1.531 . S
C2380 H2392 0.960 . S
C2380 H2393 0.962 . S
C2380 H2394 0.960 . S
C2381 C2378 1.511 . S
C2381 H2395 0.961 . S
C2381 H2396 0.961 . S
C2381 H2397 0.961 . S
C2382 C2383 1.370 . S
C2382 C2384 1.363 . S
C2382 H2398 0.931 . S
C2383 C2382 1.370 . S
C2383 C2387 1.408 . S
C2384 C2382 1.363 . S
C2384 C2385 1.370 . S
C2384 C2388 1.524 . S
C2385 C2377 1.503 . S
C2385 C2384 1.370 . S
C2385 C2386 1.403 . S
C2386 C2385 1.403 . S
C2386 C2387 1.404 . S
C2386 C2389 1.539 . S
C2387 C2383 1.408 . S
C2387 C2386 1.404 . S
C2387 H2399 0.930 . S
C2388 C2384 1.524 . S
C2388 H2400 0.956 . S
C2388 H2401 0.961 . S
C2388 H2402 0.961 . S
C2389 C2386 1.539 . S
C2389 H2403 0.958 . S
C2389 H2404 0.961 . S
C2389 H2405 0.960 . S
H2390 C2374 0.931 . S
H2391 C2379 0.929 . S
H2392 C2380 0.960 . S
H2393 C2380 0.962 . S
H2394 C2380 0.960 . S
H2395 C2381 0.961 . S
H2396 C2381 0.961 . S
H2397 C2381 0.961 . S
H2398 C2382 0.931 . S
H2399 C2387 0.930 . S
H2400 C2388 0.956 . S
H2401 C2388 0.961 . S
H2402 C2388 0.961 . S
H2403 C2389 0.958 . S
H2404 C2389 0.961 . S
H2405 C2389 0.960 . S
C2406 C2407 1.391 . S
C2406 C2408 1.394 . S
C2406 H2422 0.931 . S
C2407 C2406 1.391 . S
C2407 C2411 1.376 . S
C2408 C2406 1.394 . S
C2408 C2409 1.369 . S
C2408 C2412 1.531 . S
C2409 C2408 1.369 . S
C2409 C2410 1.410 . S
C2409 C2417 1.503 . S
C2410 C2409 1.410 . S
C2410 C2411 1.392 . S
C2410 C2413 1.511 . S
C2411 C2407 1.376 . S
C2411 C2410 1.392 . S
C2411 H2423 0.929 . S
C2412 C2408 1.531 . S
C2412 H2424 0.960 . S
C2412 H2425 0.962 . S
C2412 H2426 0.960 . S
C2413 C2410 1.511 . S
C2413 H2427 0.961 . S
C2413 H2428 0.961 . S
C2413 H2429 0.961 . S
C2414 C2415 1.370 . S
C2414 C2416 1.363 . S
C2414 H2430 0.931 . S
C2415 C2414 1.370 . S
C2415 C2419 1.408 . S
C2416 C2414 1.363 . S
C2416 C2417 1.370 . S
C2416 C2420 1.524 . S
C2417 C2409 1.503 . S
C2417 C2416 1.370 . S
C2417 C2418 1.403 . S
C2418 C2417 1.403 . S
C2418 C2419 1.404 . S
C2418 C2421 1.539 . S
C2419 C2415 1.408 . S
C2419 C2418 1.404 . S
C2419 H2431 0.930 . S
C2420 C2416 1.524 . S
C2420 H2432 0.956 . S
C2420 H2433 0.961 . S
C2420 H2434 0.961 . S
C2421 C2418 1.539 . S
C2421 H2435 0.958 . S
C2421 H2436 0.961 . S
C2421 H2437 0.960 . S
H2422 C2406 0.931 . S
H2423 C2411 0.929 . S
H2424 C2412 0.960 . S
H2425 C2412 0.962 . S
H2426 C2412 0.960 . S
H2427 C2413 0.961 . S
H2428 C2413 0.961 . S
H2429 C2413 0.961 . S
H2430 C2414 0.931 . S
H2431 C2419 0.930 . S
H2432 C2420 0.956 . S
H2433 C2420 0.961 . S
H2434 C2420 0.961 . S
H2435 C2421 0.958 . S
H2436 C2421 0.961 . S
H2437 C2421 0.960 . S
C2438 C2439 1.391 . S
C2438 C2440 1.394 . S
C2438 H2454 0.931 . S
C2439 C2438 1.391 . S
C2439 C2443 1.376 . S
C2440 C2438 1.394 . S
C2440 C2441 1.369 . S
C2440 C2444 1.531 . S
C2441 C2440 1.369 . S
C2441 C2442 1.410 . S
C2441 C2449 1.503 . S
C2442 C2441 1.410 . S
C2442 C2443 1.392 . S
C2442 C2445 1.511 . S
C2443 C2439 1.376 . S
C2443 C2442 1.392 . S
C2443 H2455 0.929 . S
C2444 C2440 1.531 . S
C2444 H2456 0.960 . S
C2444 H2457 0.962 . S
C2444 H2458 0.960 . S
C2445 C2442 1.511 . S
C2445 H2459 0.961 . S
C2445 H2460 0.961 . S
C2445 H2461 0.961 . S
C2446 C2447 1.370 . S
C2446 C2448 1.363 . S
C2446 H2462 0.931 . S
C2447 C2446 1.370 . S
C2447 C2451 1.408 . S
C2448 C2446 1.363 . S
C2448 C2449 1.370 . S
C2448 C2452 1.524 . S
C2449 C2441 1.503 . S
C2449 C2448 1.370 . S
C2449 C2450 1.403 . S
C2450 C2449 1.403 . S
C2450 C2451 1.404 . S
C2450 C2453 1.539 . S
C2451 C2447 1.408 . S
C2451 C2450 1.404 . S
C2451 H2463 0.930 . S
C2452 C2448 1.524 . S
C2452 H2464 0.956 . S
C2452 H2465 0.961 . S
C2452 H2466 0.961 . S
C2453 C2450 1.539 . S
C2453 H2467 0.958 . S
C2453 H2468 0.961 . S
C2453 H2469 0.960 . S
H2454 C2438 0.931 . S
H2455 C2443 0.929 . S
H2456 C2444 0.960 . S
H2457 C2444 0.962 . S
H2458 C2444 0.960 . S
H2459 C2445 0.961 . S
H2460 C2445 0.961 . S
H2461 C2445 0.961 . S
H2462 C2446 0.931 . S
H2463 C2451 0.930 . S
H2464 C2452 0.956 . S
H2465 C2452 0.961 . S
H2466 C2452 0.961 . S
H2467 C2453 0.958 . S
H2468 C2453 0.961 . S
H2469 C2453 0.960 . S
C2470 C2471 1.391 . S
C2470 C2472 1.394 . S
C2470 H2486 0.931 . S
C2471 C2470 1.391 . S
C2471 C2475 1.376 . S
C2472 C2470 1.394 . S
C2472 C2473 1.369 . S
C2472 C2476 1.531 . S
C2473 C2472 1.369 . S
C2473 C2474 1.410 . S
C2473 C2481 1.503 . S
C2474 C2473 1.410 . S
C2474 C2475 1.392 . S
C2474 C2477 1.511 . S
C2475 C2471 1.376 . S
C2475 C2474 1.392 . S
C2475 H2487 0.929 . S
C2476 C2472 1.531 . S
C2476 H2488 0.960 . S
C2476 H2489 0.962 . S
C2476 H2490 0.960 . S
C2477 C2474 1.511 . S
C2477 H2491 0.961 . S
C2477 H2492 0.961 . S
C2477 H2493 0.961 . S
C2478 C2479 1.370 . S
C2478 C2480 1.363 . S
C2478 H2494 0.931 . S
C2479 C2478 1.370 . S
C2479 C2483 1.408 . S
C2480 C2478 1.363 . S
C2480 C2481 1.370 . S
C2480 C2484 1.524 . S
C2481 C2473 1.503 . S
C2481 C2480 1.370 . S
C2481 C2482 1.403 . S
C2482 C2481 1.403 . S
C2482 C2483 1.404 . S
C2482 C2485 1.539 . S
C2483 C2479 1.408 . S
C2483 C2482 1.404 . S
C2483 H2495 0.930 . S
C2484 C2480 1.524 . S
C2484 H2496 0.956 . S
C2484 H2497 0.961 . S
C2484 H2498 0.961 . S
C2485 C2482 1.539 . S
C2485 H2499 0.958 . S
C2485 H2500 0.961 . S
C2485 H2501 0.960 . S
H2486 C2470 0.931 . S
H2487 C2475 0.929 . S
H2488 C2476 0.960 . S
H2489 C2476 0.962 . S
H2490 C2476 0.960 . S
H2491 C2477 0.961 . S
H2492 C2477 0.961 . S
H2493 C2477 0.961 . S
H2494 C2478 0.931 . S
H2495 C2483 0.930 . S
H2496 C2484 0.956 . S
H2497 C2484 0.961 . S
H2498 C2484 0.961 . S
H2499 C2485 0.958 . S
H2500 C2485 0.961 . S
H2501 C2485 0.960 . S
C2502 C2503 1.391 . S
C2502 C2504 1.394 . S
C2502 H2518 0.931 . S
C2503 C2502 1.391 . S
C2503 C2507 1.376 . S
C2504 C2502 1.394 . S
C2504 C2505 1.369 . S
C2504 C2508 1.531 . S
C2505 C2504 1.369 . S
C2505 C2506 1.410 . S
C2505 C2513 1.503 . S
C2506 C2505 1.410 . S
C2506 C2507 1.392 . S
C2506 C2509 1.511 . S
C2507 C2503 1.376 . S
C2507 C2506 1.392 . S
C2507 H2519 0.929 . S
C2508 C2504 1.531 . S
C2508 H2520 0.960 . S
C2508 H2521 0.962 . S
C2508 H2522 0.960 . S
C2509 C2506 1.511 . S
C2509 H2523 0.961 . S
C2509 H2524 0.961 . S
C2509 H2525 0.961 . S
C2510 C2511 1.370 . S
C2510 C2512 1.363 . S
C2510 H2526 0.931 . S
C2511 C2510 1.370 . S
C2511 C2515 1.408 . S
C2512 C2510 1.363 . S
C2512 C2513 1.370 . S
C2512 C2516 1.524 . S
C2513 C2505 1.503 . S
C2513 C2512 1.370 . S
C2513 C2514 1.403 . S
C2514 C2513 1.403 . S
C2514 C2515 1.404 . S
C2514 C2517 1.539 . S
C2515 C2511 1.408 . S
C2515 C2514 1.404 . S
C2515 H2527 0.930 . S
C2516 C2512 1.524 . S
C2516 H2528 0.956 . S
C2516 H2529 0.961 . S
C2516 H2530 0.961 . S
C2517 C2514 1.539 . S
C2517 H2531 0.958 . S
C2517 H2532 0.961 . S
C2517 H2533 0.960 . S
H2518 C2502 0.931 . S
H2519 C2507 0.929 . S
H2520 C2508 0.960 . S
H2521 C2508 0.962 . S
H2522 C2508 0.960 . S
H2523 C2509 0.961 . S
H2524 C2509 0.961 . S
H2525 C2509 0.961 . S
H2526 C2510 0.931 . S
H2527 C2515 0.930 . S
H2528 C2516 0.956 . S
H2529 C2516 0.961 . S
H2530 C2516 0.961 . S
H2531 C2517 0.958 . S
H2532 C2517 0.961 . S
H2533 C2517 0.960 . S
C2534 C2535 1.391 . S
C2534 C2536 1.394 . S
C2534 H2550 0.931 . S
C2535 C2534 1.391 . S
C2535 C2539 1.376 . S
C2536 C2534 1.394 . S
C2536 C2537 1.369 . S
C2536 C2540 1.531 . S
C2537 C2536 1.369 . S
C2537 C2538 1.410 . S
C2537 C2545 1.503 . S
C2538 C2537 1.410 . S
C2538 C2539 1.392 . S
C2538 C2541 1.511 . S
C2539 C2535 1.376 . S
C2539 C2538 1.392 . S
C2539 H2551 0.929 . S
C2540 C2536 1.531 . S
C2540 H2552 0.960 . S
C2540 H2553 0.962 . S
C2540 H2554 0.960 . S
C2541 C2538 1.511 . S
C2541 H2555 0.961 . S
C2541 H2556 0.961 . S
C2541 H2557 0.961 . S
C2542 C2543 1.370 . S
C2542 C2544 1.363 . S
C2542 H2558 0.931 . S
C2543 C2542 1.370 . S
C2543 C2547 1.408 . S
C2544 C2542 1.363 . S
C2544 C2545 1.370 . S
C2544 C2548 1.524 . S
C2545 C2537 1.503 . S
C2545 C2544 1.370 . S
C2545 C2546 1.403 . S
C2546 C2545 1.403 . S
C2546 C2547 1.404 . S
C2546 C2549 1.539 . S
C2547 C2543 1.408 . S
C2547 C2546 1.404 . S
C2547 H2559 0.930 . S
C2548 C2544 1.524 . S
C2548 H2560 0.956 . S
C2548 H2561 0.961 . S
C2548 H2562 0.961 . S
C2549 C2546 1.539 . S
C2549 H2563 0.958 . S
C2549 H2564 0.961 . S
C2549 H2565 0.960 . S
H2550 C2534 0.931 . S
H2551 C2539 0.929 . S
H2552 C2540 0.960 . S
H2553 C2540 0.962 . S
H2554 C2540 0.960 . S
H2555 C2541 0.961 . S
H2556 C2541 0.961 . S
H2557 C2541 0.961 . S
H2558 C2542 0.931 . S
H2559 C2547 0.930 . S
H2560 C2548 0.956 . S
H2561 C2548 0.961 . S
H2562 C2548 0.961 . S
H2563 C2549 0.958 . S
H2564 C2549 0.961 . S
H2565 C2549 0.960 . S
C2566 C2567 1.391 . S
C2566 C2568 1.394 . S
C2566 H2582 0.931 . S
C2567 C2566 1.391 . S
C2567 C2571 1.376 . S
C2568 C2566 1.394 . S
C2568 C2569 1.369 . S
C2568 C2572 1.531 . S
C2569 C2568 1.369 . S
C2569 C2570 1.410 . S
C2569 C2577 1.503 . S
C2570 C2569 1.410 . S
C2570 C2571 1.392 . S
C2570 C2573 1.511 . S
C2571 C2567 1.376 . S
C2571 C2570 1.392 . S
C2571 H2583 0.929 . S
C2572 C2568 1.531 . S
C2572 H2584 0.960 . S
C2572 H2585 0.962 . S
C2572 H2586 0.960 . S
C2573 C2570 1.511 . S
C2573 H2587 0.961 . S
C2573 H2588 0.961 . S
C2573 H2589 0.961 . S
C2574 C2575 1.370 . S
C2574 C2576 1.363 . S
C2574 H2590 0.931 . S
C2575 C2574 1.370 . S
C2575 C2579 1.408 . S
C2576 C2574 1.363 . S
C2576 C2577 1.370 . S
C2576 C2580 1.524 . S
C2577 C2569 1.503 . S
C2577 C2576 1.370 . S
C2577 C2578 1.403 . S
C2578 C2577 1.403 . S
C2578 C2579 1.404 . S
C2578 C2581 1.539 . S
C2579 C2575 1.408 . S
C2579 C2578 1.404 . S
C2579 H2591 0.930 . S
C2580 C2576 1.524 . S
C2580 H2592 0.956 . S
C2580 H2593 0.961 . S
C2580 H2594 0.961 . S
C2581 C2578 1.539 . S
C2581 H2595 0.958 . S
C2581 H2596 0.961 . S
C2581 H2597 0.960 . S
H2582 C2566 0.931 . S
H2583 C2571 0.929 . S
H2584 C2572 0.960 . S
H2585 C2572 0.962 . S
H2586 C2572 0.960 . S
H2587 C2573 0.961 . S
H2588 C2573 0.961 . S
H2589 C2573 0.961 . S
H2590 C2574 0.931 . S
H2591 C2579 0.930 . S
H2592 C2580 0.956 . S
H2593 C2580 0.961 . S
H2594 C2580 0.961 . S
H2595 C2581 0.958 . S
H2596 C2581 0.961 . S
H2597 C2581 0.960 . S
C2598 C2599 1.391 . S
C2598 C2600 1.394 . S
C2598 H2614 0.931 . S
C2599 C2598 1.391 . S
C2599 C2603 1.376 . S
C2600 C2598 1.394 . S
C2600 C2601 1.369 . S
C2600 C2604 1.531 . S
C2601 C2600 1.369 . S
C2601 C2602 1.410 . S
C2601 C2609 1.503 . S
C2602 C2601 1.410 . S
C2602 C2603 1.392 . S
C2602 C2605 1.511 . S
C2603 C2599 1.376 . S
C2603 C2602 1.392 . S
C2603 H2615 0.929 . S
C2604 C2600 1.531 . S
C2604 H2616 0.960 . S
C2604 H2617 0.962 . S
C2604 H2618 0.960 . S
C2605 C2602 1.511 . S
C2605 H2619 0.961 . S
C2605 H2620 0.961 . S
C2605 H2621 0.961 . S
C2606 C2607 1.370 . S
C2606 C2608 1.363 . S
C2606 H2622 0.931 . S
C2607 C2606 1.370 . S
C2607 C2611 1.408 . S
C2608 C2606 1.363 . S
C2608 C2609 1.370 . S
C2608 C2612 1.524 . S
C2609 C2601 1.503 . S
C2609 C2608 1.370 . S
C2609 C2610 1.403 . S
C2610 C2609 1.403 . S
C2610 C2611 1.404 . S
C2610 C2613 1.539 . S
C2611 C2607 1.408 . S
C2611 C2610 1.404 . S
C2611 H2623 0.930 . S
C2612 C2608 1.524 . S
C2612 H2624 0.956 . S
C2612 H2625 0.961 . S
C2612 H2626 0.961 . S
C2613 C2610 1.539 . S
C2613 H2627 0.958 . S
C2613 H2628 0.961 . S
C2613 H2629 0.960 . S
H2614 C2598 0.931 . S
H2615 C2603 0.929 . S
H2616 C2604 0.960 . S
H2617 C2604 0.962 . S
H2618 C2604 0.960 . S
H2619 C2605 0.961 . S
H2620 C2605 0.961 . S
H2621 C2605 0.961 . S
H2622 C2606 0.931 . S
H2623 C2611 0.930 . S
H2624 C2612 0.956 . S
H2625 C2612 0.961 . S
H2626 C2612 0.961 . S
H2627 C2613 0.958 . S
H2628 C2613 0.961 . S
H2629 C2613 0.960 . S
C2630 C2631 1.391 . S
C2630 C2632 1.394 . S
C2630 H2646 0.931 . S
C2631 C2630 1.391 . S
C2631 C2635 1.376 . S
C2632 C2630 1.394 . S
C2632 C2633 1.369 . S
C2632 C2636 1.531 . S
C2633 C2632 1.369 . S
C2633 C2634 1.410 . S
C2633 C2641 1.503 . S
C2634 C2633 1.410 . S
C2634 C2635 1.392 . S
C2634 C2637 1.511 . S
C2635 C2631 1.376 . S
C2635 C2634 1.392 . S
C2635 H2647 0.929 . S
C2636 C2632 1.531 . S
C2636 H2648 0.960 . S
C2636 H2649 0.962 . S
C2636 H2650 0.960 . S
C2637 C2634 1.511 . S
C2637 H2651 0.961 . S
C2637 H2652 0.961 . S
C2637 H2653 0.961 . S
C2638 C2639 1.370 . S
C2638 C2640 1.363 . S
C2638 H2654 0.931 . S
C2639 C2638 1.370 . S
C2639 C2643 1.408 . S
C2640 C2638 1.363 . S
C2640 C2641 1.370 . S
C2640 C2644 1.524 . S
C2641 C2633 1.503 . S
C2641 C2640 1.370 . S
C2641 C2642 1.403 . S
C2642 C2641 1.403 . S
C2642 C2643 1.404 . S
C2642 C2645 1.539 . S
C2643 C2639 1.408 . S
C2643 C2642 1.404 . S
C2643 H2655 0.930 . S
C2644 C2640 1.524 . S
C2644 H2656 0.956 . S
C2644 H2657 0.961 . S
C2644 H2658 0.961 . S
C2645 C2642 1.539 . S
C2645 H2659 0.958 . S
C2645 H2660 0.961 . S
C2645 H2661 0.960 . S
H2646 C2630 0.931 . S
H2647 C2635 0.929 . S
H2648 C2636 0.960 . S
H2649 C2636 0.962 . S
H2650 C2636 0.960 . S
H2651 C2637 0.961 . S
H2652 C2637 0.961 . S
H2653 C2637 0.961 . S
H2654 C2638 0.931 . S
H2655 C2643 0.930 . S
H2656 C2644 0.956 . S
H2657 C2644 0.961 . S
H2658 C2644 0.961 . S
H2659 C2645 0.958 . S
H2660 C2645 0.961 . S
H2661 C2645 0.960 . S
C2662 C2663 1.391 . S
C2662 C2664 1.394 . S
C2662 H2678 0.931 . S
C2663 C2662 1.391 . S
C2663 C2667 1.376 . S
C2664 C2662 1.394 . S
C2664 C2665 1.369 . S
C2664 C2668 1.531 . S
C2665 C2664 1.369 . S
C2665 C2666 1.410 . S
C2665 C2673 1.503 . S
C2666 C2665 1.410 . S
C2666 C2667 1.392 . S
C2666 C2669 1.511 . S
C2667 C2663 1.376 . S
C2667 C2666 1.392 . S
C2667 H2679 0.929 . S
C2668 C2664 1.531 . S
C2668 H2680 0.960 . S
C2668 H2681 0.962 . S
C2668 H2682 0.960 . S
C2669 C2666 1.511 . S
C2669 H2683 0.961 . S
C2669 H2684 0.961 . S
C2669 H2685 0.961 . S
C2670 C2671 1.370 . S
C2670 C2672 1.363 . S
C2670 H2686 0.931 . S
C2671 C2670 1.370 . S
C2671 C2675 1.408 . S
C2672 C2670 1.363 . S
C2672 C2673 1.370 . S
C2672 C2676 1.524 . S
C2673 C2665 1.503 . S
C2673 C2672 1.370 . S
C2673 C2674 1.403 . S
C2674 C2673 1.403 . S
C2674 C2675 1.404 . S
C2674 C2677 1.539 . S
C2675 C2671 1.408 . S
C2675 C2674 1.404 . S
C2675 H2687 0.930 . S
C2676 C2672 1.524 . S
C2676 H2688 0.956 . S
C2676 H2689 0.961 . S
C2676 H2690 0.961 . S
C2677 C2674 1.539 . S
C2677 H2691 0.958 . S
C2677 H2692 0.961 . S
C2677 H2693 0.960 . S
H2678 C2662 0.931 . S
H2679 C2667 0.929 . S
H2680 C2668 0.960 . S
H2681 C2668 0.962 . S
H2682 C2668 0.960 . S
H2683 C2669 0.961 . S
H2684 C2669 0.961 . S
H2685 C2669 0.961 . S
H2686 C2670 0.931 . S
H2687 C2675 0.930 . S
H2688 C2676 0.956 . S
H2689 C2676 0.961 . S
H2690 C2676 0.961 . S
H2691 C2677 0.958 . S
H2692 C2677 0.961 . S
H2693 C2677 0.960 . S
C2694 C2695 1.391 . S
C2694 C2696 1.394 . S
C2694 H2710 0.931 . S
C2695 C2694 1.391 . S
C2695 C2699 1.376 . S
C2696 C2694 1.394 . S
C2696 C2697 1.369 . S
C2696 C2700 1.531 . S
C2697 C2696 1.369 . S
C2697 C2698 1.410 . S
C2697 C2705 1.503 . S
C2698 C2697 1.410 . S
C2698 C2699 1.392 . S
C2698 C2701 1.511 . S
C2699 C2695 1.376 . S
C2699 C2698 1.392 . S
C2699 H2711 0.929 . S
C2700 C2696 1.531 . S
C2700 H2712 0.960 . S
C2700 H2713 0.962 . S
C2700 H2714 0.960 . S
C2701 C2698 1.511 . S
C2701 H2715 0.961 . S
C2701 H2716 0.961 . S
C2701 H2717 0.961 . S
C2702 C2703 1.370 . S
C2702 C2704 1.363 . S
C2702 H2718 0.931 . S
C2703 C2702 1.370 . S
C2703 C2707 1.408 . S
C2704 C2702 1.363 . S
C2704 C2705 1.370 . S
C2704 C2708 1.524 . S
C2705 C2697 1.503 . S
C2705 C2704 1.370 . S
C2705 C2706 1.403 . S
C2706 C2705 1.403 . S
C2706 C2707 1.404 . S
C2706 C2709 1.539 . S
C2707 C2703 1.408 . S
C2707 C2706 1.404 . S
C2707 H2719 0.930 . S
C2708 C2704 1.524 . S
C2708 H2720 0.956 . S
C2708 H2721 0.961 . S
C2708 H2722 0.961 . S
C2709 C2706 1.539 . S
C2709 H2723 0.958 . S
C2709 H2724 0.961 . S
C2709 H2725 0.960 . S
H2710 C2694 0.931 . S
H2711 C2699 0.929 . S
H2712 C2700 0.960 . S
H2713 C2700 0.962 . S
H2714 C2700 0.960 . S
H2715 C2701 0.961 . S
H2716 C2701 0.961 . S
H2717 C2701 0.961 . S
H2718 C2702 0.931 . S
H2719 C2707 0.930 . S
H2720 C2708 0.956 . S
H2721 C2708 0.961 . S
H2722 C2708 0.961 . S
H2723 C2709 0.958 . S
H2724 C2709 0.961 . S
H2725 C2709 0.960 . S
C2726 C2727 1.391 . S
C2726 C2728 1.394 . S
C2726 H2742 0.931 . S
C2727 C2726 1.391 . S
C2727 C2731 1.376 . S
C2728 C2726 1.394 . S
C2728 C2729 1.369 . S
C2728 C2732 1.531 . S
C2729 C2728 1.369 . S
C2729 C2730 1.410 . S
C2729 C2737 1.503 . S
C2730 C2729 1.410 . S
C2730 C2731 1.392 . S
C2730 C2733 1.511 . S
C2731 C2727 1.376 . S
C2731 C2730 1.392 . S
C2731 H2743 0.929 . S
C2732 C2728 1.531 . S
C2732 H2744 0.960 . S
C2732 H2745 0.962 . S
C2732 H2746 0.960 . S
C2733 C2730 1.511 . S
C2733 H2747 0.961 . S
C2733 H2748 0.961 . S
C2733 H2749 0.961 . S
C2734 C2735 1.370 . S
C2734 C2736 1.363 . S
C2734 H2750 0.931 . S
C2735 C2734 1.370 . S
C2735 C2739 1.408 . S
C2736 C2734 1.363 . S
C2736 C2737 1.370 . S
C2736 C2740 1.524 . S
C2737 C2729 1.503 . S
C2737 C2736 1.370 . S
C2737 C2738 1.403 . S
C2738 C2737 1.403 . S
C2738 C2739 1.404 . S
C2738 C2741 1.539 . S
C2739 C2735 1.408 . S
C2739 C2738 1.404 . S
C2739 H2751 0.930 . S
C2740 C2736 1.524 . S
C2740 H2752 0.956 . S
C2740 H2753 0.961 . S
C2740 H2754 0.961 . S
C2741 C2738 1.539 . S
C2741 H2755 0.958 . S
C2741 H2756 0.961 . S
C2741 H2757 0.960 . S
H2742 C2726 0.931 . S
H2743 C2731 0.929 . S
H2744 C2732 0.960 . S
H2745 C2732 0.962 . S
H2746 C2732 0.960 . S
H2747 C2733 0.961 . S
H2748 C2733 0.961 . S
H2749 C2733 0.961 . S
H2750 C2734 0.931 . S
H2751 C2739 0.930 . S
H2752 C2740 0.956 . S
H2753 C2740 0.961 . S
H2754 C2740 0.961 . S
H2755 C2741 0.958 . S
H2756 C2741 0.961 . S
H2757 C2741 0.960 . S
C2758 C2759 1.391 . S
C2758 C2760 1.394 . S
C2758 H2774 0.931 . S
C2759 C2758 1.391 . S
C2759 C2763 1.376 . S
C2760 C2758 1.394 . S
C2760 C2761 1.369 . S
C2760 C2764 1.531 . S
C2761 C2760 1.369 . S
C2761 C2762 1.410 . S
C2761 C2769 1.503 . S
C2762 C2761 1.410 . S
C2762 C2763 1.392 . S
C2762 C2765 1.511 . S
C2763 C2759 1.376 . S
C2763 C2762 1.392 . S
C2763 H2775 0.929 . S
C2764 C2760 1.531 . S
C2764 H2776 0.960 . S
C2764 H2777 0.962 . S
C2764 H2778 0.960 . S
C2765 C2762 1.511 . S
C2765 H2779 0.961 . S
C2765 H2780 0.961 . S
C2765 H2781 0.961 . S
C2766 C2767 1.370 . S
C2766 C2768 1.363 . S
C2766 H2782 0.931 . S
C2767 C2766 1.370 . S
C2767 C2771 1.408 . S
C2768 C2766 1.363 . S
C2768 C2769 1.370 . S
C2768 C2772 1.524 . S
C2769 C2761 1.503 . S
C2769 C2768 1.370 . S
C2769 C2770 1.403 . S
C2770 C2769 1.403 . S
C2770 C2771 1.404 . S
C2770 C2773 1.539 . S
C2771 C2767 1.408 . S
C2771 C2770 1.404 . S
C2771 H2783 0.930 . S
C2772 C2768 1.524 . S
C2772 H2784 0.956 . S
C2772 H2785 0.961 . S
C2772 H2786 0.961 . S
C2773 C2770 1.539 . S
C2773 H2787 0.958 . S
C2773 H2788 0.961 . S
C2773 H2789 0.960 . S
H2774 C2758 0.931 . S
H2775 C2763 0.929 . S
H2776 C2764 0.960 . S
H2777 C2764 0.962 . S
H2778 C2764 0.960 . S
H2779 C2765 0.961 . S
H2780 C2765 0.961 . S
H2781 C2765 0.961 . S
H2782 C2766 0.931 . S
H2783 C2771 0.930 . S
H2784 C2772 0.956 . S
H2785 C2772 0.961 . S
H2786 C2772 0.961 . S
H2787 C2773 0.958 . S
H2788 C2773 0.961 . S
H2789 C2773 0.960 . S
C487 C29 1.351 . S
C495 C238 1.176 . S
C519 C4 1.313 . S
C527 C254 1.151 . S
C559 C237 1.158 . S
C551 C16 1.354 . S
C591 C262 1.130 . S
C583 C30 1.326 . S
C615 C3 1.341 . S
C623 C271 1.165 . S
C655 C274 1.145 . S
C647 C17 1.325 . S
C679 C70 1.328 . S
C687 C280 1.141 . S
C719 C296 1.106 . S
C711 C49 1.316 . S
C751 C279 1.200 . S
C743 C57 1.356 . S
C775 C75 1.331 . S
C783 C304 1.116 . S
C815 C313 1.159 . S
C807 C44 1.339 . S
C847 C316 1.155 . S
C839 C62 1.323 . S
C879 C325 1.122 . S
C871 C107 1.336 . S
C911 C337 1.153 . S
C903 C88 1.314 . S
C943 C334 1.200 . S
C935 C96 1.359 . S
C967 C108 1.333 . S
C975 C343 1.162 . S
C1007 C342 1.144 . S
C999 C83 1.340 . S
C1031 C101 1.309 . S
C1039 C359 1.104 . S
C1071 C364 1.155 . S
C1063 C146 1.331 . S
C1103 C380 1.162 . S
C1095 C121 1.317 . S
C1127 C135 1.359 . S
C1135 C363 1.162 . S
C1167 C388 1.163 . S
C1159 C147 1.344 . S
C1199 C397 1.147 . S
C1191 C120 1.341 . S
C1223 C140 1.325 . S
C1231 C400 1.144 . S
C1255 C187 1.329 . S
C1263 C409 1.140 . S
C1295 C421 1.163 . S
C1287 C160 1.322 . S
C1327 C418 1.196 . S
C1319 C172 1.355 . S
C1351 C192 1.336 . S
C1359 C427 1.168 . S
C1391 C426 1.186 . S
C1383 C159 1.362 . S
C1415 C173 1.323 . S
C1423 C443 1.161 . S
C1455 C448 1.145 . S
C1447 C226 1.328 . S
C1487 C464 1.138 . S
C1479 C205 1.308 . S
C1511 C213 1.363 . S
C1519 C447 1.194 . S
C1551 C469 1.172 . S
C1543 C231 1.339 . S
C1583 C468 1.173 . S
C1575 C200 1.362 . S
C1615 C485 1.135 . S
C1607 C218 1.324 . S
C1647 C250 1.501 . S
C1639 C148 1.619 . S
C1671 C127 1.586 . S
C1679 C253 1.496 1_655 S
C1711 C241 1.478 . S
C1703 C133 1.577 . S
C1735 C225 1.596 . S
C1743 C258 1.505 . S
C1767 C198 1.587 . S
C1775 C259 1.460 . S
C1807 C275 1.492 1_565 S
C1799 C212 1.584 . S
C1839 C292 1.487 1_565 S
C1831 C185 1.614 . S
C1871 C295 1.465 . S
C1863 C166 1.591 . S
C1895 C174 1.592 . S
C1903 C283 1.447 . S
C1935 C300 1.484 1_655 S
C1927 C114 1.608 . S
C1959 C81 1.583 . S
C1967 C301 1.466 . S
C1991 C95 1.578 . S
C1999 C317 1.477 . S
C2023 C224 1.606 1_655 S
C2031 C321 1.514 . S
C2055 C199 1.586 . S
C2063 C338 1.496 . S
C2095 C322 1.447 . S
C2087 C211 1.590 . S
C2127 C355 1.513 . S
C2119 C69 1.607 . S
C2159 C346 1.469 . S
C2151 C42 1.572 . S
C2183 C56 1.596 . S
C2191 C358 1.473 . S
C2223 C376 1.483 . S
C2215 C31 1.619 . S
C2255 C379 1.479 . S
C2247 C10 1.596 . S
C2279 C18 1.589 . S
C2287 C367 1.467 . S
C2319 C384 1.489 . S
C2311 C186 1.605 . S
C2351 C385 1.477 . S
C2343 C161 1.575 1_655 S
C2383 C401 1.492 . S
C2375 C179 1.576 . S
C2415 C405 1.508 . S
C2407 C68 1.605 . S
C2447 C422 1.496 . S
C2439 C43 1.588 . S
C2471 C55 1.589 . S
C2479 C406 1.471 . S
C2503 C153 1.602 1_565 S
C2511 C439 1.515 . S
C2535 C122 1.583 . S
C2543 C430 1.472 . S
C2575 C442 1.483 . S
C2567 C134 1.592 . S
C2599 C109 1.605 . S
C2607 C460 1.516 . S
C2631 C82 1.595 . S
C2639 C463 1.482 . S
C2671 C451 1.475 . S
C2663 C94 1.585 1_565 S
C2703 C481 1.515 . S
C2695 C36 1.598 . S
C2735 C472 1.464 . S
C2727 C5 1.573 . S
C2759 C23 1.592 . S
C2767 C484 1.478 . S
