# Generated by pormake.
# Topology pyr, (3,6)-cn, num edge types: 1
# Building blocks:
#     Node 0, Type 0, BuildingBlock: OLANEW_clean_sbu_2, # of connection points: 3
#     Node 1, Type 0, BuildingBlock: OLANEW_clean_sbu_2, # of connection points: 3
#     Node 2, Type 0, BuildingBlock: OLANEW_clean_sbu_2, # of connection points: 3
#     Node 3, Type 0, BuildingBlock: OLANEW_clean_sbu_2, # of connection points: 3
#     Node 4, Type 0, BuildingBlock: OLANEW_clean_sbu_2, # of connection points: 3
#     Node 5, Type 0, BuildingBlock: OLANEW_clean_sbu_2, # of connection points: 3
#     Node 6, Type 0, BuildingBlock: OLANEW_clean_sbu_2, # of connection points: 3
#     Node 7, Type 0, BuildingBlock: OLANEW_clean_sbu_2, # of connection points: 3
#     Node 8, Type 1, BuildingBlock: BETDIP_clean_sbu_0, # of connection points: 6
#     Node 9, Type 1, BuildingBlock: BETDIP_clean_sbu_0, # of connection points: 6
#     Node 10, Type 1, BuildingBlock: BETDIP_clean_sbu_0, # of connection points: 6
#     Node 11, Type 1, BuildingBlock: BETDIP_clean_sbu_0, # of connection points: 6
#     Edge 12, Type (0, 1), None
#     Edge 13, Type (0, 1), None
#     Edge 14, Type (0, 1), None
#     Edge 15, Type (0, 1), None
#     Edge 16, Type (0, 1), None
#     Edge 17, Type (0, 1), None
#     Edge 18, Type (0, 1), None
#     Edge 19, Type (0, 1), None
#     Edge 20, Type (0, 1), None
#     Edge 21, Type (0, 1), None
#     Edge 22, Type (0, 1), None
#     Edge 23, Type (0, 1), None
#     Edge 24, Type (0, 1), None
#     Edge 25, Type (0, 1), None
#     Edge 26, Type (0, 1), None
#     Edge 27, Type (0, 1), None
#     Edge 28, Type (0, 1), None
#     Edge 29, Type (0, 1), None
#     Edge 30, Type (0, 1), None
#     Edge 31, Type (0, 1), None
#     Edge 32, Type (0, 1), None
#     Edge 33, Type (0, 1), None
#     Edge 34, Type (0, 1), None
#     Edge 35, Type (0, 1), None
# Relax obj value: 0.375
# Max RMSD: 0.268
# Mean RMSD: 0.155
data_MOF--net-pyr--node1-OLANEW_clean_sbu_2--node2-BETDIP_clean_sbu_0--edge1-none
_symmetry_space_group_name_H-M    P1
_symmetry_Int_Tables_number       1
_symmetry_cell_setting            triclinic
loop_
_symmetry_equiv_pos_as_xyz
'x, y, z'
_cell_length_a     18.844881
_cell_length_b     21.540481
_cell_length_c     20.070494
_cell_angle_alpha  94.827659
_cell_angle_beta   92.634746
_cell_angle_gamma 111.00959
loop_
_atom_site_label
_atom_site_type_symbol
_atom_site_fract_x
_atom_site_fract_y
_atom_site_fract_z
_atom_type_partial_charge
O0 O 0.44691 0.28077 0.28817 0.0
Cd1 Cd 0.38941 0.36432 0.32056 0.0
O2 O 0.34177 0.1977 0.30322 0.0
Cd3 Cd 0.29092 0.09197 0.31535 0.0
O4 O 0.30991 1.0459 0.40197 0.0
C5 C 0.37172 0.07689 0.43833 0.0
O6 O 0.42537 0.12576 0.41456 0.0
C7 C 0.4115 0.21874 0.29138 0.0
C8 C 0.26809 0.38334 0.24979 0.0
O9 O 0.33747 0.41866 0.24139 0.0
O10 O 0.25623 0.33611 0.28767 0.0
O11 O 0.0984 0.77072 0.89047 0.0
Cd12 Cd 0.03157 0.74624 0.78003 0.0
O13 O 0.05715 0.85345 0.90819 0.0
Cd14 Cd 0.97436 0.82547 0.82354 0.0
O15 O 0.99665 0.90128 0.75712 0.0
C16 C 0.95784 0.93834 0.75365 0.0
O17 O 0.896 0.92661 0.7858 0.0
C18 C 0.10004 0.82297 0.92575 0.0
C19 C 0.15759 0.78581 0.70728 0.0
O20 O 0.12035 0.72378 0.7123 0.0
O21 O 0.13051 0.82895 0.73115 0.0
O22 O 0.774 0.56147 0.97322 0.0
Cd23 Cd 0.65427 0.55269 0.89873 0.0
O24 O 0.71446 0.47432 1.02599 0.0
Cd25 Cd 0.67538 0.3855 0.08396 0.0
O26 O 0.59287 0.2885 0.11092 0.0
C27 C 0.61297 0.24526 0.13783 0.0
O28 O 0.68576 0.25744 0.15176 0.0
C29 C 0.77578 0.52329 1.0187 0.0
C30 C 0.61446 0.63636 0.81039 0.0
O31 O 0.62184 0.6498 0.87435 0.0
O32 O 0.63093 0.58651 0.78656 0.0
O33 O 1.00467 0.90363 0.44354 0.0
Cd34 Cd 0.9237 0.79403 0.36782 0.0
O35 O 0.91136 0.91283 0.50216 0.0
Cd36 Cd 0.83056 0.81167 0.47565 0.0
O37 O 0.74066 0.74367 0.52785 0.0
C38 C 0.71952 0.7718 0.57725 0.0
O39 O 0.75231 0.83678 0.59235 0.0
C40 C 0.97988 0.93664 0.4872 0.0
C41 C 0.94477 0.71303 0.25285 0.0
O42 O 0.92694 0.76442 0.24576 0.0
O43 O 0.95842 0.70216 0.31314 0.0
O44 O 0.59538 0.88304 0.82979 0.0
Cd45 Cd 0.561 0.84259 0.93756 0.0
O46 O 0.66826 0.96549 0.89976 0.0
Cd47 Cd 0.73728 1.0447 0.97642 0.0
O48 O 0.70984 0.06828 0.07842 0.0
C49 C 0.654 1.02267 0.09944 0.0
O50 O 0.62104 0.96589 1.06123 0.0
C51 C 0.64836 0.94007 0.83922 0.0
C52 C 0.68445 0.81122 0.97987 0.0
O53 O 0.62151 0.76508 0.95646 0.0
O54 O 0.68754 0.87172 0.98727 0.0
O55 O 0.0271 0.32916 0.35475 0.0
Cd56 Cd 0.1422 0.31235 0.38831 0.0
O57 O 0.0336 0.41166 0.43074 0.0
Cd58 Cd 0.96596 0.46219 0.48187 0.0
O59 O 0.86762 0.48135 0.51889 0.0
C60 C 0.80318 0.45789 0.48494 0.0
O61 O 0.79686 0.42422 0.42592 0.0
C62 C 0.9962 0.36585 0.38466 0.0
C63 C 0.09261 0.21885 0.47943 0.0
O64 O 0.07597 0.20105 0.41657 0.0
O65 O 0.13527 0.27949 0.49911 0.0
O66 O 0.46041 0.90129 0.36039 0.0
Cd67 Cd 0.39484 0.78704 0.40203 0.0
O68 O 0.37964 0.90518 0.27727 0.0
Cd69 Cd 0.29386 0.80227 0.26058 0.0
O70 O 0.19439 0.72378 0.20276 0.0
C71 C 0.19568 0.71102 0.13978 0.0
O72 O 0.25784 0.74225 0.11089 0.0
C73 C 0.44063 0.93291 0.31585 0.0
C74 C 0.45035 0.71782 0.49599 0.0
O75 O 0.4652 0.71682 0.43429 0.0
O76 O 0.41395 0.75512 0.51586 0.0
O77 O 0.10915 0.5445 0.87405 0.0
Cd78 Cd 0.15103 0.49516 0.77263 0.0
O79 O 0.05939 0.45018 0.92058 0.0
Cd80 Cd 0.07638 0.3757 0.84293 0.0
O81 O 0.0542 0.29014 0.76199 0.0
C82 C 0.07382 0.23891 0.75632 0.0
O83 O 0.11682 0.22905 0.8045 0.0
C84 C 0.07492 0.51323 0.92149 0.0
C85 C 0.29561 0.55919 0.72349 0.0
O86 O 0.2437 0.5846 0.7218 0.0
O87 O 0.28139 0.5047 0.75057 0.0
Tb88 Tb 0.9469 0.08736 0.6149 0.0
Tb89 Tb 0.10875 0.08788 0.63326 0.0
C90 C 0.80568 1.05429 0.61291 0.0
C91 C 0.75839 1.0297 0.66908 0.0
C92 C 0.7044 0.96442 0.6619 0.0
C93 C 0.66904 0.93619 0.71741 0.0
C94 C 0.68514 0.97283 0.78122 0.0
C95 C 0.73759 1.03891 0.78837 0.0
C96 C 0.77414 0.06702 0.73288 0.0
C97 C 0.04111 0.18792 0.69793 0.0
C98 C 0.98303 0.99322 0.71275 0.0
C99 C 0.2466 0.11401 0.66781 0.0
C100 C 0.30228 0.09664 0.62894 0.0
C101 C 0.36611 0.1482 0.61072 0.0
C102 C 0.3994 0.13829 0.55206 0.0
C103 C 0.3678 0.07708 0.51112 0.0
C104 C 0.31352 1.02243 0.53593 0.0
C105 C 0.281 1.03207 0.59481 0.0
C106 C 0.03132 0.99831 0.5287 0.0
C107 C 0.06707 0.17061 0.52795 0.0
O108 O 0.83816 1.01438 0.5868 0.0
O109 O 0.85247 0.11673 0.62168 0.0
O110 O 0.03951 0.1282 0.69333 0.0
O111 O 0.9881 0.19132 0.65689 0.0
O112 O 0.93263 1.01588 0.6877 0.0
O113 O 0.05557 1.01657 0.70151 0.0
O114 O 0.22137 0.15677 0.64179 0.0
O115 O 0.19131 0.06364 0.68716 0.0
O116 O 0.01154 1.03786 0.56633 0.0
O117 O 0.10197 1.01105 0.54816 0.0
O118 O 0.11814 0.17076 0.57526 0.0
O119 O 0.99436 0.13081 0.52554 0.0
H120 H 0.69192 0.93417 0.61386 0.0
H121 H 0.63103 0.88457 0.71079 0.0
H122 H 0.75158 0.06833 0.83692 0.0
H123 H 0.81653 0.11723 0.7406 0.0
H124 H 0.3839 0.19816 0.6368 0.0
H125 H 0.44206 0.18118 0.5344 0.0
H126 H 0.28919 0.97453 0.5056 0.0
H127 H 0.23282 0.99082 0.60841 0.0
Tb128 Tb 0.58737 0.12097 0.27996 0.0
Tb129 Tb 0.45947 0.06268 0.17988 0.0
C130 C 0.69174 0.19286 0.36571 0.0
C131 C 0.762 0.25106 0.36895 0.0
C132 C 0.79717 0.27252 0.31061 0.0
C133 C 0.8725 0.31748 0.31556 0.0
C134 C 0.91278 0.3411 0.37874 0.0
C135 C 0.87492 0.32353 0.43691 0.0
C136 C 0.79975 0.27891 0.43194 0.0
C137 C 0.49229 1.00122 0.30484 0.0
C138 C 0.44957 0.1707 0.27864 0.0
C139 C 0.3455 0.98189 0.11225 0.0
C140 C 0.27873 0.93447 0.07256 0.0
C141 C 0.28473 0.8801 1.03307 0.0
C142 C 0.22394 0.83981 0.98808 0.0
C143 C 0.15663 0.85355 0.98293 0.0
C144 C 0.14894 0.90487 1.02665 0.0
C145 C 0.20994 0.94546 1.07094 0.0
C146 C 0.55582 0.18172 0.15354 0.0
C147 C 0.61258 1.03976 0.15353 0.0
O148 O 0.69271 0.13904 0.33118 0.0
O149 O 0.62817 0.20283 0.35421 0.0
O150 O 0.4741 1.047 0.28244 0.0
O151 O 0.56468 1.02392 0.31893 0.0
O152 O 0.52437 0.18964 0.28813 0.0
O153 O 0.40881 0.11019 0.25124 0.0
O154 O 0.39315 0.96269 0.14654 0.0
O155 O 0.36325 1.04658 0.11403 0.0
O156 O 0.57187 0.1367 0.17858 0.0
O157 O 0.48379 0.15789 0.13415 0.0
O158 O 0.53735 1.01397 0.14487 0.0
O159 O 0.64682 0.09281 0.19782 0.0
H160 H 0.76854 0.25076 0.26157 0.0
H161 H 0.90086 0.32971 0.27019 0.0
H162 H 0.90536 0.3392 0.48618 0.0
H163 H 0.77315 0.26231 0.47727 0.0
H164 H 0.33777 0.8711 1.03434 0.0
H165 H 0.23141 0.80083 0.95466 0.0
H166 H 0.09718 0.91591 1.02415 0.0
H167 H 0.20427 0.98672 0.10217 0.0
Tb168 Tb 0.50836 0.73093 0.68887 0.0
Tb169 Tb 0.51485 0.59857 0.61792 0.0
C170 C 0.46882 0.82925 0.70083 0.0
C171 C 0.39174 0.82816 0.68569 0.0
C172 C 0.33688 0.77037 0.65081 0.0
C173 C 0.25965 0.75978 0.65135 0.0
C174 C 0.2361 0.80677 0.68701 0.0
C175 C 0.29136 0.86777 0.71604 0.0
C176 C 0.369 0.87807 0.71594 0.0
C177 C 0.58483 0.67584 0.76664 0.0
C178 C 0.37063 0.59417 0.69824 0.0
C179 C 0.53985 0.4938 0.59167 0.0
C180 C 0.60714 0.48403 0.56527 0.0
C181 C 0.68101 0.52175 0.59485 0.0
C182 C 0.74455 0.51299 0.56884 0.0
C183 C 0.73573 0.46724 0.51214 0.0
C184 C 0.66191 0.4302 0.48209 0.0
C185 C 0.59815 0.43847 0.50861 0.0
C186 C 0.47246 0.67467 0.54054 0.0
C187 C 0.65118 0.73462 0.60951 0.0
O188 O 0.5028 0.81587 0.64882 0.0
O189 O 0.47428 0.79563 0.75122 0.0
O190 O 0.55742 0.66049 0.70686 0.0
O191 O 0.57099 0.72926 0.78616 0.0
O192 O 0.39644 0.66018 0.70605 0.0
O193 O 0.40791 0.55946 0.66763 0.0
O194 O 0.55078 0.52527 0.65233 0.0
O195 O 0.49906 0.51416 0.55006 0.0
O196 O 0.45576 0.66503 0.6003 0.0
O197 O 0.50718 0.63518 0.52033 0.0
O198 O 0.62901 0.66855 0.60546 0.0
O199 O 0.61169 0.76883 0.63671 0.0
H200 H 0.35314 0.73085 0.62765 0.0
H201 H 0.21835 0.71244 0.62854 0.0
H202 H 0.27471 0.90471 0.74432 0.0
H203 H 0.41067 0.92255 0.74361 0.0
H204 H 0.68999 0.55822 0.63803 0.0
H205 H 0.80063 0.54253 0.59287 0.0
H206 H 0.65325 0.39439 0.4384 0.0
H207 H 0.54181 0.40946 0.48475 0.0
Tb208 Tb 0.98957 0.65675 1.03938 0.0
Tb209 Tb 0.98343 0.54848 0.12154 0.0
C210 C 0.94467 0.73507 0.98029 0.0
C211 C 0.8813 0.75834 0.98957 0.0
C212 C 0.81431 0.71795 1.01559 0.0
C213 C 0.75 0.7357 1.01417 0.0
C214 C 0.75363 0.79598 0.99036 0.0
C215 C 0.82279 0.83919 0.97027 0.0
C216 C 0.88601 0.82012 0.96934 0.0
C217 C 0.12426 0.67409 0.09779 0.0
C218 C 0.95221 0.6693 0.19359 0.0
C219 C 0.0163 0.46463 0.18413 0.0
C220 C 0.0808 0.44151 0.19049 0.0
C221 C 0.15608 0.48377 0.18325 0.0
C222 C 0.21711 0.46334 0.19886 0.0
C223 C 0.20381 0.40069 0.22248 0.0
C224 C 0.1281 0.35751 0.22615 0.0
C225 C 0.06734 0.3776 0.2097 0.0
C226 C 0.84897 0.53524 1.05959 0.0
C227 C 0.04851 0.54899 0.97619 0.0
O228 O 0.92516 0.67158 0.95913 0.0
O229 O 0.99963 0.75535 1.0284 0.0
O230 O 0.06065 0.65002 0.12225 0.0
O231 O 0.11325 0.69224 1.03926 0.0
O232 O 0.94415 0.68558 0.13222 0.0
O233 O 0.97171 0.6174 0.20304 0.0
O234 O 0.02988 0.52622 0.20877 0.0
O235 O 0.9755 0.44893 0.12655 0.0
O236 O 0.91396 0.55682 1.0381 0.0
O237 O 0.85658 0.51386 0.11707 0.0
O238 O 0.0458 0.52858 1.03682 0.0
O239 O 0.02483 0.59789 0.96279 0.0
H240 H 0.81127 0.67221 1.03564 0.0
H241 H 0.6974 0.70218 1.03086 0.0
H242 H 0.82684 0.88605 0.95172 0.0
H243 H 0.93756 0.85304 0.95111 0.0
H244 H 0.16786 0.53331 0.16789 0.0
H245 H 0.27475 0.49784 0.19546 0.0
H246 H 0.11575 0.30883 0.24372 0.0
H247 H 1.00975 0.34392 0.21433 0.0
loop_
_geom_bond_atom_site_label_1
_geom_bond_atom_site_label_2
_geom_bond_distance
_geom_bond_site_symmetry_2
_ccdc_geom_bond_type
O0 Cd1 2.300 . S
O0 C7 1.275 . S
Cd1 O0 2.300 . S
Cd1 O9 2.381 . S
Cd1 O10 2.378 . S
O2 Cd3 2.385 . S
O2 C7 1.255 . S
Cd3 O2 2.385 . S
Cd3 O4 2.317 . S
O4 Cd3 2.317 . S
O4 C5 1.232 . S
C5 O4 1.232 . S
C5 O6 1.218 . S
O6 C5 1.218 . S
C7 O0 1.275 . S
C7 O2 1.255 . S
C8 O9 1.258 . S
C8 O10 1.256 . S
O9 Cd1 2.381 . S
O9 C8 1.258 . S
O10 Cd1 2.378 . S
O10 C8 1.256 . S
O11 Cd12 2.305 . S
O11 C18 1.275 . S
Cd12 O11 2.305 . S
Cd12 O20 2.396 . S
Cd12 O21 2.384 . S
O13 Cd14 2.385 . S
O13 C18 1.255 1_655 S
Cd14 O13 2.385 . S
Cd14 O15 2.317 . S
O15 Cd14 2.317 . S
O15 C16 1.232 . S
C16 O15 1.232 . S
C16 O17 1.218 . S
O17 C16 1.218 . S
C18 O11 1.275 . S
C18 O13 1.255 1_455 S
C19 O20 1.258 . S
C19 O21 1.256 . S
O20 Cd12 2.396 . S
O20 C19 1.258 . S
O21 Cd12 2.384 . S
O21 C19 1.256 . S
O22 Cd23 2.300 . S
O22 C29 1.275 . S
Cd23 O22 2.300 . S
Cd23 O31 2.381 . S
Cd23 O32 2.378 . S
O24 Cd25 2.385 . S
O24 C29 1.255 . S
Cd25 O24 2.385 . S
Cd25 O26 2.317 . S
O26 Cd25 2.317 . S
O26 C27 1.232 . S
C27 O26 1.232 . S
C27 O28 1.218 . S
O28 C27 1.218 . S
C29 O22 1.275 . S
C29 O24 1.255 . S
C30 O31 1.258 . S
C30 O32 1.256 . S
O31 Cd23 2.381 . S
O31 C30 1.258 . S
O32 Cd23 2.378 . S
O32 C30 1.256 . S
O33 Cd34 2.300 . S
O33 C40 1.275 . S
Cd34 O33 2.300 . S
Cd34 O42 2.381 . S
Cd34 O43 2.378 . S
O35 Cd36 2.385 . S
O35 C40 1.255 . S
Cd36 O35 2.385 . S
Cd36 O37 2.317 . S
O37 Cd36 2.317 . S
O37 C38 1.232 . S
C38 O37 1.232 . S
C38 O39 1.218 . S
O39 C38 1.218 . S
C40 O33 1.275 . S
C40 O35 1.255 . S
C41 O42 1.258 . S
C41 O43 1.256 . S
O42 Cd34 2.381 . S
O42 C41 1.258 . S
O43 Cd34 2.378 . S
O43 C41 1.256 . S
O44 Cd45 2.300 . S
O44 C51 1.275 . S
Cd45 O44 2.300 . S
Cd45 O53 2.381 . S
Cd45 O54 2.378 . S
O46 Cd47 2.385 . S
O46 C51 1.255 . S
Cd47 O46 2.385 . S
Cd47 O48 2.317 . S
O48 Cd47 2.317 . S
O48 C49 1.232 . S
C49 O48 1.232 . S
C49 O50 1.218 . S
O50 C49 1.218 . S
C51 O44 1.275 . S
C51 O46 1.255 . S
C52 O53 1.258 . S
C52 O54 1.256 . S
O53 Cd45 2.381 . S
O53 C52 1.258 . S
O54 Cd45 2.378 . S
O54 C52 1.256 . S
O55 Cd56 2.300 1_655 S
O55 C62 1.275 . S
Cd56 O55 2.300 1_455 S
Cd56 O64 2.381 . S
Cd56 O65 2.378 . S
O57 Cd58 2.384 1_655 S
O57 C62 1.257 . S
Cd58 O57 2.384 1_455 S
Cd58 O59 2.317 . S
O59 Cd58 2.317 . S
O59 C60 1.232 1_455 S
C60 O59 1.232 1_655 S
C60 O61 1.218 . S
O61 C60 1.218 . S
C62 O55 1.275 . S
C62 O57 1.257 . S
C63 O64 1.258 . S
C63 O65 1.256 . S
O64 Cd56 2.381 . S
O64 C63 1.258 . S
O65 Cd56 2.378 . S
O65 C63 1.256 . S
O66 Cd67 2.300 . S
O66 C73 1.275 . S
Cd67 O66 2.300 . S
Cd67 O75 2.381 . S
Cd67 O76 2.378 . S
O68 Cd69 2.385 . S
O68 C73 1.255 . S
Cd69 O68 2.385 . S
Cd69 O70 2.317 . S
O70 Cd69 2.317 . S
O70 C71 1.232 . S
C71 O70 1.232 . S
C71 O72 1.218 . S
O72 C71 1.218 . S
C73 O66 1.275 . S
C73 O68 1.255 . S
C74 O75 1.258 . S
C74 O76 1.256 . S
O75 Cd67 2.381 . S
O75 C74 1.258 . S
O76 Cd67 2.378 . S
O76 C74 1.256 . S
O77 Cd78 2.300 . S
O77 C84 1.275 . S
Cd78 O77 2.300 . S
Cd78 O86 2.381 . S
Cd78 O87 2.378 . S
O79 Cd80 2.385 . S
O79 C84 1.255 . S
Cd80 O79 2.385 . S
Cd80 O81 2.317 . S
O81 Cd80 2.317 . S
O81 C82 1.232 . S
C82 O81 1.232 . S
C82 O83 1.218 . S
O83 C82 1.218 . S
C84 O77 1.275 . S
C84 O79 1.255 . S
C85 O86 1.258 . S
C85 O87 1.256 . S
O86 Cd78 2.381 . S
O86 C85 1.258 . S
O87 Cd78 2.378 . S
O87 C85 1.256 . S
Tb88 C90 2.809 1_545 S
Tb88 O108 2.484 1_545 S
Tb88 O109 2.440 1_545 S
Tb88 O110 2.658 1_655 S
Tb88 O111 2.409 . S
Tb88 O112 2.378 1_545 S
Tb88 O116 2.325 1_545 S
Tb88 O119 2.341 . S
Tb89 C99 2.809 . S
Tb89 O110 2.325 . S
Tb89 O113 2.341 1_545 S
Tb89 O114 2.484 . S
Tb89 O115 2.440 . S
Tb89 O116 2.658 1_445 S
Tb89 O117 2.409 1_545 S
Tb89 O118 2.378 . S
C90 Tb88 2.809 1_565 S
C90 C91 1.514 . S
C90 O108 1.248 . S
C90 O109 1.266 . S
C91 C90 1.514 . S
C91 C92 1.359 . S
C91 C96 1.348 . S
C92 C91 1.359 . S
C92 C93 1.380 . S
C92 H120 0.929 . S
C93 C92 1.380 . S
C93 C94 1.347 . S
C93 H121 0.931 . S
C94 C93 1.347 . S
C94 C95 1.369 . S
C95 C94 1.369 . S
C95 C96 1.408 . S
C95 H122 0.930 . S
C96 C91 1.348 . S
C96 C95 1.408 . S
C96 H123 0.930 . S
C97 O110 1.281 . S
C97 O111 1.254 1_455 S
C98 O112 1.236 1_455 S
C98 O113 1.266 . S
C99 Tb89 2.809 . S
C99 C100 1.514 . S
C99 O114 1.248 . S
C99 O115 1.266 . S
C100 C99 1.514 . S
C100 C101 1.359 . S
C100 C105 1.348 . S
C101 C100 1.359 . S
C101 C102 1.380 . S
C101 H124 0.929 . S
C102 C101 1.380 . S
C102 C103 1.347 . S
C102 H125 0.931 . S
C103 C102 1.347 . S
C103 C104 1.369 . S
C104 C103 1.369 . S
C104 C105 1.408 . S
C104 H126 0.930 . S
C105 C100 1.348 . S
C105 C104 1.408 . S
C105 H127 0.930 . S
C106 O116 1.281 . S
C106 O117 1.254 1_655 S
C107 O118 1.236 1_655 S
C107 O119 1.266 . S
O108 Tb88 2.484 1_565 S
O108 C90 1.248 . S
O109 Tb88 2.440 1_565 S
O109 C90 1.266 . S
O110 Tb88 2.658 1_455 S
O110 Tb89 2.325 . S
O110 C97 1.281 . S
O111 Tb88 2.409 . S
O111 C97 1.254 1_655 S
O112 Tb88 2.378 1_565 S
O112 C98 1.236 1_655 S
O113 Tb89 2.341 1_565 S
O113 C98 1.266 . S
O114 Tb89 2.484 . S
O114 C99 1.248 . S
O115 Tb89 2.440 . S
O115 C99 1.266 . S
O116 Tb88 2.325 1_565 S
O116 Tb89 2.658 1_665 S
O116 C106 1.281 . S
O117 Tb89 2.409 1_565 S
O117 C106 1.254 1_455 S
O118 Tb89 2.378 . S
O118 C107 1.236 1_455 S
O119 Tb88 2.341 . S
O119 C107 1.266 . S
H120 C92 0.929 . S
H121 C93 0.931 . S
H122 C95 0.930 . S
H123 C96 0.930 . S
H124 C101 0.929 . S
H125 C102 0.931 . S
H126 C104 0.930 . S
H127 C105 0.930 . S
Tb128 C130 2.809 . S
Tb128 O148 2.484 . S
Tb128 O149 2.440 . S
Tb128 O150 2.658 1_545 S
Tb128 O151 2.409 1_545 S
Tb128 O152 2.378 . S
Tb128 O156 2.325 . S
Tb128 O159 2.341 . S
Tb129 C139 2.809 1_544 S
Tb129 O150 2.325 1_545 S
Tb129 O153 2.341 . S
Tb129 O154 2.484 1_545 S
Tb129 O155 2.440 1_554 S
Tb129 O156 2.658 . S
Tb129 O157 2.409 1_554 S
Tb129 O158 2.378 1_554 S
C130 Tb128 2.809 . S
C130 C131 1.514 . S
C130 O148 1.248 . S
C130 O149 1.266 . S
C131 C130 1.514 . S
C131 C132 1.359 . S
C131 C136 1.348 . S
C132 C131 1.359 . S
C132 C133 1.380 . S
C132 H160 0.929 . S
C133 C132 1.380 . S
C133 C134 1.347 . S
C133 H161 0.931 . S
C134 C133 1.347 . S
C134 C135 1.369 . S
C135 C134 1.369 . S
C135 C136 1.408 . S
C135 H162 0.930 . S
C136 C131 1.348 . S
C136 C135 1.408 . S
C136 H163 0.930 . S
C137 O150 1.281 . S
C137 O151 1.254 . S
C138 O152 1.236 . S
C138 O153 1.266 . S
C139 Tb129 2.809 1_566 S
C139 C140 1.514 . S
C139 O154 1.248 1_556 S
C139 O155 1.266 1_565 S
C140 C139 1.514 . S
C140 C141 1.359 . S
C140 C145 1.348 . S
C141 C140 1.359 . S
C141 C142 1.380 . S
C141 H164 0.929 . S
C142 C141 1.380 . S
C142 C143 1.347 . S
C142 H165 0.931 . S
C143 C142 1.347 . S
C143 C144 1.369 . S
C144 C143 1.369 . S
C144 C145 1.408 . S
C144 H166 0.930 . S
C145 C140 1.348 . S
C145 C144 1.408 . S
C145 H167 0.930 . S
C146 O156 1.281 . S
C146 O157 1.254 1_554 S
C147 O158 1.236 1_564 S
C147 O159 1.266 1_565 S
O148 Tb128 2.484 . S
O148 C130 1.248 . S
O149 Tb128 2.440 . S
O149 C130 1.266 . S
O150 Tb128 2.658 1_565 S
O150 Tb129 2.325 1_565 S
O150 C137 1.281 . S
O151 Tb128 2.409 1_565 S
O151 C137 1.254 . S
O152 Tb128 2.378 . S
O152 C138 1.236 . S
O153 Tb129 2.341 . S
O153 C138 1.266 . S
O154 Tb129 2.484 1_565 S
O154 C139 1.248 1_554 S
O155 Tb129 2.440 1_556 S
O155 C139 1.266 1_545 S
O156 Tb128 2.325 . S
O156 Tb129 2.658 . S
O156 C146 1.281 . S
O157 Tb129 2.409 1_556 S
O157 C146 1.254 1_556 S
O158 Tb129 2.378 1_556 S
O158 C147 1.236 1_546 S
O159 Tb128 2.341 . S
O159 C147 1.266 1_545 S
H160 C132 0.929 . S
H161 C133 0.931 . S
H162 C135 0.930 . S
H163 C136 0.930 . S
H164 C141 0.929 . S
H165 C142 0.931 . S
H166 C144 0.930 . S
H167 C145 0.930 . S
Tb168 C170 2.809 . S
Tb168 O188 2.484 . S
Tb168 O189 2.440 . S
Tb168 O190 2.658 . S
Tb168 O191 2.409 . S
Tb168 O192 2.378 . S
Tb168 O196 2.325 . S
Tb168 O199 2.341 . S
Tb169 C179 2.809 . S
Tb169 O190 2.325 . S
Tb169 O193 2.341 . S
Tb169 O194 2.484 . S
Tb169 O195 2.440 . S
Tb169 O196 2.658 . S
Tb169 O197 2.409 . S
Tb169 O198 2.378 . S
C170 Tb168 2.809 . S
C170 C171 1.514 . S
C170 O188 1.248 . S
C170 O189 1.266 . S
C171 C170 1.514 . S
C171 C172 1.359 . S
C171 C176 1.348 . S
C172 C171 1.359 . S
C172 C173 1.380 . S
C172 H200 0.929 . S
C173 C172 1.380 . S
C173 C174 1.347 . S
C173 H201 0.931 . S
C174 C173 1.347 . S
C174 C175 1.369 . S
C175 C174 1.369 . S
C175 C176 1.408 . S
C175 H202 0.930 . S
C176 C171 1.348 . S
C176 C175 1.408 . S
C176 H203 0.930 . S
C177 O190 1.281 . S
C177 O191 1.254 . S
C178 O192 1.236 . S
C178 O193 1.266 . S
C179 Tb169 2.809 . S
C179 C180 1.514 . S
C179 O194 1.248 . S
C179 O195 1.266 . S
C180 C179 1.514 . S
C180 C181 1.359 . S
C180 C185 1.348 . S
C181 C180 1.359 . S
C181 C182 1.380 . S
C181 H204 0.929 . S
C182 C181 1.380 . S
C182 C183 1.347 . S
C182 H205 0.931 . S
C183 C182 1.347 . S
C183 C184 1.369 . S
C184 C183 1.369 . S
C184 C185 1.408 . S
C184 H206 0.930 . S
C185 C180 1.348 . S
C185 C184 1.408 . S
C185 H207 0.930 . S
C186 O196 1.281 . S
C186 O197 1.254 . S
C187 O198 1.236 . S
C187 O199 1.266 . S
O188 Tb168 2.484 . S
O188 C170 1.248 . S
O189 Tb168 2.440 . S
O189 C170 1.266 . S
O190 Tb168 2.658 . S
O190 Tb169 2.325 . S
O190 C177 1.281 . S
O191 Tb168 2.409 . S
O191 C177 1.254 . S
O192 Tb168 2.378 . S
O192 C178 1.236 . S
O193 Tb169 2.341 . S
O193 C178 1.266 . S
O194 Tb169 2.484 . S
O194 C179 1.248 . S
O195 Tb169 2.440 . S
O195 C179 1.266 . S
O196 Tb168 2.325 . S
O196 Tb169 2.658 . S
O196 C186 1.281 . S
O197 Tb169 2.409 . S
O197 C186 1.254 . S
O198 Tb169 2.378 . S
O198 C187 1.236 . S
O199 Tb168 2.341 . S
O199 C187 1.266 . S
H200 C172 0.929 . S
H201 C173 0.931 . S
H202 C175 0.930 . S
H203 C176 0.930 . S
H204 C181 0.929 . S
H205 C182 0.931 . S
H206 C184 0.930 . S
H207 C185 0.930 . S
Tb208 C210 2.809 1_455 S
Tb208 O228 2.484 1_455 S
Tb208 O229 2.440 . S
Tb208 O230 2.658 1_556 S
Tb208 O231 2.409 1_556 S
Tb208 O232 2.378 1_456 S
Tb208 O236 2.325 1_456 S
Tb208 O239 2.341 . S
Tb209 C219 2.809 . S
Tb209 O230 2.325 . S
Tb209 O233 2.341 1_455 S
Tb209 O234 2.484 . S
Tb209 O235 2.440 . S
Tb209 O236 2.658 1_455 S
Tb209 O237 2.409 1_455 S
Tb209 O238 2.378 1_554 S
C210 Tb208 2.809 1_655 S
C210 C211 1.514 . S
C210 O228 1.248 . S
C210 O229 1.266 1_655 S
C211 C210 1.514 . S
C211 C212 1.359 . S
C211 C216 1.348 . S
C212 C211 1.359 . S
C212 C213 1.380 . S
C212 H240 0.929 . S
C213 C212 1.380 . S
C213 C214 1.347 . S
C213 H241 0.931 . S
C214 C213 1.347 . S
C214 C215 1.369 . S
C215 C214 1.369 . S
C215 C216 1.408 . S
C215 H242 0.930 . S
C216 C211 1.348 . S
C216 C215 1.408 . S
C216 H243 0.930 . S
C217 O230 1.281 . S
C217 O231 1.254 . S
C218 O232 1.236 . S
C218 O233 1.266 . S
C219 Tb209 2.809 . S
C219 C220 1.514 . S
C219 O234 1.248 . S
C219 O235 1.266 . S
C220 C219 1.514 . S
C220 C221 1.359 . S
C220 C225 1.348 . S
C221 C220 1.359 . S
C221 C222 1.380 . S
C221 H244 0.929 . S
C222 C221 1.380 . S
C222 C223 1.347 . S
C222 H245 0.931 . S
C223 C222 1.347 . S
C223 C224 1.369 . S
C224 C223 1.369 . S
C224 C225 1.408 . S
C224 H246 0.930 . S
C225 C220 1.348 . S
C225 C224 1.408 . S
C225 H247 0.930 . S
C226 O236 1.281 1_556 S
C226 O237 1.254 1_556 S
C227 O238 1.236 . S
C227 O239 1.266 . S
O228 Tb208 2.484 1_655 S
O228 C210 1.248 . S
O229 Tb208 2.440 . S
O229 C210 1.266 1_455 S
O230 Tb208 2.658 1_554 S
O230 Tb209 2.325 . S
O230 C217 1.281 . S
O231 Tb208 2.409 1_554 S
O231 C217 1.254 . S
O232 Tb208 2.378 1_654 S
O232 C218 1.236 . S
O233 Tb209 2.341 1_655 S
O233 C218 1.266 . S
O234 Tb209 2.484 . S
O234 C219 1.248 . S
O235 Tb209 2.440 . S
O235 C219 1.266 . S
O236 Tb208 2.325 1_654 S
O236 Tb209 2.658 1_655 S
O236 C226 1.281 1_554 S
O237 Tb209 2.409 1_655 S
O237 C226 1.254 1_554 S
O238 Tb209 2.378 1_556 S
O238 C227 1.236 . S
O239 Tb208 2.341 . S
O239 C227 1.266 . S
H240 C212 0.929 . S
H241 C213 0.931 . S
H242 C215 0.930 . S
H243 C216 0.930 . S
H244 C221 0.929 . S
H245 C222 0.931 . S
H246 C224 0.930 . S
H247 C225 0.930 . S
C5 C103 2.190 . S
C18 C143 0.996 . S
C177 C30 3.369 . S
C41 C218 3.508 . S
C138 C7 1.973 . S
C98 C16 3.902 1_455 S
C226 C29 2.381 . S
C187 C38 1.437 . S
C8 C223 2.816 . S
C146 C27 3.065 1_554 S
C40 C106 3.558 . S
C19 C174 2.752 . S
C94 C51 1.731 . S
C62 C134 2.597 . S
C74 C186 4.011 . S
C84 C227 3.503 . S
C49 C147 1.729 1_556 S
C107 C63 3.857 1_655 S
C217 C71 1.841 . S
C178 C85 2.497 . S
C52 C214 3.350 . S
C137 C73 3.663 . S
C97 C82 3.154 . S
C60 C183 2.833 . S
