# Generated by pormake.
# Topology zzz, (3,6)-cn, num edge types: 1
# Building blocks:
#     Node 0, Type 0, BuildingBlock: OLANEW_clean_sbu_2, # of connection points: 3
#     Node 1, Type 0, BuildingBlock: OLANEW_clean_sbu_2, # of connection points: 3
#     Node 2, Type 0, BuildingBlock: OLANEW_clean_sbu_2, # of connection points: 3
#     Node 3, Type 0, BuildingBlock: OLANEW_clean_sbu_2, # of connection points: 3
#     Node 4, Type 0, BuildingBlock: OLANEW_clean_sbu_2, # of connection points: 3
#     Node 5, Type 0, BuildingBlock: OLANEW_clean_sbu_2, # of connection points: 3
#     Node 6, Type 0, BuildingBlock: OLANEW_clean_sbu_2, # of connection points: 3
#     Node 7, Type 0, BuildingBlock: OLANEW_clean_sbu_2, # of connection points: 3
#     Node 8, Type 1, BuildingBlock: BETFAJ_clean_sbu_0, # of connection points: 6
#     Node 9, Type 1, BuildingBlock: BETFAJ_clean_sbu_0, # of connection points: 6
#     Node 10, Type 1, BuildingBlock: BETFAJ_clean_sbu_0, # of connection points: 6
#     Node 11, Type 1, BuildingBlock: BETFAJ_clean_sbu_0, # of connection points: 6
#     Edge 12, Type (0, 1), BuildingBlock: XIVTED_clean_linker_0, # of connection points: 2
#     Edge 13, Type (0, 1), BuildingBlock: XIVTED_clean_linker_0, # of connection points: 2
#     Edge 14, Type (0, 1), BuildingBlock: XIVTED_clean_linker_0, # of connection points: 2
#     Edge 15, Type (0, 1), BuildingBlock: XIVTED_clean_linker_0, # of connection points: 2
#     Edge 16, Type (0, 1), BuildingBlock: XIVTED_clean_linker_0, # of connection points: 2
#     Edge 17, Type (0, 1), BuildingBlock: XIVTED_clean_linker_0, # of connection points: 2
#     Edge 18, Type (0, 1), BuildingBlock: XIVTED_clean_linker_0, # of connection points: 2
#     Edge 19, Type (0, 1), BuildingBlock: XIVTED_clean_linker_0, # of connection points: 2
#     Edge 20, Type (0, 1), BuildingBlock: XIVTED_clean_linker_0, # of connection points: 2
#     Edge 21, Type (0, 1), BuildingBlock: XIVTED_clean_linker_0, # of connection points: 2
#     Edge 22, Type (0, 1), BuildingBlock: XIVTED_clean_linker_0, # of connection points: 2
#     Edge 23, Type (0, 1), BuildingBlock: XIVTED_clean_linker_0, # of connection points: 2
#     Edge 24, Type (0, 1), BuildingBlock: XIVTED_clean_linker_0, # of connection points: 2
#     Edge 25, Type (0, 1), BuildingBlock: XIVTED_clean_linker_0, # of connection points: 2
#     Edge 26, Type (0, 1), BuildingBlock: XIVTED_clean_linker_0, # of connection points: 2
#     Edge 27, Type (0, 1), BuildingBlock: XIVTED_clean_linker_0, # of connection points: 2
#     Edge 28, Type (0, 1), BuildingBlock: XIVTED_clean_linker_0, # of connection points: 2
#     Edge 29, Type (0, 1), BuildingBlock: XIVTED_clean_linker_0, # of connection points: 2
#     Edge 30, Type (0, 1), BuildingBlock: XIVTED_clean_linker_0, # of connection points: 2
#     Edge 31, Type (0, 1), BuildingBlock: XIVTED_clean_linker_0, # of connection points: 2
#     Edge 32, Type (0, 1), BuildingBlock: XIVTED_clean_linker_0, # of connection points: 2
#     Edge 33, Type (0, 1), BuildingBlock: XIVTED_clean_linker_0, # of connection points: 2
#     Edge 34, Type (0, 1), BuildingBlock: XIVTED_clean_linker_0, # of connection points: 2
#     Edge 35, Type (0, 1), BuildingBlock: XIVTED_clean_linker_0, # of connection points: 2
# Relax obj value: 0.252
# Max RMSD: 0.191
# Mean RMSD: 0.173
data_MOF--net-zzz--node1-OLANEW_clean_sbu_2--node2-BETFAJ_clean_sbu_0--edge1-XIVTED_clean_linker_0
_symmetry_space_group_name_H-M    P1
_symmetry_Int_Tables_number       1
_symmetry_cell_setting            triclinic
loop_
_symmetry_equiv_pos_as_xyz
'x, y, z'
_cell_length_a     56.778372
_cell_length_b     56.733299
_cell_length_c     15.104046
_cell_angle_alpha  89.907755
_cell_angle_beta   89.885538
_cell_angle_gamma 89.992226
loop_
_atom_site_label
_atom_site_type_symbol
_atom_site_fract_x
_atom_site_fract_y
_atom_site_fract_z
_atom_type_partial_charge
O0 O 0.7162 0.59485 0.20562 0.0
Cd1 Cd 0.67656 0.60901 0.23813 0.0
O2 O 0.72319 0.59213 0.34787 0.0
Cd3 Cd 0.74674 0.58667 0.45991 0.0
O4 O 0.77857 0.5778 0.53235 0.0
C5 C 0.79799 0.58357 0.49645 0.0
O6 O 0.79768 0.59535 0.42149 0.0
C7 C 0.7301 0.58954 0.26827 0.0
C8 C 0.64484 0.58863 0.12093 0.0
O9 O 0.65537 0.60797 0.10189 0.0
O10 O 0.64902 0.5791 0.19628 0.0
O11 O 0.89891 0.72279 0.32166 0.0
Cd12 Cd 0.88623 0.68415 0.37509 0.0
O13 O 0.93502 0.70879 0.31862 0.0
Cd14 Cd 0.97231 0.71778 0.30735 0.0
O15 O 0.98674 0.75207 0.34281 0.0
C16 C 0.97809 0.75984 0.41469 0.0
O17 O 0.96388 0.74615 0.46042 0.0
C18 C 0.92064 0.7256 0.30466 0.0
C19 C 0.90821 0.64989 0.27222 0.0
O20 O 0.88844 0.65888 0.24913 0.0
O21 O 0.91731 0.65662 0.34554 0.0
O22 O 0.77616 0.90004 0.22563 0.0
Cd23 Cd 0.81439 0.88311 0.26287 0.0
O24 O 0.78491 0.93092 0.3067 0.0
Cd25 Cd 0.77176 0.96266 0.37102 0.0
O26 O 0.7381 0.97556 0.4198 0.0
C27 C 0.73045 0.96658 0.49134 0.0
O28 O 0.74395 0.95181 0.53513 0.0
C29 C 0.77068 0.92018 0.25586 0.0
C30 C 0.84866 0.90154 0.15041 0.0
O31 O 0.83702 0.88303 0.12948 0.0
O32 O 0.84436 0.91117 0.22543 0.0
O33 O 0.5531 0.77237 0.3027 0.0
Cd34 Cd 0.5496 0.81019 0.37836 0.0
O35 O 0.51548 0.77768 0.2762 0.0
Cd36 Cd 0.4821 0.761 0.24159 0.0
O37 O 0.47652 0.72416 0.27583 0.0
C38 C 0.48474 0.71921 0.35178 0.0
O39 O 0.49302 0.73641 0.40091 0.0
C40 C 0.53396 0.76512 0.26895 0.0
C41 C 0.53987 0.84547 0.25592 0.0
O42 O 0.56069 0.84298 0.28715 0.0
O43 O 0.52364 0.83159 0.28347 0.0
O44 O 0.26069 0.47899 0.10133 0.0
Cd45 Cd 0.2974 0.46629 0.03297 0.0
O46 O 0.25704 0.44241 0.147 0.0
Cd47 Cd 0.23316 0.41539 0.19774 0.0
O48 O 0.19586 0.41819 0.16674 0.0
C49 C 0.19248 0.4244 0.08696 0.0
O50 O 0.21075 0.42595 0.03363 0.0
C51 C 0.24923 0.46343 0.14384 0.0
C52 C 0.33358 0.47221 0.15434 0.0
O53 O 0.32911 0.48808 0.09623 0.0
O54 O 0.32121 0.45332 0.15382 0.0
O55 O 0.98662 0.26518 0.24145 0.0
Cd56 Cd 0.99171 0.30484 0.18213 0.0
O57 O 0.00903 0.25572 0.12916 0.0
Cd58 Cd 0.02521 0.23029 0.03958 0.0
O59 O 0.02983 0.19763 0.96654 0.0
C60 C 0.04093 0.1806 0.00169 0.0
O61 O 0.05093 0.18363 0.07919 0.0
C62 C 0.99753 0.24951 0.19775 0.0
C63 C 0.99195 0.33894 0.31382 0.0
O64 O 0.97312 0.33439 0.2704 0.0
O65 O 0.01065 0.32729 0.29514 0.0
O66 O 0.24003 0.02367 0.14328 0.0
Cd67 Cd 0.20051 0.03304 0.09131 0.0
O68 O 0.24786 0.06142 0.13151 0.0
Cd69 Cd 0.27485 0.08864 0.1258 0.0
O70 O 0.31104 0.08786 0.07906 0.0
C71 C 0.31381 0.07616 0.00815 0.0
O72 O 0.29515 0.06737 0.96885 0.0
C73 C 0.25441 0.04065 0.15161 0.0
C74 C 0.16726 0.01931 0.21648 0.0
O75 O 0.17277 0.00572 0.15195 0.0
O76 O 0.17731 0.03949 0.22119 0.0
O77 O 0.49597 0.22638 0.07571 0.0
Cd78 Cd 0.48687 0.18621 0.03049 0.0
O79 O 0.45837 0.23381 0.05736 0.0
Cd80 Cd 0.43119 0.26071 0.04528 0.0
O81 O 0.43275 0.29724 0.00215 0.0
C82 C 0.44535 0.30043 0.93355 0.0
O83 O 0.45454 0.282 0.89384 0.0
C84 C 0.47885 0.24072 0.07935 0.0
C85 C 0.4934 0.15572 0.17263 0.0
O86 O 0.50968 0.15886 0.1149 0.0
O87 O 0.47391 0.16677 0.16243 0.0
Sm88 Sm 0.01216 0.96181 0.78694 0.0
Sm89 Sm 0.99843 0.98238 0.60259 0.0
C90 C 0.01363 0.93954 0.94141 0.0
C91 C 0.0034 0.91828 0.98152 0.0
C92 C 0.00551 0.91439 0.07282 0.0
C93 C 0.99587 0.89414 0.11154 0.0
C94 C 0.98404 0.87741 0.05926 0.0
C95 C 0.9817 0.88163 0.96782 0.0
C96 C 0.99124 0.90192 0.92943 0.0
C97 C 0.04889 0.97125 0.67441 0.0
C98 C 0.99677 0.9265 0.62314 0.0
C99 C 0.99632 0.0058 0.45094 0.0
C100 C 0.99545 0.03071 0.4241 0.0
C101 C 0.00188 0.03714 0.3378 0.0
C102 C 0.00172 0.06084 0.31214 0.0
C103 C 0.9951 0.07854 0.37248 0.0
C104 C 0.98857 0.07195 0.45899 0.0
C105 C 0.98881 0.04825 0.48463 0.0
C106 C 0.96165 0.97223 0.71424 0.0
C107 C 0.01495 0.01814 0.76607 0.0
O108 O 0.9988 0.95654 0.92372 0.0
O109 O 0.02909 0.9362 0.87818 0.0
O110 O 0.02952 0.96218 0.65313 0.0
O111 O 0.05017 0.9746 0.7594 0.0
O112 O 0.99591 0.93052 0.70952 0.0
O113 O 0.00151 0.94348 0.56591 0.0
O114 O 0.01612 0.99874 0.48642 0.0
O115 O 0.97772 0.99762 0.49205 0.0
O116 O 0.98085 0.98164 0.73614 0.0
O117 O 0.96067 0.96903 0.62914 0.0
O118 O 0.01112 0.01511 0.6804 0.0
O119 O 0.01413 0.0006 0.82336 0.0
H120 H 0.01475 0.92696 0.11408 0.0
H121 H 0.9981 0.89133 0.18197 0.0
H122 H 0.97237 0.86929 0.92595 0.0
H123 H 0.98917 0.90484 0.85912 0.0
H124 H 0.00711 0.02382 0.29031 0.0
H125 H 0.00661 0.06529 0.2448 0.0
H126 H 0.9837 0.08515 0.50741 0.0
H127 H 0.98396 0.04362 0.55185 0.0
Sm128 Sm 0.52913 0.01768 0.8247 0.0
Sm129 Sm 0.50706 0.9983 0.65185 0.0
C130 C 0.55364 0.02373 0.97179 0.0
C131 C 0.57628 0.01475 0.00563 0.0
C132 C 0.57754 0.00564 0.0919 0.0
C133 C 0.59857 0.99595 0.12352 0.0
C134 C 0.61876 0.99539 0.06952 0.0
C135 C 0.61747 0.00465 0.98326 0.0
C136 C 0.59641 0.01411 0.95141 0.0
C137 C 0.52323 0.04971 0.6907 0.0
C138 C 0.56275 0.99178 0.67512 0.0
C139 C 0.48398 0.99194 0.50147 0.0
C140 C 0.46083 0.99763 0.46274 0.0
C141 C 0.45141 0.0205 0.46703 0.0
C142 C 0.4295 0.02547 0.42921 0.0
C143 C 0.41643 0.00764 0.387 0.0
C144 C 0.42595 0.98475 0.38328 0.0
C145 C 0.44794 0.97985 0.42051 0.0
C146 C 0.51336 0.96559 0.78322 0.0
C147 C 0.47372 0.02545 0.80198 0.0
O148 O 0.53682 0.00813 0.96443 0.0
O149 O 0.55451 0.03836 0.90473 0.0
O150 O 0.53043 0.0289 0.68238 0.0
O151 O 0.51962 0.05498 0.77337 0.0
O152 O 0.55903 0.99598 0.76011 0.0
O153 O 0.54594 0.99429 0.61564 0.0
O154 O 0.49848 0.0095 0.51503 0.0
O155 O 0.48413 0.9764 0.56553 0.0
O156 O 0.5062 0.98642 0.79439 0.0
O157 O 0.51631 0.96089 0.69973 0.0
O158 O 0.47671 0.01934 0.71801 0.0
O159 O 0.49077 0.02377 0.86083 0.0
H160 H 0.56217 0.00581 0.13454 0.0
H161 H 0.5991 0.98905 0.19041 0.0
H162 H 0.63264 0.00413 0.9397 0.0
H163 H 0.59583 0.02067 0.88404 0.0
H164 H 0.46098 0.03458 0.49938 0.0
H165 H 0.42294 0.04337 0.43235 0.0
H166 H 0.41627 0.97047 0.35281 0.0
H167 H 0.45484 0.96207 0.41669 0.0
Sm168 Sm 0.49008 0.51741 0.73315 0.0
Sm169 Sm 0.50777 0.49745 0.55206 0.0
C170 C 0.48531 0.53968 0.88646 0.0
C171 C 0.49172 0.56262 0.92459 0.0
C172 C 0.49132 0.56575 0.01659 0.0
C173 C 0.49732 0.58755 0.05351 0.0
C174 C 0.50382 0.60658 0.99881 0.0
C175 C 0.50448 0.60318 0.9065 0.0
C176 C 0.49848 0.5814 0.86984 0.0
C177 C 0.45572 0.50571 0.61381 0.0
C178 C 0.50444 0.55367 0.56967 0.0
C179 C 0.51461 0.47539 0.39948 0.0
C180 C 0.51193 0.45145 0.36402 0.0
C181 C 0.50886 0.4322 0.42111 0.0
C182 C 0.50561 0.40957 0.38688 0.0
C183 C 0.50552 0.40579 0.29481 0.0
C184 C 0.50891 0.42514 0.23785 0.0
C185 C 0.512 0.44781 0.27228 0.0
C186 C 0.54197 0.51105 0.6691 0.0
C187 C 0.48947 0.46118 0.7116 0.0
O188 O 0.50285 0.52551 0.86864 0.0
O189 O 0.46925 0.53993 0.82438 0.0
O190 O 0.4749 0.51572 0.59636 0.0
O191 O 0.45319 0.50253 0.69862 0.0
O192 O 0.50364 0.55024 0.65649 0.0
O193 O 0.50315 0.53601 0.51307 0.0
O194 O 0.49506 0.4864 0.41945 0.0
O195 O 0.53113 0.47831 0.45878 0.0
O196 O 0.52343 0.49998 0.68834 0.0
O197 O 0.54362 0.51446 0.58423 0.0
O198 O 0.49323 0.46463 0.62589 0.0
O199 O 0.49023 0.47852 0.76958 0.0
H200 H 0.48621 0.55138 0.05987 0.0
H201 H 0.4964 0.58962 0.12471 0.0
H202 H 0.50976 0.61732 0.86248 0.0
H203 H 0.49903 0.57923 0.79877 0.0
H204 H 0.50897 0.4347 0.49209 0.0
H205 H 0.50337 0.39499 0.43253 0.0
H206 H 0.50871 0.42283 0.16668 0.0
H207 H 0.51429 0.46253 0.22728 0.0
Sm208 Sm 0.98293 0.50055 0.89592 0.0
Sm209 Sm 0.00731 0.51615 0.72002 0.0
C210 C 0.95736 0.49809 0.0423 0.0
C211 C 0.9356 0.50938 0.07388 0.0
C212 C 0.92899 0.53179 0.04317 0.0
C213 C 0.90768 0.54185 0.07021 0.0
C214 C 0.8924 0.52954 0.12748 0.0
C215 C 0.89929 0.50716 0.15859 0.0
C216 C 0.92071 0.49722 0.13212 0.0
C217 C 0.9893 0.46579 0.77242 0.0
C218 C 0.95181 0.52531 0.73561 0.0
C219 C 0.0304 0.52006 0.56811 0.0
C220 C 0.05254 0.51302 0.5249 0.0
C221 C 0.07343 0.51026 0.57328 0.0
C222 C 0.09442 0.50441 0.52991 0.0
C223 C 0.09487 0.50109 0.43746 0.0
C224 C 0.07375 0.50351 0.38976 0.0
C225 C 0.05281 0.50945 0.43313 0.0
C226 C 0.99855 0.55133 0.84039 0.0
C227 C 0.03844 0.49084 0.88027 0.0
O228 O 0.97581 0.51176 0.03396 0.0
O229 O 0.9549 0.48342 0.97623 0.0
O230 O 0.98294 0.48661 0.75664 0.0
O231 O 0.9915 0.46209 0.85698 0.0
O232 O 0.95418 0.52176 0.82177 0.0
O233 O 0.96906 0.52107 0.67924 0.0
O234 O 0.01513 0.50329 0.5841 0.0
O235 O 0.03187 0.53554 0.6321 0.0
O236 O 0.00595 0.53093 0.85794 0.0
O237 O 0.99706 0.55433 0.75529 0.0
O238 O 0.03635 0.49557 0.79469 0.0
O239 O 0.02097 0.49402 0.93683 0.0
H240 H 0.94015 0.54138 0.99741 0.0
H241 H 0.90318 0.55924 0.04587 0.0
H242 H 0.88785 0.49698 0.20148 0.0
H243 H 0.92544 0.47982 0.15582 0.0
H244 H 0.07357 0.51287 0.64432 0.0
H245 H 0.11038 0.50296 0.56869 0.0
H246 H 0.07333 0.50068 0.31889 0.0
H247 H 0.03681 0.51138 0.39483 0.0
H248 H 0.13721 0.98168 0.21018 0.0
H249 H 0.08713 -0.00031 0.70014 0.0
H250 H 0.15802 0.03981 0.3767 0.0
H251 H 0.05188 0.95802 0.50192 0.0
H252 H 0.11649 0.0114 0.58888 0.0
H253 H 0.1088 0.96952 0.32321 0.0
C254 C 0.13582 0.99188 0.27054 0.0
C255 C 0.14994 0.01183 0.28399 0.0
C256 C 0.10232 -0.00032 0.56992 0.0
C257 C 0.11764 0.99791 0.41373 0.0
C258 C 0.08568 0.99293 0.63333 0.0
C259 C 0.06715 0.97791 0.60985 0.0
C260 C 0.10048 0.99106 0.48302 0.0
C261 C 0.06592 0.96969 0.52249 0.0
C262 C 0.11957 0.98496 0.33489 0.0
C263 C 0.14739 0.02439 0.36346 0.0
N264 N 0.08241 0.97632 0.46224 0.0
N265 N 0.1316 0.01716 0.42557 0.0
H266 H 0.46725 0.15293 0.32473 0.0
H267 H 0.53866 0.04413 0.52192 0.0
H268 H 0.52811 0.12291 0.19547 0.0
H269 H 0.49797 0.09083 0.6875 0.0
H270 H 0.53104 0.06985 0.39524 0.0
H271 H 0.47436 0.12725 0.45254 0.0
C272 C 0.48204 0.14088 0.3231 0.0
C273 C 0.49714 0.14004 0.24945 0.0
C274 C 0.52384 0.07453 0.45931 0.0
C275 C 0.50522 0.11065 0.39483 0.0
C276 C 0.52812 0.05985 0.53149 0.0
C277 C 0.51898 0.0655 0.61507 0.0
C278 C 0.51006 0.09483 0.47057 0.0
C279 C 0.50544 0.08602 0.62406 0.0
C280 C 0.48613 0.12635 0.39615 0.0
C281 C 0.51609 0.12418 0.25098 0.0
N282 N 0.50126 0.09994 0.55237 0.0
N283 N 0.51952 0.11002 0.32236 0.0
H284 H 0.34128 0.44691 0.30607 0.0
H285 H 0.45552 0.52001 0.44241 0.0
H286 H 0.36784 0.50601 0.15567 0.0
H287 H 0.41596 0.47864 0.63089 0.0
H288 H 0.42625 0.51102 0.32941 0.0
H289 H 0.37129 0.45436 0.41898 0.0
C290 C 0.3535 0.46136 0.29657 0.0
C291 C 0.35207 0.47589 0.22144 0.0
C292 C 0.42392 0.50392 0.39546 0.0
C293 C 0.38636 0.48439 0.34989 0.0
C294 C 0.44065 0.50897 0.4599 0.0
C295 C 0.43804 0.50009 0.54601 0.0
C296 C 0.40454 0.48967 0.41699 0.0
C297 C 0.41847 0.48591 0.56524 0.0
C298 C 0.37051 0.46565 0.36119 0.0
C299 C 0.36826 0.49442 0.21266 0.0
N300 N 0.40243 0.48105 0.50097 0.0
N301 N 0.38478 0.49809 0.27601 0.0
H302 H 0.02358 0.34453 0.44856 0.0
H303 H 0.97279 0.46811 0.60394 0.0
H304 H 0.96089 0.37519 0.33541 0.0
H305 H 0.00888 0.42186 0.78567 0.0
H306 H 0.97379 0.43703 0.49197 0.0
H307 H 0.02365 0.37557 0.56154 0.0
C308 C 0.00988 0.3578 0.44744 0.0
C309 C 0.99217 0.35731 0.38276 0.0
C310 C 0.98148 0.4337 0.55637 0.0
C311 C 0.99238 0.39284 0.5104 0.0
C312 C 0.98102 0.45142 0.62005 0.0
C313 C 0.99065 0.4474 0.70411 0.0
C314 C 0.99203 0.412 0.57641 0.0
C315 C 0.00113 0.42552 0.72167 0.0
C316 C 0.00989 0.3754 0.51197 0.0
C317 C 0.97479 0.37487 0.38439 0.0
N318 N 0.00165 0.40858 0.65803 0.0
N319 N 0.97543 0.39205 0.44682 0.0
H320 H 0.87899 0.93831 0.1798 0.0
H321 H 0.92689 0.9404 0.68132 0.0
H322 H 0.85792 0.8883 0.97995 0.0
H323 H 0.95778 0.98154 0.891 0.0
H324 H 0.89976 0.92282 0.78855 0.0
H325 H 0.90667 0.95581 0.0741 0.0
C326 C 0.88022 0.93097 0.1138 0.0
C327 C 0.8661 0.91183 0.08862 0.0
C328 C 0.91247 0.93568 0.81125 0.0
C329 C 0.89758 0.93186 0.9673 0.0
C330 C 0.92785 0.9458 0.74998 0.0
C331 C 0.94457 0.96236 0.77766 0.0
C332 C 0.91369 0.94233 0.90068 0.0
C333 C 0.9452 0.96868 0.86732 0.0
C334 C 0.89603 0.94096 0.05355 0.0
C335 C 0.86846 0.90302 0.00229 0.0
N336 N 0.92995 0.95867 0.92578 0.0
N337 N 0.88381 0.91317 0.94466 0.0
H338 H 0.51007 0.84164 0.11596 0.0
H339 H 0.50996 0.9728 0.96174 0.0
H340 H 0.55833 0.88974 0.24187 0.0
H341 H 0.52227 0.91856 0.76734 0.0
H342 H 0.51681 0.94376 0.07967 0.0
H343 H 0.50303 0.87118 0.99957 0.0
C344 C 0.51898 0.8585 0.1194 0.0
C345 C 0.53483 0.86336 0.18802 0.0
C346 C 0.51804 0.93837 0.01102 0.0
C347 C 0.52645 0.89703 0.05754 0.0
C348 C 0.51433 0.95489 0.94393 0.0
C349 C 0.51623 0.94818 0.85489 0.0
C350 C 0.52268 0.91489 0.98849 0.0
C351 C 0.52094 0.92448 0.83527 0.0
C352 C 0.51505 0.87518 0.05311 0.0
C353 C 0.54608 0.88536 0.18954 0.0
N354 N 0.52381 0.90857 0.90172 0.0
N355 N 0.54147 0.90159 0.12554 0.0
H356 H 0.61707 0.54963 0.14547 0.0
H357 H 0.57418 0.54583 0.64144 0.0
H358 H 0.63632 0.60176 0.94976 0.0
H359 H 0.54503 0.50129 0.84573 0.0
H360 H 0.59884 0.56508 0.7524 0.0
H361 H 0.59188 0.53047 0.03585 0.0
C362 C 0.61596 0.55709 0.07955 0.0
C363 C 0.62884 0.57732 0.05668 0.0
C364 C 0.58705 0.55111 0.7731 0.0
C365 C 0.60021 0.55539 0.93089 0.0
C366 C 0.57308 0.54005 0.70973 0.0
C367 C 0.55756 0.52205 0.73482 0.0
C368 C 0.5856 0.54396 0.86205 0.0
C369 C 0.55669 0.51526 0.82405 0.0
C370 C 0.60157 0.54614 0.01705 0.0
C371 C 0.62669 0.58622 0.97033 0.0
N372 N 0.57056 0.52622 0.88459 0.0
N373 N 0.61274 0.57514 0.91051 0.0
H374 H 0.94849 0.62481 0.30674 0.0
H375 H 0.96375 0.58294 0.80629 0.0
H376 H 0.89668 0.63738 0.1032 0.0
H377 H 0.00426 0.55298 0.0199 0.0
H378 H 0.94087 0.60548 0.9139 0.0
H379 H 0.97062 0.60007 0.20308 0.0
C380 C 0.94168 0.62224 0.24051 0.0
C381 C 0.92077 0.63329 0.2134 0.0
C382 C 0.95478 0.59402 0.9374 0.0
C383 C 0.94613 0.60531 0.09449 0.0
C384 C 0.96798 0.58133 0.87596 0.0
C385 C 0.98592 0.5662 0.90457 0.0
C386 C 0.95978 0.59182 0.02805 0.0
C387 C 0.9905 0.5645 0.99551 0.0
C388 C 0.95432 0.60812 0.18147 0.0
C389 C 0.91274 0.62928 0.12692 0.0
N390 N 0.97756 0.57725 0.05425 0.0
N391 N 0.92554 0.61579 0.07036 0.0
H392 H 0.9608 0.22579 0.27488 0.0
H393 H 0.02827 0.10175 0.27314 0.0
H394 H 0.0326 0.21689 0.18846 0.0
H395 H 0.96249 0.11287 0.41065 0.0
H396 H 0.02854 0.1433 0.23061 0.0
H397 H 0.95974 0.18402 0.31764 0.0
C398 C 0.97628 0.21498 0.26442 0.0
C399 C 0.99659 0.22454 0.22536 0.0
C400 C 0.01406 0.13668 0.27026 0.0
C401 C 0.99558 0.17694 0.27421 0.0
C402 C 0.0138 0.1129 0.29403 0.0
C403 C 0.99533 0.10378 0.34566 0.0
C404 C 0.99565 0.15152 0.29786 0.0
C405 C 0.97723 0.11919 0.37172 0.0
C406 C 0.97568 0.19118 0.28871 0.0
C407 C 0.01626 0.20992 0.21442 0.0
N408 N 0.97781 0.14228 0.34739 0.0
N409 N 0.01525 0.18684 0.23827 0.0
H410 H 0.27942 0.06685 0.26891 0.0
H411 H 0.39676 0.9897 0.23457 0.0
H412 H 0.28395 0.00427 0.10835 0.0
H413 H 0.38212 0.03738 0.45049 0.0
H414 H 0.35758 0.99777 0.17478 0.0
H415 H 0.31939 0.05956 0.32238 0.0
C416 C 0.289 0.05171 0.24416 0.0
C417 C 0.27859 0.03631 0.18328 0.0
C418 C 0.363 0.00643 0.23524 0.0
C419 C 0.32415 0.02763 0.24508 0.0
C420 C 0.38534 0.00177 0.26978 0.0
C421 C 0.39286 0.0128 0.34813 0.0
C422 C 0.3481 0.02241 0.27877 0.0
C423 C 0.37736 0.02869 0.38939 0.0
C424 C 0.3117 0.04745 0.27523 0.0
C425 C 0.29145 0.01658 0.15517 0.0
N426 N 0.35578 0.03301 0.3542 0.0
N427 N 0.31366 0.01285 0.18595 0.0
H428 H 0.45125 0.26631 0.19022 0.0
H429 H 0.52869 0.38392 0.15769 0.0
H430 H 0.51525 0.27045 0.03707 0.0
H431 H 0.47323 0.37305 0.34921 0.0
H432 H 0.52201 0.34397 0.10124 0.0
H433 H 0.45707 0.30698 0.23799 0.0
C434 C 0.46642 0.27595 0.16591 0.0
C435 C 0.48258 0.26524 0.1085 0.0
C436 C 0.51135 0.35035 0.15568 0.0
C437 C 0.48967 0.31165 0.16424 0.0
C438 C 0.51505 0.37318 0.18757 0.0
C439 C 0.50158 0.38178 0.25864 0.0
C440 C 0.49394 0.33613 0.19468 0.0
C441 C 0.48427 0.36703 0.29526 0.0
C442 C 0.46984 0.29908 0.19373 0.0
C443 C 0.50234 0.27819 0.08113 0.0
N444 N 0.48094 0.34498 0.26283 0.0
N445 N 0.50529 0.30082 0.10892 0.0
H446 H 0.23371 0.44896 0.30509 0.0
H447 H 0.11042 0.51703 0.27531 0.0
H448 H 0.21394 0.49193 0.08172 0.0
H449 H 0.13057 0.472 0.49313 0.0
H450 H 0.14766 0.50778 0.2017 0.0
H451 H 0.19579 0.45744 0.37444 0.0
C452 C 0.22123 0.46007 0.27043 0.0
C453 C 0.22669 0.46941 0.18698 0.0
C454 C 0.14392 0.49996 0.26564 0.0
C455 C 0.18337 0.47959 0.26646 0.0
C456 C 0.12257 0.50509 0.30754 0.0
C457 C 0.11731 0.49537 0.39097 0.0
C458 C 0.16022 0.48505 0.30747 0.0
C459 C 0.13396 0.48027 0.42977 0.0
C460 C 0.19963 0.46501 0.31016 0.0
C461 C 0.21028 0.48431 0.14604 0.0
N462 N 0.15463 0.47564 0.38782 0.0
N463 N 0.18925 0.48886 0.18601 0.0
H464 H 0.95071 0.7317 0.16737 0.0
H465 H 0.96008 0.8718 0.21664 0.0
H466 H 0.91021 0.77052 0.35971 0.0
H467 H 0.98686 0.83272 0.99315 0.0
H468 H 0.94449 0.83498 0.27897 0.0
H469 H 0.96664 0.76872 0.11052 0.0
C470 C 0.94525 0.74812 0.1977 0.0
C471 C 0.92938 0.74815 0.26878 0.0
C472 C 0.95369 0.83454 0.21611 0.0
C473 C 0.94735 0.79065 0.2038 0.0
C474 C 0.96273 0.85549 0.18081 0.0
C475 C 0.97463 0.85537 0.09913 0.0
C476 C 0.95676 0.81332 0.16972 0.0
C477 C 0.97745 0.83374 0.05544 0.0
C478 C 0.95425 0.76924 0.16509 0.0
C479 C 0.92247 0.76985 0.30478 0.0
N480 N 0.96862 0.81365 0.09129 0.0
N481 N 0.93164 0.7903 0.27227 0.0
H482 H 0.72746 0.89901 0.24742 0.0
H483 H 0.66325 0.01338 0.0549 0.0
H484 H 0.76236 0.96572 0.20911 0.0
H485 H 0.625 0.95365 0.15829 0.0
H486 H 0.70005 0.99525 0.10393 0.0
H487 H 0.68988 0.91764 0.20732 0.0
C488 C 0.72714 0.91759 0.23085 0.0
C489 C 0.74787 0.93099 0.23281 0.0
C490 C 0.68361 0.98614 0.11631 0.0
C491 C 0.70525 0.95229 0.186 0.0
C492 C 0.66262 0.99643 0.08791 0.0
C493 C 0.64107 0.98496 0.10229 0.0
C494 C 0.68311 0.96406 0.15846 0.0
C495 C 0.64124 0.96315 0.1464 0.0
C496 C 0.70574 0.92823 0.20841 0.0
C497 C 0.74664 0.95493 0.21027 0.0
N498 N 0.66196 0.9533 0.17236 0.0
N499 N 0.72571 0.9648 0.18751 0.0
H500 H 0.55268 0.72319 0.32567 0.0
H501 H 0.49097 0.64998 0.93612 0.0
H502 H 0.51192 0.75427 0.11532 0.0
H503 H 0.52901 0.6168 0.14984 0.0
H504 H 0.50022 0.68839 0.99861 0.0
H505 H 0.54632 0.68411 0.25952 0.0
C506 C 0.54267 0.72176 0.26495 0.0
C507 C 0.53255 0.74181 0.22622 0.0
C508 C 0.50663 0.67274 0.03191 0.0
C509 C 0.52523 0.69748 0.15041 0.0
C510 C 0.50146 0.65076 0.99587 0.0
C511 C 0.50935 0.63007 0.03733 0.0
C512 C 0.51984 0.67422 0.11023 0.0
C513 C 0.52241 0.63225 0.1159 0.0
C514 C 0.53892 0.69951 0.22755 0.0
C515 C 0.51968 0.73913 0.14788 0.0
N516 N 0.52729 0.65394 0.14975 0.0
N517 N 0.5163 0.71739 0.1128 0.0
H518 H 0.75825 0.60291 0.13088 0.0
H519 H 0.86905 0.52665 0.28727 0.0
H520 H 0.75615 0.55619 0.35618 0.0
H521 H 0.86211 0.55512 0.02317 0.0
H522 H 0.82964 0.54133 0.32234 0.0
H523 H 0.7982 0.58916 0.09782 0.0
C524 C 0.76628 0.58986 0.1737 0.0
C525 C 0.75417 0.58119 0.24791 0.0
C526 C 0.83679 0.54434 0.25675 0.0
C527 C 0.79976 0.56532 0.21045 0.0
C528 C 0.85927 0.5359 0.23649 0.0
C529 C 0.86898 0.5395 0.15183 0.0
C530 C 0.82392 0.55662 0.19219 0.0
C531 C 0.85559 0.55214 0.08961 0.0
C532 C 0.78905 0.58203 0.15486 0.0
C533 C 0.76523 0.56407 0.30052 0.0
N534 N 0.83377 0.5602 0.11102 0.0
N535 N 0.78745 0.55676 0.28102 0.0
H536 H 0.02576 0.16887 0.83563 0.0
H537 H 0.02912 0.03072 0.93239 0.0
H538 H 0.05392 0.13856 0.07552 0.0
H539 H 0.01353 0.05999 0.67484 0.0
H540 H 0.03779 0.07023 0.98623 0.0
H541 H 0.02109 0.12924 0.77502 0.0
C542 C 0.03114 0.15389 0.87526 0.0
C543 C 0.04016 0.15701 0.96088 0.0
C544 C 0.03256 0.06801 0.91783 0.0
C545 C 0.03464 0.11165 0.89233 0.0
C546 C 0.0275 0.04544 0.88706 0.0
C547 C 0.02045 0.04202 0.79901 0.0
C548 C 0.03042 0.08736 0.86041 0.0
C549 C 0.01883 0.06178 0.74328 0.0
C550 C 0.02847 0.13128 0.84061 0.0
C551 C 0.04691 0.13698 0.00919 0.0
N552 N 0.02366 0.08364 0.77509 0.0
N553 N 0.04382 0.11514 0.97451 0.0
H554 H 0.32533 0.05705 0.84811 0.0
H555 H 0.46176 0.04333 0.96423 0.0
H556 H 0.35631 0.08277 0.09021 0.0
H557 H 0.43276 0.02815 0.7063 0.0
H558 H 0.42319 0.0573 0.01227 0.0
H559 H 0.36447 0.04597 0.79555 0.0
C560 C 0.3404 0.0605 0.89004 0.0
C561 C 0.33757 0.07086 0.97366 0.0
C562 C 0.42528 0.05101 0.94506 0.0
C563 C 0.38241 0.05804 0.91414 0.0
C564 C 0.44731 0.04295 0.91755 0.0
C565 C 0.45052 0.03444 0.8311 0.0
C566 C 0.40625 0.05045 0.88597 0.0
C567 C 0.43113 0.0345 0.77359 0.0
C568 C 0.36274 0.05418 0.85992 0.0
C569 C 0.35771 0.07492 0.02511 0.0
N570 N 0.40979 0.04228 0.80221 0.0
N571 N 0.37928 0.06836 0.99473 0.0
H572 H 0.44 0.34235 0.02129 0.0
H573 H 0.48668 0.42025 0.61553 0.0
H574 H 0.46353 0.31293 0.77302 0.0
H575 H 0.47777 0.44756 0.88025 0.0
H576 H 0.47556 0.38124 0.66919 0.0
H577 H 0.45082 0.38165 0.96761 0.0
C578 C 0.44724 0.34419 0.95523 0.0
C579 C 0.45078 0.32439 0.90131 0.0
C580 C 0.47613 0.39576 0.71558 0.0
C581 C 0.46324 0.36917 0.8397 0.0
C582 C 0.48253 0.41807 0.68497 0.0
C583 C 0.48333 0.43726 0.74341 0.0
C584 C 0.47027 0.3926 0.80519 0.0
C585 C 0.47751 0.43331 0.8327 0.0
C586 C 0.45355 0.36658 0.92485 0.0
C587 C 0.46051 0.32773 0.81676 0.0
N588 N 0.47116 0.41145 0.86077 0.0
N589 N 0.46634 0.34969 0.78846 0.0
H590 H 0.17914 0.43422 0.91786 0.0
H591 H 0.05039 0.47948 0.05129 0.0
H592 H 0.15293 0.43345 0.18636 0.0
H593 H 0.07779 0.47964 0.78422 0.0
H594 H 0.08748 0.46246 0.10271 0.0
H595 H 0.14162 0.45025 0.86842 0.0
C596 C 0.1654 0.43727 0.96646 0.0
C597 C 0.16913 0.43238 0.05635 0.0
C598 C 0.08534 0.46621 0.03293 0.0
C599 C 0.12609 0.451 1.00013 0.0
C600 C 0.06418 0.47596 0.00336 0.0
C601 C 0.06092 0.48101 0.91314 0.0
C602 C 0.10336 0.4614 0.97173 0.0
C603 C 0.07945 0.47608 0.85431 0.0
C604 C 0.14398 0.44649 0.93808 0.0
C605 C 0.15071 0.43676 0.11632 0.0
N606 N 0.09982 0.46654 0.88471 0.0
N607 N 0.12998 0.44591 0.08708 0.0
H608 H 0.99692 0.79662 0.31914 0.0
H609 H 0.97976 0.8887 0.7155 0.0
H610 H 0.96752 0.77911 0.57469 0.0
H611 H 0.00528 0.9089 0.45682 0.0
H612 H 0.97559 0.84833 0.66387 0.0
H613 H 0.00084 0.8377 0.36726 0.0
C614 C 0.99154 0.80136 0.38561 0.0
C615 C 0.98202 0.78441 0.44325 0.0
C616 C 0.98208 0.86156 0.61818 0.0
C617 C 0.98633 0.83124 0.49844 0.0
C618 C 0.98453 0.88466 0.64781 0.0
C619 C 0.99306 0.90221 0.5907 0.0
C620 C 0.98825 0.85584 0.53071 0.0
C621 C 0.99863 0.89592 0.50318 0.0
C622 C 0.99365 0.82482 0.41284 0.0
C623 C 0.97499 0.79157 0.5281 0.0
N624 N 0.99623 0.87321 0.47591 0.0
N625 N 0.97732 0.81439 0.55309 0.0
H626 H 0.71094 0.95665 0.65254 0.0
H627 H 0.58019 0.99108 0.50582 0.0
H628 H 0.69413 0.98548 0.39561 0.0
H629 H 0.60051 0.97971 0.778 0.0
H630 H 0.6211 0.98489 0.4607 0.0
H631 H 0.6698 0.96152 0.69673 0.0
C632 C 0.69861 0.96411 0.60558 0.0
C633 C 0.70598 0.97078 0.52047 0.0
C634 C 0.61656 0.98369 0.53024 0.0
C635 C 0.65884 0.9761 0.57017 0.0
C636 C 0.59318 0.98705 0.55602 0.0
C637 C 0.58691 0.98597 0.64587 0.0
C638 C 0.63374 0.97902 0.59467 0.0
C639 C 0.60454 0.98081 0.70802 0.0
C640 C 0.67514 0.96687 0.63083 0.0
C641 C 0.68924 0.98031 0.4622 0.0
N642 N 0.62715 0.97755 0.68124 0.0
N643 N 0.66641 0.98258 0.48801 0.0
H644 H 0.47808 0.67867 0.25572 0.0
H645 H 0.51345 0.59446 0.6602 0.0
H646 H 0.49827 0.70366 0.51453 0.0
H647 H 0.49548 0.5685 0.40042 0.0
H648 H 0.50926 0.63469 0.60563 0.0
H649 H 0.48507 0.63816 0.30549 0.0
C650 C 0.48375 0.67562 0.3232 0.0
C651 C 0.48743 0.69454 0.3813 0.0
C652 C 0.50633 0.62021 0.56037 0.0
C653 C 0.49559 0.64836 0.43846 0.0
C654 C 0.50869 0.5972 0.59163 0.0
C655 C 0.50454 0.57806 0.53519 0.0
C656 C 0.49969 0.62414 0.47199 0.0
C657 C 0.49881 0.58272 0.44642 0.0
C658 C 0.48788 0.65253 0.35142 0.0
C659 C 0.49513 0.68962 0.46757 0.0
N660 N 0.49637 0.6053 0.41771 0.0
N661 N 0.49889 0.66703 0.49353 0.0
H662 H 0.80579 0.56455 0.6607 0.0
H663 H 0.94175 0.5389 0.5662 0.0
H664 H 0.84156 0.58498 0.41999 0.0
H665 H 0.91055 0.53284 0.82638 0.0
H666 H 0.90445 0.55377 0.50969 0.0
H667 H 0.84338 0.55088 0.72101 0.0
C668 C 0.82155 0.56623 0.62069 0.0
C669 C 0.82057 0.57597 0.53532 0.0
C670 C 0.90577 0.54925 0.5792 0.0
C671 C 0.8635 0.56024 0.60353 0.0
C672 C 0.92706 0.54068 0.61155 0.0
C673 C 0.92928 0.53452 0.70117 0.0
C674 C 0.88645 0.55157 0.63662 0.0
C675 C 0.90963 0.53732 0.75676 0.0
C676 C 0.84299 0.55846 0.65519 0.0
C677 C 0.84152 0.57772 0.48633 0.0
N678 N 0.88898 0.54556 0.72346 0.0
N679 N 0.8621 0.56982 0.52099 0.0
loop_
_geom_bond_atom_site_label_1
_geom_bond_atom_site_label_2
_geom_bond_distance
_geom_bond_site_symmetry_2
_ccdc_geom_bond_type
O0 Cd1 2.300 . S
O0 C7 1.275 . S
Cd1 O0 2.300 . S
Cd1 O9 2.381 . S
Cd1 O10 2.378 . S
O2 Cd3 2.385 . S
O2 C7 1.255 . S
Cd3 O2 2.385 . S
Cd3 O4 2.317 . S
O4 Cd3 2.317 . S
O4 C5 1.232 . S
C5 O4 1.232 . S
C5 O6 1.218 . S
O6 C5 1.218 . S
C7 O0 1.275 . S
C7 O2 1.255 . S
C8 O9 1.258 . S
C8 O10 1.256 . S
O9 Cd1 2.381 . S
O9 C8 1.258 . S
O10 Cd1 2.378 . S
O10 C8 1.256 . S
O11 Cd12 2.300 1_655 S
O11 C18 1.275 1_655 S
Cd12 O11 2.300 1_455 S
Cd12 O20 2.381 1_455 S
Cd12 O21 2.378 . S
O13 Cd14 2.385 . S
O13 C18 1.255 . S
Cd14 O13 2.385 . S
Cd14 O15 2.317 . S
O15 Cd14 2.317 . S
O15 C16 1.232 . S
C16 O15 1.232 . S
C16 O17 1.218 . S
O17 C16 1.218 . S
C18 O11 1.275 1_455 S
C18 O13 1.255 . S
C19 O20 1.258 1_455 S
C19 O21 1.256 . S
O20 Cd12 2.381 1_655 S
O20 C19 1.258 1_655 S
O21 Cd12 2.378 . S
O21 C19 1.256 . S
O22 Cd23 2.300 1_565 S
O22 C29 1.275 1_565 S
Cd23 O22 2.300 1_545 S
Cd23 O31 2.381 1_545 S
Cd23 O32 2.378 . S
O24 Cd25 2.385 . S
O24 C29 1.255 . S
Cd25 O24 2.385 . S
Cd25 O26 2.317 . S
O26 Cd25 2.317 . S
O26 C27 1.232 . S
C27 O26 1.232 . S
C27 O28 1.218 . S
O28 C27 1.218 . S
C29 O22 1.275 1_545 S
C29 O24 1.255 . S
C30 O31 1.258 1_545 S
C30 O32 1.256 . S
O31 Cd23 2.381 1_565 S
O31 C30 1.258 1_565 S
O32 Cd23 2.378 . S
O32 C30 1.256 . S
O33 Cd34 2.300 . S
O33 C40 1.275 . S
Cd34 O33 2.300 . S
Cd34 O42 2.381 . S
Cd34 O43 2.378 . S
O35 Cd36 2.385 . S
O35 C40 1.255 . S
Cd36 O35 2.385 . S
Cd36 O37 2.317 . S
O37 Cd36 2.317 . S
O37 C38 1.232 . S
C38 O37 1.232 . S
C38 O39 1.218 . S
O39 C38 1.218 . S
C40 O33 1.275 . S
C40 O35 1.255 . S
C41 O42 1.258 . S
C41 O43 1.256 . S
O42 Cd34 2.381 . S
O42 C41 1.258 . S
O43 Cd34 2.378 . S
O43 C41 1.256 . S
O44 Cd45 2.300 . S
O44 C51 1.275 . S
Cd45 O44 2.300 . S
Cd45 O53 2.381 . S
Cd45 O54 2.378 . S
O46 Cd47 2.385 1_554 S
O46 C51 1.255 . S
Cd47 O46 2.385 1_556 S
Cd47 O48 2.317 . S
O48 Cd47 2.317 . S
O48 C49 1.232 . S
C49 O48 1.232 . S
C49 O50 1.218 . S
O50 C49 1.218 . S
C51 O44 1.275 . S
C51 O46 1.255 . S
C52 O53 1.258 . S
C52 O54 1.256 . S
O53 Cd45 2.381 . S
O53 C52 1.258 . S
O54 Cd45 2.378 . S
O54 C52 1.256 . S
O55 Cd56 2.300 1_655 S
O55 C62 1.275 1_655 S
Cd56 O55 2.300 1_455 S
Cd56 O64 2.381 1_455 S
Cd56 O65 2.378 . S
O57 Cd58 2.385 1_554 S
O57 C62 1.255 . S
Cd58 O57 2.385 1_556 S
Cd58 O59 2.317 . S
O59 Cd58 2.317 . S
O59 C60 1.232 . S
C60 O59 1.232 . S
C60 O61 1.218 . S
O61 C60 1.218 . S
C62 O55 1.275 1_455 S
C62 O57 1.255 . S
C63 O64 1.258 1_455 S
C63 O65 1.256 . S
O64 Cd56 2.381 1_655 S
O64 C63 1.258 1_655 S
O65 Cd56 2.378 . S
O65 C63 1.256 . S
O66 Cd67 2.300 1_565 S
O66 C73 1.275 1_565 S
Cd67 O66 2.300 1_545 S
Cd67 O75 2.381 1_545 S
Cd67 O76 2.378 . S
O68 Cd69 2.385 1_554 S
O68 C73 1.255 . S
Cd69 O68 2.385 1_556 S
Cd69 O70 2.317 . S
O70 Cd69 2.317 . S
O70 C71 1.232 . S
C71 O70 1.232 . S
C71 O72 1.218 . S
O72 C71 1.218 . S
C73 O66 1.275 1_545 S
C73 O68 1.255 . S
C74 O75 1.258 1_545 S
C74 O76 1.256 . S
O75 Cd67 2.381 1_565 S
O75 C74 1.258 1_565 S
O76 Cd67 2.378 . S
O76 C74 1.256 . S
O77 Cd78 2.300 . S
O77 C84 1.275 . S
Cd78 O77 2.300 . S
Cd78 O86 2.381 . S
Cd78 O87 2.378 . S
O79 Cd80 2.385 1_554 S
O79 C84 1.255 . S
Cd80 O79 2.385 1_556 S
Cd80 O81 2.317 . S
O81 Cd80 2.317 . S
O81 C82 1.232 . S
C82 O81 1.232 . S
C82 O83 1.218 . S
O83 C82 1.218 . S
C84 O77 1.275 . S
C84 O79 1.255 . S
C85 O86 1.258 . S
C85 O87 1.256 . S
O86 Cd78 2.381 . S
O86 C85 1.258 . S
O87 Cd78 2.378 . S
O87 C85 1.256 . S
Sm88 C90 2.846 . S
Sm88 O108 2.543 . S
Sm88 O109 2.450 . S
Sm88 O110 2.681 1_565 S
Sm88 O111 2.464 . S
Sm88 O112 2.396 . S
Sm88 O116 2.386 1_455 S
Sm88 O119 2.408 1_565 S
Sm89 C99 2.846 . S
Sm89 O110 2.386 1_655 S
Sm89 O113 2.408 1_545 S
Sm89 O114 2.562 . S
Sm89 O115 2.450 . S
Sm89 O116 2.681 1_545 S
Sm89 O117 2.464 . S
Sm89 O118 2.396 . S
C90 Sm88 2.846 . S
C90 C91 1.506 . S
C90 O108 1.261 . S
C90 O109 1.242 . S
C91 C90 1.506 . S
C91 C92 1.358 . S
C91 C96 1.382 . S
C92 C91 1.358 . S
C92 C93 1.385 1_556 S
C92 H120 0.930 1_455 S
C93 C92 1.385 1_554 S
C93 C94 1.395 . S
C93 H121 0.929 1_455 S
C94 C93 1.395 . S
C94 C95 1.335 1_554 S
C95 C94 1.335 1_556 S
C95 C96 1.398 . S
C95 H122 0.930 1_556 S
C96 C91 1.382 . S
C96 C95 1.398 . S
C96 H123 0.929 . S
C97 O110 1.271 1_565 S
C97 O111 1.251 . S
C98 O112 1.252 1_655 S
C98 O113 1.272 . S
C99 Sm89 2.846 . S
C99 C100 1.506 . S
C99 O114 1.307 . S
C99 O115 1.242 . S
C100 C99 1.506 . S
C100 C101 1.358 . S
C100 C105 1.382 . S
C101 C100 1.358 . S
C101 C102 1.385 . S
C101 H124 0.930 1_655 S
C102 C101 1.385 . S
C102 C103 1.395 . S
C102 H125 0.929 1_655 S
C103 C102 1.395 . S
C103 C104 1.335 . S
C104 C103 1.335 . S
C104 C105 1.398 . S
C104 H126 0.930 . S
C105 C100 1.382 . S
C105 C104 1.398 . S
C105 H127 0.929 . S
C106 O116 1.271 1_545 S
C106 O117 1.251 . S
C107 O118 1.252 1_455 S
C107 O119 1.272 . S
O108 Sm88 2.543 . S
O108 C90 1.261 . S
O109 Sm88 2.450 . S
O109 C90 1.242 . S
O110 Sm88 2.681 1_545 S
O110 Sm89 2.386 1_455 S
O110 C97 1.271 1_545 S
O111 Sm88 2.464 . S
O111 C97 1.251 . S
O112 Sm88 2.396 . S
O112 C98 1.252 1_455 S
O113 Sm89 2.408 1_565 S
O113 C98 1.272 . S
O114 Sm89 2.562 . S
O114 C99 1.307 . S
O115 Sm89 2.450 . S
O115 C99 1.242 . S
O116 Sm88 2.386 1_655 S
O116 Sm89 2.681 1_565 S
O116 C106 1.271 1_565 S
O117 Sm89 2.464 . S
O117 C106 1.251 . S
O118 Sm89 2.396 . S
O118 C107 1.252 1_655 S
O119 Sm88 2.408 1_545 S
O119 C107 1.272 . S
H120 C92 0.930 1_655 S
H121 C93 0.929 1_655 S
H122 C95 0.930 1_554 S
H123 C96 0.929 . S
H124 C101 0.930 1_455 S
H125 C102 0.929 1_455 S
H126 C104 0.930 . S
H127 C105 0.929 . S
Sm128 C130 2.846 . S
Sm128 O148 2.543 . S
Sm128 O149 2.450 . S
Sm128 O150 2.681 . S
Sm128 O151 2.464 . S
Sm128 O152 2.396 . S
Sm128 O156 2.386 1_545 S
Sm128 O159 2.408 . S
Sm129 C139 2.846 . S
Sm129 O150 2.386 1_565 S
Sm129 O153 2.408 . S
Sm129 O154 2.560 . S
Sm129 O155 2.450 . S
Sm129 O156 2.681 . S
Sm129 O157 2.464 . S
Sm129 O158 2.396 . S
C130 Sm128 2.846 . S
C130 C131 1.506 . S
C130 O148 1.261 . S
C130 O149 1.242 . S
C131 C130 1.506 . S
C131 C132 1.358 . S
C131 C136 1.382 . S
C132 C131 1.358 . S
C132 C133 1.385 1_556 S
C132 H160 0.930 1_545 S
C133 C132 1.385 1_554 S
C133 C134 1.395 . S
C133 H161 0.929 1_545 S
C134 C133 1.395 . S
C134 C135 1.335 1_554 S
C135 C134 1.335 1_556 S
C135 C136 1.398 . S
C135 H162 0.930 1_556 S
C136 C131 1.382 . S
C136 C135 1.398 . S
C136 H163 0.929 . S
C137 O150 1.271 . S
C137 O151 1.251 . S
C138 O152 1.252 1_565 S
C138 O153 1.272 . S
C139 Sm129 2.846 . S
C139 C140 1.506 . S
C139 O154 1.303 . S
C139 O155 1.242 . S
C140 C139 1.506 . S
C140 C141 1.358 . S
C140 C145 1.382 . S
C141 C140 1.358 . S
C141 C142 1.385 . S
C141 H164 0.930 1_565 S
C142 C141 1.385 . S
C142 C143 1.395 . S
C142 H165 0.929 1_565 S
C143 C142 1.395 . S
C143 C144 1.335 . S
C144 C143 1.335 . S
C144 C145 1.398 . S
C144 H166 0.930 . S
C145 C140 1.382 . S
C145 C144 1.398 . S
C145 H167 0.929 . S
C146 O156 1.271 . S
C146 O157 1.251 . S
C147 O158 1.252 1_545 S
C147 O159 1.272 . S
O148 Sm128 2.543 . S
O148 C130 1.261 . S
O149 Sm128 2.450 . S
O149 C130 1.242 . S
O150 Sm128 2.681 . S
O150 Sm129 2.386 1_545 S
O150 C137 1.271 . S
O151 Sm128 2.464 . S
O151 C137 1.251 . S
O152 Sm128 2.396 . S
O152 C138 1.252 1_545 S
O153 Sm129 2.408 . S
O153 C138 1.272 . S
O154 Sm129 2.560 . S
O154 C139 1.303 . S
O155 Sm129 2.450 . S
O155 C139 1.242 . S
O156 Sm128 2.386 1_565 S
O156 Sm129 2.681 . S
O156 C146 1.271 . S
O157 Sm129 2.464 . S
O157 C146 1.251 . S
O158 Sm129 2.396 . S
O158 C147 1.252 1_565 S
O159 Sm128 2.408 . S
O159 C147 1.272 . S
H160 C132 0.930 1_565 S
H161 C133 0.929 1_565 S
H162 C135 0.930 1_554 S
H163 C136 0.929 . S
H164 C141 0.930 1_545 S
H165 C142 0.929 1_545 S
H166 C144 0.930 . S
H167 C145 0.929 . S
Sm168 C170 2.846 . S
Sm168 O188 2.543 . S
Sm168 O189 2.450 . S
Sm168 O190 2.681 . S
Sm168 O191 2.464 . S
Sm168 O192 2.396 . S
Sm168 O196 2.386 . S
Sm168 O199 2.408 . S
Sm169 C179 2.846 . S
Sm169 O190 2.386 . S
Sm169 O193 2.408 . S
Sm169 O194 2.543 . S
Sm169 O195 2.450 . S
Sm169 O196 2.681 . S
Sm169 O197 2.464 . S
Sm169 O198 2.396 . S
C170 Sm168 2.846 . S
C170 C171 1.506 . S
C170 O188 1.261 . S
C170 O189 1.242 . S
C171 C170 1.506 . S
C171 C172 1.358 . S
C171 C176 1.382 . S
C172 C171 1.358 . S
C172 C173 1.385 1_556 S
C172 H200 0.930 . S
C173 C172 1.385 1_554 S
C173 C174 1.395 . S
C173 H201 0.929 . S
C174 C173 1.395 . S
C174 C175 1.335 1_554 S
C175 C174 1.335 1_556 S
C175 C176 1.398 . S
C175 H202 0.930 1_556 S
C176 C171 1.382 . S
C176 C175 1.398 . S
C176 H203 0.929 . S
C177 O190 1.271 . S
C177 O191 1.251 . S
C178 O192 1.252 . S
C178 O193 1.272 . S
C179 Sm169 2.846 . S
C179 C180 1.506 . S
C179 O194 1.261 . S
C179 O195 1.242 . S
C180 C179 1.506 . S
C180 C181 1.358 . S
C180 C185 1.382 . S
C181 C180 1.358 . S
C181 C182 1.385 . S
C181 H204 0.930 . S
C182 C181 1.385 . S
C182 C183 1.395 . S
C182 H205 0.929 . S
C183 C182 1.395 . S
C183 C184 1.335 . S
C184 C183 1.335 . S
C184 C185 1.398 . S
C184 H206 0.930 . S
C185 C180 1.382 . S
C185 C184 1.398 . S
C185 H207 0.929 . S
C186 O196 1.271 . S
C186 O197 1.251 . S
C187 O198 1.252 . S
C187 O199 1.272 . S
O188 Sm168 2.543 . S
O188 C170 1.261 . S
O189 Sm168 2.450 . S
O189 C170 1.242 . S
O190 Sm168 2.681 . S
O190 Sm169 2.386 . S
O190 C177 1.271 . S
O191 Sm168 2.464 . S
O191 C177 1.251 . S
O192 Sm168 2.396 . S
O192 C178 1.252 . S
O193 Sm169 2.408 . S
O193 C178 1.272 . S
O194 Sm169 2.543 . S
O194 C179 1.261 . S
O195 Sm169 2.450 . S
O195 C179 1.242 . S
O196 Sm168 2.386 . S
O196 Sm169 2.681 . S
O196 C186 1.271 . S
O197 Sm169 2.464 . S
O197 C186 1.251 . S
O198 Sm169 2.396 . S
O198 C187 1.252 . S
O199 Sm168 2.408 . S
O199 C187 1.272 . S
H200 C172 0.930 . S
H201 C173 0.929 . S
H202 C175 0.930 1_554 S
H203 C176 0.929 . S
H204 C181 0.930 . S
H205 C182 0.929 . S
H206 C184 0.930 . S
H207 C185 0.929 . S
Sm208 C210 2.846 . S
Sm208 O228 2.543 . S
Sm208 O229 2.450 . S
Sm208 O230 2.681 1_655 S
Sm208 O231 2.464 . S
Sm208 O232 2.396 . S
Sm208 O236 2.386 . S
Sm208 O239 2.408 1_655 S
Sm209 C219 2.846 . S
Sm209 O230 2.386 . S
Sm209 O233 2.408 1_455 S
Sm209 O234 2.543 . S
Sm209 O235 2.450 . S
Sm209 O236 2.681 1_455 S
Sm209 O237 2.464 . S
Sm209 O238 2.396 . S
C210 Sm208 2.846 . S
C210 C211 1.506 . S
C210 O228 1.261 . S
C210 O229 1.242 . S
C211 C210 1.506 . S
C211 C212 1.358 . S
C211 C216 1.382 . S
C212 C211 1.358 . S
C212 C213 1.385 1_556 S
C212 H240 0.930 . S
C213 C212 1.385 1_554 S
C213 C214 1.395 . S
C213 H241 0.929 . S
C214 C213 1.395 . S
C214 C215 1.335 1_554 S
C215 C214 1.335 1_556 S
C215 C216 1.398 . S
C215 H242 0.930 1_556 S
C216 C211 1.382 . S
C216 C215 1.398 . S
C216 H243 0.929 . S
C217 O230 1.258 1_655 S
C217 O231 1.275 . S
C218 O232 1.252 . S
C218 O233 1.272 . S
C219 Sm209 2.846 . S
C219 C220 1.506 . S
C219 O234 1.261 . S
C219 O235 1.242 . S
C220 C219 1.506 . S
C220 C221 1.358 . S
C220 C225 1.382 . S
C221 C220 1.358 . S
C221 C222 1.385 . S
C221 H244 0.930 . S
C222 C221 1.385 . S
C222 C223 1.395 . S
C222 H245 0.929 . S
C223 C222 1.395 . S
C223 C224 1.335 . S
C224 C223 1.335 . S
C224 C225 1.398 . S
C224 H246 0.930 . S
C225 C220 1.382 . S
C225 C224 1.398 . S
C225 H247 0.929 . S
C226 O236 1.271 1_455 S
C226 O237 1.251 . S
C227 O238 1.252 . S
C227 O239 1.272 . S
O228 Sm208 2.543 . S
O228 C210 1.261 . S
O229 Sm208 2.450 . S
O229 C210 1.242 . S
O230 Sm208 2.681 1_455 S
O230 Sm209 2.386 . S
O230 C217 1.258 1_455 S
O231 Sm208 2.464 . S
O231 C217 1.275 . S
O232 Sm208 2.396 . S
O232 C218 1.252 . S
O233 Sm209 2.408 1_655 S
O233 C218 1.272 . S
O234 Sm209 2.543 . S
O234 C219 1.261 . S
O235 Sm209 2.450 . S
O235 C219 1.242 . S
O236 Sm208 2.386 . S
O236 Sm209 2.681 1_655 S
O236 C226 1.271 1_655 S
O237 Sm209 2.464 . S
O237 C226 1.251 . S
O238 Sm209 2.396 . S
O238 C227 1.252 . S
O239 Sm208 2.408 1_455 S
O239 C227 1.272 . S
H240 C212 0.930 . S
H241 C213 0.929 . S
H242 C215 0.930 1_554 S
H243 C216 0.929 . S
H244 C221 0.930 . S
H245 C222 0.929 . S
H246 C224 0.930 . S
H247 C225 0.929 . S
H248 C254 0.930 . S
H249 C258 0.930 . S
H250 C263 0.929 . S
H251 C261 0.929 . S
H252 C256 0.929 . S
H253 C262 0.929 . S
C254 H248 0.930 . S
C254 C255 1.372 . S
C254 C262 1.378 . S
C255 C254 1.372 . S
C255 C263 1.428 1_565 S
C256 H252 0.929 . S
C256 C258 1.378 . S
C256 C260 1.350 . S
C257 C260 1.463 1_565 S
C257 C262 1.345 . S
C257 N265 1.432 1_565 S
C258 H249 0.930 . S
C258 C256 1.378 . S
C258 C259 1.367 . S
C259 C258 1.367 . S
C259 C261 1.433 1_545 S
C260 C256 1.350 . S
C260 C257 1.463 1_545 S
C260 N264 1.427 1_545 S
C261 H251 0.929 . S
C261 C259 1.433 1_565 S
C261 N264 1.384 . S
C262 H253 0.929 . S
C262 C254 1.378 . S
C262 C257 1.345 . S
C263 H250 0.929 . S
C263 C255 1.428 1_545 S
C263 N265 1.384 . S
N264 C260 1.427 1_565 S
N264 C261 1.384 . S
N265 C257 1.432 1_545 S
N265 C263 1.384 . S
H266 C272 0.930 . S
H267 C276 0.930 . S
H268 C281 0.929 . S
H269 C279 0.929 . S
H270 C274 0.929 . S
H271 C280 0.929 . S
C272 H266 0.930 . S
C272 C273 1.367 . S
C272 C280 1.378 . S
C273 C272 1.367 . S
C273 C281 1.433 . S
C274 H270 0.929 . S
C274 C276 1.378 . S
C274 C278 1.350 . S
C275 C278 1.463 . S
C275 C280 1.350 . S
C275 N283 1.427 . S
C276 H267 0.930 . S
C276 C274 1.378 . S
C276 C277 1.367 . S
C277 C276 1.367 . S
C277 C279 1.433 . S
C278 C274 1.350 . S
C278 C275 1.463 . S
C278 N282 1.427 . S
C279 H269 0.929 . S
C279 C277 1.433 . S
C279 N282 1.384 . S
C280 H271 0.929 . S
C280 C272 1.378 . S
C280 C275 1.350 . S
C281 H268 0.929 . S
C281 C273 1.433 . S
C281 N283 1.384 . S
N282 C278 1.427 . S
N282 C279 1.384 . S
N283 C275 1.427 . S
N283 C281 1.384 . S
H284 C290 0.930 . S
H285 C294 0.930 . S
H286 C299 0.929 . S
H287 C297 0.929 . S
H288 C292 0.929 . S
H289 C298 0.929 . S
C290 H284 0.930 . S
C290 C291 1.367 . S
C290 C298 1.378 . S
C291 C290 1.367 . S
C291 C299 1.433 . S
C292 H288 0.929 . S
C292 C294 1.378 . S
C292 C296 1.350 . S
C293 C296 1.463 . S
C293 C298 1.350 . S
C293 N301 1.427 . S
C294 H285 0.930 . S
C294 C292 1.378 . S
C294 C295 1.367 . S
C295 C294 1.367 . S
C295 C297 1.433 . S
C296 C292 1.350 . S
C296 C293 1.463 . S
C296 N300 1.427 . S
C297 H287 0.929 . S
C297 C295 1.433 . S
C297 N300 1.384 . S
C298 H289 0.929 . S
C298 C290 1.378 . S
C298 C293 1.350 . S
C299 H286 0.929 . S
C299 C291 1.433 . S
C299 N301 1.384 . S
N300 C296 1.427 . S
N300 C297 1.384 . S
N301 C293 1.427 . S
N301 C299 1.384 . S
H302 C308 0.930 . S
H303 C312 0.930 . S
H304 C317 0.929 . S
H305 C315 0.929 . S
H306 C310 0.929 . S
H307 C316 0.929 . S
C308 H302 0.930 . S
C308 C309 1.384 . S
C308 C316 1.378 . S
C309 C308 1.384 . S
C309 C317 1.416 1_455 S
C310 H306 0.929 . S
C310 C312 1.378 . S
C310 C314 1.336 1_655 S
C311 C314 1.463 . S
C311 C316 1.350 . S
C311 N319 1.427 1_455 S
C312 H303 0.930 . S
C312 C310 1.378 . S
C312 C313 1.367 1_655 S
C313 C312 1.367 1_455 S
C313 C315 1.433 . S
C314 C310 1.336 1_455 S
C314 C311 1.463 . S
C314 N318 1.442 . S
C315 H305 0.929 . S
C315 C313 1.433 . S
C315 N318 1.384 . S
C316 H307 0.929 . S
C316 C308 1.378 . S
C316 C311 1.350 . S
C317 H304 0.929 . S
C317 C309 1.416 1_655 S
C317 N319 1.384 . S
N318 C314 1.442 . S
N318 C315 1.384 . S
N319 C311 1.427 1_655 S
N319 C317 1.384 . S
H320 C326 0.930 . S
H321 C330 0.930 . S
H322 C335 0.929 . S
H323 C333 0.929 . S
H324 C328 0.929 . S
H325 C334 0.929 . S
C326 H320 0.930 . S
C326 C327 1.370 . S
C326 C334 1.378 . S
C327 C326 1.370 . S
C327 C335 1.430 1_545 S
C328 H324 0.929 . S
C328 C330 1.378 . S
C328 C332 1.350 1_556 S
C329 C332 1.462 . S
C329 C334 1.351 1_565 S
C329 N337 1.426 . S
C330 H321 0.930 . S
C330 C328 1.378 . S
C330 C331 1.367 . S
C331 C330 1.367 . S
C331 C333 1.433 1_565 S
C332 C328 1.350 1_554 S
C332 C329 1.462 . S
C332 N336 1.427 1_565 S
C333 H323 0.929 . S
C333 C331 1.433 1_545 S
C333 N336 1.384 1_556 S
C334 H325 0.929 . S
C334 C326 1.378 . S
C334 C329 1.351 1_545 S
C335 H322 0.929 . S
C335 C327 1.430 1_565 S
C335 N337 1.384 . S
N336 C332 1.427 1_545 S
N336 C333 1.384 1_554 S
N337 C329 1.426 . S
N337 C335 1.384 . S
H338 C344 0.930 . S
H339 C348 0.930 . S
H340 C353 0.929 . S
H341 C351 0.929 . S
H342 C346 0.929 . S
H343 C352 0.929 . S
C344 H338 0.930 . S
C344 C345 1.367 . S
C344 C352 1.378 . S
C345 C344 1.367 . S
C345 C353 1.433 . S
C346 H342 0.929 . S
C346 C348 1.378 1_554 S
C346 C350 1.350 . S
C347 C350 1.463 . S
C347 C352 1.350 . S
C347 N355 1.427 . S
C348 H339 0.930 . S
C348 C346 1.378 1_556 S
C348 C349 1.367 . S
C349 C348 1.367 . S
C349 C351 1.433 . S
C350 C346 1.350 . S
C350 C347 1.463 . S
C350 N354 1.427 1_554 S
C351 H341 0.929 . S
C351 C349 1.433 . S
C351 N354 1.384 . S
C352 H343 0.929 . S
C352 C344 1.378 . S
C352 C347 1.350 . S
C353 H340 0.929 . S
C353 C345 1.433 . S
C353 N355 1.384 . S
N354 C350 1.427 1_556 S
N354 C351 1.384 . S
N355 C347 1.427 . S
N355 C353 1.384 . S
H356 C362 0.930 . S
H357 C366 0.930 . S
H358 C371 0.929 . S
H359 C369 0.929 . S
H360 C364 0.929 . S
H361 C370 0.929 . S
C362 H356 0.930 . S
C362 C363 1.367 . S
C362 C370 1.378 . S
C363 C362 1.367 . S
C363 C371 1.433 . S
C364 H360 0.929 . S
C364 C366 1.378 . S
C364 C368 1.350 1_556 S
C365 C368 1.463 . S
C365 C370 1.350 . S
C365 N373 1.427 . S
C366 H357 0.930 . S
C366 C364 1.378 . S
C366 C367 1.367 . S
C367 C366 1.367 . S
C367 C369 1.433 . S
C368 C364 1.350 1_554 S
C368 C365 1.463 . S
C368 N372 1.427 . S
C369 H359 0.929 . S
C369 C367 1.433 . S
C369 N372 1.384 1_556 S
C370 H361 0.929 . S
C370 C362 1.378 . S
C370 C365 1.350 . S
C371 H358 0.929 . S
C371 C363 1.433 . S
C371 N373 1.384 . S
N372 C368 1.427 . S
N372 C369 1.384 1_554 S
N373 C365 1.427 . S
N373 C371 1.384 . S
H374 C380 0.930 . S
H375 C384 0.930 . S
H376 C389 0.929 . S
H377 C387 0.929 . S
H378 C382 0.929 . S
H379 C388 0.929 . S
C380 H374 0.930 . S
C380 C381 1.367 1_455 S
C380 C388 1.378 . S
C381 C380 1.367 1_655 S
C381 C389 1.433 . S
C382 H378 0.929 . S
C382 C384 1.378 . S
C382 C386 1.350 1_556 S
C383 C386 1.463 . S
C383 C388 1.343 1_655 S
C383 N391 1.435 . S
C384 H375 0.930 . S
C384 C382 1.378 . S
C384 C385 1.367 . S
C385 C384 1.367 . S
C385 C387 1.433 1_655 S
C386 C382 1.350 1_554 S
C386 C383 1.463 . S
C386 N390 1.427 1_655 S
C387 H377 0.929 . S
C387 C385 1.433 1_455 S
C387 N390 1.384 1_556 S
C388 H379 0.929 . S
C388 C380 1.378 . S
C388 C383 1.343 1_455 S
C389 H376 0.929 . S
C389 C381 1.433 . S
C389 N391 1.384 . S
N390 C386 1.427 1_455 S
N390 C387 1.384 1_554 S
N391 C383 1.435 . S
N391 C389 1.384 . S
H392 C398 0.922 1_455 S
H393 C402 0.930 . S
H394 C407 0.929 . S
H395 C405 0.929 . S
H396 C400 0.929 . S
H397 C406 0.929 . S
C398 H392 0.922 1_655 S
C398 C399 1.363 1_655 S
C398 C406 1.392 . S
C399 C398 1.363 1_455 S
C399 C407 1.425 1_455 S
C400 H396 0.929 . S
C400 C402 1.378 . S
C400 C404 1.350 . S
C401 C404 1.463 . S
C401 C406 1.350 . S
C401 N409 1.427 . S
C402 H393 0.930 . S
C402 C400 1.378 . S
C402 C403 1.367 . S
C403 C402 1.367 . S
C403 C405 1.433 . S
C404 C400 1.350 . S
C404 C401 1.463 . S
C404 N408 1.427 . S
C405 H395 0.929 . S
C405 C403 1.433 . S
C405 N408 1.384 . S
C406 H397 0.929 . S
C406 C398 1.392 . S
C406 C401 1.350 . S
C407 H394 0.929 . S
C407 C399 1.425 1_655 S
C407 N409 1.384 . S
N408 C404 1.427 . S
N408 C405 1.384 . S
N409 C401 1.427 . S
N409 C407 1.384 . S
H410 C416 0.930 . S
H411 C420 0.930 . S
H412 C425 0.929 . S
H413 C423 0.929 1_545 S
H414 C418 0.929 . S
H415 C424 0.929 . S
C416 H410 0.930 . S
C416 C417 1.367 . S
C416 C424 1.378 . S
C417 C416 1.367 . S
C417 C425 1.433 1_545 S
C418 H414 0.929 . S
C418 C420 1.378 . S
C418 C422 1.350 . S
C419 C422 1.463 . S
C419 C424 1.350 1_565 S
C419 N427 1.427 . S
C420 H411 0.930 . S
C420 C418 1.378 . S
C420 C421 1.367 . S
C421 C420 1.367 . S
C421 C423 1.433 . S
C422 C418 1.350 . S
C422 C419 1.463 . S
C422 N426 1.427 . S
C423 H413 0.929 1_565 S
C423 C421 1.433 . S
C423 N426 1.384 . S
C424 H415 0.929 . S
C424 C416 1.378 . S
C424 C419 1.350 1_545 S
C425 H412 0.929 . S
C425 C417 1.433 1_565 S
C425 N427 1.384 . S
N426 C422 1.427 . S
N426 C423 1.384 . S
N427 C419 1.427 . S
N427 C425 1.384 . S
H428 C434 0.930 . S
H429 C438 0.930 . S
H430 C443 0.929 . S
H431 C441 0.929 . S
H432 C436 0.929 . S
H433 C442 0.929 . S
C434 H428 0.930 . S
C434 C435 1.367 . S
C434 C442 1.378 . S
C435 C434 1.367 . S
C435 C443 1.433 . S
C436 H432 0.929 . S
C436 C438 1.378 . S
C436 C440 1.350 . S
C437 C440 1.463 . S
C437 C442 1.350 . S
C437 N445 1.427 . S
C438 H429 0.930 . S
C438 C436 1.378 . S
C438 C439 1.367 . S
C439 C438 1.367 . S
C439 C441 1.433 . S
C440 C436 1.350 . S
C440 C437 1.463 . S
C440 N444 1.427 . S
C441 H431 0.929 . S
C441 C439 1.433 . S
C441 N444 1.384 . S
C442 H433 0.929 . S
C442 C434 1.378 . S
C442 C437 1.350 . S
C443 H430 0.929 . S
C443 C435 1.433 . S
C443 N445 1.384 . S
N444 C440 1.427 . S
N444 C441 1.384 . S
N445 C437 1.427 . S
N445 C443 1.384 . S
H446 C452 0.930 . S
H447 C456 0.930 . S
H448 C461 0.929 . S
H449 C459 0.929 . S
H450 C454 0.929 . S
H451 C460 0.929 . S
C452 H446 0.930 . S
C452 C453 1.367 . S
C452 C460 1.378 . S
C453 C452 1.367 . S
C453 C461 1.433 . S
C454 H450 0.929 . S
C454 C456 1.378 . S
C454 C458 1.350 . S
C455 C458 1.463 . S
C455 C460 1.350 . S
C455 N463 1.427 . S
C456 H447 0.930 . S
C456 C454 1.378 . S
C456 C457 1.367 . S
C457 C456 1.367 . S
C457 C459 1.433 . S
C458 C454 1.350 . S
C458 C455 1.463 . S
C458 N462 1.427 . S
C459 H449 0.929 . S
C459 C457 1.433 . S
C459 N462 1.384 . S
C460 H451 0.929 . S
C460 C452 1.378 . S
C460 C455 1.350 . S
C461 H448 0.929 . S
C461 C453 1.433 . S
C461 N463 1.384 . S
N462 C458 1.427 . S
N462 C459 1.384 . S
N463 C455 1.427 . S
N463 C461 1.384 . S
H464 C470 0.930 . S
H465 C474 0.930 1_556 S
H466 C479 0.929 . S
H467 C477 0.929 . S
H468 C472 0.929 1_655 S
H469 C478 0.929 . S
C470 H464 0.930 . S
C470 C471 1.346 1_455 S
C470 C478 1.378 . S
C471 C470 1.346 1_655 S
C471 C479 1.448 . S
C472 H468 0.929 1_455 S
C472 C474 1.378 . S
C472 C476 1.350 . S
C473 C476 1.463 . S
C473 C478 1.350 . S
C473 N481 1.427 1_455 S
C474 H465 0.930 1_554 S
C474 C472 1.378 . S
C474 C475 1.367 . S
C475 C474 1.367 . S
C475 C477 1.433 . S
C476 C472 1.350 . S
C476 C473 1.463 . S
C476 N480 1.427 . S
C477 H467 0.929 . S
C477 C475 1.433 . S
C477 N480 1.384 . S
C478 H469 0.929 . S
C478 C470 1.378 . S
C478 C473 1.350 . S
C479 H466 0.929 . S
C479 C471 1.448 . S
C479 N481 1.384 . S
N480 C476 1.427 . S
N480 C477 1.384 . S
N481 C473 1.427 1_655 S
N481 C479 1.384 . S
H482 C488 0.930 . S
H483 C492 0.930 . S
H484 C497 0.929 . S
H485 C495 0.929 1_556 S
H486 C490 0.929 . S
H487 C496 0.929 . S
C488 H482 0.930 . S
C488 C489 1.367 . S
C488 C496 1.378 . S
C489 C488 1.367 . S
C489 C497 1.433 1_565 S
C490 H486 0.929 . S
C490 C492 1.378 . S
C490 C494 1.350 . S
C491 C494 1.463 . S
C491 C496 1.350 1_545 S
C491 N499 1.427 . S
C492 H483 0.930 . S
C492 C490 1.378 . S
C492 C493 1.367 . S
C493 C492 1.367 . S
C493 C495 1.433 . S
C494 C490 1.350 . S
C494 C491 1.463 . S
C494 N498 1.427 . S
C495 H485 0.929 1_554 S
C495 C493 1.433 . S
C495 N498 1.384 . S
C496 H487 0.929 . S
C496 C488 1.378 . S
C496 C491 1.350 1_565 S
C497 H484 0.929 . S
C497 C489 1.433 1_545 S
C497 N499 1.384 . S
N498 C494 1.427 . S
N498 C495 1.384 . S
N499 C491 1.427 . S
N499 C497 1.384 . S
H500 C506 0.930 . S
H501 C510 0.930 . S
H502 C515 0.929 . S
H503 C513 0.929 . S
H504 C508 0.929 . S
H505 C514 0.929 . S
C506 H500 0.930 . S
C506 C507 1.367 . S
C506 C514 1.378 . S
C507 C506 1.367 . S
C507 C515 1.433 . S
C508 H504 0.929 . S
C508 C510 1.378 . S
C508 C512 1.350 . S
C509 C512 1.463 . S
C509 C514 1.350 . S
C509 N517 1.427 . S
C510 H501 0.930 . S
C510 C508 1.378 . S
C510 C511 1.367 . S
C511 C510 1.367 . S
C511 C513 1.433 1_554 S
C512 C508 1.350 . S
C512 C509 1.463 . S
C512 N516 1.427 . S
C513 H503 0.929 . S
C513 C511 1.433 1_556 S
C513 N516 1.384 1_556 S
C514 H505 0.929 . S
C514 C506 1.378 . S
C514 C509 1.350 . S
C515 H502 0.929 . S
C515 C507 1.433 . S
C515 N517 1.384 . S
N516 C512 1.427 . S
N516 C513 1.384 1_554 S
N517 C509 1.427 . S
N517 C515 1.384 . S
H518 C524 0.930 . S
H519 C528 0.930 . S
H520 C533 0.929 . S
H521 C531 0.932 . S
H522 C526 0.929 . S
H523 C532 0.929 . S
C524 H518 0.930 . S
C524 C525 1.367 . S
C524 C532 1.378 . S
C525 C524 1.367 . S
C525 C533 1.433 . S
C526 H522 0.929 . S
C526 C528 1.378 . S
C526 C530 1.350 . S
C527 C530 1.463 . S
C527 C532 1.350 . S
C527 N535 1.427 . S
C528 H519 0.930 . S
C528 C526 1.378 . S
C528 C529 1.367 . S
C529 C528 1.367 . S
C529 C531 1.433 . S
C530 C526 1.350 . S
C530 C527 1.463 . S
C530 N534 1.427 . S
C531 H521 0.932 . S
C531 C529 1.433 . S
C531 N534 1.384 . S
C532 H523 0.929 . S
C532 C524 1.378 . S
C532 C527 1.350 . S
C533 H520 0.929 . S
C533 C525 1.433 . S
C533 N535 1.384 . S
N534 C530 1.427 . S
N534 C531 1.384 . S
N535 C527 1.427 . S
N535 C533 1.384 . S
H536 C542 0.930 . S
H537 C546 0.930 . S
H538 C551 0.929 . S
H539 C549 0.929 . S
H540 C544 0.929 . S
H541 C550 0.929 . S
C542 H536 0.930 . S
C542 C543 1.367 . S
C542 C550 1.378 . S
C543 C542 1.367 . S
C543 C551 1.433 1_455 S
C544 H540 0.929 . S
C544 C546 1.378 . S
C544 C548 1.350 1_655 S
C545 C548 1.463 . S
C545 C550 1.350 . S
C545 N553 1.427 1_455 S
C546 H537 0.930 . S
C546 C544 1.378 . S
C546 C547 1.367 1_655 S
C547 C546 1.367 1_455 S
C547 C549 1.433 . S
C548 C544 1.350 1_455 S
C548 C545 1.463 . S
C548 N552 1.427 . S
C549 H539 0.929 . S
C549 C547 1.433 . S
C549 N552 1.384 . S
C550 H541 0.929 . S
C550 C542 1.378 . S
C550 C545 1.350 . S
C551 H538 0.929 . S
C551 C543 1.433 1_655 S
C551 N553 1.384 . S
N552 C548 1.427 . S
N552 C549 1.384 . S
N553 C545 1.427 1_655 S
N553 C551 1.384 . S
H554 C560 0.930 . S
H555 C564 0.930 . S
H556 C569 0.929 . S
H557 C567 0.929 . S
H558 C562 0.929 . S
H559 C568 0.929 . S
C560 H554 0.930 . S
C560 C561 1.367 1_565 S
C560 C568 1.378 . S
C561 C560 1.367 1_545 S
C561 C569 1.433 . S
C562 H558 0.929 . S
C562 C564 1.378 . S
C562 C566 1.350 . S
C563 C566 1.463 . S
C563 C568 1.350 1_545 S
C563 N571 1.427 . S
C564 H555 0.930 . S
C564 C562 1.378 . S
C564 C565 1.367 . S
C565 C564 1.367 . S
C565 C567 1.433 1_545 S
C566 C562 1.350 . S
C566 C563 1.463 . S
C566 N570 1.427 1_545 S
C567 H557 0.929 . S
C567 C565 1.433 1_565 S
C567 N570 1.384 . S
C568 H559 0.929 . S
C568 C560 1.378 . S
C568 C563 1.350 1_565 S
C569 H556 0.929 . S
C569 C561 1.433 . S
C569 N571 1.384 . S
N570 C566 1.427 1_565 S
N570 C567 1.384 . S
N571 C563 1.427 . S
N571 C569 1.384 . S
H572 C578 0.930 . S
H573 C582 0.930 . S
H574 C587 0.929 . S
H575 C585 0.929 . S
H576 C580 0.929 . S
H577 C586 0.929 . S
C578 H572 0.930 . S
C578 C579 1.367 . S
C578 C586 1.378 . S
C579 C578 1.367 . S
C579 C587 1.433 . S
C580 H576 0.929 . S
C580 C582 1.378 . S
C580 C584 1.350 . S
C581 C584 1.463 . S
C581 C586 1.350 . S
C581 N589 1.427 . S
C582 H573 0.930 . S
C582 C580 1.378 . S
C582 C583 1.367 . S
C583 C582 1.367 . S
C583 C585 1.433 . S
C584 C580 1.350 . S
C584 C581 1.463 . S
C584 N588 1.427 . S
C585 H575 0.929 . S
C585 C583 1.433 . S
C585 N588 1.384 . S
C586 H577 0.929 . S
C586 C578 1.378 . S
C586 C581 1.350 . S
C587 H574 0.929 . S
C587 C579 1.433 . S
C587 N589 1.384 . S
N588 C584 1.427 . S
N588 C585 1.384 . S
N589 C581 1.427 . S
N589 C587 1.384 . S
H590 C596 0.930 . S
H591 C600 0.930 . S
H592 C605 0.929 . S
H593 C603 0.929 . S
H594 C598 0.929 . S
H595 C604 0.929 . S
C596 H590 0.930 . S
C596 C597 1.367 . S
C596 C604 1.378 . S
C597 C596 1.367 . S
C597 C605 1.433 . S
C598 H594 0.929 . S
C598 C600 1.378 . S
C598 C602 1.350 . S
C599 C602 1.463 . S
C599 C604 1.350 . S
C599 N607 1.427 . S
C600 H591 0.930 . S
C600 C598 1.378 . S
C600 C601 1.367 . S
C601 C600 1.367 . S
C601 C603 1.433 . S
C602 C598 1.350 . S
C602 C599 1.463 . S
C602 N606 1.427 . S
C603 H593 0.929 . S
C603 C601 1.433 . S
C603 N606 1.384 . S
C604 H595 0.929 . S
C604 C596 1.378 . S
C604 C599 1.350 . S
C605 H592 0.929 . S
C605 C597 1.433 . S
C605 N607 1.384 . S
N606 C602 1.427 . S
N606 C603 1.384 . S
N607 C599 1.427 . S
N607 C605 1.384 . S
H608 C614 0.930 . S
H609 C618 0.930 . S
H610 C623 0.929 . S
H611 C621 0.929 . S
H612 C616 0.929 . S
H613 C622 0.929 . S
C614 H608 0.930 . S
C614 C615 1.367 . S
C614 C622 1.378 . S
C615 C614 1.367 . S
C615 C623 1.433 1_655 S
C616 H612 0.929 . S
C616 C618 1.378 . S
C616 C620 1.350 1_455 S
C617 C620 1.463 . S
C617 C622 1.350 . S
C617 N625 1.427 1_655 S
C618 H609 0.930 . S
C618 C616 1.378 . S
C618 C619 1.367 1_455 S
C619 C618 1.367 1_655 S
C619 C621 1.433 . S
C620 C616 1.350 1_655 S
C620 C617 1.463 . S
C620 N624 1.427 . S
C621 H611 0.929 . S
C621 C619 1.433 . S
C621 N624 1.384 . S
C622 H613 0.929 . S
C622 C614 1.378 . S
C622 C617 1.350 . S
C623 H610 0.929 . S
C623 C615 1.433 1_455 S
C623 N625 1.384 . S
N624 C620 1.427 . S
N624 C621 1.384 . S
N625 C617 1.427 1_455 S
N625 C623 1.384 . S
H626 C632 0.930 . S
H627 C636 0.930 . S
H628 C641 0.929 . S
H629 C639 0.927 . S
H630 C634 0.929 . S
H631 C640 0.929 . S
C632 H626 0.930 . S
C632 C633 1.367 1_545 S
C632 C640 1.378 . S
C633 C632 1.367 1_565 S
C633 C641 1.433 . S
C634 H630 0.929 . S
C634 C636 1.378 . S
C634 C638 1.350 . S
C635 C638 1.463 . S
C635 C640 1.350 1_565 S
C635 N643 1.427 . S
C636 H627 0.930 . S
C636 C634 1.378 . S
C636 C637 1.367 . S
C637 C636 1.367 . S
C637 C639 1.436 1_565 S
C638 C634 1.350 . S
C638 C635 1.463 . S
C638 N642 1.427 1_565 S
C639 H629 0.927 . S
C639 C637 1.436 1_545 S
C639 N642 1.383 . S
C640 H631 0.929 . S
C640 C632 1.378 . S
C640 C635 1.350 1_545 S
C641 H628 0.929 . S
C641 C633 1.433 . S
C641 N643 1.384 . S
N642 C638 1.427 1_545 S
N642 C639 1.383 . S
N643 C635 1.427 . S
N643 C641 1.384 . S
H644 C650 0.930 . S
H645 C654 0.930 . S
H646 C659 0.929 . S
H647 C657 0.929 . S
H648 C652 0.929 . S
H649 C658 0.929 . S
C650 H644 0.930 . S
C650 C651 1.367 . S
C650 C658 1.378 . S
C651 C650 1.367 . S
C651 C659 1.433 . S
C652 H648 0.929 . S
C652 C654 1.378 . S
C652 C656 1.350 . S
C653 C656 1.463 . S
C653 C658 1.350 . S
C653 N661 1.427 . S
C654 H645 0.930 . S
C654 C652 1.378 . S
C654 C655 1.367 . S
C655 C654 1.367 . S
C655 C657 1.433 . S
C656 C652 1.350 . S
C656 C653 1.463 . S
C656 N660 1.427 . S
C657 H647 0.929 . S
C657 C655 1.433 . S
C657 N660 1.384 . S
C658 H649 0.929 . S
C658 C650 1.378 . S
C658 C653 1.350 . S
C659 H646 0.929 . S
C659 C651 1.433 . S
C659 N661 1.384 . S
N660 C656 1.427 . S
N660 C657 1.384 . S
N661 C653 1.427 . S
N661 C659 1.384 . S
H662 C668 0.930 . S
H663 C672 0.930 . S
H664 C677 0.929 . S
H665 C675 0.929 . S
H666 C670 0.929 . S
H667 C676 0.929 . S
C668 H662 0.930 . S
C668 C669 1.367 . S
C668 C676 1.378 . S
C669 C668 1.367 . S
C669 C677 1.433 . S
C670 H666 0.929 . S
C670 C672 1.378 . S
C670 C674 1.350 . S
C671 C674 1.463 . S
C671 C676 1.350 . S
C671 N679 1.427 . S
C672 H663 0.930 . S
C672 C670 1.378 . S
C672 C673 1.367 . S
C673 C672 1.367 . S
C673 C675 1.433 . S
C674 C670 1.350 . S
C674 C671 1.463 . S
C674 N678 1.427 . S
C675 H665 0.929 . S
C675 C673 1.433 . S
C675 N678 1.384 . S
C676 H667 0.929 . S
C676 C668 1.378 . S
C676 C671 1.350 . S
C677 H664 0.929 . S
C677 C669 1.433 . S
C677 N679 1.384 . S
N678 C674 1.427 . S
N678 C675 1.384 . S
N679 C671 1.427 . S
N679 C677 1.384 . S
C255 C74 1.776 1_565 S
C259 C97 1.874 1_545 S
C277 C137 1.877 . S
C273 C85 1.767 . S
C295 C177 1.877 . S
C291 C52 1.778 . S
C313 C217 1.873 1_455 S
C309 C63 1.773 . S
C331 C106 1.876 1_565 S
C327 C30 1.787 . S
C345 C41 1.774 . S
C349 C146 1.882 . S
C363 C8 1.787 . S
C367 C186 1.879 . S
C381 C19 1.786 1_655 S
C385 C226 1.877 1_655 S
C403 C103 0.605 . S
C399 C62 0.606 . S
C421 C143 0.620 . S
C417 C73 0.587 . S
C439 C183 0.618 . S
C435 C84 0.594 . S
C453 C51 0.588 . S
C457 C223 0.616 . S
C471 C18 0.602 1_655 S
C475 C94 0.594 . S
C493 C134 0.619 . S
C489 C29 0.637 1_565 S
C511 C174 0.613 . S
C507 C40 0.630 . S
C525 C7 0.643 . S
C529 C214 0.622 . S
C543 C60 1.711 . S
C547 C107 2.235 . S
C561 C71 1.720 . S
C565 C147 2.239 . S
C583 C187 2.231 . S
C579 C82 1.691 . S
C601 C227 2.241 . S
C597 C49 1.713 . S
C615 C16 1.789 1_655 S
C619 C98 2.247 . S
C637 C138 2.239 . S
C633 C27 1.780 1_565 S
C655 C178 2.232 . S
C651 C38 1.778 . S
C669 C5 1.787 . S
C673 C218 2.246 . S
