# Generated by pormake.
# Topology ocu, (6,8)-cn, num edge types: 1
# Building blocks:
#     Node 0, Type 0, BuildingBlock: KUMBUR_clean_sbu_0, # of connection points: 6
#     Node 1, Type 0, BuildingBlock: KUMBUR_clean_sbu_0, # of connection points: 6
#     Node 2, Type 0, BuildingBlock: KUMBUR_clean_sbu_0, # of connection points: 6
#     Node 3, Type 0, BuildingBlock: KUMBUR_clean_sbu_0, # of connection points: 6
#     Node 4, Type 0, BuildingBlock: KUMBUR_clean_sbu_0, # of connection points: 6
#     Node 5, Type 0, BuildingBlock: KUMBUR_clean_sbu_0, # of connection points: 6
#     Node 6, Type 0, BuildingBlock: KUMBUR_clean_sbu_0, # of connection points: 6
#     Node 7, Type 0, BuildingBlock: KUMBUR_clean_sbu_0, # of connection points: 6
#     Node 8, Type 1, BuildingBlock: AJUNOK_clean_sbu_0, # of connection points: 8
#     Node 9, Type 1, BuildingBlock: AJUNOK_clean_sbu_0, # of connection points: 8
#     Node 10, Type 1, BuildingBlock: AJUNOK_clean_sbu_0, # of connection points: 8
#     Node 11, Type 1, BuildingBlock: AJUNOK_clean_sbu_0, # of connection points: 8
#     Node 12, Type 1, BuildingBlock: AJUNOK_clean_sbu_0, # of connection points: 8
#     Node 13, Type 1, BuildingBlock: AJUNOK_clean_sbu_0, # of connection points: 8
#     Edge 14, Type (0, 1), BuildingBlock: MIFKUJ_clean_linker_0, # of connection points: 2
#     Edge 15, Type (0, 1), BuildingBlock: MIFKUJ_clean_linker_0, # of connection points: 2
#     Edge 16, Type (0, 1), BuildingBlock: MIFKUJ_clean_linker_0, # of connection points: 2
#     Edge 17, Type (0, 1), BuildingBlock: MIFKUJ_clean_linker_0, # of connection points: 2
#     Edge 18, Type (0, 1), BuildingBlock: MIFKUJ_clean_linker_0, # of connection points: 2
#     Edge 19, Type (0, 1), BuildingBlock: MIFKUJ_clean_linker_0, # of connection points: 2
#     Edge 20, Type (0, 1), BuildingBlock: MIFKUJ_clean_linker_0, # of connection points: 2
#     Edge 21, Type (0, 1), BuildingBlock: MIFKUJ_clean_linker_0, # of connection points: 2
#     Edge 22, Type (0, 1), BuildingBlock: MIFKUJ_clean_linker_0, # of connection points: 2
#     Edge 23, Type (0, 1), BuildingBlock: MIFKUJ_clean_linker_0, # of connection points: 2
#     Edge 24, Type (0, 1), BuildingBlock: MIFKUJ_clean_linker_0, # of connection points: 2
#     Edge 25, Type (0, 1), BuildingBlock: MIFKUJ_clean_linker_0, # of connection points: 2
#     Edge 26, Type (0, 1), BuildingBlock: MIFKUJ_clean_linker_0, # of connection points: 2
#     Edge 27, Type (0, 1), BuildingBlock: MIFKUJ_clean_linker_0, # of connection points: 2
#     Edge 28, Type (0, 1), BuildingBlock: MIFKUJ_clean_linker_0, # of connection points: 2
#     Edge 29, Type (0, 1), BuildingBlock: MIFKUJ_clean_linker_0, # of connection points: 2
#     Edge 30, Type (0, 1), BuildingBlock: MIFKUJ_clean_linker_0, # of connection points: 2
#     Edge 31, Type (0, 1), BuildingBlock: MIFKUJ_clean_linker_0, # of connection points: 2
#     Edge 32, Type (0, 1), BuildingBlock: MIFKUJ_clean_linker_0, # of connection points: 2
#     Edge 33, Type (0, 1), BuildingBlock: MIFKUJ_clean_linker_0, # of connection points: 2
#     Edge 34, Type (0, 1), BuildingBlock: MIFKUJ_clean_linker_0, # of connection points: 2
#     Edge 35, Type (0, 1), BuildingBlock: MIFKUJ_clean_linker_0, # of connection points: 2
#     Edge 36, Type (0, 1), BuildingBlock: MIFKUJ_clean_linker_0, # of connection points: 2
#     Edge 37, Type (0, 1), BuildingBlock: MIFKUJ_clean_linker_0, # of connection points: 2
#     Edge 38, Type (0, 1), BuildingBlock: MIFKUJ_clean_linker_0, # of connection points: 2
#     Edge 39, Type (0, 1), BuildingBlock: MIFKUJ_clean_linker_0, # of connection points: 2
#     Edge 40, Type (0, 1), BuildingBlock: MIFKUJ_clean_linker_0, # of connection points: 2
#     Edge 41, Type (0, 1), BuildingBlock: MIFKUJ_clean_linker_0, # of connection points: 2
#     Edge 42, Type (0, 1), BuildingBlock: MIFKUJ_clean_linker_0, # of connection points: 2
#     Edge 43, Type (0, 1), BuildingBlock: MIFKUJ_clean_linker_0, # of connection points: 2
#     Edge 44, Type (0, 1), BuildingBlock: MIFKUJ_clean_linker_0, # of connection points: 2
#     Edge 45, Type (0, 1), BuildingBlock: MIFKUJ_clean_linker_0, # of connection points: 2
#     Edge 46, Type (0, 1), BuildingBlock: MIFKUJ_clean_linker_0, # of connection points: 2
#     Edge 47, Type (0, 1), BuildingBlock: MIFKUJ_clean_linker_0, # of connection points: 2
#     Edge 48, Type (0, 1), BuildingBlock: MIFKUJ_clean_linker_0, # of connection points: 2
#     Edge 49, Type (0, 1), BuildingBlock: MIFKUJ_clean_linker_0, # of connection points: 2
#     Edge 50, Type (0, 1), BuildingBlock: MIFKUJ_clean_linker_0, # of connection points: 2
#     Edge 51, Type (0, 1), BuildingBlock: MIFKUJ_clean_linker_0, # of connection points: 2
#     Edge 52, Type (0, 1), BuildingBlock: MIFKUJ_clean_linker_0, # of connection points: 2
#     Edge 53, Type (0, 1), BuildingBlock: MIFKUJ_clean_linker_0, # of connection points: 2
#     Edge 54, Type (0, 1), BuildingBlock: MIFKUJ_clean_linker_0, # of connection points: 2
#     Edge 55, Type (0, 1), BuildingBlock: MIFKUJ_clean_linker_0, # of connection points: 2
#     Edge 56, Type (0, 1), BuildingBlock: MIFKUJ_clean_linker_0, # of connection points: 2
#     Edge 57, Type (0, 1), BuildingBlock: MIFKUJ_clean_linker_0, # of connection points: 2
#     Edge 58, Type (0, 1), BuildingBlock: MIFKUJ_clean_linker_0, # of connection points: 2
#     Edge 59, Type (0, 1), BuildingBlock: MIFKUJ_clean_linker_0, # of connection points: 2
#     Edge 60, Type (0, 1), BuildingBlock: MIFKUJ_clean_linker_0, # of connection points: 2
#     Edge 61, Type (0, 1), BuildingBlock: MIFKUJ_clean_linker_0, # of connection points: 2
# Relax obj value: 0.158
# Max RMSD: 0.259
# Mean RMSD: 0.211
data_MOF--net-ocu--node1-KUMBUR_clean_sbu_0--node2-AJUNOK_clean_sbu_0--edge1-MIFKUJ_clean_linker_0
_symmetry_space_group_name_H-M    P1
_symmetry_Int_Tables_number       1
_symmetry_cell_setting            triclinic
loop_
_symmetry_equiv_pos_as_xyz
'x, y, z'
_cell_length_a     54.062023
_cell_length_b     53.163351
_cell_length_c     48.479839
_cell_angle_alpha  88.002299
_cell_angle_beta   103.34607
_cell_angle_gamma 111.69157
loop_
_atom_site_label
_atom_site_type_symbol
_atom_site_fract_x
_atom_site_fract_y
_atom_site_fract_z
_atom_type_partial_charge
Tb0 Tb 0.26181 0.23124 0.2193 0.0
C1 C 0.32863 0.2985 0.33093 0.0
C2 C 0.32784 0.265 0.36605 0.0
C3 C 0.36503 0.30911 0.37395 0.0
C4 C 0.31646 0.27283 0.33957 0.0
C5 C 0.35278 0.31719 0.34822 0.0
C6 C 0.35247 0.28311 0.38294 0.0
C7 C 0.34883 0.35136 0.31526 0.0
N8 N 0.31557 0.30581 0.30654 0.0
C9 C 0.32476 0.33215 0.299 0.0
C10 C 0.36312 0.34376 0.33979 0.0
Tb11 Tb 0.2758 0.2734 0.28177 0.0
N12 N 0.29209 0.2565 0.32321 0.0
C13 C 0.27723 0.23255 0.33306 0.0
C14 C 0.31337 0.23984 0.3754 0.0
C15 C 0.28787 0.22362 0.35891 0.0
H16 H 0.31394 0.33835 0.28012 0.0
H17 H 0.27622 0.20439 0.36626 0.0
H18 H 0.36142 0.27765 0.40345 0.0
H19 H 0.3563 0.37202 0.30886 0.0
H20 H 0.25726 0.21989 0.3209 0.0
H21 H 0.26141 0.3017 0.13585 0.0
H22 H 0.32112 0.23324 0.39577 0.0
H23 H 0.22221 0.16655 0.22073 0.0
H24 H 0.2812 0.28493 0.17981 0.0
H25 H 0.17863 0.13408 0.1926 0.0
H26 H 0.38361 0.32312 0.38755 0.0
H27 H 0.21511 0.2744 0.10761 0.0
H28 H 0.17396 0.23078 0.10038 0.0
H29 H 0.38162 0.35873 0.35249 0.0
H30 H 0.15145 0.18497 0.11572 0.0
N31 N 0.24613 0.24848 0.17766 0.0
C32 C 0.26098 0.27256 0.16799 0.0
C33 C 0.22367 0.26686 0.12707 0.0
C34 C 0.20925 0.2415 0.13608 0.0
C35 C 0.24982 0.28228 0.14291 0.0
C36 C 0.22127 0.23276 0.16168 0.0
H37 H 0.15329 0.14851 0.14984 0.0
N38 N 0.22156 0.19944 0.19446 0.0
C39 C 0.18674 0.15466 0.18621 0.0
C40 C 0.20855 0.20724 0.17034 0.0
C41 C 0.21152 0.17319 0.20208 0.0
C42 C 0.17246 0.16289 0.16211 0.0
C43 C 0.18352 0.18937 0.15365 0.0
O44 O 0.27495 0.19914 0.21492 0.0
O45 O 0.28284 0.24042 0.26394 0.0
O46 O 0.3152 0.2841 0.27033 0.0
O47 O 0.29854 0.26812 0.22289 0.0
O48 O 0.26239 0.20075 0.25067 0.0
O49 O 0.28853 0.23535 0.19252 0.0
O50 O 0.26298 0.30547 0.28766 0.0
O51 O 0.25527 0.26422 0.23735 0.0
O52 O 0.22245 0.2223 0.22975 0.0
O53 O 0.23841 0.23662 0.27766 0.0
O54 O 0.2736 0.30385 0.25058 0.0
O55 O 0.24831 0.26805 0.30789 0.0
C56 C 0.27821 0.21656 0.27225 0.0
C57 C 0.28644 0.19478 0.17171 0.0
C58 C 0.30472 0.16911 0.14637 0.0
C59 C 0.30705 0.1849 0.17037 0.0
C60 C 0.28117 0.16317 0.12401 0.0
C61 C 0.2634 0.18875 0.14901 0.0
C62 C 0.26078 0.17295 0.12536 0.0
C63 C 0.31851 0.28256 0.24428 0.0
C64 C 0.28931 0.21133 0.19688 0.0
C65 C 0.17083 0.19828 0.12872 0.0
C66 C 0.18365 0.22435 0.11998 0.0
C67 C 0.25859 0.2878 0.22892 0.0
C68 C 0.25092 0.30764 0.3312 0.0
C69 C 0.23209 0.31998 0.33231 0.0
C70 C 0.23353 0.33326 0.3577 0.0
C71 C 0.25444 0.33445 0.38168 0.0
C72 C 0.27154 0.30917 0.35544 0.0
C73 C 0.27333 0.32261 0.38046 0.0
C74 C 0.21851 0.22336 0.25554 0.0
C75 C 0.24818 0.29245 0.30503 0.0
H76 H 0.32502 0.18988 0.18781 0.0
H77 H 0.27832 0.15066 0.1055 0.0
H78 H 0.24747 0.19624 0.14953 0.0
H79 H 0.24283 0.16823 0.10799 0.0
H80 H 0.21594 0.3186 0.31371 0.0
H81 H 0.25626 0.34471 0.40139 0.0
H82 H 0.28606 0.29973 0.35518 0.0
H83 H 0.28931 0.32366 0.39907 0.0
Tb84 Tb 0.77045 0.2381 0.23674 0.0
C85 C 0.71595 0.28358 0.31256 0.0
C86 C 0.6688 0.25253 0.30339 0.0
C87 C 0.68862 0.28193 0.34642 0.0
C88 C 0.69395 0.2639 0.29526 0.0
C89 C 0.71364 0.29289 0.33837 0.0
C90 C 0.66631 0.26155 0.32912 0.0
C91 C 0.76009 0.32502 0.34497 0.0
N92 N 0.73929 0.29459 0.30338 0.0
C93 C 0.76109 0.3156 0.31884 0.0
C94 C 0.73624 0.31357 0.35483 0.0
Tb95 Tb 0.73833 0.28042 0.25897 0.0
N96 N 0.69683 0.25682 0.26991 0.0
C97 C 0.67476 0.23863 0.25138 0.0
C98 C 0.64662 0.2332 0.28495 0.0
C99 C 0.6496 0.22635 0.25876 0.0
H100 H 0.77943 0.32475 0.31107 0.0
H101 H 0.63247 0.21165 0.24413 0.0
H102 H 0.64709 0.25326 0.33558 0.0
H103 H 0.77754 0.34133 0.35729 0.0
H104 H 0.67618 0.23272 0.23099 0.0
H105 H 0.87405 0.30443 0.2361 0.0
H106 H 0.62701 0.22389 0.29046 0.0
H107 H 0.72514 0.18818 0.19126 0.0
H108 H 0.83449 0.28295 0.25706 0.0
H109 H 0.7197 0.17046 0.14301 0.0
H110 H 0.68628 0.28923 0.36588 0.0
H111 H 0.87109 0.29279 0.18619 0.0
H112 H 0.84369 0.26443 0.14107 0.0
H113 H 0.73531 0.32115 0.37487 0.0
H114 H 0.80171 0.22774 0.11574 0.0
N115 N 0.80865 0.25951 0.21933 0.0
C116 C 0.8327 0.27745 0.23532 0.0
C117 C 0.85354 0.28322 0.1953 0.0
C118 C 0.82939 0.26383 0.17945 0.0
C119 C 0.85532 0.28977 0.22349 0.0
C120 C 0.80719 0.252 0.19238 0.0
H121 H 0.75552 0.19219 0.11649 0.0
N122 N 0.76358 0.21997 0.1921 0.0
C123 C 0.73785 0.18764 0.15266 0.0
C124 C 0.78384 0.23138 0.17827 0.0
C125 C 0.74107 0.19772 0.18008 0.0
C126 C 0.75807 0.20001 0.13773 0.0
C127 C 0.7816 0.22198 0.15063 0.0
O128 O 0.7652 0.19738 0.24297 0.0
O129 O 0.74265 0.24222 0.25969 0.0
O130 O 0.76384 0.27112 0.29681 0.0
O131 O 0.79516 0.26187 0.27682 0.0
O132 O 0.7313 0.20591 0.23977 0.0
O133 O 0.80302 0.22971 0.26287 0.0
O134 O 0.74418 0.32159 0.25916 0.0
O135 O 0.76704 0.27701 0.23693 0.0
O136 O 0.74658 0.24813 0.19843 0.0
O137 O 0.71545 0.25911 0.21707 0.0
O138 O 0.7782 0.31275 0.25893 0.0
O139 O 0.71114 0.2928 0.22841 0.0
C140 C 0.72431 0.21907 0.25627 0.0
C141 C 0.78684 0.19158 0.28988 0.0
C142 C 0.81009 0.18744 0.33867 0.0
C143 C 0.80991 0.20048 0.3128 0.0
C144 C 0.78582 0.16622 0.34155 0.0
C145 C 0.76303 0.17038 0.29345 0.0
C146 C 0.76247 0.15815 0.31929 0.0
C147 C 0.78782 0.26884 0.29884 0.0
C148 C 0.78818 0.20391 0.26217 0.0
C149 C 0.80311 0.23447 0.13709 0.0
C150 C 0.82699 0.25536 0.15149 0.0
C151 C 0.78541 0.30024 0.24198 0.0
C152 C 0.7368 0.335 0.21225 0.0
C153 C 0.72482 0.32644 0.18351 0.0
C154 C 0.73525 0.34219 0.16185 0.0
C155 C 0.75866 0.36614 0.16955 0.0
C156 C 0.75983 0.35922 0.21923 0.0
C157 C 0.7708 0.37441 0.19803 0.0
C158 C 0.72345 0.2523 0.19545 0.0
C159 C 0.72631 0.31835 0.2351 0.0
H160 H 0.82783 0.21736 0.31006 0.0
H161 H 0.78488 0.15496 0.36053 0.0
H162 H 0.74481 0.16313 0.27631 0.0
H163 H 0.74405 0.14178 0.32182 0.0
H164 H 0.70718 0.30769 0.17801 0.0
H165 H 0.76696 0.37925 0.15367 0.0
H166 H 0.76958 0.36638 0.24116 0.0
H167 H 0.7884 0.39302 0.20385 0.0
Tb168 Tb 0.75363 0.74719 0.27864 0.0
C169 C 0.82263 0.82159 0.20128 0.0
C170 C 0.78981 0.82042 0.15758 0.0
C171 C 0.83186 0.86003 0.17132 0.0
C172 C 0.79787 0.8084 0.18268 0.0
C173 C 0.84017 0.84742 0.19573 0.0
C174 C 0.8067 0.84653 0.15224 0.0
C175 C 0.87345 0.84545 0.23774 0.0
N176 N 0.82992 0.80856 0.22438 0.0
C177 C 0.85537 0.81976 0.24219 0.0
C178 C 0.86574 0.85947 0.21454 0.0
Tb179 Tb 0.79874 0.76682 0.23027 0.0
N180 N 0.78235 0.78315 0.18851 0.0
C181 C 0.75919 0.76805 0.16901 0.0
C182 C 0.76544 0.80554 0.13825 0.0
C183 C 0.75015 0.77916 0.14391 0.0
H184 H 0.86164 0.80925 0.26025 0.0
H185 H 0.73147 0.76724 0.12892 0.0
H186 H 0.80076 0.8562 0.13317 0.0
H187 H 0.89334 0.85441 0.25221 0.0
H188 H 0.74713 0.74758 0.17288 0.0
H189 H 0.82406 0.74942 0.3789 0.0
H190 H 0.75868 0.81401 0.11863 0.0
H191 H 0.69032 0.70437 0.25213 0.0
H192 H 0.80603 0.76844 0.33558 0.0
H193 H 0.6601 0.65867 0.26111 0.0
H194 H 0.84496 0.87995 0.16673 0.0
H195 H 0.79956 0.70193 0.38918 0.0
H196 H 0.75819 0.65869 0.37565 0.0
H197 H 0.87983 0.87931 0.21106 0.0
H198 H 0.71331 0.63395 0.34362 0.0
N199 N 0.7717 0.73194 0.32048 0.0
C200 C 0.79489 0.74773 0.33956 0.0
C201 C 0.79148 0.71018 0.36999 0.0
C202 C 0.76688 0.69465 0.3513 0.0
C203 C 0.80531 0.73699 0.36429 0.0
C204 C 0.75739 0.70637 0.32659 0.0
H205 H 0.67631 0.63395 0.30101 0.0
N206 N 0.72372 0.70531 0.28608 0.0
C207 C 0.68047 0.6679 0.27461 0.0
C208 C 0.73239 0.69252 0.30872 0.0
C209 C 0.69766 0.69384 0.26962 0.0
C210 C 0.6897 0.65398 0.2971 0.0
C211 C 0.71582 0.66645 0.31479 0.0
O212 O 0.71893 0.75626 0.27937 0.0
O213 O 0.76276 0.76865 0.24118 0.0
O214 O 0.80332 0.80421 0.25187 0.0
O215 O 0.78857 0.78548 0.2922 0.0
O216 O 0.72274 0.74796 0.24053 0.0
O217 O 0.75604 0.7732 0.31175 0.0
O218 O 0.83344 0.75798 0.22863 0.0
O219 O 0.78931 0.7451 0.26743 0.0
O220 O 0.74747 0.70991 0.25569 0.0
O221 O 0.76364 0.72885 0.21597 0.0
O222 O 0.82932 0.76555 0.26843 0.0
O223 O 0.79539 0.73995 0.19762 0.0
C224 C 0.73883 0.7639 0.22619 0.0
C225 C 0.71473 0.76778 0.3243 0.0
C226 C 0.6892 0.78457 0.34994 0.0
C227 C 0.70434 0.7876 0.32903 0.0
C228 C 0.68462 0.76125 0.36581 0.0
C229 C 0.70994 0.74487 0.3405 0.0
C230 C 0.69494 0.74166 0.36111 0.0
C231 C 0.80018 0.80642 0.27781 0.0
C232 C 0.73083 0.7715 0.30271 0.0
C233 C 0.7256 0.65409 0.33869 0.0
C234 C 0.75114 0.66817 0.35692 0.0
C235 C 0.81309 0.74946 0.28248 0.0
C236 C 0.83562 0.74419 0.18347 0.0
C237 C 0.84654 0.72446 0.18006 0.0
C238 C 0.8591 0.72516 0.15742 0.0
C239 C 0.86072 0.746 0.13843 0.0
C240 C 0.83775 0.76492 0.16443 0.0
C241 C 0.85029 0.76579 0.14207 0.0
C242 C 0.75084 0.70795 0.22978 0.0
C243 C 0.82074 0.74188 0.20595 0.0
H244 H 0.7084 0.80548 0.31672 0.0
H245 H 0.67268 0.75787 0.38164 0.0
H246 H 0.71785 0.72954 0.33728 0.0
H247 H 0.69123 0.72385 0.37348 0.0
H248 H 0.84461 0.7082 0.19452 0.0
H249 H 0.87035 0.74713 0.1209 0.0
H250 H 0.8294 0.78016 0.16661 0.0
H251 H 0.85174 0.78177 0.12734 0.0
Tb252 Tb 0.28167 0.72534 0.24927 0.0
C253 C 0.24303 0.81158 0.18699 0.0
C254 C 0.28537 0.84745 0.18346 0.0
C255 C 0.24362 0.841 0.14746 0.0
C256 C 0.27065 0.8252 0.19741 0.0
C257 C 0.22893 0.81969 0.16231 0.0
C258 C 0.27185 0.85484 0.15799 0.0
C259 C 0.18676 0.7867 0.17041 0.0
N260 N 0.22972 0.79125 0.20208 0.0
C261 C 0.20174 0.77941 0.19477 0.0
C262 C 0.20045 0.80667 0.15386 0.0
Tb263 Tb 0.25587 0.77999 0.24114 0.0
N264 N 0.28273 0.81757 0.22222 0.0
C265 C 0.30919 0.83291 0.23546 0.0
C266 C 0.31297 0.86206 0.19598 0.0
C267 C 0.32479 0.85502 0.22234 0.0
H268 H 0.19098 0.76381 0.20729 0.0
H269 H 0.34596 0.86654 0.23254 0.0
H270 H 0.28286 0.87167 0.14675 0.0
H271 H 0.16469 0.77686 0.16438 0.0
H272 H 0.31877 0.82774 0.25574 0.0
H273 H 0.19696 0.63301 0.25617 0.0
H274 H 0.32507 0.87921 0.18588 0.0
H275 H 0.34659 0.7497 0.28618 0.0
H276 H 0.2201 0.67598 0.23599 0.0
H277 H 0.37516 0.73724 0.3273 0.0
H278 H 0.23324 0.84737 0.12825 0.0
H279 H 0.22187 0.61765 0.29848 0.0
H280 H 0.26635 0.62487 0.33376 0.0
H281 H 0.18882 0.81231 0.13504 0.0
H282 H 0.3142 0.65389 0.35429 0.0
N283 N 0.2573 0.68637 0.2679 0.0
C284 C 0.23109 0.67009 0.25497 0.0
C285 C 0.23195 0.63699 0.2902 0.0
C286 C 0.25915 0.65313 0.30263 0.0
C287 C 0.21787 0.64553 0.26625 0.0
C288 C 0.27127 0.67814 0.29104 0.0
H289 H 0.35492 0.69599 0.3522 0.0
N290 N 0.30981 0.71668 0.28846 0.0
C291 C 0.3536 0.72487 0.32036 0.0
C292 C 0.29849 0.69389 0.30175 0.0
C293 C 0.33726 0.73184 0.29696 0.0
C294 C 0.34209 0.70164 0.33443 0.0
C295 C 0.31434 0.68555 0.32486 0.0
O296 O 0.31116 0.72202 0.22955 0.0
O297 O 0.28241 0.76251 0.22997 0.0
O298 O 0.241 0.75744 0.20015 0.0
O299 O 0.24481 0.71617 0.21419 0.0
O300 O 0.31885 0.758 0.24316 0.0
O301 O 0.2702 0.69178 0.22079 0.0
O302 O 0.22685 0.7862 0.25965 0.0
O303 O 0.25413 0.74214 0.25918 0.0
O304 O 0.29246 0.7455 0.29103 0.0
O305 O 0.29236 0.78774 0.27654 0.0
O306 O 0.21827 0.74803 0.2479 0.0
O307 O 0.26935 0.81275 0.27097 0.0
C308 C 0.30735 0.77365 0.23002 0.0
C309 C 0.30628 0.67822 0.21659 0.0
C310 C 0.33122 0.6577 0.19513 0.0
C311 C 0.31766 0.67577 0.19408 0.0
C312 C 0.3331 0.64185 0.21874 0.0
C313 C 0.30787 0.66197 0.23985 0.0
C314 C 0.32124 0.64385 0.24087 0.0
C315 C 0.23582 0.73141 0.19523 0.0
C316 C 0.2946 0.69913 0.21606 0.0
C317 C 0.30229 0.66089 0.33682 0.0
C318 C 0.2749 0.64451 0.32538 0.0
C319 C 0.22917 0.73122 0.25911 0.0
C320 C 0.23649 0.83169 0.27219 0.0
C321 C 0.22367 0.83597 0.29264 0.0
C322 C 0.21533 0.85817 0.29149 0.0
C323 C 0.21998 0.876 0.26943 0.0
C324 C 0.24107 0.84973 0.25045 0.0
C325 C 0.2328 0.87177 0.2491 0.0
C326 C 0.29904 0.77174 0.2961 0.0
C327 C 0.24473 0.80821 0.27388 0.0
H328 H 0.31658 0.68838 0.1761 0.0
H329 H 0.34349 0.62776 0.21986 0.0
H330 H 0.29906 0.66343 0.25725 0.0
H331 H 0.32257 0.63146 0.25894 0.0
H332 H 0.22053 0.82217 0.30963 0.0
H333 H 0.21343 0.89306 0.2677 0.0
H334 H 0.25107 0.84689 0.23462 0.0
H335 H 0.23628 0.88558 0.23221 0.0
Tb336 Tb 0.26632 0.74593 0.73865 0.0
C337 C 0.21055 0.79335 0.81002 0.0
C338 C 0.16304 0.76317 0.79982 0.0
C339 C 0.18357 0.78946 0.84487 0.0
C340 C 0.18836 0.77447 0.79208 0.0
C341 C 0.20834 0.80153 0.83642 0.0
C342 C 0.16091 0.77034 0.82655 0.0
C343 C 0.25423 0.8348 0.84274 0.0
N344 N 0.23394 0.80476 0.80092 0.0
C345 C 0.2553 0.82617 0.81625 0.0
C346 C 0.23079 0.82219 0.85306 0.0
Tb347 Tb 0.23375 0.78968 0.75718 0.0
N348 N 0.19129 0.76811 0.76647 0.0
C349 C 0.16899 0.75145 0.74696 0.0
C350 C 0.14044 0.74567 0.78016 0.0
C351 C 0.14344 0.73989 0.75356 0.0
H352 H 0.27355 0.83592 0.80845 0.0
H353 H 0.12607 0.72667 0.73796 0.0
H354 H 0.1417 0.76168 0.83298 0.0
H355 H 0.27147 0.851 0.85533 0.0
H356 H 0.17061 0.74649 0.7263 0.0
H357 H 0.37355 0.81076 0.75488 0.0
H358 H 0.12052 0.73708 0.78506 0.0
H359 H 0.22706 0.69766 0.68873 0.0
H360 H 0.3298 0.78939 0.76823 0.0
H361 H 0.2285 0.68198 0.64213 0.0
H362 H 0.18152 0.79531 0.86516 0.0
H363 H 0.37792 0.80103 0.70711 0.0
H364 H 0.35617 0.7755 0.65966 0.0
H365 H 0.22999 0.829 0.87352 0.0
H366 H 0.31651 0.74048 0.62874 0.0
N367 N 0.30849 0.76751 0.72831 0.0
C368 C 0.33098 0.78451 0.74736 0.0
C369 C 0.35844 0.79151 0.71285 0.0
C370 C 0.3358 0.7733 0.69382 0.0
C371 C 0.35607 0.79691 0.73985 0.0
C372 C 0.31099 0.76126 0.70247 0.0
H373 H 0.26895 0.70509 0.62225 0.0
N374 N 0.26618 0.72978 0.69526 0.0
C375 C 0.24564 0.69889 0.65398 0.0
C376 C 0.28894 0.74173 0.68523 0.0
C377 C 0.24496 0.70784 0.6805 0.0
C378 C 0.26844 0.71205 0.64278 0.0
C379 C 0.29068 0.73348 0.65864 0.0
O380 O 0.2584 0.70444 0.74314 0.0
O381 O 0.23569 0.75006 0.75775 0.0
O382 O 0.25522 0.77888 0.79684 0.0
O383 O 0.28762 0.76826 0.7803 0.0
O384 O 0.22514 0.71515 0.73424 0.0
O385 O 0.29364 0.73444 0.77017 0.0
O386 O 0.24293 0.83144 0.7533 0.0
O387 O 0.26352 0.78508 0.73739 0.0
O388 O 0.24401 0.75559 0.69866 0.0
O389 O 0.21295 0.76912 0.7147 0.0
O390 O 0.27454 0.82118 0.75879 0.0
O391 O 0.20495 0.80195 0.72931 0.0
C392 C 0.21661 0.72752 0.74993 0.0
C393 C 0.27027 0.69454 0.7913 0.0
C394 C 0.28422 0.68151 0.83962 0.0
C395 C 0.29078 0.69596 0.81567 0.0
C396 C 0.25649 0.66665 0.83921 0.0
C397 C 0.24281 0.67905 0.79128 0.0
C398 C 0.23599 0.66565 0.81527 0.0
C399 C 0.27867 0.7751 0.80113 0.0
C400 C 0.2779 0.70887 0.76601 0.0
C401 C 0.31483 0.74631 0.64923 0.0
C402 C 0.3374 0.76621 0.66682 0.0
C403 C 0.28228 0.80806 0.74297 0.0
C404 C 0.22825 0.83964 0.70539 0.0
C405 C 0.21189 0.8272 0.67884 0.0
C406 C 0.21847 0.83818 0.65355 0.0
C407 C 0.24165 0.86213 0.65529 0.0
C408 C 0.25144 0.8634 0.70648 0.0
C409 C 0.25809 0.87449 0.6815 0.0
C410 C 0.2213 0.76091 0.69418 0.0
C411 C 0.22197 0.82715 0.73185 0.0
H412 H 0.31191 0.70805 0.8157 0.0
H413 H 0.25056 0.65489 0.85691 0.0
H414 H 0.22655 0.67697 0.77269 0.0
H415 H 0.21477 0.65384 0.81503 0.0
H416 H 0.19396 0.80901 0.67786 0.0
H417 H 0.24637 0.87202 0.63635 0.0
H418 H 0.26447 0.87337 0.72663 0.0
H419 H 0.2758 0.89298 0.68245 0.0
Tb420 Tb 0.23712 0.23267 0.77732 0.0
C421 C 0.30533 0.30987 0.70131 0.0
C422 C 0.27172 0.30818 0.65814 0.0
C423 C 0.31312 0.3485 0.67157 0.0
C424 C 0.28049 0.29634 0.6831 0.0
C425 C 0.32236 0.33583 0.69548 0.0
C426 C 0.28781 0.33464 0.65286 0.0
C427 C 0.35759 0.33314 0.73507 0.0
N428 N 0.31372 0.29654 0.72357 0.0
C429 C 0.34001 0.30723 0.73962 0.0
C430 C 0.34858 0.34771 0.71314 0.0
Tb431 Tb 0.28348 0.25458 0.73036 0.0
N432 N 0.26588 0.27072 0.68884 0.0
C433 C 0.24306 0.25509 0.66921 0.0
C434 C 0.24771 0.29266 0.63871 0.0
C435 C 0.23347 0.26589 0.64415 0.0
H436 H 0.34732 0.29601 0.75639 0.0
H437 H 0.2152 0.25341 0.629 0.0
H438 H 0.28128 0.34421 0.63396 0.0
H439 H 0.37812 0.34177 0.74836 0.0
H440 H 0.2317 0.23432 0.67277 0.0
H441 H 0.30404 0.23428 0.87977 0.0
H442 H 0.24058 0.30086 0.61906 0.0
H443 H 0.17526 0.18884 0.7473 0.0
H444 H 0.28785 0.2535 0.83593 0.0
H445 H 0.14515 0.14248 0.75453 0.0
H446 H 0.32576 0.36856 0.66683 0.0
H447 H 0.27913 0.18651 0.88901 0.0
H448 H 0.23892 0.14288 0.87338 0.0
H449 H 0.36232 0.36765 0.70943 0.0
H450 H 0.19552 0.11782 0.83924 0.0
N451 N 0.25422 0.21688 0.81924 0.0
C452 C 0.27662 0.23263 0.83925 0.0
C453 C 0.27201 0.19481 0.86942 0.0
C454 C 0.24835 0.17917 0.84959 0.0
C455 C 0.28602 0.22176 0.86435 0.0
C456 C 0.2398 0.19104 0.82456 0.0
H457 H 0.16017 0.11763 0.79499 0.0
N458 N 0.20749 0.18998 0.78271 0.0
C459 C 0.16497 0.15191 0.769 0.0
C460 C 0.21551 0.17705 0.80558 0.0
C461 C 0.18209 0.17822 0.76499 0.0
C462 C 0.17354 0.13793 0.79181 0.0
C463 C 0.19892 0.15065 0.81074 0.0
O464 O 0.20098 0.23912 0.77807 0.0
O465 O 0.24746 0.25642 0.74136 0.0
O466 O 0.2912 0.29102 0.75581 0.0
O467 O 0.27113 0.27079 0.79305 0.0
O468 O 0.20724 0.23428 0.73876 0.0
O469 O 0.23796 0.25802 0.81015 0.0
O470 O 0.3182 0.2454 0.72987 0.0
O471 O 0.27369 0.23181 0.76694 0.0
O472 O 0.23322 0.19616 0.75454 0.0
O473 O 0.24876 0.21658 0.71525 0.0
O474 O 0.31385 0.25315 0.76853 0.0
O475 O 0.28165 0.22937 0.69678 0.0
C476 C 0.22373 0.25173 0.72589 0.0
C477 C 0.19632 0.25005 0.82316 0.0
C478 C 0.17155 0.26593 0.85071 0.0
C479 C 0.18555 0.26932 0.82874 0.0
C480 C 0.16822 0.24275 0.86662 0.0
C481 C 0.19262 0.22714 0.83933 0.0
C482 C 0.17858 0.22352 0.86086 0.0
C483 C 0.28654 0.29183 0.78137 0.0
C484 C 0.21226 0.25469 0.80126 0.0
C485 C 0.20786 0.13818 0.83497 0.0
C486 C 0.23256 0.15244 0.8544 0.0
C487 C 0.29754 0.23667 0.7823 0.0
C488 C 0.32338 0.23565 0.6848 0.0
C489 C 0.33345 0.21593 0.67892 0.0
C490 C 0.34908 0.21999 0.65832 0.0
C491 C 0.35453 0.24425 0.64399 0.0
C492 C 0.32896 0.25947 0.67002 0.0
C493 C 0.34451 0.26373 0.64979 0.0
C494 C 0.2368 0.19502 0.72863 0.0
C495 C 0.30676 0.23092 0.70605 0.0
H496 H 0.18863 0.2872 0.81646 0.0
H497 H 0.15732 0.23933 0.8834 0.0
H498 H 0.20076 0.21219 0.83547 0.0
H499 H 0.17582 0.20576 0.87326 0.0
H500 H 0.32871 0.19732 0.69005 0.0
H501 H 0.36687 0.24839 0.62845 0.0
H502 H 0.32128 0.27472 0.67405 0.0
H503 H 0.34886 0.28225 0.63856 0.0
Tb504 Tb 0.79261 0.23271 0.75976 0.0
C505 C 0.72479 0.29024 0.68201 0.0
C506 C 0.75643 0.33612 0.68072 0.0
C507 C 0.71728 0.3164 0.64098 0.0
C508 C 0.74825 0.3116 0.69443 0.0
C509 C 0.70861 0.29251 0.65543 0.0
C510 C 0.74117 0.33821 0.65364 0.0
C511 C 0.67525 0.24862 0.66088 0.0
N512 N 0.71691 0.2678 0.69694 0.0
C513 C 0.69198 0.24741 0.68723 0.0
C514 C 0.68376 0.27112 0.64471 0.0
Tb515 Tb 0.74538 0.26782 0.74008 0.0
N516 N 0.7622 0.30884 0.72071 0.0
C517 C 0.78366 0.33062 0.73528 0.0
C518 C 0.77909 0.35806 0.69506 0.0
C519 C 0.79266 0.35536 0.72255 0.0
H520 H 0.68518 0.22987 0.69943 0.0
H521 H 0.80993 0.37235 0.73406 0.0
H522 H 0.74727 0.35681 0.64264 0.0
H523 H 0.65582 0.23219 0.65304 0.0
H524 H 0.7943 0.32895 0.75659 0.0
H525 H 0.72561 0.12895 0.76626 0.0
H526 H 0.7857 0.37733 0.68537 0.0
H527 H 0.85368 0.26886 0.79988 0.0
H528 H 0.74336 0.17144 0.74284 0.0
H529 H 0.88253 0.2661 0.84648 0.0
H530 H 0.70528 0.3185 0.62042 0.0
H531 H 0.74788 0.12445 0.81584 0.0
H532 H 0.78671 0.14459 0.85865 0.0
H533 H 0.67072 0.27207 0.62438 0.0
H534 H 0.82969 0.18199 0.88054 0.0
N535 N 0.77507 0.19165 0.77903 0.0
C536 C 0.75346 0.16998 0.76444 0.0
C537 C 0.75579 0.14328 0.80567 0.0
C538 C 0.779 0.16485 0.81985 0.0
C539 C 0.74322 0.14572 0.77767 0.0
C540 C 0.7883 0.18895 0.80568 0.0
H541 H 0.86597 0.22718 0.87586 0.0
N542 N 0.82075 0.23206 0.8029 0.0
C543 C 0.86266 0.25023 0.83883 0.0
C544 C 0.8121 0.20993 0.81807 0.0
C545 C 0.84621 0.25171 0.81238 0.0
C546 C 0.85321 0.22827 0.85539 0.0
C547 C 0.82781 0.20753 0.84488 0.0
O548 O 0.82923 0.23971 0.74718 0.0
O549 O 0.78294 0.26447 0.73648 0.0
O550 O 0.74426 0.2473 0.70131 0.0
O551 O 0.76036 0.214 0.7212 0.0
O552 O 0.82285 0.27287 0.75559 0.0
O553 O 0.7944 0.20251 0.73429 0.0
O554 O 0.70825 0.2625 0.75097 0.0
O555 O 0.75502 0.2361 0.763 0.0
O556 O 0.79416 0.25327 0.79862 0.0
O557 O 0.77735 0.28627 0.77907 0.0
O558 O 0.71499 0.22802 0.74519 0.0
O559 O 0.74491 0.29728 0.76736 0.0
C560 C 0.80646 0.28255 0.73948 0.0
C561 C 0.83807 0.20074 0.73911 0.0
C562 C 0.86392 0.17914 0.72042 0.0
C563 C 0.84585 0.19306 0.71609 0.0
C564 C 0.87396 0.17283 0.74812 0.0
C565 C 0.84809 0.19411 0.76657 0.0
C566 C 0.86596 0.1802 0.77101 0.0
C567 C 0.74829 0.22437 0.69927 0.0
C568 C 0.81987 0.21602 0.73389 0.0
C569 C 0.8181 0.18412 0.85976 0.0
C570 C 0.79365 0.16282 0.84728 0.0
C571 C 0.73153 0.2182 0.76073 0.0
C572 C 0.70324 0.30326 0.76159 0.0
C573 C 0.69927 0.31435 0.7853 0.0
C574 C 0.68539 0.33238 0.78187 0.0
C575 C 0.6757 0.3394 0.75439 0.0
C576 C 0.69319 0.31023 0.7343 0.0
C577 C 0.67954 0.32829 0.73076 0.0
C578 C 0.78929 0.27568 0.80094 0.0
C579 C 0.71885 0.2854 0.76606 0.0
H580 H 0.83821 0.19834 0.69488 0.0
H581 H 0.88772 0.1619 0.75202 0.0
H582 H 0.84228 0.19973 0.78455 0.0
H583 H 0.87365 0.17515 0.79226 0.0
H584 H 0.70725 0.30917 0.80645 0.0
H585 H 0.66479 0.35313 0.75116 0.0
H586 H 0.6959 0.30186 0.71578 0.0
H587 H 0.67187 0.33364 0.70965 0.0
Tb588 Tb 0.77005 0.73942 0.72065 0.0
C589 C 0.84334 0.80837 0.82871 0.0
C590 C 0.8431 0.77536 0.86431 0.0
C591 C 0.88228 0.8178 0.86913 0.0
C592 C 0.83058 0.78343 0.83857 0.0
C593 C 0.86899 0.82624 0.84424 0.0
C594 C 0.86936 0.79236 0.87914 0.0
C595 C 0.8649 0.86033 0.81115 0.0
N596 N 0.82962 0.81583 0.80485 0.0
C597 C 0.83949 0.84183 0.79651 0.0
C598 C 0.87995 0.85236 0.83487 0.0
Tb599 Tb 0.78821 0.78425 0.7823 0.0
N600 N 0.80503 0.76795 0.82391 0.0
C601 C 0.78999 0.74499 0.83514 0.0
C602 C 0.8284 0.751 0.87493 0.0
C603 C 0.80156 0.73596 0.86047 0.0
H604 H 0.82812 0.84824 0.7782 0.0
H605 H 0.78966 0.71745 0.86879 0.0
H606 H 0.87944 0.7864 0.89882 0.0
H607 H 0.87289 0.88068 0.8041 0.0
H608 H 0.7692 0.73307 0.82439 0.0
H609 H 0.76723 0.80811 0.63574 0.0
H610 H 0.83724 0.74416 0.8947 0.0
H611 H 0.73189 0.67441 0.72125 0.0
H612 H 0.7887 0.79109 0.67861 0.0
H613 H 0.68701 0.64219 0.69526 0.0
H614 H 0.90214 0.83111 0.88124 0.0
H615 H 0.71907 0.78249 0.61109 0.0
H616 H 0.67689 0.74004 0.60671 0.0
H617 H 0.89957 0.86674 0.84623 0.0
H618 H 0.65494 0.69441 0.62284 0.0
N619 N 0.7528 0.75636 0.67947 0.0
C620 C 0.76769 0.77949 0.66831 0.0
C621 C 0.72837 0.77489 0.63008 0.0
C622 C 0.71393 0.75016 0.64025 0.0
C623 C 0.75557 0.78933 0.64386 0.0
C624 C 0.72699 0.74132 0.66514 0.0
H625 H 0.65889 0.65738 0.65548 0.0
N626 N 0.72902 0.70787 0.69704 0.0
C627 C 0.69443 0.66298 0.68924 0.0
C628 C 0.71464 0.71598 0.67422 0.0
C629 C 0.71991 0.68135 0.70393 0.0
C630 C 0.67857 0.67165 0.66688 0.0
C631 C 0.68888 0.69832 0.6587 0.0
O632 O 0.78344 0.70734 0.71713 0.0
O633 O 0.79254 0.74945 0.76476 0.0
O634 O 0.82631 0.79216 0.76927 0.0
O635 O 0.80742 0.77542 0.72223 0.0
O636 O 0.771 0.70956 0.75262 0.0
O637 O 0.79434 0.74164 0.69164 0.0
O638 O 0.77562 0.81697 0.78524 0.0
O639 O 0.76543 0.77367 0.73858 0.0
O640 O 0.73192 0.72985 0.73429 0.0
O641 O 0.75029 0.749 0.7808 0.0
O642 O 0.78661 0.81369 0.74986 0.0
O643 O 0.76475 0.78347 0.81182 0.0
C644 C 0.78751 0.72572 0.77368 0.0
C645 C 0.79118 0.69979 0.67286 0.0
C646 C 0.80706 0.67159 0.64779 0.0
C647 C 0.81142 0.68971 0.67064 0.0
C648 C 0.78187 0.66366 0.62745 0.0
C649 C 0.76658 0.69191 0.65204 0.0
C650 C 0.76196 0.67387 0.62953 0.0
C651 C 0.82835 0.78978 0.74289 0.0
C652 C 0.79588 0.7181 0.69726 0.0
C653 C 0.67493 0.70752 0.63487 0.0
C654 C 0.68743 0.73348 0.62568 0.0
C655 C 0.76975 0.79711 0.72928 0.0
C656 C 0.76792 0.82608 0.82904 0.0
C657 C 0.74716 0.83547 0.83128 0.0
C658 C 0.75156 0.85446 0.85335 0.0
C659 C 0.77731 0.86403 0.87276 0.0
C660 C 0.79309 0.83565 0.84898 0.0
C661 C 0.79775 0.85459 0.87062 0.0
C662 C 0.72971 0.73378 0.76031 0.0
C663 C 0.76324 0.80692 0.80536 0.0
H664 H 0.83059 0.69624 0.68657 0.0
H665 H 0.77731 0.64924 0.61001 0.0
H666 H 0.75092 0.6996 0.6532 0.0
H667 H 0.74277 0.66764 0.61368 0.0
H668 H 0.72759 0.82773 0.81602 0.0
H669 H 0.78188 0.87911 0.88954 0.0
H670 H 0.80919 0.82863 0.84775 0.0
H671 H 0.81737 0.86211 0.88577 0.0
Cd672 Cd 1.0095 0.99013 0.53447 0.0
Cd673 Cd 0.02737 0.02183 0.44866 0.0
C674 C 0.0559 0.96669 0.53487 0.0
N675 N 0.02958 0.96201 0.52106 0.0
C676 C 0.02782 0.92414 0.49432 0.0
C677 C 0.0552 0.92903 0.50789 0.0
C678 C 0.06925 0.95064 0.52833 0.0
C679 C 1.01533 0.94112 0.50121 0.0
H680 H 0.0665 0.98265 0.55135 0.0
H681 H 0.99421 0.93742 0.49104 0.0
C682 C 0.97435 0.98032 0.46125 0.0
C683 C 0.98829 0.05096 0.46076 0.0
C684 C 0.98028 0.07166 0.46724 0.0
C685 C 1.00025 0.09705 0.47809 0.0
C686 C 0.02801 0.10048 0.48344 0.0
C687 C 0.03511 0.07905 0.47683 0.0
N688 N 1.01528 0.05507 0.46531 0.0
H689 H 0.97291 0.03206 0.45084 0.0
H690 H 0.05644 0.08183 0.47985 0.0
C691 C 0.03174 0.9652 0.4338 0.0
N692 N 0.04604 0.98899 0.44947 0.0
C693 C 0.08701 0.97973 0.45868 0.0
C694 C 0.07325 0.95568 0.44135 0.0
C695 C 0.04502 0.94806 0.42952 0.0
C696 C 0.073 0.99626 0.46225 0.0
H697 H 1.01042 0.96026 0.42338 0.0
H698 H 0.08396 0.01563 0.47392 0.0
C699 C 0.06439 0.03351 0.52409 0.0
C700 C 0.98983 0.95929 0.57871 0.0
N701 N 0.98937 0.02194 0.53333 0.0
C702 C 1.00492 0.04887 0.53681 0.0
C703 C 0.99343 0.0675 0.54131 0.0
C704 C 0.96577 0.05827 0.54251 0.0
C705 C 0.94991 0.03043 0.53724 0.0
C706 C 0.96222 0.01253 0.53272 0.0
C707 C 0.04644 0.04921 0.40225 0.0
O708 O 0.99252 0.98828 0.48411 0.0
O709 O 0.98087 0.98898 0.43827 0.0
O710 O 0.04857 0.02732 0.4995 0.0
O711 O 0.05505 0.02395 0.54553 0.0
O712 O 0.9769 0.95275 0.55292 0.0
O713 O 1.0116 0.98039 0.58365 0.0
O714 O 0.06238 0.05165 0.42664 0.0
O715 O 0.02142 0.0342 0.39961 0.0
H716 H 0.02649 0.05584 0.53727 0.0
H717 H 0.95047 0.99095 0.53018 0.0
H718 H 1.01633 0.90748 0.47859 0.0
H719 H 0.09017 0.95461 0.53982 0.0
H720 H 0.95867 0.06829 0.46214 0.0
H721 H 0.044 0.11978 0.4917 0.0
H722 H 0.10864 0.98624 0.46864 0.0
H723 H 0.03361 0.92988 0.4158 0.0
H724 H 1.00631 0.08882 0.5447 0.0
H725 H 0.92863 0.02229 0.53833 0.0
Cd726 Cd 0.52102 0.97742 0.04971 0.0
Cd727 Cd 0.52235 0.0297 0.95438 0.0
C728 C 0.54544 0.93352 0.07965 0.0
N729 N 0.55514 0.95792 0.06807 0.0
C730 C 0.60018 0.95592 0.07846 0.0
C731 C 0.59058 0.93054 0.09049 0.0
C732 C 0.5627 0.91966 0.09105 0.0
C733 C 0.58209 0.96928 0.06735 0.0
H734 H 0.52408 0.92458 0.08008 0.0
H735 H 0.58958 0.98862 0.05801 0.0
C736 C 0.48941 0.96817 0.97427 0.0
C737 C 0.47307 0.04279 0.91075 0.0
C738 C 0.45457 0.05545 0.89936 0.0
C739 C 0.44892 0.07225 0.91688 0.0
C740 C 0.4618 0.07489 0.94606 0.0
C741 C 0.48023 0.06185 0.95658 0.0
N742 N 0.48579 0.04637 0.93886 0.0
H743 H 0.47796 0.03072 0.89689 0.0
H744 H 0.49076 0.06486 0.97877 0.0
C745 C 0.54299 0.00545 0.90559 0.0
N746 N 0.54001 1.00281 0.9328 0.0
C747 C 0.56529 0.97347 0.94117 0.0
C748 C 0.56973 0.97656 0.91355 0.0
C749 C 0.55786 0.99251 0.89551 0.0
C750 C 0.5507 0.98704 0.95046 0.0
H751 H 0.53475 0.01842 0.89197 0.0
H752 H 0.54861 0.98566 0.97217 0.0
C753 C 0.55309 0.03892 0.02943 0.0
C754 C 0.47644 0.93666 0.06552 0.0
N755 N 0.50427 0.0069 0.06784 0.0
C756 C 0.51365 0.01816 0.09484 0.0
C757 C 0.50058 0.03316 0.10482 0.0
C758 C 0.47755 0.0364 0.0869 0.0
C759 C 0.46891 0.02508 0.05892 0.0
C760 C 0.48257 0.01036 0.04985 0.0
C761 C 0.56343 0.07447 0.93842 0.0
O762 O 0.50569 0.97902 0.99773 0.0
O763 O 0.49005 0.98203 0.95226 0.0
O764 O 0.53714 0.02736 0.00612 0.0
O765 O 0.55377 0.02501 0.05138 0.0
O766 O 0.47883 0.93706 0.03996 0.0
O767 O 0.49515 0.95466 0.08324 0.0
O768 O 0.56722 0.06658 0.96361 0.0
O769 O 0.54032 0.06215 0.92162 0.0
H770 H 0.53079 0.01488 0.10886 0.0
H771 H 0.47546 1.00109 0.02853 0.0
H772 H 0.62136 0.96521 0.07716 0.0
H773 H 0.55413 0.90059 0.10051 0.0
H774 H 0.44499 0.05226 0.87688 0.0
H775 H 0.45853 0.08775 0.96054 0.0
H776 H 0.57335 0.96098 0.95579 0.0
H777 H 0.56086 0.99586 0.87417 0.0
H778 H 0.50787 0.04134 0.1266 0.0
H779 H 0.45161 0.02741 0.04416 0.0
Cd780 Cd 1.01503 0.47482 0.04998 0.0
Cd781 Cd 1.01341 0.51857 0.95248 0.0
C782 C 0.06125 0.45655 0.09168 0.0
N783 N 0.04826 0.45372 0.06369 0.0
C784 C 0.06917 0.42263 0.05542 0.0
C785 C 0.0825 0.42472 0.08444 0.0
C786 C 0.07837 0.4423 0.10247 0.0
C787 C 0.05207 0.43723 0.04551 0.0
H788 H 0.05764 0.46933 0.10594 0.0
H789 H 0.04135 0.43489 0.02338 0.0
C790 C 0.97382 0.46646 0.97882 0.0
C791 C 0.96122 0.5332 0.91527 0.0
C792 C 0.94528 0.54866 0.90421 0.0
C793 C 0.95137 0.57445 0.91675 0.0
C794 C 0.97329 0.5834 0.94097 0.0
C795 C 0.98853 0.56717 0.95148 0.0
N796 N 0.98249 0.54258 0.93849 0.0
H797 H 0.95722 0.51406 0.90467 0.0
H798 H 1.00578 0.57464 0.96958 0.0
C799 C 1.01088 0.46353 0.91906 0.0
N800 N 0.0266 0.48376 0.93928 0.0
C801 C 0.06367 0.46802 0.94573 0.0
C802 C 0.04817 0.44697 0.92478 0.0
C803 C 0.02129 0.44482 0.91149 0.0
C804 C 0.05248 0.48616 0.95264 0.0
H805 H 0.9904 0.46208 0.90856 0.0
H806 H 0.06468 0.5026 0.96839 0.0
C807 C 0.05404 0.53025 0.02547 0.0
C808 C 0.97569 0.43674 0.07529 0.0
N809 N 1.00494 0.51004 0.06798 0.0
C810 C 1.00885 0.51534 0.09627 0.0
C811 C 0.99939 0.53399 0.10574 0.0
C812 C 0.98592 0.54755 0.08598 0.0
C813 C 0.9834 0.54249 0.05695 0.0
C814 C 0.99285 0.5235 0.04843 0.0
C815 C 0.04947 0.55205 0.9214 0.0
O816 O 0.99513 0.47556 0.99886 0.0
O817 O 0.97318 0.47845 0.95559 0.0
O818 O 0.03501 0.52007 0.0035 0.0
O819 O 0.05356 0.51741 0.04818 0.0
O820 O 0.97159 0.43714 0.04835 0.0
O821 O 0.99813 0.45362 0.0898 0.0
O822 O 0.05344 0.55711 0.94791 0.0
O823 O 0.02852 0.53162 0.9097 0.0
H824 H 0.01853 0.50448 0.11154 0.0
H825 H 0.98993 0.51901 0.02605 0.0
H826 H 0.07178 0.40974 0.04043 0.0
H827 H 0.08754 0.44444 0.12503 0.0
H828 H 0.92897 0.54088 0.88531 0.0
H829 H 0.97878 0.6029 0.95169 0.0
H830 H 0.08459 0.47097 0.95627 0.0
H831 H 1.00837 0.42882 0.89546 0.0
H832 H 1.00173 0.53692 0.12832 0.0
H833 H 0.97386 0.55282 0.04082 0.0
Cd834 Cd 0.51525 0.48913 0.04451 0.0
Cd835 Cd 0.53516 0.5254 0.96117 0.0
C836 C 0.56793 0.4734 0.04616 0.0
N837 N 0.54084 0.46525 0.03333 0.0
C838 C 0.54338 0.42891 0.00771 0.0
C839 C 0.57147 0.43726 0.02035 0.0
C840 C 0.58376 0.45988 0.03969 0.0
C841 C 0.52837 0.44335 0.0145 0.0
H842 H 0.57732 0.49021 0.06174 0.0
H843 H 0.50669 0.43689 0.00499 0.0
C844 C 0.48541 0.47523 0.96921 0.0
C845 C 0.48012 0.53832 0.94742 0.0
C846 C 0.46281 0.55223 0.94738 0.0
C847 C 0.4721 0.57621 0.96452 0.0
C848 C 0.49851 0.58477 0.98252 0.0
C849 C 0.51499 0.56977 0.98239 0.0
N850 N 0.50562 0.54713 0.96483 0.0
H851 H 0.47328 0.52085 0.93294 0.0
H852 H 0.53556 0.57658 0.99567 0.0
C853 C 0.5434 0.47098 0.94515 0.0
N854 N 0.55737 0.49548 0.95958 0.0
C855 C 0.59956 0.48861 0.96602 0.0
C856 C 0.58568 0.46344 0.95066 0.0
C857 C 0.55715 0.45451 0.94065 0.0
C858 C 0.58489 0.50441 0.9702 0.0
H859 H 0.52177 0.46458 0.93587 0.0
H860 H 0.59557 0.52431 0.98087 0.0
C861 C 0.56625 0.53702 0.03662 0.0
C862 C 0.49115 0.45595 0.08541 0.0
N863 N 0.49582 0.52169 0.04394 0.0
C864 C 0.50389 0.53762 0.06813 0.0
C865 C 0.49113 0.55551 0.07122 0.0
C866 C 0.46974 0.55704 0.04916 0.0
C867 C 0.46235 0.54077 0.0241 0.0
C868 C 0.4757 0.52315 0.02194 0.0
C869 C 0.56031 0.56181 0.92344 0.0
O870 O 0.5003 0.48559 0.99332 0.0
O871 O 0.49277 0.48633 0.94736 0.0
O872 O 0.55 0.52855 0.01258 0.0
O873 O 0.55846 0.52673 0.05861 0.0
O874 O 0.47929 0.45195 0.05914 0.0
O875 O 0.51441 0.47509 0.09237 0.0
O876 O 0.56853 0.56696 0.95015 0.0
O877 O 0.54064 0.53953 0.91454 0.0
H878 H 0.51964 0.53568 0.08548 0.0
H879 H 0.46953 0.51026 0.00295 0.0
H880 H 0.53318 0.41145 0.9928 0.0
H881 H 0.60523 0.46656 0.05041 0.0
H882 H 0.44244 0.54437 0.93365 0.0
H883 H 0.50666 0.60321 0.99595 0.0
H884 H 0.62155 0.49625 0.9742 0.0
H885 H 0.54566 0.43556 0.92818 0.0
H886 H 0.49718 0.56704 0.09123 0.0
H887 H 0.44618 0.54133 0.00643 0.0
Cd888 Cd 1.01679 0.47402 0.54788 0.0
Cd889 Cd 0.02412 0.53155 0.45839 0.0
C890 C 0.06571 0.46069 0.59178 0.0
N891 N 0.05138 0.45519 0.56421 0.0
C892 C 0.07123 0.42245 0.55882 0.0
C893 C 0.08574 0.4271 0.58753 0.0
C894 C 0.08302 0.44694 0.60383 0.0
C895 C 0.05405 0.43662 0.54763 0.0
H896 H 0.063 0.47517 0.60478 0.0
H897 H 0.04206 0.43205 0.52595 0.0
C898 C 0.9892 0.47087 0.47382 0.0
C899 C 0.96782 0.53906 0.42125 0.0
C900 C 0.94999 0.55253 0.4099 0.0
C901 C 0.95357 0.57753 0.4225 0.0
C902 C 0.97462 0.5875 0.44726 0.0
C903 C 0.99186 0.57333 0.45796 0.0
N904 N 0.98854 0.54973 0.44472 0.0
H905 H 0.96583 0.52065 0.41054 0.0
H906 H 1.00861 0.58183 0.47627 0.0
C907 C 0.03533 0.49531 0.41244 0.0
N908 N 0.04132 0.50211 0.44067 0.0
C909 C 0.07154 0.4777 0.45052 0.0
C910 C 0.06621 0.4707 0.42142 0.0
C911 C 0.04759 0.47958 0.40233 0.0
C912 C 0.0589 0.49349 0.45967 0.0
H913 H 0.02134 0.50246 0.39771 0.0
H914 H 0.06353 0.49937 0.48198 0.0
C915 C 0.05214 0.53854 0.5362 0.0
C916 C 0.97193 0.43075 0.56097 0.0
N917 N 1.00084 0.50253 0.56897 0.0
C918 C 0.99905 0.50171 0.59655 0.0
C919 C 0.98622 0.51692 0.60661 0.0
C920 C 0.97527 0.53328 0.58816 0.0
C921 C 0.97844 0.53432 0.56008 0.0
C922 C 0.99077 0.51839 0.55081 0.0
C923 C 0.06123 0.57433 0.43496 0.0
O924 O 1.00711 0.48062 0.49668 0.0
O925 O 0.98926 0.48556 0.45251 0.0
O926 O 0.03946 0.5299 0.51076 0.0
O927 O 0.04961 0.52176 0.55586 0.0
O928 O 0.9696 0.44079 0.53672 0.0
O929 O 0.99518 0.44023 0.57831 0.0
O930 O 0.06639 0.57111 0.46155 0.0
O931 O 0.039 0.55769 0.41987 0.0
H932 H 1.00675 0.48857 0.6105 0.0
H933 H 0.99191 0.51831 0.52884 0.0
H934 H 0.07224 0.4072 0.54535 0.0
H935 H 0.09394 0.45166 0.62588 0.0
H936 H 0.93436 0.54404 0.39065 0.0
H937 H 0.97811 0.60641 0.45808 0.0
H938 H 0.08598 0.47174 0.46606 0.0
H939 H 0.04253 0.47446 0.37977 0.0
H940 H 0.98408 0.51505 0.62832 0.0
H941 H 0.97112 0.54703 0.5451 0.0
Cd942 Cd 0.51727 0.97864 0.55338 0.0
Cd943 Cd 0.51738 0.02273 0.4536 0.0
C944 C 0.54576 0.93949 0.58993 0.0
N945 N 0.55167 0.95877 0.57062 0.0
C946 C 0.59369 0.95198 0.57198 0.0
C947 C 0.58772 0.93163 0.59164 0.0
C948 C 0.56338 0.92585 0.60069 0.0
C949 C 0.57533 0.96526 0.56166 0.0
H950 H 0.52713 0.93431 0.59708 0.0
H951 H 0.57989 0.98052 0.54627 0.0
C952 C 0.48239 0.96286 0.47721 0.0
C953 C 0.47204 0.03966 0.40747 0.0
C954 C 0.45516 0.05377 0.39505 0.0
C955 C 0.44963 0.07122 0.41188 0.0
C956 C 0.46106 0.07316 0.44138 0.0
C957 C 0.47796 0.05874 0.45294 0.0
N958 N 0.48334 0.04248 0.43593 0.0
H959 H 0.47677 0.02697 0.39416 0.0
H960 H 0.48749 0.06125 0.47541 0.0
C961 C 0.52059 0.97713 0.41067 0.0
N962 N 0.53173 0.99049 0.43668 0.0
C963 C 0.56579 0.97058 0.44604 0.0
C964 C 0.55499 0.95655 0.41924 0.0
C965 C 0.53191 0.95995 0.40152 0.0
C966 C 0.55382 0.98742 0.45432 0.0
H967 H 0.50316 0.98008 0.39688 0.0
H968 H 0.56254 0.99858 0.47471 0.0
C969 C 0.55402 0.0321 0.52549 0.0
C970 C 0.47982 0.94314 0.58252 0.0
N971 N 0.503 0.01277 0.56623 0.0
C972 C 0.51399 0.02671 0.59193 0.0
C973 C 0.50279 0.04436 0.60023 0.0
C974 C 0.4799 0.04764 0.58203 0.0
C975 C 0.46948 0.03338 0.55534 0.0
C976 C 0.48134 0.01602 0.54789 0.0
C977 C 0.55968 0.05941 0.43122 0.0
O978 O 0.49734 0.97385 0.50124 0.0
O979 O 0.48425 0.97646 0.45504 0.0
O980 O 0.5328 0.02219 0.50547 0.0
O981 O 0.55507 0.0206 0.54899 0.0
O982 O 0.47776 0.93813 0.55639 0.0
O983 O 0.49935 0.96443 0.59466 0.0
O984 O 0.562 0.05906 0.45798 0.0
O985 O 0.53737 0.04353 0.41551 0.0
H986 H 0.53092 0.02347 0.60636 0.0
H987 H 0.47268 0.00441 0.52775 0.0
H988 H 0.61206 0.95723 0.56412 0.0
H989 H 0.55791 0.91093 0.61623 0.0
H990 H 0.44666 0.05109 0.37235 0.0
H991 H 0.45782 0.08648 0.45538 0.0
H992 H 0.5838 0.96915 0.46031 0.0
H993 H 0.52264 0.94941 0.38082 0.0
H994 H 0.51185 0.0551 0.62085 0.0
H995 H 0.45167 0.03479 0.54067 0.0
H996 H 0.20232 0.22143 0.30507 0.0
H997 H 0.15977 0.19094 0.31545 0.0
H998 H 0.13012 0.15907 0.22846 0.0
H999 H 0.17236 0.19067 0.21738 0.0
H1000 H 0.10065 0.17579 0.29218 0.0
H1001 H 0.11114 0.09037 0.23758 0.0
H1002 H 0.14484 0.0808 0.21719 0.0
H1003 H 0.21048 0.13329 0.2822 0.0
H1004 H 0.17713 0.14275 0.30318 0.0
H1005 H 1.01644 0.05754 0.35156 0.0
H1006 H 0.03411 0.08353 0.31276 0.0
H1007 H 0.11673 0.09811 0.3598 0.0
H1008 H 0.09938 0.07258 0.39856 0.0
H1009 H 0.10732 0.08504 0.30104 0.0
H1010 H 0.09106 0.14378 0.36581 0.0
H1011 H 0.06082 0.15617 0.38915 0.0
H1012 H 1.01034 0.15989 0.30771 0.0
H1013 H 0.04015 0.14717 0.28393 0.0
C1014 C 0.18662 0.20844 0.28789 0.0
C1015 C 0.19121 0.2077 0.26061 0.0
C1016 C 0.16214 0.19123 0.29383 0.0
C1017 C 0.14202 0.17273 0.27276 0.0
C1018 C 0.14555 0.17326 0.24497 0.0
C1019 C 0.16989 0.19095 0.23884 0.0
C1020 C 0.12031 0.15007 0.28161 0.0
C1021 C 0.1014 0.15566 0.29336 0.0
C1022 C 0.12161 0.12398 0.2833 0.0
C1023 C 0.1417 0.11738 0.27174 0.0
C1024 C 0.13275 0.09967 0.24759 0.0
C1025 C 0.15178 0.09428 0.23595 0.0
C1026 C 0.17978 0.10644 0.24838 0.0
C1027 C 0.1888 0.12389 0.27259 0.0
C1028 C 0.16985 0.12923 0.28438 0.0
C1029 C 0.03835 0.06609 0.35343 0.0
C1030 C 0.05661 0.06332 0.37813 0.0
C1031 C 0.04835 0.0808 0.33128 0.0
C1032 C 0.07665 0.09258 0.3335 0.0
C1033 C 0.09479 0.08894 0.35767 0.0
C1034 C 0.08487 0.07458 0.37988 0.0
C1035 C 0.08803 0.11092 0.31223 0.0
C1036 C 0.10524 0.10457 0.2984 0.0
C1037 C 0.08529 0.13637 0.30884 0.0
C1038 C 0.06758 0.14421 0.32314 0.0
C1039 C 0.07339 0.14705 0.35291 0.0
C1040 C 0.05636 0.15416 0.36621 0.0
C1041 C 0.03362 0.15873 0.34992 0.0
C1042 C 0.02792 0.15628 0.3203 0.0
C1043 C 0.04487 0.14912 0.3069 0.0
H1044 H 0.02045 0.16423 0.36025 0.0
H1045 H 0.19448 0.10238 0.23923 0.0
H1046 H 0.86368 0.20942 0.33282 0.0
H1047 H 0.90453 0.21159 0.36714 0.0
H1048 H 0.85745 0.17936 0.42966 0.0
H1049 H 0.81664 0.18074 0.39668 0.0
H1050 H 0.90785 0.20648 0.45631 0.0
H1051 H 0.86534 0.13721 0.38099 0.0
H1052 H 0.84652 0.11856 0.33143 0.0
H1053 H 0.92525 0.15944 0.31286 0.0
H1054 H 0.94443 0.17866 0.36225 0.0
H1055 H 0.95797 0.09891 0.49878 0.0
H1056 H 0.93588 0.13182 0.48761 0.0
H1057 H 1.00028 0.18007 0.4478 0.0
H1058 H 0.02265 0.14745 0.45927 0.0
H1059 H 0.94669 0.15168 0.41179 0.0
H1060 H 0.98948 0.21148 0.49456 0.0
H1061 H 1.00465 0.22433 0.54578 0.0
H1062 H 0.9211 0.19316 0.553 0.0
H1063 H 0.90539 0.17958 0.5019 0.0
C1064 C 0.86172 0.20398 0.35411 0.0
C1065 C 0.83606 0.19383 0.36124 0.0
C1066 C 0.88539 0.20492 0.37377 0.0
C1067 C 0.88384 0.19435 0.40049 0.0
C1068 C 0.85907 0.18701 0.40888 0.0
C1069 C 0.8355 0.1872 0.3896 0.0
C1070 C 0.90654 0.18696 0.41747 0.0
C1071 C 0.91635 0.19446 0.44665 0.0
C1072 C 0.91767 0.17124 0.40488 0.0
C1073 C 0.90622 0.15965 0.37519 0.0
C1074 C 0.87858 0.14236 0.36628 0.0
C1075 C 0.86785 0.13168 0.33823 0.0
C1076 C 0.88465 0.13788 0.31898 0.0
C1077 C 0.91224 0.15472 0.32777 0.0
C1078 C 0.92305 0.16552 0.35578 0.0
C1079 C 0.96809 0.11718 0.4889 0.0
C1080 C 0.99184 0.12042 0.47964 0.0
C1081 C 0.95554 0.13607 0.48266 0.0
C1082 C 0.96644 0.15829 0.4668 0.0
C1083 C 0.99173 0.16314 0.46028 0.0
C1084 C 1.00447 0.14443 0.46684 0.0
C1085 C 0.94819 0.1713 0.45056 0.0
C1086 C 0.93879 0.16435 0.4214 0.0
C1087 C 0.93692 0.18653 0.46351 0.0
C1088 C 0.94626 0.19433 0.49436 0.0
C1089 C 0.97433 0.20706 0.5071 0.0
C1090 C 0.98303 0.21453 0.53611 0.0
C1091 C 0.96386 0.20954 0.55262 0.0
C1092 C 0.93592 0.19701 0.54018 0.0
C1093 C 0.92711 0.18943 0.51117 0.0
H1094 H 0.97068 0.21544 0.57503 0.0
H1095 H 0.87631 0.12958 0.29728 0.0
H1096 H 0.85208 0.84329 0.29365 0.0
H1097 H 0.86766 0.88165 0.32811 0.0
H1098 H 0.78374 0.86742 0.32848 0.0
H1099 H 0.76829 0.82856 0.29453 0.0
H1100 H 0.8615 0.92868 0.33678 0.0
H1101 H 0.78065 0.87412 0.39355 0.0
H1102 H 0.74488 0.82894 0.39457 0.0
H1103 H 0.79786 0.79092 0.37777 0.0
H1104 H 0.83378 0.83585 0.37634 0.0
H1105 H 0.93302 0.99511 0.46684 0.0
H1106 H 0.88497 0.96998 0.44339 0.0
H1107 H 0.90491 0.90115 0.428 0.0
H1108 H 0.95276 0.92627 0.45096 0.0
H1109 H 0.84398 0.89139 0.4288 0.0
H1110 H 0.92128 0.94025 0.37113 0.0
H1111 H 0.96137 0.9823 0.37126 0.0
H1112 H 0.91765 0.02962 0.39103 0.0
H1113 H 0.87723 0.9878 0.39066 0.0
C1114 C 0.83704 0.84905 0.30032 0.0
C1115 C 0.80916 0.83315 0.29184 0.0
C1116 C 0.84586 0.87091 0.31999 0.0
C1117 C 0.82682 0.87704 0.33122 0.0
C1118 C 0.79874 0.86275 0.32044 0.0
C1119 C 0.78997 0.84067 0.30109 0.0
C1120 C 0.8369 0.89519 0.3571 0.0
C1121 C 0.85687 0.92101 0.35678 0.0
C1122 C 0.83078 0.88527 0.38324 0.0
C1123 C 0.80977 0.85823 0.38484 0.0
C1124 C 0.78464 0.85607 0.39019 0.0
C1125 C 0.76433 0.83055 0.39071 0.0
C1126 C 0.7691 0.80708 0.38619 0.0
C1127 C 0.79418 0.8091 0.38113 0.0
C1128 C 0.8145 0.83457 0.38046 0.0
C1129 C 0.92669 0.974 0.46004 0.0
C1130 C 0.94627 0.96243 0.4605 0.0
C1131 C 0.89927 0.95969 0.44671 0.0
C1132 C 0.89161 0.93394 0.43366 0.0
C1133 C 0.91046 0.92096 0.43813 0.0
C1134 C 0.93782 0.9353 0.45122 0.0
C1135 C 0.86875 0.92457 0.40834 0.0
C1136 C 0.84687 0.90011 0.40867 0.0
C1137 C 0.87282 0.93584 0.38212 0.0
C1138 C 0.89635 0.96105 0.3808 0.0
C1139 C 0.92019 0.95969 0.37518 0.0
C1140 C 0.94294 0.98343 0.37534 0.0
C1141 C 0.94205 0.00862 0.38113 0.0
C1142 C 0.9183 0.01011 0.38651 0.0
C1143 C 0.89544 0.98642 0.38623 0.0
H1144 H 0.95976 0.02696 0.38149 0.0
H1145 H 0.75341 0.78735 0.38667 0.0
H1146 H 0.176 0.82044 0.31418 0.0
H1147 H 0.1525 0.82863 0.34845 0.0
H1148 H 0.19997 0.91437 0.35121 0.0
H1149 H 0.22418 0.90625 0.3179 0.0
H1150 H 0.19515 0.8978 0.40329 0.0
H1151 H 0.13431 0.88505 0.3088 0.0
H1152 H 0.10658 0.85881 0.26393 0.0
H1153 H 0.05997 0.79595 0.31032 0.0
H1154 H 0.08767 0.82171 0.35551 0.0
H1155 H 0.12425 0.97553 0.4307 0.0
H1156 H 0.14882 0.95062 0.41568 0.0
H1157 H 0.08221 0.87526 0.41918 0.0
H1158 H 0.05723 0.90027 0.43425 0.0
H1159 H 0.09498 0.87523 0.37229 0.0
H1160 H 0.15205 0.89154 0.46698 0.0
H1161 H 0.18123 0.91734 0.51176 0.0
H1162 H 0.2349 0.97322 0.46576 0.0
H1163 H 0.20631 0.9478 0.42074 0.0
C1164 C 0.18171 0.84099 0.32244 0.0
C1165 C 0.20177 0.86276 0.31312 0.0
C1166 C 0.16812 0.84564 0.34185 0.0
C1167 C 0.17426 0.87214 0.35212 0.0
C1168 C 0.19487 0.89375 0.34352 0.0
C1169 C 0.20847 0.88913 0.32423 0.0
C1170 C 0.15865 0.87793 0.37084 0.0
C1171 C 0.17323 0.89289 0.39659 0.0
C1172 C 0.12991 0.87052 0.36264 0.0
C1173 C 0.11328 0.85511 0.3355 0.0
C1174 C 0.11829 0.86553 0.30942 0.0
C1175 C 0.10256 0.85077 0.28394 0.0
C1176 C 0.0816 0.82568 0.28428 0.0
C1177 C 0.07626 0.81535 0.3101 0.0
C1178 C 0.09196 0.83002 0.33564 0.0
C1179 C 0.11504 0.9536 0.42908 0.0
C1180 C 0.08876 0.93995 0.43386 0.0
C1181 C 0.12929 0.93928 0.42065 0.0
C1182 C 0.11784 0.91088 0.41707 0.0
C1183 C 0.09172 0.8971 0.42219 0.0
C1184 C 0.0773 0.91147 0.43044 0.0
C1185 C 0.13166 0.89634 0.40433 0.0
C1186 C 0.11675 0.87957 0.37964 0.0
C1187 C 0.16014 0.90209 0.41353 0.0
C1188 C 0.17691 0.91787 0.44049 0.0
C1189 C 0.16995 0.90945 0.4664 0.0
C1190 C 0.18644 0.92393 0.49182 0.0
C1191 C 0.20976 0.94691 0.49159 0.0
C1192 C 0.2168 0.95543 0.46592 0.0
C1193 C 0.20055 0.94094 0.44047 0.0
H1194 H 0.22242 0.95805 0.51131 0.0
H1195 H 0.06943 0.81428 0.26453 0.0
H1196 H 0.23178 0.83536 0.60265 0.0
H1197 H 0.20228 0.83557 0.55627 0.0
H1198 H 0.1328 0.81297 0.59387 0.0
H1199 H 0.16222 0.81495 0.64037 0.0
H1200 H 0.12482 0.80259 0.52483 0.0
H1201 H 0.15961 0.87371 0.60978 0.0
H1202 H 0.19857 0.90154 0.64772 0.0
H1203 H 0.24958 0.92563 0.588 0.0
H1204 H 0.21102 0.89744 0.54991 0.0
H1205 H 0.03659 0.87378 0.5078 0.0
H1206 H 0.06437 0.84604 0.51156 0.0
H1207 H 0.13227 0.9161 0.49769 0.0
H1208 H 0.10562 0.94409 0.49718 0.0
H1209 H 0.14777 0.90075 0.54322 0.0
H1210 H 0.10566 0.85051 0.45557 0.0
H1211 H 0.06885 0.82422 0.41516 0.0
H1212 H 0.03608 0.76239 0.47056 0.0
H1213 H 0.0726 0.78835 0.51132 0.0
C1214 C 0.21011 0.82982 0.60094 0.0
C1215 C 0.19972 0.8269 0.62544 0.0
C1216 C 0.19315 0.82923 0.57427 0.0
C1217 C 0.16551 0.8248 0.57185 0.0
C1218 C 0.15413 0.81643 0.59537 0.0
C1219 C 0.17118 0.8178 0.62216 0.0
C1220 C 0.15212 0.83878 0.55024 0.0
C1221 C 0.1299 0.82415 0.52819 0.0
C1222 C 0.15938 0.86696 0.5543 0.0
C1223 C 0.18261 0.88347 0.57718 0.0
C1224 C 0.1792 0.88488 0.60485 0.0
C1225 C 0.20118 0.90069 0.62635 0.0
C1226 C 0.22651 0.91541 0.62025 0.0
C1227 C 0.22994 0.91424 0.59268 0.0
C1228 C 0.20808 0.89829 0.57117 0.0
C1229 C 0.05722 0.88297 0.50471 0.0
C1230 C 0.06907 0.91109 0.50243 0.0
C1231 C 0.07305 0.86701 0.50647 0.0
C1232 C 0.10067 0.87885 0.50502 0.0
C1233 C 0.11123 0.90637 0.49921 0.0
C1234 C 0.09594 0.92246 0.49889 0.0
C1235 C 0.11995 0.86502 0.51673 0.0
C1236 C 0.14311 0.87957 0.53795 0.0
C1237 C 0.11402 0.83717 0.5108 0.0
C1238 C 0.09176 0.82151 0.48653 0.0
C1239 C 0.09044 0.83144 0.45918 0.0
C1240 C 0.06968 0.81656 0.4362 0.0
C1241 C 0.05007 0.79172 0.44032 0.0
C1242 C 0.05127 0.78165 0.4674 0.0
C1243 C 0.07206 0.79639 0.49044 0.0
H1244 H 0.034 0.78023 0.42251 0.0
H1245 H 0.24352 0.9276 0.63692 0.0
H1246 H 0.26714 0.17166 0.7106 0.0
H1247 H 0.25037 0.13521 0.67347 0.0
H1248 H 0.1672 0.12564 0.67215 0.0
H1249 H 0.18402 0.16138 0.70975 0.0
H1250 H 0.16925 0.07829 0.66003 0.0
H1251 H 0.20831 0.17333 0.62951 0.0
H1252 H 0.24769 0.21631 0.63092 0.0
H1253 H 0.29356 0.17283 0.60793 0.0
H1254 H 0.25441 0.12961 0.60628 0.0
H1255 H 0.0877 0.08776 0.53384 0.0
H1256 H 0.13389 0.11098 0.56298 0.0
H1257 H 0.15177 0.03903 0.55691 0.0
H1258 H 0.10558 0.01585 0.52767 0.0
H1259 H 0.19477 0.11826 0.5717 0.0
H1260 H 0.15538 0.02082 0.61427 0.0
H1261 H 0.11328 0.98022 0.6118 0.0
H1262 H 0.06702 0.03096 0.61065 0.0
H1263 H 0.10886 0.07177 0.61288 0.0
C1264 C 0.24527 0.16093 0.70302 0.0
C1265 C 0.22671 0.16897 0.71286 0.0
C1266 C 0.23575 0.1403 0.68177 0.0
C1267 C 0.2076 0.12814 0.66964 0.0
C1268 C 0.18903 0.13472 0.68125 0.0
C1269 C 0.19856 0.15504 0.7028 0.0
C1270 C 0.19722 0.1116 0.64258 0.0
C1271 C 0.17547 0.08662 0.64087 0.0
C1272 C 0.20538 0.12233 0.61747 0.0
C1273 C 0.22856 0.14833 0.61789 0.0
C1274 C 0.2268 0.17299 0.62473 0.0
C1275 C 0.24906 0.19736 0.6256 0.0
C1276 C 0.27308 0.19729 0.61955 0.0
C1277 C 0.27491 0.17285 0.61257 0.0
C1278 C 0.25269 0.14843 0.6116 0.0
C1279 C 0.10215 0.07761 0.53712 0.0
C1280 C 0.0934 0.05022 0.52862 0.0
C1281 C 0.12853 0.09084 0.55374 0.0
C1282 C 0.14602 0.07654 0.56227 0.0
C1283 C 0.13857 0.05038 0.55038 0.0
C1284 C 0.1122 0.03718 0.5337 0.0
C1285 C 0.16659 0.08547 0.58939 0.0
C1286 C 0.18987 0.10909 0.59107 0.0
C1287 C 0.16004 0.07351 0.61457 0.0
C1288 C 0.13511 0.04917 0.61386 0.0
C1289 C 0.13622 0.02322 0.61363 0.0
C1290 C 0.11243 1.00022 0.6122 0.0
C1291 C 0.08752 1.00302 0.6112 0.0
C1292 C 0.08634 0.02882 0.61155 0.0
C1293 C 0.11005 0.05188 0.61286 0.0
H1294 H 0.06913 0.98519 0.61004 0.0
H1295 H 0.29024 0.21617 0.62016 0.0
H1296 H 0.91553 0.18576 0.71686 0.0
H1297 H 0.92922 0.17051 0.67784 0.0
H1298 H 0.84512 0.13938 0.63013 0.0
H1299 H 0.83126 0.15452 0.66928 0.0
H1300 H 0.87029 0.10205 0.63379 0.0
H1301 H 0.88828 0.19282 0.60527 0.0
H1302 H 0.90659 0.2427 0.61175 0.0
H1303 H 0.98823 0.24342 0.63978 0.0
H1304 H 0.97036 0.1935 0.63373 0.0
H1305 H 0.91402 0.05909 0.52389 0.0
H1306 H 0.89353 0.08501 0.54554 0.0
H1307 H 0.97098 0.12549 0.6046 0.0
H1308 H 0.99146 0.09951 0.58358 0.0
H1309 H 0.9436 0.15978 0.58807 0.0
H1310 H 0.92571 0.07031 0.62367 0.0
H1311 H 0.90883 0.02037 0.61933 0.0
H1312 H 0.82784 0.01725 0.58023 0.0
H1313 H 0.84436 0.06724 0.58407 0.0
C1314 C 0.89999 0.17577 0.698 0.0
C1315 C 0.87233 0.1712 0.69612 0.0
C1316 C 0.90785 0.16732 0.67562 0.0
C1317 C 0.8882 0.15406 0.651 0.0
C1318 C 0.8606 0.14974 0.64889 0.0
C1319 C 0.85274 0.15845 0.67119 0.0
C1320 C 0.89645 0.14292 0.62861 0.0
C1321 C 0.88575 0.11473 0.62315 0.0
C1322 C 0.9171 0.15944 0.61532 0.0
C1323 C 0.92797 0.18943 0.61916 0.0
C1324 C 0.91012 0.20361 0.613 0.0
C1325 C 0.92042 0.23189 0.61653 0.0
C1326 C 0.94855 0.24622 0.62617 0.0
C1327 C 0.96644 0.23229 0.63232 0.0
C1328 C 0.95624 0.20401 0.62881 0.0
C1329 C 0.92674 0.07365 0.54136 0.0
C1330 C 0.95429 0.07689 0.55226 0.0
C1331 C 0.91505 0.08857 0.55355 0.0
C1332 C 0.93067 0.10686 0.57692 0.0
C1333 C 0.95859 0.11151 0.58655 0.0
C1334 C 0.97028 0.09661 0.57442 0.0
C1335 C 0.91752 0.11895 0.59341 0.0
C1336 C 0.9275 0.14722 0.59798 0.0
C1337 C 0.89631 0.1025 0.60609 0.0
C1338 C 0.88632 0.07248 0.60382 0.0
C1339 C 0.90435 0.05897 0.61394 0.0
C1340 C 0.89484 0.03066 0.61162 0.0
C1341 C 0.8673 0.01565 0.59942 0.0
C1342 C 0.84918 0.02891 0.58961 0.0
C1343 C 0.8586 0.05722 0.59187 0.0
H1344 H 0.85997 0.99374 0.59764 0.0
H1345 H 0.95649 0.26811 0.62886 0.0
H1346 H 0.83938 0.78973 0.69094 0.0
H1347 H 0.87928 0.81946 0.67553 0.0
H1348 H 0.91627 0.85629 0.76032 0.0
H1349 H 0.87638 0.82549 0.77648 0.0
H1350 H 0.91209 0.89318 0.71604 0.0
H1351 H 0.94848 0.82471 0.7379 0.0
H1352 H 0.94772 0.77805 0.74044 0.0
H1353 H 0.92722 0.76887 0.64942 0.0
H1354 H 0.92744 0.81532 0.64628 0.0
H1355 H 1.0087 0.97233 0.63567 0.0
H1356 H 0.99247 0.94497 0.67425 0.0
H1357 H 0.93374 0.88201 0.6129 0.0
H1358 H 0.94961 0.90921 0.57429 0.0
H1359 H 0.96264 0.86272 0.65954 0.0
H1360 H 0.91272 0.92365 0.63901 0.0
H1361 H 0.90931 0.96868 0.63433 0.0
H1362 H 0.95256 0.99054 0.72148 0.0
H1363 H 0.95652 0.9457 0.72654 0.0
C1364 C 0.85603 0.80379 0.7066 0.0
C1365 C 0.85424 0.80578 0.73486 0.0
C1366 C 0.87896 0.82071 0.69771 0.0
C1367 C 0.90065 0.84002 0.7168 0.0
C1368 C 0.89961 0.84149 0.74531 0.0
C1369 C 0.8767 0.82411 0.7544 0.0
C1370 C 0.92273 0.86002 0.70558 0.0
C1371 C 0.924 0.88686 0.70453 0.0
C1372 C 0.93777 0.85148 0.69022 0.0
C1373 C 0.93799 0.82358 0.69188 0.0
C1374 C 0.94369 0.81272 0.71841 0.0
C1375 C 0.94336 0.78629 0.71996 0.0
C1376 C 0.93743 0.77051 0.69511 0.0
C1377 C 0.93187 0.78114 0.66865 0.0
C1378 C 0.93216 0.80755 0.66698 0.0
C1379 C 0.99236 0.95262 0.63044 0.0
C1380 C 0.98028 0.94291 0.60199 0.0
C1381 C 0.9832 0.93706 0.65247 0.0
C1382 C 0.96202 0.91153 0.64632 0.0
C1383 C 0.95027 0.90163 0.61799 0.0
C1384 C 0.95919 0.91726 0.59598 0.0
C1385 C 0.95094 0.89538 0.66909 0.0
C1386 C 0.95175 0.86936 0.67211 0.0
C1387 C 0.93761 0.90458 0.68608 0.0
C1388 C 0.93529 0.93152 0.68303 0.0
C1389 C 0.92175 0.93817 0.65709 0.0
C1390 C 0.91966 0.96362 0.65438 0.0
C1391 C 0.93082 0.9825 0.67756 0.0
C1392 C 0.94401 0.97592 0.70352 0.0
C1393 C 0.94618 0.9505 0.70632 0.0
H1394 H 0.92916 1.00219 0.67542 0.0
H1395 H 0.93716 0.75004 0.69635 0.0
H1396 H 0.32429 0.16632 0.09971 0.0
H1397 H 0.35659 0.14566 0.09479 0.0
H1398 H 0.368 0.12862 0.18347 0.0
H1399 H 0.33468 0.14836 0.18829 0.0
H1400 H 0.40859 0.15533 0.11626 0.0
H1401 H 0.37968 0.0694 0.19198 0.0
H1402 H 0.34068 0.04298 0.21251 0.0
H1403 H 0.28472 0.05552 0.13978 0.0
H1404 H 0.32333 0.08163 0.11861 0.0
H1405 H 0.49784 0.08309 0.12143 0.0
H1406 H 0.47198 0.10705 0.13694 0.0
H1407 H 0.39637 0.04646 0.09104 0.0
H1408 H 0.42194 0.02206 0.07625 0.0
H1409 H 0.39056 0.05982 0.14086 0.0
H1410 H 0.42619 0.10833 0.06355 0.0
H1411 H 0.4628 0.13322 0.03927 0.0
H1412 H 0.50091 0.19334 0.1086 0.0
H1413 H 0.46467 0.1686 0.13345 0.0
C1414 C 0.3335 0.15805 0.11819 0.0
C1415 C 0.32647 0.15868 0.14431 0.0
C1416 C 0.35225 0.14647 0.1154 0.0
C1417 C 0.36457 0.1352 0.13862 0.0
C1418 C 0.3585 0.13677 0.16508 0.0
C1419 C 0.3396 0.14831 0.16788 0.0
C1420 C 0.38279 0.12095 0.13454 0.0
C1421 C 0.40475 0.13452 0.1219 0.0
C1422 C 0.37782 0.09369 0.1416 0.0
C1423 C 0.35441 0.0777 0.15389 0.0
C1424 C 0.35904 0.06642 0.18034 0.0
C1425 C 0.33701 0.05153 0.1921 0.0
C1426 C 0.31026 0.04769 0.17754 0.0
C1427 C 0.30546 0.0586 0.1511 0.0
C1428 C 0.3274 0.07345 0.13921 0.0
C1429 C 0.4757 0.0747 0.1149 0.0
C1430 C 0.46204 0.05077 0.09729 0.0
C1431 C 0.46092 0.08854 0.12363 0.0
C1432 C 0.43217 0.07879 0.1149 0.0
C1433 C 0.41851 0.0545 0.09802 0.0
C1434 C 0.43322 0.0407 0.0893 0.0
C1435 C 0.4162 0.09414 0.12241 0.0
C1436 C 0.39468 0.08078 0.13569 0.0
C1437 C 0.42129 0.12145 0.11552 0.0
C1438 C 0.4429 0.13648 0.10047 0.0
C1439 C 0.44248 0.12677 0.07369 0.0
C1440 C 0.46314 0.14085 0.05982 0.0
C1441 C 0.48421 0.1648 0.07242 0.0
C1442 C 0.4846 0.17476 0.09888 0.0
C1443 C 0.464 0.16073 0.11286 0.0
H1444 H 0.50021 0.17567 0.06166 0.0
H1445 H 0.29324 0.03619 0.1867 0.0
H1446 H 0.8352 0.34051 0.25503 0.0
H1447 H 0.86343 0.3646 0.22244 0.0
H1448 H 0.79965 0.31838 0.15136 0.0
H1449 H 0.77168 0.29444 0.18396 0.0
H1450 H 0.84576 0.31689 0.14675 0.0
H1451 H 0.81996 0.39528 0.15221 0.0
H1452 H 0.81103 0.43103 0.17472 0.0
H1453 H 0.88876 0.45242 0.23458 0.0
H1454 H 0.89859 0.41755 0.21158 0.0
H1455 H 0.92368 0.40141 0.05092 0.0
H1456 H 0.88788 0.37597 0.07566 0.0
H1457 H 0.94492 0.4066 0.15629 0.0
H1458 H 0.98053 0.43189 0.132 0.0
H1459 H 0.89724 0.41604 0.15029 0.0
H1460 H 0.92507 0.34208 0.13481 0.0
H1461 H 0.93318 0.30968 0.10629 0.0
H1462 H 0.84834 0.27888 0.06235 0.0
H1463 H 0.8398 0.31141 0.09032 0.0
C1464 C 0.82721 0.33588 0.23243 0.0
C1465 C 0.80181 0.31505 0.22208 0.0
C1466 C 0.84317 0.34975 0.21376 0.0
C1467 C 0.8336 0.34346 0.18435 0.0
C1468 C 0.80757 0.32345 0.17394 0.0
C1469 C 0.79175 0.30948 0.19264 0.0
C1470 C 0.85186 0.35579 0.16493 0.0
C1471 C 0.85674 0.3386 0.14724 0.0
C1472 C 0.86623 0.38405 0.16543 0.0
C1473 C 0.85976 0.40362 0.18054 0.0
C1474 C 0.835 0.40749 0.17032 0.0
C1475 C 0.82995 0.42779 0.18293 0.0
C1476 C 0.8492 0.44381 0.20623 0.0
C1477 C 0.87379 0.43989 0.21664 0.0
C1478 C 0.87924 0.42007 0.20367 0.0
C1479 C 0.92864 0.40234 0.07392 0.0
C1480 C 0.95483 0.41881 0.08954 0.0
C1481 C 0.90823 0.38778 0.08798 0.0
C1482 C 0.91381 0.38953 0.11777 0.0
C1483 C 0.94021 0.40511 0.13329 0.0
C1484 C 0.96054 0.41953 0.11934 0.0
C1485 C 0.89189 0.37706 0.13305 0.0
C1486 C 0.88622 0.39429 0.14978 0.0
C1487 C 0.87667 0.34885 0.13136 0.0
C1488 C 0.8819 0.32951 0.11434 0.0
C1489 C 0.90821 0.32865 0.11881 0.0
C1490 C 0.91287 0.31019 0.10281 0.0
C1491 C 0.89132 0.29231 0.08243 0.0
C1492 C 0.86504 0.2928 0.07807 0.0
C1493 C 0.86028 0.31125 0.09399 0.0
H1494 H 0.89497 0.27802 0.07008 0.0
H1495 H 0.84512 0.45935 0.2161 0.0
H1496 H 0.68981 0.75092 0.18911 0.0
H1497 H 0.66899 0.78106 0.16333 0.0
H1498 H 0.74397 0.84961 0.19408 0.0
H1499 H 0.76451 0.81931 0.221 0.0
H1500 H 0.70322 0.86193 0.20035 0.0
H1501 H 0.71734 0.82581 0.11709 0.0
H1502 H 0.71486 0.79026 0.08379 0.0
H1503 H 0.62785 0.75369 0.07411 0.0
H1504 H 0.62975 0.78922 0.10689 0.0
H1505 H 0.64572 0.95065 0.11815 0.0
H1506 H 0.67473 0.92521 0.13799 0.0
H1507 H 0.60622 0.85012 0.11059 0.0
H1508 H 0.57769 0.87523 0.0894 0.0
H1509 H 0.64794 0.84411 0.1011 0.0
H1510 H 0.63225 0.87862 0.18298 0.0
H1511 H 0.6326 0.91342 0.21556 0.0
H1512 H 0.72005 0.95115 0.22957 0.0
H1513 H 0.72018 0.91673 0.19679 0.0
C1514 C 0.70211 0.77237 0.18991 0.0
C1515 C 0.72903 0.78253 0.20678 0.0
C1516 C 0.69019 0.78969 0.17492 0.0
C1517 C 0.70485 0.81785 0.1761 0.0
C1518 C 0.73208 0.82804 0.1925 0.0
C1519 C 0.74401 0.81062 0.20772 0.0
C1520 C 0.6909 0.83651 0.16215 0.0
C1521 C 0.69164 0.85833 0.17843 0.0
C1522 C 0.67487 0.83162 0.13381 0.0
C1523 C 0.67377 0.80996 0.11463 0.0
C1524 C 0.69775 0.81004 0.108 0.0
C1525 C 0.69642 0.79 0.08914 0.0
C1526 C 0.67127 0.76964 0.07706 0.0
C1527 C 0.64733 0.76942 0.08356 0.0
C1528 C 0.6485 0.78959 0.10212 0.0
C1529 C 0.63683 0.92873 0.116 0.0
C1530 C 0.60902 0.91523 0.10225 0.0
C1531 C 0.65346 0.9141 0.12778 0.0
C1532 C 0.64276 0.88551 0.12643 0.0
C1533 C 0.6152 0.87207 0.11224 0.0
C1534 C 0.59868 0.88661 0.10031 0.0
C1535 C 0.66 0.86938 0.13935 0.0
C1536 C 0.6598 0.84798 0.12292 0.0
C1537 C 0.67623 0.87448 0.16764 0.0
C1538 C 0.67618 0.8953 0.18716 0.0
C1539 C 0.65152 0.89448 0.19281 0.0
C1540 C 0.65164 0.91411 0.21135 0.0
C1541 C 0.67632 0.93454 0.22455 0.0
C1542 C 0.70094 0.93535 0.21928 0.0
C1543 C 0.70093 0.91578 0.20074 0.0
H1544 H 0.67637 0.9497 0.23892 0.0
H1545 H 0.67033 0.7541 0.06257 0.0
H1546 H 0.22175 0.67906 0.17674 0.0
H1547 H 0.1951 0.65753 0.13041 0.0
H1548 H 0.18566 0.73224 0.10325 0.0
H1549 H 0.21347 0.75456 0.1495 0.0
H1550 H 0.13517 0.68124 0.09681 0.0
H1551 H 0.22018 0.71723 0.07019 0.0
H1552 H 0.27001 0.72953 0.07763 0.0
H1553 H 0.25939 0.6455 0.08203 0.0
H1554 H 0.20956 0.63267 0.07514 0.0
H1555 H 0.05144 0.57493 0.99777 0.0
H1556 H 0.08669 0.62078 0.00628 0.0
H1557 H 0.14175 0.58955 0.0625 0.0
H1558 H 0.10693 0.54394 0.05355 0.0
H1559 H 0.16999 0.6345 0.03691 0.0
H1560 H 0.09632 0.60451 0.0887 0.0
H1561 H 0.04742 0.58718 0.08965 0.0
H1562 H 0.03793 0.65539 0.04483 0.0
H1563 H 0.08678 0.67292 0.04337 0.0
C1564 C 0.21424 0.69112 0.16101 0.0
C1565 C 0.21942 0.71849 0.16707 0.0
C1566 C 0.19914 0.67878 0.13445 0.0
C1567 C 0.18872 0.69344 0.11349 0.0
C1568 C 0.19373 0.72073 0.11925 0.0
C1569 C 0.20934 0.73331 0.14577 0.0
C1570 C 0.17098 0.67898 0.08652 0.0
C1571 C 0.14271 0.67188 0.08278 0.0
C1572 C 0.18107 0.66651 0.06881 0.0
C1573 C 0.21102 0.67398 0.07205 0.0
C1574 C 0.22845 0.70135 0.0728 0.0
C1575 C 0.25672 0.70843 0.07695 0.0
C1576 C 0.26784 0.6883 0.08024 0.0
C1577 C 0.25072 0.66106 0.07937 0.0
C1578 C 0.22244 0.65387 0.07527 0.0
C1579 C 0.07153 0.57779 0.01084 0.0
C1580 C 0.07658 0.55614 0.02515 0.0
C1581 C 0.09159 0.60393 0.01574 0.0
C1582 C 0.11668 0.60854 0.03524 0.0
C1583 C 0.12257 0.58642 0.04728 0.0
C1584 C 0.10259 0.56043 0.04244 0.0
C1585 C 0.13426 0.6359 0.0482 0.0
C1586 C 0.16244 0.64521 0.04951 0.0
C1587 C 0.1242 0.64998 0.06434 0.0
C1588 C 0.09503 0.63985 0.06566 0.0
C1589 C 0.08375 0.61574 0.07899 0.0
C1590 C 0.05606 0.60587 0.0796 0.0
C1591 C 0.03955 0.62013 0.06724 0.0
C1592 C 0.05073 0.64434 0.05433 0.0
C1593 C 0.07841 0.65424 0.05359 0.0
H1594 H 0.01811 0.61247 0.06772 0.0
H1595 H 0.28973 0.69381 0.08347 0.0
H1596 H 0.26768 0.78713 0.85044 0.0
H1597 H 0.30157 0.81281 0.89236 0.0
H1598 H 0.36575 0.8033 0.86019 0.0
H1599 H 0.33231 0.77936 0.81728 0.0
H1600 H 0.37156 0.80199 0.92375 0.0
H1601 H 0.35582 0.8526 0.84168 0.0
H1602 H 0.331 0.87152 0.80287 0.0
H1603 H 0.30692 0.9094 0.86319 0.0
H1604 H 0.3305 0.88958 0.9024 0.0
H1605 H 0.49043 0.92224 0.95367 0.0
H1606 H 0.45123 0.87953 0.93949 0.0
H1607 H 0.40149 0.91118 0.97466 0.0
H1608 H 0.44093 0.95392 0.98903 0.0
H1609 H 0.38418 0.89912 0.91684 0.0
H1610 H 0.40315 0.85096 -0.00054 0.0
H1611 H 0.43288 0.83615 0.0377 0.0
H1612 H 0.45627 0.79952 0.97559 0.0
H1613 H 0.42703 0.81465 0.93707 0.0
C1614 C 0.28901 0.79065 0.85216 0.0
C1615 C 0.29753 0.78292 0.82962 0.0
C1616 C 0.30826 0.80488 0.87637 0.0
C1617 C 0.33616 0.81046 0.87893 0.0
C1618 C 0.34429 0.79943 0.85836 0.0
C1619 C 0.32512 0.7859 0.83373 0.0
C1620 C 0.35698 0.83104 0.90047 0.0
C1621 C 0.37428 0.82322 0.92237 0.0
C1622 C 0.36026 0.8587 0.89878 0.0
C1623 C 0.34429 0.86888 0.875 0.0
C1624 C 0.34453 0.86421 0.84669 0.0
C1625 C 0.33084 0.87528 0.82459 0.0
C1626 C 0.31728 0.89153 0.83053 0.0
C1627 C 0.31736 0.89674 0.8586 0.0
C1628 C 0.33067 0.88537 0.88075 0.0
C1629 C 0.47139 0.91954 0.95933 0.0
C1630 C 0.46843 0.94099 0.97241 0.0
C1631 C 0.44908 0.89516 0.95142 0.0
C1632 C 0.42351 0.89216 0.95618 0.0
C1633 C 0.42112 0.91304 0.97105 0.0
C1634 C 0.44353 0.93736 0.97917 0.0
C1635 C 0.39869 0.8702 0.94026 0.0
C1636 C 0.3808 0.87778 0.91899 0.0
C1637 C 0.39509 0.84258 0.94242 0.0
C1638 C 0.41281 0.83369 0.96545 0.0
C1639 C 0.41474 0.83984 0.99402 0.0
C1640 C 0.4315 0.83143 0.01573 0.0
C1641 C 0.44642 0.81686 0.00909 0.0
C1642 C 0.44465 0.81073 0.98072 0.0
C1643 C 0.42794 0.81915 0.95896 0.0
H1644 H 0.45936 0.81034 0.02592 0.0
H1645 H 0.30677 0.90016 0.81338 0.0
H1646 H 0.14149 0.29022 0.81383 0.0
H1647 H 0.12066 0.32108 0.82553 0.0
H1648 H 0.15612 0.31887 0.91454 0.0
H1649 H 0.17622 0.28748 0.90293 0.0
H1650 H 0.1068 0.31488 0.90978 0.0
H1651 H 0.18056 0.37581 0.87361 0.0
H1652 H 0.20932 0.39184 0.83903 0.0
H1653 H 0.14027 0.39551 0.77647 0.0
H1654 H 0.11101 0.37924 0.81065 0.0
H1655 H 0.08305 0.42601 0.95944 0.0
H1656 H 0.1045 0.3967 0.94606 0.0
H1657 H 0.06186 0.39423 0.85866 0.0
H1658 H 0.04122 0.42466 0.87169 0.0
H1659 H 0.11422 0.40055 0.86206 0.0
H1660 H 0.04138 0.34035 0.90265 0.0
H1661 H 1.01582 0.32595 0.94017 0.0
H1662 H 0.0879 0.32341 0.9983 0.0
H1663 H 0.11395 0.33802 0.96119 0.0
C1664 C 0.14507 0.29657 0.83585 0.0
C1665 C 0.16049 0.28633 0.85743 0.0
C1666 C 0.13317 0.31429 0.84257 0.0
C1667 C 0.1369 0.32266 0.871 0.0
C1668 C 0.15269 0.31272 0.89248 0.0
C1669 C 0.16425 0.29477 0.8858 0.0
C1670 C 0.12389 0.34116 0.87853 0.0
C1671 C 0.10877 0.33377 0.89953 0.0
C1672 C 0.12596 0.36573 0.86504 0.0
C1673 C 0.14355 0.37606 0.84459 0.0
C1674 C 0.17148 0.37992 0.85244 0.0
C1675 C 0.18788 0.38907 0.83293 0.0
C1676 C 0.17662 0.39461 0.80555 0.0
C1677 C 0.14896 0.39118 0.79768 0.0
C1678 C 0.13247 0.38204 0.81713 0.0
C1679 C 0.07834 0.41949 0.93729 0.0
C1680 C 0.06028 0.42785 0.9167 0.0
C1681 C 0.09046 0.40241 0.9297 0.0
C1682 C 0.0846 0.39284 0.90135 0.0
C1683 C 0.06668 0.40119 0.88069 0.0
C1684 C 0.05462 0.4184 0.88826 0.0
C1685 C 0.09722 0.37424 0.8933 0.0
C1686 C 0.11223 0.38162 0.87221 0.0
C1687 C 0.09551 0.3499 0.9071 0.0
C1688 C 0.07967 0.34051 0.92921 0.0
C1689 C 0.0518 0.33684 0.92347 0.0
C1690 C 0.03723 0.32861 0.94466 0.0
C1691 C 0.05025 0.32384 0.97162 0.0
C1692 C 0.07785 0.32714 0.97742 0.0
C1693 C 0.09252 0.33535 0.9563 0.0
H1694 H 0.03894 0.31752 0.98801 0.0
H1695 H 0.18936 0.40158 0.79049 0.0
H1696 H 0.68457 0.17462 0.75425 0.0
H1697 H 0.66396 0.14976 0.79191 0.0
H1698 H 0.7365 0.19581 0.85476 0.0
H1699 H 0.75666 0.2214 0.81752 0.0
H1700 H 0.69444 0.12571 0.85438 0.0
H1701 H 0.70803 0.22516 0.86215 0.0
H1702 H 0.7065 0.26565 0.83634 0.0
H1703 H 0.62369 0.22072 0.79146 0.0
H1704 H 0.62496 0.17988 0.81663 0.0
H1705 H 0.6186 0.09268 0.96185 0.0
H1706 H 0.65512 0.11945 0.93865 0.0
H1707 H 0.59454 0.12803 0.86744 0.0
H1708 H 0.55824 0.10158 0.89039 0.0
H1709 H 0.63791 0.17341 0.87829 0.0
H1710 H 0.61889 0.07808 0.86604 0.0
H1711 H 0.61397 0.03251 0.8828 0.0
H1712 H 0.69875 0.06254 0.92691 0.0
H1713 H 0.70408 0.10841 0.91066 0.0
C1714 C 0.6964 0.17887 0.77604 0.0
C1715 C 0.72236 0.19972 0.78287 0.0
C1716 C 0.68472 0.16457 0.79745 0.0
C1717 C 0.69886 0.17092 0.82597 0.0
C1718 C 0.7255 0.19044 0.83279 0.0
C1719 C 0.73702 0.20505 0.8114 0.0
C1720 C 0.68374 0.16103 0.84832 0.0
C1721 C 0.68262 0.13638 0.86032 0.0
C1722 C 0.6677 0.17461 0.85512 0.0
C1723 C 0.66665 0.19951 0.84111 0.0
C1724 C 0.68955 0.22394 0.8467 0.0
C1725 C 0.68874 0.24693 0.83218 0.0
C1726 C 0.66501 0.24572 0.81224 0.0
C1727 C 0.64204 0.2216 0.80689 0.0
C1728 C 0.64279 0.19856 0.82128 0.0
C1729 C 0.61319 0.10082 0.94153 0.0
C1730 C 0.58562 0.09483 0.92772 0.0
C1731 C 0.63402 0.11589 0.92823 0.0
C1732 C 0.62747 0.12529 0.90111 0.0
C1733 C 0.60005 0.12091 0.88832 0.0
C1734 C 0.57932 0.10574 0.90144 0.0
C1735 C 0.64859 0.13801 0.88485 0.0
C1736 C 0.65056 0.16313 0.87352 0.0
C1737 C 0.66478 0.12439 0.87815 0.0
C1738 C 0.66179 0.09675 0.88749 0.0
C1739 C 0.63643 0.07501 0.87949 0.0
C1740 C 0.63356 0.04913 0.8889 0.0
C1741 C 0.65597 0.04468 0.90612 0.0
C1742 C 0.68136 0.06606 0.91373 0.0
C1743 C 0.68434 0.092 0.9044 0.0
H1744 H 0.6537 0.02462 0.91334 0.0
H1745 H 0.66435 0.26342 0.80092 0.0
H1746 H 0.77338 0.67695 0.79622 0.0
H1747 H 0.80265 0.65505 0.82359 0.0
H1748 H 0.87334 0.72846 0.82673 0.0
H1749 H 0.84372 0.75016 0.79772 0.0
H1750 H 0.88639 0.68871 0.81566 0.0
H1751 H 0.84662 0.70058 0.89068 0.0
H1752 H 0.81018 0.69884 0.91432 0.0
H1753 H 0.7716 0.61289 0.89565 0.0
H1754 H 0.808 0.61406 0.87229 0.0
H1755 H 0.97081 0.62992 0.91145 0.0
H1756 H 0.94527 0.65837 0.89076 0.0
H1757 H 0.8705 0.58783 0.87237 0.0
H1758 H 0.89586 0.55929 0.89334 0.0
H1759 H 0.86231 0.62943 0.89431 0.0
H1760 H 0.90351 0.61832 0.82001 0.0
H1761 H 0.94145 0.62053 0.7987 0.0
H1762 H 0.97852 0.7066 0.81724 0.0
H1763 H 0.94095 0.70484 0.83902 0.0
C1764 C 0.79511 0.6887 0.8032 0.0
C1765 C 0.80602 0.71551 0.79506 0.0
C1766 C 0.81197 0.67612 0.81917 0.0
C1767 C 0.84048 0.68996 0.82804 0.0
C1768 C 0.85148 0.71712 0.82046 0.0
C1769 C 0.83448 0.72972 0.8041 0.0
C1770 C 0.85852 0.67524 0.84327 0.0
C1771 C 0.88136 0.67627 0.83328 0.0
C1772 C 0.85202 0.65822 0.86594 0.0
C1773 C 0.82987 0.65747 0.87953 0.0
C1774 C 0.83025 0.68136 0.89147 0.0
C1775 C 0.80968 0.68045 0.90491 0.0
C1776 C 0.7885 0.65582 0.90629 0.0
C1777 C 0.78798 0.63197 0.8945 0.0
C1778 C 0.80866 0.63272 0.88131 0.0
C1779 C 0.94889 0.62038 0.90323 0.0
C1780 C 0.93557 0.59209 0.90423 0.0
C1781 C 0.93427 0.63675 0.89108 0.0
C1782 C 0.9058 0.62543 0.8796 0.0
C1783 C 0.89239 0.59726 0.8809 0.0
C1784 C 0.90703 0.58084 0.89281 0.0
C1785 C 0.88994 0.64282 0.86656 0.0
C1786 C 0.86747 0.64217 0.87691 0.0
C1787 C 0.89695 0.66032 0.84443 0.0
C1788 C 0.91958 0.6614 0.83145 0.0
C1789 C 0.91988 0.63768 0.81978 0.0
C1790 C 0.94129 0.63886 0.80757 0.0
C1791 C 0.96243 0.66368 0.8067 0.0
C1792 C 0.96216 0.68738 0.81798 0.0
C1793 C 0.94081 0.68631 0.83025 0.0
H1794 H 0.97898 0.66455 0.79722 0.0
H1795 H 0.77254 0.6552 0.9166 0.0
H1796 H 0.26775 0.33759 0.20912 0.0
H1797 H 0.23492 0.35556 0.18087 0.0
H1798 H 0.17113 0.27632 0.17299 0.0
H1799 H 0.20389 0.25839 0.20243 0.0
H1800 H 0.18654 0.325 0.11889 0.0
H1801 H 0.14848 0.29432 0.20254 0.0
H1802 H 0.15226 0.28897 0.25391 0.0
H1803 H 0.19479 0.37494 0.27004 0.0
H1804 H 0.19181 0.38067 0.21875 0.0
H1805 H 0.07592 0.37288 0.0674 0.0
H1806 H 0.10326 0.34602 0.08772 0.0
H1807 H 0.15571 0.41179 0.14885 0.0
H1808 H 0.12894 0.43898 0.12839 0.0
H1809 H 0.14267 0.36506 0.1748 0.0
H1810 H 0.17597 0.39599 0.09086 0.0
H1811 H 0.17144 0.40199 0.0395 0.0
H1812 H 0.13708 0.31563 0.02304 0.0
H1813 H 0.14108 0.3091 0.07432 0.0
C1814 C 0.24684 0.32382 0.20097 0.0
C1815 C 0.2387 0.29641 0.20771 0.0
C1816 C 0.22804 0.33418 0.18485 0.0
C1817 C 0.20044 0.31744 0.17487 0.0
C1818 C 0.19229 0.28974 0.18052 0.0
C1819 C 0.21113 0.27939 0.19713 0.0
C1820 C 0.18032 0.32977 0.16034 0.0
C1821 C 0.17642 0.33322 0.13098 0.0
C1822 C 0.16766 0.34124 0.17607 0.0
C1823 C 0.17035 0.33784 0.20692 0.0
C1824 C 0.1591 0.312 0.2171 0.0
C1825 C 0.16099 0.30891 0.24618 0.0
C1826 C 0.17382 0.33158 0.26523 0.0
C1827 C 0.18494 0.35738 0.25527 0.0
C1828 C 0.1832 0.36055 0.22621 0.0
C1829 C 0.0935 0.38193 0.08488 0.0
C1830 C 0.09993 0.40835 0.09611 0.0
C1831 C 0.10915 0.36637 0.09661 0.0
C1832 C 0.13178 0.37672 0.11992 0.0
C1833 C 0.13832 0.40308 0.13106 0.0
C1834 C 0.12279 0.41867 0.1193 0.0
C1835 C 0.14844 0.36017 0.13308 0.0
C1836 C 0.15218 0.35637 0.16241 0.0
C1837 C 0.16069 0.34819 0.11717 0.0
C1838 C 0.15856 0.35207 0.0864 0.0
C1839 C 0.16727 0.37828 0.07627 0.0
C1840 C 0.16482 0.38177 0.04718 0.0
C1841 C 0.15391 0.35921 0.02802 0.0
C1842 C 0.14551 0.33309 0.03792 0.0
C1843 C 0.14787 0.32948 0.06699 0.0
H1844 H 0.15205 0.36197 0.00551 0.0
H1845 H 0.17492 0.32914 0.28767 0.0
H1846 H 0.17315 0.68136 0.73195 0.0
H1847 H 0.14464 0.65057 0.76048 0.0
H1848 H 0.18596 0.70788 0.83284 0.0
H1849 H 0.21659 0.73696 0.80518 0.0
H1850 H 0.18283 0.6627 0.84973 0.0
H1851 H 0.11022 0.68984 0.79101 0.0
H1852 H 0.08153 0.69636 0.74563 0.0
H1853 H 0.05863 0.61292 0.7195 0.0
H1854 H 0.0871 0.60607 0.76463 0.0
H1855 H 0.08907 0.60238 0.93666 0.0
H1856 H 0.11813 0.63166 0.9073 0.0
H1857 H 0.08172 0.56921 0.83951 0.0
H1858 H 0.05207 0.54029 0.86833 0.0
H1859 H 0.08217 0.615 0.81965 0.0
H1860 H 0.14832 0.58553 0.88004 0.0
H1861 H 0.17535 0.57726 0.92535 0.0
H1862 H 0.21025 0.6626 0.94828 0.0
H1863 H 0.18313 0.67136 0.90327 0.0
C1864 C 0.17578 0.68751 0.75385 0.0
C1865 C 0.19655 0.71193 0.76613 0.0
C1866 C 0.15924 0.67003 0.77011 0.0
C1867 C 0.16251 0.67709 0.79875 0.0
C1868 C 0.18284 0.70193 0.81077 0.0
C1869 C 0.2001 0.71886 0.79481 0.0
C1870 C 0.14652 0.65775 0.81688 0.0
C1871 C 0.16073 0.65272 0.84334 0.0
C1872 C 0.11785 0.64349 0.8081 0.0
C1873 C 0.10116 0.6477 0.78084 0.0
C1874 C 0.09934 0.67311 0.77532 0.0
C1875 C 0.08309 0.6768 0.74973 0.0
C1876 C 0.06869 0.65519 0.7295 0.0
C1877 C 0.07009 0.62973 0.73502 0.0
C1878 C 0.08617 0.62592 0.76063 0.0
C1879 C 0.08744 0.59487 0.91556 0.0
C1880 C 0.06822 0.56919 0.90465 0.0
C1881 C 0.10416 0.61153 0.89889 0.0
C1882 C 0.10223 0.60251 0.8713 0.0
C1883 C 0.08348 0.57658 0.86071 0.0
C1884 C 0.06656 0.5601 0.87719 0.0
C1885 C 0.11839 0.62068 0.8527 0.0
C1886 C 0.10425 0.62522 0.82611 0.0
C1887 C 0.14709 0.63429 0.8613 0.0
C1888 C 0.16346 0.62907 0.88839 0.0
C1889 C 0.16158 0.60252 0.89484 0.0
C1890 C 0.17696 0.59774 0.92046 0.0
C1891 C 0.19445 0.61938 0.93972 0.0
C1892 C 0.19666 0.64585 0.93336 0.0
C1893 C 0.18131 0.65074 0.90779 0.0
H1894 H 0.20633 0.61564 0.95954 0.0
H1895 H 0.05634 0.65812 0.70962 0.0
H1896 H 0.27264 0.18108 0.78748 0.0
H1897 H 0.29389 0.15136 0.81461 0.0
H1898 H 0.36826 0.22081 0.84468 0.0
H1899 H 0.34651 0.25033 0.81934 0.0
H1900 H 0.33272 0.13806 0.80919 0.0
H1901 H 0.40993 0.21317 0.90025 0.0
H1902 H 0.41282 0.25004 0.93187 0.0
H1903 H 0.32586 0.21509 0.92333 0.0
H1904 H 0.32244 0.17811 0.89138 0.0
H1905 H 0.4438 0.09561 0.86515 0.0
H1906 H 0.41457 0.12066 0.84543 0.0
H1907 H 0.38321 0.10945 0.92088 0.0
H1908 H 0.41241 0.08422 0.94079 0.0
H1909 H 0.39242 0.15926 0.90648 0.0
H1910 H 0.34473 0.07328 0.85556 0.0
H1911 H 0.33896 0.03371 0.8261 0.0
H1912 H 0.36109 0.08521 0.75848 0.0
H1913 H 0.36737 0.12516 0.78768 0.0
C1914 C 0.29311 0.19006 0.80081 0.0
C1915 C 0.30759 0.21824 0.80178 0.0
C1916 C 0.30549 0.17299 0.81607 0.0
C1917 C 0.33281 0.18358 0.83234 0.0
C1918 C 0.347 0.21181 0.83335 0.0
C1919 C 0.33454 0.2288 0.81857 0.0
C1920 C 0.34726 0.16528 0.84634 0.0
C1921 C 0.3456 0.14273 0.83055 0.0
C1922 C 0.36411 0.17079 0.87438 0.0
C1923 C 0.3659 0.19305 0.89327 0.0
C1924 C 0.39143 0.21339 0.9051 0.0
C1925 C 0.39314 0.23435 0.92297 0.0
C1926 C 0.3695 0.23502 0.92942 0.0
C1927 C 0.3441 0.21469 0.91805 0.0
C1928 C 0.34224 0.1938 0.89995 0.0
C1929 C 0.43044 0.09804 0.8775 0.0
C1930 C 0.43055 0.0875 0.90464 0.0
C1931 C 0.41364 0.11252 0.86612 0.0
C1932 C 0.39616 0.11681 0.88133 0.0
C1933 C 0.39638 0.10655 0.90853 0.0
C1934 C 0.41324 0.0921 0.91999 0.0
C1935 C 0.37818 0.13242 0.86914 0.0
C1936 C 0.37932 0.15451 0.88522 0.0
C1937 C 0.36053 0.12622 0.84156 0.0
C1938 C 0.35674 0.10224 0.82391 0.0
C1939 C 0.34856 0.0762 0.83448 0.0
C1940 C 0.34517 0.05369 0.81782 0.0
C1941 C 0.34972 0.05695 0.79046 0.0
C1942 C 0.35761 0.08272 0.77969 0.0
C1943 C 0.36106 0.10529 0.79627 0.0
H1944 H 0.34708 0.0395 0.77759 0.0
H1945 H 0.37088 0.25123 0.94332 0.0
H1946 H 0.8218 0.26654 0.84953 0.0
H1947 H 0.84194 0.29474 0.89327 0.0
H1948 H 0.79333 0.34303 0.86211 0.0
H1949 H 0.77556 0.31669 0.81711 0.0
H1950 H 0.84068 0.37435 0.87706 0.0
H1951 H 0.78852 0.30271 0.92465 0.0
H1952 H 0.76799 0.25602 0.93895 0.0
H1953 H 0.848 0.25623 0.97742 0.0
H1954 H 0.8691 0.30273 0.96291 0.0
H1955 H 0.92506 0.46843 0.98079 0.0
H1956 H 0.88111 0.4303 0.9677 0.0
H1957 H 0.92373 0.37581 0.96799 0.0
H1958 H 0.96763 0.41381 0.98229 0.0
H1959 H 0.86987 0.34875 0.97508 0.0
H1960 H 0.91808 0.41383 0.91152 0.0
H1961 H 0.93777 0.45952 0.89421 0.0
H1962 H 0.86124 0.46988 0.88522 0.0
H1963 H 0.84122 0.42434 0.90274 0.0
C1964 C 0.81566 0.28333 0.85179 0.0
C1965 C 0.79819 0.29014 0.82916 0.0
C1966 C 0.82661 0.29907 0.87729 0.0
C1967 C 0.81922 0.32116 0.88122 0.0
C1968 C 0.79969 0.32633 0.85957 0.0
C1969 C 0.7896 0.31126 0.83369 0.0
C1970 C 0.8352 0.34146 0.90534 0.0
C1971 C 0.84611 0.36864 0.89867 0.0
C1972 C 0.84297 0.33425 0.93358 0.0
C1973 C 0.83041 0.30627 0.94256 0.0
C1974 C 0.80178 0.29276 0.93599 0.0
C1975 C 0.79003 0.26631 0.94416 0.0
C1976 C 0.80668 0.25316 0.95907 0.0
C1977 C 0.83513 0.26645 0.96589 0.0
C1978 C 0.84699 0.29289 0.95773 0.0
C1979 C 0.9249 0.44805 0.97964 0.0
C1980 C 0.94939 0.4438 0.98218 0.0
C1981 C 0.89986 0.4263 0.97219 0.0
C1982 C 0.89924 0.40042 0.9661 0.0
C1983 C 0.92377 0.39564 0.97249 0.0
C1984 C 0.94884 0.41734 0.98054 0.0
C1985 C 0.87512 0.38098 0.94627 0.0
C1986 C 0.86314 0.35416 0.95366 0.0
C1987 C 0.86598 0.38834 0.91856 0.0
C1988 C 0.87829 0.41591 0.90872 0.0
C1989 C 0.90556 0.42598 0.90607 0.0
C1990 C 0.91675 0.45181 0.89619 0.0
C1991 C 0.90075 0.46758 0.88864 0.0
C1992 C 0.8736 0.45764 0.89111 0.0
C1993 C 0.86233 0.43185 0.90102 0.0
H1994 H 0.90928 0.48743 0.88069 0.0
H1995 H 0.79754 0.23268 0.96536 0.0
H1996 H 0.74012 0.86606 0.90262 0.0
H1997 H 0.70709 0.88523 0.90834 0.0
H1998 H 0.67888 0.88353 0.81738 0.0
H1999 H 0.7132 0.86564 0.81143 0.0
H2000 H 0.68218 0.92919 0.8389 0.0
H2001 H 0.6404 0.83762 0.85951 0.0
H2002 H 0.63648 0.79423 0.88152 0.0
H2003 H 0.65382 0.83246 0.96402 0.0
H2004 H 0.65824 0.8762 0.94255 0.0
H2005 H 0.56469 0.95569 0.86009 0.0
H2006 H 0.59323 0.93431 0.84574 0.0
H2007 H 0.64267 0.94655 0.9313 0.0
H2008 H 0.61528 0.96897 0.94561 0.0
H2009 H 0.62368 0.89243 0.90722 0.0
H2010 H 0.66887 0.98556 0.88342 0.0
H2011 H 0.6706 0.0273 0.85862 0.0
H2012 H 0.64148 0.98241 0.77819 0.0
H2013 H 0.63965 0.94039 0.80246 0.0
C2014 C 0.72716 0.86995 0.88371 0.0
C2015 C 0.7297 0.86442 0.8565 0.0
C2016 C 0.70788 0.88061 0.88705 0.0
C2017 C 0.69005 0.88555 0.86334 0.0
C2018 C 0.69228 0.87986 0.83609 0.0
C2019 C 0.7118 0.86936 0.8327 0.0
C2020 C 0.66972 0.89726 0.8673 0.0
C2021 C 0.66905 0.92079 0.85346 0.0
C2022 C 0.65248 0.88653 0.88634 0.0
C2023 C 0.64987 0.86027 0.89941 0.0
C2024 C 0.64359 0.83684 0.88237 0.0
C2025 C 0.64124 0.81216 0.89475 0.0
C2026 C 0.64495 0.8106 0.92415 0.0
C2027 C 0.65097 0.83371 0.94124 0.0
C2028 C 0.65336 0.85844 0.92898 0.0
C2029 C 0.58186 0.95425 0.87583 0.0
C2030 C 0.5873 0.96389 0.90419 0.0
C2031 C 0.5981 0.94187 0.86757 0.0
C2032 C 0.62003 0.93869 0.88748 0.0
C2033 C 0.6257 0.94852 0.91562 0.0
C2034 C 0.60977 0.96117 0.92381 0.0
C2035 C 0.63679 0.92458 0.87943 0.0
C2036 C 0.63667 0.90057 0.89248 0.0
C2037 C 0.65282 0.93455 0.85928 0.0
C2038 C 0.65384 0.95979 0.84476 0.0
C2039 C 0.66262 0.98455 0.86046 0.0
C2040 C 0.66367 0.00826 0.84651 0.0
C2041 C 0.65596 0.00747 0.81689 0.0
C2042 C 0.64737 0.98298 0.80114 0.0
C2043 C 0.6464 0.95923 0.81496 0.0
H2044 H 0.65677 0.02585 0.80615 0.0
H2045 H 0.64312 0.79148 0.9337 0.0
H2046 H 0.89542 0.70908 0.19604 0.0
H2047 H 0.91701 0.67759 0.18747 0.0
H2048 H 0.86992 0.66279 0.10075 0.0
H2049 H 0.84875 0.69454 0.10906 0.0
H2050 H 0.87253 0.61452 0.12988 0.0
H2051 H 0.9318 0.70454 0.11151 0.0
H2052 H 0.96027 0.75269 0.12478 0.0
H2053 H 1.01134 0.7298 0.19459 0.0
H2054 H 0.9829 0.68148 0.18195 0.0
H2055 H 0.93821 0.55438 0.05944 0.0
H2056 H 0.91746 0.58332 0.0747 0.0
H2057 H 0.98316 0.60999 0.14998 0.0
H2058 H 1.00507 0.58223 0.13391 0.0
H2059 H 0.9717 0.65129 0.1317 0.0
H2060 H 0.91697 0.56277 0.15084 0.0
H2061 H 0.88876 0.51403 0.14197 0.0
H2062 H 0.82967 0.53215 0.07717 0.0
H2063 H 0.85771 0.58101 0.08537 0.0
C2064 C 0.88947 0.69883 0.17527 0.0
C2065 C 0.87044 0.70431 0.1532 0.0
C2066 C 0.90189 0.68096 0.17036 0.0
C2067 C 0.89518 0.6679 0.14341 0.0
C2068 C 0.87543 0.6726 0.12169 0.0
C2069 C 0.86341 0.69081 0.12643 0.0
C2070 C 0.90941 0.65017 0.13735 0.0
C2071 C 0.89416 0.62255 0.13002 0.0
C2072 C 0.93784 0.66043 0.13855 0.0
C2073 C 0.95505 0.68943 0.14598 0.0
C2074 C 0.94896 0.70979 0.12983 0.0
C2075 C 0.96512 0.7371 0.13721 0.0
C2076 C 0.98755 0.74431 0.16056 0.0
C2077 C 0.99393 0.72419 0.17653 0.0
C2078 C 0.97781 0.69684 0.16926 0.0
C2079 C 0.94861 0.56667 0.07904 0.0
C2080 C 0.97345 0.56577 0.09537 0.0
C2081 C 0.93639 0.58297 0.08802 0.0
C2082 C 0.94829 0.59852 0.11389 0.0
C2083 C 0.97333 0.59808 0.13006 0.0
C2084 C 0.98574 0.58193 0.12094 0.0
C2085 C 0.93475 0.61546 0.12367 0.0
C2086 C 0.95012 0.64301 0.13173 0.0
C2087 C 0.90649 0.60496 0.12373 0.0
C2088 C 0.8896 0.57557 0.11855 0.0
C2089 C 0.89808 0.55636 0.13452 0.0
C2090 C 0.8821 0.52871 0.12965 0.0
C2091 C 0.85747 0.52 0.10897 0.0
C2092 C 0.84876 0.53893 0.09316 0.0
C2093 C 0.86468 0.56661 0.09793 0.0
H2094 H 0.84511 0.49858 0.10525 0.0
H2095 H 1.00004 0.76547 0.16624 0.0
H2096 H 0.27874 0.77762 0.17617 0.0
H2097 H 0.29767 0.80068 0.137 0.0
H2098 H 0.37916 0.82416 0.19053 0.0
H2099 H 0.36021 0.80224 0.23033 0.0
H2100 H 0.33769 0.85987 0.13944 0.0
H2101 H 0.41202 0.80288 0.14558 0.0
H2102 H 0.4121 0.75718 0.1562 0.0
H2103 H 0.32442 0.7233 0.12897 0.0
H2104 H 0.32379 0.76868 0.11771 0.0
H2105 H 0.46418 0.93611 0.11667 0.0
H2106 H 0.42555 0.90366 0.13246 0.0
H2107 H 0.3967 0.85905 0.05135 0.0
H2108 H 0.43569 0.89194 0.03507 0.0
H2109 H 0.3978 0.82646 0.10026 0.0
H2110 H 0.36141 0.89219 0.06224 0.0
H2111 H 0.36186 0.93826 0.05321 0.0
H2112 H 0.37119 0.95375 0.14208 0.0
H2113 H 0.3713 0.90797 0.15177 0.0
C2114 C 0.30058 0.78827 0.1799 0.0
C2115 C 0.31798 0.78889 0.20659 0.0
C2116 C 0.31135 0.80116 0.15737 0.0
C2117 C 0.33972 0.81385 0.16098 0.0
C2118 C 0.35717 0.81428 0.18745 0.0
C2119 C 0.34637 0.8019 0.21011 0.0
C2120 C 0.3516 0.82712 0.13741 0.0
C2121 C 0.35048 0.85249 0.13039 0.0
C2122 C 0.36754 0.81684 0.1252 0.0
C2123 C 0.36788 0.7893 0.13102 0.0
C2124 C 0.39276 0.78568 0.14167 0.0
C2125 C 0.39289 0.75982 0.14787 0.0
C2126 C 0.36827 0.73737 0.14337 0.0
C2127 C 0.34347 0.74071 0.13253 0.0
C2128 C 0.34322 0.76651 0.1263 0.0
C2129 C 0.44968 0.91944 0.10209 0.0
C2130 C 0.45295 0.91653 0.07463 0.0
C2131 C 0.42754 0.90099 0.11113 0.0
C2132 C 0.40818 0.8792 0.09294 0.0
C2133 C 0.41143 0.87588 0.06558 0.0
C2134 C 0.43361 0.89462 0.05635 0.0
C2135 C 0.38507 0.85996 0.10348 0.0
C2136 C 0.38423 0.83351 0.10831 0.0
C2137 C 0.36707 0.86914 0.11346 0.0
C2138 C 0.36644 0.89659 0.10773 0.0
C2139 C 0.3637 0.90545 0.0799 0.0
C2140 C 0.36386 0.93153 0.07466 0.0
C2141 C 0.36658 0.94893 0.09706 0.0
C2142 C 0.36906 0.94024 0.12474 0.0
C2143 C 0.36897 0.9142 0.13011 0.0
H2144 H 0.36676 0.96913 0.09296 0.0
H2145 H 0.36843 0.71737 0.14815 0.0
H2146 H 0.67021 0.24961 0.1803 0.0
H2147 H 0.63647 0.22706 0.13698 0.0
H2148 H 0.70016 0.21776 0.1035 0.0
H2149 H 0.73412 0.24266 0.14526 0.0
H2150 H 0.66011 0.21361 0.06112 0.0
H2151 H 0.66872 0.17238 0.15154 0.0
H2152 H 0.66902 0.16869 0.20243 0.0
H2153 H 0.58593 0.16454 0.18449 0.0
H2154 H 0.58531 0.16851 0.13343 0.0
H2155 H 0.60692 0.0623 0.05536 0.0
H2156 H 0.63271 0.11066 0.06809 0.0
H2157 H 0.56263 0.12854 0.02412 0.0
H2158 H 0.53739 0.0803 0.00982 0.0
H2159 H 0.59713 0.13321 0.09814 0.0
H2160 H 0.59118 0.16539 0.00141 0.0
H2161 H 0.59731 0.16469 0.95262 0.0
H2162 H 0.68277 0.1802 0.98527 0.0
H2163 H 0.67698 0.1803 0.03431 0.0
C2164 C 0.67716 0.24361 0.1633 0.0
C2165 C 0.70454 0.24615 0.16698 0.0
C2166 C 0.65784 0.23072 0.13849 0.0
C2167 C 0.66555 0.21937 0.11767 0.0
C2168 C 0.69348 0.22567 0.11951 0.0
C2169 C 0.71288 0.2394 0.1438 0.0
C2170 C 0.64505 0.19668 0.09784 0.0
C2171 C 0.64605 0.19619 0.06911 0.0
C2172 C 0.62687 0.17368 0.10822 0.0
C2173 C 0.62707 0.17106 0.1388 0.0
C2174 C 0.65057 0.17079 0.1585 0.0
C2175 C 0.6508 0.16868 0.18736 0.0
C2176 C 0.62751 0.16646 0.19671 0.0
C2177 C 0.60396 0.16633 0.17721 0.0
C2178 C 0.60365 0.16851 0.14831 0.0
C2179 C 0.59753 0.07674 0.04739 0.0
C2180 C 0.57034 0.06783 0.03159 0.0
C2181 C 0.61224 0.10429 0.05451 0.0
C2182 C 0.59971 0.12317 0.04659 0.0
C2183 C 0.57295 0.11443 0.02961 0.0
C2184 C 0.55851 0.0869 0.02167 0.0
C2185 C 0.61239 0.15011 0.06169 0.0
C2186 C 0.61022 0.15115 0.08981 0.0
C2187 C 0.63011 0.17297 0.05094 0.0
C2188 C 0.63354 0.17248 0.02153 0.0
C2189 C 0.61116 0.16817 0.99821 0.0
C2190 C 0.61461 0.16803 0.97051 0.0
C2191 C 0.64042 0.17247 0.96586 0.0
C2192 C 0.66279 0.17682 0.98891 0.0
C2193 C 0.65943 0.1769 0.01666 0.0
H2194 H 0.64311 0.17264 0.94441 0.0
H2195 H 0.62763 0.16472 0.21904 0.0
H2196 H 0.69138 0.68331 0.74137 0.0
H2197 H 0.65452 0.6563 0.76359 0.0
H2198 H 0.67272 0.72489 0.82026 0.0
H2199 H 0.70958 0.75184 0.79818 0.0
H2200 H 0.67893 0.68084 0.84737 0.0
H2201 H 0.61169 0.6993 0.774 0.0
H2202 H 0.58778 0.70082 0.72444 0.0
H2203 H 0.56309 0.61458 0.71258 0.0
H2204 H 0.58719 0.61258 0.76195 0.0
H2205 H 0.58893 0.61603 0.93292 0.0
H2206 H 0.61102 0.64752 0.90013 0.0
H2207 H 0.58329 0.58174 0.83681 0.0
H2208 H 0.55998 0.55044 0.86907 0.0
H2209 H 0.58038 0.62495 0.81179 0.0
H2210 H 0.64919 0.6051 0.88013 0.0
H2211 H 0.67543 0.60082 0.92774 0.0
H2212 H 0.70005 0.68611 0.94667 0.0
H2213 H 0.67364 0.69084 0.89928 0.0
C2214 C 0.68694 0.69287 0.75783 0.0
C2215 C 0.70368 0.71942 0.76842 0.0
C2216 C 0.66582 0.67744 0.77051 0.0
C2217 C 0.66112 0.68862 0.79367 0.0
C2218 C 0.6762 0.71591 0.8025 0.0
C2219 C 0.69732 0.7312 0.78997 0.0
C2220 C 0.64407 0.67096 0.81171 0.0
C2221 C 0.65722 0.66904 0.83978 0.0
C2222 C 0.61617 0.65468 0.80125 0.0
C2223 C 0.60144 0.65583 0.77164 0.0
C2224 C 0.60134 0.68068 0.76077 0.0
C2225 C 0.58772 0.68162 0.73272 0.0
C2226 C 0.57397 0.65782 0.71536 0.0
C2227 C 0.57375 0.63301 0.72604 0.0
C2228 C 0.58736 0.63196 0.75407 0.0
C2229 C 0.58748 0.60837 0.91195 0.0
C2230 C 0.57309 0.58084 0.90356 0.0
C2231 C 0.60009 0.62632 0.89327 0.0
C2232 C 0.59925 0.61685 0.86625 0.0
C2233 C 0.58421 0.58946 0.85756 0.0
C2234 C 0.57106 0.5716 0.87604 0.0
C2235 C 0.61518 0.63523 0.84764 0.0
C2236 C 0.60199 0.63705 0.81947 0.0
C2237 C 0.64333 0.65105 0.85773 0.0
C2238 C 0.65919 0.64826 0.88627 0.0
C2239 C 0.66002 0.6229 0.89453 0.0
C2240 C 0.67496 0.6204 0.92146 0.0
C2241 C 0.68934 0.64316 0.94025 0.0
C2242 C 0.68886 0.66849 0.93211 0.0
C2243 C 0.67393 0.67109 0.90522 0.0
H2244 H 0.70089 0.64119 0.96108 0.0
H2245 H 0.56345 0.65859 0.69364 0.0
H2246 H 0.28414 0.67795 0.8966 0.0
H2247 H 0.31756 0.66827 0.93454 0.0
H2248 H 0.3678 0.67276 0.87584 0.0
H2249 H 0.33418 0.68077 0.83764 0.0
H2250 H 0.33158 0.62152 0.92926 0.0
H2251 H 0.43438 0.70019 0.91226 0.0
H2252 H 0.45207 0.74777 0.89955 0.0
H2253 H 0.39295 0.76389 0.93446 0.0
H2254 H 0.37546 0.71667 0.94821 0.0
H2255 H 0.43761 0.58386 0.9171 0.0
H2256 H 0.40661 0.60777 0.91362 0.0
H2257 H 0.43627 0.63098 0.00302 0.0
H2258 H 0.46718 0.60611 0.00707 0.0
H2259 H 0.43171 0.67411 0.95609 0.0
H2260 H 0.38046 0.59207 0.99507 0.0
H2261 H 0.3625 0.54232 0.99885 0.0
H2262 H 0.31835 0.53158 0.91165 0.0
H2263 H 0.33635 0.58104 0.90716 0.0
C2264 C 0.30232 0.67695 0.89172 0.0
C2265 C 0.30622 0.67996 0.86384 0.0
C2266 C 0.3215 0.6717 0.91354 0.0
C2267 C 0.3452 0.67008 0.90799 0.0
C2268 C 0.34985 0.67444 0.88065 0.0
C2269 C 0.33055 0.67918 0.85879 0.0
C2270 C 0.3636 0.66045 0.92929 0.0
C2271 C 0.35339 0.63321 0.93592 0.0
C2272 C 0.39201 0.67585 0.93789 0.0
C2273 C 0.40355 0.70478 0.93124 0.0
C2274 C 0.42541 0.71396 0.91765 0.0
C2275 C 0.43539 0.74089 0.91021 0.0
C2276 C 0.42366 0.75885 0.91618 0.0
C2277 C 0.40209 0.75 0.92987 0.0
C2278 C 0.39215 0.72315 0.93753 0.0
C2279 C 0.43734 0.59352 0.93626 0.0
C2280 C 0.45444 0.59234 0.96258 0.0
C2281 C 0.41972 0.6074 0.93413 0.0
C2282 C 0.41898 0.62076 0.95811 0.0
C2283 C 0.43653 0.62058 0.98433 0.0
C2284 C 0.45415 0.60639 0.98656 0.0
C2285 C 0.39972 0.63495 0.95467 0.0
C2286 C 0.40976 0.66289 0.95095 0.0
C2287 C 0.37117 0.62007 0.94805 0.0
C2288 C 0.35978 0.59029 0.95084 0.0
C2289 C 0.36702 0.57906 0.9767 0.0
C2290 C 0.35685 0.55094 0.97897 0.0
C2291 C 0.33932 0.53387 0.95555 0.0
C2292 C 0.33188 0.54484 0.9298 0.0
C2293 C 0.34203 0.57292 0.92741 0.0
H2294 H 0.33149 0.51212 0.95735 0.0
H2295 H 0.43127 0.77959 0.91009 0.0
H2296 H 0.26584 0.31648 0.81272 0.0
H2297 H 0.29193 0.34692 0.85504 0.0
H2298 H 0.36725 0.34985 0.8366 0.0
H2299 H 0.34135 0.31954 0.79459 0.0
H2300 H 0.35509 0.32857 0.89176 0.0
H2301 H 0.35615 0.40353 0.82923 0.0
H2302 H 0.33332 0.42915 0.79651 0.0
H2303 H 0.29399 0.4399 0.86022 0.0
H2304 H 0.31635 0.41401 0.8932 0.0
H2305 H 0.47793 0.429 0.94223 0.0
H2306 H 0.43428 0.3924 0.92389 0.0
H2307 H 0.39458 0.42917 0.96853 0.0
H2308 H 0.43881 0.46591 0.98732 0.0
H2309 H 0.37452 0.42561 0.91229 0.0
H2310 H 0.38634 0.3635 0.97934 0.0
H2311 H 0.40887 0.33795 0.01241 0.0
H2312 H 0.42274 0.30177 0.94255 0.0
H2313 H 0.40081 0.32744 0.90904 0.0
C2314 C 0.28801 0.32458 0.81718 0.0
C2315 C 0.30174 0.31612 0.80028 0.0
C2316 C 0.30279 0.34172 0.84134 0.0
C2317 C 0.33135 0.35023 0.84888 0.0
C2318 C 0.34512 0.34334 0.83094 0.0
C2319 C 0.33038 0.32645 0.80667 0.0
C2320 C 0.34699 0.36395 0.87674 0.0
C2321 C 0.35947 0.34979 0.89648 0.0
C2322 C 0.35095 0.39097 0.88333 0.0
C2323 C 0.33758 0.40651 0.8635 0.0
C2324 C 0.3424 0.4111 0.83614 0.0
C2325 C 0.32961 0.42574 0.81758 0.0
C2326 C 0.31212 0.43605 0.82624 0.0
C2327 C 0.30747 0.43184 0.85351 0.0
C2328 C 0.32021 0.4172 0.87215 0.0
C2329 C 0.46007 0.42862 0.94904 0.0
C2330 C 0.46143 0.45015 0.96586 0.0
C2331 C 0.43515 0.40761 0.93877 0.0
C2332 C 0.41115 0.40805 0.94488 0.0
C2333 C 0.41291 0.42843 0.96375 0.0
C2334 C 0.43811 0.44934 0.97446 0.0
C2335 C 0.38463 0.39088 0.92658 0.0
C2336 C 0.36961 0.40412 0.90845 0.0
C2337 C 0.37824 0.3629 0.92156 0.0
C2338 C 0.39182 0.34747 0.9416 0.0
C2339 C 0.39435 0.35026 0.97099 0.0
C2340 C 0.40702 0.33571 0.98984 0.0
C2341 C 0.4172 0.31822 0.97958 0.0
C2342 C 0.41478 0.31527 0.95046 0.0
C2343 C 0.40217 0.32979 0.93151 0.0
H2344 H 0.42696 0.30696 0.99421 0.0
H2345 H 0.30225 0.44738 0.81184 0.0
H2346 H 0.66379 0.30466 0.82459 0.0
H2347 H 0.65169 0.32282 0.86321 0.0
H2348 H 0.68407 0.40337 0.83395 0.0
H2349 H 0.69588 0.38529 0.79512 0.0
H2350 H 0.69672 0.39845 0.89659 0.0
H2351 H 0.62048 0.37221 0.81163 0.0
H2352 H 0.58664 0.33877 0.77422 0.0
H2353 H 0.55517 0.28641 0.83774 0.0
H2354 H 0.58915 0.31941 0.87552 0.0
H2355 H 0.63406 0.48205 0.93395 0.0
H2356 H 0.65562 0.45539 0.91585 0.0
H2357 H 0.5928 0.38178 0.93187 0.0
H2358 H 0.57101 0.40833 0.94961 0.0
H2359 H 0.597 0.37581 0.88363 0.0
H2360 H 0.66578 0.40392 0.96903 0.0
H2361 H 0.70034 0.4343 0.00841 0.0
H2362 H 0.74647 0.47912 0.94973 0.0
H2363 H 0.71218 0.44915 0.90992 0.0
C2364 C 0.66871 0.32628 0.82671 0.0
C2365 C 0.68055 0.34358 0.80678 0.0
C2366 C 0.66182 0.3366 0.84874 0.0
C2367 C 0.66701 0.3644 0.85135 0.0
C2368 C 0.68004 0.38187 0.83232 0.0
C2369 C 0.68654 0.37152 0.81005 0.0
C2370 C 0.65642 0.37504 0.87195 0.0
C2371 C 0.67495 0.39364 0.89392 0.0
C2372 C 0.62802 0.36778 0.86905 0.0
C2373 C 0.60749 0.34811 0.84635 0.0
C2374 C 0.60647 0.35347 0.81759 0.0
C2375 C 0.58726 0.33461 0.79633 0.0
C2376 C 0.56881 0.31044 0.8036 0.0
C2377 C 0.5695 0.30512 0.83214 0.0
C2378 C 0.58872 0.32389 0.85348 0.0
C2379 C 0.62527 0.46018 0.93437 0.0
C2380 C 0.60076 0.44734 0.94314 0.0
C2381 C 0.63776 0.44487 0.92415 0.0
C2382 C 0.6263 0.41638 0.92299 0.0
C2383 C 0.60235 0.40362 0.93276 0.0
C2384 C 0.58969 0.41887 0.94264 0.0
C2385 C 0.63729 0.40016 0.9083 0.0
C2386 C 0.61881 0.38038 0.88719 0.0
C2387 C 0.66576 0.40595 0.91255 0.0
C2388 C 0.68627 0.42431 0.93642 0.0
C2389 C 0.68316 0.42035 0.96446 0.0
C2390 C 0.70274 0.43746 0.98688 0.0
C2391 C 0.72551 0.45862 0.98157 0.0
C2392 C 0.72881 0.4627 0.95382 0.0
C2393 C 0.70935 0.44561 0.93132 0.0
H2394 H 0.74062 0.47184 0.99898 0.0
H2395 H 0.55394 0.29587 0.78711 0.0
H2396 H 0.75551 0.35052 0.11358 0.0
H2397 H 0.73026 0.35587 0.0664 0.0
H2398 H 0.65481 0.3241 0.09408 0.0
H2399 H 0.67959 0.31993 0.14121 0.0
H2400 H 0.64898 0.31811 0.03163 0.0
H2401 H 0.69131 0.38742 0.11524 0.0
H2402 H 0.73286 0.4145 0.15092 0.0
H2403 H 0.77537 0.44448 0.08477 0.0
H2404 H 0.7341 0.41726 0.04877 0.0
H2405 H 0.55836 0.38271 0.02229 0.0
H2406 H 0.58881 0.35839 0.0239 0.0
H2407 H 0.65114 0.4317 0.00611 0.0
H2408 H 0.62173 0.45658 0.00801 0.0
H2409 H 0.67325 0.41684 0.04727 0.0
H2410 H 0.62533 0.36219 0.96211 0.0
H2411 H 0.58656 0.33376 0.92446 0.0
H2412 H 0.55795 0.27637 0.9854 0.0
H2413 H 0.59658 0.3044 0.02335 0.0
C2414 C 0.73343 0.34398 0.10943 0.0
C2415 C 0.7198 0.33597 0.13163 0.0
C2416 C 0.719 0.34659 0.08227 0.0
C2417 C 0.69079 0.3409 0.07702 0.0
C2418 C 0.67661 0.32863 0.09774 0.0
C2419 C 0.69099 0.32637 0.12492 0.0
C2420 C 0.67774 0.3549 0.05496 0.0
C2421 C 0.65438 0.33981 0.03436 0.0
C2422 C 0.68542 0.38327 0.05798 0.0
C2423 C 0.70981 0.40027 0.07945 0.0
C2424 C 0.70955 0.39982 0.10837 0.0
C2425 C 0.73302 0.41514 0.12863 0.0
C2426 C 0.75675 0.43118 0.12012 0.0
C2427 C 0.757 0.43201 0.09132 0.0
C2428 C 0.73359 0.41665 0.07099 0.0
C2429 C 0.57835 0.39344 0.01807 0.0
C2430 C 0.58775 0.42155 0.01521 0.0
C2431 C 0.59574 0.37937 0.01847 0.0
C2432 C 0.62255 0.39293 0.01492 0.0
C2433 C 0.63083 0.42061 0.0093 0.0
C2434 C 0.61397 0.43491 0.01033 0.0
C2435 C 0.64338 0.38019 0.02361 0.0
C2436 C 0.66821 0.3955 0.04249 0.0
C2437 C 0.63739 0.35224 0.01807 0.0
C2438 C 0.61369 0.33558 0.99559 0.0
C2439 C 0.6106 0.34367 0.96751 0.0
C2440 C 0.58873 0.32756 0.9461 0.0
C2441 C 0.56972 0.30337 0.95256 0.0
C2442 C 0.57265 0.29514 0.98042 0.0
C2443 C 0.59461 0.31107 0.00186 0.0
H2444 H 0.55279 0.29096 0.93596 0.0
H2445 H 0.77492 0.44299 0.13582 0.0
H2446 H 0.77876 0.68352 0.20888 0.0
H2447 H 0.75926 0.64573 0.17303 0.0
H2448 H 0.67797 0.63703 0.17867 0.0
H2449 H 0.69755 0.6742 0.21508 0.0
H2450 H 0.67995 0.5884 0.16628 0.0
H2451 H 0.7084 0.68223 0.12545 0.0
H2452 H 0.74528 0.72649 0.12418 0.0
H2453 H 0.79793 0.68639 0.11147 0.0
H2454 H 0.76101 0.64182 0.11184 0.0
H2455 H 0.58597 0.59072 0.04973 0.0
H2456 H 0.63304 0.61645 0.07532 0.0
H2457 H 0.65649 0.5501 0.05944 0.0
H2458 H 0.60946 0.52448 0.03361 0.0
H2459 H 0.69564 0.6277 0.07443 0.0
H2460 H 0.66299 0.53068 0.11429 0.0
H2461 H 0.62251 0.48897 0.11412 0.0
H2462 H 0.5775 0.53686 0.12904 0.0
H2463 H 0.61776 0.57879 0.12922 0.0
C2464 C 0.75676 0.67282 0.20305 0.0
C2465 C 0.73949 0.68154 0.21445 0.0
C2466 C 0.74568 0.6514 0.18256 0.0
C2467 C 0.7172 0.63904 0.17277 0.0
C2468 C 0.70004 0.64629 0.186 0.0
C2469 C 0.71115 0.66745 0.20683 0.0
C2470 C 0.70495 0.62181 0.14616 0.0
C2471 C 0.68409 0.59652 0.14626 0.0
C2472 C 0.71034 0.6323 0.11997 0.0
C2473 C 0.73208 0.65888 0.11867 0.0
C2474 C 0.72781 0.68293 0.12222 0.0
C2475 C 0.74871 0.70803 0.12172 0.0
C2476 C 0.77399 0.70928 0.11795 0.0
C2477 C 0.77834 0.68539 0.11436 0.0
C2478 C 0.75738 0.66022 0.1145 0.0
C2479 C 0.6016 0.58246 0.05011 0.0
C2480 C 0.59441 0.55587 0.03973 0.0
C2481 C 0.62847 0.59712 0.06465 0.0
C2482 C 0.64806 0.58501 0.06933 0.0
C2483 C 0.64167 0.55981 0.05576 0.0
C2484 C 0.61482 0.54522 0.04103 0.0
C2485 C 0.67071 0.59453 0.09475 0.0
C2486 C 0.69298 0.6186 0.09445 0.0
C2487 C 0.667 0.58273 0.12081 0.0
C2488 C 0.64329 0.55768 0.12198 0.0
C2489 C 0.6445 0.53221 0.11778 0.0
C2490 C 0.62161 0.50858 0.11761 0.0
C2491 C 0.5975 0.51027 0.12174 0.0
C2492 C 0.59623 0.53558 0.12603 0.0
C2493 C 0.61906 0.55926 0.1262 0.0
H2494 H 0.57976 0.49197 0.12145 0.0
H2495 H 0.79015 0.72875 0.11768 0.0
H2496 H 0.38494 0.6693 0.1977 0.0
H2497 H 0.40486 0.66008 0.1604 0.0
H2498 H 0.32487 0.63026 0.10322 0.0
H2499 H 0.30502 0.64041 0.14028 0.0
H2500 H 0.3563 0.59298 0.11887 0.0
H2501 H 0.36205 0.67766 0.07992 0.0
H2502 H 0.37322 0.727 0.08036 0.0
H2503 H 0.45858 0.74115 0.11138 0.0
H2504 H 0.44791 0.69185 0.11144 0.0
H2505 H 0.41468 0.54598 0.02911 0.0
H2506 H 0.38809 0.57011 0.04173 0.0
H2507 H 0.46164 0.62946 0.09243 0.0
H2508 H 0.48883 0.60649 0.0785 0.0
H2509 H 0.42695 0.65315 0.07139 0.0
H2510 H 0.42095 0.57094 0.12066 0.0
H2511 H 0.41152 0.52196 0.12362 0.0
H2512 H 0.32831 0.50388 0.07771 0.0
H2513 H 0.33738 0.5528 0.07421 0.0
C2514 C 0.37181 0.66137 0.17693 0.0
C2515 C 0.34354 0.6553 0.17173 0.0
C2516 C 0.38316 0.6563 0.15566 0.0
C2517 C 0.3663 0.64464 0.12912 0.0
C2518 C 0.33817 0.6395 0.12353 0.0
C2519 C 0.3269 0.64519 0.14463 0.0
C2520 C 0.37758 0.63405 0.10927 0.0
C2521 C 0.3712 0.60603 0.1078 0.0
C2522 C 0.39756 0.65129 0.09569 0.0
C2523 C 0.40414 0.681 0.09586 0.0
C2524 C 0.38319 0.69126 0.08708 0.0
C2525 C 0.38944 0.71924 0.08712 0.0
C2526 C 0.41659 0.7372 0.09588 0.0
C2527 C 0.43756 0.72721 0.10457 0.0
C2528 C 0.43142 0.69924 0.1045 0.0
C2529 C 0.42546 0.56462 0.0422 0.0
C2530 C 0.45396 0.57384 0.05335 0.0
C2531 C 0.41011 0.57832 0.04952 0.0
C2532 C 0.42272 0.60116 0.06857 0.0
C2533 C 0.45135 0.61169 0.07792 0.0
C2534 C 0.46684 0.59823 0.07029 0.0
C2535 C 0.40601 0.61202 0.0814 0.0
C2536 C 0.41153 0.64002 0.08181 0.0
C2537 C 0.38547 0.59484 0.09456 0.0
C2538 C 0.37991 0.56546 0.09693 0.0
C2539 C 0.40069 0.5565 0.11109 0.0
C2540 C 0.3954 0.52876 0.11286 0.0
C2541 C 0.36935 0.50982 0.1008 0.0
C2542 C 0.34849 0.51858 0.087 0.0
C2543 C 0.35368 0.54629 0.08513 0.0
H2544 H 0.3653 0.48835 0.10218 0.0
H2545 H 0.42138 0.75885 0.09596 0.0
H2546 H 0.36343 0.32311 0.27725 0.0
H2547 H 0.40069 0.35728 0.25986 0.0
H2548 H 0.37072 0.31316 0.17847 0.0
H2549 H 0.33333 0.28004 0.19493 0.0
H2550 H 0.44247 0.35435 0.22541 0.0
H2551 H 0.35523 0.35691 0.13346 0.0
H2552 H 0.30586 0.34798 0.1249 0.0
H2553 H 0.31645 0.37262 0.21161 0.0
H2554 H 0.36591 0.38203 0.22059 0.0
H2555 H 0.4441 0.41114 0.07655 0.0
H2556 H 0.42153 0.38522 0.11226 0.0
H2557 H 0.48549 0.43849 0.17879 0.0
H2558 H 0.50859 0.46421 0.14311 0.0
H2559 H 0.40045 0.40118 0.14924 0.0
H2560 H 0.4906 0.4012 0.23915 0.0
H2561 H 0.53859 0.40501 0.24628 0.0
H2562 H 0.52117 0.37117 0.16163 0.0
H2563 H 0.47304 0.36686 0.15415 0.0
C2564 C 0.36483 0.32073 0.25572 0.0
C2565 C 0.34452 0.29968 0.23707 0.0
C2566 C 0.38636 0.33999 0.24599 0.0
C2567 C 0.38792 0.33789 0.21774 0.0
C2568 C 0.36952 0.31525 0.20023 0.0
C2569 C 0.348 0.2964 0.20973 0.0
C2570 C 0.4057 0.36066 0.20454 0.0
C2571 C 0.43361 0.36528 0.2093 0.0
C2572 C 0.3938 0.37438 0.18327 0.0
C2573 C 0.36428 0.37012 0.1777 0.0
C2574 C 0.34707 0.36069 0.15062 0.0
C2575 C 0.31905 0.35545 0.14572 0.0
C2576 C 0.30801 0.35969 0.16769 0.0
C2577 C 0.32499 0.36927 0.19461 0.0
C2578 C 0.35302 0.37455 0.19962 0.0
C2579 C 0.45347 0.41724 0.09878 0.0
C2580 C 0.4781 0.43967 0.10704 0.0
C2581 C 0.44052 0.40248 0.11916 0.0
C2582 C 0.45187 0.4099 0.14818 0.0
C2583 C 0.47656 0.43223 0.15654 0.0
C2584 C 0.48967 0.44691 0.13613 0.0
C2585 C 0.43725 0.39438 0.16932 0.0
C2586 C 0.40974 0.3911 0.16596 0.0
C2587 C 0.44957 0.38186 0.19171 0.0
C2588 C 0.47835 0.38407 0.19599 0.0
C2589 C 0.49703 0.39454 0.22209 0.0
C2590 C 0.52424 0.39678 0.22619 0.0
C2591 C 0.53295 0.38845 0.20438 0.0
C2592 C 0.51444 0.37774 0.17846 0.0
C2593 C 0.4872 0.37543 0.17427 0.0
H2594 H 0.55403 0.39022 0.20759 0.0
H2595 H 0.28631 0.35559 0.16382 0.0
H2596 H 0.81985 0.66088 0.59898 0.0
H2597 H 0.85078 0.63858 0.59382 0.0
H2598 H 0.87463 0.63603 0.6847 0.0
H2599 H 0.84269 0.65735 0.6902 0.0
H2600 H 0.91985 0.65197 0.65254 0.0
H2601 H 0.8333 0.58173 0.65628 0.0
H2602 H 0.78301 0.55931 0.64252 0.0
H2603 H 0.78638 0.55028 0.55595 0.0
H2604 H 0.83669 0.57305 0.56913 0.0
H2605 H 0.98284 0.55636 0.64131 0.0
H2606 H 0.95684 0.58055 0.65572 0.0
H2607 H 0.90655 0.56892 0.57048 0.0
H2608 H 0.93122 0.54356 0.55633 0.0
H2609 H 0.87543 0.55966 0.60531 0.0
H2610 H 0.96013 0.63065 0.599 0.0
H2611 H 1.01028 0.65445 0.61018 0.0
H2612 H 1.01094 0.66402 0.69796 0.0
H2613 H 0.96084 0.63985 0.68739 0.0
C2614 C 0.83145 0.65547 0.61798 0.0
C2615 C 0.82825 0.66057 0.64502 0.0
C2616 C 0.84938 0.64295 0.61495 0.0
C2617 C 0.86487 0.6355 0.63885 0.0
C2618 C 0.8629 0.6417 0.66597 0.0
C2619 C 0.84464 0.65397 0.66905 0.0
C2620 C 0.88153 0.61958 0.63503 0.0
C2621 C 0.91023 0.6316 0.64267 0.0
C2622 C 0.86895 0.59327 0.62159 0.0
C2623 C 0.83873 0.5793 0.61366 0.0
C2624 C 0.8233 0.57516 0.63427 0.0
C2625 C 0.79479 0.56236 0.62658 0.0
C2626 C 0.7815 0.55343 0.59837 0.0
C2627 C 0.7967 0.55722 0.57779 0.0
C2628 C 0.82521 0.57005 0.58537 0.0
C2629 C 0.96619 0.55879 0.62561 0.0
C2630 C 0.95964 0.54827 0.59744 0.0
C2631 C 0.95144 0.57291 0.63386 0.0
C2632 C 0.92992 0.57703 0.61411 0.0
C2633 C 0.92313 0.56623 0.58615 0.0
C2634 C 0.93764 0.55197 0.57798 0.0
C2635 C 0.91399 0.59211 0.62229 0.0
C2636 C 0.88527 0.57992 0.61545 0.0
C2637 C 0.92665 0.61839 0.63611 0.0
C2638 C 0.95676 0.63314 0.64246 0.0
C2639 C 0.971 0.63762 0.62073 0.0
C2640 C 0.99942 0.65118 0.62695 0.0
C2641 C 1.01383 0.66058 0.65479 0.0
C2642 C 0.9998 0.65659 0.67643 0.0
C2643 C 0.97138 0.64297 0.67033 0.0
H2644 H 0.03584 0.67105 0.65954 0.0
H2645 H 0.75943 0.54352 0.59245 0.0
H2646 H 0.33066 0.85048 0.75831 0.0
H2647 H 0.36309 0.8726 0.72886 0.0
H2648 H 0.30821 0.81923 0.65715 0.0
H2649 H 0.27544 0.79851 0.68598 0.0
H2650 H 0.39028 0.85157 0.70694 0.0
H2651 H 0.31663 0.83833 0.59953 0.0
H2652 H 0.27612 0.84696 0.57249 0.0
H2653 H 0.29243 0.91125 0.63335 0.0
H2654 H 0.33249 0.90233 0.66122 0.0
H2655 H 0.43565 0.89644 0.56289 0.0
H2656 H 0.40256 0.86838 0.58924 0.0
H2657 H 0.44747 0.92153 0.66411 0.0
H2658 H 0.48068 0.94921 0.63823 0.0
H2659 H 0.37012 0.88455 0.61063 0.0
H2660 H 0.43847 0.88857 0.72395 0.0
H2661 H 0.48388 0.88722 0.74586 0.0
H2662 H 0.48198 0.84557 0.67064 0.0
H2663 H 0.4364 0.84629 0.64842 0.0
C2664 C 0.32547 0.84383 0.73615 0.0
C2665 C 0.3011 0.82202 0.72476 0.0
C2666 C 0.34396 0.8564 0.71933 0.0
C2667 C 0.3382 0.8476 0.69071 0.0
C2668 C 0.3131 0.82674 0.67898 0.0
C2669 C 0.29458 0.81437 0.69574 0.0
C2670 C 0.35939 0.85847 0.67403 0.0
C2671 C 0.3859 0.85901 0.68598 0.0
C2672 C 0.35363 0.86721 0.64621 0.0
C2673 C 0.32718 0.86942 0.63258 0.0
C2674 C 0.31115 0.85389 0.60742 0.0
C2675 C 0.2884 0.8589 0.59191 0.0
C2676 C 0.28185 0.87974 0.60111 0.0
C2677 C 0.29759 0.89513 0.62626 0.0
C2678 C 0.32005 0.88984 0.64215 0.0
C2679 C 0.43863 0.90188 0.58507 0.0
C2680 C 0.46064 0.9251 0.59846 0.0
C2681 C 0.41978 0.88583 0.6001 0.0
C2682 C 0.42274 0.89268 0.62873 0.0
C2683 C 0.44509 0.91549 0.64224 0.0
C2684 C 0.46392 0.93147 0.6273 0.0
C2685 C 0.40098 0.878 0.64368 0.0
C2686 C 0.37438 0.87665 0.6314 0.0
C2687 C 0.40673 0.86847 0.67111 0.0
C2688 C 0.43407 0.86771 0.68443 0.0
C2689 C 0.44767 0.87901 0.71212 0.0
C2690 C 0.47346 0.87837 0.72459 0.0
C2691 C 0.48584 0.86638 0.70962 0.0
C2692 C 0.47241 0.85494 0.68217 0.0
C2693 C 0.44662 0.8555 0.66961 0.0
H2694 H 0.50581 0.86593 0.71931 0.0
H2695 H 0.26444 0.88382 0.58883 0.0
H2696 H 0.17383 0.24049 0.69088 0.0
H2697 H 0.15389 0.27155 0.66607 0.0
H2698 H 0.23107 0.33826 0.69428 0.0
H2699 H 0.25042 0.30711 0.72124 0.0
H2700 H 0.19546 0.35602 0.69848 0.0
H2701 H 0.19972 0.31071 0.61654 0.0
H2702 H 0.19344 0.27214 0.58503 0.0
H2703 H 0.1071 0.24057 0.58071 0.0
H2704 H 0.11291 0.27908 0.61188 0.0
H2705 H 0.11828 0.40879 0.56369 0.0
H2706 H 0.14502 0.38163 0.58498 0.0
H2707 H 0.11814 0.38052 0.66225 0.0
H2708 H 0.09151 0.40768 0.6412 0.0
H2709 H 0.13307 0.33323 0.60257 0.0
H2710 H 0.1638 0.37597 0.71916 0.0
H2711 H 0.17442 0.4194 0.74482 0.0
H2712 H 0.1999 0.46297 0.67375 0.0
H2713 H 0.18947 0.4199 0.64764 0.0
C2714 C 0.18673 0.26174 0.6915 0.0
C2715 C 0.21397 0.27109 0.70759 0.0
C2716 C 0.17532 0.27961 0.67694 0.0
C2717 C 0.19091 0.30752 0.67735 0.0
C2718 C 0.21838 0.31693 0.69323 0.0
C2719 C 0.22966 0.29901 0.7084 0.0
C2720 C 0.17791 0.32678 0.66277 0.0
C2721 C 0.18196 0.35094 0.67745 0.0
C2722 C 0.16043 0.32094 0.63503 0.0
C2723 C 0.15685 0.2975 0.6168 0.0
C2724 C 0.17949 0.29535 0.60905 0.0
C2725 C 0.17599 0.2736 0.59118 0.0
C2726 C 0.14994 0.2538 0.58109 0.0
C2727 C 0.12729 0.25586 0.58862 0.0
C2728 C 0.13066 0.27771 0.60626 0.0
C2729 C 0.11796 0.40276 0.58521 0.0
C2730 C 0.10269 0.41077 0.60064 0.0
C2731 C 0.1334 0.38719 0.59745 0.0
C2732 C 0.13411 0.37912 0.62552 0.0
C2733 C 0.11868 0.38689 0.64086 0.0
C2734 C 0.10336 0.40254 0.62871 0.0
C2735 C 0.15032 0.36208 0.63845 0.0
C2736 C 0.14673 0.33832 0.62353 0.0
C2737 C 0.16884 0.36874 0.66554 0.0
C2738 C 0.17567 0.3947 0.68139 0.0
C2739 C 0.1718 0.39482 0.70907 0.0
C2740 C 0.17775 0.41936 0.72368 0.0
C2741 C 0.18783 0.44389 0.71095 0.0
C2742 C 0.19202 0.44395 0.68357 0.0
C2743 C 0.18603 0.41949 0.66883 0.0
H2744 H 0.1924 0.46284 0.72231 0.0
H2745 H 0.14729 0.23695 0.56733 0.0
H2746 H 0.75416 0.17768 0.6859 0.0
H2747 H 0.73243 0.14918 0.64229 0.0
H2748 H 0.69537 0.20612 0.60693 0.0
H2749 H 0.71925 0.23594 0.64942 0.0
H2750 H 0.68243 0.1238 0.62733 0.0
H2751 H 0.67045 0.19689 0.53639 0.0
H2752 H 0.69813 0.24076 0.52071 0.0
H2753 H 0.77194 0.22972 0.56387 0.0
H2754 H 0.74474 0.18559 0.57945 0.0
H2755 H 0.56035 0.0848 0.52123 0.0
H2756 H 0.60445 0.1228 0.5344 0.0
H2757 H 0.64651 0.06776 0.53544 0.0
H2758 H 0.60247 0.02972 0.52314 0.0
H2759 H 0.6634 0.14737 0.52668 0.0
H2760 H 0.67336 0.06664 0.59858 0.0
H2761 H 0.64498 0.02202 0.61254 0.0
H2762 H 0.57912 0.04996 0.60778 0.0
H2763 H 0.60702 0.09452 0.59358 0.0
C2764 C 0.74186 0.18448 0.66865 0.0
C2765 C 0.73755 0.20865 0.67165 0.0
C2766 C 0.72945 0.16813 0.64364 0.0
C2767 C 0.71201 0.17527 0.62126 0.0
C2768 C 0.70895 0.20017 0.6236 0.0
C2769 C 0.72209 0.21696 0.64832 0.0
C2770 C 0.694 0.15497 0.59775 0.0
C2771 C 0.67914 0.12895 0.60528 0.0
C2772 C 0.68895 0.16155 0.56888 0.0
C2773 C 0.70549 0.18796 0.55926 0.0
C2774 C 0.69258 0.20372 0.5424 0.0
C2775 C 0.7082 0.22866 0.53355 0.0
C2776 C 0.73677 0.23805 0.54134 0.0
C2777 C 0.7498 0.22247 0.55793 0.0
C2778 C 0.73428 0.1975 0.56681 0.0
C2779 C 0.57904 0.08114 0.52277 0.0
C2780 C 0.57835 0.05459 0.52158 0.0
C2781 C 0.6042 0.10284 0.53008 0.0
C2782 C 0.62865 0.09794 0.53628 0.0
C2783 C 0.62783 0.07187 0.53073 0.0
C2784 C 0.60272 0.05016 0.52388 0.0
C2785 C 0.65255 0.11685 0.5567 0.0
C2786 C 0.6679 0.14241 0.5487 0.0
C2787 C 0.65855 0.10999 0.58522 0.0
C2788 C 0.64219 0.08375 0.59503 0.0
C2789 C 0.65287 0.06322 0.60071 0.0
C2790 C 0.63683 0.03793 0.60852 0.0
C2791 C 0.61022 0.03312 0.61098 0.0
C2792 C 0.59967 0.05364 0.6058 0.0
C2793 C 0.61555 0.07888 0.59782 0.0
H2794 H 0.59778 0.0135 0.61691 0.0
H2795 H 0.74882 0.25737 0.53449 0.0
H2796 H 0.77919 0.27563 0.3511 0.0
H2797 H 0.81398 0.30129 0.39254 0.0
H2798 H 0.8775 0.3067 0.35015 0.0
H2799 H 0.843 0.28151 0.30855 0.0
H2800 H 0.86974 0.30208 0.42958 0.0
H2801 H 0.9073 0.37112 0.34594 0.0
H2802 H 0.89233 0.38511 0.29778 0.0
H2803 H 0.8129 0.36994 0.31253 0.0
H2804 H 0.82728 0.35528 0.36056 0.0
H2805 H 0.99398 0.42187 0.4808 0.0
H2806 H 0.95739 0.37798 0.46307 0.0
H2807 H 0.8985 0.41689 0.44499 0.0
H2808 H 0.93513 0.46068 0.4614 0.0
H2809 H 0.90337 0.39616 0.39843 0.0
H2810 H 0.89564 0.36678 0.49247 0.0
H2811 H 0.91313 0.35614 0.54119 0.0
H2812 H 0.9346 0.29492 0.50888 0.0
H2813 H 0.9178 0.30548 0.45984 0.0
C2814 C 0.80059 0.28183 0.35081 0.0
C2815 C 0.80835 0.27759 0.32612 0.0
C2816 C 0.82042 0.29612 0.37467 0.0
C2817 C 0.84819 0.30607 0.37416 0.0
C2818 C 0.85609 0.29918 0.35081 0.0
C2819 C 0.83631 0.28493 0.32697 0.0
C2820 C 0.868 0.3281 0.39472 0.0
C2821 C 0.87724 0.32272 0.423 0.0
C2822 C 0.87757 0.35486 0.38596 0.0
C2823 C 0.86825 0.36196 0.35661 0.0
C2824 C 0.88656 0.37055 0.33875 0.0
C2825 C 0.87819 0.37853 0.31151 0.0
C2826 C 0.85165 0.37834 0.30212 0.0
C2827 C 0.83334 0.36981 0.31978 0.0
C2828 C 0.84153 0.36152 0.34692 0.0
C2829 C 0.973 0.42069 0.47402 0.0
C2830 C 0.96712 0.44436 0.47206 0.0
C2831 C 0.95214 0.39567 0.46401 0.0
C2832 C 0.92529 0.39426 0.45249 0.0
C2833 C 0.91912 0.41759 0.45366 0.0
C2834 C 0.93997 0.44255 0.463 0.0
C2835 C 0.90516 0.37065 0.43388 0.0
C2836 C 0.89599 0.37568 0.40551 0.0
C2837 C 0.89601 0.34377 0.44281 0.0
C2838 C 0.90573 0.33718 0.47238 0.0
C2839 C 0.90442 0.3513 0.49568 0.0
C2840 C 0.91431 0.34535 0.52338 0.0
C2841 C 0.92522 0.32511 0.52815 0.0
C2842 C 0.92624 0.31069 0.50517 0.0
C2843 C 0.91654 0.31665 0.4774 0.0
H2844 H 0.93267 0.32045 0.54965 0.0
H2845 H 0.84531 0.38488 0.28117 0.0
H2846 H 0.68708 0.80317 0.40107 0.0
H2847 H 0.66432 0.83311 0.40971 0.0
H2848 H 0.64297 0.84342 0.31989 0.0
H2849 H 0.6654 0.81296 0.31094 0.0
H2850 H 0.65964 0.89181 0.35219 0.0
H2851 H 0.59567 0.80065 0.34997 0.0
H2852 H 0.57994 0.75306 0.36312 0.0
H2853 H 0.59388 0.77914 0.4501 0.0
H2854 H 0.6101 0.82693 0.43754 0.0
H2855 H 0.56207 0.94938 0.36586 0.0
H2856 H 0.58431 0.9212 0.35132 0.0
H2857 H 0.60111 0.89663 0.43717 0.0
H2858 H 0.57772 0.92354 0.45149 0.0
H2859 H 0.58492 0.85469 0.40291 0.0
H2860 H 0.6512 0.94561 0.40627 0.0
H2861 H 0.66826 0.99343 0.39398 0.0
H2862 H 0.65078 0.96843 0.30606 0.0
H2863 H 0.63337 0.92043 0.31779 0.0
C2864 C 0.67747 0.81167 0.38306 0.0
C2865 C 0.67774 0.80519 0.35523 0.0
C2866 C 0.66453 0.82892 0.38808 0.0
C2867 C 0.65147 0.8402 0.36544 0.0
C2868 C 0.6528 0.83489 0.33772 0.0
C2869 C 0.66573 0.81752 0.33265 0.0
C2870 C 0.63564 0.85662 0.37084 0.0
C2871 C 0.64303 0.8836 0.36291 0.0
C2872 C 0.61422 0.84612 0.38524 0.0
C2873 C 0.60433 0.81738 0.39284 0.0
C2874 C 0.59558 0.79625 0.37194 0.0
C2875 C 0.58655 0.76924 0.37928 0.0
C2876 C 0.58597 0.76308 0.40744 0.0
C2877 C 0.59437 0.78394 0.4283 0.0
C2878 C 0.60346 0.81099 0.42108 0.0
C2879 C 0.57016 0.93771 0.3816 0.0
C2880 C 0.56809 0.93894 0.40994 0.0
C2881 C 0.58326 0.92185 0.37331 0.0
C2882 C 0.59491 0.90702 0.3932 0.0
C2883 C 0.59249 0.90792 0.42136 0.0
C2884 C 0.57928 0.92359 0.42961 0.0
C2885 C 0.60924 0.8902 0.38485 0.0
C2886 C 0.60147 0.86301 0.39212 0.0
C2887 C 0.63037 0.9006 0.36998 0.0
C2888 C 0.64073 0.92943 0.36287 0.0
C2889 C 0.6508 0.95031 0.38429 0.0
C2890 C 0.66058 0.97744 0.37743 0.0
C2891 C 0.66056 0.98396 0.34925 0.0
C2892 C 0.65077 0.96335 0.32787 0.0
C2893 C 0.64097 0.93618 0.33461 0.0
H2894 H 0.66817 0.00497 0.34399 0.0
H2895 H 0.57896 0.74215 0.41308 0.0
H2896 H 0.25284 0.72886 0.3151 0.0
H2897 H 0.22929 0.70562 0.35126 0.0
H2898 H 0.15483 0.66922 0.28651 0.0
H2899 H 0.17816 0.69368 0.25051 0.0
H2900 H 0.14624 0.69463 0.32637 0.0
H2901 H 0.18422 0.61521 0.33983 0.0
H2902 H 0.22228 0.59863 0.35176 0.0
H2903 H 0.26939 0.66693 0.41106 0.0
H2904 H 0.2311 0.68323 0.40023 0.0
H2905 H 0.05384 0.58605 0.37938 0.0
H2906 H 0.08676 0.61846 0.35626 0.0
H2907 H 0.14516 0.64374 0.43701 0.0
H2908 H 0.11219 0.61083 0.46045 0.0
H2909 H 0.1678 0.63264 0.39837 0.0
H2910 H 0.11712 0.68739 0.40252 0.0
H2911 H 0.07642 0.69916 0.39827 0.0
H2912 H 0.05417 0.68083 0.30829 0.0
H2913 H 0.09451 0.66854 0.31201 0.0
C2914 C 0.23178 0.71511 0.30846 0.0
C2915 C 0.21738 0.71266 0.27995 0.0
C2916 C 0.21828 0.7017 0.32923 0.0
C2917 C 0.19029 0.68534 0.3217 0.0
C2918 C 0.17642 0.68174 0.29291 0.0
C2919 C 0.18972 0.69559 0.27232 0.0
C2920 C 0.17432 0.67478 0.34357 0.0
C2921 C 0.15087 0.6809 0.34198 0.0
C2922 C 0.18109 0.65825 0.36514 0.0
C2923 C 0.20524 0.65077 0.36868 0.0
C2924 C 0.2029 0.62687 0.35506 0.0
C2925 C 0.2243 0.61731 0.36196 0.0
C2926 C 0.24825 0.63175 0.38214 0.0
C2927 C 0.25087 0.65581 0.39541 0.0
C2928 C 0.22929 0.66513 0.389 0.0
C2929 C 0.07355 0.59871 0.39235 0.0
C2930 C 0.0805 0.59578 0.42172 0.0
C2931 C 0.09229 0.61742 0.3791 0.0
C2932 C 0.11831 0.63376 0.39495 0.0
C2933 C 0.12513 0.6314 0.42443 0.0
C2934 C 0.1063 0.61262 0.43776 0.0
C2935 C 0.13896 0.65124 0.38002 0.0
C2936 C 0.16333 0.64666 0.38303 0.0
C2937 C 0.13317 0.6695 0.36003 0.0
C2938 C 0.10883 0.67691 0.35759 0.0
C2939 C 0.10346 0.68567 0.38184 0.0
C2940 C 0.08046 0.69247 0.37952 0.0
C2941 C 0.06271 0.69072 0.35303 0.0
C2942 C 0.06795 0.68219 0.32879 0.0
C2943 C 0.09091 0.67535 0.33099 0.0
H2944 H 0.04491 0.69599 0.35128 0.0
H2945 H 0.26481 0.62432 0.38745 0.0
H2946 H 0.26561 0.16705 0.29345 0.0
H2947 H 0.29639 0.14596 0.31991 0.0
H2948 H 0.36502 0.22126 0.32405 0.0
H2949 H 0.33397 0.24259 0.29724 0.0
H2950 H 0.33905 0.14074 0.29929 0.0
H2951 H 0.40134 0.22588 0.37079 0.0
H2952 H 0.40523 0.2598 0.40676 0.0
H2953 H 0.34147 0.20013 0.43901 0.0
H2954 H 0.33699 0.16607 0.40289 0.0
H2955 H 0.44845 0.09569 0.36058 0.0
H2956 H 0.42136 0.12239 0.33922 0.0
H2957 H 0.38537 0.11145 0.41151 0.0
H2958 H 0.41252 0.08478 0.43308 0.0
H2959 H 0.39614 0.16133 0.39771 0.0
H2960 H 0.35114 0.07597 0.34387 0.0
H2961 H 0.34731 0.03766 0.31374 0.0
H2962 H 0.37248 0.09188 0.24903 0.0
H2963 H 0.3769 0.1306 0.27899 0.0
C2964 C 0.28719 0.17939 0.30054 0.0
C2965 C 0.29719 0.2066 0.29329 0.0
C2966 C 0.30485 0.16722 0.31566 0.0
C2967 C 0.3332 0.18184 0.32424 0.0
C2968 C 0.34325 0.20949 0.31819 0.0
C2969 C 0.32545 0.22175 0.30282 0.0
C2970 C 0.3519 0.1671 0.33682 0.0
C2971 C 0.35185 0.14554 0.32069 0.0
C2972 C 0.36824 0.17261 0.3649 0.0
C2973 C 0.36852 0.19372 0.38396 0.0
C2974 C 0.38783 0.22023 0.38524 0.0
C2975 C 0.39028 0.23938 0.40575 0.0
C2976 C 0.3737 0.23207 0.42525 0.0
C2977 C 0.35433 0.20573 0.42395 0.0
C2978 C 0.35168 0.18658 0.40333 0.0
C2979 C 0.43456 0.09862 0.3719 0.0
C2980 C 0.43275 0.08769 0.39866 0.0
C2981 C 0.41899 0.11404 0.35957 0.0
C2982 C 0.40079 0.11887 0.37337 0.0
C2983 C 0.39915 0.10823 0.40022 0.0
C2984 C 0.41483 0.09291 0.41264 0.0
C2985 C 0.38368 0.13508 0.36008 0.0
C2986 C 0.38379 0.15672 0.3761 0.0
C2987 C 0.36727 0.12948 0.33186 0.0
C2988 C 0.36468 0.10623 0.31384 0.0
C2989 C 0.3561 0.07976 0.32333 0.0
C2990 C 0.35379 0.05797 0.30626 0.0
C2991 C 0.35976 0.06235 0.27955 0.0
C2992 C 0.36795 0.08853 0.26978 0.0
C2993 C 0.37036 0.1104 0.28679 0.0
H2994 H 0.35799 0.04544 0.26641 0.0
H2995 H 0.37578 0.24685 0.44128 0.0
H2996 H 0.78116 0.84428 0.70326 0.0
H2997 H 0.74939 0.86422 0.67663 0.0
H2998 H 0.68118 0.79167 0.6839 0.0
H2999 H 0.71327 0.77142 0.71048 0.0
H3000 H 0.67097 0.81362 0.63189 0.0
H3001 H 0.70156 0.84574 0.72885 0.0
H3002 H 0.73608 0.86546 0.77323 0.0
H3003 H 0.76916 0.93982 0.73322 0.0
H3004 H 0.73549 0.92019 0.6882 0.0
H3005 H 0.57324 0.87779 0.60415 0.0
H3006 H 0.6028 0.85338 0.62472 0.0
H3007 H 0.67403 0.9252 0.62424 0.0
H3008 H 0.64445 0.95021 0.60461 0.0
H3009 H 0.6815 0.9021 0.67326 0.0
H3010 H 0.65102 0.86847 0.57552 0.0
H3011 H 0.6169 0.84746 0.53119 0.0
H3012 H 0.5822 0.77536 0.57397 0.0
H3013 H 0.61591 0.79607 0.61865 0.0
C3014 C 0.7594 0.83234 0.69874 0.0
C3015 C 0.74981 0.80623 0.70893 0.0
C3016 C 0.74118 0.84384 0.6836 0.0
C3017 C 0.71271 0.82981 0.67864 0.0
C3018 C 0.703 0.80307 0.68749 0.0
C3019 C 0.72136 0.79143 0.70263 0.0
C3020 C 0.69352 0.84396 0.66601 0.0
C3021 C 0.67305 0.83278 0.64117 0.0
C3022 C 0.69627 0.86924 0.67775 0.0
C3023 C 0.71611 0.88139 0.70503 0.0
C3024 C 0.7163 0.86624 0.72943 0.0
C3025 C 0.73572 0.8774 0.75472 0.0
C3026 C 0.75474 0.9039 0.75609 0.0
C3027 C 0.7544 0.91928 0.73213 0.0
C3028 C 0.73519 0.90813 0.70669 0.0
C3029 C 0.59519 0.88862 0.60854 0.0
C3030 C 0.60624 0.91625 0.60271 0.0
C3031 C 0.61218 0.8744 0.62007 0.0
C3032 C 0.64087 0.88715 0.62589 0.0
C3033 C 0.65203 0.91469 0.61996 0.0
C3034 C 0.635 0.92898 0.60843 0.0
C3035 C 0.65912 0.87202 0.63881 0.0
C3036 C 0.67939 0.88298 0.66388 0.0
C3037 C 0.65601 0.84646 0.62738 0.0
C3038 C 0.63583 0.83393 0.60049 0.0
C3039 C 0.63599 0.84821 0.57552 0.0
C3040 C 0.61675 0.83634 0.55032 0.0
C3041 C 0.59735 0.81012 0.54978 0.0
C3042 C 0.59722 0.79568 0.57442 0.0
C3043 C 0.61641 0.80746 0.59968 0.0
H3044 H 0.58246 0.80097 0.53025 0.0
H3045 H 0.76974 0.91251 0.7757 0.0
H3046 H 0.67274 0.18249 0.25222 0.0
H3047 H 0.6537 0.15683 0.29033 0.0
H3048 H 0.73198 0.19438 0.34912 0.0
H3049 H 0.74983 0.22167 0.31197 0.0
H3050 H 0.67125 0.12054 0.32012 0.0
H3051 H 0.73079 0.19586 0.39645 0.0
H3052 H 0.75044 0.24306 0.41644 0.0
H3053 H 0.67087 0.24802 0.39263 0.0
H3054 H 0.65146 0.20194 0.36984 0.0
H3055 H 0.61275 0.08935 0.45845 0.0
H3056 H 0.65045 0.11509 0.43626 0.0
H3057 H 0.59481 0.09344 0.35358 0.0
H3058 H 0.55755 0.06746 0.37534 0.0
H3059 H 0.65797 0.15755 0.40569 0.0
H3060 H 0.62448 0.08468 0.30391 0.0
H3061 H 0.60494 0.03543 0.29223 0.0
H3062 H 0.63441 0.02089 0.37901 0.0
H3063 H 0.6548 0.07004 0.39112 0.0
C3064 C 0.68535 0.18605 0.27362 0.0
C3065 C 0.71212 0.20525 0.27949 0.0
C3066 C 0.67464 0.1713 0.29536 0.0
C3067 C 0.69101 0.17451 0.32316 0.0
C3068 C 0.7182 0.19291 0.3287 0.0
C3069 C 0.7285 0.20848 0.30721 0.0
C3070 C 0.67982 0.15675 0.3452 0.0
C3071 C 0.66837 0.12861 0.33888 0.0
C3072 C 0.67756 0.167 0.37071 0.0
C3073 C 0.69001 0.19602 0.38014 0.0
C3074 C 0.71782 0.20757 0.39415 0.0
C3075 C 0.72892 0.23413 0.406 0.0
C3076 C 0.71205 0.24882 0.40521 0.0
C3077 C 0.68412 0.23698 0.39246 0.0
C3078 C 0.67318 0.21088 0.37953 0.0
C3079 C 0.60865 0.09015 0.43554 0.0
C3080 C 0.58225 0.07636 0.41859 0.0
C3081 C 0.63019 0.10472 0.42292 0.0
C3082 C 0.62557 0.10562 0.39323 0.0
C3083 C 0.59906 0.09235 0.37646 0.0
C3084 C 0.57769 0.07773 0.38897 0.0
C3085 C 0.64773 0.1217 0.37938 0.0
C3086 C 0.66133 0.14935 0.3873 0.0
C3087 C 0.65262 0.11085 0.35586 0.0
C3088 C 0.64109 0.08117 0.34846 0.0
C3089 C 0.62708 0.07104 0.32047 0.0
C3090 C 0.61581 0.0431 0.31377 0.0
C3091 C 0.6184 0.02504 0.33487 0.0
C3092 C 0.6324 0.03489 0.36269 0.0
C3093 C 0.64382 0.0628 0.36947 0.0
H3094 H 0.60959 0.00342 0.32966 0.0
H3095 H 0.72053 0.2692 0.41484 0.0
H3096 H 0.86181 0.76098 0.31973 0.0
H3097 H 0.88186 0.72959 0.34423 0.0
H3098 H 0.80663 0.66232 0.31069 0.0
H3099 H 0.78655 0.69387 0.28565 0.0
H3100 H 0.83183 0.65623 0.36793 0.0
H3101 H 0.85606 0.67401 0.27894 0.0
H3102 H 0.87315 0.70206 0.24084 0.0
H3103 H 0.95183 0.74031 0.29781 0.0
H3104 H 0.93507 0.71274 0.33646 0.0
H3105 H 0.89829 0.55931 0.39631 0.0
H3106 H 0.87135 0.58598 0.37369 0.0
H3107 H 0.9431 0.65925 0.39584 0.0
H3108 H 0.97019 0.63278 0.41793 0.0
H3109 H 0.91647 0.65938 0.342 0.0
H3110 H 0.89075 0.64142 0.43152 0.0
H3111 H 0.87265 0.61275 0.46886 0.0
H3112 H 0.79569 0.57337 0.40945 0.0
H3113 H 0.81347 0.60157 0.37163 0.0
C3114 C 0.84932 0.73954 0.31795 0.0
C3115 C 0.82246 0.73005 0.30094 0.0
C3116 C 0.86087 0.72155 0.33191 0.0
C3117 C 0.84599 0.69343 0.32913 0.0
C3118 C 0.81862 0.68388 0.31323 0.0
C3119 C 0.80706 0.70198 0.29901 0.0
C3120 C 0.85988 0.67435 0.34133 0.0
C3121 C 0.85008 0.6566 0.36193 0.0
C3122 C 0.88395 0.6749 0.33387 0.0
C3123 C 0.89422 0.69147 0.31069 0.0
C3124 C 0.87694 0.68856 0.28343 0.0
C3125 C 0.88658 0.70435 0.26171 0.0
C3126 C 0.91354 0.72301 0.2669 0.0
C3127 C 0.93094 0.72587 0.29383 0.0
C3128 C 0.92139 0.71015 0.31565 0.0
C3129 C 0.90841 0.58109 0.39634 0.0
C3130 C 0.93655 0.59374 0.40923 0.0
C3131 C 0.89285 0.59641 0.38354 0.0
C3132 C 0.90498 0.62484 0.38315 0.0
C3133 C 0.93307 0.63744 0.39583 0.0
C3134 C 0.94856 0.6222 0.40876 0.0
C3135 C 0.88879 0.64149 0.36907 0.0
C3136 C 0.89816 0.65883 0.34799 0.0
C3137 C 0.86424 0.64035 0.37597 0.0
C3138 C 0.85355 0.62338 0.39866 0.0
C3139 C 0.87005 0.62648 0.42635 0.0
C3140 C 0.85983 0.61035 0.44762 0.0
C3141 C 0.83307 0.59119 0.44151 0.0
C3142 C 0.81644 0.58818 0.41414 0.0
C3143 C 0.82657 0.60424 0.39278 0.0
H3144 H 0.82519 0.57873 0.45801 0.0
H3145 H 0.92096 0.73521 0.25004 0.0
H3146 H 0.30917 0.74557 0.34474 0.0
H3147 H 0.33345 0.76634 0.39253 0.0
H3148 H 0.34784 0.84573 0.35968 0.0
H3149 H 0.32338 0.82538 0.31245 0.0
H3150 H 0.38453 0.79862 0.41287 0.0
H3151 H 0.34593 0.88924 0.40217 0.0
H3152 H 0.30257 0.89571 0.38234 0.0
H3153 H 0.25733 0.81157 0.39105 0.0
H3154 H 0.30037 0.80463 0.4114 0.0
H3155 H 0.47805 0.92541 0.43899 0.0
H3156 H 0.44259 0.88045 0.42756 0.0
H3157 H 0.40807 0.89156 0.49602 0.0
H3158 H 0.44383 0.93725 0.50726 0.0
H3159 H 0.37061 0.87806 0.44737 0.0
H3160 H 0.42887 0.83795 0.49763 0.0
H3161 H 0.47183 0.83069 0.51742 0.0
H3162 H 0.47581 0.8114 0.43369 0.0
H3163 H 0.43316 0.81897 0.41329 0.0
C3164 C 0.31747 0.76747 0.34778 0.0
C3165 C 0.31429 0.78386 0.32482 0.0
C3166 C 0.3312 0.77925 0.3751 0.0
C3167 C 0.3418 0.80754 0.37981 0.0
C3168 C 0.33901 0.82382 0.35677 0.0
C3169 C 0.32523 0.81214 0.32965 0.0
C3170 C 0.35766 0.82075 0.40811 0.0
C3171 C 0.3813 0.81567 0.42088 0.0
C3172 C 0.35258 0.84202 0.41953 0.0
C3173 C 0.32649 0.84642 0.40843 0.0
C3174 C 0.32675 0.87217 0.40025 0.0
C3175 C 0.3022 0.8759 0.38879 0.0
C3176 C 0.27721 0.85407 0.38542 0.0
C3177 C 0.2767 0.82847 0.39364 0.0
C3178 C 0.30118 0.82462 0.40514 0.0
C3179 C 0.4633 0.91795 0.45205 0.0
C3180 C 0.46362 0.93447 0.47408 0.0
C3181 C 0.44321 0.89215 0.44574 0.0
C3182 C 0.4229 0.8824 0.46125 0.0
C3183 C 0.4238 0.89854 0.4841 0.0
C3184 C 0.44423 0.92446 0.49061 0.0
C3185 C 0.39875 0.8576 0.44993 0.0
C3186 C 0.37336 0.86032 0.44038 0.0
C3187 C 0.402 0.83387 0.44191 0.0
C3188 C 0.42762 0.82892 0.45392 0.0
C3189 C 0.43892 0.83223 0.48339 0.0
C3190 C 0.46326 0.82807 0.49473 0.0
C3191 C 0.47652 0.82054 0.47683 0.0
C3192 C 0.46546 0.81714 0.44755 0.0
C3193 C 0.44113 0.82129 0.43609 0.0
H3194 H 0.49537 0.81736 0.48565 0.0
H3195 H 0.25824 0.85698 0.37642 0.0
H3196 H 0.20502 0.32675 0.39878 0.0
H3197 H 0.17392 0.34887 0.4043 0.0
H3198 H 0.18497 0.38977 0.32708 0.0
H3199 H 0.21663 0.36786 0.32176 0.0
H3200 H 0.18933 0.42455 0.36982 0.0
H3201 H 0.12553 0.33889 0.32778 0.0
H3202 H 0.10471 0.28905 0.32148 0.0
H3203 H 0.08781 0.28451 0.40421 0.0
H3204 H 0.10893 0.33434 0.41121 0.0
H3205 H 0.08649 0.47744 0.37341 0.0
H3206 H 0.11163 0.4529 0.35778 0.0
H3207 H 0.10475 0.40444 0.43087 0.0
H3208 H 0.07875 0.4282 0.4461 0.0
H3209 H 0.09637 0.37345 0.38479 0.0
H3210 H 0.16411 0.45905 0.428 0.0
H3211 H 0.18522 0.50893 0.4341 0.0
H3212 H 0.19452 0.51337 0.34826 0.0
H3213 H 0.17313 0.4635 0.34153 0.0
C3214 C 0.20076 0.34039 0.38291 0.0
C3215 C 0.21321 0.34549 0.35976 0.0
C3216 C 0.18282 0.3529 0.38598 0.0
C3217 C 0.17684 0.37086 0.366 0.0
C3218 C 0.18916 0.37595 0.34275 0.0
C3219 C 0.20706 0.36326 0.33958 0.0
C3220 C 0.1585 0.3849 0.37017 0.0
C3221 C 0.1688 0.41336 0.37254 0.0
C3222 C 0.13185 0.37038 0.37424 0.0
C3223 C 0.11903 0.34038 0.37011 0.0
C3224 C 0.11758 0.32727 0.34474 0.0
C3225 C 0.10568 0.29901 0.34102 0.0
C3226 C 0.09499 0.28362 0.36245 0.0
C3227 C 0.09612 0.29647 0.38763 0.0
C3228 C 0.10803 0.32472 0.39147 0.0
C3229 C 0.08994 0.4613 0.38598 0.0
C3230 C 0.08063 0.45497 0.41116 0.0
C3231 C 0.10461 0.44744 0.37715 0.0
C3232 C 0.11051 0.42702 0.39333 0.0
C3233 C 0.10063 0.42017 0.41804 0.0
C3234 C 0.08594 0.43399 0.42688 0.0
C3235 C 0.12738 0.41309 0.38493 0.0
C3236 C 0.11679 0.38463 0.38178 0.0
C3237 C 0.15375 0.42762 0.38009 0.0
C3238 C 0.16674 0.45757 0.38417 0.0
C3239 C 0.17047 0.47068 0.41036 0.0
C3240 C 0.18252 0.49894 0.41394 0.0
C3241 C 0.19113 0.51432 0.39155 0.0
C3242 C 0.18779 0.50144 0.36556 0.0
C3243 C 0.17573 0.47318 0.36186 0.0
H3244 H 0.20044 0.5362 0.39436 0.0
H3245 H 0.08578 0.26174 0.35953 0.0
H3246 H 0.3518 0.20418 0.60622 0.0
H3247 H 0.37283 0.17347 0.59547 0.0
H3248 H 0.3913 0.15727 0.68411 0.0
H3249 H 0.37125 0.18906 0.69523 0.0
H3250 H 0.4343 0.16491 0.66296 0.0
H3251 H 0.33952 0.11055 0.63447 0.0
H3252 H 0.2912 0.09993 0.60999 0.0
H3253 H 0.31258 0.10805 0.52927 0.0
H3254 H 0.36115 0.11927 0.55329 0.0
H3255 H 0.47231 0.05437 0.63516 0.0
H3256 H 0.44923 0.0817 0.64959 0.0
H3257 H 0.43271 0.10688 0.56404 0.0
H3258 H 0.45621 0.08003 0.54949 0.0
H3259 H 0.3875 0.09232 0.5861 0.0
H3260 H 0.48314 0.14947 0.61625 0.0
H3261 H 0.53124 0.16036 0.6418 0.0
H3262 H 0.50707 0.14539 0.72105 0.0
H3263 H 0.45875 0.13405 0.69591 0.0
C3264 C 0.36044 0.19424 0.62353 0.0
C3265 C 0.35994 0.19934 0.65167 0.0
C3266 C 0.37223 0.17636 0.61727 0.0
C3267 C 0.38351 0.16272 0.63889 0.0
C3268 C 0.38274 0.16747 0.667 0.0
C3269 C 0.371 0.18548 0.67331 0.0
C3270 C 0.3967 0.14417 0.6321 0.0
C3271 C 0.42385 0.14873 0.64649 0.0
C3272 C 0.38334 0.12324 0.61031 0.0
C3273 C 0.35405 0.11597 0.59572 0.0
C3274 C 0.33396 0.11024 0.6115 0.0
C3275 C 0.30652 0.10412 0.59771 0.0
C3276 C 0.29883 0.10336 0.5681 0.0
C3277 C 0.31857 0.10866 0.55222 0.0
C3278 C 0.34607 0.1149 0.56591 0.0
C3279 C 0.46418 0.06602 0.61943 0.0
C3280 C 0.46634 0.06495 0.5911 0.0
C3281 C 0.4508 0.08157 0.62773 0.0
C3282 C 0.43929 0.09654 0.60798 0.0
C3283 C 0.44128 0.09545 0.57969 0.0
C3284 C 0.45472 0.07998 0.57138 0.0
C3285 C 0.42517 0.11332 0.61672 0.0
C3286 C 0.39784 0.10839 0.6027 0.0
C3287 C 0.43826 0.13373 0.63903 0.0
C3288 C 0.4673 0.14064 0.65416 0.0
C3289 C 0.48806 0.14829 0.6391 0.0
C3290 C 0.51536 0.15458 0.65351 0.0
C3291 C 0.5222 0.15349 0.68302 0.0
C3292 C 0.50174 0.14618 0.69819 0.0
C3293 C 0.47439 0.13984 0.68387 0.0
H3294 H 0.54335 0.15837 0.69414 0.0
H3295 H 0.27757 0.09863 0.55746 0.0
H3296 H 0.85474 0.32467 0.74658 0.0
H3297 H 0.87543 0.35084 0.70989 0.0
H3298 H 0.80123 0.30923 0.64656 0.0
H3299 H 0.78143 0.28169 0.68293 0.0
H3300 H 0.84103 0.30809 0.62847 0.0
H3301 H 0.82649 0.38348 0.66627 0.0
H3302 H 0.82858 0.41549 0.70342 0.0
H3303 H 0.91581 0.43885 0.72936 0.0
H3304 H 0.91427 0.40727 0.69232 0.0
H3305 H 0.91825 0.42481 0.54323 0.0
H3306 H 0.88084 0.39844 0.56563 0.0
H3307 H 0.93489 0.36608 0.62152 0.0
H3308 H 0.9725 0.39299 0.6 0.0
H3309 H 0.89741 0.40641 0.63577 0.0
H3310 H 0.88269 0.29639 0.61407 0.0
H3311 H 0.87903 0.26571 0.57495 0.0
H3312 H 0.84663 0.31306 0.51422 0.0
H3313 H 0.85034 0.34413 0.55296 0.0
C3314 C 0.84267 0.32154 0.72489 0.0
C3315 C 0.81625 0.30147 0.71779 0.0
C3316 C 0.85441 0.33671 0.70391 0.0
C3317 C 0.83978 0.33247 0.67536 0.0
C3318 C 0.81295 0.31306 0.6684 0.0
C3319 C 0.80145 0.29747 0.68933 0.0
C3320 C 0.85357 0.34598 0.65259 0.0
C3321 C 0.85294 0.3297 0.62994 0.0
C3322 C 0.86926 0.37417 0.65422 0.0
C3323 C 0.87018 0.39286 0.67674 0.0
C3324 C 0.84604 0.39531 0.68009 0.0
C3325 C 0.84715 0.41341 0.70102 0.0
C3326 C 0.87225 0.429 0.71883 0.0
C3327 C 0.89636 0.42671 0.7156 0.0
C3328 C 0.8954 0.40883 0.69456 0.0
C3329 C 0.92191 0.41154 0.55982 0.0
C3330 C 0.94824 0.41099 0.57006 0.0
C3331 C 0.90058 0.39655 0.57255 0.0
C3332 C 0.9052 0.3803 0.59506 0.0
C3333 C 0.93097 0.37837 0.604 0.0
C3334 C 0.95241 0.39378 0.59177 0.0
C3335 C 0.8848 0.36847 0.61221 0.0
C3336 C 0.88472 0.38498 0.63405 0.0
C3337 C 0.86831 0.34066 0.60971 0.0
C3338 C 0.86698 0.32264 0.58635 0.0
C3339 C 0.87487 0.30027 0.59235 0.0
C3340 C 0.8728 0.28283 0.57026 0.0
C3341 C 0.86257 0.28741 0.54213 0.0
C3342 C 0.85451 0.30952 0.53602 0.0
C3343 C 0.85682 0.32718 0.55801 0.0
H3344 H 0.86097 0.27389 0.52506 0.0
H3345 H 0.87303 0.44293 0.73506 0.0
H3346 H 0.23049 0.74545 0.6453 0.0
H3347 H 0.19534 0.71916 0.6051 0.0
H3348 H 0.13471 0.7379 0.63557 0.0
H3349 H 0.16922 0.76099 0.67774 0.0
H3350 H 0.11835 0.68933 0.63206 0.0
H3351 H 0.14499 0.74943 0.56268 0.0
H3352 H 0.17418 0.78274 0.53562 0.0
H3353 H 0.20606 0.72426 0.51635 0.0
H3354 H 0.17689 0.69043 0.54302 0.0
H3355 H 0.05014 0.58175 0.50469 0.0
H3356 H 0.07321 0.63003 0.51983 0.0
H3357 H 0.11352 0.60886 0.59968 0.0
H3358 H 0.0905 0.56093 0.58477 0.0
H3359 H 0.12623 0.66563 0.53731 0.0
H3360 H 0.11095 0.644 0.65274 0.0
H3361 H 0.07636 0.61342 0.67633 0.0
H3362 H 1.01411 0.60126 0.59936 0.0
H3363 H 0.0483 0.63209 0.57531 0.0
C3364 C 0.20966 0.74388 0.64349 0.0
C3365 C 0.20238 0.75367 0.66569 0.0
C3366 C 0.18954 0.72947 0.6199 0.0
C3367 C 0.16198 0.72589 0.61738 0.0
C3368 C 0.15563 0.73966 0.63731 0.0
C3369 C 0.17552 0.75299 0.6615 0.0
C3370 C 0.13984 0.7032 0.59864 0.0
C3371 C 0.11988 0.68461 0.6111 0.0
C3372 C 0.14083 0.69707 0.5708 0.0
C3373 C 0.15873 0.71737 0.55494 0.0
C3374 C 0.15833 0.74368 0.55282 0.0
C3375 C 0.17486 0.76267 0.53752 0.0
C3376 C 0.19209 0.75569 0.52446 0.0
C3377 C 0.1927 0.72964 0.52649 0.0
C3378 C 0.17603 0.71048 0.54155 0.0
C3379 C 0.06433 0.5875 0.52519 0.0
C3380 C 0.06848 0.5676 0.54353 0.0
C3381 C 0.07739 0.61504 0.53386 0.0
C3382 C 0.09463 0.62295 0.56107 0.0
C3383 C 0.09982 0.60314 0.5788 0.0
C3384 C 0.08674 0.57575 0.57022 0.0
C3385 C 0.10667 0.65165 0.5719 0.0
C3386 C 0.12444 0.6711 0.5579 0.0
C3387 C 0.103 0.65912 0.59791 0.0
C3388 C 0.08227 0.64035 0.61218 0.0
C3389 C 0.08987 0.63496 0.64086 0.0
C3390 C 0.07031 0.61757 0.65432 0.0
C3391 C 0.04304 0.60547 0.63939 0.0
C3392 C 0.03526 0.61062 0.61089 0.0
C3393 C 0.05474 0.62804 0.59731 0.0
H3394 H 0.02798 0.59214 0.64996 0.0
H3395 H 0.20491 0.77045 0.51268 0.0
loop_
_geom_bond_atom_site_label_1
_geom_bond_atom_site_label_2
_geom_bond_distance
_geom_bond_site_symmetry_2
_ccdc_geom_bond_type
Tb0 N31 2.660 . S
Tb0 N38 2.600 . S
Tb0 O44 2.546 . S
Tb0 O45 2.610 . S
Tb0 O47 2.320 . S
Tb0 O48 2.552 . S
Tb0 O49 2.413 . S
Tb0 O51 2.362 . S
Tb0 O52 2.421 . S
Tb0 C64 2.833 . S
C1 C4 1.432 . S
C1 C5 1.414 . S
C1 N8 1.359 . S
C2 C4 1.417 . S
C2 C6 1.432 . S
C2 C14 1.410 . S
C3 C5 1.444 . S
C3 C6 1.317 . S
C3 H26 0.929 . S
C4 C1 1.432 . S
C4 C2 1.417 . S
C4 N12 1.360 . S
C5 C1 1.414 . S
C5 C3 1.444 . S
C5 C10 1.385 . S
C6 C2 1.432 . S
C6 C3 1.317 . S
C6 H18 0.930 . S
C7 C9 1.392 . S
C7 C10 1.370 . S
C7 H19 0.931 . S
N8 C1 1.359 . S
N8 C9 1.327 . S
N8 Tb11 2.600 . S
C9 C7 1.392 . S
C9 N8 1.327 . S
C9 H16 0.930 . S
C10 C5 1.385 . S
C10 C7 1.370 . S
C10 H29 0.930 . S
Tb11 N8 2.600 . S
Tb11 N12 2.660 . S
Tb11 O45 2.362 . S
Tb11 O46 2.421 . S
Tb11 O50 2.546 . S
Tb11 O51 2.610 . S
Tb11 O53 2.320 . S
Tb11 O54 2.552 . S
Tb11 O55 2.413 . S
Tb11 C75 2.833 . S
N12 C4 1.360 . S
N12 Tb11 2.660 . S
N12 C13 1.305 . S
C13 N12 1.305 . S
C13 C15 1.407 . S
C13 H20 0.930 . S
C14 C2 1.410 . S
C14 C15 1.345 . S
C14 H22 0.930 . S
C15 C13 1.407 . S
C15 C14 1.345 . S
C15 H17 0.930 . S
H16 C9 0.930 . S
H17 C15 0.930 . S
H18 C6 0.930 . S
H19 C7 0.931 . S
H20 C13 0.930 . S
H21 C35 0.930 . S
H22 C14 0.930 . S
H23 C41 0.930 . S
H24 C32 0.930 . S
H25 C39 0.931 . S
H26 C3 0.929 . S
H27 C33 0.930 . S
H28 C66 0.930 . S
H29 C10 0.930 . S
H30 C65 0.929 . S
N31 Tb0 2.660 . S
N31 C32 1.305 . S
N31 C36 1.360 . S
C32 H24 0.930 . S
C32 N31 1.305 . S
C32 C35 1.407 . S
C33 H27 0.930 . S
C33 C34 1.410 . S
C33 C35 1.345 . S
C34 C33 1.410 . S
C34 C36 1.417 . S
C34 C66 1.432 . S
C35 H21 0.930 . S
C35 C32 1.407 . S
C35 C33 1.345 . S
C36 N31 1.360 . S
C36 C34 1.417 . S
C36 C40 1.432 . S
H37 C42 0.930 . S
N38 Tb0 2.600 . S
N38 C40 1.359 . S
N38 C41 1.327 . S
C39 H25 0.931 . S
C39 C41 1.392 . S
C39 C42 1.370 . S
C40 C36 1.432 . S
C40 N38 1.359 . S
C40 C43 1.414 . S
C41 H23 0.930 . S
C41 N38 1.327 . S
C41 C39 1.392 . S
C42 H37 0.930 . S
C42 C39 1.370 . S
C42 C43 1.385 . S
C43 C40 1.414 . S
C43 C42 1.385 . S
C43 C65 1.444 . S
O44 Tb0 2.546 . S
O44 C64 1.251 . S
O45 Tb0 2.610 . S
O45 Tb11 2.362 . S
O45 C56 1.283 . S
O46 Tb11 2.421 . S
O46 C63 1.262 . S
O47 Tb0 2.320 . S
O47 C63 1.260 . S
O48 Tb0 2.552 . S
O48 C56 1.243 . S
O49 Tb0 2.413 . S
O49 C64 1.256 . S
O50 Tb11 2.546 . S
O50 C75 1.251 . S
O51 Tb0 2.362 . S
O51 Tb11 2.610 . S
O51 C67 1.283 . S
O52 Tb0 2.421 . S
O52 C74 1.262 . S
O53 Tb11 2.320 . S
O53 C74 1.260 . S
O54 Tb11 2.552 . S
O54 C67 1.243 . S
O55 Tb11 2.413 . S
O55 C75 1.256 . S
C56 O45 1.283 . S
C56 O48 1.243 . S
C57 C59 1.382 . S
C57 C61 1.393 . S
C57 C64 1.500 . S
C58 C59 1.400 . S
C58 C60 1.384 . S
C59 C57 1.382 . S
C59 C58 1.400 . S
C59 H76 0.930 . S
C60 C58 1.384 . S
C60 C62 1.392 . S
C60 H77 0.931 . S
C61 C57 1.393 . S
C61 C62 1.401 . S
C61 H78 0.930 . S
C62 C60 1.392 . S
C62 C61 1.401 . S
C62 H79 0.930 . S
C63 O46 1.262 . S
C63 O47 1.260 . S
C64 Tb0 2.833 . S
C64 O44 1.251 . S
C64 O49 1.256 . S
C64 C57 1.500 . S
C65 H30 0.929 . S
C65 C43 1.444 . S
C65 C66 1.317 . S
C66 H28 0.930 . S
C66 C34 1.432 . S
C66 C65 1.317 . S
C67 O51 1.283 . S
C67 O54 1.243 . S
C68 C69 1.382 . S
C68 C72 1.393 . S
C68 C75 1.500 . S
C69 C68 1.382 . S
C69 C70 1.400 . S
C69 H80 0.930 . S
C70 C69 1.400 . S
C70 C71 1.384 . S
C71 C70 1.384 . S
C71 C73 1.392 . S
C71 H81 0.931 . S
C72 C68 1.393 . S
C72 C73 1.401 . S
C72 H82 0.930 . S
C73 C71 1.392 . S
C73 C72 1.401 . S
C73 H83 0.930 . S
C74 O52 1.262 . S
C74 O53 1.260 . S
C75 Tb11 2.833 . S
C75 O50 1.251 . S
C75 O55 1.256 . S
C75 C68 1.500 . S
H76 C59 0.930 . S
H77 C60 0.931 . S
H78 C61 0.930 . S
H79 C62 0.930 . S
H80 C69 0.930 . S
H81 C71 0.931 . S
H82 C72 0.930 . S
H83 C73 0.930 . S
Tb84 N115 2.660 . S
Tb84 N122 2.600 . S
Tb84 O128 2.546 . S
Tb84 O129 2.610 . S
Tb84 O131 2.320 . S
Tb84 O132 2.552 . S
Tb84 O133 2.413 . S
Tb84 O135 2.362 . S
Tb84 O136 2.421 . S
Tb84 C148 2.833 . S
C85 C88 1.432 . S
C85 C89 1.414 . S
C85 N92 1.359 . S
C86 C88 1.417 . S
C86 C90 1.432 . S
C86 C98 1.410 . S
C87 C89 1.444 . S
C87 C90 1.317 . S
C87 H110 0.929 . S
C88 C85 1.432 . S
C88 C86 1.417 . S
C88 N96 1.360 . S
C89 C85 1.414 . S
C89 C87 1.444 . S
C89 C94 1.385 . S
C90 C86 1.432 . S
C90 C87 1.317 . S
C90 H102 0.930 . S
C91 C93 1.392 . S
C91 C94 1.370 . S
C91 H103 0.931 . S
N92 C85 1.359 . S
N92 C93 1.327 . S
N92 Tb95 2.600 . S
C93 C91 1.392 . S
C93 N92 1.327 . S
C93 H100 0.930 . S
C94 C89 1.385 . S
C94 C91 1.370 . S
C94 H113 0.930 . S
Tb95 N92 2.600 . S
Tb95 N96 2.660 . S
Tb95 O129 2.362 . S
Tb95 O130 2.421 . S
Tb95 O134 2.546 . S
Tb95 O135 2.610 . S
Tb95 O137 2.320 . S
Tb95 O138 2.552 . S
Tb95 O139 2.413 . S
Tb95 C159 2.833 . S
N96 C88 1.360 . S
N96 Tb95 2.660 . S
N96 C97 1.305 . S
C97 N96 1.305 . S
C97 C99 1.407 . S
C97 H104 0.930 . S
C98 C86 1.410 . S
C98 C99 1.345 . S
C98 H106 0.930 . S
C99 C97 1.407 . S
C99 C98 1.345 . S
C99 H101 0.930 . S
H100 C93 0.930 . S
H101 C99 0.930 . S
H102 C90 0.930 . S
H103 C91 0.931 . S
H104 C97 0.930 . S
H105 C119 0.930 . S
H106 C98 0.930 . S
H107 C125 0.930 . S
H108 C116 0.930 . S
H109 C123 0.931 . S
H110 C87 0.929 . S
H111 C117 0.930 . S
H112 C150 0.930 . S
H113 C94 0.930 . S
H114 C149 0.929 . S
N115 Tb84 2.660 . S
N115 C116 1.305 . S
N115 C120 1.360 . S
C116 H108 0.930 . S
C116 N115 1.305 . S
C116 C119 1.407 . S
C117 H111 0.930 . S
C117 C118 1.410 . S
C117 C119 1.345 . S
C118 C117 1.410 . S
C118 C120 1.417 . S
C118 C150 1.432 . S
C119 H105 0.930 . S
C119 C116 1.407 . S
C119 C117 1.345 . S
C120 N115 1.360 . S
C120 C118 1.417 . S
C120 C124 1.432 . S
H121 C126 0.930 . S
N122 Tb84 2.600 . S
N122 C124 1.359 . S
N122 C125 1.327 . S
C123 H109 0.931 . S
C123 C125 1.392 . S
C123 C126 1.370 . S
C124 C120 1.432 . S
C124 N122 1.359 . S
C124 C127 1.414 . S
C125 H107 0.930 . S
C125 N122 1.327 . S
C125 C123 1.392 . S
C126 H121 0.930 . S
C126 C123 1.370 . S
C126 C127 1.385 . S
C127 C124 1.414 . S
C127 C126 1.385 . S
C127 C149 1.444 . S
O128 Tb84 2.546 . S
O128 C148 1.251 . S
O129 Tb84 2.610 . S
O129 Tb95 2.362 . S
O129 C140 1.283 . S
O130 Tb95 2.421 . S
O130 C147 1.262 . S
O131 Tb84 2.320 . S
O131 C147 1.260 . S
O132 Tb84 2.552 . S
O132 C140 1.243 . S
O133 Tb84 2.413 . S
O133 C148 1.256 . S
O134 Tb95 2.546 . S
O134 C159 1.251 . S
O135 Tb84 2.362 . S
O135 Tb95 2.610 . S
O135 C151 1.283 . S
O136 Tb84 2.421 . S
O136 C158 1.262 . S
O137 Tb95 2.320 . S
O137 C158 1.260 . S
O138 Tb95 2.552 . S
O138 C151 1.243 . S
O139 Tb95 2.413 . S
O139 C159 1.256 . S
C140 O129 1.283 . S
C140 O132 1.243 . S
C141 C143 1.382 . S
C141 C145 1.393 . S
C141 C148 1.500 . S
C142 C143 1.400 . S
C142 C144 1.384 . S
C143 C141 1.382 . S
C143 C142 1.400 . S
C143 H160 0.930 . S
C144 C142 1.384 . S
C144 C146 1.392 . S
C144 H161 0.931 . S
C145 C141 1.393 . S
C145 C146 1.401 . S
C145 H162 0.930 . S
C146 C144 1.392 . S
C146 C145 1.401 . S
C146 H163 0.930 . S
C147 O130 1.262 . S
C147 O131 1.260 . S
C148 Tb84 2.833 . S
C148 O128 1.251 . S
C148 O133 1.256 . S
C148 C141 1.500 . S
C149 H114 0.929 . S
C149 C127 1.444 . S
C149 C150 1.317 . S
C150 H112 0.930 . S
C150 C118 1.432 . S
C150 C149 1.317 . S
C151 O135 1.283 . S
C151 O138 1.243 . S
C152 C153 1.382 . S
C152 C156 1.393 . S
C152 C159 1.500 . S
C153 C152 1.382 . S
C153 C154 1.400 . S
C153 H164 0.930 . S
C154 C153 1.400 . S
C154 C155 1.384 . S
C155 C154 1.384 . S
C155 C157 1.392 . S
C155 H165 0.931 . S
C156 C152 1.393 . S
C156 C157 1.401 . S
C156 H166 0.930 . S
C157 C155 1.392 . S
C157 C156 1.401 . S
C157 H167 0.930 . S
C158 O136 1.262 . S
C158 O137 1.260 . S
C159 Tb95 2.833 . S
C159 O134 1.251 . S
C159 O139 1.256 . S
C159 C152 1.500 . S
H160 C143 0.930 . S
H161 C144 0.931 . S
H162 C145 0.930 . S
H163 C146 0.930 . S
H164 C153 0.930 . S
H165 C155 0.931 . S
H166 C156 0.930 . S
H167 C157 0.930 . S
Tb168 N199 2.660 . S
Tb168 N206 2.600 . S
Tb168 O212 2.546 . S
Tb168 O213 2.610 . S
Tb168 O215 2.320 . S
Tb168 O216 2.552 . S
Tb168 O217 2.413 . S
Tb168 O219 2.362 . S
Tb168 O220 2.421 . S
Tb168 C232 2.833 . S
C169 C172 1.432 . S
C169 C173 1.414 . S
C169 N176 1.359 . S
C170 C172 1.417 . S
C170 C174 1.432 . S
C170 C182 1.410 . S
C171 C173 1.444 . S
C171 C174 1.317 . S
C171 H194 0.929 . S
C172 C169 1.432 . S
C172 C170 1.417 . S
C172 N180 1.360 . S
C173 C169 1.414 . S
C173 C171 1.444 . S
C173 C178 1.385 . S
C174 C170 1.432 . S
C174 C171 1.317 . S
C174 H186 0.930 . S
C175 C177 1.392 . S
C175 C178 1.370 . S
C175 H187 0.931 . S
N176 C169 1.359 . S
N176 C177 1.327 . S
N176 Tb179 2.600 . S
C177 C175 1.392 . S
C177 N176 1.327 . S
C177 H184 0.930 . S
C178 C173 1.385 . S
C178 C175 1.370 . S
C178 H197 0.930 . S
Tb179 N176 2.600 . S
Tb179 N180 2.660 . S
Tb179 O213 2.362 . S
Tb179 O214 2.421 . S
Tb179 O218 2.546 . S
Tb179 O219 2.610 . S
Tb179 O221 2.320 . S
Tb179 O222 2.552 . S
Tb179 O223 2.413 . S
Tb179 C243 2.833 . S
N180 C172 1.360 . S
N180 Tb179 2.660 . S
N180 C181 1.305 . S
C181 N180 1.305 . S
C181 C183 1.407 . S
C181 H188 0.930 . S
C182 C170 1.410 . S
C182 C183 1.345 . S
C182 H190 0.930 . S
C183 C181 1.407 . S
C183 C182 1.345 . S
C183 H185 0.930 . S
H184 C177 0.930 . S
H185 C183 0.930 . S
H186 C174 0.930 . S
H187 C175 0.931 . S
H188 C181 0.930 . S
H189 C203 0.930 . S
H190 C182 0.930 . S
H191 C209 0.930 . S
H192 C200 0.930 . S
H193 C207 0.931 . S
H194 C171 0.929 . S
H195 C201 0.930 . S
H196 C234 0.930 . S
H197 C178 0.930 . S
H198 C233 0.929 . S
N199 Tb168 2.660 . S
N199 C200 1.305 . S
N199 C204 1.360 . S
C200 H192 0.930 . S
C200 N199 1.305 . S
C200 C203 1.407 . S
C201 H195 0.930 . S
C201 C202 1.410 . S
C201 C203 1.345 . S
C202 C201 1.410 . S
C202 C204 1.417 . S
C202 C234 1.432 . S
C203 H189 0.930 . S
C203 C200 1.407 . S
C203 C201 1.345 . S
C204 N199 1.360 . S
C204 C202 1.417 . S
C204 C208 1.432 . S
H205 C210 0.930 . S
N206 Tb168 2.600 . S
N206 C208 1.359 . S
N206 C209 1.327 . S
C207 H193 0.931 . S
C207 C209 1.392 . S
C207 C210 1.370 . S
C208 C204 1.432 . S
C208 N206 1.359 . S
C208 C211 1.414 . S
C209 H191 0.930 . S
C209 N206 1.327 . S
C209 C207 1.392 . S
C210 H205 0.930 . S
C210 C207 1.370 . S
C210 C211 1.385 . S
C211 C208 1.414 . S
C211 C210 1.385 . S
C211 C233 1.444 . S
O212 Tb168 2.546 . S
O212 C232 1.251 . S
O213 Tb168 2.610 . S
O213 Tb179 2.362 . S
O213 C224 1.283 . S
O214 Tb179 2.421 . S
O214 C231 1.262 . S
O215 Tb168 2.320 . S
O215 C231 1.260 . S
O216 Tb168 2.552 . S
O216 C224 1.243 . S
O217 Tb168 2.413 . S
O217 C232 1.256 . S
O218 Tb179 2.546 . S
O218 C243 1.251 . S
O219 Tb168 2.362 . S
O219 Tb179 2.610 . S
O219 C235 1.283 . S
O220 Tb168 2.421 . S
O220 C242 1.262 . S
O221 Tb179 2.320 . S
O221 C242 1.260 . S
O222 Tb179 2.552 . S
O222 C235 1.243 . S
O223 Tb179 2.413 . S
O223 C243 1.256 . S
C224 O213 1.283 . S
C224 O216 1.243 . S
C225 C227 1.382 . S
C225 C229 1.393 . S
C225 C232 1.500 . S
C226 C227 1.400 . S
C226 C228 1.384 . S
C227 C225 1.382 . S
C227 C226 1.400 . S
C227 H244 0.930 . S
C228 C226 1.384 . S
C228 C230 1.392 . S
C228 H245 0.931 . S
C229 C225 1.393 . S
C229 C230 1.401 . S
C229 H246 0.930 . S
C230 C228 1.392 . S
C230 C229 1.401 . S
C230 H247 0.930 . S
C231 O214 1.262 . S
C231 O215 1.260 . S
C232 Tb168 2.833 . S
C232 O212 1.251 . S
C232 O217 1.256 . S
C232 C225 1.500 . S
C233 H198 0.929 . S
C233 C211 1.444 . S
C233 C234 1.317 . S
C234 H196 0.930 . S
C234 C202 1.432 . S
C234 C233 1.317 . S
C235 O219 1.283 . S
C235 O222 1.243 . S
C236 C237 1.382 . S
C236 C240 1.393 . S
C236 C243 1.500 . S
C237 C236 1.382 . S
C237 C238 1.400 . S
C237 H248 0.930 . S
C238 C237 1.400 . S
C238 C239 1.384 . S
C239 C238 1.384 . S
C239 C241 1.392 . S
C239 H249 0.931 . S
C240 C236 1.393 . S
C240 C241 1.401 . S
C240 H250 0.930 . S
C241 C239 1.392 . S
C241 C240 1.401 . S
C241 H251 0.930 . S
C242 O220 1.262 . S
C242 O221 1.260 . S
C243 Tb179 2.833 . S
C243 O218 1.251 . S
C243 O223 1.256 . S
C243 C236 1.500 . S
H244 C227 0.930 . S
H245 C228 0.931 . S
H246 C229 0.930 . S
H247 C230 0.930 . S
H248 C237 0.930 . S
H249 C239 0.931 . S
H250 C240 0.930 . S
H251 C241 0.930 . S
Tb252 N283 2.660 . S
Tb252 N290 2.600 . S
Tb252 O296 2.546 . S
Tb252 O297 2.610 . S
Tb252 O299 2.320 . S
Tb252 O300 2.552 . S
Tb252 O301 2.413 . S
Tb252 O303 2.362 . S
Tb252 O304 2.421 . S
Tb252 C316 2.833 . S
C253 C256 1.432 . S
C253 C257 1.414 . S
C253 N260 1.359 . S
C254 C256 1.417 . S
C254 C258 1.432 . S
C254 C266 1.410 . S
C255 C257 1.444 . S
C255 C258 1.317 . S
C255 H278 0.929 . S
C256 C253 1.432 . S
C256 C254 1.417 . S
C256 N264 1.360 . S
C257 C253 1.414 . S
C257 C255 1.444 . S
C257 C262 1.385 . S
C258 C254 1.432 . S
C258 C255 1.317 . S
C258 H270 0.930 . S
C259 C261 1.392 . S
C259 C262 1.370 . S
C259 H271 0.931 . S
N260 C253 1.359 . S
N260 C261 1.327 . S
N260 Tb263 2.600 . S
C261 C259 1.392 . S
C261 N260 1.327 . S
C261 H268 0.930 . S
C262 C257 1.385 . S
C262 C259 1.370 . S
C262 H281 0.930 . S
Tb263 N260 2.600 . S
Tb263 N264 2.660 . S
Tb263 O297 2.362 . S
Tb263 O298 2.421 . S
Tb263 O302 2.546 . S
Tb263 O303 2.610 . S
Tb263 O305 2.320 . S
Tb263 O306 2.552 . S
Tb263 O307 2.413 . S
Tb263 C327 2.833 . S
N264 C256 1.360 . S
N264 Tb263 2.660 . S
N264 C265 1.305 . S
C265 N264 1.305 . S
C265 C267 1.407 . S
C265 H272 0.930 . S
C266 C254 1.410 . S
C266 C267 1.345 . S
C266 H274 0.930 . S
C267 C265 1.407 . S
C267 C266 1.345 . S
C267 H269 0.930 . S
H268 C261 0.930 . S
H269 C267 0.930 . S
H270 C258 0.930 . S
H271 C259 0.931 . S
H272 C265 0.930 . S
H273 C287 0.930 . S
H274 C266 0.930 . S
H275 C293 0.930 . S
H276 C284 0.930 . S
H277 C291 0.931 . S
H278 C255 0.929 . S
H279 C285 0.930 . S
H280 C318 0.930 . S
H281 C262 0.930 . S
H282 C317 0.929 . S
N283 Tb252 2.660 . S
N283 C284 1.305 . S
N283 C288 1.360 . S
C284 H276 0.930 . S
C284 N283 1.305 . S
C284 C287 1.407 . S
C285 H279 0.930 . S
C285 C286 1.410 . S
C285 C287 1.345 . S
C286 C285 1.410 . S
C286 C288 1.417 . S
C286 C318 1.432 . S
C287 H273 0.930 . S
C287 C284 1.407 . S
C287 C285 1.345 . S
C288 N283 1.360 . S
C288 C286 1.417 . S
C288 C292 1.432 . S
H289 C294 0.930 . S
N290 Tb252 2.600 . S
N290 C292 1.359 . S
N290 C293 1.327 . S
C291 H277 0.931 . S
C291 C293 1.392 . S
C291 C294 1.370 . S
C292 C288 1.432 . S
C292 N290 1.359 . S
C292 C295 1.414 . S
C293 H275 0.930 . S
C293 N290 1.327 . S
C293 C291 1.392 . S
C294 H289 0.930 . S
C294 C291 1.370 . S
C294 C295 1.385 . S
C295 C292 1.414 . S
C295 C294 1.385 . S
C295 C317 1.444 . S
O296 Tb252 2.546 . S
O296 C316 1.251 . S
O297 Tb252 2.610 . S
O297 Tb263 2.362 . S
O297 C308 1.283 . S
O298 Tb263 2.421 . S
O298 C315 1.262 . S
O299 Tb252 2.320 . S
O299 C315 1.260 . S
O300 Tb252 2.552 . S
O300 C308 1.243 . S
O301 Tb252 2.413 . S
O301 C316 1.256 . S
O302 Tb263 2.546 . S
O302 C327 1.251 . S
O303 Tb252 2.362 . S
O303 Tb263 2.610 . S
O303 C319 1.283 . S
O304 Tb252 2.421 . S
O304 C326 1.262 . S
O305 Tb263 2.320 . S
O305 C326 1.260 . S
O306 Tb263 2.552 . S
O306 C319 1.243 . S
O307 Tb263 2.413 . S
O307 C327 1.256 . S
C308 O297 1.283 . S
C308 O300 1.243 . S
C309 C311 1.382 . S
C309 C313 1.393 . S
C309 C316 1.500 . S
C310 C311 1.400 . S
C310 C312 1.384 . S
C311 C309 1.382 . S
C311 C310 1.400 . S
C311 H328 0.930 . S
C312 C310 1.384 . S
C312 C314 1.392 . S
C312 H329 0.931 . S
C313 C309 1.393 . S
C313 C314 1.401 . S
C313 H330 0.930 . S
C314 C312 1.392 . S
C314 C313 1.401 . S
C314 H331 0.930 . S
C315 O298 1.262 . S
C315 O299 1.260 . S
C316 Tb252 2.833 . S
C316 O296 1.251 . S
C316 O301 1.256 . S
C316 C309 1.500 . S
C317 H282 0.929 . S
C317 C295 1.444 . S
C317 C318 1.317 . S
C318 H280 0.930 . S
C318 C286 1.432 . S
C318 C317 1.317 . S
C319 O303 1.283 . S
C319 O306 1.243 . S
C320 C321 1.382 . S
C320 C324 1.393 . S
C320 C327 1.500 . S
C321 C320 1.382 . S
C321 C322 1.400 . S
C321 H332 0.930 . S
C322 C321 1.400 . S
C322 C323 1.384 . S
C323 C322 1.384 . S
C323 C325 1.392 . S
C323 H333 0.931 . S
C324 C320 1.393 . S
C324 C325 1.401 . S
C324 H334 0.930 . S
C325 C323 1.392 . S
C325 C324 1.401 . S
C325 H335 0.930 . S
C326 O304 1.262 . S
C326 O305 1.260 . S
C327 Tb263 2.833 . S
C327 O302 1.251 . S
C327 O307 1.256 . S
C327 C320 1.500 . S
H328 C311 0.930 . S
H329 C312 0.931 . S
H330 C313 0.930 . S
H331 C314 0.930 . S
H332 C321 0.930 . S
H333 C323 0.931 . S
H334 C324 0.930 . S
H335 C325 0.930 . S
Tb336 N367 2.660 . S
Tb336 N374 2.600 . S
Tb336 O380 2.546 . S
Tb336 O381 2.610 . S
Tb336 O383 2.320 . S
Tb336 O384 2.552 . S
Tb336 O385 2.413 . S
Tb336 O387 2.362 . S
Tb336 O388 2.421 . S
Tb336 C400 2.833 . S
C337 C340 1.432 . S
C337 C341 1.414 . S
C337 N344 1.359 . S
C338 C340 1.417 . S
C338 C342 1.432 . S
C338 C350 1.410 . S
C339 C341 1.444 . S
C339 C342 1.317 . S
C339 H362 0.929 . S
C340 C337 1.432 . S
C340 C338 1.417 . S
C340 N348 1.360 . S
C341 C337 1.414 . S
C341 C339 1.444 . S
C341 C346 1.385 . S
C342 C338 1.432 . S
C342 C339 1.317 . S
C342 H354 0.930 . S
C343 C345 1.392 . S
C343 C346 1.370 . S
C343 H355 0.931 . S
N344 C337 1.359 . S
N344 C345 1.327 . S
N344 Tb347 2.600 . S
C345 C343 1.392 . S
C345 N344 1.327 . S
C345 H352 0.930 . S
C346 C341 1.385 . S
C346 C343 1.370 . S
C346 H365 0.930 . S
Tb347 N344 2.600 . S
Tb347 N348 2.660 . S
Tb347 O381 2.362 . S
Tb347 O382 2.421 . S
Tb347 O386 2.546 . S
Tb347 O387 2.610 . S
Tb347 O389 2.320 . S
Tb347 O390 2.552 . S
Tb347 O391 2.413 . S
Tb347 C411 2.833 . S
N348 C340 1.360 . S
N348 Tb347 2.660 . S
N348 C349 1.305 . S
C349 N348 1.305 . S
C349 C351 1.407 . S
C349 H356 0.930 . S
C350 C338 1.410 . S
C350 C351 1.345 . S
C350 H358 0.930 . S
C351 C349 1.407 . S
C351 C350 1.345 . S
C351 H353 0.930 . S
H352 C345 0.930 . S
H353 C351 0.930 . S
H354 C342 0.930 . S
H355 C343 0.931 . S
H356 C349 0.930 . S
H357 C371 0.930 . S
H358 C350 0.930 . S
H359 C377 0.930 . S
H360 C368 0.930 . S
H361 C375 0.931 . S
H362 C339 0.929 . S
H363 C369 0.930 . S
H364 C402 0.930 . S
H365 C346 0.930 . S
H366 C401 0.929 . S
N367 Tb336 2.660 . S
N367 C368 1.305 . S
N367 C372 1.360 . S
C368 H360 0.930 . S
C368 N367 1.305 . S
C368 C371 1.407 . S
C369 H363 0.930 . S
C369 C370 1.410 . S
C369 C371 1.345 . S
C370 C369 1.410 . S
C370 C372 1.417 . S
C370 C402 1.432 . S
C371 H357 0.930 . S
C371 C368 1.407 . S
C371 C369 1.345 . S
C372 N367 1.360 . S
C372 C370 1.417 . S
C372 C376 1.432 . S
H373 C378 0.930 . S
N374 Tb336 2.600 . S
N374 C376 1.359 . S
N374 C377 1.327 . S
C375 H361 0.931 . S
C375 C377 1.392 . S
C375 C378 1.370 . S
C376 C372 1.432 . S
C376 N374 1.359 . S
C376 C379 1.414 . S
C377 H359 0.930 . S
C377 N374 1.327 . S
C377 C375 1.392 . S
C378 H373 0.930 . S
C378 C375 1.370 . S
C378 C379 1.385 . S
C379 C376 1.414 . S
C379 C378 1.385 . S
C379 C401 1.444 . S
O380 Tb336 2.546 . S
O380 C400 1.251 . S
O381 Tb336 2.610 . S
O381 Tb347 2.362 . S
O381 C392 1.283 . S
O382 Tb347 2.421 . S
O382 C399 1.262 . S
O383 Tb336 2.320 . S
O383 C399 1.260 . S
O384 Tb336 2.552 . S
O384 C392 1.243 . S
O385 Tb336 2.413 . S
O385 C400 1.256 . S
O386 Tb347 2.546 . S
O386 C411 1.251 . S
O387 Tb336 2.362 . S
O387 Tb347 2.610 . S
O387 C403 1.283 . S
O388 Tb336 2.421 . S
O388 C410 1.262 . S
O389 Tb347 2.320 . S
O389 C410 1.260 . S
O390 Tb347 2.552 . S
O390 C403 1.243 . S
O391 Tb347 2.413 . S
O391 C411 1.256 . S
C392 O381 1.283 . S
C392 O384 1.243 . S
C393 C395 1.382 . S
C393 C397 1.393 . S
C393 C400 1.500 . S
C394 C395 1.400 . S
C394 C396 1.384 . S
C395 C393 1.382 . S
C395 C394 1.400 . S
C395 H412 0.930 . S
C396 C394 1.384 . S
C396 C398 1.392 . S
C396 H413 0.931 . S
C397 C393 1.393 . S
C397 C398 1.401 . S
C397 H414 0.930 . S
C398 C396 1.392 . S
C398 C397 1.401 . S
C398 H415 0.930 . S
C399 O382 1.262 . S
C399 O383 1.260 . S
C400 Tb336 2.833 . S
C400 O380 1.251 . S
C400 O385 1.256 . S
C400 C393 1.500 . S
C401 H366 0.929 . S
C401 C379 1.444 . S
C401 C402 1.317 . S
C402 H364 0.930 . S
C402 C370 1.432 . S
C402 C401 1.317 . S
C403 O387 1.283 . S
C403 O390 1.243 . S
C404 C405 1.382 . S
C404 C408 1.393 . S
C404 C411 1.500 . S
C405 C404 1.382 . S
C405 C406 1.400 . S
C405 H416 0.930 . S
C406 C405 1.400 . S
C406 C407 1.384 . S
C407 C406 1.384 . S
C407 C409 1.392 . S
C407 H417 0.931 . S
C408 C404 1.393 . S
C408 C409 1.401 . S
C408 H418 0.930 . S
C409 C407 1.392 . S
C409 C408 1.401 . S
C409 H419 0.930 . S
C410 O388 1.262 . S
C410 O389 1.260 . S
C411 Tb347 2.833 . S
C411 O386 1.251 . S
C411 O391 1.256 . S
C411 C404 1.500 . S
H412 C395 0.930 . S
H413 C396 0.931 . S
H414 C397 0.930 . S
H415 C398 0.930 . S
H416 C405 0.930 . S
H417 C407 0.931 . S
H418 C408 0.930 . S
H419 C409 0.930 . S
Tb420 N451 2.660 . S
Tb420 N458 2.600 . S
Tb420 O464 2.546 . S
Tb420 O465 2.610 . S
Tb420 O467 2.320 . S
Tb420 O468 2.552 . S
Tb420 O469 2.413 . S
Tb420 O471 2.362 . S
Tb420 O472 2.421 . S
Tb420 C484 2.833 . S
C421 C424 1.432 . S
C421 C425 1.414 . S
C421 N428 1.359 . S
C422 C424 1.417 . S
C422 C426 1.432 . S
C422 C434 1.410 . S
C423 C425 1.444 . S
C423 C426 1.317 . S
C423 H446 0.929 . S
C424 C421 1.432 . S
C424 C422 1.417 . S
C424 N432 1.360 . S
C425 C421 1.414 . S
C425 C423 1.444 . S
C425 C430 1.385 . S
C426 C422 1.432 . S
C426 C423 1.317 . S
C426 H438 0.930 . S
C427 C429 1.392 . S
C427 C430 1.370 . S
C427 H439 0.931 . S
N428 C421 1.359 . S
N428 C429 1.327 . S
N428 Tb431 2.600 . S
C429 C427 1.392 . S
C429 N428 1.327 . S
C429 H436 0.930 . S
C430 C425 1.385 . S
C430 C427 1.370 . S
C430 H449 0.930 . S
Tb431 N428 2.600 . S
Tb431 N432 2.660 . S
Tb431 O465 2.362 . S
Tb431 O466 2.421 . S
Tb431 O470 2.546 . S
Tb431 O471 2.610 . S
Tb431 O473 2.320 . S
Tb431 O474 2.552 . S
Tb431 O475 2.413 . S
Tb431 C495 2.833 . S
N432 C424 1.360 . S
N432 Tb431 2.660 . S
N432 C433 1.305 . S
C433 N432 1.305 . S
C433 C435 1.407 . S
C433 H440 0.930 . S
C434 C422 1.410 . S
C434 C435 1.345 . S
C434 H442 0.930 . S
C435 C433 1.407 . S
C435 C434 1.345 . S
C435 H437 0.930 . S
H436 C429 0.930 . S
H437 C435 0.930 . S
H438 C426 0.930 . S
H439 C427 0.931 . S
H440 C433 0.930 . S
H441 C455 0.930 . S
H442 C434 0.930 . S
H443 C461 0.930 . S
H444 C452 0.930 . S
H445 C459 0.931 . S
H446 C423 0.929 . S
H447 C453 0.930 . S
H448 C486 0.930 . S
H449 C430 0.930 . S
H450 C485 0.929 . S
N451 Tb420 2.660 . S
N451 C452 1.305 . S
N451 C456 1.360 . S
C452 H444 0.930 . S
C452 N451 1.305 . S
C452 C455 1.407 . S
C453 H447 0.930 . S
C453 C454 1.410 . S
C453 C455 1.345 . S
C454 C453 1.410 . S
C454 C456 1.417 . S
C454 C486 1.432 . S
C455 H441 0.930 . S
C455 C452 1.407 . S
C455 C453 1.345 . S
C456 N451 1.360 . S
C456 C454 1.417 . S
C456 C460 1.432 . S
H457 C462 0.930 . S
N458 Tb420 2.600 . S
N458 C460 1.359 . S
N458 C461 1.327 . S
C459 H445 0.931 . S
C459 C461 1.392 . S
C459 C462 1.370 . S
C460 C456 1.432 . S
C460 N458 1.359 . S
C460 C463 1.414 . S
C461 H443 0.930 . S
C461 N458 1.327 . S
C461 C459 1.392 . S
C462 H457 0.930 . S
C462 C459 1.370 . S
C462 C463 1.385 . S
C463 C460 1.414 . S
C463 C462 1.385 . S
C463 C485 1.444 . S
O464 Tb420 2.546 . S
O464 C484 1.251 . S
O465 Tb420 2.610 . S
O465 Tb431 2.362 . S
O465 C476 1.283 . S
O466 Tb431 2.421 . S
O466 C483 1.262 . S
O467 Tb420 2.320 . S
O467 C483 1.260 . S
O468 Tb420 2.552 . S
O468 C476 1.243 . S
O469 Tb420 2.413 . S
O469 C484 1.256 . S
O470 Tb431 2.546 . S
O470 C495 1.251 . S
O471 Tb420 2.362 . S
O471 Tb431 2.610 . S
O471 C487 1.283 . S
O472 Tb420 2.421 . S
O472 C494 1.262 . S
O473 Tb431 2.320 . S
O473 C494 1.260 . S
O474 Tb431 2.552 . S
O474 C487 1.243 . S
O475 Tb431 2.413 . S
O475 C495 1.256 . S
C476 O465 1.283 . S
C476 O468 1.243 . S
C477 C479 1.382 . S
C477 C481 1.393 . S
C477 C484 1.500 . S
C478 C479 1.400 . S
C478 C480 1.384 . S
C479 C477 1.382 . S
C479 C478 1.400 . S
C479 H496 0.930 . S
C480 C478 1.384 . S
C480 C482 1.392 . S
C480 H497 0.931 . S
C481 C477 1.393 . S
C481 C482 1.401 . S
C481 H498 0.930 . S
C482 C480 1.392 . S
C482 C481 1.401 . S
C482 H499 0.930 . S
C483 O466 1.262 . S
C483 O467 1.260 . S
C484 Tb420 2.833 . S
C484 O464 1.251 . S
C484 O469 1.256 . S
C484 C477 1.500 . S
C485 H450 0.929 . S
C485 C463 1.444 . S
C485 C486 1.317 . S
C486 H448 0.930 . S
C486 C454 1.432 . S
C486 C485 1.317 . S
C487 O471 1.283 . S
C487 O474 1.243 . S
C488 C489 1.382 . S
C488 C492 1.393 . S
C488 C495 1.500 . S
C489 C488 1.382 . S
C489 C490 1.400 . S
C489 H500 0.930 . S
C490 C489 1.400 . S
C490 C491 1.384 . S
C491 C490 1.384 . S
C491 C493 1.392 . S
C491 H501 0.931 . S
C492 C488 1.393 . S
C492 C493 1.401 . S
C492 H502 0.930 . S
C493 C491 1.392 . S
C493 C492 1.401 . S
C493 H503 0.930 . S
C494 O472 1.262 . S
C494 O473 1.260 . S
C495 Tb431 2.833 . S
C495 O470 1.251 . S
C495 O475 1.256 . S
C495 C488 1.500 . S
H496 C479 0.930 . S
H497 C480 0.931 . S
H498 C481 0.930 . S
H499 C482 0.930 . S
H500 C489 0.930 . S
H501 C491 0.931 . S
H502 C492 0.930 . S
H503 C493 0.930 . S
Tb504 N535 2.660 . S
Tb504 N542 2.600 . S
Tb504 O548 2.546 . S
Tb504 O549 2.610 . S
Tb504 O551 2.320 . S
Tb504 O552 2.552 . S
Tb504 O553 2.413 . S
Tb504 O555 2.362 . S
Tb504 O556 2.421 . S
Tb504 C568 2.833 . S
C505 C508 1.432 . S
C505 C509 1.414 . S
C505 N512 1.359 . S
C506 C508 1.417 . S
C506 C510 1.432 . S
C506 C518 1.410 . S
C507 C509 1.444 . S
C507 C510 1.317 . S
C507 H530 0.929 . S
C508 C505 1.432 . S
C508 C506 1.417 . S
C508 N516 1.360 . S
C509 C505 1.414 . S
C509 C507 1.444 . S
C509 C514 1.385 . S
C510 C506 1.432 . S
C510 C507 1.317 . S
C510 H522 0.930 . S
C511 C513 1.392 . S
C511 C514 1.370 . S
C511 H523 0.931 . S
N512 C505 1.359 . S
N512 C513 1.327 . S
N512 Tb515 2.600 . S
C513 C511 1.392 . S
C513 N512 1.327 . S
C513 H520 0.930 . S
C514 C509 1.385 . S
C514 C511 1.370 . S
C514 H533 0.930 . S
Tb515 N512 2.600 . S
Tb515 N516 2.660 . S
Tb515 O549 2.362 . S
Tb515 O550 2.421 . S
Tb515 O554 2.546 . S
Tb515 O555 2.610 . S
Tb515 O557 2.320 . S
Tb515 O558 2.552 . S
Tb515 O559 2.413 . S
Tb515 C579 2.833 . S
N516 C508 1.360 . S
N516 Tb515 2.660 . S
N516 C517 1.305 . S
C517 N516 1.305 . S
C517 C519 1.407 . S
C517 H524 0.930 . S
C518 C506 1.410 . S
C518 C519 1.345 . S
C518 H526 0.930 . S
C519 C517 1.407 . S
C519 C518 1.345 . S
C519 H521 0.930 . S
H520 C513 0.930 . S
H521 C519 0.930 . S
H522 C510 0.930 . S
H523 C511 0.931 . S
H524 C517 0.930 . S
H525 C539 0.930 . S
H526 C518 0.930 . S
H527 C545 0.930 . S
H528 C536 0.930 . S
H529 C543 0.931 . S
H530 C507 0.929 . S
H531 C537 0.930 . S
H532 C570 0.930 . S
H533 C514 0.930 . S
H534 C569 0.929 . S
N535 Tb504 2.660 . S
N535 C536 1.305 . S
N535 C540 1.360 . S
C536 H528 0.930 . S
C536 N535 1.305 . S
C536 C539 1.407 . S
C537 H531 0.930 . S
C537 C538 1.410 . S
C537 C539 1.345 . S
C538 C537 1.410 . S
C538 C540 1.417 . S
C538 C570 1.432 . S
C539 H525 0.930 . S
C539 C536 1.407 . S
C539 C537 1.345 . S
C540 N535 1.360 . S
C540 C538 1.417 . S
C540 C544 1.432 . S
H541 C546 0.930 . S
N542 Tb504 2.600 . S
N542 C544 1.359 . S
N542 C545 1.327 . S
C543 H529 0.931 . S
C543 C545 1.392 . S
C543 C546 1.370 . S
C544 C540 1.432 . S
C544 N542 1.359 . S
C544 C547 1.414 . S
C545 H527 0.930 . S
C545 N542 1.327 . S
C545 C543 1.392 . S
C546 H541 0.930 . S
C546 C543 1.370 . S
C546 C547 1.385 . S
C547 C544 1.414 . S
C547 C546 1.385 . S
C547 C569 1.444 . S
O548 Tb504 2.546 . S
O548 C568 1.251 . S
O549 Tb504 2.610 . S
O549 Tb515 2.362 . S
O549 C560 1.283 . S
O550 Tb515 2.421 . S
O550 C567 1.262 . S
O551 Tb504 2.320 . S
O551 C567 1.260 . S
O552 Tb504 2.552 . S
O552 C560 1.243 . S
O553 Tb504 2.413 . S
O553 C568 1.256 . S
O554 Tb515 2.546 . S
O554 C579 1.251 . S
O555 Tb504 2.362 . S
O555 Tb515 2.610 . S
O555 C571 1.283 . S
O556 Tb504 2.421 . S
O556 C578 1.262 . S
O557 Tb515 2.320 . S
O557 C578 1.260 . S
O558 Tb515 2.552 . S
O558 C571 1.243 . S
O559 Tb515 2.413 . S
O559 C579 1.256 . S
C560 O549 1.283 . S
C560 O552 1.243 . S
C561 C563 1.382 . S
C561 C565 1.393 . S
C561 C568 1.500 . S
C562 C563 1.400 . S
C562 C564 1.384 . S
C563 C561 1.382 . S
C563 C562 1.400 . S
C563 H580 0.930 . S
C564 C562 1.384 . S
C564 C566 1.392 . S
C564 H581 0.931 . S
C565 C561 1.393 . S
C565 C566 1.401 . S
C565 H582 0.930 . S
C566 C564 1.392 . S
C566 C565 1.401 . S
C566 H583 0.930 . S
C567 O550 1.262 . S
C567 O551 1.260 . S
C568 Tb504 2.833 . S
C568 O548 1.251 . S
C568 O553 1.256 . S
C568 C561 1.500 . S
C569 H534 0.929 . S
C569 C547 1.444 . S
C569 C570 1.317 . S
C570 H532 0.930 . S
C570 C538 1.432 . S
C570 C569 1.317 . S
C571 O555 1.283 . S
C571 O558 1.243 . S
C572 C573 1.382 . S
C572 C576 1.393 . S
C572 C579 1.500 . S
C573 C572 1.382 . S
C573 C574 1.400 . S
C573 H584 0.930 . S
C574 C573 1.400 . S
C574 C575 1.384 . S
C575 C574 1.384 . S
C575 C577 1.392 . S
C575 H585 0.931 . S
C576 C572 1.393 . S
C576 C577 1.401 . S
C576 H586 0.930 . S
C577 C575 1.392 . S
C577 C576 1.401 . S
C577 H587 0.930 . S
C578 O556 1.262 . S
C578 O557 1.260 . S
C579 Tb515 2.833 . S
C579 O554 1.251 . S
C579 O559 1.256 . S
C579 C572 1.500 . S
H580 C563 0.930 . S
H581 C564 0.931 . S
H582 C565 0.930 . S
H583 C566 0.930 . S
H584 C573 0.930 . S
H585 C575 0.931 . S
H586 C576 0.930 . S
H587 C577 0.930 . S
Tb588 N619 2.660 . S
Tb588 N626 2.600 . S
Tb588 O632 2.546 . S
Tb588 O633 2.610 . S
Tb588 O635 2.320 . S
Tb588 O636 2.552 . S
Tb588 O637 2.413 . S
Tb588 O639 2.362 . S
Tb588 O640 2.421 . S
Tb588 C652 2.833 . S
C589 C592 1.432 . S
C589 C593 1.414 . S
C589 N596 1.359 . S
C590 C592 1.417 . S
C590 C594 1.432 . S
C590 C602 1.410 . S
C591 C593 1.444 . S
C591 C594 1.317 . S
C591 H614 0.929 . S
C592 C589 1.432 . S
C592 C590 1.417 . S
C592 N600 1.360 . S
C593 C589 1.414 . S
C593 C591 1.444 . S
C593 C598 1.385 . S
C594 C590 1.432 . S
C594 C591 1.317 . S
C594 H606 0.930 . S
C595 C597 1.392 . S
C595 C598 1.370 . S
C595 H607 0.931 . S
N596 C589 1.359 . S
N596 C597 1.327 . S
N596 Tb599 2.600 . S
C597 C595 1.392 . S
C597 N596 1.327 . S
C597 H604 0.930 . S
C598 C593 1.385 . S
C598 C595 1.370 . S
C598 H617 0.930 . S
Tb599 N596 2.600 . S
Tb599 N600 2.660 . S
Tb599 O633 2.362 . S
Tb599 O634 2.421 . S
Tb599 O638 2.546 . S
Tb599 O639 2.610 . S
Tb599 O641 2.320 . S
Tb599 O642 2.552 . S
Tb599 O643 2.413 . S
Tb599 C663 2.833 . S
N600 C592 1.360 . S
N600 Tb599 2.660 . S
N600 C601 1.305 . S
C601 N600 1.305 . S
C601 C603 1.407 . S
C601 H608 0.930 . S
C602 C590 1.410 . S
C602 C603 1.345 . S
C602 H610 0.930 . S
C603 C601 1.407 . S
C603 C602 1.345 . S
C603 H605 0.930 . S
H604 C597 0.930 . S
H605 C603 0.930 . S
H606 C594 0.930 . S
H607 C595 0.931 . S
H608 C601 0.930 . S
H609 C623 0.930 . S
H610 C602 0.930 . S
H611 C629 0.930 . S
H612 C620 0.930 . S
H613 C627 0.931 . S
H614 C591 0.929 . S
H615 C621 0.930 . S
H616 C654 0.930 . S
H617 C598 0.930 . S
H618 C653 0.929 . S
N619 Tb588 2.660 . S
N619 C620 1.305 . S
N619 C624 1.360 . S
C620 H612 0.930 . S
C620 N619 1.305 . S
C620 C623 1.407 . S
C621 H615 0.930 . S
C621 C622 1.410 . S
C621 C623 1.345 . S
C622 C621 1.410 . S
C622 C624 1.417 . S
C622 C654 1.432 . S
C623 H609 0.930 . S
C623 C620 1.407 . S
C623 C621 1.345 . S
C624 N619 1.360 . S
C624 C622 1.417 . S
C624 C628 1.432 . S
H625 C630 0.930 . S
N626 Tb588 2.600 . S
N626 C628 1.359 . S
N626 C629 1.327 . S
C627 H613 0.931 . S
C627 C629 1.392 . S
C627 C630 1.370 . S
C628 C624 1.432 . S
C628 N626 1.359 . S
C628 C631 1.414 . S
C629 H611 0.930 . S
C629 N626 1.327 . S
C629 C627 1.392 . S
C630 H625 0.930 . S
C630 C627 1.370 . S
C630 C631 1.385 . S
C631 C628 1.414 . S
C631 C630 1.385 . S
C631 C653 1.444 . S
O632 Tb588 2.546 . S
O632 C652 1.251 . S
O633 Tb588 2.610 . S
O633 Tb599 2.362 . S
O633 C644 1.283 . S
O634 Tb599 2.421 . S
O634 C651 1.262 . S
O635 Tb588 2.320 . S
O635 C651 1.260 . S
O636 Tb588 2.552 . S
O636 C644 1.243 . S
O637 Tb588 2.413 . S
O637 C652 1.256 . S
O638 Tb599 2.546 . S
O638 C663 1.251 . S
O639 Tb588 2.362 . S
O639 Tb599 2.610 . S
O639 C655 1.283 . S
O640 Tb588 2.421 . S
O640 C662 1.262 . S
O641 Tb599 2.320 . S
O641 C662 1.260 . S
O642 Tb599 2.552 . S
O642 C655 1.243 . S
O643 Tb599 2.413 . S
O643 C663 1.256 . S
C644 O633 1.283 . S
C644 O636 1.243 . S
C645 C647 1.382 . S
C645 C649 1.393 . S
C645 C652 1.500 . S
C646 C647 1.400 . S
C646 C648 1.384 . S
C647 C645 1.382 . S
C647 C646 1.400 . S
C647 H664 0.930 . S
C648 C646 1.384 . S
C648 C650 1.392 . S
C648 H665 0.931 . S
C649 C645 1.393 . S
C649 C650 1.401 . S
C649 H666 0.930 . S
C650 C648 1.392 . S
C650 C649 1.401 . S
C650 H667 0.930 . S
C651 O634 1.262 . S
C651 O635 1.260 . S
C652 Tb588 2.833 . S
C652 O632 1.251 . S
C652 O637 1.256 . S
C652 C645 1.500 . S
C653 H618 0.929 . S
C653 C631 1.444 . S
C653 C654 1.317 . S
C654 H616 0.930 . S
C654 C622 1.432 . S
C654 C653 1.317 . S
C655 O639 1.283 . S
C655 O642 1.243 . S
C656 C657 1.382 . S
C656 C660 1.393 . S
C656 C663 1.500 . S
C657 C656 1.382 . S
C657 C658 1.400 . S
C657 H668 0.930 . S
C658 C657 1.400 . S
C658 C659 1.384 . S
C659 C658 1.384 . S
C659 C661 1.392 . S
C659 H669 0.931 . S
C660 C656 1.393 . S
C660 C661 1.401 . S
C660 H670 0.930 . S
C661 C659 1.392 . S
C661 C660 1.401 . S
C661 H671 0.930 . S
C662 O640 1.262 . S
C662 O641 1.260 . S
C663 Tb599 2.833 . S
C663 O638 1.251 . S
C663 O643 1.256 . S
C663 C656 1.500 . S
H664 C647 0.930 . S
H665 C648 0.931 . S
H666 C649 0.930 . S
H667 C650 0.930 . S
H668 C657 0.930 . S
H669 C659 0.931 . S
H670 C660 0.930 . S
H671 C661 0.930 . S
Cd672 N675 2.334 1_655 S
Cd672 N701 2.304 1_565 S
Cd672 O708 2.268 . S
Cd672 O711 2.273 1_665 S
Cd672 O712 2.417 . S
Cd672 O713 2.330 . S
Cd673 N688 2.304 1_455 S
Cd673 N692 2.334 1_545 S
Cd673 O709 2.273 1_445 S
Cd673 O710 2.268 . S
Cd673 O714 2.417 . S
Cd673 O715 2.330 . S
C674 N675 1.332 . S
C674 C678 1.381 . S
C674 H680 0.931 . S
N675 Cd672 2.334 1_455 S
N675 C674 1.332 . S
N675 C679 1.328 . S
C676 C677 1.396 . S
C676 C679 1.378 . S
C676 H718 0.931 . S
C677 C676 1.396 . S
C677 C678 1.382 . S
C678 C674 1.381 . S
C678 C677 1.382 . S
C678 H719 0.930 . S
C679 N675 1.328 . S
C679 C676 1.378 . S
C679 H681 0.930 1_455 S
H680 C674 0.931 . S
H681 C679 0.930 1_655 S
C682 O708 1.238 . S
C682 O709 1.253 . S
C683 C684 1.379 . S
C683 N688 1.337 . S
C683 H689 0.929 . S
C684 C683 1.379 . S
C684 C685 1.380 . S
C684 H720 0.929 . S
C685 C684 1.380 . S
C685 C686 1.399 . S
C686 C685 1.399 . S
C686 C687 1.376 . S
C686 H721 0.931 . S
C687 C686 1.376 . S
C687 N688 1.338 . S
C687 H690 0.930 1_655 S
N688 Cd673 2.304 1_655 S
N688 C683 1.337 . S
N688 C687 1.338 . S
H689 C683 0.929 . S
H690 C687 0.930 1_455 S
C691 N692 1.332 . S
C691 C695 1.381 . S
C691 H697 0.931 . S
N692 Cd673 2.334 1_565 S
N692 C691 1.332 . S
N692 C696 1.328 . S
C693 C694 1.396 . S
C693 C696 1.378 . S
C693 H722 0.931 . S
C694 C693 1.396 . S
C694 C695 1.382 . S
C695 C691 1.381 . S
C695 C694 1.382 . S
C695 H723 0.930 . S
C696 N692 1.328 . S
C696 C693 1.378 . S
C696 H698 0.930 1_565 S
H697 C691 0.931 . S
H698 C696 0.930 1_545 S
C699 O710 1.238 . S
C699 O711 1.253 . S
C700 O712 1.239 . S
C700 O713 1.230 . S
N701 Cd672 2.304 1_545 S
N701 C702 1.337 . S
N701 C706 1.338 . S
C702 N701 1.337 . S
C702 C703 1.379 . S
C702 H716 0.929 . S
C703 C702 1.379 . S
C703 C704 1.380 . S
C703 H724 0.929 . S
C704 C703 1.380 . S
C704 C705 1.399 . S
C705 C704 1.399 . S
C705 C706 1.376 . S
C705 H725 0.931 . S
C706 N701 1.338 . S
C706 C705 1.376 . S
C706 H717 0.930 1_545 S
C707 O714 1.239 . S
C707 O715 1.230 . S
O708 Cd672 2.268 . S
O708 C682 1.238 . S
O709 Cd673 2.273 1_665 S
O709 C682 1.253 . S
O710 Cd673 2.268 . S
O710 C699 1.238 . S
O711 Cd672 2.273 1_445 S
O711 C699 1.253 . S
O712 Cd672 2.417 . S
O712 C700 1.239 . S
O713 Cd672 2.330 . S
O713 C700 1.230 . S
O714 Cd673 2.417 . S
O714 C707 1.239 . S
O715 Cd673 2.330 . S
O715 C707 1.230 . S
H716 C702 0.929 . S
H717 C706 0.930 1_565 S
H718 C676 0.931 . S
H719 C678 0.930 . S
H720 C684 0.929 . S
H721 C686 0.931 . S
H722 C693 0.931 . S
H723 C695 0.930 . S
H724 C703 0.929 . S
H725 C705 0.931 . S
Cd726 N729 2.334 . S
Cd726 N755 2.304 1_565 S
Cd726 O762 2.268 1_554 S
Cd726 O765 2.273 1_565 S
Cd726 O766 2.417 . S
Cd726 O767 2.330 . S
Cd727 N742 2.304 . S
Cd727 N746 2.334 1_545 S
Cd727 O763 2.273 1_545 S
Cd727 O764 2.268 1_556 S
Cd727 O768 2.417 . S
Cd727 O769 2.330 . S
C728 N729 1.332 . S
C728 C732 1.381 . S
C728 H734 0.931 . S
N729 Cd726 2.334 . S
N729 C728 1.332 . S
N729 C733 1.328 . S
C730 C731 1.396 . S
C730 C733 1.378 . S
C730 H772 0.931 . S
C731 C730 1.396 . S
C731 C732 1.382 . S
C732 C728 1.381 . S
C732 C731 1.382 . S
C732 H773 0.930 . S
C733 N729 1.328 . S
C733 C730 1.378 . S
C733 H735 0.930 . S
H734 C728 0.931 . S
H735 C733 0.930 . S
C736 O762 1.238 . S
C736 O763 1.253 . S
C737 C738 1.379 . S
C737 N742 1.337 . S
C737 H743 0.929 . S
C738 C737 1.379 . S
C738 C739 1.380 . S
C738 H774 0.929 . S
C739 C738 1.380 . S
C739 C740 1.399 . S
C740 C739 1.399 . S
C740 C741 1.376 . S
C740 H775 0.945 . S
C741 C740 1.376 . S
C741 N742 1.338 . S
C741 H744 0.930 1_556 S
N742 Cd727 2.304 . S
N742 C737 1.337 . S
N742 C741 1.338 . S
H743 C737 0.929 . S
H744 C741 0.930 1_554 S
C745 N746 1.332 . S
C745 C749 1.381 . S
C745 H751 0.931 . S
N746 Cd727 2.334 1_565 S
N746 C745 1.332 . S
N746 C750 1.328 . S
C747 C748 1.396 . S
C747 C750 1.378 . S
C747 H776 0.931 1_556 S
C748 C747 1.396 . S
C748 C749 1.382 . S
C749 C745 1.381 . S
C749 C748 1.382 . S
C749 H777 0.930 . S
C750 N746 1.328 . S
C750 C747 1.378 . S
C750 H752 0.930 1_566 S
H751 C745 0.931 . S
H752 C750 0.930 1_544 S
C753 O764 1.238 . S
C753 O765 1.253 . S
C754 O766 1.239 . S
C754 O767 1.230 . S
N755 Cd726 2.304 1_545 S
N755 C756 1.337 . S
N755 C760 1.338 . S
C756 N755 1.337 . S
C756 C757 1.379 . S
C756 H770 0.929 . S
C757 C756 1.379 . S
C757 C758 1.380 . S
C757 H778 0.929 . S
C758 C757 1.380 . S
C758 C759 1.399 . S
C759 C758 1.399 . S
C759 C760 1.376 . S
C759 H779 0.931 1_554 S
C760 N755 1.338 . S
C760 C759 1.376 . S
C760 H771 0.930 1_544 S
C761 O768 1.239 . S
C761 O769 1.230 . S
O762 Cd726 2.268 1_556 S
O762 C736 1.238 . S
O763 Cd727 2.273 1_565 S
O763 C736 1.253 . S
O764 Cd727 2.268 1_554 S
O764 C753 1.238 . S
O765 Cd726 2.273 1_545 S
O765 C753 1.253 . S
O766 Cd726 2.417 . S
O766 C754 1.239 . S
O767 Cd726 2.330 . S
O767 C754 1.230 . S
O768 Cd727 2.417 . S
O768 C761 1.239 . S
O769 Cd727 2.330 . S
O769 C761 1.230 . S
H770 C756 0.929 . S
H771 C760 0.930 1_566 S
H772 C730 0.931 . S
H773 C732 0.930 . S
H774 C738 0.929 . S
H775 C740 0.945 . S
H776 C747 0.931 1_554 S
H777 C749 0.930 . S
H778 C757 0.929 . S
H779 C759 0.931 1_556 S
Cd780 N783 2.334 1_655 S
Cd780 N809 2.304 . S
Cd780 O816 2.268 1_554 S
Cd780 O819 2.273 1_655 S
Cd780 O820 2.417 . S
Cd780 O821 2.330 . S
Cd781 N796 2.304 1_455 S
Cd781 N800 2.334 . S
Cd781 O817 2.273 1_455 S
Cd781 O818 2.268 1_556 S
Cd781 O822 2.417 . S
Cd781 O823 2.330 . S
C782 N783 1.332 . S
C782 C786 1.381 . S
C782 H788 0.931 . S
N783 Cd780 2.334 1_455 S
N783 C782 1.332 . S
N783 C787 1.328 . S
C784 C785 1.396 . S
C784 C787 1.378 . S
C784 H826 0.931 . S
C785 C784 1.396 . S
C785 C786 1.382 . S
C786 C782 1.381 . S
C786 C785 1.382 . S
C786 H827 0.930 . S
C787 N783 1.328 . S
C787 C784 1.378 . S
C787 H789 0.930 1_455 S
H788 C782 0.931 . S
H789 C787 0.930 1_655 S
C790 O816 1.238 . S
C790 O817 1.253 . S
C791 C792 1.379 . S
C791 N796 1.337 . S
C791 H797 0.929 . S
C792 C791 1.379 . S
C792 C793 1.380 . S
C792 H828 0.929 . S
C793 C792 1.380 . S
C793 C794 1.399 . S
C794 C793 1.399 . S
C794 C795 1.376 . S
C794 H829 0.944 . S
C795 C794 1.376 . S
C795 N796 1.338 . S
C795 H798 0.930 1_656 S
N796 Cd781 2.304 1_655 S
N796 C791 1.337 . S
N796 C795 1.338 . S
H797 C791 0.929 . S
H798 C795 0.930 1_454 S
C799 N800 1.332 . S
C799 C803 1.381 . S
C799 H805 0.931 . S
N800 Cd781 2.334 . S
N800 C799 1.332 . S
N800 C804 1.328 . S
C801 C802 1.396 . S
C801 C804 1.378 . S
C801 H830 0.931 1_556 S
C802 C801 1.396 . S
C802 C803 1.382 . S
C803 C799 1.381 . S
C803 C802 1.382 . S
C803 H831 0.930 . S
C804 N800 1.328 . S
C804 C801 1.378 . S
C804 H806 0.930 1_556 S
H805 C799 0.931 . S
H806 C804 0.930 1_554 S
C807 O818 1.238 . S
C807 O819 1.253 . S
C808 O820 1.239 . S
C808 O821 1.230 . S
N809 Cd780 2.304 . S
N809 C810 1.337 . S
N809 C814 1.338 . S
C810 N809 1.337 . S
C810 C811 1.379 . S
C810 H824 0.929 . S
C811 C810 1.379 . S
C811 C812 1.380 . S
C811 H832 0.929 . S
C812 C811 1.380 . S
C812 C813 1.399 . S
C813 C812 1.399 . S
C813 C814 1.376 . S
C813 H833 0.931 1_554 S
C814 N809 1.338 . S
C814 C813 1.376 . S
C814 H825 0.930 1_554 S
C815 O822 1.239 . S
C815 O823 1.230 . S
O816 Cd780 2.268 1_556 S
O816 C790 1.238 . S
O817 Cd781 2.273 1_655 S
O817 C790 1.253 . S
O818 Cd781 2.268 1_554 S
O818 C807 1.238 . S
O819 Cd780 2.273 1_455 S
O819 C807 1.253 . S
O820 Cd780 2.417 . S
O820 C808 1.239 . S
O821 Cd780 2.330 . S
O821 C808 1.230 . S
O822 Cd781 2.417 . S
O822 C815 1.239 . S
O823 Cd781 2.330 . S
O823 C815 1.230 . S
H824 C810 0.929 . S
H825 C814 0.930 1_556 S
H826 C784 0.931 . S
H827 C786 0.930 . S
H828 C792 0.929 . S
H829 C794 0.944 . S
H830 C801 0.931 1_554 S
H831 C803 0.930 . S
H832 C811 0.929 . S
H833 C813 0.931 1_556 S
Cd834 N837 2.334 . S
Cd834 N863 2.304 . S
Cd834 O870 2.268 1_554 S
Cd834 O873 2.273 . S
Cd834 O874 2.417 . S
Cd834 O875 2.330 . S
Cd835 N850 2.304 . S
Cd835 N854 2.334 . S
Cd835 O871 2.273 . S
Cd835 O872 2.268 1_556 S
Cd835 O876 2.417 . S
Cd835 O877 2.330 . S
C836 N837 1.332 . S
C836 C840 1.381 . S
C836 H842 0.931 . S
N837 Cd834 2.334 . S
N837 C836 1.332 . S
N837 C841 1.328 . S
C838 C839 1.396 . S
C838 C841 1.378 . S
C838 H880 0.931 . S
C839 C838 1.396 . S
C839 C840 1.382 . S
C840 C836 1.381 . S
C840 C839 1.382 . S
C840 H881 0.930 . S
C841 N837 1.328 . S
C841 C838 1.378 . S
C841 H843 0.930 . S
H842 C836 0.931 . S
H843 C841 0.930 . S
C844 O870 1.238 . S
C844 O871 1.253 . S
C845 C846 1.379 . S
C845 N850 1.337 . S
C845 H851 0.929 . S
C846 C845 1.379 . S
C846 C847 1.380 . S
C846 H882 0.929 . S
C847 C846 1.380 . S
C847 C848 1.399 . S
C848 C847 1.399 . S
C848 C849 1.376 . S
C848 H883 0.945 . S
C849 C848 1.376 . S
C849 N850 1.338 . S
C849 H852 0.930 1_556 S
N850 Cd835 2.304 . S
N850 C845 1.337 . S
N850 C849 1.338 . S
H851 C845 0.929 . S
H852 C849 0.930 1_554 S
C853 N854 1.332 . S
C853 C857 1.381 . S
C853 H859 0.931 . S
N854 Cd835 2.334 . S
N854 C853 1.332 . S
N854 C858 1.328 . S
C855 C856 1.396 . S
C855 C858 1.378 . S
C855 H884 0.931 1_556 S
C856 C855 1.396 . S
C856 C857 1.382 . S
C857 C853 1.381 . S
C857 C856 1.382 . S
C857 H885 0.930 . S
C858 N854 1.328 . S
C858 C855 1.378 . S
C858 H860 0.930 1_556 S
H859 C853 0.931 . S
H860 C858 0.930 1_554 S
C861 O872 1.238 . S
C861 O873 1.253 . S
C862 O874 1.239 . S
C862 O875 1.230 . S
N863 Cd834 2.304 . S
N863 C864 1.337 . S
N863 C868 1.338 . S
C864 N863 1.337 . S
C864 C865 1.379 . S
C864 H878 0.929 . S
C865 C864 1.379 . S
C865 C866 1.380 . S
C865 H886 0.929 . S
C866 C865 1.380 . S
C866 C867 1.399 . S
C867 C866 1.399 . S
C867 C868 1.376 . S
C867 H887 0.931 1_554 S
C868 N863 1.338 . S
C868 C867 1.376 . S
C868 H879 0.930 1_554 S
C869 O876 1.239 . S
C869 O877 1.230 . S
O870 Cd834 2.268 1_556 S
O870 C844 1.238 . S
O871 Cd835 2.273 . S
O871 C844 1.253 . S
O872 Cd835 2.268 1_554 S
O872 C861 1.238 . S
O873 Cd834 2.273 . S
O873 C861 1.253 . S
O874 Cd834 2.417 . S
O874 C862 1.239 . S
O875 Cd834 2.330 . S
O875 C862 1.230 . S
O876 Cd835 2.417 . S
O876 C869 1.239 . S
O877 Cd835 2.330 . S
O877 C869 1.230 . S
H878 C864 0.929 . S
H879 C868 0.930 1_556 S
H880 C838 0.931 . S
H881 C840 0.930 . S
H882 C846 0.929 . S
H883 C848 0.945 . S
H884 C855 0.931 1_554 S
H885 C857 0.930 . S
H886 C865 0.929 . S
H887 C867 0.931 1_556 S
Cd888 N891 2.334 1_655 S
Cd888 N917 2.304 . S
Cd888 O924 2.268 . S
Cd888 O927 2.273 1_655 S
Cd888 O928 2.417 . S
Cd888 O929 2.330 . S
Cd889 N904 2.304 1_455 S
Cd889 N908 2.334 . S
Cd889 O925 2.273 1_455 S
Cd889 O926 2.268 . S
Cd889 O930 2.417 . S
Cd889 O931 2.330 . S
C890 N891 1.332 . S
C890 C894 1.381 . S
C890 H896 0.931 . S
N891 Cd888 2.334 1_455 S
N891 C890 1.332 . S
N891 C895 1.328 . S
C892 C893 1.396 . S
C892 C895 1.378 . S
C892 H934 0.931 . S
C893 C892 1.396 . S
C893 C894 1.382 . S
C894 C890 1.381 . S
C894 C893 1.382 . S
C894 H935 0.930 . S
C895 N891 1.328 . S
C895 C892 1.378 . S
C895 H897 0.930 1_455 S
H896 C890 0.931 . S
H897 C895 0.930 1_655 S
C898 O924 1.238 . S
C898 O925 1.253 . S
C899 C900 1.379 . S
C899 N904 1.337 . S
C899 H905 0.929 . S
C900 C899 1.379 . S
C900 C901 1.380 . S
C900 H936 0.929 . S
C901 C900 1.380 . S
C901 C902 1.399 . S
C902 C901 1.399 . S
C902 C903 1.376 . S
C902 H937 0.931 . S
C903 C902 1.376 . S
C903 N904 1.338 . S
C903 H906 0.930 1_655 S
N904 Cd889 2.304 1_655 S
N904 C899 1.337 . S
N904 C903 1.338 . S
H905 C899 0.929 . S
H906 C903 0.930 1_455 S
C907 N908 1.332 . S
C907 C911 1.381 . S
C907 H913 0.931 . S
N908 Cd889 2.334 . S
N908 C907 1.332 . S
N908 C912 1.328 . S
C909 C910 1.396 . S
C909 C912 1.378 . S
C909 H938 0.931 . S
C910 C909 1.396 . S
C910 C911 1.382 . S
C911 C907 1.381 . S
C911 C910 1.382 . S
C911 H939 0.930 . S
C912 N908 1.328 . S
C912 C909 1.378 . S
C912 H914 0.930 . S
H913 C907 0.931 . S
H914 C912 0.930 . S
C915 O926 1.238 . S
C915 O927 1.253 . S
C916 O928 1.239 . S
C916 O929 1.230 . S
N917 Cd888 2.304 . S
N917 C918 1.337 . S
N917 C922 1.338 . S
C918 N917 1.337 . S
C918 C919 1.379 . S
C918 H932 0.929 . S
C919 C918 1.379 . S
C919 C920 1.380 . S
C919 H940 0.929 . S
C920 C919 1.380 . S
C920 C921 1.399 . S
C921 C920 1.399 . S
C921 C922 1.376 . S
C921 H941 0.931 . S
C922 N917 1.338 . S
C922 C921 1.376 . S
C922 H933 0.930 . S
C923 O930 1.239 . S
C923 O931 1.230 . S
O924 Cd888 2.268 . S
O924 C898 1.238 . S
O925 Cd889 2.273 1_655 S
O925 C898 1.253 . S
O926 Cd889 2.268 . S
O926 C915 1.238 . S
O927 Cd888 2.273 1_455 S
O927 C915 1.253 . S
O928 Cd888 2.417 . S
O928 C916 1.239 . S
O929 Cd888 2.330 . S
O929 C916 1.230 . S
O930 Cd889 2.417 . S
O930 C923 1.239 . S
O931 Cd889 2.330 . S
O931 C923 1.230 . S
H932 C918 0.929 . S
H933 C922 0.930 . S
H934 C892 0.931 . S
H935 C894 0.930 . S
H936 C900 0.929 . S
H937 C902 0.931 . S
H938 C909 0.931 . S
H939 C911 0.930 . S
H940 C919 0.929 . S
H941 C921 0.931 . S
Cd942 N945 2.334 . S
Cd942 N971 2.304 1_565 S
Cd942 O978 2.268 . S
Cd942 O981 2.273 1_565 S
Cd942 O982 2.417 . S
Cd942 O983 2.330 . S
Cd943 N958 2.304 . S
Cd943 N962 2.334 1_545 S
Cd943 O979 2.273 1_545 S
Cd943 O980 2.268 . S
Cd943 O984 2.417 . S
Cd943 O985 2.330 . S
C944 N945 1.332 . S
C944 C948 1.381 . S
C944 H950 0.931 . S
N945 Cd942 2.334 . S
N945 C944 1.332 . S
N945 C949 1.328 . S
C946 C947 1.396 . S
C946 C949 1.378 . S
C946 H988 0.931 . S
C947 C946 1.396 . S
C947 C948 1.382 . S
C948 C944 1.381 . S
C948 C947 1.382 . S
C948 H989 0.930 . S
C949 N945 1.328 . S
C949 C946 1.378 . S
C949 H951 0.930 . S
H950 C944 0.931 . S
H951 C949 0.930 . S
C952 O978 1.238 . S
C952 O979 1.253 . S
C953 C954 1.379 . S
C953 N958 1.337 . S
C953 H959 0.929 . S
C954 C953 1.379 . S
C954 C955 1.380 . S
C954 H990 0.929 . S
C955 C954 1.380 . S
C955 C956 1.399 . S
C956 C955 1.399 . S
C956 C957 1.376 . S
C956 H991 0.931 . S
C957 C956 1.376 . S
C957 N958 1.338 . S
C957 H960 0.930 . S
N958 Cd943 2.304 . S
N958 C953 1.337 . S
N958 C957 1.338 . S
H959 C953 0.929 . S
H960 C957 0.930 . S
C961 N962 1.332 . S
C961 C965 1.381 . S
C961 H967 0.931 . S
N962 Cd943 2.334 1_565 S
N962 C961 1.332 . S
N962 C966 1.328 . S
C963 C964 1.396 . S
C963 C966 1.378 . S
C963 H992 0.931 . S
C964 C963 1.396 . S
C964 C965 1.382 . S
C965 C961 1.381 . S
C965 C964 1.382 . S
C965 H993 0.930 . S
C966 N962 1.328 . S
C966 C963 1.378 . S
C966 H968 0.930 1_565 S
H967 C961 0.931 . S
H968 C966 0.930 1_545 S
C969 O980 1.238 . S
C969 O981 1.253 . S
C970 O982 1.239 . S
C970 O983 1.230 . S
N971 Cd942 2.304 1_545 S
N971 C972 1.337 . S
N971 C976 1.338 . S
C972 N971 1.337 . S
C972 C973 1.379 . S
C972 H986 0.929 . S
C973 C972 1.379 . S
C973 C974 1.380 . S
C973 H994 0.929 . S
C974 C973 1.380 . S
C974 C975 1.399 . S
C975 C974 1.399 . S
C975 C976 1.376 . S
C975 H995 0.931 . S
C976 N971 1.338 . S
C976 C975 1.376 . S
C976 H987 0.930 1_545 S
C977 O984 1.239 . S
C977 O985 1.230 . S
O978 Cd942 2.268 . S
O978 C952 1.238 . S
O979 Cd943 2.273 1_565 S
O979 C952 1.253 . S
O980 Cd943 2.268 . S
O980 C969 1.238 . S
O981 Cd942 2.273 1_545 S
O981 C969 1.253 . S
O982 Cd942 2.417 . S
O982 C970 1.239 . S
O983 Cd942 2.330 . S
O983 C970 1.230 . S
O984 Cd943 2.417 . S
O984 C977 1.239 . S
O985 Cd943 2.330 . S
O985 C977 1.230 . S
H986 C972 0.929 . S
H987 C976 0.930 1_565 S
H988 C946 0.931 . S
H989 C948 0.930 . S
H990 C954 0.929 . S
H991 C956 0.931 . S
H992 C963 0.931 . S
H993 C965 0.930 . S
H994 C973 0.929 . S
H995 C975 0.931 . S
H996 C1014 0.951 . S
H997 C1016 0.951 . S
H998 C1018 0.950 . S
H999 C1019 0.950 . S
H1000 C1021 0.950 . S
H1001 C1024 0.950 . S
H1002 C1025 0.950 . S
H1003 C1027 0.950 . S
H1004 C1028 0.950 . S
H1005 C1029 0.951 . S
H1006 C1031 0.951 . S
H1007 C1033 0.950 . S
H1008 C1034 0.950 . S
H1009 C1036 0.950 . S
H1010 C1039 0.950 . S
H1011 C1040 0.950 . S
H1012 C1042 0.950 . S
H1013 C1043 0.950 . S
C1014 H996 0.951 . S
C1014 C1015 1.366 . S
C1014 C1016 1.388 . S
C1015 C1014 1.366 . S
C1015 C1019 1.385 . S
C1016 H997 0.951 . S
C1016 C1014 1.388 . S
C1016 C1017 1.366 . S
C1017 C1016 1.366 . S
C1017 C1018 1.414 . S
C1017 C1020 1.499 . S
C1018 H998 0.950 . S
C1018 C1017 1.414 . S
C1018 C1019 1.374 . S
C1019 H999 0.950 . S
C1019 C1015 1.385 . S
C1019 C1018 1.374 . S
C1020 C1017 1.499 . S
C1020 C1021 1.373 . S
C1020 C1022 1.389 . S
C1021 H1000 0.950 . S
C1021 C1020 1.373 . S
C1021 C1037 1.377 . S
C1022 C1020 1.389 . S
C1022 C1023 1.524 . S
C1022 C1036 1.377 . S
C1023 C1022 1.524 . S
C1023 C1024 1.397 . S
C1023 C1028 1.363 . S
C1024 H1001 0.950 . S
C1024 C1023 1.397 . S
C1024 C1025 1.334 . S
C1025 H1002 0.950 . S
C1025 C1024 1.334 . S
C1025 C1026 1.287 . S
C1026 C1025 1.287 . S
C1026 C1027 1.524 . S
C1026 H1045 0.913 . S
C1027 H1003 0.950 . S
C1027 C1026 1.524 . S
C1027 C1028 1.415 . S
C1028 H1004 0.950 . S
C1028 C1023 1.363 . S
C1028 C1027 1.415 . S
C1029 H1005 0.951 . S
C1029 C1030 1.366 . S
C1029 C1031 1.388 . S
C1030 C1029 1.366 . S
C1030 C1034 1.385 . S
C1031 H1006 0.951 . S
C1031 C1029 1.388 . S
C1031 C1032 1.366 . S
C1032 C1031 1.366 . S
C1032 C1033 1.414 . S
C1032 C1035 1.499 . S
C1033 H1007 0.950 . S
C1033 C1032 1.414 . S
C1033 C1034 1.374 . S
C1034 H1008 0.950 . S
C1034 C1030 1.385 . S
C1034 C1033 1.374 . S
C1035 C1032 1.499 . S
C1035 C1036 1.373 . S
C1035 C1037 1.389 . S
C1036 H1009 0.950 . S
C1036 C1022 1.377 . S
C1036 C1035 1.373 . S
C1037 C1021 1.377 . S
C1037 C1035 1.389 . S
C1037 C1038 1.524 . S
C1038 C1037 1.524 . S
C1038 C1039 1.397 . S
C1038 C1043 1.363 . S
C1039 H1010 0.950 . S
C1039 C1038 1.397 . S
C1039 C1040 1.334 . S
C1040 H1011 0.950 . S
C1040 C1039 1.334 . S
C1040 C1041 1.287 . S
C1041 C1040 1.287 . S
C1041 C1042 1.524 . S
C1041 H1044 0.999 . S
C1042 H1012 0.950 . S
C1042 C1041 1.524 . S
C1042 C1043 1.415 . S
C1043 H1013 0.950 . S
C1043 C1038 1.363 . S
C1043 C1042 1.415 . S
H1044 C1041 0.999 . S
H1045 C1026 0.913 . S
H1046 C1064 0.951 . S
H1047 C1066 0.951 . S
H1048 C1068 0.950 . S
H1049 C1069 0.950 . S
H1050 C1071 0.950 . S
H1051 C1074 0.950 . S
H1052 C1075 0.950 . S
H1053 C1077 0.950 . S
H1054 C1078 0.950 . S
H1055 C1079 0.951 . S
H1056 C1081 0.951 . S
H1057 C1083 0.950 . S
H1058 C1084 0.950 . S
H1059 C1086 0.950 . S
H1060 C1089 0.950 . S
H1061 C1090 0.950 . S
H1062 C1092 0.950 . S
H1063 C1093 0.950 . S
C1064 H1046 0.951 . S
C1064 C1065 1.366 . S
C1064 C1066 1.388 . S
C1065 C1064 1.366 . S
C1065 C1069 1.385 . S
C1066 H1047 0.951 . S
C1066 C1064 1.388 . S
C1066 C1067 1.366 . S
C1067 C1066 1.366 . S
C1067 C1068 1.414 . S
C1067 C1070 1.499 . S
C1068 H1048 0.950 . S
C1068 C1067 1.414 . S
C1068 C1069 1.374 . S
C1069 H1049 0.950 . S
C1069 C1065 1.385 . S
C1069 C1068 1.374 . S
C1070 C1067 1.499 . S
C1070 C1071 1.373 . S
C1070 C1072 1.389 . S
C1071 H1050 0.950 . S
C1071 C1070 1.373 . S
C1071 C1087 1.377 . S
C1072 C1070 1.389 . S
C1072 C1073 1.524 . S
C1072 C1086 1.377 . S
C1073 C1072 1.524 . S
C1073 C1074 1.397 . S
C1073 C1078 1.363 . S
C1074 H1051 0.950 . S
C1074 C1073 1.397 . S
C1074 C1075 1.334 . S
C1075 H1052 0.950 . S
C1075 C1074 1.334 . S
C1075 C1076 1.287 . S
C1076 C1075 1.287 . S
C1076 C1077 1.524 . S
C1076 H1095 0.913 . S
C1077 H1053 0.950 . S
C1077 C1076 1.524 . S
C1077 C1078 1.415 . S
C1078 H1054 0.950 . S
C1078 C1073 1.363 . S
C1078 C1077 1.415 . S
C1079 H1055 0.951 . S
C1079 C1080 1.366 . S
C1079 C1081 1.388 . S
C1080 C1079 1.366 . S
C1080 C1084 1.385 . S
C1081 H1056 0.951 . S
C1081 C1079 1.388 . S
C1081 C1082 1.366 . S
C1082 C1081 1.366 . S
C1082 C1083 1.414 . S
C1082 C1085 1.499 . S
C1083 H1057 0.950 . S
C1083 C1082 1.414 . S
C1083 C1084 1.374 . S
C1084 H1058 0.950 . S
C1084 C1080 1.385 . S
C1084 C1083 1.374 . S
C1085 C1082 1.499 . S
C1085 C1086 1.373 . S
C1085 C1087 1.389 . S
C1086 H1059 0.950 . S
C1086 C1072 1.377 . S
C1086 C1085 1.373 . S
C1087 C1071 1.377 . S
C1087 C1085 1.389 . S
C1087 C1088 1.524 . S
C1088 C1087 1.524 . S
C1088 C1089 1.397 . S
C1088 C1093 1.363 . S
C1089 H1060 0.950 . S
C1089 C1088 1.397 . S
C1089 C1090 1.334 . S
C1090 H1061 0.950 . S
C1090 C1089 1.334 . S
C1090 C1091 1.287 . S
C1091 C1090 1.287 . S
C1091 C1092 1.524 . S
C1091 H1094 0.999 . S
C1092 H1062 0.950 . S
C1092 C1091 1.524 . S
C1092 C1093 1.415 . S
C1093 H1063 0.950 . S
C1093 C1088 1.363 . S
C1093 C1092 1.415 . S
H1094 C1091 0.999 . S
H1095 C1076 0.913 . S
H1096 C1114 0.951 . S
H1097 C1116 0.951 . S
H1098 C1118 0.950 . S
H1099 C1119 0.950 . S
H1100 C1121 0.950 . S
H1101 C1124 0.950 . S
H1102 C1125 0.950 . S
H1103 C1127 0.950 . S
H1104 C1128 0.950 . S
H1105 C1129 0.951 . S
H1106 C1131 0.951 . S
H1107 C1133 0.950 . S
H1108 C1134 0.950 . S
H1109 C1136 0.950 . S
H1110 C1139 0.950 . S
H1111 C1140 0.950 . S
H1112 C1142 0.950 . S
H1113 C1143 0.950 . S
C1114 H1096 0.951 . S
C1114 C1115 1.366 . S
C1114 C1116 1.388 . S
C1115 C1114 1.366 . S
C1115 C1119 1.385 . S
C1116 H1097 0.951 . S
C1116 C1114 1.388 . S
C1116 C1117 1.366 . S
C1117 C1116 1.366 . S
C1117 C1118 1.414 . S
C1117 C1120 1.499 . S
C1118 H1098 0.950 . S
C1118 C1117 1.414 . S
C1118 C1119 1.374 . S
C1119 H1099 0.950 . S
C1119 C1115 1.385 . S
C1119 C1118 1.374 . S
C1120 C1117 1.499 . S
C1120 C1121 1.373 . S
C1120 C1122 1.389 . S
C1121 H1100 0.950 . S
C1121 C1120 1.373 . S
C1121 C1137 1.377 . S
C1122 C1120 1.389 . S
C1122 C1123 1.524 . S
C1122 C1136 1.377 . S
C1123 C1122 1.524 . S
C1123 C1124 1.397 . S
C1123 C1128 1.363 . S
C1124 H1101 0.950 . S
C1124 C1123 1.397 . S
C1124 C1125 1.334 . S
C1125 H1102 0.950 . S
C1125 C1124 1.334 . S
C1125 C1126 1.287 . S
C1126 C1125 1.287 . S
C1126 C1127 1.524 . S
C1126 H1145 0.913 . S
C1127 H1103 0.950 . S
C1127 C1126 1.524 . S
C1127 C1128 1.415 . S
C1128 H1104 0.950 . S
C1128 C1123 1.363 . S
C1128 C1127 1.415 . S
C1129 H1105 0.951 . S
C1129 C1130 1.366 . S
C1129 C1131 1.388 . S
C1130 C1129 1.366 . S
C1130 C1134 1.385 . S
C1131 H1106 0.951 . S
C1131 C1129 1.388 . S
C1131 C1132 1.366 . S
C1132 C1131 1.366 . S
C1132 C1133 1.414 . S
C1132 C1135 1.499 . S
C1133 H1107 0.950 . S
C1133 C1132 1.414 . S
C1133 C1134 1.374 . S
C1134 H1108 0.950 . S
C1134 C1130 1.385 . S
C1134 C1133 1.374 . S
C1135 C1132 1.499 . S
C1135 C1136 1.373 . S
C1135 C1137 1.389 . S
C1136 H1109 0.950 . S
C1136 C1122 1.377 . S
C1136 C1135 1.373 . S
C1137 C1121 1.377 . S
C1137 C1135 1.389 . S
C1137 C1138 1.524 . S
C1138 C1137 1.524 . S
C1138 C1139 1.397 . S
C1138 C1143 1.363 . S
C1139 H1110 0.950 . S
C1139 C1138 1.397 . S
C1139 C1140 1.334 . S
C1140 H1111 0.950 . S
C1140 C1139 1.334 . S
C1140 C1141 1.287 . S
C1141 C1140 1.287 . S
C1141 C1142 1.524 . S
C1141 H1144 0.999 1_565 S
C1142 H1112 0.950 . S
C1142 C1141 1.524 . S
C1142 C1143 1.415 . S
C1143 H1113 0.950 . S
C1143 C1138 1.363 . S
C1143 C1142 1.415 . S
H1144 C1141 0.999 1_545 S
H1145 C1126 0.913 . S
H1146 C1164 0.951 . S
H1147 C1166 0.951 . S
H1148 C1168 0.950 . S
H1149 C1169 0.950 . S
H1150 C1171 0.950 . S
H1151 C1174 0.950 . S
H1152 C1175 0.950 . S
H1153 C1177 0.950 . S
H1154 C1178 0.950 . S
H1155 C1179 0.951 . S
H1156 C1181 0.951 . S
H1157 C1183 0.950 . S
H1158 C1184 0.950 . S
H1159 C1186 0.950 . S
H1160 C1189 0.950 . S
H1161 C1190 0.950 . S
H1162 C1192 0.950 . S
H1163 C1193 0.950 . S
C1164 H1146 0.951 . S
C1164 C1165 1.366 . S
C1164 C1166 1.388 . S
C1165 C1164 1.366 . S
C1165 C1169 1.385 . S
C1166 H1147 0.951 . S
C1166 C1164 1.388 . S
C1166 C1167 1.366 . S
C1167 C1166 1.366 . S
C1167 C1168 1.414 . S
C1167 C1170 1.499 . S
C1168 H1148 0.950 . S
C1168 C1167 1.414 . S
C1168 C1169 1.374 . S
C1169 H1149 0.950 . S
C1169 C1165 1.385 . S
C1169 C1168 1.374 . S
C1170 C1167 1.499 . S
C1170 C1171 1.373 . S
C1170 C1172 1.389 . S
C1171 H1150 0.950 . S
C1171 C1170 1.373 . S
C1171 C1187 1.377 . S
C1172 C1170 1.389 . S
C1172 C1173 1.524 . S
C1172 C1186 1.377 . S
C1173 C1172 1.524 . S
C1173 C1174 1.397 . S
C1173 C1178 1.363 . S
C1174 H1151 0.950 . S
C1174 C1173 1.397 . S
C1174 C1175 1.334 . S
C1175 H1152 0.950 . S
C1175 C1174 1.334 . S
C1175 C1176 1.287 . S
C1176 C1175 1.287 . S
C1176 C1177 1.524 . S
C1176 H1195 0.913 . S
C1177 H1153 0.950 . S
C1177 C1176 1.524 . S
C1177 C1178 1.415 . S
C1178 H1154 0.950 . S
C1178 C1173 1.363 . S
C1178 C1177 1.415 . S
C1179 H1155 0.951 . S
C1179 C1180 1.366 . S
C1179 C1181 1.388 . S
C1180 C1179 1.366 . S
C1180 C1184 1.385 . S
C1181 H1156 0.951 . S
C1181 C1179 1.388 . S
C1181 C1182 1.366 . S
C1182 C1181 1.366 . S
C1182 C1183 1.414 . S
C1182 C1185 1.499 . S
C1183 H1157 0.950 . S
C1183 C1182 1.414 . S
C1183 C1184 1.374 . S
C1184 H1158 0.950 . S
C1184 C1180 1.385 . S
C1184 C1183 1.374 . S
C1185 C1182 1.499 . S
C1185 C1186 1.373 . S
C1185 C1187 1.389 . S
C1186 H1159 0.950 . S
C1186 C1172 1.377 . S
C1186 C1185 1.373 . S
C1187 C1171 1.377 . S
C1187 C1185 1.389 . S
C1187 C1188 1.524 . S
C1188 C1187 1.524 . S
C1188 C1189 1.397 . S
C1188 C1193 1.363 . S
C1189 H1160 0.950 . S
C1189 C1188 1.397 . S
C1189 C1190 1.334 . S
C1190 H1161 0.950 . S
C1190 C1189 1.334 . S
C1190 C1191 1.287 . S
C1191 C1190 1.287 . S
C1191 C1192 1.524 . S
C1191 H1194 0.999 . S
C1192 H1162 0.950 . S
C1192 C1191 1.524 . S
C1192 C1193 1.415 . S
C1193 H1163 0.950 . S
C1193 C1188 1.363 . S
C1193 C1192 1.415 . S
H1194 C1191 0.999 . S
H1195 C1176 0.913 . S
H1196 C1214 0.951 . S
H1197 C1216 0.951 . S
H1198 C1218 0.950 . S
H1199 C1219 0.950 . S
H1200 C1221 0.950 . S
H1201 C1224 0.950 . S
H1202 C1225 0.950 . S
H1203 C1227 0.950 . S
H1204 C1228 0.950 . S
H1205 C1229 0.951 . S
H1206 C1231 0.951 . S
H1207 C1233 0.950 . S
H1208 C1234 0.950 . S
H1209 C1236 0.950 . S
H1210 C1239 0.950 . S
H1211 C1240 0.950 . S
H1212 C1242 0.950 . S
H1213 C1243 0.950 . S
C1214 H1196 0.951 . S
C1214 C1215 1.366 . S
C1214 C1216 1.388 . S
C1215 C1214 1.366 . S
C1215 C1219 1.385 . S
C1216 H1197 0.951 . S
C1216 C1214 1.388 . S
C1216 C1217 1.366 . S
C1217 C1216 1.366 . S
C1217 C1218 1.414 . S
C1217 C1220 1.499 . S
C1218 H1198 0.950 . S
C1218 C1217 1.414 . S
C1218 C1219 1.374 . S
C1219 H1199 0.950 . S
C1219 C1215 1.385 . S
C1219 C1218 1.374 . S
C1220 C1217 1.499 . S
C1220 C1221 1.373 . S
C1220 C1222 1.389 . S
C1221 H1200 0.950 . S
C1221 C1220 1.373 . S
C1221 C1237 1.377 . S
C1222 C1220 1.389 . S
C1222 C1223 1.524 . S
C1222 C1236 1.377 . S
C1223 C1222 1.524 . S
C1223 C1224 1.397 . S
C1223 C1228 1.363 . S
C1224 H1201 0.950 . S
C1224 C1223 1.397 . S
C1224 C1225 1.334 . S
C1225 H1202 0.950 . S
C1225 C1224 1.334 . S
C1225 C1226 1.287 . S
C1226 C1225 1.287 . S
C1226 C1227 1.524 . S
C1226 H1245 0.913 . S
C1227 H1203 0.950 . S
C1227 C1226 1.524 . S
C1227 C1228 1.415 . S
C1228 H1204 0.950 . S
C1228 C1223 1.363 . S
C1228 C1227 1.415 . S
C1229 H1205 0.951 . S
C1229 C1230 1.366 . S
C1229 C1231 1.388 . S
C1230 C1229 1.366 . S
C1230 C1234 1.385 . S
C1231 H1206 0.951 . S
C1231 C1229 1.388 . S
C1231 C1232 1.366 . S
C1232 C1231 1.366 . S
C1232 C1233 1.414 . S
C1232 C1235 1.499 . S
C1233 H1207 0.950 . S
C1233 C1232 1.414 . S
C1233 C1234 1.374 . S
C1234 H1208 0.950 . S
C1234 C1230 1.385 . S
C1234 C1233 1.374 . S
C1235 C1232 1.499 . S
C1235 C1236 1.373 . S
C1235 C1237 1.389 . S
C1236 H1209 0.950 . S
C1236 C1222 1.377 . S
C1236 C1235 1.373 . S
C1237 C1221 1.377 . S
C1237 C1235 1.389 . S
C1237 C1238 1.524 . S
C1238 C1237 1.524 . S
C1238 C1239 1.397 . S
C1238 C1243 1.363 . S
C1239 H1210 0.950 . S
C1239 C1238 1.397 . S
C1239 C1240 1.334 . S
C1240 H1211 0.950 . S
C1240 C1239 1.334 . S
C1240 C1241 1.287 . S
C1241 C1240 1.287 . S
C1241 C1242 1.524 . S
C1241 H1244 0.999 . S
C1242 H1212 0.950 . S
C1242 C1241 1.524 . S
C1242 C1243 1.415 . S
C1243 H1213 0.950 . S
C1243 C1238 1.363 . S
C1243 C1242 1.415 . S
H1244 C1241 0.999 . S
H1245 C1226 0.913 . S
H1246 C1264 0.951 . S
H1247 C1266 0.951 . S
H1248 C1268 0.950 . S
H1249 C1269 0.950 . S
H1250 C1271 0.950 . S
H1251 C1274 0.950 . S
H1252 C1275 0.950 . S
H1253 C1277 0.950 . S
H1254 C1278 0.950 . S
H1255 C1279 0.951 . S
H1256 C1281 0.951 . S
H1257 C1283 0.950 . S
H1258 C1284 0.950 . S
H1259 C1286 0.950 . S
H1260 C1289 0.950 . S
H1261 C1290 0.950 . S
H1262 C1292 0.950 . S
H1263 C1293 0.950 . S
C1264 H1246 0.951 . S
C1264 C1265 1.366 . S
C1264 C1266 1.388 . S
C1265 C1264 1.366 . S
C1265 C1269 1.385 . S
C1266 H1247 0.951 . S
C1266 C1264 1.388 . S
C1266 C1267 1.366 . S
C1267 C1266 1.366 . S
C1267 C1268 1.414 . S
C1267 C1270 1.499 . S
C1268 H1248 0.950 . S
C1268 C1267 1.414 . S
C1268 C1269 1.374 . S
C1269 H1249 0.950 . S
C1269 C1265 1.385 . S
C1269 C1268 1.374 . S
C1270 C1267 1.499 . S
C1270 C1271 1.373 . S
C1270 C1272 1.389 . S
C1271 H1250 0.950 . S
C1271 C1270 1.373 . S
C1271 C1287 1.377 . S
C1272 C1270 1.389 . S
C1272 C1273 1.524 . S
C1272 C1286 1.377 . S
C1273 C1272 1.524 . S
C1273 C1274 1.397 . S
C1273 C1278 1.363 . S
C1274 H1251 0.950 . S
C1274 C1273 1.397 . S
C1274 C1275 1.334 . S
C1275 H1252 0.950 . S
C1275 C1274 1.334 . S
C1275 C1276 1.287 . S
C1276 C1275 1.287 . S
C1276 C1277 1.524 . S
C1276 H1295 0.913 . S
C1277 H1253 0.950 . S
C1277 C1276 1.524 . S
C1277 C1278 1.415 . S
C1278 H1254 0.950 . S
C1278 C1273 1.363 . S
C1278 C1277 1.415 . S
C1279 H1255 0.951 . S
C1279 C1280 1.366 . S
C1279 C1281 1.388 . S
C1280 C1279 1.366 . S
C1280 C1284 1.385 . S
C1281 H1256 0.951 . S
C1281 C1279 1.388 . S
C1281 C1282 1.366 . S
C1282 C1281 1.366 . S
C1282 C1283 1.414 . S
C1282 C1285 1.499 . S
C1283 H1257 0.950 . S
C1283 C1282 1.414 . S
C1283 C1284 1.374 . S
C1284 H1258 0.950 . S
C1284 C1280 1.385 . S
C1284 C1283 1.374 . S
C1285 C1282 1.499 . S
C1285 C1286 1.373 . S
C1285 C1287 1.389 . S
C1286 H1259 0.950 . S
C1286 C1272 1.377 . S
C1286 C1285 1.373 . S
C1287 C1271 1.377 . S
C1287 C1285 1.389 . S
C1287 C1288 1.524 . S
C1288 C1287 1.524 . S
C1288 C1289 1.397 . S
C1288 C1293 1.363 . S
C1289 H1260 0.950 . S
C1289 C1288 1.397 . S
C1289 C1290 1.334 . S
C1290 H1261 0.950 . S
C1290 C1289 1.334 . S
C1290 C1291 1.287 . S
C1291 C1290 1.287 . S
C1291 C1292 1.524 . S
C1291 H1294 0.999 . S
C1292 H1262 0.950 . S
C1292 C1291 1.524 . S
C1292 C1293 1.415 . S
C1293 H1263 0.950 . S
C1293 C1288 1.363 . S
C1293 C1292 1.415 . S
H1294 C1291 0.999 . S
H1295 C1276 0.913 . S
H1296 C1314 0.951 . S
H1297 C1316 0.951 . S
H1298 C1318 0.950 . S
H1299 C1319 0.950 . S
H1300 C1321 0.950 . S
H1301 C1324 0.950 . S
H1302 C1325 0.950 . S
H1303 C1327 0.950 . S
H1304 C1328 0.950 . S
H1305 C1329 0.951 . S
H1306 C1331 0.951 . S
H1307 C1333 0.950 . S
H1308 C1334 0.950 . S
H1309 C1336 0.950 . S
H1310 C1339 0.950 . S
H1311 C1340 0.950 1_565 S
H1312 C1342 0.950 . S
H1313 C1343 0.950 . S
C1314 H1296 0.951 . S
C1314 C1315 1.366 . S
C1314 C1316 1.388 . S
C1315 C1314 1.366 . S
C1315 C1319 1.385 . S
C1316 H1297 0.951 . S
C1316 C1314 1.388 . S
C1316 C1317 1.366 . S
C1317 C1316 1.366 . S
C1317 C1318 1.414 . S
C1317 C1320 1.499 . S
C1318 H1298 0.950 . S
C1318 C1317 1.414 . S
C1318 C1319 1.374 . S
C1319 H1299 0.950 . S
C1319 C1315 1.385 . S
C1319 C1318 1.374 . S
C1320 C1317 1.499 . S
C1320 C1321 1.373 . S
C1320 C1322 1.389 . S
C1321 H1300 0.950 . S
C1321 C1320 1.373 . S
C1321 C1337 1.377 . S
C1322 C1320 1.389 . S
C1322 C1323 1.524 . S
C1322 C1336 1.377 . S
C1323 C1322 1.524 . S
C1323 C1324 1.397 . S
C1323 C1328 1.363 . S
C1324 H1301 0.950 . S
C1324 C1323 1.397 . S
C1324 C1325 1.334 . S
C1325 H1302 0.950 . S
C1325 C1324 1.334 . S
C1325 C1326 1.287 . S
C1326 C1325 1.287 . S
C1326 C1327 1.524 . S
C1326 H1345 0.913 . S
C1327 H1303 0.950 . S
C1327 C1326 1.524 . S
C1327 C1328 1.415 . S
C1328 H1304 0.950 . S
C1328 C1323 1.363 . S
C1328 C1327 1.415 . S
C1329 H1305 0.951 . S
C1329 C1330 1.366 . S
C1329 C1331 1.388 . S
C1330 C1329 1.366 . S
C1330 C1334 1.385 . S
C1331 H1306 0.951 . S
C1331 C1329 1.388 . S
C1331 C1332 1.366 . S
C1332 C1331 1.366 . S
C1332 C1333 1.414 . S
C1332 C1335 1.499 . S
C1333 H1307 0.950 . S
C1333 C1332 1.414 . S
C1333 C1334 1.374 . S
C1334 H1308 0.950 . S
C1334 C1330 1.385 . S
C1334 C1333 1.374 . S
C1335 C1332 1.499 . S
C1335 C1336 1.373 . S
C1335 C1337 1.389 . S
C1336 H1309 0.950 . S
C1336 C1322 1.377 . S
C1336 C1335 1.373 . S
C1337 C1321 1.377 . S
C1337 C1335 1.389 . S
C1337 C1338 1.524 . S
C1338 C1337 1.524 . S
C1338 C1339 1.397 . S
C1338 C1343 1.363 . S
C1339 H1310 0.950 . S
C1339 C1338 1.397 . S
C1339 C1340 1.334 . S
C1340 H1311 0.950 1_545 S
C1340 C1339 1.334 . S
C1340 C1341 1.287 . S
C1341 C1340 1.287 . S
C1341 C1342 1.524 . S
C1341 H1344 0.999 1_545 S
C1342 H1312 0.950 . S
C1342 C1341 1.524 . S
C1342 C1343 1.415 . S
C1343 H1313 0.950 . S
C1343 C1338 1.363 . S
C1343 C1342 1.415 . S
H1344 C1341 0.999 1_565 S
H1345 C1326 0.913 . S
H1346 C1364 0.951 . S
H1347 C1366 0.951 . S
H1348 C1368 0.950 . S
H1349 C1369 0.950 . S
H1350 C1371 0.950 . S
H1351 C1374 0.950 . S
H1352 C1375 0.950 . S
H1353 C1377 0.950 . S
H1354 C1378 0.950 . S
H1355 C1379 0.951 . S
H1356 C1381 0.951 . S
H1357 C1383 0.950 . S
H1358 C1384 0.950 . S
H1359 C1386 0.950 . S
H1360 C1389 0.950 . S
H1361 C1390 0.950 . S
H1362 C1392 0.950 . S
H1363 C1393 0.950 . S
C1364 H1346 0.951 . S
C1364 C1365 1.366 . S
C1364 C1366 1.388 . S
C1365 C1364 1.366 . S
C1365 C1369 1.385 . S
C1366 H1347 0.951 . S
C1366 C1364 1.388 . S
C1366 C1367 1.366 . S
C1367 C1366 1.366 . S
C1367 C1368 1.414 . S
C1367 C1370 1.499 . S
C1368 H1348 0.950 . S
C1368 C1367 1.414 . S
C1368 C1369 1.374 . S
C1369 H1349 0.950 . S
C1369 C1365 1.385 . S
C1369 C1368 1.374 . S
C1370 C1367 1.499 . S
C1370 C1371 1.373 . S
C1370 C1372 1.389 . S
C1371 H1350 0.950 . S
C1371 C1370 1.373 . S
C1371 C1387 1.377 . S
C1372 C1370 1.389 . S
C1372 C1373 1.524 . S
C1372 C1386 1.377 . S
C1373 C1372 1.524 . S
C1373 C1374 1.397 . S
C1373 C1378 1.363 . S
C1374 H1351 0.950 . S
C1374 C1373 1.397 . S
C1374 C1375 1.334 . S
C1375 H1352 0.950 . S
C1375 C1374 1.334 . S
C1375 C1376 1.287 . S
C1376 C1375 1.287 . S
C1376 C1377 1.524 . S
C1376 H1395 0.913 . S
C1377 H1353 0.950 . S
C1377 C1376 1.524 . S
C1377 C1378 1.415 . S
C1378 H1354 0.950 . S
C1378 C1373 1.363 . S
C1378 C1377 1.415 . S
C1379 H1355 0.951 . S
C1379 C1380 1.366 . S
C1379 C1381 1.388 . S
C1380 C1379 1.366 . S
C1380 C1384 1.385 . S
C1381 H1356 0.951 . S
C1381 C1379 1.388 . S
C1381 C1382 1.366 . S
C1382 C1381 1.366 . S
C1382 C1383 1.414 . S
C1382 C1385 1.499 . S
C1383 H1357 0.950 . S
C1383 C1382 1.414 . S
C1383 C1384 1.374 . S
C1384 H1358 0.950 . S
C1384 C1380 1.385 . S
C1384 C1383 1.374 . S
C1385 C1382 1.499 . S
C1385 C1386 1.373 . S
C1385 C1387 1.389 . S
C1386 H1359 0.950 . S
C1386 C1372 1.377 . S
C1386 C1385 1.373 . S
C1387 C1371 1.377 . S
C1387 C1385 1.389 . S
C1387 C1388 1.524 . S
C1388 C1387 1.524 . S
C1388 C1389 1.397 . S
C1388 C1393 1.363 . S
C1389 H1360 0.950 . S
C1389 C1388 1.397 . S
C1389 C1390 1.334 . S
C1390 H1361 0.950 . S
C1390 C1389 1.334 . S
C1390 C1391 1.287 . S
C1391 C1390 1.287 . S
C1391 C1392 1.524 . S
C1391 H1394 0.999 . S
C1392 H1362 0.950 . S
C1392 C1391 1.524 . S
C1392 C1393 1.415 . S
C1393 H1363 0.950 . S
C1393 C1388 1.363 . S
C1393 C1392 1.415 . S
H1394 C1391 0.999 . S
H1395 C1376 0.913 . S
H1396 C1414 0.951 . S
H1397 C1416 0.951 . S
H1398 C1418 0.950 . S
H1399 C1419 0.950 . S
H1400 C1421 0.950 . S
H1401 C1424 0.950 . S
H1402 C1425 0.950 . S
H1403 C1427 0.950 . S
H1404 C1428 0.950 . S
H1405 C1429 0.951 . S
H1406 C1431 0.951 . S
H1407 C1433 0.950 . S
H1408 C1434 0.950 . S
H1409 C1436 0.950 . S
H1410 C1439 0.950 . S
H1411 C1440 0.950 . S
H1412 C1442 0.950 . S
H1413 C1443 0.950 . S
C1414 H1396 0.951 . S
C1414 C1415 1.366 . S
C1414 C1416 1.388 . S
C1415 C1414 1.366 . S
C1415 C1419 1.385 . S
C1416 H1397 0.951 . S
C1416 C1414 1.388 . S
C1416 C1417 1.366 . S
C1417 C1416 1.366 . S
C1417 C1418 1.414 . S
C1417 C1420 1.499 . S
C1418 H1398 0.950 . S
C1418 C1417 1.414 . S
C1418 C1419 1.374 . S
C1419 H1399 0.950 . S
C1419 C1415 1.385 . S
C1419 C1418 1.374 . S
C1420 C1417 1.499 . S
C1420 C1421 1.373 . S
C1420 C1422 1.389 . S
C1421 H1400 0.950 . S
C1421 C1420 1.373 . S
C1421 C1437 1.377 . S
C1422 C1420 1.389 . S
C1422 C1423 1.524 . S
C1422 C1436 1.377 . S
C1423 C1422 1.524 . S
C1423 C1424 1.397 . S
C1423 C1428 1.363 . S
C1424 H1401 0.950 . S
C1424 C1423 1.397 . S
C1424 C1425 1.334 . S
C1425 H1402 0.950 . S
C1425 C1424 1.334 . S
C1425 C1426 1.287 . S
C1426 C1425 1.287 . S
C1426 C1427 1.524 . S
C1426 H1445 0.913 . S
C1427 H1403 0.950 . S
C1427 C1426 1.524 . S
C1427 C1428 1.415 . S
C1428 H1404 0.950 . S
C1428 C1423 1.363 . S
C1428 C1427 1.415 . S
C1429 H1405 0.951 . S
C1429 C1430 1.366 . S
C1429 C1431 1.388 . S
C1430 C1429 1.366 . S
C1430 C1434 1.385 . S
C1431 H1406 0.951 . S
C1431 C1429 1.388 . S
C1431 C1432 1.366 . S
C1432 C1431 1.366 . S
C1432 C1433 1.414 . S
C1432 C1435 1.499 . S
C1433 H1407 0.950 . S
C1433 C1432 1.414 . S
C1433 C1434 1.374 . S
C1434 H1408 0.950 . S
C1434 C1430 1.385 . S
C1434 C1433 1.374 . S
C1435 C1432 1.499 . S
C1435 C1436 1.373 . S
C1435 C1437 1.389 . S
C1436 H1409 0.950 . S
C1436 C1422 1.377 . S
C1436 C1435 1.373 . S
C1437 C1421 1.377 . S
C1437 C1435 1.389 . S
C1437 C1438 1.524 . S
C1438 C1437 1.524 . S
C1438 C1439 1.397 . S
C1438 C1443 1.363 . S
C1439 H1410 0.950 . S
C1439 C1438 1.397 . S
C1439 C1440 1.334 . S
C1440 H1411 0.950 . S
C1440 C1439 1.334 . S
C1440 C1441 1.287 . S
C1441 C1440 1.287 . S
C1441 C1442 1.524 . S
C1441 H1444 0.999 . S
C1442 H1412 0.950 . S
C1442 C1441 1.524 . S
C1442 C1443 1.415 . S
C1443 H1413 0.950 . S
C1443 C1438 1.363 . S
C1443 C1442 1.415 . S
H1444 C1441 0.999 . S
H1445 C1426 0.913 . S
H1446 C1464 0.951 . S
H1447 C1466 0.951 . S
H1448 C1468 0.950 . S
H1449 C1469 0.950 . S
H1450 C1471 0.950 . S
H1451 C1474 0.950 . S
H1452 C1475 0.950 . S
H1453 C1477 0.950 . S
H1454 C1478 0.950 . S
H1455 C1479 0.951 . S
H1456 C1481 0.951 . S
H1457 C1483 0.950 . S
H1458 C1484 0.950 . S
H1459 C1486 0.950 . S
H1460 C1489 0.950 . S
H1461 C1490 0.950 . S
H1462 C1492 0.950 . S
H1463 C1493 0.950 . S
C1464 H1446 0.951 . S
C1464 C1465 1.366 . S
C1464 C1466 1.388 . S
C1465 C1464 1.366 . S
C1465 C1469 1.385 . S
C1466 H1447 0.951 . S
C1466 C1464 1.388 . S
C1466 C1467 1.366 . S
C1467 C1466 1.366 . S
C1467 C1468 1.414 . S
C1467 C1470 1.499 . S
C1468 H1448 0.950 . S
C1468 C1467 1.414 . S
C1468 C1469 1.374 . S
C1469 H1449 0.950 . S
C1469 C1465 1.385 . S
C1469 C1468 1.374 . S
C1470 C1467 1.499 . S
C1470 C1471 1.373 . S
C1470 C1472 1.389 . S
C1471 H1450 0.950 . S
C1471 C1470 1.373 . S
C1471 C1487 1.377 . S
C1472 C1470 1.389 . S
C1472 C1473 1.524 . S
C1472 C1486 1.377 . S
C1473 C1472 1.524 . S
C1473 C1474 1.397 . S
C1473 C1478 1.363 . S
C1474 H1451 0.950 . S
C1474 C1473 1.397 . S
C1474 C1475 1.334 . S
C1475 H1452 0.950 . S
C1475 C1474 1.334 . S
C1475 C1476 1.287 . S
C1476 C1475 1.287 . S
C1476 C1477 1.524 . S
C1476 H1495 0.913 . S
C1477 H1453 0.950 . S
C1477 C1476 1.524 . S
C1477 C1478 1.415 . S
C1478 H1454 0.950 . S
C1478 C1473 1.363 . S
C1478 C1477 1.415 . S
C1479 H1455 0.951 . S
C1479 C1480 1.366 . S
C1479 C1481 1.388 . S
C1480 C1479 1.366 . S
C1480 C1484 1.385 . S
C1481 H1456 0.951 . S
C1481 C1479 1.388 . S
C1481 C1482 1.366 . S
C1482 C1481 1.366 . S
C1482 C1483 1.414 . S
C1482 C1485 1.499 . S
C1483 H1457 0.950 . S
C1483 C1482 1.414 . S
C1483 C1484 1.374 . S
C1484 H1458 0.950 . S
C1484 C1480 1.385 . S
C1484 C1483 1.374 . S
C1485 C1482 1.499 . S
C1485 C1486 1.373 . S
C1485 C1487 1.389 . S
C1486 H1459 0.950 . S
C1486 C1472 1.377 . S
C1486 C1485 1.373 . S
C1487 C1471 1.377 . S
C1487 C1485 1.389 . S
C1487 C1488 1.524 . S
C1488 C1487 1.524 . S
C1488 C1489 1.397 . S
C1488 C1493 1.363 . S
C1489 H1460 0.950 . S
C1489 C1488 1.397 . S
C1489 C1490 1.334 . S
C1490 H1461 0.950 . S
C1490 C1489 1.334 . S
C1490 C1491 1.287 . S
C1491 C1490 1.287 . S
C1491 C1492 1.524 . S
C1491 H1494 0.999 . S
C1492 H1462 0.950 . S
C1492 C1491 1.524 . S
C1492 C1493 1.415 . S
C1493 H1463 0.950 . S
C1493 C1488 1.363 . S
C1493 C1492 1.415 . S
H1494 C1491 0.999 . S
H1495 C1476 0.913 . S
H1496 C1514 0.951 . S
H1497 C1516 0.951 . S
H1498 C1518 0.950 . S
H1499 C1519 0.950 . S
H1500 C1521 0.950 . S
H1501 C1524 0.950 . S
H1502 C1525 0.950 . S
H1503 C1527 0.950 . S
H1504 C1528 0.950 . S
H1505 C1529 0.951 . S
H1506 C1531 0.951 . S
H1507 C1533 0.950 . S
H1508 C1534 0.950 . S
H1509 C1536 0.950 . S
H1510 C1539 0.950 . S
H1511 C1540 0.950 . S
H1512 C1542 0.950 . S
H1513 C1543 0.950 . S
C1514 H1496 0.951 . S
C1514 C1515 1.366 . S
C1514 C1516 1.388 . S
C1515 C1514 1.366 . S
C1515 C1519 1.385 . S
C1516 H1497 0.951 . S
C1516 C1514 1.388 . S
C1516 C1517 1.366 . S
C1517 C1516 1.366 . S
C1517 C1518 1.414 . S
C1517 C1520 1.499 . S
C1518 H1498 0.950 . S
C1518 C1517 1.414 . S
C1518 C1519 1.374 . S
C1519 H1499 0.950 . S
C1519 C1515 1.385 . S
C1519 C1518 1.374 . S
C1520 C1517 1.499 . S
C1520 C1521 1.373 . S
C1520 C1522 1.389 . S
C1521 H1500 0.950 . S
C1521 C1520 1.373 . S
C1521 C1537 1.377 . S
C1522 C1520 1.389 . S
C1522 C1523 1.524 . S
C1522 C1536 1.377 . S
C1523 C1522 1.524 . S
C1523 C1524 1.397 . S
C1523 C1528 1.363 . S
C1524 H1501 0.950 . S
C1524 C1523 1.397 . S
C1524 C1525 1.334 . S
C1525 H1502 0.950 . S
C1525 C1524 1.334 . S
C1525 C1526 1.287 . S
C1526 C1525 1.287 . S
C1526 C1527 1.524 . S
C1526 H1545 0.913 . S
C1527 H1503 0.950 . S
C1527 C1526 1.524 . S
C1527 C1528 1.415 . S
C1528 H1504 0.950 . S
C1528 C1523 1.363 . S
C1528 C1527 1.415 . S
C1529 H1505 0.951 . S
C1529 C1530 1.366 . S
C1529 C1531 1.388 . S
C1530 C1529 1.366 . S
C1530 C1534 1.385 . S
C1531 H1506 0.951 . S
C1531 C1529 1.388 . S
C1531 C1532 1.366 . S
C1532 C1531 1.366 . S
C1532 C1533 1.414 . S
C1532 C1535 1.499 . S
C1533 H1507 0.950 . S
C1533 C1532 1.414 . S
C1533 C1534 1.374 . S
C1534 H1508 0.950 . S
C1534 C1530 1.385 . S
C1534 C1533 1.374 . S
C1535 C1532 1.499 . S
C1535 C1536 1.373 . S
C1535 C1537 1.389 . S
C1536 H1509 0.950 . S
C1536 C1522 1.377 . S
C1536 C1535 1.373 . S
C1537 C1521 1.377 . S
C1537 C1535 1.389 . S
C1537 C1538 1.524 . S
C1538 C1537 1.524 . S
C1538 C1539 1.397 . S
C1538 C1543 1.363 . S
C1539 H1510 0.950 . S
C1539 C1538 1.397 . S
C1539 C1540 1.334 . S
C1540 H1511 0.950 . S
C1540 C1539 1.334 . S
C1540 C1541 1.287 . S
C1541 C1540 1.287 . S
C1541 C1542 1.524 . S
C1541 H1544 0.999 . S
C1542 H1512 0.950 . S
C1542 C1541 1.524 . S
C1542 C1543 1.415 . S
C1543 H1513 0.950 . S
C1543 C1538 1.363 . S
C1543 C1542 1.415 . S
H1544 C1541 0.999 . S
H1545 C1526 0.913 . S
H1546 C1564 0.951 . S
H1547 C1566 0.951 . S
H1548 C1568 0.950 . S
H1549 C1569 0.950 . S
H1550 C1571 0.950 . S
H1551 C1574 0.950 . S
H1552 C1575 0.950 . S
H1553 C1577 0.950 . S
H1554 C1578 0.950 . S
H1555 C1579 0.951 . S
H1556 C1581 0.951 . S
H1557 C1583 0.950 . S
H1558 C1584 0.950 . S
H1559 C1586 0.950 . S
H1560 C1589 0.950 . S
H1561 C1590 0.950 . S
H1562 C1592 0.950 . S
H1563 C1593 0.950 . S
C1564 H1546 0.951 . S
C1564 C1565 1.366 . S
C1564 C1566 1.388 . S
C1565 C1564 1.366 . S
C1565 C1569 1.385 . S
C1566 H1547 0.951 . S
C1566 C1564 1.388 . S
C1566 C1567 1.366 . S
C1567 C1566 1.366 . S
C1567 C1568 1.414 . S
C1567 C1570 1.499 . S
C1568 H1548 0.950 . S
C1568 C1567 1.414 . S
C1568 C1569 1.374 . S
C1569 H1549 0.950 . S
C1569 C1565 1.385 . S
C1569 C1568 1.374 . S
C1570 C1567 1.499 . S
C1570 C1571 1.373 . S
C1570 C1572 1.389 . S
C1571 H1550 0.950 . S
C1571 C1570 1.373 . S
C1571 C1587 1.377 . S
C1572 C1570 1.389 . S
C1572 C1573 1.524 . S
C1572 C1586 1.377 . S
C1573 C1572 1.524 . S
C1573 C1574 1.397 . S
C1573 C1578 1.363 . S
C1574 H1551 0.950 . S
C1574 C1573 1.397 . S
C1574 C1575 1.334 . S
C1575 H1552 0.950 . S
C1575 C1574 1.334 . S
C1575 C1576 1.287 . S
C1576 C1575 1.287 . S
C1576 C1577 1.524 . S
C1576 H1595 0.913 . S
C1577 H1553 0.950 . S
C1577 C1576 1.524 . S
C1577 C1578 1.415 . S
C1578 H1554 0.950 . S
C1578 C1573 1.363 . S
C1578 C1577 1.415 . S
C1579 H1555 0.951 . S
C1579 C1580 1.366 . S
C1579 C1581 1.388 . S
C1580 C1579 1.366 . S
C1580 C1584 1.385 . S
C1581 H1556 0.951 . S
C1581 C1579 1.388 . S
C1581 C1582 1.366 . S
C1582 C1581 1.366 . S
C1582 C1583 1.414 . S
C1582 C1585 1.499 . S
C1583 H1557 0.950 . S
C1583 C1582 1.414 . S
C1583 C1584 1.374 . S
C1584 H1558 0.950 . S
C1584 C1580 1.385 . S
C1584 C1583 1.374 . S
C1585 C1582 1.499 . S
C1585 C1586 1.373 . S
C1585 C1587 1.389 . S
C1586 H1559 0.950 . S
C1586 C1572 1.377 . S
C1586 C1585 1.373 . S
C1587 C1571 1.377 . S
C1587 C1585 1.389 . S
C1587 C1588 1.524 . S
C1588 C1587 1.524 . S
C1588 C1589 1.397 . S
C1588 C1593 1.363 . S
C1589 H1560 0.950 . S
C1589 C1588 1.397 . S
C1589 C1590 1.334 . S
C1590 H1561 0.950 . S
C1590 C1589 1.334 . S
C1590 C1591 1.287 . S
C1591 C1590 1.287 . S
C1591 C1592 1.524 . S
C1591 H1594 0.999 . S
C1592 H1562 0.950 . S
C1592 C1591 1.524 . S
C1592 C1593 1.415 . S
C1593 H1563 0.950 . S
C1593 C1588 1.363 . S
C1593 C1592 1.415 . S
H1594 C1591 0.999 . S
H1595 C1576 0.913 . S
H1596 C1614 0.951 . S
H1597 C1616 0.951 . S
H1598 C1618 0.950 . S
H1599 C1619 0.950 . S
H1600 C1621 0.950 . S
H1601 C1624 0.950 . S
H1602 C1625 0.950 . S
H1603 C1627 0.950 . S
H1604 C1628 0.950 . S
H1605 C1629 0.951 . S
H1606 C1631 0.951 . S
H1607 C1633 0.950 . S
H1608 C1634 0.950 . S
H1609 C1636 0.950 . S
H1610 C1639 0.950 . S
H1611 C1640 0.950 . S
H1612 C1642 0.950 . S
H1613 C1643 0.950 . S
C1614 H1596 0.951 . S
C1614 C1615 1.366 . S
C1614 C1616 1.388 . S
C1615 C1614 1.366 . S
C1615 C1619 1.385 . S
C1616 H1597 0.951 . S
C1616 C1614 1.388 . S
C1616 C1617 1.366 . S
C1617 C1616 1.366 . S
C1617 C1618 1.414 . S
C1617 C1620 1.499 . S
C1618 H1598 0.950 . S
C1618 C1617 1.414 . S
C1618 C1619 1.374 . S
C1619 H1599 0.950 . S
C1619 C1615 1.385 . S
C1619 C1618 1.374 . S
C1620 C1617 1.499 . S
C1620 C1621 1.373 . S
C1620 C1622 1.389 . S
C1621 H1600 0.950 . S
C1621 C1620 1.373 . S
C1621 C1637 1.377 . S
C1622 C1620 1.389 . S
C1622 C1623 1.524 . S
C1622 C1636 1.377 . S
C1623 C1622 1.524 . S
C1623 C1624 1.397 . S
C1623 C1628 1.363 . S
C1624 H1601 0.950 . S
C1624 C1623 1.397 . S
C1624 C1625 1.334 . S
C1625 H1602 0.950 . S
C1625 C1624 1.334 . S
C1625 C1626 1.287 . S
C1626 C1625 1.287 . S
C1626 C1627 1.524 . S
C1626 H1645 0.913 . S
C1627 H1603 0.950 . S
C1627 C1626 1.524 . S
C1627 C1628 1.415 . S
C1628 H1604 0.950 . S
C1628 C1623 1.363 . S
C1628 C1627 1.415 . S
C1629 H1605 0.951 . S
C1629 C1630 1.366 . S
C1629 C1631 1.388 . S
C1630 C1629 1.366 . S
C1630 C1634 1.385 . S
C1631 H1606 0.951 . S
C1631 C1629 1.388 . S
C1631 C1632 1.366 . S
C1632 C1631 1.366 . S
C1632 C1633 1.414 . S
C1632 C1635 1.499 . S
C1633 H1607 0.950 . S
C1633 C1632 1.414 . S
C1633 C1634 1.374 . S
C1634 H1608 0.950 . S
C1634 C1630 1.385 . S
C1634 C1633 1.374 . S
C1635 C1632 1.499 . S
C1635 C1636 1.373 . S
C1635 C1637 1.389 . S
C1636 H1609 0.950 . S
C1636 C1622 1.377 . S
C1636 C1635 1.373 . S
C1637 C1621 1.377 . S
C1637 C1635 1.389 . S
C1637 C1638 1.524 . S
C1638 C1637 1.524 . S
C1638 C1639 1.397 . S
C1638 C1643 1.363 . S
C1639 H1610 0.950 . S
C1639 C1638 1.397 . S
C1639 C1640 1.334 . S
C1640 H1611 0.950 . S
C1640 C1639 1.334 . S
C1640 C1641 1.287 . S
C1641 C1640 1.287 . S
C1641 C1642 1.524 . S
C1641 H1644 0.999 . S
C1642 H1612 0.950 . S
C1642 C1641 1.524 . S
C1642 C1643 1.415 . S
C1643 H1613 0.950 . S
C1643 C1638 1.363 . S
C1643 C1642 1.415 . S
H1644 C1641 0.999 . S
H1645 C1626 0.913 . S
H1646 C1664 0.951 . S
H1647 C1666 0.951 . S
H1648 C1668 0.950 . S
H1649 C1669 0.950 . S
H1650 C1671 0.950 . S
H1651 C1674 0.950 . S
H1652 C1675 0.950 . S
H1653 C1677 0.950 . S
H1654 C1678 0.950 . S
H1655 C1679 0.951 1_554 S
H1656 C1681 0.951 . S
H1657 C1683 0.950 . S
H1658 C1684 0.950 . S
H1659 C1686 0.950 . S
H1660 C1689 0.950 . S
H1661 C1690 0.950 . S
H1662 C1692 0.950 . S
H1663 C1693 0.950 . S
C1664 H1646 0.951 . S
C1664 C1665 1.366 . S
C1664 C1666 1.388 . S
C1665 C1664 1.366 . S
C1665 C1669 1.385 . S
C1666 H1647 0.951 . S
C1666 C1664 1.388 . S
C1666 C1667 1.366 . S
C1667 C1666 1.366 . S
C1667 C1668 1.414 . S
C1667 C1670 1.499 . S
C1668 H1648 0.950 . S
C1668 C1667 1.414 . S
C1668 C1669 1.374 . S
C1669 H1649 0.950 . S
C1669 C1665 1.385 . S
C1669 C1668 1.374 . S
C1670 C1667 1.499 . S
C1670 C1671 1.373 . S
C1670 C1672 1.389 . S
C1671 H1650 0.950 . S
C1671 C1670 1.373 . S
C1671 C1687 1.377 . S
C1672 C1670 1.389 . S
C1672 C1673 1.524 . S
C1672 C1686 1.377 . S
C1673 C1672 1.524 . S
C1673 C1674 1.397 . S
C1673 C1678 1.363 . S
C1674 H1651 0.950 . S
C1674 C1673 1.397 . S
C1674 C1675 1.334 . S
C1675 H1652 0.950 . S
C1675 C1674 1.334 . S
C1675 C1676 1.287 . S
C1676 C1675 1.287 . S
C1676 C1677 1.524 . S
C1676 H1695 0.913 . S
C1677 H1653 0.950 . S
C1677 C1676 1.524 . S
C1677 C1678 1.415 . S
C1678 H1654 0.950 . S
C1678 C1673 1.363 . S
C1678 C1677 1.415 . S
C1679 H1655 0.951 1_556 S
C1679 C1680 1.366 . S
C1679 C1681 1.388 . S
C1680 C1679 1.366 . S
C1680 C1684 1.385 . S
C1681 H1656 0.951 . S
C1681 C1679 1.388 . S
C1681 C1682 1.366 . S
C1682 C1681 1.366 . S
C1682 C1683 1.414 . S
C1682 C1685 1.499 . S
C1683 H1657 0.950 . S
C1683 C1682 1.414 . S
C1683 C1684 1.374 . S
C1684 H1658 0.950 . S
C1684 C1680 1.385 . S
C1684 C1683 1.374 . S
C1685 C1682 1.499 . S
C1685 C1686 1.373 . S
C1685 C1687 1.389 . S
C1686 H1659 0.950 . S
C1686 C1672 1.377 . S
C1686 C1685 1.373 . S
C1687 C1671 1.377 . S
C1687 C1685 1.389 . S
C1687 C1688 1.524 . S
C1688 C1687 1.524 . S
C1688 C1689 1.397 . S
C1688 C1693 1.363 . S
C1689 H1660 0.950 . S
C1689 C1688 1.397 . S
C1689 C1690 1.334 . S
C1690 H1661 0.950 . S
C1690 C1689 1.334 . S
C1690 C1691 1.287 . S
C1691 C1690 1.287 . S
C1691 C1692 1.524 . S
C1691 H1694 0.999 . S
C1692 H1662 0.950 . S
C1692 C1691 1.524 . S
C1692 C1693 1.415 . S
C1693 H1663 0.950 . S
C1693 C1688 1.363 . S
C1693 C1692 1.415 . S
H1694 C1691 0.999 . S
H1695 C1676 0.913 . S
H1696 C1714 0.951 . S
H1697 C1716 0.951 . S
H1698 C1718 0.950 . S
H1699 C1719 0.950 . S
H1700 C1721 0.950 . S
H1701 C1724 0.950 . S
H1702 C1725 0.950 . S
H1703 C1727 0.950 . S
H1704 C1728 0.950 . S
H1705 C1729 0.951 . S
H1706 C1731 0.951 . S
H1707 C1733 0.950 . S
H1708 C1734 0.950 . S
H1709 C1736 0.950 . S
H1710 C1739 0.950 . S
H1711 C1740 0.950 . S
H1712 C1742 0.950 . S
H1713 C1743 0.950 . S
C1714 H1696 0.951 . S
C1714 C1715 1.366 . S
C1714 C1716 1.388 . S
C1715 C1714 1.366 . S
C1715 C1719 1.385 . S
C1716 H1697 0.951 . S
C1716 C1714 1.388 . S
C1716 C1717 1.366 . S
C1717 C1716 1.366 . S
C1717 C1718 1.414 . S
C1717 C1720 1.499 . S
C1718 H1698 0.950 . S
C1718 C1717 1.414 . S
C1718 C1719 1.374 . S
C1719 H1699 0.950 . S
C1719 C1715 1.385 . S
C1719 C1718 1.374 . S
C1720 C1717 1.499 . S
C1720 C1721 1.373 . S
C1720 C1722 1.389 . S
C1721 H1700 0.950 . S
C1721 C1720 1.373 . S
C1721 C1737 1.377 . S
C1722 C1720 1.389 . S
C1722 C1723 1.524 . S
C1722 C1736 1.377 . S
C1723 C1722 1.524 . S
C1723 C1724 1.397 . S
C1723 C1728 1.363 . S
C1724 H1701 0.950 . S
C1724 C1723 1.397 . S
C1724 C1725 1.334 . S
C1725 H1702 0.950 . S
C1725 C1724 1.334 . S
C1725 C1726 1.287 . S
C1726 C1725 1.287 . S
C1726 C1727 1.524 . S
C1726 H1745 0.913 . S
C1727 H1703 0.950 . S
C1727 C1726 1.524 . S
C1727 C1728 1.415 . S
C1728 H1704 0.950 . S
C1728 C1723 1.363 . S
C1728 C1727 1.415 . S
C1729 H1705 0.951 . S
C1729 C1730 1.366 . S
C1729 C1731 1.388 . S
C1730 C1729 1.366 . S
C1730 C1734 1.385 . S
C1731 H1706 0.951 . S
C1731 C1729 1.388 . S
C1731 C1732 1.366 . S
C1732 C1731 1.366 . S
C1732 C1733 1.414 . S
C1732 C1735 1.499 . S
C1733 H1707 0.950 . S
C1733 C1732 1.414 . S
C1733 C1734 1.374 . S
C1734 H1708 0.950 . S
C1734 C1730 1.385 . S
C1734 C1733 1.374 . S
C1735 C1732 1.499 . S
C1735 C1736 1.373 . S
C1735 C1737 1.389 . S
C1736 H1709 0.950 . S
C1736 C1722 1.377 . S
C1736 C1735 1.373 . S
C1737 C1721 1.377 . S
C1737 C1735 1.389 . S
C1737 C1738 1.524 . S
C1738 C1737 1.524 . S
C1738 C1739 1.397 . S
C1738 C1743 1.363 . S
C1739 H1710 0.950 . S
C1739 C1738 1.397 . S
C1739 C1740 1.334 . S
C1740 H1711 0.950 . S
C1740 C1739 1.334 . S
C1740 C1741 1.287 . S
C1741 C1740 1.287 . S
C1741 C1742 1.524 . S
C1741 H1744 0.999 . S
C1742 H1712 0.950 . S
C1742 C1741 1.524 . S
C1742 C1743 1.415 . S
C1743 H1713 0.950 . S
C1743 C1738 1.363 . S
C1743 C1742 1.415 . S
H1744 C1741 0.999 . S
H1745 C1726 0.913 . S
H1746 C1764 0.951 . S
H1747 C1766 0.951 . S
H1748 C1768 0.950 . S
H1749 C1769 0.950 . S
H1750 C1771 0.950 . S
H1751 C1774 0.950 . S
H1752 C1775 0.950 . S
H1753 C1777 0.950 . S
H1754 C1778 0.950 . S
H1755 C1779 0.951 . S
H1756 C1781 0.951 . S
H1757 C1783 0.950 . S
H1758 C1784 0.950 . S
H1759 C1786 0.950 . S
H1760 C1789 0.950 . S
H1761 C1790 0.950 . S
H1762 C1792 0.950 . S
H1763 C1793 0.950 . S
C1764 H1746 0.951 . S
C1764 C1765 1.366 . S
C1764 C1766 1.388 . S
C1765 C1764 1.366 . S
C1765 C1769 1.385 . S
C1766 H1747 0.951 . S
C1766 C1764 1.388 . S
C1766 C1767 1.366 . S
C1767 C1766 1.366 . S
C1767 C1768 1.414 . S
C1767 C1770 1.499 . S
C1768 H1748 0.950 . S
C1768 C1767 1.414 . S
C1768 C1769 1.374 . S
C1769 H1749 0.950 . S
C1769 C1765 1.385 . S
C1769 C1768 1.374 . S
C1770 C1767 1.499 . S
C1770 C1771 1.373 . S
C1770 C1772 1.389 . S
C1771 H1750 0.950 . S
C1771 C1770 1.373 . S
C1771 C1787 1.377 . S
C1772 C1770 1.389 . S
C1772 C1773 1.524 . S
C1772 C1786 1.377 . S
C1773 C1772 1.524 . S
C1773 C1774 1.397 . S
C1773 C1778 1.363 . S
C1774 H1751 0.950 . S
C1774 C1773 1.397 . S
C1774 C1775 1.334 . S
C1775 H1752 0.950 . S
C1775 C1774 1.334 . S
C1775 C1776 1.287 . S
C1776 C1775 1.287 . S
C1776 C1777 1.524 . S
C1776 H1795 0.913 . S
C1777 H1753 0.950 . S
C1777 C1776 1.524 . S
C1777 C1778 1.415 . S
C1778 H1754 0.950 . S
C1778 C1773 1.363 . S
C1778 C1777 1.415 . S
C1779 H1755 0.951 . S
C1779 C1780 1.366 . S
C1779 C1781 1.388 . S
C1780 C1779 1.366 . S
C1780 C1784 1.385 . S
C1781 H1756 0.951 . S
C1781 C1779 1.388 . S
C1781 C1782 1.366 . S
C1782 C1781 1.366 . S
C1782 C1783 1.414 . S
C1782 C1785 1.499 . S
C1783 H1757 0.950 . S
C1783 C1782 1.414 . S
C1783 C1784 1.374 . S
C1784 H1758 0.950 . S
C1784 C1780 1.385 . S
C1784 C1783 1.374 . S
C1785 C1782 1.499 . S
C1785 C1786 1.373 . S
C1785 C1787 1.389 . S
C1786 H1759 0.950 . S
C1786 C1772 1.377 . S
C1786 C1785 1.373 . S
C1787 C1771 1.377 . S
C1787 C1785 1.389 . S
C1787 C1788 1.524 . S
C1788 C1787 1.524 . S
C1788 C1789 1.397 . S
C1788 C1793 1.363 . S
C1789 H1760 0.950 . S
C1789 C1788 1.397 . S
C1789 C1790 1.334 . S
C1790 H1761 0.950 . S
C1790 C1789 1.334 . S
C1790 C1791 1.287 . S
C1791 C1790 1.287 . S
C1791 C1792 1.524 . S
C1791 H1794 0.999 1_655 S
C1792 H1762 0.950 . S
C1792 C1791 1.524 . S
C1792 C1793 1.415 . S
C1793 H1763 0.950 . S
C1793 C1788 1.363 . S
C1793 C1792 1.415 . S
H1794 C1791 0.999 1_455 S
H1795 C1776 0.913 . S
H1796 C1814 0.951 . S
H1797 C1816 0.951 . S
H1798 C1818 0.950 . S
H1799 C1819 0.950 . S
H1800 C1821 0.950 . S
H1801 C1824 0.950 . S
H1802 C1825 0.950 . S
H1803 C1827 0.950 . S
H1804 C1828 0.950 . S
H1805 C1829 0.951 . S
H1806 C1831 0.951 . S
H1807 C1833 0.950 . S
H1808 C1834 0.950 . S
H1809 C1836 0.950 . S
H1810 C1839 0.950 . S
H1811 C1840 0.950 . S
H1812 C1842 0.950 . S
H1813 C1843 0.950 . S
C1814 H1796 0.951 . S
C1814 C1815 1.366 . S
C1814 C1816 1.388 . S
C1815 C1814 1.366 . S
C1815 C1819 1.385 . S
C1816 H1797 0.951 . S
C1816 C1814 1.388 . S
C1816 C1817 1.366 . S
C1817 C1816 1.366 . S
C1817 C1818 1.414 . S
C1817 C1820 1.499 . S
C1818 H1798 0.950 . S
C1818 C1817 1.414 . S
C1818 C1819 1.374 . S
C1819 H1799 0.950 . S
C1819 C1815 1.385 . S
C1819 C1818 1.374 . S
C1820 C1817 1.499 . S
C1820 C1821 1.373 . S
C1820 C1822 1.389 . S
C1821 H1800 0.950 . S
C1821 C1820 1.373 . S
C1821 C1837 1.377 . S
C1822 C1820 1.389 . S
C1822 C1823 1.524 . S
C1822 C1836 1.377 . S
C1823 C1822 1.524 . S
C1823 C1824 1.397 . S
C1823 C1828 1.363 . S
C1824 H1801 0.950 . S
C1824 C1823 1.397 . S
C1824 C1825 1.334 . S
C1825 H1802 0.950 . S
C1825 C1824 1.334 . S
C1825 C1826 1.287 . S
C1826 C1825 1.287 . S
C1826 C1827 1.524 . S
C1826 H1845 0.913 . S
C1827 H1803 0.950 . S
C1827 C1826 1.524 . S
C1827 C1828 1.415 . S
C1828 H1804 0.950 . S
C1828 C1823 1.363 . S
C1828 C1827 1.415 . S
C1829 H1805 0.951 . S
C1829 C1830 1.366 . S
C1829 C1831 1.388 . S
C1830 C1829 1.366 . S
C1830 C1834 1.385 . S
C1831 H1806 0.951 . S
C1831 C1829 1.388 . S
C1831 C1832 1.366 . S
C1832 C1831 1.366 . S
C1832 C1833 1.414 . S
C1832 C1835 1.499 . S
C1833 H1807 0.950 . S
C1833 C1832 1.414 . S
C1833 C1834 1.374 . S
C1834 H1808 0.950 . S
C1834 C1830 1.385 . S
C1834 C1833 1.374 . S
C1835 C1832 1.499 . S
C1835 C1836 1.373 . S
C1835 C1837 1.389 . S
C1836 H1809 0.950 . S
C1836 C1822 1.377 . S
C1836 C1835 1.373 . S
C1837 C1821 1.377 . S
C1837 C1835 1.389 . S
C1837 C1838 1.524 . S
C1838 C1837 1.524 . S
C1838 C1839 1.397 . S
C1838 C1843 1.363 . S
C1839 H1810 0.950 . S
C1839 C1838 1.397 . S
C1839 C1840 1.334 . S
C1840 H1811 0.950 . S
C1840 C1839 1.334 . S
C1840 C1841 1.287 . S
C1841 C1840 1.287 . S
C1841 C1842 1.524 . S
C1841 H1844 0.999 1_554 S
C1842 H1812 0.950 . S
C1842 C1841 1.524 . S
C1842 C1843 1.415 . S
C1843 H1813 0.950 . S
C1843 C1838 1.363 . S
C1843 C1842 1.415 . S
H1844 C1841 0.999 1_556 S
H1845 C1826 0.913 . S
H1846 C1864 0.951 . S
H1847 C1866 0.951 . S
H1848 C1868 0.950 . S
H1849 C1869 0.950 . S
H1850 C1871 0.950 . S
H1851 C1874 0.950 . S
H1852 C1875 0.950 . S
H1853 C1877 0.950 . S
H1854 C1878 0.950 . S
H1855 C1879 0.951 . S
H1856 C1881 0.951 . S
H1857 C1883 0.950 . S
H1858 C1884 0.950 . S
H1859 C1886 0.950 . S
H1860 C1889 0.950 . S
H1861 C1890 0.950 . S
H1862 C1892 0.950 . S
H1863 C1893 0.950 . S
C1864 H1846 0.951 . S
C1864 C1865 1.366 . S
C1864 C1866 1.388 . S
C1865 C1864 1.366 . S
C1865 C1869 1.385 . S
C1866 H1847 0.951 . S
C1866 C1864 1.388 . S
C1866 C1867 1.366 . S
C1867 C1866 1.366 . S
C1867 C1868 1.414 . S
C1867 C1870 1.499 . S
C1868 H1848 0.950 . S
C1868 C1867 1.414 . S
C1868 C1869 1.374 . S
C1869 H1849 0.950 . S
C1869 C1865 1.385 . S
C1869 C1868 1.374 . S
C1870 C1867 1.499 . S
C1870 C1871 1.373 . S
C1870 C1872 1.389 . S
C1871 H1850 0.950 . S
C1871 C1870 1.373 . S
C1871 C1887 1.377 . S
C1872 C1870 1.389 . S
C1872 C1873 1.524 . S
C1872 C1886 1.377 . S
C1873 C1872 1.524 . S
C1873 C1874 1.397 . S
C1873 C1878 1.363 . S
C1874 H1851 0.950 . S
C1874 C1873 1.397 . S
C1874 C1875 1.334 . S
C1875 H1852 0.950 . S
C1875 C1874 1.334 . S
C1875 C1876 1.287 . S
C1876 C1875 1.287 . S
C1876 C1877 1.524 . S
C1876 H1895 0.913 . S
C1877 H1853 0.950 . S
C1877 C1876 1.524 . S
C1877 C1878 1.415 . S
C1878 H1854 0.950 . S
C1878 C1873 1.363 . S
C1878 C1877 1.415 . S
C1879 H1855 0.951 . S
C1879 C1880 1.366 . S
C1879 C1881 1.388 . S
C1880 C1879 1.366 . S
C1880 C1884 1.385 . S
C1881 H1856 0.951 . S
C1881 C1879 1.388 . S
C1881 C1882 1.366 . S
C1882 C1881 1.366 . S
C1882 C1883 1.414 . S
C1882 C1885 1.499 . S
C1883 H1857 0.950 . S
C1883 C1882 1.414 . S
C1883 C1884 1.374 . S
C1884 H1858 0.950 . S
C1884 C1880 1.385 . S
C1884 C1883 1.374 . S
C1885 C1882 1.499 . S
C1885 C1886 1.373 . S
C1885 C1887 1.389 . S
C1886 H1859 0.950 . S
C1886 C1872 1.377 . S
C1886 C1885 1.373 . S
C1887 C1871 1.377 . S
C1887 C1885 1.389 . S
C1887 C1888 1.524 . S
C1888 C1887 1.524 . S
C1888 C1889 1.397 . S
C1888 C1893 1.363 . S
C1889 H1860 0.950 . S
C1889 C1888 1.397 . S
C1889 C1890 1.334 . S
C1890 H1861 0.950 . S
C1890 C1889 1.334 . S
C1890 C1891 1.287 . S
C1891 C1890 1.287 . S
C1891 C1892 1.524 . S
C1891 H1894 0.999 . S
C1892 H1862 0.950 . S
C1892 C1891 1.524 . S
C1892 C1893 1.415 . S
C1893 H1863 0.950 . S
C1893 C1888 1.363 . S
C1893 C1892 1.415 . S
H1894 C1891 0.999 . S
H1895 C1876 0.913 . S
H1896 C1914 0.951 . S
H1897 C1916 0.951 . S
H1898 C1918 0.950 . S
H1899 C1919 0.950 . S
H1900 C1921 0.950 . S
H1901 C1924 0.950 . S
H1902 C1925 0.950 . S
H1903 C1927 0.950 . S
H1904 C1928 0.950 . S
H1905 C1929 0.951 . S
H1906 C1931 0.951 . S
H1907 C1933 0.950 . S
H1908 C1934 0.950 . S
H1909 C1936 0.950 . S
H1910 C1939 0.950 . S
H1911 C1940 0.950 . S
H1912 C1942 0.950 . S
H1913 C1943 0.950 . S
C1914 H1896 0.951 . S
C1914 C1915 1.366 . S
C1914 C1916 1.388 . S
C1915 C1914 1.366 . S
C1915 C1919 1.385 . S
C1916 H1897 0.951 . S
C1916 C1914 1.388 . S
C1916 C1917 1.366 . S
C1917 C1916 1.366 . S
C1917 C1918 1.414 . S
C1917 C1920 1.499 . S
C1918 H1898 0.950 . S
C1918 C1917 1.414 . S
C1918 C1919 1.374 . S
C1919 H1899 0.950 . S
C1919 C1915 1.385 . S
C1919 C1918 1.374 . S
C1920 C1917 1.499 . S
C1920 C1921 1.373 . S
C1920 C1922 1.389 . S
C1921 H1900 0.950 . S
C1921 C1920 1.373 . S
C1921 C1937 1.377 . S
C1922 C1920 1.389 . S
C1922 C1923 1.524 . S
C1922 C1936 1.377 . S
C1923 C1922 1.524 . S
C1923 C1924 1.397 . S
C1923 C1928 1.363 . S
C1924 H1901 0.950 . S
C1924 C1923 1.397 . S
C1924 C1925 1.334 . S
C1925 H1902 0.950 . S
C1925 C1924 1.334 . S
C1925 C1926 1.287 . S
C1926 C1925 1.287 . S
C1926 C1927 1.524 . S
C1926 H1945 0.913 . S
C1927 H1903 0.950 . S
C1927 C1926 1.524 . S
C1927 C1928 1.415 . S
C1928 H1904 0.950 . S
C1928 C1923 1.363 . S
C1928 C1927 1.415 . S
C1929 H1905 0.951 . S
C1929 C1930 1.366 . S
C1929 C1931 1.388 . S
C1930 C1929 1.366 . S
C1930 C1934 1.385 . S
C1931 H1906 0.951 . S
C1931 C1929 1.388 . S
C1931 C1932 1.366 . S
C1932 C1931 1.366 . S
C1932 C1933 1.414 . S
C1932 C1935 1.499 . S
C1933 H1907 0.950 . S
C1933 C1932 1.414 . S
C1933 C1934 1.374 . S
C1934 H1908 0.950 . S
C1934 C1930 1.385 . S
C1934 C1933 1.374 . S
C1935 C1932 1.499 . S
C1935 C1936 1.373 . S
C1935 C1937 1.389 . S
C1936 H1909 0.950 . S
C1936 C1922 1.377 . S
C1936 C1935 1.373 . S
C1937 C1921 1.377 . S
C1937 C1935 1.389 . S
C1937 C1938 1.524 . S
C1938 C1937 1.524 . S
C1938 C1939 1.397 . S
C1938 C1943 1.363 . S
C1939 H1910 0.950 . S
C1939 C1938 1.397 . S
C1939 C1940 1.334 . S
C1940 H1911 0.950 . S
C1940 C1939 1.334 . S
C1940 C1941 1.287 . S
C1941 C1940 1.287 . S
C1941 C1942 1.524 . S
C1941 H1944 0.999 . S
C1942 H1912 0.950 . S
C1942 C1941 1.524 . S
C1942 C1943 1.415 . S
C1943 H1913 0.950 . S
C1943 C1938 1.363 . S
C1943 C1942 1.415 . S
H1944 C1941 0.999 . S
H1945 C1926 0.913 . S
H1946 C1964 0.951 . S
H1947 C1966 0.951 . S
H1948 C1968 0.950 . S
H1949 C1969 0.950 . S
H1950 C1971 0.950 . S
H1951 C1974 0.950 . S
H1952 C1975 0.950 . S
H1953 C1977 0.950 . S
H1954 C1978 0.950 . S
H1955 C1979 0.951 . S
H1956 C1981 0.951 . S
H1957 C1983 0.950 . S
H1958 C1984 0.950 . S
H1959 C1986 0.950 . S
H1960 C1989 0.950 . S
H1961 C1990 0.950 . S
H1962 C1992 0.950 . S
H1963 C1993 0.950 . S
C1964 H1946 0.951 . S
C1964 C1965 1.366 . S
C1964 C1966 1.388 . S
C1965 C1964 1.366 . S
C1965 C1969 1.385 . S
C1966 H1947 0.951 . S
C1966 C1964 1.388 . S
C1966 C1967 1.366 . S
C1967 C1966 1.366 . S
C1967 C1968 1.414 . S
C1967 C1970 1.499 . S
C1968 H1948 0.950 . S
C1968 C1967 1.414 . S
C1968 C1969 1.374 . S
C1969 H1949 0.950 . S
C1969 C1965 1.385 . S
C1969 C1968 1.374 . S
C1970 C1967 1.499 . S
C1970 C1971 1.373 . S
C1970 C1972 1.389 . S
C1971 H1950 0.950 . S
C1971 C1970 1.373 . S
C1971 C1987 1.377 . S
C1972 C1970 1.389 . S
C1972 C1973 1.524 . S
C1972 C1986 1.377 . S
C1973 C1972 1.524 . S
C1973 C1974 1.397 . S
C1973 C1978 1.363 . S
C1974 H1951 0.950 . S
C1974 C1973 1.397 . S
C1974 C1975 1.334 . S
C1975 H1952 0.950 . S
C1975 C1974 1.334 . S
C1975 C1976 1.287 . S
C1976 C1975 1.287 . S
C1976 C1977 1.524 . S
C1976 H1995 0.913 . S
C1977 H1953 0.950 . S
C1977 C1976 1.524 . S
C1977 C1978 1.415 . S
C1978 H1954 0.950 . S
C1978 C1973 1.363 . S
C1978 C1977 1.415 . S
C1979 H1955 0.951 . S
C1979 C1980 1.366 . S
C1979 C1981 1.388 . S
C1980 C1979 1.366 . S
C1980 C1984 1.385 . S
C1981 H1956 0.951 . S
C1981 C1979 1.388 . S
C1981 C1982 1.366 . S
C1982 C1981 1.366 . S
C1982 C1983 1.414 . S
C1982 C1985 1.499 . S
C1983 H1957 0.950 . S
C1983 C1982 1.414 . S
C1983 C1984 1.374 . S
C1984 H1958 0.950 . S
C1984 C1980 1.385 . S
C1984 C1983 1.374 . S
C1985 C1982 1.499 . S
C1985 C1986 1.373 . S
C1985 C1987 1.389 . S
C1986 H1959 0.950 . S
C1986 C1972 1.377 . S
C1986 C1985 1.373 . S
C1987 C1971 1.377 . S
C1987 C1985 1.389 . S
C1987 C1988 1.524 . S
C1988 C1987 1.524 . S
C1988 C1989 1.397 . S
C1988 C1993 1.363 . S
C1989 H1960 0.950 . S
C1989 C1988 1.397 . S
C1989 C1990 1.334 . S
C1990 H1961 0.950 . S
C1990 C1989 1.334 . S
C1990 C1991 1.287 . S
C1991 C1990 1.287 . S
C1991 C1992 1.524 . S
C1991 H1994 0.999 . S
C1992 H1962 0.950 . S
C1992 C1991 1.524 . S
C1992 C1993 1.415 . S
C1993 H1963 0.950 . S
C1993 C1988 1.363 . S
C1993 C1992 1.415 . S
H1994 C1991 0.999 . S
H1995 C1976 0.913 . S
H1996 C2014 0.951 . S
H1997 C2016 0.951 . S
H1998 C2018 0.950 . S
H1999 C2019 0.950 . S
H2000 C2021 0.950 . S
H2001 C2024 0.950 . S
H2002 C2025 0.950 . S
H2003 C2027 0.970 . S
H2004 C2028 0.950 . S
H2005 C2029 0.951 . S
H2006 C2031 0.951 . S
H2007 C2033 0.950 . S
H2008 C2034 0.950 . S
H2009 C2036 0.950 . S
H2010 C2039 0.950 . S
H2011 C2040 0.950 . S
H2012 C2042 0.950 . S
H2013 C2043 0.950 . S
C2014 H1996 0.951 . S
C2014 C2015 1.366 . S
C2014 C2016 1.388 . S
C2015 C2014 1.366 . S
C2015 C2019 1.385 . S
C2016 H1997 0.951 . S
C2016 C2014 1.388 . S
C2016 C2017 1.366 . S
C2017 C2016 1.366 . S
C2017 C2018 1.414 . S
C2017 C2020 1.499 . S
C2018 H1998 0.950 . S
C2018 C2017 1.414 . S
C2018 C2019 1.374 . S
C2019 H1999 0.950 . S
C2019 C2015 1.385 . S
C2019 C2018 1.374 . S
C2020 C2017 1.499 . S
C2020 C2021 1.373 . S
C2020 C2022 1.389 . S
C2021 H2000 0.950 . S
C2021 C2020 1.373 . S
C2021 C2037 1.377 . S
C2022 C2020 1.389 . S
C2022 C2023 1.524 . S
C2022 C2036 1.377 . S
C2023 C2022 1.524 . S
C2023 C2024 1.397 . S
C2023 C2028 1.363 . S
C2024 H2001 0.950 . S
C2024 C2023 1.397 . S
C2024 C2025 1.334 . S
C2025 H2002 0.950 . S
C2025 C2024 1.334 . S
C2025 C2026 1.287 . S
C2026 C2025 1.287 . S
C2026 C2027 1.524 . S
C2026 H2045 0.913 . S
C2027 H2003 0.970 . S
C2027 C2026 1.524 . S
C2027 C2028 1.415 . S
C2028 H2004 0.950 . S
C2028 C2023 1.363 . S
C2028 C2027 1.415 . S
C2029 H2005 0.951 . S
C2029 C2030 1.366 . S
C2029 C2031 1.388 . S
C2030 C2029 1.366 . S
C2030 C2034 1.385 . S
C2031 H2006 0.951 . S
C2031 C2029 1.388 . S
C2031 C2032 1.366 . S
C2032 C2031 1.366 . S
C2032 C2033 1.414 . S
C2032 C2035 1.499 . S
C2033 H2007 0.950 . S
C2033 C2032 1.414 . S
C2033 C2034 1.374 . S
C2034 H2008 0.950 . S
C2034 C2030 1.385 . S
C2034 C2033 1.374 . S
C2035 C2032 1.499 . S
C2035 C2036 1.373 . S
C2035 C2037 1.389 . S
C2036 H2009 0.950 . S
C2036 C2022 1.377 . S
C2036 C2035 1.373 . S
C2037 C2021 1.377 . S
C2037 C2035 1.389 . S
C2037 C2038 1.524 . S
C2038 C2037 1.524 . S
C2038 C2039 1.397 . S
C2038 C2043 1.363 . S
C2039 H2010 0.950 . S
C2039 C2038 1.397 . S
C2039 C2040 1.334 . S
C2040 H2011 0.950 . S
C2040 C2039 1.334 . S
C2040 C2041 1.287 . S
C2041 C2040 1.287 . S
C2041 C2042 1.524 . S
C2041 H2044 0.999 . S
C2042 H2012 0.950 . S
C2042 C2041 1.524 . S
C2042 C2043 1.415 . S
C2043 H2013 0.950 . S
C2043 C2038 1.363 . S
C2043 C2042 1.415 . S
H2044 C2041 0.999 . S
H2045 C2026 0.913 . S
H2046 C2064 0.951 . S
H2047 C2066 0.951 . S
H2048 C2068 0.950 . S
H2049 C2069 0.950 . S
H2050 C2071 0.950 . S
H2051 C2074 0.950 . S
H2052 C2075 0.950 . S
H2053 C2077 0.950 . S
H2054 C2078 0.950 . S
H2055 C2079 0.951 . S
H2056 C2081 0.951 . S
H2057 C2083 0.950 . S
H2058 C2084 0.950 . S
H2059 C2086 0.950 . S
H2060 C2089 0.950 . S
H2061 C2090 0.950 . S
H2062 C2092 0.950 . S
H2063 C2093 0.950 . S
C2064 H2046 0.951 . S
C2064 C2065 1.366 . S
C2064 C2066 1.388 . S
C2065 C2064 1.366 . S
C2065 C2069 1.385 . S
C2066 H2047 0.951 . S
C2066 C2064 1.388 . S
C2066 C2067 1.366 . S
C2067 C2066 1.366 . S
C2067 C2068 1.414 . S
C2067 C2070 1.499 . S
C2068 H2048 0.950 . S
C2068 C2067 1.414 . S
C2068 C2069 1.374 . S
C2069 H2049 0.950 . S
C2069 C2065 1.385 . S
C2069 C2068 1.374 . S
C2070 C2067 1.499 . S
C2070 C2071 1.373 . S
C2070 C2072 1.389 . S
C2071 H2050 0.950 . S
C2071 C2070 1.373 . S
C2071 C2087 1.377 . S
C2072 C2070 1.389 . S
C2072 C2073 1.524 . S
C2072 C2086 1.377 . S
C2073 C2072 1.524 . S
C2073 C2074 1.397 . S
C2073 C2078 1.363 . S
C2074 H2051 0.950 . S
C2074 C2073 1.397 . S
C2074 C2075 1.334 . S
C2075 H2052 0.950 . S
C2075 C2074 1.334 . S
C2075 C2076 1.287 . S
C2076 C2075 1.287 . S
C2076 C2077 1.524 . S
C2076 H2095 0.913 . S
C2077 H2053 0.950 . S
C2077 C2076 1.524 . S
C2077 C2078 1.415 . S
C2078 H2054 0.950 . S
C2078 C2073 1.363 . S
C2078 C2077 1.415 . S
C2079 H2055 0.951 . S
C2079 C2080 1.366 . S
C2079 C2081 1.388 . S
C2080 C2079 1.366 . S
C2080 C2084 1.385 . S
C2081 H2056 0.951 . S
C2081 C2079 1.388 . S
C2081 C2082 1.366 . S
C2082 C2081 1.366 . S
C2082 C2083 1.414 . S
C2082 C2085 1.499 . S
C2083 H2057 0.950 . S
C2083 C2082 1.414 . S
C2083 C2084 1.374 . S
C2084 H2058 0.950 . S
C2084 C2080 1.385 . S
C2084 C2083 1.374 . S
C2085 C2082 1.499 . S
C2085 C2086 1.373 . S
C2085 C2087 1.389 . S
C2086 H2059 0.950 . S
C2086 C2072 1.377 . S
C2086 C2085 1.373 . S
C2087 C2071 1.377 . S
C2087 C2085 1.389 . S
C2087 C2088 1.524 . S
C2088 C2087 1.524 . S
C2088 C2089 1.397 . S
C2088 C2093 1.363 . S
C2089 H2060 0.950 . S
C2089 C2088 1.397 . S
C2089 C2090 1.334 . S
C2090 H2061 0.950 . S
C2090 C2089 1.334 . S
C2090 C2091 1.287 . S
C2091 C2090 1.287 . S
C2091 C2092 1.524 . S
C2091 H2094 0.999 . S
C2092 H2062 0.950 . S
C2092 C2091 1.524 . S
C2092 C2093 1.415 . S
C2093 H2063 0.950 . S
C2093 C2088 1.363 . S
C2093 C2092 1.415 . S
H2094 C2091 0.999 . S
H2095 C2076 0.913 . S
H2096 C2114 0.951 . S
H2097 C2116 0.951 . S
H2098 C2118 0.950 . S
H2099 C2119 0.950 . S
H2100 C2121 0.950 . S
H2101 C2124 0.950 . S
H2102 C2125 0.950 . S
H2103 C2127 0.950 . S
H2104 C2128 0.950 . S
H2105 C2129 0.951 . S
H2106 C2131 0.951 . S
H2107 C2133 0.950 . S
H2108 C2134 0.950 . S
H2109 C2136 0.950 . S
H2110 C2139 0.950 . S
H2111 C2140 0.950 . S
H2112 C2142 0.950 . S
H2113 C2143 0.950 . S
C2114 H2096 0.951 . S
C2114 C2115 1.366 . S
C2114 C2116 1.388 . S
C2115 C2114 1.366 . S
C2115 C2119 1.385 . S
C2116 H2097 0.951 . S
C2116 C2114 1.388 . S
C2116 C2117 1.366 . S
C2117 C2116 1.366 . S
C2117 C2118 1.414 . S
C2117 C2120 1.499 . S
C2118 H2098 0.950 . S
C2118 C2117 1.414 . S
C2118 C2119 1.374 . S
C2119 H2099 0.950 . S
C2119 C2115 1.385 . S
C2119 C2118 1.374 . S
C2120 C2117 1.499 . S
C2120 C2121 1.373 . S
C2120 C2122 1.389 . S
C2121 H2100 0.950 . S
C2121 C2120 1.373 . S
C2121 C2137 1.377 . S
C2122 C2120 1.389 . S
C2122 C2123 1.524 . S
C2122 C2136 1.377 . S
C2123 C2122 1.524 . S
C2123 C2124 1.397 . S
C2123 C2128 1.363 . S
C2124 H2101 0.950 . S
C2124 C2123 1.397 . S
C2124 C2125 1.334 . S
C2125 H2102 0.950 . S
C2125 C2124 1.334 . S
C2125 C2126 1.287 . S
C2126 C2125 1.287 . S
C2126 C2127 1.524 . S
C2126 H2145 0.913 . S
C2127 H2103 0.950 . S
C2127 C2126 1.524 . S
C2127 C2128 1.415 . S
C2128 H2104 0.950 . S
C2128 C2123 1.363 . S
C2128 C2127 1.415 . S
C2129 H2105 0.951 . S
C2129 C2130 1.366 . S
C2129 C2131 1.388 . S
C2130 C2129 1.366 . S
C2130 C2134 1.385 . S
C2131 H2106 0.951 . S
C2131 C2129 1.388 . S
C2131 C2132 1.366 . S
C2132 C2131 1.366 . S
C2132 C2133 1.414 . S
C2132 C2135 1.499 . S
C2133 H2107 0.950 . S
C2133 C2132 1.414 . S
C2133 C2134 1.374 . S
C2134 H2108 0.950 . S
C2134 C2130 1.385 . S
C2134 C2133 1.374 . S
C2135 C2132 1.499 . S
C2135 C2136 1.373 . S
C2135 C2137 1.389 . S
C2136 H2109 0.950 . S
C2136 C2122 1.377 . S
C2136 C2135 1.373 . S
C2137 C2121 1.377 . S
C2137 C2135 1.389 . S
C2137 C2138 1.524 . S
C2138 C2137 1.524 . S
C2138 C2139 1.397 . S
C2138 C2143 1.363 . S
C2139 H2110 0.950 . S
C2139 C2138 1.397 . S
C2139 C2140 1.334 . S
C2140 H2111 0.950 . S
C2140 C2139 1.334 . S
C2140 C2141 1.287 . S
C2141 C2140 1.287 . S
C2141 C2142 1.524 . S
C2141 H2144 0.999 . S
C2142 H2112 0.950 . S
C2142 C2141 1.524 . S
C2142 C2143 1.415 . S
C2143 H2113 0.950 . S
C2143 C2138 1.363 . S
C2143 C2142 1.415 . S
H2144 C2141 0.999 . S
H2145 C2126 0.913 . S
H2146 C2164 0.951 . S
H2147 C2166 0.951 . S
H2148 C2168 0.950 . S
H2149 C2169 0.950 . S
H2150 C2171 0.950 . S
H2151 C2174 0.950 . S
H2152 C2175 0.950 . S
H2153 C2177 0.950 . S
H2154 C2178 0.950 . S
H2155 C2179 0.951 . S
H2156 C2181 0.951 . S
H2157 C2183 0.950 . S
H2158 C2184 0.950 . S
H2159 C2186 0.950 . S
H2160 C2189 0.950 . S
H2161 C2190 0.950 1_556 S
H2162 C2192 0.950 . S
H2163 C2193 0.950 . S
C2164 H2146 0.951 . S
C2164 C2165 1.366 . S
C2164 C2166 1.388 . S
C2165 C2164 1.366 . S
C2165 C2169 1.385 . S
C2166 H2147 0.951 . S
C2166 C2164 1.388 . S
C2166 C2167 1.366 . S
C2167 C2166 1.366 . S
C2167 C2168 1.414 . S
C2167 C2170 1.499 . S
C2168 H2148 0.950 . S
C2168 C2167 1.414 . S
C2168 C2169 1.374 . S
C2169 H2149 0.950 . S
C2169 C2165 1.385 . S
C2169 C2168 1.374 . S
C2170 C2167 1.499 . S
C2170 C2171 1.373 . S
C2170 C2172 1.389 . S
C2171 H2150 0.950 . S
C2171 C2170 1.373 . S
C2171 C2187 1.377 . S
C2172 C2170 1.389 . S
C2172 C2173 1.524 . S
C2172 C2186 1.377 . S
C2173 C2172 1.524 . S
C2173 C2174 1.397 . S
C2173 C2178 1.363 . S
C2174 H2151 0.950 . S
C2174 C2173 1.397 . S
C2174 C2175 1.334 . S
C2175 H2152 0.950 . S
C2175 C2174 1.334 . S
C2175 C2176 1.287 . S
C2176 C2175 1.287 . S
C2176 C2177 1.524 . S
C2176 H2195 0.913 . S
C2177 H2153 0.950 . S
C2177 C2176 1.524 . S
C2177 C2178 1.415 . S
C2178 H2154 0.950 . S
C2178 C2173 1.363 . S
C2178 C2177 1.415 . S
C2179 H2155 0.951 . S
C2179 C2180 1.366 . S
C2179 C2181 1.388 . S
C2180 C2179 1.366 . S
C2180 C2184 1.385 . S
C2181 H2156 0.951 . S
C2181 C2179 1.388 . S
C2181 C2182 1.366 . S
C2182 C2181 1.366 . S
C2182 C2183 1.414 . S
C2182 C2185 1.499 . S
C2183 H2157 0.950 . S
C2183 C2182 1.414 . S
C2183 C2184 1.374 . S
C2184 H2158 0.950 . S
C2184 C2180 1.385 . S
C2184 C2183 1.374 . S
C2185 C2182 1.499 . S
C2185 C2186 1.373 . S
C2185 C2187 1.389 . S
C2186 H2159 0.950 . S
C2186 C2172 1.377 . S
C2186 C2185 1.373 . S
C2187 C2171 1.377 . S
C2187 C2185 1.389 . S
C2187 C2188 1.524 . S
C2188 C2187 1.524 . S
C2188 C2189 1.397 . S
C2188 C2193 1.363 . S
C2189 H2160 0.950 . S
C2189 C2188 1.397 . S
C2189 C2190 1.334 . S
C2190 H2161 0.950 1_554 S
C2190 C2189 1.334 . S
C2190 C2191 1.287 . S
C2191 C2190 1.287 . S
C2191 C2192 1.524 . S
C2191 H2194 0.999 1_554 S
C2192 H2162 0.950 . S
C2192 C2191 1.524 . S
C2192 C2193 1.415 . S
C2193 H2163 0.950 . S
C2193 C2188 1.363 . S
C2193 C2192 1.415 . S
H2194 C2191 0.999 1_556 S
H2195 C2176 0.913 . S
H2196 C2214 0.951 . S
H2197 C2216 0.951 . S
H2198 C2218 0.950 . S
H2199 C2219 0.950 . S
H2200 C2221 0.950 . S
H2201 C2224 0.950 . S
H2202 C2225 0.950 . S
H2203 C2227 0.950 . S
H2204 C2228 0.950 . S
H2205 C2229 0.951 . S
H2206 C2231 0.951 . S
H2207 C2233 0.950 . S
H2208 C2234 0.950 . S
H2209 C2236 0.950 . S
H2210 C2239 0.950 . S
H2211 C2240 0.950 . S
H2212 C2242 0.950 . S
H2213 C2243 0.950 . S
C2214 H2196 0.951 . S
C2214 C2215 1.366 . S
C2214 C2216 1.388 . S
C2215 C2214 1.366 . S
C2215 C2219 1.385 . S
C2216 H2197 0.951 . S
C2216 C2214 1.388 . S
C2216 C2217 1.366 . S
C2217 C2216 1.366 . S
C2217 C2218 1.414 . S
C2217 C2220 1.499 . S
C2218 H2198 0.950 . S
C2218 C2217 1.414 . S
C2218 C2219 1.374 . S
C2219 H2199 0.950 . S
C2219 C2215 1.385 . S
C2219 C2218 1.374 . S
C2220 C2217 1.499 . S
C2220 C2221 1.373 . S
C2220 C2222 1.389 . S
C2221 H2200 0.950 . S
C2221 C2220 1.373 . S
C2221 C2237 1.377 . S
C2222 C2220 1.389 . S
C2222 C2223 1.524 . S
C2222 C2236 1.377 . S
C2223 C2222 1.524 . S
C2223 C2224 1.397 . S
C2223 C2228 1.363 . S
C2224 H2201 0.950 . S
C2224 C2223 1.397 . S
C2224 C2225 1.334 . S
C2225 H2202 0.950 . S
C2225 C2224 1.334 . S
C2225 C2226 1.287 . S
C2226 C2225 1.287 . S
C2226 C2227 1.524 . S
C2226 H2245 0.913 . S
C2227 H2203 0.950 . S
C2227 C2226 1.524 . S
C2227 C2228 1.415 . S
C2228 H2204 0.950 . S
C2228 C2223 1.363 . S
C2228 C2227 1.415 . S
C2229 H2205 0.951 . S
C2229 C2230 1.366 . S
C2229 C2231 1.388 . S
C2230 C2229 1.366 . S
C2230 C2234 1.385 . S
C2231 H2206 0.951 . S
C2231 C2229 1.388 . S
C2231 C2232 1.366 . S
C2232 C2231 1.366 . S
C2232 C2233 1.414 . S
C2232 C2235 1.499 . S
C2233 H2207 0.950 . S
C2233 C2232 1.414 . S
C2233 C2234 1.374 . S
C2234 H2208 0.950 . S
C2234 C2230 1.385 . S
C2234 C2233 1.374 . S
C2235 C2232 1.499 . S
C2235 C2236 1.373 . S
C2235 C2237 1.389 . S
C2236 H2209 0.950 . S
C2236 C2222 1.377 . S
C2236 C2235 1.373 . S
C2237 C2221 1.377 . S
C2237 C2235 1.389 . S
C2237 C2238 1.524 . S
C2238 C2237 1.524 . S
C2238 C2239 1.397 . S
C2238 C2243 1.363 . S
C2239 H2210 0.950 . S
C2239 C2238 1.397 . S
C2239 C2240 1.334 . S
C2240 H2211 0.950 . S
C2240 C2239 1.334 . S
C2240 C2241 1.287 . S
C2241 C2240 1.287 . S
C2241 C2242 1.524 . S
C2241 H2244 0.999 . S
C2242 H2212 0.950 . S
C2242 C2241 1.524 . S
C2242 C2243 1.415 . S
C2243 H2213 0.950 . S
C2243 C2238 1.363 . S
C2243 C2242 1.415 . S
H2244 C2241 0.999 . S
H2245 C2226 0.913 . S
H2246 C2264 0.951 . S
H2247 C2266 0.951 . S
H2248 C2268 0.950 . S
H2249 C2269 0.950 . S
H2250 C2271 0.950 . S
H2251 C2274 0.950 . S
H2252 C2275 0.950 . S
H2253 C2277 0.950 . S
H2254 C2278 0.950 . S
H2255 C2279 0.951 . S
H2256 C2281 0.951 . S
H2257 C2283 0.950 . S
H2258 C2284 0.950 1_554 S
H2259 C2286 0.950 . S
H2260 C2289 0.950 . S
H2261 C2290 0.950 . S
H2262 C2292 0.950 . S
H2263 C2293 0.950 . S
C2264 H2246 0.951 . S
C2264 C2265 1.366 . S
C2264 C2266 1.388 . S
C2265 C2264 1.366 . S
C2265 C2269 1.385 . S
C2266 H2247 0.951 . S
C2266 C2264 1.388 . S
C2266 C2267 1.366 . S
C2267 C2266 1.366 . S
C2267 C2268 1.414 . S
C2267 C2270 1.499 . S
C2268 H2248 0.950 . S
C2268 C2267 1.414 . S
C2268 C2269 1.374 . S
C2269 H2249 0.950 . S
C2269 C2265 1.385 . S
C2269 C2268 1.374 . S
C2270 C2267 1.499 . S
C2270 C2271 1.373 . S
C2270 C2272 1.389 . S
C2271 H2250 0.950 . S
C2271 C2270 1.373 . S
C2271 C2287 1.377 . S
C2272 C2270 1.389 . S
C2272 C2273 1.524 . S
C2272 C2286 1.377 . S
C2273 C2272 1.524 . S
C2273 C2274 1.397 . S
C2273 C2278 1.363 . S
C2274 H2251 0.950 . S
C2274 C2273 1.397 . S
C2274 C2275 1.334 . S
C2275 H2252 0.950 . S
C2275 C2274 1.334 . S
C2275 C2276 1.287 . S
C2276 C2275 1.287 . S
C2276 C2277 1.524 . S
C2276 H2295 0.913 . S
C2277 H2253 0.950 . S
C2277 C2276 1.524 . S
C2277 C2278 1.415 . S
C2278 H2254 0.950 . S
C2278 C2273 1.363 . S
C2278 C2277 1.415 . S
C2279 H2255 0.951 . S
C2279 C2280 1.366 . S
C2279 C2281 1.388 . S
C2280 C2279 1.366 . S
C2280 C2284 1.385 . S
C2281 H2256 0.951 . S
C2281 C2279 1.388 . S
C2281 C2282 1.366 . S
C2282 C2281 1.366 . S
C2282 C2283 1.414 . S
C2282 C2285 1.499 . S
C2283 H2257 0.950 . S
C2283 C2282 1.414 . S
C2283 C2284 1.374 . S
C2284 H2258 0.950 1_556 S
C2284 C2280 1.385 . S
C2284 C2283 1.374 . S
C2285 C2282 1.499 . S
C2285 C2286 1.373 . S
C2285 C2287 1.389 . S
C2286 H2259 0.950 . S
C2286 C2272 1.377 . S
C2286 C2285 1.373 . S
C2287 C2271 1.377 . S
C2287 C2285 1.389 . S
C2287 C2288 1.524 . S
C2288 C2287 1.524 . S
C2288 C2289 1.397 . S
C2288 C2293 1.363 . S
C2289 H2260 0.950 . S
C2289 C2288 1.397 . S
C2289 C2290 1.334 . S
C2290 H2261 0.950 . S
C2290 C2289 1.334 . S
C2290 C2291 1.287 . S
C2291 C2290 1.287 . S
C2291 C2292 1.524 . S
C2291 H2294 0.999 . S
C2292 H2262 0.950 . S
C2292 C2291 1.524 . S
C2292 C2293 1.415 . S
C2293 H2263 0.950 . S
C2293 C2288 1.363 . S
C2293 C2292 1.415 . S
H2294 C2291 0.999 . S
H2295 C2276 0.913 . S
H2296 C2314 0.951 . S
H2297 C2316 0.951 . S
H2298 C2318 0.950 . S
H2299 C2319 0.950 . S
H2300 C2321 0.950 . S
H2301 C2324 0.950 . S
H2302 C2325 0.950 . S
H2303 C2327 0.950 . S
H2304 C2328 0.950 . S
H2305 C2329 0.951 . S
H2306 C2331 0.951 . S
H2307 C2333 0.950 . S
H2308 C2334 0.950 . S
H2309 C2336 0.950 . S
H2310 C2339 0.950 . S
H2311 C2340 0.950 . S
H2312 C2342 0.950 . S
H2313 C2343 0.950 . S
C2314 H2296 0.951 . S
C2314 C2315 1.366 . S
C2314 C2316 1.388 . S
C2315 C2314 1.366 . S
C2315 C2319 1.385 . S
C2316 H2297 0.951 . S
C2316 C2314 1.388 . S
C2316 C2317 1.366 . S
C2317 C2316 1.366 . S
C2317 C2318 1.414 . S
C2317 C2320 1.499 . S
C2318 H2298 0.950 . S
C2318 C2317 1.414 . S
C2318 C2319 1.374 . S
C2319 H2299 0.950 . S
C2319 C2315 1.385 . S
C2319 C2318 1.374 . S
C2320 C2317 1.499 . S
C2320 C2321 1.373 . S
C2320 C2322 1.389 . S
C2321 H2300 0.950 . S
C2321 C2320 1.373 . S
C2321 C2337 1.377 . S
C2322 C2320 1.389 . S
C2322 C2323 1.524 . S
C2322 C2336 1.377 . S
C2323 C2322 1.524 . S
C2323 C2324 1.397 . S
C2323 C2328 1.363 . S
C2324 H2301 0.950 . S
C2324 C2323 1.397 . S
C2324 C2325 1.334 . S
C2325 H2302 0.950 . S
C2325 C2324 1.334 . S
C2325 C2326 1.287 . S
C2326 C2325 1.287 . S
C2326 C2327 1.524 . S
C2326 H2345 0.913 . S
C2327 H2303 0.950 . S
C2327 C2326 1.524 . S
C2327 C2328 1.415 . S
C2328 H2304 0.950 . S
C2328 C2323 1.363 . S
C2328 C2327 1.415 . S
C2329 H2305 0.951 . S
C2329 C2330 1.366 . S
C2329 C2331 1.388 . S
C2330 C2329 1.366 . S
C2330 C2334 1.385 . S
C2331 H2306 0.951 . S
C2331 C2329 1.388 . S
C2331 C2332 1.366 . S
C2332 C2331 1.366 . S
C2332 C2333 1.414 . S
C2332 C2335 1.499 . S
C2333 H2307 0.950 . S
C2333 C2332 1.414 . S
C2333 C2334 1.374 . S
C2334 H2308 0.950 . S
C2334 C2330 1.385 . S
C2334 C2333 1.374 . S
C2335 C2332 1.499 . S
C2335 C2336 1.373 . S
C2335 C2337 1.389 . S
C2336 H2309 0.950 . S
C2336 C2322 1.377 . S
C2336 C2335 1.373 . S
C2337 C2321 1.377 . S
C2337 C2335 1.389 . S
C2337 C2338 1.524 . S
C2338 C2337 1.524 . S
C2338 C2339 1.397 . S
C2338 C2343 1.363 . S
C2339 H2310 0.950 . S
C2339 C2338 1.397 . S
C2339 C2340 1.334 . S
C2340 H2311 0.950 . S
C2340 C2339 1.334 . S
C2340 C2341 1.287 . S
C2341 C2340 1.287 . S
C2341 C2342 1.524 . S
C2341 H2344 0.999 . S
C2342 H2312 0.950 . S
C2342 C2341 1.524 . S
C2342 C2343 1.415 . S
C2343 H2313 0.950 . S
C2343 C2338 1.363 . S
C2343 C2342 1.415 . S
H2344 C2341 0.999 . S
H2345 C2326 0.913 . S
H2346 C2364 0.951 . S
H2347 C2366 0.951 . S
H2348 C2368 0.950 . S
H2349 C2369 0.950 . S
H2350 C2371 0.950 . S
H2351 C2374 0.950 . S
H2352 C2375 0.950 . S
H2353 C2377 0.950 . S
H2354 C2378 0.950 . S
H2355 C2379 0.951 . S
H2356 C2381 0.951 . S
H2357 C2383 0.950 . S
H2358 C2384 0.950 . S
H2359 C2386 0.950 . S
H2360 C2389 0.950 . S
H2361 C2390 0.950 1_554 S
H2362 C2392 0.950 . S
H2363 C2393 0.950 . S
C2364 H2346 0.951 . S
C2364 C2365 1.366 . S
C2364 C2366 1.388 . S
C2365 C2364 1.366 . S
C2365 C2369 1.385 . S
C2366 H2347 0.951 . S
C2366 C2364 1.388 . S
C2366 C2367 1.366 . S
C2367 C2366 1.366 . S
C2367 C2368 1.414 . S
C2367 C2370 1.499 . S
C2368 H2348 0.950 . S
C2368 C2367 1.414 . S
C2368 C2369 1.374 . S
C2369 H2349 0.950 . S
C2369 C2365 1.385 . S
C2369 C2368 1.374 . S
C2370 C2367 1.499 . S
C2370 C2371 1.373 . S
C2370 C2372 1.389 . S
C2371 H2350 0.950 . S
C2371 C2370 1.373 . S
C2371 C2387 1.377 . S
C2372 C2370 1.389 . S
C2372 C2373 1.524 . S
C2372 C2386 1.377 . S
C2373 C2372 1.524 . S
C2373 C2374 1.397 . S
C2373 C2378 1.363 . S
C2374 H2351 0.950 . S
C2374 C2373 1.397 . S
C2374 C2375 1.334 . S
C2375 H2352 0.950 . S
C2375 C2374 1.334 . S
C2375 C2376 1.287 . S
C2376 C2375 1.287 . S
C2376 C2377 1.524 . S
C2376 H2395 0.913 . S
C2377 H2353 0.950 . S
C2377 C2376 1.524 . S
C2377 C2378 1.415 . S
C2378 H2354 0.950 . S
C2378 C2373 1.363 . S
C2378 C2377 1.415 . S
C2379 H2355 0.951 . S
C2379 C2380 1.366 . S
C2379 C2381 1.388 . S
C2380 C2379 1.366 . S
C2380 C2384 1.385 . S
C2381 H2356 0.951 . S
C2381 C2379 1.388 . S
C2381 C2382 1.366 . S
C2382 C2381 1.366 . S
C2382 C2383 1.414 . S
C2382 C2385 1.499 . S
C2383 H2357 0.950 . S
C2383 C2382 1.414 . S
C2383 C2384 1.374 . S
C2384 H2358 0.950 . S
C2384 C2380 1.385 . S
C2384 C2383 1.374 . S
C2385 C2382 1.499 . S
C2385 C2386 1.373 . S
C2385 C2387 1.389 . S
C2386 H2359 0.950 . S
C2386 C2372 1.377 . S
C2386 C2385 1.373 . S
C2387 C2371 1.377 . S
C2387 C2385 1.389 . S
C2387 C2388 1.524 . S
C2388 C2387 1.524 . S
C2388 C2389 1.397 . S
C2388 C2393 1.363 . S
C2389 H2360 0.950 . S
C2389 C2388 1.397 . S
C2389 C2390 1.334 . S
C2390 H2361 0.950 1_556 S
C2390 C2389 1.334 . S
C2390 C2391 1.287 . S
C2391 C2390 1.287 . S
C2391 C2392 1.524 . S
C2391 H2394 0.999 . S
C2392 H2362 0.950 . S
C2392 C2391 1.524 . S
C2392 C2393 1.415 . S
C2393 H2363 0.950 . S
C2393 C2388 1.363 . S
C2393 C2392 1.415 . S
H2394 C2391 0.999 . S
H2395 C2376 0.913 . S
H2396 C2414 0.951 . S
H2397 C2416 0.951 . S
H2398 C2418 0.950 . S
H2399 C2419 0.950 . S
H2400 C2421 0.950 . S
H2401 C2424 0.950 . S
H2402 C2425 0.950 . S
H2403 C2427 0.950 . S
H2404 C2428 0.950 . S
H2405 C2429 0.951 . S
H2406 C2431 0.951 . S
H2407 C2433 0.950 . S
H2408 C2434 0.950 . S
H2409 C2436 0.950 . S
H2410 C2439 0.950 . S
H2411 C2440 0.950 1_556 S
H2412 C2442 0.950 . S
H2413 C2443 0.950 . S
C2414 H2396 0.951 . S
C2414 C2415 1.366 . S
C2414 C2416 1.388 . S
C2415 C2414 1.366 . S
C2415 C2419 1.385 . S
C2416 H2397 0.951 . S
C2416 C2414 1.388 . S
C2416 C2417 1.366 . S
C2417 C2416 1.366 . S
C2417 C2418 1.414 . S
C2417 C2420 1.499 . S
C2418 H2398 0.950 . S
C2418 C2417 1.414 . S
C2418 C2419 1.374 . S
C2419 H2399 0.950 . S
C2419 C2415 1.385 . S
C2419 C2418 1.374 . S
C2420 C2417 1.499 . S
C2420 C2421 1.373 . S
C2420 C2422 1.389 . S
C2421 H2400 0.950 . S
C2421 C2420 1.373 . S
C2421 C2437 1.377 . S
C2422 C2420 1.389 . S
C2422 C2423 1.524 . S
C2422 C2436 1.377 . S
C2423 C2422 1.524 . S
C2423 C2424 1.397 . S
C2423 C2428 1.363 . S
C2424 H2401 0.950 . S
C2424 C2423 1.397 . S
C2424 C2425 1.334 . S
C2425 H2402 0.950 . S
C2425 C2424 1.334 . S
C2425 C2426 1.287 . S
C2426 C2425 1.287 . S
C2426 C2427 1.524 . S
C2426 H2445 0.913 . S
C2427 H2403 0.950 . S
C2427 C2426 1.524 . S
C2427 C2428 1.415 . S
C2428 H2404 0.950 . S
C2428 C2423 1.363 . S
C2428 C2427 1.415 . S
C2429 H2405 0.951 . S
C2429 C2430 1.366 . S
C2429 C2431 1.388 . S
C2430 C2429 1.366 . S
C2430 C2434 1.385 . S
C2431 H2406 0.951 . S
C2431 C2429 1.388 . S
C2431 C2432 1.366 . S
C2432 C2431 1.366 . S
C2432 C2433 1.414 . S
C2432 C2435 1.499 . S
C2433 H2407 0.950 . S
C2433 C2432 1.414 . S
C2433 C2434 1.374 . S
C2434 H2408 0.950 . S
C2434 C2430 1.385 . S
C2434 C2433 1.374 . S
C2435 C2432 1.499 . S
C2435 C2436 1.373 . S
C2435 C2437 1.389 . S
C2436 H2409 0.950 . S
C2436 C2422 1.377 . S
C2436 C2435 1.373 . S
C2437 C2421 1.377 . S
C2437 C2435 1.389 . S
C2437 C2438 1.524 . S
C2438 C2437 1.524 . S
C2438 C2439 1.397 . S
C2438 C2443 1.363 . S
C2439 H2410 0.950 . S
C2439 C2438 1.397 . S
C2439 C2440 1.334 . S
C2440 H2411 0.950 1_554 S
C2440 C2439 1.334 . S
C2440 C2441 1.287 . S
C2441 C2440 1.287 . S
C2441 C2442 1.524 . S
C2441 H2444 0.999 . S
C2442 H2412 0.950 . S
C2442 C2441 1.524 . S
C2442 C2443 1.415 . S
C2443 H2413 0.950 . S
C2443 C2438 1.363 . S
C2443 C2442 1.415 . S
H2444 C2441 0.999 . S
H2445 C2426 0.913 . S
H2446 C2464 0.951 . S
H2447 C2466 0.951 . S
H2448 C2468 0.950 . S
H2449 C2469 0.950 . S
H2450 C2471 0.950 . S
H2451 C2474 0.950 . S
H2452 C2475 0.950 . S
H2453 C2477 0.950 . S
H2454 C2478 0.950 . S
H2455 C2479 0.951 . S
H2456 C2481 0.951 . S
H2457 C2483 0.950 . S
H2458 C2484 0.950 . S
H2459 C2486 0.950 . S
H2460 C2489 0.950 . S
H2461 C2490 0.950 . S
H2462 C2492 0.950 . S
H2463 C2493 0.950 . S
C2464 H2446 0.951 . S
C2464 C2465 1.366 . S
C2464 C2466 1.388 . S
C2465 C2464 1.366 . S
C2465 C2469 1.385 . S
C2466 H2447 0.951 . S
C2466 C2464 1.388 . S
C2466 C2467 1.366 . S
C2467 C2466 1.366 . S
C2467 C2468 1.414 . S
C2467 C2470 1.499 . S
C2468 H2448 0.950 . S
C2468 C2467 1.414 . S
C2468 C2469 1.374 . S
C2469 H2449 0.950 . S
C2469 C2465 1.385 . S
C2469 C2468 1.374 . S
C2470 C2467 1.499 . S
C2470 C2471 1.373 . S
C2470 C2472 1.389 . S
C2471 H2450 0.950 . S
C2471 C2470 1.373 . S
C2471 C2487 1.377 . S
C2472 C2470 1.389 . S
C2472 C2473 1.524 . S
C2472 C2486 1.377 . S
C2473 C2472 1.524 . S
C2473 C2474 1.397 . S
C2473 C2478 1.363 . S
C2474 H2451 0.950 . S
C2474 C2473 1.397 . S
C2474 C2475 1.334 . S
C2475 H2452 0.950 . S
C2475 C2474 1.334 . S
C2475 C2476 1.287 . S
C2476 C2475 1.287 . S
C2476 C2477 1.524 . S
C2476 H2495 0.913 . S
C2477 H2453 0.950 . S
C2477 C2476 1.524 . S
C2477 C2478 1.415 . S
C2478 H2454 0.950 . S
C2478 C2473 1.363 . S
C2478 C2477 1.415 . S
C2479 H2455 0.951 . S
C2479 C2480 1.366 . S
C2479 C2481 1.388 . S
C2480 C2479 1.366 . S
C2480 C2484 1.385 . S
C2481 H2456 0.951 . S
C2481 C2479 1.388 . S
C2481 C2482 1.366 . S
C2482 C2481 1.366 . S
C2482 C2483 1.414 . S
C2482 C2485 1.499 . S
C2483 H2457 0.950 . S
C2483 C2482 1.414 . S
C2483 C2484 1.374 . S
C2484 H2458 0.950 . S
C2484 C2480 1.385 . S
C2484 C2483 1.374 . S
C2485 C2482 1.499 . S
C2485 C2486 1.373 . S
C2485 C2487 1.389 . S
C2486 H2459 0.950 . S
C2486 C2472 1.377 . S
C2486 C2485 1.373 . S
C2487 C2471 1.377 . S
C2487 C2485 1.389 . S
C2487 C2488 1.524 . S
C2488 C2487 1.524 . S
C2488 C2489 1.397 . S
C2488 C2493 1.363 . S
C2489 H2460 0.950 . S
C2489 C2488 1.397 . S
C2489 C2490 1.334 . S
C2490 H2461 0.950 . S
C2490 C2489 1.334 . S
C2490 C2491 1.287 . S
C2491 C2490 1.287 . S
C2491 C2492 1.524 . S
C2491 H2494 0.999 . S
C2492 H2462 0.950 . S
C2492 C2491 1.524 . S
C2492 C2493 1.415 . S
C2493 H2463 0.950 . S
C2493 C2488 1.363 . S
C2493 C2492 1.415 . S
H2494 C2491 0.999 . S
H2495 C2476 0.913 . S
H2496 C2514 0.951 . S
H2497 C2516 0.951 . S
H2498 C2518 0.950 . S
H2499 C2519 0.950 . S
H2500 C2521 0.950 . S
H2501 C2524 0.950 . S
H2502 C2525 0.950 . S
H2503 C2527 0.950 . S
H2504 C2528 0.950 . S
H2505 C2529 0.951 . S
H2506 C2531 0.951 . S
H2507 C2533 0.950 . S
H2508 C2534 0.950 . S
H2509 C2536 0.950 . S
H2510 C2539 0.950 . S
H2511 C2540 0.950 . S
H2512 C2542 0.950 . S
H2513 C2543 0.950 . S
C2514 H2496 0.951 . S
C2514 C2515 1.366 . S
C2514 C2516 1.388 . S
C2515 C2514 1.366 . S
C2515 C2519 1.385 . S
C2516 H2497 0.951 . S
C2516 C2514 1.388 . S
C2516 C2517 1.366 . S
C2517 C2516 1.366 . S
C2517 C2518 1.414 . S
C2517 C2520 1.499 . S
C2518 H2498 0.950 . S
C2518 C2517 1.414 . S
C2518 C2519 1.374 . S
C2519 H2499 0.950 . S
C2519 C2515 1.385 . S
C2519 C2518 1.374 . S
C2520 C2517 1.499 . S
C2520 C2521 1.373 . S
C2520 C2522 1.389 . S
C2521 H2500 0.950 . S
C2521 C2520 1.373 . S
C2521 C2537 1.377 . S
C2522 C2520 1.389 . S
C2522 C2523 1.524 . S
C2522 C2536 1.377 . S
C2523 C2522 1.524 . S
C2523 C2524 1.397 . S
C2523 C2528 1.363 . S
C2524 H2501 0.950 . S
C2524 C2523 1.397 . S
C2524 C2525 1.334 . S
C2525 H2502 0.950 . S
C2525 C2524 1.334 . S
C2525 C2526 1.287 . S
C2526 C2525 1.287 . S
C2526 C2527 1.524 . S
C2526 H2545 0.913 . S
C2527 H2503 0.950 . S
C2527 C2526 1.524 . S
C2527 C2528 1.415 . S
C2528 H2504 0.950 . S
C2528 C2523 1.363 . S
C2528 C2527 1.415 . S
C2529 H2505 0.951 . S
C2529 C2530 1.366 . S
C2529 C2531 1.388 . S
C2530 C2529 1.366 . S
C2530 C2534 1.385 . S
C2531 H2506 0.951 . S
C2531 C2529 1.388 . S
C2531 C2532 1.366 . S
C2532 C2531 1.366 . S
C2532 C2533 1.414 . S
C2532 C2535 1.499 . S
C2533 H2507 0.950 . S
C2533 C2532 1.414 . S
C2533 C2534 1.374 . S
C2534 H2508 0.950 . S
C2534 C2530 1.385 . S
C2534 C2533 1.374 . S
C2535 C2532 1.499 . S
C2535 C2536 1.373 . S
C2535 C2537 1.389 . S
C2536 H2509 0.950 . S
C2536 C2522 1.377 . S
C2536 C2535 1.373 . S
C2537 C2521 1.377 . S
C2537 C2535 1.389 . S
C2537 C2538 1.524 . S
C2538 C2537 1.524 . S
C2538 C2539 1.397 . S
C2538 C2543 1.363 . S
C2539 H2510 0.950 . S
C2539 C2538 1.397 . S
C2539 C2540 1.334 . S
C2540 H2511 0.950 . S
C2540 C2539 1.334 . S
C2540 C2541 1.287 . S
C2541 C2540 1.287 . S
C2541 C2542 1.524 . S
C2541 H2544 0.999 . S
C2542 H2512 0.950 . S
C2542 C2541 1.524 . S
C2542 C2543 1.415 . S
C2543 H2513 0.950 . S
C2543 C2538 1.363 . S
C2543 C2542 1.415 . S
H2544 C2541 0.999 . S
H2545 C2526 0.913 . S
H2546 C2564 0.951 . S
H2547 C2566 0.951 . S
H2548 C2568 0.950 . S
H2549 C2569 0.950 . S
H2550 C2571 0.950 . S
H2551 C2574 0.950 . S
H2552 C2575 0.950 . S
H2553 C2577 0.950 . S
H2554 C2578 0.950 . S
H2555 C2579 0.951 . S
H2556 C2581 0.951 . S
H2557 C2583 0.950 . S
H2558 C2584 0.950 . S
H2559 C2586 0.950 . S
H2560 C2589 0.950 . S
H2561 C2590 0.950 . S
H2562 C2592 0.950 . S
H2563 C2593 0.950 . S
C2564 H2546 0.951 . S
C2564 C2565 1.366 . S
C2564 C2566 1.388 . S
C2565 C2564 1.366 . S
C2565 C2569 1.385 . S
C2566 H2547 0.951 . S
C2566 C2564 1.388 . S
C2566 C2567 1.366 . S
C2567 C2566 1.366 . S
C2567 C2568 1.414 . S
C2567 C2570 1.499 . S
C2568 H2548 0.950 . S
C2568 C2567 1.414 . S
C2568 C2569 1.374 . S
C2569 H2549 0.950 . S
C2569 C2565 1.385 . S
C2569 C2568 1.374 . S
C2570 C2567 1.499 . S
C2570 C2571 1.373 . S
C2570 C2572 1.389 . S
C2571 H2550 0.950 . S
C2571 C2570 1.373 . S
C2571 C2587 1.377 . S
C2572 C2570 1.389 . S
C2572 C2573 1.524 . S
C2572 C2586 1.377 . S
C2573 C2572 1.524 . S
C2573 C2574 1.397 . S
C2573 C2578 1.363 . S
C2574 H2551 0.950 . S
C2574 C2573 1.397 . S
C2574 C2575 1.334 . S
C2575 H2552 0.950 . S
C2575 C2574 1.334 . S
C2575 C2576 1.287 . S
C2576 C2575 1.287 . S
C2576 C2577 1.524 . S
C2576 H2595 0.913 . S
C2577 H2553 0.950 . S
C2577 C2576 1.524 . S
C2577 C2578 1.415 . S
C2578 H2554 0.950 . S
C2578 C2573 1.363 . S
C2578 C2577 1.415 . S
C2579 H2555 0.951 . S
C2579 C2580 1.366 . S
C2579 C2581 1.388 . S
C2580 C2579 1.366 . S
C2580 C2584 1.385 . S
C2581 H2556 0.951 . S
C2581 C2579 1.388 . S
C2581 C2582 1.366 . S
C2582 C2581 1.366 . S
C2582 C2583 1.414 . S
C2582 C2585 1.499 . S
C2583 H2557 0.950 . S
C2583 C2582 1.414 . S
C2583 C2584 1.374 . S
C2584 H2558 0.950 . S
C2584 C2580 1.385 . S
C2584 C2583 1.374 . S
C2585 C2582 1.499 . S
C2585 C2586 1.373 . S
C2585 C2587 1.389 . S
C2586 H2559 0.950 . S
C2586 C2572 1.377 . S
C2586 C2585 1.373 . S
C2587 C2571 1.377 . S
C2587 C2585 1.389 . S
C2587 C2588 1.524 . S
C2588 C2587 1.524 . S
C2588 C2589 1.397 . S
C2588 C2593 1.363 . S
C2589 H2560 0.950 . S
C2589 C2588 1.397 . S
C2589 C2590 1.334 . S
C2590 H2561 0.950 . S
C2590 C2589 1.334 . S
C2590 C2591 1.287 . S
C2591 C2590 1.287 . S
C2591 C2592 1.524 . S
C2591 H2594 0.999 . S
C2592 H2562 0.950 . S
C2592 C2591 1.524 . S
C2592 C2593 1.415 . S
C2593 H2563 0.950 . S
C2593 C2588 1.363 . S
C2593 C2592 1.415 . S
H2594 C2591 0.999 . S
H2595 C2576 0.913 . S
H2596 C2614 0.951 . S
H2597 C2616 0.951 . S
H2598 C2618 0.950 . S
H2599 C2619 0.950 . S
H2600 C2621 0.950 . S
H2601 C2624 0.950 . S
H2602 C2625 0.950 . S
H2603 C2627 0.950 . S
H2604 C2628 0.950 . S
H2605 C2629 0.951 . S
H2606 C2631 0.951 . S
H2607 C2633 0.950 . S
H2608 C2634 0.950 . S
H2609 C2636 0.950 . S
H2610 C2639 0.950 . S
H2611 C2640 0.950 . S
H2612 C2642 0.950 . S
H2613 C2643 0.950 . S
C2614 H2596 0.951 . S
C2614 C2615 1.366 . S
C2614 C2616 1.388 . S
C2615 C2614 1.366 . S
C2615 C2619 1.385 . S
C2616 H2597 0.951 . S
C2616 C2614 1.388 . S
C2616 C2617 1.366 . S
C2617 C2616 1.366 . S
C2617 C2618 1.414 . S
C2617 C2620 1.499 . S
C2618 H2598 0.950 . S
C2618 C2617 1.414 . S
C2618 C2619 1.374 . S
C2619 H2599 0.950 . S
C2619 C2615 1.385 . S
C2619 C2618 1.374 . S
C2620 C2617 1.499 . S
C2620 C2621 1.373 . S
C2620 C2622 1.389 . S
C2621 H2600 0.950 . S
C2621 C2620 1.373 . S
C2621 C2637 1.377 . S
C2622 C2620 1.389 . S
C2622 C2623 1.524 . S
C2622 C2636 1.377 . S
C2623 C2622 1.524 . S
C2623 C2624 1.397 . S
C2623 C2628 1.363 . S
C2624 H2601 0.950 . S
C2624 C2623 1.397 . S
C2624 C2625 1.334 . S
C2625 H2602 0.950 . S
C2625 C2624 1.334 . S
C2625 C2626 1.287 . S
C2626 C2625 1.287 . S
C2626 C2627 1.524 . S
C2626 H2645 0.913 . S
C2627 H2603 0.950 . S
C2627 C2626 1.524 . S
C2627 C2628 1.415 . S
C2628 H2604 0.950 . S
C2628 C2623 1.363 . S
C2628 C2627 1.415 . S
C2629 H2605 0.951 . S
C2629 C2630 1.366 . S
C2629 C2631 1.388 . S
C2630 C2629 1.366 . S
C2630 C2634 1.385 . S
C2631 H2606 0.951 . S
C2631 C2629 1.388 . S
C2631 C2632 1.366 . S
C2632 C2631 1.366 . S
C2632 C2633 1.414 . S
C2632 C2635 1.499 . S
C2633 H2607 0.950 . S
C2633 C2632 1.414 . S
C2633 C2634 1.374 . S
C2634 H2608 0.950 . S
C2634 C2630 1.385 . S
C2634 C2633 1.374 . S
C2635 C2632 1.499 . S
C2635 C2636 1.373 . S
C2635 C2637 1.389 . S
C2636 H2609 0.950 . S
C2636 C2622 1.377 . S
C2636 C2635 1.373 . S
C2637 C2621 1.377 . S
C2637 C2635 1.389 . S
C2637 C2638 1.524 . S
C2638 C2637 1.524 . S
C2638 C2639 1.397 . S
C2638 C2643 1.363 . S
C2639 H2610 0.950 . S
C2639 C2638 1.397 . S
C2639 C2640 1.334 . S
C2640 H2611 0.950 . S
C2640 C2639 1.334 . S
C2640 C2641 1.287 . S
C2641 C2640 1.287 . S
C2641 C2642 1.524 . S
C2641 H2644 0.999 . S
C2642 H2612 0.950 . S
C2642 C2641 1.524 . S
C2642 C2643 1.415 . S
C2643 H2613 0.950 . S
C2643 C2638 1.363 . S
C2643 C2642 1.415 . S
H2644 C2641 0.999 . S
H2645 C2626 0.913 . S
H2646 C2664 0.951 . S
H2647 C2666 0.951 . S
H2648 C2668 0.950 . S
H2649 C2669 0.950 . S
H2650 C2671 0.950 . S
H2651 C2674 0.950 . S
H2652 C2675 0.950 . S
H2653 C2677 0.950 . S
H2654 C2678 0.950 . S
H2655 C2679 0.951 . S
H2656 C2681 0.951 . S
H2657 C2683 0.950 . S
H2658 C2684 0.950 . S
H2659 C2686 0.950 . S
H2660 C2689 0.950 . S
H2661 C2690 0.950 . S
H2662 C2692 0.950 . S
H2663 C2693 0.950 . S
C2664 H2646 0.951 . S
C2664 C2665 1.366 . S
C2664 C2666 1.388 . S
C2665 C2664 1.366 . S
C2665 C2669 1.385 . S
C2666 H2647 0.951 . S
C2666 C2664 1.388 . S
C2666 C2667 1.366 . S
C2667 C2666 1.366 . S
C2667 C2668 1.414 . S
C2667 C2670 1.499 . S
C2668 H2648 0.950 . S
C2668 C2667 1.414 . S
C2668 C2669 1.374 . S
C2669 H2649 0.950 . S
C2669 C2665 1.385 . S
C2669 C2668 1.374 . S
C2670 C2667 1.499 . S
C2670 C2671 1.373 . S
C2670 C2672 1.389 . S
C2671 H2650 0.950 . S
C2671 C2670 1.373 . S
C2671 C2687 1.377 . S
C2672 C2670 1.389 . S
C2672 C2673 1.524 . S
C2672 C2686 1.377 . S
C2673 C2672 1.524 . S
C2673 C2674 1.397 . S
C2673 C2678 1.363 . S
C2674 H2651 0.950 . S
C2674 C2673 1.397 . S
C2674 C2675 1.334 . S
C2675 H2652 0.950 . S
C2675 C2674 1.334 . S
C2675 C2676 1.287 . S
C2676 C2675 1.287 . S
C2676 C2677 1.524 . S
C2676 H2695 0.913 . S
C2677 H2653 0.950 . S
C2677 C2676 1.524 . S
C2677 C2678 1.415 . S
C2678 H2654 0.950 . S
C2678 C2673 1.363 . S
C2678 C2677 1.415 . S
C2679 H2655 0.951 . S
C2679 C2680 1.366 . S
C2679 C2681 1.388 . S
C2680 C2679 1.366 . S
C2680 C2684 1.385 . S
C2681 H2656 0.951 . S
C2681 C2679 1.388 . S
C2681 C2682 1.366 . S
C2682 C2681 1.366 . S
C2682 C2683 1.414 . S
C2682 C2685 1.499 . S
C2683 H2657 0.950 . S
C2683 C2682 1.414 . S
C2683 C2684 1.374 . S
C2684 H2658 0.950 . S
C2684 C2680 1.385 . S
C2684 C2683 1.374 . S
C2685 C2682 1.499 . S
C2685 C2686 1.373 . S
C2685 C2687 1.389 . S
C2686 H2659 0.950 . S
C2686 C2672 1.377 . S
C2686 C2685 1.373 . S
C2687 C2671 1.377 . S
C2687 C2685 1.389 . S
C2687 C2688 1.524 . S
C2688 C2687 1.524 . S
C2688 C2689 1.397 . S
C2688 C2693 1.363 . S
C2689 H2660 0.950 . S
C2689 C2688 1.397 . S
C2689 C2690 1.334 . S
C2690 H2661 0.950 . S
C2690 C2689 1.334 . S
C2690 C2691 1.287 . S
C2691 C2690 1.287 . S
C2691 C2692 1.524 . S
C2691 H2694 0.999 . S
C2692 H2662 0.950 . S
C2692 C2691 1.524 . S
C2692 C2693 1.415 . S
C2693 H2663 0.950 . S
C2693 C2688 1.363 . S
C2693 C2692 1.415 . S
H2694 C2691 0.999 . S
H2695 C2676 0.913 . S
H2696 C2714 0.951 . S
H2697 C2716 0.951 . S
H2698 C2718 0.950 . S
H2699 C2719 0.950 . S
H2700 C2721 0.950 . S
H2701 C2724 0.950 . S
H2702 C2725 0.950 . S
H2703 C2727 0.950 . S
H2704 C2728 0.950 . S
H2705 C2729 0.951 . S
H2706 C2731 0.951 . S
H2707 C2733 0.950 . S
H2708 C2734 0.950 . S
H2709 C2736 0.950 . S
H2710 C2739 0.950 . S
H2711 C2740 0.950 . S
H2712 C2742 0.950 . S
H2713 C2743 0.950 . S
C2714 H2696 0.951 . S
C2714 C2715 1.366 . S
C2714 C2716 1.388 . S
C2715 C2714 1.366 . S
C2715 C2719 1.385 . S
C2716 H2697 0.951 . S
C2716 C2714 1.388 . S
C2716 C2717 1.366 . S
C2717 C2716 1.366 . S
C2717 C2718 1.414 . S
C2717 C2720 1.499 . S
C2718 H2698 0.950 . S
C2718 C2717 1.414 . S
C2718 C2719 1.374 . S
C2719 H2699 0.950 . S
C2719 C2715 1.385 . S
C2719 C2718 1.374 . S
C2720 C2717 1.499 . S
C2720 C2721 1.373 . S
C2720 C2722 1.389 . S
C2721 H2700 0.950 . S
C2721 C2720 1.373 . S
C2721 C2737 1.377 . S
C2722 C2720 1.389 . S
C2722 C2723 1.524 . S
C2722 C2736 1.377 . S
C2723 C2722 1.524 . S
C2723 C2724 1.397 . S
C2723 C2728 1.363 . S
C2724 H2701 0.950 . S
C2724 C2723 1.397 . S
C2724 C2725 1.334 . S
C2725 H2702 0.950 . S
C2725 C2724 1.334 . S
C2725 C2726 1.287 . S
C2726 C2725 1.287 . S
C2726 C2727 1.524 . S
C2726 H2745 0.913 . S
C2727 H2703 0.950 . S
C2727 C2726 1.524 . S
C2727 C2728 1.415 . S
C2728 H2704 0.950 . S
C2728 C2723 1.363 . S
C2728 C2727 1.415 . S
C2729 H2705 0.951 . S
C2729 C2730 1.366 . S
C2729 C2731 1.388 . S
C2730 C2729 1.366 . S
C2730 C2734 1.385 . S
C2731 H2706 0.951 . S
C2731 C2729 1.388 . S
C2731 C2732 1.366 . S
C2732 C2731 1.366 . S
C2732 C2733 1.414 . S
C2732 C2735 1.499 . S
C2733 H2707 0.950 . S
C2733 C2732 1.414 . S
C2733 C2734 1.374 . S
C2734 H2708 0.950 . S
C2734 C2730 1.385 . S
C2734 C2733 1.374 . S
C2735 C2732 1.499 . S
C2735 C2736 1.373 . S
C2735 C2737 1.389 . S
C2736 H2709 0.950 . S
C2736 C2722 1.377 . S
C2736 C2735 1.373 . S
C2737 C2721 1.377 . S
C2737 C2735 1.389 . S
C2737 C2738 1.524 . S
C2738 C2737 1.524 . S
C2738 C2739 1.397 . S
C2738 C2743 1.363 . S
C2739 H2710 0.950 . S
C2739 C2738 1.397 . S
C2739 C2740 1.334 . S
C2740 H2711 0.950 . S
C2740 C2739 1.334 . S
C2740 C2741 1.287 . S
C2741 C2740 1.287 . S
C2741 C2742 1.524 . S
C2741 H2744 0.999 . S
C2742 H2712 0.950 . S
C2742 C2741 1.524 . S
C2742 C2743 1.415 . S
C2743 H2713 0.950 . S
C2743 C2738 1.363 . S
C2743 C2742 1.415 . S
H2744 C2741 0.999 . S
H2745 C2726 0.913 . S
H2746 C2764 0.951 . S
H2747 C2766 0.951 . S
H2748 C2768 0.950 . S
H2749 C2769 0.950 . S
H2750 C2771 0.950 . S
H2751 C2774 0.950 . S
H2752 C2775 0.950 . S
H2753 C2777 0.950 . S
H2754 C2778 0.950 . S
H2755 C2779 0.951 . S
H2756 C2781 0.951 . S
H2757 C2783 0.950 . S
H2758 C2784 0.950 . S
H2759 C2786 0.950 . S
H2760 C2789 0.950 . S
H2761 C2790 0.950 . S
H2762 C2792 0.950 . S
H2763 C2793 0.950 . S
C2764 H2746 0.951 . S
C2764 C2765 1.366 . S
C2764 C2766 1.388 . S
C2765 C2764 1.366 . S
C2765 C2769 1.385 . S
C2766 H2747 0.951 . S
C2766 C2764 1.388 . S
C2766 C2767 1.366 . S
C2767 C2766 1.366 . S
C2767 C2768 1.414 . S
C2767 C2770 1.499 . S
C2768 H2748 0.950 . S
C2768 C2767 1.414 . S
C2768 C2769 1.374 . S
C2769 H2749 0.950 . S
C2769 C2765 1.385 . S
C2769 C2768 1.374 . S
C2770 C2767 1.499 . S
C2770 C2771 1.373 . S
C2770 C2772 1.389 . S
C2771 H2750 0.950 . S
C2771 C2770 1.373 . S
C2771 C2787 1.377 . S
C2772 C2770 1.389 . S
C2772 C2773 1.524 . S
C2772 C2786 1.377 . S
C2773 C2772 1.524 . S
C2773 C2774 1.397 . S
C2773 C2778 1.363 . S
C2774 H2751 0.950 . S
C2774 C2773 1.397 . S
C2774 C2775 1.334 . S
C2775 H2752 0.950 . S
C2775 C2774 1.334 . S
C2775 C2776 1.287 . S
C2776 C2775 1.287 . S
C2776 C2777 1.524 . S
C2776 H2795 0.913 . S
C2777 H2753 0.950 . S
C2777 C2776 1.524 . S
C2777 C2778 1.415 . S
C2778 H2754 0.950 . S
C2778 C2773 1.363 . S
C2778 C2777 1.415 . S
C2779 H2755 0.951 . S
C2779 C2780 1.366 . S
C2779 C2781 1.388 . S
C2780 C2779 1.366 . S
C2780 C2784 1.385 . S
C2781 H2756 0.951 . S
C2781 C2779 1.388 . S
C2781 C2782 1.366 . S
C2782 C2781 1.366 . S
C2782 C2783 1.414 . S
C2782 C2785 1.499 . S
C2783 H2757 0.950 . S
C2783 C2782 1.414 . S
C2783 C2784 1.374 . S
C2784 H2758 0.950 . S
C2784 C2780 1.385 . S
C2784 C2783 1.374 . S
C2785 C2782 1.499 . S
C2785 C2786 1.373 . S
C2785 C2787 1.389 . S
C2786 H2759 0.950 . S
C2786 C2772 1.377 . S
C2786 C2785 1.373 . S
C2787 C2771 1.377 . S
C2787 C2785 1.389 . S
C2787 C2788 1.524 . S
C2788 C2787 1.524 . S
C2788 C2789 1.397 . S
C2788 C2793 1.363 . S
C2789 H2760 0.950 . S
C2789 C2788 1.397 . S
C2789 C2790 1.334 . S
C2790 H2761 0.950 . S
C2790 C2789 1.334 . S
C2790 C2791 1.287 . S
C2791 C2790 1.287 . S
C2791 C2792 1.524 . S
C2791 H2794 0.999 . S
C2792 H2762 0.950 . S
C2792 C2791 1.524 . S
C2792 C2793 1.415 . S
C2793 H2763 0.950 . S
C2793 C2788 1.363 . S
C2793 C2792 1.415 . S
H2794 C2791 0.999 . S
H2795 C2776 0.913 . S
H2796 C2814 0.951 . S
H2797 C2816 0.951 . S
H2798 C2818 0.950 . S
H2799 C2819 0.950 . S
H2800 C2821 0.950 . S
H2801 C2824 0.950 . S
H2802 C2825 0.950 . S
H2803 C2827 0.950 . S
H2804 C2828 0.950 . S
H2805 C2829 0.951 . S
H2806 C2831 0.951 . S
H2807 C2833 0.950 . S
H2808 C2834 0.950 . S
H2809 C2836 0.950 . S
H2810 C2839 0.950 . S
H2811 C2840 0.950 . S
H2812 C2842 0.950 . S
H2813 C2843 0.950 . S
C2814 H2796 0.951 . S
C2814 C2815 1.366 . S
C2814 C2816 1.388 . S
C2815 C2814 1.366 . S
C2815 C2819 1.385 . S
C2816 H2797 0.951 . S
C2816 C2814 1.388 . S
C2816 C2817 1.366 . S
C2817 C2816 1.366 . S
C2817 C2818 1.414 . S
C2817 C2820 1.499 . S
C2818 H2798 0.950 . S
C2818 C2817 1.414 . S
C2818 C2819 1.374 . S
C2819 H2799 0.950 . S
C2819 C2815 1.385 . S
C2819 C2818 1.374 . S
C2820 C2817 1.499 . S
C2820 C2821 1.373 . S
C2820 C2822 1.389 . S
C2821 H2800 0.950 . S
C2821 C2820 1.373 . S
C2821 C2837 1.377 . S
C2822 C2820 1.389 . S
C2822 C2823 1.524 . S
C2822 C2836 1.377 . S
C2823 C2822 1.524 . S
C2823 C2824 1.397 . S
C2823 C2828 1.363 . S
C2824 H2801 0.950 . S
C2824 C2823 1.397 . S
C2824 C2825 1.334 . S
C2825 H2802 0.950 . S
C2825 C2824 1.334 . S
C2825 C2826 1.287 . S
C2826 C2825 1.287 . S
C2826 C2827 1.524 . S
C2826 H2845 0.913 . S
C2827 H2803 0.950 . S
C2827 C2826 1.524 . S
C2827 C2828 1.415 . S
C2828 H2804 0.950 . S
C2828 C2823 1.363 . S
C2828 C2827 1.415 . S
C2829 H2805 0.951 . S
C2829 C2830 1.366 . S
C2829 C2831 1.388 . S
C2830 C2829 1.366 . S
C2830 C2834 1.385 . S
C2831 H2806 0.951 . S
C2831 C2829 1.388 . S
C2831 C2832 1.366 . S
C2832 C2831 1.366 . S
C2832 C2833 1.414 . S
C2832 C2835 1.499 . S
C2833 H2807 0.950 . S
C2833 C2832 1.414 . S
C2833 C2834 1.374 . S
C2834 H2808 0.950 . S
C2834 C2830 1.385 . S
C2834 C2833 1.374 . S
C2835 C2832 1.499 . S
C2835 C2836 1.373 . S
C2835 C2837 1.389 . S
C2836 H2809 0.950 . S
C2836 C2822 1.377 . S
C2836 C2835 1.373 . S
C2837 C2821 1.377 . S
C2837 C2835 1.389 . S
C2837 C2838 1.524 . S
C2838 C2837 1.524 . S
C2838 C2839 1.397 . S
C2838 C2843 1.363 . S
C2839 H2810 0.950 . S
C2839 C2838 1.397 . S
C2839 C2840 1.334 . S
C2840 H2811 0.950 . S
C2840 C2839 1.334 . S
C2840 C2841 1.287 . S
C2841 C2840 1.287 . S
C2841 C2842 1.524 . S
C2841 H2844 0.999 . S
C2842 H2812 0.950 . S
C2842 C2841 1.524 . S
C2842 C2843 1.415 . S
C2843 H2813 0.950 . S
C2843 C2838 1.363 . S
C2843 C2842 1.415 . S
H2844 C2841 0.999 . S
H2845 C2826 0.913 . S
H2846 C2864 0.951 . S
H2847 C2866 0.951 . S
H2848 C2868 0.950 . S
H2849 C2869 0.950 . S
H2850 C2871 0.950 . S
H2851 C2874 0.950 . S
H2852 C2875 0.950 . S
H2853 C2877 0.950 . S
H2854 C2878 0.950 . S
H2855 C2879 0.951 . S
H2856 C2881 0.951 . S
H2857 C2883 0.950 . S
H2858 C2884 0.950 . S
H2859 C2886 0.950 . S
H2860 C2889 0.950 . S
H2861 C2890 0.950 . S
H2862 C2892 0.950 . S
H2863 C2893 0.950 . S
C2864 H2846 0.951 . S
C2864 C2865 1.366 . S
C2864 C2866 1.388 . S
C2865 C2864 1.366 . S
C2865 C2869 1.385 . S
C2866 H2847 0.951 . S
C2866 C2864 1.388 . S
C2866 C2867 1.366 . S
C2867 C2866 1.366 . S
C2867 C2868 1.414 . S
C2867 C2870 1.499 . S
C2868 H2848 0.950 . S
C2868 C2867 1.414 . S
C2868 C2869 1.374 . S
C2869 H2849 0.950 . S
C2869 C2865 1.385 . S
C2869 C2868 1.374 . S
C2870 C2867 1.499 . S
C2870 C2871 1.373 . S
C2870 C2872 1.389 . S
C2871 H2850 0.950 . S
C2871 C2870 1.373 . S
C2871 C2887 1.377 . S
C2872 C2870 1.389 . S
C2872 C2873 1.524 . S
C2872 C2886 1.377 . S
C2873 C2872 1.524 . S
C2873 C2874 1.397 . S
C2873 C2878 1.363 . S
C2874 H2851 0.950 . S
C2874 C2873 1.397 . S
C2874 C2875 1.334 . S
C2875 H2852 0.950 . S
C2875 C2874 1.334 . S
C2875 C2876 1.287 . S
C2876 C2875 1.287 . S
C2876 C2877 1.524 . S
C2876 H2895 0.913 . S
C2877 H2853 0.950 . S
C2877 C2876 1.524 . S
C2877 C2878 1.415 . S
C2878 H2854 0.950 . S
C2878 C2873 1.363 . S
C2878 C2877 1.415 . S
C2879 H2855 0.951 . S
C2879 C2880 1.366 . S
C2879 C2881 1.388 . S
C2880 C2879 1.366 . S
C2880 C2884 1.385 . S
C2881 H2856 0.951 . S
C2881 C2879 1.388 . S
C2881 C2882 1.366 . S
C2882 C2881 1.366 . S
C2882 C2883 1.414 . S
C2882 C2885 1.499 . S
C2883 H2857 0.950 . S
C2883 C2882 1.414 . S
C2883 C2884 1.374 . S
C2884 H2858 0.950 . S
C2884 C2880 1.385 . S
C2884 C2883 1.374 . S
C2885 C2882 1.499 . S
C2885 C2886 1.373 . S
C2885 C2887 1.389 . S
C2886 H2859 0.950 . S
C2886 C2872 1.377 . S
C2886 C2885 1.373 . S
C2887 C2871 1.377 . S
C2887 C2885 1.389 . S
C2887 C2888 1.524 . S
C2888 C2887 1.524 . S
C2888 C2889 1.397 . S
C2888 C2893 1.363 . S
C2889 H2860 0.950 . S
C2889 C2888 1.397 . S
C2889 C2890 1.334 . S
C2890 H2861 0.950 . S
C2890 C2889 1.334 . S
C2890 C2891 1.287 . S
C2891 C2890 1.287 . S
C2891 C2892 1.524 . S
C2891 H2894 0.999 1_565 S
C2892 H2862 0.950 . S
C2892 C2891 1.524 . S
C2892 C2893 1.415 . S
C2893 H2863 0.950 . S
C2893 C2888 1.363 . S
C2893 C2892 1.415 . S
H2894 C2891 0.999 1_545 S
H2895 C2876 0.913 . S
H2896 C2914 0.951 . S
H2897 C2916 0.951 . S
H2898 C2918 0.950 . S
H2899 C2919 0.950 . S
H2900 C2921 0.950 . S
H2901 C2924 0.950 . S
H2902 C2925 0.950 . S
H2903 C2927 0.950 . S
H2904 C2928 0.950 . S
H2905 C2929 0.951 . S
H2906 C2931 0.951 . S
H2907 C2933 0.950 . S
H2908 C2934 0.950 . S
H2909 C2936 0.950 . S
H2910 C2939 0.950 . S
H2911 C2940 0.950 . S
H2912 C2942 0.950 . S
H2913 C2943 0.950 . S
C2914 H2896 0.951 . S
C2914 C2915 1.366 . S
C2914 C2916 1.388 . S
C2915 C2914 1.366 . S
C2915 C2919 1.385 . S
C2916 H2897 0.951 . S
C2916 C2914 1.388 . S
C2916 C2917 1.366 . S
C2917 C2916 1.366 . S
C2917 C2918 1.414 . S
C2917 C2920 1.499 . S
C2918 H2898 0.950 . S
C2918 C2917 1.414 . S
C2918 C2919 1.374 . S
C2919 H2899 0.950 . S
C2919 C2915 1.385 . S
C2919 C2918 1.374 . S
C2920 C2917 1.499 . S
C2920 C2921 1.373 . S
C2920 C2922 1.389 . S
C2921 H2900 0.950 . S
C2921 C2920 1.373 . S
C2921 C2937 1.377 . S
C2922 C2920 1.389 . S
C2922 C2923 1.524 . S
C2922 C2936 1.377 . S
C2923 C2922 1.524 . S
C2923 C2924 1.397 . S
C2923 C2928 1.363 . S
C2924 H2901 0.950 . S
C2924 C2923 1.397 . S
C2924 C2925 1.334 . S
C2925 H2902 0.950 . S
C2925 C2924 1.334 . S
C2925 C2926 1.287 . S
C2926 C2925 1.287 . S
C2926 C2927 1.524 . S
C2926 H2945 0.913 . S
C2927 H2903 0.950 . S
C2927 C2926 1.524 . S
C2927 C2928 1.415 . S
C2928 H2904 0.950 . S
C2928 C2923 1.363 . S
C2928 C2927 1.415 . S
C2929 H2905 0.951 . S
C2929 C2930 1.366 . S
C2929 C2931 1.388 . S
C2930 C2929 1.366 . S
C2930 C2934 1.385 . S
C2931 H2906 0.951 . S
C2931 C2929 1.388 . S
C2931 C2932 1.366 . S
C2932 C2931 1.366 . S
C2932 C2933 1.414 . S
C2932 C2935 1.499 . S
C2933 H2907 0.950 . S
C2933 C2932 1.414 . S
C2933 C2934 1.374 . S
C2934 H2908 0.950 . S
C2934 C2930 1.385 . S
C2934 C2933 1.374 . S
C2935 C2932 1.499 . S
C2935 C2936 1.373 . S
C2935 C2937 1.389 . S
C2936 H2909 0.950 . S
C2936 C2922 1.377 . S
C2936 C2935 1.373 . S
C2937 C2921 1.377 . S
C2937 C2935 1.389 . S
C2937 C2938 1.524 . S
C2938 C2937 1.524 . S
C2938 C2939 1.397 . S
C2938 C2943 1.363 . S
C2939 H2910 0.950 . S
C2939 C2938 1.397 . S
C2939 C2940 1.334 . S
C2940 H2911 0.950 . S
C2940 C2939 1.334 . S
C2940 C2941 1.287 . S
C2941 C2940 1.287 . S
C2941 C2942 1.524 . S
C2941 H2944 0.999 . S
C2942 H2912 0.950 . S
C2942 C2941 1.524 . S
C2942 C2943 1.415 . S
C2943 H2913 0.950 . S
C2943 C2938 1.363 . S
C2943 C2942 1.415 . S
H2944 C2941 0.999 . S
H2945 C2926 0.913 . S
H2946 C2964 0.951 . S
H2947 C2966 0.951 . S
H2948 C2968 0.950 . S
H2949 C2969 0.950 . S
H2950 C2971 0.950 . S
H2951 C2974 0.950 . S
H2952 C2975 0.950 . S
H2953 C2977 0.950 . S
H2954 C2978 0.950 . S
H2955 C2979 0.951 . S
H2956 C2981 0.951 . S
H2957 C2983 0.950 . S
H2958 C2984 0.950 . S
H2959 C2986 0.950 . S
H2960 C2989 0.950 . S
H2961 C2990 0.950 . S
H2962 C2992 0.950 . S
H2963 C2993 0.950 . S
C2964 H2946 0.951 . S
C2964 C2965 1.366 . S
C2964 C2966 1.388 . S
C2965 C2964 1.366 . S
C2965 C2969 1.385 . S
C2966 H2947 0.951 . S
C2966 C2964 1.388 . S
C2966 C2967 1.366 . S
C2967 C2966 1.366 . S
C2967 C2968 1.414 . S
C2967 C2970 1.499 . S
C2968 H2948 0.950 . S
C2968 C2967 1.414 . S
C2968 C2969 1.374 . S
C2969 H2949 0.950 . S
C2969 C2965 1.385 . S
C2969 C2968 1.374 . S
C2970 C2967 1.499 . S
C2970 C2971 1.373 . S
C2970 C2972 1.389 . S
C2971 H2950 0.950 . S
C2971 C2970 1.373 . S
C2971 C2987 1.377 . S
C2972 C2970 1.389 . S
C2972 C2973 1.524 . S
C2972 C2986 1.377 . S
C2973 C2972 1.524 . S
C2973 C2974 1.397 . S
C2973 C2978 1.363 . S
C2974 H2951 0.950 . S
C2974 C2973 1.397 . S
C2974 C2975 1.334 . S
C2975 H2952 0.950 . S
C2975 C2974 1.334 . S
C2975 C2976 1.287 . S
C2976 C2975 1.287 . S
C2976 C2977 1.524 . S
C2976 H2995 0.913 . S
C2977 H2953 0.950 . S
C2977 C2976 1.524 . S
C2977 C2978 1.415 . S
C2978 H2954 0.950 . S
C2978 C2973 1.363 . S
C2978 C2977 1.415 . S
C2979 H2955 0.951 . S
C2979 C2980 1.366 . S
C2979 C2981 1.388 . S
C2980 C2979 1.366 . S
C2980 C2984 1.385 . S
C2981 H2956 0.951 . S
C2981 C2979 1.388 . S
C2981 C2982 1.366 . S
C2982 C2981 1.366 . S
C2982 C2983 1.414 . S
C2982 C2985 1.499 . S
C2983 H2957 0.950 . S
C2983 C2982 1.414 . S
C2983 C2984 1.374 . S
C2984 H2958 0.950 . S
C2984 C2980 1.385 . S
C2984 C2983 1.374 . S
C2985 C2982 1.499 . S
C2985 C2986 1.373 . S
C2985 C2987 1.389 . S
C2986 H2959 0.950 . S
C2986 C2972 1.377 . S
C2986 C2985 1.373 . S
C2987 C2971 1.377 . S
C2987 C2985 1.389 . S
C2987 C2988 1.524 . S
C2988 C2987 1.524 . S
C2988 C2989 1.397 . S
C2988 C2993 1.363 . S
C2989 H2960 0.950 . S
C2989 C2988 1.397 . S
C2989 C2990 1.334 . S
C2990 H2961 0.950 . S
C2990 C2989 1.334 . S
C2990 C2991 1.287 . S
C2991 C2990 1.287 . S
C2991 C2992 1.524 . S
C2991 H2994 0.999 . S
C2992 H2962 0.950 . S
C2992 C2991 1.524 . S
C2992 C2993 1.415 . S
C2993 H2963 0.950 . S
C2993 C2988 1.363 . S
C2993 C2992 1.415 . S
H2994 C2991 0.999 . S
H2995 C2976 0.913 . S
H2996 C3014 0.951 . S
H2997 C3016 0.951 . S
H2998 C3018 0.950 . S
H2999 C3019 0.950 . S
H3000 C3021 0.950 . S
H3001 C3024 0.950 . S
H3002 C3025 0.950 . S
H3003 C3027 0.950 . S
H3004 C3028 0.950 . S
H3005 C3029 0.951 . S
H3006 C3031 0.951 . S
H3007 C3033 0.950 . S
H3008 C3034 0.950 . S
H3009 C3036 0.950 . S
H3010 C3039 0.950 . S
H3011 C3040 0.950 . S
H3012 C3042 0.950 . S
H3013 C3043 0.950 . S
C3014 H2996 0.951 . S
C3014 C3015 1.366 . S
C3014 C3016 1.388 . S
C3015 C3014 1.366 . S
C3015 C3019 1.385 . S
C3016 H2997 0.951 . S
C3016 C3014 1.388 . S
C3016 C3017 1.366 . S
C3017 C3016 1.366 . S
C3017 C3018 1.414 . S
C3017 C3020 1.499 . S
C3018 H2998 0.950 . S
C3018 C3017 1.414 . S
C3018 C3019 1.374 . S
C3019 H2999 0.950 . S
C3019 C3015 1.385 . S
C3019 C3018 1.374 . S
C3020 C3017 1.499 . S
C3020 C3021 1.373 . S
C3020 C3022 1.389 . S
C3021 H3000 0.950 . S
C3021 C3020 1.373 . S
C3021 C3037 1.377 . S
C3022 C3020 1.389 . S
C3022 C3023 1.524 . S
C3022 C3036 1.377 . S
C3023 C3022 1.524 . S
C3023 C3024 1.397 . S
C3023 C3028 1.363 . S
C3024 H3001 0.950 . S
C3024 C3023 1.397 . S
C3024 C3025 1.334 . S
C3025 H3002 0.950 . S
C3025 C3024 1.334 . S
C3025 C3026 1.287 . S
C3026 C3025 1.287 . S
C3026 C3027 1.524 . S
C3026 H3045 0.913 . S
C3027 H3003 0.950 . S
C3027 C3026 1.524 . S
C3027 C3028 1.415 . S
C3028 H3004 0.950 . S
C3028 C3023 1.363 . S
C3028 C3027 1.415 . S
C3029 H3005 0.951 . S
C3029 C3030 1.366 . S
C3029 C3031 1.388 . S
C3030 C3029 1.366 . S
C3030 C3034 1.385 . S
C3031 H3006 0.951 . S
C3031 C3029 1.388 . S
C3031 C3032 1.366 . S
C3032 C3031 1.366 . S
C3032 C3033 1.414 . S
C3032 C3035 1.499 . S
C3033 H3007 0.950 . S
C3033 C3032 1.414 . S
C3033 C3034 1.374 . S
C3034 H3008 0.950 . S
C3034 C3030 1.385 . S
C3034 C3033 1.374 . S
C3035 C3032 1.499 . S
C3035 C3036 1.373 . S
C3035 C3037 1.389 . S
C3036 H3009 0.950 . S
C3036 C3022 1.377 . S
C3036 C3035 1.373 . S
C3037 C3021 1.377 . S
C3037 C3035 1.389 . S
C3037 C3038 1.524 . S
C3038 C3037 1.524 . S
C3038 C3039 1.397 . S
C3038 C3043 1.363 . S
C3039 H3010 0.950 . S
C3039 C3038 1.397 . S
C3039 C3040 1.334 . S
C3040 H3011 0.950 . S
C3040 C3039 1.334 . S
C3040 C3041 1.287 . S
C3041 C3040 1.287 . S
C3041 C3042 1.524 . S
C3041 H3044 0.999 . S
C3042 H3012 0.950 . S
C3042 C3041 1.524 . S
C3042 C3043 1.415 . S
C3043 H3013 0.950 . S
C3043 C3038 1.363 . S
C3043 C3042 1.415 . S
H3044 C3041 0.999 . S
H3045 C3026 0.913 . S
H3046 C3064 0.951 . S
H3047 C3066 0.951 . S
H3048 C3068 0.950 . S
H3049 C3069 0.950 . S
H3050 C3071 0.950 . S
H3051 C3074 0.950 . S
H3052 C3075 0.950 . S
H3053 C3077 0.950 . S
H3054 C3078 0.950 . S
H3055 C3079 0.951 . S
H3056 C3081 0.951 . S
H3057 C3083 0.950 . S
H3058 C3084 0.950 . S
H3059 C3086 0.950 . S
H3060 C3089 0.950 . S
H3061 C3090 0.950 . S
H3062 C3092 0.950 . S
H3063 C3093 0.950 . S
C3064 H3046 0.951 . S
C3064 C3065 1.366 . S
C3064 C3066 1.388 . S
C3065 C3064 1.366 . S
C3065 C3069 1.385 . S
C3066 H3047 0.951 . S
C3066 C3064 1.388 . S
C3066 C3067 1.366 . S
C3067 C3066 1.366 . S
C3067 C3068 1.414 . S
C3067 C3070 1.499 . S
C3068 H3048 0.950 . S
C3068 C3067 1.414 . S
C3068 C3069 1.374 . S
C3069 H3049 0.950 . S
C3069 C3065 1.385 . S
C3069 C3068 1.374 . S
C3070 C3067 1.499 . S
C3070 C3071 1.373 . S
C3070 C3072 1.389 . S
C3071 H3050 0.950 . S
C3071 C3070 1.373 . S
C3071 C3087 1.377 . S
C3072 C3070 1.389 . S
C3072 C3073 1.524 . S
C3072 C3086 1.377 . S
C3073 C3072 1.524 . S
C3073 C3074 1.397 . S
C3073 C3078 1.363 . S
C3074 H3051 0.950 . S
C3074 C3073 1.397 . S
C3074 C3075 1.334 . S
C3075 H3052 0.950 . S
C3075 C3074 1.334 . S
C3075 C3076 1.287 . S
C3076 C3075 1.287 . S
C3076 C3077 1.524 . S
C3076 H3095 0.913 . S
C3077 H3053 0.950 . S
C3077 C3076 1.524 . S
C3077 C3078 1.415 . S
C3078 H3054 0.950 . S
C3078 C3073 1.363 . S
C3078 C3077 1.415 . S
C3079 H3055 0.951 . S
C3079 C3080 1.366 . S
C3079 C3081 1.388 . S
C3080 C3079 1.366 . S
C3080 C3084 1.385 . S
C3081 H3056 0.951 . S
C3081 C3079 1.388 . S
C3081 C3082 1.366 . S
C3082 C3081 1.366 . S
C3082 C3083 1.414 . S
C3082 C3085 1.499 . S
C3083 H3057 0.950 . S
C3083 C3082 1.414 . S
C3083 C3084 1.374 . S
C3084 H3058 0.950 . S
C3084 C3080 1.385 . S
C3084 C3083 1.374 . S
C3085 C3082 1.499 . S
C3085 C3086 1.373 . S
C3085 C3087 1.389 . S
C3086 H3059 0.950 . S
C3086 C3072 1.377 . S
C3086 C3085 1.373 . S
C3087 C3071 1.377 . S
C3087 C3085 1.389 . S
C3087 C3088 1.524 . S
C3088 C3087 1.524 . S
C3088 C3089 1.397 . S
C3088 C3093 1.363 . S
C3089 H3060 0.950 . S
C3089 C3088 1.397 . S
C3089 C3090 1.334 . S
C3090 H3061 0.950 . S
C3090 C3089 1.334 . S
C3090 C3091 1.287 . S
C3091 C3090 1.287 . S
C3091 C3092 1.524 . S
C3091 H3094 0.999 . S
C3092 H3062 0.950 . S
C3092 C3091 1.524 . S
C3092 C3093 1.415 . S
C3093 H3063 0.950 . S
C3093 C3088 1.363 . S
C3093 C3092 1.415 . S
H3094 C3091 0.999 . S
H3095 C3076 0.913 . S
H3096 C3114 0.951 . S
H3097 C3116 0.951 . S
H3098 C3118 0.950 . S
H3099 C3119 0.950 . S
H3100 C3121 0.950 . S
H3101 C3124 0.950 . S
H3102 C3125 0.950 . S
H3103 C3127 0.950 . S
H3104 C3128 0.950 . S
H3105 C3129 0.951 . S
H3106 C3131 0.951 . S
H3107 C3133 0.950 . S
H3108 C3134 0.950 . S
H3109 C3136 0.950 . S
H3110 C3139 0.950 . S
H3111 C3140 0.950 . S
H3112 C3142 0.950 . S
H3113 C3143 0.950 . S
C3114 H3096 0.951 . S
C3114 C3115 1.366 . S
C3114 C3116 1.388 . S
C3115 C3114 1.366 . S
C3115 C3119 1.385 . S
C3116 H3097 0.951 . S
C3116 C3114 1.388 . S
C3116 C3117 1.366 . S
C3117 C3116 1.366 . S
C3117 C3118 1.414 . S
C3117 C3120 1.499 . S
C3118 H3098 0.950 . S
C3118 C3117 1.414 . S
C3118 C3119 1.374 . S
C3119 H3099 0.950 . S
C3119 C3115 1.385 . S
C3119 C3118 1.374 . S
C3120 C3117 1.499 . S
C3120 C3121 1.373 . S
C3120 C3122 1.389 . S
C3121 H3100 0.950 . S
C3121 C3120 1.373 . S
C3121 C3137 1.377 . S
C3122 C3120 1.389 . S
C3122 C3123 1.524 . S
C3122 C3136 1.377 . S
C3123 C3122 1.524 . S
C3123 C3124 1.397 . S
C3123 C3128 1.363 . S
C3124 H3101 0.950 . S
C3124 C3123 1.397 . S
C3124 C3125 1.334 . S
C3125 H3102 0.950 . S
C3125 C3124 1.334 . S
C3125 C3126 1.287 . S
C3126 C3125 1.287 . S
C3126 C3127 1.524 . S
C3126 H3145 0.913 . S
C3127 H3103 0.950 . S
C3127 C3126 1.524 . S
C3127 C3128 1.415 . S
C3128 H3104 0.950 . S
C3128 C3123 1.363 . S
C3128 C3127 1.415 . S
C3129 H3105 0.951 . S
C3129 C3130 1.366 . S
C3129 C3131 1.388 . S
C3130 C3129 1.366 . S
C3130 C3134 1.385 . S
C3131 H3106 0.951 . S
C3131 C3129 1.388 . S
C3131 C3132 1.366 . S
C3132 C3131 1.366 . S
C3132 C3133 1.414 . S
C3132 C3135 1.499 . S
C3133 H3107 0.950 . S
C3133 C3132 1.414 . S
C3133 C3134 1.374 . S
C3134 H3108 0.950 . S
C3134 C3130 1.385 . S
C3134 C3133 1.374 . S
C3135 C3132 1.499 . S
C3135 C3136 1.373 . S
C3135 C3137 1.389 . S
C3136 H3109 0.950 . S
C3136 C3122 1.377 . S
C3136 C3135 1.373 . S
C3137 C3121 1.377 . S
C3137 C3135 1.389 . S
C3137 C3138 1.524 . S
C3138 C3137 1.524 . S
C3138 C3139 1.397 . S
C3138 C3143 1.363 . S
C3139 H3110 0.950 . S
C3139 C3138 1.397 . S
C3139 C3140 1.334 . S
C3140 H3111 0.950 . S
C3140 C3139 1.334 . S
C3140 C3141 1.287 . S
C3141 C3140 1.287 . S
C3141 C3142 1.524 . S
C3141 H3144 0.999 . S
C3142 H3112 0.950 . S
C3142 C3141 1.524 . S
C3142 C3143 1.415 . S
C3143 H3113 0.950 . S
C3143 C3138 1.363 . S
C3143 C3142 1.415 . S
H3144 C3141 0.999 . S
H3145 C3126 0.913 . S
H3146 C3164 0.951 . S
H3147 C3166 0.951 . S
H3148 C3168 0.950 . S
H3149 C3169 0.950 . S
H3150 C3171 0.950 . S
H3151 C3174 0.950 . S
H3152 C3175 0.950 . S
H3153 C3177 0.950 . S
H3154 C3178 0.950 . S
H3155 C3179 0.951 . S
H3156 C3181 0.951 . S
H3157 C3183 0.950 . S
H3158 C3184 0.950 . S
H3159 C3186 0.950 . S
H3160 C3189 0.950 . S
H3161 C3190 0.950 . S
H3162 C3192 0.950 . S
H3163 C3193 0.950 . S
C3164 H3146 0.951 . S
C3164 C3165 1.366 . S
C3164 C3166 1.388 . S
C3165 C3164 1.366 . S
C3165 C3169 1.385 . S
C3166 H3147 0.951 . S
C3166 C3164 1.388 . S
C3166 C3167 1.366 . S
C3167 C3166 1.366 . S
C3167 C3168 1.414 . S
C3167 C3170 1.499 . S
C3168 H3148 0.950 . S
C3168 C3167 1.414 . S
C3168 C3169 1.374 . S
C3169 H3149 0.950 . S
C3169 C3165 1.385 . S
C3169 C3168 1.374 . S
C3170 C3167 1.499 . S
C3170 C3171 1.373 . S
C3170 C3172 1.389 . S
C3171 H3150 0.950 . S
C3171 C3170 1.373 . S
C3171 C3187 1.377 . S
C3172 C3170 1.389 . S
C3172 C3173 1.524 . S
C3172 C3186 1.377 . S
C3173 C3172 1.524 . S
C3173 C3174 1.397 . S
C3173 C3178 1.363 . S
C3174 H3151 0.950 . S
C3174 C3173 1.397 . S
C3174 C3175 1.334 . S
C3175 H3152 0.950 . S
C3175 C3174 1.334 . S
C3175 C3176 1.287 . S
C3176 C3175 1.287 . S
C3176 C3177 1.524 . S
C3176 H3195 0.913 . S
C3177 H3153 0.950 . S
C3177 C3176 1.524 . S
C3177 C3178 1.415 . S
C3178 H3154 0.950 . S
C3178 C3173 1.363 . S
C3178 C3177 1.415 . S
C3179 H3155 0.951 . S
C3179 C3180 1.366 . S
C3179 C3181 1.388 . S
C3180 C3179 1.366 . S
C3180 C3184 1.385 . S
C3181 H3156 0.951 . S
C3181 C3179 1.388 . S
C3181 C3182 1.366 . S
C3182 C3181 1.366 . S
C3182 C3183 1.414 . S
C3182 C3185 1.499 . S
C3183 H3157 0.950 . S
C3183 C3182 1.414 . S
C3183 C3184 1.374 . S
C3184 H3158 0.950 . S
C3184 C3180 1.385 . S
C3184 C3183 1.374 . S
C3185 C3182 1.499 . S
C3185 C3186 1.373 . S
C3185 C3187 1.389 . S
C3186 H3159 0.950 . S
C3186 C3172 1.377 . S
C3186 C3185 1.373 . S
C3187 C3171 1.377 . S
C3187 C3185 1.389 . S
C3187 C3188 1.524 . S
C3188 C3187 1.524 . S
C3188 C3189 1.397 . S
C3188 C3193 1.363 . S
C3189 H3160 0.950 . S
C3189 C3188 1.397 . S
C3189 C3190 1.334 . S
C3190 H3161 0.950 . S
C3190 C3189 1.334 . S
C3190 C3191 1.287 . S
C3191 C3190 1.287 . S
C3191 C3192 1.524 . S
C3191 H3194 0.999 . S
C3192 H3162 0.950 . S
C3192 C3191 1.524 . S
C3192 C3193 1.415 . S
C3193 H3163 0.950 . S
C3193 C3188 1.363 . S
C3193 C3192 1.415 . S
H3194 C3191 0.999 . S
H3195 C3176 0.913 . S
H3196 C3214 0.951 . S
H3197 C3216 0.951 . S
H3198 C3218 0.950 . S
H3199 C3219 0.950 . S
H3200 C3221 0.950 . S
H3201 C3224 0.950 . S
H3202 C3225 0.950 . S
H3203 C3227 0.950 . S
H3204 C3228 0.950 . S
H3205 C3229 0.951 . S
H3206 C3231 0.951 . S
H3207 C3233 0.950 . S
H3208 C3234 0.950 . S
H3209 C3236 0.950 . S
H3210 C3239 0.950 . S
H3211 C3240 0.950 . S
H3212 C3242 0.950 . S
H3213 C3243 0.950 . S
C3214 H3196 0.951 . S
C3214 C3215 1.366 . S
C3214 C3216 1.388 . S
C3215 C3214 1.366 . S
C3215 C3219 1.385 . S
C3216 H3197 0.951 . S
C3216 C3214 1.388 . S
C3216 C3217 1.366 . S
C3217 C3216 1.366 . S
C3217 C3218 1.414 . S
C3217 C3220 1.499 . S
C3218 H3198 0.950 . S
C3218 C3217 1.414 . S
C3218 C3219 1.374 . S
C3219 H3199 0.950 . S
C3219 C3215 1.385 . S
C3219 C3218 1.374 . S
C3220 C3217 1.499 . S
C3220 C3221 1.373 . S
C3220 C3222 1.389 . S
C3221 H3200 0.950 . S
C3221 C3220 1.373 . S
C3221 C3237 1.377 . S
C3222 C3220 1.389 . S
C3222 C3223 1.524 . S
C3222 C3236 1.377 . S
C3223 C3222 1.524 . S
C3223 C3224 1.397 . S
C3223 C3228 1.363 . S
C3224 H3201 0.950 . S
C3224 C3223 1.397 . S
C3224 C3225 1.334 . S
C3225 H3202 0.950 . S
C3225 C3224 1.334 . S
C3225 C3226 1.287 . S
C3226 C3225 1.287 . S
C3226 C3227 1.524 . S
C3226 H3245 0.913 . S
C3227 H3203 0.950 . S
C3227 C3226 1.524 . S
C3227 C3228 1.415 . S
C3228 H3204 0.950 . S
C3228 C3223 1.363 . S
C3228 C3227 1.415 . S
C3229 H3205 0.951 . S
C3229 C3230 1.366 . S
C3229 C3231 1.388 . S
C3230 C3229 1.366 . S
C3230 C3234 1.385 . S
C3231 H3206 0.951 . S
C3231 C3229 1.388 . S
C3231 C3232 1.366 . S
C3232 C3231 1.366 . S
C3232 C3233 1.414 . S
C3232 C3235 1.499 . S
C3233 H3207 0.950 . S
C3233 C3232 1.414 . S
C3233 C3234 1.374 . S
C3234 H3208 0.950 . S
C3234 C3230 1.385 . S
C3234 C3233 1.374 . S
C3235 C3232 1.499 . S
C3235 C3236 1.373 . S
C3235 C3237 1.389 . S
C3236 H3209 0.950 . S
C3236 C3222 1.377 . S
C3236 C3235 1.373 . S
C3237 C3221 1.377 . S
C3237 C3235 1.389 . S
C3237 C3238 1.524 . S
C3238 C3237 1.524 . S
C3238 C3239 1.397 . S
C3238 C3243 1.363 . S
C3239 H3210 0.950 . S
C3239 C3238 1.397 . S
C3239 C3240 1.334 . S
C3240 H3211 0.950 . S
C3240 C3239 1.334 . S
C3240 C3241 1.287 . S
C3241 C3240 1.287 . S
C3241 C3242 1.524 . S
C3241 H3244 0.999 . S
C3242 H3212 0.950 . S
C3242 C3241 1.524 . S
C3242 C3243 1.415 . S
C3243 H3213 0.950 . S
C3243 C3238 1.363 . S
C3243 C3242 1.415 . S
H3244 C3241 0.999 . S
H3245 C3226 0.913 . S
H3246 C3264 0.951 . S
H3247 C3266 0.951 . S
H3248 C3268 0.950 . S
H3249 C3269 0.950 . S
H3250 C3271 0.950 . S
H3251 C3274 0.950 . S
H3252 C3275 0.950 . S
H3253 C3277 0.950 . S
H3254 C3278 0.950 . S
H3255 C3279 0.951 . S
H3256 C3281 0.951 . S
H3257 C3283 0.950 . S
H3258 C3284 0.950 . S
H3259 C3286 0.950 . S
H3260 C3289 0.950 . S
H3261 C3290 0.950 . S
H3262 C3292 0.950 . S
H3263 C3293 0.950 . S
C3264 H3246 0.951 . S
C3264 C3265 1.366 . S
C3264 C3266 1.388 . S
C3265 C3264 1.366 . S
C3265 C3269 1.385 . S
C3266 H3247 0.951 . S
C3266 C3264 1.388 . S
C3266 C3267 1.366 . S
C3267 C3266 1.366 . S
C3267 C3268 1.414 . S
C3267 C3270 1.499 . S
C3268 H3248 0.950 . S
C3268 C3267 1.414 . S
C3268 C3269 1.374 . S
C3269 H3249 0.950 . S
C3269 C3265 1.385 . S
C3269 C3268 1.374 . S
C3270 C3267 1.499 . S
C3270 C3271 1.373 . S
C3270 C3272 1.389 . S
C3271 H3250 0.950 . S
C3271 C3270 1.373 . S
C3271 C3287 1.377 . S
C3272 C3270 1.389 . S
C3272 C3273 1.524 . S
C3272 C3286 1.377 . S
C3273 C3272 1.524 . S
C3273 C3274 1.397 . S
C3273 C3278 1.363 . S
C3274 H3251 0.950 . S
C3274 C3273 1.397 . S
C3274 C3275 1.334 . S
C3275 H3252 0.950 . S
C3275 C3274 1.334 . S
C3275 C3276 1.287 . S
C3276 C3275 1.287 . S
C3276 C3277 1.524 . S
C3276 H3295 0.913 . S
C3277 H3253 0.950 . S
C3277 C3276 1.524 . S
C3277 C3278 1.415 . S
C3278 H3254 0.950 . S
C3278 C3273 1.363 . S
C3278 C3277 1.415 . S
C3279 H3255 0.951 . S
C3279 C3280 1.366 . S
C3279 C3281 1.388 . S
C3280 C3279 1.366 . S
C3280 C3284 1.385 . S
C3281 H3256 0.951 . S
C3281 C3279 1.388 . S
C3281 C3282 1.366 . S
C3282 C3281 1.366 . S
C3282 C3283 1.414 . S
C3282 C3285 1.499 . S
C3283 H3257 0.950 . S
C3283 C3282 1.414 . S
C3283 C3284 1.374 . S
C3284 H3258 0.950 . S
C3284 C3280 1.385 . S
C3284 C3283 1.374 . S
C3285 C3282 1.499 . S
C3285 C3286 1.373 . S
C3285 C3287 1.389 . S
C3286 H3259 0.950 . S
C3286 C3272 1.377 . S
C3286 C3285 1.373 . S
C3287 C3271 1.377 . S
C3287 C3285 1.389 . S
C3287 C3288 1.524 . S
C3288 C3287 1.524 . S
C3288 C3289 1.397 . S
C3288 C3293 1.363 . S
C3289 H3260 0.950 . S
C3289 C3288 1.397 . S
C3289 C3290 1.334 . S
C3290 H3261 0.950 . S
C3290 C3289 1.334 . S
C3290 C3291 1.287 . S
C3291 C3290 1.287 . S
C3291 C3292 1.524 . S
C3291 H3294 0.999 . S
C3292 H3262 0.950 . S
C3292 C3291 1.524 . S
C3292 C3293 1.415 . S
C3293 H3263 0.950 . S
C3293 C3288 1.363 . S
C3293 C3292 1.415 . S
H3294 C3291 0.999 . S
H3295 C3276 0.913 . S
H3296 C3314 0.951 . S
H3297 C3316 0.951 . S
H3298 C3318 0.950 . S
H3299 C3319 0.950 . S
H3300 C3321 0.950 . S
H3301 C3324 0.950 . S
H3302 C3325 0.950 . S
H3303 C3327 0.950 . S
H3304 C3328 0.950 . S
H3305 C3329 0.951 . S
H3306 C3331 0.951 . S
H3307 C3333 0.950 . S
H3308 C3334 0.950 . S
H3309 C3336 0.950 . S
H3310 C3339 0.950 . S
H3311 C3340 0.950 . S
H3312 C3342 0.950 . S
H3313 C3343 0.950 . S
C3314 H3296 0.951 . S
C3314 C3315 1.366 . S
C3314 C3316 1.388 . S
C3315 C3314 1.366 . S
C3315 C3319 1.385 . S
C3316 H3297 0.951 . S
C3316 C3314 1.388 . S
C3316 C3317 1.366 . S
C3317 C3316 1.366 . S
C3317 C3318 1.414 . S
C3317 C3320 1.499 . S
C3318 H3298 0.950 . S
C3318 C3317 1.414 . S
C3318 C3319 1.374 . S
C3319 H3299 0.950 . S
C3319 C3315 1.385 . S
C3319 C3318 1.374 . S
C3320 C3317 1.499 . S
C3320 C3321 1.373 . S
C3320 C3322 1.389 . S
C3321 H3300 0.950 . S
C3321 C3320 1.373 . S
C3321 C3337 1.377 . S
C3322 C3320 1.389 . S
C3322 C3323 1.524 . S
C3322 C3336 1.377 . S
C3323 C3322 1.524 . S
C3323 C3324 1.397 . S
C3323 C3328 1.363 . S
C3324 H3301 0.950 . S
C3324 C3323 1.397 . S
C3324 C3325 1.334 . S
C3325 H3302 0.950 . S
C3325 C3324 1.334 . S
C3325 C3326 1.287 . S
C3326 C3325 1.287 . S
C3326 C3327 1.524 . S
C3326 H3345 0.913 . S
C3327 H3303 0.950 . S
C3327 C3326 1.524 . S
C3327 C3328 1.415 . S
C3328 H3304 0.950 . S
C3328 C3323 1.363 . S
C3328 C3327 1.415 . S
C3329 H3305 0.951 . S
C3329 C3330 1.366 . S
C3329 C3331 1.388 . S
C3330 C3329 1.366 . S
C3330 C3334 1.385 . S
C3331 H3306 0.951 . S
C3331 C3329 1.388 . S
C3331 C3332 1.366 . S
C3332 C3331 1.366 . S
C3332 C3333 1.414 . S
C3332 C3335 1.499 . S
C3333 H3307 0.950 . S
C3333 C3332 1.414 . S
C3333 C3334 1.374 . S
C3334 H3308 0.950 . S
C3334 C3330 1.385 . S
C3334 C3333 1.374 . S
C3335 C3332 1.499 . S
C3335 C3336 1.373 . S
C3335 C3337 1.389 . S
C3336 H3309 0.950 . S
C3336 C3322 1.377 . S
C3336 C3335 1.373 . S
C3337 C3321 1.377 . S
C3337 C3335 1.389 . S
C3337 C3338 1.524 . S
C3338 C3337 1.524 . S
C3338 C3339 1.397 . S
C3338 C3343 1.363 . S
C3339 H3310 0.950 . S
C3339 C3338 1.397 . S
C3339 C3340 1.334 . S
C3340 H3311 0.950 . S
C3340 C3339 1.334 . S
C3340 C3341 1.287 . S
C3341 C3340 1.287 . S
C3341 C3342 1.524 . S
C3341 H3344 0.999 . S
C3342 H3312 0.950 . S
C3342 C3341 1.524 . S
C3342 C3343 1.415 . S
C3343 H3313 0.950 . S
C3343 C3338 1.363 . S
C3343 C3342 1.415 . S
H3344 C3341 0.999 . S
H3345 C3326 0.913 . S
H3346 C3364 0.951 . S
H3347 C3366 0.951 . S
H3348 C3368 0.950 . S
H3349 C3369 0.950 . S
H3350 C3371 0.950 . S
H3351 C3374 0.950 . S
H3352 C3375 0.950 . S
H3353 C3377 0.950 . S
H3354 C3378 0.950 . S
H3355 C3379 0.951 . S
H3356 C3381 0.951 . S
H3357 C3383 0.950 . S
H3358 C3384 0.950 . S
H3359 C3386 0.950 . S
H3360 C3389 0.950 . S
H3361 C3390 0.950 . S
H3362 C3392 0.950 . S
H3363 C3393 0.950 . S
C3364 H3346 0.951 . S
C3364 C3365 1.366 . S
C3364 C3366 1.388 . S
C3365 C3364 1.366 . S
C3365 C3369 1.385 . S
C3366 H3347 0.951 . S
C3366 C3364 1.388 . S
C3366 C3367 1.366 . S
C3367 C3366 1.366 . S
C3367 C3368 1.414 . S
C3367 C3370 1.499 . S
C3368 H3348 0.950 . S
C3368 C3367 1.414 . S
C3368 C3369 1.374 . S
C3369 H3349 0.950 . S
C3369 C3365 1.385 . S
C3369 C3368 1.374 . S
C3370 C3367 1.499 . S
C3370 C3371 1.373 . S
C3370 C3372 1.389 . S
C3371 H3350 0.950 . S
C3371 C3370 1.373 . S
C3371 C3387 1.377 . S
C3372 C3370 1.389 . S
C3372 C3373 1.524 . S
C3372 C3386 1.377 . S
C3373 C3372 1.524 . S
C3373 C3374 1.397 . S
C3373 C3378 1.363 . S
C3374 H3351 0.950 . S
C3374 C3373 1.397 . S
C3374 C3375 1.334 . S
C3375 H3352 0.950 . S
C3375 C3374 1.334 . S
C3375 C3376 1.287 . S
C3376 C3375 1.287 . S
C3376 C3377 1.524 . S
C3376 H3395 0.913 . S
C3377 H3353 0.950 . S
C3377 C3376 1.524 . S
C3377 C3378 1.415 . S
C3378 H3354 0.950 . S
C3378 C3373 1.363 . S
C3378 C3377 1.415 . S
C3379 H3355 0.951 . S
C3379 C3380 1.366 . S
C3379 C3381 1.388 . S
C3380 C3379 1.366 . S
C3380 C3384 1.385 . S
C3381 H3356 0.951 . S
C3381 C3379 1.388 . S
C3381 C3382 1.366 . S
C3382 C3381 1.366 . S
C3382 C3383 1.414 . S
C3382 C3385 1.499 . S
C3383 H3357 0.950 . S
C3383 C3382 1.414 . S
C3383 C3384 1.374 . S
C3384 H3358 0.950 . S
C3384 C3380 1.385 . S
C3384 C3383 1.374 . S
C3385 C3382 1.499 . S
C3385 C3386 1.373 . S
C3385 C3387 1.389 . S
C3386 H3359 0.950 . S
C3386 C3372 1.377 . S
C3386 C3385 1.373 . S
C3387 C3371 1.377 . S
C3387 C3385 1.389 . S
C3387 C3388 1.524 . S
C3388 C3387 1.524 . S
C3388 C3389 1.397 . S
C3388 C3393 1.363 . S
C3389 H3360 0.950 . S
C3389 C3388 1.397 . S
C3389 C3390 1.334 . S
C3390 H3361 0.950 . S
C3390 C3389 1.334 . S
C3390 C3391 1.287 . S
C3391 C3390 1.287 . S
C3391 C3392 1.524 . S
C3391 H3394 0.999 . S
C3392 H3362 0.950 . S
C3392 C3391 1.524 . S
C3392 C3393 1.415 . S
C3393 H3363 0.950 . S
C3393 C3388 1.363 . S
C3393 C3392 1.415 . S
H3394 C3391 0.999 . S
H3395 C3376 0.913 . S
C1030 C707 1.104 . S
C1015 C74 1.047 . S
C1080 C685 0.330 . S
C1065 C142 0.706 . S
C1130 C682 0.524 . S
C1115 C231 0.585 . S
C1165 C322 1.707 . S
C1180 C694 1.792 . S
C1215 C406 0.707 . S
C1230 C677 0.336 . S
C1280 C699 0.523 . S
C1265 C494 0.584 . S
C1315 C562 1.710 . S
C1330 C704 1.799 . S
C1365 C651 1.047 . S
C1380 C700 1.106 . S
C1430 C758 1.821 . S
C1415 C58 1.731 . S
C1465 C151 1.172 . S
C1480 C808 1.223 . S
C1530 C731 2.826 . S
C1515 C224 2.729 . S
C1580 C807 0.508 . S
C1565 C315 0.580 . S
C1615 C399 0.598 . S
C1630 C736 0.522 . S
C1680 C802 1.810 . S
C1665 C478 1.720 . S
C1715 C571 1.136 . S
C1730 C761 1.209 . S
C1765 C644 2.736 . S
C1780 C793 2.825 . S
C1815 C67 2.739 . S
C1830 C785 2.827 . S
C1865 C392 1.178 . S
C1880 C815 1.231 . S
C1930 C739 2.845 . S
C1915 C487 2.742 . S
C1980 C790 0.524 . S
C1965 C578 0.589 . S
C2015 C658 1.737 . S
C2030 C748 1.824 . S
C2065 C238 1.736 . S
C2080 C812 1.827 . S
C2130 C754 1.221 . S
C2115 C308 1.147 . S
C2165 C158 0.606 . S
C2180 C753 0.535 . S
C2215 C662 1.046 . S
C2230 C869 1.104 . S
C2265 C394 0.703 . S
C2280 C847 0.332 . S
C2330 C844 0.523 . S
C2315 C483 0.581 . S
C2380 C856 1.792 . S
C2365 C574 1.707 . S
C2415 C154 0.707 . S
C2430 C839 0.337 . S
C2480 C861 0.523 . S
C2465 C242 0.584 . S
C2515 C310 1.710 . S
C2530 C866 1.799 . S
C2565 C63 1.049 . S
C2580 C862 1.105 . S
C2615 C646 1.732 . S
C2630 C920 1.821 . S
C2680 C970 1.224 . S
C2665 C403 1.172 . S
C2715 C476 2.729 . S
C2730 C893 2.826 . S
C2765 C567 0.580 . S
C2780 C969 0.507 . S
C2830 C898 0.522 . S
C2815 C147 0.598 . S
C2865 C226 1.722 . S
C2880 C964 1.810 . S
C2930 C923 1.209 . S
C2915 C319 1.135 . S
C2980 C955 2.825 . S
C2965 C56 2.736 . S
C3030 C947 2.828 . S
C3015 C655 2.740 . S
C3065 C140 1.177 . S
C3080 C977 1.230 . S
C3115 C235 2.742 . S
C3130 C901 2.845 . S
C3180 C952 0.524 . S
C3165 C326 0.591 . S
C3215 C70 1.736 . S
C3230 C910 1.824 . S
C3265 C490 1.735 . S
C3280 C974 1.827 . S
C3330 C916 1.222 . S
C3315 C560 1.146 . S
C3380 C915 0.536 . S
C3365 C410 0.602 . S
