# Generated by pormake.
# Topology ocu, (6,8)-cn, num edge types: 1
# Building blocks:
#     Node 0, Type 0, BuildingBlock: KUMBUR_clean_sbu_0, # of connection points: 6
#     Node 1, Type 0, BuildingBlock: KUMBUR_clean_sbu_0, # of connection points: 6
#     Node 2, Type 0, BuildingBlock: KUMBUR_clean_sbu_0, # of connection points: 6
#     Node 3, Type 0, BuildingBlock: KUMBUR_clean_sbu_0, # of connection points: 6
#     Node 4, Type 0, BuildingBlock: KUMBUR_clean_sbu_0, # of connection points: 6
#     Node 5, Type 0, BuildingBlock: KUMBUR_clean_sbu_0, # of connection points: 6
#     Node 6, Type 0, BuildingBlock: KUMBUR_clean_sbu_0, # of connection points: 6
#     Node 7, Type 0, BuildingBlock: KUMBUR_clean_sbu_0, # of connection points: 6
#     Node 8, Type 1, BuildingBlock: TAGTUT_clean_sbu_1, # of connection points: 8
#     Node 9, Type 1, BuildingBlock: TAGTUT_clean_sbu_1, # of connection points: 8
#     Node 10, Type 1, BuildingBlock: TAGTUT_clean_sbu_1, # of connection points: 8
#     Node 11, Type 1, BuildingBlock: TAGTUT_clean_sbu_1, # of connection points: 8
#     Node 12, Type 1, BuildingBlock: TAGTUT_clean_sbu_1, # of connection points: 8
#     Node 13, Type 1, BuildingBlock: TAGTUT_clean_sbu_1, # of connection points: 8
#     Edge 14, Type (0, 1), BuildingBlock: XUDNAN_clean_linker_2, # of connection points: 2
#     Edge 15, Type (0, 1), BuildingBlock: XUDNAN_clean_linker_2, # of connection points: 2
#     Edge 16, Type (0, 1), BuildingBlock: XUDNAN_clean_linker_2, # of connection points: 2
#     Edge 17, Type (0, 1), BuildingBlock: XUDNAN_clean_linker_2, # of connection points: 2
#     Edge 18, Type (0, 1), BuildingBlock: XUDNAN_clean_linker_2, # of connection points: 2
#     Edge 19, Type (0, 1), BuildingBlock: XUDNAN_clean_linker_2, # of connection points: 2
#     Edge 20, Type (0, 1), BuildingBlock: XUDNAN_clean_linker_2, # of connection points: 2
#     Edge 21, Type (0, 1), BuildingBlock: XUDNAN_clean_linker_2, # of connection points: 2
#     Edge 22, Type (0, 1), BuildingBlock: XUDNAN_clean_linker_2, # of connection points: 2
#     Edge 23, Type (0, 1), BuildingBlock: XUDNAN_clean_linker_2, # of connection points: 2
#     Edge 24, Type (0, 1), BuildingBlock: XUDNAN_clean_linker_2, # of connection points: 2
#     Edge 25, Type (0, 1), BuildingBlock: XUDNAN_clean_linker_2, # of connection points: 2
#     Edge 26, Type (0, 1), BuildingBlock: XUDNAN_clean_linker_2, # of connection points: 2
#     Edge 27, Type (0, 1), BuildingBlock: XUDNAN_clean_linker_2, # of connection points: 2
#     Edge 28, Type (0, 1), BuildingBlock: XUDNAN_clean_linker_2, # of connection points: 2
#     Edge 29, Type (0, 1), BuildingBlock: XUDNAN_clean_linker_2, # of connection points: 2
#     Edge 30, Type (0, 1), BuildingBlock: XUDNAN_clean_linker_2, # of connection points: 2
#     Edge 31, Type (0, 1), BuildingBlock: XUDNAN_clean_linker_2, # of connection points: 2
#     Edge 32, Type (0, 1), BuildingBlock: XUDNAN_clean_linker_2, # of connection points: 2
#     Edge 33, Type (0, 1), BuildingBlock: XUDNAN_clean_linker_2, # of connection points: 2
#     Edge 34, Type (0, 1), BuildingBlock: XUDNAN_clean_linker_2, # of connection points: 2
#     Edge 35, Type (0, 1), BuildingBlock: XUDNAN_clean_linker_2, # of connection points: 2
#     Edge 36, Type (0, 1), BuildingBlock: XUDNAN_clean_linker_2, # of connection points: 2
#     Edge 37, Type (0, 1), BuildingBlock: XUDNAN_clean_linker_2, # of connection points: 2
#     Edge 38, Type (0, 1), BuildingBlock: XUDNAN_clean_linker_2, # of connection points: 2
#     Edge 39, Type (0, 1), BuildingBlock: XUDNAN_clean_linker_2, # of connection points: 2
#     Edge 40, Type (0, 1), BuildingBlock: XUDNAN_clean_linker_2, # of connection points: 2
#     Edge 41, Type (0, 1), BuildingBlock: XUDNAN_clean_linker_2, # of connection points: 2
#     Edge 42, Type (0, 1), BuildingBlock: XUDNAN_clean_linker_2, # of connection points: 2
#     Edge 43, Type (0, 1), BuildingBlock: XUDNAN_clean_linker_2, # of connection points: 2
#     Edge 44, Type (0, 1), BuildingBlock: XUDNAN_clean_linker_2, # of connection points: 2
#     Edge 45, Type (0, 1), BuildingBlock: XUDNAN_clean_linker_2, # of connection points: 2
#     Edge 46, Type (0, 1), BuildingBlock: XUDNAN_clean_linker_2, # of connection points: 2
#     Edge 47, Type (0, 1), BuildingBlock: XUDNAN_clean_linker_2, # of connection points: 2
#     Edge 48, Type (0, 1), BuildingBlock: XUDNAN_clean_linker_2, # of connection points: 2
#     Edge 49, Type (0, 1), BuildingBlock: XUDNAN_clean_linker_2, # of connection points: 2
#     Edge 50, Type (0, 1), BuildingBlock: XUDNAN_clean_linker_2, # of connection points: 2
#     Edge 51, Type (0, 1), BuildingBlock: XUDNAN_clean_linker_2, # of connection points: 2
#     Edge 52, Type (0, 1), BuildingBlock: XUDNAN_clean_linker_2, # of connection points: 2
#     Edge 53, Type (0, 1), BuildingBlock: XUDNAN_clean_linker_2, # of connection points: 2
#     Edge 54, Type (0, 1), BuildingBlock: XUDNAN_clean_linker_2, # of connection points: 2
#     Edge 55, Type (0, 1), BuildingBlock: XUDNAN_clean_linker_2, # of connection points: 2
#     Edge 56, Type (0, 1), BuildingBlock: XUDNAN_clean_linker_2, # of connection points: 2
#     Edge 57, Type (0, 1), BuildingBlock: XUDNAN_clean_linker_2, # of connection points: 2
#     Edge 58, Type (0, 1), BuildingBlock: XUDNAN_clean_linker_2, # of connection points: 2
#     Edge 59, Type (0, 1), BuildingBlock: XUDNAN_clean_linker_2, # of connection points: 2
#     Edge 60, Type (0, 1), BuildingBlock: XUDNAN_clean_linker_2, # of connection points: 2
#     Edge 61, Type (0, 1), BuildingBlock: XUDNAN_clean_linker_2, # of connection points: 2
# Relax obj value: 0.099
# Max RMSD: 0.265
# Mean RMSD: 0.150
data_MOF--net-ocu--node1-KUMBUR_clean_sbu_0--node2-TAGTUT_clean_sbu_1--edge1-XUDNAN_clean_linker_2
_symmetry_space_group_name_H-M    P1
_symmetry_Int_Tables_number       1
_symmetry_cell_setting            triclinic
loop_
_symmetry_equiv_pos_as_xyz
'x, y, z'
_cell_length_a     39.100043
_cell_length_b     37.575597
_cell_length_c     42.991907
_cell_angle_alpha  78.482316
_cell_angle_beta   102.0712
_cell_angle_gamma 114.10862
loop_
_atom_site_label
_atom_site_type_symbol
_atom_site_fract_x
_atom_site_fract_y
_atom_site_fract_z
_atom_type_partial_charge
Tb0 Tb 0.25394 0.21324 0.23811 0.0
C1 C 0.39752 0.32692 0.30965 0.0
C2 C 0.41261 0.2917 0.36063 0.0
C3 C 0.46296 0.3451 0.33502 0.0
C4 C 0.38604 0.29718 0.33437 0.0
C5 C 0.43603 0.35161 0.30976 0.0
C6 C 0.45124 0.31528 0.3605 0.0
C7 C 0.41792 0.38914 0.26144 0.0
N8 N 0.37053 0.3326 0.28607 0.0
C9 C 0.38002 0.36411 0.26263 0.0
C10 C 0.44612 0.38266 0.28494 0.0
Tb11 Tb 0.30929 0.28962 0.28974 0.0
N12 N 0.34847 0.27544 0.3337 0.0
C13 C 0.33536 0.24943 0.35981 0.0
C14 C 0.39941 0.26367 0.38667 0.0
C15 C 0.36057 0.24269 0.38637 0.0
H16 H 0.35854 0.3693 0.24422 0.0
H17 H 0.34998 0.2214 0.40661 0.0
H18 H 0.47215 0.31122 0.38029 0.0
H19 H 0.42535 0.41342 0.2424 0.0
H20 H 0.30542 0.23313 0.36014 0.0
H21 H 0.21072 0.28785 0.12533 0.0
H22 H 0.41884 0.25869 0.40741 0.0
H23 H 0.20815 0.12679 0.27753 0.0
H24 H 0.25598 0.275 0.1706 0.0
H25 H 0.14285 0.07755 0.27644 0.0
H26 H 0.49275 0.36357 0.33549 0.0
H27 H 0.14234 0.24675 0.12314 0.0
H28 H 0.09045 0.18822 0.14723 0.0
H29 H 0.47542 0.40224 0.28408 0.0
H30 H 0.07188 0.13068 0.1885 0.0
N31 N 0.21392 0.22757 0.1948 0.0
C32 C 0.22636 0.2566 0.17012 0.0
C33 C 0.16215 0.24093 0.14318 0.0
C34 C 0.14981 0.20976 0.16747 0.0
C35 C 0.20071 0.2641 0.14428 0.0
C36 C 0.17682 0.20366 0.19306 0.0
H37 H 0.09138 0.08871 0.23656 0.0
N38 N 0.194 0.16603 0.23892 0.0
C39 C 0.14905 0.10398 0.25935 0.0
C40 C 0.16644 0.1716 0.21603 0.0
C41 C 0.18613 0.13199 0.25981 0.0
C42 C 0.12006 0.11045 0.2369 0.0
C43 C 0.12867 0.1443 0.21447 0.0
O44 O 0.26302 0.16343 0.23283 0.0
O45 O 0.2973 0.23203 0.27869 0.0
O46 O 0.3461 0.28492 0.26032 0.0
O47 O 0.29978 0.26334 0.21729 0.0
O48 O 0.27322 0.17367 0.27589 0.0
O49 O 0.2742 0.21365 0.19631 0.0
O50 O 0.30614 0.34347 0.29286 0.0
O51 O 0.2626 0.26935 0.25148 0.0
O52 O 0.21649 0.21067 0.27088 0.0
O53 O 0.26232 0.24221 0.31191 0.0
O54 O 0.29199 0.3281 0.24905 0.0
O55 O 0.29191 0.2952 0.33086 0.0
C56 C 0.29929 0.19952 0.2923 0.0
C57 C 0.25999 0.15205 0.18005 0.0
C58 C 0.27383 0.11528 0.14663 0.0
C59 C 0.28589 0.1418 0.16941 0.0
C60 C 0.23514 0.09995 0.13408 0.0
C61 C 0.2216 0.13647 0.16736 0.0
C62 C 0.20933 0.11064 0.14434 0.0
C63 C 0.3357 0.27956 0.2298 0.0
C64 C 0.27412 0.17841 0.2049 0.0
C65 C 0.10115 0.15109 0.18999 0.0
C66 C 0.11172 0.18383 0.1665 0.0
C67 C 0.26325 0.30168 0.2352 0.0
C68 C 0.31323 0.35894 0.34521 0.0
C69 C 0.29141 0.37589 0.35429 0.0
C70 C 0.30671 0.40139 0.37802 0.0
C71 C 0.34433 0.40951 0.39268 0.0
C72 C 0.35079 0.36761 0.35986 0.0
C73 C 0.3662 0.3928 0.38352 0.0
C74 C 0.22685 0.22167 0.3001 0.0
C75 C 0.29547 0.33145 0.32116 0.0
H76 H 0.31562 0.15474 0.17898 0.0
H77 H 0.22465 0.07917 0.1168 0.0
H78 H 0.20124 0.14408 0.17531 0.0
H79 H 0.17962 0.09851 0.13465 0.0
H80 H 0.26219 0.36859 0.3432 0.0
H81 H 0.35698 0.42917 0.41088 0.0
H82 H 0.36804 0.35484 0.3532 0.0
H83 H 0.39521 0.39938 0.39481 0.0
Tb84 Tb 0.84559 0.2315 0.28087 0.0
C85 C 0.70583 0.27716 0.26145 0.0
C86 C 0.65419 0.22101 0.28211 0.0
C87 C 0.65588 0.28688 0.27977 0.0
C88 C 0.68893 0.23726 0.26985 0.0
C89 C 0.68937 0.30255 0.26589 0.0
C90 C 0.63822 0.24611 0.28776 0.0
C91 C 0.73789 0.35619 0.2393 0.0
N92 N 0.73703 0.29073 0.24674 0.0
C93 C 0.75259 0.32963 0.23478 0.0
C94 C 0.70632 0.34266 0.25518 0.0
Tb95 Tb 0.75934 0.24525 0.24033 0.0
N96 N 0.70488 0.21415 0.26326 0.0
C97 C 0.68599 0.17421 0.26635 0.0
C98 C 0.63577 0.18009 0.28689 0.0
C99 C 0.65151 0.15661 0.27853 0.0
H100 H 0.77707 0.34048 0.22255 0.0
H101 H 0.63714 0.12496 0.2815 0.0
H102 H 0.61171 0.23424 0.29741 0.0
H103 H 0.75081 0.38704 0.23039 0.0
H104 H 0.69783 0.15561 0.26008 0.0
H105 H 0.97228 0.3512 0.24567 0.0
H106 H 0.60901 0.1664 0.29622 0.0
H107 H 0.81887 0.13449 0.28694 0.0
H108 H 0.91071 0.32147 0.26516 0.0
H109 H 0.84321 0.08764 0.27666 0.0
H110 H 0.64279 0.30588 0.28344 0.0
H111 H 1.00015 0.30915 0.23155 0.0
H112 H 0.99542 0.24119 0.22818 0.0
H113 H 0.6948 0.36324 0.25838 0.0
H114 H 0.96043 0.16951 0.23674 0.0
N115 N 0.90266 0.26257 0.26181 0.0
C116 C 0.92222 0.30245 0.25925 0.0
C117 C 0.97297 0.29579 0.2402 0.0
C118 C 0.95351 0.25498 0.24385 0.0
C119 C 0.95736 0.3196 0.24818 0.0
C120 C 0.91818 0.23913 0.2551 0.0
H121 H 0.90374 0.11196 0.25498 0.0
N122 N 0.8651 0.18533 0.2712 0.0
C123 C 0.85911 0.11893 0.27183 0.0
C124 C 0.89871 0.19905 0.25998 0.0
C125 C 0.84552 0.1457 0.27782 0.0
C126 C 0.89326 0.13276 0.25956 0.0
C127 C 0.91365 0.17328 0.25363 0.0
O128 O 0.85995 0.20691 0.32753 0.0
O129 O 0.7881 0.22369 0.28339 0.0
O130 O 0.78593 0.28553 0.27766 0.0
O131 O 0.84833 0.29102 0.28092 0.0
O132 O 0.8056 0.18115 0.30874 0.0
O133 O 0.88371 0.26962 0.3134 0.0
O134 O 0.7388 0.26179 0.19255 0.0
O135 O 0.8179 0.25786 0.24017 0.0
O136 O 0.82561 0.20339 0.23696 0.0
O137 O 0.76345 0.18814 0.24065 0.0
O138 O 0.79525 0.29176 0.20715 0.0
O139 O 0.72449 0.20095 0.21209 0.0
C140 C 0.77777 0.19242 0.30252 0.0
C141 C 0.86762 0.24756 0.36535 0.0
C142 C 0.88052 0.25305 0.42256 0.0
C143 C 0.89168 0.24991 0.39438 0.0
C144 C 0.84384 0.25214 0.421 0.0
C145 C 0.83201 0.24869 0.36399 0.0
C146 C 0.8198 0.24995 0.39181 0.0
C147 C 0.82308 0.30367 0.28603 0.0
C148 C 0.87905 0.24135 0.33716 0.0
C149 C 0.9485 0.18879 0.24187 0.0
C150 C 0.96841 0.22959 0.23698 0.0
C151 C 0.82562 0.28497 0.21697 0.0
C152 C 0.67909 0.21487 0.17398 0.0
C153 C 0.6557 0.22524 0.18771 0.0
C154 C 0.61703 0.21438 0.17586 0.0
C155 C 0.60181 0.19068 0.15074 0.0
C156 C 0.66368 0.19177 0.14889 0.0
C157 C 0.62502 0.17928 0.1376 0.0
C158 C 0.78925 0.18391 0.22773 0.0
C159 C 0.71893 0.22528 0.18755 0.0
H160 H 0.91839 0.2473 0.39495 0.0
H161 H 0.83386 0.25395 0.44207 0.0
H162 H 0.81356 0.24816 0.34157 0.0
H163 H 0.79181 0.24978 0.39066 0.0
H164 H 0.66812 0.24281 0.20707 0.0
H165 H 0.57246 0.18239 0.14006 0.0
H166 H 0.68142 0.18306 0.13835 0.0
H167 H 0.61316 0.16141 0.11815 0.0
Tb168 Tb 0.74233 0.7232 0.27438 0.0
C169 C 0.8503 0.87792 0.20881 0.0
C170 C 0.81115 0.89196 0.16044 0.0
C171 C 0.86372 0.94556 0.18442 0.0
C172 C 0.81985 0.865 0.18542 0.0
C173 C 0.87346 0.91823 0.20807 0.0
C174 C 0.83249 0.93243 0.16065 0.0
C175 C 0.91643 0.90079 0.25139 0.0
N176 N 0.85876 0.85052 0.23101 0.0
C177 C 0.89207 0.86124 0.25158 0.0
C178 C 0.9066 0.92955 0.23013 0.0
Tb179 Tb 0.81788 0.7863 0.2291 0.0
N180 N 0.80055 0.82569 0.18587 0.0
C181 C 0.77443 0.8113 0.16011 0.0
C182 C 0.78237 0.87734 0.13535 0.0
C183 C 0.76448 0.8368 0.13488 0.0
H184 H 0.89996 0.83948 0.2684 0.0
H185 H 0.74295 0.8251 0.11513 0.0
H186 H 0.82598 0.95365 0.1419 0.0
H187 H 0.94277 0.90903 0.26766 0.0
H188 H 0.7601 0.7801 0.15923 0.0
H189 H 0.81548 0.68959 0.39111 0.0
H190 H 0.77468 0.89702 0.11575 0.0
H191 H 0.66354 0.66762 0.23321 0.0
H192 H 0.79891 0.73267 0.34516 0.0
H193 H 0.62156 0.59757 0.23501 0.0
H194 H 0.88087 0.97672 0.18365 0.0
H195 H 0.78395 0.61737 0.3928 0.0
H196 H 0.73365 0.55931 0.36777 0.0
H197 H 0.92542 0.96017 0.23017 0.0
H198 H 0.68045 0.53407 0.32516 0.0
N199 N 0.75917 0.68574 0.31941 0.0
C200 C 0.78467 0.70136 0.34508 0.0
C201 C 0.77657 0.63622 0.37229 0.0
C202 C 0.74843 0.62038 0.34719 0.0
C203 C 0.79431 0.67693 0.37146 0.0
C204 C 0.74015 0.64628 0.32095 0.0
H205 H 0.63774 0.54824 0.27594 0.0
N206 N 0.70279 0.65848 0.27338 0.0
C207 C 0.64691 0.60678 0.25232 0.0
C208 C 0.71071 0.63212 0.29708 0.0
C209 C 0.67068 0.64656 0.25154 0.0
C210 C 0.65609 0.57905 0.27549 0.0
C211 C 0.68807 0.59163 0.29857 0.0
O212 O 0.6877 0.72031 0.27664 0.0
O213 O 0.76177 0.77369 0.23884 0.0
O214 O 0.81621 0.82302 0.26226 0.0
O215 O 0.78336 0.77284 0.29965 0.0
O216 O 0.7064 0.73782 0.23125 0.0
O217 O 0.73526 0.74554 0.31215 0.0
O218 O 0.82834 0.77533 0.18653 0.0
O219 O 0.79839 0.73555 0.26487 0.0
O220 O 0.74616 0.68676 0.24214 0.0
O221 O 0.77607 0.73706 0.20371 0.0
O222 O 0.85355 0.77248 0.27265 0.0
O223 O 0.86952 0.78114 0.22877 0.0
C224 C 0.73124 0.77012 0.2201 0.0
C225 C 0.67585 0.72078 0.3288 0.0
C226 C 0.65554 0.73449 0.3735 0.0
C227 C 0.67615 0.74744 0.34755 0.0
C228 C 0.63399 0.69408 0.3802 0.0
C229 C 0.65471 0.68054 0.33592 0.0
C230 C 0.6337 0.66734 0.36151 0.0
C231 C 0.80393 0.81029 0.29059 0.0
C232 C 0.6993 0.73662 0.30296 0.0
C233 C 0.69723 0.56536 0.32374 0.0
C234 C 0.72748 0.57973 0.34799 0.0
C235 C 0.82882 0.74029 0.28419 0.0
C236 C 0.86076 0.73267 0.19724 0.0
C237 C 0.87519 0.72843 0.1715 0.0
C238 C 0.87514 0.6916 0.16849 0.0
C239 C 0.86026 0.65932 0.19165 0.0
C240 C 0.84564 0.69982 0.21953 0.0
C241 C 0.84542 0.66346 0.21683 0.0
C242 C 0.75724 0.69938 0.2134 0.0
C243 C 0.85935 0.77051 0.20016 0.0
H244 H 0.69244 0.77855 0.3417 0.0
H245 H 0.61787 0.68312 0.40011 0.0
H246 H 0.65456 0.6595 0.3219 0.0
H247 H 0.61732 0.63627 0.36702 0.0
H248 H 0.88591 0.75361 0.15376 0.0
H249 H 0.86061 0.6309 0.19073 0.0
H250 H 0.83332 0.70224 0.23868 0.0
H251 H 0.83373 0.6384 0.23436 0.0
Tb252 Tb 0.31576 0.72296 0.2714 0.0
C253 C 0.24739 0.81964 0.16279 0.0
C254 C 0.29723 0.88264 0.1504 0.0
C255 C 0.24331 0.85655 0.10979 0.0
C256 C 0.28186 0.84848 0.17186 0.0
C257 C 0.22745 0.8234 0.13177 0.0
C258 C 0.27804 0.88625 0.11915 0.0
C259 C 0.17636 0.76309 0.14747 0.0
N260 N 0.23254 0.78875 0.18502 0.0
C261 C 0.19702 0.76098 0.17808 0.0
C262 C 0.19169 0.79438 0.12416 0.0
Tb263 Tb 0.26763 0.78879 0.23482 0.0
N264 N 0.29894 0.84431 0.20248 0.0
C265 C 0.33072 0.8744 0.21362 0.0
C266 C 0.33082 0.91258 0.16127 0.0
C267 C 0.34752 0.90851 0.19309 0.0
H268 H 0.1849 0.73674 0.19595 0.0
H269 H 0.37316 0.93178 0.20192 0.0
H270 H 0.28955 0.91213 0.10223 0.0
H271 H 0.14857 0.74067 0.14191 0.0
H272 H 0.34376 0.8722 0.23825 0.0
H273 H 0.20088 0.58817 0.30656 0.0
H274 H 0.34364 0.93924 0.14551 0.0
H275 H 0.40323 0.7646 0.30884 0.0
H276 H 0.23519 0.64344 0.269 0.0
H277 H 0.43849 0.75874 0.36279 0.0
H278 H 0.22852 0.85995 0.08578 0.0
H279 H 0.22828 0.58146 0.3637 0.0
H280 H 0.28349 0.6059 0.4069 0.0
H281 H 0.17546 0.79614 0.10057 0.0
H282 H 0.34861 0.65212 0.42215 0.0
N283 N 0.28198 0.66909 0.30428 0.0
C284 C 0.24791 0.64122 0.29372 0.0
C285 C 0.24364 0.60597 0.34725 0.0
C286 C 0.2794 0.63325 0.35757 0.0
C287 C 0.22815 0.60961 0.31503 0.0
C288 C 0.29812 0.66456 0.33512 0.0
H289 H 0.40701 0.70865 0.40561 0.0
N290 N 0.35158 0.71854 0.32062 0.0
C291 C 0.40915 0.7393 0.35774 0.0
C292 C 0.33442 0.69019 0.3436 0.0
C293 C 0.38893 0.74247 0.32705 0.0
C294 C 0.39128 0.71105 0.38187 0.0
C295 C 0.35352 0.68579 0.37489 0.0
O296 O 0.3616 0.71932 0.25504 0.0
O297 O 0.31492 0.77271 0.23595 0.0
O298 O 0.26545 0.75401 0.19847 0.0
O299 O 0.26769 0.69991 0.23407 0.0
O300 O 0.36646 0.7732 0.25813 0.0
O301 O 0.30649 0.67263 0.25155 0.0
O302 O 0.21899 0.7961 0.24145 0.0
O303 O 0.26988 0.74089 0.27099 0.0
O304 O 0.32457 0.761 0.30706 0.0
O305 O 0.31382 0.81375 0.27336 0.0
O306 O 0.21787 0.73884 0.25201 0.0
O307 O 0.27507 0.83586 0.25816 0.0
C308 C 0.35012 0.79255 0.23678 0.0
C309 C 0.35772 0.65702 0.24619 0.0
C310 C 0.38569 0.62749 0.21785 0.0
C311 C 0.37149 0.65613 0.21878 0.0
C312 C 0.38582 0.59956 0.24504 0.0
C313 C 0.35826 0.62916 0.27311 0.0
C314 C 0.37234 0.60057 0.27247 0.0
C315 C 0.26158 0.71669 0.20452 0.0
C316 C 0.34066 0.68577 0.24463 0.0
C317 C 0.33457 0.65579 0.39787 0.0
C318 C 0.29751 0.62953 0.38921 0.0
C319 C 0.23547 0.72113 0.2738 0.0
C320 C 0.22743 0.86133 0.24611 0.0
C321 C 0.21837 0.87566 0.26976 0.0
C322 C 0.21074 0.91012 0.26246 0.0
C323 C 0.21197 0.92995 0.23108 0.0
C324 C 0.22792 0.8811 0.21479 0.0
C325 C 0.22019 0.91525 0.20736 0.0
C326 C 0.32581 0.79754 0.30164 0.0
C327 C 0.23894 0.82755 0.25546 0.0
H328 H 0.37029 0.67735 0.19781 0.0
H329 H 0.39686 0.57734 0.24529 0.0
H330 H 0.34747 0.62927 0.29433 0.0
H331 H 0.37271 0.57901 0.29328 0.0
H332 H 0.2183 0.86061 0.29408 0.0
H333 H 0.20613 0.95651 0.22486 0.0
H334 H 0.23463 0.87048 0.19625 0.0
H335 H 0.22084 0.93054 0.18318 0.0
Tb336 Tb 0.31836 0.74525 0.76856 0.0
C337 C 0.16854 0.75359 0.75295 0.0
C338 C 0.13549 0.75138 0.69865 0.0
C339 C 0.10026 0.71799 0.74333 0.0
C340 C 0.16932 0.76328 0.72043 0.0
C341 C 0.13365 0.73257 0.76481 0.0
C342 C 0.10118 0.72737 0.71022 0.0
C343 C 0.16598 0.74913 0.81722 0.0
N344 N 0.20131 0.769 0.77281 0.0
C345 C 0.19977 0.76984 0.80423 0.0
C346 C 0.13301 0.72923 0.79765 0.0
Tb347 Tb 0.2558 0.79684 0.749 0.0
N348 N 0.20296 0.78721 0.71034 0.0
C349 C 0.20368 0.80369 0.67882 0.0
C350 C 0.13692 0.76529 0.6661 0.0
C351 C 0.17103 0.79217 0.65626 0.0
H352 H 0.22421 0.78613 0.81991 0.0
H353 H 0.1722 0.80399 0.63125 0.0
H354 H 0.075 0.71742 0.69386 0.0
H355 H 0.1654 0.74878 0.84235 0.0
H356 H 0.22932 0.825 0.67037 0.0
H357 H 0.44186 0.88215 0.76363 0.0
H358 H 0.11162 0.75678 0.64858 0.0
H359 H 0.29392 0.66385 0.73508 0.0
H360 H 0.37785 0.8403 0.77436 0.0
H361 H 0.32208 0.63792 0.70319 0.0
H362 H 0.07334 0.70114 0.75203 0.0
H363 H 0.47627 0.85886 0.73555 0.0
H364 H 0.47643 0.80624 0.70799 0.0
H365 H 0.10682 0.71356 0.80772 0.0
H366 H 0.44339 0.74064 0.69044 0.0
N367 N 0.37507 0.79136 0.75399 0.0
C368 C 0.39219 0.82843 0.76298 0.0
C369 C 0.44804 0.83971 0.74065 0.0
C370 C 0.43041 0.8023 0.73093 0.0
C371 C 0.42874 0.8529 0.75655 0.0
C372 C 0.39361 0.77846 0.73819 0.0
H373 H 0.38565 0.67818 0.68791 0.0
N374 N 0.33961 0.71991 0.73546 0.0
C375 C 0.33716 0.66732 0.70978 0.0
C376 C 0.37504 0.74172 0.7282 0.0
C377 C 0.32108 0.68238 0.72743 0.0
C378 C 0.37308 0.69005 0.70133 0.0
C379 C 0.39268 0.72754 0.71083 0.0
O380 O 0.33948 0.70101 0.78932 0.0
O381 O 0.26717 0.7475 0.77731 0.0
O382 O 0.27616 0.7922 0.79978 0.0
O383 O 0.33409 0.78897 0.80179 0.0
O384 O 0.26656 0.69345 0.77882 0.0
O385 O 0.34029 0.74196 0.81762 0.0
O386 O 0.29818 0.85206 0.75768 0.0
O387 O 0.30864 0.7956 0.74256 0.0
O388 O 0.2814 0.72563 0.72415 0.0
O389 O 0.23531 0.75323 0.71531 0.0
O390 O 0.28215 0.82219 0.70498 0.0
O391 O 0.23993 0.84318 0.75201 0.0
C392 C 0.24612 0.71166 0.78228 0.0
C393 C 0.39774 0.73461 0.81994 0.0
C394 C 0.45748 0.73458 0.81037 0.0
C395 C 0.41753 0.71853 0.80693 0.0
C396 C 0.47688 0.76949 0.82488 0.0
C397 C 0.4181 0.76909 0.83442 0.0
C398 C 0.45726 0.78664 0.83638 0.0
C399 C 0.31163 0.8006 0.81269 0.0
C400 C 0.35584 0.71855 0.81465 0.0
C401 C 0.42936 0.75103 0.70372 0.0
C402 C 0.44821 0.78831 0.7138 0.0
C403 C 0.31035 0.81152 0.7137 0.0
C404 C 0.28265 0.90384 0.72943 0.0
C405 C 0.25622 0.90344 0.70215 0.0
C406 C 0.26603 0.93075 0.67511 0.0
C407 C 0.30237 0.96032 0.67563 0.0
C408 C 0.3189 0.93401 0.73044 0.0
C409 C 0.32853 0.9624 0.70367 0.0
C410 C 0.2503 0.73036 0.70834 0.0
C411 C 0.27455 0.86905 0.75371 0.0
H412 H 0.40135 0.69338 0.7942 0.0
H413 H 0.50738 0.78309 0.82903 0.0
H414 H 0.40379 0.78328 0.84345 0.0
H415 H 0.47259 0.81327 0.84754 0.0
H416 H 0.22842 0.87989 0.70087 0.0
H417 H 0.31045 0.98126 0.65454 0.0
H418 H 0.34011 0.93459 0.75128 0.0
H419 H 0.35671 0.98511 0.70426 0.0
Tb420 Tb 0.24585 0.21983 0.77111 0.0
C421 C 0.34451 0.37324 0.70404 0.0
C422 C 0.30146 0.38461 0.6575 0.0
C423 C 0.35131 0.44009 0.68142 0.0
C424 C 0.31315 0.35859 0.68148 0.0
C425 C 0.36489 0.41413 0.70343 0.0
C426 C 0.31961 0.42533 0.65847 0.0
C427 C 0.41373 0.40057 0.74244 0.0
N428 N 0.35729 0.3473 0.7244 0.0
C429 C 0.39259 0.36028 0.74204 0.0
C430 C 0.39936 0.42763 0.72368 0.0
Tb431 Tb 0.31882 0.2823 0.7234 0.0
N432 N 0.29674 0.31905 0.68099 0.0
C433 C 0.27223 0.30429 0.65457 0.0
C434 C 0.27342 0.36906 0.63224 0.0
C435 C 0.25964 0.32888 0.63028 0.0
H436 H 0.4037 0.33963 0.75702 0.0
H437 H 0.23927 0.31674 0.61005 0.0
H438 H 0.31053 0.4457 0.64062 0.0
H439 H 0.44095 0.4107 0.7574 0.0
H440 H 0.26126 0.27355 0.65201 0.0
H441 H 0.31558 0.19157 0.89068 0.0
H442 H 0.26362 0.388 0.61335 0.0
H443 H 0.16984 0.16052 0.72994 0.0
H444 H 0.29877 0.23242 0.8431 0.0
H445 H 0.13076 0.08967 0.73271 0.0
H446 H 0.36619 0.47161 0.68094 0.0
H447 H 0.28897 0.11929 0.89274 0.0
H448 H 0.24482 0.05949 0.86665 0.0
H449 H 0.41587 0.45882 0.72394 0.0
H450 H 0.19404 0.03138 0.82325 0.0
N451 N 0.26471 0.18433 0.8165 0.0
C452 C 0.28723 0.20107 0.84292 0.0
C453 C 0.28205 0.13717 0.87126 0.0
C454 C 0.25686 0.11993 0.84519 0.0
C455 C 0.29688 0.17792 0.87028 0.0
C456 C 0.24836 0.14463 0.81803 0.0
H457 H 0.15015 0.0425 0.77384 0.0
N458 N 0.21053 0.15404 0.76984 0.0
C459 C 0.15624 0.10017 0.74969 0.0
C460 C 0.21999 0.12886 0.79384 0.0
C461 C 0.17836 0.14038 0.74833 0.0
C462 C 0.16726 0.07368 0.77295 0.0
C463 C 0.19913 0.08794 0.79579 0.0
O464 O 0.23368 0.23736 0.80992 0.0
O465 O 0.26326 0.27122 0.73476 0.0
O466 O 0.32572 0.31617 0.76215 0.0
O467 O 0.28348 0.27048 0.79597 0.0
O468 O 0.20861 0.2331 0.72818 0.0
O469 O 0.18959 0.21089 0.77273 0.0
O470 O 0.33449 0.24216 0.70779 0.0
O471 O 0.3039 0.23677 0.76352 0.0
O472 O 0.25164 0.18435 0.7388 0.0
O473 O 0.27371 0.23519 0.69848 0.0
O474 O 0.36004 0.26973 0.76255 0.0
O475 O 0.35949 0.30365 0.69167 0.0
C476 C 0.23189 0.26633 0.71668 0.0
C477 C 0.18383 0.26078 0.79485 0.0
C478 C 0.16981 0.30518 0.82011 0.0
C479 C 0.18549 0.27685 0.82235 0.0
C480 C 0.15343 0.31808 0.79004 0.0
C481 C 0.16689 0.274 0.76508 0.0
C482 C 0.15224 0.30274 0.76272 0.0
C483 C 0.31001 0.30539 0.78881 0.0
C484 C 0.19844 0.2294 0.79757 0.0
C485 C 0.20937 0.06294 0.82152 0.0
C486 C 0.23825 0.07895 0.84622 0.0
C487 C 0.33682 0.2402 0.7785 0.0
C488 C 0.39527 0.26488 0.69358 0.0
C489 C 0.39707 0.23854 0.67561 0.0
C490 C 0.43076 0.23253 0.67767 0.0
C491 C 0.46297 0.25385 0.69789 0.0
C492 C 0.42754 0.28567 0.71381 0.0
C493 C 0.46126 0.2802 0.71582 0.0
C494 C 0.25871 0.19719 0.70886 0.0
C495 C 0.35895 0.26906 0.69091 0.0
H496 H 0.19795 0.26656 0.84551 0.0
H497 H 0.1415 0.34009 0.78772 0.0
H498 H 0.16442 0.26191 0.74355 0.0
H499 H 0.13947 0.31277 0.73965 0.0
H500 H 0.37207 0.2229 0.65977 0.0
H501 H 0.48927 0.24971 0.70027 0.0
H502 H 0.42668 0.30595 0.72801 0.0
H503 H 0.48613 0.29626 0.73148 0.0
Tb504 Tb 0.79424 0.23773 0.75897 0.0
C505 C 0.79767 0.39127 0.69584 0.0
C506 C 0.8131 0.44101 0.7304 0.0
C507 C 0.83318 0.46009 0.6777 0.0
C508 C 0.79691 0.40127 0.72488 0.0
C509 C 0.81485 0.42084 0.67156 0.0
C510 C 0.83227 0.47017 0.70708 0.0
C511 C 0.78993 0.3718 0.6354 0.0
N512 N 0.77853 0.3532 0.69035 0.0
C513 C 0.77292 0.34364 0.66003 0.0
C514 C 0.81145 0.41044 0.64129 0.0
Tb515 Tb 0.75286 0.30969 0.73319 0.0
N516 N 0.77765 0.37239 0.74671 0.0
C517 C 0.77024 0.38198 0.77305 0.0
C518 C 0.80798 0.45048 0.7585 0.0
C519 C 0.7858 0.42092 0.77958 0.0
H520 H 0.75612 0.31428 0.65435 0.0
H521 H 0.78074 0.42808 0.80092 0.0
H522 H 0.84522 0.50078 0.71103 0.0
H523 H 0.78622 0.36367 0.61178 0.0
H524 H 0.75329 0.3597 0.7897 0.0
H525 H 0.68523 0.11059 0.81188 0.0
H526 H 0.81987 0.48064 0.76357 0.0
H527 H 0.88744 0.27613 0.78373 0.0
H528 H 0.71277 0.1622 0.76909 0.0
H529 H 0.93131 0.27283 0.83314 0.0
H530 H 0.84682 0.48308 0.65943 0.0
H531 H 0.72312 0.10609 0.86518 0.0
H532 H 0.78566 0.13123 0.90068 0.0
H533 H 0.82403 0.43229 0.62198 0.0
H534 H 0.85269 0.17613 0.90671 0.0
N535 N 0.76587 0.1887 0.79784 0.0
C536 C 0.72987 0.16127 0.79216 0.0
C537 C 0.73539 0.12928 0.84651 0.0
C538 C 0.77278 0.15613 0.85179 0.0
C539 C 0.71399 0.13163 0.81644 0.0
C540 C 0.78735 0.18564 0.8266 0.0
H541 H 0.90742 0.22867 0.88146 0.0
N542 N 0.83795 0.23608 0.80399 0.0
C543 C 0.90134 0.2553 0.83264 0.0
C544 C 0.82484 0.21035 0.82986 0.0
C545 C 0.87614 0.25717 0.80459 0.0
C546 C 0.88776 0.2304 0.85987 0.0
C547 C 0.84919 0.2069 0.85853 0.0
O548 O 0.83051 0.22993 0.73299 0.0
O549 O 0.78977 0.28561 0.72199 0.0
O550 O 0.73411 0.26926 0.69763 0.0
O551 O 0.73924 0.21348 0.72864 0.0
O552 O 0.8423 0.28683 0.74074 0.0
O553 O 0.7809 0.18187 0.74587 0.0
O554 O 0.71609 0.33665 0.70603 0.0
O555 O 0.74818 0.25389 0.76182 0.0
O556 O 0.81649 0.27914 0.79484 0.0
O557 O 0.8046 0.33421 0.76661 0.0
O558 O 0.74046 0.29406 0.78256 0.0
O559 O 0.69445 0.28313 0.73683 0.0
C560 C 0.82457 0.30501 0.71977 0.0
C561 C 0.83228 0.16671 0.74108 0.0
C562 C 0.85841 0.12515 0.72486 0.0
C563 C 0.83749 0.1495 0.71707 0.0
C564 C 0.87372 0.11813 0.75704 0.0
C565 C 0.84755 0.1589 0.77299 0.0
C566 C 0.86818 0.13481 0.78087 0.0
C567 C 0.72426 0.23082 0.70289 0.0
C568 C 0.81096 0.19268 0.7325 0.0
C569 C 0.83453 0.17904 0.88438 0.0
C570 C 0.79638 0.1535 0.88095 0.0
C571 C 0.74049 0.25919 0.78735 0.0
C572 C 0.66473 0.32811 0.73154 0.0
C573 C 0.66809 0.33036 0.76458 0.0
C574 C 0.64574 0.34556 0.77543 0.0
C575 C 0.62012 0.35839 0.75287 0.0
C576 C 0.63905 0.34129 0.70966 0.0
C577 C 0.6169 0.3563 0.72029 0.0
C578 C 0.82136 0.31681 0.79124 0.0
C579 C 0.68689 0.31171 0.71899 0.0
H580 H 0.82575 0.15553 0.69236 0.0
H581 H 0.88957 0.09925 0.76388 0.0
H582 H 0.84349 0.17128 0.79184 0.0
H583 H 0.87987 0.12895 0.80559 0.0
H584 H 0.68732 0.3197 0.78181 0.0
H585 H 0.60284 0.37056 0.76041 0.0
H586 H 0.63602 0.33981 0.68426 0.0
H587 H 0.59715 0.3664 0.70318 0.0
Tb588 Tb 0.7666 0.71573 0.73415 0.0
C589 C 0.90578 0.83821 0.80328 0.0
C590 C 0.92547 0.80255 0.85218 0.0
C591 C 0.97197 0.86103 0.8271 0.0
C592 C 0.89704 0.80709 0.82734 0.0
C593 C 0.94324 0.86598 0.80305 0.0
C594 C 0.9631 0.82933 0.85163 0.0
C595 C 0.92065 0.90253 0.75648 0.0
N596 N 0.87718 0.84187 0.78056 0.0
C597 C 0.88392 0.87427 0.75781 0.0
C598 C 0.95051 0.89819 0.77901 0.0
Tb599 Tb 0.81812 0.79335 0.78435 0.0
N600 N 0.86039 0.78198 0.82697 0.0
C601 C 0.84989 0.75301 0.85212 0.0
C602 C 0.91508 0.77172 0.87709 0.0
C603 C 0.87702 0.74711 0.87723 0.0
H604 H 0.86131 0.87808 0.74007 0.0
H605 H 0.86855 0.72345 0.89658 0.0
H606 H 0.98539 0.82619 0.87035 0.0
H607 H 0.92588 0.92764 0.73805 0.0
H608 H 0.82072 0.73354 0.85262 0.0
H609 H 0.71946 0.7872 0.62118 0.0
H610 H 0.93605 0.76709 0.89654 0.0
H611 H 0.72163 0.6309 0.77677 0.0
H612 H 0.76629 0.77527 0.66524 0.0
H613 H 0.65608 0.58319 0.77879 0.0
H614 H 1.00099 0.88189 0.82724 0.0
H615 H 0.65127 0.74658 0.62145 0.0
H616 H 0.60039 0.68945 0.6479 0.0
H617 H 0.97891 0.92018 0.77797 0.0
H618 H 0.58307 0.63377 0.69087 0.0
N619 N 0.72537 0.72865 0.69122 0.0
C620 C 0.7368 0.75701 0.66587 0.0
C621 C 0.67178 0.7411 0.64097 0.0
C622 C 0.66038 0.71075 0.66604 0.0
C623 C 0.71023 0.764 0.64069 0.0
C624 C 0.68825 0.70508 0.69092 0.0
H625 H 0.60374 0.59357 0.73962 0.0
N626 N 0.70676 0.6687 0.73719 0.0
C627 C 0.66199 0.60865 0.76069 0.0
C628 C 0.67855 0.67392 0.71484 0.0
C629 C 0.6992 0.63576 0.75937 0.0
C630 C 0.63251 0.61467 0.73862 0.0
C631 C 0.64066 0.64731 0.71497 0.0
O632 O 0.77458 0.66473 0.73017 0.0
O633 O 0.8134 0.73823 0.77173 0.0
O634 O 0.85636 0.79577 0.75241 0.0
O635 O 0.81048 0.76623 0.71125 0.0
O636 O 0.78624 0.67912 0.77476 0.0
O637 O 0.78479 0.71302 0.69219 0.0
O638 O 0.80372 0.84086 0.78674 0.0
O639 O 0.77117 0.77043 0.74704 0.0
O640 O 0.72912 0.71412 0.76579 0.0
O641 O 0.7747 0.74212 0.80767 0.0
O642 O 0.7988 0.82959 0.74332 0.0
O643 O 0.80388 0.79804 0.82787 0.0
C644 C 0.81408 0.70649 0.78842 0.0
C645 C 0.76508 0.64952 0.67752 0.0
C646 C 0.76869 0.6072 0.64274 0.0
C647 C 0.78648 0.63477 0.66492 0.0
C648 C 0.72937 0.59528 0.63307 0.0
C649 C 0.72598 0.63702 0.66749 0.0
C650 C 0.70829 0.61015 0.64534 0.0
C651 C 0.84592 0.78706 0.72256 0.0
C652 C 0.78367 0.67743 0.70137 0.0
C653 C 0.61243 0.65367 0.69107 0.0
C654 C 0.62229 0.68536 0.66661 0.0
C655 C 0.77078 0.80204 0.72998 0.0
C656 C 0.81625 0.86278 0.83726 0.0
C657 C 0.7945 0.86953 0.85635 0.0
C658 C 0.81084 0.90157 0.87461 0.0
C659 C 0.84887 0.9269 0.87254 0.0
C660 C 0.85422 0.8881 0.8366 0.0
C661 C 0.87028 0.92 0.85398 0.0
C662 C 0.73965 0.72017 0.79617 0.0
C663 C 0.79895 0.83071 0.81677 0.0
H664 H 0.8167 0.64417 0.6728 0.0
H665 H 0.7149 0.5747 0.61569 0.0
H666 H 0.70907 0.6479 0.67679 0.0
H667 H 0.67808 0.60077 0.63767 0.0
H668 H 0.76523 0.8498 0.85714 0.0
H669 H 0.86228 0.95252 0.88514 0.0
H670 H 0.87135 0.8837 0.82216 0.0
H671 H 0.89947 0.93972 0.85288 0.0
C672 C 0.95331 0.02644 0.57926 0.0
C673 C 0.9932 0.0916 0.49677 0.0
C674 C 0.96197 0.95461 0.44985 0.0
Mg675 Mg 1.02987 0.05301 0.55351 0.0
O676 O 1.00707 0.00619 0.53619 0.0
Mg677 Mg 0.95472 0.99231 0.51185 0.0
Mg678 Mg 1.03207 0.99358 0.5062 0.0
O679 O 0.05636 0.97981 0.47629 0.0
Mg680 Mg 1.03383 0.93126 0.46019 0.0
Mg681 Mg 0.10892 0.99531 0.49982 0.0
C682 C 0.10275 0.03274 0.5629 0.0
C683 C 0.09011 0.07214 0.46895 0.0
O684 O 0.93657 0.00632 0.55557 0.0
O685 O 0.98929 0.04511 0.58386 0.0
O686 O 0.96707 0.0577 0.49265 0.0
O687 O 1.02484 0.09558 0.5142 0.0
O688 O 0.08497 0.05067 0.57118 0.0
O689 O 0.08787 0.00984 0.54085 0.0
C690 C 0.9735 0.91487 0.54287 0.0
O691 O 1.00665 0.93183 0.53426 0.0
O692 O 0.94893 0.93079 0.53532 0.0
O693 O 0.12585 0.98164 0.45544 0.0
O694 O 0.07333 0.94073 0.42843 0.0
O695 O 0.09485 0.93137 0.52237 0.0
C696 C 0.10892 0.9615 0.43183 0.0
O697 O 0.04081 0.88831 0.49913 0.0
O698 O 0.97897 0.9349 0.44293 0.0
C699 C 0.06978 0.89649 0.5206 0.0
O700 O 0.97703 0.97851 0.47114 0.0
O701 O 0.05741 0.05565 0.47836 0.0
O702 O 0.11424 0.05579 0.47524 0.0
C703 C 0.44766 0.06736 0.04006 0.0
C704 C 0.47624 0.10215 0.94576 0.0
C705 C 0.48538 0.94682 0.97196 0.0
Mg706 Mg 0.52488 0.09767 0.01489 0.0
O707 O 0.51095 0.04412 0.01483 0.0
Mg708 Mg 0.45974 0.01228 0.99296 0.0
Mg709 Mg 0.54474 0.01894 0.00826 0.0
O710 O 0.57938 0.99416 1.00118 0.0
Mg711 Mg 0.56813 0.94065 1.00292 0.0
Mg712 Mg 0.62958 0.02705 0.02345 0.0
C713 C 0.60529 0.09002 0.04784 0.0
C714 C 0.60538 0.08287 0.96147 0.0
O715 O 0.43355 0.04074 0.02102 0.0
O716 O 0.48273 0.09029 0.04332 0.0
O717 O 0.45969 0.06428 0.94939 0.0
O718 O 0.50359 0.11979 0.96676 0.0
O719 O 0.58469 0.11081 0.03878 0.0
O720 O 0.59395 0.05439 0.04225 0.0
C721 C 0.48304 0.95538 0.05518 0.0
O722 O 0.51799 0.97127 0.05056 0.0
O723 O 0.4576 0.96519 0.03614 0.0
O724 O 0.65776 0.99718 0.99845 0.0
O725 O 0.61228 0.94485 0.97691 0.0
O726 O 0.62804 0.97794 0.06708 0.0
C727 C 0.64701 0.96865 0.98157 0.0
O728 O 0.58673 0.9199 0.05255 0.0
O729 O 0.50833 0.92856 0.9811 0.0
C730 C 0.61251 0.94033 0.07302 0.0
O731 O 0.49528 0.98342 0.97454 0.0
O732 O 0.57068 0.06658 0.96649 0.0
O733 O 0.63134 0.07326 0.97988 0.0
C734 C 0.9791 0.59533 0.02979 0.0
C735 C 0.98475 0.58919 0.93609 0.0
C736 C 0.96961 0.43394 0.97861 0.0
Mg737 Mg 0.04331 0.59424 0.99777 0.0
O738 O 1.0215 0.54128 0.01457 0.0
Mg739 Mg 0.96632 0.51383 0.99927 0.0
Mg740 Mg 0.04404 0.50477 0.00704 0.0
O741 O 0.06667 0.46871 0.99902 0.0
Mg742 Mg 0.04488 0.4142 0.01038 0.0
Mg743 Mg 0.1217 0.49649 0.0147 0.0
C744 C 0.11896 0.57683 0.03141 0.0
C745 C 0.099 0.55262 0.952 0.0
O746 O 0.95726 0.5605 0.02279 0.0
O747 O 1.01315 0.61237 0.02338 0.0
O748 O 0.96423 0.55645 0.95072 0.0
O749 O 1.01932 0.60715 0.94784 0.0
O750 O 0.10214 0.60049 0.01784 0.0
O751 O 0.10172 0.5391 0.03367 0.0
C752 C 0.98946 0.45838 0.06283 0.0
O753 O 1.02056 0.46455 0.05307 0.0
O754 O 0.96654 0.47418 0.04698 0.0
O755 O 0.13284 0.4529 0.98975 0.0
O756 O 0.07734 0.4014 0.98222 0.0
O757 O 0.12161 0.45217 0.06242 0.0
C758 C 0.11229 0.42015 0.97853 0.0
O759 O 0.06766 0.39916 0.06049 0.0
O760 O 0.98609 0.40933 0.98943 0.0
C761 C 0.10075 0.41801 0.07486 0.0
O762 O 0.98685 0.47102 0.98054 0.0
O763 O 0.06719 0.54498 0.96108 0.0
O764 O 0.12261 0.53795 0.96817 0.0
C765 C 0.48222 0.57571 0.0453 0.0
C766 C 0.52495 0.5836 0.95401 0.0
C767 C 0.46815 0.43463 0.96227 0.0
Mg768 Mg 0.55358 0.57413 0.02538 0.0
O769 O 0.52346 0.52039 0.02729 0.0
Mg770 Mg 0.47184 0.50511 1.00093 0.0
Mg771 Mg 0.54195 0.48577 0.01162 0.0
O772 O 0.5602 0.45169 0.99539 0.0
Mg773 Mg 0.52939 0.39869 0.99357 0.0
Mg774 Mg 0.61145 0.46568 0.02167 0.0
C775 C 0.6167 0.53954 0.05719 0.0
C776 C 0.60735 0.53777 0.96728 0.0
O777 O 0.46133 0.54593 0.03022 0.0
O778 O 0.51824 0.59153 0.04617 0.0
O779 O 0.49384 0.55529 0.96007 0.0
O780 O 0.55322 0.59513 0.97573 0.0
O781 O 0.60502 0.56788 0.05162 0.0
O782 O 0.59666 0.50597 0.04711 0.0
C783 C 0.47685 0.43377 0.05607 0.0
O784 O 0.5092 0.43986 0.04898 0.0
O785 O 0.45705 0.45384 0.04129 0.0
O786 O 0.62186 0.42569 0.99079 0.0
O787 O 0.56476 0.38371 0.97123 0.0
O788 O 0.58704 0.41366 0.06142 0.0
C789 C 0.60085 0.39837 0.9731 0.0
O790 O 0.52823 0.37515 0.04243 0.0
O791 O 0.47935 0.40625 0.96571 0.0
C792 C 0.55519 0.38523 0.06547 0.0
O793 O 0.48745 0.46561 0.97617 0.0
O794 O 0.57492 0.53141 0.97441 0.0
O795 O 0.62739 0.51792 0.98198 0.0
C796 C 0.92819 0.55123 0.52488 0.0
C797 C 0.96327 0.58541 0.43229 0.0
C798 C 0.98244 0.44277 0.45376 0.0
Mg799 Mg 1.00729 0.58626 0.50231 0.0
O800 O 0.99805 0.53306 0.50477 0.0
Mg801 Mg 0.94951 0.49857 0.48119 0.0
Mg802 Mg 1.03535 0.51025 0.50091 0.0
O803 O 0.07148 0.48647 0.49718 0.0
Mg804 Mg 0.05966 0.43301 0.49652 0.0
Mg805 Mg 0.12 0.51918 0.5216 0.0
C806 C 0.08964 0.58304 0.53908 0.0
C807 C 0.10102 0.57663 0.45845 0.0
O808 O 0.91844 0.52327 0.50762 0.0
O809 O 0.96182 0.57772 0.52787 0.0
O810 O 0.94979 0.5478 0.43843 0.0
O811 O 0.9882 0.60685 0.45262 0.0
O812 O 0.06639 0.60048 0.52708 0.0
O813 O 0.08143 0.54636 0.53766 0.0
C814 C 0.9712 0.44306 0.54382 0.0
O815 O 1.00676 0.46042 0.54172 0.0
O816 O 0.94651 0.45203 0.52329 0.0
O817 O 0.15141 0.49348 0.49643 0.0
O818 O 0.1061 0.44303 0.47219 0.0
O819 O 0.11656 0.46719 0.56381 0.0
C820 C 0.1405 0.46713 0.47748 0.0
O821 O 0.07832 0.40955 0.54629 0.0
O822 O 1.00412 0.42311 0.46371 0.0
C823 C 0.10269 0.42929 0.56808 0.0
O824 O 0.98968 0.4755 0.46364 0.0
O825 O 0.06517 0.56042 0.46 0.0
O826 O 0.1247 0.56631 0.47941 0.0
C827 C 0.47757 0.08518 0.53667 0.0
C828 C 0.46785 0.07902 0.43861 0.0
C829 C 0.4664 0.92573 0.48414 0.0
Mg830 Mg 0.5363 0.09173 0.49465 0.0
O831 O 0.51837 0.03754 0.51236 0.0
Mg832 Mg 0.46311 0.00611 0.50186 0.0
Mg833 Mg 0.54216 0.99928 0.50795 0.0
O834 O 0.56409 0.96196 0.50244 0.0
Mg835 Mg 0.54202 0.90855 0.51787 0.0
Mg836 Mg 0.61885 0.9902 0.51687 0.0
C837 C 0.60622 0.07254 0.52816 0.0
C838 C 0.59653 0.04127 0.45088 0.0
O839 O 0.45571 0.05188 0.52675 0.0
O840 O 0.5112 0.10444 0.52938 0.0
O841 O 0.45429 0.04411 0.4533 0.0
O842 O 0.50115 0.10272 0.4485 0.0
O843 O 0.59148 0.08464 0.50069 0.0
O844 O 0.60054 0.03565 0.53543 0.0
C845 C 0.48988 0.95557 0.5659 0.0
O846 O 0.52063 0.96155 0.55581 0.0
O847 O 0.46634 0.96995 0.54971 0.0
O848 O 0.62813 0.94303 0.49466 0.0
O849 O 0.57258 0.89085 0.49201 0.0
O850 O 0.62011 0.94892 0.56608 0.0
C851 C 0.607 0.90856 0.48662 0.0
O852 O 0.56573 0.89676 0.56798 0.0
O853 O 0.48319 0.90195 0.49733 0.0
C854 C 0.59968 0.91591 0.58046 0.0
O855 O 0.48357 0.96333 0.48295 0.0
O856 O 0.56462 0.03534 0.45913 0.0
O857 O 0.61962 0.02735 0.46893 0.0
H858 H 0.16607 0.1519 0.30741 0.0
H859 H 0.22397 0.2649 0.34257 0.0
H860 H 0.18341 0.24239 0.38495 0.0
H861 H 0.06951 0.1298 0.32889 0.0
H862 H 0.06186 0.07861 0.34064 0.0
H863 H 0.08943 0.10655 0.30883 0.0
H864 H 0.14531 0.08717 0.33892 0.0
H865 H 0.11801 0.0592 0.37057 0.0
H866 H 0.16376 0.09739 0.37967 0.0
H867 H 0.14697 0.20365 0.42979 0.0
H868 H 0.1181 0.15134 0.47279 0.0
H869 H 0.08161 0.0646 0.40756 0.0
C870 C 0.16919 0.17233 0.32315 0.0
C871 C 0.19826 0.20998 0.32171 0.0
C872 C 0.20221 0.23563 0.34348 0.0
C873 C 0.17894 0.22327 0.36744 0.0
C874 C 0.15151 0.18526 0.36913 0.0
C875 C 0.1463 0.16023 0.34734 0.0
C876 C 0.11888 0.11914 0.35702 0.0
C877 C 0.08277 0.10788 0.33237 0.0
C878 C 0.13762 0.089 0.36185 0.0
C879 C 0.11104 0.12453 0.38844 0.0
C880 C 0.12952 0.16303 0.39482 0.0
C881 C 0.13114 0.1737 0.42464 0.0
C882 C 0.11462 0.14403 0.44889 0.0
C883 C 0.09675 0.10458 0.44281 0.0
C884 C 0.09379 0.09502 0.41204 0.0
H885 H 0.95811 0.28141 0.43457 0.0
H886 H 0.85833 0.21793 0.48163 0.0
H887 H 0.8928 0.18499 0.52164 0.0
H888 H 0.96723 0.21076 0.42287 0.0
H889 H 1.01747 0.22216 0.43 0.0
H890 H 1.00059 0.26119 0.42015 0.0
H891 H 0.03846 0.29082 0.47203 0.0
H892 H 0.05712 0.25263 0.48155 0.0
H893 H 1.03389 0.26027 0.51021 0.0
H894 H 0.91635 0.13494 0.53305 0.0
H895 H 0.93658 0.08387 0.5262 0.0
H896 H 1.02176 0.16922 0.46998 0.0
C897 C 0.94423 0.2616 0.45419 0.0
C898 C 0.90497 0.2505 0.45377 0.0
C899 C 0.8881 0.22656 0.48062 0.0
C900 C 0.90771 0.20735 0.50368 0.0
C901 C 0.94362 0.21186 0.49914 0.0
C902 C 0.96277 0.23984 0.47578 0.0
C903 C 0.99546 0.23135 0.46954 0.0
C904 C 0.99505 0.23132 0.43353 0.0
C905 C 1.03348 0.26048 0.48423 0.0
C906 C 0.98677 0.19064 0.48792 0.0
C907 C 0.95811 0.18104 0.50613 0.0
C908 C 0.93983 0.14273 0.52004 0.0
C909 C 0.95081 0.11365 0.51526 0.0
C910 C 0.98007 0.12278 0.49691 0.0
C911 C 0.99915 0.16187 0.4839 0.0
H912 H 0.85857 0.8859 0.29071 0.0
H913 H 0.7744 0.79703 0.34636 0.0
H914 H 0.79625 0.838 0.38943 0.0
H915 H 0.92992 0.9032 0.35208 0.0
H916 H 0.95292 0.95544 0.34081 0.0
H917 H 0.924 0.92456 0.31092 0.0
H918 H 0.8838 0.96715 0.29398 0.0
H919 H 0.91233 0.99806 0.32452 0.0
H920 H 0.86171 0.97488 0.3235 0.0
H921 H 0.83576 0.87912 0.4315 0.0
H922 H 0.89222 0.91394 0.46842 0.0
H923 H 0.95059 0.97854 0.38742 0.0
C924 C 0.8441 0.87553 0.31154 0.0
C925 C 0.81472 0.83795 0.31473 0.0
C926 C 0.79688 0.8255 0.34277 0.0
C927 C 0.80893 0.84888 0.36758 0.0
C928 C 0.83892 0.88503 0.36429 0.0
C929 C 0.85625 0.89844 0.33689 0.0
C930 C 0.89175 0.93508 0.34156 0.0
C931 C 0.9267 0.92916 0.3361 0.0
C932 C 0.8871 0.97092 0.31958 0.0
C933 C 0.89316 0.93825 0.3765 0.0
C934 C 0.86172 0.90985 0.38894 0.0
C935 C 0.85986 0.90248 0.4219 0.0
C936 C 0.89187 0.92266 0.4428 0.0
C937 C 0.92505 0.94966 0.43052 0.0
C938 C 0.92475 0.95926 0.39704 0.0
H939 H 0.1558 0.87087 0.30103 0.0
H940 H 0.24525 0.98413 0.28015 0.0
H941 H 0.23045 0.00973 0.32239 0.0
H942 H 0.09019 0.90948 0.3135 0.0
H943 H 0.07122 0.87079 0.34498 0.0
H944 H 0.09015 0.86133 0.31417 0.0
H945 H 0.13589 0.83761 0.3576 0.0
H946 H 0.11713 0.84708 0.38854 0.0
H947 H 0.16725 0.86957 0.38656 0.0
H948 H 0.20635 0.02207 0.3683 0.0
H949 H 0.17165 0.02168 0.4106 0.0
H950 H 0.09567 0.90156 0.39845 0.0
C951 C 0.17238 0.90097 0.30556 0.0
C952 C 0.20183 0.92552 0.28762 0.0
C953 C 0.22256 0.96494 0.29372 0.0
C954 C 0.21444 0.97963 0.3177 0.0
C955 C 0.18517 0.95463 0.33503 0.0
C956 C 0.1642 0.91626 0.32896 0.0
C957 C 0.13317 0.8959 0.34989 0.0
C958 C 0.09386 0.88367 0.32941 0.0
C959 C 0.13871 0.86045 0.37196 0.0
C960 C 0.13999 0.92869 0.36881 0.0
C961 C 0.17037 0.96223 0.36022 0.0
C962 C 0.18242 0.99601 0.37508 0.0
C963 C 0.16269 0.99549 0.39914 0.0
C964 C 0.13094 0.96168 0.40764 0.0
C965 C 0.11964 0.92796 0.39222 0.0
H966 H 0.19632 0.93131 0.66734 0.0
H967 H 0.27245 0.90969 0.62034 0.0
H968 H 0.21832 0.87535 0.58096 0.0
H969 H 0.11811 0.83665 0.65789 0.0
H970 H 0.08273 0.85748 0.65181 0.0
H971 H 0.12734 0.87908 0.67666 0.0
H972 H 0.14047 0.94731 0.64177 0.0
H973 H 0.09475 0.92612 0.61899 0.0
H974 H 0.13604 0.95005 0.59884 0.0
H975 H 0.15728 0.84777 0.54566 0.0
H976 H 0.10052 0.84901 0.5087 0.0
H977 H 0.06219 0.88008 0.58246 0.0
C978 C 0.20156 0.92021 0.64814 0.0
C979 C 0.23823 0.92361 0.64615 0.0
C980 C 0.24444 0.90819 0.62142 0.0
C981 C 0.21381 0.88768 0.59971 0.0
C982 C 0.17747 0.88238 0.60378 0.0
C983 C 0.17141 0.8989 0.62702 0.0
C984 C 0.13028 0.89177 0.62508 0.0
C985 C 0.11365 0.86462 0.65462 0.0
C986 C 0.12508 0.93111 0.62085 0.0
C987 C 0.11425 0.87115 0.59541 0.0
C988 C 0.14165 0.86436 0.58431 0.0
C989 C 0.13541 0.85215 0.55435 0.0
C990 C 0.10261 0.85206 0.53364 0.0
C991 C 0.07796 0.86557 0.54301 0.0
C992 C 0.08079 0.8693 0.57535 0.0
H993 H 0.21711 0.11624 0.71406 0.0
H994 H 0.27966 0.21507 0.64925 0.0
H995 H 0.25932 0.17285 0.60687 0.0
H996 H 0.22915 0.03701 0.67562 0.0
H997 H 0.18205 1.00295 0.68191 0.0
H998 H 0.21003 0.0372 0.71025 0.0
H999 H 0.15628 0.06086 0.70332 0.0
H1000 H 0.1279 0.02906 0.67411 0.0
H1001 H 0.13943 0.08133 0.66442 0.0
H1002 H 0.22192 0.126 0.56815 0.0
H1003 H 0.16564 0.0819 0.53675 0.0
H1004 H 0.12616 0.01228 0.62441 0.0
C1005 C 0.2271 0.12876 0.69119 0.0
C1006 C 0.24948 0.16933 0.68511 0.0
C1007 C 0.26213 0.18433 0.65473 0.0
C1008 C 0.25113 0.16035 0.63042 0.0
C1009 C 0.22777 0.12096 0.63664 0.0
C1010 C 0.21609 0.10506 0.6664 0.0
C1011 C 0.18659 0.06348 0.66523 0.0
C1012 C 0.20294 0.03339 0.68439 0.0
C1013 C 0.15036 0.05852 0.67735 0.0
C1014 C 0.18014 0.0607 0.62955 0.0
C1015 C 0.20581 0.0932 0.61377 0.0
C1016 C 0.20242 0.0998 0.58029 0.0
C1017 C 0.17056 0.07429 0.5625 0.0
C1018 C 0.14226 0.04315 0.57826 0.0
C1019 C 0.14839 0.03492 0.61201 0.0
H1020 H 0.92468 0.12184 0.71676 0.0
H1021 H 0.80611 0.08727 0.67642 0.0
H1022 H 0.8162 0.05447 0.63649 0.0
H1023 H 0.96036 0.14319 0.64207 0.0
H1024 H 0.9975 0.12515 0.65838 0.0
H1025 H 0.98021 0.14483 0.68382 0.0
H1026 H 0.96567 0.07983 0.72281 0.0
H1027 H 0.9826 0.05986 0.69728 0.0
H1028 H 0.93552 0.03389 0.70778 0.0
H1029 H 0.84001 0.02492 0.60095 0.0
H1030 H 0.8761 0.00655 0.57042 0.0
H1031 H 0.9789 0.06134 0.63446 0.0
C1032 C 0.90075 0.10718 0.69964 0.0
C1033 C 0.86453 0.10693 0.69982 0.0
C1034 C 0.83414 0.08803 0.67661 0.0
C1035 C 0.83957 0.06908 0.65401 0.0
C1036 C 0.87562 0.06952 0.65478 0.0
C1037 C 0.90574 0.08845 0.67685 0.0
C1038 C 0.94195 0.086 0.67206 0.0
C1039 C 0.97175 0.12724 0.66357 0.0
C1040 C 0.95732 0.06355 0.70175 0.0
C1041 C 0.92764 0.06276 0.6438 0.0
C1042 C 0.88927 0.05319 0.63427 0.0
C1043 C 0.87006 0.03226 0.60828 0.0
C1044 C 0.89079 0.02172 0.59118 0.0
C1045 C 0.93041 0.03231 0.59999 0.0
C1046 C 0.94868 0.05256 0.62704 0.0
H1047 H 0.83146 0.78479 0.65813 0.0
H1048 H 0.92388 0.82193 0.73576 0.0
H1049 H 0.96956 0.84553 0.69679 0.0
H1050 H 0.88091 0.75579 0.60871 0.0
H1051 H 0.8584 0.77477 0.57207 0.0
H1052 H 0.83406 0.75487 0.60673 0.0
H1053 H 0.82506 0.82016 0.60444 0.0
H1054 H 0.84856 0.8397 0.56956 0.0
H1055 H 0.8659 0.86577 0.60417 0.0
H1056 H 1.00403 0.87158 0.64839 0.0
H1057 H 1.0225 0.90745 0.59608 0.0
H1058 H 0.90713 0.85317 0.55064 0.0
C1059 C 0.86132 0.79715 0.66726 0.0
C1060 C 0.87408 0.8013 0.70009 0.0
C1061 C 0.91343 0.81842 0.7107 0.0
C1062 C 0.93956 0.83144 0.68879 0.0
C1063 C 0.92584 0.82679 0.65649 0.0
C1064 C 0.88751 0.81031 0.64585 0.0
C1065 C 0.87924 0.81323 0.60969 0.0
C1066 C 0.86215 0.77222 0.59866 0.0
C1067 C 0.8532 0.83609 0.5962 0.0
C1068 C 0.91881 0.83594 0.60131 0.0
C1069 C 0.94552 0.84227 0.6286 0.0
C1070 C 0.98351 0.86602 0.6269 0.0
C1071 C 0.99394 0.88582 0.59692 0.0
C1072 C 0.96637 0.8822 0.56925 0.0
C1073 C 0.92885 0.8554 0.5713 0.0
H1074 H 0.27587 0.10035 0.0865 0.0
H1075 H 0.33486 0.10275 0.18418 0.0
H1076 H 0.38368 0.08819 0.16752 0.0
H1077 H 0.29585 0.01804 0.07042 0.0
H1078 H 0.30116 0.0382 0.02918 0.0
H1079 H 0.26977 0.04758 0.04882 0.0
H1080 H 0.30541 0.12252 0.03446 0.0
H1081 H 0.337 0.11339 0.01496 0.0
H1082 H 0.35584 0.14429 0.04656 0.0
H1083 H 0.42906 0.07972 0.13997 0.0
H1084 H 0.4662 0.07241 0.10352 0.0
H1085 H 0.37611 0.06915 0.02435 0.0
C1086 C 0.29863 0.09711 0.10456 0.0
C1087 C 0.30165 0.10344 0.13663 0.0
C1088 C 0.33227 0.09923 0.1593 0.0
C1089 C 0.36004 0.09054 0.15016 0.0
C1090 C 0.35659 0.0853 0.11835 0.0
C1091 C 0.32644 0.08781 0.09594 0.0
C1092 C 0.32998 0.08127 0.06319 0.0
C1093 C 0.29724 0.04405 0.05227 0.0
C1094 C 0.3322 0.11753 0.03834 0.0
C1095 C 0.36734 0.07574 0.07061 0.0
C1096 C 0.38213 0.0783 0.10263 0.0
C1097 C 0.41751 0.07696 0.11499 0.0
C1098 C 0.43844 0.07299 0.09411 0.0
C1099 C 0.42379 0.06985 0.06132 0.0
C1100 C 0.38756 0.07075 0.04948 0.0
H1101 H 0.85599 0.3626 0.1974 0.0
H1102 H 0.8703 0.25419 0.19808 0.0
H1103 H 0.92135 0.28957 0.1645 0.0
H1104 H 0.86257 0.39405 0.11709 0.0
H1105 H 0.88655 0.44566 0.12111 0.0
H1106 H 0.85657 0.41327 0.14991 0.0
H1107 H 0.91223 0.43525 0.19595 0.0
H1108 H 0.94248 0.46783 0.16719 0.0
H1109 H 0.9563 0.43134 0.19454 0.0
H1110 H 0.96839 0.33717 0.12693 0.0
H1111 H 0.9997 0.38891 0.08462 0.0
H1112 H 0.95041 0.46425 0.10577 0.0
C1113 C 0.87087 0.34663 0.19141 0.0
C1114 C 0.8604 0.30599 0.20171 0.0
C1115 C 0.87884 0.28559 0.19172 0.0
C1116 C 0.90789 0.30553 0.1725 0.0
C1117 C 0.91772 0.34582 0.16292 0.0
C1118 C 0.89941 0.366 0.17191 0.0
C1119 C 0.91136 0.40782 0.15522 0.0
C1120 C 0.87724 0.41562 0.13461 0.0
C1121 C 0.93182 0.43731 0.17968 0.0
C1122 C 0.93844 0.40784 0.13465 0.0
C1123 C 0.94266 0.37224 0.13999 0.0
C1124 C 0.96543 0.3652 0.12278 0.0
C1125 C 0.98331 0.39482 0.09891 0.0
C1126 C 0.97756 0.43059 0.092 0.0
C1127 C 0.95548 0.43726 0.11066 0.0
H1128 H 0.67344 0.764 0.17055 0.0
H1129 H 0.76066 0.8486 0.22882 0.0
H1130 H 0.73753 0.90034 0.19977 0.0
H1131 H 0.67737 0.831 0.09631 0.0
H1132 H 0.62712 0.80902 0.08361 0.0
H1133 H 0.65139 0.7798 0.10913 0.0
H1134 H 0.60445 0.76106 0.14995 0.0
H1135 H 0.58089 0.79118 0.12477 0.0
H1136 H 0.59968 0.79944 0.16587 0.0
H1137 H 0.70383 0.94305 0.16381 0.0
H1138 H 0.66654 0.97369 0.12238 0.0
H1139 H 0.60079 0.86107 0.08735 0.0
C1140 C 0.68775 0.79351 0.17708 0.0
C1141 C 0.71936 0.80238 0.20162 0.0
C1142 C 0.73699 0.84122 0.20971 0.0
C1143 C 0.72379 0.87074 0.19345 0.0
C1144 C 0.69262 0.86101 0.16926 0.0
C1145 C 0.67504 0.82332 0.16096 0.0
C1146 C 0.6426 0.82057 0.13367 0.0
C1147 C 0.65007 0.80944 0.10392 0.0
C1148 C 0.60466 0.79132 0.14421 0.0
C1149 C 0.64436 0.86251 0.12793 0.0
C1150 C 0.67334 0.88536 0.14878 0.0
C1151 C 0.68103 0.92526 0.14751 0.0
C1152 C 0.65939 0.94243 0.12391 0.0
C1153 C 0.63012 0.91999 0.10157 0.0
C1154 C 0.62231 0.87918 0.10423 0.0
H1155 H 0.24253 0.73741 0.13996 0.0
H1156 H 0.25391 0.64019 0.20936 0.0
H1157 H 0.23552 0.59928 0.16649 0.0
H1158 H 0.15951 0.6828 0.1002 0.0
H1159 H 0.16739 0.70744 0.06026 0.0
H1160 H 0.19191 0.73331 0.09412 0.0
H1161 H 0.2562 0.74977 0.07632 0.0
H1162 H 0.23219 0.72402 0.04189 0.0
H1163 H 0.26809 0.71077 0.06926 0.0
H1164 H 0.20619 0.56499 0.11936 0.0
H1165 H 0.15831 0.53756 0.07424 0.0
H1166 H 0.1628 0.65472 0.03413 0.0
C1167 C 0.24197 0.70782 0.14598 0.0
C1168 C 0.25056 0.69253 0.17808 0.0
C1169 C 0.24854 0.65326 0.18502 0.0
C1170 C 0.23828 0.62963 0.16069 0.0
C1171 C 0.22972 0.64535 0.12937 0.0
C1172 C 0.23101 0.68342 0.12192 0.0
C1173 C 0.21395 0.69072 0.08743 0.0
C1174 C 0.18121 0.70428 0.08542 0.0
C1175 C 0.24443 0.72059 0.06755 0.0
C1176 C 0.20007 0.64992 0.07768 0.0
C1177 C 0.21108 0.62471 0.10174 0.0
C1178 C 0.19792 0.58451 0.10004 0.0
C1179 C 0.17068 0.56914 0.07421 0.0
C1180 C 0.15638 0.59391 0.05087 0.0
C1181 C 0.17325 0.63505 0.05156 0.0
H1182 H 0.35571 0.7842 0.86699 0.0
H1183 H 0.29623 0.86084 0.8229 0.0
H1184 H 0.3247 0.90024 0.86798 0.0
H1185 H 0.35321 0.79402 0.95397 0.0
H1186 H 0.39947 0.79205 0.96623 0.0
H1187 H 0.3673 0.76466 0.93481 0.0
H1188 H 0.41857 0.79828 0.89783 0.0
H1189 H 0.45079 0.82715 0.92786 0.0
H1190 H 0.43819 0.85118 0.88911 0.0
H1191 H 0.37096 0.93971 0.90898 0.0
H1192 H 0.42931 0.97435 0.94382 0.0
H1193 H 0.45539 0.86952 0.96428 0.0
C1194 C 0.34841 0.80895 0.86721 0.0
C1195 C 0.32483 0.82037 0.8414 0.0
C1196 C 0.3147 0.85208 0.84255 0.0
C1197 C 0.33041 0.87434 0.86816 0.0
C1198 C 0.35503 0.86345 0.89279 0.0
C1199 C 0.36325 0.83088 0.89292 0.0
C1200 C 0.39372 0.82798 0.92019 0.0
C1201 C 0.37744 0.79258 0.94529 0.0
C1202 C 0.42729 0.82614 0.90797 0.0
C1203 C 0.40417 0.8662 0.93309 0.0
C1204 C 0.38081 0.88571 0.9177 0.0
C1205 C 0.38867 0.92422 0.9221 0.0
C1206 C 0.42198 0.94374 0.94187 0.0
C1207 C 0.44692 0.92464 0.95674 0.0
C1208 C 0.43678 0.88485 0.95344 0.0
H1209 H 0.10831 0.30541 0.84004 0.0
H1210 H 0.22986 0.34082 0.86447 0.0
H1211 H 0.22884 0.3727 0.90945 0.0
H1212 H 0.10226 0.39114 0.85486 0.0
H1213 H 0.05863 0.366 0.87164 0.0
H1214 H 0.06907 0.34444 0.84284 0.0
H1215 H 0.06058 0.28102 0.88299 0.0
H1216 H 0.04986 0.30232 0.91186 0.0
H1217 H 0.08761 0.28438 0.92255 0.0
H1218 H 0.21431 0.40612 0.94855 0.0
H1219 H 0.18722 0.43272 0.98124 0.0
H1220 H 0.07485 0.37175 0.93228 0.0
C1221 C 0.13464 0.31953 0.85512 0.0
C1222 C 0.1692 0.32084 0.84892 0.0
C1223 C 0.20311 0.33937 0.86911 0.0
C1224 C 0.20276 0.35763 0.89454 0.0
C1225 C 0.16816 0.35646 0.89966 0.0
C1226 C 0.13467 0.33729 0.88076 0.0
C1227 C 0.10126 0.3404 0.89085 0.0
C1228 C 0.08168 0.36177 0.86342 0.0
C1229 C 0.07318 0.2996 0.90278 0.0
C1230 C 0.12116 0.36497 0.91803 0.0
C1231 C 0.15975 0.37419 0.92272 0.0
C1232 C 0.18407 0.39855 0.94537 0.0
C1233 C 0.16847 0.41366 0.96373 0.0
C1234 C 0.1289 0.40397 0.95957 0.0
C1235 C 0.10513 0.37914 0.93647 0.0
H1236 H 0.75337 0.24587 0.85274 0.0
H1237 H 0.66982 0.20667 0.77014 0.0
H1238 H 0.62383 0.16116 0.80604 0.0
H1239 H 0.72944 0.15125 0.90476 0.0
H1240 H 0.7387 0.17524 0.93951 0.0
H1241 H 0.76294 0.20147 0.90557 0.0
H1242 H 0.73721 0.25555 0.90674 0.0
H1243 H 0.71035 0.22601 0.93856 0.0
H1244 H 0.68676 0.24263 0.90141 0.0
H1245 H 0.58673 0.12025 0.85109 0.0
H1246 H 0.56378 0.0817 0.90172 0.0
H1247 H 0.67198 0.14606 0.95504 0.0
C1248 C 0.72556 0.22712 0.84239 0.0
C1249 C 0.71528 0.22873 0.8088 0.0
C1250 C 0.67834 0.20497 0.79586 0.0
C1251 C 0.65202 0.17933 0.81606 0.0
C1252 C 0.66295 0.1782 0.84915 0.0
C1253 C 0.69898 0.20116 0.86226 0.0
C1254 C 0.70344 0.19435 0.89862 0.0
C1255 C 0.73557 0.17974 0.91289 0.0
C1256 C 0.70981 0.23187 0.91212 0.0
C1257 C 0.66497 0.16261 0.90384 0.0
C1258 C 0.64166 0.15452 0.87504 0.0
C1259 C 0.60476 0.12628 0.87379 0.0
C1260 C 0.59184 0.10471 0.90266 0.0
C1261 C 0.61608 0.11088 0.93222 0.0
C1262 C 0.65282 0.14077 0.93274 0.0
H1263 H 0.81049 0.64433 0.83486 0.0
H1264 H 0.89143 0.74742 0.78724 0.0
H1265 H 0.94378 0.72825 0.81833 0.0
H1266 H 0.86866 0.64453 0.91316 0.0
H1267 H 0.85197 0.59166 0.92071 0.0
H1268 H 0.82187 0.61493 0.89563 0.0
H1269 H 0.81422 0.5754 0.85 0.0
H1270 H 0.84469 0.55236 0.87473 0.0
H1271 H 0.85575 0.57854 0.83583 0.0
H1272 H 0.98794 0.69555 0.85527 0.0
H1273 H 1.01846 0.65559 0.89454 0.0
H1274 H 0.90802 0.57254 0.9166 0.0
C1275 C 0.83933 0.66318 0.83127 0.0
C1276 C 0.84676 0.6981 0.80913 0.0
C1277 C 0.88489 0.7213 0.80465 0.0
C1278 C 0.91484 0.7103 0.82208 0.0
C1279 C 0.90644 0.67561 0.84372 0.0
C1280 C 0.86946 0.65253 0.84837 0.0
C1281 C 0.86759 0.61645 0.87267 0.0
C1282 C 0.85158 0.61693 0.9023 0.0
C1283 C 0.84417 0.57845 0.85738 0.0
C1284 C 0.90923 0.62235 0.8809 0.0
C1285 C 0.93129 0.65671 0.86406 0.0
C1286 C 0.97069 0.66859 0.86837 0.0
C1287 C 0.98788 0.64545 0.89072 0.0
C1288 C 0.96599 0.61027 0.90866 0.0
C1289 C 0.92592 0.59864 0.90306 0.0
H1290 H 0.26995 0.3642 0.18826 0.0
H1291 H 0.18559 0.2633 0.23461 0.0
H1292 H 0.13483 0.28259 0.20022 0.0
H1293 H 0.22375 0.43154 0.18136 0.0
H1294 H 0.2375 0.45631 0.14282 0.0
H1295 H 0.2667 0.43379 0.17036 0.0
H1296 H 0.26254 0.39229 0.12726 0.0
H1297 H 0.23384 0.4152 0.09948 0.0
H1298 H 0.21672 0.3624 0.10825 0.0
H1299 H 0.0926 0.31366 0.1587 0.0
H1300 H 0.06417 0.35236 0.11579 0.0
H1301 H 0.17659 0.43479 0.0984 0.0
C1302 C 0.24073 0.34598 0.191 0.0
C1303 C 0.23182 0.31142 0.21356 0.0
C1304 C 0.19322 0.28909 0.21691 0.0
C1305 C 0.16417 0.30012 0.19757 0.0
C1306 C 0.17396 0.33409 0.17521 0.0
C1307 C 0.21146 0.35671 0.172 0.0
C1308 C 0.21475 0.39206 0.14652 0.0
C1309 C 0.23699 0.43071 0.16115 0.0
C1310 C 0.23304 0.39037 0.11873 0.0
C1311 C 0.17332 0.38611 0.13582 0.0
C1312 C 0.15013 0.35238 0.1525 0.0
C1313 C 0.11071 0.34023 0.14581 0.0
C1314 C 0.09471 0.36258 0.12135 0.0
C1315 C 0.11783 0.39725 0.10375 0.0
C1316 C 0.1578 0.4091 0.11165 0.0
H1317 H 0.17684 0.649 0.78467 0.0
H1318 H 0.26572 0.73364 0.84177 0.0
H1319 H 0.22912 0.70954 0.88642 0.0
H1320 H 0.09333 0.63978 0.82029 0.0
H1321 H 0.0726 0.5871 0.82152 0.0
H1322 H 0.10132 0.61697 0.79087 0.0
H1323 H 0.14403 0.57652 0.80852 0.0
H1324 H 0.11544 0.5472 0.83924 0.0
H1325 H 0.16571 0.57272 0.84977 0.0
H1326 H 0.18545 0.67657 0.92554 0.0
H1327 H 0.14563 0.62524 0.96273 0.0
H1328 H 0.08846 0.5529 0.88605 0.0
C1329 C 0.18776 0.66312 0.80628 0.0
C1330 C 0.22257 0.69597 0.80855 0.0
C1331 C 0.23763 0.71136 0.83815 0.0
C1332 C 0.21715 0.69738 0.86398 0.0
C1333 C 0.18221 0.66637 0.86064 0.0
C1334 C 0.16812 0.64827 0.83309 0.0
C1335 C 0.13343 0.61074 0.83849 0.0
C1336 C 0.09808 0.61384 0.81647 0.0
C1337 C 0.14007 0.57467 0.83373 0.0
C1338 C 0.131 0.61046 0.87348 0.0
C1339 C 0.15867 0.64385 0.88511 0.0
C1340 C 0.16349 0.65037 0.91677 0.0
C1341 C 0.14061 0.62121 0.93767 0.0
C1342 C 0.11366 0.58568 0.92705 0.0
C1343 C 0.10816 0.5804 0.8944 0.0
H1344 H 0.33246 0.16164 0.79517 0.0
H1345 H 0.37938 0.27552 0.82924 0.0
H1346 H 0.41993 0.2526 0.8733 0.0
H1347 H 0.33561 0.10059 0.87782 0.0
H1348 H 0.34804 0.06725 0.86219 0.0
H1349 H 0.31976 0.09218 0.83638 0.0
H1350 H 0.3701 0.11681 0.79743 0.0
H1351 H 0.39903 0.09411 0.82521 0.0
H1352 H 0.41857 0.14604 0.81157 0.0
H1353 H 0.46126 0.22167 0.90954 0.0
H1354 H 0.49332 0.18056 0.94308 0.0
H1355 H 0.41928 0.08209 0.89116 0.0
C1356 C 0.35004 0.18105 0.81279 0.0
C1357 C 0.35144 0.22028 0.80919 0.0
C1358 C 0.37667 0.24522 0.83185 0.0
C1359 C 0.40021 0.2325 0.8569 0.0
C1360 C 0.39889 0.19439 0.85944 0.0
C1361 C 0.3739 0.16847 0.83861 0.0
C1362 C 0.37976 0.1294 0.84684 0.0
C1363 C 0.34359 0.09536 0.85634 0.0
C1364 C 0.39262 0.1211 0.81857 0.0
C1365 C 0.41152 0.13754 0.87558 0.0
C1366 C 0.42242 0.17567 0.88166 0.0
C1367 C 0.45236 0.19148 0.90541 0.0
C1368 C 0.47076 0.16761 0.92435 0.0
C1369 C 0.45923 0.12742 0.92048 0.0
C1370 C 0.42913 0.11244 0.89518 0.0
H1371 H 0.84199 0.28991 0.85394 0.0
H1372 H 0.8496 0.39647 0.78894 0.0
H1373 H 0.8732 0.43458 0.83452 0.0
H1374 H 0.82016 0.31481 0.92367 0.0
H1375 H 0.8513 0.29528 0.9519 0.0
H1376 H 0.82878 0.27446 0.915 0.0
H1377 H 0.89393 0.28676 0.9005 0.0
H1378 H 0.91672 0.30678 0.93746 0.0
H1379 H 0.93049 0.33543 0.89989 0.0
H1380 H 0.89645 0.46151 0.88593 0.0
H1381 H 0.93769 0.48023 0.93628 0.0
H1382 H 0.92306 0.35826 0.96795 0.0
C1383 C 0.84864 0.32125 0.8493 0.0
C1384 C 0.84215 0.33995 0.818 0.0
C1385 C 0.85237 0.38119 0.81288 0.0
C1386 C 0.86573 0.40311 0.83864 0.0
C1387 C 0.86992 0.38354 0.86936 0.0
C1388 C 0.86319 0.34389 0.87473 0.0
C1389 C 0.87595 0.33148 0.90942 0.0
C1390 C 0.84202 0.30228 0.92597 0.0
C1391 C 0.90609 0.31414 0.91196 0.0
C1392 C 0.8924 0.37081 0.92227 0.0
C1393 C 0.88684 0.39994 0.89906 0.0
C1394 C 0.90109 0.43906 0.90438 0.0
C1395 C 0.92437 0.44936 0.93326 0.0
C1396 C 0.9342 0.42082 0.95588 0.0
C1397 C 0.91604 0.38072 0.95114 0.0
H1398 H 0.73496 0.8936 0.86532 0.0
H1399 H 0.83828 0.92689 0.9336 0.0
H1400 H 0.80795 0.9483 0.96666 0.0
H1401 H 0.70723 0.97114 0.87076 0.0
H1402 H 0.65737 0.9415 0.86943 0.0
H1403 H 0.68648 0.92782 0.85058 0.0
H1404 H 0.6653 0.85908 0.8841 0.0
H1405 H 0.6358 0.87241 0.90281 0.0
H1406 H 0.67096 0.85534 0.92719 0.0
H1407 H 0.76925 0.97166 0.99037 0.0
H1408 H 0.7209 0.98676 0.0076 0.0
H1409 H 0.63944 0.93346 0.92797 0.0
C1410 C 0.75101 0.90479 0.88747 0.0
C1411 C 0.78959 0.90937 0.8962 0.0
C1412 C 0.80926 0.92417 0.92556 0.0
C1413 C 0.79218 0.93626 0.94476 0.0
C1414 C 0.75484 0.93274 0.93494 0.0
C1415 C 0.73407 0.91657 0.90742 0.0
C1416 C 0.694 0.91563 0.90303 0.0
C1417 C 0.6858 0.94051 0.87158 0.0
C1418 C 0.66478 0.87308 0.90437 0.0
C1419 C 0.69589 0.93425 0.93211 0.0
C1420 C 0.73151 0.94426 0.94988 0.0
C1421 C 0.74108 0.96349 0.97689 0.0
C1422 C 0.71344 0.97222 0.98639 0.0
C1423 C 0.67625 0.96125 0.96932 0.0
C1424 C 0.66748 0.94196 0.94173 0.0
H1425 H 0.85136 0.62706 0.13621 0.0
H1426 H 0.93777 0.74467 0.14202 0.0
H1427 H 0.96931 0.73437 0.1027 0.0
H1428 H 0.9141 0.58223 0.13634 0.0
H1429 H 0.88299 0.54771 0.10917 0.0
H1430 H 0.86349 0.56607 0.1338 0.0
H1431 H 0.82565 0.59029 0.0832 0.0
H1432 H 0.84489 0.57179 0.05836 0.0
H1433 H 0.85026 0.6226 0.05099 0.0
H1434 H 0.99507 0.70976 0.0676 0.0
H1435 H 1.01424 0.67255 0.03869 0.0
H1436 H 0.91337 0.56883 0.05733 0.0
C1437 C 0.87678 0.65084 0.12911 0.0
C1438 C 0.89191 0.68683 0.14227 0.0
C1439 C 0.92504 0.71717 0.13193 0.0
C1440 C 0.94335 0.71152 0.1097 0.0
C1441 C 0.92826 0.67535 0.09803 0.0
C1442 C 0.89572 0.6455 0.10728 0.0
C1443 C 0.88726 0.60835 0.09312 0.0
C1444 C 0.88696 0.57408 0.11969 0.0
C1445 C 0.84979 0.59764 0.07004 0.0
C1446 C 0.92083 0.62172 0.0752 0.0
C1447 C 0.94373 0.66065 0.07807 0.0
C1448 C 0.97723 0.67938 0.06493 0.0
C1449 C 0.98793 0.65776 0.04865 0.0
C1450 C 0.96539 0.61755 0.04573 0.0
C1451 C 0.93109 0.5995 0.05891 0.0
H1452 H 0.33363 0.80104 0.16965 0.0
H1453 H 0.41722 0.85048 0.24944 0.0
H1454 H 0.46152 0.89391 0.21192 0.0
H1455 H 0.40028 0.80093 0.12388 0.0
H1456 H 0.37684 0.81392 0.0852 0.0
H1457 H 0.34975 0.78771 0.1176 0.0
H1458 H 0.32329 0.84212 0.11226 0.0
H1459 H 0.34852 0.86627 0.07855 0.0
H1460 H 0.35605 0.89287 0.11139 0.0
H1461 H 0.49906 0.9287 0.16667 0.0
H1462 H 0.52333 0.96115 0.11531 0.0
H1463 H 0.41573 0.89258 0.06356 0.0
C1464 C 0.36079 0.82194 0.17901 0.0
C1465 C 0.37171 0.82302 0.21254 0.0
C1466 C 0.40809 0.84965 0.2239 0.0
C1467 C 0.43358 0.87426 0.20277 0.0
C1468 C 0.42261 0.87192 0.17006 0.0
C1469 C 0.38686 0.84707 0.15802 0.0
C1470 C 0.38299 0.85016 0.12166 0.0
C1471 C 0.37712 0.81084 0.1115 0.0
C1472 C 0.35076 0.86366 0.10503 0.0
C1473 C 0.42153 0.88147 0.11531 0.0
C1474 C 0.44426 0.89272 0.1437 0.0
C1475 C 0.48139 0.9204 0.14423 0.0
C1476 C 0.49515 0.93842 0.11493 0.0
C1477 C 0.4716 0.92943 0.08541 0.0
C1478 C 0.4345 0.89997 0.08576 0.0
H1479 H 0.7357 0.11283 0.21466 0.0
H1480 H 0.81089 0.22347 0.17073 0.0
H1481 H 0.77658 0.20714 0.11735 0.0
H1482 H 0.71962 0.05431 0.14438 0.0
H1483 H 0.67128 0.02645 0.15131 0.0
H1484 H 0.70782 0.04329 0.18451 0.0
H1485 H 0.66806 0.07628 0.19975 0.0
H1486 H 0.63263 0.0612 0.16569 0.0
H1487 H 0.65541 0.11242 0.17099 0.0
H1488 H 0.7249 0.18705 0.07156 0.0
H1489 H 0.66511 0.1588 0.035 0.0
H1490 H 0.62615 0.05832 0.10694 0.0
C1491 C 0.74612 0.13241 0.19356 0.0
C1492 C 0.77672 0.16876 0.1966 0.0
C1493 C 0.78871 0.19475 0.16879 0.0
C1494 C 0.76902 0.18587 0.13834 0.0
C1495 C 0.73793 0.15044 0.13612 0.0
C1496 C 0.72722 0.12348 0.16291 0.0
C1497 C 0.69076 0.08924 0.15436 0.0
C1498 C 0.69783 0.05107 0.15889 0.0
C1499 C 0.65993 0.08458 0.17383 0.0
C1500 C 0.68126 0.10263 0.11918 0.0
C1501 C 0.70889 0.1379 0.10901 0.0
C1502 C 0.7038 0.15865 0.07876 0.0
C1503 C 0.66979 0.14269 0.05828 0.0
C1504 C 0.64183 0.10618 0.0681 0.0
C1505 C 0.64786 0.08575 0.09867 0.0
H1506 H 0.75582 0.6994 0.86031 0.0
H1507 H 0.6625 0.68814 0.78268 0.0
H1508 H 0.61777 0.64268 0.8194 0.0
H1509 H 0.72399 0.60113 0.8925 0.0
H1510 H 0.73966 0.60981 0.93381 0.0
H1511 H 0.76377 0.64515 0.90269 0.0
H1512 H 0.7523 0.69999 0.9219 0.0
H1513 H 0.72852 0.66494 0.95341 0.0
H1514 H 0.70483 0.69315 0.92552 0.0
H1515 H 0.58451 0.5942 0.8628 0.0
H1516 H 0.56388 0.54818 0.91121 0.0
H1517 H 0.67932 0.58997 0.96002 0.0
C1518 C 0.72593 0.68819 0.85119 0.0
C1519 C 0.71254 0.69726 0.81874 0.0
C1520 C 0.67325 0.68139 0.80753 0.0
C1521 C 0.64769 0.65566 0.82818 0.0
C1522 C 0.66202 0.64633 0.85984 0.0
C1523 C 0.70016 0.66231 0.87137 0.0
C1524 C 0.70861 0.64557 0.90578 0.0
C1525 C 0.73559 0.62414 0.90885 0.0
C1526 C 0.7245 0.67784 0.92796 0.0
C1527 C 0.66929 0.6171 0.91166 0.0
C1528 C 0.64282 0.61822 0.88491 0.0
C1529 C 0.60482 0.59356 0.88409 0.0
C1530 C 0.59339 0.56767 0.91164 0.0
C1531 C 0.62002 0.56627 0.93927 0.0
C1532 C 0.65846 0.59097 0.9392 0.0
H1533 H 0.43078 0.65519 0.80425 0.0
H1534 H 0.53366 0.76003 0.80237 0.0
H1535 H 0.57043 0.72018 0.82783 0.0
H1536 H 0.4343 0.619 0.8676 0.0
H1537 H 0.42173 0.56723 0.86714 0.0
H1538 H 0.4068 0.59531 0.83275 0.0
H1539 H 0.43945 0.57519 0.79697 0.0
H1540 H 0.45359 0.54552 0.83153 0.0
H1541 H 0.48853 0.58178 0.80809 0.0
H1542 H 0.58669 0.68369 0.87778 0.0
H1543 H 0.58439 0.64789 0.93222 0.0
H1544 H 0.47387 0.56245 0.90085 0.0
C1545 C 0.46109 0.66993 0.80742 0.0
C1546 C 0.47879 0.71144 0.80494 0.0
C1547 C 0.51877 0.72858 0.80719 0.0
C1548 C 0.54019 0.7059 0.82102 0.0
C1549 C 0.52117 0.66586 0.8302 0.0
C1550 C 0.48254 0.64721 0.82102 0.0
C1551 C 0.46751 0.60606 0.83902 0.0
C1552 C 0.43053 0.59652 0.85247 0.0
C1553 C 0.46199 0.57534 0.81762 0.0
C1554 C 0.50066 0.60908 0.86518 0.0
C1555 C 0.53219 0.64264 0.85864 0.0
C1556 C 0.56295 0.65642 0.88246 0.0
C1557 C 0.56109 0.63628 0.91357 0.0
C1558 C 0.52862 0.60265 0.92072 0.0
C1559 C 0.49902 0.58804 0.89588 0.0
H1560 H 0.37814 0.3678 0.79737 0.0
H1561 H 0.27342 0.30373 0.83729 0.0
H1562 H 0.29902 0.34316 0.88224 0.0
H1563 H 0.43669 0.36867 0.86648 0.0
H1564 H 0.47193 0.41711 0.85761 0.0
H1565 H 0.4424 0.38995 0.82548 0.0
H1566 H 0.42058 0.44749 0.80094 0.0
H1567 H 0.45043 0.47482 0.83318 0.0
H1568 H 0.40068 0.46597 0.82525 0.0
H1569 H 0.34009 0.37969 0.92779 0.0
H1570 H 0.39373 0.40759 0.96983 0.0
H1571 H 0.47044 0.45106 0.89933 0.0
C1572 C 0.35996 0.36317 0.81466 0.0
C1573 C 0.32368 0.3328 0.81338 0.0
C1574 C 0.30139 0.32673 0.83756 0.0
C1575 C 0.31556 0.34933 0.86312 0.0
C1576 C 0.35192 0.37842 0.86407 0.0
C1577 C 0.37371 0.3856 0.84025 0.0
C1578 C 0.41363 0.4146 0.84889 0.0
C1579 C 0.44284 0.39648 0.84969 0.0
C1580 C 0.42178 0.453 0.82568 0.0
C1581 C 0.41154 0.42088 0.88209 0.0
C1582 C 0.37547 0.40045 0.89021 0.0
C1583 C 0.36809 0.39703 0.92136 0.0
C1584 C 0.39857 0.41325 0.94508 0.0
C1585 C 0.43571 0.43275 0.93735 0.0
C1586 C 0.44189 0.43799 0.90529 0.0
H1587 H 0.58804 0.32119 0.81096 0.0
H1588 H 0.71003 0.37855 0.81745 0.0
H1589 H 0.71353 0.39251 0.87232 0.0
H1590 H 0.57405 0.38709 0.84737 0.0
H1591 H 0.53636 0.35103 0.86824 0.0
H1592 H 0.54446 0.34143 0.83168 0.0
H1593 H 0.55129 0.27677 0.86088 0.0
H1594 H 0.54306 0.28616 0.8976 0.0
H1595 H 0.58522 0.27811 0.89665 0.0
H1596 H 0.70177 0.4084 0.92386 0.0
H1597 H 0.67649 0.42121 0.96696 0.0
H1598 H 0.56266 0.35041 0.92658 0.0
C1599 C 0.61557 0.33598 0.82421 0.0
C1600 C 0.64879 0.34877 0.80999 0.0
C1601 C 0.68429 0.3681 0.82804 0.0
C1602 C 0.68648 0.37627 0.85917 0.0
C1603 C 0.65296 0.36425 0.87214 0.0
C1604 C 0.61823 0.3439 0.85529 0.0
C1605 C 0.58611 0.33602 0.87347 0.0
C1606 C 0.55866 0.35504 0.85404 0.0
C1607 C 0.5652 0.29163 0.8827 0.0
C1608 C 0.60793 0.35625 0.90273 0.0
C1609 C 0.64646 0.37229 0.90179 0.0
C1610 C 0.6717 0.39522 0.9251 0.0
C1611 C 0.65709 0.40235 0.94957 0.0
C1612 C 0.61757 0.38655 0.95061 0.0
C1613 C 0.59307 0.36249 0.9271 0.0
H1614 H 0.64317 0.28681 0.19561 0.0
H1615 H 0.53983 0.18549 0.17755 0.0
H1616 H 0.50361 0.22745 0.16749 0.0
H1617 H 0.58424 0.35112 0.21485 0.0
H1618 H 0.6207 0.39403 0.19797 0.0
H1619 H 0.63291 0.35626 0.22499 0.0
H1620 H 0.66841 0.35253 0.18222 0.0
H1621 H 0.65507 0.38867 0.15525 0.0
H1622 H 0.64304 0.34133 0.14282 0.0
H1623 H 0.48697 0.27655 0.13129 0.0
H1624 H 0.49173 0.32284 0.0821 0.0
H1625 H 0.60476 0.39635 0.12091 0.0
C1626 C 0.61273 0.27282 0.19179 0.0
C1627 C 0.59462 0.23331 0.18553 0.0
C1628 C 0.55467 0.21619 0.18086 0.0
C1629 C 0.53372 0.23988 0.17568 0.0
C1630 C 0.55308 0.28041 0.17596 0.0
C1631 C 0.59181 0.29659 0.1861 0.0
C1632 C 0.60756 0.34082 0.17668 0.0
C1633 C 0.61156 0.36179 0.2053 0.0
C1634 C 0.64564 0.3566 0.16336 0.0
C1635 C 0.57529 0.34442 0.15163 0.0
C1636 C 0.54282 0.31045 0.15406 0.0
C1637 C 0.5118 0.30354 0.12983 0.0
C1638 C 0.51507 0.32975 0.10154 0.0
C1639 C 0.54927 0.36252 0.09749 0.0
C1640 C 0.57853 0.37127 0.12359 0.0
H1641 H 0.70572 0.6221 0.21497 0.0
H1642 H 0.78765 0.7126 0.15838 0.0
H1643 H 0.77181 0.66818 0.11845 0.0
H1644 H 0.71055 0.53322 0.1899 0.0
H1645 H 0.65995 0.50733 0.18707 0.0
H1646 H 0.68472 0.54138 0.21613 0.0
H1647 H 0.64135 0.57992 0.19301 0.0
H1648 H 0.616 0.54566 0.16468 0.0
H1649 H 0.6367 0.59751 0.1508 0.0
H1650 H 0.73957 0.62093 0.07958 0.0
H1651 H 0.68754 0.58045 0.04252 0.0
H1652 H 0.62353 0.52007 0.12108 0.0
C1653 C 0.72082 0.63228 0.19455 0.0
C1654 C 0.74835 0.67092 0.19034 0.0
C1655 C 0.76691 0.68313 0.16277 0.0
C1656 C 0.75826 0.65785 0.13985 0.0
C1657 C 0.73035 0.62034 0.14426 0.0
C1658 C 0.7115 0.60771 0.17074 0.0
C1659 C 0.67782 0.56925 0.16669 0.0
C1660 C 0.68362 0.53581 0.19142 0.0
C1661 C 0.64079 0.57337 0.16886 0.0
C1662 C 0.67926 0.56368 0.133 0.0
C1663 C 0.71077 0.59268 0.12103 0.0
C1664 C 0.71542 0.59735 0.08893 0.0
C1665 C 0.68594 0.57388 0.06802 0.0
C1666 C 0.65225 0.5463 0.07926 0.0
C1667 C 0.6499 0.53955 0.1124 0.0
H1668 H 0.37488 0.56382 0.18839 0.0
H1669 H 0.43108 0.69086 0.18155 0.0
H1670 H 0.45684 0.69153 0.13366 0.0
H1671 H 0.44907 0.54644 0.16626 0.0
H1672 H 0.41798 0.50694 0.14346 0.0
H1673 H 0.40225 0.51659 0.17621 0.0
H1674 H 0.34398 0.52347 0.13797 0.0
H1675 H 0.35974 0.51417 0.10501 0.0
H1676 H 0.3509 0.55829 0.10203 0.0
H1677 H 0.48066 0.67843 0.08938 0.0
H1678 H 0.5008 0.65224 0.05122 0.0
H1679 H 0.42768 0.53384 0.08454 0.0
C1680 C 0.39257 0.59177 0.17678 0.0
C1681 C 0.40078 0.62736 0.18873 0.0
C1682 C 0.4239 0.6633 0.17266 0.0
C1683 C 0.43876 0.66397 0.14546 0.0
C1684 C 0.43007 0.62848 0.1343 0.0
C1685 C 0.40745 0.59302 0.14934 0.0
C1686 C 0.40346 0.55903 0.13286 0.0
C1687 C 0.41914 0.53058 0.15608 0.0
C1688 C 0.36206 0.53748 0.11862 0.0
C1689 C 0.42803 0.58092 0.10662 0.0
C1690 C 0.443 0.62099 0.10792 0.0
C1691 C 0.46863 0.6472 0.08776 0.0
C1692 C 0.47988 0.63209 0.06614 0.0
C1693 C 0.46523 0.59117 0.06448 0.0
C1694 C 0.43841 0.56535 0.08461 0.0
H1695 H 0.32238 0.29594 0.16513 0.0
H1696 H 0.41313 0.30421 0.24471 0.0
H1697 H 0.46012 0.33828 0.20699 0.0
H1698 H 0.36809 0.28343 0.10366 0.0
H1699 H 0.34893 0.31348 0.07308 0.0
H1700 H 0.32306 0.28481 0.1057 0.0
H1701 H 0.32073 0.34781 0.11956 0.0
H1702 H 0.34664 0.37666 0.08718 0.0
H1703 H 0.36431 0.38937 0.12735 0.0
H1704 H 0.49666 0.37595 0.16088 0.0
H1705 H 0.51965 0.41828 0.11155 0.0
H1706 H 0.40403 0.38665 0.0636 0.0
C1707 C 0.35206 0.30404 0.17468 0.0
C1708 C 0.36417 0.29728 0.20778 0.0
C1709 C 0.40333 0.30913 0.21934 0.0
C1710 C 0.43014 0.32823 0.1981 0.0
C1711 C 0.4171 0.33502 0.16556 0.0
C1712 C 0.37893 0.32334 0.15401 0.0
C1713 C 0.37195 0.33755 0.11878 0.0
C1714 C 0.35182 0.30274 0.09915 0.0
C1715 C 0.34962 0.36445 0.1129 0.0
C1716 C 0.41221 0.36018 0.11235 0.0
C1717 C 0.43793 0.35768 0.13939 0.0
C1718 C 0.47679 0.37774 0.13951 0.0
C1719 C 0.48957 0.40151 0.11141 0.0
C1720 C 0.46348 0.40518 0.0839 0.0
C1721 C 0.42446 0.38396 0.08432 0.0
H1722 H 0.83725 0.64632 0.61977 0.0
H1723 H 0.74907 0.53042 0.63515 0.0
H1724 H 0.78106 0.50328 0.60803 0.0
H1725 H 0.849 0.6403 0.54241 0.0
H1726 H 0.89973 0.66576 0.54764 0.0
H1727 H 0.87171 0.67585 0.57044 0.0
H1728 H 0.91103 0.6589 0.62336 0.0
H1729 H 0.93952 0.64918 0.60074 0.0
H1730 H 0.91586 0.61209 0.63131 0.0
H1731 H 0.81939 0.48976 0.57506 0.0
H1732 H 0.86441 0.48973 0.54243 0.0
H1733 H 0.92905 0.61383 0.54965 0.0
C1734 C 0.82509 0.61511 0.61797 0.0
C1735 C 0.79046 0.59057 0.6294 0.0
C1736 C 0.77525 0.54993 0.62618 0.0
C1737 C 0.79329 0.53419 0.61091 0.0
C1738 C 0.8267 0.55937 0.59904 0.0
C1739 C 0.84277 0.59886 0.60273 0.0
C1740 C 0.87841 0.61964 0.587 0.0
C1741 C 0.87445 0.65231 0.56029 0.0
C1742 C 0.91327 0.63591 0.6121 0.0
C1743 C 0.87937 0.58586 0.57332 0.0
C1744 C 0.84928 0.55135 0.58057 0.0
C1745 C 0.84328 0.51652 0.56951 0.0
C1746 C 0.86887 0.51687 0.55076 0.0
C1747 C 0.9003 0.55175 0.54341 0.0
C1748 C 0.90547 0.58662 0.55498 0.0
H1749 H 0.3618 0.88533 0.70245 0.0
H1750 H 0.32479 0.76806 0.67751 0.0
H1751 H 0.37654 0.79119 0.64435 0.0
H1752 H 0.37676 0.93064 0.62352 0.0
H1753 H 0.41575 0.97421 0.63572 0.0
H1754 H 0.38005 0.94664 0.66126 0.0
H1755 H 0.43198 0.93921 0.70813 0.0
H1756 H 0.46738 0.96742 0.68226 0.0
H1757 H 0.46449 0.91938 0.70169 0.0
H1758 H 0.43279 0.82823 0.61339 0.0
H1759 H 0.47593 0.87732 0.57665 0.0
H1760 H 0.47085 0.97126 0.61727 0.0
C1761 C 0.36543 0.8644 0.69067 0.0
C1762 C 0.34144 0.82429 0.69446 0.0
C1763 C 0.34464 0.79831 0.67661 0.0
C1764 C 0.37388 0.81129 0.65768 0.0
C1765 C 0.39859 0.85075 0.65582 0.0
C1766 C 0.39376 0.87715 0.67107 0.0
C1767 C 0.41979 0.91897 0.66116 0.0
C1768 C 0.39672 0.94407 0.64441 0.0
C1769 C 0.44754 0.9373 0.69005 0.0
C1770 C 0.44018 0.91213 0.63796 0.0
C1771 C 0.42841 0.87251 0.63588 0.0
C1772 C 0.44235 0.85929 0.61501 0.0
C1773 C 0.46731 0.88731 0.59456 0.0
C1774 C 0.47741 0.92796 0.59475 0.0
C1775 C 0.46451 0.94034 0.6174 0.0
H1776 H 0.17446 0.258 0.6657 0.0
H1777 H 0.25546 0.34403 0.72598 0.0
H1778 H 0.22858 0.39309 0.69712 0.0
H1779 H 0.17694 0.32649 0.59177 0.0
H1780 H 0.12735 0.3016 0.57799 0.0
H1781 H 0.15358 0.27453 0.60383 0.0
H1782 H 0.10413 0.25102 0.64317 0.0
H1783 H 0.07892 0.2794 0.61772 0.0
H1784 H 0.09559 0.287 0.65918 0.0
H1785 H 0.19163 0.43305 0.66118 0.0
H1786 H 0.15291 0.46176 0.6197 0.0
H1787 H 0.09636 0.35062 0.58074 0.0
C1788 C 0.18669 0.2873 0.67267 0.0
C1789 C 0.21776 0.29729 0.69783 0.0
C1790 C 0.23241 0.3358 0.70644 0.0
C1791 C 0.217 0.36379 0.69026 0.0
C1792 C 0.18668 0.3531 0.66535 0.0
C1793 C 0.17194 0.3158 0.6564 0.0
C1794 C 0.14003 0.31205 0.62824 0.0
C1795 C 0.15008 0.30313 0.59872 0.0
C1796 C 0.10244 0.28049 0.63765 0.0
C1797 C 0.13891 0.353 0.62264 0.0
C1798 C 0.16589 0.37609 0.64453 0.0
C1799 C 0.17055 0.41507 0.644 0.0
C1800 C 0.14807 0.43116 0.62022 0.0
C1801 C 0.12092 0.40878 0.5966 0.0
C1802 C 0.11616 0.36874 0.59844 0.0
H1803 H 0.71362 0.15702 0.69234 0.0
H1804 H 0.67361 0.252 0.65793 0.0
H1805 H 0.63223 0.21649 0.61325 0.0
H1806 H 0.72133 0.14158 0.61851 0.0
H1807 H 0.70549 0.08878 0.62634 0.0
H1808 H 0.72711 0.11783 0.65895 0.0
H1809 H 0.66811 0.07862 0.68771 0.0
H1810 H 0.64632 0.04917 0.65521 0.0
H1811 H 0.62195 0.075 0.66686 0.0
H1812 H 0.60459 0.17808 0.56839 0.0
H1813 H 0.58904 0.13683 0.52616 0.0
H1814 H 0.64318 0.06317 0.58921 0.0
C1815 C 0.69533 0.16973 0.67588 0.0
C1816 C 0.69673 0.20719 0.67852 0.0
C1817 C 0.67307 0.22339 0.65622 0.0
C1818 C 0.64928 0.20334 0.63089 0.0
C1819 C 0.64938 0.16707 0.6283 0.0
C1820 C 0.67145 0.1501 0.65025 0.0
C1821 C 0.66882 0.1126 0.63997 0.0
C1822 C 0.70801 0.1154 0.63568 0.0
C1823 C 0.65018 0.07672 0.66386 0.0
C1824 C 0.64323 0.11226 0.60811 0.0
C1825 C 0.63209 0.14377 0.6022 0.0
C1826 C 0.61199 0.15253 0.57309 0.0
C1827 C 0.60316 0.12866 0.54919 0.0
C1828 C 0.61362 0.09571 0.55465 0.0
C1829 C 0.63366 0.08729 0.58471 0.0
H1830 H 0.80609 0.32111 0.33931 0.0
H1831 H 0.8794 0.36885 0.26575 0.0
H1832 H 0.92362 0.4202 0.2983 0.0
H1833 H 0.83638 0.42875 0.36602 0.0
H1834 H 0.83135 0.40682 0.40694 0.0
H1835 H 0.79945 0.38134 0.37442 0.0
H1836 H 0.81725 0.321 0.39676 0.0
H1837 H 0.84836 0.34648 0.42915 0.0
H1838 H 0.86712 0.32832 0.40376 0.0
H1839 H 0.96796 0.44963 0.34354 0.0
H1840 H 1.00564 0.46429 0.39635 0.0
H1841 H 0.90437 0.40425 0.44164 0.0
C1842 C 0.8302 0.34402 0.32934 0.0
C1843 C 0.83939 0.34111 0.3 0.0
C1844 C 0.87184 0.37066 0.28808 0.0
C1845 C 0.89715 0.40007 0.30642 0.0
C1846 C 0.88906 0.40059 0.3363 0.0
C1847 C 0.85557 0.37464 0.34724 0.0
C1848 C 0.85608 0.38019 0.38158 0.0
C1849 C 0.82923 0.40049 0.38228 0.0
C1850 C 0.84653 0.34151 0.40414 0.0
C1851 C 0.89708 0.40741 0.38977 0.0
C1852 C 0.91498 0.42017 0.36274 0.0
C1853 C 0.95395 0.44104 0.36461 0.0
C1854 C 0.97522 0.44872 0.39475 0.0
C1855 C 0.95775 0.43529 0.42279 0.0
C1856 C 0.9181 0.41516 0.42032 0.0
H1857 H 0.59613 0.73785 0.3958 0.0
H1858 H 0.71736 0.79708 0.39505 0.0
H1859 H 0.71856 0.8482 0.42398 0.0
H1860 H 0.57562 0.82374 0.3829 0.0
H1861 H 0.53992 0.80417 0.40913 0.0
H1862 H 0.54881 0.77151 0.38933 0.0
H1863 H 0.56119 0.73199 0.44423 0.0
H1864 H 0.55204 0.76438 0.46417 0.0
H1865 H 0.59611 0.75727 0.47545 0.0
H1866 H 0.70595 0.89439 0.45143 0.0
H1867 H 0.68078 0.93029 0.47698 0.0
H1868 H 0.56819 0.83986 0.46025 0.0
C1869 C 0.62303 0.76119 0.40218 0.0
C1870 C 0.65661 0.76349 0.39306 0.0
C1871 C 0.69116 0.79495 0.40144 0.0
C1872 C 0.69217 0.82406 0.41798 0.0
C1873 C 0.65843 0.82126 0.42613 0.0
C1874 C 0.62455 0.79049 0.41868 0.0
C1875 C 0.59219 0.79464 0.42968 0.0
C1876 C 0.56239 0.79877 0.40105 0.0
C1877 C 0.57435 0.76002 0.45489 0.0
C1878 C 0.61313 0.83259 0.44436 0.0
C1879 C 0.65129 0.84759 0.44206 0.0
C1880 C 0.67612 0.88281 0.45352 0.0
C1881 C 0.66155 0.90305 0.46791 0.0
C1882 C 0.62254 0.88794 0.47078 0.0
C1883 C 0.59821 0.85224 0.45869 0.0
H1884 H 0.16796 0.65906 0.28427 0.0
H1885 H 0.26739 0.74325 0.33346 0.0
H1886 H 0.23993 0.71918 0.38359 0.0
H1887 H 0.09862 0.66199 0.32578 0.0
H1888 H 0.07081 0.60989 0.32917 0.0
H1889 H 0.09775 0.63345 0.29631 0.0
H1890 H 0.1326 0.58533 0.31191 0.0
H1891 H 0.10484 0.56104 0.34413 0.0
H1892 H 0.15576 0.57975 0.35246 0.0
H1893 H 0.20085 0.68909 0.42786 0.0
H1894 H 0.15858 0.6457 0.46681 0.0
H1895 H 0.08452 0.5764 0.39201 0.0
C1896 C 0.18403 0.67204 0.30575 0.0
C1897 C 0.22038 0.70277 0.30485 0.0
C1898 C 0.2403 0.71911 0.33342 0.0
C1899 C 0.22454 0.70593 0.36209 0.0
C1900 C 0.18867 0.676 0.36213 0.0
C1901 C 0.16898 0.65841 0.33501 0.0
C1902 C 0.13181 0.62509 0.34247 0.0
C1903 C 0.09773 0.6331 0.32222 0.0
C1904 C 0.13123 0.58546 0.33745 0.0
C1905 C 0.13355 0.62717 0.37788 0.0
C1906 C 0.16644 0.65735 0.38836 0.0
C1907 C 0.17509 0.66532 0.41995 0.0
C1908 C 0.15063 0.64071 0.44187 0.0
C1909 C 0.11782 0.60807 0.43249 0.0
C1910 C 0.10867 0.6018 0.39976 0.0
H1911 H 0.37821 0.21827 0.30375 0.0
H1912 H 0.27373 0.14941 0.34333 0.0
H1913 H 0.30611 0.11263 0.38337 0.0
H1914 H 0.40904 0.14024 0.31191 0.0
H1915 H 0.45876 0.16727 0.32371 0.0
H1916 H 0.42972 0.19247 0.29968 0.0
H1917 H 0.44889 0.2404 0.34195 0.0
H1918 H 0.47952 0.21627 0.36456 0.0
H1919 H 0.44463 0.22041 0.38345 0.0
H1920 H 0.3452 0.07663 0.4135 0.0
H1921 H 0.39271 0.05025 0.44081 0.0
H1922 H 0.47747 0.14337 0.38785 0.0
C1923 C 0.36277 0.19671 0.32186 0.0
C1924 C 0.3234 0.18778 0.32102 0.0
C1925 C 0.30387 0.15771 0.34402 0.0
C1926 C 0.32203 0.13633 0.36674 0.0
C1927 C 0.36019 0.1449 0.3665 0.0
C1928 C 0.38089 0.17497 0.34536 0.0
C1929 C 0.42147 0.1763 0.35022 0.0
C1930 C 0.43026 0.16862 0.31955 0.0
C1931 C 0.45031 0.21573 0.36066 0.0
C1932 C 0.42001 0.14236 0.37727 0.0
C1933 C 0.38389 0.12446 0.38546 0.0
C1934 C 0.37379 0.09093 0.40777 0.0
C1935 C 0.4013 0.07585 0.42302 0.0
C1936 C 0.43948 0.09432 0.41693 0.0
C1937 C 0.44883 0.12832 0.3934 0.0
H1938 H 0.77408 0.86343 0.68304 0.0
H1939 H 0.69369 0.76184 0.73258 0.0
H1940 H 0.64115 0.78055 0.70137 0.0
H1941 H 0.72908 0.9299 0.68113 0.0
H1942 H 0.73977 0.95503 0.64188 0.0
H1943 H 0.77041 0.93245 0.66699 0.0
H1944 H 0.76224 0.89143 0.62223 0.0
H1945 H 0.73202 0.9143 0.5968 0.0
H1946 H 0.71529 0.86148 0.60524 0.0
H1947 H 0.59674 0.81198 0.66347 0.0
H1948 H 0.56593 0.85076 0.62304 0.0
H1949 H 0.6762 0.93349 0.60032 0.0
C1950 C 0.74533 0.84483 0.68705 0.0
C1951 C 0.73802 0.81036 0.70962 0.0
C1952 C 0.70005 0.78753 0.71473 0.0
C1953 C 0.67001 0.79827 0.69727 0.0
C1954 C 0.67826 0.83242 0.67505 0.0
C1955 C 0.71514 0.85528 0.66996 0.0
C1956 C 0.71685 0.8908 0.64511 0.0
C1957 C 0.74042 0.92932 0.65966 0.0
C1958 C 0.73252 0.88941 0.61559 0.0
C1959 C 0.67523 0.88476 0.63702 0.0
C1960 C 0.65329 0.85083 0.65439 0.0
C1961 C 0.61387 0.83867 0.65001 0.0
C1962 C 0.59653 0.86111 0.62702 0.0
C1963 C 0.61835 0.89583 0.60859 0.0
C1964 C 0.65841 0.90779 0.6143 0.0
H1965 H 0.7398 0.11613 0.32499 0.0
H1966 H 0.7468 0.23389 0.32615 0.0
H1967 H 0.69459 0.20691 0.35905 0.0
H1968 H 0.6376 0.06539 0.32166 0.0
H1969 H 0.6413 0.02308 0.34821 0.0
H1970 H 0.67728 0.05201 0.32304 0.0
H1971 H 0.72873 0.062 0.37335 0.0
H1972 H 0.69273 0.03289 0.39831 0.0
H1973 H 0.72389 0.08203 0.40621 0.0
H1974 H 0.64031 0.1656 0.39227 0.0
H1975 H 0.59877 0.11622 0.43019 0.0
H1976 H 0.62941 0.02652 0.40815 0.0
C1977 C 0.72997 0.13614 0.33187 0.0
C1978 C 0.74628 0.17693 0.32196 0.0
C1979 C 0.73384 0.2024 0.33257 0.0
C1980 C 0.70416 0.1873 0.35127 0.0
C1981 C 0.68745 0.14664 0.35946 0.0
C1982 C 0.70047 0.12155 0.35051 0.0
C1983 C 0.68004 0.07941 0.36444 0.0
C1984 C 0.65774 0.05346 0.33773 0.0
C1985 C 0.708 0.06315 0.38692 0.0
C1986 C 0.65362 0.08455 0.38285 0.0
C1987 C 0.65763 0.12338 0.37925 0.0
C1988 C 0.63686 0.13511 0.39507 0.0
C1989 C 0.6129 0.1068 0.41624 0.0
C1990 C 0.61037 0.06746 0.42165 0.0
C1991 C 0.63018 0.05623 0.40393 0.0
H1992 H 0.88804 0.7514 0.33273 0.0
H1993 H 0.79921 0.65983 0.28174 0.0
H1994 H 0.82649 0.61168 0.31157 0.0
H1995 H 0.9635 0.72046 0.33614 0.0
H1996 H 0.98465 0.73166 0.37629 0.0
H1997 H 0.95786 0.75876 0.35143 0.0
H1998 H 0.91419 0.74008 0.39475 0.0
H1999 H 0.94125 0.71353 0.42004 0.0
H2000 H 0.89078 0.68905 0.40975 0.0
H2001 H 0.86645 0.57431 0.34515 0.0
H2002 H 0.90874 0.54836 0.38481 0.0
H2003 H 0.97042 0.66361 0.41636 0.0
C2004 C 0.87408 0.72107 0.32812 0.0
C2005 C 0.84131 0.70945 0.30488 0.0
C2006 C 0.82401 0.66949 0.29954 0.0
C2007 C 0.83958 0.64198 0.31624 0.0
C2008 C 0.87235 0.65466 0.33853 0.0
C2009 C 0.88892 0.69314 0.34496 0.0
C2010 C 0.92327 0.69903 0.37079 0.0
C2011 C 0.95946 0.72928 0.35788 0.0
C2012 C 0.917 0.71113 0.4006 0.0
C2013 C 0.92396 0.658 0.37763 0.0
C2014 C 0.89451 0.63296 0.35852 0.0
C2015 C 0.88936 0.59368 0.36034 0.0
C2016 C 0.91388 0.57925 0.38294 0.0
C2017 C 0.94334 0.60372 0.40399 0.0
C2018 C 0.94869 0.64398 0.4006 0.0
H2019 H 0.34993 0.77533 0.36441 0.0
H2020 H 0.33234 0.87338 0.3002 0.0
H2021 H 0.35265 0.91185 0.34534 0.0
H2022 H 0.32352 0.79218 0.43701 0.0
H2023 H 0.36047 0.77944 0.46313 0.0
H2024 H 0.3383 0.75677 0.42699 0.0
H2025 H 0.40367 0.78008 0.40838 0.0
H2026 H 0.42612 0.8021 0.44445 0.0
H2027 H 0.43408 0.83143 0.40599 0.0
H2028 H 0.3821 0.94276 0.39518 0.0
H2029 H 0.427 0.96643 0.44302 0.0
H2030 H 0.42537 0.84876 0.47552 0.0
C2031 C 0.34992 0.80472 0.35985 0.0
C2032 C 0.3392 0.82106 0.3287 0.0
C2033 C 0.33999 0.85984 0.32382 0.0
C2034 C 0.35119 0.88193 0.34942 0.0
C2035 C 0.36144 0.8649 0.37984 0.0
C2036 C 0.36126 0.82731 0.3851 0.0
C2037 C 0.37827 0.81775 0.4191 0.0
C2038 C 0.34834 0.78457 0.43765 0.0
C2039 C 0.41259 0.80729 0.41948 0.0
C2040 C 0.38999 0.85664 0.43156 0.0
C2041 C 0.37895 0.88305 0.40886 0.0
C2042 C 0.39039 0.92221 0.41339 0.0
C2043 C 0.41587 0.9354 0.44078 0.0
C2044 C 0.43009 0.90959 0.46292 0.0
C2045 C 0.4149 0.86922 0.4592 0.0
H2046 H 0.30019 0.40879 0.43883 0.0
H2047 H 0.25965 0.4337 0.33818 0.0
H2048 H 0.21706 0.45901 0.35318 0.0
H2049 H 0.21274 0.37453 0.46641 0.0
H2050 H 0.2308 0.39601 0.50334 0.0
H2051 H 0.26088 0.3834 0.48485 0.0
H2052 H 0.31029 0.45498 0.48398 0.0
H2053 H 0.28031 0.46781 0.50256 0.0
H2054 H 0.29593 0.49505 0.46515 0.0
H2055 H 0.17477 0.47541 0.37859 0.0
H2056 H 0.13534 0.48238 0.41323 0.0
H2057 H 0.20399 0.44947 0.49775 0.0
C2058 C 0.28294 0.42038 0.41995 0.0
C2059 C 0.28321 0.4192 0.3873 0.0
C2060 C 0.25963 0.4339 0.36333 0.0
C2061 C 0.23556 0.44863 0.37161 0.0
C2062 C 0.23551 0.44875 0.40398 0.0
C2063 C 0.25866 0.43522 0.42782 0.0
C2064 C 0.25133 0.43649 0.46083 0.0
C2065 C 0.23815 0.39515 0.47997 0.0
C2066 C 0.28657 0.4653 0.47921 0.0
C2067 C 0.2197 0.4518 0.45177 0.0
C2068 C 0.21131 0.45896 0.4188 0.0
C2069 C 0.18148 0.47057 0.40442 0.0
C2070 C 0.15925 0.47439 0.42421 0.0
C2071 C 0.16716 0.46702 0.45795 0.0
C2072 C 0.19809 0.45617 0.47198 0.0
H2073 H 0.48778 0.2402 0.64526 0.0
H2074 H 0.37625 0.15997 0.66739 0.0
H2075 H 0.37627 0.11378 0.63396 0.0
H2076 H 0.4734 0.22428 0.56407 0.0
H2077 H 0.52044 0.22644 0.56463 0.0
H2078 H 0.51239 0.25295 0.59108 0.0
H2079 H 0.5424 0.21738 0.64003 0.0
H2080 H 0.55072 0.19091 0.61369 0.0
H2081 H 0.52414 0.1644 0.64634 0.0
H2082 H 0.38741 0.07709 0.59701 0.0
H2083 H 0.40966 0.05149 0.56008 0.0
H2084 H 0.51458 0.15486 0.56267 0.0
C2085 C 0.46359 0.21268 0.64347 0.0
C2086 C 0.43189 0.2039 0.65883 0.0
C2087 C 0.40059 0.16773 0.65545 0.0
C2088 C 0.40042 0.14115 0.63666 0.0
C2089 C 0.43186 0.15097 0.62153 0.0
C2090 C 0.46299 0.1857 0.62486 0.0
C2091 C 0.4929 0.1893 0.60563 0.0
C2092 C 0.50019 0.22538 0.57982 0.0
C2093 C 0.52971 0.19056 0.62775 0.0
C2094 C 0.4735 0.15134 0.59075 0.0
C2095 C 0.43836 0.12965 0.60029 0.0
C2096 C 0.41494 0.09375 0.58944 0.0
C2097 C 0.42783 0.07951 0.56836 0.0
C2098 C 0.46387 0.10113 0.5583 0.0
C2099 C 0.48687 0.13756 0.56977 0.0
H2100 H 0.8816 0.3763 0.70626 0.0
H2101 H 0.80517 0.26988 0.66595 0.0
H2102 H 0.83975 0.29101 0.61917 0.0
H2103 H 0.89186 0.4415 0.62815 0.0
H2104 H 0.94048 0.4702 0.64192 0.0
H2105 H 0.9073 0.44624 0.67024 0.0
H2106 H 0.95347 0.41308 0.70209 0.0
H2107 H 0.98479 0.43519 0.67216 0.0
H2108 H 0.9656 0.38254 0.68248 0.0
H2109 H 0.88399 0.32218 0.57799 0.0
H2110 H 0.92801 0.36647 0.54033 0.0
H2111 H 0.97584 0.45387 0.60605 0.0
C2112 C 0.87172 0.35805 0.68712 0.0
C2113 C 0.84024 0.32188 0.68924 0.0
C2114 C 0.82861 0.29813 0.66427 0.0
C2115 C 0.84836 0.30971 0.63784 0.0
C2116 C 0.87978 0.34515 0.6367 0.0
C2117 C 0.89088 0.3695 0.66024 0.0
C2118 C 0.92516 0.40651 0.6527 0.0
C2119 C 0.91561 0.44327 0.64799 0.0
C2120 C 0.95927 0.40948 0.67893 0.0
C2121 C 0.93174 0.39904 0.62137 0.0
C2122 C 0.90546 0.36318 0.61288 0.0
C2123 C 0.90482 0.35018 0.5845 0.0
C2124 C 0.93032 0.37527 0.56345 0.0
C2125 C 0.95628 0.41293 0.57078 0.0
C2126 C 0.95754 0.42454 0.60051 0.0
H2127 H 0.21759 0.6524 0.70017 0.0
H2128 H 0.24666 0.7703 0.64928 0.0
H2129 H 0.21913 0.74315 0.59783 0.0
H2130 H 0.22941 0.60498 0.63643 0.0
H2131 H 0.18849 0.56081 0.64389 0.0
H2132 H 0.21632 0.58909 0.67619 0.0
H2133 H 0.15641 0.59474 0.68785 0.0
H2134 H 0.1285 0.56611 0.65597 0.0
H2135 H 0.12827 0.61403 0.65582 0.0
H2136 H 0.18364 0.70462 0.5534 0.0
H2137 H 0.13412 0.6576 0.51935 0.0
H2138 H 0.12494 0.56347 0.59805 0.0
C2139 C 0.21864 0.67223 0.678 0.0
C2140 C 0.23416 0.71327 0.67827 0.0
C2141 C 0.2346 0.73872 0.64923 0.0
C2142 C 0.21952 0.72357 0.61997 0.0
C2143 C 0.20401 0.68289 0.62028 0.0
C2144 C 0.20296 0.65747 0.64852 0.0
C2145 C 0.17994 0.61517 0.64248 0.0
C2146 C 0.20505 0.59109 0.65021 0.0
C2147 C 0.14629 0.59644 0.66165 0.0
C2148 C 0.16692 0.62099 0.60668 0.0
C2149 C 0.18221 0.66024 0.59431 0.0
C2150 C 0.17196 0.67374 0.56261 0.0
C2151 C 0.14389 0.64684 0.54343 0.0
C2152 C 0.12623 0.607 0.55607 0.0
C2153 C 0.13895 0.59355 0.58763 0.0
loop_
_geom_bond_atom_site_label_1
_geom_bond_atom_site_label_2
_geom_bond_distance
_geom_bond_site_symmetry_2
_ccdc_geom_bond_type
Tb0 N31 2.660 . S
Tb0 N38 2.600 . S
Tb0 O44 2.546 . S
Tb0 O45 2.610 . S
Tb0 O47 2.320 . S
Tb0 O48 2.552 . S
Tb0 O49 2.413 . S
Tb0 O51 2.362 . S
Tb0 O52 2.421 . S
Tb0 C64 2.833 . S
C1 C4 1.432 . S
C1 C5 1.414 . S
C1 N8 1.359 . S
C2 C4 1.417 . S
C2 C6 1.432 . S
C2 C14 1.410 . S
C3 C5 1.444 . S
C3 C6 1.317 . S
C3 H26 0.929 . S
C4 C1 1.432 . S
C4 C2 1.417 . S
C4 N12 1.360 . S
C5 C1 1.414 . S
C5 C3 1.444 . S
C5 C10 1.385 . S
C6 C2 1.432 . S
C6 C3 1.317 . S
C6 H18 0.930 . S
C7 C9 1.392 . S
C7 C10 1.370 . S
C7 H19 0.931 . S
N8 C1 1.359 . S
N8 C9 1.327 . S
N8 Tb11 2.600 . S
C9 C7 1.392 . S
C9 N8 1.327 . S
C9 H16 0.930 . S
C10 C5 1.385 . S
C10 C7 1.370 . S
C10 H29 0.930 . S
Tb11 N8 2.600 . S
Tb11 N12 2.660 . S
Tb11 O45 2.362 . S
Tb11 O46 2.421 . S
Tb11 O50 2.546 . S
Tb11 O51 2.610 . S
Tb11 O53 2.320 . S
Tb11 O54 2.552 . S
Tb11 O55 2.413 . S
Tb11 C75 2.833 . S
N12 C4 1.360 . S
N12 Tb11 2.660 . S
N12 C13 1.305 . S
C13 N12 1.305 . S
C13 C15 1.407 . S
C13 H20 0.930 . S
C14 C2 1.410 . S
C14 C15 1.345 . S
C14 H22 0.930 . S
C15 C13 1.407 . S
C15 C14 1.345 . S
C15 H17 0.930 . S
H16 C9 0.930 . S
H17 C15 0.930 . S
H18 C6 0.930 . S
H19 C7 0.931 . S
H20 C13 0.930 . S
H21 C35 0.930 . S
H22 C14 0.930 . S
H23 C41 0.930 . S
H24 C32 0.930 . S
H25 C39 0.931 . S
H26 C3 0.929 . S
H27 C33 0.930 . S
H28 C66 0.930 . S
H29 C10 0.930 . S
H30 C65 0.929 . S
N31 Tb0 2.660 . S
N31 C32 1.305 . S
N31 C36 1.360 . S
C32 H24 0.930 . S
C32 N31 1.305 . S
C32 C35 1.407 . S
C33 H27 0.930 . S
C33 C34 1.410 . S
C33 C35 1.345 . S
C34 C33 1.410 . S
C34 C36 1.417 . S
C34 C66 1.432 . S
C35 H21 0.930 . S
C35 C32 1.407 . S
C35 C33 1.345 . S
C36 N31 1.360 . S
C36 C34 1.417 . S
C36 C40 1.432 . S
H37 C42 0.930 . S
N38 Tb0 2.600 . S
N38 C40 1.359 . S
N38 C41 1.327 . S
C39 H25 0.931 . S
C39 C41 1.392 . S
C39 C42 1.370 . S
C40 C36 1.432 . S
C40 N38 1.359 . S
C40 C43 1.414 . S
C41 H23 0.930 . S
C41 N38 1.327 . S
C41 C39 1.392 . S
C42 H37 0.930 . S
C42 C39 1.370 . S
C42 C43 1.385 . S
C43 C40 1.414 . S
C43 C42 1.385 . S
C43 C65 1.444 . S
O44 Tb0 2.546 . S
O44 C64 1.251 . S
O45 Tb0 2.610 . S
O45 Tb11 2.362 . S
O45 C56 1.283 . S
O46 Tb11 2.421 . S
O46 C63 1.262 . S
O47 Tb0 2.320 . S
O47 C63 1.260 . S
O48 Tb0 2.552 . S
O48 C56 1.243 . S
O49 Tb0 2.413 . S
O49 C64 1.256 . S
O50 Tb11 2.546 . S
O50 C75 1.251 . S
O51 Tb0 2.362 . S
O51 Tb11 2.610 . S
O51 C67 1.283 . S
O52 Tb0 2.421 . S
O52 C74 1.262 . S
O53 Tb11 2.320 . S
O53 C74 1.260 . S
O54 Tb11 2.552 . S
O54 C67 1.243 . S
O55 Tb11 2.413 . S
O55 C75 1.256 . S
C56 O45 1.283 . S
C56 O48 1.243 . S
C57 C59 1.382 . S
C57 C61 1.393 . S
C57 C64 1.500 . S
C58 C59 1.400 . S
C58 C60 1.384 . S
C59 C57 1.382 . S
C59 C58 1.400 . S
C59 H76 0.930 . S
C60 C58 1.384 . S
C60 C62 1.392 . S
C60 H77 0.931 . S
C61 C57 1.393 . S
C61 C62 1.401 . S
C61 H78 0.930 . S
C62 C60 1.392 . S
C62 C61 1.401 . S
C62 H79 0.930 . S
C63 O46 1.262 . S
C63 O47 1.260 . S
C64 Tb0 2.833 . S
C64 O44 1.251 . S
C64 O49 1.256 . S
C64 C57 1.500 . S
C65 H30 0.929 . S
C65 C43 1.444 . S
C65 C66 1.317 . S
C66 H28 0.930 . S
C66 C34 1.432 . S
C66 C65 1.317 . S
C67 O51 1.283 . S
C67 O54 1.243 . S
C68 C69 1.382 . S
C68 C72 1.393 . S
C68 C75 1.500 . S
C69 C68 1.382 . S
C69 C70 1.400 . S
C69 H80 0.930 . S
C70 C69 1.400 . S
C70 C71 1.384 . S
C71 C70 1.384 . S
C71 C73 1.392 . S
C71 H81 0.931 . S
C72 C68 1.393 . S
C72 C73 1.401 . S
C72 H82 0.930 . S
C73 C71 1.392 . S
C73 C72 1.401 . S
C73 H83 0.930 . S
C74 O52 1.262 . S
C74 O53 1.260 . S
C75 Tb11 2.833 . S
C75 O50 1.251 . S
C75 O55 1.256 . S
C75 C68 1.500 . S
H76 C59 0.930 . S
H77 C60 0.931 . S
H78 C61 0.930 . S
H79 C62 0.930 . S
H80 C69 0.930 . S
H81 C71 0.931 . S
H82 C72 0.930 . S
H83 C73 0.930 . S
Tb84 N115 2.660 . S
Tb84 N122 2.600 . S
Tb84 O128 2.546 . S
Tb84 O129 2.610 . S
Tb84 O131 2.320 . S
Tb84 O132 2.552 . S
Tb84 O133 2.413 . S
Tb84 O135 2.362 . S
Tb84 O136 2.421 . S
Tb84 C148 2.833 . S
C85 C88 1.432 . S
C85 C89 1.414 . S
C85 N92 1.359 . S
C86 C88 1.417 . S
C86 C90 1.432 . S
C86 C98 1.410 . S
C87 C89 1.444 . S
C87 C90 1.317 . S
C87 H110 0.929 . S
C88 C85 1.432 . S
C88 C86 1.417 . S
C88 N96 1.360 . S
C89 C85 1.414 . S
C89 C87 1.444 . S
C89 C94 1.385 . S
C90 C86 1.432 . S
C90 C87 1.317 . S
C90 H102 0.930 . S
C91 C93 1.392 . S
C91 C94 1.370 . S
C91 H103 0.931 . S
N92 C85 1.359 . S
N92 C93 1.327 . S
N92 Tb95 2.600 . S
C93 C91 1.392 . S
C93 N92 1.327 . S
C93 H100 0.930 . S
C94 C89 1.385 . S
C94 C91 1.370 . S
C94 H113 0.930 . S
Tb95 N92 2.600 . S
Tb95 N96 2.660 . S
Tb95 O129 2.362 . S
Tb95 O130 2.421 . S
Tb95 O134 2.546 . S
Tb95 O135 2.610 . S
Tb95 O137 2.320 . S
Tb95 O138 2.552 . S
Tb95 O139 2.413 . S
Tb95 C159 2.833 . S
N96 C88 1.360 . S
N96 Tb95 2.660 . S
N96 C97 1.305 . S
C97 N96 1.305 . S
C97 C99 1.407 . S
C97 H104 0.930 . S
C98 C86 1.410 . S
C98 C99 1.345 . S
C98 H106 0.930 . S
C99 C97 1.407 . S
C99 C98 1.345 . S
C99 H101 0.930 . S
H100 C93 0.930 . S
H101 C99 0.930 . S
H102 C90 0.930 . S
H103 C91 0.931 . S
H104 C97 0.930 . S
H105 C119 0.930 . S
H106 C98 0.930 . S
H107 C125 0.930 . S
H108 C116 0.930 . S
H109 C123 0.931 . S
H110 C87 0.929 . S
H111 C117 0.930 . S
H112 C150 0.930 . S
H113 C94 0.930 . S
H114 C149 0.929 . S
N115 Tb84 2.660 . S
N115 C116 1.305 . S
N115 C120 1.360 . S
C116 H108 0.930 . S
C116 N115 1.305 . S
C116 C119 1.407 . S
C117 H111 0.930 . S
C117 C118 1.410 . S
C117 C119 1.345 . S
C118 C117 1.410 . S
C118 C120 1.417 . S
C118 C150 1.432 . S
C119 H105 0.930 . S
C119 C116 1.407 . S
C119 C117 1.345 . S
C120 N115 1.360 . S
C120 C118 1.417 . S
C120 C124 1.432 . S
H121 C126 0.930 . S
N122 Tb84 2.600 . S
N122 C124 1.359 . S
N122 C125 1.327 . S
C123 H109 0.931 . S
C123 C125 1.392 . S
C123 C126 1.370 . S
C124 C120 1.432 . S
C124 N122 1.359 . S
C124 C127 1.414 . S
C125 H107 0.930 . S
C125 N122 1.327 . S
C125 C123 1.392 . S
C126 H121 0.930 . S
C126 C123 1.370 . S
C126 C127 1.385 . S
C127 C124 1.414 . S
C127 C126 1.385 . S
C127 C149 1.444 . S
O128 Tb84 2.546 . S
O128 C148 1.251 . S
O129 Tb84 2.610 . S
O129 Tb95 2.362 . S
O129 C140 1.283 . S
O130 Tb95 2.421 . S
O130 C147 1.262 . S
O131 Tb84 2.320 . S
O131 C147 1.260 . S
O132 Tb84 2.552 . S
O132 C140 1.243 . S
O133 Tb84 2.413 . S
O133 C148 1.256 . S
O134 Tb95 2.546 . S
O134 C159 1.251 . S
O135 Tb84 2.362 . S
O135 Tb95 2.610 . S
O135 C151 1.283 . S
O136 Tb84 2.421 . S
O136 C158 1.262 . S
O137 Tb95 2.320 . S
O137 C158 1.260 . S
O138 Tb95 2.552 . S
O138 C151 1.243 . S
O139 Tb95 2.413 . S
O139 C159 1.256 . S
C140 O129 1.283 . S
C140 O132 1.243 . S
C141 C143 1.382 . S
C141 C145 1.393 . S
C141 C148 1.500 . S
C142 C143 1.400 . S
C142 C144 1.384 . S
C143 C141 1.382 . S
C143 C142 1.400 . S
C143 H160 0.930 . S
C144 C142 1.384 . S
C144 C146 1.392 . S
C144 H161 0.931 . S
C145 C141 1.393 . S
C145 C146 1.401 . S
C145 H162 0.930 . S
C146 C144 1.392 . S
C146 C145 1.401 . S
C146 H163 0.930 . S
C147 O130 1.262 . S
C147 O131 1.260 . S
C148 Tb84 2.833 . S
C148 O128 1.251 . S
C148 O133 1.256 . S
C148 C141 1.500 . S
C149 H114 0.929 . S
C149 C127 1.444 . S
C149 C150 1.317 . S
C150 H112 0.930 . S
C150 C118 1.432 . S
C150 C149 1.317 . S
C151 O135 1.283 . S
C151 O138 1.243 . S
C152 C153 1.382 . S
C152 C156 1.393 . S
C152 C159 1.500 . S
C153 C152 1.382 . S
C153 C154 1.400 . S
C153 H164 0.930 . S
C154 C153 1.400 . S
C154 C155 1.384 . S
C155 C154 1.384 . S
C155 C157 1.392 . S
C155 H165 0.931 . S
C156 C152 1.393 . S
C156 C157 1.401 . S
C156 H166 0.930 . S
C157 C155 1.392 . S
C157 C156 1.401 . S
C157 H167 0.930 . S
C158 O136 1.262 . S
C158 O137 1.260 . S
C159 Tb95 2.833 . S
C159 O134 1.251 . S
C159 O139 1.256 . S
C159 C152 1.500 . S
H160 C143 0.930 . S
H161 C144 0.931 . S
H162 C145 0.930 . S
H163 C146 0.930 . S
H164 C153 0.930 . S
H165 C155 0.931 . S
H166 C156 0.930 . S
H167 C157 0.930 . S
Tb168 N199 2.660 . S
Tb168 N206 2.600 . S
Tb168 O212 2.546 . S
Tb168 O213 2.610 . S
Tb168 O215 2.320 . S
Tb168 O216 2.552 . S
Tb168 O217 2.413 . S
Tb168 O219 2.362 . S
Tb168 O220 2.421 . S
Tb168 C232 2.833 . S
C169 C172 1.432 . S
C169 C173 1.414 . S
C169 N176 1.359 . S
C170 C172 1.417 . S
C170 C174 1.432 . S
C170 C182 1.410 . S
C171 C173 1.444 . S
C171 C174 1.317 . S
C171 H194 0.929 . S
C172 C169 1.432 . S
C172 C170 1.417 . S
C172 N180 1.360 . S
C173 C169 1.414 . S
C173 C171 1.444 . S
C173 C178 1.385 . S
C174 C170 1.432 . S
C174 C171 1.317 . S
C174 H186 0.930 . S
C175 C177 1.392 . S
C175 C178 1.370 . S
C175 H187 0.931 . S
N176 C169 1.359 . S
N176 C177 1.327 . S
N176 Tb179 2.600 . S
C177 C175 1.392 . S
C177 N176 1.327 . S
C177 H184 0.930 . S
C178 C173 1.385 . S
C178 C175 1.370 . S
C178 H197 0.930 . S
Tb179 N176 2.600 . S
Tb179 N180 2.660 . S
Tb179 O213 2.362 . S
Tb179 O214 2.421 . S
Tb179 O218 2.546 . S
Tb179 O219 2.610 . S
Tb179 O221 2.320 . S
Tb179 O222 2.552 . S
Tb179 O223 2.413 . S
Tb179 C243 2.833 . S
N180 C172 1.360 . S
N180 Tb179 2.660 . S
N180 C181 1.305 . S
C181 N180 1.305 . S
C181 C183 1.407 . S
C181 H188 0.930 . S
C182 C170 1.410 . S
C182 C183 1.345 . S
C182 H190 0.930 . S
C183 C181 1.407 . S
C183 C182 1.345 . S
C183 H185 0.930 . S
H184 C177 0.930 . S
H185 C183 0.930 . S
H186 C174 0.930 . S
H187 C175 0.931 . S
H188 C181 0.930 . S
H189 C203 0.930 . S
H190 C182 0.930 . S
H191 C209 0.930 . S
H192 C200 0.930 . S
H193 C207 0.931 . S
H194 C171 0.929 . S
H195 C201 0.930 . S
H196 C234 0.930 . S
H197 C178 0.930 . S
H198 C233 0.929 . S
N199 Tb168 2.660 . S
N199 C200 1.305 . S
N199 C204 1.360 . S
C200 H192 0.930 . S
C200 N199 1.305 . S
C200 C203 1.407 . S
C201 H195 0.930 . S
C201 C202 1.410 . S
C201 C203 1.345 . S
C202 C201 1.410 . S
C202 C204 1.417 . S
C202 C234 1.432 . S
C203 H189 0.930 . S
C203 C200 1.407 . S
C203 C201 1.345 . S
C204 N199 1.360 . S
C204 C202 1.417 . S
C204 C208 1.432 . S
H205 C210 0.930 . S
N206 Tb168 2.600 . S
N206 C208 1.359 . S
N206 C209 1.327 . S
C207 H193 0.931 . S
C207 C209 1.392 . S
C207 C210 1.370 . S
C208 C204 1.432 . S
C208 N206 1.359 . S
C208 C211 1.414 . S
C209 H191 0.930 . S
C209 N206 1.327 . S
C209 C207 1.392 . S
C210 H205 0.930 . S
C210 C207 1.370 . S
C210 C211 1.385 . S
C211 C208 1.414 . S
C211 C210 1.385 . S
C211 C233 1.444 . S
O212 Tb168 2.546 . S
O212 C232 1.251 . S
O213 Tb168 2.610 . S
O213 Tb179 2.362 . S
O213 C224 1.283 . S
O214 Tb179 2.421 . S
O214 C231 1.262 . S
O215 Tb168 2.320 . S
O215 C231 1.260 . S
O216 Tb168 2.552 . S
O216 C224 1.243 . S
O217 Tb168 2.413 . S
O217 C232 1.256 . S
O218 Tb179 2.546 . S
O218 C243 1.251 . S
O219 Tb168 2.362 . S
O219 Tb179 2.610 . S
O219 C235 1.283 . S
O220 Tb168 2.421 . S
O220 C242 1.262 . S
O221 Tb179 2.320 . S
O221 C242 1.260 . S
O222 Tb179 2.552 . S
O222 C235 1.243 . S
O223 Tb179 2.413 . S
O223 C243 1.256 . S
C224 O213 1.283 . S
C224 O216 1.243 . S
C225 C227 1.382 . S
C225 C229 1.393 . S
C225 C232 1.500 . S
C226 C227 1.400 . S
C226 C228 1.384 . S
C227 C225 1.382 . S
C227 C226 1.400 . S
C227 H244 0.930 . S
C228 C226 1.384 . S
C228 C230 1.392 . S
C228 H245 0.931 . S
C229 C225 1.393 . S
C229 C230 1.401 . S
C229 H246 0.930 . S
C230 C228 1.392 . S
C230 C229 1.401 . S
C230 H247 0.930 . S
C231 O214 1.262 . S
C231 O215 1.260 . S
C232 Tb168 2.833 . S
C232 O212 1.251 . S
C232 O217 1.256 . S
C232 C225 1.500 . S
C233 H198 0.929 . S
C233 C211 1.444 . S
C233 C234 1.317 . S
C234 H196 0.930 . S
C234 C202 1.432 . S
C234 C233 1.317 . S
C235 O219 1.283 . S
C235 O222 1.243 . S
C236 C237 1.382 . S
C236 C240 1.393 . S
C236 C243 1.500 . S
C237 C236 1.382 . S
C237 C238 1.400 . S
C237 H248 0.930 . S
C238 C237 1.400 . S
C238 C239 1.384 . S
C239 C238 1.384 . S
C239 C241 1.392 . S
C239 H249 0.931 . S
C240 C236 1.393 . S
C240 C241 1.401 . S
C240 H250 0.930 . S
C241 C239 1.392 . S
C241 C240 1.401 . S
C241 H251 0.930 . S
C242 O220 1.262 . S
C242 O221 1.260 . S
C243 Tb179 2.833 . S
C243 O218 1.251 . S
C243 O223 1.256 . S
C243 C236 1.500 . S
H244 C227 0.930 . S
H245 C228 0.931 . S
H246 C229 0.930 . S
H247 C230 0.930 . S
H248 C237 0.930 . S
H249 C239 0.931 . S
H250 C240 0.930 . S
H251 C241 0.930 . S
Tb252 N283 2.660 . S
Tb252 N290 2.600 . S
Tb252 O296 2.546 . S
Tb252 O297 2.610 . S
Tb252 O299 2.320 . S
Tb252 O300 2.552 . S
Tb252 O301 2.413 . S
Tb252 O303 2.362 . S
Tb252 O304 2.421 . S
Tb252 C316 2.833 . S
C253 C256 1.432 . S
C253 C257 1.414 . S
C253 N260 1.359 . S
C254 C256 1.417 . S
C254 C258 1.432 . S
C254 C266 1.410 . S
C255 C257 1.444 . S
C255 C258 1.317 . S
C255 H278 0.929 . S
C256 C253 1.432 . S
C256 C254 1.417 . S
C256 N264 1.360 . S
C257 C253 1.414 . S
C257 C255 1.444 . S
C257 C262 1.385 . S
C258 C254 1.432 . S
C258 C255 1.317 . S
C258 H270 0.930 . S
C259 C261 1.392 . S
C259 C262 1.370 . S
C259 H271 0.931 . S
N260 C253 1.359 . S
N260 C261 1.327 . S
N260 Tb263 2.600 . S
C261 C259 1.392 . S
C261 N260 1.327 . S
C261 H268 0.930 . S
C262 C257 1.385 . S
C262 C259 1.370 . S
C262 H281 0.930 . S
Tb263 N260 2.600 . S
Tb263 N264 2.660 . S
Tb263 O297 2.362 . S
Tb263 O298 2.421 . S
Tb263 O302 2.546 . S
Tb263 O303 2.610 . S
Tb263 O305 2.320 . S
Tb263 O306 2.552 . S
Tb263 O307 2.413 . S
Tb263 C327 2.833 . S
N264 C256 1.360 . S
N264 Tb263 2.660 . S
N264 C265 1.305 . S
C265 N264 1.305 . S
C265 C267 1.407 . S
C265 H272 0.930 . S
C266 C254 1.410 . S
C266 C267 1.345 . S
C266 H274 0.930 . S
C267 C265 1.407 . S
C267 C266 1.345 . S
C267 H269 0.930 . S
H268 C261 0.930 . S
H269 C267 0.930 . S
H270 C258 0.930 . S
H271 C259 0.931 . S
H272 C265 0.930 . S
H273 C287 0.930 . S
H274 C266 0.930 . S
H275 C293 0.930 . S
H276 C284 0.930 . S
H277 C291 0.931 . S
H278 C255 0.929 . S
H279 C285 0.930 . S
H280 C318 0.930 . S
H281 C262 0.930 . S
H282 C317 0.929 . S
N283 Tb252 2.660 . S
N283 C284 1.305 . S
N283 C288 1.360 . S
C284 H276 0.930 . S
C284 N283 1.305 . S
C284 C287 1.407 . S
C285 H279 0.930 . S
C285 C286 1.410 . S
C285 C287 1.345 . S
C286 C285 1.410 . S
C286 C288 1.417 . S
C286 C318 1.432 . S
C287 H273 0.930 . S
C287 C284 1.407 . S
C287 C285 1.345 . S
C288 N283 1.360 . S
C288 C286 1.417 . S
C288 C292 1.432 . S
H289 C294 0.930 . S
N290 Tb252 2.600 . S
N290 C292 1.359 . S
N290 C293 1.327 . S
C291 H277 0.931 . S
C291 C293 1.392 . S
C291 C294 1.370 . S
C292 C288 1.432 . S
C292 N290 1.359 . S
C292 C295 1.414 . S
C293 H275 0.930 . S
C293 N290 1.327 . S
C293 C291 1.392 . S
C294 H289 0.930 . S
C294 C291 1.370 . S
C294 C295 1.385 . S
C295 C292 1.414 . S
C295 C294 1.385 . S
C295 C317 1.444 . S
O296 Tb252 2.546 . S
O296 C316 1.251 . S
O297 Tb252 2.610 . S
O297 Tb263 2.362 . S
O297 C308 1.283 . S
O298 Tb263 2.421 . S
O298 C315 1.262 . S
O299 Tb252 2.320 . S
O299 C315 1.260 . S
O300 Tb252 2.552 . S
O300 C308 1.243 . S
O301 Tb252 2.413 . S
O301 C316 1.256 . S
O302 Tb263 2.546 . S
O302 C327 1.251 . S
O303 Tb252 2.362 . S
O303 Tb263 2.610 . S
O303 C319 1.283 . S
O304 Tb252 2.421 . S
O304 C326 1.262 . S
O305 Tb263 2.320 . S
O305 C326 1.260 . S
O306 Tb263 2.552 . S
O306 C319 1.243 . S
O307 Tb263 2.413 . S
O307 C327 1.256 . S
C308 O297 1.283 . S
C308 O300 1.243 . S
C309 C311 1.382 . S
C309 C313 1.393 . S
C309 C316 1.500 . S
C310 C311 1.400 . S
C310 C312 1.384 . S
C311 C309 1.382 . S
C311 C310 1.400 . S
C311 H328 0.930 . S
C312 C310 1.384 . S
C312 C314 1.392 . S
C312 H329 0.931 . S
C313 C309 1.393 . S
C313 C314 1.401 . S
C313 H330 0.930 . S
C314 C312 1.392 . S
C314 C313 1.401 . S
C314 H331 0.930 . S
C315 O298 1.262 . S
C315 O299 1.260 . S
C316 Tb252 2.833 . S
C316 O296 1.251 . S
C316 O301 1.256 . S
C316 C309 1.500 . S
C317 H282 0.929 . S
C317 C295 1.444 . S
C317 C318 1.317 . S
C318 H280 0.930 . S
C318 C286 1.432 . S
C318 C317 1.317 . S
C319 O303 1.283 . S
C319 O306 1.243 . S
C320 C321 1.382 . S
C320 C324 1.393 . S
C320 C327 1.500 . S
C321 C320 1.382 . S
C321 C322 1.400 . S
C321 H332 0.930 . S
C322 C321 1.400 . S
C322 C323 1.384 . S
C323 C322 1.384 . S
C323 C325 1.392 . S
C323 H333 0.931 . S
C324 C320 1.393 . S
C324 C325 1.401 . S
C324 H334 0.930 . S
C325 C323 1.392 . S
C325 C324 1.401 . S
C325 H335 0.930 . S
C326 O304 1.262 . S
C326 O305 1.260 . S
C327 Tb263 2.833 . S
C327 O302 1.251 . S
C327 O307 1.256 . S
C327 C320 1.500 . S
H328 C311 0.930 . S
H329 C312 0.931 . S
H330 C313 0.930 . S
H331 C314 0.930 . S
H332 C321 0.930 . S
H333 C323 0.931 . S
H334 C324 0.930 . S
H335 C325 0.930 . S
Tb336 N367 2.660 . S
Tb336 N374 2.600 . S
Tb336 O380 2.546 . S
Tb336 O381 2.610 . S
Tb336 O383 2.320 . S
Tb336 O384 2.552 . S
Tb336 O385 2.413 . S
Tb336 O387 2.362 . S
Tb336 O388 2.421 . S
Tb336 C400 2.833 . S
C337 C340 1.432 . S
C337 C341 1.414 . S
C337 N344 1.359 . S
C338 C340 1.417 . S
C338 C342 1.432 . S
C338 C350 1.410 . S
C339 C341 1.444 . S
C339 C342 1.317 . S
C339 H362 0.929 . S
C340 C337 1.432 . S
C340 C338 1.417 . S
C340 N348 1.360 . S
C341 C337 1.414 . S
C341 C339 1.444 . S
C341 C346 1.385 . S
C342 C338 1.432 . S
C342 C339 1.317 . S
C342 H354 0.930 . S
C343 C345 1.392 . S
C343 C346 1.370 . S
C343 H355 0.931 . S
N344 C337 1.359 . S
N344 C345 1.327 . S
N344 Tb347 2.600 . S
C345 C343 1.392 . S
C345 N344 1.327 . S
C345 H352 0.930 . S
C346 C341 1.385 . S
C346 C343 1.370 . S
C346 H365 0.930 . S
Tb347 N344 2.600 . S
Tb347 N348 2.660 . S
Tb347 O381 2.362 . S
Tb347 O382 2.421 . S
Tb347 O386 2.546 . S
Tb347 O387 2.610 . S
Tb347 O389 2.320 . S
Tb347 O390 2.552 . S
Tb347 O391 2.413 . S
Tb347 C411 2.833 . S
N348 C340 1.360 . S
N348 Tb347 2.660 . S
N348 C349 1.305 . S
C349 N348 1.305 . S
C349 C351 1.407 . S
C349 H356 0.930 . S
C350 C338 1.410 . S
C350 C351 1.345 . S
C350 H358 0.930 . S
C351 C349 1.407 . S
C351 C350 1.345 . S
C351 H353 0.930 . S
H352 C345 0.930 . S
H353 C351 0.930 . S
H354 C342 0.930 . S
H355 C343 0.931 . S
H356 C349 0.930 . S
H357 C371 0.930 . S
H358 C350 0.930 . S
H359 C377 0.930 . S
H360 C368 0.930 . S
H361 C375 0.931 . S
H362 C339 0.929 . S
H363 C369 0.930 . S
H364 C402 0.930 . S
H365 C346 0.930 . S
H366 C401 0.929 . S
N367 Tb336 2.660 . S
N367 C368 1.305 . S
N367 C372 1.360 . S
C368 H360 0.930 . S
C368 N367 1.305 . S
C368 C371 1.407 . S
C369 H363 0.930 . S
C369 C370 1.410 . S
C369 C371 1.345 . S
C370 C369 1.410 . S
C370 C372 1.417 . S
C370 C402 1.432 . S
C371 H357 0.930 . S
C371 C368 1.407 . S
C371 C369 1.345 . S
C372 N367 1.360 . S
C372 C370 1.417 . S
C372 C376 1.432 . S
H373 C378 0.930 . S
N374 Tb336 2.600 . S
N374 C376 1.359 . S
N374 C377 1.327 . S
C375 H361 0.931 . S
C375 C377 1.392 . S
C375 C378 1.370 . S
C376 C372 1.432 . S
C376 N374 1.359 . S
C376 C379 1.414 . S
C377 H359 0.930 . S
C377 N374 1.327 . S
C377 C375 1.392 . S
C378 H373 0.930 . S
C378 C375 1.370 . S
C378 C379 1.385 . S
C379 C376 1.414 . S
C379 C378 1.385 . S
C379 C401 1.444 . S
O380 Tb336 2.546 . S
O380 C400 1.251 . S
O381 Tb336 2.610 . S
O381 Tb347 2.362 . S
O381 C392 1.283 . S
O382 Tb347 2.421 . S
O382 C399 1.262 . S
O383 Tb336 2.320 . S
O383 C399 1.260 . S
O384 Tb336 2.552 . S
O384 C392 1.243 . S
O385 Tb336 2.413 . S
O385 C400 1.256 . S
O386 Tb347 2.546 . S
O386 C411 1.251 . S
O387 Tb336 2.362 . S
O387 Tb347 2.610 . S
O387 C403 1.283 . S
O388 Tb336 2.421 . S
O388 C410 1.262 . S
O389 Tb347 2.320 . S
O389 C410 1.260 . S
O390 Tb347 2.552 . S
O390 C403 1.243 . S
O391 Tb347 2.413 . S
O391 C411 1.256 . S
C392 O381 1.283 . S
C392 O384 1.243 . S
C393 C395 1.382 . S
C393 C397 1.393 . S
C393 C400 1.500 . S
C394 C395 1.400 . S
C394 C396 1.384 . S
C395 C393 1.382 . S
C395 C394 1.400 . S
C395 H412 0.930 . S
C396 C394 1.384 . S
C396 C398 1.392 . S
C396 H413 0.931 . S
C397 C393 1.393 . S
C397 C398 1.401 . S
C397 H414 0.930 . S
C398 C396 1.392 . S
C398 C397 1.401 . S
C398 H415 0.930 . S
C399 O382 1.262 . S
C399 O383 1.260 . S
C400 Tb336 2.833 . S
C400 O380 1.251 . S
C400 O385 1.256 . S
C400 C393 1.500 . S
C401 H366 0.929 . S
C401 C379 1.444 . S
C401 C402 1.317 . S
C402 H364 0.930 . S
C402 C370 1.432 . S
C402 C401 1.317 . S
C403 O387 1.283 . S
C403 O390 1.243 . S
C404 C405 1.382 . S
C404 C408 1.393 . S
C404 C411 1.500 . S
C405 C404 1.382 . S
C405 C406 1.400 . S
C405 H416 0.930 . S
C406 C405 1.400 . S
C406 C407 1.384 . S
C407 C406 1.384 . S
C407 C409 1.392 . S
C407 H417 0.931 . S
C408 C404 1.393 . S
C408 C409 1.401 . S
C408 H418 0.930 . S
C409 C407 1.392 . S
C409 C408 1.401 . S
C409 H419 0.930 . S
C410 O388 1.262 . S
C410 O389 1.260 . S
C411 Tb347 2.833 . S
C411 O386 1.251 . S
C411 O391 1.256 . S
C411 C404 1.500 . S
H412 C395 0.930 . S
H413 C396 0.931 . S
H414 C397 0.930 . S
H415 C398 0.930 . S
H416 C405 0.930 . S
H417 C407 0.931 . S
H418 C408 0.930 . S
H419 C409 0.930 . S
Tb420 N451 2.660 . S
Tb420 N458 2.600 . S
Tb420 O464 2.546 . S
Tb420 O465 2.610 . S
Tb420 O467 2.320 . S
Tb420 O468 2.552 . S
Tb420 O469 2.413 . S
Tb420 O471 2.362 . S
Tb420 O472 2.421 . S
Tb420 C484 2.833 . S
C421 C424 1.432 . S
C421 C425 1.414 . S
C421 N428 1.359 . S
C422 C424 1.417 . S
C422 C426 1.432 . S
C422 C434 1.410 . S
C423 C425 1.444 . S
C423 C426 1.317 . S
C423 H446 0.929 . S
C424 C421 1.432 . S
C424 C422 1.417 . S
C424 N432 1.360 . S
C425 C421 1.414 . S
C425 C423 1.444 . S
C425 C430 1.385 . S
C426 C422 1.432 . S
C426 C423 1.317 . S
C426 H438 0.930 . S
C427 C429 1.392 . S
C427 C430 1.370 . S
C427 H439 0.931 . S
N428 C421 1.359 . S
N428 C429 1.327 . S
N428 Tb431 2.600 . S
C429 C427 1.392 . S
C429 N428 1.327 . S
C429 H436 0.930 . S
C430 C425 1.385 . S
C430 C427 1.370 . S
C430 H449 0.930 . S
Tb431 N428 2.600 . S
Tb431 N432 2.660 . S
Tb431 O465 2.362 . S
Tb431 O466 2.421 . S
Tb431 O470 2.546 . S
Tb431 O471 2.610 . S
Tb431 O473 2.320 . S
Tb431 O474 2.552 . S
Tb431 O475 2.413 . S
Tb431 C495 2.833 . S
N432 C424 1.360 . S
N432 Tb431 2.660 . S
N432 C433 1.305 . S
C433 N432 1.305 . S
C433 C435 1.407 . S
C433 H440 0.930 . S
C434 C422 1.410 . S
C434 C435 1.345 . S
C434 H442 0.930 . S
C435 C433 1.407 . S
C435 C434 1.345 . S
C435 H437 0.930 . S
H436 C429 0.930 . S
H437 C435 0.930 . S
H438 C426 0.930 . S
H439 C427 0.931 . S
H440 C433 0.930 . S
H441 C455 0.930 . S
H442 C434 0.930 . S
H443 C461 0.930 . S
H444 C452 0.930 . S
H445 C459 0.931 . S
H446 C423 0.929 . S
H447 C453 0.930 . S
H448 C486 0.930 . S
H449 C430 0.930 . S
H450 C485 0.929 . S
N451 Tb420 2.660 . S
N451 C452 1.305 . S
N451 C456 1.360 . S
C452 H444 0.930 . S
C452 N451 1.305 . S
C452 C455 1.407 . S
C453 H447 0.930 . S
C453 C454 1.410 . S
C453 C455 1.345 . S
C454 C453 1.410 . S
C454 C456 1.417 . S
C454 C486 1.432 . S
C455 H441 0.930 . S
C455 C452 1.407 . S
C455 C453 1.345 . S
C456 N451 1.360 . S
C456 C454 1.417 . S
C456 C460 1.432 . S
H457 C462 0.930 . S
N458 Tb420 2.600 . S
N458 C460 1.359 . S
N458 C461 1.327 . S
C459 H445 0.931 . S
C459 C461 1.392 . S
C459 C462 1.370 . S
C460 C456 1.432 . S
C460 N458 1.359 . S
C460 C463 1.414 . S
C461 H443 0.930 . S
C461 N458 1.327 . S
C461 C459 1.392 . S
C462 H457 0.930 . S
C462 C459 1.370 . S
C462 C463 1.385 . S
C463 C460 1.414 . S
C463 C462 1.385 . S
C463 C485 1.444 . S
O464 Tb420 2.546 . S
O464 C484 1.251 . S
O465 Tb420 2.610 . S
O465 Tb431 2.362 . S
O465 C476 1.283 . S
O466 Tb431 2.421 . S
O466 C483 1.262 . S
O467 Tb420 2.320 . S
O467 C483 1.260 . S
O468 Tb420 2.552 . S
O468 C476 1.243 . S
O469 Tb420 2.413 . S
O469 C484 1.256 . S
O470 Tb431 2.546 . S
O470 C495 1.251 . S
O471 Tb420 2.362 . S
O471 Tb431 2.610 . S
O471 C487 1.283 . S
O472 Tb420 2.421 . S
O472 C494 1.262 . S
O473 Tb431 2.320 . S
O473 C494 1.260 . S
O474 Tb431 2.552 . S
O474 C487 1.243 . S
O475 Tb431 2.413 . S
O475 C495 1.256 . S
C476 O465 1.283 . S
C476 O468 1.243 . S
C477 C479 1.382 . S
C477 C481 1.393 . S
C477 C484 1.500 . S
C478 C479 1.400 . S
C478 C480 1.384 . S
C479 C477 1.382 . S
C479 C478 1.400 . S
C479 H496 0.930 . S
C480 C478 1.384 . S
C480 C482 1.392 . S
C480 H497 0.931 . S
C481 C477 1.393 . S
C481 C482 1.401 . S
C481 H498 0.930 . S
C482 C480 1.392 . S
C482 C481 1.401 . S
C482 H499 0.930 . S
C483 O466 1.262 . S
C483 O467 1.260 . S
C484 Tb420 2.833 . S
C484 O464 1.251 . S
C484 O469 1.256 . S
C484 C477 1.500 . S
C485 H450 0.929 . S
C485 C463 1.444 . S
C485 C486 1.317 . S
C486 H448 0.930 . S
C486 C454 1.432 . S
C486 C485 1.317 . S
C487 O471 1.283 . S
C487 O474 1.243 . S
C488 C489 1.382 . S
C488 C492 1.393 . S
C488 C495 1.500 . S
C489 C488 1.382 . S
C489 C490 1.400 . S
C489 H500 0.930 . S
C490 C489 1.400 . S
C490 C491 1.384 . S
C491 C490 1.384 . S
C491 C493 1.392 . S
C491 H501 0.931 . S
C492 C488 1.393 . S
C492 C493 1.401 . S
C492 H502 0.930 . S
C493 C491 1.392 . S
C493 C492 1.401 . S
C493 H503 0.930 . S
C494 O472 1.262 . S
C494 O473 1.260 . S
C495 Tb431 2.833 . S
C495 O470 1.251 . S
C495 O475 1.256 . S
C495 C488 1.500 . S
H496 C479 0.930 . S
H497 C480 0.931 . S
H498 C481 0.930 . S
H499 C482 0.930 . S
H500 C489 0.930 . S
H501 C491 0.931 . S
H502 C492 0.930 . S
H503 C493 0.930 . S
Tb504 N535 2.660 . S
Tb504 N542 2.600 . S
Tb504 O548 2.546 . S
Tb504 O549 2.610 . S
Tb504 O551 2.320 . S
Tb504 O552 2.552 . S
Tb504 O553 2.413 . S
Tb504 O555 2.362 . S
Tb504 O556 2.421 . S
Tb504 C568 2.833 . S
C505 C508 1.432 . S
C505 C509 1.414 . S
C505 N512 1.359 . S
C506 C508 1.417 . S
C506 C510 1.432 . S
C506 C518 1.410 . S
C507 C509 1.444 . S
C507 C510 1.317 . S
C507 H530 0.929 . S
C508 C505 1.432 . S
C508 C506 1.417 . S
C508 N516 1.360 . S
C509 C505 1.414 . S
C509 C507 1.444 . S
C509 C514 1.385 . S
C510 C506 1.432 . S
C510 C507 1.317 . S
C510 H522 0.930 . S
C511 C513 1.392 . S
C511 C514 1.370 . S
C511 H523 0.931 . S
N512 C505 1.359 . S
N512 C513 1.327 . S
N512 Tb515 2.600 . S
C513 C511 1.392 . S
C513 N512 1.327 . S
C513 H520 0.930 . S
C514 C509 1.385 . S
C514 C511 1.370 . S
C514 H533 0.930 . S
Tb515 N512 2.600 . S
Tb515 N516 2.660 . S
Tb515 O549 2.362 . S
Tb515 O550 2.421 . S
Tb515 O554 2.546 . S
Tb515 O555 2.610 . S
Tb515 O557 2.320 . S
Tb515 O558 2.552 . S
Tb515 O559 2.413 . S
Tb515 C579 2.833 . S
N516 C508 1.360 . S
N516 Tb515 2.660 . S
N516 C517 1.305 . S
C517 N516 1.305 . S
C517 C519 1.407 . S
C517 H524 0.930 . S
C518 C506 1.410 . S
C518 C519 1.345 . S
C518 H526 0.930 . S
C519 C517 1.407 . S
C519 C518 1.345 . S
C519 H521 0.930 . S
H520 C513 0.930 . S
H521 C519 0.930 . S
H522 C510 0.930 . S
H523 C511 0.931 . S
H524 C517 0.930 . S
H525 C539 0.930 . S
H526 C518 0.930 . S
H527 C545 0.930 . S
H528 C536 0.930 . S
H529 C543 0.931 . S
H530 C507 0.929 . S
H531 C537 0.930 . S
H532 C570 0.930 . S
H533 C514 0.930 . S
H534 C569 0.929 . S
N535 Tb504 2.660 . S
N535 C536 1.305 . S
N535 C540 1.360 . S
C536 H528 0.930 . S
C536 N535 1.305 . S
C536 C539 1.407 . S
C537 H531 0.930 . S
C537 C538 1.410 . S
C537 C539 1.345 . S
C538 C537 1.410 . S
C538 C540 1.417 . S
C538 C570 1.432 . S
C539 H525 0.930 . S
C539 C536 1.407 . S
C539 C537 1.345 . S
C540 N535 1.360 . S
C540 C538 1.417 . S
C540 C544 1.432 . S
H541 C546 0.930 . S
N542 Tb504 2.600 . S
N542 C544 1.359 . S
N542 C545 1.327 . S
C543 H529 0.931 . S
C543 C545 1.392 . S
C543 C546 1.370 . S
C544 C540 1.432 . S
C544 N542 1.359 . S
C544 C547 1.414 . S
C545 H527 0.930 . S
C545 N542 1.327 . S
C545 C543 1.392 . S
C546 H541 0.930 . S
C546 C543 1.370 . S
C546 C547 1.385 . S
C547 C544 1.414 . S
C547 C546 1.385 . S
C547 C569 1.444 . S
O548 Tb504 2.546 . S
O548 C568 1.251 . S
O549 Tb504 2.610 . S
O549 Tb515 2.362 . S
O549 C560 1.283 . S
O550 Tb515 2.421 . S
O550 C567 1.262 . S
O551 Tb504 2.320 . S
O551 C567 1.260 . S
O552 Tb504 2.552 . S
O552 C560 1.243 . S
O553 Tb504 2.413 . S
O553 C568 1.256 . S
O554 Tb515 2.546 . S
O554 C579 1.251 . S
O555 Tb504 2.362 . S
O555 Tb515 2.610 . S
O555 C571 1.283 . S
O556 Tb504 2.421 . S
O556 C578 1.262 . S
O557 Tb515 2.320 . S
O557 C578 1.260 . S
O558 Tb515 2.552 . S
O558 C571 1.243 . S
O559 Tb515 2.413 . S
O559 C579 1.256 . S
C560 O549 1.283 . S
C560 O552 1.243 . S
C561 C563 1.382 . S
C561 C565 1.393 . S
C561 C568 1.500 . S
C562 C563 1.400 . S
C562 C564 1.384 . S
C563 C561 1.382 . S
C563 C562 1.400 . S
C563 H580 0.930 . S
C564 C562 1.384 . S
C564 C566 1.392 . S
C564 H581 0.931 . S
C565 C561 1.393 . S
C565 C566 1.401 . S
C565 H582 0.930 . S
C566 C564 1.392 . S
C566 C565 1.401 . S
C566 H583 0.930 . S
C567 O550 1.262 . S
C567 O551 1.260 . S
C568 Tb504 2.833 . S
C568 O548 1.251 . S
C568 O553 1.256 . S
C568 C561 1.500 . S
C569 H534 0.929 . S
C569 C547 1.444 . S
C569 C570 1.317 . S
C570 H532 0.930 . S
C570 C538 1.432 . S
C570 C569 1.317 . S
C571 O555 1.283 . S
C571 O558 1.243 . S
C572 C573 1.382 . S
C572 C576 1.393 . S
C572 C579 1.500 . S
C573 C572 1.382 . S
C573 C574 1.400 . S
C573 H584 0.930 . S
C574 C573 1.400 . S
C574 C575 1.384 . S
C575 C574 1.384 . S
C575 C577 1.392 . S
C575 H585 0.931 . S
C576 C572 1.393 . S
C576 C577 1.401 . S
C576 H586 0.930 . S
C577 C575 1.392 . S
C577 C576 1.401 . S
C577 H587 0.930 . S
C578 O556 1.262 . S
C578 O557 1.260 . S
C579 Tb515 2.833 . S
C579 O554 1.251 . S
C579 O559 1.256 . S
C579 C572 1.500 . S
H580 C563 0.930 . S
H581 C564 0.931 . S
H582 C565 0.930 . S
H583 C566 0.930 . S
H584 C573 0.930 . S
H585 C575 0.931 . S
H586 C576 0.930 . S
H587 C577 0.930 . S
Tb588 N619 2.660 . S
Tb588 N626 2.600 . S
Tb588 O632 2.546 . S
Tb588 O633 2.610 . S
Tb588 O635 2.320 . S
Tb588 O636 2.552 . S
Tb588 O637 2.413 . S
Tb588 O639 2.362 . S
Tb588 O640 2.421 . S
Tb588 C652 2.833 . S
C589 C592 1.432 . S
C589 C593 1.414 . S
C589 N596 1.359 . S
C590 C592 1.417 . S
C590 C594 1.432 . S
C590 C602 1.410 . S
C591 C593 1.444 . S
C591 C594 1.317 . S
C591 H614 0.929 . S
C592 C589 1.432 . S
C592 C590 1.417 . S
C592 N600 1.360 . S
C593 C589 1.414 . S
C593 C591 1.444 . S
C593 C598 1.385 . S
C594 C590 1.432 . S
C594 C591 1.317 . S
C594 H606 0.930 . S
C595 C597 1.392 . S
C595 C598 1.370 . S
C595 H607 0.931 . S
N596 C589 1.359 . S
N596 C597 1.327 . S
N596 Tb599 2.600 . S
C597 C595 1.392 . S
C597 N596 1.327 . S
C597 H604 0.930 . S
C598 C593 1.385 . S
C598 C595 1.370 . S
C598 H617 0.930 . S
Tb599 N596 2.600 . S
Tb599 N600 2.660 . S
Tb599 O633 2.362 . S
Tb599 O634 2.421 . S
Tb599 O638 2.546 . S
Tb599 O639 2.610 . S
Tb599 O641 2.320 . S
Tb599 O642 2.552 . S
Tb599 O643 2.413 . S
Tb599 C663 2.833 . S
N600 C592 1.360 . S
N600 Tb599 2.660 . S
N600 C601 1.305 . S
C601 N600 1.305 . S
C601 C603 1.407 . S
C601 H608 0.930 . S
C602 C590 1.410 . S
C602 C603 1.345 . S
C602 H610 0.930 . S
C603 C601 1.407 . S
C603 C602 1.345 . S
C603 H605 0.930 . S
H604 C597 0.930 . S
H605 C603 0.930 . S
H606 C594 0.930 . S
H607 C595 0.931 . S
H608 C601 0.930 . S
H609 C623 0.930 . S
H610 C602 0.930 . S
H611 C629 0.930 . S
H612 C620 0.930 . S
H613 C627 0.931 . S
H614 C591 0.929 . S
H615 C621 0.930 . S
H616 C654 0.930 . S
H617 C598 0.930 . S
H618 C653 0.929 . S
N619 Tb588 2.660 . S
N619 C620 1.305 . S
N619 C624 1.360 . S
C620 H612 0.930 . S
C620 N619 1.305 . S
C620 C623 1.407 . S
C621 H615 0.930 . S
C621 C622 1.410 . S
C621 C623 1.345 . S
C622 C621 1.410 . S
C622 C624 1.417 . S
C622 C654 1.432 . S
C623 H609 0.930 . S
C623 C620 1.407 . S
C623 C621 1.345 . S
C624 N619 1.360 . S
C624 C622 1.417 . S
C624 C628 1.432 . S
H625 C630 0.930 . S
N626 Tb588 2.600 . S
N626 C628 1.359 . S
N626 C629 1.327 . S
C627 H613 0.931 . S
C627 C629 1.392 . S
C627 C630 1.370 . S
C628 C624 1.432 . S
C628 N626 1.359 . S
C628 C631 1.414 . S
C629 H611 0.930 . S
C629 N626 1.327 . S
C629 C627 1.392 . S
C630 H625 0.930 . S
C630 C627 1.370 . S
C630 C631 1.385 . S
C631 C628 1.414 . S
C631 C630 1.385 . S
C631 C653 1.444 . S
O632 Tb588 2.546 . S
O632 C652 1.251 . S
O633 Tb588 2.610 . S
O633 Tb599 2.362 . S
O633 C644 1.283 . S
O634 Tb599 2.421 . S
O634 C651 1.262 . S
O635 Tb588 2.320 . S
O635 C651 1.260 . S
O636 Tb588 2.552 . S
O636 C644 1.243 . S
O637 Tb588 2.413 . S
O637 C652 1.256 . S
O638 Tb599 2.546 . S
O638 C663 1.251 . S
O639 Tb588 2.362 . S
O639 Tb599 2.610 . S
O639 C655 1.283 . S
O640 Tb588 2.421 . S
O640 C662 1.262 . S
O641 Tb599 2.320 . S
O641 C662 1.260 . S
O642 Tb599 2.552 . S
O642 C655 1.243 . S
O643 Tb599 2.413 . S
O643 C663 1.256 . S
C644 O633 1.283 . S
C644 O636 1.243 . S
C645 C647 1.382 . S
C645 C649 1.393 . S
C645 C652 1.500 . S
C646 C647 1.400 . S
C646 C648 1.384 . S
C647 C645 1.382 . S
C647 C646 1.400 . S
C647 H664 0.930 . S
C648 C646 1.384 . S
C648 C650 1.392 . S
C648 H665 0.931 . S
C649 C645 1.393 . S
C649 C650 1.401 . S
C649 H666 0.930 . S
C650 C648 1.392 . S
C650 C649 1.401 . S
C650 H667 0.930 . S
C651 O634 1.262 . S
C651 O635 1.260 . S
C652 Tb588 2.833 . S
C652 O632 1.251 . S
C652 O637 1.256 . S
C652 C645 1.500 . S
C653 H618 0.929 . S
C653 C631 1.444 . S
C653 C654 1.317 . S
C654 H616 0.930 . S
C654 C622 1.432 . S
C654 C653 1.317 . S
C655 O639 1.283 . S
C655 O642 1.243 . S
C656 C657 1.382 . S
C656 C660 1.393 . S
C656 C663 1.500 . S
C657 C656 1.382 . S
C657 C658 1.400 . S
C657 H668 0.930 . S
C658 C657 1.400 . S
C658 C659 1.384 . S
C659 C658 1.384 . S
C659 C661 1.392 . S
C659 H669 0.931 . S
C660 C656 1.393 . S
C660 C661 1.401 . S
C660 H670 0.930 . S
C661 C659 1.392 . S
C661 C660 1.401 . S
C661 H671 0.930 . S
C662 O640 1.262 . S
C662 O641 1.260 . S
C663 Tb599 2.833 . S
C663 O638 1.251 . S
C663 O643 1.256 . S
C663 C656 1.500 . S
H664 C647 0.930 . S
H665 C648 0.931 . S
H666 C649 0.930 . S
H667 C650 0.930 . S
H668 C657 0.930 . S
H669 C659 0.931 . S
H670 C660 0.930 . S
H671 C661 0.930 . S
C672 O684 1.241 . S
C672 O685 1.280 . S
C673 O686 1.277 . S
C673 O687 1.245 . S
C674 O698 1.247 . S
C674 O700 1.289 . S
Mg675 O676 1.926 . S
Mg675 O685 1.984 . S
Mg675 O687 1.988 . S
Mg675 O688 2.061 1_655 S
O676 Mg675 1.926 . S
O676 Mg677 1.986 1_545 S
O676 Mg678 1.920 1_655 S
Mg677 O676 1.986 1_565 S
Mg677 O684 2.042 1_565 S
Mg677 O686 2.041 1_565 S
Mg677 O692 2.038 . S
Mg677 O700 2.238 . S
Mg678 O676 1.920 1_455 S
Mg678 O679 1.914 1_545 S
Mg678 O689 2.110 . S
Mg678 O691 2.075 1_445 S
Mg678 O700 2.103 1_445 S
Mg678 O701 2.082 . S
O679 Mg678 1.914 1_565 S
O679 Mg680 1.926 . S
O679 Mg681 1.986 1_565 S
Mg680 O679 1.926 . S
Mg680 O694 1.984 . S
Mg680 O697 1.988 . S
Mg680 O698 2.061 1_455 S
Mg681 O679 1.986 1_545 S
Mg681 O689 2.238 . S
Mg681 O693 2.042 1_545 S
Mg681 O695 2.041 1_545 S
Mg681 O702 2.038 . S
C682 O688 1.247 . S
C682 O689 1.289 . S
C683 O701 1.245 . S
C683 O702 1.274 . S
O684 C672 1.241 . S
O684 Mg677 2.042 1_545 S
O685 C672 1.280 . S
O685 Mg675 1.984 . S
O686 C673 1.277 . S
O686 Mg677 2.041 1_545 S
O687 C673 1.245 . S
O687 Mg675 1.988 . S
O688 Mg675 2.061 1_455 S
O688 C682 1.247 . S
O689 Mg678 2.110 . S
O689 Mg681 2.238 . S
O689 C682 1.289 . S
C690 O691 1.245 . S
C690 O692 1.274 . S
O691 Mg678 2.075 1_665 S
O691 C690 1.245 . S
O692 Mg677 2.038 . S
O692 C690 1.274 . S
O693 Mg681 2.042 1_565 S
O693 C696 1.241 . S
O694 Mg680 1.984 . S
O694 C696 1.280 . S
O695 Mg681 2.041 1_565 S
O695 C699 1.277 . S
C696 O693 1.241 . S
C696 O694 1.280 . S
O697 Mg680 1.988 . S
O697 C699 1.245 . S
O698 C674 1.247 . S
O698 Mg680 2.061 1_655 S
C699 O695 1.277 . S
C699 O697 1.245 . S
O700 C674 1.289 . S
O700 Mg677 2.238 . S
O700 Mg678 2.103 1_665 S
O701 Mg678 2.082 . S
O701 C683 1.245 . S
O702 Mg681 2.038 . S
O702 C683 1.274 . S
C703 O715 1.241 . S
C703 O716 1.280 . S
C704 O717 1.277 . S
C704 O718 1.245 . S
C705 O729 1.247 . S
C705 O731 1.289 . S
Mg706 O707 1.926 . S
Mg706 O716 1.984 . S
Mg706 O718 1.988 1_554 S
Mg706 O719 2.061 . S
O707 Mg706 1.926 . S
O707 Mg708 1.986 1_544 S
O707 Mg709 1.925 . S
Mg708 O707 1.986 1_566 S
Mg708 O715 2.042 1_566 S
Mg708 O717 2.041 1_565 S
Mg708 O723 2.038 1_556 S
Mg708 O731 2.238 . S
Mg709 O707 1.925 . S
Mg709 O710 1.909 1_544 S
Mg709 O720 2.111 . S
Mg709 O722 2.082 1_545 S
Mg709 O731 2.102 1_544 S
Mg709 O732 2.075 1_554 S
O710 Mg709 1.909 1_566 S
O710 Mg711 1.926 . S
O710 Mg712 1.986 1_566 S
Mg711 O710 1.926 . S
Mg711 O725 1.984 . S
Mg711 O728 1.988 1_556 S
Mg711 O729 2.061 . S
Mg712 O710 1.986 1_544 S
Mg712 O720 2.238 . S
Mg712 O724 2.042 1_544 S
Mg712 O726 2.041 1_545 S
Mg712 O733 2.038 1_554 S
C713 O719 1.247 . S
C713 O720 1.289 . S
C714 O732 1.245 . S
C714 O733 1.274 . S
O715 C703 1.241 . S
O715 Mg708 2.042 1_544 S
O716 C703 1.280 . S
O716 Mg706 1.984 . S
O717 C704 1.277 . S
O717 Mg708 2.041 1_545 S
O718 C704 1.245 . S
O718 Mg706 1.988 1_556 S
O719 Mg706 2.061 . S
O719 C713 1.247 . S
O720 Mg709 2.111 . S
O720 Mg712 2.238 . S
O720 C713 1.289 . S
C721 O722 1.245 . S
C721 O723 1.274 . S
O722 Mg709 2.082 1_565 S
O722 C721 1.245 . S
O723 Mg708 2.038 1_554 S
O723 C721 1.274 . S
O724 Mg712 2.042 1_566 S
O724 C727 1.241 . S
O725 Mg711 1.984 . S
O725 C727 1.280 . S
O726 Mg712 2.041 1_565 S
O726 C730 1.277 . S
C727 O724 1.241 . S
C727 O725 1.280 . S
O728 Mg711 1.988 1_554 S
O728 C730 1.245 . S
O729 C705 1.247 . S
O729 Mg711 2.061 . S
C730 O726 1.277 . S
C730 O728 1.245 . S
O731 C705 1.289 . S
O731 Mg708 2.238 . S
O731 Mg709 2.102 1_566 S
O732 Mg709 2.075 1_556 S
O732 C714 1.245 . S
O733 Mg712 2.038 1_556 S
O733 C714 1.274 . S
C734 O746 1.241 . S
C734 O747 1.280 . S
C735 O748 1.277 . S
C735 O749 1.245 . S
C736 O760 1.247 . S
C736 O762 1.289 . S
Mg737 O738 1.926 . S
Mg737 O747 1.984 . S
Mg737 O749 1.988 1_554 S
Mg737 O750 2.061 1_655 S
O738 Mg737 1.926 . S
O738 Mg739 1.986 1_554 S
O738 Mg740 1.916 1_655 S
Mg739 O738 1.986 1_556 S
Mg739 O746 2.042 1_556 S
Mg739 O748 2.041 . S
Mg739 O754 2.038 1_556 S
Mg739 O762 2.238 . S
Mg740 O738 1.916 1_455 S
Mg740 O741 1.918 1_554 S
Mg740 O751 2.113 . S
Mg740 O753 2.083 1_455 S
Mg740 O762 2.100 1_454 S
Mg740 O763 2.074 1_554 S
O741 Mg740 1.918 1_556 S
O741 Mg742 1.926 . S
O741 Mg743 1.986 1_556 S
Mg742 O741 1.926 . S
Mg742 O756 1.984 . S
Mg742 O759 1.988 1_556 S
Mg742 O760 2.061 1_455 S
Mg743 O741 1.986 1_554 S
Mg743 O751 2.238 . S
Mg743 O755 2.042 1_554 S
Mg743 O757 2.041 . S
Mg743 O764 2.038 1_554 S
C744 O750 1.247 . S
C744 O751 1.289 . S
C745 O763 1.245 . S
C745 O764 1.274 . S
O746 C734 1.241 . S
O746 Mg739 2.042 1_554 S
O747 C734 1.280 . S
O747 Mg737 1.984 . S
O748 C735 1.277 . S
O748 Mg739 2.041 . S
O749 C735 1.245 . S
O749 Mg737 1.988 1_556 S
O750 Mg737 2.061 1_455 S
O750 C744 1.247 . S
O751 Mg740 2.113 . S
O751 Mg743 2.238 . S
O751 C744 1.289 . S
C752 O753 1.245 . S
C752 O754 1.274 . S
O753 Mg740 2.083 1_655 S
O753 C752 1.245 . S
O754 Mg739 2.038 1_554 S
O754 C752 1.274 . S
O755 Mg743 2.042 1_556 S
O755 C758 1.241 . S
O756 Mg742 1.984 . S
O756 C758 1.280 . S
O757 Mg743 2.041 . S
O757 C761 1.277 . S
C758 O755 1.241 . S
C758 O756 1.280 . S
O759 Mg742 1.988 1_554 S
O759 C761 1.245 . S
O760 C736 1.247 . S
O760 Mg742 2.061 1_655 S
C761 O757 1.277 . S
C761 O759 1.245 . S
O762 C736 1.289 . S
O762 Mg739 2.238 . S
O762 Mg740 2.100 1_656 S
O763 Mg740 2.074 1_556 S
O763 C745 1.245 . S
O764 Mg743 2.038 1_556 S
O764 C745 1.274 . S
C765 O777 1.241 . S
C765 O778 1.280 . S
C766 O779 1.277 . S
C766 O780 1.245 . S
C767 O791 1.247 . S
C767 O793 1.289 . S
Mg768 O769 1.926 . S
Mg768 O778 1.984 . S
Mg768 O780 1.988 1_554 S
Mg768 O781 2.061 . S
O769 Mg768 1.926 . S
O769 Mg770 1.986 1_554 S
O769 Mg771 1.919 . S
Mg770 O769 1.986 1_556 S
Mg770 O777 2.042 1_556 S
Mg770 O779 2.041 . S
Mg770 O785 2.038 1_556 S
Mg770 O793 2.238 . S
Mg771 O769 1.919 . S
Mg771 O772 1.914 1_554 S
Mg771 O782 2.110 . S
Mg771 O784 2.084 . S
Mg771 O793 2.103 1_554 S
Mg771 O794 2.073 1_554 S
O772 Mg771 1.914 1_556 S
O772 Mg773 1.926 . S
O772 Mg774 1.986 1_556 S
Mg773 O772 1.926 . S
Mg773 O787 1.984 . S
Mg773 O790 1.988 1_556 S
Mg773 O791 2.061 . S
Mg774 O772 1.986 1_554 S
Mg774 O782 2.238 . S
Mg774 O786 2.042 1_554 S
Mg774 O788 2.041 . S
Mg774 O795 2.038 1_554 S
C775 O781 1.247 . S
C775 O782 1.289 . S
C776 O794 1.245 . S
C776 O795 1.274 . S
O777 C765 1.241 . S
O777 Mg770 2.042 1_554 S
O778 C765 1.280 . S
O778 Mg768 1.984 . S
O779 C766 1.277 . S
O779 Mg770 2.041 . S
O780 C766 1.245 . S
O780 Mg768 1.988 1_556 S
O781 Mg768 2.061 . S
O781 C775 1.247 . S
O782 Mg771 2.110 . S
O782 Mg774 2.238 . S
O782 C775 1.289 . S
C783 O784 1.245 . S
C783 O785 1.274 . S
O784 Mg771 2.084 . S
O784 C783 1.245 . S
O785 Mg770 2.038 1_554 S
O785 C783 1.274 . S
O786 Mg774 2.042 1_556 S
O786 C789 1.241 . S
O787 Mg773 1.984 . S
O787 C789 1.280 . S
O788 Mg774 2.041 . S
O788 C792 1.277 . S
C789 O786 1.241 . S
C789 O787 1.280 . S
O790 Mg773 1.988 1_554 S
O790 C792 1.245 . S
O791 C767 1.247 . S
O791 Mg773 2.061 . S
C792 O788 1.277 . S
C792 O790 1.245 . S
O793 C767 1.289 . S
O793 Mg770 2.238 . S
O793 Mg771 2.103 1_556 S
O794 Mg771 2.073 1_556 S
O794 C776 1.245 . S
O795 Mg774 2.038 1_556 S
O795 C776 1.274 . S
C796 O808 1.241 . S
C796 O809 1.280 . S
C797 O810 1.277 . S
C797 O811 1.245 . S
C798 O822 1.247 . S
C798 O824 1.289 . S
Mg799 O800 1.926 . S
Mg799 O809 1.984 . S
Mg799 O811 1.988 . S
Mg799 O812 2.061 1_655 S
O800 Mg799 1.926 . S
O800 Mg801 1.986 . S
O800 Mg802 1.914 1_655 S
Mg801 O800 1.986 . S
Mg801 O808 2.042 . S
Mg801 O810 2.041 . S
Mg801 O816 2.038 . S
Mg801 O824 2.238 . S
Mg802 O800 1.914 1_455 S
Mg802 O803 1.920 . S
Mg802 O813 2.109 . S
Mg802 O815 2.078 1_455 S
Mg802 O824 2.104 1_455 S
Mg802 O825 2.079 . S
O803 Mg802 1.920 . S
O803 Mg804 1.926 . S
O803 Mg805 1.986 . S
Mg804 O803 1.926 . S
Mg804 O818 1.984 . S
Mg804 O821 1.988 . S
Mg804 O822 2.061 1_455 S
Mg805 O803 1.986 . S
Mg805 O813 2.238 . S
Mg805 O817 2.042 . S
Mg805 O819 2.041 . S
Mg805 O826 2.038 . S
C806 O812 1.247 . S
C806 O813 1.289 . S
C807 O825 1.245 . S
C807 O826 1.274 . S
O808 C796 1.241 . S
O808 Mg801 2.042 . S
O809 C796 1.280 . S
O809 Mg799 1.984 . S
O810 C797 1.277 . S
O810 Mg801 2.041 . S
O811 C797 1.245 . S
O811 Mg799 1.988 . S
O812 Mg799 2.061 1_455 S
O812 C806 1.247 . S
O813 Mg802 2.109 . S
O813 Mg805 2.238 . S
O813 C806 1.289 . S
C814 O815 1.245 . S
C814 O816 1.274 . S
O815 Mg802 2.078 1_655 S
O815 C814 1.245 . S
O816 Mg801 2.038 . S
O816 C814 1.274 . S
O817 Mg805 2.042 . S
O817 C820 1.241 . S
O818 Mg804 1.984 . S
O818 C820 1.280 . S
O819 Mg805 2.041 . S
O819 C823 1.277 . S
C820 O817 1.241 . S
C820 O818 1.280 . S
O821 Mg804 1.988 . S
O821 C823 1.245 . S
O822 C798 1.247 . S
O822 Mg804 2.061 1_655 S
C823 O819 1.277 . S
C823 O821 1.245 . S
O824 C798 1.289 . S
O824 Mg801 2.238 . S
O824 Mg802 2.104 1_655 S
O825 Mg802 2.079 . S
O825 C807 1.245 . S
O826 Mg805 2.038 . S
O826 C807 1.274 . S
C827 O839 1.241 . S
C827 O840 1.280 . S
C828 O841 1.277 . S
C828 O842 1.245 . S
C829 O853 1.247 . S
C829 O855 1.289 . S
Mg830 O831 1.926 . S
Mg830 O840 1.984 . S
Mg830 O842 1.988 . S
Mg830 O843 2.061 . S
O831 Mg830 1.926 . S
O831 Mg832 1.986 1_545 S
O831 Mg833 1.923 . S
Mg832 O831 1.986 1_565 S
Mg832 O839 2.042 1_565 S
Mg832 O841 2.041 1_565 S
Mg832 O847 2.038 . S
Mg832 O855 2.238 . S
Mg833 O831 1.923 . S
Mg833 O834 1.911 1_545 S
Mg833 O844 2.107 . S
Mg833 O846 2.076 1_545 S
Mg833 O855 2.105 1_545 S
Mg833 O856 2.081 . S
O834 Mg833 1.911 1_565 S
O834 Mg835 1.926 . S
O834 Mg836 1.986 1_565 S
Mg835 O834 1.926 . S
Mg835 O849 1.984 . S
Mg835 O852 1.988 . S
Mg835 O853 2.061 . S
Mg836 O834 1.986 1_545 S
Mg836 O844 2.238 . S
Mg836 O848 2.042 1_545 S
Mg836 O850 2.041 1_545 S
Mg836 O857 2.038 . S
C837 O843 1.247 . S
C837 O844 1.289 . S
C838 O856 1.245 . S
C838 O857 1.274 . S
O839 C827 1.241 . S
O839 Mg832 2.042 1_545 S
O840 C827 1.280 . S
O840 Mg830 1.984 . S
O841 C828 1.277 . S
O841 Mg832 2.041 1_545 S
O842 C828 1.245 . S
O842 Mg830 1.988 . S
O843 Mg830 2.061 . S
O843 C837 1.247 . S
O844 Mg833 2.107 . S
O844 Mg836 2.238 . S
O844 C837 1.289 . S
C845 O846 1.245 . S
C845 O847 1.274 . S
O846 Mg833 2.076 1_565 S
O846 C845 1.245 . S
O847 Mg832 2.038 . S
O847 C845 1.274 . S
O848 Mg836 2.042 1_565 S
O848 C851 1.241 . S
O849 Mg835 1.984 . S
O849 C851 1.280 . S
O850 Mg836 2.041 1_565 S
O850 C854 1.277 . S
C851 O848 1.241 . S
C851 O849 1.280 . S
O852 Mg835 1.988 . S
O852 C854 1.245 . S
O853 C829 1.247 . S
O853 Mg835 2.061 . S
C854 O850 1.277 . S
C854 O852 1.245 . S
O855 C829 1.289 . S
O855 Mg832 2.238 . S
O855 Mg833 2.105 1_565 S
O856 Mg833 2.081 . S
O856 C838 1.245 . S
O857 Mg836 2.038 . S
O857 C838 1.274 . S
H858 C870 0.930 . S
H859 C872 0.930 . S
H860 C873 0.930 . S
H861 C877 0.959 . S
H862 C877 0.959 . S
H863 C877 0.961 . S
H864 C878 0.960 . S
H865 C878 0.961 . S
H866 C878 0.959 . S
H867 C881 0.929 . S
H868 C882 0.931 . S
H869 C884 0.930 . S
C870 H858 0.930 . S
C870 C871 1.399 . S
C870 C875 1.399 . S
C871 C870 1.399 . S
C871 C872 1.376 . S
C872 H859 0.930 . S
C872 C871 1.376 . S
C872 C873 1.388 . S
C873 H860 0.930 . S
C873 C872 1.388 . S
C873 C874 1.390 . S
C874 C873 1.390 . S
C874 C875 1.394 . S
C874 C880 1.465 . S
C875 C870 1.399 . S
C875 C874 1.394 . S
C875 C876 1.516 . S
C876 C875 1.516 . S
C876 C877 1.502 . S
C876 C878 1.561 . S
C876 C879 1.526 . S
C877 H861 0.959 . S
C877 H862 0.959 . S
C877 H863 0.961 . S
C877 C876 1.502 . S
C878 H864 0.960 . S
C878 H865 0.961 . S
C878 H866 0.959 . S
C878 C876 1.561 . S
C879 C876 1.526 . S
C879 C880 1.396 . S
C879 C884 1.390 . S
C880 C874 1.465 . S
C880 C879 1.396 . S
C880 C881 1.399 . S
C881 H867 0.929 . S
C881 C880 1.399 . S
C881 C882 1.385 . S
C882 H868 0.931 . S
C882 C881 1.385 . S
C882 C883 1.389 . S
C883 C882 1.389 . S
C883 C884 1.387 . S
C884 H869 0.930 . S
C884 C879 1.390 . S
C884 C883 1.387 . S
H885 C897 0.930 . S
H886 C899 0.930 . S
H887 C900 0.930 . S
H888 C904 0.959 . S
H889 C904 0.959 . S
H890 C904 0.961 . S
H891 C905 0.960 . S
H892 C905 0.961 . S
H893 C905 0.959 . S
H894 C908 0.929 . S
H895 C909 0.931 . S
H896 C911 0.930 . S
C897 H885 0.930 . S
C897 C898 1.399 . S
C897 C902 1.399 . S
C898 C897 1.399 . S
C898 C899 1.376 . S
C899 H886 0.930 . S
C899 C898 1.376 . S
C899 C900 1.388 . S
C900 H887 0.930 . S
C900 C899 1.388 . S
C900 C901 1.390 . S
C901 C900 1.390 . S
C901 C902 1.394 . S
C901 C907 1.465 . S
C902 C897 1.399 . S
C902 C901 1.394 . S
C902 C903 1.516 . S
C903 C902 1.516 . S
C903 C904 1.502 . S
C903 C905 1.561 . S
C903 C906 1.526 . S
C904 H888 0.959 . S
C904 H889 0.959 . S
C904 H890 0.961 . S
C904 C903 1.502 . S
C905 H891 0.960 . S
C905 H892 0.961 . S
C905 H893 0.959 . S
C905 C903 1.561 . S
C906 C903 1.526 . S
C906 C907 1.396 . S
C906 C911 1.390 . S
C907 C901 1.465 . S
C907 C906 1.396 . S
C907 C908 1.399 . S
C908 H894 0.929 . S
C908 C907 1.399 . S
C908 C909 1.385 . S
C909 H895 0.931 . S
C909 C908 1.385 . S
C909 C910 1.389 . S
C910 C909 1.389 . S
C910 C911 1.387 . S
C911 H896 0.930 . S
C911 C906 1.390 . S
C911 C910 1.387 . S
H912 C924 0.930 . S
H913 C926 0.930 . S
H914 C927 0.930 . S
H915 C931 0.959 . S
H916 C931 0.959 . S
H917 C931 0.961 . S
H918 C932 0.960 . S
H919 C932 0.961 . S
H920 C932 0.959 . S
H921 C935 0.929 . S
H922 C936 0.931 . S
H923 C938 0.930 . S
C924 H912 0.930 . S
C924 C925 1.399 . S
C924 C929 1.399 . S
C925 C924 1.399 . S
C925 C926 1.376 . S
C926 H913 0.930 . S
C926 C925 1.376 . S
C926 C927 1.388 . S
C927 H914 0.930 . S
C927 C926 1.388 . S
C927 C928 1.390 . S
C928 C927 1.390 . S
C928 C929 1.394 . S
C928 C934 1.465 . S
C929 C924 1.399 . S
C929 C928 1.394 . S
C929 C930 1.516 . S
C930 C929 1.516 . S
C930 C931 1.502 . S
C930 C932 1.561 . S
C930 C933 1.526 . S
C931 H915 0.959 . S
C931 H916 0.959 . S
C931 H917 0.961 . S
C931 C930 1.502 . S
C932 H918 0.960 . S
C932 H919 0.961 . S
C932 H920 0.959 . S
C932 C930 1.561 . S
C933 C930 1.526 . S
C933 C934 1.396 . S
C933 C938 1.390 . S
C934 C928 1.465 . S
C934 C933 1.396 . S
C934 C935 1.399 . S
C935 H921 0.929 . S
C935 C934 1.399 . S
C935 C936 1.385 . S
C936 H922 0.931 . S
C936 C935 1.385 . S
C936 C937 1.389 . S
C937 C936 1.389 . S
C937 C938 1.387 . S
C938 H923 0.930 . S
C938 C933 1.390 . S
C938 C937 1.387 . S
H939 C951 0.930 . S
H940 C953 0.930 . S
H941 C954 0.930 . S
H942 C958 0.959 . S
H943 C958 0.959 . S
H944 C958 0.961 . S
H945 C959 0.960 . S
H946 C959 0.961 . S
H947 C959 0.959 . S
H948 C962 0.929 . S
H949 C963 0.931 . S
H950 C965 0.930 . S
C951 H939 0.930 . S
C951 C952 1.399 . S
C951 C956 1.399 . S
C952 C951 1.399 . S
C952 C953 1.376 . S
C953 H940 0.930 . S
C953 C952 1.376 . S
C953 C954 1.388 . S
C954 H941 0.930 . S
C954 C953 1.388 . S
C954 C955 1.390 . S
C955 C954 1.390 . S
C955 C956 1.394 . S
C955 C961 1.465 . S
C956 C951 1.399 . S
C956 C955 1.394 . S
C956 C957 1.516 . S
C957 C956 1.516 . S
C957 C958 1.502 . S
C957 C959 1.561 . S
C957 C960 1.526 . S
C958 H942 0.959 . S
C958 H943 0.959 . S
C958 H944 0.961 . S
C958 C957 1.502 . S
C959 H945 0.960 . S
C959 H946 0.961 . S
C959 H947 0.959 . S
C959 C957 1.561 . S
C960 C957 1.526 . S
C960 C961 1.396 . S
C960 C965 1.390 . S
C961 C955 1.465 . S
C961 C960 1.396 . S
C961 C962 1.399 . S
C962 H948 0.929 . S
C962 C961 1.399 . S
C962 C963 1.385 . S
C963 H949 0.931 . S
C963 C962 1.385 . S
C963 C964 1.389 . S
C964 C963 1.389 . S
C964 C965 1.387 . S
C965 H950 0.930 . S
C965 C960 1.390 . S
C965 C964 1.387 . S
H966 C978 0.930 . S
H967 C980 0.930 . S
H968 C981 0.930 . S
H969 C985 0.959 . S
H970 C985 0.959 . S
H971 C985 0.961 . S
H972 C986 0.960 . S
H973 C986 0.961 . S
H974 C986 0.959 . S
H975 C989 0.929 . S
H976 C990 0.931 . S
H977 C992 0.930 . S
C978 H966 0.930 . S
C978 C979 1.399 . S
C978 C983 1.399 . S
C979 C978 1.399 . S
C979 C980 1.376 . S
C980 H967 0.930 . S
C980 C979 1.376 . S
C980 C981 1.388 . S
C981 H968 0.930 . S
C981 C980 1.388 . S
C981 C982 1.390 . S
C982 C981 1.390 . S
C982 C983 1.394 . S
C982 C988 1.465 . S
C983 C978 1.399 . S
C983 C982 1.394 . S
C983 C984 1.516 . S
C984 C983 1.516 . S
C984 C985 1.502 . S
C984 C986 1.561 . S
C984 C987 1.526 . S
C985 H969 0.959 . S
C985 H970 0.959 . S
C985 H971 0.961 . S
C985 C984 1.502 . S
C986 H972 0.960 . S
C986 H973 0.961 . S
C986 H974 0.959 . S
C986 C984 1.561 . S
C987 C984 1.526 . S
C987 C988 1.396 . S
C987 C992 1.390 . S
C988 C982 1.465 . S
C988 C987 1.396 . S
C988 C989 1.399 . S
C989 H975 0.929 . S
C989 C988 1.399 . S
C989 C990 1.385 . S
C990 H976 0.931 . S
C990 C989 1.385 . S
C990 C991 1.389 . S
C991 C990 1.389 . S
C991 C992 1.387 . S
C992 H977 0.930 . S
C992 C987 1.390 . S
C992 C991 1.387 . S
H993 C1005 0.930 . S
H994 C1007 0.930 . S
H995 C1008 0.930 . S
H996 C1012 0.959 . S
H997 C1012 0.959 . S
H998 C1012 0.961 . S
H999 C1013 0.960 . S
H1000 C1013 0.961 . S
H1001 C1013 0.959 . S
H1002 C1016 0.929 . S
H1003 C1017 0.931 . S
H1004 C1019 0.930 . S
C1005 H993 0.930 . S
C1005 C1006 1.399 . S
C1005 C1010 1.399 . S
C1006 C1005 1.399 . S
C1006 C1007 1.376 . S
C1007 H994 0.930 . S
C1007 C1006 1.376 . S
C1007 C1008 1.388 . S
C1008 H995 0.930 . S
C1008 C1007 1.388 . S
C1008 C1009 1.390 . S
C1009 C1008 1.390 . S
C1009 C1010 1.394 . S
C1009 C1015 1.465 . S
C1010 C1005 1.399 . S
C1010 C1009 1.394 . S
C1010 C1011 1.516 . S
C1011 C1010 1.516 . S
C1011 C1012 1.502 . S
C1011 C1013 1.561 . S
C1011 C1014 1.526 . S
C1012 H996 0.959 . S
C1012 H997 0.959 . S
C1012 H998 0.961 . S
C1012 C1011 1.502 . S
C1013 H999 0.960 . S
C1013 H1000 0.961 . S
C1013 H1001 0.959 . S
C1013 C1011 1.561 . S
C1014 C1011 1.526 . S
C1014 C1015 1.396 . S
C1014 C1019 1.390 . S
C1015 C1009 1.465 . S
C1015 C1014 1.396 . S
C1015 C1016 1.399 . S
C1016 H1002 0.929 . S
C1016 C1015 1.399 . S
C1016 C1017 1.385 . S
C1017 H1003 0.931 . S
C1017 C1016 1.385 . S
C1017 C1018 1.389 . S
C1018 C1017 1.389 . S
C1018 C1019 1.387 . S
C1019 H1004 0.930 . S
C1019 C1014 1.390 . S
C1019 C1018 1.387 . S
H1020 C1032 0.930 . S
H1021 C1034 0.930 . S
H1022 C1035 0.930 . S
H1023 C1039 0.959 . S
H1024 C1039 0.959 . S
H1025 C1039 0.961 . S
H1026 C1040 0.960 . S
H1027 C1040 0.961 . S
H1028 C1040 0.959 . S
H1029 C1043 0.929 . S
H1030 C1044 0.931 . S
H1031 C1046 0.930 . S
C1032 H1020 0.930 . S
C1032 C1033 1.399 . S
C1032 C1037 1.399 . S
C1033 C1032 1.399 . S
C1033 C1034 1.376 . S
C1034 H1021 0.930 . S
C1034 C1033 1.376 . S
C1034 C1035 1.388 . S
C1035 H1022 0.930 . S
C1035 C1034 1.388 . S
C1035 C1036 1.390 . S
C1036 C1035 1.390 . S
C1036 C1037 1.394 . S
C1036 C1042 1.465 . S
C1037 C1032 1.399 . S
C1037 C1036 1.394 . S
C1037 C1038 1.516 . S
C1038 C1037 1.516 . S
C1038 C1039 1.502 . S
C1038 C1040 1.561 . S
C1038 C1041 1.526 . S
C1039 H1023 0.959 . S
C1039 H1024 0.959 . S
C1039 H1025 0.961 . S
C1039 C1038 1.502 . S
C1040 H1026 0.960 . S
C1040 H1027 0.961 . S
C1040 H1028 0.959 . S
C1040 C1038 1.561 . S
C1041 C1038 1.526 . S
C1041 C1042 1.396 . S
C1041 C1046 1.390 . S
C1042 C1036 1.465 . S
C1042 C1041 1.396 . S
C1042 C1043 1.399 . S
C1043 H1029 0.929 . S
C1043 C1042 1.399 . S
C1043 C1044 1.385 . S
C1044 H1030 0.931 . S
C1044 C1043 1.385 . S
C1044 C1045 1.389 . S
C1045 C1044 1.389 . S
C1045 C1046 1.387 . S
C1046 H1031 0.930 . S
C1046 C1041 1.390 . S
C1046 C1045 1.387 . S
H1047 C1059 0.930 . S
H1048 C1061 0.930 . S
H1049 C1062 0.930 . S
H1050 C1066 0.959 . S
H1051 C1066 0.959 . S
H1052 C1066 0.961 . S
H1053 C1067 0.960 . S
H1054 C1067 0.961 . S
H1055 C1067 0.959 . S
H1056 C1070 0.929 . S
H1057 C1071 0.931 . S
H1058 C1073 0.930 . S
C1059 H1047 0.930 . S
C1059 C1060 1.399 . S
C1059 C1064 1.399 . S
C1060 C1059 1.399 . S
C1060 C1061 1.376 . S
C1061 H1048 0.930 . S
C1061 C1060 1.376 . S
C1061 C1062 1.388 . S
C1062 H1049 0.930 . S
C1062 C1061 1.388 . S
C1062 C1063 1.390 . S
C1063 C1062 1.390 . S
C1063 C1064 1.394 . S
C1063 C1069 1.465 . S
C1064 C1059 1.399 . S
C1064 C1063 1.394 . S
C1064 C1065 1.516 . S
C1065 C1064 1.516 . S
C1065 C1066 1.502 . S
C1065 C1067 1.561 . S
C1065 C1068 1.526 . S
C1066 H1050 0.959 . S
C1066 H1051 0.959 . S
C1066 H1052 0.961 . S
C1066 C1065 1.502 . S
C1067 H1053 0.960 . S
C1067 H1054 0.961 . S
C1067 H1055 0.959 . S
C1067 C1065 1.561 . S
C1068 C1065 1.526 . S
C1068 C1069 1.396 . S
C1068 C1073 1.390 . S
C1069 C1063 1.465 . S
C1069 C1068 1.396 . S
C1069 C1070 1.399 . S
C1070 H1056 0.929 . S
C1070 C1069 1.399 . S
C1070 C1071 1.385 . S
C1071 H1057 0.931 . S
C1071 C1070 1.385 . S
C1071 C1072 1.389 . S
C1072 C1071 1.389 . S
C1072 C1073 1.387 . S
C1073 H1058 0.930 . S
C1073 C1068 1.390 . S
C1073 C1072 1.387 . S
H1074 C1086 0.930 . S
H1075 C1088 0.930 . S
H1076 C1089 0.930 . S
H1077 C1093 0.959 . S
H1078 C1093 0.959 . S
H1079 C1093 0.961 . S
H1080 C1094 0.960 . S
H1081 C1094 0.961 . S
H1082 C1094 0.959 . S
H1083 C1097 0.929 . S
H1084 C1098 0.931 . S
H1085 C1100 0.930 . S
C1086 H1074 0.930 . S
C1086 C1087 1.399 . S
C1086 C1091 1.399 . S
C1087 C1086 1.399 . S
C1087 C1088 1.376 . S
C1088 H1075 0.930 . S
C1088 C1087 1.376 . S
C1088 C1089 1.388 . S
C1089 H1076 0.930 . S
C1089 C1088 1.388 . S
C1089 C1090 1.390 . S
C1090 C1089 1.390 . S
C1090 C1091 1.394 . S
C1090 C1096 1.465 . S
C1091 C1086 1.399 . S
C1091 C1090 1.394 . S
C1091 C1092 1.516 . S
C1092 C1091 1.516 . S
C1092 C1093 1.502 . S
C1092 C1094 1.561 . S
C1092 C1095 1.526 . S
C1093 H1077 0.959 . S
C1093 H1078 0.959 . S
C1093 H1079 0.961 . S
C1093 C1092 1.502 . S
C1094 H1080 0.960 . S
C1094 H1081 0.961 . S
C1094 H1082 0.959 . S
C1094 C1092 1.561 . S
C1095 C1092 1.526 . S
C1095 C1096 1.396 . S
C1095 C1100 1.390 . S
C1096 C1090 1.465 . S
C1096 C1095 1.396 . S
C1096 C1097 1.399 . S
C1097 H1083 0.929 . S
C1097 C1096 1.399 . S
C1097 C1098 1.385 . S
C1098 H1084 0.931 . S
C1098 C1097 1.385 . S
C1098 C1099 1.389 . S
C1099 C1098 1.389 . S
C1099 C1100 1.387 . S
C1100 H1085 0.930 . S
C1100 C1095 1.390 . S
C1100 C1099 1.387 . S
H1101 C1113 0.930 . S
H1102 C1115 0.930 . S
H1103 C1116 0.930 . S
H1104 C1120 0.959 . S
H1105 C1120 0.959 . S
H1106 C1120 0.961 . S
H1107 C1121 0.960 . S
H1108 C1121 0.961 . S
H1109 C1121 0.959 . S
H1110 C1124 0.929 . S
H1111 C1125 0.931 . S
H1112 C1127 0.930 . S
C1113 H1101 0.930 . S
C1113 C1114 1.399 . S
C1113 C1118 1.399 . S
C1114 C1113 1.399 . S
C1114 C1115 1.376 . S
C1115 H1102 0.930 . S
C1115 C1114 1.376 . S
C1115 C1116 1.388 . S
C1116 H1103 0.930 . S
C1116 C1115 1.388 . S
C1116 C1117 1.390 . S
C1117 C1116 1.390 . S
C1117 C1118 1.394 . S
C1117 C1123 1.465 . S
C1118 C1113 1.399 . S
C1118 C1117 1.394 . S
C1118 C1119 1.516 . S
C1119 C1118 1.516 . S
C1119 C1120 1.502 . S
C1119 C1121 1.561 . S
C1119 C1122 1.526 . S
C1120 H1104 0.959 . S
C1120 H1105 0.959 . S
C1120 H1106 0.961 . S
C1120 C1119 1.502 . S
C1121 H1107 0.960 . S
C1121 H1108 0.961 . S
C1121 H1109 0.959 . S
C1121 C1119 1.561 . S
C1122 C1119 1.526 . S
C1122 C1123 1.396 . S
C1122 C1127 1.390 . S
C1123 C1117 1.465 . S
C1123 C1122 1.396 . S
C1123 C1124 1.399 . S
C1124 H1110 0.929 . S
C1124 C1123 1.399 . S
C1124 C1125 1.385 . S
C1125 H1111 0.931 . S
C1125 C1124 1.385 . S
C1125 C1126 1.389 . S
C1126 C1125 1.389 . S
C1126 C1127 1.387 . S
C1127 H1112 0.930 . S
C1127 C1122 1.390 . S
C1127 C1126 1.387 . S
H1128 C1140 0.930 . S
H1129 C1142 0.930 . S
H1130 C1143 0.930 . S
H1131 C1147 0.959 . S
H1132 C1147 0.959 . S
H1133 C1147 0.961 . S
H1134 C1148 0.960 . S
H1135 C1148 0.961 . S
H1136 C1148 0.959 . S
H1137 C1151 0.929 . S
H1138 C1152 0.931 . S
H1139 C1154 0.930 . S
C1140 H1128 0.930 . S
C1140 C1141 1.399 . S
C1140 C1145 1.399 . S
C1141 C1140 1.399 . S
C1141 C1142 1.376 . S
C1142 H1129 0.930 . S
C1142 C1141 1.376 . S
C1142 C1143 1.388 . S
C1143 H1130 0.930 . S
C1143 C1142 1.388 . S
C1143 C1144 1.390 . S
C1144 C1143 1.390 . S
C1144 C1145 1.394 . S
C1144 C1150 1.465 . S
C1145 C1140 1.399 . S
C1145 C1144 1.394 . S
C1145 C1146 1.516 . S
C1146 C1145 1.516 . S
C1146 C1147 1.502 . S
C1146 C1148 1.561 . S
C1146 C1149 1.526 . S
C1147 H1131 0.959 . S
C1147 H1132 0.959 . S
C1147 H1133 0.961 . S
C1147 C1146 1.502 . S
C1148 H1134 0.960 . S
C1148 H1135 0.961 . S
C1148 H1136 0.959 . S
C1148 C1146 1.561 . S
C1149 C1146 1.526 . S
C1149 C1150 1.396 . S
C1149 C1154 1.390 . S
C1150 C1144 1.465 . S
C1150 C1149 1.396 . S
C1150 C1151 1.399 . S
C1151 H1137 0.929 . S
C1151 C1150 1.399 . S
C1151 C1152 1.385 . S
C1152 H1138 0.931 . S
C1152 C1151 1.385 . S
C1152 C1153 1.389 . S
C1153 C1152 1.389 . S
C1153 C1154 1.387 . S
C1154 H1139 0.930 . S
C1154 C1149 1.390 . S
C1154 C1153 1.387 . S
H1155 C1167 0.930 . S
H1156 C1169 0.930 . S
H1157 C1170 0.930 . S
H1158 C1174 0.959 . S
H1159 C1174 0.959 . S
H1160 C1174 0.961 . S
H1161 C1175 0.960 . S
H1162 C1175 0.961 . S
H1163 C1175 0.959 . S
H1164 C1178 0.929 . S
H1165 C1179 0.931 . S
H1166 C1181 0.930 . S
C1167 H1155 0.930 . S
C1167 C1168 1.399 . S
C1167 C1172 1.399 . S
C1168 C1167 1.399 . S
C1168 C1169 1.376 . S
C1169 H1156 0.930 . S
C1169 C1168 1.376 . S
C1169 C1170 1.388 . S
C1170 H1157 0.930 . S
C1170 C1169 1.388 . S
C1170 C1171 1.390 . S
C1171 C1170 1.390 . S
C1171 C1172 1.394 . S
C1171 C1177 1.465 . S
C1172 C1167 1.399 . S
C1172 C1171 1.394 . S
C1172 C1173 1.516 . S
C1173 C1172 1.516 . S
C1173 C1174 1.502 . S
C1173 C1175 1.561 . S
C1173 C1176 1.526 . S
C1174 H1158 0.959 . S
C1174 H1159 0.959 . S
C1174 H1160 0.961 . S
C1174 C1173 1.502 . S
C1175 H1161 0.960 . S
C1175 H1162 0.961 . S
C1175 H1163 0.959 . S
C1175 C1173 1.561 . S
C1176 C1173 1.526 . S
C1176 C1177 1.396 . S
C1176 C1181 1.390 . S
C1177 C1171 1.465 . S
C1177 C1176 1.396 . S
C1177 C1178 1.399 . S
C1178 H1164 0.929 . S
C1178 C1177 1.399 . S
C1178 C1179 1.385 . S
C1179 H1165 0.931 . S
C1179 C1178 1.385 . S
C1179 C1180 1.389 . S
C1180 C1179 1.389 . S
C1180 C1181 1.387 . S
C1181 H1166 0.930 . S
C1181 C1176 1.390 . S
C1181 C1180 1.387 . S
H1182 C1194 0.930 . S
H1183 C1196 0.930 . S
H1184 C1197 0.930 . S
H1185 C1201 0.959 . S
H1186 C1201 0.959 . S
H1187 C1201 0.961 . S
H1188 C1202 0.960 . S
H1189 C1202 0.961 . S
H1190 C1202 0.959 . S
H1191 C1205 0.929 . S
H1192 C1206 0.931 . S
H1193 C1208 0.930 . S
C1194 H1182 0.930 . S
C1194 C1195 1.399 . S
C1194 C1199 1.399 . S
C1195 C1194 1.399 . S
C1195 C1196 1.376 . S
C1196 H1183 0.930 . S
C1196 C1195 1.376 . S
C1196 C1197 1.388 . S
C1197 H1184 0.930 . S
C1197 C1196 1.388 . S
C1197 C1198 1.390 . S
C1198 C1197 1.390 . S
C1198 C1199 1.394 . S
C1198 C1204 1.465 . S
C1199 C1194 1.399 . S
C1199 C1198 1.394 . S
C1199 C1200 1.516 . S
C1200 C1199 1.516 . S
C1200 C1201 1.502 . S
C1200 C1202 1.561 . S
C1200 C1203 1.526 . S
C1201 H1185 0.959 . S
C1201 H1186 0.959 . S
C1201 H1187 0.961 . S
C1201 C1200 1.502 . S
C1202 H1188 0.960 . S
C1202 H1189 0.961 . S
C1202 H1190 0.959 . S
C1202 C1200 1.561 . S
C1203 C1200 1.526 . S
C1203 C1204 1.396 . S
C1203 C1208 1.390 . S
C1204 C1198 1.465 . S
C1204 C1203 1.396 . S
C1204 C1205 1.399 . S
C1205 H1191 0.929 . S
C1205 C1204 1.399 . S
C1205 C1206 1.385 . S
C1206 H1192 0.931 . S
C1206 C1205 1.385 . S
C1206 C1207 1.389 . S
C1207 C1206 1.389 . S
C1207 C1208 1.387 . S
C1208 H1193 0.930 . S
C1208 C1203 1.390 . S
C1208 C1207 1.387 . S
H1209 C1221 0.930 . S
H1210 C1223 0.930 . S
H1211 C1224 0.930 . S
H1212 C1228 0.959 . S
H1213 C1228 0.959 . S
H1214 C1228 0.961 . S
H1215 C1229 0.960 . S
H1216 C1229 0.961 . S
H1217 C1229 0.959 . S
H1218 C1232 0.929 . S
H1219 C1233 0.931 . S
H1220 C1235 0.930 . S
C1221 H1209 0.930 . S
C1221 C1222 1.399 . S
C1221 C1226 1.399 . S
C1222 C1221 1.399 . S
C1222 C1223 1.376 . S
C1223 H1210 0.930 . S
C1223 C1222 1.376 . S
C1223 C1224 1.388 . S
C1224 H1211 0.930 . S
C1224 C1223 1.388 . S
C1224 C1225 1.390 . S
C1225 C1224 1.390 . S
C1225 C1226 1.394 . S
C1225 C1231 1.465 . S
C1226 C1221 1.399 . S
C1226 C1225 1.394 . S
C1226 C1227 1.516 . S
C1227 C1226 1.516 . S
C1227 C1228 1.502 . S
C1227 C1229 1.561 . S
C1227 C1230 1.526 . S
C1228 H1212 0.959 . S
C1228 H1213 0.959 . S
C1228 H1214 0.961 . S
C1228 C1227 1.502 . S
C1229 H1215 0.960 . S
C1229 H1216 0.961 . S
C1229 H1217 0.959 . S
C1229 C1227 1.561 . S
C1230 C1227 1.526 . S
C1230 C1231 1.396 . S
C1230 C1235 1.390 . S
C1231 C1225 1.465 . S
C1231 C1230 1.396 . S
C1231 C1232 1.399 . S
C1232 H1218 0.929 . S
C1232 C1231 1.399 . S
C1232 C1233 1.385 . S
C1233 H1219 0.931 . S
C1233 C1232 1.385 . S
C1233 C1234 1.389 . S
C1234 C1233 1.389 . S
C1234 C1235 1.387 . S
C1235 H1220 0.930 . S
C1235 C1230 1.390 . S
C1235 C1234 1.387 . S
H1236 C1248 0.930 . S
H1237 C1250 0.930 . S
H1238 C1251 0.930 . S
H1239 C1255 0.959 . S
H1240 C1255 0.959 . S
H1241 C1255 0.961 . S
H1242 C1256 0.960 . S
H1243 C1256 0.961 . S
H1244 C1256 0.959 . S
H1245 C1259 0.929 . S
H1246 C1260 0.931 . S
H1247 C1262 0.930 . S
C1248 H1236 0.930 . S
C1248 C1249 1.399 . S
C1248 C1253 1.399 . S
C1249 C1248 1.399 . S
C1249 C1250 1.376 . S
C1250 H1237 0.930 . S
C1250 C1249 1.376 . S
C1250 C1251 1.388 . S
C1251 H1238 0.930 . S
C1251 C1250 1.388 . S
C1251 C1252 1.390 . S
C1252 C1251 1.390 . S
C1252 C1253 1.394 . S
C1252 C1258 1.465 . S
C1253 C1248 1.399 . S
C1253 C1252 1.394 . S
C1253 C1254 1.516 . S
C1254 C1253 1.516 . S
C1254 C1255 1.502 . S
C1254 C1256 1.561 . S
C1254 C1257 1.526 . S
C1255 H1239 0.959 . S
C1255 H1240 0.959 . S
C1255 H1241 0.961 . S
C1255 C1254 1.502 . S
C1256 H1242 0.960 . S
C1256 H1243 0.961 . S
C1256 H1244 0.959 . S
C1256 C1254 1.561 . S
C1257 C1254 1.526 . S
C1257 C1258 1.396 . S
C1257 C1262 1.390 . S
C1258 C1252 1.465 . S
C1258 C1257 1.396 . S
C1258 C1259 1.399 . S
C1259 H1245 0.929 . S
C1259 C1258 1.399 . S
C1259 C1260 1.385 . S
C1260 H1246 0.931 . S
C1260 C1259 1.385 . S
C1260 C1261 1.389 . S
C1261 C1260 1.389 . S
C1261 C1262 1.387 . S
C1262 H1247 0.930 . S
C1262 C1257 1.390 . S
C1262 C1261 1.387 . S
H1263 C1275 0.930 . S
H1264 C1277 0.930 . S
H1265 C1278 0.930 . S
H1266 C1282 0.959 . S
H1267 C1282 0.959 . S
H1268 C1282 0.961 . S
H1269 C1283 0.960 . S
H1270 C1283 0.961 . S
H1271 C1283 0.959 . S
H1272 C1286 0.929 . S
H1273 C1287 0.931 . S
H1274 C1289 0.930 . S
C1275 H1263 0.930 . S
C1275 C1276 1.399 . S
C1275 C1280 1.399 . S
C1276 C1275 1.399 . S
C1276 C1277 1.376 . S
C1277 H1264 0.930 . S
C1277 C1276 1.376 . S
C1277 C1278 1.388 . S
C1278 H1265 0.930 . S
C1278 C1277 1.388 . S
C1278 C1279 1.390 . S
C1279 C1278 1.390 . S
C1279 C1280 1.394 . S
C1279 C1285 1.465 . S
C1280 C1275 1.399 . S
C1280 C1279 1.394 . S
C1280 C1281 1.516 . S
C1281 C1280 1.516 . S
C1281 C1282 1.502 . S
C1281 C1283 1.561 . S
C1281 C1284 1.526 . S
C1282 H1266 0.959 . S
C1282 H1267 0.959 . S
C1282 H1268 0.961 . S
C1282 C1281 1.502 . S
C1283 H1269 0.960 . S
C1283 H1270 0.961 . S
C1283 H1271 0.959 . S
C1283 C1281 1.561 . S
C1284 C1281 1.526 . S
C1284 C1285 1.396 . S
C1284 C1289 1.390 . S
C1285 C1279 1.465 . S
C1285 C1284 1.396 . S
C1285 C1286 1.399 . S
C1286 H1272 0.929 . S
C1286 C1285 1.399 . S
C1286 C1287 1.385 . S
C1287 H1273 0.931 . S
C1287 C1286 1.385 . S
C1287 C1288 1.389 . S
C1288 C1287 1.389 . S
C1288 C1289 1.387 . S
C1289 H1274 0.930 . S
C1289 C1284 1.390 . S
C1289 C1288 1.387 . S
H1290 C1302 0.930 . S
H1291 C1304 0.930 . S
H1292 C1305 0.930 . S
H1293 C1309 0.959 . S
H1294 C1309 0.959 . S
H1295 C1309 0.961 . S
H1296 C1310 0.960 . S
H1297 C1310 0.961 . S
H1298 C1310 0.959 . S
H1299 C1313 0.929 . S
H1300 C1314 0.931 . S
H1301 C1316 0.930 . S
C1302 H1290 0.930 . S
C1302 C1303 1.399 . S
C1302 C1307 1.399 . S
C1303 C1302 1.399 . S
C1303 C1304 1.376 . S
C1304 H1291 0.930 . S
C1304 C1303 1.376 . S
C1304 C1305 1.388 . S
C1305 H1292 0.930 . S
C1305 C1304 1.388 . S
C1305 C1306 1.390 . S
C1306 C1305 1.390 . S
C1306 C1307 1.394 . S
C1306 C1312 1.465 . S
C1307 C1302 1.399 . S
C1307 C1306 1.394 . S
C1307 C1308 1.516 . S
C1308 C1307 1.516 . S
C1308 C1309 1.502 . S
C1308 C1310 1.561 . S
C1308 C1311 1.526 . S
C1309 H1293 0.959 . S
C1309 H1294 0.959 . S
C1309 H1295 0.961 . S
C1309 C1308 1.502 . S
C1310 H1296 0.960 . S
C1310 H1297 0.961 . S
C1310 H1298 0.959 . S
C1310 C1308 1.561 . S
C1311 C1308 1.526 . S
C1311 C1312 1.396 . S
C1311 C1316 1.390 . S
C1312 C1306 1.465 . S
C1312 C1311 1.396 . S
C1312 C1313 1.399 . S
C1313 H1299 0.929 . S
C1313 C1312 1.399 . S
C1313 C1314 1.385 . S
C1314 H1300 0.931 . S
C1314 C1313 1.385 . S
C1314 C1315 1.389 . S
C1315 C1314 1.389 . S
C1315 C1316 1.387 . S
C1316 H1301 0.930 . S
C1316 C1311 1.390 . S
C1316 C1315 1.387 . S
H1317 C1329 0.930 . S
H1318 C1331 0.930 . S
H1319 C1332 0.930 . S
H1320 C1336 0.959 . S
H1321 C1336 0.959 . S
H1322 C1336 0.961 . S
H1323 C1337 0.960 . S
H1324 C1337 0.961 . S
H1325 C1337 0.959 . S
H1326 C1340 0.929 . S
H1327 C1341 0.931 . S
H1328 C1343 0.930 . S
C1329 H1317 0.930 . S
C1329 C1330 1.399 . S
C1329 C1334 1.399 . S
C1330 C1329 1.399 . S
C1330 C1331 1.376 . S
C1331 H1318 0.930 . S
C1331 C1330 1.376 . S
C1331 C1332 1.388 . S
C1332 H1319 0.930 . S
C1332 C1331 1.388 . S
C1332 C1333 1.390 . S
C1333 C1332 1.390 . S
C1333 C1334 1.394 . S
C1333 C1339 1.465 . S
C1334 C1329 1.399 . S
C1334 C1333 1.394 . S
C1334 C1335 1.516 . S
C1335 C1334 1.516 . S
C1335 C1336 1.502 . S
C1335 C1337 1.561 . S
C1335 C1338 1.526 . S
C1336 H1320 0.959 . S
C1336 H1321 0.959 . S
C1336 H1322 0.961 . S
C1336 C1335 1.502 . S
C1337 H1323 0.960 . S
C1337 H1324 0.961 . S
C1337 H1325 0.959 . S
C1337 C1335 1.561 . S
C1338 C1335 1.526 . S
C1338 C1339 1.396 . S
C1338 C1343 1.390 . S
C1339 C1333 1.465 . S
C1339 C1338 1.396 . S
C1339 C1340 1.399 . S
C1340 H1326 0.929 . S
C1340 C1339 1.399 . S
C1340 C1341 1.385 . S
C1341 H1327 0.931 . S
C1341 C1340 1.385 . S
C1341 C1342 1.389 . S
C1342 C1341 1.389 . S
C1342 C1343 1.387 . S
C1343 H1328 0.930 . S
C1343 C1338 1.390 . S
C1343 C1342 1.387 . S
H1344 C1356 0.930 . S
H1345 C1358 0.930 . S
H1346 C1359 0.930 . S
H1347 C1363 0.959 . S
H1348 C1363 0.959 . S
H1349 C1363 0.961 . S
H1350 C1364 0.960 . S
H1351 C1364 0.961 . S
H1352 C1364 0.959 . S
H1353 C1367 0.929 . S
H1354 C1368 0.931 . S
H1355 C1370 0.930 . S
C1356 H1344 0.930 . S
C1356 C1357 1.399 . S
C1356 C1361 1.399 . S
C1357 C1356 1.399 . S
C1357 C1358 1.376 . S
C1358 H1345 0.930 . S
C1358 C1357 1.376 . S
C1358 C1359 1.388 . S
C1359 H1346 0.930 . S
C1359 C1358 1.388 . S
C1359 C1360 1.390 . S
C1360 C1359 1.390 . S
C1360 C1361 1.394 . S
C1360 C1366 1.465 . S
C1361 C1356 1.399 . S
C1361 C1360 1.394 . S
C1361 C1362 1.516 . S
C1362 C1361 1.516 . S
C1362 C1363 1.502 . S
C1362 C1364 1.561 . S
C1362 C1365 1.526 . S
C1363 H1347 0.959 . S
C1363 H1348 0.959 . S
C1363 H1349 0.961 . S
C1363 C1362 1.502 . S
C1364 H1350 0.960 . S
C1364 H1351 0.961 . S
C1364 H1352 0.959 . S
C1364 C1362 1.561 . S
C1365 C1362 1.526 . S
C1365 C1366 1.396 . S
C1365 C1370 1.390 . S
C1366 C1360 1.465 . S
C1366 C1365 1.396 . S
C1366 C1367 1.399 . S
C1367 H1353 0.929 . S
C1367 C1366 1.399 . S
C1367 C1368 1.385 . S
C1368 H1354 0.931 . S
C1368 C1367 1.385 . S
C1368 C1369 1.389 . S
C1369 C1368 1.389 . S
C1369 C1370 1.387 . S
C1370 H1355 0.930 . S
C1370 C1365 1.390 . S
C1370 C1369 1.387 . S
H1371 C1383 0.930 . S
H1372 C1385 0.930 . S
H1373 C1386 0.930 . S
H1374 C1390 0.959 . S
H1375 C1390 0.959 . S
H1376 C1390 0.961 . S
H1377 C1391 0.960 . S
H1378 C1391 0.961 . S
H1379 C1391 0.959 . S
H1380 C1394 0.929 . S
H1381 C1395 0.931 . S
H1382 C1397 0.930 . S
C1383 H1371 0.930 . S
C1383 C1384 1.399 . S
C1383 C1388 1.399 . S
C1384 C1383 1.399 . S
C1384 C1385 1.376 . S
C1385 H1372 0.930 . S
C1385 C1384 1.376 . S
C1385 C1386 1.388 . S
C1386 H1373 0.930 . S
C1386 C1385 1.388 . S
C1386 C1387 1.390 . S
C1387 C1386 1.390 . S
C1387 C1388 1.394 . S
C1387 C1393 1.465 . S
C1388 C1383 1.399 . S
C1388 C1387 1.394 . S
C1388 C1389 1.516 . S
C1389 C1388 1.516 . S
C1389 C1390 1.502 . S
C1389 C1391 1.561 . S
C1389 C1392 1.526 . S
C1390 H1374 0.959 . S
C1390 H1375 0.959 . S
C1390 H1376 0.961 . S
C1390 C1389 1.502 . S
C1391 H1377 0.960 . S
C1391 H1378 0.961 . S
C1391 H1379 0.959 . S
C1391 C1389 1.561 . S
C1392 C1389 1.526 . S
C1392 C1393 1.396 . S
C1392 C1397 1.390 . S
C1393 C1387 1.465 . S
C1393 C1392 1.396 . S
C1393 C1394 1.399 . S
C1394 H1380 0.929 . S
C1394 C1393 1.399 . S
C1394 C1395 1.385 . S
C1395 H1381 0.931 . S
C1395 C1394 1.385 . S
C1395 C1396 1.389 . S
C1396 C1395 1.389 . S
C1396 C1397 1.387 . S
C1397 H1382 0.930 . S
C1397 C1392 1.390 . S
C1397 C1396 1.387 . S
H1398 C1410 0.930 . S
H1399 C1412 0.930 . S
H1400 C1413 0.930 . S
H1401 C1417 0.959 . S
H1402 C1417 0.959 . S
H1403 C1417 0.961 . S
H1404 C1418 0.960 . S
H1405 C1418 0.961 . S
H1406 C1418 0.959 . S
H1407 C1421 0.929 . S
H1408 C1422 0.931 . S
H1409 C1424 0.930 . S
C1410 H1398 0.930 . S
C1410 C1411 1.399 . S
C1410 C1415 1.399 . S
C1411 C1410 1.399 . S
C1411 C1412 1.376 . S
C1412 H1399 0.930 . S
C1412 C1411 1.376 . S
C1412 C1413 1.388 . S
C1413 H1400 0.930 . S
C1413 C1412 1.388 . S
C1413 C1414 1.390 . S
C1414 C1413 1.390 . S
C1414 C1415 1.394 . S
C1414 C1420 1.465 . S
C1415 C1410 1.399 . S
C1415 C1414 1.394 . S
C1415 C1416 1.516 . S
C1416 C1415 1.516 . S
C1416 C1417 1.502 . S
C1416 C1418 1.561 . S
C1416 C1419 1.526 . S
C1417 H1401 0.959 . S
C1417 H1402 0.959 . S
C1417 H1403 0.961 . S
C1417 C1416 1.502 . S
C1418 H1404 0.960 . S
C1418 H1405 0.961 . S
C1418 H1406 0.959 . S
C1418 C1416 1.561 . S
C1419 C1416 1.526 . S
C1419 C1420 1.396 . S
C1419 C1424 1.390 . S
C1420 C1414 1.465 . S
C1420 C1419 1.396 . S
C1420 C1421 1.399 . S
C1421 H1407 0.929 . S
C1421 C1420 1.399 . S
C1421 C1422 1.385 . S
C1422 H1408 0.931 . S
C1422 C1421 1.385 . S
C1422 C1423 1.389 . S
C1423 C1422 1.389 . S
C1423 C1424 1.387 . S
C1424 H1409 0.930 . S
C1424 C1419 1.390 . S
C1424 C1423 1.387 . S
H1425 C1437 0.930 . S
H1426 C1439 0.930 . S
H1427 C1440 0.930 . S
H1428 C1444 0.959 . S
H1429 C1444 0.959 . S
H1430 C1444 0.961 . S
H1431 C1445 0.960 . S
H1432 C1445 0.961 . S
H1433 C1445 0.959 . S
H1434 C1448 0.929 . S
H1435 C1449 0.931 . S
H1436 C1451 0.930 . S
C1437 H1425 0.930 . S
C1437 C1438 1.399 . S
C1437 C1442 1.399 . S
C1438 C1437 1.399 . S
C1438 C1439 1.376 . S
C1439 H1426 0.930 . S
C1439 C1438 1.376 . S
C1439 C1440 1.388 . S
C1440 H1427 0.930 . S
C1440 C1439 1.388 . S
C1440 C1441 1.390 . S
C1441 C1440 1.390 . S
C1441 C1442 1.394 . S
C1441 C1447 1.465 . S
C1442 C1437 1.399 . S
C1442 C1441 1.394 . S
C1442 C1443 1.516 . S
C1443 C1442 1.516 . S
C1443 C1444 1.502 . S
C1443 C1445 1.561 . S
C1443 C1446 1.526 . S
C1444 H1428 0.959 . S
C1444 H1429 0.959 . S
C1444 H1430 0.961 . S
C1444 C1443 1.502 . S
C1445 H1431 0.960 . S
C1445 H1432 0.961 . S
C1445 H1433 0.959 . S
C1445 C1443 1.561 . S
C1446 C1443 1.526 . S
C1446 C1447 1.396 . S
C1446 C1451 1.390 . S
C1447 C1441 1.465 . S
C1447 C1446 1.396 . S
C1447 C1448 1.399 . S
C1448 H1434 0.929 . S
C1448 C1447 1.399 . S
C1448 C1449 1.385 . S
C1449 H1435 0.931 . S
C1449 C1448 1.385 . S
C1449 C1450 1.389 . S
C1450 C1449 1.389 . S
C1450 C1451 1.387 . S
C1451 H1436 0.930 . S
C1451 C1446 1.390 . S
C1451 C1450 1.387 . S
H1452 C1464 0.930 . S
H1453 C1466 0.930 . S
H1454 C1467 0.930 . S
H1455 C1471 0.959 . S
H1456 C1471 0.959 . S
H1457 C1471 0.961 . S
H1458 C1472 0.960 . S
H1459 C1472 0.961 . S
H1460 C1472 0.959 . S
H1461 C1475 0.929 . S
H1462 C1476 0.931 . S
H1463 C1478 0.930 . S
C1464 H1452 0.930 . S
C1464 C1465 1.399 . S
C1464 C1469 1.399 . S
C1465 C1464 1.399 . S
C1465 C1466 1.376 . S
C1466 H1453 0.930 . S
C1466 C1465 1.376 . S
C1466 C1467 1.388 . S
C1467 H1454 0.930 . S
C1467 C1466 1.388 . S
C1467 C1468 1.390 . S
C1468 C1467 1.390 . S
C1468 C1469 1.394 . S
C1468 C1474 1.465 . S
C1469 C1464 1.399 . S
C1469 C1468 1.394 . S
C1469 C1470 1.516 . S
C1470 C1469 1.516 . S
C1470 C1471 1.502 . S
C1470 C1472 1.561 . S
C1470 C1473 1.526 . S
C1471 H1455 0.959 . S
C1471 H1456 0.959 . S
C1471 H1457 0.961 . S
C1471 C1470 1.502 . S
C1472 H1458 0.960 . S
C1472 H1459 0.961 . S
C1472 H1460 0.959 . S
C1472 C1470 1.561 . S
C1473 C1470 1.526 . S
C1473 C1474 1.396 . S
C1473 C1478 1.390 . S
C1474 C1468 1.465 . S
C1474 C1473 1.396 . S
C1474 C1475 1.399 . S
C1475 H1461 0.929 . S
C1475 C1474 1.399 . S
C1475 C1476 1.385 . S
C1476 H1462 0.931 . S
C1476 C1475 1.385 . S
C1476 C1477 1.389 . S
C1477 C1476 1.389 . S
C1477 C1478 1.387 . S
C1478 H1463 0.930 . S
C1478 C1473 1.390 . S
C1478 C1477 1.387 . S
H1479 C1491 0.930 . S
H1480 C1493 0.930 . S
H1481 C1494 0.930 . S
H1482 C1498 0.959 . S
H1483 C1498 0.959 . S
H1484 C1498 0.961 . S
H1485 C1499 0.960 . S
H1486 C1499 0.961 . S
H1487 C1499 0.959 . S
H1488 C1502 0.929 . S
H1489 C1503 0.931 . S
H1490 C1505 0.930 . S
C1491 H1479 0.930 . S
C1491 C1492 1.399 . S
C1491 C1496 1.399 . S
C1492 C1491 1.399 . S
C1492 C1493 1.376 . S
C1493 H1480 0.930 . S
C1493 C1492 1.376 . S
C1493 C1494 1.388 . S
C1494 H1481 0.930 . S
C1494 C1493 1.388 . S
C1494 C1495 1.390 . S
C1495 C1494 1.390 . S
C1495 C1496 1.394 . S
C1495 C1501 1.465 . S
C1496 C1491 1.399 . S
C1496 C1495 1.394 . S
C1496 C1497 1.516 . S
C1497 C1496 1.516 . S
C1497 C1498 1.502 . S
C1497 C1499 1.561 . S
C1497 C1500 1.526 . S
C1498 H1482 0.959 . S
C1498 H1483 0.959 . S
C1498 H1484 0.961 . S
C1498 C1497 1.502 . S
C1499 H1485 0.960 . S
C1499 H1486 0.961 . S
C1499 H1487 0.959 . S
C1499 C1497 1.561 . S
C1500 C1497 1.526 . S
C1500 C1501 1.396 . S
C1500 C1505 1.390 . S
C1501 C1495 1.465 . S
C1501 C1500 1.396 . S
C1501 C1502 1.399 . S
C1502 H1488 0.929 . S
C1502 C1501 1.399 . S
C1502 C1503 1.385 . S
C1503 H1489 0.931 . S
C1503 C1502 1.385 . S
C1503 C1504 1.389 . S
C1504 C1503 1.389 . S
C1504 C1505 1.387 . S
C1505 H1490 0.930 . S
C1505 C1500 1.390 . S
C1505 C1504 1.387 . S
H1506 C1518 0.930 . S
H1507 C1520 0.930 . S
H1508 C1521 0.930 . S
H1509 C1525 0.959 . S
H1510 C1525 0.959 . S
H1511 C1525 0.961 . S
H1512 C1526 0.960 . S
H1513 C1526 0.961 . S
H1514 C1526 0.959 . S
H1515 C1529 0.929 . S
H1516 C1530 0.931 . S
H1517 C1532 0.930 . S
C1518 H1506 0.930 . S
C1518 C1519 1.399 . S
C1518 C1523 1.399 . S
C1519 C1518 1.399 . S
C1519 C1520 1.376 . S
C1520 H1507 0.930 . S
C1520 C1519 1.376 . S
C1520 C1521 1.388 . S
C1521 H1508 0.930 . S
C1521 C1520 1.388 . S
C1521 C1522 1.390 . S
C1522 C1521 1.390 . S
C1522 C1523 1.394 . S
C1522 C1528 1.465 . S
C1523 C1518 1.399 . S
C1523 C1522 1.394 . S
C1523 C1524 1.516 . S
C1524 C1523 1.516 . S
C1524 C1525 1.502 . S
C1524 C1526 1.561 . S
C1524 C1527 1.526 . S
C1525 H1509 0.959 . S
C1525 H1510 0.959 . S
C1525 H1511 0.961 . S
C1525 C1524 1.502 . S
C1526 H1512 0.960 . S
C1526 H1513 0.961 . S
C1526 H1514 0.959 . S
C1526 C1524 1.561 . S
C1527 C1524 1.526 . S
C1527 C1528 1.396 . S
C1527 C1532 1.390 . S
C1528 C1522 1.465 . S
C1528 C1527 1.396 . S
C1528 C1529 1.399 . S
C1529 H1515 0.929 . S
C1529 C1528 1.399 . S
C1529 C1530 1.385 . S
C1530 H1516 0.931 . S
C1530 C1529 1.385 . S
C1530 C1531 1.389 . S
C1531 C1530 1.389 . S
C1531 C1532 1.387 . S
C1532 H1517 0.930 . S
C1532 C1527 1.390 . S
C1532 C1531 1.387 . S
H1533 C1545 0.930 . S
H1534 C1547 0.930 . S
H1535 C1548 0.930 . S
H1536 C1552 0.959 . S
H1537 C1552 0.959 . S
H1538 C1552 0.961 . S
H1539 C1553 0.960 . S
H1540 C1553 0.961 . S
H1541 C1553 0.959 . S
H1542 C1556 0.929 . S
H1543 C1557 0.931 . S
H1544 C1559 0.930 . S
C1545 H1533 0.930 . S
C1545 C1546 1.399 . S
C1545 C1550 1.399 . S
C1546 C1545 1.399 . S
C1546 C1547 1.376 . S
C1547 H1534 0.930 . S
C1547 C1546 1.376 . S
C1547 C1548 1.388 . S
C1548 H1535 0.930 . S
C1548 C1547 1.388 . S
C1548 C1549 1.390 . S
C1549 C1548 1.390 . S
C1549 C1550 1.394 . S
C1549 C1555 1.465 . S
C1550 C1545 1.399 . S
C1550 C1549 1.394 . S
C1550 C1551 1.516 . S
C1551 C1550 1.516 . S
C1551 C1552 1.502 . S
C1551 C1553 1.561 . S
C1551 C1554 1.526 . S
C1552 H1536 0.959 . S
C1552 H1537 0.959 . S
C1552 H1538 0.961 . S
C1552 C1551 1.502 . S
C1553 H1539 0.960 . S
C1553 H1540 0.961 . S
C1553 H1541 0.959 . S
C1553 C1551 1.561 . S
C1554 C1551 1.526 . S
C1554 C1555 1.396 . S
C1554 C1559 1.390 . S
C1555 C1549 1.465 . S
C1555 C1554 1.396 . S
C1555 C1556 1.399 . S
C1556 H1542 0.929 . S
C1556 C1555 1.399 . S
C1556 C1557 1.385 . S
C1557 H1543 0.931 . S
C1557 C1556 1.385 . S
C1557 C1558 1.389 . S
C1558 C1557 1.389 . S
C1558 C1559 1.387 . S
C1559 H1544 0.930 . S
C1559 C1554 1.390 . S
C1559 C1558 1.387 . S
H1560 C1572 0.930 . S
H1561 C1574 0.930 . S
H1562 C1575 0.930 . S
H1563 C1579 0.959 . S
H1564 C1579 0.959 . S
H1565 C1579 0.961 . S
H1566 C1580 0.960 . S
H1567 C1580 0.961 . S
H1568 C1580 0.959 . S
H1569 C1583 0.929 . S
H1570 C1584 0.931 . S
H1571 C1586 0.930 . S
C1572 H1560 0.930 . S
C1572 C1573 1.399 . S
C1572 C1577 1.399 . S
C1573 C1572 1.399 . S
C1573 C1574 1.376 . S
C1574 H1561 0.930 . S
C1574 C1573 1.376 . S
C1574 C1575 1.388 . S
C1575 H1562 0.930 . S
C1575 C1574 1.388 . S
C1575 C1576 1.390 . S
C1576 C1575 1.390 . S
C1576 C1577 1.394 . S
C1576 C1582 1.465 . S
C1577 C1572 1.399 . S
C1577 C1576 1.394 . S
C1577 C1578 1.516 . S
C1578 C1577 1.516 . S
C1578 C1579 1.502 . S
C1578 C1580 1.561 . S
C1578 C1581 1.526 . S
C1579 H1563 0.959 . S
C1579 H1564 0.959 . S
C1579 H1565 0.961 . S
C1579 C1578 1.502 . S
C1580 H1566 0.960 . S
C1580 H1567 0.961 . S
C1580 H1568 0.959 . S
C1580 C1578 1.561 . S
C1581 C1578 1.526 . S
C1581 C1582 1.396 . S
C1581 C1586 1.390 . S
C1582 C1576 1.465 . S
C1582 C1581 1.396 . S
C1582 C1583 1.399 . S
C1583 H1569 0.929 . S
C1583 C1582 1.399 . S
C1583 C1584 1.385 . S
C1584 H1570 0.931 . S
C1584 C1583 1.385 . S
C1584 C1585 1.389 . S
C1585 C1584 1.389 . S
C1585 C1586 1.387 . S
C1586 H1571 0.930 . S
C1586 C1581 1.390 . S
C1586 C1585 1.387 . S
H1587 C1599 0.930 . S
H1588 C1601 0.930 . S
H1589 C1602 0.930 . S
H1590 C1606 0.959 . S
H1591 C1606 0.959 . S
H1592 C1606 0.961 . S
H1593 C1607 0.960 . S
H1594 C1607 0.961 . S
H1595 C1607 0.959 . S
H1596 C1610 0.929 . S
H1597 C1611 0.931 . S
H1598 C1613 0.930 . S
C1599 H1587 0.930 . S
C1599 C1600 1.399 . S
C1599 C1604 1.399 . S
C1600 C1599 1.399 . S
C1600 C1601 1.376 . S
C1601 H1588 0.930 . S
C1601 C1600 1.376 . S
C1601 C1602 1.388 . S
C1602 H1589 0.930 . S
C1602 C1601 1.388 . S
C1602 C1603 1.390 . S
C1603 C1602 1.390 . S
C1603 C1604 1.394 . S
C1603 C1609 1.465 . S
C1604 C1599 1.399 . S
C1604 C1603 1.394 . S
C1604 C1605 1.516 . S
C1605 C1604 1.516 . S
C1605 C1606 1.502 . S
C1605 C1607 1.561 . S
C1605 C1608 1.526 . S
C1606 H1590 0.959 . S
C1606 H1591 0.959 . S
C1606 H1592 0.961 . S
C1606 C1605 1.502 . S
C1607 H1593 0.960 . S
C1607 H1594 0.961 . S
C1607 H1595 0.959 . S
C1607 C1605 1.561 . S
C1608 C1605 1.526 . S
C1608 C1609 1.396 . S
C1608 C1613 1.390 . S
C1609 C1603 1.465 . S
C1609 C1608 1.396 . S
C1609 C1610 1.399 . S
C1610 H1596 0.929 . S
C1610 C1609 1.399 . S
C1610 C1611 1.385 . S
C1611 H1597 0.931 . S
C1611 C1610 1.385 . S
C1611 C1612 1.389 . S
C1612 C1611 1.389 . S
C1612 C1613 1.387 . S
C1613 H1598 0.930 . S
C1613 C1608 1.390 . S
C1613 C1612 1.387 . S
H1614 C1626 0.930 . S
H1615 C1628 0.930 . S
H1616 C1629 0.930 . S
H1617 C1633 0.959 . S
H1618 C1633 0.959 . S
H1619 C1633 0.961 . S
H1620 C1634 0.960 . S
H1621 C1634 0.961 . S
H1622 C1634 0.959 . S
H1623 C1637 0.929 . S
H1624 C1638 0.931 . S
H1625 C1640 0.930 . S
C1626 H1614 0.930 . S
C1626 C1627 1.399 . S
C1626 C1631 1.399 . S
C1627 C1626 1.399 . S
C1627 C1628 1.376 . S
C1628 H1615 0.930 . S
C1628 C1627 1.376 . S
C1628 C1629 1.388 . S
C1629 H1616 0.930 . S
C1629 C1628 1.388 . S
C1629 C1630 1.390 . S
C1630 C1629 1.390 . S
C1630 C1631 1.394 . S
C1630 C1636 1.465 . S
C1631 C1626 1.399 . S
C1631 C1630 1.394 . S
C1631 C1632 1.516 . S
C1632 C1631 1.516 . S
C1632 C1633 1.502 . S
C1632 C1634 1.561 . S
C1632 C1635 1.526 . S
C1633 H1617 0.959 . S
C1633 H1618 0.959 . S
C1633 H1619 0.961 . S
C1633 C1632 1.502 . S
C1634 H1620 0.960 . S
C1634 H1621 0.961 . S
C1634 H1622 0.959 . S
C1634 C1632 1.561 . S
C1635 C1632 1.526 . S
C1635 C1636 1.396 . S
C1635 C1640 1.390 . S
C1636 C1630 1.465 . S
C1636 C1635 1.396 . S
C1636 C1637 1.399 . S
C1637 H1623 0.929 . S
C1637 C1636 1.399 . S
C1637 C1638 1.385 . S
C1638 H1624 0.931 . S
C1638 C1637 1.385 . S
C1638 C1639 1.389 . S
C1639 C1638 1.389 . S
C1639 C1640 1.387 . S
C1640 H1625 0.930 . S
C1640 C1635 1.390 . S
C1640 C1639 1.387 . S
H1641 C1653 0.930 . S
H1642 C1655 0.930 . S
H1643 C1656 0.930 . S
H1644 C1660 0.959 . S
H1645 C1660 0.959 . S
H1646 C1660 0.961 . S
H1647 C1661 0.960 . S
H1648 C1661 0.961 . S
H1649 C1661 0.959 . S
H1650 C1664 0.929 . S
H1651 C1665 0.931 . S
H1652 C1667 0.930 . S
C1653 H1641 0.930 . S
C1653 C1654 1.399 . S
C1653 C1658 1.399 . S
C1654 C1653 1.399 . S
C1654 C1655 1.376 . S
C1655 H1642 0.930 . S
C1655 C1654 1.376 . S
C1655 C1656 1.388 . S
C1656 H1643 0.930 . S
C1656 C1655 1.388 . S
C1656 C1657 1.390 . S
C1657 C1656 1.390 . S
C1657 C1658 1.394 . S
C1657 C1663 1.465 . S
C1658 C1653 1.399 . S
C1658 C1657 1.394 . S
C1658 C1659 1.516 . S
C1659 C1658 1.516 . S
C1659 C1660 1.502 . S
C1659 C1661 1.561 . S
C1659 C1662 1.526 . S
C1660 H1644 0.959 . S
C1660 H1645 0.959 . S
C1660 H1646 0.961 . S
C1660 C1659 1.502 . S
C1661 H1647 0.960 . S
C1661 H1648 0.961 . S
C1661 H1649 0.959 . S
C1661 C1659 1.561 . S
C1662 C1659 1.526 . S
C1662 C1663 1.396 . S
C1662 C1667 1.390 . S
C1663 C1657 1.465 . S
C1663 C1662 1.396 . S
C1663 C1664 1.399 . S
C1664 H1650 0.929 . S
C1664 C1663 1.399 . S
C1664 C1665 1.385 . S
C1665 H1651 0.931 . S
C1665 C1664 1.385 . S
C1665 C1666 1.389 . S
C1666 C1665 1.389 . S
C1666 C1667 1.387 . S
C1667 H1652 0.930 . S
C1667 C1662 1.390 . S
C1667 C1666 1.387 . S
H1668 C1680 0.930 . S
H1669 C1682 0.930 . S
H1670 C1683 0.930 . S
H1671 C1687 0.959 . S
H1672 C1687 0.959 . S
H1673 C1687 0.961 . S
H1674 C1688 0.960 . S
H1675 C1688 0.961 . S
H1676 C1688 0.959 . S
H1677 C1691 0.929 . S
H1678 C1692 0.931 . S
H1679 C1694 0.930 . S
C1680 H1668 0.930 . S
C1680 C1681 1.399 . S
C1680 C1685 1.399 . S
C1681 C1680 1.399 . S
C1681 C1682 1.376 . S
C1682 H1669 0.930 . S
C1682 C1681 1.376 . S
C1682 C1683 1.388 . S
C1683 H1670 0.930 . S
C1683 C1682 1.388 . S
C1683 C1684 1.390 . S
C1684 C1683 1.390 . S
C1684 C1685 1.394 . S
C1684 C1690 1.465 . S
C1685 C1680 1.399 . S
C1685 C1684 1.394 . S
C1685 C1686 1.516 . S
C1686 C1685 1.516 . S
C1686 C1687 1.502 . S
C1686 C1688 1.561 . S
C1686 C1689 1.526 . S
C1687 H1671 0.959 . S
C1687 H1672 0.959 . S
C1687 H1673 0.961 . S
C1687 C1686 1.502 . S
C1688 H1674 0.960 . S
C1688 H1675 0.961 . S
C1688 H1676 0.959 . S
C1688 C1686 1.561 . S
C1689 C1686 1.526 . S
C1689 C1690 1.396 . S
C1689 C1694 1.390 . S
C1690 C1684 1.465 . S
C1690 C1689 1.396 . S
C1690 C1691 1.399 . S
C1691 H1677 0.929 . S
C1691 C1690 1.399 . S
C1691 C1692 1.385 . S
C1692 H1678 0.931 . S
C1692 C1691 1.385 . S
C1692 C1693 1.389 . S
C1693 C1692 1.389 . S
C1693 C1694 1.387 . S
C1694 H1679 0.930 . S
C1694 C1689 1.390 . S
C1694 C1693 1.387 . S
H1695 C1707 0.930 . S
H1696 C1709 0.930 . S
H1697 C1710 0.930 . S
H1698 C1714 0.959 . S
H1699 C1714 0.959 . S
H1700 C1714 0.961 . S
H1701 C1715 0.960 . S
H1702 C1715 0.961 . S
H1703 C1715 0.959 . S
H1704 C1718 0.929 . S
H1705 C1719 0.931 . S
H1706 C1721 0.930 . S
C1707 H1695 0.930 . S
C1707 C1708 1.399 . S
C1707 C1712 1.399 . S
C1708 C1707 1.399 . S
C1708 C1709 1.376 . S
C1709 H1696 0.930 . S
C1709 C1708 1.376 . S
C1709 C1710 1.388 . S
C1710 H1697 0.930 . S
C1710 C1709 1.388 . S
C1710 C1711 1.390 . S
C1711 C1710 1.390 . S
C1711 C1712 1.394 . S
C1711 C1717 1.465 . S
C1712 C1707 1.399 . S
C1712 C1711 1.394 . S
C1712 C1713 1.516 . S
C1713 C1712 1.516 . S
C1713 C1714 1.502 . S
C1713 C1715 1.561 . S
C1713 C1716 1.526 . S
C1714 H1698 0.959 . S
C1714 H1699 0.959 . S
C1714 H1700 0.961 . S
C1714 C1713 1.502 . S
C1715 H1701 0.960 . S
C1715 H1702 0.961 . S
C1715 H1703 0.959 . S
C1715 C1713 1.561 . S
C1716 C1713 1.526 . S
C1716 C1717 1.396 . S
C1716 C1721 1.390 . S
C1717 C1711 1.465 . S
C1717 C1716 1.396 . S
C1717 C1718 1.399 . S
C1718 H1704 0.929 . S
C1718 C1717 1.399 . S
C1718 C1719 1.385 . S
C1719 H1705 0.931 . S
C1719 C1718 1.385 . S
C1719 C1720 1.389 . S
C1720 C1719 1.389 . S
C1720 C1721 1.387 . S
C1721 H1706 0.930 . S
C1721 C1716 1.390 . S
C1721 C1720 1.387 . S
H1722 C1734 0.930 . S
H1723 C1736 0.930 . S
H1724 C1737 0.930 . S
H1725 C1741 0.959 . S
H1726 C1741 0.959 . S
H1727 C1741 0.961 . S
H1728 C1742 0.960 . S
H1729 C1742 0.961 . S
H1730 C1742 0.959 . S
H1731 C1745 0.929 . S
H1732 C1746 0.931 . S
H1733 C1748 0.930 . S
C1734 H1722 0.930 . S
C1734 C1735 1.399 . S
C1734 C1739 1.399 . S
C1735 C1734 1.399 . S
C1735 C1736 1.376 . S
C1736 H1723 0.930 . S
C1736 C1735 1.376 . S
C1736 C1737 1.388 . S
C1737 H1724 0.930 . S
C1737 C1736 1.388 . S
C1737 C1738 1.390 . S
C1738 C1737 1.390 . S
C1738 C1739 1.394 . S
C1738 C1744 1.465 . S
C1739 C1734 1.399 . S
C1739 C1738 1.394 . S
C1739 C1740 1.516 . S
C1740 C1739 1.516 . S
C1740 C1741 1.502 . S
C1740 C1742 1.561 . S
C1740 C1743 1.526 . S
C1741 H1725 0.959 . S
C1741 H1726 0.959 . S
C1741 H1727 0.961 . S
C1741 C1740 1.502 . S
C1742 H1728 0.960 . S
C1742 H1729 0.961 . S
C1742 H1730 0.959 . S
C1742 C1740 1.561 . S
C1743 C1740 1.526 . S
C1743 C1744 1.396 . S
C1743 C1748 1.390 . S
C1744 C1738 1.465 . S
C1744 C1743 1.396 . S
C1744 C1745 1.399 . S
C1745 H1731 0.929 . S
C1745 C1744 1.399 . S
C1745 C1746 1.385 . S
C1746 H1732 0.931 . S
C1746 C1745 1.385 . S
C1746 C1747 1.389 . S
C1747 C1746 1.389 . S
C1747 C1748 1.387 . S
C1748 H1733 0.930 . S
C1748 C1743 1.390 . S
C1748 C1747 1.387 . S
H1749 C1761 0.930 . S
H1750 C1763 0.930 . S
H1751 C1764 0.930 . S
H1752 C1768 0.959 . S
H1753 C1768 0.959 . S
H1754 C1768 0.961 . S
H1755 C1769 0.960 . S
H1756 C1769 0.961 . S
H1757 C1769 0.959 . S
H1758 C1772 0.929 . S
H1759 C1773 0.931 . S
H1760 C1775 0.930 . S
C1761 H1749 0.930 . S
C1761 C1762 1.399 . S
C1761 C1766 1.399 . S
C1762 C1761 1.399 . S
C1762 C1763 1.376 . S
C1763 H1750 0.930 . S
C1763 C1762 1.376 . S
C1763 C1764 1.388 . S
C1764 H1751 0.930 . S
C1764 C1763 1.388 . S
C1764 C1765 1.390 . S
C1765 C1764 1.390 . S
C1765 C1766 1.394 . S
C1765 C1771 1.465 . S
C1766 C1761 1.399 . S
C1766 C1765 1.394 . S
C1766 C1767 1.516 . S
C1767 C1766 1.516 . S
C1767 C1768 1.502 . S
C1767 C1769 1.561 . S
C1767 C1770 1.526 . S
C1768 H1752 0.959 . S
C1768 H1753 0.959 . S
C1768 H1754 0.961 . S
C1768 C1767 1.502 . S
C1769 H1755 0.960 . S
C1769 H1756 0.961 . S
C1769 H1757 0.959 . S
C1769 C1767 1.561 . S
C1770 C1767 1.526 . S
C1770 C1771 1.396 . S
C1770 C1775 1.390 . S
C1771 C1765 1.465 . S
C1771 C1770 1.396 . S
C1771 C1772 1.399 . S
C1772 H1758 0.929 . S
C1772 C1771 1.399 . S
C1772 C1773 1.385 . S
C1773 H1759 0.931 . S
C1773 C1772 1.385 . S
C1773 C1774 1.389 . S
C1774 C1773 1.389 . S
C1774 C1775 1.387 . S
C1775 H1760 0.930 . S
C1775 C1770 1.390 . S
C1775 C1774 1.387 . S
H1776 C1788 0.930 . S
H1777 C1790 0.930 . S
H1778 C1791 0.930 . S
H1779 C1795 0.959 . S
H1780 C1795 0.959 . S
H1781 C1795 0.961 . S
H1782 C1796 0.960 . S
H1783 C1796 0.961 . S
H1784 C1796 0.959 . S
H1785 C1799 0.929 . S
H1786 C1800 0.931 . S
H1787 C1802 0.930 . S
C1788 H1776 0.930 . S
C1788 C1789 1.399 . S
C1788 C1793 1.399 . S
C1789 C1788 1.399 . S
C1789 C1790 1.376 . S
C1790 H1777 0.930 . S
C1790 C1789 1.376 . S
C1790 C1791 1.388 . S
C1791 H1778 0.930 . S
C1791 C1790 1.388 . S
C1791 C1792 1.390 . S
C1792 C1791 1.390 . S
C1792 C1793 1.394 . S
C1792 C1798 1.465 . S
C1793 C1788 1.399 . S
C1793 C1792 1.394 . S
C1793 C1794 1.516 . S
C1794 C1793 1.516 . S
C1794 C1795 1.502 . S
C1794 C1796 1.561 . S
C1794 C1797 1.526 . S
C1795 H1779 0.959 . S
C1795 H1780 0.959 . S
C1795 H1781 0.961 . S
C1795 C1794 1.502 . S
C1796 H1782 0.960 . S
C1796 H1783 0.961 . S
C1796 H1784 0.959 . S
C1796 C1794 1.561 . S
C1797 C1794 1.526 . S
C1797 C1798 1.396 . S
C1797 C1802 1.390 . S
C1798 C1792 1.465 . S
C1798 C1797 1.396 . S
C1798 C1799 1.399 . S
C1799 H1785 0.929 . S
C1799 C1798 1.399 . S
C1799 C1800 1.385 . S
C1800 H1786 0.931 . S
C1800 C1799 1.385 . S
C1800 C1801 1.389 . S
C1801 C1800 1.389 . S
C1801 C1802 1.387 . S
C1802 H1787 0.930 . S
C1802 C1797 1.390 . S
C1802 C1801 1.387 . S
H1803 C1815 0.930 . S
H1804 C1817 0.930 . S
H1805 C1818 0.930 . S
H1806 C1822 0.959 . S
H1807 C1822 0.959 . S
H1808 C1822 0.961 . S
H1809 C1823 0.960 . S
H1810 C1823 0.961 . S
H1811 C1823 0.959 . S
H1812 C1826 0.929 . S
H1813 C1827 0.931 . S
H1814 C1829 0.930 . S
C1815 H1803 0.930 . S
C1815 C1816 1.399 . S
C1815 C1820 1.399 . S
C1816 C1815 1.399 . S
C1816 C1817 1.376 . S
C1817 H1804 0.930 . S
C1817 C1816 1.376 . S
C1817 C1818 1.388 . S
C1818 H1805 0.930 . S
C1818 C1817 1.388 . S
C1818 C1819 1.390 . S
C1819 C1818 1.390 . S
C1819 C1820 1.394 . S
C1819 C1825 1.465 . S
C1820 C1815 1.399 . S
C1820 C1819 1.394 . S
C1820 C1821 1.516 . S
C1821 C1820 1.516 . S
C1821 C1822 1.502 . S
C1821 C1823 1.561 . S
C1821 C1824 1.526 . S
C1822 H1806 0.959 . S
C1822 H1807 0.959 . S
C1822 H1808 0.961 . S
C1822 C1821 1.502 . S
C1823 H1809 0.960 . S
C1823 H1810 0.961 . S
C1823 H1811 0.959 . S
C1823 C1821 1.561 . S
C1824 C1821 1.526 . S
C1824 C1825 1.396 . S
C1824 C1829 1.390 . S
C1825 C1819 1.465 . S
C1825 C1824 1.396 . S
C1825 C1826 1.399 . S
C1826 H1812 0.929 . S
C1826 C1825 1.399 . S
C1826 C1827 1.385 . S
C1827 H1813 0.931 . S
C1827 C1826 1.385 . S
C1827 C1828 1.389 . S
C1828 C1827 1.389 . S
C1828 C1829 1.387 . S
C1829 H1814 0.930 . S
C1829 C1824 1.390 . S
C1829 C1828 1.387 . S
H1830 C1842 0.930 . S
H1831 C1844 0.930 . S
H1832 C1845 0.930 . S
H1833 C1849 0.959 . S
H1834 C1849 0.959 . S
H1835 C1849 0.961 . S
H1836 C1850 0.960 . S
H1837 C1850 0.961 . S
H1838 C1850 0.959 . S
H1839 C1853 0.929 . S
H1840 C1854 0.931 . S
H1841 C1856 0.930 . S
C1842 H1830 0.930 . S
C1842 C1843 1.399 . S
C1842 C1847 1.399 . S
C1843 C1842 1.399 . S
C1843 C1844 1.376 . S
C1844 H1831 0.930 . S
C1844 C1843 1.376 . S
C1844 C1845 1.388 . S
C1845 H1832 0.930 . S
C1845 C1844 1.388 . S
C1845 C1846 1.390 . S
C1846 C1845 1.390 . S
C1846 C1847 1.394 . S
C1846 C1852 1.465 . S
C1847 C1842 1.399 . S
C1847 C1846 1.394 . S
C1847 C1848 1.516 . S
C1848 C1847 1.516 . S
C1848 C1849 1.502 . S
C1848 C1850 1.561 . S
C1848 C1851 1.526 . S
C1849 H1833 0.959 . S
C1849 H1834 0.959 . S
C1849 H1835 0.961 . S
C1849 C1848 1.502 . S
C1850 H1836 0.960 . S
C1850 H1837 0.961 . S
C1850 H1838 0.959 . S
C1850 C1848 1.561 . S
C1851 C1848 1.526 . S
C1851 C1852 1.396 . S
C1851 C1856 1.390 . S
C1852 C1846 1.465 . S
C1852 C1851 1.396 . S
C1852 C1853 1.399 . S
C1853 H1839 0.929 . S
C1853 C1852 1.399 . S
C1853 C1854 1.385 . S
C1854 H1840 0.931 . S
C1854 C1853 1.385 . S
C1854 C1855 1.389 . S
C1855 C1854 1.389 . S
C1855 C1856 1.387 . S
C1856 H1841 0.930 . S
C1856 C1851 1.390 . S
C1856 C1855 1.387 . S
H1857 C1869 0.930 . S
H1858 C1871 0.930 . S
H1859 C1872 0.930 . S
H1860 C1876 0.959 . S
H1861 C1876 0.959 . S
H1862 C1876 0.961 . S
H1863 C1877 0.960 . S
H1864 C1877 0.961 . S
H1865 C1877 0.959 . S
H1866 C1880 0.929 . S
H1867 C1881 0.931 . S
H1868 C1883 0.930 . S
C1869 H1857 0.930 . S
C1869 C1870 1.399 . S
C1869 C1874 1.399 . S
C1870 C1869 1.399 . S
C1870 C1871 1.376 . S
C1871 H1858 0.930 . S
C1871 C1870 1.376 . S
C1871 C1872 1.388 . S
C1872 H1859 0.930 . S
C1872 C1871 1.388 . S
C1872 C1873 1.390 . S
C1873 C1872 1.390 . S
C1873 C1874 1.394 . S
C1873 C1879 1.465 . S
C1874 C1869 1.399 . S
C1874 C1873 1.394 . S
C1874 C1875 1.516 . S
C1875 C1874 1.516 . S
C1875 C1876 1.502 . S
C1875 C1877 1.561 . S
C1875 C1878 1.526 . S
C1876 H1860 0.959 . S
C1876 H1861 0.959 . S
C1876 H1862 0.961 . S
C1876 C1875 1.502 . S
C1877 H1863 0.960 . S
C1877 H1864 0.961 . S
C1877 H1865 0.959 . S
C1877 C1875 1.561 . S
C1878 C1875 1.526 . S
C1878 C1879 1.396 . S
C1878 C1883 1.390 . S
C1879 C1873 1.465 . S
C1879 C1878 1.396 . S
C1879 C1880 1.399 . S
C1880 H1866 0.929 . S
C1880 C1879 1.399 . S
C1880 C1881 1.385 . S
C1881 H1867 0.931 . S
C1881 C1880 1.385 . S
C1881 C1882 1.389 . S
C1882 C1881 1.389 . S
C1882 C1883 1.387 . S
C1883 H1868 0.930 . S
C1883 C1878 1.390 . S
C1883 C1882 1.387 . S
H1884 C1896 0.930 . S
H1885 C1898 0.930 . S
H1886 C1899 0.930 . S
H1887 C1903 0.959 . S
H1888 C1903 0.959 . S
H1889 C1903 0.961 . S
H1890 C1904 0.960 . S
H1891 C1904 0.961 . S
H1892 C1904 0.959 . S
H1893 C1907 0.929 . S
H1894 C1908 0.931 . S
H1895 C1910 0.930 . S
C1896 H1884 0.930 . S
C1896 C1897 1.399 . S
C1896 C1901 1.399 . S
C1897 C1896 1.399 . S
C1897 C1898 1.376 . S
C1898 H1885 0.930 . S
C1898 C1897 1.376 . S
C1898 C1899 1.388 . S
C1899 H1886 0.930 . S
C1899 C1898 1.388 . S
C1899 C1900 1.390 . S
C1900 C1899 1.390 . S
C1900 C1901 1.394 . S
C1900 C1906 1.465 . S
C1901 C1896 1.399 . S
C1901 C1900 1.394 . S
C1901 C1902 1.516 . S
C1902 C1901 1.516 . S
C1902 C1903 1.502 . S
C1902 C1904 1.561 . S
C1902 C1905 1.526 . S
C1903 H1887 0.959 . S
C1903 H1888 0.959 . S
C1903 H1889 0.961 . S
C1903 C1902 1.502 . S
C1904 H1890 0.960 . S
C1904 H1891 0.961 . S
C1904 H1892 0.959 . S
C1904 C1902 1.561 . S
C1905 C1902 1.526 . S
C1905 C1906 1.396 . S
C1905 C1910 1.390 . S
C1906 C1900 1.465 . S
C1906 C1905 1.396 . S
C1906 C1907 1.399 . S
C1907 H1893 0.929 . S
C1907 C1906 1.399 . S
C1907 C1908 1.385 . S
C1908 H1894 0.931 . S
C1908 C1907 1.385 . S
C1908 C1909 1.389 . S
C1909 C1908 1.389 . S
C1909 C1910 1.387 . S
C1910 H1895 0.930 . S
C1910 C1905 1.390 . S
C1910 C1909 1.387 . S
H1911 C1923 0.930 . S
H1912 C1925 0.930 . S
H1913 C1926 0.930 . S
H1914 C1930 0.959 . S
H1915 C1930 0.959 . S
H1916 C1930 0.961 . S
H1917 C1931 0.960 . S
H1918 C1931 0.961 . S
H1919 C1931 0.959 . S
H1920 C1934 0.929 . S
H1921 C1935 0.931 . S
H1922 C1937 0.930 . S
C1923 H1911 0.930 . S
C1923 C1924 1.399 . S
C1923 C1928 1.399 . S
C1924 C1923 1.399 . S
C1924 C1925 1.376 . S
C1925 H1912 0.930 . S
C1925 C1924 1.376 . S
C1925 C1926 1.388 . S
C1926 H1913 0.930 . S
C1926 C1925 1.388 . S
C1926 C1927 1.390 . S
C1927 C1926 1.390 . S
C1927 C1928 1.394 . S
C1927 C1933 1.465 . S
C1928 C1923 1.399 . S
C1928 C1927 1.394 . S
C1928 C1929 1.516 . S
C1929 C1928 1.516 . S
C1929 C1930 1.502 . S
C1929 C1931 1.561 . S
C1929 C1932 1.526 . S
C1930 H1914 0.959 . S
C1930 H1915 0.959 . S
C1930 H1916 0.961 . S
C1930 C1929 1.502 . S
C1931 H1917 0.960 . S
C1931 H1918 0.961 . S
C1931 H1919 0.959 . S
C1931 C1929 1.561 . S
C1932 C1929 1.526 . S
C1932 C1933 1.396 . S
C1932 C1937 1.390 . S
C1933 C1927 1.465 . S
C1933 C1932 1.396 . S
C1933 C1934 1.399 . S
C1934 H1920 0.929 . S
C1934 C1933 1.399 . S
C1934 C1935 1.385 . S
C1935 H1921 0.931 . S
C1935 C1934 1.385 . S
C1935 C1936 1.389 . S
C1936 C1935 1.389 . S
C1936 C1937 1.387 . S
C1937 H1922 0.930 . S
C1937 C1932 1.390 . S
C1937 C1936 1.387 . S
H1938 C1950 0.930 . S
H1939 C1952 0.930 . S
H1940 C1953 0.930 . S
H1941 C1957 0.959 . S
H1942 C1957 0.959 . S
H1943 C1957 0.961 . S
H1944 C1958 0.960 . S
H1945 C1958 0.961 . S
H1946 C1958 0.959 . S
H1947 C1961 0.929 . S
H1948 C1962 0.931 . S
H1949 C1964 0.930 . S
C1950 H1938 0.930 . S
C1950 C1951 1.399 . S
C1950 C1955 1.399 . S
C1951 C1950 1.399 . S
C1951 C1952 1.376 . S
C1952 H1939 0.930 . S
C1952 C1951 1.376 . S
C1952 C1953 1.388 . S
C1953 H1940 0.930 . S
C1953 C1952 1.388 . S
C1953 C1954 1.390 . S
C1954 C1953 1.390 . S
C1954 C1955 1.394 . S
C1954 C1960 1.465 . S
C1955 C1950 1.399 . S
C1955 C1954 1.394 . S
C1955 C1956 1.516 . S
C1956 C1955 1.516 . S
C1956 C1957 1.502 . S
C1956 C1958 1.561 . S
C1956 C1959 1.526 . S
C1957 H1941 0.959 . S
C1957 H1942 0.959 . S
C1957 H1943 0.961 . S
C1957 C1956 1.502 . S
C1958 H1944 0.960 . S
C1958 H1945 0.961 . S
C1958 H1946 0.959 . S
C1958 C1956 1.561 . S
C1959 C1956 1.526 . S
C1959 C1960 1.396 . S
C1959 C1964 1.390 . S
C1960 C1954 1.465 . S
C1960 C1959 1.396 . S
C1960 C1961 1.399 . S
C1961 H1947 0.929 . S
C1961 C1960 1.399 . S
C1961 C1962 1.385 . S
C1962 H1948 0.931 . S
C1962 C1961 1.385 . S
C1962 C1963 1.389 . S
C1963 C1962 1.389 . S
C1963 C1964 1.387 . S
C1964 H1949 0.930 . S
C1964 C1959 1.390 . S
C1964 C1963 1.387 . S
H1965 C1977 0.930 . S
H1966 C1979 0.930 . S
H1967 C1980 0.930 . S
H1968 C1984 0.959 . S
H1969 C1984 0.959 . S
H1970 C1984 0.961 . S
H1971 C1985 0.960 . S
H1972 C1985 0.961 . S
H1973 C1985 0.959 . S
H1974 C1988 0.929 . S
H1975 C1989 0.931 . S
H1976 C1991 0.930 . S
C1977 H1965 0.930 . S
C1977 C1978 1.399 . S
C1977 C1982 1.399 . S
C1978 C1977 1.399 . S
C1978 C1979 1.376 . S
C1979 H1966 0.930 . S
C1979 C1978 1.376 . S
C1979 C1980 1.388 . S
C1980 H1967 0.930 . S
C1980 C1979 1.388 . S
C1980 C1981 1.390 . S
C1981 C1980 1.390 . S
C1981 C1982 1.394 . S
C1981 C1987 1.465 . S
C1982 C1977 1.399 . S
C1982 C1981 1.394 . S
C1982 C1983 1.516 . S
C1983 C1982 1.516 . S
C1983 C1984 1.502 . S
C1983 C1985 1.561 . S
C1983 C1986 1.526 . S
C1984 H1968 0.959 . S
C1984 H1969 0.959 . S
C1984 H1970 0.961 . S
C1984 C1983 1.502 . S
C1985 H1971 0.960 . S
C1985 H1972 0.961 . S
C1985 H1973 0.959 . S
C1985 C1983 1.561 . S
C1986 C1983 1.526 . S
C1986 C1987 1.396 . S
C1986 C1991 1.390 . S
C1987 C1981 1.465 . S
C1987 C1986 1.396 . S
C1987 C1988 1.399 . S
C1988 H1974 0.929 . S
C1988 C1987 1.399 . S
C1988 C1989 1.385 . S
C1989 H1975 0.931 . S
C1989 C1988 1.385 . S
C1989 C1990 1.389 . S
C1990 C1989 1.389 . S
C1990 C1991 1.387 . S
C1991 H1976 0.930 . S
C1991 C1986 1.390 . S
C1991 C1990 1.387 . S
H1992 C2004 0.930 . S
H1993 C2006 0.930 . S
H1994 C2007 0.930 . S
H1995 C2011 0.959 . S
H1996 C2011 0.959 . S
H1997 C2011 0.961 . S
H1998 C2012 0.960 . S
H1999 C2012 0.961 . S
H2000 C2012 0.959 . S
H2001 C2015 0.929 . S
H2002 C2016 0.931 . S
H2003 C2018 0.930 . S
C2004 H1992 0.930 . S
C2004 C2005 1.399 . S
C2004 C2009 1.399 . S
C2005 C2004 1.399 . S
C2005 C2006 1.376 . S
C2006 H1993 0.930 . S
C2006 C2005 1.376 . S
C2006 C2007 1.388 . S
C2007 H1994 0.930 . S
C2007 C2006 1.388 . S
C2007 C2008 1.390 . S
C2008 C2007 1.390 . S
C2008 C2009 1.394 . S
C2008 C2014 1.465 . S
C2009 C2004 1.399 . S
C2009 C2008 1.394 . S
C2009 C2010 1.516 . S
C2010 C2009 1.516 . S
C2010 C2011 1.502 . S
C2010 C2012 1.561 . S
C2010 C2013 1.526 . S
C2011 H1995 0.959 . S
C2011 H1996 0.959 . S
C2011 H1997 0.961 . S
C2011 C2010 1.502 . S
C2012 H1998 0.960 . S
C2012 H1999 0.961 . S
C2012 H2000 0.959 . S
C2012 C2010 1.561 . S
C2013 C2010 1.526 . S
C2013 C2014 1.396 . S
C2013 C2018 1.390 . S
C2014 C2008 1.465 . S
C2014 C2013 1.396 . S
C2014 C2015 1.399 . S
C2015 H2001 0.929 . S
C2015 C2014 1.399 . S
C2015 C2016 1.385 . S
C2016 H2002 0.931 . S
C2016 C2015 1.385 . S
C2016 C2017 1.389 . S
C2017 C2016 1.389 . S
C2017 C2018 1.387 . S
C2018 H2003 0.930 . S
C2018 C2013 1.390 . S
C2018 C2017 1.387 . S
H2019 C2031 0.930 . S
H2020 C2033 0.930 . S
H2021 C2034 0.930 . S
H2022 C2038 0.959 . S
H2023 C2038 0.959 . S
H2024 C2038 0.961 . S
H2025 C2039 0.960 . S
H2026 C2039 0.961 . S
H2027 C2039 0.959 . S
H2028 C2042 0.929 . S
H2029 C2043 0.931 . S
H2030 C2045 0.930 . S
C2031 H2019 0.930 . S
C2031 C2032 1.399 . S
C2031 C2036 1.399 . S
C2032 C2031 1.399 . S
C2032 C2033 1.376 . S
C2033 H2020 0.930 . S
C2033 C2032 1.376 . S
C2033 C2034 1.388 . S
C2034 H2021 0.930 . S
C2034 C2033 1.388 . S
C2034 C2035 1.390 . S
C2035 C2034 1.390 . S
C2035 C2036 1.394 . S
C2035 C2041 1.465 . S
C2036 C2031 1.399 . S
C2036 C2035 1.394 . S
C2036 C2037 1.516 . S
C2037 C2036 1.516 . S
C2037 C2038 1.502 . S
C2037 C2039 1.561 . S
C2037 C2040 1.526 . S
C2038 H2022 0.959 . S
C2038 H2023 0.959 . S
C2038 H2024 0.961 . S
C2038 C2037 1.502 . S
C2039 H2025 0.960 . S
C2039 H2026 0.961 . S
C2039 H2027 0.959 . S
C2039 C2037 1.561 . S
C2040 C2037 1.526 . S
C2040 C2041 1.396 . S
C2040 C2045 1.390 . S
C2041 C2035 1.465 . S
C2041 C2040 1.396 . S
C2041 C2042 1.399 . S
C2042 H2028 0.929 . S
C2042 C2041 1.399 . S
C2042 C2043 1.385 . S
C2043 H2029 0.931 . S
C2043 C2042 1.385 . S
C2043 C2044 1.389 . S
C2044 C2043 1.389 . S
C2044 C2045 1.387 . S
C2045 H2030 0.930 . S
C2045 C2040 1.390 . S
C2045 C2044 1.387 . S
H2046 C2058 0.930 . S
H2047 C2060 0.930 . S
H2048 C2061 0.930 . S
H2049 C2065 0.959 . S
H2050 C2065 0.959 . S
H2051 C2065 0.961 . S
H2052 C2066 0.960 . S
H2053 C2066 0.961 . S
H2054 C2066 0.959 . S
H2055 C2069 0.929 . S
H2056 C2070 0.931 . S
H2057 C2072 0.930 . S
C2058 H2046 0.930 . S
C2058 C2059 1.399 . S
C2058 C2063 1.399 . S
C2059 C2058 1.399 . S
C2059 C2060 1.376 . S
C2060 H2047 0.930 . S
C2060 C2059 1.376 . S
C2060 C2061 1.388 . S
C2061 H2048 0.930 . S
C2061 C2060 1.388 . S
C2061 C2062 1.390 . S
C2062 C2061 1.390 . S
C2062 C2063 1.394 . S
C2062 C2068 1.465 . S
C2063 C2058 1.399 . S
C2063 C2062 1.394 . S
C2063 C2064 1.516 . S
C2064 C2063 1.516 . S
C2064 C2065 1.502 . S
C2064 C2066 1.561 . S
C2064 C2067 1.526 . S
C2065 H2049 0.959 . S
C2065 H2050 0.959 . S
C2065 H2051 0.961 . S
C2065 C2064 1.502 . S
C2066 H2052 0.960 . S
C2066 H2053 0.961 . S
C2066 H2054 0.959 . S
C2066 C2064 1.561 . S
C2067 C2064 1.526 . S
C2067 C2068 1.396 . S
C2067 C2072 1.390 . S
C2068 C2062 1.465 . S
C2068 C2067 1.396 . S
C2068 C2069 1.399 . S
C2069 H2055 0.929 . S
C2069 C2068 1.399 . S
C2069 C2070 1.385 . S
C2070 H2056 0.931 . S
C2070 C2069 1.385 . S
C2070 C2071 1.389 . S
C2071 C2070 1.389 . S
C2071 C2072 1.387 . S
C2072 H2057 0.930 . S
C2072 C2067 1.390 . S
C2072 C2071 1.387 . S
H2073 C2085 0.930 . S
H2074 C2087 0.930 . S
H2075 C2088 0.930 . S
H2076 C2092 0.959 . S
H2077 C2092 0.959 . S
H2078 C2092 0.961 . S
H2079 C2093 0.960 . S
H2080 C2093 0.961 . S
H2081 C2093 0.959 . S
H2082 C2096 0.929 . S
H2083 C2097 0.931 . S
H2084 C2099 0.930 . S
C2085 H2073 0.930 . S
C2085 C2086 1.399 . S
C2085 C2090 1.399 . S
C2086 C2085 1.399 . S
C2086 C2087 1.376 . S
C2087 H2074 0.930 . S
C2087 C2086 1.376 . S
C2087 C2088 1.388 . S
C2088 H2075 0.930 . S
C2088 C2087 1.388 . S
C2088 C2089 1.390 . S
C2089 C2088 1.390 . S
C2089 C2090 1.394 . S
C2089 C2095 1.465 . S
C2090 C2085 1.399 . S
C2090 C2089 1.394 . S
C2090 C2091 1.516 . S
C2091 C2090 1.516 . S
C2091 C2092 1.502 . S
C2091 C2093 1.561 . S
C2091 C2094 1.526 . S
C2092 H2076 0.959 . S
C2092 H2077 0.959 . S
C2092 H2078 0.961 . S
C2092 C2091 1.502 . S
C2093 H2079 0.960 . S
C2093 H2080 0.961 . S
C2093 H2081 0.959 . S
C2093 C2091 1.561 . S
C2094 C2091 1.526 . S
C2094 C2095 1.396 . S
C2094 C2099 1.390 . S
C2095 C2089 1.465 . S
C2095 C2094 1.396 . S
C2095 C2096 1.399 . S
C2096 H2082 0.929 . S
C2096 C2095 1.399 . S
C2096 C2097 1.385 . S
C2097 H2083 0.931 . S
C2097 C2096 1.385 . S
C2097 C2098 1.389 . S
C2098 C2097 1.389 . S
C2098 C2099 1.387 . S
C2099 H2084 0.930 . S
C2099 C2094 1.390 . S
C2099 C2098 1.387 . S
H2100 C2112 0.930 . S
H2101 C2114 0.930 . S
H2102 C2115 0.930 . S
H2103 C2119 0.959 . S
H2104 C2119 0.959 . S
H2105 C2119 0.961 . S
H2106 C2120 0.960 . S
H2107 C2120 0.961 . S
H2108 C2120 0.959 . S
H2109 C2123 0.929 . S
H2110 C2124 0.931 . S
H2111 C2126 0.930 . S
C2112 H2100 0.930 . S
C2112 C2113 1.399 . S
C2112 C2117 1.399 . S
C2113 C2112 1.399 . S
C2113 C2114 1.376 . S
C2114 H2101 0.930 . S
C2114 C2113 1.376 . S
C2114 C2115 1.388 . S
C2115 H2102 0.930 . S
C2115 C2114 1.388 . S
C2115 C2116 1.390 . S
C2116 C2115 1.390 . S
C2116 C2117 1.394 . S
C2116 C2122 1.465 . S
C2117 C2112 1.399 . S
C2117 C2116 1.394 . S
C2117 C2118 1.516 . S
C2118 C2117 1.516 . S
C2118 C2119 1.502 . S
C2118 C2120 1.561 . S
C2118 C2121 1.526 . S
C2119 H2103 0.959 . S
C2119 H2104 0.959 . S
C2119 H2105 0.961 . S
C2119 C2118 1.502 . S
C2120 H2106 0.960 . S
C2120 H2107 0.961 . S
C2120 H2108 0.959 . S
C2120 C2118 1.561 . S
C2121 C2118 1.526 . S
C2121 C2122 1.396 . S
C2121 C2126 1.390 . S
C2122 C2116 1.465 . S
C2122 C2121 1.396 . S
C2122 C2123 1.399 . S
C2123 H2109 0.929 . S
C2123 C2122 1.399 . S
C2123 C2124 1.385 . S
C2124 H2110 0.931 . S
C2124 C2123 1.385 . S
C2124 C2125 1.389 . S
C2125 C2124 1.389 . S
C2125 C2126 1.387 . S
C2126 H2111 0.930 . S
C2126 C2121 1.390 . S
C2126 C2125 1.387 . S
H2127 C2139 0.930 . S
H2128 C2141 0.930 . S
H2129 C2142 0.930 . S
H2130 C2146 0.959 . S
H2131 C2146 0.959 . S
H2132 C2146 0.961 . S
H2133 C2147 0.960 . S
H2134 C2147 0.961 . S
H2135 C2147 0.959 . S
H2136 C2150 0.929 . S
H2137 C2151 0.931 . S
H2138 C2153 0.930 . S
C2139 H2127 0.930 . S
C2139 C2140 1.399 . S
C2139 C2144 1.399 . S
C2140 C2139 1.399 . S
C2140 C2141 1.376 . S
C2141 H2128 0.930 . S
C2141 C2140 1.376 . S
C2141 C2142 1.388 . S
C2142 H2129 0.930 . S
C2142 C2141 1.388 . S
C2142 C2143 1.390 . S
C2143 C2142 1.390 . S
C2143 C2144 1.394 . S
C2143 C2149 1.465 . S
C2144 C2139 1.399 . S
C2144 C2143 1.394 . S
C2144 C2145 1.516 . S
C2145 C2144 1.516 . S
C2145 C2146 1.502 . S
C2145 C2147 1.561 . S
C2145 C2148 1.526 . S
C2146 H2130 0.959 . S
C2146 H2131 0.959 . S
C2146 H2132 0.961 . S
C2146 C2145 1.502 . S
C2147 H2133 0.960 . S
C2147 H2134 0.961 . S
C2147 H2135 0.959 . S
C2147 C2145 1.561 . S
C2148 C2145 1.526 . S
C2148 C2149 1.396 . S
C2148 C2153 1.390 . S
C2149 C2143 1.465 . S
C2149 C2148 1.396 . S
C2149 C2150 1.399 . S
C2150 H2136 0.929 . S
C2150 C2149 1.399 . S
C2150 C2151 1.385 . S
C2151 H2137 0.931 . S
C2151 C2150 1.385 . S
C2151 C2152 1.389 . S
C2152 C2151 1.389 . S
C2152 C2153 1.387 . S
C2153 H2138 0.930 . S
C2153 C2148 1.390 . S
C2153 C2152 1.387 . S
C883 C683 1.531 . S
C871 C74 1.473 . S
C910 C673 0.530 . S
C898 C142 0.900 . S
C937 C674 1.124 . S
C925 C231 1.040 . S
C952 C322 1.305 . S
C964 C696 1.449 . S
C979 C406 0.949 . S
C991 C699 0.437 . S
C1018 C682 1.122 . S
C1006 C494 1.023 . S
C1033 C562 1.264 . S
C1045 C672 1.447 . S
C1060 C651 1.451 . S
C1072 C690 1.526 . S
C1099 C703 1.458 . S
C1087 C58 1.437 . S
C1114 C151 1.585 . S
C1126 C752 1.519 . S
C1153 C730 2.602 . S
C1141 C224 2.541 . S
C1180 C744 1.099 . S
C1168 C315 1.062 . S
C1195 C399 1.031 . S
C1207 C705 1.087 . S
C1234 C758 1.480 . S
C1222 C478 1.471 . S
C1249 C571 1.443 . S
C1261 C714 1.555 . S
C1276 C644 2.500 . S
C1288 C735 2.612 . S
C1303 C67 2.517 . S
C1315 C761 2.613 . S
C1330 C392 1.523 . S
C1342 C745 1.491 . S
C1369 C704 2.624 . S
C1357 C487 2.483 . S
C1396 C736 1.063 . S
C1384 C578 1.008 . S
C1411 C658 1.385 . S
C1423 C727 1.417 . S
C1438 C238 1.380 . S
C1450 C734 1.415 . S
C1477 C721 1.553 . S
C1465 C308 1.466 . S
C1492 C158 1.014 . S
C1504 C713 1.035 . S
C1519 C662 1.459 . S
C1531 C776 1.513 . S
C1546 C394 0.796 . S
C1558 C766 0.643 . S
C1585 C767 1.125 . S
C1573 C483 1.044 . S
C1612 C789 1.448 . S
C1600 C574 1.315 . S
C1627 C154 0.778 . S
C1639 C792 0.590 . S
C1666 C775 1.121 . S
C1654 C242 1.023 . S
C1681 C310 1.384 . S
C1693 C765 1.392 . S
C1708 C63 1.404 . S
C1720 C783 1.495 . S
C1735 C646 1.387 . S
C1747 C796 1.482 . S
C1774 C845 1.564 . S
C1762 C403 1.565 . S
C1789 C476 2.547 . S
C1801 C823 2.608 . S
C1816 C567 1.020 . S
C1828 C837 1.014 . S
C1855 C798 1.008 . S
C1843 C147 1.076 . S
C1870 C226 1.415 . S
C1882 C851 1.425 . S
C1909 C807 1.481 . S
C1897 C319 1.532 . S
C1936 C828 2.603 . S
C1924 C56 2.476 . S
C1963 C854 2.589 . S
C1951 C655 2.537 . S
C1978 C140 1.584 . S
C1990 C838 1.558 . S
C2005 C235 2.542 . S
C2017 C797 2.630 . S
C2044 C829 1.058 . S
C2032 C326 1.011 . S
C2059 C70 1.375 . S
C2071 C820 1.481 . S
C2086 C490 1.465 . S
C2098 C827 1.487 . S
C2125 C814 1.541 . S
C2113 C560 1.442 . S
C2152 C806 1.013 . S
C2140 C410 1.035 . S
