# Generated by pormake.
# Topology anh, (6,3)-cn, num edge types: 1
# Building blocks:
#     Node 0, Type 0, BuildingBlock: HISSIN_clean_sbu_0, # of connection points: 6
#     Node 1, Type 0, BuildingBlock: HISSIN_clean_sbu_0, # of connection points: 6
#     Node 2, Type 0, BuildingBlock: HISSIN_clean_sbu_0, # of connection points: 6
#     Node 3, Type 1, BuildingBlock: OLANEW_clean_sbu_2, # of connection points: 3
#     Node 4, Type 1, BuildingBlock: OLANEW_clean_sbu_2, # of connection points: 3
#     Node 5, Type 1, BuildingBlock: OLANEW_clean_sbu_2, # of connection points: 3
#     Node 6, Type 1, BuildingBlock: OLANEW_clean_sbu_2, # of connection points: 3
#     Node 7, Type 1, BuildingBlock: OLANEW_clean_sbu_2, # of connection points: 3
#     Node 8, Type 1, BuildingBlock: OLANEW_clean_sbu_2, # of connection points: 3
#     Edge 9, Type (0, 1), BuildingBlock: CIFDUS_clean_linker_0, # of connection points: 2
#     Edge 10, Type (0, 1), BuildingBlock: CIFDUS_clean_linker_0, # of connection points: 2
#     Edge 11, Type (0, 1), BuildingBlock: CIFDUS_clean_linker_0, # of connection points: 2
#     Edge 12, Type (0, 1), BuildingBlock: CIFDUS_clean_linker_0, # of connection points: 2
#     Edge 13, Type (0, 1), BuildingBlock: CIFDUS_clean_linker_0, # of connection points: 2
#     Edge 14, Type (0, 1), BuildingBlock: CIFDUS_clean_linker_0, # of connection points: 2
#     Edge 15, Type (0, 1), BuildingBlock: CIFDUS_clean_linker_0, # of connection points: 2
#     Edge 16, Type (0, 1), BuildingBlock: CIFDUS_clean_linker_0, # of connection points: 2
#     Edge 17, Type (0, 1), BuildingBlock: CIFDUS_clean_linker_0, # of connection points: 2
#     Edge 18, Type (0, 1), BuildingBlock: CIFDUS_clean_linker_0, # of connection points: 2
#     Edge 19, Type (0, 1), BuildingBlock: CIFDUS_clean_linker_0, # of connection points: 2
#     Edge 20, Type (0, 1), BuildingBlock: CIFDUS_clean_linker_0, # of connection points: 2
#     Edge 21, Type (0, 1), BuildingBlock: CIFDUS_clean_linker_0, # of connection points: 2
#     Edge 22, Type (0, 1), BuildingBlock: CIFDUS_clean_linker_0, # of connection points: 2
#     Edge 23, Type (0, 1), BuildingBlock: CIFDUS_clean_linker_0, # of connection points: 2
#     Edge 24, Type (0, 1), BuildingBlock: CIFDUS_clean_linker_0, # of connection points: 2
#     Edge 25, Type (0, 1), BuildingBlock: CIFDUS_clean_linker_0, # of connection points: 2
#     Edge 26, Type (0, 1), BuildingBlock: CIFDUS_clean_linker_0, # of connection points: 2
# Relax obj value: 0.259
# Max RMSD: 0.135
# Mean RMSD: 0.115
data_MOF--net-anh--node1-HISSIN_clean_sbu_0--node2-OLANEW_clean_sbu_2--edge1-CIFDUS_clean_linker_0
_symmetry_space_group_name_H-M    P1
_symmetry_Int_Tables_number       1
_symmetry_cell_setting            triclinic
loop_
_symmetry_equiv_pos_as_xyz
'x, y, z'
_cell_length_a     32.538416
_cell_length_b     32.592926
_cell_length_c     44.40567
_cell_angle_alpha  92.947995
_cell_angle_beta   89.749949
_cell_angle_gamma 119.71324
loop_
_atom_site_label
_atom_site_type_symbol
_atom_site_fract_x
_atom_site_fract_y
_atom_site_fract_z
_atom_type_partial_charge
Eu0 Eu 1.01514 0.48041 0.15746 0.0
Eu1 Eu 0.06579 0.59367 0.16859 0.0
C2 C 0.04317 0.52793 0.22376 0.0
C3 C 0.91927 0.35457 0.14703 0.0
C4 C 0.89064 0.36169 0.16794 0.0
C5 C 0.84918 0.28931 0.12259 0.0
C6 C 0.84164 0.3328 0.16621 0.0
C7 C 0.89834 0.31804 0.12451 0.0
C8 C 0.82026 0.29672 0.14324 0.0
C9 C 0.96979 0.38917 0.14593 0.0
O10 O 0.12254 0.57875 0.14906 0.0
O11 O 0.09249 0.50285 0.16318 0.0
C12 C 0.12779 0.54188 0.15345 0.0
O13 O 0.0414 0.51413 0.11274 0.0
O14 O 0.09573 0.65725 0.19904 0.0
O15 O 0.09939 0.66341 0.15061 0.0
O16 O 1.02913 0.57569 0.12356 0.0
C17 C 1.03424 0.54781 0.1037 0.0
O18 O 0.95481 0.4957 0.1545 0.0
O19 O 0.98836 0.57089 0.17693 0.0
O20 O 0.07667 0.56411 0.21055 0.0
O21 O 0.98026 0.41969 0.12537 0.0
O22 O 0.99167 0.40908 0.17166 0.0
O23 O 1.008 0.49406 0.2075 0.0
C24 C 0.16677 0.71655 0.17962 0.0
C25 C 0.19703 0.70716 0.16149 0.0
C26 C 0.23528 0.78401 0.20382 0.0
C27 C 0.24591 0.73634 0.16417 0.0
C28 C 0.18618 0.75498 0.20093 0.0
C29 C 0.26546 0.77506 0.1853 0.0
C30 C 0.11526 0.68519 0.17699 0.0
C31 C 0.95109 0.53181 0.16582 0.0
H32 H 0.90605 0.39036 0.18516 0.0
H33 H 0.83383 0.26217 0.10446 0.0
H34 H 0.82052 0.3389 0.18284 0.0
H35 H 0.91992 0.31278 0.10781 0.0
H36 H 0.18295 0.67727 0.14516 0.0
H37 H 0.24963 0.81396 0.22013 0.0
H38 H 0.26847 0.72846 0.14986 0.0
H39 H 0.16341 0.76249 0.21527 0.0
Eu40 Eu 0.54122 0.98776 0.49229 0.0
Eu41 Eu 0.50279 0.06226 0.50677 0.0
C42 C 0.53142 1.01865 0.56105 0.0
C43 C 0.56408 0.88401 0.49689 0.0
C44 C 0.52333 0.8395 0.49147 0.0
C45 C 0.59534 0.84823 0.52992 0.0
C46 C 0.51872 0.79978 0.50511 0.0
C47 C 0.60007 0.88787 0.51619 0.0
C48 C 0.5547 0.80375 0.52447 0.0
C49 C 0.56962 0.92618 0.48227 0.0
O50 O 0.58282 0.10937 0.50446 0.0
O51 O 0.60049 0.058 0.47784 0.0
C52 C 0.61225 0.10114 0.48821 0.0
O53 O 0.50955 0.99362 0.44888 0.0
O54 O 0.49887 0.1152 0.5367 0.0
O55 O 0.46021 0.0937 0.49394 0.0
O56 O 0.52123 0.0684 0.45779 0.0
C57 C 0.51297 0.03249 0.43924 0.0
O58 O 0.46621 0.94248 0.50733 0.0
O59 O 0.43754 0.99091 0.49461 0.0
O60 O 0.50203 0.0322 0.5517 0.0
O61 O 0.53193 0.92276 0.46954 0.0
O62 O 0.59512 0.96705 0.49685 0.0
O63 O 0.55596 1.00785 0.54196 0.0
C64 C 0.49877 0.17439 0.50966 0.0
C65 C 0.53735 0.19216 0.49032 0.0
C66 C 0.51503 0.25432 0.52239 0.0
C67 C 0.56548 0.2408 0.48773 0.0
C68 C 0.48695 0.20554 0.52504 0.0
C69 C 0.5555 0.27244 0.50451 0.0
C70 C 0.47566 0.1246 0.5169 0.0
C71 C 0.43059 0.94848 0.49983 0.0
H72 H 0.495 0.83521 0.4766 0.0
H73 H 0.62407 0.8522 0.54428 0.0
H74 H 0.48695 0.76597 0.50058 0.0
H75 H 0.63212 0.92152 0.52053 0.0
H76 H 0.54715 0.16853 0.47841 0.0
H77 H 0.50681 0.27789 0.53584 0.0
H78 H 0.59621 0.25376 0.47363 0.0
H79 H 0.45756 0.19234 0.54028 0.0
Eu80 Eu 0.49567 0.50082 0.82625 0.0
Eu81 Eu 0.60786 0.56819 0.84477 0.0
C82 C 0.53155 0.52733 0.89537 0.0
C83 C 0.37216 0.47207 0.81769 0.0
C84 C 0.3807 0.50463 0.84209 0.0
C85 C 0.31221 0.48796 0.79803 0.0
C86 C 0.35606 0.52935 0.84412 0.0
C87 C 0.3371 0.46312 0.79597 0.0
C88 C 0.32263 0.52237 0.82166 0.0
C89 C 0.4059 0.45517 0.81221 0.0
O90 O 0.5996 0.49645 0.83047 0.0
O91 O 0.51908 0.44709 0.83254 0.0
C92 C 0.56218 0.45368 0.82979 0.0
O93 O 0.53848 0.50622 0.78463 0.0
O94 O 0.66365 0.61612 0.87695 0.0
O95 O 0.68195 0.59552 0.8339 0.0
O96 O 0.59916 0.58031 0.79677 0.0
C97 C 0.5756 0.54546 0.77675 0.0
O98 O 0.50937 0.57504 0.82094 0.0
O99 O 0.58131 0.62088 0.84563 0.0
O100 O 0.57111 0.5307 0.88583 0.0
O101 O 0.43848 0.47957 0.79313 0.0
O102 O 0.42347 0.44712 0.83617 0.0
O103 O 0.49943 0.52376 0.87597 0.0
C104 C 0.72807 0.60125 0.87603 0.0
C105 C 0.71522 0.57779 0.90313 0.0
C106 C 0.79597 0.58936 0.87351 0.0
C107 C 0.74256 0.56014 0.91524 0.0
C108 C 0.76903 0.60749 0.86162 0.0
C109 C 0.78264 0.565 0.9002 0.0
C110 C 0.69697 0.61512 0.86092 0.0
C111 C 0.54305 0.6162 0.83219 0.0
H112 H 0.40817 0.51279 0.85887 0.0
H113 H 0.2866 0.482 0.78042 0.0
H114 H 0.36419 0.55503 0.86286 0.0
H115 H 0.3307 0.43878 0.77669 0.0
H116 H 0.68346 0.57197 0.91458 0.0
H117 H 0.82717 0.59418 0.86174 0.0
H118 H 0.73158 0.54144 0.93583 0.0
H119 H 0.77947 0.62529 0.84067 0.0
O120 O 0.50103 0.05789 0.24969 0.0
Cd121 Cd 0.47855 0.04357 0.19534 0.0
O122 O 0.57936 0.10214 0.2541 0.0
Cd123 Cd 0.58944 0.07351 0.21159 0.0
O124 O 0.54403 0.99823 0.20161 0.0
C125 C 0.52938 0.97267 0.22417 0.0
O126 O 0.54836 0.99153 0.25094 0.0
C127 C 0.53862 0.08316 0.26574 0.0
C128 C 0.55474 0.09859 0.15987 0.0
O129 O 0.53903 0.05411 0.16094 0.0
O130 O 0.53248 0.11644 0.17415 0.0
O131 O 0.77798 0.61052 0.63164 0.0
Cd132 Cd 0.81683 0.61535 0.58367 0.0
O133 O 0.71083 0.57538 0.60591 0.0
Cd134 Cd 0.63664 0.55569 0.60039 0.0
O135 O 0.59334 0.58737 0.59109 0.0
C136 C 0.59655 0.61969 0.60983 0.0
O137 O 0.62136 0.62828 0.63497 0.0
C138 C 0.73314 0.5916 0.63102 0.0
C139 C 0.76481 0.5292 0.55132 0.0
O140 O 0.80073 0.53768 0.56778 0.0
O141 O 0.75452 0.56217 0.54933 0.0
O142 O 0.11367 0.66101 0.93187 0.0
Cd143 Cd 0.12606 0.69022 0.88121 0.0
O144 O 0.10384 0.59379 0.91159 0.0
Cd145 Cd 0.07098 0.5169 0.91259 0.0
O146 O 0.99457 0.48035 0.90618 0.0
C147 C 0.97117 0.48538 0.92761 0.0
O148 O 0.99276 0.50363 0.95383 0.0
C149 C 0.10468 0.61874 0.9348 0.0
C150 C 0.16678 0.64472 0.84939 0.0
O151 O 0.1217 0.62676 0.84929 0.0
O152 O 0.19226 0.68519 0.86325 0.0
O153 O 0.06519 0.57036 0.41316 0.0
Cd154 Cd 0.09922 0.61504 0.463 0.0
O155 O 0.99709 0.5072 0.42328 0.0
Cd156 Cd 0.92682 0.4389 0.42299 0.0
O157 O 0.85646 0.37875 0.43725 0.0
C158 C 0.84766 0.33617 0.43944 0.0
O159 O 0.88095 0.32594 0.43241 0.0
C160 C 1.02769 0.53218 0.404 0.0
C161 C 0.19153 0.69725 0.46827 0.0
O162 O 0.18532 0.6553 0.46935 0.0
O163 O 0.15464 0.70083 0.46338 0.0
O164 O 0.54211 0.97522 0.74771 0.0
Cd165 Cd 0.54505 0.94537 0.79803 0.0
O166 O 0.5394 0.03948 0.76285 0.0
Cd167 Cd 0.5373 0.10742 0.76368 0.0
O168 O 0.52888 0.17096 0.77422 0.0
C169 C 0.5622 0.21081 0.78491 0.0
O170 O 0.60424 0.2156 0.78956 0.0
C171 C 0.53971 1.01189 0.74136 0.0
C172 C 0.55529 0.86402 0.803 0.0
O173 O 0.51432 0.8602 0.80003 0.0
O174 O 0.59133 0.90568 0.80232 0.0
O175 O 0.59269 0.54803 0.0867 0.0
Cd176 Cd 0.62346 0.54179 0.13699 0.0
O177 O 0.52334 0.54462 0.0926 0.0
Cd178 Cd 0.45512 0.54629 0.08778 0.0
O179 O 0.38666 0.5451 0.09929 0.0
C180 C 0.38255 0.58213 0.0997 0.0
O181 O 0.4193 0.62209 0.09241 0.0
C182 C 0.55669 0.54849 0.07539 0.0
C183 C 0.71529 0.55073 0.14229 0.0
O184 O 0.67815 0.51032 0.13691 0.0
O185 O 0.70963 0.58702 0.14406 0.0
H186 H 0.20955 0.61482 0.13174 0.0
H187 H 0.14866 0.47052 0.15732 0.0
H188 H 0.22059 0.46958 0.1429 0.0
H189 H 0.3013 0.50923 0.12236 0.0
H190 H 0.36227 0.65382 0.09741 0.0
H191 H 0.29052 0.65483 0.11211 0.0
C192 C 0.21196 0.58317 0.1343 0.0
C193 C 0.17321 0.54282 0.14569 0.0
C194 C 0.25378 0.58273 0.1259 0.0
C195 C 0.17753 0.50225 0.14871 0.0
C196 C 0.21883 0.50158 0.14038 0.0
C197 C 0.2989 0.54093 0.12006 0.0
C198 C 0.33756 0.58131 0.1086 0.0
C199 C 0.25722 0.54151 0.12879 0.0
C200 C 0.33345 0.62208 0.10605 0.0
C201 C 0.29223 0.62278 0.1145 0.0
H202 H 0.64212 0.19702 0.4887 0.0
H203 H 0.6887 0.09583 0.46815 0.0
H204 H 0.76429 0.15871 0.45172 0.0
H205 H 0.8174 0.24198 0.44214 0.0
H206 H 0.77208 0.34438 0.46108 0.0
H207 H 0.69639 0.28189 0.4789 0.0
C208 C 0.66894 0.18878 0.48086 0.0
C209 C 0.6593 0.14131 0.47985 0.0
C210 C 0.71276 0.22546 0.47089 0.0
C211 C 0.69463 0.13164 0.46922 0.0
C212 C 0.7381 0.16773 0.45975 0.0
C213 C 0.79112 0.25089 0.45017 0.0
C214 C 0.80089 0.29821 0.45014 0.0
C215 C 0.74753 0.21469 0.46028 0.0
C216 C 0.76588 0.30849 0.46066 0.0
C217 C 0.72246 0.27264 0.47096 0.0
H218 H 0.61269 0.70942 0.83148 0.0
H219 H 0.46135 0.61827 0.82273 0.0
H220 H 0.45169 0.68594 0.81268 0.0
H221 H 0.48597 0.7712 0.80563 0.0
H222 H 0.63742 0.86231 0.81294 0.0
H223 H 0.64708 0.79488 0.82397 0.0
C224 C 0.57757 0.70444 0.82766 0.0
C225 C 0.53786 0.65862 0.82803 0.0
C226 C 0.57221 0.74363 0.82131 0.0
C227 C 0.49266 0.65294 0.82258 0.0
C228 C 0.48703 0.69172 0.81677 0.0
C229 C 0.52114 0.77636 0.80953 0.0
C230 C 0.56087 0.82207 0.80837 0.0
C231 C 0.52654 0.73723 0.81586 0.0
C232 C 0.60611 0.82775 0.81356 0.0
C233 C 0.61172 0.7891 0.81999 0.0
H234 H 0.92937 0.60372 0.16707 0.0
H235 H 0.86522 0.45162 0.1589 0.0
H236 H 0.78772 0.444 0.15064 0.0
H237 H 0.73753 0.48002 0.1444 0.0
H238 H 0.80082 0.63197 0.15193 0.0
H239 H 0.87847 0.63991 0.16148 0.0
C240 C 0.89837 0.56891 0.16386 0.0
C241 C 0.90353 0.52836 0.16374 0.0
C242 C 0.85342 0.56462 0.15863 0.0
C243 C 0.86273 0.48357 0.15911 0.0
C244 C 0.81816 0.47909 0.15429 0.0
C245 C 0.76827 0.51494 0.14805 0.0
C246 C 0.76296 0.5553 0.1473 0.0
C247 C 0.81304 0.51932 0.15368 0.0
C248 C 0.80351 0.60017 0.15227 0.0
C249 C 0.8481 0.60479 0.15783 0.0
H250 H 0.40561 0.85461 0.49724 0.0
H251 H 0.34629 0.94654 0.49054 0.0
H252 H 0.26802 0.87789 0.47968 0.0
H253 H 0.21584 0.79125 0.47164 0.0
H254 H 0.27578 0.69977 0.47781 0.0
H255 H 0.35377 0.76838 0.48902 0.0
C256 C 0.37556 0.85976 0.49367 0.0
C257 C 0.38221 0.90609 0.49498 0.0
C258 C 0.33046 0.81996 0.48705 0.0
C259 C 0.34259 0.9116 0.48985 0.0
C260 C 0.29765 0.87221 0.48353 0.0
C261 C 0.24596 0.78626 0.47531 0.0
C262 C 0.23952 0.74 0.47377 0.0
C263 C 0.29109 0.82615 0.48192 0.0
C264 C 0.27928 0.73464 0.47874 0.0
C265 C 0.32408 0.774 0.48526 0.0
H266 H 0.49556 0.36224 0.8123 0.0
H267 H 0.64458 0.45086 0.83378 0.0
H268 H 0.65742 0.38416 0.82212 0.0
H269 H 0.62706 0.30095 0.80495 0.0
H270 H 0.47856 0.2123 0.78219 0.0
H271 H 0.46506 0.2785 0.7951 0.0
C272 C 0.53082 0.36694 0.81467 0.0
C273 C 0.56899 0.41182 0.82405 0.0
C274 C 0.5382 0.32834 0.80749 0.0
C275 C 0.61446 0.41702 0.82662 0.0
C276 C 0.6219 0.37877 0.81991 0.0
C277 C 0.59165 0.29594 0.80279 0.0
C278 C 0.55391 0.25137 0.79254 0.0
C279 C 0.58414 0.33433 0.81014 0.0
C280 C 0.50838 0.24599 0.78993 0.0
C281 C 0.50059 0.28393 0.79737 0.0
H282 H 0.57553 0.79556 0.58227 0.0
H283 H 0.52612 0.71703 0.4965 0.0
H284 H 0.52874 0.65011 0.51678 0.0
H285 H 0.55334 0.6176 0.55702 0.0
H286 H 0.60544 0.69725 0.64234 0.0
H287 H 0.59305 0.75978 0.62417 0.0
C288 C 0.56513 0.76367 0.5681 0.0
C289 C 0.55119 0.76143 0.53786 0.0
C290 C 0.56738 0.72562 0.57977 0.0
C291 C 0.53684 0.71957 0.51989 0.0
C292 C 0.5386 0.6814 0.53142 0.0
C293 C 0.56131 0.64827 0.57184 0.0
C294 C 0.58096 0.65302 0.60083 0.0
C295 C 0.55495 0.68452 0.56107 0.0
C296 C 0.59065 0.69283 0.61981 0.0
C297 C 0.58377 0.72874 0.60941 0.0
H298 H 0.8106 0.50981 0.86927 0.0
H299 H 0.81689 0.57434 0.95761 0.0
H300 H 0.87073 0.54817 0.97554 0.0
H301 H 0.92321 0.51571 0.96414 0.0
H302 H 0.91854 0.45334 0.87511 0.0
H303 H 0.85602 0.46897 0.85959 0.0
C304 C 0.82358 0.5178 0.8925 0.0
C305 C 0.81063 0.5446 0.91199 0.0
C306 C 0.85469 0.50301 0.90249 0.0
C307 C 0.82664 0.55389 0.94221 0.0
C308 C 0.85748 0.53907 0.95241 0.0
C309 C 0.90783 0.50454 0.94153 0.0
C310 C 0.92611 0.48409 0.92067 0.0
C311 C 0.87275 0.51476 0.9325 0.0
C312 C 0.90548 0.46957 0.89154 0.0
C313 C 0.86991 0.47877 0.88257 0.0
H314 H 0.32168 0.8063 0.23571 0.0
H315 H 0.32475 0.81488 0.13906 0.0
H316 H 0.40927 0.87255 0.14222 0.0
H317 H 0.4799 0.92599 0.17283 0.0
H318 H 0.47677 0.91874 0.26971 0.0
H319 H 0.39494 0.85433 0.26603 0.0
C320 C 0.34106 0.82074 0.2154 0.0
C321 C 0.31719 0.80698 0.18726 0.0
C322 C 0.38953 0.85391 0.2174 0.0
C323 C 0.34257 0.82507 0.16097 0.0
C324 C 0.39078 0.85808 0.16277 0.0
C325 C 0.46163 0.90978 0.19312 0.0
C326 C 0.4842 0.92756 0.2215 0.0
C327 C 0.41435 0.87348 0.19091 0.0
C328 C 0.46018 0.90585 0.24755 0.0
C329 C 0.41324 0.86925 0.24551 0.0
H330 H 0.65018 0.31298 0.51235 0.0
H331 H 0.53857 0.34663 0.5023 0.0
H332 H 0.59533 0.43072 0.51275 0.0
H333 H 0.67497 0.49312 0.52954 0.0
H334 H 0.7852 0.45799 0.54199 0.0
H335 H 0.73082 0.37596 0.52501 0.0
C336 C 0.63848 0.33883 0.51166 0.0
C337 C 0.59031 0.32372 0.50654 0.0
C338 C 0.671 0.38673 0.51828 0.0
C339 C 0.57546 0.35749 0.5064 0.0
C340 C 0.60787 0.40548 0.51236 0.0
C341 C 0.6873 0.46769 0.52804 0.0
C342 C 0.73393 0.48149 0.53717 0.0
C343 C 0.65549 0.42032 0.51907 0.0
C344 C 0.74936 0.44812 0.53528 0.0
C345 C 0.71829 0.40122 0.52564 0.0
H346 H 0.22956 0.49532 0.81306 0.0
H347 H 0.36696 0.61773 0.83203 0.0
H348 H 0.33098 0.6676 0.83908 0.0
H349 H 0.26029 0.67505 0.84446 0.0
H350 H 0.12228 0.5529 0.82657 0.0
H351 H 0.15875 0.50455 0.81375 0.0
C352 C 0.25156 0.53303 0.81825 0.0
C353 C 0.30064 0.5527 0.82258 0.0
C354 C 0.23058 0.56151 0.8225 0.0
C355 C 0.3289 0.60163 0.82929 0.0
C356 C 0.30842 0.6302 0.83318 0.0
C357 C 0.23816 0.63801 0.83734 0.0
C358 C 0.18868 0.61752 0.83676 0.0
C359 C 0.25924 0.6103 0.83059 0.0
C360 C 0.16052 0.56955 0.82726 0.0
C361 C 0.18132 0.54179 0.82009 0.0
H362 H 0.76908 0.20194 0.12967 0.0
H363 H 0.75395 0.32417 0.15222 0.0
H364 H 0.6685 0.2735 0.15537 0.0
H365 H 0.59971 0.19406 0.1572 0.0
H366 H 0.61506 0.07198 0.13454 0.0
H367 H 0.69862 0.12337 0.12466 0.0
C368 C 0.74707 0.21769 0.13457 0.0
C369 C 0.76802 0.26665 0.14132 0.0
C370 C 0.69797 0.18843 0.13622 0.0
C371 C 0.73886 0.28638 0.1478 0.0
C372 C 0.68995 0.25751 0.14937 0.0
C373 C 0.62107 0.1787 0.14946 0.0
C374 C 0.60138 0.12931 0.14704 0.0
C375 C 0.66932 0.20837 0.14448 0.0
C376 C 0.62941 0.10994 0.13676 0.0
C377 C 0.67732 0.13928 0.13131 0.0
H378 H 0.07255 0.51958 0.0579 0.0
H379 H 1.00471 0.60262 0.07785 0.0
H380 H 1.01962 0.63102 0.02713 0.0
H381 H 0.0563 0.63651 0.97816 0.0
H382 H 0.12519 0.55484 0.95781 0.0
H383 H 0.1055 0.52164 0.00748 0.0
C384 C 0.06042 0.54329 0.05096 0.0
C385 C 1.0379 0.55922 0.07169 0.0
C386 C 0.0697 0.56014 0.02177 0.0
C387 C 1.02252 0.59012 0.06241 0.0
C388 C 1.03111 0.60652 0.03342 0.0
C389 C 0.06691 0.61139 0.98464 0.0
C390 C 0.0919 0.59792 0.96444 0.0
C391 C 0.05555 0.5926 0.01315 0.0
C392 C 0.10525 0.56515 0.97292 0.0
C393 C 0.09421 0.54635 1.00134 0.0
H394 H 0.56198 0.11009 0.40722 0.0
H395 H 0.45509 0.96259 0.39871 0.0
H396 H 0.44998 0.96712 0.34417 0.0
H397 H 0.47922 1.01163 0.29883 0.0
H398 H 0.59252 0.15647 0.30626 0.0
H399 H 0.59175 0.15478 0.36143 0.0
C400 C 0.53728 0.07919 0.39335 0.0
C401 C 0.50878 0.03614 0.40671 0.0
C402 C 0.53578 0.08167 0.36196 0.0
C403 C 0.47743 0.99601 0.3887 0.0
C404 C 0.47444 0.99862 0.35762 0.0
C405 C 0.50311 0.04307 0.3126 0.0
C406 C 0.5354 0.08434 0.29876 0.0
C407 C 0.50383 0.04108 0.344 0.0
C408 C 0.56717 0.12447 0.31663 0.0
C409 C 0.5668 0.12343 0.34807 0.0
H410 H 0.65776 0.61677 0.75724 0.0
H411 H 0.53849 0.48181 0.72784 0.0
H412 H 0.57602 0.48514 0.6794 0.0
H413 H 0.6454 0.52407 0.64697 0.0
H414 H 0.76509 0.65758 0.67776 0.0
H415 H 0.72494 0.65664 0.72455 0.0
C416 C 0.63955 0.58817 0.7402 0.0
C417 C 0.59532 0.54901 0.74624 0.0
C418 C 0.66172 0.58984 0.71282 0.0
C419 C 0.57253 0.51234 0.72382 0.0
C420 C 0.59406 0.51416 0.69617 0.0
C421 C 0.66218 0.55342 0.66365 0.0
C422 C 0.70785 0.5912 0.65879 0.0
C423 C 0.639 0.55241 0.69062 0.0
C424 C 0.72996 0.62815 0.68104 0.0
C425 C 0.70697 0.6277 0.70771 0.0
H426 H 0.50392 0.05529 0.60913 0.0
H427 H 0.57182 0.97288 0.58698 0.0
H428 H 0.58129 0.96497 0.64034 0.0
H429 H 0.56951 0.98001 0.69331 0.0
H430 H 0.50234 0.06253 0.71647 0.0
H431 H 0.4941 0.07238 0.66296 0.0
C432 C 0.52073 0.03556 0.61598 0.0
C433 C 0.53695 1.01459 0.59388 0.0
C434 C 0.52658 0.03144 0.64698 0.0
C435 C 0.55904 0.98952 0.60331 0.0
C436 C 0.56448 0.9849 0.63391 0.0
C437 C 0.5532 1.00035 0.68673 0.0
C438 C 0.53698 1.02086 0.70906 0.0
C439 C 0.54831 1.00556 0.65593 0.0
C440 C 0.51609 0.04719 0.69997 0.0
C441 C 0.51091 0.0524 0.66926 0.0
H442 H 0.601 0.57039 0.93758 0.0
H443 H 0.44898 0.49249 0.92769 0.0
H444 H 0.44205 0.49506 0.98292 0.0
H445 H 0.48063 0.51544 0.0346 0.0
H446 H 0.63331 0.59489 0.04163 0.0
H447 H 0.63832 0.59614 0.98721 0.0
C448 C 0.56621 0.55389 0.9474 0.0
C449 C 0.52561 0.53053 0.92852 0.0
C450 C 0.56262 0.55594 0.97887 0.0
C451 C 0.48086 0.51041 0.94172 0.0
C452 C 0.47694 0.51188 0.97332 0.0
C453 C 0.51483 0.53372 0.02416 0.0
C454 C 0.55656 0.55459 0.04236 0.0
C455 C 0.51771 0.53406 0.99226 0.0
C456 C 0.60061 0.57799 0.02835 0.0
C457 C 0.60364 0.57873 0.99711 0.0
H458 H 0.97245 0.47836 0.26423 0.0
H459 H 0.12246 0.57556 0.25866 0.0
H460 H 0.13059 0.58222 0.31322 0.0
H461 H 0.09566 0.56534 0.36247 0.0
H462 H 0.94593 0.47058 0.37061 0.0
H463 H 0.93736 0.45759 0.31543 0.0
C464 C 1.00693 0.50047 0.27502 0.0
C465 C 0.04672 0.5267 0.25715 0.0
C466 C 1.01149 0.50481 0.30695 0.0
C467 C 0.0911 0.55533 0.27162 0.0
C468 C 0.09589 0.5592 0.30294 0.0
C469 C 0.06099 0.54156 0.35235 0.0
C470 C 1.02147 0.51924 0.37088 0.0
C471 C 0.05633 0.5349 0.32081 0.0
C472 C 0.97709 0.48814 0.35709 0.0
C473 C 0.97215 0.48095 0.32544 0.0
loop_
_geom_bond_atom_site_label_1
_geom_bond_atom_site_label_2
_geom_bond_distance
_geom_bond_site_symmetry_2
_ccdc_geom_bond_type
Eu0 C9 2.828 . S
Eu0 O11 2.392 1_655 S
Eu0 O13 2.418 . S
Eu0 O18 2.373 . S
Eu0 O21 2.488 . S
Eu0 O22 2.471 . S
Eu0 O23 2.349 . S
Eu1 O10 2.373 . S
Eu1 O14 2.488 . S
Eu1 O15 2.471 . S
Eu1 O16 2.349 . S
Eu1 O19 2.392 1_455 S
Eu1 O20 2.418 . S
Eu1 C30 2.828 . S
C2 O20 1.244 . S
C2 O23 1.265 1_455 S
C3 C4 1.379 . S
C3 C7 1.373 . S
C3 C9 1.505 . S
C4 C3 1.379 . S
C4 C6 1.369 . S
C4 H32 0.930 . S
C5 C7 1.383 . S
C5 C8 1.382 . S
C5 H33 0.930 . S
C6 C4 1.369 . S
C6 C8 1.392 . S
C6 H34 0.930 . S
C7 C3 1.373 . S
C7 C5 1.383 . S
C7 H35 0.931 . S
C8 C5 1.382 . S
C8 C6 1.392 . S
C9 Eu0 2.828 . S
C9 C3 1.505 . S
C9 O21 1.249 . S
C9 O22 1.244 . S
O10 Eu1 2.373 . S
O10 C12 1.258 . S
O11 Eu0 2.392 1_455 S
O11 C12 1.242 . S
C12 O10 1.258 . S
C12 O11 1.242 . S
O13 Eu0 2.418 . S
O13 C17 1.244 . S
O14 Eu1 2.488 . S
O14 C30 1.249 . S
O15 Eu1 2.471 . S
O15 C30 1.244 . S
O16 Eu1 2.349 . S
O16 C17 1.265 1_455 S
C17 O13 1.244 . S
C17 O16 1.265 1_655 S
O18 Eu0 2.373 . S
O18 C31 1.258 . S
O19 Eu1 2.392 1_655 S
O19 C31 1.242 . S
O20 Eu1 2.418 . S
O20 C2 1.244 . S
O21 Eu0 2.488 . S
O21 C9 1.249 . S
O22 Eu0 2.471 . S
O22 C9 1.244 . S
O23 Eu0 2.349 . S
O23 C2 1.265 1_655 S
C24 C25 1.379 . S
C24 C28 1.373 . S
C24 C30 1.505 . S
C25 C24 1.379 . S
C25 C27 1.369 . S
C25 H36 0.930 . S
C26 C28 1.383 . S
C26 C29 1.382 . S
C26 H37 0.930 . S
C27 C25 1.369 . S
C27 C29 1.392 . S
C27 H38 0.930 . S
C28 C24 1.373 . S
C28 C26 1.383 . S
C28 H39 0.931 . S
C29 C26 1.382 . S
C29 C27 1.392 . S
C30 Eu1 2.828 . S
C30 O14 1.249 . S
C30 O15 1.244 . S
C30 C24 1.505 . S
C31 O18 1.258 . S
C31 O19 1.242 . S
H32 C4 0.930 . S
H33 C5 0.930 . S
H34 C6 0.930 . S
H35 C7 0.931 . S
H36 C25 0.930 . S
H37 C26 0.930 . S
H38 C27 0.930 . S
H39 C28 0.931 . S
Eu40 C49 2.828 . S
Eu40 O51 2.392 1_565 S
Eu40 O53 2.418 . S
Eu40 O58 2.373 . S
Eu40 O61 2.488 . S
Eu40 O62 2.471 . S
Eu40 O63 2.349 . S
Eu41 O50 2.373 . S
Eu41 O54 2.488 . S
Eu41 O55 2.471 . S
Eu41 O56 2.349 . S
Eu41 O59 2.392 1_545 S
Eu41 O60 2.418 . S
Eu41 C70 2.828 . S
C42 O60 1.244 . S
C42 O63 1.265 1_545 S
C43 C44 1.379 . S
C43 C47 1.373 . S
C43 C49 1.505 . S
C44 C43 1.379 . S
C44 C46 1.369 . S
C44 H72 0.930 . S
C45 C47 1.383 . S
C45 C48 1.382 . S
C45 H73 0.930 . S
C46 C44 1.369 . S
C46 C48 1.392 . S
C46 H74 0.930 . S
C47 C43 1.373 . S
C47 C45 1.383 . S
C47 H75 0.931 . S
C48 C45 1.382 . S
C48 C46 1.392 . S
C49 Eu40 2.828 . S
C49 C43 1.505 . S
C49 O61 1.249 . S
C49 O62 1.244 . S
O50 Eu41 2.373 . S
O50 C52 1.258 . S
O51 Eu40 2.392 1_545 S
O51 C52 1.242 . S
C52 O50 1.258 . S
C52 O51 1.242 . S
O53 Eu40 2.418 . S
O53 C57 1.216 1_565 S
O54 Eu41 2.488 . S
O54 C70 1.249 . S
O55 Eu41 2.471 . S
O55 C70 1.244 . S
O56 Eu41 2.349 . S
O56 C57 1.279 . S
C57 O53 1.216 1_545 S
C57 O56 1.279 . S
O58 Eu40 2.373 . S
O58 C71 1.258 . S
O59 Eu41 2.392 1_565 S
O59 C71 1.242 . S
O60 Eu41 2.418 . S
O60 C42 1.244 . S
O61 Eu40 2.488 . S
O61 C49 1.249 . S
O62 Eu40 2.471 . S
O62 C49 1.244 . S
O63 Eu40 2.349 . S
O63 C42 1.265 1_565 S
C64 C65 1.379 . S
C64 C68 1.373 . S
C64 C70 1.505 . S
C65 C64 1.379 . S
C65 C67 1.369 . S
C65 H76 0.930 . S
C66 C68 1.383 . S
C66 C69 1.382 . S
C66 H77 0.930 . S
C67 C65 1.369 . S
C67 C69 1.392 . S
C67 H78 0.930 . S
C68 C64 1.373 . S
C68 C66 1.383 . S
C68 H79 0.931 . S
C69 C66 1.382 . S
C69 C67 1.392 . S
C70 Eu41 2.828 . S
C70 O54 1.249 . S
C70 O55 1.244 . S
C70 C64 1.505 . S
C71 O58 1.258 . S
C71 O59 1.242 . S
H72 C44 0.930 . S
H73 C45 0.930 . S
H74 C46 0.930 . S
H75 C47 0.931 . S
H76 C65 0.930 . S
H77 C66 0.930 . S
H78 C67 0.930 . S
H79 C68 0.931 . S
Eu80 C89 2.828 . S
Eu80 O91 2.392 . S
Eu80 O93 2.418 . S
Eu80 O98 2.373 . S
Eu80 O101 2.488 . S
Eu80 O102 2.471 . S
Eu80 O103 2.349 . S
Eu81 O90 2.373 . S
Eu81 O94 2.488 . S
Eu81 O95 2.471 . S
Eu81 O96 2.349 . S
Eu81 O99 2.392 . S
Eu81 O100 2.418 . S
Eu81 C110 2.828 . S
C82 O100 1.244 . S
C82 O103 1.265 . S
C83 C84 1.379 . S
C83 C87 1.373 . S
C83 C89 1.505 . S
C84 C83 1.379 . S
C84 C86 1.369 . S
C84 H112 0.930 . S
C85 C87 1.383 . S
C85 C88 1.382 . S
C85 H113 0.930 . S
C86 C84 1.369 . S
C86 C88 1.392 . S
C86 H114 0.930 . S
C87 C83 1.373 . S
C87 C85 1.383 . S
C87 H115 0.931 . S
C88 C85 1.382 . S
C88 C86 1.392 . S
C89 Eu80 2.828 . S
C89 C83 1.505 . S
C89 O101 1.249 . S
C89 O102 1.244 . S
O90 Eu81 2.373 . S
O90 C92 1.258 . S
O91 Eu80 2.392 . S
O91 C92 1.242 . S
C92 O90 1.258 . S
C92 O91 1.242 . S
O93 Eu80 2.418 . S
O93 C97 1.244 . S
O94 Eu81 2.488 . S
O94 C110 1.249 . S
O95 Eu81 2.471 . S
O95 C110 1.244 . S
O96 Eu81 2.349 . S
O96 C97 1.265 . S
C97 O93 1.244 . S
C97 O96 1.265 . S
O98 Eu80 2.373 . S
O98 C111 1.258 . S
O99 Eu81 2.392 . S
O99 C111 1.242 . S
O100 Eu81 2.418 . S
O100 C82 1.244 . S
O101 Eu80 2.488 . S
O101 C89 1.249 . S
O102 Eu80 2.471 . S
O102 C89 1.244 . S
O103 Eu80 2.349 . S
O103 C82 1.265 . S
C104 C105 1.379 . S
C104 C108 1.373 . S
C104 C110 1.505 . S
C105 C104 1.379 . S
C105 C107 1.369 . S
C105 H116 0.930 . S
C106 C108 1.383 . S
C106 C109 1.382 . S
C106 H117 0.930 . S
C107 C105 1.369 . S
C107 C109 1.392 . S
C107 H118 0.930 . S
C108 C104 1.373 . S
C108 C106 1.383 . S
C108 H119 0.931 . S
C109 C106 1.382 . S
C109 C107 1.392 . S
C110 Eu81 2.828 . S
C110 O94 1.249 . S
C110 O95 1.244 . S
C110 C104 1.505 . S
C111 O98 1.258 . S
C111 O99 1.242 . S
H112 C84 0.930 . S
H113 C85 0.930 . S
H114 C86 0.930 . S
H115 C87 0.931 . S
H116 C105 0.930 . S
H117 C106 0.930 . S
H118 C107 0.930 . S
H119 C108 0.931 . S
O120 Cd121 2.300 . S
O120 C127 1.275 . S
Cd121 O120 2.300 . S
Cd121 O129 2.381 . S
Cd121 O130 2.378 . S
O122 Cd123 2.385 . S
O122 C127 1.255 1_565 S
Cd123 O122 2.385 . S
Cd123 O124 2.317 . S
O124 Cd123 2.317 . S
O124 C125 1.232 . S
C125 O124 1.232 . S
C125 O126 1.218 . S
O126 C125 1.218 . S
C127 O120 1.275 . S
C127 O122 1.255 1_545 S
C128 O129 1.258 . S
C128 O130 1.256 . S
O129 Cd121 2.381 . S
O129 C128 1.258 . S
O130 Cd121 2.378 . S
O130 C128 1.256 . S
O131 Cd132 2.300 . S
O131 C138 1.275 . S
Cd132 O131 2.300 . S
Cd132 O140 2.381 . S
Cd132 O141 2.378 . S
O133 Cd134 2.385 . S
O133 C138 1.255 . S
Cd134 O133 2.385 . S
Cd134 O135 2.317 . S
O135 Cd134 2.317 . S
O135 C136 1.232 . S
C136 O135 1.232 . S
C136 O137 1.218 . S
O137 C136 1.218 . S
C138 O131 1.275 . S
C138 O133 1.255 . S
C139 O140 1.258 . S
C139 O141 1.256 . S
O140 Cd132 2.381 . S
O140 C139 1.258 . S
O141 Cd132 2.378 . S
O141 C139 1.256 . S
O142 Cd143 2.300 . S
O142 C149 1.275 . S
Cd143 O142 2.300 . S
Cd143 O151 2.381 . S
Cd143 O152 2.378 . S
O144 Cd145 2.385 . S
O144 C149 1.255 1_655 S
Cd145 O144 2.385 . S
Cd145 O146 2.317 . S
O146 Cd145 2.317 . S
O146 C147 1.232 . S
C147 O146 1.232 . S
C147 O148 1.218 . S
O148 C147 1.218 . S
C149 O142 1.275 . S
C149 O144 1.255 1_455 S
C150 O151 1.258 . S
C150 O152 1.256 . S
O151 Cd143 2.381 . S
O151 C150 1.258 . S
O152 Cd143 2.378 . S
O152 C150 1.256 . S
O153 Cd154 2.300 . S
O153 C160 1.275 . S
Cd154 O153 2.300 . S
Cd154 O162 2.381 . S
Cd154 O163 2.378 . S
O155 Cd156 2.385 . S
O155 C160 1.255 1_655 S
Cd156 O155 2.385 . S
Cd156 O157 2.317 . S
O157 Cd156 2.317 . S
O157 C158 1.232 . S
C158 O157 1.232 . S
C158 O159 1.218 . S
O159 C158 1.218 . S
C160 O153 1.275 . S
C160 O155 1.255 1_455 S
C161 O162 1.258 . S
C161 O163 1.256 . S
O162 Cd154 2.381 . S
O162 C161 1.258 . S
O163 Cd154 2.378 . S
O163 C161 1.256 . S
O164 Cd165 2.300 . S
O164 C171 1.275 1_565 S
Cd165 O164 2.300 . S
Cd165 O173 2.381 . S
Cd165 O174 2.378 . S
O166 Cd167 2.385 . S
O166 C171 1.255 . S
Cd167 O166 2.385 . S
Cd167 O168 2.317 . S
O168 Cd167 2.317 . S
O168 C169 1.232 . S
C169 O168 1.232 . S
C169 O170 1.218 . S
O170 C169 1.218 . S
C171 O164 1.275 1_545 S
C171 O166 1.255 . S
C172 O173 1.258 . S
C172 O174 1.256 . S
O173 Cd165 2.381 . S
O173 C172 1.258 . S
O174 Cd165 2.378 . S
O174 C172 1.256 . S
O175 Cd176 2.300 . S
O175 C182 1.275 . S
Cd176 O175 2.300 . S
Cd176 O184 2.381 . S
Cd176 O185 2.378 . S
O177 Cd178 2.385 . S
O177 C182 1.255 . S
Cd178 O177 2.385 . S
Cd178 O179 2.317 . S
O179 Cd178 2.317 . S
O179 C180 1.232 . S
C180 O179 1.232 . S
C180 O181 1.218 . S
O181 C180 1.218 . S
C182 O175 1.275 . S
C182 O177 1.255 . S
C183 O184 1.258 . S
C183 O185 1.256 . S
O184 Cd176 2.381 . S
O184 C183 1.258 . S
O185 Cd176 2.378 . S
O185 C183 1.256 . S
H186 C192 0.930 . S
H187 C195 0.930 . S
H188 C196 0.930 . S
H189 C197 0.930 . S
H190 C200 0.930 . S
H191 C201 0.930 . S
C192 H186 0.930 . S
C192 C193 1.355 . S
C192 C194 1.415 . S
C193 C192 1.355 . S
C193 C195 1.419 . S
C194 C192 1.415 . S
C194 C199 1.425 . S
C194 C201 1.409 . S
C195 H187 0.930 . S
C195 C193 1.419 . S
C195 C196 1.362 . S
C196 H188 0.930 . S
C196 C195 1.362 . S
C196 C199 1.409 . S
C197 H189 0.930 . S
C197 C198 1.355 . S
C197 C199 1.415 . S
C198 C197 1.355 . S
C198 C200 1.419 . S
C199 C194 1.425 . S
C199 C196 1.409 . S
C199 C197 1.415 . S
C200 H190 0.930 . S
C200 C198 1.419 . S
C200 C201 1.362 . S
C201 H191 0.930 . S
C201 C194 1.409 . S
C201 C200 1.362 . S
H202 C208 0.930 . S
H203 C211 0.930 . S
H204 C212 0.930 . S
H205 C213 0.930 . S
H206 C216 0.930 . S
H207 C217 0.930 . S
C208 H202 0.930 . S
C208 C209 1.355 . S
C208 C210 1.415 . S
C209 C208 1.355 . S
C209 C211 1.419 . S
C210 C208 1.415 . S
C210 C215 1.425 . S
C210 C217 1.409 . S
C211 H203 0.930 . S
C211 C209 1.419 . S
C211 C212 1.362 . S
C212 H204 0.930 . S
C212 C211 1.362 . S
C212 C215 1.409 . S
C213 H205 0.930 . S
C213 C214 1.355 . S
C213 C215 1.415 . S
C214 C213 1.355 . S
C214 C216 1.419 . S
C215 C210 1.425 . S
C215 C212 1.409 . S
C215 C213 1.415 . S
C216 H206 0.930 . S
C216 C214 1.419 . S
C216 C217 1.362 . S
C217 H207 0.930 . S
C217 C210 1.409 . S
C217 C216 1.362 . S
H218 C224 0.930 . S
H219 C227 0.930 . S
H220 C228 0.930 . S
H221 C229 0.930 . S
H222 C232 0.930 . S
H223 C233 0.930 . S
C224 H218 0.930 . S
C224 C225 1.355 . S
C224 C226 1.415 . S
C225 C224 1.355 . S
C225 C227 1.419 . S
C226 C224 1.415 . S
C226 C231 1.425 . S
C226 C233 1.409 . S
C227 H219 0.930 . S
C227 C225 1.419 . S
C227 C228 1.362 . S
C228 H220 0.930 . S
C228 C227 1.362 . S
C228 C231 1.409 . S
C229 H221 0.930 . S
C229 C230 1.355 . S
C229 C231 1.415 . S
C230 C229 1.355 . S
C230 C232 1.419 . S
C231 C226 1.425 . S
C231 C228 1.409 . S
C231 C229 1.415 . S
C232 H222 0.930 . S
C232 C230 1.419 . S
C232 C233 1.362 . S
C233 H223 0.930 . S
C233 C226 1.409 . S
C233 C232 1.362 . S
H234 C240 0.930 . S
H235 C243 0.930 . S
H236 C244 0.930 . S
H237 C245 0.930 . S
H238 C248 0.930 . S
H239 C249 0.930 . S
C240 H234 0.930 . S
C240 C241 1.355 . S
C240 C242 1.415 . S
C241 C240 1.355 . S
C241 C243 1.419 . S
C242 C240 1.415 . S
C242 C247 1.425 . S
C242 C249 1.409 . S
C243 H235 0.930 . S
C243 C241 1.419 . S
C243 C244 1.362 . S
C244 H236 0.930 . S
C244 C243 1.362 . S
C244 C247 1.409 . S
C245 H237 0.930 . S
C245 C246 1.355 . S
C245 C247 1.415 . S
C246 C245 1.355 . S
C246 C248 1.419 . S
C247 C242 1.425 . S
C247 C244 1.409 . S
C247 C245 1.415 . S
C248 H238 0.930 . S
C248 C246 1.419 . S
C248 C249 1.362 . S
C249 H239 0.930 . S
C249 C242 1.409 . S
C249 C248 1.362 . S
H250 C256 0.930 . S
H251 C259 0.930 . S
H252 C260 0.930 . S
H253 C261 0.930 . S
H254 C264 0.930 . S
H255 C265 0.930 . S
C256 H250 0.930 . S
C256 C257 1.355 . S
C256 C258 1.415 . S
C257 C256 1.355 . S
C257 C259 1.419 . S
C258 C256 1.415 . S
C258 C263 1.425 . S
C258 C265 1.409 . S
C259 H251 0.930 . S
C259 C257 1.419 . S
C259 C260 1.362 . S
C260 H252 0.930 . S
C260 C259 1.362 . S
C260 C263 1.409 . S
C261 H253 0.930 . S
C261 C262 1.355 . S
C261 C263 1.415 . S
C262 C261 1.355 . S
C262 C264 1.419 . S
C263 C258 1.425 . S
C263 C260 1.409 . S
C263 C261 1.415 . S
C264 H254 0.930 . S
C264 C262 1.419 . S
C264 C265 1.362 . S
C265 H255 0.930 . S
C265 C258 1.409 . S
C265 C264 1.362 . S
H266 C272 0.930 . S
H267 C275 0.930 . S
H268 C276 0.930 . S
H269 C277 0.930 . S
H270 C280 0.930 . S
H271 C281 0.930 . S
C272 H266 0.930 . S
C272 C273 1.355 . S
C272 C274 1.415 . S
C273 C272 1.355 . S
C273 C275 1.419 . S
C274 C272 1.415 . S
C274 C279 1.425 . S
C274 C281 1.409 . S
C275 H267 0.930 . S
C275 C273 1.419 . S
C275 C276 1.362 . S
C276 H268 0.930 . S
C276 C275 1.362 . S
C276 C279 1.409 . S
C277 H269 0.930 . S
C277 C278 1.355 . S
C277 C279 1.415 . S
C278 C277 1.355 . S
C278 C280 1.419 . S
C279 C274 1.425 . S
C279 C276 1.409 . S
C279 C277 1.415 . S
C280 H270 0.930 . S
C280 C278 1.419 . S
C280 C281 1.362 . S
C281 H271 0.930 . S
C281 C274 1.409 . S
C281 C280 1.362 . S
H282 C288 0.930 . S
H283 C291 0.930 . S
H284 C292 0.930 . S
H285 C293 0.930 . S
H286 C296 0.930 . S
H287 C297 0.930 . S
C288 H282 0.930 . S
C288 C289 1.355 . S
C288 C290 1.415 . S
C289 C288 1.355 . S
C289 C291 1.419 . S
C290 C288 1.415 . S
C290 C295 1.425 . S
C290 C297 1.409 . S
C291 H283 0.930 . S
C291 C289 1.419 . S
C291 C292 1.362 . S
C292 H284 0.930 . S
C292 C291 1.362 . S
C292 C295 1.409 . S
C293 H285 0.930 . S
C293 C294 1.355 . S
C293 C295 1.415 . S
C294 C293 1.355 . S
C294 C296 1.419 . S
C295 C290 1.425 . S
C295 C292 1.409 . S
C295 C293 1.415 . S
C296 H286 0.930 . S
C296 C294 1.419 . S
C296 C297 1.362 . S
C297 H287 0.930 . S
C297 C290 1.409 . S
C297 C296 1.362 . S
H298 C304 0.930 . S
H299 C307 0.930 . S
H300 C308 0.930 . S
H301 C309 0.930 . S
H302 C312 0.930 . S
H303 C313 0.930 . S
C304 H298 0.930 . S
C304 C305 1.355 . S
C304 C306 1.415 . S
C305 C304 1.355 . S
C305 C307 1.419 . S
C306 C304 1.415 . S
C306 C311 1.425 . S
C306 C313 1.409 . S
C307 H299 0.930 . S
C307 C305 1.419 . S
C307 C308 1.362 . S
C308 H300 0.930 . S
C308 C307 1.362 . S
C308 C311 1.409 . S
C309 H301 0.930 . S
C309 C310 1.355 . S
C309 C311 1.415 . S
C310 C309 1.355 . S
C310 C312 1.419 . S
C311 C306 1.425 . S
C311 C308 1.409 . S
C311 C309 1.415 . S
C312 H302 0.930 . S
C312 C310 1.419 . S
C312 C313 1.362 . S
C313 H303 0.930 . S
C313 C306 1.409 . S
C313 C312 1.362 . S
H314 C320 0.930 . S
H315 C323 0.930 . S
H316 C324 0.930 . S
H317 C325 0.930 . S
H318 C328 0.930 . S
H319 C329 0.930 . S
C320 H314 0.930 . S
C320 C321 1.355 . S
C320 C322 1.415 . S
C321 C320 1.355 . S
C321 C323 1.419 . S
C322 C320 1.415 . S
C322 C327 1.425 . S
C322 C329 1.409 . S
C323 H315 0.930 . S
C323 C321 1.419 . S
C323 C324 1.362 . S
C324 H316 0.930 . S
C324 C323 1.362 . S
C324 C327 1.409 . S
C325 H317 0.930 . S
C325 C326 1.355 . S
C325 C327 1.415 . S
C326 C325 1.355 . S
C326 C328 1.419 . S
C327 C322 1.425 . S
C327 C324 1.409 . S
C327 C325 1.415 . S
C328 H318 0.930 . S
C328 C326 1.419 . S
C328 C329 1.362 . S
C329 H319 0.930 . S
C329 C322 1.409 . S
C329 C328 1.362 . S
H330 C336 0.930 . S
H331 C339 0.930 . S
H332 C340 0.930 . S
H333 C341 0.930 . S
H334 C344 0.930 . S
H335 C345 0.930 . S
C336 H330 0.930 . S
C336 C337 1.355 . S
C336 C338 1.415 . S
C337 C336 1.355 . S
C337 C339 1.419 . S
C338 C336 1.415 . S
C338 C343 1.425 . S
C338 C345 1.409 . S
C339 H331 0.930 . S
C339 C337 1.419 . S
C339 C340 1.362 . S
C340 H332 0.930 . S
C340 C339 1.362 . S
C340 C343 1.409 . S
C341 H333 0.930 . S
C341 C342 1.355 . S
C341 C343 1.415 . S
C342 C341 1.355 . S
C342 C344 1.419 . S
C343 C338 1.425 . S
C343 C340 1.409 . S
C343 C341 1.415 . S
C344 H334 0.930 . S
C344 C342 1.419 . S
C344 C345 1.362 . S
C345 H335 0.930 . S
C345 C338 1.409 . S
C345 C344 1.362 . S
H346 C352 0.930 . S
H347 C355 0.930 . S
H348 C356 0.930 . S
H349 C357 0.930 . S
H350 C360 0.930 . S
H351 C361 0.930 . S
C352 H346 0.930 . S
C352 C353 1.355 . S
C352 C354 1.415 . S
C353 C352 1.355 . S
C353 C355 1.419 . S
C354 C352 1.415 . S
C354 C359 1.425 . S
C354 C361 1.409 . S
C355 H347 0.930 . S
C355 C353 1.419 . S
C355 C356 1.362 . S
C356 H348 0.930 . S
C356 C355 1.362 . S
C356 C359 1.409 . S
C357 H349 0.930 . S
C357 C358 1.355 . S
C357 C359 1.415 . S
C358 C357 1.355 . S
C358 C360 1.419 . S
C359 C354 1.425 . S
C359 C356 1.409 . S
C359 C357 1.415 . S
C360 H350 0.930 . S
C360 C358 1.419 . S
C360 C361 1.362 . S
C361 H351 0.930 . S
C361 C354 1.409 . S
C361 C360 1.362 . S
H362 C368 0.930 . S
H363 C371 0.930 . S
H364 C372 0.930 . S
H365 C373 0.930 . S
H366 C376 0.930 . S
H367 C377 0.930 . S
C368 H362 0.930 . S
C368 C369 1.355 . S
C368 C370 1.415 . S
C369 C368 1.355 . S
C369 C371 1.419 . S
C370 C368 1.415 . S
C370 C375 1.425 . S
C370 C377 1.409 . S
C371 H363 0.930 . S
C371 C369 1.419 . S
C371 C372 1.362 . S
C372 H364 0.930 . S
C372 C371 1.362 . S
C372 C375 1.409 . S
C373 H365 0.930 . S
C373 C374 1.355 . S
C373 C375 1.415 . S
C374 C373 1.355 . S
C374 C376 1.419 . S
C375 C370 1.425 . S
C375 C372 1.409 . S
C375 C373 1.415 . S
C376 H366 0.930 . S
C376 C374 1.419 . S
C376 C377 1.362 . S
C377 H367 0.930 . S
C377 C370 1.409 . S
C377 C376 1.362 . S
H378 C384 0.930 . S
H379 C387 0.930 . S
H380 C388 0.930 . S
H381 C389 0.930 . S
H382 C392 0.930 . S
H383 C393 0.930 . S
C384 H378 0.930 . S
C384 C385 1.355 . S
C384 C386 1.415 . S
C385 C384 1.355 . S
C385 C387 1.419 1_455 S
C386 C384 1.415 . S
C386 C391 1.425 1_455 S
C386 C393 1.409 . S
C387 H379 0.930 . S
C387 C385 1.419 1_655 S
C387 C388 1.362 . S
C388 H380 0.930 . S
C388 C387 1.362 . S
C388 C391 1.409 . S
C389 H381 0.930 . S
C389 C390 1.355 1_655 S
C389 C391 1.415 1_556 S
C390 C389 1.355 1_455 S
C390 C392 1.419 . S
C391 C386 1.425 1_655 S
C391 C388 1.409 . S
C391 C389 1.415 1_554 S
C392 H382 0.930 . S
C392 C390 1.419 . S
C392 C393 1.362 1_556 S
C393 H383 0.930 . S
C393 C386 1.409 . S
C393 C392 1.362 1_554 S
H394 C400 0.930 . S
H395 C403 0.930 . S
H396 C404 0.930 . S
H397 C405 0.930 . S
H398 C408 0.930 . S
H399 C409 0.930 . S
C400 H394 0.930 . S
C400 C401 1.355 . S
C400 C402 1.415 . S
C401 C400 1.355 . S
C401 C403 1.419 1_545 S
C402 C400 1.415 . S
C402 C407 1.425 1_545 S
C402 C409 1.409 . S
C403 H395 0.930 . S
C403 C401 1.419 1_565 S
C403 C404 1.362 . S
C404 H396 0.930 . S
C404 C403 1.362 . S
C404 C407 1.409 . S
C405 H397 0.930 . S
C405 C406 1.355 1_565 S
C405 C407 1.415 . S
C406 C405 1.355 1_545 S
C406 C408 1.419 . S
C407 C402 1.425 1_565 S
C407 C404 1.409 . S
C407 C405 1.415 . S
C408 H398 0.930 . S
C408 C406 1.419 . S
C408 C409 1.362 . S
C409 H399 0.930 . S
C409 C402 1.409 . S
C409 C408 1.362 . S
H410 C416 0.930 . S
H411 C419 0.930 . S
H412 C420 0.930 . S
H413 C421 0.930 . S
H414 C424 0.930 . S
H415 C425 0.930 . S
C416 H410 0.930 . S
C416 C417 1.355 . S
C416 C418 1.415 . S
C417 C416 1.355 . S
C417 C419 1.419 . S
C418 C416 1.415 . S
C418 C423 1.425 . S
C418 C425 1.409 . S
C419 H411 0.930 . S
C419 C417 1.419 . S
C419 C420 1.362 . S
C420 H412 0.930 . S
C420 C419 1.362 . S
C420 C423 1.409 . S
C421 H413 0.930 . S
C421 C422 1.355 . S
C421 C423 1.415 . S
C422 C421 1.355 . S
C422 C424 1.419 . S
C423 C418 1.425 . S
C423 C420 1.409 . S
C423 C421 1.415 . S
C424 H414 0.930 . S
C424 C422 1.419 . S
C424 C425 1.362 . S
C425 H415 0.930 . S
C425 C418 1.409 . S
C425 C424 1.362 . S
H426 C432 0.930 . S
H427 C435 0.930 . S
H428 C436 0.930 . S
H429 C437 0.932 . S
H430 C440 0.930 . S
H431 C441 0.930 . S
C432 H426 0.930 . S
C432 C433 1.355 . S
C432 C434 1.415 . S
C433 C432 1.355 . S
C433 C435 1.419 1_545 S
C434 C432 1.415 . S
C434 C439 1.425 . S
C434 C441 1.409 . S
C435 H427 0.930 . S
C435 C433 1.419 1_565 S
C435 C436 1.362 . S
C436 H428 0.930 . S
C436 C435 1.362 . S
C436 C439 1.409 1_565 S
C437 H429 0.932 . S
C437 C438 1.352 1_565 S
C437 C439 1.414 1_565 S
C438 C437 1.352 1_545 S
C438 C440 1.419 . S
C439 C434 1.425 . S
C439 C436 1.409 1_545 S
C439 C437 1.414 1_545 S
C440 H430 0.930 . S
C440 C438 1.419 . S
C440 C441 1.362 . S
C441 H431 0.930 . S
C441 C434 1.409 . S
C441 C440 1.362 . S
H442 C448 0.930 . S
H443 C451 0.930 . S
H444 C452 0.930 . S
H445 C453 0.930 . S
H446 C456 0.930 . S
H447 C457 0.930 . S
C448 H442 0.930 . S
C448 C449 1.355 . S
C448 C450 1.415 . S
C449 C448 1.355 . S
C449 C451 1.419 . S
C450 C448 1.415 . S
C450 C455 1.425 . S
C450 C457 1.409 . S
C451 H443 0.930 . S
C451 C449 1.419 . S
C451 C452 1.362 . S
C452 H444 0.930 . S
C452 C451 1.362 . S
C452 C455 1.409 . S
C453 H445 0.930 . S
C453 C454 1.355 . S
C453 C455 1.415 1_554 S
C454 C453 1.355 . S
C454 C456 1.419 . S
C455 C450 1.425 . S
C455 C452 1.409 . S
C455 C453 1.415 1_556 S
C456 H446 0.930 . S
C456 C454 1.419 . S
C456 C457 1.362 1_554 S
C457 H447 0.930 . S
C457 C450 1.409 . S
C457 C456 1.362 1_556 S
H458 C464 0.930 . S
H459 C467 0.930 . S
H460 C468 0.930 . S
H461 C469 0.930 . S
H462 C472 0.930 . S
H463 C473 0.930 . S
C464 H458 0.930 . S
C464 C465 1.355 1_455 S
C464 C466 1.415 . S
C465 C464 1.355 1_655 S
C465 C467 1.419 . S
C466 C464 1.415 . S
C466 C471 1.425 1_455 S
C466 C473 1.409 . S
C467 H459 0.930 . S
C467 C465 1.419 . S
C467 C468 1.362 . S
C468 H460 0.930 . S
C468 C467 1.362 . S
C468 C471 1.409 . S
C469 H461 0.930 . S
C469 C470 1.340 1_655 S
C469 C471 1.415 . S
C470 C469 1.340 1_455 S
C470 C472 1.437 . S
C471 C466 1.425 1_655 S
C471 C468 1.409 . S
C471 C469 1.415 . S
C472 H462 0.930 . S
C472 C470 1.437 . S
C472 C473 1.362 . S
C473 H463 0.930 . S
C473 C466 1.409 . S
C473 C472 1.362 . S
C193 C12 3.136 . S
C198 C180 2.760 . S
C209 C52 3.136 . S
C214 C158 2.777 . S
C225 C111 2.910 . S
C230 C172 2.826 . S
C241 C31 3.012 . S
C246 C183 2.930 . S
C262 C161 2.925 . S
C257 C71 3.006 . S
C278 C169 2.871 . S
C273 C92 3.223 . S
C289 C48 0.706 . S
C294 C136 0.809 . S
C305 C109 0.543 . S
C310 C147 0.756 . S
C321 C29 0.686 . S
C326 C125 0.678 . S
C342 C139 0.350 . S
C337 C69 0.498 . S
C358 C150 0.232 . S
C353 C88 0.265 . S
C369 C8 0.334 . S
C374 C128 0.162 . S
C390 C149 1.077 . S
C385 C17 1.189 1_455 S
C401 C57 1.185 . S
C406 C127 1.092 . S
C417 C97 1.192 . S
C422 C138 1.196 . S
C438 C171 1.706 . S
C433 C42 1.712 . S
C454 C182 1.652 . S
C449 C82 1.739 . S
C465 C2 1.737 1_655 S
C470 C160 1.671 . S
