# Generated by pormake.
# Topology pts, (4,4)-cn, num edge types: 1
# Building blocks:
#     Node 0, Type 0, BuildingBlock: ESEHIV_clean_sbu_0, # of connection points: 4
#     Node 1, Type 0, BuildingBlock: ESEHIV_clean_sbu_0, # of connection points: 4
#     Node 2, Type 1, BuildingBlock: UXUYUI_clean_sbu_0, # of connection points: 4
#     Node 3, Type 1, BuildingBlock: UXUYUI_clean_sbu_0, # of connection points: 4
#     Edge 4, Type (0, 1), BuildingBlock: EZIPEK_clean_linker_0, # of connection points: 2
#     Edge 5, Type (0, 1), BuildingBlock: EZIPEK_clean_linker_0, # of connection points: 2
#     Edge 6, Type (0, 1), BuildingBlock: EZIPEK_clean_linker_0, # of connection points: 2
#     Edge 7, Type (0, 1), BuildingBlock: EZIPEK_clean_linker_0, # of connection points: 2
#     Edge 8, Type (0, 1), BuildingBlock: EZIPEK_clean_linker_0, # of connection points: 2
#     Edge 9, Type (0, 1), BuildingBlock: EZIPEK_clean_linker_0, # of connection points: 2
#     Edge 10, Type (0, 1), BuildingBlock: EZIPEK_clean_linker_0, # of connection points: 2
#     Edge 11, Type (0, 1), BuildingBlock: EZIPEK_clean_linker_0, # of connection points: 2
# Relax obj value: 0.002
# Max RMSD: 0.096
# Mean RMSD: 0.064
data_MOF--net-pts--node1-ESEHIV_clean_sbu_0--node2-UXUYUI_clean_sbu_0--edge1-EZIPEK_clean_linker_0
_symmetry_space_group_name_H-M    P1
_symmetry_Int_Tables_number       1
_symmetry_cell_setting            triclinic
loop_
_symmetry_equiv_pos_as_xyz
'x, y, z'
_cell_length_a     23.986717
_cell_length_b     23.828529
_cell_length_c     36.003504
_cell_angle_alpha  93.650186
_cell_angle_beta   93.508211
_cell_angle_gamma 89.949656
loop_
_atom_site_label
_atom_site_type_symbol
_atom_site_fract_x
_atom_site_fract_y
_atom_site_fract_z
_atom_type_partial_charge
Cu0 Cu 0.58229 0.06477 0.02092 0.0
N1 N 0.62375 1.02243 0.98696 0.0
N2 N 0.6892 1.00322 0.94671 0.0
C3 C 0.66998 0.04102 0.97222 0.0
C4 C 0.6539 0.95905 0.94514 0.0
C5 C 0.61342 0.97102 0.97016 0.0
O6 O 0.63486 0.10605 0.05562 0.0
C7 C 0.49458 0.08257 0.97168 0.0
O8 O 0.49557 0.02745 0.97126 0.0
H9 H 0.68851 0.08199 0.97941 0.0
H10 H 0.57831 0.94466 0.97511 0.0
N11 N 0.53907 1.02042 0.04901 0.0
N12 N 0.47252 0.99928 0.08634 0.0
C13 C 0.49518 0.03967 0.06753 0.0
C14 C 0.54448 0.96594 0.05655 0.0
C15 C 0.50316 0.9527 0.0797 0.0
C16 C 0.67124 0.0751 0.07146 0.0
O17 O 0.66959 1.02054 0.06344 0.0
H18 H 0.48048 0.08262 0.06757 0.0
H19 H 0.57655 0.93809 0.04637 0.0
O20 O 0.53093 0.11086 0.99228 0.0
H21 H 0.65681 0.92146 0.92684 0.0
H22 H 0.49638 0.91246 0.09106 0.0
Cu23 Cu 0.05521 0.58816 0.52139 0.0
N24 N 1.01265 0.54968 0.55331 0.0
N25 N 0.9939 0.48523 0.59302 0.0
C26 C 0.03307 0.50747 0.57312 0.0
C27 C 0.94692 0.5148 0.58598 0.0
C28 C 0.95867 0.55483 0.56135 0.0
O29 O 0.09822 0.53106 0.49469 0.0
C30 C 0.06745 0.68335 0.56715 0.0
O31 O 1.0129 0.67949 0.56177 0.0
H32 H 0.07578 0.49284 0.57263 0.0
H33 H 0.9299 0.58524 0.55008 0.0
N34 N 1.01278 0.62622 0.48585 0.0
N35 N 0.99412 0.6908 0.44477 0.0
C36 C 0.0332 0.66877 0.46791 0.0
C37 C 0.95891 0.62059 0.47318 0.0
C38 C 0.94721 0.6607 0.44768 0.0
C39 C 0.06808 0.49319 0.47666 0.0
O40 O 1.01351 0.49637 0.47759 0.0
H41 H 0.07582 0.68387 0.47214 0.0
H42 H 0.93016 0.58985 0.48193 0.0
O43 O 0.09781 0.64578 0.55166 0.0
H44 H 0.90716 0.50759 0.59758 0.0
H45 H 0.9075 0.66767 0.43277 0.0
Li46 Li 0.09404 0.13861 0.2988 0.0
Li47 Li 0.06883 0.03857 0.29213 0.0
Li48 Li 0.1299 0.07829 0.24662 0.0
Li49 Li 0.02858 0.0983 0.24566 0.0
C50 C 0.19766 0.08678 0.31574 0.0
N51 N 0.3044 0.11561 0.34361 0.0
C52 C 0.22109 0.06183 0.34713 0.0
C53 C 0.22866 0.12604 0.29839 0.0
C54 C 0.27506 0.0771 0.36086 0.0
C55 C 0.28252 0.14012 0.3129 0.0
C56 C 0.98862 0.08543 0.32797 0.0
C57 C 0.91436 0.02889 0.3483 0.0
N58 N 0.93122 0.04342 0.38439 0.0
C59 C 1.00507 0.10006 0.36523 0.0
C60 C 0.94273 0.04985 0.31935 0.0
C61 C 0.97552 0.07832 0.39336 0.0
C62 C 0.07544 0.24951 0.32427 0.0
N63 N 0.1064 0.20352 0.33232 0.0
C64 C 0.14533 0.25096 0.38858 0.0
C65 C 0.14123 0.20345 0.36363 0.0
C66 C 0.11257 0.2983 0.38135 0.0
C67 C 0.07797 0.29768 0.34852 0.0
H68 H 0.04775 0.24818 0.29936 0.0
H69 H 0.16456 0.16612 0.36992 0.0
C70 C 0.02681 0.92947 0.30289 0.0
N71 N 0.05552 0.9742 0.31984 0.0
C72 C 1.01527 0.88288 0.32281 0.0
C73 C 0.06412 0.92852 0.37722 0.0
C74 C 0.07431 0.97451 0.35629 0.0
C75 C 0.03415 0.88214 0.36039 0.0
H76 H 1.01277 0.92984 0.2739 0.0
H77 H 0.09685 1.01069 0.36915 0.0
C78 C 0.11008 0.19481 0.22514 0.0
N79 N 0.14631 0.28224 0.18567 0.0
C80 C 0.08892 0.20098 0.18859 0.0
C81 C 0.14903 0.23376 0.24181 0.0
C82 C 0.10796 0.24524 0.16904 0.0
C83 C 0.16698 0.27749 0.22135 0.0
C84 C 0.03948 0.99787 0.20669 0.0
C85 C 0.06677 0.98839 0.17367 0.0
C86 C 0.98399 0.98052 0.20807 0.0
C87 C 0.03793 0.962 0.14246 0.0
C88 C 0.95657 0.95437 0.17624 0.0
N89 N 0.98388 0.94574 0.14436 0.0
C90 C 0.22975 1.02386 0.22821 0.0
C91 C 0.19844 0.08982 0.18499 0.0
C92 C 0.27624 1.01094 0.20773 0.0
N93 N 0.19229 0.06307 0.21677 0.0
C94 C 0.24432 0.07823 0.16368 0.0
C95 C 0.28383 0.03853 0.17517 0.0
H96 H 0.22352 1.00271 0.25334 0.0
H97 H 0.16763 0.1198 0.17595 0.0
C98 C 0.9163 0.13127 0.23124 0.0
N99 N 0.96304 0.11313 0.21458 0.0
C100 C 0.86578 0.13596 0.21014 0.0
C101 C 0.91283 0.10491 0.15503 0.0
C102 C 0.9626 0.10209 0.17702 0.0
C103 C 0.86343 0.1206 0.17178 0.0
H104 H 0.91785 0.14038 0.26109 0.0
H105 H 1.00037 0.08855 0.16428 0.0
O106 O 0.14481 0.07229 0.30204 0.0
O107 O 1.01813 0.10479 0.30008 0.0
O108 O 0.09125 0.1521 0.24487 0.0
O109 O 0.06708 1.02389 0.23746 0.0
H110 H 0.19779 0.03111 0.36079 0.0
H111 H 0.21162 0.1449 0.27372 0.0
H112 H 0.29365 0.05828 0.38521 0.0
H113 H 0.30698 0.1704 0.29968 0.0
H114 H 0.87904 1.00094 0.34207 0.0
H115 H 0.04066 0.12736 0.37234 0.0
H116 H 0.92957 0.03806 0.29064 0.0
H117 H 0.98796 0.089 0.42234 0.0
H118 H 0.17206 0.2501 0.41389 0.0
H119 H 0.05195 0.33349 0.34233 0.0
H120 H 0.99216 0.84762 0.30904 0.0
H121 H 0.07925 0.92912 0.40621 0.0
H122 H 0.05853 0.17161 0.1753 0.0
H123 H 0.165 0.23068 0.27034 0.0
H124 H 0.09221 0.25019 0.14063 0.0
H125 H 0.19721 0.30779 0.2339 0.0
H126 H 0.10973 1.0013 0.17211 0.0
H127 H 0.96191 0.98827 0.23318 0.0
H128 H 0.0585 0.95451 0.1167 0.0
H129 H 0.91348 0.94127 0.17681 0.0
H130 H 0.30601 0.97991 0.21715 0.0
H131 H 0.24898 0.0999 0.13849 0.0
H132 H 0.82838 0.14865 0.22382 0.0
H133 H 0.91247 0.09311 0.12546 0.0
Li134 Li 0.03701 0.07978 0.79639 0.0
Li135 Li 0.13851 0.09998 0.80069 0.0
Li136 Li 0.07416 0.13975 0.75232 0.0
Li137 Li 0.09872 0.04001 0.74623 0.0
C138 C 0.05087 0.17819 0.83723 0.0
N139 N 0.99974 0.22629 0.89815 0.0
C140 C 0.08066 0.18574 0.87178 0.0
C141 C 0.99516 0.19542 0.8336 0.0
C142 C 0.05405 0.21011 0.90225 0.0
C143 C 0.97002 0.21951 0.86476 0.0
C144 C 0.11859 0.98127 0.81918 0.0
C145 C 0.17383 0.8969 0.82338 0.0
N146 N 0.15469 0.88969 0.85754 0.0
C147 C 0.09908 0.97261 0.85417 0.0
C148 C 0.15596 0.94277 0.80352 0.0
C149 C 0.11799 0.92626 0.87319 0.0
C150 C 0.92678 0.04306 0.80493 0.0
N151 N 0.97403 0.06284 0.8242 0.0
C152 C 0.93008 0.05971 0.88195 0.0
C153 C 0.97667 0.07055 0.86206 0.0
C154 C 0.88073 0.03985 0.86269 0.0
C155 C 0.87937 0.03101 0.82376 0.0
H156 H 0.92587 0.03676 0.77489 0.0
H157 H 1.01481 0.08559 0.87688 0.0
C158 C 0.24221 0.1511 0.82522 0.0
N159 N 0.20341 0.11308 0.83377 0.0
C160 C 0.29223 0.15806 0.84713 0.0
C161 C 0.26037 0.08828 0.88697 0.0
C162 C 0.21098 0.08293 0.86448 0.0
C163 C 0.30202 0.12532 0.87788 0.0
H164 H 0.23491 0.1749 0.8008 0.0
H165 H 0.17913 0.05406 0.87124 0.0
C166 C 0.99128 0.09325 0.71206 0.0
N167 N 0.92997 0.13578 0.65283 0.0
C168 C 1.00548 0.07943 0.67554 0.0
C169 C 0.94568 0.12832 0.71849 0.0
C170 C 0.97397 0.10142 0.64596 0.0
C171 C 0.9153 0.14954 0.68816 0.0
C172 C 0.20187 0.09192 0.7353 0.0
C173 C 0.22406 0.11737 0.70553 0.0
C174 C 0.23351 0.05227 0.75425 0.0
C175 C 0.2774 0.10224 0.69498 0.0
C176 C 0.28673 0.03837 0.74295 0.0
N177 N 0.30737 0.06338 0.71375 0.0
C178 C 0.02947 0.24789 0.73865 0.0
C179 C 0.07722 0.20415 0.68888 0.0
C180 C 1.01685 0.29425 0.71782 0.0
N181 N 0.05895 0.20398 0.72391 0.0
C182 C 0.06599 0.24992 0.66718 0.0
C183 C 0.0354 0.29556 0.68171 0.0
H184 H 1.01561 0.24694 0.76653 0.0
H185 H 0.10014 0.16848 0.67771 0.0
C186 C 0.07704 0.92961 0.71901 0.0
N187 N 0.10863 0.9752 0.71314 0.0
C188 C 0.07858 0.88117 0.69514 0.0
C189 C 0.14596 0.92694 0.65986 0.0
C190 C 0.1429 0.97471 0.68433 0.0
C191 C 0.11281 0.87989 0.66492 0.0
H192 H 0.04985 0.93135 0.74195 0.0
H193 H 0.16678 1.01171 0.67969 0.0
O194 O 0.07629 0.15435 0.80712 0.0
O195 O 0.0999 0.02618 0.79998 0.0
O196 O 0.02269 0.0736 0.74141 0.0
O197 O 0.14968 0.1064 0.74594 0.0
H198 H 0.12385 0.17291 0.87507 0.0
H199 H 0.97122 0.18919 0.80722 0.0
H200 H 0.07656 0.2161 0.92918 0.0
H201 H 0.92681 0.23255 0.86243 0.0
H202 H 0.2028 0.86692 0.81158 0.0
H203 H 0.07013 1.00165 0.86676 0.0
H204 H 0.17083 0.9478 0.77619 0.0
H205 H 0.10346 0.91937 0.9004 0.0
H206 H 0.93243 0.0668 0.91202 0.0
H207 H 0.84188 1.0155 0.80816 0.0
H208 H 0.32362 0.18718 0.83957 0.0
H209 H 0.26663 0.06279 0.91074 0.0
H210 H 0.04084 0.05254 0.67014 0.0
H211 H 0.9343 0.13952 0.74663 0.0
H212 H 0.98465 0.09137 0.61755 0.0
H213 H 0.88016 0.17709 0.69271 0.0
H214 H 0.20033 0.14844 0.69068 0.0
H215 H 0.21753 0.03303 0.77775 0.0
H216 H 0.29501 0.12146 0.6719 0.0
H217 H 0.31169 1.00785 0.75748 0.0
H218 H 0.99318 0.3289 0.72978 0.0
H219 H 0.0808 0.24973 0.63935 0.0
H220 H 0.05225 0.8456 0.6996 0.0
H221 H 0.17238 0.92729 0.63653 0.0
C222 C 0.43365 0.03435 0.14515 0.0
C223 C 0.42593 1.00585 0.10954 0.0
C224 C 0.32656 0.9928 0.11886 0.0
C225 C 0.33319 0.02601 0.15303 0.0
N226 N 0.39116 0.08442 0.19694 0.0
N227 N 0.36541 0.96392 0.05991 0.0
C228 C 0.38635 0.04829 0.16583 0.0
C229 C 0.37244 0.98647 0.09572 0.0
N230 N 0.4866 0.04702 0.15931 0.0
N231 N 0.27683 0.96625 0.10902 0.0
H232 H 0.39852 0.95857 0.04254 0.0
H233 H 0.32655 0.95439 0.04653 0.0
H234 H 0.24231 0.97004 0.12527 0.0
H235 H 0.27102 0.93699 0.08639 0.0
H236 H 0.49605 0.06287 0.18658 0.0
H237 H 0.52178 0.03726 0.14452 0.0
H238 H 0.42749 0.10673 0.20548 0.0
H239 H 0.3575 0.09549 0.21288 0.0
C240 C 0.97865 0.38523 0.60391 0.0
C241 C 1.00147 0.43843 0.61617 0.0
C242 C 0.0499 0.39735 0.66981 0.0
C243 C 0.02326 0.34499 0.65929 0.0
N244 N 0.95454 0.29145 0.62007 0.0
N245 N 0.05096 0.49812 0.66325 0.0
C246 C 0.98534 0.33957 0.62736 0.0
C247 C 0.0348 0.44531 0.64994 0.0
N248 N 0.9526 0.37793 0.56914 0.0
N249 N 0.09125 0.4007 0.69774 0.0
H250 H 0.04009 0.53389 0.6492 0.0
H251 H 0.07072 0.50696 0.68954 0.0
H252 H 0.10413 0.36633 0.71259 0.0
H253 H 0.11611 0.43623 0.70407 0.0
H254 H 0.94036 0.33877 0.55684 0.0
H255 H 0.94756 0.41058 0.55127 0.0
H256 H 0.92227 0.28724 0.59937 0.0
H257 H 0.95787 0.25732 0.63682 0.0
C258 C 0.75404 0.13764 0.0922 0.0
C259 C 0.71338 0.09774 0.10043 0.0
C260 C 0.76905 0.07559 0.15682 0.0
C261 C 0.80908 0.11666 0.1494 0.0
N262 N 0.83247 0.19671 0.11566 0.0
N263 N 0.67352 0.04299 0.1462 0.0
C264 C 0.79911 0.15105 0.1189 0.0
C265 C 0.71808 0.07156 0.13471 0.0
N266 N 0.75172 0.16018 0.05819 0.0
N267 N 0.78095 0.03779 0.18319 0.0
H268 H 0.63506 0.04048 0.13094 0.0
H269 H 0.67286 0.02733 0.17254 0.0
H270 H 0.81868 0.03728 0.19913 0.0
H271 H 0.75547 1.00337 0.18672 0.0
H272 H 0.78387 0.18418 0.04908 0.0
H273 H 0.71944 0.15172 0.03791 0.0
H274 H 0.82418 0.22633 0.096 0.0
H275 H 0.86541 0.20787 0.135 0.0
C276 C 0.12065 0.72903 0.62379 0.0
C277 C 0.0913 0.73381 0.58869 0.0
C278 C 0.08022 0.83519 0.60229 0.0
C279 C 0.11019 0.83078 0.63719 0.0
N280 N 0.16982 0.77696 0.67773 0.0
N281 N 0.05723 0.79272 0.54037 0.0
C282 C 0.13408 0.7787 0.64678 0.0
C283 C 0.07577 0.78745 0.57663 0.0
N284 N 0.13278 0.67706 0.63609 0.0
N285 N 0.05323 0.88402 0.59442 0.0
H286 H 0.05435 0.75856 0.52079 0.0
H287 H 0.05031 0.8313 0.52884 0.0
H288 H 0.05501 0.92011 0.61241 0.0
H289 H 0.02529 0.88745 0.57137 0.0
H290 H 0.14801 0.67053 0.66317 0.0
H291 H 0.12435 0.63988 0.61986 0.0
H292 H 0.1928 0.74149 0.68437 0.0
H293 H 0.18023 0.81264 0.69509 0.0
C294 C 0.45338 0.0947 0.90787 0.0
C295 C 0.45271 0.10923 0.94658 0.0
C296 C 0.36003 0.15114 0.93685 0.0
C297 C 0.35667 0.12692 0.89974 0.0
N298 N 0.39909 0.07304 0.84983 0.0
N299 N 0.40603 0.15121 0.9988 0.0
C300 C 0.40344 0.09885 0.88493 0.0
C301 C 0.40665 0.13852 0.96128 0.0
N302 N 0.50204 0.07678 0.89323 0.0
N303 N 0.31856 0.18613 0.94855 0.0
H304 H 0.44012 0.14417 0.01727 0.0
H305 H 0.3709 0.16606 1.01189 0.0
H306 H 0.28403 0.196 0.93113 0.0
H307 H 0.32071 0.20917 0.97416 0.0
H308 H 0.50686 0.07031 0.86472 0.0
H309 H 0.53929 0.07387 0.90959 0.0
H310 H 0.4295 0.04634 0.83926 0.0
H311 H 0.36332 0.07493 0.832 0.0
C312 C 0.12107 0.44863 0.42403 0.0
C313 C 0.09219 0.44321 0.45687 0.0
C314 C 0.08123 0.34186 0.44196 0.0
C315 C 0.11061 0.34693 0.40929 0.0
N316 N 0.16964 0.40167 0.37358 0.0
N317 N 0.05911 0.3835 0.50239 0.0
C318 C 0.1343 0.39931 0.40181 0.0
C319 C 0.07708 0.38929 0.46753 0.0
N320 N 0.13291 0.50086 0.41291 0.0
N321 N 0.05442 0.29274 0.44756 0.0
H322 H 0.05646 0.41746 0.52191 0.0
H323 H 0.05248 0.34473 0.51323 0.0
H324 H 0.05589 0.25688 0.42949 0.0
H325 H 0.02691 0.28882 0.46854 0.0
H326 H 0.14773 0.50782 0.38701 0.0
H327 H 0.12465 0.53779 0.42872 0.0
H328 H 0.19245 0.43741 0.36886 0.0
H329 H 0.17992 0.36624 0.35685 0.0
C330 C 0.73389 0.05127 0.89755 0.0
C331 C 0.73621 1.01037 0.92443 0.0
C332 C 0.83036 0.98375 0.90729 0.0
C333 C 0.8304 0.02892 0.88337 0.0
N334 N 0.78559 0.11173 0.8603 0.0
N335 N 0.78877 0.94349 0.95935 0.0
C336 C 0.78299 0.06435 0.87965 0.0
C337 C 0.78504 0.97802 0.93046 0.0
N338 N 0.68414 0.07638 0.88848 0.0
N339 N 0.87282 0.94545 0.90708 0.0
H340 H 0.75638 0.93903 0.977 0.0
H341 H 0.82542 0.92314 0.96776 0.0
H342 H 0.9064 0.9479 0.89016 0.0
H343 H 0.87229 0.9086 0.92114 0.0
H344 H 0.67825 0.10256 0.86649 0.0
H345 H 0.64735 0.06672 0.90075 0.0
H346 H 0.75437 0.14213 0.85995 0.0
H347 H 0.82108 0.12333 0.84726 0.0
C348 C 0.03545 0.7322 0.39178 0.0
C349 C 1.00163 0.73809 0.4226 0.0
C350 C 0.98468 0.83691 0.41056 0.0
C351 C 0.0229 0.83247 0.3819 0.0
N352 N 0.09186 0.77838 0.34912 0.0
N353 N 0.95176 0.79726 0.46569 0.0
C354 C 0.05024 0.78069 0.37348 0.0
C355 C 0.97821 0.79082 0.43317 0.0
N356 N 0.05231 0.67981 0.37961 0.0
N357 N 0.95335 0.88446 0.41543 0.0
H358 H 0.94688 0.7643 0.48294 0.0
H359 H 0.93904 0.83609 0.47712 0.0
H360 H 0.95656 0.91892 0.39921 0.0
H361 H 0.92084 0.88788 0.43333 0.0
H362 H 0.07248 0.67164 0.35505 0.0
H363 H 0.04163 0.64366 0.3925 0.0
H364 H 0.11716 0.74334 0.34478 0.0
H365 H 0.10449 0.81319 0.33558 0.0
loop_
_geom_bond_atom_site_label_1
_geom_bond_atom_site_label_2
_geom_bond_distance
_geom_bond_site_symmetry_2
_ccdc_geom_bond_type
Cu0 N1 1.999 1_554 S
Cu0 O6 1.974 . S
Cu0 N11 1.985 . S
Cu0 O20 1.959 1_554 S
N1 Cu0 1.999 1_556 S
N1 C3 1.263 . S
N1 C5 1.389 . S
N2 C3 1.358 . S
N2 C4 1.400 . S
C3 N1 1.263 . S
C3 N2 1.358 . S
C3 H9 0.930 . S
C4 N2 1.400 . S
C4 C5 1.351 . S
C4 H21 0.930 . S
C5 N1 1.389 . S
C5 C4 1.351 . S
C5 H10 0.930 . S
O6 Cu0 1.974 . S
O6 C16 1.282 . S
C7 O8 1.261 1_545 S
C7 O20 1.251 . S
O8 C7 1.261 1_565 S
H9 C3 0.930 . S
H10 C5 0.930 . S
N11 Cu0 1.985 . S
N11 C13 1.335 . S
N11 C14 1.390 . S
N12 C13 1.345 . S
N12 C15 1.336 . S
C13 N11 1.335 . S
C13 N12 1.345 . S
C13 H18 0.930 . S
C14 N11 1.390 . S
C14 C15 1.346 . S
C14 H19 0.930 . S
C15 N12 1.336 . S
C15 C14 1.346 . S
C15 H22 0.929 . S
C16 O6 1.282 . S
C16 O17 1.216 1_545 S
O17 C16 1.216 1_565 S
H18 C13 0.930 . S
H19 C14 0.930 . S
O20 Cu0 1.959 1_556 S
O20 C7 1.251 . S
H21 C4 0.930 . S
H22 C15 0.929 . S
Cu23 N24 1.999 . S
Cu23 O29 1.974 . S
Cu23 N34 1.985 . S
Cu23 O43 1.959 . S
N24 Cu23 1.999 . S
N24 C26 1.263 . S
N24 C28 1.389 1_455 S
N25 C26 1.358 . S
N25 C27 1.400 . S
C26 N24 1.263 . S
C26 N25 1.358 . S
C26 H32 0.930 . S
C27 N25 1.400 . S
C27 C28 1.351 1_455 S
C27 H44 0.930 1_455 S
C28 N24 1.389 1_655 S
C28 C27 1.351 1_655 S
C28 H33 0.930 . S
O29 Cu23 1.974 . S
O29 C39 1.282 . S
C30 O31 1.261 . S
C30 O43 1.251 . S
O31 C30 1.261 . S
H32 C26 0.930 . S
H33 C28 0.930 . S
N34 Cu23 1.985 . S
N34 C36 1.335 . S
N34 C37 1.390 . S
N35 C36 1.345 . S
N35 C38 1.336 . S
C36 N34 1.335 . S
C36 N35 1.345 . S
C36 H41 0.930 . S
C37 N34 1.390 . S
C37 C38 1.346 . S
C37 H42 0.930 . S
C38 N35 1.336 . S
C38 C37 1.346 . S
C38 H45 0.929 . S
C39 O29 1.282 . S
C39 O40 1.216 . S
O40 C39 1.216 . S
H41 C36 0.930 . S
H42 C37 0.930 . S
O43 Cu23 1.959 . S
O43 C30 1.251 . S
H44 C27 0.930 1_655 S
H45 C38 0.929 . S
Li46 N63 1.990 . S
Li46 O106 1.956 . S
Li46 O107 1.970 1_455 S
Li46 O108 1.961 . S
Li47 N71 1.990 1_545 S
Li47 O106 1.970 . S
Li47 O107 1.956 1_455 S
Li47 O109 1.961 . S
Li48 N93 1.990 . S
Li48 O106 1.961 . S
Li48 O108 1.956 . S
Li48 O109 1.970 . S
Li49 N99 1.990 . S
Li49 O107 1.961 . S
Li49 O108 1.970 1_655 S
Li49 O109 1.956 1_655 S
C50 C52 1.348 . S
C50 C53 1.356 . S
C50 O106 1.325 . S
N51 C54 1.314 . S
N51 C55 1.279 . S
C52 C50 1.348 . S
C52 C54 1.353 . S
C52 H110 0.929 . S
C53 C50 1.356 . S
C53 C55 1.358 . S
C53 H111 0.930 . S
C54 N51 1.314 . S
C54 C52 1.353 . S
C54 H112 0.930 . S
C55 N51 1.279 . S
C55 C53 1.358 . S
C55 H113 0.930 . S
C56 C59 1.348 . S
C56 C60 1.356 . S
C56 O107 1.325 . S
C57 N58 1.279 . S
C57 C60 1.358 . S
C57 H114 0.930 . S
N58 C57 1.279 . S
N58 C61 1.314 . S
C59 C56 1.348 . S
C59 C61 1.353 . S
C59 H115 0.929 . S
C60 C56 1.356 . S
C60 C57 1.358 . S
C60 H116 0.930 . S
C61 N58 1.314 . S
C61 C59 1.353 . S
C61 H117 0.930 . S
C62 N63 1.314 . S
C62 C67 1.353 . S
C62 H68 0.930 1_455 S
N63 Li46 1.990 . S
N63 C62 1.314 . S
N63 C65 1.279 . S
C64 C65 1.358 . S
C64 C66 1.356 . S
C64 H118 0.930 . S
C65 N63 1.279 . S
C65 C64 1.358 . S
C65 H69 0.930 . S
C66 C64 1.356 . S
C66 C67 1.348 . S
C67 C62 1.353 . S
C67 C66 1.348 . S
C67 H119 0.929 1_455 S
H68 C62 0.930 1_655 S
H69 C65 0.930 . S
C70 N71 1.314 . S
C70 C72 1.353 . S
C70 H76 0.930 . S
N71 Li47 1.990 1_565 S
N71 C70 1.314 . S
N71 C74 1.279 . S
C72 C70 1.353 . S
C72 C75 1.348 . S
C72 H120 0.929 . S
C73 C74 1.358 . S
C73 C75 1.356 . S
C73 H121 0.930 1_455 S
C74 N71 1.279 . S
C74 C73 1.358 . S
C74 H77 0.930 1_455 S
C75 C72 1.348 . S
C75 C73 1.356 . S
H76 C70 0.930 . S
H77 C74 0.930 1_655 S
C78 C80 1.348 . S
C78 C81 1.356 . S
C78 O108 1.325 . S
N79 C82 1.314 . S
N79 C83 1.279 . S
C80 C78 1.348 . S
C80 C82 1.353 . S
C80 H122 0.929 1_455 S
C81 C78 1.356 . S
C81 C83 1.358 . S
C81 H123 0.930 . S
C82 N79 1.314 . S
C82 C80 1.353 . S
C82 H124 0.930 1_455 S
C83 N79 1.279 . S
C83 C81 1.358 . S
C83 H125 0.930 . S
C84 C85 1.348 . S
C84 C86 1.356 . S
C84 O109 1.325 1_565 S
C85 C84 1.348 . S
C85 C87 1.353 . S
C85 H126 0.929 . S
C86 C84 1.356 . S
C86 C88 1.358 . S
C86 H127 0.930 1_455 S
C87 C85 1.353 . S
C87 N89 1.314 . S
C87 H128 0.930 . S
C88 C86 1.358 . S
C88 N89 1.279 . S
C88 H129 0.930 1_455 S
N89 C87 1.314 . S
N89 C88 1.279 . S
C90 C92 1.353 . S
C90 N93 1.314 . S
C90 H96 0.930 . S
C91 N93 1.279 . S
C91 C94 1.358 . S
C91 H97 0.930 . S
C92 C90 1.353 . S
C92 C95 1.348 . S
C92 H130 0.929 . S
N93 Li48 1.990 . S
N93 C90 1.314 . S
N93 C91 1.279 . S
C94 C91 1.358 . S
C94 C95 1.356 . S
C94 H131 0.930 . S
C95 C92 1.348 . S
C95 C94 1.356 . S
H96 C90 0.930 . S
H97 C91 0.930 . S
C98 N99 1.314 . S
C98 C100 1.353 . S
C98 H104 0.930 . S
N99 Li49 1.990 . S
N99 C98 1.314 . S
N99 C102 1.279 . S
C100 C98 1.353 . S
C100 C103 1.348 . S
C100 H132 0.929 . S
C101 C102 1.358 . S
C101 C103 1.356 . S
C101 H133 0.930 . S
C102 N99 1.279 . S
C102 C101 1.358 . S
C102 H105 0.930 . S
C103 C100 1.348 . S
C103 C101 1.356 . S
H104 C98 0.930 . S
H105 C102 0.930 . S
O106 Li46 1.956 . S
O106 Li47 1.970 . S
O106 Li48 1.961 . S
O106 C50 1.325 . S
O107 Li46 1.970 1_655 S
O107 Li47 1.956 1_655 S
O107 Li49 1.961 . S
O107 C56 1.325 . S
O108 Li46 1.961 . S
O108 Li48 1.956 . S
O108 Li49 1.970 1_455 S
O108 C78 1.325 . S
O109 Li47 1.961 . S
O109 Li48 1.970 . S
O109 Li49 1.956 1_455 S
O109 C84 1.325 1_545 S
H110 C52 0.929 . S
H111 C53 0.930 . S
H112 C54 0.930 . S
H113 C55 0.930 . S
H114 C57 0.930 . S
H115 C59 0.929 . S
H116 C60 0.930 . S
H117 C61 0.930 . S
H118 C64 0.930 . S
H119 C67 0.929 1_655 S
H120 C72 0.929 . S
H121 C73 0.930 1_655 S
H122 C80 0.929 1_655 S
H123 C81 0.930 . S
H124 C82 0.930 1_655 S
H125 C83 0.930 . S
H126 C85 0.929 . S
H127 C86 0.930 1_655 S
H128 C87 0.930 . S
H129 C88 0.930 1_655 S
H130 C92 0.929 . S
H131 C94 0.930 . S
H132 C100 0.929 . S
H133 C101 0.930 . S
Li134 N151 1.990 1_455 S
Li134 O194 1.956 . S
Li134 O195 1.970 1_545 S
Li134 O196 1.961 . S
Li135 N159 1.990 . S
Li135 O194 1.970 . S
Li135 O195 1.956 1_545 S
Li135 O197 1.961 . S
Li136 N181 1.990 . S
Li136 O194 1.961 . S
Li136 O196 1.956 . S
Li136 O197 1.970 . S
Li137 N187 1.990 . S
Li137 O195 1.961 . S
Li137 O196 1.970 1_565 S
Li137 O197 1.956 1_565 S
C138 C140 1.348 . S
C138 C141 1.356 . S
C138 O194 1.325 . S
N139 C142 1.314 . S
N139 C143 1.279 . S
C140 C138 1.348 . S
C140 C142 1.353 . S
C140 H198 0.929 . S
C141 C138 1.356 . S
C141 C143 1.358 . S
C141 H199 0.930 . S
C142 N139 1.314 . S
C142 C140 1.353 . S
C142 H200 0.930 . S
C143 N139 1.279 . S
C143 C141 1.358 . S
C143 H201 0.930 . S
C144 C147 1.348 . S
C144 C148 1.356 . S
C144 O195 1.325 . S
C145 N146 1.279 . S
C145 C148 1.358 . S
C145 H202 0.930 . S
N146 C145 1.279 . S
N146 C149 1.314 . S
C147 C144 1.348 . S
C147 C149 1.353 . S
C147 H203 0.929 . S
C148 C144 1.356 . S
C148 C145 1.358 . S
C148 H204 0.930 . S
C149 N146 1.314 . S
C149 C147 1.353 . S
C149 H205 0.930 . S
C150 N151 1.314 . S
C150 C155 1.353 . S
C150 H156 0.930 1_545 S
N151 Li134 1.990 1_655 S
N151 C150 1.314 . S
N151 C153 1.279 . S
C152 C153 1.358 . S
C152 C154 1.356 . S
C152 H206 0.930 . S
C153 N151 1.279 . S
C153 C152 1.358 . S
C153 H157 0.930 . S
C154 C152 1.356 . S
C154 C155 1.348 . S
C155 C150 1.353 . S
C155 C154 1.348 . S
C155 H207 0.929 1_545 S
H156 C150 0.930 1_565 S
H157 C153 0.930 . S
C158 N159 1.314 . S
C158 C160 1.353 . S
C158 H164 0.930 . S
N159 Li135 1.990 . S
N159 C158 1.314 . S
N159 C162 1.279 . S
C160 C158 1.353 . S
C160 C163 1.348 . S
C160 H208 0.929 . S
C161 C162 1.358 . S
C161 C163 1.356 . S
C161 H209 0.930 1_545 S
C162 N159 1.279 . S
C162 C161 1.358 . S
C162 H165 0.930 1_545 S
C163 C160 1.348 . S
C163 C161 1.356 . S
H164 C158 0.930 . S
H165 C162 0.930 1_565 S
C166 C168 1.348 . S
C166 C169 1.356 . S
C166 O196 1.325 1_655 S
N167 C170 1.314 . S
N167 C171 1.279 . S
C168 C166 1.348 . S
C168 C170 1.353 . S
C168 H210 0.929 1_545 S
C169 C166 1.356 . S
C169 C171 1.358 . S
C169 H211 0.930 . S
C170 N167 1.314 . S
C170 C168 1.353 . S
C170 H212 0.930 1_545 S
C171 N167 1.279 . S
C171 C169 1.358 . S
C171 H213 0.930 . S
C172 C173 1.348 . S
C172 C174 1.356 . S
C172 O197 1.325 . S
C173 C172 1.348 . S
C173 C175 1.353 . S
C173 H214 0.929 . S
C174 C172 1.356 . S
C174 C176 1.358 . S
C174 H215 0.930 1_545 S
C175 C173 1.353 . S
C175 N177 1.314 . S
C175 H216 0.930 . S
C176 C174 1.358 . S
C176 N177 1.279 . S
C176 H217 0.930 1_545 S
N177 C175 1.314 . S
N177 C176 1.279 . S
C178 C180 1.353 . S
C178 N181 1.314 . S
C178 H184 0.930 . S
C179 N181 1.279 . S
C179 C182 1.358 . S
C179 H185 0.930 . S
C180 C178 1.353 . S
C180 C183 1.348 . S
C180 H218 0.929 . S
N181 Li136 1.990 . S
N181 C178 1.314 . S
N181 C179 1.279 . S
C182 C179 1.358 . S
C182 C183 1.356 . S
C182 H219 0.930 . S
C183 C180 1.348 . S
C183 C182 1.356 . S
H184 C178 0.930 . S
H185 C179 0.930 . S
C186 N187 1.314 . S
C186 C188 1.353 . S
C186 H192 0.930 . S
N187 Li137 1.990 . S
N187 C186 1.314 . S
N187 C190 1.279 . S
C188 C186 1.353 . S
C188 C191 1.348 . S
C188 H220 0.929 . S
C189 C190 1.358 . S
C189 C191 1.356 . S
C189 H221 0.930 . S
C190 N187 1.279 . S
C190 C189 1.358 . S
C190 H193 0.930 . S
C191 C188 1.348 . S
C191 C189 1.356 . S
H192 C186 0.930 . S
H193 C190 0.930 . S
O194 Li134 1.956 . S
O194 Li135 1.970 . S
O194 Li136 1.961 . S
O194 C138 1.325 . S
O195 Li134 1.970 1_565 S
O195 Li135 1.956 1_565 S
O195 Li137 1.961 . S
O195 C144 1.325 . S
O196 Li134 1.961 . S
O196 Li136 1.956 . S
O196 Li137 1.970 1_545 S
O196 C166 1.325 1_455 S
O197 Li135 1.961 . S
O197 Li136 1.970 . S
O197 Li137 1.956 1_545 S
O197 C172 1.325 . S
H198 C140 0.929 . S
H199 C141 0.930 . S
H200 C142 0.930 . S
H201 C143 0.930 . S
H202 C145 0.930 . S
H203 C147 0.929 . S
H204 C148 0.930 . S
H205 C149 0.930 . S
H206 C152 0.930 . S
H207 C155 0.929 1_565 S
H208 C160 0.929 . S
H209 C161 0.930 1_565 S
H210 C168 0.929 1_565 S
H211 C169 0.930 . S
H212 C170 0.930 1_565 S
H213 C171 0.930 . S
H214 C173 0.929 . S
H215 C174 0.930 1_565 S
H216 C175 0.930 . S
H217 C176 0.930 1_565 S
H218 C180 0.929 . S
H219 C182 0.930 . S
H220 C188 0.929 . S
H221 C189 0.930 . S
C222 C223 1.363 . S
C222 C228 1.379 . S
C222 N230 1.356 . S
C223 C222 1.363 . S
C223 C229 1.363 . S
C224 C225 1.363 . S
C224 C229 1.379 . S
C224 N231 1.356 1_545 S
C225 C224 1.363 . S
C225 C228 1.363 . S
N226 C228 1.356 . S
N226 H238 0.984 . S
N226 H239 0.985 . S
N227 C229 1.356 . S
N227 H232 0.984 . S
N227 H233 0.985 1_545 S
C228 C222 1.379 . S
C228 C225 1.363 . S
C228 N226 1.356 . S
C229 C223 1.363 . S
C229 C224 1.379 . S
C229 N227 1.356 . S
N230 C222 1.356 . S
N230 H236 0.984 . S
N230 H237 0.984 . S
N231 C224 1.356 1_565 S
N231 H234 0.984 1_565 S
N231 H235 0.985 . S
H232 N227 0.984 . S
H233 N227 0.985 1_565 S
H234 N231 0.984 1_545 S
H235 N231 0.985 . S
H236 N230 0.984 . S
H237 N230 0.984 . S
H238 N226 0.984 . S
H239 N226 0.985 . S
C240 C241 1.363 . S
C240 C246 1.379 . S
C240 N248 1.356 1_455 S
C241 C240 1.363 . S
C241 C247 1.363 . S
C242 C243 1.363 . S
C242 C247 1.379 . S
C242 N249 1.356 . S
C243 C242 1.363 . S
C243 C246 1.363 . S
N244 C246 1.356 1_655 S
N244 H256 0.984 . S
N244 H257 0.985 . S
N245 C247 1.356 . S
N245 H250 0.984 . S
N245 H251 0.985 . S
C246 C240 1.379 . S
C246 C243 1.363 . S
C246 N244 1.356 1_455 S
C247 C241 1.363 . S
C247 C242 1.379 . S
C247 N245 1.356 . S
N248 C240 1.356 1_655 S
N248 H254 0.984 . S
N248 H255 0.984 . S
N249 C242 1.356 . S
N249 H252 0.984 . S
N249 H253 0.985 . S
H250 N245 0.984 . S
H251 N245 0.985 . S
H252 N249 0.984 . S
H253 N249 0.985 . S
H254 N248 0.984 . S
H255 N248 0.984 . S
H256 N244 0.984 . S
H257 N244 0.985 . S
C258 C259 1.363 . S
C258 C264 1.379 . S
C258 N266 1.356 . S
C259 C258 1.363 . S
C259 C265 1.363 . S
C260 C261 1.363 . S
C260 C265 1.379 . S
C260 N267 1.356 1_545 S
C261 C260 1.363 . S
C261 C264 1.363 . S
N262 C264 1.356 . S
N262 H274 0.984 . S
N262 H275 0.985 . S
N263 C265 1.356 1_565 S
N263 H268 0.984 . S
N263 H269 0.985 . S
C264 C258 1.379 . S
C264 C261 1.363 . S
C264 N262 1.356 . S
C265 C259 1.363 . S
C265 C260 1.379 . S
C265 N263 1.356 1_545 S
N266 C258 1.356 . S
N266 H272 0.984 . S
N266 H273 0.984 . S
N267 C260 1.356 1_565 S
N267 H270 0.984 1_565 S
N267 H271 0.985 . S
H268 N263 0.984 . S
H269 N263 0.985 . S
H270 N267 0.984 1_545 S
H271 N267 0.985 . S
H272 N266 0.984 . S
H273 N266 0.984 . S
H274 N262 0.984 . S
H275 N262 0.985 . S
C276 C277 1.363 . S
C276 C282 1.379 . S
C276 N284 1.356 . S
C277 C276 1.363 . S
C277 C283 1.363 . S
C278 C279 1.363 . S
C278 C283 1.379 . S
C278 N285 1.356 1_455 S
C279 C278 1.363 . S
C279 C282 1.363 . S
N280 C282 1.356 . S
N280 H292 0.984 . S
N280 H293 0.985 . S
N281 C283 1.356 . S
N281 H286 0.984 . S
N281 H287 0.985 1_455 S
C282 C276 1.379 . S
C282 C279 1.363 . S
C282 N280 1.356 . S
C283 C277 1.363 . S
C283 C278 1.379 . S
C283 N281 1.356 . S
N284 C276 1.356 . S
N284 H290 0.984 . S
N284 H291 0.984 . S
N285 C278 1.356 1_655 S
N285 H288 0.983 1_655 S
N285 H289 0.985 . S
H286 N281 0.984 . S
H287 N281 0.985 1_655 S
H288 N285 0.983 1_455 S
H289 N285 0.985 . S
H290 N284 0.984 . S
H291 N284 0.984 . S
H292 N280 0.984 . S
H293 N280 0.985 . S
C294 C295 1.363 1_565 S
C294 C300 1.379 1_565 S
C294 N302 1.356 . S
C295 C294 1.363 1_545 S
C295 C301 1.363 . S
C296 C297 1.363 . S
C296 C301 1.379 . S
C296 N303 1.356 . S
C297 C296 1.363 . S
C297 C300 1.363 . S
N298 C300 1.356 1_565 S
N298 H310 0.984 . S
N298 H311 0.985 . S
N299 C301 1.356 . S
N299 H304 0.984 . S
N299 H305 0.985 . S
C300 C294 1.379 1_545 S
C300 C297 1.363 . S
C300 N298 1.356 1_545 S
C301 C295 1.363 . S
C301 C296 1.379 . S
C301 N299 1.356 . S
N302 C294 1.356 . S
N302 H308 0.984 . S
N302 H309 0.984 . S
N303 C296 1.356 . S
N303 H306 0.984 . S
N303 H307 0.985 . S
H304 N299 0.984 . S
H305 N299 0.985 . S
H306 N303 0.984 . S
H307 N303 0.985 . S
H308 N302 0.984 . S
H309 N302 0.984 . S
H310 N298 0.984 . S
H311 N298 0.985 . S
C312 C313 1.363 . S
C312 C318 1.379 . S
C312 N320 1.356 . S
C313 C312 1.363 . S
C313 C319 1.363 . S
C314 C315 1.363 . S
C314 C319 1.379 . S
C314 N321 1.356 1_455 S
C315 C314 1.363 . S
C315 C318 1.363 . S
N316 C318 1.356 . S
N316 H328 0.984 . S
N316 H329 0.985 . S
N317 C319 1.356 1_655 S
N317 H322 0.980 1_655 S
N317 H323 0.985 . S
C318 C312 1.379 . S
C318 C315 1.363 . S
C318 N316 1.356 . S
C319 C313 1.363 . S
C319 C314 1.379 . S
C319 N317 1.356 1_455 S
N320 C312 1.356 . S
N320 H326 0.984 . S
N320 H327 0.984 . S
N321 C314 1.356 1_655 S
N321 H324 0.984 . S
N321 H325 0.985 . S
H322 N317 0.980 1_455 S
H323 N317 0.985 . S
H324 N321 0.984 . S
H325 N321 0.985 . S
H326 N320 0.984 . S
H327 N320 0.984 . S
H328 N316 0.984 . S
H329 N316 0.985 . S
C330 C331 1.363 . S
C330 C336 1.379 . S
C330 N338 1.356 . S
C331 C330 1.363 . S
C331 C337 1.363 . S
C332 C333 1.363 . S
C332 C337 1.379 . S
C332 N339 1.356 1_545 S
C333 C332 1.363 . S
C333 C336 1.363 . S
N334 C336 1.356 . S
N334 H346 0.984 . S
N334 H347 0.985 . S
N335 C337 1.356 . S
N335 H340 0.984 . S
N335 H341 0.985 1_545 S
C336 C330 1.379 . S
C336 C333 1.363 . S
C336 N334 1.356 . S
C337 C331 1.363 . S
C337 C332 1.379 . S
C337 N335 1.356 . S
N338 C330 1.356 . S
N338 H344 0.984 . S
N338 H345 0.984 . S
N339 C332 1.356 1_565 S
N339 H342 0.984 . S
N339 H343 0.985 . S
H340 N335 0.984 . S
H341 N335 0.985 1_565 S
H342 N339 0.984 . S
H343 N339 0.985 . S
H344 N338 0.984 . S
H345 N338 0.984 . S
H346 N334 0.984 . S
H347 N334 0.985 . S
C348 C349 1.363 . S
C348 C354 1.379 . S
C348 N356 1.356 . S
C349 C348 1.363 . S
C349 C355 1.363 . S
C350 C351 1.363 . S
C350 C355 1.379 . S
C350 N357 1.356 1_455 S
C351 C350 1.363 . S
C351 C354 1.363 . S
N352 C354 1.356 . S
N352 H364 0.984 . S
N352 H365 0.985 . S
N353 C355 1.356 1_655 S
N353 H358 0.984 . S
N353 H359 0.985 . S
C354 C348 1.379 . S
C354 C351 1.363 . S
C354 N352 1.356 . S
C355 C349 1.363 . S
C355 C350 1.379 . S
C355 N353 1.356 1_455 S
N356 C348 1.356 . S
N356 H362 0.984 . S
N356 H363 0.984 . S
N357 C350 1.356 1_655 S
N357 H360 0.984 . S
N357 H361 0.985 . S
H358 N353 0.984 . S
H359 N353 0.985 . S
H360 N357 0.984 . S
H361 N357 0.985 . S
H362 N356 0.984 . S
H363 N356 0.984 . S
H364 N352 0.984 . S
H365 N352 0.985 . S
C225 C95 1.474 . S
C223 N12 1.435 . S
C243 C183 1.510 . S
C241 N25 1.486 . S
C261 C103 1.463 . S
C259 C16 1.463 . S
C279 C191 1.504 . S
C277 C30 1.504 . S
C297 C163 1.504 . S
C295 C7 1.504 . S
C315 C66 1.463 . S
C313 C39 1.463 . S
C333 C154 1.510 . S
C331 N2 1.487 . S
C349 N35 1.434 . S
C351 C75 1.474 . S
