# Generated by pormake.
# Topology ssa, (4,4)-cn, num edge types: 1
# Building blocks:
#     Node 0, Type 0, BuildingBlock: ESEHIV_clean_sbu_0, # of connection points: 4
#     Node 1, Type 0, BuildingBlock: ESEHIV_clean_sbu_0, # of connection points: 4
#     Node 2, Type 0, BuildingBlock: ESEHIV_clean_sbu_0, # of connection points: 4
#     Node 3, Type 0, BuildingBlock: ESEHIV_clean_sbu_0, # of connection points: 4
#     Node 4, Type 0, BuildingBlock: ESEHIV_clean_sbu_0, # of connection points: 4
#     Node 5, Type 0, BuildingBlock: ESEHIV_clean_sbu_0, # of connection points: 4
#     Node 6, Type 1, BuildingBlock: ESEHIV_clean_sbu_0, # of connection points: 4
#     Node 7, Type 1, BuildingBlock: ESEHIV_clean_sbu_0, # of connection points: 4
#     Node 8, Type 1, BuildingBlock: ESEHIV_clean_sbu_0, # of connection points: 4
#     Node 9, Type 1, BuildingBlock: ESEHIV_clean_sbu_0, # of connection points: 4
#     Node 10, Type 1, BuildingBlock: ESEHIV_clean_sbu_0, # of connection points: 4
#     Node 11, Type 1, BuildingBlock: ESEHIV_clean_sbu_0, # of connection points: 4
#     Edge 12, Type (0, 1), BuildingBlock: XIVTED_clean_linker_0, # of connection points: 2
#     Edge 13, Type (0, 1), BuildingBlock: XIVTED_clean_linker_0, # of connection points: 2
#     Edge 14, Type (0, 1), BuildingBlock: XIVTED_clean_linker_0, # of connection points: 2
#     Edge 15, Type (0, 1), BuildingBlock: XIVTED_clean_linker_0, # of connection points: 2
#     Edge 16, Type (0, 1), BuildingBlock: XIVTED_clean_linker_0, # of connection points: 2
#     Edge 17, Type (0, 1), BuildingBlock: XIVTED_clean_linker_0, # of connection points: 2
#     Edge 18, Type (0, 1), BuildingBlock: XIVTED_clean_linker_0, # of connection points: 2
#     Edge 19, Type (0, 1), BuildingBlock: XIVTED_clean_linker_0, # of connection points: 2
#     Edge 20, Type (0, 1), BuildingBlock: XIVTED_clean_linker_0, # of connection points: 2
#     Edge 21, Type (0, 1), BuildingBlock: XIVTED_clean_linker_0, # of connection points: 2
#     Edge 22, Type (0, 1), BuildingBlock: XIVTED_clean_linker_0, # of connection points: 2
#     Edge 23, Type (0, 1), BuildingBlock: XIVTED_clean_linker_0, # of connection points: 2
#     Edge 24, Type (0, 1), BuildingBlock: XIVTED_clean_linker_0, # of connection points: 2
#     Edge 25, Type (0, 1), BuildingBlock: XIVTED_clean_linker_0, # of connection points: 2
#     Edge 26, Type (0, 1), BuildingBlock: XIVTED_clean_linker_0, # of connection points: 2
#     Edge 27, Type (0, 1), BuildingBlock: XIVTED_clean_linker_0, # of connection points: 2
#     Edge 28, Type (0, 1), BuildingBlock: XIVTED_clean_linker_0, # of connection points: 2
#     Edge 29, Type (0, 1), BuildingBlock: XIVTED_clean_linker_0, # of connection points: 2
#     Edge 30, Type (0, 1), BuildingBlock: XIVTED_clean_linker_0, # of connection points: 2
#     Edge 31, Type (0, 1), BuildingBlock: XIVTED_clean_linker_0, # of connection points: 2
#     Edge 32, Type (0, 1), BuildingBlock: XIVTED_clean_linker_0, # of connection points: 2
#     Edge 33, Type (0, 1), BuildingBlock: XIVTED_clean_linker_0, # of connection points: 2
#     Edge 34, Type (0, 1), BuildingBlock: XIVTED_clean_linker_0, # of connection points: 2
#     Edge 35, Type (0, 1), BuildingBlock: XIVTED_clean_linker_0, # of connection points: 2
# Relax obj value: 0.034
# Max RMSD: 0.106
# Mean RMSD: 0.096
data_MOF--net-ssa--node1-ESEHIV_clean_sbu_0--node2-ESEHIV_clean_sbu_0--edge1-XIVTED_clean_linker_0
_symmetry_space_group_name_H-M    P1
_symmetry_Int_Tables_number       1
_symmetry_cell_setting            triclinic
loop_
_symmetry_equiv_pos_as_xyz
'x, y, z'
_cell_length_a     49.593378
_cell_length_b     53.112746
_cell_length_c     37.791754
_cell_angle_alpha  88.059947
_cell_angle_beta   90.917352
_cell_angle_gamma 122.49225
loop_
_atom_site_label
_atom_site_type_symbol
_atom_site_fract_x
_atom_site_fract_y
_atom_site_fract_z
_atom_type_partial_charge
Cu0 Cu 0.99992 0.51859 0.03267 0.0
N1 N 0.97462 0.47728 0.03874 0.0
N2 N 0.94646 0.42941 0.02434 0.0
C3 C 0.96327 0.458 1.01225 0.0
C4 C 0.94753 0.43072 0.05998 0.0
C5 C 0.96495 0.46043 0.06882 0.0
O6 O 0.98391 0.5296 0.98891 0.0
C7 C 0.05437 0.51133 0.03875 0.0
O8 O 0.03484 0.4851 0.02521 0.0
H9 H 0.96783 0.46497 0.9846 0.0
H10 H 0.97036 0.46915 0.09521 0.0
N11 N 0.99306 0.53584 0.0708 0.0
N12 N 1.00578 0.56464 0.11763 0.0
C13 C 1.01541 0.55184 0.0951 0.0
C14 C 0.96816 0.53836 0.07828 0.0
C15 C 0.97602 0.55626 0.10719 0.0
C16 C 0.95335 0.51625 0.98507 0.0
O17 O 0.93503 0.49604 1.00922 0.0
H18 H 0.03904 0.55543 0.09498 0.0
H19 H 0.94633 0.52887 0.06316 0.0
O20 O 0.04553 0.53004 0.03938 0.0
H21 H 0.93627 0.41167 0.07827 0.0
H22 H 0.96133 0.56316 0.11899 0.0
Cu23 Cu 0.5388 0.01919 0.52482 0.0
N24 N 0.54901 0.01056 0.4803 0.0
N25 N 0.55353 0.98289 0.43936 0.0
C26 C 0.55159 0.98688 0.47433 0.0
C27 C 0.55209 1.00509 0.42275 0.0
C28 C 0.54914 0.02188 0.44787 0.0
O29 O 0.49389 0.98876 0.53074 0.0
C30 C 0.59457 0.02823 0.55427 0.0
O31 O 0.6052 0.03987 0.52245 0.0
H32 H 0.55044 0.97196 0.49533 0.0
H33 H 0.54585 0.04019 0.44265 0.0
N34 N 0.54553 0.05774 0.53067 0.0
N35 N 0.54882 0.09656 0.55827 0.0
C36 C 0.53939 0.0673 0.56061 0.0
C37 C 0.55944 0.08184 0.50859 0.0
C38 C 0.56138 0.10556 0.52532 0.0
C39 C 0.47385 0.99281 0.51435 0.0
O40 O 0.484 0.01898 0.49896 0.0
H41 H 0.52896 0.05309 0.58402 0.0
H42 H 0.56818 0.0824 0.48238 0.0
O43 O 0.56492 0.01585 0.56091 0.0
H44 H 0.55257 1.00877 0.39437 0.0
H45 H 0.57139 0.12778 0.51383 0.0
Cu46 Cu 0.54133 0.53088 1.01061 0.0
N47 N 0.54729 0.49851 1.00505 0.0
N48 N 0.54991 0.46223 0.97851 0.0
C49 C 0.54363 0.48416 0.97454 0.0
C50 C 0.55773 0.46292 1.01306 0.0
C51 C 0.55607 0.48506 0.02921 0.0
O52 O 0.56427 0.5581 0.97091 0.0
C53 C 0.47606 0.49112 0.0237 0.0
O54 O 0.48568 0.47347 0.03459 0.0
H55 H 0.53677 0.48999 0.94977 0.0
H56 H 0.56064 0.49069 0.0568 0.0
N57 N 0.55595 0.55189 0.05361 0.0
N58 N 0.56397 0.58448 0.09581 0.0
C59 C 0.54773 0.57061 0.06604 0.0
C60 C 0.57816 0.55399 0.07631 0.0
C61 C 0.58305 0.57381 0.10218 0.0
C62 C 0.58934 0.58399 0.97432 0.0
O63 O 0.59782 0.59526 1.0059 0.0
H64 H 0.53056 0.57435 0.05295 0.0
H65 H 0.59083 0.54278 0.07359 0.0
O66 O 0.49618 0.5164 1.0094 0.0
H67 H 0.56369 0.44809 0.02614 0.0
H68 H 0.60037 0.58062 0.1233 0.0
Cu69 Cu 0.99577 0.47966 0.5184 0.0
N70 N 0.99215 0.4544 0.48318 0.0
N71 N 1.0102 0.4371 0.44309 0.0
C72 C 0.01695 0.45301 0.47253 0.0
C73 C 0.97947 0.42728 0.43539 0.0
C74 C 0.96835 0.43813 0.46025 0.0
O75 O 0.03995 0.5166 0.51254 0.0
C76 C 0.94991 0.43379 0.56378 0.0
O77 O 0.93306 0.43149 0.5355 0.0
H78 H 0.04016 0.46499 0.48511 0.0
H79 H 0.94529 0.43577 0.46037 0.0
N80 N 0.96823 0.49281 0.50985 0.0
N81 N 0.93856 0.51116 0.52305 0.0
C82 C 0.95661 0.50099 0.53575 0.0
C83 C 0.95738 0.49811 0.47941 0.0
C84 C 0.93903 0.5096 0.48752 0.0
C85 C 0.04784 0.52747 0.48065 0.0
O86 O 0.02689 0.51373 0.4554 0.0
H87 H 0.96206 0.50015 0.56345 0.0
H88 H 0.96271 0.49426 0.45324 0.0
O89 O 0.97992 0.45435 0.5633 0.0
H90 H 0.96674 0.41496 0.41221 0.0
H91 H 0.92694 0.51616 0.46887 0.0
Cu92 Cu 0.5163 0.01142 0.06267 0.0
N93 N 0.50033 0.03622 0.06219 0.0
N94 N 0.49178 0.07154 0.04251 0.0
C95 C 0.51282 0.06279 0.04497 0.0
C96 C 0.46555 0.05011 0.06032 0.0
C97 C 0.4709 0.02839 0.07237 0.0
O98 O 0.54168 0.0205 0.01797 0.0
C99 C 0.48058 0.9531 0.10084 0.0
O100 O 0.5087 0.95954 0.11208 0.0
H101 H 0.53601 0.07431 0.03227 0.0
H102 H 0.45365 1.00727 0.08517 0.0
N103 N 0.54677 0.02364 0.09828 0.0
N104 N 0.58465 0.02421 0.13164 0.0
C105 C 0.56898 0.01654 0.10047 0.0
C106 C 0.54886 0.03707 0.12863 0.0
C107 C 0.5722 0.03737 0.14938 0.0
C108 C 0.53815 0.03175 0.98898 0.0
O109 O 0.5112 0.03046 0.98361 0.0
H110 H 0.57138 1.00343 0.08092 0.0
H111 H 0.5333 0.04451 0.13594 0.0
O112 O 0.47928 0.97033 0.07702 0.0
H113 H 0.44304 0.04878 0.06186 0.0
H114 H 0.57828 0.04523 0.17614 0.0
Cu115 Cu 0.51884 0.50577 0.48545 0.0
N116 N 0.55121 0.52865 0.45239 0.0
N117 N 0.58173 0.56789 0.41646 0.0
C118 C 0.55487 0.55312 0.43602 0.0
C119 C 0.59601 0.55242 0.42081 0.0
C120 C 0.57689 0.52794 0.44295 0.0
O121 O 0.48298 0.51144 0.47138 0.0
C122 C 0.55916 0.50663 0.5398 0.0
O123 O 0.56124 0.49027 0.51605 0.0
H124 H 0.53873 0.56068 0.43953 0.0
H125 H 0.58185 0.51134 0.45213 0.0
N126 N 0.50256 0.46512 0.48214 0.0
N127 N 0.48663 0.41983 0.50477 0.0
C128 C 0.48979 0.44624 0.51022 0.0
C129 C 0.50686 0.44998 0.45736 0.0
C130 C 0.49687 0.42184 0.47128 0.0
C131 C 0.47446 0.50672 0.43864 0.0
O132 O 0.489 0.49805 0.41822 0.0
H133 H 0.48539 0.45278 0.53522 0.0
H134 H 0.51873 0.45946 0.43223 0.0
O135 O 0.54106 0.51675 0.53285 0.0
H136 H 0.61856 0.55847 0.40906 0.0
H137 H 0.49955 0.40522 0.45889 0.0
Cu138 Cu 0.25353 0.48443 0.23364 0.0
N139 N 0.26269 0.46478 0.20027 0.0
N140 N 0.28904 0.45715 0.15889 0.0
C141 C 0.29037 0.47639 0.1824 0.0
C142 C 0.25937 0.4325 0.16211 0.0
C143 C 0.24315 0.43732 0.18747 0.0
O144 O 0.29147 0.50429 0.26664 0.0
C145 C 0.2135 0.49157 0.18646 0.0
O146 O 0.20107 0.46264 0.18678 0.0
H147 H 0.31104 0.49853 0.18664 0.0
H148 H 0.2185 0.42209 0.19519 0.0
N149 N 0.21814 0.45652 0.2608 0.0
N150 N 0.17516 0.43876 0.29525 0.0
C151 C 0.1993 0.46298 0.27818 0.0
C152 C 0.20553 0.42712 0.26709 0.0
C153 C 0.17888 0.41607 0.2883 0.0
C154 C 0.29471 0.48744 0.28938 0.0
O155 O 0.27301 0.45872 0.29001 0.0
H156 H 0.20308 0.48504 0.27785 0.0
H157 H 0.21527 0.41466 0.25753 0.0
O158 O 0.23824 0.50757 0.2059 0.0
H159 H 0.24976 0.41271 0.14658 0.0
H160 H 0.16389 0.39332 0.29844 0.0
Cu161 Cu 0.77901 0.21492 0.78754 0.0
N162 N 0.77832 0.18544 0.76145 0.0
N163 N 0.75806 0.14513 0.72845 0.0
C164 C 0.75183 0.16272 0.74691 0.0
C165 C 0.78989 0.15737 0.73136 0.0
C166 C 0.80233 0.18223 0.75196 0.0
O167 O 0.73651 0.19436 0.81258 0.0
C168 C 0.8249 0.26502 0.74638 0.0
O169 O 0.84177 0.25457 0.75957 0.0
H170 H 0.72855 0.1598 0.7489 0.0
H171 H 0.82714 0.19708 0.75906 0.0
N172 N 0.8092 0.22716 0.82355 0.0
N173 N 0.84189 0.25645 0.86572 0.0
C174 C 0.82014 0.25242 0.841 0.0
C175 C 0.82442 0.21451 0.83769 0.0
C176 C 0.8446 0.23256 0.86397 0.0
C177 C 0.73117 0.17212 0.83282 0.0
O178 O 0.75321 0.16556 0.83407 0.0
H179 H 0.81201 0.26744 0.83572 0.0
H180 H 0.8211 0.19371 0.8295 0.0
O181 O 0.79505 0.25104 0.75483 0.0
H182 H 0.80321 0.14912 0.71928 0.0
H183 H 0.86037 0.22871 0.88005 0.0
Cu184 Cu 0.59656 0.80491 0.26575 0.0
N185 N 0.62384 0.83913 0.23826 0.0
N186 N 0.64304 0.88485 0.2148 0.0
C187 C 0.62089 0.86284 0.23619 0.0
C188 C 0.66066 0.87458 0.2025 0.0
C189 C 0.6489 0.84636 0.21732 0.0
O190 O 0.57162 0.81684 0.294 0.0
C191 C 0.59189 0.76026 0.22331 0.0
O192 O 0.62272 0.77667 0.22945 0.0
H193 H 0.60219 0.86363 0.24944 0.0
H194 H 0.65806 0.83229 0.213 0.0
N195 N 0.62 0.79596 0.29687 0.0
N196 N 0.63033 0.7639 0.32355 0.0
C197 C 0.60758 0.76842 0.3111 0.0
C198 C 0.65183 0.80994 0.3013 0.0
C199 C 0.65828 0.79019 0.31804 0.0
C200 C 0.58635 0.83435 0.31971 0.0
O201 O 0.61507 0.84047 0.32786 0.0
H202 H 0.58243 0.75129 0.30942 0.0
H203 H 0.6692 0.83183 0.29028 0.0
O204 O 0.57414 0.76896 0.23525 0.0
H205 H 0.68058 0.8866 0.18429 0.0
H206 H 0.68177 0.79403 0.32282 0.0
Cu207 Cu 0.78298 0.56671 0.76405 0.0
N208 N 0.8128 0.5848 0.72766 0.0
N209 N 0.8443 0.58772 0.68425 0.0
C210 C 0.82446 0.57078 0.71092 0.0
C211 C 0.84507 0.61351 0.684 0.0
C212 C 0.82559 0.61168 0.71106 0.0
O213 O 0.79972 0.54744 0.79698 0.0
C214 C 0.73289 0.56013 0.72121 0.0
O215 O 0.75313 0.58919 0.72097 0.0
H216 H 0.81768 0.54814 0.71768 0.0
H217 H 0.82072 0.6285 0.71775 0.0
N218 N 0.78141 0.59532 0.78953 0.0
N219 N 0.75904 0.61581 0.81785 0.0
C220 C 0.75423 0.59122 0.80247 0.0
C221 C 0.80449 0.62349 0.79728 0.0
C222 C 0.79071 0.63618 0.81507 0.0
C223 C 0.82925 0.5642 0.8062 0.0
O224 O 0.84536 0.59182 0.79355 0.0
H225 H 0.73126 0.57047 0.80046 0.0
H226 H 0.82938 0.63421 0.79 0.0
O227 O 0.74054 0.54378 0.73916 0.0
H228 H 0.85868 0.63224 0.66569 0.0
H229 H 0.80287 0.65874 0.82449 0.0
Cu230 Cu 0.25322 0.76878 0.31625 0.0
N231 N 0.21748 0.75935 0.28893 0.0
N232 N 0.17237 0.73077 0.25876 0.0
C233 C 0.19578 0.73164 0.27847 0.0
C234 C 0.17966 0.75921 0.25689 0.0
C235 C 0.2075 0.77678 0.27553 0.0
O236 O 0.23875 0.73061 0.3442 0.0
C237 C 0.29766 0.81162 0.26669 0.0
O238 O 0.28056 0.82282 0.27457 0.0
H239 H 0.19721 0.71248 0.28554 0.0
H240 H 0.21953 0.80058 0.27891 0.0
N241 N 0.26107 0.79821 0.34815 0.0
N242 N 0.28563 0.83381 0.38809 0.0
C243 C 0.28752 0.8143 0.36786 0.0
C244 C 0.24177 0.8078 0.35623 0.0
C245 C 0.25685 0.82976 0.38078 0.0
C246 C 0.21795 0.72352 0.36881 0.0
O247 O 0.20966 0.74256 0.37551 0.0
H248 H 0.30793 0.81207 0.36684 0.0
H249 H 0.21818 0.79918 0.34539 0.0
O250 O 0.29081 0.78708 0.28273 0.0
H251 H 0.16628 0.76696 0.24254 0.0
H252 H 0.24716 0.84154 0.39262 0.0
Cu253 Cu 0.50805 0.25645 0.77248 0.0
N254 N 0.48064 0.2578 0.73915 0.0
N255 N 0.46485 0.27548 0.6945 0.0
C256 C 0.48787 0.28177 0.71857 0.0
C257 C 0.44224 0.24632 0.70004 0.0
C258 C 0.45205 0.23545 0.72769 0.0
O259 O 0.53105 0.29576 0.79656 0.0
C260 C 0.51366 0.2135 0.73778 0.0
O261 O 0.48416 0.19773 0.74973 0.0
H262 H 0.51018 0.30315 0.72043 0.0
H263 H 0.43959 0.21271 0.73809 0.0
N264 N 0.48459 0.22854 0.80866 0.0
N265 N 0.47416 0.19867 0.85637 0.0
C266 C 0.49619 0.21696 0.83191 0.0
C267 C 0.45421 0.21736 0.81871 0.0
C268 C 0.44767 0.19887 0.84814 0.0
C269 C 0.51304 0.30448 0.80758 0.0
O270 O 0.48229 0.28783 0.80089 0.0
H271 H 0.5206 0.22249 0.83127 0.0
H272 H 0.4381 0.22261 0.80587 0.0
O273 O 0.53081 0.24123 0.74562 0.0
H274 H 0.42034 0.23373 0.68508 0.0
H275 H 0.42513 0.18646 0.86222 0.0
H276 H 0.08884 0.54849 0.09475 0.0
H277 H 0.19519 0.47576 0.11906 0.0
H278 H 0.0871 0.48449 0.02612 0.0
H279 H 0.19529 0.53253 0.19779 0.0
H280 H 0.16106 0.48529 0.08161 0.0
H281 H 0.13195 0.54909 0.1294 0.0
C282 C 0.09789 0.53507 0.08643 0.0
C283 C 0.08412 0.51647 0.05714 0.0
C284 C 0.16869 0.49611 0.10682 0.0
C285 C 0.1335 0.51684 0.09711 0.0
C286 C 0.18853 0.49081 0.12825 0.0
C287 C 0.19859 0.50352 0.16168 0.0
C288 C 0.15791 0.51405 0.11864 0.0
C289 C 0.18868 0.5226 0.17205 0.0
C290 C 0.12238 0.53523 0.10647 0.0
C291 C 0.0967 0.49921 0.0483 0.0
N292 N 0.16866 0.52703 0.15084 0.0
N293 N 0.1203 0.4998 0.06802 0.0
H294 H 0.58367 0.0218 0.62597 0.0
H295 H 0.76984 0.12692 0.66754 0.0
H296 H 0.65846 0.05085 0.54837 0.0
H297 H 0.69478 0.10704 0.74106 0.0
H298 H 0.72974 0.08977 0.62786 0.0
H299 H 0.62428 0.04316 0.67232 0.0
C300 C 0.60856 0.0321 0.61875 0.0
C301 C 0.61774 0.03506 0.58317 0.0
C302 C 0.72208 0.09325 0.6529 0.0
C303 C 0.6643 0.0598 0.63597 0.0
C304 C 0.745 0.11435 0.67563 0.0
C305 C 0.73554 0.12046 0.70732 0.0
C306 C 0.68952 0.07816 0.66199 0.0
C307 C 0.70299 0.10355 0.71645 0.0
C308 C 0.63176 0.04443 0.64521 0.0
C309 C 0.65035 0.04851 0.5754 0.0
N310 N 0.68112 0.08342 0.69373 0.0
N311 N 0.67248 0.06075 0.60151 0.0
H312 H 0.58399 0.601 0.16358 0.0
H313 H 0.54815 0.73214 0.16822 0.0
H314 H 0.5413 0.62002 0.07473 0.0
H315 H 0.60927 0.72137 0.24089 0.0
H316 H 0.53751 0.68716 0.13741 0.0
H317 H 0.58571 0.64075 0.19559 0.0
C318 C 0.57504 0.61351 0.15054 0.0
C319 C 0.56295 0.60705 0.11584 0.0
C320 C 0.55287 0.69448 0.16044 0.0
C321 C 0.5645 0.65321 0.15331 0.0
C322 C 0.55864 0.71996 0.17825 0.0
C323 C 0.57944 0.73048 0.20745 0.0
C324 C 0.56771 0.67927 0.17221 0.0
C325 C 0.59294 0.71409 0.2187 0.0
C326 C 0.57589 0.63631 0.1691 0.0
C327 C 0.5509 0.62395 0.10127 0.0
N328 N 0.58689 0.68959 0.20123 0.0
N329 N 0.55214 0.64627 0.11991 0.0
H330 H 0.92649 0.55425 0.50476 0.0
H331 H 0.86444 0.5506 0.70001 0.0
H332 H 0.91516 0.49252 0.58915 0.0
H333 H 0.86021 0.60464 0.61502 0.0
H334 H 0.88648 0.53182 0.65931 0.0
H335 H 0.90402 0.57474 0.54368 0.0
C336 C 0.91902 0.54486 0.5313 0.0
C337 C 0.92304 0.52193 0.54395 0.0
C338 C 0.88076 0.54777 0.64937 0.0
C339 C 0.89789 0.54533 0.58846 0.0
C340 C 0.8681 0.55846 0.67265 0.0
C341 C 0.86007 0.57888 0.66076 0.0
C342 C 0.88557 0.55754 0.61373 0.0
C343 C 0.86615 0.58894 0.62521 0.0
C344 C 0.90643 0.55666 0.55352 0.0
C345 C 0.91317 0.51064 0.57858 0.0
N346 N 0.87842 0.57802 0.60278 0.0
N347 N 0.90122 0.52252 0.59959 0.0
H348 H 0.41852 0.94078 0.10062 0.0
H349 H 0.35189 0.80944 0.25269 0.0
H350 H 0.47565 0.90909 0.14607 0.0
H351 H 0.30296 0.85257 0.21725 0.0
H352 H 0.39503 0.8412 0.20958 0.0
H353 H 0.37353 0.90408 0.13829 0.0
C354 C 0.42155 0.92586 0.11803 0.0
C355 C 0.45121 0.9283 0.11988 0.0
C356 C 0.3747 0.84353 0.21117 0.0
C357 C 0.39942 0.88597 0.16383 0.0
C358 C 0.34995 0.82524 0.23574 0.0
C359 C 0.32357 0.82823 0.23905 0.0
C360 C 0.37301 0.8648 0.18934 0.0
C361 C 0.32275 0.84941 0.2162 0.0
C362 C 0.39583 0.90495 0.13984 0.0
C363 C 0.45343 0.90829 0.14354 0.0
N364 N 0.34683 0.86666 0.19265 0.0
N365 N 0.42815 0.88822 0.16447 0.0
H366 H 0.46023 0.36032 0.49668 0.0
H367 H 0.49231 0.33501 0.69914 0.0
H368 H 0.50094 0.42887 0.57449 0.0
H369 H 0.43891 0.26203 0.62858 0.0
H370 H 0.49599 0.36958 0.65259 0.0
H371 H 0.45258 0.32357 0.54336 0.0
C372 C 0.46738 0.36757 0.52353 0.0
C373 C 0.48087 0.39762 0.53173 0.0
C374 C 0.48333 0.34601 0.6472 0.0
C375 C 0.4724 0.35601 0.58501 0.0
C376 C 0.48139 0.32629 0.67376 0.0
C377 C 0.46546 0.29566 0.66764 0.0
C378 C 0.46945 0.33513 0.61401 0.0
C379 C 0.45123 0.28548 0.63442 0.0
C380 C 0.46292 0.34665 0.55014 0.0
C381 C 0.48975 0.4059 0.56696 0.0
N382 N 0.45375 0.30522 0.6087 0.0
N383 N 0.48546 0.38528 0.59214 0.0
H384 H 0.57498 0.94918 0.469 0.0
H385 H 0.54771 0.85439 0.29464 0.0
H386 H 0.53598 0.96186 0.37213 0.0
H387 H 0.59941 0.85388 0.3871 0.0
H388 H 0.53724 0.88915 0.32412 0.0
H389 H 0.57855 0.9102 0.44106 0.0
C390 C 0.56695 0.94374 0.44195 0.0
C391 C 0.55528 0.95924 0.4231 0.0
C392 C 0.55054 0.88111 0.33809 0.0
C393 C 0.55943 0.91412 0.39047 0.0
C394 C 0.5562 0.86097 0.32138 0.0
C395 C 0.57435 0.85096 0.33841 0.0
C396 C 0.56287 0.89116 0.37222 0.0
C397 C 0.58531 0.8609 0.37284 0.0
C398 C 0.56913 0.92144 0.42585 0.0
C399 C 0.54557 0.95104 0.38779 0.0
N400 N 0.57949 0.8803 0.38841 0.0
N401 N 0.54786 0.92918 0.37273 0.0
H402 H 0.64997 0.63387 0.97539 0.0
H403 H 0.69708 0.58917 0.7984 0.0
H404 H 0.58232 0.56488 0.90635 0.0
H405 H 0.76582 0.64946 0.87388 0.0
H406 H 0.6547 0.58871 0.83083 0.0
H407 H 0.69192 0.64872 0.9315 0.0
C408 C 0.64373 0.62224 0.95069 0.0
C409 C 0.61267 0.59765 0.94488 0.0
C410 C 0.67908 0.60232 0.84015 0.0
C411 C 0.6607 0.61443 0.89472 0.0
C412 C 0.70325 0.60244 0.82176 0.0
C413 C 0.73488 0.61883 0.83399 0.0
C414 C 0.68649 0.61856 0.87118 0.0
C415 C 0.74171 0.63638 0.86373 0.0
C416 C 0.66778 0.63068 0.92571 0.0
C417 C 0.606 0.58366 0.91223 0.0
N418 N 0.71761 0.63543 0.88168 0.0
N419 N 0.62993 0.59196 0.88862 0.0
H420 H 0.08646 0.58038 0.51672 0.0
H421 H 0.20093 0.66716 0.34688 0.0
H422 H 0.08027 0.53811 0.41899 0.0
H423 H 0.19316 0.71182 0.43552 0.0
H424 H 0.16371 0.61876 0.37716 0.0
H425 H 0.13227 0.62753 0.49196 0.0
C426 C 0.09512 0.58076 0.49046 0.0
C427 C 0.07929 0.55507 0.47003 0.0
C428 C 0.17053 0.63919 0.39021 0.0
C429 C 0.13174 0.60922 0.44117 0.0
C430 C 0.19209 0.66688 0.37299 0.0
C431 C 0.20041 0.69382 0.38854 0.0
C432 C 0.1573 0.63825 0.42346 0.0
C433 C 0.1875 0.69177 0.42232 0.0
C434 C 0.12114 0.6078 0.47612 0.0
C435 C 0.0915 0.55728 0.43579 0.0
N436 N 0.16671 0.66474 0.43843 0.0
N437 N 0.11667 0.58364 0.42253 0.0
H438 H 0.52964 0.09708 0.98401 0.0
H439 H 0.44167 0.17971 0.91888 0.0
H440 H 0.45752 0.09779 0.04577 0.0
H441 H 0.51619 0.18078 0.86008 0.0
H442 H 0.44859 0.15167 0.9669 0.0
H443 H 0.52754 0.1307 0.94058 0.0
C444 C 0.5137 0.10462 0.98891 0.0
C445 C 0.49356 0.09429 0.01876 0.0
C446 C 0.46353 0.15817 0.94355 0.0
C447 C 0.49056 0.13256 0.96821 0.0
C448 C 0.45942 0.17401 0.91598 0.0
C449 C 0.47829 0.18258 0.88525 0.0
C450 C 0.48658 0.15071 0.94036 0.0
C451 C 0.50132 0.17497 0.88332 0.0
C452 C 0.51232 0.12371 0.96376 0.0
C453 C 0.47311 0.10472 0.02297 0.0
N454 N 0.50469 0.15939 0.91038 0.0
N455 N 0.47196 0.12308 0.99787 0.0
H456 H 0.47841 0.53244 0.37399 0.0
H457 H 0.29195 0.46794 0.35748 0.0
H458 H 0.4141 0.49096 0.46261 0.0
H459 H 0.36001 0.52968 0.27978 0.0
H460 H 0.33599 0.47736 0.39667 0.0
H461 H 0.43626 0.53311 0.3402 0.0
C462 C 0.4555 0.52389 0.38665 0.0
C463 C 0.45008 0.51179 0.42149 0.0
C464 C 0.34147 0.48927 0.37135 0.0
C465 C 0.40079 0.51174 0.38204 0.0
C466 C 0.31623 0.48398 0.34884 0.0
C467 C 0.32202 0.49819 0.31514 0.0
C468 C 0.37327 0.50852 0.36013 0.0
C469 C 0.35417 0.51849 0.30557 0.0
C470 C 0.43134 0.52424 0.36718 0.0
C471 C 0.41969 0.50088 0.43614 0.0
N472 N 0.37845 0.52268 0.32763 0.0
N473 N 0.39618 0.50072 0.41625 0.0
H474 H 0.93449 0.37403 0.04113 0.0
H475 H 0.85802 0.31296 0.85097 0.0
H476 H 0.9223 0.42531 0.95872 0.0
H477 H 0.86423 0.25725 0.93219 0.0
H478 H 0.88323 0.35462 0.89055 0.0
H479 H 0.90956 0.33085 1.00256 0.0
C480 C 0.92643 0.37615 0.01507 0.0
C481 C 0.93074 0.40337 1.00298 0.0
C482 C 0.87913 0.33334 0.8999 0.0
C483 C 0.90261 0.35442 0.95881 0.0
C484 C 0.86458 0.30947 0.87729 0.0
C485 C 0.85865 0.2815 0.88847 0.0
C486 C 0.88793 0.32936 0.93412 0.0
C487 C 0.86847 0.27849 0.92255 0.0
C488 C 0.91241 0.35161 0.99302 0.0
C489 C 0.92009 0.405 0.96889 0.0
N490 N 0.88252 0.30215 0.94434 0.0
N491 N 0.90661 0.38093 0.94807 0.0
H492 H 0.97839 0.56382 0.93499 0.0
H493 H 0.80582 0.51176 0.84813 0.0
H494 H 0.89012 0.48349 0.9671 0.0
H495 H 0.89327 0.59467 0.8206 0.0
H496 H 0.83655 0.49948 0.88936 0.0
H497 H 0.9483 0.57408 0.89036 0.0
C498 C 0.95287 0.54821 0.93257 0.0
C499 C 0.93704 0.52279 0.95526 0.0
C500 C 0.849 0.52034 0.87417 0.0
C501 C 0.90206 0.53445 0.904 0.0
C502 C 0.83137 0.52731 0.85048 0.0
C503 C 0.84665 0.5544 0.83065 0.0
C504 C 0.88234 0.54047 0.87813 0.0
C505 C 0.88006 0.57358 0.83522 0.0
C506 C 0.93556 0.55412 0.90712 0.0
C507 C 0.90365 0.50353 0.95063 0.0
N508 N 0.89653 0.56633 0.85824 0.0
N509 N 0.88749 0.50974 0.92588 0.0
H510 H 0.45146 0.93302 0.52043 0.0
H511 H 0.29459 0.88666 0.40696 0.0
H512 H 0.42346 0.99426 0.48697 0.0
H513 H 0.33155 0.82987 0.42331 0.0
H514 H 0.33659 0.92344 0.44504 0.0
H515 H 0.40228 0.89215 0.49456 0.0
C516 C 0.43466 0.93778 0.50834 0.0
C517 C 0.44172 0.96716 0.50554 0.0
C518 C 0.33542 0.90285 0.44048 0.0
C519 C 0.38566 0.9206 0.47557 0.0
C520 C 0.31132 0.88175 0.41883 0.0
C521 C 0.30962 0.85517 0.41167 0.0
C522 C 0.35803 0.89739 0.45524 0.0
C523 C 0.33226 0.85025 0.42758 0.0
C524 C 0.40672 0.91448 0.49331 0.0
C525 C 0.41913 0.97201 0.48943 0.0
N526 N 0.35559 0.8712 0.44852 0.0
N527 N 0.39228 0.94904 0.4748 0.0
H528 H 0.57964 0.43109 0.97935 0.0
H529 H 0.48901 0.33986 0.80598 0.0
H530 H 0.516 0.4462 0.91651 0.0
H531 H 0.56178 0.33137 0.85805 0.0
H532 H 0.50021 0.37968 0.84555 0.0
H533 H 0.57449 0.39549 0.93593 0.0
C534 C 0.56451 0.42701 0.95655 0.0
C535 C 0.54809 0.44188 0.95207 0.0
C536 C 0.51407 0.36946 0.84829 0.0
C537 C 0.54225 0.40076 0.9016 0.0
C538 C 0.50775 0.34665 0.8255 0.0
C539 C 0.52452 0.3321 0.82837 0.0
C540 C 0.53714 0.37793 0.87502 0.0
C541 C 0.54846 0.34205 0.85444 0.0
C542 C 0.56177 0.40669 0.93153 0.0
C543 C 0.52933 0.43568 0.92135 0.0
N544 N 0.55379 0.36405 0.87695 0.0
N545 N 0.52681 0.41561 0.89766 0.0
H546 H 0.99963 0.39233 0.40065 0.0
H547 H 0.1812 0.48366 0.33331 0.0
H548 H 0.07283 0.47979 0.43529 0.0
H549 H 0.11432 0.39187 0.30696 0.0
H550 H 0.1402 0.48261 0.36882 0.0
H551 H 0.03973 0.39159 0.3639 0.0
C552 C 0.02408 0.41128 0.40052 0.0
C553 C 0.03303 0.43595 0.42136 0.0
C554 C 0.13437 0.46262 0.35535 0.0
C555 C 0.07871 0.43538 0.37966 0.0
C556 C 0.15777 0.46329 0.33485 0.0
C557 C 0.15111 0.43787 0.31698 0.0
C558 C 0.10389 0.43634 0.35803 0.0
C559 C 0.12047 0.41188 0.32054 0.0
C560 C 0.04692 0.41082 0.37975 0.0
C561 C 0.06499 0.45999 0.42034 0.0
N562 N 0.09787 0.41179 0.34059 0.0
N563 N 0.08657 0.45909 0.39986 0.0
H564 H 0.59909 0.04181 0.99062 0.0
H565 H 0.67156 0.16698 0.83144 0.0
H566 H 0.54137 0.06653 0.93117 0.0
H567 H 0.72308 0.13296 0.88615 0.0
H568 H 0.62405 0.13239 0.8682 0.0
H569 H 0.64489 0.07634 0.95286 0.0
C570 C 0.59586 0.05422 0.96946 0.0
C571 C 0.56594 0.05079 0.96419 0.0
C572 C 0.64586 0.13262 0.87208 0.0
C573 C 0.61904 0.09128 0.92067 0.0
C574 C 0.67307 0.15252 0.85116 0.0
C575 C 0.70166 0.15309 0.85535 0.0
C576 C 0.64721 0.11324 0.89762 0.0
C577 C 0.7018 0.1335 0.88146 0.0
C578 C 0.62218 0.07415 0.94787 0.0
C579 C 0.56371 0.06801 0.93629 0.0
N580 N 0.67534 0.11466 0.9013 0.0
N581 N 0.58973 0.08744 0.91583 0.0
H582 H 0.64161 0.61761 0.41501 0.0
H583 H 0.58238 0.7093 0.3028 0.0
H584 H 0.54625 0.58061 0.3746 0.0
H585 H 0.66835 0.75309 0.36576 0.0
H586 H 0.57386 0.66139 0.32061 0.0
H587 H 0.65687 0.66667 0.38854 0.0
C588 C 0.62418 0.61978 0.39992 0.0
C589 C 0.59266 0.59533 0.39694 0.0
C590 C 0.5946 0.68142 0.33066 0.0
C591 C 0.60962 0.65073 0.36705 0.0
C592 C 0.59939 0.70893 0.32073 0.0
C593 C 0.6258 0.73541 0.33346 0.0
C594 C 0.6163 0.68005 0.35362 0.0
C595 C 0.64759 0.73324 0.35552 0.0
C596 C 0.63275 0.64768 0.38517 0.0
C597 C 0.57071 0.5991 0.3776 0.0
N598 N 0.64223 0.70596 0.36518 0.0
N599 N 0.57957 0.62626 0.3635 0.0
H600 H 0.5807 0.15779 0.56065 0.0
H601 H 0.49082 0.15424 0.73761 0.0
H602 H 0.51179 0.07727 0.61833 0.0
H603 H 0.55985 0.23677 0.68373 0.0
H604 H 0.50108 0.12673 0.69544 0.0
H605 H 0.5755 0.18729 0.60529 0.0
C606 C 0.56438 0.14611 0.58249 0.0
C607 C 0.54657 0.11458 0.58515 0.0
C608 C 0.51427 0.15085 0.69276 0.0
C609 C 0.54081 0.14888 0.63719 0.0
C610 C 0.50849 0.16674 0.71705 0.0
C611 C 0.52443 0.19808 0.71449 0.0
C612 C 0.53612 0.16606 0.66493 0.0
C613 C 0.54711 0.21272 0.68709 0.0
C614 C 0.5616 0.16318 0.60823 0.0
C615 C 0.52628 0.10129 0.61479 0.0
N616 N 0.55206 0.19661 0.66327 0.0
N617 N 0.52395 0.11838 0.6393 0.0
H618 H 0.42493 0.43733 0.04638 0.0
H619 H 0.33678 0.50995 0.13027 0.0
H620 H 0.45541 0.52959 0.02799 0.0
H621 H 0.29793 0.41518 0.13276 0.0
H622 H 0.37951 0.5175 0.09118 0.0
H623 H 0.37665 0.42827 0.07515 0.0
C624 C 0.42122 0.45558 0.04789 0.0
C625 C 0.44435 0.4843 0.03499 0.0
C626 C 0.36149 0.49502 0.10007 0.0
C627 C 0.38938 0.47424 0.06853 0.0
C628 C 0.33726 0.49074 0.12265 0.0
C629 C 0.31386 0.46191 0.13503 0.0
C630 C 0.36253 0.47033 0.09004 0.0
C631 C 0.31533 0.43776 0.12372 0.0
C632 C 0.39367 0.45042 0.06442 0.0
C633 C 0.43822 0.5071 0.03756 0.0
N634 N 0.33938 0.44254 0.10212 0.0
N635 N 0.41153 0.50167 0.0545 0.0
H636 H 0.97446 0.41941 0.623 0.0
H637 H 0.80014 0.28866 0.69778 0.0
H638 H 0.88544 0.39756 0.57437 0.0
H639 H 0.88926 0.30419 0.73898 0.0
H640 H 0.83074 0.33134 0.65574 0.0
H641 H 0.94377 0.38031 0.66902 0.0
C642 C 0.94859 0.40669 0.62206 0.0
C643 C 0.93278 0.41196 0.59436 0.0
C644 C 0.84358 0.32546 0.67416 0.0
C645 C 0.89718 0.36683 0.64723 0.0
C646 C 0.82601 0.30109 0.69834 0.0
C647 C 0.84188 0.29241 0.7221 0.0
C648 C 0.87738 0.34157 0.67375 0.0
C649 C 0.87567 0.3096 0.72116 0.0
C650 C 0.93097 0.3842 0.64832 0.0
C651 C 0.89898 0.39441 0.59482 0.0
N652 N 0.89207 0.33304 0.6976 0.0
N653 N 0.88253 0.37285 0.62049 0.0
H654 H 0.62281 0.01226 0.09475 0.0
H655 H 0.63006 0.91693 0.25725 0.0
H656 H 0.59045 0.01108 0.20044 0.0
H657 H 0.66044 0.91533 0.15157 0.0
H658 H 0.62505 0.95874 0.2391 0.0
H659 H 0.64628 0.98446 0.11708 0.0
C660 C 0.62102 1.00652 0.12274 0.0
C661 C 0.60405 0.0135 0.1456 0.0
C662 C 0.63322 0.94957 0.21991 0.0
C663 C 0.63086 0.9817 0.17136 0.0
C664 C 0.63597 0.92564 0.23025 0.0
C665 C 0.64511 0.91235 0.20567 0.0
C666 C 0.6393 0.96017 0.18457 0.0
C667 C 0.65321 0.92489 0.17126 0.0
C668 C 0.63449 0.99071 0.13549 0.0
C669 C 0.60316 1.00614 0.18176 0.0
N670 N 0.6496 0.94782 0.16154 0.0
N671 N 0.6159 0.99024 0.1934 0.0
H672 H 0.58608 0.5554 0.58446 0.0
H673 H 0.69127 0.50351 0.69357 0.0
H674 H 0.57838 0.47162 0.57007 0.0
H675 H 0.70515 0.59061 0.70013 0.0
H676 H 0.64558 0.48899 0.65359 0.0
H677 H 0.62512 0.56633 0.63226 0.0
C678 C 0.59205 0.53907 0.5917 0.0
C679 C 0.57884 0.5126 0.57287 0.0
C680 C 0.65851 0.51122 0.66405 0.0
C681 C 0.62399 0.52506 0.62754 0.0
C682 C 0.68455 0.51944 0.68709 0.0
C683 C 0.70248 0.54843 0.70026 0.0
C684 C 0.65004 0.53202 0.65418 0.0
C685 C 0.69247 0.56809 0.69052 0.0
C686 C 0.61461 0.54539 0.61885 0.0
C687 C 0.58802 0.49248 0.58344 0.0
N688 N 0.66728 0.55964 0.66821 0.0
N689 N 0.60991 0.49913 0.60966 0.0
H690 H 1.00325 0.61163 0.13942 0.0
H691 H 0.16788 0.67887 0.24397 0.0
H692 H 0.05345 0.56642 0.15549 0.0
H693 H 0.11631 0.7234 0.2353 0.0
H694 H 0.12403 0.63617 0.21496 0.0
H695 H 0.0417 0.65105 0.17823 0.0
C696 C 0.02202 0.60974 0.15156 0.0
C697 C 0.02541 0.5859 0.14388 0.0
C698 C 0.12215 0.65519 0.21954 0.0
C699 C 0.06966 0.63103 0.18779 0.0
C700 C 0.14725 0.67968 0.23637 0.0
C701 C 0.14601 0.70501 0.2422 0.0
C702 C 0.09551 0.65592 0.2081 0.0
C703 C 0.11863 0.70464 0.23096 0.0
C704 C 0.04409 0.63235 0.1735 0.0
C705 C 0.05034 0.5847 0.16012 0.0
N706 N 0.09453 0.68054 0.21429 0.0
N707 N 0.07162 0.60705 0.18104 0.0
loop_
_geom_bond_atom_site_label_1
_geom_bond_atom_site_label_2
_geom_bond_distance
_geom_bond_site_symmetry_2
_ccdc_geom_bond_type
Cu0 N1 1.999 1_454 S
Cu0 O6 1.974 1_454 S
Cu0 N11 1.985 . S
Cu0 O20 1.959 . S
N1 Cu0 1.999 1_656 S
N1 C3 1.263 . S
N1 C5 1.389 1_556 S
N2 C3 1.358 . S
N2 C4 1.400 . S
C3 N1 1.263 . S
C3 N2 1.358 . S
C3 H9 0.930 . S
C4 N2 1.400 . S
C4 C5 1.351 1_556 S
C4 H21 0.930 . S
C5 N1 1.389 1_554 S
C5 C4 1.351 1_554 S
C5 H10 0.930 . S
O6 Cu0 1.974 1_656 S
O6 C16 1.282 . S
C7 O8 1.260 . S
C7 O20 1.251 . S
O8 C7 1.260 . S
H9 C3 0.930 . S
H10 C5 0.930 . S
N11 Cu0 1.985 . S
N11 C13 1.335 . S
N11 C14 1.390 . S
N12 C13 1.345 . S
N12 C15 1.336 . S
C13 N11 1.335 . S
C13 N12 1.345 . S
C13 H18 0.930 . S
C14 N11 1.390 . S
C14 C15 1.346 . S
C14 H19 0.930 1_554 S
C15 N12 1.336 . S
C15 C14 1.346 . S
C15 H22 0.929 . S
C16 O6 1.282 . S
C16 O17 1.216 1_655 S
O17 C16 1.216 1_455 S
H18 C13 0.930 . S
H19 C14 0.930 1_556 S
O20 Cu0 1.959 . S
O20 C7 1.251 . S
H21 C4 0.930 . S
H22 C15 0.929 . S
Cu23 N24 1.999 . S
Cu23 O29 1.974 . S
Cu23 N34 1.985 1_565 S
Cu23 O43 1.959 1_565 S
N24 Cu23 1.999 . S
N24 C26 1.263 . S
N24 C28 1.389 . S
N25 C26 1.358 . S
N25 C27 1.400 . S
C26 N24 1.263 . S
C26 N25 1.358 . S
C26 H32 0.930 . S
C27 N25 1.400 . S
C27 C28 1.351 . S
C27 H44 0.930 . S
C28 N24 1.389 . S
C28 C27 1.351 . S
C28 H33 0.930 . S
O29 Cu23 1.974 . S
O29 C39 1.282 . S
C30 O31 1.261 . S
C30 O43 1.251 . S
O31 C30 1.261 . S
H32 C26 0.930 . S
H33 C28 0.930 . S
N34 Cu23 1.985 1_545 S
N34 C36 1.335 . S
N34 C37 1.390 . S
N35 C36 1.345 . S
N35 C38 1.336 . S
C36 N34 1.335 . S
C36 N35 1.345 . S
C36 H41 0.930 . S
C37 N34 1.390 . S
C37 C38 1.346 . S
C37 H42 0.930 . S
C38 N35 1.336 . S
C38 C37 1.346 . S
C38 H45 0.929 . S
C39 O29 1.282 . S
C39 O40 1.216 1_565 S
O40 C39 1.216 1_545 S
H41 C36 0.930 . S
H42 C37 0.930 . S
O43 Cu23 1.959 1_545 S
O43 C30 1.251 . S
H44 C27 0.930 . S
H45 C38 0.929 . S
Cu46 N47 1.999 1_554 S
Cu46 O52 1.974 1_554 S
Cu46 N57 1.985 . S
Cu46 O66 1.959 . S
N47 Cu46 1.999 1_556 S
N47 C49 1.263 . S
N47 C51 1.389 . S
N48 C49 1.358 . S
N48 C50 1.400 . S
C49 N47 1.263 . S
C49 N48 1.358 . S
C49 H55 0.930 . S
C50 N48 1.400 . S
C50 C51 1.351 . S
C50 H67 0.930 . S
C51 N47 1.389 . S
C51 C50 1.351 . S
C51 H56 0.930 . S
O52 Cu46 1.974 1_556 S
O52 C62 1.282 . S
C53 O54 1.261 . S
C53 O66 1.251 . S
O54 C53 1.261 . S
H55 C49 0.930 . S
H56 C51 0.930 . S
N57 Cu46 1.985 . S
N57 C59 1.335 . S
N57 C60 1.390 . S
N58 C59 1.345 . S
N58 C61 1.336 . S
C59 N57 1.335 . S
C59 N58 1.345 . S
C59 H64 0.930 . S
C60 N57 1.390 . S
C60 C61 1.346 . S
C60 H65 0.930 . S
C61 N58 1.336 . S
C61 C60 1.346 . S
C61 H68 0.929 . S
C62 O52 1.282 . S
C62 O63 1.216 1_556 S
O63 C62 1.216 1_554 S
H64 C59 0.930 . S
H65 C60 0.930 . S
O66 Cu46 1.959 . S
O66 C53 1.251 . S
H67 C50 0.930 . S
H68 C61 0.929 . S
Cu69 N70 1.999 1_655 S
Cu69 O75 1.974 1_655 S
Cu69 N80 1.985 . S
Cu69 O89 1.959 . S
N70 Cu69 1.999 1_455 S
N70 C72 1.263 . S
N70 C74 1.389 1_455 S
N71 C72 1.358 . S
N71 C73 1.400 . S
C72 N70 1.263 . S
C72 N71 1.358 . S
C72 H78 0.930 . S
C73 N71 1.400 . S
C73 C74 1.351 1_455 S
C73 H90 0.930 . S
C74 N70 1.389 1_655 S
C74 C73 1.351 1_655 S
C74 H79 0.930 . S
O75 Cu69 1.974 1_455 S
O75 C85 1.282 . S
C76 O77 1.261 1_655 S
C76 O89 1.251 . S
O77 C76 1.261 1_455 S
H78 C72 0.930 . S
H79 C74 0.930 . S
N80 Cu69 1.985 . S
N80 C82 1.335 . S
N80 C83 1.390 . S
N81 C82 1.345 . S
N81 C84 1.336 . S
C82 N80 1.335 . S
C82 N81 1.345 . S
C82 H87 0.930 . S
C83 N80 1.390 . S
C83 C84 1.346 . S
C83 H88 0.930 1_655 S
C84 N81 1.336 . S
C84 C83 1.346 . S
C84 H91 0.929 . S
C85 O75 1.282 . S
C85 O86 1.216 . S
O86 C85 1.216 . S
H87 C82 0.930 . S
H88 C83 0.930 1_455 S
O89 Cu69 1.959 . S
O89 C76 1.251 . S
H90 C73 0.930 . S
H91 C84 0.929 . S
Cu92 N93 1.999 . S
Cu92 O98 1.974 1_554 S
Cu92 N103 1.985 1_545 S
Cu92 O112 1.959 1_545 S
N93 Cu92 1.999 . S
N93 C95 1.263 1_554 S
N93 C97 1.389 . S
N94 C95 1.358 . S
N94 C96 1.426 . S
C95 N93 1.263 1_556 S
C95 N94 1.358 . S
C95 H101 0.930 . S
C96 N94 1.426 . S
C96 C97 1.334 1_556 S
C96 H113 0.924 1_556 S
C97 N93 1.389 . S
C97 C96 1.334 1_554 S
C97 H102 0.930 . S
O98 Cu92 1.974 1_556 S
O98 C108 1.282 . S
C99 O100 1.261 . S
C99 O112 1.251 . S
O100 C99 1.261 . S
H101 C95 0.930 . S
H102 C97 0.930 . S
N103 Cu92 1.985 1_565 S
N103 C105 1.335 . S
N103 C106 1.390 . S
N104 C105 1.345 . S
N104 C107 1.336 . S
C105 N103 1.335 . S
C105 N104 1.345 . S
C105 H110 0.930 . S
C106 N103 1.390 . S
C106 C107 1.346 . S
C106 H111 0.930 . S
C107 N104 1.336 . S
C107 C106 1.346 . S
C107 H114 0.929 . S
C108 O98 1.282 . S
C108 O109 1.216 . S
O109 C108 1.216 . S
H110 C105 0.930 . S
H111 C106 0.930 . S
O112 Cu92 1.959 1_565 S
O112 C99 1.251 . S
H113 C96 0.924 1_554 S
H114 C107 0.929 . S
Cu115 N116 1.999 . S
Cu115 O121 1.974 . S
Cu115 N126 1.985 . S
Cu115 O135 1.959 . S
N116 Cu115 1.999 . S
N116 C118 1.263 . S
N116 C120 1.389 . S
N117 C118 1.358 . S
N117 C119 1.400 . S
C118 N116 1.263 . S
C118 N117 1.358 . S
C118 H124 0.930 . S
C119 N117 1.400 . S
C119 C120 1.351 . S
C119 H136 0.930 . S
C120 N116 1.389 . S
C120 C119 1.351 . S
C120 H125 0.930 . S
O121 Cu115 1.974 . S
O121 C131 1.282 . S
C122 O123 1.261 . S
C122 O135 1.251 . S
O123 C122 1.261 . S
H124 C118 0.930 . S
H125 C120 0.930 . S
N126 Cu115 1.985 . S
N126 C128 1.335 . S
N126 C129 1.390 . S
N127 C128 1.345 . S
N127 C130 1.336 . S
C128 N126 1.335 . S
C128 N127 1.345 . S
C128 H133 0.930 . S
C129 N126 1.390 . S
C129 C130 1.346 . S
C129 H134 0.930 . S
C130 N127 1.336 . S
C130 C129 1.346 . S
C130 H137 0.929 . S
C131 O121 1.282 . S
C131 O132 1.216 . S
O132 C131 1.216 . S
H133 C128 0.930 . S
H134 C129 0.930 . S
O135 Cu115 1.959 . S
O135 C122 1.251 . S
H136 C119 0.930 . S
H137 C130 0.929 . S
Cu138 N139 1.999 . S
Cu138 O144 1.974 . S
Cu138 N149 1.985 . S
Cu138 O158 1.959 . S
N139 Cu138 1.999 . S
N139 C141 1.263 . S
N139 C143 1.389 . S
N140 C141 1.358 . S
N140 C142 1.400 . S
C141 N139 1.263 . S
C141 N140 1.358 . S
C141 H147 0.930 . S
C142 N140 1.400 . S
C142 C143 1.351 . S
C142 H159 0.930 . S
C143 N139 1.389 . S
C143 C142 1.351 . S
C143 H148 0.930 . S
O144 Cu138 1.974 . S
O144 C154 1.282 . S
C145 O146 1.261 . S
C145 O158 1.251 . S
O146 C145 1.261 . S
H147 C141 0.930 . S
H148 C143 0.930 . S
N149 Cu138 1.985 . S
N149 C151 1.335 . S
N149 C152 1.390 . S
N150 C151 1.345 . S
N150 C153 1.336 . S
C151 N149 1.335 . S
C151 N150 1.345 . S
C151 H156 0.930 . S
C152 N149 1.390 . S
C152 C153 1.346 . S
C152 H157 0.930 . S
C153 N150 1.336 . S
C153 C152 1.346 . S
C153 H160 0.929 . S
C154 O144 1.282 . S
C154 O155 1.216 . S
O155 C154 1.216 . S
H156 C151 0.930 . S
H157 C152 0.930 . S
O158 Cu138 1.959 . S
O158 C145 1.251 . S
H159 C142 0.930 . S
H160 C153 0.929 . S
Cu161 N162 1.999 . S
Cu161 O167 1.974 . S
Cu161 N172 1.985 . S
Cu161 O181 1.959 . S
N162 Cu161 1.999 . S
N162 C164 1.263 . S
N162 C166 1.389 . S
N163 C164 1.358 . S
N163 C165 1.400 . S
C164 N162 1.263 . S
C164 N163 1.358 . S
C164 H170 0.930 . S
C165 N163 1.400 . S
C165 C166 1.351 . S
C165 H182 0.930 . S
C166 N162 1.389 . S
C166 C165 1.351 . S
C166 H171 0.930 . S
O167 Cu161 1.974 . S
O167 C177 1.282 . S
C168 O169 1.261 . S
C168 O181 1.251 . S
O169 C168 1.261 . S
H170 C164 0.930 . S
H171 C166 0.930 . S
N172 Cu161 1.985 . S
N172 C174 1.335 . S
N172 C175 1.390 . S
N173 C174 1.345 . S
N173 C176 1.336 . S
C174 N172 1.335 . S
C174 N173 1.345 . S
C174 H179 0.930 . S
C175 N172 1.390 . S
C175 C176 1.346 . S
C175 H180 0.930 . S
C176 N173 1.336 . S
C176 C175 1.346 . S
C176 H183 0.929 . S
C177 O167 1.282 . S
C177 O178 1.216 . S
O178 C177 1.216 . S
H179 C174 0.930 . S
H180 C175 0.930 . S
O181 Cu161 1.959 . S
O181 C168 1.251 . S
H182 C165 0.930 . S
H183 C176 0.929 . S
Cu184 N185 1.999 . S
Cu184 O190 1.974 . S
Cu184 N195 1.985 . S
Cu184 O204 1.959 . S
N185 Cu184 1.999 . S
N185 C187 1.263 . S
N185 C189 1.389 . S
N186 C187 1.358 . S
N186 C188 1.400 . S
C187 N185 1.263 . S
C187 N186 1.358 . S
C187 H193 0.930 . S
C188 N186 1.400 . S
C188 C189 1.351 . S
C188 H205 0.930 . S
C189 N185 1.389 . S
C189 C188 1.351 . S
C189 H194 0.930 . S
O190 Cu184 1.974 . S
O190 C200 1.282 . S
C191 O192 1.261 . S
C191 O204 1.251 . S
O192 C191 1.261 . S
H193 C187 0.930 . S
H194 C189 0.930 . S
N195 Cu184 1.985 . S
N195 C197 1.335 . S
N195 C198 1.390 . S
N196 C197 1.345 . S
N196 C199 1.336 . S
C197 N195 1.335 . S
C197 N196 1.345 . S
C197 H202 0.930 . S
C198 N195 1.390 . S
C198 C199 1.346 . S
C198 H203 0.930 . S
C199 N196 1.336 . S
C199 C198 1.346 . S
C199 H206 0.929 . S
C200 O190 1.282 . S
C200 O201 1.216 . S
O201 C200 1.216 . S
H202 C197 0.930 . S
H203 C198 0.930 . S
O204 Cu184 1.959 . S
O204 C191 1.251 . S
H205 C188 0.930 . S
H206 C199 0.929 . S
Cu207 N208 1.999 . S
Cu207 O213 1.974 . S
Cu207 N218 1.985 . S
Cu207 O227 1.959 . S
N208 Cu207 1.999 . S
N208 C210 1.263 . S
N208 C212 1.389 . S
N209 C210 1.358 . S
N209 C211 1.400 . S
C210 N208 1.263 . S
C210 N209 1.358 . S
C210 H216 0.930 . S
C211 N209 1.400 . S
C211 C212 1.351 . S
C211 H228 0.930 . S
C212 N208 1.389 . S
C212 C211 1.351 . S
C212 H217 0.930 . S
O213 Cu207 1.974 . S
O213 C223 1.282 . S
C214 O215 1.261 . S
C214 O227 1.251 . S
O215 C214 1.261 . S
H216 C210 0.930 . S
H217 C212 0.930 . S
N218 Cu207 1.985 . S
N218 C220 1.335 . S
N218 C221 1.390 . S
N219 C220 1.345 . S
N219 C222 1.336 . S
C220 N218 1.335 . S
C220 N219 1.345 . S
C220 H225 0.930 . S
C221 N218 1.390 . S
C221 C222 1.346 . S
C221 H226 0.930 . S
C222 N219 1.336 . S
C222 C221 1.346 . S
C222 H229 0.929 . S
C223 O213 1.282 . S
C223 O224 1.216 . S
O224 C223 1.216 . S
H225 C220 0.930 . S
H226 C221 0.930 . S
O227 Cu207 1.959 . S
O227 C214 1.251 . S
H228 C211 0.930 . S
H229 C222 0.929 . S
Cu230 N231 1.999 . S
Cu230 O236 1.974 . S
Cu230 N241 1.985 . S
Cu230 O250 1.959 . S
N231 Cu230 1.999 . S
N231 C233 1.263 . S
N231 C235 1.389 . S
N232 C233 1.358 . S
N232 C234 1.400 . S
C233 N231 1.263 . S
C233 N232 1.358 . S
C233 H239 0.930 . S
C234 N232 1.400 . S
C234 C235 1.351 . S
C234 H251 0.930 . S
C235 N231 1.389 . S
C235 C234 1.351 . S
C235 H240 0.930 . S
O236 Cu230 1.974 . S
O236 C246 1.282 . S
C237 O238 1.261 . S
C237 O250 1.251 . S
O238 C237 1.261 . S
H239 C233 0.930 . S
H240 C235 0.930 . S
N241 Cu230 1.985 . S
N241 C243 1.335 . S
N241 C244 1.390 . S
N242 C243 1.345 . S
N242 C245 1.336 . S
C243 N241 1.335 . S
C243 N242 1.345 . S
C243 H248 0.930 . S
C244 N241 1.390 . S
C244 C245 1.346 . S
C244 H249 0.930 . S
C245 N242 1.336 . S
C245 C244 1.346 . S
C245 H252 0.929 . S
C246 O236 1.282 . S
C246 O247 1.216 . S
O247 C246 1.216 . S
H248 C243 0.930 . S
H249 C244 0.930 . S
O250 Cu230 1.959 . S
O250 C237 1.251 . S
H251 C234 0.930 . S
H252 C245 0.929 . S
Cu253 N254 1.999 . S
Cu253 O259 1.974 . S
Cu253 N264 1.985 . S
Cu253 O273 1.959 . S
N254 Cu253 1.999 . S
N254 C256 1.263 . S
N254 C258 1.389 . S
N255 C256 1.358 . S
N255 C257 1.400 . S
C256 N254 1.263 . S
C256 N255 1.358 . S
C256 H262 0.930 . S
C257 N255 1.400 . S
C257 C258 1.351 . S
C257 H274 0.930 . S
C258 N254 1.389 . S
C258 C257 1.351 . S
C258 H263 0.930 . S
O259 Cu253 1.974 . S
O259 C269 1.282 . S
C260 O261 1.261 . S
C260 O273 1.251 . S
O261 C260 1.261 . S
H262 C256 0.930 . S
H263 C258 0.930 . S
N264 Cu253 1.985 . S
N264 C266 1.335 . S
N264 C267 1.390 . S
N265 C266 1.345 . S
N265 C268 1.336 . S
C266 N264 1.335 . S
C266 N265 1.345 . S
C266 H271 0.930 . S
C267 N264 1.390 . S
C267 C268 1.346 . S
C267 H272 0.930 . S
C268 N265 1.336 . S
C268 C267 1.346 . S
C268 H275 0.929 . S
C269 O259 1.282 . S
C269 O270 1.216 . S
O270 C269 1.216 . S
H271 C266 0.930 . S
H272 C267 0.930 . S
O273 Cu253 1.959 . S
O273 C260 1.251 . S
H274 C257 0.930 . S
H275 C268 0.929 . S
H276 C282 0.930 . S
H277 C286 0.930 . S
H278 C291 0.929 . S
H279 C289 0.929 . S
H280 C284 0.929 . S
H281 C290 0.929 . S
C282 H276 0.930 . S
C282 C283 1.367 . S
C282 C290 1.378 . S
C283 C282 1.367 . S
C283 C291 1.433 . S
C284 H280 0.929 . S
C284 C286 1.378 . S
C284 C288 1.350 . S
C285 C288 1.463 . S
C285 C290 1.350 . S
C285 N293 1.427 . S
C286 H277 0.930 . S
C286 C284 1.378 . S
C286 C287 1.367 . S
C287 C286 1.367 . S
C287 C289 1.433 . S
C288 C284 1.350 . S
C288 C285 1.463 . S
C288 N292 1.427 . S
C289 H279 0.929 . S
C289 C287 1.433 . S
C289 N292 1.384 . S
C290 H281 0.929 . S
C290 C282 1.378 . S
C290 C285 1.350 . S
C291 H278 0.929 . S
C291 C283 1.433 . S
C291 N293 1.384 . S
N292 C288 1.427 . S
N292 C289 1.384 . S
N293 C285 1.427 . S
N293 C291 1.384 . S
H294 C300 0.930 . S
H295 C304 0.930 . S
H296 C309 0.929 . S
H297 C307 0.929 . S
H298 C302 0.929 . S
H299 C308 0.929 . S
C300 H294 0.930 . S
C300 C301 1.367 . S
C300 C308 1.378 . S
C301 C300 1.367 . S
C301 C309 1.433 . S
C302 H298 0.929 . S
C302 C304 1.378 . S
C302 C306 1.350 . S
C303 C306 1.463 . S
C303 C308 1.350 . S
C303 N311 1.427 . S
C304 H295 0.930 . S
C304 C302 1.378 . S
C304 C305 1.367 . S
C305 C304 1.367 . S
C305 C307 1.433 . S
C306 C302 1.350 . S
C306 C303 1.463 . S
C306 N310 1.427 . S
C307 H297 0.929 . S
C307 C305 1.433 . S
C307 N310 1.384 . S
C308 H299 0.929 . S
C308 C300 1.378 . S
C308 C303 1.350 . S
C309 H296 0.929 . S
C309 C301 1.433 . S
C309 N311 1.384 . S
N310 C306 1.427 . S
N310 C307 1.384 . S
N311 C303 1.427 . S
N311 C309 1.384 . S
H312 C318 0.930 . S
H313 C322 0.930 . S
H314 C327 0.929 . S
H315 C325 0.929 . S
H316 C320 0.929 . S
H317 C326 0.929 . S
C318 H312 0.930 . S
C318 C319 1.367 . S
C318 C326 1.378 . S
C319 C318 1.367 . S
C319 C327 1.433 . S
C320 H316 0.929 . S
C320 C322 1.378 . S
C320 C324 1.350 . S
C321 C324 1.463 . S
C321 C326 1.350 . S
C321 N329 1.427 . S
C322 H313 0.930 . S
C322 C320 1.378 . S
C322 C323 1.367 . S
C323 C322 1.367 . S
C323 C325 1.433 . S
C324 C320 1.350 . S
C324 C321 1.463 . S
C324 N328 1.427 . S
C325 H315 0.929 . S
C325 C323 1.433 . S
C325 N328 1.384 . S
C326 H317 0.929 . S
C326 C318 1.378 . S
C326 C321 1.350 . S
C327 H314 0.929 . S
C327 C319 1.433 . S
C327 N329 1.384 . S
N328 C324 1.427 . S
N328 C325 1.384 . S
N329 C321 1.427 . S
N329 C327 1.384 . S
H330 C336 0.930 . S
H331 C340 0.930 . S
H332 C345 0.929 . S
H333 C343 0.929 . S
H334 C338 0.929 . S
H335 C344 0.929 . S
C336 H330 0.930 . S
C336 C337 1.367 . S
C336 C344 1.378 . S
C337 C336 1.367 . S
C337 C345 1.433 . S
C338 H334 0.929 . S
C338 C340 1.378 . S
C338 C342 1.350 . S
C339 C342 1.463 . S
C339 C344 1.350 . S
C339 N347 1.427 . S
C340 H331 0.930 . S
C340 C338 1.378 . S
C340 C341 1.367 . S
C341 C340 1.367 . S
C341 C343 1.433 . S
C342 C338 1.350 . S
C342 C339 1.463 . S
C342 N346 1.427 . S
C343 H333 0.929 . S
C343 C341 1.433 . S
C343 N346 1.384 . S
C344 H335 0.929 . S
C344 C336 1.378 . S
C344 C339 1.350 . S
C345 H332 0.929 . S
C345 C337 1.433 . S
C345 N347 1.384 . S
N346 C342 1.427 . S
N346 C343 1.384 . S
N347 C339 1.427 . S
N347 C345 1.384 . S
H348 C354 0.930 . S
H349 C358 0.930 . S
H350 C363 0.929 . S
H351 C361 0.929 . S
H352 C356 0.929 . S
H353 C362 0.929 . S
C354 H348 0.930 . S
C354 C355 1.367 . S
C354 C362 1.378 . S
C355 C354 1.367 . S
C355 C363 1.433 . S
C356 H352 0.929 . S
C356 C358 1.378 . S
C356 C360 1.350 . S
C357 C360 1.463 . S
C357 C362 1.350 . S
C357 N365 1.427 . S
C358 H349 0.930 . S
C358 C356 1.378 . S
C358 C359 1.367 . S
C359 C358 1.367 . S
C359 C361 1.433 . S
C360 C356 1.350 . S
C360 C357 1.463 . S
C360 N364 1.427 . S
C361 H351 0.929 . S
C361 C359 1.433 . S
C361 N364 1.384 . S
C362 H353 0.929 . S
C362 C354 1.378 . S
C362 C357 1.350 . S
C363 H350 0.929 . S
C363 C355 1.433 . S
C363 N365 1.384 . S
N364 C360 1.427 . S
N364 C361 1.384 . S
N365 C357 1.427 . S
N365 C363 1.384 . S
H366 C372 0.930 . S
H367 C376 0.930 . S
H368 C381 0.929 . S
H369 C379 0.929 . S
H370 C374 0.929 . S
H371 C380 0.929 . S
C372 H366 0.930 . S
C372 C373 1.367 . S
C372 C380 1.378 . S
C373 C372 1.367 . S
C373 C381 1.433 . S
C374 H370 0.929 . S
C374 C376 1.378 . S
C374 C378 1.350 . S
C375 C378 1.463 . S
C375 C380 1.350 . S
C375 N383 1.427 . S
C376 H367 0.930 . S
C376 C374 1.378 . S
C376 C377 1.367 . S
C377 C376 1.367 . S
C377 C379 1.433 . S
C378 C374 1.350 . S
C378 C375 1.463 . S
C378 N382 1.427 . S
C379 H369 0.929 . S
C379 C377 1.433 . S
C379 N382 1.384 . S
C380 H371 0.929 . S
C380 C372 1.378 . S
C380 C375 1.350 . S
C381 H368 0.929 . S
C381 C373 1.433 . S
C381 N383 1.384 . S
N382 C378 1.427 . S
N382 C379 1.384 . S
N383 C375 1.427 . S
N383 C381 1.384 . S
H384 C390 0.930 . S
H385 C394 0.930 . S
H386 C399 0.929 . S
H387 C397 0.929 . S
H388 C392 0.929 . S
H389 C398 0.929 . S
C390 H384 0.930 . S
C390 C391 1.367 . S
C390 C398 1.378 . S
C391 C390 1.367 . S
C391 C399 1.433 . S
C392 H388 0.929 . S
C392 C394 1.378 . S
C392 C396 1.350 . S
C393 C396 1.463 . S
C393 C398 1.350 . S
C393 N401 1.427 . S
C394 H385 0.930 . S
C394 C392 1.378 . S
C394 C395 1.367 . S
C395 C394 1.367 . S
C395 C397 1.433 . S
C396 C392 1.350 . S
C396 C393 1.463 . S
C396 N400 1.427 . S
C397 H387 0.929 . S
C397 C395 1.433 . S
C397 N400 1.384 . S
C398 H389 0.929 . S
C398 C390 1.378 . S
C398 C393 1.350 . S
C399 H386 0.929 . S
C399 C391 1.433 . S
C399 N401 1.384 . S
N400 C396 1.427 . S
N400 C397 1.384 . S
N401 C393 1.427 . S
N401 C399 1.384 . S
H402 C408 0.930 . S
H403 C412 0.930 . S
H404 C417 0.929 . S
H405 C415 0.929 . S
H406 C410 0.929 . S
H407 C416 0.929 . S
C408 H402 0.930 . S
C408 C409 1.367 . S
C408 C416 1.378 . S
C409 C408 1.367 . S
C409 C417 1.433 . S
C410 H406 0.929 . S
C410 C412 1.378 . S
C410 C414 1.350 . S
C411 C414 1.463 . S
C411 C416 1.350 . S
C411 N419 1.427 . S
C412 H403 0.930 . S
C412 C410 1.378 . S
C412 C413 1.367 . S
C413 C412 1.367 . S
C413 C415 1.433 . S
C414 C410 1.350 . S
C414 C411 1.463 . S
C414 N418 1.427 . S
C415 H405 0.929 . S
C415 C413 1.433 . S
C415 N418 1.384 . S
C416 H407 0.929 . S
C416 C408 1.378 . S
C416 C411 1.350 . S
C417 H404 0.929 . S
C417 C409 1.433 . S
C417 N419 1.384 . S
N418 C414 1.427 . S
N418 C415 1.384 . S
N419 C411 1.427 . S
N419 C417 1.384 . S
H420 C426 0.930 . S
H421 C430 0.930 . S
H422 C435 0.929 . S
H423 C433 0.929 . S
H424 C428 0.929 . S
H425 C434 0.929 . S
C426 H420 0.930 . S
C426 C427 1.367 . S
C426 C434 1.378 . S
C427 C426 1.367 . S
C427 C435 1.433 . S
C428 H424 0.929 . S
C428 C430 1.378 . S
C428 C432 1.350 . S
C429 C432 1.463 . S
C429 C434 1.350 . S
C429 N437 1.427 . S
C430 H421 0.930 . S
C430 C428 1.378 . S
C430 C431 1.367 . S
C431 C430 1.367 . S
C431 C433 1.433 . S
C432 C428 1.350 . S
C432 C429 1.463 . S
C432 N436 1.427 . S
C433 H423 0.929 . S
C433 C431 1.433 . S
C433 N436 1.384 . S
C434 H425 0.929 . S
C434 C426 1.378 . S
C434 C429 1.350 . S
C435 H422 0.929 . S
C435 C427 1.433 . S
C435 N437 1.384 . S
N436 C432 1.427 . S
N436 C433 1.384 . S
N437 C429 1.427 . S
N437 C435 1.384 . S
H438 C444 0.930 . S
H439 C448 0.930 . S
H440 C453 0.929 . S
H441 C451 0.929 . S
H442 C446 0.929 . S
H443 C452 0.929 . S
C444 H438 0.930 . S
C444 C445 1.367 . S
C444 C452 1.378 . S
C445 C444 1.367 . S
C445 C453 1.433 . S
C446 H442 0.929 . S
C446 C448 1.378 . S
C446 C450 1.350 . S
C447 C450 1.463 . S
C447 C452 1.350 . S
C447 N455 1.427 . S
C448 H439 0.930 . S
C448 C446 1.378 . S
C448 C449 1.367 . S
C449 C448 1.367 . S
C449 C451 1.433 . S
C450 C446 1.350 . S
C450 C447 1.463 . S
C450 N454 1.427 . S
C451 H441 0.929 . S
C451 C449 1.433 . S
C451 N454 1.384 . S
C452 H443 0.929 . S
C452 C444 1.378 . S
C452 C447 1.350 . S
C453 H440 0.929 . S
C453 C445 1.433 . S
C453 N455 1.384 . S
N454 C450 1.427 . S
N454 C451 1.384 . S
N455 C447 1.427 . S
N455 C453 1.384 . S
H456 C462 0.930 . S
H457 C466 0.930 . S
H458 C471 0.929 . S
H459 C469 0.929 . S
H460 C464 0.929 . S
H461 C470 0.929 . S
C462 H456 0.930 . S
C462 C463 1.367 . S
C462 C470 1.378 . S
C463 C462 1.367 . S
C463 C471 1.433 . S
C464 H460 0.929 . S
C464 C466 1.378 . S
C464 C468 1.350 . S
C465 C468 1.463 . S
C465 C470 1.350 . S
C465 N473 1.427 . S
C466 H457 0.930 . S
C466 C464 1.378 . S
C466 C467 1.367 . S
C467 C466 1.367 . S
C467 C469 1.433 . S
C468 C464 1.350 . S
C468 C465 1.463 . S
C468 N472 1.427 . S
C469 H459 0.929 . S
C469 C467 1.433 . S
C469 N472 1.384 . S
C470 H461 0.929 . S
C470 C462 1.378 . S
C470 C465 1.350 . S
C471 H458 0.929 . S
C471 C463 1.433 . S
C471 N473 1.384 . S
N472 C468 1.427 . S
N472 C469 1.384 . S
N473 C465 1.427 . S
N473 C471 1.384 . S
H474 C480 0.930 . S
H475 C484 0.930 . S
H476 C489 0.929 . S
H477 C487 0.929 . S
H478 C482 0.929 . S
H479 C488 0.929 . S
C480 H474 0.930 . S
C480 C481 1.367 . S
C480 C488 1.378 . S
C481 C480 1.367 . S
C481 C489 1.433 . S
C482 H478 0.929 . S
C482 C484 1.378 . S
C482 C486 1.350 . S
C483 C486 1.463 . S
C483 C488 1.350 . S
C483 N491 1.427 . S
C484 H475 0.930 . S
C484 C482 1.378 . S
C484 C485 1.367 . S
C485 C484 1.367 . S
C485 C487 1.433 . S
C486 C482 1.350 . S
C486 C483 1.463 . S
C486 N490 1.427 . S
C487 H477 0.929 . S
C487 C485 1.433 . S
C487 N490 1.384 . S
C488 H479 0.929 . S
C488 C480 1.378 . S
C488 C483 1.350 . S
C489 H476 0.929 . S
C489 C481 1.433 . S
C489 N491 1.384 . S
N490 C486 1.427 . S
N490 C487 1.384 . S
N491 C483 1.427 . S
N491 C489 1.384 . S
H492 C498 0.930 . S
H493 C502 0.930 . S
H494 C507 0.929 . S
H495 C505 0.929 . S
H496 C500 0.929 . S
H497 C506 0.929 . S
C498 H492 0.930 . S
C498 C499 1.367 . S
C498 C506 1.378 . S
C499 C498 1.367 . S
C499 C507 1.433 . S
C500 H496 0.929 . S
C500 C502 1.378 . S
C500 C504 1.350 . S
C501 C504 1.463 . S
C501 C506 1.350 . S
C501 N509 1.427 . S
C502 H493 0.930 . S
C502 C500 1.378 . S
C502 C503 1.367 . S
C503 C502 1.367 . S
C503 C505 1.433 . S
C504 C500 1.350 . S
C504 C501 1.463 . S
C504 N508 1.427 . S
C505 H495 0.929 . S
C505 C503 1.433 . S
C505 N508 1.384 . S
C506 H497 0.929 . S
C506 C498 1.378 . S
C506 C501 1.350 . S
C507 H494 0.929 . S
C507 C499 1.433 . S
C507 N509 1.384 . S
N508 C504 1.427 . S
N508 C505 1.384 . S
N509 C501 1.427 . S
N509 C507 1.384 . S
H510 C516 0.930 . S
H511 C520 0.930 . S
H512 C525 0.929 . S
H513 C523 0.929 . S
H514 C518 0.929 . S
H515 C524 0.929 . S
C516 H510 0.930 . S
C516 C517 1.367 . S
C516 C524 1.378 . S
C517 C516 1.367 . S
C517 C525 1.433 . S
C518 H514 0.929 . S
C518 C520 1.378 . S
C518 C522 1.350 . S
C519 C522 1.463 . S
C519 C524 1.350 . S
C519 N527 1.427 . S
C520 H511 0.930 . S
C520 C518 1.378 . S
C520 C521 1.367 . S
C521 C520 1.367 . S
C521 C523 1.433 . S
C522 C518 1.350 . S
C522 C519 1.463 . S
C522 N526 1.427 . S
C523 H513 0.929 . S
C523 C521 1.433 . S
C523 N526 1.384 . S
C524 H515 0.929 . S
C524 C516 1.378 . S
C524 C519 1.350 . S
C525 H512 0.929 . S
C525 C517 1.433 . S
C525 N527 1.384 . S
N526 C522 1.427 . S
N526 C523 1.384 . S
N527 C519 1.427 . S
N527 C525 1.384 . S
H528 C534 0.930 . S
H529 C538 0.930 . S
H530 C543 0.929 . S
H531 C541 0.929 . S
H532 C536 0.929 . S
H533 C542 0.929 . S
C534 H528 0.930 . S
C534 C535 1.367 . S
C534 C542 1.378 . S
C535 C534 1.367 . S
C535 C543 1.433 . S
C536 H532 0.929 . S
C536 C538 1.378 . S
C536 C540 1.350 . S
C537 C540 1.463 . S
C537 C542 1.350 . S
C537 N545 1.427 . S
C538 H529 0.930 . S
C538 C536 1.378 . S
C538 C539 1.367 . S
C539 C538 1.367 . S
C539 C541 1.433 . S
C540 C536 1.350 . S
C540 C537 1.463 . S
C540 N544 1.427 . S
C541 H531 0.929 . S
C541 C539 1.433 . S
C541 N544 1.384 . S
C542 H533 0.929 . S
C542 C534 1.378 . S
C542 C537 1.350 . S
C543 H530 0.929 . S
C543 C535 1.433 . S
C543 N545 1.384 . S
N544 C540 1.427 . S
N544 C541 1.384 . S
N545 C537 1.427 . S
N545 C543 1.384 . S
H546 C552 0.930 . S
H547 C556 0.930 . S
H548 C561 0.929 . S
H549 C559 0.929 . S
H550 C554 0.929 . S
H551 C560 0.929 . S
C552 H546 0.930 . S
C552 C553 1.367 . S
C552 C560 1.378 . S
C553 C552 1.367 . S
C553 C561 1.433 . S
C554 H550 0.929 . S
C554 C556 1.378 . S
C554 C558 1.350 . S
C555 C558 1.463 . S
C555 C560 1.350 . S
C555 N563 1.427 . S
C556 H547 0.930 . S
C556 C554 1.378 . S
C556 C557 1.367 . S
C557 C556 1.367 . S
C557 C559 1.433 . S
C558 C554 1.350 . S
C558 C555 1.463 . S
C558 N562 1.427 . S
C559 H549 0.929 . S
C559 C557 1.433 . S
C559 N562 1.384 . S
C560 H551 0.929 . S
C560 C552 1.378 . S
C560 C555 1.350 . S
C561 H548 0.929 . S
C561 C553 1.433 . S
C561 N563 1.384 . S
N562 C558 1.427 . S
N562 C559 1.384 . S
N563 C555 1.427 . S
N563 C561 1.384 . S
H564 C570 0.930 . S
H565 C574 0.930 . S
H566 C579 0.929 . S
H567 C577 0.929 . S
H568 C572 0.929 . S
H569 C578 0.929 . S
C570 H564 0.930 . S
C570 C571 1.367 . S
C570 C578 1.378 . S
C571 C570 1.367 . S
C571 C579 1.433 . S
C572 H568 0.929 . S
C572 C574 1.378 . S
C572 C576 1.350 . S
C573 C576 1.463 . S
C573 C578 1.350 . S
C573 N581 1.427 . S
C574 H565 0.930 . S
C574 C572 1.378 . S
C574 C575 1.367 . S
C575 C574 1.367 . S
C575 C577 1.433 . S
C576 C572 1.350 . S
C576 C573 1.463 . S
C576 N580 1.427 . S
C577 H567 0.929 . S
C577 C575 1.433 . S
C577 N580 1.384 . S
C578 H569 0.929 . S
C578 C570 1.378 . S
C578 C573 1.350 . S
C579 H566 0.929 . S
C579 C571 1.433 . S
C579 N581 1.384 . S
N580 C576 1.427 . S
N580 C577 1.384 . S
N581 C573 1.427 . S
N581 C579 1.384 . S
H582 C588 0.930 . S
H583 C592 0.930 . S
H584 C597 0.929 . S
H585 C595 0.929 . S
H586 C590 0.929 . S
H587 C596 0.929 . S
C588 H582 0.930 . S
C588 C589 1.367 . S
C588 C596 1.378 . S
C589 C588 1.367 . S
C589 C597 1.433 . S
C590 H586 0.929 . S
C590 C592 1.378 . S
C590 C594 1.350 . S
C591 C594 1.463 . S
C591 C596 1.350 . S
C591 N599 1.427 . S
C592 H583 0.930 . S
C592 C590 1.378 . S
C592 C593 1.367 . S
C593 C592 1.367 . S
C593 C595 1.433 . S
C594 C590 1.350 . S
C594 C591 1.463 . S
C594 N598 1.427 . S
C595 H585 0.929 . S
C595 C593 1.433 . S
C595 N598 1.384 . S
C596 H587 0.929 . S
C596 C588 1.378 . S
C596 C591 1.350 . S
C597 H584 0.929 . S
C597 C589 1.433 . S
C597 N599 1.384 . S
N598 C594 1.427 . S
N598 C595 1.384 . S
N599 C591 1.427 . S
N599 C597 1.384 . S
H600 C606 0.930 . S
H601 C610 0.930 . S
H602 C615 0.929 . S
H603 C613 0.929 . S
H604 C608 0.929 . S
H605 C614 0.929 . S
C606 H600 0.930 . S
C606 C607 1.367 . S
C606 C614 1.378 . S
C607 C606 1.367 . S
C607 C615 1.433 . S
C608 H604 0.929 . S
C608 C610 1.378 . S
C608 C612 1.350 . S
C609 C612 1.463 . S
C609 C614 1.350 . S
C609 N617 1.427 . S
C610 H601 0.930 . S
C610 C608 1.378 . S
C610 C611 1.367 . S
C611 C610 1.367 . S
C611 C613 1.433 . S
C612 C608 1.350 . S
C612 C609 1.463 . S
C612 N616 1.427 . S
C613 H603 0.929 . S
C613 C611 1.433 . S
C613 N616 1.384 . S
C614 H605 0.929 . S
C614 C606 1.378 . S
C614 C609 1.350 . S
C615 H602 0.929 . S
C615 C607 1.433 . S
C615 N617 1.384 . S
N616 C612 1.427 . S
N616 C613 1.384 . S
N617 C609 1.427 . S
N617 C615 1.384 . S
H618 C624 0.930 . S
H619 C628 0.930 . S
H620 C633 0.929 . S
H621 C631 0.929 . S
H622 C626 0.929 . S
H623 C632 0.929 . S
C624 H618 0.930 . S
C624 C625 1.367 . S
C624 C632 1.378 . S
C625 C624 1.367 . S
C625 C633 1.433 . S
C626 H622 0.929 . S
C626 C628 1.378 . S
C626 C630 1.350 . S
C627 C630 1.463 . S
C627 C632 1.350 . S
C627 N635 1.427 . S
C628 H619 0.930 . S
C628 C626 1.378 . S
C628 C629 1.367 . S
C629 C628 1.367 . S
C629 C631 1.433 . S
C630 C626 1.350 . S
C630 C627 1.463 . S
C630 N634 1.427 . S
C631 H621 0.929 . S
C631 C629 1.433 . S
C631 N634 1.384 . S
C632 H623 0.929 . S
C632 C624 1.378 . S
C632 C627 1.350 . S
C633 H620 0.929 . S
C633 C625 1.433 . S
C633 N635 1.384 . S
N634 C630 1.427 . S
N634 C631 1.384 . S
N635 C627 1.427 . S
N635 C633 1.384 . S
H636 C642 0.930 . S
H637 C646 0.930 . S
H638 C651 0.929 . S
H639 C649 0.929 . S
H640 C644 0.929 . S
H641 C650 0.929 . S
C642 H636 0.930 . S
C642 C643 1.367 . S
C642 C650 1.378 . S
C643 C642 1.367 . S
C643 C651 1.433 . S
C644 H640 0.929 . S
C644 C646 1.378 . S
C644 C648 1.350 . S
C645 C648 1.463 . S
C645 C650 1.350 . S
C645 N653 1.427 . S
C646 H637 0.930 . S
C646 C644 1.378 . S
C646 C647 1.367 . S
C647 C646 1.367 . S
C647 C649 1.433 . S
C648 C644 1.350 . S
C648 C645 1.463 . S
C648 N652 1.427 . S
C649 H639 0.929 . S
C649 C647 1.433 . S
C649 N652 1.384 . S
C650 H641 0.929 . S
C650 C642 1.378 . S
C650 C645 1.350 . S
C651 H638 0.929 . S
C651 C643 1.433 . S
C651 N653 1.384 . S
N652 C648 1.427 . S
N652 C649 1.384 . S
N653 C645 1.427 . S
N653 C651 1.384 . S
H654 C660 0.930 . S
H655 C664 0.930 . S
H656 C669 0.929 . S
H657 C667 0.929 . S
H658 C662 0.929 . S
H659 C668 0.929 . S
C660 H654 0.930 . S
C660 C661 1.367 . S
C660 C668 1.378 . S
C661 C660 1.367 . S
C661 C669 1.433 . S
C662 H658 0.929 . S
C662 C664 1.378 . S
C662 C666 1.350 . S
C663 C666 1.463 . S
C663 C668 1.350 . S
C663 N671 1.427 . S
C664 H655 0.930 . S
C664 C662 1.378 . S
C664 C665 1.367 . S
C665 C664 1.367 . S
C665 C667 1.433 . S
C666 C662 1.350 . S
C666 C663 1.463 . S
C666 N670 1.427 . S
C667 H657 0.929 . S
C667 C665 1.433 . S
C667 N670 1.384 . S
C668 H659 0.929 . S
C668 C660 1.378 . S
C668 C663 1.350 . S
C669 H656 0.929 . S
C669 C661 1.433 . S
C669 N671 1.384 . S
N670 C666 1.427 . S
N670 C667 1.384 . S
N671 C663 1.427 . S
N671 C669 1.384 . S
H672 C678 0.930 . S
H673 C682 0.930 . S
H674 C687 0.929 . S
H675 C685 0.929 . S
H676 C680 0.929 . S
H677 C686 0.929 . S
C678 H672 0.930 . S
C678 C679 1.367 . S
C678 C686 1.378 . S
C679 C678 1.367 . S
C679 C687 1.433 . S
C680 H676 0.929 . S
C680 C682 1.378 . S
C680 C684 1.350 . S
C681 C684 1.463 . S
C681 C686 1.350 . S
C681 N689 1.427 . S
C682 H673 0.930 . S
C682 C680 1.378 . S
C682 C683 1.367 . S
C683 C682 1.367 . S
C683 C685 1.433 . S
C684 C680 1.350 . S
C684 C681 1.463 . S
C684 N688 1.427 . S
C685 H675 0.929 . S
C685 C683 1.433 . S
C685 N688 1.384 . S
C686 H677 0.929 . S
C686 C678 1.378 . S
C686 C681 1.350 . S
C687 H674 0.929 . S
C687 C679 1.433 . S
C687 N689 1.384 . S
N688 C684 1.427 . S
N688 C685 1.384 . S
N689 C681 1.427 . S
N689 C687 1.384 . S
H690 C696 0.930 . S
H691 C700 0.930 . S
H692 C705 0.929 . S
H693 C703 0.929 . S
H694 C698 0.929 . S
H695 C704 0.929 . S
C696 H690 0.930 . S
C696 C697 1.367 . S
C696 C704 1.378 . S
C697 C696 1.367 . S
C697 C705 1.433 . S
C698 H694 0.929 . S
C698 C700 1.378 . S
C698 C702 1.350 . S
C699 C702 1.463 . S
C699 C704 1.350 . S
C699 N707 1.427 . S
C700 H691 0.930 . S
C700 C698 1.378 . S
C700 C701 1.367 . S
C701 C700 1.367 . S
C701 C703 1.433 . S
C702 C698 1.350 . S
C702 C699 1.463 . S
C702 N706 1.427 . S
C703 H693 0.929 . S
C703 C701 1.433 . S
C703 N706 1.384 . S
C704 H695 0.929 . S
C704 C696 1.378 . S
C704 C699 1.350 . S
C705 H692 0.929 . S
C705 C697 1.433 . S
C705 N707 1.384 . S
N706 C702 1.427 . S
N706 C703 1.384 . S
N707 C699 1.427 . S
N707 C705 1.384 . S
C283 C7 2.244 . S
C287 C145 2.218 . S
C301 C30 1.332 . S
C305 N163 1.322 . S
C323 C191 2.061 . S
C319 N58 2.033 . S
C341 N209 1.216 . S
C337 N81 1.167 . S
C359 C237 2.131 . S
C355 C99 2.162 . S
C377 N255 1.258 . S
C373 N127 1.216 . S
C391 N25 2.036 . S
C395 C200 2.081 . S
C409 C62 1.323 . S
C413 N219 1.249 . S
C431 C246 2.178 . S
C427 C85 2.173 . S
C449 N265 1.180 . S
C445 N94 1.231 . S
C463 C131 2.173 . S
C467 C154 2.164 . S
C485 N173 1.156 . S
C481 N2 1.182 . S
C503 C223 2.050 . S
C499 C16 2.084 . S
C517 C39 1.174 . S
C521 N242 1.157 . S
C539 C269 1.910 . S
C535 N48 1.919 . S
C553 N71 1.063 . S
C557 N150 1.077 . S
C571 C108 2.042 . S
C575 C177 2.004 . S
C589 N117 1.065 . S
C593 N196 1.085 . S
C607 N35 1.918 . S
C611 C260 1.949 . S
C629 N140 1.129 . S
C625 C53 1.191 . S
C643 C76 2.118 . S
C647 C168 2.106 . S
C661 N104 1.062 . S
C665 N186 1.041 . S
C679 C122 2.053 . S
C683 C214 2.042 . S
C697 N12 1.037 . S
C701 N232 1.017 . S
