# Generated by pormake.
# Topology scu, (8,4)-cn, num edge types: 1
# Building blocks:
#     Node 0, Type 0, BuildingBlock: TAGTUT_clean_sbu_3, # of connection points: 8
#     Node 1, Type 1, BuildingBlock: KOZSID_clean_sbu_0, # of connection points: 4
#     Node 2, Type 1, BuildingBlock: KOZSID_clean_sbu_0, # of connection points: 4
#     Edge 3, Type (0, 1), BuildingBlock: UVAHIK_clean_linker_0, # of connection points: 2
#     Edge 4, Type (0, 1), BuildingBlock: UVAHIK_clean_linker_0, # of connection points: 2
#     Edge 5, Type (0, 1), BuildingBlock: UVAHIK_clean_linker_0, # of connection points: 2
#     Edge 6, Type (0, 1), BuildingBlock: UVAHIK_clean_linker_0, # of connection points: 2
#     Edge 7, Type (0, 1), BuildingBlock: UVAHIK_clean_linker_0, # of connection points: 2
#     Edge 8, Type (0, 1), BuildingBlock: UVAHIK_clean_linker_0, # of connection points: 2
#     Edge 9, Type (0, 1), BuildingBlock: UVAHIK_clean_linker_0, # of connection points: 2
#     Edge 10, Type (0, 1), BuildingBlock: UVAHIK_clean_linker_0, # of connection points: 2
# Relax obj value: 0.024
# Max RMSD: 0.104
# Mean RMSD: 0.060
data_MOF--net-scu--node1-TAGTUT_clean_sbu_3--node2-KOZSID_clean_sbu_0--edge1-UVAHIK_clean_linker_0
_symmetry_space_group_name_H-M    P1
_symmetry_Int_Tables_number       1
_symmetry_cell_setting            triclinic
loop_
_symmetry_equiv_pos_as_xyz
'x, y, z'
_cell_length_a     38.018987
_cell_length_b     32.643697
_cell_length_c     26.5758
_cell_angle_alpha  85.919055
_cell_angle_beta   87.746999
_cell_angle_gamma 89.965088
loop_
_atom_site_label
_atom_site_type_symbol
_atom_site_fract_x
_atom_site_fract_y
_atom_site_fract_z
_atom_type_partial_charge
C0 C 0.00325 0.91488 0.07207 0.0
C1 C 0.87013 0.97455 0.06264 0.0
C2 C 0.90485 0.0139 0.91334 0.0
Mg3 Mg 0.07302 0.95038 0.0096 0.0
Mg4 Mg 0.08133 0.04988 0.98274 0.0
O5 O 0.05455 0.00259 0.97541 0.0
Mg6 Mg 0.00442 0.0005 0.00226 0.0
O7 O 0.95453 0.99407 0.02933 0.0
Mg8 Mg 0.94077 0.94307 0.99627 0.0
Mg9 Mg 0.92485 0.03919 0.01526 0.0
C10 C 0.01076 0.08862 0.93759 0.0
O11 O 0.01045 0.05219 0.0562 0.0
O12 O 0.12392 0.96224 0.95774 0.0
O13 O 0.95762 0.08364 0.04895 0.0
O14 O 0.09939 0.98225 0.07289 0.0
O15 O 0.12643 0.03083 0.93926 0.0
O16 O 0.09925 0.05022 0.05868 0.0
O17 O 0.99343 0.95068 0.94996 0.0
O18 O 0.04514 0.91848 0.94801 0.0
C19 C 0.01345 0.92265 0.93376 0.0
C20 C 0.13878 0.99453 0.93562 0.0
O21 O 0.99322 0.05494 0.94573 0.0
O22 O 0.88854 0.94467 0.04643 0.0
O23 O 0.04221 0.09344 0.95264 0.0
O24 O 0.9122 0.97795 0.93195 0.0
O25 O 0.87927 0.01232 0.05466 0.0
O26 O 0.91189 0.04556 0.9366 0.0
O27 O 0.02004 0.94755 0.05642 0.0
O28 O 0.97208 0.9079 0.05786 0.0
C29 C 0.1064 0.01801 0.08634 0.0
C30 C 0.98921 0.08195 0.06474 0.0
C31 C 0.06425 0.56114 0.45033 0.0
C32 C 0.09996 0.57025 0.44948 0.0
C33 C 0.11448 0.54397 0.48502 0.0
C34 C 0.08702 0.52021 0.50516 0.0
N35 N 0.05575 0.5297 0.48474 0.0
Co36 Co 0.00949 0.50119 0.50095 0.0
N37 N 0.03044 0.46476 0.55592 0.0
C38 C 0.06414 0.46486 0.57056 0.0
C39 C 0.07066 0.43678 0.60982 0.0
C40 C 0.03915 0.41788 0.62146 0.0
C41 C 0.01508 0.43572 0.58851 0.0
N42 N 0.96356 0.47164 0.51588 0.0
C43 C 0.95481 0.44101 0.55129 0.0
C44 C 0.91999 0.42889 0.54846 0.0
C45 C 0.90622 0.45269 0.50984 0.0
C46 C 0.93327 0.47788 0.49142 0.0
N47 N 0.98815 0.53893 0.44757 0.0
C48 C 0.95409 0.53985 0.43444 0.0
C49 C 0.94658 0.57092 0.3992 0.0
C50 C 0.97764 0.59126 0.38927 0.0
C51 C 0.00257 0.57097 0.41872 0.0
N52 N 0.02214 0.46123 0.45032 0.0
C53 C 0.04036 0.40605 0.37713 0.0
C54 C 0.00976 0.42939 0.3736 0.0
C55 C 1.00104 0.45626 0.41054 0.0
C56 C 0.06171 0.41044 0.41781 0.0
C57 C 0.05234 0.43829 0.45347 0.0
N58 N 0.99697 0.54127 0.551 0.0
C59 C 0.95546 0.58896 0.58538 0.0
C60 C 0.98171 0.60558 0.61308 0.0
C61 C 0.0151 0.58772 0.61166 0.0
C62 C 0.02209 0.55578 0.5807 0.0
C63 C 0.96357 0.55684 0.55499 0.0
H64 H 0.04819 0.5439 0.58054 0.0
H65 H 0.94263 0.54582 0.53412 0.0
H66 H 0.97698 0.47244 0.40606 0.0
H67 H 0.07004 0.44058 0.4831 0.0
C68 C 0.08941 0.49049 0.54523 0.0
C69 C 0.03956 0.58318 0.41773 0.0
C70 C 0.97807 0.42373 0.5895 0.0
C71 C 0.93004 0.51031 0.45481 0.0
H72 H 0.11408 0.59357 0.42577 0.0
H73 H 0.14173 0.54265 0.49535 0.0
H74 H 0.09542 0.43057 0.62759 0.0
H75 H 0.03452 0.39351 0.65076 0.0
H76 H 0.90579 0.40584 0.5725 0.0
H77 H 0.87938 0.45255 0.4977 0.0
H78 H 0.92151 0.57796 0.38271 0.0
H79 H 0.98139 0.61806 0.36325 0.0
H80 H 0.99213 0.42625 0.34303 0.0
H81 H 0.08567 0.39271 0.42185 0.0
H82 H 0.92912 0.60164 0.58553 0.0
H83 H 0.03602 0.59877 0.63374 0.0
C84 C 0.462 0.95989 0.58866 0.0
C85 C 0.45483 0.9228 0.61603 0.0
C86 C 0.47263 0.89328 0.59164 0.0
C87 C 0.48989 0.91398 0.55132 0.0
N88 N 0.48455 0.95499 0.54884 0.0
Co89 Co 0.50627 0.99673 0.49821 0.0
N90 N 0.52741 0.95277 0.45764 0.0
C91 C 0.52301 0.91175 0.46649 0.0
C92 C 0.5396 0.8892 0.43109 0.0
C93 C 0.55598 0.91749 0.39792 0.0
C94 C 0.54873 0.95578 0.41554 0.0
N95 N 0.52972 0.03846 0.4489 0.0
C96 C 0.55323 0.03325 0.41007 0.0
C97 C 0.56616 0.07063 0.38887 0.0
C98 C 0.55039 0.10042 0.41527 0.0
C99 C 0.52908 0.07969 0.45124 0.0
N100 N 0.483 0.04055 0.53716 0.0
C101 C 0.48522 0.0816 0.52619 0.0
C102 C 0.46352 0.10394 0.55609 0.0
C103 C 0.44584 0.07546 0.58754 0.0
C104 C 0.45821 0.03718 0.57541 0.0
N105 N 0.54891 0.99771 0.53949 0.0
C106 C 0.61192 0.00139 0.59243 0.0
C107 C 0.5894 0.03517 0.58741 0.0
C108 C 0.55862 0.03282 0.56084 0.0
C109 C 0.60174 0.96532 0.57137 0.0
C110 C 0.57028 0.964 0.54588 0.0
N111 N 0.46384 0.9961 0.45714 0.0
C112 C 0.41979 0.03315 0.40913 0.0
C113 C 0.40051 0.99721 0.40558 0.0
C114 C 0.41394 0.96039 0.42696 0.0
C115 C 0.44536 0.96056 0.45273 0.0
C116 C 0.45131 0.03185 0.43433 0.0
H117 H 0.45398 0.93175 0.46948 0.0
H118 H 0.46485 0.0603 0.43543 0.0
H119 H 0.54335 0.06011 0.55806 0.0
H120 H 0.5641 0.93538 0.53129 0.0
C121 C 0.50687 0.89539 0.5115 0.0
C122 C 0.445 -0.00159 0.59999 0.0
C123 C 0.56517 0.9936 0.39364 0.0
C124 C 0.50774 0.09804 0.48716 0.0
H125 H 0.43757 0.91746 0.6492 0.0
H126 H 0.47176 0.86045 0.60085 0.0
H127 H 0.54089 0.8561 0.43062 0.0
H128 H 0.57253 0.91065 0.36553 0.0
H129 H 0.58546 0.07593 0.35812 0.0
H130 H 0.55438 0.13327 0.4094 0.0
H131 H 0.46035 0.13696 0.55446 0.0
H132 H 0.42568 0.08232 0.6155 0.0
H133 H 0.59524 0.06356 0.60413 0.0
H134 H 0.61814 0.93819 0.57369 0.0
H135 H 0.41066 0.06224 0.39225 0.0
H136 H 0.3998 0.93178 0.42497 0.0
C137 C 0.03726 0.12261 0.10023 0.0
C138 C 1.00132 0.11627 0.09311 0.0
C139 C 0.04843 0.15593 0.12577 0.0
C140 C 0.01795 0.25695 0.1648 0.0
H141 H 0.08875 0.24225 0.26557 0.0
C142 C 0.04774 0.38751 0.28791 0.0
C143 C 0.04872 0.37592 0.33967 0.0
C144 C 0.05075 0.35796 0.25259 0.0
C145 C 0.06896 0.24685 0.23752 0.0
H146 H 0.94875 0.13971 0.10804 0.0
H147 H 0.96802 0.19707 0.15324 0.0
H148 H 0.07499 0.18567 0.21432 0.0
H149 H 0.05532 0.32508 0.39535 0.0
H150 H 0.05932 0.2731 0.33398 0.0
H151 H 0.01012 0.31695 0.18976 0.0
C152 C 0.98779 0.17691 0.13808 0.0
C153 C 0.06134 0.21458 0.2078 0.0
C154 C 0.97671 0.1438 0.11243 0.0
C155 C 0.05467 0.33469 0.35552 0.0
C156 C 0.05714 0.305 0.32027 0.0
C157 C 0.02532 0.28899 0.19465 0.0
C158 C 0.02377 0.18357 0.14472 0.0
C159 C 0.03506 0.21899 0.17209 0.0
C160 C 0.05412 0.31615 0.26848 0.0
C161 C 0.05032 0.28405 0.2322 0.0
H162 H 0.05679 0.10231 0.08532 0.0
H163 H 0.07636 0.16041 0.12996 0.0
H164 H 0.99807 0.26159 0.13685 0.0
H165 H 0.04367 0.41931 0.27488 0.0
H166 H 0.04918 0.36772 0.21294 0.0
C167 C 0.83422 0.94068 0.13495 0.0
C168 C 0.83636 0.96644 0.09041 0.0
C169 C 0.80349 0.93992 0.16599 0.0
C170 C 0.72602 0.00614 0.19094 0.0
H171 H 0.69268 0.91186 0.27639 0.0
C172 C 0.59451 0.00548 0.30759 0.0
C173 C 0.59622 0.9909 0.35835 0.0
C174 C 0.62333 0.00097 0.27413 0.0
C175 C 0.70186 0.93845 0.25281 0.0
H176 H 0.80784 0.00908 0.04111 0.0
H177 H 0.75377 0.00604 0.09324 0.0
H178 H 0.74299 0.90442 0.21753 0.0
H179 H 0.62871 0.95985 0.41419 0.0
H180 H 0.67912 0.9514 0.35544 0.0
H181 H 0.68455 0.03992 0.22568 0.0
C182 C 0.77598 0.98781 0.10584 0.0
C183 C 0.73073 0.93426 0.21921 0.0
C184 C 0.80678 0.98921 0.07559 0.0
C185 C 0.62701 0.97146 0.37513 0.0
C186 C 0.65563 0.96641 0.34156 0.0
C187 C 0.69697 0.01014 0.22394 0.0
C188 C 0.77432 0.96448 0.15246 0.0
C189 C 0.74319 0.96809 0.18777 0.0
C190 C 0.65408 0.98116 0.29074 0.0
C191 C 0.68464 0.97642 0.25528 0.0
H192 H 0.85694 0.92319 0.14724 0.0
H193 H 0.8033 0.92171 0.20168 0.0
H194 H 0.73535 0.03324 0.16853 0.0
H195 H 0.57077 0.02 0.29383 0.0
H196 H 0.62138 0.01234 0.23504 0.0
C197 C 0.04523 0.89458 0.13959 0.0
C198 C 0.02061 0.88345 0.10487 0.0
C199 C 0.05961 0.86467 0.17308 0.0
C200 C 0.07767 0.75542 0.19461 0.0
H201 H 0.04646 0.76488 0.33389 0.0
C202 C 0.05102 0.61475 0.33034 0.0
C203 C 0.05202 0.61787 0.38254 0.0
C204 C 0.0584 0.64892 0.29711 0.0
C205 C 0.05645 0.76198 0.29561 0.0
H206 H 0.99317 0.83249 0.07579 0.0
H207 H 0.01902 0.78024 0.13331 0.0
H208 H 0.04019 0.82308 0.27253 0.0
H209 H 0.06384 0.65759 0.4414 0.0
H210 H 0.07836 0.71724 0.38329 0.0
H211 H 0.0936 0.69428 0.21708 0.0
C212 C 0.02684 0.81201 0.13503 0.0
C213 C 0.0527 0.7954 0.26046 0.0
C214 C 0.01184 0.84189 0.10253 0.0
C215 C 0.0627 0.65481 0.40111 0.0
C216 C 0.0707 0.68892 0.36783 0.0
C217 C 0.08212 0.72224 0.22991 0.0
C218 C 0.05031 0.82322 0.17113 0.0
C219 C 0.06195 0.79176 0.20941 0.0
C220 C 0.06757 0.68678 0.31544 0.0
C221 C 0.07005 0.72444 0.28042 0.0
H222 H 0.05233 0.92648 0.14207 0.0
H223 H 0.07754 0.87389 0.2009 0.0
H224 H 0.08519 0.75216 0.15535 0.0
H225 H 0.04293 0.58633 0.31545 0.0
H226 H 0.05509 0.64603 0.25726 0.0
C227 C 0.12866 0.98835 0.16843 0.0
C228 C 0.12767 0.02121 0.13138 0.0
C229 C 0.15369 0.9875 0.20564 0.0
C230 C 0.22423 0.04981 0.25951 0.0
H231 H 0.26456 0.94228 0.29025 0.0
C232 C 0.34091 0.02771 0.39169 0.0
C233 C 0.36655 -0.00147 0.3799 0.0
C234 C 0.30933 0.03009 0.3664 0.0
C235 C 0.25393 0.97265 0.28175 0.0
H236 H 0.15092 0.08002 0.10594 0.0
H237 H 0.19531 0.078 0.16944 0.0
H238 H 0.21379 0.94887 0.23808 0.0
H239 H 0.3794 0.94903 0.33245 0.0
H240 H 0.32498 0.954 0.28682 0.0
H241 H 0.26587 0.07385 0.30046 0.0
C242 C 0.17636 0.05318 0.17079 0.0
C243 C 0.2242 0.97639 0.25248 0.0
C244 C 0.15087 0.05437 0.13414 0.0
C245 C 0.3599 0.97154 0.34259 0.0
C246 C 0.32856 0.97433 0.31666 0.0
C247 C 0.25432 0.04614 0.28818 0.0
C248 C 0.17884 0.0191 0.20613 0.0
C249 C 0.20902 0.01506 0.24056 0.0
C250 C 0.30283 0.00376 0.32806 0.0
C251 C 0.26981 0.00752 0.29936 0.0
H252 H 0.11087 0.96251 0.16761 0.0
H253 H 0.15392 0.96137 0.23308 0.0
H254 H 0.21313 0.08006 0.25188 0.0
H255 H 0.34522 0.04857 0.42079 0.0
H256 H 0.28999 0.05252 0.37715 0.0
C257 C 0.96435 0.88706 0.89372 0.0
C258 C 1.00049 0.89521 0.89688 0.0
C259 C 0.95272 0.86035 0.85892 0.0
C260 C 0.97597 0.81933 0.73913 0.0
H261 H 0.93718 0.7144 0.79202 0.0
C262 C 1.00052 0.67384 0.63912 0.0
C263 C 0.97506 0.64259 0.64115 0.0
C264 C 0.99502 0.70861 0.66572 0.0
C265 C 0.94708 0.74388 0.77631 0.0
H266 H 0.05263 0.88292 0.86536 0.0
H267 H 0.03222 0.83722 0.80403 0.0
H268 H 0.94231 0.77025 0.84795 0.0
H269 H 0.92344 0.62365 0.6719 0.0
H270 H 0.91358 0.68508 0.71827 0.0
H271 H 0.98177 0.79305 0.66795 0.0
C272 C 0.013 0.85114 0.82871 0.0
C273 C 0.95002 0.77575 0.80837 0.0
C274 C 0.02466 0.87698 0.86405 0.0
C275 C 0.94351 0.64731 0.66956 0.0
C276 C 0.93796 0.68231 0.6963 0.0
C277 C 0.97262 0.78778 0.70699 0.0
C278 C 0.97704 0.84244 0.82608 0.0
C279 C 0.96591 0.81299 0.79039 0.0
C280 C 0.96377 0.71324 0.6948 0.0
C281 C 0.95976 0.74907 0.72581 0.0
H282 H 0.94518 0.90065 0.91865 0.0
H283 H 0.92486 0.85378 0.85749 0.0
H284 H 0.98803 0.84805 0.72454 0.0
H285 H 0.02483 0.67147 0.61685 0.0
H286 H 0.01577 0.73142 0.66445 0.0
C287 C 0.177 0.95796 0.87415 0.0
C288 C 0.17173 0.99057 0.90523 0.0
C289 C 0.20705 0.95705 0.84194 0.0
C290 C 0.2782 0.02675 0.7847 0.0
H291 H 0.32075 0.92498 0.74649 0.0
C292 C 0.41439 0.01604 0.68109 0.0
C293 C 0.41358 0.99742 0.63517 0.0
C294 C 0.38492 0.01428 0.71431 0.0
C295 C 0.30897 0.95356 0.75689 0.0
H296 H 0.19442 0.04631 0.92963 0.0
H297 H 0.2475 0.04357 0.87626 0.0
H298 H 0.26993 0.92277 0.80594 0.0
H299 H 0.38221 0.96126 0.58841 0.0
H300 H 0.33086 0.95696 0.64757 0.0
H301 H 0.31826 0.05731 0.73698 0.0
C302 C 0.22793 0.01973 0.87431 0.0
C303 C 0.27973 0.95239 0.79066 0.0
C304 C 0.19762 0.02114 0.90538 0.0
C305 C 0.38322 0.97608 0.62354 0.0
C306 C 0.35405 0.9735 0.65728 0.0
C307 C 0.30782 0.02785 0.75192 0.0
C308 C 0.23273 0.98829 0.84111 0.0
C309 C 0.26392 0.98903 0.8051 0.0
C310 C 0.3546 0.99284 0.70274 0.0
C311 C 0.32339 0.99131 0.7377 0.0
H312 H 0.15727 0.93412 0.87323 0.0
H313 H 0.2095 0.93253 0.81668 0.0
H314 H 0.26632 0.05566 0.7935 0.0
H315 H 0.43783 0.03191 0.6912 0.0
H316 H 0.38594 0.02917 0.74939 0.0
C317 C 0.99897 0.16334 0.92659 0.0
C318 C 0.99419 0.12386 0.91048 0.0
C319 C 0.98656 0.19757 0.8984 0.0
C320 C 0.9346 0.23105 0.78544 0.0
H321 H 1.00082 0.32178 0.77842 0.0
C322 C 0.95854 0.35233 0.61729 0.0
C323 C 0.96477 0.3928 0.62912 0.0
C324 C 0.95228 0.32152 0.65585 0.0
C325 C 0.9817 0.29705 0.78058 0.0
H326 H 0.97114 0.08851 0.85425 0.0
H327 H 0.95135 0.14848 0.80283 0.0
H328 H 0.00903 0.26377 0.83846 0.0
H329 H 0.96737 0.43385 0.68924 0.0
H330 H 0.95688 0.37982 0.75703 0.0
H331 H 0.90895 0.26399 0.72433 0.0
C332 C 0.9637 0.15326 0.83795 0.0
C333 C 0.98625 0.26369 0.81529 0.0
C334 C 0.97527 0.11884 0.8671 0.0
C335 C 0.96257 0.4027 0.6796 0.0
C336 C 0.95666 0.3719 0.71814 0.0
C337 C 0.93043 0.26431 0.74989 0.0
C338 C 0.97014 0.19318 0.85251 0.0
C339 C 0.96298 0.23001 0.81806 0.0
C340 C 0.95264 0.33085 0.70664 0.0
C341 C 0.95414 0.29743 0.74703 0.0
H342 H 0.01276 0.16776 0.96072 0.0
H343 H 0.99082 0.22759 0.91198 0.0
H344 H 0.91586 0.20601 0.78686 0.0
H345 H 0.96038 0.34425 0.57843 0.0
H346 H 0.94959 0.29005 0.64607 0.0
C347 C 0.86794 0.05486 0.85092 0.0
C348 C 0.88342 0.01741 0.86771 0.0
C349 C 0.84204 0.05572 0.81464 0.0
C350 C 0.77158 0.99181 0.78051 0.0
H351 H 0.7672 0.05749 0.65362 0.0
C352 C 0.65848 0.96944 0.64783 0.0
C353 C 0.64541 0.0039 0.61975 0.0
C354 C 0.6893 0.97215 0.67443 0.0
C355 C 0.76767 0.03938 0.68932 0.0
H356 H 0.88601 0.95219 0.85604 0.0
H357 H 0.84068 0.95388 0.79401 0.0
H358 H 0.81872 0.06252 0.70533 0.0
H359 H 0.65575 0.06811 0.59669 0.0
H360 H 0.70792 0.07343 0.64544 0.0
H361 H 0.72039 0.96975 0.7665 0.0
C362 C 0.84836 0.98237 0.80913 0.0
C363 C 0.7973 0.04219 0.71869 0.0
C364 C 0.87438 0.98154 0.84467 0.0
C365 C 0.66438 0.04104 0.61868 0.0
C366 C 0.69486 0.04394 0.64604 0.0
C367 C 0.74178 0.98956 0.75183 0.0
C368 C 0.83113 0.01914 0.79506 0.0
C369 C 0.79962 0.01801 0.7642 0.0
C370 C 0.70767 0.0096 0.67463 0.0
C371 C 0.73948 0.01289 0.70545 0.0
H372 H 0.8744 0.08306 0.86768 0.0
H373 H 0.8291 0.08447 0.80417 0.0
H374 H 0.77257 0.9733 0.81592 0.0
H375 H 0.64463 0.94037 0.65019 0.0
H376 H 0.69862 0.94469 0.69495 0.0
loop_
_geom_bond_atom_site_label_1
_geom_bond_atom_site_label_2
_geom_bond_distance
_geom_bond_site_symmetry_2
_ccdc_geom_bond_type
C0 O27 1.312 1_655 S
C0 O28 1.208 . S
C1 O22 1.331 . S
C1 O25 1.244 1_565 S
C2 O24 1.264 1_545 S
C2 O26 1.273 . S
Mg3 O5 1.936 1_565 S
Mg3 O12 2.081 . S
Mg3 O14 2.023 1_556 S
Mg3 O18 2.031 . S
Mg3 O27 2.291 1_556 S
Mg4 O5 1.963 . S
Mg4 O15 1.942 . S
Mg4 O16 1.955 1_556 S
Mg4 O23 1.986 . S
O5 Mg3 1.936 1_545 S
O5 Mg4 1.963 . S
O5 Mg6 1.910 1_556 S
Mg6 O5 1.910 1_554 S
Mg6 O7 1.921 1_455 S
Mg6 O11 2.029 . S
Mg6 O17 2.100 1_444 S
Mg6 O21 1.998 1_454 S
Mg6 O27 2.126 1_545 S
O7 Mg6 1.921 1_655 S
O7 Mg8 1.936 1_545 S
O7 Mg9 1.963 . S
Mg8 O7 1.936 1_565 S
Mg8 O17 2.291 1_554 S
Mg8 O22 2.081 . S
Mg8 O24 2.023 1_554 S
Mg8 O28 2.031 . S
Mg9 O7 1.963 . S
Mg9 O13 1.986 . S
Mg9 O25 1.942 . S
Mg9 O26 1.955 1_554 S
C10 O21 1.191 1_455 S
C10 O23 1.307 . S
O11 Mg6 2.029 . S
O11 C30 1.191 1_455 S
O12 Mg3 2.081 . S
O12 C20 1.331 . S
O13 Mg9 1.986 . S
O13 C30 1.307 . S
O14 Mg3 2.023 1_554 S
O14 C29 1.264 1_565 S
O15 Mg4 1.942 . S
O15 C20 1.244 1_545 S
O16 Mg4 1.955 1_554 S
O16 C29 1.273 . S
O17 Mg6 2.100 1_666 S
O17 Mg8 2.291 1_556 S
O17 C19 1.312 1_655 S
O18 Mg3 2.031 . S
O18 C19 1.208 . S
C19 O17 1.312 1_455 S
C19 O18 1.208 . S
C20 O12 1.331 . S
C20 O15 1.244 1_565 S
O21 Mg6 1.998 1_656 S
O21 C10 1.191 1_655 S
O22 C1 1.331 . S
O22 Mg8 2.081 . S
O23 Mg4 1.986 . S
O23 C10 1.307 . S
O24 C2 1.264 1_565 S
O24 Mg8 2.023 1_556 S
O25 C1 1.244 1_545 S
O25 Mg9 1.942 . S
O26 C2 1.273 . S
O26 Mg9 1.955 1_556 S
O27 C0 1.312 1_455 S
O27 Mg3 2.291 1_554 S
O27 Mg6 2.126 1_565 S
O28 C0 1.208 . S
O28 Mg8 2.031 . S
C29 O14 1.264 1_545 S
C29 O16 1.273 . S
C30 O11 1.191 1_655 S
C30 O13 1.307 . S
C31 C32 1.443 . S
C31 N35 1.376 . S
C31 C69 1.389 . S
C32 C31 1.443 . S
C32 C33 1.340 . S
C32 H72 0.951 . S
C33 C32 1.340 . S
C33 C34 1.439 . S
C33 H73 0.950 . S
C34 C33 1.439 . S
C34 N35 1.374 . S
C34 C68 1.395 . S
N35 C31 1.376 . S
N35 C34 1.374 . S
N35 Co36 2.008 . S
Co36 N35 2.008 . S
Co36 N37 1.995 . S
Co36 N42 2.008 1_455 S
Co36 N47 1.995 1_455 S
Co36 N52 2.282 . S
Co36 N58 2.282 . S
N37 Co36 1.995 . S
N37 C38 1.376 . S
N37 C41 1.383 . S
C38 N37 1.376 . S
C38 C39 1.446 . S
C38 C68 1.391 . S
C39 C38 1.446 . S
C39 C40 1.339 . S
C39 H74 0.949 . S
C40 C39 1.339 . S
C40 C41 1.439 . S
C40 H75 0.950 . S
C41 N37 1.383 . S
C41 C40 1.439 . S
C41 C70 1.392 . S
N42 Co36 2.008 1_655 S
N42 C43 1.376 . S
N42 C46 1.374 . S
C43 N42 1.376 . S
C43 C44 1.443 . S
C43 C70 1.389 1_655 S
C44 C43 1.443 . S
C44 C45 1.340 . S
C44 H76 0.951 . S
C45 C44 1.340 . S
C45 C46 1.439 . S
C45 H77 0.950 . S
C46 N42 1.374 . S
C46 C45 1.439 . S
C46 C71 1.395 . S
N47 Co36 1.995 1_655 S
N47 C48 1.376 . S
N47 C51 1.383 . S
C48 N47 1.376 . S
C48 C49 1.446 . S
C48 C71 1.391 . S
C49 C48 1.446 . S
C49 C50 1.339 . S
C49 H78 0.949 . S
C50 C49 1.339 . S
C50 C51 1.439 . S
C50 H79 0.950 . S
C51 N47 1.383 . S
C51 C50 1.439 . S
C51 C69 1.392 1_655 S
N52 Co36 2.282 . S
N52 C55 1.332 1_455 S
N52 C57 1.332 . S
C53 C54 1.386 1_455 S
C53 C56 1.388 . S
C54 C53 1.386 1_655 S
C54 C55 1.382 . S
C54 H80 0.950 . S
C55 N52 1.332 1_655 S
C55 C54 1.382 . S
C55 H66 0.952 . S
C56 C53 1.388 . S
C56 C57 1.382 . S
C56 H81 0.950 . S
C57 N52 1.332 . S
C57 C56 1.382 . S
C57 H67 0.948 . S
N58 Co36 2.282 . S
N58 C62 1.332 . S
N58 C63 1.332 1_455 S
C59 C60 1.388 1_655 S
C59 C63 1.382 . S
C59 H82 0.950 . S
C60 C59 1.388 1_455 S
C60 C61 1.386 . S
C61 C60 1.386 . S
C61 C62 1.382 . S
C61 H83 0.950 . S
C62 N58 1.332 . S
C62 C61 1.382 . S
C62 H64 0.952 . S
C63 N58 1.332 1_655 S
C63 C59 1.382 . S
C63 H65 0.948 . S
H64 C62 0.952 . S
H65 C63 0.948 . S
H66 C55 0.952 . S
H67 C57 0.948 . S
C68 C34 1.395 . S
C68 C38 1.391 . S
C69 C31 1.389 . S
C69 C51 1.392 1_455 S
C70 C41 1.392 . S
C70 C43 1.389 1_455 S
C71 C46 1.395 . S
C71 C48 1.391 . S
H72 C32 0.951 . S
H73 C33 0.950 . S
H74 C39 0.949 . S
H75 C40 0.950 . S
H76 C44 0.951 . S
H77 C45 0.950 . S
H78 C49 0.949 . S
H79 C50 0.950 . S
H80 C54 0.950 . S
H81 C56 0.950 . S
H82 C59 0.950 . S
H83 C61 0.950 . S
C84 C85 1.443 . S
C84 N88 1.376 . S
C84 C122 1.363 1_565 S
C85 C84 1.443 . S
C85 C86 1.340 . S
C85 H125 0.951 . S
C86 C85 1.340 . S
C86 C87 1.439 . S
C86 H126 0.950 . S
C87 C86 1.439 . S
C87 N88 1.374 . S
C87 C121 1.395 . S
N88 C84 1.376 . S
N88 C87 1.374 . S
N88 Co89 2.008 1_565 S
Co89 N88 2.008 1_545 S
Co89 N90 1.995 1_545 S
Co89 N95 2.008 . S
Co89 N100 1.995 . S
Co89 N105 2.282 1_545 S
Co89 N111 2.282 . S
N90 Co89 1.995 1_565 S
N90 C91 1.376 . S
N90 C94 1.383 . S
C91 N90 1.376 . S
C91 C92 1.446 . S
C91 C121 1.391 . S
C92 C91 1.446 . S
C92 C93 1.339 . S
C92 H127 0.949 . S
C93 C92 1.339 . S
C93 C94 1.439 . S
C93 H128 0.950 . S
C94 N90 1.383 . S
C94 C93 1.439 . S
C94 C123 1.392 1_565 S
N95 Co89 2.008 . S
N95 C96 1.376 . S
N95 C99 1.374 . S
C96 N95 1.376 . S
C96 C97 1.443 . S
C96 C123 1.389 . S
C97 C96 1.443 . S
C97 C98 1.340 . S
C97 H129 0.951 . S
C98 C97 1.340 . S
C98 C99 1.439 . S
C98 H130 0.950 . S
C99 N95 1.374 . S
C99 C98 1.439 . S
C99 C124 1.395 . S
N100 Co89 1.995 . S
N100 C101 1.376 . S
N100 C104 1.383 . S
C101 N100 1.376 . S
C101 C102 1.446 . S
C101 C124 1.391 . S
C102 C101 1.446 . S
C102 C103 1.339 . S
C102 H131 0.949 . S
C103 C102 1.339 . S
C103 C104 1.439 . S
C103 H132 0.950 . S
C104 N100 1.383 . S
C104 C103 1.439 . S
C104 C122 1.417 . S
N105 Co89 2.282 1_565 S
N105 C108 1.332 1_565 S
N105 C110 1.332 . S
C106 C107 1.386 . S
C106 C109 1.388 1_545 S
C107 C106 1.386 . S
C107 C108 1.382 . S
C107 H133 0.950 . S
C108 N105 1.332 1_545 S
C108 C107 1.382 . S
C108 H119 0.952 . S
C109 C106 1.388 1_565 S
C109 C110 1.382 . S
C109 H134 0.950 . S
C110 N105 1.332 . S
C110 C109 1.382 . S
C110 H120 0.948 . S
N111 Co89 2.282 . S
N111 C115 1.332 1_545 S
N111 C116 1.332 . S
C112 C113 1.388 . S
C112 C116 1.382 . S
C112 H135 0.950 . S
C113 C112 1.388 . S
C113 C114 1.386 1_545 S
C114 C113 1.386 1_565 S
C114 C115 1.382 . S
C114 H136 0.950 . S
C115 N111 1.332 1_565 S
C115 C114 1.382 . S
C115 H117 0.952 . S
C116 N111 1.332 . S
C116 C112 1.382 . S
C116 H118 0.948 . S
H117 C115 0.952 . S
H118 C116 0.948 . S
H119 C108 0.952 . S
H120 C110 0.948 . S
C121 C87 1.395 . S
C121 C91 1.391 . S
C122 C84 1.363 1_545 S
C122 C104 1.417 . S
C123 C94 1.392 1_545 S
C123 C96 1.389 . S
C124 C99 1.395 . S
C124 C101 1.391 . S
H125 C85 0.951 . S
H126 C86 0.950 . S
H127 C92 0.949 . S
H128 C93 0.950 . S
H129 C97 0.951 . S
H130 C98 0.950 . S
H131 C102 0.949 . S
H132 C103 0.950 . S
H133 C107 0.950 . S
H134 C109 0.950 . S
H135 C112 0.950 . S
H136 C114 0.950 . S
C137 C138 1.349 . S
C137 C139 1.327 . S
C137 H162 0.950 . S
C138 C137 1.349 . S
C138 C154 1.349 1_455 S
C139 C137 1.327 . S
C139 C158 1.429 . S
C139 H163 0.950 . S
C140 C157 1.574 . S
C140 C159 1.368 1_655 S
C140 H164 0.949 . S
H141 C145 0.949 . S
C142 C143 1.349 1_655 S
C142 C144 1.327 . S
C142 H165 0.950 . S
C143 C142 1.349 1_455 S
C143 C155 1.349 . S
C144 C142 1.327 . S
C144 C160 1.429 1_655 S
C144 H166 0.950 . S
C145 H141 0.949 . S
C145 C153 1.574 . S
C145 C161 1.368 . S
H146 C154 0.950 . S
H147 C152 0.950 . S
H148 C153 0.949 . S
H149 C155 0.950 . S
H150 C156 0.950 . S
H151 C157 0.949 . S
C152 H147 0.950 . S
C152 C154 1.327 . S
C152 C158 1.429 1_655 S
C153 C145 1.574 . S
C153 H148 0.949 . S
C153 C159 1.368 . S
C154 C138 1.349 1_655 S
C154 H146 0.950 . S
C154 C152 1.327 . S
C155 C143 1.349 . S
C155 H149 0.950 . S
C155 C156 1.327 . S
C156 H150 0.950 . S
C156 C155 1.327 . S
C156 C160 1.429 . S
C157 C140 1.574 . S
C157 H151 0.949 . S
C157 C161 1.368 1_655 S
C158 C139 1.429 . S
C158 C152 1.429 1_455 S
C158 C159 1.523 . S
C159 C140 1.368 1_455 S
C159 C153 1.368 . S
C159 C158 1.523 . S
C160 C144 1.429 1_455 S
C160 C156 1.429 . S
C160 C161 1.523 . S
C161 C145 1.368 . S
C161 C157 1.368 1_455 S
C161 C160 1.523 . S
H162 C137 0.950 . S
H163 C139 0.950 . S
H164 C140 0.949 . S
H165 C142 0.950 . S
H166 C144 0.950 . S
C167 C168 1.349 . S
C167 C169 1.327 . S
C167 H192 0.950 . S
C168 C167 1.349 . S
C168 C184 1.349 1_565 S
C169 C167 1.327 . S
C169 C188 1.429 . S
C169 H193 0.950 . S
C170 C187 1.574 . S
C170 C189 1.368 1_545 S
C170 H194 0.949 . S
H171 C175 0.949 . S
C172 C173 1.361 . S
C172 C174 1.327 . S
C172 H195 0.950 . S
C173 C172 1.361 . S
C173 C185 1.336 1_545 S
C174 C172 1.327 . S
C174 C190 1.429 1_545 S
C174 H196 0.950 . S
C175 H171 0.949 . S
C175 C183 1.574 . S
C175 C191 1.368 . S
H176 C184 0.950 . S
H177 C182 0.950 . S
H178 C183 0.949 . S
H179 C185 0.950 . S
H180 C186 0.950 . S
H181 C187 0.949 . S
C182 H177 0.950 . S
C182 C184 1.327 . S
C182 C188 1.429 1_545 S
C183 C175 1.574 . S
C183 H178 0.949 . S
C183 C189 1.368 . S
C184 C168 1.349 1_545 S
C184 H176 0.950 . S
C184 C182 1.327 . S
C185 C173 1.336 1_565 S
C185 H179 0.950 . S
C185 C186 1.327 . S
C186 H180 0.950 . S
C186 C185 1.327 . S
C186 C190 1.429 . S
C187 C170 1.574 . S
C187 H181 0.949 . S
C187 C191 1.368 1_545 S
C188 C169 1.429 . S
C188 C182 1.429 1_565 S
C188 C189 1.523 . S
C189 C170 1.368 1_565 S
C189 C183 1.368 . S
C189 C188 1.523 . S
C190 C174 1.429 1_565 S
C190 C186 1.429 . S
C190 C191 1.523 . S
C191 C175 1.368 . S
C191 C187 1.368 1_565 S
C191 C190 1.523 . S
H192 C167 0.950 . S
H193 C169 0.950 . S
H194 C170 0.949 . S
H195 C172 0.950 . S
H196 C174 0.950 . S
C197 C198 1.349 1_655 S
C197 C199 1.327 . S
C197 H222 0.950 . S
C198 C197 1.349 1_455 S
C198 C214 1.349 . S
C199 C197 1.327 . S
C199 C218 1.429 1_655 S
C199 H223 0.950 . S
C200 C217 1.574 . S
C200 C219 1.368 . S
C200 H224 0.949 . S
H201 C205 0.949 . S
C202 C203 1.349 . S
C202 C204 1.327 . S
C202 H225 0.950 . S
C203 C202 1.349 . S
C203 C215 1.349 1_455 S
C204 C202 1.327 . S
C204 C220 1.429 . S
C204 H226 0.950 . S
C205 H201 0.949 . S
C205 C213 1.574 . S
C205 C221 1.368 1_655 S
H206 C214 0.950 . S
H207 C212 0.950 . S
H208 C213 0.949 . S
H209 C215 0.950 . S
H210 C216 0.950 . S
H211 C217 0.949 . S
C212 H207 0.950 . S
C212 C214 1.327 . S
C212 C218 1.429 . S
C213 C205 1.574 . S
C213 H208 0.949 . S
C213 C219 1.368 1_655 S
C214 C198 1.349 . S
C214 H206 0.950 . S
C214 C212 1.327 . S
C215 C203 1.349 1_655 S
C215 H209 0.950 . S
C215 C216 1.327 . S
C216 H210 0.950 . S
C216 C215 1.327 . S
C216 C220 1.429 1_655 S
C217 C200 1.574 . S
C217 H211 0.949 . S
C217 C221 1.368 . S
C218 C199 1.429 1_455 S
C218 C212 1.429 . S
C218 C219 1.523 . S
C219 C200 1.368 . S
C219 C213 1.368 1_455 S
C219 C218 1.523 . S
C220 C204 1.429 . S
C220 C216 1.429 1_455 S
C220 C221 1.523 . S
C221 C205 1.368 1_455 S
C221 C217 1.368 . S
C221 C220 1.523 . S
H222 C197 0.950 . S
H223 C199 0.950 . S
H224 C200 0.949 . S
H225 C202 0.950 . S
H226 C204 0.950 . S
C227 C228 1.349 1_565 S
C227 C229 1.327 . S
C227 H252 0.950 . S
C228 C227 1.349 1_545 S
C228 C244 1.349 . S
C229 C227 1.327 . S
C229 C248 1.429 1_565 S
C229 H253 0.950 . S
C230 C247 1.574 . S
C230 C249 1.368 . S
C230 H254 0.949 . S
H231 C235 0.949 . S
C232 C233 1.349 . S
C232 C234 1.327 . S
C232 H255 0.950 . S
C233 C232 1.349 . S
C233 C245 1.349 1_545 S
C234 C232 1.327 . S
C234 C250 1.429 . S
C234 H256 0.950 . S
C235 H231 0.949 . S
C235 C243 1.574 . S
C235 C251 1.368 1_565 S
H236 C244 0.950 . S
H237 C242 0.950 . S
H238 C243 0.949 . S
H239 C245 0.950 . S
H240 C246 0.950 . S
H241 C247 0.949 . S
C242 H237 0.950 . S
C242 C244 1.327 . S
C242 C248 1.429 . S
C243 C235 1.574 . S
C243 H238 0.949 . S
C243 C249 1.368 1_565 S
C244 C228 1.349 . S
C244 H236 0.950 . S
C244 C242 1.327 . S
C245 C233 1.349 1_565 S
C245 H239 0.950 . S
C245 C246 1.327 . S
C246 H240 0.950 . S
C246 C245 1.327 . S
C246 C250 1.429 1_565 S
C247 C230 1.574 . S
C247 H241 0.949 . S
C247 C251 1.368 . S
C248 C229 1.429 1_545 S
C248 C242 1.429 . S
C248 C249 1.523 . S
C249 C230 1.368 . S
C249 C243 1.368 1_545 S
C249 C248 1.523 . S
C250 C234 1.429 . S
C250 C246 1.429 1_545 S
C250 C251 1.523 . S
C251 C235 1.368 1_545 S
C251 C247 1.368 . S
C251 C250 1.523 . S
H252 C227 0.950 . S
H253 C229 0.950 . S
H254 C230 0.949 . S
H255 C232 0.950 . S
H256 C234 0.950 . S
C257 C258 1.349 1_655 S
C257 C259 1.327 . S
C257 H282 0.950 . S
C258 C257 1.349 1_455 S
C258 C274 1.349 . S
C259 C257 1.327 . S
C259 C278 1.429 1_655 S
C259 H283 0.950 . S
C260 C277 1.574 . S
C260 C279 1.368 . S
C260 H284 0.949 . S
H261 C265 0.949 . S
C262 C263 1.349 . S
C262 C264 1.327 . S
C262 H285 0.950 . S
C263 C262 1.349 . S
C263 C275 1.349 1_455 S
C264 C262 1.327 . S
C264 C280 1.429 . S
C264 H286 0.950 . S
C265 H261 0.949 . S
C265 C273 1.574 . S
C265 C281 1.368 1_655 S
H266 C274 0.950 . S
H267 C272 0.950 . S
H268 C273 0.949 . S
H269 C275 0.950 . S
H270 C276 0.950 . S
H271 C277 0.949 . S
C272 H267 0.950 . S
C272 C274 1.327 . S
C272 C278 1.429 . S
C273 C265 1.574 . S
C273 H268 0.949 . S
C273 C279 1.368 1_655 S
C274 C258 1.349 . S
C274 H266 0.950 . S
C274 C272 1.327 . S
C275 C263 1.349 1_655 S
C275 H269 0.950 . S
C275 C276 1.327 . S
C276 H270 0.950 . S
C276 C275 1.327 . S
C276 C280 1.429 1_655 S
C277 C260 1.574 . S
C277 H271 0.949 . S
C277 C281 1.368 . S
C278 C259 1.429 1_455 S
C278 C272 1.429 . S
C278 C279 1.523 . S
C279 C260 1.368 . S
C279 C273 1.368 1_455 S
C279 C278 1.523 . S
C280 C264 1.429 . S
C280 C276 1.429 1_455 S
C280 C281 1.523 . S
C281 C265 1.368 1_455 S
C281 C277 1.368 . S
C281 C280 1.523 . S
H282 C257 0.950 . S
H283 C259 0.950 . S
H284 C260 0.949 . S
H285 C262 0.950 . S
H286 C264 0.950 . S
C287 C288 1.349 . S
C287 C289 1.327 . S
C287 H312 0.950 . S
C288 C287 1.349 . S
C288 C304 1.349 1_565 S
C289 C287 1.327 . S
C289 C308 1.429 . S
C289 H313 0.950 . S
C290 C307 1.574 . S
C290 C309 1.368 1_545 S
C290 H314 0.949 . S
H291 C295 0.949 . S
C292 C293 1.349 . S
C292 C294 1.327 . S
C292 H315 0.950 . S
C293 C292 1.349 . S
C293 C305 1.349 1_545 S
C294 C292 1.327 . S
C294 C310 1.430 1_545 S
C294 H316 0.950 . S
C295 H291 0.949 . S
C295 C303 1.574 . S
C295 C311 1.382 . S
H296 C304 0.950 . S
H297 C302 0.950 . S
H298 C303 0.949 . S
H299 C305 0.950 . S
H300 C306 0.950 . S
H301 C307 0.949 . S
C302 H297 0.950 . S
C302 C304 1.327 . S
C302 C308 1.429 1_545 S
C303 C295 1.574 . S
C303 H298 0.949 . S
C303 C309 1.368 . S
C304 C288 1.349 1_545 S
C304 H296 0.950 . S
C304 C302 1.327 . S
C305 C293 1.349 1_565 S
C305 H299 0.950 . S
C305 C306 1.327 . S
C306 H300 0.950 . S
C306 C305 1.327 . S
C306 C310 1.427 . S
C307 C290 1.574 . S
C307 H301 0.949 . S
C307 C311 1.354 1_545 S
C308 C289 1.429 . S
C308 C302 1.429 1_565 S
C308 C309 1.523 . S
C309 C290 1.368 1_565 S
C309 C303 1.368 . S
C309 C308 1.523 . S
C310 C294 1.430 1_565 S
C310 C306 1.427 . S
C310 C311 1.524 . S
C311 C295 1.382 . S
C311 C307 1.354 1_565 S
C311 C310 1.524 . S
H312 C287 0.950 . S
H313 C289 0.950 . S
H314 C290 0.949 . S
H315 C292 0.950 . S
H316 C294 0.950 . S
C317 C318 1.349 . S
C317 C319 1.327 . S
C317 H342 0.950 . S
C318 C317 1.349 . S
C318 C334 1.349 1_455 S
C319 C317 1.327 . S
C319 C338 1.429 . S
C319 H343 0.950 . S
C320 C337 1.574 . S
C320 C339 1.368 1_655 S
C320 H344 0.949 . S
H321 C325 0.949 . S
C322 C323 1.349 1_655 S
C322 C324 1.327 . S
C322 H345 0.950 . S
C323 C322 1.349 1_455 S
C323 C335 1.349 . S
C324 C322 1.327 . S
C324 C340 1.429 1_655 S
C324 H346 0.950 . S
C325 H321 0.949 . S
C325 C333 1.574 . S
C325 C341 1.368 . S
H326 C334 0.950 . S
H327 C332 0.950 . S
H328 C333 0.949 . S
H329 C335 0.950 . S
H330 C336 0.950 . S
H331 C337 0.949 . S
C332 H327 0.950 . S
C332 C334 1.327 . S
C332 C338 1.429 1_655 S
C333 C325 1.574 . S
C333 H328 0.949 . S
C333 C339 1.368 . S
C334 C318 1.349 1_655 S
C334 H326 0.950 . S
C334 C332 1.327 . S
C335 C323 1.349 . S
C335 H329 0.950 . S
C335 C336 1.327 . S
C336 H330 0.950 . S
C336 C335 1.327 . S
C336 C340 1.429 . S
C337 C320 1.574 . S
C337 H331 0.949 . S
C337 C341 1.368 1_655 S
C338 C319 1.429 . S
C338 C332 1.429 1_455 S
C338 C339 1.523 . S
C339 C320 1.368 1_455 S
C339 C333 1.368 . S
C339 C338 1.523 . S
C340 C324 1.429 1_455 S
C340 C336 1.429 . S
C340 C341 1.523 . S
C341 C325 1.368 . S
C341 C337 1.368 1_455 S
C341 C340 1.523 . S
H342 C317 0.950 . S
H343 C319 0.950 . S
H344 C320 0.949 . S
H345 C322 0.950 . S
H346 C324 0.950 . S
C347 C348 1.349 . S
C347 C349 1.327 . S
C347 H372 0.950 . S
C348 C347 1.349 . S
C348 C364 1.349 1_545 S
C349 C347 1.327 . S
C349 C368 1.429 . S
C349 H373 0.950 . S
C350 C367 1.574 . S
C350 C369 1.368 1_565 S
C350 H374 0.949 . S
H351 C355 0.949 . S
C352 C353 1.349 1_565 S
C352 C354 1.327 . S
C352 H375 0.950 . S
C353 C352 1.349 1_545 S
C353 C365 1.349 . S
C354 C352 1.327 . S
C354 C370 1.429 1_565 S
C354 H376 0.950 . S
C355 H351 0.949 . S
C355 C363 1.574 . S
C355 C371 1.368 . S
H356 C364 0.950 . S
H357 C362 0.950 . S
H358 C363 0.949 . S
H359 C365 0.950 . S
H360 C366 0.950 . S
H361 C367 0.949 . S
C362 H357 0.950 . S
C362 C364 1.327 . S
C362 C368 1.429 1_565 S
C363 C355 1.574 . S
C363 H358 0.949 . S
C363 C369 1.368 . S
C364 C348 1.349 1_565 S
C364 H356 0.950 . S
C364 C362 1.327 . S
C365 C353 1.349 . S
C365 H359 0.950 . S
C365 C366 1.327 . S
C366 H360 0.950 . S
C366 C365 1.327 . S
C366 C370 1.429 . S
C367 C350 1.574 . S
C367 H361 0.949 . S
C367 C371 1.368 1_565 S
C368 C349 1.429 . S
C368 C362 1.429 1_545 S
C368 C369 1.523 . S
C369 C350 1.368 1_545 S
C369 C363 1.368 . S
C369 C368 1.523 . S
C370 C354 1.429 1_545 S
C370 C366 1.429 . S
C370 C371 1.523 . S
C371 C355 1.368 . S
C371 C367 1.368 1_545 S
C371 C370 1.523 . S
H372 C347 0.950 . S
H373 C349 0.950 . S
H374 C350 0.949 . S
H375 C352 0.950 . S
H376 C354 0.950 . S
C138 C30 1.242 1_455 S
C143 C53 1.272 . S
C168 C1 1.668 . S
C173 C123 1.709 . S
C198 C0 1.342 1_455 S
C203 C69 1.402 . S
C228 C29 1.571 . S
C233 C113 1.602 . S
C258 C19 1.233 . S
C263 C60 1.282 . S
C288 C20 1.663 . S
C293 C122 1.701 . S
C323 C70 1.393 . S
C318 C10 1.357 . S
C348 C2 1.577 . S
C353 C106 1.610 . S
