# Generated by pormake.
# Topology soc, (4,6)-cn, num edge types: 1
# Building blocks:
#     Node 0, Type 0, BuildingBlock: ESEHIV_clean_sbu_0, # of connection points: 4
#     Node 1, Type 0, BuildingBlock: ESEHIV_clean_sbu_0, # of connection points: 4
#     Node 2, Type 0, BuildingBlock: ESEHIV_clean_sbu_0, # of connection points: 4
#     Node 3, Type 0, BuildingBlock: ESEHIV_clean_sbu_0, # of connection points: 4
#     Node 4, Type 0, BuildingBlock: ESEHIV_clean_sbu_0, # of connection points: 4
#     Node 5, Type 0, BuildingBlock: ESEHIV_clean_sbu_0, # of connection points: 4
#     Node 6, Type 0, BuildingBlock: ESEHIV_clean_sbu_0, # of connection points: 4
#     Node 7, Type 0, BuildingBlock: ESEHIV_clean_sbu_0, # of connection points: 4
#     Node 8, Type 0, BuildingBlock: ESEHIV_clean_sbu_0, # of connection points: 4
#     Node 9, Type 0, BuildingBlock: ESEHIV_clean_sbu_0, # of connection points: 4
#     Node 10, Type 0, BuildingBlock: ESEHIV_clean_sbu_0, # of connection points: 4
#     Node 11, Type 0, BuildingBlock: ESEHIV_clean_sbu_0, # of connection points: 4
#     Node 12, Type 1, BuildingBlock: BETGAK_clean_sbu_0, # of connection points: 6
#     Node 13, Type 1, BuildingBlock: BETGAK_clean_sbu_0, # of connection points: 6
#     Node 14, Type 1, BuildingBlock: BETGAK_clean_sbu_0, # of connection points: 6
#     Node 15, Type 1, BuildingBlock: BETGAK_clean_sbu_0, # of connection points: 6
#     Node 16, Type 1, BuildingBlock: BETGAK_clean_sbu_0, # of connection points: 6
#     Node 17, Type 1, BuildingBlock: BETGAK_clean_sbu_0, # of connection points: 6
#     Node 18, Type 1, BuildingBlock: BETGAK_clean_sbu_0, # of connection points: 6
#     Node 19, Type 1, BuildingBlock: BETGAK_clean_sbu_0, # of connection points: 6
#     Edge 20, Type (0, 1), None
#     Edge 21, Type (0, 1), None
#     Edge 22, Type (0, 1), None
#     Edge 23, Type (0, 1), None
#     Edge 24, Type (0, 1), None
#     Edge 25, Type (0, 1), None
#     Edge 26, Type (0, 1), None
#     Edge 27, Type (0, 1), None
#     Edge 28, Type (0, 1), None
#     Edge 29, Type (0, 1), None
#     Edge 30, Type (0, 1), None
#     Edge 31, Type (0, 1), None
#     Edge 32, Type (0, 1), None
#     Edge 33, Type (0, 1), None
#     Edge 34, Type (0, 1), None
#     Edge 35, Type (0, 1), None
#     Edge 36, Type (0, 1), None
#     Edge 37, Type (0, 1), None
#     Edge 38, Type (0, 1), None
#     Edge 39, Type (0, 1), None
#     Edge 40, Type (0, 1), None
#     Edge 41, Type (0, 1), None
#     Edge 42, Type (0, 1), None
#     Edge 43, Type (0, 1), None
#     Edge 44, Type (0, 1), None
#     Edge 45, Type (0, 1), None
#     Edge 46, Type (0, 1), None
#     Edge 47, Type (0, 1), None
#     Edge 48, Type (0, 1), None
#     Edge 49, Type (0, 1), None
#     Edge 50, Type (0, 1), None
#     Edge 51, Type (0, 1), None
#     Edge 52, Type (0, 1), None
#     Edge 53, Type (0, 1), None
#     Edge 54, Type (0, 1), None
#     Edge 55, Type (0, 1), None
#     Edge 56, Type (0, 1), None
#     Edge 57, Type (0, 1), None
#     Edge 58, Type (0, 1), None
#     Edge 59, Type (0, 1), None
#     Edge 60, Type (0, 1), None
#     Edge 61, Type (0, 1), None
#     Edge 62, Type (0, 1), None
#     Edge 63, Type (0, 1), None
#     Edge 64, Type (0, 1), None
#     Edge 65, Type (0, 1), None
#     Edge 66, Type (0, 1), None
#     Edge 67, Type (0, 1), None
# Relax obj value: 0.341
# Max RMSD: 0.619
# Mean RMSD: 0.248
data_MOF--net-soc--node1-ESEHIV_clean_sbu_0--node2-BETGAK_clean_sbu_0--edge1-none
_symmetry_space_group_name_H-M    P1
_symmetry_Int_Tables_number       1
_symmetry_cell_setting            triclinic
loop_
_symmetry_equiv_pos_as_xyz
'x, y, z'
_cell_length_a     26.843625
_cell_length_b     25.601678
_cell_length_c     21.085699
_cell_angle_alpha  77.018045
_cell_angle_beta   75.697641
_cell_angle_gamma 54.456639
loop_
_atom_site_label
_atom_site_type_symbol
_atom_site_fract_x
_atom_site_fract_y
_atom_site_fract_z
_atom_type_partial_charge
Cu0 Cu 0.19167 0.13959 0.45581 0.0
N1 N 0.19829 0.17136 0.52034 0.0
N2 N 0.22884 0.2304 0.53683 0.0
C3 C 0.24665 0.17572 0.51526 0.0
C4 C 0.1674 0.26186 0.55599 0.0
C5 C 0.14878 0.22447 0.54734 0.0
O6 O 0.2779 0.0835 0.41433 0.0
C7 C 0.08178 0.23728 0.39128 0.0
O8 O 0.08289 0.19372 0.36702 0.0
H9 H 0.2913 0.14553 0.48666 0.0
H10 H 0.10132 0.24009 0.54988 0.0
N11 N 0.16123 0.08897 0.4928 0.0
N12 N 0.10521 0.05067 0.49354 0.0
C13 C 0.1052 0.10386 0.48885 0.0
C14 C 0.19651 0.0244 0.50552 0.0
C15 C 0.16232 0.00044 0.50506 0.0
C16 C 0.30047 0.02941 0.39415 0.0
O17 O 0.26348 0.01655 0.38126 0.0
H18 H 0.0661 0.15222 0.47874 0.0
H19 H 0.24515 0.99626 0.50986 0.0
O20 O 0.12896 0.22249 0.41342 0.0
H21 H 0.13766 0.31069 0.56973 0.0
H22 H 0.17956 0.94999 0.50765 0.0
Cu23 Cu 0.1748 0.14909 0.76017 0.0
N24 N 0.14864 0.12399 0.70656 0.0
N25 N 0.0928 0.08899 0.69528 0.0
C26 C 0.09618 0.12589 0.72779 0.0
C27 C 0.14614 0.06117 0.65354 0.0
C28 C 0.17958 0.08448 0.65855 0.0
O29 O 0.10022 0.21387 0.8069 0.0
C30 C 0.28072 0.03507 0.76617 0.0
O31 O 0.28608 0.05607 0.70395 0.0
H32 H 0.06346 0.15022 0.76966 0.0
H33 H 0.22511 0.06911 0.63227 0.0
N34 N 0.21728 0.18711 0.72257 0.0
N35 N 0.28288 0.20934 0.73164 0.0
C36 C 0.26886 0.1659 0.74573 0.0
C37 C 0.19689 0.24816 0.69575 0.0
C38 C 0.23788 0.26187 0.70106 0.0
C39 C 0.06605 0.25693 0.76511 0.0
O40 O 0.08458 0.25049 0.70209 0.0
H41 H 0.29106 0.12391 0.7805 0.0
H42 H 0.15214 0.28382 0.68125 0.0
O43 O 0.23272 0.06984 0.80603 0.0
H44 H 0.16302 0.02104 0.62757 0.0
H45 H 0.23252 0.3081 0.68885 0.0
Cu46 Cu 0.46147 0.14854 0.15653 0.0
N47 N 0.38131 0.19081 0.14232 0.0
N48 N 0.30729 0.17819 0.13586 0.0
C49 C 0.34503 0.17002 0.17452 0.0
C50 C 0.32073 0.20595 0.0778 0.0
C51 C 0.36404 0.21606 0.08267 0.0
O52 O 0.48146 0.05616 0.18433 0.0
C53 C 0.49812 0.19977 1.0145 0.0
O54 O 0.50233 0.18848 0.07673 0.0
H55 H 0.35473 0.13844 0.21998 0.0
H56 H 0.38724 0.2316 0.04198 0.0
N57 N 0.45683 0.18085 0.22971 0.0
N58 N 0.46605 0.22712 0.29989 0.0
C59 C 0.4833 0.21002 0.23807 0.0
C60 C 0.42016 0.18242 0.2865 0.0
C61 C 0.42712 0.20886 0.33024 0.0
C62 C 0.48839 0.02787 0.24376 0.0
O63 O 0.49935 0.05053 0.28467 0.0
H64 H 0.51209 0.22074 0.19934 0.0
H65 H 0.38992 0.16577 0.29528 0.0
O66 O 0.50055 0.18704 0.0775 0.0
H67 H 0.30604 0.21138 1.03195 0.0
H68 H 0.40121 0.2188 0.37927 0.0
Cu69 Cu 0.23293 0.38932 0.17421 0.0
N70 N 0.23525 0.44384 0.09835 0.0
N71 N 0.29097 0.44122 0.99858 0.0
C72 C 0.29138 0.42772 0.06429 0.0
C73 C 0.23217 0.46861 0.99032 0.0
C74 C 0.19742 0.47179 0.05208 0.0
O75 O 0.30441 0.36939 0.22458 0.0
C76 C 0.2161 0.33697 0.07462 0.0
O77 O 0.255 0.34449 1.02861 0.0
H78 H 0.33358 0.39667 0.08621 0.0
H79 H 0.1509 0.48296 0.06116 0.0
N80 N 0.16017 0.41212 0.23508 0.0
N81 N 0.08614 0.39053 0.26621 0.0
C82 C 0.10699 0.42381 0.2217 0.0
C83 C 0.17011 0.37298 0.29185 0.0
C84 C 0.12522 0.36005 0.31098 0.0
C85 C 0.29954 0.40313 0.26747 0.0
O86 O 0.30827 0.36718 0.22545 0.0
H87 H 0.08793 0.45018 0.17659 0.0
H88 H 0.21229 0.34774 0.3131 0.0
O89 O 0.22111 0.33204 0.1354 0.0
H90 H 0.21651 0.48092 0.94327 0.0
H91 H 0.12273 0.32899 0.35396 0.0
Cu92 Cu 0.95074 0.04133 0.99745 0.0
N93 N 0.9209 0.12797 0.94698 0.0
N94 N 0.90313 0.22864 0.9087 0.0
C95 C 0.93774 0.17053 0.94408 0.0
C96 C 0.86339 0.22217 0.88796 0.0
C97 C 0.8731 0.16237 0.91248 0.0
O98 O 0.98737 0.0532 0.06033 0.0
C99 C 0.08437 0.89363 0.91857 0.0
O100 O 0.13302 0.89263 0.92831 0.0
H101 H 0.97483 0.16002 0.96628 0.0
H102 H 0.8465 0.14524 0.90552 0.0
N103 N 0.88858 0.0402 0.06678 0.0
N104 N 0.84982 0.01982 0.17129 0.0
C105 C 0.89036 0.03342 0.13239 0.0
C106 C 0.84357 0.03223 0.06487 0.0
C107 C 0.82015 0.0193 0.1286 0.0
C108 C 1.02409 0.07028 0.05807 0.0
O109 O 0.06479 0.06341 1.00556 0.0
H110 H 0.92408 0.03342 0.15164 0.0
H111 H 0.83091 0.0319 1.02028 0.0
O112 O 0.99734 0.95003 0.94171 0.0
H113 H 0.82854 0.25878 0.85751 0.0
H114 H 0.78706 0.00595 0.14195 0.0
Cu115 Cu 0.11238 0.92272 0.04926 0.0
N116 N 0.04638 0.94361 1.0021 0.0
N117 N 1.03007 0.86268 0.91335 0.0
C118 C 1.03851 0.86808 1.00562 0.0
C119 C 1.02874 0.935 0.84326 0.0
C120 C 1.04014 0.996 0.90918 0.0
O121 O 0.06703 0.95546 0.14472 0.0
C122 C 0.22712 0.9372 0.99569 0.0
O123 O 0.18149 0.9415 0.97799 0.0
H124 H 0.0453 0.83211 0.04718 0.0
H125 H 0.05616 0.02764 0.89158 0.0
N126 N 0.16944 0.8341 0.07632 0.0
N127 N 0.23332 0.81815 0.14144 0.0
C128 C 0.22428 0.82405 0.07949 0.0
C129 C 0.15367 0.81495 0.13842 0.0
C130 C 0.18921 0.81075 0.17919 0.0
C131 C 1.03629 0.94737 0.20171 0.0
O132 O 0.06616 0.95477 0.14618 0.0
H133 H 0.25438 0.82757 0.03698 0.0
H134 H 0.11224 0.81526 0.15455 0.0
O135 O 0.17969 0.94046 0.98298 0.0
H136 H 1.03722 0.93389 0.79093 0.0
H137 H 0.17957 0.80897 0.23234 0.0
Cu138 Cu 0.66933 0.65557 0.94903 0.0
N139 N 0.67737 0.69489 1.00477 0.0
N140 N 0.70426 0.75939 1.01463 0.0
C141 C 0.72387 0.70309 0.9949 0.0
C142 C 0.64359 0.78758 0.03763 0.0
C143 C 0.6275 0.7468 0.03319 0.0
O144 O 0.75589 0.59032 0.91009 0.0
C145 C 0.54134 0.75564 0.93134 0.0
O146 O 0.52711 0.71671 0.9691 0.0
H147 H 0.76869 0.67282 0.96661 0.0
H148 H 0.58099 0.75801 0.04247 0.0
N149 N 0.64389 0.60482 0.99706 0.0
N150 N 0.6202 0.5333 1.00892 0.0
C151 C 0.61453 0.58675 0.97416 0.0
C152 C 0.67121 0.56041 0.04624 0.0
C153 C 0.65625 0.51618 0.05433 0.0
C154 C 0.77366 0.53353 0.9007 0.0
O155 O 0.73256 0.52304 0.8956 0.0
H156 H 0.59542 0.60872 0.92865 0.0
H157 H 0.70612 0.55615 0.06747 0.0
O158 O 0.59841 0.73465 0.90783 0.0
H159 H 0.61309 0.83468 0.05564 0.0
H160 H 0.67492 0.47211 0.08708 0.0
Cu161 Cu 0.71061 0.63198 0.25464 0.0
N162 N 0.68764 0.59277 0.21437 0.0
N163 N 0.63866 0.54545 0.21975 0.0
C164 C 0.63373 0.59693 0.23352 0.0
C165 C 0.69745 0.50592 0.19325 0.0
C166 C 0.72733 0.53562 0.18882 0.0
O167 O 0.63712 0.6949 0.30829 0.0
C168 C 0.83159 0.52912 0.24771 0.0
O169 O 0.83168 0.5549 0.18643 0.0
H170 H 0.59366 0.63296 0.26309 0.0
H171 H 0.77589 0.51385 0.17185 0.0
N172 N 0.73818 0.68169 0.20357 0.0
N173 N 0.78199 0.7333 0.20383 0.0
C174 C 0.78301 0.67927 0.22382 0.0
C175 C 0.70723 0.74041 0.17003 0.0
C176 C 0.73408 0.7722 0.16995 0.0
C177 C 0.59702 0.73681 0.2708 0.0
O178 O 0.6059 0.72501 0.21028 0.0
H179 H 0.81147 0.64127 0.2586 0.0
H180 H 0.66373 0.76324 0.15404 0.0
O181 O 0.78318 0.55754 0.29052 0.0
H182 H 0.71754 0.45842 0.17961 0.0
H183 H 0.71643 0.8219 0.15081 0.0
Cu184 Cu 0.92794 0.7027 0.67649 0.0
N185 N 0.95423 0.75065 0.60565 0.0
N186 N 0.94897 0.82365 0.5169 0.0
C187 C 0.95653 0.76481 0.53788 0.0
C188 C 0.94115 0.84643 0.57209 0.0
C189 C 0.94309 0.80421 0.62388 0.0
O190 O 0.9039 0.75167 0.75347 0.0
C191 C 0.91328 0.65878 0.58777 0.0
O192 O 0.97282 0.63444 0.57946 0.0
H193 H 0.9552 0.73779 0.50625 0.0
H194 H 0.92483 0.8205 0.67136 0.0
N195 N 0.96342 0.61374 0.71537 0.0
N196 N 0.96351 0.52442 0.76466 0.0
C197 C 0.93279 0.58321 0.72969 0.0
C198 C 1.01416 0.57317 0.74482 0.0
C199 C 1.0142 0.51907 0.77495 0.0
C200 C 0.94693 0.75125 0.77153 0.0
O201 O 1.00414 0.71429 0.74298 0.0
H202 H 0.88719 0.60506 0.71747 0.0
H203 H 0.04769 0.58316 0.74672 0.0
O204 O 0.87702 0.69795 0.63166 0.0
H205 H 0.92775 0.89465 0.57611 0.0
H206 H 0.04907 0.47884 0.80328 0.0
Cu207 Cu 0.70064 0.93267 0.67123 0.0
N208 N 0.70134 0.97997 0.5837 0.0
N209 N 0.75378 0.98218 0.47944 0.0
C210 C 0.75343 0.97553 0.54605 0.0
C211 C 0.70079 0.98967 0.4752 0.0
C212 C 0.6681 0.99123 0.53768 0.0
O213 O 0.75715 0.935 0.72451 0.0
C214 C 0.74653 0.82152 0.59167 0.0
O215 O 0.79879 0.78103 0.55774 0.0
H216 H 0.79397 0.95866 0.56712 0.0
H217 H 0.62424 0.99646 0.54803 0.0
N218 N 0.63338 0.92046 0.72095 0.0
N219 N 0.55098 0.90994 0.76284 0.0
C220 C 0.57002 0.95187 0.7413 0.0
C221 C 0.65273 0.85778 0.73495 0.0
C222 C 0.60392 0.85132 0.75741 0.0
C223 C 0.75639 0.94774 0.78173 0.0
O224 O 0.7083 0.9619 0.82729 0.0
H225 H 0.53834 0.00389 0.73745 0.0
H226 H 0.7005 0.8177 0.72758 0.0
O227 O 0.7503 0.85298 0.62828 0.0
H228 H 0.68692 0.9926 0.42979 0.0
H229 H 0.6078 0.80584 0.77158 0.0
Cu230 Cu 0.41125 0.59594 0.54918 0.0
N231 N 0.45325 0.63103 0.48529 0.0
N232 N 0.45165 0.71908 0.42854 0.0
C233 C 0.45435 0.68364 0.48815 0.0
C234 C 0.45109 0.68659 0.38691 0.0
C235 C 0.45286 0.63339 0.42095 0.0
O236 O 0.3558 0.66823 0.6066 0.0
C237 C 0.3987 0.52989 0.4574 0.0
O238 O 0.4572 0.50293 0.43157 0.0
H239 H 0.44871 0.70071 0.53351 0.0
H240 H 0.44506 0.60442 0.40047 0.0
N241 N 0.44892 0.52145 0.61255 0.0
N242 N 0.44529 0.45096 0.69858 0.0
C243 C 0.43138 0.51203 0.67947 0.0
C244 C 0.47444 0.46473 0.59076 0.0
C245 C 0.47065 0.42322 0.64134 0.0
C246 C 0.40359 0.64665 0.63159 0.0
O247 O 0.3507 0.67402 0.61 0.0
H248 H 0.40363 0.55003 0.71175 0.0
H249 H 0.49011 0.45554 0.54002 0.0
O250 O 0.37364 0.57047 0.50083 0.0
H251 H 0.44676 0.70186 0.33519 0.0
H252 H 0.4862 0.37464 0.63555 0.0
Cu253 Cu 0.65782 0.34506 0.53614 0.0
N254 N 0.6934 0.38839 0.48266 0.0
N255 N 0.77452 0.39522 0.43533 0.0
C256 C 0.75152 0.35833 0.4477 0.0
C257 C 0.72857 0.45065 0.46206 0.0
C258 C 0.67864 0.44687 0.48967 0.0
O259 O 0.73113 0.27211 0.57627 0.0
C260 C 0.58673 0.32609 0.45062 0.0
O261 O 0.63687 0.27971 0.41898 0.0
H262 H 0.77874 0.30813 0.4386 0.0
H263 H 0.63713 0.48186 0.51858 0.0
N264 N 0.61305 0.37187 0.61798 0.0
N265 N 0.58543 0.3543 0.72553 0.0
C266 C 0.60653 0.33071 0.66681 0.0
C267 C 0.59265 0.42421 0.64639 0.0
C268 C 0.578 0.41252 0.71265 0.0
C269 C 0.77098 0.26254 0.61003 0.0
O270 O 0.80697 0.20268 0.63484 0.0
H271 H 0.6175 0.28441 0.65921 0.0
H272 H 0.59037 0.46711 0.62145 0.0
O273 O 0.59221 0.35052 0.49401 0.0
H274 H 0.73148 0.49085 0.46356 0.0
H275 H 0.55882 0.44679 0.74812 0.0
La276 La 0.41604 0.37209 0.41704 0.0
La277 La 0.4433 0.39886 0.32464 0.0
C278 C 0.36101 0.34436 0.51883 0.0
C279 C 0.32599 0.3161 0.5225 0.0
C280 C 0.345 0.25645 0.55962 0.0
C281 C 0.31522 0.22623 0.56112 0.0
C282 C 0.26487 0.25654 0.52721 0.0
C283 C 0.24779 0.31433 0.4869 0.0
C284 C 0.27887 0.34364 0.48368 0.0
C285 C 0.52368 0.35036 0.4341 0.0
C286 C 0.47096 0.26823 0.32466 0.0
C287 C 0.48432 0.45931 0.24318 0.0
C288 C 0.5169 0.48842 0.24532 0.0
C289 C 0.51206 0.53714 0.19595 0.0
C290 C 0.54939 0.55953 0.19061 0.0
C291 C 0.59228 0.53247 0.23401 0.0
C292 C 0.59521 0.48603 0.28557 0.0
C293 C 0.55716 0.46423 0.29165 0.0
C294 C 0.35415 0.39498 0.29079 0.0
C295 C 0.36282 0.50645 0.44573 0.0
O296 O 0.41979 0.30649 0.49854 0.0
O297 O 0.33805 0.40309 0.49059 0.0
O298 O 0.47102 0.38332 0.47014 0.0
O299 O 0.51433 0.33366 0.38819 0.0
O300 O 0.44109 0.28555 0.38261 0.0
O301 O 0.48634 0.30613 0.28708 0.0
O302 O 0.42768 0.48684 0.27251 0.0
O303 O 0.51507 0.39712 0.25588 0.0
O304 O 0.40514 0.38311 0.25381 0.0
O305 O 0.35176 0.41273 0.3444 0.0
O306 O 0.3724 0.48011 0.39148 0.0
O307 O 0.37544 0.47674 0.39579 0.0
H308 H 0.38319 0.23331 0.58707 0.0
H309 H 0.32934 0.18082 0.59119 0.0
H310 H 0.21015 0.33675 0.45868 0.0
H311 H 0.26566 0.38782 0.45148 0.0
H312 H 0.4815 0.55567 0.15976 0.0
H313 H 0.54761 0.59505 0.15036 0.0
H314 H 0.62879 0.46491 0.31891 0.0
H315 H 0.56138 0.42648 0.33016 0.0
La316 La 0.92645 0.42227 0.39183 0.0
La317 La 0.94903 0.33761 0.29227 0.0
C318 C 0.87517 0.51237 0.4618 0.0
C319 C 0.88456 0.55005 0.49432 0.0
C320 C 0.91035 0.52431 0.55268 0.0
C321 C 0.91633 0.56168 0.58469 0.0
C322 C 0.8953 0.62583 0.56003 0.0
C323 C 0.87089 0.65117 0.50079 0.0
C324 C 0.86421 0.61396 0.46883 0.0
C325 C 1.02354 0.30156 0.40091 0.0
C326 C 0.83243 0.3815 0.40879 0.0
C327 C 0.97233 0.25174 0.22838 0.0
C328 C 0.98414 0.20251 0.18952 0.0
C329 C 0.94199 0.2194 0.14814 0.0
C330 C 0.95392 0.17511 0.10833 0.0
C331 C 1.00926 0.11322 0.10708 0.0
C332 C 0.05089 0.09552 0.1495 0.0
C333 C 1.0381 0.13943 0.19096 0.0
C334 C 0.88211 0.46313 0.26245 0.0
C335 C 1.03093 0.39632 0.27541 0.0
O336 O 0.89657 0.45203 0.48598 0.0
O337 O 0.88291 0.52046 0.39715 0.0
O338 O 1.01897 0.34931 0.4197 0.0
O339 O 0.97204 0.32081 0.38677 0.0
O340 O 0.84685 0.41739 0.42473 0.0
O341 O 0.86912 0.34065 0.36266 0.0
O342 O 0.92269 0.31061 0.22619 0.0
O343 O 1.00931 0.24084 0.26748 0.0
O344 O 0.92023 0.42281 0.21904 0.0
O345 O 0.88193 0.43236 0.31686 0.0
O346 O 1.03048 0.34592 0.26777 0.0
O347 O 0.98447 0.44154 0.31219 0.0
H348 H 0.92686 0.47507 0.57325 0.0
H349 H 0.9402 0.53884 0.627 0.0
H350 H 0.85892 0.69861 0.47793 0.0
H351 H 0.84397 0.63482 0.42376 0.0
H352 H 0.89997 0.26741 0.14564 0.0
H353 H 0.92047 0.19028 0.07685 0.0
H354 H 0.0936 0.04805 0.15011 0.0
H355 H 0.07122 0.12452 0.22282 0.0
La356 La 0.90783 0.89042 0.31688 0.0
La357 La 0.92742 0.9497 0.35758 0.0
C358 C 0.93332 0.79225 0.27335 0.0
C359 C 0.89608 0.77641 0.25336 0.0
C360 C 0.86024 0.81457 0.20281 0.0
C361 C 0.82221 0.80073 0.18737 0.0
C362 C 0.81958 0.74864 0.22185 0.0
C363 C 0.85449 0.71157 0.27372 0.0
C364 C 0.89265 0.72529 0.2891 0.0
C365 C 0.85122 0.99561 0.23659 0.0
C366 C 0.80248 0.96805 0.42841 0.0
C367 C 0.98029 0.00289 0.36358 0.0
C368 C 0.99724 0.02331 0.4088 0.0
C369 C 1.02379 0.98262 0.46447 0.0
C370 C 0.05613 0.99418 0.49542 0.0
C371 C 0.06119 0.04684 0.47173 0.0
C372 C 1.0296 0.09052 0.41976 0.0
C373 C 0.99807 0.07855 0.38829 0.0
C374 C 0.93582 0.86478 0.45983 0.0
C375 C 1.01299 0.90421 0.21616 0.0
O376 O 0.93854 0.83739 0.23674 0.0
O377 O 0.92153 0.79942 0.33544 0.0
O378 O 0.83014 0.95991 0.26287 0.0
O379 O 0.89533 0.98034 0.26411 0.0
O380 O 0.82295 0.92273 0.39076 0.0
O381 O 0.83392 0.99487 0.41839 0.0
O382 O 1.00798 0.94083 0.36481 0.0
O383 O 0.92199 0.03548 0.35663 0.0
O384 O 0.91282 0.92487 0.46101 0.0
O385 O 0.95711 0.85062 0.40088 0.0
O386 O 0.99627 0.88602 0.27757 0.0
O387 O 0.99699 0.8854 0.27758 0.0
H388 H 0.86097 0.85544 0.17556 0.0
H389 H 0.79503 0.83101 0.14841 0.0
H390 H 0.85238 0.67242 0.30328 0.0
H391 H 0.91882 0.69657 0.32958 0.0
H392 H 1.02351 0.93953 0.48097 0.0
H393 H 0.08009 0.96012 0.53544 0.0
H394 H 1.03315 0.13107 0.3998 0.0
H395 H 0.97835 0.10979 0.34485 0.0
La396 La 0.42229 0.88909 0.29299 0.0
La397 La 0.48332 0.87804 0.40067 0.0
C398 C 0.34645 0.92321 0.21807 0.0
C399 C 0.31821 0.89572 0.19753 0.0
C400 C 0.35433 0.84004 0.16394 0.0
C401 C 0.32642 0.81488 0.14496 0.0
C402 C 0.26234 0.84389 0.16063 0.0
C403 C 0.22609 0.90052 0.19277 0.0
C404 C 0.25376 0.92632 0.21082 0.0
C405 C 0.53441 0.7863 0.29515 0.0
C406 C 0.48094 0.97251 0.27248 0.0
C407 C 0.5543 0.8559 0.47568 0.0
C408 C 0.59621 0.84288 0.52006 0.0
C409 C 0.58233 0.89096 0.55627 0.0
C410 C 0.62873 0.88405 0.58451 0.0
C411 C 0.69001 0.82945 0.57637 0.0
C412 C 0.7009 0.77934 0.54537 0.0
C413 C 0.65543 0.78623 0.51695 0.0
C414 C 0.36629 0.97694 0.39653 0.0
C415 C 0.44429 0.77818 0.4103 0.0
O416 O 0.32991 0.93629 0.27939 0.0
O417 O 0.40584 0.89726 0.19842 0.0
O418 O 0.49058 0.791 0.27377 0.0
O419 O 0.51695 0.84176 0.30647 0.0
O420 O 0.4428 0.96432 0.2527 0.0
O421 O 0.50646 0.93861 0.32609 0.0
O422 O 0.49393 0.88998 0.49133 0.0
O423 O 0.57451 0.82902 0.42083 0.0
O424 O 0.40701 0.97984 0.41499 0.0
O425 O 0.39034 0.91985 0.38701 0.0
O426 O 0.47249 0.79519 0.43721 0.0
O427 O 0.41573 0.8132 0.35824 0.0
H428 H 0.40411 0.81576 0.15237 0.0
H429 H 0.35483 0.7722 0.1189 0.0
H430 H 0.17625 0.92502 0.20336 0.0
H431 H 0.22484 0.97003 0.23544 0.0
H432 H 0.53674 0.93553 0.55937 0.0
H433 H 0.61664 0.92253 0.60995 0.0
H434 H 0.74611 0.73483 0.54014 0.0
H435 H 0.6677 0.74811 0.48971 0.0
La436 La 0.39821 0.94867 0.91235 0.0
La437 La 0.4071 0.85833 0.83701 0.0
C438 C 0.36709 0.02962 0.98537 0.0
C439 C 0.32639 0.05442 0.04664 0.0
C440 C 0.35342 0.0296 0.10434 0.0
C441 C 0.33202 0.07008 0.15232 0.0
C442 C 0.28784 0.13601 0.13863 0.0
C443 C 0.24756 0.15349 0.09469 0.0
C444 C 0.26891 0.11376 0.04542 0.0
C445 C 0.49094 0.82518 0.9273 0.0
C446 C 0.28695 0.92394 0.94814 0.0
C447 C 0.45311 0.7521 0.79763 0.0
C448 C 0.43691 0.72685 0.7574 0.0
C449 C 0.3841 0.76745 0.72594 0.0
C450 C 0.37066 0.74209 0.68568 0.0
C451 C 0.41032 0.67628 0.67709 0.0
C452 C 0.46323 0.63633 0.70825 0.0
C453 C 0.47634 0.66147 0.7486 0.0
C454 C 0.32987 0.97209 0.78697 0.0
C455 C 0.49433 0.91817 0.79064 0.0
O456 O 0.41421 0.96962 0.99106 0.0
O457 O 0.34234 0.04568 0.932 0.0
O458 O 0.49625 0.87266 0.92433 0.0
O459 O 0.43526 0.8477 0.9257 0.0
O460 O 0.31505 0.94778 0.96296 0.0
O461 O 0.31548 0.88399 0.90057 0.0
O462 O 0.41771 0.76902 0.85447 0.0
O463 O 0.46552 0.79438 0.76602 0.0
O464 O 0.34668 0.92071 0.76341 0.0
O465 O 0.3584 0.95808 0.83338 0.0
O466 O 0.48801 0.86883 0.79527 0.0
O467 O 0.4519 0.96733 0.82489 0.0
H468 H 0.39718 0.9834 0.10736 0.0
H469 H 0.36085 0.05363 0.18941 0.0
H470 H 0.20943 0.20311 0.08729 0.0
H471 H 0.24562 0.13342 1.00246 0.0
H472 H 0.35395 0.81847 0.73198 0.0
H473 H 0.3307 0.77377 0.66027 0.0
H474 H 0.49489 0.58556 0.70084 0.0
H475 H 0.51755 0.63014 0.77223 0.0
La476 La 0.44958 0.32541 0.84715 0.0
La477 La 0.47417 0.37209 0.91107 0.0
C478 C 0.43012 0.2569 0.80533 0.0
C479 C 0.40422 0.22163 0.80492 0.0
C480 C 0.42517 0.18923 0.74921 0.0
C481 C 0.38597 0.18094 0.72747 0.0
C482 C 0.32623 0.20603 0.76102 0.0
C483 C 0.30796 0.23072 0.82141 0.0
C484 C 0.3474 0.23854 0.84378 0.0
C485 C 0.43802 0.416 0.75629 0.0
C486 C 0.34237 0.41944 0.9523 0.0
C487 C 0.51679 0.4052 0.97423 0.0
C488 C 0.54784 0.43502 0.97646 0.0
C489 C 0.57575 0.41684 1.03204 0.0
C490 C 0.59998 0.44871 0.04219 0.0
C491 C 0.59739 0.49882 0.99615 0.0
C492 C 0.57047 0.51582 0.93888 0.0
C493 C 0.54548 0.48404 0.92918 0.0
C494 C 0.48927 0.26129 0.97704 0.0
C495 C 0.56181 0.33509 0.78365 0.0
O496 O 0.39116 0.31918 0.80656 0.0
O497 O 0.47812 0.23163 0.83457 0.0
O498 O 0.45083 0.36082 0.75018 0.0
O499 O 0.42955 0.42489 0.8182 0.0
O500 O 0.36126 0.37263 0.91723 0.0
O501 O 0.38067 0.43436 0.95293 0.0
O502 O 0.54982 0.3499 0.94964 0.0
O503 O 0.46067 0.44281 0.95943 0.0
O504 O 0.45495 0.31662 0.99912 0.0
O505 O 0.5097 0.26972 0.91785 0.0
O506 O 0.53936 0.37161 0.83031 0.0
O507 O 0.54095 0.29869 0.78681 0.0
H508 H 0.46867 0.17718 0.71843 0.0
H509 H 0.40017 0.1596 0.68211 0.0
H510 H 0.26185 0.24817 0.84805 0.0
H511 H 0.33094 0.26434 0.88653 0.0
H512 H 0.57684 0.37927 0.06904 0.0
H513 H 0.6189 0.43496 0.08727 0.0
H514 H 0.56764 0.55381 0.90178 0.0
H515 H 0.52337 0.49849 0.88607 0.0
La516 La 0.88701 0.40155 0.78682 0.0
La517 La 0.95433 0.37238 0.90269 0.0
C518 C 0.81876 0.42991 0.70352 0.0
C519 C 0.80608 0.38979 0.67598 0.0
C520 C 0.85098 0.32379 0.6706 0.0
C521 C 0.83901 0.28557 0.64657 0.0
C522 C 0.78166 0.31088 0.62632 0.0
C523 C 0.73822 0.37788 0.62871 0.0
C524 C 0.74948 0.41658 0.65405 0.0
C525 C 1.00163 0.30191 0.78419 0.0
C526 C 0.94815 0.47972 0.78923 0.0
C527 C 1.03273 0.3262 0.98132 0.0
C528 C 0.07796 0.33249 1.00409 0.0
C529 C 0.06976 0.3433 0.06972 0.0
C530 C 0.11519 0.34202 0.09393 0.0
C531 C 0.17014 0.33065 0.05314 0.0
C532 C 0.17841 0.31918 0.98763 0.0
C533 C 0.13363 0.31952 0.96374 0.0
C534 C 0.83858 0.47667 0.90304 0.0
C535 C 0.90658 0.28254 0.89258 0.0
O536 O 0.79803 0.43923 0.766 0.0
O537 O 0.87509 0.41695 0.68775 0.0
O538 O 0.96102 0.30661 0.75702 0.0
O539 O 0.98003 0.35482 0.80337 0.0
O540 O 0.90335 0.48174 0.76835 0.0
O541 O 0.98072 0.43296 0.83386 0.0
O542 O 0.9729 0.3672 0.9972 0.0
O543 O 0.04611 0.30957 0.92198 0.0
O544 O 0.88076 0.4721 0.92802 0.0
O545 O 0.8599 0.42233 0.88603 0.0
O546 O 0.94278 0.28893 0.91992 0.0
O547 O 0.87346 0.3277 0.84738 0.0
H548 H 0.8956 0.30104 0.68576 0.0
H549 H 0.87553 0.23488 0.64467 0.0
H550 H 0.69598 0.40071 0.61077 0.0
H551 H 0.71391 0.46759 0.65626 0.0
H552 H 1.02839 0.35177 0.10288 0.0
H553 H 0.1069 0.35042 0.14446 0.0
H554 H 0.21997 0.30975 0.95432 0.0
H555 H 0.14307 0.3091 0.9135 0.0
La556 La 0.8975 0.8888 0.90811 0.0
La557 La 0.91106 0.93237 0.82639 0.0
C558 C 0.84009 0.86717 1.0112 0.0
C559 C 0.80307 0.84098 1.01414 0.0
C560 C 0.83042 0.77405 1.02935 0.0
C561 C 0.79933 0.74666 1.02573 0.0
C562 C 0.73951 0.78602 1.00908 0.0
C563 C 0.71257 0.85243 0.9922 0.0
C564 C 0.74437 0.87974 0.99398 0.0
C565 C 1.01433 0.8257 0.90336 0.0
C566 C 0.93238 0.8054 0.80499 0.0
C567 C 0.92435 0.01401 0.7444 0.0
C568 C 0.96027 0.04252 0.72967 0.0
C569 C 1.00156 0.02984 0.6712 0.0
C570 C 0.04387 0.04639 0.65997 0.0
C571 C 0.04559 0.07652 0.70643 0.0
C572 C 1.00167 0.09258 0.76379 0.0
C573 C 0.95948 0.07522 0.77538 0.0
C574 C 0.81106 0.94405 0.79899 0.0
C575 C 0.96681 0.96175 0.94249 0.0
O576 O 0.89857 0.82714 0.99179 0.0
O577 O 0.81987 0.9258 0.98266 0.0
O578 O 0.97906 0.81924 0.95312 0.0
O579 O 0.99034 0.84325 0.85254 0.0
O580 O 0.89594 0.82165 0.86045 0.0
O581 O 0.95558 0.8407 0.78109 0.0
O582 O 0.88303 0.02891 0.79694 0.0
O583 O 0.95622 0.95266 0.73833 0.0
O584 O 0.85979 0.93228 0.75863 0.0
O585 O 0.81765 0.95124 0.85415 0.0
O586 O 0.91736 0.96222 0.92207 0.0
O587 O 0.91533 0.9646 0.92393 0.0
H588 H 0.87605 0.74275 0.0441 0.0
H589 H 0.82045 0.69539 0.03951 0.0
H590 H 0.66683 0.88307 0.97781 0.0
H591 H 0.72306 0.93091 0.97948 0.0
H592 H 1.00293 0.00433 0.63553 0.0
H593 H 0.0762 0.03391 0.61549 0.0
H594 H 1.00125 0.11577 0.80106 0.0
H595 H 0.92903 0.08345 0.8215 0.0
loop_
_geom_bond_atom_site_label_1
_geom_bond_atom_site_label_2
_geom_bond_distance
_geom_bond_site_symmetry_2
_ccdc_geom_bond_type
Cu0 N1 1.999 . S
Cu0 O6 1.974 . S
Cu0 N11 1.985 . S
Cu0 O20 1.959 . S
N1 Cu0 1.999 . S
N1 C3 1.263 . S
N1 C5 1.389 . S
N2 C3 1.358 . S
N2 C4 1.400 . S
C3 N1 1.263 . S
C3 N2 1.358 . S
C3 H9 0.930 . S
C4 N2 1.400 . S
C4 C5 1.351 . S
C4 H21 0.930 . S
C5 N1 1.389 . S
C5 C4 1.351 . S
C5 H10 0.930 . S
O6 Cu0 1.974 . S
O6 C16 1.282 . S
C7 O8 1.261 . S
C7 O20 1.251 . S
O8 C7 1.261 . S
H9 C3 0.930 . S
H10 C5 0.930 . S
N11 Cu0 1.985 . S
N11 C13 1.335 . S
N11 C14 1.390 . S
N12 C13 1.345 . S
N12 C15 1.336 . S
C13 N11 1.335 . S
C13 N12 1.345 . S
C13 H18 0.930 . S
C14 N11 1.390 . S
C14 C15 1.346 . S
C14 H19 0.930 1_545 S
C15 N12 1.336 . S
C15 C14 1.346 . S
C15 H22 0.929 1_545 S
C16 O6 1.282 . S
C16 O17 1.216 . S
O17 C16 1.216 . S
H18 C13 0.930 . S
H19 C14 0.930 1_565 S
O20 Cu0 1.959 . S
O20 C7 1.251 . S
H21 C4 0.930 . S
H22 C15 0.929 1_565 S
Cu23 N24 1.999 . S
Cu23 O29 1.974 . S
Cu23 N34 1.985 . S
Cu23 O43 1.959 . S
N24 Cu23 1.999 . S
N24 C26 1.263 . S
N24 C28 1.389 . S
N25 C26 1.358 . S
N25 C27 1.400 . S
C26 N24 1.263 . S
C26 N25 1.358 . S
C26 H32 0.930 . S
C27 N25 1.400 . S
C27 C28 1.351 . S
C27 H44 0.930 . S
C28 N24 1.389 . S
C28 C27 1.351 . S
C28 H33 0.930 . S
O29 Cu23 1.974 . S
O29 C39 1.282 . S
C30 O31 1.261 . S
C30 O43 1.251 . S
O31 C30 1.261 . S
H32 C26 0.930 . S
H33 C28 0.930 . S
N34 Cu23 1.985 . S
N34 C36 1.335 . S
N34 C37 1.390 . S
N35 C36 1.345 . S
N35 C38 1.336 . S
C36 N34 1.335 . S
C36 N35 1.345 . S
C36 H41 0.930 . S
C37 N34 1.390 . S
C37 C38 1.346 . S
C37 H42 0.930 . S
C38 N35 1.336 . S
C38 C37 1.346 . S
C38 H45 0.929 . S
C39 O29 1.282 . S
C39 O40 1.216 . S
O40 C39 1.216 . S
H41 C36 0.930 . S
H42 C37 0.930 . S
O43 Cu23 1.959 . S
O43 C30 1.251 . S
H44 C27 0.930 . S
H45 C38 0.929 . S
Cu46 N47 1.999 . S
Cu46 O52 1.974 . S
Cu46 N57 1.985 . S
Cu46 O66 1.959 . S
N47 Cu46 1.999 . S
N47 C49 1.263 . S
N47 C51 1.389 . S
N48 C49 1.358 . S
N48 C50 1.400 . S
C49 N47 1.263 . S
C49 N48 1.358 . S
C49 H55 0.930 . S
C50 N48 1.400 . S
C50 C51 1.351 . S
C50 H67 0.930 1_554 S
C51 N47 1.389 . S
C51 C50 1.351 . S
C51 H56 0.930 . S
O52 Cu46 1.974 . S
O52 C62 1.282 . S
C53 O54 1.261 . S
C53 O66 1.251 . S
O54 C53 1.261 . S
H55 C49 0.930 . S
H56 C51 0.930 . S
N57 Cu46 1.985 . S
N57 C59 1.335 . S
N57 C60 1.390 . S
N58 C59 1.345 . S
N58 C61 1.336 . S
C59 N57 1.335 . S
C59 N58 1.345 . S
C59 H64 0.930 . S
C60 N57 1.390 . S
C60 C61 1.346 . S
C60 H65 0.930 . S
C61 N58 1.336 . S
C61 C60 1.346 . S
C61 H68 0.929 . S
C62 O52 1.282 . S
C62 O63 1.216 . S
O63 C62 1.216 . S
H64 C59 0.930 . S
H65 C60 0.930 . S
O66 Cu46 1.959 . S
O66 C53 1.251 . S
H67 C50 0.930 1_556 S
H68 C61 0.929 . S
Cu69 N70 1.999 . S
Cu69 O75 1.974 . S
Cu69 N80 1.985 . S
Cu69 O89 1.959 . S
N70 Cu69 1.999 . S
N70 C72 1.263 . S
N70 C74 1.389 1_554 S
N71 C72 1.358 1_556 S
N71 C73 1.400 . S
C72 N70 1.263 . S
C72 N71 1.358 1_554 S
C72 H78 0.930 . S
C73 N71 1.400 . S
C73 C74 1.351 . S
C73 H90 0.930 . S
C74 N70 1.389 1_556 S
C74 C73 1.351 . S
C74 H79 0.930 . S
O75 Cu69 1.974 . S
O75 C85 1.282 . S
C76 O77 1.261 . S
C76 O89 1.251 . S
O77 C76 1.261 . S
H78 C72 0.930 . S
H79 C74 0.930 . S
N80 Cu69 1.985 . S
N80 C82 1.335 . S
N80 C83 1.390 . S
N81 C82 1.345 . S
N81 C84 1.336 . S
C82 N80 1.335 . S
C82 N81 1.345 . S
C82 H87 0.930 . S
C83 N80 1.390 . S
C83 C84 1.346 . S
C83 H88 0.930 . S
C84 N81 1.336 . S
C84 C83 1.346 . S
C84 H91 0.929 . S
C85 O75 1.282 . S
C85 O86 1.216 . S
O86 C85 1.216 . S
H87 C82 0.930 . S
H88 C83 0.930 . S
O89 Cu69 1.959 . S
O89 C76 1.251 . S
H90 C73 0.930 . S
H91 C84 0.929 . S
Cu92 N93 1.999 1_554 S
Cu92 O98 1.974 . S
Cu92 N103 1.985 1_545 S
Cu92 O112 1.959 1_544 S
N93 Cu92 1.999 1_556 S
N93 C95 1.263 . S
N93 C97 1.389 . S
N94 C95 1.358 . S
N94 C96 1.400 . S
C95 N93 1.263 . S
C95 N94 1.358 . S
C95 H101 0.930 1_655 S
C96 N94 1.400 . S
C96 C97 1.351 . S
C96 H113 0.930 . S
C97 N93 1.389 . S
C97 C96 1.351 . S
C97 H102 0.930 . S
O98 Cu92 1.974 . S
O98 C108 1.282 1_655 S
C99 O100 1.261 . S
C99 O112 1.251 1_455 S
O100 C99 1.261 . S
H101 C95 0.930 1_455 S
H102 C97 0.930 . S
N103 Cu92 1.985 1_565 S
N103 C105 1.335 . S
N103 C106 1.390 1_655 S
N104 C105 1.345 . S
N104 C107 1.336 1_655 S
C105 N103 1.335 . S
C105 N104 1.345 . S
C105 H110 0.930 . S
C106 N103 1.390 1_455 S
C106 C107 1.346 . S
C106 H111 0.930 . S
C107 N104 1.336 1_455 S
C107 C106 1.346 . S
C107 H114 0.929 . S
C108 O98 1.282 1_455 S
C108 O109 1.215 1_545 S
O109 C108 1.215 1_565 S
H110 C105 0.930 . S
H111 C106 0.930 . S
O112 Cu92 1.959 1_566 S
O112 C99 1.251 1_655 S
H113 C96 0.930 . S
H114 C107 0.929 . S
Cu115 N116 1.999 1_454 S
Cu115 O121 1.974 1_455 S
Cu115 N126 1.985 . S
Cu115 O135 1.959 1_554 S
N116 Cu115 1.999 1_656 S
N116 C118 1.263 . S
N116 C120 1.389 1_655 S
N117 C118 1.358 . S
N117 C119 1.400 . S
C118 N116 1.263 . S
C118 N117 1.358 . S
C118 H124 0.930 1_565 S
C119 N117 1.400 . S
C119 C120 1.351 1_655 S
C119 H136 0.930 . S
C120 N116 1.389 1_455 S
C120 C119 1.351 1_455 S
C120 H125 0.930 . S
O121 Cu115 1.974 1_655 S
O121 C131 1.282 1_565 S
C122 O123 1.261 . S
C122 O135 1.251 1_545 S
O123 C122 1.261 . S
H124 C118 0.930 1_545 S
H125 C120 0.930 . S
N126 Cu115 1.985 . S
N126 C128 1.335 . S
N126 C129 1.390 1_565 S
N127 C128 1.345 . S
N127 C130 1.336 1_565 S
C128 N126 1.335 . S
C128 N127 1.345 . S
C128 H133 0.930 . S
C129 N126 1.390 1_545 S
C129 C130 1.346 . S
C129 H134 0.930 1_455 S
C130 N127 1.336 1_545 S
C130 C129 1.346 . S
C130 H137 0.929 . S
C131 O121 1.282 1_545 S
C131 O132 1.216 . S
O132 C131 1.216 . S
H133 C128 0.930 . S
H134 C129 0.930 1_655 S
O135 Cu115 1.959 1_556 S
O135 C122 1.251 1_565 S
H136 C119 0.930 . S
H137 C130 0.929 . S
Cu138 N139 1.999 . S
Cu138 O144 1.974 . S
Cu138 N149 1.985 . S
Cu138 O158 1.959 . S
N139 Cu138 1.999 . S
N139 C141 1.263 . S
N139 C143 1.389 . S
N140 C141 1.358 . S
N140 C142 1.400 . S
C141 N139 1.263 . S
C141 N140 1.358 . S
C141 H147 0.930 1_554 S
C142 N140 1.400 . S
C142 C143 1.351 . S
C142 H159 0.930 . S
C143 N139 1.389 . S
C143 C142 1.351 . S
C143 H148 0.930 . S
O144 Cu138 1.974 . S
O144 C154 1.282 1_554 S
C145 O146 1.261 . S
C145 O158 1.251 1_556 S
O146 C145 1.261 . S
H147 C141 0.930 1_556 S
H148 C143 0.930 . S
N149 Cu138 1.985 . S
N149 C151 1.335 . S
N149 C152 1.390 1_554 S
N150 C151 1.345 . S
N150 C153 1.336 1_554 S
C151 N149 1.335 . S
C151 N150 1.345 . S
C151 H156 0.930 . S
C152 N149 1.390 1_556 S
C152 C153 1.346 . S
C152 H157 0.930 . S
C153 N150 1.336 1_556 S
C153 C152 1.346 . S
C153 H160 0.929 . S
C154 O144 1.282 1_556 S
C154 O155 1.216 . S
O155 C154 1.216 . S
H156 C151 0.930 . S
H157 C152 0.930 . S
O158 Cu138 1.959 . S
O158 C145 1.251 1_554 S
H159 C142 0.930 . S
H160 C153 0.929 . S
Cu161 N162 1.999 . S
Cu161 O167 1.974 . S
Cu161 N172 1.985 . S
Cu161 O181 1.959 . S
N162 Cu161 1.999 . S
N162 C164 1.263 . S
N162 C166 1.389 . S
N163 C164 1.358 . S
N163 C165 1.400 . S
C164 N162 1.263 . S
C164 N163 1.358 . S
C164 H170 0.930 . S
C165 N163 1.400 . S
C165 C166 1.351 . S
C165 H182 0.930 . S
C166 N162 1.389 . S
C166 C165 1.351 . S
C166 H171 0.930 . S
O167 Cu161 1.974 . S
O167 C177 1.282 . S
C168 O169 1.261 . S
C168 O181 1.251 . S
O169 C168 1.261 . S
H170 C164 0.930 . S
H171 C166 0.930 . S
N172 Cu161 1.985 . S
N172 C174 1.335 . S
N172 C175 1.390 . S
N173 C174 1.345 . S
N173 C176 1.336 . S
C174 N172 1.335 . S
C174 N173 1.345 . S
C174 H179 0.930 . S
C175 N172 1.390 . S
C175 C176 1.346 . S
C175 H180 0.930 . S
C176 N173 1.336 . S
C176 C175 1.346 . S
C176 H183 0.929 . S
C177 O167 1.282 . S
C177 O178 1.216 . S
O178 C177 1.216 . S
H179 C174 0.930 . S
H180 C175 0.930 . S
O181 Cu161 1.959 . S
O181 C168 1.251 . S
H182 C165 0.930 . S
H183 C176 0.929 . S
Cu184 N185 1.999 . S
Cu184 O190 1.974 . S
Cu184 N195 1.985 . S
Cu184 O204 1.959 . S
N185 Cu184 1.999 . S
N185 C187 1.263 . S
N185 C189 1.389 . S
N186 C187 1.358 . S
N186 C188 1.400 . S
C187 N185 1.263 . S
C187 N186 1.358 . S
C187 H193 0.930 . S
C188 N186 1.400 . S
C188 C189 1.351 . S
C188 H205 0.930 . S
C189 N185 1.389 . S
C189 C188 1.351 . S
C189 H194 0.930 . S
O190 Cu184 1.974 . S
O190 C200 1.282 . S
C191 O192 1.261 . S
C191 O204 1.251 . S
O192 C191 1.261 . S
H193 C187 0.930 . S
H194 C189 0.930 . S
N195 Cu184 1.985 . S
N195 C197 1.335 . S
N195 C198 1.390 . S
N196 C197 1.345 . S
N196 C199 1.336 . S
C197 N195 1.335 . S
C197 N196 1.345 . S
C197 H202 0.930 . S
C198 N195 1.390 . S
C198 C199 1.346 . S
C198 H203 0.930 . S
C199 N196 1.336 . S
C199 C198 1.346 . S
C199 H206 0.929 . S
C200 O190 1.282 . S
C200 O201 1.216 . S
O201 C200 1.216 . S
H202 C197 0.930 . S
H203 C198 0.930 . S
O204 Cu184 1.959 . S
O204 C191 1.251 . S
H205 C188 0.930 . S
H206 C199 0.929 . S
Cu207 N208 1.999 . S
Cu207 O213 1.974 . S
Cu207 N218 1.985 . S
Cu207 O227 1.959 . S
N208 Cu207 1.999 . S
N208 C210 1.263 . S
N208 C212 1.389 . S
N209 C210 1.358 . S
N209 C211 1.400 . S
C210 N208 1.263 . S
C210 N209 1.358 . S
C210 H216 0.930 . S
C211 N209 1.400 . S
C211 C212 1.351 . S
C211 H228 0.930 . S
C212 N208 1.389 . S
C212 C211 1.351 . S
C212 H217 0.930 . S
O213 Cu207 1.974 . S
O213 C223 1.282 . S
C214 O215 1.261 . S
C214 O227 1.251 . S
O215 C214 1.261 . S
H216 C210 0.930 . S
H217 C212 0.930 . S
N218 Cu207 1.985 . S
N218 C220 1.335 . S
N218 C221 1.390 . S
N219 C220 1.345 . S
N219 C222 1.336 . S
C220 N218 1.335 . S
C220 N219 1.345 . S
C220 H225 0.930 . S
C221 N218 1.390 . S
C221 C222 1.346 . S
C221 H226 0.930 . S
C222 N219 1.336 . S
C222 C221 1.346 . S
C222 H229 0.929 . S
C223 O213 1.282 . S
C223 O224 1.216 . S
O224 C223 1.216 . S
H225 C220 0.930 . S
H226 C221 0.930 . S
O227 Cu207 1.959 . S
O227 C214 1.251 . S
H228 C211 0.930 . S
H229 C222 0.929 . S
Cu230 N231 1.999 . S
Cu230 O236 1.974 . S
Cu230 N241 1.985 . S
Cu230 O250 1.959 . S
N231 Cu230 1.999 . S
N231 C233 1.263 . S
N231 C235 1.389 . S
N232 C233 1.358 . S
N232 C234 1.400 . S
C233 N231 1.263 . S
C233 N232 1.358 . S
C233 H239 0.930 . S
C234 N232 1.400 . S
C234 C235 1.351 . S
C234 H251 0.930 . S
C235 N231 1.389 . S
C235 C234 1.351 . S
C235 H240 0.930 . S
O236 Cu230 1.974 . S
O236 C246 1.282 . S
C237 O238 1.261 . S
C237 O250 1.251 . S
O238 C237 1.261 . S
H239 C233 0.930 . S
H240 C235 0.930 . S
N241 Cu230 1.985 . S
N241 C243 1.335 . S
N241 C244 1.390 . S
N242 C243 1.345 . S
N242 C245 1.336 . S
C243 N241 1.335 . S
C243 N242 1.345 . S
C243 H248 0.930 . S
C244 N241 1.390 . S
C244 C245 1.346 . S
C244 H249 0.930 . S
C245 N242 1.336 . S
C245 C244 1.346 . S
C245 H252 0.929 . S
C246 O236 1.282 . S
C246 O247 1.216 . S
O247 C246 1.216 . S
H248 C243 0.930 . S
H249 C244 0.930 . S
O250 Cu230 1.959 . S
O250 C237 1.251 . S
H251 C234 0.930 . S
H252 C245 0.929 . S
Cu253 N254 1.999 . S
Cu253 O259 1.974 . S
Cu253 N264 1.985 . S
Cu253 O273 1.959 . S
N254 Cu253 1.999 . S
N254 C256 1.263 . S
N254 C258 1.389 . S
N255 C256 1.358 . S
N255 C257 1.400 . S
C256 N254 1.263 . S
C256 N255 1.358 . S
C256 H262 0.930 . S
C257 N255 1.400 . S
C257 C258 1.351 . S
C257 H274 0.930 . S
C258 N254 1.389 . S
C258 C257 1.351 . S
C258 H263 0.930 . S
O259 Cu253 1.974 . S
O259 C269 1.282 . S
C260 O261 1.261 . S
C260 O273 1.251 . S
O261 C260 1.261 . S
H262 C256 0.930 . S
H263 C258 0.930 . S
N264 Cu253 1.985 . S
N264 C266 1.335 . S
N264 C267 1.390 . S
N265 C266 1.345 . S
N265 C268 1.336 . S
C266 N264 1.335 . S
C266 N265 1.345 . S
C266 H271 0.930 . S
C267 N264 1.390 . S
C267 C268 1.346 . S
C267 H272 0.930 . S
C268 N265 1.336 . S
C268 C267 1.346 . S
C268 H275 0.929 . S
C269 O259 1.282 . S
C269 O270 1.216 . S
O270 C269 1.216 . S
H271 C266 0.930 . S
H272 C267 0.930 . S
O273 Cu253 1.959 . S
O273 C260 1.251 . S
H274 C257 0.930 . S
H275 C268 0.929 . S
La276 C278 2.928 . S
La276 O296 2.521 . S
La276 O297 2.628 . S
La276 O298 2.554 . S
La276 O299 2.757 . S
La276 O300 2.470 . S
La276 O305 2.482 . S
La276 O307 2.503 . S
La277 C287 2.928 . S
La277 O299 2.482 . S
La277 O301 2.503 . S
La277 O302 2.521 . S
La277 O303 2.628 . S
La277 O304 2.554 . S
La277 O305 2.757 . S
La277 O306 2.470 . S
C278 La276 2.928 . S
C278 C279 1.503 . S
C278 O296 1.261 . S
C278 O297 1.243 . S
C279 C278 1.503 . S
C279 C280 1.394 . S
C279 C284 1.373 . S
C280 C279 1.394 . S
C280 C281 1.380 . S
C280 H308 0.930 . S
C281 C280 1.380 . S
C281 C282 1.376 . S
C281 H309 0.930 . S
C282 C281 1.376 . S
C282 C283 1.370 . S
C283 C282 1.370 . S
C283 C284 1.396 . S
C283 H310 0.929 . S
C284 C279 1.373 . S
C284 C283 1.396 . S
C284 H311 0.929 . S
C285 O298 1.240 . S
C285 O299 1.289 . S
C286 O300 1.258 . S
C286 O301 1.256 . S
C287 La277 2.928 . S
C287 C288 1.503 . S
C287 O302 1.261 . S
C287 O303 1.243 . S
C288 C287 1.503 . S
C288 C289 1.394 . S
C288 C293 1.373 . S
C289 C288 1.394 . S
C289 C290 1.380 . S
C289 H312 0.930 . S
C290 C289 1.380 . S
C290 C291 1.376 . S
C290 H313 0.930 . S
C291 C290 1.376 . S
C291 C292 1.370 . S
C292 C291 1.370 . S
C292 C293 1.396 . S
C292 H314 0.929 . S
C293 C288 1.373 . S
C293 C292 1.396 . S
C293 H315 0.929 . S
C294 O304 1.240 . S
C294 O305 1.289 . S
C295 O306 1.258 . S
C295 O307 1.256 . S
O296 La276 2.521 . S
O296 C278 1.261 . S
O297 La276 2.628 . S
O297 C278 1.243 . S
O298 La276 2.554 . S
O298 C285 1.240 . S
O299 La276 2.757 . S
O299 La277 2.482 . S
O299 C285 1.289 . S
O300 La276 2.470 . S
O300 C286 1.258 . S
O301 La277 2.503 . S
O301 C286 1.256 . S
O302 La277 2.521 . S
O302 C287 1.261 . S
O303 La277 2.628 . S
O303 C287 1.243 . S
O304 La277 2.554 . S
O304 C294 1.240 . S
O305 La276 2.482 . S
O305 La277 2.757 . S
O305 C294 1.289 . S
O306 La277 2.470 . S
O306 C295 1.258 . S
O307 La276 2.503 . S
O307 C295 1.256 . S
H308 C280 0.930 . S
H309 C281 0.930 . S
H310 C283 0.929 . S
H311 C284 0.929 . S
H312 C289 0.930 . S
H313 C290 0.930 . S
H314 C292 0.929 . S
H315 C293 0.929 . S
La316 C318 2.928 . S
La316 O336 2.521 . S
La316 O337 2.628 . S
La316 O338 2.554 . S
La316 O339 2.757 . S
La316 O340 2.470 . S
La316 O345 2.482 . S
La316 O347 2.503 . S
La317 C327 2.928 . S
La317 O339 2.482 . S
La317 O341 2.503 . S
La317 O342 2.521 . S
La317 O343 2.628 . S
La317 O344 2.554 . S
La317 O345 2.757 . S
La317 O346 2.470 . S
C318 La316 2.928 . S
C318 C319 1.503 . S
C318 O336 1.261 . S
C318 O337 1.243 . S
C319 C318 1.503 . S
C319 C320 1.394 . S
C319 C324 1.373 . S
C320 C319 1.394 . S
C320 C321 1.380 . S
C320 H348 0.930 . S
C321 C320 1.380 . S
C321 C322 1.376 . S
C321 H349 0.930 . S
C322 C321 1.376 . S
C322 C323 1.370 . S
C323 C322 1.370 . S
C323 C324 1.396 . S
C323 H350 0.929 . S
C324 C319 1.373 . S
C324 C323 1.396 . S
C324 H351 0.929 . S
C325 O338 1.240 . S
C325 O339 1.289 . S
C326 O340 1.258 . S
C326 O341 1.256 . S
C327 La317 2.928 . S
C327 C328 1.503 . S
C327 O342 1.261 . S
C327 O343 1.243 . S
C328 C327 1.503 . S
C328 C329 1.394 . S
C328 C333 1.373 1_655 S
C329 C328 1.394 . S
C329 C330 1.380 1_655 S
C329 H352 0.930 . S
C330 C329 1.380 1_455 S
C330 C331 1.375 . S
C330 H353 0.931 1_455 S
C331 C330 1.375 . S
C331 C332 1.370 . S
C332 C331 1.370 . S
C332 C333 1.396 . S
C332 H354 0.929 . S
C333 C328 1.373 1_455 S
C333 C332 1.396 . S
C333 H355 0.929 . S
C334 O344 1.240 . S
C334 O345 1.289 . S
C335 O346 1.258 . S
C335 O347 1.256 . S
O336 La316 2.521 . S
O336 C318 1.261 . S
O337 La316 2.628 . S
O337 C318 1.243 . S
O338 La316 2.554 . S
O338 C325 1.240 . S
O339 La316 2.757 . S
O339 La317 2.482 . S
O339 C325 1.289 . S
O340 La316 2.470 . S
O340 C326 1.258 . S
O341 La317 2.503 . S
O341 C326 1.256 . S
O342 La317 2.521 . S
O342 C327 1.261 . S
O343 La317 2.628 . S
O343 C327 1.243 . S
O344 La317 2.554 . S
O344 C334 1.240 . S
O345 La316 2.482 . S
O345 La317 2.757 . S
O345 C334 1.289 . S
O346 La317 2.470 . S
O346 C335 1.258 . S
O347 La316 2.503 . S
O347 C335 1.256 . S
H348 C320 0.930 . S
H349 C321 0.930 . S
H350 C323 0.929 . S
H351 C324 0.929 . S
H352 C329 0.930 . S
H353 C330 0.931 1_655 S
H354 C332 0.929 . S
H355 C333 0.929 . S
La356 C358 2.928 . S
La356 O376 2.521 . S
La356 O377 2.628 . S
La356 O378 2.554 . S
La356 O379 2.757 . S
La356 O380 2.470 . S
La356 O385 2.482 . S
La356 O387 2.503 . S
La357 C367 2.928 1_565 S
La357 O379 2.482 . S
La357 O381 2.503 . S
La357 O382 2.521 . S
La357 O383 2.628 1_565 S
La357 O384 2.554 . S
La357 O385 2.757 . S
La357 O386 2.470 . S
C358 La356 2.928 . S
C358 C359 1.503 . S
C358 O376 1.261 . S
C358 O377 1.243 . S
C359 C358 1.503 . S
C359 C360 1.394 . S
C359 C364 1.373 . S
C360 C359 1.394 . S
C360 C361 1.380 . S
C360 H388 0.930 . S
C361 C360 1.380 . S
C361 C362 1.376 . S
C361 H389 0.930 . S
C362 C361 1.376 . S
C362 C363 1.370 . S
C363 C362 1.370 . S
C363 C364 1.396 . S
C363 H390 0.929 . S
C364 C359 1.373 . S
C364 C363 1.396 . S
C364 H391 0.929 . S
C365 O378 1.240 . S
C365 O379 1.289 . S
C366 O380 1.258 . S
C366 O381 1.256 . S
C367 La357 2.928 1_545 S
C367 C368 1.503 . S
C367 O382 1.261 1_545 S
C367 O383 1.243 . S
C368 C367 1.503 . S
C368 C369 1.394 . S
C368 C373 1.373 . S
C369 C368 1.394 . S
C369 C370 1.380 1_655 S
C369 H392 0.930 . S
C370 C369 1.380 1_455 S
C370 C371 1.376 . S
C370 H393 0.930 . S
C371 C370 1.376 . S
C371 C372 1.370 . S
C372 C371 1.370 . S
C372 C373 1.396 1_455 S
C372 H394 0.929 . S
C373 C368 1.373 . S
C373 C372 1.396 1_655 S
C373 H395 0.929 . S
C374 O384 1.240 . S
C374 O385 1.289 . S
C375 O386 1.258 . S
C375 O387 1.256 . S
O376 La356 2.521 . S
O376 C358 1.261 . S
O377 La356 2.628 . S
O377 C358 1.243 . S
O378 La356 2.554 . S
O378 C365 1.240 . S
O379 La356 2.757 . S
O379 La357 2.482 . S
O379 C365 1.289 . S
O380 La356 2.470 . S
O380 C366 1.258 . S
O381 La357 2.503 . S
O381 C366 1.256 . S
O382 La357 2.521 . S
O382 C367 1.261 1_565 S
O383 La357 2.628 1_545 S
O383 C367 1.243 . S
O384 La357 2.554 . S
O384 C374 1.240 . S
O385 La356 2.482 . S
O385 La357 2.757 . S
O385 C374 1.289 . S
O386 La357 2.470 . S
O386 C375 1.258 . S
O387 La356 2.503 . S
O387 C375 1.256 . S
H388 C360 0.930 . S
H389 C361 0.930 . S
H390 C363 0.929 . S
H391 C364 0.929 . S
H392 C369 0.930 . S
H393 C370 0.930 . S
H394 C372 0.929 . S
H395 C373 0.929 . S
La396 C398 2.928 . S
La396 O416 2.521 . S
La396 O417 2.628 . S
La396 O418 2.554 . S
La396 O419 2.757 . S
La396 O420 2.470 . S
La396 O425 2.482 . S
La396 O427 2.503 . S
La397 C407 2.928 . S
La397 O419 2.482 . S
La397 O421 2.503 . S
La397 O422 2.521 . S
La397 O423 2.628 . S
La397 O424 2.554 . S
La397 O425 2.757 . S
La397 O426 2.470 . S
C398 La396 2.928 . S
C398 C399 1.503 . S
C398 O416 1.261 . S
C398 O417 1.243 . S
C399 C398 1.503 . S
C399 C400 1.394 . S
C399 C404 1.373 1_565 S
C400 C399 1.394 . S
C400 C401 1.380 . S
C400 H428 0.930 . S
C401 C400 1.380 . S
C401 C402 1.376 1_565 S
C401 H429 0.930 . S
C402 C401 1.376 1_545 S
C402 C403 1.370 . S
C403 C402 1.370 . S
C403 C404 1.396 . S
C403 H430 0.929 . S
C404 C399 1.373 1_545 S
C404 C403 1.396 . S
C404 H431 0.929 . S
C405 O418 1.240 . S
C405 O419 1.289 . S
C406 O420 1.258 . S
C406 O421 1.256 . S
C407 La397 2.928 . S
C407 C408 1.503 . S
C407 O422 1.261 . S
C407 O423 1.243 . S
C408 C407 1.503 . S
C408 C409 1.394 . S
C408 C413 1.373 . S
C409 C408 1.394 . S
C409 C410 1.380 . S
C409 H432 0.930 . S
C410 C409 1.380 . S
C410 C411 1.376 . S
C410 H433 0.930 . S
C411 C410 1.376 . S
C411 C412 1.370 . S
C412 C411 1.370 . S
C412 C413 1.396 . S
C412 H434 0.929 . S
C413 C408 1.373 . S
C413 C412 1.396 . S
C413 H435 0.929 . S
C414 O424 1.240 . S
C414 O425 1.289 . S
C415 O426 1.258 . S
C415 O427 1.256 . S
O416 La396 2.521 . S
O416 C398 1.261 . S
O417 La396 2.628 . S
O417 C398 1.243 . S
O418 La396 2.554 . S
O418 C405 1.240 . S
O419 La396 2.757 . S
O419 La397 2.482 . S
O419 C405 1.289 . S
O420 La396 2.470 . S
O420 C406 1.258 . S
O421 La397 2.503 . S
O421 C406 1.256 . S
O422 La397 2.521 . S
O422 C407 1.261 . S
O423 La397 2.628 . S
O423 C407 1.243 . S
O424 La397 2.554 . S
O424 C414 1.240 . S
O425 La396 2.482 . S
O425 La397 2.757 . S
O425 C414 1.289 . S
O426 La397 2.470 . S
O426 C415 1.258 . S
O427 La396 2.503 . S
O427 C415 1.256 . S
H428 C400 0.930 . S
H429 C401 0.930 . S
H430 C403 0.929 . S
H431 C404 0.929 . S
H432 C409 0.930 . S
H433 C410 0.930 . S
H434 C412 0.929 . S
H435 C413 0.929 . S
La436 C438 2.928 1_565 S
La436 O456 2.521 . S
La436 O457 2.628 1_565 S
La436 O458 2.554 . S
La436 O459 2.757 . S
La436 O460 2.470 . S
La436 O465 2.482 . S
La436 O467 2.503 . S
La437 C447 2.928 . S
La437 O459 2.482 . S
La437 O461 2.503 . S
La437 O462 2.521 . S
La437 O463 2.628 . S
La437 O464 2.554 . S
La437 O465 2.757 . S
La437 O466 2.470 . S
C438 La436 2.928 1_545 S
C438 C439 1.503 . S
C438 O456 1.261 1_545 S
C438 O457 1.243 . S
C439 C438 1.503 . S
C439 C440 1.394 1_556 S
C439 C444 1.373 . S
C440 C439 1.394 1_554 S
C440 C441 1.380 . S
C440 H468 0.930 . S
C441 C440 1.380 . S
C441 C442 1.376 . S
C441 H469 0.930 . S
C442 C441 1.376 . S
C442 C443 1.370 . S
C443 C442 1.370 . S
C443 C444 1.396 1_554 S
C443 H470 0.929 . S
C444 C439 1.373 . S
C444 C443 1.396 1_556 S
C444 H471 0.929 . S
C445 O458 1.240 . S
C445 O459 1.289 . S
C446 O460 1.258 . S
C446 O461 1.256 . S
C447 La437 2.928 . S
C447 C448 1.503 . S
C447 O462 1.261 . S
C447 O463 1.243 . S
C448 C447 1.503 . S
C448 C449 1.394 . S
C448 C453 1.373 . S
C449 C448 1.394 . S
C449 C450 1.380 . S
C449 H472 0.930 . S
C450 C449 1.380 . S
C450 C451 1.376 . S
C450 H473 0.930 . S
C451 C450 1.376 . S
C451 C452 1.370 . S
C452 C451 1.370 . S
C452 C453 1.396 . S
C452 H474 0.929 . S
C453 C448 1.373 . S
C453 C452 1.396 . S
C453 H475 0.929 . S
C454 O464 1.240 . S
C454 O465 1.289 . S
C455 O466 1.258 . S
C455 O467 1.256 . S
O456 La436 2.521 . S
O456 C438 1.261 1_565 S
O457 La436 2.628 1_545 S
O457 C438 1.243 . S
O458 La436 2.554 . S
O458 C445 1.240 . S
O459 La436 2.757 . S
O459 La437 2.482 . S
O459 C445 1.289 . S
O460 La436 2.470 . S
O460 C446 1.258 . S
O461 La437 2.503 . S
O461 C446 1.256 . S
O462 La437 2.521 . S
O462 C447 1.261 . S
O463 La437 2.628 . S
O463 C447 1.243 . S
O464 La437 2.554 . S
O464 C454 1.240 . S
O465 La436 2.482 . S
O465 La437 2.757 . S
O465 C454 1.289 . S
O466 La437 2.470 . S
O466 C455 1.258 . S
O467 La436 2.503 . S
O467 C455 1.256 . S
H468 C440 0.930 . S
H469 C441 0.930 . S
H470 C443 0.929 . S
H471 C444 0.929 . S
H472 C449 0.930 . S
H473 C450 0.930 . S
H474 C452 0.929 . S
H475 C453 0.929 . S
La476 C478 2.928 . S
La476 O496 2.521 . S
La476 O497 2.628 . S
La476 O498 2.554 . S
La476 O499 2.757 . S
La476 O500 2.470 . S
La476 O505 2.482 . S
La476 O507 2.503 . S
La477 C487 2.928 . S
La477 O499 2.482 . S
La477 O501 2.503 . S
La477 O502 2.521 . S
La477 O503 2.628 . S
La477 O504 2.554 . S
La477 O505 2.757 . S
La477 O506 2.470 . S
C478 La476 2.928 . S
C478 C479 1.503 . S
C478 O496 1.261 . S
C478 O497 1.243 . S
C479 C478 1.503 . S
C479 C480 1.394 . S
C479 C484 1.373 . S
C480 C479 1.394 . S
C480 C481 1.380 . S
C480 H508 0.930 . S
C481 C480 1.380 . S
C481 C482 1.376 . S
C481 H509 0.930 . S
C482 C481 1.376 . S
C482 C483 1.370 . S
C483 C482 1.370 . S
C483 C484 1.396 . S
C483 H510 0.929 . S
C484 C479 1.373 . S
C484 C483 1.396 . S
C484 H511 0.929 . S
C485 O498 1.240 . S
C485 O499 1.289 . S
C486 O500 1.258 . S
C486 O501 1.256 . S
C487 La477 2.928 . S
C487 C488 1.503 . S
C487 O502 1.261 . S
C487 O503 1.243 . S
C488 C487 1.503 . S
C488 C489 1.394 . S
C488 C493 1.373 . S
C489 C488 1.394 . S
C489 C490 1.380 . S
C489 H512 0.930 . S
C490 C489 1.380 . S
C490 C491 1.376 . S
C490 H513 0.930 1_556 S
C491 C490 1.376 . S
C491 C492 1.370 . S
C492 C491 1.370 . S
C492 C493 1.396 . S
C492 H514 0.929 . S
C493 C488 1.373 . S
C493 C492 1.396 . S
C493 H515 0.929 . S
C494 O504 1.240 . S
C494 O505 1.289 . S
C495 O506 1.258 . S
C495 O507 1.256 . S
O496 La476 2.521 . S
O496 C478 1.261 . S
O497 La476 2.628 . S
O497 C478 1.243 . S
O498 La476 2.554 . S
O498 C485 1.240 . S
O499 La476 2.757 . S
O499 La477 2.482 . S
O499 C485 1.289 . S
O500 La476 2.470 . S
O500 C486 1.258 . S
O501 La477 2.503 . S
O501 C486 1.256 . S
O502 La477 2.521 . S
O502 C487 1.261 . S
O503 La477 2.628 . S
O503 C487 1.243 . S
O504 La477 2.554 . S
O504 C494 1.240 . S
O505 La476 2.482 . S
O505 La477 2.757 . S
O505 C494 1.289 . S
O506 La477 2.470 . S
O506 C495 1.258 . S
O507 La476 2.503 . S
O507 C495 1.256 . S
H508 C480 0.930 . S
H509 C481 0.930 . S
H510 C483 0.929 . S
H511 C484 0.929 . S
H512 C489 0.930 . S
H513 C490 0.930 1_554 S
H514 C492 0.929 . S
H515 C493 0.929 . S
La516 C518 2.928 . S
La516 O536 2.521 . S
La516 O537 2.628 . S
La516 O538 2.554 . S
La516 O539 2.757 . S
La516 O540 2.470 . S
La516 O545 2.482 . S
La516 O547 2.503 . S
La517 C527 2.928 1_655 S
La517 O539 2.482 . S
La517 O541 2.503 . S
La517 O542 2.521 . S
La517 O543 2.628 1_655 S
La517 O544 2.554 . S
La517 O545 2.757 . S
La517 O546 2.470 . S
C518 La516 2.928 . S
C518 C519 1.503 . S
C518 O536 1.261 . S
C518 O537 1.243 . S
C519 C518 1.503 . S
C519 C520 1.394 . S
C519 C524 1.373 . S
C520 C519 1.394 . S
C520 C521 1.380 . S
C520 H548 0.930 . S
C521 C520 1.380 . S
C521 C522 1.376 . S
C521 H549 0.930 . S
C522 C521 1.376 . S
C522 C523 1.370 . S
C523 C522 1.370 . S
C523 C524 1.396 . S
C523 H550 0.929 . S
C524 C519 1.373 . S
C524 C523 1.396 . S
C524 H551 0.929 . S
C525 O538 1.240 . S
C525 O539 1.289 . S
C526 O540 1.258 . S
C526 O541 1.256 . S
C527 La517 2.928 1_455 S
C527 C528 1.503 . S
C527 O542 1.261 1_455 S
C527 O543 1.243 . S
C528 C527 1.503 . S
C528 C529 1.394 1_556 S
C528 C533 1.373 . S
C529 C528 1.394 1_554 S
C529 C530 1.380 . S
C529 H552 0.930 . S
C530 C529 1.380 . S
C530 C531 1.376 . S
C530 H553 0.930 . S
C531 C530 1.376 . S
C531 C532 1.370 . S
C532 C531 1.370 . S
C532 C533 1.396 1_554 S
C532 H554 0.929 . S
C533 C528 1.373 . S
C533 C532 1.396 1_556 S
C533 H555 0.929 . S
C534 O544 1.240 . S
C534 O545 1.289 . S
C535 O546 1.258 . S
C535 O547 1.256 . S
O536 La516 2.521 . S
O536 C518 1.261 . S
O537 La516 2.628 . S
O537 C518 1.243 . S
O538 La516 2.554 . S
O538 C525 1.240 . S
O539 La516 2.757 . S
O539 La517 2.482 . S
O539 C525 1.289 . S
O540 La516 2.470 . S
O540 C526 1.258 . S
O541 La517 2.503 . S
O541 C526 1.256 . S
O542 La517 2.521 . S
O542 C527 1.261 1_655 S
O543 La517 2.628 1_455 S
O543 C527 1.243 . S
O544 La517 2.554 . S
O544 C534 1.240 . S
O545 La516 2.482 . S
O545 La517 2.757 . S
O545 C534 1.289 . S
O546 La517 2.470 . S
O546 C535 1.258 . S
O547 La516 2.503 . S
O547 C535 1.256 . S
H548 C520 0.930 . S
H549 C521 0.930 . S
H550 C523 0.929 . S
H551 C524 0.929 . S
H552 C529 0.930 . S
H553 C530 0.930 . S
H554 C532 0.929 . S
H555 C533 0.929 . S
La556 C558 2.928 . S
La556 O576 2.521 . S
La556 O577 2.628 . S
La556 O578 2.554 . S
La556 O579 2.757 . S
La556 O580 2.470 . S
La556 O585 2.482 . S
La556 O587 2.503 1_565 S
La557 C567 2.928 1_565 S
La557 O579 2.482 . S
La557 O581 2.503 . S
La557 O582 2.521 1_565 S
La557 O583 2.628 . S
La557 O584 2.554 1_565 S
La557 O585 2.757 . S
La557 O586 2.470 1_565 S
C558 La556 2.928 . S
C558 C559 1.503 . S
C558 O576 1.261 . S
C558 O577 1.243 . S
C559 C558 1.503 . S
C559 C560 1.394 . S
C559 C564 1.373 . S
C560 C559 1.394 . S
C560 C561 1.380 1_556 S
C560 H588 0.930 1_556 S
C561 C560 1.380 1_554 S
C561 C562 1.376 1_554 S
C561 H589 0.930 . S
C562 C561 1.376 1_556 S
C562 C563 1.370 . S
C563 C562 1.370 . S
C563 C564 1.396 . S
C563 H590 0.929 . S
C564 C559 1.373 . S
C564 C563 1.396 . S
C564 H591 0.929 . S
C565 O578 1.240 . S
C565 O579 1.289 . S
C566 O580 1.258 . S
C566 O581 1.256 . S
C567 La557 2.928 1_545 S
C567 C568 1.503 . S
C567 O582 1.261 . S
C567 O583 1.243 1_545 S
C568 C567 1.503 . S
C568 C569 1.394 . S
C568 C573 1.373 . S
C569 C568 1.394 . S
C569 C570 1.380 . S
C569 H592 0.930 . S
C570 C569 1.380 . S
C570 C571 1.376 1_655 S
C570 H593 0.930 . S
C571 C570 1.376 1_455 S
C571 C572 1.370 . S
C572 C571 1.370 . S
C572 C573 1.396 1_455 S
C572 H594 0.929 . S
C573 C568 1.373 . S
C573 C572 1.396 1_655 S
C573 H595 0.929 . S
C574 O584 1.240 . S
C574 O585 1.289 1_545 S
C575 O586 1.258 . S
C575 O587 1.256 . S
O576 La556 2.521 . S
O576 C558 1.261 . S
O577 La556 2.628 . S
O577 C558 1.243 . S
O578 La556 2.554 . S
O578 C565 1.240 . S
O579 La556 2.757 . S
O579 La557 2.482 . S
O579 C565 1.289 . S
O580 La556 2.470 . S
O580 C566 1.258 . S
O581 La557 2.503 . S
O581 C566 1.256 . S
O582 La557 2.521 1_545 S
O582 C567 1.261 . S
O583 La557 2.628 . S
O583 C567 1.243 1_565 S
O584 La557 2.554 1_545 S
O584 C574 1.240 . S
O585 La556 2.482 . S
O585 La557 2.757 . S
O585 C574 1.289 1_565 S
O586 La557 2.470 1_545 S
O586 C575 1.258 . S
O587 La556 2.503 1_545 S
O587 C575 1.256 . S
H588 C560 0.930 1_554 S
H589 C561 0.930 . S
H590 C563 0.929 . S
H591 C564 0.929 . S
H592 C569 0.930 . S
H593 C570 0.930 . S
H594 C572 0.929 . S
H595 C573 0.929 . S
C282 N2 1.131 . S
C325 C7 2.503 1_655 S
C371 N12 3.234 . S
C16 C414 2.182 1_545 S
C454 C30 3.010 1_565 S
C482 N35 3.194 . S
C39 C525 3.019 1_455 S
C571 N25 1.140 . S
C286 N58 3.592 . S
N81 C335 3.633 1_455 S
C365 N104 3.430 . S
N127 C402 2.481 1_565 S
C442 N48 2.560 . S
C486 N71 2.777 . S
N94 C535 3.466 . S
C565 N117 2.901 . S
C85 C294 5.296 . S
C122 C446 4.721 1_545 S
C53 C494 5.279 1_554 S
C531 C76 2.117 . S
C575 C99 5.601 1_645 S
C375 C131 4.688 1_565 S
C406 C62 4.628 1_565 S
C108 C331 1.974 . S
C562 N140 1.744 1_556 S
C145 C445 2.430 . S
C491 N150 2.384 1_556 S
C154 C534 1.993 . S
C334 C168 3.104 . S
N173 C362 2.039 . S
C405 C177 3.052 . S
C291 N163 0.968 . S
C566 C200 3.293 . S
C455 N219 4.183 . S
N242 C485 3.115 . S
C522 C269 2.979 . S
C322 C191 2.363 . S
N209 C366 3.959 . S
N232 C415 3.830 . S
C260 C285 4.445 . S
C223 C574 5.707 1_565 S
N255 C326 4.448 . S
N186 C374 4.452 . S
C411 C214 2.122 . S
C295 C237 4.682 . S
C495 N265 5.314 . S
C526 N196 3.926 . S
C451 C246 1.436 . S
