# Generated by pormake.
# Topology bcu-b, (8,8)-cn, num edge types: 1
# Building blocks:
#     Node 0, Type 0, BuildingBlock: TAGTUT_clean_sbu_3, # of connection points: 8
#     Node 1, Type 1, BuildingBlock: TAGTUT_clean_sbu_1, # of connection points: 8
#     Edge 2, Type (0, 1), BuildingBlock: MIFKUJ_clean_linker_0, # of connection points: 2
#     Edge 3, Type (0, 1), BuildingBlock: MIFKUJ_clean_linker_0, # of connection points: 2
#     Edge 4, Type (0, 1), BuildingBlock: MIFKUJ_clean_linker_0, # of connection points: 2
#     Edge 5, Type (0, 1), BuildingBlock: MIFKUJ_clean_linker_0, # of connection points: 2
#     Edge 6, Type (0, 1), BuildingBlock: MIFKUJ_clean_linker_0, # of connection points: 2
#     Edge 7, Type (0, 1), BuildingBlock: MIFKUJ_clean_linker_0, # of connection points: 2
#     Edge 8, Type (0, 1), BuildingBlock: MIFKUJ_clean_linker_0, # of connection points: 2
#     Edge 9, Type (0, 1), BuildingBlock: MIFKUJ_clean_linker_0, # of connection points: 2
# Relax obj value: 0.021
# Max RMSD: 0.091
# Mean RMSD: 0.081
data_MOF--net-bcu-b--node1-TAGTUT_clean_sbu_3--node2-TAGTUT_clean_sbu_1--edge1-MIFKUJ_clean_linker_0
_symmetry_space_group_name_H-M    P1
_symmetry_Int_Tables_number       1
_symmetry_cell_setting            triclinic
loop_
_symmetry_equiv_pos_as_xyz
'x, y, z'
_cell_length_a     25.113928
_cell_length_b     24.049108
_cell_length_c     26.206332
_cell_angle_alpha  91.448434
_cell_angle_beta   91.576913
_cell_angle_gamma 107.79833
loop_
_atom_site_label
_atom_site_type_symbol
_atom_site_fract_x
_atom_site_fract_y
_atom_site_fract_z
_atom_type_partial_charge
C0 C 0.08503 0.10247 0.073 0.0
C1 C 0.1501 0.91126 0.08336 0.0
C2 C 0.09766 0.89274 0.9233 0.0
Mg3 Mg 0.9864 0.12419 0.00176 0.0
Mg4 Mg 0.87752 0.01154 0.97187 0.0
O5 O 0.95475 0.04632 0.96444 0.0
Mg6 Mg 0.00272 0.00335 -0.00259 0.0
O7 O 0.05409 0.96525 0.03132 0.0
Mg8 Mg 0.12763 0.01175 0.00335 0.0
Mg9 Mg 0.03622 0.88401 0.02295 0.0
C10 C 0.91182 0.90467 0.92477 0.0
O11 O 0.93355 0.9503 0.04707 0.0
O12 O 0.92643 0.15653 0.9471 0.0
O13 O 0.94913 0.86252 0.04336 0.0
O14 O 0.91944 0.10734 0.06198 0.0
O15 O 0.85353 0.0754 0.9298 0.0
O16 O 0.85306 0.02207 0.04908 0.0
O17 O 0.07488 0.05255 0.95016 0.0
O18 O 0.05729 0.13789 0.9443 0.0
C19 C 0.08724 0.10452 0.93383 0.0
C20 C 0.8781 0.13018 0.92551 0.0
O21 O 0.96359 0.92822 0.93884 0.0
O22 O 0.16859 0.96061 0.06126 0.0
O23 O 0.87314 0.92678 0.93723 0.0
O24 O 0.12615 0.94395 0.93949 0.0
O25 O 0.10038 0.87669 0.07465 0.0
O26 O 0.05753 0.86125 0.94848 0.0
O27 O 0.03614 0.07934 0.05293 0.0
O28 O 0.12563 0.08235 0.06343 0.0
C29 C 0.87558 0.06872 0.07602 0.0
C30 C 0.91856 0.89511 0.05422 0.0
C31 C 0.39231 0.64142 0.57879 0.0
C32 C 0.43321 0.63106 0.42264 0.0
C33 C 0.3932 0.40097 0.45768 0.0
Mg34 Mg 0.5002 0.64055 0.52417 0.0
O35 O 0.4689 0.55993 0.53307 0.0
Mg36 Mg 0.38999 0.5224 0.50676 0.0
Mg37 Mg 0.50268 0.50427 0.49898 0.0
O38 O 0.53638 0.44846 0.46496 0.0
Mg39 Mg 0.50639 0.36871 0.47934 0.0
Mg40 Mg 0.6168 0.4876 0.48643 0.0
C41 C 0.61254 0.60702 0.54649 0.0
C42 C 0.57844 0.57234 0.40882 0.0
O43 O 0.36767 0.591 0.55763 0.0
O44 O 0.44425 0.66871 0.57288 0.0
O45 O 0.39857 0.58459 0.43904 0.0
O46 O 0.47867 0.65772 0.44752 0.0
O47 O 0.58735 0.64632 0.54472 0.0
O48 O 0.58686 0.55287 0.53584 0.0
C49 C 0.42388 0.43801 0.5885 0.0
O50 O 0.47134 0.44654 0.56765 0.0
O51 O 0.38794 0.46232 0.57243 0.0
O52 O 0.63597 0.41602 0.43343 0.0
O53 O 0.55713 0.33919 0.42635 0.0
O54 O 0.61383 0.42946 0.55413 0.0
C55 C 0.60808 0.3647 0.41517 0.0
O56 O 0.53495 0.35552 0.55581 0.0
O57 O 0.41783 0.36159 0.4634 0.0
C58 C 0.5824 0.38518 0.57585 0.0
O59 O 0.41991 0.45576 0.46121 0.0
O60 O 0.5318 0.56217 0.43095 0.0
O61 O 0.61565 0.5484 0.42195 0.0
H62 H 0.02336 0.10827 0.15495 0.0
H63 H 0.05256 0.17779 0.22774 0.0
H64 H 0.19537 0.27714 0.14536 0.0
H65 H 0.1684 0.20494 0.0745 0.0
H66 H 0.22968 0.24492 0.22612 0.0
H67 H 0.08657 0.33293 0.1902 0.0
H68 H 0.99085 0.33587 0.17094 0.0
H69 H 0.93736 0.25823 0.31392 0.0
H70 H 0.0326 0.25405 0.33381 0.0
H71 H 0.3342 0.46696 0.41401 0.0
H72 H 0.24888 0.42851 0.36113 0.0
H73 H 0.23078 0.25542 0.41337 0.0
H74 H 0.31669 0.29315 0.46575 0.0
H75 H 0.12993 0.3341 0.34915 0.0
H76 H 0.27254 0.19794 0.31758 0.0
H77 H 0.37014 0.20062 0.33714 0.0
H78 H 0.42557 0.38645 0.31998 0.0
H79 H 0.32843 0.38456 0.29964 0.0
C80 C 0.06017 0.1459 0.15217 0.0
C81 C 0.09452 0.15115 0.11012 0.0
C82 C 0.07654 0.18594 0.1935 0.0
C83 C 0.12645 0.23257 0.19225 0.0
C84 C 0.15709 0.2411 0.14744 0.0
C85 C 0.14186 0.19999 0.10707 0.0
C86 C 0.15276 0.26464 0.24003 0.0
C87 C 0.20763 0.26504 0.25226 0.0
C88 C 0.12411 0.29015 0.27506 0.0
C89 C 0.06678 0.29288 0.26336 0.0
C90 C 0.05435 0.31611 0.21742 0.0
C91 C 0.00017 0.31811 0.20643 0.0
C92 C 0.95809 0.29736 0.24123 0.0
C93 C 0.97006 0.27448 0.28708 0.0
C94 C 0.02417 0.27235 0.29826 0.0
C95 C 0.31074 0.42116 0.41621 0.0
C96 C 0.33335 0.38248 0.44205 0.0
C97 C 0.26139 0.39941 0.38642 0.0
C98 C 0.23452 0.33908 0.38258 0.0
C99 C 0.25139 0.30217 0.41572 0.0
C100 C 0.30104 0.32366 0.44497 0.0
C101 C 0.20578 0.31383 0.33378 0.0
C102 C 0.15117 0.3144 0.32195 0.0
C103 C 0.23463 0.29009 0.298 0.0
C104 C 0.29339 0.29113 0.30754 0.0
C105 C 0.3057 0.23922 0.31762 0.0
C106 C 0.36087 0.24063 0.32891 0.0
C107 C 0.40402 0.29369 0.32993 0.0
C108 C 0.39214 0.34539 0.31923 0.0
C109 C 0.33707 0.34417 0.30781 0.0
H110 H 0.44665 0.29474 0.33894 0.0
H111 H 0.91616 0.29889 0.23263 0.0
H112 H 0.76392 0.03139 0.09554 0.0
H113 H 0.71675 0.07459 0.15891 0.0
H114 H 0.87675 0.18261 0.22093 0.0
H115 H 0.9241 0.14046 0.1575 0.0
H116 H 0.79958 0.14564 0.29594 0.0
H117 H 0.81353 0.23698 0.13424 0.0
H118 H 0.80171 0.23849 0.04061 0.0
H119 H 0.62347 0.16894 0.05165 0.0
H120 H 0.63432 0.16591 0.14536 0.0
H121 H 0.72052 0.38323 0.40425 0.0
H122 H 0.76495 0.32624 0.35073 0.0
H123 H 0.60256 0.21719 0.29493 0.0
H124 H 0.55782 0.27334 0.34851 0.0
H125 H 0.67995 0.25327 0.21732 0.0
H126 H 0.66683 0.16046 0.37902 0.0
H127 H 0.67949 0.15636 0.47219 0.0
H128 H 0.85723 0.23132 0.46077 0.0
H129 H 0.8455 0.23567 0.36722 0.0
C130 C 0.78904 0.06315 0.12359 0.0
C131 C 0.84763 0.08309 0.12117 0.0
C132 C 0.76206 0.08808 0.15953 0.0
C133 C 0.79333 0.13279 0.19382 0.0
C134 C 0.85189 0.14876 0.19445 0.0
C135 C 0.87883 0.12455 0.15817 0.0
C136 C 0.76545 0.16695 0.22548 0.0
C137 C 0.77377 0.16951 0.27874 0.0
C138 C 0.73155 0.1979 0.20302 0.0
C139 C 0.72477 0.20055 0.14677 0.0
C140 C 0.77183 0.22154 0.11667 0.0
C141 C 0.76532 0.2227 0.06359 0.0
C142 C 0.71189 0.20363 0.04018 0.0
C143 C 0.66485 0.18356 0.06983 0.0
C144 C 0.67115 0.18209 0.12294 0.0
C145 C 0.69428 0.34736 0.38035 0.0
C146 C 0.63562 0.33275 0.38081 0.0
C147 C 0.71972 0.31466 0.35001 0.0
C148 C 0.687 0.26721 0.31916 0.0
C149 C 0.62856 0.25353 0.31852 0.0
C150 C 0.6031 0.28561 0.34932 0.0
C151 C 0.71362 0.23148 0.28783 0.0
C152 C 0.70544 0.22907 0.23453 0.0
C153 C 0.74789 0.20097 0.31019 0.0
C154 C 0.75523 0.19897 0.3663 0.0
C155 C 0.70856 0.17652 0.39645 0.0
C156 C 0.71559 0.17402 0.44931 0.0
C157 C 0.76911 0.19393 0.47252 0.0
C158 C 0.81577 0.21605 0.44278 0.0
C159 C 0.80899 0.21837 0.38981 0.0
H160 H 0.77442 0.19203 0.5135 0.0
H161 H 0.70693 0.20456 -0.00092 0.0
H162 H 0.86449 0.94356 0.12267 0.0
H163 H 0.7827 0.89176 0.17024 0.0
H164 H 0.76797 0.73344 0.08194 0.0
H165 H 0.85044 0.78467 0.03509 0.0
H166 H 0.67324 0.82311 0.15743 0.0
H167 H 0.75723 0.6266 0.16521 0.0
H168 H 0.84518 0.60314 0.15254 0.0
H169 H 0.9403 0.77949 0.19681 0.0
H170 H 0.85297 0.80365 0.21041 0.0
H171 H 0.51863 0.58288 0.3223 0.0
H172 H 0.55549 0.64813 0.25167 0.0
H173 H 0.70697 0.7294 0.34206 0.0
H174 H 0.67151 0.66354 0.41095 0.0
H175 H 0.72222 0.67058 0.2552 0.0
H176 H 0.62991 0.8115 0.30813 0.0
H177 H 0.55535 0.85619 0.324 0.0
H178 H 0.48837 0.80749 0.17107 0.0
H179 H 0.56209 0.76238 0.15453 0.0
C180 C 0.84286 0.89813 0.11258 0.0
C181 C 0.86426 0.86752 0.07632 0.0
C182 C 0.79602 0.86872 0.13949 0.0
C183 C 0.77017 0.80866 0.13006 0.0
C184 C 0.78805 0.77964 0.09013 0.0
C185 C 0.83529 0.80874 0.0638 0.0
C186 C 0.73186 0.77482 0.16754 0.0
C187 C 0.68326 0.78913 0.17853 0.0
C188 C 0.74586 0.73136 0.19535 0.0
C189 C 0.79862 0.71704 0.18812 0.0
C190 C 0.79695 0.66025 0.17233 0.0
C191 C 0.84667 0.64685 0.16501 0.0
C192 C 0.89828 0.68986 0.17366 0.0
C193 C 0.9003 0.74628 0.18993 0.0
C194 C 0.85073 0.75984 0.19743 0.0
C195 C 0.55919 0.61574 0.3271 0.0
C196 C 0.59327 0.61755 0.37087 0.0
C197 C 0.57991 0.65313 0.28715 0.0
C198 C 0.63414 0.69292 0.29166 0.0
C199 C 0.66522 0.6986 0.33781 0.0
C200 C 0.64522 0.66078 0.37688 0.0
C201 C 0.66382 0.71972 0.24642 0.0
C202 C 0.71097 0.70347 0.2335 0.0
C203 C 0.64908 0.76231 0.21807 0.0
C204 C 0.60103 0.78292 0.23032 0.0
C205 C 0.59854 0.80926 0.2783 0.0
C206 C 0.55674 0.83524 0.28723 0.0
C207 C 0.5173 0.83507 0.24847 0.0
C208 C 0.51893 0.80794 0.20106 0.0
C209 C 0.56064 0.78209 0.1919 0.0
H210 H 0.48541 0.85588 0.25521 0.0
H211 H 0.93671 0.67942 0.16789 0.0
H212 H 0.26275 0.96207 0.1087 0.0
H213 H 0.32102 0.92413 0.16671 0.0
H214 H 0.17744 0.77745 0.19722 0.0
H215 H 0.11943 0.81503 0.14118 0.0
H216 H 0.2349 0.81646 0.28286 0.0
H217 H 0.27884 0.76115 0.11138 0.0
H218 H 0.31044 0.78371 0.02375 0.0
H219 H 0.46471 0.90416 0.08379 0.0
H220 H 0.43354 0.88276 0.17171 0.0
H221 H 0.33909 0.58948 0.36027 0.0
H222 H 0.30092 0.64554 0.30075 0.0
H223 H 0.44654 0.79497 0.32876 0.0
H224 H 0.48651 0.73914 0.38662 0.0
H225 H 0.39768 0.76501 0.2168 0.0
H226 H 0.35659 0.80683 0.39069 0.0
H227 H 0.32287 0.7781 0.47654 0.0
H228 H 0.16096 0.68252 0.41139 0.0
H229 H 0.1941 0.7098 0.325 0.0
C230 C 0.24365 0.92201 0.12811 0.0
C231 C 0.18642 0.89156 0.11985 0.0
C232 C 0.27701 0.9002 0.16105 0.0
C233 C 0.25368 0.84756 0.18601 0.0
C234 C 0.19646 0.81814 0.17861 0.0
C235 C 0.16333 0.83975 0.1461 0.0
C236 C 0.28815 0.82129 0.21888 0.0
C237 C 0.27067 0.80554 0.2684 0.0
C238 C 0.33524 0.80753 0.20051 0.0
C239 C 0.35399 0.82034 0.14789 0.0
C240 C 0.31944 0.79252 0.10577 0.0
C241 C 0.33722 0.80513 0.05611 0.0
C242 C 0.38957 0.84532 0.0482 0.0
C243 C 0.4242 0.87301 0.08995 0.0
C244 C 0.40653 0.86063 0.13968 0.0
C245 C 0.364 0.63368 0.35254 0.0
C246 C 0.41584 0.6598 0.37852 0.0
C247 C 0.34199 0.66566 0.31861 0.0
C248 C 0.37135 0.7242 0.31004 0.0
C249 C 0.42428 0.74937 0.33361 0.0
C250 C 0.44667 0.71738 0.36717 0.0
C251 C 0.34439 0.7605 0.2804 0.0
C252 C 0.36301 0.77759 0.23161 0.0
C253 C 0.29832 0.77557 0.29942 0.0
C254 C 0.27801 0.75986 0.35136 0.0
C255 C 0.31396 0.77924 0.39463 0.0
C256 C 0.29493 0.7633 0.44339 0.0
C257 C 0.23984 0.72839 0.44941 0.0
C258 C 0.20364 0.70949 0.40667 0.0
C259 C 0.22252 0.72521 0.3578 0.0
H260 H 0.22519 0.71609 0.48719 0.0
H261 H 0.40328 0.85501 0.00973 0.0
H262 H 0.17699 0.9497 0.85757 0.0
H263 H 0.2157 0.90654 0.7885 0.0
H264 H 0.0949 0.73874 0.8115 0.0
H265 H 0.05623 0.78134 0.8817 0.0
H266 H 0.20728 0.74133 0.82163 0.0
H267 H 0.0954 0.7739 0.66374 0.0
H268 H 0.04923 0.83578 0.61734 0.0
H269 H 0.19233 0.98609 0.65012 0.0
H270 H 0.23978 0.92455 0.69544 0.0
H271 H 0.29378 0.58691 0.62262 0.0
H272 H 0.23709 0.6312 0.67428 0.0
H273 H 0.35711 0.80119 0.65834 0.0
H274 H 0.41471 0.75711 0.60669 0.0
H275 H 0.24091 0.79564 0.64121 0.0
H276 H 0.36093 0.74266 0.76464 0.0
H277 H 0.40518 0.67629 0.80626 0.0
H278 H 0.24352 0.56252 0.84276 0.0
H279 H 0.19823 0.62784 0.80064 0.0
C280 C 0.15775 0.90383 0.84738 0.0
C281 C 0.11419 0.86869 0.87586 0.0
C282 C 0.17954 0.8794 0.80729 0.0
C283 C 0.15784 0.8196 0.79453 0.0
C284 C 0.11201 0.78511 0.82066 0.0
C285 C 0.0901 0.80951 0.86086 0.0
C286 C 0.18908 0.79185 0.76054 0.0
C287 C 0.21383 0.7524 0.78192 0.0
C288 C 0.19895 0.80754 0.70931 0.0
C289 C 0.17053 0.84505 0.68358 0.0
C290 C 0.11685 0.82018 0.66103 0.0
C291 C 0.09069 0.85505 0.63459 0.0
C292 C 0.11772 0.91489 0.631 0.0
C293 C 0.17131 0.93981 0.65319 0.0
C294 C 0.19795 0.90493 0.67901 0.0
C295 C 0.30822 0.63375 0.63002 0.0
C296 C 0.35885 0.66855 0.61076 0.0
C297 C 0.27578 0.65889 0.65957 0.0
C298 C 0.29311 0.71929 0.67008 0.0
C299 C 0.34318 0.75443 0.65046 0.0
C300 C 0.37614 0.72917 0.62136 0.0
C301 C 0.25917 0.74531 0.70245 0.0
C302 C 0.23408 0.78433 0.68084 0.0
C303 C 0.24905 0.72918 0.75363 0.0
C304 C 0.27617 0.6898 0.77896 0.0
C305 C 0.33478 0.7032 0.78108 0.0
C306 C 0.36006 0.66583 0.80487 0.0
C307 C 0.32717 0.61512 0.827 0.0
C308 C 0.26894 0.60176 0.82551 0.0
C309 C 0.24344 0.63896 0.80172 0.0
H310 H 0.34683 0.58627 0.84543 0.0
H311 H 0.09719 0.94191 0.61094 0.0
H312 H 0.17284 0.05755 0.91858 0.0
H313 H 0.25311 0.0944 0.86392 0.0
H314 H 0.19239 0.23691 0.82198 0.0
H315 H 0.11285 0.20127 0.87654 0.0
H316 H 0.22854 0.14276 0.7399 0.0
H317 H 0.28006 0.3004 0.88509 0.0
H318 H 0.29973 0.32118 0.97768 0.0
H319 H 0.41606 0.22222 0.97647 0.0
H320 H 0.39645 0.20044 0.88395 0.0
H321 H 0.32186 0.3995 0.62989 0.0
H322 H 0.29017 0.32424 0.69146 0.0
H323 H 0.45497 0.30437 0.7032 0.0
H324 H 0.48804 0.38171 0.64124 0.0
H325 H 0.39498 0.30553 0.80097 0.0
H326 H 0.37258 0.2006 0.64325 0.0
H327 H 0.35162 0.18424 0.55066 0.0
H328 H 0.18068 0.17555 0.57344 0.0
H329 H 0.20075 0.193 0.66605 0.0
C330 C 0.17664 0.09676 0.89778 0.0
C331 C 0.13644 0.12652 0.90193 0.0
C332 C 0.22251 0.11767 0.86673 0.0
C333 C 0.22834 0.16825 0.8393 0.0
C334 C 0.18839 0.19783 0.84322 0.0
C335 C 0.14308 0.17746 0.87449 0.0
C336 C 0.27518 0.19113 0.80536 0.0
C337 C 0.26578 0.17734 0.75301 0.0
C338 C 0.32431 0.23475 0.82294 0.0
C339 C 0.33665 0.24862 0.87801 0.0
C340 C 0.30967 0.28299 0.90473 0.0
C341 C 0.32078 0.29492 0.95711 0.0
C342 C 0.35907 0.27296 0.98296 0.0
C343 C 0.38637 0.23912 0.95643 0.0
C344 C 0.37526 0.22696 0.90407 0.0
C345 C 0.35189 0.37982 0.64559 0.0
C346 C 0.40739 0.39595 0.62976 0.0
C347 C 0.33351 0.33652 0.68073 0.0
C348 C 0.36994 0.30803 0.70088 0.0
C349 C 0.42616 0.32553 0.68741 0.0
C350 C 0.4448 0.36931 0.65184 0.0
C351 C 0.3468 0.25932 0.73504 0.0
C352 C 0.36 0.26852 0.78751 0.0
C353 C 0.30143 0.21079 0.71737 0.0
C354 C 0.28824 0.19799 0.6618 0.0
C355 C 0.33051 0.19529 0.62856 0.0
C356 C 0.3188 0.18591 0.57602 0.0
C357 C 0.26485 0.17883 0.55618 0.0
C358 C 0.22243 0.1809 0.58888 0.0
C359 C 0.23394 0.1904 0.64146 0.0
H360 H 0.25592 0.17179 0.51547 0.0
H361 H 0.36762 0.28223 0.02351 0.0
H362 H 0.91673 0.24284 0.89104 0.0
H363 H 0.86387 0.29319 0.83902 0.0
H364 H 0.71721 0.14226 0.84238 0.0
H365 H 0.76899 0.09197 0.89299 0.0
H366 H 0.73606 0.17749 0.74774 0.0
H367 H 0.72933 0.2676 0.9135 0.0
H368 H 0.76925 0.32386 0.99296 0.0
H369 H 0.85549 0.4711 0.9059 0.0
H370 H 0.81648 0.41561 0.82586 0.0
H371 H 0.53565 0.28716 0.63101 0.0
H372 H 0.58158 0.25006 0.70023 0.0
H373 H 0.72654 0.40247 0.6948 0.0
H374 H 0.68067 0.44076 0.62763 0.0
H375 H 0.70912 0.36867 0.79157 0.0
H376 H 0.7202 0.28026 0.62718 0.0
H377 H 0.68066 0.22723 0.54645 0.0
H378 H 0.59031 0.07803 0.62949 0.0
H379 H 0.62823 0.13094 0.71095 0.0
C380 C 0.87319 0.22063 0.88079 0.0
C381 C 0.84744 0.16311 0.89571 0.0
C382 C 0.84297 0.24948 0.8513 0.0
C383 C 0.78654 0.22138 0.83684 0.0
C384 C 0.76074 0.16463 0.85272 0.0
C385 C 0.79068 0.1359 0.8817 0.0
C386 C 0.75425 0.24914 0.80323 0.0
C387 C 0.72962 0.21897 0.75774 0.0
C388 C 0.74698 0.30392 0.81555 0.0
C389 C 0.77052 0.33719 0.86367 0.0
C390 C 0.75722 0.31178 0.91128 0.0
C391 C 0.77959 0.34356 0.95643 0.0
C392 C 0.81509 0.40087 0.95447 0.0
C393 C 0.8281 0.42664 0.90736 0.0
C394 C 0.80582 0.39509 0.86209 0.0
C395 C 0.57678 0.31331 0.64533 0.0
C396 C 0.60485 0.36629 0.62298 0.0
C397 C 0.60305 0.29202 0.68478 0.0
C398 C 0.65794 0.32306 0.70197 0.0
C399 C 0.68434 0.37768 0.68206 0.0
C400 C 0.65801 0.39926 0.64326 0.0
C401 C 0.69026 0.29649 0.73668 0.0
C402 C 0.71527 0.32702 0.78193 0.0
C403 C 0.69835 0.24217 0.72408 0.0
C404 C 0.67656 0.20978 0.67515 0.0
C405 C 0.69163 0.23628 0.62824 0.0
C406 C 0.6695 0.20622 0.58234 0.0
C407 C 0.63295 0.14924 0.5828 0.0
C408 C 0.61856 0.12219 0.6292 0.0
C409 C 0.64029 0.15223 0.67526 0.0
H410 H 0.61577 0.12602 0.54724 0.0
H411 H 0.83236 0.42539 0.98947 0.0
H412 H 0.97923 0.84287 0.88937 0.0
H413 H 0.95481 0.76025 0.82845 0.0
H414 H 0.78558 0.76787 0.81752 0.0
H415 H 0.80839 0.84641 0.88252 0.0
H416 H 0.79437 0.65312 0.80713 0.0
H417 H 0.86808 0.84911 0.7042 0.0
H418 H 0.94238 0.9444 0.70815 0.0
H419 H 0.06451 0.85935 0.74733 0.0
H420 H 0.99147 0.76328 0.74072 0.0
H421 H 0.68197 0.71718 0.56865 0.0
H422 H 0.76471 0.74301 0.62511 0.0
H423 H 0.75944 0.56205 0.62724 0.0
H424 H 0.67567 0.53564 0.57124 0.0
H425 H 0.86764 0.73563 0.64223 0.0
H426 H 0.77091 0.53495 0.76109 0.0
H427 H 0.68234 0.45553 0.76941 0.0
H428 H 0.5903 0.56331 0.70688 0.0
H429 H 0.67791 0.64437 0.70072 0.0
C430 C 0.93648 0.82559 0.87572 0.0
C431 C 0.89609 0.85149 0.89106 0.0
C432 C 0.92272 0.77885 0.84015 0.0
C433 C 0.86887 0.75912 0.81749 0.0
C434 C 0.82753 0.78256 0.83463 0.0
C435 C 0.84085 0.82798 0.87143 0.0
C436 C 0.85668 0.72106 0.77086 0.0
C437 C 0.81183 0.66939 0.771 0.0
C438 C 0.87933 0.743 0.72398 0.0
C439 C 0.92444 0.79933 0.72218 0.0
C440 C 0.91103 0.85077 0.71265 0.0
C441 C 0.95291 0.90481 0.71524 0.0
C442 C 0.00819 0.90785 0.72783 0.0
C443 C 0.02178 0.85679 0.73717 0.0
C444 C 0.98033 0.80251 0.73336 0.0
C445 C 0.6992 0.68295 0.5798 0.0
C446 C 0.67094 0.62403 0.567 0.0
C447 C 0.74703 0.69789 0.61175 0.0
C448 C 0.76736 0.65421 0.63139 0.0
C449 C 0.74387 0.59629 0.61305 0.0
C450 C 0.69575 0.58126 0.58114 0.0
C451 C 0.80378 0.6684 0.67824 0.0
C452 C 0.85287 0.71608 0.67811 0.0
C453 C 0.78424 0.64331 0.72531 0.0
C454 C 0.73114 0.59507 0.72905 0.0
C455 C 0.73176 0.54163 0.74908 0.0
C456 C 0.68171 0.49645 0.75367 0.0
C457 C 0.63083 0.50399 0.7379 0.0
C458 C 0.62977 0.55727 0.7186 0.0
C459 C 0.67958 0.60298 0.71484 0.0
H460 H 0.59223 0.46869 0.741 0.0
H461 H 0.04048 0.94975 0.73042 0.0
loop_
_geom_bond_atom_site_label_1
_geom_bond_atom_site_label_2
_geom_bond_distance
_geom_bond_site_symmetry_2
_ccdc_geom_bond_type
C0 O27 1.312 . S
C0 O28 1.208 . S
C1 O22 1.331 . S
C1 O25 1.244 . S
C2 O24 1.264 . S
C2 O26 1.273 . S
Mg3 O5 1.936 1_554 S
Mg3 O12 2.081 1_554 S
Mg3 O14 2.023 . S
Mg3 O18 2.031 1_654 S
Mg3 O27 2.291 1_655 S
Mg4 O5 1.963 . S
Mg4 O15 1.942 . S
Mg4 O16 1.955 1_556 S
Mg4 O23 1.986 1_545 S
O5 Mg3 1.936 1_556 S
O5 Mg4 1.963 . S
O5 Mg6 1.915 1_546 S
Mg6 O5 1.915 1_564 S
Mg6 O7 1.915 1_655 S
Mg6 O11 2.013 . S
Mg6 O17 2.114 1_664 S
Mg6 O21 2.013 1_554 S
Mg6 O27 2.114 1_665 S
O7 Mg6 1.915 1_455 S
O7 Mg8 1.936 . S
O7 Mg9 1.963 . S
Mg8 O7 1.936 . S
Mg8 O17 2.291 1_564 S
Mg8 O22 2.081 . S
Mg8 O24 2.023 1_554 S
Mg8 O28 2.031 1_565 S
Mg9 O7 1.963 . S
Mg9 O13 1.986 1_455 S
Mg9 O25 1.942 . S
Mg9 O26 1.955 1_554 S
C10 O21 1.191 . S
C10 O23 1.307 . S
O11 Mg6 2.013 . S
O11 C30 1.191 . S
O12 Mg3 2.081 1_556 S
O12 C20 1.331 . S
O13 Mg9 1.986 1_655 S
O13 C30 1.307 . S
O14 Mg3 2.023 . S
O14 C29 1.264 . S
O15 Mg4 1.942 . S
O15 C20 1.244 . S
O16 Mg4 1.955 1_554 S
O16 C29 1.273 . S
O17 Mg6 2.114 1_446 S
O17 Mg8 2.291 1_546 S
O17 C19 1.312 . S
O18 Mg3 2.031 1_456 S
O18 C19 1.208 . S
C19 O17 1.312 . S
C19 O18 1.208 . S
C20 O12 1.331 . S
C20 O15 1.244 . S
O21 Mg6 2.013 1_556 S
O21 C10 1.191 . S
O22 C1 1.331 . S
O22 Mg8 2.081 . S
O23 Mg4 1.986 1_565 S
O23 C10 1.307 . S
O24 C2 1.264 . S
O24 Mg8 2.023 1_556 S
O25 C1 1.244 . S
O25 Mg9 1.942 . S
O26 C2 1.273 . S
O26 Mg9 1.955 1_556 S
O27 C0 1.312 . S
O27 Mg3 2.291 1_455 S
O27 Mg6 2.114 1_445 S
O28 C0 1.208 . S
O28 Mg8 2.031 1_545 S
C29 O14 1.264 . S
C29 O16 1.273 . S
C30 O11 1.191 . S
C30 O13 1.307 . S
C31 O43 1.241 . S
C31 O44 1.280 . S
C32 O45 1.277 . S
C32 O46 1.245 . S
C33 O57 1.247 . S
C33 O59 1.289 . S
Mg34 O35 1.926 . S
Mg34 O44 1.984 . S
Mg34 O46 1.988 . S
Mg34 O47 2.061 . S
O35 Mg34 1.926 . S
O35 Mg36 1.986 . S
O35 Mg37 1.917 . S
Mg36 O35 1.986 . S
Mg36 O43 2.042 . S
Mg36 O45 2.041 . S
Mg36 O51 2.038 . S
Mg36 O59 2.238 . S
Mg37 O35 1.917 . S
Mg37 O38 1.917 . S
Mg37 O48 2.106 . S
Mg37 O50 2.079 . S
Mg37 O59 2.106 . S
Mg37 O60 2.079 . S
O38 Mg37 1.917 . S
O38 Mg39 1.926 . S
O38 Mg40 1.986 . S
Mg39 O38 1.926 . S
Mg39 O53 1.984 . S
Mg39 O56 1.988 . S
Mg39 O57 2.061 . S
Mg40 O38 1.986 . S
Mg40 O48 2.238 . S
Mg40 O52 2.042 . S
Mg40 O54 2.041 . S
Mg40 O61 2.038 . S
C41 O47 1.247 . S
C41 O48 1.289 . S
C42 O60 1.245 . S
C42 O61 1.274 . S
O43 C31 1.241 . S
O43 Mg36 2.042 . S
O44 C31 1.280 . S
O44 Mg34 1.984 . S
O45 C32 1.277 . S
O45 Mg36 2.041 . S
O46 C32 1.245 . S
O46 Mg34 1.988 . S
O47 Mg34 2.061 . S
O47 C41 1.247 . S
O48 Mg37 2.106 . S
O48 Mg40 2.238 . S
O48 C41 1.289 . S
C49 O50 1.245 . S
C49 O51 1.274 . S
O50 Mg37 2.079 . S
O50 C49 1.245 . S
O51 Mg36 2.038 . S
O51 C49 1.274 . S
O52 Mg40 2.042 . S
O52 C55 1.241 . S
O53 Mg39 1.984 . S
O53 C55 1.280 . S
O54 Mg40 2.041 . S
O54 C58 1.277 . S
C55 O52 1.241 . S
C55 O53 1.280 . S
O56 Mg39 1.988 . S
O56 C58 1.245 . S
O57 C33 1.247 . S
O57 Mg39 2.061 . S
C58 O54 1.277 . S
C58 O56 1.245 . S
O59 C33 1.289 . S
O59 Mg36 2.238 . S
O59 Mg37 2.106 . S
O60 Mg37 2.079 . S
O60 C42 1.245 . S
O61 Mg40 2.038 . S
O61 C42 1.274 . S
H62 C80 0.951 . S
H63 C82 0.951 . S
H64 C84 0.950 . S
H65 C85 0.950 . S
H66 C87 0.950 . S
H67 C90 0.950 . S
H68 C91 0.950 . S
H69 C93 0.950 . S
H70 C94 0.950 . S
H71 C95 0.951 . S
H72 C97 0.951 . S
H73 C99 0.950 . S
H74 C100 0.950 . S
H75 C102 0.950 . S
H76 C105 0.950 . S
H77 C106 0.950 . S
H78 C108 0.950 . S
H79 C109 0.950 . S
C80 H62 0.951 . S
C80 C81 1.366 . S
C80 C82 1.388 . S
C81 C80 1.366 . S
C81 C85 1.385 . S
C82 H63 0.951 . S
C82 C80 1.388 . S
C82 C83 1.366 . S
C83 C82 1.366 . S
C83 C84 1.414 . S
C83 C86 1.499 . S
C84 H64 0.950 . S
C84 C83 1.414 . S
C84 C85 1.374 . S
C85 H65 0.950 . S
C85 C81 1.385 . S
C85 C84 1.374 . S
C86 C83 1.499 . S
C86 C87 1.373 . S
C86 C88 1.389 . S
C87 H66 0.950 . S
C87 C86 1.373 . S
C87 C103 1.377 . S
C88 C86 1.389 . S
C88 C89 1.524 . S
C88 C102 1.377 . S
C89 C88 1.524 . S
C89 C90 1.397 . S
C89 C94 1.363 . S
C90 H67 0.950 . S
C90 C89 1.397 . S
C90 C91 1.334 . S
C91 H68 0.950 . S
C91 C90 1.334 . S
C91 C92 1.287 . S
C92 C91 1.287 . S
C92 C93 1.524 . S
C92 H111 0.913 1_455 S
C93 H69 0.950 . S
C93 C92 1.524 . S
C93 C94 1.415 . S
C94 H70 0.950 . S
C94 C89 1.363 . S
C94 C93 1.415 . S
C95 H71 0.951 . S
C95 C96 1.366 . S
C95 C97 1.388 . S
C96 C95 1.366 . S
C96 C100 1.385 . S
C97 H72 0.951 . S
C97 C95 1.388 . S
C97 C98 1.366 . S
C98 C97 1.366 . S
C98 C99 1.414 . S
C98 C101 1.499 . S
C99 H73 0.950 . S
C99 C98 1.414 . S
C99 C100 1.374 . S
C100 H74 0.950 . S
C100 C96 1.385 . S
C100 C99 1.374 . S
C101 C98 1.499 . S
C101 C102 1.373 . S
C101 C103 1.389 . S
C102 H75 0.950 . S
C102 C88 1.377 . S
C102 C101 1.373 . S
C103 C87 1.377 . S
C103 C101 1.389 . S
C103 C104 1.524 . S
C104 C103 1.524 . S
C104 C105 1.397 . S
C104 C109 1.363 . S
C105 H76 0.950 . S
C105 C104 1.397 . S
C105 C106 1.334 . S
C106 H77 0.950 . S
C106 C105 1.334 . S
C106 C107 1.287 . S
C107 C106 1.287 . S
C107 C108 1.524 . S
C107 H110 0.999 . S
C108 H78 0.950 . S
C108 C107 1.524 . S
C108 C109 1.415 . S
C109 H79 0.950 . S
C109 C104 1.363 . S
C109 C108 1.415 . S
H110 C107 0.999 . S
H111 C92 0.913 1_655 S
H112 C130 0.951 . S
H113 C132 0.951 . S
H114 C134 0.950 . S
H115 C135 0.950 . S
H116 C137 0.950 . S
H117 C140 0.950 . S
H118 C141 0.950 . S
H119 C143 0.950 . S
H120 C144 0.950 . S
H121 C145 0.951 . S
H122 C147 0.951 . S
H123 C149 0.950 . S
H124 C150 0.950 . S
H125 C152 0.950 . S
H126 C155 0.950 . S
H127 C156 0.950 . S
H128 C158 0.950 . S
H129 C159 0.950 . S
C130 H112 0.951 . S
C130 C131 1.366 . S
C130 C132 1.388 . S
C131 C130 1.366 . S
C131 C135 1.385 . S
C132 H113 0.951 . S
C132 C130 1.388 . S
C132 C133 1.366 . S
C133 C132 1.366 . S
C133 C134 1.414 . S
C133 C136 1.499 . S
C134 H114 0.950 . S
C134 C133 1.414 . S
C134 C135 1.374 . S
C135 H115 0.950 . S
C135 C131 1.385 . S
C135 C134 1.374 . S
C136 C133 1.499 . S
C136 C137 1.373 . S
C136 C138 1.389 . S
C137 H116 0.950 . S
C137 C136 1.373 . S
C137 C153 1.377 . S
C138 C136 1.389 . S
C138 C139 1.524 . S
C138 C152 1.377 . S
C139 C138 1.524 . S
C139 C140 1.397 . S
C139 C144 1.363 . S
C140 H117 0.950 . S
C140 C139 1.397 . S
C140 C141 1.334 . S
C141 H118 0.950 . S
C141 C140 1.334 . S
C141 C142 1.287 . S
C142 C141 1.287 . S
C142 C143 1.524 . S
C142 H161 0.913 . S
C143 H119 0.950 . S
C143 C142 1.524 . S
C143 C144 1.415 . S
C144 H120 0.950 . S
C144 C139 1.363 . S
C144 C143 1.415 . S
C145 H121 0.951 . S
C145 C146 1.366 . S
C145 C147 1.388 . S
C146 C145 1.366 . S
C146 C150 1.385 . S
C147 H122 0.951 . S
C147 C145 1.388 . S
C147 C148 1.366 . S
C148 C147 1.366 . S
C148 C149 1.414 . S
C148 C151 1.499 . S
C149 H123 0.950 . S
C149 C148 1.414 . S
C149 C150 1.374 . S
C150 H124 0.950 . S
C150 C146 1.385 . S
C150 C149 1.374 . S
C151 C148 1.499 . S
C151 C152 1.373 . S
C151 C153 1.389 . S
C152 H125 0.950 . S
C152 C138 1.377 . S
C152 C151 1.373 . S
C153 C137 1.377 . S
C153 C151 1.389 . S
C153 C154 1.524 . S
C154 C153 1.524 . S
C154 C155 1.397 . S
C154 C159 1.363 . S
C155 H126 0.950 . S
C155 C154 1.397 . S
C155 C156 1.334 . S
C156 H127 0.950 . S
C156 C155 1.334 . S
C156 C157 1.287 . S
C157 C156 1.287 . S
C157 C158 1.524 . S
C157 H160 0.999 . S
C158 H128 0.950 . S
C158 C157 1.524 . S
C158 C159 1.415 . S
C159 H129 0.950 . S
C159 C154 1.363 . S
C159 C158 1.415 . S
H160 C157 0.999 . S
H161 C142 0.913 . S
H162 C180 0.951 . S
H163 C182 0.951 . S
H164 C184 0.950 . S
H165 C185 0.950 . S
H166 C187 0.950 . S
H167 C190 0.950 . S
H168 C191 0.950 . S
H169 C193 0.950 . S
H170 C194 0.950 . S
H171 C195 0.951 . S
H172 C197 0.951 . S
H173 C199 0.950 . S
H174 C200 0.950 . S
H175 C202 0.950 . S
H176 C205 0.950 . S
H177 C206 0.950 . S
H178 C208 0.950 . S
H179 C209 0.950 . S
C180 H162 0.951 . S
C180 C181 1.366 . S
C180 C182 1.388 . S
C181 C180 1.366 . S
C181 C185 1.385 . S
C182 H163 0.951 . S
C182 C180 1.388 . S
C182 C183 1.366 . S
C183 C182 1.366 . S
C183 C184 1.414 . S
C183 C186 1.499 . S
C184 H164 0.950 . S
C184 C183 1.414 . S
C184 C185 1.374 . S
C185 H165 0.950 . S
C185 C181 1.385 . S
C185 C184 1.374 . S
C186 C183 1.499 . S
C186 C187 1.373 . S
C186 C188 1.389 . S
C187 H166 0.950 . S
C187 C186 1.373 . S
C187 C203 1.377 . S
C188 C186 1.389 . S
C188 C189 1.524 . S
C188 C202 1.377 . S
C189 C188 1.524 . S
C189 C190 1.397 . S
C189 C194 1.363 . S
C190 H167 0.950 . S
C190 C189 1.397 . S
C190 C191 1.334 . S
C191 H168 0.950 . S
C191 C190 1.334 . S
C191 C192 1.287 . S
C192 C191 1.287 . S
C192 C193 1.524 . S
C192 H211 0.913 . S
C193 H169 0.950 . S
C193 C192 1.524 . S
C193 C194 1.415 . S
C194 H170 0.950 . S
C194 C189 1.363 . S
C194 C193 1.415 . S
C195 H171 0.951 . S
C195 C196 1.366 . S
C195 C197 1.388 . S
C196 C195 1.366 . S
C196 C200 1.385 . S
C197 H172 0.951 . S
C197 C195 1.388 . S
C197 C198 1.366 . S
C198 C197 1.366 . S
C198 C199 1.414 . S
C198 C201 1.499 . S
C199 H173 0.950 . S
C199 C198 1.414 . S
C199 C200 1.374 . S
C200 H174 0.950 . S
C200 C196 1.385 . S
C200 C199 1.374 . S
C201 C198 1.499 . S
C201 C202 1.373 . S
C201 C203 1.389 . S
C202 H175 0.950 . S
C202 C188 1.377 . S
C202 C201 1.373 . S
C203 C187 1.377 . S
C203 C201 1.389 . S
C203 C204 1.524 . S
C204 C203 1.524 . S
C204 C205 1.397 . S
C204 C209 1.363 . S
C205 H176 0.950 . S
C205 C204 1.397 . S
C205 C206 1.334 . S
C206 H177 0.950 . S
C206 C205 1.334 . S
C206 C207 1.287 . S
C207 C206 1.287 . S
C207 C208 1.524 . S
C207 H210 0.999 . S
C208 H178 0.950 . S
C208 C207 1.524 . S
C208 C209 1.415 . S
C209 H179 0.950 . S
C209 C204 1.363 . S
C209 C208 1.415 . S
H210 C207 0.999 . S
H211 C192 0.913 . S
H212 C230 0.951 . S
H213 C232 0.951 . S
H214 C234 0.950 . S
H215 C235 0.950 . S
H216 C237 0.950 . S
H217 C240 0.950 . S
H218 C241 0.950 . S
H219 C243 0.950 . S
H220 C244 0.950 . S
H221 C245 0.951 . S
H222 C247 0.951 . S
H223 C249 0.950 . S
H224 C250 0.950 . S
H225 C252 0.950 . S
H226 C255 0.950 . S
H227 C256 0.950 . S
H228 C258 0.950 . S
H229 C259 0.950 . S
C230 H212 0.951 . S
C230 C231 1.366 . S
C230 C232 1.388 . S
C231 C230 1.366 . S
C231 C235 1.385 . S
C232 H213 0.951 . S
C232 C230 1.388 . S
C232 C233 1.366 . S
C233 C232 1.366 . S
C233 C234 1.414 . S
C233 C236 1.499 . S
C234 H214 0.950 . S
C234 C233 1.414 . S
C234 C235 1.374 . S
C235 H215 0.950 . S
C235 C231 1.385 . S
C235 C234 1.374 . S
C236 C233 1.499 . S
C236 C237 1.373 . S
C236 C238 1.389 . S
C237 H216 0.950 . S
C237 C236 1.373 . S
C237 C253 1.377 . S
C238 C236 1.389 . S
C238 C239 1.524 . S
C238 C252 1.377 . S
C239 C238 1.524 . S
C239 C240 1.397 . S
C239 C244 1.363 . S
C240 H217 0.950 . S
C240 C239 1.397 . S
C240 C241 1.334 . S
C241 H218 0.950 . S
C241 C240 1.334 . S
C241 C242 1.287 . S
C242 C241 1.287 . S
C242 C243 1.524 . S
C242 H261 0.913 . S
C243 H219 0.950 . S
C243 C242 1.524 . S
C243 C244 1.415 . S
C244 H220 0.950 . S
C244 C239 1.363 . S
C244 C243 1.415 . S
C245 H221 0.951 . S
C245 C246 1.366 . S
C245 C247 1.388 . S
C246 C245 1.366 . S
C246 C250 1.385 . S
C247 H222 0.951 . S
C247 C245 1.388 . S
C247 C248 1.366 . S
C248 C247 1.366 . S
C248 C249 1.414 . S
C248 C251 1.499 . S
C249 H223 0.950 . S
C249 C248 1.414 . S
C249 C250 1.374 . S
C250 H224 0.950 . S
C250 C246 1.385 . S
C250 C249 1.374 . S
C251 C248 1.499 . S
C251 C252 1.373 . S
C251 C253 1.389 . S
C252 H225 0.950 . S
C252 C238 1.377 . S
C252 C251 1.373 . S
C253 C237 1.377 . S
C253 C251 1.389 . S
C253 C254 1.524 . S
C254 C253 1.524 . S
C254 C255 1.397 . S
C254 C259 1.363 . S
C255 H226 0.950 . S
C255 C254 1.397 . S
C255 C256 1.334 . S
C256 H227 0.950 . S
C256 C255 1.334 . S
C256 C257 1.287 . S
C257 C256 1.287 . S
C257 C258 1.524 . S
C257 H260 0.999 . S
C258 H228 0.950 . S
C258 C257 1.524 . S
C258 C259 1.415 . S
C259 H229 0.950 . S
C259 C254 1.363 . S
C259 C258 1.415 . S
H260 C257 0.999 . S
H261 C242 0.913 . S
H262 C280 0.951 . S
H263 C282 0.951 . S
H264 C284 0.950 . S
H265 C285 0.950 . S
H266 C287 0.950 . S
H267 C290 0.950 . S
H268 C291 0.950 . S
H269 C293 0.950 . S
H270 C294 0.950 . S
H271 C295 0.951 . S
H272 C297 0.951 . S
H273 C299 0.950 . S
H274 C300 0.950 . S
H275 C302 0.950 . S
H276 C305 0.950 . S
H277 C306 0.950 . S
H278 C308 0.950 . S
H279 C309 0.950 . S
C280 H262 0.951 . S
C280 C281 1.366 . S
C280 C282 1.388 . S
C281 C280 1.366 . S
C281 C285 1.385 . S
C282 H263 0.951 . S
C282 C280 1.388 . S
C282 C283 1.366 . S
C283 C282 1.366 . S
C283 C284 1.414 . S
C283 C286 1.499 . S
C284 H264 0.950 . S
C284 C283 1.414 . S
C284 C285 1.374 . S
C285 H265 0.950 . S
C285 C281 1.385 . S
C285 C284 1.374 . S
C286 C283 1.499 . S
C286 C287 1.373 . S
C286 C288 1.389 . S
C287 H266 0.950 . S
C287 C286 1.373 . S
C287 C303 1.377 . S
C288 C286 1.389 . S
C288 C289 1.524 . S
C288 C302 1.377 . S
C289 C288 1.524 . S
C289 C290 1.397 . S
C289 C294 1.363 . S
C290 H267 0.950 . S
C290 C289 1.397 . S
C290 C291 1.334 . S
C291 H268 0.950 . S
C291 C290 1.334 . S
C291 C292 1.287 . S
C292 C291 1.287 . S
C292 C293 1.524 . S
C292 H311 0.913 . S
C293 H269 0.950 . S
C293 C292 1.524 . S
C293 C294 1.415 . S
C294 H270 0.950 . S
C294 C289 1.363 . S
C294 C293 1.415 . S
C295 H271 0.951 . S
C295 C296 1.366 . S
C295 C297 1.388 . S
C296 C295 1.366 . S
C296 C300 1.385 . S
C297 H272 0.951 . S
C297 C295 1.388 . S
C297 C298 1.366 . S
C298 C297 1.366 . S
C298 C299 1.414 . S
C298 C301 1.499 . S
C299 H273 0.950 . S
C299 C298 1.414 . S
C299 C300 1.374 . S
C300 H274 0.950 . S
C300 C296 1.385 . S
C300 C299 1.374 . S
C301 C298 1.499 . S
C301 C302 1.373 . S
C301 C303 1.389 . S
C302 H275 0.950 . S
C302 C288 1.377 . S
C302 C301 1.373 . S
C303 C287 1.377 . S
C303 C301 1.389 . S
C303 C304 1.524 . S
C304 C303 1.524 . S
C304 C305 1.397 . S
C304 C309 1.363 . S
C305 H276 0.950 . S
C305 C304 1.397 . S
C305 C306 1.334 . S
C306 H277 0.950 . S
C306 C305 1.334 . S
C306 C307 1.287 . S
C307 C306 1.287 . S
C307 C308 1.524 . S
C307 H310 0.999 . S
C308 H278 0.950 . S
C308 C307 1.524 . S
C308 C309 1.415 . S
C309 H279 0.950 . S
C309 C304 1.363 . S
C309 C308 1.415 . S
H310 C307 0.999 . S
H311 C292 0.913 . S
H312 C330 0.951 . S
H313 C332 0.951 . S
H314 C334 0.950 . S
H315 C335 0.950 . S
H316 C337 0.950 . S
H317 C340 0.950 . S
H318 C341 0.950 . S
H319 C343 0.950 . S
H320 C344 0.950 . S
H321 C345 0.951 . S
H322 C347 0.951 . S
H323 C349 0.950 . S
H324 C350 0.950 . S
H325 C352 0.950 . S
H326 C355 0.950 . S
H327 C356 0.950 . S
H328 C358 0.950 . S
H329 C359 0.950 . S
C330 H312 0.951 . S
C330 C331 1.366 . S
C330 C332 1.388 . S
C331 C330 1.366 . S
C331 C335 1.385 . S
C332 H313 0.951 . S
C332 C330 1.388 . S
C332 C333 1.366 . S
C333 C332 1.366 . S
C333 C334 1.414 . S
C333 C336 1.499 . S
C334 H314 0.950 . S
C334 C333 1.414 . S
C334 C335 1.374 . S
C335 H315 0.950 . S
C335 C331 1.385 . S
C335 C334 1.374 . S
C336 C333 1.499 . S
C336 C337 1.373 . S
C336 C338 1.389 . S
C337 H316 0.950 . S
C337 C336 1.373 . S
C337 C353 1.377 . S
C338 C336 1.389 . S
C338 C339 1.524 . S
C338 C352 1.377 . S
C339 C338 1.524 . S
C339 C340 1.397 . S
C339 C344 1.363 . S
C340 H317 0.950 . S
C340 C339 1.397 . S
C340 C341 1.334 . S
C341 H318 0.950 . S
C341 C340 1.334 . S
C341 C342 1.287 . S
C342 C341 1.287 . S
C342 C343 1.524 . S
C342 H361 0.936 . S
C343 H319 0.950 . S
C343 C342 1.524 . S
C343 C344 1.415 . S
C344 H320 0.950 . S
C344 C339 1.363 . S
C344 C343 1.415 . S
C345 H321 0.951 . S
C345 C346 1.366 . S
C345 C347 1.388 . S
C346 C345 1.366 . S
C346 C350 1.385 . S
C347 H322 0.951 . S
C347 C345 1.388 . S
C347 C348 1.366 . S
C348 C347 1.366 . S
C348 C349 1.414 . S
C348 C351 1.499 . S
C349 H323 0.950 . S
C349 C348 1.414 . S
C349 C350 1.374 . S
C350 H324 0.950 . S
C350 C346 1.385 . S
C350 C349 1.374 . S
C351 C348 1.499 . S
C351 C352 1.373 . S
C351 C353 1.389 . S
C352 H325 0.950 . S
C352 C338 1.377 . S
C352 C351 1.373 . S
C353 C337 1.377 . S
C353 C351 1.389 . S
C353 C354 1.524 . S
C354 C353 1.524 . S
C354 C355 1.397 . S
C354 C359 1.363 . S
C355 H326 0.950 . S
C355 C354 1.397 . S
C355 C356 1.334 . S
C356 H327 0.950 . S
C356 C355 1.334 . S
C356 C357 1.287 . S
C357 C356 1.287 . S
C357 C358 1.524 . S
C357 H360 0.999 . S
C358 H328 0.950 . S
C358 C357 1.524 . S
C358 C359 1.415 . S
C359 H329 0.950 . S
C359 C354 1.363 . S
C359 C358 1.415 . S
H360 C357 0.999 . S
H361 C342 0.936 . S
H362 C380 0.951 . S
H363 C382 0.951 . S
H364 C384 0.950 . S
H365 C385 0.950 . S
H366 C387 0.950 . S
H367 C390 0.950 . S
H368 C391 0.950 . S
H369 C393 0.950 . S
H370 C394 0.950 . S
H371 C395 0.951 . S
H372 C397 0.951 . S
H373 C399 0.950 . S
H374 C400 0.950 . S
H375 C402 0.950 . S
H376 C405 0.950 . S
H377 C406 0.950 . S
H378 C408 0.950 . S
H379 C409 0.950 . S
C380 H362 0.951 . S
C380 C381 1.366 . S
C380 C382 1.388 . S
C381 C380 1.366 . S
C381 C385 1.385 . S
C382 H363 0.951 . S
C382 C380 1.388 . S
C382 C383 1.366 . S
C383 C382 1.366 . S
C383 C384 1.414 . S
C383 C386 1.499 . S
C384 H364 0.950 . S
C384 C383 1.414 . S
C384 C385 1.374 . S
C385 H365 0.950 . S
C385 C381 1.385 . S
C385 C384 1.374 . S
C386 C383 1.499 . S
C386 C387 1.373 . S
C386 C388 1.389 . S
C387 H366 0.950 . S
C387 C386 1.373 . S
C387 C403 1.377 . S
C388 C386 1.389 . S
C388 C389 1.524 . S
C388 C402 1.377 . S
C389 C388 1.524 . S
C389 C390 1.397 . S
C389 C394 1.363 . S
C390 H367 0.950 . S
C390 C389 1.397 . S
C390 C391 1.334 . S
C391 H368 0.950 . S
C391 C390 1.334 . S
C391 C392 1.287 . S
C392 C391 1.287 . S
C392 C393 1.524 . S
C392 H411 0.913 . S
C393 H369 0.950 . S
C393 C392 1.524 . S
C393 C394 1.415 . S
C394 H370 0.950 . S
C394 C389 1.363 . S
C394 C393 1.415 . S
C395 H371 0.951 . S
C395 C396 1.366 . S
C395 C397 1.388 . S
C396 C395 1.366 . S
C396 C400 1.385 . S
C397 H372 0.951 . S
C397 C395 1.388 . S
C397 C398 1.366 . S
C398 C397 1.366 . S
C398 C399 1.414 . S
C398 C401 1.499 . S
C399 H373 0.950 . S
C399 C398 1.414 . S
C399 C400 1.374 . S
C400 H374 0.950 . S
C400 C396 1.385 . S
C400 C399 1.374 . S
C401 C398 1.499 . S
C401 C402 1.373 . S
C401 C403 1.389 . S
C402 H375 0.950 . S
C402 C388 1.377 . S
C402 C401 1.373 . S
C403 C387 1.377 . S
C403 C401 1.389 . S
C403 C404 1.524 . S
C404 C403 1.524 . S
C404 C405 1.397 . S
C404 C409 1.363 . S
C405 H376 0.950 . S
C405 C404 1.397 . S
C405 C406 1.334 . S
C406 H377 0.950 . S
C406 C405 1.334 . S
C406 C407 1.287 . S
C407 C406 1.287 . S
C407 C408 1.524 . S
C407 H410 0.999 . S
C408 H378 0.950 . S
C408 C407 1.524 . S
C408 C409 1.415 . S
C409 H379 0.950 . S
C409 C404 1.363 . S
C409 C408 1.415 . S
H410 C407 0.999 . S
H411 C392 0.913 . S
H412 C430 0.951 . S
H413 C432 0.951 . S
H414 C434 0.950 . S
H415 C435 0.950 . S
H416 C437 0.950 . S
H417 C440 0.950 . S
H418 C441 0.950 . S
H419 C443 0.950 . S
H420 C444 0.950 . S
H421 C445 0.951 . S
H422 C447 0.951 . S
H423 C449 0.950 . S
H424 C450 0.950 . S
H425 C452 0.950 . S
H426 C455 0.950 . S
H427 C456 0.950 . S
H428 C458 0.950 . S
H429 C459 0.950 . S
C430 H412 0.951 . S
C430 C431 1.366 . S
C430 C432 1.388 . S
C431 C430 1.366 . S
C431 C435 1.385 . S
C432 H413 0.951 . S
C432 C430 1.388 . S
C432 C433 1.366 . S
C433 C432 1.366 . S
C433 C434 1.414 . S
C433 C436 1.499 . S
C434 H414 0.950 . S
C434 C433 1.414 . S
C434 C435 1.374 . S
C435 H415 0.950 . S
C435 C431 1.385 . S
C435 C434 1.374 . S
C436 C433 1.499 . S
C436 C437 1.373 . S
C436 C438 1.389 . S
C437 H416 0.950 . S
C437 C436 1.373 . S
C437 C453 1.377 . S
C438 C436 1.389 . S
C438 C439 1.524 . S
C438 C452 1.377 . S
C439 C438 1.524 . S
C439 C440 1.397 . S
C439 C444 1.363 . S
C440 H417 0.950 . S
C440 C439 1.397 . S
C440 C441 1.334 . S
C441 H418 0.950 . S
C441 C440 1.334 . S
C441 C442 1.287 . S
C442 C441 1.287 . S
C442 C443 1.524 . S
C442 H461 0.913 1_655 S
C443 H419 0.950 . S
C443 C442 1.524 . S
C443 C444 1.415 . S
C444 H420 0.950 . S
C444 C439 1.363 . S
C444 C443 1.415 . S
C445 H421 0.951 . S
C445 C446 1.366 . S
C445 C447 1.388 . S
C446 C445 1.366 . S
C446 C450 1.385 . S
C447 H422 0.951 . S
C447 C445 1.388 . S
C447 C448 1.366 . S
C448 C447 1.366 . S
C448 C449 1.414 . S
C448 C451 1.499 . S
C449 H423 0.950 . S
C449 C448 1.414 . S
C449 C450 1.374 . S
C450 H424 0.950 . S
C450 C446 1.385 . S
C450 C449 1.374 . S
C451 C448 1.499 . S
C451 C452 1.373 . S
C451 C453 1.389 . S
C452 H425 0.950 . S
C452 C438 1.377 . S
C452 C451 1.373 . S
C453 C437 1.377 . S
C453 C451 1.389 . S
C453 C454 1.524 . S
C454 C453 1.524 . S
C454 C455 1.397 . S
C454 C459 1.363 . S
C455 H426 0.950 . S
C455 C454 1.397 . S
C455 C456 1.334 . S
C456 H427 0.950 . S
C456 C455 1.334 . S
C456 C457 1.287 . S
C457 C456 1.287 . S
C457 C458 1.524 . S
C457 H460 0.999 . S
C458 H428 0.950 . S
C458 C457 1.524 . S
C458 C459 1.415 . S
C459 H429 0.950 . S
C459 C454 1.363 . S
C459 C458 1.415 . S
H460 C457 0.999 . S
H461 C442 0.913 1_455 S
C81 C0 0.938 . S
C96 C33 0.945 . S
C131 C29 1.742 . S
C146 C55 1.722 . S
C181 C30 1.307 . S
C196 C42 1.287 . S
C231 C1 1.739 . S
C246 C32 1.733 . S
C281 C2 1.739 . S
C296 C31 1.722 . S
C346 C49 1.339 . S
C331 C19 1.336 . S
C381 C20 1.746 . S
C396 C58 1.742 . S
C446 C41 0.893 . S
C431 C10 0.897 . S
