# Generated by pormake.
# Topology pth, (4,4)-cn, num edge types: 1
# Building blocks:
#     Node 0, Type 0, BuildingBlock: GALJAG_clean_sbu_0, # of connection points: 4
#     Node 1, Type 0, BuildingBlock: GALJAG_clean_sbu_0, # of connection points: 4
#     Node 2, Type 0, BuildingBlock: GALJAG_clean_sbu_0, # of connection points: 4
#     Node 3, Type 1, BuildingBlock: KOZSID_clean_sbu_0, # of connection points: 4
#     Node 4, Type 1, BuildingBlock: KOZSID_clean_sbu_0, # of connection points: 4
#     Node 5, Type 1, BuildingBlock: KOZSID_clean_sbu_0, # of connection points: 4
#     Edge 6, Type (0, 1), BuildingBlock: AJUNOK_clean_linker_0, # of connection points: 2
#     Edge 7, Type (0, 1), BuildingBlock: AJUNOK_clean_linker_0, # of connection points: 2
#     Edge 8, Type (0, 1), BuildingBlock: AJUNOK_clean_linker_0, # of connection points: 2
#     Edge 9, Type (0, 1), BuildingBlock: AJUNOK_clean_linker_0, # of connection points: 2
#     Edge 10, Type (0, 1), BuildingBlock: AJUNOK_clean_linker_0, # of connection points: 2
#     Edge 11, Type (0, 1), BuildingBlock: AJUNOK_clean_linker_0, # of connection points: 2
#     Edge 12, Type (0, 1), BuildingBlock: AJUNOK_clean_linker_0, # of connection points: 2
#     Edge 13, Type (0, 1), BuildingBlock: AJUNOK_clean_linker_0, # of connection points: 2
#     Edge 14, Type (0, 1), BuildingBlock: AJUNOK_clean_linker_0, # of connection points: 2
#     Edge 15, Type (0, 1), BuildingBlock: AJUNOK_clean_linker_0, # of connection points: 2
#     Edge 16, Type (0, 1), BuildingBlock: AJUNOK_clean_linker_0, # of connection points: 2
#     Edge 17, Type (0, 1), BuildingBlock: AJUNOK_clean_linker_0, # of connection points: 2
# Relax obj value: 0.002
# Max RMSD: 0.047
# Mean RMSD: 0.027
data_MOF--net-pth--node1-GALJAG_clean_sbu_0--node2-KOZSID_clean_sbu_0--edge1-AJUNOK_clean_linker_0
_symmetry_space_group_name_H-M    P1
_symmetry_Int_Tables_number       1
_symmetry_cell_setting            triclinic
loop_
_symmetry_equiv_pos_as_xyz
'x, y, z'
_cell_length_a     20.538982
_cell_length_b     20.531792
_cell_length_c     44.687956
_cell_angle_alpha  86.745061
_cell_angle_beta   86.850415
_cell_angle_gamma 119.91383
loop_
_atom_site_label
_atom_site_type_symbol
_atom_site_fract_x
_atom_site_fract_y
_atom_site_fract_z
_atom_type_partial_charge
In0 In 0.10222 0.06638 0.05329 0.0
O1 O 0.03703 0.11959 0.07467 0.0
O2 O 0.15175 0.1627 0.08295 0.0
C3 C 0.99435 0.9709 0.0197 0.0
C4 C 0.21703 0.17573 0.01534 0.0
C5 C 0.11048 0.96076 0.08992 0.0
O6 O 0.97991 1.00132 0.04094 0.0
O7 O 0.06325 0.99121 0.01479 0.0
O8 O 0.14842 0.98753 0.06465 0.0
O9 O 0.0708 0.98938 0.09726 0.0
C10 C 0.09338 0.16794 0.08679 0.0
O11 O 0.22729 0.14188 0.03747 0.0
O12 O 0.1486 0.15166 0.0113 0.0
In13 In 0.06156 0.08423 0.38795 0.0
O14 O 0.11366 0.21159 0.37515 0.0
O15 O 0.04006 0.13644 0.34585 0.0
C16 C 0.1665 0.08557 0.42262 0.0
C17 C 0.94349 0.07054 0.42368 0.0
C18 C 0.05526 0.97523 0.35467 0.0
O19 O 0.18358 0.13345 0.40017 0.0
O20 O 0.09683 0.03891 0.42781 0.0
O21 O 1.007 0.96139 0.37654 0.0
O22 O 0.10471 0.0441 0.3491 0.0
C23 C 0.08005 0.20392 0.35163 0.0
O24 O 0.93469 0.03499 0.40067 0.0
O25 O 0.01125 0.11038 0.42913 0.0
In26 In 0.09553 0.07389 0.72 0.0
O27 O 0.01798 0.94512 0.72985 0.0
O28 O 0.02417 0.01377 0.76445 0.0
C29 C 0.20343 0.06929 0.68381 0.0
C30 C 1.00103 0.10194 0.68826 0.0
C31 C 0.19118 0.17772 0.75456 0.0
O32 O 0.14008 0.01089 0.69167 0.0
O33 O 0.2117 0.12859 0.69395 0.0
O34 O 0.15901 0.19364 0.73438 0.0
O35 O 0.17266 0.10887 0.75799 0.0
C36 C 0.9938 0.94824 0.75603 0.0
O37 O 1.00085 0.10182 0.71642 0.0
O38 O 0.05202 0.09288 0.6758 0.0
C39 C 0.16694 0.71658 0.17377 0.0
C40 C 0.23815 0.77363 0.16185 0.0
C41 C 0.28906 0.76169 0.17587 0.0
C42 C 0.24643 0.69863 0.1956 0.0
N43 N 0.17122 0.66903 0.19491 0.0
Co44 Co 0.08934 0.57896 0.2208 0.0
N45 N 0.16468 0.56912 0.24468 0.0
C46 C 0.24048 0.61524 0.24136 0.0
C47 C 0.27808 0.59343 0.26012 0.0
C48 C 0.22321 0.52915 0.27633 0.0
C49 C 0.15479 0.51554 0.26658 0.0
N50 N 0.00775 0.48705 0.24589 0.0
C51 C 0.01264 0.44001 0.26713 0.0
C52 C 0.94192 0.38027 0.27793 0.0
C53 C 0.89068 0.38878 0.26251 0.0
C54 C 0.93276 0.45307 0.2433 0.0
N55 N 0.01403 0.59129 0.19789 0.0
C56 C 0.93801 0.54729 0.202 0.0
C57 C 0.90077 0.57171 0.18413 0.0
C58 C 0.95623 0.63609 0.16803 0.0
C59 C 0.02437 0.64727 0.17709 0.0
N60 N 0.09424 0.51114 0.19154 0.0
C61 C 0.09648 0.40474 0.15436 0.0
C62 C 0.032 0.41082 0.15917 0.0
C63 C 0.03194 0.46338 0.17774 0.0
C64 C 0.1604 0.45423 0.16808 0.0
C65 C 0.15856 0.5074 0.18585 0.0
N66 N 0.08363 0.64609 0.24996 0.0
C67 C 0.00877 0.68291 0.28067 0.0
C68 C 0.07334 0.74839 0.28696 0.0
C69 C 0.1434 0.7608 0.27494 0.0
C70 C 0.14728 0.7093 0.25672 0.0
C71 C 0.01519 0.63268 0.26258 0.0
H72 H 0.20225 0.72228 0.24796 0.0
H73 H 0.96371 0.5841 0.25862 0.0
H74 H 0.9802 0.4633 0.18078 0.0
H75 H 0.20965 0.54393 0.19515 0.0
C76 C 0.27514 0.67255 0.21781 0.0
C77 C 0.0972 0.71239 0.16552 0.0
C78 C 0.08268 0.44849 0.27734 0.0
C79 C 0.90354 0.4834 0.22285 0.0
H80 H 0.25218 0.82061 0.14545 0.0
H81 H 0.34991 0.79702 0.1731 0.0
H82 H 0.33847 0.61914 0.26088 0.0
H83 H 0.23307 0.49489 0.29267 0.0
H84 H 0.92881 0.33476 0.29498 0.0
H85 H 0.83001 0.35212 0.26485 0.0
H86 H 0.84047 0.54624 0.18318 0.0
H87 H 0.94753 0.67129 0.15168 0.0
H88 H 0.98122 0.37477 0.14879 0.0
H89 H 0.21152 0.45117 0.1658 0.0
H90 H 0.95307 0.67121 0.28893 0.0
H91 H 0.19518 0.81037 0.27942 0.0
C92 C 0.4489 0.01039 0.60427 0.0
C93 C 0.39586 0.94174 0.61981 0.0
C94 C 0.4052 0.88755 0.60735 0.0
C95 C 0.46367 0.92608 0.58527 0.0
N96 N 0.4935 1.00181 0.58325 0.0
Co97 Co 0.57967 0.079 0.55436 0.0
N98 N 0.58832 0.99849 0.53402 0.0
C99 C 0.54519 0.92297 0.54098 0.0
C100 C 0.5665 0.88176 0.52421 0.0
C101 C 0.62751 0.93394 0.5056 0.0
C102 C 0.6397 0.0044 0.51199 0.0
N103 N 0.66602 0.15608 0.52544 0.0
C104 C 0.70996 0.14711 0.50417 0.0
C105 C 0.76521 0.2159 0.4895 0.0
C106 C 0.75703 0.27041 0.50238 0.0
C107 C 0.69729 0.23201 0.52399 0.0
N108 N 0.57045 0.15923 0.57471 0.0
C109 C 0.61417 0.23484 0.56804 0.0
C110 C 0.59061 0.27559 0.584 0.0
C111 C 0.52744 0.22304 0.60159 0.0
C112 C 0.51625 0.15273 0.59558 0.0
N113 N 0.6534 0.08362 0.58268 0.0
C114 C 0.76431 0.09132 0.61925 0.0
C115 C 0.77019 0.15664 0.60532 0.0
C116 C 0.71411 0.15165 0.58766 0.0
C117 C 0.70142 0.022 0.61521 0.0
C118 C 0.64727 0.01939 0.59678 0.0
N119 N 0.50645 0.07523 0.52612 0.0
C120 C 0.45949 0.14076 0.49536 0.0
C121 C 0.39553 0.07293 0.49077 0.0
C122 C 0.38948 0.00576 0.50323 0.0
C123 C 0.44524 0.00818 0.52068 0.0
C124 C 0.51369 0.14061 0.5128 0.0
H125 H 0.43728 0.95529 0.52989 0.0
H126 H 0.56016 0.19443 0.51563 0.0
H127 H 0.72177 0.20374 0.57806 0.0
H128 H 0.60158 0.96474 0.59399 0.0
C129 C 0.48888 0.89256 0.56495 0.0
C130 C 0.45133 0.08132 0.60897 0.0
C131 C 0.70318 0.07514 0.4977 0.0
C132 C 0.67164 0.26552 0.54433 0.0
H133 H 0.35322 0.93161 0.6377 0.0
H134 H 0.37191 0.82711 0.6131 0.0
H135 H 0.54223 0.82109 0.52606 0.0
H136 H 0.66046 0.92131 0.48976 0.0
H137 H 0.8079 0.22566 0.4717 0.0
H138 H 0.79162 0.33092 0.4971 0.0
H139 H 0.61438 0.3362 0.58199 0.0
H140 H 0.49238 0.23547 0.61634 0.0
H141 H 0.81782 0.21157 0.60817 0.0
H142 H 0.69495 0.96993 0.62567 0.0
H143 H 0.46694 0.19429 0.48617 0.0
H144 H 0.34194 0.95155 0.4996 0.0
C145 C 0.74092 0.63265 0.84057 0.0
C146 C 0.79861 0.61999 0.83067 0.0
C147 C 0.78576 0.55533 0.84647 0.0
C148 C 0.72156 0.53245 0.86516 0.0
N149 N 0.69187 0.57801 0.8621 0.0
Co150 Co 0.60121 0.56762 0.88632 0.0
N151 N 0.58666 0.47612 0.91136 0.0
C152 C 0.63045 0.44425 0.90931 0.0
C153 C 0.60436 0.37952 0.92812 0.0
C154 C 0.53937 0.36856 0.94287 0.0
C155 C 0.52975 0.42791 0.9323 0.0
N156 N 0.51002 0.55653 0.91034 0.0
C157 C 0.46021 0.50063 0.93134 0.0
C158 C 0.40281 0.51321 0.94162 0.0
C159 C 0.41574 0.57842 0.9261 0.0
C160 C 0.48018 0.60205 0.90737 0.0
N161 N 0.61629 0.65949 0.86139 0.0
C162 C 0.57327 0.69222 0.86371 0.0
C163 C 0.59893 0.75601 0.84427 0.0
C164 C 0.6628 0.76534 0.82892 0.0
C165 C 0.67264 0.70662 0.84 0.0
N166 N 0.53385 0.50112 0.85732 0.0
C167 C 0.42776 0.39949 0.82087 0.0
C168 C 0.42465 0.46228 0.82938 0.0
C169 C 0.47802 0.51214 0.84711 0.0
C170 C 0.48603 0.38919 0.83047 0.0
C171 C 0.53832 0.44051 0.84842 0.0
N172 N 0.66816 0.63459 0.91539 0.0
C173 C 0.70884 0.74428 0.94323 0.0
C174 C 0.76977 0.73871 0.95252 0.0
C175 C 0.7782 0.67906 0.94333 0.0
C176 C 0.72694 0.62781 0.92505 0.0
C177 C 0.65904 0.69196 0.92512 0.0
H178 H 0.73655 0.58379 0.91869 0.0
H179 H 0.61448 0.70029 0.91885 0.0
H180 H 0.47172 0.55832 0.85275 0.0
H181 H 0.58121 0.4295 0.85519 0.0
C182 C 0.69146 0.47206 0.88745 0.0
C183 C 0.73756 0.69941 0.83003 0.0
C184 C 0.46366 0.43366 0.94162 0.0
C185 C 0.51126 0.66376 0.88539 0.0
H186 H 0.84638 0.65488 0.81432 0.0
H187 H 0.8206 0.52955 0.84526 0.0
H188 H 0.62804 0.34287 0.92994 0.0
H189 H 0.50217 0.32079 0.95886 0.0
H190 H 0.35563 0.47801 0.95819 0.0
H191 H 0.38107 0.60433 0.92766 0.0
H192 H 0.57502 0.79237 0.84202 0.0
H193 H 0.69887 0.81096 0.81187 0.0
H194 H 0.37988 0.47215 0.82309 0.0
H195 H 0.49116 0.34161 0.82424 0.0
H196 H 0.7005 0.79019 0.94919 0.0
H197 H 0.82432 0.67203 0.95013 0.0
C198 C 0.03044 0.21538 0.12198 0.0
C199 C 0.09349 0.22895 0.10295 0.0
C200 C 0.03189 0.27242 0.13843 0.0
C201 C 0.09588 0.34574 0.13595 0.0
H202 H 0.98045 0.15978 0.12483 0.0
H203 H 0.98285 0.25837 0.15364 0.0
S204 S 0.2717 0.41191 0.08559 0.0
N205 N 0.21958 0.32153 0.08081 0.0
N206 N 0.22111 0.42967 0.11027 0.0
C207 C 0.15814 0.36042 0.11592 0.0
C208 C 0.15718 0.30188 0.09977 0.0
C209 C 0.89236 0.09649 0.47083 0.0
C210 C 0.88047 0.0691 0.44224 0.0
C211 C 0.8349 0.09852 0.48852 0.0
C212 C 0.76374 0.074 0.47815 0.0
H213 H 0.94646 0.11631 0.47971 0.0
H214 H 0.84604 0.11922 0.51051 0.0
S215 S 0.70414 1.00089 0.40463 0.0
N216 N 0.79195 0.01849 0.40424 0.0
N217 N 0.68479 0.0241 0.43736 0.0
C218 C 0.75122 0.04759 0.44955 0.0
C219 C 0.80931 0.04454 0.43165 0.0
C220 C 0.91335 0.88889 0.80492 0.0
C221 C 0.9304 0.88233 0.77462 0.0
C222 C 0.85079 0.82974 0.82257 0.0
C223 C 0.80257 0.76206 0.81055 0.0
H224 H 0.94845 0.94032 0.8151 0.0
H225 H 0.83999 0.83689 0.84582 0.0
S226 S 0.81987 0.71618 0.73261 0.0
N227 N 0.89258 0.80209 0.73346 0.0
N228 N 0.77441 0.69176 0.76666 0.0
C229 C 0.81832 0.75463 0.78039 0.0
C230 C 0.88246 0.81446 0.76244 0.0
C231 C 0.08161 0.88349 0.13946 0.0
C232 C 0.1092 0.89816 0.10881 0.0
C233 C 0.07774 0.82328 0.15762 0.0
C234 C 0.10042 0.77506 0.14569 0.0
H235 H 0.06325 0.91906 0.14958 0.0
H236 H 0.05703 0.81437 0.18118 0.0
S237 S 0.17216 0.78544 0.06667 0.0
N238 N 0.15743 0.85746 0.06727 0.0
N239 N 0.14804 0.74333 0.10133 0.0
C240 C 0.12663 0.78797 0.11506 0.0
C241 C 0.13171 0.84985 0.09666 0.0
C242 C 0.30076 0.12448 0.4302 0.0
C243 C 0.22365 0.08197 0.44059 0.0
C244 C 0.35561 0.12026 0.44627 0.0
C245 C 0.33571 0.07348 0.47345 0.0
H246 H 0.31899 0.16088 0.40931 0.0
H247 H 0.41418 0.1537 0.43722 0.0
S248 S 0.14204 0.95395 0.51138 0.0
N249 N 0.13045 0.99304 0.48034 0.0
N250 N 0.23362 0.98634 0.5107 0.0
C251 C 0.25889 0.03118 0.48424 0.0
C252 C 0.20295 0.03521 0.46782 0.0
C253 C 0.2758 0.21298 0.79636 0.0
C254 C 0.25025 0.23554 0.77138 0.0
C255 C 0.33376 0.26611 0.81193 0.0
C256 C 0.36885 0.34402 0.80308 0.0
H257 H 0.25065 0.15368 0.80408 0.0
H258 H 0.3504 0.246 0.83136 0.0
S259 S 0.32704 0.43244 0.73773 0.0
N260 N 0.26685 0.34123 0.73779 0.0
N261 N 0.3766 0.44072 0.76659 0.0
C262 C 0.3447 0.36727 0.77782 0.0
C263 C 0.28529 0.31322 0.76211 0.0
C264 C 0.95529 0.12709 0.64051 0.0
C265 C 0.94145 0.10383 0.67157 0.0
C266 C 0.89796 0.12407 0.62384 0.0
C267 C 0.82434 0.09582 0.63748 0.0
H268 H 0.01076 0.14753 0.62898 0.0
H269 H 0.91086 0.1425 0.59997 0.0
S270 S 0.7582 0.02715 0.71787 0.0
N271 N 0.8484 0.05222 0.71527 0.0
N272 N 0.74056 0.04476 0.68365 0.0
C273 C 0.80967 0.07245 0.66842 0.0
C274 C 0.86828 0.077 0.68555 0.0
C275 C 0.95721 0.88644 0.97788 0.0
C276 C 0.93554 0.91292 1.00277 0.0
C277 C 0.90345 0.8296 0.9621 0.0
C278 C 0.82565 0.79667 0.97054 0.0
H279 H 0.01637 0.90984 0.97042 0.0
H280 H 0.92306 0.81214 0.94283 0.0
S281 S 0.73892 0.84233 0.03513 0.0
N282 N 0.83051 0.89988 0.03564 0.0
N283 N 0.7297 0.79245 0.00631 0.0
C284 C 0.80312 0.82198 0.99558 0.0
C285 C 0.85791 0.88014 0.01159 0.0
C286 C 0.10497 0.93651 0.31087 0.0
C287 C 0.05667 0.91579 0.3376 0.0
C288 C 0.11016 0.8822 0.29483 0.0
C289 C 0.06754 0.8048 0.30489 0.0
H290 H 0.13915 0.99532 0.30217 0.0
H291 H 0.14733 0.90105 0.27415 0.0
S292 S 0.9358 0.721 0.37453 0.0
N293 N 0.96679 0.81238 0.37386 0.0
N294 N 0.97771 0.71056 0.34409 0.0
C295 C 0.01945 0.78328 0.33174 0.0
C296 C 0.01376 0.83863 0.34798 0.0
C297 C 0.339 0.10851 0.67291 0.0
C298 C 0.26466 0.06952 0.66476 0.0
C299 C 0.39907 0.11214 0.65486 0.0
C300 C 0.38737 0.07953 0.62741 0.0
H301 H 0.3506 0.13548 0.69366 0.0
H302 H 0.45507 0.1406 0.66243 0.0
S303 S 0.20404 0.97445 0.59518 0.0
N304 N 0.1826 0.99801 0.62747 0.0
N305 N 0.2962 0.00866 0.59259 0.0
C306 C 0.31342 0.04142 0.61879 0.0
C307 C 0.2519 0.03555 0.63767 0.0
C308 C 0.27222 0.26014 0.96699 0.0
C309 C 0.27998 0.24201 0.99696 0.0
C310 C 0.33136 0.32297 0.94934 0.0
C311 C 0.3996 0.37047 0.96126 0.0
H312 H 0.22062 0.22479 0.95695 0.0
H313 H 0.32415 0.33402 0.92612 0.0
S314 S 0.44546 0.35285 0.03922 0.0
N315 N 0.35991 0.27974 0.03821 0.0
N316 N 0.46971 0.39873 1.00524 0.0
C317 C 0.40697 0.35474 0.99144 0.0
C318 C 0.34755 0.29019 0.00922 0.0
C319 C 0.06303 0.25914 0.30328 0.0
C320 C 0.08325 0.26792 0.33303 0.0
C321 C 0.06264 0.31758 0.28551 0.0
C322 C 0.08129 0.38646 0.29699 0.0
H323 H 0.04781 0.20683 0.29355 0.0
H324 H 0.04787 0.30901 0.26259 0.0
S325 S 0.13371 0.43691 0.37383 0.0
N326 N 0.12049 0.35076 0.37332 0.0
N327 N 0.11732 0.45941 0.34012 0.0
C328 C 0.10013 0.3956 0.32679 0.0
C329 C 0.10189 0.33671 0.34474 0.0
loop_
_geom_bond_atom_site_label_1
_geom_bond_atom_site_label_2
_geom_bond_distance
_geom_bond_site_symmetry_2
_ccdc_geom_bond_type
In0 O1 2.294 . S
In0 O2 2.326 . S
In0 O6 2.266 1_455 S
In0 O7 2.326 1_545 S
In0 O8 2.266 1_545 S
In0 O9 2.326 1_545 S
In0 O11 2.294 . S
In0 O12 2.326 . S
O1 In0 2.294 . S
O1 C10 1.240 . S
O2 In0 2.326 . S
O2 C10 1.252 . S
C3 O6 1.252 1_465 S
C3 O7 1.260 . S
C4 O11 1.240 . S
C4 O12 1.252 . S
C5 O8 1.252 . S
C5 O9 1.260 . S
O6 In0 2.266 1_655 S
O6 C3 1.252 1_645 S
O7 In0 2.326 1_565 S
O7 C3 1.260 . S
O8 In0 2.266 1_565 S
O8 C5 1.252 . S
O9 In0 2.326 1_565 S
O9 C5 1.260 . S
C10 O1 1.240 . S
C10 O2 1.252 . S
O11 In0 2.294 . S
O11 C4 1.240 . S
O12 In0 2.326 . S
O12 C4 1.252 . S
In13 O14 2.294 . S
In13 O15 2.326 1_455 S
In13 O19 2.266 . S
In13 O20 2.326 . S
In13 O21 2.266 1_545 S
In13 O22 2.326 . S
In13 O24 2.294 1_455 S
In13 O25 2.326 . S
O14 In13 2.294 . S
O14 C23 1.240 . S
O15 In13 2.326 1_655 S
O15 C23 1.252 1_655 S
C16 O19 1.252 . S
C16 O20 1.260 . S
C17 O24 1.240 . S
C17 O25 1.252 1_655 S
C18 O21 1.252 1_545 S
C18 O22 1.260 . S
O19 In13 2.266 . S
O19 C16 1.252 . S
O20 In13 2.326 . S
O20 C16 1.260 . S
O21 In13 2.266 1_565 S
O21 C18 1.252 1_565 S
O22 In13 2.326 . S
O22 C18 1.260 . S
C23 O14 1.240 . S
C23 O15 1.252 1_455 S
O24 In13 2.294 1_655 S
O24 C17 1.240 . S
O25 In13 2.326 . S
O25 C17 1.252 1_455 S
In26 O27 2.294 1_545 S
In26 O28 2.326 1_455 S
In26 O32 2.266 . S
In26 O33 2.326 . S
In26 O34 2.266 . S
In26 O35 2.326 . S
In26 O37 2.294 . S
In26 O38 2.326 1_445 S
O27 In26 2.294 1_565 S
O27 C36 1.240 1_455 S
O28 In26 2.326 1_655 S
O28 C36 1.252 1_545 S
C29 O32 1.252 . S
C29 O33 1.260 . S
C30 O37 1.240 1_655 S
C30 O38 1.252 1_545 S
C31 O34 1.252 . S
C31 O35 1.260 . S
O32 In26 2.266 . S
O32 C29 1.252 . S
O33 In26 2.326 . S
O33 C29 1.260 . S
O34 In26 2.266 . S
O34 C31 1.252 . S
O35 In26 2.326 . S
O35 C31 1.260 . S
C36 O27 1.240 1_655 S
C36 O28 1.252 1_565 S
O37 In26 2.294 . S
O37 C30 1.240 1_455 S
O38 In26 2.326 1_665 S
O38 C30 1.252 1_565 S
C39 C40 1.443 . S
C39 N43 1.376 . S
C39 C77 1.389 . S
C40 C39 1.443 . S
C40 C41 1.340 . S
C40 H80 0.951 . S
C41 C40 1.340 . S
C41 C42 1.439 . S
C41 H81 0.950 . S
C42 C41 1.439 . S
C42 N43 1.374 . S
C42 C76 1.395 . S
N43 C39 1.376 . S
N43 C42 1.374 . S
N43 Co44 2.008 . S
Co44 N43 2.008 . S
Co44 N45 1.995 . S
Co44 N50 2.008 1_455 S
Co44 N55 1.995 1_455 S
Co44 N60 2.282 . S
Co44 N66 2.282 . S
N45 Co44 1.995 . S
N45 C46 1.376 . S
N45 C49 1.383 . S
C46 N45 1.376 . S
C46 C47 1.446 . S
C46 C76 1.391 . S
C47 C46 1.446 . S
C47 C48 1.339 . S
C47 H82 0.949 . S
C48 C47 1.339 . S
C48 C49 1.439 . S
C48 H83 0.950 . S
C49 N45 1.383 . S
C49 C48 1.439 . S
C49 C78 1.392 . S
N50 Co44 2.008 1_655 S
N50 C51 1.376 . S
N50 C54 1.374 . S
C51 N50 1.376 . S
C51 C52 1.443 . S
C51 C78 1.389 1_655 S
C52 C51 1.443 . S
C52 C53 1.340 . S
C52 H84 0.951 . S
C53 C52 1.340 . S
C53 C54 1.439 . S
C53 H85 0.950 . S
C54 N50 1.374 . S
C54 C53 1.439 . S
C54 C79 1.395 . S
N55 Co44 1.995 1_655 S
N55 C56 1.376 . S
N55 C59 1.383 1_655 S
C56 N55 1.376 . S
C56 C57 1.446 . S
C56 C79 1.391 . S
C57 C56 1.446 . S
C57 C58 1.339 . S
C57 H86 0.949 . S
C58 C57 1.339 . S
C58 C59 1.439 1_655 S
C58 H87 0.950 . S
C59 N55 1.383 1_455 S
C59 C58 1.439 1_455 S
C59 C77 1.392 . S
N60 Co44 2.282 . S
N60 C63 1.332 . S
N60 C65 1.332 . S
C61 C62 1.386 . S
C61 C64 1.388 . S
C62 C61 1.386 . S
C62 C63 1.382 . S
C62 H88 0.950 1_455 S
C63 N60 1.332 . S
C63 C62 1.382 . S
C63 H74 0.952 1_455 S
C64 C61 1.388 . S
C64 C65 1.382 . S
C64 H89 0.950 . S
C65 N60 1.332 . S
C65 C64 1.382 . S
C65 H75 0.948 . S
N66 Co44 2.282 . S
N66 C70 1.332 . S
N66 C71 1.316 1_455 S
C67 C68 1.388 1_655 S
C67 C71 1.389 . S
C67 H90 0.950 . S
C68 C67 1.388 1_455 S
C68 C69 1.386 . S
C69 C68 1.386 . S
C69 C70 1.382 . S
C69 H91 0.950 . S
C70 N66 1.332 . S
C70 C69 1.382 . S
C70 H72 0.952 . S
C71 N66 1.316 1_655 S
C71 C67 1.389 . S
C71 H73 0.958 . S
H72 C70 0.952 . S
H73 C71 0.958 . S
H74 C63 0.952 1_655 S
H75 C65 0.948 . S
C76 C42 1.395 . S
C76 C46 1.391 . S
C77 C39 1.389 . S
C77 C59 1.392 . S
C78 C49 1.392 . S
C78 C51 1.389 1_455 S
C79 C54 1.395 . S
C79 C56 1.391 . S
H80 C40 0.951 . S
H81 C41 0.950 . S
H82 C47 0.949 . S
H83 C48 0.950 . S
H84 C52 0.951 . S
H85 C53 0.950 . S
H86 C57 0.949 . S
H87 C58 0.950 . S
H88 C62 0.950 1_655 S
H89 C64 0.950 . S
H90 C67 0.950 . S
H91 C69 0.950 . S
C92 C93 1.443 1_545 S
C92 N96 1.376 . S
C92 C130 1.389 . S
C93 C92 1.443 1_565 S
C93 C94 1.340 . S
C93 H133 0.951 . S
C94 C93 1.340 . S
C94 C95 1.439 . S
C94 H134 0.950 . S
C95 C94 1.439 . S
C95 N96 1.374 1_565 S
C95 C129 1.395 . S
N96 C92 1.376 . S
N96 C95 1.374 1_545 S
N96 Co97 2.008 . S
Co97 N96 2.008 . S
Co97 N98 1.995 . S
Co97 N103 2.008 . S
Co97 N108 1.995 . S
Co97 N113 2.282 . S
Co97 N119 2.282 . S
N98 Co97 1.995 . S
N98 C99 1.376 1_545 S
N98 C102 1.383 . S
C99 N98 1.376 1_565 S
C99 C100 1.446 . S
C99 C129 1.391 . S
C100 C99 1.446 . S
C100 C101 1.339 . S
C100 H135 0.949 . S
C101 C100 1.339 . S
C101 C102 1.439 1_565 S
C101 H136 0.950 . S
C102 N98 1.383 . S
C102 C101 1.439 1_545 S
C102 C131 1.392 . S
N103 Co97 2.008 . S
N103 C104 1.376 . S
N103 C107 1.374 . S
C104 N103 1.376 . S
C104 C105 1.443 . S
C104 C131 1.389 . S
C105 C104 1.443 . S
C105 C106 1.340 . S
C105 H137 0.951 . S
C106 C105 1.340 . S
C106 C107 1.439 . S
C106 H138 0.950 . S
C107 N103 1.374 . S
C107 C106 1.439 . S
C107 C132 1.395 . S
N108 Co97 1.995 . S
N108 C109 1.376 . S
N108 C112 1.383 . S
C109 N108 1.376 . S
C109 C110 1.446 . S
C109 C132 1.391 . S
C110 C109 1.446 . S
C110 C111 1.339 . S
C110 H139 0.949 . S
C111 C110 1.339 . S
C111 C112 1.439 . S
C111 H140 0.950 . S
C112 N108 1.383 . S
C112 C111 1.439 . S
C112 C130 1.392 . S
N113 Co97 2.282 . S
N113 C116 1.332 . S
N113 C118 1.332 . S
C114 C115 1.386 . S
C114 C117 1.388 . S
C115 C114 1.386 . S
C115 C116 1.382 . S
C115 H141 0.950 . S
C116 N113 1.332 . S
C116 C115 1.382 . S
C116 H127 0.952 . S
C117 C114 1.388 . S
C117 C118 1.382 . S
C117 H142 0.950 1_545 S
C118 N113 1.332 . S
C118 C117 1.382 . S
C118 H128 0.948 1_545 S
N119 Co97 2.282 . S
N119 C123 1.332 . S
N119 C124 1.332 . S
C120 C121 1.388 . S
C120 C124 1.382 . S
C120 H143 0.950 . S
C121 C120 1.388 . S
C121 C122 1.386 . S
C122 C121 1.386 . S
C122 C123 1.382 . S
C122 H144 0.950 1_545 S
C123 N119 1.332 . S
C123 C122 1.382 . S
C123 H125 0.952 1_545 S
C124 N119 1.332 . S
C124 C120 1.382 . S
C124 H126 0.948 . S
H125 C123 0.952 1_565 S
H126 C124 0.948 . S
H127 C116 0.952 . S
H128 C118 0.948 1_565 S
C129 C95 1.395 . S
C129 C99 1.391 . S
C130 C92 1.389 . S
C130 C112 1.392 . S
C131 C102 1.392 . S
C131 C104 1.389 . S
C132 C107 1.395 . S
C132 C109 1.391 . S
H133 C93 0.951 . S
H134 C94 0.950 . S
H135 C100 0.949 . S
H136 C101 0.950 . S
H137 C105 0.951 . S
H138 C106 0.950 . S
H139 C110 0.949 . S
H140 C111 0.950 . S
H141 C115 0.950 . S
H142 C117 0.950 1_565 S
H143 C120 0.950 . S
H144 C122 0.950 1_565 S
C145 C146 1.443 . S
C145 N149 1.376 . S
C145 C183 1.389 . S
C146 C145 1.443 . S
C146 C147 1.340 . S
C146 H186 0.951 . S
C147 C146 1.340 . S
C147 C148 1.439 . S
C147 H187 0.950 . S
C148 C147 1.439 . S
C148 N149 1.374 . S
C148 C182 1.395 . S
N149 C145 1.376 . S
N149 C148 1.374 . S
N149 Co150 2.008 . S
Co150 N149 2.008 . S
Co150 N151 1.995 . S
Co150 N156 2.008 . S
Co150 N161 1.995 . S
Co150 N166 2.282 . S
Co150 N172 2.282 . S
N151 Co150 1.995 . S
N151 C152 1.376 . S
N151 C155 1.383 . S
C152 N151 1.376 . S
C152 C153 1.446 . S
C152 C182 1.391 . S
C153 C152 1.446 . S
C153 C154 1.339 . S
C153 H188 0.949 . S
C154 C153 1.339 . S
C154 C155 1.439 . S
C154 H189 0.950 . S
C155 N151 1.383 . S
C155 C154 1.439 . S
C155 C184 1.392 . S
N156 Co150 2.008 . S
N156 C157 1.376 . S
N156 C160 1.374 . S
C157 N156 1.376 . S
C157 C158 1.443 . S
C157 C184 1.389 . S
C158 C157 1.443 . S
C158 C159 1.340 . S
C158 H190 0.951 . S
C159 C158 1.340 . S
C159 C160 1.439 . S
C159 H191 0.950 . S
C160 N156 1.374 . S
C160 C159 1.439 . S
C160 C185 1.395 . S
N161 Co150 1.995 . S
N161 C162 1.376 . S
N161 C165 1.383 . S
C162 N161 1.376 . S
C162 C163 1.446 . S
C162 C185 1.391 . S
C163 C162 1.446 . S
C163 C164 1.339 . S
C163 H192 0.949 . S
C164 C163 1.339 . S
C164 C165 1.439 . S
C164 H193 0.950 . S
C165 N161 1.383 . S
C165 C164 1.439 . S
C165 C183 1.392 . S
N166 Co150 2.282 . S
N166 C169 1.332 . S
N166 C171 1.332 . S
C167 C168 1.386 . S
C167 C170 1.388 . S
C168 C167 1.386 . S
C168 C169 1.382 . S
C168 H194 0.950 . S
C169 N166 1.332 . S
C169 C168 1.382 . S
C169 H180 0.952 . S
C170 C167 1.388 . S
C170 C171 1.382 . S
C170 H195 0.950 . S
C171 N166 1.332 . S
C171 C170 1.382 . S
C171 H181 0.948 . S
N172 Co150 2.282 . S
N172 C176 1.332 . S
N172 C177 1.332 . S
C173 C174 1.388 . S
C173 C177 1.382 . S
C173 H196 0.950 . S
C174 C173 1.388 . S
C174 C175 1.386 . S
C175 C174 1.386 . S
C175 C176 1.382 . S
C175 H197 0.950 . S
C176 N172 1.332 . S
C176 C175 1.382 . S
C176 H178 0.952 . S
C177 N172 1.332 . S
C177 C173 1.382 . S
C177 H179 0.948 . S
H178 C176 0.952 . S
H179 C177 0.948 . S
H180 C169 0.952 . S
H181 C171 0.948 . S
C182 C148 1.395 . S
C182 C152 1.391 . S
C183 C145 1.389 . S
C183 C165 1.392 . S
C184 C155 1.392 . S
C184 C157 1.389 . S
C185 C160 1.395 . S
C185 C162 1.391 . S
H186 C146 0.951 . S
H187 C147 0.950 . S
H188 C153 0.949 . S
H189 C154 0.950 . S
H190 C158 0.951 . S
H191 C159 0.950 . S
H192 C163 0.949 . S
H193 C164 0.950 . S
H194 C168 0.950 . S
H195 C170 0.950 . S
H196 C173 0.950 . S
H197 C175 0.950 . S
C198 C199 1.369 . S
C198 C200 1.419 . S
C198 H202 0.930 . S
C199 C198 1.369 . S
C199 C208 1.429 . S
C200 C198 1.419 . S
C200 C201 1.363 . S
C200 H203 0.929 . S
C201 C200 1.363 . S
C201 C207 1.428 . S
H202 C198 0.930 . S
H203 C200 0.929 . S
S204 N205 1.613 . S
S204 N206 1.610 . S
N205 S204 1.613 . S
N205 C208 1.350 . S
N206 S204 1.610 . S
N206 C207 1.351 . S
C207 C201 1.428 . S
C207 N206 1.351 . S
C207 C208 1.434 . S
C208 C199 1.429 . S
C208 N205 1.350 . S
C208 C207 1.434 . S
C209 C210 1.369 . S
C209 C211 1.419 . S
C209 H213 0.930 . S
C210 C209 1.369 . S
C210 C219 1.429 . S
C211 C209 1.419 . S
C211 C212 1.363 . S
C211 H214 0.929 . S
C212 C211 1.363 . S
C212 C218 1.428 . S
H213 C209 0.930 . S
H214 C211 0.929 . S
S215 N216 1.613 . S
S215 N217 1.610 . S
N216 S215 1.613 . S
N216 C219 1.350 . S
N217 S215 1.610 . S
N217 C218 1.351 . S
C218 C212 1.428 . S
C218 N217 1.351 . S
C218 C219 1.434 . S
C219 C210 1.429 . S
C219 N216 1.350 . S
C219 C218 1.434 . S
C220 C221 1.369 . S
C220 C222 1.419 . S
C220 H224 0.930 . S
C221 C220 1.369 . S
C221 C230 1.429 . S
C222 C220 1.419 . S
C222 C223 1.363 . S
C222 H225 0.929 . S
C223 C222 1.363 . S
C223 C229 1.428 . S
H224 C220 0.930 . S
H225 C222 0.929 . S
S226 N227 1.613 . S
S226 N228 1.610 . S
N227 S226 1.613 . S
N227 C230 1.350 . S
N228 S226 1.610 . S
N228 C229 1.351 . S
C229 C223 1.428 . S
C229 N228 1.351 . S
C229 C230 1.434 . S
C230 C221 1.429 . S
C230 N227 1.350 . S
C230 C229 1.434 . S
C231 C232 1.369 . S
C231 C233 1.419 . S
C231 H235 0.930 . S
C232 C231 1.369 . S
C232 C241 1.429 . S
C233 C231 1.419 . S
C233 C234 1.363 . S
C233 H236 0.929 . S
C234 C233 1.363 . S
C234 C240 1.428 . S
H235 C231 0.930 . S
H236 C233 0.929 . S
S237 N238 1.613 1_655 S
S237 N239 1.610 1_655 S
N238 S237 1.613 1_455 S
N238 C241 1.350 . S
N239 S237 1.610 1_455 S
N239 C240 1.351 . S
C240 C234 1.428 . S
C240 N239 1.351 . S
C240 C241 1.434 . S
C241 C232 1.429 . S
C241 N238 1.350 . S
C241 C240 1.434 . S
C242 C243 1.369 . S
C242 C244 1.419 . S
C242 H246 0.930 . S
C243 C242 1.369 . S
C243 C252 1.429 . S
C244 C242 1.419 . S
C244 C245 1.363 . S
C244 H247 0.929 . S
C245 C244 1.363 . S
C245 C251 1.428 . S
H246 C242 0.930 . S
H247 C244 0.929 . S
S248 N249 1.613 . S
S248 N250 1.610 . S
N249 S248 1.613 . S
N249 C252 1.350 1_565 S
N250 S248 1.610 . S
N250 C251 1.351 1_565 S
C251 C245 1.428 . S
C251 N250 1.351 1_545 S
C251 C252 1.434 . S
C252 C243 1.429 . S
C252 N249 1.350 1_545 S
C252 C251 1.434 . S
C253 C254 1.369 . S
C253 C255 1.419 . S
C253 H257 0.930 . S
C254 C253 1.369 . S
C254 C263 1.429 . S
C255 C253 1.419 . S
C255 C256 1.363 . S
C255 H258 0.929 . S
C256 C255 1.363 . S
C256 C262 1.428 . S
H257 C253 0.930 . S
H258 C255 0.929 . S
S259 N260 1.613 . S
S259 N261 1.610 . S
N260 S259 1.613 . S
N260 C263 1.350 . S
N261 S259 1.610 . S
N261 C262 1.351 . S
C262 C256 1.428 . S
C262 N261 1.351 . S
C262 C263 1.434 . S
C263 C254 1.429 . S
C263 N260 1.350 . S
C263 C262 1.434 . S
C264 C265 1.369 . S
C264 C266 1.419 . S
C264 H268 0.930 . S
C265 C264 1.369 . S
C265 C274 1.429 . S
C266 C264 1.419 . S
C266 C267 1.363 . S
C266 H269 0.929 . S
C267 C266 1.363 . S
C267 C273 1.428 . S
H268 C264 0.930 . S
H269 C266 0.929 . S
S270 N271 1.613 . S
S270 N272 1.610 1_565 S
N271 S270 1.613 . S
N271 C274 1.350 1_565 S
N272 S270 1.610 1_545 S
N272 C273 1.351 . S
C273 C267 1.428 . S
C273 N272 1.351 . S
C273 C274 1.434 . S
C274 C265 1.429 . S
C274 N271 1.350 1_545 S
C274 C273 1.434 . S
C275 C276 1.369 . S
C275 C277 1.419 . S
C275 H279 0.930 1_655 S
C276 C275 1.369 . S
C276 C285 1.429 1_556 S
C277 C275 1.419 . S
C277 C278 1.363 . S
C277 H280 0.929 . S
C278 C277 1.363 . S
C278 C284 1.428 . S
H279 C275 0.930 1_455 S
H280 C277 0.929 . S
S281 N282 1.613 . S
S281 N283 1.610 . S
N282 S281 1.613 . S
N282 C285 1.350 . S
N283 S281 1.610 . S
N283 C284 1.351 1_554 S
C284 C278 1.428 . S
C284 N283 1.351 1_556 S
C284 C285 1.434 1_556 S
C285 C276 1.429 1_554 S
C285 N282 1.350 . S
C285 C284 1.434 1_554 S
C286 C287 1.369 . S
C286 C288 1.419 . S
C286 H290 0.930 1_565 S
C287 C286 1.369 . S
C287 C296 1.429 . S
C288 C286 1.419 . S
C288 C289 1.363 . S
C288 H291 0.929 . S
C289 C288 1.363 . S
C289 C295 1.428 . S
H290 C286 0.930 1_545 S
H291 C288 0.929 . S
S292 N293 1.613 1_655 S
S292 N294 1.610 1_655 S
N293 S292 1.613 1_455 S
N293 C296 1.350 . S
N294 S292 1.610 1_455 S
N294 C295 1.351 . S
C295 C289 1.428 . S
C295 N294 1.351 . S
C295 C296 1.434 . S
C296 C287 1.429 . S
C296 N293 1.350 . S
C296 C295 1.434 . S
C297 C298 1.369 . S
C297 C299 1.419 . S
C297 H301 0.930 . S
C298 C297 1.369 . S
C298 C307 1.429 . S
C299 C297 1.419 . S
C299 C300 1.363 . S
C299 H302 0.929 . S
C300 C299 1.363 . S
C300 C306 1.428 . S
H301 C297 0.930 . S
H302 C299 0.929 . S
S303 N304 1.613 . S
S303 N305 1.610 . S
N304 S303 1.613 . S
N304 C307 1.350 1_565 S
N305 S303 1.610 . S
N305 C306 1.351 1_565 S
C306 C300 1.428 . S
C306 N305 1.351 1_545 S
C306 C307 1.434 . S
C307 C298 1.429 . S
C307 N304 1.350 1_545 S
C307 C306 1.434 . S
C308 C309 1.369 . S
C308 C310 1.419 . S
C308 H312 0.930 . S
C309 C308 1.369 . S
C309 C318 1.414 1_556 S
C310 C308 1.419 . S
C310 C311 1.363 . S
C310 H313 0.929 . S
C311 C310 1.363 . S
C311 C317 1.428 . S
H312 C308 0.930 . S
H313 C310 0.929 . S
S314 N315 1.613 . S
S314 N316 1.610 1_554 S
N315 S314 1.613 . S
N315 C318 1.382 . S
N316 S314 1.610 1_556 S
N316 C317 1.351 . S
C317 C311 1.428 . S
C317 N316 1.351 . S
C317 C318 1.416 1_556 S
C318 C309 1.414 1_554 S
C318 N315 1.382 . S
C318 C317 1.416 1_554 S
C319 C320 1.369 . S
C319 C321 1.419 . S
C319 H323 0.930 1_455 S
C320 C319 1.369 . S
C320 C329 1.429 . S
C321 C319 1.419 . S
C321 C322 1.363 . S
C321 H324 0.929 1_455 S
C322 C321 1.363 . S
C322 C328 1.428 . S
H323 C319 0.930 1_655 S
H324 C321 0.929 1_655 S
S325 N326 1.613 . S
S325 N327 1.610 . S
N326 S325 1.613 . S
N326 C329 1.350 . S
N327 S325 1.610 . S
N327 C328 1.351 . S
C328 C322 1.428 . S
C328 N327 1.351 . S
C328 C329 1.434 . S
C329 C320 1.429 . S
C329 N326 1.350 . S
C329 C328 1.434 . S
C201 C61 1.513 . S
C199 C10 1.513 . S
C210 C17 1.514 . S
C212 C131 1.514 . S
C221 C36 1.519 . S
C223 C183 1.519 . S
C232 C5 1.516 . S
C234 C77 1.516 . S
C245 C121 1.516 . S
C243 C16 1.516 . S
C254 C31 1.516 . S
C256 C167 1.516 . S
C267 C114 1.513 . S
C265 C30 1.513 . S
C276 C3 1.516 1_656 S
C278 C174 1.516 . S
C289 C68 1.516 . S
C287 C18 1.516 1_565 S
C300 C130 1.516 . S
C298 C29 1.516 . S
C311 C184 1.517 . S
C309 C4 1.519 1_556 S
C320 C23 1.514 . S
C322 C78 1.514 . S
