# Generated by pormake.
# Topology scu, (8,4)-cn, num edge types: 1
# Building blocks:
#     Node 0, Type 0, BuildingBlock: TAGTUT_clean_sbu_3, # of connection points: 8
#     Node 1, Type 1, BuildingBlock: ESEHIV_clean_sbu_0, # of connection points: 4
#     Node 2, Type 1, BuildingBlock: ESEHIV_clean_sbu_0, # of connection points: 4
#     Edge 3, Type (0, 1), BuildingBlock: TEMPAE_clean_linker_10, # of connection points: 2
#     Edge 4, Type (0, 1), BuildingBlock: TEMPAE_clean_linker_10, # of connection points: 2
#     Edge 5, Type (0, 1), BuildingBlock: TEMPAE_clean_linker_10, # of connection points: 2
#     Edge 6, Type (0, 1), BuildingBlock: TEMPAE_clean_linker_10, # of connection points: 2
#     Edge 7, Type (0, 1), BuildingBlock: TEMPAE_clean_linker_10, # of connection points: 2
#     Edge 8, Type (0, 1), BuildingBlock: TEMPAE_clean_linker_10, # of connection points: 2
#     Edge 9, Type (0, 1), BuildingBlock: TEMPAE_clean_linker_10, # of connection points: 2
#     Edge 10, Type (0, 1), BuildingBlock: TEMPAE_clean_linker_10, # of connection points: 2
# Relax obj value: 0.025
# Max RMSD: 0.106
# Mean RMSD: 0.103
data_MOF--net-scu--node1-TAGTUT_clean_sbu_3--node2-ESEHIV_clean_sbu_0--edge1-TEMPAE_clean_linker_10
_symmetry_space_group_name_H-M    P1
_symmetry_Int_Tables_number       1
_symmetry_cell_setting            triclinic
loop_
_symmetry_equiv_pos_as_xyz
'x, y, z'
_cell_length_a     28.632414
_cell_length_b     24.403994
_cell_length_c     20.302649
_cell_angle_alpha  93.809017
_cell_angle_beta   94.924952
_cell_angle_gamma 89.754093
loop_
_atom_site_label
_atom_site_type_symbol
_atom_site_fract_x
_atom_site_fract_y
_atom_site_fract_z
_atom_type_partial_charge
C0 C 0.03791 0.89145 0.06753 0.0
C1 C 0.85975 0.9558 0.06093 0.0
C2 C 0.88365 0.01581 0.87756 0.0
Mg3 Mg 0.12697 0.95418 0.00992 0.0
Mg4 Mg 0.12444 0.08897 0.01353 0.0
O5 O 0.09555 0.02231 0.97938 0.0
Mg6 Mg 0.03016 0.0095 1.00208 0.0
O7 O 0.96529 0.99328 0.0244 0.0
Mg8 Mg 0.94947 0.92518 0.96583 0.0
Mg9 Mg 0.92097 0.05035 0.01935 0.0
C10 C 0.02816 0.13063 0.94032 0.0
O11 O 0.03491 0.07564 0.08954 0.0
O12 O 0.19162 0.98429 0.95449 0.0
O13 O 0.96214 0.1124 0.08169 0.0
O14 O 0.1596 0.99385 0.10629 0.0
O15 O 0.18455 0.07645 0.95903 0.0
O16 O 0.15133 0.08424 0.11787 0.0
O17 O 0.01801 0.94361 0.91509 0.0
O18 O 0.09153 0.91263 0.91631 0.0
C19 C 0.04891 0.91126 0.89152 0.0
C20 C 0.20574 0.03231 0.94106 0.0
O21 O 1.0089 0.08305 0.94089 0.0
O22 O 0.88318 0.91916 0.0286 0.0
O23 O 0.06857 0.14235 0.9712 0.0
O24 O 0.90238 0.96971 0.89001 0.0
O25 O 0.86922 0.00712 0.06404 0.0
O26 O 0.88997 0.05764 0.91867 0.0
O27 O 0.05827 0.93761 0.06244 0.0
O28 O 0.99699 0.88096 0.03928 0.0
C29 C 0.16534 0.03899 0.14095 0.0
C30 C 1.00492 0.11214 0.10711 0.0
Cu31 Cu 0.99162 0.50019 0.49842 0.0
N32 N 0.94746 0.45953 0.53759 0.0
N33 N 0.9241 0.39768 0.60464 0.0
C34 C 0.95794 0.41281 0.56721 0.0
C35 C 0.89039 0.43626 0.59747 0.0
C36 C 0.9049 0.47438 0.55592 0.0
O37 O 0.02769 0.45073 0.44423 0.0
C38 C 0.01822 0.55254 0.6252 0.0
O39 O 0.99557 0.51347 0.6505 0.0
H40 H 0.99174 0.3932 0.56659 0.0
H41 H 0.88726 0.51218 0.54393 0.0
N42 N 0.96583 0.54974 0.44003 0.0
N43 N 0.96929 0.61744 0.37155 0.0
C44 C 0.99201 0.59008 0.42016 0.0
C45 C 0.92458 0.55138 0.40325 0.0
C46 C 0.92653 0.59345 0.36101 0.0
C47 C 0.05645 0.41332 0.46102 0.0
O48 O 0.06947 0.40816 0.52392 0.0
H49 H 0.02777 0.59799 0.44016 0.0
H50 H 0.89605 0.52275 0.40499 0.0
O51 O 0.02692 0.54761 0.56468 0.0
H52 H 0.85869 0.43842 0.62296 0.0
H53 H 0.89942 0.60366 0.32334 0.0
Cu54 Cu 0.52798 0.02348 0.50046 0.0
N55 N 0.50894 0.0752 0.56551 0.0
N56 N 0.46604 0.09861 0.65035 0.0
C57 C 0.46608 0.07534 0.58822 0.0
C58 C 0.51045 0.11635 0.66636 0.0
C59 C 0.53676 0.10206 0.61386 0.0
O60 O 0.47287 0.99581 0.44574 0.0
C61 C 0.57567 0.96921 0.60607 0.0
O62 O 0.54101 0.98256 0.64235 0.0
H63 H 0.43649 0.05354 0.56288 0.0
H64 H 0.57449 0.10494 0.61434 0.0
N65 N 0.56651 0.05229 0.44199 0.0
N66 N 0.61833 0.04861 0.36525 0.0
C67 C 0.59344 0.01985 0.40472 0.0
C68 C 0.57444 0.10382 0.42609 0.0
C69 C 0.60655 0.10169 0.3787 0.0
C70 C 0.43701 0.97297 0.46487 0.0
O71 O 0.43822 0.95642 0.52526 0.0
H72 H 0.59502 0.97575 0.40748 0.0
H73 H 0.55799 0.14013 0.44713 0.0
O74 O 0.56931 0.97079 0.54341 0.0
H75 H 0.52392 0.13418 0.71443 0.0
H76 H 0.61957 0.1365 0.3554 0.0
C77 C 0.06666 0.17132 0.17143 0.0
C78 C 0.01963 0.15504 0.15981 0.0
C79 C 0.08098 0.2115 0.22181 0.0
C80 C 0.04718 0.23663 0.26084 0.0
C81 C 0.99957 0.22037 0.2493 0.0
C82 C 0.9864 0.17985 0.19895 0.0
C83 C 0.13203 0.22767 0.23248 0.0
C84 C 0.96233 0.24627 0.28966 0.0
C85 C 0.07394 0.31528 0.42736 0.0
C86 C 0.06589 0.36941 0.41006 0.0
C87 C 0.07121 0.27143 0.3786 0.0
C88 C 0.06048 0.28223 0.31125 0.0
C89 C 0.05653 0.33718 0.29323 0.0
C90 C 0.05918 0.38006 0.34285 0.0
C91 C 0.07608 0.2134 0.39973 0.0
C92 C 0.04568 0.35062 0.22198 0.0
H93 H 0.09205 0.15368 0.13996 0.0
H94 H 0.94997 0.16738 0.19045 0.0
H95 H 0.1361 0.27137 0.2221 0.0
H96 H 0.14521 0.22364 0.28493 0.0
H97 H 0.15423 0.20215 0.20022 0.0
H98 H 0.92719 0.22772 0.27592 0.0
H99 H 0.97174 0.24173 0.34317 0.0
H100 H 0.96012 0.2909 0.28237 0.0
H101 H 0.07904 0.30673 0.4792 0.0
H102 H 0.05344 0.42192 0.32915 0.0
H103 H 0.09836 0.18868 0.36693 0.0
H104 H 0.04101 0.19368 0.3955 0.0
H105 H 0.0914 0.21213 0.45178 0.0
H106 H 0.06889 0.32719 0.18933 0.0
H107 H 0.04973 0.39513 0.21536 0.0
H108 H 1.00902 0.33853 0.20533 0.0
C109 C 0.77496 0.95766 0.07229 0.0
C110 C 0.81964 0.94107 0.09676 0.0
C111 C 0.73905 0.96702 0.11462 0.0
C112 C 0.74831 0.96004 0.18322 0.0
C113 C 0.79212 0.93826 0.20694 0.0
C114 C 0.82743 0.92925 0.16333 0.0
C115 C 0.69288 0.98973 0.08689 0.0
C116 C 0.80334 0.92955 0.27947 0.0
C117 C 0.68677 0.05912 0.30022 0.0
C118 C 0.65063 0.02652 0.31915 0.0
C119 C 0.71879 0.0378 0.2564 0.0
C120 C 0.71482 0.98235 0.23077 0.0
C121 C 0.67851 0.94917 0.24958 0.0
C122 C 0.64682 0.97164 0.29321 0.0
C123 C 0.75697 0.07474 0.2375 0.0
C124 C 0.673 0.88999 0.22336 0.0
H125 H 0.76936 0.96811 0.02109 0.0
H126 H 0.86238 0.91783 0.18259 0.0
H127 H 0.6631 0.96918 0.1067 0.0
H128 H 0.69097 0.03415 0.10215 0.0
H129 H 0.68865 0.98483 0.0319 0.0
H130 H 0.8354 0.9043 0.28811 0.0
H131 H 0.80909 0.96995 0.30738 0.0
H132 H 0.77367 0.90923 0.29989 0.0
H133 H 0.6905 0.10121 0.32037 0.0
H134 H 0.61866 0.94617 0.30634 0.0
H135 H 0.75403 0.07786 0.18302 0.0
H136 H 0.79185 0.05693 0.25148 0.0
H137 H 0.75538 0.11678 0.26181 0.0
H138 H 0.66644 0.88776 0.1686 0.0
H139 H 0.64371 0.86915 0.24419 0.0
H140 H 0.70586 0.8671 0.23535 0.0
C141 C 0.0511 0.79636 0.09705 0.0
C142 C 0.05549 0.85247 0.11599 0.0
C143 C 0.04597 0.75781 0.14404 0.0
C144 C 0.04528 0.77599 0.21163 0.0
C145 C 0.05572 0.83168 0.23178 0.0
C146 C 0.06075 0.86952 0.18343 0.0
C147 C 0.03577 0.69879 0.12019 0.0
C148 C 0.05652 0.85252 0.30348 0.0
C149 C 0.95921 0.69661 0.30156 0.0
C150 C 0.98866 0.65951 0.33485 0.0
C151 C 0.9775 0.73607 0.2634 0.0
C152 C 0.02654 0.73868 0.25836 0.0
C153 C 0.05663 0.70258 0.29343 0.0
C154 C 0.03737 0.66332 0.33088 0.0
C155 C 0.94411 0.77402 0.22692 0.0
C156 C 0.10904 0.70411 0.28959 0.0
H157 H 0.04681 0.78334 0.04473 0.0
H158 H 0.06363 0.91301 0.19808 0.0
H159 H 0.05587 0.67031 0.15221 0.0
H160 H 0.99795 0.69021 0.1228 0.0
H161 H 0.04434 0.68985 0.06822 0.0
H162 H 0.07479 0.89274 0.31266 0.0
H163 H 0.01998 0.85787 0.31708 0.0
H164 H 0.07398 0.82272 0.33644 0.0
H165 H 0.92175 0.69467 0.30509 0.0
H166 H 0.06063 0.63455 0.35543 0.0
H167 H 0.94579 0.76622 0.1727 0.0
H168 H 0.95446 0.81742 0.23983 0.0
H169 H 0.90726 0.76857 0.23852 0.0
H170 H 0.1175 0.68868 0.23937 0.0
H171 H 0.12801 0.67852 0.32644 0.0
H172 H 0.12229 0.74689 0.2978 0.0
C173 C 0.1974 0.986 0.23493 0.0
C174 C 0.19328 0.03667 0.20581 0.0
C175 C 0.23284 0.97665 0.28487 0.0
C176 C 0.26462 0.01937 0.30751 0.0
C177 C 0.25753 0.07239 0.2835 0.0
C178 C 0.22198 0.08043 0.23251 0.0
C179 C 0.23878 0.9195 0.30877 0.0
C180 C 0.28966 0.11956 0.30807 0.0
C181 C 0.35102 0.99324 0.45607 0.0
C182 C 0.39169 0.97884 0.42502 0.0
C183 C 0.30952 0.00755 0.41881 0.0
C184 C 0.30845 0.00624 0.34882 0.0
C185 C 0.34914 0.99013 0.31732 0.0
C186 C 0.39037 0.97741 0.35583 0.0
C187 C 0.2674 0.02579 0.45445 0.0
C188 C 0.34928 0.98663 0.24277 0.0
H189 H 0.17473 0.95215 0.21548 0.0
H190 H 0.21891 0.11974 0.2106 0.0
H191 H 0.27031 0.90024 0.28891 0.0
H192 H 0.24428 0.92096 0.36358 0.0
H193 H 0.20801 0.89285 0.29246 0.0
H194 H 0.27477 0.15965 0.2939 0.0
H195 H 0.29659 0.12079 0.36276 0.0
H196 H 0.3238 0.11385 0.28649 0.0
H197 H 0.35223 0.9958 0.50972 0.0
H198 H 0.42187 0.96675 0.3318 0.0
H199 H 0.23591 0.00187 0.43435 0.0
H200 H 0.25991 0.06957 0.4462 0.0
H201 H 0.2729 0.02122 0.50864 0.0
H202 H 0.32131 0.95817 0.22027 0.0
H203 H 0.38339 0.97205 0.22599 0.0
H204 H 0.34169 0.02756 0.22369 0.0
C205 C 0.07327 0.84306 0.80567 0.0
C206 C 0.03679 0.86702 0.83959 0.0
C207 C 0.06684 0.79382 0.76697 0.0
C208 C 0.02234 0.76834 0.76029 0.0
C209 C 0.98416 0.79456 0.78966 0.0
C210 C 0.99191 0.8437 0.8296 0.0
C211 C 0.10861 0.76737 0.73683 0.0
C212 C 0.93582 0.76942 0.78168 0.0
C213 C 1.01243 0.65422 0.62402 0.0
C214 C 0.02091 0.60755 0.66007 0.0
C215 C 1.00984 0.7066 0.6563 0.0
C216 C 0.01747 0.71263 0.72615 0.0
C217 C 0.02599 0.6656 0.76282 0.0
C218 C 0.02683 0.61343 0.7293 0.0
C219 C 0.99934 0.75551 0.61565 0.0
C220 C 0.03554 0.67054 0.83729 0.0
H221 H 0.1079 0.86148 0.81203 0.0
H222 H 0.96355 0.86214 0.85539 0.0
H223 H 0.11654 0.72761 0.7589 0.0
H224 H 0.10073 0.75853 0.68277 0.0
H225 H 0.14047 0.7936 0.74499 0.0
H226 H 0.9087 0.79912 0.79721 0.0
H227 H 0.92655 0.75435 0.72943 0.0
H228 H 0.93517 0.73361 0.81251 0.0
H229 H 1.00645 0.64966 0.57047 0.0
H230 H 0.03273 0.57725 0.75714 0.0
H231 H 0.0306 0.78252 0.6186 0.0
H232 H 0.97049 0.78016 0.63572 0.0
H233 H 0.98931 0.74317 0.56267 0.0
H234 H 0.06789 0.69503 0.85118 0.0
H235 H 0.03999 0.62988 0.8586 0.0
H236 H 1.00639 0.69257 0.86011 0.0
C237 C 0.2638 0.09192 0.89429 0.0
C238 C 0.24703 0.03879 0.90205 0.0
C239 C 0.3004 0.10081 0.85464 0.0
C240 C 0.32143 0.05554 0.82169 0.0
C241 C 0.30567 0.00159 0.83025 0.0
C242 C 0.26861 0.99381 0.87034 0.0
C243 C 0.31592 0.15902 0.84703 0.0
C244 C 0.32745 0.95224 0.79615 0.0
C245 C 0.38257 0.08728 0.66919 0.0
C246 C 0.42975 0.09118 0.69438 0.0
C247 C 0.34719 0.07455 0.70961 0.0
C248 C 0.35909 0.06546 0.7772 0.0
C249 C 0.40658 0.06963 0.80313 0.0
C250 C 0.44127 0.0825 0.76153 0.0
C251 C 0.297 0.07111 0.67998 0.0
C252 C 0.42078 0.06031 0.87486 0.0
H253 H 0.2479 0.12723 0.91872 0.0
H254 H 0.25606 0.95267 0.87583 0.0
H255 H 0.35394 0.16358 0.86207 0.0
H256 H 0.31036 0.16861 0.79427 0.0
H257 H 0.2966 0.18972 0.87712 0.0
H258 H 0.31273 0.91298 0.80997 0.0
H259 H 0.32156 0.95429 0.74164 0.0
H260 H 0.36591 0.95224 0.8089 0.0
H261 H 0.37333 0.09409 0.61751 0.0
H262 H 0.47761 0.08421 0.78126 0.0
H263 H 0.27544 0.10218 0.70588 0.0
H264 H 0.28216 0.03018 0.68688 0.0
H265 H 0.29371 0.07802 0.62623 0.0
H266 H 0.40355 0.09107 0.90742 0.0
H267 H 0.45931 0.06326 0.8869 0.0
H268 H 0.40886 0.01916 0.88665 0.0
C269 C 0.96333 0.15889 0.85797 0.0
C270 C 1.00475 0.17208 0.89806 0.0
C271 C 0.94382 0.1951 0.8121 0.0
C272 C 0.96642 0.24569 0.80564 0.0
C273 C 1.00713 0.26027 0.84772 0.0
C274 C 0.02567 0.22347 0.8935 0.0
C275 C 0.89998 0.17835 0.7689 0.0
C276 C 0.03251 0.31369 0.84219 0.0
C277 C 0.95769 0.31004 0.63991 0.0
C278 C 0.92878 0.35561 0.65165 0.0
C279 C 0.96892 0.27307 0.68885 0.0
C280 C 0.95026 0.28122 0.75112 0.0
C281 C 0.91879 0.32518 0.76207 0.0
C282 C 0.90854 0.36201 0.71229 0.0
C283 C 1.00248 0.22664 0.67482 0.0
C284 C 0.89765 0.33483 0.82742 0.0
H285 H 0.94689 0.11937 0.86065 0.0
H286 H 0.05755 0.23435 0.92418 0.0
H287 H 0.8723 0.20976 0.77507 0.0
H288 H 0.90724 0.17589 0.71598 0.0
H289 H 0.88628 0.13798 0.78071 0.0
H290 H 0.06183 0.32061 0.88135 0.0
H291 H 0.04689 0.31354 0.79313 0.0
H292 H 1.00783 0.34872 0.84557 0.0
H293 H 0.97269 0.30413 0.59275 0.0
H294 H 0.8864 0.39716 0.72212 0.0
H295 H 0.98677 0.18681 0.68451 0.0
H296 H 0.035 0.23219 0.70848 0.0
H297 H 1.01212 0.22444 0.62286 0.0
H298 H 0.88262 0.29616 0.84233 0.0
H299 H 0.86976 0.36661 0.82545 0.0
H300 H 0.9254 0.34841 0.86653 0.0
C301 C 0.83814 0.96773 0.78025 0.0
C302 C 0.84647 0.01591 0.82155 0.0
C303 C 0.79631 0.9601 0.73938 0.0
C304 C 0.76224 0.00222 0.73812 0.0
C305 C 0.77226 0.05296 0.77476 0.0
C306 C 0.81408 0.05907 0.81653 0.0
C307 C 0.78717 0.90524 0.70155 0.0
C308 C 0.73754 0.09964 0.77307 0.0
C309 C 0.66111 0.98971 0.60305 0.0
C310 C 0.62442 0.97127 0.63779 0.0
C311 C 0.70597 1.00043 0.63501 0.0
C312 C 0.71482 0.99131 0.70307 0.0
C313 C 0.67837 0.9709 0.73783 0.0
C314 C 0.63351 0.96181 0.70501 0.0
C315 C 0.74343 0.02328 0.59649 0.0
C316 C 0.68659 0.95936 0.81007 0.0
H317 H 0.863 0.93416 0.783 0.0
H318 H 0.82005 0.0965 0.84792 0.0
H319 H 0.75869 0.88362 0.72318 0.0
H320 H 0.77527 0.91091 0.64903 0.0
H321 H 0.81873 0.87855 0.70315 0.0
H322 H 0.75329 0.13868 0.79586 0.0
H323 H 0.72389 0.10601 0.72133 0.0
H324 H 0.70725 0.0894 0.8006 0.0
H325 H 0.65429 0.99819 0.55137 0.0
H326 H 0.6053 0.94794 0.73221 0.0
H327 H 0.77485 0.99651 0.59895 0.0
H328 H 0.75455 0.06435 0.61896 0.0
H329 H 0.73118 0.02726 0.5436 0.0
H330 H 0.71635 0.93047 0.81727 0.0
H331 H 0.65522 0.94148 0.82922 0.0
H332 H 0.69616 0.99792 0.84014 0.0
loop_
_geom_bond_atom_site_label_1
_geom_bond_atom_site_label_2
_geom_bond_distance
_geom_bond_site_symmetry_2
_ccdc_geom_bond_type
C0 O27 1.312 1_655 S
C0 O28 1.208 . S
C1 O22 1.331 1_545 S
C1 O25 1.244 . S
C2 O24 1.264 1_545 S
C2 O26 1.273 . S
Mg3 O5 1.936 1_564 S
Mg3 O12 2.081 1_554 S
Mg3 O14 2.023 . S
Mg3 O18 2.031 1_554 S
Mg3 O27 2.291 . S
Mg4 O5 1.963 . S
Mg4 O15 1.942 . S
Mg4 O16 1.955 1_556 S
Mg4 O23 1.986 . S
O5 Mg3 1.936 1_546 S
O5 Mg4 1.963 . S
O5 Mg6 1.915 1_556 S
Mg6 O5 1.915 1_554 S
Mg6 O7 1.915 1_455 S
Mg6 O11 2.013 . S
Mg6 O17 2.114 1_444 S
Mg6 O21 2.013 1_454 S
Mg6 O27 2.114 1_545 S
O7 Mg6 1.915 1_655 S
O7 Mg8 1.936 1_544 S
O7 Mg9 1.963 . S
Mg8 O7 1.936 1_566 S
Mg8 O17 2.291 . S
Mg8 O22 2.081 1_556 S
Mg8 O24 2.023 . S
Mg8 O28 2.031 1_556 S
Mg9 O7 1.963 . S
Mg9 O13 1.986 . S
Mg9 O25 1.942 . S
Mg9 O26 1.955 1_554 S
C10 O21 1.191 1_455 S
C10 O23 1.307 . S
O11 Mg6 2.013 . S
O11 C30 1.191 1_455 S
O12 Mg3 2.081 1_556 S
O12 C20 1.331 . S
O13 Mg9 1.986 . S
O13 C30 1.307 . S
O14 Mg3 2.023 . S
O14 C29 1.264 1_565 S
O15 Mg4 1.942 . S
O15 C20 1.244 1_545 S
O16 Mg4 1.955 1_554 S
O16 C29 1.273 . S
O17 Mg6 2.114 1_666 S
O17 Mg8 2.291 . S
O17 C19 1.312 1_655 S
O18 Mg3 2.031 1_556 S
O18 C19 1.208 . S
C19 O17 1.312 1_455 S
C19 O18 1.208 . S
C20 O12 1.331 . S
C20 O15 1.244 1_565 S
O21 Mg6 2.013 1_656 S
O21 C10 1.191 1_655 S
O22 C1 1.331 1_565 S
O22 Mg8 2.081 1_554 S
O23 Mg4 1.986 . S
O23 C10 1.307 . S
O24 C2 1.264 1_565 S
O24 Mg8 2.023 . S
O25 C1 1.244 . S
O25 Mg9 1.942 . S
O26 C2 1.273 . S
O26 Mg9 1.955 1_556 S
O27 C0 1.312 1_455 S
O27 Mg3 2.291 . S
O27 Mg6 2.114 1_565 S
O28 C0 1.208 . S
O28 Mg8 2.031 1_554 S
C29 O14 1.264 1_545 S
C29 O16 1.273 . S
C30 O11 1.191 1_655 S
C30 O13 1.307 . S
Cu31 N32 1.999 . S
Cu31 O37 1.974 . S
Cu31 N42 1.985 . S
Cu31 O51 1.959 . S
N32 Cu31 1.999 . S
N32 C34 1.263 . S
N32 C36 1.389 . S
N33 C34 1.358 . S
N33 C35 1.400 . S
C34 N32 1.263 . S
C34 N33 1.358 . S
C34 H40 0.930 1_655 S
C35 N33 1.400 . S
C35 C36 1.351 . S
C35 H52 0.930 . S
C36 N32 1.389 . S
C36 C35 1.351 . S
C36 H41 0.930 . S
O37 Cu31 1.974 . S
O37 C47 1.282 1_655 S
C38 O39 1.261 . S
C38 O51 1.251 1_455 S
O39 C38 1.261 . S
H40 C34 0.930 1_455 S
H41 C36 0.930 . S
N42 Cu31 1.985 . S
N42 C44 1.335 . S
N42 C45 1.390 1_655 S
N43 C44 1.345 . S
N43 C46 1.336 1_655 S
C44 N42 1.335 . S
C44 N43 1.345 . S
C44 H49 0.930 . S
C45 N42 1.390 1_455 S
C45 C46 1.346 . S
C45 H50 0.930 . S
C46 N43 1.336 1_455 S
C46 C45 1.346 . S
C46 H53 0.929 . S
C47 O37 1.282 1_455 S
C47 O48 1.216 . S
O48 C47 1.216 . S
H49 C44 0.930 . S
H50 C45 0.930 . S
O51 Cu31 1.959 . S
O51 C38 1.251 1_655 S
H52 C35 0.930 . S
H53 C46 0.929 . S
Cu54 N55 1.999 . S
Cu54 O60 1.974 . S
Cu54 N65 1.985 . S
Cu54 O74 1.959 . S
N55 Cu54 1.999 . S
N55 C57 1.263 . S
N55 C59 1.389 . S
N56 C57 1.358 . S
N56 C58 1.400 . S
C57 N55 1.263 . S
C57 N56 1.358 . S
C57 H63 0.930 1_545 S
C58 N56 1.400 . S
C58 C59 1.351 . S
C58 H75 0.930 . S
C59 N55 1.389 . S
C59 C58 1.351 . S
C59 H64 0.930 . S
O60 Cu54 1.974 . S
O60 C70 1.282 1_545 S
C61 O62 1.261 . S
C61 O74 1.251 1_565 S
O62 C61 1.261 . S
H63 C57 0.930 1_565 S
H64 C59 0.930 . S
N65 Cu54 1.985 . S
N65 C67 1.335 . S
N65 C68 1.390 1_545 S
N66 C67 1.345 . S
N66 C69 1.336 1_545 S
C67 N65 1.335 . S
C67 N66 1.345 . S
C67 H72 0.930 . S
C68 N65 1.390 1_565 S
C68 C69 1.346 . S
C68 H73 0.930 . S
C69 N66 1.336 1_565 S
C69 C68 1.346 . S
C69 H76 0.929 . S
C70 O60 1.282 1_565 S
C70 O71 1.216 . S
O71 C70 1.216 . S
H72 C67 0.930 . S
H73 C68 0.930 . S
O74 Cu54 1.959 . S
O74 C61 1.251 1_545 S
H75 C58 0.930 . S
H76 C69 0.929 . S
C77 C78 1.391 . S
C77 C79 1.394 . S
C77 H93 0.931 . S
C78 C77 1.391 . S
C78 C82 1.376 1_455 S
C79 C77 1.394 . S
C79 C80 1.374 . S
C79 C83 1.531 . S
C80 C79 1.374 . S
C80 C81 1.404 1_455 S
C80 C88 1.504 . S
C81 C80 1.404 1_655 S
C81 C82 1.392 . S
C81 C84 1.511 . S
C82 C78 1.376 1_655 S
C82 C81 1.392 . S
C82 H94 0.929 . S
C83 C79 1.531 . S
C83 H95 0.960 . S
C83 H96 0.962 . S
C83 H97 0.960 . S
C84 C81 1.511 . S
C84 H98 0.961 . S
C84 H99 0.961 . S
C84 H100 0.961 . S
C85 C86 1.370 . S
C85 C87 1.363 . S
C85 H101 0.931 . S
C86 C85 1.370 . S
C86 C90 1.408 1_455 S
C87 C85 1.363 . S
C87 C88 1.370 . S
C87 C91 1.524 . S
C88 C80 1.504 . S
C88 C87 1.370 . S
C88 C89 1.403 1_455 S
C89 C88 1.403 1_655 S
C89 C90 1.404 . S
C89 C92 1.539 . S
C90 C86 1.408 1_655 S
C90 C89 1.404 . S
C90 H102 0.930 . S
C91 C87 1.524 . S
C91 H103 0.956 . S
C91 H104 0.961 . S
C91 H105 0.961 . S
C92 C89 1.539 . S
C92 H106 0.958 . S
C92 H107 0.961 . S
C92 H108 0.960 . S
H93 C77 0.931 . S
H94 C82 0.929 . S
H95 C83 0.960 . S
H96 C83 0.962 . S
H97 C83 0.960 . S
H98 C84 0.961 . S
H99 C84 0.961 . S
H100 C84 0.961 . S
H101 C85 0.931 . S
H102 C90 0.930 . S
H103 C91 0.956 . S
H104 C91 0.961 . S
H105 C91 0.961 . S
H106 C92 0.958 . S
H107 C92 0.961 . S
H108 C92 0.960 . S
C109 C110 1.391 . S
C109 C111 1.394 . S
C109 H125 0.931 . S
C110 C109 1.391 . S
C110 C114 1.376 1_565 S
C111 C109 1.394 . S
C111 C112 1.369 . S
C111 C115 1.531 . S
C112 C111 1.369 . S
C112 C113 1.410 1_565 S
C112 C120 1.503 1_565 S
C113 C112 1.410 1_545 S
C113 C114 1.392 . S
C113 C116 1.511 . S
C114 C110 1.376 1_545 S
C114 C113 1.392 . S
C114 H126 0.929 . S
C115 C111 1.531 . S
C115 H127 0.960 . S
C115 H128 0.962 1_565 S
C115 H129 0.960 . S
C116 C113 1.511 . S
C116 H130 0.961 . S
C116 H131 0.961 . S
C116 H132 0.961 1_545 S
C117 C118 1.370 . S
C117 C119 1.363 . S
C117 H133 0.931 . S
C118 C117 1.370 . S
C118 C122 1.408 1_545 S
C119 C117 1.363 . S
C119 C120 1.370 . S
C119 C123 1.524 . S
C120 C112 1.503 1_545 S
C120 C119 1.370 . S
C120 C121 1.403 1_545 S
C121 C120 1.403 1_565 S
C121 C122 1.404 . S
C121 C124 1.539 . S
C122 C118 1.408 1_565 S
C122 C121 1.404 . S
C122 H134 0.930 . S
C123 C119 1.524 . S
C123 H135 0.956 . S
C123 H136 0.961 . S
C123 H137 0.961 . S
C124 C121 1.539 . S
C124 H138 0.958 . S
C124 H139 0.961 . S
C124 H140 0.960 . S
H125 C109 0.931 . S
H126 C114 0.929 . S
H127 C115 0.960 . S
H128 C115 0.962 1_545 S
H129 C115 0.960 . S
H130 C116 0.961 . S
H131 C116 0.961 . S
H132 C116 0.961 1_565 S
H133 C117 0.931 . S
H134 C122 0.930 . S
H135 C123 0.956 . S
H136 C123 0.961 . S
H137 C123 0.961 . S
H138 C124 0.958 . S
H139 C124 0.961 . S
H140 C124 0.960 . S
C141 C142 1.391 . S
C141 C143 1.394 . S
C141 H157 0.931 . S
C142 C141 1.391 . S
C142 C146 1.376 . S
C143 C141 1.394 . S
C143 C144 1.369 . S
C143 C147 1.531 . S
C144 C143 1.369 . S
C144 C145 1.410 . S
C144 C152 1.503 . S
C145 C144 1.410 . S
C145 C146 1.392 . S
C145 C148 1.511 . S
C146 C142 1.376 . S
C146 C145 1.392 . S
C146 H158 0.929 . S
C147 C143 1.531 . S
C147 H159 0.960 . S
C147 H160 0.962 1_455 S
C147 H161 0.960 . S
C148 C145 1.511 . S
C148 H162 0.961 1_455 S
C148 H163 0.961 1_455 S
C148 H164 0.961 . S
C149 C150 1.370 . S
C149 C151 1.363 . S
C149 H165 0.931 . S
C150 C149 1.370 . S
C150 C154 1.408 1_655 S
C151 C149 1.363 . S
C151 C152 1.370 1_655 S
C151 C155 1.524 . S
C152 C144 1.503 . S
C152 C151 1.370 1_455 S
C152 C153 1.403 . S
C153 C152 1.403 . S
C153 C154 1.404 . S
C153 C156 1.539 . S
C154 C150 1.408 1_455 S
C154 C153 1.404 . S
C154 H166 0.930 . S
C155 C151 1.524 . S
C155 H167 0.956 . S
C155 H168 0.961 . S
C155 H169 0.961 . S
C156 C153 1.539 . S
C156 H170 0.958 . S
C156 H171 0.961 . S
C156 H172 0.960 . S
H157 C141 0.931 . S
H158 C146 0.929 . S
H159 C147 0.960 . S
H160 C147 0.962 1_655 S
H161 C147 0.960 . S
H162 C148 0.961 1_655 S
H163 C148 0.961 1_655 S
H164 C148 0.961 . S
H165 C149 0.931 . S
H166 C154 0.930 . S
H167 C155 0.956 . S
H168 C155 0.961 . S
H169 C155 0.961 . S
H170 C156 0.958 . S
H171 C156 0.961 . S
H172 C156 0.960 . S
C173 C174 1.391 1_565 S
C173 C175 1.394 . S
C173 H189 0.931 . S
C174 C173 1.391 1_545 S
C174 C178 1.376 . S
C175 C173 1.394 . S
C175 C176 1.369 1_565 S
C175 C179 1.531 . S
C176 C175 1.369 1_545 S
C176 C177 1.410 . S
C176 C184 1.503 . S
C177 C176 1.410 . S
C177 C178 1.392 . S
C177 C180 1.511 . S
C178 C174 1.376 . S
C178 C177 1.392 . S
C178 H190 0.929 . S
C179 C175 1.531 . S
C179 H191 0.960 . S
C179 H192 0.962 . S
C179 H193 0.960 . S
C180 C177 1.511 . S
C180 H194 0.961 . S
C180 H195 0.961 . S
C180 H196 0.961 . S
C181 C182 1.370 . S
C181 C183 1.363 . S
C181 H197 0.931 . S
C182 C181 1.370 . S
C182 C186 1.408 1_565 S
C183 C181 1.363 . S
C183 C184 1.370 1_565 S
C183 C187 1.524 . S
C184 C176 1.503 . S
C184 C183 1.370 1_545 S
C184 C185 1.403 . S
C185 C184 1.403 . S
C185 C186 1.404 . S
C185 C188 1.539 . S
C186 C182 1.408 1_545 S
C186 C185 1.404 . S
C186 H198 0.930 . S
C187 C183 1.524 . S
C187 H199 0.956 . S
C187 H200 0.961 1_565 S
C187 H201 0.961 . S
C188 C185 1.539 . S
C188 H202 0.958 . S
C188 H203 0.961 . S
C188 H204 0.960 . S
H189 C173 0.931 . S
H190 C178 0.929 . S
H191 C179 0.960 . S
H192 C179 0.962 . S
H193 C179 0.960 . S
H194 C180 0.961 . S
H195 C180 0.961 . S
H196 C180 0.961 . S
H197 C181 0.931 . S
H198 C186 0.930 . S
H199 C187 0.956 . S
H200 C187 0.961 1_545 S
H201 C187 0.961 . S
H202 C188 0.958 . S
H203 C188 0.961 . S
H204 C188 0.960 . S
C205 C206 1.391 1_455 S
C205 C207 1.394 . S
C205 H221 0.931 . S
C206 C205 1.391 1_655 S
C206 C210 1.376 . S
C207 C205 1.394 . S
C207 C208 1.369 . S
C207 C211 1.531 . S
C208 C207 1.369 . S
C208 C209 1.410 1_455 S
C208 C216 1.503 . S
C209 C208 1.410 1_655 S
C209 C210 1.392 . S
C209 C212 1.511 . S
C210 C206 1.376 . S
C210 C209 1.392 . S
C210 H222 0.929 . S
C211 C207 1.531 . S
C211 H223 0.960 . S
C211 H224 0.962 . S
C211 H225 0.960 . S
C212 C209 1.511 . S
C212 H226 0.961 . S
C212 H227 0.961 . S
C212 H228 0.961 . S
C213 C214 1.370 . S
C213 C215 1.363 . S
C213 H229 0.931 . S
C214 C213 1.370 . S
C214 C218 1.408 . S
C215 C213 1.363 . S
C215 C216 1.370 . S
C215 C219 1.524 1_455 S
C216 C208 1.503 . S
C216 C215 1.370 . S
C216 C217 1.403 . S
C217 C216 1.403 . S
C217 C218 1.404 . S
C217 C220 1.539 . S
C218 C214 1.408 . S
C218 C217 1.404 . S
C218 H230 0.930 . S
C219 C215 1.524 1_655 S
C219 H231 0.956 1_655 S
C219 H232 0.961 . S
C219 H233 0.961 . S
C220 C217 1.539 . S
C220 H234 0.958 . S
C220 H235 0.961 . S
C220 H236 0.960 . S
H221 C205 0.931 . S
H222 C210 0.929 . S
H223 C211 0.960 . S
H224 C211 0.962 . S
H225 C211 0.960 . S
H226 C212 0.961 . S
H227 C212 0.961 . S
H228 C212 0.961 . S
H229 C213 0.931 . S
H230 C218 0.930 . S
H231 C219 0.956 1_455 S
H232 C219 0.961 . S
H233 C219 0.961 . S
H234 C220 0.958 . S
H235 C220 0.961 . S
H236 C220 0.960 . S
C237 C238 1.391 1_545 S
C237 C239 1.394 . S
C237 H253 0.931 . S
C238 C237 1.391 1_565 S
C238 C242 1.376 . S
C239 C237 1.394 . S
C239 C240 1.369 . S
C239 C243 1.531 . S
C240 C239 1.369 . S
C240 C241 1.410 1_545 S
C240 C248 1.503 . S
C241 C240 1.410 1_565 S
C241 C242 1.392 . S
C241 C244 1.511 . S
C242 C238 1.376 . S
C242 C241 1.392 . S
C242 H254 0.929 . S
C243 C239 1.531 . S
C243 H255 0.960 . S
C243 H256 0.962 . S
C243 H257 0.960 . S
C244 C241 1.511 . S
C244 H258 0.961 . S
C244 H259 0.961 . S
C244 H260 0.961 . S
C245 C246 1.370 1_565 S
C245 C247 1.363 . S
C245 H261 0.931 . S
C246 C245 1.370 1_545 S
C246 C250 1.408 . S
C247 C245 1.363 . S
C247 C248 1.370 1_565 S
C247 C251 1.524 . S
C248 C240 1.503 . S
C248 C247 1.370 1_545 S
C248 C249 1.403 . S
C249 C248 1.403 . S
C249 C250 1.404 . S
C249 C252 1.539 . S
C250 C246 1.408 . S
C250 C249 1.404 . S
C250 H262 0.930 . S
C251 C247 1.524 . S
C251 H263 0.956 . S
C251 H264 0.961 . S
C251 H265 0.961 . S
C252 C249 1.539 . S
C252 H266 0.958 . S
C252 H267 0.961 . S
C252 H268 0.960 . S
H253 C237 0.931 . S
H254 C242 0.929 . S
H255 C243 0.960 . S
H256 C243 0.962 . S
H257 C243 0.960 . S
H258 C244 0.961 . S
H259 C244 0.961 . S
H260 C244 0.961 . S
H261 C245 0.931 . S
H262 C250 0.930 . S
H263 C251 0.956 . S
H264 C251 0.961 . S
H265 C251 0.961 . S
H266 C252 0.958 . S
H267 C252 0.961 . S
H268 C252 0.960 . S
C269 C270 1.391 1_655 S
C269 C271 1.394 . S
C269 H285 0.931 . S
C270 C269 1.391 1_455 S
C270 C274 1.376 . S
C271 C269 1.394 . S
C271 C272 1.369 1_655 S
C271 C275 1.531 . S
C272 C271 1.369 1_455 S
C272 C273 1.410 . S
C272 C280 1.503 1_455 S
C273 C272 1.410 . S
C273 C274 1.392 . S
C273 C276 1.511 . S
C274 C270 1.376 . S
C274 C273 1.392 . S
C274 H286 0.929 . S
C275 C271 1.531 . S
C275 H287 0.960 . S
C275 H288 0.962 . S
C275 H289 0.960 . S
C276 C273 1.511 . S
C276 H290 0.961 . S
C276 H291 0.961 . S
C276 H292 0.961 . S
C277 C278 1.370 . S
C277 C279 1.363 . S
C277 H293 0.931 . S
C278 C277 1.370 . S
C278 C282 1.408 1_655 S
C279 C277 1.363 . S
C279 C280 1.381 . S
C279 C283 1.524 . S
C280 C272 1.503 1_655 S
C280 C279 1.381 . S
C280 C281 1.393 1_655 S
C281 C280 1.393 1_455 S
C281 C282 1.404 . S
C281 C284 1.539 . S
C282 C278 1.408 1_455 S
C282 C281 1.404 . S
C282 H294 0.930 . S
C283 C279 1.524 . S
C283 H295 0.956 . S
C283 H296 0.961 . S
C283 H297 0.961 . S
C284 C281 1.539 . S
C284 H298 0.958 . S
C284 H299 0.961 . S
C284 H300 0.960 . S
H285 C269 0.931 . S
H286 C274 0.929 . S
H287 C275 0.960 . S
H288 C275 0.962 . S
H289 C275 0.960 . S
H290 C276 0.961 . S
H291 C276 0.961 . S
H292 C276 0.961 . S
H293 C277 0.931 . S
H294 C282 0.930 . S
H295 C283 0.956 . S
H296 C283 0.961 . S
H297 C283 0.961 . S
H298 C284 0.958 . S
H299 C284 0.961 . S
H300 C284 0.960 . S
C301 C302 1.391 1_565 S
C301 C303 1.394 . S
C301 H317 0.931 . S
C302 C301 1.391 1_545 S
C302 C306 1.376 . S
C303 C301 1.394 . S
C303 C304 1.369 1_565 S
C303 C307 1.531 . S
C304 C303 1.369 1_545 S
C304 C305 1.410 . S
C304 C312 1.503 1_545 S
C305 C304 1.410 . S
C305 C306 1.392 . S
C305 C308 1.511 . S
C306 C302 1.376 . S
C306 C305 1.392 . S
C306 H318 0.929 . S
C307 C303 1.531 . S
C307 H319 0.960 . S
C307 H320 0.962 . S
C307 H321 0.960 . S
C308 C305 1.511 . S
C308 H322 0.961 . S
C308 H323 0.961 . S
C308 H324 0.961 . S
C309 C310 1.370 1_545 S
C309 C311 1.363 . S
C309 H325 0.931 . S
C310 C309 1.370 1_565 S
C310 C314 1.408 . S
C311 C309 1.363 . S
C311 C312 1.370 1_545 S
C311 C315 1.524 . S
C312 C304 1.503 1_565 S
C312 C311 1.370 1_565 S
C312 C313 1.403 . S
C313 C312 1.403 . S
C313 C314 1.404 . S
C313 C316 1.539 . S
C314 C310 1.408 . S
C314 C313 1.404 . S
C314 H326 0.930 . S
C315 C311 1.524 . S
C315 H327 0.956 1_545 S
C315 H328 0.961 . S
C315 H329 0.961 . S
C316 C313 1.539 . S
C316 H330 0.958 . S
C316 H331 0.961 . S
C316 H332 0.960 . S
H317 C301 0.931 . S
H318 C306 0.929 . S
H319 C307 0.960 . S
H320 C307 0.962 . S
H321 C307 0.960 . S
H322 C308 0.961 . S
H323 C308 0.961 . S
H324 C308 0.961 . S
H325 C309 0.931 . S
H326 C314 0.930 . S
H327 C315 0.956 1_565 S
H328 C315 0.961 . S
H329 C315 0.961 . S
H330 C316 0.958 . S
H331 C316 0.961 . S
H332 C316 0.960 . S
C78 C30 1.351 1_455 S
C86 C47 1.417 . S
C110 C1 1.470 1_565 S
C118 N66 1.449 . S
C142 C0 1.309 1_455 S
C150 N43 1.302 . S
C174 C29 1.594 . S
C182 C70 1.657 . S
C206 C19 1.367 1_655 S
C214 C38 1.477 . S
C238 C20 1.476 . S
C246 N56 1.502 . S
C278 N33 1.325 . S
C270 C10 1.290 . S
C302 C2 1.623 . S
C310 C61 1.690 . S
