# Generated by pormake.
# Topology pth, (4,4)-cn, num edge types: 1
# Building blocks:
#     Node 0, Type 0, BuildingBlock: QUQFOY_clean_sbu_3, # of connection points: 4
#     Node 1, Type 0, BuildingBlock: QUQFOY_clean_sbu_3, # of connection points: 4
#     Node 2, Type 0, BuildingBlock: QUQFOY_clean_sbu_3, # of connection points: 4
#     Node 3, Type 1, BuildingBlock: NAWXER_clean_sbu_0, # of connection points: 4
#     Node 4, Type 1, BuildingBlock: NAWXER_clean_sbu_0, # of connection points: 4
#     Node 5, Type 1, BuildingBlock: NAWXER_clean_sbu_0, # of connection points: 4
#     Edge 6, Type (0, 1), BuildingBlock: KIFKEQ_clean_linker_1, # of connection points: 2
#     Edge 7, Type (0, 1), BuildingBlock: KIFKEQ_clean_linker_1, # of connection points: 2
#     Edge 8, Type (0, 1), BuildingBlock: KIFKEQ_clean_linker_1, # of connection points: 2
#     Edge 9, Type (0, 1), BuildingBlock: KIFKEQ_clean_linker_1, # of connection points: 2
#     Edge 10, Type (0, 1), BuildingBlock: KIFKEQ_clean_linker_1, # of connection points: 2
#     Edge 11, Type (0, 1), BuildingBlock: KIFKEQ_clean_linker_1, # of connection points: 2
#     Edge 12, Type (0, 1), BuildingBlock: KIFKEQ_clean_linker_1, # of connection points: 2
#     Edge 13, Type (0, 1), BuildingBlock: KIFKEQ_clean_linker_1, # of connection points: 2
#     Edge 14, Type (0, 1), BuildingBlock: KIFKEQ_clean_linker_1, # of connection points: 2
#     Edge 15, Type (0, 1), BuildingBlock: KIFKEQ_clean_linker_1, # of connection points: 2
#     Edge 16, Type (0, 1), BuildingBlock: KIFKEQ_clean_linker_1, # of connection points: 2
#     Edge 17, Type (0, 1), BuildingBlock: KIFKEQ_clean_linker_1, # of connection points: 2
# Relax obj value: 0.004
# Max RMSD: 0.054
# Mean RMSD: 0.030
data_MOF--net-pth--node1-QUQFOY_clean_sbu_3--node2-NAWXER_clean_sbu_0--edge1-KIFKEQ_clean_linker_1
_symmetry_space_group_name_H-M    P1
_symmetry_Int_Tables_number       1
_symmetry_cell_setting            triclinic
loop_
_symmetry_equiv_pos_as_xyz
'x, y, z'
_cell_length_a     23.533474
_cell_length_b     23.36813
_cell_length_c     60.54968
_cell_angle_alpha  89.983419
_cell_angle_beta   90.87054
_cell_angle_gamma 120.46345
loop_
_atom_site_label
_atom_site_type_symbol
_atom_site_fract_x
_atom_site_fract_y
_atom_site_fract_z
_atom_type_partial_charge
C0 C 0.03991 0.23428 0.0863 0.0
O1 O 0.01106 0.23808 0.06897 0.0
Cd2 Cd 0.97698 0.15953 0.03895 0.0
O3 O 0.04987 0.18591 0.08879 0.0
Cd4 Cd 0.02729 0.08525 0.06746 0.0
C5 C 0.12676 0.17632 0.02678 0.0
O6 O 0.91658 0.04641 0.05046 0.0
O7 O 0.97717 0.01118 0.0364 0.0
O8 O 0.99029 0.02415 0.10196 0.0
C9 C 0.92149 0.00714 0.03716 0.0
O10 O 0.07713 0.18113 0.02097 0.0
C11 C 0.02198 0.99384 0.10007 0.0
O12 O 0.12707 0.14892 0.04498 0.0
O13 O 0.05896 0.00815 0.08343 0.0
C14 C 0.1786 0.13655 0.42864 0.0
O15 O 0.21256 0.18571 0.41622 0.0
Cd16 Cd 0.16344 0.19509 0.38239 0.0
O17 O 0.11656 0.10108 0.42555 0.0
Cd18 Cd 0.02885 0.10169 0.40254 0.0
C19 C 0.08072 0.02895 0.36728 0.0
O20 O 0.07254 0.21295 0.38686 0.0
O21 O 0.99048 0.13038 0.36958 0.0
O22 O 0.99574 0.1315 0.43599 0.0
C23 C 0.02849 0.19266 0.37161 0.0
O24 O 0.12862 0.08812 0.36528 0.0
C25 C 0.93564 0.0859 0.43502 0.0
O26 O 0.03361 0.01568 0.38037 0.0
O27 O 0.91827 0.04424 0.41912 0.0
C28 C 0.89449 0.07341 0.71055 0.0
O29 O 0.89262 0.10759 0.72651 0.0
Cd30 Cd 0.96889 0.14545 0.75733 0.0
O31 O 0.94129 0.06111 0.70948 0.0
Cd32 Cd 0.04116 0.08831 0.73235 0.0
C33 C 0.94711 0.99507 0.77374 0.0
O34 O 0.08245 0.20183 0.74765 0.0
O35 O 0.11024 0.13796 0.76452 0.0
O36 O 0.1129 0.12521 0.70025 0.0
C37 C 0.11795 0.1954 0.76235 0.0
O38 O 0.94302 0.04629 0.77786 0.0
C39 C 0.13542 0.08661 0.70335 0.0
O40 O 0.97562 0.99201 0.7564 0.0
O41 O 0.11152 0.04622 0.71929 0.0
C42 C 0.09307 0.70041 0.26288 0.0
C43 C 0.099 0.5583 0.20456 0.0
O44 O 0.14463 0.70887 0.25332 0.0
Zn45 Zn 0.10001 0.63408 0.23298 0.0
O46 O 0.03623 0.65262 0.2568 0.0
Zn47 Zn 0.99374 0.57283 0.23329 0.0
O48 O 0.95197 0.49717 0.25298 0.0
O49 O 0.06087 0.55226 0.25527 0.0
O50 O 0.04112 0.54031 0.21134 0.0
O51 O 0.14831 0.61163 0.21196 0.0
O52 O 0.04979 0.66804 0.21258 0.0
O53 O 0.94264 0.59709 0.21351 0.0
C54 C 0.00509 0.50434 0.26151 0.0
C55 C 0.99102 0.65064 0.20639 0.0
C56 C 0.55448 0.97779 0.59599 0.0
C57 C 0.4225 0.02311 0.54277 0.0
O58 O 0.5013 0.93318 0.58673 0.0
Zn59 Zn 0.4842 0.99408 0.56939 0.0
O60 O 0.57588 0.03921 0.59226 0.0
Zn61 Zn 0.55174 0.10095 0.57372 0.0
O62 O 0.53133 0.14715 0.59662 0.0
O63 O 0.45902 0.03981 0.59446 0.0
O64 O 0.47298 0.07407 0.55117 0.0
O65 O 0.4098 0.96523 0.54835 0.0
O66 O 0.56639 0.03688 0.54817 0.0
O67 O 0.6281 0.14471 0.55444 0.0
C68 C 0.47888 0.09659 0.60341 0.0
C69 C 0.61732 0.09294 0.54381 0.0
C70 C 0.48548 0.48198 0.92812 0.0
C71 C 0.63766 0.63577 0.87342 0.0
O72 O 0.47323 0.52722 0.92202 0.0
Zn73 Zn 0.50965 0.60953 0.90023 0.0
O74 O 0.53337 0.47953 0.91963 0.0
Zn75 Zn 0.56306 0.55685 0.90066 0.0
O76 O 0.59529 0.63571 0.92426 0.0
O77 O 0.53551 0.68372 0.92044 0.0
O78 O 0.64039 0.58766 0.88216 0.0
O79 O 0.59205 0.64726 0.87901 0.0
O80 O 0.43625 0.58246 0.87953 0.0
O81 O 0.48496 0.52321 0.87667 0.0
C82 C 0.58165 0.67994 0.93027 0.0
C83 C 0.44068 0.53623 0.87013 0.0
H84 H 0.05313 0.35716 0.08295 0.0
H85 H 0.07593 0.22878 0.1291 0.0
H86 H 0.08217 0.43976 0.11225 0.0
H87 H 0.10436 0.31138 0.1584 0.0
H88 H 0.03236 0.42469 0.20454 0.0
H89 H 0.03071 0.34983 0.17623 0.0
H90 H 0.17762 0.51752 0.13989 0.0
H91 H 0.18021 0.59311 0.16876 0.0
C92 C 0.0648 0.34675 0.09929 0.0
C93 C 0.06149 0.28604 0.10375 0.0
C94 C 0.0821 0.39439 0.11599 0.0
C95 C 0.09557 0.38195 0.13756 0.0
C96 C 0.09407 0.32211 0.1419 0.0
C97 C 0.07773 0.27487 0.12513 0.0
C98 C 0.06522 0.44555 0.1907 0.0
C99 C 0.10625 0.51457 0.18874 0.0
C100 C 0.06451 0.40267 0.17457 0.0
C101 C 0.10392 0.42788 0.15586 0.0
C102 C 0.14666 0.49693 0.15416 0.0
C103 C 0.14845 0.54003 0.17067 0.0
H104 H 0.96354 0.1606 0.47249 0.0
H105 H 0.80071 0.01024 0.43358 0.0
H106 H 0.88657 0.1645 0.49795 0.0
H107 H 0.72335 0.01551 0.45872 0.0
H108 H 0.60803 0.98783 0.52135 0.0
H109 H 0.68401 0.98642 0.49526 0.0
H110 H 0.80698 0.19958 0.50137 0.0
H111 H 0.73106 0.20082 0.52834 0.0
C112 C 0.91119 0.12831 0.46936 0.0
C113 C 0.88821 0.08477 0.45107 0.0
C114 C 0.86702 0.13112 0.48386 0.0
C115 C 0.79867 0.09069 0.48037 0.0
C116 C 0.77568 0.04685 0.4621 0.0
C117 C 0.81996 0.04375 0.44765 0.0
C118 C 0.65106 0.03471 0.51715 0.0
C119 C 0.6634 0.09458 0.52703 0.0
C120 C 0.69455 0.03382 0.50198 0.0
C121 C 0.75163 0.09281 0.49609 0.0
C122 C 0.76383 0.15304 0.50574 0.0
C123 C 0.72018 0.15391 0.52109 0.0
H124 H 0.91253 -0.00161 0.81595 0.0
H125 H 0.90873 0.86358 0.76627 0.0
H126 H 0.84374 0.90508 0.83945 0.0
H127 H 0.83894 0.76919 0.79026 0.0
H128 H 0.75094 0.63912 0.85947 0.0
H129 H 0.83518 0.7219 0.83489 0.0
H130 H 0.71841 0.81529 0.82662 0.0
H131 H 0.63524 0.73412 0.85057 0.0
C132 C 0.89782 0.94884 0.81015 0.0
C133 C 0.91497 0.93831 0.78903 0.0
C134 C 0.85864 0.89549 0.82368 0.0
C135 C 0.83562 0.83022 0.8165 0.0
C136 C 0.8564 0.81929 0.79611 0.0
C137 C 0.89602 0.87317 0.78242 0.0
C138 C 0.74314 0.67695 0.85217 0.0
C139 C 0.68681 0.68055 0.85726 0.0
C140 C 0.79111 0.72398 0.83811 0.0
C141 C 0.78331 0.77514 0.82919 0.0
C142 C 0.72588 0.77678 0.83356 0.0
C143 C 0.67826 0.73014 0.84734 0.0
H144 H 0.04845 0.89377 0.09404 0.0
H145 H 0.97459 0.97619 0.14185 0.0
H146 H 0.02966 0.80552 0.11998 0.0
H147 H 0.95729 0.88883 0.16787 0.0
H148 H 0.04254 0.7815 0.21299 0.0
H149 H 0.04364 0.86247 0.18721 0.0
H150 H 0.92485 0.70468 0.14078 0.0
H151 H 0.92217 0.62283 0.1671 0.0
C152 C 0.02857 0.89323 0.11011 0.0
C153 C 0.01339 0.9421 0.11599 0.0
C154 C 0.01715 0.84237 0.12481 0.0
C155 C 0.99156 0.84025 0.1458 0.0
C156 C 0.97684 0.88933 0.15174 0.0
C157 C 0.98695 0.93933 0.13689 0.0
C158 C 0.01538 0.76402 0.19747 0.0
C159 C 0.98182 0.69616 0.19201 0.0
C160 C 0.01606 0.81026 0.18276 0.0
C161 C 0.98457 0.78973 0.16203 0.0
C162 C 0.94962 0.72158 0.15669 0.0
C163 C 0.94756 0.67488 0.17173 0.0
H164 H 0.30972 0.2003 0.43965 0.0
H165 H 0.12219 0.0299 0.45651 0.0
H166 H 0.36459 0.16776 0.46697 0.0
H167 H 0.17744 -0.00209 0.48419 0.0
H168 H 0.3204 0.9326 0.51557 0.0
H169 H 0.25831 0.95742 0.48794 0.0
H170 H 0.36843 0.16429 0.50716 0.0
H171 H 0.43003 0.14034 0.53411 0.0
C172 C 0.28007 0.15617 0.44928 0.0
C173 C 0.21147 0.11811 0.44598 0.0
C174 C 0.31154 0.13751 0.46498 0.0
C175 C 0.27528 0.08036 0.47782 0.0
C176 C 0.20674 0.04185 0.47443 0.0
C177 C 0.17511 0.06063 0.45871 0.0
C178 C 0.33093 0.98318 0.51389 0.0
C179 C 0.38078 0.03448 0.52685 0.0
C180 C 0.29537 0.99739 0.49815 0.0
C181 C 0.30929 0.06306 0.49515 0.0
C182 C 0.35759 0.11353 0.50865 0.0
C183 C 0.39279 0.09952 0.52421 0.0
H184 H 0.14345 0.32438 0.76397 0.0
H185 H 0.19538 0.18982 0.79479 0.0
H186 H 0.22225 0.41399 0.78873 0.0
H187 H 0.2723 0.27791 0.81929 0.0
H188 H 0.45685 0.4569 0.84147 0.0
H189 H 0.37886 0.38077 0.81413 0.0
H190 H 0.24238 0.44607 0.83011 0.0
H191 H 0.32179 0.52411 0.85761 0.0
C192 C 0.17142 0.31391 0.77601 0.0
C193 C 0.1636 0.25019 0.77729 0.0
C194 C 0.21617 0.365 0.79021 0.0
C195 C 0.25399 0.3531 0.80573 0.0
C196 C 0.24491 0.28903 0.80721 0.0
C197 C 0.20046 0.23837 0.79319 0.0
C198 C 0.41048 0.45561 0.83914 0.0
C199 C 0.39503 0.49575 0.852 0.0
C200 C 0.36572 0.41182 0.82346 0.0
C201 C 0.30404 0.40656 0.82028 0.0
C202 C 0.28963 0.44914 0.83224 0.0
C203 C 0.3349 0.49354 0.848 0.0
H204 H 0.88634 0.00746 0.67201 0.0
H205 H 0.77976 0.07607 0.71095 0.0
H206 H 0.79754 0.96357 0.64418 0.0
H207 H 0.69174 0.03276 0.68316 0.0
H208 H 0.67844 0.0062 0.58919 0.0
H209 H 0.75783 0.01574 0.61739 0.0
H210 H 0.60238 0.93029 0.66522 0.0
H211 H 0.52278 0.92096 0.63668 0.0
C212 C 0.84397 0.013 0.67469 0.0
C213 C 0.84057 0.04591 0.69364 0.0
C214 C 0.79306 0.98773 0.65876 0.0
C215 C 0.73734 0.99425 0.66152 0.0
C216 C 0.73334 0.02578 0.6807 0.0
C217 C 0.78433 0.05143 0.69652 0.0
C218 C 0.66089 0.98679 0.60552 0.0
C219 C 0.59462 0.96205 0.61079 0.0
C220 C 0.70635 0.99243 0.62171 0.0
C221 C 0.6866 0.97447 0.64362 0.0
C222 C 0.61916 0.94515 0.64851 0.0
C223 C 0.57341 0.93885 0.63217 0.0
H224 H 0.79561 0.98686 0.0334 0.0
H225 H 0.92457 0.92343 0.00693 0.0
H226 H 0.70607 0.90707 0.00886 0.0
H227 H 0.83659 0.8456 0.98258 0.0
H228 H 0.65615 0.66229 0.96089 0.0
H229 H 0.73215 0.7416 0.98797 0.0
H230 H 0.67505 0.88288 0.96773 0.0
H231 H 0.59705 0.80206 0.94054 0.0
C232 C 0.80487 0.95616 0.02235 0.0
C233 C 0.86696 0.96102 0.02224 0.0
C234 C 0.75382 0.91083 0.00828 0.0
C235 C 0.76412 0.86951 0.99404 0.0
C236 C 0.82664 0.87567 0.9937 0.0
C237 C 0.87726 0.92065 0.00761 0.0
C238 C 0.6592 0.71 0.96226 0.0
C239 C 0.62142 0.72637 0.94831 0.0
C240 C 0.70292 0.75553 0.97778 0.0
C241 C 0.71054 0.81893 0.97966 0.0
C242 C 0.67017 0.83432 0.96661 0.0
C243 C 0.62576 0.78823 0.95103 0.0
H244 H 0.18918 0.02616 0.35477 0.0
H245 H 0.97661 0.91294 0.35087 0.0
H246 H 0.19501 0.94414 0.33188 0.0
H247 H 0.98201 0.8321 0.32675 0.0
H248 H 0.00716 0.67136 0.29619 0.0
H249 H 0.00536 0.74689 0.32339 0.0
H250 H 0.18223 0.90855 0.29545 0.0
H251 H 0.18561 0.83162 0.26904 0.0
C252 C 0.14356 0.98367 0.34886 0.0
C253 C 0.08239 0.97606 0.35447 0.0
C254 C 0.1469 0.9368 0.33556 0.0
C255 C 0.08912 0.88164 0.32711 0.0
C256 C 0.02768 0.87335 0.33314 0.0
C257 C 0.02437 0.91978 0.34688 0.0
C258 C 0.0461 0.72298 0.29608 0.0
C259 C 0.09654 0.74575 0.2805 0.0
C260 C 0.04473 0.7665 0.31155 0.0
C261 C 0.09314 0.83425 0.31159 0.0
C262 C 0.14455 0.85662 0.29624 0.0
C263 C 0.14655 0.81267 0.28101 0.0
H264 H 0.20198 0.02001 0.70911 0.0
H265 H 0.1919 0.16431 0.66719 0.0
H266 H 0.2927 0.02932 0.68752 0.0
H267 H 0.28165 0.1723 0.64514 0.0
H268 H 0.47843 0.20746 0.6191 0.0
H269 H 0.39958 0.2091 0.64484 0.0
H270 H 0.30581 0.99626 0.65162 0.0
H271 H 0.38442 0.99489 0.62672 0.0
C272 C 0.21879 0.05336 0.69517 0.0
C273 C 0.18923 0.09087 0.68974 0.0
C274 C 0.27087 0.05875 0.68278 0.0
C275 C 0.29446 0.10146 0.66452 0.0
C276 C 0.26538 0.13962 0.65925 0.0
C277 C 0.2134 0.13444 0.67174 0.0
C278 C 0.44164 0.16139 0.62645 0.0
C279 C 0.43758 0.1011 0.62078 0.0
C280 C 0.39609 0.16215 0.64101 0.0
C281 C 0.34615 0.10272 0.65027 0.0
C282 C 0.34393 0.04307 0.6451 0.0
C283 C 0.38894 0.0423 0.63062 0.0
H284 H 0.12765 0.20145 0.98315 0.0
H285 H 0.25699 0.22009 0.03762 0.0
H286 H 0.22269 0.26917 0.96043 0.0
H287 H 0.35309 0.28868 0.01441 0.0
H288 H 0.48143 0.3671 0.94211 0.0
H289 H 0.40027 0.28282 0.96711 0.0
H290 H 0.31137 0.4032 0.9761 0.0
H291 H 0.39104 0.48657 0.95171 0.0
C292 C 0.17641 0.21895 0.99016 0.0
C293 C 0.18485 0.20648 0.01233 0.0
C294 C 0.23071 0.25734 0.97707 0.0
C295 C 0.29477 0.2841 0.98578 0.0
C296 C 0.30388 0.26795 0.00738 0.0
C297 C 0.24905 0.22904 0.02061 0.0
C298 C 0.44508 0.3758 0.9497 0.0
C299 C 0.44213 0.43309 0.94464 0.0
C300 C 0.39904 0.32783 0.964 0.0
C301 C 0.34975 0.33682 0.97329 0.0
C302 C 0.34882 0.39521 0.96899 0.0
C303 C 0.39443 0.44278 0.95492 0.0
H304 H 0.09898 0.32847 0.3725 0.0
H305 H 0.94187 0.16131 0.33699 0.0
H306 H 0.08853 0.40416 0.34726 0.0
H307 H 0.9325 0.23684 0.31147 0.0
H308 H 0.89826 0.39561 0.27981 0.0
H309 H 0.90053 0.3211 0.30785 0.0
H310 H 0.11348 0.4351 0.30914 0.0
H311 H 0.11136 0.50951 0.2818 0.0
C312 C 0.06231 0.3079 0.3593 0.0
C313 C 0.02164 0.23895 0.35665 0.0
C314 C 0.0564 0.35121 0.34479 0.0
C315 C 0.00985 0.32651 0.32727 0.0
C316 C 0.9683 0.25753 0.32492 0.0
C317 C 0.97411 0.21425 0.33945 0.0
C318 C 0.94542 0.40476 0.28619 0.0
C319 C 0.00452 0.45854 0.27855 0.0
C320 C 0.94678 0.36201 0.30217 0.0
C321 C 0.00724 0.37242 0.31083 0.0
C322 C 0.06606 0.42632 0.30318 0.0
C323 C 0.06473 0.46877 0.28731 0.0
loop_
_geom_bond_atom_site_label_1
_geom_bond_atom_site_label_2
_geom_bond_distance
_geom_bond_site_symmetry_2
_ccdc_geom_bond_type
C0 O1 1.306 1_455 S
C0 O3 1.160 . S
O1 C0 1.306 1_655 S
O1 Cd2 2.228 . S
Cd2 O1 2.228 . S
Cd2 O6 2.273 . S
Cd2 O10 2.277 1_655 S
O3 C0 1.160 . S
O3 Cd4 2.203 . S
Cd4 O3 2.203 . S
Cd4 O6 2.411 1_455 S
Cd4 O7 2.335 . S
Cd4 O8 2.352 . S
Cd4 O12 2.277 . S
Cd4 O13 2.356 . S
C5 O10 1.209 . S
C5 O12 1.226 . S
O6 Cd2 2.273 . S
O6 Cd4 2.411 1_655 S
O6 C9 1.320 . S
O7 Cd4 2.335 . S
O7 C9 1.216 1_455 S
O8 Cd4 2.352 . S
O8 C11 1.258 1_545 S
C9 O6 1.320 . S
C9 O7 1.216 1_655 S
O10 Cd2 2.277 1_455 S
O10 C5 1.209 . S
C11 O8 1.258 1_565 S
C11 O13 1.282 1_565 S
O12 Cd4 2.277 . S
O12 C5 1.226 . S
O13 Cd4 2.356 . S
O13 C11 1.282 1_545 S
C14 O15 1.306 . S
C14 O17 1.160 . S
O15 C14 1.306 . S
O15 Cd16 2.228 . S
Cd16 O15 2.228 . S
Cd16 O20 2.273 . S
Cd16 O24 2.277 . S
O17 C14 1.160 . S
O17 Cd18 2.203 . S
Cd18 O17 2.203 . S
Cd18 O20 2.411 . S
Cd18 O21 2.333 1_455 S
Cd18 O22 2.352 1_455 S
Cd18 O26 2.277 1_445 S
Cd18 O27 2.356 1_455 S
C19 O24 1.209 1_565 S
C19 O26 1.226 1_455 S
O20 Cd16 2.273 . S
O20 Cd18 2.411 . S
O20 C23 1.320 . S
O21 Cd18 2.333 1_655 S
O21 C23 1.214 1_655 S
O22 Cd18 2.352 1_655 S
O22 C25 1.258 . S
C23 O20 1.320 . S
C23 O21 1.214 1_455 S
O24 Cd16 2.277 . S
O24 C19 1.209 1_545 S
C25 O22 1.258 . S
C25 O27 1.282 . S
O26 Cd18 2.277 1_665 S
O26 C19 1.226 1_655 S
O27 Cd18 2.356 1_655 S
O27 C25 1.282 . S
C28 O29 1.306 . S
C28 O31 1.160 . S
O29 C28 1.306 . S
O29 Cd30 2.228 . S
Cd30 O29 2.228 . S
Cd30 O34 2.273 1_655 S
Cd30 O38 2.277 . S
O31 C28 1.160 . S
O31 Cd32 2.203 1_655 S
Cd32 O31 2.203 1_455 S
Cd32 O34 2.411 . S
Cd32 O35 2.333 . S
Cd32 O36 2.352 . S
Cd32 O40 2.277 1_445 S
Cd32 O41 2.356 . S
C33 O38 1.209 . S
C33 O40 1.226 1_545 S
O34 Cd30 2.273 1_455 S
O34 Cd32 2.411 . S
O34 C37 1.320 . S
O35 Cd32 2.333 . S
O35 C37 1.214 . S
O36 Cd32 2.352 . S
O36 C39 1.258 . S
C37 O34 1.320 . S
C37 O35 1.214 . S
O38 Cd30 2.277 . S
O38 C33 1.209 . S
C39 O36 1.258 . S
C39 O41 1.282 . S
O40 Cd32 2.277 1_665 S
O40 C33 1.226 1_565 S
O41 Cd32 2.356 . S
O41 C39 1.282 . S
C42 O44 1.247 . S
C42 O46 1.258 1_455 S
C43 O50 1.247 1_455 S
C43 O51 1.258 . S
O44 C42 1.247 . S
O44 Zn45 2.028 . S
Zn45 O44 2.028 . S
Zn45 O49 2.035 . S
Zn45 O51 2.035 . S
Zn45 O52 2.028 . S
O46 C42 1.258 1_655 S
O46 Zn47 2.035 . S
Zn47 O46 2.035 . S
Zn47 O48 2.028 . S
Zn47 O50 2.028 . S
Zn47 O53 2.035 . S
O48 Zn47 2.028 . S
O48 C54 1.247 1_655 S
O49 Zn45 2.035 . S
O49 C54 1.258 . S
O50 C43 1.247 1_655 S
O50 Zn47 2.028 . S
O51 C43 1.258 . S
O51 Zn45 2.035 . S
O52 Zn45 2.028 . S
O52 C55 1.247 . S
O53 Zn47 2.035 . S
O53 C55 1.258 1_655 S
C54 O48 1.247 1_455 S
C54 O49 1.258 . S
C55 O52 1.247 . S
C55 O53 1.258 1_455 S
C56 O58 1.247 . S
C56 O60 1.258 . S
C57 O64 1.247 . S
C57 O65 1.258 . S
O58 C56 1.247 . S
O58 Zn59 2.028 . S
Zn59 O58 2.028 . S
Zn59 O63 2.035 . S
Zn59 O65 2.035 . S
Zn59 O66 2.028 . S
O60 C56 1.258 . S
O60 Zn61 2.035 . S
Zn61 O60 2.035 . S
Zn61 O62 2.028 . S
Zn61 O64 2.028 . S
Zn61 O67 2.035 . S
O62 Zn61 2.028 . S
O62 C68 1.247 . S
O63 Zn59 2.035 . S
O63 C68 1.258 . S
O64 C57 1.247 . S
O64 Zn61 2.028 . S
O65 C57 1.258 . S
O65 Zn59 2.035 . S
O66 Zn59 2.028 . S
O66 C69 1.247 . S
O67 Zn61 2.035 . S
O67 C69 1.258 . S
C68 O62 1.247 . S
C68 O63 1.258 . S
C69 O66 1.247 . S
C69 O67 1.258 . S
C70 O72 1.247 . S
C70 O74 1.258 . S
C71 O78 1.247 . S
C71 O79 1.258 . S
O72 C70 1.247 . S
O72 Zn73 2.028 . S
Zn73 O72 2.028 . S
Zn73 O77 2.035 . S
Zn73 O79 2.035 . S
Zn73 O80 2.028 . S
O74 C70 1.258 . S
O74 Zn75 2.035 . S
Zn75 O74 2.035 . S
Zn75 O76 2.028 . S
Zn75 O78 2.028 . S
Zn75 O81 2.035 . S
O76 Zn75 2.028 . S
O76 C82 1.247 . S
O77 Zn73 2.035 . S
O77 C82 1.258 . S
O78 C71 1.247 . S
O78 Zn75 2.028 . S
O79 C71 1.258 . S
O79 Zn73 2.035 . S
O80 Zn73 2.028 . S
O80 C83 1.247 . S
O81 Zn75 2.035 . S
O81 C83 1.258 . S
C82 O76 1.247 . S
C82 O77 1.258 . S
C83 O80 1.247 . S
C83 O81 1.258 . S
H84 C92 0.950 . S
H85 C97 0.950 . S
H86 C94 0.950 . S
H87 C96 0.950 . S
H88 C98 0.950 . S
H89 C100 0.950 . S
H90 C102 0.950 . S
H91 C103 0.950 . S
C92 H84 0.950 . S
C92 C93 1.386 1_655 S
C92 C94 1.391 . S
C93 C92 1.386 1_455 S
C93 C97 1.393 . S
C94 H86 0.950 . S
C94 C92 1.391 . S
C94 C95 1.400 1_655 S
C95 C94 1.400 1_455 S
C95 C96 1.398 . S
C95 C101 1.491 . S
C96 H87 0.950 . S
C96 C95 1.398 . S
C96 C97 1.391 . S
C97 H85 0.950 . S
C97 C93 1.393 . S
C97 C96 1.391 . S
C98 H88 0.950 . S
C98 C99 1.386 . S
C98 C100 1.391 . S
C99 C98 1.386 . S
C99 C103 1.393 1_455 S
C100 H89 0.950 . S
C100 C98 1.391 . S
C100 C101 1.400 . S
C101 C95 1.491 . S
C101 C100 1.400 . S
C101 C102 1.398 1_455 S
C102 H90 0.950 . S
C102 C101 1.398 1_655 S
C102 C103 1.391 . S
C103 H91 0.950 . S
C103 C99 1.393 1_655 S
C103 C102 1.391 . S
H104 C112 0.950 . S
H105 C117 0.950 1_565 S
H106 C114 0.950 . S
H107 C116 0.950 1_565 S
H108 C118 0.950 1_565 S
H109 C120 0.950 1_565 S
H110 C122 0.950 . S
H111 C123 0.950 . S
C112 H104 0.950 . S
C112 C113 1.386 . S
C112 C114 1.391 . S
C113 C112 1.386 . S
C113 C117 1.393 . S
C114 H106 0.950 . S
C114 C112 1.391 . S
C114 C115 1.400 . S
C115 C114 1.400 . S
C115 C116 1.398 . S
C115 C121 1.491 . S
C116 H107 0.950 1_545 S
C116 C115 1.398 . S
C116 C117 1.391 . S
C117 H105 0.950 1_545 S
C117 C113 1.393 . S
C117 C116 1.391 . S
C118 H108 0.950 1_545 S
C118 C119 1.386 . S
C118 C120 1.391 . S
C119 C118 1.386 . S
C119 C123 1.393 . S
C120 H109 0.950 1_545 S
C120 C118 1.391 . S
C120 C121 1.400 . S
C121 C115 1.491 . S
C121 C120 1.400 . S
C121 C122 1.398 . S
C122 H110 0.950 . S
C122 C121 1.398 . S
C122 C123 1.391 . S
C123 H111 0.950 . S
C123 C119 1.393 . S
C123 C122 1.391 . S
H124 C132 0.950 . S
H125 C137 0.950 . S
H126 C134 0.950 . S
H127 C136 0.950 . S
H128 C138 0.950 . S
H129 C140 0.950 . S
H130 C142 0.950 . S
H131 C143 0.950 . S
C132 H124 0.950 . S
C132 C133 1.386 . S
C132 C134 1.391 . S
C133 C132 1.386 . S
C133 C137 1.393 . S
C134 H126 0.950 . S
C134 C132 1.391 . S
C134 C135 1.400 . S
C135 C134 1.400 . S
C135 C136 1.398 . S
C135 C141 1.491 . S
C136 H127 0.950 . S
C136 C135 1.398 . S
C136 C137 1.391 . S
C137 H125 0.950 . S
C137 C133 1.393 . S
C137 C136 1.391 . S
C138 H128 0.950 . S
C138 C139 1.386 . S
C138 C140 1.391 . S
C139 C138 1.386 . S
C139 C143 1.393 . S
C140 H129 0.950 . S
C140 C138 1.391 . S
C140 C141 1.400 . S
C141 C135 1.491 . S
C141 C140 1.400 . S
C141 C142 1.398 . S
C142 H130 0.950 . S
C142 C141 1.398 . S
C142 C143 1.391 . S
C143 H131 0.950 . S
C143 C139 1.393 . S
C143 C142 1.391 . S
H144 C152 0.950 1_655 S
H145 C157 0.950 1_545 S
H146 C154 0.950 1_655 S
H147 C156 0.950 . S
H148 C158 0.950 . S
H149 C160 0.950 . S
H150 C162 0.950 1_655 S
H151 C163 0.950 1_655 S
C152 H144 0.950 1_455 S
C152 C153 1.386 . S
C152 C154 1.391 . S
C153 C152 1.386 . S
C153 C157 1.393 . S
C154 H146 0.950 1_455 S
C154 C152 1.391 . S
C154 C155 1.400 . S
C155 C154 1.400 . S
C155 C156 1.398 . S
C155 C161 1.491 . S
C156 H147 0.950 . S
C156 C155 1.398 . S
C156 C157 1.391 . S
C157 H145 0.950 1_565 S
C157 C153 1.393 . S
C157 C156 1.391 . S
C158 H148 0.950 . S
C158 C159 1.386 . S
C158 C160 1.391 . S
C159 C158 1.386 . S
C159 C163 1.393 . S
C160 H149 0.950 . S
C160 C158 1.391 . S
C160 C161 1.400 . S
C161 C155 1.491 . S
C161 C160 1.400 . S
C161 C162 1.398 . S
C162 H150 0.950 1_455 S
C162 C161 1.398 . S
C162 C163 1.391 . S
C163 H151 0.950 1_455 S
C163 C159 1.393 . S
C163 C162 1.391 . S
H164 C172 0.950 . S
H165 C177 0.950 . S
H166 C174 0.950 . S
H167 C176 0.950 . S
H168 C178 0.950 . S
H169 C180 0.950 . S
H170 C182 0.950 . S
H171 C183 0.950 . S
C172 H164 0.950 . S
C172 C173 1.386 . S
C172 C174 1.391 . S
C173 C172 1.386 . S
C173 C177 1.393 . S
C174 H166 0.950 . S
C174 C172 1.391 . S
C174 C175 1.400 . S
C175 C174 1.400 . S
C175 C176 1.398 . S
C175 C181 1.491 . S
C176 H167 0.950 . S
C176 C175 1.398 . S
C176 C177 1.391 . S
C177 H165 0.950 . S
C177 C173 1.393 . S
C177 C176 1.391 . S
C178 H168 0.950 . S
C178 C179 1.386 . S
C178 C180 1.391 . S
C179 C178 1.386 . S
C179 C183 1.393 . S
C180 H169 0.950 . S
C180 C178 1.391 . S
C180 C181 1.400 . S
C181 C175 1.491 . S
C181 C180 1.400 . S
C181 C182 1.398 . S
C182 H170 0.950 . S
C182 C181 1.398 . S
C182 C183 1.391 . S
C183 H171 0.950 . S
C183 C179 1.393 . S
C183 C182 1.391 . S
H184 C192 0.950 . S
H185 C197 0.950 . S
H186 C194 0.950 . S
H187 C196 0.950 . S
H188 C198 0.950 . S
H189 C200 0.950 . S
H190 C202 0.950 . S
H191 C203 0.950 . S
C192 H184 0.950 . S
C192 C193 1.386 . S
C192 C194 1.391 . S
C193 C192 1.386 . S
C193 C197 1.393 . S
C194 H186 0.950 . S
C194 C192 1.391 . S
C194 C195 1.400 . S
C195 C194 1.400 . S
C195 C196 1.398 . S
C195 C201 1.491 . S
C196 H187 0.950 . S
C196 C195 1.398 . S
C196 C197 1.391 . S
C197 H185 0.950 . S
C197 C193 1.393 . S
C197 C196 1.391 . S
C198 H188 0.950 . S
C198 C199 1.386 . S
C198 C200 1.391 . S
C199 C198 1.386 . S
C199 C203 1.393 . S
C200 H189 0.950 . S
C200 C198 1.391 . S
C200 C201 1.400 . S
C201 C195 1.491 . S
C201 C200 1.400 . S
C201 C202 1.398 . S
C202 H190 0.950 . S
C202 C201 1.398 . S
C202 C203 1.391 . S
C203 H191 0.950 . S
C203 C199 1.393 . S
C203 C202 1.391 . S
H204 C212 0.950 1_565 S
H205 C217 0.950 . S
H206 C214 0.950 1_565 S
H207 C216 0.950 . S
H208 C218 0.950 . S
H209 C220 0.950 . S
H210 C222 0.950 1_565 S
H211 C223 0.950 1_565 S
C212 H204 0.950 1_545 S
C212 C213 1.386 . S
C212 C214 1.391 . S
C213 C212 1.386 . S
C213 C217 1.393 . S
C214 H206 0.950 1_545 S
C214 C212 1.391 . S
C214 C215 1.400 . S
C215 C214 1.400 . S
C215 C216 1.398 . S
C215 C221 1.491 . S
C216 H207 0.950 . S
C216 C215 1.398 . S
C216 C217 1.391 . S
C217 H205 0.950 . S
C217 C213 1.393 . S
C217 C216 1.391 . S
C218 H208 0.950 . S
C218 C219 1.386 . S
C218 C220 1.391 . S
C219 C218 1.386 . S
C219 C223 1.393 . S
C220 H209 0.950 . S
C220 C218 1.391 . S
C220 C221 1.400 . S
C221 C215 1.491 . S
C221 C220 1.400 . S
C221 C222 1.398 . S
C222 H210 0.950 1_545 S
C222 C221 1.398 . S
C222 C223 1.391 . S
C223 H211 0.950 1_545 S
C223 C219 1.393 . S
C223 C222 1.391 . S
H224 C232 0.950 . S
H225 C237 0.950 . S
H226 C234 0.950 . S
H227 C236 0.960 . S
H228 C238 0.950 . S
H229 C240 0.950 . S
H230 C242 0.950 . S
H231 C243 0.950 . S
C232 H224 0.950 . S
C232 C233 1.386 . S
C232 C234 1.391 . S
C233 C232 1.386 . S
C233 C237 1.393 . S
C234 H226 0.950 . S
C234 C232 1.391 . S
C234 C235 1.400 1_554 S
C235 C234 1.400 1_556 S
C235 C236 1.400 . S
C235 C241 1.491 . S
C236 H227 0.960 . S
C236 C235 1.400 . S
C236 C237 1.380 1_556 S
C237 H225 0.950 . S
C237 C233 1.393 . S
C237 C236 1.380 1_554 S
C238 H228 0.950 . S
C238 C239 1.386 . S
C238 C240 1.391 . S
C239 C238 1.386 . S
C239 C243 1.393 . S
C240 H229 0.950 . S
C240 C238 1.391 . S
C240 C241 1.400 . S
C241 C235 1.491 . S
C241 C240 1.400 . S
C241 C242 1.398 . S
C242 H230 0.950 . S
C242 C241 1.398 . S
C242 C243 1.391 . S
C243 H231 0.950 . S
C243 C239 1.393 . S
C243 C242 1.391 . S
H244 C252 0.950 . S
H245 C257 0.950 . S
H246 C254 0.950 . S
H247 C256 0.950 . S
H248 C258 0.950 . S
H249 C260 0.950 . S
H250 C262 0.950 . S
H251 C263 0.950 . S
C252 H244 0.950 . S
C252 C253 1.386 . S
C252 C254 1.391 . S
C253 C252 1.386 . S
C253 C257 1.393 1_455 S
C254 H246 0.950 . S
C254 C252 1.391 . S
C254 C255 1.400 . S
C255 C254 1.400 . S
C255 C256 1.398 1_455 S
C255 C261 1.491 . S
C256 H247 0.950 . S
C256 C255 1.398 1_655 S
C256 C257 1.391 . S
C257 H245 0.950 . S
C257 C253 1.393 1_655 S
C257 C256 1.391 . S
C258 H248 0.950 . S
C258 C259 1.386 1_655 S
C258 C260 1.391 . S
C259 C258 1.386 1_455 S
C259 C263 1.393 . S
C260 H249 0.950 . S
C260 C258 1.391 . S
C260 C261 1.400 1_655 S
C261 C255 1.491 . S
C261 C260 1.400 1_455 S
C261 C262 1.398 . S
C262 H250 0.950 . S
C262 C261 1.398 . S
C262 C263 1.391 . S
C263 H251 0.950 . S
C263 C259 1.393 . S
C263 C262 1.391 . S
H264 C272 0.950 . S
H265 C277 0.950 . S
H266 C274 0.950 . S
H267 C276 0.950 . S
H268 C278 0.950 . S
H269 C280 0.950 . S
H270 C282 0.950 . S
H271 C283 0.950 . S
C272 H264 0.950 . S
C272 C273 1.386 . S
C272 C274 1.391 . S
C273 C272 1.386 . S
C273 C277 1.393 . S
C274 H266 0.950 . S
C274 C272 1.391 . S
C274 C275 1.400 . S
C275 C274 1.400 . S
C275 C276 1.398 . S
C275 C281 1.491 . S
C276 H267 0.950 . S
C276 C275 1.398 . S
C276 C277 1.391 . S
C277 H265 0.950 . S
C277 C273 1.393 . S
C277 C276 1.391 . S
C278 H268 0.950 . S
C278 C279 1.386 . S
C278 C280 1.391 . S
C279 C278 1.386 . S
C279 C283 1.393 . S
C280 H269 0.950 . S
C280 C278 1.391 . S
C280 C281 1.400 . S
C281 C275 1.491 . S
C281 C280 1.400 . S
C281 C282 1.398 . S
C282 H270 0.950 . S
C282 C281 1.398 . S
C282 C283 1.391 . S
C283 H271 0.950 . S
C283 C279 1.393 . S
C283 C282 1.391 . S
H284 C292 0.950 . S
H285 C297 0.950 . S
H286 C294 0.971 . S
H287 C296 0.950 . S
H288 C298 0.950 . S
H289 C300 0.950 . S
H290 C302 0.950 . S
H291 C303 0.950 . S
C292 H284 0.950 . S
C292 C293 1.386 . S
C292 C294 1.367 1_554 S
C293 C292 1.386 . S
C293 C297 1.393 . S
C294 H286 0.971 . S
C294 C292 1.367 1_556 S
C294 C295 1.405 . S
C295 C294 1.405 . S
C295 C296 1.398 1_556 S
C295 C301 1.491 . S
C296 H287 0.950 . S
C296 C295 1.398 1_554 S
C296 C297 1.391 . S
C297 H285 0.950 . S
C297 C293 1.393 . S
C297 C296 1.391 . S
C298 H288 0.950 . S
C298 C299 1.386 . S
C298 C300 1.391 . S
C299 C298 1.386 . S
C299 C303 1.393 . S
C300 H289 0.950 . S
C300 C298 1.391 . S
C300 C301 1.400 . S
C301 C295 1.491 . S
C301 C300 1.400 . S
C301 C302 1.398 . S
C302 H290 0.950 . S
C302 C301 1.398 . S
C302 C303 1.391 . S
C303 H291 0.950 . S
C303 C299 1.393 . S
C303 C302 1.391 . S
H304 C312 0.950 . S
H305 C317 0.950 . S
H306 C314 0.950 . S
H307 C316 0.950 . S
H308 C318 0.950 . S
H309 C320 0.950 . S
H310 C322 0.950 . S
H311 C323 0.950 . S
C312 H304 0.950 . S
C312 C313 1.386 . S
C312 C314 1.391 . S
C313 C312 1.386 . S
C313 C317 1.393 1_455 S
C314 H306 0.950 . S
C314 C312 1.391 . S
C314 C315 1.400 . S
C315 C314 1.400 . S
C315 C316 1.398 1_455 S
C315 C321 1.491 . S
C316 H307 0.950 . S
C316 C315 1.398 1_655 S
C316 C317 1.391 . S
C317 H305 0.950 . S
C317 C313 1.393 1_655 S
C317 C316 1.391 . S
C318 H308 0.950 . S
C318 C319 1.386 1_655 S
C318 C320 1.391 . S
C319 C318 1.386 1_455 S
C319 C323 1.393 . S
C320 H309 0.950 . S
C320 C318 1.391 . S
C320 C321 1.400 1_655 S
C321 C315 1.491 . S
C321 C320 1.400 1_455 S
C321 C322 1.398 . S
C322 H310 0.950 . S
C322 C321 1.398 . S
C322 C323 1.391 . S
C323 H311 0.950 . S
C323 C319 1.393 . S
C323 C322 1.391 . S
C99 C43 1.439 . S
C93 C0 1.443 . S
C113 C25 1.465 . S
C119 C69 1.467 . S
C133 C33 1.484 1_565 S
C139 C71 1.485 . S
C153 C11 1.418 . S
C159 C55 1.419 . S
C179 C57 1.464 . S
C173 C14 1.465 . S
C193 C37 1.476 . S
C199 C83 1.478 . S
C219 C56 1.466 . S
C213 C28 1.458 . S
C233 C9 1.476 1_565 S
C239 C82 1.476 . S
C259 C42 1.506 . S
C253 C19 1.504 . S
C279 C68 1.461 . S
C273 C39 1.465 . S
C299 C70 1.483 . S
C293 C5 1.481 . S
C313 C23 1.518 . S
C319 C54 1.522 . S
