# Generated by pormake.
# Topology tsx, (6,3)-cn, num edge types: 1
# Building blocks:
#     Node 0, Type 0, BuildingBlock: FUNLAD_clean_sbu_0, # of connection points: 6
#     Node 1, Type 0, BuildingBlock: FUNLAD_clean_sbu_0, # of connection points: 6
#     Node 2, Type 1, BuildingBlock: OLANEW_clean_sbu_2, # of connection points: 3
#     Node 3, Type 1, BuildingBlock: OLANEW_clean_sbu_2, # of connection points: 3
#     Node 4, Type 1, BuildingBlock: OLANEW_clean_sbu_2, # of connection points: 3
#     Node 5, Type 1, BuildingBlock: OLANEW_clean_sbu_2, # of connection points: 3
#     Edge 6, Type (0, 1), BuildingBlock: XUDNAN_clean_linker_2, # of connection points: 2
#     Edge 7, Type (0, 1), BuildingBlock: XUDNAN_clean_linker_2, # of connection points: 2
#     Edge 8, Type (0, 1), BuildingBlock: XUDNAN_clean_linker_2, # of connection points: 2
#     Edge 9, Type (0, 1), BuildingBlock: XUDNAN_clean_linker_2, # of connection points: 2
#     Edge 10, Type (0, 1), BuildingBlock: XUDNAN_clean_linker_2, # of connection points: 2
#     Edge 11, Type (0, 1), BuildingBlock: XUDNAN_clean_linker_2, # of connection points: 2
#     Edge 12, Type (0, 1), BuildingBlock: XUDNAN_clean_linker_2, # of connection points: 2
#     Edge 13, Type (0, 1), BuildingBlock: XUDNAN_clean_linker_2, # of connection points: 2
#     Edge 14, Type (0, 1), BuildingBlock: XUDNAN_clean_linker_2, # of connection points: 2
#     Edge 15, Type (0, 1), BuildingBlock: XUDNAN_clean_linker_2, # of connection points: 2
#     Edge 16, Type (0, 1), BuildingBlock: XUDNAN_clean_linker_2, # of connection points: 2
#     Edge 17, Type (0, 1), BuildingBlock: XUDNAN_clean_linker_2, # of connection points: 2
# Relax obj value: 0.080
# Max RMSD: 0.101
# Mean RMSD: 0.089
data_MOF--net-tsx--node1-FUNLAD_clean_sbu_0--node2-OLANEW_clean_sbu_2--edge1-XUDNAN_clean_linker_2
_symmetry_space_group_name_H-M    P1
_symmetry_Int_Tables_number       1
_symmetry_cell_setting            triclinic
loop_
_symmetry_equiv_pos_as_xyz
'x, y, z'
_cell_length_a     21.008143
_cell_length_b     23.242485
_cell_length_c     40.219052
_cell_angle_alpha  96.996689
_cell_angle_beta   92.038092
_cell_angle_gamma 90.315772
loop_
_atom_site_label
_atom_site_type_symbol
_atom_site_fract_x
_atom_site_fract_y
_atom_site_fract_z
_atom_type_partial_charge
C0 C 0.876 0.91947 0.0022 0.0
N1 N 0.99036 0.99584 0.0844 0.0
C2 C 0.93598 0.99666 0.10186 0.0
C3 C 0.93867 0.99315 0.1363 0.0
C4 C 0.99793 0.98942 0.15311 0.0
C5 C 0.05342 0.98975 0.13464 0.0
C6 C 0.04851 0.99268 0.1001 0.0
Zn7 Zn 0.98299 -0.00185 0.03349 0.0
C8 C 0.06282 0.90826 0.99626 0.0
N9 N 0.96367 0.00023 0.92734 0.0
C10 C 0.9064 0.01078 0.91247 0.0
C11 C 0.01828 -0.00024 0.91007 0.0
C12 C 0.01698 0.01241 0.877 0.0
C13 C 0.959 0.02614 0.86152 0.0
C14 C 0.903 0.02403 0.87946 0.0
Zn15 Zn 0.97075 0.99525 0.97795 0.0
O16 O 0.90259 0.94103 0.02987 0.0
C17 C 0.89266 0.08642 0.01556 0.0
O18 O 0.89645 0.93263 0.97472 0.0
H19 H 0.06346 0.99205 0.9224 0.0
H20 H 0.89023 -0.0003 0.08904 0.0
H21 H 0.86354 0.01106 0.92661 0.0
O22 O 0.92169 0.06947 0.04076 0.0
O23 O 0.90326 0.06194 0.98631 0.0
H24 H 0.09117 0.99187 0.08577 0.0
O25 O 0.04491 0.05754 0.98166 0.0
O26 O 0.06257 0.0559 0.03558 0.0
O27 O 0.03888 0.92941 0.971 0.0
O28 O 0.0453 0.92698 0.02551 0.0
C29 C 0.0771 0.07462 0.00837 0.0
H30 H 0.8948 0.9937 0.14968 0.0
H31 H 0.10003 0.98644 0.14662 0.0
H32 H 0.06139 0.01411 0.86426 0.0
H33 H 0.85717 0.0336 0.86832 0.0
C34 C 0.48388 0.43041 0.50901 0.0
N35 N 0.58475 0.5414 0.58272 0.0
C36 C 0.5339 0.53689 0.60227 0.0
C37 C 0.54153 0.5458 0.63711 0.0
C38 C 0.60199 0.55992 0.65197 0.0
C39 C 0.65362 0.5645 0.63122 0.0
C40 C 0.64394 0.55475 0.59645 0.0
Zn41 Zn 0.5712 0.52967 0.53189 0.0
C42 C 0.66641 0.44988 0.49835 0.0
N43 N 0.5429 0.5076 0.42579 0.0
C44 C 0.48274 0.50336 0.41196 0.0
C45 C 0.59447 0.51043 0.40651 0.0
C46 C 0.58649 0.51112 0.37199 0.0
C47 C 0.52482 0.50934 0.35728 0.0
C48 C 0.47256 0.50437 0.37758 0.0
Zn49 Zn 0.55609 0.51729 0.47654 0.0
O50 O 0.51205 0.45687 0.53494 0.0
C51 C 0.45903 0.59471 0.50893 0.0
O52 O 0.49278 0.44654 0.48042 0.0
H53 H 0.64183 0.51415 0.41806 0.0
H54 H 0.4872 0.52666 0.59083 0.0
H55 H 0.44244 0.50094 0.42775 0.0
O56 O 0.48922 0.58528 0.53569 0.0
O57 O 0.47889 0.57283 0.48083 0.0
H58 H 0.68375 0.55797 0.58043 0.0
O59 O 0.61881 0.58901 0.4734 0.0
O60 O 0.63084 0.60136 0.52816 0.0
O61 O 0.63355 0.46041 0.47271 0.0
O62 O 0.65167 0.47381 0.52718 0.0
C63 C 0.64392 0.61654 0.4999 0.0
H64 H 0.50037 0.54249 0.65227 0.0
H65 H 0.7011 0.57473 0.64174 0.0
H66 H 0.62798 0.51546 0.35723 0.0
H67 H 0.42429 0.50217 0.36706 0.0
O68 O 0.94844 0.83048 0.3782 0.0
Cd69 Cd 0.92754 0.78523 0.42858 0.0
O70 O 0.97376 0.91057 0.41035 0.0
Cd71 Cd 0.993 0.00313 0.42346 0.0
O72 O 0.97346 0.09105 0.44608 0.0
C73 C 0.94118 0.12356 0.42882 0.0
O74 O 0.92478 0.1042 0.3976 0.0
C75 C 0.96661 0.88312 0.38109 0.0
C76 C 0.04028 0.75342 0.45963 0.0
O77 O 0.01236 0.71998 0.43576 0.0
O78 O 0.01453 0.8022 0.46924 0.0
O79 O 0.98307 0.13443 0.61055 0.0
Cd80 Cd 0.00048 0.13249 0.55041 0.0
O81 O 0.0399 0.05582 0.61316 0.0
Cd82 Cd 0.03729 0.03259 0.55889 0.0
O83 O 0.98091 0.96826 0.52619 0.0
C84 C 0.9654 0.92621 0.54177 0.0
O85 O 0.98738 0.92589 0.57276 0.0
C86 C 0.00887 0.0978 0.62778 0.0
C87 C 0.11801 0.18228 0.53934 0.0
O88 O 0.06672 0.21171 0.53829 0.0
O89 O 0.11361 0.12953 0.5453 0.0
O90 O 0.58499 0.50682 0.90179 0.0
Cd91 Cd 0.54569 0.49399 0.95661 0.0
O92 O 0.59041 0.59959 0.91869 0.0
Cd93 Cd 0.58256 0.69083 0.912 0.0
O94 O 0.49861 0.74015 0.92709 0.0
C95 C 0.46565 0.71351 0.94638 0.0
O96 O 0.48571 0.66333 0.95423 0.0
C97 C 0.59561 0.55804 0.89539 0.0
C98 C 0.61299 0.40825 0.98398 0.0
O99 O 0.56578 0.39529 0.96332 0.0
O100 O 0.62809 0.46175 0.99178 0.0
O101 O 0.4879 0.5264 0.0933 0.0
Cd102 Cd 0.49466 0.51908 0.03248 0.0
O103 O 0.56191 0.46227 0.10071 0.0
Cd104 Cd 0.54799 0.42576 0.04867 0.0
O105 O 0.47873 0.36438 0.02282 0.0
C106 C 0.45012 0.33478 0.04241 0.0
O107 O 0.46632 0.34248 0.07452 0.0
C108 C 0.52412 0.50117 0.11285 0.0
C109 C 0.55774 0.61823 0.01763 0.0
O110 O 0.49778 0.61837 0.02238 0.0
O111 O 0.58789 0.5709 0.01931 0.0
H112 H 0.15987 0.11881 0.06 0.0
H113 H 0.11876 0.12015 0.95347 0.0
H114 H 0.21126 0.18451 0.95022 0.0
H115 H 0.20905 0.26798 0.0774 0.0
H116 H 0.27133 0.25409 0.1073 0.0
H117 H 0.20211 0.20745 0.10118 0.0
H118 H 0.27474 0.11836 0.08812 0.0
H119 H 0.34419 0.16478 0.09404 0.0
H120 H 0.33103 0.11784 0.05528 0.0
H121 H 0.308 0.24919 0.95837 0.0
H122 H 0.40063 0.31186 0.97803 0.0
H123 H 0.37869 0.26827 0.07901 0.0
C124 C 0.17023 0.13272 0.03601 0.0
C125 C 0.13191 0.11446 0.00703 0.0
C126 C 0.14726 0.13359 0.97608 0.0
C127 C 0.19984 0.17009 0.97391 0.0
C128 C 0.23675 0.1871 0.00288 0.0
C129 C 0.22263 0.16921 0.03336 0.0
C130 C 0.26973 0.19428 0.06075 0.0
C131 C 0.23603 0.23327 0.08827 0.0
C132 C 0.30714 0.14593 0.0754 0.0
C133 C 0.31214 0.22935 0.04093 0.0
C134 C 0.29252 0.22443 0.00757 0.0
C135 C 0.32393 0.25337 0.98445 0.0
C136 C 0.3765 0.2888 0.99582 0.0
C137 C 0.39692 0.29502 0.03002 0.0
C138 C 0.36441 0.26441 0.05269 0.0
H139 H 0.14757 0.89859 0.94634 0.0
H140 H 0.10035 0.82923 0.03788 0.0
H141 H 0.19762 0.76956 0.03412 0.0
H142 H 0.21952 0.76831 0.90353 0.0
H143 H 0.28091 0.80895 0.88625 0.0
H144 H 0.20434 0.84114 0.8944 0.0
H145 H 0.25972 0.92767 0.93121 0.0
H146 H 0.33638 0.89545 0.92357 0.0
H147 H 0.31172 0.91408 0.96597 0.0
H148 H 0.30116 0.72035 0.02132 0.0
H149 H 0.40518 0.68564 0.00101 0.0
H150 H 0.38828 0.79246 0.91991 0.0
C151 C 0.15688 0.86971 0.96512 0.0
C152 C 0.11614 0.86759 0.99212 0.0
C153 C 0.13083 0.83085 0.01684 0.0
C154 C 0.18587 0.79696 0.01492 0.0
C155 C 0.22585 0.80107 0.98836 0.0
C156 C 0.21214 0.83657 0.96394 0.0
C157 C 0.26509 0.8362 0.93935 0.0
C158 C 0.24102 0.8122 0.90378 0.0
C159 C 0.29498 0.89696 0.94009 0.0
C160 C 0.31087 0.79495 0.95379 0.0
C161 C 0.28701 0.7748 0.98186 0.0
C162 C 0.32033 0.73579 0.99937 0.0
C163 C 0.37936 0.71638 0.98766 0.0
C164 C 0.40477 0.73658 0.95901 0.0
C165 C 0.37023 0.77675 0.94206 0.0
H166 H 0.85756 0.80579 0.9763 0.0
H167 H 0.76546 0.95354 0.02999 0.0
H168 H 0.66809 0.89444 0.03341 0.0
H169 H 0.71279 0.73794 0.93076 0.0
H170 H 0.73778 0.66557 0.93622 0.0
H171 H 0.79646 0.72135 0.93299 0.0
H172 H 0.84922 0.70171 0.98976 0.0
H173 H 0.79093 0.64591 0.99306 0.0
H174 H 0.80146 0.70497 0.0263 0.0
H175 H 0.58302 0.819 0.03318 0.0
H176 H 0.52089 0.72939 0.03615 0.0
H177 H 0.67153 0.62793 0.98733 0.0
C178 C 0.8162 0.82566 0.98809 0.0
C179 C 0.81798 0.88411 0.00248 0.0
C180 C 0.76422 0.90877 0.01865 0.0
C181 C 0.70879 0.87571 0.0205 0.0
C182 C 0.7084 0.81789 0.00641 0.0
C183 C 0.76088 0.79276 0.99083 0.0
C184 C 0.75049 0.72813 0.98133 0.0
C185 C 0.74932 0.71234 0.94305 0.0
C186 C 0.80101 0.69314 0.99866 0.0
C187 C 0.68505 0.72069 0.99501 0.0
C188 C 0.66083 0.7733 0.00837 0.0
C189 C 0.60144 0.77753 0.02279 0.0
C190 C 0.56651 0.72645 0.02435 0.0
C191 C 0.5918 0.67186 0.01229 0.0
C192 C 0.65135 0.66915 0.99696 0.0
H193 H 0.79702 0.11111 0.97219 0.0
H194 H 0.8886 0.17161 0.06862 0.0
H195 H 0.81948 0.25779 0.07355 0.0
H196 H 0.7834 0.24426 0.94235 0.0
H197 H 0.70615 0.23022 0.92192 0.0
H198 H 0.7585 0.17096 0.92757 0.0
H199 H 0.67089 0.12221 0.95867 0.0
H200 H 0.61804 0.18136 0.95303 0.0
H201 H 0.63549 0.16227 0.99448 0.0
H202 H 0.75087 0.34276 0.06423 0.0
H203 H 0.68169 0.41729 0.04327 0.0
H204 H 0.62999 0.29777 0.95491 0.0
C205 C 0.80189 0.14213 0.99455 0.0
C206 C 0.84815 0.1351 0.01997 0.0
C207 C 0.85316 0.1763 0.04893 0.0
C208 C 0.81417 0.22526 0.05194 0.0
C209 C 0.76972 0.23146 0.02611 0.0
C210 C 0.76267 0.19054 0.99823 0.0
C211 C 0.71301 0.20834 0.97344 0.0
C212 C 0.74203 0.21378 0.93932 0.0
C213 C 0.65597 0.16603 0.9697 0.0
C214 C 0.69498 0.26678 0.9911 0.0
C215 C 0.72808 0.27933 0.02149 0.0
C216 C 0.72361 0.33299 0.04087 0.0
C217 C 0.68458 0.37505 0.02872 0.0
C218 C 0.65024 0.36277 0.99773 0.0
C219 C 0.65474 0.30769 0.97904 0.0
H220 H 0.72996 0.66056 0.54862 0.0
H221 H 0.66275 0.67951 0.44731 0.0
H222 H 0.74047 0.75976 0.44562 0.0
H223 H 0.75485 0.80938 0.57731 0.0
H224 H 0.82595 0.79753 0.60188 0.0
H225 H 0.76558 0.74178 0.59444 0.0
H226 H 0.8496 0.66901 0.56946 0.0
H227 H 0.91024 0.72464 0.57677 0.0
H228 H 0.89617 0.68689 0.53527 0.0
H229 H 0.82317 0.84193 0.45692 0.0
H230 H 0.90572 0.91461 0.47903 0.0
H231 H 0.91952 0.8364 0.57165 0.0
C232 C 0.73134 0.68162 0.52606 0.0
C233 C 0.68998 0.66426 0.4982 0.0
C234 C 0.69398 0.69235 0.46898 0.0
C235 C 0.73792 0.73788 0.46781 0.0
C236 C 0.77795 0.75402 0.49587 0.0
C237 C 0.77528 0.72624 0.5243 0.0
C238 C 0.82349 0.75097 0.55105 0.0
C239 C 0.79048 0.77644 0.58305 0.0
C240 C 0.87279 0.70514 0.55856 0.0
C241 C 0.85309 0.7979 0.53359 0.0
C242 C 0.8264 0.79926 0.50181 0.0
C243 C 0.84481 0.8408 0.48165 0.0
C244 C 0.89171 0.88187 0.49439 0.0
C245 C 0.9193 0.88105 0.527 0.0
C246 C 0.89988 0.83804 0.54652 0.0
H247 H 0.70371 0.38807 0.44035 0.0
H248 H 0.74841 0.4169 0.54733 0.0
H249 H 0.8323 0.34248 0.54035 0.0
H250 H 0.71698 0.23802 0.43168 0.0
H251 H 0.75115 0.23207 0.39093 0.0
H252 H 0.70022 0.29191 0.40397 0.0
H253 H 0.78925 0.36419 0.39301 0.0
H254 H 0.8406 0.30446 0.37989 0.0
H255 H 0.86689 0.3596 0.41304 0.0
H256 H 0.90535 0.25901 0.52195 0.0
H257 H 0.95851 0.17243 0.49421 0.0
H258 H 0.86441 0.19922 0.39959 0.0
C259 C 0.73174 0.37955 0.46231 0.0
C260 C 0.71962 0.40846 0.4944 0.0
C261 C 0.75699 0.39541 0.52249 0.0
C262 C 0.80485 0.35335 0.51874 0.0
C263 C 0.81484 0.32506 0.48675 0.0
C264 C 0.77934 0.3378 0.45904 0.0
C265 C 0.79604 0.29871 0.42777 0.0
C266 C 0.73764 0.26307 0.41273 0.0
C267 C 0.82493 0.33385 0.40191 0.0
C268 C 0.84538 0.2608 0.44229 0.0
C269 C 0.85628 0.27705 0.47625 0.0
C270 C 0.89764 0.24636 0.49531 0.0
C271 C 0.92763 0.19723 0.47933 0.0
C272 C 0.91572 0.17908 0.44472 0.0
C273 C 0.87495 0.21213 0.426 0.0
H274 H 0.36045 0.41818 0.48575 0.0
H275 H 0.50723 0.33749 0.54213 0.0
H276 H 0.43083 0.26059 0.55233 0.0
H277 H 0.23873 0.39791 0.54157 0.0
H278 H 0.17592 0.3852 0.50976 0.0
H279 H 0.24383 0.42921 0.50287 0.0
H280 H 0.26536 0.36274 0.44804 0.0
H281 H 0.19725 0.31857 0.45462 0.0
H282 H 0.27436 0.28587 0.44909 0.0
H283 H 0.33838 0.19428 0.55744 0.0
H284 H 0.23366 0.14765 0.56193 0.0
H285 H 0.14394 0.27675 0.50692 0.0
C286 C 0.37657 0.3834 0.49953 0.0
C287 C 0.43972 0.38254 0.5126 0.0
C288 C 0.45906 0.33802 0.53162 0.0
C289 C 0.41612 0.29428 0.53744 0.0
C290 C 0.35379 0.29657 0.52461 0.0
C291 C 0.33376 0.34031 0.50638 0.0
C292 C 0.2627 0.33591 0.49833 0.0
C293 C 0.22829 0.39028 0.51408 0.0
C294 C 0.24914 0.32512 0.46026 0.0
C295 C 0.24589 0.28313 0.5151 0.0
C296 C 0.29939 0.2605 0.52952 0.0
C297 C 0.29612 0.2116 0.54629 0.0
C298 C 0.23649 0.18537 0.54866 0.0
C299 C 0.18077 0.20877 0.53493 0.0
C300 C 0.18573 0.25817 0.51784 0.0
H301 H 0.36327 0.5796 0.46206 0.0
H302 H 0.41639 0.67863 0.55756 0.0
H303 H 0.313 0.73019 0.55649 0.0
H304 H 0.28441 0.69021 0.4244 0.0
H305 H 0.22316 0.64251 0.40394 0.0
H306 H 0.30072 0.61445 0.41291 0.0
H307 H 0.24941 0.53788 0.44574 0.0
H308 H 0.17159 0.56568 0.43691 0.0
H309 H 0.19805 0.56124 0.47964 0.0
H310 H 0.20456 0.77413 0.54227 0.0
H311 H 0.10009 0.80162 0.51853 0.0
H312 H 0.11941 0.668 0.43435 0.0
C313 C 0.35349 0.61237 0.48275 0.0
C314 C 0.39804 0.6259 0.50968 0.0
C315 C 0.38283 0.668 0.53661 0.0
C316 C 0.32438 0.69738 0.53616 0.0
C317 C 0.28163 0.68311 0.50893 0.0
C318 C 0.29546 0.64098 0.48297 0.0
C319 C 0.24177 0.63226 0.45685 0.0
C320 C 0.26385 0.64569 0.42251 0.0
C321 C 0.21354 0.57062 0.45468 0.0
C322 C 0.19564 0.67701 0.47164 0.0
C323 C 0.21922 0.70617 0.50162 0.0
C324 C 0.1855 0.75111 0.51901 0.0
C325 C 0.12635 0.7665 0.50531 0.0
C326 C 0.10153 0.73664 0.47473 0.0
C327 C 0.13669 0.69117 0.45797 0.0
H328 H 0.92661 0.91832 0.18691 0.0
H329 H 0.07782 0.04769 0.20148 0.0
H330 H 0.08364 0.03798 0.26215 0.0
H331 H 0.84813 0.96042 0.2648 0.0
H332 H 0.82964 0.88679 0.27109 0.0
H333 H 0.83602 0.90582 0.22923 0.0
H334 H 0.92098 0.82635 0.21688 0.0
H335 H 0.91478 0.80702 0.25865 0.0
H336 H 0.99113 0.82661 0.24405 0.0
H337 H 0.07303 0.01295 0.32148 0.0
H338 H 0.05139 0.97067 0.37353 0.0
H339 H 0.90812 0.85709 0.31945 0.0
C340 C 0.96045 0.94511 0.20294 0.0
C341 C 0.00151 0.98405 0.18956 0.0
C342 C 0.04611 0.01742 0.21122 0.0
C343 C 0.04948 0.01243 0.24571 0.0
C344 C 0.00818 0.97362 0.25808 0.0
C345 C 0.9648 0.94029 0.23727 0.0
C346 C 0.92754 0.90009 0.25645 0.0
C347 C 0.8561 0.91415 0.25532 0.0
C348 C 0.93935 0.83625 0.24322 0.0
C349 C 0.95689 0.91572 0.29131 0.0
C350 C 0.00285 0.95863 0.29188 0.0
C351 C 0.03678 0.97966 0.32134 0.0
C352 C 0.02373 0.95581 0.35089 0.0
C353 C 0.97739 0.91128 0.35066 0.0
C354 C 0.94366 0.89125 0.32042 0.0
H355 H 0.02393 0.98075 0.80632 0.0
H356 H 0.89204 0.11659 0.84038 0.0
H357 H 0.89349 0.15228 0.78501 0.0
H358 H 0.11876 0.06575 0.75717 0.0
H359 H 0.13007 0.00687 0.72444 0.0
H360 H 0.11861 0.99196 0.76674 0.0
H361 H 0.02308 0.92422 0.7462 0.0
H362 H 0.03456 0.93858 0.70382 0.0
H363 H 0.95824 0.95156 0.72228 0.0
H364 H 0.9104 0.1738 0.72591 0.0
H365 H 0.93592 0.17544 0.66652 0.0
H366 H 0.05694 0.02559 0.67143 0.0
C367 C 0.99553 0.01814 0.80218 0.0
C368 C 0.95776 0.0458 0.82768 0.0
C369 C 0.92066 0.09418 0.82109 0.0
C370 C 0.92161 0.1151 0.78982 0.0
C371 C 0.95981 0.08712 0.76535 0.0
C372 C 0.99574 0.03944 0.7711 0.0
C373 C 0.03171 0.01646 0.74038 0.0
C374 C 0.10408 0.02053 0.74763 0.0
C375 C 0.01061 0.95402 0.72741 0.0
C376 C 0.01031 0.05859 0.71642 0.0
C377 C 0.96919 0.09926 0.73134 0.0
C378 C 0.94261 0.14219 0.71397 0.0
C379 C 0.95757 0.14288 0.68026 0.0
C380 C 0.99851 0.10074 0.66424 0.0
C381 C 0.02569 0.05861 0.68288 0.0
H382 H 0.5546 0.49381 0.69721 0.0
H383 H 0.66964 0.64707 0.69004 0.0
H384 H 0.68235 0.66334 0.75193 0.0
H385 H 0.47159 0.54997 0.76996 0.0
H386 H 0.47126 0.48205 0.78733 0.0
H387 H 0.47242 0.48249 0.74262 0.0
H388 H 0.57451 0.42014 0.74051 0.0
H389 H 0.57367 0.41952 0.78522 0.0
H390 H 0.64342 0.445 0.7664 0.0
H391 H 0.67921 0.66402 0.81505 0.0
H392 H 0.66377 0.64675 0.87383 0.0
H393 H 0.55176 0.49262 0.83853 0.0
C394 C 0.58224 0.53095 0.70866 0.0
C395 C 0.61097 0.56933 0.68893 0.0
C396 C 0.64763 0.61693 0.70478 0.0
C397 C 0.65486 0.62664 0.73985 0.0
C398 C 0.6255 0.58808 0.75859 0.0
C399 C 0.59025 0.54101 0.74349 0.0
C400 C 0.56369 0.5058 0.7691 0.0
C401 C 0.4904 0.50507 0.76713 0.0
C402 C 0.59045 0.44396 0.76506 0.0
C403 C 0.58914 0.54055 0.80105 0.0
C404 C 0.62447 0.58801 0.79458 0.0
C405 C 0.65161 0.627 0.82039 0.0
C406 C 0.6422 0.61716 0.85364 0.0
C407 C 0.60616 0.5687 0.86062 0.0
C408 C 0.57985 0.52987 0.83391 0.0
H409 H 0.58962 0.45555 0.30437 0.0
H410 H 0.4386 0.57833 0.32918 0.0
H411 H 0.42473 0.59228 0.26947 0.0
H412 H 0.65847 0.52981 0.24051 0.0
H413 H 0.67592 0.46408 0.21391 0.0
H414 H 0.6743 0.4639 0.25865 0.0
H415 H 0.59061 0.38052 0.2506 0.0
H416 H 0.5923 0.38019 0.20585 0.0
H417 H 0.51782 0.38928 0.22669 0.0
H418 H 0.42801 0.5936 0.20746 0.0
H419 H 0.44333 0.57762 0.14656 0.0
H420 H 0.59205 0.45348 0.16212 0.0
C421 C 0.55383 0.48553 0.29721 0.0
C422 C 0.51509 0.51582 0.32132 0.0
C423 C 0.46822 0.55417 0.31101 0.0
C424 C 0.46035 0.56273 0.27724 0.0
C425 C 0.49964 0.5325 0.25415 0.0
C426 C 0.54513 0.49437 0.26361 0.0
C427 C 0.58008 0.46624 0.2337 0.0
C428 C 0.65142 0.48197 0.2369 0.0
C429 C 0.56954 0.40015 0.22893 0.0
C430 C 0.547 0.49446 0.20592 0.0
C431 C 0.50109 0.53282 0.21829 0.0
C432 C 0.46382 0.56368 0.19743 0.0
C433 C 0.47301 0.55436 0.16288 0.0
C434 C 0.51889 0.51428 0.14954 0.0
C435 C 0.55675 0.48453 0.17151 0.0
loop_
_geom_bond_atom_site_label_1
_geom_bond_atom_site_label_2
_geom_bond_distance
_geom_bond_site_symmetry_2
_ccdc_geom_bond_type
C0 O16 1.277 . S
C0 O18 1.224 1_554 S
N1 C2 1.333 1_455 S
N1 C6 1.307 . S
N1 Zn7 2.020 . S
C2 N1 1.333 1_655 S
C2 C3 1.379 . S
C2 H20 0.952 1_545 S
C3 C2 1.379 . S
C3 C4 1.390 1_655 S
C3 H30 0.949 . S
C4 C3 1.390 1_455 S
C4 C5 1.357 . S
C5 C4 1.357 . S
C5 C6 1.370 . S
C5 H31 0.950 . S
C6 N1 1.307 . S
C6 C5 1.370 . S
C6 H24 0.948 . S
Zn7 N1 2.020 . S
Zn7 O16 2.039 1_445 S
Zn7 O22 2.034 1_455 S
Zn7 O26 2.025 . S
Zn7 O28 2.024 1_545 S
C8 O27 1.246 1_554 S
C8 O28 1.249 . S
N9 C10 1.307 1_445 S
N9 C11 1.333 . S
N9 Zn15 2.020 . S
C10 N9 1.307 1_665 S
C10 C14 1.370 . S
C10 H21 0.948 . S
C11 N9 1.333 . S
C11 C12 1.379 . S
C11 H19 0.952 . S
C12 C11 1.379 . S
C12 C13 1.391 . S
C12 H32 0.949 . S
C13 C12 1.391 . S
C13 C14 1.355 1_445 S
C14 C10 1.370 . S
C14 C13 1.355 1_665 S
C14 H33 0.950 . S
Zn15 N9 2.020 . S
Zn15 O18 2.025 1_445 S
Zn15 O23 2.024 1_455 S
Zn15 O25 2.039 . S
Zn15 O27 2.034 1_545 S
O16 C0 1.277 . S
O16 Zn7 2.039 1_665 S
C17 O22 1.246 . S
C17 O23 1.249 1_554 S
O18 C0 1.224 1_556 S
O18 Zn15 2.025 1_665 S
H19 C11 0.952 . S
H20 C2 0.952 1_565 S
H21 C10 0.948 . S
O22 Zn7 2.034 1_655 S
O22 C17 1.246 . S
O23 Zn15 2.024 1_655 S
O23 C17 1.249 1_556 S
H24 C6 0.948 . S
O25 Zn15 2.039 . S
O25 C29 1.251 1_556 S
O26 Zn7 2.025 . S
O26 C29 1.254 . S
O27 C8 1.246 1_556 S
O27 Zn15 2.034 1_565 S
O28 Zn7 2.024 1_565 S
O28 C8 1.249 . S
C29 O25 1.251 1_554 S
C29 O26 1.254 . S
H30 C3 0.949 . S
H31 C5 0.950 . S
H32 C12 0.949 . S
H33 C14 0.950 . S
C34 O50 1.251 . S
C34 O52 1.254 . S
N35 C36 1.333 . S
N35 C40 1.307 . S
N35 Zn41 2.020 . S
C36 N35 1.333 . S
C36 C37 1.379 . S
C36 H54 0.952 . S
C37 C36 1.379 . S
C37 C38 1.390 . S
C37 H64 0.949 . S
C38 C37 1.390 . S
C38 C39 1.357 . S
C39 C38 1.357 . S
C39 C40 1.370 . S
C39 H65 0.950 . S
C40 N35 1.307 . S
C40 C39 1.370 . S
C40 H58 0.948 . S
Zn41 N35 2.020 . S
Zn41 O50 2.039 . S
Zn41 O56 2.034 . S
Zn41 O60 2.025 . S
Zn41 O62 2.024 . S
C42 O61 1.246 . S
C42 O62 1.249 . S
N43 C44 1.307 . S
N43 C45 1.333 . S
N43 Zn49 2.020 . S
C44 N43 1.307 . S
C44 C48 1.370 . S
C44 H55 0.948 . S
C45 N43 1.333 . S
C45 C46 1.379 . S
C45 H53 0.952 . S
C46 C45 1.379 . S
C46 C47 1.390 . S
C46 H66 0.949 . S
C47 C46 1.390 . S
C47 C48 1.357 . S
C48 C44 1.370 . S
C48 C47 1.357 . S
C48 H67 0.950 . S
Zn49 N43 2.020 . S
Zn49 O52 2.025 . S
Zn49 O57 2.024 . S
Zn49 O59 2.039 . S
Zn49 O61 2.034 . S
O50 C34 1.251 . S
O50 Zn41 2.039 . S
C51 O56 1.246 . S
C51 O57 1.249 . S
O52 C34 1.254 . S
O52 Zn49 2.025 . S
H53 C45 0.952 . S
H54 C36 0.952 . S
H55 C44 0.948 . S
O56 Zn41 2.034 . S
O56 C51 1.246 . S
O57 Zn49 2.024 . S
O57 C51 1.249 . S
H58 C40 0.948 . S
O59 Zn49 2.039 . S
O59 C63 1.251 . S
O60 Zn41 2.025 . S
O60 C63 1.254 . S
O61 C42 1.246 . S
O61 Zn49 2.034 . S
O62 Zn41 2.024 . S
O62 C42 1.249 . S
C63 O59 1.251 . S
C63 O60 1.254 . S
H64 C37 0.949 . S
H65 C39 0.950 . S
H66 C46 0.949 . S
H67 C48 0.950 . S
O68 Cd69 2.300 1_565 S
O68 C75 1.275 1_565 S
Cd69 O68 2.300 1_545 S
Cd69 O77 2.381 1_545 S
Cd69 O78 2.378 1_545 S
O70 Cd71 2.385 . S
O70 C75 1.255 . S
Cd71 O70 2.385 . S
Cd71 O72 2.317 1_455 S
O72 Cd71 2.317 1_655 S
O72 C73 1.232 . S
C73 O72 1.232 . S
C73 O74 1.218 . S
O74 C73 1.218 . S
C75 O68 1.275 1_545 S
C75 O70 1.255 . S
C76 O77 1.258 . S
C76 O78 1.256 . S
O77 Cd69 2.381 1_565 S
O77 C76 1.258 . S
O78 Cd69 2.378 1_565 S
O78 C76 1.256 . S
O79 Cd80 2.300 . S
O79 C86 1.275 1_545 S
Cd80 O79 2.300 . S
Cd80 O88 2.381 . S
Cd80 O89 2.378 . S
O81 Cd82 2.385 . S
O81 C86 1.255 . S
Cd82 O81 2.385 . S
Cd82 O83 2.317 1_455 S
O83 Cd82 2.317 1_655 S
O83 C84 1.232 . S
C84 O83 1.232 . S
C84 O85 1.218 . S
O85 C84 1.218 . S
C86 O79 1.275 1_565 S
C86 O81 1.255 . S
C87 O88 1.258 . S
C87 O89 1.256 . S
O88 Cd80 2.381 . S
O88 C87 1.258 . S
O89 Cd80 2.378 . S
O89 C87 1.256 . S
O90 Cd91 2.300 . S
O90 C97 1.275 . S
Cd91 O90 2.300 . S
Cd91 O99 2.381 . S
Cd91 O100 2.378 1_556 S
O92 Cd93 2.385 . S
O92 C97 1.255 . S
Cd93 O92 2.385 . S
Cd93 O94 2.317 . S
O94 Cd93 2.317 . S
O94 C95 1.232 . S
C95 O94 1.232 . S
C95 O96 1.218 . S
O96 C95 1.218 . S
C97 O90 1.275 . S
C97 O92 1.255 . S
C98 O99 1.258 . S
C98 O100 1.256 1_556 S
O99 Cd91 2.381 . S
O99 C98 1.258 . S
O100 Cd91 2.378 1_554 S
O100 C98 1.256 1_554 S
O101 Cd102 2.300 . S
O101 C108 1.275 . S
Cd102 O101 2.300 . S
Cd102 O110 2.381 . S
Cd102 O111 2.378 . S
O103 Cd104 2.385 . S
O103 C108 1.255 . S
Cd104 O103 2.385 . S
Cd104 O105 2.317 . S
O105 Cd104 2.317 . S
O105 C106 1.232 . S
C106 O105 1.232 . S
C106 O107 1.218 . S
O107 C106 1.218 . S
C108 O101 1.275 . S
C108 O103 1.255 . S
C109 O110 1.258 . S
C109 O111 1.256 . S
O110 Cd102 2.381 . S
O110 C109 1.258 . S
O111 Cd102 2.378 . S
O111 C109 1.256 . S
H112 C124 0.930 . S
H113 C126 0.930 . S
H114 C127 0.930 . S
H115 C131 0.959 . S
H116 C131 0.959 . S
H117 C131 0.961 . S
H118 C132 0.960 . S
H119 C132 0.961 . S
H120 C132 0.959 . S
H121 C135 0.929 . S
H122 C136 0.931 . S
H123 C138 0.930 . S
C124 H112 0.930 . S
C124 C125 1.399 1_556 S
C124 C129 1.399 . S
C125 C124 1.399 1_554 S
C125 C126 1.376 . S
C126 H113 0.930 . S
C126 C125 1.376 . S
C126 C127 1.388 . S
C127 H114 0.930 . S
C127 C126 1.388 . S
C127 C128 1.390 . S
C128 C127 1.390 . S
C128 C129 1.394 1_554 S
C128 C134 1.465 . S
C129 C124 1.399 . S
C129 C128 1.394 1_556 S
C129 C130 1.516 . S
C130 C129 1.516 . S
C130 C131 1.502 . S
C130 C132 1.561 . S
C130 C133 1.526 . S
C131 H115 0.959 . S
C131 H116 0.959 . S
C131 H117 0.961 . S
C131 C130 1.502 . S
C132 H118 0.960 . S
C132 H119 0.961 . S
C132 H120 0.959 . S
C132 C130 1.561 . S
C133 C130 1.526 . S
C133 C134 1.396 1_556 S
C133 C138 1.390 . S
C134 C128 1.465 . S
C134 C133 1.396 1_554 S
C134 C135 1.399 . S
C135 H121 0.929 . S
C135 C134 1.399 . S
C135 C136 1.385 . S
C136 H122 0.931 . S
C136 C135 1.385 . S
C136 C137 1.389 . S
C137 C136 1.389 . S
C137 C138 1.387 1_554 S
C138 H123 0.930 . S
C138 C133 1.390 . S
C138 C137 1.387 1_556 S
H139 C151 0.930 . S
H140 C153 0.930 . S
H141 C154 0.930 . S
H142 C158 0.959 . S
H143 C158 0.959 . S
H144 C158 0.961 . S
H145 C159 0.960 . S
H146 C159 0.961 . S
H147 C159 0.959 . S
H148 C162 0.929 . S
H149 C163 0.931 . S
H150 C165 0.930 . S
C151 H139 0.930 . S
C151 C152 1.399 1_554 S
C151 C156 1.399 . S
C152 C151 1.399 1_556 S
C152 C153 1.376 . S
C153 H140 0.930 . S
C153 C152 1.376 . S
C153 C154 1.388 . S
C154 H141 0.930 . S
C154 C153 1.388 . S
C154 C155 1.390 . S
C155 C154 1.390 . S
C155 C156 1.394 1_556 S
C155 C161 1.465 . S
C156 C151 1.399 . S
C156 C155 1.394 1_554 S
C156 C157 1.516 . S
C157 C156 1.516 . S
C157 C158 1.502 . S
C157 C159 1.561 . S
C157 C160 1.526 . S
C158 H142 0.959 . S
C158 H143 0.959 . S
C158 H144 0.961 . S
C158 C157 1.502 . S
C159 H145 0.960 . S
C159 H146 0.961 . S
C159 H147 0.959 . S
C159 C157 1.561 . S
C160 C157 1.526 . S
C160 C161 1.396 1_554 S
C160 C165 1.390 . S
C161 C155 1.465 . S
C161 C160 1.396 1_556 S
C161 C162 1.399 . S
C162 H148 0.929 . S
C162 C161 1.399 . S
C162 C163 1.385 . S
C163 H149 0.931 . S
C163 C162 1.385 . S
C163 C164 1.389 . S
C164 C163 1.389 . S
C164 C165 1.387 1_556 S
C165 H150 0.930 . S
C165 C160 1.390 . S
C165 C164 1.387 1_554 S
H166 C178 0.930 . S
H167 C180 0.930 . S
H168 C181 0.930 . S
H169 C185 0.959 . S
H170 C185 0.959 . S
H171 C185 0.961 . S
H172 C186 0.960 . S
H173 C186 0.961 . S
H174 C186 0.959 . S
H175 C189 0.929 . S
H176 C190 0.931 . S
H177 C192 0.930 . S
C178 H166 0.930 . S
C178 C179 1.399 1_556 S
C178 C183 1.399 . S
C179 C178 1.399 1_554 S
C179 C180 1.376 . S
C180 H167 0.930 . S
C180 C179 1.376 . S
C180 C181 1.388 . S
C181 H168 0.930 . S
C181 C180 1.388 . S
C181 C182 1.390 . S
C182 C181 1.390 . S
C182 C183 1.394 1_554 S
C182 C188 1.465 . S
C183 C178 1.399 . S
C183 C182 1.394 1_556 S
C183 C184 1.516 . S
C184 C183 1.516 . S
C184 C185 1.502 . S
C184 C186 1.561 . S
C184 C187 1.526 . S
C185 H169 0.959 . S
C185 H170 0.959 . S
C185 H171 0.961 . S
C185 C184 1.502 . S
C186 H172 0.960 . S
C186 H173 0.961 . S
C186 H174 0.959 . S
C186 C184 1.561 . S
C187 C184 1.526 . S
C187 C188 1.396 1_556 S
C187 C192 1.390 . S
C188 C182 1.465 . S
C188 C187 1.396 1_554 S
C188 C189 1.399 . S
C189 H175 0.929 . S
C189 C188 1.399 . S
C189 C190 1.385 . S
C190 H176 0.931 . S
C190 C189 1.385 . S
C190 C191 1.389 . S
C191 C190 1.389 . S
C191 C192 1.387 1_554 S
C192 H177 0.930 . S
C192 C187 1.390 . S
C192 C191 1.387 1_556 S
H193 C205 0.930 . S
H194 C207 0.930 . S
H195 C208 0.930 . S
H196 C212 0.959 . S
H197 C212 0.959 . S
H198 C212 0.961 . S
H199 C213 0.960 . S
H200 C213 0.961 . S
H201 C213 0.959 . S
H202 C216 0.929 . S
H203 C217 0.931 . S
H204 C219 0.930 . S
C205 H193 0.930 . S
C205 C206 1.399 1_556 S
C205 C210 1.399 . S
C206 C205 1.399 1_554 S
C206 C207 1.376 . S
C207 H194 0.930 . S
C207 C206 1.376 . S
C207 C208 1.388 . S
C208 H195 0.930 . S
C208 C207 1.388 . S
C208 C209 1.390 . S
C209 C208 1.390 . S
C209 C210 1.394 1_554 S
C209 C215 1.465 . S
C210 C205 1.399 . S
C210 C209 1.394 1_556 S
C210 C211 1.516 . S
C211 C210 1.516 . S
C211 C212 1.502 . S
C211 C213 1.561 . S
C211 C214 1.526 . S
C212 H196 0.959 . S
C212 H197 0.959 . S
C212 H198 0.961 . S
C212 C211 1.502 . S
C213 H199 0.960 . S
C213 H200 0.961 . S
C213 H201 0.959 . S
C213 C211 1.561 . S
C214 C211 1.526 . S
C214 C215 1.396 1_556 S
C214 C219 1.390 . S
C215 C209 1.465 . S
C215 C214 1.396 1_554 S
C215 C216 1.399 . S
C216 H202 0.929 . S
C216 C215 1.399 . S
C216 C217 1.385 . S
C217 H203 0.931 . S
C217 C216 1.385 . S
C217 C218 1.389 . S
C218 C217 1.389 . S
C218 C219 1.387 1_554 S
C219 H204 0.930 . S
C219 C214 1.390 . S
C219 C218 1.387 1_556 S
H220 C232 0.930 . S
H221 C234 0.930 . S
H222 C235 0.930 . S
H223 C239 0.959 . S
H224 C239 0.959 . S
H225 C239 0.961 . S
H226 C240 0.960 . S
H227 C240 0.961 . S
H228 C240 0.959 . S
H229 C243 0.929 . S
H230 C244 0.931 . S
H231 C246 0.930 . S
C232 H220 0.930 . S
C232 C233 1.399 . S
C232 C237 1.399 . S
C233 C232 1.399 . S
C233 C234 1.376 . S
C234 H221 0.930 . S
C234 C233 1.376 . S
C234 C235 1.388 . S
C235 H222 0.930 . S
C235 C234 1.388 . S
C235 C236 1.390 . S
C236 C235 1.390 . S
C236 C237 1.394 . S
C236 C242 1.465 . S
C237 C232 1.399 . S
C237 C236 1.394 . S
C237 C238 1.516 . S
C238 C237 1.516 . S
C238 C239 1.502 . S
C238 C240 1.561 . S
C238 C241 1.526 . S
C239 H223 0.959 . S
C239 H224 0.959 . S
C239 H225 0.961 . S
C239 C238 1.502 . S
C240 H226 0.960 . S
C240 H227 0.961 . S
C240 H228 0.959 . S
C240 C238 1.561 . S
C241 C238 1.526 . S
C241 C242 1.396 . S
C241 C246 1.390 . S
C242 C236 1.465 . S
C242 C241 1.396 . S
C242 C243 1.399 . S
C243 H229 0.929 . S
C243 C242 1.399 . S
C243 C244 1.385 . S
C244 H230 0.931 . S
C244 C243 1.385 . S
C244 C245 1.389 . S
C245 C244 1.389 . S
C245 C246 1.387 . S
C246 H231 0.930 . S
C246 C241 1.390 . S
C246 C245 1.387 . S
H247 C259 0.930 . S
H248 C261 0.930 . S
H249 C262 0.930 . S
H250 C266 0.959 . S
H251 C266 0.959 . S
H252 C266 0.961 . S
H253 C267 0.960 . S
H254 C267 0.961 . S
H255 C267 0.959 . S
H256 C270 0.929 . S
H257 C271 0.931 . S
H258 C273 0.930 . S
C259 H247 0.930 . S
C259 C260 1.399 . S
C259 C264 1.399 . S
C260 C259 1.399 . S
C260 C261 1.376 . S
C261 H248 0.930 . S
C261 C260 1.376 . S
C261 C262 1.388 . S
C262 H249 0.930 . S
C262 C261 1.388 . S
C262 C263 1.390 . S
C263 C262 1.390 . S
C263 C264 1.394 . S
C263 C269 1.465 . S
C264 C259 1.399 . S
C264 C263 1.394 . S
C264 C265 1.516 . S
C265 C264 1.516 . S
C265 C266 1.502 . S
C265 C267 1.561 . S
C265 C268 1.526 . S
C266 H250 0.959 . S
C266 H251 0.959 . S
C266 H252 0.961 . S
C266 C265 1.502 . S
C267 H253 0.960 . S
C267 H254 0.961 . S
C267 H255 0.959 . S
C267 C265 1.561 . S
C268 C265 1.526 . S
C268 C269 1.396 . S
C268 C273 1.390 . S
C269 C263 1.465 . S
C269 C268 1.396 . S
C269 C270 1.399 . S
C270 H256 0.929 . S
C270 C269 1.399 . S
C270 C271 1.385 . S
C271 H257 0.931 . S
C271 C270 1.385 . S
C271 C272 1.389 . S
C272 C271 1.389 . S
C272 C273 1.387 . S
C273 H258 0.930 . S
C273 C268 1.390 . S
C273 C272 1.387 . S
H274 C286 0.930 . S
H275 C288 0.930 . S
H276 C289 0.930 . S
H277 C293 0.959 . S
H278 C293 0.959 . S
H279 C293 0.961 . S
H280 C294 0.960 . S
H281 C294 0.961 . S
H282 C294 0.959 . S
H283 C297 0.929 . S
H284 C298 0.931 . S
H285 C300 0.930 . S
C286 H274 0.930 . S
C286 C287 1.399 . S
C286 C291 1.399 . S
C287 C286 1.399 . S
C287 C288 1.376 . S
C288 H275 0.930 . S
C288 C287 1.376 . S
C288 C289 1.388 . S
C289 H276 0.930 . S
C289 C288 1.388 . S
C289 C290 1.390 . S
C290 C289 1.390 . S
C290 C291 1.394 . S
C290 C296 1.465 . S
C291 C286 1.399 . S
C291 C290 1.394 . S
C291 C292 1.516 . S
C292 C291 1.516 . S
C292 C293 1.502 . S
C292 C294 1.561 . S
C292 C295 1.526 . S
C293 H277 0.959 . S
C293 H278 0.959 . S
C293 H279 0.961 . S
C293 C292 1.502 . S
C294 H280 0.960 . S
C294 H281 0.961 . S
C294 H282 0.959 . S
C294 C292 1.561 . S
C295 C292 1.526 . S
C295 C296 1.396 . S
C295 C300 1.390 . S
C296 C290 1.465 . S
C296 C295 1.396 . S
C296 C297 1.399 . S
C297 H283 0.929 . S
C297 C296 1.399 . S
C297 C298 1.385 . S
C298 H284 0.931 . S
C298 C297 1.385 . S
C298 C299 1.389 . S
C299 C298 1.389 . S
C299 C300 1.387 . S
C300 H285 0.930 . S
C300 C295 1.390 . S
C300 C299 1.387 . S
H301 C313 0.930 . S
H302 C315 0.930 . S
H303 C316 0.930 . S
H304 C320 0.959 . S
H305 C320 0.959 . S
H306 C320 0.961 . S
H307 C321 0.960 . S
H308 C321 0.961 . S
H309 C321 0.959 . S
H310 C324 0.929 . S
H311 C325 0.931 . S
H312 C327 0.930 . S
C313 H301 0.930 . S
C313 C314 1.399 . S
C313 C318 1.399 . S
C314 C313 1.399 . S
C314 C315 1.376 . S
C315 H302 0.930 . S
C315 C314 1.376 . S
C315 C316 1.388 . S
C316 H303 0.930 . S
C316 C315 1.388 . S
C316 C317 1.390 . S
C317 C316 1.390 . S
C317 C318 1.394 . S
C317 C323 1.465 . S
C318 C313 1.399 . S
C318 C317 1.394 . S
C318 C319 1.516 . S
C319 C318 1.516 . S
C319 C320 1.502 . S
C319 C321 1.561 . S
C319 C322 1.526 . S
C320 H304 0.959 . S
C320 H305 0.959 . S
C320 H306 0.961 . S
C320 C319 1.502 . S
C321 H307 0.960 . S
C321 H308 0.961 . S
C321 H309 0.959 . S
C321 C319 1.561 . S
C322 C319 1.526 . S
C322 C323 1.396 . S
C322 C327 1.390 . S
C323 C317 1.465 . S
C323 C322 1.396 . S
C323 C324 1.399 . S
C324 H310 0.929 . S
C324 C323 1.399 . S
C324 C325 1.385 . S
C325 H311 0.931 . S
C325 C324 1.385 . S
C325 C326 1.389 . S
C326 C325 1.389 . S
C326 C327 1.387 . S
C327 H312 0.930 . S
C327 C322 1.390 . S
C327 C326 1.387 . S
H328 C340 0.930 . S
H329 C342 0.930 . S
H330 C343 0.930 . S
H331 C347 0.959 . S
H332 C347 0.959 . S
H333 C347 0.961 . S
H334 C348 0.960 . S
H335 C348 0.961 . S
H336 C348 0.959 . S
H337 C351 0.929 . S
H338 C352 0.931 . S
H339 C354 0.930 . S
C340 H328 0.930 . S
C340 C341 1.399 1_665 S
C340 C345 1.399 1_665 S
C341 C340 1.399 1_445 S
C341 C342 1.376 . S
C342 H329 0.930 . S
C342 C341 1.376 . S
C342 C343 1.388 . S
C343 H330 0.930 . S
C343 C342 1.388 . S
C343 C344 1.390 . S
C344 C343 1.390 . S
C344 C345 1.394 . S
C344 C350 1.465 . S
C345 C340 1.399 1_445 S
C345 C344 1.394 . S
C345 C346 1.516 1_445 S
C346 C345 1.516 1_665 S
C346 C347 1.502 . S
C346 C348 1.561 1_655 S
C346 C349 1.526 1_665 S
C347 H331 0.959 . S
C347 H332 0.959 . S
C347 H333 0.961 . S
C347 C346 1.502 . S
C348 H334 0.960 . S
C348 H335 0.961 . S
C348 H336 0.959 . S
C348 C346 1.561 1_455 S
C349 C346 1.526 1_445 S
C349 C350 1.396 . S
C349 C354 1.390 1_445 S
C350 C344 1.465 . S
C350 C349 1.396 . S
C350 C351 1.399 . S
C351 H337 0.929 . S
C351 C350 1.399 . S
C351 C352 1.385 . S
C352 H338 0.931 . S
C352 C351 1.385 . S
C352 C353 1.389 . S
C353 C352 1.389 . S
C353 C354 1.387 1_445 S
C354 H339 0.930 . S
C354 C349 1.390 1_665 S
C354 C353 1.387 1_665 S
H355 C367 0.930 . S
H356 C369 0.930 . S
H357 C370 0.930 . S
H358 C374 0.959 . S
H359 C374 0.959 . S
H360 C374 0.961 . S
H361 C375 0.960 . S
H362 C375 0.961 . S
H363 C375 0.959 1_655 S
H364 C378 0.929 . S
H365 C379 0.931 . S
H366 C381 0.930 . S
C367 H355 0.930 . S
C367 C368 1.399 1_565 S
C367 C372 1.399 . S
C368 C367 1.399 1_545 S
C368 C369 1.376 1_455 S
C369 H356 0.930 . S
C369 C368 1.376 1_655 S
C369 C370 1.388 . S
C370 H357 0.930 . S
C370 C369 1.388 . S
C370 C371 1.390 . S
C371 C370 1.390 . S
C371 C372 1.394 1_645 S
C371 C377 1.465 . S
C372 C367 1.399 . S
C372 C371 1.394 1_465 S
C372 C373 1.516 . S
C373 C372 1.516 . S
C373 C374 1.502 . S
C373 C375 1.561 . S
C373 C376 1.526 . S
C374 H358 0.959 . S
C374 H359 0.959 . S
C374 H360 0.961 . S
C374 C373 1.502 . S
C375 H361 0.960 . S
C375 H362 0.961 . S
C375 H363 0.959 1_455 S
C375 C373 1.561 . S
C376 C373 1.526 . S
C376 C377 1.396 1_465 S
C376 C381 1.390 . S
C377 C371 1.465 . S
C377 C376 1.396 1_645 S
C377 C378 1.399 . S
C378 H364 0.929 . S
C378 C377 1.399 . S
C378 C379 1.385 . S
C379 H365 0.931 . S
C379 C378 1.385 . S
C379 C380 1.389 1_655 S
C380 C379 1.389 1_455 S
C380 C381 1.387 1_545 S
C381 H366 0.930 . S
C381 C376 1.390 . S
C381 C380 1.387 1_565 S
H382 C394 0.930 . S
H383 C396 0.930 . S
H384 C397 0.930 . S
H385 C401 0.959 . S
H386 C401 0.959 . S
H387 C401 0.961 . S
H388 C402 0.960 . S
H389 C402 0.961 . S
H390 C402 0.959 . S
H391 C405 0.929 . S
H392 C406 0.931 . S
H393 C408 0.930 . S
C394 H382 0.930 . S
C394 C395 1.399 . S
C394 C399 1.399 . S
C395 C394 1.399 . S
C395 C396 1.376 . S
C396 H383 0.930 . S
C396 C395 1.376 . S
C396 C397 1.388 . S
C397 H384 0.930 . S
C397 C396 1.388 . S
C397 C398 1.390 . S
C398 C397 1.390 . S
C398 C399 1.394 . S
C398 C404 1.465 . S
C399 C394 1.399 . S
C399 C398 1.394 . S
C399 C400 1.516 . S
C400 C399 1.516 . S
C400 C401 1.502 . S
C400 C402 1.561 . S
C400 C403 1.526 . S
C401 H385 0.959 . S
C401 H386 0.959 . S
C401 H387 0.961 . S
C401 C400 1.502 . S
C402 H388 0.960 . S
C402 H389 0.961 . S
C402 H390 0.959 . S
C402 C400 1.561 . S
C403 C400 1.526 . S
C403 C404 1.396 . S
C403 C408 1.390 . S
C404 C398 1.465 . S
C404 C403 1.396 . S
C404 C405 1.399 . S
C405 H391 0.929 . S
C405 C404 1.399 . S
C405 C406 1.385 . S
C406 H392 0.931 . S
C406 C405 1.385 . S
C406 C407 1.389 . S
C407 C406 1.389 . S
C407 C408 1.387 . S
C408 H393 0.930 . S
C408 C403 1.390 . S
C408 C407 1.387 . S
H409 C421 0.930 . S
H410 C423 0.930 . S
H411 C424 0.930 . S
H412 C428 0.959 . S
H413 C428 0.959 . S
H414 C428 0.961 . S
H415 C429 0.960 . S
H416 C429 0.961 . S
H417 C429 0.959 . S
H418 C432 0.929 . S
H419 C433 0.931 . S
H420 C435 0.930 . S
C421 H409 0.930 . S
C421 C422 1.399 . S
C421 C426 1.399 . S
C422 C421 1.399 . S
C422 C423 1.376 . S
C423 H410 0.930 . S
C423 C422 1.376 . S
C423 C424 1.388 . S
C424 H411 0.930 . S
C424 C423 1.388 . S
C424 C425 1.390 . S
C425 C424 1.390 . S
C425 C426 1.394 . S
C425 C431 1.465 . S
C426 C421 1.399 . S
C426 C425 1.394 . S
C426 C427 1.516 . S
C427 C426 1.516 . S
C427 C428 1.502 . S
C427 C429 1.561 . S
C427 C430 1.526 . S
C428 H412 0.959 . S
C428 H413 0.959 . S
C428 H414 0.961 . S
C428 C427 1.502 . S
C429 H415 0.960 . S
C429 H416 0.961 . S
C429 H417 0.959 . S
C429 C427 1.561 . S
C430 C427 1.526 . S
C430 C431 1.396 . S
C430 C435 1.390 . S
C431 C425 1.465 . S
C431 C430 1.396 . S
C431 C432 1.399 . S
C432 H418 0.929 . S
C432 C431 1.399 . S
C432 C433 1.385 . S
C433 H419 0.931 . S
C433 C432 1.385 . S
C433 C434 1.389 . S
C434 C433 1.389 . S
C434 C435 1.387 . S
C435 H420 0.930 . S
C435 C430 1.390 . S
C435 C434 1.387 . S
C137 C106 1.258 . S
C125 C29 1.482 . S
C152 C8 1.491 1_556 S
C164 C95 1.275 . S
C179 C0 1.444 . S
C191 C109 1.381 . S
C206 C17 1.434 . S
C218 C98 1.430 1_554 S
C233 C63 1.482 . S
C245 C84 1.266 . S
C260 C42 1.472 . S
C272 C73 1.193 . S
C299 C87 1.377 . S
C287 C34 1.436 . S
C326 C76 1.361 . S
C314 C51 1.431 . S
C341 C4 1.498 . S
C353 C75 1.439 . S
C368 C13 1.492 . S
C380 C86 1.466 1_545 S
C407 C97 1.415 . S
C395 C38 1.498 . S
C422 C47 1.493 . S
C434 C108 1.456 . S
