# Generated by pormake.
# Topology iac, (4,6)-cn, num edge types: 1
# Building blocks:
#     Node 0, Type 0, BuildingBlock: AZAVOO_clean_sbu_0, # of connection points: 4
#     Node 1, Type 0, BuildingBlock: AZAVOO_clean_sbu_0, # of connection points: 4
#     Node 2, Type 0, BuildingBlock: AZAVOO_clean_sbu_0, # of connection points: 4
#     Node 3, Type 0, BuildingBlock: AZAVOO_clean_sbu_0, # of connection points: 4
#     Node 4, Type 0, BuildingBlock: AZAVOO_clean_sbu_0, # of connection points: 4
#     Node 5, Type 0, BuildingBlock: AZAVOO_clean_sbu_0, # of connection points: 4
#     Node 6, Type 0, BuildingBlock: AZAVOO_clean_sbu_0, # of connection points: 4
#     Node 7, Type 0, BuildingBlock: AZAVOO_clean_sbu_0, # of connection points: 4
#     Node 8, Type 0, BuildingBlock: AZAVOO_clean_sbu_0, # of connection points: 4
#     Node 9, Type 0, BuildingBlock: AZAVOO_clean_sbu_0, # of connection points: 4
#     Node 10, Type 0, BuildingBlock: AZAVOO_clean_sbu_0, # of connection points: 4
#     Node 11, Type 0, BuildingBlock: AZAVOO_clean_sbu_0, # of connection points: 4
#     Node 12, Type 0, BuildingBlock: AZAVOO_clean_sbu_0, # of connection points: 4
#     Node 13, Type 0, BuildingBlock: AZAVOO_clean_sbu_0, # of connection points: 4
#     Node 14, Type 0, BuildingBlock: AZAVOO_clean_sbu_0, # of connection points: 4
#     Node 15, Type 0, BuildingBlock: AZAVOO_clean_sbu_0, # of connection points: 4
#     Node 16, Type 0, BuildingBlock: AZAVOO_clean_sbu_0, # of connection points: 4
#     Node 17, Type 0, BuildingBlock: AZAVOO_clean_sbu_0, # of connection points: 4
#     Node 18, Type 0, BuildingBlock: AZAVOO_clean_sbu_0, # of connection points: 4
#     Node 19, Type 0, BuildingBlock: AZAVOO_clean_sbu_0, # of connection points: 4
#     Node 20, Type 0, BuildingBlock: AZAVOO_clean_sbu_0, # of connection points: 4
#     Node 21, Type 0, BuildingBlock: AZAVOO_clean_sbu_0, # of connection points: 4
#     Node 22, Type 0, BuildingBlock: AZAVOO_clean_sbu_0, # of connection points: 4
#     Node 23, Type 0, BuildingBlock: AZAVOO_clean_sbu_0, # of connection points: 4
#     Node 24, Type 1, BuildingBlock: VOLQOD_clean_sbu_1, # of connection points: 6
#     Node 25, Type 1, BuildingBlock: VOLQOD_clean_sbu_1, # of connection points: 6
#     Node 26, Type 1, BuildingBlock: VOLQOD_clean_sbu_1, # of connection points: 6
#     Node 27, Type 1, BuildingBlock: VOLQOD_clean_sbu_1, # of connection points: 6
#     Node 28, Type 1, BuildingBlock: VOLQOD_clean_sbu_1, # of connection points: 6
#     Node 29, Type 1, BuildingBlock: VOLQOD_clean_sbu_1, # of connection points: 6
#     Node 30, Type 1, BuildingBlock: VOLQOD_clean_sbu_1, # of connection points: 6
#     Node 31, Type 1, BuildingBlock: VOLQOD_clean_sbu_1, # of connection points: 6
#     Node 32, Type 1, BuildingBlock: VOLQOD_clean_sbu_1, # of connection points: 6
#     Node 33, Type 1, BuildingBlock: VOLQOD_clean_sbu_1, # of connection points: 6
#     Node 34, Type 1, BuildingBlock: VOLQOD_clean_sbu_1, # of connection points: 6
#     Node 35, Type 1, BuildingBlock: VOLQOD_clean_sbu_1, # of connection points: 6
#     Node 36, Type 1, BuildingBlock: VOLQOD_clean_sbu_1, # of connection points: 6
#     Node 37, Type 1, BuildingBlock: VOLQOD_clean_sbu_1, # of connection points: 6
#     Node 38, Type 1, BuildingBlock: VOLQOD_clean_sbu_1, # of connection points: 6
#     Node 39, Type 1, BuildingBlock: VOLQOD_clean_sbu_1, # of connection points: 6
#     Edge 40, Type (0, 1), BuildingBlock: CIFDUS_clean_linker_0, # of connection points: 2
#     Edge 41, Type (0, 1), BuildingBlock: CIFDUS_clean_linker_0, # of connection points: 2
#     Edge 42, Type (0, 1), BuildingBlock: CIFDUS_clean_linker_0, # of connection points: 2
#     Edge 43, Type (0, 1), BuildingBlock: CIFDUS_clean_linker_0, # of connection points: 2
#     Edge 44, Type (0, 1), BuildingBlock: CIFDUS_clean_linker_0, # of connection points: 2
#     Edge 45, Type (0, 1), BuildingBlock: CIFDUS_clean_linker_0, # of connection points: 2
#     Edge 46, Type (0, 1), BuildingBlock: CIFDUS_clean_linker_0, # of connection points: 2
#     Edge 47, Type (0, 1), BuildingBlock: CIFDUS_clean_linker_0, # of connection points: 2
#     Edge 48, Type (0, 1), BuildingBlock: CIFDUS_clean_linker_0, # of connection points: 2
#     Edge 49, Type (0, 1), BuildingBlock: CIFDUS_clean_linker_0, # of connection points: 2
#     Edge 50, Type (0, 1), BuildingBlock: CIFDUS_clean_linker_0, # of connection points: 2
#     Edge 51, Type (0, 1), BuildingBlock: CIFDUS_clean_linker_0, # of connection points: 2
#     Edge 52, Type (0, 1), BuildingBlock: CIFDUS_clean_linker_0, # of connection points: 2
#     Edge 53, Type (0, 1), BuildingBlock: CIFDUS_clean_linker_0, # of connection points: 2
#     Edge 54, Type (0, 1), BuildingBlock: CIFDUS_clean_linker_0, # of connection points: 2
#     Edge 55, Type (0, 1), BuildingBlock: CIFDUS_clean_linker_0, # of connection points: 2
#     Edge 56, Type (0, 1), BuildingBlock: CIFDUS_clean_linker_0, # of connection points: 2
#     Edge 57, Type (0, 1), BuildingBlock: CIFDUS_clean_linker_0, # of connection points: 2
#     Edge 58, Type (0, 1), BuildingBlock: CIFDUS_clean_linker_0, # of connection points: 2
#     Edge 59, Type (0, 1), BuildingBlock: CIFDUS_clean_linker_0, # of connection points: 2
#     Edge 60, Type (0, 1), BuildingBlock: CIFDUS_clean_linker_0, # of connection points: 2
#     Edge 61, Type (0, 1), BuildingBlock: CIFDUS_clean_linker_0, # of connection points: 2
#     Edge 62, Type (0, 1), BuildingBlock: CIFDUS_clean_linker_0, # of connection points: 2
#     Edge 63, Type (0, 1), BuildingBlock: CIFDUS_clean_linker_0, # of connection points: 2
#     Edge 64, Type (0, 1), BuildingBlock: CIFDUS_clean_linker_0, # of connection points: 2
#     Edge 65, Type (0, 1), BuildingBlock: CIFDUS_clean_linker_0, # of connection points: 2
#     Edge 66, Type (0, 1), BuildingBlock: CIFDUS_clean_linker_0, # of connection points: 2
#     Edge 67, Type (0, 1), BuildingBlock: CIFDUS_clean_linker_0, # of connection points: 2
#     Edge 68, Type (0, 1), BuildingBlock: CIFDUS_clean_linker_0, # of connection points: 2
#     Edge 69, Type (0, 1), BuildingBlock: CIFDUS_clean_linker_0, # of connection points: 2
#     Edge 70, Type (0, 1), BuildingBlock: CIFDUS_clean_linker_0, # of connection points: 2
#     Edge 71, Type (0, 1), BuildingBlock: CIFDUS_clean_linker_0, # of connection points: 2
#     Edge 72, Type (0, 1), BuildingBlock: CIFDUS_clean_linker_0, # of connection points: 2
#     Edge 73, Type (0, 1), BuildingBlock: CIFDUS_clean_linker_0, # of connection points: 2
#     Edge 74, Type (0, 1), BuildingBlock: CIFDUS_clean_linker_0, # of connection points: 2
#     Edge 75, Type (0, 1), BuildingBlock: CIFDUS_clean_linker_0, # of connection points: 2
#     Edge 76, Type (0, 1), BuildingBlock: CIFDUS_clean_linker_0, # of connection points: 2
#     Edge 77, Type (0, 1), BuildingBlock: CIFDUS_clean_linker_0, # of connection points: 2
#     Edge 78, Type (0, 1), BuildingBlock: CIFDUS_clean_linker_0, # of connection points: 2
#     Edge 79, Type (0, 1), BuildingBlock: CIFDUS_clean_linker_0, # of connection points: 2
#     Edge 80, Type (0, 1), BuildingBlock: CIFDUS_clean_linker_0, # of connection points: 2
#     Edge 81, Type (0, 1), BuildingBlock: CIFDUS_clean_linker_0, # of connection points: 2
#     Edge 82, Type (0, 1), BuildingBlock: CIFDUS_clean_linker_0, # of connection points: 2
#     Edge 83, Type (0, 1), BuildingBlock: CIFDUS_clean_linker_0, # of connection points: 2
#     Edge 84, Type (0, 1), BuildingBlock: CIFDUS_clean_linker_0, # of connection points: 2
#     Edge 85, Type (0, 1), BuildingBlock: CIFDUS_clean_linker_0, # of connection points: 2
#     Edge 86, Type (0, 1), BuildingBlock: CIFDUS_clean_linker_0, # of connection points: 2
#     Edge 87, Type (0, 1), BuildingBlock: CIFDUS_clean_linker_0, # of connection points: 2
#     Edge 88, Type (0, 1), BuildingBlock: CIFDUS_clean_linker_0, # of connection points: 2
#     Edge 89, Type (0, 1), BuildingBlock: CIFDUS_clean_linker_0, # of connection points: 2
#     Edge 90, Type (0, 1), BuildingBlock: CIFDUS_clean_linker_0, # of connection points: 2
#     Edge 91, Type (0, 1), BuildingBlock: CIFDUS_clean_linker_0, # of connection points: 2
#     Edge 92, Type (0, 1), BuildingBlock: CIFDUS_clean_linker_0, # of connection points: 2
#     Edge 93, Type (0, 1), BuildingBlock: CIFDUS_clean_linker_0, # of connection points: 2
#     Edge 94, Type (0, 1), BuildingBlock: CIFDUS_clean_linker_0, # of connection points: 2
#     Edge 95, Type (0, 1), BuildingBlock: CIFDUS_clean_linker_0, # of connection points: 2
#     Edge 96, Type (0, 1), BuildingBlock: CIFDUS_clean_linker_0, # of connection points: 2
#     Edge 97, Type (0, 1), BuildingBlock: CIFDUS_clean_linker_0, # of connection points: 2
#     Edge 98, Type (0, 1), BuildingBlock: CIFDUS_clean_linker_0, # of connection points: 2
#     Edge 99, Type (0, 1), BuildingBlock: CIFDUS_clean_linker_0, # of connection points: 2
#     Edge 100, Type (0, 1), BuildingBlock: CIFDUS_clean_linker_0, # of connection points: 2
#     Edge 101, Type (0, 1), BuildingBlock: CIFDUS_clean_linker_0, # of connection points: 2
#     Edge 102, Type (0, 1), BuildingBlock: CIFDUS_clean_linker_0, # of connection points: 2
#     Edge 103, Type (0, 1), BuildingBlock: CIFDUS_clean_linker_0, # of connection points: 2
#     Edge 104, Type (0, 1), BuildingBlock: CIFDUS_clean_linker_0, # of connection points: 2
#     Edge 105, Type (0, 1), BuildingBlock: CIFDUS_clean_linker_0, # of connection points: 2
#     Edge 106, Type (0, 1), BuildingBlock: CIFDUS_clean_linker_0, # of connection points: 2
#     Edge 107, Type (0, 1), BuildingBlock: CIFDUS_clean_linker_0, # of connection points: 2
#     Edge 108, Type (0, 1), BuildingBlock: CIFDUS_clean_linker_0, # of connection points: 2
#     Edge 109, Type (0, 1), BuildingBlock: CIFDUS_clean_linker_0, # of connection points: 2
#     Edge 110, Type (0, 1), BuildingBlock: CIFDUS_clean_linker_0, # of connection points: 2
#     Edge 111, Type (0, 1), BuildingBlock: CIFDUS_clean_linker_0, # of connection points: 2
#     Edge 112, Type (0, 1), BuildingBlock: CIFDUS_clean_linker_0, # of connection points: 2
#     Edge 113, Type (0, 1), BuildingBlock: CIFDUS_clean_linker_0, # of connection points: 2
#     Edge 114, Type (0, 1), BuildingBlock: CIFDUS_clean_linker_0, # of connection points: 2
#     Edge 115, Type (0, 1), BuildingBlock: CIFDUS_clean_linker_0, # of connection points: 2
#     Edge 116, Type (0, 1), BuildingBlock: CIFDUS_clean_linker_0, # of connection points: 2
#     Edge 117, Type (0, 1), BuildingBlock: CIFDUS_clean_linker_0, # of connection points: 2
#     Edge 118, Type (0, 1), BuildingBlock: CIFDUS_clean_linker_0, # of connection points: 2
#     Edge 119, Type (0, 1), BuildingBlock: CIFDUS_clean_linker_0, # of connection points: 2
#     Edge 120, Type (0, 1), BuildingBlock: CIFDUS_clean_linker_0, # of connection points: 2
#     Edge 121, Type (0, 1), BuildingBlock: CIFDUS_clean_linker_0, # of connection points: 2
#     Edge 122, Type (0, 1), BuildingBlock: CIFDUS_clean_linker_0, # of connection points: 2
#     Edge 123, Type (0, 1), BuildingBlock: CIFDUS_clean_linker_0, # of connection points: 2
#     Edge 124, Type (0, 1), BuildingBlock: CIFDUS_clean_linker_0, # of connection points: 2
#     Edge 125, Type (0, 1), BuildingBlock: CIFDUS_clean_linker_0, # of connection points: 2
#     Edge 126, Type (0, 1), BuildingBlock: CIFDUS_clean_linker_0, # of connection points: 2
#     Edge 127, Type (0, 1), BuildingBlock: CIFDUS_clean_linker_0, # of connection points: 2
#     Edge 128, Type (0, 1), BuildingBlock: CIFDUS_clean_linker_0, # of connection points: 2
#     Edge 129, Type (0, 1), BuildingBlock: CIFDUS_clean_linker_0, # of connection points: 2
#     Edge 130, Type (0, 1), BuildingBlock: CIFDUS_clean_linker_0, # of connection points: 2
#     Edge 131, Type (0, 1), BuildingBlock: CIFDUS_clean_linker_0, # of connection points: 2
#     Edge 132, Type (0, 1), BuildingBlock: CIFDUS_clean_linker_0, # of connection points: 2
#     Edge 133, Type (0, 1), BuildingBlock: CIFDUS_clean_linker_0, # of connection points: 2
#     Edge 134, Type (0, 1), BuildingBlock: CIFDUS_clean_linker_0, # of connection points: 2
#     Edge 135, Type (0, 1), BuildingBlock: CIFDUS_clean_linker_0, # of connection points: 2
# Relax obj value: 0.335
# Max RMSD: 0.296
# Mean RMSD: 0.201
data_MOF--net-iac--node1-AZAVOO_clean_sbu_0--node2-VOLQOD_clean_sbu_1--edge1-CIFDUS_clean_linker_0
_symmetry_space_group_name_H-M    P1
_symmetry_Int_Tables_number       1
_symmetry_cell_setting            triclinic
loop_
_symmetry_equiv_pos_as_xyz
'x, y, z'
_cell_length_a     49.358495
_cell_length_b     46.748596
_cell_length_c     48.082566
_cell_angle_alpha  93.114244
_cell_angle_beta   90.102629
_cell_angle_gamma 91.847516
loop_
_atom_site_label
_atom_site_type_symbol
_atom_site_fract_x
_atom_site_fract_y
_atom_site_fract_z
_atom_type_partial_charge
Mg0 Mg 0.00762 0.26976 0.1452 0.0
O1 O 0.00882 0.22997 0.11488 0.0
O2 O 0.9701 0.23 0.09031 0.0
Mg3 Mg 0.94659 0.26972 0.10224 0.0
C4 C -0.00766 0.21865 0.09655 0.0
C5 C 0.05741 0.27951 0.18037 0.0
O6 O 0.03752 0.28719 0.197 0.0
O7 O 0.01854 0.29814 0.11097 0.0
O8 O 0.98077 0.29903 0.08551 0.0
O9 O 0.98597 0.24434 0.17607 0.0
O10 O 0.96598 0.26777 0.14325 0.0
C11 C 0.00541 0.30693 0.09054 0.0
C12 C 0.96398 0.25053 0.16323 0.0
O13 O 0.05184 0.26852 0.15624 0.0
Mg14 Mg 0.97048 0.65528 0.34074 0.0
O15 O 0.95861 0.69791 0.36311 0.0
O16 O 0.91533 0.69393 0.37648 0.0
Mg17 Mg 0.90164 0.64703 0.36745 0.0
C18 C 0.9374 0.7086 0.37413 0.0
C19 C 0.02699 0.6626 0.31695 0.0
O20 O 0.01552 0.64264 0.30014 0.0
O21 O 0.97722 0.63629 0.38284 0.0
O22 O 0.93438 0.63269 0.39759 0.0
O23 O 0.95232 0.66987 0.30198 0.0
O24 O 0.92996 0.64419 0.33244 0.0
C25 C 0.95979 0.62961 0.4012 0.0
C26 C 0.92973 0.65852 0.31033 0.0
O27 O 0.01383 0.67217 0.33796 0.0
Mg28 Mg 0.49531 0.82676 0.64161 0.0
O29 O 0.4902 0.78761 0.61081 0.0
O30 O 0.44653 0.78579 0.59796 0.0
Mg31 Mg 0.42412 0.82197 0.62096 0.0
C32 C 0.4704 0.77601 0.59666 0.0
C33 C 0.551 0.83989 0.66062 0.0
O34 O 0.53451 0.85237 0.6786 0.0
O35 O 0.49249 0.85612 0.60637 0.0
O36 O 0.44817 0.85611 0.59693 0.0
O37 O 0.48641 0.80071 0.67784 0.0
O38 O 0.45542 0.82192 0.65351 0.0
C39 C 0.47247 0.86544 0.59319 0.0
C40 C 0.46117 0.80563 0.67336 0.0
O41 O 0.54092 0.82662 0.63911 0.0
Mg42 Mg 0.49505 0.18024 0.84629 0.0
O43 O 0.4879 0.22165 0.87289 0.0
O44 O 0.44379 0.22416 0.88276 0.0
Mg45 Mg 0.42361 0.18214 0.86495 0.0
C46 C 0.46801 0.23461 0.8842 0.0
C47 C 0.55412 0.17479 0.83152 0.0
O48 O 0.54148 0.15565 0.8147 0.0
O49 O 0.49324 0.15543 0.8856 0.0
O50 O 0.44912 0.1573 0.89559 0.0
O51 O 0.48518 0.20194 0.80795 0.0
O52 O 0.4548 0.17814 0.83234 0.0
C53 C 0.47306 0.14937 0.90101 0.0
C54 C 0.4602 0.19387 0.8117 0.0
O55 O 0.54041 0.18849 0.84985 0.0
Mg56 Mg 0.11534 0.02168 0.27711 0.0
O57 O 0.13805 0.06549 0.27611 0.0
O58 O 0.15104 0.07659 0.32019 0.0
Mg59 Mg 0.13575 0.04236 0.34898 0.0
C60 C 0.15015 0.08214 0.2945 0.0
C61 C 0.12028 0.99078 0.21755 0.0
O62 O 0.13253 0.97134 0.23123 0.0
O63 O 0.15532 -0.0 0.28225 0.0
O64 O 0.16338 0.00913 0.32773 0.0
O65 O 0.0748 0.04027 0.2863 0.0
O66 O 0.10478 0.03006 0.31798 0.0
C67 C 0.16897 0.9964 0.30431 0.0
C68 C 0.08129 0.03922 0.3123 0.0
O69 O 0.11417 0.01435 0.23009 0.0
Mg70 Mg 0.25202 0.92721 0.55394 0.0
O71 O 0.26155 0.89133 0.52119 0.0
O72 O 0.30381 0.87749 0.52794 0.0
Mg73 Mg 0.32121 0.90454 0.56528 0.0
C74 C 0.2814 0.87546 0.51461 0.0
C75 C 0.19633 0.94706 0.53836 0.0
O76 O 0.21127 0.97084 0.54089 0.0
O77 O 0.24729 0.89514 0.58759 0.0
O78 O 0.29037 0.88363 0.59453 0.0
O79 O 0.2691 0.9608 0.52701 0.0
O80 O 0.2928 0.93882 0.55795 0.0
C81 C 0.26514 0.88166 0.60041 0.0
C82 C 0.29211 0.95739 0.53917 0.0
O83 O 0.20729 0.92345 0.5426 0.0
Mg84 Mg 0.37972 0.10626 0.81611 0.0
O85 O 0.37248 0.05722 0.81825 0.0
O86 O 0.35155 0.05074 0.85898 0.0
Mg87 Mg 0.34352 0.09382 0.88063 0.0
C88 C 0.36178 0.04097 0.83615 0.0
C89 C 0.4133 0.10707 0.76159 0.0
O90 O 0.43307 0.11144 0.7798 0.0
O91 O 0.33593 0.10706 0.80574 0.0
O92 O 0.31305 0.09967 0.84485 0.0
O93 O 0.41909 0.10434 0.83654 0.0
O94 O 0.3803 0.10957 0.85917 0.0
C95 C 0.31382 0.10332 0.81874 0.0
C96 C 0.40578 0.10379 0.85968 0.0
O97 O 0.3893 0.10251 0.7701 0.0
Mg98 Mg 0.27427 0.09301 0.9597 0.0
O99 O 0.27362 0.12879 -0.00551 0.0
O100 O 0.31307 0.15372 0.99303 0.0
Mg101 Mg 0.3385 0.13324 0.95829 0.0
C102 C 0.28965 0.14929 0.00351 0.0
C103 C 0.2219 0.05879 0.96524 0.0
O104 O 0.24033 0.03911 0.96392 0.0
O105 O 0.26788 0.12574 0.92797 0.0
O106 O 0.30765 0.14961 0.92656 0.0
O107 O 0.28995 0.06359 0.98899 0.0
O108 O 0.31625 0.09204 0.96442 0.0
C109 C 0.28313 0.14527 0.91831 0.0
C110 C 0.31391 0.07391 0.98382 0.0
O111 O 0.22928 0.08488 0.96333 0.0
Mg112 Mg 0.77826 0.40202 0.01691 0.0
O113 O 0.78088 0.37407 0.97634 0.0
O114 O 0.82072 0.3528 0.9751 0.0
Mg115 Mg 0.8439 0.36812 0.01495 0.0
C116 C 0.79775 0.35744 0.96425 0.0
C117 C 0.71899 0.42152 0.02585 0.0
O118 O 0.7317 0.43891 0.04428 0.0
O119 O 0.7722 0.36302 0.04252 0.0
O120 O 0.81338 0.34462 0.04324 0.0
O121 O 0.79711 0.4399 -0.00312 0.0
O122 O 0.82033 0.40772 0.018 0.0
C123 C 0.78858 0.34477 0.05094 0.0
C124 C 0.82037 0.43061 0.00423 0.0
O125 O 0.73264 0.4041 0.01082 0.0
Mg126 Mg 0.90429 0.55726 0.2962 0.0
O127 O 0.88951 0.51013 0.29866 0.0
O128 O 0.86987 0.50597 0.34038 0.0
Mg129 Mg 0.86768 0.55046 0.36151 0.0
C130 C 0.87789 0.49521 0.317 0.0
C131 C 0.93673 0.56194 0.24361 0.0
O132 O 0.95198 0.57536 0.26294 0.0
O133 O 0.86167 0.5673 0.28564 0.0
O134 O 0.83943 0.56218 0.32556 0.0
O135 O 0.94216 0.54773 0.31769 0.0
O136 O 0.90485 0.56198 0.33917 0.0
C137 C 0.83983 0.56722 0.29968 0.0
C138 C 0.92884 0.55199 0.34063 0.0
O139 O 0.91419 0.55064 0.25054 0.0
Mg140 Mg 0.76649 0.59344 0.51045 0.0
O141 O 0.77989 0.62992 0.54139 0.0
O142 O 0.82401 0.64001 0.53477 0.0
Mg143 Mg 0.83694 0.61252 0.49658 0.0
C144 C 0.80178 0.64409 0.54769 0.0
C145 C 0.70877 0.57734 0.51317 0.0
O146 O 0.72164 0.55456 0.50392 0.0
O147 O 0.76413 0.62534 0.47748 0.0
O148 O 0.8075 0.63718 0.46958 0.0
O149 O 0.78017 0.56142 0.53944 0.0
O150 O 0.80558 0.57993 0.5064 0.0
C151 C 0.78218 0.63977 0.46495 0.0
C152 C 0.80337 0.56356 0.52705 0.0
O153 O 0.72257 0.59984 0.52045 0.0
Mg154 Mg 0.59678 0.49826 0.74812 0.0
O155 O 0.62724 0.5369 0.75142 0.0
O156 O 0.65236 0.53104 0.7895 0.0
Mg157 Mg 0.63625 0.49223 0.81182 0.0
C158 C 0.64661 0.54476 0.76814 0.0
C159 C 0.56088 0.50479 0.69816 0.0
O160 O 0.54387 0.50149 0.71881 0.0
O161 O 0.6301 0.46774 0.73485 0.0
O162 O 0.65121 0.46315 0.77543 0.0
O163 O 0.56626 0.5229 0.77254 0.0
O164 O 0.59706 0.49641 0.79108 0.0
C165 C 0.64817 0.45656 0.74944 0.0
C166 C 0.57721 0.51343 0.79458 0.0
O167 O 0.5862 0.5054 0.7032 0.0
Mg168 Mg 0.01594 0.74004 0.82493 0.0
O169 O 0.00422 0.7779 0.85312 0.0
O170 O 0.96299 0.77111 0.87083 0.0
Mg171 Mg 0.94648 0.72861 0.85019 0.0
C172 C 0.9851 0.78581 0.86917 0.0
C173 C 0.06423 0.78048 0.81129 0.0
O174 O 0.04601 0.78872 0.79375 0.0
O175 O 0.02137 0.71552 0.86441 0.0
O176 O 0.97794 0.70822 0.87655 0.0
O177 O -0.00348 0.75814 0.78777 0.0
O178 O 0.97615 0.72878 0.81623 0.0
C179 C 0.00326 0.70526 0.88051 0.0
C180 C 0.97492 0.74396 0.79489 0.0
O181 O 0.05852 0.75978 0.82661 0.0
Mg182 Mg 0.0007 0.23489 0.59304 0.0
O183 O 0.98937 0.18676 0.58461 0.0
O184 O 0.94583 0.18124 0.57126 0.0
Mg185 Mg 0.93142 0.22628 0.56302 0.0
C186 C 0.96859 0.17083 0.5776 0.0
C187 C 0.04878 0.21133 0.62363 0.0
O188 O 0.02842 0.19647 0.63381 0.0
O189 O 0.00853 0.23898 0.54682 0.0
O190 O 0.96794 0.22597 0.534 0.0
O191 O 0.98248 0.23503 0.6346 0.0
O192 O 0.95883 0.24404 0.59713 0.0
C193 C 0.98639 0.24553 0.53565 0.0
C194 C 0.9595 0.24077 0.62362 0.0
O195 O 0.04451 0.22678 0.60321 0.0
Mg196 Mg 0.50408 0.28206 0.33697 0.0
O197 O 0.48396 0.32448 0.34566 0.0
O198 O 0.43906 0.31888 0.3484 0.0
Mg199 Mg 0.43042 0.27066 0.33966 0.0
C200 C 0.46065 0.33461 0.35019 0.0
C201 C 0.55057 0.32489 0.32823 0.0
O202 O 0.5316 0.33321 0.31156 0.0
O203 O 0.49611 0.27369 0.38257 0.0
O204 O 0.45117 0.2648 0.38166 0.0
O205 O 0.4996 0.2829 0.29089 0.0
O206 O 0.46953 0.26338 0.31887 0.0
C207 C 0.47386 0.26703 0.39466 0.0
C208 C 0.47681 0.26903 0.29405 0.0
O209 O 0.54493 0.30481 0.34435 0.0
Mg210 Mg 0.45382 0.72825 0.14349 0.0
O211 O 0.4462 0.68258 0.12524 0.0
O212 O 0.40557 0.6812 0.10484 0.0
Mg213 Mg 0.38616 0.725 0.11319 0.0
C214 C 0.42739 0.66915 0.1112 0.0
C215 C 0.50499 0.70513 0.16939 0.0
O216 O 0.48588 0.69196 0.18331 0.0
O217 O 0.45986 0.74512 0.10044 0.0
O218 O 0.41717 0.74841 0.08556 0.0
O219 O 0.43562 0.71846 0.18428 0.0
O220 O 0.41299 0.73508 0.14932 0.0
C221 C 0.44267 0.75342 0.08291 0.0
C222 C 0.41315 0.72755 0.17468 0.0
O223 O 0.49833 0.72015 0.14937 0.0
Mg224 Mg 0.9367 0.0023 0.74346 0.0
O225 O 0.9046 0.97341 0.76109 0.0
O226 O 0.89585 0.98384 0.80573 0.0
Mg227 Mg 0.92425 0.02293 0.8169 0.0
C228 C 0.89141 0.96885 0.78312 0.0
C229 C 0.92961 0.95308 0.69999 0.0
O230 O 0.94108 0.94069 0.72064 0.0
O231 O 0.90446 0.03631 0.74083 0.0
O232 O 0.9005 0.04794 0.78649 0.0
O233 O 0.9697 0.97575 0.76017 0.0
O234 O 0.95226 0.01347 0.7824 0.0
C235 C 0.89439 0.05136 0.76109 0.0
C236 C 0.96867 0.9928 0.78221 0.0
O237 O 0.92542 0.97983 0.70215 0.0
Mg238 Mg 0.74867 0.09605 0.47497 0.0
O239 O 0.75841 0.11215 0.5194 0.0
O240 O 0.80323 0.11654 0.52517 0.0
Mg241 Mg 0.82194 0.10335 0.48275 0.0
C242 C 0.77914 0.11883 0.53442 0.0
C243 C 0.68875 0.08421 0.47804 0.0
O244 O 0.69793 0.06139 0.46445 0.0
O245 O 0.75857 0.14073 0.46181 0.0
O246 O 0.80392 0.14339 0.46446 0.0
O247 O 0.75166 0.05065 0.48544 0.0
O248 O 0.7857 0.07708 0.46937 0.0
C249 C 0.7812 0.15422 0.4588 0.0
C250 C 0.77671 0.05286 0.47777 0.0
O251 O 0.70508 0.10513 0.48419 0.0
Mg252 Mg 0.62069 0.01044 0.29834 0.0
O253 O 0.65305 0.04653 0.29866 0.0
O254 O 0.67451 0.0454 0.33955 0.0
Mg255 Mg 0.65513 0.01038 0.36526 0.0
C256 C 0.67126 0.05614 0.31593 0.0
C257 C 0.59135 0.00101 0.2456 0.0
O258 O 0.57609 0.9911 0.26553 0.0
O259 O 0.65232 0.97735 0.29221 0.0
O260 O 0.67032 0.9743 0.33451 0.0
O261 O 0.59059 0.04 0.3157 0.0
O262 O 0.61749 0.01498 0.34139 0.0
C263 C 0.6681 0.96565 0.30887 0.0
C264 C 0.59904 0.03383 0.3401 0.0
O265 O 0.61453 0.01193 0.252 0.0
Mg266 Mg 0.73489 0.88534 0.02538 0.0
O267 O 0.74677 0.85645 0.98818 0.0
O268 O 0.7882 0.84051 -0.00471 0.0
Mg269 Mg 0.80264 0.85943 0.03786 0.0
C270 C 0.76684 0.84157 0.98041 0.0
C271 C 0.68244 0.88984 0.98739 0.0
O272 O 0.69916 0.90076 0.96925 0.0
O273 O 0.72755 0.84643 0.05038 0.0
O274 O 0.76956 0.83239 0.05863 0.0
O275 O 0.755 0.92334 0.00644 0.0
O276 O 0.77475 0.89498 0.03521 0.0
C277 C 0.74386 0.82959 0.06127 0.0
C278 C 0.77649 0.91653 0.01979 0.0
O279 O 0.69148 0.88239 0.01056 0.0
Mg280 Mg 0.30536 0.64738 0.0331 0.0
O281 O 0.30753 0.66094 0.07856 0.0
O282 O 0.34953 0.67467 0.091 0.0
Mg283 Mg 0.37579 0.66128 0.05295 0.0
C284 C 0.32444 0.67131 0.09649 0.0
C285 C 0.24909 0.6365 0.05535 0.0
O286 O 0.26516 0.62272 0.07141 0.0
O287 O 0.31432 0.69345 0.02164 0.0
O288 O 0.3592 0.69805 0.02886 0.0
O289 O 0.31016 0.60219 0.04197 0.0
O290 O 0.34452 0.63169 0.03242 0.0
C291 C 0.33694 0.70746 0.01993 0.0
C292 C 0.33586 0.6063 0.03799 0.0
O293 O 0.25959 0.6514 0.03647 0.0
Mg294 Mg 0.1823 0.50941 0.77986 0.0
O295 O 0.20618 0.5517 0.78596 0.0
O296 O 0.23411 0.54746 0.8221 0.0
Mg297 Mg 0.22791 0.50284 0.8387 0.0
C298 C 0.22452 0.56187 0.80276 0.0
C299 C 0.14088 0.5141 0.73775 0.0
O300 O 0.13054 0.50075 0.75882 0.0
O301 O 0.2184 0.48858 0.76043 0.0
O302 O 0.24349 0.48064 0.79776 0.0
O303 O 0.15072 0.52457 0.80839 0.0
O304 O 0.18651 0.50127 0.82178 0.0
C305 C 0.23886 0.47773 0.77153 0.0
C306 C 0.16445 0.5141 0.82813 0.0
O307 O 0.16585 0.52156 0.73852 0.0
Mg308 Mg 0.24859 0.39652 0.49905 0.0
O309 O 0.25643 0.37771 0.45523 0.0
O310 O 0.30136 0.37818 0.44939 0.0
Mg311 Mg 0.32195 0.39935 0.48816 0.0
C312 C 0.27732 0.37208 0.4406 0.0
C313 C 0.19315 0.37601 0.51954 0.0
O314 O 0.20837 0.3747 0.54187 0.0
O315 O 0.26327 0.35533 0.51654 0.0
O316 O 0.30833 0.36037 0.51225 0.0
O317 O 0.24729 0.44064 0.4834 0.0
O318 O 0.28415 0.42052 0.49871 0.0
C319 C 0.28724 0.34658 0.52026 0.0
C320 C 0.27316 0.44183 0.48785 0.0
O321 O 0.20459 0.38124 0.49666 0.0
Mg322 Mg 0.40523 0.55549 0.22748 0.0
O323 O 0.39237 0.50949 0.23577 0.0
O324 O 0.38663 0.50483 0.2812 0.0
Mg325 Mg 0.39526 0.54928 0.3025 0.0
C326 C 0.3861 0.49438 0.25614 0.0
C327 C 0.42576 0.54687 0.17003 0.0
O328 O 0.44166 0.56722 0.18169 0.0
O329 O 0.36059 0.56821 0.23326 0.0
O330 O 0.35902 0.56536 0.2796 0.0
O331 O 0.44916 0.54802 0.23743 0.0
O332 O 0.41909 0.56462 0.26766 0.0
C333 C 0.34803 0.5711 0.25658 0.0
C334 C 0.44349 0.55772 0.26233 0.0
O335 O 0.4035 0.54076 0.18196 0.0
O336 O 0.00802 0.0515 0.0191 0.0
Zn337 Zn 0.01886 0.01525 -0.00123 0.0
O338 O 0.0034 0.98152 0.01503 0.0
Zn339 Zn 0.03192 0.9545 0.02183 0.0
Zn340 Zn 0.98394 0.9925 0.04842 0.0
Zn341 Zn 0.97691 0.96411 0.98987 0.0
O342 O 0.02266 0.91515 0.00265 0.0
O343 O 0.98148 0.92235 0.98598 0.0
O344 O 0.05876 0.01427 -0.00052 0.0
O345 O 0.06804 0.96926 0.00731 0.0
O346 O 0.03758 0.95318 0.06362 0.0
O347 O 0.00475 0.98026 0.08113 0.0
O348 O 0.94546 0.97645 0.04792 0.0
O349 O 0.00963 0.01594 0.9582 0.0
O350 O 0.93889 0.96999 0.00233 0.0
O351 O 0.98242 0.97742 0.95178 0.0
C352 C -0.00725 0.05596 0.04004 0.0
C353 C 0.00084 0.90597 0.9904 0.0
C354 C 0.02554 0.96528 0.08438 0.0
C355 C 0.07561 0.99446 0.00112 0.0
C356 C 0.92973 0.97152 0.02704 0.0
C357 C -0.00415 -0.00165 0.9423 0.0
O358 O 0.98168 0.03544 0.05272 0.0
O359 O 0.23477 0.73923 0.23433 0.0
Zn360 Zn 0.22274 0.73746 0.27436 0.0
O361 O 0.24039 0.7667 0.2987 0.0
Zn362 Zn 0.26454 0.74936 0.32478 0.0
Zn363 Zn 0.26173 0.79215 0.27611 0.0
Zn364 Zn 0.21387 0.78827 0.31899 0.0
O365 O 0.26185 0.76852 0.36393 0.0
O366 O 0.22417 0.79266 0.35918 0.0
O367 O 0.23629 0.69981 0.28362 0.0
O368 O 0.25887 0.70603 0.32358 0.0
O369 O 0.30202 0.75392 0.3092 0.0
O370 O 0.29989 0.79573 0.29008 0.0
O371 O 0.24602 0.83106 0.27466 0.0
O372 O 0.18229 0.73564 0.28047 0.0
O373 O 0.21273 0.8282 0.30567 0.0
O374 O 0.17723 0.76846 0.31518 0.0
C375 C 0.25374 0.75413 0.22363 0.0
C376 C 0.24365 0.78485 0.3741 0.0
C377 C 0.31325 0.77412 0.29627 0.0
C378 C 0.24939 0.68979 0.30342 0.0
C379 C 0.22655 0.84211 0.28826 0.0
C380 C 0.16752 0.7484 0.2987 0.0
O381 O 0.26559 0.77487 0.23743 0.0
O382 O 0.45949 0.02965 0.51273 0.0
Zn383 Zn 0.45841 0.07046 0.50107 0.0
O384 O 0.47279 0.0962 0.53074 0.0
Zn385 Zn 0.44325 0.11726 0.54643 0.0
Zn386 Zn 0.49187 0.07581 0.55756 0.0
Zn387 Zn 0.49989 0.12184 0.5174 0.0
O388 O 0.44248 0.15679 0.53014 0.0
O389 O 0.48424 0.15947 0.51292 0.0
O390 O 0.41892 0.07652 0.49414 0.0
O391 O 0.40927 0.09373 0.53672 0.0
O392 O 0.44731 0.11957 0.58835 0.0
O393 O 0.48145 0.09071 0.59578 0.0
O394 O 0.53194 0.08079 0.55166 0.0
O395 O 0.48086 0.0738 0.46651 0.0
O396 O 0.53268 0.1263 0.54178 0.0
O397 O 0.51292 0.10621 0.48024 0.0
C398 C 0.4698 0.01877 0.53384 0.0
C399 C 0.46148 0.17055 0.51805 0.0
C400 C 0.46333 0.10768 0.60478 0.0
C401 C 0.40208 0.08057 0.51385 0.0
C402 C 0.54505 0.1041 0.54786 0.0
C403 C 0.50279 0.08799 0.46218 0.0
O404 O 0.48254 0.03401 0.55265 0.0
O405 O 0.2756 0.2521 0.78003 0.0
Zn406 Zn 0.28516 0.26245 0.7416 0.0
O407 O 0.25867 0.24503 0.71579 0.0
Zn408 Zn 0.27583 0.21486 0.69252 0.0
Zn409 Zn 0.22817 0.22918 0.73631 0.0
Zn410 Zn 0.24558 0.27475 0.69363 0.0
O411 O 0.2777 0.22531 0.65193 0.0
O412 O 0.25853 0.26794 0.65506 0.0
O413 O 0.32189 0.24694 0.73576 0.0
O414 O 0.31352 0.20837 0.70765 0.0
O415 O 0.25628 0.17658 0.69599 0.0
O416 O 0.22771 0.18708 0.73016 0.0
O417 O 0.19221 0.24081 0.72139 0.0
O418 O 0.28739 0.30496 0.74107 0.0
O419 O 0.20515 0.27181 0.69027 0.0
O420 O 0.25806 0.31442 0.70809 0.0
C421 C 0.25489 0.24165 0.792 0.0
C422 C 0.26987 0.2479 0.64101 0.0
C423 C 0.23888 0.16875 0.71385 0.0
C424 C 0.3294 0.22368 0.72372 0.0
C425 C 0.18665 0.25728 0.70205 0.0
C426 C 0.27528 0.32279 0.72683 0.0
O427 O 0.23341 0.23417 0.77828 0.0
O428 O 0.97139 0.95224 0.41949 0.0
Zn429 Zn 0.95103 0.92794 0.44671 0.0
O430 O 0.96593 0.93575 0.48442 0.0
Zn431 Zn 0.98217 0.90141 0.4982 0.0
Zn432 Zn -0.00705 0.96709 0.48541 0.0
Zn433 Zn 0.93673 0.94753 0.50861 0.0
O434 O 0.96617 0.89136 0.53559 0.0
O435 O 0.93307 0.92224 0.53965 0.0
O436 O 0.95327 0.88537 0.43515 0.0
O437 O 0.97627 0.86815 0.47019 0.0
O438 O 0.02255 0.90755 0.50401 0.0
O439 O 0.02924 0.95377 0.497 0.0
O440 O 0.98318 0.00101 0.51085 0.0
O441 O 0.91201 0.94017 0.44449 0.0
O442 O 0.94234 0.98785 0.5253 0.0
O443 O 0.90167 0.94773 0.48904 0.0
C444 C 0.98809 0.97352 0.42321 0.0
C445 C 0.94592 0.90157 0.54873 0.0
C446 C 0.0382 0.92971 0.50328 0.0
C447 C 0.96442 0.86468 0.4466 0.0
C448 C 0.96184 0.00627 0.52476 0.0
C449 C 0.89494 0.94639 0.46353 0.0
O450 O -0.00289 0.98137 0.44733 0.0
O451 O 0.35388 0.79975 0.81379 0.0
Zn452 Zn 0.32271 0.81445 0.83763 0.0
O453 O 0.28792 0.80389 0.81962 0.0
Zn454 Zn 0.2695 0.83673 0.8057 0.0
Zn455 Zn 0.29254 0.77583 0.78899 0.0
Zn456 Zn 0.26605 0.78652 0.84726 0.0
O457 O 0.2304 0.8376 0.81928 0.0
O458 O 0.22918 0.80133 0.8473 0.0
O459 O 0.3266 0.85729 0.83978 0.0
O460 O 0.29108 0.87322 0.81705 0.0
O461 O 0.26712 0.83357 0.76373 0.0
O462 O 0.27731 0.78836 0.75314 0.0
O463 O 0.27796 0.73668 0.79718 0.0
O464 O 0.32481 0.80197 0.87773 0.0
O465 O 0.26301 0.74386 0.84042 0.0
O466 O 0.28102 0.79381 0.88509 0.0
C467 C 0.35364 0.78382 0.79137 0.0
C468 C 0.21764 0.82148 0.83576 0.0
C469 C 0.26962 0.81261 0.74596 0.0
C470 C 0.31324 0.87765 0.83059 0.0
C471 C 0.26774 0.72723 0.81929 0.0
C472 C 0.3051 0.79725 0.8942 0.0
O473 O 0.33163 0.77331 0.78086 0.0
O474 O 0.52798 0.99057 0.08 0.0
Zn475 Zn 0.52111 0.98937 0.03832 0.0
O476 O 0.4845 0.9782 0.03337 0.0
Zn477 Zn 0.47892 0.9578 -0.00175 0.0
Zn478 Zn 0.46768 0.95829 0.06212 0.0
Zn479 Zn 0.46745 0.01418 0.03854 0.0
O480 O 0.45687 0.98329 0.97471 0.0
O481 O 0.44402 0.01787 0.00553 0.0
O482 O 0.54283 0.96038 0.01759 0.0
O483 O 0.5157 0.94911 0.98109 0.0
O484 O 0.46112 0.91835 0.00429 0.0
O485 O 0.46567 0.91664 0.05041 0.0
O486 O 0.42919 0.97296 0.06581 0.0
O487 O 0.52666 0.02665 0.01842 0.0
O488 O 0.44632 0.01599 0.07336 0.0
O489 O 0.4928 0.04789 0.0394 0.0
C490 C 0.51408 0.98038 0.0999 0.0
C491 C 0.44331 0.00551 0.98129 0.0
C492 C 0.46067 0.90449 0.0265 0.0
C493 C 0.53861 0.94859 0.99339 0.0
C494 C 0.42556 -0.00049 0.07115 0.0
C495 C 0.51237 0.04866 0.02245 0.0
O496 O 0.49109 0.96738 0.09575 0.0
O497 O 0.21994 0.29041 0.2239 0.0
Zn498 Zn 0.25112 0.27156 0.24045 0.0
O499 O 0.28095 0.27231 0.21443 0.0
Zn500 Zn 0.28815 0.23344 0.20038 0.0
Zn501 Zn 0.2748 0.29799 0.184 0.0
Zn502 Zn 0.31154 0.28677 0.23517 0.0
O503 O 0.32709 0.22236 0.20769 0.0
O504 O 0.34313 0.26399 0.22639 0.0
O505 O 0.23797 0.23098 0.24594 0.0
O506 O 0.26206 0.20441 0.21605 0.0
O507 O 0.2831 0.23173 0.15934 0.0
O508 O 0.28268 0.27692 0.14658 0.0
O509 O 0.29674 0.33659 0.18969 0.0
O510 O 0.26081 0.29021 0.27816 0.0
O511 O 0.32085 0.32632 0.2265 0.0
O512 O 0.30557 0.28872 0.27613 0.0
C513 C 0.21564 0.30174 0.20089 0.0
C514 C 0.34675 0.23873 0.21648 0.0
C515 C 0.28278 0.24994 0.14061 0.0
C516 C 0.24349 0.20674 0.23432 0.0
C517 C 0.31419 0.34385 0.2087 0.0
C518 C 0.28398 0.29314 0.28985 0.0
O519 O 0.23459 0.30558 0.18331 0.0
O520 O 0.50469 0.471 0.93936 0.0
Zn521 Zn 0.47676 0.45373 0.96373 0.0
O522 O 0.48978 0.45608 0.00092 0.0
Zn523 Zn 0.50474 0.4221 0.01397 0.0
Zn524 Zn 0.51571 0.48682 0.00679 0.0
Zn525 Zn 0.45665 0.46074 0.02172 0.0
O526 O 0.49324 0.4221 0.05501 0.0
O527 O 0.4507 0.42722 0.04489 0.0
O528 O 0.46905 0.41144 0.95387 0.0
O529 O 0.49029 0.38928 0.98763 0.0
O530 O 0.54574 0.42585 0.01397 0.0
O531 O 0.54985 0.47286 0.02378 0.0
O532 O 0.49911 0.51776 0.03139 0.0
O533 O 0.44501 0.48017 0.96258 0.0
O534 O 0.45878 0.4994 0.04358 0.0
O535 O 0.42449 0.46048 -0.00282 0.0
C536 C 0.5225 0.49089 0.94466 0.0
C537 C 0.46874 0.42402 0.06299 0.0
C538 C 0.56008 0.44813 0.02159 0.0
C539 C 0.47638 0.3886 0.965 0.0
C540 C 0.47676 0.51976 0.04461 0.0
C541 C 0.42474 0.47875 0.97874 0.0
O542 O 0.52772 0.50071 0.96943 0.0
O543 O 0.83062 0.26159 0.26658 0.0
Zn544 Zn 0.80315 0.28385 0.28792 0.0
O545 O 0.76731 0.27615 0.27088 0.0
Zn546 Zn 0.75147 0.31143 0.25875 0.0
Zn547 Zn 0.76902 0.24766 0.23921 0.0
Zn548 Zn 0.74487 0.2609 0.29931 0.0
O549 O 0.71614 0.32064 0.27919 0.0
O550 O 0.71358 0.28475 0.30752 0.0
O551 O 0.81346 0.32564 0.28671 0.0
O552 O 0.77836 0.34453 0.26603 0.0
O553 O 0.74517 0.30864 0.21709 0.0
O554 O 0.75829 0.26505 0.20339 0.0
O555 O 0.74673 0.21107 0.24572 0.0
O556 O 0.80636 0.27219 0.3277 0.0
O557 O 0.73238 0.22112 0.2888 0.0
O558 O 0.76391 0.25841 0.33511 0.0
C559 C 0.82971 0.24355 0.24581 0.0
C560 C 0.70444 0.30766 0.29875 0.0
C561 C 0.7494 0.28942 0.19789 0.0
C562 C 0.80186 0.34701 0.27714 0.0
C563 C 0.73419 0.20391 0.26756 0.0
C564 C 0.78804 0.26285 0.3437 0.0
O565 O 0.8076 0.23638 0.23326 0.0
O566 O 0.04355 0.51161 0.59383 0.0
Zn567 Zn 0.03441 0.50083 0.55412 0.0
O568 O -0.00214 0.48753 0.55346 0.0
Zn569 Zn -0.00692 0.4597 0.52305 0.0
Zn570 Zn 0.98526 0.47291 0.58693 0.0
Zn571 Zn 0.97935 0.52233 0.5503 0.0
O572 O 0.97299 0.47838 0.49234 0.0
O573 O 0.96154 0.52018 0.51313 0.0
O574 O 0.05721 0.46871 0.54073 0.0
O575 O 0.02974 0.44533 0.50987 0.0
O576 O 0.97469 0.42385 0.53731 0.0
O577 O 0.98581 0.43004 0.58227 0.0
O578 O 0.9461 0.48417 0.59185 0.0
O579 O 0.0372 0.5332 0.52756 0.0
O580 O 0.95144 0.52878 0.57953 0.0
O581 O 0.00531 0.55579 0.5503 0.0
C582 C 0.03258 0.50467 0.61665 0.0
C583 C 0.96137 0.50244 0.49207 0.0
C584 C 0.97827 0.41385 0.56124 0.0
C585 C 0.05284 0.4492 0.52163 0.0
C586 C 0.93688 0.50906 0.58964 0.0
C587 C 0.02252 0.55501 0.53072 0.0
O588 O 0.01055 0.48947 0.6172 0.0
O589 O 0.73527 0.73383 0.33018 0.0
Zn590 Zn 0.7406 0.74947 0.29282 0.0
O591 O 0.71621 0.72832 0.26705 0.0
Zn592 Zn 0.73665 0.70479 0.24068 0.0
Zn593 Zn 0.69147 0.70349 0.28712 0.0
Zn594 Zn 0.69609 0.75483 0.24707 0.0
O595 O 0.73543 0.71858 0.20194 0.0
O596 O 0.70879 0.75578 0.20786 0.0
O597 O 0.77988 0.74275 0.28354 0.0
O598 O 0.77554 0.70593 0.25244 0.0
O599 O 0.72539 0.66336 0.24084 0.0
O600 O 0.70352 0.66316 0.28094 0.0
O601 O 0.65295 0.70528 0.27264 0.0
O602 O 0.73275 0.79159 0.29602 0.0
O603 O 0.65762 0.74124 0.24442 0.0
O604 O 0.69978 0.79466 0.26484 0.0
C605 C 0.71653 0.71984 0.34218 0.0
C606 C 0.72357 0.73977 0.19246 0.0
C607 C 0.71586 0.64996 0.26117 0.0
C608 C 0.79011 0.72264 0.26845 0.0
C609 C 0.64323 0.72147 0.25484 0.0
C610 C 0.71553 0.80616 0.2836 0.0
O611 O 0.69548 0.71018 0.32887 0.0
O612 O 0.74792 0.19766 0.69438 0.0
Zn613 Zn 0.75006 0.20751 0.73516 0.0
O614 O 0.76168 0.24731 0.74189 0.0
Zn615 Zn 0.79796 0.24987 0.7579 0.0
Zn616 Zn 0.76051 0.26603 0.70612 0.0
Zn617 Zn 0.73822 0.26562 0.76893 0.0
O618 O 0.80071 0.27364 0.79438 0.0
O619 O 0.75726 0.27698 0.80519 0.0
O620 O 0.77741 0.18102 0.74895 0.0
O621 O 0.81006 0.21084 0.76598 0.0
O622 O 0.82435 0.26335 0.72953 0.0
O623 O 0.7989 0.27372 0.69351 0.0
O624 O 0.74115 0.30397 0.71037 0.0
O625 O 0.71389 0.19943 0.75301 0.0
O626 O 0.7271 0.30248 0.75434 0.0
O627 O 0.70569 0.24034 0.7768 0.0
C628 C 0.74514 0.21187 0.67283 0.0
C629 C 0.78221 0.2809 0.81157 0.0
C630 C 0.82206 0.27117 0.70468 0.0
C631 C 0.80032 0.18562 0.76072 0.0
C632 C 0.72936 0.31521 0.73169 0.0
C633 C 0.69892 0.21456 0.76916 0.0
O634 O 0.74555 0.23922 0.67435 0.0
O635 O 0.69038 0.79141 0.75111 0.0
Zn636 Zn 0.71682 0.76595 0.76852 0.0
O637 O 0.75124 0.76927 0.74927 0.0
Zn638 Zn 0.76425 0.73155 0.73836 0.0
Zn639 Zn 0.75006 0.79417 0.71782 0.0
Zn640 Zn 0.7768 0.78625 0.77512 0.0
O641 O 0.80186 0.7247 0.75275 0.0
O642 O 0.81219 0.76848 0.77042 0.0
O643 O 0.70204 0.72501 0.76393 0.0
O644 O 0.73727 0.70045 0.74815 0.0
O645 O 0.76854 0.72909 0.69723 0.0
O646 O 0.75972 0.77196 0.68186 0.0
O647 O 0.77513 0.82998 0.7244 0.0
O648 O 0.72042 0.77669 0.81015 0.0
O649 O 0.78393 0.82707 0.76934 0.0
O650 O 0.76496 0.78347 0.814 0.0
C651 C 0.69084 0.80551 0.72914 0.0
C652 C 0.81908 0.74345 0.76253 0.0
C653 C 0.76661 0.74603 0.67757 0.0
C654 C 0.71284 0.70133 0.75667 0.0
C655 C 0.78499 0.84083 0.74735 0.0
C656 C 0.74168 0.78142 0.82503 0.0
O657 O 0.71187 0.80735 0.7139 0.0
O658 O 0.4876 0.61882 0.49727 0.0
Zn659 Zn 0.49886 0.58272 0.47553 0.0
O660 O 0.47615 0.54937 0.48501 0.0
Zn661 Zn 0.49894 0.51791 0.49343 0.0
Zn662 Zn 0.45379 0.55964 0.51679 0.0
Zn663 Zn 0.45264 0.53642 0.45439 0.0
O664 O 0.49125 0.482 0.46914 0.0
O665 O 0.45824 0.49543 0.44198 0.0
O666 O 0.53812 0.57612 0.48414 0.0
O667 O 0.53765 0.529 0.4882 0.0
O668 O 0.49697 0.51057 0.53401 0.0
O669 O 0.4677 0.54204 0.55118 0.0
O670 O 0.41505 0.54713 0.50987 0.0
O671 O 0.49643 0.58829 0.43402 0.0
O672 O 0.41319 0.53879 0.46401 0.0
O673 O 0.46261 0.55755 0.42124 0.0
C674 C 0.46921 0.62289 0.51552 0.0
C675 C 0.47444 0.47663 0.44927 0.0
C676 C 0.48472 0.5226 0.55454 0.0
C677 C 0.55044 0.5529 0.48685 0.0
C678 C 0.40155 0.54111 0.4876 0.0
C679 C 0.48065 0.57633 0.41555 0.0
O680 O 0.45465 0.60223 0.52412 0.0
O681 O 0.04464 0.46264 0.02296 0.0
Zn682 Zn 0.03173 0.49598 0.0039 0.0
O683 O 0.03736 0.52999 0.02835 0.0
Zn684 Zn 0.00221 0.54765 0.03488 0.0
Zn685 Zn 0.05618 0.52153 0.06265 0.0
Zn686 Zn 0.06128 0.55549 0.00978 0.0
O687 O 0.0001 0.58473 0.01456 0.0
O688 O 0.0414 0.58757 -0.0034 0.0
O689 O -0.00768 0.48651 -0.00303 0.0
O690 O 0.97112 0.52102 0.02082 0.0
O691 O -0.00291 0.55466 0.07638 0.0
O692 O 0.03346 0.53548 0.09469 0.0
O693 O 0.09298 0.54244 0.06768 0.0
O694 O 0.05206 0.49767 0.96788 0.0
O695 O 0.09096 0.57195 0.0334 0.0
O696 O 0.0785 0.53636 0.97684 0.0
C697 C 0.05473 0.45814 0.04657 0.0
C698 C 0.01788 0.59731 -0.00013 0.0
C699 C 0.01112 0.54825 0.09735 0.0
C700 C 0.97057 0.49772 0.00572 0.0
C701 C 0.10259 0.56369 0.05491 0.0
C702 C 0.07169 0.51433 0.96153 0.0
O703 O 0.0602 0.47866 0.06449 0.0
H704 H 0.95546 0.17586 0.08823 0.0
H705 H 0.04042 0.19698 0.07834 0.0
H706 H 0.04781 0.14842 0.05826 0.0
H707 H 0.02983 0.09979 0.04432 0.0
H708 H 0.94574 0.07792 0.05913 0.0
H709 H 0.93807 0.12714 0.07652 0.0
C710 C 0.97555 0.16984 0.08144 0.0
C711 C -0.00267 0.18985 0.08427 0.0
C712 C 0.97969 0.14186 0.07093 0.0
C713 C 0.0234 0.1818 0.07616 0.0
C714 C 0.02757 0.15414 0.06471 0.0
C715 C 0.00984 0.10597 0.05123 0.0
C716 C 0.98826 0.08558 0.05028 0.0
C717 C 0.00585 0.13399 0.06208 0.0
C718 C 0.96255 0.09343 0.05973 0.0
C719 C 0.95818 0.12148 0.06961 0.0
H720 H 0.05069 0.7119 0.33923 0.0
H721 H 0.06331 0.64179 0.27895 0.0
H722 H 0.10714 0.66317 0.26661 0.0
H723 H 0.14228 0.7011 0.27369 0.0
H724 H 0.12952 0.77137 0.33386 0.0
H725 H 0.08515 0.75076 0.3451 0.0
C726 C 0.06309 0.70122 0.32348 0.0
C727 C 0.05386 0.67518 0.3102 0.0
C728 C 0.08812 0.71377 0.31626 0.0
C729 C 0.06999 0.66181 0.28958 0.0
C730 C 0.09503 0.67405 0.28244 0.0
C731 C 0.1297 0.71213 0.28903 0.0
C732 C 0.13933 0.73773 0.30293 0.0
C733 C 0.10431 0.7 0.29567 0.0
C734 C 0.1227 0.75162 0.32283 0.0
C735 C 0.09734 0.73979 0.32939 0.0
H736 H 0.43549 0.89396 0.56352 0.0
H737 H 0.52065 0.8937 0.58471 0.0
H738 H 0.52761 0.9404 0.56566 0.0
H739 H 0.50859 0.98398 0.54903 0.0
H740 H 0.42417 0.98477 0.52634 0.0
H741 H 0.41779 0.93514 0.53988 0.0
C742 C 0.45566 0.90386 0.5635 0.0
C743 C 0.47734 0.89055 0.57617 0.0
C744 C 0.4596 0.93096 0.55262 0.0
C745 C 0.50345 0.90353 0.57551 0.0
C746 C 0.5075 0.93036 0.56471 0.0
C747 C 0.48892 0.97303 0.54666 0.0
C748 C 0.46677 0.98784 0.53723 0.0
C749 C 0.48556 0.94468 0.55422 0.0
C750 C 0.44144 0.97359 0.53371 0.0
C751 C 0.43781 0.94533 0.54154 0.0
H752 H 0.4142 0.1642 0.79591 0.0
H753 H 0.45852 0.24386 0.78561 0.0
H754 H 0.423 0.25935 0.75476 0.0
H755 H 0.37795 0.25121 0.73298 0.0
H756 H 0.33563 0.16984 0.73996 0.0
H757 H 0.37172 0.1539 0.76958 0.0
C758 C 0.41609 0.18484 0.78673 0.0
C759 C 0.43868 0.20302 0.79318 0.0
C760 C 0.39615 0.19309 0.76814 0.0
C761 C 0.44116 0.22961 0.781 0.0
C762 C 0.42094 0.23841 0.76331 0.0
C763 C 0.37721 0.22962 0.74021 0.0
C764 C 0.35439 0.21162 0.73416 0.0
C765 C 0.39827 0.22039 0.75687 0.0
C766 C 0.35333 0.18381 0.74386 0.0
C767 C 0.37385 0.17478 0.76104 0.0
H768 H 0.98037 0.73831 0.39778 0.0
H769 H 0.89665 0.74663 0.37474 0.0
H770 H 0.89806 0.79651 0.39323 0.0
H771 H 0.92284 0.83745 0.41747 0.0
H772 H 0.00512 0.82713 0.44447 0.0
H773 H 0.00467 0.77856 0.42287 0.0
C774 C 0.96251 0.75114 0.39666 0.0
C775 C 0.93849 0.7389 0.38483 0.0
C776 C 0.96323 0.77947 0.4081 0.0
C777 C 0.91536 0.75559 0.38387 0.0
C778 C 0.91617 0.78411 0.39438 0.0
C779 C 0.94069 0.82458 0.41836 0.0
C780 C 0.96404 0.83584 0.43235 0.0
C781 C 0.93995 0.79625 0.40674 0.0
C782 C 0.98691 0.81885 0.43382 0.0
C783 C 0.98667 0.7911 0.42147 0.0
H784 H 0.46416 0.80138 0.72889 0.0
H785 H 0.41065 0.78578 0.65833 0.0
H786 H 0.37354 0.77284 0.68935 0.0
H787 H 0.35542 0.77136 0.73613 0.0
H788 H 0.4069 0.7931 0.80736 0.0
H789 H 0.44608 0.79779 0.77645 0.0
C790 C 0.44446 0.79461 0.72039 0.0
C791 C 0.43992 0.79448 0.69151 0.0
C792 C 0.423 0.78848 0.73844 0.0
C793 C 0.41437 0.78618 0.68055 0.0
C794 C 0.39325 0.77878 0.69825 0.0
C795 C 0.37528 0.77652 0.74508 0.0
C796 C 0.37827 0.78183 0.77405 0.0
C797 C 0.39719 0.78062 0.72721 0.0
C798 C 0.40411 0.78891 0.78514 0.0
C799 C 0.42643 0.79172 0.76747 0.0
H800 H 0.51917 0.12334 0.91691 0.0
H801 H 0.43632 0.13781 0.94148 0.0
H802 H 0.44256 0.11058 0.98253 0.0
H803 H 0.47056 0.08175 0.01063 0.0
H804 H 0.55233 0.06336 0.98535 0.0
H805 H 0.54768 0.09385 0.94573 0.0
C806 C 0.50254 0.12073 0.93135 0.0
C807 C 0.47735 0.13286 0.92609 0.0
C808 C 0.50616 0.1047 0.95496 0.0
C809 C 0.45596 0.12892 0.94493 0.0
C810 C 0.45951 0.11338 0.96852 0.0
C811 C 0.4877 0.08479 -0.00311 0.0
C812 C 0.51199 0.0706 0.00129 0.0
C813 C 0.48447 0.10121 0.9737 0.0
C814 C 0.53358 0.07432 0.98269 0.0
C815 C 0.53081 0.09154 0.95992 0.0
H816 H 0.10024 0.2891 0.1466 0.0
H817 H 0.07754 0.28577 0.23302 0.0
H818 H 0.12446 0.29666 0.24722 0.0
H819 H 0.17209 0.30361 0.23492 0.0
H820 H 0.19512 0.30703 0.14854 0.0
H821 H 0.14761 0.30075 0.13449 0.0
C822 C 0.10564 0.29068 0.16853 0.0
C823 C 0.08569 0.28607 0.18877 0.0
C824 C 0.13253 0.2974 0.17652 0.0
C825 C 0.09269 0.28892 0.2171 0.0
C826 C 0.11944 0.29525 0.22522 0.0
C827 C 0.16671 0.30347 0.21302 0.0
C828 C 0.18714 0.30539 0.19279 0.0
C829 C 0.13954 0.29915 0.20509 0.0
C830 C 0.1798 0.30561 0.16455 0.0
C831 C 0.15267 0.30166 0.15647 0.0
H832 H 0.06884 0.00026 0.20434 0.0
H833 H 0.14096 0.96112 0.17209 0.0
H834 H 0.11711 0.94694 0.12827 0.0
H835 H 0.07613 0.94824 0.09859 0.0
H836 H 0.00369 0.98546 0.13319 0.0
H837 H 0.02715 -0.00288 0.177 0.0
C838 C 0.07939 0.9888 0.1876 0.0
C839 C 0.10674 0.98241 0.19091 0.0
C840 C 0.06538 0.98003 0.16313 0.0
C841 C 0.11998 0.96666 0.16963 0.0
C842 C 0.10632 0.95847 0.14473 0.0
C843 C 0.0653 0.95836 0.11589 0.0
C844 C 0.03823 0.96628 0.11238 0.0
C845 C 0.07902 0.96526 0.14118 0.0
C846 C 0.02456 0.97933 0.13511 0.0
C847 C 0.038 0.9862 0.16019 0.0
H848 H 0.23516 0.85862 0.48667 0.0
H849 H 0.32125 0.84512 0.4879 0.0
H850 H 0.31689 0.81326 0.44604 0.0
H851 H 0.28904 0.79218 0.40687 0.0
H852 H 0.20311 0.80672 0.40594 0.0
H853 H 0.20703 0.83478 0.44998 0.0
C854 C 0.25299 0.84863 0.47791 0.0
C855 C 0.27852 0.85458 0.4903 0.0
C856 C 0.25038 0.83041 0.45381 0.0
C857 C 0.30132 0.84108 0.47877 0.0
C858 C 0.29887 0.82284 0.45478 0.0
C859 C 0.27112 0.80102 0.4166 0.0
C860 C 0.24587 0.7975 0.40298 0.0
C861 C 0.27355 0.8177 0.44183 0.0
C862 C 0.22285 0.80928 0.41582 0.0
C863 C 0.22505 0.82542 0.441 0.0
H864 H 0.46182 0.10516 0.73536 0.0
H865 H 0.3764 0.11505 0.72075 0.0
H866 H 0.38489 0.1193 0.67114 0.0
H867 H 0.41621 0.11767 0.63161 0.0
H868 H 0.50114 0.10454 0.64571 0.0
H869 H 0.4933 0.1045 0.69591 0.0
C870 C 0.44509 0.1083 0.72131 0.0
C871 C 0.41853 0.10952 0.73163 0.0
C872 C 0.45005 0.11028 0.69277 0.0
C873 C 0.39702 0.11363 0.71323 0.0
C874 C 0.40185 0.11623 0.68489 0.0
C875 C 0.43306 0.11529 0.64574 0.0
C876 C 0.45921 0.11124 0.63509 0.0
C877 C 0.42824 0.11429 0.6744 0.0
C878 C 0.48081 0.10768 0.65352 0.0
C879 C 0.47633 0.10756 0.68216 0.0
H880 H 0.30432 0.19539 0.89983 0.0
H881 H 0.236 0.13578 0.8889 0.0
H882 H 0.21853 0.16333 0.85162 0.0
H883 H 0.22542 0.20106 0.81851 0.0
H884 H 0.29356 0.26086 0.82965 0.0
H885 H 0.30787 0.23687 0.87069 0.0
C886 C 0.28556 0.18846 0.88937 0.0
C887 C 0.27186 0.16319 0.89683 0.0
C888 C 0.27548 0.20449 0.86795 0.0
C889 C 0.2472 0.15496 0.88345 0.0
C890 C 0.23712 0.17073 0.86209 0.0
C891 C 0.2429 0.20943 0.83039 0.0
C892 C 0.25851 0.23257 0.82079 0.0
C893 C 0.25142 0.19514 0.8537 0.0
C894 C 0.28124 0.24296 0.83643 0.0
C895 C 0.28961 0.2291 0.85981 0.0
H896 H 0.03114 0.01567 0.30921 0.0
H897 H 0.08687 0.06304 0.36485 0.0
H898 H 0.05973 0.04954 0.40488 0.0
H899 H 0.02561 0.01722 0.42388 0.0
H900 H 0.97299 0.96512 0.36836 0.0
H901 H -0.0065 0.9874 0.32834 0.0
C902 C 0.03664 0.02398 0.33005 0.0
C903 C 0.06077 0.04039 0.33427 0.0
C904 C 0.02202 0.01446 0.35294 0.0
C905 C 0.06821 0.05052 0.36128 0.0
C906 C 0.05291 0.04248 0.38411 0.0
C907 C 0.01833 0.01091 0.40307 0.0
C908 C -0.00184 0.98907 0.39911 0.0
C909 C 0.03066 0.02323 0.38021 0.0
C910 C 0.9888 0.98152 0.37199 0.0
C911 C 0.00046 0.99432 0.3491 0.0
H912 H 0.28786 0.83477 0.61998 0.0
H913 H 0.22529 0.89543 0.63734 0.0
H914 H 0.2193 0.87764 0.68389 0.0
H915 H 0.23629 0.84921 0.72163 0.0
H916 H 0.29758 0.78723 0.70337 0.0
H917 H 0.29947 0.80095 0.65515 0.0
C918 C 0.27252 0.84363 0.63378 0.0
C919 C 0.25729 0.86656 0.62546 0.0
C920 C 0.26918 0.8333 0.66044 0.0
C921 C 0.23723 0.8777 0.64331 0.0
C922 C 0.23397 0.86772 0.67001 0.0
C923 C 0.24968 0.83841 0.70692 0.0
C924 C 0.267 0.81755 0.71606 0.0
C925 C 0.25051 0.84622 0.67912 0.0
C926 C 0.28403 0.80337 0.69679 0.0
C927 C 0.28525 0.81131 0.66925 0.0
H928 H 0.38122 0.08779 0.90755 0.0
H929 H 0.45811 0.08829 0.86493 0.0
H930 H 0.47596 0.05605 0.89805 0.0
H931 H 0.46874 0.02511 0.93707 0.0
H932 H 0.39166 0.02323 0.97879 0.0
H933 H 0.37405 0.05739 0.94679 0.0
C934 C 0.40175 0.08077 0.90528 0.0
C935 C 0.41793 0.08978 0.88323 0.0
C936 C 0.4115 0.06124 0.92362 0.0
C937 C 0.44499 0.08132 0.88146 0.0
C938 C 0.45517 0.06264 0.9002 0.0
C939 C 0.44789 0.03171 0.9386 0.0
C940 C 0.43111 0.02135 0.95948 0.0
C941 C 0.43832 0.05177 0.92075 0.0
C942 C 0.40456 0.03079 0.96236 0.0
C943 C 0.3947 0.05047 0.94437 0.0
H944 H 0.30892 0.20301 0.01916 0.0
H945 H 0.25245 0.1363 0.04301 0.0
H946 H 0.24345 0.16337 0.08663 0.0
H947 H 0.25511 0.20335 0.11987 0.0
H948 H 0.31061 0.27085 0.09641 0.0
H949 H 0.31628 0.2463 0.05041 0.0
C950 C 0.29445 0.19455 0.0338 0.0
C951 C 0.28169 0.16747 0.02807 0.0
C952 C 0.28929 0.2103 0.05884 0.0
C953 C 0.26262 0.15701 0.04697 0.0
C954 C 0.25753 0.17242 0.07196 0.0
C955 C 0.26815 0.21286 0.10449 0.0
C956 C 0.28273 0.23857 0.11145 0.0
C957 C 0.27126 0.19868 0.07837 0.0
C958 C 0.29922 0.25104 0.09138 0.0
C959 C 0.30259 0.23691 0.06523 0.0
H960 H 0.20102 0.0064 0.97716 0.0
H961 H 0.17862 0.09347 0.96509 0.0
H962 H 0.13151 0.08089 0.9752 0.0
H963 H 0.09711 0.04578 0.9879 0.0
H964 H 0.11872 0.95861 0.0006 0.0
H965 H 0.16603 0.97079 0.98985 0.0
C966 C 0.18581 0.02259 0.97662 0.0
C967 C 0.19329 0.05082 0.97037 0.0
C968 C 0.15877 0.01528 0.98266 0.0
C969 C 0.17339 0.07159 0.96986 0.0
C970 C 0.14646 0.06444 0.97566 0.0
C971 C 0.11207 0.02932 0.98836 0.0
C972 C 0.10436 0.0013 -0.00493 0.0
C973 C 0.13901 0.03643 0.9822 0.0
C974 C 0.12412 0.98036 -0.00446 0.0
C975 C 0.15113 0.9873 0.98936 0.0
H976 H 0.68498 0.46049 0.04922 0.0
H977 H 0.68587 0.38312 -0.00399 0.0
H978 H 0.63661 0.38353 0.99135 0.0
H979 H 0.59329 0.40653 0.00147 0.0
H980 H 0.5929 0.48506 0.05297 0.0
H981 H 0.64186 0.48336 0.05938 0.0
C982 C 0.67441 0.44367 0.03665 0.0
C983 C 0.68912 0.42184 0.02298 0.0
C984 C 0.64612 0.44419 0.0338 0.0
C985 C 0.67508 0.40027 0.00668 0.0
C986 C 0.64688 0.40043 0.00405 0.0
C987 C 0.60391 0.4231 0.01431 0.0
C988 C 0.58946 0.44583 0.02678 0.0
C989 C 0.63219 0.42234 0.01743 0.0
C990 C 0.60355 0.46735 0.04308 0.0
C991 C 0.63156 0.46642 0.04675 0.0
H992 H 0.84795 0.47419 0.27343 0.0
H993 H 0.89003 0.44954 0.34648 0.0
H994 H 0.87169 0.40034 0.33922 0.0
H995 H 0.84069 0.36568 0.31433 0.0
H996 H 0.7947 0.39187 0.24421 0.0
H997 H 0.81734 0.43921 0.24808 0.0
C998 C 0.85351 0.45777 0.2873 0.0
C999 C 0.87057 0.46502 0.31013 0.0
C1000 C 0.8418 0.43006 0.28378 0.0
C1001 C 0.87714 0.44407 0.32859 0.0
C1002 C 0.86653 0.4161 0.32454 0.0
C1003 C 0.8358 0.38168 0.29976 0.0
C1004 C 0.81602 0.37535 0.27907 0.0
C1005 C 0.84835 0.40904 0.30258 0.0
C1006 C 0.80969 0.39635 0.26048 0.0
C1007 C 0.8227 0.42336 0.2626 0.0
H1008 H 0.82072 0.55684 0.57997 0.0
H1009 H 0.83798 0.53506 0.49364 0.0
H1010 H 0.87831 0.51018 0.50697 0.0
H1011 H 0.91108 0.49952 0.54229 0.0
H1012 H 0.89905 0.52782 0.62791 0.0
H1013 H 0.85382 0.54462 0.61623 0.0
C1014 C 0.83326 0.5463 0.56427 0.0
C1015 C 0.82667 0.54765 0.53592 0.0
C1016 C 0.85712 0.53313 0.57206 0.0
C1017 C 0.84298 0.53436 0.51555 0.0
C1018 C 0.8659 0.52008 0.52315 0.0
C1019 C 0.89809 0.50856 0.5585 0.0
C1020 C 0.90774 0.51196 0.58592 0.0
C1021 C 0.87343 0.5199 0.55123 0.0
C1022 C 0.89148 0.52447 0.60678 0.0
C1023 C 0.86591 0.53439 0.59999 0.0
H1024 H 0.17838 0.08936 0.2468 0.0
H1025 H 0.15489 0.13333 0.32373 0.0
H1026 H 0.18131 0.17598 0.31169 0.0
H1027 H 0.21207 0.20028 0.28001 0.0
H1028 H 0.2382 0.15539 0.20445 0.0
H1029 H 0.21003 0.11355 0.21534 0.0
C1030 C 0.17884 0.10843 0.26071 0.0
C1031 C 0.16458 0.10837 0.28597 0.0
C1032 C 0.19479 0.13257 0.25407 0.0
C1033 C 0.16572 0.13296 0.30414 0.0
C1034 C 0.18084 0.1573 0.2973 0.0
C1035 C 0.2116 0.18136 0.2659 0.0
C1036 C 0.22721 0.181 0.24145 0.0
C1037 C 0.19567 0.15725 0.27246 0.0
C1038 C 0.22652 0.15619 0.22351 0.0
C1039 C 0.21031 0.13229 0.22964 0.0
H1040 H 0.29578 0.00214 0.50498 0.0
H1041 H 0.34223 0.95503 0.56233 0.0
H1042 H 0.37987 0.98952 0.5595 0.0
H1043 H 0.39877 0.03437 0.54305 0.0
H1044 H 0.35417 0.08154 0.48474 0.0
H1045 H 0.31631 0.04594 0.48583 0.0
C1046 C 0.31428 -0.00078 0.51654 0.0
C1047 C 0.3161 0.97604 0.53392 0.0
C1048 C 0.3359 0.01943 0.51506 0.0
C1049 C 0.34022 0.97258 0.54877 0.0
C1050 C 0.36174 0.99242 0.54733 0.0
C1051 C 0.3806 0.03687 0.53075 0.0
C1052 C 0.37865 0.06062 0.5144 0.0
C1053 C 0.35956 0.01617 0.53105 0.0
C1054 C 0.35562 0.06352 0.49785 0.0
C1055 C 0.33418 0.04315 0.49839 0.0
H1056 H 0.78928 0.57161 0.32214 0.0
H1057 H 0.83316 0.57754 0.24485 0.0
H1058 H 0.79354 0.59612 0.22285 0.0
H1059 H 0.75049 0.61952 0.22834 0.0
H1060 H 0.70794 0.61759 0.30661 0.0
H1061 H 0.74212 0.58696 0.32469 0.0
C1062 C 0.79006 0.57653 0.30036 0.0
C1063 C 0.81445 0.5741 0.28549 0.0
C1064 C 0.76729 0.58772 0.28786 0.0
C1065 C 0.81487 0.57989 0.25707 0.0
C1066 C 0.79216 0.59041 0.24436 0.0
C1067 C 0.74814 0.61167 0.24905 0.0
C1068 C 0.72738 0.62193 0.26651 0.0
C1069 C 0.76876 0.59569 0.25994 0.0
C1070 C 0.72413 0.61066 0.29291 0.0
C1071 C 0.74393 0.59347 0.30346 0.0
H1072 H 0.69554 0.43842 0.7688 0.0
H1073 H 0.63741 0.42208 0.7023 0.0
H1074 H 0.66006 0.37785 0.68783 0.0
H1075 H 0.69262 0.34033 0.69873 0.0
H1076 H 0.74835 0.35682 0.76729 0.0
H1077 H 0.73068 0.4045 0.77615 0.0
C1078 C 0.68802 0.42543 0.75087 0.0
C1079 C 0.66457 0.43324 0.73699 0.0
C1080 C 0.70067 0.39986 0.74317 0.0
C1081 C 0.65539 0.41645 0.71346 0.0
C1082 C 0.66823 0.39105 0.70529 0.0
C1083 C 0.7012 0.35477 0.71508 0.0
C1084 C 0.72158 0.34529 0.73246 0.0
C1085 C 0.69032 0.382 0.72063 0.0
C1086 C 0.73253 0.36384 0.75381 0.0
C1087 C 0.72241 0.39101 0.75893 0.0
H1088 H 0.95987 0.79815 0.91855 0.0
H1089 H 0.02449 0.82763 0.86572 0.0
H1090 H 0.03821 0.86436 0.90134 0.0
H1091 H 0.03092 0.88934 0.94678 0.0
H1092 H 0.96485 0.86219 -0.00156 0.0
H1093 H 0.95323 0.82256 0.96458 0.0
C1094 C 0.97672 0.81284 0.91468 0.0
C1095 C 0.99091 0.8103 0.88935 0.0
C1096 C 0.98476 0.83375 0.93542 0.0
C1097 C 0.01304 0.82923 0.88492 0.0
C1098 C 0.02109 0.85009 0.90538 0.0
C1099 C 0.01465 0.87403 0.951 0.0
C1100 C -0.00072 0.87788 0.97533 0.0
C1101 C 0.0072 0.85246 0.93074 0.0
C1102 C 0.97742 0.85889 0.98016 0.0
C1103 C 0.9705 0.83664 0.96059 0.0
H1104 H 0.91127 0.26418 0.61077 0.0
H1105 H 0.95432 0.22637 0.67716 0.0
H1106 H 0.91681 0.23552 0.70872 0.0
H1107 H 0.8718 0.25314 0.71749 0.0
H1108 H 0.82708 0.28959 0.65153 0.0
H1109 H 0.86554 0.28278 0.62005 0.0
C1110 C 0.91227 0.25775 0.63208 0.0
C1111 C 0.93549 0.24448 0.64154 0.0
C1112 C 0.89058 0.26325 0.65035 0.0
C1113 C 0.93667 0.23656 0.66929 0.0
C1114 C 0.91528 0.2419 0.68744 0.0
C1115 C 0.8705 0.26007 0.69638 0.0
C1116 C 0.84657 0.27195 0.68697 0.0
C1117 C 0.89222 0.25528 0.67823 0.0
C1118 C 0.8453 0.2805 0.6594 0.0
C1119 C 0.8672 0.27638 0.6413 0.0
H1120 H 0.4311 0.24985 0.42603 0.0
H1121 H 0.51771 0.26657 0.42961 0.0
H1122 H 0.51978 0.24408 0.47409 0.0
H1123 H 0.49874 0.21124 0.50602 0.0
H1124 H 0.41318 0.19004 0.4997 0.0
H1125 H 0.4087 0.22382 0.46297 0.0
C1126 C 0.45041 0.24907 0.43673 0.0
C1127 C 0.47437 0.25907 0.42403 0.0
C1128 C 0.45159 0.23529 0.46184 0.0
C1129 C 0.49905 0.25849 0.43856 0.0
C1130 C 0.50026 0.24563 0.46403 0.0
C1131 C 0.47895 0.21466 0.49715 0.0
C1132 C 0.45646 0.19767 0.50493 0.0
C1133 C 0.4769 0.23268 0.47502 0.0
C1134 C 0.43082 0.20272 0.49388 0.0
C1135 C 0.42836 0.22171 0.47259 0.0
H1136 H 0.52392 0.68457 0.21741 0.0
H1137 H 0.54898 0.73073 0.14585 0.0
H1138 H 0.59365 0.74016 0.1666 0.0
H1139 H 0.62464 0.73737 0.20556 0.0
H1140 H 0.60083 0.6908 0.27716 0.0
H1141 H 0.55626 0.67968 0.25588 0.0
C1142 C 0.53926 0.69638 0.20618 0.0
C1143 C 0.53305 0.70709 0.18018 0.0
C1144 C 0.56486 0.70205 0.21839 0.0
C1145 C 0.55317 0.72233 0.16592 0.0
C1146 C 0.57868 0.72787 0.17782 0.0
C1147 C 0.60967 0.72498 0.21673 0.0
C1148 C 0.61585 0.71534 0.24314 0.0
C1149 C 0.58451 0.71831 0.20423 0.0
C1150 C 0.59643 0.69871 0.25693 0.0
C1151 C 0.57104 0.69227 0.24473 0.0
H1152 H 0.92886 0.12894 0.57135 0.0
H1153 H 0.01586 0.14199 0.57348 0.0
H1154 H 0.02153 0.09183 0.55868 0.0
H1155 H 0.00181 0.04529 0.541 0.0
H1156 H 0.91488 0.0319 0.5401 0.0
H1157 H 0.90926 0.081 0.55861 0.0
C1158 C 0.94908 0.12075 0.56893 0.0
C1159 C 0.97186 0.13942 0.57322 0.0
C1160 C 0.95226 0.09181 0.56036 0.0
C1161 C -0.00209 0.12825 0.57031 0.0
C1162 C 0.00121 0.09953 0.56166 0.0
C1163 C 0.98165 0.05305 0.54508 0.0
C1164 C 0.95881 0.03502 0.53884 0.0
C1165 C 0.97853 0.08131 0.55594 0.0
C1166 C 0.93283 0.04529 0.54465 0.0
C1167 C 0.92958 0.07343 0.55516 0.0
H1168 H 0.59402 0.3149 0.36032 0.0
H1169 H 0.57135 0.35345 0.28451 0.0
H1170 H 0.61873 0.35596 0.27017 0.0
H1171 H 0.66531 0.339 0.27542 0.0
H1172 H 0.68689 0.29911 0.35089 0.0
H1173 H 0.64151 0.30571 0.36916 0.0
C1174 C 0.59951 0.32443 0.34095 0.0
C1175 C 0.57918 0.33326 0.32323 0.0
C1176 C 0.62665 0.32523 0.33253 0.0
C1177 C 0.58662 0.34612 0.29844 0.0
C1178 C 0.61372 0.34742 0.2901 0.0
C1179 C 0.66021 0.33248 0.29612 0.0
C1180 C 0.67914 0.31796 0.31146 0.0
C1181 C 0.63375 0.33578 0.30637 0.0
C1182 C 0.6724 0.30976 0.33839 0.0
C1183 C 0.64646 0.31351 0.3489 0.0
H1184 H 0.41173 0.78375 0.04834 0.0
H1185 H 0.49472 0.77185 0.07283 0.0
H1186 H 0.50846 0.81674 0.05281 0.0
H1187 H 0.49531 0.86367 0.03752 0.0
H1188 H 0.41263 0.87656 0.01389 0.0
H1189 H 0.40031 0.82695 0.02421 0.0
C1190 C 0.43297 0.79049 0.04861 0.0
C1191 C 0.45199 0.77478 0.06291 0.0
C1192 C 0.44069 0.81683 0.03767 0.0
C1193 C 0.47949 0.7837 0.06251 0.0
C1194 C 0.48739 0.80953 0.05121 0.0
C1195 C 0.47481 0.8552 0.03383 0.0
C1196 C 0.45481 0.87345 0.02517 0.0
C1197 C 0.46793 0.82696 0.04019 0.0
C1198 C 0.42829 0.86263 0.02044 0.0
C1199 C 0.42126 0.8344 0.02655 0.0
H1200 H 0.93551 0.7035 0.78935 0.0
H1201 H 0.95562 0.79086 0.77078 0.0
H1202 H 0.90856 0.79754 0.75669 0.0
H1203 H 0.86116 0.77998 0.75518 0.0
H1204 H 0.8412 0.69242 0.77331 0.0
H1205 H 0.88919 0.68408 0.78196 0.0
C1206 C 0.92961 0.72386 0.7818 0.0
C1207 C 0.94861 0.74685 0.78142 0.0
C1208 C 0.90272 0.72747 0.77401 0.0
C1209 C 0.94114 0.77298 0.77121 0.0
C1210 C 0.91429 0.7768 0.76339 0.0
C1211 C 0.86741 0.759 0.76082 0.0
C1212 C 0.84786 0.73695 0.76427 0.0
C1213 C 0.89482 0.75446 0.76561 0.0
C1214 C 0.85603 0.70968 0.77082 0.0
C1215 C 0.88335 0.70498 0.77581 0.0
H1216 H 0.99089 0.03187 0.81822 0.0
H1217 H 0.97421 0.94109 0.80514 0.0
H1218 H 0.98314 0.93451 0.85459 0.0
H1219 H 0.98902 0.956 0.90218 0.0
H1220 H 0.0048 0.04716 0.91486 0.0
H1221 H 0.00271 0.05238 0.86461 0.0
C1222 C 0.98999 0.01055 0.82614 0.0
C1223 C 0.98182 0.98699 0.80847 0.0
C1224 C -0.00573 0.00722 0.85444 0.0
C1225 C 0.98074 0.95941 0.81854 0.0
C1226 C 0.98542 0.95578 0.8468 0.0
C1227 C 0.99207 0.97698 0.89388 0.0
C1228 C -0.00364 0.00132 0.91206 0.0
C1229 C 0.99102 0.97974 0.86508 0.0
C1230 C 0.0011 0.02825 0.90118 0.0
C1231 C -2e-05 0.03121 0.87253 0.0
H1232 H 0.74265 0.15868 0.54913 0.0
H1233 H 0.80656 0.10955 0.58215 0.0
H1234 H 0.79992 0.13277 0.62848 0.0
H1235 H 0.77695 0.16796 0.65899 0.0
H1236 H 0.71687 0.22138 0.62513 0.0
H1237 H 0.72086 0.19555 0.57948 0.0
C1238 C 0.75493 0.15294 0.56659 0.0
C1239 C 0.77484 0.13222 0.56248 0.0
C1240 C 0.75168 0.16718 0.59281 0.0
C1241 C 0.79109 0.12536 0.58497 0.0
C1242 C 0.78727 0.13861 0.61137 0.0
C1243 C 0.7645 0.17373 0.64167 0.0
C1244 C 0.74628 0.19616 0.6454 0.0
C1245 C 0.76775 0.15963 0.61546 0.0
C1246 C 0.73084 0.20402 0.62269 0.0
C1247 C 0.73316 0.18929 0.59668 0.0
H1248 H 0.54815 0.05166 0.34425 0.0
H1249 H 0.62118 0.04392 0.39224 0.0
H1250 H 0.59819 0.06294 0.43416 0.0
H1251 H 0.55636 0.07922 0.4574 0.0
H1252 H 0.48238 0.0814 0.40983 0.0
H1253 H 0.50671 0.06729 0.36721 0.0
C1254 C 0.55913 0.05446 0.36383 0.0
C1255 C 0.5863 0.04662 0.36525 0.0
C1256 C 0.54555 0.06432 0.3878 0.0
C1257 C 0.60021 0.04979 0.39077 0.0
C1258 C 0.58709 0.06066 0.41466 0.0
C1259 C 0.54577 0.07694 0.43757 0.0
C1260 C 0.51779 0.08154 0.43643 0.0
C1261 C 0.55965 0.06766 0.41346 0.0
C1262 C 0.50396 0.07798 0.41094 0.0
C1263 C 0.51783 0.06991 0.38669 0.0
H1264 H 0.77036 0.78554 0.08237 0.0
H1265 H 0.69291 0.82609 0.0831 0.0
H1266 H 0.67831 0.79823 0.12205 0.0
H1267 H 0.69028 0.76848 0.16024 0.0
H1268 H 0.76785 0.72849 0.16029 0.0
H1269 H 0.77955 0.74977 0.11637 0.0
C1270 C 0.75012 0.78794 0.09074 0.0
C1271 C 0.73303 0.80839 0.08034 0.0
C1272 C 0.74199 0.77222 0.11342 0.0
C1273 C 0.70662 0.81076 0.09095 0.0
C1274 C 0.69828 0.79495 0.11332 0.0
C1275 C 0.70958 0.76408 0.15038 0.0
C1276 C 0.72845 0.74756 0.16366 0.0
C1277 C 0.71624 0.77661 0.12544 0.0
C1278 C 0.75311 0.74138 0.15047 0.0
C1279 C 0.75985 0.75365 0.12548 0.0
H1280 H 0.95976 0.91171 0.67556 0.0
H1281 H 0.88645 0.958 0.666 0.0
H1282 H 0.88045 0.93657 0.61881 0.0
H1283 H 0.901 0.91345 0.57814 0.0
H1284 H 0.97883 0.8749 0.58489 0.0
H1285 H 0.97741 0.88273 0.63557 0.0
C1286 C 0.94219 0.9165 0.66326 0.0
C1287 C 0.92379 0.93667 0.67374 0.0
C1288 C 0.93974 0.90534 0.63569 0.0
C1289 C 0.90107 0.94289 0.65791 0.0
C1290 C 0.89761 0.93058 0.63107 0.0
C1291 C 0.91737 0.90606 0.59074 0.0
C1292 C 0.94043 0.89459 0.57779 0.0
C1293 C 0.91756 0.91302 0.61934 0.0
C1294 C 0.96102 0.8842 0.59434 0.0
C1295 C 0.96041 0.88912 0.6233 0.0
H1296 H 0.82319 0.18139 0.43334 0.0
H1297 H 0.73879 0.18962 0.45495 0.0
H1298 H 0.73558 0.2299 0.42518 0.0
H1299 H 0.75409 0.25595 0.38669 0.0
H1300 H 0.83718 0.24516 0.36168 0.0
H1301 H 0.8439 0.21354 0.39986 0.0
C1302 C 0.80428 0.19244 0.43206 0.0
C1303 C 0.78107 0.18209 0.44577 0.0
C1304 C 0.80232 0.21504 0.41418 0.0
C1305 C 0.75678 0.19678 0.44412 0.0
C1306 C 0.75492 0.21984 0.42712 0.0
C1307 C 0.77389 0.24726 0.39003 0.0
C1308 C 0.79492 0.25225 0.37107 0.0
C1309 C 0.77717 0.22813 0.41105 0.0
C1310 C 0.82062 0.24144 0.37593 0.0
C1311 C 0.82436 0.22309 0.39755 0.0
H1312 H 0.54265 0.98003 0.22731 0.0
H1313 H 0.61741 0.0189 0.19895 0.0
H1314 H 0.59994 0.01639 0.15116 0.0
H1315 H 0.56337 0.00278 0.11757 0.0
H1316 H 0.4889 0.96388 0.14704 0.0
H1317 H 0.50645 0.96691 0.19434 0.0
C1318 C 0.5552 0.98798 0.21073 0.0
C1319 C 0.58127 -0.00039 0.21665 0.0
C1320 C 0.54508 0.9865 0.1835 0.0
C1321 C 0.59723 0.00982 0.19489 0.0
C1322 C 0.58726 0.00841 0.16759 0.0
C1323 C 0.55095 0.99505 0.13434 0.0
C1324 C 0.52486 0.9831 0.12866 0.0
C1325 C 0.56119 0.99676 0.16167 0.0
C1326 C 0.50907 0.97314 0.15069 0.0
C1327 C 0.51907 0.97484 0.17782 0.0
H1328 H 0.72266 0.8324 0.94665 0.0
H1329 H 0.80775 0.81439 0.95271 0.0
H1330 H 0.80628 0.79099 0.90618 0.0
H1331 H 0.78209 0.7794 0.86261 0.0
H1332 H 0.69736 0.79805 0.85551 0.0
H1333 H 0.69731 0.81687 0.90406 0.0
C1334 C 0.74088 0.82324 0.93788 0.0
C1335 C 0.76539 0.82554 0.95304 0.0
C1336 C 0.73994 0.80986 0.91104 0.0
C1337 C 0.78867 0.81314 0.94148 0.0
C1338 C 0.78786 0.79974 0.91486 0.0
C1339 C 0.76348 0.78727 0.87174 0.0
C1340 C 0.73984 0.7877 0.85539 0.0
C1341 C 0.76377 0.79852 0.89929 0.0
C1342 C 0.71582 0.79751 0.86766 0.0
C1343 C 0.71586 0.80849 0.89532 0.0
H1344 H 0.81451 0.92397 0.05939 0.0
H1345 H 0.79686 0.94357 0.9748 0.0
H1346 H 0.84282 0.96446 0.97014 0.0
H1347 H 0.88888 0.97339 0.98929 0.0
H1348 H 0.90543 0.95469 0.07454 0.0
H1349 H 0.85867 0.93748 0.07997 0.0
C1350 C 0.82071 0.93301 0.03998 0.0
C1351 C 0.8027 0.93193 0.0173 0.0
C1352 C 0.84683 0.94505 0.03765 0.0
C1353 C 0.81057 0.94415 0.99245 0.0
C1354 C 0.8368 0.95595 0.9898 0.0
C1355 C 0.88216 0.9658 0.00914 0.0
C1356 C 0.90067 0.96493 0.03138 0.0
C1357 C 0.85524 0.95596 0.01212 0.0
C1358 C 0.89161 0.95551 0.0571 0.0
C1359 C 0.86493 0.94553 0.06018 0.0
H1360 H 0.3762 0.60076 0.00048 0.0
H1361 H 0.33207 0.55557 0.0628 0.0
H1362 H 0.35425 0.51122 0.04815 0.0
H1363 H 0.3846 0.48521 0.01664 0.0
H1364 H 0.42784 0.5298 0.95309 0.0
H1365 H 0.4065 0.57437 0.96844 0.0
C1366 C 0.37191 0.5813 0.01121 0.0
C1367 C 0.35289 0.58137 0.03293 0.0
C1368 C 0.38379 0.55569 0.00184 0.0
C1369 C 0.3469 0.55596 0.04622 0.0
C1370 C 0.35932 0.5306 0.03765 0.0
C1371 C 0.38915 0.50455 0.00581 0.0
C1372 C 0.40779 0.50406 0.98366 0.0
C1373 C 0.37735 0.53014 0.01513 0.0
C1374 C 0.41339 0.52942 0.97 0.0
C1375 C 0.40149 0.55502 0.97902 0.0
H1376 H 0.24132 0.5987 0.84491 0.0
H1377 H 0.22789 0.59234 0.75609 0.0
H1378 H 0.24139 0.64291 0.75315 0.0
H1379 H 0.2556 0.68921 0.77616 0.0
H1380 H 0.2655 0.69619 0.86549 0.0
H1381 H 0.25474 0.64503 0.86796 0.0
C1382 C 0.24163 0.60835 0.82489 0.0
C1383 C 0.23386 0.5919 0.80073 0.0
C1384 C 0.24859 0.63753 0.8235 0.0
C1385 C 0.23382 0.60469 0.77496 0.0
C1386 C 0.24152 0.63354 0.77328 0.0
C1387 C 0.25553 0.67946 0.79612 0.0
C1388 C 0.26137 0.69634 0.82059 0.0
C1389 C 0.24872 0.65021 0.79745 0.0
C1390 C 0.2609 0.68359 0.84639 0.0
C1391 C 0.25485 0.65437 0.84781 0.0
H1392 H 0.15667 0.38737 0.47911 0.0
H1393 H 0.16329 0.37395 0.56703 0.0
H1394 H 0.11844 0.39301 0.57475 0.0
H1395 H 0.08099 0.42059 0.55789 0.0
H1396 H 0.07348 0.43412 0.47037 0.0
H1397 H 0.11512 0.40784 0.46099 0.0
C1398 C 0.14806 0.38797 0.49985 0.0
C1399 C 0.16365 0.37992 0.52258 0.0
C1400 C 0.12237 0.39947 0.50427 0.0
C1401 C 0.15197 0.38041 0.54923 0.0
C1402 C 0.12636 0.39148 0.55372 0.0
C1403 C 0.08832 0.41732 0.53672 0.0
C1404 C 0.07478 0.42956 0.51486 0.0
C1405 C 0.11201 0.40226 0.53163 0.0
C1406 C 0.08388 0.42492 0.48744 0.0
C1407 C 0.10766 0.41002 0.48216 0.0
H1408 H 0.86919 0.94318 0.73612 0.0
H1409 H 0.86368 0.94482 0.82587 0.0
H1410 H 0.82791 0.90733 0.82223 0.0
H1411 H 0.80037 0.87253 0.79378 0.0
H1412 H 0.80631 0.87024 0.70409 0.0
H1413 H 0.83948 0.91039 0.70755 0.0
C1414 C 0.86024 0.93537 0.75497 0.0
C1415 C 0.86941 0.94653 0.78132 0.0
C1416 C 0.83965 0.91399 0.7527 0.0
C1417 C 0.85717 0.93647 0.8054 0.0
C1418 C 0.83669 0.9151 0.80331 0.0
C1419 C 0.80866 0.88096 0.7749 0.0
C1420 C 0.80105 0.86819 0.74867 0.0
C1421 C 0.82805 0.90352 0.77709 0.0
C1422 C 0.81175 0.87967 0.72449 0.0
C1423 C 0.83089 0.90244 0.72649 0.0
H1424 H 0.66537 0.12552 0.511 0.0
H1425 H 0.64998 0.04172 0.47062 0.0
H1426 H 0.60529 0.03922 0.49192 0.0
H1427 H 0.57034 0.06109 0.52099 0.0
H1428 H 0.5838 0.14616 0.5587 0.0
H1429 H 0.63005 0.1476 0.54013 0.0
C1430 C 0.65221 0.10675 0.50678 0.0
C1431 C 0.661 0.08384 0.48927 0.0
C1432 C 0.62651 0.10545 0.51907 0.0
C1433 C 0.64371 0.05967 0.484 0.0
C1434 C 0.61822 0.05812 0.49631 0.0
C1435 C 0.58366 0.07964 0.52575 0.0
C1436 C 0.57409 0.10325 0.54164 0.0
C1437 C 0.6095 0.08081 0.51394 0.0
C1438 C 0.59109 0.12759 0.54686 0.0
C1439 C 0.61732 0.12851 0.53602 0.0
H1440 H 0.278 0.44306 0.78896 0.0
H1441 H 0.23266 0.46291 0.71594 0.0
H1442 H 0.2439 0.41702 0.69327 0.0
H1443 H 0.25788 0.36767 0.69849 0.0
H1444 H 0.30184 0.34746 0.77228 0.0
H1445 H 0.3 0.39707 0.79009 0.0
C1446 C 0.27123 0.43778 0.76777 0.0
C1447 C 0.25366 0.45595 0.75464 0.0
C1448 C 0.27695 0.41093 0.75518 0.0
C1449 C 0.24568 0.44904 0.72688 0.0
C1450 C 0.25191 0.42265 0.71392 0.0
C1451 C 0.2675 0.37423 0.71822 0.0
C1452 C 0.27919 0.35371 0.7344 0.0
C1453 C 0.26606 0.40276 0.7286 0.0
C1454 C 0.29221 0.3627 0.75959 0.0
C1455 C 0.29117 0.3911 0.76986 0.0
H1456 H 0.31824 0.58085 0.30312 0.0
H1457 H 0.31917 0.59516 0.21507 0.0
H1458 H 0.2832 0.62966 0.22195 0.0
H1459 H 0.25861 0.6619 0.25402 0.0
H1460 H 0.26403 0.65286 0.34273 0.0
H1461 H 0.29047 0.6098 0.33455 0.0
C1462 C 0.31036 0.59108 0.28522 0.0
C1463 C 0.3219 0.58585 0.25864 0.0
C1464 C 0.29107 0.61209 0.28961 0.0
C1465 C 0.31091 0.59894 0.23575 0.0
C1466 C 0.29048 0.61883 0.23974 0.0
C1467 C 0.26487 0.65004 0.27159 0.0
C1468 C 0.25943 0.66052 0.29902 0.0
C1469 C 0.28144 0.62652 0.26676 0.0
C1470 C 0.26803 0.6452 0.32151 0.0
C1471 C 0.28323 0.62072 0.3168 0.0
H1472 H 0.43238 0.73644 0.57826 0.0
H1473 H 0.51834 0.75608 0.57585 0.0
H1474 H 0.52536 0.71139 0.54825 0.0
H1475 H 0.50715 0.66551 0.52671 0.0
H1476 H 0.42161 0.64491 0.53267 0.0
H1477 H 0.41428 0.69135 0.5567 0.0
C1478 C 0.45265 0.73112 0.5715 0.0
C1479 C 0.47479 0.7496 0.57906 0.0
C1480 C 0.45658 0.70518 0.55626 0.0
C1481 C 0.50095 0.74216 0.5704 0.0
C1482 C 0.50497 0.71664 0.55458 0.0
C1483 C 0.4869 0.67143 0.53298 0.0
C1484 C 0.46492 0.65195 0.52787 0.0
C1485 C 0.48296 0.69783 0.54762 0.0
C1486 C 0.43882 0.65959 0.53646 0.0
C1487 C 0.43463 0.68609 0.55021 0.0
H1488 H 0.58822 0.15 0.79387 0.0
H1489 H 0.584 0.21919 0.85681 0.0
H1490 H 0.62887 0.23711 0.84351 0.0
H1491 H 0.66788 0.23496 0.812 0.0
H1492 H 0.67207 0.16569 0.74912 0.0
H1493 H 0.62854 0.14603 0.76445 0.0
C1494 C 0.5972 0.16884 0.8049 0.0
C1495 C 0.58265 0.18336 0.82614 0.0
C1496 C 0.62287 0.17919 0.79698 0.0
C1497 C 0.59471 0.20761 0.84034 0.0
C1498 C 0.62033 0.21797 0.83266 0.0
C1499 C 0.65931 0.21554 0.80165 0.0
C1500 C 0.67308 0.20202 0.77923 0.0
C1501 C 0.63433 0.20427 0.81063 0.0
C1502 C 0.66186 0.17662 0.76635 0.0
C1503 C 0.63695 0.16535 0.7751 0.0
H1504 H 0.04567 0.34409 0.10804 0.0
H1505 H -0.00711 0.32167 0.03796 0.0
H1506 H 0.00837 0.36492 0.01552 0.0
H1507 H 0.03116 0.41181 0.01933 0.0
H1508 H 0.07933 0.43721 0.09218 0.0
H1509 H 0.07185 0.3895 0.10986 0.0
C1510 C 0.03798 0.34833 0.08757 0.0
C1511 C 0.01798 0.32992 0.07472 0.0
C1512 C 0.04599 0.37379 0.07548 0.0
C1513 C 0.00809 0.33572 0.04831 0.0
C1514 C 0.01691 0.36042 0.03554 0.0
C1515 C 0.04056 0.40685 0.03883 0.0
C1516 C 0.05551 0.42817 0.05463 0.0
C1517 C 0.03501 0.38008 0.04946 0.0
C1518 C 0.06754 0.42125 0.07977 0.0
C1519 C 0.06316 0.39405 0.08992 0.0
H1520 H 0.91318 0.71116 0.29964 0.0
H1521 H 0.88832 0.62183 0.29494 0.0
H1522 H 0.84341 0.63396 0.27821 0.0
H1523 H 0.81054 0.6701 0.26826 0.0
H1524 H 0.83323 0.75988 0.27897 0.0
H1525 H 0.87988 0.74763 0.28989 0.0
C1526 C 0.89798 0.69443 0.29442 0.0
C1527 C 0.90386 0.66568 0.29795 0.0
C1528 C 0.87194 0.70171 0.2861 0.0
C1529 C 0.88403 0.64407 0.29204 0.0
C1530 C 0.85846 0.65099 0.28257 0.0
C1531 C 0.82584 0.68698 0.2725 0.0
C1532 C 0.81871 0.71584 0.2725 0.0
C1533 C 0.85209 0.67976 0.27994 0.0
C1534 C 0.83843 0.73753 0.27875 0.0
C1535 C 0.86501 0.73053 0.28502 0.0
H1536 H 0.43398 0.27892 0.89317 0.0
H1537 H 0.51433 0.25164 0.91198 0.0
H1538 H 0.52328 0.29596 0.94025 0.0
H1539 H 0.50855 0.34286 0.95921 0.0
H1540 H 0.42993 0.37223 0.93699 0.0
H1541 H 0.41989 0.32675 0.9107 0.0
C1542 C 0.45342 0.28271 0.9035 0.0
C1543 C 0.47343 0.26199 0.90055 0.0
C1544 C 0.45868 0.30858 0.91922 0.0
C1545 C 0.49865 0.26732 0.91379 0.0
C1546 C 0.50375 0.2926 0.93006 0.0
C1547 C 0.48913 0.33912 0.94882 0.0
C1548 C 0.46986 0.36064 0.95028 0.0
C1549 C 0.48393 0.31339 0.93292 0.0
C1550 C 0.44502 0.35588 0.93622 0.0
C1551 C 0.4393 0.32992 0.92117 0.0
H1552 H 0.95113 0.23475 0.21462 0.0
H1553 H 0.91722 0.24297 0.13283 0.0
H1554 H 0.87162 0.23516 0.15102 0.0
H1555 H 0.84151 0.23471 0.19145 0.0
H1556 H 0.87559 0.23237 0.27391 0.0
H1557 H 0.92103 0.22839 0.25425 0.0
C1558 C 0.93379 0.23413 0.20068 0.0
C1559 C 0.93736 0.24 0.1726 0.0
C1560 C 0.90766 0.23085 0.21151 0.0
C1561 C 0.91484 0.23916 0.15468 0.0
C1562 C 0.88878 0.23463 0.16506 0.0
C1563 C 0.85883 0.23243 0.20499 0.0
C1564 C 0.85546 0.23403 0.23398 0.0
C1565 C 0.88492 0.23177 0.19365 0.0
C1566 C 0.87793 0.23139 0.25147 0.0
C1567 C 0.90385 0.22925 0.24027 0.0
H1568 H 0.00935 0.60849 0.41371 0.0
H1569 H 0.93047 0.62528 0.44865 0.0
H1570 H 0.94434 0.60678 0.49253 0.0
H1571 H 0.9777 0.58444 0.52048 0.0
H1572 H 0.05558 0.56352 0.48568 0.0
H1573 H 0.04349 0.5858 0.4425 0.0
C1574 C -0.00471 0.60828 0.431 0.0
C1575 C 0.96892 0.6184 0.42781 0.0
C1576 C 0.00327 0.59718 0.4563 0.0
C1577 C 0.95086 0.61765 0.45038 0.0
C1578 C 0.95879 0.60716 0.4756 0.0
C1579 C -0.00763 0.58517 0.50374 0.0
C1580 C 0.01769 0.57257 0.5065 0.0
C1581 C 0.98486 0.59681 0.47874 0.0
C1582 C 0.03607 0.5733 0.48422 0.0
C1583 C 0.02906 0.58582 0.45946 0.0
H1584 H 0.5737 0.84884 0.71146 0.0
H1585 H 0.59273 0.82486 0.62596 0.0
H1586 H 0.63936 0.8155 0.63944 0.0
H1587 H 0.67313 0.80966 0.6763 0.0
H1588 H 0.65198 0.82898 0.76213 0.0
H1589 H 0.60769 0.84496 0.74776 0.0
C1590 C 0.58814 0.84199 0.69567 0.0
C1591 C 0.57984 0.83746 0.66778 0.0
C1592 C 0.61443 0.83567 0.70371 0.0
C1593 C 0.59869 0.82835 0.6476 0.0
C1594 C 0.62528 0.82298 0.6553 0.0
C1595 C 0.65895 0.81786 0.69175 0.0
C1596 C 0.66564 0.81822 0.72018 0.0
C1597 C 0.63317 0.8259 0.6834 0.0
C1598 C 0.64709 0.82845 0.74013 0.0
C1599 C 0.62182 0.83753 0.73193 0.0
H1600 H 0.50952 0.5152 0.68241 0.0
H1601 H 0.58903 0.49775 0.64961 0.0
H1602 H 0.57155 0.49905 0.60215 0.0
H1603 H 0.53416 0.50648 0.57016 0.0
H1604 H 0.4554 0.52739 0.60269 0.0
H1605 H 0.47203 0.52295 0.65025 0.0
C1606 C 0.52302 0.51163 0.66487 0.0
C1607 C 0.55053 0.50639 0.66949 0.0
C1608 C 0.51292 0.5128 0.63768 0.0
C1609 C 0.56781 0.502 0.64659 0.0
C1610 C 0.55781 0.5026 0.61947 0.0
C1611 C 0.52049 0.50959 0.58764 0.0
C1612 C 0.49351 0.5169 0.58299 0.0
C1613 C 0.53044 0.50805 0.6148 0.0
C1614 C 0.47621 0.52157 0.60582 0.0
C1615 C 0.48574 0.51916 0.63296 0.0
H1616 H 0.83136 0.33105 0.92649 0.0
H1617 H 0.74782 0.3529 0.93952 0.0
H1618 H 0.73577 0.33107 0.89378 0.0
H1619 H 0.7488 0.30612 0.84994 0.0
H1620 H 0.83246 0.28529 0.83609 0.0
H1621 H 0.84452 0.30644 0.88222 0.0
C1622 C 0.81049 0.33093 0.91941 0.0
C1623 C 0.79055 0.34358 0.93656 0.0
C1624 C 0.80369 0.3186 0.89285 0.0
C1625 C 0.76364 0.34341 0.92683 0.0
C1626 C 0.75669 0.3309 0.90063 0.0
C1627 C 0.76969 0.30613 0.85697 0.0
C1628 C 0.78965 0.29403 0.83949 0.0
C1629 C 0.77654 0.3185 0.88344 0.0
C1630 C 0.81665 0.29447 0.849 0.0
C1631 C 0.82357 0.30652 0.87544 0.0
H1632 H 0.98787 0.56975 0.22503 0.0
H1633 H 0.90608 0.54949 0.19689 0.0
H1634 H 0.92164 0.54585 0.14859 0.0
H1635 H 0.95889 0.54671 0.11456 0.0
H1636 H 0.04094 0.56336 0.14351 0.0
H1637 H 0.02487 0.57047 0.19134 0.0
C1638 C 0.97342 0.56469 0.20832 0.0
C1639 C 0.94591 0.55991 0.21445 0.0
C1640 C 0.98257 0.56206 0.18077 0.0
C1641 C 0.92743 0.5531 0.19264 0.0
C1642 C 0.93628 0.55111 0.16504 0.0
C1643 C 0.97313 0.55225 0.13136 0.0
C1644 C 0.00098 0.55469 0.12566 0.0
C1645 C 0.96384 0.55536 0.15889 0.0
C1646 C 0.01939 0.56137 0.14753 0.0
C1647 C 0.01023 0.56539 0.17483 0.0
H1648 H 0.73085 0.64693 0.44638 0.0
H1649 H 0.81355 0.67815 0.4372 0.0
H1650 H 0.79921 0.70949 0.4014 0.0
H1651 H 0.76431 0.72452 0.37002 0.0
H1652 H 0.68217 0.69083 0.37651 0.0
H1653 H 0.69514 0.66459 0.41684 0.0
C1654 C 0.74576 0.66073 0.43673 0.0
C1655 C 0.77332 0.6599 0.44428 0.0
C1656 C 0.73746 0.67839 0.41586 0.0
C1657 C 0.79228 0.67807 0.43161 0.0
C1658 C 0.78408 0.69609 0.4112 0.0
C1659 C 0.749 0.71194 0.38052 0.0
C1660 C 0.72229 0.70952 0.37008 0.0
C1661 C 0.75684 0.69598 0.40281 0.0
C1662 C 0.70286 0.69304 0.38405 0.0
C1663 C 0.71033 0.67784 0.40696 0.0
H1664 H 0.60104 0.50948 0.84528 0.0
H1665 H 0.5257 0.52875 0.80581 0.0
H1666 H 0.50222 0.52643 0.85023 0.0
H1667 H 0.50195 0.51164 0.89849 0.0
H1668 H 0.57717 0.49404 0.93874 0.0
H1669 H 0.60207 0.50311 0.89581 0.0
C1670 C 0.57962 0.51369 0.84653 0.0
C1671 C 0.56501 0.51866 0.82225 0.0
C1672 C 0.56623 0.51228 0.87216 0.0
C1673 C 0.53736 0.52471 0.82421 0.0
C1674 C 0.52386 0.52319 0.84956 0.0
C1675 C 0.52387 0.51045 0.8979 0.0
C1676 C 0.53784 0.50192 0.92129 0.0
C1677 C 0.5379 0.51587 0.87337 0.0
C1678 C 0.56618 0.50063 0.92076 0.0
C1679 C 0.58032 0.50563 0.89624 0.0
H1680 H 0.74632 0.35265 0.08632 0.0
H1681 H 0.81148 0.29559 0.06684 0.0
H1682 H 0.80189 0.27022 0.10905 0.0
H1683 H 0.77916 0.26857 0.15441 0.0
H1684 H 0.71725 0.32892 0.17584 0.0
H1685 H 0.72111 0.34841 0.1298 0.0
C1686 C 0.75806 0.33426 0.09093 0.0
C1687 C 0.7797 0.32614 0.07346 0.0
C1688 C 0.75314 0.32052 0.11578 0.0
C1689 C 0.79482 0.3024 0.07997 0.0
C1690 C 0.78939 0.28794 0.10416 0.0
C1691 C 0.76603 0.2855 0.14874 0.0
C1692 C 0.74794 0.2973 0.16852 0.0
C1693 C 0.7692 0.29742 0.12268 0.0
C1694 C 0.73137 0.31953 0.16102 0.0
C1695 C 0.73365 0.33075 0.13473 0.0
H1696 H 0.91036 0.56447 0.39279 0.0
H1697 H 0.96981 0.51529 0.34708 0.0
H1698 H 0.98367 0.49386 0.38978 0.0
H1699 H 0.97862 0.48871 0.43996 0.0
H1700 H 0.92053 0.53927 0.48605 0.0
H1701 H 0.90593 0.56008 0.44318 0.0
C1702 C 0.92632 0.54903 0.39219 0.0
C1703 C 0.93887 0.54127 0.36684 0.0
C1704 C 0.93412 0.53673 0.41677 0.0
C1705 C 0.95986 0.52166 0.3664 0.0
C1706 C 0.96767 0.50922 0.39075 0.0
C1707 C 0.9624 0.50386 0.44048 0.0
C1708 C 0.95028 0.51206 0.46591 0.0
C1709 C 0.95474 0.51637 0.41597 0.0
C1710 C 0.92987 0.53237 0.46655 0.0
C1711 C 0.92166 0.54441 0.44213 0.0
H1712 H 0.76306 0.68243 0.55963 0.0
H1713 H 0.83972 0.65326 0.5883 0.0
H1714 H 0.83675 0.68478 0.63046 0.0
H1715 H 0.81009 0.7169 0.66098 0.0
H1716 H 0.73478 0.74842 0.63152 0.0
H1717 H 0.73958 0.7201 0.58739 0.0
C1718 C 0.77919 0.68328 0.57505 0.0
C1719 C 0.80136 0.66537 0.5713 0.0
C1720 C 0.77757 0.70183 0.59889 0.0
C1721 C 0.82245 0.66688 0.59096 0.0
C1722 C 0.82072 0.68479 0.61503 0.0
C1723 C 0.79508 0.71797 0.64458 0.0
C1724 C 0.77207 0.73439 0.64927 0.0
C1725 C 0.7981 0.70185 0.61945 0.0
C1726 C 0.75272 0.73595 0.62808 0.0
C1727 C 0.75535 0.7196 0.60305 0.0
H1728 H 0.67489 0.53254 0.49892 0.0
H1729 H 0.67583 0.62277 0.5235 0.0
H1730 H 0.62675 0.62348 0.51662 0.0
H1731 H 0.58375 0.59846 0.50261 0.0
H1732 H 0.58362 0.50809 0.47852 0.0
H1733 H 0.63239 0.50759 0.48591 0.0
C1734 C 0.66439 0.55237 0.50293 0.0
C1735 C 0.67896 0.57755 0.51162 0.0
C1736 C 0.63638 0.55267 0.49873 0.0
C1737 C 0.66502 0.60304 0.51684 0.0
C1738 C 0.63701 0.6035 0.51277 0.0
C1739 C 0.59447 0.57875 0.49877 0.0
C1740 C 0.58015 0.55341 0.4899 0.0
C1741 C 0.62253 0.57849 0.50342 0.0
C1742 C 0.5942 0.5279 0.48537 0.0
C1743 C 0.62207 0.52755 0.48963 0.0
H1744 H 0.15886 0.90274 0.53474 0.0
H1745 H 0.16859 0.99383 0.52515 0.0
H1746 H 0.1208 0.99626 0.51322 0.0
H1747 H 0.07629 0.97293 0.50592 0.0
H1748 H 0.06578 0.88198 0.5158 0.0
H1749 H 0.11386 0.87918 0.5272 0.0
C1750 C 0.15053 0.92311 0.53 0.0
C1751 C 0.16731 0.94806 0.53088 0.0
C1752 C 0.1229 0.92443 0.52324 0.0
C1753 C 0.15617 0.97428 0.5247 0.0
C1754 C 0.12881 0.97573 0.51785 0.0
C1755 C 0.08444 0.95243 0.51051 0.0
C1756 C 0.06737 0.92772 0.51 0.0
C1757 C 0.112 0.95098 0.51713 0.0
C1758 C 0.0784 0.90138 0.51607 0.0
C1759 C 0.10591 0.89974 0.52259 0.0
H1760 H 0.3616 -0.00145 0.87191 0.0
H1761 H 0.35155 0.01454 0.78507 0.0
H1762 H 0.33484 0.96506 0.77557 0.0
H1763 H 0.3197 0.91833 0.79294 0.0
H1764 H 0.33234 0.90197 0.87929 0.0
H1765 H 0.35106 0.95072 0.88822 0.0
C1766 C 0.35618 0.991 0.85082 0.0
C1767 C 0.35764 0.01006 0.82924 0.0
C1768 C 0.34653 0.96272 0.8456 0.0
C1769 C 0.35081 0.00011 0.80196 0.0
C1770 C 0.34094 0.97196 0.7966 0.0
C1771 C 0.3265 0.92562 0.81367 0.0
C1772 C 0.32421 0.90706 0.83561 0.0
C1773 C 0.33805 0.95332 0.81841 0.0
C1774 C 0.3337 0.91619 0.86225 0.0
C1775 C 0.34447 0.94393 0.86731 0.0
H1776 H 0.31616 0.02664 0.01305 0.0
H1777 H 0.36312 0.10214 0.99287 0.0
H1778 H 0.40037 0.0875 0.02212 0.0
H1779 H 0.42003 0.05218 0.05118 0.0
H1780 H 0.37479 0.97422 0.06737 0.0
H1781 H 0.33567 0.99155 0.0426 0.0
C1782 C 0.33448 0.04004 0.01518 0.0
C1783 C 0.33693 0.06546 0.00083 0.0
C1784 C 0.3558 0.03125 0.0316 0.0
C1785 C 0.36083 0.08244 0.00358 0.0
C1786 C 0.382 0.07416 0.02045 0.0
C1787 C 0.40147 0.03911 0.04984 0.0
C1788 C 0.40029 0.01187 0.06123 0.0
C1789 C 0.37972 0.04851 0.03438 0.0
C1790 C 0.37616 0.99522 0.05889 0.0
C1791 C 0.35393 0.00503 0.04455 0.0
H1792 H 0.62797 0.59704 0.75782 0.0
H1793 H 0.70123 0.55131 0.76922 0.0
H1794 H 0.72843 0.59564 0.76552 0.0
H1795 H 0.73121 0.64767 0.76103 0.0
H1796 H 0.65775 0.69435 0.75395 0.0
H1797 H 0.63075 0.64957 0.75423 0.0
C1798 C 0.64991 0.59687 0.75909 0.0
C1799 C 0.66272 0.57108 0.76342 0.0
C1800 C 0.66531 0.62263 0.75809 0.0
C1801 C 0.69107 0.57101 0.76572 0.0
C1802 C 0.70657 0.59631 0.76371 0.0
C1803 C 0.70929 0.64802 0.75947 0.0
C1804 C 0.69651 0.67427 0.75745 0.0
C1805 C 0.69389 0.6223 0.76024 0.0
C1806 C 0.66807 0.67443 0.75572 0.0
C1807 C 0.65263 0.64883 0.75575 0.0
H1808 H 0.87095 0.41005 -0.00242 0.0
H1809 H 0.8269 0.48827 0.00062 0.0
H1810 H 0.86954 0.51643 0.00029 0.0
H1811 H 0.91962 0.51875 0.00317 0.0
H1812 H 0.96322 0.44011 -0.00253 0.0
H1813 H 0.92061 0.41226 -0.00529 0.0
C1814 C 0.87069 0.43323 -0.00213 0.0
C1815 C 0.84587 0.44707 -0.00054 0.0
C1816 C 0.89525 0.44924 -0.0026 0.0
C1817 C 0.84579 0.47712 -0.00067 0.0
C1818 C 0.87018 0.49325 -0.00066 0.0
C1819 C 0.91973 0.49554 0.00103 0.0
C1820 C 0.94455 0.48155 0.00079 0.0
C1821 C 0.89507 0.47955 -0.00098 0.0
C1822 C 0.94442 0.45145 -0.00235 0.0
C1823 C 0.92004 0.43545 -0.0038 0.0
H1824 H 0.30776 0.08691 0.76463 0.0
H1825 H 0.26337 0.11908 0.83617 0.0
H1826 H 0.22636 0.13219 0.80577 0.0
H1827 H 0.21482 0.14736 0.75956 0.0
H1828 H 0.26427 0.1224 0.68901 0.0
H1829 H 0.28955 0.0912 0.71776 0.0
C1830 C 0.28967 0.09619 0.77361 0.0
C1831 C 0.28864 0.10345 0.80234 0.0
C1832 C 0.26924 0.10464 0.75599 0.0
C1833 C 0.26478 0.11423 0.81397 0.0
C1834 C 0.2437 0.12166 0.79659 0.0
C1835 C 0.23045 0.13424 0.75015 0.0
C1836 C 0.23927 0.13898 0.72284 0.0
C1837 C 0.24677 0.11894 0.76752 0.0
C1838 C 0.25803 0.12029 0.71042 0.0
C1839 C 0.27289 0.10286 0.72702 0.0
H1840 H 0.18477 0.96216 0.25979 0.0
H1841 H 0.19606 0.97686 0.34866 0.0
H1842 H 0.21671 0.93056 0.35099 0.0
H1843 H 0.22511 0.8831 0.32914 0.0
H1844 H 0.21544 0.86818 0.24046 0.0
H1845 H 0.20036 0.91739 0.23665 0.0
C1846 C 0.19229 0.95556 0.27958 0.0
C1847 C 0.18815 0.9727 0.30411 0.0
C1848 C 0.20386 0.92863 0.2809 0.0
C1849 C 0.19855 0.964 0.32947 0.0
C1850 C 0.21021 0.93738 0.33091 0.0
C1851 C 0.21997 0.89087 0.30899 0.0
C1852 C 0.2207 0.87227 0.28519 0.0
C1853 C 0.21181 0.91906 0.307 0.0
C1854 C 0.21468 0.88235 0.25902 0.0
C1855 C 0.20609 0.91036 0.25689 0.0
H1856 H 0.49911 0.36077 0.38291 0.0
H1857 H 0.41922 0.37262 0.34976 0.0
H1858 H 0.4164 0.41802 0.37767 0.0
H1859 H 0.43632 0.45326 0.41278 0.0
H1860 H 0.51483 0.43827 0.44808 0.0
H1861 H 0.51827 0.39472 0.41827 0.0
C1862 C 0.48122 0.37349 0.38134 0.0
C1863 C 0.45958 0.36363 0.3639 0.0
C1864 C 0.47932 0.39867 0.39824 0.0
C1865 C 0.43626 0.37997 0.36279 0.0
C1866 C 0.4346 0.40577 0.37888 0.0
C1867 C 0.45414 0.4404 0.41401 0.0
C1868 C 0.47529 0.44905 0.43269 0.0
C1869 C 0.4559 0.41512 0.39696 0.0
C1870 C 0.49816 0.43205 0.43411 0.0
C1871 C 0.50025 0.40724 0.41691 0.0
H1872 H 0.40788 0.71588 0.22935 0.0
H1873 H 0.36928 0.7585 0.16305 0.0
H1874 H 0.33832 0.78079 0.19632 0.0
H1875 H 0.32156 0.78761 0.24347 0.0
H1876 H 0.35645 0.74211 0.30975 0.0
H1877 H 0.38991 0.72178 0.2772 0.0
C1878 C 0.3923 0.72955 0.22211 0.0
C1879 C 0.39094 0.73552 0.19375 0.0
C1880 C 0.37421 0.7421 0.24132 0.0
C1881 C 0.37069 0.75333 0.18468 0.0
C1882 C 0.35304 0.76626 0.20371 0.0
C1883 C 0.33689 0.77381 0.25104 0.0
C1884 C 0.33701 0.76689 0.27911 0.0
C1885 C 0.35479 0.761 0.23202 0.0
C1886 C 0.3564 0.74818 0.28832 0.0
C1887 C 0.3752 0.73626 0.26965 0.0
H1888 H 0.96996 0.68361 0.91945 0.0
H1889 H 0.05437 0.6911 0.8962 0.0
H1890 H 0.06645 0.66137 0.93429 0.0
H1891 H 0.05256 0.62998 0.97079 0.0
H1892 H 0.9679 0.6199 0.99212 0.0
H1893 H 0.95644 0.65489 0.9583 0.0
C1894 C 0.99107 0.67892 0.92269 0.0
C1895 C 0.01122 0.68919 0.90465 0.0
C1896 C -0.00222 0.66153 0.94425 0.0
C1897 C 0.03845 0.68322 0.90954 0.0
C1898 C 0.04536 0.66626 0.93131 0.0
C1899 C 0.03157 0.63557 0.96832 0.0
C1900 C 0.01102 0.62197 0.98363 0.0
C1901 C 0.0251 0.65481 0.9483 0.0
C1902 C 0.98405 0.62992 0.9805 0.0
C1903 C 0.9775 0.64974 0.96104 0.0
H1904 H 0.08511 0.25604 0.62302 0.0
H1905 H 0.06892 0.17586 0.66122 0.0
H1906 H 0.10869 0.18459 0.69128 0.0
H1907 H 0.14842 0.2146 0.70601 0.0
H1908 H 0.16438 0.29484 0.66774 0.0
H1909 H 0.12378 0.28685 0.63896 0.0
C1910 C 0.09047 0.24029 0.63768 0.0
C1911 C 0.07433 0.21514 0.63963 0.0
C1912 C 0.11294 0.24575 0.65529 0.0
C1913 C 0.08119 0.19526 0.65915 0.0
C1914 C 0.10379 0.20033 0.67647 0.0
C1915 C 0.14272 0.23066 0.69182 0.0
C1916 C 0.15939 0.25534 0.68912 0.0
C1917 C 0.11973 0.22558 0.67481 0.0
C1918 C 0.15187 0.2757 0.67031 0.0
C1919 C 0.12879 0.27103 0.65365 0.0
H1920 H 0.47523 0.64264 0.10504 0.0
H1921 H 0.38898 0.62805 0.09439 0.0
H1922 H 0.39648 0.57943 0.07513 0.0
H1923 H 0.42778 0.54221 0.05821 0.0
H1924 H 0.51405 0.55855 0.06672 0.0
H1925 H 0.50622 0.60519 0.08993 0.0
C1926 C 0.45801 0.62879 0.0987 0.0
C1927 C 0.43161 0.6391 0.10098 0.0
C1928 C 0.46247 0.60117 0.08702 0.0
C1929 C 0.40956 0.62083 0.09253 0.0
C1930 C 0.41381 0.59301 0.08151 0.0
C1931 C 0.44482 0.55587 0.06543 0.0
C1932 C 0.47147 0.54696 0.06062 0.0
C1933 C 0.44021 0.5831 0.07819 0.0
C1934 C 0.49335 0.56501 0.0699 0.0
C1935 C 0.48891 0.59168 0.08322 0.0
H1936 H 0.09782 0.78462 0.85575 0.0
H1937 H 0.09036 0.80974 0.77117 0.0
H1938 H 0.13664 0.8302 0.77299 0.0
H1939 H 0.18104 0.8349 0.7967 0.0
H1940 H 0.18807 0.80883 0.88104 0.0
H1941 H 0.13989 0.79569 0.8816 0.0
C1942 C 0.1063 0.79475 0.83779 0.0
C1943 C 0.09109 0.7951 0.81317 0.0
C1944 C 0.13275 0.80652 0.83904 0.0
C1945 C 0.10192 0.80893 0.79027 0.0
C1946 C 0.12834 0.82065 0.7913 0.0
C1947 C 0.17177 0.8273 0.81548 0.0
C1948 C 0.18802 0.82254 0.83868 0.0
C1949 C 0.1442 0.81886 0.81534 0.0
C1950 C 0.1759 0.81246 0.86286 0.0
C1951 C 0.14843 0.8047 0.86312 0.0
H1952 H 0.00401 0.28526 0.576 0.0
H1953 H 0.94988 0.27286 0.50556 0.0
H1954 H 0.94048 0.32408 0.5083 0.0
H1955 H 0.9515 0.37301 0.52795 0.0
H1956 H 0.00397 0.38417 0.59994 0.0
H1957 H 0.00971 0.33263 0.59967 0.0
C1958 C 0.98982 0.29361 0.5615 0.0
C1959 C 0.97788 0.2754 0.54036 0.0
C1960 C 0.98428 0.32286 0.56344 0.0
C1961 C 0.95933 0.28656 0.52196 0.0
C1962 C 0.95405 0.31581 0.52345 0.0
C1963 C 0.96384 0.36408 0.54381 0.0
C1964 C 0.97756 0.38244 0.56368 0.0
C1965 C 0.96698 0.33429 0.54367 0.0
C1966 C -0.00682 0.37055 0.58437 0.0
C1967 C -0.00336 0.34107 0.58415 0.0
H1968 H 0.44267 0.22309 0.28966 0.0
H1969 H 0.47192 0.29551 0.2452 0.0
H1970 H 0.43688 0.28551 0.20957 0.0
H1971 H 0.39242 0.26308 0.19798 0.0
H1972 H 0.3617 0.19287 0.24436 0.0
H1973 H 0.40374 0.19373 0.27142 0.0
C1974 C 0.44159 0.23636 0.27188 0.0
C1975 C 0.45904 0.26055 0.27034 0.0
C1976 C 0.42141 0.23053 0.25172 0.0
C1977 C 0.45823 0.27712 0.24694 0.0
C1978 C 0.43829 0.27135 0.2266 0.0
C1979 C 0.39566 0.247 0.21301 0.0
C1980 C 0.37411 0.22828 0.21968 0.0
C1981 C 0.41901 0.249 0.22959 0.0
C1982 C 0.37818 0.20739 0.23895 0.0
C1983 C 0.40193 0.20838 0.25485 0.0
H1984 H 0.45531 0.60424 0.29488 0.0
H1985 H 0.47381 0.51516 0.28139 0.0
H1986 H 0.49315 0.51514 0.32843 0.0
H1987 H 0.49462 0.53773 0.37586 0.0
H1988 H 0.47372 0.62607 0.38989 0.0
H1989 H 0.46594 0.62966 0.33981 0.0
C1990 C 0.46459 0.58519 0.30199 0.0
C1991 C 0.46313 0.55968 0.28517 0.0
C1992 C 0.47477 0.58525 0.32913 0.0
C1993 C 0.47501 0.535 0.29415 0.0
C1994 C 0.48571 0.53496 0.32108 0.0
C1995 C 0.48932 0.55801 0.36766 0.0
C1996 C 0.48445 0.58158 0.38612 0.0
C1997 C 0.48424 0.55952 0.33917 0.0
C1998 C 0.47761 0.60782 0.37578 0.0
C1999 C 0.47294 0.60971 0.34728 0.0
H2000 H 0.32626 0.72578 0.1184 0.0
H2001 H 0.29575 0.6405 0.13272 0.0
H2002 H 0.26935 0.65894 0.17245 0.0
H2003 H 0.25387 0.69948 0.20201 0.0
H2004 H 0.28311 0.78522 0.18706 0.0
H2005 H 0.31023 0.76667 0.14793 0.0
C2006 C 0.3143 0.71129 0.13072 0.0
C2007 C 0.31336 0.68182 0.1233 0.0
C2008 C 0.29825 0.72224 0.15271 0.0
C2009 C 0.29713 0.6632 0.13863 0.0
C2010 C 0.28179 0.67378 0.16103 0.0
C2011 C 0.26573 0.71419 0.18984 0.0
C2012 C 0.26616 0.74374 0.19716 0.0
C2013 C 0.28181 0.70332 0.16793 0.0
C2014 C 0.28217 0.76241 0.18159 0.0
C2015 C 0.2979 0.75179 0.15942 0.0
H2016 H 0.11441 0.49632 0.83956 0.0
H2017 H 0.18848 0.52984 0.87818 0.0
H2018 H 0.16615 0.53184 0.92394 0.0
H2019 H 0.12454 0.5266 0.95185 0.0
H2020 H 0.05154 0.49008 0.91293 0.0
H2021 H 0.07462 0.48623 0.86801 0.0
C2022 C 0.12562 0.50392 0.85811 0.0
C2023 C 0.1527 0.51339 0.85589 0.0
C2024 C 0.11289 0.50437 0.88399 0.0
C2025 C 0.16748 0.52263 0.87976 0.0
C2026 C 0.15472 0.52381 0.90573 0.0
C2027 C 0.11382 0.5176 0.93351 0.0
C2028 C 0.08638 0.50896 0.9354 0.0
C2029 C 0.1273 0.51514 0.90795 0.0
C2030 C 0.07269 0.49686 0.91181 0.0
C2031 C 0.08581 0.4948 0.88618 0.0
H2032 H 0.24954 0.30538 0.53239 0.0
H2033 H 0.33362 0.33099 0.54558 0.0
H2034 H 0.33767 0.29587 0.58081 0.0
H2035 H 0.31468 0.26554 0.6144 0.0
H2036 H 0.23035 0.24167 0.60254 0.0
H2037 H 0.22918 0.26758 0.55978 0.0
C2038 C 0.26889 0.30286 0.54257 0.0
C2039 C 0.29098 0.32133 0.53694 0.0
C2040 C 0.27104 0.28282 0.56306 0.0
C2041 C 0.31611 0.31736 0.54981 0.0
C2042 C 0.31848 0.29728 0.57004 0.0
C2043 C 0.29653 0.26487 0.60158 0.0
C2044 C 0.27271 0.25171 0.6112 0.0
C2045 C 0.29575 0.28088 0.57775 0.0
C2046 C 0.24899 0.25142 0.59506 0.0
C2047 C 0.24822 0.2666 0.57091 0.0
H2048 H 0.40684 0.49279 0.15491 0.0
H2049 H 0.47178 0.55407 0.13977 0.0
H2050 H 0.49469 0.51807 0.11063 0.0
H2051 H 0.49446 0.47072 0.0863 0.0
H2052 H 0.42808 0.41062 0.09831 0.0
H2053 H 0.40801 0.44424 0.13262 0.0
C2054 C 0.4258 0.49843 0.14491 0.0
C2055 C 0.43739 0.52623 0.14929 0.0
C2056 C 0.43891 0.47763 0.12811 0.0
C2057 C 0.46225 0.53294 0.13657 0.0
C2058 C 0.4755 0.51231 0.12007 0.0
C2059 C 0.47624 0.46452 0.09737 0.0
C2060 C 0.46304 0.43802 0.09035 0.0
C2061 C 0.46396 0.48467 0.11555 0.0
C2062 C 0.43889 0.43064 0.10398 0.0
C2063 C 0.42713 0.45011 0.12309 0.0
H2064 H 0.2959 0.74215 0.00817 0.0
H2065 H 0.38086 0.72934 0.99282 0.0
H2066 H 0.37995 0.76132 0.95446 0.0
H2067 H 0.35262 0.78444 0.91951 0.0
H2068 H 0.26763 0.79698 0.93543 0.0
H2069 H 0.27117 0.77419 0.97944 0.0
C2070 C 0.31437 0.74694 -0.00313 0.0
C2071 C 0.33814 0.73275 0.00277 0.0
C2072 C 0.31365 0.76502 0.97459 0.0
C2073 C 0.36212 0.73969 0.98845 0.0
C2074 C 0.3616 0.75785 0.96634 0.0
C2075 C 0.3351 0.78296 0.933 0.0
C2076 C 0.30973 0.79147 0.92373 0.0
C2077 C 0.33712 0.76937 0.95828 0.0
C2078 C 0.28729 0.78985 0.94169 0.0
C2079 C 0.28923 0.77677 0.96691 0.0
H2080 H 0.08665 0.50648 0.73442 0.0
H2081 H 0.15642 0.53293 0.68702 0.0
H2082 H 0.12776 0.53611 0.64579 0.0
H2083 H 0.08406 0.52638 0.62245 0.0
H2084 H 0.01491 0.49775 0.66976 0.0
H2085 H 0.04229 0.5009 0.71214 0.0
C2086 C 0.09562 0.51313 0.71513 0.0
C2087 C 0.12366 0.51898 0.71357 0.0
C2088 C 0.07918 0.51449 0.69159 0.0
C2089 C 0.1349 0.52806 0.68861 0.0
C2090 C 0.11854 0.52985 0.66508 0.0
C2091 C 0.0748 0.52128 0.64208 0.0
C2092 C 0.04756 0.51145 0.64287 0.0
C2093 C 0.0908 0.5224 0.6662 0.0
C2094 C 0.03589 0.50508 0.66853 0.0
C2095 C 0.05154 0.50678 0.69275 0.0
H2096 H 0.31591 0.34703 0.40847 0.0
H2097 H 0.23029 0.36333 0.4106 0.0
H2098 H 0.22442 0.33867 0.3648 0.0
H2099 H 0.24394 0.3139 0.32351 0.0
H2100 H 0.32967 0.29786 0.32189 0.0
H2101 H 0.33499 0.32078 0.36831 0.0
C2102 C 0.29594 0.34529 0.39893 0.0
C2103 C 0.27364 0.35723 0.41286 0.0
C2104 C 0.29267 0.33099 0.37274 0.0
C2105 C 0.24786 0.35442 0.40031 0.0
C2106 C 0.24446 0.34029 0.37412 0.0
C2107 C 0.26373 0.31513 0.33342 0.0
C2108 C 0.28636 0.30428 0.31914 0.0
C2109 C 0.26676 0.32862 0.36009 0.0
C2110 C 0.31188 0.30612 0.33231 0.0
C2111 C 0.315 0.3193 0.35886 0.0
H2112 H 0.29246 0.4835 0.52303 0.0
H2113 H 0.29303 0.45305 0.43695 0.0
H2114 H 0.33116 0.48618 0.4278 0.0
H2115 H 0.36876 0.51707 0.44654 0.0
H2116 H 0.36933 0.54522 0.53364 0.0
H2117 H 0.32584 0.52038 0.54007 0.0
C2118 C 0.30045 0.48497 0.50211 0.0
C2119 C 0.29021 0.46633 0.48059 0.0
C2120 C 0.3227 0.50335 0.49735 0.0
C2121 C 0.30064 0.4677 0.45361 0.0
C2122 C 0.32251 0.48639 0.44851 0.0
C2123 C 0.35908 0.51839 0.46679 0.0
C2124 C 0.37261 0.5324 0.48973 0.0
C2125 C 0.33443 0.50337 0.47054 0.0
C2126 C 0.3596 0.53416 0.51573 0.0
C2127 C 0.33476 0.51989 0.51947 0.0
H2128 H 0.81229 0.03812 0.43782 0.0
H2129 H 0.7789 0.01155 0.51542 0.0
H2130 H 0.80979 0.97148 0.51496 0.0
H2131 H 0.84977 0.9481 0.49517 0.0
H2132 H 0.88261 0.97442 0.41711 0.0
H2133 H 0.84741 0.00968 0.41423 0.0
C2134 C 0.81181 0.02343 0.45454 0.0
C2135 C 0.79411 0.02801 0.47704 0.0
C2136 C 0.82909 0.00024 0.45375 0.0
C2137 C 0.79281 0.00852 0.49818 0.0
C2138 C 0.81032 0.98563 0.49783 0.0
C2139 C 0.8487 0.96097 0.47711 0.0
C2140 C 0.86898 0.95905 0.45663 0.0
C2141 C 0.82897 0.98174 0.47604 0.0
C2142 C 0.86722 0.97549 0.43314 0.0
C2143 C 0.84738 0.996 0.43172 0.0
H2144 H 0.67551 0.08185 0.26616 0.0
H2145 H 0.7036 0.0891 0.35156 0.0
H2146 H 0.72626 0.13474 0.34333 0.0
H2147 H 0.73552 0.17404 0.31328 0.0
H2148 H 0.70946 0.16758 0.22751 0.0
H2149 H 0.68865 0.11996 0.23442 0.0
C2150 C 0.68679 0.0933 0.28289 0.0
C2151 C 0.68754 0.08213 0.30955 0.0
C2152 C 0.69994 0.1197 0.27803 0.0
C2153 C 0.70255 0.09711 0.33088 0.0
C2154 C 0.71547 0.12333 0.32625 0.0
C2155 C 0.72531 0.16218 0.29605 0.0
C2156 C 0.7235 0.17436 0.27008 0.0
C2157 C 0.71382 0.13503 0.30014 0.0
C2158 C 0.71089 0.15858 0.24773 0.0
C2159 C 0.69898 0.13147 0.25173 0.0
H2160 H 0.65424 0.92215 0.95248 0.0
H2161 H 0.64422 0.85871 0.01395 0.0
H2162 H 0.59598 0.86764 0.01682 0.0
H2163 H 0.55922 0.90011 0.00906 0.0
H2164 H 0.56897 0.96527 0.94971 0.0
H2165 H 0.61456 0.94882 0.93828 0.0
C2166 C 0.64133 0.90974 0.96588 0.0
C2167 C 0.65283 0.89036 0.9835 0.0
C2168 C 0.61363 0.91554 0.968 0.0
C2169 C 0.63589 0.87422 0.00063 0.0
C2170 C 0.6083 0.87931 0.00232 0.0
C2171 C 0.57106 0.90991 0.99289 0.0
C2172 C 0.56115 0.93368 0.98016 0.0
C2173 C 0.59731 0.90092 0.9872 0.0
C2174 C 0.57639 0.94667 0.95946 0.0
C2175 C 0.60248 0.93747 0.9532 0.0
H2176 H 0.36248 0.47134 0.20826 0.0
H2177 H 0.38586 0.45061 0.29121 0.0
H2178 H 0.36611 0.40236 0.28315 0.0
H2179 H 0.34119 0.36696 0.25366 0.0
H2180 H 0.31531 0.38697 0.17132 0.0
H2181 H 0.33696 0.43496 0.17816 0.0
C2182 C 0.3635 0.45613 0.22446 0.0
C2183 C 0.37577 0.46454 0.25032 0.0
C2184 C 0.35147 0.42854 0.2199 0.0
C2185 C 0.37656 0.44474 0.2712 0.0
C2186 C 0.36523 0.41717 0.26661 0.0
C2187 C 0.3403 0.38163 0.23699 0.0
C2188 C 0.3267 0.37322 0.21188 0.0
C2189 C 0.35244 0.40899 0.2412 0.0
C2190 C 0.32558 0.39284 0.19083 0.0
C2191 C 0.33802 0.42023 0.19474 0.0
H2192 H 0.22247 0.59957 0.08812 0.0
H2193 H 0.20934 0.66032 0.02526 0.0
H2194 H 0.16153 0.64522 0.02247 0.0
H2195 H 0.12528 0.61126 0.03385 0.0
H2196 H 0.13889 0.54823 0.09441 0.0
H2197 H 0.18488 0.56815 0.10243 0.0
C2198 C 0.20911 0.60983 0.07405 0.0
C2199 C 0.21953 0.63078 0.05661 0.0
C2200 C 0.18188 0.60049 0.07201 0.0
C2201 C 0.20188 0.64398 0.0387 0.0
C2202 C 0.17458 0.6353 0.03705 0.0
C2203 C 0.13814 0.60195 0.04904 0.0
C2204 C 0.12879 0.57793 0.06318 0.0
C2205 C 0.16463 0.61298 0.05297 0.0
C2206 C 0.14563 0.56655 0.08309 0.0
C2207 C 0.17195 0.57787 0.0876 0.0
H2208 H 0.69743 0.92919 0.33885 0.0
H2209 H 0.66828 0.94203 0.25577 0.0
H2210 H 0.6821 0.89437 0.24032 0.0
H2211 H 0.69779 0.84726 0.25137 0.0
H2212 H 0.72767 0.83386 0.33383 0.0
H2213 H 0.71839 0.88356 0.34845 0.0
C2214 C 0.69454 0.92178 0.31725 0.0
C2215 C 0.68135 0.93908 0.2987 0.0
C2216 C 0.70234 0.8941 0.30842 0.0
C2217 C 0.67803 0.92914 0.27069 0.0
C2218 C 0.68585 0.90179 0.26177 0.0
C2219 C 0.70246 0.8553 0.27248 0.0
C2220 C 0.71295 0.83687 0.29162 0.0
C2221 C 0.69719 0.88379 0.28066 0.0
C2222 C 0.71945 0.84766 0.31875 0.0
C2223 C 0.71408 0.87603 0.32713 0.0
H2224 H 0.88586 0.09792 0.79449 0.0
H2225 H 0.86041 0.05587 0.71622 0.0
H2226 H 0.82714 0.09303 0.71026 0.0
H2227 H 0.8057 0.13761 0.72761 0.0
H2228 H 0.83386 0.18034 0.80458 0.0
H2229 H 0.86552 0.14214 0.81117 0.0
C2230 C 0.87298 0.09674 0.77613 0.0
C2231 C 0.87536 0.07411 0.7559 0.0
C2232 C 0.85428 0.11805 0.77286 0.0
C2233 C 0.85893 0.07318 0.732 0.0
C2234 C 0.83985 0.09427 0.72871 0.0
C2235 C 0.81853 0.13821 0.746 0.0
C2236 C 0.81735 0.16135 0.76586 0.0
C2237 C 0.8373 0.11673 0.74911 0.0
C2238 C 0.83442 0.16252 0.78923 0.0
C2239 C 0.85254 0.14082 0.79291 0.0
loop_
_geom_bond_atom_site_label_1
_geom_bond_atom_site_label_2
_geom_bond_distance
_geom_bond_site_symmetry_2
_ccdc_geom_bond_type
Mg0 O1 2.028 . S
Mg0 O7 1.986 . S
Mg0 O9 2.114 1_455 S
Mg0 O10 2.251 1_455 S
Mg0 O13 2.010 . S
O1 Mg0 2.028 . S
O1 C4 1.250 . S
O2 Mg3 2.028 . S
O2 C4 1.248 1_655 S
Mg3 O2 2.028 . S
Mg3 O8 2.032 . S
Mg3 O10 2.079 . S
C4 O1 1.250 . S
C4 O2 1.248 1_455 S
C5 O6 1.264 . S
C5 O13 1.249 . S
O6 C5 1.264 . S
O7 Mg0 1.986 . S
O7 C11 1.246 . S
O8 Mg3 2.032 . S
O8 C11 1.259 1_655 S
O9 Mg0 2.114 1_655 S
O9 C12 1.252 . S
O10 Mg0 2.251 1_655 S
O10 Mg3 2.079 . S
O10 C12 1.273 . S
C11 O7 1.246 . S
C11 O8 1.259 1_455 S
C12 O9 1.252 . S
C12 O10 1.273 . S
O13 Mg0 2.010 . S
O13 C5 1.249 . S
Mg14 O15 2.028 . S
Mg14 O21 1.986 . S
Mg14 O23 2.114 1_455 S
Mg14 O24 2.251 1_455 S
Mg14 O27 2.010 . S
O15 Mg14 2.028 . S
O15 C18 1.250 . S
O16 Mg17 2.028 . S
O16 C18 1.248 1_655 S
Mg17 O16 2.028 . S
Mg17 O22 2.032 . S
Mg17 O24 2.079 . S
C18 O15 1.250 . S
C18 O16 1.248 1_455 S
C19 O20 1.264 . S
C19 O27 1.249 . S
O20 C19 1.264 . S
O21 Mg14 1.986 . S
O21 C25 1.246 . S
O22 Mg17 2.032 . S
O22 C25 1.259 1_655 S
O23 Mg14 2.114 1_655 S
O23 C26 1.252 . S
O24 Mg14 2.251 1_655 S
O24 Mg17 2.079 . S
O24 C26 1.273 . S
C25 O21 1.246 . S
C25 O22 1.259 1_455 S
C26 O23 1.252 . S
C26 O24 1.273 . S
O27 Mg14 2.010 . S
O27 C19 1.249 . S
Mg28 O29 2.028 . S
Mg28 O35 1.986 . S
Mg28 O37 2.114 . S
Mg28 O38 2.251 . S
Mg28 O41 2.010 . S
O29 Mg28 2.028 . S
O29 C32 1.250 . S
O30 Mg31 2.028 . S
O30 C32 1.248 . S
Mg31 O30 2.028 . S
Mg31 O36 2.032 . S
Mg31 O38 2.079 . S
C32 O29 1.250 . S
C32 O30 1.248 . S
C33 O34 1.264 . S
C33 O41 1.249 . S
O34 C33 1.264 . S
O35 Mg28 1.986 . S
O35 C39 1.246 . S
O36 Mg31 2.032 . S
O36 C39 1.259 . S
O37 Mg28 2.114 . S
O37 C40 1.252 . S
O38 Mg28 2.251 . S
O38 Mg31 2.079 . S
O38 C40 1.273 . S
C39 O35 1.246 . S
C39 O36 1.259 . S
C40 O37 1.252 . S
C40 O38 1.273 . S
O41 Mg28 2.010 . S
O41 C33 1.249 . S
Mg42 O43 2.028 . S
Mg42 O49 1.986 . S
Mg42 O51 2.114 . S
Mg42 O52 2.251 . S
Mg42 O55 2.010 . S
O43 Mg42 2.028 . S
O43 C46 1.250 . S
O44 Mg45 2.028 . S
O44 C46 1.248 . S
Mg45 O44 2.028 . S
Mg45 O50 2.032 . S
Mg45 O52 2.079 . S
C46 O43 1.250 . S
C46 O44 1.248 . S
C47 O48 1.264 . S
C47 O55 1.249 . S
O48 C47 1.264 . S
O49 Mg42 1.986 . S
O49 C53 1.246 . S
O50 Mg45 2.032 . S
O50 C53 1.259 . S
O51 Mg42 2.114 . S
O51 C54 1.252 . S
O52 Mg42 2.251 . S
O52 Mg45 2.079 . S
O52 C54 1.273 . S
C53 O49 1.246 . S
C53 O50 1.259 . S
C54 O51 1.252 . S
C54 O52 1.273 . S
O55 Mg42 2.010 . S
O55 C47 1.249 . S
Mg56 O57 2.028 . S
Mg56 O63 1.986 1_545 S
Mg56 O65 2.114 . S
Mg56 O66 2.251 . S
Mg56 O69 2.010 . S
O57 Mg56 2.028 . S
O57 C60 1.250 . S
O58 Mg59 2.028 . S
O58 C60 1.248 . S
Mg59 O58 2.028 . S
Mg59 O64 2.032 1_545 S
Mg59 O66 2.079 . S
C60 O57 1.250 . S
C60 O58 1.248 . S
C61 O62 1.264 1_545 S
C61 O69 1.249 . S
O62 C61 1.264 1_565 S
O63 Mg56 1.986 1_565 S
O63 C67 1.246 . S
O64 Mg59 2.032 1_565 S
O64 C67 1.259 . S
O65 Mg56 2.114 . S
O65 C68 1.252 . S
O66 Mg56 2.251 . S
O66 Mg59 2.079 . S
O66 C68 1.273 . S
C67 O63 1.246 . S
C67 O64 1.259 . S
C68 O65 1.252 . S
C68 O66 1.273 . S
O69 Mg56 2.010 . S
O69 C61 1.249 . S
Mg70 O71 2.028 . S
Mg70 O77 1.986 . S
Mg70 O79 2.114 . S
Mg70 O80 2.251 . S
Mg70 O83 2.010 . S
O71 Mg70 2.028 . S
O71 C74 1.250 . S
O72 Mg73 2.028 . S
O72 C74 1.248 . S
Mg73 O72 2.028 . S
Mg73 O78 2.032 . S
Mg73 O80 2.079 . S
C74 O71 1.250 . S
C74 O72 1.248 . S
C75 O76 1.264 . S
C75 O83 1.249 . S
O76 C75 1.264 . S
O77 Mg70 1.986 . S
O77 C81 1.246 . S
O78 Mg73 2.032 . S
O78 C81 1.259 . S
O79 Mg70 2.114 . S
O79 C82 1.252 . S
O80 Mg70 2.251 . S
O80 Mg73 2.079 . S
O80 C82 1.273 . S
C81 O77 1.246 . S
C81 O78 1.259 . S
C82 O79 1.252 . S
C82 O80 1.273 . S
O83 Mg70 2.010 . S
O83 C75 1.249 . S
Mg84 O85 2.028 1_545 S
Mg84 O91 1.986 . S
Mg84 O93 2.114 1_545 S
Mg84 O94 2.251 . S
Mg84 O97 2.010 . S
O85 Mg84 2.028 1_565 S
O85 C88 1.250 . S
O86 Mg87 2.028 1_565 S
O86 C88 1.248 . S
Mg87 O86 2.028 1_545 S
Mg87 O92 2.032 . S
Mg87 O94 2.079 . S
C88 O85 1.250 . S
C88 O86 1.248 . S
C89 O90 1.264 . S
C89 O97 1.249 . S
O90 C89 1.264 . S
O91 Mg84 1.986 . S
O91 C95 1.246 . S
O92 Mg87 2.032 . S
O92 C95 1.259 . S
O93 Mg84 2.114 1_565 S
O93 C96 1.252 . S
O94 Mg84 2.251 . S
O94 Mg87 2.079 . S
O94 C96 1.273 1_545 S
C95 O91 1.246 . S
C95 O92 1.259 . S
C96 O93 1.252 . S
C96 O94 1.273 1_565 S
O97 Mg84 2.010 . S
O97 C89 1.249 . S
Mg98 O99 2.063 . S
Mg98 O105 1.958 1_554 S
Mg98 O107 2.134 . S
Mg98 O108 2.254 . S
Mg98 O111 2.010 1_554 S
O99 Mg98 2.063 . S
O99 C102 1.250 . S
O100 Mg101 2.028 . S
O100 C102 1.248 . S
Mg101 O100 2.028 . S
Mg101 O106 2.032 1_554 S
Mg101 O108 2.079 . S
C102 O99 1.250 . S
C102 O100 1.248 . S
C103 O104 1.264 1_554 S
C103 O111 1.241 1_554 S
O104 C103 1.264 1_556 S
O105 Mg98 1.958 1_556 S
O105 C109 1.246 . S
O106 Mg101 2.032 1_556 S
O106 C109 1.259 . S
O107 Mg98 2.134 . S
O107 C110 1.252 . S
O108 Mg98 2.254 . S
O108 Mg101 2.079 . S
O108 C110 1.273 . S
C109 O105 1.246 . S
C109 O106 1.259 . S
C110 O107 1.252 . S
C110 O108 1.273 . S
O111 Mg98 2.010 1_556 S
O111 C103 1.241 1_556 S
Mg112 O113 2.028 1_554 S
Mg112 O119 1.986 . S
Mg112 O121 2.114 . S
Mg112 O122 2.251 . S
Mg112 O125 2.010 . S
O113 Mg112 2.028 1_556 S
O113 C116 1.250 . S
O114 Mg115 2.028 1_556 S
O114 C116 1.248 . S
Mg115 O114 2.028 1_554 S
Mg115 O120 2.032 . S
Mg115 O122 2.079 . S
C116 O113 1.250 . S
C116 O114 1.248 . S
C117 O118 1.264 . S
C117 O125 1.249 . S
O118 C117 1.264 . S
O119 Mg112 1.986 . S
O119 C123 1.246 . S
O120 Mg115 2.032 . S
O120 C123 1.259 . S
O121 Mg112 2.114 . S
O121 C124 1.252 . S
O122 Mg112 2.251 . S
O122 Mg115 2.079 . S
O122 C124 1.273 . S
C123 O119 1.246 . S
C123 O120 1.259 . S
C124 O121 1.252 . S
C124 O122 1.273 . S
O125 Mg112 2.010 . S
O125 C117 1.249 . S
Mg126 O127 2.028 . S
Mg126 O133 1.986 . S
Mg126 O135 2.114 . S
Mg126 O136 2.251 . S
Mg126 O139 2.010 . S
O127 Mg126 2.028 . S
O127 C130 1.250 . S
O128 Mg129 2.028 . S
O128 C130 1.248 . S
Mg129 O128 2.028 . S
Mg129 O134 2.032 . S
Mg129 O136 2.079 . S
C130 O127 1.250 . S
C130 O128 1.248 . S
C131 O132 1.264 . S
C131 O139 1.249 . S
O132 C131 1.264 . S
O133 Mg126 1.986 . S
O133 C137 1.246 . S
O134 Mg129 2.032 . S
O134 C137 1.259 . S
O135 Mg126 2.114 . S
O135 C138 1.252 . S
O136 Mg126 2.251 . S
O136 Mg129 2.079 . S
O136 C138 1.273 . S
C137 O133 1.246 . S
C137 O134 1.259 . S
C138 O135 1.252 . S
C138 O136 1.273 . S
O139 Mg126 2.010 . S
O139 C131 1.249 . S
Mg140 O141 2.028 . S
Mg140 O147 1.986 . S
Mg140 O149 2.114 . S
Mg140 O150 2.251 . S
Mg140 O153 2.010 . S
O141 Mg140 2.028 . S
O141 C144 1.250 . S
O142 Mg143 2.028 . S
O142 C144 1.248 . S
Mg143 O142 2.028 . S
Mg143 O148 2.032 . S
Mg143 O150 2.079 . S
C144 O141 1.250 . S
C144 O142 1.248 . S
C145 O146 1.264 . S
C145 O153 1.249 . S
O146 C145 1.264 . S
O147 Mg140 1.986 . S
O147 C151 1.246 . S
O148 Mg143 2.032 . S
O148 C151 1.259 . S
O149 Mg140 2.114 . S
O149 C152 1.252 . S
O150 Mg140 2.251 . S
O150 Mg143 2.079 . S
O150 C152 1.273 . S
C151 O147 1.246 . S
C151 O148 1.259 . S
C152 O149 1.252 . S
C152 O150 1.273 . S
O153 Mg140 2.010 . S
O153 C145 1.249 . S
Mg154 O155 2.028 . S
Mg154 O161 1.986 . S
Mg154 O163 2.114 . S
Mg154 O164 2.251 . S
Mg154 O167 2.010 . S
O155 Mg154 2.028 . S
O155 C158 1.250 . S
O156 Mg157 2.028 . S
O156 C158 1.248 . S
Mg157 O156 2.028 . S
Mg157 O162 2.032 . S
Mg157 O164 2.079 . S
C158 O155 1.250 . S
C158 O156 1.248 . S
C159 O160 1.264 . S
C159 O167 1.249 . S
O160 C159 1.264 . S
O161 Mg154 1.986 . S
O161 C165 1.246 . S
O162 Mg157 2.032 . S
O162 C165 1.259 . S
O163 Mg154 2.114 . S
O163 C166 1.252 . S
O164 Mg154 2.251 . S
O164 Mg157 2.079 . S
O164 C166 1.273 . S
C165 O161 1.246 . S
C165 O162 1.259 . S
C166 O163 1.252 . S
C166 O164 1.273 . S
O167 Mg154 2.010 . S
O167 C159 1.249 . S
Mg168 O169 2.028 . S
Mg168 O175 1.986 . S
Mg168 O177 2.114 1_455 S
Mg168 O178 2.251 1_455 S
Mg168 O181 2.010 . S
O169 Mg168 2.028 . S
O169 C172 1.250 . S
O170 Mg171 2.028 . S
O170 C172 1.248 1_655 S
Mg171 O170 2.028 . S
Mg171 O176 2.032 . S
Mg171 O178 2.079 . S
C172 O169 1.250 . S
C172 O170 1.248 1_455 S
C173 O174 1.264 . S
C173 O181 1.249 . S
O174 C173 1.264 . S
O175 Mg168 1.986 . S
O175 C179 1.246 . S
O176 Mg171 2.032 . S
O176 C179 1.259 1_655 S
O177 Mg168 2.114 1_655 S
O177 C180 1.252 . S
O178 Mg168 2.251 1_655 S
O178 Mg171 2.079 . S
O178 C180 1.273 . S
C179 O175 1.246 . S
C179 O176 1.259 1_455 S
C180 O177 1.252 . S
C180 O178 1.273 . S
O181 Mg168 2.010 . S
O181 C173 1.249 . S
Mg182 O183 2.028 . S
Mg182 O189 1.986 . S
Mg182 O191 2.114 1_455 S
Mg182 O192 2.251 1_455 S
Mg182 O195 2.010 . S
O183 Mg182 2.028 . S
O183 C186 1.250 . S
O184 Mg185 2.028 . S
O184 C186 1.248 1_655 S
Mg185 O184 2.028 . S
Mg185 O190 2.032 . S
Mg185 O192 2.079 . S
C186 O183 1.250 . S
C186 O184 1.248 1_455 S
C187 O188 1.264 . S
C187 O195 1.249 . S
O188 C187 1.264 . S
O189 Mg182 1.986 . S
O189 C193 1.246 . S
O190 Mg185 2.032 . S
O190 C193 1.259 1_655 S
O191 Mg182 2.114 1_655 S
O191 C194 1.252 . S
O192 Mg182 2.251 1_655 S
O192 Mg185 2.079 . S
O192 C194 1.273 . S
C193 O189 1.246 . S
C193 O190 1.259 1_455 S
C194 O191 1.252 . S
C194 O192 1.273 . S
O195 Mg182 2.010 . S
O195 C187 1.249 . S
Mg196 O197 2.028 . S
Mg196 O203 1.986 . S
Mg196 O205 2.114 . S
Mg196 O206 2.251 . S
Mg196 O209 2.010 . S
O197 Mg196 2.028 . S
O197 C200 1.250 . S
O198 Mg199 2.028 . S
O198 C200 1.248 . S
Mg199 O198 2.028 . S
Mg199 O204 2.032 . S
Mg199 O206 2.079 . S
C200 O197 1.250 . S
C200 O198 1.248 . S
C201 O202 1.264 . S
C201 O209 1.249 . S
O202 C201 1.264 . S
O203 Mg196 1.986 . S
O203 C207 1.246 . S
O204 Mg199 2.032 . S
O204 C207 1.259 . S
O205 Mg196 2.114 . S
O205 C208 1.252 . S
O206 Mg196 2.251 . S
O206 Mg199 2.079 . S
O206 C208 1.273 . S
C207 O203 1.246 . S
C207 O204 1.259 . S
C208 O205 1.252 . S
C208 O206 1.273 . S
O209 Mg196 2.010 . S
O209 C201 1.249 . S
Mg210 O211 2.028 . S
Mg210 O217 1.986 . S
Mg210 O219 2.114 . S
Mg210 O220 2.251 . S
Mg210 O223 2.010 . S
O211 Mg210 2.028 . S
O211 C214 1.250 . S
O212 Mg213 2.028 . S
O212 C214 1.248 . S
Mg213 O212 2.028 . S
Mg213 O218 2.032 . S
Mg213 O220 2.079 . S
C214 O211 1.250 . S
C214 O212 1.248 . S
C215 O216 1.264 . S
C215 O223 1.249 . S
O216 C215 1.264 . S
O217 Mg210 1.986 . S
O217 C221 1.246 . S
O218 Mg213 2.032 . S
O218 C221 1.259 . S
O219 Mg210 2.114 . S
O219 C222 1.252 . S
O220 Mg210 2.251 . S
O220 Mg213 2.079 . S
O220 C222 1.273 . S
C221 O217 1.246 . S
C221 O218 1.259 . S
C222 O219 1.252 . S
C222 O220 1.273 . S
O223 Mg210 2.010 . S
O223 C215 1.249 . S
Mg224 O225 2.028 1_545 S
Mg224 O231 1.986 . S
Mg224 O233 2.114 . S
Mg224 O234 2.251 . S
Mg224 O237 2.010 . S
O225 Mg224 2.028 1_565 S
O225 C228 1.250 . S
O226 Mg227 2.028 1_565 S
O226 C228 1.248 . S
Mg227 O226 2.028 1_545 S
Mg227 O232 2.032 . S
Mg227 O234 2.079 . S
C228 O225 1.250 . S
C228 O226 1.248 . S
C229 O230 1.264 . S
C229 O237 1.249 . S
O230 C229 1.264 . S
O231 Mg224 1.986 . S
O231 C235 1.246 . S
O232 Mg227 2.032 . S
O232 C235 1.259 . S
O233 Mg224 2.114 . S
O233 C236 1.252 . S
O234 Mg224 2.251 . S
O234 Mg227 2.079 . S
O234 C236 1.273 . S
C235 O231 1.246 . S
C235 O232 1.259 . S
C236 O233 1.252 . S
C236 O234 1.273 . S
O237 Mg224 2.010 . S
O237 C229 1.249 . S
Mg238 O239 2.028 . S
Mg238 O245 1.986 . S
Mg238 O247 2.114 . S
Mg238 O248 2.251 . S
Mg238 O251 2.010 . S
O239 Mg238 2.028 . S
O239 C242 1.250 . S
O240 Mg241 2.028 . S
O240 C242 1.248 . S
Mg241 O240 2.028 . S
Mg241 O246 2.032 . S
Mg241 O248 2.079 . S
C242 O239 1.250 . S
C242 O240 1.248 . S
C243 O244 1.264 . S
C243 O251 1.249 . S
O244 C243 1.264 . S
O245 Mg238 1.986 . S
O245 C249 1.246 . S
O246 Mg241 2.032 . S
O246 C249 1.259 . S
O247 Mg238 2.114 . S
O247 C250 1.252 . S
O248 Mg238 2.251 . S
O248 Mg241 2.079 . S
O248 C250 1.273 . S
C249 O245 1.246 . S
C249 O246 1.259 . S
C250 O247 1.252 . S
C250 O248 1.273 . S
O251 Mg238 2.010 . S
O251 C243 1.249 . S
Mg252 O253 2.028 1_565 S
Mg252 O259 1.986 . S
Mg252 O261 2.114 1_565 S
Mg252 O262 2.251 . S
Mg252 O265 2.010 . S
O253 Mg252 2.028 1_545 S
O253 C256 1.250 . S
O254 Mg255 2.028 . S
O254 C256 1.248 . S
Mg255 O254 2.028 . S
Mg255 O260 2.032 1_545 S
Mg255 O262 2.079 1_545 S
C256 O253 1.250 . S
C256 O254 1.248 . S
C257 O258 1.264 . S
C257 O265 1.249 . S
O258 C257 1.264 . S
O259 Mg252 1.986 . S
O259 C263 1.246 . S
O260 Mg255 2.032 1_565 S
O260 C263 1.259 . S
O261 Mg252 2.114 1_545 S
O261 C264 1.252 . S
O262 Mg252 2.251 . S
O262 Mg255 2.079 1_565 S
O262 C264 1.273 1_565 S
C263 O259 1.246 . S
C263 O260 1.259 . S
C264 O261 1.252 . S
C264 O262 1.273 1_545 S
O265 Mg252 2.010 . S
O265 C257 1.249 . S
Mg266 O267 2.028 1_554 S
Mg266 O273 1.986 . S
Mg266 O275 2.114 1_554 S
Mg266 O276 2.251 . S
Mg266 O279 2.010 . S
O267 Mg266 2.028 1_556 S
O267 C270 1.250 . S
O268 Mg269 2.028 1_556 S
O268 C270 1.248 . S
Mg269 O268 2.028 1_554 S
Mg269 O274 2.032 . S
Mg269 O276 2.079 . S
C270 O267 1.250 . S
C270 O268 1.248 . S
C271 O272 1.264 . S
C271 O279 1.249 . S
O272 C271 1.264 . S
O273 Mg266 1.986 . S
O273 C277 1.246 . S
O274 Mg269 2.032 . S
O274 C277 1.259 . S
O275 Mg266 2.114 1_556 S
O275 C278 1.252 1_556 S
O276 Mg266 2.251 . S
O276 Mg269 2.079 . S
O276 C278 1.273 . S
C277 O273 1.246 . S
C277 O274 1.259 . S
C278 O275 1.252 1_554 S
C278 O276 1.273 . S
O279 Mg266 2.010 . S
O279 C271 1.249 . S
Mg280 O281 2.028 1_556 S
Mg280 O287 1.986 . S
Mg280 O289 2.114 1_556 S
Mg280 O290 2.251 . S
Mg280 O293 2.010 . S
O281 Mg280 2.028 1_554 S
O281 C284 1.250 . S
O282 Mg283 2.060 . S
O282 C284 1.248 . S
Mg283 O282 2.060 . S
Mg283 O288 2.003 1_554 S
Mg283 O290 2.076 1_554 S
C284 O281 1.250 . S
C284 O282 1.248 . S
C285 O286 1.264 . S
C285 O293 1.249 . S
O286 C285 1.264 . S
O287 Mg280 1.986 . S
O287 C291 1.246 . S
O288 Mg283 2.003 1_556 S
O288 C291 1.259 . S
O289 Mg280 2.114 1_554 S
O289 C292 1.252 . S
O290 Mg280 2.251 . S
O290 Mg283 2.076 1_556 S
O290 C292 1.273 1_556 S
C291 O287 1.246 . S
C291 O288 1.259 . S
C292 O289 1.252 . S
C292 O290 1.273 1_554 S
O293 Mg280 2.010 . S
O293 C285 1.249 . S
Mg294 O295 2.028 . S
Mg294 O301 1.986 . S
Mg294 O303 2.114 . S
Mg294 O304 2.251 . S
Mg294 O307 2.010 . S
O295 Mg294 2.028 . S
O295 C298 1.250 . S
O296 Mg297 2.028 . S
O296 C298 1.248 . S
Mg297 O296 2.028 . S
Mg297 O302 2.032 . S
Mg297 O304 2.079 . S
C298 O295 1.250 . S
C298 O296 1.248 . S
C299 O300 1.264 . S
C299 O307 1.249 . S
O300 C299 1.264 . S
O301 Mg294 1.986 . S
O301 C305 1.246 . S
O302 Mg297 2.032 . S
O302 C305 1.259 . S
O303 Mg294 2.114 . S
O303 C306 1.252 . S
O304 Mg294 2.251 . S
O304 Mg297 2.079 . S
O304 C306 1.273 . S
C305 O301 1.246 . S
C305 O302 1.259 . S
C306 O303 1.252 . S
C306 O304 1.273 . S
O307 Mg294 2.010 . S
O307 C299 1.249 . S
Mg308 O309 2.028 . S
Mg308 O315 1.986 . S
Mg308 O317 2.114 . S
Mg308 O318 2.251 . S
Mg308 O321 2.010 . S
O309 Mg308 2.028 . S
O309 C312 1.250 . S
O310 Mg311 2.028 . S
O310 C312 1.248 . S
Mg311 O310 2.028 . S
Mg311 O316 2.032 . S
Mg311 O318 2.079 . S
C312 O309 1.250 . S
C312 O310 1.248 . S
C313 O314 1.264 . S
C313 O321 1.249 . S
O314 C313 1.264 . S
O315 Mg308 1.986 . S
O315 C319 1.246 . S
O316 Mg311 2.032 . S
O316 C319 1.259 . S
O317 Mg308 2.114 . S
O317 C320 1.252 . S
O318 Mg308 2.251 . S
O318 Mg311 2.079 . S
O318 C320 1.273 . S
C319 O315 1.246 . S
C319 O316 1.259 . S
C320 O317 1.252 . S
C320 O318 1.273 . S
O321 Mg308 2.010 . S
O321 C313 1.249 . S
Mg322 O323 2.028 . S
Mg322 O329 1.986 . S
Mg322 O331 2.114 . S
Mg322 O332 2.251 . S
Mg322 O335 2.010 . S
O323 Mg322 2.028 . S
O323 C326 1.250 . S
O324 Mg325 2.028 . S
O324 C326 1.248 . S
Mg325 O324 2.028 . S
Mg325 O330 2.032 . S
Mg325 O332 2.079 . S
C326 O323 1.250 . S
C326 O324 1.248 . S
C327 O328 1.264 . S
C327 O335 1.249 . S
O328 C327 1.264 . S
O329 Mg322 1.986 . S
O329 C333 1.246 . S
O330 Mg325 2.032 . S
O330 C333 1.259 . S
O331 Mg322 2.114 . S
O331 C334 1.252 . S
O332 Mg322 2.251 . S
O332 Mg325 2.079 . S
O332 C334 1.273 . S
C333 O329 1.246 . S
C333 O330 1.259 . S
C334 O331 1.252 . S
C334 O332 1.273 . S
O335 Mg322 2.010 . S
O335 C327 1.249 . S
O336 Zn337 1.953 . S
O336 C352 1.225 1_455 S
Zn337 O336 1.953 . S
Zn337 O338 1.949 . S
Zn337 O344 1.919 1_554 S
Zn337 O349 1.924 1_454 S
O338 Zn337 1.949 . S
O338 Zn339 1.923 1_545 S
O338 Zn340 1.950 1_455 S
O338 Zn341 1.945 1_444 S
Zn339 O338 1.923 1_565 S
Zn339 O342 1.933 . S
Zn339 O345 1.941 1_565 S
Zn339 O346 1.965 . S
Zn340 O338 1.950 1_655 S
Zn340 O347 1.938 . S
Zn340 O348 1.906 1_545 S
Zn340 O358 1.953 . S
Zn341 O338 1.945 1_666 S
Zn341 O343 1.932 . S
Zn341 O350 1.977 1_556 S
Zn341 O351 1.910 1_565 S
O342 Zn339 1.933 . S
O342 C353 1.226 1_554 S
O343 Zn341 1.932 . S
O343 C353 1.307 1_655 S
O344 Zn337 1.919 1_556 S
O344 C355 1.253 1_556 S
O345 Zn339 1.941 1_545 S
O345 C355 1.283 . S
O346 Zn339 1.965 . S
O346 C354 1.279 1_565 S
O347 Zn340 1.938 . S
O347 C354 1.264 1_655 S
O348 Zn340 1.906 1_565 S
O348 C356 1.304 . S
O349 Zn337 1.924 1_656 S
O349 C357 1.311 . S
O350 Zn341 1.977 1_554 S
O350 C356 1.272 . S
O351 Zn341 1.910 1_545 S
O351 C357 1.231 . S
C352 O336 1.225 1_655 S
C352 O358 1.298 . S
C353 O342 1.226 1_556 S
C353 O343 1.307 1_455 S
C354 O346 1.279 1_545 S
C354 O347 1.264 1_455 S
C355 O344 1.253 1_554 S
C355 O345 1.283 . S
C356 O348 1.304 . S
C356 O350 1.272 . S
C357 O349 1.311 . S
C357 O351 1.231 . S
O358 Zn340 1.953 . S
O358 C352 1.298 . S
O359 Zn360 1.953 . S
O359 C375 1.225 . S
Zn360 O359 1.953 . S
Zn360 O361 1.949 . S
Zn360 O367 1.919 . S
Zn360 O372 1.924 . S
O361 Zn360 1.949 . S
O361 Zn362 1.923 . S
O361 Zn363 1.950 . S
O361 Zn364 1.945 . S
Zn362 O361 1.923 . S
Zn362 O365 1.933 . S
Zn362 O368 1.941 . S
Zn362 O369 1.965 . S
Zn363 O361 1.950 . S
Zn363 O370 1.938 . S
Zn363 O371 1.906 . S
Zn363 O381 1.953 . S
Zn364 O361 1.945 . S
Zn364 O366 1.932 . S
Zn364 O373 1.977 . S
Zn364 O374 1.910 . S
O365 Zn362 1.933 . S
O365 C376 1.226 . S
O366 Zn364 1.932 . S
O366 C376 1.307 . S
O367 Zn360 1.919 . S
O367 C378 1.253 . S
O368 Zn362 1.941 . S
O368 C378 1.283 . S
O369 Zn362 1.965 . S
O369 C377 1.303 . S
O370 Zn363 1.938 . S
O370 C377 1.247 . S
O371 Zn363 1.906 . S
O371 C379 1.304 . S
O372 Zn360 1.924 . S
O372 C380 1.311 . S
O373 Zn364 1.977 . S
O373 C379 1.272 . S
O374 Zn364 1.910 . S
O374 C380 1.231 . S
C375 O359 1.225 . S
C375 O381 1.298 . S
C376 O365 1.226 . S
C376 O366 1.307 . S
C377 O369 1.303 . S
C377 O370 1.247 . S
C378 O367 1.253 . S
C378 O368 1.283 . S
C379 O371 1.304 . S
C379 O373 1.272 . S
C380 O372 1.311 . S
C380 O374 1.231 . S
O381 Zn363 1.953 . S
O381 C375 1.298 . S
O382 Zn383 1.953 . S
O382 C398 1.225 . S
Zn383 O382 1.953 . S
Zn383 O384 1.949 1_565 S
Zn383 O390 1.919 . S
Zn383 O395 1.924 . S
O384 Zn383 1.949 1_545 S
O384 Zn385 1.923 . S
O384 Zn386 1.950 . S
O384 Zn387 1.945 . S
Zn385 O384 1.923 . S
Zn385 O388 1.933 . S
Zn385 O391 1.941 . S
Zn385 O392 1.965 . S
Zn386 O384 1.950 . S
Zn386 O393 1.938 . S
Zn386 O394 1.906 . S
Zn386 O404 1.953 1_545 S
Zn387 O384 1.945 . S
Zn387 O389 1.932 . S
Zn387 O396 1.977 . S
Zn387 O397 1.910 . S
O388 Zn385 1.933 . S
O388 C399 1.226 . S
O389 Zn387 1.932 . S
O389 C399 1.307 . S
O390 Zn383 1.919 . S
O390 C401 1.253 . S
O391 Zn385 1.941 . S
O391 C401 1.283 1_545 S
O392 Zn385 1.965 . S
O392 C400 1.303 . S
O393 Zn386 1.938 . S
O393 C400 1.247 . S
O394 Zn386 1.906 . S
O394 C402 1.304 . S
O395 Zn383 1.924 . S
O395 C403 1.311 . S
O396 Zn387 1.977 . S
O396 C402 1.272 . S
O397 Zn387 1.910 . S
O397 C403 1.231 1_545 S
C398 O382 1.225 . S
C398 O404 1.298 . S
C399 O388 1.226 . S
C399 O389 1.307 . S
C400 O392 1.303 . S
C400 O393 1.247 . S
C401 O390 1.253 . S
C401 O391 1.283 1_565 S
C402 O394 1.304 . S
C402 O396 1.272 . S
C403 O395 1.311 . S
C403 O397 1.231 1_565 S
O404 Zn386 1.953 1_565 S
O404 C398 1.298 . S
O405 Zn406 1.953 . S
O405 C421 1.225 . S
Zn406 O405 1.953 . S
Zn406 O407 1.949 . S
Zn406 O413 1.919 . S
Zn406 O418 1.924 . S
O407 Zn406 1.949 . S
O407 Zn408 1.923 . S
O407 Zn409 1.950 . S
O407 Zn410 1.945 . S
Zn408 O407 1.923 . S
Zn408 O411 1.933 . S
Zn408 O414 1.941 . S
Zn408 O415 1.965 . S
Zn409 O407 1.950 . S
Zn409 O416 1.938 . S
Zn409 O417 1.906 . S
Zn409 O427 1.953 . S
Zn410 O407 1.945 . S
Zn410 O412 1.932 . S
Zn410 O419 1.977 . S
Zn410 O420 1.910 . S
O411 Zn408 1.933 . S
O411 C422 1.226 . S
O412 Zn410 1.932 . S
O412 C422 1.307 . S
O413 Zn406 1.919 . S
O413 C424 1.253 . S
O414 Zn408 1.941 . S
O414 C424 1.283 . S
O415 Zn408 1.965 . S
O415 C423 1.303 . S
O416 Zn409 1.938 . S
O416 C423 1.247 . S
O417 Zn409 1.906 . S
O417 C425 1.304 . S
O418 Zn406 1.924 . S
O418 C426 1.311 . S
O419 Zn410 1.977 . S
O419 C425 1.272 . S
O420 Zn410 1.910 . S
O420 C426 1.231 . S
C421 O405 1.225 . S
C421 O427 1.298 . S
C422 O411 1.226 . S
C422 O412 1.307 . S
C423 O415 1.303 . S
C423 O416 1.247 . S
C424 O413 1.253 . S
C424 O414 1.283 . S
C425 O417 1.304 . S
C425 O419 1.272 . S
C426 O418 1.311 . S
C426 O420 1.231 . S
O427 Zn409 1.953 . S
O427 C421 1.298 . S
O428 Zn429 1.963 . S
O428 C444 1.225 . S
Zn429 O428 1.963 . S
Zn429 O430 1.956 . S
Zn429 O436 1.911 1_445 S
Zn429 O441 1.915 1_455 S
O430 Zn429 1.956 . S
O430 Zn431 1.923 1_545 S
O430 Zn432 1.950 . S
O430 Zn433 1.945 1_455 S
Zn431 O430 1.923 1_565 S
Zn431 O434 1.933 . S
Zn431 O437 1.941 . S
Zn431 O438 1.965 . S
Zn432 O430 1.950 . S
Zn432 O439 1.938 . S
Zn432 O440 1.906 . S
Zn432 O450 1.953 . S
Zn433 O430 1.945 1_655 S
Zn433 O435 1.932 . S
Zn433 O442 1.977 1_655 S
Zn433 O443 1.910 . S
O434 Zn431 1.933 . S
O434 C445 1.226 1_455 S
O435 Zn433 1.932 . S
O435 C445 1.307 1_545 S
O436 Zn429 1.911 1_665 S
O436 C447 1.242 1_655 S
O437 Zn431 1.941 . S
O437 C447 1.312 . S
O438 Zn431 1.965 . S
O438 C446 1.303 . S
O439 Zn432 1.938 . S
O439 C446 1.247 1_545 S
O440 Zn432 1.906 . S
O440 C448 1.304 . S
O441 Zn429 1.915 1_655 S
O441 C449 1.311 . S
O442 Zn433 1.977 1_455 S
O442 C448 1.272 . S
O443 Zn433 1.910 . S
O443 C449 1.231 . S
C444 O428 1.225 . S
C444 O450 1.298 . S
C445 O434 1.226 1_655 S
C445 O435 1.307 1_565 S
C446 O438 1.303 . S
C446 O439 1.247 1_565 S
C447 O436 1.242 1_455 S
C447 O437 1.312 . S
C448 O440 1.304 . S
C448 O442 1.272 . S
C449 O441 1.311 . S
C449 O443 1.231 . S
O450 Zn432 1.953 . S
O450 C444 1.298 . S
O451 Zn452 1.953 . S
O451 C467 1.225 . S
Zn452 O451 1.953 . S
Zn452 O453 1.949 . S
Zn452 O459 1.919 . S
Zn452 O464 1.924 . S
O453 Zn452 1.949 . S
O453 Zn454 1.923 . S
O453 Zn455 1.950 . S
O453 Zn456 1.945 . S
Zn454 O453 1.923 . S
Zn454 O457 1.933 . S
Zn454 O460 1.941 . S
Zn454 O461 1.965 . S
Zn455 O453 1.950 . S
Zn455 O462 1.938 . S
Zn455 O463 1.906 . S
Zn455 O473 1.953 . S
Zn456 O453 1.945 . S
Zn456 O458 1.932 . S
Zn456 O465 1.977 . S
Zn456 O466 1.910 . S
O457 Zn454 1.933 . S
O457 C468 1.226 . S
O458 Zn456 1.932 . S
O458 C468 1.307 . S
O459 Zn452 1.919 . S
O459 C470 1.253 . S
O460 Zn454 1.941 . S
O460 C470 1.283 . S
O461 Zn454 1.965 . S
O461 C469 1.303 . S
O462 Zn455 1.938 . S
O462 C469 1.247 . S
O463 Zn455 1.906 . S
O463 C471 1.304 . S
O464 Zn452 1.924 . S
O464 C472 1.311 . S
O465 Zn456 1.977 . S
O465 C471 1.272 . S
O466 Zn456 1.910 . S
O466 C472 1.231 . S
C467 O451 1.225 . S
C467 O473 1.298 . S
C468 O457 1.226 . S
C468 O458 1.307 . S
C469 O461 1.303 . S
C469 O462 1.247 . S
C470 O459 1.253 . S
C470 O460 1.283 . S
C471 O463 1.304 . S
C471 O465 1.272 . S
C472 O464 1.311 . S
C472 O466 1.231 . S
O473 Zn455 1.953 . S
O473 C467 1.298 . S
O474 Zn475 1.953 . S
O474 C490 1.225 . S
Zn475 O474 1.953 . S
Zn475 O476 1.949 . S
Zn475 O482 1.900 1_545 S
Zn475 O487 1.924 . S
O476 Zn475 1.949 . S
O476 Zn477 1.914 1_544 S
O476 Zn478 1.950 . S
O476 Zn479 1.945 1_554 S
Zn477 O476 1.914 1_566 S
Zn477 O480 1.955 . S
Zn477 O483 1.944 . S
Zn477 O484 1.951 1_556 S
Zn478 O476 1.950 . S
Zn478 O485 1.938 1_545 S
Zn478 O486 1.906 . S
Zn478 O496 1.953 . S
Zn479 O476 1.945 1_556 S
Zn479 O481 1.932 . S
Zn479 O488 1.977 1_556 S
Zn479 O489 1.910 . S
O480 Zn477 1.955 . S
O480 C491 1.226 . S
O481 Zn479 1.932 . S
O481 C491 1.307 1_545 S
O482 Zn475 1.900 1_565 S
O482 C493 1.281 1_554 S
O483 Zn477 1.944 . S
O483 C493 1.283 . S
O484 Zn477 1.951 1_554 S
O484 C492 1.303 . S
O485 Zn478 1.938 1_565 S
O485 C492 1.247 . S
O486 Zn478 1.906 . S
O486 C494 1.304 . S
O487 Zn475 1.924 . S
O487 C495 1.311 . S
O488 Zn479 1.977 1_554 S
O488 C494 1.272 . S
O489 Zn479 1.910 . S
O489 C495 1.231 1_556 S
C490 O474 1.225 . S
C490 O496 1.298 . S
C491 O480 1.226 . S
C491 O481 1.307 1_565 S
C492 O484 1.303 . S
C492 O485 1.247 . S
C493 O482 1.281 1_556 S
C493 O483 1.283 . S
C494 O486 1.304 . S
C494 O488 1.272 . S
C495 O487 1.311 . S
C495 O489 1.231 1_554 S
O496 Zn478 1.953 . S
O496 C490 1.298 . S
O497 Zn498 1.953 . S
O497 C513 1.225 . S
Zn498 O497 1.953 . S
Zn498 O499 1.949 . S
Zn498 O505 1.919 . S
Zn498 O510 1.924 . S
O499 Zn498 1.949 . S
O499 Zn500 1.923 . S
O499 Zn501 1.950 . S
O499 Zn502 1.945 . S
Zn500 O499 1.923 . S
Zn500 O503 1.933 . S
Zn500 O506 1.941 . S
Zn500 O507 1.965 . S
Zn501 O499 1.950 . S
Zn501 O508 1.938 . S
Zn501 O509 1.906 . S
Zn501 O519 1.953 . S
Zn502 O499 1.945 . S
Zn502 O504 1.932 . S
Zn502 O511 1.977 . S
Zn502 O512 1.910 . S
O503 Zn500 1.933 . S
O503 C514 1.226 . S
O504 Zn502 1.932 . S
O504 C514 1.307 . S
O505 Zn498 1.919 . S
O505 C516 1.253 . S
O506 Zn500 1.941 . S
O506 C516 1.283 . S
O507 Zn500 1.965 . S
O507 C515 1.303 . S
O508 Zn501 1.938 . S
O508 C515 1.247 . S
O509 Zn501 1.906 . S
O509 C517 1.304 . S
O510 Zn498 1.924 . S
O510 C518 1.311 . S
O511 Zn502 1.977 . S
O511 C517 1.272 . S
O512 Zn502 1.910 . S
O512 C518 1.231 . S
C513 O497 1.225 . S
C513 O519 1.298 . S
C514 O503 1.226 . S
C514 O504 1.307 . S
C515 O507 1.303 . S
C515 O508 1.247 . S
C516 O505 1.253 . S
C516 O506 1.283 . S
C517 O509 1.304 . S
C517 O511 1.272 . S
C518 O510 1.311 . S
C518 O512 1.231 . S
O519 Zn501 1.953 . S
O519 C513 1.298 . S
O520 Zn521 1.953 . S
O520 C536 1.225 . S
Zn521 O520 1.953 . S
Zn521 O522 1.949 1_556 S
Zn521 O528 1.919 . S
Zn521 O533 1.924 . S
O522 Zn521 1.949 1_554 S
O522 Zn523 1.923 . S
O522 Zn524 1.950 . S
O522 Zn525 1.945 . S
Zn523 O522 1.923 . S
Zn523 O526 1.933 . S
Zn523 O529 1.941 . S
Zn523 O530 1.965 . S
Zn524 O522 1.950 . S
Zn524 O531 1.938 . S
Zn524 O532 1.906 . S
Zn524 O542 1.953 1_554 S
Zn525 O522 1.945 . S
Zn525 O527 1.932 . S
Zn525 O534 1.977 . S
Zn525 O535 1.910 . S
O526 Zn523 1.933 . S
O526 C537 1.226 . S
O527 Zn525 1.932 . S
O527 C537 1.307 . S
O528 Zn521 1.919 . S
O528 C539 1.253 . S
O529 Zn523 1.941 . S
O529 C539 1.283 1_554 S
O530 Zn523 1.965 . S
O530 C538 1.303 . S
O531 Zn524 1.938 . S
O531 C538 1.247 . S
O532 Zn524 1.906 . S
O532 C540 1.304 . S
O533 Zn521 1.924 . S
O533 C541 1.311 . S
O534 Zn525 1.977 . S
O534 C540 1.272 . S
O535 Zn525 1.910 . S
O535 C541 1.231 1_554 S
C536 O520 1.225 . S
C536 O542 1.298 . S
C537 O526 1.226 . S
C537 O527 1.307 . S
C538 O530 1.303 . S
C538 O531 1.247 . S
C539 O528 1.253 . S
C539 O529 1.283 1_556 S
C540 O532 1.304 . S
C540 O534 1.272 . S
C541 O533 1.311 . S
C541 O535 1.231 1_556 S
O542 Zn524 1.953 1_556 S
O542 C536 1.298 . S
O543 Zn544 1.953 . S
O543 C559 1.225 . S
Zn544 O543 1.953 . S
Zn544 O545 1.949 . S
Zn544 O551 1.919 . S
Zn544 O556 1.924 . S
O545 Zn544 1.949 . S
O545 Zn546 1.923 . S
O545 Zn547 1.950 . S
O545 Zn548 1.945 . S
Zn546 O545 1.923 . S
Zn546 O549 1.933 . S
Zn546 O552 1.941 . S
Zn546 O553 1.965 . S
Zn547 O545 1.950 . S
Zn547 O554 1.938 . S
Zn547 O555 1.906 . S
Zn547 O565 1.953 . S
Zn548 O545 1.945 . S
Zn548 O550 1.932 . S
Zn548 O557 1.977 . S
Zn548 O558 1.910 . S
O549 Zn546 1.933 . S
O549 C560 1.226 . S
O550 Zn548 1.932 . S
O550 C560 1.307 . S
O551 Zn544 1.919 . S
O551 C562 1.253 . S
O552 Zn546 1.941 . S
O552 C562 1.283 . S
O553 Zn546 1.965 . S
O553 C561 1.303 . S
O554 Zn547 1.938 . S
O554 C561 1.247 . S
O555 Zn547 1.906 . S
O555 C563 1.304 . S
O556 Zn544 1.924 . S
O556 C564 1.311 . S
O557 Zn548 1.977 . S
O557 C563 1.272 . S
O558 Zn548 1.910 . S
O558 C564 1.231 . S
C559 O543 1.225 . S
C559 O565 1.298 . S
C560 O549 1.226 . S
C560 O550 1.307 . S
C561 O553 1.303 . S
C561 O554 1.247 . S
C562 O551 1.253 . S
C562 O552 1.283 . S
C563 O555 1.304 . S
C563 O557 1.272 . S
C564 O556 1.311 . S
C564 O558 1.231 . S
O565 Zn547 1.953 . S
O565 C559 1.298 . S
O566 Zn567 1.953 . S
O566 C582 1.225 . S
Zn567 O566 1.953 . S
Zn567 O568 1.933 1_455 S
Zn567 O574 1.919 . S
Zn567 O579 1.924 . S
O568 Zn567 1.933 1_655 S
O568 Zn569 1.921 1_655 S
O568 Zn570 1.959 . S
O568 Zn571 1.952 . S
Zn569 O568 1.921 1_455 S
Zn569 O572 1.925 1_455 S
Zn569 O575 1.961 . S
Zn569 O576 1.959 1_455 S
Zn570 O568 1.959 . S
Zn570 O577 1.938 . S
Zn570 O578 1.906 . S
Zn570 O588 1.947 1_655 S
Zn571 O568 1.952 . S
Zn571 O573 1.932 . S
Zn571 O580 1.977 . S
Zn571 O581 1.901 1_655 S
O572 Zn569 1.925 1_655 S
O572 C583 1.226 . S
O573 Zn571 1.932 . S
O573 C583 1.307 . S
O574 Zn567 1.919 . S
O574 C585 1.253 . S
O575 Zn569 1.961 . S
O575 C585 1.283 . S
O576 Zn569 1.959 1_655 S
O576 C584 1.303 . S
O577 Zn570 1.938 . S
O577 C584 1.247 . S
O578 Zn570 1.906 . S
O578 C586 1.304 . S
O579 Zn567 1.924 . S
O579 C587 1.311 . S
O580 Zn571 1.977 . S
O580 C586 1.272 . S
O581 Zn571 1.901 1_455 S
O581 C587 1.249 . S
C582 O566 1.225 . S
C582 O588 1.311 . S
C583 O572 1.226 . S
C583 O573 1.307 . S
C584 O576 1.303 . S
C584 O577 1.247 . S
C585 O574 1.253 . S
C585 O575 1.283 . S
C586 O578 1.304 . S
C586 O580 1.272 . S
C587 O579 1.311 . S
C587 O581 1.249 . S
O588 Zn570 1.947 1_455 S
O588 C582 1.311 . S
O589 Zn590 1.953 . S
O589 C605 1.225 . S
Zn590 O589 1.953 . S
Zn590 O591 1.949 . S
Zn590 O597 1.919 . S
Zn590 O602 1.924 . S
O591 Zn590 1.949 . S
O591 Zn592 1.923 . S
O591 Zn593 1.950 . S
O591 Zn594 1.945 . S
Zn592 O591 1.923 . S
Zn592 O595 1.933 . S
Zn592 O598 1.941 . S
Zn592 O599 1.965 . S
Zn593 O591 1.950 . S
Zn593 O600 1.938 . S
Zn593 O601 1.906 . S
Zn593 O611 1.953 . S
Zn594 O591 1.945 . S
Zn594 O596 1.932 . S
Zn594 O603 1.977 . S
Zn594 O604 1.910 . S
O595 Zn592 1.933 . S
O595 C606 1.226 . S
O596 Zn594 1.932 . S
O596 C606 1.307 . S
O597 Zn590 1.919 . S
O597 C608 1.253 . S
O598 Zn592 1.941 . S
O598 C608 1.283 . S
O599 Zn592 1.965 . S
O599 C607 1.303 . S
O600 Zn593 1.938 . S
O600 C607 1.247 . S
O601 Zn593 1.906 . S
O601 C609 1.304 . S
O602 Zn590 1.924 . S
O602 C610 1.311 . S
O603 Zn594 1.977 . S
O603 C609 1.272 . S
O604 Zn594 1.910 . S
O604 C610 1.231 . S
C605 O589 1.225 . S
C605 O611 1.298 . S
C606 O595 1.226 . S
C606 O596 1.307 . S
C607 O599 1.303 . S
C607 O600 1.247 . S
C608 O597 1.253 . S
C608 O598 1.283 . S
C609 O601 1.304 . S
C609 O603 1.272 . S
C610 O602 1.311 . S
C610 O604 1.231 . S
O611 Zn593 1.953 . S
O611 C605 1.298 . S
O612 Zn613 1.953 . S
O612 C628 1.225 . S
Zn613 O612 1.953 . S
Zn613 O614 1.949 . S
Zn613 O620 1.919 . S
Zn613 O625 1.924 . S
O614 Zn613 1.949 . S
O614 Zn615 1.923 . S
O614 Zn616 1.950 . S
O614 Zn617 1.945 . S
Zn615 O614 1.923 . S
Zn615 O618 1.933 . S
Zn615 O621 1.941 . S
Zn615 O622 1.965 . S
Zn616 O614 1.950 . S
Zn616 O623 1.938 . S
Zn616 O624 1.906 . S
Zn616 O634 1.953 . S
Zn617 O614 1.945 . S
Zn617 O619 1.932 . S
Zn617 O626 1.977 . S
Zn617 O627 1.910 . S
O618 Zn615 1.933 . S
O618 C629 1.226 . S
O619 Zn617 1.932 . S
O619 C629 1.307 . S
O620 Zn613 1.919 . S
O620 C631 1.253 . S
O621 Zn615 1.941 . S
O621 C631 1.283 . S
O622 Zn615 1.965 . S
O622 C630 1.303 . S
O623 Zn616 1.938 . S
O623 C630 1.247 . S
O624 Zn616 1.906 . S
O624 C632 1.304 . S
O625 Zn613 1.924 . S
O625 C633 1.311 . S
O626 Zn617 1.977 . S
O626 C632 1.272 . S
O627 Zn617 1.910 . S
O627 C633 1.231 . S
C628 O612 1.225 . S
C628 O634 1.298 . S
C629 O618 1.226 . S
C629 O619 1.307 . S
C630 O622 1.303 . S
C630 O623 1.247 . S
C631 O620 1.253 . S
C631 O621 1.283 . S
C632 O624 1.304 . S
C632 O626 1.272 . S
C633 O625 1.311 . S
C633 O627 1.231 . S
O634 Zn616 1.953 . S
O634 C628 1.298 . S
O635 Zn636 1.953 . S
O635 C651 1.225 . S
Zn636 O635 1.953 . S
Zn636 O637 1.949 . S
Zn636 O643 1.919 . S
Zn636 O648 1.924 . S
O637 Zn636 1.949 . S
O637 Zn638 1.923 . S
O637 Zn639 1.950 . S
O637 Zn640 1.945 . S
Zn638 O637 1.923 . S
Zn638 O641 1.933 . S
Zn638 O644 1.941 . S
Zn638 O645 1.965 . S
Zn639 O637 1.950 . S
Zn639 O646 1.938 . S
Zn639 O647 1.906 . S
Zn639 O657 1.953 . S
Zn640 O637 1.945 . S
Zn640 O642 1.932 . S
Zn640 O649 1.977 . S
Zn640 O650 1.910 . S
O641 Zn638 1.933 . S
O641 C652 1.226 . S
O642 Zn640 1.932 . S
O642 C652 1.307 . S
O643 Zn636 1.919 . S
O643 C654 1.253 . S
O644 Zn638 1.941 . S
O644 C654 1.283 . S
O645 Zn638 1.965 . S
O645 C653 1.303 . S
O646 Zn639 1.938 . S
O646 C653 1.247 . S
O647 Zn639 1.906 . S
O647 C655 1.304 . S
O648 Zn636 1.924 . S
O648 C656 1.311 . S
O649 Zn640 1.977 . S
O649 C655 1.272 . S
O650 Zn640 1.910 . S
O650 C656 1.231 . S
C651 O635 1.225 . S
C651 O657 1.298 . S
C652 O641 1.226 . S
C652 O642 1.307 . S
C653 O645 1.303 . S
C653 O646 1.247 . S
C654 O643 1.253 . S
C654 O644 1.283 . S
C655 O647 1.304 . S
C655 O649 1.272 . S
C656 O648 1.311 . S
C656 O650 1.231 . S
O657 Zn639 1.953 . S
O657 C651 1.298 . S
O658 Zn659 1.953 . S
O658 C674 1.225 . S
Zn659 O658 1.953 . S
Zn659 O660 1.949 . S
Zn659 O666 1.919 . S
Zn659 O671 1.924 . S
O660 Zn659 1.949 . S
O660 Zn661 1.923 . S
O660 Zn662 1.950 . S
O660 Zn663 1.945 . S
Zn661 O660 1.923 . S
Zn661 O664 1.933 . S
Zn661 O667 1.941 . S
Zn661 O668 1.965 . S
Zn662 O660 1.950 . S
Zn662 O669 1.938 . S
Zn662 O670 1.906 . S
Zn662 O680 1.953 . S
Zn663 O660 1.945 . S
Zn663 O665 1.932 . S
Zn663 O672 1.977 . S
Zn663 O673 1.910 . S
O664 Zn661 1.933 . S
O664 C675 1.226 . S
O665 Zn663 1.932 . S
O665 C675 1.307 . S
O666 Zn659 1.919 . S
O666 C677 1.253 . S
O667 Zn661 1.941 . S
O667 C677 1.283 . S
O668 Zn661 1.965 . S
O668 C676 1.303 . S
O669 Zn662 1.938 . S
O669 C676 1.247 . S
O670 Zn662 1.906 . S
O670 C678 1.304 . S
O671 Zn659 1.924 . S
O671 C679 1.311 . S
O672 Zn663 1.977 . S
O672 C678 1.272 . S
O673 Zn663 1.910 . S
O673 C679 1.231 . S
C674 O658 1.225 . S
C674 O680 1.298 . S
C675 O664 1.226 . S
C675 O665 1.307 . S
C676 O668 1.303 . S
C676 O669 1.247 . S
C677 O666 1.253 . S
C677 O667 1.283 . S
C678 O670 1.304 . S
C678 O672 1.272 . S
C679 O671 1.311 . S
C679 O673 1.231 . S
O680 Zn662 1.953 . S
O680 C674 1.298 . S
O681 Zn682 1.953 . S
O681 C697 1.225 . S
Zn682 O681 1.953 . S
Zn682 O683 1.948 . S
Zn682 O689 1.920 1_454 S
Zn682 O694 1.924 1_554 S
O683 Zn682 1.948 . S
O683 Zn684 1.923 1_455 S
O683 Zn685 1.950 . S
O683 Zn686 1.945 1_554 S
Zn684 O683 1.923 1_655 S
Zn684 O687 1.933 . S
Zn684 O690 1.941 . S
Zn684 O691 1.965 . S
Zn685 O683 1.950 . S
Zn685 O692 1.938 . S
Zn685 O693 1.906 . S
Zn685 O703 1.953 . S
Zn686 O683 1.945 1_556 S
Zn686 O688 1.932 . S
Zn686 O695 1.977 1_556 S
Zn686 O696 1.910 . S
O687 Zn684 1.933 . S
O687 C698 1.226 1_554 S
O688 Zn686 1.932 . S
O688 C698 1.307 1_455 S
O689 Zn682 1.920 1_656 S
O689 C700 1.253 1_556 S
O690 Zn684 1.941 . S
O690 C700 1.283 . S
O691 Zn684 1.965 . S
O691 C699 1.303 . S
O692 Zn685 1.938 . S
O692 C699 1.247 1_455 S
O693 Zn685 1.906 . S
O693 C701 1.304 . S
O694 Zn682 1.924 1_556 S
O694 C702 1.311 . S
O695 Zn686 1.977 1_554 S
O695 C701 1.272 . S
O696 Zn686 1.910 . S
O696 C702 1.231 . S
C697 O681 1.225 . S
C697 O703 1.298 . S
C698 O687 1.226 1_556 S
C698 O688 1.307 1_655 S
C699 O691 1.303 . S
C699 O692 1.247 1_655 S
C700 O689 1.253 1_554 S
C700 O690 1.283 . S
C701 O693 1.304 . S
C701 O695 1.272 . S
C702 O694 1.311 . S
C702 O696 1.231 . S
O703 Zn685 1.953 . S
O703 C697 1.298 . S
H704 C710 0.930 . S
H705 C713 0.930 . S
H706 C714 0.930 . S
H707 C715 0.930 . S
H708 C718 0.930 . S
H709 C719 0.930 . S
C710 H704 0.930 . S
C710 C711 1.355 1_655 S
C710 C712 1.415 . S
C711 C710 1.355 1_455 S
C711 C713 1.419 . S
C712 C710 1.415 . S
C712 C717 1.425 1_655 S
C712 C719 1.409 . S
C713 H705 0.930 . S
C713 C711 1.419 . S
C713 C714 1.362 . S
C714 H706 0.930 . S
C714 C713 1.362 . S
C714 C717 1.409 . S
C715 H707 0.930 . S
C715 C716 1.355 1_455 S
C715 C717 1.415 . S
C716 C715 1.355 1_655 S
C716 C718 1.419 . S
C717 C712 1.425 1_455 S
C717 C714 1.409 . S
C717 C715 1.415 . S
C718 H708 0.930 . S
C718 C716 1.419 . S
C718 C719 1.362 . S
C719 H709 0.930 . S
C719 C712 1.409 . S
C719 C718 1.362 . S
H720 C726 0.930 . S
H721 C729 0.930 . S
H722 C730 0.930 . S
H723 C731 0.930 . S
H724 C734 0.930 . S
H725 C735 0.930 . S
C726 H720 0.930 . S
C726 C727 1.355 . S
C726 C728 1.415 . S
C727 C726 1.355 . S
C727 C729 1.419 . S
C728 C726 1.415 . S
C728 C733 1.425 . S
C728 C735 1.409 . S
C729 H721 0.930 . S
C729 C727 1.419 . S
C729 C730 1.362 . S
C730 H722 0.930 . S
C730 C729 1.362 . S
C730 C733 1.409 . S
C731 H723 0.930 . S
C731 C732 1.355 . S
C731 C733 1.415 . S
C732 C731 1.355 . S
C732 C734 1.419 . S
C733 C728 1.425 . S
C733 C730 1.409 . S
C733 C731 1.415 . S
C734 H724 0.930 . S
C734 C732 1.419 . S
C734 C735 1.362 . S
C735 H725 0.930 . S
C735 C728 1.409 . S
C735 C734 1.362 . S
H736 C742 0.930 . S
H737 C745 0.930 . S
H738 C746 0.930 . S
H739 C747 0.930 . S
H740 C750 0.930 . S
H741 C751 0.930 . S
C742 H736 0.930 . S
C742 C743 1.355 . S
C742 C744 1.415 . S
C743 C742 1.355 . S
C743 C745 1.419 . S
C744 C742 1.415 . S
C744 C749 1.425 . S
C744 C751 1.409 . S
C745 H737 0.930 . S
C745 C743 1.419 . S
C745 C746 1.362 . S
C746 H738 0.930 . S
C746 C745 1.362 . S
C746 C749 1.409 . S
C747 H739 0.930 . S
C747 C748 1.355 . S
C747 C749 1.415 . S
C748 C747 1.355 . S
C748 C750 1.419 . S
C749 C744 1.425 . S
C749 C746 1.409 . S
C749 C747 1.415 . S
C750 H740 0.930 . S
C750 C748 1.419 . S
C750 C751 1.362 . S
C751 H741 0.930 . S
C751 C744 1.409 . S
C751 C750 1.362 . S
H752 C758 0.930 . S
H753 C761 0.930 . S
H754 C762 0.930 . S
H755 C763 0.930 . S
H756 C766 0.930 . S
H757 C767 0.930 . S
C758 H752 0.930 . S
C758 C759 1.355 . S
C758 C760 1.415 . S
C759 C758 1.355 . S
C759 C761 1.419 . S
C760 C758 1.415 . S
C760 C765 1.425 . S
C760 C767 1.409 . S
C761 H753 0.930 . S
C761 C759 1.419 . S
C761 C762 1.362 . S
C762 H754 0.930 . S
C762 C761 1.362 . S
C762 C765 1.409 . S
C763 H755 0.930 . S
C763 C764 1.355 . S
C763 C765 1.415 . S
C764 C763 1.355 . S
C764 C766 1.419 . S
C765 C760 1.425 . S
C765 C762 1.409 . S
C765 C763 1.415 . S
C766 H756 0.930 . S
C766 C764 1.419 . S
C766 C767 1.362 . S
C767 H757 0.930 . S
C767 C760 1.409 . S
C767 C766 1.362 . S
H768 C774 0.930 . S
H769 C777 0.930 . S
H770 C778 0.930 . S
H771 C779 0.930 . S
H772 C782 0.930 . S
H773 C783 0.930 . S
C774 H768 0.930 . S
C774 C775 1.355 . S
C774 C776 1.415 . S
C775 C774 1.355 . S
C775 C777 1.419 . S
C776 C774 1.415 . S
C776 C781 1.425 . S
C776 C783 1.409 1_455 S
C777 H769 0.930 . S
C777 C775 1.419 . S
C777 C778 1.362 . S
C778 H770 0.930 . S
C778 C777 1.362 . S
C778 C781 1.409 . S
C779 H771 0.930 . S
C779 C780 1.355 1_455 S
C779 C781 1.415 . S
C780 C779 1.355 1_655 S
C780 C782 1.419 . S
C781 C776 1.425 . S
C781 C778 1.409 . S
C781 C779 1.415 . S
C782 H772 0.930 . S
C782 C780 1.419 . S
C782 C783 1.362 . S
C783 H773 0.930 . S
C783 C776 1.409 1_655 S
C783 C782 1.362 . S
H784 C790 0.930 . S
H785 C793 0.930 . S
H786 C794 0.930 . S
H787 C795 0.930 . S
H788 C798 0.930 . S
H789 C799 0.930 . S
C790 H784 0.930 . S
C790 C791 1.355 . S
C790 C792 1.415 . S
C791 C790 1.355 . S
C791 C793 1.419 . S
C792 C790 1.415 . S
C792 C797 1.425 . S
C792 C799 1.409 . S
C793 H785 0.930 . S
C793 C791 1.419 . S
C793 C794 1.362 . S
C794 H786 0.930 . S
C794 C793 1.362 . S
C794 C797 1.409 . S
C795 H787 0.930 . S
C795 C796 1.355 . S
C795 C797 1.415 . S
C796 C795 1.355 . S
C796 C798 1.419 . S
C797 C792 1.425 . S
C797 C794 1.409 . S
C797 C795 1.415 . S
C798 H788 0.930 . S
C798 C796 1.419 . S
C798 C799 1.362 . S
C799 H789 0.930 . S
C799 C792 1.409 . S
C799 C798 1.362 . S
H800 C806 0.930 . S
H801 C809 0.930 . S
H802 C810 0.930 1_554 S
H803 C811 0.930 . S
H804 C814 0.930 . S
H805 C815 0.930 . S
C806 H800 0.930 . S
C806 C807 1.355 . S
C806 C808 1.415 . S
C807 C806 1.355 . S
C807 C809 1.419 . S
C808 C806 1.415 . S
C808 C813 1.425 . S
C808 C815 1.409 . S
C809 H801 0.930 . S
C809 C807 1.419 . S
C809 C810 1.362 . S
C810 H802 0.930 1_556 S
C810 C809 1.362 . S
C810 C813 1.409 . S
C811 H803 0.930 . S
C811 C812 1.355 1_554 S
C811 C813 1.415 1_554 S
C812 C811 1.355 1_556 S
C812 C814 1.419 . S
C813 C808 1.425 . S
C813 C810 1.409 . S
C813 C811 1.415 1_556 S
C814 H804 0.930 . S
C814 C812 1.419 . S
C814 C815 1.362 . S
C815 H805 0.930 . S
C815 C808 1.409 . S
C815 C814 1.362 . S
H816 C822 0.930 . S
H817 C825 0.930 . S
H818 C826 0.930 . S
H819 C827 0.930 . S
H820 C830 0.930 . S
H821 C831 0.930 . S
C822 H816 0.930 . S
C822 C823 1.355 . S
C822 C824 1.415 . S
C823 C822 1.355 . S
C823 C825 1.419 . S
C824 C822 1.415 . S
C824 C829 1.425 . S
C824 C831 1.409 . S
C825 H817 0.930 . S
C825 C823 1.419 . S
C825 C826 1.362 . S
C826 H818 0.930 . S
C826 C825 1.362 . S
C826 C829 1.409 . S
C827 H819 0.930 . S
C827 C828 1.355 . S
C827 C829 1.415 . S
C828 C827 1.355 . S
C828 C830 1.419 . S
C829 C824 1.425 . S
C829 C826 1.409 . S
C829 C827 1.415 . S
C830 H820 0.930 . S
C830 C828 1.419 . S
C830 C831 1.362 . S
C831 H821 0.930 . S
C831 C824 1.409 . S
C831 C830 1.362 . S
H832 C838 0.930 . S
H833 C841 0.930 1_565 S
H834 C842 0.930 . S
H835 C843 0.930 . S
H836 C846 0.930 . S
H837 C847 0.930 . S
C838 H832 0.930 . S
C838 C839 1.355 . S
C838 C840 1.415 . S
C839 C838 1.355 . S
C839 C841 1.419 . S
C840 C838 1.415 . S
C840 C845 1.425 . S
C840 C847 1.409 . S
C841 H833 0.930 1_545 S
C841 C839 1.419 . S
C841 C842 1.362 1_545 S
C842 H834 0.930 . S
C842 C841 1.362 1_565 S
C842 C845 1.409 1_565 S
C843 H835 0.930 . S
C843 C844 1.355 1_565 S
C843 C845 1.415 1_565 S
C844 C843 1.355 1_545 S
C844 C846 1.419 . S
C845 C840 1.425 . S
C845 C842 1.409 1_545 S
C845 C843 1.415 1_545 S
C846 H836 0.930 . S
C846 C844 1.419 . S
C846 C847 1.362 . S
C847 H837 0.930 . S
C847 C840 1.409 . S
C847 C846 1.362 . S
H848 C854 0.930 . S
H849 C857 0.930 . S
H850 C858 0.930 . S
H851 C859 0.930 . S
H852 C862 0.930 . S
H853 C863 0.930 . S
C854 H848 0.930 . S
C854 C855 1.355 . S
C854 C856 1.415 . S
C855 C854 1.355 . S
C855 C857 1.419 . S
C856 C854 1.415 . S
C856 C861 1.425 . S
C856 C863 1.409 . S
C857 H849 0.930 . S
C857 C855 1.419 . S
C857 C858 1.362 . S
C858 H850 0.930 . S
C858 C857 1.362 . S
C858 C861 1.409 . S
C859 H851 0.930 . S
C859 C860 1.355 . S
C859 C861 1.415 . S
C860 C859 1.355 . S
C860 C862 1.419 . S
C861 C856 1.425 . S
C861 C858 1.409 . S
C861 C859 1.415 . S
C862 H852 0.930 . S
C862 C860 1.419 . S
C862 C863 1.362 . S
C863 H853 0.930 . S
C863 C856 1.409 . S
C863 C862 1.362 . S
H864 C870 0.930 . S
H865 C873 0.930 . S
H866 C874 0.930 . S
H867 C875 0.930 . S
H868 C878 0.930 . S
H869 C879 0.930 . S
C870 H864 0.930 . S
C870 C871 1.355 . S
C870 C872 1.415 . S
C871 C870 1.355 . S
C871 C873 1.419 1_565 S
C872 C870 1.415 . S
C872 C877 1.425 1_565 S
C872 C879 1.409 . S
C873 H865 0.930 . S
C873 C871 1.419 1_545 S
C873 C874 1.362 . S
C874 H866 0.930 . S
C874 C873 1.362 . S
C874 C877 1.409 . S
C875 H867 0.930 . S
C875 C876 1.355 . S
C875 C877 1.415 . S
C876 C875 1.355 . S
C876 C878 1.419 1_545 S
C877 C872 1.425 1_545 S
C877 C874 1.409 . S
C877 C875 1.415 . S
C878 H868 0.930 . S
C878 C876 1.419 1_565 S
C878 C879 1.362 . S
C879 H869 0.930 . S
C879 C872 1.409 . S
C879 C878 1.362 . S
H880 C886 0.930 . S
H881 C889 0.930 . S
H882 C890 0.930 . S
H883 C891 0.930 . S
H884 C894 0.930 . S
H885 C895 0.930 . S
C886 H880 0.930 . S
C886 C887 1.355 . S
C886 C888 1.415 . S
C887 C886 1.355 . S
C887 C889 1.419 . S
C888 C886 1.415 . S
C888 C893 1.425 . S
C888 C895 1.409 . S
C889 H881 0.930 . S
C889 C887 1.419 . S
C889 C890 1.362 . S
C890 H882 0.930 . S
C890 C889 1.362 . S
C890 C893 1.409 . S
C891 H883 0.930 . S
C891 C892 1.355 . S
C891 C893 1.415 . S
C892 C891 1.355 . S
C892 C894 1.419 . S
C893 C888 1.425 . S
C893 C890 1.409 . S
C893 C891 1.415 . S
C894 H884 0.930 . S
C894 C892 1.419 . S
C894 C895 1.362 . S
C895 H885 0.930 . S
C895 C888 1.409 . S
C895 C894 1.362 . S
H896 C902 0.930 1_565 S
H897 C905 0.930 . S
H898 C906 0.930 . S
H899 C907 0.930 . S
H900 C910 0.930 1_565 S
H901 C911 0.930 . S
C902 H896 0.930 1_545 S
C902 C903 1.355 . S
C902 C904 1.415 . S
C903 C902 1.355 . S
C903 C905 1.419 . S
C904 C902 1.415 . S
C904 C909 1.425 . S
C904 C911 1.409 1_545 S
C905 H897 0.930 . S
C905 C903 1.419 . S
C905 C906 1.362 . S
C906 H898 0.930 . S
C906 C905 1.362 . S
C906 C909 1.409 . S
C907 H899 0.930 . S
C907 C908 1.355 . S
C907 C909 1.415 . S
C908 C907 1.355 . S
C908 C910 1.419 . S
C909 C904 1.425 . S
C909 C906 1.409 . S
C909 C907 1.415 . S
C910 H900 0.930 1_545 S
C910 C908 1.419 . S
C910 C911 1.362 1_545 S
C911 H901 0.930 . S
C911 C904 1.409 1_565 S
C911 C910 1.362 1_565 S
H912 C918 0.930 . S
H913 C921 0.930 . S
H914 C922 0.930 . S
H915 C923 0.930 . S
H916 C926 0.930 . S
H917 C927 0.930 . S
C918 H912 0.930 . S
C918 C919 1.355 . S
C918 C920 1.415 . S
C919 C918 1.355 . S
C919 C921 1.419 . S
C920 C918 1.415 . S
C920 C925 1.425 . S
C920 C927 1.409 . S
C921 H913 0.930 . S
C921 C919 1.419 . S
C921 C922 1.362 . S
C922 H914 0.930 . S
C922 C921 1.362 . S
C922 C925 1.409 . S
C923 H915 0.930 . S
C923 C924 1.355 . S
C923 C925 1.415 . S
C924 C923 1.355 . S
C924 C926 1.419 . S
C925 C920 1.425 . S
C925 C922 1.409 . S
C925 C923 1.415 . S
C926 H916 0.930 . S
C926 C924 1.419 . S
C926 C927 1.362 . S
C927 H917 0.930 . S
C927 C920 1.409 . S
C927 C926 1.362 . S
H928 C934 0.927 1_545 S
H929 C937 0.930 . S
H930 C938 0.930 . S
H931 C939 0.930 . S
H932 C942 0.930 . S
H933 C943 0.931 . S
C934 H928 0.927 1_565 S
C934 C935 1.355 . S
C934 C936 1.415 . S
C935 C934 1.355 . S
C935 C937 1.419 . S
C936 C934 1.415 . S
C936 C941 1.425 . S
C936 C943 1.409 . S
C937 H929 0.930 . S
C937 C935 1.419 . S
C937 C938 1.362 . S
C938 H930 0.930 . S
C938 C937 1.362 . S
C938 C941 1.409 . S
C939 H931 0.930 . S
C939 C940 1.355 . S
C939 C941 1.415 . S
C940 C939 1.355 . S
C940 C942 1.419 . S
C941 C936 1.425 . S
C941 C938 1.409 . S
C941 C939 1.415 . S
C942 H932 0.930 . S
C942 C940 1.419 . S
C942 C943 1.362 . S
C943 H933 0.931 . S
C943 C936 1.409 . S
C943 C942 1.362 . S
H944 C950 0.930 . S
H945 C953 0.930 . S
H946 C954 0.930 . S
H947 C955 0.930 . S
H948 C958 0.930 . S
H949 C959 0.930 . S
C950 H944 0.930 . S
C950 C951 1.355 . S
C950 C952 1.415 . S
C951 C950 1.355 . S
C951 C953 1.419 . S
C952 C950 1.415 . S
C952 C957 1.425 . S
C952 C959 1.409 . S
C953 H945 0.930 . S
C953 C951 1.419 . S
C953 C954 1.362 . S
C954 H946 0.930 . S
C954 C953 1.362 . S
C954 C957 1.409 . S
C955 H947 0.930 . S
C955 C956 1.355 . S
C955 C957 1.415 . S
C956 C955 1.355 . S
C956 C958 1.419 . S
C957 C952 1.425 . S
C957 C954 1.409 . S
C957 C955 1.415 . S
C958 H948 0.930 . S
C958 C956 1.419 . S
C958 C959 1.362 . S
C959 H949 0.930 . S
C959 C952 1.409 . S
C959 C958 1.362 . S
H960 C966 0.930 . S
H961 C969 0.930 . S
H962 C970 0.930 . S
H963 C971 0.930 . S
H964 C974 0.930 1_565 S
H965 C975 0.915 1_565 S
C966 H960 0.930 . S
C966 C967 1.355 . S
C966 C968 1.415 . S
C967 C966 1.355 . S
C967 C969 1.419 . S
C968 C966 1.415 . S
C968 C973 1.425 . S
C968 C975 1.404 1_554 S
C969 H961 0.930 . S
C969 C967 1.419 . S
C969 C970 1.362 . S
C970 H962 0.930 . S
C970 C969 1.362 . S
C970 C973 1.409 . S
C971 H963 0.930 . S
C971 C972 1.355 1_554 S
C971 C973 1.415 . S
C972 C971 1.355 1_556 S
C972 C974 1.419 . S
C973 C968 1.425 . S
C973 C970 1.409 . S
C973 C971 1.415 . S
C974 H964 0.930 1_545 S
C974 C972 1.419 . S
C974 C975 1.366 . S
C975 H965 0.915 1_545 S
C975 C968 1.404 1_556 S
C975 C974 1.366 . S
H976 C982 0.930 . S
H977 C985 0.930 . S
H978 C986 0.930 . S
H979 C987 0.930 . S
H980 C990 0.930 . S
H981 C991 0.930 . S
C982 H976 0.930 . S
C982 C983 1.355 1_556 S
C982 C984 1.415 . S
C983 C982 1.355 1_554 S
C983 C985 1.419 . S
C984 C982 1.415 . S
C984 C989 1.425 1_556 S
C984 C991 1.409 . S
C985 H977 0.930 . S
C985 C983 1.419 . S
C985 C986 1.362 . S
C986 H978 0.930 . S
C986 C985 1.362 . S
C986 C989 1.409 . S
C987 H979 0.930 . S
C987 C988 1.355 . S
C987 C989 1.415 . S
C988 C987 1.355 . S
C988 C990 1.419 1_554 S
C989 C984 1.425 1_554 S
C989 C986 1.409 . S
C989 C987 1.415 . S
C990 H980 0.930 . S
C990 C988 1.419 1_556 S
C990 C991 1.362 . S
C991 H981 0.930 . S
C991 C984 1.409 . S
C991 C990 1.362 . S
H992 C998 0.930 . S
H993 C1001 0.930 . S
H994 C1002 0.930 . S
H995 C1003 0.930 . S
H996 C1006 0.930 . S
H997 C1007 0.930 . S
C998 H992 0.930 . S
C998 C999 1.355 . S
C998 C1000 1.415 . S
C999 C998 1.355 . S
C999 C1001 1.419 . S
C1000 C998 1.415 . S
C1000 C1005 1.425 . S
C1000 C1007 1.409 . S
C1001 H993 0.930 . S
C1001 C999 1.419 . S
C1001 C1002 1.362 . S
C1002 H994 0.930 . S
C1002 C1001 1.362 . S
C1002 C1005 1.409 . S
C1003 H995 0.930 . S
C1003 C1004 1.355 . S
C1003 C1005 1.415 . S
C1004 C1003 1.355 . S
C1004 C1006 1.419 . S
C1005 C1000 1.425 . S
C1005 C1002 1.409 . S
C1005 C1003 1.415 . S
C1006 H996 0.930 . S
C1006 C1004 1.419 . S
C1006 C1007 1.362 . S
C1007 H997 0.930 . S
C1007 C1000 1.409 . S
C1007 C1006 1.362 . S
H1008 C1014 0.930 . S
H1009 C1017 0.930 . S
H1010 C1018 0.930 . S
H1011 C1019 0.930 . S
H1012 C1022 0.930 . S
H1013 C1023 0.930 . S
C1014 H1008 0.930 . S
C1014 C1015 1.355 . S
C1014 C1016 1.415 . S
C1015 C1014 1.355 . S
C1015 C1017 1.419 . S
C1016 C1014 1.415 . S
C1016 C1021 1.425 . S
C1016 C1023 1.409 . S
C1017 H1009 0.930 . S
C1017 C1015 1.419 . S
C1017 C1018 1.362 . S
C1018 H1010 0.930 . S
C1018 C1017 1.362 . S
C1018 C1021 1.409 . S
C1019 H1011 0.930 . S
C1019 C1020 1.355 . S
C1019 C1021 1.415 . S
C1020 C1019 1.355 . S
C1020 C1022 1.419 . S
C1021 C1016 1.425 . S
C1021 C1018 1.409 . S
C1021 C1019 1.415 . S
C1022 H1012 0.930 . S
C1022 C1020 1.419 . S
C1022 C1023 1.362 . S
C1023 H1013 0.930 . S
C1023 C1016 1.409 . S
C1023 C1022 1.362 . S
H1024 C1030 0.930 . S
H1025 C1033 0.930 . S
H1026 C1034 0.930 . S
H1027 C1035 0.930 . S
H1028 C1038 0.930 . S
H1029 C1039 0.930 . S
C1030 H1024 0.930 . S
C1030 C1031 1.355 . S
C1030 C1032 1.415 . S
C1031 C1030 1.355 . S
C1031 C1033 1.419 . S
C1032 C1030 1.415 . S
C1032 C1037 1.425 . S
C1032 C1039 1.409 . S
C1033 H1025 0.930 . S
C1033 C1031 1.419 . S
C1033 C1034 1.362 . S
C1034 H1026 0.930 . S
C1034 C1033 1.362 . S
C1034 C1037 1.409 . S
C1035 H1027 0.930 . S
C1035 C1036 1.355 . S
C1035 C1037 1.415 . S
C1036 C1035 1.355 . S
C1036 C1038 1.419 . S
C1037 C1032 1.425 . S
C1037 C1034 1.409 . S
C1037 C1035 1.415 . S
C1038 H1028 0.930 . S
C1038 C1036 1.419 . S
C1038 C1039 1.362 . S
C1039 H1029 0.930 . S
C1039 C1032 1.409 . S
C1039 C1038 1.362 . S
H1040 C1046 0.930 . S
H1041 C1049 0.930 . S
H1042 C1050 0.930 . S
H1043 C1051 0.930 . S
H1044 C1054 0.930 . S
H1045 C1055 0.930 . S
C1046 H1040 0.930 . S
C1046 C1047 1.355 . S
C1046 C1048 1.415 . S
C1047 C1046 1.355 . S
C1047 C1049 1.419 . S
C1048 C1046 1.415 . S
C1048 C1053 1.425 . S
C1048 C1055 1.409 . S
C1049 H1041 0.930 . S
C1049 C1047 1.419 . S
C1049 C1050 1.362 . S
C1050 H1042 0.930 . S
C1050 C1049 1.362 . S
C1050 C1053 1.409 . S
C1051 H1043 0.930 . S
C1051 C1052 1.355 . S
C1051 C1053 1.415 . S
C1052 C1051 1.355 . S
C1052 C1054 1.419 1_565 S
C1053 C1048 1.425 . S
C1053 C1050 1.409 . S
C1053 C1051 1.415 . S
C1054 H1044 0.930 . S
C1054 C1052 1.419 1_545 S
C1054 C1055 1.362 1_545 S
C1055 H1045 0.930 . S
C1055 C1048 1.409 . S
C1055 C1054 1.362 1_565 S
H1056 C1062 0.930 . S
H1057 C1065 0.930 . S
H1058 C1066 0.930 . S
H1059 C1067 0.930 . S
H1060 C1070 0.930 . S
H1061 C1071 0.930 . S
C1062 H1056 0.930 . S
C1062 C1063 1.355 . S
C1062 C1064 1.415 . S
C1063 C1062 1.355 . S
C1063 C1065 1.419 . S
C1064 C1062 1.415 . S
C1064 C1069 1.425 . S
C1064 C1071 1.409 . S
C1065 H1057 0.930 . S
C1065 C1063 1.419 . S
C1065 C1066 1.362 . S
C1066 H1058 0.930 . S
C1066 C1065 1.362 . S
C1066 C1069 1.409 . S
C1067 H1059 0.930 . S
C1067 C1068 1.355 . S
C1067 C1069 1.415 . S
C1068 C1067 1.355 . S
C1068 C1070 1.419 . S
C1069 C1064 1.425 . S
C1069 C1066 1.409 . S
C1069 C1067 1.415 . S
C1070 H1060 0.930 . S
C1070 C1068 1.419 . S
C1070 C1071 1.362 . S
C1071 H1061 0.930 . S
C1071 C1064 1.409 . S
C1071 C1070 1.362 . S
H1072 C1078 0.930 . S
H1073 C1081 0.930 . S
H1074 C1082 0.930 . S
H1075 C1083 0.930 . S
H1076 C1086 0.930 . S
H1077 C1087 0.930 . S
C1078 H1072 0.930 . S
C1078 C1079 1.355 . S
C1078 C1080 1.415 . S
C1079 C1078 1.355 . S
C1079 C1081 1.419 . S
C1080 C1078 1.415 . S
C1080 C1085 1.425 . S
C1080 C1087 1.409 . S
C1081 H1073 0.930 . S
C1081 C1079 1.419 . S
C1081 C1082 1.362 . S
C1082 H1074 0.930 . S
C1082 C1081 1.362 . S
C1082 C1085 1.409 . S
C1083 H1075 0.930 . S
C1083 C1084 1.355 . S
C1083 C1085 1.415 . S
C1084 C1083 1.355 . S
C1084 C1086 1.419 . S
C1085 C1080 1.425 . S
C1085 C1082 1.409 . S
C1085 C1083 1.415 . S
C1086 H1076 0.930 . S
C1086 C1084 1.419 . S
C1086 C1087 1.362 . S
C1087 H1077 0.930 . S
C1087 C1080 1.409 . S
C1087 C1086 1.362 . S
H1088 C1094 0.930 . S
H1089 C1097 0.930 . S
H1090 C1098 0.930 . S
H1091 C1099 0.930 . S
H1092 C1102 0.930 . S
H1093 C1103 0.930 . S
C1094 H1088 0.930 . S
C1094 C1095 1.355 1_655 S
C1094 C1096 1.415 1_655 S
C1095 C1094 1.355 1_455 S
C1095 C1097 1.419 . S
C1096 C1094 1.415 1_455 S
C1096 C1101 1.425 . S
C1096 C1103 1.409 1_455 S
C1097 H1089 0.930 . S
C1097 C1095 1.419 . S
C1097 C1098 1.362 . S
C1098 H1090 0.930 . S
C1098 C1097 1.362 . S
C1098 C1101 1.409 . S
C1099 H1091 0.930 . S
C1099 C1100 1.355 . S
C1099 C1101 1.415 . S
C1100 C1099 1.355 . S
C1100 C1102 1.419 1_455 S
C1101 C1096 1.425 . S
C1101 C1098 1.409 . S
C1101 C1099 1.415 . S
C1102 H1092 0.930 . S
C1102 C1100 1.419 1_655 S
C1102 C1103 1.362 . S
C1103 H1093 0.930 . S
C1103 C1096 1.409 1_655 S
C1103 C1102 1.362 . S
H1104 C1110 0.930 . S
H1105 C1113 0.930 . S
H1106 C1114 0.930 . S
H1107 C1115 0.930 . S
H1108 C1118 0.930 . S
H1109 C1119 0.930 . S
C1110 H1104 0.930 . S
C1110 C1111 1.355 . S
C1110 C1112 1.415 . S
C1111 C1110 1.355 . S
C1111 C1113 1.419 . S
C1112 C1110 1.415 . S
C1112 C1117 1.425 . S
C1112 C1119 1.409 . S
C1113 H1105 0.930 . S
C1113 C1111 1.419 . S
C1113 C1114 1.362 . S
C1114 H1106 0.930 . S
C1114 C1113 1.362 . S
C1114 C1117 1.409 . S
C1115 H1107 0.930 . S
C1115 C1116 1.355 . S
C1115 C1117 1.415 . S
C1116 C1115 1.355 . S
C1116 C1118 1.419 . S
C1117 C1112 1.425 . S
C1117 C1114 1.409 . S
C1117 C1115 1.415 . S
C1118 H1108 0.930 . S
C1118 C1116 1.419 . S
C1118 C1119 1.362 . S
C1119 H1109 0.930 . S
C1119 C1112 1.409 . S
C1119 C1118 1.362 . S
H1120 C1126 0.930 . S
H1121 C1129 0.930 . S
H1122 C1130 0.930 . S
H1123 C1131 0.930 . S
H1124 C1134 0.930 . S
H1125 C1135 0.930 . S
C1126 H1120 0.930 . S
C1126 C1127 1.355 . S
C1126 C1128 1.415 . S
C1127 C1126 1.355 . S
C1127 C1129 1.419 . S
C1128 C1126 1.415 . S
C1128 C1133 1.425 . S
C1128 C1135 1.409 . S
C1129 H1121 0.930 . S
C1129 C1127 1.419 . S
C1129 C1130 1.362 . S
C1130 H1122 0.930 . S
C1130 C1129 1.362 . S
C1130 C1133 1.409 . S
C1131 H1123 0.930 . S
C1131 C1132 1.355 . S
C1131 C1133 1.415 . S
C1132 C1131 1.355 . S
C1132 C1134 1.419 . S
C1133 C1128 1.425 . S
C1133 C1130 1.409 . S
C1133 C1131 1.415 . S
C1134 H1124 0.930 . S
C1134 C1132 1.419 . S
C1134 C1135 1.362 . S
C1135 H1125 0.930 . S
C1135 C1128 1.409 . S
C1135 C1134 1.362 . S
H1136 C1142 0.930 . S
H1137 C1145 0.930 . S
H1138 C1146 0.930 . S
H1139 C1147 0.930 . S
H1140 C1150 0.930 . S
H1141 C1151 0.930 . S
C1142 H1136 0.930 . S
C1142 C1143 1.355 . S
C1142 C1144 1.415 . S
C1143 C1142 1.355 . S
C1143 C1145 1.419 . S
C1144 C1142 1.415 . S
C1144 C1149 1.425 . S
C1144 C1151 1.409 . S
C1145 H1137 0.930 . S
C1145 C1143 1.419 . S
C1145 C1146 1.362 . S
C1146 H1138 0.930 . S
C1146 C1145 1.362 . S
C1146 C1149 1.409 . S
C1147 H1139 0.930 . S
C1147 C1148 1.355 . S
C1147 C1149 1.415 . S
C1148 C1147 1.355 . S
C1148 C1150 1.419 . S
C1149 C1144 1.425 . S
C1149 C1146 1.409 . S
C1149 C1147 1.415 . S
C1150 H1140 0.930 . S
C1150 C1148 1.419 . S
C1150 C1151 1.362 . S
C1151 H1141 0.930 . S
C1151 C1144 1.409 . S
C1151 C1150 1.362 . S
H1152 C1158 0.930 . S
H1153 C1161 0.930 . S
H1154 C1162 0.930 . S
H1155 C1163 0.930 . S
H1156 C1166 0.930 1_655 S
H1157 C1167 0.930 . S
C1158 H1152 0.930 . S
C1158 C1159 1.355 1_655 S
C1158 C1160 1.415 1_655 S
C1159 C1158 1.355 1_455 S
C1159 C1161 1.419 . S
C1160 C1158 1.415 1_455 S
C1160 C1165 1.425 . S
C1160 C1167 1.409 1_455 S
C1161 H1153 0.930 . S
C1161 C1159 1.419 . S
C1161 C1162 1.362 . S
C1162 H1154 0.930 . S
C1162 C1161 1.362 . S
C1162 C1165 1.409 . S
C1163 H1155 0.930 . S
C1163 C1164 1.355 . S
C1163 C1165 1.415 . S
C1164 C1163 1.355 . S
C1164 C1166 1.419 . S
C1165 C1160 1.425 . S
C1165 C1162 1.409 . S
C1165 C1163 1.415 . S
C1166 H1156 0.930 1_455 S
C1166 C1164 1.419 . S
C1166 C1167 1.362 1_455 S
C1167 H1157 0.930 . S
C1167 C1160 1.409 1_655 S
C1167 C1166 1.362 1_655 S
H1168 C1174 0.930 . S
H1169 C1177 0.930 . S
H1170 C1178 0.930 . S
H1171 C1179 0.930 . S
H1172 C1182 0.930 . S
H1173 C1183 0.930 . S
C1174 H1168 0.930 . S
C1174 C1175 1.355 . S
C1174 C1176 1.415 . S
C1175 C1174 1.355 . S
C1175 C1177 1.419 . S
C1176 C1174 1.415 . S
C1176 C1181 1.425 . S
C1176 C1183 1.409 . S
C1177 H1169 0.930 . S
C1177 C1175 1.419 . S
C1177 C1178 1.362 . S
C1178 H1170 0.930 . S
C1178 C1177 1.362 . S
C1178 C1181 1.409 . S
C1179 H1171 0.930 . S
C1179 C1180 1.355 . S
C1179 C1181 1.415 . S
C1180 C1179 1.355 . S
C1180 C1182 1.419 . S
C1181 C1176 1.425 . S
C1181 C1178 1.409 . S
C1181 C1179 1.415 . S
C1182 H1172 0.930 . S
C1182 C1180 1.419 . S
C1182 C1183 1.362 . S
C1183 H1173 0.930 . S
C1183 C1176 1.409 . S
C1183 C1182 1.362 . S
H1184 C1190 0.930 . S
H1185 C1193 0.930 . S
H1186 C1194 0.930 . S
H1187 C1195 0.930 . S
H1188 C1198 0.930 . S
H1189 C1199 0.930 . S
C1190 H1184 0.930 . S
C1190 C1191 1.355 . S
C1190 C1192 1.415 . S
C1191 C1190 1.355 . S
C1191 C1193 1.419 . S
C1192 C1190 1.415 . S
C1192 C1197 1.425 . S
C1192 C1199 1.409 . S
C1193 H1185 0.930 . S
C1193 C1191 1.419 . S
C1193 C1194 1.362 . S
C1194 H1186 0.930 . S
C1194 C1193 1.362 . S
C1194 C1197 1.409 . S
C1195 H1187 0.930 . S
C1195 C1196 1.355 . S
C1195 C1197 1.415 . S
C1196 C1195 1.355 . S
C1196 C1198 1.419 . S
C1197 C1192 1.425 . S
C1197 C1194 1.409 . S
C1197 C1195 1.415 . S
C1198 H1188 0.930 . S
C1198 C1196 1.419 . S
C1198 C1199 1.362 . S
C1199 H1189 0.930 . S
C1199 C1192 1.409 . S
C1199 C1198 1.362 . S
H1200 C1206 0.930 . S
H1201 C1209 0.930 . S
H1202 C1210 0.930 . S
H1203 C1211 0.930 . S
H1204 C1214 0.930 . S
H1205 C1215 0.930 . S
C1206 H1200 0.930 . S
C1206 C1207 1.355 . S
C1206 C1208 1.415 . S
C1207 C1206 1.355 . S
C1207 C1209 1.419 . S
C1208 C1206 1.415 . S
C1208 C1213 1.425 . S
C1208 C1215 1.409 . S
C1209 H1201 0.930 . S
C1209 C1207 1.419 . S
C1209 C1210 1.362 . S
C1210 H1202 0.930 . S
C1210 C1209 1.362 . S
C1210 C1213 1.409 . S
C1211 H1203 0.930 . S
C1211 C1212 1.355 . S
C1211 C1213 1.415 . S
C1212 C1211 1.355 . S
C1212 C1214 1.419 . S
C1213 C1208 1.425 . S
C1213 C1210 1.409 . S
C1213 C1211 1.415 . S
C1214 H1204 0.930 . S
C1214 C1212 1.419 . S
C1214 C1215 1.362 . S
C1215 H1205 0.930 . S
C1215 C1208 1.409 . S
C1215 C1214 1.362 . S
H1216 C1222 0.930 . S
H1217 C1225 0.930 . S
H1218 C1226 0.933 1_565 S
H1219 C1227 0.930 . S
H1220 C1230 0.930 . S
H1221 C1231 0.930 . S
C1222 H1216 0.930 . S
C1222 C1223 1.355 . S
C1222 C1224 1.415 . S
C1223 C1222 1.355 . S
C1223 C1225 1.419 1_545 S
C1224 C1222 1.415 . S
C1224 C1229 1.425 . S
C1224 C1231 1.409 . S
C1225 H1217 0.930 . S
C1225 C1223 1.419 1_565 S
C1225 C1226 1.363 1_565 S
C1226 H1218 0.933 1_545 S
C1226 C1225 1.363 1_545 S
C1226 C1229 1.406 . S
C1227 H1219 0.930 . S
C1227 C1228 1.355 . S
C1227 C1229 1.415 . S
C1228 C1227 1.355 . S
C1228 C1230 1.419 . S
C1229 C1224 1.425 . S
C1229 C1226 1.406 . S
C1229 C1227 1.415 . S
C1230 H1220 0.930 . S
C1230 C1228 1.419 . S
C1230 C1231 1.362 . S
C1231 H1221 0.930 . S
C1231 C1224 1.409 . S
C1231 C1230 1.362 . S
H1232 C1238 0.930 . S
H1233 C1241 0.930 . S
H1234 C1242 0.930 . S
H1235 C1243 0.930 . S
H1236 C1246 0.930 . S
H1237 C1247 0.930 . S
C1238 H1232 0.930 . S
C1238 C1239 1.355 . S
C1238 C1240 1.415 . S
C1239 C1238 1.355 . S
C1239 C1241 1.419 . S
C1240 C1238 1.415 . S
C1240 C1245 1.425 . S
C1240 C1247 1.409 . S
C1241 H1233 0.930 . S
C1241 C1239 1.419 . S
C1241 C1242 1.362 . S
C1242 H1234 0.930 . S
C1242 C1241 1.362 . S
C1242 C1245 1.409 . S
C1243 H1235 0.930 . S
C1243 C1244 1.355 . S
C1243 C1245 1.415 . S
C1244 C1243 1.355 . S
C1244 C1246 1.419 . S
C1245 C1240 1.425 . S
C1245 C1242 1.409 . S
C1245 C1243 1.415 . S
C1246 H1236 0.930 . S
C1246 C1244 1.419 . S
C1246 C1247 1.362 . S
C1247 H1237 0.930 . S
C1247 C1240 1.409 . S
C1247 C1246 1.362 . S
H1248 C1254 0.930 . S
H1249 C1257 0.931 . S
H1250 C1258 0.930 . S
H1251 C1259 0.930 . S
H1252 C1262 0.930 . S
H1253 C1263 0.930 . S
C1254 H1248 0.930 . S
C1254 C1255 1.355 . S
C1254 C1256 1.415 1_545 S
C1255 C1254 1.355 . S
C1255 C1257 1.419 1_545 S
C1256 C1254 1.415 1_565 S
C1256 C1261 1.425 . S
C1256 C1263 1.409 . S
C1257 H1249 0.931 . S
C1257 C1255 1.419 1_565 S
C1257 C1258 1.362 . S
C1258 H1250 0.930 . S
C1258 C1257 1.362 . S
C1258 C1261 1.409 . S
C1259 H1251 0.930 . S
C1259 C1260 1.355 . S
C1259 C1261 1.415 . S
C1260 C1259 1.355 . S
C1260 C1262 1.419 . S
C1261 C1256 1.425 . S
C1261 C1258 1.409 . S
C1261 C1259 1.415 . S
C1262 H1252 0.930 . S
C1262 C1260 1.419 . S
C1262 C1263 1.362 . S
C1263 H1253 0.930 . S
C1263 C1256 1.409 . S
C1263 C1262 1.362 . S
H1264 C1270 0.930 . S
H1265 C1273 0.930 . S
H1266 C1274 0.930 . S
H1267 C1275 0.930 . S
H1268 C1278 0.930 . S
H1269 C1279 0.930 . S
C1270 H1264 0.930 . S
C1270 C1271 1.355 . S
C1270 C1272 1.415 . S
C1271 C1270 1.355 . S
C1271 C1273 1.419 . S
C1272 C1270 1.415 . S
C1272 C1277 1.425 . S
C1272 C1279 1.409 . S
C1273 H1265 0.930 . S
C1273 C1271 1.419 . S
C1273 C1274 1.362 . S
C1274 H1266 0.930 . S
C1274 C1273 1.362 . S
C1274 C1277 1.409 . S
C1275 H1267 0.930 . S
C1275 C1276 1.355 . S
C1275 C1277 1.415 . S
C1276 C1275 1.355 . S
C1276 C1278 1.419 . S
C1277 C1272 1.425 . S
C1277 C1274 1.409 . S
C1277 C1275 1.415 . S
C1278 H1268 0.930 . S
C1278 C1276 1.419 . S
C1278 C1279 1.362 . S
C1279 H1269 0.930 . S
C1279 C1272 1.409 . S
C1279 C1278 1.362 . S
H1280 C1286 0.930 . S
H1281 C1289 0.930 . S
H1282 C1290 0.930 . S
H1283 C1291 0.930 . S
H1284 C1294 0.930 . S
H1285 C1295 0.930 . S
C1286 H1280 0.930 . S
C1286 C1287 1.355 1_565 S
C1286 C1288 1.415 . S
C1287 C1286 1.355 1_545 S
C1287 C1289 1.419 . S
C1288 C1286 1.415 . S
C1288 C1293 1.425 1_565 S
C1288 C1295 1.409 . S
C1289 H1281 0.930 . S
C1289 C1287 1.419 . S
C1289 C1290 1.362 . S
C1290 H1282 0.930 . S
C1290 C1289 1.362 . S
C1290 C1293 1.409 . S
C1291 H1283 0.930 . S
C1291 C1292 1.355 1_545 S
C1291 C1293 1.415 . S
C1292 C1291 1.355 1_565 S
C1292 C1294 1.419 . S
C1293 C1288 1.425 1_545 S
C1293 C1290 1.409 . S
C1293 C1291 1.415 . S
C1294 H1284 0.930 . S
C1294 C1292 1.419 . S
C1294 C1295 1.362 . S
C1295 H1285 0.930 . S
C1295 C1288 1.409 . S
C1295 C1294 1.362 . S
H1296 C1302 0.930 . S
H1297 C1305 0.930 . S
H1298 C1306 0.930 . S
H1299 C1307 0.930 . S
H1300 C1310 0.930 . S
H1301 C1311 0.930 . S
C1302 H1296 0.930 . S
C1302 C1303 1.355 . S
C1302 C1304 1.415 . S
C1303 C1302 1.355 . S
C1303 C1305 1.419 . S
C1304 C1302 1.415 . S
C1304 C1309 1.425 . S
C1304 C1311 1.409 . S
C1305 H1297 0.930 . S
C1305 C1303 1.419 . S
C1305 C1306 1.362 . S
C1306 H1298 0.930 . S
C1306 C1305 1.362 . S
C1306 C1309 1.409 . S
C1307 H1299 0.930 . S
C1307 C1308 1.355 . S
C1307 C1309 1.415 . S
C1308 C1307 1.355 . S
C1308 C1310 1.419 . S
C1309 C1304 1.425 . S
C1309 C1306 1.409 . S
C1309 C1307 1.415 . S
C1310 H1300 0.930 . S
C1310 C1308 1.419 . S
C1310 C1311 1.362 . S
C1311 H1301 0.930 . S
C1311 C1304 1.409 . S
C1311 C1310 1.362 . S
H1312 C1318 0.930 . S
H1313 C1321 0.930 . S
H1314 C1322 0.930 . S
H1315 C1323 0.930 . S
H1316 C1326 0.948 . S
H1317 C1327 0.930 . S
C1318 H1312 0.930 . S
C1318 C1319 1.355 1_565 S
C1318 C1320 1.415 1_565 S
C1319 C1318 1.355 1_545 S
C1319 C1321 1.419 . S
C1320 C1318 1.415 1_545 S
C1320 C1325 1.425 . S
C1320 C1327 1.409 1_545 S
C1321 H1313 0.930 . S
C1321 C1319 1.419 . S
C1321 C1322 1.362 . S
C1322 H1314 0.930 . S
C1322 C1321 1.362 . S
C1322 C1325 1.409 . S
C1323 H1315 0.930 . S
C1323 C1324 1.355 . S
C1323 C1325 1.415 . S
C1324 C1323 1.355 . S
C1324 C1326 1.389 1_545 S
C1325 C1320 1.425 . S
C1325 C1322 1.409 . S
C1325 C1323 1.415 . S
C1326 H1316 0.948 . S
C1326 C1324 1.389 1_565 S
C1326 C1327 1.376 . S
C1327 H1317 0.930 . S
C1327 C1320 1.409 1_565 S
C1327 C1326 1.376 . S
H1328 C1334 0.930 . S
H1329 C1337 0.930 . S
H1330 C1338 0.930 . S
H1331 C1339 0.930 . S
H1332 C1342 0.930 . S
H1333 C1343 0.930 . S
C1334 H1328 0.930 . S
C1334 C1335 1.355 . S
C1334 C1336 1.415 . S
C1335 C1334 1.355 . S
C1335 C1337 1.419 . S
C1336 C1334 1.415 . S
C1336 C1341 1.425 . S
C1336 C1343 1.409 . S
C1337 H1329 0.930 . S
C1337 C1335 1.419 . S
C1337 C1338 1.362 . S
C1338 H1330 0.930 . S
C1338 C1337 1.362 . S
C1338 C1341 1.409 . S
C1339 H1331 0.930 . S
C1339 C1340 1.355 . S
C1339 C1341 1.415 . S
C1340 C1339 1.355 . S
C1340 C1342 1.419 . S
C1341 C1336 1.425 . S
C1341 C1338 1.409 . S
C1341 C1339 1.415 . S
C1342 H1332 0.930 . S
C1342 C1340 1.419 . S
C1342 C1343 1.362 . S
C1343 H1333 0.930 . S
C1343 C1336 1.409 . S
C1343 C1342 1.362 . S
H1344 C1350 0.920 1_556 S
H1345 C1353 0.930 . S
H1346 C1354 0.930 . S
H1347 C1355 0.930 . S
H1348 C1358 0.930 1_545 S
H1349 C1359 0.930 . S
C1350 H1344 0.920 1_554 S
C1350 C1351 1.355 . S
C1350 C1352 1.415 . S
C1351 C1350 1.355 . S
C1351 C1353 1.419 . S
C1352 C1350 1.415 . S
C1352 C1357 1.425 . S
C1352 C1359 1.409 . S
C1353 H1345 0.930 . S
C1353 C1351 1.419 . S
C1353 C1354 1.362 . S
C1354 H1346 0.930 . S
C1354 C1353 1.362 . S
C1354 C1357 1.409 . S
C1355 H1347 0.930 . S
C1355 C1356 1.355 . S
C1355 C1357 1.415 . S
C1356 C1355 1.355 . S
C1356 C1358 1.419 . S
C1357 C1352 1.425 . S
C1357 C1354 1.409 . S
C1357 C1355 1.415 . S
C1358 H1348 0.930 1_565 S
C1358 C1356 1.419 . S
C1358 C1359 1.362 . S
C1359 H1349 0.930 . S
C1359 C1352 1.409 . S
C1359 C1358 1.362 . S
H1360 C1366 0.930 . S
H1361 C1369 0.930 . S
H1362 C1370 0.930 . S
H1363 C1371 0.930 . S
H1364 C1374 0.930 . S
H1365 C1375 0.930 . S
C1366 H1360 0.930 . S
C1366 C1367 1.355 . S
C1366 C1368 1.415 . S
C1367 C1366 1.355 . S
C1367 C1369 1.419 1_554 S
C1368 C1366 1.415 . S
C1368 C1373 1.425 1_554 S
C1368 C1375 1.409 . S
C1369 H1361 0.930 . S
C1369 C1367 1.419 1_556 S
C1369 C1370 1.362 . S
C1370 H1362 0.930 . S
C1370 C1369 1.362 . S
C1370 C1373 1.409 . S
C1371 H1363 0.930 . S
C1371 C1372 1.355 . S
C1371 C1373 1.415 . S
C1372 C1371 1.355 . S
C1372 C1374 1.419 1_556 S
C1373 C1368 1.425 1_556 S
C1373 C1370 1.409 . S
C1373 C1371 1.415 . S
C1374 H1364 0.930 . S
C1374 C1372 1.419 1_554 S
C1374 C1375 1.362 . S
C1375 H1365 0.930 . S
C1375 C1368 1.409 . S
C1375 C1374 1.362 . S
H1376 C1382 0.930 . S
H1377 C1385 0.930 . S
H1378 C1386 0.930 . S
H1379 C1387 0.930 . S
H1380 C1390 0.930 . S
H1381 C1391 0.930 . S
C1382 H1376 0.930 . S
C1382 C1383 1.355 . S
C1382 C1384 1.415 . S
C1383 C1382 1.355 . S
C1383 C1385 1.419 . S
C1384 C1382 1.415 . S
C1384 C1389 1.425 . S
C1384 C1391 1.409 . S
C1385 H1377 0.930 . S
C1385 C1383 1.419 . S
C1385 C1386 1.362 . S
C1386 H1378 0.930 . S
C1386 C1385 1.362 . S
C1386 C1389 1.409 . S
C1387 H1379 0.930 . S
C1387 C1388 1.355 . S
C1387 C1389 1.415 . S
C1388 C1387 1.355 . S
C1388 C1390 1.419 . S
C1389 C1384 1.425 . S
C1389 C1386 1.409 . S
C1389 C1387 1.415 . S
C1390 H1380 0.930 . S
C1390 C1388 1.419 . S
C1390 C1391 1.362 . S
C1391 H1381 0.930 . S
C1391 C1384 1.409 . S
C1391 C1390 1.362 . S
H1392 C1398 0.930 . S
H1393 C1401 0.930 . S
H1394 C1402 0.930 . S
H1395 C1403 0.930 . S
H1396 C1406 0.930 . S
H1397 C1407 0.930 . S
C1398 H1392 0.930 . S
C1398 C1399 1.355 . S
C1398 C1400 1.415 . S
C1399 C1398 1.355 . S
C1399 C1401 1.419 . S
C1400 C1398 1.415 . S
C1400 C1405 1.425 . S
C1400 C1407 1.409 . S
C1401 H1393 0.930 . S
C1401 C1399 1.419 . S
C1401 C1402 1.362 . S
C1402 H1394 0.930 . S
C1402 C1401 1.362 . S
C1402 C1405 1.409 . S
C1403 H1395 0.930 . S
C1403 C1404 1.355 . S
C1403 C1405 1.415 . S
C1404 C1403 1.355 . S
C1404 C1406 1.419 . S
C1405 C1400 1.425 . S
C1405 C1402 1.409 . S
C1405 C1403 1.415 . S
C1406 H1396 0.930 . S
C1406 C1404 1.419 . S
C1406 C1407 1.362 . S
C1407 H1397 0.930 . S
C1407 C1400 1.409 . S
C1407 C1406 1.362 . S
H1408 C1414 0.930 . S
H1409 C1417 0.930 . S
H1410 C1418 0.930 . S
H1411 C1419 0.930 . S
H1412 C1422 0.930 . S
H1413 C1423 0.930 . S
C1414 H1408 0.930 . S
C1414 C1415 1.355 . S
C1414 C1416 1.415 . S
C1415 C1414 1.355 . S
C1415 C1417 1.419 . S
C1416 C1414 1.415 . S
C1416 C1421 1.425 . S
C1416 C1423 1.409 . S
C1417 H1409 0.930 . S
C1417 C1415 1.419 . S
C1417 C1418 1.362 . S
C1418 H1410 0.930 . S
C1418 C1417 1.362 . S
C1418 C1421 1.409 . S
C1419 H1411 0.930 . S
C1419 C1420 1.355 . S
C1419 C1421 1.415 . S
C1420 C1419 1.355 . S
C1420 C1422 1.419 . S
C1421 C1416 1.425 . S
C1421 C1418 1.409 . S
C1421 C1419 1.415 . S
C1422 H1412 0.930 . S
C1422 C1420 1.419 . S
C1422 C1423 1.362 . S
C1423 H1413 0.930 . S
C1423 C1416 1.409 . S
C1423 C1422 1.362 . S
H1424 C1430 0.930 . S
H1425 C1433 0.930 . S
H1426 C1434 0.930 . S
H1427 C1435 0.930 . S
H1428 C1438 0.930 . S
H1429 C1439 0.930 . S
C1430 H1424 0.930 . S
C1430 C1431 1.355 . S
C1430 C1432 1.415 . S
C1431 C1430 1.355 . S
C1431 C1433 1.419 . S
C1432 C1430 1.415 . S
C1432 C1437 1.425 . S
C1432 C1439 1.409 . S
C1433 H1425 0.930 . S
C1433 C1431 1.419 . S
C1433 C1434 1.362 . S
C1434 H1426 0.930 . S
C1434 C1433 1.362 . S
C1434 C1437 1.409 . S
C1435 H1427 0.930 . S
C1435 C1436 1.355 . S
C1435 C1437 1.415 . S
C1436 C1435 1.355 . S
C1436 C1438 1.419 . S
C1437 C1432 1.425 . S
C1437 C1434 1.409 . S
C1437 C1435 1.415 . S
C1438 H1428 0.930 . S
C1438 C1436 1.419 . S
C1438 C1439 1.362 . S
C1439 H1429 0.930 . S
C1439 C1432 1.409 . S
C1439 C1438 1.362 . S
H1440 C1446 0.930 . S
H1441 C1449 0.930 . S
H1442 C1450 0.930 . S
H1443 C1451 0.930 . S
H1444 C1454 0.930 . S
H1445 C1455 0.930 . S
C1446 H1440 0.930 . S
C1446 C1447 1.355 . S
C1446 C1448 1.415 . S
C1447 C1446 1.355 . S
C1447 C1449 1.419 . S
C1448 C1446 1.415 . S
C1448 C1453 1.425 . S
C1448 C1455 1.409 . S
C1449 H1441 0.930 . S
C1449 C1447 1.419 . S
C1449 C1450 1.362 . S
C1450 H1442 0.930 . S
C1450 C1449 1.362 . S
C1450 C1453 1.409 . S
C1451 H1443 0.930 . S
C1451 C1452 1.355 . S
C1451 C1453 1.415 . S
C1452 C1451 1.355 . S
C1452 C1454 1.419 . S
C1453 C1448 1.425 . S
C1453 C1450 1.409 . S
C1453 C1451 1.415 . S
C1454 H1444 0.930 . S
C1454 C1452 1.419 . S
C1454 C1455 1.362 . S
C1455 H1445 0.930 . S
C1455 C1448 1.409 . S
C1455 C1454 1.362 . S
H1456 C1462 0.930 . S
H1457 C1465 0.930 . S
H1458 C1466 0.930 . S
H1459 C1467 0.930 . S
H1460 C1470 0.930 . S
H1461 C1471 0.930 . S
C1462 H1456 0.930 . S
C1462 C1463 1.355 . S
C1462 C1464 1.415 . S
C1463 C1462 1.355 . S
C1463 C1465 1.419 . S
C1464 C1462 1.415 . S
C1464 C1469 1.425 . S
C1464 C1471 1.409 . S
C1465 H1457 0.930 . S
C1465 C1463 1.419 . S
C1465 C1466 1.362 . S
C1466 H1458 0.930 . S
C1466 C1465 1.362 . S
C1466 C1469 1.409 . S
C1467 H1459 0.930 . S
C1467 C1468 1.355 . S
C1467 C1469 1.415 . S
C1468 C1467 1.355 . S
C1468 C1470 1.419 . S
C1469 C1464 1.425 . S
C1469 C1466 1.409 . S
C1469 C1467 1.415 . S
C1470 H1460 0.930 . S
C1470 C1468 1.419 . S
C1470 C1471 1.362 . S
C1471 H1461 0.930 . S
C1471 C1464 1.409 . S
C1471 C1470 1.362 . S
H1472 C1478 0.930 . S
H1473 C1481 0.930 . S
H1474 C1482 0.930 . S
H1475 C1483 0.930 . S
H1476 C1486 0.930 . S
H1477 C1487 0.930 . S
C1478 H1472 0.930 . S
C1478 C1479 1.355 . S
C1478 C1480 1.415 . S
C1479 C1478 1.355 . S
C1479 C1481 1.419 . S
C1480 C1478 1.415 . S
C1480 C1485 1.425 . S
C1480 C1487 1.409 . S
C1481 H1473 0.930 . S
C1481 C1479 1.419 . S
C1481 C1482 1.362 . S
C1482 H1474 0.930 . S
C1482 C1481 1.362 . S
C1482 C1485 1.409 . S
C1483 H1475 0.930 . S
C1483 C1484 1.355 . S
C1483 C1485 1.415 . S
C1484 C1483 1.355 . S
C1484 C1486 1.419 . S
C1485 C1480 1.425 . S
C1485 C1482 1.409 . S
C1485 C1483 1.415 . S
C1486 H1476 0.930 . S
C1486 C1484 1.419 . S
C1486 C1487 1.362 . S
C1487 H1477 0.930 . S
C1487 C1480 1.409 . S
C1487 C1486 1.362 . S
H1488 C1494 0.930 . S
H1489 C1497 0.930 . S
H1490 C1498 0.930 . S
H1491 C1499 0.930 . S
H1492 C1502 0.930 . S
H1493 C1503 0.930 . S
C1494 H1488 0.930 . S
C1494 C1495 1.355 . S
C1494 C1496 1.415 . S
C1495 C1494 1.355 . S
C1495 C1497 1.419 . S
C1496 C1494 1.415 . S
C1496 C1501 1.425 . S
C1496 C1503 1.409 . S
C1497 H1489 0.930 . S
C1497 C1495 1.419 . S
C1497 C1498 1.362 . S
C1498 H1490 0.930 . S
C1498 C1497 1.362 . S
C1498 C1501 1.409 . S
C1499 H1491 0.930 . S
C1499 C1500 1.355 . S
C1499 C1501 1.415 . S
C1500 C1499 1.355 . S
C1500 C1502 1.419 . S
C1501 C1496 1.425 . S
C1501 C1498 1.409 . S
C1501 C1499 1.415 . S
C1502 H1492 0.930 . S
C1502 C1500 1.419 . S
C1502 C1503 1.362 . S
C1503 H1493 0.930 . S
C1503 C1496 1.409 . S
C1503 C1502 1.362 . S
H1504 C1510 0.930 . S
H1505 C1513 0.930 . S
H1506 C1514 0.930 . S
H1507 C1515 0.930 1_655 S
H1508 C1518 0.930 . S
H1509 C1519 0.930 . S
C1510 H1504 0.930 . S
C1510 C1511 1.355 . S
C1510 C1512 1.415 . S
C1511 C1510 1.355 . S
C1511 C1513 1.419 1_455 S
C1512 C1510 1.415 . S
C1512 C1517 1.425 . S
C1512 C1519 1.409 . S
C1513 H1505 0.930 . S
C1513 C1511 1.419 1_655 S
C1513 C1514 1.362 . S
C1514 H1506 0.930 . S
C1514 C1513 1.362 . S
C1514 C1517 1.409 1_655 S
C1515 H1507 0.930 1_455 S
C1515 C1516 1.355 . S
C1515 C1517 1.415 . S
C1516 C1515 1.355 . S
C1516 C1518 1.419 . S
C1517 C1512 1.425 . S
C1517 C1514 1.409 1_455 S
C1517 C1515 1.415 . S
C1518 H1508 0.930 . S
C1518 C1516 1.419 . S
C1518 C1519 1.362 . S
C1519 H1509 0.930 . S
C1519 C1512 1.409 . S
C1519 C1518 1.362 . S
H1520 C1526 0.930 . S
H1521 C1529 0.930 . S
H1522 C1530 0.930 . S
H1523 C1531 0.930 . S
H1524 C1534 0.930 . S
H1525 C1535 0.930 . S
C1526 H1520 0.930 . S
C1526 C1527 1.355 . S
C1526 C1528 1.415 . S
C1527 C1526 1.355 . S
C1527 C1529 1.419 . S
C1528 C1526 1.415 . S
C1528 C1533 1.425 . S
C1528 C1535 1.409 . S
C1529 H1521 0.930 . S
C1529 C1527 1.419 . S
C1529 C1530 1.362 . S
C1530 H1522 0.930 . S
C1530 C1529 1.362 . S
C1530 C1533 1.409 . S
C1531 H1523 0.930 . S
C1531 C1532 1.355 . S
C1531 C1533 1.415 . S
C1532 C1531 1.355 . S
C1532 C1534 1.419 . S
C1533 C1528 1.425 . S
C1533 C1530 1.409 . S
C1533 C1531 1.415 . S
C1534 H1524 0.930 . S
C1534 C1532 1.419 . S
C1534 C1535 1.362 . S
C1535 H1525 0.930 . S
C1535 C1528 1.409 . S
C1535 C1534 1.362 . S
H1536 C1542 0.930 . S
H1537 C1545 0.930 . S
H1538 C1546 0.930 . S
H1539 C1547 0.930 1_554 S
H1540 C1550 0.930 . S
H1541 C1551 0.930 . S
C1542 H1536 0.930 . S
C1542 C1543 1.355 . S
C1542 C1544 1.415 . S
C1543 C1542 1.355 . S
C1543 C1545 1.419 . S
C1544 C1542 1.415 . S
C1544 C1549 1.425 . S
C1544 C1551 1.409 . S
C1545 H1537 0.930 . S
C1545 C1543 1.419 . S
C1545 C1546 1.362 . S
C1546 H1538 0.930 . S
C1546 C1545 1.362 . S
C1546 C1549 1.409 . S
C1547 H1539 0.930 1_556 S
C1547 C1548 1.355 . S
C1547 C1549 1.415 . S
C1548 C1547 1.355 . S
C1548 C1550 1.419 . S
C1549 C1544 1.425 . S
C1549 C1546 1.409 . S
C1549 C1547 1.415 . S
C1550 H1540 0.930 . S
C1550 C1548 1.419 . S
C1550 C1551 1.362 . S
C1551 H1541 0.930 . S
C1551 C1544 1.409 . S
C1551 C1550 1.362 . S
H1552 C1558 0.930 . S
H1553 C1561 0.930 . S
H1554 C1562 0.930 . S
H1555 C1563 0.930 . S
H1556 C1566 0.930 . S
H1557 C1567 0.930 . S
C1558 H1552 0.930 . S
C1558 C1559 1.355 . S
C1558 C1560 1.415 . S
C1559 C1558 1.355 . S
C1559 C1561 1.419 . S
C1560 C1558 1.415 . S
C1560 C1565 1.425 . S
C1560 C1567 1.409 . S
C1561 H1553 0.930 . S
C1561 C1559 1.419 . S
C1561 C1562 1.362 . S
C1562 H1554 0.930 . S
C1562 C1561 1.362 . S
C1562 C1565 1.409 . S
C1563 H1555 0.930 . S
C1563 C1564 1.355 . S
C1563 C1565 1.415 . S
C1564 C1563 1.355 . S
C1564 C1566 1.419 . S
C1565 C1560 1.425 . S
C1565 C1562 1.409 . S
C1565 C1563 1.415 . S
C1566 H1556 0.930 . S
C1566 C1564 1.419 . S
C1566 C1567 1.362 . S
C1567 H1557 0.930 . S
C1567 C1560 1.409 . S
C1567 C1566 1.362 . S
H1568 C1574 0.930 . S
H1569 C1577 0.928 . S
H1570 C1578 0.930 1_655 S
H1571 C1579 0.930 . S
H1572 C1582 0.930 . S
H1573 C1583 0.930 . S
C1574 H1568 0.930 . S
C1574 C1575 1.355 . S
C1574 C1576 1.415 . S
C1575 C1574 1.355 . S
C1575 C1577 1.421 1_455 S
C1576 C1574 1.415 . S
C1576 C1581 1.425 . S
C1576 C1583 1.409 . S
C1577 H1569 0.928 . S
C1577 C1575 1.421 1_655 S
C1577 C1578 1.363 1_655 S
C1578 H1570 0.930 1_455 S
C1578 C1577 1.363 1_455 S
C1578 C1581 1.409 . S
C1579 H1571 0.930 . S
C1579 C1580 1.355 . S
C1579 C1581 1.415 . S
C1580 C1579 1.355 . S
C1580 C1582 1.419 . S
C1581 C1576 1.425 . S
C1581 C1578 1.409 . S
C1581 C1579 1.415 . S
C1582 H1572 0.930 . S
C1582 C1580 1.419 . S
C1582 C1583 1.362 . S
C1583 H1573 0.930 . S
C1583 C1576 1.409 . S
C1583 C1582 1.362 . S
H1584 C1590 0.930 . S
H1585 C1593 0.930 . S
H1586 C1594 0.930 . S
H1587 C1595 0.930 . S
H1588 C1598 0.930 . S
H1589 C1599 0.930 . S
C1590 H1584 0.930 . S
C1590 C1591 1.355 . S
C1590 C1592 1.415 . S
C1591 C1590 1.355 . S
C1591 C1593 1.419 . S
C1592 C1590 1.415 . S
C1592 C1597 1.425 . S
C1592 C1599 1.409 . S
C1593 H1585 0.930 . S
C1593 C1591 1.419 . S
C1593 C1594 1.362 . S
C1594 H1586 0.930 . S
C1594 C1593 1.362 . S
C1594 C1597 1.409 . S
C1595 H1587 0.930 . S
C1595 C1596 1.355 . S
C1595 C1597 1.415 . S
C1596 C1595 1.355 . S
C1596 C1598 1.419 . S
C1597 C1592 1.425 . S
C1597 C1594 1.409 . S
C1597 C1595 1.415 . S
C1598 H1588 0.930 . S
C1598 C1596 1.419 . S
C1598 C1599 1.362 . S
C1599 H1589 0.930 . S
C1599 C1592 1.409 . S
C1599 C1598 1.362 . S
H1600 C1606 0.930 . S
H1601 C1609 0.930 . S
H1602 C1610 0.930 . S
H1603 C1611 0.930 . S
H1604 C1614 0.930 . S
H1605 C1615 0.930 . S
C1606 H1600 0.930 . S
C1606 C1607 1.355 . S
C1606 C1608 1.415 . S
C1607 C1606 1.355 . S
C1607 C1609 1.419 . S
C1608 C1606 1.415 . S
C1608 C1613 1.425 . S
C1608 C1615 1.409 . S
C1609 H1601 0.930 . S
C1609 C1607 1.419 . S
C1609 C1610 1.362 . S
C1610 H1602 0.930 . S
C1610 C1609 1.362 . S
C1610 C1613 1.409 . S
C1611 H1603 0.930 . S
C1611 C1612 1.355 . S
C1611 C1613 1.415 . S
C1612 C1611 1.355 . S
C1612 C1614 1.419 . S
C1613 C1608 1.425 . S
C1613 C1610 1.409 . S
C1613 C1611 1.415 . S
C1614 H1604 0.930 . S
C1614 C1612 1.419 . S
C1614 C1615 1.362 . S
C1615 H1605 0.930 . S
C1615 C1608 1.409 . S
C1615 C1614 1.362 . S
H1616 C1622 0.930 . S
H1617 C1625 0.930 . S
H1618 C1626 0.930 . S
H1619 C1627 0.930 . S
H1620 C1630 0.930 . S
H1621 C1631 0.930 . S
C1622 H1616 0.930 . S
C1622 C1623 1.355 . S
C1622 C1624 1.415 . S
C1623 C1622 1.355 . S
C1623 C1625 1.419 . S
C1624 C1622 1.415 . S
C1624 C1629 1.425 . S
C1624 C1631 1.409 . S
C1625 H1617 0.930 . S
C1625 C1623 1.419 . S
C1625 C1626 1.362 . S
C1626 H1618 0.930 . S
C1626 C1625 1.362 . S
C1626 C1629 1.409 . S
C1627 H1619 0.930 . S
C1627 C1628 1.355 . S
C1627 C1629 1.415 . S
C1628 C1627 1.355 . S
C1628 C1630 1.419 . S
C1629 C1624 1.425 . S
C1629 C1626 1.409 . S
C1629 C1627 1.415 . S
C1630 H1620 0.930 . S
C1630 C1628 1.419 . S
C1630 C1631 1.362 . S
C1631 H1621 0.930 . S
C1631 C1624 1.409 . S
C1631 C1630 1.362 . S
H1632 C1638 0.930 . S
H1633 C1641 0.930 . S
H1634 C1642 0.930 . S
H1635 C1643 0.930 . S
H1636 C1646 0.944 . S
H1637 C1647 0.923 1_455 S
C1638 H1632 0.930 . S
C1638 C1639 1.355 . S
C1638 C1640 1.415 . S
C1639 C1638 1.355 . S
C1639 C1641 1.419 . S
C1640 C1638 1.415 . S
C1640 C1645 1.425 . S
C1640 C1647 1.409 . S
C1641 H1633 0.930 . S
C1641 C1639 1.419 . S
C1641 C1642 1.362 . S
C1642 H1634 0.930 . S
C1642 C1641 1.362 . S
C1642 C1645 1.409 . S
C1643 H1635 0.930 . S
C1643 C1644 1.355 . S
C1643 C1645 1.415 . S
C1644 C1643 1.355 . S
C1644 C1646 1.411 1_655 S
C1645 C1640 1.425 . S
C1645 C1642 1.409 . S
C1645 C1643 1.415 . S
C1646 H1636 0.944 . S
C1646 C1644 1.411 1_455 S
C1646 C1647 1.357 1_455 S
C1647 H1637 0.923 1_655 S
C1647 C1640 1.409 . S
C1647 C1646 1.357 1_655 S
H1648 C1654 0.930 . S
H1649 C1657 0.930 . S
H1650 C1658 0.930 . S
H1651 C1659 0.930 . S
H1652 C1662 0.930 . S
H1653 C1663 0.930 . S
C1654 H1648 0.930 . S
C1654 C1655 1.355 . S
C1654 C1656 1.415 . S
C1655 C1654 1.355 . S
C1655 C1657 1.419 . S
C1656 C1654 1.415 . S
C1656 C1661 1.425 . S
C1656 C1663 1.409 . S
C1657 H1649 0.930 . S
C1657 C1655 1.419 . S
C1657 C1658 1.362 . S
C1658 H1650 0.930 . S
C1658 C1657 1.362 . S
C1658 C1661 1.409 . S
C1659 H1651 0.930 . S
C1659 C1660 1.355 . S
C1659 C1661 1.415 . S
C1660 C1659 1.355 . S
C1660 C1662 1.419 . S
C1661 C1656 1.425 . S
C1661 C1658 1.409 . S
C1661 C1659 1.415 . S
C1662 H1652 0.930 . S
C1662 C1660 1.419 . S
C1662 C1663 1.362 . S
C1663 H1653 0.930 . S
C1663 C1656 1.409 . S
C1663 C1662 1.362 . S
H1664 C1670 0.930 . S
H1665 C1673 0.930 . S
H1666 C1674 0.930 . S
H1667 C1675 0.930 . S
H1668 C1678 0.930 . S
H1669 C1679 0.930 . S
C1670 H1664 0.930 . S
C1670 C1671 1.355 . S
C1670 C1672 1.415 . S
C1671 C1670 1.355 . S
C1671 C1673 1.419 . S
C1672 C1670 1.415 . S
C1672 C1677 1.425 . S
C1672 C1679 1.409 . S
C1673 H1665 0.930 . S
C1673 C1671 1.419 . S
C1673 C1674 1.362 . S
C1674 H1666 0.930 . S
C1674 C1673 1.362 . S
C1674 C1677 1.409 . S
C1675 H1667 0.930 . S
C1675 C1676 1.355 . S
C1675 C1677 1.415 . S
C1676 C1675 1.355 . S
C1676 C1678 1.419 . S
C1677 C1672 1.425 . S
C1677 C1674 1.409 . S
C1677 C1675 1.415 . S
C1678 H1668 0.930 . S
C1678 C1676 1.419 . S
C1678 C1679 1.362 . S
C1679 H1669 0.930 . S
C1679 C1672 1.409 . S
C1679 C1678 1.362 . S
H1680 C1686 0.930 . S
H1681 C1689 0.930 . S
H1682 C1690 0.930 . S
H1683 C1691 0.930 . S
H1684 C1694 0.930 . S
H1685 C1695 0.930 . S
C1686 H1680 0.930 . S
C1686 C1687 1.355 . S
C1686 C1688 1.415 . S
C1687 C1686 1.355 . S
C1687 C1689 1.419 . S
C1688 C1686 1.415 . S
C1688 C1693 1.425 . S
C1688 C1695 1.409 . S
C1689 H1681 0.930 . S
C1689 C1687 1.419 . S
C1689 C1690 1.362 . S
C1690 H1682 0.930 . S
C1690 C1689 1.362 . S
C1690 C1693 1.409 . S
C1691 H1683 0.930 . S
C1691 C1692 1.355 . S
C1691 C1693 1.415 . S
C1692 C1691 1.355 . S
C1692 C1694 1.419 . S
C1693 C1688 1.425 . S
C1693 C1690 1.409 . S
C1693 C1691 1.415 . S
C1694 H1684 0.930 . S
C1694 C1692 1.419 . S
C1694 C1695 1.362 . S
C1695 H1685 0.930 . S
C1695 C1688 1.409 . S
C1695 C1694 1.362 . S
H1696 C1702 0.930 . S
H1697 C1705 0.930 . S
H1698 C1706 0.930 . S
H1699 C1707 0.930 . S
H1700 C1710 0.930 . S
H1701 C1711 0.930 . S
C1702 H1696 0.930 . S
C1702 C1703 1.355 . S
C1702 C1704 1.415 . S
C1703 C1702 1.355 . S
C1703 C1705 1.419 . S
C1704 C1702 1.415 . S
C1704 C1709 1.425 . S
C1704 C1711 1.409 . S
C1705 H1697 0.930 . S
C1705 C1703 1.419 . S
C1705 C1706 1.362 . S
C1706 H1698 0.930 . S
C1706 C1705 1.362 . S
C1706 C1709 1.409 . S
C1707 H1699 0.930 . S
C1707 C1708 1.355 . S
C1707 C1709 1.415 . S
C1708 C1707 1.355 . S
C1708 C1710 1.419 . S
C1709 C1704 1.425 . S
C1709 C1706 1.409 . S
C1709 C1707 1.415 . S
C1710 H1700 0.930 . S
C1710 C1708 1.419 . S
C1710 C1711 1.362 . S
C1711 H1701 0.930 . S
C1711 C1704 1.409 . S
C1711 C1710 1.362 . S
H1712 C1718 0.930 . S
H1713 C1721 0.930 . S
H1714 C1722 0.930 . S
H1715 C1723 0.930 . S
H1716 C1726 0.930 . S
H1717 C1727 0.930 . S
C1718 H1712 0.930 . S
C1718 C1719 1.355 . S
C1718 C1720 1.415 . S
C1719 C1718 1.355 . S
C1719 C1721 1.419 . S
C1720 C1718 1.415 . S
C1720 C1725 1.425 . S
C1720 C1727 1.409 . S
C1721 H1713 0.930 . S
C1721 C1719 1.419 . S
C1721 C1722 1.362 . S
C1722 H1714 0.930 . S
C1722 C1721 1.362 . S
C1722 C1725 1.409 . S
C1723 H1715 0.930 . S
C1723 C1724 1.355 . S
C1723 C1725 1.415 . S
C1724 C1723 1.355 . S
C1724 C1726 1.419 . S
C1725 C1720 1.425 . S
C1725 C1722 1.409 . S
C1725 C1723 1.415 . S
C1726 H1716 0.930 . S
C1726 C1724 1.419 . S
C1726 C1727 1.362 . S
C1727 H1717 0.930 . S
C1727 C1720 1.409 . S
C1727 C1726 1.362 . S
H1728 C1734 0.930 . S
H1729 C1737 0.930 . S
H1730 C1738 0.930 . S
H1731 C1739 0.930 . S
H1732 C1742 0.930 . S
H1733 C1743 0.930 . S
C1734 H1728 0.930 . S
C1734 C1735 1.355 . S
C1734 C1736 1.415 . S
C1735 C1734 1.355 . S
C1735 C1737 1.419 . S
C1736 C1734 1.415 . S
C1736 C1741 1.425 . S
C1736 C1743 1.409 . S
C1737 H1729 0.930 . S
C1737 C1735 1.419 . S
C1737 C1738 1.362 . S
C1738 H1730 0.930 . S
C1738 C1737 1.362 . S
C1738 C1741 1.409 . S
C1739 H1731 0.930 . S
C1739 C1740 1.355 . S
C1739 C1741 1.415 . S
C1740 C1739 1.355 . S
C1740 C1742 1.419 . S
C1741 C1736 1.425 . S
C1741 C1738 1.409 . S
C1741 C1739 1.415 . S
C1742 H1732 0.930 . S
C1742 C1740 1.419 . S
C1742 C1743 1.362 . S
C1743 H1733 0.930 . S
C1743 C1736 1.409 . S
C1743 C1742 1.362 . S
H1744 C1750 0.930 . S
H1745 C1753 0.930 . S
H1746 C1754 0.933 . S
H1747 C1755 0.930 1_545 S
H1748 C1758 0.930 . S
H1749 C1759 0.930 . S
C1750 H1744 0.930 . S
C1750 C1751 1.355 . S
C1750 C1752 1.415 . S
C1751 C1750 1.355 . S
C1751 C1753 1.419 . S
C1752 C1750 1.415 . S
C1752 C1757 1.425 . S
C1752 C1759 1.409 . S
C1753 H1745 0.930 . S
C1753 C1751 1.419 . S
C1753 C1754 1.362 . S
C1754 H1746 0.933 . S
C1754 C1753 1.362 . S
C1754 C1757 1.409 . S
C1755 H1747 0.930 1_565 S
C1755 C1756 1.355 . S
C1755 C1757 1.415 . S
C1756 C1755 1.355 . S
C1756 C1758 1.419 . S
C1757 C1752 1.425 . S
C1757 C1754 1.409 . S
C1757 C1755 1.415 . S
C1758 H1748 0.930 . S
C1758 C1756 1.419 . S
C1758 C1759 1.362 . S
C1759 H1749 0.930 . S
C1759 C1752 1.409 . S
C1759 C1758 1.362 . S
H1760 C1766 0.930 . S
H1761 C1769 0.930 . S
H1762 C1770 0.930 . S
H1763 C1771 0.930 . S
H1764 C1774 0.930 . S
H1765 C1775 0.930 . S
C1766 H1760 0.930 . S
C1766 C1767 1.355 . S
C1766 C1768 1.415 . S
C1767 C1766 1.355 . S
C1767 C1769 1.419 . S
C1768 C1766 1.415 . S
C1768 C1773 1.425 . S
C1768 C1775 1.409 . S
C1769 H1761 0.930 . S
C1769 C1767 1.419 . S
C1769 C1770 1.362 . S
C1770 H1762 0.930 . S
C1770 C1769 1.362 . S
C1770 C1773 1.409 . S
C1771 H1763 0.930 . S
C1771 C1772 1.355 . S
C1771 C1773 1.415 . S
C1772 C1771 1.355 . S
C1772 C1774 1.419 . S
C1773 C1768 1.425 . S
C1773 C1770 1.409 . S
C1773 C1771 1.415 . S
C1774 H1764 0.930 . S
C1774 C1772 1.419 . S
C1774 C1775 1.362 . S
C1775 H1765 0.930 . S
C1775 C1768 1.409 . S
C1775 C1774 1.362 . S
H1776 C1782 0.930 . S
H1777 C1785 0.930 . S
H1778 C1786 0.930 . S
H1779 C1787 0.930 . S
H1780 C1790 0.930 . S
H1781 C1791 0.930 . S
C1782 H1776 0.930 . S
C1782 C1783 1.355 . S
C1782 C1784 1.415 . S
C1783 C1782 1.355 . S
C1783 C1785 1.419 1_554 S
C1784 C1782 1.415 . S
C1784 C1789 1.425 . S
C1784 C1791 1.409 . S
C1785 H1777 0.930 . S
C1785 C1783 1.419 1_556 S
C1785 C1786 1.362 . S
C1786 H1778 0.930 . S
C1786 C1785 1.362 . S
C1786 C1789 1.409 1_556 S
C1787 H1779 0.930 . S
C1787 C1788 1.355 . S
C1787 C1789 1.415 . S
C1788 C1787 1.355 . S
C1788 C1790 1.419 . S
C1789 C1784 1.425 . S
C1789 C1786 1.409 1_554 S
C1789 C1787 1.415 . S
C1790 H1780 0.930 . S
C1790 C1788 1.419 . S
C1790 C1791 1.362 . S
C1791 H1781 0.930 . S
C1791 C1784 1.409 . S
C1791 C1790 1.362 . S
H1792 C1798 0.930 . S
H1793 C1801 0.930 . S
H1794 C1802 0.930 . S
H1795 C1803 0.930 . S
H1796 C1806 0.930 . S
H1797 C1807 0.930 . S
C1798 H1792 0.930 . S
C1798 C1799 1.355 . S
C1798 C1800 1.415 . S
C1799 C1798 1.355 . S
C1799 C1801 1.419 . S
C1800 C1798 1.415 . S
C1800 C1805 1.425 . S
C1800 C1807 1.409 . S
C1801 H1793 0.930 . S
C1801 C1799 1.419 . S
C1801 C1802 1.362 . S
C1802 H1794 0.930 . S
C1802 C1801 1.362 . S
C1802 C1805 1.409 . S
C1803 H1795 0.930 . S
C1803 C1804 1.355 . S
C1803 C1805 1.415 . S
C1804 C1803 1.355 . S
C1804 C1806 1.419 . S
C1805 C1800 1.425 . S
C1805 C1802 1.409 . S
C1805 C1803 1.415 . S
C1806 H1796 0.930 . S
C1806 C1804 1.419 . S
C1806 C1807 1.362 . S
C1807 H1797 0.930 . S
C1807 C1800 1.409 . S
C1807 C1806 1.362 . S
H1808 C1814 0.930 . S
H1809 C1817 0.930 . S
H1810 C1818 0.930 . S
H1811 C1819 0.930 . S
H1812 C1822 0.930 . S
H1813 C1823 0.928 . S
C1814 H1808 0.930 . S
C1814 C1815 1.355 . S
C1814 C1816 1.415 . S
C1815 C1814 1.355 . S
C1815 C1817 1.419 . S
C1816 C1814 1.415 . S
C1816 C1821 1.427 . S
C1816 C1823 1.409 . S
C1817 H1809 0.930 . S
C1817 C1815 1.419 . S
C1817 C1818 1.362 . S
C1818 H1810 0.930 . S
C1818 C1817 1.362 . S
C1818 C1821 1.410 . S
C1819 H1811 0.930 . S
C1819 C1820 1.355 . S
C1819 C1821 1.412 1_556 S
C1820 C1819 1.355 . S
C1820 C1822 1.419 . S
C1821 C1816 1.427 . S
C1821 C1818 1.410 . S
C1821 C1819 1.412 1_554 S
C1822 H1812 0.930 . S
C1822 C1820 1.419 . S
C1822 C1823 1.362 1_556 S
C1823 H1813 0.928 . S
C1823 C1816 1.409 . S
C1823 C1822 1.362 1_554 S
H1824 C1830 0.930 . S
H1825 C1833 0.930 . S
H1826 C1834 0.930 . S
H1827 C1835 0.930 . S
H1828 C1838 0.930 . S
H1829 C1839 0.930 . S
C1830 H1824 0.930 . S
C1830 C1831 1.355 . S
C1830 C1832 1.415 . S
C1831 C1830 1.355 . S
C1831 C1833 1.419 . S
C1832 C1830 1.415 . S
C1832 C1837 1.425 . S
C1832 C1839 1.409 . S
C1833 H1825 0.930 . S
C1833 C1831 1.419 . S
C1833 C1834 1.362 . S
C1834 H1826 0.930 . S
C1834 C1833 1.362 . S
C1834 C1837 1.409 . S
C1835 H1827 0.930 . S
C1835 C1836 1.355 . S
C1835 C1837 1.415 . S
C1836 C1835 1.355 . S
C1836 C1838 1.419 . S
C1837 C1832 1.425 . S
C1837 C1834 1.409 . S
C1837 C1835 1.415 . S
C1838 H1828 0.930 . S
C1838 C1836 1.419 . S
C1838 C1839 1.362 . S
C1839 H1829 0.930 . S
C1839 C1832 1.409 . S
C1839 C1838 1.362 . S
H1840 C1846 0.930 . S
H1841 C1849 0.930 . S
H1842 C1850 0.930 . S
H1843 C1851 0.930 . S
H1844 C1854 0.930 . S
H1845 C1855 0.930 . S
C1846 H1840 0.930 . S
C1846 C1847 1.355 . S
C1846 C1848 1.415 . S
C1847 C1846 1.355 . S
C1847 C1849 1.419 . S
C1848 C1846 1.415 . S
C1848 C1853 1.425 . S
C1848 C1855 1.409 . S
C1849 H1841 0.930 . S
C1849 C1847 1.419 . S
C1849 C1850 1.362 . S
C1850 H1842 0.930 . S
C1850 C1849 1.362 . S
C1850 C1853 1.409 . S
C1851 H1843 0.930 . S
C1851 C1852 1.355 . S
C1851 C1853 1.415 . S
C1852 C1851 1.355 . S
C1852 C1854 1.419 . S
C1853 C1848 1.425 . S
C1853 C1850 1.409 . S
C1853 C1851 1.415 . S
C1854 H1844 0.930 . S
C1854 C1852 1.419 . S
C1854 C1855 1.362 . S
C1855 H1845 0.930 . S
C1855 C1848 1.409 . S
C1855 C1854 1.362 . S
H1856 C1862 0.930 . S
H1857 C1865 0.930 . S
H1858 C1866 0.930 . S
H1859 C1867 0.930 . S
H1860 C1870 0.930 . S
H1861 C1871 0.930 . S
C1862 H1856 0.930 . S
C1862 C1863 1.355 . S
C1862 C1864 1.415 . S
C1863 C1862 1.355 . S
C1863 C1865 1.419 . S
C1864 C1862 1.415 . S
C1864 C1869 1.425 . S
C1864 C1871 1.409 . S
C1865 H1857 0.930 . S
C1865 C1863 1.419 . S
C1865 C1866 1.362 . S
C1866 H1858 0.930 . S
C1866 C1865 1.362 . S
C1866 C1869 1.409 . S
C1867 H1859 0.930 . S
C1867 C1868 1.355 . S
C1867 C1869 1.415 . S
C1868 C1867 1.355 . S
C1868 C1870 1.419 . S
C1869 C1864 1.425 . S
C1869 C1866 1.409 . S
C1869 C1867 1.415 . S
C1870 H1860 0.930 . S
C1870 C1868 1.419 . S
C1870 C1871 1.362 . S
C1871 H1861 0.930 . S
C1871 C1864 1.409 . S
C1871 C1870 1.362 . S
H1872 C1878 0.930 . S
H1873 C1881 0.930 . S
H1874 C1882 0.930 . S
H1875 C1883 0.930 . S
H1876 C1886 0.930 . S
H1877 C1887 0.930 . S
C1878 H1872 0.930 . S
C1878 C1879 1.355 . S
C1878 C1880 1.415 . S
C1879 C1878 1.355 . S
C1879 C1881 1.419 . S
C1880 C1878 1.415 . S
C1880 C1885 1.425 . S
C1880 C1887 1.409 . S
C1881 H1873 0.930 . S
C1881 C1879 1.419 . S
C1881 C1882 1.362 . S
C1882 H1874 0.930 . S
C1882 C1881 1.362 . S
C1882 C1885 1.409 . S
C1883 H1875 0.930 . S
C1883 C1884 1.355 . S
C1883 C1885 1.415 . S
C1884 C1883 1.355 . S
C1884 C1886 1.419 . S
C1885 C1880 1.425 . S
C1885 C1882 1.409 . S
C1885 C1883 1.415 . S
C1886 H1876 0.930 . S
C1886 C1884 1.419 . S
C1886 C1887 1.362 . S
C1887 H1877 0.930 . S
C1887 C1880 1.409 . S
C1887 C1886 1.362 . S
H1888 C1894 0.930 . S
H1889 C1897 0.930 . S
H1890 C1898 0.945 . S
H1891 C1899 0.930 1_554 S
H1892 C1902 0.930 . S
H1893 C1903 0.930 . S
C1894 H1888 0.930 . S
C1894 C1895 1.355 1_655 S
C1894 C1896 1.415 . S
C1895 C1894 1.355 1_455 S
C1895 C1897 1.419 . S
C1896 C1894 1.415 . S
C1896 C1901 1.425 1_655 S
C1896 C1903 1.409 . S
C1897 H1889 0.930 . S
C1897 C1895 1.419 . S
C1897 C1898 1.362 . S
C1898 H1890 0.945 . S
C1898 C1897 1.362 . S
C1898 C1901 1.409 . S
C1899 H1891 0.930 1_556 S
C1899 C1900 1.355 1_455 S
C1899 C1901 1.415 . S
C1900 C1899 1.355 1_655 S
C1900 C1902 1.419 . S
C1901 C1896 1.425 1_455 S
C1901 C1898 1.409 . S
C1901 C1899 1.415 . S
C1902 H1892 0.930 . S
C1902 C1900 1.419 . S
C1902 C1903 1.362 . S
C1903 H1893 0.930 . S
C1903 C1896 1.409 . S
C1903 C1902 1.362 . S
H1904 C1910 0.930 . S
H1905 C1913 0.930 . S
H1906 C1914 0.930 . S
H1907 C1915 0.930 . S
H1908 C1918 0.930 . S
H1909 C1919 0.930 . S
C1910 H1904 0.930 . S
C1910 C1911 1.355 . S
C1910 C1912 1.415 . S
C1911 C1910 1.355 . S
C1911 C1913 1.419 . S
C1912 C1910 1.415 . S
C1912 C1917 1.425 . S
C1912 C1919 1.409 . S
C1913 H1905 0.930 . S
C1913 C1911 1.419 . S
C1913 C1914 1.362 . S
C1914 H1906 0.930 . S
C1914 C1913 1.362 . S
C1914 C1917 1.409 . S
C1915 H1907 0.930 . S
C1915 C1916 1.355 . S
C1915 C1917 1.415 . S
C1916 C1915 1.355 . S
C1916 C1918 1.419 . S
C1917 C1912 1.425 . S
C1917 C1914 1.409 . S
C1917 C1915 1.415 . S
C1918 H1908 0.930 . S
C1918 C1916 1.419 . S
C1918 C1919 1.362 . S
C1919 H1909 0.930 . S
C1919 C1912 1.409 . S
C1919 C1918 1.362 . S
H1920 C1926 0.930 . S
H1921 C1929 0.930 . S
H1922 C1930 0.930 . S
H1923 C1931 0.930 . S
H1924 C1934 0.930 . S
H1925 C1935 0.930 . S
C1926 H1920 0.930 . S
C1926 C1927 1.355 . S
C1926 C1928 1.415 . S
C1927 C1926 1.355 . S
C1927 C1929 1.419 . S
C1928 C1926 1.415 . S
C1928 C1933 1.425 . S
C1928 C1935 1.409 . S
C1929 H1921 0.930 . S
C1929 C1927 1.419 . S
C1929 C1930 1.362 . S
C1930 H1922 0.930 . S
C1930 C1929 1.362 . S
C1930 C1933 1.409 . S
C1931 H1923 0.930 . S
C1931 C1932 1.355 . S
C1931 C1933 1.415 . S
C1932 C1931 1.355 . S
C1932 C1934 1.419 . S
C1933 C1928 1.425 . S
C1933 C1930 1.409 . S
C1933 C1931 1.415 . S
C1934 H1924 0.930 . S
C1934 C1932 1.419 . S
C1934 C1935 1.362 . S
C1935 H1925 0.930 . S
C1935 C1928 1.409 . S
C1935 C1934 1.362 . S
H1936 C1942 0.930 . S
H1937 C1945 0.930 . S
H1938 C1946 0.930 . S
H1939 C1947 0.930 . S
H1940 C1950 0.930 . S
H1941 C1951 0.930 . S
C1942 H1936 0.930 . S
C1942 C1943 1.355 . S
C1942 C1944 1.415 . S
C1943 C1942 1.355 . S
C1943 C1945 1.419 . S
C1944 C1942 1.415 . S
C1944 C1949 1.425 . S
C1944 C1951 1.409 . S
C1945 H1937 0.930 . S
C1945 C1943 1.419 . S
C1945 C1946 1.362 . S
C1946 H1938 0.930 . S
C1946 C1945 1.362 . S
C1946 C1949 1.409 . S
C1947 H1939 0.930 . S
C1947 C1948 1.355 . S
C1947 C1949 1.415 . S
C1948 C1947 1.355 . S
C1948 C1950 1.419 . S
C1949 C1944 1.425 . S
C1949 C1946 1.409 . S
C1949 C1947 1.415 . S
C1950 H1940 0.930 . S
C1950 C1948 1.419 . S
C1950 C1951 1.362 . S
C1951 H1941 0.930 . S
C1951 C1944 1.409 . S
C1951 C1950 1.362 . S
H1952 C1958 0.930 . S
H1953 C1961 0.930 . S
H1954 C1962 0.930 . S
H1955 C1963 0.930 . S
H1956 C1966 0.930 . S
H1957 C1967 0.930 . S
C1958 H1952 0.930 . S
C1958 C1959 1.355 . S
C1958 C1960 1.415 . S
C1959 C1958 1.355 . S
C1959 C1961 1.419 1_455 S
C1960 C1958 1.415 . S
C1960 C1965 1.425 1_455 S
C1960 C1967 1.409 . S
C1961 H1953 0.930 . S
C1961 C1959 1.419 1_655 S
C1961 C1962 1.362 . S
C1962 H1954 0.930 . S
C1962 C1961 1.362 . S
C1962 C1965 1.409 . S
C1963 H1955 0.930 . S
C1963 C1964 1.355 . S
C1963 C1965 1.415 . S
C1964 C1963 1.355 . S
C1964 C1966 1.419 1_655 S
C1965 C1960 1.425 1_655 S
C1965 C1962 1.409 . S
C1965 C1963 1.415 . S
C1966 H1956 0.930 . S
C1966 C1964 1.419 1_455 S
C1966 C1967 1.362 . S
C1967 H1957 0.930 . S
C1967 C1960 1.409 . S
C1967 C1966 1.362 . S
H1968 C1974 0.930 . S
H1969 C1977 0.930 . S
H1970 C1978 0.930 . S
H1971 C1979 0.930 . S
H1972 C1982 0.930 . S
H1973 C1983 0.930 . S
C1974 H1968 0.930 . S
C1974 C1975 1.355 . S
C1974 C1976 1.415 . S
C1975 C1974 1.355 . S
C1975 C1977 1.419 . S
C1976 C1974 1.415 . S
C1976 C1981 1.425 . S
C1976 C1983 1.409 . S
C1977 H1969 0.930 . S
C1977 C1975 1.419 . S
C1977 C1978 1.362 . S
C1978 H1970 0.930 . S
C1978 C1977 1.362 . S
C1978 C1981 1.409 . S
C1979 H1971 0.930 . S
C1979 C1980 1.355 . S
C1979 C1981 1.415 . S
C1980 C1979 1.355 . S
C1980 C1982 1.419 . S
C1981 C1976 1.425 . S
C1981 C1978 1.409 . S
C1981 C1979 1.415 . S
C1982 H1972 0.930 . S
C1982 C1980 1.419 . S
C1982 C1983 1.362 . S
C1983 H1973 0.930 . S
C1983 C1976 1.409 . S
C1983 C1982 1.362 . S
H1984 C1990 0.930 . S
H1985 C1993 0.930 . S
H1986 C1994 0.930 . S
H1987 C1995 0.930 . S
H1988 C1998 0.930 . S
H1989 C1999 0.930 . S
C1990 H1984 0.930 . S
C1990 C1991 1.355 . S
C1990 C1992 1.415 . S
C1991 C1990 1.355 . S
C1991 C1993 1.419 . S
C1992 C1990 1.415 . S
C1992 C1997 1.425 . S
C1992 C1999 1.409 . S
C1993 H1985 0.930 . S
C1993 C1991 1.419 . S
C1993 C1994 1.362 . S
C1994 H1986 0.930 . S
C1994 C1993 1.362 . S
C1994 C1997 1.409 . S
C1995 H1987 0.930 . S
C1995 C1996 1.355 . S
C1995 C1997 1.415 . S
C1996 C1995 1.355 . S
C1996 C1998 1.419 . S
C1997 C1992 1.425 . S
C1997 C1994 1.409 . S
C1997 C1995 1.415 . S
C1998 H1988 0.930 . S
C1998 C1996 1.419 . S
C1998 C1999 1.362 . S
C1999 H1989 0.930 . S
C1999 C1992 1.409 . S
C1999 C1998 1.362 . S
H2000 C2006 0.930 . S
H2001 C2009 0.930 . S
H2002 C2010 0.930 . S
H2003 C2011 0.930 . S
H2004 C2014 0.930 . S
H2005 C2015 0.930 . S
C2006 H2000 0.930 . S
C2006 C2007 1.355 . S
C2006 C2008 1.415 . S
C2007 C2006 1.355 . S
C2007 C2009 1.419 . S
C2008 C2006 1.415 . S
C2008 C2013 1.425 . S
C2008 C2015 1.409 . S
C2009 H2001 0.930 . S
C2009 C2007 1.419 . S
C2009 C2010 1.362 . S
C2010 H2002 0.930 . S
C2010 C2009 1.362 . S
C2010 C2013 1.409 . S
C2011 H2003 0.930 . S
C2011 C2012 1.355 . S
C2011 C2013 1.415 . S
C2012 C2011 1.355 . S
C2012 C2014 1.419 . S
C2013 C2008 1.425 . S
C2013 C2010 1.409 . S
C2013 C2011 1.415 . S
C2014 H2004 0.930 . S
C2014 C2012 1.419 . S
C2014 C2015 1.362 . S
C2015 H2005 0.930 . S
C2015 C2008 1.409 . S
C2015 C2014 1.362 . S
H2016 C2022 0.930 . S
H2017 C2025 0.930 . S
H2018 C2026 0.930 . S
H2019 C2027 0.930 . S
H2020 C2030 0.930 . S
H2021 C2031 0.930 . S
C2022 H2016 0.930 . S
C2022 C2023 1.355 . S
C2022 C2024 1.415 . S
C2023 C2022 1.355 . S
C2023 C2025 1.419 . S
C2024 C2022 1.415 . S
C2024 C2029 1.425 . S
C2024 C2031 1.409 . S
C2025 H2017 0.930 . S
C2025 C2023 1.419 . S
C2025 C2026 1.362 . S
C2026 H2018 0.930 . S
C2026 C2025 1.362 . S
C2026 C2029 1.409 . S
C2027 H2019 0.930 . S
C2027 C2028 1.355 . S
C2027 C2029 1.415 . S
C2028 C2027 1.355 . S
C2028 C2030 1.419 . S
C2029 C2024 1.425 . S
C2029 C2026 1.409 . S
C2029 C2027 1.415 . S
C2030 H2020 0.930 . S
C2030 C2028 1.419 . S
C2030 C2031 1.362 . S
C2031 H2021 0.930 . S
C2031 C2024 1.409 . S
C2031 C2030 1.362 . S
H2032 C2038 0.930 . S
H2033 C2041 0.930 . S
H2034 C2042 0.930 . S
H2035 C2043 0.930 . S
H2036 C2046 0.930 . S
H2037 C2047 0.930 . S
C2038 H2032 0.930 . S
C2038 C2039 1.355 . S
C2038 C2040 1.415 . S
C2039 C2038 1.355 . S
C2039 C2041 1.419 . S
C2040 C2038 1.415 . S
C2040 C2045 1.425 . S
C2040 C2047 1.409 . S
C2041 H2033 0.930 . S
C2041 C2039 1.419 . S
C2041 C2042 1.362 . S
C2042 H2034 0.930 . S
C2042 C2041 1.362 . S
C2042 C2045 1.409 . S
C2043 H2035 0.930 . S
C2043 C2044 1.355 . S
C2043 C2045 1.415 . S
C2044 C2043 1.355 . S
C2044 C2046 1.419 . S
C2045 C2040 1.425 . S
C2045 C2042 1.409 . S
C2045 C2043 1.415 . S
C2046 H2036 0.930 . S
C2046 C2044 1.419 . S
C2046 C2047 1.362 . S
C2047 H2037 0.930 . S
C2047 C2040 1.409 . S
C2047 C2046 1.362 . S
H2048 C2054 0.930 . S
H2049 C2057 0.930 . S
H2050 C2058 0.930 . S
H2051 C2059 0.930 . S
H2052 C2062 0.930 . S
H2053 C2063 0.930 . S
C2054 H2048 0.930 . S
C2054 C2055 1.355 . S
C2054 C2056 1.415 . S
C2055 C2054 1.355 . S
C2055 C2057 1.419 . S
C2056 C2054 1.415 . S
C2056 C2061 1.425 . S
C2056 C2063 1.409 . S
C2057 H2049 0.930 . S
C2057 C2055 1.419 . S
C2057 C2058 1.362 . S
C2058 H2050 0.930 . S
C2058 C2057 1.362 . S
C2058 C2061 1.409 . S
C2059 H2051 0.930 . S
C2059 C2060 1.355 . S
C2059 C2061 1.415 . S
C2060 C2059 1.355 . S
C2060 C2062 1.419 . S
C2061 C2056 1.425 . S
C2061 C2058 1.409 . S
C2061 C2059 1.415 . S
C2062 H2052 0.930 . S
C2062 C2060 1.419 . S
C2062 C2063 1.362 . S
C2063 H2053 0.930 . S
C2063 C2056 1.409 . S
C2063 C2062 1.362 . S
H2064 C2070 0.930 . S
H2065 C2073 0.930 . S
H2066 C2074 0.930 . S
H2067 C2075 0.930 . S
H2068 C2078 0.930 . S
H2069 C2079 0.930 . S
C2070 H2064 0.930 . S
C2070 C2071 1.355 . S
C2070 C2072 1.415 . S
C2071 C2070 1.355 . S
C2071 C2073 1.419 . S
C2072 C2070 1.415 . S
C2072 C2077 1.425 . S
C2072 C2079 1.409 . S
C2073 H2065 0.930 . S
C2073 C2071 1.419 . S
C2073 C2074 1.362 . S
C2074 H2066 0.930 . S
C2074 C2073 1.362 . S
C2074 C2077 1.409 . S
C2075 H2067 0.930 . S
C2075 C2076 1.355 . S
C2075 C2077 1.415 . S
C2076 C2075 1.355 . S
C2076 C2078 1.419 . S
C2077 C2072 1.425 . S
C2077 C2074 1.409 . S
C2077 C2075 1.415 . S
C2078 H2068 0.930 . S
C2078 C2076 1.419 . S
C2078 C2079 1.362 . S
C2079 H2069 0.930 . S
C2079 C2072 1.409 . S
C2079 C2078 1.362 . S
H2080 C2086 0.930 . S
H2081 C2089 0.930 . S
H2082 C2090 0.930 . S
H2083 C2091 0.930 . S
H2084 C2094 0.943 . S
H2085 C2095 0.930 . S
C2086 H2080 0.930 . S
C2086 C2087 1.355 . S
C2086 C2088 1.415 . S
C2087 C2086 1.355 . S
C2087 C2089 1.419 . S
C2088 C2086 1.415 . S
C2088 C2093 1.425 . S
C2088 C2095 1.409 . S
C2089 H2081 0.930 . S
C2089 C2087 1.419 . S
C2089 C2090 1.362 . S
C2090 H2082 0.930 . S
C2090 C2089 1.362 . S
C2090 C2093 1.409 . S
C2091 H2083 0.930 . S
C2091 C2092 1.355 . S
C2091 C2093 1.415 . S
C2092 C2091 1.355 . S
C2092 C2094 1.419 . S
C2093 C2088 1.425 . S
C2093 C2090 1.409 . S
C2093 C2091 1.415 . S
C2094 H2084 0.943 . S
C2094 C2092 1.419 . S
C2094 C2095 1.362 . S
C2095 H2085 0.930 . S
C2095 C2088 1.409 . S
C2095 C2094 1.362 . S
H2096 C2102 0.930 . S
H2097 C2105 0.930 . S
H2098 C2106 0.930 . S
H2099 C2107 0.930 . S
H2100 C2110 0.930 . S
H2101 C2111 0.930 . S
C2102 H2096 0.930 . S
C2102 C2103 1.355 . S
C2102 C2104 1.415 . S
C2103 C2102 1.355 . S
C2103 C2105 1.419 . S
C2104 C2102 1.415 . S
C2104 C2109 1.425 . S
C2104 C2111 1.409 . S
C2105 H2097 0.930 . S
C2105 C2103 1.419 . S
C2105 C2106 1.362 . S
C2106 H2098 0.930 . S
C2106 C2105 1.362 . S
C2106 C2109 1.409 . S
C2107 H2099 0.930 . S
C2107 C2108 1.355 . S
C2107 C2109 1.415 . S
C2108 C2107 1.355 . S
C2108 C2110 1.419 . S
C2109 C2104 1.425 . S
C2109 C2106 1.409 . S
C2109 C2107 1.415 . S
C2110 H2100 0.930 . S
C2110 C2108 1.419 . S
C2110 C2111 1.362 . S
C2111 H2101 0.930 . S
C2111 C2104 1.409 . S
C2111 C2110 1.362 . S
H2112 C2118 0.930 . S
H2113 C2121 0.930 . S
H2114 C2122 0.930 . S
H2115 C2123 0.930 . S
H2116 C2126 0.930 . S
H2117 C2127 0.930 . S
C2118 H2112 0.930 . S
C2118 C2119 1.355 . S
C2118 C2120 1.415 . S
C2119 C2118 1.355 . S
C2119 C2121 1.419 . S
C2120 C2118 1.415 . S
C2120 C2125 1.425 . S
C2120 C2127 1.409 . S
C2121 H2113 0.930 . S
C2121 C2119 1.419 . S
C2121 C2122 1.362 . S
C2122 H2114 0.930 . S
C2122 C2121 1.362 . S
C2122 C2125 1.409 . S
C2123 H2115 0.930 . S
C2123 C2124 1.355 . S
C2123 C2125 1.415 . S
C2124 C2123 1.355 . S
C2124 C2126 1.419 . S
C2125 C2120 1.425 . S
C2125 C2122 1.409 . S
C2125 C2123 1.415 . S
C2126 H2116 0.930 . S
C2126 C2124 1.419 . S
C2126 C2127 1.362 . S
C2127 H2117 0.930 . S
C2127 C2120 1.409 . S
C2127 C2126 1.362 . S
H2128 C2134 0.930 . S
H2129 C2137 0.930 . S
H2130 C2138 0.930 . S
H2131 C2139 0.930 . S
H2132 C2142 0.930 . S
H2133 C2143 0.930 . S
C2134 H2128 0.930 . S
C2134 C2135 1.355 . S
C2134 C2136 1.415 . S
C2135 C2134 1.355 . S
C2135 C2137 1.419 . S
C2136 C2134 1.415 . S
C2136 C2141 1.425 . S
C2136 C2143 1.409 . S
C2137 H2129 0.930 . S
C2137 C2135 1.419 . S
C2137 C2138 1.362 . S
C2138 H2130 0.930 . S
C2138 C2137 1.362 . S
C2138 C2141 1.409 . S
C2139 H2131 0.930 . S
C2139 C2140 1.355 . S
C2139 C2141 1.415 . S
C2140 C2139 1.355 . S
C2140 C2142 1.419 . S
C2141 C2136 1.425 . S
C2141 C2138 1.409 . S
C2141 C2139 1.415 . S
C2142 H2132 0.930 . S
C2142 C2140 1.419 . S
C2142 C2143 1.362 . S
C2143 H2133 0.930 . S
C2143 C2136 1.409 . S
C2143 C2142 1.362 . S
H2144 C2150 0.930 . S
H2145 C2153 0.930 . S
H2146 C2154 0.930 . S
H2147 C2155 0.930 . S
H2148 C2158 0.930 . S
H2149 C2159 0.930 . S
C2150 H2144 0.930 . S
C2150 C2151 1.355 . S
C2150 C2152 1.415 . S
C2151 C2150 1.355 . S
C2151 C2153 1.419 . S
C2152 C2150 1.415 . S
C2152 C2157 1.425 . S
C2152 C2159 1.409 . S
C2153 H2145 0.930 . S
C2153 C2151 1.419 . S
C2153 C2154 1.362 . S
C2154 H2146 0.930 . S
C2154 C2153 1.362 . S
C2154 C2157 1.409 . S
C2155 H2147 0.930 . S
C2155 C2156 1.355 . S
C2155 C2157 1.415 . S
C2156 C2155 1.355 . S
C2156 C2158 1.419 . S
C2157 C2152 1.425 . S
C2157 C2154 1.409 . S
C2157 C2155 1.415 . S
C2158 H2148 0.930 . S
C2158 C2156 1.419 . S
C2158 C2159 1.362 . S
C2159 H2149 0.930 . S
C2159 C2152 1.409 . S
C2159 C2158 1.362 . S
H2160 C2166 0.930 . S
H2161 C2169 0.930 . S
H2162 C2170 0.930 . S
H2163 C2171 0.930 . S
H2164 C2174 0.930 1_545 S
H2165 C2175 0.930 . S
C2166 H2160 0.930 . S
C2166 C2167 1.355 1_556 S
C2166 C2168 1.415 . S
C2167 C2166 1.355 1_554 S
C2167 C2169 1.419 . S
C2168 C2166 1.415 . S
C2168 C2173 1.425 . S
C2168 C2175 1.409 . S
C2169 H2161 0.930 . S
C2169 C2167 1.419 . S
C2169 C2170 1.362 . S
C2170 H2162 0.930 . S
C2170 C2169 1.362 . S
C2170 C2173 1.409 1_554 S
C2171 H2163 0.930 . S
C2171 C2172 1.355 . S
C2171 C2173 1.415 . S
C2172 C2171 1.355 . S
C2172 C2174 1.419 . S
C2173 C2168 1.425 . S
C2173 C2170 1.409 1_556 S
C2173 C2171 1.415 . S
C2174 H2164 0.930 1_565 S
C2174 C2172 1.419 . S
C2174 C2175 1.362 . S
C2175 H2165 0.930 . S
C2175 C2168 1.409 . S
C2175 C2174 1.362 . S
H2176 C2182 0.930 . S
H2177 C2185 0.930 . S
H2178 C2186 0.930 . S
H2179 C2187 0.930 . S
H2180 C2190 0.930 . S
H2181 C2191 0.930 . S
C2182 H2176 0.930 . S
C2182 C2183 1.355 . S
C2182 C2184 1.415 . S
C2183 C2182 1.355 . S
C2183 C2185 1.419 . S
C2184 C2182 1.415 . S
C2184 C2189 1.425 . S
C2184 C2191 1.409 . S
C2185 H2177 0.930 . S
C2185 C2183 1.419 . S
C2185 C2186 1.362 . S
C2186 H2178 0.930 . S
C2186 C2185 1.362 . S
C2186 C2189 1.409 . S
C2187 H2179 0.930 . S
C2187 C2188 1.355 . S
C2187 C2189 1.415 . S
C2188 C2187 1.355 . S
C2188 C2190 1.419 . S
C2189 C2184 1.425 . S
C2189 C2186 1.409 . S
C2189 C2187 1.415 . S
C2190 H2180 0.930 . S
C2190 C2188 1.419 . S
C2190 C2191 1.362 . S
C2191 H2181 0.930 . S
C2191 C2184 1.409 . S
C2191 C2190 1.362 . S
H2192 C2198 0.930 . S
H2193 C2201 0.930 . S
H2194 C2202 0.930 . S
H2195 C2203 0.930 . S
H2196 C2206 0.930 . S
H2197 C2207 0.930 . S
C2198 H2192 0.930 . S
C2198 C2199 1.355 . S
C2198 C2200 1.415 . S
C2199 C2198 1.355 . S
C2199 C2201 1.419 . S
C2200 C2198 1.415 . S
C2200 C2205 1.425 . S
C2200 C2207 1.409 . S
C2201 H2193 0.930 . S
C2201 C2199 1.419 . S
C2201 C2202 1.362 . S
C2202 H2194 0.930 . S
C2202 C2201 1.362 . S
C2202 C2205 1.409 . S
C2203 H2195 0.930 . S
C2203 C2204 1.355 . S
C2203 C2205 1.415 . S
C2204 C2203 1.355 . S
C2204 C2206 1.419 . S
C2205 C2200 1.425 . S
C2205 C2202 1.409 . S
C2205 C2203 1.415 . S
C2206 H2196 0.930 . S
C2206 C2204 1.419 . S
C2206 C2207 1.362 . S
C2207 H2197 0.930 . S
C2207 C2200 1.409 . S
C2207 C2206 1.362 . S
H2208 C2214 0.930 . S
H2209 C2217 0.930 . S
H2210 C2218 0.930 . S
H2211 C2219 0.930 . S
H2212 C2222 0.930 . S
H2213 C2223 0.930 . S
C2214 H2208 0.930 . S
C2214 C2215 1.355 . S
C2214 C2216 1.415 . S
C2215 C2214 1.355 . S
C2215 C2217 1.419 . S
C2216 C2214 1.415 . S
C2216 C2221 1.425 . S
C2216 C2223 1.409 . S
C2217 H2209 0.930 . S
C2217 C2215 1.419 . S
C2217 C2218 1.362 . S
C2218 H2210 0.930 . S
C2218 C2217 1.362 . S
C2218 C2221 1.409 . S
C2219 H2211 0.930 . S
C2219 C2220 1.355 . S
C2219 C2221 1.415 . S
C2220 C2219 1.355 . S
C2220 C2222 1.419 . S
C2221 C2216 1.425 . S
C2221 C2218 1.409 . S
C2221 C2219 1.415 . S
C2222 H2212 0.930 . S
C2222 C2220 1.419 . S
C2222 C2223 1.362 . S
C2223 H2213 0.930 . S
C2223 C2216 1.409 . S
C2223 C2222 1.362 . S
H2224 C2230 0.930 . S
H2225 C2233 0.930 . S
H2226 C2234 0.930 . S
H2227 C2235 0.930 . S
H2228 C2238 0.930 . S
H2229 C2239 0.930 . S
C2230 H2224 0.930 . S
C2230 C2231 1.355 . S
C2230 C2232 1.415 . S
C2231 C2230 1.355 . S
C2231 C2233 1.419 . S
C2232 C2230 1.415 . S
C2232 C2237 1.425 . S
C2232 C2239 1.409 . S
C2233 H2225 0.930 . S
C2233 C2231 1.419 . S
C2233 C2234 1.362 . S
C2234 H2226 0.930 . S
C2234 C2233 1.362 . S
C2234 C2237 1.409 . S
C2235 H2227 0.930 . S
C2235 C2236 1.355 . S
C2235 C2237 1.415 . S
C2236 C2235 1.355 . S
C2236 C2238 1.419 . S
C2237 C2232 1.425 . S
C2237 C2234 1.409 . S
C2237 C2235 1.415 . S
C2238 H2228 0.930 . S
C2238 C2236 1.419 . S
C2238 C2239 1.362 . S
C2239 H2229 0.930 . S
C2239 C2232 1.409 . S
C2239 C2238 1.362 . S
C716 C352 1.165 . S
C711 C4 1.159 . S
C727 C19 1.023 . S
C732 C380 1.203 . S
C743 C39 1.094 . S
C748 C398 1.020 . S
C764 C424 1.191 . S
C759 C54 1.387 . S
C775 C18 1.370 . S
C780 C447 1.309 1_655 S
C796 C467 1.086 . S
C791 C40 1.128 . S
C812 C495 1.207 1_556 S
C807 C53 1.320 . S
C823 C5 0.830 . S
C828 C513 1.065 . S
C839 C61 0.964 . S
C844 C354 1.274 . S
C855 C74 1.089 . S
C860 C376 1.104 . S
C876 C400 1.232 . S
C871 C89 0.881 1_565 S
C892 C421 1.069 . S
C887 C109 1.133 . S
C903 C68 1.091 . S
C908 C444 1.038 . S
C924 C469 1.348 . S
C919 C81 1.346 . S
C940 C491 1.019 . S
C935 C96 1.032 . S
C956 C515 1.413 . S
C951 C102 1.369 . S
C972 C355 0.965 1_556 S
C967 C103 0.887 . S
C988 C538 1.164 . S
C983 C117 0.878 . S
C999 C130 1.077 . S
C1004 C562 1.063 . S
C1020 C586 1.106 . S
C1015 C152 1.171 . S
C1031 C60 1.012 . S
C1036 C516 0.931 . S
C1052 C401 1.030 . S
C1047 C82 1.027 . S
C1063 C137 1.113 . S
C1068 C607 1.106 . S
C1084 C632 1.110 . S
C1079 C165 1.098 . S
C1095 C172 1.198 . S
C1100 C353 1.147 . S
C1116 C630 1.128 . S
C1111 C194 1.138 . S
C1127 C207 1.078 . S
C1132 C399 1.083 . S
C1143 C215 0.916 . S
C1148 C609 1.079 . S
C1164 C448 1.019 . S
C1159 C186 1.125 . S
C1180 C560 1.105 . S
C1175 C201 1.100 . S
C1196 C492 1.044 . S
C1191 C221 1.022 . S
C1212 C652 1.125 . S
C1207 C180 1.151 . S
C1228 C357 1.019 . S
C1223 C236 1.046 . S
C1239 C242 1.473 . S
C1244 C628 1.484 . S
C1260 C403 1.010 . S
C1255 C264 1.101 . S
C1271 C277 1.374 . S
C1276 C606 1.382 . S
C1287 C229 1.016 . S
C1292 C445 1.229 . S
C1303 C249 1.096 . S
C1308 C564 1.075 . S
C1324 C490 1.247 . S
C1319 C257 1.239 1_545 S
C1335 C270 1.128 . S
C1340 C656 1.135 . S
C1351 C278 1.291 . S
C1356 C356 1.227 . S
C1367 C292 1.299 . S
C1372 C541 1.174 . S
C1383 C298 1.489 . S
C1388 C471 1.394 . S
C1399 C313 1.205 . S
C1404 C585 1.143 . S
C1420 C655 1.372 . S
C1415 C228 1.413 . S
C1436 C402 1.304 . S
C1431 C243 1.153 . S
C1452 C426 1.172 . S
C1447 C305 1.212 . S
C1468 C378 1.145 . S
C1463 C333 1.185 . S
C1479 C32 1.155 . S
C1484 C674 1.162 . S
C1500 C633 1.309 . S
C1495 C47 1.141 . S
C1516 C697 1.103 . S
C1511 C11 1.075 . S
C1527 C26 1.393 . S
C1532 C608 1.221 . S
C1543 C46 1.399 . S
C1548 C539 1.320 . S
C1564 C559 1.159 . S
C1559 C12 1.151 . S
C1580 C587 1.220 . S
C1575 C25 1.319 . S
C1596 C651 1.111 . S
C1591 C33 1.002 . S
C1612 C676 1.264 . S
C1607 C159 1.018 . S
C1623 C116 1.098 . S
C1628 C629 1.129 . S
C1639 C131 0.953 . S
C1644 C699 1.237 . S
C1660 C605 1.137 . S
C1655 C151 1.109 . S
C1676 C536 1.038 . S
C1671 C166 1.090 . S
C1687 C123 1.342 . S
C1692 C561 1.347 . S
C1708 C583 1.026 . S
C1703 C138 1.041 . S
C1719 C144 1.328 . S
C1724 C653 1.418 . S
C1740 C677 0.886 . S
C1735 C145 0.777 . S
C1756 C446 1.153 . S
C1751 C75 1.030 . S
C1772 C470 1.051 . S
C1767 C88 1.101 . S
C1783 C110 1.148 . S
C1788 C494 1.173 . S
C1804 C654 0.940 . S
C1799 C158 1.032 . S
C1815 C124 1.030 . S
C1820 C700 0.926 1_556 S
C1836 C423 1.097 . S
C1831 C95 1.100 . S
C1852 C379 1.114 . S
C1847 C67 1.092 . S
C1863 C200 1.146 . S
C1868 C675 1.179 . S
C1884 C377 1.096 . S
C1879 C222 1.096 . S
C1900 C698 1.084 . S
C1895 C179 1.087 . S
C1911 C187 1.066 . S
C1916 C425 0.980 . S
C1927 C214 1.093 . S
C1932 C540 1.094 . S
C1943 C173 1.003 . S
C1948 C468 1.120 . S
C1959 C193 0.998 . S
C1964 C584 1.059 . S
C1975 C208 1.158 . S
C1980 C514 1.161 . S
C1996 C679 0.981 . S
C1991 C334 1.039 . S
C2007 C284 1.473 . S
C2012 C375 1.484 . S
C2028 C702 1.006 . S
C2023 C306 1.099 . S
C2039 C319 1.328 . S
C2044 C422 1.333 . S
C2055 C327 1.118 . S
C2060 C537 1.172 . S
C2076 C472 1.022 . S
C2071 C291 1.060 . S
C2087 C299 1.225 . S
C2092 C582 1.266 . S
C2108 C518 1.004 . S
C2103 C312 1.162 . S
C2124 C678 1.248 . S
C2119 C320 1.299 . S
C2140 C449 1.279 . S
C2135 C250 1.334 . S
C2151 C256 1.474 . S
C2156 C563 1.452 . S
C2172 C493 1.248 . S
C2167 C271 1.157 . S
C2188 C517 1.362 . S
C2183 C326 1.417 . S
C2199 C285 1.230 1_554 S
C2204 C701 1.231 . S
C2220 C610 1.183 . S
C2215 C263 1.238 . S
C2236 C631 1.144 . S
C2231 C235 1.187 . S
