# Generated by pormake.
# Topology tsx, (6,3)-cn, num edge types: 1
# Building blocks:
#     Node 0, Type 0, BuildingBlock: MIDCAF_clean_sbu_0, # of connection points: 6
#     Node 1, Type 0, BuildingBlock: MIDCAF_clean_sbu_0, # of connection points: 6
#     Node 2, Type 1, BuildingBlock: WUSLED_clean_sbu_0, # of connection points: 3
#     Node 3, Type 1, BuildingBlock: WUSLED_clean_sbu_0, # of connection points: 3
#     Node 4, Type 1, BuildingBlock: WUSLED_clean_sbu_0, # of connection points: 3
#     Node 5, Type 1, BuildingBlock: WUSLED_clean_sbu_0, # of connection points: 3
#     Edge 6, Type (0, 1), BuildingBlock: FUNLAD_clean_linker_1, # of connection points: 2
#     Edge 7, Type (0, 1), BuildingBlock: FUNLAD_clean_linker_1, # of connection points: 2
#     Edge 8, Type (0, 1), BuildingBlock: FUNLAD_clean_linker_1, # of connection points: 2
#     Edge 9, Type (0, 1), BuildingBlock: FUNLAD_clean_linker_1, # of connection points: 2
#     Edge 10, Type (0, 1), BuildingBlock: FUNLAD_clean_linker_1, # of connection points: 2
#     Edge 11, Type (0, 1), BuildingBlock: FUNLAD_clean_linker_1, # of connection points: 2
#     Edge 12, Type (0, 1), BuildingBlock: FUNLAD_clean_linker_1, # of connection points: 2
#     Edge 13, Type (0, 1), BuildingBlock: FUNLAD_clean_linker_1, # of connection points: 2
#     Edge 14, Type (0, 1), BuildingBlock: FUNLAD_clean_linker_1, # of connection points: 2
#     Edge 15, Type (0, 1), BuildingBlock: FUNLAD_clean_linker_1, # of connection points: 2
#     Edge 16, Type (0, 1), BuildingBlock: FUNLAD_clean_linker_1, # of connection points: 2
#     Edge 17, Type (0, 1), BuildingBlock: FUNLAD_clean_linker_1, # of connection points: 2
# Relax obj value: 0.113
# Max RMSD: 0.180
# Mean RMSD: 0.108
data_MOF--net-tsx--node1-MIDCAF_clean_sbu_0--node2-WUSLED_clean_sbu_0--edge1-FUNLAD_clean_linker_1
_symmetry_space_group_name_H-M    P1
_symmetry_Int_Tables_number       1
_symmetry_cell_setting            triclinic
loop_
_symmetry_equiv_pos_as_xyz
'x, y, z'
_cell_length_a     25.476554
_cell_length_b     27.245298
_cell_length_c     51.263366
_cell_angle_alpha  91.334176
_cell_angle_beta   95.208663
_cell_angle_gamma 90.420291
loop_
_atom_site_label
_atom_site_type_symbol
_atom_site_fract_x
_atom_site_fract_y
_atom_site_fract_z
_atom_type_partial_charge
Zn0 Zn 0.96575 0.9938 0.98259 0.0
Zn1 Zn 0.15072 0.01774 0.03462 0.0
Zn2 Zn 0.05526 0.01302 0.00866 0.0
C3 C 0.12265 0.11269 0.01729 0.0
C4 C 0.15894 0.94796 0.99561 0.0
O5 O 1.00079 0.97193 0.03309 0.0
O6 O 0.93511 0.94562 0.00506 0.0
C7 C 0.97678 0.09739 0.99089 0.0
O8 O 0.07728 0.09231 0.01104 0.0
O9 O 0.16159 0.08746 0.02582 0.0
O10 O 0.18639 0.96567 0.01539 0.0
O11 O 0.11161 0.9634 0.9898 0.0
O12 O 0.94314 0.06361 0.98524 0.0
O13 O 1.02481 0.08677 0.9986 0.0
O14 O 0.07025 0.97608 0.97129 0.0
O15 O 0.99156 0.97026 0.94927 0.0
C16 C 0.04086 0.96553 0.95008 0.0
O17 O 0.04617 0.9882 0.0482 0.0
O18 O 0.12477 1.00241 0.06926 0.0
C19 C 0.95817 0.94618 0.0279 0.0
C20 C 0.07714 0.98918 0.06948 0.0
Zn21 Zn 0.6698 0.52337 0.53597 0.0
Zn22 Zn 0.47453 0.52327 0.48789 0.0
Zn23 Zn 0.57325 0.52774 0.51103 0.0
C24 C 0.54096 0.48301 0.45244 0.0
C25 C 0.50351 0.62317 0.49736 0.0
O26 O 0.56856 0.49561 0.5504 0.0
O27 O 0.65016 0.49674 0.56944 0.0
C28 C 0.67137 0.46723 0.4901 0.0
O29 O 0.57604 0.49244 0.47171 0.0
O30 O 0.49303 0.49224 0.45449 0.0
O31 O 0.46481 0.59553 0.48969 0.0
O32 O 0.54826 0.60455 0.50536 0.0
O33 O 0.69992 0.47775 0.51094 0.0
O34 O 0.62441 0.48456 0.48638 0.0
O35 O 0.6008 0.60461 0.51681 0.0
O36 O 0.68298 0.59529 0.53386 0.0
C37 C 0.64597 0.62303 0.52539 0.0
O38 O 0.52102 0.48552 0.535 0.0
O39 O 0.44208 0.48154 0.51305 0.0
C40 C 0.60173 0.4879 0.57042 0.0
C41 C 0.47278 0.47006 0.53262 0.0
C42 C 0.99889 0.12249 0.43793 0.0
C43 C 0.96729 0.13859 0.41598 0.0
C44 C 0.92338 0.19631 0.44357 0.0
C45 C 0.9299 0.17524 0.41872 0.0
C46 C 0.95484 0.17945 0.46548 0.0
C47 C 0.99223 0.14283 0.46269 0.0
U48 U 0.07026 0.0413 0.39293 0.0
O49 O 0.15507 0.02816 0.39081 0.0
O50 O 0.1012 0.96648 0.39604 0.0
C51 C 0.15036 0.98104 0.39519 0.0
C52 C 0.04044 0.08635 0.43472 0.0
C53 C 0.19018 0.95991 0.4144 0.0
C54 C 0.21385 0.90709 0.45114 0.0
C55 C 0.17572 0.93253 0.43556 0.0
C56 C 0.28176 0.93791 0.42555 0.0
C57 C 0.26713 0.90883 0.4461 0.0
C58 C 0.24359 0.96311 0.40989 0.0
C59 C 1.02465 0.0411 0.32041 0.0
C60 C 0.07563 1.0009 0.28852 0.0
C61 C 0.99226 0.03861 0.27442 0.0
C62 C 0.98601 0.05254 0.30036 0.0
C63 C 0.03741 0.01281 0.26821 0.0
C64 C 0.06921 0.01469 0.31444 0.0
C65 C 1.01901 0.05806 0.34735 0.0
O66 O 1.02379 0.04205 0.42711 0.0
O67 O 0.07924 0.10226 0.42183 0.0
O68 O 0.05765 0.08627 0.35795 0.0
O69 O 1.00456 0.02419 0.36314 0.0
H70 H 0.97231 0.12344 0.39664 0.0
H71 H 0.9075 0.18758 0.40122 0.0
H72 H 0.95094 0.1951 0.48483 0.0
H73 H 1.0165 0.13098 0.47981 0.0
H74 H 0.20141 0.88474 0.46671 0.0
H75 H 0.13483 0.92929 0.43953 0.0
H76 H 0.32205 0.93932 0.42051 0.0
H77 H 0.25561 0.98355 0.39351 0.0
H78 H 0.11095 0.98147 0.28427 0.0
H79 H 0.9626 0.04974 0.25933 0.0
H80 H 0.9515 0.07315 0.3047 0.0
H81 H 0.09944 0.00554 0.32977 0.0
C82 C 0.96893 0.98651 0.58569 0.0
C83 C 0.95503 0.95152 0.60354 0.0
C84 C 0.88549 0.91943 0.57189 0.0
C85 C 0.91395 0.91821 0.59664 0.0
C86 C 0.8992 0.95496 0.55405 0.0
C87 C 0.94067 0.98828 0.56097 0.0
U88 U 0.06923 0.03452 0.63817 0.0
O89 O 0.15394 0.05158 0.63881 0.0
O90 O 0.09872 0.10865 0.6496 0.0
C91 C 0.14764 0.09783 0.6456 0.0
C92 C 1.01316 0.02056 0.59311 0.0
C93 C 0.17753 0.13419 0.63198 0.0
C94 C 0.18254 0.20345 0.60328 0.0
C95 C 0.15279 0.16731 0.61437 0.0
C96 C 0.26201 0.17303 0.62679 0.0
C97 C 0.23733 0.20729 0.60968 0.0
C98 C 0.23228 0.13709 0.63788 0.0
C99 C 0.06876 0.98137 0.70562 0.0
C100 C 0.11722 0.02069 0.74353 0.0
C101 C 0.07685 0.94067 0.74734 0.0
C102 C 0.05854 0.94098 0.72081 0.0
C103 C 0.10518 0.98125 0.75919 0.0
C104 C 0.09916 0.0208 0.71696 0.0
C105 C 0.04697 0.98251 0.67815 0.0
O106 O 1.00317 0.05548 0.61004 0.0
O107 O 0.05873 0.99926 0.59898 0.0
O108 O 0.07868 0.96708 0.66093 0.0
O109 O 1.02226 0.02309 0.67139 0.0
H110 H 0.97635 0.94967 0.62276 0.0
H111 H 0.90453 0.89119 0.61073 0.0
H112 H 0.87913 0.95648 0.53457 0.0
H113 H 0.95102 0.01502 0.54694 0.0
H114 H 0.16255 0.22889 0.5899 0.0
H115 H 0.11055 0.16564 0.60942 0.0
H116 H 0.3042 0.17332 0.6316 0.0
H117 H 0.25211 0.11166 0.65133 0.0
H118 H 0.13937 0.05216 0.75202 0.0
H119 H 0.06838 0.90868 0.75839 0.0
H120 H 0.03587 0.90989 0.71221 0.0
H121 H 0.10803 0.05208 0.70539 0.0
C122 C 0.50127 0.61109 0.9319 0.0
C123 C 0.48396 0.6429 0.91177 0.0
C124 C 0.42356 0.68224 0.9398 0.0
C125 C 0.44593 0.67838 0.9158 0.0
C126 C 0.44058 0.64996 0.95989 0.0
C127 C 0.47909 0.61472 0.95592 0.0
U128 U 0.56678 0.52601 0.88581 0.0
O129 O 0.65011 0.51074 0.88106 0.0
O130 O 0.59693 0.45062 0.88965 0.0
C131 C 0.64566 0.46404 0.88656 0.0
C132 C 0.54202 0.57405 0.92784 0.0
C133 C 0.68826 0.44236 0.90433 0.0
C134 C 0.77682 0.44601 0.92694 0.0
C135 C 0.73409 0.46919 0.91326 0.0
C136 C 0.72836 0.36914 0.92372 0.0
C137 C 0.77512 0.39545 0.93172 0.0
C138 C 0.68574 0.39226 0.91005 0.0
C139 C 0.50582 0.52754 0.81392 0.0
C140 C 0.54575 0.49695 0.77549 0.0
C141 C 0.4559 0.52624 0.77125 0.0
C142 C 0.45916 0.53638 0.79819 0.0
C143 C 0.49918 0.5069 0.75947 0.0
C144 C 0.54891 0.50709 0.80252 0.0
C145 C 0.50917 0.54246 0.84177 0.0
O146 O 0.52425 0.52957 0.92143 0.0
O147 O 0.57981 0.58823 0.91377 0.0
O148 O 0.55046 0.56931 0.85042 0.0
O149 O 0.49746 0.50855 0.85815 0.0
H150 H 0.50013 0.64056 0.89295 0.0
H151 H 0.43386 0.70288 0.90006 0.0
H152 H 0.42539 0.65258 0.9789 0.0
H153 H 0.4919 0.59057 0.9717 0.0
H154 H 0.81196 0.46741 0.93311 0.0
H155 H 0.73765 0.50779 0.90909 0.0
H156 H 0.72439 0.33059 0.92779 0.0
H157 H 0.65115 0.37049 0.90335 0.0
H158 H 0.58051 0.48306 0.76732 0.0
H159 H 0.4197 0.53458 0.75949 0.0
H160 H 0.42552 0.55225 0.80666 0.0
H161 H 0.58536 0.50017 0.8144 0.0
C162 C 0.42789 0.47701 0.08415 0.0
C163 C 0.42668 0.42725 0.09078 0.0
C164 C 0.33763 0.41792 0.0691 0.0
C165 C 0.38213 0.39799 0.0833 0.0
C166 C 0.33876 0.46783 0.06283 0.0
C167 C 0.38353 0.49696 0.0701 0.0
U168 U 0.53603 0.52134 0.1359 0.0
O169 O 0.61963 0.53982 0.13368 0.0
O170 O 0.56587 0.59589 0.147 0.0
C171 C 0.614 0.58571 0.1414 0.0
C172 C 0.47416 0.5089 0.09235 0.0
C173 C 0.64209 0.62366 0.12781 0.0
C174 C 0.68048 0.65448 0.08955 0.0
C175 C 0.64963 0.61958 0.10106 0.0
C176 C 0.69565 0.6983 0.13121 0.0
C177 C 0.70473 0.69371 0.10458 0.0
C178 C 0.66484 0.66353 0.14264 0.0
C179 C 0.54258 0.46605 0.20367 0.0
C180 C 0.59966 0.50041 0.24022 0.0
C181 C 0.54588 0.4286 0.24631 0.0
C182 C 0.52628 0.4294 0.21994 0.0
C183 C 0.58191 0.4649 0.25693 0.0
C184 C 0.58005 0.50112 0.21383 0.0
C185 C 0.51883 0.46845 0.17651 0.0
O186 O 0.46652 0.54309 0.11009 0.0
O187 O 0.51979 0.48682 0.09672 0.0
O188 O 0.54878 0.45376 0.15833 0.0
O189 O 0.49378 0.50931 0.17073 0.0
H190 H 0.45992 0.41101 0.10201 0.0
H191 H 0.38227 0.36019 0.08932 0.0
H192 H 0.30495 0.48432 0.05218 0.0
H193 H 0.38333 0.5353 0.06494 0.0
H194 H 0.68615 0.65032 0.06893 0.0
H195 H 0.63239 0.58915 0.08919 0.0
H196 H 0.71188 0.72873 0.14334 0.0
H197 H 0.65933 0.66745 0.16331 0.0
H198 H 0.62764 0.52855 0.24777 0.0
H199 H 0.53253 0.39957 0.25821 0.0
H200 H 0.49779 0.40174 0.21232 0.0
H201 H 0.5933 0.52958 0.20148 0.0
H202 H 0.16428 0.17516 0.00313 0.0
C203 C 0.13217 0.16556 0.01471 0.0
H204 H 0.09041 0.18669 0.04648 0.0
H205 H 0.2894 0.29928 0.10159 0.0
H206 H 0.27083 0.23799 0.13312 0.0
H207 H 0.19979 0.17671 0.12294 0.0
H208 H 0.14658 0.17659 0.08148 0.0
C209 C 0.1192 0.19768 0.03329 0.0
C210 C 0.1554 0.24015 0.04112 0.0
C211 C 0.186 0.23986 0.06572 0.0
C212 C 0.22785 0.27453 0.0714 0.0
C213 C 0.2578 0.27327 0.09606 0.0
C214 C 0.24748 0.23839 0.1144 0.0
C215 C 0.20742 0.20396 0.10868 0.0
C216 C 0.17704 0.20441 0.0847 0.0
H217 H 0.25135 0.40744 0.05949 0.0
C218 C 0.28875 0.38832 0.06171 0.0
H219 H 0.32593 0.31961 0.059 0.0
H220 H 0.09785 0.2572 0.99482 0.0
H221 H 0.11663 0.3183 0.96304 0.0
H222 H 0.19281 0.37475 0.9715 0.0
H223 H 0.25002 0.37119 0.01187 0.0
C224 C 0.289 0.33939 0.05726 0.0
C225 C 0.23966 0.30915 0.05248 0.0
C226 C 0.2072 0.31124 0.0285 0.0
C227 C 0.16443 0.27734 0.02309 0.0
C228 C 0.13178 0.28103 0.9994 0.0
C229 C 0.14196 0.31606 0.98111 0.0
C230 C 0.18476 0.34794 0.98591 0.0
C231 C 0.21721 0.34565 0.00925 0.0
H232 H 0.15165 0.877 0.97369 0.0
C233 C 0.17941 0.90539 0.98133 0.0
H234 H 0.25829 0.9277 0.98906 0.0
H235 H 0.38174 0.73801 0.00825 0.0
H236 H 0.39124 0.77863 0.05094 0.0
H237 H 0.33798 0.85109 0.06026 0.0
H238 H 0.2754 0.88364 0.02691 0.0
C239 C 0.2317 0.89855 0.98111 0.0
C240 C 0.25618 0.84982 0.976 0.0
C241 C 0.29159 0.8301 0.99606 0.0
C242 C 0.32118 0.78738 0.99097 0.0
C243 C 0.3575 0.76976 0.01113 0.0
C244 C 0.36346 0.79277 0.03577 0.0
C245 C 0.33359 0.83362 0.04099 0.0
C246 C 0.29803 0.85216 0.02151 0.0
H247 H 0.38732 0.75467 0.93186 0.0
C248 C 0.38515 0.72217 0.94365 0.0
H249 H 0.34426 0.68796 0.97252 0.0
H250 H 0.19003 0.87529 0.9333 0.0
H251 H 0.17517 0.83035 0.89201 0.0
H252 H 0.22312 0.7539 0.88417 0.0
H253 H 0.28627 0.72204 0.91769 0.0
C254 C 0.34804 0.72013 0.96071 0.0
C255 C 0.31472 0.76353 0.96602 0.0
C256 C 0.27682 0.78115 0.94651 0.0
C257 C 0.248 0.82466 0.95135 0.0
C258 C 0.21205 0.84208 0.93107 0.0
C259 C 0.20324 0.81662 0.90717 0.0
C260 C 0.23031 0.77364 0.90273 0.0
C261 C 0.2667 0.75593 0.92209 0.0
H262 H 0.9513 0.92201 0.06869 0.0
C263 C 0.93567 0.91701 0.04836 0.0
H264 H 0.87999 0.88042 0.02159 0.0
H265 H 0.86665 0.72372 0.11615 0.0
H266 H 0.9603 0.71064 0.1143 0.0
H267 H 1.01247 0.76358 0.0878 0.0
H268 H 0.97157 0.83016 0.06324 0.0
C269 C 0.89598 0.88467 0.04192 0.0
C270 C 0.86776 0.85711 0.06133 0.0
C271 C 0.8925 0.81835 0.07566 0.0
C272 C 0.86216 0.78725 0.09066 0.0
C273 C 0.88771 0.74846 0.1045 0.0
C274 C 0.94143 0.74043 0.10355 0.0
C275 C 0.97081 0.77024 0.08863 0.0
C276 C 0.94682 0.80861 0.07472 0.0
H277 H 0.73303 0.73121 0.07049 0.0
C278 C 0.73801 0.72964 0.09175 0.0
H279 H 0.78361 0.75638 0.12586 0.0
H280 H 0.80921 0.93098 0.03844 0.0
H281 H 0.71614 0.9455 0.04139 0.0
H282 H 0.66398 0.89217 0.06769 0.0
H283 H 0.70446 0.82382 0.09103 0.0
C284 C 0.77468 0.75921 0.10486 0.0
C285 C 0.80704 0.79432 0.09089 0.0
C286 C 0.78299 0.83476 0.07777 0.0
C287 C 0.81327 0.8659 0.06287 0.0
C288 C 0.78804 0.9058 0.04981 0.0
C289 C 0.73468 0.91477 0.05146 0.0
C290 C 0.70531 0.88473 0.06625 0.0
C291 C 0.729 0.84533 0.07939 0.0
H292 H 0.91525 0.15263 0.98746 0.0
C293 C 0.9578 0.14818 0.98831 0.0
H294 H 0.0295 0.18342 0.98193 0.0
H295 H 0.8833 0.31267 0.90181 0.0
H296 H 0.94221 0.27331 0.87318 0.0
H297 H 1.01008 0.21565 0.89072 0.0
H298 H 1.01976 0.19724 0.93704 0.0
C299 C 0.98744 0.18721 0.98332 0.0
C300 C 0.95975 0.23304 0.97457 0.0
C301 C 0.95577 0.24468 0.9477 0.0
C302 C 0.91621 0.27756 0.93755 0.0
C303 C 0.91217 0.28746 0.91045 0.0
C304 C 0.94584 0.26528 0.89385 0.0
C305 C 0.98409 0.23284 0.90373 0.0
C306 C 0.98914 0.22247 0.93032 0.0
H307 H 0.8521 0.39439 0.95604 0.0
C308 C 0.82267 0.37136 0.94487 0.0
H309 H 0.80565 0.29981 0.92953 0.0
H310 H 0.96688 0.22851 0.02767 0.0
H311 H 0.90983 0.26932 0.05689 0.0
H312 H 0.83823 0.32315 0.03934 0.0
H313 H 0.82359 0.33721 0.99275 0.0
C314 C 0.832 0.3229 0.94242 0.0
C315 C 0.88082 0.29894 0.9543 0.0
C316 C 0.88853 0.29125 0.98168 0.0
C317 C 0.9287 0.25891 0.9918 0.0
C318 C 0.93596 0.25181 0.01911 0.0
C319 C 0.90374 0.27512 0.03602 0.0
C320 C 0.86351 0.30553 0.02613 0.0
C321 C 0.85564 0.31345 0.9993 0.0
H322 H 0.62351 0.7009 0.51887 0.0
C323 C 0.65554 0.67669 0.52529 0.0
H324 H 0.73613 0.67135 0.53885 0.0
H325 H 0.82089 0.86545 0.49735 0.0
H326 H 0.82552 0.81632 0.45752 0.0
H327 H 0.7798 0.73612 0.45165 0.0
H328 H 0.72912 0.70451 0.48569 0.0
C329 C 0.70365 0.69548 0.53292 0.0
C330 C 0.71665 0.7487 0.53298 0.0
C331 C 0.74472 0.76732 0.51269 0.0
C332 C 0.77073 0.81372 0.51602 0.0
C333 C 0.80011 0.83059 0.4958 0.0
C334 C 0.80309 0.80275 0.47283 0.0
C335 C 0.77738 0.75757 0.46954 0.0
C336 C 0.74861 0.73979 0.48921 0.0
H337 H 0.8457 0.84867 0.57724 0.0
C338 C 0.8442 0.88113 0.56522 0.0
H339 H 0.8017 0.91533 0.53317 0.0
H340 H 0.65938 0.72671 0.5738 0.0
H341 H 0.64913 0.77839 0.61227 0.0
H342 H 0.69169 0.86015 0.61738 0.0
H343 H 0.74536 0.89048 0.58421 0.0
C344 C 0.8053 0.88378 0.5457 0.0
C345 C 0.76864 0.8412 0.53972 0.0
C346 C 0.73556 0.825 0.55869 0.0
C347 C 0.71001 0.77838 0.55545 0.0
C348 C 0.67931 0.762 0.57526 0.0
C349 C 0.67302 0.79133 0.59737 0.0
C350 C 0.69705 0.83735 0.60027 0.0
C351 C 0.72798 0.85419 0.5812 0.0
H352 H 0.66967 0.42764 0.4517 0.0
C353 C 0.69152 0.43298 0.47067 0.0
H354 H 0.75744 0.41248 0.49578 0.0
H355 H 0.75629 0.21176 0.4247 0.0
H356 H 0.66555 0.19839 0.43401 0.0
H357 H 0.61643 0.26358 0.45515 0.0
H358 H 0.6573 0.3424 0.46691 0.0
C359 C 0.73516 0.40667 0.47685 0.0
C360 C 0.75797 0.37134 0.45854 0.0
C361 C 0.73296 0.32546 0.45176 0.0
C362 C 0.76156 0.28746 0.43999 0.0
C363 C 0.73635 0.24169 0.43377 0.0
C364 C 0.68434 0.23355 0.43901 0.0
C365 C 0.65667 0.27028 0.45089 0.0
C366 C 0.68062 0.31559 0.45744 0.0
H367 H 0.89095 0.25676 0.46642 0.0
C368 C 0.88661 0.23748 0.44749 0.0
H369 H 0.84026 0.23343 0.41081 0.0
H370 H 0.81336 0.45782 0.46424 0.0
H371 H 0.90226 0.47233 0.45237 0.0
H372 H 0.95162 0.40624 0.43206 0.0
H373 H 0.91241 0.32518 0.4236 0.0
C374 C 0.84867 0.25261 0.4295 0.0
C375 C 0.81515 0.29511 0.43573 0.0
C376 C 0.83806 0.34248 0.43989 0.0
C377 C 0.8095 0.38058 0.45139 0.0
C378 C 0.83365 0.42739 0.4558 0.0
C379 C 0.88448 0.43628 0.44894 0.0
C380 C 0.91227 0.39907 0.43752 0.0
C381 C 0.88949 0.35266 0.43294 0.0
H382 H 0.48319 0.41967 0.56579 0.0
C383 C 0.45439 0.43553 0.55165 0.0
H384 H 0.37515 0.43447 0.53544 0.0
H385 H 0.33456 0.21486 0.56344 0.0
H386 H 0.35264 0.20413 0.51806 0.0
H387 H 0.38638 0.27306 0.49384 0.0
H388 H 0.40278 0.35294 0.51498 0.0
C389 C 0.40392 0.42028 0.55025 0.0
C390 C 0.38705 0.37846 0.56566 0.0
C391 C 0.37666 0.3323 0.55285 0.0
C392 C 0.35598 0.29296 0.5666 0.0
C393 C 0.34821 0.24661 0.55364 0.0
C394 C 0.35893 0.23979 0.52765 0.0
C395 C 0.37801 0.27856 0.51403 0.0
C396 C 0.38704 0.32429 0.52639 0.0
H397 H 0.24789 0.26466 0.58072 0.0
C398 C 0.26734 0.2465 0.59759 0.0
H399 H 0.33637 0.24665 0.62412 0.0
H400 H 0.40561 0.46149 0.59628 0.0
H401 H 0.3913 0.47127 0.64227 0.0
H402 H 0.35558 0.40298 0.66624 0.0
H403 H 0.33341 0.32466 0.64434 0.0
C404 C 0.31657 0.26122 0.60639 0.0
C405 C 0.34423 0.30034 0.59293 0.0
C406 C 0.35767 0.34563 0.6062 0.0
C407 C 0.37876 0.38492 0.59246 0.0
C408 C 0.38999 0.43034 0.60586 0.0
C409 C 0.38181 0.43649 0.63223 0.0
C410 C 0.36175 0.39801 0.64574 0.0
C411 C 0.34936 0.35317 0.63294 0.0
H412 H 0.53114 0.70097 0.49975 0.0
C413 C 0.49688 0.677 0.49621 0.0
H414 H 0.41446 0.67232 0.48683 0.0
H415 H 0.34717 0.88437 0.51257 0.0
H416 H 0.34074 0.85105 0.55581 0.0
H417 H 0.37967 0.77083 0.56731 0.0
H418 H 0.42579 0.72365 0.53573 0.0
C419 C 0.44904 0.69609 0.4897 0.0
C420 C 0.43954 0.74917 0.48566 0.0
C421 C 0.41314 0.77633 0.50429 0.0
C422 C 0.38995 0.82212 0.49751 0.0
C423 C 0.3642 0.84875 0.51657 0.0
C424 C 0.36058 0.8302 0.54146 0.0
C425 C 0.38254 0.78504 0.54794 0.0
C426 C 0.40862 0.75825 0.52964 0.0
H427 H 0.28829 0.84302 0.46886 0.0
C428 C 0.30481 0.87537 0.46047 0.0
H429 H 0.37564 0.91298 0.45453 0.0
H430 H 0.49448 0.70977 0.44687 0.0
H431 H 0.50439 0.74468 0.40449 0.0
H432 H 0.46367 0.82387 0.39252 0.0
H433 H 0.41276 0.86852 0.42281 0.0
C434 C 0.35761 0.88095 0.46232 0.0
C435 C 0.3923 0.84004 0.47189 0.0
C436 C 0.42359 0.81542 0.45425 0.0
C437 C 0.44714 0.76976 0.46114 0.0
C438 C 0.47599 0.74465 0.4427 0.0
C439 C 0.48198 0.76429 0.41829 0.0
C440 C 0.45907 0.80887 0.41156 0.0
C441 C 0.42995 0.83417 0.42918 0.0
H442 H 1.01288 0.97811 0.09493 0.0
C443 C 0.0554 0.97978 0.09459 0.0
H444 H 0.12896 0.98236 0.11703 0.0
H445 H 0.0467 0.0879 0.21481 0.0
H446 H 0.09417 0.15398 0.19623 0.0
H447 H 0.12849 0.14361 0.15299 0.0
H448 H 0.11537 0.06723 0.12808 0.0
C449 C 0.08646 0.97905 0.11718 0.0
C450 C 0.06427 0.98467 0.14286 0.0
C451 C 0.07316 0.02941 0.15735 0.0
C452 C 0.05399 0.0352 0.18238 0.0
C453 C 0.06177 0.08091 0.19603 0.0
C454 C 0.0886 0.11936 0.1855 0.0
C455 C 0.10788 0.11354 0.16116 0.0
C456 C 0.10022 0.06931 0.14712 0.0
H457 H 0.08922 0.99584 0.23698 0.0
C458 C 0.04835 1.00169 0.24075 0.0
H459 H 0.96972 1.00297 0.22304 0.0
H460 H 0.03945 0.89455 0.11992 0.0
H461 H 0.98898 0.82968 0.13794 0.0
H462 H 0.95529 0.84006 0.18131 0.0
H463 H 0.97199 0.9155 0.20704 0.0
C464 C 1.01134 1.00043 0.22029 0.0
C465 C 0.02692 0.99587 0.1931 0.0
C466 C 1.01605 0.95196 0.17817 0.0
C467 C 0.03503 0.94617 0.15303 0.0
C468 C 1.02511 0.9013 0.13888 0.0
C469 C 0.99639 0.86366 0.14904 0.0
C470 C 0.97747 0.86949 0.1735 0.0
C471 C 0.98729 0.91295 0.18805 0.0
H472 H 0.03901 0.93166 0.91097 0.0
C473 C 0.0636 0.95332 0.92549 0.0
H474 H 0.12744 1.00381 0.93127 0.0
H475 H 0.18973 0.9243 0.81759 0.0
H476 H 0.26638 0.89774 0.84529 0.0
H477 H 0.27256 0.91256 0.89318 0.0
H478 H 0.20122 0.95295 0.91375 0.0
C479 C 0.10398 0.97951 0.91763 0.0
C480 C 0.10879 0.98391 0.88905 0.0
C481 C 0.15147 0.96245 0.87733 0.0
C482 C 0.14866 0.95562 0.84964 0.0
C483 C 0.1904 0.93133 0.83847 0.0
C484 C 0.23454 0.91594 0.85415 0.0
C485 C 0.238 0.92421 0.88113 0.0
C486 C 0.19682 0.94695 0.89272 0.0
H487 H 0.1498 0.0127 0.79496 0.0
C488 C 0.12078 0.98489 0.78785 0.0
H489 H 0.06391 0.93471 0.79931 0.0
H490 H 0.03024 0.04223 0.90513 0.0
H491 H 0.95847 0.07741 0.87742 0.0
H492 H 0.9523 0.06455 0.82941 0.0
H493 H 1.01815 0.01697 0.80886 0.0
C494 C 0.09623 0.95967 0.80548 0.0
C495 C 0.10401 0.97228 0.83389 0.0
C496 C 0.06469 0.99953 0.84548 0.0
C497 C 0.06753 0.006 0.87311 0.0
C498 C 0.02876 0.0347 0.88426 0.0
C499 C 0.98768 0.05548 0.86856 0.0
C500 C 0.98427 0.04831 0.84154 0.0
C501 C 1.02222 0.02074 0.83001 0.0
H502 H 0.61423 0.45664 0.60957 0.0
C503 C 0.58448 0.47203 0.59561 0.0
H504 H 0.50927 0.50421 0.59101 0.0
H505 H 0.50197 0.38972 0.70421 0.0
H506 H 0.48471 0.31612 0.67701 0.0
H507 H 0.48966 0.31802 0.62918 0.0
H508 H 0.51137 0.39364 0.60827 0.0
C509 C 0.53777 0.48458 0.60381 0.0
C510 C 0.53035 0.48335 0.63226 0.0
C511 C 0.51952 0.43859 0.64431 0.0
C512 C 0.51753 0.43737 0.67194 0.0
C513 C 0.50478 0.39251 0.68336 0.0
C514 C 0.49473 0.35004 0.66797 0.0
C515 C 0.49756 0.35109 0.64105 0.0
C516 C 0.51008 0.3947 0.62928 0.0
H517 H 0.46303 0.52058 0.71941 0.0
C518 C 0.49529 0.5019 0.73034 0.0
H519 H 0.56145 0.45644 0.72641 0.0
H520 H 0.54818 0.57588 0.61504 0.0
H521 H 0.56681 0.64922 0.64203 0.0
H522 H 0.57015 0.64608 0.69019 0.0
H523 H 0.55413 0.56997 0.71158 0.0
C524 C 0.53046 0.47824 0.71667 0.0
C525 C 0.52798 0.48061 0.68755 0.0
C526 C 0.53862 0.52553 0.67542 0.0
C527 C 0.53843 0.52706 0.64769 0.0
C528 C 0.54837 0.57247 0.63603 0.0
C529 C 0.55918 0.6149 0.65129 0.0
C530 C 0.56094 0.61315 0.67839 0.0
C531 C 0.55113 0.56912 0.69042 0.0
H532 H 0.52454 0.44538 0.41427 0.0
C533 C 0.5553 0.46419 0.42692 0.0
H534 H 0.62874 0.50088 0.42819 0.0
H535 H 0.60631 0.36474 0.31665 0.0
H536 H 0.63099 0.29636 0.3447 0.0
H537 H 0.64315 0.30792 0.39277 0.0
H538 H 0.63051 0.3879 0.41309 0.0
C539 C 0.59965 0.47798 0.41673 0.0
C540 C 0.60279 0.47234 0.38795 0.0
C541 C 0.61024 0.42551 0.37637 0.0
C542 C 0.60315 0.41891 0.34866 0.0
C543 C 0.61078 0.37167 0.33762 0.0
C544 C 0.62509 0.33219 0.35348 0.0
C545 C 0.63193 0.33868 0.38055 0.0
C546 C 0.62449 0.3847 0.39197 0.0
H547 H 0.63592 0.48947 0.29124 0.0
C548 C 0.60051 0.46796 0.28533 0.0
H549 H 0.53641 0.42946 0.29919 0.0
H550 H 0.59261 0.56813 0.40383 0.0
H551 H 0.56883 0.63678 0.37605 0.0
H552 H 0.55232 0.6249 0.32816 0.0
H553 H 0.55994 0.54468 0.30777 0.0
C554 C 0.57259 0.45016 0.30415 0.0
C555 C 0.58833 0.4591 0.33259 0.0
C556 C 0.58349 0.50657 0.34414 0.0
C557 C 0.59174 0.51327 0.37184 0.0
C558 C 0.58639 0.5609 0.38293 0.0
C559 C 0.57276 0.60066 0.36722 0.0
C560 C 0.56355 0.59398 0.34026 0.0
C561 C 0.56847 0.5476 0.32877 0.0
loop_
_geom_bond_atom_site_label_1
_geom_bond_atom_site_label_2
_geom_bond_distance
_geom_bond_site_symmetry_2
_ccdc_geom_bond_type
Zn0 O6 1.920 1_545 S
Zn0 O12 1.898 . S
Zn0 O15 1.905 1_545 S
Zn1 O9 1.905 . S
Zn1 O10 1.898 1_545 S
Zn1 O18 1.920 1_545 S
Zn2 O5 2.080 1_445 S
Zn2 O8 2.114 . S
Zn2 O11 2.120 1_545 S
Zn2 O13 2.120 1_455 S
Zn2 O14 2.114 1_554 S
Zn2 O17 2.080 . S
C3 O8 1.166 . S
C3 O9 1.182 . S
C4 O10 1.167 . S
C4 O11 1.299 . S
O5 Zn2 2.080 1_665 S
O5 C19 1.305 . S
O6 Zn0 1.920 1_565 S
O6 C19 1.234 1_556 S
C7 O12 1.167 . S
C7 O13 1.299 1_556 S
O8 Zn2 2.114 . S
O8 C3 1.166 . S
O9 Zn1 1.905 . S
O9 C3 1.182 . S
O10 Zn1 1.898 1_565 S
O10 C4 1.167 . S
O11 Zn2 2.120 1_565 S
O11 C4 1.299 . S
O12 Zn0 1.898 . S
O12 C7 1.167 . S
O13 Zn2 2.120 1_655 S
O13 C7 1.299 1_554 S
O14 Zn2 2.114 1_556 S
O14 C16 1.166 1_545 S
O15 Zn0 1.905 1_565 S
O15 C16 1.182 1_655 S
C16 O14 1.166 1_565 S
C16 O15 1.182 1_455 S
O17 Zn2 2.080 . S
O17 C20 1.305 1_545 S
O18 Zn1 1.920 1_565 S
O18 C20 1.234 . S
C19 O5 1.305 . S
C19 O6 1.234 1_554 S
C20 O17 1.305 1_565 S
C20 O18 1.234 . S
Zn21 O27 1.920 . S
Zn21 O33 1.898 . S
Zn21 O36 1.905 . S
Zn22 O30 1.905 . S
Zn22 O31 1.898 . S
Zn22 O39 1.920 . S
Zn23 O26 2.080 . S
Zn23 O29 2.114 . S
Zn23 O32 2.120 . S
Zn23 O34 2.120 . S
Zn23 O35 2.114 . S
Zn23 O38 2.080 . S
C24 O29 1.166 . S
C24 O30 1.182 . S
C25 O31 1.167 . S
C25 O32 1.299 . S
O26 Zn23 2.080 . S
O26 C40 1.305 . S
O27 Zn21 1.920 . S
O27 C40 1.234 . S
C28 O33 1.167 . S
C28 O34 1.299 . S
O29 Zn23 2.114 . S
O29 C24 1.166 . S
O30 Zn22 1.905 . S
O30 C24 1.182 . S
O31 Zn22 1.898 . S
O31 C25 1.167 . S
O32 Zn23 2.120 . S
O32 C25 1.299 . S
O33 Zn21 1.898 . S
O33 C28 1.167 . S
O34 Zn23 2.120 . S
O34 C28 1.299 . S
O35 Zn23 2.114 . S
O35 C37 1.166 . S
O36 Zn21 1.905 . S
O36 C37 1.182 . S
C37 O35 1.166 . S
C37 O36 1.182 . S
O38 Zn23 2.080 . S
O38 C41 1.305 . S
O39 Zn22 1.920 . S
O39 C41 1.234 . S
C40 O26 1.305 . S
C40 O27 1.234 . S
C41 O38 1.305 . S
C41 O39 1.234 . S
C42 C43 1.264 . S
C42 C47 1.479 . S
C42 C52 1.465 1_655 S
C43 C42 1.264 . S
C43 C45 1.339 . S
C43 H70 0.931 . S
C44 C45 1.395 . S
C44 C46 1.320 . S
C45 C43 1.339 . S
C45 C44 1.395 . S
C45 H71 0.929 . S
C46 C44 1.320 . S
C46 C47 1.405 . S
C46 H72 0.930 . S
C47 C42 1.479 . S
C47 C46 1.405 . S
C47 H73 0.931 1_655 S
U48 O49 2.454 . S
U48 O50 2.458 1_545 S
U48 C51 2.984 1_545 S
U48 C52 2.847 . S
U48 C65 2.882 . S
U48 O66 2.441 . S
U48 O67 2.420 . S
U48 O68 2.455 . S
U48 O69 2.449 . S
O49 U48 2.454 . S
O49 C51 1.353 1_545 S
O50 U48 2.458 1_565 S
O50 C51 1.286 . S
C51 U48 2.984 1_565 S
C51 O49 1.353 1_565 S
C51 O50 1.286 . S
C51 C53 1.363 . S
C52 C42 1.465 1_455 S
C52 U48 2.847 . S
C52 O66 1.249 . S
C52 O67 1.202 . S
C53 C51 1.363 . S
C53 C55 1.408 . S
C53 C58 1.342 . S
C54 C55 1.310 . S
C54 C57 1.461 . S
C54 H74 0.932 . S
C55 C53 1.408 . S
C55 C54 1.310 . S
C55 H75 0.930 . S
C56 C57 1.474 . S
C56 C58 1.285 . S
C56 H76 0.929 . S
C57 C54 1.461 . S
C57 C56 1.474 . S
C58 C53 1.342 . S
C58 C56 1.285 . S
C58 H77 0.930 . S
C59 C62 1.424 . S
C59 C64 1.245 . S
C59 C65 1.428 . S
C60 C63 1.260 . S
C60 C64 1.477 . S
C60 H78 0.932 . S
C61 C62 1.384 . S
C61 C63 1.479 . S
C61 H79 0.929 . S
C62 C59 1.424 . S
C62 C61 1.384 . S
C62 H80 0.928 . S
C63 C60 1.260 . S
C63 C61 1.479 . S
C64 C59 1.245 . S
C64 C60 1.477 . S
C64 H81 0.932 . S
C65 U48 2.882 . S
C65 C59 1.428 . S
C65 O68 1.301 . S
C65 O69 1.282 . S
O66 U48 2.441 . S
O66 C52 1.249 . S
O67 U48 2.420 . S
O67 C52 1.202 . S
O68 U48 2.455 . S
O68 C65 1.301 . S
O69 U48 2.449 . S
O69 C65 1.282 . S
H70 C43 0.931 . S
H71 C45 0.929 . S
H72 C46 0.930 . S
H73 C47 0.931 1_455 S
H74 C54 0.932 . S
H75 C55 0.930 . S
H76 C56 0.929 . S
H77 C58 0.930 . S
H78 C60 0.932 . S
H79 C61 0.929 . S
H80 C62 0.928 . S
H81 C64 0.932 . S
C82 C83 1.264 . S
C82 C87 1.479 . S
C82 C92 1.465 . S
C83 C82 1.264 . S
C83 C85 1.339 . S
C83 H110 0.931 . S
C84 C85 1.395 . S
C84 C86 1.320 . S
C85 C83 1.339 . S
C85 C84 1.395 . S
C85 H111 0.929 . S
C86 C84 1.320 . S
C86 C87 1.405 . S
C86 H112 0.930 . S
C87 C82 1.479 . S
C87 C86 1.405 . S
C87 H113 0.931 . S
U88 O89 2.454 . S
U88 O90 2.458 . S
U88 C91 2.984 . S
U88 C92 2.847 1_445 S
U88 C105 2.882 . S
U88 O106 2.441 1_445 S
U88 O107 2.420 1_445 S
U88 O108 2.455 . S
U88 O109 2.449 1_545 S
O89 U88 2.454 . S
O89 C91 1.353 . S
O90 U88 2.458 . S
O90 C91 1.286 . S
C91 U88 2.984 . S
C91 O89 1.353 . S
C91 O90 1.286 . S
C91 C93 1.363 . S
C92 C82 1.465 . S
C92 U88 2.847 1_665 S
C92 O106 1.249 . S
C92 O107 1.202 . S
C93 C91 1.363 . S
C93 C95 1.408 . S
C93 C98 1.342 . S
C94 C95 1.310 . S
C94 C97 1.461 . S
C94 H114 0.932 . S
C95 C93 1.408 . S
C95 C94 1.310 . S
C95 H115 0.930 . S
C96 C97 1.474 . S
C96 C98 1.285 . S
C96 H116 0.929 . S
C97 C94 1.461 . S
C97 C96 1.474 . S
C98 C93 1.342 . S
C98 C96 1.285 . S
C98 H117 0.930 . S
C99 C102 1.424 1_445 S
C99 C104 1.245 . S
C99 C105 1.428 . S
C100 C103 1.260 . S
C100 C104 1.477 . S
C100 H118 0.932 . S
C101 C102 1.384 . S
C101 C103 1.479 1_665 S
C101 H119 0.929 . S
C102 C99 1.424 1_665 S
C102 C101 1.384 . S
C102 H120 0.928 . S
C103 C100 1.260 . S
C103 C101 1.479 1_445 S
C104 C99 1.245 . S
C104 C100 1.477 . S
C104 H121 0.932 . S
C105 U88 2.882 . S
C105 C99 1.428 . S
C105 O108 1.301 . S
C105 O109 1.282 1_545 S
O106 U88 2.441 1_665 S
O106 C92 1.249 . S
O107 U88 2.420 1_665 S
O107 C92 1.202 . S
O108 U88 2.455 . S
O108 C105 1.301 . S
O109 U88 2.449 1_565 S
O109 C105 1.282 1_565 S
H110 C83 0.931 . S
H111 C85 0.929 . S
H112 C86 0.930 . S
H113 C87 0.931 . S
H114 C94 0.932 . S
H115 C95 0.930 . S
H116 C96 0.929 . S
H117 C98 0.930 . S
H118 C100 0.932 . S
H119 C101 0.929 . S
H120 C102 0.928 . S
H121 C104 0.932 . S
C122 C123 1.264 . S
C122 C127 1.479 . S
C122 C132 1.465 . S
C123 C122 1.264 . S
C123 C125 1.339 . S
C123 H150 0.931 . S
C124 C125 1.395 . S
C124 C126 1.320 . S
C125 C123 1.339 . S
C125 C124 1.395 . S
C125 H151 0.929 . S
C126 C124 1.320 . S
C126 C127 1.405 . S
C126 H152 0.930 . S
C127 C122 1.479 . S
C127 C126 1.405 . S
C127 H153 0.931 . S
U128 O129 2.454 . S
U128 O130 2.458 . S
U128 C131 2.984 . S
U128 C132 2.847 . S
U128 C145 2.882 . S
U128 O146 2.441 . S
U128 O147 2.420 . S
U128 O148 2.455 . S
U128 O149 2.449 . S
O129 U128 2.454 . S
O129 C131 1.353 . S
O130 U128 2.458 . S
O130 C131 1.286 . S
C131 U128 2.984 . S
C131 O129 1.353 . S
C131 O130 1.286 . S
C131 C133 1.363 . S
C132 C122 1.465 . S
C132 U128 2.847 . S
C132 O146 1.249 . S
C132 O147 1.202 . S
C133 C131 1.363 . S
C133 C135 1.408 . S
C133 C138 1.342 . S
C134 C135 1.310 . S
C134 C137 1.461 . S
C134 H154 0.932 1_556 S
C135 C133 1.408 . S
C135 C134 1.310 . S
C135 H155 0.930 . S
C136 C137 1.474 . S
C136 C138 1.285 . S
C136 H156 0.929 . S
C137 C134 1.461 . S
C137 C136 1.474 . S
C138 C133 1.342 . S
C138 C136 1.285 . S
C138 H157 0.930 . S
C139 C142 1.424 . S
C139 C144 1.245 . S
C139 C145 1.428 . S
C140 C143 1.260 . S
C140 C144 1.477 . S
C140 H158 0.932 . S
C141 C142 1.384 . S
C141 C143 1.479 . S
C141 H159 0.929 . S
C142 C139 1.424 . S
C142 C141 1.384 . S
C142 H160 0.928 . S
C143 C140 1.260 . S
C143 C141 1.479 . S
C144 C139 1.245 . S
C144 C140 1.477 . S
C144 H161 0.932 . S
C145 U128 2.882 . S
C145 C139 1.428 . S
C145 O148 1.301 . S
C145 O149 1.282 . S
O146 U128 2.441 . S
O146 C132 1.249 . S
O147 U128 2.420 . S
O147 C132 1.202 . S
O148 U128 2.455 . S
O148 C145 1.301 . S
O149 U128 2.449 . S
O149 C145 1.282 . S
H150 C123 0.931 . S
H151 C125 0.929 . S
H152 C126 0.930 . S
H153 C127 0.931 . S
H154 C134 0.932 1_554 S
H155 C135 0.930 . S
H156 C136 0.929 . S
H157 C138 0.930 . S
H158 C140 0.932 . S
H159 C141 0.929 . S
H160 C142 0.928 . S
H161 C144 0.932 . S
C162 C163 1.264 . S
C162 C167 1.479 . S
C162 C172 1.465 . S
C163 C162 1.264 . S
C163 C165 1.339 . S
C163 H190 0.931 . S
C164 C165 1.395 . S
C164 C166 1.320 . S
C165 C163 1.339 . S
C165 C164 1.395 . S
C165 H191 0.929 . S
C166 C164 1.320 . S
C166 C167 1.405 . S
C166 H192 0.930 . S
C167 C162 1.479 . S
C167 C166 1.405 . S
C167 H193 0.931 . S
U168 O169 2.454 . S
U168 O170 2.458 . S
U168 C171 2.984 . S
U168 C172 2.847 . S
U168 C185 2.882 . S
U168 O186 2.441 . S
U168 O187 2.420 . S
U168 O188 2.455 . S
U168 O189 2.449 . S
O169 U168 2.454 . S
O169 C171 1.353 . S
O170 U168 2.458 . S
O170 C171 1.286 . S
C171 U168 2.984 . S
C171 O169 1.353 . S
C171 O170 1.286 . S
C171 C173 1.363 . S
C172 C162 1.465 . S
C172 U168 2.847 . S
C172 O186 1.249 . S
C172 O187 1.202 . S
C173 C171 1.363 . S
C173 C175 1.408 . S
C173 C178 1.342 . S
C174 C175 1.310 . S
C174 C177 1.461 . S
C174 H194 0.932 . S
C175 C173 1.408 . S
C175 C174 1.310 . S
C175 H195 0.930 . S
C176 C177 1.474 . S
C176 C178 1.285 . S
C176 H196 0.929 . S
C177 C174 1.461 . S
C177 C176 1.474 . S
C178 C173 1.342 . S
C178 C176 1.285 . S
C178 H197 0.930 . S
C179 C182 1.424 . S
C179 C184 1.245 . S
C179 C185 1.428 . S
C180 C183 1.260 . S
C180 C184 1.477 . S
C180 H198 0.932 . S
C181 C182 1.384 . S
C181 C183 1.479 . S
C181 H199 0.929 . S
C182 C179 1.424 . S
C182 C181 1.384 . S
C182 H200 0.928 . S
C183 C180 1.260 . S
C183 C181 1.479 . S
C184 C179 1.245 . S
C184 C180 1.477 . S
C184 H201 0.932 . S
C185 U168 2.882 . S
C185 C179 1.428 . S
C185 O188 1.301 . S
C185 O189 1.282 . S
O186 U168 2.441 . S
O186 C172 1.249 . S
O187 U168 2.420 . S
O187 C172 1.202 . S
O188 U168 2.455 . S
O188 C185 1.301 . S
O189 U168 2.449 . S
O189 C185 1.282 . S
H190 C163 0.931 . S
H191 C165 0.929 . S
H192 C166 0.930 . S
H193 C167 0.931 . S
H194 C174 0.932 . S
H195 C175 0.930 . S
H196 C176 0.929 . S
H197 C178 0.930 . S
H198 C180 0.932 . S
H199 C181 0.929 . S
H200 C182 0.928 . S
H201 C184 0.932 . S
H202 C203 0.951 . S
C203 H202 0.951 . S
C203 C209 1.265 . S
H204 C209 0.950 . S
H205 C213 0.949 . S
H206 C214 0.950 . S
H207 C215 0.951 . S
H208 C216 0.951 . S
C209 C203 1.265 . S
C209 H204 0.950 . S
C209 C210 1.478 . S
C210 C209 1.478 . S
C210 C211 1.397 . S
C210 C227 1.394 . S
C211 C210 1.397 . S
C211 C212 1.438 . S
C211 C216 1.429 . S
C212 C211 1.438 . S
C212 C213 1.428 . S
C212 C225 1.394 . S
C213 H205 0.949 . S
C213 C212 1.428 . S
C213 C214 1.345 . S
C214 H206 0.950 . S
C214 C213 1.345 . S
C214 C215 1.424 . S
C215 H207 0.951 . S
C215 C214 1.424 . S
C215 C216 1.347 . S
C216 H208 0.951 . S
C216 C211 1.429 . S
C216 C215 1.347 . S
H217 C218 0.951 . S
C218 H217 0.951 . S
C218 C224 1.265 . S
H219 C224 0.950 . S
H220 C228 0.949 . S
H221 C229 0.950 . S
H222 C230 0.951 . S
H223 C231 0.951 . S
C224 C218 1.265 . S
C224 H219 0.950 . S
C224 C225 1.478 . S
C225 C212 1.394 . S
C225 C224 1.478 . S
C225 C226 1.397 . S
C226 C225 1.397 . S
C226 C227 1.438 . S
C226 C231 1.429 1_554 S
C227 C210 1.394 . S
C227 C226 1.438 . S
C227 C228 1.428 1_554 S
C228 H220 0.949 . S
C228 C227 1.428 1_556 S
C228 C229 1.345 . S
C229 H221 0.950 . S
C229 C228 1.345 . S
C229 C230 1.424 . S
C230 H222 0.951 . S
C230 C229 1.424 . S
C230 C231 1.347 . S
C231 H223 0.951 . S
C231 C226 1.429 1_556 S
C231 C230 1.347 . S
H232 C233 0.951 . S
C233 H232 0.951 . S
C233 C239 1.265 . S
H234 C239 0.950 . S
H235 C243 0.949 . S
H236 C244 0.950 . S
H237 C245 0.951 . S
H238 C246 0.951 . S
C239 C233 1.265 . S
C239 H234 0.950 . S
C239 C240 1.478 . S
C240 C239 1.478 . S
C240 C241 1.397 1_556 S
C240 C257 1.394 . S
C241 C240 1.397 1_554 S
C241 C242 1.438 . S
C241 C246 1.429 . S
C242 C241 1.438 . S
C242 C243 1.428 . S
C242 C255 1.394 1_554 S
C243 H235 0.949 . S
C243 C242 1.428 . S
C243 C244 1.345 . S
C244 H236 0.950 . S
C244 C243 1.345 . S
C244 C245 1.424 . S
C245 H237 0.951 . S
C245 C244 1.424 . S
C245 C246 1.347 . S
C246 H238 0.951 . S
C246 C241 1.429 . S
C246 C245 1.347 . S
H247 C248 0.951 . S
C248 H247 0.951 . S
C248 C254 1.265 . S
H249 C254 0.950 . S
H250 C258 0.949 . S
H251 C259 0.950 . S
H252 C260 0.951 . S
H253 C261 0.951 . S
C254 C248 1.265 . S
C254 H249 0.950 . S
C254 C255 1.478 . S
C255 C242 1.394 1_556 S
C255 C254 1.478 . S
C255 C256 1.397 . S
C256 C255 1.397 . S
C256 C257 1.438 . S
C256 C261 1.429 . S
C257 C240 1.394 . S
C257 C256 1.438 . S
C257 C258 1.428 . S
C258 H250 0.949 . S
C258 C257 1.428 . S
C258 C259 1.345 . S
C259 H251 0.950 . S
C259 C258 1.345 . S
C259 C260 1.424 . S
C260 H252 0.951 . S
C260 C259 1.424 . S
C260 C261 1.347 . S
C261 H253 0.951 . S
C261 C256 1.429 . S
C261 C260 1.347 . S
H262 C263 0.951 . S
C263 H262 0.951 . S
C263 C269 1.265 . S
H264 C269 0.950 . S
H265 C273 0.949 . S
H266 C274 0.950 . S
H267 C275 0.951 . S
H268 C276 0.951 . S
C269 C263 1.265 . S
C269 H264 0.950 . S
C269 C270 1.478 . S
C270 C269 1.478 . S
C270 C271 1.397 . S
C270 C287 1.394 . S
C271 C270 1.397 . S
C271 C272 1.438 . S
C271 C276 1.429 . S
C272 C271 1.438 . S
C272 C273 1.428 . S
C272 C285 1.394 . S
C273 H265 0.949 . S
C273 C272 1.428 . S
C273 C274 1.345 . S
C274 H266 0.950 . S
C274 C273 1.345 . S
C274 C275 1.424 . S
C275 H267 0.951 . S
C275 C274 1.424 . S
C275 C276 1.347 . S
C276 H268 0.951 . S
C276 C271 1.429 . S
C276 C275 1.347 . S
H277 C278 0.951 . S
C278 H277 0.951 . S
C278 C284 1.265 . S
H279 C284 0.950 . S
H280 C288 0.949 . S
H281 C289 0.950 . S
H282 C290 0.951 . S
H283 C291 0.951 . S
C284 C278 1.265 . S
C284 H279 0.950 . S
C284 C285 1.478 . S
C285 C272 1.394 . S
C285 C284 1.478 . S
C285 C286 1.397 . S
C286 C285 1.397 . S
C286 C287 1.438 . S
C286 C291 1.429 . S
C287 C270 1.394 . S
C287 C286 1.438 . S
C287 C288 1.428 1_554 S
C288 H280 0.949 . S
C288 C287 1.428 1_556 S
C288 C289 1.345 . S
C289 H281 0.950 . S
C289 C288 1.345 . S
C289 C290 1.424 . S
C290 H282 0.951 . S
C290 C289 1.424 . S
C290 C291 1.347 1_556 S
C291 H283 0.951 . S
C291 C286 1.429 . S
C291 C290 1.347 1_554 S
H292 C293 0.947 1_554 S
C293 H292 0.947 1_556 S
C293 C299 1.274 . S
H294 C299 0.950 . S
H295 C303 0.949 . S
H296 C304 0.950 . S
H297 C305 0.951 . S
H298 C306 0.951 . S
C299 C293 1.274 . S
C299 H294 0.950 . S
C299 C300 1.478 . S
C300 C299 1.478 . S
C300 C301 1.397 . S
C300 C317 1.394 1_556 S
C301 C300 1.397 . S
C301 C302 1.438 . S
C301 C306 1.429 . S
C302 C301 1.438 . S
C302 C303 1.428 . S
C302 C315 1.394 . S
C303 H295 0.949 . S
C303 C302 1.428 . S
C303 C304 1.345 . S
C304 H296 0.950 . S
C304 C303 1.345 . S
C304 C305 1.424 . S
C305 H297 0.951 . S
C305 C304 1.424 . S
C305 C306 1.347 . S
C306 H298 0.951 . S
C306 C301 1.429 . S
C306 C305 1.347 . S
H307 C308 0.951 . S
C308 H307 0.951 . S
C308 C314 1.265 . S
H309 C314 0.950 . S
H310 C318 0.949 . S
H311 C319 0.950 . S
H312 C320 0.951 . S
H313 C321 0.951 . S
C314 C308 1.265 . S
C314 H309 0.950 . S
C314 C315 1.478 . S
C315 C302 1.394 . S
C315 C314 1.478 . S
C315 C316 1.397 1_556 S
C316 C315 1.397 1_554 S
C316 C317 1.438 . S
C316 C321 1.429 . S
C317 C300 1.394 1_554 S
C317 C316 1.438 . S
C317 C318 1.428 . S
C318 H310 0.949 . S
C318 C317 1.428 . S
C318 C319 1.345 . S
C319 H311 0.950 . S
C319 C318 1.345 . S
C319 C320 1.424 . S
C320 H312 0.951 . S
C320 C319 1.424 . S
C320 C321 1.347 . S
C321 H313 0.951 . S
C321 C316 1.429 . S
C321 C320 1.347 . S
H322 C323 0.951 . S
C323 H322 0.951 . S
C323 C329 1.265 . S
H324 C329 0.950 . S
H325 C333 0.949 . S
H326 C334 0.950 . S
H327 C335 0.951 . S
H328 C336 0.951 . S
C329 C323 1.265 . S
C329 H324 0.950 . S
C329 C330 1.478 . S
C330 C329 1.478 . S
C330 C331 1.397 . S
C330 C347 1.394 . S
C331 C330 1.397 . S
C331 C332 1.438 . S
C331 C336 1.429 . S
C332 C331 1.438 . S
C332 C333 1.428 . S
C332 C345 1.394 . S
C333 H325 0.949 . S
C333 C332 1.428 . S
C333 C334 1.345 . S
C334 H326 0.950 . S
C334 C333 1.345 . S
C334 C335 1.424 . S
C335 H327 0.951 . S
C335 C334 1.424 . S
C335 C336 1.347 . S
C336 H328 0.951 . S
C336 C331 1.429 . S
C336 C335 1.347 . S
H337 C338 0.951 . S
C338 H337 0.951 . S
C338 C344 1.265 . S
H339 C344 0.950 . S
H340 C348 0.949 . S
H341 C349 0.950 . S
H342 C350 0.951 . S
H343 C351 0.951 . S
C344 C338 1.265 . S
C344 H339 0.950 . S
C344 C345 1.478 . S
C345 C332 1.394 . S
C345 C344 1.478 . S
C345 C346 1.397 . S
C346 C345 1.397 . S
C346 C347 1.438 . S
C346 C351 1.429 . S
C347 C330 1.394 . S
C347 C346 1.438 . S
C347 C348 1.428 . S
C348 H340 0.949 . S
C348 C347 1.428 . S
C348 C349 1.345 . S
C349 H341 0.950 . S
C349 C348 1.345 . S
C349 C350 1.424 . S
C350 H342 0.951 . S
C350 C349 1.424 . S
C350 C351 1.347 . S
C351 H343 0.951 . S
C351 C346 1.429 . S
C351 C350 1.347 . S
H352 C353 0.951 . S
C353 H352 0.951 . S
C353 C359 1.265 . S
H354 C359 0.950 . S
H355 C363 0.949 . S
H356 C364 0.950 . S
H357 C365 0.951 . S
H358 C366 0.951 . S
C359 C353 1.265 . S
C359 H354 0.950 . S
C359 C360 1.478 . S
C360 C359 1.478 . S
C360 C361 1.397 . S
C360 C377 1.394 . S
C361 C360 1.397 . S
C361 C362 1.438 . S
C361 C366 1.429 . S
C362 C361 1.438 . S
C362 C363 1.428 . S
C362 C375 1.394 . S
C363 H355 0.949 . S
C363 C362 1.428 . S
C363 C364 1.345 . S
C364 H356 0.950 . S
C364 C363 1.345 . S
C364 C365 1.424 . S
C365 H357 0.951 . S
C365 C364 1.424 . S
C365 C366 1.347 . S
C366 H358 0.951 . S
C366 C361 1.429 . S
C366 C365 1.347 . S
H367 C368 0.951 . S
C368 H367 0.951 . S
C368 C374 1.265 . S
H369 C374 0.950 . S
H370 C378 0.949 . S
H371 C379 0.950 . S
H372 C380 0.951 . S
H373 C381 0.951 . S
C374 C368 1.265 . S
C374 H369 0.950 . S
C374 C375 1.478 . S
C375 C362 1.394 . S
C375 C374 1.478 . S
C375 C376 1.397 . S
C376 C375 1.397 . S
C376 C377 1.438 . S
C376 C381 1.429 . S
C377 C360 1.394 . S
C377 C376 1.438 . S
C377 C378 1.428 . S
C378 H370 0.949 . S
C378 C377 1.428 . S
C378 C379 1.345 . S
C379 H371 0.950 . S
C379 C378 1.345 . S
C379 C380 1.424 . S
C380 H372 0.951 . S
C380 C379 1.424 . S
C380 C381 1.347 . S
C381 H373 0.951 . S
C381 C376 1.429 . S
C381 C380 1.347 . S
H382 C383 0.951 . S
C383 H382 0.951 . S
C383 C389 1.265 . S
H384 C389 0.950 . S
H385 C393 0.949 . S
H386 C394 0.950 . S
H387 C395 0.951 . S
H388 C396 0.951 . S
C389 C383 1.265 . S
C389 H384 0.950 . S
C389 C390 1.478 . S
C390 C389 1.478 . S
C390 C391 1.397 . S
C390 C407 1.394 . S
C391 C390 1.397 . S
C391 C392 1.438 . S
C391 C396 1.429 . S
C392 C391 1.438 . S
C392 C393 1.428 . S
C392 C405 1.394 . S
C393 H385 0.949 . S
C393 C392 1.428 . S
C393 C394 1.345 . S
C394 H386 0.950 . S
C394 C393 1.345 . S
C394 C395 1.424 . S
C395 H387 0.951 . S
C395 C394 1.424 . S
C395 C396 1.347 . S
C396 H388 0.951 . S
C396 C391 1.429 . S
C396 C395 1.347 . S
H397 C398 0.951 . S
C398 H397 0.951 . S
C398 C404 1.265 . S
H399 C404 0.950 . S
H400 C408 0.949 . S
H401 C409 0.950 . S
H402 C410 0.951 . S
H403 C411 0.951 . S
C404 C398 1.265 . S
C404 H399 0.950 . S
C404 C405 1.478 . S
C405 C392 1.394 . S
C405 C404 1.478 . S
C405 C406 1.397 . S
C406 C405 1.397 . S
C406 C407 1.438 . S
C406 C411 1.429 . S
C407 C390 1.394 . S
C407 C406 1.438 . S
C407 C408 1.428 . S
C408 H400 0.949 . S
C408 C407 1.428 . S
C408 C409 1.345 . S
C409 H401 0.950 . S
C409 C408 1.345 . S
C409 C410 1.424 . S
C410 H402 0.951 . S
C410 C409 1.424 . S
C410 C411 1.347 . S
C411 H403 0.951 . S
C411 C406 1.429 . S
C411 C410 1.347 . S
H412 C413 0.951 . S
C413 H412 0.951 . S
C413 C419 1.265 . S
H414 C419 0.950 . S
H415 C423 0.949 . S
H416 C424 0.950 . S
H417 C425 0.951 . S
H418 C426 0.951 . S
C419 C413 1.265 . S
C419 H414 0.950 . S
C419 C420 1.478 . S
C420 C419 1.478 . S
C420 C421 1.397 . S
C420 C437 1.394 . S
C421 C420 1.397 . S
C421 C422 1.438 . S
C421 C426 1.429 . S
C422 C421 1.438 . S
C422 C423 1.428 . S
C422 C435 1.394 . S
C423 H415 0.949 . S
C423 C422 1.428 . S
C423 C424 1.345 . S
C424 H416 0.950 . S
C424 C423 1.345 . S
C424 C425 1.424 . S
C425 H417 0.951 . S
C425 C424 1.424 . S
C425 C426 1.347 . S
C426 H418 0.951 . S
C426 C421 1.429 . S
C426 C425 1.347 . S
H427 C428 0.951 . S
C428 H427 0.951 . S
C428 C434 1.265 . S
H429 C434 0.950 . S
H430 C438 0.949 . S
H431 C439 0.950 . S
H432 C440 0.951 . S
H433 C441 0.951 . S
C434 C428 1.265 . S
C434 H429 0.950 . S
C434 C435 1.478 . S
C435 C422 1.394 . S
C435 C434 1.478 . S
C435 C436 1.397 . S
C436 C435 1.397 . S
C436 C437 1.438 . S
C436 C441 1.429 . S
C437 C420 1.394 . S
C437 C436 1.438 . S
C437 C438 1.428 . S
C438 H430 0.949 . S
C438 C437 1.428 . S
C438 C439 1.345 . S
C439 H431 0.950 . S
C439 C438 1.345 . S
C439 C440 1.424 . S
C440 H432 0.951 . S
C440 C439 1.424 . S
C440 C441 1.347 . S
C441 H433 0.951 . S
C441 C436 1.429 . S
C441 C440 1.347 . S
H442 C443 0.951 . S
C443 H442 0.951 . S
C443 C449 1.265 1_565 S
H444 C449 0.950 . S
H445 C453 0.949 . S
H446 C454 0.950 . S
H447 C455 0.951 . S
H448 C456 0.951 . S
C449 C443 1.265 1_545 S
C449 H444 0.950 . S
C449 C450 1.478 . S
C450 C449 1.478 . S
C450 C451 1.397 . S
C450 C467 1.394 1_545 S
C451 C450 1.397 . S
C451 C452 1.438 . S
C451 C456 1.429 . S
C452 C451 1.438 . S
C452 C453 1.428 . S
C452 C465 1.394 . S
C453 H445 0.949 . S
C453 C452 1.428 . S
C453 C454 1.345 . S
C454 H446 0.950 . S
C454 C453 1.345 . S
C454 C455 1.424 . S
C455 H447 0.951 . S
C455 C454 1.424 . S
C455 C456 1.347 . S
C456 H448 0.951 . S
C456 C451 1.429 . S
C456 C455 1.347 . S
H457 C458 0.951 . S
C458 H457 0.951 . S
C458 C464 1.265 . S
H459 C464 0.950 . S
H460 C468 0.949 . S
H461 C469 0.950 . S
H462 C470 0.951 . S
H463 C471 0.951 . S
C464 C458 1.265 . S
C464 H459 0.950 . S
C464 C465 1.478 . S
C465 C452 1.394 . S
C465 C464 1.478 . S
C465 C466 1.397 1_545 S
C466 C465 1.397 1_565 S
C466 C467 1.438 . S
C466 C471 1.429 . S
C467 C450 1.394 1_565 S
C467 C466 1.438 . S
C467 C468 1.428 . S
C468 H460 0.949 . S
C468 C467 1.428 . S
C468 C469 1.345 . S
C469 H461 0.950 . S
C469 C468 1.345 . S
C469 C470 1.424 . S
C470 H462 0.951 . S
C470 C469 1.424 . S
C470 C471 1.347 . S
C471 H463 0.951 . S
C471 C466 1.429 . S
C471 C470 1.347 . S
H472 C473 0.951 1_655 S
C473 H472 0.951 1_455 S
C473 C479 1.265 . S
H474 C479 0.950 . S
H475 C483 0.949 . S
H476 C484 0.950 . S
H477 C485 0.951 . S
H478 C486 0.951 . S
C479 C473 1.265 . S
C479 H474 0.950 . S
C479 C480 1.475 1_565 S
C480 C479 1.475 1_545 S
C480 C481 1.385 1_545 S
C480 C497 1.408 . S
C481 C480 1.385 1_565 S
C481 C482 1.438 . S
C481 C486 1.429 . S
C482 C481 1.438 . S
C482 C483 1.428 . S
C482 C495 1.394 1_565 S
C483 H475 0.949 . S
C483 C482 1.428 . S
C483 C484 1.345 . S
C484 H476 0.950 . S
C484 C483 1.345 . S
C484 C485 1.424 . S
C485 H477 0.951 . S
C485 C484 1.424 . S
C485 C486 1.347 . S
C486 H478 0.951 . S
C486 C481 1.429 . S
C486 C485 1.347 . S
H487 C488 0.951 . S
C488 H487 0.951 . S
C488 C494 1.265 1_455 S
H489 C494 0.950 . S
H490 C498 0.949 1_455 S
H491 C499 0.950 . S
H492 C500 0.951 . S
H493 C501 0.951 . S
C494 C488 1.265 1_655 S
C494 H489 0.950 . S
C494 C495 1.478 1_655 S
C495 C482 1.394 1_545 S
C495 C494 1.478 1_455 S
C495 C496 1.397 1_455 S
C496 C495 1.397 1_655 S
C496 C497 1.438 1_655 S
C496 C501 1.429 . S
C497 C480 1.408 . S
C497 C496 1.438 1_455 S
C497 C498 1.428 1_455 S
C498 H490 0.949 1_655 S
C498 C497 1.428 1_655 S
C498 C499 1.345 . S
C499 H491 0.950 . S
C499 C498 1.345 . S
C499 C500 1.424 . S
C500 H492 0.951 . S
C500 C499 1.424 . S
C500 C501 1.347 . S
C501 H493 0.951 . S
C501 C496 1.429 . S
C501 C500 1.347 . S
H502 C503 0.951 . S
C503 H502 0.951 . S
C503 C509 1.265 . S
H504 C509 0.950 . S
H505 C513 0.949 . S
H506 C514 0.950 . S
H507 C515 0.951 . S
H508 C516 0.951 . S
C509 C503 1.265 . S
C509 H504 0.950 . S
C509 C510 1.478 . S
C510 C509 1.478 . S
C510 C511 1.397 . S
C510 C527 1.394 . S
C511 C510 1.397 . S
C511 C512 1.438 . S
C511 C516 1.429 . S
C512 C511 1.438 . S
C512 C513 1.428 . S
C512 C525 1.394 . S
C513 H505 0.949 . S
C513 C512 1.428 . S
C513 C514 1.345 . S
C514 H506 0.950 . S
C514 C513 1.345 . S
C514 C515 1.424 . S
C515 H507 0.951 . S
C515 C514 1.424 . S
C515 C516 1.347 . S
C516 H508 0.951 . S
C516 C511 1.429 . S
C516 C515 1.347 . S
H517 C518 0.951 . S
C518 H517 0.951 . S
C518 C524 1.265 . S
H519 C524 0.950 . S
H520 C528 0.949 . S
H521 C529 0.950 . S
H522 C530 0.951 . S
H523 C531 0.951 . S
C524 C518 1.265 . S
C524 H519 0.950 . S
C524 C525 1.478 . S
C525 C512 1.394 . S
C525 C524 1.478 . S
C525 C526 1.397 . S
C526 C525 1.397 . S
C526 C527 1.438 . S
C526 C531 1.429 . S
C527 C510 1.394 . S
C527 C526 1.438 . S
C527 C528 1.428 . S
C528 H520 0.949 . S
C528 C527 1.428 . S
C528 C529 1.345 . S
C529 H521 0.950 . S
C529 C528 1.345 . S
C529 C530 1.424 . S
C530 H522 0.951 . S
C530 C529 1.424 . S
C530 C531 1.347 . S
C531 H523 0.951 . S
C531 C526 1.429 . S
C531 C530 1.347 . S
H532 C533 0.951 . S
C533 H532 0.951 . S
C533 C539 1.265 . S
H534 C539 0.950 . S
H535 C543 0.949 . S
H536 C544 0.950 . S
H537 C545 0.951 . S
H538 C546 0.951 . S
C539 C533 1.265 . S
C539 H534 0.950 . S
C539 C540 1.478 . S
C540 C539 1.478 . S
C540 C541 1.397 . S
C540 C557 1.394 . S
C541 C540 1.397 . S
C541 C542 1.438 . S
C541 C546 1.429 . S
C542 C541 1.438 . S
C542 C543 1.428 . S
C542 C555 1.394 . S
C543 H535 0.949 . S
C543 C542 1.428 . S
C543 C544 1.345 . S
C544 H536 0.950 . S
C544 C543 1.345 . S
C544 C545 1.424 . S
C545 H537 0.951 . S
C545 C544 1.424 . S
C545 C546 1.347 . S
C546 H538 0.951 . S
C546 C541 1.429 . S
C546 C545 1.347 . S
H547 C548 0.951 . S
C548 H547 0.951 . S
C548 C554 1.265 . S
H549 C554 0.950 . S
H550 C558 0.949 . S
H551 C559 0.950 . S
H552 C560 0.951 . S
H553 C561 0.951 . S
C554 C548 1.265 . S
C554 H549 0.950 . S
C554 C555 1.478 . S
C555 C542 1.394 . S
C555 C554 1.478 . S
C555 C556 1.397 . S
C556 C555 1.397 . S
C556 C557 1.438 . S
C556 C561 1.429 . S
C557 C540 1.394 . S
C557 C556 1.438 . S
C557 C558 1.428 . S
C558 H550 0.949 . S
C558 C557 1.428 . S
C558 C559 1.345 . S
C559 H551 0.950 . S
C559 C558 1.345 . S
C559 C560 1.424 . S
C560 H552 0.951 . S
C560 C559 1.424 . S
C560 C561 1.347 . S
C561 H553 0.951 . S
C561 C556 1.429 . S
C561 C560 1.347 . S
C218 C164 1.253 . S
C203 C3 1.041 . S
C233 C4 1.542 1_556 S
C248 C124 1.626 . S
C263 C19 1.527 . S
C278 C177 1.651 . S
C293 C7 1.060 . S
C308 C137 1.231 . S
C323 C37 1.200 . S
C338 C84 1.192 . S
C353 C28 1.528 . S
C368 C44 1.661 . S
C398 C97 1.657 . S
C383 C41 1.583 . S
C428 C57 1.220 . S
C413 C25 1.213 . S
C443 C20 1.366 . S
C458 C63 1.441 . S
C473 C16 1.256 . S
C488 C103 1.447 . S
C518 C143 1.458 . S
C503 C40 1.209 . S
C533 C24 1.256 . S
C548 C183 1.446 . S
