# Generated by pormake.
# Topology iac, (4,6)-cn, num edge types: 1
# Building blocks:
#     Node 0, Type 0, BuildingBlock: CEKHIL_clean_sbu_0, # of connection points: 4
#     Node 1, Type 0, BuildingBlock: CEKHIL_clean_sbu_0, # of connection points: 4
#     Node 2, Type 0, BuildingBlock: CEKHIL_clean_sbu_0, # of connection points: 4
#     Node 3, Type 0, BuildingBlock: CEKHIL_clean_sbu_0, # of connection points: 4
#     Node 4, Type 0, BuildingBlock: CEKHIL_clean_sbu_0, # of connection points: 4
#     Node 5, Type 0, BuildingBlock: CEKHIL_clean_sbu_0, # of connection points: 4
#     Node 6, Type 0, BuildingBlock: CEKHIL_clean_sbu_0, # of connection points: 4
#     Node 7, Type 0, BuildingBlock: CEKHIL_clean_sbu_0, # of connection points: 4
#     Node 8, Type 0, BuildingBlock: CEKHIL_clean_sbu_0, # of connection points: 4
#     Node 9, Type 0, BuildingBlock: CEKHIL_clean_sbu_0, # of connection points: 4
#     Node 10, Type 0, BuildingBlock: CEKHIL_clean_sbu_0, # of connection points: 4
#     Node 11, Type 0, BuildingBlock: CEKHIL_clean_sbu_0, # of connection points: 4
#     Node 12, Type 0, BuildingBlock: CEKHIL_clean_sbu_0, # of connection points: 4
#     Node 13, Type 0, BuildingBlock: CEKHIL_clean_sbu_0, # of connection points: 4
#     Node 14, Type 0, BuildingBlock: CEKHIL_clean_sbu_0, # of connection points: 4
#     Node 15, Type 0, BuildingBlock: CEKHIL_clean_sbu_0, # of connection points: 4
#     Node 16, Type 0, BuildingBlock: CEKHIL_clean_sbu_0, # of connection points: 4
#     Node 17, Type 0, BuildingBlock: CEKHIL_clean_sbu_0, # of connection points: 4
#     Node 18, Type 0, BuildingBlock: CEKHIL_clean_sbu_0, # of connection points: 4
#     Node 19, Type 0, BuildingBlock: CEKHIL_clean_sbu_0, # of connection points: 4
#     Node 20, Type 0, BuildingBlock: CEKHIL_clean_sbu_0, # of connection points: 4
#     Node 21, Type 0, BuildingBlock: CEKHIL_clean_sbu_0, # of connection points: 4
#     Node 22, Type 0, BuildingBlock: CEKHIL_clean_sbu_0, # of connection points: 4
#     Node 23, Type 0, BuildingBlock: CEKHIL_clean_sbu_0, # of connection points: 4
#     Node 24, Type 1, BuildingBlock: VOLQOD_clean_sbu_1, # of connection points: 6
#     Node 25, Type 1, BuildingBlock: VOLQOD_clean_sbu_1, # of connection points: 6
#     Node 26, Type 1, BuildingBlock: VOLQOD_clean_sbu_1, # of connection points: 6
#     Node 27, Type 1, BuildingBlock: VOLQOD_clean_sbu_1, # of connection points: 6
#     Node 28, Type 1, BuildingBlock: VOLQOD_clean_sbu_1, # of connection points: 6
#     Node 29, Type 1, BuildingBlock: VOLQOD_clean_sbu_1, # of connection points: 6
#     Node 30, Type 1, BuildingBlock: VOLQOD_clean_sbu_1, # of connection points: 6
#     Node 31, Type 1, BuildingBlock: VOLQOD_clean_sbu_1, # of connection points: 6
#     Node 32, Type 1, BuildingBlock: VOLQOD_clean_sbu_1, # of connection points: 6
#     Node 33, Type 1, BuildingBlock: VOLQOD_clean_sbu_1, # of connection points: 6
#     Node 34, Type 1, BuildingBlock: VOLQOD_clean_sbu_1, # of connection points: 6
#     Node 35, Type 1, BuildingBlock: VOLQOD_clean_sbu_1, # of connection points: 6
#     Node 36, Type 1, BuildingBlock: VOLQOD_clean_sbu_1, # of connection points: 6
#     Node 37, Type 1, BuildingBlock: VOLQOD_clean_sbu_1, # of connection points: 6
#     Node 38, Type 1, BuildingBlock: VOLQOD_clean_sbu_1, # of connection points: 6
#     Node 39, Type 1, BuildingBlock: VOLQOD_clean_sbu_1, # of connection points: 6
#     Edge 40, Type (0, 1), BuildingBlock: MIFKUJ_clean_linker_0, # of connection points: 2
#     Edge 41, Type (0, 1), BuildingBlock: MIFKUJ_clean_linker_0, # of connection points: 2
#     Edge 42, Type (0, 1), BuildingBlock: MIFKUJ_clean_linker_0, # of connection points: 2
#     Edge 43, Type (0, 1), BuildingBlock: MIFKUJ_clean_linker_0, # of connection points: 2
#     Edge 44, Type (0, 1), BuildingBlock: MIFKUJ_clean_linker_0, # of connection points: 2
#     Edge 45, Type (0, 1), BuildingBlock: MIFKUJ_clean_linker_0, # of connection points: 2
#     Edge 46, Type (0, 1), BuildingBlock: MIFKUJ_clean_linker_0, # of connection points: 2
#     Edge 47, Type (0, 1), BuildingBlock: MIFKUJ_clean_linker_0, # of connection points: 2
#     Edge 48, Type (0, 1), BuildingBlock: MIFKUJ_clean_linker_0, # of connection points: 2
#     Edge 49, Type (0, 1), BuildingBlock: MIFKUJ_clean_linker_0, # of connection points: 2
#     Edge 50, Type (0, 1), BuildingBlock: MIFKUJ_clean_linker_0, # of connection points: 2
#     Edge 51, Type (0, 1), BuildingBlock: MIFKUJ_clean_linker_0, # of connection points: 2
#     Edge 52, Type (0, 1), BuildingBlock: MIFKUJ_clean_linker_0, # of connection points: 2
#     Edge 53, Type (0, 1), BuildingBlock: MIFKUJ_clean_linker_0, # of connection points: 2
#     Edge 54, Type (0, 1), BuildingBlock: MIFKUJ_clean_linker_0, # of connection points: 2
#     Edge 55, Type (0, 1), BuildingBlock: MIFKUJ_clean_linker_0, # of connection points: 2
#     Edge 56, Type (0, 1), BuildingBlock: MIFKUJ_clean_linker_0, # of connection points: 2
#     Edge 57, Type (0, 1), BuildingBlock: MIFKUJ_clean_linker_0, # of connection points: 2
#     Edge 58, Type (0, 1), BuildingBlock: MIFKUJ_clean_linker_0, # of connection points: 2
#     Edge 59, Type (0, 1), BuildingBlock: MIFKUJ_clean_linker_0, # of connection points: 2
#     Edge 60, Type (0, 1), BuildingBlock: MIFKUJ_clean_linker_0, # of connection points: 2
#     Edge 61, Type (0, 1), BuildingBlock: MIFKUJ_clean_linker_0, # of connection points: 2
#     Edge 62, Type (0, 1), BuildingBlock: MIFKUJ_clean_linker_0, # of connection points: 2
#     Edge 63, Type (0, 1), BuildingBlock: MIFKUJ_clean_linker_0, # of connection points: 2
#     Edge 64, Type (0, 1), BuildingBlock: MIFKUJ_clean_linker_0, # of connection points: 2
#     Edge 65, Type (0, 1), BuildingBlock: MIFKUJ_clean_linker_0, # of connection points: 2
#     Edge 66, Type (0, 1), BuildingBlock: MIFKUJ_clean_linker_0, # of connection points: 2
#     Edge 67, Type (0, 1), BuildingBlock: MIFKUJ_clean_linker_0, # of connection points: 2
#     Edge 68, Type (0, 1), BuildingBlock: MIFKUJ_clean_linker_0, # of connection points: 2
#     Edge 69, Type (0, 1), BuildingBlock: MIFKUJ_clean_linker_0, # of connection points: 2
#     Edge 70, Type (0, 1), BuildingBlock: MIFKUJ_clean_linker_0, # of connection points: 2
#     Edge 71, Type (0, 1), BuildingBlock: MIFKUJ_clean_linker_0, # of connection points: 2
#     Edge 72, Type (0, 1), BuildingBlock: MIFKUJ_clean_linker_0, # of connection points: 2
#     Edge 73, Type (0, 1), BuildingBlock: MIFKUJ_clean_linker_0, # of connection points: 2
#     Edge 74, Type (0, 1), BuildingBlock: MIFKUJ_clean_linker_0, # of connection points: 2
#     Edge 75, Type (0, 1), BuildingBlock: MIFKUJ_clean_linker_0, # of connection points: 2
#     Edge 76, Type (0, 1), BuildingBlock: MIFKUJ_clean_linker_0, # of connection points: 2
#     Edge 77, Type (0, 1), BuildingBlock: MIFKUJ_clean_linker_0, # of connection points: 2
#     Edge 78, Type (0, 1), BuildingBlock: MIFKUJ_clean_linker_0, # of connection points: 2
#     Edge 79, Type (0, 1), BuildingBlock: MIFKUJ_clean_linker_0, # of connection points: 2
#     Edge 80, Type (0, 1), BuildingBlock: MIFKUJ_clean_linker_0, # of connection points: 2
#     Edge 81, Type (0, 1), BuildingBlock: MIFKUJ_clean_linker_0, # of connection points: 2
#     Edge 82, Type (0, 1), BuildingBlock: MIFKUJ_clean_linker_0, # of connection points: 2
#     Edge 83, Type (0, 1), BuildingBlock: MIFKUJ_clean_linker_0, # of connection points: 2
#     Edge 84, Type (0, 1), BuildingBlock: MIFKUJ_clean_linker_0, # of connection points: 2
#     Edge 85, Type (0, 1), BuildingBlock: MIFKUJ_clean_linker_0, # of connection points: 2
#     Edge 86, Type (0, 1), BuildingBlock: MIFKUJ_clean_linker_0, # of connection points: 2
#     Edge 87, Type (0, 1), BuildingBlock: MIFKUJ_clean_linker_0, # of connection points: 2
#     Edge 88, Type (0, 1), BuildingBlock: MIFKUJ_clean_linker_0, # of connection points: 2
#     Edge 89, Type (0, 1), BuildingBlock: MIFKUJ_clean_linker_0, # of connection points: 2
#     Edge 90, Type (0, 1), BuildingBlock: MIFKUJ_clean_linker_0, # of connection points: 2
#     Edge 91, Type (0, 1), BuildingBlock: MIFKUJ_clean_linker_0, # of connection points: 2
#     Edge 92, Type (0, 1), BuildingBlock: MIFKUJ_clean_linker_0, # of connection points: 2
#     Edge 93, Type (0, 1), BuildingBlock: MIFKUJ_clean_linker_0, # of connection points: 2
#     Edge 94, Type (0, 1), BuildingBlock: MIFKUJ_clean_linker_0, # of connection points: 2
#     Edge 95, Type (0, 1), BuildingBlock: MIFKUJ_clean_linker_0, # of connection points: 2
#     Edge 96, Type (0, 1), BuildingBlock: MIFKUJ_clean_linker_0, # of connection points: 2
#     Edge 97, Type (0, 1), BuildingBlock: MIFKUJ_clean_linker_0, # of connection points: 2
#     Edge 98, Type (0, 1), BuildingBlock: MIFKUJ_clean_linker_0, # of connection points: 2
#     Edge 99, Type (0, 1), BuildingBlock: MIFKUJ_clean_linker_0, # of connection points: 2
#     Edge 100, Type (0, 1), BuildingBlock: MIFKUJ_clean_linker_0, # of connection points: 2
#     Edge 101, Type (0, 1), BuildingBlock: MIFKUJ_clean_linker_0, # of connection points: 2
#     Edge 102, Type (0, 1), BuildingBlock: MIFKUJ_clean_linker_0, # of connection points: 2
#     Edge 103, Type (0, 1), BuildingBlock: MIFKUJ_clean_linker_0, # of connection points: 2
#     Edge 104, Type (0, 1), BuildingBlock: MIFKUJ_clean_linker_0, # of connection points: 2
#     Edge 105, Type (0, 1), BuildingBlock: MIFKUJ_clean_linker_0, # of connection points: 2
#     Edge 106, Type (0, 1), BuildingBlock: MIFKUJ_clean_linker_0, # of connection points: 2
#     Edge 107, Type (0, 1), BuildingBlock: MIFKUJ_clean_linker_0, # of connection points: 2
#     Edge 108, Type (0, 1), BuildingBlock: MIFKUJ_clean_linker_0, # of connection points: 2
#     Edge 109, Type (0, 1), BuildingBlock: MIFKUJ_clean_linker_0, # of connection points: 2
#     Edge 110, Type (0, 1), BuildingBlock: MIFKUJ_clean_linker_0, # of connection points: 2
#     Edge 111, Type (0, 1), BuildingBlock: MIFKUJ_clean_linker_0, # of connection points: 2
#     Edge 112, Type (0, 1), BuildingBlock: MIFKUJ_clean_linker_0, # of connection points: 2
#     Edge 113, Type (0, 1), BuildingBlock: MIFKUJ_clean_linker_0, # of connection points: 2
#     Edge 114, Type (0, 1), BuildingBlock: MIFKUJ_clean_linker_0, # of connection points: 2
#     Edge 115, Type (0, 1), BuildingBlock: MIFKUJ_clean_linker_0, # of connection points: 2
#     Edge 116, Type (0, 1), BuildingBlock: MIFKUJ_clean_linker_0, # of connection points: 2
#     Edge 117, Type (0, 1), BuildingBlock: MIFKUJ_clean_linker_0, # of connection points: 2
#     Edge 118, Type (0, 1), BuildingBlock: MIFKUJ_clean_linker_0, # of connection points: 2
#     Edge 119, Type (0, 1), BuildingBlock: MIFKUJ_clean_linker_0, # of connection points: 2
#     Edge 120, Type (0, 1), BuildingBlock: MIFKUJ_clean_linker_0, # of connection points: 2
#     Edge 121, Type (0, 1), BuildingBlock: MIFKUJ_clean_linker_0, # of connection points: 2
#     Edge 122, Type (0, 1), BuildingBlock: MIFKUJ_clean_linker_0, # of connection points: 2
#     Edge 123, Type (0, 1), BuildingBlock: MIFKUJ_clean_linker_0, # of connection points: 2
#     Edge 124, Type (0, 1), BuildingBlock: MIFKUJ_clean_linker_0, # of connection points: 2
#     Edge 125, Type (0, 1), BuildingBlock: MIFKUJ_clean_linker_0, # of connection points: 2
#     Edge 126, Type (0, 1), BuildingBlock: MIFKUJ_clean_linker_0, # of connection points: 2
#     Edge 127, Type (0, 1), BuildingBlock: MIFKUJ_clean_linker_0, # of connection points: 2
#     Edge 128, Type (0, 1), BuildingBlock: MIFKUJ_clean_linker_0, # of connection points: 2
#     Edge 129, Type (0, 1), BuildingBlock: MIFKUJ_clean_linker_0, # of connection points: 2
#     Edge 130, Type (0, 1), BuildingBlock: MIFKUJ_clean_linker_0, # of connection points: 2
#     Edge 131, Type (0, 1), BuildingBlock: MIFKUJ_clean_linker_0, # of connection points: 2
#     Edge 132, Type (0, 1), BuildingBlock: MIFKUJ_clean_linker_0, # of connection points: 2
#     Edge 133, Type (0, 1), BuildingBlock: MIFKUJ_clean_linker_0, # of connection points: 2
#     Edge 134, Type (0, 1), BuildingBlock: MIFKUJ_clean_linker_0, # of connection points: 2
#     Edge 135, Type (0, 1), BuildingBlock: MIFKUJ_clean_linker_0, # of connection points: 2
# Relax obj value: 0.303
# Max RMSD: 0.289
# Mean RMSD: 0.141
data_MOF--net-iac--node1-CEKHIL_clean_sbu_0--node2-VOLQOD_clean_sbu_1--edge1-MIFKUJ_clean_linker_0
_symmetry_space_group_name_H-M    P1
_symmetry_Int_Tables_number       1
_symmetry_cell_setting            triclinic
loop_
_symmetry_equiv_pos_as_xyz
'x, y, z'
_cell_length_a     70.581455
_cell_length_b     69.753616
_cell_length_c     68.817202
_cell_angle_alpha  90.025887
_cell_angle_beta   90.236726
_cell_angle_gamma 90.722448
loop_
_atom_site_label
_atom_site_type_symbol
_atom_site_fract_x
_atom_site_fract_y
_atom_site_fract_z
_atom_type_partial_charge
Co0 Co 0.99254 0.26408 0.12358 0.0
O1 O 0.96583 0.2591 0.12312 0.0
O2 O 0.98479 0.25373 0.14836 0.0
C3 C 0.99299 0.29341 0.11075 0.0
O4 O 0.02063 0.26805 0.12896 0.0
Co5 Co 0.01309 0.26712 0.08392 0.0
O6 O 0.03484 0.27526 0.10055 0.0
C7 C -0.00059 0.22986 0.09727 0.0
C8 C 0.96789 0.25281 0.14074 0.0
C9 C 0.03518 0.27343 0.119 0.0
O10 O 0.99688 0.23748 0.11398 0.0
O11 O 0.00404 0.23961 0.08223 0.0
O12 O 0.98874 0.29093 0.12894 0.0
O13 O 0.99358 0.27794 0.10034 0.0
Co14 Co 0.00879 0.76195 0.37865 0.0
O15 O 0.03454 0.75486 0.37429 0.0
O16 O 0.01039 0.74778 0.35464 0.0
C17 C 0.01398 0.79254 0.38712 0.0
O18 O 0.98067 0.76737 0.37816 0.0
Co19 Co 0.99541 0.77361 0.41992 0.0
O20 O 0.97181 0.78115 0.4062 0.0
C21 C 0.0051 0.73366 0.41164 0.0
C22 C 0.02836 0.74646 0.3586 0.0
C23 C 0.96838 0.77587 0.38878 0.0
O24 O 0.00471 0.73749 0.3934 0.0
O25 O 0.00351 0.7465 0.42481 0.0
O26 O 0.01354 0.78779 0.36883 0.0
O27 O 0.01358 0.77849 0.39933 0.0
Co28 Co 0.50373 0.76527 0.63534 0.0
O29 O 0.47687 0.76633 0.63725 0.0
O30 O 0.49578 0.75484 0.66022 0.0
C31 C 0.50863 0.79478 0.62363 0.0
O32 O 0.53233 0.76269 0.63779 0.0
Co33 Co 0.52053 0.76631 0.59398 0.0
O34 O 0.5447 0.76991 0.60854 0.0
C35 C 0.49901 0.73266 0.60656 0.0
C36 C 0.47863 0.75778 0.65385 0.0
C37 C 0.54654 0.76649 0.62666 0.0
O38 O 0.50087 0.739 0.62394 0.0
O39 O 0.50461 0.74218 0.59172 0.0
O40 O 0.50661 0.79215 0.64222 0.0
O41 O 0.50519 0.77999 0.61275 0.0
Co42 Co 0.51724 0.26474 0.88806 0.0
O43 O 0.54322 0.258 0.89202 0.0
O44 O 0.52649 0.25187 0.8653 0.0
C45 C 0.51854 0.2949 0.89902 0.0
O46 O 0.49065 0.27019 0.87865 0.0
Co47 Co 0.49182 0.27355 0.92369 0.0
O48 O 0.47329 0.28146 0.90345 0.0
C49 C 0.50265 0.23406 0.9157 0.0
C50 C 0.54243 0.25053 0.87473 0.0
C51 C 0.47549 0.27762 0.88548 0.0
O52 O 0.50891 0.23943 0.89908 0.0
O53 O 0.49703 0.24572 0.92876 0.0
O54 O 0.5243 0.29102 0.88155 0.0
O55 O 0.51497 0.28024 0.90996 0.0
Co56 Co 0.13016 0.00894 0.26463 0.0
O57 O 0.12982 0.98157 0.26793 0.0
O58 O 0.15218 -0.00179 0.25256 0.0
C59 C 0.12286 0.01643 0.2954 0.0
O60 O 0.13618 0.03695 0.25917 0.0
Co61 Co 0.09457 0.03379 0.27037 0.0
O62 O 0.11347 0.05504 0.27225 0.0
C63 C 0.09729 0.00815 0.23636 0.0
C64 C 0.14573 0.9817 0.25848 0.0
C65 C 0.12998 0.05317 0.26512 0.0
O66 O 0.11503 0.00582 0.23989 0.0
O67 O 0.08643 0.01764 0.24759 0.0
O68 O 0.14023 0.01243 0.29086 0.0
O69 O 0.11043 0.01418 0.28173 0.0
Co70 Co 0.24892 0.89737 0.489 0.0
O71 O 0.22406 0.89319 0.49913 0.0
O72 O 0.24313 0.9176 0.50712 0.0
C73 C 0.24194 0.89171 0.45782 0.0
O74 O 0.27522 0.90631 0.48108 0.0
Co75 Co 0.27018 0.86378 0.46943 0.0
O76 O 0.28889 0.88401 0.4623 0.0
C77 C 0.26419 0.86376 0.51168 0.0
C78 C 0.22716 0.90841 0.50958 0.0
C79 C 0.28867 0.90063 0.46999 0.0
O80 O 0.25924 0.8814 0.51077 0.0
O81 O 0.26764 0.85364 0.49661 0.0
O82 O 0.23899 0.90864 0.46503 0.0
O83 O 0.24716 0.87867 0.46991 0.0
Co84 Co 0.36394 0.99571 0.77925 0.0
O85 O 0.36436 0.02305 0.77663 0.0
O86 O 0.34152 0.00379 0.76541 0.0
C87 C 0.37202 0.99429 0.8107 0.0
O88 O 0.35864 0.96697 0.77996 0.0
Co89 Co 0.40121 0.97427 0.78886 0.0
O90 O 0.38362 0.95238 0.79367 0.0
C91 C 0.39606 0.99221 0.75062 0.0
C92 C 0.34844 0.02108 0.76729 0.0
C93 C 0.36658 0.95213 0.78741 0.0
O94 O 0.37827 0.99377 0.75414 0.0
O95 O 0.40798 0.98632 0.76329 0.0
O96 O 0.35453 -0.00249 0.80582 0.0
O97 O 0.38408 0.99433 0.79665 0.0
Co98 Co 0.23655 0.10998 -0.00132 0.0
O99 O 0.26168 0.12092 -0.00079 0.0
O100 O 0.25382 0.09209 0.01036 0.0
C101 C 0.23001 0.11825 0.9678 0.0
O102 O 0.2125 0.09361 0.0001 0.0
Co103 Co 0.20136 0.1354 0.99275 0.0
O104 O 0.1878 0.11058 0.98917 0.0
C105 C 0.22335 0.13765 0.02919 0.0
C106 C 0.26688 0.10509 0.00746 0.0
C107 C 0.19506 0.09488 0.99477 0.0
O108 O 0.23154 0.12191 0.0247 0.0
O109 O 0.21201 0.14626 0.01765 0.0
O110 O 0.23959 0.10285 0.97143 0.0
O111 O 0.226 0.1287 0.98268 0.0
Co112 Co 0.75489 0.38989 0.00032 0.0
O113 O 0.72854 0.38309 0.00264 0.0
O114 O 0.74149 0.41039 0.01294 0.0
C115 C 0.75828 0.38075 0.9693 0.0
O116 O 0.78125 0.40222 -0.00032 0.0
Co117 Co 0.78513 0.35883 0.99207 0.0
O118 O 0.80143 0.38139 0.98625 0.0
C119 C 0.76735 0.36116 0.03068 0.0
C120 C 0.72642 0.3996 0.01102 0.0
C121 C 0.79747 0.39813 0.99232 0.0
O122 O 0.75995 0.37733 0.02613 0.0
O123 O 0.77671 0.35096 0.01869 0.0
O124 O 0.75114 0.39741 0.97322 0.0
O125 O 0.76132 0.36976 0.98401 0.0
Co126 Co 0.87577 0.51246 0.28321 0.0
O127 O 0.87311 0.53968 0.28582 0.0
O128 O 0.8543 0.52059 0.26827 0.0
C129 C 0.88065 0.50532 0.31452 0.0
O130 O 0.87343 0.48407 0.27765 0.0
Co131 Co 0.91346 0.4921 0.29286 0.0
O132 O 0.89648 0.46911 0.2941 0.0
C133 C 0.91058 0.51541 0.25742 0.0
C134 C 0.85866 0.5378 0.27415 0.0
C135 C 0.88069 0.46894 0.28507 0.0
O136 O 0.89264 0.51664 0.26013 0.0
O137 O 0.92175 0.50736 0.26956 0.0
O138 O 0.8635 0.50806 0.30819 0.0
O139 O 0.8941 0.50928 0.30241 0.0
Co140 Co 0.7446 0.62111 0.49312 0.0
O141 O 0.77157 0.62517 0.49289 0.0
O142 O 0.75666 0.60124 0.50788 0.0
C143 C 0.73955 0.6262 0.46131 0.0
O144 O 0.71747 0.61173 0.49607 0.0
Co145 Co 0.71693 0.65374 0.48295 0.0
O146 O 0.69752 0.63285 0.48272 0.0
C147 C 0.73797 0.65483 0.51994 0.0
C148 C 0.77252 0.60994 0.5037 0.0
C149 C 0.70084 0.6166 0.49039 0.0
O150 O 0.74287 0.63737 0.51714 0.0
O151 O 0.72891 0.66458 0.50724 0.0
O152 O 0.74531 0.60956 0.46726 0.0
O153 O 0.7388 0.63945 0.4744 0.0
Co154 Co 0.63518 0.50975 0.77653 0.0
O155 O 0.63179 0.4826 0.77275 0.0
O156 O 0.65566 0.50007 0.76115 0.0
C157 C 0.62872 0.51042 0.80839 0.0
O158 O 0.64407 0.53749 0.77797 0.0
Co159 Co 0.60224 0.536 0.78952 0.0
O160 O 0.62287 0.55507 0.79423 0.0
C161 C 0.6018 0.51756 0.75106 0.0
C162 C 0.64735 0.48341 0.76273 0.0
C163 C 0.63914 0.55299 0.78661 0.0
O164 O 0.61968 0.51452 0.75251 0.0
O165 O 0.59191 0.5243 0.76498 0.0
O166 O 0.64552 0.50552 0.80263 0.0
O167 O 0.61628 0.51287 0.79488 0.0
Co168 Co 0.01428 0.7763 0.89176 0.0
O169 O 0.04048 0.78426 0.89331 0.0
O170 O 0.0285 0.76322 0.87225 0.0
C171 C 0.00185 0.80569 0.89366 0.0
O172 O 0.9885 0.76515 0.88487 0.0
Co173 Co 0.9861 0.78292 0.92546 0.0
O174 O 0.96657 0.774 0.90651 0.0
C175 C 0.01329 0.75133 0.92808 0.0
C176 C 0.04311 0.77288 0.87864 0.0
C177 C 0.97128 0.76574 0.89077 0.0
O178 O 0.0187 0.7548 0.9106 0.0
O179 O 0.0016 0.76191 0.93722 0.0
O180 O 0.0083 0.79942 0.87722 0.0
O181 O 0.00475 0.79489 0.90861 0.0
Co182 Co 0.99579 0.26042 0.62792 0.0
O183 O 0.97045 0.25234 0.6218 0.0
O184 O 0.98711 0.2424 0.64722 0.0
C185 C 0.99129 0.29182 0.62387 0.0
O186 O 0.02184 0.26594 0.6392 0.0
Co187 Co 0.02114 0.28034 0.5971 0.0
O188 O 0.03785 0.2861 0.61965 0.0
C189 C 0.01659 0.23832 0.59654 0.0
C190 C 0.97122 0.24216 0.63757 0.0
C191 C 0.0362 0.27682 0.63551 0.0
O192 O 0.00618 0.23924 0.61176 0.0
O193 O 0.02339 0.2531 0.58785 0.0
O194 O 0.98655 0.28356 0.64006 0.0
O195 O 0.99677 0.28062 0.61004 0.0
Co196 Co 0.50224 0.27155 0.37799 0.0
O197 O 0.52491 0.25696 0.38129 0.0
O198 O 0.50796 0.25857 0.35415 0.0
C199 C 0.5137 0.29836 0.39193 0.0
O200 O 0.47913 0.28552 0.36828 0.0
Co201 Co 0.47904 0.28862 0.41182 0.0
O202 O 0.46542 0.30313 0.39146 0.0
C203 C 0.47565 0.24719 0.40239 0.0
C204 C 0.52301 0.25249 0.36303 0.0
C205 C 0.46706 0.298 0.3738 0.0
O206 O 0.48628 0.24932 0.38737 0.0
O207 O 0.47203 0.26077 0.4143 0.0
O208 O 0.51745 0.29472 0.37384 0.0
O209 O 0.50421 0.28535 0.40118 0.0
Co210 Co 0.49008 0.76549 0.12633 0.0
O211 O 0.46325 0.76182 0.12425 0.0
O212 O 0.4816 0.74804 0.14637 0.0
C213 C 0.49031 0.79747 0.12359 0.0
O214 O 0.51808 0.76626 0.13308 0.0
Co215 Co 0.5127 0.78148 0.09147 0.0
O216 O 0.53363 0.78376 0.1107 0.0
C217 C 0.49979 0.74138 0.0908 0.0
C218 C 0.46478 0.75034 0.139 0.0
C219 C 0.53315 0.7747 0.12678 0.0
O220 O 0.49382 0.74348 0.10823 0.0
O221 O 0.50709 0.75508 0.08084 0.0
O222 O 0.48689 0.78941 0.14024 0.0
O223 O 0.49153 0.78603 0.10883 0.0
Co224 Co 0.91151 0.02014 0.78238 0.0
O225 O 0.91351 0.04776 0.7819 0.0
O226 O 0.89063 0.03046 0.76803 0.0
C227 C 0.91783 0.01786 0.81442 0.0
O228 O 0.9035 0.99234 0.77962 0.0
Co229 Co 0.94327 0.99264 0.79384 0.0
O230 O 0.92494 0.97118 0.78965 0.0
C231 C 0.94295 0.01012 0.75466 0.0
C232 C 0.89765 0.04726 0.77221 0.0
C233 C 0.90889 0.97505 0.78227 0.0
O234 O 0.92692 0.01793 0.75815 0.0
O235 O 0.95233 0.00083 0.76745 0.0
O236 O 0.90078 0.02139 0.80831 0.0
O237 O 0.9306 0.01614 0.80114 0.0
Co238 Co 0.76508 0.12528 0.49384 0.0
O239 O 0.79102 0.13036 0.50042 0.0
O240 O 0.77353 0.10649 0.51239 0.0
C241 C 0.76901 0.12793 0.46167 0.0
O242 O 0.73818 0.11544 0.49019 0.0
Co243 Co 0.74098 0.15616 0.47299 0.0
O244 O 0.72145 0.13555 0.47149 0.0
C245 C 0.74882 0.15951 0.51505 0.0
C246 C 0.78992 0.11517 0.51125 0.0
C247 C 0.72293 0.12007 0.48116 0.0
O248 O 0.75647 0.14287 0.51507 0.0
O249 O 0.74326 0.16796 0.49956 0.0
O250 O 0.77296 0.11196 0.47035 0.0
O251 O 0.76436 0.14205 0.47274 0.0
Co252 Co 0.61819 0.98956 0.26849 0.0
O253 O 0.61447 0.96316 0.26152 0.0
O254 O 0.63959 0.98097 0.25384 0.0
C255 C 0.61015 0.98593 0.2998 0.0
O256 O 0.62756 0.01662 0.27362 0.0
Co257 Co 0.5855 0.01484 0.2831 0.0
O258 O 0.60573 0.034 0.28904 0.0
C259 C 0.58968 0.00754 0.241 0.0
C260 C 0.63124 0.96425 0.25387 0.0
C261 C 0.62231 0.03204 0.28212 0.0
O262 O 0.60501 -0.00173 0.24423 0.0
O263 O 0.57921 0.01408 0.25458 0.0
O264 O 0.62711 0.98191 0.29402 0.0
O265 O 0.59818 0.99056 0.28635 0.0
Co266 Co 0.72797 0.86275 0.00793 0.0
O267 O 0.70437 0.85737 0.02087 0.0
O268 O 0.72102 0.88441 0.0235 0.0
C269 C 0.71846 0.85242 0.97851 0.0
O270 O 0.75213 0.87412 0.99683 0.0
Co271 Co 0.75245 0.83166 0.98829 0.0
O272 O 0.76869 0.8532 0.97916 0.0
C273 C 0.75521 0.83813 0.03087 0.0
C274 C 0.70571 0.87473 0.02765 0.0
C275 C 0.76634 0.86992 0.98609 0.0
O276 O 0.74297 0.85161 0.02993 0.0
O277 O 0.76002 0.82799 0.01621 0.0
O278 O 0.71419 0.86949 0.98445 0.0
O279 O 0.72711 0.8417 0.99093 0.0
Co280 Co 0.27314 0.65687 -0.00186 0.0
O281 O 0.29944 0.66422 -0.00213 0.0
O282 O 0.28642 0.64358 0.0185 0.0
C283 C 0.27071 0.65172 0.96602 0.0
O284 O 0.24698 0.64516 0.00243 0.0
Co285 Co 0.24279 0.68032 0.97596 0.0
O286 O 0.22622 0.65785 0.98139 0.0
C287 C 0.25528 0.69254 0.01517 0.0
C288 C 0.30163 0.65203 0.01193 0.0
C289 C 0.23044 0.64578 0.99456 0.0
O290 O 0.26691 0.67853 0.01617 0.0
O291 O 0.24486 0.69601 0.00035 0.0
O292 O 0.27757 0.63859 0.9773 0.0
O293 O 0.26708 0.66796 0.97417 0.0
Co294 Co 0.11665 0.49113 0.77711 0.0
O295 O 0.11614 0.46356 0.77636 0.0
O296 O 0.13966 0.48207 0.76569 0.0
C297 C 0.10658 0.49258 0.80804 0.0
O298 O 0.12325 0.51937 0.77569 0.0
Co299 Co 0.08188 0.51617 0.78458 0.0
O300 O 0.09905 0.53877 0.7821 0.0
C301 C 0.08759 0.49867 0.74589 0.0
C302 C 0.13306 0.46493 0.76906 0.0
C303 C 0.11624 0.53616 0.7774 0.0
O304 O 0.10404 0.49271 0.751 0.0
O305 O 0.07608 0.50661 0.75768 0.0
O306 O 0.12441 0.49025 0.80423 0.0
O307 O 0.09535 0.49363 0.79322 0.0
Co308 Co 0.22949 0.36534 0.49876 0.0
O309 O 0.20596 0.35448 0.50781 0.0
O310 O 0.21966 0.38087 0.51942 0.0
C311 C 0.22232 0.363 0.46705 0.0
O312 O 0.25298 0.38138 0.49299 0.0
Co313 Co 0.25758 0.34248 0.4735 0.0
O314 O 0.27129 0.36729 0.47073 0.0
C315 C 0.25725 0.33683 0.51607 0.0
C316 C 0.20521 0.36913 0.51943 0.0
C317 C 0.26757 0.38132 0.48188 0.0
O318 O 0.24442 0.34967 0.51773 0.0
O319 O 0.2636 0.33116 0.49965 0.0
O320 O 0.21608 0.37724 0.47722 0.0
O321 O 0.23141 0.34997 0.47651 0.0
Co322 Co 0.40451 0.51801 0.2744 0.0
O323 O 0.40865 0.54526 0.2755 0.0
O324 O 0.3877 0.53053 0.25641 0.0
C325 C 0.40355 0.51394 0.3067 0.0
O326 O 0.3955 0.49063 0.26982 0.0
Co327 Co 0.43339 0.48955 0.29172 0.0
O328 O 0.41424 0.46952 0.28499 0.0
C329 C 0.44093 0.50759 0.2538 0.0
C330 C 0.3949 0.54653 0.26299 0.0
C331 C 0.39975 0.47342 0.27469 0.0
O332 O 0.4244 0.51515 0.25392 0.0
O333 O 0.4478 0.49841 0.26826 0.0
O334 O 0.38858 0.51946 0.29731 0.0
O335 O 0.41882 0.51238 0.29657 0.0
O336 O 0.9812 0.03579 0.06267 0.0
Zn337 Zn 0.98751 0.02142 0.03876 0.0
O338 O 0.97419 0.99706 0.03931 0.0
Zn339 Zn 0.99234 0.97669 0.03535 0.0
Zn340 Zn 0.96061 0.99335 0.06366 0.0
Zn341 Zn 0.95567 0.99723 0.01891 0.0
O342 O 0.98495 0.96059 0.01211 0.0
O343 O 0.96231 0.97803 -0.00146 0.0
O344 O 0.01552 0.01827 0.0371 0.0
O345 O 0.01854 0.98745 0.03007 0.0
O346 O 0.9957 0.96155 0.06007 0.0
O347 O 0.9761 0.97594 0.08051 0.0
O348 O 0.93432 0.98152 0.0592 0.0
O349 O 0.97998 0.03759 0.01561 0.0
O350 O 0.9303 0.98954 0.02827 0.0
O351 O 0.95375 0.02251 0.00602 0.0
C352 C 0.9691 0.03383 0.0762 0.0
C353 C 0.97348 0.96386 -0.00185 0.0
C354 C 0.98919 0.96394 0.07716 0.0
C355 C 0.02575 0.00411 0.03249 0.0
C356 C 0.92396 0.98259 0.04403 0.0
C357 C 0.96518 0.03668 0.00503 0.0
O358 O 0.95857 0.01891 0.07777 0.0
O359 O 0.2319 0.72521 0.22474 0.0
Zn360 Zn 0.23651 0.72484 0.25388 0.0
O361 O 0.24791 0.74888 0.26238 0.0
Zn362 Zn 0.27183 0.74427 0.27488 0.0
Zn363 Zn 0.25224 0.7652 0.24024 0.0
Zn364 Zn 0.23232 0.7619 0.28073 0.0
O365 O 0.27586 0.76183 0.29765 0.0
O366 O 0.24593 0.76668 0.30596 0.0
O367 O 0.25412 0.70316 0.26084 0.0
O368 O 0.27407 0.71662 0.28212 0.0
O369 O 0.29286 0.74833 0.25611 0.0
O370 O 0.27915 0.76315 0.23135 0.0
O371 O 0.24472 0.79239 0.24523 0.0
O372 O 0.21091 0.72099 0.26658 0.0
O373 O 0.22641 0.7884 0.27113 0.0
O374 O 0.20826 0.74715 0.28483 0.0
C375 C 0.23148 0.73921 0.21283 0.0
C376 C 0.26362 0.76839 0.30933 0.0
C377 C 0.29361 0.75563 0.23922 0.0
C378 C 0.26764 0.70191 0.27315 0.0
C379 C 0.23323 0.79897 0.25772 0.0
C380 C 0.20158 0.73132 0.27837 0.0
O381 O 0.2372 0.75587 0.21775 0.0
O382 O 0.50223 0.98346 0.52885 0.0
Zn383 Zn 0.49663 0.0048 0.51049 0.0
O384 O 0.49944 0.02951 0.52318 0.0
Zn385 Zn 0.47465 0.04102 0.52656 0.0
Zn386 Zn 0.51232 0.02603 0.54804 0.0
Zn387 Zn 0.5145 0.04609 0.5068 0.0
O388 O 0.4723 0.06604 0.51193 0.0
O389 O 0.49923 0.06716 0.49544 0.0
O390 O 0.4703 0.00105 0.50027 0.0
O391 O 0.45429 0.02399 0.51514 0.0
O392 O 0.46926 0.04481 0.55493 0.0
O393 O 0.49589 0.03591 0.56958 0.0
O394 O 0.53784 0.03954 0.5484 0.0
O395 O 0.51486 0.00192 0.48861 0.0
O396 O 0.53627 0.05727 0.52161 0.0
O397 O 0.52618 0.03148 0.48496 0.0
C398 C 0.5108 0.98274 0.54511 0.0
C399 C 0.48297 0.07382 0.49921 0.0
C400 C 0.47908 0.04236 0.57029 0.0
C401 C 0.4548 0.00934 0.50413 0.0
C402 C 0.54469 0.05237 0.53718 0.0
C403 C 0.52546 0.01395 0.47989 0.0
O404 O 0.5163 -0.00205 0.55381 0.0
O405 O 0.25737 0.24433 0.79683 0.0
Zn406 Zn 0.26651 0.26343 0.77696 0.0
O407 O 0.26219 0.25379 0.75077 0.0
Zn408 Zn 0.28584 0.24628 0.73854 0.0
Zn409 Zn 0.24441 0.23213 0.75172 0.0
Zn410 Zn 0.25177 0.27441 0.73584 0.0
O411 O 0.28964 0.25863 0.71215 0.0
O412 O 0.26627 0.27951 0.71173 0.0
O413 O 0.29435 0.26778 0.78106 0.0
O414 O 0.30792 0.2543 0.75541 0.0
O415 O 0.28591 0.21779 0.73467 0.0
O416 O 0.25605 0.20862 0.73977 0.0
O417 O 0.21955 0.23837 0.73864 0.0
O418 O 0.25351 0.28875 0.78155 0.0
O419 O 0.22533 0.26787 0.72787 0.0
O420 O 0.25048 0.29864 0.75103 0.0
C421 C 0.24601 0.23004 0.79565 0.0
C422 C 0.28068 0.2721 0.70386 0.0
C423 C 0.27299 0.20486 0.73479 0.0
C424 C 0.30908 0.26317 0.77158 0.0
C425 C 0.21428 0.25347 0.72982 0.0
C426 C 0.24981 0.30176 0.76919 0.0
O427 O 0.23916 0.22454 0.77941 0.0
O428 O 0.02194 0.02205 0.47548 0.0
Zn429 Zn 0.00317 0.00906 0.49341 0.0
O430 O 0.01379 0.00659 0.51957 0.0
Zn431 Zn 0.01394 0.97968 0.52778 0.0
Zn432 Zn 0.03942 0.01697 0.52004 0.0
Zn433 Zn -0.00126 0.0213 0.53743 0.0
O434 O 0.99627 0.97489 0.55027 0.0
O435 O 0.98598 0.0042 0.55657 0.0
O436 O -0.00205 0.98304 0.48208 0.0
O437 O 0.00597 0.9627 0.50548 0.0
O438 O 0.04 0.97192 0.53688 0.0
O439 O 0.05736 -0.00207 0.53069 0.0
O440 O 0.04195 0.0398 0.53734 0.0
O441 O 0.97866 0.0238 0.49337 0.0
O442 O 0.01405 0.04108 0.55184 0.0
O443 O 0.97824 0.03498 0.5236 0.0
C444 C 0.03932 0.02688 0.47741 0.0
C445 C 0.98606 0.9863 0.56001 0.0
C446 C 0.05582 0.98091 0.53714 0.0
C447 C -0.00013 0.96601 0.48836 0.0
C448 C 0.03095 0.04725 0.54971 0.0
C449 C 0.97131 0.03408 0.50657 0.0
O450 O 0.04794 0.02497 0.49356 0.0
O451 O 0.29051 0.72559 0.737 0.0
Zn452 Zn 0.26771 0.73315 0.75179 0.0
O453 O 0.24562 0.73332 0.73483 0.0
Zn454 Zn 0.23664 0.75956 0.73218 0.0
Zn455 Zn 0.25197 0.72177 0.70969 0.0
Zn456 Zn 0.22571 0.71824 0.74652 0.0
O457 O 0.21103 0.7635 0.74476 0.0
O458 O 0.20464 0.73425 0.75581 0.0
O459 O 0.27353 0.75933 0.76306 0.0
O460 O 0.25416 0.7778 0.74606 0.0
O461 O 0.23609 0.76699 0.70395 0.0
O462 O 0.24706 0.74124 0.68875 0.0
O463 O 0.23602 0.69767 0.70402 0.0
O464 O 0.26495 0.71337 0.77262 0.0
O465 O 0.21483 0.69978 0.72768 0.0
O466 O 0.23535 0.70277 0.76893 0.0
C467 C 0.29352 0.71855 0.72029 0.0
C468 C 0.20036 0.75178 0.75391 0.0
C469 C 0.24092 0.75835 0.68843 0.0
C470 C 0.26748 0.77585 0.75841 0.0
C471 C 0.2207 0.69211 0.71214 0.0
C472 C 0.25135 0.70225 0.77746 0.0
O473 O 0.28001 0.71569 0.70822 0.0
O474 O 0.53273 0.03483 0.03818 0.0
Zn475 Zn 0.52419 0.02139 0.01379 0.0
O476 O 0.49789 0.01253 0.01621 0.0
Zn477 Zn 0.49649 0.98462 0.01439 0.0
Zn478 Zn 0.48735 0.02133 0.04107 0.0
Zn479 Zn 0.48328 0.02278 0.99498 0.0
O480 O 0.47978 0.97486 0.99253 0.0
O481 O 0.4708 0.00232 0.97926 0.0
O482 O 0.54165 -0.00101 0.01112 0.0
O483 O 0.52252 0.97349 0.01241 0.0
O484 O 0.48558 0.97412 0.03872 0.0
O485 O 0.48049 -0.0012 0.05838 0.0
O486 O 0.46414 0.03762 0.03708 0.0
O487 O 0.52762 0.03979 0.99137 0.0
O488 O 0.46221 0.03872 0.0049 0.0
O489 O 0.49912 0.03906 0.97757 0.0
C490 C 0.52429 0.04004 0.05357 0.0
C491 C 0.47047 0.98414 0.97989 0.0
C492 C 0.48024 0.98087 0.05492 0.0
C493 C 0.53908 0.98088 0.01137 0.0
C494 C 0.45601 0.04326 0.02158 0.0
C495 C 0.51625 0.04493 0.978 0.0
O496 O 0.50676 0.03641 0.05613 0.0
O497 O 0.21508 0.26597 0.23212 0.0
Zn498 Zn 0.23506 0.26173 0.25201 0.0
O499 O 0.25964 0.26848 0.24131 0.0
Zn500 Zn 0.27543 0.24579 0.23829 0.0
Zn501 Zn 0.25671 0.28173 0.21635 0.0
Zn502 Zn 0.27155 0.28513 0.25982 0.0
O503 O 0.30123 0.24936 0.25106 0.0
O504 O 0.29516 0.27419 0.27023 0.0
O505 O 0.23465 0.23415 0.25969 0.0
O506 O 0.26232 0.22259 0.25002 0.0
O507 O 0.27873 0.23987 0.21002 0.0
O508 O 0.26636 0.2649 0.19482 0.0
O509 O 0.27066 0.30761 0.21606 0.0
O510 O 0.2277 0.27761 0.27537 0.0
O511 O 0.27864 0.30959 0.24729 0.0
O512 O 0.25515 0.29188 0.28188 0.0
C513 C 0.21413 0.27645 0.21703 0.0
C514 C 0.30595 0.26086 0.26468 0.0
C515 C 0.27439 0.24863 0.19443 0.0
C516 C 0.24618 0.22035 0.25801 0.0
C517 C 0.27803 0.31671 0.23034 0.0
C518 C 0.23791 0.28858 0.28594 0.0
O519 O 0.22874 0.28501 0.2102 0.0
O520 O 0.5099 0.51269 0.97874 0.0
Zn521 Zn 0.48821 0.50383 0.99585 0.0
O522 O 0.49735 0.49818 0.0218 0.0
Zn523 Zn 0.49981 0.4711 0.02643 0.0
Zn524 Zn 0.522 0.50943 0.02575 0.0
Zn525 Zn 0.47974 0.50892 0.03973 0.0
O526 O 0.48877 0.46397 0.05231 0.0
O527 O 0.47372 0.49044 0.06097 0.0
O528 O 0.47793 0.47941 0.98404 0.0
O529 O 0.48646 0.45674 0.00504 0.0
O530 O 0.52739 0.46377 0.02828 0.0
O531 O 0.53996 0.49131 0.03856 0.0
O532 O 0.52022 0.53428 0.04005 0.0
O533 O 0.46709 0.52339 0.99669 0.0
O534 O 0.49075 0.53313 0.05121 0.0
O535 O 0.45615 0.51734 0.02631 0.0
C536 C 0.52737 0.51554 0.98271 0.0
C537 C 0.47857 0.47321 0.06418 0.0
C538 C 0.54121 0.47335 0.03555 0.0
C539 C 0.47839 0.46189 0.98928 0.0
C540 C 0.50672 0.54166 0.04959 0.0
C541 C 0.45444 0.52522 0.00973 0.0
O542 O 0.53363 0.51452 2e-05 0.0
O543 O 0.79391 0.25268 0.2498 0.0
Zn544 Zn 0.77423 0.2604 0.26887 0.0
O545 O 0.74913 0.25355 0.25991 0.0
Zn546 Zn 0.73462 0.27609 0.25312 0.0
Zn547 Zn 0.75139 0.23632 0.23773 0.0
Zn548 Zn 0.73625 0.24142 0.28121 0.0
O549 O 0.70837 0.27489 0.26496 0.0
O550 O 0.71363 0.2557 0.29008 0.0
O551 O 0.77555 0.28842 0.27411 0.0
O552 O 0.74846 0.30003 0.26251 0.0
O553 O 0.73182 0.27772 0.22423 0.0
O554 O 0.74225 0.24967 0.21352 0.0
O555 O 0.73664 0.2116 0.24216 0.0
O556 O 0.78136 0.2465 0.29314 0.0
O557 O 0.7262 0.21622 0.27224 0.0
O558 O 0.75341 0.23613 0.30359 0.0
C559 C 0.79398 0.23925 0.23729 0.0
C560 C 0.703 0.26708 0.28077 0.0
C561 C 0.73525 0.26615 0.21041 0.0
C562 C 0.76451 0.30235 0.27082 0.0
C563 C 0.72722 0.20605 0.25695 0.0
C564 C 0.77121 0.23812 0.3058 0.0
O565 O 0.7788 0.23041 0.23237 0.0
O566 O 0.03496 0.5291 0.54247 0.0
Zn567 Zn 0.02761 0.5182 0.51641 0.0
O568 O 0.00109 0.50976 0.5162 0.0
Zn569 Zn -0.00093 0.48219 0.51179 0.0
Zn570 Zn 0.98967 0.51626 0.54113 0.0
Zn571 Zn 0.9876 0.52239 0.49548 0.0
O572 O 0.98371 0.47496 0.48799 0.0
O573 O 0.97827 0.50371 0.47561 0.0
O574 O 0.04478 0.4958 0.51215 0.0
O575 O 0.02497 0.47087 0.50991 0.0
O576 O 0.98734 0.46945 0.53464 0.0
O577 O 0.98363 0.49244 0.55655 0.0
O578 O 0.96558 0.53081 0.5376 0.0
O579 O 0.03243 0.53896 0.49661 0.0
O580 O 0.9644 0.53549 0.50571 0.0
O581 O 0.00431 0.54145 0.48211 0.0
C582 C 0.0254 0.53423 0.55717 0.0
C583 C 0.97696 0.48554 0.47467 0.0
C584 C 0.98274 0.47489 0.55159 0.0
C585 C 0.04173 0.47783 0.51039 0.0
C586 C 0.95735 0.53745 0.5226 0.0
C587 C 0.02162 0.54646 0.48394 0.0
O588 O 0.00758 0.53135 0.55791 0.0
O589 O 0.74051 0.7366 0.29392 0.0
Zn590 Zn 0.75284 0.75926 0.28077 0.0
O591 O 0.75519 0.7547 0.25279 0.0
Zn592 Zn 0.78166 0.75235 0.24539 0.0
Zn593 Zn 0.74121 0.73143 0.24568 0.0
Zn594 Zn 0.74483 0.77614 0.23892 0.0
O595 O 0.7892 0.77067 0.22402 0.0
O596 O 0.76317 0.78773 0.22032 0.0
O597 O 0.7787 0.76326 0.29265 0.0
O598 O 0.79852 0.7579 0.26828 0.0
O599 O 0.78653 0.72586 0.2355 0.0
O600 O 0.75777 0.71326 0.2311 0.0
O601 O 0.71789 0.73728 0.22992 0.0
O602 O 0.73799 0.78316 0.28666 0.0
O603 O 0.72146 0.76844 0.22415 0.0
O604 O 0.7373 0.79646 0.25729 0.0
C605 C 0.73361 0.7208 0.28763 0.0
C606 C 0.78022 0.78417 0.21583 0.0
C607 C 0.7757 0.71236 0.22945 0.0
C608 C 0.79547 0.76223 0.28597 0.0
C609 C 0.71222 0.75277 0.22218 0.0
C610 C 0.73432 0.79713 0.27545 0.0
O611 O 0.73309 0.71696 0.26955 0.0
O612 O 0.73486 0.22723 0.71795 0.0
Zn613 Zn 0.74299 0.23087 0.74586 0.0
O614 O 0.75362 0.25659 0.7498 0.0
Zn615 Zn 0.77867 0.255 0.76173 0.0
Zn616 Zn 0.75469 0.27072 0.72539 0.0
Zn617 Zn 0.73779 0.27064 0.76703 0.0
O618 O 0.782 0.27173 0.78555 0.0
O619 O 0.75328 0.28423 0.78691 0.0
O620 O 0.76264 0.21101 0.75223 0.0
O621 O 0.78541 0.22764 0.76729 0.0
O622 O 0.79785 0.26388 0.74256 0.0
O623 O 0.78181 0.27436 0.7169 0.0
O624 O 0.74131 0.29618 0.72693 0.0
O625 O 0.72042 0.22607 0.76339 0.0
O626 O 0.72422 0.29172 0.75357 0.0
O627 O 0.71924 0.25332 0.78015 0.0
C628 C 0.73502 0.23846 0.70334 0.0
C629 C 0.77027 0.28332 0.79293 0.0
C630 C 0.7974 0.27093 0.72552 0.0
C631 C 0.77834 0.21175 0.76145 0.0
C632 C 0.72845 0.30156 0.73861 0.0
C633 C 0.71341 0.23629 0.77686 0.0
O634 O 0.74184 0.25541 0.70451 0.0
O635 O 0.72824 0.76817 0.73502 0.0
Zn636 Zn 0.74749 0.76181 0.7549 0.0
O637 O 0.77272 0.7661 0.74481 0.0
Zn638 Zn 0.78521 0.74149 0.74058 0.0
Zn639 Zn 0.77129 0.781 0.72062 0.0
Zn640 Zn 0.78645 0.78011 0.76447 0.0
O641 O 0.81004 0.73974 0.75542 0.0
O642 O 0.80784 0.76494 0.77498 0.0
O643 O 0.74396 0.73457 0.76269 0.0
O644 O 0.76891 0.7196 0.75064 0.0
O645 O 0.78941 0.73741 0.71198 0.0
O646 O 0.78167 0.76528 0.69863 0.0
O647 O 0.78602 0.80645 0.72295 0.0
O648 O 0.7417 0.77779 0.77822 0.0
O649 O 0.79664 0.80417 0.75333 0.0
O650 O 0.77026 0.78829 0.78664 0.0
C651 C 0.72833 0.77819 0.7196 0.0
C652 C 0.81615 0.74974 0.76968 0.0
C653 C 0.78761 0.74816 0.69713 0.0
C654 C 0.75325 0.71934 0.75977 0.0
C655 C 0.79539 0.81323 0.73737 0.0
C656 C 0.75255 0.78704 0.78972 0.0
O657 O 0.74369 0.78531 0.71282 0.0
O658 O 0.47502 0.5435 0.54806 0.0
Zn659 Zn 0.48673 0.52487 0.53046 0.0
O660 O 0.48006 0.49952 0.53951 0.0
Zn661 Zn 0.50264 0.48446 0.54279 0.0
Zn662 Zn 0.46411 0.49991 0.56263 0.0
Zn663 Zn 0.46582 0.48814 0.51916 0.0
O664 O 0.505 0.46406 0.52223 0.0
O665 O 0.48226 0.47275 0.50179 0.0
O666 O 0.51484 0.52932 0.53053 0.0
O667 O 0.52597 0.50103 0.53959 0.0
O668 O 0.50337 0.47389 0.56977 0.0
O669 O 0.47897 0.48772 0.58444 0.0
O670 O 0.43969 0.48419 0.5583 0.0
O671 O 0.47552 0.53104 0.50418 0.0
O672 O 0.44539 0.47143 0.52935 0.0
O673 O 0.45344 0.50814 0.5034 0.0
C674 C 0.46377 0.5433 0.56244 0.0
C675 C 0.49686 0.46296 0.50571 0.0
C676 C 0.49374 0.47731 0.58499 0.0
C677 C 0.52863 0.51842 0.53459 0.0
C678 C 0.43538 0.47255 0.5446 0.0
C679 C 0.46016 0.524 0.49736 0.0
O680 O 0.45788 0.52761 0.57 0.0
O681 O 0.01864 0.47906 0.0516 0.0
Zn682 Zn 0.01074 0.49528 0.02936 0.0
O683 O 0.017 0.52188 0.03494 0.0
Zn684 Zn 0.99375 0.5368 0.03496 0.0
Zn685 Zn 0.03067 0.52408 0.05981 0.0
Zn686 Zn 0.03326 0.53131 0.0147 0.0
O687 O 0.99573 0.55922 0.01645 0.0
O688 O 0.02074 0.55141 -0.00117 0.0
O689 O 0.98303 0.49145 0.02444 0.0
O690 O 0.97104 0.52059 0.02689 0.0
O691 O 0.98867 0.54628 0.062 0.0
O692 O 0.0138 0.53712 0.07911 0.0
O693 O 0.05511 0.53964 0.05759 0.0
O694 O 0.02446 0.48525 0.00593 0.0
O695 O 0.05584 0.54443 0.02575 0.0
O696 O 0.04225 0.51035 -0.00243 0.0
C697 C 0.02956 0.48148 0.06617 0.0
C698 C 0.00676 0.56225 0.00213 0.0
C699 C -0.00226 0.54522 0.07802 0.0
C700 C 0.96902 0.50272 0.02354 0.0
C701 C 0.06292 0.54686 0.04257 0.0
C702 C 0.03722 0.49292 0.99541 0.0
O703 O 0.03663 0.49779 0.07063 0.0
H704 H 0.98935 0.20867 0.06511 0.0
H705 H 0.98001 0.17464 0.06449 0.0
H706 H 0.99296 0.17014 0.12565 0.0
H707 H 0.00182 0.20393 0.12647 0.0
H708 H -0.00207 0.14255 0.07175 0.0
H709 H 0.96287 0.14001 0.14807 0.0
H710 H 0.94538 0.16133 0.17004 0.0
H711 H 0.92718 0.19494 0.12132 0.0
H712 H 0.9444 0.17372 0.09904 0.0
H713 H 0.99561 0.04995 0.0993 0.0
H714 H 0.99651 0.08381 0.1083 0.0
H715 H 0.9388 0.08975 0.08859 0.0
H716 H 0.93776 0.05561 0.07991 0.0
H717 H 0.95173 0.117 0.11983 0.0
H718 H 0.9666 0.09541 0.05481 0.0
H719 H 0.98191 0.07336 0.0319 0.0
H720 H 0.03652 0.08878 0.05529 0.0
H721 H 0.02145 0.11092 0.07843 0.0
C722 C 0.99037 0.20033 0.07834 0.0
C723 C 0.99613 0.20898 0.09586 0.0
C724 C 0.98495 0.18096 0.07801 0.0
C725 C 0.98531 0.17002 0.09516 0.0
C726 C 0.99199 0.17845 0.11239 0.0
C727 C 0.99719 0.19774 0.11278 0.0
C728 C 0.97905 0.14969 0.09515 0.0
C729 C 0.98773 0.13707 0.08218 0.0
C730 C 0.96554 0.1425 0.10862 0.0
C731 C 0.95504 0.15532 0.1219 0.0
C732 C 0.95508 0.1519 0.14203 0.0
C733 C 0.94524 0.16399 0.15455 0.0
C734 C 0.93522 0.17951 0.1471 0.0
C735 C 0.93502 0.18297 0.1271 0.0
C736 C 0.94484 0.17093 0.11452 0.0
C737 C 0.98277 0.05823 0.098 0.0
C738 C 0.96664 0.05037 0.08894 0.0
C739 C 0.98331 0.07755 0.10304 0.0
C740 C 0.96785 0.08924 0.0987 0.0
C741 C 0.95084 0.08087 0.09204 0.0
C742 C 0.95023 0.0614 0.08717 0.0
C743 C 0.97102 0.1101 0.09686 0.0
C744 C 0.9618 0.12269 0.10938 0.0
C745 C 0.98371 0.11741 0.08273 0.0
C746 C 0.9929 0.10471 0.06839 0.0
C747 C 0.98187 0.09406 0.05508 0.0
C748 C 0.9905 0.08154 0.04207 0.0
C749 C 0.01018 0.07959 0.04218 0.0
C750 C 0.02127 0.09029 0.05522 0.0
C751 C 0.0127 0.10287 0.06825 0.0
H752 H 0.01683 0.06982 0.03215 0.0
H753 H 0.92757 0.18879 0.15683 0.0
H754 H 0.06168 0.73079 0.36917 0.0
H755 H 0.08577 0.71766 0.3479 0.0
H756 H 0.0488 0.72506 0.29845 0.0
H757 H 0.02437 0.73815 0.31988 0.0
H758 H 0.09078 0.68915 0.31914 0.0
H759 H 0.0769 0.74829 0.26554 0.0
H760 H 0.05953 0.7787 0.26264 0.0
H761 H 0.06885 0.79001 0.32331 0.0
H762 H 0.08644 0.7598 0.32645 0.0
H763 H 0.17935 0.70216 0.26318 0.0
H764 H 0.14556 0.69609 0.26959 0.0
H765 H 0.14588 0.74213 0.31145 0.0
H766 H 0.17925 0.74825 0.3053 0.0
H767 H 0.11724 0.74496 0.28321 0.0
H768 H 0.14628 0.69725 0.32674 0.0
H769 H 0.16506 0.66822 0.33268 0.0
H770 H 0.12757 0.63558 0.29572 0.0
H771 H 0.10869 0.6645 0.28942 0.0
C772 C 0.05852 0.72926 0.35382 0.0
C773 C 0.0414 0.73587 0.34604 0.0
C774 C 0.07218 0.72149 0.34173 0.0
C775 C 0.06908 0.72047 0.32162 0.0
C776 C 0.0514 0.72569 0.31396 0.0
C777 C 0.03755 0.73327 0.32616 0.0
C778 C 0.08567 0.71785 0.30894 0.0
C779 C 0.09638 0.7011 0.31076 0.0
C780 C 0.09296 0.73345 0.29806 0.0
C781 C 0.08273 0.75175 0.29625 0.0
C782 C 0.07524 0.75731 0.27822 0.0
C783 C 0.06538 0.7745 0.27654 0.0
C784 C 0.06303 0.78625 0.2928 0.0
C785 C 0.07063 0.78088 0.31075 0.0
C786 C 0.08054 0.76374 0.31248 0.0
C787 C 0.17224 0.71081 0.27392 0.0
C788 C 0.18195 0.72582 0.2836 0.0
C789 C 0.15296 0.70736 0.27749 0.0
C790 C 0.14325 0.71887 0.29075 0.0
C791 C 0.15311 0.73329 0.30093 0.0
C792 C 0.17223 0.73671 0.29744 0.0
C793 C 0.12271 0.71662 0.29415 0.0
C794 C 0.11127 0.73252 0.29055 0.0
C795 C 0.11493 0.70035 0.30356 0.0
C796 C 0.12625 0.68305 0.30741 0.0
C797 C 0.14215 0.68391 0.31976 0.0
C798 C 0.15279 0.66748 0.32322 0.0
C799 C 0.14756 0.65008 0.31453 0.0
C800 C 0.13164 0.64907 0.30241 0.0
C801 C 0.12096 0.66547 0.29889 0.0
H802 H 0.1558 0.63737 0.31722 0.0
H803 H 0.05536 0.79953 0.29147 0.0
H804 H 0.52733 0.82385 0.64213 0.0
H805 H 0.53409 0.85602 0.62962 0.0
H806 H 0.50791 0.84047 0.57492 0.0
H807 H 0.50205 0.80801 0.58707 0.0
H808 H 0.5369 0.86257 0.56826 0.0
H809 H 0.48394 0.86502 0.61314 0.0
H810 H 0.46841 0.86048 0.6449 0.0
H811 H 0.50973 0.89773 0.6718 0.0
H812 H 0.52562 0.90231 0.64022 0.0
H813 H 0.49976 0.94771 0.5312 0.0
H814 H 0.50535 0.91642 0.54556 0.0
H815 H 0.53583 0.94314 0.59304 0.0
H816 H 0.53005 0.97476 0.57886 0.0
H817 H 0.51045 0.91681 0.60563 0.0
H818 H 0.55974 0.91847 0.55843 0.0
H819 H 0.57371 0.92339 0.526 0.0
H820 H 0.53796 0.8787 0.50264 0.0
H821 H 0.52357 0.87368 0.53486 0.0
C822 C 0.5232 0.82729 0.62737 0.0
C823 C 0.51396 0.8136 0.61561 0.0
C824 C 0.527 0.84567 0.62026 0.0
C825 C 0.52109 0.85082 0.60149 0.0
C826 C 0.51255 0.83687 0.58947 0.0
C827 C 0.50914 0.81835 0.59643 0.0
C828 C 0.52281 0.87092 0.5946 0.0
C829 C 0.53104 0.87442 0.57639 0.0
C830 C 0.51569 0.8865 0.60546 0.0
C831 C 0.50607 0.88383 0.62439 0.0
C832 C 0.48977 0.87214 0.62586 0.0
C833 C 0.4809 0.86957 0.64382 0.0
C834 C 0.48811 0.87876 0.66036 0.0
C835 C 0.50418 0.89059 0.65898 0.0
C836 C 0.51311 0.89319 0.64106 0.0
C837 C 0.50775 0.94701 0.54465 0.0
C838 C 0.51448 0.96377 0.55387 0.0
C839 C 0.51104 0.92906 0.55277 0.0
C840 C 0.52129 0.92744 0.57018 0.0
C841 C 0.528 0.9441 0.5795 0.0
C842 C 0.52467 0.96214 0.57139 0.0
C843 C 0.52398 0.90833 0.57904 0.0
C844 C 0.51663 0.90503 0.59764 0.0
C845 C 0.53173 0.89293 0.56845 0.0
C846 C 0.54051 0.89577 0.54907 0.0
C847 C 0.55478 0.90976 0.54636 0.0
C848 C 0.56278 0.91256 0.52801 0.0
C849 C 0.55671 0.90138 0.51227 0.0
C850 C 0.54265 0.88734 0.51485 0.0
C851 C 0.53459 0.88449 0.53316 0.0
H852 H 0.56292 0.90358 0.49807 0.0
H853 H 0.48123 0.87675 0.67425 0.0
H854 H 0.4379 0.2794 0.89416 0.0
H855 H 0.41143 0.28099 0.87117 0.0
H856 H 0.45068 0.28539 0.82351 0.0
H857 H 0.47732 0.28341 0.84635 0.0
H858 H 0.41405 0.31075 0.82367 0.0
H859 H 0.43865 0.24569 0.82658 0.0
H860 H 0.44966 0.21736 0.84463 0.0
H861 H 0.3958 0.21273 0.87316 0.0
H862 H 0.3846 0.24126 0.8555 0.0
H863 H 0.3433 0.24851 0.76115 0.0
H864 H 0.37411 0.25488 0.77646 0.0
H865 H 0.34824 0.29507 0.81558 0.0
H866 H 0.31739 0.28872 0.80052 0.0
H867 H 0.38112 0.24786 0.81591 0.0
H868 H 0.38254 0.33045 0.82525 0.0
H869 H 0.37154 0.35921 0.80791 0.0
H870 H 0.37333 0.32875 0.75373 0.0
H871 H 0.38461 0.29991 0.77068 0.0
C872 C 0.44091 0.28104 0.87882 0.0
C873 C 0.45964 0.28102 0.87199 0.0
C874 C 0.4258 0.28199 0.86576 0.0
C875 C 0.42924 0.28327 0.84575 0.0
C876 C 0.44787 0.28448 0.83895 0.0
C877 C 0.46301 0.28317 0.85197 0.0
C878 C 0.4134 0.28101 0.83195 0.0
C879 C 0.40683 0.29705 0.82184 0.0
C880 C 0.4043 0.26303 0.82952 0.0
C881 C 0.41087 0.24568 0.83986 0.0
C882 C 0.42922 0.23872 0.83682 0.0
C883 C 0.43548 0.22262 0.84696 0.0
C884 C 0.42345 0.21328 0.86007 0.0
C885 C 0.40511 0.21999 0.86302 0.0
C886 C 0.3988 0.23611 0.85294 0.0
C887 C 0.3442 0.25887 0.77286 0.0
C888 C 0.3279 0.26798 0.77976 0.0
C889 C 0.36179 0.26248 0.78156 0.0
C890 C 0.36338 0.2755 0.79703 0.0
C891 C 0.34728 0.28512 0.80351 0.0
C892 C 0.32966 0.28135 0.79499 0.0
C893 C 0.38145 0.27768 0.80767 0.0
C894 C 0.38841 0.26158 0.81741 0.0
C895 C 0.39085 0.29561 0.80967 0.0
C896 C 0.38426 0.31296 0.79929 0.0
C897 C 0.38067 0.32991 0.80962 0.0
C898 C 0.37437 0.34623 0.79986 0.0
C899 C 0.37168 0.34579 0.77974 0.0
C900 C 0.37534 0.32905 0.76933 0.0
C901 C 0.38165 0.3127 0.77901 0.0
H902 H 0.3668 0.35843 0.77221 0.0
H903 H 0.42832 0.20082 0.86792 0.0
H904 H 0.0059 0.82421 0.36511 0.0
H905 H -0.00154 0.85641 0.37715 0.0
H906 H 0.00877 0.83753 0.43591 0.0
H907 H 0.01603 0.80557 0.42411 0.0
H908 H 0.97497 0.8561 0.43201 0.0
H909 H 0.04101 0.86475 0.41166 0.0
H910 H 0.06662 0.86512 0.38736 0.0
H911 H 0.03629 0.90637 0.3534 0.0
H912 H 0.0104 0.90606 0.37741 0.0
H913 H 0.00066 0.92783 0.49697 0.0
H914 H 0.99702 0.90101 0.47458 0.0
H915 H 0.98644 0.94023 0.42742 0.0
H916 H 0.99026 0.96732 0.44975 0.0
H917 H 0.01314 0.91463 0.41809 0.0
H918 H 0.95084 0.91143 0.44268 0.0
H919 H 0.92544 0.91147 0.46716 0.0
H920 H 0.94777 0.86035 0.49279 0.0
H921 H 0.97347 0.86014 0.46866 0.0
C922 C 0.00677 0.82705 0.38056 0.0
C923 C 0.01146 0.81241 0.39371 0.0
C924 C 0.00248 0.84539 0.38739 0.0
C925 C 0.00295 0.84924 0.40741 0.0
C926 C 0.00813 0.83475 0.42042 0.0
C927 C 0.01237 0.81653 0.41365 0.0
C928 C -0.00213 0.86819 0.41526 0.0
C929 C 0.98327 0.86894 0.429 0.0
C930 C 0.00814 0.88506 0.41057 0.0
C931 C 0.02367 0.88519 0.39617 0.0
C932 C 0.03973 0.87376 0.39891 0.0
C933 C 0.05431 0.87399 0.38522 0.0
C934 C 0.05305 0.8857 0.36881 0.0
C935 C 0.03723 0.89726 0.36609 0.0
C936 C 0.0226 0.89707 0.37973 0.0
C937 C 0.99733 0.9308 0.4819 0.0
C938 C 0.99585 0.94973 0.47515 0.0
C939 C 0.99511 0.91543 0.46913 0.0
C940 C 0.99127 0.91865 0.44938 0.0
C941 C 0.98933 0.93748 0.44263 0.0
C942 C 0.9915 0.95291 0.45543 0.0
C943 C 0.99097 0.90226 0.43574 0.0
C944 C 0.00443 0.90199 0.42079 0.0
C945 C 0.97961 0.88581 0.43928 0.0
C946 C 0.96415 0.88582 0.45387 0.0
C947 C 0.95042 0.90026 0.45361 0.0
C948 C 0.93594 0.9003 0.46742 0.0
C949 C 0.935 0.88593 0.48153 0.0
C950 C 0.94851 0.87147 0.48184 0.0
C951 C 0.96302 0.87136 0.46808 0.0
H952 H 0.92378 0.88599 0.49221 0.0
H953 H 0.06435 0.88587 0.35823 0.0
H954 H 0.44877 0.74259 0.63507 0.0
H955 H 0.41924 0.73047 0.64864 0.0
H956 H 0.44036 0.74137 0.70659 0.0
H957 H 0.47067 0.75308 0.69285 0.0
H958 H 0.41761 0.70738 0.70348 0.0
H959 H 0.41337 0.77392 0.68697 0.0
H960 H 0.41733 0.80231 0.66596 0.0
H961 H 0.38016 0.77688 0.62336 0.0
H962 H 0.37621 0.74821 0.64399 0.0
H963 H 0.32475 0.71837 0.74374 0.0
H964 H 0.35781 0.71902 0.73375 0.0
H965 H 0.34058 0.71211 0.67391 0.0
H966 H 0.3073 0.71169 0.68376 0.0
H967 H 0.36216 0.74377 0.67967 0.0
H968 H 0.36555 0.67741 0.69718 0.0
H969 H 0.36162 0.64933 0.71859 0.0
H970 H 0.39976 0.67481 0.76025 0.0
H971 H 0.40373 0.70318 0.7392 0.0
C972 C 0.4472 0.74235 0.65073 0.0
C973 C 0.46173 0.74923 0.66296 0.0
C974 C 0.43037 0.73531 0.65845 0.0
C975 C 0.42747 0.73546 0.67857 0.0
C976 C 0.44234 0.74129 0.69099 0.0
C977 C 0.45952 0.74805 0.68319 0.0
C978 C 0.40827 0.73112 0.68606 0.0
C979 C 0.40547 0.71547 0.69857 0.0
C980 C 0.39246 0.74151 0.67931 0.0
C981 C 0.39461 0.75886 0.66697 0.0
C982 C 0.40614 0.77434 0.67307 0.0
C983 C 0.40837 0.79048 0.66123 0.0
C984 C 0.39903 0.79138 0.64332 0.0
C985 C 0.3874 0.77616 0.63723 0.0
C986 C 0.38514 0.75997 0.649 0.0
C987 C 0.32796 0.71661 0.72846 0.0
C988 C 0.31337 0.71528 0.71449 0.0
C989 C 0.34691 0.71682 0.72282 0.0
C990 C 0.35164 0.71563 0.70311 0.0
C991 C 0.33718 0.71307 0.68922 0.0
C992 C 0.31818 0.7128 0.69487 0.0
C993 C 0.37131 0.71976 0.69684 0.0
C994 C 0.37423 0.73557 0.68462 0.0
C995 C 0.3871 0.70959 0.70402 0.0
C996 C 0.3848 0.69251 0.71668 0.0
C997 C 0.37298 0.67711 0.71098 0.0
C998 C 0.37077 0.66112 0.72304 0.0
C999 C 0.3804 0.6603 0.74079 0.0
C1000 C 0.3923 0.67546 0.7465 0.0
C1001 C 0.39455 0.69149 0.7345 0.0
H1002 H 0.37866 0.64791 0.75011 0.0
H1003 H 0.40078 0.80389 0.63417 0.0
H1004 H 0.51038 0.21642 0.95008 0.0
H1005 H 0.51409 0.18185 0.95543 0.0
H1006 H 0.49781 0.17074 0.89599 0.0
H1007 H 0.49478 0.20527 0.89031 0.0
H1008 H 0.4813 0.14669 0.93531 0.0
H1009 H 0.5343 0.16498 0.89305 0.0
H1010 H 0.56016 0.18742 0.88431 0.0
H1011 H 0.58617 0.17872 0.94008 0.0
H1012 H 0.56008 0.15669 0.94937 0.0
H1013 H 0.50259 0.05108 0.94155 0.0
H1014 H 0.50356 0.08159 0.92417 0.0
H1015 H 0.54199 0.10475 0.96735 0.0
H1016 H 0.54159 0.07405 0.98442 0.0
H1017 H 0.54707 0.12228 0.93216 0.0
H1018 H 0.495 0.10653 0.97556 0.0
H1019 H 0.46886 0.08571 0.98713 0.0
H1020 H 0.44113 0.09035 0.93173 0.0
H1021 H 0.4672 0.1111 0.91978 0.0
C1022 C 0.50735 0.20656 0.93827 0.0
C1023 C 0.50244 0.21339 0.91977 0.0
C1024 C 0.50951 0.18692 0.94131 0.0
C1025 C 0.50636 0.17396 0.92602 0.0
C1026 C 0.50039 0.18065 0.90787 0.0
C1027 C 0.49871 0.20029 0.90467 0.0
C1028 C 0.5104 0.15353 0.92881 0.0
C1029 C 0.49557 0.14119 0.93422 0.0
C1030 C 0.52911 0.14667 0.92775 0.0
C1031 C 0.54511 0.15941 0.922 0.0
C1032 C 0.5454 0.16804 0.90354 0.0
C1033 C 0.5601 0.18068 0.89848 0.0
C1034 C 0.57477 0.18454 0.91165 0.0
C1035 C 0.57477 0.17575 0.9299 0.0
C1036 C 0.56002 0.16321 0.93509 0.0
C1037 C 0.51184 0.06244 0.94689 0.0
C1038 C 0.52169 0.06041 0.96453 0.0
C1039 C 0.51236 0.07985 0.93697 0.0
C1040 C 0.52234 0.09555 0.94487 0.0
C1041 C 0.53406 0.09282 0.96114 0.0
C1042 C 0.53382 0.07527 0.97089 0.0
C1043 C 0.51791 0.11523 0.93852 0.0
C1044 C 0.53269 0.12757 0.93273 0.0
C1045 C 0.49912 0.12216 0.93937 0.0
C1046 C 0.48312 0.11021 0.94672 0.0
C1047 C 0.48335 0.10307 0.96584 0.0
C1048 C 0.46856 0.09128 0.97246 0.0
C1049 C 0.4534 0.08663 0.96014 0.0
C1050 C 0.45293 0.09389 0.94122 0.0
C1051 C 0.46768 0.10572 0.93453 0.0
H1052 H 0.44197 0.0775 0.96528 0.0
H1053 H 0.58617 0.19428 0.90768 0.0
H1054 H 0.07049 0.27517 0.10313 0.0
H1055 H 0.10072 0.27881 0.12013 0.0
H1056 H 0.0714 0.28381 0.17471 0.0
H1057 H 0.04093 0.28009 0.15782 0.0
H1058 H 0.1032 0.30957 0.17052 0.0
H1059 H 0.08685 0.24248 0.16445 0.0
H1060 H 0.07711 0.21332 0.14657 0.0
H1061 H 0.12693 0.21777 0.11116 0.0
H1062 H 0.1368 0.24716 0.12865 0.0
H1063 H 0.18269 0.25421 0.22263 0.0
H1064 H 0.15213 0.25644 0.20633 0.0
H1065 H 0.17272 0.30456 0.17283 0.0
H1066 H 0.20364 0.30242 0.1891 0.0
H1067 H 0.14484 0.25285 0.16709 0.0
H1068 H 0.13258 0.3346 0.16732 0.0
H1069 H 0.14133 0.36305 0.18688 0.0
H1070 H 0.14739 0.32767 0.23752 0.0
H1071 H 0.1384 0.29909 0.21834 0.0
C1072 C 0.07041 0.27723 0.11873 0.0
C1073 C 0.05332 0.27707 0.12919 0.0
C1074 C 0.0877 0.27933 0.12839 0.0
C1075 C 0.08821 0.28142 0.14864 0.0
C1076 C 0.07121 0.28221 0.15905 0.0
C1077 C 0.05387 0.27992 0.14941 0.0
C1078 C 0.10653 0.2811 0.15902 0.0
C1079 C 0.11237 0.29724 0.16973 0.0
C1080 C 0.11829 0.26486 0.15816 0.0
C1081 C 0.11246 0.24712 0.14772 0.0
C1082 C 0.09564 0.23733 0.15274 0.0
C1083 C 0.09011 0.22075 0.1427 0.0
C1084 C 0.10137 0.21373 0.1277 0.0
C1085 C 0.11821 0.22325 0.12276 0.0
C1086 C 0.12378 0.23986 0.13274 0.0
C1087 C 0.18077 0.26536 0.21187 0.0
C1088 C 0.19561 0.27818 0.20716 0.0
C1089 C 0.1633 0.26655 0.20254 0.0
C1090 C 0.1602 0.2807 0.18848 0.0
C1091 C 0.17487 0.29363 0.18378 0.0
C1092 C 0.1925 0.29234 0.193 0.0
C1093 C 0.14169 0.28141 0.17845 0.0
C1094 C 0.13579 0.26529 0.16776 0.0
C1095 C 0.12983 0.29757 0.17958 0.0
C1096 C 0.13507 0.31468 0.19131 0.0
C1097 C 0.13574 0.33291 0.18263 0.0
C1098 C 0.14074 0.34906 0.19366 0.0
C1099 C 0.14499 0.34715 0.21341 0.0
C1100 C 0.14418 0.32911 0.2222 0.0
C1101 C 0.13917 0.31293 0.21125 0.0
H1102 H 0.14887 0.35967 0.22191 0.0
H1103 H 0.09707 0.20088 0.11994 0.0
H1104 H 0.11471 0.98592 0.20876 0.0
H1105 H 0.09963 0.96882 0.18154 0.0
H1106 H 0.04544 0.9915 0.19797 0.0
H1107 H 0.06019 0.00854 0.22502 0.0
H1108 H 0.04403 0.95231 0.19046 0.0
H1109 H 0.07038 0.01103 0.1613 0.0
H1110 H 0.09691 0.03276 0.15279 0.0
H1111 H 0.12368 0.98731 0.1215 0.0
H1112 H 0.09741 0.96523 0.13006 0.0
H1113 H 0.98003 0.96619 0.1156 0.0
H1114 H 0.00172 0.96264 0.14275 0.0
H1115 H 0.04409 0.94009 0.10423 0.0
H1116 H 0.02251 0.94407 0.07674 0.0
H1117 H 0.05778 0.96981 0.12209 0.0
H1118 H 0.02756 0.91353 0.14406 0.0
H1119 H 0.00149 0.89122 0.15236 0.0
H1120 H 0.9827 0.92979 0.19672 0.0
H1121 H 0.00847 0.95249 0.18852 0.0
C1122 C 0.0996 0.98736 0.20651 0.0
C1123 C 0.08869 -0.00133 0.2191 0.0
C1124 C 0.09102 0.97752 0.191 0.0
C1125 C 0.07142 0.97883 0.18784 0.0
C1126 C 0.06057 0.99016 0.20028 0.0
C1127 C 0.06909 2e-05 0.21567 0.0
C1128 C 0.06192 0.96888 0.1714 0.0
C1129 C 0.04699 0.95605 0.17547 0.0
C1130 C 0.06645 0.97307 0.15186 0.0
C1131 C 0.0821 0.98642 0.14659 0.0
C1132 C 0.08202 0.00563 0.15277 0.0
C1133 C 0.097 0.018 0.14793 0.0
C1134 C 0.11205 0.01137 0.13676 0.0
C1135 C 0.11208 0.99239 0.13028 0.0
C1136 C 0.09715 0.97994 0.1351 0.0
C1137 C 0.99371 0.95986 0.11292 0.0
C1138 C -0.00035 0.95583 0.0939 0.0
C1139 C 0.00612 0.9577 0.12856 0.0
C1140 C 0.02464 0.95119 0.12557 0.0
C1141 C 0.02992 0.94525 0.10688 0.0
C1142 C 0.0175 0.94746 0.09118 0.0
C1143 C 0.03908 0.95392 0.14112 0.0
C1144 C 0.05505 0.96543 0.13696 0.0
C1145 C 0.03558 0.94835 0.16056 0.0
C1146 C 0.01998 0.93476 0.16561 0.0
C1147 C 0.01781 0.91733 0.1555 0.0
C1148 C 0.00308 0.90459 0.16021 0.0
C1149 C 0.99044 0.90908 0.17505 0.0
C1150 C 0.99252 0.92632 0.18524 0.0
C1151 C 0.00722 0.93911 0.18059 0.0
H1152 H 0.97905 0.8992 0.17867 0.0
H1153 H 0.12361 0.02099 0.13297 0.0
H1154 H 0.26409 0.90966 0.43095 0.0
H1155 H 0.27421 0.89496 0.40019 0.0
H1156 H 0.23293 0.84957 0.40818 0.0
H1157 H 0.22315 0.86391 0.43882 0.0
H1158 H 0.27652 0.84238 0.41055 0.0
H1159 H 0.22406 0.87093 0.37374 0.0
H1160 H 0.20703 0.898 0.35908 0.0
H1161 H 0.25673 0.91392 0.32683 0.0
H1162 H 0.27418 0.88708 0.34159 0.0
H1163 H 0.24752 0.77222 0.34481 0.0
H1164 H 0.25254 0.79881 0.3675 0.0
H1165 H 0.29695 0.82162 0.33103 0.0
H1166 H 0.29243 0.79459 0.30853 0.0
H1167 H 0.26359 0.84683 0.33984 0.0
H1168 H 0.31247 0.81207 0.37069 0.0
H1169 H 0.32816 0.78384 0.38466 0.0
H1170 H 0.28475 0.77906 0.42797 0.0
H1171 H 0.26862 0.80707 0.41409 0.0
C1172 C 0.25656 0.89712 0.42551 0.0
C1173 C 0.24283 0.88784 0.437 0.0
C1174 C 0.2624 0.88872 0.40807 0.0
C1175 C 0.25431 0.87121 0.40209 0.0
C1176 C 0.23922 0.86315 0.4126 0.0
C1177 C 0.2336 0.87135 0.43001 0.0
C1178 C 0.26374 0.859 0.38775 0.0
C1179 C 0.27393 0.84341 0.39503 0.0
C1180 C 0.2609 0.86089 0.36755 0.0
C1181 C 0.25054 0.87724 0.35907 0.0
C1182 C 0.23147 0.88039 0.36379 0.0
C1183 C 0.22171 0.89563 0.35539 0.0
C1184 C 0.23083 0.90773 0.34212 0.0
C1185 C 0.24972 0.90458 0.33718 0.0
C1186 C 0.25955 0.88937 0.34557 0.0
C1187 C 0.25879 0.78254 0.34201 0.0
C1188 C 0.26965 0.78137 0.32505 0.0
C1189 C 0.26161 0.79771 0.35489 0.0
C1190 C 0.27505 0.81213 0.3508 0.0
C1191 C 0.28657 0.81055 0.33437 0.0
C1192 C 0.28407 0.79506 0.32169 0.0
C1193 C 0.27531 0.82959 0.36285 0.0
C1194 C 0.26697 0.84618 0.35522 0.0
C1195 C 0.27969 0.82858 0.38282 0.0
C1196 C 0.28931 0.81168 0.39129 0.0
C1197 C 0.30619 0.80493 0.38311 0.0
C1198 C 0.31518 0.78897 0.39103 0.0
C1199 C 0.30745 0.77965 0.40718 0.0
C1200 C 0.29073 0.7863 0.41546 0.0
C1201 C 0.28168 0.80225 0.4076 0.0
H1202 H 0.31443 0.7673 0.41329 0.0
H1203 H 0.22323 0.91949 0.33563 0.0
H1204 H 0.43295 0.99551 0.73894 0.0
H1205 H 0.44475 0.00827 0.70825 0.0
H1206 H 0.38743 0.01617 0.68816 0.0
H1207 H 0.37537 0.00341 0.71888 0.0
H1208 H 0.41088 -0.00018 0.66039 0.0
H1209 H 0.41103 0.05401 0.70272 0.0
H1210 H 0.41794 0.07196 0.73284 0.0
H1211 H 0.47763 0.06544 0.72353 0.0
H1212 H 0.47108 0.04717 0.69349 0.0
H1213 H 0.44186 0.04995 0.57779 0.0
H1214 H 0.42569 0.04639 0.6089 0.0
H1215 H 0.47911 0.03553 0.6372 0.0
H1216 H 0.49548 0.03916 0.60622 0.0
H1217 H 0.45445 0.05629 0.66042 0.0
H1218 H 0.45421 -0.00113 0.62089 0.0
H1219 H 0.44785 0.98035 0.59097 0.0
H1220 H 0.38856 0.99259 0.59537 0.0
H1221 H 0.39462 0.01145 0.62519 0.0
C1222 C 0.4228 -0.0002 0.72798 0.0
C1223 C 0.40319 -0.00153 0.73142 0.0
C1224 C 0.42959 0.00721 0.7105 0.0
C1225 C 0.41695 0.01341 0.69611 0.0
C1226 C 0.39739 0.01155 0.69917 0.0
C1227 C 0.39055 0.00425 0.71673 0.0
C1228 C 0.42428 0.02177 0.67787 0.0
C1229 C 0.42009 0.0124 0.66033 0.0
C1230 C 0.43653 0.038 0.67791 0.0
C1231 C 0.44055 0.04908 0.69592 0.0
C1232 C 0.42563 0.05627 0.70717 0.0
C1233 C 0.42948 0.06652 0.72422 0.0
C1234 C 0.44821 0.06981 0.73011 0.0
C1235 C 0.46313 0.06287 0.71895 0.0
C1236 C 0.45935 0.05258 0.70189 0.0
C1237 C 0.45026 0.04728 0.59069 0.0
C1238 C 0.46993 0.04447 0.58946 0.0
C1239 C 0.44097 0.04522 0.60844 0.0
C1240 C 0.45119 0.04033 0.6252 0.0
C1241 C 0.47099 0.03921 0.62436 0.0
C1242 C 0.4803 0.04121 0.60662 0.0
C1243 C 0.44121 0.03419 0.64302 0.0
C1244 C 0.44496 0.04392 0.66047 0.0
C1245 C 0.42859 0.01825 0.64292 0.0
C1246 C 0.42489 0.00675 0.62512 0.0
C1247 C 0.43983 -0.00227 0.61539 0.0
C1248 C 0.43629 0.98716 0.59847 0.0
C1249 C 0.41782 0.98535 0.59124 0.0
C1250 C 0.40286 0.99405 0.60097 0.0
C1251 C 0.40634 0.00468 0.61788 0.0
H1252 H 0.4151 0.97717 0.57813 0.0
H1253 H 0.45116 0.07775 0.74332 0.0
H1254 H 0.24864 0.10827 0.93469 0.0
H1255 H 0.24797 0.1254 0.90364 0.0
H1256 H 0.20307 0.16105 0.92501 0.0
H1257 H 0.20418 0.14447 0.95625 0.0
H1258 H 0.22487 0.1346 0.87457 0.0
H1259 H 0.21243 0.20693 0.91391 0.0
H1260 H 0.21739 0.22119 0.9464 0.0
H1261 H 0.26283 0.18224 0.95738 0.0
H1262 H 0.25834 0.16798 0.92487 0.0
H1263 H 0.21594 0.20572 0.80177 0.0
H1264 H 0.21016 0.18541 0.83014 0.0
H1265 H 0.2612 0.2077 0.85711 0.0
H1266 H 0.26654 0.22862 0.82924 0.0
H1267 H 0.23622 0.20448 0.88313 0.0
H1268 H 0.25858 0.1627 0.83343 0.0
H1269 H 0.25901 0.14759 0.80102 0.0
H1270 H 0.20335 0.124 0.81062 0.0
H1271 H 0.20248 0.13919 0.843 0.0
C1272 C 0.23834 0.11947 0.93258 0.0
C1273 C 0.22671 0.12532 0.94793 0.0
C1274 C 0.23794 0.12922 0.91483 0.0
C1275 C 0.22579 0.1448 0.9122 0.0
C1276 C 0.21286 0.14935 0.9269 0.0
C1277 C 0.21348 0.13985 0.94471 0.0
C1278 C 0.22813 0.15764 0.89519 0.0
C1279 C 0.22723 0.14989 0.87639 0.0
C1280 C 0.23184 0.1775 0.89761 0.0
C1281 C 0.23488 0.18626 0.91705 0.0
C1282 C 0.22352 0.20148 0.92324 0.0
C1283 C 0.22626 0.20955 0.94166 0.0
C1284 C 0.24037 0.20258 0.95397 0.0
C1285 C 0.25186 0.18759 0.94786 0.0
C1286 C 0.24922 0.1795 0.92944 0.0
C1287 C 0.22583 0.20638 0.81384 0.0
C1288 C 0.24172 0.21872 0.81327 0.0
C1289 C 0.22258 0.19468 0.82998 0.0
C1290 C 0.23544 0.19472 0.84563 0.0
C1291 C 0.25107 0.20738 0.84524 0.0
C1292 C 0.25412 0.21935 0.82929 0.0
C1293 C 0.23278 0.18154 0.86237 0.0
C1294 C 0.23366 0.18922 0.8812 0.0
C1295 C 0.22986 0.16153 0.85994 0.0
C1296 C 0.23039 0.15224 0.84055 0.0
C1297 C 0.24638 0.15439 0.82857 0.0
C1298 C 0.24671 0.1458 0.81022 0.0
C1299 C 0.23119 0.13488 0.80375 0.0
C1300 C 0.21534 0.13248 0.81565 0.0
C1301 C 0.21493 0.14107 0.834 0.0
H1302 H 0.23147 0.12825 0.78953 0.0
H1303 H 0.24244 0.20883 0.96824 0.0
H1304 H 0.14617 0.02521 0.32616 0.0
H1305 H 0.13661 0.0354 0.35876 0.0
H1306 H 0.07799 0.03388 0.34064 0.0
H1307 H 0.08743 0.02421 0.30813 0.0
H1308 H 0.08445 0.06374 0.36405 0.0
H1309 H 0.09905 0.99551 0.36384 0.0
H1310 H 0.12 0.96782 0.35931 0.0
H1311 H 0.15914 0.99127 0.40123 0.0
H1312 H 0.1385 0.01922 0.40583 0.0
H1313 H 0.02622 0.03225 0.44035 0.0
H1314 H 0.04493 0.03918 0.41143 0.0
H1315 H 0.09555 0.04364 0.44658 0.0
H1316 H 0.07698 0.03657 0.47563 0.0
H1317 H 0.09955 0.01862 0.41744 0.0
H1318 H 0.0795 0.08287 0.4232 0.0
H1319 H 0.05713 0.10927 0.42808 0.0
H1320 H 0.02703 0.09287 0.37621 0.0
H1321 H 0.04903 0.06617 0.37117 0.0
C1322 C 0.13128 0.02724 0.32913 0.0
C1323 C 0.11752 0.02369 0.31471 0.0
C1324 C 0.12584 0.03307 0.34772 0.0
C1325 C 0.10656 0.03519 0.35217 0.0
C1326 C 0.09293 0.03239 0.33753 0.0
C1327 C 0.09835 0.02672 0.31898 0.0
C1328 C 0.1002 0.03877 0.37232 0.0
C1329 C 0.08774 0.05392 0.37578 0.0
C1330 C 0.105 0.02631 0.38775 0.0
C1331 C 0.11739 0.00955 0.38498 0.0
C1332 C 0.1122 0.99482 0.37197 0.0
C1333 C 0.124 0.97908 0.36941 0.0
C1334 C 0.14093 0.97782 0.37992 0.0
C1335 C 0.14606 0.99229 0.39306 0.0
C1336 C 0.13432 0.00808 0.39565 0.0
C1337 C 0.04127 0.03503 0.44202 0.0
C1338 C 0.05012 0.03361 0.46028 0.0
C1339 C 0.05194 0.03914 0.42547 0.0
C1340 C 0.07162 0.04202 0.42689 0.0
C1341 C 0.08037 0.04149 0.4452 0.0
C1342 C 0.06971 0.03742 0.46177 0.0
C1343 C 0.08317 0.04315 0.40901 0.0
C1344 C 0.09663 0.02885 0.40596 0.0
C1345 C 0.07915 0.05631 0.39396 0.0
C1346 C 0.0659 0.07243 0.39686 0.0
C1347 C 0.06804 0.0848 0.4129 0.0
C1348 C 0.05543 0.09984 0.41569 0.0
C1349 C 0.04066 0.10273 0.40248 0.0
C1350 C 0.03849 0.09061 0.38643 0.0
C1351 C 0.05105 0.07554 0.38358 0.0
H1352 H 0.0309 0.11438 0.40466 0.0
H1353 H 0.15004 0.96562 0.37793 0.0
H1354 H 0.25086 0.8778 0.54605 0.0
H1355 H 0.24758 0.86066 0.57673 0.0
H1356 H 0.27485 0.81147 0.55174 0.0
H1357 H 0.27792 0.82838 0.52084 0.0
H1358 H 0.24213 0.80172 0.5685 0.0
H1359 H 0.29696 0.83953 0.58644 0.0
H1360 H 0.31567 0.86932 0.59087 0.0
H1361 H 0.27387 0.89061 0.63028 0.0
H1362 H 0.25478 0.86105 0.62589 0.0
H1363 H 0.25453 0.74641 0.65341 0.0
H1364 H 0.25795 0.76519 0.62379 0.0
H1365 H 0.23104 0.81314 0.6515 0.0
H1366 H 0.22789 0.79456 0.68145 0.0
H1367 H 0.2627 0.82431 0.63369 0.0
H1368 H 0.20801 0.78689 0.61623 0.0
H1369 H 0.18874 0.75748 0.61175 0.0
H1370 H 0.2295 0.73598 0.57131 0.0
H1371 H 0.24914 0.76516 0.57575 0.0
C1372 C 0.25648 0.86346 0.54714 0.0
C1373 C 0.26457 0.85441 0.53094 0.0
C1374 C 0.25462 0.8537 0.56473 0.0
C1375 C 0.26101 0.83482 0.56651 0.0
C1376 C 0.26977 0.82603 0.55062 0.0
C1377 C 0.27154 0.83572 0.53299 0.0
C1378 C 0.25727 0.82371 0.58442 0.0
C1379 C 0.24689 0.8065 0.58273 0.0
C1380 C 0.26287 0.83036 0.60302 0.0
C1381 C 0.27435 0.84814 0.60569 0.0
C1382 C 0.29168 0.85063 0.59593 0.0
C1383 C 0.30237 0.86746 0.59845 0.0
C1384 C 0.29594 0.88187 0.61081 0.0
C1385 C 0.27883 0.87945 0.6207 0.0
C1386 C 0.26808 0.86265 0.61821 0.0
C1387 C 0.24909 0.76085 0.65318 0.0
C1388 C 0.24096 0.76898 0.66984 0.0
C1389 C 0.25102 0.77156 0.63619 0.0
C1390 C 0.24464 0.79052 0.63541 0.0
C1391 C 0.23609 0.79854 0.65182 0.0
C1392 C 0.23423 0.78786 0.66889 0.0
C1393 C 0.24776 0.8022 0.61773 0.0
C1394 C 0.25795 0.81954 0.61945 0.0
C1395 C 0.24191 0.79573 0.59914 0.0
C1396 C 0.23013 0.77814 0.59646 0.0
C1397 C 0.21294 0.77582 0.6065 0.0
C1398 C 0.20194 0.7592 0.60395 0.0
C1399 C 0.20791 0.74485 0.59129 0.0
C1400 C 0.22489 0.7471 0.58113 0.0
C1401 C 0.23596 0.76369 0.58364 0.0
H1402 H 0.19937 0.73199 0.58933 0.0
H1403 H 0.30424 0.89489 0.61275 0.0
H1404 H 0.40657 0.98232 0.82263 0.0
H1405 H 0.41601 0.97234 0.85506 0.0
H1406 H 0.35967 0.98315 0.87615 0.0
H1407 H 0.34994 0.9931 0.84336 0.0
H1408 H 0.38868 -1e-05 0.8983 0.0
H1409 H 0.37246 0.93864 0.87428 0.0
H1410 H 0.37105 0.91275 0.84992 0.0
H1411 H 0.43149 0.90715 0.85297 0.0
H1412 H 0.43335 0.93331 0.87702 0.0
H1413 H 0.43338 0.97758 0.98588 0.0
H1414 H 0.40965 0.97046 0.9607 0.0
H1415 H 0.45433 0.96297 0.91885 0.0
H1416 H 0.47803 0.9701 0.94409 0.0
H1417 H 0.4223 0.93923 0.91148 0.0
H1418 H 0.43847 0.00593 0.92578 0.0
H1419 H 0.44134 0.03517 0.94582 0.0
H1420 H 0.38187 0.03211 0.95852 0.0
H1421 H 0.37872 0.00266 0.93875 0.0
C1422 C 0.3961 0.98246 0.83408 0.0
C1423 C 0.37751 0.98848 0.83048 0.0
C1424 C 0.40148 0.9766 0.85258 0.0
C1425 C 0.38842 0.97667 0.86786 0.0
C1426 C 0.36985 0.98279 0.86442 0.0
C1427 C 0.36437 0.98852 0.84577 0.0
C1428 C 0.395 0.97181 0.88761 0.0
C1429 C 0.39544 0.98646 0.90151 0.0
C1430 C 0.40408 0.95424 0.8915 0.0
C1431 C 0.40304 0.93801 0.87748 0.0
C1432 C 0.38548 0.93195 0.86972 0.0
C1433 C 0.38459 0.91723 0.85594 0.0
C1434 C 0.40117 0.90831 0.8499 0.0
C1435 C 0.41866 0.91406 0.85768 0.0
C1436 C 0.41963 0.92883 0.87141 0.0
C1437 C 0.43806 0.97356 0.97148 0.0
C1438 C 0.45737 0.97418 0.96677 0.0
C1439 C 0.42455 0.96958 0.95714 0.0
C1440 C 0.43027 0.9664 0.93793 0.0
C1441 C 0.44967 0.96529 0.93365 0.0
C1442 C 0.46319 0.96933 0.948 0.0
C1443 C 0.41647 0.96768 0.92181 0.0
C1444 C 0.41479 0.95242 0.90862 0.0
C1445 C 0.40635 0.98478 0.91842 0.0
C1446 C 0.40842 0.00194 0.93105 0.0
C1447 C 0.42607 0.01132 0.93309 0.0
C1448 C 0.42774 0.02797 0.94433 0.0
C1449 C 0.4118 0.03547 0.95343 0.0
C1450 C 0.3942 0.02625 0.95147 0.0
C1451 C 0.39247 0.00958 0.94027 0.0
H1452 H 0.41304 0.04852 0.96187 0.0
H1453 H 0.40046 0.89694 0.8392 0.0
H1454 H 0.2131 0.17316 0.04196 0.0
H1455 H 0.22532 0.19037 0.0703 0.0
H1456 H 0.25775 0.14101 0.08693 0.0
H1457 H 0.24568 0.12356 0.05852 0.0
H1458 H 0.23959 0.16037 0.1186 0.0
H1459 H 0.28044 0.17386 0.06467 0.0
H1460 H 0.28749 0.18323 0.0309 0.0
H1461 H 0.2628 0.23833 0.04069 0.0
H1462 H 0.25531 0.22917 0.07445 0.0
H1463 H 0.29104 0.21403 0.18756 0.0
H1464 H 0.28689 0.19396 0.15874 0.0
H1465 H 0.2564 0.23936 0.1304 0.0
H1466 H 0.26078 0.25967 0.15893 0.0
H1467 H 0.27704 0.21949 0.10462 0.0
H1468 H 0.23294 0.2053 0.15648 0.0
H1469 H 0.22448 0.19653 0.19011 0.0
H1470 H 0.25395 0.14339 0.18416 0.0
H1471 H 0.2628 0.15197 0.15056 0.0
C1472 C 0.2226 0.16579 0.05175 0.0
C1473 C 0.22853 0.14701 0.04783 0.0
C1474 C 0.22962 0.1757 0.06791 0.0
C1475 C 0.24263 0.16703 0.08048 0.0
C1476 C 0.24777 0.14794 0.0773 0.0
C1477 C 0.24087 0.13803 0.06104 0.0
C1478 C 0.25157 0.17835 0.09628 0.0
C1479 C 0.24807 0.17309 0.1156 0.0
C1480 C 0.2624 0.19507 0.09224 0.0
C1481 C 0.26719 0.20077 0.07205 0.0
C1482 C 0.2764 0.18793 0.05959 0.0
C1483 C 0.28048 0.19321 0.04045 0.0
C1484 C 0.27556 0.21135 0.03364 0.0
C1485 C 0.2666 0.22428 0.04598 0.0
C1486 C 0.26244 0.21905 0.06513 0.0
C1487 C 0.28386 0.21995 0.17502 0.0
C1488 C 0.27591 0.23833 0.1757 0.0
C1489 C 0.28145 0.20841 0.15859 0.0
C1490 C 0.2709 0.215 0.14267 0.0
C1491 C 0.26446 0.23394 0.14261 0.0
C1492 C 0.26696 0.24554 0.15898 0.0
C1493 C 0.26483 0.20171 0.127 0.0
C1494 C 0.26882 0.2066 0.10767 0.0
C1495 C 0.25432 0.18472 0.13103 0.0
C1496 C 0.2487 0.17937 0.15109 0.0
C1497 C 0.2377 0.19179 0.16239 0.0
C1498 C 0.23283 0.18686 0.18143 0.0
C1499 C 0.23872 0.16944 0.18929 0.0
C1500 C 0.24943 0.15689 0.17807 0.0
C1501 C 0.25436 0.16178 0.15902 0.0
H1502 H 0.23497 0.16566 0.20405 0.0
H1503 H 0.27872 0.21541 0.01881 0.0
H1504 H 0.2003 0.06274 0.017 0.0
H1505 H 0.17713 0.03702 0.02327 0.0
H1506 H 0.13819 0.0631 0.98301 0.0
H1507 H 0.16109 0.08873 0.97673 0.0
H1508 H 0.14294 0.04325 0.0395 0.0
H1509 H 0.11027 0.03014 0.9621 0.0
H1510 H 0.12155 0.02615 0.92851 0.0
H1511 H 0.1759 0.0086 0.94982 0.0
H1512 H 0.16488 0.01219 0.98355 0.0
H1513 H 0.04562 0.03755 0.03711 0.0
H1514 H 0.07919 0.04334 0.03167 0.0
H1515 H 0.0864 0.984 0.01603 0.0
H1516 H 0.05246 0.978 0.02127 0.0
H1517 H 0.10392 0.00837 0.99048 0.0
H1518 H 0.10402 -0.00113 0.05852 0.0
H1519 H 0.09174 0.00258 0.09179 0.0
H1520 H 0.10374 0.06303 0.08969 0.0
H1521 H 0.11574 0.05979 0.05629 0.0
C1522 C 0.18696 0.06275 0.00917 0.0
C1523 C 0.18244 0.07788 0.99652 0.0
C1524 C 0.17375 0.04806 0.01279 0.0
C1525 C 0.156 0.04808 0.00352 0.0
C1526 C 0.1519 0.06262 0.99011 0.0
C1527 C 0.16496 0.07737 0.98666 0.0
C1528 C 0.14069 0.03463 0.0095 0.0
C1529 C 0.1346 0.0353 0.02887 0.0
C1530 C 0.13009 0.02387 0.99571 0.0
C1531 C 0.13674 0.02151 0.9754 0.0
C1532 C 0.12459 0.02529 0.95965 0.0
C1533 C 0.13095 0.02313 0.94057 0.0
C1534 C 0.14944 0.01715 0.93703 0.0
C1535 C 0.16159 0.01329 0.95258 0.0
C1536 C 0.1553 0.01541 0.97168 0.0
C1537 C 0.05428 0.02564 0.03262 0.0
C1538 C 0.04632 0.00729 0.02966 0.0
C1539 C 0.07353 0.02897 0.02962 0.0
C1540 C 0.08533 0.01402 0.02376 0.0
C1541 C 0.07752 0.99567 0.02069 0.0
C1542 C 0.05816 0.99229 0.02372 0.0
C1543 C 0.10564 0.01816 0.02011 0.0
C1544 C 0.11262 0.01574 0.00123 0.0
C1545 C 0.11718 0.02715 0.03439 0.0
C1546 C 0.11077 0.02907 0.05484 0.0
C1547 C 0.10403 0.01297 0.06514 0.0
C1548 C 0.09709 0.01499 0.08402 0.0
C1549 C 0.09693 0.03304 0.09283 0.0
C1550 C 0.10387 0.04906 0.08285 0.0
C1551 C 0.11078 0.04713 0.06395 0.0
H1552 H 0.09139 0.03463 0.10736 0.0
H1553 H 0.15433 0.0155 0.92225 0.0
H1554 H 0.71632 0.43488 0.02474 0.0
H1555 H 0.68455 0.44531 0.03376 0.0
H1556 H 0.66245 0.38851 0.02192 0.0
H1557 H 0.694 0.37814 0.01252 0.0
H1558 H 0.64164 0.41436 0.00461 0.0
H1559 H 0.66664 0.40605 0.06872 0.0
H1560 H 0.68944 0.41039 0.09566 0.0
H1561 H 0.67985 0.47105 0.09523 0.0
H1562 H 0.65718 0.46711 0.06809 0.0
H1563 H 0.54899 0.43497 0.03411 0.0
H1564 H 0.58018 0.42014 0.03534 0.0
H1565 H 0.60628 0.4756 0.04503 0.0
H1566 H 0.57521 0.49045 0.04438 0.0
H1567 H 0.62448 0.44841 0.06523 0.0
H1568 H 0.60176 0.45668 -0.0008 0.0
H1569 H 0.57839 0.45221 0.97278 0.0
H1570 H 0.58401 0.39112 0.97708 0.0
H1571 H 0.60716 0.39524 0.00377 0.0
C1572 C 0.70471 0.42459 0.02423 0.0
C1573 C 0.70762 0.40574 0.01779 0.0
C1574 C 0.68658 0.43053 0.0295 0.0
C1575 C 0.67113 0.41765 0.02863 0.0
C1576 C 0.67415 0.3987 0.02266 0.0
C1577 C 0.6922 0.3928 0.01729 0.0
C1578 C 0.6516 0.4242 0.03258 0.0
C1579 C 0.63784 0.42149 0.01803 0.0
C1580 C 0.64671 0.43388 0.04991 0.0
C1581 C 0.66034 0.4363 0.06624 0.0
C1582 C 0.66951 0.42033 0.07426 0.0
C1583 C 0.68239 0.42272 0.08959 0.0
C1584 C 0.68612 0.44099 0.09712 0.0
C1585 C 0.67695 0.45691 0.08937 0.0
C1586 C 0.66408 0.45461 0.07402 0.0
C1587 C 0.56134 0.44397 0.03681 0.0
C1588 C 0.55963 0.46393 0.03886 0.0
C1589 C 0.57915 0.43548 0.03749 0.0
C1590 C 0.59558 0.44684 0.03987 0.0
C1591 C 0.59381 0.46658 0.0431 0.0
C1592 C 0.576 0.47505 0.04265 0.0
C1593 C 0.61465 0.43855 0.03725 0.0
C1594 C 0.62831 0.44106 0.05195 0.0
C1595 C 0.61952 0.42868 0.02004 0.0
C1596 C 0.60603 0.42626 0.00361 0.0
C1597 C 0.59795 0.4423 0.99456 0.0
C1598 C 0.58473 0.43983 0.97955 0.0
C1599 C 0.57967 0.42138 0.97332 0.0
C1600 C 0.58791 0.40539 0.98197 0.0
C1601 C 0.60107 0.40778 0.99704 0.0
H1602 H 0.56937 0.41945 0.96178 0.0
H1603 H 0.6961 0.44281 0.10899 0.0
H1604 H 0.87865 0.44099 0.31248 0.0
H1605 H 0.85644 0.4138 0.31323 0.0
H1606 H 0.83507 0.42977 0.2567 0.0
H1607 H 0.8566 0.45749 0.25635 0.0
H1608 H 0.80678 0.42171 0.27989 0.0
H1609 H 0.8662 0.39051 0.26419 0.0
H1610 H 0.89984 0.38327 0.27028 0.0
H1611 H 0.88561 0.36001 0.32618 0.0
H1612 H 0.8519 0.36722 0.32045 0.0
H1613 H 0.76186 0.33494 0.24932 0.0
H1614 H 0.77923 0.36502 0.25502 0.0
H1615 H 0.7994 0.34321 0.30999 0.0
H1616 H 0.78297 0.31279 0.3037 0.0
H1617 H 0.82758 0.35493 0.29069 0.0
H1618 H 0.76773 0.38269 0.30535 0.0
H1619 H 0.73415 0.39072 0.30029 0.0
H1620 H 0.74851 0.42107 0.24802 0.0
H1621 H 0.78215 0.41302 0.25261 0.0
C1622 C 0.86944 0.43845 0.30008 0.0
C1623 C 0.8694 0.45114 0.28426 0.0
C1624 C 0.85673 0.42297 0.30054 0.0
C1625 C 0.84422 0.41965 0.28492 0.0
C1626 C 0.84453 0.43211 0.26893 0.0
C1627 C 0.85692 0.44782 0.26866 0.0
C1628 C 0.83058 0.40337 0.28526 0.0
C1629 C 0.8113 0.40706 0.28206 0.0
C1630 C 0.83642 0.38439 0.28878 0.0
C1631 C 0.85658 0.3795 0.29194 0.0
C1632 C 0.87027 0.38387 0.27778 0.0
C1633 C 0.88934 0.37977 0.28117 0.0
C1634 C 0.89486 0.37121 0.29862 0.0
C1635 C 0.88131 0.36663 0.31267 0.0
C1636 C 0.86222 0.37067 0.30934 0.0
C1637 C 0.76963 0.33684 0.26282 0.0
C1638 C 0.77127 0.32165 0.27603 0.0
C1639 C 0.77949 0.35403 0.26613 0.0
C1640 C 0.79063 0.35642 0.28298 0.0
C1641 C 0.79104 0.34166 0.29683 0.0
C1642 C 0.78162 0.32434 0.29328 0.0
C1643 C 0.80365 0.37314 0.28506 0.0
C1644 C 0.82289 0.36956 0.28871 0.0
C1645 C 0.79771 0.39221 0.28205 0.0
C1646 C 0.77747 0.39711 0.27926 0.0
C1647 C 0.76372 0.39095 0.2927 0.0
C1648 C 0.74467 0.39554 0.28993 0.0
C1649 C 0.7392 0.40636 0.27383 0.0
C1650 C 0.75277 0.41268 0.26048 0.0
C1651 C 0.77183 0.40813 0.26318 0.0
H1652 H 0.72444 0.40989 0.2717 0.0
H1653 H 0.90964 0.36811 0.30124 0.0
H1654 H 0.77892 0.57876 0.52673 0.0
H1655 H 0.80957 0.56669 0.53771 0.0
H1656 H 0.83799 0.61328 0.50805 0.0
H1657 H 0.8075 0.62555 0.49731 0.0
H1658 H 0.83673 0.55367 0.51584 0.0
H1659 H 0.87896 0.62508 0.53055 0.0
H1660 H 0.87291 0.65694 0.5446 0.0
H1661 H 0.8263 0.63363 0.57722 0.0
H1662 H 0.83225 0.60157 0.56364 0.0
H1663 H 0.93278 0.54743 0.49367 0.0
H1664 H 0.90053 0.55914 0.49719 0.0
H1665 H 0.90692 0.55934 0.55951 0.0
H1666 H 0.93924 0.5474 0.55623 0.0
H1667 H 0.88931 0.59262 0.54414 0.0
H1668 H 0.88271 0.52522 0.54331 0.0
H1669 H 0.88588 0.4916 0.53293 0.0
H1670 H 0.85881 0.50454 0.47861 0.0
H1671 H 0.85584 0.53835 0.48847 0.0
C1672 C 0.7917 0.58651 0.52271 0.0
C1673 C 0.79085 0.603 0.51103 0.0
C1674 C 0.80918 0.57963 0.52903 0.0
C1675 C 0.82603 0.58919 0.52386 0.0
C1676 C 0.82515 0.60588 0.51253 0.0
C1677 C 0.80771 0.61277 0.50624 0.0
C1678 C 0.84465 0.58082 0.52858 0.0
C1679 C 0.84819 0.56214 0.52216 0.0
C1680 C 0.85941 0.5917 0.5374 0.0
C1681 C 0.85599 0.61091 0.54593 0.0
C1682 C 0.8675 0.62671 0.54082 0.0
C1683 C 0.86407 0.64482 0.54868 0.0
C1684 C 0.8492 0.64732 0.56175 0.0
C1685 C 0.83778 0.63169 0.56704 0.0
C1686 C 0.84116 0.61355 0.55924 0.0
C1687 C 0.92743 0.55007 0.50815 0.0
C1688 C 0.93855 0.54633 0.52468 0.0
C1689 C 0.90897 0.55667 0.51011 0.0
C1690 C 0.90134 0.5598 0.5286 0.0
C1691 C 0.91259 0.55688 0.54513 0.0
C1692 C 0.93102 0.55005 0.5432 0.0
C1693 C 0.88147 0.56591 0.53043 0.0
C1694 C 0.87775 0.58413 0.53806 0.0
C1695 C 0.86639 0.55446 0.52312 0.0
C1696 C 0.86916 0.53438 0.51661 0.0
C1697 C 0.87768 0.52098 0.52904 0.0
C1698 C 0.87936 0.50186 0.52328 0.0
C1699 C 0.87242 0.49591 0.50519 0.0
C1700 C 0.86403 0.50914 0.49269 0.0
C1701 C 0.8624 0.52829 0.49833 0.0
H1702 H 0.87367 0.48109 0.50079 0.0
H1703 H 0.84654 0.66135 0.56779 0.0
H1704 H 0.16414 0.05638 0.24662 0.0
H1705 H 0.18635 0.08348 0.24751 0.0
H1706 H 0.14767 0.11492 0.28356 0.0
H1707 H 0.12518 0.08808 0.28241 0.0
H1708 H 0.16179 0.13727 0.25621 0.0
H1709 H 0.18729 0.09299 0.30257 0.0
H1710 H 0.19909 0.06182 0.31399 0.0
H1711 H 0.2437 0.06425 0.27179 0.0
H1712 H 0.232 0.09532 0.25993 0.0
H1713 H 0.22033 0.21135 0.28575 0.0
H1714 H 0.20402 0.1806 0.29001 0.0
H1715 H 0.24009 0.15513 0.24692 0.0
H1716 H 0.2568 0.18588 0.24282 0.0
H1717 H 0.22843 0.12935 0.27791 0.0
H1718 H 0.20178 0.17301 0.23085 0.0
H1719 H 0.19068 0.20485 0.22059 0.0
H1720 H 0.14831 0.20352 0.26519 0.0
H1721 H 0.15937 0.17179 0.27592 0.0
C1722 C 0.16029 0.0691 0.25465 0.0
C1723 C 0.14286 0.07005 0.26444 0.0
C1724 C 0.17308 0.08452 0.25526 0.0
C1725 C 0.16881 0.10108 0.26588 0.0
C1726 C 0.15127 0.10224 0.27532 0.0
C1727 C 0.13841 0.08689 0.2746 0.0
C1728 C 0.18247 0.11736 0.26693 0.0
C1729 C 0.17627 0.13552 0.26119 0.0
C1730 C 0.20152 0.11503 0.27304 0.0
C1731 C 0.20865 0.0964 0.28023 0.0
C1732 C 0.19953 0.08681 0.29562 0.0
C1733 C 0.20622 0.06917 0.30219 0.0
C1734 C 0.22211 0.06104 0.29358 0.0
C1735 C 0.23138 0.07056 0.27843 0.0
C1736 C 0.22473 0.08819 0.27178 0.0
C1737 C 0.22514 0.19908 0.27757 0.0
C1738 C 0.23959 0.20104 0.26372 0.0
C1739 C 0.21585 0.18152 0.28007 0.0
C1740 C 0.22064 0.16577 0.2685 0.0
C1741 C 0.23621 0.16717 0.25595 0.0
C1742 C 0.2457 0.18474 0.25361 0.0
C1743 C 0.20759 0.14908 0.26737 0.0
C1744 C 0.21392 0.13095 0.27298 0.0
C1745 C 0.18862 0.15136 0.26116 0.0
C1746 C 0.18147 0.17009 0.25426 0.0
C1747 C 0.19013 0.17954 0.2385 0.0
C1748 C 0.18386 0.19757 0.23261 0.0
C1749 C 0.16881 0.20621 0.24225 0.0
C1750 C 0.15996 0.19681 0.25774 0.0
C1751 C 0.16621 0.17879 0.26372 0.0
H1752 H 0.164 0.22019 0.23769 0.0
H1753 H 0.22726 0.04738 0.29869 0.0
H1754 H 0.29018 0.93957 0.47411 0.0
H1755 H 0.31855 0.96017 0.47351 0.0
H1756 H 0.35272 0.91131 0.45953 0.0
H1757 H 0.32447 0.89065 0.45969 0.0
H1758 H 0.36135 0.93371 0.49601 0.0
H1759 H 0.35117 0.93973 0.42679 0.0
H1760 H 0.33252 0.94728 0.39747 0.0
H1761 H 0.32636 0.0053 0.41709 0.0
H1762 H 0.34473 -0.00199 0.4467 0.0
H1763 H 0.45049 0.98637 0.47231 0.0
H1764 H 0.42128 0.97075 0.4608 0.0
H1765 H 0.38992 -0.00155 0.50628 0.0
H1766 H 0.41897 0.01443 0.51771 0.0
H1767 H 0.38065 0.98659 0.45172 0.0
H1768 H 0.3691 0.95906 0.52793 0.0
H1769 H 0.38732 0.95325 0.55803 0.0
H1770 H 0.43614 0.93874 0.52429 0.0
H1771 H 0.41813 0.94426 0.49404 0.0
C1772 C 0.30369 0.93328 0.47058 0.0
C1773 C 0.30517 0.91348 0.46717 0.0
C1774 C 0.31981 0.94507 0.47013 0.0
C1775 C 0.33759 0.93717 0.46648 0.0
C1776 C 0.33902 0.91759 0.46228 0.0
C1777 C 0.32289 0.90585 0.46238 0.0
C1778 C 0.35488 0.94878 0.4695 0.0
C1779 C 0.36561 0.94518 0.48625 0.0
C1780 C 0.3602 0.96386 0.45687 0.0
C1781 C 0.34916 0.96826 0.43907 0.0
C1782 C 0.34566 0.95404 0.42497 0.0
C1783 C 0.33518 0.95829 0.40826 0.0
C1784 C 0.32821 0.97674 0.40545 0.0
C1785 C 0.33175 0.991 0.41931 0.0
C1786 C 0.34221 0.98682 0.43604 0.0
C1787 C 0.43732 0.98936 0.47967 0.0
C1788 C 0.437 0.00142 0.49605 0.0
C1789 C 0.42067 0.98061 0.47295 0.0
C1790 C 0.40359 0.98355 0.48272 0.0
C1791 C 0.40304 0.99618 0.49854 0.0
C1792 C 0.41963 0.0052 0.50508 0.0
C1793 C 0.38699 0.9714 0.47815 0.0
C1794 C 0.37636 0.97501 0.46133 0.0
C1795 C 0.3816 0.95634 0.49073 0.0
C1796 C 0.39233 0.95221 0.50878 0.0
C1797 C 0.38369 0.95451 0.52697 0.0
C1798 C 0.39398 0.9513 0.54404 0.0
C1799 C 0.41289 0.94567 0.54307 0.0
C1800 C 0.42152 0.94315 0.52502 0.0
C1801 C 0.41128 0.94634 0.50792 0.0
H1802 H 0.42084 0.94325 0.55631 0.0
H1803 H 0.32011 0.98001 0.3925 0.0
H1804 H 0.86744 0.57533 0.28053 0.0
H1805 H 0.85135 0.60327 0.26756 0.0
H1806 H 0.81051 0.56639 0.2387 0.0
H1807 H 0.82689 0.53821 0.25131 0.0
H1808 H 0.82171 0.59477 0.21505 0.0
H1809 H 0.79788 0.59039 0.27929 0.0
H1810 H 0.79836 0.58707 0.31497 0.0
H1811 H 0.83123 0.63906 0.31995 0.0
H1812 H 0.83115 0.64259 0.28429 0.0
H1813 H 0.75739 0.67938 0.21782 0.0
H1814 H 0.77092 0.64729 0.21767 0.0
H1815 H 0.82648 0.67166 0.22781 0.0
H1816 H 0.81329 0.70376 0.22778 0.0
H1817 H 0.80381 0.64758 0.25937 0.0
H1818 H 0.82763 0.64994 0.19304 0.0
H1819 H 0.82386 0.65283 0.15754 0.0
H1820 H 0.78649 0.60378 0.15707 0.0
H1821 H 0.78982 0.60077 0.19264 0.0
C1822 C 0.85497 0.57314 0.27153 0.0
C1823 C 0.84833 0.55461 0.26704 0.0
C1824 C 0.84577 0.58911 0.26415 0.0
C1825 C 0.8296 0.58688 0.25239 0.0
C1826 C 0.82295 0.56839 0.24779 0.0
C1827 C 0.83226 0.55235 0.25508 0.0
C1828 C 0.81985 0.604 0.24493 0.0
C1829 C 0.81753 0.60622 0.22475 0.0
C1830 C 0.81433 0.61885 0.2576 0.0
C1831 C 0.81464 0.61666 0.27908 0.0
C1832 C 0.80536 0.60103 0.28798 0.0
C1833 C 0.80553 0.59913 0.30821 0.0
C1834 C 0.81486 0.61282 0.31971 0.0
C1835 C 0.82402 0.62846 0.31102 0.0
C1836 C 0.8239 0.63043 0.2908 0.0
C1837 C 0.77259 0.678 0.21928 0.0
C1838 C 0.7842 0.69407 0.22339 0.0
C1839 C 0.78028 0.65965 0.21906 0.0
C1840 C 0.79961 0.65726 0.22285 0.0
C1841 C 0.81152 0.67336 0.22479 0.0
C1842 C 0.8039 0.69168 0.22487 0.0
C1843 C 0.80644 0.6386 0.22959 0.0
C1844 C 0.80795 0.63606 0.24972 0.0
C1845 C 0.8108 0.62343 0.2169 0.0
C1846 C 0.80877 0.6253 0.19554 0.0
C1847 C 0.81842 0.63992 0.18541 0.0
C1848 C 0.81641 0.64154 0.16526 0.0
C1849 C 0.80489 0.62854 0.15506 0.0
C1850 C 0.79539 0.61386 0.16499 0.0
C1851 C 0.79734 0.61218 0.18514 0.0
H1852 H 0.80336 0.62981 0.13946 0.0
H1853 H 0.81498 0.61133 0.33537 0.0
H1854 H 0.6318 0.44747 0.76168 0.0
H1855 H 0.64654 0.41816 0.75003 0.0
H1856 H 0.69567 0.4508 0.73187 0.0
H1857 H 0.68107 0.48023 0.74367 0.0
H1858 H 0.66125 0.4046 0.71546 0.0
H1859 H 0.73435 0.42434 0.74543 0.0
H1860 H 0.74947 0.44651 0.76896 0.0
H1861 H 0.69893 0.4458 0.80351 0.0
H1862 H 0.68363 0.42345 0.7803 0.0
H1863 H 0.72903 0.32503 0.70645 0.0
H1864 H 0.71583 0.35742 0.70383 0.0
H1865 H 0.69492 0.35301 0.76245 0.0
H1866 H 0.70756 0.32085 0.76513 0.0
H1867 H 0.71863 0.38695 0.753 0.0
H1868 H 0.66418 0.34852 0.73117 0.0
H1869 H 0.64829 0.32549 0.70911 0.0
H1870 H 0.66021 0.36227 0.66053 0.0
H1871 H 0.67642 0.3854 0.68231 0.0
C1872 C 0.64566 0.44845 0.75502 0.0
C1873 C 0.65544 0.46608 0.7539 0.0
C1874 C 0.65398 0.43172 0.74821 0.0
C1875 C 0.67224 0.43232 0.74026 0.0
C1876 C 0.68161 0.45005 0.7381 0.0
C1877 C 0.67328 0.46682 0.7449 0.0
C1878 C 0.68213 0.41414 0.7364 0.0
C1879 C 0.67396 0.40084 0.72343 0.0
C1880 C 0.69871 0.40924 0.74681 0.0
C1881 C 0.70781 0.42244 0.76102 0.0
C1882 C 0.72651 0.4289 0.75807 0.0
C1883 C 0.7351 0.44149 0.77135 0.0
C1884 C 0.72514 0.44762 0.78768 0.0
C1885 C 0.7066 0.4411 0.79082 0.0
C1886 C 0.69796 0.42848 0.7776 0.0
C1887 C 0.72144 0.33092 0.71868 0.0
C1888 C 0.71937 0.32038 0.736 0.0
C1889 C 0.71395 0.34937 0.71715 0.0
C1890 C 0.70457 0.35752 0.733 0.0
C1891 C 0.70222 0.34692 0.75011 0.0
C1892 C 0.70939 0.32849 0.75156 0.0
C1893 C 0.69756 0.37734 0.73236 0.0
C1894 C 0.70629 0.39094 0.74454 0.0
C1895 C 0.68147 0.38241 0.72135 0.0
C1896 C 0.67173 0.36854 0.7083 0.0
C1897 C 0.66359 0.35159 0.71575 0.0
C1898 C 0.65448 0.33854 0.70331 0.0
C1899 C 0.6533 0.34238 0.68342 0.0
C1900 C 0.66118 0.3593 0.67594 0.0
C1901 C 0.67032 0.37238 0.68832 0.0
H1902 H 0.64623 0.33227 0.67381 0.0
H1903 H 0.73181 0.45738 0.79793 0.0
H1904 H 0.98 0.81792 0.92341 0.0
H1905 H 0.96861 0.85026 0.92891 0.0
H1906 H 0.99167 0.86827 0.87379 0.0
H1907 H 0.00302 0.83563 0.86809 0.0
H1908 H 0.00529 0.88942 0.90345 0.0
H1909 H 0.94525 0.87361 0.88006 0.0
H1910 H 0.91622 0.85448 0.87409 0.0
H1911 H 0.9024 0.85716 0.93472 0.0
H1912 H 0.93149 0.87602 0.94116 0.0
H1913 H 0.9519 0.96708 0.9651 0.0
H1914 H 0.9523 0.94636 0.93636 0.0
H1915 H 0.99517 0.91166 0.96339 0.0
H1916 H 0.99498 0.93221 0.99198 0.0
H1917 H 0.94432 0.90811 0.93318 0.0
H1918 H 0.02681 0.89777 0.9306 0.0
H1919 H 0.05559 0.91752 0.93565 0.0
H1920 H 0.02406 0.96854 0.92416 0.0
H1921 H 0.99513 0.94909 0.91881 0.0
C1922 C 0.98228 0.82864 0.91226 0.0
C1923 C 0.99259 0.82438 0.89546 0.0
C1924 C 0.97558 0.84708 0.91531 0.0
C1925 C 0.97917 0.86164 0.90168 0.0
C1926 C 0.98863 0.85719 0.88439 0.0
C1927 C 0.99513 0.83859 0.88119 0.0
C1928 C 0.97592 0.88175 0.90741 0.0
C1929 C 0.99189 0.89373 0.90962 0.0
C1930 C 0.95824 0.88765 0.91475 0.0
C1931 C 0.94063 0.87627 0.91108 0.0
C1932 C 0.9361 0.87003 0.89216 0.0
C1933 C 0.91961 0.85924 0.88869 0.0
C1934 C 0.90747 0.85461 0.90401 0.0
C1935 C 0.9118 0.86078 0.92285 0.0
C1936 C 0.92828 0.87157 0.92641 0.0
C1937 C 0.96143 0.95503 0.96491 0.0
C1938 C 0.97342 0.95128 0.98086 0.0
C1939 C 0.96164 0.94326 0.94847 0.0
C1940 C 0.97397 0.92771 0.94767 0.0
C1941 C 0.98583 0.92387 0.96359 0.0
C1942 C 0.98561 0.93555 0.97999 0.0
C1943 C 0.9741 0.91465 0.93076 0.0
C1944 C 0.95755 0.90414 0.92641 0.0
C1945 C 0.99123 0.91018 0.92127 0.0
C1946 C 0.00875 0.92193 0.92421 0.0
C1947 C 0.02602 0.91318 0.92893 0.0
C1948 C 0.04238 0.92434 0.93193 0.0
C1949 C 0.04167 0.94427 0.93021 0.0
C1950 C 0.0246 0.9531 0.92549 0.0
C1951 C 0.00822 0.94201 0.92248 0.0
H1952 H 0.05434 0.95288 0.93256 0.0
H1953 H 0.89471 0.84625 0.90129 0.0
H1954 H 0.93905 0.23172 0.61825 0.0
H1955 H 0.90743 0.23089 0.6325 0.0
H1956 H 0.9321 0.23529 0.68982 0.0
H1957 H 0.96374 0.23542 0.67569 0.0
H1958 H 0.89741 0.21833 0.69124 0.0
H1959 H 0.92607 0.27514 0.66426 0.0
H1960 H 0.9419 0.29383 0.63846 0.0
H1961 H 0.89315 0.28642 0.60153 0.0
H1962 H 0.87718 0.26735 0.62703 0.0
H1963 H 0.83294 0.27479 0.74055 0.0
H1964 H 0.86251 0.26781 0.72383 0.0
H1965 H 0.83199 0.26152 0.66971 0.0
H1966 H 0.80236 0.26894 0.68626 0.0
H1967 H 0.86816 0.27757 0.66537 0.0
H1968 H 0.83832 0.22399 0.69912 0.0
H1969 H 0.82504 0.20916 0.72871 0.0
H1970 H 0.87931 0.21364 0.75684 0.0
H1971 H 0.89275 0.2292 0.72775 0.0
C1972 C 0.93773 0.23159 0.63393 0.0
C1973 C 0.95372 0.23418 0.64589 0.0
C1974 C 0.91968 0.23115 0.64205 0.0
C1975 C 0.9175 0.23379 0.66212 0.0
C1976 C 0.93352 0.23349 0.67426 0.0
C1977 C 0.95161 0.23357 0.66616 0.0
C1978 C 0.89938 0.24079 0.66989 0.0
C1979 C 0.89096 0.23124 0.68559 0.0
C1980 C 0.89117 0.25781 0.66263 0.0
C1981 C 0.90052 0.26966 0.64745 0.0
C1982 C 0.91877 0.27742 0.6506 0.0
C1983 C 0.92777 0.28807 0.63603 0.0
C1984 C 0.91855 0.29128 0.61835 0.0
C1985 C 0.90028 0.28389 0.61522 0.0
C1986 C 0.89125 0.27315 0.62972 0.0
C1987 C 0.83261 0.27248 0.72498 0.0
C1988 C 0.81534 0.27207 0.71474 0.0
C1989 C 0.84948 0.26842 0.71548 0.0
C1990 C 0.84924 0.26355 0.69572 0.0
C1991 C 0.83235 0.26503 0.68505 0.0
C1992 C 0.81546 0.26933 0.69451 0.0
C1993 C 0.86613 0.25509 0.68669 0.0
C1994 C 0.87436 0.26445 0.67079 0.0
C1995 C 0.87444 0.23821 0.69418 0.0
C1996 C 0.86651 0.22792 0.71128 0.0
C1997 C 0.8474 0.22192 0.71165 0.0
C1998 C 0.83983 0.21346 0.72836 0.0
C1999 C 0.85133 0.2105 0.74462 0.0
C2000 C 0.87042 0.21597 0.74422 0.0
C2001 C 0.87801 0.22466 0.72765 0.0
H2002 H 0.8455 0.20395 0.75753 0.0
H2003 H 0.92554 0.29952 0.60708 0.0
H2004 H 0.44455 0.2381 0.42405 0.0
H2005 H 0.43604 0.20663 0.43717 0.0
H2006 H 0.48206 0.18139 0.40542 0.0
H2007 H 0.4902 0.2127 0.3917 0.0
H2008 H 0.45343 0.15628 0.40865 0.0
H2009 H 0.48818 0.19926 0.45211 0.0
H2010 H 0.49292 0.2292 0.47071 0.0
H2011 H 0.44101 0.21859 0.50146 0.0
H2012 H 0.43586 0.18869 0.48284 0.0
H2013 H 0.49912 0.08944 0.46694 0.0
H2014 H 0.48832 0.11668 0.44806 0.0
H2015 H 0.44068 0.12312 0.48648 0.0
H2016 H 0.45142 0.09561 0.50564 0.0
H2017 H 0.46089 0.15673 0.4804 0.0
H2018 H 0.43202 0.10834 0.44152 0.0
H2019 H 0.42999 0.0779 0.42339 0.0
H2020 H 0.4732 0.09785 0.38431 0.0
H2021 H 0.47573 0.1283 0.40238 0.0
C2022 C 0.4526 0.22576 0.41955 0.0
C2023 C 0.46832 0.22789 0.40721 0.0
C2024 C 0.4477 0.2078 0.42704 0.0
C2025 C 0.45875 0.19178 0.4227 0.0
C2026 C 0.47341 0.19359 0.40905 0.0
C2027 C 0.4781 0.2115 0.40127 0.0
C2028 C 0.45683 0.17389 0.43415 0.0
C2029 C 0.455 0.15633 0.42433 0.0
C2030 C 0.4584 0.17401 0.45469 0.0
C2031 C 0.46152 0.19191 0.46593 0.0
C2032 C 0.47772 0.2034 0.46276 0.0
C2033 C 0.48049 0.22034 0.4733 0.0
C2034 C 0.46724 0.22583 0.48721 0.0
C2035 C 0.45123 0.21434 0.49064 0.0
C2036 C 0.44838 0.19741 0.4801 0.0
C2037 C 0.48629 0.09655 0.47141 0.0
C2038 C 0.47618 0.0904 0.48788 0.0
C2039 C 0.48003 0.11201 0.46045 0.0
C2040 C 0.46354 0.12169 0.46569 0.0
C2041 C 0.45335 0.11567 0.48211 0.0
C2042 C 0.45953 0.10002 0.49305 0.0
C2043 C 0.45816 0.13909 0.45485 0.0
C2044 C 0.45867 0.15661 0.46479 0.0
C2045 C 0.45566 0.13887 0.43443 0.0
C2046 C 0.45411 0.12061 0.42338 0.0
C2047 C 0.44118 0.1062 0.42914 0.0
C2048 C 0.43993 0.08894 0.41885 0.0
C2049 C 0.45147 0.08593 0.40272 0.0
C2050 C 0.46426 0.1002 0.39681 0.0
C2051 C 0.46558 0.11749 0.40705 0.0
H2052 H 0.45048 0.07256 0.39478 0.0
H2053 H 0.46941 0.23894 0.49537 0.0
H2054 H 0.54029 0.75043 0.15707 0.0
H2055 H 0.57045 0.74559 0.17372 0.0
H2056 H 0.59637 0.78992 0.13867 0.0
H2057 H 0.56638 0.79457 0.12164 0.0
H2058 H 0.61792 0.75938 0.13951 0.0
H2059 H 0.58562 0.79711 0.18693 0.0
H2060 H 0.55956 0.80571 0.2089 0.0
H2061 H 0.56641 0.75283 0.23992 0.0
H2062 H 0.59235 0.7438 0.21795 0.0
H2063 H 0.70061 0.77913 0.19564 0.0
H2064 H 0.6698 0.78071 0.17943 0.0
H2065 H 0.65184 0.72888 0.20851 0.0
H2066 H 0.68281 0.727 0.22466 0.0
H2067 H 0.62614 0.76097 0.21114 0.0
H2068 H 0.65999 0.72451 0.16382 0.0
H2069 H 0.68668 0.71738 0.1421 0.0
H2070 H 0.67739 0.76987 0.11111 0.0
H2071 H 0.6508 0.77746 0.13285 0.0
C2072 C 0.55235 0.7593 0.15303 0.0
C2073 C 0.55094 0.77285 0.13798 0.0
C2074 C 0.56958 0.75653 0.1626 0.0
C2075 C 0.58563 0.76747 0.1575 0.0
C2076 C 0.58416 0.78127 0.14277 0.0
C2077 C 0.567 0.78394 0.13309 0.0
C2078 C 0.60415 0.76405 0.16699 0.0
C2079 C 0.61975 0.75996 0.15516 0.0
C2080 C 0.60641 0.76431 0.18743 0.0
C2081 C 0.59079 0.76969 0.20065 0.0
C2082 C 0.58146 0.78724 0.19832 0.0
C2083 C 0.56673 0.79221 0.2108 0.0
C2084 C 0.56129 0.7798 0.22576 0.0
C2085 C 0.57061 0.76241 0.22831 0.0
C2086 C 0.58534 0.75737 0.21585 0.0
C2087 C 0.69017 0.76797 0.19848 0.0
C2088 C 0.6941 0.75293 0.21141 0.0
C2089 C 0.67262 0.76888 0.18918 0.0
C2090 C 0.65865 0.7549 0.1928 0.0
C2091 C 0.66252 0.73978 0.20558 0.0
C2092 C 0.68021 0.73868 0.21467 0.0
C2093 C 0.63981 0.75654 0.18363 0.0
C2094 C 0.6242 0.76029 0.1955 0.0
C2095 C 0.63756 0.75617 0.16323 0.0
C2096 C 0.65351 0.75163 0.15009 0.0
C2097 C 0.66375 0.73462 0.15249 0.0
C2098 C 0.67884 0.73048 0.14015 0.0
C2099 C 0.68376 0.74319 0.12526 0.0
C2100 C 0.67357 0.76005 0.12266 0.0
C2101 C 0.65848 0.76426 0.13498 0.0
H2102 H 0.69545 0.73996 0.11572 0.0
H2103 H 0.54989 0.78367 0.23541 0.0
H2104 H -0.00216 0.20478 0.60309 0.0
H2105 H 0.00923 0.17253 0.5972 0.0
H2106 H 0.0595 0.19578 0.57008 0.0
H2107 H 0.048 0.22838 0.57571 0.0
H2108 H 0.04493 0.16441 0.55076 0.0
H2109 H 0.06337 0.17947 0.6153 0.0
H2110 H 0.05939 0.19212 0.64847 0.0
H2111 H 0.01636 0.14956 0.65973 0.0
H2112 H 0.01983 0.13684 0.62653 0.0
H2113 H 0.06495 0.06631 0.54669 0.0
H2114 H 0.07227 0.0986 0.55851 0.0
H2115 H 0.01846 0.09992 0.58795 0.0
H2116 H 0.01112 0.06763 0.57652 0.0
H2117 H 0.0461 0.1205 0.60755 0.0
H2118 H 0.02143 0.1136 0.54078 0.0
H2119 H 0.02358 0.10115 0.5073 0.0
H2120 H 0.07793 0.1287 0.50063 0.0
H2121 H 0.07616 0.14111 0.53419 0.0
C2122 C 0.01123 0.20308 0.59569 0.0
C2123 C 0.02213 0.21909 0.59003 0.0
C2124 C 0.01779 0.18465 0.59247 0.0
C2125 C 0.03547 0.18186 0.58378 0.0
C2126 C 0.04594 0.19773 0.57706 0.0
C2127 C 0.0393 0.21628 0.58017 0.0
C2128 C 0.04271 0.1622 0.58189 0.0
C2129 C 0.04578 0.15492 0.56322 0.0
C2130 C 0.04376 0.14987 0.5982 0.0
C2131 C 0.04186 0.15721 0.61837 0.0
C2132 C 0.053 0.17284 0.62481 0.0
C2133 C 0.05083 0.18003 0.64363 0.0
C2134 C 0.03763 0.17165 0.6562 0.0
C2135 C 0.0266 0.15602 0.64999 0.0
C2136 C 0.02869 0.14879 0.63118 0.0
C2137 C 0.05488 0.07327 0.5561 0.0
C2138 C 0.0372 0.06466 0.56022 0.0
C2139 C 0.05913 0.09169 0.56287 0.0
C2140 C 0.04572 0.10173 0.57371 0.0
C2141 C 0.02895 0.09241 0.5795 0.0
C2142 C 0.02471 0.074 0.57281 0.0
C2143 C 0.04742 0.12266 0.57639 0.0
C2144 C 0.04604 0.13017 0.5952 0.0
C2145 C 0.04788 0.13522 0.56024 0.0
C2146 C 0.04876 0.12809 0.53999 0.0
C2147 C 0.03386 0.11692 0.53217 0.0
C2148 C 0.03501 0.10987 0.5132 0.0
C2149 C 0.05091 0.11409 0.50186 0.0
C2150 C 0.06565 0.12542 0.50944 0.0
C2151 C 0.06458 0.13246 0.52843 0.0
H2152 H 0.05178 0.1086 0.48717 0.0
H2153 H 0.03596 0.17725 0.67075 0.0
H2154 H 0.55708 0.24119 0.37737 0.0
H2155 H 0.58647 0.24022 0.35895 0.0
H2156 H 0.5551 0.24603 0.30546 0.0
H2157 H 0.5255 0.24711 0.32377 0.0
H2158 H 0.59273 0.22319 0.30509 0.0
H2159 H 0.56474 0.28453 0.32048 0.0
H2160 H 0.5487 0.3065 0.34298 0.0
H2161 H 0.5963 0.3044 0.38195 0.0
H2162 H 0.61243 0.28204 0.35986 0.0
H2163 H 0.67135 0.27027 0.25822 0.0
H2164 H 0.63841 0.26594 0.26889 0.0
H2165 H 0.65733 0.26268 0.32845 0.0
H2166 H 0.69021 0.26652 0.31789 0.0
H2167 H 0.62371 0.28547 0.32176 0.0
H2168 H 0.64921 0.22211 0.31052 0.0
H2169 H 0.66483 0.19687 0.29164 0.0
H2170 H 0.623 0.2021 0.24652 0.0
H2171 H 0.60696 0.2273 0.26536 0.0
C2172 C 0.55631 0.24148 0.36165 0.0
C2173 C 0.53908 0.24479 0.35203 0.0
C2174 C 0.57312 0.24089 0.35116 0.0
C2175 C 0.57286 0.2435 0.33096 0.0
C2176 C 0.55549 0.2441 0.32107 0.0
C2177 C 0.53862 0.24476 0.33158 0.0
C2178 C 0.59042 0.24955 0.32111 0.0
C2179 C 0.59933 0.23696 0.30834 0.0
C2180 C 0.59903 0.26745 0.32565 0.0
C2181 C 0.58972 0.28149 0.3386 0.0
C2182 C 0.57173 0.28865 0.33391 0.0
C2183 C 0.56262 0.30118 0.34659 0.0
C2184 C 0.57146 0.30681 0.36391 0.0
C2185 C 0.58946 0.3 0.36854 0.0
C2186 C 0.5986 0.28741 0.35594 0.0
C2187 C 0.6684 0.26914 0.27362 0.0
C2188 C 0.68326 0.26876 0.28727 0.0
C2189 C 0.64965 0.2665 0.27965 0.0
C2190 C 0.64558 0.26384 0.2994 0.0
C2191 C 0.66027 0.2647 0.31314 0.0
C2192 C 0.679 0.26693 0.3071 0.0
C2193 C 0.62618 0.25904 0.30583 0.0
C2194 C 0.61691 0.27192 0.31805 0.0
C2195 C 0.61729 0.24142 0.30081 0.0
C2196 C 0.62708 0.22673 0.28918 0.0
C2197 C 0.64347 0.21801 0.29647 0.0
C2198 C 0.65236 0.20367 0.28581 0.0
C2199 C 0.64504 0.19799 0.26778 0.0
C2200 C 0.62871 0.20657 0.26045 0.0
C2201 C 0.61967 0.22083 0.27114 0.0
H2202 H 0.65196 0.18686 0.25955 0.0
H2203 H 0.56437 0.31649 0.37372 0.0
H2204 H 0.49123 0.81821 0.09014 0.0
H2205 H 0.49155 0.853 0.08689 0.0
H2206 H 0.49365 0.85898 0.14931 0.0
H2207 H 0.49269 0.82402 0.15265 0.0
H2208 H 0.46867 0.88247 0.13532 0.0
H2209 H 0.53266 0.87035 0.12096 0.0
H2210 H 0.56008 0.85454 0.1061 0.0
H2211 H 0.5414 0.87208 0.04945 0.0
H2212 H 0.51366 0.88768 0.0639 0.0
H2213 H 0.49154 0.98247 0.09289 0.0
H2214 H 0.49376 0.95466 0.11475 0.0
H2215 H 0.46283 0.92015 0.0731 0.0
H2216 H 0.46074 0.9476 0.05129 0.0
H2217 H 0.50862 0.91564 0.0863 0.0
H2218 H 0.43962 0.91911 0.10391 0.0
H2219 H 0.41371 0.936 0.12038 0.0
H2220 H 0.44582 0.93677 0.17353 0.0
H2221 H 0.47202 0.92009 0.15725 0.0
C2222 C 0.49196 0.82692 0.10316 0.0
C2223 C 0.49193 0.81844 0.12163 0.0
C2224 C 0.49226 0.84682 0.10131 0.0
C2225 C 0.49295 0.85862 0.11787 0.0
C2226 C 0.49319 0.85016 0.13635 0.0
C2227 C 0.49267 0.83021 0.13822 0.0
C2228 C 0.49226 0.87972 0.11562 0.0
C2229 C 0.47771 0.88979 0.1249 0.0
C2230 C 0.50427 0.88948 0.10238 0.0
C2231 C 0.52101 0.88017 0.09356 0.0
C2232 C 0.53432 0.87074 0.10532 0.0
C2233 C 0.54993 0.86182 0.09696 0.0
C2234 C 0.55247 0.8623 0.07685 0.0
C2235 C 0.53942 0.87173 0.06504 0.0
C2236 C 0.52376 0.88064 0.07332 0.0
C2237 C 0.48444 0.96918 0.08889 0.0
C2238 C 0.47606 0.96703 0.07043 0.0
C2239 C 0.48578 0.95334 0.10132 0.0
C2240 C 0.47843 0.93549 0.09544 0.0
C2241 C 0.46842 0.93392 0.07789 0.0
C2242 C 0.46725 0.94957 0.06546 0.0
C2243 C 0.48438 0.91768 0.10498 0.0
C2244 C 0.50004 0.90833 0.09713 0.0
C2245 C 0.47361 0.90872 0.11964 0.0
C2246 C 0.45783 0.91862 0.12932 0.0
C2247 C 0.44123 0.92308 0.11904 0.0
C2248 C 0.42647 0.93255 0.12836 0.0
C2249 C 0.42815 0.93752 0.14797 0.0
C2250 C 0.44456 0.93296 0.15833 0.0
C2251 C 0.45935 0.92349 0.14907 0.0
H2252 H 0.41671 0.94486 0.15516 0.0
H2253 H 0.56457 0.85538 0.07041 0.0
H2254 H 0.97618 0.74173 0.8598 0.0
H2255 H 0.95179 0.72849 0.83819 0.0
H2256 H 0.90859 0.75563 0.87238 0.0
H2257 H 0.93282 0.76865 0.89427 0.0
H2258 H 0.8972 0.72025 0.86009 0.0
H2259 H 0.92727 0.77736 0.83195 0.0
H2260 H 0.95477 0.79588 0.81976 0.0
H2261 H 0.96605 0.75161 0.77814 0.0
H2262 H 0.93873 0.73274 0.79027 0.0
H2263 H 0.82471 0.75921 0.80684 0.0
H2264 H 0.85265 0.75074 0.82551 0.0
H2265 H 0.87351 0.71796 0.77711 0.0
H2266 H 0.84511 0.7263 0.75813 0.0
H2267 H 0.89961 0.74516 0.79258 0.0
H2268 H 0.86253 0.69336 0.81544 0.0
H2269 H 0.83399 0.67658 0.82752 0.0
H2270 H 0.83488 0.71148 0.87893 0.0
H2271 H 0.86324 0.7287 0.86705 0.0
C2272 C 0.96147 0.74478 0.86283 0.0
C2273 C 0.95645 0.75653 0.87859 0.0
C2274 C 0.94757 0.73713 0.85049 0.0
C2275 C 0.92843 0.74129 0.85355 0.0
C2276 C 0.9233 0.75223 0.86978 0.0
C2277 C 0.93718 0.75977 0.88221 0.0
C2278 C 0.91379 0.73584 0.83905 0.0
C2279 C 0.89771 0.72558 0.84529 0.0
C2280 C 0.91484 0.74216 0.81953 0.0
C2281 C 0.93114 0.75356 0.81216 0.0
C2282 C 0.9357 0.77154 0.82029 0.0
C2283 C 0.95124 0.7821 0.81338 0.0
C2284 C 0.96219 0.7749 0.79823 0.0
C2285 C 0.95758 0.75715 0.78991 0.0
C2286 C 0.94208 0.74652 0.79679 0.0
C2287 C 0.83512 0.75007 0.80014 0.0
C2288 C 0.8328 0.74353 0.78096 0.0
C2289 C 0.85101 0.74508 0.81092 0.0
C2290 C 0.86499 0.73354 0.80276 0.0
C2291 C 0.86272 0.72674 0.78368 0.0
C2292 C 0.84656 0.73152 0.77289 0.0
C2293 C 0.88262 0.73042 0.81392 0.0
C2294 C 0.89932 0.73911 0.80711 0.0
C2295 C 0.88207 0.72275 0.83294 0.0
C2296 C 0.86504 0.71236 0.84031 0.0
C2297 C 0.85659 0.69755 0.82928 0.0
C2298 C 0.84044 0.68795 0.8361 0.0
C2299 C 0.83262 0.69297 0.85398 0.0
C2300 C 0.84096 0.70759 0.86509 0.0
C2301 C 0.85711 0.71725 0.85833 0.0
H2302 H 0.82011 0.68552 0.85924 0.0
H2303 H 0.97421 0.78309 0.7929 0.0
H2304 H 0.95311 0.01486 0.83011 0.0
H2305 H 0.96319 0.02418 0.86271 0.0
H2306 H 0.9052 0.0358 0.87793 0.0
H2307 H 0.89504 0.02693 0.84504 0.0
H2308 H 0.92741 0.0648 0.88859 0.0
H2309 H 0.92858 0.99661 0.89762 0.0
H2310 H 0.93667 0.96294 0.89091 0.0
H2311 H 0.99593 0.97732 0.89431 0.0
H2312 H 0.98817 0.01104 0.90112 0.0
H2313 H 0.93243 0.05065 0.9904 0.0
H2314 H 0.92743 0.0574 0.95605 0.0
H2315 H 0.98781 0.05663 0.94671 0.0
H2316 H 0.99288 0.05016 0.98123 0.0
H2317 H 0.96775 0.0253 0.93153 0.0
H2318 H 0.96416 0.09332 0.92941 0.0
H2319 H 0.95373 0.12546 0.9393 0.0
H2320 H 0.89613 0.11009 0.92553 0.0
H2321 H 0.90615 0.07775 0.91583 0.0
C2322 C 0.94244 0.01909 0.84048 0.0
C2323 C 0.92328 0.02023 0.835 0.0
C2324 C 0.94823 0.02439 0.85913 0.0
C2325 C 0.93495 0.03069 0.87276 0.0
C2326 C 0.9157 0.0311 0.86759 0.0
C2327 C 0.90989 0.02587 0.84886 0.0
C2328 C 0.94131 0.03765 0.89208 0.0
C2329 C 0.93608 0.05611 0.8981 0.0
C2330 C 0.95307 0.02654 0.90421 0.0
C2331 C 0.9578 0.00638 0.89962 0.0
C2332 C 0.94333 0.99261 0.89675 0.0
C2333 C 0.94786 0.9735 0.89303 0.0
C2334 C 0.9668 0.96799 0.89214 0.0
C2335 C 0.98126 0.98159 0.89501 0.0
C2336 C 0.97681 0.00069 0.89885 0.0
C2337 C 0.94468 0.05309 0.98123 0.0
C2338 C 0.96299 0.04949 0.98826 0.0
C2339 C 0.94182 0.05698 0.96158 0.0
C2340 C 0.95724 0.05714 0.94881 0.0
C2341 C 0.97573 0.05649 0.95638 0.0
C2342 C 0.97862 0.05288 0.97613 0.0
C2343 C 0.95374 0.05239 0.92817 0.0
C2344 C 0.95941 0.0342 0.92189 0.0
C2345 C 0.94205 0.06359 0.9161 0.0
C2346 C 0.93592 0.08303 0.92199 0.0
C2347 C 0.94925 0.09672 0.92865 0.0
C2348 C 0.94341 0.115 0.93419 0.0
C2349 C 0.92428 0.1198 0.93307 0.0
C2350 C 0.91095 0.10635 0.92638 0.0
C2351 C 0.91671 0.08805 0.92083 0.0
H2352 H 0.91979 0.13396 0.93736 0.0
H2353 H 0.97027 0.95319 0.88928 0.0
H2354 H 0.73857 0.19669 0.52163 0.0
H2355 H 0.73135 0.21161 0.55285 0.0
H2356 H 0.74342 0.15855 0.58227 0.0
H2357 H 0.75072 0.14347 0.55121 0.0
H2358 H 0.70945 0.17602 0.59446 0.0
H2359 H 0.77545 0.19227 0.58331 0.0
H2360 H 0.80221 0.20589 0.56472 0.0
H2361 H 0.77592 0.26108 0.56497 0.0
H2362 H 0.74886 0.2477 0.58335 0.0
H2363 H 0.73037 0.20117 0.69188 0.0
H2364 H 0.7266 0.18949 0.65866 0.0
H2365 H 0.72219 0.2477 0.63804 0.0
H2366 H 0.72645 0.25951 0.67118 0.0
H2367 H 0.74876 0.23015 0.61944 0.0
H2368 H 0.68466 0.21529 0.63426 0.0
H2369 H 0.65773 0.20206 0.65284 0.0
H2370 H 0.67923 0.1452 0.64566 0.0
H2371 H 0.70645 0.1581 0.62727 0.0
C2372 C 0.73974 0.18819 0.53473 0.0
C2373 C 0.7453 0.1689 0.53393 0.0
C2374 C 0.73559 0.19674 0.55253 0.0
C2375 C 0.73684 0.18613 0.56978 0.0
C2376 C 0.7423 0.1669 0.56905 0.0
C2377 C 0.74662 0.15838 0.55131 0.0
C2378 C 0.73292 0.19517 0.5887 0.0
C2379 C 0.71807 0.18778 0.60006 0.0
C2380 C 0.74381 0.2109 0.59557 0.0
C2381 C 0.76003 0.21893 0.58448 0.0
C2382 C 0.77529 0.20727 0.57923 0.0
C2383 C 0.79053 0.21495 0.56877 0.0
C2384 C 0.79073 0.23432 0.56361 0.0
C2385 C 0.77572 0.24606 0.56894 0.0
C2386 C 0.76044 0.23844 0.57938 0.0
C2387 C 0.72813 0.21147 0.68035 0.0
C2388 C 0.72898 0.23126 0.68409 0.0
C2389 C 0.72587 0.20476 0.66135 0.0
C2390 C 0.72412 0.21773 0.64585 0.0
C2391 C 0.72363 0.23745 0.64977 0.0
C2392 C 0.72607 0.24417 0.66871 0.0
C2393 C 0.72538 0.21087 0.62554 0.0
C2394 C 0.73982 0.21862 0.61385 0.0
C2395 C 0.71402 0.19556 0.61837 0.0
C2396 C 0.6977 0.1877 0.6295 0.0
C2397 C 0.68374 0.19998 0.63678 0.0
C2398 C 0.6684 0.19253 0.64725 0.0
C2399 C 0.66679 0.1728 0.65046 0.0
C2400 C 0.6805 0.16048 0.64317 0.0
C2401 C 0.69588 0.16785 0.6327 0.0
H2402 H 0.6549 0.16706 0.65857 0.0
H2403 H 0.80255 0.24025 0.55552 0.0
H2404 H 0.63298 0.97789 0.33078 0.0
H2405 H 0.62389 0.97618 0.36509 0.0
H2406 H 0.56653 0.99058 0.34952 0.0
H2407 H 0.57543 0.9922 0.31535 0.0
H2408 H 0.60983 0.00349 0.38884 0.0
H2409 H 0.53601 0.96581 0.37627 0.0
H2410 H 0.52242 0.94046 0.35527 0.0
H2411 H 0.57771 0.91683 0.34721 0.0
H2412 H 0.59161 0.94184 0.3684 0.0
H2413 H 0.5414 0.03574 0.45141 0.0
H2414 H 0.56119 0.025 0.42475 0.0
H2415 H 0.55735 0.96682 0.4459 0.0
H2416 H 0.53679 0.97741 0.47228 0.0
H2417 H 0.55251 0.96673 0.40896 0.0
H2418 H 0.59973 0.99296 0.44979 0.0
H2419 H 0.61295 0.01697 0.4726 0.0
H2420 H 0.6141 0.05906 0.42712 0.0
H2421 H 0.60069 0.0354 0.40407 0.0
C2422 C 0.61843 0.98065 0.33471 0.0
C2423 C 0.60487 0.98515 0.32044 0.0
C2424 C 0.61329 0.97966 0.35427 0.0
C2425 C 0.59451 0.98297 0.35975 0.0
C2426 C 0.58103 0.98761 0.34551 0.0
C2427 C 0.58615 0.98866 0.32602 0.0
C2428 C 0.58882 0.98238 0.38036 0.0
C2429 C 0.59749 0.99526 0.3934 0.0
C2430 C 0.57322 0.97103 0.38648 0.0
C2431 C 0.56486 0.95579 0.37389 0.0
C2432 C 0.54526 0.95513 0.37014 0.0
C2433 C 0.5375 0.94083 0.35817 0.0
C2434 C 0.5492 0.92706 0.34989 0.0
C2435 C 0.56867 0.92753 0.35359 0.0
C2436 C 0.5765 0.94179 0.36556 0.0
C2437 C 0.54483 0.02067 0.45044 0.0
C2438 C 0.53755 0.00741 0.46388 0.0
C2439 C 0.5563 0.01457 0.43531 0.0
C2440 C 0.56113 0.99517 0.4336 0.0
C2441 C 0.5539 0.98187 0.44703 0.0
C2442 C 0.54213 0.98793 0.46203 0.0
C2443 C 0.57268 0.98884 0.41695 0.0
C2444 C 0.5652 0.97456 0.40469 0.0
C2445 C 0.58972 -0.00154 0.41182 0.0
C2446 C 0.59909 0.0124 0.42521 0.0
C2447 C 0.60284 0.00733 0.44463 0.0
C2448 C 0.61032 0.02088 0.45761 0.0
C2449 C 0.61418 0.03955 0.45133 0.0
C2450 C 0.61101 0.0446 0.43196 0.0
C2451 C 0.60353 0.0311 0.41891 0.0
H2452 H 0.61954 0.05014 0.46151 0.0
H2453 H 0.54317 0.91601 0.34062 0.0
H2454 H 0.78711 0.81714 0.03728 0.0
H2455 H 0.80354 0.81208 0.06809 0.0
H2456 H 0.76225 0.8467 0.09742 0.0
H2457 H 0.74601 0.85227 0.06663 0.0
H2458 H 0.79725 0.85345 0.11184 0.0
H2459 H 0.75824 0.79712 0.09535 0.0
H2460 H 0.74869 0.76985 0.0745 0.0
H2461 H 0.80521 0.74791 0.0773 0.0
H2462 H 0.81513 0.77519 0.09802 0.0
H2463 H 0.76781 0.81728 0.19962 0.0
H2464 H 0.77716 0.83073 0.16859 0.0
H2465 H 0.82158 0.78902 0.16387 0.0
H2466 H 0.81198 0.77514 0.19504 0.0
H2467 H 0.79796 0.78606 0.13474 0.0
H2468 H 0.83221 0.83793 0.16157 0.0
H2469 H 0.83969 0.86465 0.18387 0.0
H2470 H 0.79103 0.89504 0.16333 0.0
H2471 H 0.78306 0.86841 0.14113 0.0
C2472 C 0.78148 0.82367 0.05029 0.0
C2473 C 0.76501 0.83482 0.04956 0.0
C2474 C 0.79099 0.82086 0.06785 0.0
C2475 C 0.78401 0.82885 0.08505 0.0
C2476 C 0.76791 0.84044 0.08428 0.0
C2477 C 0.75851 0.84344 0.06671 0.0
C2478 C 0.79229 0.82389 0.10415 0.0
C2479 C 0.79751 0.83874 0.11694 0.0
C2480 C 0.79342 0.80464 0.11043 0.0
C2481 C 0.78748 0.7883 0.09797 0.0
C2482 C 0.76865 0.78655 0.09139 0.0
C2483 C 0.76317 0.77109 0.07962 0.0
C2484 C 0.77635 0.7572 0.07452 0.0
C2485 C 0.79503 0.75871 0.08122 0.0
C2486 C 0.80059 0.77416 0.09297 0.0
C2487 C 0.7799 0.81125 0.19227 0.0
C2488 C 0.78887 0.79486 0.19955 0.0
C2489 C 0.78543 0.81915 0.17459 0.0
C2490 C 0.80012 0.81092 0.16388 0.0
C2491 C 0.81023 0.79561 0.17194 0.0
C2492 C 0.8047 0.78768 0.18972 0.0
C2493 C 0.80185 0.8157 0.14299 0.0
C2494 C 0.79853 0.80079 0.12966 0.0
C2495 C 0.80229 0.8349 0.13637 0.0
C2496 C 0.80703 0.8511 0.14964 0.0
C2497 C 0.82303 0.85025 0.16187 0.0
C2498 C 0.82737 0.86541 0.17449 0.0
C2499 C 0.81585 0.88154 0.17501 0.0
C2500 C 0.79997 0.88256 0.16289 0.0
C2501 C 0.79556 0.86745 0.15024 0.0
H2502 H 0.81922 0.89324 0.18481 0.0
H2503 H 0.77208 0.74523 0.06541 0.0
H2504 H 0.9252 0.02423 0.72237 0.0
H2505 H 0.93205 0.01612 0.68868 0.0
H2506 H 0.98185 0.9857 0.70698 0.0
H2507 H 0.97529 0.99382 0.74075 0.0
H2508 H 0.98683 0.00535 0.67233 0.0
H2509 H 0.94251 0.96208 0.70163 0.0
H2510 H 0.91368 0.9542 0.72019 0.0
H2511 H 0.87922 0.97724 0.6745 0.0
H2512 H 0.90789 0.98612 0.65603 0.0
H2513 H 0.99727 0.95857 0.58519 0.0
H2514 H 0.98709 0.95593 0.61904 0.0
H2515 H 0.94255 0.99631 0.60806 0.0
H2516 H 0.95287 -0.00069 0.57436 0.0
H2517 H 0.93566 0.96722 0.64013 0.0
H2518 H 0.97949 0.01748 0.61662 0.0
H2519 H 0.00771 0.02734 0.59788 0.0
H2520 H 0.04233 0.99048 0.63273 0.0
H2521 H 0.01418 0.98017 0.65144 0.0
C2522 C 0.93788 0.01621 0.71925 0.0
C2523 C 0.94949 0.00934 0.73432 0.0
C2524 C 0.94169 0.0115 0.69999 0.0
C2525 C 0.95713 -0.00013 0.69552 0.0
C2526 C 0.96973 0.9945 0.71025 0.0
C2527 C 0.96593 -0.00083 0.72954 0.0
C2528 C 0.95928 0.99215 0.67572 0.0
C2529 C 0.97579 0.99673 0.66544 0.0
C2530 C 0.94476 0.98097 0.66677 0.0
C2531 C 0.92742 0.97495 0.67749 0.0
C2532 C 0.92881 0.96563 0.69558 0.0
C2533 C 0.91248 0.961 0.70611 0.0
C2534 C 0.89463 0.96516 0.69851 0.0
C2535 C 0.89307 0.97402 0.68037 0.0
C2536 C 0.90936 0.97892 0.66989 0.0
C2537 C 0.98475 0.96616 0.58976 0.0
C2538 C 0.97607 0.97946 0.57741 0.0
C2539 C 0.97893 0.9646 0.60907 0.0
C2540 C 0.96428 0.97615 0.61598 0.0
C2541 C 0.95388 0.9873 0.60292 0.0
C2542 C 0.95988 0.98911 0.58374 0.0
C2543 C 0.9631 0.98058 0.63686 0.0
C2544 C 0.94679 0.97549 0.64726 0.0
C2545 C 0.97775 0.9913 0.64603 0.0
C2546 C 0.99476 -0.00207 0.63527 0.0
C2547 C 0.99311 0.01142 0.6202 0.0
C2548 C 0.00907 0.01708 0.60959 0.0
C2549 C 0.02679 0.00951 0.61409 0.0
C2550 C 0.02859 0.99631 0.62925 0.0
C2551 C 0.01264 0.99055 0.63986 0.0
H2552 H 0.03914 0.01389 0.60585 0.0
H2553 H 0.88201 0.9615 0.70667 0.0
H2554 H 0.79547 0.11146 0.4385 0.0
H2555 H 0.80398 0.12167 0.4054 0.0
H2556 H 0.7571 0.16081 0.40526 0.0
H2557 H 0.74894 0.15108 0.43821 0.0
H2558 H 0.76382 0.14241 0.36856 0.0
H2559 H 0.79766 0.17686 0.42289 0.0
H2560 H 0.81975 0.17609 0.45078 0.0
H2561 H 0.86227 0.15083 0.41475 0.0
H2562 H 0.8403 0.1513 0.38671 0.0
H2563 H 0.75727 0.23217 0.34187 0.0
H2564 H 0.76705 0.20698 0.36418 0.0
H2565 H 0.81457 0.1942 0.32739 0.0
H2566 H 0.8051 0.21988 0.30512 0.0
H2567 H 0.8177 0.18872 0.37333 0.0
H2568 H 0.78407 0.16795 0.31582 0.0
H2569 H 0.76015 0.17311 0.29016 0.0
H2570 H 0.71614 0.1734 0.33301 0.0
H2571 H 0.73981 0.16865 0.35898 0.0
C2572 C 0.78671 0.12182 0.43108 0.0
C2573 C 0.77169 0.1307 0.44079 0.0
C2574 C 0.79157 0.1276 0.41227 0.0
C2575 C 0.78116 0.14197 0.40301 0.0
C2576 C 0.76522 0.1496 0.41217 0.0
C2577 C 0.76063 0.14415 0.431 0.0
C2578 C 0.78809 0.15159 0.38534 0.0
C2579 C 0.77597 0.15209 0.3692 0.0
C2580 C 0.80412 0.16396 0.38612 0.0
C2581 C 0.81734 0.16395 0.40283 0.0
C2582 C 0.8117 0.17108 0.42098 0.0
C2583 C 0.82419 0.1707 0.43679 0.0
C2584 C 0.84239 0.16337 0.43455 0.0
C2585 C 0.84816 0.15647 0.41647 0.0
C2586 C 0.8357 0.15678 0.40062 0.0
C2587 C 0.77023 0.22454 0.33896 0.0
C2588 C 0.78029 0.22768 0.32173 0.0
C2589 C 0.77582 0.2102 0.35168 0.0
C2590 C 0.79127 0.19861 0.34711 0.0
C2591 C 0.8026 0.20306 0.33105 0.0
C2592 C 0.79717 0.2177 0.3184 0.0
C2593 C 0.79287 0.18009 0.35714 0.0
C2594 C 0.80644 0.17809 0.37184 0.0
C2595 C 0.77817 0.16626 0.355 0.0
C2596 C 0.76373 0.16791 0.33934 0.0
C2597 C 0.76929 0.16914 0.31978 0.0
C2598 C 0.7558 0.17209 0.30519 0.0
C2599 C 0.73668 0.17364 0.30999 0.0
C2600 C 0.73098 0.1722 0.32935 0.0
C2601 C 0.74442 0.16933 0.344 0.0
H2602 H 0.72627 0.17583 0.29872 0.0
H2603 H 0.85204 0.16308 0.44681 0.0
H2604 H 0.55769 0.02506 0.22754 0.0
H2605 H 0.55095 0.03523 0.19432 0.0
H2606 H 0.60403 0.01177 0.17534 0.0
H2607 H 0.61076 0.00118 0.20839 0.0
H2608 H 0.56941 0.06006 0.17126 0.0
H2609 H 0.59906 0.99566 0.12873 0.0
H2610 H 0.60369 0.96086 0.13266 0.0
H2611 H 0.55772 0.95819 0.17329 0.0
H2612 H 0.55267 0.9929 0.16941 0.0
H2613 H 0.56277 0.03914 0.05809 0.0
H2614 H 0.5798 0.04057 0.089 0.0
H2615 H 0.52855 0.05737 0.11799 0.0
H2616 H 0.5114 0.05598 0.08721 0.0
H2617 H 0.56759 0.01456 0.11588 0.0
H2618 H 0.53982 0.07894 0.16116 0.0
H2619 H 0.53331 0.1133 0.15663 0.0
H2620 H 0.57296 0.11579 0.10953 0.0
H2621 H 0.57993 0.08154 0.11394 0.0
C2622 C 0.56787 0.02187 0.21628 0.0
C2623 C 0.58474 0.01223 0.22065 0.0
C2624 C 0.56404 0.02783 0.19733 0.0
C2625 C 0.57698 0.02425 0.18238 0.0
C2626 C 0.59375 0.0145 0.18663 0.0
C2627 C 0.59755 0.00843 0.20555 0.0
C2628 C 0.57283 0.03068 0.16235 0.0
C2629 C 0.56887 0.05012 0.15913 0.0
C2630 C 0.57275 0.0178 0.14648 0.0
C2631 C 0.57568 0.99692 0.14898 0.0
C2632 C 0.58994 0.98763 0.1385 0.0
C2633 C 0.59263 0.96793 0.14071 0.0
C2634 C 0.58106 0.95734 0.15329 0.0
C2635 C 0.56674 0.96643 0.16363 0.0
C2636 C 0.56398 0.98612 0.16146 0.0
C2637 C 0.55527 0.04388 0.07089 0.0
C2638 C 0.53562 0.04698 0.07031 0.0
C2639 C 0.56504 0.04465 0.08855 0.0
C2640 C 0.55538 0.04885 0.10577 0.0
C2641 C 0.5363 0.05418 0.10484 0.0
C2642 C 0.52648 0.05327 0.08723 0.0
C2643 C 0.5638 0.0439 0.12478 0.0
C2644 C 0.56851 0.02465 0.12788 0.0
C2645 C 0.56434 0.05692 0.14051 0.0
C2646 C 0.56029 0.07759 0.13781 0.0
C2647 C 0.54722 0.08683 0.14989 0.0
C2648 C 0.54343 0.10629 0.14733 0.0
C2649 C 0.55267 0.11671 0.13277 0.0
C2650 C 0.56575 0.10769 0.12076 0.0
C2651 C 0.5696 0.08823 0.12326 0.0
H2652 H 0.54972 0.13178 0.13081 0.0
H2653 H 0.58316 0.94209 0.15497 0.0
H2654 H 0.72899 0.81883 0.96201 0.0
H2655 H 0.72696 0.80999 0.92781 0.0
H2656 H 0.69849 0.86297 0.91512 0.0
H2657 H 0.70087 0.87215 0.94942 0.0
H2658 H 0.69999 0.80428 0.90101 0.0
H2659 H 0.71637 0.87945 0.87177 0.0
H2660 H 0.73002 0.91035 0.88287 0.0
H2661 H 0.76481 0.88089 0.92428 0.0
H2662 H 0.75156 0.84984 0.91321 0.0
H2663 H 0.71513 0.79073 0.79939 0.0
H2664 H 0.70228 0.80506 0.82894 0.0
H2665 H 0.75904 0.81831 0.84877 0.0
H2666 H 0.77193 0.80451 0.81926 0.0
H2667 H 0.7363 0.84704 0.85673 0.0
H2668 H 0.73491 0.77754 0.86358 0.0
H2669 H 0.72518 0.74474 0.85409 0.0
H2670 H 0.66667 0.75978 0.86 0.0
H2671 H 0.67608 0.79276 0.86931 0.0
C2672 C 0.72212 0.82853 0.95199 0.0
C2673 C 0.71538 0.84631 0.95827 0.0
C2674 C 0.72083 0.82338 0.93248 0.0
C2675 C 0.71273 0.83591 0.91893 0.0
C2676 C 0.70497 0.85321 0.92535 0.0
C2677 C 0.70638 0.85843 0.9449 0.0
C2678 C 0.71438 0.83154 0.89801 0.0
C2679 C 0.70764 0.81376 0.89121 0.0
C2680 C 0.72448 0.84386 0.8853 0.0
C2681 C 0.73278 0.8624 0.89184 0.0
C2682 C 0.72696 0.8796 0.8832 0.0
C2683 C 0.73464 0.89712 0.88948 0.0
C2684 C 0.74822 0.89759 0.90432 0.0
C2685 C 0.75424 0.88052 0.91283 0.0
C2686 C 0.74665 0.86296 0.90657 0.0
C2687 C 0.72485 0.79682 0.81 0.0
C2688 C 0.74457 0.79633 0.80708 0.0
C2689 C 0.71748 0.80501 0.82684 0.0
C2690 C 0.72972 0.81261 0.84108 0.0
C2691 C 0.74934 0.81261 0.83791 0.0
C2692 C 0.7567 0.80459 0.82107 0.0
C2693 C 0.72248 0.8195 0.85992 0.0
C2694 C 0.72808 0.83782 0.8663 0.0
C2695 C 0.71183 0.80743 0.87241 0.0
C2696 C 0.70618 0.78764 0.86689 0.0
C2697 C 0.71997 0.77387 0.86271 0.0
C2698 C 0.71451 0.75526 0.85739 0.0
C2699 C 0.69531 0.7502 0.85637 0.0
C2700 C 0.68153 0.76374 0.86074 0.0
C2701 C 0.68691 0.78238 0.86604 0.0
H2702 H 0.69112 0.73578 0.85225 0.0
H2703 H 0.75411 0.91117 0.90918 0.0
H2704 H 0.80301 0.86383 0.97475 0.0
H2705 H 0.83043 0.88381 0.98358 0.0
H2706 H 0.79321 0.9274 0.00519 0.0
H2707 H 0.76575 0.90768 0.99639 0.0
H2708 H 0.84445 0.92166 0.9781 0.0
H2709 H 0.80742 0.93613 0.05186 0.0
H2710 H 0.78345 0.92052 0.07278 0.0
H2711 H 0.79751 0.86559 0.04906 0.0
H2712 H 0.82171 0.88081 0.02823 0.0
H2713 H 0.89376 0.99478 0.02347 0.0
H2714 H 0.86626 0.97548 0.01378 0.0
H2715 H 0.8844 0.92994 0.05167 0.0
H2716 H 0.912 0.94944 0.06167 0.0
H2717 H 0.84533 0.93233 0.04952 0.0
H2718 H 0.89748 0.92792 0.00654 0.0
H2719 H 0.92354 0.93954 0.9857 0.0
H2720 H 0.88352 0.96744 0.94841 0.0
H2721 H 0.85723 0.95627 0.96922 0.0
C2722 C 0.80061 0.87795 0.98073 0.0
C2723 C 0.78219 0.88397 0.9853 0.0
C2724 C 0.81632 0.88932 0.98581 0.0
C2725 C 0.81376 0.90677 0.99551 0.0
C2726 C 0.79541 0.91376 -0.00195 0.0
C2727 C 0.77974 0.90248 0.99295 0.0
C2728 C 0.82994 0.91662 0.00507 0.0
C2729 C 0.84466 0.92406 0.99368 0.0
C2730 C 0.83052 0.91896 0.02552 0.0
C2731 C 0.81625 0.90966 0.03835 0.0
C2732 C 0.80545 0.92071 0.05118 0.0
C2733 C 0.79181 0.91193 0.06301 0.0
C2734 C 0.78891 0.89208 0.0622 0.0
C2735 C 0.7997 0.88096 0.04962 0.0
C2736 C 0.81336 0.88967 0.03778 0.0
C2737 C 0.89156 0.9809 0.03022 0.0
C2738 C 0.90505 0.97348 0.04317 0.0
C2739 C 0.87593 0.96985 0.02458 0.0
C2740 C 0.87365 0.95111 0.0316 0.0
C2741 C 0.88606 0.94434 0.04598 0.0
C2742 C 0.90172 0.95551 0.05178 0.0
C2743 C 0.85942 0.9382 0.02243 0.0
C2744 C 0.84513 0.93001 0.03393 0.0
C2745 C 0.8596 0.9346 0.00214 0.0
C2746 C 0.87538 0.94138 0.98956 0.0
C2747 C 0.89424 0.93668 0.994 0.0
C2748 C 0.90905 0.94316 0.98217 0.0
C2749 C 0.90518 0.95424 0.96576 0.0
C2750 C 0.88649 0.95886 0.96114 0.0
C2751 C 0.87163 0.95245 0.97294 0.0
H2752 H 0.91665 0.95921 0.95658 0.0
H2753 H 0.77834 0.88532 0.07136 0.0
H2754 H 0.33552 0.66465 -0.00239 0.0
H2755 H 0.36534 0.64733 -0.00119 0.0
H2756 H 0.34075 0.60673 0.03897 0.0
H2757 H 0.31082 0.62394 0.03786 0.0
H2758 H 0.38068 0.61385 0.04466 0.0
H2759 H 0.33516 0.59763 0.99355 0.0
H2760 H 0.31428 0.60668 0.9663 0.0
H2761 H 0.3623 0.62847 0.93479 0.0
H2762 H 0.38343 0.61984 0.96204 0.0
H2763 H 0.42103 0.52546 0.02916 0.0
H2764 H 0.39758 0.55081 0.02929 0.0
H2765 H 0.4287 0.58104 0.98476 0.0
H2766 H 0.45227 0.55547 0.98437 0.0
H2767 H 0.38921 0.58321 0.98013 0.0
H2768 H 0.43561 0.5938 0.0294 0.0
H2769 H 0.45601 0.58448 0.05684 0.0
H2770 H 0.40698 0.57428 0.09219 0.0
H2771 H 0.38618 0.58283 0.06473 0.0
C2772 C 0.33662 0.65242 0.00723 0.0
C2773 C 0.3207 0.64538 0.01732 0.0
C2774 C 0.35369 0.64255 0.00787 0.0
C2775 C 0.35505 0.62556 0.01864 0.0
C2776 C 0.3399 0.61978 0.03049 0.0
C2777 C 0.32279 0.62961 0.02981 0.0
C2778 C 0.37076 0.61222 0.01511 0.0
C2779 C 0.38258 0.60712 0.0306 0.0
C2780 C 0.37339 0.6038 0.99659 0.0
C2781 C 0.36084 0.60826 0.97989 0.0
C2782 C 0.34125 0.60441 0.98084 0.0
C2783 C 0.32937 0.60948 0.96541 0.0
C2784 C 0.33696 0.61818 0.94884 0.0
C2785 C 0.35645 0.62175 0.94764 0.0
C2786 C 0.36838 0.61677 0.96307 0.0
C2787 C 0.42273 0.53732 0.01912 0.0
C2788 C 0.43859 0.53858 0.00689 0.0
C2789 C 0.40935 0.55181 0.01927 0.0
C2790 C 0.41168 0.56798 0.00737 0.0
C2791 C 0.42675 0.56871 0.99414 0.0
C2792 C 0.44016 0.55407 0.99389 0.0
C2793 C 0.39894 0.58449 0.00982 0.0
C2794 C 0.38762 0.59018 0.99412 0.0
C2795 C 0.39683 0.59349 0.02815 0.0
C2796 C 0.4093 0.58884 0.04491 0.0
C2797 C 0.42915 0.58944 0.04297 0.0
C2798 C 0.4408 0.5843 0.05853 0.0
C2799 C 0.43282 0.57885 0.07626 0.0
C2800 C 0.41314 0.57851 0.07845 0.0
C2801 C 0.40141 0.58348 0.06287 0.0
H2802 H 0.44188 0.5749 0.08829 0.0
H2803 H 0.32773 0.62213 0.93693 0.0
H2804 H 0.10452 0.57187 0.76626 0.0
H2805 H 0.12331 0.59621 0.74909 0.0
H2806 H 0.17306 0.56138 0.75516 0.0
H2807 H 0.15454 0.5372 0.77251 0.0
H2808 H 0.18143 0.59782 0.76162 0.0
H2809 H 0.14796 0.5622 0.71291 0.0
H2810 H 0.12056 0.54788 0.6956 0.0
H2811 H 0.09783 0.60388 0.68594 0.0
H2812 H 0.12486 0.61853 0.70354 0.0
H2813 H 0.23555 0.65732 0.70347 0.0
H2814 H 0.21828 0.6268 0.707 0.0
H2815 H 0.16572 0.65732 0.71157 0.0
H2816 H 0.18288 0.68768 0.70809 0.0
H2817 H 0.16092 0.61973 0.69629 0.0
H2818 H 0.18951 0.65276 0.75287 0.0
H2819 H 0.21673 0.66784 0.76978 0.0
H2820 H 0.2487 0.61633 0.76285 0.0
H2821 H 0.22151 0.60089 0.74606 0.0
C2822 C 0.11954 0.56959 0.76432 0.0
C2823 C 0.128 0.55254 0.77067 0.0
C2824 C 0.1302 0.58338 0.75425 0.0
C2825 C 0.14946 0.58034 0.7504 0.0
C2826 C 0.15816 0.5639 0.75776 0.0
C2827 C 0.14755 0.55012 0.76775 0.0
C2828 C 0.16064 0.59431 0.7388 0.0
C2829 C 0.17709 0.60227 0.74718 0.0
C2830 C 0.15491 0.6003 0.72 0.0
C2831 C 0.13839 0.59147 0.70974 0.0
C2832 C 0.13701 0.57146 0.70731 0.0
C2833 C 0.12156 0.56328 0.6974 0.0
C2834 C 0.10746 0.57497 0.68971 0.0
C2835 C 0.10876 0.59485 0.69193 0.0
C2836 C 0.12414 0.60309 0.70188 0.0
C2837 C 0.22022 0.6574 0.7041 0.0
C2838 C 0.2105 0.67475 0.7057 0.0
C2839 C 0.21038 0.63999 0.70627 0.0
C2840 C 0.1908 0.63989 0.70998 0.0
C2841 C 0.18082 0.65709 0.70879 0.0
C2842 C 0.19063 0.67443 0.70679 0.0
C2843 C 0.18147 0.62313 0.71922 0.0
C2844 C 0.16535 0.61482 0.71053 0.0
C2845 C 0.18742 0.6167 0.73773 0.0
C2846 C 0.20359 0.62575 0.74816 0.0
C2847 C 0.20236 0.64468 0.75498 0.0
C2848 C 0.21776 0.65327 0.76456 0.0
C2849 C 0.23446 0.64307 0.76737 0.0
C2850 C 0.23576 0.62422 0.76065 0.0
C2851 C 0.22033 0.6155 0.75121 0.0
H2852 H 0.24639 0.64972 0.77478 0.0
H2853 H 0.09553 0.56865 0.682 0.0
H2854 H 0.17051 0.3524 0.51418 0.0
H2855 H 0.14027 0.36803 0.51946 0.0
H2856 H 0.16869 0.41367 0.55065 0.0
H2857 H 0.19918 0.39837 0.54506 0.0
H2858 H 0.12324 0.39929 0.55937 0.0
H2859 H 0.17006 0.43048 0.51454 0.0
H2860 H 0.19513 0.42744 0.48987 0.0
H2861 H 0.158 0.39262 0.45458 0.0
H2862 H 0.13281 0.39525 0.47926 0.0
H2863 H 0.07946 0.48683 0.50788 0.0
H2864 H 0.10611 0.46567 0.51414 0.0
H2865 H 0.06743 0.41799 0.52212 0.0
H2866 H 0.04065 0.439 0.51585 0.0
H2867 H 0.11803 0.43317 0.49608 0.0
H2868 H 0.08653 0.39083 0.56171 0.0
H2869 H 0.0632 0.39555 0.58786 0.0
H2870 H 0.07071 0.45651 0.5836 0.0
H2871 H 0.09459 0.45224 0.55801 0.0
C2872 C 0.1703 0.36531 0.52292 0.0
C2873 C 0.18725 0.37444 0.52878 0.0
C2874 C 0.15296 0.37416 0.526 0.0
C2875 C 0.15237 0.39203 0.53527 0.0
C2876 C 0.16894 0.39981 0.54354 0.0
C2877 C 0.18635 0.39111 0.54022 0.0
C2878 C 0.13611 0.40456 0.53157 0.0
C2879 C 0.12193 0.40665 0.54556 0.0
C2880 C 0.13475 0.41436 0.51368 0.0
C2881 C 0.14967 0.41295 0.49873 0.0
C2882 C 0.16731 0.4221 0.50155 0.0
C2883 C 0.18153 0.42045 0.48759 0.0
C2884 C 0.17816 0.40985 0.47067 0.0
C2885 C 0.16058 0.40083 0.4677 0.0
C2886 C 0.14634 0.40238 0.48167 0.0
C2887 C 0.07661 0.4718 0.51071 0.0
C2888 C 0.05792 0.46463 0.51142 0.0
C2889 C 0.09185 0.45974 0.51432 0.0
C2890 C 0.08867 0.44038 0.5189 0.0
C2891 C 0.07012 0.43298 0.51889 0.0
C2892 C 0.05486 0.44499 0.51513 0.0
C2893 C 0.10484 0.42801 0.52384 0.0
C2894 C 0.11909 0.42583 0.50994 0.0
C2895 C 0.1063 0.41849 0.542 0.0
C2896 C 0.09215 0.4212 0.55765 0.0
C2897 C 0.08326 0.40525 0.56638 0.0
C2898 C 0.06993 0.40784 0.58111 0.0
C2899 C 0.06531 0.42629 0.58721 0.0
C2900 C 0.07419 0.44222 0.57876 0.0
C2901 C 0.08764 0.43972 0.56415 0.0
H2902 H 0.05493 0.42823 0.59855 0.0
H2903 H 0.18916 0.40869 0.45984 0.0
H2904 H 0.91164 0.93609 0.78809 0.0
H2905 H 0.89184 0.91078 0.77348 0.0
H2906 H 0.85963 0.95349 0.74286 0.0
H2907 H 0.87881 0.97871 0.75773 0.0
H2908 H 0.83662 0.92948 0.75838 0.0
H2909 H 0.89081 0.92337 0.71798 0.0
H2910 H 0.92467 0.91997 0.70992 0.0
H2911 H 0.92616 0.8665 0.7407 0.0
H2912 H 0.89237 0.86961 0.749 0.0
H2913 H 0.81007 0.83224 0.70549 0.0
H2914 H 0.82811 0.8628 0.70588 0.0
H2915 H 0.81947 0.86722 0.76773 0.0
H2916 H 0.80178 0.83718 0.76748 0.0
H2917 H 0.86161 0.87077 0.72745 0.0
H2918 H 0.81221 0.91255 0.77984 0.0
H2919 H 0.77798 0.91629 0.78547 0.0
H2920 H 0.76627 0.90038 0.72631 0.0
H2921 H 0.80044 0.89682 0.72022 0.0
C2922 C 0.90029 0.94007 0.77832 0.0
C2923 C 0.89668 0.95944 0.77432 0.0
C2924 C 0.88912 0.92559 0.76978 0.0
C2925 C 0.87437 0.93023 0.75686 0.0
C2926 C 0.87088 0.94954 0.75279 0.0
C2927 C 0.88184 0.96397 0.76144 0.0
C2928 C 0.86171 0.91509 0.74864 0.0
C2929 C 0.84211 0.91675 0.75145 0.0
C2930 C 0.86876 0.8987 0.73906 0.0
C2931 C 0.88911 0.89682 0.73423 0.0
C2932 C 0.89841 0.91098 0.72315 0.0
C2933 C 0.91757 0.90908 0.71851 0.0
C2934 C 0.92756 0.89308 0.72486 0.0
C2935 C 0.9184 0.8789 0.7358 0.0
C2936 C 0.89924 0.88069 0.74043 0.0
C2937 C 0.81185 0.83994 0.71905 0.0
C2938 C 0.80464 0.83231 0.73646 0.0
C2939 C 0.82219 0.85728 0.71928 0.0
C2940 C 0.82499 0.86728 0.73682 0.0
C2941 C 0.81731 0.85986 0.75401 0.0
C2942 C 0.80728 0.8426 0.75384 0.0
C2943 C 0.83675 0.88495 0.73795 0.0
C2944 C 0.85616 0.88375 0.73394 0.0
C2945 C 0.82952 0.90195 0.74611 0.0
C2946 C 0.80892 0.90434 0.7496 0.0
C2947 C 0.80235 0.90998 0.76798 0.0
C2948 C 0.78295 0.91203 0.77127 0.0
C2949 C 0.76996 0.90855 0.75627 0.0
C2950 C 0.77634 0.90303 0.73793 0.0
C2951 C 0.79573 0.90096 0.73456 0.0
H2952 H 0.75494 0.91013 0.75885 0.0
H2953 H 0.94239 0.89165 0.72126 0.0
H2954 H 0.72002 0.08446 0.49787 0.0
H2955 H 0.69116 0.06947 0.51085 0.0
H2956 H 0.65792 0.11526 0.48691 0.0
H2957 H 0.68643 0.13018 0.47364 0.0
H2958 H 0.65563 0.10931 0.52891 0.0
H2959 H 0.6541 0.07584 0.46777 0.0
H2960 H 0.66541 0.05427 0.44213 0.0
H2961 H 0.66511 0.00723 0.48232 0.0
H2962 H 0.65429 0.02865 0.50842 0.0
H2963 H 0.55857 0.08745 0.52748 0.0
H2964 H 0.5919 0.09631 0.52387 0.0
H2965 H 0.6082 0.04211 0.5486 0.0
H2966 H 0.57468 0.03322 0.55249 0.0
H2967 H 0.6225 0.04855 0.5115 0.0
H2968 H 0.62156 0.08101 0.57192 0.0
H2969 H 0.60953 0.10227 0.59755 0.0
H2970 H 0.61404 0.1505 0.55903 0.0
H2971 H 0.62583 0.12949 0.53304 0.0
C2972 C 0.70651 0.09108 0.49494 0.0
C2973 C 0.70556 0.10865 0.48492 0.0
C2974 C 0.69008 0.08251 0.50239 0.0
C2975 C 0.67258 0.09147 0.50002 0.0
C2976 C 0.67141 0.10828 0.48898 0.0
C2977 C 0.68773 0.1167 0.4813 0.0
C2978 C 0.65566 0.08442 0.51038 0.0
C2979 C 0.64831 0.09605 0.52511 0.0
C2980 C 0.64671 0.06675 0.50583 0.0
C2981 C 0.65375 0.05399 0.49022 0.0
C2982 C 0.65688 0.06102 0.47132 0.0
C2983 C 0.66311 0.04878 0.45664 0.0
C2984 C 0.66609 0.02941 0.46062 0.0
C2985 C 0.66286 0.02225 0.47928 0.0
C2986 C 0.6567 0.03444 0.49403 0.0
C2987 C 0.56926 0.07771 0.53279 0.0
C2988 C 0.56412 0.05965 0.54019 0.0
C2989 C 0.58829 0.08279 0.53074 0.0
C2990 C 0.60247 0.06981 0.5359 0.0
C2991 C 0.59741 0.05229 0.54457 0.0
C2992 C 0.5783 0.04732 0.54692 0.0
C2993 C 0.62215 0.07371 0.5297 0.0
C2994 C 0.63006 0.06155 0.5157 0.0
C2995 C 0.63169 0.09087 0.53493 0.0
C2996 C 0.62449 0.10362 0.55047 0.0
C2997 C 0.61984 0.09612 0.56884 0.0
C2998 C 0.61309 0.10814 0.58346 0.0
C2999 C 0.611 0.12772 0.57991 0.0
C3000 C 0.61567 0.13532 0.56175 0.0
C3001 C 0.62242 0.12337 0.54708 0.0
H3002 H 0.60578 0.137 0.59125 0.0
H3003 H 0.67081 0.01994 0.44921 0.0
H3004 H 0.16901 0.46358 0.75476 0.0
H3005 H 0.19068 0.43656 0.75639 0.0
H3006 H 0.14644 0.40122 0.78124 0.0
H3007 H 0.12467 0.42817 0.77974 0.0
H3008 H 0.18003 0.40047 0.80236 0.0
H3009 H 0.15963 0.39377 0.73559 0.0
H3010 H 0.15405 0.40502 0.7021 0.0
H3011 H 0.21332 0.41815 0.69592 0.0
H3012 H 0.21921 0.40721 0.72948 0.0
H3013 H 0.22038 0.30795 0.79345 0.0
H3014 H 0.20258 0.33766 0.79607 0.0
H3015 H 0.24496 0.36696 0.76157 0.0
H3016 H 0.262 0.33688 0.75791 0.0
H3017 H 0.21329 0.37232 0.74603 0.0
H3018 H 0.23475 0.37796 0.81176 0.0
H3019 H 0.24098 0.36771 0.84545 0.0
H3020 H 0.18146 0.35794 0.85431 0.0
H3021 H 0.17488 0.36789 0.8206 0.0
C3022 C 0.16379 0.44996 0.76026 0.0
C3023 C 0.14516 0.44798 0.76715 0.0
C3024 C 0.1762 0.43457 0.76121 0.0
C3025 C 0.17014 0.41697 0.76901 0.0
C3026 C 0.15137 0.41476 0.77528 0.0
C3027 C 0.13893 0.43011 0.77427 0.0
C3028 C 0.18359 0.40107 0.77131 0.0
C3029 C 0.18721 0.39411 0.79007 0.0
C3030 C 0.19335 0.39335 0.75531 0.0
C3031 C 0.18982 0.39985 0.73511 0.0
C3032 C 0.17144 0.3992 0.72714 0.0
C3033 C 0.16823 0.40549 0.70814 0.0
C3034 C 0.18332 0.41234 0.69691 0.0
C3035 C 0.20165 0.41286 0.70465 0.0
C3036 C 0.20493 0.4066 0.72365 0.0
C3037 C 0.22616 0.32093 0.78703 0.0
C3038 C 0.24247 0.32029 0.7755 0.0
C3039 C 0.21602 0.33794 0.78854 0.0
C3040 C 0.22241 0.35463 0.77901 0.0
C3041 C 0.23966 0.35426 0.76891 0.0
C3042 C 0.24946 0.33716 0.76694 0.0
C3043 C 0.20994 0.37154 0.77721 0.0
C3044 C 0.20638 0.37871 0.75847 0.0
C3045 C 0.20042 0.37957 0.79329 0.0
C3046 C 0.20434 0.37353 0.81358 0.0
C3047 C 0.223 0.37348 0.82084 0.0
C3048 C 0.22659 0.36775 0.83996 0.0
C3049 C 0.21163 0.36213 0.852 0.0
C3050 C 0.19304 0.36228 0.84496 0.0
C3051 C 0.18937 0.36799 0.82586 0.0
H3052 H 0.21444 0.3577 0.86679 0.0
H3053 H 0.1808 0.4172 0.6822 0.0
H3054 H 0.40236 0.58063 0.2809 0.0
H3055 H 0.38201 0.60867 0.28117 0.0
H3056 H 0.34603 0.58249 0.23762 0.0
H3057 H 0.36617 0.55414 0.23743 0.0
H3058 H 0.35271 0.62549 0.23523 0.0
H3059 H 0.33516 0.5737 0.28019 0.0
H3060 H 0.34274 0.55144 0.30686 0.0
H3061 H 0.35543 0.59907 0.34445 0.0
H3062 H 0.34862 0.62159 0.3178 0.0
H3063 H 0.26606 0.67118 0.24851 0.0
H3064 H 0.28903 0.64539 0.24629 0.0
H3065 H 0.31723 0.66645 0.29791 0.0
H3066 H 0.29435 0.69235 0.30026 0.0
H3067 H 0.31613 0.62736 0.29671 0.0
H3068 H 0.33487 0.67893 0.25692 0.0
H3069 H 0.33249 0.70441 0.2323 0.0
H3070 H 0.32261 0.66215 0.18792 0.0
H3071 H 0.32451 0.63638 0.21238 0.0
C3072 C 0.39045 0.58103 0.27094 0.0
C3073 C 0.38569 0.56506 0.25933 0.0
C3074 C 0.37884 0.59707 0.27115 0.0
C3075 C 0.36244 0.59744 0.25962 0.0
C3076 C 0.35864 0.58236 0.24664 0.0
C3077 C 0.37014 0.56619 0.24658 0.0
C3078 C 0.34801 0.61219 0.26302 0.0
C3079 C 0.34449 0.62579 0.24852 0.0
C3080 C 0.33797 0.61296 0.28077 0.0
C3081 C 0.34163 0.59934 0.2969 0.0
C3082 C 0.33979 0.57942 0.29407 0.0
C3083 C 0.34397 0.56675 0.30919 0.0
C3084 C 0.3497 0.57382 0.32731 0.0
C3085 C 0.35115 0.59359 0.33037 0.0
C3086 C 0.34717 0.60631 0.31525 0.0
C3087 C 0.27684 0.67008 0.25969 0.0
C3088 C 0.2785 0.68395 0.27445 0.0
C3089 C 0.29005 0.65542 0.25829 0.0
C3090 C 0.30503 0.65431 0.27169 0.0
C3091 C 0.30585 0.66719 0.28733 0.0
C3092 C 0.29274 0.68196 0.28866 0.0
C3093 C 0.32042 0.64044 0.2687 0.0
C3094 C 0.32421 0.62704 0.28333 0.0
C3095 C 0.33115 0.64027 0.25134 0.0
C3096 C 0.32958 0.65571 0.23656 0.0
C3097 C 0.33193 0.67506 0.24196 0.0
C3098 C 0.33072 0.68957 0.22802 0.0
C3099 C 0.32736 0.68492 0.20856 0.0
C3100 C 0.32518 0.66574 0.20301 0.0
C3101 C 0.3263 0.65116 0.21692 0.0
H3102 H 0.32651 0.69619 0.19778 0.0
H3103 H 0.35294 0.564 0.339 0.0
H3104 H 0.48067 0.7116 0.63424 0.0
H3105 H 0.46567 0.68017 0.6308 0.0
H3106 H 0.48065 0.67918 0.57012 0.0
H3107 H 0.49565 0.71091 0.57332 0.0
H3108 H 0.44379 0.66535 0.5774 0.0
H3109 H 0.50794 0.65693 0.60324 0.0
H3110 H 0.53323 0.66243 0.62754 0.0
H3111 H 0.49718 0.63976 0.67234 0.0
H3112 H 0.4716 0.63435 0.6483 0.0
H3113 H 0.4622 0.57622 0.5421 0.0
H3114 H 0.45799 0.60827 0.55438 0.0
H3115 H 0.44685 0.58564 0.61166 0.0
H3116 H 0.45178 0.55293 0.59931 0.0
H3117 H 0.47319 0.61178 0.61356 0.0
H3118 H 0.41234 0.61203 0.58592 0.0
H3119 H 0.38707 0.60592 0.56179 0.0
H3120 H 0.41503 0.64339 0.52126 0.0
H3121 H 0.44063 0.64952 0.54498 0.0
C3122 C 0.48086 0.70475 0.62011 0.0
C3123 C 0.48969 0.71367 0.60408 0.0
C3124 C 0.47216 0.6868 0.6182 0.0
C3125 C 0.47222 0.6773 0.60028 0.0
C3126 C 0.48046 0.68634 0.58409 0.0
C3127 C 0.48914 0.70439 0.58596 0.0
C3128 C 0.46474 0.65746 0.59861 0.0
C3129 C 0.45016 0.65356 0.58524 0.0
C3130 C 0.4724 0.64229 0.60967 0.0
C3131 C 0.48781 0.64546 0.62404 0.0
C3132 C 0.50537 0.65325 0.6183 0.0
C3133 C 0.51976 0.65633 0.63201 0.0
C3134 C 0.51679 0.65151 0.65148 0.0
C3135 C 0.49944 0.64353 0.65726 0.0
C3136 C 0.48501 0.64045 0.6436 0.0
C3137 C 0.45854 0.57793 0.55728 0.0
C3138 C 0.45762 0.56207 0.56984 0.0
C3139 C 0.45582 0.59635 0.56424 0.0
C3140 C 0.45182 0.59946 0.58392 0.0
C3141 C 0.4498 0.58356 0.59638 0.0
C3142 C 0.45257 0.56491 0.58934 0.0
C3143 C 0.45285 0.61937 0.59149 0.0
C3144 C 0.46624 0.62346 0.60608 0.0
C3145 C 0.44393 0.63469 0.58166 0.0
C3146 C 0.42845 0.63124 0.5673 0.0
C3147 C 0.41316 0.61891 0.57183 0.0
C3148 C 0.39876 0.61545 0.55822 0.0
C3149 C 0.39944 0.62427 0.54001 0.0
C3150 C 0.4145 0.6366 0.53539 0.0
C3151 C 0.42894 0.64011 0.54894 0.0
H3152 H 0.38829 0.62155 0.52948 0.0
H3153 H 0.52794 0.6539 0.66208 0.0
H3154 H 0.54511 0.23303 0.83923 0.0
H3155 H 0.5741 0.22182 0.82355 0.0
H3156 H 0.60628 0.23644 0.87494 0.0
H3157 H 0.57752 0.24743 0.89079 0.0
H3158 H 0.61426 0.25651 0.83634 0.0
H3159 H 0.60753 0.19418 0.86772 0.0
H3160 H 0.59079 0.16385 0.87529 0.0
H3161 H 0.58675 0.15065 0.81447 0.0
H3162 H 0.60362 0.18084 0.80653 0.0
H3163 H 0.70691 0.24311 0.81487 0.0
H3164 H 0.67752 0.23707 0.83249 0.0
H3165 H 0.65405 0.2079 0.78242 0.0
H3166 H 0.6839 0.21332 0.76487 0.0
H3167 H 0.6399 0.19315 0.81779 0.0
H3168 H 0.64694 0.25336 0.78561 0.0
H3169 H 0.66304 0.28352 0.77625 0.0
H3170 H 0.66349 0.30191 0.83581 0.0
H3171 H 0.64778 0.27166 0.84559 0.0
C3172 C 0.5583 0.23348 0.84731 0.0
C3173 C 0.55915 0.24144 0.86608 0.0
C3174 C 0.57477 0.22693 0.83841 0.0
C3175 C 0.5922 0.2283 0.84817 0.0
C3176 C 0.59287 0.23519 0.86728 0.0
C3177 C 0.57646 0.24159 0.87624 0.0
C3178 C 0.61002 0.22593 0.83748 0.0
C3179 C 0.62 0.24266 0.83248 0.0
C3180 C 0.61691 0.20788 0.83177 0.0
C3181 C 0.60664 0.18985 0.83653 0.0
C3182 C 0.60292 0.1849 0.85595 0.0
C3183 C 0.59346 0.16771 0.86032 0.0
C3184 C 0.58757 0.15542 0.84537 0.0
C3185 C 0.59127 0.16021 0.82603 0.0
C3186 C 0.60085 0.17731 0.8216 0.0
C3187 C 0.69567 0.23493 0.80782 0.0
C3188 C 0.69745 0.22896 0.78845 0.0
C3189 C 0.67894 0.23146 0.81788 0.0
C3190 C 0.66351 0.22247 0.80855 0.0
C3191 C 0.6658 0.21493 0.78981 0.0
C3192 C 0.68279 0.21808 0.7798 0.0
C3193 C 0.64449 0.22376 0.81732 0.0
C3194 C 0.63417 0.20698 0.82168 0.0
C3195 C 0.63697 0.24185 0.82219 0.0
C3196 C 0.64633 0.26015 0.81635 0.0
C3197 C 0.65062 0.26376 0.79674 0.0
C3198 C 0.65967 0.28088 0.79135 0.0
C3199 C 0.66433 0.29461 0.80543 0.0
C3200 C 0.65992 0.29125 0.82492 0.0
C3201 C 0.65094 0.27412 0.83039 0.0
H3202 H 0.6713 0.30787 0.80121 0.0
H3203 H 0.58022 0.14214 0.84879 0.0
H3204 H 0.00801 0.30271 0.07509 0.0
H3205 H 0.02333 0.33329 0.06601 0.0
H3206 H 0.01081 0.35616 0.12271 0.0
H3207 H 0.99559 0.32609 0.13178 0.0
H3208 H 0.00815 0.36976 0.065 0.0
H3209 H 0.04754 0.38176 0.13925 0.0
H3210 H 0.06425 0.36206 0.16346 0.0
H3211 H 0.07587 0.31995 0.11975 0.0
H3212 H 0.05943 0.33944 0.09523 0.0
H3213 H 0.00624 0.46202 0.08991 0.0
H3214 H 0.00923 0.42818 0.09833 0.0
H3215 H 0.06548 0.42789 0.0741 0.0
H3216 H 0.06258 0.46205 0.06591 0.0
H3217 H 0.05619 0.40012 0.10859 0.0
H3218 H 0.03893 0.41736 0.04318 0.0
H3219 H 0.0222 0.43771 0.01953 0.0
H3220 H 0.96871 0.4199 0.04342 0.0
H3221 H 0.98515 0.39975 0.06748 0.0
C3222 C 0.00845 0.31434 0.08552 0.0
C3223 C 0.00065 0.31202 0.10414 0.0
C3224 C 0.01728 0.33169 0.08037 0.0
C3225 C 0.01858 0.34674 0.09389 0.0
C3226 C 0.01038 0.34453 0.11226 0.0
C3227 C 0.00151 0.32738 0.11734 0.0
C3228 C 0.02744 0.36536 0.08887 0.0
C3229 C 0.01899 0.37624 0.0742 0.0
C3230 C 0.04182 0.37366 0.10072 0.0
C3231 C 0.05217 0.36209 0.11538 0.0
C3232 C 0.05379 0.36838 0.13475 0.0
C3233 C 0.06316 0.3572 0.14855 0.0
C3234 C 0.07106 0.33972 0.14316 0.0
C3235 C 0.06966 0.33342 0.12394 0.0
C3236 C 0.06029 0.34452 0.11009 0.0
C3237 C 0.0196 0.45498 0.08738 0.0
C3238 C 0.03422 0.46445 0.07743 0.0
C3239 C 0.0213 0.43569 0.09211 0.0
C3240 C 0.03748 0.4256 0.08657 0.0
C3241 C 0.05296 0.43554 0.07855 0.0
C3242 C 0.05131 0.45499 0.07393 0.0
C3243 C 0.03618 0.40454 0.08541 0.0
C3244 C 0.04594 0.39334 0.09893 0.0
C3245 C 0.0233 0.39576 0.07223 0.0
C3246 C 0.01329 0.40711 0.05718 0.0
C3247 C 0.0236 0.41784 0.04343 0.0
C3248 C 0.01418 0.42935 0.02996 0.0
C3249 C 0.99441 0.43011 0.02998 0.0
C3250 C 0.98402 0.41928 0.04341 0.0
C3251 C 0.99339 0.4078 0.05695 0.0
H3252 H 0.98713 0.43907 0.01959 0.0
H3253 H 0.07827 0.33107 0.15387 0.0
H3254 H 0.95746 0.77157 0.35099 0.0
H3255 H 0.92602 0.77574 0.33719 0.0
H3256 H 0.90481 0.79241 0.39334 0.0
H3257 H 0.93641 0.78814 0.40746 0.0
H3258 H 0.88278 0.76479 0.37596 0.0
H3259 H 0.90785 0.82564 0.35867 0.0
H3260 H 0.93128 0.84893 0.34602 0.0
H3261 H 0.92721 0.82312 0.28949 0.0
H3262 H 0.90397 0.79948 0.30184 0.0
H3263 H 0.79486 0.77436 0.3239 0.0
H3264 H 0.82206 0.78243 0.34465 0.0
H3265 H 0.85999 0.76827 0.29793 0.0
H3266 H 0.83304 0.76045 0.27706 0.0
H3267 H 0.87042 0.80147 0.31557 0.0
H3268 H 0.85113 0.73698 0.33509 0.0
H3269 H 0.8285 0.71283 0.3477 0.0
H3270 H 0.82225 0.74556 0.4001 0.0
H3271 H 0.84469 0.77002 0.38768 0.0
C3272 C 0.94619 0.77623 0.36045 0.0
C3273 C 0.94944 0.77939 0.38037 0.0
C3274 C 0.92824 0.77878 0.35248 0.0
C3275 C 0.91316 0.7846 0.36421 0.0
C3276 C 0.91632 0.78801 0.38405 0.0
C3277 C 0.93437 0.78556 0.39206 0.0
C3278 C 0.89392 0.78561 0.35575 0.0
C3279 C 0.87987 0.77321 0.36305 0.0
C3280 C 0.89027 0.79644 0.33881 0.0
C3281 C 0.90419 0.81071 0.33123 0.0
C3282 C 0.91203 0.82484 0.34357 0.0
C3283 C 0.92528 0.83812 0.33645 0.0
C3284 C 0.93074 0.83749 0.31697 0.0
C3285 C 0.92295 0.8236 0.30457 0.0
C3286 C 0.90972 0.81027 0.31162 0.0
C3287 C 0.809 0.77294 0.31805 0.0
C3288 C 0.81178 0.76669 0.29882 0.0
C3289 C 0.8245 0.77757 0.32993 0.0
C3290 C 0.84301 0.7759 0.32282 0.0
C3291 C 0.8458 0.76977 0.30365 0.0
C3292 C 0.83036 0.76519 0.29177 0.0
C3293 C 0.85967 0.78004 0.3353 0.0
C3294 C 0.87317 0.79346 0.32877 0.0
C3295 C 0.86284 0.77012 0.35292 0.0
C3296 C 0.84937 0.75543 0.36036 0.0
C3297 C 0.8448 0.7391 0.34923 0.0
C3298 C 0.83204 0.72534 0.35635 0.0
C3299 C 0.82389 0.72769 0.37466 0.0
C3300 C 0.82854 0.74378 0.38591 0.0
C3301 C 0.84128 0.75759 0.37884 0.0
H3302 H 0.81402 0.71702 0.38016 0.0
H3303 H 0.941 0.84779 0.31148 0.0
H3304 H 0.51547 0.32635 0.87553 0.0
H3305 H 0.50116 0.35711 0.88379 0.0
H3306 H 0.49252 0.33748 0.9426 0.0
H3307 H 0.5065 0.30674 0.9344 0.0
H3308 H 0.46101 0.35362 0.9282 0.0
H3309 H 0.52867 0.36857 0.93045 0.0
H3310 H 0.56099 0.37252 0.91741 0.0
H3311 H 0.5403 0.41113 0.87385 0.0
H3312 H 0.50781 0.40721 0.88652 0.0
H3313 H 0.47078 0.42441 -0.00245 0.0
H3314 H 0.46744 0.39839 0.97427 0.0
H3315 H 0.46722 0.43915 0.92711 0.0
H3316 H 0.47067 0.46542 0.95045 0.0
H3317 H 0.49636 0.41538 0.92499 0.0
H3318 H 0.43041 0.4072 0.93105 0.0
H3319 H 0.39935 0.40481 0.94718 0.0
H3320 H 0.41728 0.35446 0.97766 0.0
H3321 H 0.44853 0.35668 0.96197 0.0
C3322 C 0.51072 0.32871 0.89028 0.0
C3323 C 0.5121 0.31419 0.90436 0.0
C3324 C 0.50249 0.34624 0.89493 0.0
C3325 C 0.49569 0.3495 0.91376 0.0
C3326 C 0.49748 0.33515 0.92791 0.0
C3327 C 0.50561 0.31766 0.92326 0.0
C3328 C 0.48676 0.36781 0.91909 0.0
C3329 C 0.46868 0.36718 0.92752 0.0
C3330 C 0.49641 0.38559 0.91727 0.0
C3331 C 0.51578 0.38731 0.90919 0.0
C3332 C 0.53098 0.37767 0.91792 0.0
C3333 C 0.54933 0.37997 0.91065 0.0
C3334 C 0.55268 0.39199 0.89475 0.0
C3335 C 0.53768 0.40175 0.88611 0.0
C3336 C 0.51929 0.39949 0.89331 0.0
C3337 C 0.46944 0.42791 0.98228 0.0
C3338 C 0.47145 0.44691 0.97579 0.0
C3339 C 0.46729 0.413 0.96896 0.0
C3340 C 0.46712 0.41684 0.94894 0.0
C3341 C 0.46729 0.43592 0.94251 0.0
C3342 C 0.46931 0.4509 0.95588 0.0
C3343 C 0.4711 0.40103 0.9353 0.0
C3344 C 0.48826 0.40205 0.92511 0.0
C3345 C 0.4607 0.3836 0.93575 0.0
C3346 C 0.44188 0.38214 0.9453 0.0
C3347 C 0.42779 0.39568 0.94128 0.0
C3348 C 0.41013 0.39434 0.95034 0.0
C3349 C 0.40634 0.3795 0.96343 0.0
C3350 C 0.42021 0.36594 0.96748 0.0
C3351 C 0.4379 0.36721 0.95847 0.0
H3352 H 0.39266 0.37849 0.97044 0.0
H3353 H 0.56691 0.3938 0.88919 0.0
H3354 H 0.93806 0.23346 0.12525 0.0
H3355 H 0.90929 0.22282 0.1418 0.0
H3356 H 0.93191 0.24399 0.19622 0.0
H3357 H 0.96127 0.25369 0.17977 0.0
H3358 H 0.91116 0.21356 0.20294 0.0
H3359 H 0.90224 0.27152 0.16582 0.0
H3360 H 0.90278 0.29151 0.13625 0.0
H3361 H 0.8641 0.25232 0.1081 0.0
H3362 H 0.86351 0.23198 0.13744 0.0
H3363 H 0.82955 0.24864 0.24986 0.0
H3364 H 0.85947 0.24245 0.2336 0.0
H3365 H 0.82962 0.21211 0.18797 0.0
H3366 H 0.79945 0.21819 0.20422 0.0
H3367 H 0.85285 0.2417 0.175 0.0
H3368 H 0.85789 0.18741 0.21673 0.0
H3369 H 0.85707 0.17011 0.24795 0.0
H3370 H 0.90271 0.20546 0.26958 0.0
H3371 H 0.90363 0.22318 0.2386 0.0
C3372 C 0.93695 0.23562 0.14079 0.0
C3373 C 0.95162 0.24471 0.15125 0.0
C3374 C 0.92052 0.22957 0.15022 0.0
C3375 C 0.9182 0.23313 0.17014 0.0
C3376 C 0.93335 0.24119 0.18082 0.0
C3377 C 0.95005 0.24681 0.17144 0.0
C3378 C 0.89949 0.23008 0.17941 0.0
C3379 C 0.89842 0.21977 0.1969 0.0
C3380 C 0.88277 0.23786 0.17131 0.0
C3381 C 0.883 0.25014 0.15372 0.0
C3382 C 0.89394 0.26712 0.15328 0.0
C3383 C 0.89425 0.27851 0.13657 0.0
C3384 C 0.88352 0.27316 0.12029 0.0
C3385 C 0.87242 0.25643 0.12071 0.0
C3386 C 0.87209 0.24497 0.13737 0.0
C3387 C 0.82932 0.24045 0.23648 0.0
C3388 C 0.81212 0.23407 0.22821 0.0
C3389 C 0.84646 0.23677 0.22732 0.0
C3390 C 0.84672 0.22669 0.2097 0.0
C3391 C 0.82966 0.2198 0.20165 0.0
C3392 C 0.81247 0.22331 0.21093 0.0
C3393 C 0.86457 0.22549 0.19868 0.0
C3394 C 0.86551 0.23511 0.18085 0.0
C3395 C 0.88114 0.21744 0.20672 0.0
C3396 C 0.88075 0.2067 0.22535 0.0
C3397 C 0.86766 0.19159 0.22818 0.0
C3398 C 0.8672 0.18169 0.24584 0.0
C3399 C 0.87981 0.1867 0.26075 0.0
C3400 C 0.89295 0.20159 0.25802 0.0
C3401 C 0.89347 0.21155 0.2404 0.0
H3402 H 0.87942 0.17902 0.27441 0.0
H3403 H 0.88378 0.28199 0.10736 0.0
H3404 H 0.01424 0.72016 0.44778 0.0
H3405 H 0.02137 0.68711 0.45679 0.0
H3406 H 0.01039 0.66879 0.3979 0.0
H3407 H 0.00329 0.70173 0.38868 0.0
H3408 H 0.9928 0.64598 0.42668 0.0
H3409 H 0.05438 0.67269 0.4117 0.0
H3410 H 0.0801 0.69678 0.41462 0.0
H3411 H 0.08537 0.68448 0.47553 0.0
H3412 H 0.05947 0.66051 0.47302 0.0
H3413 H 0.0174 0.55251 0.44525 0.0
H3414 H 0.02072 0.58335 0.42859 0.0
H3415 H 0.04192 0.60907 0.48161 0.0
H3416 H 0.03993 0.57792 0.49779 0.0
H3417 H 0.05584 0.62793 0.45264 0.0
H3418 H 0.99312 0.60592 0.47024 0.0
H3419 H 0.96606 0.58317 0.47027 0.0
H3420 H 0.96114 0.5883 0.40828 0.0
H3421 H 0.98835 0.61088 0.40786 0.0
C3422 C 0.01322 0.7091 0.43676 0.0
C3423 C 0.00822 0.71358 0.41751 0.0
C3424 C 0.01743 0.69027 0.44191 0.0
C3425 C 0.01662 0.67566 0.42792 0.0
C3426 C 0.01119 0.67996 0.40884 0.0
C3427 C 0.00714 0.69878 0.40362 0.0
C3428 C 0.02113 0.65577 0.4333 0.0
C3429 C 0.00667 0.64191 0.43202 0.0
C3430 C 0.03909 0.65073 0.44074 0.0
C3431 C 0.05489 0.6649 0.44219 0.0
C3432 C 0.06094 0.67521 0.42574 0.0
C3433 C 0.07557 0.68883 0.42732 0.0
C3434 C 0.08435 0.69218 0.44526 0.0
C3435 C 0.07856 0.68187 0.46164 0.0
C3436 C 0.06392 0.66825 0.46014 0.0
C3437 C 0.02347 0.56463 0.45304 0.0
C3438 C 0.02826 0.56306 0.47276 0.0
C3439 C 0.02523 0.58224 0.4436 0.0
C3440 C 0.03086 0.59865 0.45408 0.0
C3441 C 0.03737 0.59664 0.47328 0.0
C3442 C 0.03624 0.57886 0.48252 0.0
C3443 C 0.02745 0.61804 0.44613 0.0
C3444 C 0.04205 0.63187 0.44701 0.0
C3445 C 0.00944 0.62323 0.43874 0.0
C3446 C 0.99287 0.60992 0.439 0.0
C3447 C 0.98631 0.60213 0.45661 0.0
C3448 C 0.97095 0.58926 0.4567 0.0
C3449 C 0.96192 0.58426 0.43928 0.0
C3450 C 0.96817 0.59216 0.42175 0.0
C3451 C 0.98355 0.605 0.42158 0.0
H3452 H 0.95005 0.57428 0.43938 0.0
H3453 H 0.09565 0.70275 0.44646 0.0
H3454 H 0.55749 0.75879 0.66416 0.0
H3455 H 0.58908 0.76288 0.67837 0.0
H3456 H 0.61071 0.78171 0.62293 0.0
H3457 H 0.57937 0.77731 0.60851 0.0
H3458 H 0.63495 0.75798 0.64013 0.0
H3459 H 0.60066 0.81398 0.65857 0.0
H3460 H 0.57387 0.83163 0.6725 0.0
H3461 H 0.58411 0.80578 0.72812 0.0
H3462 H 0.61079 0.78774 0.71444 0.0
H3463 H 0.72234 0.79095 0.68222 0.0
H3464 H 0.69199 0.79178 0.66467 0.0
H3465 H 0.66311 0.77143 0.71595 0.0
H3466 H 0.69302 0.77081 0.73352 0.0
H3467 H 0.64333 0.79902 0.69853 0.0
H3468 H 0.6744 0.74031 0.67949 0.0
H3469 H 0.70039 0.72129 0.66587 0.0
H3470 H 0.69609 0.75191 0.61196 0.0
H3471 H 0.67002 0.77113 0.62529 0.0
C3472 C 0.56897 0.76369 0.65495 0.0
C3473 C 0.56582 0.7678 0.63521 0.0
C3474 C 0.58701 0.76612 0.66312 0.0
C3475 C 0.60217 0.77291 0.65177 0.0
C3476 C 0.5992 0.77651 0.63197 0.0
C3477 C 0.58123 0.774 0.62376 0.0
C3478 C 0.62109 0.77648 0.66058 0.0
C3479 C 0.63684 0.76721 0.6527 0.0
C3480 C 0.62352 0.78836 0.67711 0.0
C3481 C 0.60764 0.7994 0.68544 0.0
C3482 C 0.59713 0.81197 0.67374 0.0
C3483 C 0.58197 0.82205 0.68159 0.0
C3484 C 0.57728 0.8198 0.70117 0.0
C3485 C 0.58776 0.8075 0.71295 0.0
C3486 C 0.60291 0.79736 0.70516 0.0
C3487 C 0.70948 0.78691 0.6898 0.0
C3488 C 0.71012 0.78069 0.70922 0.0
C3489 C 0.69219 0.78728 0.67973 0.0
C3490 C 0.67534 0.78145 0.68897 0.0
C3491 C 0.67592 0.77597 0.70854 0.0
C3492 C 0.69309 0.77556 0.71854 0.0
C3493 C 0.65709 0.78023 0.67829 0.0
C3494 C 0.64147 0.78999 0.6858 0.0
C3495 C 0.65476 0.76876 0.66147 0.0
C3496 C 0.67044 0.75729 0.65345 0.0
C3497 C 0.6791 0.74307 0.66478 0.0
C3498 C 0.69383 0.73224 0.65711 0.0
C3499 C 0.69999 0.73546 0.6381 0.0
C3500 C 0.69135 0.74946 0.62669 0.0
C3501 C 0.67657 0.7603 0.63428 0.0
H3502 H 0.71139 0.72706 0.63218 0.0
H3503 H 0.56553 0.82761 0.70722 0.0
H3504 H 0.56502 0.50643 0.74769 0.0
H3505 H 0.5487 0.49445 0.71871 0.0
H3506 H 0.59941 0.5033 0.68502 0.0
H3507 H 0.61622 0.51479 0.71426 0.0
H3508 H 0.55794 0.51961 0.67249 0.0
H3509 H 0.59629 0.46473 0.68606 0.0
H3510 H 0.61049 0.44044 0.70746 0.0
H3511 H 0.55504 0.41956 0.72272 0.0
H3512 H 0.54049 0.44402 0.70171 0.0
H3513 H 0.52531 0.45596 0.59201 0.0
H3514 H 0.54439 0.45703 0.62162 0.0
H3515 H 0.5003 0.48805 0.65068 0.0
H3516 H 0.48113 0.48728 0.62113 0.0
H3517 H 0.54268 0.45048 0.66303 0.0
H3518 H 0.52104 0.52955 0.66546 0.0
H3519 H 0.50721 0.55376 0.64362 0.0
H3520 H 0.5321 0.52606 0.59435 0.0
H3521 H 0.54635 0.50192 0.61593 0.0
C3522 C 0.57271 0.50595 0.73411 0.0
C3523 C 0.59186 0.51163 0.73316 0.0
C3524 C 0.5634 0.49897 0.71765 0.0
C3525 C 0.57298 0.49787 0.69994 0.0
C3526 C 0.59194 0.50394 0.69872 0.0
C3527 C 0.60145 0.51052 0.71534 0.0
C3528 C 0.56266 0.49091 0.68271 0.0
C3529 C 0.55474 0.50451 0.67027 0.0
C3530 C 0.55866 0.47119 0.67994 0.0
C3531 C 0.5673 0.45638 0.6925 0.0
C3532 C 0.58712 0.45512 0.69417 0.0
C3533 C 0.59523 0.44129 0.70618 0.0
C3534 C 0.58367 0.4285 0.71649 0.0
C3535 C 0.56397 0.4295 0.71476 0.0
C3536 C 0.55579 0.44335 0.70279 0.0
C3537 C 0.51935 0.46245 0.60488 0.0
C3538 C 0.50198 0.47214 0.60403 0.0
C3539 C 0.53026 0.46292 0.62182 0.0
C3540 C 0.5239 0.47306 0.63805 0.0
C3541 C 0.50549 0.4804 0.63811 0.0
C3542 C 0.49457 0.47996 0.62118 0.0
C3543 C 0.5376 0.47924 0.65309 0.0
C3544 C 0.54606 0.46555 0.66511 0.0
C3545 C 0.5424 0.4989 0.65532 0.0
C3546 C 0.5346 0.51384 0.6423 0.0
C3547 C 0.52367 0.52872 0.64998 0.0
C3548 C 0.51575 0.54242 0.63765 0.0
C3549 C 0.51873 0.54142 0.61761 0.0
C3550 C 0.52976 0.5268 0.60987 0.0
C3551 C 0.53776 0.51311 0.62215 0.0
H3552 H 0.51251 0.55198 0.60808 0.0
H3553 H 0.58998 0.41779 0.72578 0.0
H3554 H 0.77865 0.3496 0.95919 0.0
H3555 H 0.78619 0.33852 0.92664 0.0
H3556 H 0.7576 0.38721 0.90206 0.0
H3557 H 0.75004 0.39857 0.93489 0.0
H3558 H 0.74544 0.35207 0.88729 0.0
H3559 H 0.80404 0.38516 0.89792 0.0
H3560 H 0.8327 0.39446 0.9164 0.0
H3561 H 0.85161 0.33621 0.91531 0.0
H3562 H 0.82289 0.32647 0.89711 0.0
H3563 H 0.76227 0.32084 0.79439 0.0
H3564 H 0.76685 0.34254 0.82187 0.0
H3565 H 0.79547 0.29793 0.85349 0.0
H3566 H 0.79158 0.27629 0.82545 0.0
H3567 H 0.80915 0.33488 0.8629 0.0
H3568 H 0.74933 0.30095 0.8582 0.0
H3569 H 0.72054 0.28999 0.84081 0.0
H3570 H 0.70381 0.34839 0.83252 0.0
H3571 H 0.73267 0.35972 0.84962 0.0
C3572 C 0.77415 0.35813 0.94691 0.0
C3573 C 0.7637 0.37493 0.94955 0.0
C3574 C 0.7786 0.35183 0.92831 0.0
C3575 C 0.77263 0.36217 0.91201 0.0
C3576 C 0.76244 0.37914 0.91454 0.0
C3577 C 0.75813 0.38558 0.93324 0.0
C3578 C 0.77552 0.35408 0.89245 0.0
C3579 C 0.75939 0.34876 0.88172 0.0
C3580 C 0.79373 0.34921 0.8856 0.0
C3581 C 0.81122 0.35506 0.89623 0.0
C3582 C 0.81424 0.37429 0.90172 0.0
C3583 C 0.83051 0.37965 0.91214 0.0
C3584 C 0.84395 0.36593 0.91705 0.0
C3585 C 0.84118 0.34682 0.91149 0.0
C3586 C 0.82492 0.34138 0.9011 0.0
C3587 C 0.76997 0.31584 0.80703 0.0
C3588 C 0.77628 0.29688 0.8081 0.0
C3589 C 0.77263 0.32824 0.82265 0.0
C3590 C 0.78109 0.32167 0.83982 0.0
C3591 C 0.78885 0.30322 0.84034 0.0
C3592 C 0.78655 0.29086 0.82444 0.0
C3593 C 0.77907 0.3329 0.85787 0.0
C3594 C 0.79527 0.3386 0.86833 0.0
C3595 C 0.7609 0.33795 0.86473 0.0
C3596 C 0.74323 0.33118 0.85502 0.0
C3597 C 0.73954 0.31145 0.8526 0.0
C3598 C 0.72323 0.30518 0.8428 0.0
C3599 C 0.7104 0.31849 0.83552 0.0
C3600 C 0.71379 0.33811 0.83814 0.0
C3601 C 0.73011 0.34446 0.8479 0.0
H3602 H 0.69783 0.31362 0.82786 0.0
H3603 H 0.85653 0.3701 0.92514 0.0
H3604 H 0.89128 0.53094 0.22679 0.0
H3605 H 0.90435 0.54335 0.19646 0.0
H3606 H 0.96083 0.53104 0.21661 0.0
H3607 H 0.94796 0.51861 0.24708 0.0
H3608 H 0.9582 0.56662 0.19751 0.0
H3609 H 0.93983 0.50019 0.18781 0.0
H3610 H 0.91764 0.4726 0.18801 0.0
H3611 H 0.88082 0.50194 0.14842 0.0
H3612 H 0.9027 0.52983 0.14821 0.0
H3613 H 0.01303 0.54686 0.11456 0.0
H3614 H 0.99596 0.5505 0.145 0.0
H3615 H 0.94432 0.56104 0.11321 0.0
H3616 H 0.96126 0.55729 0.0826 0.0
H3617 H 0.94074 0.53118 0.1374 0.0
H3618 H 0.96235 0.59545 0.14265 0.0
H3619 H 0.9851 0.62253 0.14203 0.0
H3620 H 0.0162 0.59758 0.18922 0.0
H3621 H 0.9938 0.57018 0.18994 0.0
C3622 C 0.9065 0.53094 0.22487 0.0
C3623 C 0.91856 0.52356 0.23932 0.0
C3624 C 0.91392 0.53809 0.20753 0.0
C3625 C 0.93352 0.538 0.20432 0.0
C3626 C 0.94566 0.53126 0.2189 0.0
C3627 C 0.93825 0.52402 0.23623 0.0
C3628 C 0.94129 0.54369 0.18525 0.0
C3629 C 0.95449 0.55887 0.18433 0.0
C3630 C 0.93595 0.53391 0.16805 0.0
C3631 C 0.92276 0.51719 0.16821 0.0
C3632 C 0.92691 0.50083 0.1793 0.0
C3633 C 0.91441 0.48513 0.17939 0.0
C3634 C 0.89779 0.48554 0.16829 0.0
C3635 C 0.89367 0.50165 0.15705 0.0
C3636 C 0.90611 0.51741 0.15694 0.0
C3637 C -0.00186 0.55042 0.11399 0.0
C3638 C 0.98844 0.55145 0.09614 0.0
C3639 C 0.98842 0.55264 0.13144 0.0
C3640 C 0.96887 0.55601 0.13135 0.0
C3641 C 0.95942 0.55843 0.11356 0.0
C3642 C 0.96915 0.55628 0.09609 0.0
C3643 C 0.95799 0.55395 0.14957 0.0
C3644 C 0.9442 0.53932 0.15041 0.0
C3645 C 0.96286 0.56424 0.16663 0.0
C3646 C 0.97644 0.58067 0.16626 0.0
C3647 C 0.97413 0.59564 0.15279 0.0
C3648 C 0.98695 0.61107 0.15244 0.0
C3649 C 0.00211 0.61176 0.16555 0.0
C3650 C 0.00445 0.59702 0.17907 0.0
C3651 C 0.99168 0.58155 0.17947 0.0
H3652 H 0.01202 0.62372 0.16526 0.0
H3653 H 0.88814 0.47336 0.16836 0.0
H3654 H 0.74062 0.60162 0.43012 0.0
H3655 H 0.73306 0.60916 0.3961 0.0
H3656 H 0.71905 0.66689 0.41287 0.0
H3657 H 0.72621 0.65944 0.44657 0.0
H3658 H 0.69408 0.65339 0.38693 0.0
H3659 H 0.76344 0.65391 0.395 0.0
H3660 H 0.79438 0.63901 0.40132 0.0
H3661 H 0.78405 0.59866 0.3552 0.0
H3662 H 0.75295 0.6132 0.34878 0.0
H3663 H 0.72321 0.72629 0.32526 0.0
H3664 H 0.71677 0.70177 0.3497 0.0
H3665 H 0.72404 0.65751 0.30667 0.0
H3666 H 0.73031 0.68207 0.28195 0.0
H3667 H 0.74677 0.65317 0.33948 0.0
H3668 H 0.68192 0.66039 0.32568 0.0
H3669 H 0.6522 0.67723 0.31852 0.0
H3670 H 0.65434 0.70408 0.37465 0.0
H3671 H 0.68422 0.68765 0.38206 0.0
C3672 C 0.73575 0.61585 0.4265 0.0
C3673 C 0.73411 0.62999 0.44096 0.0
C3674 C 0.73146 0.62013 0.4071 0.0
C3675 C 0.72558 0.63862 0.40194 0.0
C3676 C 0.72345 0.6525 0.4165 0.0
C3677 C 0.72767 0.64824 0.43578 0.0
C3678 C 0.72262 0.64434 0.38143 0.0
C3679 C 0.70554 0.65325 0.37648 0.0
C3680 C 0.73726 0.64337 0.36747 0.0
C3681 C 0.75575 0.63441 0.37165 0.0
C3682 C 0.76768 0.64172 0.38637 0.0
C3683 C 0.78527 0.63337 0.38993 0.0
C3684 C 0.79114 0.61784 0.37873 0.0
C3685 C 0.77946 0.61064 0.36392 0.0
C3686 C 0.76185 0.61891 0.36033 0.0
C3687 C 0.7231 0.71136 0.32089 0.0
C3688 C 0.72736 0.7061 0.30173 0.0
C3689 C 0.71929 0.69736 0.33484 0.0
C3690 C 0.7198 0.67784 0.32993 0.0
C3691 C 0.72345 0.67251 0.31067 0.0
C3692 C 0.72699 0.68655 0.2966 0.0
C3693 C 0.71874 0.66337 0.34559 0.0
C3694 C 0.735 0.6527 0.34959 0.0
C3695 C 0.70341 0.66284 0.35871 0.0
C3696 C 0.68537 0.67278 0.35441 0.0
C3697 C 0.67613 0.66998 0.33646 0.0
C3698 C 0.65924 0.67944 0.33236 0.0
C3699 C 0.65139 0.69172 0.34612 0.0
C3700 C 0.66042 0.69454 0.36401 0.0
C3701 C 0.67732 0.68512 0.36819 0.0
H3702 H 0.63832 0.69904 0.34291 0.0
H3703 H 0.80478 0.61143 0.38147 0.0
H3704 H 0.59879 0.53031 0.82166 0.0
H3705 H 0.58879 0.53447 0.855 0.0
H3706 H 0.63733 0.503 0.87506 0.0
H3707 H 0.64776 0.49897 0.84119 0.0
H3708 H 0.60196 0.48896 0.88825 0.0
H3709 H 0.63547 0.54836 0.88715 0.0
H3710 H 0.64606 0.57929 0.87341 0.0
H3711 H 0.58882 0.59939 0.87383 0.0
H3712 H 0.57781 0.56847 0.88726 0.0
H3713 H 0.56456 0.50617 0.98334 0.0
H3714 H 0.58701 0.50751 0.95644 0.0
H3715 H 0.54411 0.53193 0.91954 0.0
H3716 H 0.52123 0.53011 0.94631 0.0
H3717 H 0.58305 0.55015 0.91898 0.0
H3718 H 0.54895 0.49052 0.91195 0.0
H3719 H 0.53612 0.45873 0.92089 0.0
H3720 H 0.5924 0.43884 0.9323 0.0
H3721 H 0.60555 0.47071 0.92383 0.0
C3722 C 0.6076 0.52453 0.83309 0.0
C3723 C 0.62404 0.51424 0.82883 0.0
C3724 C 0.6019 0.52706 0.85219 0.0
C3725 C 0.61243 0.51923 0.86747 0.0
C3726 C 0.62914 0.50929 0.8634 0.0
C3727 C 0.63506 0.507 0.84413 0.0
C3728 C 0.60442 0.51974 0.88722 0.0
C3729 C 0.59839 0.50231 0.89538 0.0
C3730 C 0.59923 0.53724 0.89601 0.0
C3731 C 0.6058 0.55602 0.88819 0.0
C3732 C 0.62511 0.55932 0.88422 0.0
C3733 C 0.6312 0.57687 0.87649 0.0
C3734 C 0.61812 0.59129 0.87274 0.0
C3735 C 0.59894 0.58821 0.87676 0.0
C3736 C 0.59277 0.57068 0.88447 0.0
C3737 C 0.55993 0.51205 0.96957 0.0
C3738 C 0.54115 0.51809 0.96688 0.0
C3739 C 0.57276 0.51273 0.95425 0.0
C3740 C 0.56713 0.51979 0.93613 0.0
C3741 C 0.54863 0.52648 0.93353 0.0
C3742 C 0.53561 0.52539 0.94875 0.0
C3743 C 0.58035 0.5194 0.91965 0.0
C3744 C 0.58723 0.53682 0.9122 0.0
C3745 C 0.58612 0.50191 0.91131 0.0
C3746 C 0.5782 0.48312 0.91762 0.0
C3747 C 0.55856 0.47951 0.91678 0.0
C3748 C 0.55124 0.46144 0.92165 0.0
C3749 C 0.56343 0.44679 0.9272 0.0
C3750 C 0.58297 0.45022 0.92804 0.0
C3751 C 0.59036 0.4683 0.92325 0.0
H3752 H 0.55772 0.43275 0.93072 0.0
H3753 H 0.62286 0.60486 0.86673 0.0
H3754 H 0.7408 0.37235 0.05716 0.0
H3755 H 0.73251 0.35631 0.08759 0.0
H3756 H 0.77764 0.31608 0.07888 0.0
H3757 H 0.78583 0.33177 0.04836 0.0
H3758 H 0.74494 0.29802 0.08682 0.0
H3759 H 0.78067 0.35154 0.11358 0.0
H3760 H 0.78837 0.38576 0.11876 0.0
H3761 H 0.73278 0.3948 0.1419 0.0
H3762 H 0.72468 0.36066 0.13665 0.0
H3763 H 0.75469 0.25422 0.17865 0.0
H3764 H 0.75642 0.27006 0.14718 0.0
H3765 H 0.71315 0.30953 0.16501 0.0
H3766 H 0.71205 0.29423 0.19696 0.0
H3767 H 0.74131 0.32865 0.15169 0.0
H3768 H 0.70632 0.27448 0.12758 0.0
H3769 H 0.69856 0.24027 0.12245 0.0
H3770 H 0.75197 0.2323 0.09411 0.0
H3771 H 0.76017 0.2664 0.09929 0.0
C3772 C 0.74916 0.36029 0.06188 0.0
C3773 C 0.7639 0.35325 0.05028 0.0
C3774 C 0.7444 0.35114 0.07927 0.0
C3775 C 0.75444 0.33499 0.08545 0.0
C3776 C 0.76961 0.32843 0.07428 0.0
C3777 C 0.7743 0.33746 0.05686 0.0
C3778 C 0.74864 0.32424 0.10301 0.0
C3779 C 0.7443 0.30464 0.10107 0.0
C3780 C 0.74714 0.33308 0.1214 0.0
C3781 C 0.75201 0.3536 0.12453 0.0
C3782 C 0.77004 0.36086 0.11962 0.0
C3783 C 0.77448 0.38023 0.12261 0.0
C3784 C 0.76105 0.39246 0.1306 0.0
C3785 C 0.74316 0.38532 0.13568 0.0
C3786 C 0.73864 0.36596 0.13272 0.0
C3787 C 0.74519 0.26595 0.1757 0.0
C3788 C 0.73332 0.27307 0.19027 0.0
C3789 C 0.74614 0.27498 0.15764 0.0
C3790 C 0.73483 0.29095 0.15364 0.0
C3791 C 0.72208 0.29729 0.16779 0.0
C3792 C 0.72141 0.28851 0.186 0.0
C3793 C 0.73785 0.30224 0.13563 0.0
C3794 C 0.74167 0.32199 0.13745 0.0
C3795 C 0.73881 0.29352 0.11709 0.0
C3796 C 0.7339 0.27299 0.11394 0.0
C3797 C 0.71647 0.26541 0.12038 0.0
C3798 C 0.71198 0.24604 0.11743 0.0
C3799 C 0.72478 0.23412 0.10799 0.0
C3800 C 0.74207 0.24155 0.10143 0.0
C3801 C 0.74663 0.2609 0.10433 0.0
H3802 H 0.72128 0.21913 0.10573 0.0
H3803 H 0.76452 0.40745 0.1329 0.0
H3804 H 0.91478 0.4935 0.32765 0.0
H3805 H 0.92176 0.47625 0.35732 0.0
H3806 H 0.86257 0.4764 0.37276 0.0
H3807 H 0.85532 0.49362 0.34248 0.0
H3808 H 0.88549 0.4901 0.40156 0.0
H3809 H 0.88125 0.43334 0.36753 0.0
H3810 H 0.8835 0.41087 0.34001 0.0
H3811 H 0.94421 0.41428 0.34283 0.0
H3812 H 0.9424 0.43697 0.37017 0.0
H3813 H 0.95764 0.45107 0.47386 0.0
H3814 H 0.93365 0.44117 0.44965 0.0
H3815 H 0.94716 0.49123 0.41542 0.0
H3816 H 0.97083 0.50118 0.43928 0.0
H3817 H 0.93286 0.43812 0.40416 0.0
H3818 H 0.90499 0.51583 0.41582 0.0
H3819 H 0.90412 0.53925 0.44258 0.0
H3820 H 0.90693 0.49362 0.48424 0.0
H3821 H 0.9064 0.46982 0.45784 0.0
C3822 C 0.90315 0.4897 0.33716 0.0
C3823 C 0.88451 0.49499 0.33276 0.0
C3824 C 0.90713 0.47959 0.35404 0.0
C3825 C 0.89261 0.47462 0.36702 0.0
C3826 C 0.87391 0.47981 0.36274 0.0
C3827 C 0.86984 0.48978 0.34557 0.0
C3828 C 0.898 0.46665 0.38612 0.0
C3829 C 0.89537 0.47835 0.40241 0.0
C3830 C 0.91028 0.4508 0.38737 0.0
C3831 C 0.91167 0.43686 0.37105 0.0
C3832 C 0.8951 0.42936 0.36227 0.0
C3833 C 0.89629 0.41657 0.34668 0.0
C3834 C 0.91398 0.41114 0.33969 0.0
C3835 C 0.93051 0.41845 0.34831 0.0
C3836 C 0.92941 0.43124 0.36392 0.0
C3837 C 0.95584 0.45962 0.46086 0.0
C3838 C 0.96582 0.47707 0.45858 0.0
C3839 C 0.94218 0.45393 0.44709 0.0
C3840 C 0.93851 0.46568 0.43102 0.0
C3841 C 0.9497 0.48212 0.42789 0.0
C3842 C 0.96317 0.48782 0.44157 0.0
C3843 C 0.92162 0.46281 0.41861 0.0
C3844 C 0.92216 0.44913 0.40371 0.0
C3845 C 0.90716 0.4767 0.41872 0.0
C3846 C 0.90575 0.49096 0.43475 0.0
C3847 C 0.90497 0.51071 0.43067 0.0
C3848 C 0.90467 0.52409 0.44581 0.0
C3849 C 0.90535 0.51792 0.4651 0.0
C3850 C 0.90618 0.49837 0.46931 0.0
C3851 C 0.90606 0.48493 0.45426 0.0
H3852 H 0.90521 0.52827 0.47679 0.0
H3853 H 0.91487 0.40128 0.32759 0.0
H3854 H 0.73559 0.69285 0.52959 0.0
H3855 H 0.74708 0.70844 0.55927 0.0
H3856 H 0.76489 0.65381 0.5817 0.0
H3857 H 0.75347 0.63803 0.55213 0.0
H3858 H 0.74625 0.67594 0.6091 0.0
H3859 H 0.79746 0.6826 0.5638 0.0
H3860 H 0.81194 0.69128 0.53242 0.0
H3861 H 0.79599 0.74993 0.54062 0.0
H3862 H 0.78118 0.74154 0.57196 0.0
H3863 H 0.79837 0.71171 0.68777 0.0
H3864 H 0.794 0.69576 0.65646 0.0
H3865 H 0.77614 0.74901 0.63088 0.0
H3866 H 0.7807 0.7652 0.66201 0.0
H3867 H 0.79604 0.72671 0.60498 0.0
H3868 H 0.74445 0.71983 0.65019 0.0
H3869 H 0.7306 0.71121 0.68188 0.0
H3870 H 0.7467 0.65263 0.67362 0.0
H3871 H 0.76123 0.66103 0.64215 0.0
C3872 C 0.74182 0.6841 0.54087 0.0
C3873 C 0.74368 0.66419 0.53842 0.0
C3874 C 0.74846 0.69306 0.55778 0.0
C3875 C 0.75702 0.68228 0.57254 0.0
C3876 C 0.75837 0.66236 0.57043 0.0
C3877 C 0.75187 0.6534 0.55348 0.0
C3878 C 0.7648 0.69185 0.59008 0.0
C3879 C 0.75733 0.68684 0.60825 0.0
C3880 C 0.77901 0.70628 0.58886 0.0
C3881 C 0.78807 0.71142 0.57014 0.0
C3882 C 0.79692 0.69733 0.55885 0.0
C3883 C 0.80521 0.70219 0.54108 0.0
C3884 C 0.80484 0.72114 0.53451 0.0
C3885 C 0.79624 0.73526 0.54572 0.0
C3886 C 0.78792 0.73047 0.5635 0.0
C3887 C 0.79399 0.72018 0.67539 0.0
C3888 C 0.7895 0.73966 0.67752 0.0
C3889 C 0.79147 0.71101 0.65751 0.0
C3890 C 0.7843 0.72113 0.64153 0.0
C3891 C 0.78155 0.74093 0.6431 0.0
C3892 C 0.78412 0.75014 0.66095 0.0
C3893 C 0.77753 0.71076 0.62401 0.0
C3894 C 0.78508 0.7157 0.60585 0.0
C3895 C 0.76334 0.69626 0.62522 0.0
C3896 C 0.75412 0.6911 0.6439 0.0
C3897 C 0.74516 0.70514 0.65518 0.0
C3898 C 0.73719 0.70029 0.67311 0.0
C3899 C 0.73776 0.68138 0.67975 0.0
C3900 C 0.74629 0.66728 0.66847 0.0
C3901 C 0.75444 0.67208 0.6506 0.0
H3902 H 0.73157 0.67766 0.69363 0.0
H3903 H 0.81126 0.72488 0.52074 0.0
H3904 H 0.66442 0.61933 0.47693 0.0
H3905 H 0.63749 0.59841 0.48471 0.0
H3906 H 0.67389 0.5625 0.5191 0.0
H3907 H 0.70096 0.5833 0.51145 0.0
H3908 H 0.63021 0.55863 0.47982 0.0
H3909 H 0.64783 0.55128 0.56031 0.0
H3910 H 0.66693 0.56749 0.58571 0.0
H3911 H 0.65905 0.6216 0.55723 0.0
H3912 H 0.63972 0.60572 0.53182 0.0
H3913 H 0.56059 0.49824 0.52669 0.0
H3914 H 0.59239 0.51129 0.52022 0.0
H3915 H 0.5725 0.56835 0.53178 0.0
H3916 H 0.54062 0.55552 0.53782 0.0
H3917 H 0.6099 0.55803 0.54883 0.0
H3918 H 0.5731 0.55763 0.48829 0.0
H3919 H 0.554 0.54129 0.463 0.0
H3920 H 0.6 0.50328 0.45142 0.0
H3921 H 0.61926 0.51923 0.47688 0.0
C3922 C 0.66677 0.60691 0.48602 0.0
C3923 C 0.68482 0.60314 0.49376 0.0
C3924 C 0.65139 0.5949 0.49033 0.0
C3925 C 0.65373 0.57903 0.50257 0.0
C3926 C 0.67182 0.57477 0.50972 0.0
C3927 C 0.68725 0.5867 0.50533 0.0
C3928 C 0.63694 0.5679 0.50895 0.0
C3929 C 0.62587 0.55833 0.49492 0.0
C3930 C 0.63134 0.56747 0.52867 0.0
C3931 C 0.64251 0.57728 0.5441 0.0
C3932 C 0.65012 0.56664 0.55954 0.0
C3933 C 0.66099 0.57577 0.57392 0.0
C3934 C 0.66425 0.59555 0.57305 0.0
C3935 C 0.65657 0.60627 0.55785 0.0
C3936 C 0.64567 0.59721 0.54345 0.0
C3937 C 0.56308 0.51354 0.5281 0.0
C3938 C 0.54815 0.52592 0.53261 0.0
C3939 C 0.5812 0.52093 0.52439 0.0
C3940 C 0.58466 0.54073 0.52552 0.0
C3941 C 0.57002 0.55301 0.53091 0.0
C3942 C 0.55184 0.54569 0.53423 0.0
C3943 C 0.60312 0.54897 0.51968 0.0
C3944 C 0.61447 0.55799 0.5338 0.0
C3945 C 0.609 0.54886 0.50007 0.0
C3946 C 0.59752 0.53946 0.48462 0.0
C3947 C 0.57907 0.54568 0.48046 0.0
C3948 C 0.56823 0.53651 0.46608 0.0
C3949 C 0.57576 0.52121 0.45565 0.0
C3950 C 0.59417 0.5151 0.45954 0.0
C3951 C 0.60506 0.52421 0.47393 0.0
H3952 H 0.56735 0.51413 0.44452 0.0
H3953 H 0.67271 0.60259 0.58418 0.0
H3954 H 0.20554 0.88526 0.53198 0.0
H3955 H 0.17788 0.89435 0.55094 0.0
H3956 H 0.18899 0.9539 0.5377 0.0
H3957 H 0.21728 0.94484 0.51939 0.0
H3958 H 0.17049 0.94922 0.57325 0.0
H3959 H 0.16393 0.92711 0.50597 0.0
H3960 H 0.16838 0.90341 0.47981 0.0
H3961 H 0.13734 0.86125 0.51268 0.0
H3962 H 0.13294 0.88469 0.53915 0.0
H3963 H 0.09107 0.99671 0.54109 0.0
H3964 H 0.12009 0.98075 0.55009 0.0
H3965 H 0.0888 0.92815 0.56014 0.0
H3966 H 0.05943 0.94405 0.55064 0.0
H3967 H 0.11604 0.92276 0.53555 0.0
H3968 H 0.11387 0.95053 0.59777 0.0
H3969 H 0.10911 0.97562 0.62243 0.0
H3970 H 0.15551 0.00839 0.5989 0.0
H3971 H 0.1604 0.98366 0.57389 0.0
C3972 C 0.20234 0.90033 0.53359 0.0
C3973 C 0.21309 0.91438 0.52389 0.0
C3974 C 0.18666 0.9055 0.54453 0.0
C3975 C 0.18117 0.92473 0.5453 0.0
C3976 C 0.19299 0.93896 0.53722 0.0
C3977 C 0.20902 0.9338 0.52664 0.0
C3978 C 0.16159 0.92955 0.55082 0.0
C3979 C 0.1585 0.94344 0.56515 0.0
C3980 C 0.14595 0.92151 0.54061 0.0
C3981 C 0.1483 0.90754 0.52459 0.0
C3982 C 0.15814 0.91275 0.50763 0.0
C3983 C 0.16065 0.89938 0.49276 0.0
C3984 C 0.15319 0.88082 0.49461 0.0
C3985 C 0.14314 0.87562 0.5113 0.0
C3986 C 0.14064 0.88894 0.52623 0.0
C3987 C 0.09022 0.98181 0.54548 0.0
C3988 C 0.07296 0.97155 0.5448 0.0
C3989 C 0.10686 0.97277 0.55094 0.0
C3990 C 0.10662 0.95331 0.55605 0.0
C3991 C 0.08926 0.94323 0.55638 0.0
C3992 C 0.07253 0.95229 0.55083 0.0
C3993 C 0.12479 0.94307 0.55755 0.0
C3994 C 0.12775 0.92811 0.54436 0.0
C3995 C 0.14019 0.95029 0.56875 0.0
C3996 C 0.13748 0.96519 0.5839 0.0
C3997 C 0.12301 0.96313 0.59777 0.0
C3998 C 0.12029 0.97729 0.61183 0.0
C3999 C 0.132 0.99359 0.61223 0.0
C4000 C 0.14647 0.99574 0.59859 0.0
C4001 C 0.14925 0.98162 0.58449 0.0
H4002 H 0.12985 0.00455 0.62311 0.0
H4003 H 0.15516 0.87048 0.48309 0.0
H4004 H 0.37757 0.91841 0.80415 0.0
H4005 H 0.36026 0.88793 0.80462 0.0
H4006 H 0.31372 0.91382 0.77393 0.0
H4007 H 0.33084 0.94448 0.77347 0.0
H4008 H 0.30162 0.88959 0.80322 0.0
H4009 H 0.34514 0.88851 0.74932 0.0
H4010 H 0.37649 0.89126 0.73382 0.0
H4011 H 0.39717 0.84566 0.7697 0.0
H4012 H 0.36598 0.84282 0.78561 0.0
H4013 H 0.25621 0.81292 0.75424 0.0
H4014 H 0.27269 0.84185 0.76517 0.0
H4015 H 0.31573 0.8075 0.79235 0.0
H4016 H 0.29939 0.77829 0.78124 0.0
H4017 H 0.33086 0.83467 0.76927 0.0
H4018 H 0.28531 0.83299 0.82004 0.0
H4019 H 0.25358 0.8303 0.83469 0.0
H4020 H 0.23618 0.8809 0.80428 0.0
H4021 H 0.26773 0.88374 0.78921 0.0
C4022 C 0.36363 0.9177 0.79752 0.0
C4023 C 0.35571 0.93387 0.7885 0.0
C4024 C 0.35375 0.90024 0.79785 0.0
C4025 C 0.33582 0.89859 0.78912 0.0
C4026 C 0.32757 0.91482 0.78074 0.0
C4027 C 0.33743 0.93231 0.7804 0.0
C4028 C 0.32608 0.87973 0.78774 0.0
C4029 C 0.30792 0.87758 0.79571 0.0
C4030 C 0.33458 0.86397 0.77839 0.0
C4031 C 0.35331 0.86561 0.76882 0.0
C4032 C 0.35642 0.87918 0.75402 0.0
C4033 C 0.37415 0.88074 0.74514 0.0
C4034 C 0.38883 0.86868 0.75081 0.0
C4035 C 0.3858 0.85501 0.76535 0.0
C4036 C 0.3681 0.85342 0.7743 0.0
C4037 C 0.26907 0.81144 0.76273 0.0
C4038 C 0.27655 0.79326 0.76675 0.0
C4039 C 0.2784 0.82804 0.7691 0.0
C4040 C 0.29535 0.82683 0.77971 0.0
C4041 C 0.30262 0.80872 0.78422 0.0
C4042 C 0.29325 0.79206 0.77789 0.0
C4043 C 0.30622 0.84452 0.78451 0.0
C4044 C 0.32462 0.84651 0.77711 0.0
C4045 C 0.29788 0.86013 0.79432 0.0
C4046 C 0.27887 0.8585 0.80338 0.0
C4047 C 0.27468 0.84346 0.81635 0.0
C4048 C 0.25673 0.84193 0.82475 0.0
C4049 C 0.24286 0.8554 0.82039 0.0
C4050 C 0.24694 0.87046 0.80764 0.0
C4051 C 0.26486 0.87206 0.79918 0.0
H4052 H 0.22897 0.85418 0.82692 0.0
H4053 H 0.40255 0.8699 0.74391 0.0
H4054 H 0.2836 0.07148 0.01771 0.0
H4055 H 0.3171 0.06629 0.02472 0.0
H4056 H 0.32854 0.1268 0.01744 0.0
H4057 H 0.29516 0.13194 0.00976 0.0
H4058 H 0.35335 0.10828 -0.00133 0.0
H4059 H 0.33075 0.10472 0.06293 0.0
H4060 H 0.31016 0.09483 0.09008 0.0
H4061 H 0.32695 0.03634 0.08259 0.0
H4062 H 0.34743 0.04583 0.0552 0.0
H4063 H 0.44164 0.06291 0.05274 0.0
H4064 H 0.41125 0.07955 0.05429 0.0
H4065 H 0.39955 0.06342 0.99481 0.0
H4066 H 0.43 0.04775 0.99295 0.0
H4067 H 0.37706 0.0672 0.05209 0.0
H4068 H 0.37285 0.09319 0.97144 0.0
H4069 H 0.39437 0.10607 0.94637 0.0
H4070 H 0.43297 0.1258 0.99063 0.0
H4071 H 0.41155 0.11332 0.01601 0.0
C4072 C 0.29323 0.08369 0.01778 0.0
C4073 C 0.28681 0.10208 0.01307 0.0
C4074 C 0.31237 0.08075 0.02193 0.0
C4075 C 0.32535 0.0962 0.02182 0.0
C4076 C 0.31882 0.11466 0.01759 0.0
C4077 C 0.29974 0.11757 0.0132 0.0
C4078 C 0.34589 0.09279 0.0247 0.0
C4079 C 0.35856 0.09946 0.01046 0.0
C4080 C 0.35285 0.08182 0.04042 0.0
C4081 C 0.34056 0.07599 0.05691 0.0
C4082 C 0.32996 0.08973 0.06698 0.0
C4083 C 0.31832 0.08419 0.08243 0.0
C4084 C 0.31723 0.06496 0.08804 0.0
C4085 C 0.32781 0.05123 0.07823 0.0
C4086 C 0.33946 0.05669 0.06275 0.0
C4087 C 0.43265 0.0632 0.03995 0.0
C4088 C 0.43824 0.05415 0.02267 0.0
C4089 C 0.4153 0.07265 0.04085 0.0
C4090 C 0.40323 0.07305 0.02456 0.0
C4091 C 0.40882 0.06389 0.00739 0.0
C4092 C 0.42622 0.05481 0.00637 0.0
C4093 C 0.38428 0.08198 0.02558 0.0
C4094 C 0.37192 0.07636 0.04053 0.0
C4095 C 0.37773 0.09443 0.01084 0.0
C4096 C 0.39057 0.10228 0.99565 0.0
C4097 C 0.38584 0.10042 0.97585 0.0
C4098 C 0.39804 0.10763 0.96158 0.0
C4099 C 0.41498 0.11681 0.96691 0.0
C4100 C 0.41981 0.11873 0.98653 0.0
C4101 C 0.40765 0.11157 0.00086 0.0
H4102 H 0.42438 0.12243 0.95585 0.0
H4103 H 0.30821 0.06071 0.10001 0.0
H4104 H 0.63863 0.58414 0.81074 0.0
H4105 H 0.66094 0.61122 0.81134 0.0
H4106 H 0.69276 0.58551 0.76491 0.0
H4107 H 0.67087 0.55815 0.76459 0.0
H4108 H 0.71616 0.60169 0.79106 0.0
H4109 H 0.65944 0.62039 0.75606 0.0
H4110 H 0.62509 0.62545 0.75232 0.0
H4111 H 0.626 0.66419 0.80085 0.0
H4112 H 0.66033 0.65917 0.80501 0.0
H4113 H 0.75949 0.68314 0.74603 0.0
H4114 H 0.74306 0.6536 0.75585 0.0
H4115 H 0.71315 0.68489 0.80007 0.0
H4116 H 0.72902 0.71444 0.78991 0.0
H4117 H 0.68932 0.66594 0.77873 0.0
H4118 H 0.74691 0.65047 0.81133 0.0
H4119 H 0.7813 0.64571 0.81495 0.0
H4120 H 0.77928 0.60148 0.77155 0.0
H4121 H 0.74491 0.60616 0.76746 0.0
C4122 C 0.6504 0.58424 0.80068 0.0
C4123 C 0.65285 0.56914 0.78742 0.0
C4124 C 0.66315 0.59969 0.80108 0.0
C4125 C 0.67833 0.6005 0.78797 0.0
C4126 C 0.68114 0.58516 0.77516 0.0
C4127 C 0.66855 0.56959 0.77492 0.0
C4128 C 0.69064 0.61778 0.78671 0.0
C4129 C 0.71036 0.61575 0.78826 0.0
C4130 C 0.68299 0.63616 0.78354 0.0
C4131 C 0.66238 0.63925 0.78097 0.0
C4132 C 0.65228 0.62989 0.76601 0.0
C4133 C 0.63282 0.63276 0.7638 0.0
C4134 C 0.62336 0.64509 0.77637 0.0
C4135 C 0.63334 0.65462 0.79114 0.0
C4136 C 0.65279 0.65177 0.79342 0.0
C4137 C 0.74964 0.68361 0.75804 0.0
C4138 C 0.74531 0.70108 0.76703 0.0
C4139 C 0.74034 0.66672 0.76373 0.0
C4140 C 0.72691 0.66703 0.77875 0.0
C4141 C 0.72338 0.68433 0.78839 0.0
C4142 C 0.73242 0.70121 0.78253 0.0
C4143 C 0.71496 0.64994 0.78294 0.0
C4144 C 0.69523 0.65198 0.78185 0.0
C4145 C 0.72265 0.63164 0.78655 0.0
C4146 C 0.74334 0.62878 0.78897 0.0
C4147 C 0.75382 0.63984 0.80244 0.0
C4148 C 0.7733 0.63713 0.8046 0.0
C4149 C 0.78247 0.62333 0.79346 0.0
C4150 C 0.77216 0.61218 0.78016 0.0
C4151 C 0.75267 0.61483 0.77793 0.0
H4152 H 0.79756 0.62126 0.79516 0.0
H4153 H 0.60829 0.6473 0.77464 0.0
H4154 H 0.83316 0.39461 0.97775 0.0
H4155 H 0.85964 0.41702 0.98117 0.0
H4156 H 0.82333 0.4577 0.00923 0.0
H4157 H 0.79649 0.43518 0.00611 0.0
H4158 H 0.855 0.47187 0.97896 0.0
H4159 H 0.84345 0.43738 0.03947 0.0
H4160 H 0.83613 0.40783 0.05777 0.0
H4161 H 0.88618 0.38159 0.0352 0.0
H4162 H 0.8936 0.41092 0.0165 0.0
H4163 H 0.9348 0.52111 0.02319 0.0
H4164 H 0.90353 0.50706 0.01615 0.0
H4165 H 0.92928 0.45232 0.00534 0.0
H4166 H 0.96036 0.46605 0.01264 0.0
H4167 H 0.9002 0.44815 0.02863 0.0
H4168 H 0.91247 0.48049 0.96832 0.0
H4169 H 0.92015 0.50801 0.94718 0.0
H4170 H 0.87016 0.53675 0.96645 0.0
H4171 H 0.86232 0.50948 0.98792 0.0
C4172 C 0.83061 0.40839 0.98443 0.0
C4173 C 0.81273 0.41292 0.99202 0.0
C4174 C 0.84578 0.42123 0.98623 0.0
C4175 C 0.84339 0.4389 0.99551 0.0
C4176 C 0.82535 0.44411 0.00195 0.0
C4177 C 0.8101 0.43117 0.00027 0.0
C4178 C 0.86032 0.45044 0.00072 0.0
C4179 C 0.86476 0.46702 0.99009 0.0
C4180 C 0.87315 0.4437 0.01487 0.0
C4181 C 0.86899 0.42627 0.0265 0.0
C4182 C 0.85282 0.42526 0.03832 0.0
C4183 C 0.84866 0.40856 0.04877 0.0
C4184 C 0.86067 0.39283 0.04762 0.0
C4185 C 0.87689 0.39379 0.03607 0.0
C4186 C 0.88109 0.41045 0.02556 0.0
C4187 C 0.93379 0.5061 0.01922 0.0
C4188 C 0.95008 0.49469 0.01858 0.0
C4189 C 0.91593 0.49812 0.01512 0.0
C4190 C 0.91408 0.47866 0.01015 0.0
C4191 C 0.93035 0.46736 0.00922 0.0
C4192 C 0.94814 0.47526 0.01339 0.0
C4193 C 0.89522 0.46964 0.00674 0.0
C4194 C 0.89039 0.45338 0.01773 0.0
C4195 C 0.88222 0.47662 0.99276 0.0
C4196 C 0.88694 0.49306 0.97992 0.0
C4197 C 0.90321 0.49276 0.9682 0.0
C4198 C 0.90757 0.5083 0.95612 0.0
C4199 C 0.89569 0.52415 0.95552 0.0
C4200 C 0.87938 0.52448 0.96696 0.0
C4201 C 0.87496 0.50898 0.97908 0.0
H4202 H 0.89908 0.53616 0.94616 0.0
H4203 H 0.85741 0.3799 0.05571 0.0
H4204 H 0.36545 0.05327 0.75383 0.0
H4205 H 0.3504 0.08261 0.74279 0.0
H4206 H 0.29528 0.05662 0.7516 0.0
H4207 H 0.31045 0.02668 0.76178 0.0
H4208 H 0.29445 0.08005 0.72076 0.0
H4209 H 0.31548 0.08533 0.78666 0.0
H4210 H 0.33808 0.0833 0.81398 0.0
H4211 H 0.37437 0.12498 0.78652 0.0
H4212 H 0.35211 0.12705 0.75889 0.0
H4213 H 0.25088 0.17242 0.73863 0.0
H4214 H 0.26164 0.13921 0.73839 0.0
H4215 H 0.31781 0.15851 0.72273 0.0
H4216 H 0.30729 0.19165 0.72292 0.0
H4217 H 0.31604 0.13778 0.75719 0.0
H4218 H 0.29295 0.13273 0.69132 0.0
H4219 H 0.2688 0.13485 0.66544 0.0
H4220 H 0.2341 0.09323 0.69501 0.0
H4221 H 0.25793 0.09105 0.72122 0.0
C4222 C 0.35012 0.05375 0.75322 0.0
C4223 C 0.33906 0.03791 0.75897 0.0
C4224 C 0.34154 0.0705 0.74692 0.0
C4225 C 0.32172 0.07199 0.74691 0.0
C4226 C 0.3106 0.05582 0.75164 0.0
C4227 C 0.31924 0.03879 0.75751 0.0
C4228 C 0.3129 0.09087 0.7434 0.0
C4229 C 0.29899 0.09265 0.72886 0.0
C4230 C 0.31885 0.10732 0.75395 0.0
C4231 C 0.3322 0.10623 0.77063 0.0
C4232 C 0.32834 0.09397 0.78639 0.0
C4233 C 0.34108 0.09282 0.80194 0.0
C4234 C 0.35767 0.10397 0.80197 0.0
C4235 C 0.36153 0.11633 0.78647 0.0
C4236 C 0.34884 0.11752 0.77087 0.0
C4237 C 0.26541 0.16958 0.73467 0.0
C4238 C 0.27831 0.18473 0.7311 0.0
C4239 C 0.2715 0.15058 0.73447 0.0
C4240 C 0.29052 0.14647 0.73062 0.0
C4241 C 0.30308 0.16144 0.72579 0.0
C4242 C 0.29703 0.18038 0.72595 0.0
C4243 C 0.29801 0.1271 0.73421 0.0
C4244 C 0.31154 0.1252 0.74901 0.0
C4245 C 0.29144 0.11063 0.72412 0.0
C4246 C 0.27714 0.11187 0.70834 0.0
C4247 C 0.28009 0.12416 0.6924 0.0
C4248 C 0.26648 0.12534 0.67765 0.0
C4249 C 0.2499 0.11422 0.67861 0.0
C4250 C 0.24693 0.10185 0.6943 0.0
C4251 C 0.2605 0.10062 0.70909 0.0
H4252 H 0.23938 0.11516 0.66717 0.0
H4253 H 0.36752 0.10306 0.81402 0.0
H4254 H 0.13258 0.9451 0.26238 0.0
H4255 H 0.1505 0.91554 0.25907 0.0
H4256 H 0.20054 0.9484 0.24418 0.0
H4257 H 0.18261 0.97814 0.24726 0.0
H4258 H 0.17104 0.90023 0.22766 0.0
H4259 H 0.23771 0.92413 0.26973 0.0
H4260 H 0.2477 0.94834 0.29398 0.0
H4261 H 0.19117 0.9496 0.31672 0.0
H4262 H 0.18096 0.92512 0.29289 0.0
H4263 H 0.23761 0.82374 0.22714 0.0
H4264 H 0.22607 0.85663 0.22473 0.0
H4265 H 0.20433 0.85278 0.2831 0.0
H4266 H 0.21572 0.81998 0.28566 0.0
H4267 H 0.22247 0.88787 0.27529 0.0
H4268 H 0.17515 0.84488 0.24687 0.0
H4269 H 0.16412 0.82 0.22384 0.0
H4270 H 0.1799 0.85604 0.17583 0.0
H4271 H 0.19127 0.88103 0.19862 0.0
C4272 C 0.14735 0.94604 0.25824 0.0
C4273 C 0.15625 0.96389 0.25518 0.0
C4274 C 0.15753 0.92915 0.25627 0.0
C4275 C 0.17682 0.92986 0.25149 0.0
C4276 C 0.18566 0.94763 0.24796 0.0
C4277 C 0.17541 0.96455 0.24969 0.0
C4278 C 0.18773 0.91194 0.25121 0.0
C4279 C 0.18244 0.8976 0.2379 0.0
C4280 C 0.20252 0.90854 0.26467 0.0
C4281 C 0.20851 0.92305 0.27929 0.0
C4282 C 0.22743 0.92956 0.27993 0.0
C4283 C 0.23313 0.94332 0.2936 0.0
C4284 C 0.22004 0.95062 0.30677 0.0
C4285 C 0.20126 0.94405 0.3064 0.0
C4286 C 0.19551 0.93023 0.29281 0.0
C4287 C 0.23053 0.82996 0.23953 0.0
C4288 C 0.22741 0.81921 0.25653 0.0
C4289 C 0.22395 0.84872 0.2381 0.0
C4290 C 0.2143 0.85703 0.2537 0.0
C4291 C 0.2118 0.8466 0.27093 0.0
C4292 C 0.21819 0.82781 0.2723 0.0
C4293 C 0.20569 0.87613 0.25182 0.0
C4294 C 0.21138 0.89067 0.26473 0.0
C4295 C 0.19117 0.87968 0.23811 0.0
C4296 C 0.18426 0.86471 0.22443 0.0
C4297 C 0.17641 0.84742 0.2314 0.0
C4298 C 0.17007 0.83332 0.2184 0.0
C4299 C 0.17136 0.83641 0.19838 0.0
C4300 C 0.17894 0.85364 0.19133 0.0
C4301 C 0.18533 0.86779 0.20429 0.0
H4302 H 0.16644 0.82547 0.18833 0.0
H4303 H 0.22448 0.96128 0.31733 0.0
H4304 H 0.52206 0.33257 0.37406 0.0
H4305 H 0.52401 0.36421 0.38975 0.0
H4306 H 0.51682 0.33739 0.4458 0.0
H4307 H 0.5144 0.3061 0.4303 0.0
H4308 H 0.49127 0.36451 0.43988 0.0
H4309 H 0.55894 0.35737 0.43166 0.0
H4310 H 0.58796 0.35253 0.41254 0.0
H4311 H 0.5769 0.40377 0.38007 0.0
H4312 H 0.54763 0.40875 0.39881 0.0
H4313 H 0.5183 0.43116 0.51131 0.0
H4314 H 0.52656 0.40715 0.48692 0.0
H4315 H 0.50053 0.44128 0.4422 0.0
H4316 H 0.49191 0.46524 0.46654 0.0
H4317 H 0.5424 0.41401 0.43821 0.0
H4318 H 0.4716 0.41727 0.44383 0.0
H4319 H 0.44345 0.42191 0.4644 0.0
H4320 H 0.46213 0.37738 0.50277 0.0
H4321 H 0.49049 0.37264 0.48249 0.0
C4322 C 0.52121 0.3335 0.38975 0.0
C4323 C 0.51778 0.31702 0.401 0.0
C4324 C 0.52237 0.35151 0.39867 0.0
C4325 C 0.5204 0.3531 0.41891 0.0
C4326 C 0.51816 0.33647 0.43015 0.0
C4327 C 0.51679 0.31862 0.42128 0.0
C4328 C 0.51887 0.37194 0.42851 0.0
C4329 C 0.50248 0.3753 0.43939 0.0
C4330 C 0.53329 0.3862 0.42759 0.0
C4331 C 0.55098 0.38331 0.41649 0.0
C4332 C 0.56261 0.36752 0.42034 0.0
C4333 C 0.57912 0.36476 0.40958 0.0
C4334 C 0.58424 0.3778 0.39506 0.0
C4335 C 0.57289 0.39366 0.3913 0.0
C4336 C 0.55635 0.39646 0.40199 0.0
C4337 C 0.5147 0.43375 0.49623 0.0
C4338 C 0.50413 0.44982 0.49083 0.0
C4339 C 0.51956 0.42014 0.48233 0.0
C4340 C 0.5142 0.42261 0.46286 0.0
C4341 C 0.50489 0.4393 0.45717 0.0
C4342 C 0.49976 0.45278 0.47111 0.0
C4343 C 0.51502 0.40615 0.44958 0.0
C4344 C 0.53114 0.40328 0.43818 0.0
C4345 C 0.50039 0.39223 0.44988 0.0
C4346 C 0.48317 0.39472 0.46178 0.0
C4347 C 0.46972 0.40855 0.45672 0.0
C4348 C 0.45375 0.4112 0.46831 0.0
C4349 C 0.45104 0.4 0.48493 0.0
C4350 C 0.46426 0.38607 0.48992 0.0
C4351 C 0.48027 0.38338 0.47838 0.0
H4352 H 0.43868 0.40209 0.4939 0.0
H4353 H 0.59702 0.37564 0.38675 0.0
H4354 H 0.45924 0.73902 0.17655 0.0
H4355 H 0.42861 0.73165 0.19159 0.0
H4356 H 0.40156 0.73383 0.13528 0.0
H4357 H 0.43195 0.74176 0.12035 0.0
H4358 H 0.38782 0.75965 0.15863 0.0
H4359 H 0.40024 0.69295 0.16319 0.0
H4360 H 0.41781 0.66367 0.17122 0.0
H4361 H 0.41646 0.67832 0.2318 0.0
H4362 H 0.39915 0.70786 0.22413 0.0
H4363 H 0.29642 0.75386 0.19986 0.0
H4364 H 0.32444 0.74599 0.1809 0.0
H4365 H 0.35768 0.74318 0.23359 0.0
H4366 H 0.3295 0.75033 0.25272 0.0
H4367 H 0.3662 0.71423 0.20956 0.0
H4368 H 0.35903 0.78304 0.20416 0.0
H4369 H 0.34177 0.81265 0.19652 0.0
H4370 H 0.3341 0.7938 0.13757 0.0
H4371 H 0.35114 0.76397 0.14494 0.0
C4372 C 0.44683 0.73733 0.16736 0.0
C4373 C 0.44777 0.74136 0.14741 0.0
C4374 C 0.42936 0.73299 0.17593 0.0
C4375 C 0.41279 0.73233 0.16455 0.0
C4376 C 0.41416 0.73441 0.14433 0.0
C4377 C 0.43149 0.73902 0.13584 0.0
C4378 C 0.394 0.73341 0.17387 0.0
C4379 C 0.38292 0.74941 0.16943 0.0
C4380 C 0.38788 0.72041 0.18838 0.0
C4381 C 0.39853 0.70275 0.19304 0.0
C4382 C 0.40386 0.69005 0.17821 0.0
C4383 C 0.41374 0.67337 0.1827 0.0
C4384 C 0.41829 0.66916 0.202 0.0
C4385 C 0.41295 0.68161 0.21685 0.0
C4386 C 0.40308 0.69832 0.21244 0.0
C4387 C 0.30976 0.75182 0.20738 0.0
C4388 C 0.3109 0.75303 0.22772 0.0
C4389 C 0.32571 0.74719 0.19655 0.0
C4390 C 0.34315 0.74418 0.20585 0.0
C4391 C 0.34432 0.74541 0.22616 0.0
C4392 C 0.3283 0.74969 0.23703 0.0
C4393 C 0.36037 0.74053 0.19439 0.0
C4394 C 0.37109 0.72418 0.1985 0.0
C4395 C 0.36633 0.75324 0.1796 0.0
C4396 C 0.35618 0.77121 0.17515 0.0
C4397 C 0.35355 0.78517 0.18961 0.0
C4398 C 0.34383 0.80199 0.18532 0.0
C4399 C 0.3368 0.80508 0.16659 0.0
C4400 C 0.33953 0.79138 0.15208 0.0
C4401 C 0.34923 0.77452 0.1563 0.0
H4402 H 0.32927 0.81812 0.1633 0.0
H4403 H 0.42592 0.65623 0.20545 0.0
H4404 H 0.02837 0.72024 0.90999 0.0
H4405 H 0.02937 0.68758 0.92259 0.0
H4406 H 0.01093 0.70753 0.97861 0.0
H4407 H 0.00955 0.74032 0.96612 0.0
H4408 H 0.03996 0.67498 0.97733 0.0
H4409 H 0.97772 0.69542 0.95396 0.0
H4410 H 0.9574 0.71025 0.92905 0.0
H4411 H 0.97421 0.66778 0.88757 0.0
H4412 H 0.99491 0.65292 0.91218 0.0
H4413 H 0.9798 0.59012 0.00508 0.0
H4414 H 0.98124 0.62223 0.99068 0.0
H4415 H 0.03161 0.60696 0.95937 0.0
H4416 H 0.03025 0.5749 0.97334 0.0
H4417 H 0.98619 0.63742 0.94907 0.0
H4418 H 0.06299 0.64168 0.97334 0.0
H4419 H 0.08411 0.62555 0.99674 0.0
H4420 H 0.0377 0.61814 0.03628 0.0
H4421 H 0.01638 0.63434 0.01319 0.0
C4422 C 0.02506 0.71785 0.92516 0.0
C4423 C 0.01855 0.73285 0.93697 0.0
C4424 C 0.02565 0.69916 0.9323 0.0
C4425 C 0.02002 0.69524 0.9514 0.0
C4426 C 0.01531 0.71037 0.9638 0.0
C4427 C 0.01446 0.72906 0.95661 0.0
C4428 C 0.0163 0.67529 0.95744 0.0
C4429 C 0.02822 0.66677 0.97118 0.0
C4430 C 0.00093 0.66468 0.94942 0.0
C4431 C 0.98797 0.67317 0.93485 0.0
C4432 C 0.97716 0.68932 0.9395 0.0
C4433 C 0.96557 0.69773 0.92543 0.0
C4434 C 0.96455 0.68999 0.90672 0.0
C4435 C 0.97503 0.67377 0.90207 0.0
C4436 C 0.98669 0.66534 0.91607 0.0
C4437 C 0.99089 0.59342 0.99474 0.0
C4438 C 0.00508 0.58005 0.99063 0.0
C4439 C 0.99164 0.61173 0.9865 0.0
C4440 C 0.00665 0.61689 0.97421 0.0
C4441 C 0.01999 0.60317 0.96893 0.0
C4442 C 0.01917 0.58487 0.97698 0.0
C4443 C 0.00986 0.63712 0.96889 0.0
C4444 C -0.00212 0.64566 0.95525 0.0
C4445 C 0.02515 0.64775 0.97702 0.0
C4446 C 0.03811 0.63912 0.9915 0.0
C4447 C 0.05736 0.63675 0.9871 0.0
C4448 C 0.06933 0.62753 0.00026 0.0
C4449 C 0.06221 0.62075 0.01793 0.0
C4450 C 0.04317 0.62332 0.02255 0.0
C4451 C 0.03114 0.63251 0.00943 0.0
H4452 H 0.07148 0.61358 0.02808 0.0
H4453 H 0.9556 0.69655 0.89584 0.0
H4454 H 0.04066 0.25474 0.66805 0.0
H4455 H 0.06954 0.25085 0.68715 0.0
H4456 H 0.09732 0.29478 0.65312 0.0
H4457 H 0.06861 0.29865 0.63375 0.0
H4458 H 0.11701 0.26201 0.65366 0.0
H4459 H 0.08641 0.30226 0.70047 0.0
H4460 H 0.06064 0.31202 0.72228 0.0
H4461 H 0.06582 0.25942 0.75415 0.0
H4462 H 0.09147 0.24922 0.73235 0.0
H4463 H 0.20107 0.28003 0.70444 0.0
H4464 H 0.16919 0.28266 0.69124 0.0
H4465 H 0.15152 0.23268 0.72362 0.0
H4466 H 0.18368 0.22981 0.73702 0.0
H4467 H 0.12592 0.2652 0.72517 0.0
H4468 H 0.15748 0.22569 0.67902 0.0
H4469 H 0.18359 0.2164 0.65743 0.0
H4470 H 0.17647 0.26797 0.6243 0.0
H4471 H 0.15049 0.27773 0.64588 0.0
C4472 C 0.05278 0.26386 0.66484 0.0
C4473 C 0.0524 0.27683 0.64919 0.0
C4474 C 0.06926 0.26163 0.67583 0.0
C4475 C 0.08556 0.27247 0.67147 0.0
C4476 C 0.08489 0.28619 0.6566 0.0
C4477 C 0.06845 0.2884 0.64558 0.0
C4478 C 0.1038 0.26829 0.68109 0.0
C4479 C 0.119 0.26294 0.66928 0.0
C4480 C 0.10613 0.26877 0.70151 0.0
C4481 C 0.09072 0.27488 0.71464 0.0
C4482 C 0.08194 0.29269 0.71202 0.0
C4483 C 0.06738 0.29833 0.72441 0.0
C4484 C 0.06156 0.28633 0.73956 0.0
C4485 C 0.07032 0.26869 0.74239 0.0
C4486 C 0.08488 0.26298 0.73003 0.0
C4487 C 0.19047 0.26956 0.70881 0.0
C4488 C 0.19493 0.25465 0.72173 0.0
C4489 C 0.17226 0.2711 0.70123 0.0
C4490 C 0.15812 0.25782 0.70642 0.0
C4491 C 0.16233 0.24305 0.7195 0.0
C4492 C 0.18069 0.24137 0.72701 0.0
C4493 C 0.13911 0.25942 0.69766 0.0
C4494 C 0.1238 0.26416 0.70958 0.0
C4495 C 0.13661 0.2584 0.67731 0.0
C4496 C 0.15213 0.25251 0.66418 0.0
C4497 C 0.16158 0.23513 0.66722 0.0
C4498 C 0.17634 0.22976 0.65497 0.0
C4499 C 0.18172 0.2416 0.63953 0.0
C4500 C 0.1723 0.25882 0.63627 0.0
C4501 C 0.15754 0.26426 0.6485 0.0
H4502 H 0.19315 0.23743 0.63006 0.0
H4503 H 0.05028 0.29071 0.74913 0.0
H4504 H 0.4758 0.71259 0.10126 0.0
H4505 H 0.47799 0.6788 0.09279 0.0
H4506 H 0.52438 0.69168 0.05414 0.0
H4507 H 0.52218 0.72584 0.06246 0.0
H4508 H 0.49889 0.66276 0.04012 0.0
H4509 H 0.53508 0.67754 0.09765 0.0
H4510 H 0.54013 0.6915 0.13021 0.0
H4511 H 0.49614 0.65512 0.15325 0.0
H4512 H 0.49062 0.64116 0.12074 0.0
H4513 H 0.53349 0.56815 0.03909 0.0
H4514 H 0.53329 0.60251 0.04583 0.0
H4515 H 0.48421 0.59484 0.08225 0.0
H4516 H 0.48405 0.56041 0.07535 0.0
H4517 H 0.51302 0.62129 0.09692 0.0
H4518 H 0.47458 0.60897 0.04025 0.0
H4519 H 0.468 0.59469 0.00808 0.0
H4520 H 0.51497 0.62622 0.98394 0.0
H4521 H 0.52197 0.64041 0.01611 0.0
C4522 C 0.4863 0.70832 0.09072 0.0
C4523 C 0.49905 0.72179 0.08276 0.0
C4524 C 0.48752 0.68901 0.08591 0.0
C4525 C 0.50163 0.68278 0.07322 0.0
C4526 C 0.51349 0.69629 0.06408 0.0
C4527 C 0.5122 0.71575 0.06882 0.0
C4528 C 0.50477 0.66203 0.07085 0.0
C4529 C 0.50232 0.65374 0.05245 0.0
C4530 C 0.50884 0.65026 0.08708 0.0
C4531 C 0.51234 0.65841 0.10672 0.0
C4532 C 0.5264 0.6726 0.10963 0.0
C4533 C 0.52936 0.68051 0.12808 0.0
C4534 C 0.51844 0.67422 0.14378 0.0
C4535 C 0.50458 0.65998 0.14107 0.0
C4536 C 0.50154 0.65205 0.12264 0.0
C4537 C 0.52288 0.57366 0.04886 0.0
C4538 C 0.50869 0.56158 0.05658 0.0
C4539 C 0.52274 0.5933 0.0526 0.0
C4540 C 0.5086 0.60111 0.0643 0.0
C4541 C 0.4952 0.58899 0.07312 0.0
C4542 C 0.49513 0.56935 0.06916 0.0
C4543 C 0.50706 0.62207 0.06625 0.0
C4544 C 0.5098 0.63038 0.08458 0.0
C4545 C 0.50316 0.63382 0.05 0.0
C4546 C 0.49893 0.62553 0.03061 0.0
C4547 C 0.4836 0.61268 0.02811 0.0
C4548 C 0.47977 0.60465 0.00988 0.0
C4549 C 0.49111 0.6095 0.99398 0.0
C4550 C 0.50624 0.62244 0.99628 0.0
C4551 C 0.51013 0.63049 0.01451 0.0
H4552 H 0.48813 0.60327 0.97987 0.0
H4553 H 0.52074 0.68036 0.15806 0.0
H4554 H 0.05413 0.7463 0.85228 0.0
H4555 H 0.08339 0.74616 0.83353 0.0
H4556 H 0.10279 0.79721 0.86335 0.0
H4557 H 0.07344 0.79739 0.88236 0.0
H4558 H 0.1055 0.79933 0.82237 0.0
H4559 H 0.12453 0.75814 0.87372 0.0
H4560 H 0.12169 0.73141 0.89698 0.0
H4561 H 0.11858 0.69121 0.84978 0.0
H4562 H 0.12112 0.71772 0.8262 0.0
H4563 H 0.19526 0.78611 0.77228 0.0
H4564 H 0.16978 0.79363 0.79515 0.0
H4565 H 0.14195 0.7399 0.78109 0.0
H4566 H 0.16754 0.73214 0.75887 0.0
H4567 H 0.14744 0.74295 0.81885 0.0
H4568 H 0.12402 0.78447 0.76768 0.0
H4569 H 0.12615 0.81119 0.7443 0.0
H4570 H 0.13732 0.85064 0.791 0.0
H4571 H 0.13548 0.8241 0.81464 0.0
C4572 C 0.0647 0.75737 0.85502 0.0
C4573 C 0.06153 0.77185 0.86875 0.0
C4574 C 0.08141 0.75726 0.84434 0.0
C4575 C 0.09522 0.77165 0.84714 0.0
C4576 C 0.09226 0.78599 0.86104 0.0
C4577 C 0.07558 0.786 0.87192 0.0
C4578 C 0.11229 0.77191 0.8348 0.0
C4579 C 0.11496 0.78721 0.82182 0.0
C4580 C 0.12441 0.75599 0.83405 0.0
C4581 C 0.1229 0.73996 0.84818 0.0
C4582 C 0.12309 0.74362 0.86829 0.0
C4583 C 0.12156 0.7285 0.88153 0.0
C4584 C 0.11993 0.70962 0.87486 0.0
C4585 C 0.11985 0.70583 0.85493 0.0
C4586 C 0.12136 0.7209 0.84161 0.0
C4587 C 0.18341 0.7762 0.77374 0.0
C4588 C 0.18336 0.75849 0.764 0.0
C4589 C 0.1689 0.78048 0.78681 0.0
C4590 C 0.15407 0.76722 0.78994 0.0
C4591 C 0.15338 0.75021 0.77907 0.0
C4592 C 0.16794 0.74583 0.76633 0.0
C4593 C 0.14012 0.76993 0.80569 0.0
C4594 C 0.13817 0.75522 0.8195 0.0
C4595 C 0.12867 0.78636 0.80712 0.0
C4596 C 0.12986 0.80227 0.79289 0.0
C4597 C 0.12711 0.79881 0.77294 0.0
C4598 C 0.12822 0.81393 0.75965 0.0
C4599 C 0.13193 0.83259 0.76615 0.0
C4600 C 0.13449 0.83617 0.78598 0.0
C4601 C 0.1334 0.8211 0.79933 0.0
H4602 H 0.13278 0.84428 0.75584 0.0
H4603 H 0.11875 0.69794 0.88514 0.0
H4604 H 0.99368 0.31222 0.59044 0.0
H4605 H 0.99384 0.34694 0.58685 0.0
H4606 H 0.99034 0.35351 0.64912 0.0
H4607 H 0.98935 0.31855 0.65273 0.0
H4608 H 0.96744 0.37752 0.63236 0.0
H4609 H 0.03243 0.36413 0.6248 0.0
H4610 H 0.06039 0.3468 0.61306 0.0
H4611 H 0.04684 0.36229 0.5543 0.0
H4612 H 0.01865 0.37949 0.56562 0.0
H4613 H 0.9893 0.47672 0.59082 0.0
H4614 H 0.99133 0.44908 0.61288 0.0
H4615 H 0.97072 0.41195 0.56716 0.0
H4616 H 0.96865 0.43921 0.54517 0.0
H4617 H 0.01235 0.40853 0.58647 0.0
H4618 H 0.94221 0.41284 0.59644 0.0
H4619 H 0.9147 0.43033 0.60909 0.0
H4620 H 0.94092 0.43343 0.66546 0.0
H4621 H 0.96867 0.41613 0.65302 0.0
C4622 C 0.99302 0.32105 0.60336 0.0
C4623 C 0.99159 0.31277 0.62184 0.0
C4624 C 0.99327 0.3409 0.60133 0.0
C4625 C 0.99262 0.35283 0.61777 0.0
C4626 C 0.99104 0.34456 0.63628 0.0
C4627 C 0.99047 0.32464 0.6383 0.0
C4628 C 0.99272 0.37387 0.61522 0.0
C4629 C 0.97756 0.38441 0.62272 0.0
C4630 C 0.00615 0.38304 0.60301 0.0
C4631 C 0.02338 0.3731 0.5961 0.0
C4632 C 0.03537 0.3638 0.60937 0.0
C4633 C 0.05126 0.35398 0.60278 0.0
C4634 C 0.05537 0.35342 0.58295 0.0
C4635 C 0.04362 0.36272 0.56966 0.0
C4636 C 0.02772 0.37256 0.57617 0.0
C4637 C 0.98454 0.46276 0.58574 0.0
C4638 C 0.97903 0.45999 0.56624 0.0
C4639 C 0.98579 0.44705 0.59831 0.0
C4640 C 0.98131 0.42862 0.59146 0.0
C4641 C 0.97426 0.42615 0.57257 0.0
C4642 C 0.97308 0.4417 0.56006 0.0
C4643 C 0.98643 0.41143 0.60248 0.0
C4644 C 0.00271 0.40173 0.59668 0.0
C4645 C 0.97424 0.40316 0.61638 0.0
C4646 C 0.95755 0.41343 0.62377 0.0
C4647 C 0.94216 0.41742 0.61147 0.0
C4648 C 0.92651 0.42725 0.61862 0.0
C4649 C 0.92608 0.43305 0.63805 0.0
C4650 C 0.94128 0.42897 0.6504 0.0
C4651 C 0.95696 0.41914 0.64332 0.0
H4652 H 0.91396 0.44066 0.64356 0.0
H4653 H 0.06767 0.34582 0.57788 0.0
H4654 H 0.43066 0.30842 0.38086 0.0
H4655 H 0.40475 0.30655 0.35731 0.0
H4656 H 0.44482 0.29857 0.31101 0.0
H4657 H 0.47087 0.30014 0.3345 0.0
H4658 H 0.4043 0.31875 0.30293 0.0
H4659 H 0.43749 0.26091 0.32518 0.0
H4660 H 0.45256 0.24223 0.35134 0.0
H4661 H 0.4006 0.24227 0.38357 0.0
H4662 H 0.38537 0.26137 0.35778 0.0
H4663 H 0.33997 0.26131 0.24625 0.0
H4664 H 0.37065 0.26971 0.26134 0.0
H4665 H 0.34448 0.26864 0.31789 0.0
H4666 H 0.31394 0.2607 0.30289 0.0
H4667 H 0.38077 0.25283 0.31737 0.0
H4668 H 0.34708 0.30924 0.29597 0.0
H4669 H 0.33118 0.32928 0.27145 0.0
H4670 H 0.38268 0.33296 0.23861 0.0
H4671 H 0.39882 0.31269 0.26281 0.0
C4672 C 0.43404 0.30719 0.36557 0.0
C4673 C 0.45269 0.30391 0.35952 0.0
C4674 C 0.41922 0.30618 0.35213 0.0
C4675 C 0.42298 0.30215 0.33256 0.0
C4676 C 0.44173 0.30169 0.32608 0.0
C4677 C 0.45656 0.30243 0.33954 0.0
C4678 C 0.40789 0.29352 0.32049 0.0
C4679 C 0.39931 0.30425 0.30577 0.0
C4680 C 0.40143 0.27466 0.32444 0.0
C4681 C 0.41037 0.26269 0.33966 0.0
C4682 C 0.42934 0.25705 0.33792 0.0
C4683 C 0.43791 0.2464 0.35267 0.0
C4684 C 0.42755 0.24109 0.36911 0.0
C4685 C 0.40861 0.24641 0.37083 0.0
C4686 C 0.4 0.25716 0.35616 0.0
C4687 C 0.34103 0.2622 0.26194 0.0
C4688 C 0.3248 0.26028 0.27352 0.0
C4689 C 0.35842 0.26719 0.27049 0.0
C4690 C 0.35966 0.27 0.29066 0.0
C4691 C 0.34374 0.26655 0.3023 0.0
C4692 C 0.32638 0.26194 0.29377 0.0
C4693 C 0.37696 0.27803 0.29975 0.0
C4694 C 0.38596 0.26718 0.3141 0.0
C4695 C 0.38369 0.29678 0.29544 0.0
C4696 C 0.37407 0.30919 0.28103 0.0
C4697 C 0.35497 0.31417 0.28343 0.0
C4698 C 0.34591 0.32559 0.2696 0.0
C4699 C 0.35587 0.33226 0.2534 0.0
C4700 C 0.37495 0.32768 0.2511 0.0
C4701 C 0.38406 0.31624 0.26487 0.0
H4702 H 0.34884 0.34107 0.2427 0.0
H4703 H 0.43417 0.23278 0.38047 0.0
H4704 H 0.3761 0.5247 0.33219 0.0
H4705 H 0.37967 0.52826 0.36743 0.0
H4706 H 0.43576 0.50456 0.36418 0.0
H4707 H 0.43222 0.50073 0.32915 0.0
H4708 H 0.4182 0.49319 0.39668 0.0
H4709 H 0.42943 0.55203 0.3612 0.0
H4710 H 0.42061 0.57804 0.33878 0.0
H4711 H 0.37483 0.59352 0.37633 0.0
H4712 H 0.38316 0.56732 0.39878 0.0
H4713 H 0.47666 0.53737 0.46447 0.0
H4714 H 0.46041 0.54084 0.43317 0.0
H4715 H 0.40641 0.53346 0.46144 0.0
H4716 H 0.42259 0.52926 0.49263 0.0
H4717 H 0.41772 0.56108 0.41863 0.0
H4718 H 0.40747 0.49717 0.45287 0.0
H4719 H 0.42103 0.47273 0.47464 0.0
H4720 H 0.46963 0.46844 0.4376 0.0
H4721 H 0.45657 0.49328 0.41597 0.0
C4722 C 0.38899 0.51981 0.33909 0.0
C4723 C 0.40402 0.5127 0.32798 0.0
C4724 C 0.39102 0.52192 0.35916 0.0
C4725 C 0.4081 0.51698 0.36827 0.0
C4726 C 0.4225 0.50851 0.35737 0.0
C4727 C 0.42049 0.50641 0.33736 0.0
C4728 C 0.41195 0.52233 0.38864 0.0
C4729 C 0.41778 0.50799 0.40152 0.0
C4730 C 0.41163 0.5417 0.39489 0.0
C4731 C 0.40676 0.55758 0.38154 0.0
C4732 C 0.41739 0.56089 0.36459 0.0
C4733 C 0.41248 0.57566 0.35188 0.0
C4734 C 0.39713 0.58738 0.35609 0.0
C4735 C 0.38668 0.58438 0.37305 0.0
C4736 C 0.39147 0.56957 0.38577 0.0
C4737 C 0.46131 0.53742 0.4641 0.0
C4738 C 0.45079 0.53281 0.48071 0.0
C4739 C 0.45206 0.53944 0.44628 0.0
C4740 C 0.43231 0.53721 0.44516 0.0
C4741 C 0.42167 0.53524 0.46216 0.0
C4742 C 0.43091 0.53277 0.47988 0.0
C4743 C 0.42368 0.53192 0.42646 0.0
C4744 C 0.41731 0.54624 0.41391 0.0
C4745 C 0.42368 0.51258 0.42035 0.0
C4746 C 0.43115 0.49717 0.43295 0.0
C4747 C 0.4211 0.49109 0.44947 0.0
C4748 C 0.42871 0.4772 0.4618 0.0
C4749 C 0.44624 0.4691 0.45757 0.0
C4750 C 0.45612 0.4748 0.44094 0.0
C4751 C 0.44864 0.4888 0.42866 0.0
H4752 H 0.45215 0.4584 0.46714 0.0
H4753 H 0.39338 0.59883 0.34624 0.0
H4754 H 0.22109 0.70016 0.03026 0.0
H4755 H 0.21438 0.71128 0.06298 0.0
H4756 H 0.27429 0.7205 0.07314 0.0
H4757 H 0.28102 0.70758 0.04082 0.0
H4758 H 0.26236 0.70348 0.10149 0.0
H4759 H 0.23842 0.75845 0.06927 0.0
H4760 H 0.21984 0.77692 0.0455 0.0
H4761 H 0.1682 0.75365 0.06899 0.0
H4762 H 0.18647 0.73485 0.09275 0.0
H4763 H 0.22786 0.76613 0.18442 0.0
H4764 H 0.22833 0.76068 0.14956 0.0
H4765 H 0.22477 0.69961 0.15911 0.0
H4766 H 0.22497 0.7049 0.19425 0.0
H4767 H 0.20917 0.74494 0.12118 0.0
H4768 H 0.25617 0.6779 0.13053 0.0
H4769 H 0.27809 0.66441 0.15485 0.0
H4770 H 0.29014 0.7209 0.17684 0.0
H4771 H 0.26849 0.73472 0.15252 0.0
C4772 C 0.23277 0.70502 0.03935 0.0
C4773 C 0.25155 0.70317 0.03311 0.0
C4774 C 0.22893 0.71149 0.05806 0.0
C4775 C 0.24378 0.71702 0.0706 0.0
C4776 C 0.26256 0.71623 0.06384 0.0
C4777 C 0.26643 0.70902 0.04536 0.0
C4778 C 0.23986 0.72166 0.09127 0.0
C4779 C 0.2508 0.71269 0.10566 0.0
C4780 C 0.2249 0.73382 0.09696 0.0
C4781 C 0.21384 0.74512 0.0827 0.0
C4782 C 0.22311 0.75717 0.06928 0.0
C4783 C 0.21263 0.76772 0.05582 0.0
C4784 C 0.19286 0.76643 0.05571 0.0
C4785 C 0.18352 0.75463 0.06909 0.0
C4786 C 0.19393 0.74404 0.08257 0.0
C4787 C 0.22683 0.75151 0.17917 0.0
C4788 C 0.2269 0.7359 0.19213 0.0
C4789 C 0.22698 0.74845 0.15918 0.0
C4790 C 0.22709 0.72975 0.15179 0.0
C4791 C 0.22513 0.71417 0.1646 0.0
C4792 C 0.22515 0.71721 0.18466 0.0
C4793 C 0.23156 0.72663 0.13105 0.0
C4794 C 0.22073 0.73582 0.11678 0.0
C4795 C 0.24719 0.71547 0.12543 0.0
C4796 C 0.26054 0.70729 0.13985 0.0
C4797 C 0.26356 0.68743 0.14051 0.0
C4798 C 0.27592 0.67973 0.1543 0.0
C4799 C 0.28543 0.69179 0.16742 0.0
C4800 C 0.2827 0.71158 0.16672 0.0
C4801 C 0.27038 0.71934 0.15294 0.0
H4802 H 0.29492 0.68579 0.17812 0.0
H4803 H 0.18477 0.7746 0.04527 0.0
H4804 H 0.07016 0.48468 0.81798 0.0
H4805 H 0.05793 0.47707 0.85012 0.0
H4806 H 0.11347 0.48706 0.87492 0.0
H4807 H 0.12604 0.49382 0.84244 0.0
H4808 H 0.09819 0.4565 0.89079 0.0
H4809 H 0.07709 0.52049 0.87818 0.0
H4810 H 0.06146 0.54635 0.85998 0.0
H4811 H 0.00842 0.51566 0.86289 0.0
H4812 H 0.0238 0.48949 0.88091 0.0
H4813 H 0.07356 0.49424 0.98311 0.0
H4814 H 0.08508 0.48364 0.95152 0.0
H4815 H 0.03044 0.45806 0.93891 0.0
H4816 H 0.01899 0.46815 0.97091 0.0
H4817 H 0.04226 0.49084 0.91587 0.0
H4818 H 0.06438 0.42971 0.93507 0.0
H4819 H 0.08134 0.40632 0.95531 0.0
H4820 H 0.13422 0.43463 0.94263 0.0
H4821 H 0.11756 0.45839 0.92254 0.0
C4822 C 0.07975 0.48544 0.83029 0.0
C4823 C 0.09902 0.49002 0.82778 0.0
C4824 C 0.07274 0.48105 0.84866 0.0
C4825 C 0.08473 0.4817 0.86496 0.0
C4826 C 0.10398 0.48642 0.86251 0.0
C4827 C 0.1111 0.49046 0.84403 0.0
C4828 C 0.07708 0.47775 0.88457 0.0
C4829 C 0.08605 0.4641 0.89636 0.0
C4830 C 0.06091 0.48727 0.89161 0.0
C4831 C 0.05165 0.50293 0.88067 0.0
C4832 C 0.06213 0.51918 0.87478 0.0
C4833 C 0.05331 0.53391 0.86453 0.0
C4834 C 0.03397 0.53262 0.86022 0.0
C4835 C 0.0234 0.51662 0.8662 0.0
C4836 C 0.03216 0.50184 0.87644 0.0
C4837 C 0.06426 0.48569 0.9739 0.0
C4838 C 0.04536 0.48221 0.97918 0.0
C4839 C 0.07089 0.47952 0.95595 0.0
C4840 C 0.05857 0.47014 0.94295 0.0
C4841 C 0.04015 0.46517 0.94889 0.0
C4842 C 0.03364 0.47095 0.96709 0.0
C4843 C 0.06356 0.4699 0.9222 0.0
C4844 C 0.05414 0.4829 0.91016 0.0
C4845 C 0.07955 0.46014 0.91521 0.0
C4846 C 0.08967 0.44593 0.92737 0.0
C4847 C 0.0796 0.43107 0.93673 0.0
C4848 C 0.08917 0.41771 0.94815 0.0
C4849 C 0.10884 0.419 0.95028 0.0
C4850 C 0.11898 0.43365 0.94097 0.0
C4851 C 0.10948 0.44705 0.92953 0.0
H4852 H 0.11623 0.40864 0.95912 0.0
H4853 H 0.02716 0.54404 0.85229 0.0
H4854 H 0.24691 0.34433 0.55342 0.0
H4855 H 0.26167 0.33301 0.58314 0.0
H4856 H 0.30197 0.30089 0.54977 0.0
H4857 H 0.28717 0.31213 0.51963 0.0
H4858 H 0.28539 0.27982 0.57976 0.0
H4859 H 0.3216 0.33887 0.57617 0.0
H4860 H 0.32698 0.3735 0.57077 0.0
H4861 H 0.28422 0.38659 0.61274 0.0
H4862 H 0.27914 0.35207 0.61899 0.0
H4863 H 0.30775 0.25746 0.67936 0.0
H4864 H 0.3146 0.26783 0.64597 0.0
H4865 H 0.27295 0.31229 0.65118 0.0
H4866 H 0.26637 0.30244 0.68423 0.0
H4867 H 0.30319 0.32539 0.63232 0.0
H4868 H 0.26252 0.26741 0.63072 0.0
H4869 H 0.25622 0.23312 0.63717 0.0
H4870 H 0.30545 0.21806 0.60431 0.0
H4871 H 0.31211 0.25231 0.59782 0.0
C4872 C 0.25892 0.33488 0.55227 0.0
C4873 C 0.2658 0.32912 0.53408 0.0
C4874 C 0.26748 0.32858 0.56933 0.0
C4875 C 0.28317 0.31647 0.56863 0.0
C4876 C 0.28999 0.31041 0.55057 0.0
C4877 C 0.28143 0.31676 0.53339 0.0
C4878 C 0.29133 0.30934 0.58704 0.0
C4879 C 0.2899 0.28967 0.59112 0.0
C4880 C 0.29714 0.32219 0.60183 0.0
C4881 C 0.29998 0.34293 0.598 0.0
C4882 C 0.31334 0.34915 0.58422 0.0
C4883 C 0.31636 0.36875 0.58105 0.0
C4884 C 0.3058 0.38223 0.59122 0.0
C4885 C 0.29238 0.37615 0.60484 0.0
C4886 C 0.28956 0.35658 0.60835 0.0
C4887 C 0.30027 0.26961 0.67343 0.0
C4888 C 0.28637 0.279 0.68439 0.0
C4889 C 0.30417 0.27547 0.65437 0.0
C4890 C 0.29418 0.29074 0.64606 0.0
C4891 C 0.28091 0.30054 0.6573 0.0
C4892 C 0.27706 0.29476 0.67621 0.0
C4893 C 0.29616 0.29603 0.62533 0.0
C4894 C 0.29954 0.31537 0.62079 0.0
C4895 C 0.292 0.28288 0.61019 0.0
C4896 C 0.28793 0.26236 0.614 0.0
C4897 C 0.27205 0.25677 0.62498 0.0
C4898 C 0.26841 0.23736 0.62862 0.0
C4899 C 0.28047 0.22342 0.62121 0.0
C4900 C 0.29615 0.22887 0.61008 0.0
C4901 C 0.29986 0.24827 0.60641 0.0
H4902 H 0.27763 0.2084 0.62405 0.0
H4903 H 0.30807 0.39738 0.58862 0.0
H4904 H 0.47665 0.49401 0.24704 0.0
H4905 H 0.48883 0.48337 0.21563 0.0
H4906 H 0.43993 0.50682 0.18694 0.0
H4907 H 0.42774 0.51779 0.218 0.0
H4908 H 0.44781 0.46287 0.18596 0.0
H4909 H 0.47298 0.52725 0.1743 0.0
H4910 H 0.49313 0.55546 0.18173 0.0
H4911 H 0.54266 0.52037 0.18021 0.0
H4912 H 0.52272 0.49187 0.17303 0.0
H4913 H 0.44685 0.47677 0.08585 0.0
H4914 H 0.44528 0.47358 0.12113 0.0
H4915 H 0.50179 0.45074 0.122 0.0
H4916 H 0.50317 0.45331 0.08652 0.0
H4917 H 0.49717 0.48694 0.14076 0.0
H4918 H 0.47133 0.42448 0.14309 0.0
H4919 H 0.45061 0.39704 0.13451 0.0
H4920 H 0.40186 0.42837 0.15285 0.0
H4921 H 0.42222 0.45614 0.16125 0.0
C4922 C 0.46877 0.49746 0.23399 0.0
C4923 C 0.451 0.50638 0.23508 0.0
C4924 C 0.47576 0.49135 0.21611 0.0
C4925 C 0.46505 0.49409 0.19921 0.0
C4926 C 0.44825 0.50451 0.19999 0.0
C4927 C 0.44136 0.51082 0.21776 0.0
C4928 C 0.46979 0.484 0.18119 0.0
C4929 C 0.4586 0.46803 0.17601 0.0
C4930 C 0.48441 0.49037 0.16882 0.0
C4931 C 0.49635 0.50738 0.17351 0.0
C4932 C 0.48814 0.5255 0.17586 0.0
C4933 C 0.49952 0.54155 0.17993 0.0
C4934 C 0.51915 0.5397 0.18154 0.0
C4935 C 0.52744 0.52178 0.17903 0.0
C4936 C 0.51611 0.50567 0.17496 0.0
C4937 C 0.45854 0.47021 0.0935 0.0
C4938 C 0.47515 0.46541 0.08363 0.0
C4939 C 0.45765 0.46835 0.11361 0.0
C4940 C 0.47349 0.46204 0.12407 0.0
C4941 C 0.48943 0.45554 0.11408 0.0
C4942 C 0.49015 0.45695 0.09386 0.0
C4943 C 0.47454 0.46628 0.14501 0.0
C4944 C 0.48681 0.48123 0.1509 0.0
C4945 C 0.46079 0.45903 0.15797 0.0
C4946 C 0.44835 0.44246 0.15274 0.0
C4947 C 0.45617 0.42561 0.14514 0.0
C4948 C 0.44449 0.40997 0.14033 0.0
C4949 C 0.42493 0.41097 0.14312 0.0
C4950 C 0.41702 0.42762 0.15071 0.0
C4951 C 0.42864 0.4433 0.15553 0.0
H4952 H 0.41591 0.39884 0.13941 0.0
H4953 H 0.52795 0.55215 0.18466 0.0
H4954 H 0.28047 0.62041 0.94439 0.0
H4955 H 0.27881 0.61736 0.90883 0.0
H4956 H 0.25288 0.67288 0.9052 0.0
H4957 H 0.25436 0.67605 0.94043 0.0
H4958 H 0.24466 0.62566 0.87821 0.0
H4959 H 0.28726 0.69647 0.87937 0.0
H4960 H 0.31152 0.71244 0.89985 0.0
H4961 H 0.33246 0.65765 0.91775 0.0
H4962 H 0.30857 0.64138 0.89711 0.0
H4963 H 0.22519 0.68821 0.80284 0.0
H4964 H 0.23095 0.66774 0.83089 0.0
H4965 H 0.28981 0.66338 0.81468 0.0
H4966 H 0.28423 0.68477 0.78718 0.0
H4967 H 0.28883 0.67347 0.84916 0.0
H4968 H 0.25884 0.62161 0.81729 0.0
H4969 H 0.23516 0.60429 0.79728 0.0
H4970 H 0.19178 0.61767 0.83846 0.0
H4971 H 0.21522 0.63486 0.85889 0.0
C4972 C 0.27406 0.63177 0.936 0.0
C4973 C 0.26773 0.64858 0.94509 0.0
C4974 C 0.27303 0.62993 0.91577 0.0
C4975 C 0.26575 0.64491 0.90457 0.0
C4976 C 0.2585 0.66118 0.91373 0.0
C4977 C 0.25947 0.66301 0.93382 0.0
C4978 C 0.2679 0.64528 0.88333 0.0
C4979 C 0.2545 0.63577 0.87162 0.0
C4980 C 0.28119 0.658 0.87488 0.0
C4981 C 0.29606 0.66772 0.88677 0.0
C4982 C 0.29715 0.68784 0.88755 0.0
C4983 C 0.31081 0.69694 0.89921 0.0
C4984 C 0.3235 0.68607 0.91012 0.0
C4985 C 0.3226 0.66606 0.90933 0.0
C4986 C 0.30899 0.65689 0.89766 0.0
C4987 C 0.23928 0.68265 0.80515 0.0
C4988 C 0.25435 0.68832 0.79315 0.0
C4989 C 0.24253 0.67069 0.82102 0.0
C4990 C 0.26081 0.66378 0.82484 0.0
C4991 C 0.27561 0.66854 0.81208 0.0
C4992 C 0.27245 0.68086 0.79648 0.0
C4993 C 0.26495 0.65449 0.84373 0.0
C4994 C 0.27948 0.66258 0.85521 0.0
C4995 C 0.25303 0.64003 0.85171 0.0
C4996 C 0.23882 0.62957 0.83961 0.0
C4997 C 0.24424 0.62092 0.82206 0.0
C4998 C 0.23086 0.61112 0.81064 0.0
C4999 C 0.21195 0.61002 0.8165 0.0
C5000 C 0.20643 0.61854 0.83392 0.0
C5001 C 0.21979 0.62821 0.8455 0.0
H5002 H 0.20161 0.60251 0.80757 0.0
H5003 H 0.33403 0.69314 0.91918 0.0
H5004 H 0.05247 0.50304 0.73006 0.0
H5005 H 0.04498 0.50992 0.69625 0.0
H5006 H 0.10353 0.50199 0.68073 0.0
H5007 H 0.11126 0.49527 0.71473 0.0
H5008 H 0.0904 0.53578 0.66782 0.0
H5009 H 0.07012 0.47067 0.6649 0.0
H5010 H 0.05339 0.44095 0.67453 0.0
H5011 H -0.00013 0.4688 0.66774 0.0
H5012 H 0.01628 0.4988 0.65839 0.0
H5013 H 0.06353 0.5331 0.56482 0.0
H5014 H 0.07775 0.53141 0.59719 0.0
H5015 H 0.02418 0.54592 0.62281 0.0
H5016 H 0.00983 0.54777 0.59063 0.0
H5017 H 0.03761 0.50756 0.62919 0.0
H5018 H 0.05829 0.57312 0.63285 0.0
H5019 H 0.07536 0.6027 0.62349 0.0
H5020 H 0.12846 0.57377 0.62864 0.0
H5021 H 0.1117 0.54387 0.63768 0.0
C5022 C 0.06371 0.50233 0.71942 0.0
C5023 C 0.08248 0.49872 0.72509 0.0
C5024 C 0.05938 0.50621 0.70007 0.0
C5025 C 0.07371 0.50644 0.68602 0.0
C5026 C 0.0923 0.50187 0.69141 0.0
C5027 C 0.09664 0.4979 0.7108 0.0
C5028 C 0.0694 0.51315 0.66615 0.0
C5029 C 0.07909 0.52944 0.65916 0.0
C5030 C 0.05441 0.50501 0.65514 0.0
C5031 C 0.04447 0.48706 0.6611 0.0
C5032 C 0.05479 0.47053 0.66566 0.0
C5033 C 0.04536 0.45362 0.67103 0.0
C5034 C 0.02558 0.453 0.67179 0.0
C5035 C 0.01519 0.4693 0.66717 0.0
C5036 C 0.02455 0.48627 0.66182 0.0
C5037 C 0.05495 0.53675 0.57727 0.0
C5038 C 0.03539 0.53997 0.57522 0.0
C5039 C 0.06315 0.53583 0.59576 0.0
C5040 C 0.05189 0.53823 0.61229 0.0
C5041 C 0.03302 0.54391 0.61015 0.0
C5042 C 0.02484 0.54489 0.59173 0.0
C5043 C 0.05821 0.53054 0.63114 0.0
C5044 C 0.04896 0.5139 0.63783 0.0
C5045 C 0.07363 0.53834 0.64175 0.0
C5046 C 0.08369 0.55613 0.63561 0.0
C5047 C 0.07358 0.57294 0.63166 0.0
C5048 C 0.08321 0.58981 0.6265 0.0
C5049 C 0.10298 0.59009 0.62538 0.0
C5050 C 0.11315 0.57351 0.62944 0.0
C5051 C 0.10359 0.5566 0.63457 0.0
H5052 H 0.11041 0.60318 0.62144 0.0
H5053 H 0.01831 0.43988 0.67591 0.0
H5054 H 0.24478 0.34636 0.44032 0.0
H5055 H 0.23808 0.34171 0.40576 0.0
H5056 H 0.18462 0.37027 0.41215 0.0
H5057 H 0.19151 0.37539 0.44688 0.0
H5058 H 0.18667 0.32916 0.3933 0.0
H5059 H 0.20719 0.39385 0.38637 0.0
H5060 H 0.22725 0.42234 0.39291 0.0
H5061 H 0.27576 0.39307 0.37076 0.0
H5062 H 0.25609 0.36429 0.36438 0.0
H5063 H 0.20061 0.29718 0.29305 0.0
H5064 H 0.18853 0.3168 0.31995 0.0
H5065 H 0.24517 0.32158 0.34353 0.0
H5066 H 0.2572 0.30259 0.31689 0.0
H5067 H 0.22862 0.35593 0.34217 0.0
H5068 H 0.21091 0.28966 0.3617 0.0
H5069 H 0.19283 0.25946 0.35716 0.0
H5070 H 0.14076 0.29067 0.35658 0.0
H5071 H 0.1586 0.32107 0.36095 0.0
C5072 C 0.23171 0.35183 0.43432 0.0
C5073 C 0.2187 0.36132 0.44612 0.0
C5074 C 0.22792 0.34923 0.41463 0.0
C5075 C 0.21092 0.35576 0.40653 0.0
C5076 C 0.19786 0.3653 0.41822 0.0
C5077 C 0.20186 0.36829 0.43792 0.0
C5078 C 0.20688 0.35136 0.386 0.0
C5079 C 0.19529 0.33539 0.38186 0.0
C5080 C 0.21818 0.35956 0.37124 0.0
C5081 C 0.23013 0.37688 0.37491 0.0
C5082 C 0.22216 0.39343 0.38301 0.0
C5083 C 0.23346 0.40965 0.38667 0.0
C5084 C 0.25276 0.40951 0.38225 0.0
C5085 C 0.2608 0.39316 0.37414 0.0
C5086 C 0.24957 0.3769 0.37046 0.0
C5087 C 0.21037 0.30232 0.30412 0.0
C5088 C 0.22985 0.29848 0.30286 0.0
C5089 C 0.20349 0.31358 0.31937 0.0
C5090 C 0.21601 0.32085 0.33356 0.0
C5091 C 0.23531 0.31644 0.33253 0.0
C5092 C 0.24215 0.30546 0.31735 0.0
C5093 C 0.20961 0.3328 0.34996 0.0
C5094 C 0.21921 0.35026 0.35326 0.0
C5095 C 0.1967 0.32582 0.36401 0.0
C5096 C 0.18607 0.3076 0.36138 0.0
C5097 C 0.19562 0.29006 0.36046 0.0
C5098 C 0.18542 0.27292 0.35795 0.0
C5099 C 0.16567 0.27315 0.35651 0.0
C5100 C 0.15607 0.29052 0.35765 0.0
C5101 C 0.16621 0.3077 0.36014 0.0
H5102 H 0.15779 0.25986 0.35458 0.0
H5103 H 0.26149 0.42208 0.3851 0.0
H5104 H 0.3035 0.3824 0.46713 0.0
H5105 H 0.3301 0.40113 0.47994 0.0
H5106 H 0.29222 0.43268 0.51664 0.0
H5107 H 0.26537 0.41389 0.50407 0.0
H5108 H 0.32611 0.45415 0.50036 0.0
H5109 H 0.30741 0.39711 0.53544 0.0
H5110 H 0.29855 0.36286 0.53709 0.0
H5111 H 0.35364 0.3476 0.51641 0.0
H5112 H 0.36258 0.3818 0.51383 0.0
H5113 H 0.40193 0.48213 0.56197 0.0
H5114 H 0.37068 0.46786 0.55485 0.0
H5115 H 0.39706 0.42452 0.51976 0.0
H5116 H 0.4281 0.43859 0.52679 0.0
H5117 H 0.36614 0.41019 0.53918 0.0
H5118 H 0.38297 0.46417 0.49831 0.0
H5119 H 0.3929 0.49768 0.49232 0.0
H5120 H 0.3432 0.51763 0.5215 0.0
H5121 H 0.3331 0.4842 0.52784 0.0
C5122 C 0.30064 0.39372 0.47745 0.0
C5123 C 0.28233 0.3963 0.48494 0.0
C5124 C 0.31591 0.4044 0.48476 0.0
C5125 C 0.31308 0.41793 0.4995 0.0
C5126 C 0.29462 0.42217 0.50535 0.0
C5127 C 0.27932 0.41136 0.49817 0.0
C5128 C 0.3295 0.42529 0.51072 0.0
C5129 C 0.33467 0.44468 0.50917 0.0
C5130 C 0.34072 0.41274 0.52197 0.0
C5131 C 0.3356 0.39209 0.52422 0.0
C5132 C 0.31756 0.38648 0.53097 0.0
C5133 C 0.3125 0.36706 0.53202 0.0
C5134 C 0.32551 0.35307 0.52682 0.0
C5135 C 0.34358 0.35847 0.52045 0.0
C5136 C 0.34863 0.37788 0.51912 0.0
C5137 C 0.40107 0.46919 0.5533 0.0
C5138 C 0.41738 0.46157 0.54477 0.0
C5139 C 0.38323 0.46114 0.54914 0.0
C5140 C 0.38157 0.44533 0.53653 0.0
C5141 C 0.39801 0.43673 0.52948 0.0
C5142 C 0.41574 0.44483 0.53347 0.0
C5143 C 0.36294 0.43906 0.52868 0.0
C5144 C 0.35735 0.4198 0.53078 0.0
C5145 C 0.35147 0.45165 0.51772 0.0
C5146 C 0.3574 0.47172 0.51375 0.0
C5147 C 0.37423 0.47572 0.50356 0.0
C5148 C 0.37988 0.49468 0.50008 0.0
C5149 C 0.36872 0.50978 0.50658 0.0
C5150 C 0.35185 0.50592 0.51651 0.0
C5151 C 0.34615 0.48697 0.52004 0.0
H5152 H 0.37311 0.52445 0.50389 0.0
H5153 H 0.32161 0.33804 0.52778 0.0
H5154 H 0.79686 0.07723 0.51566 0.0
H5155 H 0.82817 0.06285 0.51687 0.0
H5156 H 0.85372 0.119 0.52413 0.0
H5157 H 0.82244 0.13346 0.52192 0.0
H5158 H 0.86831 0.1028 0.49452 0.0
H5159 H 0.85619 0.08226 0.55961 0.0
H5160 H 0.83847 0.06697 0.58637 0.0
H5161 H 0.84066 0.01271 0.55703 0.0
H5162 H 0.85818 0.02772 0.52995 0.0
H5163 H 0.96177 0.06945 0.51889 0.0
H5164 H 0.92999 0.08314 0.51907 0.0
H5165 H 0.90827 0.03368 0.48821 0.0
H5166 H 0.94028 0.02017 0.48738 0.0
H5167 H 0.89181 0.04517 0.52868 0.0
H5168 H 0.90469 0.06716 0.46366 0.0
H5169 H 0.9234 0.08336 0.43818 0.0
H5170 H 0.92083 0.13635 0.46978 0.0
H5171 H 0.90234 0.12038 0.49562 0.0
C5172 C 0.80911 0.08641 0.51827 0.0
C5173 C 0.80735 0.10642 0.51853 0.0
C5174 C 0.82703 0.07818 0.51894 0.0
C5175 C 0.84334 0.08986 0.52042 0.0
C5176 C 0.84135 0.10973 0.52274 0.0
C5177 C 0.82349 0.11797 0.52163 0.0
C5178 C 0.86233 0.08181 0.51681 0.0
C5179 C 0.87352 0.09039 0.50227 0.0
C5180 C 0.86892 0.06523 0.52641 0.0
C5181 C 0.85834 0.05616 0.54266 0.0
C5182 C 0.85275 0.0671 0.55878 0.0
C5183 C 0.84277 0.05848 0.57402 0.0
C5184 C 0.8384 0.0389 0.57337 0.0
C5185 C 0.84404 0.02788 0.5575 0.0
C5186 C 0.85401 0.03644 0.54221 0.0
C5187 C 0.95029 0.06179 0.51165 0.0
C5188 C 0.95335 0.04385 0.50306 0.0
C5189 C 0.93222 0.06957 0.51181 0.0
C5190 C 0.91693 0.05931 0.50375 0.0
C5191 C 0.92002 0.04174 0.49446 0.0
C5192 C 0.93824 0.03415 0.49385 0.0
C5193 C 0.89758 0.06634 0.50666 0.0
C5194 C 0.88642 0.05757 0.52102 0.0
C5195 C 0.8911 0.08289 0.49713 0.0
C5196 C 0.90233 0.09251 0.48169 0.0
C5197 C 0.90831 0.08221 0.4653 0.0
C5198 C 0.91883 0.09136 0.45076 0.0
C5199 C 0.92336 0.11086 0.45239 0.0
C5200 C 0.91734 0.12124 0.46855 0.0
C5201 C 0.90683 0.11215 0.48314 0.0
H5202 H 0.93148 0.11793 0.44111 0.0
H5203 H 0.83067 0.03225 0.58519 0.0
H5204 H 0.61569 0.06855 0.295 0.0
H5205 H 0.63563 0.09694 0.2898 0.0
H5206 H 0.67821 0.06194 0.26306 0.0
H5207 H 0.6586 0.03344 0.26843 0.0
H5208 H 0.69401 0.08988 0.28569 0.0
H5209 H 0.64692 0.08506 0.23513 0.0
H5210 H 0.61451 0.08191 0.2219 0.0
H5211 H 0.59916 0.13463 0.24961 0.0
H5212 H 0.63141 0.13794 0.26326 0.0
H5213 H 0.73541 0.17382 0.2358 0.0
H5214 H 0.71953 0.1423 0.23813 0.0
H5215 H 0.68085 0.165 0.2804 0.0
H5216 H 0.69633 0.19639 0.27793 0.0
H5217 H 0.66513 0.14171 0.2465 0.0
H5218 H 0.70751 0.12635 0.31026 0.0
H5219 H 0.73963 0.12856 0.3246 0.0
H5220 H 0.76401 0.11585 0.26907 0.0
H5221 H 0.732 0.11304 0.25459 0.0
C5222 C 0.62943 0.06681 0.28831 0.0
C5223 C 0.63541 0.04874 0.28188 0.0
C5224 C 0.64075 0.08307 0.28526 0.0
C5225 C 0.65817 0.08154 0.27565 0.0
C5226 C 0.66473 0.06341 0.27036 0.0
C5227 C 0.65345 0.04715 0.27342 0.0
C5228 C 0.66906 0.09892 0.27016 0.0
C5229 C 0.68777 0.10106 0.27687 0.0
C5230 C 0.66091 0.11353 0.25868 0.0
C5231 C 0.64154 0.11165 0.25035 0.0
C5232 C 0.6366 0.09591 0.23851 0.0
C5233 C 0.61826 0.0941 0.23093 0.0
C5234 C 0.60477 0.10804 0.23495 0.0
C5235 C 0.60961 0.12383 0.24653 0.0
C5236 C 0.62793 0.12569 0.25418 0.0
C5237 C 0.7234 0.17207 0.24541 0.0
C5238 C 0.71714 0.18745 0.2568 0.0
C5239 C 0.71451 0.15408 0.24689 0.0
C5240 C 0.69933 0.15137 0.25974 0.0
C5241 C 0.69269 0.16685 0.27057 0.0
C5242 C 0.70151 0.18473 0.26911 0.0
C5243 C 0.68996 0.13254 0.26198 0.0
C5244 C 0.67143 0.13027 0.25491 0.0
C5245 C 0.69829 0.11774 0.2729 0.0
C5246 C 0.71748 0.11977 0.28134 0.0
C5247 C 0.71976 0.12405 0.30115 0.0
C5248 C 0.73791 0.1253 0.30931 0.0
C5249 C 0.75385 0.12246 0.29773 0.0
C5250 C 0.75166 0.11817 0.278 0.0
C5251 C 0.73353 0.1167 0.26982 0.0
H5252 H 0.76789 0.12356 0.30405 0.0
H5253 H 0.59058 0.10662 0.22906 0.0
H5254 H 0.70131 0.91289 0.03429 0.0
H5255 H 0.67135 0.92922 0.03816 0.0
H5256 H 0.64236 0.87466 0.04384 0.0
H5257 H 0.67235 0.85816 0.03921 0.0
H5258 H 0.62792 0.89348 0.01539 0.0
H5259 H 0.64239 0.90991 0.08089 0.0
H5260 H 0.66145 0.92199 0.10851 0.0
H5261 H 0.66467 0.97767 0.08208 0.0
H5262 H 0.64586 0.96588 0.05417 0.0
H5263 H 0.53935 0.94216 0.01784 0.0
H5264 H 0.56671 0.92245 0.02548 0.0
H5265 H 0.60384 0.97127 0.01681 0.0
H5266 H 0.57656 0.99121 0.00945 0.0
H5267 H 0.61164 0.95304 0.05056 0.0
H5268 H 0.60107 0.93505 0.98346 0.0
H5269 H 0.58232 0.92296 0.95562 0.0
H5270 H 0.57205 0.86992 0.98566 0.0
H5271 H 0.59057 0.8818 0.01378 0.0
C5272 C 0.68868 0.90435 0.03704 0.0
C5273 C 0.68911 0.88424 0.03609 0.0
C5274 C 0.6715 0.91374 0.03936 0.0
C5275 C 0.65452 0.90318 0.04118 0.0
C5276 C 0.65525 0.8831 0.04229 0.0
C5277 C 0.67241 0.87369 0.03972 0.0
C5278 C 0.63609 0.91285 0.0385 0.0
C5279 C 0.62415 0.90622 0.02348 0.0
C5280 C 0.63139 0.9298 0.04861 0.0
C5281 C 0.64279 0.93696 0.06536 0.0
C5282 C 0.64729 0.92469 0.08089 0.0
C5283 C 0.65802 0.9315 0.09661 0.0
C5284 C 0.66429 0.95058 0.09703 0.0
C5285 C 0.6598 0.9629 0.08174 0.0
C5286 C 0.64908 0.95617 0.06598 0.0
C5287 C 0.55335 0.94867 0.01724 0.0
C5288 C 0.55574 0.9683 0.01305 0.0
C5289 C 0.56897 0.93737 0.02166 0.0
C5290 C 0.58729 0.94542 0.02176 0.0
C5291 C 0.58979 0.96483 0.01696 0.0
C5292 C 0.57418 0.97616 0.01261 0.0
C5293 C 0.60385 0.93378 0.02732 0.0
C5294 C 0.61535 0.94008 0.0428 0.0
C5295 C 0.60819 0.91652 0.01767 0.0
C5296 C 0.59701 0.9094 0.0008 0.0
C5297 C 0.59468 0.92088 0.98419 0.0
C5298 C 0.58412 0.91405 0.96835 0.0
C5299 C 0.57595 0.8957 0.9689 0.0
C5300 C 0.57836 0.88413 0.98527 0.0
C5301 C 0.58889 0.8909 0.00116 0.0
H5302 H 0.56779 0.89044 0.95661 0.0
H5303 H 0.6726 0.95582 0.10922 0.0
H5304 H 0.36397 0.47558 0.25963 0.0
H5305 H 0.34393 0.44932 0.24767 0.0
H5306 H 0.38832 0.40916 0.26028 0.0
H5307 H 0.40825 0.43528 0.27285 0.0
H5308 H 0.3463 0.42398 0.21906 0.0
H5309 H 0.36873 0.36683 0.27417 0.0
H5310 H 0.38202 0.36404 0.30723 0.0
H5311 H 0.35799 0.4182 0.32265 0.0
H5312 H 0.34426 0.42112 0.28976 0.0
H5313 H 0.30379 0.32829 0.20292 0.0
H5314 H 0.3248 0.35666 0.20563 0.0
H5315 H 0.2935 0.37551 0.25571 0.0
H5316 H 0.27288 0.34732 0.2532 0.0
H5317 H 0.33108 0.36994 0.26336 0.0
H5318 H 0.29188 0.40079 0.21515 0.0
H5319 H 0.27654 0.40385 0.18306 0.0
H5320 H 0.33095 0.40351 0.1554 0.0
H5321 H 0.34662 0.40019 0.18733 0.0
C5322 C 0.36947 0.46116 0.2599 0.0
C5323 C 0.38762 0.45749 0.26743 0.0
C5324 C 0.35804 0.44618 0.25292 0.0
C5325 C 0.36455 0.42725 0.25322 0.0
C5326 C 0.38287 0.42361 0.26021 0.0
C5327 C 0.39423 0.43855 0.26743 0.0
C5328 C 0.35173 0.41134 0.24711 0.0
C5329 C 0.34304 0.41209 0.2287 0.0
C5330 C 0.34749 0.39581 0.25965 0.0
C5331 C 0.35565 0.39426 0.27947 0.0
C5332 C 0.36622 0.37809 0.28465 0.0
C5333 C 0.37383 0.37649 0.30335 0.0
C5334 C 0.37091 0.39097 0.31702 0.0
C5335 C 0.3603 0.40704 0.31203 0.0
C5336 C 0.35261 0.40867 0.29336 0.0
C5337 C 0.30102 0.33893 0.21398 0.0
C5338 C 0.28682 0.33573 0.22788 0.0
C5339 C 0.31305 0.35502 0.2156 0.0
C5340 C 0.31079 0.368 0.23102 0.0
C5341 C 0.29557 0.36556 0.24383 0.0
C5342 C 0.28374 0.34954 0.24231 0.0
C5343 C 0.32534 0.38279 0.23553 0.0
C5344 C 0.3345 0.3817 0.25361 0.0
C5345 C 0.3298 0.39803 0.22278 0.0
C5346 C 0.3204 0.4 0.2036 0.0
C5347 C 0.30057 0.40117 0.20221 0.0
C5348 C 0.29181 0.403 0.18405 0.0
C5349 C 0.30276 0.40381 0.1672 0.0
C5350 C 0.32249 0.40284 0.16846 0.0
C5351 C 0.33131 0.401 0.18659 0.0
H5352 H 0.29596 0.40523 0.15316 0.0
H5353 H 0.37683 0.38972 0.33149 0.0
H5354 H 0.23154 0.6224 0.02664 0.0
H5355 H 0.20482 0.6055 0.0418 0.0
H5356 H 0.16799 0.62456 0.99571 0.0
H5357 H 0.1944 0.64152 0.98056 0.0
H5358 H 0.1537 0.63199 0.03178 0.0
H5359 H 0.18297 0.57874 -0.00218 0.0
H5360 H 0.20923 0.55692 0.99052 0.0
H5361 H 0.21129 0.53951 0.05033 0.0
H5362 H 0.18517 0.56143 0.05802 0.0
H5363 H 0.07478 0.57432 0.0176 0.0
H5364 H 0.10469 0.59189 0.01785 0.0
H5365 H 0.12086 0.56363 0.07104 0.0
H5366 H 0.09049 0.5458 0.07095 0.0
H5367 H 0.14821 0.56173 0.04182 0.0
H5368 H 0.1128 0.60949 0.073 0.0
H5369 H 0.0862 0.63106 0.07954 0.0
H5370 H 0.09534 0.65928 0.0249 0.0
H5371 H 0.12163 0.63753 0.01772 0.0
C5372 C 0.21781 0.62277 0.01958 0.0
C5373 C 0.21509 0.63344 0.00244 0.0
C5374 C 0.20257 0.61313 0.0283 0.0
C5375 C 0.18443 0.61393 0.01994 0.0
C5376 C 0.18186 0.62395 0.00249 0.0
C5377 C 0.19701 0.63357 0.9938 0.0
C5378 C 0.16782 0.60493 0.02946 0.0
C5379 C 0.15242 0.61662 0.03395 0.0
C5380 C 0.16661 0.58502 0.03318 0.0
C5381 C 0.18231 0.5719 0.02854 0.0
C5382 C 0.18915 0.5704 0.00945 0.0
C5383 C 0.20397 0.55798 0.00523 0.0
C5384 C 0.21197 0.54689 0.01997 0.0
C5385 C 0.20511 0.54815 0.03894 0.0
C5386 C 0.1903 0.56055 0.04324 0.0
C5387 C 0.08458 0.57192 0.0295 0.0
C5388 C 0.08038 0.55858 0.0442 0.0
C5389 C 0.10162 0.58211 0.02969 0.0
C5390 C 0.1149 0.57917 0.04455 0.0
C5391 C 0.11068 0.56615 0.05953 0.0
C5392 C 0.09339 0.55604 0.05948 0.0
C5393 C 0.13367 0.58869 0.04308 0.0
C5394 C 0.14956 0.57716 0.04018 0.0
C5395 C 0.1353 0.60878 0.04072 0.0
C5396 C 0.11924 0.62179 0.04481 0.0
C5397 C 0.10904 0.62015 0.06227 0.0
C5398 C 0.09401 0.63244 0.0661 0.0
C5399 C 0.08912 0.64657 0.05267 0.0
C5400 C 0.09921 0.6484 0.03534 0.0
C5401 C 0.11416 0.63606 0.03137 0.0
H5402 H 0.07747 0.65605 0.05566 0.0
H5403 H 0.22344 0.53728 0.01667 0.0
H5404 H 0.66911 0.96107 0.24724 0.0
H5405 H 0.68749 0.93197 0.25116 0.0
H5406 H 0.6358 0.89857 0.25552 0.0
H5407 H 0.6173 0.92771 0.25199 0.0
H5408 H 0.65774 0.89421 0.28695 0.0
H5409 H 0.66682 0.89232 0.21781 0.0
H5410 H 0.67572 0.9049 0.18559 0.0
H5411 H 0.73255 0.91535 0.20581 0.0
H5412 H 0.72393 0.90307 0.23824 0.0
H5413 H 0.69779 0.80098 0.28587 0.0
H5414 H 0.68061 0.83119 0.28506 0.0
H5415 H 0.73358 0.86229 0.27931 0.0
H5416 H 0.75061 0.83196 0.27942 0.0
H5417 H 0.71163 0.86863 0.24947 0.0
H5418 H 0.70319 0.86972 0.31824 0.0
H5419 H 0.69461 0.85716 0.35055 0.0
H5420 H 0.63715 0.84842 0.3315 0.0
H5421 H 0.64542 0.86069 0.29898 0.0
C5422 C 0.66164 0.94746 0.24832 0.0
C5423 C 0.64178 0.94668 0.24965 0.0
C5424 C 0.67218 0.93082 0.25059 0.0
C5425 C 0.66298 0.91317 0.25389 0.0
C5426 C 0.64313 0.91212 0.25322 0.0
C5427 C 0.63259 0.92876 0.25108 0.0
C5428 C 0.6739 0.89645 0.2605 0.0
C5429 C 0.66935 0.88838 0.27863 0.0
C5430 C 0.68949 0.88944 0.24999 0.0
C5431 C 0.69467 0.89695 0.23052 0.0
C5432 C 0.68117 0.89747 0.21545 0.0
C5433 C 0.68618 0.90451 0.19713 0.0
C5434 C 0.70467 0.91097 0.19367 0.0
C5435 C 0.71822 0.91037 0.20852 0.0
C5436 C 0.71328 0.90335 0.22686 0.0
C5437 C 0.70574 0.81436 0.28546 0.0
C5438 C 0.72541 0.81437 0.28286 0.0
C5439 C 0.69595 0.83161 0.28492 0.0
C5440 C 0.70583 0.84899 0.28198 0.0
C5441 C 0.72571 0.84904 0.28149 0.0
C5442 C 0.73544 0.83179 0.28175 0.0
C5443 C 0.69546 0.86629 0.27593 0.0
C5444 C 0.70009 0.87449 0.25789 0.0
C5445 C 0.67999 0.87344 0.28655 0.0
C5446 C 0.67498 0.86598 0.3061 0.0
C5447 C 0.68876 0.86497 0.32087 0.0
C5448 C 0.68394 0.85793 0.33924 0.0
C5449 C 0.66536 0.85195 0.34306 0.0
C5450 C 0.65154 0.85304 0.32852 0.0
C5451 C 0.65628 0.86006 0.31012 0.0
H5452 H 0.66166 0.84652 0.35729 0.0
H5453 H 0.70853 0.91641 0.17948 0.0
H5454 H 0.90654 0.08407 0.78284 0.0
H5455 H 0.8863 0.11216 0.77999 0.0
H5456 H 0.84407 0.07805 0.74985 0.0
H5457 H 0.86429 0.05001 0.75239 0.0
H5458 H 0.8473 0.11355 0.73428 0.0
H5459 H 0.83997 0.08595 0.79774 0.0
H5460 H 0.85105 0.0738 0.8294 0.0
H5461 H 0.87425 0.12933 0.84339 0.0
H5462 H 0.86356 0.14174 0.81166 0.0
H5463 H 0.76999 0.1757 0.74771 0.0
H5464 H 0.78998 0.1474 0.74922 0.0
H5465 H 0.83185 0.17937 0.78211 0.0
H5466 H 0.81191 0.20764 0.78092 0.0
H5467 H 0.82842 0.14444 0.79611 0.0
H5468 H 0.837 0.17145 0.73191 0.0
H5469 H 0.82633 0.18335 0.69991 0.0
H5470 H 0.80061 0.1286 0.68747 0.0
H5471 H 0.81102 0.11647 0.71942 0.0
C5472 C 0.89309 0.08264 0.77531 0.0
C5473 C 0.88692 0.06481 0.768 0.0
C5474 C 0.8815 0.09866 0.7738 0.0
C5475 C 0.86354 0.09706 0.76505 0.0
C5476 C 0.85783 0.07955 0.75675 0.0
C5477 C 0.86941 0.06354 0.75824 0.0
C5478 C 0.85027 0.11332 0.76543 0.0
C5479 C 0.84301 0.12018 0.7478 0.0
C5480 C 0.84485 0.12209 0.78308 0.0
C5481 C 0.85113 0.11472 0.80225 0.0
C5482 C 0.84755 0.09553 0.80751 0.0
C5483 C 0.85375 0.0886 0.82547 0.0
C5484 C 0.86339 0.10077 0.83838 0.0
C5485 C 0.8668 0.11992 0.83337 0.0
C5486 C 0.86067 0.12691 0.8154 0.0
C5487 C 0.78337 0.17668 0.75544 0.0
C5488 C 0.78941 0.19402 0.76404 0.0
C5489 C 0.79484 0.16052 0.75616 0.0
C5490 C 0.81262 0.16142 0.76536 0.0
C5491 C 0.81826 0.17841 0.77476 0.0
C5492 C 0.80683 0.19457 0.77405 0.0
C5493 C 0.82557 0.14484 0.76493 0.0
C5494 C 0.83272 0.13785 0.78257 0.0
C5495 C 0.83086 0.13592 0.7473 0.0
C5496 C 0.82459 0.14317 0.72811 0.0
C5497 C 0.82893 0.16205 0.72239 0.0
C5498 C 0.82297 0.16881 0.70427 0.0
C5499 C 0.81273 0.15677 0.69172 0.0
C5500 C 0.80851 0.13792 0.69723 0.0
C5501 C 0.81446 0.13109 0.71532 0.0
H5502 H 0.80812 0.16203 0.67771 0.0
H5503 H 0.86818 0.09538 0.85228 0.0
loop_
_geom_bond_atom_site_label_1
_geom_bond_atom_site_label_2
_geom_bond_distance
_geom_bond_site_symmetry_2
_ccdc_geom_bond_type
Co0 O1 2.216 1_455 S
Co0 O2 2.091 1_455 S
Co0 O4 2.004 . S
Co0 O10 2.021 . S
Co0 O12 2.135 1_455 S
Co0 O13 2.244 . S
O1 Co0 2.216 1_655 S
O1 C8 1.247 . S
O2 Co0 2.091 1_655 S
O2 C8 1.261 . S
C3 O12 1.233 1_455 S
C3 O13 1.272 . S
O4 Co0 2.004 . S
O4 C9 1.259 . S
Co5 O6 2.061 . S
Co5 O11 2.052 . S
Co5 O13 2.135 . S
O6 Co5 2.061 . S
O6 C9 1.235 . S
C7 O10 1.238 . S
C7 O11 1.241 . S
C8 O1 1.247 . S
C8 O2 1.261 . S
C9 O4 1.259 . S
C9 O6 1.235 . S
O10 Co0 2.021 . S
O10 C7 1.238 . S
O11 Co5 2.052 . S
O11 C7 1.241 . S
O12 Co0 2.135 1_655 S
O12 C3 1.233 1_655 S
O13 Co0 2.244 . S
O13 C3 1.272 . S
O13 Co5 2.135 . S
Co14 O15 2.216 . S
Co14 O16 2.091 . S
Co14 O18 2.004 1_455 S
Co14 O24 2.021 . S
Co14 O26 2.137 . S
Co14 O27 2.255 . S
O15 Co14 2.216 . S
O15 C22 1.247 . S
O16 Co14 2.091 . S
O16 C22 1.261 . S
C17 O26 1.247 . S
C17 O27 1.282 . S
O18 Co14 2.004 1_655 S
O18 C23 1.259 . S
Co19 O20 2.061 . S
Co19 O25 2.052 . S
Co19 O27 2.106 1_655 S
O20 Co19 2.061 . S
O20 C23 1.235 . S
C21 O24 1.238 . S
C21 O25 1.241 1_455 S
C22 O15 1.247 . S
C22 O16 1.261 . S
C23 O18 1.259 . S
C23 O20 1.235 . S
O24 Co14 2.021 . S
O24 C21 1.238 . S
O25 Co19 2.052 . S
O25 C21 1.241 1_655 S
O26 Co14 2.137 . S
O26 C17 1.247 . S
O27 Co14 2.255 . S
O27 C17 1.282 . S
O27 Co19 2.106 1_455 S
Co28 O29 2.216 . S
Co28 O30 2.091 . S
Co28 O32 2.004 . S
Co28 O38 2.021 . S
Co28 O40 2.137 . S
Co28 O41 2.244 . S
O29 Co28 2.216 . S
O29 C36 1.247 . S
O30 Co28 2.091 . S
O30 C36 1.261 . S
C31 O40 1.247 . S
C31 O41 1.272 . S
O32 Co28 2.004 . S
O32 C37 1.259 . S
Co33 O34 2.061 . S
Co33 O39 2.052 . S
Co33 O41 2.135 . S
O34 Co33 2.061 . S
O34 C37 1.235 . S
C35 O38 1.238 . S
C35 O39 1.241 . S
C36 O29 1.247 . S
C36 O30 1.261 . S
C37 O32 1.259 . S
C37 O34 1.235 . S
O38 Co28 2.021 . S
O38 C35 1.238 . S
O39 Co33 2.052 . S
O39 C35 1.241 . S
O40 Co28 2.137 . S
O40 C31 1.247 . S
O41 Co28 2.244 . S
O41 C31 1.272 . S
O41 Co33 2.135 . S
Co42 O43 2.216 . S
Co42 O44 2.091 . S
Co42 O46 2.004 . S
Co42 O52 2.021 . S
Co42 O54 2.137 . S
Co42 O55 2.244 . S
O43 Co42 2.216 . S
O43 C50 1.247 . S
O44 Co42 2.091 . S
O44 C50 1.261 . S
C45 O54 1.247 . S
C45 O55 1.272 . S
O46 Co42 2.004 . S
O46 C51 1.259 . S
Co47 O48 2.061 . S
Co47 O53 2.052 . S
Co47 O55 2.135 . S
O48 Co47 2.061 . S
O48 C51 1.235 . S
C49 O52 1.238 . S
C49 O53 1.241 . S
C50 O43 1.247 . S
C50 O44 1.261 . S
C51 O46 1.259 . S
C51 O48 1.235 . S
O52 Co42 2.021 . S
O52 C49 1.238 . S
O53 Co47 2.052 . S
O53 C49 1.241 . S
O54 Co42 2.137 . S
O54 C45 1.247 . S
O55 Co42 2.244 . S
O55 C45 1.272 . S
O55 Co47 2.135 . S
Co56 O57 2.216 1_545 S
Co56 O58 2.091 1_545 S
Co56 O60 2.004 . S
Co56 O66 2.021 . S
Co56 O68 2.137 . S
Co56 O69 2.244 . S
O57 Co56 2.216 1_565 S
O57 C64 1.247 . S
O58 Co56 2.091 1_565 S
O58 C64 1.261 . S
C59 O68 1.247 . S
C59 O69 1.272 . S
O60 Co56 2.004 . S
O60 C65 1.259 . S
Co61 O62 2.061 . S
Co61 O67 2.052 . S
Co61 O69 2.135 . S
O62 Co61 2.061 . S
O62 C65 1.235 . S
C63 O66 1.238 . S
C63 O67 1.241 . S
C64 O57 1.247 . S
C64 O58 1.261 . S
C65 O60 1.259 . S
C65 O62 1.235 . S
O66 Co56 2.021 . S
O66 C63 1.238 . S
O67 Co61 2.052 . S
O67 C63 1.241 . S
O68 Co56 2.137 . S
O68 C59 1.247 . S
O69 Co56 2.244 . S
O69 C59 1.272 . S
O69 Co61 2.135 . S
Co70 O71 2.216 . S
Co70 O72 2.091 . S
Co70 O74 2.004 . S
Co70 O80 2.021 . S
Co70 O82 2.137 . S
Co70 O83 2.244 . S
O71 Co70 2.216 . S
O71 C78 1.247 . S
O72 Co70 2.091 . S
O72 C78 1.261 . S
C73 O82 1.247 . S
C73 O83 1.272 . S
O74 Co70 2.004 . S
O74 C79 1.259 . S
Co75 O76 2.061 . S
Co75 O81 2.052 . S
Co75 O83 2.135 . S
O76 Co75 2.061 . S
O76 C79 1.235 . S
C77 O80 1.238 . S
C77 O81 1.241 . S
C78 O71 1.247 . S
C78 O72 1.261 . S
C79 O74 1.259 . S
C79 O76 1.235 . S
O80 Co70 2.021 . S
O80 C77 1.238 . S
O81 Co75 2.052 . S
O81 C77 1.241 . S
O82 Co70 2.137 . S
O82 C73 1.247 . S
O83 Co70 2.244 . S
O83 C73 1.272 . S
O83 Co75 2.135 . S
Co84 O85 2.216 . S
Co84 O86 2.091 . S
Co84 O88 2.004 1_545 S
Co84 O94 2.021 . S
Co84 O96 2.137 . S
Co84 O97 2.244 1_545 S
O85 Co84 2.216 . S
O85 C92 1.247 . S
O86 Co84 2.091 . S
O86 C92 1.261 . S
C87 O96 1.263 . S
C87 O97 1.261 1_545 S
O88 Co84 2.004 1_565 S
O88 C93 1.259 . S
Co89 O90 2.061 . S
Co89 O95 2.052 . S
Co89 O97 2.135 . S
O90 Co89 2.061 . S
O90 C93 1.235 . S
C91 O94 1.238 1_565 S
C91 O95 1.241 . S
C92 O85 1.247 . S
C92 O86 1.261 . S
C93 O88 1.259 . S
C93 O90 1.235 . S
O94 Co84 2.021 . S
O94 C91 1.238 1_545 S
O95 Co89 2.052 . S
O95 C91 1.241 . S
O96 Co84 2.137 . S
O96 C87 1.263 . S
O97 Co84 2.244 1_565 S
O97 C87 1.261 1_565 S
O97 Co89 2.135 . S
Co98 O99 2.216 . S
Co98 O100 2.091 . S
Co98 O102 2.004 . S
Co98 O108 2.021 . S
Co98 O110 2.137 1_554 S
Co98 O111 2.244 1_554 S
O99 Co98 2.216 . S
O99 C106 1.247 . S
O100 Co98 2.091 . S
O100 C106 1.261 . S
C101 O110 1.247 . S
C101 O111 1.272 . S
O102 Co98 2.004 . S
O102 C107 1.259 . S
Co103 O104 2.061 . S
Co103 O109 2.052 . S
Co103 O111 2.135 1_554 S
O104 Co103 2.061 . S
O104 C107 1.235 . S
C105 O108 1.238 . S
C105 O109 1.241 . S
C106 O99 1.247 . S
C106 O100 1.261 . S
C107 O102 1.259 . S
C107 O104 1.235 . S
O108 Co98 2.021 . S
O108 C105 1.238 . S
O109 Co103 2.052 . S
O109 C105 1.241 . S
O110 Co98 2.137 1_556 S
O110 C101 1.247 . S
O111 Co98 2.244 1_556 S
O111 C101 1.272 . S
O111 Co103 2.135 1_556 S
Co112 O113 2.216 . S
Co112 O114 2.091 . S
Co112 O116 2.004 . S
Co112 O122 2.021 . S
Co112 O124 2.137 1_554 S
Co112 O125 2.244 1_554 S
O113 Co112 2.216 . S
O113 C120 1.247 . S
O114 Co112 2.091 . S
O114 C120 1.261 . S
C115 O124 1.247 . S
C115 O125 1.272 . S
O116 Co112 2.004 . S
O116 C121 1.259 . S
Co117 O118 2.061 . S
Co117 O123 2.052 . S
Co117 O125 2.135 1_554 S
O118 Co117 2.061 . S
O118 C121 1.235 . S
C119 O122 1.238 . S
C119 O123 1.241 . S
C120 O113 1.247 . S
C120 O114 1.261 . S
C121 O116 1.259 . S
C121 O118 1.235 . S
O122 Co112 2.021 . S
O122 C119 1.238 . S
O123 Co117 2.052 . S
O123 C119 1.241 . S
O124 Co112 2.137 1_556 S
O124 C115 1.247 . S
O125 Co112 2.244 1_556 S
O125 C115 1.272 . S
O125 Co117 2.135 1_556 S
Co126 O127 2.216 . S
Co126 O128 2.091 . S
Co126 O130 2.004 . S
Co126 O136 2.021 . S
Co126 O138 2.137 . S
Co126 O139 2.244 . S
O127 Co126 2.216 . S
O127 C134 1.247 . S
O128 Co126 2.091 . S
O128 C134 1.261 . S
C129 O138 1.247 . S
C129 O139 1.272 . S
O130 Co126 2.004 . S
O130 C135 1.259 . S
Co131 O132 2.061 . S
Co131 O137 2.052 . S
Co131 O139 2.135 . S
O132 Co131 2.061 . S
O132 C135 1.235 . S
C133 O136 1.238 . S
C133 O137 1.241 . S
C134 O127 1.247 . S
C134 O128 1.261 . S
C135 O130 1.259 . S
C135 O132 1.235 . S
O136 Co126 2.021 . S
O136 C133 1.238 . S
O137 Co131 2.052 . S
O137 C133 1.241 . S
O138 Co126 2.137 . S
O138 C129 1.247 . S
O139 Co126 2.244 . S
O139 C129 1.272 . S
O139 Co131 2.135 . S
Co140 O141 2.216 . S
Co140 O142 2.091 . S
Co140 O144 2.004 . S
Co140 O150 2.021 . S
Co140 O152 2.137 . S
Co140 O153 2.244 . S
O141 Co140 2.216 . S
O141 C148 1.247 . S
O142 Co140 2.091 . S
O142 C148 1.261 . S
C143 O152 1.247 . S
C143 O153 1.272 . S
O144 Co140 2.004 . S
O144 C149 1.259 . S
Co145 O146 2.061 . S
Co145 O151 2.052 . S
Co145 O153 2.135 . S
O146 Co145 2.061 . S
O146 C149 1.235 . S
C147 O150 1.238 . S
C147 O151 1.241 . S
C148 O141 1.247 . S
C148 O142 1.261 . S
C149 O144 1.259 . S
C149 O146 1.235 . S
O150 Co140 2.021 . S
O150 C147 1.238 . S
O151 Co145 2.052 . S
O151 C147 1.241 . S
O152 Co140 2.137 . S
O152 C143 1.247 . S
O153 Co140 2.244 . S
O153 C143 1.272 . S
O153 Co145 2.135 . S
Co154 O155 2.216 . S
Co154 O156 2.091 . S
Co154 O158 2.004 . S
Co154 O164 2.021 . S
Co154 O166 2.137 . S
Co154 O167 2.244 . S
O155 Co154 2.216 . S
O155 C162 1.247 . S
O156 Co154 2.091 . S
O156 C162 1.261 . S
C157 O166 1.247 . S
C157 O167 1.272 . S
O158 Co154 2.004 . S
O158 C163 1.259 . S
Co159 O160 2.061 . S
Co159 O165 2.052 . S
Co159 O167 2.135 . S
O160 Co159 2.061 . S
O160 C163 1.235 . S
C161 O164 1.238 . S
C161 O165 1.241 . S
C162 O155 1.247 . S
C162 O156 1.261 . S
C163 O158 1.259 . S
C163 O160 1.235 . S
O164 Co154 2.021 . S
O164 C161 1.238 . S
O165 Co159 2.052 . S
O165 C161 1.241 . S
O166 Co154 2.137 . S
O166 C157 1.247 . S
O167 Co154 2.244 . S
O167 C157 1.272 . S
O167 Co159 2.135 . S
Co168 O169 2.216 . S
Co168 O170 2.091 . S
Co168 O172 2.004 1_455 S
Co168 O178 2.021 . S
Co168 O180 2.137 . S
Co168 O181 2.245 1_455 S
O169 Co168 2.216 . S
O169 C176 1.247 . S
O170 Co168 2.091 . S
O170 C176 1.261 . S
C171 O180 1.247 . S
C171 O181 1.272 1_455 S
O172 Co168 2.004 1_655 S
O172 C177 1.259 . S
Co173 O174 2.061 . S
Co173 O179 2.052 . S
Co173 O181 2.132 . S
O174 Co173 2.061 . S
O174 C177 1.235 . S
C175 O178 1.238 . S
C175 O179 1.241 1_455 S
C176 O169 1.247 . S
C176 O170 1.261 . S
C177 O172 1.259 . S
C177 O174 1.235 . S
O178 Co168 2.021 . S
O178 C175 1.238 . S
O179 Co173 2.052 . S
O179 C175 1.241 1_655 S
O180 Co168 2.137 . S
O180 C171 1.247 . S
O181 Co168 2.245 1_655 S
O181 C171 1.272 1_655 S
O181 Co173 2.132 . S
Co182 O183 2.216 1_455 S
Co182 O184 2.091 1_455 S
Co182 O186 2.004 . S
Co182 O192 2.021 . S
Co182 O194 2.137 . S
Co182 O195 2.244 . S
O183 Co182 2.216 1_655 S
O183 C190 1.247 . S
O184 Co182 2.091 1_655 S
O184 C190 1.261 . S
C185 O194 1.246 . S
C185 O195 1.272 . S
O186 Co182 2.004 . S
O186 C191 1.259 . S
Co187 O188 2.061 . S
Co187 O193 2.052 . S
Co187 O195 2.135 . S
O188 Co187 2.061 . S
O188 C191 1.235 . S
C189 O192 1.238 . S
C189 O193 1.241 . S
C190 O183 1.247 . S
C190 O184 1.261 . S
C191 O186 1.259 . S
C191 O188 1.235 . S
O192 Co182 2.021 . S
O192 C189 1.238 . S
O193 Co187 2.052 . S
O193 C189 1.241 . S
O194 Co182 2.137 . S
O194 C185 1.246 . S
O195 Co182 2.244 . S
O195 C185 1.272 . S
O195 Co187 2.135 . S
Co196 O197 2.216 . S
Co196 O198 2.091 . S
Co196 O200 2.004 . S
Co196 O206 2.021 . S
Co196 O208 2.137 . S
Co196 O209 2.244 . S
O197 Co196 2.216 . S
O197 C204 1.247 . S
O198 Co196 2.091 . S
O198 C204 1.261 . S
C199 O208 1.247 . S
C199 O209 1.272 . S
O200 Co196 2.004 . S
O200 C205 1.259 . S
Co201 O202 2.061 . S
Co201 O207 2.052 . S
Co201 O209 2.135 . S
O202 Co201 2.061 . S
O202 C205 1.235 . S
C203 O206 1.238 . S
C203 O207 1.241 . S
C204 O197 1.247 . S
C204 O198 1.261 . S
C205 O200 1.259 . S
C205 O202 1.235 . S
O206 Co196 2.021 . S
O206 C203 1.238 . S
O207 Co201 2.052 . S
O207 C203 1.241 . S
O208 Co196 2.137 . S
O208 C199 1.247 . S
O209 Co196 2.244 . S
O209 C199 1.272 . S
O209 Co201 2.135 . S
Co210 O211 2.216 . S
Co210 O212 2.091 . S
Co210 O214 2.004 . S
Co210 O220 2.021 . S
Co210 O222 2.137 . S
Co210 O223 2.244 . S
O211 Co210 2.216 . S
O211 C218 1.247 . S
O212 Co210 2.091 . S
O212 C218 1.261 . S
C213 O222 1.247 . S
C213 O223 1.272 . S
O214 Co210 2.004 . S
O214 C219 1.259 . S
Co215 O216 2.061 . S
Co215 O221 2.052 . S
Co215 O223 2.135 . S
O216 Co215 2.061 . S
O216 C219 1.235 . S
C217 O220 1.238 . S
C217 O221 1.241 . S
C218 O211 1.247 . S
C218 O212 1.261 . S
C219 O214 1.259 . S
C219 O216 1.235 . S
O220 Co210 2.021 . S
O220 C217 1.238 . S
O221 Co215 2.052 . S
O221 C217 1.241 . S
O222 Co210 2.137 . S
O222 C213 1.247 . S
O223 Co210 2.244 . S
O223 C213 1.272 . S
O223 Co215 2.135 . S
Co224 O225 2.216 . S
Co224 O226 2.091 . S
Co224 O228 2.004 1_545 S
Co224 O234 2.021 . S
Co224 O236 2.137 . S
Co224 O237 2.244 . S
O225 Co224 2.216 . S
O225 C232 1.247 . S
O226 Co224 2.091 . S
O226 C232 1.261 . S
C227 O236 1.247 . S
C227 O237 1.272 . S
O228 Co224 2.004 1_565 S
O228 C233 1.259 . S
Co229 O230 2.061 . S
Co229 O235 2.052 1_565 S
Co229 O237 2.135 1_565 S
O230 Co229 2.061 . S
O230 C233 1.235 . S
C231 O234 1.238 . S
C231 O235 1.241 . S
C232 O225 1.247 . S
C232 O226 1.261 . S
C233 O228 1.259 . S
C233 O230 1.235 . S
O234 Co224 2.021 . S
O234 C231 1.238 . S
O235 Co229 2.052 1_545 S
O235 C231 1.241 . S
O236 Co224 2.137 . S
O236 C227 1.247 . S
O237 Co224 2.244 . S
O237 C227 1.272 . S
O237 Co229 2.135 1_545 S
Co238 O239 2.216 . S
Co238 O240 2.091 . S
Co238 O242 2.004 . S
Co238 O248 2.021 . S
Co238 O250 2.137 . S
Co238 O251 2.244 . S
O239 Co238 2.216 . S
O239 C246 1.247 . S
O240 Co238 2.091 . S
O240 C246 1.261 . S
C241 O250 1.247 . S
C241 O251 1.272 . S
O242 Co238 2.004 . S
O242 C247 1.259 . S
Co243 O244 2.061 . S
Co243 O249 2.052 . S
Co243 O251 2.135 . S
O244 Co243 2.061 . S
O244 C247 1.235 . S
C245 O248 1.238 . S
C245 O249 1.241 . S
C246 O239 1.247 . S
C246 O240 1.261 . S
C247 O242 1.259 . S
C247 O244 1.235 . S
O248 Co238 2.021 . S
O248 C245 1.238 . S
O249 Co243 2.052 . S
O249 C245 1.241 . S
O250 Co238 2.137 . S
O250 C241 1.247 . S
O251 Co238 2.244 . S
O251 C241 1.272 . S
O251 Co243 2.135 . S
Co252 O253 2.216 . S
Co252 O254 2.091 . S
Co252 O256 2.004 1_565 S
Co252 O262 2.021 . S
Co252 O264 2.137 . S
Co252 O265 2.244 1_565 S
O253 Co252 2.216 . S
O253 C260 1.247 . S
O254 Co252 2.091 . S
O254 C260 1.261 . S
C255 O264 1.227 1_545 S
C255 O265 1.289 . S
O256 Co252 2.004 1_545 S
O256 C261 1.259 . S
Co257 O258 2.061 . S
Co257 O263 2.052 . S
Co257 O265 2.135 . S
O258 Co257 2.061 . S
O258 C261 1.235 . S
C259 O262 1.238 1_545 S
C259 O263 1.241 . S
C260 O253 1.247 . S
C260 O254 1.261 . S
C261 O256 1.259 . S
C261 O258 1.235 . S
O262 Co252 2.021 . S
O262 C259 1.238 1_565 S
O263 Co257 2.052 . S
O263 C259 1.241 . S
O264 Co252 2.137 . S
O264 C255 1.227 1_565 S
O265 Co252 2.244 1_545 S
O265 C255 1.289 . S
O265 Co257 2.135 . S
Co266 O267 2.217 . S
Co266 O268 2.095 . S
Co266 O270 2.004 . S
Co266 O276 2.048 . S
Co266 O278 2.109 1_554 S
Co266 O279 2.231 1_554 S
O267 Co266 2.217 . S
O267 C274 1.247 . S
O268 Co266 2.095 . S
O268 C274 1.261 . S
C269 O278 1.247 . S
C269 O279 1.272 . S
O270 Co266 2.004 . S
O270 C275 1.263 . S
Co271 O272 2.061 . S
Co271 O277 2.052 . S
Co271 O279 2.135 1_554 S
O272 Co271 2.061 . S
O272 C275 1.235 . S
C273 O276 1.238 . S
C273 O277 1.241 . S
C274 O267 1.247 . S
C274 O268 1.261 . S
C275 O270 1.263 . S
C275 O272 1.235 . S
O276 Co266 2.048 . S
O276 C273 1.238 . S
O277 Co271 2.052 . S
O277 C273 1.241 . S
O278 Co266 2.109 1_556 S
O278 C269 1.247 . S
O279 Co266 2.231 1_556 S
O279 C269 1.272 . S
O279 Co271 2.135 1_556 S
Co280 O281 2.215 1_556 S
Co280 O282 2.092 1_556 S
Co280 O284 2.005 . S
Co280 O290 2.026 1_556 S
Co280 O292 2.132 . S
Co280 O293 2.241 . S
O281 Co280 2.215 1_554 S
O281 C288 1.255 . S
O282 Co280 2.092 1_554 S
O282 C288 1.261 . S
C283 O292 1.247 . S
C283 O293 1.272 . S
O284 Co280 2.005 . S
O284 C289 1.258 1_556 S
Co285 O286 2.061 . S
Co285 O291 2.052 . S
Co285 O293 2.135 1_554 S
O286 Co285 2.061 . S
O286 C289 1.235 . S
C287 O290 1.238 . S
C287 O291 1.241 . S
C288 O281 1.255 . S
C288 O282 1.261 . S
C289 O284 1.258 1_554 S
C289 O286 1.235 . S
O290 Co280 2.026 1_554 S
O290 C287 1.238 . S
O291 Co285 2.052 . S
O291 C287 1.241 . S
O292 Co280 2.132 . S
O292 C283 1.247 . S
O293 Co280 2.241 . S
O293 C283 1.272 . S
O293 Co285 2.135 1_556 S
Co294 O295 2.216 . S
Co294 O296 2.091 . S
Co294 O298 2.004 . S
Co294 O304 2.021 . S
Co294 O306 2.137 . S
Co294 O307 2.244 . S
O295 Co294 2.216 . S
O295 C302 1.247 . S
O296 Co294 2.091 . S
O296 C302 1.261 . S
C297 O306 1.247 . S
C297 O307 1.272 . S
O298 Co294 2.004 . S
O298 C303 1.259 . S
Co299 O300 2.061 . S
Co299 O305 2.052 . S
Co299 O307 2.135 . S
O300 Co299 2.061 . S
O300 C303 1.235 . S
C301 O304 1.238 . S
C301 O305 1.241 . S
C302 O295 1.247 . S
C302 O296 1.261 . S
C303 O298 1.259 . S
C303 O300 1.235 . S
O304 Co294 2.021 . S
O304 C301 1.238 . S
O305 Co299 2.052 . S
O305 C301 1.241 . S
O306 Co294 2.137 . S
O306 C297 1.247 . S
O307 Co294 2.244 . S
O307 C297 1.272 . S
O307 Co299 2.135 . S
Co308 O309 2.216 . S
Co308 O310 2.091 . S
Co308 O312 2.004 . S
Co308 O318 2.021 . S
Co308 O320 2.137 . S
Co308 O321 2.244 . S
O309 Co308 2.216 . S
O309 C316 1.247 . S
O310 Co308 2.091 . S
O310 C316 1.261 . S
C311 O320 1.247 . S
C311 O321 1.272 . S
O312 Co308 2.004 . S
O312 C317 1.259 . S
Co313 O314 2.061 . S
Co313 O319 2.052 . S
Co313 O321 2.135 . S
O314 Co313 2.061 . S
O314 C317 1.235 . S
C315 O318 1.238 . S
C315 O319 1.241 . S
C316 O309 1.247 . S
C316 O310 1.261 . S
C317 O312 1.259 . S
C317 O314 1.235 . S
O318 Co308 2.021 . S
O318 C315 1.238 . S
O319 Co313 2.052 . S
O319 C315 1.241 . S
O320 Co308 2.137 . S
O320 C311 1.247 . S
O321 Co308 2.244 . S
O321 C311 1.272 . S
O321 Co313 2.135 . S
Co322 O323 2.216 . S
Co322 O324 2.091 . S
Co322 O326 2.004 . S
Co322 O332 2.021 . S
Co322 O334 2.137 . S
Co322 O335 2.244 . S
O323 Co322 2.216 . S
O323 C330 1.247 . S
O324 Co322 2.091 . S
O324 C330 1.261 . S
C325 O334 1.247 . S
C325 O335 1.272 . S
O326 Co322 2.004 . S
O326 C331 1.259 . S
Co327 O328 2.061 . S
Co327 O333 2.052 . S
Co327 O335 2.135 . S
O328 Co327 2.061 . S
O328 C331 1.235 . S
C329 O332 1.238 . S
C329 O333 1.241 . S
C330 O323 1.247 . S
C330 O324 1.261 . S
C331 O326 1.259 . S
C331 O328 1.235 . S
O332 Co322 2.021 . S
O332 C329 1.238 . S
O333 Co327 2.052 . S
O333 C329 1.241 . S
O334 Co322 2.137 . S
O334 C325 1.247 . S
O335 Co322 2.244 . S
O335 C325 1.272 . S
O335 Co327 2.135 . S
O336 Zn337 1.953 . S
O336 C352 1.225 1_455 S
Zn337 O336 1.953 . S
Zn337 O338 1.959 . S
Zn337 O344 1.919 . S
Zn337 O349 1.924 1_454 S
O338 Zn337 1.959 . S
O338 Zn339 1.946 1_545 S
O338 Zn340 1.932 1_455 S
O338 Zn341 1.930 1_444 S
Zn339 O338 1.946 1_565 S
Zn339 O342 1.933 . S
Zn339 O345 1.941 1_565 S
Zn339 O346 1.965 . S
Zn340 O338 1.932 1_655 S
Zn340 O347 1.938 . S
Zn340 O348 1.906 1_545 S
Zn340 O358 1.953 . S
Zn341 O338 1.930 1_666 S
Zn341 O343 1.932 . S
Zn341 O350 1.977 1_556 S
Zn341 O351 1.910 1_565 S
O342 Zn339 1.933 . S
O342 C353 1.257 . S
O343 Zn341 1.932 . S
O343 C353 1.291 1_656 S
O344 Zn337 1.919 . S
O344 C355 1.253 . S
O345 Zn339 1.941 1_545 S
O345 C355 1.283 . S
O346 Zn339 1.965 . S
O346 C354 1.303 1_565 S
O347 Zn340 1.938 . S
O347 C354 1.247 1_655 S
O348 Zn340 1.906 1_565 S
O348 C356 1.304 . S
O349 Zn337 1.924 1_656 S
O349 C357 1.311 . S
O350 Zn341 1.977 1_554 S
O350 C356 1.272 . S
O351 Zn341 1.910 1_545 S
O351 C357 1.231 . S
C352 O336 1.225 1_655 S
C352 O358 1.298 . S
C353 O342 1.257 . S
C353 O343 1.291 1_454 S
C354 O346 1.303 1_545 S
C354 O347 1.247 1_455 S
C355 O344 1.253 . S
C355 O345 1.283 . S
C356 O348 1.304 . S
C356 O350 1.272 . S
C357 O349 1.311 . S
C357 O351 1.231 . S
O358 Zn340 1.953 . S
O358 C352 1.298 . S
O359 Zn360 1.953 . S
O359 C375 1.225 . S
Zn360 O359 1.953 . S
Zn360 O361 1.949 . S
Zn360 O367 1.919 . S
Zn360 O372 1.924 . S
O361 Zn360 1.949 . S
O361 Zn362 1.923 . S
O361 Zn363 1.950 . S
O361 Zn364 1.945 . S
Zn362 O361 1.923 . S
Zn362 O365 1.933 . S
Zn362 O368 1.941 . S
Zn362 O369 1.965 . S
Zn363 O361 1.950 . S
Zn363 O370 1.938 . S
Zn363 O371 1.906 . S
Zn363 O381 1.953 . S
Zn364 O361 1.945 . S
Zn364 O366 1.932 . S
Zn364 O373 1.977 . S
Zn364 O374 1.910 . S
O365 Zn362 1.933 . S
O365 C376 1.226 . S
O366 Zn364 1.932 . S
O366 C376 1.307 . S
O367 Zn360 1.919 . S
O367 C378 1.253 . S
O368 Zn362 1.941 . S
O368 C378 1.283 . S
O369 Zn362 1.965 . S
O369 C377 1.303 . S
O370 Zn363 1.938 . S
O370 C377 1.247 . S
O371 Zn363 1.906 . S
O371 C379 1.304 . S
O372 Zn360 1.924 . S
O372 C380 1.311 . S
O373 Zn364 1.977 . S
O373 C379 1.272 . S
O374 Zn364 1.910 . S
O374 C380 1.231 . S
C375 O359 1.225 . S
C375 O381 1.298 . S
C376 O365 1.226 . S
C376 O366 1.307 . S
C377 O369 1.303 . S
C377 O370 1.247 . S
C378 O367 1.253 . S
C378 O368 1.283 . S
C379 O371 1.304 . S
C379 O373 1.272 . S
C380 O372 1.311 . S
C380 O374 1.231 . S
O381 Zn363 1.953 . S
O381 C375 1.298 . S
O382 Zn383 1.953 . S
O382 C398 1.225 . S
Zn383 O382 1.953 . S
Zn383 O384 1.949 1_565 S
Zn383 O390 1.919 . S
Zn383 O395 1.924 . S
O384 Zn383 1.949 1_545 S
O384 Zn385 1.923 . S
O384 Zn386 1.950 . S
O384 Zn387 1.945 . S
Zn385 O384 1.923 . S
Zn385 O388 1.933 . S
Zn385 O391 1.941 . S
Zn385 O392 1.965 . S
Zn386 O384 1.950 . S
Zn386 O393 1.938 . S
Zn386 O394 1.906 . S
Zn386 O404 1.953 1_545 S
Zn387 O384 1.945 . S
Zn387 O389 1.932 . S
Zn387 O396 1.977 . S
Zn387 O397 1.910 . S
O388 Zn385 1.933 . S
O388 C399 1.226 . S
O389 Zn387 1.932 . S
O389 C399 1.307 . S
O390 Zn383 1.919 . S
O390 C401 1.253 1_565 S
O391 Zn385 1.941 . S
O391 C401 1.283 . S
O392 Zn385 1.965 . S
O392 C400 1.303 . S
O393 Zn386 1.938 . S
O393 C400 1.247 . S
O394 Zn386 1.906 . S
O394 C402 1.304 . S
O395 Zn383 1.924 . S
O395 C403 1.311 . S
O396 Zn387 1.977 . S
O396 C402 1.272 . S
O397 Zn387 1.910 . S
O397 C403 1.231 1_545 S
C398 O382 1.225 . S
C398 O404 1.298 . S
C399 O388 1.226 . S
C399 O389 1.307 . S
C400 O392 1.303 . S
C400 O393 1.247 . S
C401 O390 1.253 1_545 S
C401 O391 1.283 . S
C402 O394 1.304 . S
C402 O396 1.272 . S
C403 O395 1.311 . S
C403 O397 1.231 1_565 S
O404 Zn386 1.953 1_565 S
O404 C398 1.298 . S
O405 Zn406 1.953 . S
O405 C421 1.225 . S
Zn406 O405 1.953 . S
Zn406 O407 1.949 . S
Zn406 O413 1.919 . S
Zn406 O418 1.924 . S
O407 Zn406 1.949 . S
O407 Zn408 1.923 . S
O407 Zn409 1.950 . S
O407 Zn410 1.945 . S
Zn408 O407 1.923 . S
Zn408 O411 1.933 . S
Zn408 O414 1.941 . S
Zn408 O415 1.965 . S
Zn409 O407 1.950 . S
Zn409 O416 1.938 . S
Zn409 O417 1.906 . S
Zn409 O427 1.953 . S
Zn410 O407 1.945 . S
Zn410 O412 1.932 . S
Zn410 O419 1.977 . S
Zn410 O420 1.910 . S
O411 Zn408 1.933 . S
O411 C422 1.226 . S
O412 Zn410 1.932 . S
O412 C422 1.307 . S
O413 Zn406 1.919 . S
O413 C424 1.253 . S
O414 Zn408 1.941 . S
O414 C424 1.283 . S
O415 Zn408 1.965 . S
O415 C423 1.303 . S
O416 Zn409 1.938 . S
O416 C423 1.247 . S
O417 Zn409 1.906 . S
O417 C425 1.304 . S
O418 Zn406 1.924 . S
O418 C426 1.311 . S
O419 Zn410 1.977 . S
O419 C425 1.272 . S
O420 Zn410 1.910 . S
O420 C426 1.231 . S
C421 O405 1.225 . S
C421 O427 1.298 . S
C422 O411 1.226 . S
C422 O412 1.307 . S
C423 O415 1.303 . S
C423 O416 1.247 . S
C424 O413 1.253 . S
C424 O414 1.283 . S
C425 O417 1.304 . S
C425 O419 1.272 . S
C426 O418 1.311 . S
C426 O420 1.231 . S
O427 Zn409 1.953 . S
O427 C421 1.298 . S
O428 Zn429 1.953 1_455 S
O428 C444 1.225 . S
Zn429 O428 1.953 1_655 S
Zn429 O430 1.949 1_655 S
Zn429 O436 1.919 1_545 S
Zn429 O441 1.924 . S
O430 Zn429 1.949 1_455 S
O430 Zn431 1.923 1_545 S
O430 Zn432 1.950 . S
O430 Zn433 1.945 1_455 S
Zn431 O430 1.923 1_565 S
Zn431 O434 1.933 . S
Zn431 O437 1.941 . S
Zn431 O438 1.965 . S
Zn432 O430 1.950 . S
Zn432 O439 1.938 . S
Zn432 O440 1.906 . S
Zn432 O450 1.953 . S
Zn433 O430 1.945 1_655 S
Zn433 O435 1.932 . S
Zn433 O442 1.977 1_655 S
Zn433 O443 1.910 . S
O434 Zn431 1.933 . S
O434 C445 1.207 1_465 S
O435 Zn433 1.932 . S
O435 C445 1.336 . S
O436 Zn429 1.919 1_565 S
O436 C447 1.268 . S
O437 Zn431 1.941 . S
O437 C447 1.247 1_455 S
O438 Zn431 1.965 . S
O438 C446 1.277 1_565 S
O439 Zn432 1.938 . S
O439 C446 1.297 . S
O440 Zn432 1.906 . S
O440 C448 1.304 . S
O441 Zn429 1.924 . S
O441 C449 1.311 . S
O442 Zn433 1.977 1_455 S
O442 C448 1.272 . S
O443 Zn433 1.910 . S
O443 C449 1.231 . S
C444 O428 1.225 . S
C444 O450 1.298 . S
C445 O434 1.207 1_645 S
C445 O435 1.336 . S
C446 O438 1.277 1_545 S
C446 O439 1.297 . S
C447 O436 1.268 . S
C447 O437 1.247 1_655 S
C448 O440 1.304 . S
C448 O442 1.272 . S
C449 O441 1.311 . S
C449 O443 1.231 . S
O450 Zn432 1.953 . S
O450 C444 1.298 . S
O451 Zn452 1.953 . S
O451 C467 1.225 . S
Zn452 O451 1.953 . S
Zn452 O453 1.949 . S
Zn452 O459 1.919 . S
Zn452 O464 1.924 . S
O453 Zn452 1.949 . S
O453 Zn454 1.923 . S
O453 Zn455 1.950 . S
O453 Zn456 1.945 . S
Zn454 O453 1.923 . S
Zn454 O457 1.933 . S
Zn454 O460 1.941 . S
Zn454 O461 1.965 . S
Zn455 O453 1.950 . S
Zn455 O462 1.938 . S
Zn455 O463 1.906 . S
Zn455 O473 1.953 . S
Zn456 O453 1.945 . S
Zn456 O458 1.932 . S
Zn456 O465 1.977 . S
Zn456 O466 1.910 . S
O457 Zn454 1.933 . S
O457 C468 1.226 . S
O458 Zn456 1.932 . S
O458 C468 1.307 . S
O459 Zn452 1.919 . S
O459 C470 1.253 . S
O460 Zn454 1.941 . S
O460 C470 1.283 . S
O461 Zn454 1.965 . S
O461 C469 1.303 . S
O462 Zn455 1.938 . S
O462 C469 1.247 . S
O463 Zn455 1.906 . S
O463 C471 1.304 . S
O464 Zn452 1.924 . S
O464 C472 1.311 . S
O465 Zn456 1.977 . S
O465 C471 1.272 . S
O466 Zn456 1.910 . S
O466 C472 1.231 . S
C467 O451 1.225 . S
C467 O473 1.298 . S
C468 O457 1.226 . S
C468 O458 1.307 . S
C469 O461 1.303 . S
C469 O462 1.247 . S
C470 O459 1.253 . S
C470 O460 1.283 . S
C471 O463 1.304 . S
C471 O465 1.272 . S
C472 O464 1.311 . S
C472 O466 1.231 . S
O473 Zn455 1.953 . S
O473 C467 1.298 . S
O474 Zn475 1.953 . S
O474 C490 1.225 . S
Zn475 O474 1.953 . S
Zn475 O476 1.949 . S
Zn475 O482 1.929 . S
Zn475 O487 1.924 . S
O476 Zn475 1.949 . S
O476 Zn477 1.923 1_545 S
O476 Zn478 1.950 . S
O476 Zn479 1.945 1_554 S
Zn477 O476 1.923 1_565 S
Zn477 O480 1.933 1_554 S
Zn477 O483 1.948 . S
Zn477 O484 1.965 . S
Zn478 O476 1.950 . S
Zn478 O485 1.938 1_545 S
Zn478 O486 1.906 . S
Zn478 O496 1.953 . S
Zn479 O476 1.945 1_556 S
Zn479 O481 1.932 . S
Zn479 O488 1.977 1_556 S
Zn479 O489 1.910 . S
O480 Zn477 1.933 1_556 S
O480 C491 1.226 . S
O481 Zn479 1.932 . S
O481 C491 1.307 1_545 S
O482 Zn475 1.929 . S
O482 C493 1.234 1_544 S
O483 Zn477 1.948 . S
O483 C493 1.281 1_554 S
O484 Zn477 1.965 . S
O484 C492 1.303 . S
O485 Zn478 1.938 1_565 S
O485 C492 1.247 . S
O486 Zn478 1.906 . S
O486 C494 1.304 . S
O487 Zn475 1.924 . S
O487 C495 1.311 . S
O488 Zn479 1.977 1_554 S
O488 C494 1.272 . S
O489 Zn479 1.910 . S
O489 C495 1.231 1_556 S
C490 O474 1.225 . S
C490 O496 1.298 . S
C491 O480 1.226 . S
C491 O481 1.307 1_565 S
C492 O484 1.303 . S
C492 O485 1.247 . S
C493 O482 1.234 1_566 S
C493 O483 1.281 1_556 S
C494 O486 1.304 . S
C494 O488 1.272 . S
C495 O487 1.311 . S
C495 O489 1.231 1_554 S
O496 Zn478 1.953 . S
O496 C490 1.298 . S
O497 Zn498 1.953 . S
O497 C513 1.225 . S
Zn498 O497 1.953 . S
Zn498 O499 1.949 . S
Zn498 O505 1.919 . S
Zn498 O510 1.924 . S
O499 Zn498 1.949 . S
O499 Zn500 1.923 . S
O499 Zn501 1.950 . S
O499 Zn502 1.945 . S
Zn500 O499 1.923 . S
Zn500 O503 1.933 . S
Zn500 O506 1.941 . S
Zn500 O507 1.965 . S
Zn501 O499 1.950 . S
Zn501 O508 1.938 . S
Zn501 O509 1.906 . S
Zn501 O519 1.953 . S
Zn502 O499 1.945 . S
Zn502 O504 1.932 . S
Zn502 O511 1.977 . S
Zn502 O512 1.910 . S
O503 Zn500 1.933 . S
O503 C514 1.226 . S
O504 Zn502 1.932 . S
O504 C514 1.307 . S
O505 Zn498 1.919 . S
O505 C516 1.253 . S
O506 Zn500 1.941 . S
O506 C516 1.283 . S
O507 Zn500 1.965 . S
O507 C515 1.303 . S
O508 Zn501 1.938 . S
O508 C515 1.247 . S
O509 Zn501 1.906 . S
O509 C517 1.304 . S
O510 Zn498 1.924 . S
O510 C518 1.311 . S
O511 Zn502 1.977 . S
O511 C517 1.272 . S
O512 Zn502 1.910 . S
O512 C518 1.231 . S
C513 O497 1.225 . S
C513 O519 1.298 . S
C514 O503 1.226 . S
C514 O504 1.307 . S
C515 O507 1.303 . S
C515 O508 1.247 . S
C516 O505 1.253 . S
C516 O506 1.283 . S
C517 O509 1.304 . S
C517 O511 1.272 . S
C518 O510 1.311 . S
C518 O512 1.231 . S
O519 Zn501 1.953 . S
O519 C513 1.298 . S
O520 Zn521 1.953 . S
O520 C536 1.225 . S
Zn521 O520 1.953 . S
Zn521 O522 1.949 1_556 S
Zn521 O528 1.919 . S
Zn521 O533 1.924 . S
O522 Zn521 1.949 1_554 S
O522 Zn523 1.923 . S
O522 Zn524 1.950 . S
O522 Zn525 1.945 . S
Zn523 O522 1.923 . S
Zn523 O526 1.933 . S
Zn523 O529 1.941 . S
Zn523 O530 1.965 . S
Zn524 O522 1.950 . S
Zn524 O531 1.938 . S
Zn524 O532 1.906 . S
Zn524 O542 1.953 1_554 S
Zn525 O522 1.945 . S
Zn525 O527 1.932 . S
Zn525 O534 1.977 . S
Zn525 O535 1.910 . S
O526 Zn523 1.933 . S
O526 C537 1.226 . S
O527 Zn525 1.932 . S
O527 C537 1.307 . S
O528 Zn521 1.919 . S
O528 C539 1.253 1_556 S
O529 Zn523 1.941 . S
O529 C539 1.283 . S
O530 Zn523 1.965 . S
O530 C538 1.303 . S
O531 Zn524 1.938 . S
O531 C538 1.247 . S
O532 Zn524 1.906 . S
O532 C540 1.304 . S
O533 Zn521 1.924 . S
O533 C541 1.311 . S
O534 Zn525 1.977 . S
O534 C540 1.272 . S
O535 Zn525 1.910 . S
O535 C541 1.231 1_554 S
C536 O520 1.225 . S
C536 O542 1.298 . S
C537 O526 1.226 . S
C537 O527 1.307 . S
C538 O530 1.303 . S
C538 O531 1.247 . S
C539 O528 1.253 1_554 S
C539 O529 1.283 . S
C540 O532 1.304 . S
C540 O534 1.272 . S
C541 O533 1.311 . S
C541 O535 1.231 1_556 S
O542 Zn524 1.953 1_556 S
O542 C536 1.298 . S
O543 Zn544 1.953 . S
O543 C559 1.225 . S
Zn544 O543 1.953 . S
Zn544 O545 1.949 . S
Zn544 O551 1.919 . S
Zn544 O556 1.924 . S
O545 Zn544 1.949 . S
O545 Zn546 1.923 . S
O545 Zn547 1.950 . S
O545 Zn548 1.945 . S
Zn546 O545 1.923 . S
Zn546 O549 1.933 . S
Zn546 O552 1.941 . S
Zn546 O553 1.965 . S
Zn547 O545 1.950 . S
Zn547 O554 1.938 . S
Zn547 O555 1.906 . S
Zn547 O565 1.953 . S
Zn548 O545 1.945 . S
Zn548 O550 1.932 . S
Zn548 O557 1.977 . S
Zn548 O558 1.910 . S
O549 Zn546 1.933 . S
O549 C560 1.226 . S
O550 Zn548 1.932 . S
O550 C560 1.307 . S
O551 Zn544 1.919 . S
O551 C562 1.253 . S
O552 Zn546 1.941 . S
O552 C562 1.283 . S
O553 Zn546 1.965 . S
O553 C561 1.303 . S
O554 Zn547 1.938 . S
O554 C561 1.247 . S
O555 Zn547 1.906 . S
O555 C563 1.304 . S
O556 Zn544 1.924 . S
O556 C564 1.311 . S
O557 Zn548 1.977 . S
O557 C563 1.272 . S
O558 Zn548 1.910 . S
O558 C564 1.231 . S
C559 O543 1.225 . S
C559 O565 1.298 . S
C560 O549 1.226 . S
C560 O550 1.307 . S
C561 O553 1.303 . S
C561 O554 1.247 . S
C562 O551 1.253 . S
C562 O552 1.283 . S
C563 O555 1.304 . S
C563 O557 1.272 . S
C564 O556 1.311 . S
C564 O558 1.231 . S
O565 Zn547 1.953 . S
O565 C559 1.298 . S
O566 Zn567 1.953 . S
O566 C582 1.225 . S
Zn567 O566 1.953 . S
Zn567 O568 1.966 . S
Zn567 O574 1.919 . S
Zn567 O579 1.924 . S
O568 Zn567 1.966 . S
O568 Zn569 1.924 . S
O568 Zn570 1.940 1_455 S
O568 Zn571 1.936 1_455 S
Zn569 O568 1.924 . S
Zn569 O572 1.933 1_455 S
Zn569 O575 1.941 . S
Zn569 O576 1.965 1_455 S
Zn570 O568 1.940 1_655 S
Zn570 O577 1.938 . S
Zn570 O578 1.906 . S
Zn570 O588 1.927 1_655 S
Zn571 O568 1.936 1_655 S
Zn571 O573 1.932 . S
Zn571 O580 1.977 . S
Zn571 O581 1.889 1_655 S
O572 Zn569 1.933 1_655 S
O572 C583 1.226 . S
O573 Zn571 1.932 . S
O573 C583 1.307 . S
O574 Zn567 1.919 . S
O574 C585 1.253 . S
O575 Zn569 1.941 . S
O575 C585 1.283 . S
O576 Zn569 1.965 1_655 S
O576 C584 1.303 . S
O577 Zn570 1.938 . S
O577 C584 1.247 . S
O578 Zn570 1.906 . S
O578 C586 1.304 . S
O579 Zn567 1.924 . S
O579 C587 1.311 . S
O580 Zn571 1.977 . S
O580 C586 1.272 . S
O581 Zn571 1.889 1_455 S
O581 C587 1.272 . S
C582 O566 1.225 . S
C582 O588 1.349 . S
C583 O572 1.226 . S
C583 O573 1.307 . S
C584 O576 1.303 . S
C584 O577 1.247 . S
C585 O574 1.253 . S
C585 O575 1.283 . S
C586 O578 1.304 . S
C586 O580 1.272 . S
C587 O579 1.311 . S
C587 O581 1.272 . S
O588 Zn570 1.927 1_455 S
O588 C582 1.349 . S
O589 Zn590 1.953 . S
O589 C605 1.225 . S
Zn590 O589 1.953 . S
Zn590 O591 1.949 . S
Zn590 O597 1.919 . S
Zn590 O602 1.924 . S
O591 Zn590 1.949 . S
O591 Zn592 1.923 . S
O591 Zn593 1.950 . S
O591 Zn594 1.945 . S
Zn592 O591 1.923 . S
Zn592 O595 1.933 . S
Zn592 O598 1.941 . S
Zn592 O599 1.965 . S
Zn593 O591 1.950 . S
Zn593 O600 1.938 . S
Zn593 O601 1.906 . S
Zn593 O611 1.953 . S
Zn594 O591 1.945 . S
Zn594 O596 1.932 . S
Zn594 O603 1.977 . S
Zn594 O604 1.910 . S
O595 Zn592 1.933 . S
O595 C606 1.226 . S
O596 Zn594 1.932 . S
O596 C606 1.307 . S
O597 Zn590 1.919 . S
O597 C608 1.253 . S
O598 Zn592 1.941 . S
O598 C608 1.283 . S
O599 Zn592 1.965 . S
O599 C607 1.303 . S
O600 Zn593 1.938 . S
O600 C607 1.247 . S
O601 Zn593 1.906 . S
O601 C609 1.304 . S
O602 Zn590 1.924 . S
O602 C610 1.311 . S
O603 Zn594 1.977 . S
O603 C609 1.272 . S
O604 Zn594 1.910 . S
O604 C610 1.231 . S
C605 O589 1.225 . S
C605 O611 1.298 . S
C606 O595 1.226 . S
C606 O596 1.307 . S
C607 O599 1.303 . S
C607 O600 1.247 . S
C608 O597 1.253 . S
C608 O598 1.283 . S
C609 O601 1.304 . S
C609 O603 1.272 . S
C610 O602 1.311 . S
C610 O604 1.231 . S
O611 Zn593 1.953 . S
O611 C605 1.298 . S
O612 Zn613 1.953 . S
O612 C628 1.225 . S
Zn613 O612 1.953 . S
Zn613 O614 1.949 . S
Zn613 O620 1.919 . S
Zn613 O625 1.924 . S
O614 Zn613 1.949 . S
O614 Zn615 1.923 . S
O614 Zn616 1.950 . S
O614 Zn617 1.945 . S
Zn615 O614 1.923 . S
Zn615 O618 1.933 . S
Zn615 O621 1.941 . S
Zn615 O622 1.965 . S
Zn616 O614 1.950 . S
Zn616 O623 1.938 . S
Zn616 O624 1.906 . S
Zn616 O634 1.953 . S
Zn617 O614 1.945 . S
Zn617 O619 1.932 . S
Zn617 O626 1.977 . S
Zn617 O627 1.910 . S
O618 Zn615 1.933 . S
O618 C629 1.226 . S
O619 Zn617 1.932 . S
O619 C629 1.307 . S
O620 Zn613 1.919 . S
O620 C631 1.253 . S
O621 Zn615 1.941 . S
O621 C631 1.283 . S
O622 Zn615 1.965 . S
O622 C630 1.303 . S
O623 Zn616 1.938 . S
O623 C630 1.247 . S
O624 Zn616 1.906 . S
O624 C632 1.304 . S
O625 Zn613 1.924 . S
O625 C633 1.311 . S
O626 Zn617 1.977 . S
O626 C632 1.272 . S
O627 Zn617 1.910 . S
O627 C633 1.231 . S
C628 O612 1.225 . S
C628 O634 1.298 . S
C629 O618 1.226 . S
C629 O619 1.307 . S
C630 O622 1.303 . S
C630 O623 1.247 . S
C631 O620 1.253 . S
C631 O621 1.283 . S
C632 O624 1.304 . S
C632 O626 1.272 . S
C633 O625 1.311 . S
C633 O627 1.231 . S
O634 Zn616 1.953 . S
O634 C628 1.298 . S
O635 Zn636 1.953 . S
O635 C651 1.225 . S
Zn636 O635 1.953 . S
Zn636 O637 1.949 . S
Zn636 O643 1.919 . S
Zn636 O648 1.924 . S
O637 Zn636 1.949 . S
O637 Zn638 1.923 . S
O637 Zn639 1.950 . S
O637 Zn640 1.945 . S
Zn638 O637 1.923 . S
Zn638 O641 1.933 . S
Zn638 O644 1.941 . S
Zn638 O645 1.965 . S
Zn639 O637 1.950 . S
Zn639 O646 1.938 . S
Zn639 O647 1.906 . S
Zn639 O657 1.953 . S
Zn640 O637 1.945 . S
Zn640 O642 1.932 . S
Zn640 O649 1.977 . S
Zn640 O650 1.910 . S
O641 Zn638 1.933 . S
O641 C652 1.226 . S
O642 Zn640 1.932 . S
O642 C652 1.307 . S
O643 Zn636 1.919 . S
O643 C654 1.253 . S
O644 Zn638 1.941 . S
O644 C654 1.283 . S
O645 Zn638 1.965 . S
O645 C653 1.303 . S
O646 Zn639 1.938 . S
O646 C653 1.247 . S
O647 Zn639 1.906 . S
O647 C655 1.304 . S
O648 Zn636 1.924 . S
O648 C656 1.311 . S
O649 Zn640 1.977 . S
O649 C655 1.272 . S
O650 Zn640 1.910 . S
O650 C656 1.231 . S
C651 O635 1.225 . S
C651 O657 1.298 . S
C652 O641 1.226 . S
C652 O642 1.307 . S
C653 O645 1.303 . S
C653 O646 1.247 . S
C654 O643 1.253 . S
C654 O644 1.283 . S
C655 O647 1.304 . S
C655 O649 1.272 . S
C656 O648 1.311 . S
C656 O650 1.231 . S
O657 Zn639 1.953 . S
O657 C651 1.298 . S
O658 Zn659 1.953 . S
O658 C674 1.225 . S
Zn659 O658 1.953 . S
Zn659 O660 1.949 . S
Zn659 O666 1.919 . S
Zn659 O671 1.924 . S
O660 Zn659 1.949 . S
O660 Zn661 1.923 . S
O660 Zn662 1.950 . S
O660 Zn663 1.945 . S
Zn661 O660 1.923 . S
Zn661 O664 1.933 . S
Zn661 O667 1.941 . S
Zn661 O668 1.965 . S
Zn662 O660 1.950 . S
Zn662 O669 1.938 . S
Zn662 O670 1.906 . S
Zn662 O680 1.953 . S
Zn663 O660 1.945 . S
Zn663 O665 1.932 . S
Zn663 O672 1.977 . S
Zn663 O673 1.910 . S
O664 Zn661 1.933 . S
O664 C675 1.226 . S
O665 Zn663 1.932 . S
O665 C675 1.307 . S
O666 Zn659 1.919 . S
O666 C677 1.253 . S
O667 Zn661 1.941 . S
O667 C677 1.283 . S
O668 Zn661 1.965 . S
O668 C676 1.303 . S
O669 Zn662 1.938 . S
O669 C676 1.247 . S
O670 Zn662 1.906 . S
O670 C678 1.304 . S
O671 Zn659 1.924 . S
O671 C679 1.311 . S
O672 Zn663 1.977 . S
O672 C678 1.272 . S
O673 Zn663 1.910 . S
O673 C679 1.231 . S
C674 O658 1.225 . S
C674 O680 1.298 . S
C675 O664 1.226 . S
C675 O665 1.307 . S
C676 O668 1.303 . S
C676 O669 1.247 . S
C677 O666 1.253 . S
C677 O667 1.283 . S
C678 O670 1.304 . S
C678 O672 1.272 . S
C679 O671 1.311 . S
C679 O673 1.231 . S
O680 Zn662 1.953 . S
O680 C674 1.298 . S
O681 Zn682 1.951 1_455 S
O681 C697 1.225 . S
Zn682 O681 1.951 1_655 S
Zn682 O683 1.946 1_655 S
Zn682 O689 1.927 . S
Zn682 O694 1.920 1_654 S
O683 Zn682 1.946 1_455 S
O683 Zn684 1.923 1_455 S
O683 Zn685 1.950 . S
O683 Zn686 1.945 1_554 S
Zn684 O683 1.923 1_655 S
Zn684 O687 1.933 . S
Zn684 O690 1.941 . S
Zn684 O691 1.965 . S
Zn685 O683 1.950 . S
Zn685 O692 1.938 . S
Zn685 O693 1.906 . S
Zn685 O703 1.953 . S
Zn686 O683 1.945 1_556 S
Zn686 O688 1.932 . S
Zn686 O695 1.977 1_556 S
Zn686 O696 1.910 . S
O687 Zn684 1.933 . S
O687 C698 1.237 . S
O688 Zn686 1.932 . S
O688 C698 1.301 1_456 S
O689 Zn682 1.927 . S
O689 C700 1.253 . S
O690 Zn684 1.941 . S
O690 C700 1.283 . S
O691 Zn684 1.965 . S
O691 C699 1.303 . S
O692 Zn685 1.938 . S
O692 C699 1.247 1_455 S
O693 Zn685 1.906 . S
O693 C701 1.304 . S
O694 Zn682 1.920 1_456 S
O694 C702 1.311 . S
O695 Zn686 1.977 1_554 S
O695 C701 1.272 . S
O696 Zn686 1.910 . S
O696 C702 1.231 . S
C697 O681 1.225 . S
C697 O703 1.298 . S
C698 O687 1.237 . S
C698 O688 1.301 1_654 S
C699 O691 1.303 . S
C699 O692 1.247 1_655 S
C700 O689 1.253 . S
C700 O690 1.283 . S
C701 O693 1.304 . S
C701 O695 1.272 . S
C702 O694 1.311 . S
C702 O696 1.231 . S
O703 Zn685 1.953 . S
O703 C697 1.298 . S
H704 C722 0.951 . S
H705 C724 0.951 . S
H706 C726 0.950 . S
H707 C727 0.950 . S
H708 C729 0.950 . S
H709 C732 0.950 . S
H710 C733 0.950 . S
H711 C735 0.950 . S
H712 C736 0.950 . S
H713 C737 0.951 . S
H714 C739 0.951 . S
H715 C741 0.950 . S
H716 C742 0.950 . S
H717 C744 0.950 . S
H718 C747 0.950 . S
H719 C748 0.950 . S
H720 C750 0.950 . S
H721 C751 0.950 . S
C722 H704 0.951 . S
C722 C723 1.366 1_655 S
C722 C724 1.388 . S
C723 C722 1.366 1_455 S
C723 C727 1.385 . S
C724 H705 0.951 . S
C724 C722 1.388 . S
C724 C725 1.377 . S
C725 C724 1.377 . S
C725 C726 1.401 1_655 S
C725 C728 1.500 . S
C726 H706 0.950 . S
C726 C725 1.401 1_455 S
C726 C727 1.374 . S
C727 H707 0.950 . S
C727 C723 1.385 . S
C727 C726 1.374 . S
C728 C725 1.500 . S
C728 C729 1.373 1_655 S
C728 C730 1.389 . S
C729 H708 0.950 . S
C729 C728 1.373 1_455 S
C729 C745 1.377 . S
C730 C728 1.389 . S
C730 C731 1.524 . S
C730 C744 1.377 . S
C731 C730 1.524 . S
C731 C732 1.397 . S
C731 C736 1.363 . S
C732 H709 0.950 . S
C732 C731 1.397 . S
C732 C733 1.334 . S
C733 H710 0.950 . S
C733 C732 1.334 . S
C733 C734 1.287 . S
C734 C733 1.287 . S
C734 C735 1.524 . S
C734 H753 0.913 . S
C735 H711 0.950 . S
C735 C734 1.524 . S
C735 C736 1.415 . S
C736 H712 0.950 . S
C736 C731 1.363 . S
C736 C735 1.415 . S
C737 H713 0.951 . S
C737 C738 1.366 1_455 S
C737 C739 1.388 . S
C738 C737 1.366 1_655 S
C738 C742 1.385 . S
C739 H714 0.951 . S
C739 C737 1.388 . S
C739 C740 1.366 1_455 S
C740 C739 1.366 1_655 S
C740 C741 1.414 . S
C740 C743 1.499 . S
C741 H715 0.950 . S
C741 C740 1.414 . S
C741 C742 1.374 . S
C742 H716 0.950 . S
C742 C738 1.385 . S
C742 C741 1.374 . S
C743 C740 1.499 . S
C743 C744 1.373 . S
C743 C745 1.389 1_655 S
C744 H717 0.950 . S
C744 C730 1.377 . S
C744 C743 1.373 . S
C745 C729 1.377 . S
C745 C743 1.389 1_455 S
C745 C746 1.524 . S
C746 C745 1.524 . S
C746 C747 1.397 . S
C746 C751 1.363 . S
C747 H718 0.950 . S
C747 C746 1.397 . S
C747 C748 1.334 . S
C748 H719 0.950 . S
C748 C747 1.334 . S
C748 C749 1.287 . S
C749 C748 1.287 . S
C749 C750 1.524 . S
C749 H752 0.999 . S
C750 H720 0.950 . S
C750 C749 1.524 . S
C750 C751 1.415 . S
C751 H721 0.950 . S
C751 C746 1.363 . S
C751 C750 1.415 . S
H752 C749 0.999 . S
H753 C734 0.913 . S
H754 C772 0.951 . S
H755 C774 0.951 . S
H756 C776 0.950 . S
H757 C777 0.950 . S
H758 C779 0.950 . S
H759 C782 0.950 . S
H760 C783 0.950 . S
H761 C785 0.950 . S
H762 C786 0.950 . S
H763 C787 0.951 . S
H764 C789 0.951 . S
H765 C791 0.950 . S
H766 C792 0.950 . S
H767 C794 0.950 . S
H768 C797 0.950 . S
H769 C798 0.950 . S
H770 C800 0.950 . S
H771 C801 0.950 . S
C772 H754 0.951 . S
C772 C773 1.366 . S
C772 C774 1.388 . S
C773 C772 1.366 . S
C773 C777 1.385 . S
C774 H755 0.951 . S
C774 C772 1.388 . S
C774 C775 1.366 . S
C775 C774 1.366 . S
C775 C776 1.414 . S
C775 C778 1.499 . S
C776 H756 0.950 . S
C776 C775 1.414 . S
C776 C777 1.374 . S
C777 H757 0.950 . S
C777 C773 1.385 . S
C777 C776 1.374 . S
C778 C775 1.499 . S
C778 C779 1.373 . S
C778 C780 1.389 . S
C779 H758 0.950 . S
C779 C778 1.373 . S
C779 C795 1.377 . S
C780 C778 1.389 . S
C780 C781 1.524 . S
C780 C794 1.377 . S
C781 C780 1.524 . S
C781 C782 1.397 . S
C781 C786 1.363 . S
C782 H759 0.950 . S
C782 C781 1.397 . S
C782 C783 1.334 . S
C783 H760 0.950 . S
C783 C782 1.334 . S
C783 C784 1.287 . S
C784 C783 1.287 . S
C784 C785 1.524 . S
C784 H803 0.913 . S
C785 H761 0.950 . S
C785 C784 1.524 . S
C785 C786 1.415 . S
C786 H762 0.950 . S
C786 C781 1.363 . S
C786 C785 1.415 . S
C787 H763 0.951 . S
C787 C788 1.366 . S
C787 C789 1.388 . S
C788 C787 1.366 . S
C788 C792 1.385 . S
C789 H764 0.951 . S
C789 C787 1.388 . S
C789 C790 1.366 . S
C790 C789 1.366 . S
C790 C791 1.414 . S
C790 C793 1.499 . S
C791 H765 0.950 . S
C791 C790 1.414 . S
C791 C792 1.374 . S
C792 H766 0.950 . S
C792 C788 1.385 . S
C792 C791 1.374 . S
C793 C790 1.499 . S
C793 C794 1.373 . S
C793 C795 1.389 . S
C794 H767 0.950 . S
C794 C780 1.377 . S
C794 C793 1.373 . S
C795 C779 1.377 . S
C795 C793 1.389 . S
C795 C796 1.524 . S
C796 C795 1.524 . S
C796 C797 1.397 . S
C796 C801 1.363 . S
C797 H768 0.950 . S
C797 C796 1.397 . S
C797 C798 1.334 . S
C798 H769 0.950 . S
C798 C797 1.334 . S
C798 C799 1.287 . S
C799 C798 1.287 . S
C799 C800 1.524 . S
C799 H802 0.999 . S
C800 H770 0.950 . S
C800 C799 1.524 . S
C800 C801 1.415 . S
C801 H771 0.950 . S
C801 C796 1.363 . S
C801 C800 1.415 . S
H802 C799 0.999 . S
H803 C784 0.913 . S
H804 C822 0.951 . S
H805 C824 0.951 . S
H806 C826 0.950 . S
H807 C827 0.950 . S
H808 C829 0.950 . S
H809 C832 0.950 . S
H810 C833 0.950 . S
H811 C835 0.950 . S
H812 C836 0.950 . S
H813 C837 0.951 . S
H814 C839 0.951 . S
H815 C841 0.950 . S
H816 C842 0.950 . S
H817 C844 0.950 . S
H818 C847 0.950 . S
H819 C848 0.950 . S
H820 C850 0.950 . S
H821 C851 0.950 . S
C822 H804 0.951 . S
C822 C823 1.366 . S
C822 C824 1.388 . S
C823 C822 1.366 . S
C823 C827 1.385 . S
C824 H805 0.951 . S
C824 C822 1.388 . S
C824 C825 1.366 . S
C825 C824 1.366 . S
C825 C826 1.414 . S
C825 C828 1.499 . S
C826 H806 0.950 . S
C826 C825 1.414 . S
C826 C827 1.374 . S
C827 H807 0.950 . S
C827 C823 1.385 . S
C827 C826 1.374 . S
C828 C825 1.499 . S
C828 C829 1.373 . S
C828 C830 1.389 . S
C829 H808 0.950 . S
C829 C828 1.373 . S
C829 C845 1.377 . S
C830 C828 1.389 . S
C830 C831 1.524 . S
C830 C844 1.377 . S
C831 C830 1.524 . S
C831 C832 1.397 . S
C831 C836 1.363 . S
C832 H809 0.950 . S
C832 C831 1.397 . S
C832 C833 1.334 . S
C833 H810 0.950 . S
C833 C832 1.334 . S
C833 C834 1.287 . S
C834 C833 1.287 . S
C834 C835 1.524 . S
C834 H853 0.913 . S
C835 H811 0.950 . S
C835 C834 1.524 . S
C835 C836 1.415 . S
C836 H812 0.950 . S
C836 C831 1.363 . S
C836 C835 1.415 . S
C837 H813 0.951 . S
C837 C838 1.366 . S
C837 C839 1.388 . S
C838 C837 1.366 . S
C838 C842 1.385 . S
C839 H814 0.951 . S
C839 C837 1.388 . S
C839 C840 1.366 . S
C840 C839 1.366 . S
C840 C841 1.414 . S
C840 C843 1.499 . S
C841 H815 0.950 . S
C841 C840 1.414 . S
C841 C842 1.374 . S
C842 H816 0.950 . S
C842 C838 1.385 . S
C842 C841 1.374 . S
C843 C840 1.499 . S
C843 C844 1.373 . S
C843 C845 1.389 . S
C844 H817 0.950 . S
C844 C830 1.377 . S
C844 C843 1.373 . S
C845 C829 1.377 . S
C845 C843 1.389 . S
C845 C846 1.524 . S
C846 C845 1.524 . S
C846 C847 1.397 . S
C846 C851 1.363 . S
C847 H818 0.950 . S
C847 C846 1.397 . S
C847 C848 1.334 . S
C848 H819 0.950 . S
C848 C847 1.334 . S
C848 C849 1.287 . S
C849 C848 1.287 . S
C849 C850 1.524 . S
C849 H852 0.999 . S
C850 H820 0.950 . S
C850 C849 1.524 . S
C850 C851 1.415 . S
C851 H821 0.950 . S
C851 C846 1.363 . S
C851 C850 1.415 . S
H852 C849 0.999 . S
H853 C834 0.913 . S
H854 C872 0.951 . S
H855 C874 0.951 . S
H856 C876 0.950 . S
H857 C877 0.950 . S
H858 C879 0.950 . S
H859 C882 0.950 . S
H860 C883 0.950 . S
H861 C885 0.950 . S
H862 C886 0.950 . S
H863 C887 0.951 . S
H864 C889 0.951 . S
H865 C891 0.950 . S
H866 C892 0.950 . S
H867 C894 0.950 . S
H868 C897 0.950 . S
H869 C898 0.950 . S
H870 C900 0.950 . S
H871 C901 0.950 . S
C872 H854 0.951 . S
C872 C873 1.366 . S
C872 C874 1.388 . S
C873 C872 1.366 . S
C873 C877 1.385 . S
C874 H855 0.951 . S
C874 C872 1.388 . S
C874 C875 1.366 . S
C875 C874 1.366 . S
C875 C876 1.414 . S
C875 C878 1.499 . S
C876 H856 0.950 . S
C876 C875 1.414 . S
C876 C877 1.374 . S
C877 H857 0.950 . S
C877 C873 1.385 . S
C877 C876 1.374 . S
C878 C875 1.499 . S
C878 C879 1.373 . S
C878 C880 1.389 . S
C879 H858 0.950 . S
C879 C878 1.373 . S
C879 C895 1.377 . S
C880 C878 1.389 . S
C880 C881 1.524 . S
C880 C894 1.377 . S
C881 C880 1.524 . S
C881 C882 1.397 . S
C881 C886 1.363 . S
C882 H859 0.950 . S
C882 C881 1.397 . S
C882 C883 1.334 . S
C883 H860 0.950 . S
C883 C882 1.334 . S
C883 C884 1.287 . S
C884 C883 1.287 . S
C884 C885 1.524 . S
C884 H903 0.913 . S
C885 H861 0.950 . S
C885 C884 1.524 . S
C885 C886 1.415 . S
C886 H862 0.950 . S
C886 C881 1.363 . S
C886 C885 1.415 . S
C887 H863 0.951 . S
C887 C888 1.366 . S
C887 C889 1.388 . S
C888 C887 1.366 . S
C888 C892 1.385 . S
C889 H864 0.951 . S
C889 C887 1.388 . S
C889 C890 1.366 . S
C890 C889 1.366 . S
C890 C891 1.414 . S
C890 C893 1.499 . S
C891 H865 0.950 . S
C891 C890 1.414 . S
C891 C892 1.374 . S
C892 H866 0.950 . S
C892 C888 1.385 . S
C892 C891 1.374 . S
C893 C890 1.499 . S
C893 C894 1.373 . S
C893 C895 1.389 . S
C894 H867 0.950 . S
C894 C880 1.377 . S
C894 C893 1.373 . S
C895 C879 1.377 . S
C895 C893 1.389 . S
C895 C896 1.524 . S
C896 C895 1.524 . S
C896 C897 1.397 . S
C896 C901 1.363 . S
C897 H868 0.950 . S
C897 C896 1.397 . S
C897 C898 1.334 . S
C898 H869 0.950 . S
C898 C897 1.334 . S
C898 C899 1.287 . S
C899 C898 1.287 . S
C899 C900 1.524 . S
C899 H902 0.999 . S
C900 H870 0.950 . S
C900 C899 1.524 . S
C900 C901 1.415 . S
C901 H871 0.950 . S
C901 C896 1.363 . S
C901 C900 1.415 . S
H902 C899 0.999 . S
H903 C884 0.913 . S
H904 C922 0.951 . S
H905 C924 0.951 . S
H906 C926 0.950 . S
H907 C927 0.950 . S
H908 C929 0.950 . S
H909 C932 0.950 . S
H910 C933 0.950 . S
H911 C935 0.950 . S
H912 C936 0.950 . S
H913 C937 0.967 . S
H914 C939 0.951 . S
H915 C941 0.950 . S
H916 C942 0.950 . S
H917 C944 0.950 . S
H918 C947 0.950 . S
H919 C948 0.950 . S
H920 C950 0.950 . S
H921 C951 0.950 . S
C922 H904 0.951 . S
C922 C923 1.366 1_655 S
C922 C924 1.388 . S
C923 C922 1.366 1_455 S
C923 C927 1.385 . S
C924 H905 0.951 . S
C924 C922 1.388 . S
C924 C925 1.366 1_655 S
C925 C924 1.366 1_455 S
C925 C926 1.414 . S
C925 C928 1.499 . S
C926 H906 0.950 . S
C926 C925 1.414 . S
C926 C927 1.374 . S
C927 H907 0.950 . S
C927 C923 1.385 . S
C927 C926 1.374 . S
C928 C925 1.499 . S
C928 C929 1.373 1_455 S
C928 C930 1.389 . S
C929 H908 0.950 . S
C929 C928 1.373 1_655 S
C929 C945 1.377 . S
C930 C928 1.389 . S
C930 C931 1.524 . S
C930 C944 1.377 . S
C931 C930 1.524 . S
C931 C932 1.397 . S
C931 C936 1.363 . S
C932 H909 0.950 . S
C932 C931 1.397 . S
C932 C933 1.334 . S
C933 H910 0.950 . S
C933 C932 1.334 . S
C933 C934 1.287 . S
C934 C933 1.287 . S
C934 C935 1.524 . S
C934 H953 0.913 . S
C935 H911 0.950 . S
C935 C934 1.524 . S
C935 C936 1.415 . S
C936 H912 0.950 . S
C936 C931 1.363 . S
C936 C935 1.415 . S
C937 H913 0.967 . S
C937 C938 1.349 1_455 S
C937 C939 1.392 . S
C938 C937 1.349 1_655 S
C938 C942 1.385 . S
C939 H914 0.951 . S
C939 C937 1.392 . S
C939 C940 1.366 1_455 S
C940 C939 1.366 1_655 S
C940 C941 1.414 . S
C940 C943 1.499 . S
C941 H915 0.950 . S
C941 C940 1.414 . S
C941 C942 1.374 . S
C942 H916 0.950 . S
C942 C938 1.385 . S
C942 C941 1.374 . S
C943 C940 1.499 . S
C943 C944 1.373 1_655 S
C943 C945 1.389 . S
C944 H917 0.950 . S
C944 C930 1.377 . S
C944 C943 1.373 1_455 S
C945 C929 1.377 . S
C945 C943 1.389 . S
C945 C946 1.524 . S
C946 C945 1.524 . S
C946 C947 1.397 . S
C946 C951 1.363 . S
C947 H918 0.950 . S
C947 C946 1.397 . S
C947 C948 1.334 . S
C948 H919 0.950 . S
C948 C947 1.334 . S
C948 C949 1.287 . S
C949 C948 1.287 . S
C949 C950 1.524 . S
C949 H952 0.999 . S
C950 H920 0.950 . S
C950 C949 1.524 . S
C950 C951 1.415 . S
C951 H921 0.950 . S
C951 C946 1.363 . S
C951 C950 1.415 . S
H952 C949 0.999 . S
H953 C934 0.913 . S
H954 C972 0.951 . S
H955 C974 0.951 . S
H956 C976 0.950 . S
H957 C977 0.950 . S
H958 C979 0.950 . S
H959 C982 0.950 . S
H960 C983 0.950 . S
H961 C985 0.950 . S
H962 C986 0.950 . S
H963 C987 0.951 . S
H964 C989 0.951 . S
H965 C991 0.950 . S
H966 C992 0.950 . S
H967 C994 0.950 . S
H968 C997 0.950 . S
H969 C998 0.950 . S
H970 C1000 0.950 . S
H971 C1001 0.950 . S
C972 H954 0.951 . S
C972 C973 1.366 . S
C972 C974 1.388 . S
C973 C972 1.366 . S
C973 C977 1.385 . S
C974 H955 0.951 . S
C974 C972 1.388 . S
C974 C975 1.366 . S
C975 C974 1.366 . S
C975 C976 1.414 . S
C975 C978 1.499 . S
C976 H956 0.950 . S
C976 C975 1.414 . S
C976 C977 1.374 . S
C977 H957 0.950 . S
C977 C973 1.385 . S
C977 C976 1.374 . S
C978 C975 1.499 . S
C978 C979 1.373 . S
C978 C980 1.389 . S
C979 H958 0.950 . S
C979 C978 1.373 . S
C979 C995 1.377 . S
C980 C978 1.389 . S
C980 C981 1.524 . S
C980 C994 1.377 . S
C981 C980 1.524 . S
C981 C982 1.397 . S
C981 C986 1.363 . S
C982 H959 0.950 . S
C982 C981 1.397 . S
C982 C983 1.334 . S
C983 H960 0.950 . S
C983 C982 1.334 . S
C983 C984 1.287 . S
C984 C983 1.287 . S
C984 C985 1.524 . S
C984 H1003 0.913 . S
C985 H961 0.950 . S
C985 C984 1.524 . S
C985 C986 1.415 . S
C986 H962 0.950 . S
C986 C981 1.363 . S
C986 C985 1.415 . S
C987 H963 0.951 . S
C987 C988 1.366 . S
C987 C989 1.388 . S
C988 C987 1.366 . S
C988 C992 1.385 . S
C989 H964 0.951 . S
C989 C987 1.388 . S
C989 C990 1.366 . S
C990 C989 1.366 . S
C990 C991 1.414 . S
C990 C993 1.499 . S
C991 H965 0.950 . S
C991 C990 1.414 . S
C991 C992 1.374 . S
C992 H966 0.950 . S
C992 C988 1.385 . S
C992 C991 1.374 . S
C993 C990 1.499 . S
C993 C994 1.373 . S
C993 C995 1.389 . S
C994 H967 0.950 . S
C994 C980 1.377 . S
C994 C993 1.373 . S
C995 C979 1.377 . S
C995 C993 1.389 . S
C995 C996 1.524 . S
C996 C995 1.524 . S
C996 C997 1.397 . S
C996 C1001 1.363 . S
C997 H968 0.950 . S
C997 C996 1.397 . S
C997 C998 1.334 . S
C998 H969 0.950 . S
C998 C997 1.334 . S
C998 C999 1.287 . S
C999 C998 1.287 . S
C999 C1000 1.524 . S
C999 H1002 0.999 . S
C1000 H970 0.950 . S
C1000 C999 1.524 . S
C1000 C1001 1.415 . S
C1001 H971 0.950 . S
C1001 C996 1.363 . S
C1001 C1000 1.415 . S
H1002 C999 0.999 . S
H1003 C984 0.913 . S
H1004 C1022 0.951 . S
H1005 C1024 0.951 . S
H1006 C1026 0.950 . S
H1007 C1027 0.950 . S
H1008 C1029 0.950 . S
H1009 C1032 0.950 . S
H1010 C1033 0.950 . S
H1011 C1035 0.950 1_554 S
H1012 C1036 0.950 . S
H1013 C1037 0.951 . S
H1014 C1039 0.951 . S
H1015 C1041 0.949 . S
H1016 C1042 0.950 . S
H1017 C1044 0.950 . S
H1018 C1047 0.950 . S
H1019 C1048 0.950 . S
H1020 C1050 0.950 . S
H1021 C1051 0.950 . S
C1022 H1004 0.951 . S
C1022 C1023 1.366 . S
C1022 C1024 1.388 . S
C1023 C1022 1.366 . S
C1023 C1027 1.385 . S
C1024 H1005 0.951 . S
C1024 C1022 1.388 . S
C1024 C1025 1.366 . S
C1025 C1024 1.366 . S
C1025 C1026 1.414 . S
C1025 C1028 1.499 . S
C1026 H1006 0.950 . S
C1026 C1025 1.414 . S
C1026 C1027 1.374 . S
C1027 H1007 0.950 . S
C1027 C1023 1.385 . S
C1027 C1026 1.374 . S
C1028 C1025 1.499 . S
C1028 C1029 1.373 . S
C1028 C1030 1.389 . S
C1029 H1008 0.950 . S
C1029 C1028 1.373 . S
C1029 C1045 1.377 . S
C1030 C1028 1.389 . S
C1030 C1031 1.524 . S
C1030 C1044 1.377 . S
C1031 C1030 1.524 . S
C1031 C1032 1.397 . S
C1031 C1036 1.363 . S
C1032 H1009 0.950 . S
C1032 C1031 1.397 . S
C1032 C1033 1.334 . S
C1033 H1010 0.950 . S
C1033 C1032 1.334 . S
C1033 C1034 1.287 . S
C1034 C1033 1.287 . S
C1034 C1035 1.524 . S
C1034 H1053 0.913 . S
C1035 H1011 0.950 1_556 S
C1035 C1034 1.524 . S
C1035 C1036 1.415 . S
C1036 H1012 0.950 . S
C1036 C1031 1.363 . S
C1036 C1035 1.415 . S
C1037 H1013 0.951 . S
C1037 C1038 1.366 1_556 S
C1037 C1039 1.388 . S
C1038 C1037 1.366 1_554 S
C1038 C1042 1.385 . S
C1039 H1014 0.951 . S
C1039 C1037 1.388 . S
C1039 C1040 1.366 . S
C1040 C1039 1.366 . S
C1040 C1041 1.416 1_556 S
C1040 C1043 1.499 . S
C1041 H1015 0.949 . S
C1041 C1040 1.416 1_554 S
C1041 C1042 1.372 . S
C1042 H1016 0.950 . S
C1042 C1038 1.385 . S
C1042 C1041 1.372 . S
C1043 C1040 1.499 . S
C1043 C1044 1.373 . S
C1043 C1045 1.389 . S
C1044 H1017 0.950 . S
C1044 C1030 1.377 . S
C1044 C1043 1.373 . S
C1045 C1029 1.377 . S
C1045 C1043 1.389 . S
C1045 C1046 1.524 . S
C1046 C1045 1.524 . S
C1046 C1047 1.397 . S
C1046 C1051 1.363 . S
C1047 H1018 0.950 . S
C1047 C1046 1.397 . S
C1047 C1048 1.334 . S
C1048 H1019 0.950 . S
C1048 C1047 1.334 . S
C1048 C1049 1.287 . S
C1049 C1048 1.287 . S
C1049 C1050 1.524 . S
C1049 H1052 0.999 . S
C1050 H1020 0.950 . S
C1050 C1049 1.524 . S
C1050 C1051 1.415 . S
C1051 H1021 0.950 . S
C1051 C1046 1.363 . S
C1051 C1050 1.415 . S
H1052 C1049 0.999 . S
H1053 C1034 0.913 . S
H1054 C1072 0.951 . S
H1055 C1074 0.951 . S
H1056 C1076 0.950 . S
H1057 C1077 0.950 . S
H1058 C1079 0.950 . S
H1059 C1082 0.950 . S
H1060 C1083 0.950 . S
H1061 C1085 0.950 . S
H1062 C1086 0.950 . S
H1063 C1087 0.951 . S
H1064 C1089 0.951 . S
H1065 C1091 0.950 . S
H1066 C1092 0.950 . S
H1067 C1094 0.950 . S
H1068 C1097 0.950 . S
H1069 C1098 0.950 . S
H1070 C1100 0.950 . S
H1071 C1101 0.950 . S
C1072 H1054 0.951 . S
C1072 C1073 1.366 . S
C1072 C1074 1.388 . S
C1073 C1072 1.366 . S
C1073 C1077 1.385 . S
C1074 H1055 0.951 . S
C1074 C1072 1.388 . S
C1074 C1075 1.366 . S
C1075 C1074 1.366 . S
C1075 C1076 1.414 . S
C1075 C1078 1.499 . S
C1076 H1056 0.950 . S
C1076 C1075 1.414 . S
C1076 C1077 1.374 . S
C1077 H1057 0.950 . S
C1077 C1073 1.385 . S
C1077 C1076 1.374 . S
C1078 C1075 1.499 . S
C1078 C1079 1.373 . S
C1078 C1080 1.389 . S
C1079 H1058 0.950 . S
C1079 C1078 1.373 . S
C1079 C1095 1.377 . S
C1080 C1078 1.389 . S
C1080 C1081 1.524 . S
C1080 C1094 1.377 . S
C1081 C1080 1.524 . S
C1081 C1082 1.397 . S
C1081 C1086 1.363 . S
C1082 H1059 0.950 . S
C1082 C1081 1.397 . S
C1082 C1083 1.334 . S
C1083 H1060 0.950 . S
C1083 C1082 1.334 . S
C1083 C1084 1.287 . S
C1084 C1083 1.287 . S
C1084 C1085 1.524 . S
C1084 H1103 0.913 . S
C1085 H1061 0.950 . S
C1085 C1084 1.524 . S
C1085 C1086 1.415 . S
C1086 H1062 0.950 . S
C1086 C1081 1.363 . S
C1086 C1085 1.415 . S
C1087 H1063 0.951 . S
C1087 C1088 1.366 . S
C1087 C1089 1.388 . S
C1088 C1087 1.366 . S
C1088 C1092 1.385 . S
C1089 H1064 0.951 . S
C1089 C1087 1.388 . S
C1089 C1090 1.366 . S
C1090 C1089 1.366 . S
C1090 C1091 1.414 . S
C1090 C1093 1.499 . S
C1091 H1065 0.950 . S
C1091 C1090 1.414 . S
C1091 C1092 1.374 . S
C1092 H1066 0.950 . S
C1092 C1088 1.385 . S
C1092 C1091 1.374 . S
C1093 C1090 1.499 . S
C1093 C1094 1.373 . S
C1093 C1095 1.389 . S
C1094 H1067 0.950 . S
C1094 C1080 1.377 . S
C1094 C1093 1.373 . S
C1095 C1079 1.377 . S
C1095 C1093 1.389 . S
C1095 C1096 1.524 . S
C1096 C1095 1.524 . S
C1096 C1097 1.397 . S
C1096 C1101 1.363 . S
C1097 H1068 0.950 . S
C1097 C1096 1.397 . S
C1097 C1098 1.334 . S
C1098 H1069 0.950 . S
C1098 C1097 1.334 . S
C1098 C1099 1.287 . S
C1099 C1098 1.287 . S
C1099 C1100 1.524 . S
C1099 H1102 0.999 . S
C1100 H1070 0.950 . S
C1100 C1099 1.524 . S
C1100 C1101 1.415 . S
C1101 H1071 0.950 . S
C1101 C1096 1.363 . S
C1101 C1100 1.415 . S
H1102 C1099 0.999 . S
H1103 C1084 0.913 . S
H1104 C1122 0.951 . S
H1105 C1124 0.951 . S
H1106 C1126 0.950 . S
H1107 C1127 0.950 . S
H1108 C1129 0.950 . S
H1109 C1132 0.950 . S
H1110 C1133 0.950 . S
H1111 C1135 0.950 . S
H1112 C1136 0.950 . S
H1113 C1137 0.951 . S
H1114 C1139 0.951 . S
H1115 C1141 0.950 . S
H1116 C1142 0.950 . S
H1117 C1144 0.950 . S
H1118 C1147 0.950 . S
H1119 C1148 0.950 . S
H1120 C1150 0.950 1_655 S
H1121 C1151 0.946 1_545 S
C1122 H1104 0.951 . S
C1122 C1123 1.366 . S
C1122 C1124 1.388 . S
C1123 C1122 1.366 . S
C1123 C1127 1.385 . S
C1124 H1105 0.951 . S
C1124 C1122 1.388 . S
C1124 C1125 1.366 . S
C1125 C1124 1.366 . S
C1125 C1126 1.414 . S
C1125 C1128 1.499 . S
C1126 H1106 0.950 . S
C1126 C1125 1.414 . S
C1126 C1127 1.374 . S
C1127 H1107 0.950 . S
C1127 C1123 1.385 . S
C1127 C1126 1.374 . S
C1128 C1125 1.499 . S
C1128 C1129 1.373 . S
C1128 C1130 1.389 . S
C1129 H1108 0.950 . S
C1129 C1128 1.373 . S
C1129 C1145 1.377 . S
C1130 C1128 1.389 . S
C1130 C1131 1.524 . S
C1130 C1144 1.377 . S
C1131 C1130 1.524 . S
C1131 C1132 1.397 . S
C1131 C1136 1.363 . S
C1132 H1109 0.950 . S
C1132 C1131 1.397 . S
C1132 C1133 1.334 . S
C1133 H1110 0.950 . S
C1133 C1132 1.334 . S
C1133 C1134 1.287 . S
C1134 C1133 1.287 . S
C1134 C1135 1.524 . S
C1134 H1153 0.913 . S
C1135 H1111 0.950 . S
C1135 C1134 1.524 . S
C1135 C1136 1.415 . S
C1136 H1112 0.950 . S
C1136 C1131 1.363 . S
C1136 C1135 1.415 . S
C1137 H1113 0.951 . S
C1137 C1138 1.366 . S
C1137 C1139 1.388 . S
C1138 C1137 1.366 . S
C1138 C1142 1.385 1_545 S
C1139 H1114 0.951 . S
C1139 C1137 1.388 . S
C1139 C1140 1.366 . S
C1140 C1139 1.366 . S
C1140 C1141 1.414 1_545 S
C1140 C1143 1.499 . S
C1141 H1115 0.950 . S
C1141 C1140 1.414 1_565 S
C1141 C1142 1.374 . S
C1142 H1116 0.950 . S
C1142 C1138 1.385 1_565 S
C1142 C1141 1.374 . S
C1143 C1140 1.499 . S
C1143 C1144 1.373 . S
C1143 C1145 1.389 . S
C1144 H1117 0.950 . S
C1144 C1130 1.377 . S
C1144 C1143 1.373 . S
C1145 C1129 1.377 . S
C1145 C1143 1.389 . S
C1145 C1146 1.524 1_545 S
C1146 C1145 1.524 1_565 S
C1146 C1147 1.397 . S
C1146 C1151 1.365 . S
C1147 H1118 0.950 . S
C1147 C1146 1.397 . S
C1147 C1148 1.334 . S
C1148 H1119 0.950 . S
C1148 C1147 1.334 . S
C1148 C1149 1.287 . S
C1149 C1148 1.287 . S
C1149 C1150 1.524 . S
C1149 H1152 0.999 1_455 S
C1150 H1120 0.950 1_455 S
C1150 C1149 1.524 . S
C1150 C1151 1.418 . S
C1151 H1121 0.946 1_565 S
C1151 C1146 1.365 . S
C1151 C1150 1.418 . S
H1152 C1149 0.999 1_655 S
H1153 C1134 0.913 . S
H1154 C1172 0.951 . S
H1155 C1174 0.951 . S
H1156 C1176 0.950 . S
H1157 C1177 0.950 . S
H1158 C1179 0.950 . S
H1159 C1182 0.950 . S
H1160 C1183 0.950 . S
H1161 C1185 0.950 . S
H1162 C1186 0.950 . S
H1163 C1187 0.951 . S
H1164 C1189 0.951 . S
H1165 C1191 0.950 . S
H1166 C1192 0.950 . S
H1167 C1194 0.950 . S
H1168 C1197 0.950 . S
H1169 C1198 0.950 . S
H1170 C1200 0.950 . S
H1171 C1201 0.950 . S
C1172 H1154 0.951 . S
C1172 C1173 1.366 . S
C1172 C1174 1.388 . S
C1173 C1172 1.366 . S
C1173 C1177 1.385 . S
C1174 H1155 0.951 . S
C1174 C1172 1.388 . S
C1174 C1175 1.366 . S
C1175 C1174 1.366 . S
C1175 C1176 1.414 . S
C1175 C1178 1.499 . S
C1176 H1156 0.950 . S
C1176 C1175 1.414 . S
C1176 C1177 1.374 . S
C1177 H1157 0.950 . S
C1177 C1173 1.385 . S
C1177 C1176 1.374 . S
C1178 C1175 1.499 . S
C1178 C1179 1.373 . S
C1178 C1180 1.389 . S
C1179 H1158 0.950 . S
C1179 C1178 1.373 . S
C1179 C1195 1.377 . S
C1180 C1178 1.389 . S
C1180 C1181 1.524 . S
C1180 C1194 1.377 . S
C1181 C1180 1.524 . S
C1181 C1182 1.397 . S
C1181 C1186 1.363 . S
C1182 H1159 0.950 . S
C1182 C1181 1.397 . S
C1182 C1183 1.334 . S
C1183 H1160 0.950 . S
C1183 C1182 1.334 . S
C1183 C1184 1.287 . S
C1184 C1183 1.287 . S
C1184 C1185 1.524 . S
C1184 H1203 0.913 . S
C1185 H1161 0.950 . S
C1185 C1184 1.524 . S
C1185 C1186 1.415 . S
C1186 H1162 0.950 . S
C1186 C1181 1.363 . S
C1186 C1185 1.415 . S
C1187 H1163 0.951 . S
C1187 C1188 1.366 . S
C1187 C1189 1.388 . S
C1188 C1187 1.366 . S
C1188 C1192 1.385 . S
C1189 H1164 0.951 . S
C1189 C1187 1.388 . S
C1189 C1190 1.366 . S
C1190 C1189 1.366 . S
C1190 C1191 1.414 . S
C1190 C1193 1.499 . S
C1191 H1165 0.950 . S
C1191 C1190 1.414 . S
C1191 C1192 1.374 . S
C1192 H1166 0.950 . S
C1192 C1188 1.385 . S
C1192 C1191 1.374 . S
C1193 C1190 1.499 . S
C1193 C1194 1.373 . S
C1193 C1195 1.389 . S
C1194 H1167 0.950 . S
C1194 C1180 1.377 . S
C1194 C1193 1.373 . S
C1195 C1179 1.377 . S
C1195 C1193 1.389 . S
C1195 C1196 1.524 . S
C1196 C1195 1.524 . S
C1196 C1197 1.397 . S
C1196 C1201 1.363 . S
C1197 H1168 0.950 . S
C1197 C1196 1.397 . S
C1197 C1198 1.334 . S
C1198 H1169 0.950 . S
C1198 C1197 1.334 . S
C1198 C1199 1.287 . S
C1199 C1198 1.287 . S
C1199 C1200 1.524 . S
C1199 H1202 0.999 . S
C1200 H1170 0.950 . S
C1200 C1199 1.524 . S
C1200 C1201 1.415 . S
C1201 H1171 0.950 . S
C1201 C1196 1.363 . S
C1201 C1200 1.415 . S
H1202 C1199 0.999 . S
H1203 C1184 0.913 . S
H1204 C1222 0.951 . S
H1205 C1224 0.951 . S
H1206 C1226 0.950 . S
H1207 C1227 0.946 1_565 S
H1208 C1229 0.950 . S
H1209 C1232 0.950 . S
H1210 C1233 0.950 . S
H1211 C1235 0.950 . S
H1212 C1236 0.950 . S
H1213 C1237 0.951 . S
H1214 C1239 0.951 . S
H1215 C1241 0.950 . S
H1216 C1242 0.950 . S
H1217 C1244 0.950 . S
H1218 C1247 0.950 . S
H1219 C1248 0.950 . S
H1220 C1250 0.950 . S
H1221 C1251 0.950 . S
C1222 H1204 0.951 . S
C1222 C1223 1.366 . S
C1222 C1224 1.388 . S
C1223 C1222 1.366 . S
C1223 C1227 1.385 . S
C1224 H1205 0.951 . S
C1224 C1222 1.388 . S
C1224 C1225 1.366 . S
C1225 C1224 1.366 . S
C1225 C1226 1.414 . S
C1225 C1228 1.499 . S
C1226 H1206 0.950 . S
C1226 C1225 1.414 . S
C1226 C1227 1.374 . S
C1227 H1207 0.946 1_545 S
C1227 C1223 1.385 . S
C1227 C1226 1.374 . S
C1228 C1225 1.499 . S
C1228 C1229 1.373 1_545 S
C1228 C1230 1.389 . S
C1229 H1208 0.950 . S
C1229 C1228 1.373 1_565 S
C1229 C1245 1.377 . S
C1230 C1228 1.389 . S
C1230 C1231 1.524 . S
C1230 C1244 1.377 . S
C1231 C1230 1.524 . S
C1231 C1232 1.397 . S
C1231 C1236 1.363 . S
C1232 H1209 0.950 . S
C1232 C1231 1.397 . S
C1232 C1233 1.334 . S
C1233 H1210 0.950 . S
C1233 C1232 1.334 . S
C1233 C1234 1.287 . S
C1234 C1233 1.287 . S
C1234 C1235 1.524 . S
C1234 H1253 0.913 . S
C1235 H1211 0.950 . S
C1235 C1234 1.524 . S
C1235 C1236 1.415 . S
C1236 H1212 0.950 . S
C1236 C1231 1.363 . S
C1236 C1235 1.415 . S
C1237 H1213 0.951 . S
C1237 C1238 1.366 . S
C1237 C1239 1.388 . S
C1238 C1237 1.366 . S
C1238 C1242 1.385 . S
C1239 H1214 0.951 . S
C1239 C1237 1.388 . S
C1239 C1240 1.366 . S
C1240 C1239 1.366 . S
C1240 C1241 1.414 . S
C1240 C1243 1.499 . S
C1241 H1215 0.950 . S
C1241 C1240 1.414 . S
C1241 C1242 1.374 . S
C1242 H1216 0.950 . S
C1242 C1238 1.385 . S
C1242 C1241 1.374 . S
C1243 C1240 1.499 . S
C1243 C1244 1.373 . S
C1243 C1245 1.389 1_545 S
C1244 H1217 0.950 . S
C1244 C1230 1.377 . S
C1244 C1243 1.373 . S
C1245 C1229 1.377 . S
C1245 C1243 1.389 1_565 S
C1245 C1246 1.524 . S
C1246 C1245 1.524 . S
C1246 C1247 1.397 . S
C1246 C1251 1.363 . S
C1247 H1218 0.950 . S
C1247 C1246 1.397 . S
C1247 C1248 1.334 . S
C1248 H1219 0.950 . S
C1248 C1247 1.334 . S
C1248 C1249 1.287 . S
C1249 C1248 1.287 . S
C1249 C1250 1.524 . S
C1249 H1252 0.999 . S
C1250 H1220 0.950 . S
C1250 C1249 1.524 . S
C1250 C1251 1.415 . S
C1251 H1221 0.950 . S
C1251 C1246 1.363 . S
C1251 C1250 1.415 . S
H1252 C1249 0.999 . S
H1253 C1234 0.913 . S
H1254 C1272 0.951 . S
H1255 C1274 0.951 . S
H1256 C1276 0.950 . S
H1257 C1277 0.950 . S
H1258 C1279 0.950 . S
H1259 C1282 0.950 . S
H1260 C1283 0.950 . S
H1261 C1285 0.950 . S
H1262 C1286 0.950 . S
H1263 C1287 0.951 . S
H1264 C1289 0.951 . S
H1265 C1291 0.950 . S
H1266 C1292 0.950 . S
H1267 C1294 0.950 . S
H1268 C1297 0.950 . S
H1269 C1298 0.950 . S
H1270 C1300 0.950 . S
H1271 C1301 0.950 . S
C1272 H1254 0.951 . S
C1272 C1273 1.366 . S
C1272 C1274 1.388 . S
C1273 C1272 1.366 . S
C1273 C1277 1.385 . S
C1274 H1255 0.951 . S
C1274 C1272 1.388 . S
C1274 C1275 1.366 . S
C1275 C1274 1.366 . S
C1275 C1276 1.414 . S
C1275 C1278 1.499 . S
C1276 H1256 0.950 . S
C1276 C1275 1.414 . S
C1276 C1277 1.374 . S
C1277 H1257 0.950 . S
C1277 C1273 1.385 . S
C1277 C1276 1.374 . S
C1278 C1275 1.499 . S
C1278 C1279 1.373 . S
C1278 C1280 1.389 . S
C1279 H1258 0.950 . S
C1279 C1278 1.373 . S
C1279 C1295 1.377 . S
C1280 C1278 1.389 . S
C1280 C1281 1.524 . S
C1280 C1294 1.377 . S
C1281 C1280 1.524 . S
C1281 C1282 1.397 . S
C1281 C1286 1.363 . S
C1282 H1259 0.950 . S
C1282 C1281 1.397 . S
C1282 C1283 1.334 . S
C1283 H1260 0.950 . S
C1283 C1282 1.334 . S
C1283 C1284 1.287 . S
C1284 C1283 1.287 . S
C1284 C1285 1.524 . S
C1284 H1303 0.913 . S
C1285 H1261 0.950 . S
C1285 C1284 1.524 . S
C1285 C1286 1.415 . S
C1286 H1262 0.950 . S
C1286 C1281 1.363 . S
C1286 C1285 1.415 . S
C1287 H1263 0.951 . S
C1287 C1288 1.366 . S
C1287 C1289 1.388 . S
C1288 C1287 1.366 . S
C1288 C1292 1.385 . S
C1289 H1264 0.951 . S
C1289 C1287 1.388 . S
C1289 C1290 1.366 . S
C1290 C1289 1.366 . S
C1290 C1291 1.414 . S
C1290 C1293 1.499 . S
C1291 H1265 0.950 . S
C1291 C1290 1.414 . S
C1291 C1292 1.374 . S
C1292 H1266 0.950 . S
C1292 C1288 1.385 . S
C1292 C1291 1.374 . S
C1293 C1290 1.499 . S
C1293 C1294 1.373 . S
C1293 C1295 1.389 . S
C1294 H1267 0.950 . S
C1294 C1280 1.377 . S
C1294 C1293 1.373 . S
C1295 C1279 1.377 . S
C1295 C1293 1.389 . S
C1295 C1296 1.524 . S
C1296 C1295 1.524 . S
C1296 C1297 1.397 . S
C1296 C1301 1.363 . S
C1297 H1268 0.950 . S
C1297 C1296 1.397 . S
C1297 C1298 1.334 . S
C1298 H1269 0.950 . S
C1298 C1297 1.334 . S
C1298 C1299 1.287 . S
C1299 C1298 1.287 . S
C1299 C1300 1.524 . S
C1299 H1302 0.999 . S
C1300 H1270 0.950 . S
C1300 C1299 1.524 . S
C1300 C1301 1.415 . S
C1301 H1271 0.950 . S
C1301 C1296 1.363 . S
C1301 C1300 1.415 . S
H1302 C1299 0.999 . S
H1303 C1284 0.913 . S
H1304 C1322 0.951 . S
H1305 C1324 0.951 . S
H1306 C1326 0.950 . S
H1307 C1327 0.950 . S
H1308 C1329 0.950 . S
H1309 C1332 0.950 . S
H1310 C1333 0.950 . S
H1311 C1335 0.950 . S
H1312 C1336 0.950 1_545 S
H1313 C1337 0.951 . S
H1314 C1339 0.951 . S
H1315 C1341 0.950 . S
H1316 C1342 0.950 . S
H1317 C1344 0.950 . S
H1318 C1347 0.950 . S
H1319 C1348 0.950 . S
H1320 C1350 0.950 . S
H1321 C1351 0.950 . S
C1322 H1304 0.951 . S
C1322 C1323 1.366 . S
C1322 C1324 1.388 . S
C1323 C1322 1.366 . S
C1323 C1327 1.385 . S
C1324 H1305 0.951 . S
C1324 C1322 1.388 . S
C1324 C1325 1.366 . S
C1325 C1324 1.366 . S
C1325 C1326 1.414 . S
C1325 C1328 1.499 . S
C1326 H1306 0.950 . S
C1326 C1325 1.414 . S
C1326 C1327 1.374 . S
C1327 H1307 0.950 . S
C1327 C1323 1.385 . S
C1327 C1326 1.374 . S
C1328 C1325 1.499 . S
C1328 C1329 1.373 . S
C1328 C1330 1.389 . S
C1329 H1308 0.950 . S
C1329 C1328 1.373 . S
C1329 C1345 1.377 . S
C1330 C1328 1.389 . S
C1330 C1331 1.524 1_545 S
C1330 C1344 1.377 . S
C1331 C1330 1.524 1_565 S
C1331 C1332 1.397 . S
C1331 C1336 1.363 . S
C1332 H1309 0.950 . S
C1332 C1331 1.397 . S
C1332 C1333 1.334 . S
C1333 H1310 0.950 . S
C1333 C1332 1.334 . S
C1333 C1334 1.287 . S
C1334 C1333 1.287 . S
C1334 C1335 1.524 . S
C1334 H1353 0.913 . S
C1335 H1311 0.950 . S
C1335 C1334 1.524 . S
C1335 C1336 1.415 . S
C1336 H1312 0.950 1_565 S
C1336 C1331 1.363 . S
C1336 C1335 1.415 . S
C1337 H1313 0.951 . S
C1337 C1338 1.366 . S
C1337 C1339 1.388 . S
C1338 C1337 1.366 . S
C1338 C1342 1.385 . S
C1339 H1314 0.951 . S
C1339 C1337 1.388 . S
C1339 C1340 1.366 . S
C1340 C1339 1.366 . S
C1340 C1341 1.414 . S
C1340 C1343 1.499 . S
C1341 H1315 0.950 . S
C1341 C1340 1.414 . S
C1341 C1342 1.374 . S
C1342 H1316 0.950 . S
C1342 C1338 1.385 . S
C1342 C1341 1.374 . S
C1343 C1340 1.499 . S
C1343 C1344 1.373 . S
C1343 C1345 1.389 . S
C1344 H1317 0.950 . S
C1344 C1330 1.377 . S
C1344 C1343 1.373 . S
C1345 C1329 1.377 . S
C1345 C1343 1.389 . S
C1345 C1346 1.524 . S
C1346 C1345 1.524 . S
C1346 C1347 1.397 . S
C1346 C1351 1.363 . S
C1347 H1318 0.950 . S
C1347 C1346 1.397 . S
C1347 C1348 1.334 . S
C1348 H1319 0.950 . S
C1348 C1347 1.334 . S
C1348 C1349 1.287 . S
C1349 C1348 1.287 . S
C1349 C1350 1.524 . S
C1349 H1352 0.999 . S
C1350 H1320 0.950 . S
C1350 C1349 1.524 . S
C1350 C1351 1.415 . S
C1351 H1321 0.950 . S
C1351 C1346 1.363 . S
C1351 C1350 1.415 . S
H1352 C1349 0.999 . S
H1353 C1334 0.913 . S
H1354 C1372 0.951 . S
H1355 C1374 0.951 . S
H1356 C1376 0.950 . S
H1357 C1377 0.950 . S
H1358 C1379 0.950 . S
H1359 C1382 0.950 . S
H1360 C1383 0.950 . S
H1361 C1385 0.950 . S
H1362 C1386 0.950 . S
H1363 C1387 0.951 . S
H1364 C1389 0.951 . S
H1365 C1391 0.950 . S
H1366 C1392 0.950 . S
H1367 C1394 0.950 . S
H1368 C1397 0.950 . S
H1369 C1398 0.950 . S
H1370 C1400 0.950 . S
H1371 C1401 0.950 . S
C1372 H1354 0.951 . S
C1372 C1373 1.366 . S
C1372 C1374 1.388 . S
C1373 C1372 1.366 . S
C1373 C1377 1.385 . S
C1374 H1355 0.951 . S
C1374 C1372 1.388 . S
C1374 C1375 1.366 . S
C1375 C1374 1.366 . S
C1375 C1376 1.414 . S
C1375 C1378 1.499 . S
C1376 H1356 0.950 . S
C1376 C1375 1.414 . S
C1376 C1377 1.374 . S
C1377 H1357 0.950 . S
C1377 C1373 1.385 . S
C1377 C1376 1.374 . S
C1378 C1375 1.499 . S
C1378 C1379 1.373 . S
C1378 C1380 1.389 . S
C1379 H1358 0.950 . S
C1379 C1378 1.373 . S
C1379 C1395 1.377 . S
C1380 C1378 1.389 . S
C1380 C1381 1.524 . S
C1380 C1394 1.377 . S
C1381 C1380 1.524 . S
C1381 C1382 1.397 . S
C1381 C1386 1.363 . S
C1382 H1359 0.950 . S
C1382 C1381 1.397 . S
C1382 C1383 1.334 . S
C1383 H1360 0.950 . S
C1383 C1382 1.334 . S
C1383 C1384 1.287 . S
C1384 C1383 1.287 . S
C1384 C1385 1.524 . S
C1384 H1403 0.913 . S
C1385 H1361 0.950 . S
C1385 C1384 1.524 . S
C1385 C1386 1.415 . S
C1386 H1362 0.950 . S
C1386 C1381 1.363 . S
C1386 C1385 1.415 . S
C1387 H1363 0.951 . S
C1387 C1388 1.366 . S
C1387 C1389 1.388 . S
C1388 C1387 1.366 . S
C1388 C1392 1.385 . S
C1389 H1364 0.951 . S
C1389 C1387 1.388 . S
C1389 C1390 1.366 . S
C1390 C1389 1.366 . S
C1390 C1391 1.414 . S
C1390 C1393 1.499 . S
C1391 H1365 0.950 . S
C1391 C1390 1.414 . S
C1391 C1392 1.374 . S
C1392 H1366 0.950 . S
C1392 C1388 1.385 . S
C1392 C1391 1.374 . S
C1393 C1390 1.499 . S
C1393 C1394 1.373 . S
C1393 C1395 1.389 . S
C1394 H1367 0.950 . S
C1394 C1380 1.377 . S
C1394 C1393 1.373 . S
C1395 C1379 1.377 . S
C1395 C1393 1.389 . S
C1395 C1396 1.524 . S
C1396 C1395 1.524 . S
C1396 C1397 1.397 . S
C1396 C1401 1.363 . S
C1397 H1368 0.950 . S
C1397 C1396 1.397 . S
C1397 C1398 1.334 . S
C1398 H1369 0.950 . S
C1398 C1397 1.334 . S
C1398 C1399 1.287 . S
C1399 C1398 1.287 . S
C1399 C1400 1.524 . S
C1399 H1402 0.999 . S
C1400 H1370 0.950 . S
C1400 C1399 1.524 . S
C1400 C1401 1.415 . S
C1401 H1371 0.950 . S
C1401 C1396 1.363 . S
C1401 C1400 1.415 . S
H1402 C1399 0.999 . S
H1403 C1384 0.913 . S
H1404 C1422 0.951 . S
H1405 C1424 0.951 . S
H1406 C1426 0.952 . S
H1407 C1427 0.951 . S
H1408 C1429 0.950 . S
H1409 C1432 0.950 . S
H1410 C1433 0.950 . S
H1411 C1435 0.950 . S
H1412 C1436 0.950 . S
H1413 C1437 0.951 . S
H1414 C1439 0.951 . S
H1415 C1441 0.950 . S
H1416 C1442 0.950 . S
H1417 C1444 0.950 . S
H1418 C1447 0.950 . S
H1419 C1448 0.950 . S
H1420 C1450 0.950 . S
H1421 C1451 0.950 . S
C1422 H1404 0.951 . S
C1422 C1423 1.365 . S
C1422 C1424 1.388 . S
C1423 C1422 1.365 . S
C1423 C1427 1.384 1_565 S
C1424 H1405 0.951 . S
C1424 C1422 1.388 . S
C1424 C1425 1.366 . S
C1425 C1424 1.366 . S
C1425 C1426 1.414 . S
C1425 C1428 1.499 . S
C1426 H1406 0.952 . S
C1426 C1425 1.414 . S
C1426 C1427 1.373 1_565 S
C1427 H1407 0.951 . S
C1427 C1423 1.384 1_545 S
C1427 C1426 1.373 1_545 S
C1428 C1425 1.499 . S
C1428 C1429 1.373 1_565 S
C1428 C1430 1.389 . S
C1429 H1408 0.950 . S
C1429 C1428 1.373 1_545 S
C1429 C1445 1.377 . S
C1430 C1428 1.389 . S
C1430 C1431 1.524 . S
C1430 C1444 1.377 . S
C1431 C1430 1.524 . S
C1431 C1432 1.397 . S
C1431 C1436 1.363 . S
C1432 H1409 0.950 . S
C1432 C1431 1.397 . S
C1432 C1433 1.334 . S
C1433 H1410 0.950 . S
C1433 C1432 1.334 . S
C1433 C1434 1.287 . S
C1434 C1433 1.287 . S
C1434 C1435 1.524 . S
C1434 H1453 0.913 . S
C1435 H1411 0.950 . S
C1435 C1434 1.524 . S
C1435 C1436 1.415 . S
C1436 H1412 0.950 . S
C1436 C1431 1.363 . S
C1436 C1435 1.415 . S
C1437 H1413 0.951 . S
C1437 C1438 1.366 . S
C1437 C1439 1.388 . S
C1438 C1437 1.366 . S
C1438 C1442 1.385 . S
C1439 H1414 0.951 . S
C1439 C1437 1.388 . S
C1439 C1440 1.366 . S
C1440 C1439 1.366 . S
C1440 C1441 1.414 . S
C1440 C1443 1.499 . S
C1441 H1415 0.950 . S
C1441 C1440 1.414 . S
C1441 C1442 1.374 . S
C1442 H1416 0.950 . S
C1442 C1438 1.385 . S
C1442 C1441 1.374 . S
C1443 C1440 1.499 . S
C1443 C1444 1.373 . S
C1443 C1445 1.389 1_565 S
C1444 H1417 0.950 . S
C1444 C1430 1.377 . S
C1444 C1443 1.373 . S
C1445 C1429 1.377 . S
C1445 C1443 1.389 1_545 S
C1445 C1446 1.524 . S
C1446 C1445 1.524 . S
C1446 C1447 1.397 . S
C1446 C1451 1.363 . S
C1447 H1418 0.950 . S
C1447 C1446 1.397 . S
C1447 C1448 1.334 . S
C1448 H1419 0.950 . S
C1448 C1447 1.334 . S
C1448 C1449 1.287 . S
C1449 C1448 1.287 . S
C1449 C1450 1.524 . S
C1449 H1452 0.999 . S
C1450 H1420 0.950 . S
C1450 C1449 1.524 . S
C1450 C1451 1.415 . S
C1451 H1421 0.950 . S
C1451 C1446 1.363 . S
C1451 C1450 1.415 . S
H1452 C1449 0.999 . S
H1453 C1434 0.913 . S
H1454 C1472 0.951 . S
H1455 C1474 0.951 . S
H1456 C1476 0.950 . S
H1457 C1477 0.950 . S
H1458 C1479 0.950 . S
H1459 C1482 0.950 . S
H1460 C1483 0.950 . S
H1461 C1485 0.950 . S
H1462 C1486 0.950 . S
H1463 C1487 0.951 . S
H1464 C1489 0.951 . S
H1465 C1491 0.950 . S
H1466 C1492 0.950 . S
H1467 C1494 0.950 . S
H1468 C1497 0.950 . S
H1469 C1498 0.950 . S
H1470 C1500 0.950 . S
H1471 C1501 0.950 . S
C1472 H1454 0.951 . S
C1472 C1473 1.366 . S
C1472 C1474 1.388 . S
C1473 C1472 1.366 . S
C1473 C1477 1.385 . S
C1474 H1455 0.951 . S
C1474 C1472 1.388 . S
C1474 C1475 1.366 . S
C1475 C1474 1.366 . S
C1475 C1476 1.414 . S
C1475 C1478 1.499 . S
C1476 H1456 0.950 . S
C1476 C1475 1.414 . S
C1476 C1477 1.374 . S
C1477 H1457 0.950 . S
C1477 C1473 1.385 . S
C1477 C1476 1.374 . S
C1478 C1475 1.499 . S
C1478 C1479 1.373 . S
C1478 C1480 1.389 . S
C1479 H1458 0.950 . S
C1479 C1478 1.373 . S
C1479 C1495 1.377 . S
C1480 C1478 1.389 . S
C1480 C1481 1.524 . S
C1480 C1494 1.377 . S
C1481 C1480 1.524 . S
C1481 C1482 1.397 . S
C1481 C1486 1.363 . S
C1482 H1459 0.950 . S
C1482 C1481 1.397 . S
C1482 C1483 1.334 . S
C1483 H1460 0.950 . S
C1483 C1482 1.334 . S
C1483 C1484 1.287 . S
C1484 C1483 1.287 . S
C1484 C1485 1.524 . S
C1484 H1503 0.913 . S
C1485 H1461 0.950 . S
C1485 C1484 1.524 . S
C1485 C1486 1.415 . S
C1486 H1462 0.950 . S
C1486 C1481 1.363 . S
C1486 C1485 1.415 . S
C1487 H1463 0.951 . S
C1487 C1488 1.366 . S
C1487 C1489 1.388 . S
C1488 C1487 1.366 . S
C1488 C1492 1.385 . S
C1489 H1464 0.951 . S
C1489 C1487 1.388 . S
C1489 C1490 1.366 . S
C1490 C1489 1.366 . S
C1490 C1491 1.414 . S
C1490 C1493 1.499 . S
C1491 H1465 0.950 . S
C1491 C1490 1.414 . S
C1491 C1492 1.374 . S
C1492 H1466 0.950 . S
C1492 C1488 1.385 . S
C1492 C1491 1.374 . S
C1493 C1490 1.499 . S
C1493 C1494 1.373 . S
C1493 C1495 1.389 . S
C1494 H1467 0.950 . S
C1494 C1480 1.377 . S
C1494 C1493 1.373 . S
C1495 C1479 1.377 . S
C1495 C1493 1.389 . S
C1495 C1496 1.524 . S
C1496 C1495 1.524 . S
C1496 C1497 1.397 . S
C1496 C1501 1.363 . S
C1497 H1468 0.950 . S
C1497 C1496 1.397 . S
C1497 C1498 1.334 . S
C1498 H1469 0.950 . S
C1498 C1497 1.334 . S
C1498 C1499 1.287 . S
C1499 C1498 1.287 . S
C1499 C1500 1.524 . S
C1499 H1502 0.999 . S
C1500 H1470 0.950 . S
C1500 C1499 1.524 . S
C1500 C1501 1.415 . S
C1501 H1471 0.950 . S
C1501 C1496 1.363 . S
C1501 C1500 1.415 . S
H1502 C1499 0.999 . S
H1503 C1484 0.913 . S
H1504 C1522 0.951 . S
H1505 C1524 0.951 . S
H1506 C1526 0.950 . S
H1507 C1527 0.950 . S
H1508 C1529 0.950 . S
H1509 C1532 0.950 . S
H1510 C1533 0.950 . S
H1511 C1535 0.950 . S
H1512 C1536 0.950 . S
H1513 C1537 0.951 . S
H1514 C1539 0.951 . S
H1515 C1541 0.948 1_556 S
H1516 C1542 0.949 1_566 S
H1517 C1544 0.950 . S
H1518 C1547 0.950 . S
H1519 C1548 0.950 . S
H1520 C1550 0.950 . S
H1521 C1551 0.950 . S
C1522 H1504 0.951 . S
C1522 C1523 1.366 . S
C1522 C1524 1.388 . S
C1523 C1522 1.366 . S
C1523 C1527 1.385 . S
C1524 H1505 0.951 . S
C1524 C1522 1.388 . S
C1524 C1525 1.366 . S
C1525 C1524 1.366 . S
C1525 C1526 1.414 . S
C1525 C1528 1.499 . S
C1526 H1506 0.950 . S
C1526 C1525 1.414 . S
C1526 C1527 1.374 . S
C1527 H1507 0.950 . S
C1527 C1523 1.385 . S
C1527 C1526 1.374 . S
C1528 C1525 1.499 . S
C1528 C1529 1.373 . S
C1528 C1530 1.389 1_554 S
C1529 H1508 0.950 . S
C1529 C1528 1.373 . S
C1529 C1545 1.377 . S
C1530 C1528 1.389 1_556 S
C1530 C1531 1.524 . S
C1530 C1544 1.377 . S
C1531 C1530 1.524 . S
C1531 C1532 1.397 . S
C1531 C1536 1.363 . S
C1532 H1509 0.950 . S
C1532 C1531 1.397 . S
C1532 C1533 1.334 . S
C1533 H1510 0.950 . S
C1533 C1532 1.334 . S
C1533 C1534 1.287 . S
C1534 C1533 1.287 . S
C1534 C1535 1.524 . S
C1534 H1553 0.913 . S
C1535 H1511 0.950 . S
C1535 C1534 1.524 . S
C1535 C1536 1.415 . S
C1536 H1512 0.950 . S
C1536 C1531 1.363 . S
C1536 C1535 1.415 . S
C1537 H1513 0.951 . S
C1537 C1538 1.366 . S
C1537 C1539 1.388 . S
C1538 C1537 1.366 . S
C1538 C1542 1.386 . S
C1539 H1514 0.951 . S
C1539 C1537 1.388 . S
C1539 C1540 1.366 . S
C1540 C1539 1.366 . S
C1540 C1541 1.414 . S
C1540 C1543 1.499 . S
C1541 H1515 0.948 1_554 S
C1541 C1540 1.414 . S
C1541 C1542 1.374 . S
C1542 H1516 0.949 1_544 S
C1542 C1538 1.386 . S
C1542 C1541 1.374 . S
C1543 C1540 1.499 . S
C1543 C1544 1.373 1_554 S
C1543 C1545 1.389 . S
C1544 H1517 0.950 . S
C1544 C1530 1.377 . S
C1544 C1543 1.373 1_556 S
C1545 C1529 1.377 . S
C1545 C1543 1.389 . S
C1545 C1546 1.524 . S
C1546 C1545 1.524 . S
C1546 C1547 1.397 . S
C1546 C1551 1.363 . S
C1547 H1518 0.950 . S
C1547 C1546 1.397 . S
C1547 C1548 1.334 . S
C1548 H1519 0.950 . S
C1548 C1547 1.334 . S
C1548 C1549 1.287 . S
C1549 C1548 1.287 . S
C1549 C1550 1.524 . S
C1549 H1552 0.999 . S
C1550 H1520 0.950 . S
C1550 C1549 1.524 . S
C1550 C1551 1.415 . S
C1551 H1521 0.950 . S
C1551 C1546 1.363 . S
C1551 C1550 1.415 . S
H1552 C1549 0.999 . S
H1553 C1534 0.913 . S
H1554 C1572 0.951 . S
H1555 C1574 0.951 . S
H1556 C1576 0.950 . S
H1557 C1577 0.953 . S
H1558 C1579 0.950 . S
H1559 C1582 0.950 . S
H1560 C1583 0.950 . S
H1561 C1585 0.950 . S
H1562 C1586 0.950 . S
H1563 C1587 0.951 . S
H1564 C1589 0.951 . S
H1565 C1591 0.950 . S
H1566 C1592 0.950 . S
H1567 C1594 0.950 . S
H1568 C1597 0.950 . S
H1569 C1598 0.950 . S
H1570 C1600 0.950 . S
H1571 C1601 0.950 . S
C1572 H1554 0.951 . S
C1572 C1573 1.366 . S
C1572 C1574 1.388 . S
C1573 C1572 1.366 . S
C1573 C1577 1.385 . S
C1574 H1555 0.951 . S
C1574 C1572 1.388 . S
C1574 C1575 1.366 . S
C1575 C1574 1.366 . S
C1575 C1576 1.414 . S
C1575 C1578 1.499 . S
C1576 H1556 0.950 . S
C1576 C1575 1.414 . S
C1576 C1577 1.374 . S
C1577 H1557 0.953 . S
C1577 C1573 1.385 . S
C1577 C1576 1.374 . S
C1578 C1575 1.499 . S
C1578 C1579 1.373 1_554 S
C1578 C1580 1.389 . S
C1579 H1558 0.950 . S
C1579 C1578 1.373 1_556 S
C1579 C1595 1.380 . S
C1580 C1578 1.389 . S
C1580 C1581 1.524 . S
C1580 C1594 1.377 . S
C1581 C1580 1.524 . S
C1581 C1582 1.397 . S
C1581 C1586 1.363 . S
C1582 H1559 0.950 . S
C1582 C1581 1.397 . S
C1582 C1583 1.334 . S
C1583 H1560 0.950 . S
C1583 C1582 1.334 . S
C1583 C1584 1.287 . S
C1584 C1583 1.287 . S
C1584 C1585 1.524 . S
C1584 H1603 0.913 . S
C1585 H1561 0.950 . S
C1585 C1584 1.524 . S
C1585 C1586 1.415 . S
C1586 H1562 0.950 . S
C1586 C1581 1.363 . S
C1586 C1585 1.415 . S
C1587 H1563 0.951 . S
C1587 C1588 1.366 . S
C1587 C1589 1.388 . S
C1588 C1587 1.366 . S
C1588 C1592 1.385 . S
C1589 H1564 0.951 . S
C1589 C1587 1.388 . S
C1589 C1590 1.366 . S
C1590 C1589 1.366 . S
C1590 C1591 1.414 . S
C1590 C1593 1.499 . S
C1591 H1565 0.950 . S
C1591 C1590 1.414 . S
C1591 C1592 1.374 . S
C1592 H1566 0.950 . S
C1592 C1588 1.385 . S
C1592 C1591 1.374 . S
C1593 C1590 1.499 . S
C1593 C1594 1.373 . S
C1593 C1595 1.342 1_554 S
C1594 H1567 0.950 . S
C1594 C1580 1.377 . S
C1594 C1593 1.373 . S
C1595 C1579 1.380 . S
C1595 C1593 1.342 1_556 S
C1595 C1596 1.575 . S
C1596 C1595 1.575 . S
C1596 C1597 1.397 . S
C1596 C1601 1.363 . S
C1597 H1568 0.950 . S
C1597 C1596 1.397 . S
C1597 C1598 1.334 . S
C1598 H1569 0.950 . S
C1598 C1597 1.334 . S
C1598 C1599 1.287 . S
C1599 C1598 1.287 . S
C1599 C1600 1.524 . S
C1599 H1602 0.999 . S
C1600 H1570 0.950 . S
C1600 C1599 1.524 . S
C1600 C1601 1.415 . S
C1601 H1571 0.950 . S
C1601 C1596 1.363 . S
C1601 C1600 1.415 . S
H1602 C1599 0.999 . S
H1603 C1584 0.913 . S
H1604 C1622 0.951 . S
H1605 C1624 0.951 . S
H1606 C1626 0.950 . S
H1607 C1627 0.950 . S
H1608 C1629 0.950 . S
H1609 C1632 0.950 . S
H1610 C1633 0.950 . S
H1611 C1635 0.950 . S
H1612 C1636 0.950 . S
H1613 C1637 0.951 . S
H1614 C1639 0.951 . S
H1615 C1641 0.950 . S
H1616 C1642 0.950 . S
H1617 C1644 0.950 . S
H1618 C1647 0.950 . S
H1619 C1648 0.950 . S
H1620 C1650 0.950 . S
H1621 C1651 0.950 . S
C1622 H1604 0.951 . S
C1622 C1623 1.366 . S
C1622 C1624 1.388 . S
C1623 C1622 1.366 . S
C1623 C1627 1.385 . S
C1624 H1605 0.951 . S
C1624 C1622 1.388 . S
C1624 C1625 1.366 . S
C1625 C1624 1.366 . S
C1625 C1626 1.414 . S
C1625 C1628 1.499 . S
C1626 H1606 0.950 . S
C1626 C1625 1.414 . S
C1626 C1627 1.374 . S
C1627 H1607 0.950 . S
C1627 C1623 1.385 . S
C1627 C1626 1.374 . S
C1628 C1625 1.499 . S
C1628 C1629 1.373 . S
C1628 C1630 1.389 . S
C1629 H1608 0.950 . S
C1629 C1628 1.373 . S
C1629 C1645 1.377 . S
C1630 C1628 1.389 . S
C1630 C1631 1.524 . S
C1630 C1644 1.377 . S
C1631 C1630 1.524 . S
C1631 C1632 1.397 . S
C1631 C1636 1.363 . S
C1632 H1609 0.950 . S
C1632 C1631 1.397 . S
C1632 C1633 1.334 . S
C1633 H1610 0.950 . S
C1633 C1632 1.334 . S
C1633 C1634 1.287 . S
C1634 C1633 1.287 . S
C1634 C1635 1.524 . S
C1634 H1653 0.913 . S
C1635 H1611 0.950 . S
C1635 C1634 1.524 . S
C1635 C1636 1.415 . S
C1636 H1612 0.950 . S
C1636 C1631 1.363 . S
C1636 C1635 1.415 . S
C1637 H1613 0.951 . S
C1637 C1638 1.366 . S
C1637 C1639 1.388 . S
C1638 C1637 1.366 . S
C1638 C1642 1.385 . S
C1639 H1614 0.951 . S
C1639 C1637 1.388 . S
C1639 C1640 1.366 . S
C1640 C1639 1.366 . S
C1640 C1641 1.414 . S
C1640 C1643 1.499 . S
C1641 H1615 0.950 . S
C1641 C1640 1.414 . S
C1641 C1642 1.374 . S
C1642 H1616 0.950 . S
C1642 C1638 1.385 . S
C1642 C1641 1.374 . S
C1643 C1640 1.499 . S
C1643 C1644 1.373 . S
C1643 C1645 1.389 . S
C1644 H1617 0.950 . S
C1644 C1630 1.377 . S
C1644 C1643 1.373 . S
C1645 C1629 1.377 . S
C1645 C1643 1.389 . S
C1645 C1646 1.524 . S
C1646 C1645 1.524 . S
C1646 C1647 1.397 . S
C1646 C1651 1.363 . S
C1647 H1618 0.950 . S
C1647 C1646 1.397 . S
C1647 C1648 1.334 . S
C1648 H1619 0.950 . S
C1648 C1647 1.334 . S
C1648 C1649 1.287 . S
C1649 C1648 1.287 . S
C1649 C1650 1.524 . S
C1649 H1652 0.999 . S
C1650 H1620 0.950 . S
C1650 C1649 1.524 . S
C1650 C1651 1.415 . S
C1651 H1621 0.950 . S
C1651 C1646 1.363 . S
C1651 C1650 1.415 . S
H1652 C1649 0.999 . S
H1653 C1634 0.913 . S
H1654 C1672 0.951 . S
H1655 C1674 0.951 . S
H1656 C1676 0.950 . S
H1657 C1677 0.950 . S
H1658 C1679 0.950 . S
H1659 C1682 0.950 . S
H1660 C1683 0.950 . S
H1661 C1685 0.950 . S
H1662 C1686 0.950 . S
H1663 C1687 0.951 . S
H1664 C1689 0.951 . S
H1665 C1691 0.950 . S
H1666 C1692 0.950 . S
H1667 C1694 0.950 . S
H1668 C1697 0.950 . S
H1669 C1698 0.950 . S
H1670 C1700 0.950 . S
H1671 C1701 0.950 . S
C1672 H1654 0.951 . S
C1672 C1673 1.366 . S
C1672 C1674 1.388 . S
C1673 C1672 1.366 . S
C1673 C1677 1.385 . S
C1674 H1655 0.951 . S
C1674 C1672 1.388 . S
C1674 C1675 1.366 . S
C1675 C1674 1.366 . S
C1675 C1676 1.414 . S
C1675 C1678 1.499 . S
C1676 H1656 0.950 . S
C1676 C1675 1.414 . S
C1676 C1677 1.374 . S
C1677 H1657 0.950 . S
C1677 C1673 1.385 . S
C1677 C1676 1.374 . S
C1678 C1675 1.499 . S
C1678 C1679 1.373 . S
C1678 C1680 1.389 . S
C1679 H1658 0.950 . S
C1679 C1678 1.373 . S
C1679 C1695 1.377 . S
C1680 C1678 1.389 . S
C1680 C1681 1.524 . S
C1680 C1694 1.377 . S
C1681 C1680 1.524 . S
C1681 C1682 1.397 . S
C1681 C1686 1.363 . S
C1682 H1659 0.950 . S
C1682 C1681 1.397 . S
C1682 C1683 1.334 . S
C1683 H1660 0.950 . S
C1683 C1682 1.334 . S
C1683 C1684 1.287 . S
C1684 C1683 1.287 . S
C1684 C1685 1.524 . S
C1684 H1703 0.913 . S
C1685 H1661 0.950 . S
C1685 C1684 1.524 . S
C1685 C1686 1.415 . S
C1686 H1662 0.950 . S
C1686 C1681 1.363 . S
C1686 C1685 1.415 . S
C1687 H1663 0.951 . S
C1687 C1688 1.366 . S
C1687 C1689 1.388 . S
C1688 C1687 1.366 . S
C1688 C1692 1.385 . S
C1689 H1664 0.951 . S
C1689 C1687 1.388 . S
C1689 C1690 1.366 . S
C1690 C1689 1.366 . S
C1690 C1691 1.414 . S
C1690 C1693 1.499 . S
C1691 H1665 0.950 . S
C1691 C1690 1.414 . S
C1691 C1692 1.374 . S
C1692 H1666 0.950 . S
C1692 C1688 1.385 . S
C1692 C1691 1.374 . S
C1693 C1690 1.499 . S
C1693 C1694 1.373 . S
C1693 C1695 1.389 . S
C1694 H1667 0.950 . S
C1694 C1680 1.377 . S
C1694 C1693 1.373 . S
C1695 C1679 1.377 . S
C1695 C1693 1.389 . S
C1695 C1696 1.524 . S
C1696 C1695 1.524 . S
C1696 C1697 1.397 . S
C1696 C1701 1.363 . S
C1697 H1668 0.950 . S
C1697 C1696 1.397 . S
C1697 C1698 1.334 . S
C1698 H1669 0.950 . S
C1698 C1697 1.334 . S
C1698 C1699 1.287 . S
C1699 C1698 1.287 . S
C1699 C1700 1.524 . S
C1699 H1702 0.999 . S
C1700 H1670 0.950 . S
C1700 C1699 1.524 . S
C1700 C1701 1.415 . S
C1701 H1671 0.950 . S
C1701 C1696 1.363 . S
C1701 C1700 1.415 . S
H1702 C1699 0.999 . S
H1703 C1684 0.913 . S
H1704 C1722 0.951 . S
H1705 C1724 0.951 . S
H1706 C1726 0.950 . S
H1707 C1727 0.950 . S
H1708 C1729 0.950 . S
H1709 C1732 0.950 . S
H1710 C1733 0.950 . S
H1711 C1735 0.950 . S
H1712 C1736 0.950 . S
H1713 C1737 0.951 . S
H1714 C1739 0.951 . S
H1715 C1741 0.950 . S
H1716 C1742 0.950 . S
H1717 C1744 0.950 . S
H1718 C1747 0.950 . S
H1719 C1748 0.950 . S
H1720 C1750 0.950 . S
H1721 C1751 0.950 . S
C1722 H1704 0.951 . S
C1722 C1723 1.366 . S
C1722 C1724 1.388 . S
C1723 C1722 1.366 . S
C1723 C1727 1.385 . S
C1724 H1705 0.951 . S
C1724 C1722 1.388 . S
C1724 C1725 1.366 . S
C1725 C1724 1.366 . S
C1725 C1726 1.414 . S
C1725 C1728 1.499 . S
C1726 H1706 0.950 . S
C1726 C1725 1.414 . S
C1726 C1727 1.374 . S
C1727 H1707 0.950 . S
C1727 C1723 1.385 . S
C1727 C1726 1.374 . S
C1728 C1725 1.499 . S
C1728 C1729 1.373 . S
C1728 C1730 1.389 . S
C1729 H1708 0.950 . S
C1729 C1728 1.373 . S
C1729 C1745 1.377 . S
C1730 C1728 1.389 . S
C1730 C1731 1.524 . S
C1730 C1744 1.377 . S
C1731 C1730 1.524 . S
C1731 C1732 1.397 . S
C1731 C1736 1.363 . S
C1732 H1709 0.950 . S
C1732 C1731 1.397 . S
C1732 C1733 1.334 . S
C1733 H1710 0.950 . S
C1733 C1732 1.334 . S
C1733 C1734 1.287 . S
C1734 C1733 1.287 . S
C1734 C1735 1.524 . S
C1734 H1753 0.913 . S
C1735 H1711 0.950 . S
C1735 C1734 1.524 . S
C1735 C1736 1.415 . S
C1736 H1712 0.950 . S
C1736 C1731 1.363 . S
C1736 C1735 1.415 . S
C1737 H1713 0.951 . S
C1737 C1738 1.366 . S
C1737 C1739 1.388 . S
C1738 C1737 1.366 . S
C1738 C1742 1.385 . S
C1739 H1714 0.951 . S
C1739 C1737 1.388 . S
C1739 C1740 1.366 . S
C1740 C1739 1.366 . S
C1740 C1741 1.414 . S
C1740 C1743 1.499 . S
C1741 H1715 0.950 . S
C1741 C1740 1.414 . S
C1741 C1742 1.374 . S
C1742 H1716 0.950 . S
C1742 C1738 1.385 . S
C1742 C1741 1.374 . S
C1743 C1740 1.499 . S
C1743 C1744 1.373 . S
C1743 C1745 1.389 . S
C1744 H1717 0.950 . S
C1744 C1730 1.377 . S
C1744 C1743 1.373 . S
C1745 C1729 1.377 . S
C1745 C1743 1.389 . S
C1745 C1746 1.524 . S
C1746 C1745 1.524 . S
C1746 C1747 1.397 . S
C1746 C1751 1.363 . S
C1747 H1718 0.950 . S
C1747 C1746 1.397 . S
C1747 C1748 1.334 . S
C1748 H1719 0.950 . S
C1748 C1747 1.334 . S
C1748 C1749 1.287 . S
C1749 C1748 1.287 . S
C1749 C1750 1.524 . S
C1749 H1752 0.999 . S
C1750 H1720 0.950 . S
C1750 C1749 1.524 . S
C1750 C1751 1.415 . S
C1751 H1721 0.950 . S
C1751 C1746 1.363 . S
C1751 C1750 1.415 . S
H1752 C1749 0.999 . S
H1753 C1734 0.913 . S
H1754 C1772 0.951 . S
H1755 C1774 0.951 . S
H1756 C1776 0.950 . S
H1757 C1777 0.950 . S
H1758 C1779 0.950 . S
H1759 C1782 0.950 . S
H1760 C1783 0.950 . S
H1761 C1785 0.950 . S
H1762 C1786 0.950 . S
H1763 C1787 0.951 . S
H1764 C1789 0.951 . S
H1765 C1791 0.951 . S
H1766 C1792 0.950 . S
H1767 C1794 0.950 . S
H1768 C1797 0.950 . S
H1769 C1798 0.950 . S
H1770 C1800 0.950 . S
H1771 C1801 0.950 . S
C1772 H1754 0.951 . S
C1772 C1773 1.366 . S
C1772 C1774 1.388 . S
C1773 C1772 1.366 . S
C1773 C1777 1.385 . S
C1774 H1755 0.951 . S
C1774 C1772 1.388 . S
C1774 C1775 1.366 . S
C1775 C1774 1.366 . S
C1775 C1776 1.414 . S
C1775 C1778 1.499 . S
C1776 H1756 0.950 . S
C1776 C1775 1.414 . S
C1776 C1777 1.374 . S
C1777 H1757 0.950 . S
C1777 C1773 1.385 . S
C1777 C1776 1.374 . S
C1778 C1775 1.499 . S
C1778 C1779 1.373 . S
C1778 C1780 1.389 . S
C1779 H1758 0.950 . S
C1779 C1778 1.373 . S
C1779 C1795 1.377 . S
C1780 C1778 1.389 . S
C1780 C1781 1.524 . S
C1780 C1794 1.377 . S
C1781 C1780 1.524 . S
C1781 C1782 1.397 . S
C1781 C1786 1.363 . S
C1782 H1759 0.950 . S
C1782 C1781 1.397 . S
C1782 C1783 1.334 . S
C1783 H1760 0.950 . S
C1783 C1782 1.334 . S
C1783 C1784 1.287 . S
C1784 C1783 1.287 . S
C1784 C1785 1.524 . S
C1784 H1803 0.913 . S
C1785 H1761 0.950 . S
C1785 C1784 1.524 . S
C1785 C1786 1.415 . S
C1786 H1762 0.950 . S
C1786 C1781 1.363 . S
C1786 C1785 1.415 . S
C1787 H1763 0.951 . S
C1787 C1788 1.326 1_565 S
C1787 C1789 1.388 . S
C1788 C1787 1.326 1_545 S
C1788 C1792 1.404 . S
C1789 H1764 0.951 . S
C1789 C1787 1.388 . S
C1789 C1790 1.366 . S
C1790 C1789 1.366 . S
C1790 C1791 1.412 1_565 S
C1790 C1793 1.499 . S
C1791 H1765 0.951 . S
C1791 C1790 1.412 1_545 S
C1791 C1792 1.375 . S
C1792 H1766 0.950 . S
C1792 C1788 1.404 . S
C1792 C1791 1.375 . S
C1793 C1790 1.499 . S
C1793 C1794 1.373 . S
C1793 C1795 1.389 . S
C1794 H1767 0.950 . S
C1794 C1780 1.377 . S
C1794 C1793 1.373 . S
C1795 C1779 1.377 . S
C1795 C1793 1.389 . S
C1795 C1796 1.524 . S
C1796 C1795 1.524 . S
C1796 C1797 1.397 . S
C1796 C1801 1.363 . S
C1797 H1768 0.950 . S
C1797 C1796 1.397 . S
C1797 C1798 1.334 . S
C1798 H1769 0.950 . S
C1798 C1797 1.334 . S
C1798 C1799 1.287 . S
C1799 C1798 1.287 . S
C1799 C1800 1.524 . S
C1799 H1802 0.999 . S
C1800 H1770 0.950 . S
C1800 C1799 1.524 . S
C1800 C1801 1.415 . S
C1801 H1771 0.950 . S
C1801 C1796 1.363 . S
C1801 C1800 1.415 . S
H1802 C1799 0.999 . S
H1803 C1784 0.913 . S
H1804 C1822 0.951 . S
H1805 C1824 0.951 . S
H1806 C1826 0.950 . S
H1807 C1827 0.950 . S
H1808 C1829 0.950 . S
H1809 C1832 0.950 . S
H1810 C1833 0.950 . S
H1811 C1835 0.950 . S
H1812 C1836 0.950 . S
H1813 C1837 0.951 . S
H1814 C1839 0.951 . S
H1815 C1841 0.950 . S
H1816 C1842 0.950 . S
H1817 C1844 0.950 . S
H1818 C1847 0.950 . S
H1819 C1848 0.950 . S
H1820 C1850 0.950 . S
H1821 C1851 0.950 . S
C1822 H1804 0.951 . S
C1822 C1823 1.366 . S
C1822 C1824 1.388 . S
C1823 C1822 1.366 . S
C1823 C1827 1.385 . S
C1824 H1805 0.951 . S
C1824 C1822 1.388 . S
C1824 C1825 1.366 . S
C1825 C1824 1.366 . S
C1825 C1826 1.414 . S
C1825 C1828 1.499 . S
C1826 H1806 0.950 . S
C1826 C1825 1.414 . S
C1826 C1827 1.374 . S
C1827 H1807 0.950 . S
C1827 C1823 1.385 . S
C1827 C1826 1.374 . S
C1828 C1825 1.499 . S
C1828 C1829 1.373 . S
C1828 C1830 1.389 . S
C1829 H1808 0.950 . S
C1829 C1828 1.373 . S
C1829 C1845 1.377 . S
C1830 C1828 1.389 . S
C1830 C1831 1.524 . S
C1830 C1844 1.377 . S
C1831 C1830 1.524 . S
C1831 C1832 1.397 . S
C1831 C1836 1.363 . S
C1832 H1809 0.950 . S
C1832 C1831 1.397 . S
C1832 C1833 1.334 . S
C1833 H1810 0.950 . S
C1833 C1832 1.334 . S
C1833 C1834 1.287 . S
C1834 C1833 1.287 . S
C1834 C1835 1.524 . S
C1834 H1853 0.913 . S
C1835 H1811 0.950 . S
C1835 C1834 1.524 . S
C1835 C1836 1.415 . S
C1836 H1812 0.950 . S
C1836 C1831 1.363 . S
C1836 C1835 1.415 . S
C1837 H1813 0.951 . S
C1837 C1838 1.366 . S
C1837 C1839 1.388 . S
C1838 C1837 1.366 . S
C1838 C1842 1.385 . S
C1839 H1814 0.951 . S
C1839 C1837 1.388 . S
C1839 C1840 1.366 . S
C1840 C1839 1.366 . S
C1840 C1841 1.414 . S
C1840 C1843 1.499 . S
C1841 H1815 0.950 . S
C1841 C1840 1.414 . S
C1841 C1842 1.374 . S
C1842 H1816 0.950 . S
C1842 C1838 1.385 . S
C1842 C1841 1.374 . S
C1843 C1840 1.499 . S
C1843 C1844 1.373 . S
C1843 C1845 1.389 . S
C1844 H1817 0.950 . S
C1844 C1830 1.377 . S
C1844 C1843 1.373 . S
C1845 C1829 1.377 . S
C1845 C1843 1.389 . S
C1845 C1846 1.524 . S
C1846 C1845 1.524 . S
C1846 C1847 1.397 . S
C1846 C1851 1.363 . S
C1847 H1818 0.950 . S
C1847 C1846 1.397 . S
C1847 C1848 1.334 . S
C1848 H1819 0.950 . S
C1848 C1847 1.334 . S
C1848 C1849 1.287 . S
C1849 C1848 1.287 . S
C1849 C1850 1.524 . S
C1849 H1852 0.999 . S
C1850 H1820 0.950 . S
C1850 C1849 1.524 . S
C1850 C1851 1.415 . S
C1851 H1821 0.950 . S
C1851 C1846 1.363 . S
C1851 C1850 1.415 . S
H1852 C1849 0.999 . S
H1853 C1834 0.913 . S
H1854 C1872 0.951 . S
H1855 C1874 0.951 . S
H1856 C1876 0.950 . S
H1857 C1877 0.950 . S
H1858 C1879 0.950 . S
H1859 C1882 0.950 . S
H1860 C1883 0.950 . S
H1861 C1885 0.950 . S
H1862 C1886 0.950 . S
H1863 C1887 0.951 . S
H1864 C1889 0.951 . S
H1865 C1891 0.950 . S
H1866 C1892 0.950 . S
H1867 C1894 0.950 . S
H1868 C1897 0.950 . S
H1869 C1898 0.950 . S
H1870 C1900 0.950 . S
H1871 C1901 0.950 . S
C1872 H1854 0.951 . S
C1872 C1873 1.366 . S
C1872 C1874 1.388 . S
C1873 C1872 1.366 . S
C1873 C1877 1.385 . S
C1874 H1855 0.951 . S
C1874 C1872 1.388 . S
C1874 C1875 1.366 . S
C1875 C1874 1.366 . S
C1875 C1876 1.414 . S
C1875 C1878 1.499 . S
C1876 H1856 0.950 . S
C1876 C1875 1.414 . S
C1876 C1877 1.374 . S
C1877 H1857 0.950 . S
C1877 C1873 1.385 . S
C1877 C1876 1.374 . S
C1878 C1875 1.499 . S
C1878 C1879 1.373 . S
C1878 C1880 1.389 . S
C1879 H1858 0.950 . S
C1879 C1878 1.373 . S
C1879 C1895 1.377 . S
C1880 C1878 1.389 . S
C1880 C1881 1.524 . S
C1880 C1894 1.377 . S
C1881 C1880 1.524 . S
C1881 C1882 1.397 . S
C1881 C1886 1.363 . S
C1882 H1859 0.950 . S
C1882 C1881 1.397 . S
C1882 C1883 1.334 . S
C1883 H1860 0.950 . S
C1883 C1882 1.334 . S
C1883 C1884 1.287 . S
C1884 C1883 1.287 . S
C1884 C1885 1.524 . S
C1884 H1903 0.913 . S
C1885 H1861 0.950 . S
C1885 C1884 1.524 . S
C1885 C1886 1.415 . S
C1886 H1862 0.950 . S
C1886 C1881 1.363 . S
C1886 C1885 1.415 . S
C1887 H1863 0.951 . S
C1887 C1888 1.366 . S
C1887 C1889 1.388 . S
C1888 C1887 1.366 . S
C1888 C1892 1.385 . S
C1889 H1864 0.951 . S
C1889 C1887 1.388 . S
C1889 C1890 1.366 . S
C1890 C1889 1.366 . S
C1890 C1891 1.414 . S
C1890 C1893 1.499 . S
C1891 H1865 0.950 . S
C1891 C1890 1.414 . S
C1891 C1892 1.374 . S
C1892 H1866 0.950 . S
C1892 C1888 1.385 . S
C1892 C1891 1.374 . S
C1893 C1890 1.499 . S
C1893 C1894 1.373 . S
C1893 C1895 1.389 . S
C1894 H1867 0.950 . S
C1894 C1880 1.377 . S
C1894 C1893 1.373 . S
C1895 C1879 1.377 . S
C1895 C1893 1.389 . S
C1895 C1896 1.524 . S
C1896 C1895 1.524 . S
C1896 C1897 1.397 . S
C1896 C1901 1.363 . S
C1897 H1868 0.950 . S
C1897 C1896 1.397 . S
C1897 C1898 1.334 . S
C1898 H1869 0.950 . S
C1898 C1897 1.334 . S
C1898 C1899 1.287 . S
C1899 C1898 1.287 . S
C1899 C1900 1.524 . S
C1899 H1902 0.999 . S
C1900 H1870 0.950 . S
C1900 C1899 1.524 . S
C1900 C1901 1.415 . S
C1901 H1871 0.950 . S
C1901 C1896 1.363 . S
C1901 C1900 1.415 . S
H1902 C1899 0.999 . S
H1903 C1884 0.913 . S
H1904 C1922 0.951 . S
H1905 C1924 0.951 . S
H1906 C1926 0.950 . S
H1907 C1927 0.950 . S
H1908 C1929 0.950 . S
H1909 C1932 0.950 . S
H1910 C1933 0.950 . S
H1911 C1935 0.950 . S
H1912 C1936 0.950 . S
H1913 C1937 0.951 . S
H1914 C1939 0.951 . S
H1915 C1941 0.950 . S
H1916 C1942 0.957 1_554 S
H1917 C1944 0.950 . S
H1918 C1947 0.950 1_554 S
H1919 C1948 0.950 . S
H1920 C1950 0.950 . S
H1921 C1951 0.950 . S
C1922 H1904 0.951 . S
C1922 C1923 1.366 1_655 S
C1922 C1924 1.388 . S
C1923 C1922 1.366 1_455 S
C1923 C1927 1.385 . S
C1924 H1905 0.951 . S
C1924 C1922 1.388 . S
C1924 C1925 1.366 1_655 S
C1925 C1924 1.366 1_455 S
C1925 C1926 1.414 . S
C1925 C1928 1.499 . S
C1926 H1906 0.950 . S
C1926 C1925 1.414 . S
C1926 C1927 1.374 . S
C1927 H1907 0.950 . S
C1927 C1923 1.385 . S
C1927 C1926 1.374 . S
C1928 C1925 1.499 . S
C1928 C1929 1.373 . S
C1928 C1930 1.389 1_455 S
C1929 H1908 0.950 . S
C1929 C1928 1.373 . S
C1929 C1945 1.377 . S
C1930 C1928 1.389 1_655 S
C1930 C1931 1.524 . S
C1930 C1944 1.377 . S
C1931 C1930 1.524 . S
C1931 C1932 1.397 . S
C1931 C1936 1.363 . S
C1932 H1909 0.950 . S
C1932 C1931 1.397 . S
C1932 C1933 1.334 . S
C1933 H1910 0.950 . S
C1933 C1932 1.334 . S
C1933 C1934 1.287 . S
C1934 C1933 1.287 . S
C1934 C1935 1.524 . S
C1934 H1953 0.913 . S
C1935 H1911 0.950 . S
C1935 C1934 1.524 . S
C1935 C1936 1.415 . S
C1936 H1912 0.950 . S
C1936 C1931 1.363 . S
C1936 C1935 1.415 . S
C1937 H1913 0.951 . S
C1937 C1938 1.366 . S
C1937 C1939 1.388 . S
C1938 C1937 1.366 . S
C1938 C1942 1.378 1_455 S
C1939 H1914 0.951 . S
C1939 C1937 1.388 . S
C1939 C1940 1.366 . S
C1940 C1939 1.366 . S
C1940 C1941 1.414 1_455 S
C1940 C1943 1.499 . S
C1941 H1915 0.950 . S
C1941 C1940 1.414 1_655 S
C1941 C1942 1.374 . S
C1942 H1916 0.957 1_556 S
C1942 C1938 1.378 1_655 S
C1942 C1941 1.374 . S
C1943 C1940 1.499 . S
C1943 C1944 1.373 1_455 S
C1943 C1945 1.389 . S
C1944 H1917 0.950 . S
C1944 C1930 1.377 . S
C1944 C1943 1.373 1_655 S
C1945 C1929 1.377 . S
C1945 C1943 1.389 . S
C1945 C1946 1.524 . S
C1946 C1945 1.524 . S
C1946 C1947 1.397 . S
C1946 C1951 1.363 . S
C1947 H1918 0.950 1_556 S
C1947 C1946 1.397 . S
C1947 C1948 1.334 1_556 S
C1948 H1919 0.950 . S
C1948 C1947 1.334 1_554 S
C1948 C1949 1.287 1_554 S
C1949 C1948 1.287 1_556 S
C1949 C1950 1.524 . S
C1949 H1952 0.999 1_556 S
C1950 H1920 0.950 . S
C1950 C1949 1.524 . S
C1950 C1951 1.415 . S
C1951 H1921 0.950 . S
C1951 C1946 1.363 . S
C1951 C1950 1.415 . S
H1952 C1949 0.999 1_554 S
H1953 C1934 0.913 . S
H1954 C1972 0.951 . S
H1955 C1974 0.951 . S
H1956 C1976 0.950 . S
H1957 C1977 0.950 . S
H1958 C1979 0.950 . S
H1959 C1982 0.950 . S
H1960 C1983 0.950 . S
H1961 C1985 0.950 . S
H1962 C1986 0.950 . S
H1963 C1987 0.951 . S
H1964 C1989 0.951 . S
H1965 C1991 0.950 . S
H1966 C1992 0.950 . S
H1967 C1994 0.950 . S
H1968 C1997 0.950 . S
H1969 C1998 0.950 . S
H1970 C2000 0.950 . S
H1971 C2001 0.950 . S
C1972 H1954 0.951 . S
C1972 C1973 1.366 . S
C1972 C1974 1.388 . S
C1973 C1972 1.366 . S
C1973 C1977 1.385 . S
C1974 H1955 0.951 . S
C1974 C1972 1.388 . S
C1974 C1975 1.366 . S
C1975 C1974 1.366 . S
C1975 C1976 1.414 . S
C1975 C1978 1.499 . S
C1976 H1956 0.950 . S
C1976 C1975 1.414 . S
C1976 C1977 1.374 . S
C1977 H1957 0.950 . S
C1977 C1973 1.385 . S
C1977 C1976 1.374 . S
C1978 C1975 1.499 . S
C1978 C1979 1.373 . S
C1978 C1980 1.389 . S
C1979 H1958 0.950 . S
C1979 C1978 1.373 . S
C1979 C1995 1.377 . S
C1980 C1978 1.389 . S
C1980 C1981 1.524 . S
C1980 C1994 1.377 . S
C1981 C1980 1.524 . S
C1981 C1982 1.397 . S
C1981 C1986 1.363 . S
C1982 H1959 0.950 . S
C1982 C1981 1.397 . S
C1982 C1983 1.334 . S
C1983 H1960 0.950 . S
C1983 C1982 1.334 . S
C1983 C1984 1.287 . S
C1984 C1983 1.287 . S
C1984 C1985 1.524 . S
C1984 H2003 0.913 . S
C1985 H1961 0.950 . S
C1985 C1984 1.524 . S
C1985 C1986 1.415 . S
C1986 H1962 0.950 . S
C1986 C1981 1.363 . S
C1986 C1985 1.415 . S
C1987 H1963 0.951 . S
C1987 C1988 1.366 . S
C1987 C1989 1.388 . S
C1988 C1987 1.366 . S
C1988 C1992 1.385 . S
C1989 H1964 0.951 . S
C1989 C1987 1.388 . S
C1989 C1990 1.366 . S
C1990 C1989 1.366 . S
C1990 C1991 1.414 . S
C1990 C1993 1.499 . S
C1991 H1965 0.950 . S
C1991 C1990 1.414 . S
C1991 C1992 1.374 . S
C1992 H1966 0.950 . S
C1992 C1988 1.385 . S
C1992 C1991 1.374 . S
C1993 C1990 1.499 . S
C1993 C1994 1.373 . S
C1993 C1995 1.389 . S
C1994 H1967 0.950 . S
C1994 C1980 1.377 . S
C1994 C1993 1.373 . S
C1995 C1979 1.377 . S
C1995 C1993 1.389 . S
C1995 C1996 1.524 . S
C1996 C1995 1.524 . S
C1996 C1997 1.397 . S
C1996 C2001 1.363 . S
C1997 H1968 0.950 . S
C1997 C1996 1.397 . S
C1997 C1998 1.334 . S
C1998 H1969 0.950 . S
C1998 C1997 1.334 . S
C1998 C1999 1.287 . S
C1999 C1998 1.287 . S
C1999 C2000 1.524 . S
C1999 H2002 0.999 . S
C2000 H1970 0.950 . S
C2000 C1999 1.524 . S
C2000 C2001 1.415 . S
C2001 H1971 0.950 . S
C2001 C1996 1.363 . S
C2001 C2000 1.415 . S
H2002 C1999 0.999 . S
H2003 C1984 0.913 . S
H2004 C2022 0.951 . S
H2005 C2024 0.951 . S
H2006 C2026 0.950 . S
H2007 C2027 0.950 . S
H2008 C2029 0.950 . S
H2009 C2032 0.950 . S
H2010 C2033 0.950 . S
H2011 C2035 0.950 . S
H2012 C2036 0.950 . S
H2013 C2037 0.951 . S
H2014 C2039 0.951 . S
H2015 C2041 0.950 . S
H2016 C2042 0.950 . S
H2017 C2044 0.950 . S
H2018 C2047 0.950 . S
H2019 C2048 0.950 . S
H2020 C2050 0.950 . S
H2021 C2051 0.950 . S
C2022 H2004 0.951 . S
C2022 C2023 1.366 . S
C2022 C2024 1.388 . S
C2023 C2022 1.366 . S
C2023 C2027 1.385 . S
C2024 H2005 0.951 . S
C2024 C2022 1.388 . S
C2024 C2025 1.366 . S
C2025 C2024 1.366 . S
C2025 C2026 1.414 . S
C2025 C2028 1.499 . S
C2026 H2006 0.950 . S
C2026 C2025 1.414 . S
C2026 C2027 1.374 . S
C2027 H2007 0.950 . S
C2027 C2023 1.385 . S
C2027 C2026 1.374 . S
C2028 C2025 1.499 . S
C2028 C2029 1.373 . S
C2028 C2030 1.389 . S
C2029 H2008 0.950 . S
C2029 C2028 1.373 . S
C2029 C2045 1.377 . S
C2030 C2028 1.389 . S
C2030 C2031 1.524 . S
C2030 C2044 1.377 . S
C2031 C2030 1.524 . S
C2031 C2032 1.397 . S
C2031 C2036 1.363 . S
C2032 H2009 0.950 . S
C2032 C2031 1.397 . S
C2032 C2033 1.334 . S
C2033 H2010 0.950 . S
C2033 C2032 1.334 . S
C2033 C2034 1.287 . S
C2034 C2033 1.287 . S
C2034 C2035 1.524 . S
C2034 H2053 0.913 . S
C2035 H2011 0.950 . S
C2035 C2034 1.524 . S
C2035 C2036 1.415 . S
C2036 H2012 0.950 . S
C2036 C2031 1.363 . S
C2036 C2035 1.415 . S
C2037 H2013 0.951 . S
C2037 C2038 1.366 . S
C2037 C2039 1.388 . S
C2038 C2037 1.366 . S
C2038 C2042 1.385 . S
C2039 H2014 0.951 . S
C2039 C2037 1.388 . S
C2039 C2040 1.366 . S
C2040 C2039 1.366 . S
C2040 C2041 1.414 . S
C2040 C2043 1.499 . S
C2041 H2015 0.950 . S
C2041 C2040 1.414 . S
C2041 C2042 1.374 . S
C2042 H2016 0.950 . S
C2042 C2038 1.385 . S
C2042 C2041 1.374 . S
C2043 C2040 1.499 . S
C2043 C2044 1.373 . S
C2043 C2045 1.389 . S
C2044 H2017 0.950 . S
C2044 C2030 1.377 . S
C2044 C2043 1.373 . S
C2045 C2029 1.377 . S
C2045 C2043 1.389 . S
C2045 C2046 1.524 . S
C2046 C2045 1.524 . S
C2046 C2047 1.397 . S
C2046 C2051 1.363 . S
C2047 H2018 0.950 . S
C2047 C2046 1.397 . S
C2047 C2048 1.334 . S
C2048 H2019 0.950 . S
C2048 C2047 1.334 . S
C2048 C2049 1.287 . S
C2049 C2048 1.287 . S
C2049 C2050 1.524 . S
C2049 H2052 0.999 . S
C2050 H2020 0.950 . S
C2050 C2049 1.524 . S
C2050 C2051 1.415 . S
C2051 H2021 0.950 . S
C2051 C2046 1.363 . S
C2051 C2050 1.415 . S
H2052 C2049 0.999 . S
H2053 C2034 0.913 . S
H2054 C2072 0.951 . S
H2055 C2074 0.951 . S
H2056 C2076 0.950 . S
H2057 C2077 0.950 . S
H2058 C2079 0.950 . S
H2059 C2082 0.950 . S
H2060 C2083 0.950 . S
H2061 C2085 0.950 . S
H2062 C2086 0.950 . S
H2063 C2087 0.951 . S
H2064 C2089 0.951 . S
H2065 C2091 0.950 . S
H2066 C2092 0.950 . S
H2067 C2094 0.950 . S
H2068 C2097 0.950 . S
H2069 C2098 0.950 . S
H2070 C2100 0.950 . S
H2071 C2101 0.950 . S
C2072 H2054 0.951 . S
C2072 C2073 1.366 . S
C2072 C2074 1.388 . S
C2073 C2072 1.366 . S
C2073 C2077 1.385 . S
C2074 H2055 0.951 . S
C2074 C2072 1.388 . S
C2074 C2075 1.366 . S
C2075 C2074 1.366 . S
C2075 C2076 1.414 . S
C2075 C2078 1.499 . S
C2076 H2056 0.950 . S
C2076 C2075 1.414 . S
C2076 C2077 1.374 . S
C2077 H2057 0.950 . S
C2077 C2073 1.385 . S
C2077 C2076 1.374 . S
C2078 C2075 1.499 . S
C2078 C2079 1.373 . S
C2078 C2080 1.389 . S
C2079 H2058 0.950 . S
C2079 C2078 1.373 . S
C2079 C2095 1.377 . S
C2080 C2078 1.389 . S
C2080 C2081 1.524 . S
C2080 C2094 1.377 . S
C2081 C2080 1.524 . S
C2081 C2082 1.397 . S
C2081 C2086 1.363 . S
C2082 H2059 0.950 . S
C2082 C2081 1.397 . S
C2082 C2083 1.334 . S
C2083 H2060 0.950 . S
C2083 C2082 1.334 . S
C2083 C2084 1.287 . S
C2084 C2083 1.287 . S
C2084 C2085 1.524 . S
C2084 H2103 0.913 . S
C2085 H2061 0.950 . S
C2085 C2084 1.524 . S
C2085 C2086 1.415 . S
C2086 H2062 0.950 . S
C2086 C2081 1.363 . S
C2086 C2085 1.415 . S
C2087 H2063 0.951 . S
C2087 C2088 1.366 . S
C2087 C2089 1.388 . S
C2088 C2087 1.366 . S
C2088 C2092 1.385 . S
C2089 H2064 0.951 . S
C2089 C2087 1.388 . S
C2089 C2090 1.366 . S
C2090 C2089 1.366 . S
C2090 C2091 1.414 . S
C2090 C2093 1.499 . S
C2091 H2065 0.950 . S
C2091 C2090 1.414 . S
C2091 C2092 1.374 . S
C2092 H2066 0.950 . S
C2092 C2088 1.385 . S
C2092 C2091 1.374 . S
C2093 C2090 1.499 . S
C2093 C2094 1.373 . S
C2093 C2095 1.389 . S
C2094 H2067 0.950 . S
C2094 C2080 1.377 . S
C2094 C2093 1.373 . S
C2095 C2079 1.377 . S
C2095 C2093 1.389 . S
C2095 C2096 1.524 . S
C2096 C2095 1.524 . S
C2096 C2097 1.397 . S
C2096 C2101 1.363 . S
C2097 H2068 0.950 . S
C2097 C2096 1.397 . S
C2097 C2098 1.334 . S
C2098 H2069 0.950 . S
C2098 C2097 1.334 . S
C2098 C2099 1.287 . S
C2099 C2098 1.287 . S
C2099 C2100 1.524 . S
C2099 H2102 0.999 . S
C2100 H2070 0.950 . S
C2100 C2099 1.524 . S
C2100 C2101 1.415 . S
C2101 H2071 0.950 . S
C2101 C2096 1.363 . S
C2101 C2100 1.415 . S
H2102 C2099 0.999 . S
H2103 C2084 0.913 . S
H2104 C2122 0.951 . S
H2105 C2124 0.951 . S
H2106 C2126 0.950 . S
H2107 C2127 0.950 . S
H2108 C2129 0.950 . S
H2109 C2132 0.950 1_455 S
H2110 C2133 0.950 . S
H2111 C2135 0.950 . S
H2112 C2136 0.950 . S
H2113 C2137 0.951 . S
H2114 C2139 0.951 . S
H2115 C2141 0.898 1_655 S
H2116 C2142 0.950 1_655 S
H2117 C2144 0.950 1_655 S
H2118 C2147 0.950 . S
H2119 C2148 0.950 . S
H2120 C2150 0.950 . S
H2121 C2151 0.950 . S
C2122 H2104 0.951 . S
C2122 C2123 1.366 1_655 S
C2122 C2124 1.388 . S
C2123 C2122 1.366 1_455 S
C2123 C2127 1.385 . S
C2124 H2105 0.951 . S
C2124 C2122 1.388 . S
C2124 C2125 1.366 1_655 S
C2125 C2124 1.366 1_455 S
C2125 C2126 1.414 . S
C2125 C2128 1.499 . S
C2126 H2106 0.950 . S
C2126 C2125 1.414 . S
C2126 C2127 1.374 . S
C2127 H2107 0.950 . S
C2127 C2123 1.385 . S
C2127 C2126 1.374 . S
C2128 C2125 1.499 . S
C2128 C2129 1.373 . S
C2128 C2130 1.389 . S
C2129 H2108 0.950 . S
C2129 C2128 1.373 . S
C2129 C2145 1.377 . S
C2130 C2128 1.389 . S
C2130 C2131 1.524 1_455 S
C2130 C2144 1.376 . S
C2131 C2130 1.524 1_655 S
C2131 C2132 1.397 . S
C2131 C2136 1.363 . S
C2132 H2109 0.950 1_655 S
C2132 C2131 1.397 . S
C2132 C2133 1.334 . S
C2133 H2110 0.950 . S
C2133 C2132 1.334 . S
C2133 C2134 1.287 . S
C2134 C2133 1.287 . S
C2134 C2135 1.524 . S
C2134 H2153 0.913 . S
C2135 H2111 0.950 . S
C2135 C2134 1.524 . S
C2135 C2136 1.415 . S
C2136 H2112 0.950 . S
C2136 C2131 1.363 . S
C2136 C2135 1.415 . S
C2137 H2113 0.951 . S
C2137 C2138 1.366 . S
C2137 C2139 1.388 . S
C2138 C2137 1.366 . S
C2138 C2142 1.385 . S
C2139 H2114 0.951 . S
C2139 C2137 1.388 . S
C2139 C2140 1.366 . S
C2140 C2139 1.366 . S
C2140 C2141 1.460 . S
C2140 C2143 1.499 . S
C2141 H2115 0.898 1_455 S
C2141 C2140 1.460 . S
C2141 C2142 1.382 . S
C2142 H2116 0.950 1_455 S
C2142 C2138 1.385 . S
C2142 C2141 1.382 . S
C2143 C2140 1.499 . S
C2143 C2144 1.373 . S
C2143 C2145 1.389 . S
C2144 H2117 0.950 1_455 S
C2144 C2130 1.376 . S
C2144 C2143 1.373 . S
C2145 C2129 1.377 . S
C2145 C2143 1.389 . S
C2145 C2146 1.524 . S
C2146 C2145 1.524 . S
C2146 C2147 1.397 . S
C2146 C2151 1.363 . S
C2147 H2118 0.950 . S
C2147 C2146 1.397 . S
C2147 C2148 1.334 . S
C2148 H2119 0.950 . S
C2148 C2147 1.334 . S
C2148 C2149 1.287 . S
C2149 C2148 1.287 . S
C2149 C2150 1.524 . S
C2149 H2152 0.999 . S
C2150 H2120 0.950 . S
C2150 C2149 1.524 . S
C2150 C2151 1.415 . S
C2151 H2121 0.950 . S
C2151 C2146 1.363 . S
C2151 C2150 1.415 . S
H2152 C2149 0.999 . S
H2153 C2134 0.913 . S
H2154 C2172 0.951 . S
H2155 C2174 0.951 . S
H2156 C2176 0.950 . S
H2157 C2177 0.950 . S
H2158 C2179 0.950 . S
H2159 C2182 0.950 . S
H2160 C2183 0.950 . S
H2161 C2185 0.950 . S
H2162 C2186 0.950 . S
H2163 C2187 0.951 . S
H2164 C2189 0.951 . S
H2165 C2191 0.950 . S
H2166 C2192 0.950 . S
H2167 C2194 0.950 . S
H2168 C2197 0.950 . S
H2169 C2198 0.950 . S
H2170 C2200 0.950 . S
H2171 C2201 0.950 . S
C2172 H2154 0.951 . S
C2172 C2173 1.366 . S
C2172 C2174 1.388 . S
C2173 C2172 1.366 . S
C2173 C2177 1.385 . S
C2174 H2155 0.951 . S
C2174 C2172 1.388 . S
C2174 C2175 1.366 . S
C2175 C2174 1.366 . S
C2175 C2176 1.414 . S
C2175 C2178 1.499 . S
C2176 H2156 0.950 . S
C2176 C2175 1.414 . S
C2176 C2177 1.374 . S
C2177 H2157 0.950 . S
C2177 C2173 1.385 . S
C2177 C2176 1.374 . S
C2178 C2175 1.499 . S
C2178 C2179 1.373 . S
C2178 C2180 1.389 . S
C2179 H2158 0.950 . S
C2179 C2178 1.373 . S
C2179 C2195 1.377 . S
C2180 C2178 1.389 . S
C2180 C2181 1.524 . S
C2180 C2194 1.377 . S
C2181 C2180 1.524 . S
C2181 C2182 1.397 . S
C2181 C2186 1.363 . S
C2182 H2159 0.950 . S
C2182 C2181 1.397 . S
C2182 C2183 1.334 . S
C2183 H2160 0.950 . S
C2183 C2182 1.334 . S
C2183 C2184 1.287 . S
C2184 C2183 1.287 . S
C2184 C2185 1.524 . S
C2184 H2203 0.913 . S
C2185 H2161 0.950 . S
C2185 C2184 1.524 . S
C2185 C2186 1.415 . S
C2186 H2162 0.950 . S
C2186 C2181 1.363 . S
C2186 C2185 1.415 . S
C2187 H2163 0.951 . S
C2187 C2188 1.366 . S
C2187 C2189 1.388 . S
C2188 C2187 1.366 . S
C2188 C2192 1.385 . S
C2189 H2164 0.951 . S
C2189 C2187 1.388 . S
C2189 C2190 1.366 . S
C2190 C2189 1.366 . S
C2190 C2191 1.414 . S
C2190 C2193 1.499 . S
C2191 H2165 0.950 . S
C2191 C2190 1.414 . S
C2191 C2192 1.374 . S
C2192 H2166 0.950 . S
C2192 C2188 1.385 . S
C2192 C2191 1.374 . S
C2193 C2190 1.499 . S
C2193 C2194 1.373 . S
C2193 C2195 1.389 . S
C2194 H2167 0.950 . S
C2194 C2180 1.377 . S
C2194 C2193 1.373 . S
C2195 C2179 1.377 . S
C2195 C2193 1.389 . S
C2195 C2196 1.524 . S
C2196 C2195 1.524 . S
C2196 C2197 1.397 . S
C2196 C2201 1.363 . S
C2197 H2168 0.950 . S
C2197 C2196 1.397 . S
C2197 C2198 1.334 . S
C2198 H2169 0.950 . S
C2198 C2197 1.334 . S
C2198 C2199 1.287 . S
C2199 C2198 1.287 . S
C2199 C2200 1.524 . S
C2199 H2202 0.999 . S
C2200 H2170 0.950 . S
C2200 C2199 1.524 . S
C2200 C2201 1.415 . S
C2201 H2171 0.950 . S
C2201 C2196 1.363 . S
C2201 C2200 1.415 . S
H2202 C2199 0.999 . S
H2203 C2184 0.913 . S
H2204 C2222 0.951 . S
H2205 C2224 0.951 . S
H2206 C2226 0.950 . S
H2207 C2227 0.950 . S
H2208 C2229 0.950 . S
H2209 C2232 0.950 . S
H2210 C2233 0.950 . S
H2211 C2235 0.950 . S
H2212 C2236 0.950 . S
H2213 C2237 0.951 . S
H2214 C2239 0.951 . S
H2215 C2241 0.950 . S
H2216 C2242 0.950 . S
H2217 C2244 0.950 . S
H2218 C2247 0.950 . S
H2219 C2248 0.950 . S
H2220 C2250 0.950 . S
H2221 C2251 0.950 . S
C2222 H2204 0.951 . S
C2222 C2223 1.366 . S
C2222 C2224 1.388 . S
C2223 C2222 1.366 . S
C2223 C2227 1.385 . S
C2224 H2205 0.951 . S
C2224 C2222 1.388 . S
C2224 C2225 1.366 . S
C2225 C2224 1.366 . S
C2225 C2226 1.414 . S
C2225 C2228 1.499 . S
C2226 H2206 0.950 . S
C2226 C2225 1.414 . S
C2226 C2227 1.374 . S
C2227 H2207 0.950 . S
C2227 C2223 1.385 . S
C2227 C2226 1.374 . S
C2228 C2225 1.499 . S
C2228 C2229 1.373 . S
C2228 C2230 1.389 . S
C2229 H2208 0.950 . S
C2229 C2228 1.373 . S
C2229 C2245 1.377 . S
C2230 C2228 1.389 . S
C2230 C2231 1.524 . S
C2230 C2244 1.377 . S
C2231 C2230 1.524 . S
C2231 C2232 1.397 . S
C2231 C2236 1.363 . S
C2232 H2209 0.950 . S
C2232 C2231 1.397 . S
C2232 C2233 1.334 . S
C2233 H2210 0.950 . S
C2233 C2232 1.334 . S
C2233 C2234 1.287 . S
C2234 C2233 1.287 . S
C2234 C2235 1.524 . S
C2234 H2253 0.913 . S
C2235 H2211 0.950 . S
C2235 C2234 1.524 . S
C2235 C2236 1.415 . S
C2236 H2212 0.950 . S
C2236 C2231 1.363 . S
C2236 C2235 1.415 . S
C2237 H2213 0.951 . S
C2237 C2238 1.366 . S
C2237 C2239 1.388 . S
C2238 C2237 1.366 . S
C2238 C2242 1.385 . S
C2239 H2214 0.951 . S
C2239 C2237 1.388 . S
C2239 C2240 1.366 . S
C2240 C2239 1.366 . S
C2240 C2241 1.414 . S
C2240 C2243 1.499 . S
C2241 H2215 0.950 . S
C2241 C2240 1.414 . S
C2241 C2242 1.374 . S
C2242 H2216 0.950 . S
C2242 C2238 1.385 . S
C2242 C2241 1.374 . S
C2243 C2240 1.499 . S
C2243 C2244 1.373 . S
C2243 C2245 1.389 . S
C2244 H2217 0.950 . S
C2244 C2230 1.377 . S
C2244 C2243 1.373 . S
C2245 C2229 1.377 . S
C2245 C2243 1.389 . S
C2245 C2246 1.524 . S
C2246 C2245 1.524 . S
C2246 C2247 1.397 . S
C2246 C2251 1.363 . S
C2247 H2218 0.950 . S
C2247 C2246 1.397 . S
C2247 C2248 1.334 . S
C2248 H2219 0.950 . S
C2248 C2247 1.334 . S
C2248 C2249 1.287 . S
C2249 C2248 1.287 . S
C2249 C2250 1.524 . S
C2249 H2252 0.999 . S
C2250 H2220 0.950 . S
C2250 C2249 1.524 . S
C2250 C2251 1.415 . S
C2251 H2221 0.950 . S
C2251 C2246 1.363 . S
C2251 C2250 1.415 . S
H2252 C2249 0.999 . S
H2253 C2234 0.913 . S
H2254 C2272 0.951 . S
H2255 C2274 0.951 . S
H2256 C2276 0.950 . S
H2257 C2277 0.950 . S
H2258 C2279 0.950 . S
H2259 C2282 0.950 . S
H2260 C2283 0.950 . S
H2261 C2285 0.950 . S
H2262 C2286 0.950 . S
H2263 C2287 0.951 . S
H2264 C2289 0.951 . S
H2265 C2291 0.950 . S
H2266 C2292 0.950 . S
H2267 C2294 0.950 . S
H2268 C2297 0.950 . S
H2269 C2298 0.950 . S
H2270 C2300 0.950 . S
H2271 C2301 0.950 . S
C2272 H2254 0.951 . S
C2272 C2273 1.366 . S
C2272 C2274 1.388 . S
C2273 C2272 1.366 . S
C2273 C2277 1.385 . S
C2274 H2255 0.951 . S
C2274 C2272 1.388 . S
C2274 C2275 1.366 . S
C2275 C2274 1.366 . S
C2275 C2276 1.414 . S
C2275 C2278 1.499 . S
C2276 H2256 0.950 . S
C2276 C2275 1.414 . S
C2276 C2277 1.374 . S
C2277 H2257 0.950 . S
C2277 C2273 1.385 . S
C2277 C2276 1.374 . S
C2278 C2275 1.499 . S
C2278 C2279 1.373 . S
C2278 C2280 1.389 . S
C2279 H2258 0.950 . S
C2279 C2278 1.373 . S
C2279 C2295 1.377 . S
C2280 C2278 1.389 . S
C2280 C2281 1.524 . S
C2280 C2294 1.377 . S
C2281 C2280 1.524 . S
C2281 C2282 1.397 . S
C2281 C2286 1.363 . S
C2282 H2259 0.950 . S
C2282 C2281 1.397 . S
C2282 C2283 1.334 . S
C2283 H2260 0.950 . S
C2283 C2282 1.334 . S
C2283 C2284 1.287 . S
C2284 C2283 1.287 . S
C2284 C2285 1.524 . S
C2284 H2303 0.913 . S
C2285 H2261 0.950 . S
C2285 C2284 1.524 . S
C2285 C2286 1.415 . S
C2286 H2262 0.950 . S
C2286 C2281 1.363 . S
C2286 C2285 1.415 . S
C2287 H2263 0.951 . S
C2287 C2288 1.366 . S
C2287 C2289 1.388 . S
C2288 C2287 1.366 . S
C2288 C2292 1.385 . S
C2289 H2264 0.951 . S
C2289 C2287 1.388 . S
C2289 C2290 1.366 . S
C2290 C2289 1.366 . S
C2290 C2291 1.414 . S
C2290 C2293 1.499 . S
C2291 H2265 0.950 . S
C2291 C2290 1.414 . S
C2291 C2292 1.374 . S
C2292 H2266 0.950 . S
C2292 C2288 1.385 . S
C2292 C2291 1.374 . S
C2293 C2290 1.499 . S
C2293 C2294 1.373 . S
C2293 C2295 1.389 . S
C2294 H2267 0.950 . S
C2294 C2280 1.377 . S
C2294 C2293 1.373 . S
C2295 C2279 1.377 . S
C2295 C2293 1.389 . S
C2295 C2296 1.524 . S
C2296 C2295 1.524 . S
C2296 C2297 1.397 . S
C2296 C2301 1.363 . S
C2297 H2268 0.950 . S
C2297 C2296 1.397 . S
C2297 C2298 1.334 . S
C2298 H2269 0.950 . S
C2298 C2297 1.334 . S
C2298 C2299 1.287 . S
C2299 C2298 1.287 . S
C2299 C2300 1.524 . S
C2299 H2302 0.999 . S
C2300 H2270 0.950 . S
C2300 C2299 1.524 . S
C2300 C2301 1.415 . S
C2301 H2271 0.950 . S
C2301 C2296 1.363 . S
C2301 C2300 1.415 . S
H2302 C2299 0.999 . S
H2303 C2284 0.913 . S
H2304 C2322 0.951 . S
H2305 C2324 0.951 . S
H2306 C2326 0.950 . S
H2307 C2327 0.950 . S
H2308 C2329 0.950 . S
H2309 C2332 0.950 . S
H2310 C2333 0.950 . S
H2311 C2335 0.950 . S
H2312 C2336 0.934 1_545 S
H2313 C2337 0.951 . S
H2314 C2339 0.951 . S
H2315 C2341 0.950 . S
H2316 C2342 0.950 1_455 S
H2317 C2344 0.950 . S
H2318 C2347 0.950 . S
H2319 C2348 0.950 . S
H2320 C2350 0.950 . S
H2321 C2351 0.950 . S
C2322 H2304 0.951 . S
C2322 C2323 1.366 . S
C2322 C2324 1.388 . S
C2323 C2322 1.366 . S
C2323 C2327 1.385 . S
C2324 H2305 0.951 . S
C2324 C2322 1.388 . S
C2324 C2325 1.366 . S
C2325 C2324 1.366 . S
C2325 C2326 1.414 . S
C2325 C2328 1.499 . S
C2326 H2306 0.950 . S
C2326 C2325 1.414 . S
C2326 C2327 1.374 . S
C2327 H2307 0.950 . S
C2327 C2323 1.385 . S
C2327 C2326 1.374 . S
C2328 C2325 1.499 . S
C2328 C2329 1.373 . S
C2328 C2330 1.389 . S
C2329 H2308 0.950 . S
C2329 C2328 1.373 . S
C2329 C2345 1.377 . S
C2330 C2328 1.389 . S
C2330 C2331 1.524 1_545 S
C2330 C2344 1.377 . S
C2331 C2330 1.524 1_565 S
C2331 C2332 1.397 . S
C2331 C2336 1.363 . S
C2332 H2309 0.950 . S
C2332 C2331 1.397 . S
C2332 C2333 1.334 . S
C2333 H2310 0.950 . S
C2333 C2332 1.334 . S
C2333 C2334 1.287 . S
C2334 C2333 1.287 . S
C2334 C2335 1.524 . S
C2334 H2353 0.913 . S
C2335 H2311 0.950 . S
C2335 C2334 1.524 . S
C2335 C2336 1.415 . S
C2336 H2312 0.934 1_565 S
C2336 C2331 1.363 . S
C2336 C2335 1.415 . S
C2337 H2313 0.951 . S
C2337 C2338 1.366 . S
C2337 C2339 1.388 . S
C2338 C2337 1.366 . S
C2338 C2342 1.385 . S
C2339 H2314 0.951 . S
C2339 C2337 1.388 . S
C2339 C2340 1.366 . S
C2340 C2339 1.366 . S
C2340 C2341 1.414 . S
C2340 C2343 1.499 . S
C2341 H2315 0.950 . S
C2341 C2340 1.414 . S
C2341 C2342 1.374 . S
C2342 H2316 0.950 1_655 S
C2342 C2338 1.385 . S
C2342 C2341 1.374 . S
C2343 C2340 1.499 . S
C2343 C2344 1.373 . S
C2343 C2345 1.389 . S
C2344 H2317 0.950 . S
C2344 C2330 1.377 . S
C2344 C2343 1.373 . S
C2345 C2329 1.377 . S
C2345 C2343 1.389 . S
C2345 C2346 1.524 . S
C2346 C2345 1.524 . S
C2346 C2347 1.397 . S
C2346 C2351 1.363 . S
C2347 H2318 0.950 . S
C2347 C2346 1.397 . S
C2347 C2348 1.334 . S
C2348 H2319 0.950 . S
C2348 C2347 1.334 . S
C2348 C2349 1.287 . S
C2349 C2348 1.287 . S
C2349 C2350 1.524 . S
C2349 H2352 0.999 . S
C2350 H2320 0.950 . S
C2350 C2349 1.524 . S
C2350 C2351 1.415 . S
C2351 H2321 0.950 . S
C2351 C2346 1.363 . S
C2351 C2350 1.415 . S
H2352 C2349 0.999 . S
H2353 C2334 0.913 . S
H2354 C2372 0.951 . S
H2355 C2374 0.951 . S
H2356 C2376 0.950 . S
H2357 C2377 0.950 . S
H2358 C2379 0.950 . S
H2359 C2382 0.950 . S
H2360 C2383 0.950 . S
H2361 C2385 0.950 . S
H2362 C2386 0.950 . S
H2363 C2387 0.951 . S
H2364 C2389 0.951 . S
H2365 C2391 0.950 . S
H2366 C2392 0.950 . S
H2367 C2394 0.950 . S
H2368 C2397 0.950 . S
H2369 C2398 0.950 . S
H2370 C2400 0.950 . S
H2371 C2401 0.950 . S
C2372 H2354 0.951 . S
C2372 C2373 1.366 . S
C2372 C2374 1.388 . S
C2373 C2372 1.366 . S
C2373 C2377 1.385 . S
C2374 H2355 0.951 . S
C2374 C2372 1.388 . S
C2374 C2375 1.366 . S
C2375 C2374 1.366 . S
C2375 C2376 1.414 . S
C2375 C2378 1.499 . S
C2376 H2356 0.950 . S
C2376 C2375 1.414 . S
C2376 C2377 1.374 . S
C2377 H2357 0.950 . S
C2377 C2373 1.385 . S
C2377 C2376 1.374 . S
C2378 C2375 1.499 . S
C2378 C2379 1.373 . S
C2378 C2380 1.389 . S
C2379 H2358 0.950 . S
C2379 C2378 1.373 . S
C2379 C2395 1.377 . S
C2380 C2378 1.389 . S
C2380 C2381 1.524 . S
C2380 C2394 1.377 . S
C2381 C2380 1.524 . S
C2381 C2382 1.397 . S
C2381 C2386 1.363 . S
C2382 H2359 0.950 . S
C2382 C2381 1.397 . S
C2382 C2383 1.334 . S
C2383 H2360 0.950 . S
C2383 C2382 1.334 . S
C2383 C2384 1.287 . S
C2384 C2383 1.287 . S
C2384 C2385 1.524 . S
C2384 H2403 0.913 . S
C2385 H2361 0.950 . S
C2385 C2384 1.524 . S
C2385 C2386 1.415 . S
C2386 H2362 0.950 . S
C2386 C2381 1.363 . S
C2386 C2385 1.415 . S
C2387 H2363 0.951 . S
C2387 C2388 1.366 . S
C2387 C2389 1.388 . S
C2388 C2387 1.366 . S
C2388 C2392 1.385 . S
C2389 H2364 0.951 . S
C2389 C2387 1.388 . S
C2389 C2390 1.366 . S
C2390 C2389 1.366 . S
C2390 C2391 1.414 . S
C2390 C2393 1.499 . S
C2391 H2365 0.950 . S
C2391 C2390 1.414 . S
C2391 C2392 1.374 . S
C2392 H2366 0.950 . S
C2392 C2388 1.385 . S
C2392 C2391 1.374 . S
C2393 C2390 1.499 . S
C2393 C2394 1.373 . S
C2393 C2395 1.389 . S
C2394 H2367 0.950 . S
C2394 C2380 1.377 . S
C2394 C2393 1.373 . S
C2395 C2379 1.377 . S
C2395 C2393 1.389 . S
C2395 C2396 1.524 . S
C2396 C2395 1.524 . S
C2396 C2397 1.397 . S
C2396 C2401 1.363 . S
C2397 H2368 0.950 . S
C2397 C2396 1.397 . S
C2397 C2398 1.334 . S
C2398 H2369 0.950 . S
C2398 C2397 1.334 . S
C2398 C2399 1.287 . S
C2399 C2398 1.287 . S
C2399 C2400 1.524 . S
C2399 H2402 0.999 . S
C2400 H2370 0.950 . S
C2400 C2399 1.524 . S
C2400 C2401 1.415 . S
C2401 H2371 0.950 . S
C2401 C2396 1.363 . S
C2401 C2400 1.415 . S
H2402 C2399 0.999 . S
H2403 C2384 0.913 . S
H2404 C2422 0.951 . S
H2405 C2424 0.951 . S
H2406 C2426 0.950 . S
H2407 C2427 0.950 . S
H2408 C2429 0.950 . S
H2409 C2432 0.950 . S
H2410 C2433 0.950 . S
H2411 C2435 0.950 . S
H2412 C2436 0.950 . S
H2413 C2437 0.951 . S
H2414 C2439 0.951 . S
H2415 C2441 0.950 . S
H2416 C2442 0.950 . S
H2417 C2444 0.950 . S
H2418 C2447 0.950 . S
H2419 C2448 0.950 . S
H2420 C2450 0.950 . S
H2421 C2451 0.950 . S
C2422 H2404 0.951 . S
C2422 C2423 1.366 1_565 S
C2422 C2424 1.388 . S
C2423 C2422 1.366 1_545 S
C2423 C2427 1.385 . S
C2424 H2405 0.951 . S
C2424 C2422 1.388 . S
C2424 C2425 1.366 . S
C2425 C2424 1.366 . S
C2425 C2426 1.414 1_565 S
C2425 C2428 1.499 . S
C2426 H2406 0.950 . S
C2426 C2425 1.414 1_545 S
C2426 C2427 1.374 . S
C2427 H2407 0.950 . S
C2427 C2423 1.385 . S
C2427 C2426 1.374 . S
C2428 C2425 1.499 . S
C2428 C2429 1.373 1_565 S
C2428 C2430 1.389 . S
C2429 H2408 0.950 . S
C2429 C2428 1.373 1_545 S
C2429 C2445 1.377 . S
C2430 C2428 1.389 . S
C2430 C2431 1.524 . S
C2430 C2444 1.377 . S
C2431 C2430 1.524 . S
C2431 C2432 1.397 . S
C2431 C2436 1.363 . S
C2432 H2409 0.950 . S
C2432 C2431 1.397 . S
C2432 C2433 1.334 . S
C2433 H2410 0.950 . S
C2433 C2432 1.334 . S
C2433 C2434 1.287 . S
C2434 C2433 1.287 . S
C2434 C2435 1.524 . S
C2434 H2453 0.913 . S
C2435 H2411 0.950 . S
C2435 C2434 1.524 . S
C2435 C2436 1.415 . S
C2436 H2412 0.950 . S
C2436 C2431 1.363 . S
C2436 C2435 1.415 . S
C2437 H2413 0.951 . S
C2437 C2438 1.366 1_545 S
C2437 C2439 1.388 . S
C2438 C2437 1.366 1_565 S
C2438 C2442 1.385 . S
C2439 H2414 0.951 . S
C2439 C2437 1.388 . S
C2439 C2440 1.366 1_545 S
C2440 C2439 1.366 1_565 S
C2440 C2441 1.414 . S
C2440 C2443 1.499 . S
C2441 H2415 0.950 . S
C2441 C2440 1.414 . S
C2441 C2442 1.374 . S
C2442 H2416 0.950 . S
C2442 C2438 1.385 . S
C2442 C2441 1.374 . S
C2443 C2440 1.499 . S
C2443 C2444 1.373 . S
C2443 C2445 1.389 1_565 S
C2444 H2417 0.950 . S
C2444 C2430 1.377 . S
C2444 C2443 1.373 . S
C2445 C2429 1.377 . S
C2445 C2443 1.389 1_545 S
C2445 C2446 1.524 . S
C2446 C2445 1.524 . S
C2446 C2447 1.397 . S
C2446 C2451 1.363 . S
C2447 H2418 0.950 . S
C2447 C2446 1.397 . S
C2447 C2448 1.334 . S
C2448 H2419 0.950 . S
C2448 C2447 1.334 . S
C2448 C2449 1.287 . S
C2449 C2448 1.287 . S
C2449 C2450 1.524 . S
C2449 H2452 0.999 . S
C2450 H2420 0.950 . S
C2450 C2449 1.524 . S
C2450 C2451 1.415 . S
C2451 H2421 0.950 . S
C2451 C2446 1.363 . S
C2451 C2450 1.415 . S
H2452 C2449 0.999 . S
H2453 C2434 0.913 . S
H2454 C2472 0.951 . S
H2455 C2474 0.951 . S
H2456 C2476 0.950 . S
H2457 C2477 0.950 . S
H2458 C2479 0.950 . S
H2459 C2482 0.950 . S
H2460 C2483 0.950 . S
H2461 C2485 0.950 . S
H2462 C2486 0.950 . S
H2463 C2487 0.951 . S
H2464 C2489 0.951 . S
H2465 C2491 0.950 . S
H2466 C2492 0.950 . S
H2467 C2494 0.950 . S
H2468 C2497 0.950 . S
H2469 C2498 0.950 . S
H2470 C2500 0.950 . S
H2471 C2501 0.950 . S
C2472 H2454 0.951 . S
C2472 C2473 1.366 . S
C2472 C2474 1.388 . S
C2473 C2472 1.366 . S
C2473 C2477 1.385 . S
C2474 H2455 0.951 . S
C2474 C2472 1.388 . S
C2474 C2475 1.366 . S
C2475 C2474 1.366 . S
C2475 C2476 1.414 . S
C2475 C2478 1.499 . S
C2476 H2456 0.950 . S
C2476 C2475 1.414 . S
C2476 C2477 1.374 . S
C2477 H2457 0.950 . S
C2477 C2473 1.385 . S
C2477 C2476 1.374 . S
C2478 C2475 1.499 . S
C2478 C2479 1.373 . S
C2478 C2480 1.389 . S
C2479 H2458 0.950 . S
C2479 C2478 1.373 . S
C2479 C2495 1.377 . S
C2480 C2478 1.389 . S
C2480 C2481 1.524 . S
C2480 C2494 1.377 . S
C2481 C2480 1.524 . S
C2481 C2482 1.397 . S
C2481 C2486 1.363 . S
C2482 H2459 0.950 . S
C2482 C2481 1.397 . S
C2482 C2483 1.334 . S
C2483 H2460 0.950 . S
C2483 C2482 1.334 . S
C2483 C2484 1.287 . S
C2484 C2483 1.287 . S
C2484 C2485 1.524 . S
C2484 H2503 0.913 . S
C2485 H2461 0.950 . S
C2485 C2484 1.524 . S
C2485 C2486 1.415 . S
C2486 H2462 0.950 . S
C2486 C2481 1.363 . S
C2486 C2485 1.415 . S
C2487 H2463 0.951 . S
C2487 C2488 1.366 . S
C2487 C2489 1.388 . S
C2488 C2487 1.366 . S
C2488 C2492 1.385 . S
C2489 H2464 0.951 . S
C2489 C2487 1.388 . S
C2489 C2490 1.366 . S
C2490 C2489 1.366 . S
C2490 C2491 1.414 . S
C2490 C2493 1.499 . S
C2491 H2465 0.950 . S
C2491 C2490 1.414 . S
C2491 C2492 1.374 . S
C2492 H2466 0.950 . S
C2492 C2488 1.385 . S
C2492 C2491 1.374 . S
C2493 C2490 1.499 . S
C2493 C2494 1.373 . S
C2493 C2495 1.389 . S
C2494 H2467 0.950 . S
C2494 C2480 1.377 . S
C2494 C2493 1.373 . S
C2495 C2479 1.377 . S
C2495 C2493 1.389 . S
C2495 C2496 1.524 . S
C2496 C2495 1.524 . S
C2496 C2497 1.397 . S
C2496 C2501 1.363 . S
C2497 H2468 0.950 . S
C2497 C2496 1.397 . S
C2497 C2498 1.334 . S
C2498 H2469 0.950 . S
C2498 C2497 1.334 . S
C2498 C2499 1.287 . S
C2499 C2498 1.287 . S
C2499 C2500 1.524 . S
C2499 H2502 0.999 . S
C2500 H2470 0.950 . S
C2500 C2499 1.524 . S
C2500 C2501 1.415 . S
C2501 H2471 0.950 . S
C2501 C2496 1.363 . S
C2501 C2500 1.415 . S
H2502 C2499 0.999 . S
H2503 C2484 0.913 . S
H2504 C2522 0.951 . S
H2505 C2524 0.951 . S
H2506 C2526 0.949 . S
H2507 C2527 0.950 . S
H2508 C2529 0.950 . S
H2509 C2532 0.950 . S
H2510 C2533 0.950 . S
H2511 C2535 0.950 . S
H2512 C2536 0.981 . S
H2513 C2537 0.951 1_455 S
H2514 C2539 0.951 . S
H2515 C2541 0.950 . S
H2516 C2542 0.950 . S
H2517 C2544 0.950 1_565 S
H2518 C2547 0.950 . S
H2519 C2548 0.950 . S
H2520 C2550 0.950 . S
H2521 C2551 0.951 1_655 S
C2522 H2504 0.951 . S
C2522 C2523 1.366 . S
C2522 C2524 1.388 . S
C2523 C2522 1.366 . S
C2523 C2527 1.385 . S
C2524 H2505 0.951 . S
C2524 C2522 1.388 . S
C2524 C2525 1.366 . S
C2525 C2524 1.366 . S
C2525 C2526 1.414 . S
C2525 C2528 1.499 . S
C2526 H2506 0.949 . S
C2526 C2525 1.414 . S
C2526 C2527 1.374 . S
C2527 H2507 0.950 . S
C2527 C2523 1.385 . S
C2527 C2526 1.374 . S
C2528 C2525 1.499 . S
C2528 C2529 1.373 . S
C2528 C2530 1.389 . S
C2529 H2508 0.950 . S
C2529 C2528 1.373 . S
C2529 C2545 1.377 . S
C2530 C2528 1.389 . S
C2530 C2531 1.524 1_545 S
C2530 C2544 1.377 . S
C2531 C2530 1.524 1_565 S
C2531 C2532 1.397 . S
C2531 C2536 1.351 1_565 S
C2532 H2509 0.950 . S
C2532 C2531 1.397 . S
C2532 C2533 1.334 . S
C2533 H2510 0.950 . S
C2533 C2532 1.334 . S
C2533 C2534 1.287 . S
C2534 C2533 1.287 . S
C2534 C2535 1.524 . S
C2534 H2553 0.913 . S
C2535 H2511 0.950 . S
C2535 C2534 1.524 . S
C2535 C2536 1.399 1_565 S
C2536 H2512 0.981 . S
C2536 C2531 1.351 1_545 S
C2536 C2535 1.399 1_545 S
C2537 H2513 0.951 1_655 S
C2537 C2538 1.366 . S
C2537 C2539 1.388 . S
C2538 C2537 1.366 . S
C2538 C2542 1.385 1_565 S
C2539 H2514 0.951 . S
C2539 C2537 1.388 . S
C2539 C2540 1.366 1_565 S
C2540 C2539 1.366 1_545 S
C2540 C2541 1.414 . S
C2540 C2543 1.499 . S
C2541 H2515 0.950 . S
C2541 C2540 1.414 . S
C2541 C2542 1.374 . S
C2542 H2516 0.950 . S
C2542 C2538 1.385 1_545 S
C2542 C2541 1.374 . S
C2543 C2540 1.499 . S
C2543 C2544 1.373 . S
C2543 C2545 1.389 . S
C2544 H2517 0.950 1_545 S
C2544 C2530 1.377 . S
C2544 C2543 1.373 . S
C2545 C2529 1.377 . S
C2545 C2543 1.389 . S
C2545 C2546 1.524 . S
C2546 C2545 1.524 . S
C2546 C2547 1.397 . S
C2546 C2551 1.364 1_655 S
C2547 H2518 0.950 . S
C2547 C2546 1.397 . S
C2547 C2548 1.334 1_655 S
C2548 H2519 0.950 . S
C2548 C2547 1.334 1_455 S
C2548 C2549 1.287 . S
C2549 C2548 1.287 . S
C2549 C2550 1.524 . S
C2549 H2552 0.999 . S
C2550 H2520 0.950 . S
C2550 C2549 1.524 . S
C2550 C2551 1.413 . S
C2551 H2521 0.951 1_455 S
C2551 C2546 1.364 1_455 S
C2551 C2550 1.413 . S
H2552 C2549 0.999 . S
H2553 C2534 0.913 . S
H2554 C2572 0.951 . S
H2555 C2574 0.951 . S
H2556 C2576 0.950 . S
H2557 C2577 0.950 . S
H2558 C2579 0.950 . S
H2559 C2582 0.950 . S
H2560 C2583 0.950 . S
H2561 C2585 0.950 . S
H2562 C2586 0.950 . S
H2563 C2587 0.951 . S
H2564 C2589 0.951 . S
H2565 C2591 0.950 . S
H2566 C2592 0.950 . S
H2567 C2594 0.950 . S
H2568 C2597 0.950 . S
H2569 C2598 0.950 . S
H2570 C2600 0.950 . S
H2571 C2601 0.950 . S
C2572 H2554 0.951 . S
C2572 C2573 1.366 . S
C2572 C2574 1.388 . S
C2573 C2572 1.366 . S
C2573 C2577 1.385 . S
C2574 H2555 0.951 . S
C2574 C2572 1.388 . S
C2574 C2575 1.366 . S
C2575 C2574 1.366 . S
C2575 C2576 1.414 . S
C2575 C2578 1.499 . S
C2576 H2556 0.950 . S
C2576 C2575 1.414 . S
C2576 C2577 1.374 . S
C2577 H2557 0.950 . S
C2577 C2573 1.385 . S
C2577 C2576 1.374 . S
C2578 C2575 1.499 . S
C2578 C2579 1.373 . S
C2578 C2580 1.389 . S
C2579 H2558 0.950 . S
C2579 C2578 1.373 . S
C2579 C2595 1.377 . S
C2580 C2578 1.389 . S
C2580 C2581 1.524 . S
C2580 C2594 1.377 . S
C2581 C2580 1.524 . S
C2581 C2582 1.397 . S
C2581 C2586 1.363 . S
C2582 H2559 0.950 . S
C2582 C2581 1.397 . S
C2582 C2583 1.334 . S
C2583 H2560 0.950 . S
C2583 C2582 1.334 . S
C2583 C2584 1.287 . S
C2584 C2583 1.287 . S
C2584 C2585 1.524 . S
C2584 H2603 0.913 . S
C2585 H2561 0.950 . S
C2585 C2584 1.524 . S
C2585 C2586 1.415 . S
C2586 H2562 0.950 . S
C2586 C2581 1.363 . S
C2586 C2585 1.415 . S
C2587 H2563 0.951 . S
C2587 C2588 1.366 . S
C2587 C2589 1.388 . S
C2588 C2587 1.366 . S
C2588 C2592 1.385 . S
C2589 H2564 0.951 . S
C2589 C2587 1.388 . S
C2589 C2590 1.366 . S
C2590 C2589 1.366 . S
C2590 C2591 1.414 . S
C2590 C2593 1.499 . S
C2591 H2565 0.950 . S
C2591 C2590 1.414 . S
C2591 C2592 1.374 . S
C2592 H2566 0.950 . S
C2592 C2588 1.385 . S
C2592 C2591 1.374 . S
C2593 C2590 1.499 . S
C2593 C2594 1.373 . S
C2593 C2595 1.389 . S
C2594 H2567 0.950 . S
C2594 C2580 1.377 . S
C2594 C2593 1.373 . S
C2595 C2579 1.377 . S
C2595 C2593 1.389 . S
C2595 C2596 1.524 . S
C2596 C2595 1.524 . S
C2596 C2597 1.397 . S
C2596 C2601 1.363 . S
C2597 H2568 0.950 . S
C2597 C2596 1.397 . S
C2597 C2598 1.334 . S
C2598 H2569 0.950 . S
C2598 C2597 1.334 . S
C2598 C2599 1.287 . S
C2599 C2598 1.287 . S
C2599 C2600 1.524 . S
C2599 H2602 0.999 . S
C2600 H2570 0.950 . S
C2600 C2599 1.524 . S
C2600 C2601 1.415 . S
C2601 H2571 0.950 . S
C2601 C2596 1.363 . S
C2601 C2600 1.415 . S
H2602 C2599 0.999 . S
H2603 C2584 0.913 . S
H2604 C2622 0.951 . S
H2605 C2624 0.951 . S
H2606 C2626 0.950 . S
H2607 C2627 0.950 . S
H2608 C2629 0.950 . S
H2609 C2632 0.950 . S
H2610 C2633 0.950 . S
H2611 C2635 0.950 . S
H2612 C2636 0.950 . S
H2613 C2637 0.951 . S
H2614 C2639 0.951 . S
H2615 C2641 0.950 1_565 S
H2616 C2642 0.950 1_565 S
H2617 C2644 0.950 . S
H2618 C2647 0.950 . S
H2619 C2648 0.950 . S
H2620 C2650 0.950 . S
H2621 C2651 0.950 . S
C2622 H2604 0.951 . S
C2622 C2623 1.351 1_565 S
C2622 C2624 1.388 . S
C2623 C2622 1.351 1_545 S
C2623 C2627 1.402 . S
C2624 H2605 0.951 . S
C2624 C2622 1.388 . S
C2624 C2625 1.366 1_565 S
C2625 C2624 1.366 1_545 S
C2625 C2626 1.414 . S
C2625 C2628 1.499 . S
C2626 H2606 0.950 . S
C2626 C2625 1.414 . S
C2626 C2627 1.374 . S
C2627 H2607 0.950 . S
C2627 C2623 1.402 . S
C2627 C2626 1.374 . S
C2628 C2625 1.499 . S
C2628 C2629 1.373 . S
C2628 C2630 1.389 1_545 S
C2629 H2608 0.950 . S
C2629 C2628 1.373 . S
C2629 C2645 1.377 . S
C2630 C2628 1.389 1_565 S
C2630 C2631 1.524 . S
C2630 C2644 1.377 . S
C2631 C2630 1.524 . S
C2631 C2632 1.397 . S
C2631 C2636 1.363 . S
C2632 H2609 0.950 . S
C2632 C2631 1.397 . S
C2632 C2633 1.334 . S
C2633 H2610 0.950 . S
C2633 C2632 1.334 . S
C2633 C2634 1.287 . S
C2634 C2633 1.287 . S
C2634 C2635 1.524 . S
C2634 H2653 0.913 . S
C2635 H2611 0.950 . S
C2635 C2634 1.524 . S
C2635 C2636 1.415 . S
C2636 H2612 0.950 . S
C2636 C2631 1.363 . S
C2636 C2635 1.415 . S
C2637 H2613 0.951 . S
C2637 C2638 1.366 . S
C2637 C2639 1.388 . S
C2638 C2637 1.366 . S
C2638 C2642 1.385 . S
C2639 H2614 0.951 . S
C2639 C2637 1.388 . S
C2639 C2640 1.366 . S
C2640 C2639 1.366 . S
C2640 C2641 1.414 . S
C2640 C2643 1.499 . S
C2641 H2615 0.950 1_545 S
C2641 C2640 1.414 . S
C2641 C2642 1.374 . S
C2642 H2616 0.950 1_545 S
C2642 C2638 1.385 . S
C2642 C2641 1.374 . S
C2643 C2640 1.499 . S
C2643 C2644 1.373 1_545 S
C2643 C2645 1.389 . S
C2644 H2617 0.950 . S
C2644 C2630 1.377 . S
C2644 C2643 1.373 1_565 S
C2645 C2629 1.377 . S
C2645 C2643 1.389 . S
C2645 C2646 1.524 . S
C2646 C2645 1.524 . S
C2646 C2647 1.397 . S
C2646 C2651 1.363 . S
C2647 H2618 0.950 . S
C2647 C2646 1.397 . S
C2647 C2648 1.334 . S
C2648 H2619 0.950 . S
C2648 C2647 1.334 . S
C2648 C2649 1.287 . S
C2649 C2648 1.287 . S
C2649 C2650 1.524 . S
C2649 H2652 0.999 . S
C2650 H2620 0.950 . S
C2650 C2649 1.524 . S
C2650 C2651 1.415 . S
C2651 H2621 0.950 . S
C2651 C2646 1.363 . S
C2651 C2650 1.415 . S
H2652 C2649 0.999 . S
H2653 C2634 0.913 . S
H2654 C2672 0.951 . S
H2655 C2674 0.951 . S
H2656 C2676 0.950 . S
H2657 C2677 0.950 . S
H2658 C2679 0.950 . S
H2659 C2682 0.950 . S
H2660 C2683 0.950 . S
H2661 C2685 0.950 . S
H2662 C2686 0.950 . S
H2663 C2687 0.951 . S
H2664 C2689 0.951 . S
H2665 C2691 0.950 . S
H2666 C2692 0.950 . S
H2667 C2694 0.950 . S
H2668 C2697 0.950 . S
H2669 C2698 0.950 . S
H2670 C2700 0.950 . S
H2671 C2701 0.950 . S
C2672 H2654 0.951 . S
C2672 C2673 1.366 . S
C2672 C2674 1.388 . S
C2673 C2672 1.366 . S
C2673 C2677 1.385 . S
C2674 H2655 0.951 . S
C2674 C2672 1.388 . S
C2674 C2675 1.366 . S
C2675 C2674 1.366 . S
C2675 C2676 1.414 . S
C2675 C2678 1.499 . S
C2676 H2656 0.950 . S
C2676 C2675 1.414 . S
C2676 C2677 1.374 . S
C2677 H2657 0.950 . S
C2677 C2673 1.385 . S
C2677 C2676 1.374 . S
C2678 C2675 1.499 . S
C2678 C2679 1.373 . S
C2678 C2680 1.389 . S
C2679 H2658 0.950 . S
C2679 C2678 1.373 . S
C2679 C2695 1.377 . S
C2680 C2678 1.389 . S
C2680 C2681 1.524 . S
C2680 C2694 1.377 . S
C2681 C2680 1.524 . S
C2681 C2682 1.397 . S
C2681 C2686 1.363 . S
C2682 H2659 0.950 . S
C2682 C2681 1.397 . S
C2682 C2683 1.334 . S
C2683 H2660 0.950 . S
C2683 C2682 1.334 . S
C2683 C2684 1.287 . S
C2684 C2683 1.287 . S
C2684 C2685 1.524 . S
C2684 H2703 0.913 . S
C2685 H2661 0.950 . S
C2685 C2684 1.524 . S
C2685 C2686 1.415 . S
C2686 H2662 0.950 . S
C2686 C2681 1.363 . S
C2686 C2685 1.415 . S
C2687 H2663 0.951 . S
C2687 C2688 1.366 . S
C2687 C2689 1.388 . S
C2688 C2687 1.366 . S
C2688 C2692 1.385 . S
C2689 H2664 0.951 . S
C2689 C2687 1.388 . S
C2689 C2690 1.366 . S
C2690 C2689 1.366 . S
C2690 C2691 1.414 . S
C2690 C2693 1.499 . S
C2691 H2665 0.950 . S
C2691 C2690 1.414 . S
C2691 C2692 1.374 . S
C2692 H2666 0.950 . S
C2692 C2688 1.385 . S
C2692 C2691 1.374 . S
C2693 C2690 1.499 . S
C2693 C2694 1.373 . S
C2693 C2695 1.389 . S
C2694 H2667 0.950 . S
C2694 C2680 1.377 . S
C2694 C2693 1.373 . S
C2695 C2679 1.377 . S
C2695 C2693 1.389 . S
C2695 C2696 1.524 . S
C2696 C2695 1.524 . S
C2696 C2697 1.397 . S
C2696 C2701 1.363 . S
C2697 H2668 0.950 . S
C2697 C2696 1.397 . S
C2697 C2698 1.334 . S
C2698 H2669 0.950 . S
C2698 C2697 1.334 . S
C2698 C2699 1.287 . S
C2699 C2698 1.287 . S
C2699 C2700 1.524 . S
C2699 H2702 0.999 . S
C2700 H2670 0.950 . S
C2700 C2699 1.524 . S
C2700 C2701 1.415 . S
C2701 H2671 0.950 . S
C2701 C2696 1.363 . S
C2701 C2700 1.415 . S
H2702 C2699 0.999 . S
H2703 C2684 0.913 . S
H2704 C2722 0.951 . S
H2705 C2724 0.951 . S
H2706 C2726 0.950 . S
H2707 C2727 0.950 . S
H2708 C2729 0.950 . S
H2709 C2732 0.950 . S
H2710 C2733 0.950 . S
H2711 C2735 0.950 . S
H2712 C2736 0.950 . S
H2713 C2737 0.951 . S
H2714 C2739 0.951 . S
H2715 C2741 0.950 . S
H2716 C2742 0.950 . S
H2717 C2744 0.950 . S
H2718 C2747 0.950 . S
H2719 C2748 0.950 . S
H2720 C2750 0.950 . S
H2721 C2751 0.950 . S
C2722 H2704 0.951 . S
C2722 C2723 1.366 . S
C2722 C2724 1.388 . S
C2723 C2722 1.366 . S
C2723 C2727 1.385 1_554 S
C2724 H2705 0.951 . S
C2724 C2722 1.388 . S
C2724 C2725 1.366 . S
C2725 C2724 1.366 . S
C2725 C2726 1.414 1_554 S
C2725 C2728 1.499 . S
C2726 H2706 0.950 . S
C2726 C2725 1.414 1_556 S
C2726 C2727 1.374 . S
C2727 H2707 0.950 . S
C2727 C2723 1.385 1_556 S
C2727 C2726 1.374 . S
C2728 C2725 1.499 . S
C2728 C2729 1.373 1_554 S
C2728 C2730 1.389 . S
C2729 H2708 0.950 . S
C2729 C2728 1.373 1_556 S
C2729 C2745 1.377 1_556 S
C2730 C2728 1.389 . S
C2730 C2731 1.524 . S
C2730 C2744 1.377 . S
C2731 C2730 1.524 . S
C2731 C2732 1.397 . S
C2731 C2736 1.363 . S
C2732 H2709 0.950 . S
C2732 C2731 1.397 . S
C2732 C2733 1.334 . S
C2733 H2710 0.950 . S
C2733 C2732 1.334 . S
C2733 C2734 1.287 . S
C2734 C2733 1.287 . S
C2734 C2735 1.524 . S
C2734 H2753 0.913 . S
C2735 H2711 0.950 . S
C2735 C2734 1.524 . S
C2735 C2736 1.415 . S
C2736 H2712 0.950 . S
C2736 C2731 1.363 . S
C2736 C2735 1.415 . S
C2737 H2713 0.951 . S
C2737 C2738 1.366 . S
C2737 C2739 1.388 . S
C2738 C2737 1.366 . S
C2738 C2742 1.385 . S
C2739 H2714 0.951 . S
C2739 C2737 1.388 . S
C2739 C2740 1.366 . S
C2740 C2739 1.366 . S
C2740 C2741 1.414 . S
C2740 C2743 1.499 . S
C2741 H2715 0.950 . S
C2741 C2740 1.414 . S
C2741 C2742 1.374 . S
C2742 H2716 0.950 . S
C2742 C2738 1.385 . S
C2742 C2741 1.374 . S
C2743 C2740 1.499 . S
C2743 C2744 1.373 . S
C2743 C2745 1.389 . S
C2744 H2717 0.950 . S
C2744 C2730 1.377 . S
C2744 C2743 1.373 . S
C2745 C2729 1.377 1_554 S
C2745 C2743 1.389 . S
C2745 C2746 1.524 1_554 S
C2746 C2745 1.524 1_556 S
C2746 C2747 1.397 . S
C2746 C2751 1.363 . S
C2747 H2718 0.950 . S
C2747 C2746 1.397 . S
C2747 C2748 1.334 . S
C2748 H2719 0.950 . S
C2748 C2747 1.334 . S
C2748 C2749 1.287 . S
C2749 C2748 1.287 . S
C2749 C2750 1.524 . S
C2749 H2752 0.999 . S
C2750 H2720 0.950 . S
C2750 C2749 1.524 . S
C2750 C2751 1.415 . S
C2751 H2721 0.950 . S
C2751 C2746 1.363 . S
C2751 C2750 1.415 . S
H2752 C2749 0.999 . S
H2753 C2734 0.913 . S
H2754 C2772 0.951 . S
H2755 C2774 0.951 . S
H2756 C2776 0.950 . S
H2757 C2777 0.950 . S
H2758 C2779 0.950 . S
H2759 C2782 0.950 . S
H2760 C2783 0.950 . S
H2761 C2785 0.950 . S
H2762 C2786 0.950 . S
H2763 C2787 0.951 . S
H2764 C2789 0.951 . S
H2765 C2791 0.950 . S
H2766 C2792 0.950 . S
H2767 C2794 0.950 . S
H2768 C2797 0.950 . S
H2769 C2798 0.950 . S
H2770 C2800 0.950 . S
H2771 C2801 0.950 . S
C2772 H2754 0.951 . S
C2772 C2773 1.366 1_556 S
C2772 C2774 1.388 . S
C2773 C2772 1.366 1_554 S
C2773 C2777 1.385 . S
C2774 H2755 0.951 . S
C2774 C2772 1.388 . S
C2774 C2775 1.366 1_556 S
C2775 C2774 1.366 1_554 S
C2775 C2776 1.413 . S
C2775 C2778 1.499 1_554 S
C2776 H2756 0.950 . S
C2776 C2775 1.413 . S
C2776 C2777 1.374 . S
C2777 H2757 0.950 . S
C2777 C2773 1.385 . S
C2777 C2776 1.374 . S
C2778 C2775 1.499 1_556 S
C2778 C2779 1.373 1_556 S
C2778 C2780 1.389 . S
C2779 H2758 0.950 . S
C2779 C2778 1.373 1_554 S
C2779 C2795 1.377 . S
C2780 C2778 1.389 . S
C2780 C2781 1.524 . S
C2780 C2794 1.377 . S
C2781 C2780 1.524 . S
C2781 C2782 1.397 . S
C2781 C2786 1.363 . S
C2782 H2759 0.950 . S
C2782 C2781 1.397 . S
C2782 C2783 1.334 . S
C2783 H2760 0.950 . S
C2783 C2782 1.334 . S
C2783 C2784 1.287 . S
C2784 C2783 1.287 . S
C2784 C2785 1.524 . S
C2784 H2803 0.913 . S
C2785 H2761 0.950 . S
C2785 C2784 1.524 . S
C2785 C2786 1.415 . S
C2786 H2762 0.950 . S
C2786 C2781 1.363 . S
C2786 C2785 1.415 . S
C2787 H2763 0.951 . S
C2787 C2788 1.366 1_554 S
C2787 C2789 1.388 . S
C2788 C2787 1.366 1_556 S
C2788 C2792 1.385 . S
C2789 H2764 0.951 . S
C2789 C2787 1.388 . S
C2789 C2790 1.366 1_554 S
C2790 C2789 1.366 1_556 S
C2790 C2791 1.414 . S
C2790 C2793 1.499 . S
C2791 H2765 0.950 . S
C2791 C2790 1.414 . S
C2791 C2792 1.374 . S
C2792 H2766 0.950 . S
C2792 C2788 1.385 . S
C2792 C2791 1.374 . S
C2793 C2790 1.499 . S
C2793 C2794 1.373 . S
C2793 C2795 1.389 1_556 S
C2794 H2767 0.950 . S
C2794 C2780 1.377 . S
C2794 C2793 1.373 . S
C2795 C2779 1.377 . S
C2795 C2793 1.389 1_554 S
C2795 C2796 1.524 . S
C2796 C2795 1.524 . S
C2796 C2797 1.397 . S
C2796 C2801 1.363 . S
C2797 H2768 0.950 . S
C2797 C2796 1.397 . S
C2797 C2798 1.334 . S
C2798 H2769 0.950 . S
C2798 C2797 1.334 . S
C2798 C2799 1.287 . S
C2799 C2798 1.287 . S
C2799 C2800 1.524 . S
C2799 H2802 0.999 . S
C2800 H2770 0.950 . S
C2800 C2799 1.524 . S
C2800 C2801 1.415 . S
C2801 H2771 0.950 . S
C2801 C2796 1.363 . S
C2801 C2800 1.415 . S
H2802 C2799 0.999 . S
H2803 C2784 0.913 . S
H2804 C2822 0.951 . S
H2805 C2824 0.951 . S
H2806 C2826 0.950 . S
H2807 C2827 0.950 . S
H2808 C2829 0.950 . S
H2809 C2832 0.950 . S
H2810 C2833 0.950 . S
H2811 C2835 0.950 . S
H2812 C2836 0.950 . S
H2813 C2837 0.951 . S
H2814 C2839 0.951 . S
H2815 C2841 0.950 . S
H2816 C2842 0.950 . S
H2817 C2844 0.950 . S
H2818 C2847 0.950 . S
H2819 C2848 0.950 . S
H2820 C2850 0.950 . S
H2821 C2851 0.950 . S
C2822 H2804 0.951 . S
C2822 C2823 1.366 . S
C2822 C2824 1.388 . S
C2823 C2822 1.366 . S
C2823 C2827 1.385 . S
C2824 H2805 0.951 . S
C2824 C2822 1.388 . S
C2824 C2825 1.366 . S
C2825 C2824 1.366 . S
C2825 C2826 1.414 . S
C2825 C2828 1.499 . S
C2826 H2806 0.950 . S
C2826 C2825 1.414 . S
C2826 C2827 1.374 . S
C2827 H2807 0.950 . S
C2827 C2823 1.385 . S
C2827 C2826 1.374 . S
C2828 C2825 1.499 . S
C2828 C2829 1.373 . S
C2828 C2830 1.389 . S
C2829 H2808 0.950 . S
C2829 C2828 1.373 . S
C2829 C2845 1.377 . S
C2830 C2828 1.389 . S
C2830 C2831 1.524 . S
C2830 C2844 1.377 . S
C2831 C2830 1.524 . S
C2831 C2832 1.397 . S
C2831 C2836 1.363 . S
C2832 H2809 0.950 . S
C2832 C2831 1.397 . S
C2832 C2833 1.334 . S
C2833 H2810 0.950 . S
C2833 C2832 1.334 . S
C2833 C2834 1.287 . S
C2834 C2833 1.287 . S
C2834 C2835 1.524 . S
C2834 H2853 0.913 . S
C2835 H2811 0.950 . S
C2835 C2834 1.524 . S
C2835 C2836 1.415 . S
C2836 H2812 0.950 . S
C2836 C2831 1.363 . S
C2836 C2835 1.415 . S
C2837 H2813 0.951 . S
C2837 C2838 1.366 . S
C2837 C2839 1.388 . S
C2838 C2837 1.366 . S
C2838 C2842 1.385 . S
C2839 H2814 0.951 . S
C2839 C2837 1.388 . S
C2839 C2840 1.366 . S
C2840 C2839 1.366 . S
C2840 C2841 1.414 . S
C2840 C2843 1.499 . S
C2841 H2815 0.950 . S
C2841 C2840 1.414 . S
C2841 C2842 1.374 . S
C2842 H2816 0.950 . S
C2842 C2838 1.385 . S
C2842 C2841 1.374 . S
C2843 C2840 1.499 . S
C2843 C2844 1.373 . S
C2843 C2845 1.389 . S
C2844 H2817 0.950 . S
C2844 C2830 1.377 . S
C2844 C2843 1.373 . S
C2845 C2829 1.377 . S
C2845 C2843 1.389 . S
C2845 C2846 1.524 . S
C2846 C2845 1.524 . S
C2846 C2847 1.397 . S
C2846 C2851 1.363 . S
C2847 H2818 0.950 . S
C2847 C2846 1.397 . S
C2847 C2848 1.334 . S
C2848 H2819 0.950 . S
C2848 C2847 1.334 . S
C2848 C2849 1.287 . S
C2849 C2848 1.287 . S
C2849 C2850 1.524 . S
C2849 H2852 0.999 . S
C2850 H2820 0.950 . S
C2850 C2849 1.524 . S
C2850 C2851 1.415 . S
C2851 H2821 0.950 . S
C2851 C2846 1.363 . S
C2851 C2850 1.415 . S
H2852 C2849 0.999 . S
H2853 C2834 0.913 . S
H2854 C2872 0.951 . S
H2855 C2874 0.951 . S
H2856 C2876 0.950 . S
H2857 C2877 0.950 . S
H2858 C2879 0.950 . S
H2859 C2882 0.950 . S
H2860 C2883 0.950 . S
H2861 C2885 0.950 . S
H2862 C2886 0.950 . S
H2863 C2887 0.951 . S
H2864 C2889 0.951 . S
H2865 C2891 0.950 . S
H2866 C2892 0.950 . S
H2867 C2894 0.950 . S
H2868 C2897 0.950 . S
H2869 C2898 0.950 . S
H2870 C2900 0.950 . S
H2871 C2901 0.950 . S
C2872 H2854 0.951 . S
C2872 C2873 1.366 . S
C2872 C2874 1.388 . S
C2873 C2872 1.366 . S
C2873 C2877 1.385 . S
C2874 H2855 0.951 . S
C2874 C2872 1.388 . S
C2874 C2875 1.366 . S
C2875 C2874 1.366 . S
C2875 C2876 1.414 . S
C2875 C2878 1.499 . S
C2876 H2856 0.950 . S
C2876 C2875 1.414 . S
C2876 C2877 1.374 . S
C2877 H2857 0.950 . S
C2877 C2873 1.385 . S
C2877 C2876 1.374 . S
C2878 C2875 1.499 . S
C2878 C2879 1.373 . S
C2878 C2880 1.389 . S
C2879 H2858 0.950 . S
C2879 C2878 1.373 . S
C2879 C2895 1.377 . S
C2880 C2878 1.389 . S
C2880 C2881 1.524 . S
C2880 C2894 1.377 . S
C2881 C2880 1.524 . S
C2881 C2882 1.397 . S
C2881 C2886 1.363 . S
C2882 H2859 0.950 . S
C2882 C2881 1.397 . S
C2882 C2883 1.334 . S
C2883 H2860 0.950 . S
C2883 C2882 1.334 . S
C2883 C2884 1.287 . S
C2884 C2883 1.287 . S
C2884 C2885 1.524 . S
C2884 H2903 0.913 . S
C2885 H2861 0.950 . S
C2885 C2884 1.524 . S
C2885 C2886 1.415 . S
C2886 H2862 0.950 . S
C2886 C2881 1.363 . S
C2886 C2885 1.415 . S
C2887 H2863 0.951 . S
C2887 C2888 1.366 . S
C2887 C2889 1.388 . S
C2888 C2887 1.366 . S
C2888 C2892 1.385 . S
C2889 H2864 0.951 . S
C2889 C2887 1.388 . S
C2889 C2890 1.366 . S
C2890 C2889 1.366 . S
C2890 C2891 1.414 . S
C2890 C2893 1.499 . S
C2891 H2865 0.950 . S
C2891 C2890 1.414 . S
C2891 C2892 1.374 . S
C2892 H2866 0.950 . S
C2892 C2888 1.385 . S
C2892 C2891 1.374 . S
C2893 C2890 1.499 . S
C2893 C2894 1.373 . S
C2893 C2895 1.389 . S
C2894 H2867 0.950 . S
C2894 C2880 1.377 . S
C2894 C2893 1.373 . S
C2895 C2879 1.377 . S
C2895 C2893 1.389 . S
C2895 C2896 1.524 . S
C2896 C2895 1.524 . S
C2896 C2897 1.397 . S
C2896 C2901 1.363 . S
C2897 H2868 0.950 . S
C2897 C2896 1.397 . S
C2897 C2898 1.334 . S
C2898 H2869 0.950 . S
C2898 C2897 1.334 . S
C2898 C2899 1.287 . S
C2899 C2898 1.287 . S
C2899 C2900 1.524 . S
C2899 H2902 0.999 . S
C2900 H2870 0.950 . S
C2900 C2899 1.524 . S
C2900 C2901 1.415 . S
C2901 H2871 0.950 . S
C2901 C2896 1.363 . S
C2901 C2900 1.415 . S
H2902 C2899 0.999 . S
H2903 C2884 0.913 . S
H2904 C2922 0.951 . S
H2905 C2924 0.951 . S
H2906 C2926 0.950 . S
H2907 C2927 0.950 . S
H2908 C2929 0.950 . S
H2909 C2932 0.950 . S
H2910 C2933 0.950 . S
H2911 C2935 0.950 . S
H2912 C2936 0.950 . S
H2913 C2937 0.951 . S
H2914 C2939 0.951 . S
H2915 C2941 0.950 . S
H2916 C2942 0.950 . S
H2917 C2944 0.950 . S
H2918 C2947 0.950 . S
H2919 C2948 0.950 . S
H2920 C2950 0.950 . S
H2921 C2951 0.950 . S
C2922 H2904 0.951 . S
C2922 C2923 1.366 . S
C2922 C2924 1.388 . S
C2923 C2922 1.366 . S
C2923 C2927 1.385 . S
C2924 H2905 0.951 . S
C2924 C2922 1.388 . S
C2924 C2925 1.366 . S
C2925 C2924 1.366 . S
C2925 C2926 1.414 . S
C2925 C2928 1.499 . S
C2926 H2906 0.950 . S
C2926 C2925 1.414 . S
C2926 C2927 1.374 . S
C2927 H2907 0.950 . S
C2927 C2923 1.385 . S
C2927 C2926 1.374 . S
C2928 C2925 1.499 . S
C2928 C2929 1.373 . S
C2928 C2930 1.389 . S
C2929 H2908 0.950 . S
C2929 C2928 1.373 . S
C2929 C2945 1.377 . S
C2930 C2928 1.389 . S
C2930 C2931 1.524 . S
C2930 C2944 1.377 . S
C2931 C2930 1.524 . S
C2931 C2932 1.397 . S
C2931 C2936 1.363 . S
C2932 H2909 0.950 . S
C2932 C2931 1.397 . S
C2932 C2933 1.334 . S
C2933 H2910 0.950 . S
C2933 C2932 1.334 . S
C2933 C2934 1.287 . S
C2934 C2933 1.287 . S
C2934 C2935 1.524 . S
C2934 H2953 0.913 . S
C2935 H2911 0.950 . S
C2935 C2934 1.524 . S
C2935 C2936 1.415 . S
C2936 H2912 0.950 . S
C2936 C2931 1.363 . S
C2936 C2935 1.415 . S
C2937 H2913 0.951 . S
C2937 C2938 1.366 . S
C2937 C2939 1.388 . S
C2938 C2937 1.366 . S
C2938 C2942 1.385 . S
C2939 H2914 0.951 . S
C2939 C2937 1.388 . S
C2939 C2940 1.366 . S
C2940 C2939 1.366 . S
C2940 C2941 1.414 . S
C2940 C2943 1.499 . S
C2941 H2915 0.950 . S
C2941 C2940 1.414 . S
C2941 C2942 1.374 . S
C2942 H2916 0.950 . S
C2942 C2938 1.385 . S
C2942 C2941 1.374 . S
C2943 C2940 1.499 . S
C2943 C2944 1.373 . S
C2943 C2945 1.389 . S
C2944 H2917 0.950 . S
C2944 C2930 1.377 . S
C2944 C2943 1.373 . S
C2945 C2929 1.377 . S
C2945 C2943 1.389 . S
C2945 C2946 1.524 . S
C2946 C2945 1.524 . S
C2946 C2947 1.397 . S
C2946 C2951 1.363 . S
C2947 H2918 0.950 . S
C2947 C2946 1.397 . S
C2947 C2948 1.334 . S
C2948 H2919 0.950 . S
C2948 C2947 1.334 . S
C2948 C2949 1.287 . S
C2949 C2948 1.287 . S
C2949 C2950 1.524 . S
C2949 H2952 0.999 . S
C2950 H2920 0.950 . S
C2950 C2949 1.524 . S
C2950 C2951 1.415 . S
C2951 H2921 0.950 . S
C2951 C2946 1.363 . S
C2951 C2950 1.415 . S
H2952 C2949 0.999 . S
H2953 C2934 0.913 . S
H2954 C2972 0.951 . S
H2955 C2974 0.951 . S
H2956 C2976 0.950 . S
H2957 C2977 0.950 . S
H2958 C2979 0.950 . S
H2959 C2982 0.950 . S
H2960 C2983 0.950 . S
H2961 C2985 0.950 . S
H2962 C2986 0.950 . S
H2963 C2987 0.951 . S
H2964 C2989 0.951 . S
H2965 C2991 0.950 . S
H2966 C2992 0.950 . S
H2967 C2994 0.950 . S
H2968 C2997 0.950 . S
H2969 C2998 0.950 . S
H2970 C3000 0.950 . S
H2971 C3001 0.950 . S
C2972 H2954 0.951 . S
C2972 C2973 1.366 . S
C2972 C2974 1.388 . S
C2973 C2972 1.366 . S
C2973 C2977 1.385 . S
C2974 H2955 0.951 . S
C2974 C2972 1.388 . S
C2974 C2975 1.366 . S
C2975 C2974 1.366 . S
C2975 C2976 1.414 . S
C2975 C2978 1.499 . S
C2976 H2956 0.950 . S
C2976 C2975 1.414 . S
C2976 C2977 1.374 . S
C2977 H2957 0.950 . S
C2977 C2973 1.385 . S
C2977 C2976 1.374 . S
C2978 C2975 1.499 . S
C2978 C2979 1.373 . S
C2978 C2980 1.389 . S
C2979 H2958 0.950 . S
C2979 C2978 1.373 . S
C2979 C2995 1.377 . S
C2980 C2978 1.389 . S
C2980 C2981 1.524 . S
C2980 C2994 1.377 . S
C2981 C2980 1.524 . S
C2981 C2982 1.397 . S
C2981 C2986 1.363 . S
C2982 H2959 0.950 . S
C2982 C2981 1.397 . S
C2982 C2983 1.334 . S
C2983 H2960 0.950 . S
C2983 C2982 1.334 . S
C2983 C2984 1.287 . S
C2984 C2983 1.287 . S
C2984 C2985 1.524 . S
C2984 H3003 0.913 . S
C2985 H2961 0.950 . S
C2985 C2984 1.524 . S
C2985 C2986 1.415 . S
C2986 H2962 0.950 . S
C2986 C2981 1.363 . S
C2986 C2985 1.415 . S
C2987 H2963 0.951 . S
C2987 C2988 1.366 . S
C2987 C2989 1.388 . S
C2988 C2987 1.366 . S
C2988 C2992 1.385 . S
C2989 H2964 0.951 . S
C2989 C2987 1.388 . S
C2989 C2990 1.366 . S
C2990 C2989 1.366 . S
C2990 C2991 1.414 . S
C2990 C2993 1.499 . S
C2991 H2965 0.950 . S
C2991 C2990 1.414 . S
C2991 C2992 1.374 . S
C2992 H2966 0.950 . S
C2992 C2988 1.385 . S
C2992 C2991 1.374 . S
C2993 C2990 1.499 . S
C2993 C2994 1.373 . S
C2993 C2995 1.389 . S
C2994 H2967 0.950 . S
C2994 C2980 1.377 . S
C2994 C2993 1.373 . S
C2995 C2979 1.377 . S
C2995 C2993 1.389 . S
C2995 C2996 1.524 . S
C2996 C2995 1.524 . S
C2996 C2997 1.397 . S
C2996 C3001 1.363 . S
C2997 H2968 0.950 . S
C2997 C2996 1.397 . S
C2997 C2998 1.334 . S
C2998 H2969 0.950 . S
C2998 C2997 1.334 . S
C2998 C2999 1.287 . S
C2999 C2998 1.287 . S
C2999 C3000 1.524 . S
C2999 H3002 0.999 . S
C3000 H2970 0.950 . S
C3000 C2999 1.524 . S
C3000 C3001 1.415 . S
C3001 H2971 0.950 . S
C3001 C2996 1.363 . S
C3001 C3000 1.415 . S
H3002 C2999 0.999 . S
H3003 C2984 0.913 . S
H3004 C3022 0.951 . S
H3005 C3024 0.951 . S
H3006 C3026 0.950 . S
H3007 C3027 0.950 . S
H3008 C3029 0.950 . S
H3009 C3032 0.950 . S
H3010 C3033 0.950 . S
H3011 C3035 0.950 . S
H3012 C3036 0.950 . S
H3013 C3037 0.951 . S
H3014 C3039 0.951 . S
H3015 C3041 0.950 . S
H3016 C3042 0.950 . S
H3017 C3044 0.950 . S
H3018 C3047 0.950 . S
H3019 C3048 0.950 . S
H3020 C3050 0.950 . S
H3021 C3051 0.950 . S
C3022 H3004 0.951 . S
C3022 C3023 1.366 . S
C3022 C3024 1.388 . S
C3023 C3022 1.366 . S
C3023 C3027 1.385 . S
C3024 H3005 0.951 . S
C3024 C3022 1.388 . S
C3024 C3025 1.366 . S
C3025 C3024 1.366 . S
C3025 C3026 1.414 . S
C3025 C3028 1.499 . S
C3026 H3006 0.950 . S
C3026 C3025 1.414 . S
C3026 C3027 1.374 . S
C3027 H3007 0.950 . S
C3027 C3023 1.385 . S
C3027 C3026 1.374 . S
C3028 C3025 1.499 . S
C3028 C3029 1.373 . S
C3028 C3030 1.389 . S
C3029 H3008 0.950 . S
C3029 C3028 1.373 . S
C3029 C3045 1.377 . S
C3030 C3028 1.389 . S
C3030 C3031 1.524 . S
C3030 C3044 1.377 . S
C3031 C3030 1.524 . S
C3031 C3032 1.397 . S
C3031 C3036 1.363 . S
C3032 H3009 0.950 . S
C3032 C3031 1.397 . S
C3032 C3033 1.334 . S
C3033 H3010 0.950 . S
C3033 C3032 1.334 . S
C3033 C3034 1.287 . S
C3034 C3033 1.287 . S
C3034 C3035 1.524 . S
C3034 H3053 0.913 . S
C3035 H3011 0.950 . S
C3035 C3034 1.524 . S
C3035 C3036 1.415 . S
C3036 H3012 0.950 . S
C3036 C3031 1.363 . S
C3036 C3035 1.415 . S
C3037 H3013 0.951 . S
C3037 C3038 1.366 . S
C3037 C3039 1.388 . S
C3038 C3037 1.366 . S
C3038 C3042 1.385 . S
C3039 H3014 0.951 . S
C3039 C3037 1.388 . S
C3039 C3040 1.366 . S
C3040 C3039 1.366 . S
C3040 C3041 1.414 . S
C3040 C3043 1.499 . S
C3041 H3015 0.950 . S
C3041 C3040 1.414 . S
C3041 C3042 1.374 . S
C3042 H3016 0.950 . S
C3042 C3038 1.385 . S
C3042 C3041 1.374 . S
C3043 C3040 1.499 . S
C3043 C3044 1.373 . S
C3043 C3045 1.389 . S
C3044 H3017 0.950 . S
C3044 C3030 1.377 . S
C3044 C3043 1.373 . S
C3045 C3029 1.377 . S
C3045 C3043 1.389 . S
C3045 C3046 1.524 . S
C3046 C3045 1.524 . S
C3046 C3047 1.397 . S
C3046 C3051 1.363 . S
C3047 H3018 0.950 . S
C3047 C3046 1.397 . S
C3047 C3048 1.334 . S
C3048 H3019 0.950 . S
C3048 C3047 1.334 . S
C3048 C3049 1.287 . S
C3049 C3048 1.287 . S
C3049 C3050 1.524 . S
C3049 H3052 0.999 . S
C3050 H3020 0.950 . S
C3050 C3049 1.524 . S
C3050 C3051 1.415 . S
C3051 H3021 0.950 . S
C3051 C3046 1.363 . S
C3051 C3050 1.415 . S
H3052 C3049 0.999 . S
H3053 C3034 0.913 . S
H3054 C3072 0.951 . S
H3055 C3074 0.951 . S
H3056 C3076 0.950 . S
H3057 C3077 0.950 . S
H3058 C3079 0.950 . S
H3059 C3082 0.950 . S
H3060 C3083 0.950 . S
H3061 C3085 0.950 . S
H3062 C3086 0.950 . S
H3063 C3087 0.951 . S
H3064 C3089 0.951 . S
H3065 C3091 0.950 . S
H3066 C3092 0.950 . S
H3067 C3094 0.950 . S
H3068 C3097 0.950 . S
H3069 C3098 0.950 . S
H3070 C3100 0.950 . S
H3071 C3101 0.950 . S
C3072 H3054 0.951 . S
C3072 C3073 1.366 . S
C3072 C3074 1.388 . S
C3073 C3072 1.366 . S
C3073 C3077 1.385 . S
C3074 H3055 0.951 . S
C3074 C3072 1.388 . S
C3074 C3075 1.366 . S
C3075 C3074 1.366 . S
C3075 C3076 1.414 . S
C3075 C3078 1.499 . S
C3076 H3056 0.950 . S
C3076 C3075 1.414 . S
C3076 C3077 1.374 . S
C3077 H3057 0.950 . S
C3077 C3073 1.385 . S
C3077 C3076 1.374 . S
C3078 C3075 1.499 . S
C3078 C3079 1.373 . S
C3078 C3080 1.389 . S
C3079 H3058 0.950 . S
C3079 C3078 1.373 . S
C3079 C3095 1.377 . S
C3080 C3078 1.389 . S
C3080 C3081 1.524 . S
C3080 C3094 1.377 . S
C3081 C3080 1.524 . S
C3081 C3082 1.397 . S
C3081 C3086 1.363 . S
C3082 H3059 0.950 . S
C3082 C3081 1.397 . S
C3082 C3083 1.334 . S
C3083 H3060 0.950 . S
C3083 C3082 1.334 . S
C3083 C3084 1.287 . S
C3084 C3083 1.287 . S
C3084 C3085 1.524 . S
C3084 H3103 0.913 . S
C3085 H3061 0.950 . S
C3085 C3084 1.524 . S
C3085 C3086 1.415 . S
C3086 H3062 0.950 . S
C3086 C3081 1.363 . S
C3086 C3085 1.415 . S
C3087 H3063 0.951 . S
C3087 C3088 1.366 . S
C3087 C3089 1.388 . S
C3088 C3087 1.366 . S
C3088 C3092 1.385 . S
C3089 H3064 0.951 . S
C3089 C3087 1.388 . S
C3089 C3090 1.366 . S
C3090 C3089 1.366 . S
C3090 C3091 1.414 . S
C3090 C3093 1.499 . S
C3091 H3065 0.950 . S
C3091 C3090 1.414 . S
C3091 C3092 1.374 . S
C3092 H3066 0.950 . S
C3092 C3088 1.385 . S
C3092 C3091 1.374 . S
C3093 C3090 1.499 . S
C3093 C3094 1.373 . S
C3093 C3095 1.389 . S
C3094 H3067 0.950 . S
C3094 C3080 1.377 . S
C3094 C3093 1.373 . S
C3095 C3079 1.377 . S
C3095 C3093 1.389 . S
C3095 C3096 1.524 . S
C3096 C3095 1.524 . S
C3096 C3097 1.397 . S
C3096 C3101 1.363 . S
C3097 H3068 0.950 . S
C3097 C3096 1.397 . S
C3097 C3098 1.334 . S
C3098 H3069 0.950 . S
C3098 C3097 1.334 . S
C3098 C3099 1.287 . S
C3099 C3098 1.287 . S
C3099 C3100 1.524 . S
C3099 H3102 0.999 . S
C3100 H3070 0.950 . S
C3100 C3099 1.524 . S
C3100 C3101 1.415 . S
C3101 H3071 0.950 . S
C3101 C3096 1.363 . S
C3101 C3100 1.415 . S
H3102 C3099 0.999 . S
H3103 C3084 0.913 . S
H3104 C3122 0.951 . S
H3105 C3124 0.951 . S
H3106 C3126 0.950 . S
H3107 C3127 0.950 . S
H3108 C3129 0.950 . S
H3109 C3132 0.950 . S
H3110 C3133 0.950 . S
H3111 C3135 0.950 . S
H3112 C3136 0.950 . S
H3113 C3137 0.951 . S
H3114 C3139 0.951 . S
H3115 C3141 0.950 . S
H3116 C3142 0.950 . S
H3117 C3144 0.950 . S
H3118 C3147 0.950 . S
H3119 C3148 0.950 . S
H3120 C3150 0.950 . S
H3121 C3151 0.950 . S
C3122 H3104 0.951 . S
C3122 C3123 1.366 . S
C3122 C3124 1.388 . S
C3123 C3122 1.366 . S
C3123 C3127 1.385 . S
C3124 H3105 0.951 . S
C3124 C3122 1.388 . S
C3124 C3125 1.366 . S
C3125 C3124 1.366 . S
C3125 C3126 1.414 . S
C3125 C3128 1.499 . S
C3126 H3106 0.950 . S
C3126 C3125 1.414 . S
C3126 C3127 1.374 . S
C3127 H3107 0.950 . S
C3127 C3123 1.385 . S
C3127 C3126 1.374 . S
C3128 C3125 1.499 . S
C3128 C3129 1.373 . S
C3128 C3130 1.389 . S
C3129 H3108 0.950 . S
C3129 C3128 1.373 . S
C3129 C3145 1.377 . S
C3130 C3128 1.389 . S
C3130 C3131 1.524 . S
C3130 C3144 1.377 . S
C3131 C3130 1.524 . S
C3131 C3132 1.397 . S
C3131 C3136 1.363 . S
C3132 H3109 0.950 . S
C3132 C3131 1.397 . S
C3132 C3133 1.334 . S
C3133 H3110 0.950 . S
C3133 C3132 1.334 . S
C3133 C3134 1.287 . S
C3134 C3133 1.287 . S
C3134 C3135 1.524 . S
C3134 H3153 0.913 . S
C3135 H3111 0.950 . S
C3135 C3134 1.524 . S
C3135 C3136 1.415 . S
C3136 H3112 0.950 . S
C3136 C3131 1.363 . S
C3136 C3135 1.415 . S
C3137 H3113 0.951 . S
C3137 C3138 1.366 . S
C3137 C3139 1.388 . S
C3138 C3137 1.366 . S
C3138 C3142 1.385 . S
C3139 H3114 0.951 . S
C3139 C3137 1.388 . S
C3139 C3140 1.366 . S
C3140 C3139 1.366 . S
C3140 C3141 1.414 . S
C3140 C3143 1.499 . S
C3141 H3115 0.950 . S
C3141 C3140 1.414 . S
C3141 C3142 1.374 . S
C3142 H3116 0.950 . S
C3142 C3138 1.385 . S
C3142 C3141 1.374 . S
C3143 C3140 1.499 . S
C3143 C3144 1.373 . S
C3143 C3145 1.389 . S
C3144 H3117 0.950 . S
C3144 C3130 1.377 . S
C3144 C3143 1.373 . S
C3145 C3129 1.377 . S
C3145 C3143 1.389 . S
C3145 C3146 1.524 . S
C3146 C3145 1.524 . S
C3146 C3147 1.397 . S
C3146 C3151 1.363 . S
C3147 H3118 0.950 . S
C3147 C3146 1.397 . S
C3147 C3148 1.334 . S
C3148 H3119 0.950 . S
C3148 C3147 1.334 . S
C3148 C3149 1.287 . S
C3149 C3148 1.287 . S
C3149 C3150 1.524 . S
C3149 H3152 0.999 . S
C3150 H3120 0.950 . S
C3150 C3149 1.524 . S
C3150 C3151 1.415 . S
C3151 H3121 0.950 . S
C3151 C3146 1.363 . S
C3151 C3150 1.415 . S
H3152 C3149 0.999 . S
H3153 C3134 0.913 . S
H3154 C3172 0.951 . S
H3155 C3174 0.951 . S
H3156 C3176 0.950 . S
H3157 C3177 0.950 . S
H3158 C3179 0.950 . S
H3159 C3182 0.950 . S
H3160 C3183 0.950 . S
H3161 C3185 0.950 . S
H3162 C3186 0.950 . S
H3163 C3187 0.951 . S
H3164 C3189 0.951 . S
H3165 C3191 0.950 . S
H3166 C3192 0.950 . S
H3167 C3194 0.950 . S
H3168 C3197 0.950 . S
H3169 C3198 0.950 . S
H3170 C3200 0.950 . S
H3171 C3201 0.950 . S
C3172 H3154 0.951 . S
C3172 C3173 1.366 . S
C3172 C3174 1.388 . S
C3173 C3172 1.366 . S
C3173 C3177 1.385 . S
C3174 H3155 0.951 . S
C3174 C3172 1.388 . S
C3174 C3175 1.366 . S
C3175 C3174 1.366 . S
C3175 C3176 1.414 . S
C3175 C3178 1.499 . S
C3176 H3156 0.950 . S
C3176 C3175 1.414 . S
C3176 C3177 1.374 . S
C3177 H3157 0.950 . S
C3177 C3173 1.385 . S
C3177 C3176 1.374 . S
C3178 C3175 1.499 . S
C3178 C3179 1.373 . S
C3178 C3180 1.389 . S
C3179 H3158 0.950 . S
C3179 C3178 1.373 . S
C3179 C3195 1.377 . S
C3180 C3178 1.389 . S
C3180 C3181 1.524 . S
C3180 C3194 1.377 . S
C3181 C3180 1.524 . S
C3181 C3182 1.397 . S
C3181 C3186 1.363 . S
C3182 H3159 0.950 . S
C3182 C3181 1.397 . S
C3182 C3183 1.334 . S
C3183 H3160 0.950 . S
C3183 C3182 1.334 . S
C3183 C3184 1.287 . S
C3184 C3183 1.287 . S
C3184 C3185 1.524 . S
C3184 H3203 0.913 . S
C3185 H3161 0.950 . S
C3185 C3184 1.524 . S
C3185 C3186 1.415 . S
C3186 H3162 0.950 . S
C3186 C3181 1.363 . S
C3186 C3185 1.415 . S
C3187 H3163 0.951 . S
C3187 C3188 1.366 . S
C3187 C3189 1.388 . S
C3188 C3187 1.366 . S
C3188 C3192 1.385 . S
C3189 H3164 0.951 . S
C3189 C3187 1.388 . S
C3189 C3190 1.366 . S
C3190 C3189 1.366 . S
C3190 C3191 1.414 . S
C3190 C3193 1.499 . S
C3191 H3165 0.950 . S
C3191 C3190 1.414 . S
C3191 C3192 1.374 . S
C3192 H3166 0.950 . S
C3192 C3188 1.385 . S
C3192 C3191 1.374 . S
C3193 C3190 1.499 . S
C3193 C3194 1.373 . S
C3193 C3195 1.389 . S
C3194 H3167 0.950 . S
C3194 C3180 1.377 . S
C3194 C3193 1.373 . S
C3195 C3179 1.377 . S
C3195 C3193 1.389 . S
C3195 C3196 1.524 . S
C3196 C3195 1.524 . S
C3196 C3197 1.397 . S
C3196 C3201 1.363 . S
C3197 H3168 0.950 . S
C3197 C3196 1.397 . S
C3197 C3198 1.334 . S
C3198 H3169 0.950 . S
C3198 C3197 1.334 . S
C3198 C3199 1.287 . S
C3199 C3198 1.287 . S
C3199 C3200 1.524 . S
C3199 H3202 0.999 . S
C3200 H3170 0.950 . S
C3200 C3199 1.524 . S
C3200 C3201 1.415 . S
C3201 H3171 0.950 . S
C3201 C3196 1.363 . S
C3201 C3200 1.415 . S
H3202 C3199 0.999 . S
H3203 C3184 0.913 . S
H3204 C3222 0.951 . S
H3205 C3224 0.951 . S
H3206 C3226 0.950 . S
H3207 C3227 0.950 . S
H3208 C3229 0.950 . S
H3209 C3232 0.950 . S
H3210 C3233 0.950 . S
H3211 C3235 0.950 . S
H3212 C3236 0.950 . S
H3213 C3237 0.954 1_655 S
H3214 C3239 0.951 1_655 S
H3215 C3241 0.950 . S
H3216 C3242 0.950 . S
H3217 C3244 0.950 . S
H3218 C3247 0.950 . S
H3219 C3248 0.950 . S
H3220 C3250 0.950 . S
H3221 C3251 0.950 . S
C3222 H3204 0.951 . S
C3222 C3223 1.366 . S
C3222 C3224 1.388 . S
C3223 C3222 1.366 . S
C3223 C3227 1.385 1_455 S
C3224 H3205 0.951 . S
C3224 C3222 1.388 . S
C3224 C3225 1.366 . S
C3225 C3224 1.366 . S
C3225 C3226 1.414 1_455 S
C3225 C3228 1.499 . S
C3226 H3206 0.950 . S
C3226 C3225 1.414 1_655 S
C3226 C3227 1.374 . S
C3227 H3207 0.950 . S
C3227 C3223 1.385 1_655 S
C3227 C3226 1.374 . S
C3228 C3225 1.499 . S
C3228 C3229 1.373 1_455 S
C3228 C3230 1.389 . S
C3229 H3208 0.950 . S
C3229 C3228 1.373 1_655 S
C3229 C3245 1.377 . S
C3230 C3228 1.389 . S
C3230 C3231 1.524 . S
C3230 C3244 1.377 . S
C3231 C3230 1.524 . S
C3231 C3232 1.397 . S
C3231 C3236 1.363 . S
C3232 H3209 0.950 . S
C3232 C3231 1.397 . S
C3232 C3233 1.334 . S
C3233 H3210 0.950 . S
C3233 C3232 1.334 . S
C3233 C3234 1.287 . S
C3234 C3233 1.287 . S
C3234 C3235 1.524 . S
C3234 H3253 0.913 . S
C3235 H3211 0.950 . S
C3235 C3234 1.524 . S
C3235 C3236 1.415 . S
C3236 H3212 0.950 . S
C3236 C3231 1.363 . S
C3236 C3235 1.415 . S
C3237 H3213 0.954 1_455 S
C3237 C3238 1.366 . S
C3237 C3239 1.388 . S
C3238 C3237 1.366 . S
C3238 C3242 1.385 . S
C3239 H3214 0.951 1_455 S
C3239 C3237 1.388 . S
C3239 C3240 1.366 . S
C3240 C3239 1.366 . S
C3240 C3241 1.414 . S
C3240 C3243 1.499 . S
C3241 H3215 0.950 . S
C3241 C3240 1.414 . S
C3241 C3242 1.374 . S
C3242 H3216 0.950 . S
C3242 C3238 1.385 . S
C3242 C3241 1.374 . S
C3243 C3240 1.499 . S
C3243 C3244 1.373 . S
C3243 C3245 1.389 1_455 S
C3244 H3217 0.950 . S
C3244 C3230 1.377 . S
C3244 C3243 1.373 . S
C3245 C3229 1.377 . S
C3245 C3243 1.389 1_655 S
C3245 C3246 1.524 . S
C3246 C3245 1.524 . S
C3246 C3247 1.397 . S
C3246 C3251 1.363 . S
C3247 H3218 0.950 . S
C3247 C3246 1.397 . S
C3247 C3248 1.334 . S
C3248 H3219 0.950 . S
C3248 C3247 1.334 . S
C3248 C3249 1.287 . S
C3249 C3248 1.287 . S
C3249 C3250 1.524 . S
C3249 H3252 0.999 . S
C3250 H3220 0.950 . S
C3250 C3249 1.524 . S
C3250 C3251 1.415 . S
C3251 H3221 0.950 . S
C3251 C3246 1.363 . S
C3251 C3250 1.415 . S
H3252 C3249 0.999 . S
H3253 C3234 0.913 . S
H3254 C3272 0.951 . S
H3255 C3274 0.951 . S
H3256 C3276 0.950 . S
H3257 C3277 0.950 . S
H3258 C3279 0.950 . S
H3259 C3282 0.950 . S
H3260 C3283 0.950 . S
H3261 C3285 0.950 . S
H3262 C3286 0.950 . S
H3263 C3287 0.951 . S
H3264 C3289 0.951 . S
H3265 C3291 0.950 . S
H3266 C3292 0.950 . S
H3267 C3294 0.950 . S
H3268 C3297 0.950 . S
H3269 C3298 0.950 . S
H3270 C3300 0.950 . S
H3271 C3301 0.950 . S
C3272 H3254 0.951 . S
C3272 C3273 1.366 . S
C3272 C3274 1.388 . S
C3273 C3272 1.366 . S
C3273 C3277 1.385 . S
C3274 H3255 0.951 . S
C3274 C3272 1.388 . S
C3274 C3275 1.366 . S
C3275 C3274 1.366 . S
C3275 C3276 1.414 . S
C3275 C3278 1.499 . S
C3276 H3256 0.950 . S
C3276 C3275 1.414 . S
C3276 C3277 1.374 . S
C3277 H3257 0.950 . S
C3277 C3273 1.385 . S
C3277 C3276 1.374 . S
C3278 C3275 1.499 . S
C3278 C3279 1.373 . S
C3278 C3280 1.389 . S
C3279 H3258 0.950 . S
C3279 C3278 1.373 . S
C3279 C3295 1.377 . S
C3280 C3278 1.389 . S
C3280 C3281 1.524 . S
C3280 C3294 1.377 . S
C3281 C3280 1.524 . S
C3281 C3282 1.397 . S
C3281 C3286 1.363 . S
C3282 H3259 0.950 . S
C3282 C3281 1.397 . S
C3282 C3283 1.334 . S
C3283 H3260 0.950 . S
C3283 C3282 1.334 . S
C3283 C3284 1.287 . S
C3284 C3283 1.287 . S
C3284 C3285 1.524 . S
C3284 H3303 0.913 . S
C3285 H3261 0.950 . S
C3285 C3284 1.524 . S
C3285 C3286 1.415 . S
C3286 H3262 0.950 . S
C3286 C3281 1.363 . S
C3286 C3285 1.415 . S
C3287 H3263 0.951 . S
C3287 C3288 1.366 . S
C3287 C3289 1.388 . S
C3288 C3287 1.366 . S
C3288 C3292 1.385 . S
C3289 H3264 0.951 . S
C3289 C3287 1.388 . S
C3289 C3290 1.366 . S
C3290 C3289 1.366 . S
C3290 C3291 1.414 . S
C3290 C3293 1.499 . S
C3291 H3265 0.950 . S
C3291 C3290 1.414 . S
C3291 C3292 1.374 . S
C3292 H3266 0.950 . S
C3292 C3288 1.385 . S
C3292 C3291 1.374 . S
C3293 C3290 1.499 . S
C3293 C3294 1.373 . S
C3293 C3295 1.389 . S
C3294 H3267 0.950 . S
C3294 C3280 1.377 . S
C3294 C3293 1.373 . S
C3295 C3279 1.377 . S
C3295 C3293 1.389 . S
C3295 C3296 1.524 . S
C3296 C3295 1.524 . S
C3296 C3297 1.397 . S
C3296 C3301 1.363 . S
C3297 H3268 0.950 . S
C3297 C3296 1.397 . S
C3297 C3298 1.334 . S
C3298 H3269 0.950 . S
C3298 C3297 1.334 . S
C3298 C3299 1.287 . S
C3299 C3298 1.287 . S
C3299 C3300 1.524 . S
C3299 H3302 0.999 . S
C3300 H3270 0.950 . S
C3300 C3299 1.524 . S
C3300 C3301 1.415 . S
C3301 H3271 0.950 . S
C3301 C3296 1.363 . S
C3301 C3300 1.415 . S
H3302 C3299 0.999 . S
H3303 C3284 0.913 . S
H3304 C3322 0.951 . S
H3305 C3324 0.951 . S
H3306 C3326 0.950 . S
H3307 C3327 0.950 . S
H3308 C3329 0.950 . S
H3309 C3332 0.950 . S
H3310 C3333 0.950 . S
H3311 C3335 0.950 . S
H3312 C3336 0.950 . S
H3313 C3337 0.951 . S
H3314 C3339 0.931 1_554 S
H3315 C3341 0.950 . S
H3316 C3342 0.950 . S
H3317 C3344 0.950 . S
H3318 C3347 0.950 . S
H3319 C3348 0.950 . S
H3320 C3350 0.950 . S
H3321 C3351 0.950 . S
C3322 H3304 0.951 . S
C3322 C3323 1.366 . S
C3322 C3324 1.388 . S
C3323 C3322 1.366 . S
C3323 C3327 1.385 . S
C3324 H3305 0.951 . S
C3324 C3322 1.388 . S
C3324 C3325 1.366 . S
C3325 C3324 1.366 . S
C3325 C3326 1.414 . S
C3325 C3328 1.499 . S
C3326 H3306 0.950 . S
C3326 C3325 1.414 . S
C3326 C3327 1.374 . S
C3327 H3307 0.950 . S
C3327 C3323 1.385 . S
C3327 C3326 1.374 . S
C3328 C3325 1.499 . S
C3328 C3329 1.373 . S
C3328 C3330 1.389 . S
C3329 H3308 0.950 . S
C3329 C3328 1.373 . S
C3329 C3345 1.377 . S
C3330 C3328 1.389 . S
C3330 C3331 1.524 . S
C3330 C3344 1.377 . S
C3331 C3330 1.524 . S
C3331 C3332 1.397 . S
C3331 C3336 1.363 . S
C3332 H3309 0.950 . S
C3332 C3331 1.397 . S
C3332 C3333 1.334 . S
C3333 H3310 0.950 . S
C3333 C3332 1.334 . S
C3333 C3334 1.287 . S
C3334 C3333 1.287 . S
C3334 C3335 1.524 . S
C3334 H3353 0.913 . S
C3335 H3311 0.950 . S
C3335 C3334 1.524 . S
C3335 C3336 1.415 . S
C3336 H3312 0.950 . S
C3336 C3331 1.363 . S
C3336 C3335 1.415 . S
C3337 H3313 0.951 . S
C3337 C3338 1.366 . S
C3337 C3339 1.365 1_554 S
C3338 C3337 1.366 . S
C3338 C3342 1.385 1_554 S
C3339 H3314 0.931 1_556 S
C3339 C3337 1.365 1_556 S
C3339 C3340 1.409 . S
C3340 C3339 1.409 . S
C3340 C3341 1.414 . S
C3340 C3343 1.499 . S
C3341 H3315 0.950 . S
C3341 C3340 1.414 . S
C3341 C3342 1.374 . S
C3342 H3316 0.950 . S
C3342 C3338 1.385 1_556 S
C3342 C3341 1.374 . S
C3343 C3340 1.499 . S
C3343 C3344 1.373 . S
C3343 C3345 1.389 . S
C3344 H3317 0.950 . S
C3344 C3330 1.377 . S
C3344 C3343 1.373 . S
C3345 C3329 1.377 . S
C3345 C3343 1.389 . S
C3345 C3346 1.524 . S
C3346 C3345 1.524 . S
C3346 C3347 1.397 . S
C3346 C3351 1.363 1_556 S
C3347 H3318 0.950 . S
C3347 C3346 1.397 . S
C3347 C3348 1.334 1_556 S
C3348 H3319 0.950 . S
C3348 C3347 1.334 1_554 S
C3348 C3349 1.287 . S
C3349 C3348 1.287 . S
C3349 C3350 1.524 . S
C3349 H3352 0.999 . S
C3350 H3320 0.950 . S
C3350 C3349 1.524 . S
C3350 C3351 1.415 . S
C3351 H3321 0.950 . S
C3351 C3346 1.363 1_554 S
C3351 C3350 1.415 . S
H3352 C3349 0.999 . S
H3353 C3334 0.913 . S
H3354 C3372 0.951 . S
H3355 C3374 0.951 . S
H3356 C3376 0.950 . S
H3357 C3377 0.950 . S
H3358 C3379 0.950 . S
H3359 C3382 0.950 . S
H3360 C3383 0.950 . S
H3361 C3385 0.950 . S
H3362 C3386 0.950 . S
H3363 C3387 0.951 . S
H3364 C3389 0.951 . S
H3365 C3391 0.950 . S
H3366 C3392 0.950 . S
H3367 C3394 0.950 . S
H3368 C3397 0.950 . S
H3369 C3398 0.950 . S
H3370 C3400 0.950 . S
H3371 C3401 0.950 . S
C3372 H3354 0.951 . S
C3372 C3373 1.366 . S
C3372 C3374 1.388 . S
C3373 C3372 1.366 . S
C3373 C3377 1.385 . S
C3374 H3355 0.951 . S
C3374 C3372 1.388 . S
C3374 C3375 1.366 . S
C3375 C3374 1.366 . S
C3375 C3376 1.414 . S
C3375 C3378 1.499 . S
C3376 H3356 0.950 . S
C3376 C3375 1.414 . S
C3376 C3377 1.374 . S
C3377 H3357 0.950 . S
C3377 C3373 1.385 . S
C3377 C3376 1.374 . S
C3378 C3375 1.499 . S
C3378 C3379 1.373 . S
C3378 C3380 1.389 . S
C3379 H3358 0.950 . S
C3379 C3378 1.373 . S
C3379 C3395 1.377 . S
C3380 C3378 1.389 . S
C3380 C3381 1.524 . S
C3380 C3394 1.377 . S
C3381 C3380 1.524 . S
C3381 C3382 1.397 . S
C3381 C3386 1.363 . S
C3382 H3359 0.950 . S
C3382 C3381 1.397 . S
C3382 C3383 1.334 . S
C3383 H3360 0.950 . S
C3383 C3382 1.334 . S
C3383 C3384 1.287 . S
C3384 C3383 1.287 . S
C3384 C3385 1.524 . S
C3384 H3403 0.913 . S
C3385 H3361 0.950 . S
C3385 C3384 1.524 . S
C3385 C3386 1.415 . S
C3386 H3362 0.950 . S
C3386 C3381 1.363 . S
C3386 C3385 1.415 . S
C3387 H3363 0.951 . S
C3387 C3388 1.366 . S
C3387 C3389 1.388 . S
C3388 C3387 1.366 . S
C3388 C3392 1.385 . S
C3389 H3364 0.951 . S
C3389 C3387 1.388 . S
C3389 C3390 1.366 . S
C3390 C3389 1.366 . S
C3390 C3391 1.414 . S
C3390 C3393 1.499 . S
C3391 H3365 0.950 . S
C3391 C3390 1.414 . S
C3391 C3392 1.374 . S
C3392 H3366 0.950 . S
C3392 C3388 1.385 . S
C3392 C3391 1.374 . S
C3393 C3390 1.499 . S
C3393 C3394 1.373 . S
C3393 C3395 1.389 . S
C3394 H3367 0.950 . S
C3394 C3380 1.377 . S
C3394 C3393 1.373 . S
C3395 C3379 1.377 . S
C3395 C3393 1.389 . S
C3395 C3396 1.524 . S
C3396 C3395 1.524 . S
C3396 C3397 1.397 . S
C3396 C3401 1.363 . S
C3397 H3368 0.950 . S
C3397 C3396 1.397 . S
C3397 C3398 1.334 . S
C3398 H3369 0.950 . S
C3398 C3397 1.334 . S
C3398 C3399 1.287 . S
C3399 C3398 1.287 . S
C3399 C3400 1.524 . S
C3399 H3402 0.999 . S
C3400 H3370 0.950 . S
C3400 C3399 1.524 . S
C3400 C3401 1.415 . S
C3401 H3371 0.950 . S
C3401 C3396 1.363 . S
C3401 C3400 1.415 . S
H3402 C3399 0.999 . S
H3403 C3384 0.913 . S
H3404 C3422 0.951 1_655 S
H3405 C3424 0.948 1_655 S
H3406 C3426 0.950 . S
H3407 C3427 0.950 . S
H3408 C3429 0.950 1_655 S
H3409 C3432 0.950 . S
H3410 C3433 0.950 . S
H3411 C3435 0.950 . S
H3412 C3436 0.950 . S
H3413 C3437 0.951 . S
H3414 C3439 0.951 . S
H3415 C3441 0.950 . S
H3416 C3442 0.950 . S
H3417 C3444 0.950 . S
H3418 C3447 0.950 . S
H3419 C3448 0.950 . S
H3420 C3450 0.950 . S
H3421 C3451 0.950 1_455 S
C3422 H3404 0.951 1_455 S
C3422 C3423 1.366 . S
C3422 C3424 1.388 . S
C3423 C3422 1.366 . S
C3423 C3427 1.385 . S
C3424 H3405 0.948 1_455 S
C3424 C3422 1.388 . S
C3424 C3425 1.366 . S
C3425 C3424 1.366 . S
C3425 C3426 1.414 . S
C3425 C3428 1.499 . S
C3426 H3406 0.950 . S
C3426 C3425 1.414 . S
C3426 C3427 1.374 . S
C3427 H3407 0.950 . S
C3427 C3423 1.385 . S
C3427 C3426 1.374 . S
C3428 C3425 1.499 . S
C3428 C3429 1.373 . S
C3428 C3430 1.389 . S
C3429 H3408 0.950 1_455 S
C3429 C3428 1.373 . S
C3429 C3445 1.377 . S
C3430 C3428 1.389 . S
C3430 C3431 1.524 . S
C3430 C3444 1.377 . S
C3431 C3430 1.524 . S
C3431 C3432 1.397 . S
C3431 C3436 1.363 . S
C3432 H3409 0.950 . S
C3432 C3431 1.397 . S
C3432 C3433 1.334 . S
C3433 H3410 0.950 . S
C3433 C3432 1.334 . S
C3433 C3434 1.287 . S
C3434 C3433 1.287 . S
C3434 C3435 1.524 . S
C3434 H3453 0.913 . S
C3435 H3411 0.950 . S
C3435 C3434 1.524 . S
C3435 C3436 1.415 . S
C3436 H3412 0.950 . S
C3436 C3431 1.363 . S
C3436 C3435 1.415 . S
C3437 H3413 0.951 . S
C3437 C3438 1.366 . S
C3437 C3439 1.388 . S
C3438 C3437 1.366 . S
C3438 C3442 1.385 . S
C3439 H3414 0.951 . S
C3439 C3437 1.388 . S
C3439 C3440 1.366 . S
C3440 C3439 1.366 . S
C3440 C3441 1.414 . S
C3440 C3443 1.499 . S
C3441 H3415 0.950 . S
C3441 C3440 1.414 . S
C3441 C3442 1.374 . S
C3442 H3416 0.950 . S
C3442 C3438 1.385 . S
C3442 C3441 1.374 . S
C3443 C3440 1.499 . S
C3443 C3444 1.373 . S
C3443 C3445 1.389 . S
C3444 H3417 0.950 . S
C3444 C3430 1.377 . S
C3444 C3443 1.373 . S
C3445 C3429 1.377 . S
C3445 C3443 1.389 . S
C3445 C3446 1.524 1_455 S
C3446 C3445 1.524 1_655 S
C3446 C3447 1.397 . S
C3446 C3451 1.363 . S
C3447 H3418 0.950 . S
C3447 C3446 1.397 . S
C3447 C3448 1.334 . S
C3448 H3419 0.950 . S
C3448 C3447 1.334 . S
C3448 C3449 1.287 . S
C3449 C3448 1.287 . S
C3449 C3450 1.524 . S
C3449 H3452 0.999 . S
C3450 H3420 0.950 . S
C3450 C3449 1.524 . S
C3450 C3451 1.415 . S
C3451 H3421 0.950 1_655 S
C3451 C3446 1.363 . S
C3451 C3450 1.415 . S
H3452 C3449 0.999 . S
H3453 C3434 0.913 . S
H3454 C3472 0.951 . S
H3455 C3474 0.951 . S
H3456 C3476 0.950 . S
H3457 C3477 0.950 . S
H3458 C3479 0.950 . S
H3459 C3482 0.950 . S
H3460 C3483 0.950 . S
H3461 C3485 0.950 . S
H3462 C3486 0.950 . S
H3463 C3487 0.951 . S
H3464 C3489 0.951 . S
H3465 C3491 0.950 . S
H3466 C3492 0.950 . S
H3467 C3494 0.950 . S
H3468 C3497 0.950 . S
H3469 C3498 0.950 . S
H3470 C3500 0.950 . S
H3471 C3501 0.950 . S
C3472 H3454 0.951 . S
C3472 C3473 1.366 . S
C3472 C3474 1.388 . S
C3473 C3472 1.366 . S
C3473 C3477 1.385 . S
C3474 H3455 0.951 . S
C3474 C3472 1.388 . S
C3474 C3475 1.366 . S
C3475 C3474 1.366 . S
C3475 C3476 1.414 . S
C3475 C3478 1.499 . S
C3476 H3456 0.950 . S
C3476 C3475 1.414 . S
C3476 C3477 1.374 . S
C3477 H3457 0.950 . S
C3477 C3473 1.385 . S
C3477 C3476 1.374 . S
C3478 C3475 1.499 . S
C3478 C3479 1.373 . S
C3478 C3480 1.389 . S
C3479 H3458 0.950 . S
C3479 C3478 1.373 . S
C3479 C3495 1.377 . S
C3480 C3478 1.389 . S
C3480 C3481 1.524 . S
C3480 C3494 1.377 . S
C3481 C3480 1.524 . S
C3481 C3482 1.397 . S
C3481 C3486 1.363 . S
C3482 H3459 0.950 . S
C3482 C3481 1.397 . S
C3482 C3483 1.334 . S
C3483 H3460 0.950 . S
C3483 C3482 1.334 . S
C3483 C3484 1.287 . S
C3484 C3483 1.287 . S
C3484 C3485 1.524 . S
C3484 H3503 0.913 . S
C3485 H3461 0.950 . S
C3485 C3484 1.524 . S
C3485 C3486 1.415 . S
C3486 H3462 0.950 . S
C3486 C3481 1.363 . S
C3486 C3485 1.415 . S
C3487 H3463 0.951 . S
C3487 C3488 1.366 . S
C3487 C3489 1.388 . S
C3488 C3487 1.366 . S
C3488 C3492 1.385 . S
C3489 H3464 0.951 . S
C3489 C3487 1.388 . S
C3489 C3490 1.366 . S
C3490 C3489 1.366 . S
C3490 C3491 1.414 . S
C3490 C3493 1.499 . S
C3491 H3465 0.950 . S
C3491 C3490 1.414 . S
C3491 C3492 1.374 . S
C3492 H3466 0.950 . S
C3492 C3488 1.385 . S
C3492 C3491 1.374 . S
C3493 C3490 1.499 . S
C3493 C3494 1.373 . S
C3493 C3495 1.389 . S
C3494 H3467 0.950 . S
C3494 C3480 1.377 . S
C3494 C3493 1.373 . S
C3495 C3479 1.377 . S
C3495 C3493 1.389 . S
C3495 C3496 1.524 . S
C3496 C3495 1.524 . S
C3496 C3497 1.397 . S
C3496 C3501 1.363 . S
C3497 H3468 0.950 . S
C3497 C3496 1.397 . S
C3497 C3498 1.334 . S
C3498 H3469 0.950 . S
C3498 C3497 1.334 . S
C3498 C3499 1.287 . S
C3499 C3498 1.287 . S
C3499 C3500 1.524 . S
C3499 H3502 0.999 . S
C3500 H3470 0.950 . S
C3500 C3499 1.524 . S
C3500 C3501 1.415 . S
C3501 H3471 0.950 . S
C3501 C3496 1.363 . S
C3501 C3500 1.415 . S
H3502 C3499 0.999 . S
H3503 C3484 0.913 . S
H3504 C3522 0.951 . S
H3505 C3524 0.951 . S
H3506 C3526 0.950 . S
H3507 C3527 0.950 . S
H3508 C3529 0.950 . S
H3509 C3532 0.950 . S
H3510 C3533 0.950 . S
H3511 C3535 0.950 . S
H3512 C3536 0.950 . S
H3513 C3537 0.951 . S
H3514 C3539 0.951 . S
H3515 C3541 0.950 . S
H3516 C3542 0.950 . S
H3517 C3544 0.950 . S
H3518 C3547 0.950 . S
H3519 C3548 0.950 . S
H3520 C3550 0.950 . S
H3521 C3551 0.950 . S
C3522 H3504 0.951 . S
C3522 C3523 1.366 . S
C3522 C3524 1.388 . S
C3523 C3522 1.366 . S
C3523 C3527 1.385 . S
C3524 H3505 0.951 . S
C3524 C3522 1.388 . S
C3524 C3525 1.366 . S
C3525 C3524 1.366 . S
C3525 C3526 1.414 . S
C3525 C3528 1.499 . S
C3526 H3506 0.950 . S
C3526 C3525 1.414 . S
C3526 C3527 1.374 . S
C3527 H3507 0.950 . S
C3527 C3523 1.385 . S
C3527 C3526 1.374 . S
C3528 C3525 1.499 . S
C3528 C3529 1.373 . S
C3528 C3530 1.389 . S
C3529 H3508 0.950 . S
C3529 C3528 1.373 . S
C3529 C3545 1.377 . S
C3530 C3528 1.389 . S
C3530 C3531 1.524 . S
C3530 C3544 1.377 . S
C3531 C3530 1.524 . S
C3531 C3532 1.397 . S
C3531 C3536 1.363 . S
C3532 H3509 0.950 . S
C3532 C3531 1.397 . S
C3532 C3533 1.334 . S
C3533 H3510 0.950 . S
C3533 C3532 1.334 . S
C3533 C3534 1.287 . S
C3534 C3533 1.287 . S
C3534 C3535 1.524 . S
C3534 H3553 0.913 . S
C3535 H3511 0.950 . S
C3535 C3534 1.524 . S
C3535 C3536 1.415 . S
C3536 H3512 0.950 . S
C3536 C3531 1.363 . S
C3536 C3535 1.415 . S
C3537 H3513 0.951 . S
C3537 C3538 1.366 . S
C3537 C3539 1.388 . S
C3538 C3537 1.366 . S
C3538 C3542 1.385 . S
C3539 H3514 0.951 . S
C3539 C3537 1.388 . S
C3539 C3540 1.366 . S
C3540 C3539 1.366 . S
C3540 C3541 1.414 . S
C3540 C3543 1.499 . S
C3541 H3515 0.950 . S
C3541 C3540 1.414 . S
C3541 C3542 1.374 . S
C3542 H3516 0.950 . S
C3542 C3538 1.385 . S
C3542 C3541 1.374 . S
C3543 C3540 1.499 . S
C3543 C3544 1.373 . S
C3543 C3545 1.389 . S
C3544 H3517 0.950 . S
C3544 C3530 1.377 . S
C3544 C3543 1.373 . S
C3545 C3529 1.377 . S
C3545 C3543 1.389 . S
C3545 C3546 1.524 . S
C3546 C3545 1.524 . S
C3546 C3547 1.397 . S
C3546 C3551 1.363 . S
C3547 H3518 0.950 . S
C3547 C3546 1.397 . S
C3547 C3548 1.334 . S
C3548 H3519 0.950 . S
C3548 C3547 1.334 . S
C3548 C3549 1.287 . S
C3549 C3548 1.287 . S
C3549 C3550 1.524 . S
C3549 H3552 0.999 . S
C3550 H3520 0.950 . S
C3550 C3549 1.524 . S
C3550 C3551 1.415 . S
C3551 H3521 0.950 . S
C3551 C3546 1.363 . S
C3551 C3550 1.415 . S
H3552 C3549 0.999 . S
H3553 C3534 0.913 . S
H3554 C3572 0.951 . S
H3555 C3574 0.951 . S
H3556 C3576 0.950 . S
H3557 C3577 0.950 . S
H3558 C3579 0.950 . S
H3559 C3582 0.950 . S
H3560 C3583 0.950 . S
H3561 C3585 0.950 . S
H3562 C3586 0.950 . S
H3563 C3587 0.951 . S
H3564 C3589 0.951 . S
H3565 C3591 0.950 . S
H3566 C3592 0.950 . S
H3567 C3594 0.950 . S
H3568 C3597 0.950 . S
H3569 C3598 0.950 . S
H3570 C3600 0.950 . S
H3571 C3601 0.950 . S
C3572 H3554 0.951 . S
C3572 C3573 1.366 . S
C3572 C3574 1.388 . S
C3573 C3572 1.366 . S
C3573 C3577 1.385 . S
C3574 H3555 0.951 . S
C3574 C3572 1.388 . S
C3574 C3575 1.366 . S
C3575 C3574 1.366 . S
C3575 C3576 1.414 . S
C3575 C3578 1.499 . S
C3576 H3556 0.950 . S
C3576 C3575 1.414 . S
C3576 C3577 1.374 . S
C3577 H3557 0.950 . S
C3577 C3573 1.385 . S
C3577 C3576 1.374 . S
C3578 C3575 1.499 . S
C3578 C3579 1.373 . S
C3578 C3580 1.389 . S
C3579 H3558 0.950 . S
C3579 C3578 1.373 . S
C3579 C3595 1.377 . S
C3580 C3578 1.389 . S
C3580 C3581 1.524 . S
C3580 C3594 1.377 . S
C3581 C3580 1.524 . S
C3581 C3582 1.397 . S
C3581 C3586 1.363 . S
C3582 H3559 0.950 . S
C3582 C3581 1.397 . S
C3582 C3583 1.334 . S
C3583 H3560 0.950 . S
C3583 C3582 1.334 . S
C3583 C3584 1.287 . S
C3584 C3583 1.287 . S
C3584 C3585 1.524 . S
C3584 H3603 0.913 . S
C3585 H3561 0.950 . S
C3585 C3584 1.524 . S
C3585 C3586 1.415 . S
C3586 H3562 0.950 . S
C3586 C3581 1.363 . S
C3586 C3585 1.415 . S
C3587 H3563 0.951 . S
C3587 C3588 1.366 . S
C3587 C3589 1.388 . S
C3588 C3587 1.366 . S
C3588 C3592 1.385 . S
C3589 H3564 0.951 . S
C3589 C3587 1.388 . S
C3589 C3590 1.366 . S
C3590 C3589 1.366 . S
C3590 C3591 1.414 . S
C3590 C3593 1.499 . S
C3591 H3565 0.950 . S
C3591 C3590 1.414 . S
C3591 C3592 1.374 . S
C3592 H3566 0.950 . S
C3592 C3588 1.385 . S
C3592 C3591 1.374 . S
C3593 C3590 1.499 . S
C3593 C3594 1.373 . S
C3593 C3595 1.389 . S
C3594 H3567 0.950 . S
C3594 C3580 1.377 . S
C3594 C3593 1.373 . S
C3595 C3579 1.377 . S
C3595 C3593 1.389 . S
C3595 C3596 1.524 . S
C3596 C3595 1.524 . S
C3596 C3597 1.397 . S
C3596 C3601 1.363 . S
C3597 H3568 0.950 . S
C3597 C3596 1.397 . S
C3597 C3598 1.334 . S
C3598 H3569 0.950 . S
C3598 C3597 1.334 . S
C3598 C3599 1.287 . S
C3599 C3598 1.287 . S
C3599 C3600 1.524 . S
C3599 H3602 0.999 . S
C3600 H3570 0.950 . S
C3600 C3599 1.524 . S
C3600 C3601 1.415 . S
C3601 H3571 0.950 . S
C3601 C3596 1.363 . S
C3601 C3600 1.415 . S
H3602 C3599 0.999 . S
H3603 C3584 0.913 . S
H3604 C3622 0.951 . S
H3605 C3624 0.951 . S
H3606 C3626 0.950 . S
H3607 C3627 0.950 . S
H3608 C3629 0.950 . S
H3609 C3632 0.950 . S
H3610 C3633 0.950 . S
H3611 C3635 0.950 . S
H3612 C3636 0.950 . S
H3613 C3637 0.951 1_455 S
H3614 C3639 0.951 . S
H3615 C3641 0.950 . S
H3616 C3642 0.950 . S
H3617 C3644 0.950 . S
H3618 C3647 0.950 . S
H3619 C3648 0.950 . S
H3620 C3650 0.950 . S
H3621 C3651 0.950 . S
C3622 H3604 0.951 . S
C3622 C3623 1.366 . S
C3622 C3624 1.388 . S
C3623 C3622 1.366 . S
C3623 C3627 1.385 . S
C3624 H3605 0.951 . S
C3624 C3622 1.388 . S
C3624 C3625 1.366 . S
C3625 C3624 1.366 . S
C3625 C3626 1.414 . S
C3625 C3628 1.499 . S
C3626 H3606 0.950 . S
C3626 C3625 1.414 . S
C3626 C3627 1.374 . S
C3627 H3607 0.950 . S
C3627 C3623 1.385 . S
C3627 C3626 1.374 . S
C3628 C3625 1.499 . S
C3628 C3629 1.373 . S
C3628 C3630 1.389 . S
C3629 H3608 0.950 . S
C3629 C3628 1.373 . S
C3629 C3645 1.377 . S
C3630 C3628 1.389 . S
C3630 C3631 1.524 . S
C3630 C3644 1.377 . S
C3631 C3630 1.524 . S
C3631 C3632 1.397 . S
C3631 C3636 1.363 . S
C3632 H3609 0.950 . S
C3632 C3631 1.397 . S
C3632 C3633 1.334 . S
C3633 H3610 0.950 . S
C3633 C3632 1.334 . S
C3633 C3634 1.287 . S
C3634 C3633 1.287 . S
C3634 C3635 1.524 . S
C3634 H3653 0.913 . S
C3635 H3611 0.950 . S
C3635 C3634 1.524 . S
C3635 C3636 1.415 . S
C3636 H3612 0.950 . S
C3636 C3631 1.363 . S
C3636 C3635 1.415 . S
C3637 H3613 0.951 1_655 S
C3637 C3638 1.366 . S
C3637 C3639 1.388 . S
C3638 C3637 1.366 . S
C3638 C3642 1.385 . S
C3639 H3614 0.951 . S
C3639 C3637 1.388 . S
C3639 C3640 1.366 . S
C3640 C3639 1.366 . S
C3640 C3641 1.414 . S
C3640 C3643 1.499 . S
C3641 H3615 0.950 . S
C3641 C3640 1.414 . S
C3641 C3642 1.374 . S
C3642 H3616 0.950 . S
C3642 C3638 1.385 . S
C3642 C3641 1.374 . S
C3643 C3640 1.499 . S
C3643 C3644 1.373 . S
C3643 C3645 1.389 . S
C3644 H3617 0.950 . S
C3644 C3630 1.377 . S
C3644 C3643 1.373 . S
C3645 C3629 1.377 . S
C3645 C3643 1.389 . S
C3645 C3646 1.524 . S
C3646 C3645 1.524 . S
C3646 C3647 1.397 . S
C3646 C3651 1.363 . S
C3647 H3618 0.950 . S
C3647 C3646 1.397 . S
C3647 C3648 1.334 . S
C3648 H3619 0.950 . S
C3648 C3647 1.334 . S
C3648 C3649 1.287 . S
C3649 C3648 1.287 . S
C3649 C3650 1.524 . S
C3649 H3652 0.999 . S
C3650 H3620 0.950 . S
C3650 C3649 1.524 . S
C3650 C3651 1.415 . S
C3651 H3621 0.950 . S
C3651 C3646 1.363 . S
C3651 C3650 1.415 . S
H3652 C3649 0.999 . S
H3653 C3634 0.913 . S
H3654 C3672 0.951 . S
H3655 C3674 0.951 . S
H3656 C3676 0.950 . S
H3657 C3677 0.950 . S
H3658 C3679 0.950 . S
H3659 C3682 0.950 . S
H3660 C3683 0.950 . S
H3661 C3685 0.950 . S
H3662 C3686 0.950 . S
H3663 C3687 0.951 . S
H3664 C3689 0.951 . S
H3665 C3691 0.950 . S
H3666 C3692 0.950 . S
H3667 C3694 0.950 . S
H3668 C3697 0.950 . S
H3669 C3698 0.950 . S
H3670 C3700 0.950 . S
H3671 C3701 0.950 . S
C3672 H3654 0.951 . S
C3672 C3673 1.366 . S
C3672 C3674 1.388 . S
C3673 C3672 1.366 . S
C3673 C3677 1.385 . S
C3674 H3655 0.951 . S
C3674 C3672 1.388 . S
C3674 C3675 1.366 . S
C3675 C3674 1.366 . S
C3675 C3676 1.414 . S
C3675 C3678 1.499 . S
C3676 H3656 0.950 . S
C3676 C3675 1.414 . S
C3676 C3677 1.374 . S
C3677 H3657 0.950 . S
C3677 C3673 1.385 . S
C3677 C3676 1.374 . S
C3678 C3675 1.499 . S
C3678 C3679 1.373 . S
C3678 C3680 1.389 . S
C3679 H3658 0.950 . S
C3679 C3678 1.373 . S
C3679 C3695 1.377 . S
C3680 C3678 1.389 . S
C3680 C3681 1.524 . S
C3680 C3694 1.377 . S
C3681 C3680 1.524 . S
C3681 C3682 1.397 . S
C3681 C3686 1.363 . S
C3682 H3659 0.950 . S
C3682 C3681 1.397 . S
C3682 C3683 1.334 . S
C3683 H3660 0.950 . S
C3683 C3682 1.334 . S
C3683 C3684 1.287 . S
C3684 C3683 1.287 . S
C3684 C3685 1.524 . S
C3684 H3703 0.913 . S
C3685 H3661 0.950 . S
C3685 C3684 1.524 . S
C3685 C3686 1.415 . S
C3686 H3662 0.950 . S
C3686 C3681 1.363 . S
C3686 C3685 1.415 . S
C3687 H3663 0.951 . S
C3687 C3688 1.366 . S
C3687 C3689 1.388 . S
C3688 C3687 1.366 . S
C3688 C3692 1.385 . S
C3689 H3664 0.951 . S
C3689 C3687 1.388 . S
C3689 C3690 1.366 . S
C3690 C3689 1.366 . S
C3690 C3691 1.414 . S
C3690 C3693 1.499 . S
C3691 H3665 0.950 . S
C3691 C3690 1.414 . S
C3691 C3692 1.374 . S
C3692 H3666 0.950 . S
C3692 C3688 1.385 . S
C3692 C3691 1.374 . S
C3693 C3690 1.499 . S
C3693 C3694 1.373 . S
C3693 C3695 1.389 . S
C3694 H3667 0.950 . S
C3694 C3680 1.377 . S
C3694 C3693 1.373 . S
C3695 C3679 1.377 . S
C3695 C3693 1.389 . S
C3695 C3696 1.524 . S
C3696 C3695 1.524 . S
C3696 C3697 1.397 . S
C3696 C3701 1.363 . S
C3697 H3668 0.950 . S
C3697 C3696 1.397 . S
C3697 C3698 1.334 . S
C3698 H3669 0.950 . S
C3698 C3697 1.334 . S
C3698 C3699 1.287 . S
C3699 C3698 1.287 . S
C3699 C3700 1.524 . S
C3699 H3702 0.999 . S
C3700 H3670 0.950 . S
C3700 C3699 1.524 . S
C3700 C3701 1.415 . S
C3701 H3671 0.950 . S
C3701 C3696 1.363 . S
C3701 C3700 1.415 . S
H3702 C3699 0.999 . S
H3703 C3684 0.913 . S
H3704 C3722 0.951 . S
H3705 C3724 0.951 . S
H3706 C3726 0.950 . S
H3707 C3727 0.950 . S
H3708 C3729 0.950 . S
H3709 C3732 0.950 . S
H3710 C3733 0.950 . S
H3711 C3735 0.950 . S
H3712 C3736 0.950 . S
H3713 C3737 0.951 . S
H3714 C3739 0.951 . S
H3715 C3741 0.950 . S
H3716 C3742 0.950 . S
H3717 C3744 0.950 . S
H3718 C3747 0.950 . S
H3719 C3748 0.950 . S
H3720 C3750 0.950 . S
H3721 C3751 0.950 . S
C3722 H3704 0.951 . S
C3722 C3723 1.366 . S
C3722 C3724 1.388 . S
C3723 C3722 1.366 . S
C3723 C3727 1.385 . S
C3724 H3705 0.951 . S
C3724 C3722 1.388 . S
C3724 C3725 1.366 . S
C3725 C3724 1.366 . S
C3725 C3726 1.414 . S
C3725 C3728 1.499 . S
C3726 H3706 0.950 . S
C3726 C3725 1.414 . S
C3726 C3727 1.374 . S
C3727 H3707 0.950 . S
C3727 C3723 1.385 . S
C3727 C3726 1.374 . S
C3728 C3725 1.499 . S
C3728 C3729 1.373 . S
C3728 C3730 1.389 . S
C3729 H3708 0.950 . S
C3729 C3728 1.373 . S
C3729 C3745 1.377 . S
C3730 C3728 1.389 . S
C3730 C3731 1.524 . S
C3730 C3744 1.377 . S
C3731 C3730 1.524 . S
C3731 C3732 1.397 . S
C3731 C3736 1.363 . S
C3732 H3709 0.950 . S
C3732 C3731 1.397 . S
C3732 C3733 1.334 . S
C3733 H3710 0.950 . S
C3733 C3732 1.334 . S
C3733 C3734 1.287 . S
C3734 C3733 1.287 . S
C3734 C3735 1.524 . S
C3734 H3753 0.913 . S
C3735 H3711 0.950 . S
C3735 C3734 1.524 . S
C3735 C3736 1.415 . S
C3736 H3712 0.950 . S
C3736 C3731 1.363 . S
C3736 C3735 1.415 . S
C3737 H3713 0.951 . S
C3737 C3738 1.366 . S
C3737 C3739 1.388 . S
C3738 C3737 1.366 . S
C3738 C3742 1.385 . S
C3739 H3714 0.951 . S
C3739 C3737 1.388 . S
C3739 C3740 1.366 . S
C3740 C3739 1.366 . S
C3740 C3741 1.414 . S
C3740 C3743 1.499 . S
C3741 H3715 0.950 . S
C3741 C3740 1.414 . S
C3741 C3742 1.374 . S
C3742 H3716 0.950 . S
C3742 C3738 1.385 . S
C3742 C3741 1.374 . S
C3743 C3740 1.499 . S
C3743 C3744 1.373 . S
C3743 C3745 1.389 . S
C3744 H3717 0.950 . S
C3744 C3730 1.377 . S
C3744 C3743 1.373 . S
C3745 C3729 1.377 . S
C3745 C3743 1.389 . S
C3745 C3746 1.524 . S
C3746 C3745 1.524 . S
C3746 C3747 1.397 . S
C3746 C3751 1.363 . S
C3747 H3718 0.950 . S
C3747 C3746 1.397 . S
C3747 C3748 1.334 . S
C3748 H3719 0.950 . S
C3748 C3747 1.334 . S
C3748 C3749 1.287 . S
C3749 C3748 1.287 . S
C3749 C3750 1.524 . S
C3749 H3752 0.999 . S
C3750 H3720 0.950 . S
C3750 C3749 1.524 . S
C3750 C3751 1.415 . S
C3751 H3721 0.950 . S
C3751 C3746 1.363 . S
C3751 C3750 1.415 . S
H3752 C3749 0.999 . S
H3753 C3734 0.913 . S
H3754 C3772 0.951 . S
H3755 C3774 0.951 . S
H3756 C3776 0.950 . S
H3757 C3777 0.950 . S
H3758 C3779 0.950 . S
H3759 C3782 0.950 . S
H3760 C3783 0.950 . S
H3761 C3785 0.950 . S
H3762 C3786 0.950 . S
H3763 C3787 0.951 . S
H3764 C3789 0.951 . S
H3765 C3791 0.950 . S
H3766 C3792 0.950 . S
H3767 C3794 0.950 . S
H3768 C3797 0.950 . S
H3769 C3798 0.950 . S
H3770 C3800 0.950 . S
H3771 C3801 0.950 . S
C3772 H3754 0.951 . S
C3772 C3773 1.366 . S
C3772 C3774 1.388 . S
C3773 C3772 1.366 . S
C3773 C3777 1.385 . S
C3774 H3755 0.951 . S
C3774 C3772 1.388 . S
C3774 C3775 1.366 . S
C3775 C3774 1.366 . S
C3775 C3776 1.414 . S
C3775 C3778 1.499 . S
C3776 H3756 0.950 . S
C3776 C3775 1.414 . S
C3776 C3777 1.374 . S
C3777 H3757 0.950 . S
C3777 C3773 1.385 . S
C3777 C3776 1.374 . S
C3778 C3775 1.499 . S
C3778 C3779 1.373 . S
C3778 C3780 1.389 . S
C3779 H3758 0.950 . S
C3779 C3778 1.373 . S
C3779 C3795 1.377 . S
C3780 C3778 1.389 . S
C3780 C3781 1.524 . S
C3780 C3794 1.377 . S
C3781 C3780 1.524 . S
C3781 C3782 1.397 . S
C3781 C3786 1.363 . S
C3782 H3759 0.950 . S
C3782 C3781 1.397 . S
C3782 C3783 1.334 . S
C3783 H3760 0.950 . S
C3783 C3782 1.334 . S
C3783 C3784 1.287 . S
C3784 C3783 1.287 . S
C3784 C3785 1.524 . S
C3784 H3803 0.913 . S
C3785 H3761 0.950 . S
C3785 C3784 1.524 . S
C3785 C3786 1.415 . S
C3786 H3762 0.950 . S
C3786 C3781 1.363 . S
C3786 C3785 1.415 . S
C3787 H3763 0.951 . S
C3787 C3788 1.366 . S
C3787 C3789 1.388 . S
C3788 C3787 1.366 . S
C3788 C3792 1.385 . S
C3789 H3764 0.951 . S
C3789 C3787 1.388 . S
C3789 C3790 1.366 . S
C3790 C3789 1.366 . S
C3790 C3791 1.414 . S
C3790 C3793 1.499 . S
C3791 H3765 0.950 . S
C3791 C3790 1.414 . S
C3791 C3792 1.374 . S
C3792 H3766 0.950 . S
C3792 C3788 1.385 . S
C3792 C3791 1.374 . S
C3793 C3790 1.499 . S
C3793 C3794 1.373 . S
C3793 C3795 1.389 . S
C3794 H3767 0.950 . S
C3794 C3780 1.377 . S
C3794 C3793 1.373 . S
C3795 C3779 1.377 . S
C3795 C3793 1.389 . S
C3795 C3796 1.524 . S
C3796 C3795 1.524 . S
C3796 C3797 1.397 . S
C3796 C3801 1.363 . S
C3797 H3768 0.950 . S
C3797 C3796 1.397 . S
C3797 C3798 1.334 . S
C3798 H3769 0.950 . S
C3798 C3797 1.334 . S
C3798 C3799 1.287 . S
C3799 C3798 1.287 . S
C3799 C3800 1.524 . S
C3799 H3802 0.999 . S
C3800 H3770 0.950 . S
C3800 C3799 1.524 . S
C3800 C3801 1.415 . S
C3801 H3771 0.950 . S
C3801 C3796 1.363 . S
C3801 C3800 1.415 . S
H3802 C3799 0.999 . S
H3803 C3784 0.913 . S
H3804 C3822 0.951 . S
H3805 C3824 0.951 . S
H3806 C3826 0.950 . S
H3807 C3827 0.950 . S
H3808 C3829 0.950 . S
H3809 C3832 0.950 . S
H3810 C3833 0.950 . S
H3811 C3835 0.950 . S
H3812 C3836 0.950 . S
H3813 C3837 0.951 . S
H3814 C3839 0.951 . S
H3815 C3841 0.950 . S
H3816 C3842 0.950 . S
H3817 C3844 0.950 . S
H3818 C3847 0.950 . S
H3819 C3848 0.950 . S
H3820 C3850 0.950 . S
H3821 C3851 0.950 . S
C3822 H3804 0.951 . S
C3822 C3823 1.366 . S
C3822 C3824 1.388 . S
C3823 C3822 1.366 . S
C3823 C3827 1.385 . S
C3824 H3805 0.951 . S
C3824 C3822 1.388 . S
C3824 C3825 1.366 . S
C3825 C3824 1.366 . S
C3825 C3826 1.414 . S
C3825 C3828 1.499 . S
C3826 H3806 0.950 . S
C3826 C3825 1.414 . S
C3826 C3827 1.374 . S
C3827 H3807 0.950 . S
C3827 C3823 1.385 . S
C3827 C3826 1.374 . S
C3828 C3825 1.499 . S
C3828 C3829 1.373 . S
C3828 C3830 1.389 . S
C3829 H3808 0.950 . S
C3829 C3828 1.373 . S
C3829 C3845 1.377 . S
C3830 C3828 1.389 . S
C3830 C3831 1.524 . S
C3830 C3844 1.377 . S
C3831 C3830 1.524 . S
C3831 C3832 1.397 . S
C3831 C3836 1.363 . S
C3832 H3809 0.950 . S
C3832 C3831 1.397 . S
C3832 C3833 1.334 . S
C3833 H3810 0.950 . S
C3833 C3832 1.334 . S
C3833 C3834 1.287 . S
C3834 C3833 1.287 . S
C3834 C3835 1.524 . S
C3834 H3853 0.913 . S
C3835 H3811 0.950 . S
C3835 C3834 1.524 . S
C3835 C3836 1.415 . S
C3836 H3812 0.950 . S
C3836 C3831 1.363 . S
C3836 C3835 1.415 . S
C3837 H3813 0.951 . S
C3837 C3838 1.366 . S
C3837 C3839 1.388 . S
C3838 C3837 1.366 . S
C3838 C3842 1.385 . S
C3839 H3814 0.951 . S
C3839 C3837 1.388 . S
C3839 C3840 1.366 . S
C3840 C3839 1.366 . S
C3840 C3841 1.414 . S
C3840 C3843 1.499 . S
C3841 H3815 0.950 . S
C3841 C3840 1.414 . S
C3841 C3842 1.374 . S
C3842 H3816 0.950 . S
C3842 C3838 1.385 . S
C3842 C3841 1.374 . S
C3843 C3840 1.499 . S
C3843 C3844 1.373 . S
C3843 C3845 1.389 . S
C3844 H3817 0.950 . S
C3844 C3830 1.377 . S
C3844 C3843 1.373 . S
C3845 C3829 1.377 . S
C3845 C3843 1.389 . S
C3845 C3846 1.524 . S
C3846 C3845 1.524 . S
C3846 C3847 1.397 . S
C3846 C3851 1.363 . S
C3847 H3818 0.950 . S
C3847 C3846 1.397 . S
C3847 C3848 1.334 . S
C3848 H3819 0.950 . S
C3848 C3847 1.334 . S
C3848 C3849 1.287 . S
C3849 C3848 1.287 . S
C3849 C3850 1.524 . S
C3849 H3852 0.999 . S
C3850 H3820 0.950 . S
C3850 C3849 1.524 . S
C3850 C3851 1.415 . S
C3851 H3821 0.950 . S
C3851 C3846 1.363 . S
C3851 C3850 1.415 . S
H3852 C3849 0.999 . S
H3853 C3834 0.913 . S
H3854 C3872 0.951 . S
H3855 C3874 0.951 . S
H3856 C3876 0.950 . S
H3857 C3877 0.950 . S
H3858 C3879 0.950 . S
H3859 C3882 0.950 . S
H3860 C3883 0.950 . S
H3861 C3885 0.950 . S
H3862 C3886 0.950 . S
H3863 C3887 0.951 . S
H3864 C3889 0.951 . S
H3865 C3891 0.950 . S
H3866 C3892 0.950 . S
H3867 C3894 0.950 . S
H3868 C3897 0.950 . S
H3869 C3898 0.950 . S
H3870 C3900 0.950 . S
H3871 C3901 0.950 . S
C3872 H3854 0.951 . S
C3872 C3873 1.366 . S
C3872 C3874 1.388 . S
C3873 C3872 1.366 . S
C3873 C3877 1.385 . S
C3874 H3855 0.951 . S
C3874 C3872 1.388 . S
C3874 C3875 1.366 . S
C3875 C3874 1.366 . S
C3875 C3876 1.414 . S
C3875 C3878 1.499 . S
C3876 H3856 0.950 . S
C3876 C3875 1.414 . S
C3876 C3877 1.374 . S
C3877 H3857 0.950 . S
C3877 C3873 1.385 . S
C3877 C3876 1.374 . S
C3878 C3875 1.499 . S
C3878 C3879 1.373 . S
C3878 C3880 1.389 . S
C3879 H3858 0.950 . S
C3879 C3878 1.373 . S
C3879 C3895 1.377 . S
C3880 C3878 1.389 . S
C3880 C3881 1.524 . S
C3880 C3894 1.377 . S
C3881 C3880 1.524 . S
C3881 C3882 1.397 . S
C3881 C3886 1.363 . S
C3882 H3859 0.950 . S
C3882 C3881 1.397 . S
C3882 C3883 1.334 . S
C3883 H3860 0.950 . S
C3883 C3882 1.334 . S
C3883 C3884 1.287 . S
C3884 C3883 1.287 . S
C3884 C3885 1.524 . S
C3884 H3903 0.913 . S
C3885 H3861 0.950 . S
C3885 C3884 1.524 . S
C3885 C3886 1.415 . S
C3886 H3862 0.950 . S
C3886 C3881 1.363 . S
C3886 C3885 1.415 . S
C3887 H3863 0.951 . S
C3887 C3888 1.366 . S
C3887 C3889 1.388 . S
C3888 C3887 1.366 . S
C3888 C3892 1.385 . S
C3889 H3864 0.951 . S
C3889 C3887 1.388 . S
C3889 C3890 1.366 . S
C3890 C3889 1.366 . S
C3890 C3891 1.414 . S
C3890 C3893 1.499 . S
C3891 H3865 0.950 . S
C3891 C3890 1.414 . S
C3891 C3892 1.374 . S
C3892 H3866 0.950 . S
C3892 C3888 1.385 . S
C3892 C3891 1.374 . S
C3893 C3890 1.499 . S
C3893 C3894 1.373 . S
C3893 C3895 1.389 . S
C3894 H3867 0.950 . S
C3894 C3880 1.377 . S
C3894 C3893 1.373 . S
C3895 C3879 1.377 . S
C3895 C3893 1.389 . S
C3895 C3896 1.524 . S
C3896 C3895 1.524 . S
C3896 C3897 1.397 . S
C3896 C3901 1.363 . S
C3897 H3868 0.950 . S
C3897 C3896 1.397 . S
C3897 C3898 1.334 . S
C3898 H3869 0.950 . S
C3898 C3897 1.334 . S
C3898 C3899 1.287 . S
C3899 C3898 1.287 . S
C3899 C3900 1.524 . S
C3899 H3902 0.999 . S
C3900 H3870 0.950 . S
C3900 C3899 1.524 . S
C3900 C3901 1.415 . S
C3901 H3871 0.950 . S
C3901 C3896 1.363 . S
C3901 C3900 1.415 . S
H3902 C3899 0.999 . S
H3903 C3884 0.913 . S
H3904 C3922 0.951 . S
H3905 C3924 0.951 . S
H3906 C3926 0.950 . S
H3907 C3927 0.950 . S
H3908 C3929 0.950 . S
H3909 C3932 0.950 . S
H3910 C3933 0.950 . S
H3911 C3935 0.950 . S
H3912 C3936 0.950 . S
H3913 C3937 0.951 . S
H3914 C3939 0.951 . S
H3915 C3941 0.950 . S
H3916 C3942 0.950 . S
H3917 C3944 0.950 . S
H3918 C3947 0.950 . S
H3919 C3948 0.950 . S
H3920 C3950 0.950 . S
H3921 C3951 0.950 . S
C3922 H3904 0.951 . S
C3922 C3923 1.366 . S
C3922 C3924 1.388 . S
C3923 C3922 1.366 . S
C3923 C3927 1.385 . S
C3924 H3905 0.951 . S
C3924 C3922 1.388 . S
C3924 C3925 1.366 . S
C3925 C3924 1.366 . S
C3925 C3926 1.414 . S
C3925 C3928 1.499 . S
C3926 H3906 0.950 . S
C3926 C3925 1.414 . S
C3926 C3927 1.374 . S
C3927 H3907 0.950 . S
C3927 C3923 1.385 . S
C3927 C3926 1.374 . S
C3928 C3925 1.499 . S
C3928 C3929 1.373 . S
C3928 C3930 1.389 . S
C3929 H3908 0.950 . S
C3929 C3928 1.373 . S
C3929 C3945 1.377 . S
C3930 C3928 1.389 . S
C3930 C3931 1.524 . S
C3930 C3944 1.377 . S
C3931 C3930 1.524 . S
C3931 C3932 1.397 . S
C3931 C3936 1.363 . S
C3932 H3909 0.950 . S
C3932 C3931 1.397 . S
C3932 C3933 1.334 . S
C3933 H3910 0.950 . S
C3933 C3932 1.334 . S
C3933 C3934 1.287 . S
C3934 C3933 1.287 . S
C3934 C3935 1.524 . S
C3934 H3953 0.913 . S
C3935 H3911 0.950 . S
C3935 C3934 1.524 . S
C3935 C3936 1.415 . S
C3936 H3912 0.950 . S
C3936 C3931 1.363 . S
C3936 C3935 1.415 . S
C3937 H3913 0.951 . S
C3937 C3938 1.366 . S
C3937 C3939 1.388 . S
C3938 C3937 1.366 . S
C3938 C3942 1.385 . S
C3939 H3914 0.951 . S
C3939 C3937 1.388 . S
C3939 C3940 1.366 . S
C3940 C3939 1.366 . S
C3940 C3941 1.414 . S
C3940 C3943 1.499 . S
C3941 H3915 0.950 . S
C3941 C3940 1.414 . S
C3941 C3942 1.374 . S
C3942 H3916 0.950 . S
C3942 C3938 1.385 . S
C3942 C3941 1.374 . S
C3943 C3940 1.499 . S
C3943 C3944 1.373 . S
C3943 C3945 1.389 . S
C3944 H3917 0.950 . S
C3944 C3930 1.377 . S
C3944 C3943 1.373 . S
C3945 C3929 1.377 . S
C3945 C3943 1.389 . S
C3945 C3946 1.524 . S
C3946 C3945 1.524 . S
C3946 C3947 1.397 . S
C3946 C3951 1.363 . S
C3947 H3918 0.950 . S
C3947 C3946 1.397 . S
C3947 C3948 1.334 . S
C3948 H3919 0.950 . S
C3948 C3947 1.334 . S
C3948 C3949 1.287 . S
C3949 C3948 1.287 . S
C3949 C3950 1.524 . S
C3949 H3952 0.999 . S
C3950 H3920 0.950 . S
C3950 C3949 1.524 . S
C3950 C3951 1.415 . S
C3951 H3921 0.950 . S
C3951 C3946 1.363 . S
C3951 C3950 1.415 . S
H3952 C3949 0.999 . S
H3953 C3934 0.913 . S
H3954 C3972 0.951 . S
H3955 C3974 0.951 . S
H3956 C3976 0.950 . S
H3957 C3977 0.950 . S
H3958 C3979 0.950 . S
H3959 C3982 0.950 . S
H3960 C3983 0.950 . S
H3961 C3985 0.950 . S
H3962 C3986 0.950 . S
H3963 C3987 0.951 . S
H3964 C3989 0.948 . S
H3965 C3991 0.950 . S
H3966 C3992 0.950 . S
H3967 C3994 0.950 . S
H3968 C3997 0.950 . S
H3969 C3998 0.950 . S
H3970 C4000 0.950 . S
H3971 C4001 0.950 . S
C3972 H3954 0.951 . S
C3972 C3973 1.366 . S
C3972 C3974 1.388 . S
C3973 C3972 1.366 . S
C3973 C3977 1.385 . S
C3974 H3955 0.951 . S
C3974 C3972 1.388 . S
C3974 C3975 1.366 . S
C3975 C3974 1.366 . S
C3975 C3976 1.414 . S
C3975 C3978 1.499 . S
C3976 H3956 0.950 . S
C3976 C3975 1.414 . S
C3976 C3977 1.374 . S
C3977 H3957 0.950 . S
C3977 C3973 1.385 . S
C3977 C3976 1.374 . S
C3978 C3975 1.499 . S
C3978 C3979 1.373 . S
C3978 C3980 1.389 . S
C3979 H3958 0.950 . S
C3979 C3978 1.373 . S
C3979 C3995 1.377 . S
C3980 C3978 1.389 . S
C3980 C3981 1.524 . S
C3980 C3994 1.377 . S
C3981 C3980 1.524 . S
C3981 C3982 1.397 . S
C3981 C3986 1.363 . S
C3982 H3959 0.950 . S
C3982 C3981 1.397 . S
C3982 C3983 1.334 . S
C3983 H3960 0.950 . S
C3983 C3982 1.334 . S
C3983 C3984 1.287 . S
C3984 C3983 1.287 . S
C3984 C3985 1.524 . S
C3984 H4003 0.913 . S
C3985 H3961 0.950 . S
C3985 C3984 1.524 . S
C3985 C3986 1.415 . S
C3986 H3962 0.950 . S
C3986 C3981 1.363 . S
C3986 C3985 1.415 . S
C3987 H3963 0.951 . S
C3987 C3988 1.366 1_545 S
C3987 C3989 1.388 1_545 S
C3988 C3987 1.366 1_565 S
C3988 C3992 1.385 . S
C3989 H3964 0.948 . S
C3989 C3987 1.388 1_565 S
C3989 C3990 1.366 . S
C3990 C3989 1.366 . S
C3990 C3991 1.414 . S
C3990 C3993 1.499 . S
C3991 H3965 0.950 . S
C3991 C3990 1.414 . S
C3991 C3992 1.374 . S
C3992 H3966 0.950 . S
C3992 C3988 1.385 . S
C3992 C3991 1.374 . S
C3993 C3990 1.499 . S
C3993 C3994 1.373 . S
C3993 C3995 1.389 . S
C3994 H3967 0.950 . S
C3994 C3980 1.377 . S
C3994 C3993 1.373 . S
C3995 C3979 1.377 . S
C3995 C3993 1.389 . S
C3995 C3996 1.524 . S
C3996 C3995 1.524 . S
C3996 C3997 1.397 . S
C3996 C4001 1.363 1_565 S
C3997 H3968 0.950 . S
C3997 C3996 1.397 . S
C3997 C3998 1.334 1_565 S
C3998 H3969 0.950 . S
C3998 C3997 1.334 1_545 S
C3998 C3999 1.287 . S
C3999 C3998 1.287 . S
C3999 C4000 1.524 . S
C3999 H4002 0.999 . S
C4000 H3970 0.950 . S
C4000 C3999 1.524 . S
C4000 C4001 1.415 . S
C4001 H3971 0.950 . S
C4001 C3996 1.363 1_545 S
C4001 C4000 1.415 . S
H4002 C3999 0.999 . S
H4003 C3984 0.913 . S
H4004 C4022 0.951 . S
H4005 C4024 0.951 . S
H4006 C4026 0.950 . S
H4007 C4027 0.950 . S
H4008 C4029 0.950 . S
H4009 C4032 0.950 . S
H4010 C4033 0.950 . S
H4011 C4035 0.950 . S
H4012 C4036 0.950 . S
H4013 C4037 0.951 . S
H4014 C4039 0.951 . S
H4015 C4041 0.950 . S
H4016 C4042 0.950 . S
H4017 C4044 0.950 . S
H4018 C4047 0.950 . S
H4019 C4048 0.950 . S
H4020 C4050 0.950 . S
H4021 C4051 0.950 . S
C4022 H4004 0.951 . S
C4022 C4023 1.366 . S
C4022 C4024 1.388 . S
C4023 C4022 1.366 . S
C4023 C4027 1.385 . S
C4024 H4005 0.951 . S
C4024 C4022 1.388 . S
C4024 C4025 1.366 . S
C4025 C4024 1.366 . S
C4025 C4026 1.414 . S
C4025 C4028 1.499 . S
C4026 H4006 0.950 . S
C4026 C4025 1.414 . S
C4026 C4027 1.374 . S
C4027 H4007 0.950 . S
C4027 C4023 1.385 . S
C4027 C4026 1.374 . S
C4028 C4025 1.499 . S
C4028 C4029 1.373 . S
C4028 C4030 1.389 . S
C4029 H4008 0.950 . S
C4029 C4028 1.373 . S
C4029 C4045 1.377 . S
C4030 C4028 1.389 . S
C4030 C4031 1.524 . S
C4030 C4044 1.377 . S
C4031 C4030 1.524 . S
C4031 C4032 1.397 . S
C4031 C4036 1.363 . S
C4032 H4009 0.950 . S
C4032 C4031 1.397 . S
C4032 C4033 1.334 . S
C4033 H4010 0.950 . S
C4033 C4032 1.334 . S
C4033 C4034 1.287 . S
C4034 C4033 1.287 . S
C4034 C4035 1.524 . S
C4034 H4053 0.913 . S
C4035 H4011 0.950 . S
C4035 C4034 1.524 . S
C4035 C4036 1.415 . S
C4036 H4012 0.950 . S
C4036 C4031 1.363 . S
C4036 C4035 1.415 . S
C4037 H4013 0.951 . S
C4037 C4038 1.366 . S
C4037 C4039 1.388 . S
C4038 C4037 1.366 . S
C4038 C4042 1.385 . S
C4039 H4014 0.951 . S
C4039 C4037 1.388 . S
C4039 C4040 1.366 . S
C4040 C4039 1.366 . S
C4040 C4041 1.414 . S
C4040 C4043 1.499 . S
C4041 H4015 0.950 . S
C4041 C4040 1.414 . S
C4041 C4042 1.374 . S
C4042 H4016 0.950 . S
C4042 C4038 1.385 . S
C4042 C4041 1.374 . S
C4043 C4040 1.499 . S
C4043 C4044 1.373 . S
C4043 C4045 1.389 . S
C4044 H4017 0.950 . S
C4044 C4030 1.377 . S
C4044 C4043 1.373 . S
C4045 C4029 1.377 . S
C4045 C4043 1.389 . S
C4045 C4046 1.524 . S
C4046 C4045 1.524 . S
C4046 C4047 1.397 . S
C4046 C4051 1.363 . S
C4047 H4018 0.950 . S
C4047 C4046 1.397 . S
C4047 C4048 1.334 . S
C4048 H4019 0.950 . S
C4048 C4047 1.334 . S
C4048 C4049 1.287 . S
C4049 C4048 1.287 . S
C4049 C4050 1.524 . S
C4049 H4052 0.999 . S
C4050 H4020 0.950 . S
C4050 C4049 1.524 . S
C4050 C4051 1.415 . S
C4051 H4021 0.950 . S
C4051 C4046 1.363 . S
C4051 C4050 1.415 . S
H4052 C4049 0.999 . S
H4053 C4034 0.913 . S
H4054 C4072 0.951 . S
H4055 C4074 0.951 . S
H4056 C4076 0.950 . S
H4057 C4077 0.950 . S
H4058 C4079 0.950 1_556 S
H4059 C4082 0.950 . S
H4060 C4083 0.950 . S
H4061 C4085 0.950 . S
H4062 C4086 0.950 . S
H4063 C4087 0.951 . S
H4064 C4089 0.951 . S
H4065 C4091 0.950 . S
H4066 C4092 0.953 . S
H4067 C4094 0.950 . S
H4068 C4097 0.950 . S
H4069 C4098 0.950 . S
H4070 C4100 0.950 . S
H4071 C4101 0.950 . S
C4072 H4054 0.951 . S
C4072 C4073 1.366 . S
C4072 C4074 1.388 . S
C4073 C4072 1.366 . S
C4073 C4077 1.385 . S
C4074 H4055 0.951 . S
C4074 C4072 1.388 . S
C4074 C4075 1.366 . S
C4075 C4074 1.366 . S
C4075 C4076 1.414 . S
C4075 C4078 1.499 . S
C4076 H4056 0.950 . S
C4076 C4075 1.414 . S
C4076 C4077 1.374 . S
C4077 H4057 0.950 . S
C4077 C4073 1.385 . S
C4077 C4076 1.374 . S
C4078 C4075 1.499 . S
C4078 C4079 1.373 . S
C4078 C4080 1.389 . S
C4079 H4058 0.950 1_554 S
C4079 C4078 1.373 . S
C4079 C4095 1.377 . S
C4080 C4078 1.389 . S
C4080 C4081 1.524 . S
C4080 C4094 1.377 . S
C4081 C4080 1.524 . S
C4081 C4082 1.397 . S
C4081 C4086 1.363 . S
C4082 H4059 0.950 . S
C4082 C4081 1.397 . S
C4082 C4083 1.334 . S
C4083 H4060 0.950 . S
C4083 C4082 1.334 . S
C4083 C4084 1.287 . S
C4084 C4083 1.287 . S
C4084 C4085 1.524 . S
C4084 H4103 0.913 . S
C4085 H4061 0.950 . S
C4085 C4084 1.524 . S
C4085 C4086 1.415 . S
C4086 H4062 0.950 . S
C4086 C4081 1.363 . S
C4086 C4085 1.415 . S
C4087 H4063 0.951 . S
C4087 C4088 1.366 . S
C4087 C4089 1.388 . S
C4088 C4087 1.366 . S
C4088 C4092 1.385 . S
C4089 H4064 0.951 . S
C4089 C4087 1.388 . S
C4089 C4090 1.366 . S
C4090 C4089 1.366 . S
C4090 C4091 1.414 . S
C4090 C4093 1.499 . S
C4091 H4065 0.950 . S
C4091 C4090 1.414 . S
C4091 C4092 1.374 . S
C4092 H4066 0.953 . S
C4092 C4088 1.385 . S
C4092 C4091 1.374 . S
C4093 C4090 1.499 . S
C4093 C4094 1.373 . S
C4093 C4095 1.389 . S
C4094 H4067 0.950 . S
C4094 C4080 1.377 . S
C4094 C4093 1.373 . S
C4095 C4079 1.377 . S
C4095 C4093 1.389 . S
C4095 C4096 1.524 1_554 S
C4096 C4095 1.524 1_556 S
C4096 C4097 1.397 . S
C4096 C4101 1.363 . S
C4097 H4068 0.950 . S
C4097 C4096 1.397 . S
C4097 C4098 1.334 . S
C4098 H4069 0.950 . S
C4098 C4097 1.334 . S
C4098 C4099 1.287 . S
C4099 C4098 1.287 . S
C4099 C4100 1.524 . S
C4099 H4102 0.999 . S
C4100 H4070 0.950 . S
C4100 C4099 1.524 . S
C4100 C4101 1.415 . S
C4101 H4071 0.950 . S
C4101 C4096 1.363 . S
C4101 C4100 1.415 . S
H4102 C4099 0.999 . S
H4103 C4084 0.913 . S
H4104 C4122 0.951 . S
H4105 C4124 0.951 . S
H4106 C4126 0.950 . S
H4107 C4127 0.950 . S
H4108 C4129 0.950 . S
H4109 C4132 0.950 . S
H4110 C4133 0.950 . S
H4111 C4135 0.950 . S
H4112 C4136 0.950 . S
H4113 C4137 0.951 . S
H4114 C4139 0.951 . S
H4115 C4141 0.950 . S
H4116 C4142 0.950 . S
H4117 C4144 0.950 . S
H4118 C4147 0.950 . S
H4119 C4148 0.950 . S
H4120 C4150 0.950 . S
H4121 C4151 0.950 . S
C4122 H4104 0.951 . S
C4122 C4123 1.366 . S
C4122 C4124 1.388 . S
C4123 C4122 1.366 . S
C4123 C4127 1.385 . S
C4124 H4105 0.951 . S
C4124 C4122 1.388 . S
C4124 C4125 1.366 . S
C4125 C4124 1.366 . S
C4125 C4126 1.414 . S
C4125 C4128 1.499 . S
C4126 H4106 0.950 . S
C4126 C4125 1.414 . S
C4126 C4127 1.374 . S
C4127 H4107 0.950 . S
C4127 C4123 1.385 . S
C4127 C4126 1.374 . S
C4128 C4125 1.499 . S
C4128 C4129 1.373 . S
C4128 C4130 1.389 . S
C4129 H4108 0.950 . S
C4129 C4128 1.373 . S
C4129 C4145 1.377 . S
C4130 C4128 1.389 . S
C4130 C4131 1.524 . S
C4130 C4144 1.377 . S
C4131 C4130 1.524 . S
C4131 C4132 1.397 . S
C4131 C4136 1.363 . S
C4132 H4109 0.950 . S
C4132 C4131 1.397 . S
C4132 C4133 1.334 . S
C4133 H4110 0.950 . S
C4133 C4132 1.334 . S
C4133 C4134 1.287 . S
C4134 C4133 1.287 . S
C4134 C4135 1.524 . S
C4134 H4153 0.913 . S
C4135 H4111 0.950 . S
C4135 C4134 1.524 . S
C4135 C4136 1.415 . S
C4136 H4112 0.950 . S
C4136 C4131 1.363 . S
C4136 C4135 1.415 . S
C4137 H4113 0.951 . S
C4137 C4138 1.366 . S
C4137 C4139 1.388 . S
C4138 C4137 1.366 . S
C4138 C4142 1.385 . S
C4139 H4114 0.951 . S
C4139 C4137 1.388 . S
C4139 C4140 1.366 . S
C4140 C4139 1.366 . S
C4140 C4141 1.414 . S
C4140 C4143 1.499 . S
C4141 H4115 0.950 . S
C4141 C4140 1.414 . S
C4141 C4142 1.374 . S
C4142 H4116 0.950 . S
C4142 C4138 1.385 . S
C4142 C4141 1.374 . S
C4143 C4140 1.499 . S
C4143 C4144 1.373 . S
C4143 C4145 1.389 . S
C4144 H4117 0.950 . S
C4144 C4130 1.377 . S
C4144 C4143 1.373 . S
C4145 C4129 1.377 . S
C4145 C4143 1.389 . S
C4145 C4146 1.524 . S
C4146 C4145 1.524 . S
C4146 C4147 1.397 . S
C4146 C4151 1.363 . S
C4147 H4118 0.950 . S
C4147 C4146 1.397 . S
C4147 C4148 1.334 . S
C4148 H4119 0.950 . S
C4148 C4147 1.334 . S
C4148 C4149 1.287 . S
C4149 C4148 1.287 . S
C4149 C4150 1.524 . S
C4149 H4152 0.999 . S
C4150 H4120 0.950 . S
C4150 C4149 1.524 . S
C4150 C4151 1.415 . S
C4151 H4121 0.950 . S
C4151 C4146 1.363 . S
C4151 C4150 1.415 . S
H4152 C4149 0.999 . S
H4153 C4134 0.913 . S
H4154 C4172 0.951 . S
H4155 C4174 0.951 . S
H4156 C4176 0.950 . S
H4157 C4177 0.950 . S
H4158 C4179 0.950 . S
H4159 C4182 0.950 . S
H4160 C4183 0.950 . S
H4161 C4185 0.950 . S
H4162 C4186 0.950 . S
H4163 C4187 0.955 . S
H4164 C4189 0.952 . S
H4165 C4191 0.950 . S
H4166 C4192 0.950 . S
H4167 C4194 0.950 . S
H4168 C4197 0.950 . S
H4169 C4198 0.950 . S
H4170 C4200 0.950 . S
H4171 C4201 0.950 . S
C4172 H4154 0.951 . S
C4172 C4173 1.366 . S
C4172 C4174 1.388 . S
C4173 C4172 1.366 . S
C4173 C4177 1.385 . S
C4174 H4155 0.951 . S
C4174 C4172 1.388 . S
C4174 C4175 1.366 . S
C4175 C4174 1.366 . S
C4175 C4176 1.414 . S
C4175 C4178 1.499 . S
C4176 H4156 0.950 . S
C4176 C4175 1.414 . S
C4176 C4177 1.374 . S
C4177 H4157 0.950 . S
C4177 C4173 1.385 . S
C4177 C4176 1.374 . S
C4178 C4175 1.499 . S
C4178 C4179 1.373 1_554 S
C4178 C4180 1.389 . S
C4179 H4158 0.950 . S
C4179 C4178 1.373 1_556 S
C4179 C4195 1.377 . S
C4180 C4178 1.389 . S
C4180 C4181 1.524 . S
C4180 C4194 1.377 . S
C4181 C4180 1.524 . S
C4181 C4182 1.397 . S
C4181 C4186 1.363 . S
C4182 H4159 0.950 . S
C4182 C4181 1.397 . S
C4182 C4183 1.334 . S
C4183 H4160 0.950 . S
C4183 C4182 1.334 . S
C4183 C4184 1.287 . S
C4184 C4183 1.287 . S
C4184 C4185 1.524 . S
C4184 H4203 0.913 . S
C4185 H4161 0.950 . S
C4185 C4184 1.524 . S
C4185 C4186 1.415 . S
C4186 H4162 0.950 . S
C4186 C4181 1.363 . S
C4186 C4185 1.415 . S
C4187 H4163 0.955 . S
C4187 C4188 1.363 1_556 S
C4187 C4189 1.388 . S
C4188 C4187 1.363 1_554 S
C4188 C4192 1.385 . S
C4189 H4164 0.952 . S
C4189 C4187 1.388 . S
C4189 C4190 1.365 1_556 S
C4190 C4189 1.365 1_554 S
C4190 C4191 1.414 . S
C4190 C4193 1.499 . S
C4191 H4165 0.950 . S
C4191 C4190 1.414 . S
C4191 C4192 1.374 . S
C4192 H4166 0.950 . S
C4192 C4188 1.385 . S
C4192 C4191 1.374 . S
C4193 C4190 1.499 . S
C4193 C4194 1.373 . S
C4193 C4195 1.389 1_554 S
C4194 H4167 0.950 . S
C4194 C4180 1.377 . S
C4194 C4193 1.373 . S
C4195 C4179 1.377 . S
C4195 C4193 1.389 1_556 S
C4195 C4196 1.524 . S
C4196 C4195 1.524 . S
C4196 C4197 1.397 . S
C4196 C4201 1.363 . S
C4197 H4168 0.950 . S
C4197 C4196 1.397 . S
C4197 C4198 1.334 . S
C4198 H4169 0.950 . S
C4198 C4197 1.334 . S
C4198 C4199 1.287 . S
C4199 C4198 1.287 . S
C4199 C4200 1.524 . S
C4199 H4202 0.999 . S
C4200 H4170 0.950 . S
C4200 C4199 1.524 . S
C4200 C4201 1.415 . S
C4201 H4171 0.950 . S
C4201 C4196 1.363 . S
C4201 C4200 1.415 . S
H4202 C4199 0.999 . S
H4203 C4184 0.913 . S
H4204 C4222 0.951 . S
H4205 C4224 0.951 . S
H4206 C4226 0.950 . S
H4207 C4227 0.950 . S
H4208 C4229 0.950 . S
H4209 C4232 0.950 . S
H4210 C4233 0.950 . S
H4211 C4235 0.950 . S
H4212 C4236 0.950 . S
H4213 C4237 0.951 . S
H4214 C4239 0.951 . S
H4215 C4241 0.950 . S
H4216 C4242 0.950 . S
H4217 C4244 0.950 . S
H4218 C4247 0.950 . S
H4219 C4248 0.950 . S
H4220 C4250 0.950 . S
H4221 C4251 0.950 . S
C4222 H4204 0.951 . S
C4222 C4223 1.366 . S
C4222 C4224 1.388 . S
C4223 C4222 1.366 . S
C4223 C4227 1.385 . S
C4224 H4205 0.951 . S
C4224 C4222 1.388 . S
C4224 C4225 1.366 . S
C4225 C4224 1.366 . S
C4225 C4226 1.414 . S
C4225 C4228 1.499 . S
C4226 H4206 0.950 . S
C4226 C4225 1.414 . S
C4226 C4227 1.374 . S
C4227 H4207 0.950 . S
C4227 C4223 1.385 . S
C4227 C4226 1.374 . S
C4228 C4225 1.499 . S
C4228 C4229 1.373 . S
C4228 C4230 1.389 . S
C4229 H4208 0.950 . S
C4229 C4228 1.373 . S
C4229 C4245 1.377 . S
C4230 C4228 1.389 . S
C4230 C4231 1.524 . S
C4230 C4244 1.377 . S
C4231 C4230 1.524 . S
C4231 C4232 1.397 . S
C4231 C4236 1.363 . S
C4232 H4209 0.950 . S
C4232 C4231 1.397 . S
C4232 C4233 1.334 . S
C4233 H4210 0.950 . S
C4233 C4232 1.334 . S
C4233 C4234 1.287 . S
C4234 C4233 1.287 . S
C4234 C4235 1.524 . S
C4234 H4253 0.913 . S
C4235 H4211 0.950 . S
C4235 C4234 1.524 . S
C4235 C4236 1.415 . S
C4236 H4212 0.950 . S
C4236 C4231 1.363 . S
C4236 C4235 1.415 . S
C4237 H4213 0.951 . S
C4237 C4238 1.366 . S
C4237 C4239 1.388 . S
C4238 C4237 1.366 . S
C4238 C4242 1.385 . S
C4239 H4214 0.951 . S
C4239 C4237 1.388 . S
C4239 C4240 1.366 . S
C4240 C4239 1.366 . S
C4240 C4241 1.414 . S
C4240 C4243 1.499 . S
C4241 H4215 0.950 . S
C4241 C4240 1.414 . S
C4241 C4242 1.374 . S
C4242 H4216 0.950 . S
C4242 C4238 1.385 . S
C4242 C4241 1.374 . S
C4243 C4240 1.499 . S
C4243 C4244 1.373 . S
C4243 C4245 1.389 . S
C4244 H4217 0.950 . S
C4244 C4230 1.377 . S
C4244 C4243 1.373 . S
C4245 C4229 1.377 . S
C4245 C4243 1.389 . S
C4245 C4246 1.524 . S
C4246 C4245 1.524 . S
C4246 C4247 1.397 . S
C4246 C4251 1.363 . S
C4247 H4218 0.950 . S
C4247 C4246 1.397 . S
C4247 C4248 1.334 . S
C4248 H4219 0.950 . S
C4248 C4247 1.334 . S
C4248 C4249 1.287 . S
C4249 C4248 1.287 . S
C4249 C4250 1.524 . S
C4249 H4252 0.999 . S
C4250 H4220 0.950 . S
C4250 C4249 1.524 . S
C4250 C4251 1.415 . S
C4251 H4221 0.950 . S
C4251 C4246 1.363 . S
C4251 C4250 1.415 . S
H4252 C4249 0.999 . S
H4253 C4234 0.913 . S
H4254 C4272 0.951 . S
H4255 C4274 0.951 . S
H4256 C4276 0.950 . S
H4257 C4277 0.950 . S
H4258 C4279 0.950 . S
H4259 C4282 0.950 . S
H4260 C4283 0.950 . S
H4261 C4285 0.950 . S
H4262 C4286 0.950 . S
H4263 C4287 0.951 . S
H4264 C4289 0.951 . S
H4265 C4291 0.950 . S
H4266 C4292 0.950 . S
H4267 C4294 0.950 . S
H4268 C4297 0.950 . S
H4269 C4298 0.950 . S
H4270 C4300 0.950 . S
H4271 C4301 0.950 . S
C4272 H4254 0.951 . S
C4272 C4273 1.366 . S
C4272 C4274 1.388 . S
C4273 C4272 1.366 . S
C4273 C4277 1.385 . S
C4274 H4255 0.951 . S
C4274 C4272 1.388 . S
C4274 C4275 1.366 . S
C4275 C4274 1.366 . S
C4275 C4276 1.414 . S
C4275 C4278 1.499 . S
C4276 H4256 0.950 . S
C4276 C4275 1.414 . S
C4276 C4277 1.374 . S
C4277 H4257 0.950 . S
C4277 C4273 1.385 . S
C4277 C4276 1.374 . S
C4278 C4275 1.499 . S
C4278 C4279 1.373 . S
C4278 C4280 1.389 . S
C4279 H4258 0.950 . S
C4279 C4278 1.373 . S
C4279 C4295 1.377 . S
C4280 C4278 1.389 . S
C4280 C4281 1.524 . S
C4280 C4294 1.377 . S
C4281 C4280 1.524 . S
C4281 C4282 1.397 . S
C4281 C4286 1.363 . S
C4282 H4259 0.950 . S
C4282 C4281 1.397 . S
C4282 C4283 1.334 . S
C4283 H4260 0.950 . S
C4283 C4282 1.334 . S
C4283 C4284 1.287 . S
C4284 C4283 1.287 . S
C4284 C4285 1.524 . S
C4284 H4303 0.913 . S
C4285 H4261 0.950 . S
C4285 C4284 1.524 . S
C4285 C4286 1.415 . S
C4286 H4262 0.950 . S
C4286 C4281 1.363 . S
C4286 C4285 1.415 . S
C4287 H4263 0.951 . S
C4287 C4288 1.366 . S
C4287 C4289 1.388 . S
C4288 C4287 1.366 . S
C4288 C4292 1.385 . S
C4289 H4264 0.951 . S
C4289 C4287 1.388 . S
C4289 C4290 1.366 . S
C4290 C4289 1.366 . S
C4290 C4291 1.414 . S
C4290 C4293 1.499 . S
C4291 H4265 0.950 . S
C4291 C4290 1.414 . S
C4291 C4292 1.374 . S
C4292 H4266 0.950 . S
C4292 C4288 1.385 . S
C4292 C4291 1.374 . S
C4293 C4290 1.499 . S
C4293 C4294 1.373 . S
C4293 C4295 1.389 . S
C4294 H4267 0.950 . S
C4294 C4280 1.377 . S
C4294 C4293 1.373 . S
C4295 C4279 1.377 . S
C4295 C4293 1.389 . S
C4295 C4296 1.524 . S
C4296 C4295 1.524 . S
C4296 C4297 1.397 . S
C4296 C4301 1.363 . S
C4297 H4268 0.950 . S
C4297 C4296 1.397 . S
C4297 C4298 1.334 . S
C4298 H4269 0.950 . S
C4298 C4297 1.334 . S
C4298 C4299 1.287 . S
C4299 C4298 1.287 . S
C4299 C4300 1.524 . S
C4299 H4302 0.999 . S
C4300 H4270 0.950 . S
C4300 C4299 1.524 . S
C4300 C4301 1.415 . S
C4301 H4271 0.950 . S
C4301 C4296 1.363 . S
C4301 C4300 1.415 . S
H4302 C4299 0.999 . S
H4303 C4284 0.913 . S
H4304 C4322 0.951 . S
H4305 C4324 0.951 . S
H4306 C4326 0.950 . S
H4307 C4327 0.950 . S
H4308 C4329 0.950 . S
H4309 C4332 0.950 . S
H4310 C4333 0.950 . S
H4311 C4335 0.950 . S
H4312 C4336 0.950 . S
H4313 C4337 0.951 . S
H4314 C4339 0.951 . S
H4315 C4341 0.950 . S
H4316 C4342 0.950 . S
H4317 C4344 0.950 . S
H4318 C4347 0.950 . S
H4319 C4348 0.950 . S
H4320 C4350 0.950 . S
H4321 C4351 0.950 . S
C4322 H4304 0.951 . S
C4322 C4323 1.366 . S
C4322 C4324 1.388 . S
C4323 C4322 1.366 . S
C4323 C4327 1.385 . S
C4324 H4305 0.951 . S
C4324 C4322 1.388 . S
C4324 C4325 1.366 . S
C4325 C4324 1.366 . S
C4325 C4326 1.414 . S
C4325 C4328 1.499 . S
C4326 H4306 0.950 . S
C4326 C4325 1.414 . S
C4326 C4327 1.374 . S
C4327 H4307 0.950 . S
C4327 C4323 1.385 . S
C4327 C4326 1.374 . S
C4328 C4325 1.499 . S
C4328 C4329 1.373 . S
C4328 C4330 1.389 . S
C4329 H4308 0.950 . S
C4329 C4328 1.373 . S
C4329 C4345 1.377 . S
C4330 C4328 1.389 . S
C4330 C4331 1.524 . S
C4330 C4344 1.377 . S
C4331 C4330 1.524 . S
C4331 C4332 1.397 . S
C4331 C4336 1.363 . S
C4332 H4309 0.950 . S
C4332 C4331 1.397 . S
C4332 C4333 1.334 . S
C4333 H4310 0.950 . S
C4333 C4332 1.334 . S
C4333 C4334 1.287 . S
C4334 C4333 1.287 . S
C4334 C4335 1.524 . S
C4334 H4353 0.913 . S
C4335 H4311 0.950 . S
C4335 C4334 1.524 . S
C4335 C4336 1.415 . S
C4336 H4312 0.950 . S
C4336 C4331 1.363 . S
C4336 C4335 1.415 . S
C4337 H4313 0.951 . S
C4337 C4338 1.366 . S
C4337 C4339 1.388 . S
C4338 C4337 1.366 . S
C4338 C4342 1.385 . S
C4339 H4314 0.951 . S
C4339 C4337 1.388 . S
C4339 C4340 1.366 . S
C4340 C4339 1.366 . S
C4340 C4341 1.414 . S
C4340 C4343 1.499 . S
C4341 H4315 0.950 . S
C4341 C4340 1.414 . S
C4341 C4342 1.374 . S
C4342 H4316 0.950 . S
C4342 C4338 1.385 . S
C4342 C4341 1.374 . S
C4343 C4340 1.499 . S
C4343 C4344 1.373 . S
C4343 C4345 1.389 . S
C4344 H4317 0.950 . S
C4344 C4330 1.377 . S
C4344 C4343 1.373 . S
C4345 C4329 1.377 . S
C4345 C4343 1.389 . S
C4345 C4346 1.524 . S
C4346 C4345 1.524 . S
C4346 C4347 1.397 . S
C4346 C4351 1.363 . S
C4347 H4318 0.950 . S
C4347 C4346 1.397 . S
C4347 C4348 1.334 . S
C4348 H4319 0.950 . S
C4348 C4347 1.334 . S
C4348 C4349 1.287 . S
C4349 C4348 1.287 . S
C4349 C4350 1.524 . S
C4349 H4352 0.999 . S
C4350 H4320 0.950 . S
C4350 C4349 1.524 . S
C4350 C4351 1.415 . S
C4351 H4321 0.950 . S
C4351 C4346 1.363 . S
C4351 C4350 1.415 . S
H4352 C4349 0.999 . S
H4353 C4334 0.913 . S
H4354 C4372 0.951 . S
H4355 C4374 0.951 . S
H4356 C4376 0.950 . S
H4357 C4377 0.950 . S
H4358 C4379 0.950 . S
H4359 C4382 0.950 . S
H4360 C4383 0.950 . S
H4361 C4385 0.950 . S
H4362 C4386 0.950 . S
H4363 C4387 0.951 . S
H4364 C4389 0.951 . S
H4365 C4391 0.950 . S
H4366 C4392 0.950 . S
H4367 C4394 0.950 . S
H4368 C4397 0.950 . S
H4369 C4398 0.950 . S
H4370 C4400 0.950 . S
H4371 C4401 0.950 . S
C4372 H4354 0.951 . S
C4372 C4373 1.366 . S
C4372 C4374 1.388 . S
C4373 C4372 1.366 . S
C4373 C4377 1.385 . S
C4374 H4355 0.951 . S
C4374 C4372 1.388 . S
C4374 C4375 1.366 . S
C4375 C4374 1.366 . S
C4375 C4376 1.414 . S
C4375 C4378 1.499 . S
C4376 H4356 0.950 . S
C4376 C4375 1.414 . S
C4376 C4377 1.374 . S
C4377 H4357 0.950 . S
C4377 C4373 1.385 . S
C4377 C4376 1.374 . S
C4378 C4375 1.499 . S
C4378 C4379 1.373 . S
C4378 C4380 1.389 . S
C4379 H4358 0.950 . S
C4379 C4378 1.373 . S
C4379 C4395 1.377 . S
C4380 C4378 1.389 . S
C4380 C4381 1.524 . S
C4380 C4394 1.377 . S
C4381 C4380 1.524 . S
C4381 C4382 1.397 . S
C4381 C4386 1.363 . S
C4382 H4359 0.950 . S
C4382 C4381 1.397 . S
C4382 C4383 1.334 . S
C4383 H4360 0.950 . S
C4383 C4382 1.334 . S
C4383 C4384 1.287 . S
C4384 C4383 1.287 . S
C4384 C4385 1.524 . S
C4384 H4403 0.913 . S
C4385 H4361 0.950 . S
C4385 C4384 1.524 . S
C4385 C4386 1.415 . S
C4386 H4362 0.950 . S
C4386 C4381 1.363 . S
C4386 C4385 1.415 . S
C4387 H4363 0.951 . S
C4387 C4388 1.366 . S
C4387 C4389 1.388 . S
C4388 C4387 1.366 . S
C4388 C4392 1.385 . S
C4389 H4364 0.951 . S
C4389 C4387 1.388 . S
C4389 C4390 1.366 . S
C4390 C4389 1.366 . S
C4390 C4391 1.414 . S
C4390 C4393 1.499 . S
C4391 H4365 0.950 . S
C4391 C4390 1.414 . S
C4391 C4392 1.374 . S
C4392 H4366 0.950 . S
C4392 C4388 1.385 . S
C4392 C4391 1.374 . S
C4393 C4390 1.499 . S
C4393 C4394 1.373 . S
C4393 C4395 1.389 . S
C4394 H4367 0.950 . S
C4394 C4380 1.377 . S
C4394 C4393 1.373 . S
C4395 C4379 1.377 . S
C4395 C4393 1.389 . S
C4395 C4396 1.524 . S
C4396 C4395 1.524 . S
C4396 C4397 1.397 . S
C4396 C4401 1.363 . S
C4397 H4368 0.950 . S
C4397 C4396 1.397 . S
C4397 C4398 1.334 . S
C4398 H4369 0.950 . S
C4398 C4397 1.334 . S
C4398 C4399 1.287 . S
C4399 C4398 1.287 . S
C4399 C4400 1.524 . S
C4399 H4402 0.999 . S
C4400 H4370 0.950 . S
C4400 C4399 1.524 . S
C4400 C4401 1.415 . S
C4401 H4371 0.950 . S
C4401 C4396 1.363 . S
C4401 C4400 1.415 . S
H4402 C4399 0.999 . S
H4403 C4384 0.913 . S
H4404 C4422 0.951 . S
H4405 C4424 0.951 . S
H4406 C4426 0.945 1_655 S
H4407 C4427 0.950 . S
H4408 C4429 0.950 . S
H4409 C4432 0.950 . S
H4410 C4433 0.950 . S
H4411 C4435 0.950 . S
H4412 C4436 0.950 . S
H4413 C4437 0.951 . S
H4414 C4439 0.947 1_554 S
H4415 C4441 0.949 1_455 S
H4416 C4442 0.950 . S
H4417 C4444 0.950 . S
H4418 C4447 0.950 . S
H4419 C4448 0.950 . S
H4420 C4450 0.950 . S
H4421 C4451 0.950 . S
C4422 H4404 0.951 . S
C4422 C4423 1.366 . S
C4422 C4424 1.388 . S
C4423 C4422 1.366 . S
C4423 C4427 1.385 . S
C4424 H4405 0.951 . S
C4424 C4422 1.388 . S
C4424 C4425 1.366 . S
C4425 C4424 1.366 . S
C4425 C4426 1.417 . S
C4425 C4428 1.499 1_455 S
C4426 H4406 0.945 1_455 S
C4426 C4425 1.417 . S
C4426 C4427 1.378 . S
C4427 H4407 0.950 . S
C4427 C4423 1.385 . S
C4427 C4426 1.378 . S
C4428 C4425 1.499 1_655 S
C4428 C4429 1.373 1_655 S
C4428 C4430 1.389 . S
C4429 H4408 0.950 . S
C4429 C4428 1.373 1_455 S
C4429 C4445 1.377 . S
C4430 C4428 1.389 . S
C4430 C4431 1.524 . S
C4430 C4444 1.377 . S
C4431 C4430 1.524 . S
C4431 C4432 1.397 . S
C4431 C4436 1.363 . S
C4432 H4409 0.950 . S
C4432 C4431 1.397 . S
C4432 C4433 1.334 . S
C4433 H4410 0.950 . S
C4433 C4432 1.334 . S
C4433 C4434 1.287 . S
C4434 C4433 1.287 . S
C4434 C4435 1.524 . S
C4434 H4453 0.913 . S
C4435 H4411 0.950 . S
C4435 C4434 1.524 . S
C4435 C4436 1.415 . S
C4436 H4412 0.950 . S
C4436 C4431 1.363 . S
C4436 C4435 1.415 . S
C4437 H4413 0.951 . S
C4437 C4438 1.366 1_554 S
C4437 C4439 1.388 1_554 S
C4438 C4437 1.366 1_556 S
C4438 C4442 1.385 . S
C4439 H4414 0.947 1_556 S
C4439 C4437 1.388 1_556 S
C4439 C4440 1.366 . S
C4440 C4439 1.366 . S
C4440 C4441 1.414 . S
C4440 C4443 1.499 . S
C4441 H4415 0.949 1_655 S
C4441 C4440 1.414 . S
C4441 C4442 1.374 . S
C4442 H4416 0.950 . S
C4442 C4438 1.385 . S
C4442 C4441 1.374 . S
C4443 C4440 1.499 . S
C4443 C4444 1.380 . S
C4443 C4445 1.383 1_655 S
C4444 H4417 0.950 . S
C4444 C4430 1.377 . S
C4444 C4443 1.380 . S
C4445 C4429 1.377 . S
C4445 C4443 1.383 1_455 S
C4445 C4446 1.524 . S
C4446 C4445 1.524 . S
C4446 C4447 1.397 . S
C4446 C4451 1.397 . S
C4447 H4418 0.950 . S
C4447 C4446 1.397 . S
C4447 C4448 1.334 . S
C4448 H4419 0.950 . S
C4448 C4447 1.334 . S
C4448 C4449 1.287 1_556 S
C4449 C4448 1.287 1_554 S
C4449 C4450 1.524 . S
C4449 H4452 0.999 . S
C4450 H4420 0.950 . S
C4450 C4449 1.524 . S
C4450 C4451 1.382 1_554 S
C4451 H4421 0.950 . S
C4451 C4446 1.397 . S
C4451 C4450 1.382 1_556 S
H4452 C4449 0.999 . S
H4453 C4434 0.913 . S
H4454 C4472 0.951 . S
H4455 C4474 0.951 . S
H4456 C4476 0.950 . S
H4457 C4477 0.950 . S
H4458 C4479 0.950 . S
H4459 C4482 0.950 . S
H4460 C4483 0.950 . S
H4461 C4485 0.950 . S
H4462 C4486 0.950 . S
H4463 C4487 0.951 . S
H4464 C4489 0.951 . S
H4465 C4491 0.950 . S
H4466 C4492 0.950 . S
H4467 C4494 0.950 . S
H4468 C4497 0.950 . S
H4469 C4498 0.950 . S
H4470 C4500 0.950 . S
H4471 C4501 0.950 . S
C4472 H4454 0.951 . S
C4472 C4473 1.366 . S
C4472 C4474 1.388 . S
C4473 C4472 1.366 . S
C4473 C4477 1.385 . S
C4474 H4455 0.951 . S
C4474 C4472 1.388 . S
C4474 C4475 1.366 . S
C4475 C4474 1.366 . S
C4475 C4476 1.414 . S
C4475 C4478 1.499 . S
C4476 H4456 0.950 . S
C4476 C4475 1.414 . S
C4476 C4477 1.374 . S
C4477 H4457 0.950 . S
C4477 C4473 1.385 . S
C4477 C4476 1.374 . S
C4478 C4475 1.499 . S
C4478 C4479 1.373 . S
C4478 C4480 1.389 . S
C4479 H4458 0.950 . S
C4479 C4478 1.373 . S
C4479 C4495 1.377 . S
C4480 C4478 1.389 . S
C4480 C4481 1.524 . S
C4480 C4494 1.377 . S
C4481 C4480 1.524 . S
C4481 C4482 1.397 . S
C4481 C4486 1.363 . S
C4482 H4459 0.950 . S
C4482 C4481 1.397 . S
C4482 C4483 1.334 . S
C4483 H4460 0.950 . S
C4483 C4482 1.334 . S
C4483 C4484 1.287 . S
C4484 C4483 1.287 . S
C4484 C4485 1.524 . S
C4484 H4503 0.913 . S
C4485 H4461 0.950 . S
C4485 C4484 1.524 . S
C4485 C4486 1.415 . S
C4486 H4462 0.950 . S
C4486 C4481 1.363 . S
C4486 C4485 1.415 . S
C4487 H4463 0.951 . S
C4487 C4488 1.366 . S
C4487 C4489 1.388 . S
C4488 C4487 1.366 . S
C4488 C4492 1.385 . S
C4489 H4464 0.951 . S
C4489 C4487 1.388 . S
C4489 C4490 1.366 . S
C4490 C4489 1.366 . S
C4490 C4491 1.414 . S
C4490 C4493 1.499 . S
C4491 H4465 0.950 . S
C4491 C4490 1.414 . S
C4491 C4492 1.374 . S
C4492 H4466 0.950 . S
C4492 C4488 1.385 . S
C4492 C4491 1.374 . S
C4493 C4490 1.499 . S
C4493 C4494 1.373 . S
C4493 C4495 1.389 . S
C4494 H4467 0.950 . S
C4494 C4480 1.377 . S
C4494 C4493 1.373 . S
C4495 C4479 1.377 . S
C4495 C4493 1.389 . S
C4495 C4496 1.524 . S
C4496 C4495 1.524 . S
C4496 C4497 1.397 . S
C4496 C4501 1.363 . S
C4497 H4468 0.950 . S
C4497 C4496 1.397 . S
C4497 C4498 1.334 . S
C4498 H4469 0.950 . S
C4498 C4497 1.334 . S
C4498 C4499 1.287 . S
C4499 C4498 1.287 . S
C4499 C4500 1.524 . S
C4499 H4502 0.999 . S
C4500 H4470 0.950 . S
C4500 C4499 1.524 . S
C4500 C4501 1.415 . S
C4501 H4471 0.950 . S
C4501 C4496 1.363 . S
C4501 C4500 1.415 . S
H4502 C4499 0.999 . S
H4503 C4484 0.913 . S
H4504 C4522 0.951 . S
H4505 C4524 0.951 . S
H4506 C4526 0.950 . S
H4507 C4527 0.950 . S
H4508 C4529 0.950 . S
H4509 C4532 0.950 . S
H4510 C4533 0.950 . S
H4511 C4535 0.950 . S
H4512 C4536 0.950 . S
H4513 C4537 0.951 . S
H4514 C4539 0.951 . S
H4515 C4541 0.950 . S
H4516 C4542 0.950 . S
H4517 C4544 0.950 . S
H4518 C4547 0.950 . S
H4519 C4548 0.950 . S
H4520 C4550 0.950 1_556 S
H4521 C4551 0.950 . S
C4522 H4504 0.951 . S
C4522 C4523 1.366 . S
C4522 C4524 1.388 . S
C4523 C4522 1.366 . S
C4523 C4527 1.385 . S
C4524 H4505 0.951 . S
C4524 C4522 1.388 . S
C4524 C4525 1.366 . S
C4525 C4524 1.366 . S
C4525 C4526 1.414 . S
C4525 C4528 1.499 . S
C4526 H4506 0.950 . S
C4526 C4525 1.414 . S
C4526 C4527 1.374 . S
C4527 H4507 0.950 . S
C4527 C4523 1.385 . S
C4527 C4526 1.374 . S
C4528 C4525 1.499 . S
C4528 C4529 1.373 . S
C4528 C4530 1.389 . S
C4529 H4508 0.950 . S
C4529 C4528 1.373 . S
C4529 C4545 1.377 . S
C4530 C4528 1.389 . S
C4530 C4531 1.524 . S
C4530 C4544 1.377 . S
C4531 C4530 1.524 . S
C4531 C4532 1.397 . S
C4531 C4536 1.363 . S
C4532 H4509 0.950 . S
C4532 C4531 1.397 . S
C4532 C4533 1.334 . S
C4533 H4510 0.950 . S
C4533 C4532 1.334 . S
C4533 C4534 1.287 . S
C4534 C4533 1.287 . S
C4534 C4535 1.524 . S
C4534 H4553 0.913 . S
C4535 H4511 0.950 . S
C4535 C4534 1.524 . S
C4535 C4536 1.415 . S
C4536 H4512 0.950 . S
C4536 C4531 1.363 . S
C4536 C4535 1.415 . S
C4537 H4513 0.951 . S
C4537 C4538 1.366 . S
C4537 C4539 1.388 . S
C4538 C4537 1.366 . S
C4538 C4542 1.385 . S
C4539 H4514 0.951 . S
C4539 C4537 1.388 . S
C4539 C4540 1.366 . S
C4540 C4539 1.366 . S
C4540 C4541 1.414 . S
C4540 C4543 1.499 . S
C4541 H4515 0.950 . S
C4541 C4540 1.414 . S
C4541 C4542 1.374 . S
C4542 H4516 0.950 . S
C4542 C4538 1.385 . S
C4542 C4541 1.374 . S
C4543 C4540 1.499 . S
C4543 C4544 1.373 . S
C4543 C4545 1.389 . S
C4544 H4517 0.950 . S
C4544 C4530 1.377 . S
C4544 C4543 1.373 . S
C4545 C4529 1.377 . S
C4545 C4543 1.389 . S
C4545 C4546 1.524 . S
C4546 C4545 1.524 . S
C4546 C4547 1.397 . S
C4546 C4551 1.363 . S
C4547 H4518 0.950 . S
C4547 C4546 1.397 . S
C4547 C4548 1.334 . S
C4548 H4519 0.950 . S
C4548 C4547 1.334 . S
C4548 C4549 1.287 . S
C4549 C4548 1.287 . S
C4549 C4550 1.524 . S
C4549 H4552 0.999 1_554 S
C4550 H4520 0.950 1_554 S
C4550 C4549 1.524 . S
C4550 C4551 1.415 . S
C4551 H4521 0.950 . S
C4551 C4546 1.363 . S
C4551 C4550 1.415 . S
H4552 C4549 0.999 1_556 S
H4553 C4534 0.913 . S
H4554 C4572 0.951 . S
H4555 C4574 0.951 . S
H4556 C4576 0.950 . S
H4557 C4577 0.950 . S
H4558 C4579 0.950 . S
H4559 C4582 0.950 . S
H4560 C4583 0.950 . S
H4561 C4585 0.950 . S
H4562 C4586 0.950 . S
H4563 C4587 0.951 . S
H4564 C4589 0.951 . S
H4565 C4591 0.950 . S
H4566 C4592 0.950 . S
H4567 C4594 0.950 . S
H4568 C4597 0.950 . S
H4569 C4598 0.950 . S
H4570 C4600 0.950 . S
H4571 C4601 0.950 . S
C4572 H4554 0.951 . S
C4572 C4573 1.366 . S
C4572 C4574 1.388 . S
C4573 C4572 1.366 . S
C4573 C4577 1.385 . S
C4574 H4555 0.951 . S
C4574 C4572 1.388 . S
C4574 C4575 1.366 . S
C4575 C4574 1.366 . S
C4575 C4576 1.414 . S
C4575 C4578 1.499 . S
C4576 H4556 0.950 . S
C4576 C4575 1.414 . S
C4576 C4577 1.374 . S
C4577 H4557 0.950 . S
C4577 C4573 1.385 . S
C4577 C4576 1.374 . S
C4578 C4575 1.499 . S
C4578 C4579 1.373 . S
C4578 C4580 1.389 . S
C4579 H4558 0.950 . S
C4579 C4578 1.373 . S
C4579 C4595 1.377 . S
C4580 C4578 1.389 . S
C4580 C4581 1.524 . S
C4580 C4594 1.377 . S
C4581 C4580 1.524 . S
C4581 C4582 1.397 . S
C4581 C4586 1.363 . S
C4582 H4559 0.950 . S
C4582 C4581 1.397 . S
C4582 C4583 1.334 . S
C4583 H4560 0.950 . S
C4583 C4582 1.334 . S
C4583 C4584 1.287 . S
C4584 C4583 1.287 . S
C4584 C4585 1.524 . S
C4584 H4603 0.913 . S
C4585 H4561 0.950 . S
C4585 C4584 1.524 . S
C4585 C4586 1.415 . S
C4586 H4562 0.950 . S
C4586 C4581 1.363 . S
C4586 C4585 1.415 . S
C4587 H4563 0.951 . S
C4587 C4588 1.366 . S
C4587 C4589 1.388 . S
C4588 C4587 1.366 . S
C4588 C4592 1.385 . S
C4589 H4564 0.951 . S
C4589 C4587 1.388 . S
C4589 C4590 1.366 . S
C4590 C4589 1.366 . S
C4590 C4591 1.414 . S
C4590 C4593 1.499 . S
C4591 H4565 0.950 . S
C4591 C4590 1.414 . S
C4591 C4592 1.374 . S
C4592 H4566 0.950 . S
C4592 C4588 1.385 . S
C4592 C4591 1.374 . S
C4593 C4590 1.499 . S
C4593 C4594 1.373 . S
C4593 C4595 1.389 . S
C4594 H4567 0.950 . S
C4594 C4580 1.377 . S
C4594 C4593 1.373 . S
C4595 C4579 1.377 . S
C4595 C4593 1.389 . S
C4595 C4596 1.524 . S
C4596 C4595 1.524 . S
C4596 C4597 1.397 . S
C4596 C4601 1.363 . S
C4597 H4568 0.950 . S
C4597 C4596 1.397 . S
C4597 C4598 1.334 . S
C4598 H4569 0.950 . S
C4598 C4597 1.334 . S
C4598 C4599 1.287 . S
C4599 C4598 1.287 . S
C4599 C4600 1.524 . S
C4599 H4602 0.999 . S
C4600 H4570 0.950 . S
C4600 C4599 1.524 . S
C4600 C4601 1.415 . S
C4601 H4571 0.950 . S
C4601 C4596 1.363 . S
C4601 C4600 1.415 . S
H4602 C4599 0.999 . S
H4603 C4584 0.913 . S
H4604 C4622 0.951 . S
H4605 C4624 0.951 . S
H4606 C4626 0.950 . S
H4607 C4627 0.950 . S
H4608 C4629 0.950 . S
H4609 C4632 0.950 . S
H4610 C4633 0.950 . S
H4611 C4635 0.950 . S
H4612 C4636 0.950 1_655 S
H4613 C4637 0.951 . S
H4614 C4639 0.951 . S
H4615 C4641 0.950 . S
H4616 C4642 0.950 . S
H4617 C4644 0.950 . S
H4618 C4647 0.950 . S
H4619 C4648 0.950 . S
H4620 C4650 0.950 . S
H4621 C4651 0.950 1_455 S
C4622 H4604 0.951 . S
C4622 C4623 1.366 1_655 S
C4622 C4624 1.388 . S
C4623 C4622 1.366 1_455 S
C4623 C4627 1.385 . S
C4624 H4605 0.951 . S
C4624 C4622 1.388 . S
C4624 C4625 1.366 1_655 S
C4625 C4624 1.366 1_455 S
C4625 C4626 1.414 . S
C4625 C4628 1.499 . S
C4626 H4606 0.950 . S
C4626 C4625 1.414 . S
C4626 C4627 1.374 . S
C4627 H4607 0.950 . S
C4627 C4623 1.385 . S
C4627 C4626 1.374 . S
C4628 C4625 1.499 . S
C4628 C4629 1.373 1_455 S
C4628 C4630 1.389 . S
C4629 H4608 0.950 . S
C4629 C4628 1.373 1_655 S
C4629 C4645 1.377 . S
C4630 C4628 1.389 . S
C4630 C4631 1.524 . S
C4630 C4644 1.377 . S
C4631 C4630 1.524 . S
C4631 C4632 1.397 . S
C4631 C4636 1.363 . S
C4632 H4609 0.950 . S
C4632 C4631 1.397 . S
C4632 C4633 1.334 . S
C4633 H4610 0.950 . S
C4633 C4632 1.334 . S
C4633 C4634 1.287 . S
C4634 C4633 1.287 . S
C4634 C4635 1.524 . S
C4634 H4653 0.913 . S
C4635 H4611 0.950 . S
C4635 C4634 1.524 . S
C4635 C4636 1.415 . S
C4636 H4612 0.950 1_455 S
C4636 C4631 1.363 . S
C4636 C4635 1.415 . S
C4637 H4613 0.951 . S
C4637 C4638 1.366 1_455 S
C4637 C4639 1.388 . S
C4638 C4637 1.366 1_655 S
C4638 C4642 1.385 . S
C4639 H4614 0.951 . S
C4639 C4637 1.388 . S
C4639 C4640 1.366 1_455 S
C4640 C4639 1.366 1_655 S
C4640 C4641 1.414 . S
C4640 C4643 1.499 . S
C4641 H4615 0.950 . S
C4641 C4640 1.414 . S
C4641 C4642 1.374 . S
C4642 H4616 0.950 . S
C4642 C4638 1.385 . S
C4642 C4641 1.374 . S
C4643 C4640 1.499 . S
C4643 C4644 1.373 1_655 S
C4643 C4645 1.389 . S
C4644 H4617 0.950 . S
C4644 C4630 1.377 . S
C4644 C4643 1.373 1_455 S
C4645 C4629 1.377 . S
C4645 C4643 1.389 . S
C4645 C4646 1.524 . S
C4646 C4645 1.524 . S
C4646 C4647 1.397 . S
C4646 C4651 1.363 . S
C4647 H4618 0.950 . S
C4647 C4646 1.397 . S
C4647 C4648 1.334 . S
C4648 H4619 0.950 . S
C4648 C4647 1.334 . S
C4648 C4649 1.287 . S
C4649 C4648 1.287 . S
C4649 C4650 1.524 . S
C4649 H4652 0.999 . S
C4650 H4620 0.950 . S
C4650 C4649 1.524 . S
C4650 C4651 1.415 . S
C4651 H4621 0.950 1_655 S
C4651 C4646 1.363 . S
C4651 C4650 1.415 . S
H4652 C4649 0.999 . S
H4653 C4634 0.913 . S
H4654 C4672 0.951 . S
H4655 C4674 0.951 . S
H4656 C4676 0.950 . S
H4657 C4677 0.950 . S
H4658 C4679 0.950 . S
H4659 C4682 0.950 . S
H4660 C4683 0.950 . S
H4661 C4685 0.950 . S
H4662 C4686 0.950 . S
H4663 C4687 0.951 . S
H4664 C4689 0.951 . S
H4665 C4691 0.950 . S
H4666 C4692 0.950 . S
H4667 C4694 0.950 . S
H4668 C4697 0.950 . S
H4669 C4698 0.950 . S
H4670 C4700 0.950 . S
H4671 C4701 0.950 . S
C4672 H4654 0.951 . S
C4672 C4673 1.366 . S
C4672 C4674 1.388 . S
C4673 C4672 1.366 . S
C4673 C4677 1.385 . S
C4674 H4655 0.951 . S
C4674 C4672 1.388 . S
C4674 C4675 1.366 . S
C4675 C4674 1.366 . S
C4675 C4676 1.414 . S
C4675 C4678 1.499 . S
C4676 H4656 0.950 . S
C4676 C4675 1.414 . S
C4676 C4677 1.374 . S
C4677 H4657 0.950 . S
C4677 C4673 1.385 . S
C4677 C4676 1.374 . S
C4678 C4675 1.499 . S
C4678 C4679 1.373 . S
C4678 C4680 1.389 . S
C4679 H4658 0.950 . S
C4679 C4678 1.373 . S
C4679 C4695 1.377 . S
C4680 C4678 1.389 . S
C4680 C4681 1.524 . S
C4680 C4694 1.377 . S
C4681 C4680 1.524 . S
C4681 C4682 1.397 . S
C4681 C4686 1.363 . S
C4682 H4659 0.950 . S
C4682 C4681 1.397 . S
C4682 C4683 1.334 . S
C4683 H4660 0.950 . S
C4683 C4682 1.334 . S
C4683 C4684 1.287 . S
C4684 C4683 1.287 . S
C4684 C4685 1.524 . S
C4684 H4703 0.913 . S
C4685 H4661 0.950 . S
C4685 C4684 1.524 . S
C4685 C4686 1.415 . S
C4686 H4662 0.950 . S
C4686 C4681 1.363 . S
C4686 C4685 1.415 . S
C4687 H4663 0.951 . S
C4687 C4688 1.366 . S
C4687 C4689 1.388 . S
C4688 C4687 1.366 . S
C4688 C4692 1.385 . S
C4689 H4664 0.951 . S
C4689 C4687 1.388 . S
C4689 C4690 1.366 . S
C4690 C4689 1.366 . S
C4690 C4691 1.414 . S
C4690 C4693 1.499 . S
C4691 H4665 0.950 . S
C4691 C4690 1.414 . S
C4691 C4692 1.374 . S
C4692 H4666 0.950 . S
C4692 C4688 1.385 . S
C4692 C4691 1.374 . S
C4693 C4690 1.499 . S
C4693 C4694 1.373 . S
C4693 C4695 1.389 . S
C4694 H4667 0.950 . S
C4694 C4680 1.377 . S
C4694 C4693 1.373 . S
C4695 C4679 1.377 . S
C4695 C4693 1.389 . S
C4695 C4696 1.524 . S
C4696 C4695 1.524 . S
C4696 C4697 1.397 . S
C4696 C4701 1.363 . S
C4697 H4668 0.950 . S
C4697 C4696 1.397 . S
C4697 C4698 1.334 . S
C4698 H4669 0.950 . S
C4698 C4697 1.334 . S
C4698 C4699 1.287 . S
C4699 C4698 1.287 . S
C4699 C4700 1.524 . S
C4699 H4702 0.999 . S
C4700 H4670 0.950 . S
C4700 C4699 1.524 . S
C4700 C4701 1.415 . S
C4701 H4671 0.950 . S
C4701 C4696 1.363 . S
C4701 C4700 1.415 . S
H4702 C4699 0.999 . S
H4703 C4684 0.913 . S
H4704 C4722 0.951 . S
H4705 C4724 0.951 . S
H4706 C4726 0.950 . S
H4707 C4727 0.950 . S
H4708 C4729 0.950 . S
H4709 C4732 0.950 . S
H4710 C4733 0.950 . S
H4711 C4735 0.950 . S
H4712 C4736 0.950 . S
H4713 C4737 0.951 . S
H4714 C4739 0.951 . S
H4715 C4741 0.950 . S
H4716 C4742 0.950 . S
H4717 C4744 0.950 . S
H4718 C4747 0.950 . S
H4719 C4748 0.950 . S
H4720 C4750 0.950 . S
H4721 C4751 0.950 . S
C4722 H4704 0.951 . S
C4722 C4723 1.366 . S
C4722 C4724 1.388 . S
C4723 C4722 1.366 . S
C4723 C4727 1.385 . S
C4724 H4705 0.951 . S
C4724 C4722 1.388 . S
C4724 C4725 1.366 . S
C4725 C4724 1.366 . S
C4725 C4726 1.414 . S
C4725 C4728 1.499 . S
C4726 H4706 0.950 . S
C4726 C4725 1.414 . S
C4726 C4727 1.374 . S
C4727 H4707 0.950 . S
C4727 C4723 1.385 . S
C4727 C4726 1.374 . S
C4728 C4725 1.499 . S
C4728 C4729 1.373 . S
C4728 C4730 1.389 . S
C4729 H4708 0.950 . S
C4729 C4728 1.373 . S
C4729 C4745 1.377 . S
C4730 C4728 1.389 . S
C4730 C4731 1.524 . S
C4730 C4744 1.377 . S
C4731 C4730 1.524 . S
C4731 C4732 1.397 . S
C4731 C4736 1.363 . S
C4732 H4709 0.950 . S
C4732 C4731 1.397 . S
C4732 C4733 1.334 . S
C4733 H4710 0.950 . S
C4733 C4732 1.334 . S
C4733 C4734 1.287 . S
C4734 C4733 1.287 . S
C4734 C4735 1.524 . S
C4734 H4753 0.913 . S
C4735 H4711 0.950 . S
C4735 C4734 1.524 . S
C4735 C4736 1.415 . S
C4736 H4712 0.950 . S
C4736 C4731 1.363 . S
C4736 C4735 1.415 . S
C4737 H4713 0.951 . S
C4737 C4738 1.366 . S
C4737 C4739 1.388 . S
C4738 C4737 1.366 . S
C4738 C4742 1.385 . S
C4739 H4714 0.951 . S
C4739 C4737 1.388 . S
C4739 C4740 1.366 . S
C4740 C4739 1.366 . S
C4740 C4741 1.414 . S
C4740 C4743 1.499 . S
C4741 H4715 0.950 . S
C4741 C4740 1.414 . S
C4741 C4742 1.374 . S
C4742 H4716 0.950 . S
C4742 C4738 1.385 . S
C4742 C4741 1.374 . S
C4743 C4740 1.499 . S
C4743 C4744 1.373 . S
C4743 C4745 1.389 . S
C4744 H4717 0.950 . S
C4744 C4730 1.377 . S
C4744 C4743 1.373 . S
C4745 C4729 1.377 . S
C4745 C4743 1.389 . S
C4745 C4746 1.524 . S
C4746 C4745 1.524 . S
C4746 C4747 1.397 . S
C4746 C4751 1.363 . S
C4747 H4718 0.950 . S
C4747 C4746 1.397 . S
C4747 C4748 1.334 . S
C4748 H4719 0.950 . S
C4748 C4747 1.334 . S
C4748 C4749 1.287 . S
C4749 C4748 1.287 . S
C4749 C4750 1.524 . S
C4749 H4752 0.999 . S
C4750 H4720 0.950 . S
C4750 C4749 1.524 . S
C4750 C4751 1.415 . S
C4751 H4721 0.950 . S
C4751 C4746 1.363 . S
C4751 C4750 1.415 . S
H4752 C4749 0.999 . S
H4753 C4734 0.913 . S
H4754 C4772 0.951 . S
H4755 C4774 0.951 . S
H4756 C4776 0.950 . S
H4757 C4777 0.950 . S
H4758 C4779 0.950 . S
H4759 C4782 0.950 . S
H4760 C4783 0.950 . S
H4761 C4785 0.950 . S
H4762 C4786 0.950 . S
H4763 C4787 0.951 . S
H4764 C4789 0.951 . S
H4765 C4791 0.950 . S
H4766 C4792 0.950 . S
H4767 C4794 0.950 . S
H4768 C4797 0.950 . S
H4769 C4798 0.950 . S
H4770 C4800 0.950 . S
H4771 C4801 0.950 . S
C4772 H4754 0.951 . S
C4772 C4773 1.366 . S
C4772 C4774 1.388 . S
C4773 C4772 1.366 . S
C4773 C4777 1.385 . S
C4774 H4755 0.951 . S
C4774 C4772 1.388 . S
C4774 C4775 1.366 . S
C4775 C4774 1.366 . S
C4775 C4776 1.414 . S
C4775 C4778 1.499 . S
C4776 H4756 0.950 . S
C4776 C4775 1.414 . S
C4776 C4777 1.374 . S
C4777 H4757 0.950 . S
C4777 C4773 1.385 . S
C4777 C4776 1.374 . S
C4778 C4775 1.499 . S
C4778 C4779 1.373 . S
C4778 C4780 1.389 . S
C4779 H4758 0.950 . S
C4779 C4778 1.373 . S
C4779 C4795 1.377 . S
C4780 C4778 1.389 . S
C4780 C4781 1.524 . S
C4780 C4794 1.377 . S
C4781 C4780 1.524 . S
C4781 C4782 1.397 . S
C4781 C4786 1.363 . S
C4782 H4759 0.950 . S
C4782 C4781 1.397 . S
C4782 C4783 1.334 . S
C4783 H4760 0.950 . S
C4783 C4782 1.334 . S
C4783 C4784 1.287 . S
C4784 C4783 1.287 . S
C4784 C4785 1.524 . S
C4784 H4803 0.913 . S
C4785 H4761 0.950 . S
C4785 C4784 1.524 . S
C4785 C4786 1.415 . S
C4786 H4762 0.950 . S
C4786 C4781 1.363 . S
C4786 C4785 1.415 . S
C4787 H4763 0.951 . S
C4787 C4788 1.366 . S
C4787 C4789 1.388 . S
C4788 C4787 1.366 . S
C4788 C4792 1.385 . S
C4789 H4764 0.951 . S
C4789 C4787 1.388 . S
C4789 C4790 1.366 . S
C4790 C4789 1.366 . S
C4790 C4791 1.414 . S
C4790 C4793 1.499 . S
C4791 H4765 0.950 . S
C4791 C4790 1.414 . S
C4791 C4792 1.374 . S
C4792 H4766 0.950 . S
C4792 C4788 1.385 . S
C4792 C4791 1.374 . S
C4793 C4790 1.499 . S
C4793 C4794 1.373 . S
C4793 C4795 1.389 . S
C4794 H4767 0.950 . S
C4794 C4780 1.377 . S
C4794 C4793 1.373 . S
C4795 C4779 1.377 . S
C4795 C4793 1.389 . S
C4795 C4796 1.524 . S
C4796 C4795 1.524 . S
C4796 C4797 1.397 . S
C4796 C4801 1.363 . S
C4797 H4768 0.950 . S
C4797 C4796 1.397 . S
C4797 C4798 1.334 . S
C4798 H4769 0.950 . S
C4798 C4797 1.334 . S
C4798 C4799 1.287 . S
C4799 C4798 1.287 . S
C4799 C4800 1.524 . S
C4799 H4802 0.999 . S
C4800 H4770 0.950 . S
C4800 C4799 1.524 . S
C4800 C4801 1.415 . S
C4801 H4771 0.950 . S
C4801 C4796 1.363 . S
C4801 C4800 1.415 . S
H4802 C4799 0.999 . S
H4803 C4784 0.913 . S
H4804 C4822 0.951 . S
H4805 C4824 0.951 . S
H4806 C4826 0.950 . S
H4807 C4827 0.950 . S
H4808 C4829 0.950 . S
H4809 C4832 0.950 . S
H4810 C4833 0.950 . S
H4811 C4835 0.950 . S
H4812 C4836 0.950 . S
H4813 C4837 0.951 . S
H4814 C4839 0.951 . S
H4815 C4841 0.950 . S
H4816 C4842 0.950 . S
H4817 C4844 0.950 . S
H4818 C4847 0.950 . S
H4819 C4848 0.950 . S
H4820 C4850 0.950 . S
H4821 C4851 0.950 . S
C4822 H4804 0.951 . S
C4822 C4823 1.366 . S
C4822 C4824 1.388 . S
C4823 C4822 1.366 . S
C4823 C4827 1.385 . S
C4824 H4805 0.951 . S
C4824 C4822 1.388 . S
C4824 C4825 1.366 . S
C4825 C4824 1.366 . S
C4825 C4826 1.414 . S
C4825 C4828 1.499 . S
C4826 H4806 0.950 . S
C4826 C4825 1.414 . S
C4826 C4827 1.374 . S
C4827 H4807 0.950 . S
C4827 C4823 1.385 . S
C4827 C4826 1.374 . S
C4828 C4825 1.499 . S
C4828 C4829 1.373 . S
C4828 C4830 1.389 . S
C4829 H4808 0.950 . S
C4829 C4828 1.373 . S
C4829 C4845 1.377 . S
C4830 C4828 1.389 . S
C4830 C4831 1.524 . S
C4830 C4844 1.377 . S
C4831 C4830 1.524 . S
C4831 C4832 1.397 . S
C4831 C4836 1.363 . S
C4832 H4809 0.950 . S
C4832 C4831 1.397 . S
C4832 C4833 1.334 . S
C4833 H4810 0.950 . S
C4833 C4832 1.334 . S
C4833 C4834 1.287 . S
C4834 C4833 1.287 . S
C4834 C4835 1.524 . S
C4834 H4853 0.913 . S
C4835 H4811 0.950 . S
C4835 C4834 1.524 . S
C4835 C4836 1.415 . S
C4836 H4812 0.950 . S
C4836 C4831 1.363 . S
C4836 C4835 1.415 . S
C4837 H4813 0.951 . S
C4837 C4838 1.366 . S
C4837 C4839 1.388 . S
C4838 C4837 1.366 . S
C4838 C4842 1.385 . S
C4839 H4814 0.951 . S
C4839 C4837 1.388 . S
C4839 C4840 1.366 . S
C4840 C4839 1.366 . S
C4840 C4841 1.414 . S
C4840 C4843 1.499 . S
C4841 H4815 0.950 . S
C4841 C4840 1.414 . S
C4841 C4842 1.374 . S
C4842 H4816 0.950 . S
C4842 C4838 1.385 . S
C4842 C4841 1.374 . S
C4843 C4840 1.499 . S
C4843 C4844 1.373 . S
C4843 C4845 1.389 . S
C4844 H4817 0.950 . S
C4844 C4830 1.377 . S
C4844 C4843 1.373 . S
C4845 C4829 1.377 . S
C4845 C4843 1.389 . S
C4845 C4846 1.524 . S
C4846 C4845 1.524 . S
C4846 C4847 1.397 . S
C4846 C4851 1.363 . S
C4847 H4818 0.950 . S
C4847 C4846 1.397 . S
C4847 C4848 1.334 . S
C4848 H4819 0.950 . S
C4848 C4847 1.334 . S
C4848 C4849 1.287 . S
C4849 C4848 1.287 . S
C4849 C4850 1.524 . S
C4849 H4852 0.999 . S
C4850 H4820 0.950 . S
C4850 C4849 1.524 . S
C4850 C4851 1.415 . S
C4851 H4821 0.950 . S
C4851 C4846 1.363 . S
C4851 C4850 1.415 . S
H4852 C4849 0.999 . S
H4853 C4834 0.913 . S
H4854 C4872 0.951 . S
H4855 C4874 0.951 . S
H4856 C4876 0.950 . S
H4857 C4877 0.950 . S
H4858 C4879 0.950 . S
H4859 C4882 0.950 . S
H4860 C4883 0.950 . S
H4861 C4885 0.950 . S
H4862 C4886 0.950 . S
H4863 C4887 0.951 . S
H4864 C4889 0.951 . S
H4865 C4891 0.950 . S
H4866 C4892 0.950 . S
H4867 C4894 0.950 . S
H4868 C4897 0.950 . S
H4869 C4898 0.950 . S
H4870 C4900 0.950 . S
H4871 C4901 0.950 . S
C4872 H4854 0.951 . S
C4872 C4873 1.366 . S
C4872 C4874 1.388 . S
C4873 C4872 1.366 . S
C4873 C4877 1.385 . S
C4874 H4855 0.951 . S
C4874 C4872 1.388 . S
C4874 C4875 1.366 . S
C4875 C4874 1.366 . S
C4875 C4876 1.414 . S
C4875 C4878 1.499 . S
C4876 H4856 0.950 . S
C4876 C4875 1.414 . S
C4876 C4877 1.374 . S
C4877 H4857 0.950 . S
C4877 C4873 1.385 . S
C4877 C4876 1.374 . S
C4878 C4875 1.499 . S
C4878 C4879 1.373 . S
C4878 C4880 1.389 . S
C4879 H4858 0.950 . S
C4879 C4878 1.373 . S
C4879 C4895 1.377 . S
C4880 C4878 1.389 . S
C4880 C4881 1.524 . S
C4880 C4894 1.377 . S
C4881 C4880 1.524 . S
C4881 C4882 1.397 . S
C4881 C4886 1.363 . S
C4882 H4859 0.950 . S
C4882 C4881 1.397 . S
C4882 C4883 1.334 . S
C4883 H4860 0.950 . S
C4883 C4882 1.334 . S
C4883 C4884 1.287 . S
C4884 C4883 1.287 . S
C4884 C4885 1.524 . S
C4884 H4903 0.913 . S
C4885 H4861 0.950 . S
C4885 C4884 1.524 . S
C4885 C4886 1.415 . S
C4886 H4862 0.950 . S
C4886 C4881 1.363 . S
C4886 C4885 1.415 . S
C4887 H4863 0.951 . S
C4887 C4888 1.366 . S
C4887 C4889 1.388 . S
C4888 C4887 1.366 . S
C4888 C4892 1.385 . S
C4889 H4864 0.951 . S
C4889 C4887 1.388 . S
C4889 C4890 1.366 . S
C4890 C4889 1.366 . S
C4890 C4891 1.414 . S
C4890 C4893 1.499 . S
C4891 H4865 0.950 . S
C4891 C4890 1.414 . S
C4891 C4892 1.374 . S
C4892 H4866 0.950 . S
C4892 C4888 1.385 . S
C4892 C4891 1.374 . S
C4893 C4890 1.499 . S
C4893 C4894 1.373 . S
C4893 C4895 1.389 . S
C4894 H4867 0.950 . S
C4894 C4880 1.377 . S
C4894 C4893 1.373 . S
C4895 C4879 1.377 . S
C4895 C4893 1.389 . S
C4895 C4896 1.524 . S
C4896 C4895 1.524 . S
C4896 C4897 1.397 . S
C4896 C4901 1.363 . S
C4897 H4868 0.950 . S
C4897 C4896 1.397 . S
C4897 C4898 1.334 . S
C4898 H4869 0.950 . S
C4898 C4897 1.334 . S
C4898 C4899 1.287 . S
C4899 C4898 1.287 . S
C4899 C4900 1.524 . S
C4899 H4902 0.999 . S
C4900 H4870 0.950 . S
C4900 C4899 1.524 . S
C4900 C4901 1.415 . S
C4901 H4871 0.950 . S
C4901 C4896 1.363 . S
C4901 C4900 1.415 . S
H4902 C4899 0.999 . S
H4903 C4884 0.913 . S
H4904 C4922 0.951 . S
H4905 C4924 0.951 . S
H4906 C4926 0.950 . S
H4907 C4927 0.950 . S
H4908 C4929 0.950 . S
H4909 C4932 0.950 . S
H4910 C4933 0.950 . S
H4911 C4935 0.950 . S
H4912 C4936 0.950 . S
H4913 C4937 0.951 . S
H4914 C4939 0.951 . S
H4915 C4941 0.950 . S
H4916 C4942 0.950 . S
H4917 C4944 0.950 . S
H4918 C4947 0.950 . S
H4919 C4948 0.950 . S
H4920 C4950 0.950 . S
H4921 C4951 0.950 . S
C4922 H4904 0.951 . S
C4922 C4923 1.366 . S
C4922 C4924 1.388 . S
C4923 C4922 1.366 . S
C4923 C4927 1.385 . S
C4924 H4905 0.951 . S
C4924 C4922 1.388 . S
C4924 C4925 1.366 . S
C4925 C4924 1.366 . S
C4925 C4926 1.414 . S
C4925 C4928 1.499 . S
C4926 H4906 0.950 . S
C4926 C4925 1.414 . S
C4926 C4927 1.374 . S
C4927 H4907 0.950 . S
C4927 C4923 1.385 . S
C4927 C4926 1.374 . S
C4928 C4925 1.499 . S
C4928 C4929 1.373 . S
C4928 C4930 1.389 . S
C4929 H4908 0.950 . S
C4929 C4928 1.373 . S
C4929 C4945 1.377 . S
C4930 C4928 1.389 . S
C4930 C4931 1.524 . S
C4930 C4944 1.377 . S
C4931 C4930 1.524 . S
C4931 C4932 1.397 . S
C4931 C4936 1.363 . S
C4932 H4909 0.950 . S
C4932 C4931 1.397 . S
C4932 C4933 1.334 . S
C4933 H4910 0.950 . S
C4933 C4932 1.334 . S
C4933 C4934 1.287 . S
C4934 C4933 1.287 . S
C4934 C4935 1.524 . S
C4934 H4953 0.913 . S
C4935 H4911 0.950 . S
C4935 C4934 1.524 . S
C4935 C4936 1.415 . S
C4936 H4912 0.950 . S
C4936 C4931 1.363 . S
C4936 C4935 1.415 . S
C4937 H4913 0.951 . S
C4937 C4938 1.366 . S
C4937 C4939 1.388 . S
C4938 C4937 1.366 . S
C4938 C4942 1.385 . S
C4939 H4914 0.951 . S
C4939 C4937 1.388 . S
C4939 C4940 1.366 . S
C4940 C4939 1.366 . S
C4940 C4941 1.414 . S
C4940 C4943 1.499 . S
C4941 H4915 0.950 . S
C4941 C4940 1.414 . S
C4941 C4942 1.374 . S
C4942 H4916 0.950 . S
C4942 C4938 1.385 . S
C4942 C4941 1.374 . S
C4943 C4940 1.499 . S
C4943 C4944 1.373 . S
C4943 C4945 1.389 . S
C4944 H4917 0.950 . S
C4944 C4930 1.377 . S
C4944 C4943 1.373 . S
C4945 C4929 1.377 . S
C4945 C4943 1.389 . S
C4945 C4946 1.524 . S
C4946 C4945 1.524 . S
C4946 C4947 1.397 . S
C4946 C4951 1.363 . S
C4947 H4918 0.950 . S
C4947 C4946 1.397 . S
C4947 C4948 1.334 . S
C4948 H4919 0.950 . S
C4948 C4947 1.334 . S
C4948 C4949 1.287 . S
C4949 C4948 1.287 . S
C4949 C4950 1.524 . S
C4949 H4952 0.999 . S
C4950 H4920 0.950 . S
C4950 C4949 1.524 . S
C4950 C4951 1.415 . S
C4951 H4921 0.950 . S
C4951 C4946 1.363 . S
C4951 C4950 1.415 . S
H4952 C4949 0.999 . S
H4953 C4934 0.913 . S
H4954 C4972 0.951 . S
H4955 C4974 0.951 . S
H4956 C4976 0.950 . S
H4957 C4977 0.950 . S
H4958 C4979 0.950 . S
H4959 C4982 0.950 . S
H4960 C4983 0.950 . S
H4961 C4985 0.950 . S
H4962 C4986 0.950 . S
H4963 C4987 0.951 . S
H4964 C4989 0.951 . S
H4965 C4991 0.950 . S
H4966 C4992 0.950 . S
H4967 C4994 0.950 . S
H4968 C4997 0.950 . S
H4969 C4998 0.950 . S
H4970 C5000 0.950 . S
H4971 C5001 0.950 . S
C4972 H4954 0.951 . S
C4972 C4973 1.366 . S
C4972 C4974 1.388 . S
C4973 C4972 1.366 . S
C4973 C4977 1.385 . S
C4974 H4955 0.951 . S
C4974 C4972 1.388 . S
C4974 C4975 1.366 . S
C4975 C4974 1.366 . S
C4975 C4976 1.414 . S
C4975 C4978 1.499 . S
C4976 H4956 0.950 . S
C4976 C4975 1.414 . S
C4976 C4977 1.374 . S
C4977 H4957 0.950 . S
C4977 C4973 1.385 . S
C4977 C4976 1.374 . S
C4978 C4975 1.499 . S
C4978 C4979 1.373 . S
C4978 C4980 1.389 . S
C4979 H4958 0.950 . S
C4979 C4978 1.373 . S
C4979 C4995 1.377 . S
C4980 C4978 1.389 . S
C4980 C4981 1.524 . S
C4980 C4994 1.377 . S
C4981 C4980 1.524 . S
C4981 C4982 1.397 . S
C4981 C4986 1.363 . S
C4982 H4959 0.950 . S
C4982 C4981 1.397 . S
C4982 C4983 1.334 . S
C4983 H4960 0.950 . S
C4983 C4982 1.334 . S
C4983 C4984 1.287 . S
C4984 C4983 1.287 . S
C4984 C4985 1.524 . S
C4984 H5003 0.913 . S
C4985 H4961 0.950 . S
C4985 C4984 1.524 . S
C4985 C4986 1.415 . S
C4986 H4962 0.950 . S
C4986 C4981 1.363 . S
C4986 C4985 1.415 . S
C4987 H4963 0.951 . S
C4987 C4988 1.366 . S
C4987 C4989 1.388 . S
C4988 C4987 1.366 . S
C4988 C4992 1.385 . S
C4989 H4964 0.951 . S
C4989 C4987 1.388 . S
C4989 C4990 1.366 . S
C4990 C4989 1.366 . S
C4990 C4991 1.414 . S
C4990 C4993 1.499 . S
C4991 H4965 0.950 . S
C4991 C4990 1.414 . S
C4991 C4992 1.374 . S
C4992 H4966 0.950 . S
C4992 C4988 1.385 . S
C4992 C4991 1.374 . S
C4993 C4990 1.499 . S
C4993 C4994 1.373 . S
C4993 C4995 1.389 . S
C4994 H4967 0.950 . S
C4994 C4980 1.377 . S
C4994 C4993 1.373 . S
C4995 C4979 1.377 . S
C4995 C4993 1.389 . S
C4995 C4996 1.524 . S
C4996 C4995 1.524 . S
C4996 C4997 1.397 . S
C4996 C5001 1.363 . S
C4997 H4968 0.950 . S
C4997 C4996 1.397 . S
C4997 C4998 1.334 . S
C4998 H4969 0.950 . S
C4998 C4997 1.334 . S
C4998 C4999 1.287 . S
C4999 C4998 1.287 . S
C4999 C5000 1.524 . S
C4999 H5002 0.999 . S
C5000 H4970 0.950 . S
C5000 C4999 1.524 . S
C5000 C5001 1.415 . S
C5001 H4971 0.950 . S
C5001 C4996 1.363 . S
C5001 C5000 1.415 . S
H5002 C4999 0.999 . S
H5003 C4984 0.913 . S
H5004 C5022 0.951 . S
H5005 C5024 0.951 . S
H5006 C5026 0.950 . S
H5007 C5027 0.950 . S
H5008 C5029 0.950 . S
H5009 C5032 0.950 . S
H5010 C5033 0.950 . S
H5011 C5035 0.950 . S
H5012 C5036 0.950 . S
H5013 C5037 0.951 . S
H5014 C5039 0.951 . S
H5015 C5041 0.950 . S
H5016 C5042 0.950 . S
H5017 C5044 0.950 . S
H5018 C5047 0.950 . S
H5019 C5048 0.950 . S
H5020 C5050 0.950 . S
H5021 C5051 0.950 . S
C5022 H5004 0.951 . S
C5022 C5023 1.366 . S
C5022 C5024 1.388 . S
C5023 C5022 1.366 . S
C5023 C5027 1.385 . S
C5024 H5005 0.951 . S
C5024 C5022 1.388 . S
C5024 C5025 1.366 . S
C5025 C5024 1.366 . S
C5025 C5026 1.414 . S
C5025 C5028 1.499 . S
C5026 H5006 0.950 . S
C5026 C5025 1.414 . S
C5026 C5027 1.374 . S
C5027 H5007 0.950 . S
C5027 C5023 1.385 . S
C5027 C5026 1.374 . S
C5028 C5025 1.499 . S
C5028 C5029 1.373 . S
C5028 C5030 1.389 . S
C5029 H5008 0.950 . S
C5029 C5028 1.373 . S
C5029 C5045 1.377 . S
C5030 C5028 1.389 . S
C5030 C5031 1.524 . S
C5030 C5044 1.377 . S
C5031 C5030 1.524 . S
C5031 C5032 1.397 . S
C5031 C5036 1.363 . S
C5032 H5009 0.950 . S
C5032 C5031 1.397 . S
C5032 C5033 1.334 . S
C5033 H5010 0.950 . S
C5033 C5032 1.334 . S
C5033 C5034 1.287 . S
C5034 C5033 1.287 . S
C5034 C5035 1.524 . S
C5034 H5053 0.913 . S
C5035 H5011 0.950 . S
C5035 C5034 1.524 . S
C5035 C5036 1.415 . S
C5036 H5012 0.950 . S
C5036 C5031 1.363 . S
C5036 C5035 1.415 . S
C5037 H5013 0.951 . S
C5037 C5038 1.366 . S
C5037 C5039 1.388 . S
C5038 C5037 1.366 . S
C5038 C5042 1.385 . S
C5039 H5014 0.951 . S
C5039 C5037 1.388 . S
C5039 C5040 1.366 . S
C5040 C5039 1.366 . S
C5040 C5041 1.414 . S
C5040 C5043 1.499 . S
C5041 H5015 0.950 . S
C5041 C5040 1.414 . S
C5041 C5042 1.374 . S
C5042 H5016 0.950 . S
C5042 C5038 1.385 . S
C5042 C5041 1.374 . S
C5043 C5040 1.499 . S
C5043 C5044 1.373 . S
C5043 C5045 1.389 . S
C5044 H5017 0.950 . S
C5044 C5030 1.377 . S
C5044 C5043 1.373 . S
C5045 C5029 1.377 . S
C5045 C5043 1.389 . S
C5045 C5046 1.524 . S
C5046 C5045 1.524 . S
C5046 C5047 1.397 . S
C5046 C5051 1.363 . S
C5047 H5018 0.950 . S
C5047 C5046 1.397 . S
C5047 C5048 1.334 . S
C5048 H5019 0.950 . S
C5048 C5047 1.334 . S
C5048 C5049 1.287 . S
C5049 C5048 1.287 . S
C5049 C5050 1.524 . S
C5049 H5052 0.999 . S
C5050 H5020 0.950 . S
C5050 C5049 1.524 . S
C5050 C5051 1.415 . S
C5051 H5021 0.950 . S
C5051 C5046 1.363 . S
C5051 C5050 1.415 . S
H5052 C5049 0.999 . S
H5053 C5034 0.913 . S
H5054 C5072 0.951 . S
H5055 C5074 0.951 . S
H5056 C5076 0.950 . S
H5057 C5077 0.950 . S
H5058 C5079 0.950 . S
H5059 C5082 0.950 . S
H5060 C5083 0.950 . S
H5061 C5085 0.950 . S
H5062 C5086 0.950 . S
H5063 C5087 0.951 . S
H5064 C5089 0.951 . S
H5065 C5091 0.950 . S
H5066 C5092 0.950 . S
H5067 C5094 0.950 . S
H5068 C5097 0.950 . S
H5069 C5098 0.950 . S
H5070 C5100 0.950 . S
H5071 C5101 0.950 . S
C5072 H5054 0.951 . S
C5072 C5073 1.366 . S
C5072 C5074 1.388 . S
C5073 C5072 1.366 . S
C5073 C5077 1.385 . S
C5074 H5055 0.951 . S
C5074 C5072 1.388 . S
C5074 C5075 1.366 . S
C5075 C5074 1.366 . S
C5075 C5076 1.414 . S
C5075 C5078 1.499 . S
C5076 H5056 0.950 . S
C5076 C5075 1.414 . S
C5076 C5077 1.374 . S
C5077 H5057 0.950 . S
C5077 C5073 1.385 . S
C5077 C5076 1.374 . S
C5078 C5075 1.499 . S
C5078 C5079 1.373 . S
C5078 C5080 1.389 . S
C5079 H5058 0.950 . S
C5079 C5078 1.373 . S
C5079 C5095 1.377 . S
C5080 C5078 1.389 . S
C5080 C5081 1.524 . S
C5080 C5094 1.377 . S
C5081 C5080 1.524 . S
C5081 C5082 1.397 . S
C5081 C5086 1.363 . S
C5082 H5059 0.950 . S
C5082 C5081 1.397 . S
C5082 C5083 1.334 . S
C5083 H5060 0.950 . S
C5083 C5082 1.334 . S
C5083 C5084 1.287 . S
C5084 C5083 1.287 . S
C5084 C5085 1.524 . S
C5084 H5103 0.913 . S
C5085 H5061 0.950 . S
C5085 C5084 1.524 . S
C5085 C5086 1.415 . S
C5086 H5062 0.950 . S
C5086 C5081 1.363 . S
C5086 C5085 1.415 . S
C5087 H5063 0.951 . S
C5087 C5088 1.366 . S
C5087 C5089 1.388 . S
C5088 C5087 1.366 . S
C5088 C5092 1.385 . S
C5089 H5064 0.951 . S
C5089 C5087 1.388 . S
C5089 C5090 1.366 . S
C5090 C5089 1.366 . S
C5090 C5091 1.414 . S
C5090 C5093 1.499 . S
C5091 H5065 0.950 . S
C5091 C5090 1.414 . S
C5091 C5092 1.374 . S
C5092 H5066 0.950 . S
C5092 C5088 1.385 . S
C5092 C5091 1.374 . S
C5093 C5090 1.499 . S
C5093 C5094 1.373 . S
C5093 C5095 1.389 . S
C5094 H5067 0.950 . S
C5094 C5080 1.377 . S
C5094 C5093 1.373 . S
C5095 C5079 1.377 . S
C5095 C5093 1.389 . S
C5095 C5096 1.524 . S
C5096 C5095 1.524 . S
C5096 C5097 1.397 . S
C5096 C5101 1.363 . S
C5097 H5068 0.950 . S
C5097 C5096 1.397 . S
C5097 C5098 1.334 . S
C5098 H5069 0.950 . S
C5098 C5097 1.334 . S
C5098 C5099 1.287 . S
C5099 C5098 1.287 . S
C5099 C5100 1.524 . S
C5099 H5102 0.999 . S
C5100 H5070 0.950 . S
C5100 C5099 1.524 . S
C5100 C5101 1.415 . S
C5101 H5071 0.950 . S
C5101 C5096 1.363 . S
C5101 C5100 1.415 . S
H5102 C5099 0.999 . S
H5103 C5084 0.913 . S
H5104 C5122 0.951 . S
H5105 C5124 0.951 . S
H5106 C5126 0.950 . S
H5107 C5127 0.950 . S
H5108 C5129 0.950 . S
H5109 C5132 0.950 . S
H5110 C5133 0.950 . S
H5111 C5135 0.950 . S
H5112 C5136 0.950 . S
H5113 C5137 0.951 . S
H5114 C5139 0.951 . S
H5115 C5141 0.950 . S
H5116 C5142 0.950 . S
H5117 C5144 0.950 . S
H5118 C5147 0.950 . S
H5119 C5148 0.950 . S
H5120 C5150 0.950 . S
H5121 C5151 0.950 . S
C5122 H5104 0.951 . S
C5122 C5123 1.366 . S
C5122 C5124 1.388 . S
C5123 C5122 1.366 . S
C5123 C5127 1.385 . S
C5124 H5105 0.951 . S
C5124 C5122 1.388 . S
C5124 C5125 1.366 . S
C5125 C5124 1.366 . S
C5125 C5126 1.414 . S
C5125 C5128 1.499 . S
C5126 H5106 0.950 . S
C5126 C5125 1.414 . S
C5126 C5127 1.374 . S
C5127 H5107 0.950 . S
C5127 C5123 1.385 . S
C5127 C5126 1.374 . S
C5128 C5125 1.499 . S
C5128 C5129 1.373 . S
C5128 C5130 1.389 . S
C5129 H5108 0.950 . S
C5129 C5128 1.373 . S
C5129 C5145 1.377 . S
C5130 C5128 1.389 . S
C5130 C5131 1.524 . S
C5130 C5144 1.377 . S
C5131 C5130 1.524 . S
C5131 C5132 1.397 . S
C5131 C5136 1.363 . S
C5132 H5109 0.950 . S
C5132 C5131 1.397 . S
C5132 C5133 1.334 . S
C5133 H5110 0.950 . S
C5133 C5132 1.334 . S
C5133 C5134 1.287 . S
C5134 C5133 1.287 . S
C5134 C5135 1.524 . S
C5134 H5153 0.913 . S
C5135 H5111 0.950 . S
C5135 C5134 1.524 . S
C5135 C5136 1.415 . S
C5136 H5112 0.950 . S
C5136 C5131 1.363 . S
C5136 C5135 1.415 . S
C5137 H5113 0.951 . S
C5137 C5138 1.366 . S
C5137 C5139 1.388 . S
C5138 C5137 1.366 . S
C5138 C5142 1.385 . S
C5139 H5114 0.951 . S
C5139 C5137 1.388 . S
C5139 C5140 1.366 . S
C5140 C5139 1.366 . S
C5140 C5141 1.414 . S
C5140 C5143 1.499 . S
C5141 H5115 0.950 . S
C5141 C5140 1.414 . S
C5141 C5142 1.374 . S
C5142 H5116 0.950 . S
C5142 C5138 1.385 . S
C5142 C5141 1.374 . S
C5143 C5140 1.499 . S
C5143 C5144 1.373 . S
C5143 C5145 1.389 . S
C5144 H5117 0.950 . S
C5144 C5130 1.377 . S
C5144 C5143 1.373 . S
C5145 C5129 1.377 . S
C5145 C5143 1.389 . S
C5145 C5146 1.524 . S
C5146 C5145 1.524 . S
C5146 C5147 1.397 . S
C5146 C5151 1.363 . S
C5147 H5118 0.950 . S
C5147 C5146 1.397 . S
C5147 C5148 1.334 . S
C5148 H5119 0.950 . S
C5148 C5147 1.334 . S
C5148 C5149 1.287 . S
C5149 C5148 1.287 . S
C5149 C5150 1.524 . S
C5149 H5152 0.999 . S
C5150 H5120 0.950 . S
C5150 C5149 1.524 . S
C5150 C5151 1.415 . S
C5151 H5121 0.950 . S
C5151 C5146 1.363 . S
C5151 C5150 1.415 . S
H5152 C5149 0.999 . S
H5153 C5134 0.913 . S
H5154 C5172 0.951 . S
H5155 C5174 0.951 . S
H5156 C5176 0.950 . S
H5157 C5177 0.950 . S
H5158 C5179 0.950 . S
H5159 C5182 0.950 . S
H5160 C5183 0.950 . S
H5161 C5185 0.950 . S
H5162 C5186 0.950 . S
H5163 C5187 0.951 . S
H5164 C5189 0.951 . S
H5165 C5191 0.950 . S
H5166 C5192 0.950 . S
H5167 C5194 0.950 . S
H5168 C5197 0.950 . S
H5169 C5198 0.950 . S
H5170 C5200 0.950 . S
H5171 C5201 0.950 . S
C5172 H5154 0.951 . S
C5172 C5173 1.366 . S
C5172 C5174 1.388 . S
C5173 C5172 1.366 . S
C5173 C5177 1.385 . S
C5174 H5155 0.951 . S
C5174 C5172 1.388 . S
C5174 C5175 1.366 . S
C5175 C5174 1.366 . S
C5175 C5176 1.414 . S
C5175 C5178 1.499 . S
C5176 H5156 0.950 . S
C5176 C5175 1.414 . S
C5176 C5177 1.374 . S
C5177 H5157 0.950 . S
C5177 C5173 1.385 . S
C5177 C5176 1.374 . S
C5178 C5175 1.499 . S
C5178 C5179 1.373 . S
C5178 C5180 1.389 . S
C5179 H5158 0.950 . S
C5179 C5178 1.373 . S
C5179 C5195 1.377 . S
C5180 C5178 1.389 . S
C5180 C5181 1.524 . S
C5180 C5194 1.377 . S
C5181 C5180 1.524 . S
C5181 C5182 1.397 . S
C5181 C5186 1.363 . S
C5182 H5159 0.950 . S
C5182 C5181 1.397 . S
C5182 C5183 1.334 . S
C5183 H5160 0.950 . S
C5183 C5182 1.334 . S
C5183 C5184 1.287 . S
C5184 C5183 1.287 . S
C5184 C5185 1.524 . S
C5184 H5203 0.913 . S
C5185 H5161 0.950 . S
C5185 C5184 1.524 . S
C5185 C5186 1.415 . S
C5186 H5162 0.950 . S
C5186 C5181 1.363 . S
C5186 C5185 1.415 . S
C5187 H5163 0.951 . S
C5187 C5188 1.366 . S
C5187 C5189 1.388 . S
C5188 C5187 1.366 . S
C5188 C5192 1.385 . S
C5189 H5164 0.951 . S
C5189 C5187 1.388 . S
C5189 C5190 1.366 . S
C5190 C5189 1.366 . S
C5190 C5191 1.414 . S
C5190 C5193 1.499 . S
C5191 H5165 0.950 . S
C5191 C5190 1.414 . S
C5191 C5192 1.374 . S
C5192 H5166 0.950 . S
C5192 C5188 1.385 . S
C5192 C5191 1.374 . S
C5193 C5190 1.499 . S
C5193 C5194 1.373 . S
C5193 C5195 1.389 . S
C5194 H5167 0.950 . S
C5194 C5180 1.377 . S
C5194 C5193 1.373 . S
C5195 C5179 1.377 . S
C5195 C5193 1.389 . S
C5195 C5196 1.524 . S
C5196 C5195 1.524 . S
C5196 C5197 1.397 . S
C5196 C5201 1.363 . S
C5197 H5168 0.950 . S
C5197 C5196 1.397 . S
C5197 C5198 1.334 . S
C5198 H5169 0.950 . S
C5198 C5197 1.334 . S
C5198 C5199 1.287 . S
C5199 C5198 1.287 . S
C5199 C5200 1.524 . S
C5199 H5202 0.999 . S
C5200 H5170 0.950 . S
C5200 C5199 1.524 . S
C5200 C5201 1.415 . S
C5201 H5171 0.950 . S
C5201 C5196 1.363 . S
C5201 C5200 1.415 . S
H5202 C5199 0.999 . S
H5203 C5184 0.913 . S
H5204 C5222 0.951 . S
H5205 C5224 0.951 . S
H5206 C5226 0.950 . S
H5207 C5227 0.950 . S
H5208 C5229 0.950 . S
H5209 C5232 0.950 . S
H5210 C5233 0.950 . S
H5211 C5235 0.950 . S
H5212 C5236 0.950 . S
H5213 C5237 0.951 . S
H5214 C5239 0.951 . S
H5215 C5241 0.950 . S
H5216 C5242 0.950 . S
H5217 C5244 0.950 . S
H5218 C5247 0.950 . S
H5219 C5248 0.950 . S
H5220 C5250 0.950 . S
H5221 C5251 0.950 . S
C5222 H5204 0.951 . S
C5222 C5223 1.366 . S
C5222 C5224 1.388 . S
C5223 C5222 1.366 . S
C5223 C5227 1.385 . S
C5224 H5205 0.951 . S
C5224 C5222 1.388 . S
C5224 C5225 1.366 . S
C5225 C5224 1.366 . S
C5225 C5226 1.414 . S
C5225 C5228 1.499 . S
C5226 H5206 0.950 . S
C5226 C5225 1.414 . S
C5226 C5227 1.374 . S
C5227 H5207 0.950 . S
C5227 C5223 1.385 . S
C5227 C5226 1.374 . S
C5228 C5225 1.499 . S
C5228 C5229 1.373 . S
C5228 C5230 1.389 . S
C5229 H5208 0.950 . S
C5229 C5228 1.373 . S
C5229 C5245 1.377 . S
C5230 C5228 1.389 . S
C5230 C5231 1.524 . S
C5230 C5244 1.377 . S
C5231 C5230 1.524 . S
C5231 C5232 1.397 . S
C5231 C5236 1.363 . S
C5232 H5209 0.950 . S
C5232 C5231 1.397 . S
C5232 C5233 1.334 . S
C5233 H5210 0.950 . S
C5233 C5232 1.334 . S
C5233 C5234 1.287 . S
C5234 C5233 1.287 . S
C5234 C5235 1.524 . S
C5234 H5253 0.913 . S
C5235 H5211 0.950 . S
C5235 C5234 1.524 . S
C5235 C5236 1.415 . S
C5236 H5212 0.950 . S
C5236 C5231 1.363 . S
C5236 C5235 1.415 . S
C5237 H5213 0.951 . S
C5237 C5238 1.366 . S
C5237 C5239 1.388 . S
C5238 C5237 1.366 . S
C5238 C5242 1.385 . S
C5239 H5214 0.951 . S
C5239 C5237 1.388 . S
C5239 C5240 1.366 . S
C5240 C5239 1.366 . S
C5240 C5241 1.414 . S
C5240 C5243 1.499 . S
C5241 H5215 0.950 . S
C5241 C5240 1.414 . S
C5241 C5242 1.374 . S
C5242 H5216 0.950 . S
C5242 C5238 1.385 . S
C5242 C5241 1.374 . S
C5243 C5240 1.499 . S
C5243 C5244 1.373 . S
C5243 C5245 1.389 . S
C5244 H5217 0.950 . S
C5244 C5230 1.377 . S
C5244 C5243 1.373 . S
C5245 C5229 1.377 . S
C5245 C5243 1.389 . S
C5245 C5246 1.524 . S
C5246 C5245 1.524 . S
C5246 C5247 1.397 . S
C5246 C5251 1.363 . S
C5247 H5218 0.950 . S
C5247 C5246 1.397 . S
C5247 C5248 1.334 . S
C5248 H5219 0.950 . S
C5248 C5247 1.334 . S
C5248 C5249 1.287 . S
C5249 C5248 1.287 . S
C5249 C5250 1.524 . S
C5249 H5252 0.999 . S
C5250 H5220 0.950 . S
C5250 C5249 1.524 . S
C5250 C5251 1.415 . S
C5251 H5221 0.950 . S
C5251 C5246 1.363 . S
C5251 C5250 1.415 . S
H5252 C5249 0.999 . S
H5253 C5234 0.913 . S
H5254 C5272 0.951 . S
H5255 C5274 0.951 . S
H5256 C5276 0.950 . S
H5257 C5277 0.950 . S
H5258 C5279 0.950 . S
H5259 C5282 0.950 . S
H5260 C5283 0.950 . S
H5261 C5285 0.950 1_545 S
H5262 C5286 0.950 1_556 S
H5263 C5287 0.951 . S
H5264 C5289 0.951 . S
H5265 C5291 0.950 . S
H5266 C5292 0.950 . S
H5267 C5294 0.957 . S
H5268 C5297 0.950 . S
H5269 C5298 0.950 . S
H5270 C5300 0.950 . S
H5271 C5301 0.950 1_554 S
C5272 H5254 0.951 . S
C5272 C5273 1.366 1_556 S
C5272 C5274 1.388 . S
C5273 C5272 1.366 1_554 S
C5273 C5277 1.385 . S
C5274 H5255 0.951 . S
C5274 C5272 1.388 . S
C5274 C5275 1.366 1_556 S
C5275 C5274 1.366 1_554 S
C5275 C5276 1.414 . S
C5275 C5278 1.499 . S
C5276 H5256 0.950 . S
C5276 C5275 1.414 . S
C5276 C5277 1.374 . S
C5277 H5257 0.950 . S
C5277 C5273 1.385 . S
C5277 C5276 1.374 . S
C5278 C5275 1.499 . S
C5278 C5279 1.373 1_554 S
C5278 C5280 1.389 . S
C5279 H5258 0.950 . S
C5279 C5278 1.373 1_556 S
C5279 C5295 1.377 . S
C5280 C5278 1.389 . S
C5280 C5281 1.524 . S
C5280 C5294 1.384 . S
C5281 C5280 1.524 . S
C5281 C5282 1.397 . S
C5281 C5286 1.363 . S
C5282 H5259 0.950 . S
C5282 C5281 1.397 . S
C5282 C5283 1.334 . S
C5283 H5260 0.950 . S
C5283 C5282 1.334 . S
C5283 C5284 1.287 . S
C5284 C5283 1.287 . S
C5284 C5285 1.524 . S
C5284 H5303 0.913 . S
C5285 H5261 0.950 1_565 S
C5285 C5284 1.524 . S
C5285 C5286 1.415 . S
C5286 H5262 0.950 1_554 S
C5286 C5281 1.363 . S
C5286 C5285 1.415 . S
C5287 H5263 0.951 . S
C5287 C5288 1.366 1_554 S
C5287 C5289 1.388 . S
C5288 C5287 1.366 1_556 S
C5288 C5292 1.385 . S
C5289 H5264 0.951 . S
C5289 C5287 1.388 . S
C5289 C5290 1.366 1_554 S
C5290 C5289 1.366 1_556 S
C5290 C5291 1.414 . S
C5290 C5293 1.499 . S
C5291 H5265 0.950 . S
C5291 C5290 1.414 . S
C5291 C5292 1.374 . S
C5292 H5266 0.950 . S
C5292 C5288 1.385 . S
C5292 C5291 1.374 . S
C5293 C5290 1.499 . S
C5293 C5294 1.362 1_556 S
C5293 C5295 1.389 . S
C5294 H5267 0.957 . S
C5294 C5280 1.384 . S
C5294 C5293 1.362 1_554 S
C5295 C5279 1.377 . S
C5295 C5293 1.389 . S
C5295 C5296 1.524 . S
C5296 C5295 1.524 . S
C5296 C5297 1.397 . S
C5296 C5301 1.363 . S
C5297 H5268 0.950 . S
C5297 C5296 1.397 . S
C5297 C5298 1.334 . S
C5298 H5269 0.950 . S
C5298 C5297 1.334 . S
C5298 C5299 1.287 . S
C5299 C5298 1.287 . S
C5299 C5300 1.524 . S
C5299 H5302 0.999 . S
C5300 H5270 0.950 . S
C5300 C5299 1.524 . S
C5300 C5301 1.415 . S
C5301 H5271 0.950 1_556 S
C5301 C5296 1.363 . S
C5301 C5300 1.415 . S
H5302 C5299 0.999 . S
H5303 C5284 0.913 . S
H5304 C5322 0.951 . S
H5305 C5324 0.951 . S
H5306 C5326 0.950 . S
H5307 C5327 0.950 . S
H5308 C5329 0.950 . S
H5309 C5332 0.950 . S
H5310 C5333 0.950 . S
H5311 C5335 0.950 . S
H5312 C5336 0.950 . S
H5313 C5337 0.951 . S
H5314 C5339 0.951 . S
H5315 C5341 0.950 . S
H5316 C5342 0.950 . S
H5317 C5344 0.950 . S
H5318 C5347 0.950 . S
H5319 C5348 0.950 . S
H5320 C5350 0.950 . S
H5321 C5351 0.950 . S
C5322 H5304 0.951 . S
C5322 C5323 1.366 . S
C5322 C5324 1.388 . S
C5323 C5322 1.366 . S
C5323 C5327 1.385 . S
C5324 H5305 0.951 . S
C5324 C5322 1.388 . S
C5324 C5325 1.366 . S
C5325 C5324 1.366 . S
C5325 C5326 1.414 . S
C5325 C5328 1.499 . S
C5326 H5306 0.950 . S
C5326 C5325 1.414 . S
C5326 C5327 1.374 . S
C5327 H5307 0.950 . S
C5327 C5323 1.385 . S
C5327 C5326 1.374 . S
C5328 C5325 1.499 . S
C5328 C5329 1.373 . S
C5328 C5330 1.389 . S
C5329 H5308 0.950 . S
C5329 C5328 1.373 . S
C5329 C5345 1.377 . S
C5330 C5328 1.389 . S
C5330 C5331 1.524 . S
C5330 C5344 1.377 . S
C5331 C5330 1.524 . S
C5331 C5332 1.397 . S
C5331 C5336 1.363 . S
C5332 H5309 0.950 . S
C5332 C5331 1.397 . S
C5332 C5333 1.334 . S
C5333 H5310 0.950 . S
C5333 C5332 1.334 . S
C5333 C5334 1.287 . S
C5334 C5333 1.287 . S
C5334 C5335 1.524 . S
C5334 H5353 0.913 . S
C5335 H5311 0.950 . S
C5335 C5334 1.524 . S
C5335 C5336 1.415 . S
C5336 H5312 0.950 . S
C5336 C5331 1.363 . S
C5336 C5335 1.415 . S
C5337 H5313 0.951 . S
C5337 C5338 1.366 . S
C5337 C5339 1.388 . S
C5338 C5337 1.366 . S
C5338 C5342 1.385 . S
C5339 H5314 0.951 . S
C5339 C5337 1.388 . S
C5339 C5340 1.366 . S
C5340 C5339 1.366 . S
C5340 C5341 1.414 . S
C5340 C5343 1.499 . S
C5341 H5315 0.950 . S
C5341 C5340 1.414 . S
C5341 C5342 1.374 . S
C5342 H5316 0.950 . S
C5342 C5338 1.385 . S
C5342 C5341 1.374 . S
C5343 C5340 1.499 . S
C5343 C5344 1.373 . S
C5343 C5345 1.389 . S
C5344 H5317 0.950 . S
C5344 C5330 1.377 . S
C5344 C5343 1.373 . S
C5345 C5329 1.377 . S
C5345 C5343 1.389 . S
C5345 C5346 1.524 . S
C5346 C5345 1.524 . S
C5346 C5347 1.397 . S
C5346 C5351 1.363 . S
C5347 H5318 0.950 . S
C5347 C5346 1.397 . S
C5347 C5348 1.334 . S
C5348 H5319 0.950 . S
C5348 C5347 1.334 . S
C5348 C5349 1.287 . S
C5349 C5348 1.287 . S
C5349 C5350 1.524 . S
C5349 H5352 0.999 . S
C5350 H5320 0.950 . S
C5350 C5349 1.524 . S
C5350 C5351 1.415 . S
C5351 H5321 0.950 . S
C5351 C5346 1.363 . S
C5351 C5350 1.415 . S
H5352 C5349 0.999 . S
H5353 C5334 0.913 . S
H5354 C5372 0.951 . S
H5355 C5374 0.951 . S
H5356 C5376 0.950 . S
H5357 C5377 0.950 . S
H5358 C5379 0.950 . S
H5359 C5382 0.950 1_556 S
H5360 C5383 0.953 1_556 S
H5361 C5385 0.950 . S
H5362 C5386 0.950 . S
H5363 C5387 0.951 . S
H5364 C5389 0.951 1_556 S
H5365 C5391 0.950 . S
H5366 C5392 0.950 . S
H5367 C5394 0.950 . S
H5368 C5397 0.950 . S
H5369 C5398 0.950 . S
H5370 C5400 0.983 . S
H5371 C5401 0.984 . S
C5372 H5354 0.951 . S
C5372 C5373 1.366 . S
C5372 C5374 1.388 . S
C5373 C5372 1.366 . S
C5373 C5377 1.385 1_554 S
C5374 H5355 0.951 . S
C5374 C5372 1.388 . S
C5374 C5375 1.366 . S
C5375 C5374 1.366 . S
C5375 C5376 1.414 1_554 S
C5375 C5378 1.499 . S
C5376 H5356 0.950 . S
C5376 C5375 1.414 1_556 S
C5376 C5377 1.374 . S
C5377 H5357 0.950 . S
C5377 C5373 1.385 1_556 S
C5377 C5376 1.374 . S
C5378 C5375 1.499 . S
C5378 C5379 1.373 . S
C5378 C5380 1.389 . S
C5379 H5358 0.950 . S
C5379 C5378 1.373 . S
C5379 C5395 1.377 . S
C5380 C5378 1.389 . S
C5380 C5381 1.524 . S
C5380 C5394 1.377 . S
C5381 C5380 1.524 . S
C5381 C5382 1.397 . S
C5381 C5386 1.363 . S
C5382 H5359 0.950 1_554 S
C5382 C5381 1.397 . S
C5382 C5383 1.334 . S
C5383 H5360 0.953 1_554 S
C5383 C5382 1.334 . S
C5383 C5384 1.284 . S
C5384 C5383 1.284 . S
C5384 C5385 1.524 . S
C5384 H5403 0.913 . S
C5385 H5361 0.950 . S
C5385 C5384 1.524 . S
C5385 C5386 1.415 . S
C5386 H5362 0.950 . S
C5386 C5381 1.363 . S
C5386 C5385 1.415 . S
C5387 H5363 0.951 . S
C5387 C5388 1.366 . S
C5387 C5389 1.388 . S
C5388 C5387 1.366 . S
C5388 C5392 1.385 . S
C5389 H5364 0.951 1_554 S
C5389 C5387 1.388 . S
C5389 C5390 1.366 . S
C5390 C5389 1.366 . S
C5390 C5391 1.414 . S
C5390 C5393 1.499 . S
C5391 H5365 0.950 . S
C5391 C5390 1.414 . S
C5391 C5392 1.374 . S
C5392 H5366 0.950 . S
C5392 C5388 1.385 . S
C5392 C5391 1.374 . S
C5393 C5390 1.499 . S
C5393 C5394 1.373 . S
C5393 C5395 1.389 . S
C5394 H5367 0.950 . S
C5394 C5380 1.377 . S
C5394 C5393 1.373 . S
C5395 C5379 1.377 . S
C5395 C5393 1.389 . S
C5395 C5396 1.524 . S
C5396 C5395 1.524 . S
C5396 C5397 1.397 . S
C5396 C5401 1.330 1_554 S
C5397 H5368 0.950 . S
C5397 C5396 1.397 . S
C5397 C5398 1.334 . S
C5398 H5369 0.950 . S
C5398 C5397 1.334 . S
C5398 C5399 1.287 . S
C5399 C5398 1.287 . S
C5399 C5400 1.487 1_554 S
C5399 H5402 0.999 . S
C5400 H5370 0.983 . S
C5400 C5399 1.487 1_556 S
C5400 C5401 1.415 . S
C5401 H5371 0.984 . S
C5401 C5396 1.330 1_556 S
C5401 C5400 1.415 . S
H5402 C5399 0.999 . S
H5403 C5384 0.913 . S
H5404 C5422 0.951 . S
H5405 C5424 0.951 . S
H5406 C5426 0.950 . S
H5407 C5427 0.950 . S
H5408 C5429 0.950 . S
H5409 C5432 0.950 . S
H5410 C5433 0.950 . S
H5411 C5435 0.950 . S
H5412 C5436 0.950 . S
H5413 C5437 0.951 . S
H5414 C5439 0.951 . S
H5415 C5441 0.950 . S
H5416 C5442 0.950 . S
H5417 C5444 0.950 . S
H5418 C5447 0.950 . S
H5419 C5448 0.950 . S
H5420 C5450 0.950 . S
H5421 C5451 0.950 . S
C5422 H5404 0.951 . S
C5422 C5423 1.366 . S
C5422 C5424 1.388 . S
C5423 C5422 1.366 . S
C5423 C5427 1.385 . S
C5424 H5405 0.951 . S
C5424 C5422 1.388 . S
C5424 C5425 1.366 . S
C5425 C5424 1.366 . S
C5425 C5426 1.414 . S
C5425 C5428 1.499 . S
C5426 H5406 0.950 . S
C5426 C5425 1.414 . S
C5426 C5427 1.374 . S
C5427 H5407 0.950 . S
C5427 C5423 1.385 . S
C5427 C5426 1.374 . S
C5428 C5425 1.499 . S
C5428 C5429 1.373 . S
C5428 C5430 1.389 . S
C5429 H5408 0.950 . S
C5429 C5428 1.373 . S
C5429 C5445 1.377 . S
C5430 C5428 1.389 . S
C5430 C5431 1.524 . S
C5430 C5444 1.377 . S
C5431 C5430 1.524 . S
C5431 C5432 1.397 . S
C5431 C5436 1.363 . S
C5432 H5409 0.950 . S
C5432 C5431 1.397 . S
C5432 C5433 1.334 . S
C5433 H5410 0.950 . S
C5433 C5432 1.334 . S
C5433 C5434 1.287 . S
C5434 C5433 1.287 . S
C5434 C5435 1.524 . S
C5434 H5453 0.913 . S
C5435 H5411 0.950 . S
C5435 C5434 1.524 . S
C5435 C5436 1.415 . S
C5436 H5412 0.950 . S
C5436 C5431 1.363 . S
C5436 C5435 1.415 . S
C5437 H5413 0.951 . S
C5437 C5438 1.366 . S
C5437 C5439 1.388 . S
C5438 C5437 1.366 . S
C5438 C5442 1.385 . S
C5439 H5414 0.951 . S
C5439 C5437 1.388 . S
C5439 C5440 1.366 . S
C5440 C5439 1.366 . S
C5440 C5441 1.414 . S
C5440 C5443 1.499 . S
C5441 H5415 0.950 . S
C5441 C5440 1.414 . S
C5441 C5442 1.374 . S
C5442 H5416 0.950 . S
C5442 C5438 1.385 . S
C5442 C5441 1.374 . S
C5443 C5440 1.499 . S
C5443 C5444 1.373 . S
C5443 C5445 1.389 . S
C5444 H5417 0.950 . S
C5444 C5430 1.377 . S
C5444 C5443 1.373 . S
C5445 C5429 1.377 . S
C5445 C5443 1.389 . S
C5445 C5446 1.524 . S
C5446 C5445 1.524 . S
C5446 C5447 1.397 . S
C5446 C5451 1.363 . S
C5447 H5418 0.950 . S
C5447 C5446 1.397 . S
C5447 C5448 1.334 . S
C5448 H5419 0.950 . S
C5448 C5447 1.334 . S
C5448 C5449 1.287 . S
C5449 C5448 1.287 . S
C5449 C5450 1.524 . S
C5449 H5452 0.999 . S
C5450 H5420 0.950 . S
C5450 C5449 1.524 . S
C5450 C5451 1.415 . S
C5451 H5421 0.950 . S
C5451 C5446 1.363 . S
C5451 C5450 1.415 . S
H5452 C5449 0.999 . S
H5453 C5434 0.913 . S
H5454 C5472 0.951 . S
H5455 C5474 0.951 . S
H5456 C5476 0.950 . S
H5457 C5477 0.950 . S
H5458 C5479 0.950 . S
H5459 C5482 0.950 . S
H5460 C5483 0.950 . S
H5461 C5485 0.950 . S
H5462 C5486 0.950 . S
H5463 C5487 0.951 . S
H5464 C5489 0.951 . S
H5465 C5491 0.950 . S
H5466 C5492 0.950 . S
H5467 C5494 0.950 . S
H5468 C5497 0.950 . S
H5469 C5498 0.950 . S
H5470 C5500 0.950 . S
H5471 C5501 0.950 . S
C5472 H5454 0.951 . S
C5472 C5473 1.366 . S
C5472 C5474 1.388 . S
C5473 C5472 1.366 . S
C5473 C5477 1.385 . S
C5474 H5455 0.951 . S
C5474 C5472 1.388 . S
C5474 C5475 1.366 . S
C5475 C5474 1.366 . S
C5475 C5476 1.414 . S
C5475 C5478 1.499 . S
C5476 H5456 0.950 . S
C5476 C5475 1.414 . S
C5476 C5477 1.374 . S
C5477 H5457 0.950 . S
C5477 C5473 1.385 . S
C5477 C5476 1.374 . S
C5478 C5475 1.499 . S
C5478 C5479 1.373 . S
C5478 C5480 1.389 . S
C5479 H5458 0.950 . S
C5479 C5478 1.373 . S
C5479 C5495 1.377 . S
C5480 C5478 1.389 . S
C5480 C5481 1.524 . S
C5480 C5494 1.377 . S
C5481 C5480 1.524 . S
C5481 C5482 1.397 . S
C5481 C5486 1.363 . S
C5482 H5459 0.950 . S
C5482 C5481 1.397 . S
C5482 C5483 1.334 . S
C5483 H5460 0.950 . S
C5483 C5482 1.334 . S
C5483 C5484 1.287 . S
C5484 C5483 1.287 . S
C5484 C5485 1.524 . S
C5484 H5503 0.913 . S
C5485 H5461 0.950 . S
C5485 C5484 1.524 . S
C5485 C5486 1.415 . S
C5486 H5462 0.950 . S
C5486 C5481 1.363 . S
C5486 C5485 1.415 . S
C5487 H5463 0.951 . S
C5487 C5488 1.366 . S
C5487 C5489 1.388 . S
C5488 C5487 1.366 . S
C5488 C5492 1.385 . S
C5489 H5464 0.951 . S
C5489 C5487 1.388 . S
C5489 C5490 1.366 . S
C5490 C5489 1.366 . S
C5490 C5491 1.414 . S
C5490 C5493 1.499 . S
C5491 H5465 0.950 . S
C5491 C5490 1.414 . S
C5491 C5492 1.374 . S
C5492 H5466 0.950 . S
C5492 C5488 1.385 . S
C5492 C5491 1.374 . S
C5493 C5490 1.499 . S
C5493 C5494 1.373 . S
C5493 C5495 1.389 . S
C5494 H5467 0.950 . S
C5494 C5480 1.377 . S
C5494 C5493 1.373 . S
C5495 C5479 1.377 . S
C5495 C5493 1.389 . S
C5495 C5496 1.524 . S
C5496 C5495 1.524 . S
C5496 C5497 1.397 . S
C5496 C5501 1.363 . S
C5497 H5468 0.950 . S
C5497 C5496 1.397 . S
C5497 C5498 1.334 . S
C5498 H5469 0.950 . S
C5498 C5497 1.334 . S
C5498 C5499 1.287 . S
C5499 C5498 1.287 . S
C5499 C5500 1.524 . S
C5499 H5502 0.999 . S
C5500 H5470 0.950 . S
C5500 C5499 1.524 . S
C5500 C5501 1.415 . S
C5501 H5471 0.950 . S
C5501 C5496 1.363 . S
C5501 C5500 1.415 . S
H5502 C5499 0.999 . S
H5503 C5484 0.913 . S
C738 C352 1.048 . S
C723 C7 1.050 . S
C773 C22 1.296 . S
C788 C380 1.217 . S
C823 C31 1.061 . S
C838 C398 1.047 . S
C888 C424 1.263 . S
C873 C51 1.379 . S
C923 C17 1.407 . S
C938 C447 1.300 . S
C988 C467 0.983 . S
C973 C36 0.996 . S
C1038 C495 1.285 . S
C1023 C49 1.346 . S
C1073 C9 1.034 . S
C1088 C513 1.025 . S
C1123 C63 1.312 . S
C1138 C354 1.339 . S
C1173 C73 0.967 . S
C1188 C376 0.955 . S
C1238 C400 1.355 . S
C1223 C91 1.328 1_545 S
C1288 C421 1.003 . S
C1273 C101 1.015 . S
C1323 C59 1.031 . S
C1338 C444 1.017 . S
C1388 C469 1.343 . S
C1373 C77 1.317 . S
C1438 C491 0.951 . S
C1423 C87 0.961 1_565 S
C1488 C515 1.341 . S
C1473 C105 1.314 . S
C1538 C355 0.843 . S
C1523 C107 0.874 . S
C1588 C538 1.081 . S
C1573 C120 1.082 . S
C1623 C135 0.869 . S
C1638 C562 0.836 . S
C1688 C586 1.033 . S
C1673 C148 1.053 . S
C1723 C65 0.829 . S
C1738 C516 0.808 . S
C1788 C401 0.872 . S
C1773 C79 0.910 . S
C1823 C134 1.028 . S
C1838 C607 1.028 . S
C1888 C632 0.991 . S
C1873 C162 1.009 . S
C1923 C171 1.046 . S
C1938 C353 1.019 1_556 S
C1988 C630 0.877 . S
C1973 C190 0.876 . S
C2023 C203 1.035 . S
C2038 C399 1.048 . S
C2073 C219 0.849 . S
C2088 C609 0.840 . S
C2138 C448 0.863 . S
C2123 C189 0.863 . S
C2188 C560 0.982 . S
C2173 C204 0.988 . S
C2238 C492 0.937 . S
C2223 C213 0.936 . S
C2288 C652 1.017 . S
C2273 C177 1.025 . S
C2338 C357 0.764 . S
C2323 C227 0.770 . S
C2373 C245 1.206 . S
C2388 C628 1.220 . S
C2438 C403 0.775 . S
C2423 C255 0.786 . S
C2473 C273 1.187 . S
C2488 C606 1.200 . S
C2523 C231 1.199 . S
C2538 C445 1.209 1_565 S
C2573 C241 0.770 . S
C2588 C564 0.766 . S
C2638 C490 1.217 . S
C2623 C259 1.208 . S
C2673 C269 0.770 . S
C2688 C656 0.766 . S
C2723 C275 1.260 . S
C2738 C356 1.228 . S
C2773 C288 1.090 . S
C2788 C541 1.042 . S
C2823 C303 1.223 . S
C2838 C471 1.192 . S
C2873 C316 1.099 . S
C2888 C585 1.028 . S
C2938 C655 1.183 . S
C2923 C233 1.214 . S
C2988 C402 1.235 . S
C2973 C247 1.269 . S
C3038 C426 1.000 . S
C3023 C302 1.043 . S
C3088 C378 0.992 . S
C3073 C330 1.057 . S
C3123 C35 1.050 . S
C3138 C674 1.047 . S
C3188 C633 1.218 . S
C3173 C50 1.296 . S
C3238 C697 1.047 . S
C3223 C3 1.061 . S
C3273 C23 1.379 . S
C3288 C608 1.265 . S
C3323 C45 1.407 . S
C3338 C539 1.286 . S
C3388 C559 0.983 . S
C3373 C8 0.995 . S
C3438 C587 1.286 . S
C3423 C21 1.346 . S
C3488 C651 1.026 . S
C3473 C37 1.034 . S
C3538 C676 1.339 . S
C3523 C161 1.311 . S
C3573 C115 0.967 . S
C3588 C629 0.956 . S
C3623 C133 1.329 . S
C3638 C699 1.356 . S
C3688 C605 1.002 . S
C3673 C143 1.015 . S
C3738 C536 1.018 . S
C3723 C157 1.031 . S
C3773 C119 1.317 . S
C3788 C561 1.343 . S
C3838 C583 0.951 . S
C3823 C129 0.962 . S
C3873 C147 1.314 . S
C3888 C653 1.341 . S
C3938 C677 0.842 . S
C3923 C149 0.874 . S
C3988 C446 1.055 1_565 S
C3973 C78 1.082 . S
C4038 C470 0.835 . S
C4023 C93 0.869 . S
C4073 C106 1.053 . S
C4088 C494 1.034 . S
C4138 C654 0.806 . S
C4123 C163 0.830 . S
C4173 C121 0.909 . S
C4188 C700 0.868 . S
C4238 C423 1.028 . S
C4223 C92 1.028 . S
C4288 C379 0.991 . S
C4273 C64 1.009 . S
C4323 C199 1.046 . S
C4338 C675 1.036 . S
C4388 C377 0.877 . S
C4373 C218 0.876 . S
C4438 C698 1.041 1_556 S
C4423 C175 1.035 . S
C4473 C191 0.849 . S
C4488 C425 0.840 . S
C4523 C217 0.864 . S
C4538 C540 0.863 . S
C4573 C176 0.988 . S
C4588 C468 0.981 . S
C4623 C185 0.936 . S
C4638 C584 0.937 . S
C4673 C205 1.026 . S
C4688 C514 1.017 . S
C4738 C679 0.767 . S
C4723 C325 0.770 . S
C4773 C287 1.208 . S
C4788 C375 1.221 . S
C4838 C702 0.772 . S
C4823 C297 0.780 . S
C4873 C315 1.186 . S
C4888 C422 1.200 . S
C4923 C329 1.198 . S
C4938 C537 1.211 . S
C4988 C472 0.766 . S
C4973 C283 0.770 . S
C5023 C301 1.204 . S
C5038 C582 1.217 . S
C5088 C518 0.765 . S
C5073 C311 0.770 . S
C5138 C678 1.229 . S
C5123 C317 1.261 . S
C5188 C449 1.041 . S
C5173 C246 1.090 . S
C5223 C261 1.223 . S
C5238 C563 1.186 . S
C5288 C493 1.030 . S
C5273 C274 1.099 . S
C5338 C517 1.182 . S
C5323 C331 1.214 . S
C5373 C289 1.269 . S
C5388 C701 1.235 . S
C5438 C610 1.000 . S
C5423 C260 1.050 . S
C5488 C631 0.992 . S
C5473 C232 1.057 . S
