# Generated by pormake.
# Topology ocu, (6,8)-cn, num edge types: 1
# Building blocks:
#     Node 0, Type 0, BuildingBlock: KUMBOL_clean_sbu_0, # of connection points: 6
#     Node 1, Type 0, BuildingBlock: KUMBOL_clean_sbu_0, # of connection points: 6
#     Node 2, Type 0, BuildingBlock: KUMBOL_clean_sbu_0, # of connection points: 6
#     Node 3, Type 0, BuildingBlock: KUMBOL_clean_sbu_0, # of connection points: 6
#     Node 4, Type 0, BuildingBlock: KUMBOL_clean_sbu_0, # of connection points: 6
#     Node 5, Type 0, BuildingBlock: KUMBOL_clean_sbu_0, # of connection points: 6
#     Node 6, Type 0, BuildingBlock: KUMBOL_clean_sbu_0, # of connection points: 6
#     Node 7, Type 0, BuildingBlock: KUMBOL_clean_sbu_0, # of connection points: 6
#     Node 8, Type 1, BuildingBlock: TAGTUT_clean_sbu_1, # of connection points: 8
#     Node 9, Type 1, BuildingBlock: TAGTUT_clean_sbu_1, # of connection points: 8
#     Node 10, Type 1, BuildingBlock: TAGTUT_clean_sbu_1, # of connection points: 8
#     Node 11, Type 1, BuildingBlock: TAGTUT_clean_sbu_1, # of connection points: 8
#     Node 12, Type 1, BuildingBlock: TAGTUT_clean_sbu_1, # of connection points: 8
#     Node 13, Type 1, BuildingBlock: TAGTUT_clean_sbu_1, # of connection points: 8
#     Edge 14, Type (0, 1), BuildingBlock: CIFDUS_clean_linker_0, # of connection points: 2
#     Edge 15, Type (0, 1), BuildingBlock: CIFDUS_clean_linker_0, # of connection points: 2
#     Edge 16, Type (0, 1), BuildingBlock: CIFDUS_clean_linker_0, # of connection points: 2
#     Edge 17, Type (0, 1), BuildingBlock: CIFDUS_clean_linker_0, # of connection points: 2
#     Edge 18, Type (0, 1), BuildingBlock: CIFDUS_clean_linker_0, # of connection points: 2
#     Edge 19, Type (0, 1), BuildingBlock: CIFDUS_clean_linker_0, # of connection points: 2
#     Edge 20, Type (0, 1), BuildingBlock: CIFDUS_clean_linker_0, # of connection points: 2
#     Edge 21, Type (0, 1), BuildingBlock: CIFDUS_clean_linker_0, # of connection points: 2
#     Edge 22, Type (0, 1), BuildingBlock: CIFDUS_clean_linker_0, # of connection points: 2
#     Edge 23, Type (0, 1), BuildingBlock: CIFDUS_clean_linker_0, # of connection points: 2
#     Edge 24, Type (0, 1), BuildingBlock: CIFDUS_clean_linker_0, # of connection points: 2
#     Edge 25, Type (0, 1), BuildingBlock: CIFDUS_clean_linker_0, # of connection points: 2
#     Edge 26, Type (0, 1), BuildingBlock: CIFDUS_clean_linker_0, # of connection points: 2
#     Edge 27, Type (0, 1), BuildingBlock: CIFDUS_clean_linker_0, # of connection points: 2
#     Edge 28, Type (0, 1), BuildingBlock: CIFDUS_clean_linker_0, # of connection points: 2
#     Edge 29, Type (0, 1), BuildingBlock: CIFDUS_clean_linker_0, # of connection points: 2
#     Edge 30, Type (0, 1), BuildingBlock: CIFDUS_clean_linker_0, # of connection points: 2
#     Edge 31, Type (0, 1), BuildingBlock: CIFDUS_clean_linker_0, # of connection points: 2
#     Edge 32, Type (0, 1), BuildingBlock: CIFDUS_clean_linker_0, # of connection points: 2
#     Edge 33, Type (0, 1), BuildingBlock: CIFDUS_clean_linker_0, # of connection points: 2
#     Edge 34, Type (0, 1), BuildingBlock: CIFDUS_clean_linker_0, # of connection points: 2
#     Edge 35, Type (0, 1), BuildingBlock: CIFDUS_clean_linker_0, # of connection points: 2
#     Edge 36, Type (0, 1), BuildingBlock: CIFDUS_clean_linker_0, # of connection points: 2
#     Edge 37, Type (0, 1), BuildingBlock: CIFDUS_clean_linker_0, # of connection points: 2
#     Edge 38, Type (0, 1), BuildingBlock: CIFDUS_clean_linker_0, # of connection points: 2
#     Edge 39, Type (0, 1), BuildingBlock: CIFDUS_clean_linker_0, # of connection points: 2
#     Edge 40, Type (0, 1), BuildingBlock: CIFDUS_clean_linker_0, # of connection points: 2
#     Edge 41, Type (0, 1), BuildingBlock: CIFDUS_clean_linker_0, # of connection points: 2
#     Edge 42, Type (0, 1), BuildingBlock: CIFDUS_clean_linker_0, # of connection points: 2
#     Edge 43, Type (0, 1), BuildingBlock: CIFDUS_clean_linker_0, # of connection points: 2
#     Edge 44, Type (0, 1), BuildingBlock: CIFDUS_clean_linker_0, # of connection points: 2
#     Edge 45, Type (0, 1), BuildingBlock: CIFDUS_clean_linker_0, # of connection points: 2
#     Edge 46, Type (0, 1), BuildingBlock: CIFDUS_clean_linker_0, # of connection points: 2
#     Edge 47, Type (0, 1), BuildingBlock: CIFDUS_clean_linker_0, # of connection points: 2
#     Edge 48, Type (0, 1), BuildingBlock: CIFDUS_clean_linker_0, # of connection points: 2
#     Edge 49, Type (0, 1), BuildingBlock: CIFDUS_clean_linker_0, # of connection points: 2
#     Edge 50, Type (0, 1), BuildingBlock: CIFDUS_clean_linker_0, # of connection points: 2
#     Edge 51, Type (0, 1), BuildingBlock: CIFDUS_clean_linker_0, # of connection points: 2
#     Edge 52, Type (0, 1), BuildingBlock: CIFDUS_clean_linker_0, # of connection points: 2
#     Edge 53, Type (0, 1), BuildingBlock: CIFDUS_clean_linker_0, # of connection points: 2
#     Edge 54, Type (0, 1), BuildingBlock: CIFDUS_clean_linker_0, # of connection points: 2
#     Edge 55, Type (0, 1), BuildingBlock: CIFDUS_clean_linker_0, # of connection points: 2
#     Edge 56, Type (0, 1), BuildingBlock: CIFDUS_clean_linker_0, # of connection points: 2
#     Edge 57, Type (0, 1), BuildingBlock: CIFDUS_clean_linker_0, # of connection points: 2
#     Edge 58, Type (0, 1), BuildingBlock: CIFDUS_clean_linker_0, # of connection points: 2
#     Edge 59, Type (0, 1), BuildingBlock: CIFDUS_clean_linker_0, # of connection points: 2
#     Edge 60, Type (0, 1), BuildingBlock: CIFDUS_clean_linker_0, # of connection points: 2
#     Edge 61, Type (0, 1), BuildingBlock: CIFDUS_clean_linker_0, # of connection points: 2
# Relax obj value: 0.120
# Max RMSD: 0.270
# Mean RMSD: 0.144
data_MOF--net-ocu--node1-KUMBOL_clean_sbu_0--node2-TAGTUT_clean_sbu_1--edge1-CIFDUS_clean_linker_0
_symmetry_space_group_name_H-M    P1
_symmetry_Int_Tables_number       1
_symmetry_cell_setting            triclinic
loop_
_symmetry_equiv_pos_as_xyz
'x, y, z'
_cell_length_a     35.783193
_cell_length_b     32.420775
_cell_length_c     37.756441
_cell_angle_alpha  83.709217
_cell_angle_beta   96.688615
_cell_angle_gamma 115.15375
loop_
_atom_site_label
_atom_site_type_symbol
_atom_site_fract_x
_atom_site_fract_y
_atom_site_fract_z
_atom_type_partial_charge
Gd0 Gd 0.31298 0.31738 0.31024 0.0
Gd1 Gd 0.26724 0.22578 0.25516 0.0
C2 C 0.2837 0.22258 0.13744 0.0
C3 C 0.22532 0.23586 0.108 0.0
C4 C 0.23698 0.23429 0.17286 0.0
C5 C 0.27188 0.22634 0.17091 0.0
C6 C 0.2125 0.23735 0.14142 0.0
C7 C 0.26091 0.22865 0.10601 0.0
C8 C 0.31714 0.21115 0.13654 0.0
C9 C 0.3371 0.20229 0.16848 0.0
N10 N 0.29267 0.21937 0.20183 0.0
C11 C 0.32403 0.20579 0.20104 0.0
H12 H 0.33978 0.19881 0.22551 0.0
C13 C 0.18732 0.23492 0.20883 0.0
N14 N 0.22499 0.23511 0.20557 0.0
C15 C 0.16174 0.23729 0.17842 0.0
C16 C 0.1748 0.23955 0.14455 0.0
H17 H 0.17679 0.23319 0.23478 0.0
H18 H 0.26973 0.22626 0.08007 0.0
H19 H 0.25757 0.21908 0.36435 0.0
H20 H 0.32705 0.20784 0.11136 0.0
H21 H 0.36242 0.19249 0.16806 0.0
H22 H 0.20718 0.23875 0.08357 0.0
H23 H 0.40904 0.37137 0.27653 0.0
H24 H 0.34066 0.21297 0.45237 0.0
H25 H 0.27034 0.18462 0.422 0.0
H26 H 0.47278 0.32016 0.41715 0.0
H27 H 0.1322 0.23787 0.18114 0.0
H28 H 0.15502 0.24163 0.12105 0.0
H29 H 0.41569 0.26417 0.45062 0.0
H30 H 0.48069 0.39201 0.29919 0.0
N31 N 0.31952 0.27069 0.36155 0.0
C32 C 0.33517 0.2293 0.42693 0.0
C33 C 0.29547 0.21326 0.40991 0.0
C34 C 0.36772 0.26451 0.41003 0.0
C35 C 0.35907 0.2844 0.37664 0.0
C36 C 0.28821 0.23397 0.37702 0.0
N37 N 0.38298 0.32962 0.32315 0.0
C38 C 0.39159 0.31509 0.35709 0.0
C39 C 0.45596 0.37007 0.31566 0.0
C40 C 0.46519 0.35594 0.35041 0.0
C41 C 0.41469 0.35693 0.30248 0.0
C42 C 0.43301 0.32786 0.37149 0.0
H43 H 0.49728 0.36623 0.36048 0.0
O44 O 0.35571 0.38824 0.31263 0.0
O45 O 0.265 0.29451 0.26214 0.0
O46 O 0.32491 0.27666 0.2299 0.0
O47 O 0.33833 0.34261 0.25725 0.0
O48 O 0.27223 0.35302 0.28249 0.0
O49 O 0.31436 0.35468 0.35508 0.0
O50 O 0.23939 0.1635 0.28937 0.0
O51 O 0.31746 0.25158 0.3005 0.0
O52 O 0.25022 0.2816 0.33043 0.0
O53 O 0.21822 0.22693 0.28844 0.0
O54 O 0.31001 0.19227 0.28176 0.0
O55 O 0.22319 0.16287 0.23248 0.0
C56 C 0.25231 0.32775 0.25624 0.0
C57 C 0.44122 0.31057 0.40577 0.0
C58 C 0.4087 0.27874 0.42486 0.0
C59 C 0.34346 0.39247 0.34257 0.0
C60 C 0.34036 0.43522 0.3465 0.0
C61 C 0.33648 0.46433 0.31731 0.0
C62 C 0.34135 0.4467 0.38112 0.0
C63 C 0.33412 0.48434 0.38729 0.0
C64 C 0.33252 0.50408 0.32328 0.0
C65 C 0.33072 0.51383 0.3581 0.0
C66 C 0.34369 0.32116 0.23215 0.0
C67 C 0.33139 0.2196 0.30618 0.0
C68 C 0.22263 0.1383 0.26225 0.0
C69 C 0.23427 0.09989 0.26089 0.0
C70 C 0.22909 0.0678 0.29016 0.0
C71 C 0.25574 0.09868 0.23239 0.0
C72 C 0.27487 0.06864 0.23423 0.0
C73 C 0.24636 0.03615 0.29136 0.0
C74 C 0.26989 0.0371 0.2639 0.0
C75 C 0.21758 0.24733 0.31685 0.0
H76 H 0.3362 0.45629 0.29016 0.0
H77 H 0.34535 0.42445 0.40346 0.0
H78 H 0.32928 0.52646 0.30083 0.0
H79 H 0.32462 0.54295 0.36193 0.0
H80 H 0.21284 0.06817 0.31253 0.0
H81 H 0.25989 0.12306 0.20959 0.0
H82 H 0.24271 0.01185 0.31422 0.0
H83 H 0.28454 0.01367 0.26595 0.0
Gd84 Gd 0.76394 0.28817 0.31431 0.0
Gd85 Gd 0.82364 0.24557 0.26635 0.0
C86 C 0.91111 0.31801 0.17825 0.0
C87 C 0.87192 0.27742 0.1263 0.0
C88 C 0.84216 0.25801 0.18386 0.0
C89 C 0.87758 0.29141 0.19906 0.0
C90 C 0.8394 0.24974 0.14752 0.0
C91 C 0.90773 0.31149 0.14165 0.0
C92 C 0.94729 0.34988 0.19496 0.0
C93 C 0.94967 0.35397 0.23165 0.0
N94 N 0.87998 0.29658 0.23455 0.0
C95 C 0.9157 0.32668 0.25118 0.0
H96 H 0.91812 0.32994 0.27958 0.0
C97 C 0.77908 0.19347 0.19264 0.0
N98 N 0.81166 0.23133 0.20527 0.0
C99 C 0.77499 0.18388 0.15682 0.0
C100 C 0.80495 0.21257 0.134 0.0
H101 H 0.75574 0.17095 0.20997 0.0
H102 H 0.93295 0.33198 0.12516 0.0
H103 H 0.69737 0.21029 0.25116 0.0
H104 H 0.97364 0.3711 0.17988 0.0
H105 H 0.97766 0.37818 0.24492 0.0
H106 H 0.87018 0.27189 0.09826 0.0
H107 H 0.7813 0.29108 0.40288 0.0
H108 H 0.57667 0.1533 0.28744 0.0
H109 H 0.6235 0.16536 0.24046 0.0
H110 H 0.60051 0.19125 0.40923 0.0
H111 H 0.74869 0.15444 0.14683 0.0
H112 H 0.80177 0.20497 0.10627 0.0
H113 H 0.56851 0.16274 0.3505 0.0
H114 H 0.74084 0.27447 0.45502 0.0
N115 N 0.69401 0.23204 0.30183 0.0
C116 C 0.60939 0.17507 0.29184 0.0
C117 C 0.63563 0.18208 0.26521 0.0
C118 C 0.62615 0.19368 0.32471 0.0
C119 C 0.66911 0.22152 0.32917 0.0
C120 C 0.67794 0.20959 0.27099 0.0
N121 N 0.72912 0.25772 0.36681 0.0
C122 C 0.68725 0.23536 0.36264 0.0
C123 C 0.72534 0.26289 0.42926 0.0
C124 C 0.68232 0.2398 0.42536 0.0
C125 C 0.74834 0.27135 0.39968 0.0
C126 C 0.66276 0.22502 0.39191 0.0
H127 H 0.66459 0.23282 0.4484 0.0
O128 O 0.79726 0.349 0.34496 0.0
O129 O 0.81991 0.30527 0.28605 0.0
O130 O 0.86122 0.28085 0.31598 0.0
O131 O 0.81137 0.27447 0.35341 0.0
O132 O 0.79349 0.35189 0.27777 0.0
O133 O 0.73106 0.32398 0.33015 0.0
O134 O 0.82084 0.17696 0.2724 0.0
O135 O 0.77983 0.23103 0.3079 0.0
O136 O 0.7407 0.29082 0.25632 0.0
O137 O 0.7807 0.26582 0.22566 0.0
O138 O 0.76589 0.17969 0.27389 0.0
O139 O 0.87909 0.23472 0.28347 0.0
C140 C 0.82407 0.34356 0.27103 0.0
C141 C 0.61977 0.19968 0.38706 0.0
C142 C 0.60154 0.18366 0.35359 0.0
C143 C 0.7635 0.35476 0.34627 0.0
C144 C 0.76484 0.40065 0.34226 0.0
C145 C 0.77135 0.42413 0.37293 0.0
C146 C 0.74864 0.41505 0.31032 0.0
C147 C 0.73517 0.44996 0.30956 0.0
C148 C 0.76008 0.4605 0.37189 0.0
C149 C 0.74199 0.47358 0.34039 0.0
C150 C 0.84974 0.2817 0.34804 0.0
C151 C 0.75491 0.19114 0.30107 0.0
C152 C 0.86048 0.19097 0.28006 0.0
C153 C 0.88171 0.17094 0.26117 0.0
C154 C 0.87959 0.17182 0.22374 0.0
C155 C 0.90427 0.14967 0.28163 0.0
C156 C 0.92462 0.12908 0.26532 0.0
C157 C 0.90037 0.15182 0.20727 0.0
C158 C 0.92298 0.13038 0.22802 0.0
C159 C 0.75173 0.2814 0.22669 0.0
H160 H 0.78247 0.4124 0.39822 0.0
H161 H 0.74317 0.39627 0.28676 0.0
H162 H 0.76294 0.47641 0.39625 0.0
H163 H 0.73148 0.50032 0.34066 0.0
H164 H 0.86183 0.18746 0.2073 0.0
H165 H 0.90574 0.14869 0.31059 0.0
H166 H 0.89867 0.15264 0.17841 0.0
H167 H 0.93862 0.11458 0.21517 0.0
Gd168 Gd 0.77187 0.72878 0.32358 0.0
Gd169 Gd 0.82051 0.83477 0.27374 0.0
C170 C 0.93697 0.86799 0.21735 0.0
C171 C 0.99056 0.92168 0.25601 0.0
C172 C 0.9184 0.89052 0.26944 0.0
C173 C 0.90688 0.86442 0.24004 0.0
C174 C 0.96028 0.92012 0.27731 0.0
C175 C 0.97892 0.89572 0.22605 0.0
C176 C 0.92384 0.84516 0.18578 0.0
C177 C 0.88157 0.82127 0.17674 0.0
N178 N 0.86602 0.83827 0.2321 0.0
C179 C 0.85293 0.8186 0.20014 0.0
H180 H 0.82051 0.80082 0.19226 0.0
C181 C 0.89775 0.91817 0.31571 0.0
N182 N 0.88834 0.88872 0.28927 0.0
C183 C 0.93892 0.9475 0.32482 0.0
C184 C 0.97036 0.94817 0.3058 0.0
H185 H 0.87378 0.91751 0.33096 0.0
H186 H 1.00247 0.89842 0.20917 0.0
H187 H 0.75974 0.76708 0.39806 0.0
H188 H 0.94594 0.84709 0.16763 0.0
H189 H 0.87098 0.80472 0.15182 0.0
H190 H 1.02292 0.94386 0.26186 0.0
H191 H 0.73097 0.6382 0.271 0.0
H192 H 0.63052 0.70992 0.41389 0.0
H193 H 0.70289 0.76071 0.43258 0.0
H194 H 0.5709 0.59841 0.32658 0.0
H195 H 0.94648 0.96932 0.3467 0.0
H196 H 1.00219 0.97115 0.31282 0.0
H197 H 0.58137 0.64962 0.37385 0.0
H198 H 0.66347 0.57634 0.2564 0.0
N199 N 0.71979 0.72365 0.35845 0.0
C200 C 0.65532 0.7132 0.39829 0.0
C201 C 0.69612 0.74184 0.40896 0.0
C202 C 0.64734 0.68704 0.36889 0.0
C203 C 0.68079 0.6926 0.34952 0.0
C204 C 0.72823 0.7459 0.389 0.0
N205 N 0.70852 0.66754 0.30684 0.0
C206 C 0.675 0.66335 0.32317 0.0
C207 C 0.66626 0.60067 0.27515 0.0
C208 C 0.63131 0.59722 0.29045 0.0
C209 C 0.70479 0.63609 0.28369 0.0
C210 C 0.63544 0.6284 0.3151 0.0
H211 H 0.60149 0.56984 0.28363 0.0
O212 O 0.82113 0.71621 0.35444 0.0
O213 O 0.81373 0.7614 0.27739 0.0
O214 O 0.77557 0.77942 0.23845 0.0
O215 O 0.72787 0.73556 0.2784 0.0
O216 O 0.79618 0.69398 0.28735 0.0
O217 O 0.75738 0.6735 0.36508 0.0
O218 O 0.8348 0.89864 0.24144 0.0
O219 O 0.7782 0.80182 0.31926 0.0
O220 O 0.81502 0.78398 0.3589 0.0
O221 O 0.86386 0.82648 0.31965 0.0
O222 O 0.8005 0.86999 0.31309 0.0
O223 O 0.77113 0.84963 0.24446 0.0
C224 C 0.81871 0.72733 0.26638 0.0
C225 C 0.60157 0.62473 0.33271 0.0
C226 C 0.60751 0.65398 0.35956 0.0
C227 C 0.79591 0.68022 0.37199 0.0
C228 C 0.80473 0.63974 0.37558 0.0
C229 C 0.78287 0.60327 0.39934 0.0
C230 C 0.83782 0.63932 0.3591 0.0
C231 C 0.85056 0.60388 0.36787 0.0
C232 C 0.79456 0.56736 0.4074 0.0
C233 C 0.82822 0.56758 0.39197 0.0
C234 C 0.73817 0.74858 0.2454 0.0
C235 C 0.77461 0.83614 0.33127 0.0
C236 C 0.79602 0.89174 0.23603 0.0
C237 C 0.78467 0.92668 0.24778 0.0
C238 C 0.81012 0.95709 0.27343 0.0
C239 C 0.74575 0.92608 0.23636 0.0
C240 C 0.73132 0.95424 0.25116 0.0
C241 C 0.79594 0.98463 0.28856 0.0
C242 C 0.75671 0.98297 0.27785 0.0
C243 C 0.85334 0.81176 0.35245 0.0
H244 H 0.75773 0.60343 0.41273 0.0
H245 H 0.85534 0.66786 0.34119 0.0
H246 H 0.77859 0.54033 0.42696 0.0
H247 H 0.83822 0.54065 0.40065 0.0
H248 H 0.84035 0.95845 0.28279 0.0
H249 H 0.72691 0.90361 0.21577 0.0
H250 H 0.81523 0.00702 0.309 0.0
H251 H 0.74641 1.00434 0.29044 0.0
Gd252 Gd 0.2728 0.80998 0.27233 0.0
Gd253 Gd 0.34881 0.76138 0.30023 0.0
C254 C 0.34651 0.66692 0.39946 0.0
C255 C 0.40521 0.71591 0.43706 0.0
C256 C 0.38885 0.7443 0.3777 0.0
C257 C 0.35564 0.7027 0.37247 0.0
C258 C 0.41411 0.7514 0.41003 0.0
C259 C 0.37144 0.67377 0.43181 0.0
C260 C 0.31228 0.62555 0.39324 0.0
C261 C 0.28878 0.62026 0.36048 0.0
N262 N 0.33151 0.69759 0.34132 0.0
C263 C 0.29902 0.65679 0.33457 0.0
H264 H 0.28024 0.65273 0.30954 0.0
C265 C 0.42846 0.81984 0.35531 0.0
N266 N 0.39579 0.77825 0.35142 0.0
C267 C 0.45446 0.82844 0.38686 0.0
C268 C 0.44725 0.79411 0.41437 0.0
H269 H 0.43396 0.84694 0.33456 0.0
H270 H 0.36486 0.64677 0.45293 0.0
H271 H 0.34645 0.9171 0.28051 0.0
H272 H 0.30354 0.59763 0.41353 0.0
H273 H 0.26243 0.58829 0.35537 0.0
H274 H 0.42412 0.72078 0.46217 0.0
H275 H 0.19012 0.73982 0.22479 0.0
H276 H 0.34246 0.99581 0.18277 0.0
H277 H 0.37318 0.99011 0.24426 0.0
H278 H 0.22954 0.89032 0.11175 0.0
H279 H 0.47987 0.86166 0.39005 0.0
H280 H 0.46726 0.80101 0.43889 0.0
H281 H 0.28888 0.9584 0.13352 0.0
H282 H 0.153 0.74016 0.16518 0.0
N283 N 0.30097 0.88132 0.23998 0.0
C284 C 0.33035 0.96371 0.19869 0.0
C285 C 0.3478 0.96056 0.23336 0.0
C286 C 0.29721 0.92545 0.18507 0.0
C287 C 0.28279 0.88429 0.20676 0.0
C288 C 0.33244 0.919 0.25386 0.0
N289 N 0.23629 0.80722 0.21621 0.0
C290 C 0.24961 0.84598 0.19441 0.0
C291 C 0.18039 0.76996 0.17292 0.0
C292 C 0.1949 0.80884 0.14942 0.0
C293 C 0.20134 0.76987 0.20657 0.0
C294 C 0.22961 0.84773 0.1602 0.0
H295 H 0.17862 0.8088 0.12335 0.0
O296 O 0.2107 0.7972 0.28348 0.0
O297 O 0.28711 0.75927 0.30921 0.0
O298 O 0.29649 0.71898 0.26246 0.0
O299 O 0.27814 0.77225 0.22843 0.0
O300 O 0.22631 0.73934 0.29216 0.0
O301 O 0.26318 0.85918 0.30018 0.0
O302 O 0.40413 0.76863 0.27705 0.0
O303 O 0.33339 0.81127 0.26376 0.0
O304 O 0.31797 0.84695 0.3178 0.0
O305 O 0.34232 0.79462 0.34606 0.0
O306 O 0.39468 0.83051 0.27705 0.0
O307 O 0.34953 0.704 0.27614 0.0
C308 C 0.25137 0.72747 0.31367 0.0
C309 C 0.24434 0.88836 0.13821 0.0
C310 C 0.27808 0.92715 0.15062 0.0
C311 C 0.22409 0.83221 0.30318 0.0
C312 C 0.21052 0.82339 0.3397 0.0
C313 C 0.18768 0.77875 0.3539 0.0
C314 C 0.22162 0.86024 0.36105 0.0
C315 C 0.2097 0.853 0.39618 0.0
C316 C 0.17647 0.77114 0.38894 0.0
C317 C 0.18715 0.80791 0.40995 0.0
C318 C 0.28422 0.73459 0.23182 0.0
C319 C 0.36849 0.84275 0.25777 0.0
C320 C 0.38541 0.72869 0.2636 0.0
C321 C 0.38651 0.72744 0.22485 0.0
C322 C 0.39287 0.76631 0.20162 0.0
C323 C 0.37948 0.68628 0.21074 0.0
C324 C 0.38036 0.68401 0.17377 0.0
C325 C 0.3925 0.76415 0.16491 0.0
C326 C 0.38655 0.72348 0.15102 0.0
C327 C 0.33242 0.82938 0.34647 0.0
H328 H 0.17836 0.74967 0.33803 0.0
H329 H 0.23957 0.89461 0.35017 0.0
H330 H 0.15887 0.73665 0.39968 0.0
H331 H 0.17654 0.80097 0.43657 0.0
H332 H 0.39821 0.79838 0.21174 0.0
H333 H 0.37381 0.6562 0.22877 0.0
H334 H 0.39757 0.79437 0.14722 0.0
H335 H 0.38847 0.72365 0.12261 0.0
Gd336 Gd 0.27631 0.83616 0.78786 0.0
Gd337 Gd 0.29915 0.74007 0.79005 0.0
C338 C 0.40525 0.76969 0.72099 0.0
C339 C 0.37034 0.72172 0.67159 0.0
C340 C 0.33158 0.72144 0.72057 0.0
C341 C 0.36734 0.75351 0.73696 0.0
C342 C 0.33301 0.70437 0.68815 0.0
C343 C 0.40636 0.7543 0.68796 0.0
C344 C 0.44105 0.80068 0.73881 0.0
C345 C 0.43869 0.81414 0.77202 0.0
N346 N 0.36532 0.76843 0.76868 0.0
C347 C 0.40047 0.79734 0.78675 0.0
H348 H 0.39953 0.80744 0.81266 0.0
C349 C 0.26164 0.66876 0.72454 0.0
N350 N 0.29578 0.70556 0.73697 0.0
C351 C 0.26148 0.65114 0.69235 0.0
C352 C 0.29711 0.66955 0.67374 0.0
H353 H 0.23378 0.65464 0.73868 0.0
H354 H 0.43508 0.76686 0.67512 0.0
H355 H 0.23003 0.86186 0.71137 0.0
H356 H 0.47069 0.81396 0.72738 0.0
H357 H 0.46634 0.83747 0.78631 0.0
H358 H 0.37188 0.70945 0.64647 0.0
H359 H 0.27869 0.82631 0.87727 0.0
H360 H 0.10678 0.83755 0.73166 0.0
H361 H 0.16166 0.86105 0.68984 0.0
H362 H 0.10463 0.80308 0.85827 0.0
H363 H 0.23384 0.62345 0.68188 0.0
H364 H 0.29695 0.65575 0.64882 0.0
H365 H 0.08568 0.81567 0.79456 0.0
H366 H 0.23099 0.81297 0.92404 0.0
N367 N 0.21317 0.83775 0.76443 0.0
C368 C 0.13663 0.83784 0.74122 0.0
C369 C 0.16755 0.85117 0.71751 0.0
C370 C 0.1451 0.8268 0.77726 0.0
C371 C 0.18438 0.82756 0.78835 0.0
C372 C 0.20616 0.85171 0.72974 0.0
N373 N 0.2337 0.823 0.83434 0.0
C374 C 0.195 0.82009 0.8243 0.0
C375 C 0.22042 0.8147 0.8961 0.0
C376 C 0.17972 0.8089 0.88626 0.0
C377 C 0.24732 0.82224 0.86962 0.0
C378 C 0.16672 0.81229 0.85003 0.0
H379 H 0.1589 0.80287 0.90682 0.0
O380 O 0.29243 0.90689 0.76835 0.0
O381 O 0.32149 0.81366 0.76823 0.0
O382 O 0.33027 0.77738 0.84029 0.0
O383 O 0.33842 0.8475 0.81515 0.0
O384 O 0.29835 0.85184 0.73187 0.0
O385 O 0.30415 0.89007 0.82431 0.0
O386 O 0.27236 0.66711 0.80225 0.0
O387 O 0.26675 0.77 0.82031 0.0
O388 O 0.22435 0.78199 0.75618 0.0
O389 O 0.26142 0.74476 0.73988 0.0
O390 O 0.23246 0.70482 0.80592 0.0
O391 O 0.33441 0.70872 0.82431 0.0
C392 C 0.32339 0.832 0.73606 0.0
C393 C 0.12692 0.80954 0.83891 0.0
C394 C 0.1161 0.81667 0.80262 0.0
C395 C 0.30424 0.9219 0.8003 0.0
C396 C 0.28844 0.95322 0.81126 0.0
C397 C 0.3109 0.98291 0.83811 0.0
C398 C 0.25128 0.95381 0.79552 0.0
C399 C 0.23744 0.98529 0.80514 0.0
C400 C 0.29707 0.01395 0.8481 0.0
C401 C 0.26107 0.01605 0.83101 0.0
C402 C 0.34551 0.82199 0.84201 0.0
C403 C 0.23216 0.73553 0.82485 0.0
C404 C 0.3032 0.66854 0.82475 0.0
C405 C 0.29257 0.64473 0.86005 0.0
C406 C 0.25309 0.63049 0.87254 0.0
C407 C 0.32324 0.63685 0.88198 0.0
C408 C 0.31556 0.61646 0.9165 0.0
C409 C 0.24534 0.61006 0.90715 0.0
C410 C 0.27672 0.60351 0.92938 0.0
C411 C 0.22937 0.75477 0.73569 0.0
H412 H 0.33934 0.98238 0.85105 0.0
H413 H 0.23397 0.93116 0.7746 0.0
H414 H 0.31474 0.03692 0.86867 0.0
H415 H 0.25209 0.04194 0.83758 0.0
H416 H 0.22843 0.63553 0.85592 0.0
H417 H 0.35371 0.64763 0.87246 0.0
H418 H 0.21513 0.59976 0.91683 0.0
H419 H 0.27077 0.58837 0.95632 0.0
Gd420 Gd 0.32297 0.31216 0.74903 0.0
Gd421 Gd 0.24784 0.24462 0.81741 0.0
C422 C 0.22769 0.10355 0.87181 0.0
C423 C 0.16268 0.05381 0.84163 0.0
C424 C 0.19249 0.13574 0.82664 0.0
C425 C 0.22616 0.14126 0.85018 0.0
C426 C 0.15973 0.09215 0.82257 0.0
C427 C 0.19631 0.05962 0.86672 0.0
C428 C 0.2592 0.11152 0.8993 0.0
C429 C 0.28674 0.15635 0.90573 0.0
N430 N 0.25491 0.18439 0.85497 0.0
C431 C 0.28385 0.19249 0.88341 0.0
H432 H 0.30521 0.22674 0.88884 0.0
C433 C 0.15311 0.17122 0.79339 0.0
N434 N 0.18968 0.17388 0.81079 0.0
C435 C 0.12027 0.12878 0.78735 0.0
C436 C 0.12394 0.08889 0.80137 0.0
H437 H 0.14944 0.20191 0.7838 0.0
H438 H 0.19719 0.03015 0.88274 0.0
H439 H 0.25634 0.32167 0.67879 0.0
H440 H 0.26148 0.08357 0.91658 0.0
H441 H 0.31044 0.16315 0.92767 0.0
H442 H 0.13811 0.01996 0.83862 0.0
H443 H 0.41971 0.36303 0.78845 0.0
H444 H 0.29762 0.46224 0.64421 0.0
H445 H 0.24848 0.38171 0.63832 0.0
H446 H 0.42248 0.53558 0.71743 0.0
H447 H 0.09194 0.12693 0.77242 0.0
H448 H 0.09818 0.05606 0.79737 0.0
H449 H 0.36147 0.51938 0.67474 0.0
H450 H 0.47468 0.44072 0.79363 0.0
N451 N 0.3098 0.36681 0.70916 0.0
C452 C 0.30154 0.43582 0.66237 0.0
C453 C 0.27378 0.39042 0.65893 0.0
C454 C 0.33456 0.44651 0.68864 0.0
C455 C 0.33848 0.41078 0.71154 0.0
C456 C 0.27848 0.35621 0.68242 0.0
N457 N 0.37823 0.38462 0.75492 0.0
C458 C 0.37329 0.41996 0.73538 0.0
C459 C 0.44626 0.43542 0.77732 0.0
C460 C 0.44067 0.47248 0.75919 0.0
C461 C 0.41501 0.39139 0.77421 0.0
C462 C 0.40438 0.46497 0.73721 0.0
H463 H 0.46514 0.50655 0.76137 0.0
O464 O 0.36222 0.32757 0.70507 0.0
O465 O 0.30412 0.25432 0.79056 0.0
O466 O 0.31055 0.28893 0.84242 0.0
O467 O 0.34081 0.34924 0.80022 0.0
O468 O 0.36625 0.2854 0.78097 0.0
O469 O 0.32516 0.25745 0.72213 0.0
O470 O 0.25949 0.27064 0.8701 0.0
O471 O 0.26809 0.30346 0.77634 0.0
O472 O 0.2602 0.27011 0.72411 0.0
O473 O 0.22923 0.20873 0.76558 0.0
O474 O 0.20792 0.27859 0.78941 0.0
O475 O 0.20123 0.25839 0.83975 0.0
C476 C 0.33892 0.25215 0.79875 0.0
C477 C 0.39913 0.50079 0.71608 0.0
C478 C 0.36439 0.49156 0.69176 0.0
C479 C 0.35106 0.28485 0.69974 0.0
C480 C 0.34285 0.27188 0.66271 0.0
C481 C 0.3109 0.27667 0.63991 0.0
C482 C 0.36654 0.25199 0.65071 0.0
C483 C 0.35817 0.2361 0.6163 0.0
C484 C 0.3026 0.26127 0.60547 0.0
C485 C 0.32582 0.24063 0.59375 0.0
C486 C 0.33753 0.33081 0.83347 0.0
C487 C 0.23518 0.30993 0.77056 0.0
C488 C 0.22622 0.27804 0.86678 0.0
C489 C 0.23289 0.32545 0.87037 0.0
C490 C 0.25983 0.36112 0.84856 0.0
C491 C 0.2114 0.33533 0.89446 0.0
C492 C 0.21684 0.38065 0.89673 0.0
C493 C 0.26562 0.40599 0.85089 0.0
C494 C 0.24422 0.41583 0.87479 0.0
C495 C 0.23351 0.2281 0.73255 0.0
H496 H 0.29205 0.29147 0.64886 0.0
H497 H 0.39094 0.24784 0.66856 0.0
H498 H 0.27779 0.26483 0.58798 0.0
H499 H 0.31883 0.22866 0.56706 0.0
H500 H 0.27607 0.35444 0.82932 0.0
H501 H 0.19055 0.30787 0.91129 0.0
H502 H 0.28633 0.4331 0.83379 0.0
H503 H 0.24844 0.45086 0.87554 0.0
Gd504 Gd 0.79543 0.34663 0.76466 0.0
Gd505 Gd 0.80287 0.24009 0.80079 0.0
C506 C 0.72864 0.15108 0.89261 0.0
C507 C 0.78125 0.16742 0.94238 0.0
C508 C 0.79982 0.20128 0.88276 0.0
C509 C 0.75892 0.1808 0.8699 0.0
C510 C 0.81181 0.19318 0.91879 0.0
C511 C 0.73961 0.14653 0.92928 0.0
C512 C 0.6889 0.12512 0.87748 0.0
C513 C 0.68073 0.12821 0.84044 0.0
N514 N 0.74939 0.18682 0.83448 0.0
C515 C 0.71145 0.15962 0.81922 0.0
H516 H 0.7044 0.1627 0.79074 0.0
C517 C 0.86963 0.24201 0.86935 0.0
N518 N 0.82825 0.22703 0.85937 0.0
C519 C 0.88318 0.23419 0.9047 0.0
C520 C 0.85413 0.21034 0.92972 0.0
H521 H 0.89217 0.26101 0.85023 0.0
H522 H 0.71644 0.12521 0.94735 0.0
H523 H 0.89039 0.39378 0.81848 0.0
H524 H 0.66486 0.10145 0.89394 0.0
H525 H 0.65045 0.10734 0.82829 0.0
H526 H 0.78964 0.16183 0.97042 0.0
H527 H 0.75072 0.34479 0.68084 0.0
H528 H 0.9812 0.48676 0.75238 0.0
H529 H 0.95946 0.45018 0.81161 0.0
H530 H 0.91537 0.46639 0.63478 0.0
H531 H 0.91596 0.24695 0.91271 0.0
H532 H 0.86467 0.20467 0.95713 0.0
H533 H 0.96472 0.4921 0.68697 0.0
H534 H 0.77135 0.36917 0.61967 0.0
N535 N 0.86767 0.39821 0.7634 0.0
C536 C 0.94944 0.46225 0.75509 0.0
C537 C 0.93727 0.44171 0.78851 0.0
C538 C 0.92103 0.44969 0.72537 0.0
C539 C 0.87987 0.41729 0.73021 0.0
C540 C 0.89664 0.40949 0.7922 0.0
N541 N 0.81242 0.37227 0.70521 0.0
C542 C 0.8519 0.40309 0.70048 0.0
C543 C 0.79455 0.37818 0.64202 0.0
C544 C 0.83575 0.40597 0.63635 0.0
C545 C 0.78318 0.36322 0.67683 0.0
C546 C 0.86456 0.42067 0.66574 0.0
H547 H 0.84451 0.41806 0.60934 0.0
O548 O 0.74092 0.3594 0.74626 0.0
O549 O 0.76171 0.27682 0.79091 0.0
O550 O 0.75632 0.22145 0.75184 0.0
O551 O 0.75996 0.29119 0.72471 0.0
O552 O 0.75331 0.3302 0.80927 0.0
O553 O 0.80018 0.41544 0.75969 0.0
O554 O 0.84606 0.21458 0.7869 0.0
O555 O 0.82373 0.29924 0.76114 0.0
O556 O 0.82155 0.35918 0.82265 0.0
O557 O 0.82244 0.2893 0.84641 0.0
O558 O 0.8696 0.28286 0.78709 0.0
O559 O 0.77997 0.17338 0.77889 0.0
C560 C 0.74269 0.28678 0.81268 0.0
C561 C 0.90525 0.45274 0.66121 0.0
C562 C 0.93327 0.46753 0.69095 0.0
C563 C 0.76094 0.40319 0.75016 0.0
C564 C 0.74087 0.42576 0.76772 0.0
C565 C 0.71796 0.44635 0.74633 0.0
C566 C 0.74767 0.43113 0.80478 0.0
C567 C 0.73225 0.4578 0.82011 0.0
C568 C 0.70232 0.47248 0.76152 0.0
C569 C 0.70958 0.47845 0.79811 0.0
C570 C 0.74787 0.24621 0.72436 0.0
C571 C 0.86178 0.30899 0.762 0.0
C572 C 0.81694 0.17746 0.77466 0.0
C573 C 0.82484 0.13639 0.77703 0.0
C574 C 0.83364 0.11623 0.80972 0.0
C575 C 0.82694 0.11969 0.74496 0.0
C576 C 0.8403 0.08462 0.74479 0.0
C577 C 0.84533 0.08013 0.81009 0.0
C578 C 0.84919 0.06477 0.77799 0.0
C579 C 0.82874 0.33259 0.84963 0.0
H580 H 0.71292 0.44298 0.71772 0.0
H581 H 0.76593 0.41592 0.8214 0.0
H582 H 0.68481 0.48849 0.74483 0.0
H583 H 0.69704 0.49881 0.80935 0.0
H584 H 0.83214 0.12884 0.83469 0.0
H585 H 0.819 0.13515 0.72002 0.0
H586 H 0.85239 0.06466 0.83535 0.0
H587 H 0.86014 0.03818 0.77939 0.0
Gd588 Gd 0.80523 0.82738 0.81796 0.0
Gd589 Gd 0.81258 0.75895 0.75364 0.0
C590 C 0.80553 0.82618 0.64073 0.0
C591 C 0.73146 0.79487 0.62508 0.0
C592 C 0.75859 0.77318 0.68283 0.0
C593 C 0.79854 0.80139 0.67438 0.0
C594 C 0.72469 0.76867 0.65777 0.0
C595 C 0.77179 0.82384 0.61669 0.0
C596 C 0.84625 0.85097 0.63148 0.0
C597 C 0.87852 0.84753 0.65414 0.0
N598 N 0.83059 0.80224 0.69793 0.0
C599 C 0.86988 0.82136 0.68658 0.0
H600 H 0.8949 0.81598 0.70212 0.0
C601 C 0.71397 0.71868 0.7232 0.0
N602 N 0.75274 0.74988 0.71539 0.0
C603 C 0.67963 0.71246 0.69899 0.0
C604 C 0.68492 0.7379 0.66627 0.0
H605 H 0.70895 0.69765 0.74775 0.0
H606 H 0.77662 0.84312 0.59102 0.0
H607 H 0.77899 0.74178 0.88279 0.0
H608 H 0.85289 0.87058 0.60604 0.0
H609 H 0.90994 0.86397 0.64623 0.0
H610 H 0.70573 0.79251 0.60591 0.0
H611 H 0.85141 0.9422 0.80896 0.0
H612 H 0.87812 0.77585 0.96475 0.0
H613 H 0.80921 0.72237 0.94047 0.0
H614 H 0.96693 0.93031 0.93065 0.0
H615 H 0.64906 0.68796 0.70562 0.0
H616 H 0.65818 0.73335 0.64772 0.0
H617 H 0.9379 0.85289 0.95996 0.0
H618 H 0.91352 0.00504 0.83486 0.0
N619 N 0.8308 0.80514 0.87344 0.0
C620 C 0.86501 0.78463 0.93928 0.0
C621 C 0.82606 0.75441 0.92572 0.0
C622 C 0.88565 0.82676 0.92067 0.0
C623 C 0.86719 0.83654 0.88762 0.0
C624 C 0.80909 0.76549 0.89276 0.0
N625 N 0.86228 0.89003 0.84174 0.0
C626 C 0.88359 0.88027 0.87112 0.0
C627 C 0.90583 0.97006 0.84498 0.0
C628 C 0.9306 0.96015 0.87292 0.0
C629 C 0.87079 0.93453 0.8304 0.0
C630 C 0.91879 0.91505 0.8872 0.0
H631 H 0.95743 0.9878 0.88453 0.0
O632 O 0.74814 0.83699 0.81401 0.0
O633 O 0.77976 0.80255 0.76306 0.0
O634 O 0.87353 0.82048 0.75722 0.0
O635 O 0.86288 0.87046 0.79016 0.0
O636 O 0.80357 0.87235 0.76807 0.0
O637 O 0.78841 0.85314 0.86184 0.0
O638 O 0.78399 0.68579 0.74829 0.0
O639 O 0.82332 0.76934 0.81288 0.0
O640 O 0.75235 0.75791 0.82358 0.0
O641 O 0.76679 0.71032 0.79087 0.0
O642 O 0.86836 0.76008 0.79045 0.0
O643 O 0.83947 0.72767 0.72185 0.0
C644 C 0.78354 0.8406 0.74622 0.0
C645 C 0.93941 0.90424 0.91828 0.0
C646 C 0.92284 0.86015 0.93501 0.0
C647 C 0.75673 0.85663 0.84385 0.0
C648 C 0.75523 0.90164 0.84288 0.0
C649 C 0.76007 0.92955 0.81099 0.0
C650 C 0.74998 0.9175 0.87439 0.0
C651 C 0.74928 0.96077 0.87414 0.0
C652 C 0.75952 0.97234 0.81054 0.0
C653 C 0.75421 0.98793 0.84177 0.0
C654 C 0.88513 0.8607 0.76992 0.0
C655 C 0.85797 0.76609 0.82057 0.0
C656 C 0.81118 0.68672 0.72788 0.0
C657 C 0.82366 0.64858 0.73226 0.0
C658 C 0.82227 0.62301 0.76496 0.0
C659 C 0.83411 0.63553 0.70191 0.0
C660 C 0.84291 0.59696 0.70375 0.0
C661 C 0.83092 0.58458 0.76706 0.0
C662 C 0.84106 0.57149 0.73671 0.0
C663 C 0.74434 0.71735 0.81282 0.0
H664 H 0.76424 0.91841 0.78634 0.0
H665 H 0.74667 0.89619 0.89907 0.0
H666 H 0.76288 0.99339 0.78577 0.0
H667 H 0.75296 0.02088 0.84031 0.0
H668 H 0.81401 0.63233 0.78863 0.0
H669 H 0.83426 0.65486 0.67655 0.0
H670 H 0.8296 0.56474 0.79227 0.0
H671 H 0.84797 0.54181 0.73917 0.0
C672 C 0.92147 0.06746 0.56203 0.0
C673 C 0.9644 0.0546 0.45665 0.0
C674 C 0.99406 0.92237 0.523 0.0
Mg675 Mg 1.00467 0.1067 0.52487 0.0
O676 O 1.00317 0.05061 0.54466 0.0
Mg677 Mg 0.9533 0.99254 0.53494 0.0
Mg678 Mg 0.0466 0.03018 0.53692 0.0
O679 O 0.09013 0.00881 0.53113 0.0
Mg680 Mg 0.08556 0.95612 0.56064 0.0
Mg681 Mg 0.13934 0.0671 0.54297 0.0
C682 C 0.09792 0.13674 0.55676 0.0
C683 C 0.09446 0.08376 0.46625 0.0
O684 O 0.9153 0.02676 0.55585 0.0
O685 O 0.95305 0.10279 0.55173 0.0
O686 O 0.94629 0.0182 0.4764 0.0
O687 O 0.98981 0.09229 0.4695 0.0
O688 O 0.06783 0.14841 0.54739 0.0
O689 O 0.09424 0.09636 0.55386 0.0
C690 C 1.00181 0.97848 0.60911 0.0
O691 O 1.03617 0.9989 0.59455 0.0
O692 O 0.96693 0.97151 0.59192 0.0
O693 O 0.17827 0.0291 0.52994 0.0
O694 O 0.14003 0.95432 0.54406 0.0
O695 O 0.14412 0.0458 0.60255 0.0
C696 C 0.17278 0.98701 0.53269 0.0
O697 O 0.09911 0.97434 0.61555 0.0
O698 O 1.02342 0.91169 0.53755 0.0
C699 C 0.12631 0.01293 0.62531 0.0
O700 O 0.99785 0.96364 0.51953 0.0
O701 O 0.05893 0.06341 0.47927 0.0
O702 O 0.12833 0.0882 0.48458 0.0
C703 C 0.40934 0.11693 0.06808 0.0
C704 C 0.45169 0.156 0.96066 0.0
C705 C 0.47063 0.98845 0.99391 0.0
Mg706 Mg 0.49587 0.16655 0.03885 0.0
O707 O 0.49051 0.10821 0.03412 0.0
Mg708 Mg 0.43687 0.06002 0.01473 0.0
Mg709 Mg 0.53191 0.08432 0.02794 0.0
O710 O 0.57069 0.05635 0.02313 0.0
Mg711 Mg 0.55204 0.99559 0.043 0.0
Mg712 Mg 0.622 0.10096 0.0481 0.0
C713 C 0.58815 0.17826 0.06922 0.0
C714 C 0.60398 0.15135 0.97325 0.0
O715 O 0.39956 0.08726 0.0448 0.0
O716 O 0.44596 0.14842 0.0728 0.0
O717 O 0.43673 0.11209 0.96543 0.0
O718 O 0.47548 0.1821 0.98483 0.0
O719 O 0.56034 0.19406 0.06269 0.0
O720 O 0.58171 0.13807 0.06121 0.0
C721 C 0.46657 0.01192 0.08639 0.0
O722 O 0.50438 0.03576 0.07909 0.0
O723 O 0.43678 0.01372 0.06508 0.0
O724 O 0.65361 0.05608 0.02928 0.0
O725 O 0.60211 0.98539 0.02618 0.0
O726 O 0.6116 0.06048 0.10198 0.0
C727 C 0.63973 0.01368 0.02228 0.0
O728 O 0.55842 0.99229 0.10071 0.0
O729 O 0.49234 0.96914 0.01194 0.0
C730 C 0.58769 0.02344 0.1179 0.0
O731 O 0.48064 0.0316 0.99378 0.0
O732 O 0.56476 0.13511 0.97788 0.0
O733 O 0.62917 0.1416 0.99564 0.0
C734 C 0.93426 0.65114 0.11571 0.0
C735 C 0.95983 0.66526 0.99717 0.0
C736 C 0.95365 0.4773 0.02023 0.0
Mg737 Mg 1.0134 0.66581 0.07317 0.0
O738 O 0.99465 0.60243 0.06847 0.0
Mg739 Mg 0.93405 0.56831 0.05527 0.0
Mg740 Mg 1.02521 0.56154 0.06037 0.0
O741 O 0.05735 0.52072 0.05741 0.0
Mg742 Mg 1.03866 0.45668 0.06194 0.0
Mg743 Mg 0.11697 0.55745 0.07587 0.0
C744 C 0.0948 0.64093 0.10452 0.0
C745 C 0.09963 0.61852 1.00145 0.0
O746 O 0.91358 0.61517 0.09693 0.0
O747 O 0.97327 0.6732 0.11167 0.0
O748 O 0.937 0.62287 1.00557 0.0
O749 O 0.9921 0.68785 0.01792 0.0
O750 O 0.07503 0.66701 0.09854 0.0
O751 O 0.08102 0.60014 0.09482 0.0
C752 C 0.95561 0.50317 0.11793 0.0
O753 O 0.99225 0.51467 0.10878 0.0
O754 O 0.93105 0.5192 0.10157 0.0
O755 O 0.13753 0.51482 0.04423 0.0
O756 O 0.07939 0.45642 0.02447 0.0
O757 O 0.1221 0.50053 0.12685 0.0
C758 C 0.11864 0.48039 0.02504 0.0
O759 O 0.07598 0.4325 0.10997 0.0
O760 O 0.97632 0.45489 0.03217 0.0
C761 C 0.10884 0.45601 0.13014 0.0
O762 O 0.9648 0.52016 0.02671 0.0
O763 O 0.06161 0.6073 1.00828 0.0
O764 O 0.12299 0.60533 0.02358 0.0
C765 C 0.44339 0.5526 0.05594 0.0
C766 C 0.52544 0.60127 0.98588 0.0
C767 C 0.50793 0.41751 0.9943 0.0
Mg768 Mg 0.54093 0.59796 0.05191 0.0
O769 O 0.52873 0.53977 0.03359 0.0
Mg770 Mg 0.47437 0.49216 1.00827 0.0
Mg771 Mg 0.56864 0.51107 0.0328 0.0
O772 O 0.60631 0.48192 0.02808 0.0
Mg773 Mg 0.5901 0.41912 0.04028 0.0
Mg774 Mg 0.65908 0.52747 0.05014 0.0
C775 C 0.62062 0.59061 0.09061 0.0
C776 C 0.63402 0.57385 0.97693 0.0
O777 O 0.43538 0.52538 0.03084 0.0
O778 O 0.48011 0.57835 0.06808 0.0
O779 O 0.52695 0.56392 0.99984 0.0
O780 O 0.54931 0.63726 1.00135 0.0
O781 O 0.59264 0.60561 0.08835 0.0
O782 O 0.62035 0.56286 0.06863 0.0
C783 C 0.50199 0.4525 0.08723 0.0
O784 O 0.53983 0.4646 0.08165 0.0
O785 O 0.47703 0.46168 0.06436 0.0
O786 O 0.68993 0.48726 0.02609 0.0
O787 O 0.6412 0.41628 0.01712 0.0
O788 O 0.64969 0.48437 0.10223 0.0
C789 C 0.67783 0.44768 0.01383 0.0
O790 O 0.59818 0.41463 0.09829 0.0
O791 O 0.5292 0.39557 1.00883 0.0
C792 C 0.62605 0.44594 0.11664 0.0
O793 O 0.51886 0.4598 0.99831 0.0
O794 O 0.59663 0.55643 0.98499 0.0
O795 O 0.66301 0.56827 0.99708 0.0
C796 C 0.95508 0.56511 0.54642 0.0
C797 C 1.01216 0.5552 0.4509 0.0
C798 C 1.01566 0.40784 0.50446 0.0
Mg799 Mg 0.04399 0.58961 0.52467 0.0
O800 O 1.02917 0.53039 0.54634 0.0
Mg801 Mg 0.97918 0.4816 0.52316 0.0
Mg802 Mg 0.07032 0.5049 0.5445 0.0
O803 O 0.11208 0.48099 0.54116 0.0
Mg804 Mg 0.10037 0.41933 0.54931 0.0
Mg805 Mg 0.16141 0.5286 0.56632 0.0
C806 C 0.12578 0.60361 0.57526 0.0
C807 C 0.13971 0.57367 0.48808 0.0
O808 O 0.94409 0.52297 0.54024 0.0
O809 O 0.99141 0.59604 0.5411 0.0
O810 O 0.98833 0.51886 0.46774 0.0
O811 O 1.03996 0.58819 0.46749 0.0
O812 O 0.10321 0.62027 0.55533 0.0
O813 O 0.11713 0.56063 0.57876 0.0
C814 C 1.00087 0.43879 0.60063 0.0
O815 O 1.03974 0.45785 0.59527 0.0
O816 O 0.97371 0.44379 0.57752 0.0
O817 O 0.19996 0.49475 0.54813 0.0
O818 O 0.15729 0.42363 0.53289 0.0
O819 O 0.15363 0.4794 0.61945 0.0
C820 C 0.19341 0.45657 0.53612 0.0
O821 O 0.10552 0.40991 0.60614 0.0
O822 O 0.04147 0.39029 0.5156 0.0
C823 C 0.13178 0.43698 0.62843 0.0
O824 O 1.02223 0.44816 0.51194 0.0
O825 O 0.10093 0.55188 0.49348 0.0
O826 O 0.16758 0.57157 0.512 0.0
C827 C 0.46203 0.08991 0.54482 0.0
C828 C 0.47148 0.09722 0.44164 0.0
C829 C 0.48721 0.91423 0.4948 0.0
Mg830 Mg 0.54188 0.10684 0.50914 0.0
O831 O 0.52428 0.04373 0.52274 0.0
Mg832 Mg 0.46541 1.00342 0.50597 0.0
Mg833 Mg 0.55797 1.00435 0.52167 0.0
O834 O 0.59112 0.96487 0.51642 0.0
Mg835 Mg 0.57767 0.90139 0.51898 0.0
Mg836 Mg 0.65154 0.00546 0.52324 0.0
C837 C 0.62917 0.09639 0.55369 0.0
C838 C 0.61904 0.0554 0.4569 0.0
O839 O 0.44386 0.05057 0.53168 0.0
O840 O 0.5009 0.11493 0.54289 0.0
O841 O 0.45751 0.05375 0.45184 0.0
O842 O 0.50636 0.12431 0.45726 0.0
O843 O 0.60515 0.11597 0.53915 0.0
O844 O 0.61987 0.05311 0.55052 0.0
C845 C 0.48567 0.94982 0.58276 0.0
O846 O 0.52429 0.96253 0.57668 0.0
O847 O 0.46154 0.96068 0.55984 0.0
O848 O 0.67255 0.95615 0.48622 0.0
O849 O 0.6144 0.89348 0.47694 0.0
O850 O 0.65998 0.96291 0.57496 0.0
C851 C 0.65269 0.91759 0.47061 0.0
O852 O 0.61261 0.89082 0.57229 0.0
O853 O 0.5097 0.89118 0.50402 0.0
C854 C 0.64558 0.9212 0.58773 0.0
O855 O 0.50181 0.95811 0.49211 0.0
O856 O 0.58425 0.04578 0.46905 0.0
O857 O 0.6457 0.04293 0.47346 0.0
H858 H 0.15935 0.15924 0.31724 0.0
H859 H 0.19552 0.28598 0.36664 0.0
H860 H 0.15174 0.24535 0.41523 0.0
H861 H 0.1163 0.17276 0.44981 0.0
H862 H 0.08399 0.04566 0.40302 0.0
H863 H 0.11232 0.08717 0.34702 0.0
C864 C 0.15648 0.17822 0.33791 0.0
C865 C 0.18132 0.22554 0.33862 0.0
C866 C 0.1324 0.15432 0.3666 0.0
C867 C 0.1772 0.24951 0.36568 0.0
C868 C 0.15234 0.22624 0.39363 0.0
C869 C 0.1141 0.15433 0.42677 0.0
C870 C 0.09819 0.1065 0.43017 0.0
C871 C 0.13175 0.17847 0.39536 0.0
C872 C 0.09585 0.08257 0.40064 0.0
C873 C 0.11241 0.10634 0.36883 0.0
H874 H 0.89002 0.04658 0.29879 0.0
H875 H 1.00644 0.16282 0.28659 0.0
H876 H 1.03256 0.1446 0.3463 0.0
H877 H 1.01474 0.10822 0.40617 0.0
H878 H 0.8955 0.99579 0.41981 0.0
H879 H 0.87734 1.00016 0.35557 0.0
C880 C 0.92176 0.06633 0.30871 0.0
C881 C 0.94629 0.10599 0.28894 0.0
C882 C 0.93507 0.05771 0.34389 0.0
C883 C 0.98732 0.13193 0.30156 0.0
C884 C 1.0018 0.12211 0.33595 0.0
C885 C 0.98503 0.0843 0.39497 0.0
C886 C 0.95588 0.05287 0.41765 0.0
C887 C 0.97475 0.08723 0.35816 0.0
C888 C 0.91803 0.02102 0.40286 0.0
C889 C 0.90765 0.02344 0.36617 0.0
H890 H 0.8393 0.81984 0.4197 0.0
H891 H 0.93665 0.84096 0.35279 0.0
H892 H 0.98843 0.87003 0.40278 0.0
H893 H 1.00621 0.89443 0.4639 0.0
H894 H 0.91045 0.88429 0.52811 0.0
H895 H 0.8573 0.84489 0.48107 0.0
C896 C 0.87185 0.83053 0.4162 0.0
C897 C 0.88432 0.82832 0.38276 0.0
C898 C 0.90143 0.84862 0.44467 0.0
C899 C 0.92649 0.8426 0.37833 0.0
C900 C 0.95601 0.85903 0.40688 0.0
C901 C 0.97357 0.88224 0.46788 0.0
C902 C 0.96176 0.89054 0.49954 0.0
C903 C 0.94384 0.86261 0.43999 0.0
C904 C 0.91976 0.87681 0.50416 0.0
C905 C 0.88962 0.8549 0.47718 0.0
H906 H 0.22969 0.85976 0.4679 0.0
H907 H 0.20754 0.93497 0.37225 0.0
H908 H 0.20699 0.99254 0.40806 0.0
H909 H 0.19663 0.01158 0.46611 0.0
H910 H 0.20717 0.92939 0.56108 0.0
H911 H 0.22896 0.8851 0.52644 0.0
C912 C 0.22504 0.88891 0.45486 0.0
C913 C 0.21766 0.89226 0.41747 0.0
C914 C 0.22248 0.9207 0.4757 0.0
C915 C 0.21324 0.93122 0.40096 0.0
C916 C 0.21256 0.96413 0.42147 0.0
C917 C 0.20555 0.9853 0.47934 0.0
C918 C 0.20049 0.97359 0.5159 0.0
C919 C 0.21499 0.95795 0.45884 0.0
C920 C 0.21116 0.93893 0.5329 0.0
C921 C 0.22306 0.9133 0.51302 0.0
H922 H 0.23526 0.0603 0.7682 0.0
H923 H 0.15992 0.91824 0.79433 0.0
H924 H 0.11176 0.9164 0.74219 0.0
H925 H 0.10269 0.94997 0.68204 0.0
H926 H 0.18093 0.09142 0.65488 0.0
H927 H 0.2159 0.09896 0.71453 0.0
C928 C 0.20739 0.02951 0.76321 0.0
C929 C 0.20152 0.98906 0.7841 0.0
C930 C 0.18115 0.02824 0.73234 0.0
C931 C 0.16524 0.94939 0.7778 0.0
C932 C 0.13806 0.94826 0.74788 0.0
C933 C 0.12671 0.9827 0.6894 0.0
C934 C 0.14019 0.01954 0.66357 0.0
C935 C 0.1475 0.98657 0.7236 0.0
C936 C 0.17069 0.06207 0.67389 0.0
C937 C 0.19079 0.0665 0.70808 0.0
H938 H 0.24511 0.1971 0.67359 0.0
H939 H 0.15474 0.21847 0.7257 0.0
H940 H 0.10731 0.20042 0.67235 0.0
H941 H 0.09134 0.17788 0.61116 0.0
H942 H 0.1793 0.1522 0.55871 0.0
H943 H 0.229 0.17475 0.61111 0.0
C944 C 0.21459 0.19668 0.67325 0.0
C945 C 0.20233 0.20678 0.70392 0.0
C946 C 0.18805 0.18756 0.64194 0.0
C947 C 0.16357 0.20788 0.70319 0.0
C948 C 0.13699 0.19889 0.6723 0.0
C949 C 0.12202 0.17895 0.6107 0.0
C950 C 0.13218 0.1644 0.5811 0.0
C951 C 0.14907 0.18907 0.64148 0.0
C952 C 0.17136 0.16423 0.58114 0.0
C953 C 0.19943 0.17646 0.61121 0.0
H954 H 0.86517 0.13895 0.68346 0.0
H955 H 0.83278 1.00035 0.72772 0.0
H956 H 0.8511 0.98162 0.67327 0.0
H957 H 0.87972 0.00563 0.61439 0.0
H958 H 0.91045 0.14388 0.5706 0.0
H959 H 0.88605 0.1604 0.62274 0.0
C960 C 0.86049 0.10406 0.6811 0.0
C961 C 0.84755 0.07134 0.71023 0.0
C962 C 0.86987 0.09302 0.64932 0.0
C963 C 0.8434 0.02679 0.70637 0.0
C964 C 0.85335 0.01576 0.67495 0.0
C965 C 0.87992 0.03899 0.61569 0.0
C966 C 0.8969 0.0735 0.58848 0.0
C967 C 0.86699 0.04872 0.64636 0.0
C968 C 0.89751 0.11671 0.59104 0.0
C969 C 0.8839 0.12629 0.62103 0.0
H970 H 0.95303 0.85714 0.74763 0.0
H971 H 0.89643 0.94909 0.75662 0.0
H972 H 0.93807 1.00166 0.71088 0.0
H973 H 0.97468 0.00995 0.65793 0.0
H974 H 1.02552 0.91443 0.64419 0.0
H975 H 1.00268 0.87495 0.70217 0.0
C976 C 0.95102 0.8895 0.74039 0.0
C977 C 0.92091 0.89863 0.75457 0.0
C978 C 0.97342 0.91838 0.71259 0.0
C979 C 0.91914 0.94105 0.74588 0.0
C980 C 0.94255 0.9709 0.7193 0.0
C981 C 0.98208 0.98153 0.66846 0.0
C982 C 1.00129 0.9646 0.64723 0.0
C983 C 0.96739 0.95821 0.70083 0.0
C984 C 1.01092 0.92793 0.66051 0.0
C985 C 0.99749 0.90519 0.69341 0.0
H986 H 0.2596 0.06986 0.16192 0.0
H987 H 0.35538 0.08252 0.24617 0.0
H988 H 0.40615 0.10214 0.20199 0.0
H989 H 0.42348 0.1167 0.13948 0.0
H990 H 0.32723 0.09825 0.05474 0.0
H991 H 0.27636 0.08055 0.0989 0.0
C992 C 0.29153 0.07644 0.17044 0.0
C993 C 0.30381 0.07452 0.20713 0.0
C994 C 0.32043 0.08732 0.14486 0.0
C995 C 0.34519 0.08317 0.21803 0.0
C996 C 0.37426 0.09486 0.19282 0.0
C997 C 0.39143 0.10938 0.13077 0.0
C998 C 0.37909 0.10972 0.09407 0.0
C999 C 0.3623 0.0974 0.15621 0.0
C1000 C 0.33735 0.09875 0.08293 0.0
C1001 C 0.30834 0.0884 0.10814 0.0
H1002 H 0.82202 0.34427 0.19939 0.0
H1003 H 0.89596 0.41333 0.29105 0.0
H1004 H 0.94769 0.46849 0.25196 0.0
H1005 H 0.96941 0.49849 0.19055 0.0
H1006 H 0.89673 0.42287 0.10089 0.0
H1007 H 0.8475 0.36707 0.14055 0.0
C1008 C 0.84982 0.3705 0.21098 0.0
C1009 C 0.85611 0.37395 0.24793 0.0
C1010 C 0.87972 0.40052 0.18868 0.0
C1011 C 0.8914 0.40959 0.2625 0.0
C1012 C 0.92083 0.44097 0.24024 0.0
C1013 C 0.94369 0.46874 0.18013 0.0
C1014 C 0.93659 0.46419 0.14317 0.0
C1015 C 0.91534 0.4367 0.20318 0.0
C1016 C 0.90275 0.42636 0.12948 0.0
C1017 C 0.87427 0.39501 0.15197 0.0
H1018 H 0.71284 0.0283 0.24262 0.0
H1019 H 0.65908 0.88369 0.22755 0.0
H1020 H 0.60145 0.89069 0.19022 0.0
H1021 H 0.57571 0.94097 0.15181 0.0
H1022 H 0.63045 0.0853 0.16725 0.0
H1023 H 0.6767 0.07462 0.21639 0.0
C1024 C 0.6879 0.99782 0.23242 0.0
C1025 C 0.69137 0.95587 0.23674 0.0
C1026 C 0.65482 1.00202 0.21103 0.0
C1027 C 0.65832 0.9169 0.22329 0.0
C1028 C 0.62507 0.92075 0.20217 0.0
C1029 C 0.5965 0.96972 0.16695 0.0
C1030 C 0.60069 0.01401 0.15526 0.0
C1031 C 0.6243 0.96363 0.19422 0.0
C1032 C 0.62737 0.05094 0.17534 0.0
C1033 C 0.65414 0.04495 0.20321 0.0
H1034 H 0.21636 0.65999 0.2385 0.0
H1035 H 0.30399 0.74524 0.16346 0.0
H1036 H 0.2508 0.71961 0.11382 0.0
H1037 H 0.17606 0.6865 0.09456 0.0
H1038 H 0.08788 0.61542 0.17311 0.0
H1039 H 0.14374 0.62335 0.21925 0.0
C1040 C 0.224 0.67087 0.211 0.0
C1041 C 0.26327 0.70383 0.20402 0.0
C1042 C 0.19246 0.66075 0.18376 0.0
C1043 C 0.27358 0.71908 0.1688 0.0
C1044 C 0.243 0.70548 0.14072 0.0
C1045 C 0.16961 0.67349 0.12195 0.0
C1046 C 0.12883 0.65222 0.13139 0.0
C1047 C 0.20181 0.67903 0.14832 0.0
C1048 C 0.1197 0.63357 0.16623 0.0
C1049 C 0.15137 0.63725 0.19226 0.0
H1050 H 0.37723 0.91199 0.85082 0.0
H1051 H 0.36527 0.7837 0.90629 0.0
H1052 H 0.39916 0.82365 0.96074 0.0
H1053 H 0.43367 0.8959 0.99117 0.0
H1054 H 0.43785 0.0213 0.93512 0.0
H1055 H 0.40229 0.98032 0.88246 0.0
C1056 C 0.38101 0.89214 0.87484 0.0
C1057 C 0.36853 0.84479 0.87447 0.0
C1058 C 0.39804 0.91461 0.90605 0.0
C1059 C 0.37498 0.82027 0.9058 0.0
C1060 C 0.39384 0.84299 0.93696 0.0
C1061 C 0.42589 0.91402 0.96769 0.0
C1062 C 0.43899 0.96174 0.96686 0.0
C1063 C 0.40546 0.89023 0.9373 0.0
C1064 C 0.42822 0.98468 0.93651 0.0
C1065 C 0.40828 0.96137 0.90621 0.0
H1066 H 0.24546 0.45184 0.93903 0.0
H1067 H 0.13511 0.33365 0.90862 0.0
H1068 H 0.09517 0.35382 0.94625 0.0
H1069 H 0.09123 0.40621 0.98594 0.0
H1070 H 0.20128 0.5257 0.01509 0.0
H1071 H 0.24164 0.50399 0.97921 0.0
C1072 C 0.21262 0.43063 0.94052 0.0
C1073 C 0.19322 0.3914 0.92106 0.0
C1074 C 0.18977 0.4428 0.96166 0.0
C1075 C 0.15084 0.36374 0.92371 0.0
C1076 C 0.12793 0.37544 0.94495 0.0
C1077 C 0.12401 0.42765 0.98443 0.0
C1078 C 0.1431 0.46758 1.00311 0.0
C1079 C 0.14703 0.4151 0.96376 0.0
C1080 C 0.18572 0.49477 1.00097 0.0
C1081 C 0.20886 0.48244 0.98046 0.0
H1082 H 0.7439 0.29424 0.88303 0.0
H1083 H 0.66726 0.21744 0.79582 0.0
H1084 H 0.61302 0.17131 0.83633 0.0
H1085 H 0.59095 0.14777 0.8991 0.0
H1086 H 0.66577 0.23299 0.98346 0.0
H1087 H 0.71665 0.28073 0.94187 0.0
C1088 C 0.7156 0.26678 0.87308 0.0
C1089 C 0.71101 0.25646 0.8372 0.0
C1090 C 0.68401 0.24202 0.89617 0.0
C1091 C 0.67273 0.22364 0.82398 0.0
C1092 C 0.64143 0.19783 0.84704 0.0
C1093 C 0.61751 0.1778 0.90798 0.0
C1094 C 0.62439 0.18664 0.94452 0.0
C1095 C 0.64711 0.20584 0.88358 0.0
C1096 C 0.65953 0.22545 0.95554 0.0
C1097 C 0.68904 0.25254 0.93185 0.0
H1098 H 0.93253 0.79545 0.86323 0.0
H1099 H 0.81274 0.68245 0.85366 0.0
H1100 H 0.83305 0.6411 0.90501 0.0
H1101 H 0.88517 0.63627 0.95377 0.0
H1102 H 1.00456 0.7504 0.96442 0.0
H1103 H 0.98428 0.79118 0.91281 0.0
C1104 C 0.91062 0.762 0.87262 0.0
C1105 C 0.87027 0.7431 0.8547 0.0
C1106 C 0.92272 0.7381 0.9028 0.0
C1107 C 0.84327 0.69887 0.8671 0.0
C1108 C 0.85514 0.67493 0.89658 0.0
C1109 C 0.90707 0.66996 0.94483 0.0
C1110 C 0.94699 0.68945 0.9637 0.0
C1111 C 0.89483 0.69403 0.91485 0.0
C1112 C 0.97396 0.7337 0.9511 0.0
C1113 C 0.96224 0.75735 0.92128 0.0
H1114 H 0.20401 0.37674 0.26441 0.0
H1115 H 0.23802 0.32442 0.17971 0.0
H1116 H 0.19648 0.35334 0.13625 0.0
H1117 H 0.15028 0.39739 0.11988 0.0
H1118 H 0.12566 0.45895 0.20462 0.0
H1119 H 0.16239 0.4243 0.24803 0.0
C1120 C 0.20191 0.37028 0.23654 0.0
C1121 C 0.22281 0.34327 0.22734 0.0
C1122 C 0.17906 0.39019 0.21051 0.0
C1123 C 0.22051 0.34013 0.18981 0.0
C1124 C 0.19696 0.35826 0.16424 0.0
C1125 C 0.15228 0.40325 0.14786 0.0
C1126 C 0.13277 0.43154 0.15754 0.0
C1127 C 0.17564 0.38354 0.17383 0.0
C1128 C 0.13852 0.43803 0.19473 0.0
C1129 C 0.16013 0.41773 0.22017 0.0
H1130 H 0.14866 0.69976 0.84027 0.0
H1131 H 0.27124 0.73347 0.89126 0.0
H1132 H 0.24216 0.7024 0.94883 0.0
H1133 H 0.18186 0.66263 0.98544 0.0
H1134 H 0.05881 0.63171 0.93643 0.0
H1135 H 0.08774 0.66481 0.87867 0.0
C1136 C 0.16909 0.70078 0.86404 0.0
C1137 C 0.21266 0.71975 0.86077 0.0
C1138 C 0.15184 0.68312 0.89796 0.0
C1139 C 0.23801 0.72006 0.89236 0.0
C1140 C 0.2212 0.70198 0.92557 0.0
C1141 C 0.16106 0.66336 0.96233 0.0
C1142 C 0.11758 0.64405 0.96621 0.0
C1143 C 0.17815 0.68302 0.92885 0.0
C1144 C 0.09207 0.64609 0.9352 0.0
C1145 C 0.10879 0.66496 0.90178 0.0
H1146 H 0.4034 0.28572 0.84631 0.0
H1147 H 0.30757 0.15858 0.81258 0.0
H1148 H 0.33636 0.11651 0.8574 0.0
H1149 H 0.38726 0.11675 0.90911 0.0
H1150 H 0.48365 0.24642 0.93962 0.0
H1151 H 0.4557 0.28629 0.89378 0.0
C1152 C 0.38805 0.24875 0.8495 0.0
C1153 C 0.35178 0.22536 0.82794 0.0
C1154 C 0.405 0.22517 0.87487 0.0
C1155 C 0.33417 0.17741 0.83029 0.0
C1156 C 0.35104 0.15341 0.8556 0.0
C1157 C 0.40257 0.15365 0.90535 0.0
C1158 C 0.43758 0.17829 0.9283 0.0
C1159 C 0.38616 0.17697 0.87856 0.0
C1160 C 0.4567 0.22623 0.9228 0.0
C1161 C 0.44063 0.24931 0.89656 0.0
H1162 H 0.85464 0.42231 0.8685 0.0
H1163 H 0.83968 0.28884 0.91357 0.0
H1164 H 0.87338 0.32023 0.97025 0.0
H1165 H 0.912 0.3866 1.00655 0.0
H1166 H 0.92417 0.5202 0.96382 0.0
H1167 H 0.88588 0.48788 0.90799 0.0
C1168 C 0.85844 0.39989 0.89072 0.0
C1169 C 0.84572 0.35283 0.88565 0.0
C1170 C 0.87726 0.41843 0.92423 0.0
C1171 C 0.85046 0.32498 0.91554 0.0
C1172 C 0.86946 0.34306 0.94842 0.0
C1173 C 0.90563 0.40872 0.98539 0.0
C1174 C 0.92141 0.45616 0.98997 0.0
C1175 C 0.88377 0.38988 0.95298 0.0
C1176 C 0.91239 0.48369 0.96178 0.0
C1177 C 0.89078 0.46518 0.92943 0.0
H1178 H 0.69532 0.91049 0.92403 0.0
H1179 H 0.78495 0.04733 0.89803 0.0
H1180 H 0.76418 0.07528 0.94632 0.0
H1181 H 0.71229 0.06296 0.98948 0.0
H1182 H 0.62415 0.92517 0.01529 0.0
H1183 H 0.65289 0.89612 0.97407 0.0
C1184 C 0.71091 0.94637 0.92922 0.0
C1185 C 0.741 0.97678 0.90675 0.0
C1186 C 0.69834 0.96256 0.95663 0.0
C1187 C 0.76074 0.02321 0.91411 0.0
C1188 C 0.74877 0.03939 0.94171 0.0
C1189 C 0.69994 0.02657 0.98657 0.0
C1190 C 0.66517 0.99667 1.0047 0.0
C1191 C 0.71632 0.00974 0.96218 0.0
C1192 C 0.65023 0.94935 1.00114 0.0
C1193 C 0.66655 0.93252 0.97739 0.0
H1194 H 0.90123 0.75749 0.24073 0.0
H1195 H 0.77446 0.6644 0.21768 0.0
H1196 H 0.79473 0.63292 0.17137 0.0
H1197 H 0.84953 0.62742 0.13659 0.0
H1198 H 0.97669 0.72035 0.16096 0.0
H1199 H 0.95549 0.75392 0.2048 0.0
C1200 C 0.87749 0.73152 0.22487 0.0
C1201 C 0.8349 0.71671 0.23249 0.0
C1202 C 0.8899 0.71174 0.19763 0.0
C1203 C 0.80672 0.68 0.2121 0.0
C1204 C 0.81865 0.66081 0.18542 0.0
C1205 C 0.87303 0.65504 0.15118 0.0
C1206 C 0.91578 0.66997 0.1437 0.0
C1207 C 0.86036 0.67576 0.17768 0.0
C1208 C 0.94389 0.70652 0.16445 0.0
C1209 C 0.93163 0.72645 0.19029 0.0
H1210 H 0.44093 0.9175 0.24472 0.0
H1211 H 0.32514 0.83029 0.19152 0.0
H1212 H 0.34476 0.87436 0.13551 0.0
H1213 H 0.39491 0.9378 0.1004 0.0
H1214 H 0.51405 0.02192 0.15064 0.0
H1215 H 0.49379 0.97884 0.20809 0.0
C1216 C 0.4198 0.90852 0.22093 0.0
C1217 C 0.38024 0.87172 0.22338 0.0
C1218 C 0.43237 0.93328 0.18777 0.0
C1219 C 0.35443 0.85954 0.19166 0.0
C1220 C 0.36607 0.88454 0.15909 0.0
C1221 C 0.41664 0.94671 0.12384 0.0
C1222 C 0.45611 0.98324 0.1209 0.0
C1223 C 0.40487 0.92156 0.15676 0.0
C1224 C 0.48373 0.99377 0.15175 0.0
C1225 C 0.47195 0.9693 0.18479 0.0
H1226 H 0.75813 0.26041 0.16009 0.0
H1227 H 0.68583 0.30476 0.21748 0.0
H1228 H 0.63106 0.28308 0.1694 0.0
H1229 H 0.59796 0.23727 0.11797 0.0
H1230 H 0.66558 0.18197 0.06536 0.0
H1231 H 0.72732 0.22061 0.10504 0.0
C1232 C 0.73029 0.26479 0.16235 0.0
C1233 C 0.72524 0.28153 0.19343 0.0
C1234 C 0.69757 0.24915 0.13581 0.0
C1235 C 0.69024 0.29058 0.19445 0.0
C1236 C 0.65862 0.27782 0.16705 0.0
C1237 C 0.62644 0.23425 0.11482 0.0
C1238 C 0.62713 0.20619 0.08928 0.0
C1239 C 0.661 0.25469 0.13874 0.0
C1240 C 0.66412 0.20254 0.08542 0.0
C1241 C 0.6994 0.22471 0.10806 0.0
H1242 H 0.68022 0.71396 0.8456 0.0
H1243 H 0.74279 0.6322 0.82402 0.0
H1244 H 0.71036 0.57704 0.87268 0.0
H1245 H 0.67537 0.56079 0.92805 0.0
H1246 H 0.612 0.64155 0.94936 0.0
H1247 H 0.63411 0.68919 0.8941 0.0
C1248 C 0.68586 0.68343 0.85104 0.0
C1249 C 0.71481 0.67778 0.83241 0.0
C1250 C 0.66804 0.65264 0.87949 0.0
C1251 C 0.72108 0.63758 0.83862 0.0
C1252 C 0.70298 0.60632 0.86666 0.0
C1253 C 0.66624 0.58864 0.92022 0.0
C1254 C 0.64354 0.59918 0.94264 0.0
C1255 C 0.67843 0.61505 0.88845 0.0
C1256 C 0.63031 0.63395 0.93232 0.0
C1257 C 0.64276 0.66088 0.90087 0.0
H1258 H 0.34912 0.55866 0.9084 0.0
H1259 H 0.35998 0.66669 0.97152 0.0
H1260 H 0.42862 0.67414 0.99679 0.0
H1261 H 0.48627 0.6526 0.99809 0.0
H1262 H 0.47504 0.54235 0.93703 0.0
H1263 H 0.40541 0.53312 0.91307 0.0
C1264 C 0.36622 0.58276 0.92853 0.0
C1265 C 0.34993 0.61173 0.9387 0.0
C1266 C 0.40563 0.58721 0.94231 0.0
C1267 C 0.37205 0.6436 0.96411 0.0
C1268 C 0.41141 0.64839 0.97792 0.0
C1269 C 0.46891 0.6271 0.97902 0.0
C1270 C 0.4859 0.59894 0.96842 0.0
C1271 C 0.42878 0.62108 0.96654 0.0
C1272 C 0.4626 0.5649 0.94484 0.0
C1273 C 0.42281 0.55936 0.93152 0.0
H1274 H 0.35963 0.29361 0.89479 0.0
H1275 H 0.38376 0.42323 0.83633 0.0
H1276 H 0.43646 0.46209 0.88366 0.0
H1277 H 0.47782 0.45777 0.93941 0.0
H1278 H 0.45715 0.3265 0.99401 0.0
H1279 H 0.39995 0.28898 0.94983 0.0
C1280 C 0.37595 0.33034 0.89234 0.0
C1281 C 0.36794 0.35548 0.86203 0.0
C1282 C 0.40667 0.3518 0.91879 0.0
C1283 C 0.38979 0.40314 0.85927 0.0
C1284 C 0.41974 0.42524 0.88629 0.0
C1285 C 0.46038 0.42098 0.94196 0.0
C1286 C 0.47129 0.39476 0.96999 0.0
C1287 C 0.42875 0.39972 0.91588 0.0
C1288 C 0.44912 0.34719 0.97266 0.0
C1289 C 0.41657 0.32586 0.94747 0.0
H1290 H 0.71423 0.39163 0.87439 0.0
H1291 H 0.7639 0.53769 0.85267 0.0
H1292 H 0.76126 0.54784 0.91536 0.0
H1293 H 0.73227 0.51466 0.97249 0.0
H1294 H 0.67548 0.36825 0.99281 0.0
H1295 H 0.69482 0.35871 0.93523 0.0
C1296 C 0.72548 0.42565 0.88372 0.0
C1297 C 0.73864 0.46384 0.85902 0.0
C1298 C 0.72237 0.4311 0.91957 0.0
C1299 C 0.75308 0.50781 0.87123 0.0
C1300 C 0.75156 0.5136 0.90703 0.0
C1301 C 0.72548 0.48067 0.96503 0.0
C1302 C 0.70204 0.4422 0.98682 0.0
C1303 C 0.73446 0.47541 0.93103 0.0
C1304 C 0.69329 0.39843 0.97646 0.0
C1305 C 0.70394 0.39295 0.94333 0.0
H1306 H 0.67292 0.38559 0.27199 0.0
H1307 H 0.74136 0.5316 0.27586 0.0
H1308 H 0.7071 0.54295 0.21798 0.0
H1309 H 0.66588 0.51087 0.16341 0.0
H1310 H 0.60259 0.36459 0.15711 0.0
H1311 H 0.62673 0.35362 0.21932 0.0
C1312 C 0.68038 0.41993 0.26011 0.0
C1313 C 0.71052 0.45774 0.27748 0.0
C1314 C 0.66177 0.42596 0.22652 0.0
C1315 C 0.71863 0.50206 0.2627 0.0
C1316 C 0.69923 0.50846 0.22961 0.0
C1317 C 0.657 0.4765 0.17569 0.0
C1318 C 0.6333 0.43847 0.15552 0.0
C1319 C 0.67202 0.47058 0.2108 0.0
C1320 C 0.62106 0.3943 0.17205 0.0
C1321 C 0.63505 0.38807 0.20748 0.0
H1322 H 0.76029 0.73249 0.18311 0.0
H1323 H 0.65569 0.69753 0.24519 0.0
H1324 H 0.61377 0.63546 0.20727 0.0
H1325 H 0.60644 0.59195 0.15698 0.0
H1326 H 0.70561 0.63265 0.08801 0.0
H1327 H 0.75198 0.68885 0.13037 0.0
C1328 C 0.72822 0.71165 0.18803 0.0
C1329 C 0.7113 0.71897 0.21737 0.0
C1330 C 0.70428 0.67568 0.16614 0.0
C1331 C 0.66951 0.69218 0.22306 0.0
C1332 C 0.6457 0.65634 0.20171 0.0
C1333 C 0.63863 0.61236 0.15172 0.0
C1334 C 0.65283 0.60837 0.11971 0.0
C1335 C 0.66303 0.64738 0.17372 0.0
C1336 C 0.69434 0.63474 0.11287 0.0
C1337 C 0.72031 0.66768 0.13652 0.0
H1338 H 0.3474 0.6486 0.10841 0.0
H1339 H 0.41305 0.62605 0.20695 0.0
H1340 H 0.42662 0.56997 0.18009 0.0
H1341 H 0.43547 0.54275 0.12568 0.0
H1342 H 0.37787 0.57045 0.02506 0.0
H1343 H 0.34543 0.60879 0.05533 0.0
C1344 C 0.36435 0.63114 0.12413 0.0
C1345 C 0.37997 0.64271 0.15951 0.0
C1346 C 0.3741 0.60031 0.10789 0.0
C1347 C 0.40044 0.61824 0.1798 0.0
C1348 C 0.40869 0.58627 0.16432 0.0
C1349 C 0.41443 0.55565 0.11064 0.0
C1350 C 0.41 0.55551 0.07325 0.0
C1351 C 0.39779 0.57914 0.12798 0.0
C1352 C 0.38236 0.5714 0.05383 0.0
C1353 C 0.36419 0.59357 0.07116 0.0
H1354 H 0.40129 0.30437 0.20204 0.0
H1355 H 0.35034 0.40317 0.204 0.0
H1356 H 0.40034 0.45585 0.1636 0.0
H1357 H 0.45568 0.47248 0.12573 0.0
H1358 H 0.50761 0.37551 0.12096 0.0
H1359 H 0.46136 0.32393 0.16573 0.0
C1360 C 0.40111 0.33726 0.1932 0.0
C1361 C 0.37206 0.34988 0.20543 0.0
C1362 C 0.43061 0.36792 0.17033 0.0
C1363 C 0.3724 0.39285 0.19465 0.0
C1364 C 0.40107 0.42305 0.17179 0.0
C1365 C 0.45747 0.44044 0.13516 0.0
C1366 C 0.48467 0.4275 0.12041 0.0
C1367 C 0.43012 0.41089 0.15948 0.0
C1368 C 0.48708 0.38617 0.13253 0.0
C1369 C 0.4602 0.3565 0.15756 0.0
H1370 H 0.89357 0.6528 0.6534 0.0
H1371 H 0.81682 0.51106 0.68073 0.0
H1372 H 0.83837 0.48917 0.62952 0.0
H1373 H 0.88767 0.50874 0.58306 0.0
H1374 H 0.96348 0.65092 0.55572 0.0
H1375 H 0.93381 0.67347 0.60084 0.0
C1376 C 0.8813 0.61702 0.64808 0.0
C1377 C 0.85425 0.58363 0.67141 0.0
C1378 C 0.89451 0.60433 0.61907 0.0
C1379 C 0.83868 0.53747 0.66394 0.0
C1380 C 0.85111 0.52478 0.63471 0.0
C1381 C 0.89693 0.54468 0.58627 0.0
C1382 C 0.92846 0.57793 0.56635 0.0
C1383 C 0.88023 0.55767 0.61288 0.0
C1384 C 0.93977 0.6244 0.57093 0.0
C1385 C 0.92301 0.63745 0.59696 0.0
H1386 H 0.40869 0.89 0.73583 0.0
H1387 H 0.30718 0.79638 0.67149 0.0
H1388 H 0.34829 0.8216 0.61979 0.0
H1389 H 0.41079 0.87607 0.59024 0.0
H1390 H 0.51516 0.96734 0.65367 0.0
H1391 H 0.47642 0.93715 0.70746 0.0
C1392 C 0.39595 0.87404 0.71082 0.0
C1393 C 0.35413 0.84038 0.70826 0.0
C1394 C 0.42061 0.88887 0.68048 0.0
C1395 C 0.3386 0.8218 0.67487 0.0
C1396 C 0.36239 0.83645 0.64499 0.0
C1397 C 0.42571 0.88869 0.61596 0.0
C1398 C 0.46656 0.92411 0.61729 0.0
C1399 C 0.40308 0.87082 0.64707 0.0
C1400 C 0.48446 0.93981 0.65128 0.0
C1401 C 0.46187 0.92273 0.68222 0.0
H1402 H 0.16234 0.29217 0.73489 0.0
H1403 H 0.27995 0.40356 0.75825 0.0
H1404 H 0.257 0.45623 0.71935 0.0
H1405 H 0.20447 0.46724 0.6731 0.0
H1406 H 0.08357 0.3552 0.65995 0.0
H1407 H 0.10668 0.30624 0.70091 0.0
C1408 C 0.18343 0.3278 0.73087 0.0
C1409 C 0.22431 0.34314 0.74638 0.0
C1410 C 0.1691 0.35772 0.7105 0.0
C1411 C 0.24971 0.39022 0.7438 0.0
C1412 C 0.23613 0.42039 0.72227 0.0
C1413 C 0.18276 0.43262 0.68011 0.0
C1414 C 0.14249 0.41476 0.66243 0.0
C1415 C 0.19611 0.40417 0.70451 0.0
C1416 C 0.11489 0.36981 0.67235 0.0
C1417 C 0.12815 0.3415 0.69565 0.0
H1418 H 0.74163 0.16571 0.69908 0.0
H1419 H 0.70012 0.27325 0.67385 0.0
H1420 H 0.66576 0.24031 0.61774 0.0
H1421 H 0.64498 0.18029 0.5763 0.0
H1422 H 0.68091 0.06845 0.60147 0.0
H1423 H 0.72015 0.10398 0.6562 0.0
C1424 C 0.72486 0.18183 0.68142 0.0
C1425 C 0.72431 0.22281 0.691 0.0
C1426 C 0.70426 0.16201 0.64874 0.0
C1427 C 0.70238 0.2428 0.6673 0.0
C1428 C 0.68231 0.22365 0.63506 0.0
C1429 C 0.66169 0.16351 0.59328 0.0
C1430 C 0.65967 0.1213 0.58395 0.0
C1431 C 0.68302 0.18335 0.62541 0.0
C1432 C 0.68179 0.10088 0.60717 0.0
C1433 C 0.70402 0.12111 0.63888 0.0
H1434 H 0.85177 0.32914 0.40359 0.0
H1435 H 0.92155 0.27024 0.35823 0.0
H1436 H 0.97789 0.30092 0.40478 0.0
H1437 H 1.00886 0.34847 0.45623 0.0
H1438 H 0.93929 0.40908 0.49984 0.0
H1439 H 0.881 0.37324 0.45646 0.0
C1440 C 0.87873 0.3219 0.40443 0.0
C1441 C 0.88214 0.29679 0.37786 0.0
C1442 C 0.91121 0.34036 0.4308 0.0
C1443 C 0.91814 0.28934 0.37851 0.0
C1444 C 0.95034 0.30688 0.4051 0.0
C1445 C 0.98067 0.35323 0.45657 0.0
C1446 C 0.97861 0.38187 0.48101 0.0
C1447 C 0.94744 0.33297 0.43111 0.0
C1448 C 0.94208 0.38809 0.48089 0.0
C1449 C 0.9086 0.36735 0.45618 0.0
H1450 H 0.6911 0.82043 0.3431 0.0
H1451 H 0.81562 0.88115 0.39128 0.0
H1452 H 0.79273 0.91293 0.43596 0.0
H1453 H 0.73689 0.92732 0.46227 0.0
H1454 H 0.61194 0.86381 0.41463 0.0
H1455 H 0.63499 0.83107 0.37115 0.0
C1456 C 0.71331 0.83923 0.36399 0.0
C1457 C 0.75561 0.84529 0.36372 0.0
C1458 C 0.69959 0.85855 0.39042 0.0
C1459 C 0.78288 0.87284 0.39074 0.0
C1460 C 0.76965 0.89205 0.41649 0.0
C1461 C 0.71436 0.90655 0.44243 0.0
C1462 C 0.67172 0.89952 0.44293 0.0
C1463 C 0.728 0.88586 0.41678 0.0
C1464 C 0.64455 0.87114 0.41623 0.0
C1465 C 0.65791 0.85184 0.39077 0.0
H1466 H 0.17307 0.66282 0.32813 0.0
H1467 H 0.29526 0.73051 0.37877 0.0
H1468 H 0.27254 0.69052 0.43556 0.0
H1469 H 0.21744 0.63611 0.47213 0.0
H1470 H 0.09302 0.57049 0.42378 0.0
H1471 H 0.11636 0.60982 0.36588 0.0
C1472 C 0.19488 0.66844 0.35151 0.0
C1473 C 0.23694 0.6993 0.34826 0.0
C1474 C 0.18065 0.64576 0.38506 0.0
C1475 C 0.26365 0.70678 0.37953 0.0
C1476 C 0.25029 0.68381 0.41245 0.0
C1477 C 0.1952 0.63032 0.44904 0.0
C1478 C 0.15327 0.60007 0.45284 0.0
C1479 C 0.20883 0.65323 0.41567 0.0
C1480 C 0.12531 0.59368 0.42221 0.0
C1481 C 0.13878 0.61604 0.38883 0.0
H1482 H 0.3198 0.13915 0.35091 0.0
H1483 H 0.41883 0.26551 0.31891 0.0
H1484 H 0.46873 0.24326 0.35698 0.0
H1485 H 0.48676 0.18528 0.4 0.0
H1486 H 0.38715 0.05401 0.42315 0.0
H1487 H 0.3379 0.07977 0.389 0.0
C1488 C 0.35216 0.16291 0.35283 0.0
C1489 C 0.36339 0.20743 0.33383 0.0
C1490 C 0.38201 0.14779 0.37345 0.0
C1491 C 0.4069 0.23398 0.3354 0.0
C1492 C 0.43623 0.22014 0.3568 0.0
C1493 C 0.45439 0.16169 0.39767 0.0
C1494 C 0.4425 0.11627 0.4156 0.0
C1495 C 0.42465 0.17688 0.37633 0.0
C1496 C 0.3993 0.08834 0.41063 0.0
C1497 C 0.37027 0.10348 0.39078 0.0
H1498 H 0.79616 0.9052 0.69003 0.0
H1499 H 0.698 0.79419 0.74203 0.0
H1500 H 0.64643 0.80664 0.69852 0.0
H1501 H 0.62848 0.84995 0.64401 0.0
H1502 H 0.72898 0.96447 0.59631 0.0
H1503 H 0.77874 0.94939 0.63836 0.0
C1504 C 0.76349 0.88347 0.69173 0.0
C1505 C 0.75156 0.84739 0.71868 0.0
C1506 C 0.73371 0.89157 0.66685 0.0
C1507 C 0.70868 0.8209 0.72088 0.0
C1508 C 0.67894 0.8284 0.696 0.0
C1509 C 0.66119 0.87175 0.64285 0.0
C1510 C 0.67402 0.90885 0.61634 0.0
C1511 C 0.69088 0.86357 0.66845 0.0
C1512 C 0.71712 0.93617 0.61611 0.0
C1513 C 0.74618 0.92754 0.6404 0.0
H1514 H 0.75795 0.1929 0.37151 0.0
H1515 H 0.68417 0.11576 0.28329 0.0
H1516 H 0.62952 0.06832 0.32307 0.0
H1517 H 0.60403 0.04945 0.38447 0.0
H1518 H 0.67574 0.13756 0.4682 0.0
H1519 H 0.73076 0.17925 0.42916 0.0
C1520 C 0.72951 0.16641 0.36083 0.0
C1521 C 0.72382 0.15923 0.32455 0.0
C1522 C 0.69793 0.14148 0.38311 0.0
C1523 C 0.68835 0.12258 0.31128 0.0
C1524 C 0.65707 0.09591 0.33384 0.0
C1525 C 0.63028 0.07994 0.39313 0.0
C1526 C 0.63572 0.09105 0.42884 0.0
C1527 C 0.66111 0.10589 0.36975 0.0
C1528 C 0.67061 0.12938 0.44043 0.0
C1529 C 0.70244 0.15268 0.41841 0.0
H1530 H 0.87183 0.53879 0.34813 0.0
H1531 H 0.9226 0.68158 0.36831 0.0
H1532 H 0.99052 0.68226 0.38342 0.0
H1533 H 1.02482 0.63583 0.41386 0.0
H1534 H 0.97022 0.4907 0.40268 0.0
H1535 H 0.91618 0.49745 0.3601 0.0
C1536 C 0.89822 0.57043 0.35441 0.0
C1537 C 0.89177 0.60928 0.35898 0.0
C1538 C 0.9367 0.5698 0.36567 0.0
C1539 C 0.92633 0.65069 0.36549 0.0
C1540 C 0.96534 0.65104 0.37461 0.0
C1541 C 1.00241 0.60608 0.40063 0.0
C1542 C 0.99963 0.56252 0.41297 0.0
C1543 C 0.96959 0.60977 0.37844 0.0
C1544 C 0.97171 0.52446 0.3946 0.0
C1545 C 0.94044 0.52822 0.37058 0.0
H1546 H 0.33461 0.78718 0.41127 0.0
H1547 H 0.34809 0.91729 0.35879 0.0
H1548 H 0.38873 0.95537 0.41179 0.0
H1549 H 0.43866 0.95221 0.45938 0.0
H1550 H 0.43682 0.82266 0.50378 0.0
H1551 H 0.37254 0.78295 0.46746 0.0
C1552 C 0.34527 0.82369 0.41166 0.0
C1553 C 0.34071 0.8499 0.38067 0.0
C1554 C 0.37152 0.84514 0.44043 0.0
C1555 C 0.35273 0.8968 0.38208 0.0
C1556 C 0.37618 0.91844 0.41221 0.0
C1557 C 0.42358 0.91531 0.46249 0.0
C1558 C 0.44322 0.89024 0.48321 0.0
C1559 C 0.38895 0.89318 0.43969 0.0
C1560 C 0.42286 0.84253 0.48708 0.0
C1561 C 0.38621 0.81996 0.46636 0.0
H1562 H 0.28759 0.41386 0.43053 0.0
H1563 H 0.35397 0.56077 0.424 0.0
H1564 H 0.3215 0.56425 0.47671 0.0
H1565 H 0.26479 0.52611 0.51611 0.0
H1566 H 0.19791 0.37917 0.51988 0.0
H1567 H 0.24237 0.37504 0.47755 0.0
C1568 C 0.29649 0.44672 0.44125 0.0
C1569 C 0.32258 0.48718 0.42299 0.0
C1570 C 0.27758 0.44837 0.4709 0.0
C1571 C 0.33303 0.52931 0.43711 0.0
C1572 C 0.31469 0.53124 0.46725 0.0
C1573 C 0.26073 0.49306 0.50852 0.0
C1574 C 0.22733 0.45307 0.52011 0.0
C1575 C 0.28533 0.49108 0.48314 0.0
C1576 C 0.2228 0.41048 0.51055 0.0
C1577 C 0.24806 0.40811 0.48627 0.0
H1578 H 0.33039 0.15391 0.58781 0.0
H1579 H 0.442 0.26988 0.61909 0.0
H1580 H 0.48407 0.23379 0.60154 0.0
H1581 H 0.48909 0.17007 0.57656 0.0
H1582 H 0.37756 0.0532 0.54579 0.0
H1583 H 0.33555 0.08858 0.56435 0.0
C1584 C 0.36393 0.17127 0.59048 0.0
C1585 C 0.38319 0.21451 0.60445 0.0
C1586 C 0.3879 0.15004 0.58079 0.0
C1587 C 0.42661 0.2365 0.60841 0.0
C1588 C 0.45062 0.2159 0.59842 0.0
C1589 C 0.45561 0.15206 0.57413 0.0
C1590 C 0.43664 0.10903 0.55969 0.0
C1591 C 0.4316 0.17269 0.5846 0.0
C1592 C 0.39313 0.08629 0.55689 0.0
C1593 C 0.369 0.10661 0.5673 0.0
H1594 H 0.94543 0.35947 0.7565 0.0
H1595 H 0.83028 0.28993 0.69421 0.0
H1596 H 0.86495 0.31886 0.6392 0.0
H1597 H 0.92524 0.37089 0.60853 0.0
H1598 H 0.04095 0.44467 0.66851 0.0
H1599 H 1.00915 0.40726 0.7245 0.0
C1600 C 0.92821 0.35049 0.73082 0.0
C1601 C 0.88501 0.32399 0.72938 0.0
C1602 C 0.9484 0.3683 0.69887 0.0
C1603 C 0.86319 0.3115 0.69603 0.0
C1604 C 0.88308 0.32785 0.66451 0.0
C1605 C 0.94385 0.37845 0.63379 0.0
C1606 C 0.98533 0.41104 0.63429 0.0
C1607 C 0.92523 0.35751 0.66558 0.0
C1608 C 1.00898 0.41978 0.66729 0.0
C1609 C 0.99068 0.39854 0.69932 0.0
H1610 H 0.23855 0.7675 0.66591 0.0
H1611 H 0.15314 0.68731 0.7441 0.0
H1612 H 0.11558 0.6287 0.70131 0.0
H1613 H 0.11127 0.59802 0.64335 0.0
H1614 H 0.198 0.67788 0.56572 0.0
H1615 H 0.23356 0.73801 0.60768 0.0
C1616 C 0.21127 0.73755 0.67315 0.0
C1617 C 0.19824 0.73152 0.70765 0.0
C1618 C 0.19185 0.70317 0.64934 0.0
C1619 C 0.16277 0.69298 0.71715 0.0
C1620 C 0.14214 0.65905 0.6931 0.0
C1621 C 0.13872 0.6281 0.6362 0.0
C1622 C 0.15333 0.63324 0.60236 0.0
C1623 C 0.1574 0.66313 0.65965 0.0
C1624 C 0.1875 0.67295 0.59229 0.0
C1625 C 0.20711 0.70752 0.61589 0.0
loop_
_geom_bond_atom_site_label_1
_geom_bond_atom_site_label_2
_geom_bond_distance
_geom_bond_site_symmetry_2
_ccdc_geom_bond_type
Gd0 N31 2.661 . S
Gd0 N37 2.601 . S
Gd0 O44 2.545 . S
Gd0 O45 2.606 . S
Gd0 O47 2.429 . S
Gd0 O48 2.545 . S
Gd0 O49 2.412 . S
Gd0 O51 2.362 . S
Gd0 O52 2.324 . S
Gd0 C59 2.828 . S
Gd1 N10 2.661 . S
Gd1 N14 2.601 . S
Gd1 O45 2.362 . S
Gd1 O46 2.324 . S
Gd1 O50 2.545 . S
Gd1 O51 2.606 . S
Gd1 O53 2.429 . S
Gd1 O54 2.545 . S
Gd1 O55 2.412 . S
Gd1 C68 2.828 . S
C2 C5 1.417 . S
C2 C7 1.431 . S
C2 C8 1.412 . S
C3 C6 1.437 . S
C3 C7 1.317 . S
C3 H22 0.929 . S
C4 C5 1.426 . S
C4 C6 1.413 . S
C4 N14 1.359 . S
C5 C2 1.417 . S
C5 C4 1.426 . S
C5 N10 1.350 . S
C6 C3 1.437 . S
C6 C4 1.413 . S
C6 C16 1.391 . S
C7 C2 1.431 . S
C7 C3 1.317 . S
C7 H18 0.930 . S
C8 C2 1.412 . S
C8 C9 1.355 . S
C8 H20 0.930 . S
C9 C8 1.355 . S
C9 C11 1.402 . S
C9 H21 0.930 . S
N10 Gd1 2.661 . S
N10 C5 1.350 . S
N10 C11 1.307 . S
C11 C9 1.402 . S
C11 N10 1.307 . S
C11 H12 0.930 . S
H12 C11 0.930 . S
C13 N14 1.334 . S
C13 C15 1.394 . S
C13 H17 0.930 . S
N14 Gd1 2.601 . S
N14 C4 1.359 . S
N14 C13 1.334 . S
C15 C13 1.394 . S
C15 C16 1.359 . S
C15 H27 0.930 . S
C16 C6 1.391 . S
C16 C15 1.359 . S
C16 H28 0.929 . S
H17 C13 0.930 . S
H18 C7 0.930 . S
H19 C36 0.930 . S
H20 C8 0.930 . S
H21 C9 0.930 . S
H22 C3 0.929 . S
H23 C41 0.930 . S
H24 C32 0.930 . S
H25 C33 0.930 . S
H26 C57 0.929 . S
H27 C15 0.930 . S
H28 C16 0.929 . S
H29 C58 0.930 . S
H30 C39 0.930 . S
N31 Gd0 2.661 . S
N31 C35 1.350 . S
N31 C36 1.307 . S
C32 H24 0.930 . S
C32 C33 1.355 . S
C32 C34 1.412 . S
C33 H25 0.930 . S
C33 C32 1.355 . S
C33 C36 1.402 . S
C34 C32 1.412 . S
C34 C35 1.417 . S
C34 C58 1.431 . S
C35 N31 1.350 . S
C35 C34 1.417 . S
C35 C38 1.426 . S
C36 H19 0.930 . S
C36 N31 1.307 . S
C36 C33 1.402 . S
N37 Gd0 2.601 . S
N37 C38 1.359 . S
N37 C41 1.334 . S
C38 C35 1.426 . S
C38 N37 1.359 . S
C38 C42 1.413 . S
C39 H30 0.930 . S
C39 C40 1.359 . S
C39 C41 1.394 . S
C40 C39 1.359 . S
C40 C42 1.391 . S
C40 H43 0.929 . S
C41 H23 0.930 . S
C41 N37 1.334 . S
C41 C39 1.394 . S
C42 C38 1.413 . S
C42 C40 1.391 . S
C42 C57 1.437 . S
H43 C40 0.929 . S
O44 Gd0 2.545 . S
O44 C59 1.258 . S
O45 Gd0 2.606 . S
O45 Gd1 2.362 . S
O45 C56 1.284 . S
O46 Gd1 2.324 . S
O46 C66 1.254 . S
O47 Gd0 2.429 . S
O47 C66 1.268 . S
O48 Gd0 2.545 . S
O48 C56 1.250 . S
O49 Gd0 2.412 . S
O49 C59 1.252 . S
O50 Gd1 2.545 . S
O50 C68 1.258 . S
O51 Gd0 2.362 . S
O51 Gd1 2.606 . S
O51 C67 1.284 . S
O52 Gd0 2.324 . S
O52 C75 1.254 . S
O53 Gd1 2.429 . S
O53 C75 1.268 . S
O54 Gd1 2.545 . S
O54 C67 1.250 . S
O55 Gd1 2.412 . S
O55 C68 1.252 . S
C56 O45 1.284 . S
C56 O48 1.250 . S
C57 H26 0.929 . S
C57 C42 1.437 . S
C57 C58 1.317 . S
C58 H29 0.930 . S
C58 C34 1.431 . S
C58 C57 1.317 . S
C59 Gd0 2.828 . S
C59 O44 1.258 . S
C59 O49 1.252 . S
C59 C60 1.497 . S
C60 C59 1.497 . S
C60 C61 1.395 . S
C60 C62 1.380 . S
C61 C60 1.395 . S
C61 C64 1.398 . S
C61 H76 0.930 . S
C62 C60 1.380 . S
C62 C63 1.391 . S
C62 H77 0.930 . S
C63 C62 1.391 . S
C63 C65 1.387 . S
C64 C61 1.398 . S
C64 C65 1.380 . S
C64 H78 0.930 . S
C65 C63 1.387 . S
C65 C64 1.380 . S
C65 H79 0.930 . S
C66 O46 1.254 . S
C66 O47 1.268 . S
C67 O51 1.284 . S
C67 O54 1.250 . S
C68 Gd1 2.828 . S
C68 O50 1.258 . S
C68 O55 1.252 . S
C68 C69 1.497 . S
C69 C68 1.497 . S
C69 C70 1.395 . S
C69 C71 1.380 . S
C70 C69 1.395 . S
C70 C73 1.398 . S
C70 H80 0.930 . S
C71 C69 1.380 . S
C71 C72 1.391 . S
C71 H81 0.930 . S
C72 C71 1.391 . S
C72 C74 1.387 . S
C73 C70 1.398 . S
C73 C74 1.380 . S
C73 H82 0.930 . S
C74 C72 1.387 . S
C74 C73 1.380 . S
C74 H83 0.930 . S
C75 O52 1.254 . S
C75 O53 1.268 . S
H76 C61 0.930 . S
H77 C62 0.930 . S
H78 C64 0.930 . S
H79 C65 0.930 . S
H80 C70 0.930 . S
H81 C71 0.930 . S
H82 C73 0.930 . S
H83 C74 0.930 . S
Gd84 N115 2.661 . S
Gd84 N121 2.601 . S
Gd84 O128 2.545 . S
Gd84 O129 2.606 . S
Gd84 O131 2.429 . S
Gd84 O132 2.545 . S
Gd84 O133 2.412 . S
Gd84 O135 2.362 . S
Gd84 O136 2.324 . S
Gd84 C143 2.828 . S
Gd85 N94 2.661 . S
Gd85 N98 2.601 . S
Gd85 O129 2.362 . S
Gd85 O130 2.324 . S
Gd85 O134 2.545 . S
Gd85 O135 2.606 . S
Gd85 O137 2.429 . S
Gd85 O138 2.545 . S
Gd85 O139 2.412 . S
Gd85 C152 2.828 . S
C86 C89 1.417 . S
C86 C91 1.431 . S
C86 C92 1.412 . S
C87 C90 1.437 . S
C87 C91 1.317 . S
C87 H106 0.929 . S
C88 C89 1.426 . S
C88 C90 1.413 . S
C88 N98 1.359 . S
C89 C86 1.417 . S
C89 C88 1.426 . S
C89 N94 1.350 . S
C90 C87 1.437 . S
C90 C88 1.413 . S
C90 C100 1.391 . S
C91 C86 1.431 . S
C91 C87 1.317 . S
C91 H102 0.930 . S
C92 C86 1.412 . S
C92 C93 1.355 . S
C92 H104 0.930 . S
C93 C92 1.355 . S
C93 C95 1.402 . S
C93 H105 0.930 . S
N94 Gd85 2.661 . S
N94 C89 1.350 . S
N94 C95 1.307 . S
C95 C93 1.402 . S
C95 N94 1.307 . S
C95 H96 0.930 . S
H96 C95 0.930 . S
C97 N98 1.334 . S
C97 C99 1.394 . S
C97 H101 0.930 . S
N98 Gd85 2.601 . S
N98 C88 1.359 . S
N98 C97 1.334 . S
C99 C97 1.394 . S
C99 C100 1.359 . S
C99 H111 0.930 . S
C100 C90 1.391 . S
C100 C99 1.359 . S
C100 H112 0.929 . S
H101 C97 0.930 . S
H102 C91 0.930 . S
H103 C120 0.930 . S
H104 C92 0.930 . S
H105 C93 0.930 . S
H106 C87 0.929 . S
H107 C125 0.930 . S
H108 C116 0.930 . S
H109 C117 0.930 . S
H110 C141 0.929 . S
H111 C99 0.930 . S
H112 C100 0.929 . S
H113 C142 0.930 . S
H114 C123 0.930 . S
N115 Gd84 2.661 . S
N115 C119 1.350 . S
N115 C120 1.307 . S
C116 H108 0.930 . S
C116 C117 1.355 . S
C116 C118 1.412 . S
C117 H109 0.930 . S
C117 C116 1.355 . S
C117 C120 1.402 . S
C118 C116 1.412 . S
C118 C119 1.417 . S
C118 C142 1.431 . S
C119 N115 1.350 . S
C119 C118 1.417 . S
C119 C122 1.426 . S
C120 H103 0.930 . S
C120 N115 1.307 . S
C120 C117 1.402 . S
N121 Gd84 2.601 . S
N121 C122 1.359 . S
N121 C125 1.334 . S
C122 C119 1.426 . S
C122 N121 1.359 . S
C122 C126 1.413 . S
C123 H114 0.930 . S
C123 C124 1.359 . S
C123 C125 1.394 . S
C124 C123 1.359 . S
C124 C126 1.391 . S
C124 H127 0.929 . S
C125 H107 0.930 . S
C125 N121 1.334 . S
C125 C123 1.394 . S
C126 C122 1.413 . S
C126 C124 1.391 . S
C126 C141 1.437 . S
H127 C124 0.929 . S
O128 Gd84 2.545 . S
O128 C143 1.258 . S
O129 Gd84 2.606 . S
O129 Gd85 2.362 . S
O129 C140 1.284 . S
O130 Gd85 2.324 . S
O130 C150 1.254 . S
O131 Gd84 2.429 . S
O131 C150 1.268 . S
O132 Gd84 2.545 . S
O132 C140 1.250 . S
O133 Gd84 2.412 . S
O133 C143 1.252 . S
O134 Gd85 2.545 . S
O134 C152 1.258 . S
O135 Gd84 2.362 . S
O135 Gd85 2.606 . S
O135 C151 1.284 . S
O136 Gd84 2.324 . S
O136 C159 1.254 . S
O137 Gd85 2.429 . S
O137 C159 1.268 . S
O138 Gd85 2.545 . S
O138 C151 1.250 . S
O139 Gd85 2.412 . S
O139 C152 1.252 . S
C140 O129 1.284 . S
C140 O132 1.250 . S
C141 H110 0.929 . S
C141 C126 1.437 . S
C141 C142 1.317 . S
C142 H113 0.930 . S
C142 C118 1.431 . S
C142 C141 1.317 . S
C143 Gd84 2.828 . S
C143 O128 1.258 . S
C143 O133 1.252 . S
C143 C144 1.497 . S
C144 C143 1.497 . S
C144 C145 1.395 . S
C144 C146 1.380 . S
C145 C144 1.395 . S
C145 C148 1.398 . S
C145 H160 0.930 . S
C146 C144 1.380 . S
C146 C147 1.391 . S
C146 H161 0.930 . S
C147 C146 1.391 . S
C147 C149 1.387 . S
C148 C145 1.398 . S
C148 C149 1.380 . S
C148 H162 0.930 . S
C149 C147 1.387 . S
C149 C148 1.380 . S
C149 H163 0.930 . S
C150 O130 1.254 . S
C150 O131 1.268 . S
C151 O135 1.284 . S
C151 O138 1.250 . S
C152 Gd85 2.828 . S
C152 O134 1.258 . S
C152 O139 1.252 . S
C152 C153 1.497 . S
C153 C152 1.497 . S
C153 C154 1.395 . S
C153 C155 1.380 . S
C154 C153 1.395 . S
C154 C157 1.398 . S
C154 H164 0.930 . S
C155 C153 1.380 . S
C155 C156 1.391 . S
C155 H165 0.930 . S
C156 C155 1.391 . S
C156 C158 1.387 . S
C157 C154 1.398 . S
C157 C158 1.380 . S
C157 H166 0.930 . S
C158 C156 1.387 . S
C158 C157 1.380 . S
C158 H167 0.930 . S
C159 O136 1.254 . S
C159 O137 1.268 . S
H160 C145 0.930 . S
H161 C146 0.930 . S
H162 C148 0.930 . S
H163 C149 0.930 . S
H164 C154 0.930 . S
H165 C155 0.930 . S
H166 C157 0.930 . S
H167 C158 0.930 . S
Gd168 N199 2.661 . S
Gd168 N205 2.601 . S
Gd168 O212 2.545 . S
Gd168 O213 2.606 . S
Gd168 O215 2.429 . S
Gd168 O216 2.545 . S
Gd168 O217 2.412 . S
Gd168 O219 2.362 . S
Gd168 O220 2.324 . S
Gd168 C227 2.828 . S
Gd169 N178 2.661 . S
Gd169 N182 2.601 . S
Gd169 O213 2.362 . S
Gd169 O214 2.324 . S
Gd169 O218 2.545 . S
Gd169 O219 2.606 . S
Gd169 O221 2.429 . S
Gd169 O222 2.545 . S
Gd169 O223 2.412 . S
Gd169 C236 2.828 . S
C170 C173 1.417 . S
C170 C175 1.431 . S
C170 C176 1.412 . S
C171 C174 1.437 . S
C171 C175 1.317 . S
C171 H190 0.929 . S
C172 C173 1.426 . S
C172 C174 1.413 . S
C172 N182 1.359 . S
C173 C170 1.417 . S
C173 C172 1.426 . S
C173 N178 1.350 . S
C174 C171 1.437 . S
C174 C172 1.413 . S
C174 C184 1.391 . S
C175 C170 1.431 . S
C175 C171 1.317 . S
C175 H186 0.930 . S
C176 C170 1.412 . S
C176 C177 1.355 . S
C176 H188 0.930 . S
C177 C176 1.355 . S
C177 C179 1.402 . S
C177 H189 0.930 . S
N178 Gd169 2.661 . S
N178 C173 1.350 . S
N178 C179 1.307 . S
C179 C177 1.402 . S
C179 N178 1.307 . S
C179 H180 0.930 . S
H180 C179 0.930 . S
C181 N182 1.334 . S
C181 C183 1.394 . S
C181 H185 0.930 . S
N182 Gd169 2.601 . S
N182 C172 1.359 . S
N182 C181 1.334 . S
C183 C181 1.394 . S
C183 C184 1.359 . S
C183 H195 0.930 . S
C184 C174 1.391 . S
C184 C183 1.359 . S
C184 H196 0.929 . S
H185 C181 0.930 . S
H186 C175 0.930 . S
H187 C204 0.930 . S
H188 C176 0.930 . S
H189 C177 0.930 . S
H190 C171 0.929 . S
H191 C209 0.930 . S
H192 C200 0.930 . S
H193 C201 0.930 . S
H194 C225 0.929 . S
H195 C183 0.930 . S
H196 C184 0.929 . S
H197 C226 0.930 . S
H198 C207 0.930 . S
N199 Gd168 2.661 . S
N199 C203 1.350 . S
N199 C204 1.307 . S
C200 H192 0.930 . S
C200 C201 1.355 . S
C200 C202 1.412 . S
C201 H193 0.930 . S
C201 C200 1.355 . S
C201 C204 1.402 . S
C202 C200 1.412 . S
C202 C203 1.417 . S
C202 C226 1.431 . S
C203 N199 1.350 . S
C203 C202 1.417 . S
C203 C206 1.426 . S
C204 H187 0.930 . S
C204 N199 1.307 . S
C204 C201 1.402 . S
N205 Gd168 2.601 . S
N205 C206 1.359 . S
N205 C209 1.334 . S
C206 C203 1.426 . S
C206 N205 1.359 . S
C206 C210 1.413 . S
C207 H198 0.930 . S
C207 C208 1.359 . S
C207 C209 1.394 . S
C208 C207 1.359 . S
C208 C210 1.391 . S
C208 H211 0.929 . S
C209 H191 0.930 . S
C209 N205 1.334 . S
C209 C207 1.394 . S
C210 C206 1.413 . S
C210 C208 1.391 . S
C210 C225 1.437 . S
H211 C208 0.929 . S
O212 Gd168 2.545 . S
O212 C227 1.258 . S
O213 Gd168 2.606 . S
O213 Gd169 2.362 . S
O213 C224 1.284 . S
O214 Gd169 2.324 . S
O214 C234 1.254 . S
O215 Gd168 2.429 . S
O215 C234 1.268 . S
O216 Gd168 2.545 . S
O216 C224 1.250 . S
O217 Gd168 2.412 . S
O217 C227 1.252 . S
O218 Gd169 2.545 . S
O218 C236 1.258 . S
O219 Gd168 2.362 . S
O219 Gd169 2.606 . S
O219 C235 1.284 . S
O220 Gd168 2.324 . S
O220 C243 1.254 . S
O221 Gd169 2.429 . S
O221 C243 1.268 . S
O222 Gd169 2.545 . S
O222 C235 1.250 . S
O223 Gd169 2.412 . S
O223 C236 1.252 . S
C224 O213 1.284 . S
C224 O216 1.250 . S
C225 H194 0.929 . S
C225 C210 1.437 . S
C225 C226 1.317 . S
C226 H197 0.930 . S
C226 C202 1.431 . S
C226 C225 1.317 . S
C227 Gd168 2.828 . S
C227 O212 1.258 . S
C227 O217 1.252 . S
C227 C228 1.497 . S
C228 C227 1.497 . S
C228 C229 1.395 . S
C228 C230 1.380 . S
C229 C228 1.395 . S
C229 C232 1.398 . S
C229 H244 0.930 . S
C230 C228 1.380 . S
C230 C231 1.391 . S
C230 H245 0.930 . S
C231 C230 1.391 . S
C231 C233 1.387 . S
C232 C229 1.398 . S
C232 C233 1.380 . S
C232 H246 0.930 . S
C233 C231 1.387 . S
C233 C232 1.380 . S
C233 H247 0.930 . S
C234 O214 1.254 . S
C234 O215 1.268 . S
C235 O219 1.284 . S
C235 O222 1.250 . S
C236 Gd169 2.828 . S
C236 O218 1.258 . S
C236 O223 1.252 . S
C236 C237 1.497 . S
C237 C236 1.497 . S
C237 C238 1.395 . S
C237 C239 1.380 . S
C238 C237 1.395 . S
C238 C241 1.398 . S
C238 H248 0.930 . S
C239 C237 1.380 . S
C239 C240 1.391 . S
C239 H249 0.930 . S
C240 C239 1.391 . S
C240 C242 1.387 . S
C241 C238 1.398 . S
C241 C242 1.380 . S
C241 H250 0.930 1_565 S
C242 C240 1.387 . S
C242 C241 1.380 . S
C242 H251 0.930 . S
C243 O220 1.254 . S
C243 O221 1.268 . S
H244 C229 0.930 . S
H245 C230 0.930 . S
H246 C232 0.930 . S
H247 C233 0.930 . S
H248 C238 0.930 . S
H249 C239 0.930 . S
H250 C241 0.930 1_545 S
H251 C242 0.930 . S
Gd252 N283 2.661 . S
Gd252 N289 2.601 . S
Gd252 O296 2.545 . S
Gd252 O297 2.606 . S
Gd252 O299 2.429 . S
Gd252 O300 2.545 . S
Gd252 O301 2.412 . S
Gd252 O303 2.362 . S
Gd252 O304 2.324 . S
Gd252 C311 2.828 . S
Gd253 N262 2.661 . S
Gd253 N266 2.601 . S
Gd253 O297 2.362 . S
Gd253 O298 2.324 . S
Gd253 O302 2.545 . S
Gd253 O303 2.606 . S
Gd253 O305 2.429 . S
Gd253 O306 2.545 . S
Gd253 O307 2.412 . S
Gd253 C320 2.828 . S
C254 C257 1.417 . S
C254 C259 1.431 . S
C254 C260 1.412 . S
C255 C258 1.437 . S
C255 C259 1.317 . S
C255 H274 0.929 . S
C256 C257 1.426 . S
C256 C258 1.413 . S
C256 N266 1.359 . S
C257 C254 1.417 . S
C257 C256 1.426 . S
C257 N262 1.350 . S
C258 C255 1.437 . S
C258 C256 1.413 . S
C258 C268 1.391 . S
C259 C254 1.431 . S
C259 C255 1.317 . S
C259 H270 0.930 . S
C260 C254 1.412 . S
C260 C261 1.355 . S
C260 H272 0.930 . S
C261 C260 1.355 . S
C261 C263 1.402 . S
C261 H273 0.930 . S
N262 Gd253 2.661 . S
N262 C257 1.350 . S
N262 C263 1.307 . S
C263 C261 1.402 . S
C263 N262 1.307 . S
C263 H264 0.930 . S
H264 C263 0.930 . S
C265 N266 1.334 . S
C265 C267 1.394 . S
C265 H269 0.930 . S
N266 Gd253 2.601 . S
N266 C256 1.359 . S
N266 C265 1.334 . S
C267 C265 1.394 . S
C267 C268 1.359 . S
C267 H279 0.930 . S
C268 C258 1.391 . S
C268 C267 1.359 . S
C268 H280 0.929 . S
H269 C265 0.930 . S
H270 C259 0.930 . S
H271 C288 0.930 . S
H272 C260 0.930 . S
H273 C261 0.930 . S
H274 C255 0.929 . S
H275 C293 0.930 . S
H276 C284 0.930 1_545 S
H277 C285 0.930 . S
H278 C309 0.929 . S
H279 C267 0.930 . S
H280 C268 0.929 . S
H281 C310 0.930 . S
H282 C291 0.930 . S
N283 Gd252 2.661 . S
N283 C287 1.350 . S
N283 C288 1.307 . S
C284 H276 0.930 1_565 S
C284 C285 1.355 . S
C284 C286 1.412 . S
C285 H277 0.930 . S
C285 C284 1.355 . S
C285 C288 1.402 . S
C286 C284 1.412 . S
C286 C287 1.417 . S
C286 C310 1.431 . S
C287 N283 1.350 . S
C287 C286 1.417 . S
C287 C290 1.426 . S
C288 H271 0.930 . S
C288 N283 1.307 . S
C288 C285 1.402 . S
N289 Gd252 2.601 . S
N289 C290 1.359 . S
N289 C293 1.334 . S
C290 C287 1.426 . S
C290 N289 1.359 . S
C290 C294 1.413 . S
C291 H282 0.930 . S
C291 C292 1.359 . S
C291 C293 1.394 . S
C292 C291 1.359 . S
C292 C294 1.391 . S
C292 H295 0.929 . S
C293 H275 0.930 . S
C293 N289 1.334 . S
C293 C291 1.394 . S
C294 C290 1.413 . S
C294 C292 1.391 . S
C294 C309 1.437 . S
H295 C292 0.929 . S
O296 Gd252 2.545 . S
O296 C311 1.258 . S
O297 Gd252 2.606 . S
O297 Gd253 2.362 . S
O297 C308 1.284 . S
O298 Gd253 2.324 . S
O298 C318 1.254 . S
O299 Gd252 2.429 . S
O299 C318 1.268 . S
O300 Gd252 2.545 . S
O300 C308 1.250 . S
O301 Gd252 2.412 . S
O301 C311 1.252 . S
O302 Gd253 2.545 . S
O302 C320 1.258 . S
O303 Gd252 2.362 . S
O303 Gd253 2.606 . S
O303 C319 1.284 . S
O304 Gd252 2.324 . S
O304 C327 1.254 . S
O305 Gd253 2.429 . S
O305 C327 1.268 . S
O306 Gd253 2.545 . S
O306 C319 1.250 . S
O307 Gd253 2.412 . S
O307 C320 1.252 . S
C308 O297 1.284 . S
C308 O300 1.250 . S
C309 H278 0.929 . S
C309 C294 1.437 . S
C309 C310 1.317 . S
C310 H281 0.930 . S
C310 C286 1.431 . S
C310 C309 1.317 . S
C311 Gd252 2.828 . S
C311 O296 1.258 . S
C311 O301 1.252 . S
C311 C312 1.497 . S
C312 C311 1.497 . S
C312 C313 1.395 . S
C312 C314 1.380 . S
C313 C312 1.395 . S
C313 C316 1.398 . S
C313 H328 0.930 . S
C314 C312 1.380 . S
C314 C315 1.391 . S
C314 H329 0.930 . S
C315 C314 1.391 . S
C315 C317 1.387 . S
C316 C313 1.398 . S
C316 C317 1.380 . S
C316 H330 0.930 . S
C317 C315 1.387 . S
C317 C316 1.380 . S
C317 H331 0.930 . S
C318 O298 1.254 . S
C318 O299 1.268 . S
C319 O303 1.284 . S
C319 O306 1.250 . S
C320 Gd253 2.828 . S
C320 O302 1.258 . S
C320 O307 1.252 . S
C320 C321 1.497 . S
C321 C320 1.497 . S
C321 C322 1.395 . S
C321 C323 1.380 . S
C322 C321 1.395 . S
C322 C325 1.398 . S
C322 H332 0.930 . S
C323 C321 1.380 . S
C323 C324 1.391 . S
C323 H333 0.930 . S
C324 C323 1.391 . S
C324 C326 1.387 . S
C325 C322 1.398 . S
C325 C326 1.380 . S
C325 H334 0.930 . S
C326 C324 1.387 . S
C326 C325 1.380 . S
C326 H335 0.930 . S
C327 O304 1.254 . S
C327 O305 1.268 . S
H328 C313 0.930 . S
H329 C314 0.930 . S
H330 C316 0.930 . S
H331 C317 0.930 . S
H332 C322 0.930 . S
H333 C323 0.930 . S
H334 C325 0.930 . S
H335 C326 0.930 . S
Gd336 N367 2.661 . S
Gd336 N373 2.601 . S
Gd336 O380 2.545 . S
Gd336 O381 2.606 . S
Gd336 O383 2.429 . S
Gd336 O384 2.545 . S
Gd336 O385 2.412 . S
Gd336 O387 2.362 . S
Gd336 O388 2.324 . S
Gd336 C395 2.828 . S
Gd337 N346 2.661 . S
Gd337 N350 2.601 . S
Gd337 O381 2.362 . S
Gd337 O382 2.324 . S
Gd337 O386 2.545 . S
Gd337 O387 2.606 . S
Gd337 O389 2.429 . S
Gd337 O390 2.545 . S
Gd337 O391 2.412 . S
Gd337 C404 2.828 . S
C338 C341 1.417 . S
C338 C343 1.431 . S
C338 C344 1.412 . S
C339 C342 1.437 . S
C339 C343 1.317 . S
C339 H358 0.929 . S
C340 C341 1.426 . S
C340 C342 1.413 . S
C340 N350 1.359 . S
C341 C338 1.417 . S
C341 C340 1.426 . S
C341 N346 1.350 . S
C342 C339 1.437 . S
C342 C340 1.413 . S
C342 C352 1.391 . S
C343 C338 1.431 . S
C343 C339 1.317 . S
C343 H354 0.930 . S
C344 C338 1.412 . S
C344 C345 1.355 . S
C344 H356 0.930 . S
C345 C344 1.355 . S
C345 C347 1.402 . S
C345 H357 0.930 . S
N346 Gd337 2.661 . S
N346 C341 1.350 . S
N346 C347 1.307 . S
C347 C345 1.402 . S
C347 N346 1.307 . S
C347 H348 0.930 . S
H348 C347 0.930 . S
C349 N350 1.334 . S
C349 C351 1.394 . S
C349 H353 0.930 . S
N350 Gd337 2.601 . S
N350 C340 1.359 . S
N350 C349 1.334 . S
C351 C349 1.394 . S
C351 C352 1.359 . S
C351 H363 0.930 . S
C352 C342 1.391 . S
C352 C351 1.359 . S
C352 H364 0.929 . S
H353 C349 0.930 . S
H354 C343 0.930 . S
H355 C372 0.930 . S
H356 C344 0.930 . S
H357 C345 0.930 . S
H358 C339 0.929 . S
H359 C377 0.930 . S
H360 C368 0.930 . S
H361 C369 0.930 . S
H362 C393 0.929 . S
H363 C351 0.930 . S
H364 C352 0.929 . S
H365 C394 0.930 . S
H366 C375 0.930 . S
N367 Gd336 2.661 . S
N367 C371 1.350 . S
N367 C372 1.307 . S
C368 H360 0.930 . S
C368 C369 1.355 . S
C368 C370 1.412 . S
C369 H361 0.930 . S
C369 C368 1.355 . S
C369 C372 1.402 . S
C370 C368 1.412 . S
C370 C371 1.417 . S
C370 C394 1.431 . S
C371 N367 1.350 . S
C371 C370 1.417 . S
C371 C374 1.426 . S
C372 H355 0.930 . S
C372 N367 1.307 . S
C372 C369 1.402 . S
N373 Gd336 2.601 . S
N373 C374 1.359 . S
N373 C377 1.334 . S
C374 C371 1.426 . S
C374 N373 1.359 . S
C374 C378 1.413 . S
C375 H366 0.930 . S
C375 C376 1.359 . S
C375 C377 1.394 . S
C376 C375 1.359 . S
C376 C378 1.391 . S
C376 H379 0.929 . S
C377 H359 0.930 . S
C377 N373 1.334 . S
C377 C375 1.394 . S
C378 C374 1.413 . S
C378 C376 1.391 . S
C378 C393 1.437 . S
H379 C376 0.929 . S
O380 Gd336 2.545 . S
O380 C395 1.258 . S
O381 Gd336 2.606 . S
O381 Gd337 2.362 . S
O381 C392 1.284 . S
O382 Gd337 2.324 . S
O382 C402 1.254 . S
O383 Gd336 2.429 . S
O383 C402 1.268 . S
O384 Gd336 2.545 . S
O384 C392 1.250 . S
O385 Gd336 2.412 . S
O385 C395 1.252 . S
O386 Gd337 2.545 . S
O386 C404 1.258 . S
O387 Gd336 2.362 . S
O387 Gd337 2.606 . S
O387 C403 1.284 . S
O388 Gd336 2.324 . S
O388 C411 1.254 . S
O389 Gd337 2.429 . S
O389 C411 1.268 . S
O390 Gd337 2.545 . S
O390 C403 1.250 . S
O391 Gd337 2.412 . S
O391 C404 1.252 . S
C392 O381 1.284 . S
C392 O384 1.250 . S
C393 H362 0.929 . S
C393 C378 1.437 . S
C393 C394 1.317 . S
C394 H365 0.930 . S
C394 C370 1.431 . S
C394 C393 1.317 . S
C395 Gd336 2.828 . S
C395 O380 1.258 . S
C395 O385 1.252 . S
C395 C396 1.497 . S
C396 C395 1.497 . S
C396 C397 1.395 . S
C396 C398 1.380 . S
C397 C396 1.395 . S
C397 C400 1.398 . S
C397 H412 0.930 . S
C398 C396 1.380 . S
C398 C399 1.391 . S
C398 H413 0.930 . S
C399 C398 1.391 . S
C399 C401 1.387 . S
C400 C397 1.398 . S
C400 C401 1.380 . S
C400 H414 0.930 . S
C401 C399 1.387 . S
C401 C400 1.380 . S
C401 H415 0.930 . S
C402 O382 1.254 . S
C402 O383 1.268 . S
C403 O387 1.284 . S
C403 O390 1.250 . S
C404 Gd337 2.828 . S
C404 O386 1.258 . S
C404 O391 1.252 . S
C404 C405 1.497 . S
C405 C404 1.497 . S
C405 C406 1.395 . S
C405 C407 1.380 . S
C406 C405 1.395 . S
C406 C409 1.398 . S
C406 H416 0.930 . S
C407 C405 1.380 . S
C407 C408 1.391 . S
C407 H417 0.930 . S
C408 C407 1.391 . S
C408 C410 1.387 . S
C409 C406 1.398 . S
C409 C410 1.380 . S
C409 H418 0.930 . S
C410 C408 1.387 . S
C410 C409 1.380 . S
C410 H419 0.930 . S
C411 O388 1.254 . S
C411 O389 1.268 . S
H412 C397 0.930 . S
H413 C398 0.930 . S
H414 C400 0.930 . S
H415 C401 0.930 . S
H416 C406 0.930 . S
H417 C407 0.930 . S
H418 C409 0.930 . S
H419 C410 0.930 . S
Gd420 N451 2.661 . S
Gd420 N457 2.601 . S
Gd420 O464 2.545 . S
Gd420 O465 2.606 . S
Gd420 O467 2.429 . S
Gd420 O468 2.545 . S
Gd420 O469 2.412 . S
Gd420 O471 2.362 . S
Gd420 O472 2.324 . S
Gd420 C479 2.828 . S
Gd421 N430 2.661 . S
Gd421 N434 2.601 . S
Gd421 O465 2.362 . S
Gd421 O466 2.324 . S
Gd421 O470 2.545 . S
Gd421 O471 2.606 . S
Gd421 O473 2.429 . S
Gd421 O474 2.545 . S
Gd421 O475 2.412 . S
Gd421 C488 2.828 . S
C422 C425 1.417 . S
C422 C427 1.431 . S
C422 C428 1.412 . S
C423 C426 1.437 . S
C423 C427 1.317 . S
C423 H442 0.929 . S
C424 C425 1.426 . S
C424 C426 1.413 . S
C424 N434 1.359 . S
C425 C422 1.417 . S
C425 C424 1.426 . S
C425 N430 1.350 . S
C426 C423 1.437 . S
C426 C424 1.413 . S
C426 C436 1.391 . S
C427 C422 1.431 . S
C427 C423 1.317 . S
C427 H438 0.930 . S
C428 C422 1.412 . S
C428 C429 1.355 . S
C428 H440 0.930 . S
C429 C428 1.355 . S
C429 C431 1.402 . S
C429 H441 0.930 . S
N430 Gd421 2.661 . S
N430 C425 1.350 . S
N430 C431 1.307 . S
C431 C429 1.402 . S
C431 N430 1.307 . S
C431 H432 0.930 . S
H432 C431 0.930 . S
C433 N434 1.334 . S
C433 C435 1.394 . S
C433 H437 0.930 . S
N434 Gd421 2.601 . S
N434 C424 1.359 . S
N434 C433 1.334 . S
C435 C433 1.394 . S
C435 C436 1.359 . S
C435 H447 0.930 . S
C436 C426 1.391 . S
C436 C435 1.359 . S
C436 H448 0.929 . S
H437 C433 0.930 . S
H438 C427 0.930 . S
H439 C456 0.930 . S
H440 C428 0.930 . S
H441 C429 0.930 . S
H442 C423 0.929 . S
H443 C461 0.930 . S
H444 C452 0.930 . S
H445 C453 0.930 . S
H446 C477 0.929 . S
H447 C435 0.930 . S
H448 C436 0.929 . S
H449 C478 0.930 . S
H450 C459 0.930 . S
N451 Gd420 2.661 . S
N451 C455 1.350 . S
N451 C456 1.307 . S
C452 H444 0.930 . S
C452 C453 1.355 . S
C452 C454 1.412 . S
C453 H445 0.930 . S
C453 C452 1.355 . S
C453 C456 1.402 . S
C454 C452 1.412 . S
C454 C455 1.417 . S
C454 C478 1.431 . S
C455 N451 1.350 . S
C455 C454 1.417 . S
C455 C458 1.426 . S
C456 H439 0.930 . S
C456 N451 1.307 . S
C456 C453 1.402 . S
N457 Gd420 2.601 . S
N457 C458 1.359 . S
N457 C461 1.334 . S
C458 C455 1.426 . S
C458 N457 1.359 . S
C458 C462 1.413 . S
C459 H450 0.930 . S
C459 C460 1.359 . S
C459 C461 1.394 . S
C460 C459 1.359 . S
C460 C462 1.391 . S
C460 H463 0.929 . S
C461 H443 0.930 . S
C461 N457 1.334 . S
C461 C459 1.394 . S
C462 C458 1.413 . S
C462 C460 1.391 . S
C462 C477 1.437 . S
H463 C460 0.929 . S
O464 Gd420 2.545 . S
O464 C479 1.258 . S
O465 Gd420 2.606 . S
O465 Gd421 2.362 . S
O465 C476 1.284 . S
O466 Gd421 2.324 . S
O466 C486 1.254 . S
O467 Gd420 2.429 . S
O467 C486 1.268 . S
O468 Gd420 2.545 . S
O468 C476 1.250 . S
O469 Gd420 2.412 . S
O469 C479 1.252 . S
O470 Gd421 2.545 . S
O470 C488 1.258 . S
O471 Gd420 2.362 . S
O471 Gd421 2.606 . S
O471 C487 1.284 . S
O472 Gd420 2.324 . S
O472 C495 1.254 . S
O473 Gd421 2.429 . S
O473 C495 1.268 . S
O474 Gd421 2.545 . S
O474 C487 1.250 . S
O475 Gd421 2.412 . S
O475 C488 1.252 . S
C476 O465 1.284 . S
C476 O468 1.250 . S
C477 H446 0.929 . S
C477 C462 1.437 . S
C477 C478 1.317 . S
C478 H449 0.930 . S
C478 C454 1.431 . S
C478 C477 1.317 . S
C479 Gd420 2.828 . S
C479 O464 1.258 . S
C479 O469 1.252 . S
C479 C480 1.497 . S
C480 C479 1.497 . S
C480 C481 1.395 . S
C480 C482 1.380 . S
C481 C480 1.395 . S
C481 C484 1.398 . S
C481 H496 0.930 . S
C482 C480 1.380 . S
C482 C483 1.391 . S
C482 H497 0.930 . S
C483 C482 1.391 . S
C483 C485 1.387 . S
C484 C481 1.398 . S
C484 C485 1.380 . S
C484 H498 0.930 . S
C485 C483 1.387 . S
C485 C484 1.380 . S
C485 H499 0.930 . S
C486 O466 1.254 . S
C486 O467 1.268 . S
C487 O471 1.284 . S
C487 O474 1.250 . S
C488 Gd421 2.828 . S
C488 O470 1.258 . S
C488 O475 1.252 . S
C488 C489 1.497 . S
C489 C488 1.497 . S
C489 C490 1.395 . S
C489 C491 1.380 . S
C490 C489 1.395 . S
C490 C493 1.398 . S
C490 H500 0.930 . S
C491 C489 1.380 . S
C491 C492 1.391 . S
C491 H501 0.930 . S
C492 C491 1.391 . S
C492 C494 1.387 . S
C493 C490 1.398 . S
C493 C494 1.380 . S
C493 H502 0.930 . S
C494 C492 1.387 . S
C494 C493 1.380 . S
C494 H503 0.930 . S
C495 O472 1.254 . S
C495 O473 1.268 . S
H496 C481 0.930 . S
H497 C482 0.930 . S
H498 C484 0.930 . S
H499 C485 0.930 . S
H500 C490 0.930 . S
H501 C491 0.930 . S
H502 C493 0.930 . S
H503 C494 0.930 . S
Gd504 N535 2.661 . S
Gd504 N541 2.601 . S
Gd504 O548 2.545 . S
Gd504 O549 2.606 . S
Gd504 O551 2.429 . S
Gd504 O552 2.545 . S
Gd504 O553 2.412 . S
Gd504 O555 2.362 . S
Gd504 O556 2.324 . S
Gd504 C563 2.828 . S
Gd505 N514 2.661 . S
Gd505 N518 2.601 . S
Gd505 O549 2.362 . S
Gd505 O550 2.324 . S
Gd505 O554 2.545 . S
Gd505 O555 2.606 . S
Gd505 O557 2.429 . S
Gd505 O558 2.545 . S
Gd505 O559 2.412 . S
Gd505 C572 2.828 . S
C506 C509 1.417 . S
C506 C511 1.431 . S
C506 C512 1.412 . S
C507 C510 1.437 . S
C507 C511 1.317 . S
C507 H526 0.929 . S
C508 C509 1.426 . S
C508 C510 1.413 . S
C508 N518 1.359 . S
C509 C506 1.417 . S
C509 C508 1.426 . S
C509 N514 1.350 . S
C510 C507 1.437 . S
C510 C508 1.413 . S
C510 C520 1.391 . S
C511 C506 1.431 . S
C511 C507 1.317 . S
C511 H522 0.930 . S
C512 C506 1.412 . S
C512 C513 1.355 . S
C512 H524 0.930 . S
C513 C512 1.355 . S
C513 C515 1.402 . S
C513 H525 0.930 . S
N514 Gd505 2.661 . S
N514 C509 1.350 . S
N514 C515 1.307 . S
C515 C513 1.402 . S
C515 N514 1.307 . S
C515 H516 0.930 . S
H516 C515 0.930 . S
C517 N518 1.334 . S
C517 C519 1.394 . S
C517 H521 0.930 . S
N518 Gd505 2.601 . S
N518 C508 1.359 . S
N518 C517 1.334 . S
C519 C517 1.394 . S
C519 C520 1.359 . S
C519 H531 0.930 . S
C520 C510 1.391 . S
C520 C519 1.359 . S
C520 H532 0.929 . S
H521 C517 0.930 . S
H522 C511 0.930 . S
H523 C540 0.930 . S
H524 C512 0.930 . S
H525 C513 0.930 . S
H526 C507 0.929 . S
H527 C545 0.930 . S
H528 C536 0.930 . S
H529 C537 0.930 . S
H530 C561 0.929 . S
H531 C519 0.930 . S
H532 C520 0.929 . S
H533 C562 0.930 . S
H534 C543 0.930 . S
N535 Gd504 2.661 . S
N535 C539 1.350 . S
N535 C540 1.307 . S
C536 H528 0.930 . S
C536 C537 1.355 . S
C536 C538 1.412 . S
C537 H529 0.930 . S
C537 C536 1.355 . S
C537 C540 1.402 . S
C538 C536 1.412 . S
C538 C539 1.417 . S
C538 C562 1.431 . S
C539 N535 1.350 . S
C539 C538 1.417 . S
C539 C542 1.426 . S
C540 H523 0.930 . S
C540 N535 1.307 . S
C540 C537 1.402 . S
N541 Gd504 2.601 . S
N541 C542 1.359 . S
N541 C545 1.334 . S
C542 C539 1.426 . S
C542 N541 1.359 . S
C542 C546 1.413 . S
C543 H534 0.930 . S
C543 C544 1.359 . S
C543 C545 1.394 . S
C544 C543 1.359 . S
C544 C546 1.391 . S
C544 H547 0.929 . S
C545 H527 0.930 . S
C545 N541 1.334 . S
C545 C543 1.394 . S
C546 C542 1.413 . S
C546 C544 1.391 . S
C546 C561 1.437 . S
H547 C544 0.929 . S
O548 Gd504 2.545 . S
O548 C563 1.258 . S
O549 Gd504 2.606 . S
O549 Gd505 2.362 . S
O549 C560 1.284 . S
O550 Gd505 2.324 . S
O550 C570 1.254 . S
O551 Gd504 2.429 . S
O551 C570 1.268 . S
O552 Gd504 2.545 . S
O552 C560 1.250 . S
O553 Gd504 2.412 . S
O553 C563 1.252 . S
O554 Gd505 2.545 . S
O554 C572 1.258 . S
O555 Gd504 2.362 . S
O555 Gd505 2.606 . S
O555 C571 1.284 . S
O556 Gd504 2.324 . S
O556 C579 1.254 . S
O557 Gd505 2.429 . S
O557 C579 1.268 . S
O558 Gd505 2.545 . S
O558 C571 1.250 . S
O559 Gd505 2.412 . S
O559 C572 1.252 . S
C560 O549 1.284 . S
C560 O552 1.250 . S
C561 H530 0.929 . S
C561 C546 1.437 . S
C561 C562 1.317 . S
C562 H533 0.930 . S
C562 C538 1.431 . S
C562 C561 1.317 . S
C563 Gd504 2.828 . S
C563 O548 1.258 . S
C563 O553 1.252 . S
C563 C564 1.497 . S
C564 C563 1.497 . S
C564 C565 1.395 . S
C564 C566 1.380 . S
C565 C564 1.395 . S
C565 C568 1.398 . S
C565 H580 0.930 . S
C566 C564 1.380 . S
C566 C567 1.391 . S
C566 H581 0.930 . S
C567 C566 1.391 . S
C567 C569 1.387 . S
C568 C565 1.398 . S
C568 C569 1.380 . S
C568 H582 0.930 . S
C569 C567 1.387 . S
C569 C568 1.380 . S
C569 H583 0.930 . S
C570 O550 1.254 . S
C570 O551 1.268 . S
C571 O555 1.284 . S
C571 O558 1.250 . S
C572 Gd505 2.828 . S
C572 O554 1.258 . S
C572 O559 1.252 . S
C572 C573 1.497 . S
C573 C572 1.497 . S
C573 C574 1.395 . S
C573 C575 1.380 . S
C574 C573 1.395 . S
C574 C577 1.398 . S
C574 H584 0.930 . S
C575 C573 1.380 . S
C575 C576 1.391 . S
C575 H585 0.930 . S
C576 C575 1.391 . S
C576 C578 1.387 . S
C577 C574 1.398 . S
C577 C578 1.380 . S
C577 H586 0.930 . S
C578 C576 1.387 . S
C578 C577 1.380 . S
C578 H587 0.930 . S
C579 O556 1.254 . S
C579 O557 1.268 . S
H580 C565 0.930 . S
H581 C566 0.930 . S
H582 C568 0.930 . S
H583 C569 0.930 . S
H584 C574 0.930 . S
H585 C575 0.930 . S
H586 C577 0.930 . S
H587 C578 0.930 . S
Gd588 N619 2.661 . S
Gd588 N625 2.601 . S
Gd588 O632 2.545 . S
Gd588 O633 2.606 . S
Gd588 O635 2.429 . S
Gd588 O636 2.545 . S
Gd588 O637 2.412 . S
Gd588 O639 2.362 . S
Gd588 O640 2.324 . S
Gd588 C647 2.828 . S
Gd589 N598 2.661 . S
Gd589 N602 2.601 . S
Gd589 O633 2.362 . S
Gd589 O634 2.324 . S
Gd589 O638 2.545 . S
Gd589 O639 2.606 . S
Gd589 O641 2.429 . S
Gd589 O642 2.545 . S
Gd589 O643 2.412 . S
Gd589 C656 2.828 . S
C590 C593 1.417 . S
C590 C595 1.431 . S
C590 C596 1.412 . S
C591 C594 1.437 . S
C591 C595 1.317 . S
C591 H610 0.929 . S
C592 C593 1.426 . S
C592 C594 1.413 . S
C592 N602 1.359 . S
C593 C590 1.417 . S
C593 C592 1.426 . S
C593 N598 1.350 . S
C594 C591 1.437 . S
C594 C592 1.413 . S
C594 C604 1.391 . S
C595 C590 1.431 . S
C595 C591 1.317 . S
C595 H606 0.930 . S
C596 C590 1.412 . S
C596 C597 1.355 . S
C596 H608 0.930 . S
C597 C596 1.355 . S
C597 C599 1.402 . S
C597 H609 0.930 . S
N598 Gd589 2.661 . S
N598 C593 1.350 . S
N598 C599 1.307 . S
C599 C597 1.402 . S
C599 N598 1.307 . S
C599 H600 0.930 . S
H600 C599 0.930 . S
C601 N602 1.334 . S
C601 C603 1.394 . S
C601 H605 0.930 . S
N602 Gd589 2.601 . S
N602 C592 1.359 . S
N602 C601 1.334 . S
C603 C601 1.394 . S
C603 C604 1.359 . S
C603 H615 0.930 . S
C604 C594 1.391 . S
C604 C603 1.359 . S
C604 H616 0.929 . S
H605 C601 0.930 . S
H606 C595 0.930 . S
H607 C624 0.930 . S
H608 C596 0.930 . S
H609 C597 0.930 . S
H610 C591 0.929 . S
H611 C629 0.930 . S
H612 C620 0.930 . S
H613 C621 0.930 . S
H614 C645 0.929 . S
H615 C603 0.930 . S
H616 C604 0.929 . S
H617 C646 0.930 . S
H618 C627 0.930 . S
N619 Gd588 2.661 . S
N619 C623 1.350 . S
N619 C624 1.307 . S
C620 H612 0.930 . S
C620 C621 1.355 . S
C620 C622 1.412 . S
C621 H613 0.930 . S
C621 C620 1.355 . S
C621 C624 1.402 . S
C622 C620 1.412 . S
C622 C623 1.417 . S
C622 C646 1.431 . S
C623 N619 1.350 . S
C623 C622 1.417 . S
C623 C626 1.426 . S
C624 H607 0.930 . S
C624 N619 1.307 . S
C624 C621 1.402 . S
N625 Gd588 2.601 . S
N625 C626 1.359 . S
N625 C629 1.334 . S
C626 C623 1.426 . S
C626 N625 1.359 . S
C626 C630 1.413 . S
C627 H618 0.930 . S
C627 C628 1.359 . S
C627 C629 1.394 . S
C628 C627 1.359 . S
C628 C630 1.391 . S
C628 H631 0.929 . S
C629 H611 0.930 . S
C629 N625 1.334 . S
C629 C627 1.394 . S
C630 C626 1.413 . S
C630 C628 1.391 . S
C630 C645 1.437 . S
H631 C628 0.929 . S
O632 Gd588 2.545 . S
O632 C647 1.258 . S
O633 Gd588 2.606 . S
O633 Gd589 2.362 . S
O633 C644 1.284 . S
O634 Gd589 2.324 . S
O634 C654 1.254 . S
O635 Gd588 2.429 . S
O635 C654 1.268 . S
O636 Gd588 2.545 . S
O636 C644 1.250 . S
O637 Gd588 2.412 . S
O637 C647 1.252 . S
O638 Gd589 2.545 . S
O638 C656 1.258 . S
O639 Gd588 2.362 . S
O639 Gd589 2.606 . S
O639 C655 1.284 . S
O640 Gd588 2.324 . S
O640 C663 1.254 . S
O641 Gd589 2.429 . S
O641 C663 1.268 . S
O642 Gd589 2.545 . S
O642 C655 1.250 . S
O643 Gd589 2.412 . S
O643 C656 1.252 . S
C644 O633 1.284 . S
C644 O636 1.250 . S
C645 H614 0.929 . S
C645 C630 1.437 . S
C645 C646 1.317 . S
C646 H617 0.930 . S
C646 C622 1.431 . S
C646 C645 1.317 . S
C647 Gd588 2.828 . S
C647 O632 1.258 . S
C647 O637 1.252 . S
C647 C648 1.497 . S
C648 C647 1.497 . S
C648 C649 1.395 . S
C648 C650 1.380 . S
C649 C648 1.395 . S
C649 C652 1.398 . S
C649 H664 0.930 . S
C650 C648 1.380 . S
C650 C651 1.391 . S
C650 H665 0.930 . S
C651 C650 1.391 . S
C651 C653 1.387 . S
C652 C649 1.398 . S
C652 C653 1.380 . S
C652 H666 0.930 1_565 S
C653 C651 1.387 . S
C653 C652 1.380 . S
C653 H667 0.930 . S
C654 O634 1.254 . S
C654 O635 1.268 . S
C655 O639 1.284 . S
C655 O642 1.250 . S
C656 Gd589 2.828 . S
C656 O638 1.258 . S
C656 O643 1.252 . S
C656 C657 1.497 . S
C657 C656 1.497 . S
C657 C658 1.395 . S
C657 C659 1.380 . S
C658 C657 1.395 . S
C658 C661 1.398 . S
C658 H668 0.930 . S
C659 C657 1.380 . S
C659 C660 1.391 . S
C659 H669 0.930 . S
C660 C659 1.391 . S
C660 C662 1.387 . S
C661 C658 1.398 . S
C661 C662 1.380 . S
C661 H670 0.930 . S
C662 C660 1.387 . S
C662 C661 1.380 . S
C662 H671 0.930 . S
C663 O640 1.254 . S
C663 O641 1.268 . S
H664 C649 0.930 . S
H665 C650 0.930 . S
H666 C652 0.930 1_545 S
H667 C653 0.930 . S
H668 C658 0.930 . S
H669 C659 0.930 . S
H670 C661 0.930 . S
H671 C662 0.930 . S
C672 O684 1.241 . S
C672 O685 1.280 . S
C673 O686 1.277 . S
C673 O687 1.245 . S
C674 O698 1.247 . S
C674 O700 1.289 . S
Mg675 O676 1.926 1_455 S
Mg675 O685 1.984 1_455 S
Mg675 O687 1.988 1_455 S
Mg675 O688 2.061 . S
O676 Mg675 1.926 1_655 S
O676 Mg677 1.986 . S
O676 Mg678 1.917 1_655 S
Mg677 O676 1.986 . S
Mg677 O684 2.042 . S
Mg677 O686 2.041 . S
Mg677 O692 2.038 1_545 S
Mg677 O700 2.238 1_545 S
Mg678 O676 1.917 1_455 S
Mg678 O679 1.917 1_545 S
Mg678 O689 2.106 . S
Mg678 O691 2.079 1_445 S
Mg678 O700 2.106 1_445 S
Mg678 O701 2.079 . S
O679 Mg678 1.917 1_565 S
O679 Mg680 1.926 . S
O679 Mg681 1.986 1_565 S
Mg680 O679 1.926 . S
Mg680 O694 1.984 . S
Mg680 O697 1.988 . S
Mg680 O698 2.061 1_455 S
Mg681 O679 1.986 1_545 S
Mg681 O689 2.238 . S
Mg681 O693 2.042 1_545 S
Mg681 O695 2.041 1_545 S
Mg681 O702 2.038 . S
C682 O688 1.247 . S
C682 O689 1.289 . S
C683 O701 1.245 . S
C683 O702 1.274 . S
O684 C672 1.241 . S
O684 Mg677 2.042 . S
O685 C672 1.280 . S
O685 Mg675 1.984 1_655 S
O686 C673 1.277 . S
O686 Mg677 2.041 . S
O687 C673 1.245 . S
O687 Mg675 1.988 1_655 S
O688 Mg675 2.061 . S
O688 C682 1.247 . S
O689 Mg678 2.106 . S
O689 Mg681 2.238 . S
O689 C682 1.289 . S
C690 O691 1.245 . S
C690 O692 1.274 . S
O691 Mg678 2.079 1_665 S
O691 C690 1.245 . S
O692 Mg677 2.038 1_565 S
O692 C690 1.274 . S
O693 Mg681 2.042 1_565 S
O693 C696 1.241 . S
O694 Mg680 1.984 . S
O694 C696 1.280 . S
O695 Mg681 2.041 1_565 S
O695 C699 1.277 . S
C696 O693 1.241 . S
C696 O694 1.280 . S
O697 Mg680 1.988 . S
O697 C699 1.245 . S
O698 C674 1.247 . S
O698 Mg680 2.061 1_655 S
C699 O695 1.277 . S
C699 O697 1.245 . S
O700 C674 1.289 . S
O700 Mg677 2.238 1_565 S
O700 Mg678 2.106 1_665 S
O701 Mg678 2.079 . S
O701 C683 1.245 . S
O702 Mg681 2.038 . S
O702 C683 1.274 . S
C703 O715 1.241 . S
C703 O716 1.280 . S
C704 O717 1.277 . S
C704 O718 1.245 . S
C705 O729 1.247 . S
C705 O731 1.276 1_565 S
Mg706 O707 1.926 . S
Mg706 O716 1.984 . S
Mg706 O718 1.988 1_554 S
Mg706 O719 2.061 . S
O707 Mg706 1.926 . S
O707 Mg708 1.983 1_554 S
O707 Mg709 1.917 . S
Mg708 O707 1.983 1_556 S
Mg708 O715 2.030 1_556 S
Mg708 O717 2.055 . S
Mg708 O723 2.025 1_546 S
Mg708 O731 2.260 . S
Mg709 O707 1.917 . S
Mg709 O710 1.917 1_554 S
Mg709 O720 2.106 . S
Mg709 O722 2.079 1_545 S
Mg709 O731 2.108 1_554 S
Mg709 O732 2.079 1_554 S
O710 Mg709 1.917 1_556 S
O710 Mg711 1.926 1_545 S
O710 Mg712 1.986 1_556 S
Mg711 O710 1.926 1_565 S
Mg711 O725 1.984 . S
Mg711 O728 1.988 1_556 S
Mg711 O729 2.061 . S
Mg712 O710 1.986 1_554 S
Mg712 O720 2.238 . S
Mg712 O724 2.042 1_554 S
Mg712 O726 2.049 . S
Mg712 O733 2.038 1_554 S
C713 O719 1.247 . S
C713 O720 1.289 . S
C714 O732 1.245 . S
C714 O733 1.274 . S
O715 C703 1.241 . S
O715 Mg708 2.030 1_554 S
O716 C703 1.280 . S
O716 Mg706 1.984 . S
O717 C704 1.277 . S
O717 Mg708 2.055 . S
O718 C704 1.245 . S
O718 Mg706 1.988 1_556 S
O719 Mg706 2.061 . S
O719 C713 1.247 . S
O720 Mg709 2.106 . S
O720 Mg712 2.238 . S
O720 C713 1.289 . S
C721 O722 1.245 . S
C721 O723 1.274 . S
O722 Mg709 2.079 1_565 S
O722 C721 1.245 . S
O723 Mg708 2.025 1_564 S
O723 C721 1.274 . S
O724 Mg712 2.042 1_556 S
O724 C727 1.241 1_545 S
O725 Mg711 1.984 . S
O725 C727 1.280 . S
O726 Mg712 2.049 . S
O726 C730 1.268 1_545 S
C727 O724 1.241 1_565 S
C727 O725 1.280 . S
O728 Mg711 1.988 1_554 S
O728 C730 1.245 . S
O729 C705 1.247 . S
O729 Mg711 2.061 . S
C730 O726 1.268 1_565 S
C730 O728 1.245 . S
O731 C705 1.276 1_545 S
O731 Mg708 2.260 . S
O731 Mg709 2.108 1_556 S
O732 Mg709 2.079 1_556 S
O732 C714 1.245 . S
O733 Mg712 2.038 1_556 S
O733 C714 1.274 . S
C734 O746 1.241 . S
C734 O747 1.280 . S
C735 O748 1.277 1_556 S
C735 O749 1.245 1_556 S
C736 O760 1.247 . S
C736 O762 1.289 . S
Mg737 O738 1.926 1_455 S
Mg737 O747 1.984 1_455 S
Mg737 O749 1.988 1_455 S
Mg737 O750 2.061 . S
O738 Mg737 1.926 1_655 S
O738 Mg739 1.986 . S
O738 Mg740 1.917 1_655 S
Mg739 O738 1.986 . S
Mg739 O746 2.042 . S
Mg739 O748 2.041 . S
Mg739 O754 2.038 . S
Mg739 O762 2.238 . S
Mg740 O738 1.917 1_455 S
Mg740 O741 1.917 . S
Mg740 O751 2.106 . S
Mg740 O753 2.079 1_455 S
Mg740 O762 2.106 1_455 S
Mg740 O763 2.079 . S
O741 Mg740 1.917 . S
O741 Mg742 1.926 . S
O741 Mg743 1.986 . S
Mg742 O741 1.926 . S
Mg742 O756 1.984 . S
Mg742 O759 1.988 . S
Mg742 O760 2.061 1_455 S
Mg743 O741 1.986 . S
Mg743 O751 2.238 . S
Mg743 O755 2.042 . S
Mg743 O757 2.041 . S
Mg743 O764 2.038 . S
C744 O750 1.247 . S
C744 O751 1.289 . S
C745 O763 1.245 1_556 S
C745 O764 1.274 1_556 S
O746 C734 1.241 . S
O746 Mg739 2.042 . S
O747 C734 1.280 . S
O747 Mg737 1.984 1_655 S
O748 C735 1.277 1_554 S
O748 Mg739 2.041 . S
O749 C735 1.245 1_554 S
O749 Mg737 1.988 1_655 S
O750 Mg737 2.061 . S
O750 C744 1.247 . S
O751 Mg740 2.106 . S
O751 Mg743 2.238 . S
O751 C744 1.289 . S
C752 O753 1.245 . S
C752 O754 1.274 . S
O753 Mg740 2.079 1_655 S
O753 C752 1.245 . S
O754 Mg739 2.038 . S
O754 C752 1.274 . S
O755 Mg743 2.042 . S
O755 C758 1.241 . S
O756 Mg742 1.984 . S
O756 C758 1.280 . S
O757 Mg743 2.041 . S
O757 C761 1.277 . S
C758 O755 1.241 . S
C758 O756 1.280 . S
O759 Mg742 1.988 . S
O759 C761 1.245 . S
O760 C736 1.247 . S
O760 Mg742 2.061 1_655 S
C761 O757 1.277 . S
C761 O759 1.245 . S
O762 C736 1.289 . S
O762 Mg739 2.238 . S
O762 Mg740 2.106 1_655 S
O763 Mg740 2.079 . S
O763 C745 1.245 1_554 S
O764 Mg743 2.038 . S
O764 C745 1.274 1_554 S
C765 O777 1.241 . S
C765 O778 1.280 . S
C766 O779 1.277 . S
C766 O780 1.245 . S
C767 O791 1.247 . S
C767 O793 1.289 . S
Mg768 O769 1.926 . S
Mg768 O778 1.984 . S
Mg768 O780 1.988 1_554 S
Mg768 O781 2.061 . S
O769 Mg768 1.926 . S
O769 Mg770 1.986 . S
O769 Mg771 1.917 . S
Mg770 O769 1.986 . S
Mg770 O777 2.042 . S
Mg770 O779 2.041 1_554 S
Mg770 O785 2.038 . S
Mg770 O793 2.238 1_554 S
Mg771 O769 1.917 . S
Mg771 O772 1.917 . S
Mg771 O782 2.106 . S
Mg771 O784 2.079 . S
Mg771 O793 2.106 1_554 S
Mg771 O794 2.079 1_554 S
O772 Mg771 1.917 . S
O772 Mg773 1.926 . S
O772 Mg774 1.986 . S
Mg773 O772 1.926 . S
Mg773 O787 1.984 1_554 S
Mg773 O790 1.988 . S
Mg773 O791 2.061 1_554 S
Mg774 O772 1.986 . S
Mg774 O782 2.238 . S
Mg774 O786 2.023 1_554 S
Mg774 O788 2.041 . S
Mg774 O795 2.038 1_554 S
C775 O781 1.247 . S
C775 O782 1.289 . S
C776 O794 1.245 . S
C776 O795 1.274 . S
O777 C765 1.241 . S
O777 Mg770 2.042 . S
O778 C765 1.280 . S
O778 Mg768 1.984 . S
O779 C766 1.277 . S
O779 Mg770 2.041 1_556 S
O780 C766 1.245 . S
O780 Mg768 1.988 1_556 S
O781 Mg768 2.061 . S
O781 C775 1.247 . S
O782 Mg771 2.106 . S
O782 Mg774 2.238 . S
O782 C775 1.289 . S
C783 O784 1.245 . S
C783 O785 1.274 . S
O784 Mg771 2.079 . S
O784 C783 1.245 . S
O785 Mg770 2.038 . S
O785 C783 1.274 . S
O786 Mg774 2.023 1_556 S
O786 C789 1.257 . S
O787 Mg773 1.984 1_556 S
O787 C789 1.280 . S
O788 Mg774 2.041 . S
O788 C792 1.277 . S
C789 O786 1.257 . S
C789 O787 1.280 . S
O790 Mg773 1.988 . S
O790 C792 1.245 . S
O791 C767 1.247 . S
O791 Mg773 2.061 1_556 S
C792 O788 1.277 . S
C792 O790 1.245 . S
O793 C767 1.289 . S
O793 Mg770 2.238 1_556 S
O793 Mg771 2.106 1_556 S
O794 Mg771 2.079 1_556 S
O794 C776 1.245 . S
O795 Mg774 2.038 1_556 S
O795 C776 1.274 . S
C796 O808 1.241 . S
C796 O809 1.280 . S
C797 O810 1.277 . S
C797 O811 1.245 1_655 S
C798 O822 1.247 . S
C798 O824 1.289 . S
Mg799 O800 1.926 . S
Mg799 O809 1.984 1_455 S
Mg799 O811 1.988 . S
Mg799 O812 2.061 . S
O800 Mg799 1.926 . S
O800 Mg801 1.986 1_455 S
O800 Mg802 1.917 . S
Mg801 O800 1.986 1_655 S
Mg801 O808 2.042 . S
Mg801 O810 2.041 . S
Mg801 O816 2.038 . S
Mg801 O824 2.238 . S
Mg802 O800 1.917 . S
Mg802 O803 1.917 . S
Mg802 O813 2.106 . S
Mg802 O815 2.079 . S
Mg802 O824 2.106 1_455 S
Mg802 O825 2.079 . S
O803 Mg802 1.917 . S
O803 Mg804 1.926 . S
O803 Mg805 1.986 . S
Mg804 O803 1.926 . S
Mg804 O818 1.984 . S
Mg804 O821 1.988 . S
Mg804 O822 2.061 1_455 S
Mg805 O803 1.986 . S
Mg805 O813 2.238 . S
Mg805 O817 2.042 . S
Mg805 O819 2.041 . S
Mg805 O826 2.038 . S
C806 O812 1.247 . S
C806 O813 1.289 . S
C807 O825 1.245 . S
C807 O826 1.274 . S
O808 C796 1.241 . S
O808 Mg801 2.042 . S
O809 C796 1.280 . S
O809 Mg799 1.984 1_655 S
O810 C797 1.277 . S
O810 Mg801 2.041 . S
O811 C797 1.245 1_455 S
O811 Mg799 1.988 . S
O812 Mg799 2.061 . S
O812 C806 1.247 . S
O813 Mg802 2.106 . S
O813 Mg805 2.238 . S
O813 C806 1.289 . S
C814 O815 1.245 1_655 S
C814 O816 1.274 . S
O815 Mg802 2.079 . S
O815 C814 1.245 1_455 S
O816 Mg801 2.038 . S
O816 C814 1.274 . S
O817 Mg805 2.042 . S
O817 C820 1.241 . S
O818 Mg804 1.984 . S
O818 C820 1.280 . S
O819 Mg805 2.041 . S
O819 C823 1.277 . S
C820 O817 1.241 . S
C820 O818 1.280 . S
O821 Mg804 1.988 . S
O821 C823 1.245 . S
O822 C798 1.247 . S
O822 Mg804 2.061 1_655 S
C823 O819 1.277 . S
C823 O821 1.245 . S
O824 C798 1.289 . S
O824 Mg801 2.238 . S
O824 Mg802 2.106 1_655 S
O825 Mg802 2.079 . S
O825 C807 1.245 . S
O826 Mg805 2.038 . S
O826 C807 1.274 . S
C827 O839 1.241 . S
C827 O840 1.280 . S
C828 O841 1.277 . S
C828 O842 1.245 . S
C829 O853 1.247 . S
C829 O855 1.289 . S
Mg830 O831 1.926 . S
Mg830 O840 1.984 . S
Mg830 O842 1.988 . S
Mg830 O843 2.061 . S
O831 Mg830 1.926 . S
O831 Mg832 1.986 1_545 S
O831 Mg833 1.917 . S
Mg832 O831 1.986 1_565 S
Mg832 O839 2.042 1_565 S
Mg832 O841 2.041 1_565 S
Mg832 O847 2.038 . S
Mg832 O855 2.238 . S
Mg833 O831 1.917 . S
Mg833 O834 1.917 1_545 S
Mg833 O844 2.106 . S
Mg833 O846 2.079 1_545 S
Mg833 O855 2.106 1_545 S
Mg833 O856 2.079 . S
O834 Mg833 1.917 1_565 S
O834 Mg835 1.926 . S
O834 Mg836 1.986 1_565 S
Mg835 O834 1.926 . S
Mg835 O849 1.984 . S
Mg835 O852 1.988 . S
Mg835 O853 2.061 . S
Mg836 O834 1.986 1_545 S
Mg836 O844 2.238 . S
Mg836 O848 2.042 1_545 S
Mg836 O850 2.041 1_545 S
Mg836 O857 2.038 . S
C837 O843 1.247 . S
C837 O844 1.289 . S
C838 O856 1.245 . S
C838 O857 1.274 . S
O839 C827 1.241 . S
O839 Mg832 2.042 1_545 S
O840 C827 1.280 . S
O840 Mg830 1.984 . S
O841 C828 1.277 . S
O841 Mg832 2.041 1_545 S
O842 C828 1.245 . S
O842 Mg830 1.988 . S
O843 Mg830 2.061 . S
O843 C837 1.247 . S
O844 Mg833 2.106 . S
O844 Mg836 2.238 . S
O844 C837 1.289 . S
C845 O846 1.245 . S
C845 O847 1.274 . S
O846 Mg833 2.079 1_565 S
O846 C845 1.245 . S
O847 Mg832 2.038 . S
O847 C845 1.274 . S
O848 Mg836 2.042 1_565 S
O848 C851 1.241 . S
O849 Mg835 1.984 . S
O849 C851 1.280 . S
O850 Mg836 2.041 1_565 S
O850 C854 1.277 . S
C851 O848 1.241 . S
C851 O849 1.280 . S
O852 Mg835 1.988 . S
O852 C854 1.245 . S
O853 C829 1.247 . S
O853 Mg835 2.061 . S
C854 O850 1.277 . S
C854 O852 1.245 . S
O855 C829 1.289 . S
O855 Mg832 2.238 . S
O855 Mg833 2.106 1_565 S
O856 Mg833 2.079 . S
O856 C838 1.245 . S
O857 Mg836 2.038 . S
O857 C838 1.274 . S
H858 C864 0.930 . S
H859 C867 0.930 . S
H860 C868 0.930 . S
H861 C869 0.930 . S
H862 C872 0.930 . S
H863 C873 0.930 . S
C864 H858 0.930 . S
C864 C865 1.355 . S
C864 C866 1.415 . S
C865 C864 1.355 . S
C865 C867 1.419 . S
C866 C864 1.415 . S
C866 C871 1.425 . S
C866 C873 1.409 . S
C867 H859 0.930 . S
C867 C865 1.419 . S
C867 C868 1.362 . S
C868 H860 0.930 . S
C868 C867 1.362 . S
C868 C871 1.409 . S
C869 H861 0.930 . S
C869 C870 1.355 . S
C869 C871 1.415 . S
C870 C869 1.355 . S
C870 C872 1.419 . S
C871 C866 1.425 . S
C871 C868 1.409 . S
C871 C869 1.415 . S
C872 H862 0.930 . S
C872 C870 1.419 . S
C872 C873 1.362 . S
C873 H863 0.930 . S
C873 C866 1.409 . S
C873 C872 1.362 . S
H874 C880 0.930 . S
H875 C883 0.930 . S
H876 C884 0.930 . S
H877 C885 0.930 . S
H878 C888 0.930 . S
H879 C889 0.930 . S
C880 H874 0.930 . S
C880 C881 1.355 . S
C880 C882 1.415 . S
C881 C880 1.355 . S
C881 C883 1.419 . S
C882 C880 1.415 . S
C882 C887 1.425 . S
C882 C889 1.409 . S
C883 H875 0.930 . S
C883 C881 1.419 . S
C883 C884 1.362 . S
C884 H876 0.930 . S
C884 C883 1.362 . S
C884 C887 1.409 . S
C885 H877 0.930 . S
C885 C886 1.355 . S
C885 C887 1.415 . S
C886 C885 1.355 . S
C886 C888 1.419 . S
C887 C882 1.425 . S
C887 C884 1.409 . S
C887 C885 1.415 . S
C888 H878 0.930 . S
C888 C886 1.419 . S
C888 C889 1.362 . S
C889 H879 0.930 . S
C889 C882 1.409 . S
C889 C888 1.362 . S
H890 C896 0.930 . S
H891 C899 0.930 . S
H892 C900 0.930 . S
H893 C901 0.930 . S
H894 C904 0.930 . S
H895 C905 0.930 . S
C896 H890 0.930 . S
C896 C897 1.355 . S
C896 C898 1.415 . S
C897 C896 1.355 . S
C897 C899 1.419 . S
C898 C896 1.415 . S
C898 C903 1.425 . S
C898 C905 1.409 . S
C899 H891 0.930 . S
C899 C897 1.419 . S
C899 C900 1.362 . S
C900 H892 0.930 . S
C900 C899 1.362 . S
C900 C903 1.409 . S
C901 H893 0.930 . S
C901 C902 1.355 . S
C901 C903 1.415 . S
C902 C901 1.355 . S
C902 C904 1.419 . S
C903 C898 1.425 . S
C903 C900 1.409 . S
C903 C901 1.415 . S
C904 H894 0.930 . S
C904 C902 1.419 . S
C904 C905 1.362 . S
C905 H895 0.930 . S
C905 C898 1.409 . S
C905 C904 1.362 . S
H906 C912 0.930 . S
H907 C915 0.930 . S
H908 C916 0.930 . S
H909 C917 0.930 . S
H910 C920 0.930 . S
H911 C921 0.930 . S
C912 H906 0.930 . S
C912 C913 1.355 . S
C912 C914 1.415 . S
C913 C912 1.355 . S
C913 C915 1.419 . S
C914 C912 1.415 . S
C914 C919 1.425 . S
C914 C921 1.409 . S
C915 H907 0.930 . S
C915 C913 1.419 . S
C915 C916 1.362 . S
C916 H908 0.930 . S
C916 C915 1.362 . S
C916 C919 1.409 . S
C917 H909 0.930 . S
C917 C918 1.355 . S
C917 C919 1.415 . S
C918 C917 1.355 . S
C918 C920 1.419 . S
C919 C914 1.425 . S
C919 C916 1.409 . S
C919 C917 1.415 . S
C920 H910 0.930 . S
C920 C918 1.419 . S
C920 C921 1.362 . S
C921 H911 0.930 . S
C921 C914 1.409 . S
C921 C920 1.362 . S
H922 C928 0.930 . S
H923 C931 0.930 . S
H924 C932 0.930 . S
H925 C933 0.930 . S
H926 C936 0.930 . S
H927 C937 0.930 . S
C928 H922 0.930 . S
C928 C929 1.355 . S
C928 C930 1.415 . S
C929 C928 1.355 . S
C929 C931 1.419 . S
C930 C928 1.415 . S
C930 C935 1.425 . S
C930 C937 1.409 . S
C931 H923 0.930 . S
C931 C929 1.419 . S
C931 C932 1.362 . S
C932 H924 0.930 . S
C932 C931 1.362 . S
C932 C935 1.409 . S
C933 H925 0.930 . S
C933 C934 1.355 . S
C933 C935 1.415 . S
C934 C933 1.355 . S
C934 C936 1.419 . S
C935 C930 1.425 . S
C935 C932 1.409 . S
C935 C933 1.415 . S
C936 H926 0.930 . S
C936 C934 1.419 . S
C936 C937 1.362 . S
C937 H927 0.930 . S
C937 C930 1.409 . S
C937 C936 1.362 . S
H938 C944 0.930 . S
H939 C947 0.930 . S
H940 C948 0.930 . S
H941 C949 0.930 . S
H942 C952 0.930 . S
H943 C953 0.930 . S
C944 H938 0.930 . S
C944 C945 1.355 . S
C944 C946 1.415 . S
C945 C944 1.355 . S
C945 C947 1.419 . S
C946 C944 1.415 . S
C946 C951 1.425 . S
C946 C953 1.409 . S
C947 H939 0.930 . S
C947 C945 1.419 . S
C947 C948 1.362 . S
C948 H940 0.930 . S
C948 C947 1.362 . S
C948 C951 1.409 . S
C949 H941 0.930 . S
C949 C950 1.355 . S
C949 C951 1.415 . S
C950 C949 1.355 . S
C950 C952 1.419 . S
C951 C946 1.425 . S
C951 C948 1.409 . S
C951 C949 1.415 . S
C952 H942 0.930 . S
C952 C950 1.419 . S
C952 C953 1.362 . S
C953 H943 0.930 . S
C953 C946 1.409 . S
C953 C952 1.362 . S
H954 C960 0.930 . S
H955 C963 0.930 . S
H956 C964 0.930 . S
H957 C965 0.930 . S
H958 C968 0.930 . S
H959 C969 0.930 . S
C960 H954 0.930 . S
C960 C961 1.355 . S
C960 C962 1.415 . S
C961 C960 1.355 . S
C961 C963 1.419 . S
C962 C960 1.415 . S
C962 C967 1.425 . S
C962 C969 1.409 . S
C963 H955 0.930 . S
C963 C961 1.419 . S
C963 C964 1.362 . S
C964 H956 0.930 . S
C964 C963 1.362 . S
C964 C967 1.409 . S
C965 H957 0.930 . S
C965 C966 1.355 . S
C965 C967 1.415 . S
C966 C965 1.355 . S
C966 C968 1.419 . S
C967 C962 1.425 . S
C967 C964 1.409 . S
C967 C965 1.415 . S
C968 H958 0.930 . S
C968 C966 1.419 . S
C968 C969 1.362 . S
C969 H959 0.930 . S
C969 C962 1.409 . S
C969 C968 1.362 . S
H970 C976 0.930 . S
H971 C979 0.930 . S
H972 C980 0.930 . S
H973 C981 0.930 . S
H974 C984 0.930 . S
H975 C985 0.930 . S
C976 H970 0.930 . S
C976 C977 1.355 . S
C976 C978 1.415 . S
C977 C976 1.355 . S
C977 C979 1.419 . S
C978 C976 1.415 . S
C978 C983 1.425 . S
C978 C985 1.409 . S
C979 H971 0.930 . S
C979 C977 1.419 . S
C979 C980 1.362 . S
C980 H972 0.930 . S
C980 C979 1.362 . S
C980 C983 1.409 . S
C981 H973 0.930 . S
C981 C982 1.355 . S
C981 C983 1.415 . S
C982 C981 1.355 . S
C982 C984 1.419 . S
C983 C978 1.425 . S
C983 C980 1.409 . S
C983 C981 1.415 . S
C984 H974 0.930 . S
C984 C982 1.419 . S
C984 C985 1.362 . S
C985 H975 0.930 . S
C985 C978 1.409 . S
C985 C984 1.362 . S
H986 C992 0.930 . S
H987 C995 0.930 . S
H988 C996 0.930 . S
H989 C997 0.930 . S
H990 C1000 0.930 . S
H991 C1001 0.930 . S
C992 H986 0.930 . S
C992 C993 1.355 . S
C992 C994 1.415 . S
C993 C992 1.355 . S
C993 C995 1.419 . S
C994 C992 1.415 . S
C994 C999 1.425 . S
C994 C1001 1.409 . S
C995 H987 0.930 . S
C995 C993 1.419 . S
C995 C996 1.362 . S
C996 H988 0.930 . S
C996 C995 1.362 . S
C996 C999 1.409 . S
C997 H989 0.930 . S
C997 C998 1.355 . S
C997 C999 1.415 . S
C998 C997 1.355 . S
C998 C1000 1.419 . S
C999 C994 1.425 . S
C999 C996 1.409 . S
C999 C997 1.415 . S
C1000 H990 0.930 . S
C1000 C998 1.419 . S
C1000 C1001 1.362 . S
C1001 H991 0.930 . S
C1001 C994 1.409 . S
C1001 C1000 1.362 . S
H1002 C1008 0.930 . S
H1003 C1011 0.930 . S
H1004 C1012 0.930 . S
H1005 C1013 0.930 . S
H1006 C1016 0.930 . S
H1007 C1017 0.930 . S
C1008 H1002 0.930 . S
C1008 C1009 1.355 . S
C1008 C1010 1.415 . S
C1009 C1008 1.355 . S
C1009 C1011 1.419 . S
C1010 C1008 1.415 . S
C1010 C1015 1.425 . S
C1010 C1017 1.409 . S
C1011 H1003 0.930 . S
C1011 C1009 1.419 . S
C1011 C1012 1.362 . S
C1012 H1004 0.930 . S
C1012 C1011 1.362 . S
C1012 C1015 1.409 . S
C1013 H1005 0.930 . S
C1013 C1014 1.355 . S
C1013 C1015 1.415 . S
C1014 C1013 1.355 . S
C1014 C1016 1.419 . S
C1015 C1010 1.425 . S
C1015 C1012 1.409 . S
C1015 C1013 1.415 . S
C1016 H1006 0.930 . S
C1016 C1014 1.419 . S
C1016 C1017 1.362 . S
C1017 H1007 0.930 . S
C1017 C1010 1.409 . S
C1017 C1016 1.362 . S
H1018 C1024 0.930 . S
H1019 C1027 0.930 . S
H1020 C1028 0.930 . S
H1021 C1029 0.930 . S
H1022 C1032 0.930 1_545 S
H1023 C1033 0.930 1_545 S
C1024 H1018 0.930 . S
C1024 C1025 1.355 . S
C1024 C1026 1.415 . S
C1025 C1024 1.355 . S
C1025 C1027 1.419 . S
C1026 C1024 1.415 . S
C1026 C1031 1.425 . S
C1026 C1033 1.409 . S
C1027 H1019 0.930 . S
C1027 C1025 1.419 . S
C1027 C1028 1.362 . S
C1028 H1020 0.930 . S
C1028 C1027 1.362 . S
C1028 C1031 1.409 . S
C1029 H1021 0.930 . S
C1029 C1030 1.355 . S
C1029 C1031 1.415 . S
C1030 C1029 1.355 . S
C1030 C1032 1.419 . S
C1031 C1026 1.425 . S
C1031 C1028 1.409 . S
C1031 C1029 1.415 . S
C1032 H1022 0.930 1_565 S
C1032 C1030 1.419 . S
C1032 C1033 1.362 . S
C1033 H1023 0.930 1_565 S
C1033 C1026 1.409 . S
C1033 C1032 1.362 . S
H1034 C1040 0.930 . S
H1035 C1043 0.930 . S
H1036 C1044 0.930 . S
H1037 C1045 0.930 . S
H1038 C1048 0.930 . S
H1039 C1049 0.930 . S
C1040 H1034 0.930 . S
C1040 C1041 1.355 . S
C1040 C1042 1.415 . S
C1041 C1040 1.355 . S
C1041 C1043 1.419 . S
C1042 C1040 1.415 . S
C1042 C1047 1.425 . S
C1042 C1049 1.409 . S
C1043 H1035 0.930 . S
C1043 C1041 1.419 . S
C1043 C1044 1.362 . S
C1044 H1036 0.930 . S
C1044 C1043 1.362 . S
C1044 C1047 1.409 . S
C1045 H1037 0.930 . S
C1045 C1046 1.355 . S
C1045 C1047 1.415 . S
C1046 C1045 1.355 . S
C1046 C1048 1.419 . S
C1047 C1042 1.425 . S
C1047 C1044 1.409 . S
C1047 C1045 1.415 . S
C1048 H1038 0.930 . S
C1048 C1046 1.419 . S
C1048 C1049 1.362 . S
C1049 H1039 0.930 . S
C1049 C1042 1.409 . S
C1049 C1048 1.362 . S
H1050 C1056 0.930 . S
H1051 C1059 0.930 . S
H1052 C1060 0.930 . S
H1053 C1061 0.930 . S
H1054 C1064 0.926 1_545 S
H1055 C1065 0.930 . S
C1056 H1050 0.930 . S
C1056 C1057 1.355 . S
C1056 C1058 1.415 . S
C1057 C1056 1.355 . S
C1057 C1059 1.419 . S
C1058 C1056 1.415 . S
C1058 C1063 1.425 . S
C1058 C1065 1.409 . S
C1059 H1051 0.930 . S
C1059 C1057 1.419 . S
C1059 C1060 1.362 . S
C1060 H1052 0.930 . S
C1060 C1059 1.362 . S
C1060 C1063 1.409 . S
C1061 H1053 0.930 . S
C1061 C1062 1.355 . S
C1061 C1063 1.415 . S
C1062 C1061 1.355 . S
C1062 C1064 1.419 . S
C1063 C1058 1.425 . S
C1063 C1060 1.409 . S
C1063 C1061 1.415 . S
C1064 H1054 0.926 1_565 S
C1064 C1062 1.419 . S
C1064 C1065 1.362 . S
C1065 H1055 0.930 . S
C1065 C1058 1.409 . S
C1065 C1064 1.362 . S
H1066 C1072 0.930 . S
H1067 C1075 0.930 . S
H1068 C1076 0.930 . S
H1069 C1077 0.930 . S
H1070 C1080 0.930 . S
H1071 C1081 0.930 . S
C1072 H1066 0.930 . S
C1072 C1073 1.355 . S
C1072 C1074 1.415 . S
C1073 C1072 1.355 . S
C1073 C1075 1.419 . S
C1074 C1072 1.415 . S
C1074 C1079 1.425 . S
C1074 C1081 1.409 . S
C1075 H1067 0.930 . S
C1075 C1073 1.419 . S
C1075 C1076 1.362 . S
C1076 H1068 0.930 . S
C1076 C1075 1.362 . S
C1076 C1079 1.409 . S
C1077 H1069 0.930 . S
C1077 C1078 1.355 . S
C1077 C1079 1.415 . S
C1078 C1077 1.355 . S
C1078 C1080 1.419 . S
C1079 C1074 1.425 . S
C1079 C1076 1.409 . S
C1079 C1077 1.415 . S
C1080 H1070 0.930 . S
C1080 C1078 1.419 . S
C1080 C1081 1.362 . S
C1081 H1071 0.930 . S
C1081 C1074 1.409 . S
C1081 C1080 1.362 . S
H1082 C1088 0.930 . S
H1083 C1091 0.930 . S
H1084 C1092 0.930 . S
H1085 C1093 0.930 . S
H1086 C1096 0.930 . S
H1087 C1097 0.930 . S
C1088 H1082 0.930 . S
C1088 C1089 1.355 . S
C1088 C1090 1.415 . S
C1089 C1088 1.355 . S
C1089 C1091 1.419 . S
C1090 C1088 1.415 . S
C1090 C1095 1.425 . S
C1090 C1097 1.409 . S
C1091 H1083 0.930 . S
C1091 C1089 1.419 . S
C1091 C1092 1.362 . S
C1092 H1084 0.930 . S
C1092 C1091 1.362 . S
C1092 C1095 1.409 . S
C1093 H1085 0.930 . S
C1093 C1094 1.355 . S
C1093 C1095 1.415 . S
C1094 C1093 1.355 . S
C1094 C1096 1.419 . S
C1095 C1090 1.425 . S
C1095 C1092 1.409 . S
C1095 C1093 1.415 . S
C1096 H1086 0.930 . S
C1096 C1094 1.419 . S
C1096 C1097 1.362 . S
C1097 H1087 0.930 . S
C1097 C1090 1.409 . S
C1097 C1096 1.362 . S
H1098 C1104 0.930 . S
H1099 C1107 0.930 . S
H1100 C1108 0.930 . S
H1101 C1109 0.930 . S
H1102 C1112 0.930 . S
H1103 C1113 0.930 . S
C1104 H1098 0.930 . S
C1104 C1105 1.355 . S
C1104 C1106 1.415 . S
C1105 C1104 1.355 . S
C1105 C1107 1.419 . S
C1106 C1104 1.415 . S
C1106 C1111 1.425 . S
C1106 C1113 1.409 . S
C1107 H1099 0.930 . S
C1107 C1105 1.419 . S
C1107 C1108 1.362 . S
C1108 H1100 0.930 . S
C1108 C1107 1.362 . S
C1108 C1111 1.409 . S
C1109 H1101 0.930 . S
C1109 C1110 1.355 . S
C1109 C1111 1.415 . S
C1110 C1109 1.355 . S
C1110 C1112 1.419 . S
C1111 C1106 1.425 . S
C1111 C1108 1.409 . S
C1111 C1109 1.415 . S
C1112 H1102 0.930 . S
C1112 C1110 1.419 . S
C1112 C1113 1.362 . S
C1113 H1103 0.930 . S
C1113 C1106 1.409 . S
C1113 C1112 1.362 . S
H1114 C1120 0.930 . S
H1115 C1123 0.930 . S
H1116 C1124 0.930 . S
H1117 C1125 0.930 . S
H1118 C1128 0.930 . S
H1119 C1129 0.930 . S
C1120 H1114 0.930 . S
C1120 C1121 1.355 . S
C1120 C1122 1.415 . S
C1121 C1120 1.355 . S
C1121 C1123 1.419 . S
C1122 C1120 1.415 . S
C1122 C1127 1.425 . S
C1122 C1129 1.409 . S
C1123 H1115 0.930 . S
C1123 C1121 1.419 . S
C1123 C1124 1.362 . S
C1124 H1116 0.930 . S
C1124 C1123 1.362 . S
C1124 C1127 1.409 . S
C1125 H1117 0.930 . S
C1125 C1126 1.355 . S
C1125 C1127 1.415 . S
C1126 C1125 1.355 . S
C1126 C1128 1.419 . S
C1127 C1122 1.425 . S
C1127 C1124 1.409 . S
C1127 C1125 1.415 . S
C1128 H1118 0.930 . S
C1128 C1126 1.419 . S
C1128 C1129 1.362 . S
C1129 H1119 0.930 . S
C1129 C1122 1.409 . S
C1129 C1128 1.362 . S
H1130 C1136 0.930 . S
H1131 C1139 0.930 . S
H1132 C1140 0.930 . S
H1133 C1141 0.930 . S
H1134 C1144 0.930 . S
H1135 C1145 0.930 . S
C1136 H1130 0.930 . S
C1136 C1137 1.355 . S
C1136 C1138 1.415 . S
C1137 C1136 1.355 . S
C1137 C1139 1.419 . S
C1138 C1136 1.415 . S
C1138 C1143 1.425 . S
C1138 C1145 1.409 . S
C1139 H1131 0.930 . S
C1139 C1137 1.419 . S
C1139 C1140 1.362 . S
C1140 H1132 0.930 . S
C1140 C1139 1.362 . S
C1140 C1143 1.409 . S
C1141 H1133 0.930 . S
C1141 C1142 1.355 . S
C1141 C1143 1.415 . S
C1142 C1141 1.355 . S
C1142 C1144 1.419 . S
C1143 C1138 1.425 . S
C1143 C1140 1.409 . S
C1143 C1141 1.415 . S
C1144 H1134 0.930 . S
C1144 C1142 1.419 . S
C1144 C1145 1.362 . S
C1145 H1135 0.930 . S
C1145 C1138 1.409 . S
C1145 C1144 1.362 . S
H1146 C1152 0.930 . S
H1147 C1155 0.930 . S
H1148 C1156 0.930 . S
H1149 C1157 0.930 . S
H1150 C1160 0.930 . S
H1151 C1161 0.930 . S
C1152 H1146 0.930 . S
C1152 C1153 1.355 . S
C1152 C1154 1.415 . S
C1153 C1152 1.355 . S
C1153 C1155 1.419 . S
C1154 C1152 1.415 . S
C1154 C1159 1.425 . S
C1154 C1161 1.409 . S
C1155 H1147 0.930 . S
C1155 C1153 1.419 . S
C1155 C1156 1.362 . S
C1156 H1148 0.930 . S
C1156 C1155 1.362 . S
C1156 C1159 1.409 . S
C1157 H1149 0.930 . S
C1157 C1158 1.355 . S
C1157 C1159 1.415 . S
C1158 C1157 1.355 . S
C1158 C1160 1.419 . S
C1159 C1154 1.425 . S
C1159 C1156 1.409 . S
C1159 C1157 1.415 . S
C1160 H1150 0.930 . S
C1160 C1158 1.419 . S
C1160 C1161 1.362 . S
C1161 H1151 0.930 . S
C1161 C1154 1.409 . S
C1161 C1160 1.362 . S
H1162 C1168 0.930 . S
H1163 C1171 0.930 . S
H1164 C1172 0.930 . S
H1165 C1173 0.930 . S
H1166 C1176 0.930 . S
H1167 C1177 0.930 . S
C1168 H1162 0.930 . S
C1168 C1169 1.355 . S
C1168 C1170 1.415 . S
C1169 C1168 1.355 . S
C1169 C1171 1.419 . S
C1170 C1168 1.415 . S
C1170 C1175 1.425 . S
C1170 C1177 1.409 . S
C1171 H1163 0.930 . S
C1171 C1169 1.419 . S
C1171 C1172 1.362 . S
C1172 H1164 0.930 . S
C1172 C1171 1.362 . S
C1172 C1175 1.409 . S
C1173 H1165 0.930 . S
C1173 C1174 1.355 . S
C1173 C1175 1.415 . S
C1174 C1173 1.355 . S
C1174 C1176 1.419 . S
C1175 C1170 1.425 . S
C1175 C1172 1.409 . S
C1175 C1173 1.415 . S
C1176 H1166 0.930 . S
C1176 C1174 1.419 . S
C1176 C1177 1.362 . S
C1177 H1167 0.930 . S
C1177 C1170 1.409 . S
C1177 C1176 1.362 . S
H1178 C1184 0.930 . S
H1179 C1187 0.930 . S
H1180 C1188 0.930 1_545 S
H1181 C1189 0.930 1_545 S
H1182 C1192 0.930 . S
H1183 C1193 0.930 . S
C1184 H1178 0.930 . S
C1184 C1185 1.355 . S
C1184 C1186 1.415 . S
C1185 C1184 1.355 . S
C1185 C1187 1.419 . S
C1186 C1184 1.415 . S
C1186 C1191 1.425 . S
C1186 C1193 1.409 . S
C1187 H1179 0.930 . S
C1187 C1185 1.419 . S
C1187 C1188 1.362 . S
C1188 H1180 0.930 1_565 S
C1188 C1187 1.362 . S
C1188 C1191 1.409 . S
C1189 H1181 0.930 1_565 S
C1189 C1190 1.355 . S
C1189 C1191 1.415 . S
C1190 C1189 1.355 . S
C1190 C1192 1.419 . S
C1191 C1186 1.425 . S
C1191 C1188 1.409 . S
C1191 C1189 1.415 . S
C1192 H1182 0.930 . S
C1192 C1190 1.419 . S
C1192 C1193 1.362 . S
C1193 H1183 0.930 . S
C1193 C1186 1.409 . S
C1193 C1192 1.362 . S
H1194 C1200 0.930 . S
H1195 C1203 0.930 . S
H1196 C1204 0.930 . S
H1197 C1205 0.930 . S
H1198 C1208 0.930 . S
H1199 C1209 0.930 . S
C1200 H1194 0.930 . S
C1200 C1201 1.355 . S
C1200 C1202 1.415 . S
C1201 C1200 1.355 . S
C1201 C1203 1.419 . S
C1202 C1200 1.415 . S
C1202 C1207 1.425 . S
C1202 C1209 1.409 . S
C1203 H1195 0.930 . S
C1203 C1201 1.419 . S
C1203 C1204 1.362 . S
C1204 H1196 0.930 . S
C1204 C1203 1.362 . S
C1204 C1207 1.409 . S
C1205 H1197 0.930 . S
C1205 C1206 1.355 . S
C1205 C1207 1.415 . S
C1206 C1205 1.355 . S
C1206 C1208 1.419 . S
C1207 C1202 1.425 . S
C1207 C1204 1.409 . S
C1207 C1205 1.415 . S
C1208 H1198 0.930 . S
C1208 C1206 1.419 . S
C1208 C1209 1.362 . S
C1209 H1199 0.930 . S
C1209 C1202 1.409 . S
C1209 C1208 1.362 . S
H1210 C1216 0.930 . S
H1211 C1219 0.930 . S
H1212 C1220 0.930 . S
H1213 C1221 0.930 . S
H1214 C1224 0.930 . S
H1215 C1225 0.930 . S
C1216 H1210 0.930 . S
C1216 C1217 1.355 . S
C1216 C1218 1.415 . S
C1217 C1216 1.355 . S
C1217 C1219 1.419 . S
C1218 C1216 1.415 . S
C1218 C1223 1.425 . S
C1218 C1225 1.409 . S
C1219 H1211 0.930 . S
C1219 C1217 1.419 . S
C1219 C1220 1.362 . S
C1220 H1212 0.930 . S
C1220 C1219 1.362 . S
C1220 C1223 1.409 . S
C1221 H1213 0.930 . S
C1221 C1222 1.355 . S
C1221 C1223 1.415 . S
C1222 C1221 1.355 . S
C1222 C1224 1.419 . S
C1223 C1218 1.425 . S
C1223 C1220 1.409 . S
C1223 C1221 1.415 . S
C1224 H1214 0.930 . S
C1224 C1222 1.419 . S
C1224 C1225 1.362 . S
C1225 H1215 0.930 . S
C1225 C1218 1.409 . S
C1225 C1224 1.362 . S
H1226 C1232 0.930 . S
H1227 C1235 0.930 . S
H1228 C1236 0.930 . S
H1229 C1237 0.930 . S
H1230 C1240 0.930 . S
H1231 C1241 0.930 . S
C1232 H1226 0.930 . S
C1232 C1233 1.355 . S
C1232 C1234 1.415 . S
C1233 C1232 1.355 . S
C1233 C1235 1.419 . S
C1234 C1232 1.415 . S
C1234 C1239 1.425 . S
C1234 C1241 1.409 . S
C1235 H1227 0.930 . S
C1235 C1233 1.419 . S
C1235 C1236 1.362 . S
C1236 H1228 0.930 . S
C1236 C1235 1.362 . S
C1236 C1239 1.409 . S
C1237 H1229 0.930 . S
C1237 C1238 1.355 . S
C1237 C1239 1.415 . S
C1238 C1237 1.355 . S
C1238 C1240 1.419 . S
C1239 C1234 1.425 . S
C1239 C1236 1.409 . S
C1239 C1237 1.415 . S
C1240 H1230 0.930 . S
C1240 C1238 1.419 . S
C1240 C1241 1.362 . S
C1241 H1231 0.930 . S
C1241 C1234 1.409 . S
C1241 C1240 1.362 . S
H1242 C1248 0.930 . S
H1243 C1251 0.930 . S
H1244 C1252 0.930 . S
H1245 C1253 0.930 . S
H1246 C1256 0.930 . S
H1247 C1257 0.930 . S
C1248 H1242 0.930 . S
C1248 C1249 1.355 . S
C1248 C1250 1.415 . S
C1249 C1248 1.355 . S
C1249 C1251 1.419 . S
C1250 C1248 1.415 . S
C1250 C1255 1.425 . S
C1250 C1257 1.409 . S
C1251 H1243 0.930 . S
C1251 C1249 1.419 . S
C1251 C1252 1.362 . S
C1252 H1244 0.930 . S
C1252 C1251 1.362 . S
C1252 C1255 1.409 . S
C1253 H1245 0.930 . S
C1253 C1254 1.355 . S
C1253 C1255 1.415 . S
C1254 C1253 1.355 . S
C1254 C1256 1.419 . S
C1255 C1250 1.425 . S
C1255 C1252 1.409 . S
C1255 C1253 1.415 . S
C1256 H1246 0.930 . S
C1256 C1254 1.419 . S
C1256 C1257 1.362 . S
C1257 H1247 0.930 . S
C1257 C1250 1.409 . S
C1257 C1256 1.362 . S
H1258 C1264 0.930 . S
H1259 C1267 0.930 . S
H1260 C1268 0.930 . S
H1261 C1269 0.930 . S
H1262 C1272 0.930 . S
H1263 C1273 0.930 . S
C1264 H1258 0.930 . S
C1264 C1265 1.355 . S
C1264 C1266 1.415 . S
C1265 C1264 1.355 . S
C1265 C1267 1.419 . S
C1266 C1264 1.415 . S
C1266 C1271 1.425 . S
C1266 C1273 1.409 . S
C1267 H1259 0.930 . S
C1267 C1265 1.419 . S
C1267 C1268 1.362 . S
C1268 H1260 0.930 . S
C1268 C1267 1.362 . S
C1268 C1271 1.409 . S
C1269 H1261 0.930 . S
C1269 C1270 1.355 . S
C1269 C1271 1.415 . S
C1270 C1269 1.355 . S
C1270 C1272 1.419 . S
C1271 C1266 1.425 . S
C1271 C1268 1.409 . S
C1271 C1269 1.415 . S
C1272 H1262 0.930 . S
C1272 C1270 1.419 . S
C1272 C1273 1.362 . S
C1273 H1263 0.930 . S
C1273 C1266 1.409 . S
C1273 C1272 1.362 . S
H1274 C1280 0.930 . S
H1275 C1283 0.930 . S
H1276 C1284 0.930 . S
H1277 C1285 0.930 . S
H1278 C1288 0.930 . S
H1279 C1289 0.930 . S
C1280 H1274 0.930 . S
C1280 C1281 1.355 . S
C1280 C1282 1.415 . S
C1281 C1280 1.355 . S
C1281 C1283 1.419 . S
C1282 C1280 1.415 . S
C1282 C1287 1.425 . S
C1282 C1289 1.409 . S
C1283 H1275 0.930 . S
C1283 C1281 1.419 . S
C1283 C1284 1.362 . S
C1284 H1276 0.930 . S
C1284 C1283 1.362 . S
C1284 C1287 1.409 . S
C1285 H1277 0.930 . S
C1285 C1286 1.355 . S
C1285 C1287 1.415 . S
C1286 C1285 1.355 . S
C1286 C1288 1.419 . S
C1287 C1282 1.425 . S
C1287 C1284 1.409 . S
C1287 C1285 1.415 . S
C1288 H1278 0.930 . S
C1288 C1286 1.419 . S
C1288 C1289 1.362 . S
C1289 H1279 0.930 . S
C1289 C1282 1.409 . S
C1289 C1288 1.362 . S
H1290 C1296 0.930 . S
H1291 C1299 0.930 . S
H1292 C1300 0.930 . S
H1293 C1301 0.930 . S
H1294 C1304 0.930 . S
H1295 C1305 0.930 . S
C1296 H1290 0.930 . S
C1296 C1297 1.355 . S
C1296 C1298 1.415 . S
C1297 C1296 1.355 . S
C1297 C1299 1.419 . S
C1298 C1296 1.415 . S
C1298 C1303 1.425 . S
C1298 C1305 1.409 . S
C1299 H1291 0.930 . S
C1299 C1297 1.419 . S
C1299 C1300 1.362 . S
C1300 H1292 0.930 . S
C1300 C1299 1.362 . S
C1300 C1303 1.409 . S
C1301 H1293 0.930 . S
C1301 C1302 1.355 . S
C1301 C1303 1.415 . S
C1302 C1301 1.355 . S
C1302 C1304 1.419 . S
C1303 C1298 1.425 . S
C1303 C1300 1.409 . S
C1303 C1301 1.415 . S
C1304 H1294 0.930 . S
C1304 C1302 1.419 . S
C1304 C1305 1.362 . S
C1305 H1295 0.930 . S
C1305 C1298 1.409 . S
C1305 C1304 1.362 . S
H1306 C1312 0.930 . S
H1307 C1315 0.930 . S
H1308 C1316 0.930 . S
H1309 C1317 0.930 . S
H1310 C1320 0.930 . S
H1311 C1321 0.930 . S
C1312 H1306 0.930 . S
C1312 C1313 1.355 . S
C1312 C1314 1.415 . S
C1313 C1312 1.355 . S
C1313 C1315 1.419 . S
C1314 C1312 1.415 . S
C1314 C1319 1.425 . S
C1314 C1321 1.409 . S
C1315 H1307 0.930 . S
C1315 C1313 1.419 . S
C1315 C1316 1.362 . S
C1316 H1308 0.930 . S
C1316 C1315 1.362 . S
C1316 C1319 1.409 . S
C1317 H1309 0.930 . S
C1317 C1318 1.355 . S
C1317 C1319 1.415 . S
C1318 C1317 1.355 . S
C1318 C1320 1.419 . S
C1319 C1314 1.425 . S
C1319 C1316 1.409 . S
C1319 C1317 1.415 . S
C1320 H1310 0.930 . S
C1320 C1318 1.419 . S
C1320 C1321 1.362 . S
C1321 H1311 0.930 . S
C1321 C1314 1.409 . S
C1321 C1320 1.362 . S
H1322 C1328 0.930 . S
H1323 C1331 0.930 . S
H1324 C1332 0.930 . S
H1325 C1333 0.930 . S
H1326 C1336 0.930 . S
H1327 C1337 0.930 . S
C1328 H1322 0.930 . S
C1328 C1329 1.355 . S
C1328 C1330 1.415 . S
C1329 C1328 1.355 . S
C1329 C1331 1.419 . S
C1330 C1328 1.415 . S
C1330 C1335 1.425 . S
C1330 C1337 1.409 . S
C1331 H1323 0.930 . S
C1331 C1329 1.419 . S
C1331 C1332 1.362 . S
C1332 H1324 0.930 . S
C1332 C1331 1.362 . S
C1332 C1335 1.409 . S
C1333 H1325 0.930 . S
C1333 C1334 1.355 . S
C1333 C1335 1.415 . S
C1334 C1333 1.355 . S
C1334 C1336 1.419 . S
C1335 C1330 1.425 . S
C1335 C1332 1.409 . S
C1335 C1333 1.415 . S
C1336 H1326 0.930 . S
C1336 C1334 1.419 . S
C1336 C1337 1.362 . S
C1337 H1327 0.930 . S
C1337 C1330 1.409 . S
C1337 C1336 1.362 . S
H1338 C1344 0.930 . S
H1339 C1347 0.930 . S
H1340 C1348 0.930 . S
H1341 C1349 0.930 . S
H1342 C1352 0.930 . S
H1343 C1353 0.930 . S
C1344 H1338 0.930 . S
C1344 C1345 1.355 . S
C1344 C1346 1.415 . S
C1345 C1344 1.355 . S
C1345 C1347 1.419 . S
C1346 C1344 1.415 . S
C1346 C1351 1.425 . S
C1346 C1353 1.409 . S
C1347 H1339 0.930 . S
C1347 C1345 1.419 . S
C1347 C1348 1.362 . S
C1348 H1340 0.930 . S
C1348 C1347 1.362 . S
C1348 C1351 1.409 . S
C1349 H1341 0.930 . S
C1349 C1350 1.355 . S
C1349 C1351 1.415 . S
C1350 C1349 1.355 . S
C1350 C1352 1.419 . S
C1351 C1346 1.425 . S
C1351 C1348 1.409 . S
C1351 C1349 1.415 . S
C1352 H1342 0.930 . S
C1352 C1350 1.419 . S
C1352 C1353 1.362 . S
C1353 H1343 0.930 . S
C1353 C1346 1.409 . S
C1353 C1352 1.362 . S
H1354 C1360 0.930 . S
H1355 C1363 0.930 . S
H1356 C1364 0.930 . S
H1357 C1365 0.930 . S
H1358 C1368 0.930 . S
H1359 C1369 0.930 . S
C1360 H1354 0.930 . S
C1360 C1361 1.355 . S
C1360 C1362 1.415 . S
C1361 C1360 1.355 . S
C1361 C1363 1.419 . S
C1362 C1360 1.415 . S
C1362 C1367 1.425 . S
C1362 C1369 1.409 . S
C1363 H1355 0.930 . S
C1363 C1361 1.419 . S
C1363 C1364 1.362 . S
C1364 H1356 0.930 . S
C1364 C1363 1.362 . S
C1364 C1367 1.409 . S
C1365 H1357 0.930 . S
C1365 C1366 1.355 . S
C1365 C1367 1.415 . S
C1366 C1365 1.355 . S
C1366 C1368 1.419 . S
C1367 C1362 1.425 . S
C1367 C1364 1.409 . S
C1367 C1365 1.415 . S
C1368 H1358 0.930 . S
C1368 C1366 1.419 . S
C1368 C1369 1.362 . S
C1369 H1359 0.930 . S
C1369 C1362 1.409 . S
C1369 C1368 1.362 . S
H1370 C1376 0.930 . S
H1371 C1379 0.930 . S
H1372 C1380 0.930 . S
H1373 C1381 0.930 . S
H1374 C1384 0.930 . S
H1375 C1385 0.930 . S
C1376 H1370 0.930 . S
C1376 C1377 1.355 . S
C1376 C1378 1.415 . S
C1377 C1376 1.355 . S
C1377 C1379 1.419 . S
C1378 C1376 1.415 . S
C1378 C1383 1.425 . S
C1378 C1385 1.409 . S
C1379 H1371 0.930 . S
C1379 C1377 1.419 . S
C1379 C1380 1.362 . S
C1380 H1372 0.930 . S
C1380 C1379 1.362 . S
C1380 C1383 1.409 . S
C1381 H1373 0.930 . S
C1381 C1382 1.355 . S
C1381 C1383 1.415 . S
C1382 C1381 1.355 . S
C1382 C1384 1.419 . S
C1383 C1378 1.425 . S
C1383 C1380 1.409 . S
C1383 C1381 1.415 . S
C1384 H1374 0.930 . S
C1384 C1382 1.419 . S
C1384 C1385 1.362 . S
C1385 H1375 0.930 . S
C1385 C1378 1.409 . S
C1385 C1384 1.362 . S
H1386 C1392 0.930 . S
H1387 C1395 0.930 . S
H1388 C1396 0.930 . S
H1389 C1397 0.930 . S
H1390 C1400 0.930 . S
H1391 C1401 0.930 . S
C1392 H1386 0.930 . S
C1392 C1393 1.355 . S
C1392 C1394 1.415 . S
C1393 C1392 1.355 . S
C1393 C1395 1.419 . S
C1394 C1392 1.415 . S
C1394 C1399 1.425 . S
C1394 C1401 1.409 . S
C1395 H1387 0.930 . S
C1395 C1393 1.419 . S
C1395 C1396 1.362 . S
C1396 H1388 0.930 . S
C1396 C1395 1.362 . S
C1396 C1399 1.409 . S
C1397 H1389 0.930 . S
C1397 C1398 1.355 . S
C1397 C1399 1.415 . S
C1398 C1397 1.355 . S
C1398 C1400 1.419 . S
C1399 C1394 1.425 . S
C1399 C1396 1.409 . S
C1399 C1397 1.415 . S
C1400 H1390 0.930 . S
C1400 C1398 1.419 . S
C1400 C1401 1.362 . S
C1401 H1391 0.930 . S
C1401 C1394 1.409 . S
C1401 C1400 1.362 . S
H1402 C1408 0.930 . S
H1403 C1411 0.930 . S
H1404 C1412 0.930 . S
H1405 C1413 0.930 . S
H1406 C1416 0.930 . S
H1407 C1417 0.930 . S
C1408 H1402 0.930 . S
C1408 C1409 1.355 . S
C1408 C1410 1.415 . S
C1409 C1408 1.355 . S
C1409 C1411 1.419 . S
C1410 C1408 1.415 . S
C1410 C1415 1.425 . S
C1410 C1417 1.409 . S
C1411 H1403 0.930 . S
C1411 C1409 1.419 . S
C1411 C1412 1.362 . S
C1412 H1404 0.930 . S
C1412 C1411 1.362 . S
C1412 C1415 1.409 . S
C1413 H1405 0.930 . S
C1413 C1414 1.355 . S
C1413 C1415 1.415 . S
C1414 C1413 1.355 . S
C1414 C1416 1.419 . S
C1415 C1410 1.425 . S
C1415 C1412 1.409 . S
C1415 C1413 1.415 . S
C1416 H1406 0.930 . S
C1416 C1414 1.419 . S
C1416 C1417 1.362 . S
C1417 H1407 0.930 . S
C1417 C1410 1.409 . S
C1417 C1416 1.362 . S
H1418 C1424 0.930 . S
H1419 C1427 0.930 . S
H1420 C1428 0.930 . S
H1421 C1429 0.930 . S
H1422 C1432 0.930 . S
H1423 C1433 0.930 . S
C1424 H1418 0.930 . S
C1424 C1425 1.355 . S
C1424 C1426 1.415 . S
C1425 C1424 1.355 . S
C1425 C1427 1.419 . S
C1426 C1424 1.415 . S
C1426 C1431 1.425 . S
C1426 C1433 1.409 . S
C1427 H1419 0.930 . S
C1427 C1425 1.419 . S
C1427 C1428 1.362 . S
C1428 H1420 0.930 . S
C1428 C1427 1.362 . S
C1428 C1431 1.409 . S
C1429 H1421 0.930 . S
C1429 C1430 1.355 . S
C1429 C1431 1.415 . S
C1430 C1429 1.355 . S
C1430 C1432 1.419 . S
C1431 C1426 1.425 . S
C1431 C1428 1.409 . S
C1431 C1429 1.415 . S
C1432 H1422 0.930 . S
C1432 C1430 1.419 . S
C1432 C1433 1.362 . S
C1433 H1423 0.930 . S
C1433 C1426 1.409 . S
C1433 C1432 1.362 . S
H1434 C1440 0.930 . S
H1435 C1443 0.930 . S
H1436 C1444 0.930 . S
H1437 C1445 0.930 . S
H1438 C1448 0.930 . S
H1439 C1449 0.930 . S
C1440 H1434 0.930 . S
C1440 C1441 1.355 . S
C1440 C1442 1.415 . S
C1441 C1440 1.355 . S
C1441 C1443 1.419 . S
C1442 C1440 1.415 . S
C1442 C1447 1.425 . S
C1442 C1449 1.409 . S
C1443 H1435 0.930 . S
C1443 C1441 1.419 . S
C1443 C1444 1.362 . S
C1444 H1436 0.930 . S
C1444 C1443 1.362 . S
C1444 C1447 1.409 . S
C1445 H1437 0.930 . S
C1445 C1446 1.355 . S
C1445 C1447 1.415 . S
C1446 C1445 1.355 . S
C1446 C1448 1.419 . S
C1447 C1442 1.425 . S
C1447 C1444 1.409 . S
C1447 C1445 1.415 . S
C1448 H1438 0.930 . S
C1448 C1446 1.419 . S
C1448 C1449 1.362 . S
C1449 H1439 0.930 . S
C1449 C1442 1.409 . S
C1449 C1448 1.362 . S
H1450 C1456 0.930 . S
H1451 C1459 0.930 . S
H1452 C1460 0.930 . S
H1453 C1461 0.930 . S
H1454 C1464 0.930 . S
H1455 C1465 0.930 . S
C1456 H1450 0.930 . S
C1456 C1457 1.355 . S
C1456 C1458 1.415 . S
C1457 C1456 1.355 . S
C1457 C1459 1.419 . S
C1458 C1456 1.415 . S
C1458 C1463 1.425 . S
C1458 C1465 1.409 . S
C1459 H1451 0.930 . S
C1459 C1457 1.419 . S
C1459 C1460 1.362 . S
C1460 H1452 0.930 . S
C1460 C1459 1.362 . S
C1460 C1463 1.409 . S
C1461 H1453 0.930 . S
C1461 C1462 1.355 . S
C1461 C1463 1.415 . S
C1462 C1461 1.355 . S
C1462 C1464 1.419 . S
C1463 C1458 1.425 . S
C1463 C1460 1.409 . S
C1463 C1461 1.415 . S
C1464 H1454 0.930 . S
C1464 C1462 1.419 . S
C1464 C1465 1.362 . S
C1465 H1455 0.930 . S
C1465 C1458 1.409 . S
C1465 C1464 1.362 . S
H1466 C1472 0.930 . S
H1467 C1475 0.930 . S
H1468 C1476 0.930 . S
H1469 C1477 0.930 . S
H1470 C1480 0.930 . S
H1471 C1481 0.930 . S
C1472 H1466 0.930 . S
C1472 C1473 1.355 . S
C1472 C1474 1.415 . S
C1473 C1472 1.355 . S
C1473 C1475 1.419 . S
C1474 C1472 1.415 . S
C1474 C1479 1.425 . S
C1474 C1481 1.409 . S
C1475 H1467 0.930 . S
C1475 C1473 1.419 . S
C1475 C1476 1.362 . S
C1476 H1468 0.930 . S
C1476 C1475 1.362 . S
C1476 C1479 1.409 . S
C1477 H1469 0.930 . S
C1477 C1478 1.355 . S
C1477 C1479 1.415 . S
C1478 C1477 1.355 . S
C1478 C1480 1.419 . S
C1479 C1474 1.425 . S
C1479 C1476 1.409 . S
C1479 C1477 1.415 . S
C1480 H1470 0.930 . S
C1480 C1478 1.419 . S
C1480 C1481 1.362 . S
C1481 H1471 0.930 . S
C1481 C1474 1.409 . S
C1481 C1480 1.362 . S
H1482 C1488 0.930 . S
H1483 C1491 0.930 . S
H1484 C1492 0.930 . S
H1485 C1493 0.930 . S
H1486 C1496 0.930 . S
H1487 C1497 0.930 . S
C1488 H1482 0.930 . S
C1488 C1489 1.355 . S
C1488 C1490 1.415 . S
C1489 C1488 1.355 . S
C1489 C1491 1.419 . S
C1490 C1488 1.415 . S
C1490 C1495 1.425 . S
C1490 C1497 1.409 . S
C1491 H1483 0.930 . S
C1491 C1489 1.419 . S
C1491 C1492 1.362 . S
C1492 H1484 0.930 . S
C1492 C1491 1.362 . S
C1492 C1495 1.409 . S
C1493 H1485 0.930 . S
C1493 C1494 1.355 . S
C1493 C1495 1.415 . S
C1494 C1493 1.355 . S
C1494 C1496 1.419 . S
C1495 C1490 1.425 . S
C1495 C1492 1.409 . S
C1495 C1493 1.415 . S
C1496 H1486 0.930 . S
C1496 C1494 1.419 . S
C1496 C1497 1.362 . S
C1497 H1487 0.930 . S
C1497 C1490 1.409 . S
C1497 C1496 1.362 . S
H1498 C1504 0.930 . S
H1499 C1507 0.930 . S
H1500 C1508 0.930 . S
H1501 C1509 0.930 . S
H1502 C1512 0.930 . S
H1503 C1513 0.930 . S
C1504 H1498 0.930 . S
C1504 C1505 1.355 . S
C1504 C1506 1.415 . S
C1505 C1504 1.355 . S
C1505 C1507 1.419 . S
C1506 C1504 1.415 . S
C1506 C1511 1.425 . S
C1506 C1513 1.409 . S
C1507 H1499 0.930 . S
C1507 C1505 1.419 . S
C1507 C1508 1.362 . S
C1508 H1500 0.930 . S
C1508 C1507 1.362 . S
C1508 C1511 1.409 . S
C1509 H1501 0.930 . S
C1509 C1510 1.355 . S
C1509 C1511 1.415 . S
C1510 C1509 1.355 . S
C1510 C1512 1.419 . S
C1511 C1506 1.425 . S
C1511 C1508 1.409 . S
C1511 C1509 1.415 . S
C1512 H1502 0.930 . S
C1512 C1510 1.419 . S
C1512 C1513 1.362 . S
C1513 H1503 0.930 . S
C1513 C1506 1.409 . S
C1513 C1512 1.362 . S
H1514 C1520 0.930 . S
H1515 C1523 0.930 . S
H1516 C1524 0.930 . S
H1517 C1525 0.930 . S
H1518 C1528 0.930 . S
H1519 C1529 0.930 . S
C1520 H1514 0.930 . S
C1520 C1521 1.355 . S
C1520 C1522 1.415 . S
C1521 C1520 1.355 . S
C1521 C1523 1.419 . S
C1522 C1520 1.415 . S
C1522 C1527 1.425 . S
C1522 C1529 1.409 . S
C1523 H1515 0.930 . S
C1523 C1521 1.419 . S
C1523 C1524 1.362 . S
C1524 H1516 0.930 . S
C1524 C1523 1.362 . S
C1524 C1527 1.409 . S
C1525 H1517 0.930 . S
C1525 C1526 1.355 . S
C1525 C1527 1.415 . S
C1526 C1525 1.355 . S
C1526 C1528 1.419 . S
C1527 C1522 1.425 . S
C1527 C1524 1.409 . S
C1527 C1525 1.415 . S
C1528 H1518 0.930 . S
C1528 C1526 1.419 . S
C1528 C1529 1.362 . S
C1529 H1519 0.930 . S
C1529 C1522 1.409 . S
C1529 C1528 1.362 . S
H1530 C1536 0.930 . S
H1531 C1539 0.930 . S
H1532 C1540 0.930 . S
H1533 C1541 0.930 . S
H1534 C1544 0.930 . S
H1535 C1545 0.930 . S
C1536 H1530 0.930 . S
C1536 C1537 1.355 . S
C1536 C1538 1.415 . S
C1537 C1536 1.355 . S
C1537 C1539 1.419 . S
C1538 C1536 1.415 . S
C1538 C1543 1.425 . S
C1538 C1545 1.409 . S
C1539 H1531 0.930 . S
C1539 C1537 1.419 . S
C1539 C1540 1.362 . S
C1540 H1532 0.930 . S
C1540 C1539 1.362 . S
C1540 C1543 1.409 . S
C1541 H1533 0.930 . S
C1541 C1542 1.355 . S
C1541 C1543 1.415 . S
C1542 C1541 1.355 . S
C1542 C1544 1.419 . S
C1543 C1538 1.425 . S
C1543 C1540 1.409 . S
C1543 C1541 1.415 . S
C1544 H1534 0.930 . S
C1544 C1542 1.419 . S
C1544 C1545 1.362 . S
C1545 H1535 0.930 . S
C1545 C1538 1.409 . S
C1545 C1544 1.362 . S
H1546 C1552 0.930 . S
H1547 C1555 0.930 . S
H1548 C1556 0.930 . S
H1549 C1557 0.930 . S
H1550 C1560 0.930 . S
H1551 C1561 0.930 . S
C1552 H1546 0.930 . S
C1552 C1553 1.355 . S
C1552 C1554 1.415 . S
C1553 C1552 1.355 . S
C1553 C1555 1.419 . S
C1554 C1552 1.415 . S
C1554 C1559 1.425 . S
C1554 C1561 1.409 . S
C1555 H1547 0.930 . S
C1555 C1553 1.419 . S
C1555 C1556 1.362 . S
C1556 H1548 0.930 . S
C1556 C1555 1.362 . S
C1556 C1559 1.409 . S
C1557 H1549 0.930 . S
C1557 C1558 1.355 . S
C1557 C1559 1.415 . S
C1558 C1557 1.355 . S
C1558 C1560 1.419 . S
C1559 C1554 1.425 . S
C1559 C1556 1.409 . S
C1559 C1557 1.415 . S
C1560 H1550 0.930 . S
C1560 C1558 1.419 . S
C1560 C1561 1.362 . S
C1561 H1551 0.930 . S
C1561 C1554 1.409 . S
C1561 C1560 1.362 . S
H1562 C1568 0.930 . S
H1563 C1571 0.930 . S
H1564 C1572 0.930 . S
H1565 C1573 0.930 . S
H1566 C1576 0.930 . S
H1567 C1577 0.930 . S
C1568 H1562 0.930 . S
C1568 C1569 1.355 . S
C1568 C1570 1.415 . S
C1569 C1568 1.355 . S
C1569 C1571 1.419 . S
C1570 C1568 1.415 . S
C1570 C1575 1.425 . S
C1570 C1577 1.409 . S
C1571 H1563 0.930 . S
C1571 C1569 1.419 . S
C1571 C1572 1.362 . S
C1572 H1564 0.930 . S
C1572 C1571 1.362 . S
C1572 C1575 1.409 . S
C1573 H1565 0.930 . S
C1573 C1574 1.355 . S
C1573 C1575 1.415 . S
C1574 C1573 1.355 . S
C1574 C1576 1.419 . S
C1575 C1570 1.425 . S
C1575 C1572 1.409 . S
C1575 C1573 1.415 . S
C1576 H1566 0.930 . S
C1576 C1574 1.419 . S
C1576 C1577 1.362 . S
C1577 H1567 0.930 . S
C1577 C1570 1.409 . S
C1577 C1576 1.362 . S
H1578 C1584 0.930 . S
H1579 C1587 0.930 . S
H1580 C1588 0.930 . S
H1581 C1589 0.930 . S
H1582 C1592 0.930 . S
H1583 C1593 0.930 . S
C1584 H1578 0.930 . S
C1584 C1585 1.355 . S
C1584 C1586 1.415 . S
C1585 C1584 1.355 . S
C1585 C1587 1.419 . S
C1586 C1584 1.415 . S
C1586 C1591 1.425 . S
C1586 C1593 1.409 . S
C1587 H1579 0.930 . S
C1587 C1585 1.419 . S
C1587 C1588 1.362 . S
C1588 H1580 0.930 . S
C1588 C1587 1.362 . S
C1588 C1591 1.409 . S
C1589 H1581 0.930 . S
C1589 C1590 1.355 . S
C1589 C1591 1.415 . S
C1590 C1589 1.355 . S
C1590 C1592 1.419 . S
C1591 C1586 1.425 . S
C1591 C1588 1.409 . S
C1591 C1589 1.415 . S
C1592 H1582 0.930 . S
C1592 C1590 1.419 . S
C1592 C1593 1.362 . S
C1593 H1583 0.930 . S
C1593 C1586 1.409 . S
C1593 C1592 1.362 . S
H1594 C1600 0.930 . S
H1595 C1603 0.930 . S
H1596 C1604 0.930 . S
H1597 C1605 0.930 . S
H1598 C1608 0.930 . S
H1599 C1609 0.930 . S
C1600 H1594 0.930 . S
C1600 C1601 1.355 . S
C1600 C1602 1.415 . S
C1601 C1600 1.355 . S
C1601 C1603 1.419 . S
C1602 C1600 1.415 . S
C1602 C1607 1.425 . S
C1602 C1609 1.409 . S
C1603 H1595 0.930 . S
C1603 C1601 1.419 . S
C1603 C1604 1.362 . S
C1604 H1596 0.930 . S
C1604 C1603 1.362 . S
C1604 C1607 1.409 . S
C1605 H1597 0.930 . S
C1605 C1606 1.355 . S
C1605 C1607 1.415 . S
C1606 C1605 1.355 . S
C1606 C1608 1.419 . S
C1607 C1602 1.425 . S
C1607 C1604 1.409 . S
C1607 C1605 1.415 . S
C1608 H1598 0.930 . S
C1608 C1606 1.419 . S
C1608 C1609 1.362 . S
C1609 H1599 0.930 . S
C1609 C1602 1.409 . S
C1609 C1608 1.362 . S
H1610 C1616 0.930 . S
H1611 C1619 0.930 . S
H1612 C1620 0.930 . S
H1613 C1621 0.930 . S
H1614 C1624 0.930 . S
H1615 C1625 0.930 . S
C1616 H1610 0.930 . S
C1616 C1617 1.355 . S
C1616 C1618 1.415 . S
C1617 C1616 1.355 . S
C1617 C1619 1.419 . S
C1618 C1616 1.415 . S
C1618 C1623 1.425 . S
C1618 C1625 1.409 . S
C1619 H1611 0.930 . S
C1619 C1617 1.419 . S
C1619 C1620 1.362 . S
C1620 H1612 0.930 . S
C1620 C1619 1.362 . S
C1620 C1623 1.409 . S
C1621 H1613 0.930 . S
C1621 C1622 1.355 . S
C1621 C1623 1.415 . S
C1622 C1621 1.355 . S
C1622 C1624 1.419 . S
C1623 C1618 1.425 . S
C1623 C1620 1.409 . S
C1623 C1621 1.415 . S
C1624 H1614 0.930 . S
C1624 C1622 1.419 . S
C1624 C1625 1.362 . S
C1625 H1615 0.930 . S
C1625 C1618 1.409 . S
C1625 C1624 1.362 . S
C870 C683 1.552 . S
C865 C75 1.517 . S
C886 C673 0.777 . S
C881 C156 0.837 . S
C902 C674 1.223 . S
C897 C243 1.101 . S
C913 C315 0.666 . S
C918 C696 0.760 . S
C929 C399 0.903 . S
C934 C699 0.712 . S
C950 C682 1.289 . S
C945 C495 1.129 . S
C961 C576 1.140 . S
C966 C672 1.178 . S
C977 C654 1.499 . S
C982 C690 1.532 . S
C998 C703 0.920 . S
C993 C72 0.923 . S
C1009 C140 1.395 . S
C1014 C752 1.328 . S
C1030 C730 1.019 . S
C1025 C240 1.128 . S
C1046 C744 0.762 . S
C1041 C318 0.819 . S
C1057 C402 0.755 . S
C1062 C705 0.802 . S
C1078 C758 1.623 1_556 S
C1073 C492 1.550 . S
C1089 C560 1.395 . S
C1094 C714 1.392 . S
C1105 C655 2.752 . S
C1110 C735 2.889 . S
C1121 C56 3.042 . S
C1126 C761 3.138 . S
C1137 C403 1.862 . S
C1142 C745 1.822 . S
C1158 C704 2.386 . S
C1153 C476 2.267 . S
C1174 C736 1.536 1_556 S
C1169 C579 1.504 . S
C1185 C651 1.145 . S
C1190 C727 1.205 . S
C1201 C224 2.979 . S
C1206 C734 3.116 . S
C1222 C721 1.812 . S
C1217 C319 1.779 . S
C1233 C159 1.587 . S
C1238 C713 1.624 . S
C1249 C663 1.439 . S
C1254 C776 1.562 . S
C1265 C408 0.824 . S
C1270 C766 0.551 . S
C1286 C767 1.266 . S
C1281 C486 1.177 . S
C1302 C789 1.173 . S
C1297 C567 1.129 . S
C1313 C147 0.792 . S
C1318 C792 0.787 . S
C1334 C775 1.261 . S
C1329 C234 1.230 . S
C1345 C324 0.724 . S
C1350 C765 0.726 . S
C1361 C66 1.480 . S
C1366 C783 1.562 . S
C1377 C660 1.199 . S
C1382 C796 1.254 . S
C1398 C845 1.829 . S
C1393 C392 1.855 . S
C1409 C487 2.267 . S
C1414 C823 2.360 . S
C1425 C570 1.545 . S
C1430 C837 1.565 . S
C1446 C798 1.622 . S
C1441 C150 1.617 . S
C1457 C235 2.978 . S
C1462 C851 3.114 . S
C1478 C807 1.795 . S
C1473 C308 1.740 . S
C1494 C828 3.141 . S
C1489 C67 3.055 . S
C1510 C854 2.891 . S
C1505 C644 2.801 . S
C1521 C151 1.352 . S
C1526 C838 1.401 . S
C1537 C231 1.143 . S
C1542 C797 1.063 . S
C1558 C829 0.751 . S
C1553 C327 0.701 . S
C1569 C63 0.860 . S
C1574 C820 0.971 . S
C1585 C483 1.595 . S
C1590 C827 1.554 . S
C1606 C814 1.430 . S
C1601 C571 1.415 . S
C1622 C806 0.800 . S
C1617 C411 0.752 . S
