# Generated by pormake.
# Topology ssa, (4,4)-cn, num edge types: 1
# Building blocks:
#     Node 0, Type 0, BuildingBlock: NAWXER_clean_sbu_0, # of connection points: 4
#     Node 1, Type 0, BuildingBlock: NAWXER_clean_sbu_0, # of connection points: 4
#     Node 2, Type 0, BuildingBlock: NAWXER_clean_sbu_0, # of connection points: 4
#     Node 3, Type 0, BuildingBlock: NAWXER_clean_sbu_0, # of connection points: 4
#     Node 4, Type 0, BuildingBlock: NAWXER_clean_sbu_0, # of connection points: 4
#     Node 5, Type 0, BuildingBlock: NAWXER_clean_sbu_0, # of connection points: 4
#     Node 6, Type 1, BuildingBlock: ESEHIV_clean_sbu_0, # of connection points: 4
#     Node 7, Type 1, BuildingBlock: ESEHIV_clean_sbu_0, # of connection points: 4
#     Node 8, Type 1, BuildingBlock: ESEHIV_clean_sbu_0, # of connection points: 4
#     Node 9, Type 1, BuildingBlock: ESEHIV_clean_sbu_0, # of connection points: 4
#     Node 10, Type 1, BuildingBlock: ESEHIV_clean_sbu_0, # of connection points: 4
#     Node 11, Type 1, BuildingBlock: ESEHIV_clean_sbu_0, # of connection points: 4
#     Edge 12, Type (0, 1), BuildingBlock: CIFDUS_clean_linker_0, # of connection points: 2
#     Edge 13, Type (0, 1), BuildingBlock: CIFDUS_clean_linker_0, # of connection points: 2
#     Edge 14, Type (0, 1), BuildingBlock: CIFDUS_clean_linker_0, # of connection points: 2
#     Edge 15, Type (0, 1), BuildingBlock: CIFDUS_clean_linker_0, # of connection points: 2
#     Edge 16, Type (0, 1), BuildingBlock: CIFDUS_clean_linker_0, # of connection points: 2
#     Edge 17, Type (0, 1), BuildingBlock: CIFDUS_clean_linker_0, # of connection points: 2
#     Edge 18, Type (0, 1), BuildingBlock: CIFDUS_clean_linker_0, # of connection points: 2
#     Edge 19, Type (0, 1), BuildingBlock: CIFDUS_clean_linker_0, # of connection points: 2
#     Edge 20, Type (0, 1), BuildingBlock: CIFDUS_clean_linker_0, # of connection points: 2
#     Edge 21, Type (0, 1), BuildingBlock: CIFDUS_clean_linker_0, # of connection points: 2
#     Edge 22, Type (0, 1), BuildingBlock: CIFDUS_clean_linker_0, # of connection points: 2
#     Edge 23, Type (0, 1), BuildingBlock: CIFDUS_clean_linker_0, # of connection points: 2
#     Edge 24, Type (0, 1), BuildingBlock: CIFDUS_clean_linker_0, # of connection points: 2
#     Edge 25, Type (0, 1), BuildingBlock: CIFDUS_clean_linker_0, # of connection points: 2
#     Edge 26, Type (0, 1), BuildingBlock: CIFDUS_clean_linker_0, # of connection points: 2
#     Edge 27, Type (0, 1), BuildingBlock: CIFDUS_clean_linker_0, # of connection points: 2
#     Edge 28, Type (0, 1), BuildingBlock: CIFDUS_clean_linker_0, # of connection points: 2
#     Edge 29, Type (0, 1), BuildingBlock: CIFDUS_clean_linker_0, # of connection points: 2
#     Edge 30, Type (0, 1), BuildingBlock: CIFDUS_clean_linker_0, # of connection points: 2
#     Edge 31, Type (0, 1), BuildingBlock: CIFDUS_clean_linker_0, # of connection points: 2
#     Edge 32, Type (0, 1), BuildingBlock: CIFDUS_clean_linker_0, # of connection points: 2
#     Edge 33, Type (0, 1), BuildingBlock: CIFDUS_clean_linker_0, # of connection points: 2
#     Edge 34, Type (0, 1), BuildingBlock: CIFDUS_clean_linker_0, # of connection points: 2
#     Edge 35, Type (0, 1), BuildingBlock: CIFDUS_clean_linker_0, # of connection points: 2
# Relax obj value: 0.039
# Max RMSD: 0.097
# Mean RMSD: 0.065
data_MOF--net-ssa--node1-NAWXER_clean_sbu_0--node2-ESEHIV_clean_sbu_0--edge1-CIFDUS_clean_linker_0
_symmetry_space_group_name_H-M    P1
_symmetry_Int_Tables_number       1
_symmetry_cell_setting            triclinic
loop_
_symmetry_equiv_pos_as_xyz
'x, y, z'
_cell_length_a     41.944111
_cell_length_b     41.899799
_cell_length_c     30.340527
_cell_angle_alpha  89.988717
_cell_angle_beta   89.845766
_cell_angle_gamma 120.04304
loop_
_atom_site_label
_atom_site_type_symbol
_atom_site_fract_x
_atom_site_fract_y
_atom_site_fract_z
_atom_type_partial_charge
C0 C 0.08589 0.5994 0.99642 0.0
C1 C 0.03704 0.47956 0.92517 0.0
O2 O 0.05548 0.57444 1.01348 0.0
Zn3 Zn 1.0154 0.51726 1.00277 0.0
O4 O 0.09897 0.59185 0.96269 0.0
Zn5 Zn 0.06143 0.54057 0.95859 0.0
O6 O 1.01513 0.54468 0.93672 0.0
O7 O 0.97001 0.51769 0.9849 0.0
O8 O 0.06535 0.50955 0.91362 0.0
O9 O 1.0171 0.47944 0.95728 0.0
O10 O 1.01918 0.49589 0.05853 0.0
O11 O 0.0705 0.51943 1.01952 0.0
C12 C 0.98216 0.53498 0.94866 0.0
C13 C 0.05249 0.50332 0.05464 0.0
C14 C 0.50633 0.05418 0.62135 0.0
C15 C 0.5165 0.96102 0.53176 0.0
O16 O 0.4992 0.02195 0.63222 0.0
Zn17 Zn 0.50978 1.00652 0.57636 0.0
O18 O 0.51612 0.065 0.58144 0.0
Zn19 Zn 0.52657 0.0426 0.52181 0.0
O20 O 0.49095 0.04032 0.48004 0.0
O21 O 0.46596 0.99917 0.53336 0.0
O22 O 0.52417 0.99018 0.50971 0.0
O23 O 0.50724 0.959 0.57208 0.0
O24 O 0.56789 0.04319 0.57043 0.0
O25 O 0.57824 0.07741 0.51106 0.0
C26 C 0.46264 1.01355 0.49757 0.0
C27 C 0.5905 0.06866 0.54445 0.0
C28 C 0.54593 0.47676 1.01862 0.0
C29 C 0.56509 0.5852 0.10492 0.0
O30 O 0.5307 0.49372 1.00124 0.0
Zn31 Zn 0.52462 0.54112 1.01564 0.0
O32 O 0.56288 0.48839 0.05501 0.0
Zn33 Zn 0.556 0.53088 0.0621 0.0
O34 O 0.49854 0.50571 0.07668 0.0
O35 O 0.47162 0.51835 1.02245 0.0
O36 O 0.57777 0.56368 0.11169 0.0
O37 O 0.54514 0.58013 0.07064 0.0
O38 O 0.54823 0.57118 0.96387 0.0
O39 O 0.58655 0.56442 1.00731 0.0
C40 C 0.4694 0.50278 0.05921 0.0
C41 C 0.58055 0.57738 0.97204 0.0
C42 C 0.10008 0.59479 0.5003 0.0
C43 C 1.01019 0.49524 0.59855 0.0
O44 O 0.10277 0.59023 0.5413 0.0
Zn45 Zn 0.05554 0.5452 0.55072 0.0
O46 O 0.07049 0.5718 0.48018 0.0
Zn47 Zn 1.01898 0.52265 0.49696 0.0
O48 O 0.9818 0.53607 0.48641 0.0
O49 O 1.01602 0.56325 0.54475 0.0
O50 O 0.99914 0.49275 0.55862 0.0
O51 O 0.04199 0.5216 0.60881 0.0
O52 O 0.06092 0.5047 0.51277 0.0
O53 O 1.01977 0.48603 0.45947 0.0
C54 C 0.9892 0.55731 0.51939 0.0
C55 C 0.04557 0.48424 0.47905 0.0
C56 C 0.6014 0.0284 0.10784 0.0
C57 C 0.52663 0.07793 0.04868 0.0
O58 O 0.59438 0.0514 0.12647 0.0
Zn59 Zn 0.56489 0.05434 0.07944 0.0
O60 O 0.58879 1.0164 0.06916 0.0
Zn61 Zn 0.55491 0.02236 1.02063 0.0
O62 O 0.58885 0.04475 0.97 0.0
O63 O 0.60474 0.08144 0.02768 0.0
O64 O 0.52921 0.05515 1.02283 0.0
O65 O 0.54317 0.08568 0.08557 0.0
O66 O 0.51776 0.99991 0.08307 0.0
O67 O 0.51175 0.97208 1.01955 0.0
C68 C 0.61092 0.07555 0.9879 0.0
C69 C 0.50039 0.97127 0.05879 0.0
C70 C 0.54069 0.49954 0.58778 0.0
C71 C 0.44175 0.47801 0.48168 0.0
O72 O 0.51719 0.50817 0.60222 0.0
Zn73 Zn 0.46828 0.50847 0.57999 0.0
O74 O 0.53758 0.48761 0.54849 0.0
Zn75 Zn 0.49218 0.48834 0.53395 0.0
O76 O 0.51235 0.54655 0.53089 0.0
O77 O 0.48331 0.56014 0.58179 0.0
O78 O 0.4677 0.47087 0.47701 0.0
O79 O 0.43893 0.49175 0.51826 0.0
O80 O 0.4332 0.4759 0.62331 0.0
O81 O 0.45421 0.44814 0.58004 0.0
C82 C 0.50681 0.57037 0.55073 0.0
C83 C 0.43419 0.44706 0.61268 0.0
Cu84 Cu 0.22353 0.44128 0.26048 0.0
N85 N 0.23528 0.41761 0.21672 0.0
N86 N 0.27023 0.41284 0.16464 0.0
C87 C 0.26921 0.43227 0.19934 0.0
C88 C 0.23546 0.38484 0.15942 0.0
C89 C 0.21384 0.3877 0.192 0.0
O90 O 0.26658 0.4657 0.30041 0.0
C91 C 0.17775 0.45476 0.20706 0.0
O92 O 0.16043 0.41857 0.20738 0.0
H93 H 0.29252 0.45771 0.21088 0.0
H94 H 0.18448 0.37 0.19639 0.0
N95 N 0.18346 0.40882 0.2953 0.0
N96 N 0.13424 0.39235 0.33802 0.0
C97 C 0.15588 0.41497 0.30592 0.0
C98 C 0.17932 0.38134 0.32214 0.0
C99 C 0.14899 0.37133 0.349 0.0
C100 C 0.28172 0.44696 0.31205 0.0
O101 O 0.26837 0.41346 0.29636 0.0
H102 H 0.15359 0.4379 0.29332 0.0
H103 H 0.19836 0.37112 0.32426 0.0
O104 O 0.20791 0.47241 0.22864 0.0
H105 H 0.22637 0.36419 0.13375 0.0
H106 H 0.13974 0.35172 0.37592 0.0
Cu107 Cu 0.82568 0.24753 0.75719 0.0
N108 N 0.81757 0.21533 0.71096 0.0
N109 N 0.78349 0.17232 0.66155 0.0
C110 C 0.78533 0.18456 0.70306 0.0
C111 C 0.81598 0.19618 0.64258 0.0
C112 C 0.83709 0.22268 0.67332 0.0
O113 O 0.77916 0.22398 0.79113 0.0
C114 C 0.85791 0.32727 0.74348 0.0
O115 O 0.86232 0.33196 0.78631 0.0
H116 H 0.76218 0.17368 0.72562 0.0
H117 H 0.86331 0.24734 0.66743 0.0
N118 N 0.86492 0.25215 0.79125 0.0
N119 N 0.91663 0.28062 0.83103 0.0
C120 C 0.8974 0.28326 0.79706 0.0
C121 C 0.86434 0.22808 0.82102 0.0
C122 C 0.89607 0.24563 0.84585 0.0
C123 C 0.77613 0.22228 0.83308 0.0
O124 O 0.80541 0.24259 0.85716 0.0
H125 H 0.90556 0.30842 0.77913 0.0
H126 H 0.84116 0.20075 0.82666 0.0
O127 O 0.84011 0.2947 0.72776 0.0
H128 H 0.8229 0.1959 0.60823 0.0
H129 H 0.90214 0.23432 0.87457 0.0
Cu130 Cu 0.5888 0.80331 0.31879 0.0
N131 N 0.62289 0.84687 0.29077 0.0
N132 N 0.64352 0.90161 0.25821 0.0
C133 C 0.61744 0.87554 0.28434 0.0
C134 C 0.66647 0.8889 0.24781 0.0
C135 C 0.65375 0.85512 0.26817 0.0
O136 O 0.55421 0.81578 0.34793 0.0
C137 C 0.5892 0.75012 0.26329 0.0
O138 O 0.62232 0.76512 0.28035 0.0
H139 H 0.59334 0.87608 0.29611 0.0
H140 H 0.66528 0.83722 0.26503 0.0
N141 N 0.61096 0.78956 0.36228 0.0
N142 N 0.615 0.75494 0.41527 0.0
C143 C 0.59229 0.76099 0.38986 0.0
C144 C 0.64686 0.80228 0.3706 0.0
C145 C 0.64944 0.78062 0.40318 0.0
C146 C 0.56269 0.83089 0.38604 0.0
O147 O 0.59195 0.83423 0.40595 0.0
H148 H 0.56257 0.74388 0.38977 0.0
H149 H 0.66947 0.82474 0.35312 0.0
O150 O 0.5683 0.76286 0.27484 0.0
H151 H 0.68993 0.90238 0.22583 0.0
H152 H 0.67453 0.78301 0.41625 0.0
Cu153 Cu 0.79429 0.58083 0.74981 0.0
N154 N 0.83118 0.60927 0.70894 0.0
N155 N 0.87511 0.62413 0.65834 0.0
C156 C 0.84736 0.59658 0.68118 0.0
C157 C 0.87646 0.65538 0.67205 0.0
C158 C 0.84899 0.64608 0.70295 0.0
O159 O 0.81272 0.55435 0.78673 0.0
C160 C 0.71708 0.53029 0.72578 0.0
O161 O 0.70986 0.52171 0.76767 0.0
H162 H 0.84013 0.56792 0.67939 0.0
H163 H 0.84314 0.66496 0.72063 0.0
N164 N 0.78655 0.61229 0.78682 0.0
N165 N 0.75935 0.63295 0.83319 0.0
C166 C 0.75432 0.60731 0.80281 0.0
C167 C 0.81276 0.6425 0.80746 0.0
C168 C 0.79613 0.65522 0.83611 0.0
C169 C 0.84621 0.57334 0.79956 0.0
O170 O 0.86541 0.60789 0.78685 0.0
H171 H 0.72777 0.58423 0.79445 0.0
H172 H 0.84206 0.65375 0.80336 0.0
O173 O 0.75027 0.55148 0.71348 0.0
H174 H 0.89632 0.68292 0.66109 0.0
H175 H 0.81004 0.67822 0.85854 0.0
Cu176 Cu 0.2686 0.80125 0.2602 0.0
N177 N 0.23672 0.7944 0.21393 0.0
N178 N 0.19486 0.76473 0.16173 0.0
C179 C 0.20932 0.76164 0.20002 0.0
C180 C 0.21374 0.80083 0.15112 0.0
C181 C 0.23943 0.81921 0.18373 0.0
O182 O 0.2454 0.75506 0.29499 0.0
C183 C 0.32556 0.81872 0.19462 0.0
O184 O 0.29858 0.79879 0.16732 0.0
H185 H 0.20176 0.73572 0.21612 0.0
H186 H 0.26002 0.84818 0.18414 0.0
N187 N 0.27316 0.83964 0.29557 0.0
N188 N 0.30113 0.89057 0.33657 0.0
C189 C 0.30532 0.8698 0.30572 0.0
C190 C 0.24752 0.84149 0.32046 0.0
C191 C 0.26482 0.87285 0.34617 0.0
C192 C 0.24488 0.75344 0.33712 0.0
O193 O 0.26568 0.78361 0.35962 0.0
H194 H 0.33166 0.87512 0.29291 0.0
H195 H 0.2187 0.82053 0.32153 0.0
O196 O 0.31832 0.81891 0.23559 0.0
H197 H 0.20999 0.81279 0.12133 0.0
H198 H 0.25198 0.88125 0.37107 0.0
Cu199 Cu 0.46295 0.24433 0.81123 0.0
N200 N 0.42478 0.24557 0.78158 0.0
N201 N 0.39769 0.26821 0.73854 0.0
C202 C 0.42539 0.27619 0.76691 0.0
C203 C 0.37885 0.23112 0.73527 0.0
C204 C 0.39554 0.21719 0.76212 0.0
O205 O 0.49537 0.29522 0.83125 0.0
C206 C 0.50302 0.2091 0.77503 0.0
O207 O 0.517 0.2113 0.81435 0.0
H208 H 0.4476 0.30384 0.7737 0.0
H209 H 0.38852 0.18866 0.76477 0.0
N210 N 0.44352 0.21384 0.86079 0.0
N211 N 0.43674 0.17343 0.91323 0.0
C212 C 0.44571 0.18371 0.87078 0.0
C213 C 0.43127 0.22202 0.89778 0.0
C214 C 0.42743 0.19736 0.93035 0.0
C215 C 0.5109 0.30417 0.86893 0.0
O216 O 0.51211 0.27886 0.89325 0.0
H217 H 0.45616 0.17103 0.84845 0.0
H218 H 0.42819 0.246 0.90172 0.0
O219 O 0.4831 0.22371 0.76809 0.0
H220 H 0.35606 0.21544 0.71312 0.0
H221 H 0.42038 0.19823 0.9645 0.0
H222 H 0.12605 0.5352 0.07258 0.0
H223 H 1.01957 0.44783 0.11521 0.0
H224 H 0.04916 0.42689 0.16807 0.0
H225 H 0.10522 0.43068 0.19853 0.0
H226 H 0.2119 0.51937 0.1593 0.0
H227 H 0.1824 0.54295 0.10926 0.0
C228 C 0.10932 0.5117 0.09365 0.0
C229 C 0.07054 0.49279 0.08947 0.0
C230 C 0.12659 0.50012 0.12457 0.0
C231 C 0.04933 0.46281 0.11757 0.0
C232 C 0.06628 0.45077 0.14775 0.0
C233 C 0.12204 0.45546 0.1794 0.0
C234 C 0.16076 0.47311 0.18233 0.0
C235 C 0.10485 0.46883 0.15102 0.0
C236 C 0.18212 0.50541 0.1578 0.0
C237 C 0.1652 0.51867 0.12893 0.0
H238 H 0.62345 0.05412 0.61179 0.0
H239 H 0.64686 0.12825 0.50197 0.0
H240 H 0.71103 0.16474 0.52578 0.0
H241 H 0.75856 0.17904 0.58246 0.0
H242 H 0.73324 0.10652 0.69395 0.0
H243 H 0.67164 0.06555 0.66464 0.0
C244 C 0.64258 0.07806 0.5927 0.0
C245 C 0.63022 0.08868 0.55542 0.0
C246 C 0.67907 0.09918 0.60701 0.0
C247 C 0.65557 0.11959 0.53095 0.0
C248 C 0.69226 0.14049 0.5446 0.0
C249 C 0.7398 0.15375 0.59959 0.0
C250 C 0.75022 0.14557 0.6402 0.0
C251 C 0.70408 0.13102 0.58316 0.0
C252 C 0.72557 0.11317 0.66267 0.0
C253 C 0.69043 0.08993 0.64602 0.0
H254 H 0.52912 0.62478 0.11594 0.0
H255 H 0.61961 0.61408 0.166 0.0
H256 H 0.63409 0.66316 0.21884 0.0
H257 H 0.62191 0.70928 0.2509 0.0
H258 H 0.5308 0.7203 0.20451 0.0
H259 H 0.51555 0.67084 0.15065 0.0
C260 C 0.55208 0.63331 0.13833 0.0
C261 C 0.57336 0.61568 0.13663 0.0
C262 C 0.56007 0.66153 0.1695 0.0
C263 C 0.60271 0.62692 0.16636 0.0
C264 C 0.61107 0.65509 0.1967 0.0
C265 C 0.59864 0.70102 0.22907 0.0
C266 C 0.5777 0.71884 0.23173 0.0
C267 C 0.59001 0.67257 0.19856 0.0
C268 C 0.54741 0.70717 0.20336 0.0
C269 C 0.53879 0.67894 0.17242 0.0
H270 H 1.00587 0.61727 0.56925 0.0
H271 H 0.91605 0.52668 0.50107 0.0
H272 H 0.87222 0.54079 0.53675 0.0
H273 H 0.859 0.57464 0.59396 0.0
H274 H 0.9489 0.66637 0.65993 0.0
H275 H 0.99329 0.65631 0.61848 0.0
C276 C 0.97676 0.6011 0.56155 0.0
C277 C 0.96415 0.57078 0.53294 0.0
C278 C 0.95177 0.60932 0.58224 0.0
C279 C 0.92645 0.55024 0.52288 0.0
C280 C 0.90134 0.55808 0.54359 0.0
C281 C 0.88836 0.59257 0.59866 0.0
C282 C 0.90086 0.62091 0.63008 0.0
C283 C 0.91359 0.58682 0.57436 0.0
C284 C 0.93885 0.64446 0.63576 0.0
C285 C 0.96413 0.63859 0.61225 0.0
H286 H 0.48058 0.95576 0.14508 0.0
H287 H 0.44596 0.91164 1.01433 0.0
H288 H 0.39017 0.85924 0.04506 0.0
H289 H 0.34949 0.82779 0.10885 0.0
H290 H 0.38505 0.87215 0.23948 0.0
H291 H 0.44225 0.92218 0.20901 0.0
C292 C 0.46093 0.93465 0.12318 0.0
C293 C 0.46743 0.938 0.07725 0.0
C294 C 0.42901 0.90449 0.14114 0.0
C295 C 0.44177 0.90997 0.04968 0.0
C296 C 0.40978 0.87998 0.0673 0.0
C297 C 0.36992 0.84809 0.13081 0.0
C298 C 0.36262 0.84602 0.17659 0.0
C299 C 0.40287 0.87716 0.11296 0.0
C300 C 0.38967 0.87276 0.20427 0.0
C301 C 0.42242 0.90161 0.18679 0.0
H302 H 0.41067 0.37633 0.5891 0.0
H303 H 0.42206 0.44446 0.70122 0.0
H304 H 0.40884 0.39338 0.75103 0.0
H305 H 0.40196 0.33177 0.76267 0.0
H306 H 0.38843 0.26319 0.65056 0.0
H307 H 0.39422 0.31173 0.60066 0.0
C308 C 0.4094 0.37968 0.6244 0.0
C309 C 0.41765 0.41416 0.6415 0.0
C310 C 0.40182 0.35022 0.6528 0.0
C311 C 0.41565 0.41813 0.68725 0.0
C312 C 0.40844 0.38903 0.71577 0.0
C313 C 0.39963 0.32742 0.72733 0.0
C314 C 0.39507 0.29426 0.71014 0.0
C315 C 0.40273 0.35537 0.69895 0.0
C316 C 0.39175 0.28849 0.66439 0.0
C317 C 0.3953 0.3163 0.63591 0.0
H318 H 0.51249 0.94374 0.44403 0.0
H319 H 0.52917 0.91052 0.57255 0.0
H320 H 0.54138 0.8648 0.53877 0.0
H321 H 0.55252 0.83785 0.47265 0.0
H322 H 0.53362 0.86851 0.34393 0.0
H323 H 0.51639 0.91101 0.3777 0.0
C324 C 0.51851 0.92626 0.46463 0.0
C325 C 0.52036 0.93095 0.51085 0.0
C326 C 0.52498 0.89946 0.44491 0.0
C327 C 0.52763 0.90765 0.53702 0.0
C328 C 0.53471 0.88151 0.51769 0.0
C329 C 0.54387 0.85328 0.45201 0.0
C330 C 0.54437 0.85004 0.40583 0.0
C331 C 0.53411 0.87762 0.47169 0.0
C332 C 0.53305 0.87015 0.37953 0.0
C333 C 0.52361 0.89477 0.39888 0.0
H334 H 0.65356 0.61548 0.98808 0.0
H335 H 0.57458 0.57747 0.8823 0.0
H336 H 0.62415 0.59409 0.8285 0.0
H337 H 0.68916 0.61257 0.8129 0.0
H338 H 0.76741 0.65071 0.91948 0.0
H339 H 0.71909 0.64132 0.97153 0.0
C340 C 0.64731 0.61154 0.95315 0.0
C341 C 0.61051 0.59499 0.93916 0.0
C342 C 0.67581 0.62084 0.92262 0.0
C343 C 0.60275 0.59034 0.89384 0.0
C344 C 0.63104 0.5995 0.86313 0.0
C345 C 0.69556 0.61917 0.84745 0.0
C346 C 0.73172 0.63198 0.86237 0.0
C347 C 0.66752 0.61364 0.87732 0.0
C348 C 0.7399 0.64102 0.9071 0.0
C349 C 0.71221 0.63543 0.93696 0.0
H350 H 0.10978 0.60501 0.41081 0.0
H351 H 0.15998 0.6556 0.53465 0.0
H352 H 0.20966 0.70782 0.4954 0.0
H353 H 0.23813 0.74035 0.42602 0.0
H354 H 0.18883 0.68949 0.30194 0.0
H355 H 0.14008 0.63629 0.34108 0.0
C356 C 0.13157 0.62744 0.42928 0.0
C357 C 0.13078 0.62628 0.47585 0.0
C358 C 0.16047 0.65743 0.40637 0.0
C359 C 0.15963 0.65557 0.49896 0.0
C360 C 0.18815 0.68555 0.47647 0.0
C361 C 0.21695 0.71753 0.4074 0.0
C362 C 0.21737 0.71922 0.36087 0.0
C363 C 0.18879 0.68692 0.43019 0.0
C364 C 0.18951 0.68913 0.33762 0.0
C365 C 0.16141 0.65868 0.36006 0.0
H366 H 0.48429 0.06177 0.9758 0.0
H367 H 0.52288 0.13524 0.08754 0.0
H368 H 0.49441 0.16922 0.0574 0.0
H369 H 0.46399 0.18158 0.9955 0.0
H370 H 0.42778 0.10909 0.88307 0.0
H371 H 0.44982 0.07098 0.91741 0.0
C372 C 0.48628 0.08503 0.99388 0.0
C373 C 0.5061 0.0962 0.03366 0.0
C374 C 0.47039 0.10467 0.97609 0.0
C375 C 0.50796 0.12615 0.05677 0.0
C376 C 0.49176 0.14564 0.03948 0.0
C377 C 0.46013 0.15694 0.97907 0.0
C378 C 0.44436 0.14815 0.93673 0.0
C379 C 0.47361 0.13563 0.99867 0.0
C380 C 0.44008 0.11647 0.91549 0.0
C381 C 0.45271 0.09476 0.93508 0.0
H382 H 0.39639 0.5071 0.46997 0.0
H383 H 0.42659 0.4321 0.41128 0.0
H384 H 0.38122 0.41753 0.35312 0.0
H385 H 0.33139 0.42403 0.32031 0.0
H386 H 0.30196 0.50043 0.37614 0.0
H387 H 0.34886 0.51689 0.43353 0.0
C388 C 0.39306 0.48758 0.44443 0.0
C389 C 0.41478 0.47043 0.44544 0.0
C390 C 0.36712 0.47969 0.41043 0.0
C391 C 0.41036 0.44566 0.41158 0.0
C392 C 0.38433 0.43727 0.37825 0.0
C393 C 0.33531 0.4445 0.34486 0.0
C394 C 0.31287 0.46077 0.344 0.0
C395 C 0.36236 0.45385 0.37754 0.0
C396 C 0.31882 0.48755 0.37582 0.0
C397 C 0.34552 0.49678 0.40883 0.0
H398 H 1.00354 0.41122 0.95962 0.0
H399 H 0.04373 0.4702 0.83701 0.0
H400 H 1.0135 0.4118 0.79636 0.0
H401 H 0.96912 0.34488 0.79577 0.0
H402 H 0.92839 0.28707 0.91921 0.0
H403 H 0.96647 0.34384 0.9595 0.0
C404 C 1.00621 0.41119 0.92403 0.0
C405 C 0.02532 0.44482 0.90118 0.0
C406 C 0.98873 0.3777 0.9011 0.0
C407 C 0.02912 0.44456 0.85522 0.0
C408 C 1.01168 0.41122 0.83202 0.0
C409 C 0.96905 0.34464 0.83149 0.0
C410 C 0.94539 0.31175 0.85429 0.0
C411 C 0.99043 0.37772 0.85458 0.0
C412 C 0.94626 0.31174 0.90063 0.0
C413 C 0.96778 0.34438 0.9238 0.0
H414 H 0.90609 0.50058 0.93785 0.0
H415 H 1.00879 0.59384 0.8947 0.0
H416 H 0.97595 0.61266 0.84504 0.0
H417 H 0.91908 0.60343 0.81321 0.0
H418 H 0.81503 0.51029 0.85202 0.0
H419 H 0.84724 0.49041 0.90323 0.0
C420 C 0.92114 0.52511 0.91774 0.0
C421 C 0.96004 0.5458 0.9203 0.0
C422 C 0.90188 0.53567 0.88808 0.0
C423 C 0.97903 0.57726 0.8935 0.0
C424 C 0.96024 0.58813 0.86495 0.0
C425 C 0.90318 0.57869 0.83276 0.0
C426 C 0.86453 0.55854 0.82875 0.0
C427 C 0.92181 0.56756 0.86182 0.0
C428 C 0.84476 0.52634 0.8542 0.0
C429 C 0.86323 0.5151 0.8837 0.0
H430 H 0.45108 1.01495 0.40982 0.0
H431 H 0.39433 0.97048 0.53297 0.0
H432 H 0.33705 0.93144 0.49338 0.0
H433 H 0.30534 0.90414 0.42356 0.0
H434 H 0.36353 0.94493 0.3007 0.0
H435 H 0.41793 0.99134 0.34011 0.0
C436 C 0.42597 0.99737 0.42802 0.0
C437 C 0.42695 0.99552 0.47423 0.0
C438 C 0.39349 0.97397 0.40497 0.0
C439 C 0.39429 0.97226 0.49735 0.0
C440 C 0.36156 0.94984 0.47473 0.0
C441 C 0.32964 0.92383 0.40549 0.0
C442 C 0.33059 0.92119 0.35938 0.0
C443 C 0.36113 0.94958 0.42851 0.0
C444 C 0.36241 0.94641 0.33626 0.0
C445 C 0.39345 0.97286 0.35877 0.0
H446 H 0.52595 0.45482 0.93353 0.0
H447 H 0.56177 0.42553 0.05227 0.0
H448 H 0.55663 0.37115 1.01563 0.0
H449 H 0.53921 0.33024 0.95087 0.0
H450 H 0.50403 0.36012 0.83194 0.0
H451 H 0.51221 0.416 0.86744 0.0
C452 C 0.53267 0.43658 0.95147 0.0
C453 C 0.54389 0.4442 0.99588 0.0
C454 C 0.52994 0.40544 0.93003 0.0
C455 C 0.55295 0.42041 1.01822 0.0
C456 C 0.55001 0.38924 0.99723 0.0
C457 C 0.53376 0.34916 0.93244 0.0
C458 C 0.52088 0.34067 0.88865 0.0
C459 C 0.53822 0.38127 0.95325 0.0
C460 C 0.51401 0.36574 0.86554 0.0
C461 C 0.51849 0.39771 0.88595 0.0
H462 H 0.03026 0.44874 0.40018 0.0
H463 H 0.09228 0.46614 0.51985 0.0
H464 H 0.12092 0.43282 0.48883 0.0
H465 H 0.13423 0.40572 0.42419 0.0
H466 H 0.0762 0.39311 0.30298 0.0
H467 H 0.03947 0.41671 0.33809 0.0
C468 C 0.04961 0.44476 0.41973 0.0
C469 C 0.05942 0.46031 0.46204 0.0
C470 C 0.06665 0.42631 0.40132 0.0
C471 C 0.08455 0.45485 0.48695 0.0
C472 C 0.10093 0.43574 0.46928 0.0
C473 C 0.11263 0.40703 0.40617 0.0
C474 C 0.1074 0.39743 0.36142 0.0
C475 C 0.09297 0.42224 0.42607 0.0
C476 C 0.08016 0.40009 0.33767 0.0
C477 C 0.05952 0.41388 0.35761 0.0
H478 H 0.62466 0.08523 0.89818 0.0
H479 H 0.67147 0.13296 0.0244 0.0
H480 H 0.72523 0.18269 0.98812 0.0
H481 H 0.75992 0.21278 0.92098 0.0
H482 H 0.71366 0.16696 0.79401 0.0
H483 H 0.65906 0.1171 0.82992 0.0
C484 C 0.64671 0.10643 0.91769 0.0
C485 C 0.64385 0.10501 0.96414 0.0
C486 C 0.67775 0.13567 0.89644 0.0
C487 C 0.67265 0.13312 0.98872 0.0
C488 C 0.70356 0.16174 0.96797 0.0
C489 C 0.73783 0.1921 0.90101 0.0
C490 C 0.74117 0.19389 0.8547 0.0
C491 C 0.70647 0.16337 0.9219 0.0
C492 C 0.712 0.16662 0.82965 0.0
C493 C 0.68074 0.13786 0.85023 0.0
H494 H 0.57237 0.60591 0.50822 0.0
H495 H 0.48442 0.62112 0.55792 0.0
H496 H 0.51215 0.68175 0.52265 0.0
H497 H 0.55823 0.72762 0.47172 0.0
H498 H 0.64675 0.71301 0.42356 0.0
H499 H 0.62236 0.6551 0.46469 0.0
C500 C 0.55952 0.62271 0.51172 0.0
C501 C 0.52617 0.60893 0.53508 0.0
C502 C 0.57566 0.6575 0.49154 0.0
C503 C 0.51008 0.63114 0.54003 0.0
C504 C 0.52581 0.6657 0.5197 0.0
C505 C 0.57229 0.71185 0.4708 0.0
C506 C 0.60393 0.72415 0.44446 0.0
C507 C 0.55808 0.67871 0.49449 0.0
C508 C 0.62243 0.70402 0.44382 0.0
C509 C 0.60833 0.67084 0.46704 0.0
H510 H 0.50457 0.11817 0.6082 0.0
H511 H 0.50685 0.04808 0.71089 0.0
H512 H 0.50855 0.09074 0.76684 0.0
H513 H 0.50887 0.14783 0.78721 0.0
H514 H 0.50187 0.21579 0.68538 0.0
H515 H 0.50283 0.17452 0.62882 0.0
C516 C 0.50537 0.11219 0.64282 0.0
C517 C 0.50559 0.07979 0.65511 0.0
C518 C 0.50575 0.1367 0.67513 0.0
C519 C 0.50642 0.07254 0.70026 0.0
C520 C 0.50757 0.09708 0.7324 0.0
C521 C 0.50799 0.15386 0.75261 0.0
C522 C 0.50585 0.18524 0.74058 0.0
C523 C 0.50731 0.12929 0.72029 0.0
C524 C 0.50379 0.19204 0.69558 0.0
C525 C 0.50424 0.16834 0.66321 0.0
H526 H 0.39915 0.47228 0.02701 0.0
H527 H 0.46095 0.48932 0.14687 0.0
H528 H 0.40423 0.46051 0.18969 0.0
H529 H 0.33748 0.43384 0.19404 0.0
H530 H 0.27423 0.41428 0.07559 0.0
H531 H 0.33084 0.44 0.03101 0.0
C532 C 0.40007 0.46949 0.06245 0.0
C533 C 0.43424 0.48323 0.08373 0.0
C534 C 0.36712 0.45233 0.08705 0.0
C535 C 0.43505 0.47901 0.12962 0.0
C536 C 0.40263 0.46258 0.15423 0.0
C537 C 0.33623 0.4349 0.15839 0.0
C538 C 0.30212 0.42257 0.13794 0.0
C539 C 0.36863 0.44961 0.13339 0.0
C540 C 0.30038 0.42351 0.0918 0.0
C541 C 0.3327 0.43848 0.06649 0.0
H542 H 0.94152 0.43626 0.58567 0.0
H543 H 1.02259 0.49238 0.68715 0.0
H544 H 0.98148 0.44727 0.74162 0.0
H545 H 0.92308 0.39042 0.76001 0.0
H546 H 0.84354 0.33348 0.65735 0.0
H547 H 0.88319 0.3806 0.60409 0.0
C548 C 0.95031 0.43878 0.61969 0.0
C549 C 0.98535 0.46781 0.63205 0.0
C550 C 0.92657 0.41265 0.65083 0.0
C551 C 0.99596 0.47039 0.67647 0.0
C552 C 0.97236 0.4446 0.70773 0.0
C553 C 0.91411 0.3887 0.72616 0.0
C554 C 0.88007 0.35855 0.71286 0.0
C555 C 0.93761 0.4155 0.69529 0.0
C556 C 0.86939 0.3564 0.66859 0.0
C557 C 0.89217 0.38329 0.63803 0.0
H558 H 0.60332 0.01931 0.19634 0.0
H559 H 0.64068 0.9992 0.07239 0.0
H560 H 0.66189 0.96157 0.1096 0.0
H561 H 0.66223 0.92781 0.17556 0.0
H562 H 0.62088 0.94418 0.29853 0.0
H563 H 0.60898 0.98989 0.26381 0.0
C564 C 0.61693 1.00743 0.17772 0.0
C565 C 0.62033 1.01191 0.13171 0.0
C566 C 0.62786 0.98469 0.19912 0.0
C567 C 0.63759 0.99597 0.10785 0.0
C568 C 0.64962 0.97435 0.12907 0.0
C569 C 0.65152 0.94209 0.19495 0.0
C570 C 0.64227 0.93255 0.23945 0.0
C571 C 0.64379 0.96752 0.17444 0.0
C572 C 0.62785 0.95087 0.26409 0.0
C573 C 0.62105 0.97697 0.24425 0.0
H574 H 0.60813 0.50642 0.56766 0.0
H575 H 0.53849 0.49834 0.67707 0.0
H576 H 0.58517 0.50386 0.7289 0.0
H577 H 0.64685 0.51369 0.74396 0.0
H578 H 0.71904 0.52635 0.63567 0.0
H579 H 0.67058 0.51607 0.58308 0.0
C580 C 0.60316 0.50567 0.60283 0.0
C581 C 0.56975 0.50209 0.61825 0.0
C582 C 0.63069 0.50965 0.63288 0.0
C583 C 0.56396 0.50141 0.66406 0.0
C584 C 0.59066 0.50444 0.69389 0.0
C585 C 0.65185 0.51365 0.70887 0.0
C586 C 0.68652 0.52046 0.69391 0.0
C587 C 0.62425 0.5089 0.67878 0.0
C588 C 0.69261 0.52104 0.6482 0.0
C589 C 0.6649 0.51527 0.61805 0.0
H590 H 0.07566 0.61605 0.07942 0.0
H591 H 0.1441 0.66338 0.96426 0.0
H592 H 0.18215 0.72083 1.00454 0.0
H593 H 0.19865 0.75574 0.07454 0.0
H594 H 0.13271 0.70586 0.19044 0.0
H595 H 0.0907 0.65121 0.14785 0.0
C596 C 0.09858 0.63907 0.06283 0.0
C597 C 0.10701 0.63544 1.01885 0.0
C598 C 0.12085 0.67147 0.0865 0.0
C599 C 0.13708 0.66545 0.99811 0.0
C600 C 0.15885 0.69827 1.02114 0.0
C601 C 0.17466 0.7331 0.09005 0.0
C602 C 0.16847 0.73465 0.13537 0.0
C603 C 0.15137 0.70135 0.0656 0.0
C604 C 0.13783 0.70501 0.15557 0.0
C605 C 0.11393 0.67387 0.13127 0.0
loop_
_geom_bond_atom_site_label_1
_geom_bond_atom_site_label_2
_geom_bond_distance
_geom_bond_site_symmetry_2
_ccdc_geom_bond_type
C0 O2 1.247 . S
C0 O4 1.258 . S
C1 O8 1.247 1_655 S
C1 O9 1.258 . S
O2 C0 1.247 . S
O2 Zn3 2.028 1_455 S
Zn3 O2 2.028 1_655 S
Zn3 O7 2.035 1_554 S
Zn3 O9 2.035 1_554 S
Zn3 O10 2.028 1_655 S
O4 C0 1.258 . S
O4 Zn5 2.035 1_554 S
Zn5 O4 2.035 1_556 S
Zn5 O6 2.028 . S
Zn5 O8 2.028 . S
Zn5 O11 2.035 1_556 S
O6 Zn5 2.028 . S
O6 C12 1.247 1_455 S
O7 Zn3 2.035 1_556 S
O7 C12 1.258 . S
O8 C1 1.247 1_455 S
O8 Zn5 2.028 . S
O9 C1 1.258 . S
O9 Zn3 2.035 1_556 S
O10 Zn3 2.028 1_455 S
O10 C13 1.247 . S
O11 Zn5 2.035 1_554 S
O11 C13 1.258 . S
C12 O6 1.247 1_655 S
C12 O7 1.258 . S
C13 O10 1.247 . S
C13 O11 1.258 . S
C14 O16 1.247 . S
C14 O18 1.258 . S
C15 O22 1.247 1_565 S
C15 O23 1.258 . S
O16 C14 1.247 . S
O16 Zn17 2.028 1_545 S
Zn17 O16 2.028 1_565 S
Zn17 O21 2.035 . S
Zn17 O23 2.035 . S
Zn17 O24 2.028 1_565 S
O18 C14 1.258 . S
O18 Zn19 2.035 . S
Zn19 O18 2.035 . S
Zn19 O20 2.028 . S
Zn19 O22 2.028 . S
Zn19 O25 2.035 . S
O20 Zn19 2.028 . S
O20 C26 1.247 1_545 S
O21 Zn17 2.035 . S
O21 C26 1.258 . S
O22 C15 1.247 1_545 S
O22 Zn19 2.028 . S
O23 C15 1.258 . S
O23 Zn17 2.035 . S
O24 Zn17 2.028 1_545 S
O24 C27 1.247 . S
O25 Zn19 2.035 . S
O25 C27 1.258 . S
C26 O20 1.247 1_565 S
C26 O21 1.258 . S
C27 O24 1.247 . S
C27 O25 1.258 . S
C28 O30 1.247 . S
C28 O32 1.258 . S
C29 O36 1.247 . S
C29 O37 1.258 . S
O30 C28 1.247 . S
O30 Zn31 2.028 . S
Zn31 O30 2.028 . S
Zn31 O35 2.035 1_556 S
Zn31 O37 2.035 1_556 S
Zn31 O38 2.028 . S
O32 C28 1.258 . S
O32 Zn33 2.035 1_556 S
Zn33 O32 2.035 1_554 S
Zn33 O34 2.028 . S
Zn33 O36 2.028 . S
Zn33 O39 2.035 1_554 S
O34 Zn33 2.028 . S
O34 C40 1.247 . S
O35 Zn31 2.035 1_554 S
O35 C40 1.258 . S
O36 C29 1.247 . S
O36 Zn33 2.028 . S
O37 C29 1.258 . S
O37 Zn31 2.035 1_554 S
O38 Zn31 2.028 . S
O38 C41 1.247 . S
O39 Zn33 2.035 1_556 S
O39 C41 1.258 . S
C40 O34 1.247 . S
C40 O35 1.258 . S
C41 O38 1.247 . S
C41 O39 1.258 . S
C42 O44 1.247 . S
C42 O46 1.258 . S
C43 O50 1.247 . S
C43 O51 1.258 . S
O44 C42 1.247 . S
O44 Zn45 2.028 . S
Zn45 O44 2.028 . S
Zn45 O49 2.035 1_455 S
Zn45 O51 2.035 1_455 S
Zn45 O52 2.028 . S
O46 C42 1.258 . S
O46 Zn47 2.035 1_455 S
Zn47 O46 2.035 1_655 S
Zn47 O48 2.028 . S
Zn47 O50 2.028 . S
Zn47 O53 2.035 1_655 S
O48 Zn47 2.028 . S
O48 C54 1.247 . S
O49 Zn45 2.035 1_655 S
O49 C54 1.258 . S
O50 C43 1.247 . S
O50 Zn47 2.028 . S
O51 C43 1.258 . S
O51 Zn45 2.035 1_655 S
O52 Zn45 2.028 . S
O52 C55 1.247 . S
O53 Zn47 2.035 1_455 S
O53 C55 1.258 . S
C54 O48 1.247 . S
C54 O49 1.258 . S
C55 O52 1.247 . S
C55 O53 1.258 . S
C56 O58 1.262 . S
C56 O60 1.258 . S
C57 O64 1.247 . S
C57 O65 1.258 . S
O58 C56 1.262 . S
O58 Zn59 2.013 1_565 S
Zn59 O58 2.013 1_545 S
Zn59 O63 2.035 1_554 S
Zn59 O65 2.035 1_554 S
Zn59 O66 2.025 1_545 S
O60 C56 1.258 . S
O60 Zn61 2.035 1_554 S
Zn61 O60 2.035 1_556 S
Zn61 O62 2.028 1_565 S
Zn61 O64 2.028 1_565 S
Zn61 O67 2.035 1_556 S
O62 Zn61 2.028 1_545 S
O62 C68 1.247 . S
O63 Zn59 2.035 1_556 S
O63 C68 1.258 . S
O64 C57 1.247 . S
O64 Zn61 2.028 1_545 S
O65 C57 1.258 . S
O65 Zn59 2.035 1_556 S
O66 Zn59 2.025 1_565 S
O66 C69 1.257 . S
O67 Zn61 2.035 1_554 S
O67 C69 1.258 . S
C68 O62 1.247 . S
C68 O63 1.258 . S
C69 O66 1.257 . S
C69 O67 1.258 . S
C70 O72 1.247 . S
C70 O74 1.258 . S
C71 O78 1.247 . S
C71 O79 1.258 . S
O72 C70 1.247 . S
O72 Zn73 2.028 . S
Zn73 O72 2.028 . S
Zn73 O77 2.035 . S
Zn73 O79 2.035 . S
Zn73 O80 2.028 . S
O74 C70 1.258 . S
O74 Zn75 2.035 . S
Zn75 O74 2.035 . S
Zn75 O76 2.028 . S
Zn75 O78 2.028 . S
Zn75 O81 2.035 . S
O76 Zn75 2.028 . S
O76 C82 1.247 . S
O77 Zn73 2.035 . S
O77 C82 1.258 . S
O78 C71 1.247 . S
O78 Zn75 2.028 . S
O79 C71 1.258 . S
O79 Zn73 2.035 . S
O80 Zn73 2.028 . S
O80 C83 1.247 . S
O81 Zn75 2.035 . S
O81 C83 1.258 . S
C82 O76 1.247 . S
C82 O77 1.258 . S
C83 O80 1.247 . S
C83 O81 1.258 . S
Cu84 N85 1.999 . S
Cu84 O90 1.974 . S
Cu84 N95 1.985 . S
Cu84 O104 1.959 . S
N85 Cu84 1.999 . S
N85 C87 1.263 . S
N85 C89 1.389 . S
N86 C87 1.358 . S
N86 C88 1.400 . S
C87 N85 1.263 . S
C87 N86 1.358 . S
C87 H93 0.930 . S
C88 N86 1.400 . S
C88 C89 1.351 . S
C88 H105 0.930 . S
C89 N85 1.389 . S
C89 C88 1.351 . S
C89 H94 0.930 . S
O90 Cu84 1.974 . S
O90 C100 1.282 . S
C91 O92 1.261 . S
C91 O104 1.251 . S
O92 C91 1.261 . S
H93 C87 0.930 . S
H94 C89 0.930 . S
N95 Cu84 1.985 . S
N95 C97 1.335 . S
N95 C98 1.390 . S
N96 C97 1.345 . S
N96 C99 1.336 . S
C97 N95 1.335 . S
C97 N96 1.345 . S
C97 H102 0.930 . S
C98 N95 1.390 . S
C98 C99 1.346 . S
C98 H103 0.930 . S
C99 N96 1.336 . S
C99 C98 1.346 . S
C99 H106 0.929 . S
C100 O90 1.282 . S
C100 O101 1.216 . S
O101 C100 1.216 . S
H102 C97 0.930 . S
H103 C98 0.930 . S
O104 Cu84 1.959 . S
O104 C91 1.251 . S
H105 C88 0.930 . S
H106 C99 0.929 . S
Cu107 N108 1.999 . S
Cu107 O113 1.974 . S
Cu107 N118 1.985 . S
Cu107 O127 1.959 . S
N108 Cu107 1.999 . S
N108 C110 1.263 . S
N108 C112 1.389 . S
N109 C110 1.358 . S
N109 C111 1.400 . S
C110 N108 1.263 . S
C110 N109 1.358 . S
C110 H116 0.930 . S
C111 N109 1.400 . S
C111 C112 1.351 . S
C111 H128 0.930 . S
C112 N108 1.389 . S
C112 C111 1.351 . S
C112 H117 0.930 . S
O113 Cu107 1.974 . S
O113 C123 1.282 . S
C114 O115 1.261 . S
C114 O127 1.251 . S
O115 C114 1.261 . S
H116 C110 0.930 . S
H117 C112 0.930 . S
N118 Cu107 1.985 . S
N118 C120 1.335 . S
N118 C121 1.390 . S
N119 C120 1.345 . S
N119 C122 1.336 . S
C120 N118 1.335 . S
C120 N119 1.345 . S
C120 H125 0.930 . S
C121 N118 1.390 . S
C121 C122 1.346 . S
C121 H126 0.930 . S
C122 N119 1.336 . S
C122 C121 1.346 . S
C122 H129 0.929 . S
C123 O113 1.282 . S
C123 O124 1.216 . S
O124 C123 1.216 . S
H125 C120 0.930 . S
H126 C121 0.930 . S
O127 Cu107 1.959 . S
O127 C114 1.251 . S
H128 C111 0.930 . S
H129 C122 0.929 . S
Cu130 N131 1.999 . S
Cu130 O136 1.974 . S
Cu130 N141 1.985 . S
Cu130 O150 1.959 . S
N131 Cu130 1.999 . S
N131 C133 1.263 . S
N131 C135 1.389 . S
N132 C133 1.358 . S
N132 C134 1.400 . S
C133 N131 1.263 . S
C133 N132 1.358 . S
C133 H139 0.930 . S
C134 N132 1.400 . S
C134 C135 1.351 . S
C134 H151 0.930 . S
C135 N131 1.389 . S
C135 C134 1.351 . S
C135 H140 0.930 . S
O136 Cu130 1.974 . S
O136 C146 1.282 . S
C137 O138 1.261 . S
C137 O150 1.251 . S
O138 C137 1.261 . S
H139 C133 0.930 . S
H140 C135 0.930 . S
N141 Cu130 1.985 . S
N141 C143 1.335 . S
N141 C144 1.390 . S
N142 C143 1.345 . S
N142 C145 1.336 . S
C143 N141 1.335 . S
C143 N142 1.345 . S
C143 H148 0.930 . S
C144 N141 1.390 . S
C144 C145 1.346 . S
C144 H149 0.930 . S
C145 N142 1.336 . S
C145 C144 1.346 . S
C145 H152 0.929 . S
C146 O136 1.282 . S
C146 O147 1.216 . S
O147 C146 1.216 . S
H148 C143 0.930 . S
H149 C144 0.930 . S
O150 Cu130 1.959 . S
O150 C137 1.251 . S
H151 C134 0.930 . S
H152 C145 0.929 . S
Cu153 N154 1.999 . S
Cu153 O159 1.974 . S
Cu153 N164 1.985 . S
Cu153 O173 1.959 . S
N154 Cu153 1.999 . S
N154 C156 1.263 . S
N154 C158 1.389 . S
N155 C156 1.358 . S
N155 C157 1.400 . S
C156 N154 1.263 . S
C156 N155 1.358 . S
C156 H162 0.930 . S
C157 N155 1.400 . S
C157 C158 1.351 . S
C157 H174 0.930 . S
C158 N154 1.389 . S
C158 C157 1.351 . S
C158 H163 0.930 . S
O159 Cu153 1.974 . S
O159 C169 1.282 . S
C160 O161 1.261 . S
C160 O173 1.251 . S
O161 C160 1.261 . S
H162 C156 0.930 . S
H163 C158 0.930 . S
N164 Cu153 1.985 . S
N164 C166 1.335 . S
N164 C167 1.390 . S
N165 C166 1.345 . S
N165 C168 1.336 . S
C166 N164 1.335 . S
C166 N165 1.345 . S
C166 H171 0.930 . S
C167 N164 1.390 . S
C167 C168 1.346 . S
C167 H172 0.930 . S
C168 N165 1.336 . S
C168 C167 1.346 . S
C168 H175 0.929 . S
C169 O159 1.282 . S
C169 O170 1.216 . S
O170 C169 1.216 . S
H171 C166 0.930 . S
H172 C167 0.930 . S
O173 Cu153 1.959 . S
O173 C160 1.251 . S
H174 C157 0.930 . S
H175 C168 0.929 . S
Cu176 N177 1.999 . S
Cu176 O182 1.974 . S
Cu176 N187 1.985 . S
Cu176 O196 1.959 . S
N177 Cu176 1.999 . S
N177 C179 1.263 . S
N177 C181 1.389 . S
N178 C179 1.358 . S
N178 C180 1.400 . S
C179 N177 1.263 . S
C179 N178 1.358 . S
C179 H185 0.930 . S
C180 N178 1.400 . S
C180 C181 1.351 . S
C180 H197 0.930 . S
C181 N177 1.389 . S
C181 C180 1.351 . S
C181 H186 0.930 . S
O182 Cu176 1.974 . S
O182 C192 1.282 . S
C183 O184 1.261 . S
C183 O196 1.251 . S
O184 C183 1.261 . S
H185 C179 0.930 . S
H186 C181 0.930 . S
N187 Cu176 1.985 . S
N187 C189 1.335 . S
N187 C190 1.390 . S
N188 C189 1.345 . S
N188 C191 1.336 . S
C189 N187 1.335 . S
C189 N188 1.345 . S
C189 H194 0.930 . S
C190 N187 1.390 . S
C190 C191 1.346 . S
C190 H195 0.930 . S
C191 N188 1.336 . S
C191 C190 1.346 . S
C191 H198 0.929 . S
C192 O182 1.282 . S
C192 O193 1.216 . S
O193 C192 1.216 . S
H194 C189 0.930 . S
H195 C190 0.930 . S
O196 Cu176 1.959 . S
O196 C183 1.251 . S
H197 C180 0.930 . S
H198 C191 0.929 . S
Cu199 N200 1.999 . S
Cu199 O205 1.974 . S
Cu199 N210 1.985 . S
Cu199 O219 1.959 . S
N200 Cu199 1.999 . S
N200 C202 1.263 . S
N200 C204 1.389 . S
N201 C202 1.358 . S
N201 C203 1.400 . S
C202 N200 1.263 . S
C202 N201 1.358 . S
C202 H208 0.930 . S
C203 N201 1.400 . S
C203 C204 1.351 . S
C203 H220 0.930 . S
C204 N200 1.389 . S
C204 C203 1.351 . S
C204 H209 0.930 . S
O205 Cu199 1.974 . S
O205 C215 1.282 . S
C206 O207 1.261 . S
C206 O219 1.251 . S
O207 C206 1.261 . S
H208 C202 0.930 . S
H209 C204 0.930 . S
N210 Cu199 1.985 . S
N210 C212 1.335 . S
N210 C213 1.390 . S
N211 C212 1.345 . S
N211 C214 1.336 . S
C212 N210 1.335 . S
C212 N211 1.345 . S
C212 H217 0.930 . S
C213 N210 1.390 . S
C213 C214 1.346 . S
C213 H218 0.930 . S
C214 N211 1.336 . S
C214 C213 1.346 . S
C214 H221 0.929 . S
C215 O205 1.282 . S
C215 O216 1.216 . S
O216 C215 1.216 . S
H217 C212 0.930 . S
H218 C213 0.930 . S
O219 Cu199 1.959 . S
O219 C206 1.251 . S
H220 C203 0.930 . S
H221 C214 0.929 . S
H222 C228 0.930 . S
H223 C231 0.930 . S
H224 C232 0.930 . S
H225 C233 0.930 . S
H226 C236 0.930 . S
H227 C237 0.930 . S
C228 H222 0.930 . S
C228 C229 1.355 . S
C228 C230 1.415 . S
C229 C228 1.355 . S
C229 C231 1.419 . S
C230 C228 1.415 . S
C230 C235 1.425 . S
C230 C237 1.409 . S
C231 H223 0.930 . S
C231 C229 1.419 . S
C231 C232 1.362 . S
C232 H224 0.930 . S
C232 C231 1.362 . S
C232 C235 1.409 . S
C233 H225 0.930 . S
C233 C234 1.355 . S
C233 C235 1.415 . S
C234 C233 1.355 . S
C234 C236 1.419 . S
C235 C230 1.425 . S
C235 C232 1.409 . S
C235 C233 1.415 . S
C236 H226 0.930 . S
C236 C234 1.419 . S
C236 C237 1.362 . S
C237 H227 0.930 . S
C237 C230 1.409 . S
C237 C236 1.362 . S
H238 C244 0.930 . S
H239 C247 0.930 . S
H240 C248 0.930 . S
H241 C249 0.930 . S
H242 C252 0.930 . S
H243 C253 0.930 . S
C244 H238 0.930 . S
C244 C245 1.355 . S
C244 C246 1.415 . S
C245 C244 1.355 . S
C245 C247 1.419 . S
C246 C244 1.415 . S
C246 C251 1.425 . S
C246 C253 1.409 . S
C247 H239 0.930 . S
C247 C245 1.419 . S
C247 C248 1.362 . S
C248 H240 0.930 . S
C248 C247 1.362 . S
C248 C251 1.409 . S
C249 H241 0.930 . S
C249 C250 1.355 . S
C249 C251 1.415 . S
C250 C249 1.355 . S
C250 C252 1.419 . S
C251 C246 1.425 . S
C251 C248 1.409 . S
C251 C249 1.415 . S
C252 H242 0.930 . S
C252 C250 1.419 . S
C252 C253 1.362 . S
C253 H243 0.930 . S
C253 C246 1.409 . S
C253 C252 1.362 . S
H254 C260 0.930 . S
H255 C263 0.930 . S
H256 C264 0.930 . S
H257 C265 0.930 . S
H258 C268 0.930 . S
H259 C269 0.930 . S
C260 H254 0.930 . S
C260 C261 1.355 . S
C260 C262 1.415 . S
C261 C260 1.355 . S
C261 C263 1.419 . S
C262 C260 1.415 . S
C262 C267 1.425 . S
C262 C269 1.409 . S
C263 H255 0.930 . S
C263 C261 1.419 . S
C263 C264 1.362 . S
C264 H256 0.930 . S
C264 C263 1.362 . S
C264 C267 1.409 . S
C265 H257 0.930 . S
C265 C266 1.355 . S
C265 C267 1.415 . S
C266 C265 1.355 . S
C266 C268 1.419 . S
C267 C262 1.425 . S
C267 C264 1.409 . S
C267 C265 1.415 . S
C268 H258 0.930 . S
C268 C266 1.419 . S
C268 C269 1.362 . S
C269 H259 0.930 . S
C269 C262 1.409 . S
C269 C268 1.362 . S
H270 C276 0.930 . S
H271 C279 0.930 . S
H272 C280 0.930 . S
H273 C281 0.930 . S
H274 C284 0.930 . S
H275 C285 0.930 . S
C276 H270 0.930 . S
C276 C277 1.355 . S
C276 C278 1.415 . S
C277 C276 1.355 . S
C277 C279 1.419 . S
C278 C276 1.415 . S
C278 C283 1.425 . S
C278 C285 1.409 . S
C279 H271 0.930 . S
C279 C277 1.419 . S
C279 C280 1.362 . S
C280 H272 0.930 . S
C280 C279 1.362 . S
C280 C283 1.409 . S
C281 H273 0.930 . S
C281 C282 1.355 . S
C281 C283 1.415 . S
C282 C281 1.355 . S
C282 C284 1.419 . S
C283 C278 1.425 . S
C283 C280 1.409 . S
C283 C281 1.415 . S
C284 H274 0.930 . S
C284 C282 1.419 . S
C284 C285 1.362 . S
C285 H275 0.930 . S
C285 C278 1.409 . S
C285 C284 1.362 . S
H286 C292 0.930 . S
H287 C295 0.930 . S
H288 C296 0.930 . S
H289 C297 0.930 . S
H290 C300 0.930 . S
H291 C301 0.930 . S
C292 H286 0.930 . S
C292 C293 1.355 . S
C292 C294 1.415 . S
C293 C292 1.355 . S
C293 C295 1.419 . S
C294 C292 1.415 . S
C294 C299 1.425 . S
C294 C301 1.409 . S
C295 H287 0.930 . S
C295 C293 1.419 . S
C295 C296 1.362 . S
C296 H288 0.930 . S
C296 C295 1.362 . S
C296 C299 1.409 . S
C297 H289 0.930 . S
C297 C298 1.355 . S
C297 C299 1.415 . S
C298 C297 1.355 . S
C298 C300 1.419 . S
C299 C294 1.425 . S
C299 C296 1.409 . S
C299 C297 1.415 . S
C300 H290 0.930 . S
C300 C298 1.419 . S
C300 C301 1.362 . S
C301 H291 0.930 . S
C301 C294 1.409 . S
C301 C300 1.362 . S
H302 C308 0.930 . S
H303 C311 0.930 . S
H304 C312 0.930 . S
H305 C313 0.930 . S
H306 C316 0.930 . S
H307 C317 0.930 . S
C308 H302 0.930 . S
C308 C309 1.355 . S
C308 C310 1.415 . S
C309 C308 1.355 . S
C309 C311 1.419 . S
C310 C308 1.415 . S
C310 C315 1.425 . S
C310 C317 1.409 . S
C311 H303 0.930 . S
C311 C309 1.419 . S
C311 C312 1.362 . S
C312 H304 0.930 . S
C312 C311 1.362 . S
C312 C315 1.409 . S
C313 H305 0.930 . S
C313 C314 1.355 . S
C313 C315 1.415 . S
C314 C313 1.355 . S
C314 C316 1.419 . S
C315 C310 1.425 . S
C315 C312 1.409 . S
C315 C313 1.415 . S
C316 H306 0.930 . S
C316 C314 1.419 . S
C316 C317 1.362 . S
C317 H307 0.930 . S
C317 C310 1.409 . S
C317 C316 1.362 . S
H318 C324 0.930 . S
H319 C327 0.930 . S
H320 C328 0.930 . S
H321 C329 0.930 . S
H322 C332 0.930 . S
H323 C333 0.930 . S
C324 H318 0.930 . S
C324 C325 1.355 . S
C324 C326 1.415 . S
C325 C324 1.355 . S
C325 C327 1.419 . S
C326 C324 1.415 . S
C326 C331 1.425 . S
C326 C333 1.409 . S
C327 H319 0.930 . S
C327 C325 1.419 . S
C327 C328 1.362 . S
C328 H320 0.930 . S
C328 C327 1.362 . S
C328 C331 1.409 . S
C329 H321 0.930 . S
C329 C330 1.355 . S
C329 C331 1.415 . S
C330 C329 1.355 . S
C330 C332 1.419 . S
C331 C326 1.425 . S
C331 C328 1.409 . S
C331 C329 1.415 . S
C332 H322 0.930 . S
C332 C330 1.419 . S
C332 C333 1.362 . S
C333 H323 0.930 . S
C333 C326 1.409 . S
C333 C332 1.362 . S
H334 C340 0.930 . S
H335 C343 0.930 . S
H336 C344 0.930 . S
H337 C345 0.930 . S
H338 C348 0.930 . S
H339 C349 0.930 . S
C340 H334 0.930 . S
C340 C341 1.355 . S
C340 C342 1.415 . S
C341 C340 1.355 . S
C341 C343 1.419 . S
C342 C340 1.415 . S
C342 C347 1.425 . S
C342 C349 1.409 . S
C343 H335 0.930 . S
C343 C341 1.419 . S
C343 C344 1.362 . S
C344 H336 0.930 . S
C344 C343 1.362 . S
C344 C347 1.409 . S
C345 H337 0.930 . S
C345 C346 1.355 . S
C345 C347 1.415 . S
C346 C345 1.355 . S
C346 C348 1.419 . S
C347 C342 1.425 . S
C347 C344 1.409 . S
C347 C345 1.415 . S
C348 H338 0.930 . S
C348 C346 1.419 . S
C348 C349 1.362 . S
C349 H339 0.930 . S
C349 C342 1.409 . S
C349 C348 1.362 . S
H350 C356 0.930 . S
H351 C359 0.930 . S
H352 C360 0.930 . S
H353 C361 0.930 . S
H354 C364 0.930 . S
H355 C365 0.930 . S
C356 H350 0.930 . S
C356 C357 1.355 . S
C356 C358 1.415 . S
C357 C356 1.355 . S
C357 C359 1.419 . S
C358 C356 1.415 . S
C358 C363 1.425 . S
C358 C365 1.409 . S
C359 H351 0.930 . S
C359 C357 1.419 . S
C359 C360 1.362 . S
C360 H352 0.930 . S
C360 C359 1.362 . S
C360 C363 1.409 . S
C361 H353 0.930 . S
C361 C362 1.355 . S
C361 C363 1.415 . S
C362 C361 1.355 . S
C362 C364 1.419 . S
C363 C358 1.425 . S
C363 C360 1.409 . S
C363 C361 1.415 . S
C364 H354 0.930 . S
C364 C362 1.419 . S
C364 C365 1.362 . S
C365 H355 0.930 . S
C365 C358 1.409 . S
C365 C364 1.362 . S
H366 C372 0.930 . S
H367 C375 0.930 . S
H368 C376 0.930 . S
H369 C377 0.930 . S
H370 C380 0.930 . S
H371 C381 0.930 . S
C372 H366 0.930 . S
C372 C373 1.355 . S
C372 C374 1.415 . S
C373 C372 1.355 . S
C373 C375 1.419 . S
C374 C372 1.415 . S
C374 C379 1.425 . S
C374 C381 1.409 . S
C375 H367 0.930 . S
C375 C373 1.419 . S
C375 C376 1.362 . S
C376 H368 0.930 . S
C376 C375 1.362 . S
C376 C379 1.409 . S
C377 H369 0.930 . S
C377 C378 1.355 . S
C377 C379 1.415 . S
C378 C377 1.355 . S
C378 C380 1.419 . S
C379 C374 1.425 . S
C379 C376 1.409 . S
C379 C377 1.415 . S
C380 H370 0.930 . S
C380 C378 1.419 . S
C380 C381 1.362 . S
C381 H371 0.930 . S
C381 C374 1.409 . S
C381 C380 1.362 . S
H382 C388 0.930 . S
H383 C391 0.930 . S
H384 C392 0.930 . S
H385 C393 0.930 . S
H386 C396 0.930 . S
H387 C397 0.930 . S
C388 H382 0.930 . S
C388 C389 1.355 . S
C388 C390 1.415 . S
C389 C388 1.355 . S
C389 C391 1.419 . S
C390 C388 1.415 . S
C390 C395 1.425 . S
C390 C397 1.409 . S
C391 H383 0.930 . S
C391 C389 1.419 . S
C391 C392 1.362 . S
C392 H384 0.930 . S
C392 C391 1.362 . S
C392 C395 1.409 . S
C393 H385 0.930 . S
C393 C394 1.355 . S
C393 C395 1.415 . S
C394 C393 1.355 . S
C394 C396 1.419 . S
C395 C390 1.425 . S
C395 C392 1.409 . S
C395 C393 1.415 . S
C396 H386 0.930 . S
C396 C394 1.419 . S
C396 C397 1.362 . S
C397 H387 0.930 . S
C397 C390 1.409 . S
C397 C396 1.362 . S
H398 C404 0.930 . S
H399 C407 0.928 1_455 S
H400 C408 0.930 . S
H401 C409 0.930 . S
H402 C412 0.930 . S
H403 C413 0.930 . S
C404 H398 0.930 . S
C404 C405 1.355 . S
C404 C406 1.415 . S
C405 C404 1.355 . S
C405 C407 1.419 . S
C406 C404 1.415 . S
C406 C411 1.425 . S
C406 C413 1.409 . S
C407 H399 0.928 1_655 S
C407 C405 1.419 . S
C407 C408 1.362 . S
C408 H400 0.930 . S
C408 C407 1.362 . S
C408 C411 1.409 . S
C409 H401 0.930 . S
C409 C410 1.355 . S
C409 C411 1.415 . S
C410 C409 1.355 . S
C410 C412 1.419 . S
C411 C406 1.425 . S
C411 C408 1.409 . S
C411 C409 1.415 . S
C412 H402 0.930 . S
C412 C410 1.419 . S
C412 C413 1.362 . S
C413 H403 0.930 . S
C413 C406 1.409 . S
C413 C412 1.362 . S
H414 C420 0.930 . S
H415 C423 0.923 1_455 S
H416 C424 0.930 . S
H417 C425 0.930 . S
H418 C428 0.930 . S
H419 C429 0.930 . S
C420 H414 0.930 . S
C420 C421 1.355 . S
C420 C422 1.415 . S
C421 C420 1.355 . S
C421 C423 1.419 . S
C422 C420 1.415 . S
C422 C427 1.425 . S
C422 C429 1.409 . S
C423 H415 0.923 1_655 S
C423 C421 1.419 . S
C423 C424 1.362 . S
C424 H416 0.930 . S
C424 C423 1.362 . S
C424 C427 1.409 . S
C425 H417 0.930 . S
C425 C426 1.355 . S
C425 C427 1.415 . S
C426 C425 1.355 . S
C426 C428 1.419 . S
C427 C422 1.425 . S
C427 C424 1.409 . S
C427 C425 1.415 . S
C428 H418 0.930 . S
C428 C426 1.419 . S
C428 C429 1.362 . S
C429 H419 0.930 . S
C429 C422 1.409 . S
C429 C428 1.362 . S
H430 C436 0.930 . S
H431 C439 0.930 . S
H432 C440 0.930 . S
H433 C441 0.930 . S
H434 C444 0.930 . S
H435 C445 0.930 . S
C436 H430 0.930 . S
C436 C437 1.355 . S
C436 C438 1.415 . S
C437 C436 1.355 . S
C437 C439 1.419 . S
C438 C436 1.415 . S
C438 C443 1.425 . S
C438 C445 1.409 . S
C439 H431 0.930 . S
C439 C437 1.419 . S
C439 C440 1.362 . S
C440 H432 0.930 . S
C440 C439 1.362 . S
C440 C443 1.409 . S
C441 H433 0.930 . S
C441 C442 1.355 . S
C441 C443 1.415 . S
C442 C441 1.355 . S
C442 C444 1.419 . S
C443 C438 1.425 . S
C443 C440 1.409 . S
C443 C441 1.415 . S
C444 H434 0.930 . S
C444 C442 1.419 . S
C444 C445 1.362 . S
C445 H435 0.930 . S
C445 C438 1.409 . S
C445 C444 1.362 . S
H446 C452 0.930 . S
H447 C455 0.930 . S
H448 C456 0.930 . S
H449 C457 0.930 . S
H450 C460 0.930 . S
H451 C461 0.930 . S
C452 H446 0.930 . S
C452 C453 1.355 . S
C452 C454 1.415 . S
C453 C452 1.355 . S
C453 C455 1.419 . S
C454 C452 1.415 . S
C454 C459 1.425 . S
C454 C461 1.409 . S
C455 H447 0.930 . S
C455 C453 1.419 . S
C455 C456 1.362 . S
C456 H448 0.930 . S
C456 C455 1.362 . S
C456 C459 1.409 . S
C457 H449 0.930 . S
C457 C458 1.355 . S
C457 C459 1.415 . S
C458 C457 1.355 . S
C458 C460 1.419 . S
C459 C454 1.425 . S
C459 C456 1.409 . S
C459 C457 1.415 . S
C460 H450 0.930 . S
C460 C458 1.419 . S
C460 C461 1.362 . S
C461 H451 0.930 . S
C461 C454 1.409 . S
C461 C460 1.362 . S
H462 C468 0.930 . S
H463 C471 0.930 . S
H464 C472 0.930 . S
H465 C473 0.930 . S
H466 C476 0.930 . S
H467 C477 0.930 . S
C468 H462 0.930 . S
C468 C469 1.355 . S
C468 C470 1.415 . S
C469 C468 1.355 . S
C469 C471 1.419 . S
C470 C468 1.415 . S
C470 C475 1.425 . S
C470 C477 1.409 . S
C471 H463 0.930 . S
C471 C469 1.419 . S
C471 C472 1.362 . S
C472 H464 0.930 . S
C472 C471 1.362 . S
C472 C475 1.409 . S
C473 H465 0.930 . S
C473 C474 1.355 . S
C473 C475 1.415 . S
C474 C473 1.355 . S
C474 C476 1.419 . S
C475 C470 1.425 . S
C475 C472 1.409 . S
C475 C473 1.415 . S
C476 H466 0.930 . S
C476 C474 1.419 . S
C476 C477 1.362 . S
C477 H467 0.930 . S
C477 C470 1.409 . S
C477 C476 1.362 . S
H478 C484 0.930 . S
H479 C487 0.930 . S
H480 C488 0.930 . S
H481 C489 0.930 . S
H482 C492 0.930 . S
H483 C493 0.930 . S
C484 H478 0.930 . S
C484 C485 1.355 . S
C484 C486 1.415 . S
C485 C484 1.355 . S
C485 C487 1.419 . S
C486 C484 1.415 . S
C486 C491 1.425 . S
C486 C493 1.409 . S
C487 H479 0.930 . S
C487 C485 1.419 . S
C487 C488 1.362 . S
C488 H480 0.930 . S
C488 C487 1.362 . S
C488 C491 1.409 . S
C489 H481 0.930 . S
C489 C490 1.355 . S
C489 C491 1.415 . S
C490 C489 1.355 . S
C490 C492 1.419 . S
C491 C486 1.425 . S
C491 C488 1.409 . S
C491 C489 1.415 . S
C492 H482 0.930 . S
C492 C490 1.419 . S
C492 C493 1.362 . S
C493 H483 0.930 . S
C493 C486 1.409 . S
C493 C492 1.362 . S
H494 C500 0.930 . S
H495 C503 0.930 . S
H496 C504 0.930 . S
H497 C505 0.930 . S
H498 C508 0.930 . S
H499 C509 0.930 . S
C500 H494 0.930 . S
C500 C501 1.355 . S
C500 C502 1.415 . S
C501 C500 1.355 . S
C501 C503 1.419 . S
C502 C500 1.415 . S
C502 C507 1.425 . S
C502 C509 1.409 . S
C503 H495 0.930 . S
C503 C501 1.419 . S
C503 C504 1.362 . S
C504 H496 0.930 . S
C504 C503 1.362 . S
C504 C507 1.409 . S
C505 H497 0.930 . S
C505 C506 1.355 . S
C505 C507 1.415 . S
C506 C505 1.355 . S
C506 C508 1.419 . S
C507 C502 1.425 . S
C507 C504 1.409 . S
C507 C505 1.415 . S
C508 H498 0.930 . S
C508 C506 1.419 . S
C508 C509 1.362 . S
C509 H499 0.930 . S
C509 C502 1.409 . S
C509 C508 1.362 . S
H510 C516 0.930 . S
H511 C519 0.930 . S
H512 C520 0.930 . S
H513 C521 0.930 . S
H514 C524 0.930 . S
H515 C525 0.930 . S
C516 H510 0.930 . S
C516 C517 1.355 . S
C516 C518 1.415 . S
C517 C516 1.355 . S
C517 C519 1.419 . S
C518 C516 1.415 . S
C518 C523 1.425 . S
C518 C525 1.409 . S
C519 H511 0.930 . S
C519 C517 1.419 . S
C519 C520 1.362 . S
C520 H512 0.930 . S
C520 C519 1.362 . S
C520 C523 1.409 . S
C521 H513 0.930 . S
C521 C522 1.355 . S
C521 C523 1.415 . S
C522 C521 1.355 . S
C522 C524 1.419 . S
C523 C518 1.425 . S
C523 C520 1.409 . S
C523 C521 1.415 . S
C524 H514 0.930 . S
C524 C522 1.419 . S
C524 C525 1.362 . S
C525 H515 0.930 . S
C525 C518 1.409 . S
C525 C524 1.362 . S
H526 C532 0.930 . S
H527 C535 0.930 . S
H528 C536 0.930 . S
H529 C537 0.930 . S
H530 C540 0.930 . S
H531 C541 0.930 . S
C532 H526 0.930 . S
C532 C533 1.355 . S
C532 C534 1.415 . S
C533 C532 1.355 . S
C533 C535 1.419 . S
C534 C532 1.415 . S
C534 C539 1.425 . S
C534 C541 1.409 . S
C535 H527 0.930 . S
C535 C533 1.419 . S
C535 C536 1.362 . S
C536 H528 0.930 . S
C536 C535 1.362 . S
C536 C539 1.409 . S
C537 H529 0.930 . S
C537 C538 1.355 . S
C537 C539 1.415 . S
C538 C537 1.355 . S
C538 C540 1.419 . S
C539 C534 1.425 . S
C539 C536 1.409 . S
C539 C537 1.415 . S
C540 H530 0.930 . S
C540 C538 1.419 . S
C540 C541 1.362 . S
C541 H531 0.930 . S
C541 C534 1.409 . S
C541 C540 1.362 . S
H542 C548 0.930 . S
H543 C551 0.930 . S
H544 C552 0.930 . S
H545 C553 0.930 . S
H546 C556 0.930 . S
H547 C557 0.930 . S
C548 H542 0.930 . S
C548 C549 1.355 . S
C548 C550 1.415 . S
C549 C548 1.355 . S
C549 C551 1.419 . S
C550 C548 1.415 . S
C550 C555 1.425 . S
C550 C557 1.409 . S
C551 H543 0.930 . S
C551 C549 1.419 . S
C551 C552 1.362 . S
C552 H544 0.930 . S
C552 C551 1.362 . S
C552 C555 1.409 . S
C553 H545 0.930 . S
C553 C554 1.355 . S
C553 C555 1.415 . S
C554 C553 1.355 . S
C554 C556 1.419 . S
C555 C550 1.425 . S
C555 C552 1.409 . S
C555 C553 1.415 . S
C556 H546 0.930 . S
C556 C554 1.419 . S
C556 C557 1.362 . S
C557 H547 0.930 . S
C557 C550 1.409 . S
C557 C556 1.362 . S
H558 C564 0.930 . S
H559 C567 0.930 . S
H560 C568 0.930 . S
H561 C569 0.930 . S
H562 C572 0.930 . S
H563 C573 0.930 . S
C564 H558 0.930 . S
C564 C565 1.355 . S
C564 C566 1.415 . S
C565 C564 1.355 . S
C565 C567 1.419 . S
C566 C564 1.415 . S
C566 C571 1.425 . S
C566 C573 1.409 . S
C567 H559 0.930 . S
C567 C565 1.419 . S
C567 C568 1.362 . S
C568 H560 0.930 . S
C568 C567 1.362 . S
C568 C571 1.409 . S
C569 H561 0.930 . S
C569 C570 1.355 . S
C569 C571 1.415 . S
C570 C569 1.355 . S
C570 C572 1.419 . S
C571 C566 1.425 . S
C571 C568 1.409 . S
C571 C569 1.415 . S
C572 H562 0.930 . S
C572 C570 1.419 . S
C572 C573 1.362 . S
C573 H563 0.930 . S
C573 C566 1.409 . S
C573 C572 1.362 . S
H574 C580 0.930 . S
H575 C583 0.930 . S
H576 C584 0.930 . S
H577 C585 0.930 . S
H578 C588 0.930 . S
H579 C589 0.930 . S
C580 H574 0.930 . S
C580 C581 1.355 . S
C580 C582 1.415 . S
C581 C580 1.355 . S
C581 C583 1.419 . S
C582 C580 1.415 . S
C582 C587 1.425 . S
C582 C589 1.409 . S
C583 H575 0.930 . S
C583 C581 1.419 . S
C583 C584 1.362 . S
C584 H576 0.930 . S
C584 C583 1.362 . S
C584 C587 1.409 . S
C585 H577 0.930 . S
C585 C586 1.355 . S
C585 C587 1.415 . S
C586 C585 1.355 . S
C586 C588 1.419 . S
C587 C582 1.425 . S
C587 C584 1.409 . S
C587 C585 1.415 . S
C588 H578 0.930 . S
C588 C586 1.419 . S
C588 C589 1.362 . S
C589 H579 0.930 . S
C589 C582 1.409 . S
C589 C588 1.362 . S
H590 C596 0.930 . S
H591 C599 0.930 . S
H592 C600 0.930 . S
H593 C601 0.930 . S
H594 C604 0.930 . S
H595 C605 0.930 . S
C596 H590 0.930 . S
C596 C597 1.355 . S
C596 C598 1.415 . S
C597 C596 1.355 . S
C597 C599 1.419 . S
C598 C596 1.415 . S
C598 C603 1.425 . S
C598 C605 1.409 . S
C599 H591 0.930 . S
C599 C597 1.419 . S
C599 C600 1.362 . S
C600 H592 0.930 . S
C600 C599 1.362 . S
C600 C603 1.409 . S
C601 H593 0.930 . S
C601 C602 1.355 . S
C601 C603 1.415 . S
C602 C601 1.355 . S
C602 C604 1.419 . S
C603 C598 1.425 . S
C603 C600 1.409 . S
C603 C601 1.415 . S
C604 H594 0.930 . S
C604 C602 1.419 . S
C604 C605 1.362 . S
C605 H595 0.930 . S
C605 C598 1.409 . S
C605 C604 1.362 . S
C229 C13 2.078 . S
C234 C91 2.045 . S
C245 C27 1.431 . S
C250 N109 1.450 . S
C266 C137 2.040 . S
C261 C29 2.076 . S
C282 N155 1.448 . S
C277 C54 1.461 . S
C298 C183 2.022 . S
C293 C69 2.064 . S
C314 N201 1.415 . S
C309 C83 1.440 . S
C325 C15 2.054 . S
C330 C146 2.048 . S
C341 C41 1.450 . S
C346 N165 1.347 . S
C362 C192 2.068 . S
C357 C42 2.070 . S
C378 N211 1.329 . S
C373 C57 1.419 . S
C389 C71 2.064 . S
C394 C100 2.052 . S
C410 N119 1.303 . S
C405 C1 1.427 . S
C426 C169 1.844 . S
C421 C12 1.922 . S
C437 C26 1.260 . S
C442 N188 1.245 . S
C458 C215 1.877 . S
C453 C28 1.925 . S
C469 C55 1.263 . S
C474 N96 1.261 . S
C485 C68 1.923 . S
C490 C123 1.870 . S
C501 C82 1.290 . S
C506 N142 1.253 . S
C517 C14 1.941 . S
C522 C206 1.925 . S
C538 N86 1.149 . S
C533 C40 1.274 . S
C549 C43 1.939 . S
C554 C114 1.913 . S
C565 C56 1.264 . S
C570 N132 1.163 . S
C581 C70 1.933 . S
C586 C160 1.900 . S
C597 C0 1.273 . S
C602 N178 1.201 . S
