# Generated by pormake.
# Topology anh, (6,3)-cn, num edge types: 1
# Building blocks:
#     Node 0, Type 0, BuildingBlock: GEDQOX_clean_sbu_0, # of connection points: 6
#     Node 1, Type 0, BuildingBlock: GEDQOX_clean_sbu_0, # of connection points: 6
#     Node 2, Type 0, BuildingBlock: GEDQOX_clean_sbu_0, # of connection points: 6
#     Node 3, Type 1, BuildingBlock: OLANEW_clean_sbu_2, # of connection points: 3
#     Node 4, Type 1, BuildingBlock: OLANEW_clean_sbu_2, # of connection points: 3
#     Node 5, Type 1, BuildingBlock: OLANEW_clean_sbu_2, # of connection points: 3
#     Node 6, Type 1, BuildingBlock: OLANEW_clean_sbu_2, # of connection points: 3
#     Node 7, Type 1, BuildingBlock: OLANEW_clean_sbu_2, # of connection points: 3
#     Node 8, Type 1, BuildingBlock: OLANEW_clean_sbu_2, # of connection points: 3
#     Edge 9, Type (0, 1), BuildingBlock: MIFKUJ_clean_linker_0, # of connection points: 2
#     Edge 10, Type (0, 1), BuildingBlock: MIFKUJ_clean_linker_0, # of connection points: 2
#     Edge 11, Type (0, 1), BuildingBlock: MIFKUJ_clean_linker_0, # of connection points: 2
#     Edge 12, Type (0, 1), BuildingBlock: MIFKUJ_clean_linker_0, # of connection points: 2
#     Edge 13, Type (0, 1), BuildingBlock: MIFKUJ_clean_linker_0, # of connection points: 2
#     Edge 14, Type (0, 1), BuildingBlock: MIFKUJ_clean_linker_0, # of connection points: 2
#     Edge 15, Type (0, 1), BuildingBlock: MIFKUJ_clean_linker_0, # of connection points: 2
#     Edge 16, Type (0, 1), BuildingBlock: MIFKUJ_clean_linker_0, # of connection points: 2
#     Edge 17, Type (0, 1), BuildingBlock: MIFKUJ_clean_linker_0, # of connection points: 2
#     Edge 18, Type (0, 1), BuildingBlock: MIFKUJ_clean_linker_0, # of connection points: 2
#     Edge 19, Type (0, 1), BuildingBlock: MIFKUJ_clean_linker_0, # of connection points: 2
#     Edge 20, Type (0, 1), BuildingBlock: MIFKUJ_clean_linker_0, # of connection points: 2
#     Edge 21, Type (0, 1), BuildingBlock: MIFKUJ_clean_linker_0, # of connection points: 2
#     Edge 22, Type (0, 1), BuildingBlock: MIFKUJ_clean_linker_0, # of connection points: 2
#     Edge 23, Type (0, 1), BuildingBlock: MIFKUJ_clean_linker_0, # of connection points: 2
#     Edge 24, Type (0, 1), BuildingBlock: MIFKUJ_clean_linker_0, # of connection points: 2
#     Edge 25, Type (0, 1), BuildingBlock: MIFKUJ_clean_linker_0, # of connection points: 2
#     Edge 26, Type (0, 1), BuildingBlock: MIFKUJ_clean_linker_0, # of connection points: 2
# Relax obj value: 0.111
# Max RMSD: 0.156
# Mean RMSD: 0.111
data_MOF--net-anh--node1-GEDQOX_clean_sbu_0--node2-OLANEW_clean_sbu_2--edge1-MIFKUJ_clean_linker_0
_symmetry_space_group_name_H-M    P1
_symmetry_Int_Tables_number       1
_symmetry_cell_setting            triclinic
loop_
_symmetry_equiv_pos_as_xyz
'x, y, z'
_cell_length_a     46.358081
_cell_length_b     42.389078
_cell_length_c     65.493652
_cell_angle_alpha  92.824003
_cell_angle_beta   90.186752
_cell_angle_gamma 110.58563
loop_
_atom_site_label
_atom_site_type_symbol
_atom_site_fract_x
_atom_site_fract_y
_atom_site_fract_z
_atom_type_partial_charge
Nd0 Nd 0.04251 0.55103 0.13178 0.0
Nd1 Nd 0.01858 0.47642 0.14133 0.0
C2 C 0.07107 0.61073 0.11696 0.0
C3 C 0.10125 0.63745 0.12111 0.0
C4 C 0.11509 0.66027 0.10617 0.0
C5 C 0.14355 0.68608 0.11027 0.0
C6 C 0.15849 0.68954 0.12943 0.0
C7 C 0.14472 0.66618 0.14421 0.0
C8 C 0.11645 0.6403 0.14005 0.0
C9 C 0.04074 0.5398 0.17261 0.0
C10 C 0.09124 0.5088 0.13342 0.0
C11 C 0.99099 0.41712 0.15699 0.0
C12 C 0.95947 0.39428 0.16106 0.0
C13 C 0.93705 0.40654 0.16897 0.0
C14 C 0.90732 0.38425 0.17269 0.0
C15 C 0.89936 0.34928 0.16846 0.0
C16 C 0.92193 0.33725 0.16044 0.0
C17 C 0.95164 0.35951 0.15684 0.0
C18 C 0.02078 0.48995 0.10056 0.0
C19 C 0.96933 0.51681 0.13795 0.0
O20 O 0.07161 0.58254 0.10819 0.0
O21 O 0.05137 0.60581 0.13179 0.0
O22 O 0.03517 0.56484 0.16512 0.0
O23 O 0.04916 0.52316 0.15892 0.0
O24 O 0.08489 0.53437 0.12618 0.0
O25 O 0.07014 0.48464 0.14284 0.0
O26 O 1.00151 0.44559 0.16804 0.0
O27 O 0.99861 0.42048 0.13779 0.0
O28 O 0.02797 0.4653 0.10733 0.0
O29 O 0.01183 0.50473 0.11484 0.0
O30 O 0.97623 0.49296 0.14695 0.0
O31 O 0.99036 0.53969 0.1276 0.0
H32 H 0.10377 0.6583 0.09142 0.0
H33 H 0.15352 0.70378 0.09862 0.0
H34 H 0.15588 0.66782 0.15898 0.0
H35 H 0.10635 0.62262 0.1517 0.0
H36 H 0.9425 0.43331 0.17233 0.0
H37 H 0.89069 0.3944 0.17908 0.0
H38 H 0.91654 0.31062 0.15665 0.0
H39 H 0.96854 0.34955 0.15065 0.0
Nd40 Nd 0.47012 0.00421 0.51535 0.0
Nd41 Nd 0.53703 0.02446 0.50527 0.0
C42 C 0.41347 0.97476 0.52846 0.0
C43 C 0.38966 0.94124 0.52471 0.0
C44 C 0.36083 0.93374 0.53371 0.0
C45 C 0.3377 0.9023 0.52957 0.0
C46 C 0.34304 0.87782 0.51631 0.0
C47 C 0.37225 0.88536 0.50759 0.0
C48 C 0.39533 0.91682 0.51173 0.0
C49 C 0.48269 0.01327 0.47467 0.0
C50 C 0.50073 0.94538 0.50662 0.0
C51 C 0.5927 0.05168 0.4902 0.0
C52 C 0.61876 0.08422 0.49077 0.0
C53 C 0.61608 0.11309 0.4825 0.0
C54 C 0.64161 0.14307 0.48235 0.0
C55 C 0.67031 0.14482 0.4905 0.0
C56 C 0.67265 0.11606 0.49915 0.0
C57 C 0.64723 0.0861 0.49917 0.0
C58 C 0.52527 0.0145 0.54591 0.0
C59 C 0.50684 0.08334 0.51644 0.0
O60 O 0.43812 0.97562 0.53859 0.0
O61 O 0.41992 0.99385 0.51282 0.0
O62 O 0.46303 0.02373 0.48419 0.0
O63 O 0.49434 0.99805 0.48632 0.0
O64 O 0.47957 0.95433 0.51621 0.0
O65 O 0.52379 0.96785 0.49763 0.0
O66 O 0.56741 0.04968 0.48039 0.0
O67 O 0.58742 0.03552 0.50708 0.0
O68 O 0.54576 0.0057 0.53613 0.0
O69 O 0.51291 0.02964 0.53462 0.0
O70 O 0.52814 0.07518 0.50634 0.0
O71 O 0.48358 0.06006 0.52473 0.0
H72 H 0.35612 0.95229 0.54381 0.0
H73 H 0.31564 0.89715 0.53678 0.0
H74 H 0.37707 0.86729 0.49716 0.0
H75 H 0.41747 0.92226 0.50458 0.0
H76 H 0.59442 0.11246 0.47589 0.0
H77 H 0.63903 0.16458 0.47537 0.0
H78 H 0.6942 0.11663 0.50589 0.0
H79 H 0.6499 0.06422 0.50564 0.0
Nd80 Nd 0.46117 0.46648 0.84752 0.0
Nd81 Nd 0.53274 0.50233 0.86387 0.0
C82 C 0.40872 0.45121 0.82674 0.0
C83 C 0.39287 0.47148 0.81728 0.0
C84 C 0.40785 0.50634 0.81606 0.0
C85 C 0.3914 0.5267 0.81063 0.0
C86 C 0.3597 0.51243 0.80569 0.0
C87 C 0.34549 0.47697 0.80518 0.0
C88 C 0.36185 0.45675 0.81123 0.0
C89 C 0.47259 0.46591 0.88853 0.0
C90 C 0.49149 0.54963 0.85685 0.0
C91 C 0.58232 0.52155 0.88782 0.0
C92 C 0.61238 0.51729 0.88765 0.0
C93 C 0.63204 0.5279 0.90486 0.0
C94 C 0.66096 0.52449 0.90472 0.0
C95 C 0.67071 0.51045 0.88732 0.0
C96 C 0.6506 0.49937 0.87019 0.0
C97 C 0.62165 0.50273 0.87037 0.0
C98 C 0.52799 0.49702 0.82174 0.0
C99 C 0.50389 0.42042 0.84985 0.0
O100 O 0.43444 0.45166 0.8183 0.0
O101 O 0.41067 0.45417 0.84675 0.0
O102 O 0.45096 0.44159 0.87852 0.0
O103 O 0.4856 0.48974 0.87716 0.0
O104 O 0.46959 0.52304 0.84823 0.0
O105 O 0.5168 0.54802 0.86552 0.0
O106 O 0.55842 0.49411 0.89039 0.0
O107 O 0.57768 0.54035 0.87373 0.0
O108 O 0.55447 0.50977 0.8314 0.0
O109 O 0.50729 0.48788 0.83464 0.0
O110 O 0.5252 0.44533 0.8605 0.0
O111 O 0.47891 0.42342 0.84169 0.0
H112 H 0.432 0.51807 0.82012 0.0
H113 H 0.40336 0.55374 0.81142 0.0
H114 H 0.32143 0.46481 0.80079 0.0
H115 H 0.35002 0.42977 0.81182 0.0
H116 H 0.62509 0.53895 0.91837 0.0
H117 H 0.67565 0.53279 0.91828 0.0
H118 H 0.65749 0.4888 0.85647 0.0
H119 H 0.60662 0.49429 0.85696 0.0
O120 O 0.53458 0.05433 0.24815 0.0
Cd121 Cd 0.54069 0.0564 0.21108 0.0
O122 O 0.51452 0.99881 0.24859 0.0
Cd123 Cd 0.50225 0.98757 0.21606 0.0
O124 O 0.46425 0.95586 0.19575 0.0
C125 C 0.43799 0.94657 0.20402 0.0
O126 O 0.43614 0.95742 0.22294 0.0
C127 C 0.5253 0.02762 0.25805 0.0
C128 C 0.59781 0.1047 0.20209 0.0
O129 O 0.57345 0.11238 0.20304 0.0
O130 O 0.59512 0.07417 0.20515 0.0
O131 O 0.51037 0.49397 0.59198 0.0
Cd132 Cd 0.51389 0.48978 0.55476 0.0
O133 O 0.48837 0.53218 0.59761 0.0
Cd134 Cd 0.48842 0.55059 0.56689 0.0
O135 O 0.48938 0.59376 0.5492 0.0
C136 C 0.49729 0.62185 0.5595 0.0
O137 O 0.50445 0.62254 0.57899 0.0
C138 C 0.49922 0.51077 0.60419 0.0
C139 C 0.51642 0.42604 0.54367 0.0
O140 O 0.54085 0.45104 0.54893 0.0
O141 O 0.49083 0.43126 0.54315 0.0
O142 O 0.11823 0.68717 0.91488 0.0
Cd143 Cd 0.13197 0.71886 0.88399 0.0
O144 O 0.08891 0.64473 0.89512 0.0
Cd145 Cd 0.05141 0.59635 0.88914 0.0
O146 O 1.00375 0.56434 0.88186 0.0
C147 C 0.98689 0.54578 0.89504 0.0
O148 O 0.99915 0.54393 0.91285 0.0
C149 C 0.0994 0.65696 0.91288 0.0
C150 C 0.17171 0.69652 0.8606 0.0
O151 O 0.18226 0.72291 0.87268 0.0
O152 O 0.14247 0.6811 0.8594 0.0
O153 O 0.04464 0.51256 0.40107 0.0
Cd154 Cd 0.04412 0.51612 0.43845 0.0
O155 O 0.99427 0.48959 0.39648 0.0
Cd156 Cd 0.9812 0.48177 0.42834 0.0
O157 O 0.94552 0.45123 0.44821 0.0
C158 C 0.94356 0.42084 0.45001 0.0
O159 O 0.96437 0.41043 0.44131 0.0
C160 C 0.02109 0.50148 0.38917 0.0
C161 C 0.09317 0.57261 0.45383 0.0
O162 O 0.09635 0.54393 0.4507 0.0
O163 O 0.06673 0.57448 0.4499 0.0
O164 O 0.45123 0.92837 0.76342 0.0
Cd165 Cd 0.44158 0.91749 0.79954 0.0
O166 O 0.4825 0.97863 0.7737 0.0
Cd167 Cd 0.51095 0.03173 0.7713 0.0
O168 O 0.525 0.08578 0.77895 0.0
C169 C 0.50331 0.09756 0.77924 0.0
O170 O 0.47529 0.07719 0.77407 0.0
C171 C 0.46967 0.95731 0.75911 0.0
C172 C 0.44922 0.85813 0.8104 0.0
O173 O 0.42292 0.85809 0.80425 0.0
O174 O 0.47193 0.88625 0.8113 0.0
O175 O 0.55807 0.49766 0.10881 0.0
Cd176 Cd 0.58711 0.49252 0.13982 0.0
O177 O 0.51157 0.49318 0.1198 0.0
Cd178 Cd 0.46286 0.4921 0.11721 0.0
O179 O 0.41413 0.49039 0.12049 0.0
C180 C 0.40206 0.50641 0.10925 0.0
O181 O 0.4188 0.52451 0.09493 0.0
C182 C 0.53054 0.49654 0.10524 0.0
C183 C 0.65015 0.499 0.13619 0.0
O184 O 0.62835 0.47121 0.13105 0.0
O185 O 0.64241 0.52403 0.14238 0.0
H186 H 0.13638 0.54369 0.10746 0.0
H187 H 0.18807 0.5411 0.1035 0.0
H188 H 0.16982 0.46881 0.15021 0.0
H189 H 0.11796 0.47093 0.15407 0.0
H190 H 0.22715 0.51853 0.15564 0.0
H191 H 0.16814 0.44426 0.10176 0.0
H192 H 0.13441 0.42565 0.07106 0.0
H193 H 0.20218 0.49768 0.03608 0.0
H194 H 0.23581 0.51773 0.06676 0.0
H195 H 0.36019 0.47253 0.1377 0.0
H196 H 0.3073 0.47124 0.14223 0.0
H197 H 0.31774 0.53654 0.0922 0.0
H198 H 0.37024 0.53753 0.08742 0.0
H199 H 0.2634 0.48785 0.089 0.0
H200 H 0.32023 0.56535 0.1434 0.0
H201 H 0.35449 0.58368 0.17392 0.0
H202 H 0.29148 0.50458 0.20733 0.0
H203 H 0.25702 0.4855 0.1769 0.0
C204 C 0.14332 0.52723 0.11691 0.0
C205 C 0.12287 0.50749 0.13108 0.0
C206 C 0.17292 0.52568 0.11457 0.0
C207 C 0.18296 0.50463 0.12649 0.0
C208 C 0.16272 0.48525 0.14083 0.0
C209 C 0.13297 0.4864 0.14296 0.0
C210 C 0.21454 0.50294 0.12409 0.0
C211 C 0.23491 0.51141 0.1411 0.0
C212 C 0.22504 0.49421 0.10506 0.0
C213 C 0.20437 0.48287 0.0867 0.0
C214 C 0.17565 0.4566 0.08763 0.0
C215 C 0.15654 0.44575 0.0702 0.0
C216 C 0.16608 0.46057 0.05165 0.0
C217 C 0.19476 0.48629 0.05048 0.0
C218 C 0.21379 0.49753 0.06791 0.0
C219 C 0.35124 0.48662 0.12766 0.0
C220 C 0.36969 0.50519 0.11221 0.0
C221 C 0.32096 0.48601 0.13033 0.0
C222 C 0.30838 0.50409 0.11771 0.0
C223 C 0.3267 0.52234 0.10217 0.0
C224 C 0.35689 0.52296 0.0995 0.0
C225 C 0.27618 0.50396 0.12045 0.0
C226 C 0.25565 0.49505 0.10352 0.0
C227 C 0.26554 0.51237 0.13951 0.0
C228 C 0.28622 0.52378 0.15781 0.0
C229 C 0.3138 0.5517 0.1572 0.0
C230 C 0.33323 0.56225 0.1745 0.0
C231 C 0.32521 0.54524 0.19254 0.0
C232 C 0.29769 0.51769 0.19334 0.0
C233 C 0.27819 0.50701 0.17608 0.0
H234 H 0.34028 0.55346 0.20591 0.0
H235 H 0.15129 0.45206 0.03815 0.0
H236 H 0.67384 0.21085 0.49609 0.0
H237 H 0.71938 0.26189 0.49333 0.0
H238 H 0.77483 0.20061 0.48006 0.0
H239 H 0.72952 0.14965 0.48231 0.0
H240 H 0.80324 0.25317 0.50805 0.0
H241 H 0.75059 0.23573 0.44222 0.0
H242 H 0.70623 0.22823 0.41917 0.0
H243 H 0.70405 0.32466 0.44077 0.0
H244 H 0.74817 0.3325 0.46417 0.0
H245 H 0.93333 0.35479 0.45666 0.0
H246 H 0.88626 0.31275 0.4684 0.0
H247 H 0.84479 0.38896 0.47626 0.0
H248 H 0.89188 0.43131 0.46426 0.0
H249 H 0.80712 0.33412 0.45501 0.0
H250 H 0.86397 0.35489 0.51777 0.0
H251 H 0.90858 0.36265 0.54062 0.0
H252 H 0.90308 0.26101 0.52531 0.0
H253 H 0.85869 0.25276 0.50213 0.0
C254 C 0.69568 0.20822 0.49245 0.0
C255 C 0.69796 0.17607 0.48943 0.0
C256 C 0.7217 0.23742 0.49098 0.0
C257 C 0.75046 0.23501 0.48645 0.0
C258 C 0.7529 0.20304 0.48373 0.0
C259 C 0.72694 0.1739 0.48509 0.0
C260 C 0.77802 0.26564 0.48398 0.0
C261 C 0.80419 0.27081 0.49639 0.0
C262 C 0.77889 0.28918 0.4692 0.0
C263 C 0.75241 0.28451 0.45512 0.0
C264 C 0.74047 0.25519 0.44219 0.0
C265 C 0.71541 0.25091 0.42904 0.0
C266 C 0.70226 0.2759 0.42856 0.0
C267 C 0.71421 0.30528 0.44119 0.0
C268 C 0.73925 0.30967 0.4544 0.0
C269 C 0.9144 0.36279 0.46114 0.0
C270 C 0.91636 0.39641 0.45946 0.0
C271 C 0.8875 0.33871 0.46795 0.0
C272 C 0.86204 0.34773 0.47335 0.0
C273 C 0.86418 0.38146 0.4722 0.0
C274 C 0.89115 0.40564 0.46542 0.0
C275 C 0.83266 0.32134 0.4788 0.0
C276 C 0.8061 0.31689 0.46693 0.0
C277 C 0.83144 0.29851 0.49412 0.0
C278 C 0.8581 0.30329 0.50809 0.0
C279 C 0.87241 0.33426 0.51915 0.0
C280 C 0.89763 0.33874 0.53219 0.0
C281 C 0.90869 0.31236 0.53439 0.0
C282 C 0.89449 0.28142 0.52358 0.0
C283 C 0.86927 0.27681 0.51051 0.0
H284 H 0.92822 0.31588 0.54449 0.0
H285 H 0.68287 0.27254 0.41836 0.0
H286 H 0.535 0.61355 0.86118 0.0
H287 H 0.52718 0.66685 0.85566 0.0
H288 H 0.42993 0.61261 0.84508 0.0
H289 H 0.43747 0.55976 0.85062 0.0
H290 H 0.45251 0.65374 0.81553 0.0
H291 H 0.4571 0.66236 0.88868 0.0
H292 H 0.47931 0.66276 0.92298 0.0
H293 H 0.55895 0.74771 0.90898 0.0
H294 H 0.53739 0.74754 0.87447 0.0
H295 H 0.40513 0.79523 0.81141 0.0
H296 H 0.4118 0.74337 0.82117 0.0
H297 H 0.50888 0.79771 0.83244 0.0
H298 H 0.50229 0.84985 0.82297 0.0
H299 H 0.48578 0.75637 0.86221 0.0
H300 H 0.48062 0.74688 0.7886 0.0
H301 H 0.45753 0.74602 0.75451 0.0
H302 H 0.37811 0.66169 0.76959 0.0
H303 H 0.40061 0.66219 0.80386 0.0
C304 C 0.51191 0.61313 0.85803 0.0
C305 C 0.48696 0.58241 0.85609 0.0
C306 C 0.50745 0.64356 0.85488 0.0
C307 C 0.47794 0.64371 0.84996 0.0
C308 C 0.45291 0.61315 0.84876 0.0
C309 C 0.45733 0.58289 0.85187 0.0
C310 C 0.47321 0.67528 0.84485 0.0
C311 C 0.45945 0.67607 0.82585 0.0
C312 C 0.48275 0.70455 0.85816 0.0
C313 C 0.49576 0.70473 0.87891 0.0
C314 C 0.47946 0.68096 0.89284 0.0
C315 C 0.49191 0.68118 0.91234 0.0
C316 C 0.52056 0.70519 0.91814 0.0
C317 C 0.53678 0.7291 0.90446 0.0
C318 C 0.52444 0.72897 0.88494 0.0
C319 C 0.42791 0.79617 0.81598 0.0
C320 C 0.45321 0.82665 0.81634 0.0
C321 C 0.43171 0.76645 0.82153 0.0
C322 C 0.46092 0.76654 0.82739 0.0
C323 C 0.48613 0.79702 0.82799 0.0
C324 C 0.48234 0.82679 0.82249 0.0
C325 C 0.46529 0.7349 0.83282 0.0
C326 C 0.4789 0.73406 0.85189 0.0
C327 C 0.45554 0.70548 0.81959 0.0
C328 C 0.44211 0.70491 0.79891 0.0
C329 C 0.45812 0.72832 0.78471 0.0
C330 C 0.44517 0.72784 0.76534 0.0
C331 C 0.41632 0.70389 0.75993 0.0
C332 C 0.40041 0.68026 0.77384 0.0
C333 C 0.41326 0.68063 0.79324 0.0
H334 H 0.40632 0.70357 0.74493 0.0
H335 H 0.53016 0.70532 0.93324 0.0
H336 H 0.94071 0.5448 0.11126 0.0
H337 H 0.88706 0.54163 0.11094 0.0
H338 H 0.87115 0.48523 0.16547 0.0
H339 H 0.92436 0.48673 0.1651 0.0
H340 H 0.82405 0.45919 0.14371 0.0
H341 H 0.87961 0.57407 0.16396 0.0
H342 H 0.91896 0.63086 0.16201 0.0
H343 H 0.87988 0.64258 0.1046 0.0
H344 H 0.84051 0.58566 0.10608 0.0
H345 H 0.69976 0.54713 0.15567 0.0
H346 H 0.75328 0.54985 0.15679 0.0
H347 H 0.72926 0.46069 0.11619 0.0
H348 H 0.67538 0.45694 0.11595 0.0
H349 H 0.7965 0.56012 0.13284 0.0
H350 H 0.77669 0.41669 0.12228 0.0
H351 H 0.73854 0.36198 0.13104 0.0
H352 H 0.7071 0.411 0.18051 0.0
H353 H 0.74534 0.4659 0.17223 0.0
C354 C 0.92582 0.53186 0.12325 0.0
C355 C 0.93697 0.51621 0.13828 0.0
C356 C 0.89504 0.5302 0.12313 0.0
C357 C 0.87477 0.51374 0.13841 0.0
C358 C 0.886 0.4981 0.15345 0.0
C359 C 0.91659 0.49911 0.1533 0.0
C360 C 0.84188 0.51236 0.13857 0.0
C361 C 0.81813 0.48134 0.14133 0.0
C362 C 0.83372 0.54123 0.13599 0.0
C363 C 0.85731 0.57548 0.13504 0.0
C364 C 0.87954 0.58867 0.15085 0.0
C365 C 0.90183 0.62089 0.14984 0.0
C366 C 0.90197 0.64028 0.13317 0.0
C367 C 0.87977 0.62751 0.11749 0.0
C368 C 0.85745 0.59529 0.11842 0.0
C369 C 0.70586 0.52807 0.14698 0.0
C370 C 0.68314 0.50171 0.1358 0.0
C371 C 0.73661 0.52967 0.14759 0.0
C372 C 0.74566 0.50519 0.13685 0.0
C373 C 0.72307 0.47942 0.12513 0.0
C374 C 0.69218 0.47744 0.12485 0.0
C375 C 0.77862 0.50689 0.13784 0.0
C376 C 0.80239 0.53795 0.13522 0.0
C377 C 0.78686 0.47836 0.14145 0.0
C378 C 0.76363 0.44547 0.14646 0.0
C379 C 0.76166 0.41578 0.13504 0.0
C380 C 0.74003 0.38473 0.13993 0.0
C381 C 0.72033 0.38303 0.15627 0.0
C382 C 0.72228 0.41237 0.1678 0.0
C383 C 0.7439 0.44346 0.163 0.0
H384 H 0.70362 0.35897 0.16004 0.0
H385 H 0.91924 0.66522 0.13242 0.0
H386 H 0.28209 0.8665 0.50856 0.0
H387 H 0.24101 0.81285 0.49965 0.0
H388 H 0.30599 0.76115 0.50285 0.0
H389 H 0.34725 0.81483 0.51214 0.0
H390 H 0.26889 0.7407 0.46878 0.0
H391 H 0.25538 0.75461 0.54052 0.0
H392 H 0.2493 0.78452 0.57254 0.0
H393 H 0.16577 0.79207 0.54859 0.0
H394 H 0.17159 0.76262 0.51629 0.0
H395 H 0.15231 0.57704 0.46263 0.0
H396 H 0.19566 0.62721 0.47448 0.0
H397 H 0.13684 0.68657 0.4739 0.0
H398 H 0.09331 0.63649 0.46229 0.0
H399 H 0.17251 0.70108 0.50806 0.0
H400 H 0.18751 0.69003 0.43577 0.0
H401 H 0.19379 0.66081 0.40352 0.0
H402 H 0.27463 0.64826 0.42844 0.0
H403 H 0.26858 0.67702 0.46097 0.0
C404 C 0.28761 0.84369 0.50768 0.0
C405 C 0.31797 0.84497 0.51117 0.0
C406 C 0.26409 0.81302 0.50251 0.0
C407 C 0.27034 0.78292 0.5008 0.0
C408 C 0.30064 0.78407 0.5041 0.0
C409 C 0.32421 0.81478 0.50932 0.0
C410 C 0.24521 0.75043 0.49524 0.0
C411 C 0.24803 0.73171 0.47757 0.0
C412 C 0.21774 0.73906 0.50647 0.0
C413 C 0.21407 0.75665 0.52591 0.0
C414 C 0.23584 0.76287 0.54202 0.0
C415 C 0.23242 0.77971 0.56023 0.0
C416 C 0.2072 0.79026 0.56258 0.0
C417 C 0.18531 0.78391 0.54674 0.0
C418 C 0.18864 0.76711 0.52848 0.0
C419 C 0.14857 0.60075 0.46507 0.0
C420 C 0.11935 0.60278 0.46145 0.0
C421 C 0.17342 0.62944 0.47176 0.0
C422 C 0.16959 0.66075 0.47487 0.0
C423 C 0.14034 0.6627 0.47159 0.0
C424 C 0.11549 0.63405 0.46489 0.0
C425 C 0.19603 0.69154 0.48147 0.0
C426 C 0.19345 0.70993 0.49935 0.0
C427 C 0.22371 0.70261 0.47042 0.0
C428 C 0.22739 0.68532 0.45088 0.0
C429 C 0.20647 0.68077 0.43444 0.0
C430 C 0.21001 0.66435 0.41609 0.0
C431 C 0.23453 0.65259 0.41395 0.0
C432 C 0.25561 0.65732 0.43014 0.0
C433 C 0.25215 0.6737 0.44852 0.0
H434 H 0.23724 0.63989 0.39974 0.0
H435 H 0.2046 0.80329 0.57669 0.0
H436 H 0.55712 0.40644 0.85419 0.0
H437 H 0.56421 0.3526 0.84564 0.0
H438 H 0.46779 0.30715 0.8288 0.0
H439 H 0.46048 0.36029 0.83732 0.0
H440 H 0.48771 0.26607 0.85151 0.0
H441 H 0.52089 0.3354 0.79292 0.0
H442 H 0.55337 0.38619 0.77609 0.0
H443 H 0.63458 0.36644 0.7934 0.0
H444 H 0.60255 0.31576 0.81061 0.0
H445 H 0.46106 0.12864 0.78274 0.0
H446 H 0.46859 0.18473 0.79782 0.0
H447 H 0.56497 0.20227 0.80846 0.0
H448 H 0.55769 0.14585 0.79321 0.0
H449 H 0.55435 0.25829 0.79374 0.0
H450 H 0.51982 0.18362 0.84775 0.0
H451 H 0.48684 0.13274 0.86424 0.0
H452 H 0.40828 0.16247 0.85587 0.0
H453 H 0.44069 0.2133 0.83904 0.0
C454 C 0.5374 0.38484 0.84889 0.0
C455 C 0.50828 0.38769 0.84632 0.0
C456 C 0.54152 0.35419 0.84393 0.0
C457 C 0.51655 0.32601 0.83646 0.0
C458 C 0.48735 0.32859 0.83455 0.0
C459 C 0.48327 0.35909 0.83934 0.0
C460 C 0.52047 0.29388 0.82983 0.0
C461 C 0.50228 0.26434 0.83889 0.0
C462 C 0.54019 0.29182 0.81376 0.0
C463 C 0.55938 0.32207 0.80326 0.0
C464 C 0.54569 0.34205 0.79328 0.0
C465 C 0.56401 0.37079 0.78364 0.0
C466 C 0.59602 0.3796 0.78373 0.0
C467 C 0.60978 0.35963 0.79339 0.0
C468 C 0.59156 0.3309 0.80308 0.0
C469 C 0.48394 0.1444 0.78815 0.0
C470 C 0.50872 0.13264 0.78693 0.0
C471 C 0.48817 0.17644 0.79683 0.0
C472 C 0.51722 0.19738 0.80457 0.0
C473 C 0.54234 0.18636 0.80269 0.0
C474 C 0.53811 0.15414 0.794 0.0
C475 C 0.52072 0.2304 0.81497 0.0
C476 C 0.54032 0.26005 0.80666 0.0
C477 C 0.50228 0.23263 0.83176 0.0
C478 C 0.48268 0.20219 0.84202 0.0
C479 C 0.49547 0.1792 0.8493 0.0
C480 C 0.47688 0.15038 0.85873 0.0
C481 C 0.44548 0.14435 0.86108 0.0
C482 C 0.43261 0.16718 0.85404 0.0
C483 C 0.4511 0.19603 0.84458 0.0
H484 H 0.43112 0.12202 0.86838 0.0
H485 H 0.61017 0.40186 0.77627 0.0
H486 H 0.53802 0.91576 0.48731 0.0
H487 H 0.53667 0.85781 0.48982 0.0
H488 H 0.45891 0.83712 0.52962 0.0
H489 H 0.45949 0.89432 0.52668 0.0
H490 H 0.54656 0.82821 0.52109 0.0
H491 H 0.41455 0.75571 0.52733 0.0
H492 H 0.3659 0.75787 0.51323 0.0
H493 H 0.4133 0.80637 0.46076 0.0
H494 H 0.46213 0.80408 0.47438 0.0
H495 H 0.51496 0.68507 0.57778 0.0
H496 H 0.51566 0.73694 0.56304 0.0
H497 H 0.48213 0.68251 0.50535 0.0
H498 H 0.48104 0.62998 0.52014 0.0
H499 H 0.45217 0.72573 0.51531 0.0
H500 H 0.55649 0.73296 0.51026 0.0
H501 H 0.6062 0.73053 0.52204 0.0
H502 H 0.61597 0.81131 0.5668 0.0
H503 H 0.56609 0.81392 0.55548 0.0
C504 C 0.52037 0.89871 0.49636 0.0
C505 C 0.4989 0.90975 0.5068 0.0
C506 C 0.51966 0.86559 0.49782 0.0
C507 C 0.49749 0.84286 0.50974 0.0
C508 C 0.47581 0.85379 0.51994 0.0
C509 C 0.47633 0.88672 0.51835 0.0
C510 C 0.49825 0.80856 0.51276 0.0
C511 C 0.52595 0.80581 0.51964 0.0
C512 C 0.47153 0.77906 0.51049 0.0
C513 C 0.44208 0.77989 0.50196 0.0
C514 C 0.41457 0.76662 0.51271 0.0
C515 C 0.38696 0.76792 0.50482 0.0
C516 C 0.38653 0.78229 0.48613 0.0
C517 C 0.41368 0.79532 0.47526 0.0
C518 C 0.44134 0.79406 0.48307 0.0
C519 C 0.50779 0.68399 0.56192 0.0
C520 C 0.49805 0.65331 0.55012 0.0
C521 C 0.50832 0.71378 0.55349 0.0
C522 C 0.49932 0.71375 0.53301 0.0
C523 C 0.48928 0.68315 0.52117 0.0
C524 C 0.48877 0.65319 0.52962 0.0
C525 C 0.50019 0.74581 0.52429 0.0
C526 C 0.47283 0.74812 0.51642 0.0
C527 C 0.52734 0.77484 0.52526 0.0
C528 C 0.55744 0.77349 0.53209 0.0
C529 C 0.56913 0.75006 0.5227 0.0
C530 C 0.59736 0.74867 0.52929 0.0
C531 C 0.61421 0.77072 0.54518 0.0
C532 C 0.60289 0.79425 0.55449 0.0
C533 C 0.57466 0.79572 0.54798 0.0
H534 H 0.63605 0.7696 0.55026 0.0
H535 H 0.36514 0.78329 0.48005 0.0
H536 H 0.7246 0.55746 0.90237 0.0
H537 H 0.77628 0.55493 0.90093 0.0
H538 H 0.74011 0.45708 0.86906 0.0
H539 H 0.68793 0.45885 0.87112 0.0
H540 H 0.78306 0.45852 0.89714 0.0
H541 H 0.77608 0.52542 0.84264 0.0
H542 H 0.76476 0.57067 0.82583 0.0
H543 H 0.83252 0.64534 0.8644 0.0
H544 H 0.84394 0.60051 0.88166 0.0
H545 H 0.95491 0.53944 0.85904 0.0
H546 H 0.89921 0.52293 0.8542 0.0
H547 H 0.88689 0.50403 0.91833 0.0
H548 H 0.94238 0.51894 0.92303 0.0
H549 H 0.86594 0.55443 0.86856 0.0
H550 H 0.81536 0.45207 0.92804 0.0
H551 H 0.82571 0.40354 0.94129 0.0
H552 H 0.87197 0.39329 0.88603 0.0
H553 H 0.86154 0.44145 0.87233 0.0
C554 C 0.72749 0.53515 0.89531 0.0
C555 C 0.70208 0.50838 0.88683 0.0
C556 C 0.75713 0.53389 0.89432 0.0
C557 C 0.76212 0.50603 0.88463 0.0
C558 C 0.73679 0.47889 0.87653 0.0
C559 C 0.70704 0.48009 0.87755 0.0
C560 C 0.79394 0.50577 0.88273 0.0
C561 C 0.80123 0.47938 0.89083 0.0
C562 C 0.81741 0.53245 0.8739 0.0
C563 C 0.8107 0.55957 0.86354 0.0
C564 C 0.78841 0.55148 0.84764 0.0
C565 C 0.782 0.57706 0.83802 0.0
C566 C 0.79787 0.61086 0.84407 0.0
C567 C 0.82024 0.61915 0.85973 0.0
C568 C 0.82671 0.59366 0.86943 0.0
C569 C 0.94028 0.53105 0.87202 0.0
C570 C 0.95311 0.5309 0.89148 0.0
C571 C 0.90841 0.52169 0.86924 0.0
C572 C 0.88871 0.51226 0.88588 0.0
C573 C 0.90142 0.51064 0.90514 0.0
C574 C 0.93327 0.51947 0.90786 0.0
C575 C 0.85551 0.50764 0.88356 0.0
C576 C 0.84788 0.53326 0.87469 0.0
C577 C 0.83169 0.47976 0.89117 0.0
C578 C 0.83786 0.45057 0.89923 0.0
C579 C 0.82761 0.43937 0.91867 0.0
C580 C 0.83353 0.41194 0.92628 0.0
C581 C 0.84956 0.3954 0.91453 0.0
C582 C 0.85965 0.4062 0.89514 0.0
C583 C 0.85378 0.4336 0.88746 0.0
H584 H 0.85412 0.37418 0.92045 0.0
H585 H 0.79288 0.63063 0.83659 0.0
H586 H 0.17424 0.73015 0.16434 0.0
H587 H 0.22285 0.77602 0.17273 0.0
H588 H 0.25806 0.75909 0.11393 0.0
H589 H 0.20938 0.71268 0.1055 0.0
H590 H 0.30001 0.7666 0.14582 0.0
H591 H 0.23756 0.82588 0.12133 0.0
H592 H 0.19116 0.84129 0.11884 0.0
H593 H 0.20237 0.87579 0.18212 0.0
H594 H 0.2486 0.86012 0.18507 0.0
H595 H 0.43322 0.91583 0.1655 0.0
H596 H 0.38697 0.87461 0.14872 0.0
H597 H 0.33374 0.8819 0.20148 0.0
H598 H 0.37943 0.92322 0.21811 0.0
H599 H 0.30237 0.88134 0.16743 0.0
H600 H 0.36031 0.81597 0.19306 0.0
H601 H 0.40583 0.79914 0.19645 0.0
H602 H 0.40247 0.77531 0.13179 0.0
H603 H 0.35713 0.79242 0.12799 0.0
C604 C 0.19236 0.73606 0.15322 0.0
C605 C 0.18798 0.71776 0.13426 0.0
C606 C 0.22004 0.76247 0.15797 0.0
C607 C 0.24398 0.77119 0.14388 0.0
C608 C 0.23983 0.75285 0.12498 0.0
C609 C 0.21198 0.72652 0.12014 0.0
C610 C 0.27341 0.79911 0.14922 0.0
C611 C 0.30069 0.79189 0.15015 0.0
C612 C 0.27417 0.83194 0.15518 0.0
C613 C 0.24644 0.84158 0.15345 0.0
C614 C 0.23001 0.83651 0.13476 0.0
C615 C 0.20375 0.84534 0.13326 0.0
C616 C 0.19379 0.85946 0.15032 0.0
C617 C 0.21011 0.86484 0.16891 0.0
C618 C 0.23637 0.85603 0.1705 0.0
C619 C 0.41161 0.90878 0.17346 0.0
C620 C 0.41008 0.92274 0.19319 0.0
C621 C 0.38522 0.88511 0.16389 0.0
C622 C 0.3569 0.87488 0.17393 0.0
C623 C 0.35527 0.88938 0.19341 0.0
C624 C 0.38152 0.91297 0.20294 0.0
C625 C 0.32889 0.84866 0.16452 0.0
C626 C 0.30184 0.85621 0.16281 0.0
C627 C 0.32833 0.8161 0.15794 0.0
C628 C 0.3556 0.80588 0.16021 0.0
C629 C 0.36945 0.80742 0.17954 0.0
C630 C 0.39518 0.79778 0.18155 0.0
C631 C 0.4071 0.78627 0.16434 0.0
C632 C 0.39326 0.7843 0.1451 0.0
C633 C 0.36754 0.79396 0.14301 0.0
H634 H 0.42702 0.7788 0.16592 0.0
H635 H 0.17345 0.86627 0.14913 0.0
H636 H 0.55055 0.13838 0.50078 0.0
H637 H 0.55441 0.19746 0.50475 0.0
H638 H 0.47254 0.16863 0.54094 0.0
H639 H 0.46864 0.10966 0.53725 0.0
H640 H 0.51498 0.22884 0.49344 0.0
H641 H 0.47974 0.23165 0.57751 0.0
H642 H 0.4807 0.20263 0.6091 0.0
H643 H 0.55953 0.18052 0.58813 0.0
H644 H 0.55934 0.20987 0.55654 0.0
H645 H 0.47207 0.37117 0.5248 0.0
H646 H 0.47329 0.31408 0.51887 0.0
H647 H 0.56403 0.34632 0.54688 0.0
H648 H 0.56325 0.40355 0.55255 0.0
H649 H 0.52103 0.28608 0.56211 0.0
H650 H 0.56021 0.33384 0.49829 0.0
H651 H 0.55919 0.36314 0.46684 0.0
H652 H 0.47434 0.28498 0.44752 0.0
H653 H 0.47463 0.25545 0.47901 0.0
C654 C 0.53339 0.14458 0.50963 0.0
C655 C 0.50936 0.11923 0.51878 0.0
C656 C 0.53557 0.17838 0.51181 0.0
C657 C 0.51394 0.18753 0.52329 0.0
C658 C 0.48975 0.16224 0.53225 0.0
C659 C 0.48752 0.12848 0.53007 0.0
C660 C 0.51663 0.22351 0.52593 0.0
C661 C 0.51634 0.24134 0.50846 0.0
C662 C 0.51855 0.23994 0.54552 0.0
C663 C 0.51934 0.22272 0.56459 0.0
C664 C 0.49737 0.22074 0.57969 0.0
C665 C 0.49777 0.20422 0.59758 0.0
C666 C 0.52011 0.18968 0.60058 0.0
C667 C 0.54218 0.19172 0.58574 0.0
C668 C 0.54193 0.20828 0.56782 0.0
C669 C 0.49238 0.36617 0.52956 0.0
C670 C 0.51758 0.39189 0.53913 0.0
C671 C 0.49305 0.33357 0.52613 0.0
C672 C 0.51877 0.32603 0.53242 0.0
C673 C 0.54397 0.35165 0.54191 0.0
C674 C 0.54352 0.38436 0.54506 0.0
C675 C 0.519 0.29116 0.52965 0.0
C676 C 0.51974 0.27354 0.5471 0.0
C677 C 0.51747 0.27495 0.51007 0.0
C678 C 0.5173 0.2926 0.4911 0.0
C679 C 0.54119 0.32305 0.48742 0.0
C680 C 0.54078 0.33967 0.46957 0.0
C681 C 0.51668 0.32598 0.45521 0.0
C682 C 0.49298 0.29558 0.45866 0.0
C683 C 0.49327 0.27888 0.4765 0.0
H684 H 0.5164 0.33888 0.4414 0.0
H685 H 0.5203 0.17692 0.61445 0.0
H686 H 0.37746 0.57588 0.79004 0.0
H687 H 0.34931 0.61506 0.79199 0.0
H688 H 0.2714 0.53836 0.81673 0.0
H689 H 0.29962 0.49985 0.81633 0.0
H690 H 0.25819 0.57985 0.78494 0.0
H691 H 0.3195 0.58711 0.84767 0.0
H692 H 0.36873 0.59951 0.86647 0.0
H693 H 0.39998 0.70104 0.8471 0.0
H694 H 0.35144 0.68888 0.82737 0.0
H695 H 0.15959 0.63235 0.84527 0.0
H696 H 0.19504 0.60908 0.82857 0.0
H697 H 0.26643 0.70772 0.83223 0.0
H698 H 0.23127 0.73073 0.85017 0.0
H699 H 0.29071 0.6666 0.8423 0.0
H700 H 0.2295 0.66608 0.78486 0.0
H701 H 0.18262 0.65733 0.76408 0.0
H702 H 0.15429 0.55037 0.77015 0.0
H703 H 0.20076 0.55847 0.79122 0.0
C704 C 0.35436 0.56721 0.79594 0.0
C705 C 0.34111 0.53455 0.80325 0.0
C706 C 0.33825 0.58962 0.7968 0.0
C707 C 0.30844 0.57953 0.80455 0.0
C708 C 0.29438 0.54645 0.81056 0.0
C709 C 0.31061 0.52432 0.81016 0.0
C710 C 0.29256 0.60386 0.80836 0.0
C711 C 0.26521 0.59897 0.7974 0.0
C712 C 0.3027 0.62975 0.82401 0.0
C713 C 0.33201 0.63687 0.83572 0.0
C714 C 0.33707 0.6119 0.84707 0.0
C715 C 0.36486 0.61891 0.85791 0.0
C716 C 0.38755 0.651 0.85784 0.0
C717 C 0.38248 0.67615 0.84695 0.0
C718 C 0.35488 0.66917 0.83589 0.0
C719 C 0.18273 0.64917 0.84232 0.0
C720 C 0.19267 0.68334 0.84899 0.0
C721 C 0.20298 0.6359 0.83256 0.0
C722 C 0.23334 0.65673 0.82864 0.0
C723 C 0.24313 0.69111 0.83498 0.0
C724 C 0.22304 0.70425 0.8452 0.0
C725 C 0.25524 0.64177 0.81944 0.0
C726 C 0.28386 0.64835 0.82938 0.0
C727 C 0.24667 0.61808 0.80245 0.0
C728 C 0.21863 0.61293 0.78971 0.0
C729 C 0.2132 0.6407 0.78187 0.0
C730 C 0.18669 0.63585 0.77003 0.0
C731 C 0.16548 0.60332 0.76582 0.0
C732 C 0.17075 0.57556 0.77341 0.0
C733 C 0.19721 0.58026 0.78528 0.0
H734 H 0.14497 0.59963 0.75665 0.0
H735 H 0.40897 0.65645 0.86631 0.0
H736 H 0.88274 0.28625 0.1835 0.0
H737 H 0.83086 0.24606 0.18825 0.0
H738 H 0.79214 0.31781 0.16729 0.0
H739 H 0.84404 0.35803 0.16204 0.0
H740 H 0.76371 0.28669 0.20178 0.0
H741 H 0.79142 0.25372 0.1358 0.0
H742 H 0.82443 0.23772 0.111 0.0
H743 H 0.81764 0.15134 0.14492 0.0
H744 H 0.78494 0.16711 0.17011 0.0
H745 H 0.61017 0.16944 0.19079 0.0
H746 H 0.66047 0.21189 0.18442 0.0
H747 H 0.70461 0.14095 0.19814 0.0
H748 H 0.65435 0.09813 0.20395 0.0
H749 H 0.72972 0.17323 0.16609 0.0
H750 H 0.70409 0.20667 0.23276 0.0
H751 H 0.67204 0.2227 0.2583 0.0
H752 H 0.67574 0.30782 0.22407 0.0
H753 H 0.70749 0.29203 0.19816 0.0
C754 C 0.86325 0.29345 0.17969 0.0
C755 C 0.86767 0.32535 0.17221 0.0
C756 C 0.83357 0.27045 0.1825 0.0
C757 C 0.80762 0.27878 0.1779 0.0
C758 C 0.81186 0.31086 0.17093 0.0
C759 C 0.84158 0.33387 0.16802 0.0
C760 C 0.77611 0.25382 0.18027 0.0
C761 C 0.75606 0.26205 0.19376 0.0
C762 C 0.76641 0.22142 0.17013 0.0
C763 C 0.78596 0.21178 0.15495 0.0
C764 C 0.79716 0.23147 0.13807 0.0
C765 C 0.81579 0.22241 0.12392 0.0
C766 C 0.82319 0.19358 0.12641 0.0
C767 C 0.81192 0.17369 0.14303 0.0
C768 C 0.79331 0.18266 0.15723 0.0
C769 C 0.63058 0.16286 0.19243 0.0
C770 C 0.62823 0.1304 0.19794 0.0
C771 C 0.65937 0.18724 0.18888 0.0
C772 C 0.68647 0.17986 0.19109 0.0
C773 C 0.6841 0.14732 0.19635 0.0
C774 C 0.65532 0.12285 0.19971 0.0
C775 C 0.71729 0.20586 0.18782 0.0
C776 C 0.73724 0.19787 0.17411 0.0
C777 C 0.72695 0.2384 0.19786 0.0
C778 C 0.70788 0.24795 0.21341 0.0
C779 C 0.69786 0.22865 0.2306 0.0
C780 C 0.67979 0.23772 0.24515 0.0
C781 C 0.67179 0.2662 0.24278 0.0
C782 C 0.68191 0.28573 0.22587 0.0
C783 C 0.69996 0.27674 0.21125 0.0
H784 H 0.6578 0.27319 0.25407 0.0
H785 H 0.83761 0.18661 0.11544 0.0
H786 H 0.04403 0.465 0.06755 0.0
H787 H 0.0549 0.48903 0.03382 0.0
H788 H 0.02141 0.56823 0.05383 0.0
H789 H 0.00963 0.54383 0.08695 0.0
H790 H 1.00255 0.5499 0.0171 0.0
H791 H 0.09835 0.58115 0.05228 0.0
H792 H 0.14041 0.57332 0.07205 0.0
H793 H 0.15751 0.51401 0.02166 0.0
H794 H 0.11509 0.52092 0.00172 0.0
H795 H 0.0896 0.67965 0.95087 0.0
H796 H 0.07355 0.64676 0.9813 0.0
H797 H 0.07159 0.5569 0.94659 0.0
H798 H 0.08715 0.58954 0.916 0.0
H799 H 0.10728 0.57751 0.98894 0.0
H800 H 0.00842 0.55771 0.95379 0.0
H801 H 0.97012 0.57782 0.93786 0.0
H802 H 0.96405 0.63111 0.99414 0.0
H803 H 1.00295 0.61224 0.01021 0.0
C804 C 0.03874 0.48731 0.06459 0.0
C805 C 0.02612 0.50262 0.07984 0.0
C806 C 0.04508 0.50113 0.04539 0.0
C807 C 0.03924 0.53067 0.04133 0.0
C808 C 0.026 0.54539 0.0565 0.0
C809 C 0.01941 0.53147 0.0755 0.0
C810 C 0.04767 0.54708 0.02161 0.0
C811 C 0.02548 0.55594 0.011 0.0
C812 C 0.07769 0.55543 0.01372 0.0
C813 C 0.10327 0.55116 0.0256 0.0
C814 C 0.11087 0.56614 0.04548 0.0
C815 C 0.13479 0.56188 0.05673 0.0
C816 C 0.15154 0.54304 0.04818 0.0
C817 C 0.14444 0.52847 0.02833 0.0
C818 C 0.12045 0.53253 0.01703 0.0
C819 C 0.08559 0.65285 0.94973 0.0
C820 C 0.08918 0.637 0.93106 0.0
C821 C 0.07643 0.63415 0.96707 0.0
C822 C 0.07134 0.59948 0.96608 0.0
C823 C 0.07532 0.58365 0.94755 0.0
C824 C 0.0839 0.60222 0.9301 0.0
C825 C 0.06208 0.57992 0.98453 0.0
C826 C 0.08422 0.57078 0.99493 0.0
C827 C 0.03249 0.57284 0.99278 0.0
C828 C 0.00885 0.58383 0.98311 0.0
C829 C 0.99917 0.57402 0.96267 0.0
C830 C 0.97731 0.58512 0.95365 0.0
C831 C 0.96467 0.60566 0.96498 0.0
C832 C 0.97387 0.6152 0.98537 0.0
C833 C 0.99584 0.60434 0.99443 0.0
H834 H 0.94772 0.61417 0.95796 0.0
H835 H 0.17011 0.53993 0.05692 0.0
H836 H 0.47502 0.06046 0.45075 0.0
H837 H 0.4865 0.06753 0.41447 0.0
H838 H 0.51622 0.98163 0.41302 0.0
H839 H 0.50667 0.97607 0.44962 0.0
H840 H 0.5521 0.02455 0.39094 0.0
H841 H 0.44188 0.9795 0.39429 0.0
H842 H 0.39042 0.9768 0.40564 0.0
H843 H 0.40449 0.07304 0.38108 0.0
H844 H 0.45621 0.0765 0.36979 0.0
H845 H 0.52383 0.97841 0.2838 0.0
H846 H 0.52101 0.98072 0.32113 0.0
H847 H 0.52375 0.0834 0.32081 0.0
H848 H 0.52724 0.0816 0.28343 0.0
H849 H 0.47321 0.03561 0.34328 0.0
H850 H 0.58379 0.07546 0.33754 0.0
H851 H 0.63292 0.07254 0.325 0.0
H852 H 0.6145 0.97802 0.35285 0.0
H853 H 0.56501 0.98012 0.36531 0.0
C854 C 0.48407 0.04318 0.44263 0.0
C855 C 0.48971 0.01754 0.45284 0.0
C856 C 0.49046 0.04708 0.42187 0.0
C857 C 0.50154 0.0246 0.41076 0.0
C858 C 0.50762 0.99927 0.42114 0.0
C859 C 0.50203 0.99598 0.44203 0.0
C860 C 0.50662 0.02726 0.38836 0.0
C861 C 0.53464 0.02659 0.38055 0.0
C862 C 0.48414 0.03047 0.37467 0.0
C863 C 0.45303 0.02842 0.38139 0.0
C864 C 0.43408 1.00019 0.39143 0.0
C865 C 0.40486 0.99851 0.39784 0.0
C866 C 0.39423 0.02477 0.39414 0.0
C867 C 0.41277 0.05274 0.38397 0.0
C868 C 0.44203 0.05456 0.37755 0.0
C869 C 0.52413 0.0016 0.29167 0.0
C870 C 0.52573 0.02982 0.28068 0.0
C871 C 0.5226 0.00289 0.31298 0.0
C872 C 0.52222 0.03223 0.32365 0.0
C873 C 0.52408 0.06056 0.31279 0.0
C874 C 0.52619 0.05952 0.29148 0.0
C875 C 0.5184 0.03263 0.34608 0.0
C876 C 0.49062 0.03379 0.3538 0.0
C877 C 0.54072 0.02901 0.35959 0.0
C878 C 0.57055 0.02781 0.3522 0.0
C879 C 0.59008 0.0539 0.34084 0.0
C880 C 0.61803 0.05243 0.33378 0.0
C881 C 0.6268 0.02507 0.33808 0.0
C882 C 0.60767 0.99918 0.34951 0.0
C883 C 0.57968 0.00051 0.3566 0.0
H884 H 0.64844 0.02398 0.3326 0.0
H885 H 0.3716 0.02342 0.39911 0.0
H886 H 0.56729 0.49059 0.79262 0.0
H887 H 0.5605 0.48982 0.7555 0.0
H888 H 0.47209 0.50096 0.76373 0.0
H889 H 0.47842 0.50021 0.80083 0.0
H890 H 0.46727 0.46016 0.73281 0.0
H891 H 0.54014 0.56877 0.75259 0.0
H892 H 0.58709 0.61004 0.76905 0.0
H893 H 0.64326 0.57024 0.73136 0.0
H894 H 0.59661 0.52842 0.71485 0.0
H895 H 0.46465 0.52746 0.63374 0.0
H896 H 0.46754 0.5219 0.67071 0.0
H897 H 0.53877 0.47936 0.66197 0.0
H898 H 0.53563 0.48412 0.62499 0.0
H899 H 0.55146 0.53632 0.69264 0.0
H900 H 0.47449 0.42784 0.67257 0.0
H901 H 0.42574 0.39058 0.65604 0.0
H902 H 0.37508 0.43656 0.69453 0.0
H903 H 0.42361 0.47446 0.71109 0.0
C904 C 0.54635 0.49261 0.78642 0.0
C905 C 0.52327 0.49523 0.79945 0.0
C906 C 0.54254 0.49241 0.76524 0.0
C907 C 0.51604 0.49602 0.75675 0.0
C908 C 0.49272 0.49808 0.76985 0.0
C909 C 0.49626 0.49754 0.79102 0.0
C910 C 0.51285 0.4981 0.73427 0.0
C911 C 0.48558 0.47716 0.72412 0.0
C912 C 0.53674 0.52009 0.72277 0.0
C913 C 0.56487 0.54525 0.73263 0.0
C914 C 0.5625 0.56866 0.74791 0.0
C915 C 0.58906 0.59218 0.75723 0.0
C916 C 0.61814 0.5927 0.75129 0.0
C917 C 0.62072 0.56977 0.73597 0.0
C918 C 0.59423 0.54617 0.72661 0.0
C919 C 0.48079 0.51672 0.63968 0.0
C920 C 0.49991 0.50622 0.62644 0.0
C921 C 0.48234 0.5135 0.66077 0.0
C922 C 0.50334 0.5002 0.66899 0.0
C923 C 0.52241 0.48966 0.65586 0.0
C924 C 0.52049 0.49229 0.63475 0.0
C925 C 0.50614 0.49828 0.69137 0.0
C926 C 0.53328 0.51937 0.70144 0.0
C927 C 0.48188 0.47707 0.70282 0.0
C928 C 0.45271 0.45423 0.69291 0.0
C929 C 0.45299 0.43024 0.67737 0.0
C930 C 0.42539 0.40895 0.66803 0.0
C931 C 0.39734 0.41127 0.67419 0.0
C932 C 0.39683 0.43482 0.68975 0.0
C933 C 0.42437 0.45619 0.69913 0.0
H934 H 0.376 0.39476 0.66694 0.0
H935 H 0.63867 0.61093 0.75853 0.0
H936 H 0.48757 0.03705 0.56992 0.0
H937 H 0.47837 0.02913 0.60652 0.0
H938 H 0.54047 0.97359 0.60777 0.0
H939 H 0.54959 0.98129 0.57131 0.0
H940 H 0.48904 0.94203 0.62763 0.0
H941 H 0.56356 0.05307 0.62702 0.0
H942 H 0.58609 0.11212 0.61739 0.0
H943 H 0.50975 0.13335 0.64372 0.0
H944 H 0.48648 0.07422 0.65323 0.0
H945 H 0.52217 1.00003 0.7425 0.0
H946 H 0.53144 0.01172 0.70642 0.0
H947 H 0.43882 0.945 0.69085 0.0
H948 H 0.42959 0.93302 0.72687 0.0
H949 H 0.50743 0.03841 0.6783 0.0
H950 H 0.4378 0.90305 0.64564 0.0
H951 H 0.42237 0.84432 0.65603 0.0
H952 H 0.50073 0.87221 0.69712 0.0
H953 H 0.51684 0.93097 0.68678 0.0
C954 C 0.49924 0.0232 0.57806 0.0
C955 C 0.51938 0.00989 0.56786 0.0
C956 C 0.49406 0.01878 0.59894 0.0
C957 C 0.50891 0.00096 0.60989 0.0
C958 C 0.52876 0.98739 0.59962 0.0
C959 C 0.53403 0.99191 0.57882 0.0
C960 C 0.50366 0.99611 0.63203 0.0
C961 C 0.49293 0.9631 0.63869 0.0
C962 C 0.50942 0.02363 0.64652 0.0
C963 C 0.52311 0.05912 0.64064 0.0
C964 C 0.5514 0.07023 0.63057 0.0
C965 C 0.56434 0.10373 0.62516 0.0
C966 C 0.54934 0.12645 0.6299 0.0
C967 C 0.52132 0.1157 0.64003 0.0
C968 C 0.50825 0.0822 0.64544 0.0
C969 C 0.5036 0.98842 0.73144 0.0
C970 C 0.47506 0.96589 0.73752 0.0
C971 C 0.50897 0.99497 0.7108 0.0
C972 C 0.48593 0.97901 0.69588 0.0
C973 C 0.45713 0.95718 0.70203 0.0
C974 C 0.45186 0.95041 0.72261 0.0
C975 C 0.49233 0.98427 0.67386 0.0
C976 C 0.50329 0.01733 0.66721 0.0
C977 C 0.48762 0.95683 0.65942 0.0
C978 C 0.47831 0.92147 0.66559 0.0
C979 C 0.45178 0.89661 0.65684 0.0
C980 C 0.44291 0.86333 0.66273 0.0
C981 C 0.46049 0.85457 0.67728 0.0
C982 C 0.48706 0.87905 0.68592 0.0
C983 C 0.49605 0.91236 0.68007 0.0
H984 H 0.45357 0.82879 0.68183 0.0
H985 H 0.55951 0.15241 0.62579 0.0
H986 H 0.43925 0.42271 0.91658 0.0
H987 H 0.44662 0.4286 0.95392 0.0
H988 H 0.52491 0.52 0.94816 0.0
H989 H 0.51708 0.51492 0.911 0.0
H990 H 0.53393 0.47056 0.97462 0.0
H991 H 0.46407 0.52999 0.9624 0.0
H992 H 0.41644 0.53525 0.94874 0.0
H993 H 0.36209 0.45412 0.98462 0.0
H994 H 0.40944 0.44805 0.99827 0.0
H995 H 0.56497 0.53379 0.07564 0.0
H996 H 0.55245 0.52973 0.03913 0.0
H997 H 0.46291 0.45567 0.04968 0.0
H998 H 0.47504 0.4607 0.08643 0.0
H999 H 0.45776 0.49344 0.02054 0.0
H1000 H 0.52493 0.43292 0.03327 0.0
H1001 H 0.57112 0.42415 0.04672 0.0
H1002 H 0.62866 0.50157 0.00969 0.0
H1003 H 0.58282 0.51115 0.99623 0.0
C1004 C 0.45807 0.44398 0.9233 0.0
C1005 C 0.47775 0.46822 0.9109 0.0
C1006 C 0.46218 0.44735 0.94459 0.0
C1007 C 0.48626 0.47478 0.95374 0.0
C1008 C 0.50625 0.49864 0.94136 0.0
C1009 C 0.50181 0.49562 0.92015 0.0
C1010 C 0.49074 0.47871 0.97624 0.0
C1011 C 0.51749 0.47593 0.98469 0.0
C1012 C 0.46874 0.48461 0.98931 0.0
C1013 C 0.44028 0.4883 0.98116 0.0
C1014 C 0.44196 0.51305 0.96722 0.0
C1015 C 0.41501 0.51623 0.95951 0.0
C1016 C 0.38625 0.49496 0.96576 0.0
C1017 C 0.38438 0.47054 0.97977 0.0
C1018 C 0.41126 0.46722 0.9875 0.0
C1019 C 0.54241 0.51711 0.0702 0.0
C1020 C 0.52096 0.4976 0.08384 0.0
C1021 C 0.53534 0.51459 0.04931 0.0
C1022 C 0.50705 0.49168 0.04153 0.0
C1023 C 0.48495 0.4734 0.05528 0.0
C1024 C 0.49182 0.47641 0.0763 0.0
C1025 C 0.50128 0.48573 0.01905 0.0
C1026 C 0.47425 0.48798 0.01057 0.0
C1027 C 0.52282 0.47876 0.00591 0.0
C1028 C 0.55045 0.47296 0.01389 0.0
C1029 C 0.54745 0.44823 0.0281 0.0
C1030 C 0.57357 0.4431 0.03571 0.0
C1031 C 0.60281 0.46235 0.0291 0.0
C1032 C 0.60599 0.48671 0.01482 0.0
C1033 C 0.57995 0.49199 0.00718 0.0
H1034 H 0.62301 0.45833 0.03501 0.0
H1035 H 0.36541 0.49747 0.95978 0.0
H1036 H 0.05845 0.4934 0.19178 0.0
H1037 H 0.05753 0.48462 0.22858 0.0
H1038 H 0.02035 0.56395 0.23947 0.0
H1039 H 0.0218 0.57318 0.20295 0.0
H1040 H 0.06426 0.57011 0.26671 0.0
H1041 H 0.97448 0.48091 0.23908 0.0
H1042 H 0.9473 0.43226 0.21544 0.0
H1043 H 0.99946 0.37636 0.24003 0.0
H1044 H 0.0273 0.42491 0.26363 0.0
H1045 H 0.97548 0.48253 0.35968 0.0
H1046 H 0.98106 0.48613 0.32277 0.0
H1047 H 0.08001 0.52524 0.33063 0.0
H1048 H 0.07466 0.52234 0.3677 0.0
H1049 H 0.00673 0.45857 0.29389 0.0
H1050 H 0.11007 0.5844 0.29603 0.0
H1051 H 0.13309 0.63557 0.31871 0.0
H1052 H 0.04461 0.6213 0.34449 0.0
H1053 H 0.02104 0.57032 0.3218 0.0
C1054 C 0.05013 0.50892 0.20209 0.0
C1055 C 0.04019 0.53395 0.19459 0.0
C1056 C 0.04955 0.50386 0.22305 0.0
C1057 C 0.03871 0.52353 0.23675 0.0
C1058 C 0.02894 0.5486 0.22921 0.0
C1059 C 0.02966 0.55376 0.20833 0.0
C1060 C 0.03717 0.51804 0.25896 0.0
C1061 C 0.05186 0.54566 0.27264 0.0
C1062 C 0.02056 0.48627 0.2667 0.0
C1063 C 1.00318 0.45666 0.25299 0.0
C1064 C 0.98026 0.45829 0.23938 0.0
C1065 C 0.96474 0.43075 0.22598 0.0
C1066 C 0.97172 0.40128 0.22617 0.0
C1067 C 0.99412 0.39923 0.23987 0.0
C1068 C 0.00975 0.42675 0.25328 0.0
C1069 C 0.99848 0.49183 0.3536 0.0
C1070 C 0.02464 0.50247 0.3667 0.0
C1071 C 1.0016 0.49365 0.33245 0.0
C1072 C 0.03092 0.50618 0.32394 0.0
C1073 C 0.05713 0.51588 0.3369 0.0
C1074 C 0.05404 0.5142 0.35809 0.0
C1075 C 0.03387 0.51069 0.30162 0.0
C1076 C 0.01947 0.4829 0.28794 0.0
C1077 C 0.05003 0.54254 0.29383 0.0
C1078 C 0.06391 0.57335 0.3074 0.0
C1079 C 0.09554 0.59226 0.30651 0.0
C1080 C 0.10868 0.62121 0.31937 0.0
C1081 C 0.09034 0.63161 0.33308 0.0
C1082 C 0.05881 0.61315 0.33392 0.0
C1083 C 0.04556 0.5842 0.32109 0.0
H1084 H 0.10056 0.65402 0.34303 0.0
H1085 H 0.95974 0.38002 0.21574 0.0
loop_
_geom_bond_atom_site_label_1
_geom_bond_atom_site_label_2
_geom_bond_distance
_geom_bond_site_symmetry_2
_ccdc_geom_bond_type
Nd0 C2 2.836 . S
Nd0 O20 2.500 . S
Nd0 O21 2.492 . S
Nd0 O22 2.487 . S
Nd0 O23 2.682 . S
Nd0 O24 2.410 . S
Nd0 O29 2.414 . S
Nd0 O31 2.424 1_455 S
Nd1 C11 2.836 . S
Nd1 O23 2.414 1_655 S
Nd1 O25 2.424 1_655 S
Nd1 O26 2.500 . S
Nd1 O27 2.492 . S
Nd1 O28 2.488 1_655 S
Nd1 O29 2.682 1_655 S
Nd1 O30 2.410 . S
C2 Nd0 2.836 . S
C2 C3 1.498 . S
C2 O20 1.258 . S
C2 O21 1.239 . S
C3 C2 1.498 . S
C3 C4 1.366 . S
C3 C8 1.407 . S
C4 C3 1.366 . S
C4 C5 1.392 . S
C4 H32 0.930 . S
C5 C4 1.392 . S
C5 C6 1.398 . S
C5 H33 0.929 . S
C6 C5 1.398 . S
C6 C7 1.352 . S
C7 C6 1.352 . S
C7 C8 1.384 . S
C7 H34 0.930 . S
C8 C3 1.407 . S
C8 C7 1.384 . S
C8 H35 0.929 . S
C9 O22 1.241 . S
C9 O23 1.273 . S
C10 O24 1.251 . S
C10 O25 1.268 . S
C11 Nd1 2.836 . S
C11 C12 1.498 . S
C11 O26 1.258 . S
C11 O27 1.239 . S
C12 C11 1.498 . S
C12 C13 1.366 . S
C12 C17 1.407 . S
C13 C12 1.366 . S
C13 C14 1.392 . S
C13 H36 0.930 . S
C14 C13 1.392 . S
C14 C15 1.398 . S
C14 H37 0.929 . S
C15 C14 1.398 . S
C15 C16 1.352 . S
C16 C15 1.352 . S
C16 C17 1.384 . S
C16 H38 0.930 . S
C17 C12 1.407 . S
C17 C16 1.384 . S
C17 H39 0.929 . S
C18 O28 1.252 . S
C18 O29 1.273 . S
C19 O30 1.251 . S
C19 O31 1.268 . S
O20 Nd0 2.500 . S
O20 C2 1.258 . S
O21 Nd0 2.492 . S
O21 C2 1.239 . S
O22 Nd0 2.487 . S
O22 C9 1.241 . S
O23 Nd0 2.682 . S
O23 Nd1 2.414 1_455 S
O23 C9 1.273 . S
O24 Nd0 2.410 . S
O24 C10 1.251 . S
O25 Nd1 2.424 1_455 S
O25 C10 1.268 . S
O26 Nd1 2.500 . S
O26 C11 1.258 . S
O27 Nd1 2.492 . S
O27 C11 1.239 . S
O28 Nd1 2.488 1_455 S
O28 C18 1.252 . S
O29 Nd0 2.414 . S
O29 Nd1 2.682 1_455 S
O29 C18 1.273 . S
O30 Nd1 2.410 . S
O30 C19 1.251 . S
O31 Nd0 2.424 1_655 S
O31 C19 1.268 . S
H32 C4 0.930 . S
H33 C5 0.929 . S
H34 C7 0.930 . S
H35 C8 0.929 . S
H36 C13 0.930 . S
H37 C14 0.929 . S
H38 C16 0.930 . S
H39 C17 0.929 . S
Nd40 C42 2.836 1_545 S
Nd40 O60 2.500 1_545 S
Nd40 O61 2.492 1_545 S
Nd40 O62 2.487 . S
Nd40 O63 2.682 . S
Nd40 O64 2.410 1_545 S
Nd40 O69 2.414 . S
Nd40 O71 2.424 . S
Nd41 C51 2.836 . S
Nd41 O63 2.414 . S
Nd41 O65 2.424 1_545 S
Nd41 O66 2.500 . S
Nd41 O67 2.492 . S
Nd41 O68 2.487 . S
Nd41 O69 2.682 . S
Nd41 O70 2.410 . S
C42 Nd40 2.836 1_565 S
C42 C43 1.498 . S
C42 O60 1.258 . S
C42 O61 1.239 . S
C43 C42 1.498 . S
C43 C44 1.366 . S
C43 C48 1.407 . S
C44 C43 1.366 . S
C44 C45 1.392 . S
C44 H72 0.930 . S
C45 C44 1.392 . S
C45 C46 1.398 . S
C45 H73 0.929 . S
C46 C45 1.398 . S
C46 C47 1.352 . S
C47 C46 1.352 . S
C47 C48 1.384 . S
C47 H74 0.930 . S
C48 C43 1.407 . S
C48 C47 1.384 . S
C48 H75 0.929 . S
C49 O62 1.241 . S
C49 O63 1.273 . S
C50 O64 1.251 . S
C50 O65 1.268 . S
C51 Nd41 2.836 . S
C51 C52 1.498 . S
C51 O66 1.258 . S
C51 O67 1.239 . S
C52 C51 1.498 . S
C52 C53 1.366 . S
C52 C57 1.407 . S
C53 C52 1.366 . S
C53 C54 1.392 . S
C53 H76 0.930 . S
C54 C53 1.392 . S
C54 C55 1.398 . S
C54 H77 0.929 . S
C55 C54 1.398 . S
C55 C56 1.352 . S
C56 C55 1.352 . S
C56 C57 1.384 . S
C56 H78 0.930 . S
C57 C52 1.407 . S
C57 C56 1.384 . S
C57 H79 0.929 . S
C58 O68 1.241 . S
C58 O69 1.273 . S
C59 O70 1.251 . S
C59 O71 1.268 . S
O60 Nd40 2.500 1_565 S
O60 C42 1.258 . S
O61 Nd40 2.492 1_565 S
O61 C42 1.239 . S
O62 Nd40 2.487 . S
O62 C49 1.241 . S
O63 Nd40 2.682 . S
O63 Nd41 2.414 . S
O63 C49 1.273 . S
O64 Nd40 2.410 1_565 S
O64 C50 1.251 . S
O65 Nd41 2.424 1_565 S
O65 C50 1.268 . S
O66 Nd41 2.500 . S
O66 C51 1.258 . S
O67 Nd41 2.492 . S
O67 C51 1.239 . S
O68 Nd41 2.487 . S
O68 C58 1.241 . S
O69 Nd40 2.414 . S
O69 Nd41 2.682 . S
O69 C58 1.273 . S
O70 Nd41 2.410 . S
O70 C59 1.251 . S
O71 Nd40 2.424 . S
O71 C59 1.268 . S
H72 C44 0.930 . S
H73 C45 0.929 . S
H74 C47 0.930 . S
H75 C48 0.929 . S
H76 C53 0.930 . S
H77 C54 0.929 . S
H78 C56 0.930 . S
H79 C57 0.929 . S
Nd80 C82 2.836 . S
Nd80 O100 2.500 . S
Nd80 O101 2.492 . S
Nd80 O102 2.487 . S
Nd80 O103 2.682 . S
Nd80 O104 2.410 . S
Nd80 O109 2.414 . S
Nd80 O111 2.424 . S
Nd81 C91 2.836 . S
Nd81 O103 2.414 . S
Nd81 O105 2.424 . S
Nd81 O106 2.500 . S
Nd81 O107 2.492 . S
Nd81 O108 2.487 . S
Nd81 O109 2.682 . S
Nd81 O110 2.410 . S
C82 Nd80 2.836 . S
C82 C83 1.498 . S
C82 O100 1.258 . S
C82 O101 1.239 . S
C83 C82 1.498 . S
C83 C84 1.366 . S
C83 C88 1.407 . S
C84 C83 1.366 . S
C84 C85 1.392 . S
C84 H112 0.930 . S
C85 C84 1.392 . S
C85 C86 1.398 . S
C85 H113 0.929 . S
C86 C85 1.398 . S
C86 C87 1.352 . S
C87 C86 1.352 . S
C87 C88 1.384 . S
C87 H114 0.930 . S
C88 C83 1.407 . S
C88 C87 1.384 . S
C88 H115 0.929 . S
C89 O102 1.241 . S
C89 O103 1.273 . S
C90 O104 1.251 . S
C90 O105 1.268 . S
C91 Nd81 2.836 . S
C91 C92 1.498 . S
C91 O106 1.258 . S
C91 O107 1.239 . S
C92 C91 1.498 . S
C92 C93 1.366 . S
C92 C97 1.407 . S
C93 C92 1.366 . S
C93 C94 1.392 . S
C93 H116 0.930 . S
C94 C93 1.392 . S
C94 C95 1.398 . S
C94 H117 0.929 . S
C95 C94 1.398 . S
C95 C96 1.352 . S
C96 C95 1.352 . S
C96 C97 1.384 . S
C96 H118 0.930 . S
C97 C92 1.407 . S
C97 C96 1.384 . S
C97 H119 0.929 . S
C98 O108 1.241 . S
C98 O109 1.273 . S
C99 O110 1.251 . S
C99 O111 1.268 . S
O100 Nd80 2.500 . S
O100 C82 1.258 . S
O101 Nd80 2.492 . S
O101 C82 1.239 . S
O102 Nd80 2.487 . S
O102 C89 1.241 . S
O103 Nd80 2.682 . S
O103 Nd81 2.414 . S
O103 C89 1.273 . S
O104 Nd80 2.410 . S
O104 C90 1.251 . S
O105 Nd81 2.424 . S
O105 C90 1.268 . S
O106 Nd81 2.500 . S
O106 C91 1.258 . S
O107 Nd81 2.492 . S
O107 C91 1.239 . S
O108 Nd81 2.487 . S
O108 C98 1.241 . S
O109 Nd80 2.414 . S
O109 Nd81 2.682 . S
O109 C98 1.273 . S
O110 Nd81 2.410 . S
O110 C99 1.251 . S
O111 Nd80 2.424 . S
O111 C99 1.268 . S
H112 C84 0.930 . S
H113 C85 0.929 . S
H114 C87 0.930 . S
H115 C88 0.929 . S
H116 C93 0.930 . S
H117 C94 0.929 . S
H118 C96 0.930 . S
H119 C97 0.929 . S
O120 Cd121 2.300 . S
O120 C127 1.275 . S
Cd121 O120 2.300 . S
Cd121 O129 2.381 . S
Cd121 O130 2.378 . S
O122 Cd123 2.355 1_545 S
O122 C127 1.285 . S
Cd123 O122 2.355 1_565 S
Cd123 O124 2.317 . S
O124 Cd123 2.317 . S
O124 C125 1.232 . S
C125 O124 1.232 . S
C125 O126 1.218 . S
O126 C125 1.218 . S
C127 O120 1.275 . S
C127 O122 1.285 . S
C128 O129 1.258 . S
C128 O130 1.256 . S
O129 Cd121 2.381 . S
O129 C128 1.258 . S
O130 Cd121 2.378 . S
O130 C128 1.256 . S
O131 Cd132 2.300 . S
O131 C138 1.275 . S
Cd132 O131 2.300 . S
Cd132 O140 2.381 . S
Cd132 O141 2.378 . S
O133 Cd134 2.385 . S
O133 C138 1.255 . S
Cd134 O133 2.385 . S
Cd134 O135 2.317 . S
O135 Cd134 2.317 . S
O135 C136 1.232 . S
C136 O135 1.232 . S
C136 O137 1.218 . S
O137 C136 1.218 . S
C138 O131 1.275 . S
C138 O133 1.255 . S
C139 O140 1.258 . S
C139 O141 1.256 . S
O140 Cd132 2.381 . S
O140 C139 1.258 . S
O141 Cd132 2.378 . S
O141 C139 1.256 . S
O142 Cd143 2.300 . S
O142 C149 1.275 . S
Cd143 O142 2.300 . S
Cd143 O151 2.381 . S
Cd143 O152 2.378 . S
O144 Cd145 2.385 1_455 S
O144 C149 1.255 . S
Cd145 O144 2.385 1_655 S
Cd145 O146 2.317 . S
O146 Cd145 2.317 . S
O146 C147 1.232 . S
C147 O146 1.232 . S
C147 O148 1.218 . S
O148 C147 1.218 . S
C149 O142 1.275 . S
C149 O144 1.255 . S
C150 O151 1.258 . S
C150 O152 1.256 . S
O151 Cd143 2.381 . S
O151 C150 1.258 . S
O152 Cd143 2.378 . S
O152 C150 1.256 . S
O153 Cd154 2.300 . S
O153 C160 1.275 1_455 S
Cd154 O153 2.300 . S
Cd154 O162 2.381 . S
Cd154 O163 2.378 . S
O155 Cd156 2.385 . S
O155 C160 1.255 . S
Cd156 O155 2.385 . S
Cd156 O157 2.317 . S
O157 Cd156 2.317 . S
O157 C158 1.232 . S
C158 O157 1.232 . S
C158 O159 1.218 . S
O159 C158 1.218 . S
C160 O153 1.275 1_655 S
C160 O155 1.255 . S
C161 O162 1.258 . S
C161 O163 1.256 . S
O162 Cd154 2.381 . S
O162 C161 1.258 . S
O163 Cd154 2.378 . S
O163 C161 1.256 . S
O164 Cd165 2.300 . S
O164 C171 1.275 1_565 S
Cd165 O164 2.300 . S
Cd165 O173 2.381 . S
Cd165 O174 2.378 . S
O166 Cd167 2.385 . S
O166 C171 1.255 . S
Cd167 O166 2.385 . S
Cd167 O168 2.317 . S
O168 Cd167 2.317 . S
O168 C169 1.232 . S
C169 O168 1.232 . S
C169 O170 1.218 . S
O170 C169 1.218 . S
C171 O164 1.275 1_545 S
C171 O166 1.255 . S
C172 O173 1.258 . S
C172 O174 1.256 . S
O173 Cd165 2.381 . S
O173 C172 1.258 . S
O174 Cd165 2.378 . S
O174 C172 1.256 . S
O175 Cd176 2.300 . S
O175 C182 1.275 . S
Cd176 O175 2.300 . S
Cd176 O184 2.381 . S
Cd176 O185 2.378 . S
O177 Cd178 2.385 . S
O177 C182 1.255 . S
Cd178 O177 2.385 . S
Cd178 O179 2.317 . S
O179 Cd178 2.317 . S
O179 C180 1.232 . S
C180 O179 1.232 . S
C180 O181 1.218 . S
O181 C180 1.218 . S
C182 O175 1.275 . S
C182 O177 1.255 . S
C183 O184 1.258 . S
C183 O185 1.256 . S
O184 Cd176 2.381 . S
O184 C183 1.258 . S
O185 Cd176 2.378 . S
O185 C183 1.256 . S
H186 C204 0.951 . S
H187 C206 0.951 . S
H188 C208 0.950 . S
H189 C209 0.950 . S
H190 C211 0.950 . S
H191 C214 0.950 . S
H192 C215 0.950 . S
H193 C217 0.950 . S
H194 C218 0.950 . S
H195 C219 0.951 . S
H196 C221 0.951 . S
H197 C223 0.950 . S
H198 C224 0.950 . S
H199 C226 0.950 . S
H200 C229 0.950 . S
H201 C230 0.950 . S
H202 C232 0.950 . S
H203 C233 0.950 . S
C204 H186 0.951 . S
C204 C205 1.366 . S
C204 C206 1.388 . S
C205 C204 1.366 . S
C205 C209 1.385 . S
C206 H187 0.951 . S
C206 C204 1.388 . S
C206 C207 1.366 . S
C207 C206 1.366 . S
C207 C208 1.414 . S
C207 C210 1.499 . S
C208 H188 0.950 . S
C208 C207 1.414 . S
C208 C209 1.374 . S
C209 H189 0.950 . S
C209 C205 1.385 . S
C209 C208 1.374 . S
C210 C207 1.499 . S
C210 C211 1.373 . S
C210 C212 1.389 . S
C211 H190 0.950 . S
C211 C210 1.373 . S
C211 C227 1.377 . S
C212 C210 1.389 . S
C212 C213 1.524 . S
C212 C226 1.377 . S
C213 C212 1.524 . S
C213 C214 1.397 . S
C213 C218 1.363 . S
C214 H191 0.950 . S
C214 C213 1.397 . S
C214 C215 1.334 . S
C215 H192 0.950 . S
C215 C214 1.334 . S
C215 C216 1.287 . S
C216 C215 1.287 . S
C216 C217 1.524 . S
C216 H235 0.913 . S
C217 H193 0.950 . S
C217 C216 1.524 . S
C217 C218 1.415 . S
C218 H194 0.950 . S
C218 C213 1.363 . S
C218 C217 1.415 . S
C219 H195 0.951 . S
C219 C220 1.366 . S
C219 C221 1.388 . S
C220 C219 1.366 . S
C220 C224 1.385 . S
C221 H196 0.951 . S
C221 C219 1.388 . S
C221 C222 1.366 . S
C222 C221 1.366 . S
C222 C223 1.414 . S
C222 C225 1.499 . S
C223 H197 0.950 . S
C223 C222 1.414 . S
C223 C224 1.374 . S
C224 H198 0.950 . S
C224 C220 1.385 . S
C224 C223 1.374 . S
C225 C222 1.499 . S
C225 C226 1.373 . S
C225 C227 1.389 . S
C226 H199 0.950 . S
C226 C212 1.377 . S
C226 C225 1.373 . S
C227 C211 1.377 . S
C227 C225 1.389 . S
C227 C228 1.524 . S
C228 C227 1.524 . S
C228 C229 1.397 . S
C228 C233 1.363 . S
C229 H200 0.950 . S
C229 C228 1.397 . S
C229 C230 1.334 . S
C230 H201 0.950 . S
C230 C229 1.334 . S
C230 C231 1.287 . S
C231 C230 1.287 . S
C231 C232 1.524 . S
C231 H234 0.999 . S
C232 H202 0.950 . S
C232 C231 1.524 . S
C232 C233 1.415 . S
C233 H203 0.950 . S
C233 C228 1.363 . S
C233 C232 1.415 . S
H234 C231 0.999 . S
H235 C216 0.913 . S
H236 C254 0.951 . S
H237 C256 0.951 . S
H238 C258 0.950 . S
H239 C259 0.950 . S
H240 C261 0.950 . S
H241 C264 0.950 . S
H242 C265 0.950 . S
H243 C267 0.950 . S
H244 C268 0.950 . S
H245 C269 0.951 . S
H246 C271 0.951 . S
H247 C273 0.950 . S
H248 C274 0.950 . S
H249 C276 0.950 . S
H250 C279 0.950 . S
H251 C280 0.950 . S
H252 C282 0.950 . S
H253 C283 0.950 . S
C254 H236 0.951 . S
C254 C255 1.366 . S
C254 C256 1.388 . S
C255 C254 1.366 . S
C255 C259 1.385 . S
C256 H237 0.951 . S
C256 C254 1.388 . S
C256 C257 1.366 . S
C257 C256 1.366 . S
C257 C258 1.414 . S
C257 C260 1.499 . S
C258 H238 0.950 . S
C258 C257 1.414 . S
C258 C259 1.374 . S
C259 H239 0.950 . S
C259 C255 1.385 . S
C259 C258 1.374 . S
C260 C257 1.499 . S
C260 C261 1.373 . S
C260 C262 1.389 . S
C261 H240 0.950 . S
C261 C260 1.373 . S
C261 C277 1.377 . S
C262 C260 1.389 . S
C262 C263 1.524 . S
C262 C276 1.377 . S
C263 C262 1.524 . S
C263 C264 1.397 . S
C263 C268 1.363 . S
C264 H241 0.950 . S
C264 C263 1.397 . S
C264 C265 1.334 . S
C265 H242 0.950 . S
C265 C264 1.334 . S
C265 C266 1.287 . S
C266 C265 1.287 . S
C266 C267 1.524 . S
C266 H285 0.913 . S
C267 H243 0.950 . S
C267 C266 1.524 . S
C267 C268 1.415 . S
C268 H244 0.950 . S
C268 C263 1.363 . S
C268 C267 1.415 . S
C269 H245 0.951 . S
C269 C270 1.366 . S
C269 C271 1.388 . S
C270 C269 1.366 . S
C270 C274 1.385 . S
C271 H246 0.951 . S
C271 C269 1.388 . S
C271 C272 1.366 . S
C272 C271 1.366 . S
C272 C273 1.414 . S
C272 C275 1.499 . S
C273 H247 0.950 . S
C273 C272 1.414 . S
C273 C274 1.374 . S
C274 H248 0.950 . S
C274 C270 1.385 . S
C274 C273 1.374 . S
C275 C272 1.499 . S
C275 C276 1.373 . S
C275 C277 1.389 . S
C276 H249 0.950 . S
C276 C262 1.377 . S
C276 C275 1.373 . S
C277 C261 1.377 . S
C277 C275 1.389 . S
C277 C278 1.524 . S
C278 C277 1.524 . S
C278 C279 1.397 . S
C278 C283 1.363 . S
C279 H250 0.950 . S
C279 C278 1.397 . S
C279 C280 1.334 . S
C280 H251 0.950 . S
C280 C279 1.334 . S
C280 C281 1.287 . S
C281 C280 1.287 . S
C281 C282 1.524 . S
C281 H284 0.999 . S
C282 H252 0.950 . S
C282 C281 1.524 . S
C282 C283 1.415 . S
C283 H253 0.950 . S
C283 C278 1.363 . S
C283 C282 1.415 . S
H284 C281 0.999 . S
H285 C266 0.913 . S
H286 C304 0.951 . S
H287 C306 0.951 . S
H288 C308 0.950 . S
H289 C309 0.950 . S
H290 C311 0.950 . S
H291 C314 0.950 . S
H292 C315 0.950 . S
H293 C317 0.950 . S
H294 C318 0.950 . S
H295 C319 0.951 . S
H296 C321 0.951 . S
H297 C323 0.950 . S
H298 C324 0.950 . S
H299 C326 0.950 . S
H300 C329 0.950 . S
H301 C330 0.950 . S
H302 C332 0.950 . S
H303 C333 0.950 . S
C304 H286 0.951 . S
C304 C305 1.366 . S
C304 C306 1.388 . S
C305 C304 1.366 . S
C305 C309 1.385 . S
C306 H287 0.951 . S
C306 C304 1.388 . S
C306 C307 1.366 . S
C307 C306 1.366 . S
C307 C308 1.414 . S
C307 C310 1.499 . S
C308 H288 0.950 . S
C308 C307 1.414 . S
C308 C309 1.374 . S
C309 H289 0.950 . S
C309 C305 1.385 . S
C309 C308 1.374 . S
C310 C307 1.499 . S
C310 C311 1.373 . S
C310 C312 1.389 . S
C311 H290 0.950 . S
C311 C310 1.373 . S
C311 C327 1.377 . S
C312 C310 1.389 . S
C312 C313 1.524 . S
C312 C326 1.377 . S
C313 C312 1.524 . S
C313 C314 1.397 . S
C313 C318 1.363 . S
C314 H291 0.950 . S
C314 C313 1.397 . S
C314 C315 1.334 . S
C315 H292 0.950 . S
C315 C314 1.334 . S
C315 C316 1.287 . S
C316 C315 1.287 . S
C316 C317 1.524 . S
C316 H335 0.913 . S
C317 H293 0.950 . S
C317 C316 1.524 . S
C317 C318 1.415 . S
C318 H294 0.950 . S
C318 C313 1.363 . S
C318 C317 1.415 . S
C319 H295 0.951 . S
C319 C320 1.366 . S
C319 C321 1.388 . S
C320 C319 1.366 . S
C320 C324 1.385 . S
C321 H296 0.951 . S
C321 C319 1.388 . S
C321 C322 1.366 . S
C322 C321 1.366 . S
C322 C323 1.414 . S
C322 C325 1.499 . S
C323 H297 0.950 . S
C323 C322 1.414 . S
C323 C324 1.374 . S
C324 H298 0.950 . S
C324 C320 1.385 . S
C324 C323 1.374 . S
C325 C322 1.499 . S
C325 C326 1.373 . S
C325 C327 1.389 . S
C326 H299 0.950 . S
C326 C312 1.377 . S
C326 C325 1.373 . S
C327 C311 1.377 . S
C327 C325 1.389 . S
C327 C328 1.524 . S
C328 C327 1.524 . S
C328 C329 1.397 . S
C328 C333 1.363 . S
C329 H300 0.950 . S
C329 C328 1.397 . S
C329 C330 1.334 . S
C330 H301 0.950 . S
C330 C329 1.334 . S
C330 C331 1.287 . S
C331 C330 1.287 . S
C331 C332 1.524 . S
C331 H334 0.999 . S
C332 H302 0.950 . S
C332 C331 1.524 . S
C332 C333 1.415 . S
C333 H303 0.950 . S
C333 C328 1.363 . S
C333 C332 1.415 . S
H334 C331 0.999 . S
H335 C316 0.913 . S
H336 C354 0.951 . S
H337 C356 0.951 . S
H338 C358 0.950 . S
H339 C359 0.950 . S
H340 C361 0.950 . S
H341 C364 0.950 . S
H342 C365 0.950 . S
H343 C367 0.950 . S
H344 C368 0.950 . S
H345 C369 0.951 . S
H346 C371 0.951 . S
H347 C373 0.950 . S
H348 C374 0.950 . S
H349 C376 0.950 . S
H350 C379 0.950 . S
H351 C380 0.950 . S
H352 C382 0.950 . S
H353 C383 0.950 . S
C354 H336 0.951 . S
C354 C355 1.366 . S
C354 C356 1.388 . S
C355 C354 1.366 . S
C355 C359 1.385 . S
C356 H337 0.951 . S
C356 C354 1.388 . S
C356 C357 1.366 . S
C357 C356 1.366 . S
C357 C358 1.414 . S
C357 C360 1.499 . S
C358 H338 0.950 . S
C358 C357 1.414 . S
C358 C359 1.374 . S
C359 H339 0.950 . S
C359 C355 1.385 . S
C359 C358 1.374 . S
C360 C357 1.499 . S
C360 C361 1.373 . S
C360 C362 1.389 . S
C361 H340 0.950 . S
C361 C360 1.373 . S
C361 C377 1.377 . S
C362 C360 1.389 . S
C362 C363 1.524 . S
C362 C376 1.377 . S
C363 C362 1.524 . S
C363 C364 1.397 . S
C363 C368 1.363 . S
C364 H341 0.950 . S
C364 C363 1.397 . S
C364 C365 1.334 . S
C365 H342 0.950 . S
C365 C364 1.334 . S
C365 C366 1.287 . S
C366 C365 1.287 . S
C366 C367 1.524 . S
C366 H385 0.913 . S
C367 H343 0.950 . S
C367 C366 1.524 . S
C367 C368 1.415 . S
C368 H344 0.950 . S
C368 C363 1.363 . S
C368 C367 1.415 . S
C369 H345 0.951 . S
C369 C370 1.366 . S
C369 C371 1.388 . S
C370 C369 1.366 . S
C370 C374 1.385 . S
C371 H346 0.951 . S
C371 C369 1.388 . S
C371 C372 1.366 . S
C372 C371 1.366 . S
C372 C373 1.414 . S
C372 C375 1.499 . S
C373 H347 0.950 . S
C373 C372 1.414 . S
C373 C374 1.374 . S
C374 H348 0.950 . S
C374 C370 1.385 . S
C374 C373 1.374 . S
C375 C372 1.499 . S
C375 C376 1.373 . S
C375 C377 1.389 . S
C376 H349 0.950 . S
C376 C362 1.377 . S
C376 C375 1.373 . S
C377 C361 1.377 . S
C377 C375 1.389 . S
C377 C378 1.524 . S
C378 C377 1.524 . S
C378 C379 1.397 . S
C378 C383 1.363 . S
C379 H350 0.950 . S
C379 C378 1.397 . S
C379 C380 1.334 . S
C380 H351 0.950 . S
C380 C379 1.334 . S
C380 C381 1.287 . S
C381 C380 1.287 . S
C381 C382 1.524 . S
C381 H384 0.999 . S
C382 H352 0.950 . S
C382 C381 1.524 . S
C382 C383 1.415 . S
C383 H353 0.950 . S
C383 C378 1.363 . S
C383 C382 1.415 . S
H384 C381 0.999 . S
H385 C366 0.913 . S
H386 C404 0.951 . S
H387 C406 0.951 . S
H388 C408 0.950 . S
H389 C409 0.950 . S
H390 C411 0.950 . S
H391 C414 0.950 . S
H392 C415 0.950 . S
H393 C417 0.950 . S
H394 C418 0.950 . S
H395 C419 0.951 . S
H396 C421 0.951 . S
H397 C423 0.950 . S
H398 C424 0.950 . S
H399 C426 0.950 . S
H400 C429 0.950 . S
H401 C430 0.950 . S
H402 C432 0.950 . S
H403 C433 0.950 . S
C404 H386 0.951 . S
C404 C405 1.366 . S
C404 C406 1.388 . S
C405 C404 1.366 . S
C405 C409 1.385 . S
C406 H387 0.951 . S
C406 C404 1.388 . S
C406 C407 1.366 . S
C407 C406 1.366 . S
C407 C408 1.414 . S
C407 C410 1.499 . S
C408 H388 0.950 . S
C408 C407 1.414 . S
C408 C409 1.374 . S
C409 H389 0.950 . S
C409 C405 1.385 . S
C409 C408 1.374 . S
C410 C407 1.499 . S
C410 C411 1.373 . S
C410 C412 1.389 . S
C411 H390 0.950 . S
C411 C410 1.373 . S
C411 C427 1.377 . S
C412 C410 1.389 . S
C412 C413 1.524 . S
C412 C426 1.377 . S
C413 C412 1.524 . S
C413 C414 1.397 . S
C413 C418 1.363 . S
C414 H391 0.950 . S
C414 C413 1.397 . S
C414 C415 1.334 . S
C415 H392 0.950 . S
C415 C414 1.334 . S
C415 C416 1.287 . S
C416 C415 1.287 . S
C416 C417 1.524 . S
C416 H435 0.913 . S
C417 H393 0.950 . S
C417 C416 1.524 . S
C417 C418 1.415 . S
C418 H394 0.950 . S
C418 C413 1.363 . S
C418 C417 1.415 . S
C419 H395 0.951 . S
C419 C420 1.366 . S
C419 C421 1.388 . S
C420 C419 1.366 . S
C420 C424 1.385 . S
C421 H396 0.951 . S
C421 C419 1.388 . S
C421 C422 1.366 . S
C422 C421 1.366 . S
C422 C423 1.414 . S
C422 C425 1.499 . S
C423 H397 0.950 . S
C423 C422 1.414 . S
C423 C424 1.374 . S
C424 H398 0.950 . S
C424 C420 1.385 . S
C424 C423 1.374 . S
C425 C422 1.499 . S
C425 C426 1.373 . S
C425 C427 1.389 . S
C426 H399 0.950 . S
C426 C412 1.377 . S
C426 C425 1.373 . S
C427 C411 1.377 . S
C427 C425 1.389 . S
C427 C428 1.524 . S
C428 C427 1.524 . S
C428 C429 1.397 . S
C428 C433 1.363 . S
C429 H400 0.950 . S
C429 C428 1.397 . S
C429 C430 1.334 . S
C430 H401 0.950 . S
C430 C429 1.334 . S
C430 C431 1.287 . S
C431 C430 1.287 . S
C431 C432 1.524 . S
C431 H434 0.999 . S
C432 H402 0.950 . S
C432 C431 1.524 . S
C432 C433 1.415 . S
C433 H403 0.950 . S
C433 C428 1.363 . S
C433 C432 1.415 . S
H434 C431 0.999 . S
H435 C416 0.913 . S
H436 C454 0.951 . S
H437 C456 0.951 . S
H438 C458 0.950 . S
H439 C459 0.950 . S
H440 C461 0.950 . S
H441 C464 0.950 . S
H442 C465 0.950 . S
H443 C467 0.950 . S
H444 C468 0.950 . S
H445 C469 0.951 . S
H446 C471 0.951 . S
H447 C473 0.950 . S
H448 C474 0.950 . S
H449 C476 0.950 . S
H450 C479 0.950 . S
H451 C480 0.950 . S
H452 C482 0.950 . S
H453 C483 0.950 . S
C454 H436 0.951 . S
C454 C455 1.366 . S
C454 C456 1.388 . S
C455 C454 1.366 . S
C455 C459 1.385 . S
C456 H437 0.951 . S
C456 C454 1.388 . S
C456 C457 1.366 . S
C457 C456 1.366 . S
C457 C458 1.414 . S
C457 C460 1.499 . S
C458 H438 0.950 . S
C458 C457 1.414 . S
C458 C459 1.374 . S
C459 H439 0.950 . S
C459 C455 1.385 . S
C459 C458 1.374 . S
C460 C457 1.499 . S
C460 C461 1.373 . S
C460 C462 1.389 . S
C461 H440 0.950 . S
C461 C460 1.373 . S
C461 C477 1.377 . S
C462 C460 1.389 . S
C462 C463 1.524 . S
C462 C476 1.377 . S
C463 C462 1.524 . S
C463 C464 1.397 . S
C463 C468 1.363 . S
C464 H441 0.950 . S
C464 C463 1.397 . S
C464 C465 1.334 . S
C465 H442 0.950 . S
C465 C464 1.334 . S
C465 C466 1.287 . S
C466 C465 1.287 . S
C466 C467 1.524 . S
C466 H485 0.913 . S
C467 H443 0.950 . S
C467 C466 1.524 . S
C467 C468 1.415 . S
C468 H444 0.950 . S
C468 C463 1.363 . S
C468 C467 1.415 . S
C469 H445 0.951 . S
C469 C470 1.366 . S
C469 C471 1.388 . S
C470 C469 1.366 . S
C470 C474 1.385 . S
C471 H446 0.951 . S
C471 C469 1.388 . S
C471 C472 1.366 . S
C472 C471 1.366 . S
C472 C473 1.414 . S
C472 C475 1.499 . S
C473 H447 0.950 . S
C473 C472 1.414 . S
C473 C474 1.374 . S
C474 H448 0.950 . S
C474 C470 1.385 . S
C474 C473 1.374 . S
C475 C472 1.499 . S
C475 C476 1.373 . S
C475 C477 1.389 . S
C476 H449 0.950 . S
C476 C462 1.377 . S
C476 C475 1.373 . S
C477 C461 1.377 . S
C477 C475 1.389 . S
C477 C478 1.524 . S
C478 C477 1.524 . S
C478 C479 1.397 . S
C478 C483 1.363 . S
C479 H450 0.950 . S
C479 C478 1.397 . S
C479 C480 1.334 . S
C480 H451 0.950 . S
C480 C479 1.334 . S
C480 C481 1.287 . S
C481 C480 1.287 . S
C481 C482 1.524 . S
C481 H484 0.999 . S
C482 H452 0.950 . S
C482 C481 1.524 . S
C482 C483 1.415 . S
C483 H453 0.950 . S
C483 C478 1.363 . S
C483 C482 1.415 . S
H484 C481 0.999 . S
H485 C466 0.913 . S
H486 C504 0.951 . S
H487 C506 0.951 . S
H488 C508 0.950 . S
H489 C509 0.950 . S
H490 C511 0.950 . S
H491 C514 0.950 . S
H492 C515 0.950 . S
H493 C517 0.950 . S
H494 C518 0.950 . S
H495 C519 0.951 . S
H496 C521 0.951 . S
H497 C523 0.950 . S
H498 C524 0.950 . S
H499 C526 0.950 . S
H500 C529 0.950 . S
H501 C530 0.950 . S
H502 C532 0.950 . S
H503 C533 0.950 . S
C504 H486 0.951 . S
C504 C505 1.366 . S
C504 C506 1.388 . S
C505 C504 1.366 . S
C505 C509 1.385 . S
C506 H487 0.951 . S
C506 C504 1.388 . S
C506 C507 1.366 . S
C507 C506 1.366 . S
C507 C508 1.414 . S
C507 C510 1.499 . S
C508 H488 0.950 . S
C508 C507 1.414 . S
C508 C509 1.374 . S
C509 H489 0.950 . S
C509 C505 1.385 . S
C509 C508 1.374 . S
C510 C507 1.499 . S
C510 C511 1.373 . S
C510 C512 1.389 . S
C511 H490 0.950 . S
C511 C510 1.373 . S
C511 C527 1.377 . S
C512 C510 1.389 . S
C512 C513 1.524 . S
C512 C526 1.377 . S
C513 C512 1.524 . S
C513 C514 1.397 . S
C513 C518 1.363 . S
C514 H491 0.950 . S
C514 C513 1.397 . S
C514 C515 1.334 . S
C515 H492 0.950 . S
C515 C514 1.334 . S
C515 C516 1.287 . S
C516 C515 1.287 . S
C516 C517 1.524 . S
C516 H535 0.913 . S
C517 H493 0.950 . S
C517 C516 1.524 . S
C517 C518 1.415 . S
C518 H494 0.950 . S
C518 C513 1.363 . S
C518 C517 1.415 . S
C519 H495 0.951 . S
C519 C520 1.366 . S
C519 C521 1.388 . S
C520 C519 1.366 . S
C520 C524 1.385 . S
C521 H496 0.951 . S
C521 C519 1.388 . S
C521 C522 1.366 . S
C522 C521 1.366 . S
C522 C523 1.414 . S
C522 C525 1.499 . S
C523 H497 0.950 . S
C523 C522 1.414 . S
C523 C524 1.374 . S
C524 H498 0.950 . S
C524 C520 1.385 . S
C524 C523 1.374 . S
C525 C522 1.499 . S
C525 C526 1.373 . S
C525 C527 1.389 . S
C526 H499 0.950 . S
C526 C512 1.377 . S
C526 C525 1.373 . S
C527 C511 1.377 . S
C527 C525 1.389 . S
C527 C528 1.524 . S
C528 C527 1.524 . S
C528 C529 1.397 . S
C528 C533 1.363 . S
C529 H500 0.950 . S
C529 C528 1.397 . S
C529 C530 1.334 . S
C530 H501 0.950 . S
C530 C529 1.334 . S
C530 C531 1.287 . S
C531 C530 1.287 . S
C531 C532 1.524 . S
C531 H534 0.999 . S
C532 H502 0.950 . S
C532 C531 1.524 . S
C532 C533 1.415 . S
C533 H503 0.950 . S
C533 C528 1.363 . S
C533 C532 1.415 . S
H534 C531 0.999 . S
H535 C516 0.913 . S
H536 C554 0.951 . S
H537 C556 0.951 . S
H538 C558 0.950 . S
H539 C559 0.950 . S
H540 C561 0.950 . S
H541 C564 0.950 . S
H542 C565 0.950 . S
H543 C567 0.950 . S
H544 C568 0.950 . S
H545 C569 0.951 . S
H546 C571 0.951 . S
H547 C573 0.950 . S
H548 C574 0.950 . S
H549 C576 0.950 . S
H550 C579 0.950 . S
H551 C580 0.950 . S
H552 C582 0.950 . S
H553 C583 0.950 . S
C554 H536 0.951 . S
C554 C555 1.366 . S
C554 C556 1.388 . S
C555 C554 1.366 . S
C555 C559 1.385 . S
C556 H537 0.951 . S
C556 C554 1.388 . S
C556 C557 1.366 . S
C557 C556 1.366 . S
C557 C558 1.414 . S
C557 C560 1.499 . S
C558 H538 0.950 . S
C558 C557 1.414 . S
C558 C559 1.374 . S
C559 H539 0.950 . S
C559 C555 1.385 . S
C559 C558 1.374 . S
C560 C557 1.499 . S
C560 C561 1.373 . S
C560 C562 1.389 . S
C561 H540 0.950 . S
C561 C560 1.373 . S
C561 C577 1.377 . S
C562 C560 1.389 . S
C562 C563 1.524 . S
C562 C576 1.377 . S
C563 C562 1.524 . S
C563 C564 1.397 . S
C563 C568 1.363 . S
C564 H541 0.950 . S
C564 C563 1.397 . S
C564 C565 1.334 . S
C565 H542 0.950 . S
C565 C564 1.334 . S
C565 C566 1.287 . S
C566 C565 1.287 . S
C566 C567 1.524 . S
C566 H585 0.913 . S
C567 H543 0.950 . S
C567 C566 1.524 . S
C567 C568 1.415 . S
C568 H544 0.950 . S
C568 C563 1.363 . S
C568 C567 1.415 . S
C569 H545 0.951 . S
C569 C570 1.366 . S
C569 C571 1.388 . S
C570 C569 1.366 . S
C570 C574 1.385 . S
C571 H546 0.951 . S
C571 C569 1.388 . S
C571 C572 1.366 . S
C572 C571 1.366 . S
C572 C573 1.414 . S
C572 C575 1.499 . S
C573 H547 0.950 . S
C573 C572 1.414 . S
C573 C574 1.374 . S
C574 H548 0.950 . S
C574 C570 1.385 . S
C574 C573 1.374 . S
C575 C572 1.499 . S
C575 C576 1.373 . S
C575 C577 1.389 . S
C576 H549 0.950 . S
C576 C562 1.377 . S
C576 C575 1.373 . S
C577 C561 1.377 . S
C577 C575 1.389 . S
C577 C578 1.524 . S
C578 C577 1.524 . S
C578 C579 1.397 . S
C578 C583 1.363 . S
C579 H550 0.950 . S
C579 C578 1.397 . S
C579 C580 1.334 . S
C580 H551 0.950 . S
C580 C579 1.334 . S
C580 C581 1.287 . S
C581 C580 1.287 . S
C581 C582 1.524 . S
C581 H584 0.999 . S
C582 H552 0.950 . S
C582 C581 1.524 . S
C582 C583 1.415 . S
C583 H553 0.950 . S
C583 C578 1.363 . S
C583 C582 1.415 . S
H584 C581 0.999 . S
H585 C566 0.913 . S
H586 C604 0.951 . S
H587 C606 0.951 . S
H588 C608 0.950 . S
H589 C609 0.950 . S
H590 C611 0.950 . S
H591 C614 0.950 . S
H592 C615 0.950 . S
H593 C617 0.950 . S
H594 C618 0.950 . S
H595 C619 0.951 . S
H596 C621 0.951 . S
H597 C623 0.950 . S
H598 C624 0.950 . S
H599 C626 0.950 . S
H600 C629 0.950 . S
H601 C630 0.950 . S
H602 C632 0.950 . S
H603 C633 0.950 . S
C604 H586 0.951 . S
C604 C605 1.366 . S
C604 C606 1.388 . S
C605 C604 1.366 . S
C605 C609 1.385 . S
C606 H587 0.951 . S
C606 C604 1.388 . S
C606 C607 1.366 . S
C607 C606 1.366 . S
C607 C608 1.414 . S
C607 C610 1.499 . S
C608 H588 0.950 . S
C608 C607 1.414 . S
C608 C609 1.374 . S
C609 H589 0.950 . S
C609 C605 1.385 . S
C609 C608 1.374 . S
C610 C607 1.499 . S
C610 C611 1.373 . S
C610 C612 1.389 . S
C611 H590 0.950 . S
C611 C610 1.373 . S
C611 C627 1.377 . S
C612 C610 1.389 . S
C612 C613 1.524 . S
C612 C626 1.377 . S
C613 C612 1.524 . S
C613 C614 1.397 . S
C613 C618 1.363 . S
C614 H591 0.950 . S
C614 C613 1.397 . S
C614 C615 1.334 . S
C615 H592 0.950 . S
C615 C614 1.334 . S
C615 C616 1.287 . S
C616 C615 1.287 . S
C616 C617 1.524 . S
C616 H635 0.913 . S
C617 H593 0.950 . S
C617 C616 1.524 . S
C617 C618 1.415 . S
C618 H594 0.950 . S
C618 C613 1.363 . S
C618 C617 1.415 . S
C619 H595 0.951 . S
C619 C620 1.366 . S
C619 C621 1.388 . S
C620 C619 1.366 . S
C620 C624 1.385 . S
C621 H596 0.951 . S
C621 C619 1.388 . S
C621 C622 1.366 . S
C622 C621 1.366 . S
C622 C623 1.414 . S
C622 C625 1.499 . S
C623 H597 0.950 . S
C623 C622 1.414 . S
C623 C624 1.374 . S
C624 H598 0.950 . S
C624 C620 1.385 . S
C624 C623 1.374 . S
C625 C622 1.499 . S
C625 C626 1.373 . S
C625 C627 1.389 . S
C626 H599 0.950 . S
C626 C612 1.377 . S
C626 C625 1.373 . S
C627 C611 1.377 . S
C627 C625 1.389 . S
C627 C628 1.524 . S
C628 C627 1.524 . S
C628 C629 1.397 . S
C628 C633 1.363 . S
C629 H600 0.950 . S
C629 C628 1.397 . S
C629 C630 1.334 . S
C630 H601 0.950 . S
C630 C629 1.334 . S
C630 C631 1.287 . S
C631 C630 1.287 . S
C631 C632 1.524 . S
C631 H634 0.999 . S
C632 H602 0.950 . S
C632 C631 1.524 . S
C632 C633 1.415 . S
C633 H603 0.950 . S
C633 C628 1.363 . S
C633 C632 1.415 . S
H634 C631 0.999 . S
H635 C616 0.913 . S
H636 C654 0.951 . S
H637 C656 0.951 . S
H638 C658 0.950 . S
H639 C659 0.950 . S
H640 C661 0.950 . S
H641 C664 0.950 . S
H642 C665 0.950 . S
H643 C667 0.950 . S
H644 C668 0.950 . S
H645 C669 0.951 . S
H646 C671 0.951 . S
H647 C673 0.950 . S
H648 C674 0.950 . S
H649 C676 0.950 . S
H650 C679 0.950 . S
H651 C680 0.950 . S
H652 C682 0.950 . S
H653 C683 0.950 . S
C654 H636 0.951 . S
C654 C655 1.366 . S
C654 C656 1.388 . S
C655 C654 1.366 . S
C655 C659 1.385 . S
C656 H637 0.951 . S
C656 C654 1.388 . S
C656 C657 1.366 . S
C657 C656 1.366 . S
C657 C658 1.414 . S
C657 C660 1.499 . S
C658 H638 0.950 . S
C658 C657 1.414 . S
C658 C659 1.374 . S
C659 H639 0.950 . S
C659 C655 1.385 . S
C659 C658 1.374 . S
C660 C657 1.499 . S
C660 C661 1.373 . S
C660 C662 1.389 . S
C661 H640 0.950 . S
C661 C660 1.373 . S
C661 C677 1.377 . S
C662 C660 1.389 . S
C662 C663 1.524 . S
C662 C676 1.377 . S
C663 C662 1.524 . S
C663 C664 1.397 . S
C663 C668 1.363 . S
C664 H641 0.950 . S
C664 C663 1.397 . S
C664 C665 1.334 . S
C665 H642 0.950 . S
C665 C664 1.334 . S
C665 C666 1.287 . S
C666 C665 1.287 . S
C666 C667 1.524 . S
C666 H685 0.913 . S
C667 H643 0.950 . S
C667 C666 1.524 . S
C667 C668 1.415 . S
C668 H644 0.950 . S
C668 C663 1.363 . S
C668 C667 1.415 . S
C669 H645 0.951 . S
C669 C670 1.366 . S
C669 C671 1.388 . S
C670 C669 1.366 . S
C670 C674 1.385 . S
C671 H646 0.951 . S
C671 C669 1.388 . S
C671 C672 1.366 . S
C672 C671 1.366 . S
C672 C673 1.414 . S
C672 C675 1.499 . S
C673 H647 0.950 . S
C673 C672 1.414 . S
C673 C674 1.374 . S
C674 H648 0.950 . S
C674 C670 1.385 . S
C674 C673 1.374 . S
C675 C672 1.499 . S
C675 C676 1.373 . S
C675 C677 1.389 . S
C676 H649 0.950 . S
C676 C662 1.377 . S
C676 C675 1.373 . S
C677 C661 1.377 . S
C677 C675 1.389 . S
C677 C678 1.524 . S
C678 C677 1.524 . S
C678 C679 1.397 . S
C678 C683 1.363 . S
C679 H650 0.950 . S
C679 C678 1.397 . S
C679 C680 1.334 . S
C680 H651 0.950 . S
C680 C679 1.334 . S
C680 C681 1.287 . S
C681 C680 1.287 . S
C681 C682 1.524 . S
C681 H684 0.999 . S
C682 H652 0.950 . S
C682 C681 1.524 . S
C682 C683 1.415 . S
C683 H653 0.950 . S
C683 C678 1.363 . S
C683 C682 1.415 . S
H684 C681 0.999 . S
H685 C666 0.913 . S
H686 C704 0.951 . S
H687 C706 0.951 . S
H688 C708 0.950 . S
H689 C709 0.950 . S
H690 C711 0.950 . S
H691 C714 0.950 . S
H692 C715 0.950 . S
H693 C717 0.950 . S
H694 C718 0.950 . S
H695 C719 0.951 . S
H696 C721 0.951 . S
H697 C723 0.950 . S
H698 C724 0.950 . S
H699 C726 0.950 . S
H700 C729 0.950 . S
H701 C730 0.950 . S
H702 C732 0.950 . S
H703 C733 0.950 . S
C704 H686 0.951 . S
C704 C705 1.366 . S
C704 C706 1.388 . S
C705 C704 1.366 . S
C705 C709 1.385 . S
C706 H687 0.951 . S
C706 C704 1.388 . S
C706 C707 1.366 . S
C707 C706 1.366 . S
C707 C708 1.414 . S
C707 C710 1.499 . S
C708 H688 0.950 . S
C708 C707 1.414 . S
C708 C709 1.374 . S
C709 H689 0.950 . S
C709 C705 1.385 . S
C709 C708 1.374 . S
C710 C707 1.499 . S
C710 C711 1.373 . S
C710 C712 1.389 . S
C711 H690 0.950 . S
C711 C710 1.373 . S
C711 C727 1.377 . S
C712 C710 1.389 . S
C712 C713 1.524 . S
C712 C726 1.377 . S
C713 C712 1.524 . S
C713 C714 1.397 . S
C713 C718 1.363 . S
C714 H691 0.950 . S
C714 C713 1.397 . S
C714 C715 1.334 . S
C715 H692 0.950 . S
C715 C714 1.334 . S
C715 C716 1.287 . S
C716 C715 1.287 . S
C716 C717 1.524 . S
C716 H735 0.913 . S
C717 H693 0.950 . S
C717 C716 1.524 . S
C717 C718 1.415 . S
C718 H694 0.950 . S
C718 C713 1.363 . S
C718 C717 1.415 . S
C719 H695 0.951 . S
C719 C720 1.366 . S
C719 C721 1.388 . S
C720 C719 1.366 . S
C720 C724 1.385 . S
C721 H696 0.951 . S
C721 C719 1.388 . S
C721 C722 1.366 . S
C722 C721 1.366 . S
C722 C723 1.414 . S
C722 C725 1.499 . S
C723 H697 0.950 . S
C723 C722 1.414 . S
C723 C724 1.374 . S
C724 H698 0.950 . S
C724 C720 1.385 . S
C724 C723 1.374 . S
C725 C722 1.499 . S
C725 C726 1.373 . S
C725 C727 1.389 . S
C726 H699 0.950 . S
C726 C712 1.377 . S
C726 C725 1.373 . S
C727 C711 1.377 . S
C727 C725 1.389 . S
C727 C728 1.524 . S
C728 C727 1.524 . S
C728 C729 1.397 . S
C728 C733 1.363 . S
C729 H700 0.950 . S
C729 C728 1.397 . S
C729 C730 1.334 . S
C730 H701 0.950 . S
C730 C729 1.334 . S
C730 C731 1.287 . S
C731 C730 1.287 . S
C731 C732 1.524 . S
C731 H734 0.999 . S
C732 H702 0.950 . S
C732 C731 1.524 . S
C732 C733 1.415 . S
C733 H703 0.950 . S
C733 C728 1.363 . S
C733 C732 1.415 . S
H734 C731 0.999 . S
H735 C716 0.913 . S
H736 C754 0.951 . S
H737 C756 0.951 . S
H738 C758 0.950 . S
H739 C759 0.950 . S
H740 C761 0.950 . S
H741 C764 0.950 . S
H742 C765 0.950 . S
H743 C767 0.950 . S
H744 C768 0.950 . S
H745 C769 0.951 . S
H746 C771 0.951 . S
H747 C773 0.950 . S
H748 C774 0.950 . S
H749 C776 0.950 . S
H750 C779 0.950 . S
H751 C780 0.950 . S
H752 C782 0.950 . S
H753 C783 0.950 . S
C754 H736 0.951 . S
C754 C755 1.366 . S
C754 C756 1.388 . S
C755 C754 1.366 . S
C755 C759 1.385 . S
C756 H737 0.951 . S
C756 C754 1.388 . S
C756 C757 1.366 . S
C757 C756 1.366 . S
C757 C758 1.414 . S
C757 C760 1.499 . S
C758 H738 0.950 . S
C758 C757 1.414 . S
C758 C759 1.374 . S
C759 H739 0.950 . S
C759 C755 1.385 . S
C759 C758 1.374 . S
C760 C757 1.499 . S
C760 C761 1.373 . S
C760 C762 1.389 . S
C761 H740 0.950 . S
C761 C760 1.373 . S
C761 C777 1.377 . S
C762 C760 1.389 . S
C762 C763 1.524 . S
C762 C776 1.377 . S
C763 C762 1.524 . S
C763 C764 1.397 . S
C763 C768 1.363 . S
C764 H741 0.950 . S
C764 C763 1.397 . S
C764 C765 1.334 . S
C765 H742 0.950 . S
C765 C764 1.334 . S
C765 C766 1.287 . S
C766 C765 1.287 . S
C766 C767 1.524 . S
C766 H785 0.913 . S
C767 H743 0.950 . S
C767 C766 1.524 . S
C767 C768 1.415 . S
C768 H744 0.950 . S
C768 C763 1.363 . S
C768 C767 1.415 . S
C769 H745 0.951 . S
C769 C770 1.366 . S
C769 C771 1.388 . S
C770 C769 1.366 . S
C770 C774 1.385 . S
C771 H746 0.951 . S
C771 C769 1.388 . S
C771 C772 1.366 . S
C772 C771 1.366 . S
C772 C773 1.414 . S
C772 C775 1.499 . S
C773 H747 0.950 . S
C773 C772 1.414 . S
C773 C774 1.374 . S
C774 H748 0.950 . S
C774 C770 1.385 . S
C774 C773 1.374 . S
C775 C772 1.499 . S
C775 C776 1.373 . S
C775 C777 1.389 . S
C776 H749 0.950 . S
C776 C762 1.377 . S
C776 C775 1.373 . S
C777 C761 1.377 . S
C777 C775 1.389 . S
C777 C778 1.524 . S
C778 C777 1.524 . S
C778 C779 1.397 . S
C778 C783 1.363 . S
C779 H750 0.950 . S
C779 C778 1.397 . S
C779 C780 1.334 . S
C780 H751 0.950 . S
C780 C779 1.334 . S
C780 C781 1.287 . S
C781 C780 1.287 . S
C781 C782 1.524 . S
C781 H784 0.999 . S
C782 H752 0.950 . S
C782 C781 1.524 . S
C782 C783 1.415 . S
C783 H753 0.950 . S
C783 C778 1.363 . S
C783 C782 1.415 . S
H784 C781 0.999 . S
H785 C766 0.913 . S
H786 C804 0.951 1_655 S
H787 C806 0.951 1_655 S
H788 C808 0.950 . S
H789 C809 0.950 . S
H790 C811 0.950 . S
H791 C814 0.950 . S
H792 C815 0.950 . S
H793 C817 0.950 . S
H794 C818 0.950 . S
H795 C819 0.951 . S
H796 C821 0.951 . S
H797 C823 0.950 1_655 S
H798 C824 0.950 1_655 S
H799 C826 0.950 1_556 S
H800 C829 0.950 . S
H801 C830 0.950 . S
H802 C832 0.950 . S
H803 C833 0.950 . S
C804 H786 0.951 1_455 S
C804 C805 1.366 . S
C804 C806 1.388 . S
C805 C804 1.366 . S
C805 C809 1.385 . S
C806 H787 0.951 1_455 S
C806 C804 1.388 . S
C806 C807 1.366 . S
C807 C806 1.366 . S
C807 C808 1.414 . S
C807 C810 1.499 . S
C808 H788 0.950 . S
C808 C807 1.414 . S
C808 C809 1.374 . S
C809 H789 0.950 . S
C809 C805 1.385 . S
C809 C808 1.374 . S
C810 C807 1.499 . S
C810 C811 1.373 . S
C810 C812 1.389 . S
C811 H790 0.950 . S
C811 C810 1.373 . S
C811 C827 1.377 . S
C812 C810 1.389 . S
C812 C813 1.524 . S
C812 C826 1.377 . S
C813 C812 1.524 . S
C813 C814 1.397 . S
C813 C818 1.363 . S
C814 H791 0.950 . S
C814 C813 1.397 . S
C814 C815 1.334 . S
C815 H792 0.950 . S
C815 C814 1.334 . S
C815 C816 1.287 . S
C816 C815 1.287 . S
C816 C817 1.524 . S
C816 H835 0.913 . S
C817 H793 0.950 . S
C817 C816 1.524 . S
C817 C818 1.415 . S
C818 H794 0.950 . S
C818 C813 1.363 . S
C818 C817 1.415 . S
C819 H795 0.951 . S
C819 C820 1.366 . S
C819 C821 1.388 . S
C820 C819 1.366 . S
C820 C824 1.385 . S
C821 H796 0.951 . S
C821 C819 1.388 . S
C821 C822 1.366 . S
C822 C821 1.366 . S
C822 C823 1.414 . S
C822 C825 1.499 . S
C823 H797 0.950 1_455 S
C823 C822 1.414 . S
C823 C824 1.374 . S
C824 H798 0.950 1_455 S
C824 C820 1.385 . S
C824 C823 1.374 . S
C825 C822 1.499 . S
C825 C826 1.373 1_556 S
C825 C827 1.389 1_556 S
C826 H799 0.950 1_554 S
C826 C812 1.377 . S
C826 C825 1.373 1_554 S
C827 C811 1.377 . S
C827 C825 1.389 1_554 S
C827 C828 1.524 . S
C828 C827 1.524 . S
C828 C829 1.397 1_454 S
C828 C833 1.363 . S
C829 H800 0.950 . S
C829 C828 1.397 1_656 S
C829 C830 1.334 . S
C830 H801 0.950 . S
C830 C829 1.334 . S
C830 C831 1.287 . S
C831 C830 1.287 . S
C831 C832 1.524 1_656 S
C831 H834 0.999 . S
C832 H802 0.950 . S
C832 C831 1.524 1_454 S
C832 C833 1.415 . S
C833 H803 0.950 . S
C833 C828 1.363 . S
C833 C832 1.415 . S
H834 C831 0.999 . S
H835 C816 0.913 . S
H836 C854 0.951 . S
H837 C856 0.951 . S
H838 C858 0.950 . S
H839 C859 0.950 . S
H840 C861 0.950 . S
H841 C864 0.950 . S
H842 C865 0.950 . S
H843 C867 0.950 . S
H844 C868 0.950 . S
H845 C869 0.951 . S
H846 C871 0.951 . S
H847 C873 0.950 . S
H848 C874 0.950 . S
H849 C876 0.950 . S
H850 C879 0.950 . S
H851 C880 0.950 . S
H852 C882 0.950 . S
H853 C883 0.950 . S
C854 H836 0.951 . S
C854 C855 1.366 . S
C854 C856 1.388 . S
C855 C854 1.366 . S
C855 C859 1.385 1_545 S
C856 H837 0.951 . S
C856 C854 1.388 . S
C856 C857 1.366 . S
C857 C856 1.366 . S
C857 C858 1.414 1_545 S
C857 C860 1.499 . S
C858 H838 0.950 . S
C858 C857 1.414 1_565 S
C858 C859 1.374 . S
C859 H839 0.950 . S
C859 C855 1.385 1_565 S
C859 C858 1.374 . S
C860 C857 1.499 . S
C860 C861 1.373 1_545 S
C860 C862 1.389 . S
C861 H840 0.950 . S
C861 C860 1.373 1_565 S
C861 C877 1.377 . S
C862 C860 1.389 . S
C862 C863 1.524 . S
C862 C876 1.377 . S
C863 C862 1.524 . S
C863 C864 1.397 . S
C863 C868 1.363 . S
C864 H841 0.950 . S
C864 C863 1.397 . S
C864 C865 1.334 . S
C865 H842 0.950 . S
C865 C864 1.334 . S
C865 C866 1.287 . S
C866 C865 1.287 . S
C866 C867 1.524 . S
C866 H885 0.913 . S
C867 H843 0.950 . S
C867 C866 1.524 . S
C867 C868 1.415 . S
C868 H844 0.950 . S
C868 C863 1.363 . S
C868 C867 1.415 . S
C869 H845 0.951 . S
C869 C870 1.366 1_565 S
C869 C871 1.388 . S
C870 C869 1.366 1_545 S
C870 C874 1.385 . S
C871 H846 0.951 . S
C871 C869 1.388 . S
C871 C872 1.366 1_565 S
C872 C871 1.366 1_545 S
C872 C873 1.414 . S
C872 C875 1.499 . S
C873 H847 0.950 . S
C873 C872 1.414 . S
C873 C874 1.374 . S
C874 H848 0.950 . S
C874 C870 1.385 . S
C874 C873 1.374 . S
C875 C872 1.499 . S
C875 C876 1.373 . S
C875 C877 1.389 1_545 S
C876 H849 0.950 . S
C876 C862 1.377 . S
C876 C875 1.373 . S
C877 C861 1.377 . S
C877 C875 1.389 1_565 S
C877 C878 1.524 . S
C878 C877 1.524 . S
C878 C879 1.397 . S
C878 C883 1.363 . S
C879 H850 0.950 . S
C879 C878 1.397 . S
C879 C880 1.334 . S
C880 H851 0.950 . S
C880 C879 1.334 . S
C880 C881 1.287 . S
C881 C880 1.287 . S
C881 C882 1.524 . S
C881 H884 0.999 . S
C882 H852 0.950 . S
C882 C881 1.524 . S
C882 C883 1.415 . S
C883 H853 0.950 . S
C883 C878 1.363 . S
C883 C882 1.415 . S
H884 C881 0.999 . S
H885 C866 0.913 . S
H886 C904 0.951 . S
H887 C906 0.951 . S
H888 C908 0.950 . S
H889 C909 0.950 . S
H890 C911 0.950 . S
H891 C914 0.950 . S
H892 C915 0.950 . S
H893 C917 0.950 . S
H894 C918 0.950 . S
H895 C919 0.951 . S
H896 C921 0.951 . S
H897 C923 0.950 . S
H898 C924 0.950 . S
H899 C926 0.950 . S
H900 C929 0.950 . S
H901 C930 0.950 . S
H902 C932 0.950 . S
H903 C933 0.950 . S
C904 H886 0.951 . S
C904 C905 1.366 . S
C904 C906 1.388 . S
C905 C904 1.366 . S
C905 C909 1.385 . S
C906 H887 0.951 . S
C906 C904 1.388 . S
C906 C907 1.366 . S
C907 C906 1.366 . S
C907 C908 1.414 . S
C907 C910 1.499 . S
C908 H888 0.950 . S
C908 C907 1.414 . S
C908 C909 1.374 . S
C909 H889 0.950 . S
C909 C905 1.385 . S
C909 C908 1.374 . S
C910 C907 1.499 . S
C910 C911 1.373 . S
C910 C912 1.389 . S
C911 H890 0.950 . S
C911 C910 1.373 . S
C911 C927 1.377 . S
C912 C910 1.389 . S
C912 C913 1.524 . S
C912 C926 1.377 . S
C913 C912 1.524 . S
C913 C914 1.397 . S
C913 C918 1.363 . S
C914 H891 0.950 . S
C914 C913 1.397 . S
C914 C915 1.334 . S
C915 H892 0.950 . S
C915 C914 1.334 . S
C915 C916 1.287 . S
C916 C915 1.287 . S
C916 C917 1.524 . S
C916 H935 0.913 . S
C917 H893 0.950 . S
C917 C916 1.524 . S
C917 C918 1.415 . S
C918 H894 0.950 . S
C918 C913 1.363 . S
C918 C917 1.415 . S
C919 H895 0.951 . S
C919 C920 1.366 . S
C919 C921 1.388 . S
C920 C919 1.366 . S
C920 C924 1.385 . S
C921 H896 0.951 . S
C921 C919 1.388 . S
C921 C922 1.366 . S
C922 C921 1.366 . S
C922 C923 1.414 . S
C922 C925 1.499 . S
C923 H897 0.950 . S
C923 C922 1.414 . S
C923 C924 1.374 . S
C924 H898 0.950 . S
C924 C920 1.385 . S
C924 C923 1.374 . S
C925 C922 1.499 . S
C925 C926 1.373 . S
C925 C927 1.389 . S
C926 H899 0.950 . S
C926 C912 1.377 . S
C926 C925 1.373 . S
C927 C911 1.377 . S
C927 C925 1.389 . S
C927 C928 1.524 . S
C928 C927 1.524 . S
C928 C929 1.397 . S
C928 C933 1.363 . S
C929 H900 0.950 . S
C929 C928 1.397 . S
C929 C930 1.334 . S
C930 H901 0.950 . S
C930 C929 1.334 . S
C930 C931 1.287 . S
C931 C930 1.287 . S
C931 C932 1.524 . S
C931 H934 0.999 . S
C932 H902 0.950 . S
C932 C931 1.524 . S
C932 C933 1.415 . S
C933 H903 0.950 . S
C933 C928 1.363 . S
C933 C932 1.415 . S
H934 C931 0.999 . S
H935 C916 0.913 . S
H936 C954 0.951 . S
H937 C956 0.951 . S
H938 C958 0.950 . S
H939 C959 0.950 . S
H940 C961 0.950 . S
H941 C964 0.950 . S
H942 C965 0.950 . S
H943 C967 0.950 . S
H944 C968 0.950 . S
H945 C969 0.951 . S
H946 C971 0.951 . S
H947 C973 0.950 . S
H948 C974 0.950 . S
H949 C976 0.950 . S
H950 C979 0.950 . S
H951 C980 0.950 . S
H952 C982 0.950 . S
H953 C983 0.950 . S
C954 H936 0.951 . S
C954 C955 1.366 . S
C954 C956 1.388 . S
C955 C954 1.366 . S
C955 C959 1.385 . S
C956 H937 0.951 . S
C956 C954 1.388 . S
C956 C957 1.366 . S
C957 C956 1.366 . S
C957 C958 1.414 . S
C957 C960 1.499 . S
C958 H938 0.950 . S
C958 C957 1.414 . S
C958 C959 1.374 . S
C959 H939 0.950 . S
C959 C955 1.385 . S
C959 C958 1.374 . S
C960 C957 1.499 . S
C960 C961 1.373 1_545 S
C960 C962 1.389 . S
C961 H940 0.950 . S
C961 C960 1.373 1_565 S
C961 C977 1.377 . S
C962 C960 1.389 . S
C962 C963 1.524 . S
C962 C976 1.377 . S
C963 C962 1.524 . S
C963 C964 1.397 . S
C963 C968 1.363 . S
C964 H941 0.950 . S
C964 C963 1.397 . S
C964 C965 1.334 . S
C965 H942 0.950 . S
C965 C964 1.334 . S
C965 C966 1.287 . S
C966 C965 1.287 . S
C966 C967 1.524 . S
C966 H985 0.913 . S
C967 H943 0.950 . S
C967 C966 1.524 . S
C967 C968 1.415 . S
C968 H944 0.950 . S
C968 C963 1.363 . S
C968 C967 1.415 . S
C969 H945 0.951 . S
C969 C970 1.366 . S
C969 C971 1.388 . S
C970 C969 1.366 . S
C970 C974 1.385 . S
C971 H946 0.951 . S
C971 C969 1.388 . S
C971 C972 1.366 . S
C972 C971 1.366 . S
C972 C973 1.414 . S
C972 C975 1.499 . S
C973 H947 0.950 . S
C973 C972 1.414 . S
C973 C974 1.374 . S
C974 H948 0.950 . S
C974 C970 1.385 . S
C974 C973 1.374 . S
C975 C972 1.499 . S
C975 C976 1.373 . S
C975 C977 1.389 1_545 S
C976 H949 0.950 . S
C976 C962 1.377 . S
C976 C975 1.373 . S
C977 C961 1.377 . S
C977 C975 1.389 1_565 S
C977 C978 1.524 . S
C978 C977 1.524 . S
C978 C979 1.397 . S
C978 C983 1.363 . S
C979 H950 0.950 . S
C979 C978 1.397 . S
C979 C980 1.334 . S
C980 H951 0.950 . S
C980 C979 1.334 . S
C980 C981 1.287 . S
C981 C980 1.287 . S
C981 C982 1.524 . S
C981 H984 0.999 . S
C982 H952 0.950 . S
C982 C981 1.524 . S
C982 C983 1.415 . S
C983 H953 0.950 . S
C983 C978 1.363 . S
C983 C982 1.415 . S
H984 C981 0.999 . S
H985 C966 0.913 . S
H986 C1004 0.951 . S
H987 C1006 0.951 . S
H988 C1008 0.950 . S
H989 C1009 0.950 . S
H990 C1011 0.950 . S
H991 C1014 0.950 . S
H992 C1015 0.950 . S
H993 C1017 0.950 . S
H994 C1018 0.950 . S
H995 C1019 0.951 . S
H996 C1021 0.951 . S
H997 C1023 0.950 . S
H998 C1024 0.950 . S
H999 C1026 0.950 . S
H1000 C1029 0.950 . S
H1001 C1030 0.950 . S
H1002 C1032 0.950 . S
H1003 C1033 0.950 . S
C1004 H986 0.951 . S
C1004 C1005 1.366 . S
C1004 C1006 1.388 . S
C1005 C1004 1.366 . S
C1005 C1009 1.385 . S
C1006 H987 0.951 . S
C1006 C1004 1.388 . S
C1006 C1007 1.366 . S
C1007 C1006 1.366 . S
C1007 C1008 1.414 . S
C1007 C1010 1.499 . S
C1008 H988 0.950 . S
C1008 C1007 1.414 . S
C1008 C1009 1.374 . S
C1009 H989 0.950 . S
C1009 C1005 1.385 . S
C1009 C1008 1.374 . S
C1010 C1007 1.499 . S
C1010 C1011 1.373 . S
C1010 C1012 1.389 . S
C1011 H990 0.950 . S
C1011 C1010 1.373 . S
C1011 C1027 1.377 . S
C1012 C1010 1.389 . S
C1012 C1013 1.524 . S
C1012 C1026 1.377 . S
C1013 C1012 1.524 . S
C1013 C1014 1.397 . S
C1013 C1018 1.363 . S
C1014 H991 0.950 . S
C1014 C1013 1.397 . S
C1014 C1015 1.334 . S
C1015 H992 0.950 . S
C1015 C1014 1.334 . S
C1015 C1016 1.287 . S
C1016 C1015 1.287 . S
C1016 C1017 1.524 . S
C1016 H1035 0.913 . S
C1017 H993 0.950 . S
C1017 C1016 1.524 . S
C1017 C1018 1.415 . S
C1018 H994 0.950 . S
C1018 C1013 1.363 . S
C1018 C1017 1.415 . S
C1019 H995 0.951 . S
C1019 C1020 1.366 . S
C1019 C1021 1.388 . S
C1020 C1019 1.366 . S
C1020 C1024 1.385 . S
C1021 H996 0.951 . S
C1021 C1019 1.388 . S
C1021 C1022 1.366 . S
C1022 C1021 1.366 . S
C1022 C1023 1.414 . S
C1022 C1025 1.504 . S
C1023 H997 0.950 . S
C1023 C1022 1.414 . S
C1023 C1024 1.374 . S
C1024 H998 0.950 . S
C1024 C1020 1.385 . S
C1024 C1023 1.374 . S
C1025 C1022 1.504 . S
C1025 C1026 1.370 1_554 S
C1025 C1027 1.387 1_554 S
C1026 H999 0.950 . S
C1026 C1012 1.377 . S
C1026 C1025 1.370 1_556 S
C1027 C1011 1.377 . S
C1027 C1025 1.387 1_556 S
C1027 C1028 1.527 . S
C1028 C1027 1.527 . S
C1028 C1029 1.394 1_556 S
C1028 C1033 1.364 . S
C1029 H1000 0.950 . S
C1029 C1028 1.394 1_554 S
C1029 C1030 1.334 . S
C1030 H1001 0.950 . S
C1030 C1029 1.334 . S
C1030 C1031 1.287 . S
C1031 C1030 1.287 . S
C1031 C1032 1.524 . S
C1031 H1034 0.999 . S
C1032 H1002 0.950 . S
C1032 C1031 1.524 . S
C1032 C1033 1.415 1_554 S
C1033 H1003 0.950 . S
C1033 C1028 1.364 . S
C1033 C1032 1.415 1_556 S
H1034 C1031 0.999 . S
H1035 C1016 0.913 . S
H1036 C1054 0.951 . S
H1037 C1056 0.951 . S
H1038 C1058 0.950 . S
H1039 C1059 0.950 . S
H1040 C1061 0.961 . S
H1041 C1064 0.950 . S
H1042 C1065 0.950 . S
H1043 C1067 0.950 . S
H1044 C1068 0.950 . S
H1045 C1069 0.951 . S
H1046 C1071 0.951 . S
H1047 C1073 0.950 . S
H1048 C1074 0.950 . S
H1049 C1076 0.950 . S
H1050 C1079 0.950 . S
H1051 C1080 0.950 . S
H1052 C1082 0.950 . S
H1053 C1083 0.950 . S
C1054 H1036 0.951 . S
C1054 C1055 1.366 . S
C1054 C1056 1.388 . S
C1055 C1054 1.366 . S
C1055 C1059 1.385 1_455 S
C1056 H1037 0.951 . S
C1056 C1054 1.388 . S
C1056 C1057 1.366 . S
C1057 C1056 1.366 . S
C1057 C1058 1.414 1_455 S
C1057 C1060 1.499 . S
C1058 H1038 0.950 . S
C1058 C1057 1.414 1_655 S
C1058 C1059 1.374 . S
C1059 H1039 0.950 . S
C1059 C1055 1.385 1_655 S
C1059 C1058 1.374 . S
C1060 C1057 1.499 . S
C1060 C1061 1.373 . S
C1060 C1062 1.389 . S
C1061 H1040 0.961 . S
C1061 C1060 1.373 . S
C1061 C1077 1.377 . S
C1062 C1060 1.389 . S
C1062 C1063 1.525 1_455 S
C1062 C1076 1.377 . S
C1063 C1062 1.525 1_655 S
C1063 C1064 1.399 . S
C1063 C1068 1.360 1_655 S
C1064 H1041 0.950 . S
C1064 C1063 1.399 . S
C1064 C1065 1.334 . S
C1065 H1042 0.950 . S
C1065 C1064 1.334 . S
C1065 C1066 1.287 . S
C1066 C1065 1.287 . S
C1066 C1067 1.524 1_655 S
C1066 H1085 0.913 . S
C1067 H1043 0.950 . S
C1067 C1066 1.524 1_455 S
C1067 C1068 1.415 . S
C1068 H1044 0.950 . S
C1068 C1063 1.360 1_455 S
C1068 C1067 1.415 . S
C1069 H1045 0.951 . S
C1069 C1070 1.366 . S
C1069 C1071 1.388 . S
C1070 C1069 1.366 . S
C1070 C1074 1.385 1_655 S
C1071 H1046 0.951 . S
C1071 C1069 1.388 . S
C1071 C1072 1.366 . S
C1072 C1071 1.366 . S
C1072 C1073 1.414 1_655 S
C1072 C1075 1.499 1_655 S
C1073 H1047 0.950 . S
C1073 C1072 1.414 1_455 S
C1073 C1074 1.374 . S
C1074 H1048 0.950 . S
C1074 C1070 1.385 1_455 S
C1074 C1073 1.374 . S
C1075 C1072 1.499 1_455 S
C1075 C1076 1.373 . S
C1075 C1077 1.389 . S
C1076 H1049 0.950 . S
C1076 C1062 1.377 . S
C1076 C1075 1.373 . S
C1077 C1061 1.377 . S
C1077 C1075 1.389 . S
C1077 C1078 1.524 . S
C1078 C1077 1.524 . S
C1078 C1079 1.397 . S
C1078 C1083 1.363 1_455 S
C1079 H1050 0.950 . S
C1079 C1078 1.397 . S
C1079 C1080 1.334 . S
C1080 H1051 0.950 . S
C1080 C1079 1.334 . S
C1080 C1081 1.287 . S
C1081 C1080 1.287 . S
C1081 C1082 1.524 1_455 S
C1081 H1084 0.999 . S
C1082 H1052 0.950 . S
C1082 C1081 1.524 1_655 S
C1082 C1083 1.415 . S
C1083 H1053 0.950 . S
C1083 C1078 1.363 1_655 S
C1083 C1082 1.415 . S
H1084 C1081 0.999 . S
H1085 C1066 0.913 . S
C205 C10 3.307 . S
C220 C180 2.953 . S
C255 C55 1.358 . S
C270 C158 1.165 . S
C305 C90 1.715 . S
C320 C172 1.681 . S
C355 C19 2.785 . S
C370 C183 2.735 . S
C420 C161 1.034 . S
C405 C46 1.042 . S
C470 C169 1.845 . S
C455 C99 2.149 . S
C505 C50 2.065 . S
C520 C136 1.787 . S
C555 C95 0.590 . S
C570 C147 0.718 . S
C605 C6 1.436 . S
C620 C125 1.217 . S
C670 C139 1.758 . S
C655 C59 1.799 . S
C720 C150 0.256 . S
C705 C86 0.290 . S
C755 C15 0.991 . S
C770 C128 0.976 . S
C820 C149 1.231 . S
C805 C18 1.263 . S
C855 C49 1.466 . S
C870 C127 1.453 . S
C905 C98 1.436 . S
C920 C138 1.408 . S
C970 C171 1.402 . S
C955 C58 1.409 . S
C1020 C182 1.640 . S
C1005 C89 1.644 . S
C1055 C9 1.501 . S
C1070 C160 1.483 . S
