# Generated by pormake.
# Topology ibd, (4,6)-cn, num edge types: 1
# Building blocks:
#     Node 0, Type 0, BuildingBlock: KUFVIS_clean_sbu_0, # of connection points: 4
#     Node 1, Type 0, BuildingBlock: KUFVIS_clean_sbu_0, # of connection points: 4
#     Node 2, Type 0, BuildingBlock: KUFVIS_clean_sbu_0, # of connection points: 4
#     Node 3, Type 0, BuildingBlock: KUFVIS_clean_sbu_0, # of connection points: 4
#     Node 4, Type 0, BuildingBlock: KUFVIS_clean_sbu_0, # of connection points: 4
#     Node 5, Type 0, BuildingBlock: KUFVIS_clean_sbu_0, # of connection points: 4
#     Node 6, Type 0, BuildingBlock: KUFVIS_clean_sbu_0, # of connection points: 4
#     Node 7, Type 0, BuildingBlock: KUFVIS_clean_sbu_0, # of connection points: 4
#     Node 8, Type 0, BuildingBlock: KUFVIS_clean_sbu_0, # of connection points: 4
#     Node 9, Type 0, BuildingBlock: KUFVIS_clean_sbu_0, # of connection points: 4
#     Node 10, Type 0, BuildingBlock: KUFVIS_clean_sbu_0, # of connection points: 4
#     Node 11, Type 0, BuildingBlock: KUFVIS_clean_sbu_0, # of connection points: 4
#     Node 12, Type 0, BuildingBlock: KUFVIS_clean_sbu_0, # of connection points: 4
#     Node 13, Type 0, BuildingBlock: KUFVIS_clean_sbu_0, # of connection points: 4
#     Node 14, Type 0, BuildingBlock: KUFVIS_clean_sbu_0, # of connection points: 4
#     Node 15, Type 0, BuildingBlock: KUFVIS_clean_sbu_0, # of connection points: 4
#     Node 16, Type 0, BuildingBlock: KUFVIS_clean_sbu_0, # of connection points: 4
#     Node 17, Type 0, BuildingBlock: KUFVIS_clean_sbu_0, # of connection points: 4
#     Node 18, Type 0, BuildingBlock: KUFVIS_clean_sbu_0, # of connection points: 4
#     Node 19, Type 0, BuildingBlock: KUFVIS_clean_sbu_0, # of connection points: 4
#     Node 20, Type 0, BuildingBlock: KUFVIS_clean_sbu_0, # of connection points: 4
#     Node 21, Type 0, BuildingBlock: KUFVIS_clean_sbu_0, # of connection points: 4
#     Node 22, Type 0, BuildingBlock: KUFVIS_clean_sbu_0, # of connection points: 4
#     Node 23, Type 0, BuildingBlock: KUFVIS_clean_sbu_0, # of connection points: 4
#     Node 24, Type 1, BuildingBlock: CIFDUS_clean_sbu_1, # of connection points: 6
#     Node 25, Type 1, BuildingBlock: CIFDUS_clean_sbu_1, # of connection points: 6
#     Node 26, Type 1, BuildingBlock: CIFDUS_clean_sbu_1, # of connection points: 6
#     Node 27, Type 1, BuildingBlock: CIFDUS_clean_sbu_1, # of connection points: 6
#     Node 28, Type 1, BuildingBlock: CIFDUS_clean_sbu_1, # of connection points: 6
#     Node 29, Type 1, BuildingBlock: CIFDUS_clean_sbu_1, # of connection points: 6
#     Node 30, Type 1, BuildingBlock: CIFDUS_clean_sbu_1, # of connection points: 6
#     Node 31, Type 1, BuildingBlock: CIFDUS_clean_sbu_1, # of connection points: 6
#     Node 32, Type 1, BuildingBlock: CIFDUS_clean_sbu_1, # of connection points: 6
#     Node 33, Type 1, BuildingBlock: CIFDUS_clean_sbu_1, # of connection points: 6
#     Node 34, Type 1, BuildingBlock: CIFDUS_clean_sbu_1, # of connection points: 6
#     Node 35, Type 1, BuildingBlock: CIFDUS_clean_sbu_1, # of connection points: 6
#     Node 36, Type 1, BuildingBlock: CIFDUS_clean_sbu_1, # of connection points: 6
#     Node 37, Type 1, BuildingBlock: CIFDUS_clean_sbu_1, # of connection points: 6
#     Node 38, Type 1, BuildingBlock: CIFDUS_clean_sbu_1, # of connection points: 6
#     Node 39, Type 1, BuildingBlock: CIFDUS_clean_sbu_1, # of connection points: 6
#     Edge 40, Type (0, 1), BuildingBlock: XIVTED_clean_linker_0, # of connection points: 2
#     Edge 41, Type (0, 1), BuildingBlock: XIVTED_clean_linker_0, # of connection points: 2
#     Edge 42, Type (0, 1), BuildingBlock: XIVTED_clean_linker_0, # of connection points: 2
#     Edge 43, Type (0, 1), BuildingBlock: XIVTED_clean_linker_0, # of connection points: 2
#     Edge 44, Type (0, 1), BuildingBlock: XIVTED_clean_linker_0, # of connection points: 2
#     Edge 45, Type (0, 1), BuildingBlock: XIVTED_clean_linker_0, # of connection points: 2
#     Edge 46, Type (0, 1), BuildingBlock: XIVTED_clean_linker_0, # of connection points: 2
#     Edge 47, Type (0, 1), BuildingBlock: XIVTED_clean_linker_0, # of connection points: 2
#     Edge 48, Type (0, 1), BuildingBlock: XIVTED_clean_linker_0, # of connection points: 2
#     Edge 49, Type (0, 1), BuildingBlock: XIVTED_clean_linker_0, # of connection points: 2
#     Edge 50, Type (0, 1), BuildingBlock: XIVTED_clean_linker_0, # of connection points: 2
#     Edge 51, Type (0, 1), BuildingBlock: XIVTED_clean_linker_0, # of connection points: 2
#     Edge 52, Type (0, 1), BuildingBlock: XIVTED_clean_linker_0, # of connection points: 2
#     Edge 53, Type (0, 1), BuildingBlock: XIVTED_clean_linker_0, # of connection points: 2
#     Edge 54, Type (0, 1), BuildingBlock: XIVTED_clean_linker_0, # of connection points: 2
#     Edge 55, Type (0, 1), BuildingBlock: XIVTED_clean_linker_0, # of connection points: 2
#     Edge 56, Type (0, 1), BuildingBlock: XIVTED_clean_linker_0, # of connection points: 2
#     Edge 57, Type (0, 1), BuildingBlock: XIVTED_clean_linker_0, # of connection points: 2
#     Edge 58, Type (0, 1), BuildingBlock: XIVTED_clean_linker_0, # of connection points: 2
#     Edge 59, Type (0, 1), BuildingBlock: XIVTED_clean_linker_0, # of connection points: 2
#     Edge 60, Type (0, 1), BuildingBlock: XIVTED_clean_linker_0, # of connection points: 2
#     Edge 61, Type (0, 1), BuildingBlock: XIVTED_clean_linker_0, # of connection points: 2
#     Edge 62, Type (0, 1), BuildingBlock: XIVTED_clean_linker_0, # of connection points: 2
#     Edge 63, Type (0, 1), BuildingBlock: XIVTED_clean_linker_0, # of connection points: 2
#     Edge 64, Type (0, 1), BuildingBlock: XIVTED_clean_linker_0, # of connection points: 2
#     Edge 65, Type (0, 1), BuildingBlock: XIVTED_clean_linker_0, # of connection points: 2
#     Edge 66, Type (0, 1), BuildingBlock: XIVTED_clean_linker_0, # of connection points: 2
#     Edge 67, Type (0, 1), BuildingBlock: XIVTED_clean_linker_0, # of connection points: 2
#     Edge 68, Type (0, 1), BuildingBlock: XIVTED_clean_linker_0, # of connection points: 2
#     Edge 69, Type (0, 1), BuildingBlock: XIVTED_clean_linker_0, # of connection points: 2
#     Edge 70, Type (0, 1), BuildingBlock: XIVTED_clean_linker_0, # of connection points: 2
#     Edge 71, Type (0, 1), BuildingBlock: XIVTED_clean_linker_0, # of connection points: 2
#     Edge 72, Type (0, 1), BuildingBlock: XIVTED_clean_linker_0, # of connection points: 2
#     Edge 73, Type (0, 1), BuildingBlock: XIVTED_clean_linker_0, # of connection points: 2
#     Edge 74, Type (0, 1), BuildingBlock: XIVTED_clean_linker_0, # of connection points: 2
#     Edge 75, Type (0, 1), BuildingBlock: XIVTED_clean_linker_0, # of connection points: 2
#     Edge 76, Type (0, 1), BuildingBlock: XIVTED_clean_linker_0, # of connection points: 2
#     Edge 77, Type (0, 1), BuildingBlock: XIVTED_clean_linker_0, # of connection points: 2
#     Edge 78, Type (0, 1), BuildingBlock: XIVTED_clean_linker_0, # of connection points: 2
#     Edge 79, Type (0, 1), BuildingBlock: XIVTED_clean_linker_0, # of connection points: 2
#     Edge 80, Type (0, 1), BuildingBlock: XIVTED_clean_linker_0, # of connection points: 2
#     Edge 81, Type (0, 1), BuildingBlock: XIVTED_clean_linker_0, # of connection points: 2
#     Edge 82, Type (0, 1), BuildingBlock: XIVTED_clean_linker_0, # of connection points: 2
#     Edge 83, Type (0, 1), BuildingBlock: XIVTED_clean_linker_0, # of connection points: 2
#     Edge 84, Type (0, 1), BuildingBlock: XIVTED_clean_linker_0, # of connection points: 2
#     Edge 85, Type (0, 1), BuildingBlock: XIVTED_clean_linker_0, # of connection points: 2
#     Edge 86, Type (0, 1), BuildingBlock: XIVTED_clean_linker_0, # of connection points: 2
#     Edge 87, Type (0, 1), BuildingBlock: XIVTED_clean_linker_0, # of connection points: 2
#     Edge 88, Type (0, 1), BuildingBlock: XIVTED_clean_linker_0, # of connection points: 2
#     Edge 89, Type (0, 1), BuildingBlock: XIVTED_clean_linker_0, # of connection points: 2
#     Edge 90, Type (0, 1), BuildingBlock: XIVTED_clean_linker_0, # of connection points: 2
#     Edge 91, Type (0, 1), BuildingBlock: XIVTED_clean_linker_0, # of connection points: 2
#     Edge 92, Type (0, 1), BuildingBlock: XIVTED_clean_linker_0, # of connection points: 2
#     Edge 93, Type (0, 1), BuildingBlock: XIVTED_clean_linker_0, # of connection points: 2
#     Edge 94, Type (0, 1), BuildingBlock: XIVTED_clean_linker_0, # of connection points: 2
#     Edge 95, Type (0, 1), BuildingBlock: XIVTED_clean_linker_0, # of connection points: 2
#     Edge 96, Type (0, 1), BuildingBlock: XIVTED_clean_linker_0, # of connection points: 2
#     Edge 97, Type (0, 1), BuildingBlock: XIVTED_clean_linker_0, # of connection points: 2
#     Edge 98, Type (0, 1), BuildingBlock: XIVTED_clean_linker_0, # of connection points: 2
#     Edge 99, Type (0, 1), BuildingBlock: XIVTED_clean_linker_0, # of connection points: 2
#     Edge 100, Type (0, 1), BuildingBlock: XIVTED_clean_linker_0, # of connection points: 2
#     Edge 101, Type (0, 1), BuildingBlock: XIVTED_clean_linker_0, # of connection points: 2
#     Edge 102, Type (0, 1), BuildingBlock: XIVTED_clean_linker_0, # of connection points: 2
#     Edge 103, Type (0, 1), BuildingBlock: XIVTED_clean_linker_0, # of connection points: 2
#     Edge 104, Type (0, 1), BuildingBlock: XIVTED_clean_linker_0, # of connection points: 2
#     Edge 105, Type (0, 1), BuildingBlock: XIVTED_clean_linker_0, # of connection points: 2
#     Edge 106, Type (0, 1), BuildingBlock: XIVTED_clean_linker_0, # of connection points: 2
#     Edge 107, Type (0, 1), BuildingBlock: XIVTED_clean_linker_0, # of connection points: 2
#     Edge 108, Type (0, 1), BuildingBlock: XIVTED_clean_linker_0, # of connection points: 2
#     Edge 109, Type (0, 1), BuildingBlock: XIVTED_clean_linker_0, # of connection points: 2
#     Edge 110, Type (0, 1), BuildingBlock: XIVTED_clean_linker_0, # of connection points: 2
#     Edge 111, Type (0, 1), BuildingBlock: XIVTED_clean_linker_0, # of connection points: 2
#     Edge 112, Type (0, 1), BuildingBlock: XIVTED_clean_linker_0, # of connection points: 2
#     Edge 113, Type (0, 1), BuildingBlock: XIVTED_clean_linker_0, # of connection points: 2
#     Edge 114, Type (0, 1), BuildingBlock: XIVTED_clean_linker_0, # of connection points: 2
#     Edge 115, Type (0, 1), BuildingBlock: XIVTED_clean_linker_0, # of connection points: 2
#     Edge 116, Type (0, 1), BuildingBlock: XIVTED_clean_linker_0, # of connection points: 2
#     Edge 117, Type (0, 1), BuildingBlock: XIVTED_clean_linker_0, # of connection points: 2
#     Edge 118, Type (0, 1), BuildingBlock: XIVTED_clean_linker_0, # of connection points: 2
#     Edge 119, Type (0, 1), BuildingBlock: XIVTED_clean_linker_0, # of connection points: 2
#     Edge 120, Type (0, 1), BuildingBlock: XIVTED_clean_linker_0, # of connection points: 2
#     Edge 121, Type (0, 1), BuildingBlock: XIVTED_clean_linker_0, # of connection points: 2
#     Edge 122, Type (0, 1), BuildingBlock: XIVTED_clean_linker_0, # of connection points: 2
#     Edge 123, Type (0, 1), BuildingBlock: XIVTED_clean_linker_0, # of connection points: 2
#     Edge 124, Type (0, 1), BuildingBlock: XIVTED_clean_linker_0, # of connection points: 2
#     Edge 125, Type (0, 1), BuildingBlock: XIVTED_clean_linker_0, # of connection points: 2
#     Edge 126, Type (0, 1), BuildingBlock: XIVTED_clean_linker_0, # of connection points: 2
#     Edge 127, Type (0, 1), BuildingBlock: XIVTED_clean_linker_0, # of connection points: 2
#     Edge 128, Type (0, 1), BuildingBlock: XIVTED_clean_linker_0, # of connection points: 2
#     Edge 129, Type (0, 1), BuildingBlock: XIVTED_clean_linker_0, # of connection points: 2
#     Edge 130, Type (0, 1), BuildingBlock: XIVTED_clean_linker_0, # of connection points: 2
#     Edge 131, Type (0, 1), BuildingBlock: XIVTED_clean_linker_0, # of connection points: 2
#     Edge 132, Type (0, 1), BuildingBlock: XIVTED_clean_linker_0, # of connection points: 2
#     Edge 133, Type (0, 1), BuildingBlock: XIVTED_clean_linker_0, # of connection points: 2
#     Edge 134, Type (0, 1), BuildingBlock: XIVTED_clean_linker_0, # of connection points: 2
#     Edge 135, Type (0, 1), BuildingBlock: XIVTED_clean_linker_0, # of connection points: 2
# Relax obj value: 0.351
# Max RMSD: 0.307
# Mean RMSD: 0.278
data_MOF--net-ibd--node1-KUFVIS_clean_sbu_0--node2-CIFDUS_clean_sbu_1--edge1-XIVTED_clean_linker_0
_symmetry_space_group_name_H-M    P1
_symmetry_Int_Tables_number       1
_symmetry_cell_setting            triclinic
loop_
_symmetry_equiv_pos_as_xyz
'x, y, z'
_cell_length_a     47.675779
_cell_length_b     48.982442
_cell_length_c     49.601283
_cell_angle_alpha  91.544176
_cell_angle_beta   89.928216
_cell_angle_gamma 94.555175
loop_
_atom_site_label
_atom_site_type_symbol
_atom_site_fract_x
_atom_site_fract_y
_atom_site_fract_z
_atom_type_partial_charge
Mn0 Mn 0.00375 0.31119 0.37795 0.0
Mn1 Mn 0.05622 0.35482 0.35599 0.0
C2 C 0.04547 0.31751 0.40158 0.0
C3 C 0.96518 0.30132 0.40626 0.0
C4 C 0.04219 0.29882 0.33033 0.0
O5 O 0.98357 0.33393 0.3516 0.0
O6 O 0.0205 0.36167 0.33731 0.0
C7 C 0.0365 0.40629 0.37887 0.0
N8 N 0.05647 0.38793 0.37726 0.0
C9 C 0.0859 0.4143 0.40944 0.0
C10 C 0.06569 0.43356 0.41136 0.0
C11 C 0.04089 0.42954 0.396 0.0
C12 C 0.0805 0.3917 0.3918 0.0
H13 H 0.01734 0.40317 0.36722 0.0
C14 C -0.0055 0.35255 0.3363 0.0
O15 O 0.96953 0.286 0.38505 0.0
O16 O 0.9816 0.32351 0.40938 0.0
N17 N 0.09156 0.35 0.37273 0.0
C18 C 0.10816 0.32876 0.3696 0.0
C19 C 0.13342 0.32917 0.38419 0.0
C20 C 0.14131 0.35138 0.40181 0.0
C21 C 0.12387 0.37303 0.40465 0.0
C22 C 0.09906 0.37159 0.38944 0.0
H23 H 0.10203 0.31155 0.35624 0.0
O24 O 0.02959 0.2949 0.40328 0.0
O25 O 0.03671 0.3353 0.38513 0.0
O26 O 0.02147 0.29196 0.34572 0.0
O27 O 0.05757 0.32131 0.33318 0.0
C28 C 0.1299 0.39575 0.42231 0.0
C29 C 0.11094 0.41639 0.42468 0.0
H30 H 0.06889 0.4514 0.42472 0.0
H31 H 0.02515 0.44425 0.39745 0.0
H32 H 0.14671 0.31234 0.38197 0.0
H33 H 0.16071 0.35152 0.41318 0.0
H34 H 0.14893 0.39743 0.43435 0.0
H35 H 0.11567 0.43362 0.43851 0.0
Mn36 Mn -0.00032 0.77199 0.63895 0.0
Mn37 Mn 0.94359 0.73446 0.66262 0.0
C38 C 0.97787 0.73647 0.61343 0.0
C39 C 0.0193 0.80566 0.61054 0.0
C40 C 0.00227 0.72776 0.68159 0.0
O41 O 0.98738 0.79723 0.66943 0.0
O42 O 0.95229 0.76814 0.6853 0.0
C43 C 0.90108 0.77322 0.65042 0.0
N44 N 0.91094 0.74801 0.64708 0.0
C45 C 0.87336 0.73339 0.61634 0.0
C46 C 0.86271 0.75915 0.61956 0.0
C47 C 0.87663 0.77915 0.63668 0.0
C48 C 0.89764 0.72858 0.63075 0.0
H49 H 0.91183 0.7887 0.66341 0.0
C50 C 0.96868 0.79022 0.68706 0.0
O51 O 0.03444 0.79578 0.62923 0.0
O52 O -0.00735 0.79843 0.61085 0.0
N53 N 0.93364 0.70156 0.64199 0.0
C54 C 0.94735 0.67822 0.64025 0.0
C55 C 0.93656 0.65638 0.62342 0.0
C56 C 0.91182 0.65877 0.60861 0.0
C57 C 0.89802 0.68298 0.61083 0.0
C58 C 0.90966 0.70397 0.62807 0.0
H59 H 0.96652 0.67645 0.65144 0.0
O60 O 0.00428 0.7438 0.61018 0.0
O61 O 0.96535 0.74934 0.63261 0.0
O62 O 0.01389 0.74712 0.66764 0.0
O63 O 0.97628 0.71929 0.67947 0.0
C64 C 0.87344 0.68726 0.59631 0.0
C65 C 0.8611 0.71244 0.59908 0.0
H66 H 0.84398 0.76386 0.60886 0.0
H67 H 0.86861 0.79911 0.63919 0.0
H68 H 0.94737 0.63779 0.62176 0.0
H69 H 0.90368 0.64195 0.5955 0.0
H70 H 0.86397 0.6714 0.5828 0.0
H71 H 0.84233 0.71556 0.58765 0.0
Mn72 Mn 0.50751 0.81476 0.87335 0.0
Mn73 Mn 0.55473 0.86513 0.85428 0.0
C74 C 0.54641 0.82758 0.89974 0.0
C75 C 0.46898 0.7995 0.89979 0.0
C76 C 0.55014 0.80859 0.82776 0.0
O77 O 0.4856 0.83415 0.84544 0.0
O78 O 0.51897 0.86741 0.83408 0.0
C79 C 0.52685 0.91272 0.87635 0.0
N80 N 0.54942 0.89733 0.87567 0.0
C81 C 0.57354 0.92636 0.90958 0.0
C82 C 0.5506 0.9426 0.91058 0.0
C83 C 0.52717 0.93574 0.89388 0.0
C84 C 0.57216 0.90385 0.89149 0.0
H85 H 0.50872 0.90739 0.86369 0.0
C86 C 0.49453 0.85461 0.83133 0.0
O87 O 0.4768 0.78513 0.87905 0.0
O88 O 0.48164 0.82368 0.90327 0.0
N89 N 0.58985 0.86467 0.87281 0.0
C90 C 0.60947 0.846 0.87047 0.0
C91 C 0.6339 0.84938 0.88639 0.0
C92 C 0.63785 0.87188 0.90454 0.0
C93 C 0.61734 0.89083 0.90657 0.0
C94 C 0.59355 0.88652 0.89002 0.0
H95 H 0.60637 0.82857 0.8567 0.0
O96 O 0.53436 0.80297 0.90072 0.0
O97 O 0.53612 0.84316 0.88208 0.0
O98 O 0.52997 0.79858 0.84236 0.0
O99 O 0.56182 0.83282 0.83137 0.0
C100 C 0.61934 0.91355 0.92469 0.0
C101 C 0.59746 0.93131 0.92619 0.0
H102 H 0.55065 0.96023 0.92424 0.0
H103 H 0.50934 0.94811 0.89462 0.0
H104 H 0.64958 0.83461 0.88478 0.0
H105 H 0.65662 0.8743 0.91694 0.0
H106 H 0.63748 0.9174 0.93777 0.0
H107 H 0.5991 0.94855 0.9404 0.0
Mn108 Mn 0.49566 0.26762 0.13733 0.0
Mn109 Mn 0.44003 0.22938 0.16092 0.0
C110 C 0.47434 0.23188 0.11169 0.0
C111 C 0.51476 0.30161 0.10908 0.0
C112 C 0.4989 0.22346 0.17987 0.0
O113 O 0.48304 0.29257 0.16792 0.0
O114 O 0.44818 0.26315 0.18361 0.0
C115 C 0.39698 0.26752 0.14855 0.0
N116 N 0.40717 0.24245 0.14533 0.0
C117 C 0.36977 0.22727 0.11459 0.0
C118 C 0.35878 0.25289 0.1177 0.0
C119 C 0.37245 0.2731 0.13476 0.0
C120 C 0.39411 0.22282 0.12905 0.0
H121 H 0.40755 0.28317 0.16149 0.0
C122 C 0.46434 0.28539 0.18548 0.0
O123 O 0.53007 0.29192 0.12774 0.0
O124 O 0.48818 0.29401 0.10935 0.0
N125 N 0.43055 0.19635 0.14035 0.0
C126 C 0.44454 0.17318 0.13876 0.0
C127 C 0.434 0.15114 0.12204 0.0
C128 C 0.4092 0.15317 0.10719 0.0
C129 C 0.3951 0.1772 0.10929 0.0
C130 C 0.40648 0.19839 0.12645 0.0
H131 H 0.46373 0.17167 0.14999 0.0
O132 O 0.50065 0.23961 0.1084 0.0
O133 O 0.46166 0.24451 0.13093 0.0
O134 O 0.51028 0.24291 0.1659 0.0
O135 O 0.47298 0.2147 0.17777 0.0
C136 C 0.37045 0.18113 0.09472 0.0
C137 C 0.35779 0.20614 0.09738 0.0
H138 H 0.33998 0.25734 0.10694 0.0
H139 H 0.36417 0.29296 0.13717 0.0
H140 H 0.44502 0.13269 0.1205 0.0
H141 H 0.40126 0.13621 0.09416 0.0
H142 H 0.36118 0.16513 0.08125 0.0
H143 H 0.33897 0.209 0.08591 0.0
Mn144 Mn 0.00983 0.7741 0.12846 0.0
Mn145 Mn 0.04403 0.83155 0.10642 0.0
C146 C 0.04671 0.7953 0.15346 0.0
C147 C 0.97447 0.75484 0.15614 0.0
C148 C 0.05101 0.77488 0.08155 0.0
O149 O 0.98317 0.78634 0.09973 0.0
O150 O 0.00562 0.82738 0.09004 0.0
C151 C 0.00972 0.87262 0.13236 0.0
N152 N 0.03503 0.86194 0.12891 0.0
C153 C 0.05707 0.89422 0.16131 0.0
C154 C 0.0313 0.90575 0.165 0.0
C155 C 0.00752 0.89489 0.15047 0.0
C156 C 0.05806 0.87227 0.14274 0.0
H157 H -0.00868 0.86409 0.12151 0.0
C158 C 0.98491 0.80903 0.08742 0.0
O159 O 0.98534 0.74008 0.1372 0.0
O160 O 0.98254 0.78062 0.15727 0.0
N161 N 0.08103 0.83746 0.12147 0.0
C162 C 0.1038 0.82285 0.1169 0.0
C163 C 0.1291 0.83046 0.13059 0.0
C164 C 0.1307 0.85295 0.14886 0.0
C165 C 0.10698 0.86768 0.15323 0.0
C166 C 0.08244 0.85933 0.13879 0.0
H167 H 0.10259 0.80539 0.10308 0.0
O168 O 0.0391 0.76961 0.15632 0.0
O169 O 0.0326 0.80754 0.13562 0.0
O170 O 0.03587 0.76122 0.09859 0.0
O171 O 0.05485 0.80106 0.08234 0.0
C172 C 0.10657 0.88995 0.17177 0.0
C173 C 0.08164 0.90322 0.1758 0.0
H174 H 0.02945 0.92274 0.17916 0.0
H175 H 0.9875 0.90353 0.15336 0.0
H176 H 0.14727 0.81892 0.1272 0.0
H177 H 0.15016 0.85858 0.15959 0.0
H178 H 0.12522 0.89683 0.18328 0.0
H179 H 0.08149 0.92011 0.19034 0.0
Mn180 Mn 0.50406 0.76587 0.37626 0.0
Mn181 Mn 0.45114 0.72198 0.39595 0.0
C182 C 0.48596 0.73143 0.34684 0.0
C183 C 0.52012 0.80487 0.35343 0.0
C184 C 0.51059 0.72315 0.41848 0.0
O185 O 0.48762 0.78582 0.40849 0.0
O186 O 0.44981 0.75659 0.41786 0.0
C187 C 0.40198 0.74979 0.37775 0.0
N188 N 0.41771 0.72778 0.37642 0.0
C189 C 0.38757 0.7056 0.34218 0.0
C190 C 0.37098 0.728 0.34323 0.0
C191 C 0.3782 0.75017 0.36112 0.0
C192 C 0.4108 0.70622 0.35949 0.0
H193 H 0.40767 0.76698 0.39129 0.0
C194 C 0.46564 0.77874 0.4224 0.0
O195 O 0.53572 0.79433 0.37127 0.0
O196 O 0.49444 0.79435 0.35096 0.0
N197 N 0.45106 0.68822 0.37563 0.0
C198 C 0.47028 0.66909 0.37591 0.0
C199 C 0.46666 0.64593 0.35857 0.0
C200 C 0.4434 0.64277 0.34108 0.0
C201 C 0.42395 0.6628 0.3411 0.0
C202 C 0.42851 0.68529 0.35901 0.0
H203 H 0.48835 0.67164 0.3891 0.0
O204 O 0.51177 0.74158 0.34438 0.0
O205 O 0.4727 0.74064 0.36766 0.0
O206 O 0.52187 0.74066 0.40242 0.0
O207 O 0.48459 0.71449 0.41735 0.0
C208 C 0.40054 0.66161 0.32367 0.0
C209 C 0.38234 0.68298 0.32423 0.0
H210 H 0.3528 0.7285 0.33023 0.0
H211 H 0.36558 0.76758 0.36196 0.0
H212 H 0.48185 0.63065 0.35856 0.0
H213 H 0.44082 0.62501 0.32756 0.0
H214 H 0.39649 0.64449 0.30956 0.0
H215 H 0.36459 0.68197 0.31054 0.0
Mn216 Mn 0.51836 0.27703 0.62557 0.0
Mn217 Mn 0.55635 0.33118 0.60087 0.0
C218 C 0.55638 0.29743 0.64947 0.0
C219 C 0.48378 0.25945 0.6551 0.0
C220 C 0.56144 0.27341 0.57971 0.0
O221 O 0.49145 0.28982 0.59731 0.0
O222 O 0.51979 0.32496 0.58126 0.0
C223 C 0.51974 0.37389 0.61957 0.0
N224 N 0.54522 0.36315 0.61964 0.0
C225 C 0.56396 0.39798 0.65129 0.0
C226 C 0.53797 0.40952 0.65142 0.0
C227 C 0.51577 0.39742 0.63548 0.0
C228 C 0.56676 0.37469 0.63482 0.0
H229 H 0.50254 0.36449 0.60755 0.0
C230 C 0.4969 0.30923 0.58087 0.0
O231 O 0.49306 0.24406 0.63578 0.0
O232 O 0.49244 0.28511 0.65522 0.0
N233 N 0.59185 0.33889 0.61854 0.0
C234 C 0.61511 0.32446 0.61708 0.0
C235 C 0.63903 0.33346 0.63233 0.0
C236 C 0.63876 0.35714 0.64893 0.0
C237 C 0.61458 0.37168 0.65004 0.0
C238 C 0.59148 0.36188 0.63419 0.0
H239 H 0.61526 0.30608 0.60457 0.0
O240 O 0.54809 0.27195 0.65269 0.0
O241 O 0.54272 0.30983 0.63138 0.0
O242 O 0.54282 0.26201 0.59526 0.0
O243 O 0.5691 0.29903 0.58078 0.0
C244 C 0.61234 0.39523 0.6666 0.0
C245 C 0.58705 0.40839 0.66721 0.0
H246 H 0.53475 0.42754 0.66384 0.0
H247 H 0.4956 0.40612 0.63558 0.0
H248 H 0.65756 0.32207 0.63145 0.0
H249 H 0.65716 0.36387 0.66086 0.0
H250 H 0.62984 0.40327 0.67912 0.0
H251 H 0.5855 0.42634 0.68019 0.0
Mn252 Mn 0.00291 0.26621 0.88066 0.0
Mn253 Mn 0.95266 0.22022 0.90182 0.0
C254 C 0.98619 0.23055 0.85199 0.0
C255 C 0.01604 0.30521 0.85653 0.0
C256 C 0.0126 0.22493 0.92354 0.0
O257 O 0.98579 0.2859 0.91264 0.0
O258 O 0.94986 0.25494 0.92326 0.0
C259 C 0.90136 0.24496 0.88424 0.0
N260 N 0.91842 0.22394 0.88281 0.0
C261 C 0.88871 0.19981 0.84937 0.0
C262 C 0.8708 0.22118 0.8505 0.0
C263 C 0.87714 0.24383 0.86804 0.0
C264 C 0.91236 0.20192 0.86623 0.0
H265 H 0.90633 0.2625 0.89753 0.0
C266 C 0.96446 0.27795 0.92705 0.0
O267 O 0.03283 0.29618 0.87429 0.0
O268 O -0.00911 0.29323 0.85496 0.0
N269 N 0.95402 0.18634 0.88194 0.0
C270 C 0.97432 0.16829 0.88218 0.0
C271 C 0.9716 0.14481 0.86521 0.0
C272 C 0.94812 0.14022 0.84812 0.0
C273 C 0.92755 0.15915 0.84818 0.0
C274 C 0.93127 0.18204 0.8657 0.0
H275 H -0.00745 0.17194 0.89507 0.0
O276 O 0.01155 0.24177 0.84923 0.0
O277 O 0.97274 0.23932 0.8729 0.0
O278 O 0.02268 0.24276 0.90718 0.0
O279 O 0.98703 0.21484 0.92275 0.0
C280 C 0.90376 0.15647 0.83119 0.0
C281 C 0.88434 0.17678 0.8318 0.0
H282 H 0.85224 0.22052 0.83784 0.0
H283 H 0.86347 0.26044 0.86896 0.0
H284 H 0.98764 0.13037 0.86518 0.0
H285 H 0.94622 0.1222 0.8349 0.0
H286 H 0.90034 0.13901 0.81739 0.0
H287 H 0.86628 0.17462 0.81847 0.0
Mn288 Mn 0.37794 0.01195 0.23424 0.0
Mn289 Mn 0.36609 0.07196 0.26483 0.0
C290 C 0.414 0.04657 0.23991 0.0
C291 C 0.39638 0.96914 0.23506 0.0
C292 C 0.344 0.0552 0.20904 0.0
O293 O 0.34161 0.00205 0.25513 0.0
O294 O 0.3364 0.04335 0.27556 0.0
C295 C 0.37699 0.05753 0.3212 0.0
N296 N 0.38345 0.07345 0.29962 0.0
C297 C 0.42226 0.09753 0.32342 0.0
C298 C 0.41591 0.0815 0.34595 0.0
C299 C 0.39316 0.06143 0.34483 0.0
C300 C 0.40517 0.09296 0.30054 0.0
H301 H 0.35976 0.04183 0.3203 0.0
C302 C 0.32825 0.01805 0.27057 0.0
O303 O 0.37926 0.97503 0.21605 0.0
O304 O 0.39978 0.98673 0.25495 0.0
N305 N 0.39409 0.10046 0.25581 0.0
C306 C 0.39857 0.11288 0.23176 0.0
C307 C 0.42104 0.13299 0.22923 0.0
C308 C 0.43873 0.13998 0.2514 0.0
C309 C 0.43375 0.12687 0.27592 0.0
C310 C 0.41079 0.10728 0.27735 0.0
H311 H 0.38523 0.10728 0.21458 0.0
O312 O 0.41485 0.0289 0.22008 0.0
O313 O 0.39101 0.04446 0.25386 0.0
O314 O 0.35462 0.03208 0.20759 0.0
O315 O 0.34788 0.07217 0.22899 0.0
C316 C 0.45106 0.13202 0.29879 0.0
C317 C 0.44532 0.11736 0.32253 0.0
H318 H 0.42854 0.08422 0.36411 0.0
H319 H 0.38824 0.04886 0.36208 0.0
H320 H 0.42486 0.14292 0.2102 0.0
H321 H 0.45622 0.15524 0.24933 0.0
H322 H 0.46907 0.14695 0.29822 0.0
H323 H 0.459 0.12124 0.33986 0.0
Mn324 Mn 0.23334 0.1491 0.52215 0.0
Mn325 Mn 0.1863 0.16243 0.4749 0.0
C326 C 0.19565 0.1179 0.51167 0.0
C327 C 0.27191 0.12565 0.53445 0.0
C328 C 0.1893 0.19085 0.52994 0.0
O329 O 0.25517 0.17947 0.50136 0.0
O330 O 0.22193 0.1857 0.46997 0.0
C331 C 0.21546 0.14125 0.42693 0.0
N332 N 0.19252 0.14043 0.44336 0.0
C333 C 0.16974 0.10278 0.41743 0.0
C334 C 0.19305 0.10335 0.40012 0.0
C335 C 0.21599 0.12269 0.40489 0.0
C336 C 0.17023 0.12205 0.43884 0.0
H337 H 0.2333 0.15583 0.43071 0.0
C338 C 0.24631 0.19144 0.48069 0.0
O339 O 0.26362 0.1454 0.54984 0.0
O340 O 0.25983 0.12193 0.51122 0.0
N341 N 0.15152 0.1404 0.47805 0.0
C342 C 0.13166 0.14128 0.49775 0.0
C343 C 0.10775 0.1226 0.49655 0.0
C344 C 0.10458 0.10317 0.47518 0.0
C345 C 0.12533 0.10266 0.45516 0.0
C346 C 0.14853 0.12201 0.45724 0.0
H347 H 0.13421 0.15595 0.51438 0.0
O348 O 0.20708 0.11829 0.53533 0.0
O349 O 0.20553 0.13694 0.49585 0.0
O350 O 0.20959 0.17819 0.53905 0.0
O351 O 0.1782 0.18577 0.50671 0.0
C352 C 0.12422 0.0833 0.43357 0.0
C353 C 0.1464 0.08338 0.41471 0.0
H354 H 0.19368 0.08885 0.38329 0.0
H355 H 0.23414 0.12314 0.39173 0.0
H356 H 0.0919 0.12302 0.51216 0.0
H357 H 0.08627 0.08859 0.4745 0.0
H358 H 0.10659 0.06802 0.4315 0.0
H359 H 0.14549 0.06816 0.39841 0.0
Mn360 Mn 0.12971 0.04692 0.73678 0.0
Mn361 Mn 0.11633 0.09322 0.78516 0.0
C362 C 0.16269 0.08207 0.74833 0.0
C363 C 0.15199 0.00872 0.72209 0.0
C364 C 0.09093 0.0934 0.72984 0.0
O365 O 0.09734 0.02663 0.7566 0.0
O366 O 0.08844 0.06072 0.7864 0.0
C367 C 0.13022 0.06061 0.832 0.0
N368 N 0.135 0.08353 0.81721 0.0
C369 C 0.17317 0.10062 0.84629 0.0
C370 C 0.16855 0.07726 0.86192 0.0
C371 C 0.14696 0.05719 0.85476 0.0
C372 C 0.15557 0.10308 0.82405 0.0
H373 H 0.11384 0.045 0.82641 0.0
C374 C 0.08263 0.03689 0.77537 0.0
O375 O 0.13234 0.0181 0.70758 0.0
O376 O 0.15602 0.01952 0.74596 0.0
N377 N 0.14232 0.12509 0.78564 0.0
C378 C 0.14504 0.14557 0.76756 0.0
C379 C 0.16624 0.16692 0.77134 0.0
C380 C 0.18441 0.16694 0.79362 0.0
C381 C 0.18115 0.14566 0.81199 0.0
C382 C 0.15944 0.1251 0.80734 0.0
H383 H 0.13133 0.14542 0.75023 0.0
O384 O 0.16227 0.07126 0.72423 0.0
O385 O 0.14266 0.07303 0.76428 0.0
O386 O 0.10161 0.07173 0.72114 0.0
O387 O 0.09671 0.10476 0.75286 0.0
C388 C 0.19895 0.14373 0.8344 0.0
C389 C 0.19494 0.12124 0.85156 0.0
H390 H 0.1816 0.0744 0.87932 0.0
H391 H 0.14335 0.03904 0.86664 0.0
H392 H 0.16871 0.18321 0.75701 0.0
H393 H 0.20094 0.18328 0.79629 0.0
H394 H 0.21598 0.15928 0.83846 0.0
H395 H 0.20895 0.11984 0.86856 0.0
Mn396 Mn 0.26024 0.89728 0.0065 0.0
Mn397 Mn 0.2079 0.9065 0.96317 0.0
C398 C 0.22567 0.86244 -0.00292 0.0
C399 C 0.30359 0.87996 0.01501 0.0
C400 C 0.21038 0.93092 0.01992 0.0
O401 O 0.27575 0.93111 0.98662 0.0
O402 O 0.23925 0.9354 0.95834 0.0
C403 C 0.23758 0.8934 0.91262 0.0
N404 N 0.21569 0.88811 0.92986 0.0
C405 C 0.19716 0.84982 0.90211 0.0
C406 C 0.21941 0.85498 0.88396 0.0
C407 C 0.2397 0.87687 0.88924 0.0
C408 C 0.19598 0.86718 0.92491 0.0
H409 H 0.25337 0.91003 0.91676 0.0
C410 C 0.2634 0.94371 0.96829 0.0
O411 O 0.29325 0.89759 0.03161 0.0
O412 O 0.29019 0.87486 -0.00743 0.0
N413 N 0.17659 0.87973 0.96604 0.0
C414 C 0.1573 0.87672 0.98625 0.0
C415 C 0.13587 0.85535 0.9844 0.0
C416 C 0.13454 0.83732 0.96184 0.0
C417 C 0.15456 0.84093 0.94124 0.0
C418 C 0.1752 0.86281 0.94402 0.0
H419 H 0.15844 0.89036 0.00375 0.0
O420 O 0.23952 0.86292 0.01954 0.0
O421 O 0.23199 0.88286 0.98148 0.0
O422 O 0.23354 0.92159 0.0268 0.0
O423 O 0.1984 0.92549 -0.00288 0.0
C424 C 0.15518 0.82335 0.91832 0.0
C425 C 0.17646 0.8278 0.89877 0.0
H426 H 0.22127 0.84212 0.86604 0.0
H427 H 0.25702 0.88088 0.87541 0.0
H428 H 0.12056 0.85264 0.00042 0.0
H429 H 0.1182 0.82065 0.96065 0.0
H430 H 0.13958 0.80617 0.91568 0.0
H431 H 0.1769 0.81397 0.88139 0.0
Mn432 Mn 0.25367 0.41089 0.00747 0.0
Mn433 Mn 0.30914 0.40498 0.04783 0.0
C434 C 0.26808 0.44575 0.03782 0.0
C435 C 0.23437 0.42821 0.96904 0.0
C436 C 0.25254 0.37343 0.05579 0.0
O437 O 0.27328 0.38013 0.98877 0.0
O438 O 0.31064 0.37849 0.01669 0.0
C439 C 0.35433 0.42606 0.0112 0.0
N440 N 0.34017 0.42811 0.03493 0.0
C441 C 0.36822 0.46937 0.04793 0.0
C442 C 0.38324 0.4676 0.0237 0.0
C443 C 0.37627 0.44584 0.00527 0.0
C444 C 0.34683 0.44885 0.0529 0.0
H445 H 0.3488 0.40955 -0.00316 0.0
C446 C 0.29582 0.36975 -0.00386 0.0
O447 O 0.22107 0.40837 0.98199 0.0
O448 O 0.25986 0.43552 0.97667 0.0
N449 N 0.30952 0.42983 0.0783 0.0
C450 C 0.29183 0.42947 0.09989 0.0
C451 C 0.29538 0.45031 0.11988 0.0
C452 C 0.31699 0.47132 0.11741 0.0
C453 C 0.33494 0.47124 0.09499 0.0
C454 C 0.33061 0.44975 0.07589 0.0
H455 H 0.27497 0.41354 0.10167 0.0
O456 O 0.24219 0.44282 0.02969 0.0
O457 O 0.28404 0.42723 0.02887 0.0
O458 O 0.24007 0.3838 0.03624 0.0
O459 O 0.27799 0.38071 0.06258 0.0
C460 C 0.35654 0.49197 0.09055 0.0
C461 C 0.37319 0.49102 0.06705 0.0
H462 H 0.39996 0.48298 0.01892 0.0
H463 H 0.38765 0.44443 0.98646 0.0
H464 H 0.28135 0.45031 0.13705 0.0
H465 H 0.31944 0.48754 0.1327 0.0
H466 H 0.36032 0.50891 0.10491 0.0
H467 H 0.38951 0.50724 0.0637 0.0
Mn468 Mn 0.72987 0.16741 -0.00822 0.0
Mn469 Mn 0.7908 0.16146 0.02457 0.0
C470 C 0.74659 0.20052 0.02322 0.0
C471 C 0.70413 0.18643 0.95831 0.0
C472 C 0.73705 0.1264 0.036 0.0
O473 O 0.74827 0.13916 0.96797 0.0
O474 O 0.78951 0.13862 -0.00928 0.0
C475 C 0.8303 0.18847 0.98559 0.0
N476 N 0.81924 0.18719 0.01089 0.0
C477 C 0.84847 0.22711 0.02568 0.0
C478 C 0.86036 0.22869 -0.00016 0.0
C479 C 0.85122 0.20929 0.97971 0.0
C480 C 0.828 0.20566 0.03046 0.0
H481 H 0.82309 0.1738 0.96998 0.0
C482 C 0.77271 0.13059 0.97133 0.0
O483 O 0.69373 0.16508 0.97104 0.0
O484 O 0.7303 0.19436 0.96286 0.0
N485 N 0.79404 0.18304 0.05733 0.0
C486 C 0.77896 0.17983 0.08053 0.0
C487 C 0.78466 0.19826 0.10237 0.0
C488 C 0.80574 0.21981 0.10011 0.0
C489 C 0.82101 0.22267 0.07603 0.0
C490 C 0.81462 0.20348 0.05506 0.0
H491 H 0.76253 0.16348 0.08224 0.0
O492 O 0.71995 0.19688 0.01798 0.0
O493 O 0.76238 0.18385 0.01078 0.0
O494 O 0.72167 0.13765 0.01924 0.0
O495 O 0.76291 0.13418 0.04038 0.0
C496 C 0.84181 0.24421 0.07179 0.0
C497 C 0.85556 0.24641 0.04665 0.0
H498 H 0.87627 0.24491 -0.00486 0.0
H499 H 0.86015 0.21049 0.95966 0.0
H500 H 0.77269 0.196 0.12084 0.0
H501 H 0.80984 0.23418 0.11689 0.0
H502 H 0.84711 0.25943 0.0876 0.0
H503 H 0.87122 0.26329 0.04351 0.0
Mn504 Mn 0.13131 0.53842 0.2695 0.0
Mn505 Mn 0.15094 0.4777 0.24648 0.0
C506 C 0.10731 0.51518 0.23425 0.0
C507 C 0.10041 0.56322 0.29497 0.0
C508 C 0.1824 0.53166 0.23303 0.0
O509 O 0.1557 0.52769 0.30058 0.0
O510 O 0.1685 0.48771 0.28227 0.0
C511 C 0.12176 0.44321 0.2877 0.0
N512 N 0.12599 0.44948 0.26134 0.0
C513 C 0.09115 0.41387 0.24683 0.0
C514 C 0.08662 0.40689 0.27381 0.0
C515 C 0.10199 0.42163 0.29433 0.0
C516 C 0.11139 0.43535 0.24143 0.0
H517 H 0.13327 0.45468 0.30356 0.0
C518 C 0.16942 0.50632 0.30107 0.0
O519 O 0.12384 0.57518 0.28605 0.0
O520 O 0.09707 0.53691 0.29177 0.0
N521 N 0.13495 0.46585 0.21235 0.0
C522 C 0.14039 0.47641 0.18759 0.0
C523 C 0.12597 0.46463 0.16494 0.0
C524 C 0.10614 0.44215 0.16799 0.0
C525 C 0.10094 0.43159 0.19368 0.0
C526 C 0.11616 0.444 0.21547 0.0
H527 H 0.15536 0.49389 0.18521 0.0
O528 O 0.10744 0.54151 0.23705 0.0
O529 O 0.12212 0.50324 0.25177 0.0
O530 O 0.16732 0.54676 0.2475 0.0
O531 O 0.17734 0.50572 0.22988 0.0
C532 C 0.08079 0.40966 0.1986 0.0
C533 C 0.07591 0.40081 0.22515 0.0
H534 H 0.07118 0.39045 0.27903 0.0
H535 H 0.09847 0.4165 0.31522 0.0
H536 H 0.12999 0.47298 0.1452 0.0
H537 H 0.09484 0.43331 0.15051 0.0
H538 H 0.06866 0.39971 0.18214 0.0
H539 H 0.06009 0.38417 0.22871 0.0
Mn540 Mn 0.7595 0.91243 0.50465 0.0
Mn541 Mn 0.81126 0.9054 0.54901 0.0
C542 C 0.7706 0.94623 0.53717 0.0
C543 C 0.74354 0.93083 0.46529 0.0
C544 C 0.75481 0.87201 0.55035 0.0
O545 O 0.78138 0.88274 0.4868 0.0
O546 O 0.81703 0.88119 0.51681 0.0
C547 C 0.85958 0.93026 0.51837 0.0
N548 N 0.84278 0.93026 0.54059 0.0
C549 C 0.86799 0.97121 0.55862 0.0
C550 C 0.88567 0.97157 0.536 0.0
C551 C 0.88145 0.95098 0.5158 0.0
C552 C 0.8468 0.94982 0.56026 0.0
H553 H 0.85618 0.91465 0.50266 0.0
C554 C 0.80381 0.87284 0.49517 0.0
O555 O 0.72956 0.91019 0.47642 0.0
O556 O 0.76803 0.9385 0.47535 0.0
N557 N 0.80741 0.9281 0.5806 0.0
C558 C 0.7873 0.92584 0.60011 0.0
C559 C 0.78787 0.94538 0.6214 0.0
C560 C 0.80902 0.96706 0.62231 0.0
C561 C 0.82947 0.96897 0.60196 0.0
C562 C 0.82803 0.94871 0.58144 0.0
H563 H 0.7708 0.9094 0.59926 0.0
O564 O 0.74554 0.9433 0.52689 0.0
O565 O 0.78746 0.92814 0.52904 0.0
O566 O 0.74355 0.88393 0.53106 0.0
O567 O 0.7796 0.87907 0.55921 0.0
C568 C 0.85083 -0.00948 0.60089 0.0
C569 C 0.87009 -0.00838 0.57926 0.0
H570 H 0.90235 0.9877 0.53379 0.0
H571 H 0.8949 0.95121 0.4982 0.0
H572 H 0.77192 0.94386 0.63694 0.0
H573 H 0.80919 0.98227 0.63859 0.0
H574 H 0.85241 0.00654 0.61643 0.0
H575 H 0.88619 0.00847 0.57848 0.0
Mn576 Mn 0.86136 0.02407 0.28619 0.0
Mn577 Mn 0.86652 0.98204 0.2322 0.0
C578 C 0.8288 0.02347 0.25195 0.0
C579 C 0.84017 0.03086 0.32813 0.0
C580 C 0.90483 0.03402 0.24169 0.0
O581 O 0.88916 -0.00224 0.2986 0.0
O582 O 0.88919 0.96886 0.26221 0.0
C583 C 0.83508 0.93299 0.25393 0.0
N584 N 0.83799 0.95256 0.23493 0.0
C585 C 0.79528 0.93474 0.21271 0.0
C586 C 0.79194 0.91426 0.23193 0.0
C587 C 0.81192 0.91339 0.25263 0.0
C588 C 0.81889 0.95359 0.21493 0.0
H589 H 0.85026 0.93247 0.27002 0.0
C590 C 0.8981 0.97722 0.28566 0.0
O591 O 0.86238 0.04623 0.32104 0.0
O592 O 0.8326 0.01035 0.31221 0.0
N593 N 0.84562 -0.00719 0.20187 0.0
C594 C 0.85141 0.01449 0.18559 0.0
C595 C 0.83332 0.01848 0.16396 0.0
C596 C 0.8095 0.00017 0.15933 0.0
C597 C 0.80407 0.97792 0.17629 0.0
C598 C 0.82306 0.97477 0.19728 0.0
H599 H 0.86962 0.02868 0.1892 0.0
O600 O 0.83242 0.04459 0.26812 0.0
O601 O 0.84478 0.0038 0.25629 0.0
O602 O 0.89306 0.04254 0.26323 0.0
O603 O 0.89607 0.01225 0.22834 0.0
C604 C 0.78033 0.95901 0.17347 0.0
C605 C 0.77588 0.93749 0.19172 0.0
H606 H 0.774 0.89923 0.23111 0.0
H607 H 0.80939 0.89775 0.26763 0.0
H608 H 0.83762 0.03573 0.15099 0.0
H609 H 0.79541 0.00351 0.14283 0.0
H610 H 0.76518 0.96101 0.15752 0.0
H611 H 0.75736 0.9233 0.18955 0.0
Mn612 Mn 0.23261 0.6655 0.50294 0.0
Mn613 Mn 0.29137 0.65177 0.53538 0.0
C614 C 0.25194 0.69567 0.5357 0.0
C615 C 0.21076 0.68902 0.46993 0.0
C616 C 0.23436 0.62099 0.54427 0.0
O617 O 0.24838 0.63653 0.47807 0.0
O618 O 0.28964 0.63206 0.49977 0.0
C619 C 0.33472 0.67871 0.50009 0.0
N620 N 0.32223 0.67644 0.52472 0.0
C621 C 0.35322 0.71337 0.5433 0.0
C622 C 0.36652 0.71598 0.51817 0.0
C623 C 0.35723 0.69857 0.49648 0.0
C624 C 0.33114 0.69296 0.54579 0.0
H625 H 0.32744 0.66557 0.4833 0.0
C626 C 0.27223 0.62644 0.48027 0.0
O627 O 0.19742 0.66822 0.48139 0.0
O628 O 0.23726 0.69365 0.47542 0.0
N629 N 0.29462 0.67049 0.56974 0.0
C630 C 0.27828 0.66656 0.59206 0.0
C631 C 0.28411 0.68301 0.61531 0.0
C632 C 0.30659 0.70338 0.61532 0.0
C633 C 0.32307 0.70708 0.59208 0.0
C634 C 0.31644 0.68988 0.56961 0.0
H635 H 0.26081 0.65111 0.59204 0.0
O636 O 0.22534 0.69475 0.5302 0.0
O637 O 0.2659 0.67775 0.52279 0.0
O638 O 0.22048 0.63572 0.5292 0.0
O639 O 0.26089 0.62514 0.54802 0.0
C640 C 0.34546 0.72752 0.59015 0.0
C641 C 0.36053 0.73065 0.56579 0.0
H642 H 0.38368 0.73148 0.51522 0.0
H643 H 0.36727 0.70057 0.47697 0.0
H644 H 0.2712 0.68012 0.63313 0.0
H645 H 0.31085 0.71619 0.63322 0.0
H646 H 0.35104 0.74116 0.60719 0.0
H647 H 0.37747 0.74667 0.56445 0.0
Mn648 Mn 0.35548 0.52287 0.77638 0.0
Mn649 Mn 0.36319 0.48234 0.72177 0.0
C650 C 0.32295 0.52132 0.74184 0.0
C651 C 0.33403 0.52867 0.81831 0.0
C652 C 0.39971 0.53515 0.73308 0.0
O653 O 0.38415 0.49726 0.78868 0.0
O654 O 0.38575 0.46901 0.75189 0.0
C655 C 0.33312 0.43157 0.74133 0.0
N656 N 0.33556 0.45193 0.72313 0.0
C657 C 0.29334 0.43396 0.7002 0.0
C658 C 0.29048 0.41266 0.71858 0.0
C659 C 0.31048 0.41146 0.73922 0.0
C660 C 0.31653 0.45321 0.70311 0.0
H661 H 0.34826 0.43082 0.75743 0.0
C662 C 0.39395 0.47718 0.77563 0.0
O663 O 0.35591 0.54455 0.81137 0.0
O664 O 0.32682 0.5082 0.80216 0.0
N665 N 0.34233 0.49353 0.69159 0.0
C666 C 0.34731 0.51622 0.6765 0.0
C667 C 0.32892 0.52083 0.65528 0.0
C668 C 0.30557 0.50213 0.64991 0.0
C669 C 0.3009 0.4789 0.66572 0.0
C670 C 0.32019 0.47518 0.68632 0.0
H671 H 0.36506 0.53078 0.68078 0.0
O672 O 0.32582 0.54244 0.75813 0.0
O673 O 0.33997 0.50245 0.74604 0.0
O674 O 0.38686 0.54281 0.75429 0.0
O675 O 0.39209 0.51342 0.71915 0.0
C676 C 0.27753 0.45964 0.66226 0.0
C677 C 0.27375 0.43718 0.67949 0.0
H678 H 0.27289 0.39727 0.71719 0.0
H679 H 0.30832 0.39518 0.75358 0.0
H680 H 0.3326 0.53886 0.64325 0.0
H681 H 0.29123 0.50595 0.63377 0.0
H682 H 0.26216 0.46208 0.64662 0.0
H683 H 0.25552 0.42269 0.67683 0.0
Mn684 Mn 0.62976 0.03337 0.76959 0.0
Mn685 Mn 0.65278 0.97418 0.74609 0.0
C686 C 0.60846 0.01062 0.73273 0.0
C687 C 0.59719 0.05667 0.7944 0.0
C688 C 0.68351 0.02945 0.73617 0.0
O689 O 0.65293 0.02233 0.80142 0.0
O690 O 0.66733 0.98289 0.78329 0.0
C691 C 0.62162 0.93689 0.78374 0.0
N692 N 0.62748 0.9447 0.75806 0.0
C693 C 0.59468 0.90907 0.73981 0.0
C694 C 0.58849 0.90051 0.76607 0.0
C695 C 0.60201 0.9145 0.78812 0.0
C696 C 0.61468 0.93131 0.73668 0.0
H697 H 0.63173 0.94775 0.80077 0.0
C698 C 0.66678 0.00107 0.80239 0.0
O699 O 0.62077 0.06935 0.78674 0.0
O700 O 0.59443 0.03043 0.79028 0.0
N701 N 0.63961 0.96373 0.71059 0.0
C702 C 0.64662 0.97566 0.68675 0.0
C703 C 0.63413 0.96476 0.66276 0.0
C704 C 0.61461 0.94176 0.66355 0.0
C705 C 0.60778 0.9298 0.68832 0.0
C706 C 0.62109 0.9414 0.71154 0.0
H707 H 0.66142 -0.00649 0.68611 0.0
O708 O 0.60746 0.03678 0.73623 0.0
O709 O 0.62279 -0.00137 0.75059 0.0
O710 O 0.66641 0.04342 0.7495 0.0
O711 O 0.67993 0.00346 0.73249 0.0
C712 C 0.58788 0.90718 0.69096 0.0
C713 C 0.58135 0.89681 0.71668 0.0
H714 H 0.5732 0.8834 0.76954 0.0
H715 H 0.59721 0.90813 0.80846 0.0
H716 H 0.63942 0.97417 0.64374 0.0
H717 H 0.60483 0.93357 0.64503 0.0
H718 H 0.57722 0.8978 0.67336 0.0
H719 H 0.56578 0.87961 0.71847 0.0
Mn720 Mn 0.72855 0.64657 0.02021 0.0
Mn721 Mn 0.68464 0.66167 0.97081 0.0
C722 C 0.68932 0.61742 0.00919 0.0
C723 C 0.76501 0.62099 0.03438 0.0
C724 C 0.68722 0.69126 0.02538 0.0
O725 O 0.7529 0.67543 -0.0004 0.0
O726 O 0.72182 0.68256 0.96645 0.0
C727 C 0.71394 0.63679 0.92479 0.0
N728 N 0.69042 0.63818 0.94022 0.0
C729 C 0.66612 0.60112 0.91465 0.0
C730 C 0.68998 0.59949 0.89831 0.0
C731 C 0.71399 0.6174 0.90341 0.0
C732 C 0.66716 0.62112 0.93543 0.0
H733 H 0.73259 0.65021 0.9289 0.0
C734 C 0.74582 0.6873 0.97818 0.0
O735 O 0.75754 0.6417 0.04895 0.0
O736 O 0.75352 0.61745 0.01086 0.0
N737 N 0.64841 0.64204 0.9733 0.0
C738 C 0.62795 0.64498 -0.00789 0.0
C739 C 0.60287 0.62793 -0.00952 0.0
C740 C 0.59915 0.60799 0.96963 0.0
C741 C 0.62052 0.60535 0.95051 0.0
C742 C 0.6449 0.62317 0.95293 0.0
H743 H 0.63088 0.66005 0.00836 0.0
O744 O 0.70002 0.61751 0.03315 0.0
O745 O 0.70104 0.63545 -0.00675 0.0
O746 O 0.70606 0.67745 0.03562 0.0
O747 O 0.67706 0.68651 0.0017 0.0
C748 C 0.61886 0.58531 0.92953 0.0
C749 C 0.64164 0.5832 0.91161 0.0
H750 H 0.69022 0.58434 0.88201 0.0
H751 H 0.73257 0.61611 0.89103 0.0
H752 H 0.58654 0.62999 0.0054 0.0
H753 H 0.57992 0.59465 0.96865 0.0
H754 H 0.60032 0.57117 0.92722 0.0
H755 H 0.64027 0.56746 0.89579 0.0
Mn756 Mn 0.87386 0.51183 0.74159 0.0
Mn757 Mn 0.86324 0.56682 0.78069 0.0
C758 C 0.90965 0.54643 0.74832 0.0
C759 C 0.89303 0.46936 0.7378 0.0
C760 C 0.83458 0.55437 0.72632 0.0
O761 O 0.83877 0.49948 0.76341 0.0
O762 O 0.83753 0.53563 0.7929 0.0
C763 C 0.88474 0.54938 0.83285 0.0
N764 N 0.88633 0.56716 0.81218 0.0
C765 C 0.92717 0.59223 0.83165 0.0
C766 C 0.92589 0.57426 0.85323 0.0
C767 C 0.90456 0.55276 0.85384 0.0
C768 C 0.90662 0.58805 0.81149 0.0
H769 H 0.8686 0.53262 0.83316 0.0
C770 C 0.82777 0.51211 0.78335 0.0
O771 O 0.87503 0.47654 0.72011 0.0
O772 O 0.89703 0.48533 0.75881 0.0
N773 N 0.88746 0.59771 0.77002 0.0
C774 C 0.88694 0.61192 0.74683 0.0
C775 C 0.90737 0.63367 0.74264 0.0
C776 C 0.92818 0.64045 0.76226 0.0
C777 C 0.92833 0.62546 0.78595 0.0
C778 C 0.9072 0.60426 0.78917 0.0
H779 H 0.87117 0.60653 0.73158 0.0
O780 O 0.90966 0.53067 0.72694 0.0
O781 O 0.88769 0.54224 0.76343 0.0
O782 O 0.84869 0.53441 0.71874 0.0
O783 O 0.83874 0.56773 0.74868 0.0
C784 C 0.94905 0.63024 0.80613 0.0
C785 C 0.94847 0.61363 0.82896 0.0
H786 H 0.94135 0.57658 0.86928 0.0
H787 H 0.90355 0.5387 0.87034 0.0
H788 H 0.90722 0.64503 0.72424 0.0
H789 H 0.94412 0.65701 0.75879 0.0
H790 H 0.96576 0.64638 0.80412 0.0
H791 H 0.96476 0.61723 0.84414 0.0
Mn792 Mn 0.75561 0.39604 0.50982 0.0
Mn793 Mn 0.70591 0.40866 0.46487 0.0
C794 C 0.72098 0.36232 0.49715 0.0
C795 C 0.79774 0.37711 0.51982 0.0
C796 C 0.70607 0.4305 0.52246 0.0
O797 O 0.77324 0.43014 0.49181 0.0
O798 O 0.73812 0.43712 0.46275 0.0
C799 C 0.73766 0.39776 0.41495 0.0
N800 N 0.71494 0.3919 0.43105 0.0
C801 C 0.697 0.35551 0.4007 0.0
C802 C 0.72013 0.36127 0.38371 0.0
C803 C 0.74053 0.3825 0.39087 0.0
C804 C 0.69506 0.37166 0.42425 0.0
H805 H 0.75353 0.41388 0.42052 0.0
C806 C 0.76215 0.44406 0.4737 0.0
O807 O 0.78704 0.39448 0.53645 0.0
O808 O 0.78553 0.37318 0.49663 0.0
N809 N 0.67409 0.38224 0.4652 0.0
C810 C 0.65412 0.37815 0.48466 0.0
C811 C 0.63264 0.35704 0.48107 0.0
C812 C 0.63196 0.34035 0.45756 0.0
C813 C 0.65272 0.34499 0.43779 0.0
C814 C 0.67342 0.36654 0.44234 0.0
H815 H 0.65479 0.39072 0.50291 0.0
O816 O 0.73316 0.3616 0.52041 0.0
O817 O 0.72854 0.38351 0.48295 0.0
O818 O 0.72873 0.42048 0.52976 0.0
O819 O 0.69495 0.42615 0.49914 0.0
C820 C 0.65406 0.32869 0.41406 0.0
C821 C 0.67616 0.33397 0.39551 0.0
H822 H 0.72258 0.34935 0.36527 0.0
H823 H 0.75852 0.38696 0.37794 0.0
H824 H 0.61678 0.35349 0.49648 0.0
H825 H 0.61555 0.32387 0.45502 0.0
H826 H 0.63841 0.31181 0.41004 0.0
H827 H 0.67716 0.32107 0.3775 0.0
Mn828 Mn 0.63021 0.55166 0.23652 0.0
Mn829 Mn 0.61586 0.59685 0.28558 0.0
C830 C 0.6641 0.5847 0.2513 0.0
C831 C 0.65132 0.51287 0.22165 0.0
C832 C 0.59314 0.59936 0.22926 0.0
O833 O 0.59612 0.5319 0.25419 0.0
O834 O 0.58722 0.56489 0.28529 0.0
C835 C 0.62673 0.56309 0.33247 0.0
N836 N 0.63284 0.58614 0.31814 0.0
C837 C 0.67016 0.60174 0.3488 0.0
C838 C 0.66418 0.57824 0.36396 0.0
C839 C 0.64234 0.55885 0.35577 0.0
C840 C 0.65363 0.60506 0.32598 0.0
H841 H 0.61016 0.548 0.32609 0.0
C842 C 0.58121 0.54165 0.2731 0.0
O843 O 0.6331 0.52374 0.20657 0.0
O844 O 0.65461 0.52271 0.24599 0.0
N845 N 0.64274 0.62801 0.28736 0.0
C846 C 0.64701 0.64858 0.26952 0.0
C847 C 0.66873 0.66923 0.27425 0.0
C848 C 0.68586 0.66845 0.2972 0.0
C849 C 0.68108 0.64704 0.31525 0.0
C850 C 0.65893 0.6272 0.30964 0.0
H851 H 0.63412 0.64903 0.25167 0.0
O852 O 0.66451 0.57523 0.22669 0.0
O853 O 0.64241 0.57616 0.26548 0.0
O854 O 0.60422 0.57806 0.22026 0.0
O855 O 0.59771 0.60961 0.25294 0.0
C856 C 0.6978 0.64428 0.33828 0.0
C857 C 0.69233 0.62167 0.35505 0.0
H858 H 0.67638 0.57474 0.38176 0.0
H859 H 0.63769 0.54059 0.36728 0.0
H860 H 0.67239 0.68561 0.26014 0.0
H861 H 0.70278 0.68426 0.30063 0.0
H862 H 0.71513 0.65926 0.3431 0.0
H863 H 0.70554 0.6196 0.37252 0.0
O864 O 0.15713 0.17874 0.12048 0.0
Mn865 Mn 0.12859 0.14857 0.13564 0.0
O866 O 0.17807 0.19659 0.15881 0.0
Mn867 Mn 0.16518 0.17061 0.18386 0.0
O868 O 0.10046 0.1201 0.15526 0.0
O869 O 0.10179 0.15638 0.10481 0.0
Mn870 Mn 0.08054 0.12509 0.10241 0.0
O871 O 0.14407 0.11711 0.11192 0.0
O872 O 0.06014 0.12154 0.1335 0.0
O873 O 0.11063 0.17868 0.15991 0.0
O874 O 0.13139 0.17614 0.20011 0.0
O875 O 0.06654 0.14509 0.07644 0.0
O876 O 0.10398 0.09782 0.09328 0.0
C877 C 0.1776 0.13021 0.17496 0.0
C878 C 0.17372 0.19677 0.13328 0.0
C879 C 0.07351 0.11742 0.1547 0.0
C880 C 0.08598 0.16324 0.08497 0.0
C881 C 0.13038 0.09802 0.09776 0.0
C882 C 0.11095 0.18231 0.18571 0.0
O883 O 0.15713 0.14128 0.16368 0.0
O884 O 0.18884 0.14486 0.19477 0.0
O885 O 0.10534 0.86922 0.35316 0.0
Mn886 Mn 0.11629 0.89499 0.38653 0.0
O887 O 0.14714 0.85834 0.33593 0.0
Mn888 Mn 0.17131 0.87425 0.36248 0.0
O889 O 0.12901 0.92256 0.41835 0.0
O890 O 0.08019 0.91333 0.3812 0.0
Mn891 Mn 0.06546 0.91899 0.41334 0.0
O892 O 0.09673 0.86767 0.41449 0.0
O893 O 0.09045 0.94246 0.4324 0.0
O894 O 0.13767 0.92325 0.36019 0.0
O895 O 0.18206 0.91051 0.35788 0.0
O896 O 0.04085 0.9323 0.39002 0.0
O897 O 0.05717 0.88558 0.42861 0.0
C898 C 0.16608 0.85778 0.40195 0.0
C899 C 0.1203 0.85811 0.33478 0.0
C900 C 0.11682 0.94024 0.43299 0.0
C901 C 0.05822 0.92405 0.372 0.0
C902 C 0.0742 0.86691 0.42894 0.0
C903 C 0.16402 0.92783 0.35425 0.0
O904 O 0.1507 0.87514 0.39153 0.0
O905 O 0.18749 0.85258 0.38719 0.0
O906 O 0.41008 0.93796 0.64302 0.0
Mn907 Mn 0.37594 0.91713 0.62225 0.0
O908 O 0.43303 0.96521 0.61288 0.0
Mn909 Mn 0.41159 0.95341 0.58328 0.0
O910 O 0.34327 0.89473 0.60036 0.0
O911 O 0.37518 0.88876 0.65113 0.0
Mn912 Mn 0.34026 0.87782 0.65902 0.0
O913 O 0.34643 0.93883 0.64392 0.0
O914 O 0.32491 0.8622 0.62805 0.0
O915 O 0.40371 0.89414 0.59928 0.0
O916 O 0.42149 0.92167 0.56685 0.0
O917 O 0.36184 0.85894 0.68139 0.0
O918 O 0.32402 0.90855 0.67172 0.0
C919 C 0.37068 0.96694 0.57965 0.0
C920 C 0.43024 0.95564 0.63643 0.0
C921 C 0.327 0.87308 0.60509 0.0
C922 C 0.38245 0.87338 0.67035 0.0
C923 C 0.32806 0.93246 0.66228 0.0
C924 C 0.41803 0.89833 0.57749 0.0
O925 O 0.37679 0.94707 0.59482 0.0
O926 O 0.39137 0.97743 0.56537 0.0
O927 O 0.40499 0.18147 0.90871 0.0
Mn928 Mn 0.38346 0.16459 0.87459 0.0
O929 O 0.42859 0.14767 0.92576 0.0
Mn930 Mn 0.41478 0.11988 0.90237 0.0
O931 O 0.36034 0.14668 0.84169 0.0
O932 O 0.35759 0.19556 0.87822 0.0
Mn933 Mn 0.35289 0.20795 0.84558 0.0
O934 O 0.41042 0.18699 0.84798 0.0
O935 O 0.33592 0.17985 0.82489 0.0
O936 O 0.35604 0.14014 0.89959 0.0
O937 O 0.37995 0.10415 0.91094 0.0
O938 O 0.33196 0.22894 0.8672 0.0
O939 O 0.38732 0.22186 0.83324 0.0
C940 C 0.42989 0.12052 0.86204 0.0
C941 C 0.42128 0.17215 0.92638 0.0
C942 C 0.34231 0.15516 0.82521 0.0
C943 C 0.34179 0.21469 0.88614 0.0
C944 C 0.40911 0.20857 0.83393 0.0
C945 C 0.35753 0.11655 0.91034 0.0
O946 O 0.41054 0.13525 0.87128 0.0
O947 O 0.43856 0.10343 0.87903 0.0
O948 O 0.60106 0.36816 0.85258 0.0
Mn949 Mn 0.60855 0.39395 0.88648 0.0
O950 O 0.64499 0.36207 0.83727 0.0
Mn951 Mn 0.66657 0.37713 0.86626 0.0
O952 O 0.61849 0.42187 0.91876 0.0
O953 O 0.57165 0.41058 0.87903 0.0
Mn954 Mn 0.55584 0.41589 0.91088 0.0
O955 O 0.58875 0.3657 0.91325 0.0
O956 O 0.57885 0.44118 0.93006 0.0
O957 O 0.63024 0.42322 0.86146 0.0
O958 O 0.67559 0.41404 0.86487 0.0
O959 O 0.53098 0.42769 0.88705 0.0
O960 O 0.54857 0.38266 0.92687 0.0
C961 C 0.65813 0.35738 0.90382 0.0
C962 C 0.61815 0.35953 0.83463 0.0
C963 C 0.60527 0.43985 0.93196 0.0
C964 C 0.54931 0.4205 0.86946 0.0
C965 C 0.56602 0.36439 0.92736 0.0
C966 C 0.65687 0.43 0.85906 0.0
O967 O 0.6435 0.37545 0.89352 0.0
O968 O 0.6812 0.3542 0.89081 0.0
O969 O 0.90844 0.43819 0.14703 0.0
Mn970 Mn 0.87442 0.41643 0.12685 0.0
O971 O 0.93054 0.46526 0.11621 0.0
Mn972 Mn 0.90862 0.45307 0.087 0.0
O973 O 0.8419 0.39322 0.10532 0.0
O974 O 0.87489 0.3884 0.1561 0.0
Mn975 Mn 0.84017 0.37627 0.16359 0.0
O976 O 0.8447 0.43748 0.14872 0.0
O977 O 0.82551 0.35968 0.13273 0.0
O978 O 0.90234 0.39395 0.10366 0.0
O979 O 0.91853 0.42135 0.07048 0.0
O980 O 0.86209 0.35837 0.1864 0.0
O981 O 0.82252 0.4064 0.17585 0.0
C982 C 0.86727 0.46595 0.08431 0.0
C983 C 0.92825 0.45604 0.13995 0.0
C984 C 0.82671 0.37082 0.1099 0.0
C985 C 0.88241 0.37341 0.17558 0.0
C986 C 0.82617 0.4305 0.16672 0.0
C987 C 0.91584 0.39812 0.08143 0.0
O988 O 0.87415 0.4462 0.09927 0.0
O989 O 0.88745 0.47677 0.06963 0.0
O990 O 0.90429 0.68665 0.41271 0.0
Mn991 Mn 0.88357 0.66408 0.38105 0.0
O992 O 0.93552 0.65951 0.42976 0.0
Mn993 Mn 0.92435 0.62852 0.40953 0.0
O994 O 0.86156 0.64052 0.35045 0.0
O995 O 0.85297 0.69016 0.38497 0.0
Mn996 Mn 0.84 0.69728 0.35306 0.0
O997 O 0.90365 0.68864 0.35162 0.0
O998 O 0.82507 0.66446 0.339 0.0
O999 O 0.86221 0.63772 0.40882 0.0
O1000 O 0.89324 0.60844 0.4221 0.0
O1001 O 0.8204 0.71768 0.37692 0.0
O1002 O 0.87019 0.71304 0.33407 0.0
C1003 C 0.93687 0.62699 0.36864 0.0
C1004 C 0.92385 0.68198 0.42942 0.0
C1005 C 0.83832 0.64297 0.33784 0.0
C1006 C 0.83642 0.70773 0.39463 0.0
C1007 C 0.89536 0.70601 0.33489 0.0
C1008 C 0.8685 0.61634 0.42146 0.0
O1009 O 0.91575 0.63976 0.37742 0.0
O1010 O 0.94929 0.61353 0.38663 0.0
O1011 O 0.84703 0.87751 0.90731 0.0
Mn1012 Mn 0.87284 0.90964 0.89141 0.0
O1013 O 0.82808 0.85613 0.86975 0.0
Mn1014 Mn 0.83932 0.88127 0.84341 0.0
O1015 O 0.89928 0.93987 0.87245 0.0
O1016 O 0.89868 0.90744 0.92335 0.0
Mn1017 Mn 0.91695 0.93992 0.928 0.0
O1018 O 0.85252 0.93987 0.91228 0.0
O1019 O 0.93839 0.94353 0.89732 0.0
O1020 O 0.89575 0.88159 0.86913 0.0
O1021 O 0.87434 0.87818 0.8287 0.0
O1022 O 0.9282 0.91921 0.95577 0.0
O1023 O 0.8892 0.96456 0.93222 0.0
C1024 C 0.82478 0.92166 0.84896 0.0
C1025 C 0.83219 0.85758 0.89533 0.0
C1026 C 0.92598 0.94513 0.8749 0.0
C1027 C 0.91125 0.90018 0.94478 0.0
C1028 C 0.86332 0.96146 0.92498 0.0
C1029 C 0.89595 0.87684 0.84345 0.0
O1030 O 0.84506 0.91211 0.86177 0.0
O1031 O 0.81421 0.90497 0.83037 0.0
O1032 O 0.90215 0.19711 0.64988 0.0
Mn1033 Mn 0.87938 0.17559 0.61878 0.0
O1034 O 0.869 0.21467 0.67646 0.0
Mn1035 Mn 0.83694 0.20435 0.65614 0.0
O1036 O 0.8547 0.15161 0.59014 0.0
O1037 O 0.912 0.1523 0.61388 0.0
Mn1038 Mn 0.91586 0.14348 0.57952 0.0
O1039 O 0.89587 0.20182 0.58858 0.0
O1040 O 0.88348 0.12261 0.5707 0.0
O1041 O 0.8606 0.14873 0.6477 0.0
O1042 O 0.82239 0.16926 0.66263 0.0
O1043 O 0.94482 0.12856 0.5969 0.0
O1044 O 0.92089 0.17568 0.56094 0.0
C1045 C 0.83665 0.22191 0.61664 0.0
C1046 C 0.89445 0.20965 0.67157 0.0
C1047 C 0.85904 0.13025 0.5754 0.0
C1048 C 0.93415 0.13951 0.6182 0.0
C1049 C 0.91012 0.19807 0.56687 0.0
C1050 C 0.837 0.14853 0.66066 0.0
O1051 O 0.84875 0.20053 0.62306 0.0
O1052 O 0.82122 0.23081 0.63588 0.0
O1053 O 0.6516 0.16669 0.40347 0.0
Mn1054 Mn 0.6283 0.13696 0.37984 0.0
O1055 O 0.67844 0.19055 0.3732 0.0
Mn1056 Mn 0.67072 0.16914 0.34221 0.0
O1057 O 0.60389 0.10899 0.35424 0.0
O1058 O 0.59759 0.13722 0.40755 0.0
Mn1059 Mn 0.57997 0.10453 0.41004 0.0
O1060 O 0.64509 0.10471 0.39961 0.0
O1061 O 0.56368 0.09822 0.37677 0.0
O1062 O 0.60978 0.1675 0.35811 0.0
O1063 O 0.63946 0.17745 0.32367 0.0
O1064 O 0.56567 0.12614 0.43708 0.0
O1065 O 0.60749 0.08105 0.41782 0.0
C1066 C 0.6841 0.12853 0.34566 0.0
C1067 C 0.66944 0.18667 0.3972 0.0
C1068 C 0.57811 0.09875 0.35515 0.0
C1069 C 0.58403 0.14482 0.42863 0.0
C1070 C 0.63366 0.08384 0.41197 0.0
C1071 C 0.61548 0.17803 0.33493 0.0
O1072 O 0.66034 0.13648 0.35384 0.0
O1073 O 0.69794 0.14638 0.33098 0.0
O1074 O 0.59716 0.88606 0.10564 0.0
Mn1075 Mn 0.61818 0.9076 0.13718 0.0
O1076 O 0.57317 0.91893 0.08688 0.0
Mn1077 Mn 0.578 0.9468 0.11322 0.0
O1078 O 0.63937 0.93266 0.167 0.0
O1079 O 0.64992 0.88264 0.13144 0.0
Mn1080 Mn 0.66864 0.88396 0.16199 0.0
O1081 O 0.60214 0.8814 0.16684 0.0
O1082 O 0.68299 0.91959 0.16583 0.0
O1083 O 0.63731 0.93554 0.10959 0.0
O1084 O 0.60966 0.97043 0.1102 0.0
O1085 O 0.68653 0.86019 0.14024 0.0
O1086 O 0.64222 0.87168 0.18758 0.0
C1087 C 0.56117 0.93754 0.15224 0.0
C1088 C 0.58183 0.89481 0.08684 0.0
C1089 C 0.66598 0.93776 0.17008 0.0
C1090 C 0.66708 0.86486 0.12318 0.0
C1091 C 0.61534 0.87134 0.1865 0.0
C1092 C 0.63342 0.96099 0.10644 0.0
O1093 O 0.58434 0.92928 0.14266 0.0
O1094 O 0.54915 0.95377 0.13658 0.0
O1095 O 0.40209 0.69687 0.14506 0.0
Mn1096 Mn 0.38113 0.67524 0.11307 0.0
O1097 O 0.36683 0.71316 0.16985 0.0
Mn1098 Mn 0.33662 0.70549 0.14621 0.0
O1099 O 0.35787 0.65107 0.08352 0.0
O1100 O 0.41285 0.65037 0.11175 0.0
Mn1101 Mn 0.41853 0.63942 0.07826 0.0
O1102 O 0.40129 0.69948 0.08295 0.0
O1103 O 0.38612 0.61924 0.06844 0.0
O1104 O 0.35838 0.64993 0.14121 0.0
O1105 O 0.31871 0.67113 0.1493 0.0
O1106 O 0.44556 0.62454 0.09825 0.0
O1107 O 0.42624 0.67046 0.0584 0.0
C1108 C 0.34164 0.72442 0.1075 0.0
C1109 C 0.39267 0.70853 0.16652 0.0
C1110 C 0.36205 0.62846 0.0707 0.0
C1111 C 0.43429 0.63731 0.11816 0.0
C1112 C 0.4164 0.69372 0.06224 0.0
C1113 C 0.3325 0.64989 0.14928 0.0
O1114 O 0.35177 0.70205 0.11428 0.0
O1115 O 0.32494 0.7336 0.12553 0.0
O1116 O 0.14863 0.66756 0.90838 0.0
Mn1117 Mn 0.12532 0.6382 0.8844 0.0
O1118 O 0.17831 0.6899 0.87928 0.0
Mn1119 Mn 0.16977 0.66928 0.84798 0.0
O1120 O 0.10099 0.61046 0.85871 0.0
O1121 O 0.09403 0.63942 0.91131 0.0
Mn1122 Mn 0.0756 0.60717 0.91425 0.0
O1123 O 0.14073 0.6057 0.90487 0.0
O1124 O 0.06016 0.60054 0.88062 0.0
O1125 O 0.1081 0.66899 0.86194 0.0
O1126 O 0.13947 0.6793 0.829 0.0
O1127 O 0.0613 0.62998 0.94041 0.0
O1128 O 0.10237 0.58323 0.92307 0.0
C1129 C 0.18082 0.62769 0.84983 0.0
C1130 C 0.16793 0.68651 0.90284 0.0
C1131 C 0.0751 0.60058 0.85932 0.0
C1132 C 0.0802 0.64803 0.93175 0.0
C1133 C 0.12861 0.58526 0.91741 0.0
C1134 C 0.115 0.67992 0.83921 0.0
O1135 O 0.15804 0.63678 0.85922 0.0
O1136 O 0.19553 0.64545 0.83574 0.0
O1137 O 0.09826 0.37336 0.60518 0.0
Mn1138 Mn 0.11288 0.40119 0.63561 0.0
O1139 O 0.06748 0.39578 0.58124 0.0
Mn1140 Mn 0.06878 0.42795 0.60179 0.0
O1141 O 0.12884 0.43115 0.66433 0.0
O1142 O 0.14791 0.38087 0.63625 0.0
Mn1143 Mn 0.16284 0.38266 0.66849 0.0
O1144 O 0.09631 0.37668 0.66649 0.0
O1145 O 0.17226 0.4193 0.67406 0.0
O1146 O 0.13145 0.42783 0.60661 0.0
O1147 O 0.09732 0.45358 0.59345 0.0
O1148 O 0.18445 0.36041 0.6479 0.0
O1149 O 0.13451 0.36781 0.69078 0.0
C1150 C 0.05112 0.42588 0.64125 0.0
C1151 C 0.0814 0.37504 0.58517 0.0
C1152 C 0.15385 0.43668 0.67384 0.0
C1153 C 0.16616 0.36386 0.62932 0.0
C1154 C 0.10785 0.36693 0.68727 0.0
C1155 C 0.12314 0.44892 0.59484 0.0
O1156 O 0.07591 0.41872 0.63492 0.0
O1157 O 0.03799 0.43635 0.6217 0.0
O1158 O 0.65249 0.67752 0.60961 0.0
Mn1159 Mn 0.62511 0.65112 0.63198 0.0
O1160 O 0.68437 0.6962 0.63992 0.0
Mn1161 Mn 0.67051 0.67883 0.67038 0.0
O1162 O 0.59761 0.62655 0.65678 0.0
O1163 O 0.5957 0.65547 0.60294 0.0
Mn1164 Mn 0.57373 0.62481 0.60305 0.0
O1165 O 0.63739 0.61611 0.61125 0.0
O1166 O 0.55612 0.6239 0.63575 0.0
O1167 O 0.61077 0.68495 0.65383 0.0
O1168 O 0.6418 0.69503 0.6875 0.0
O1169 O 0.55931 0.64439 0.57653 0.0
O1170 O 0.59629 0.59654 0.59493 0.0
C1171 C 0.67563 0.63617 0.67228 0.0
C1172 C 0.67414 0.69384 0.61612 0.0
C1173 C 0.57062 0.62236 0.65688 0.0
C1174 C 0.57977 0.66222 0.5833 0.0
C1175 C 0.62268 0.59616 0.59922 0.0
C1176 C 0.61833 0.69754 0.67611 0.0
O1177 O 0.65615 0.64659 0.65868 0.0
O1178 O 0.69114 0.65384 0.68672 0.0
O1179 O 0.3485 0.37945 0.40588 0.0
Mn1180 Mn 0.37441 0.41121 0.38968 0.0
O1181 O 0.32767 0.35826 0.36908 0.0
Mn1182 Mn 0.34048 0.38205 0.34217 0.0
O1183 O 0.40067 0.44138 0.37067 0.0
O1184 O 0.40004 0.40939 0.42199 0.0
Mn1185 Mn 0.41723 0.44241 0.42685 0.0
O1186 O 0.35344 0.44127 0.40998 0.0
O1187 O 0.43907 0.44707 0.39648 0.0
O1188 O 0.39757 0.38294 0.368 0.0
O1189 O 0.37537 0.37694 0.32799 0.0
O1190 O 0.42938 0.42216 0.45449 0.0
O1191 O 0.38899 0.46638 0.43119 0.0
C1192 C 0.3274 0.42314 0.346 0.0
C1193 C 0.33238 0.3601 0.39454 0.0
C1194 C 0.42707 0.44796 0.37377 0.0
C1195 C 0.41345 0.40254 0.44315 0.0
C1196 C 0.3634 0.46279 0.42326 0.0
C1197 C 0.39712 0.37621 0.3427 0.0
O1198 O 0.347 0.41335 0.35962 0.0
O1199 O 0.31664 0.40616 0.32774 0.0
H1200 H 0.02402 0.24462 0.32189 0.0
H1201 H 0.09847 0.23474 0.17757 0.0
H1202 H 0.07185 0.31211 0.28469 0.0
H1203 H 0.07773 0.16495 0.22687 0.0
H1204 H 0.07596 0.26383 0.21099 0.0
H1205 H 0.0326 0.2157 0.28212 0.0
C1206 C 0.0363 0.25337 0.3054 0.0
C1207 C 0.04763 0.28071 0.30684 0.0
C1208 C 0.07568 0.24201 0.21411 0.0
C1209 C 0.0569 0.24795 0.26112 0.0
C1210 C 0.0881 0.22541 0.19487 0.0
C1211 C 0.08974 0.19755 0.19961 0.0
C1212 C 0.06485 0.23046 0.238 0.0
C1213 C 0.07669 0.18641 0.22261 0.0
C1214 C 0.04106 0.23689 0.28269 0.0
C1215 C 0.06315 0.29101 0.28471 0.0
N1216 N 0.06502 0.20296 0.24114 0.0
N1217 N 0.06735 0.27462 0.2628 0.0
H1218 H -0.00778 0.83355 0.57348 0.0
H1219 H 0.11336 0.8508 0.4645 0.0
H1220 H 0.07352 0.80515 0.59062 0.0
H1221 H 0.02477 0.84208 0.44594 0.0
H1222 H 0.10251 0.8359 0.51062 0.0
H1223 H 0.00745 0.84295 0.52765 0.0
C1224 C 0.01357 0.82985 0.56778 0.0
C1225 C 0.03156 0.81846 0.58598 0.0
C1226 C 0.08557 0.83655 0.49618 0.0
C1227 C 0.04904 0.82861 0.53294 0.0
C1228 C 0.09178 0.84452 0.46969 0.0
C1229 C 0.0699 0.84765 0.45132 0.0
C1230 C 0.05733 0.83215 0.50422 0.0
C1231 C 0.04226 0.83999 0.45944 0.0
C1232 C 0.02212 0.83484 0.54142 0.0
C1233 C 0.05902 0.81412 0.57732 0.0
N1234 N 0.03675 0.83317 0.48535 0.0
N1235 N 0.06693 0.81906 0.55129 0.0
H1236 H 0.49466 0.90367 0.80578 0.0
H1237 H 0.41709 0.83336 0.67692 0.0
H1238 H 0.45871 0.81995 0.8015 0.0
H1239 H 0.40599 0.91757 0.69838 0.0
H1240 H 0.44757 0.83075 0.71628 0.0
H1241 H 0.47376 0.9113 0.76152 0.0
C1242 C 0.48203 0.88705 0.79574 0.0
C1243 C 0.47809 0.86121 0.80748 0.0
C1244 C 0.43922 0.85008 0.71186 0.0
C1245 C 0.45551 0.86949 0.75666 0.0
C1246 C 0.42236 0.85172 0.68914 0.0
C1247 C 0.4096 0.87586 0.6842 0.0
C1248 C 0.44316 0.87271 0.72976 0.0
C1249 C 0.41607 0.8988 0.70124 0.0
C1250 C 0.47039 0.89138 0.77048 0.0
C1251 C 0.46189 0.8403 0.79347 0.0
N1252 N 0.43222 0.89663 0.72357 0.0
N1253 N 0.45147 0.84482 0.76867 0.0
H1254 H 0.42821 0.24993 0.08784 0.0
H1255 H 0.3875 0.20339 0.95652 0.0
H1256 H 0.4885 0.18921 0.0801 0.0
H1257 H 0.47045 0.17437 0.95397 0.0
H1258 H 0.39514 0.21761 0.00371 0.0
H1259 H 0.41264 0.23919 0.04167 0.0
C1260 C 0.4372 0.23337 0.07679 0.0
C1261 C 0.45915 0.21987 0.08794 0.0
C1262 C 0.41207 0.209 -0.00731 0.0
C1263 C 0.44242 0.20827 0.03467 0.0
C1264 C 0.40784 0.20128 0.96554 0.0
C1265 C 0.42859 0.18822 0.95123 0.0
C1266 C 0.43725 0.20342 0.00545 0.0
C1267 C 0.45403 0.18461 0.96427 0.0
C1268 C 0.42857 0.22748 0.05022 0.0
C1269 C 0.4712 0.19969 0.07232 0.0
N1270 N 0.4575 0.19187 -0.00931 0.0
N1271 N 0.4629 0.19473 0.04637 0.0
H1272 H 0.09645 0.78433 0.1755 0.0
H1273 H 0.07114 0.87162 0.31137 0.0
H1274 H 0.02866 0.83689 0.18477 0.0
H1275 H 0.14013 0.82081 0.29921 0.0
H1276 H 0.05481 0.85949 0.26534 0.0
H1277 H 0.11409 0.7997 0.22013 0.0
C1278 C 0.08582 0.79977 0.18668 0.0
C1279 C 0.06155 0.80989 0.17626 0.0
C1280 C 0.07341 0.85085 0.27285 0.0
C1281 C 0.08064 0.82663 0.22791 0.0
C1282 C 0.08246 0.85745 0.29928 0.0
C1283 C 0.10694 0.84715 0.30928 0.0
C1284 C 0.08894 0.83376 0.25634 0.0
C1285 C 0.12117 0.82932 0.29242 0.0
C1286 C 0.09564 0.80832 0.21229 0.0
C1287 C 0.04797 0.82924 0.19183 0.0
N1288 N 0.11204 0.8233 0.26686 0.0
N1289 N 0.05755 0.83684 0.21699 0.0
H1290 H 0.4953 0.82533 0.44201 0.0
H1291 H 0.39608 0.84476 0.57053 0.0
H1292 H 0.42248 0.7702 0.45891 0.0
H1293 H 0.46633 0.90067 0.54876 0.0
H1294 H 0.40882 0.8133 0.53375 0.0
H1295 H 0.48727 0.85045 0.48392 0.0
C1296 C 0.47746 0.81859 0.45437 0.0
C1297 C 0.45945 0.79567 0.44666 0.0
C1298 C 0.42167 0.83229 0.53734 0.0
C1299 C 0.4503 0.8243 0.4952 0.0
C1300 C 0.41451 0.85008 0.55844 0.0
C1301 C 0.42973 0.87559 0.56217 0.0
C1302 C 0.44435 0.84012 0.52025 0.0
C1303 C 0.4537 0.88139 0.54623 0.0
C1304 C 0.473 0.83286 0.4785 0.0
C1305 C 0.43685 0.78785 0.46385 0.0
N1306 N 0.46002 0.86402 0.5258 0.0
N1307 N 0.43289 0.80216 0.48727 0.0
H1308 H 0.48167 0.20686 0.67406 0.0
H1309 H 0.42917 0.25907 0.8185 0.0
H1310 H 0.45537 0.28752 0.69256 0.0
H1311 H 0.43405 0.17317 0.79963 0.0
H1312 H 0.44765 0.26994 0.77392 0.0
H1313 H 0.46892 0.19338 0.72027 0.0
C1314 C 0.47252 0.22147 0.68755 0.0
C1315 C 0.46955 0.24835 0.67944 0.0
C1316 C 0.44519 0.24869 0.77959 0.0
C1317 C 0.45613 0.2335 0.73236 0.0
C1318 C 0.43515 0.24254 0.80527 0.0
C1319 C 0.43011 0.21522 0.81276 0.0
C1320 C 0.45002 0.22736 0.76107 0.0
C1321 C 0.43794 0.19454 0.79472 0.0
C1322 C 0.4657 0.21391 0.71401 0.0
C1323 C 0.4581 0.2666 0.69791 0.0
N1324 N 0.44706 0.201 0.76943 0.0
N1325 N 0.45211 0.25893 0.72347 0.0
H1326 H 0.07056 0.22617 0.92895 0.0
H1327 H 0.05619 0.20762 0.08776 0.0
H1328 H -0.00693 0.21296 0.97349 0.0
H1329 H 0.12304 0.17241 0.04397 0.0
H1330 H 0.042 0.22896 0.04653 0.0
H1331 H 0.09698 0.2213 0.97121 0.0
C1332 C 0.05915 0.22208 0.94749 0.0
C1333 C 0.02955 0.21939 0.94757 0.0
C1334 C 0.0605 0.21746 0.04615 0.0
C1335 C 0.05946 0.21544 -0.0042 0.0
C1336 C 0.06905 0.20585 0.06986 0.0
C1337 C 0.09066 0.18809 0.0692 0.0
C1338 C 0.07382 0.21134 0.02171 0.0
C1339 C 0.10625 0.18604 0.04527 0.0
C1340 C 0.0742 0.21958 0.97152 0.0
C1341 C 0.01581 0.21456 0.97225 0.0
N1342 N 0.09701 0.1968 0.02213 0.0
N1343 N 0.03084 0.21296 -0.00473 0.0
H1344 H 0.30242 0.01902 0.18923 0.0
H1345 H 0.21524 0.1384 0.13512 0.0
H1346 H 0.334 0.10384 0.18627 0.0
H1347 H 0.18045 0.07713 0.18897 0.0
H1348 H 0.25856 0.11465 0.13214 0.0
H1349 H 0.25846 0.03066 0.16819 0.0
C1350 C 0.3006 0.03987 0.18308 0.0
C1351 C 0.32182 0.06057 0.18953 0.0
C1352 C 0.24091 0.10571 0.14355 0.0
C1353 C 0.2719 0.07377 0.1653 0.0
C1354 C 0.21605 0.11897 0.14493 0.0
C1355 C 0.19426 0.10953 0.16218 0.0
C1356 C 0.24371 0.08271 0.15926 0.0
C1357 C 0.19669 0.08481 0.17521 0.0
C1358 C 0.27546 0.04646 0.17128 0.0
C1359 C 0.31812 0.08733 0.18168 0.0
N1360 N 0.22124 0.07242 0.17385 0.0
N1361 N 0.29351 0.09322 0.17013 0.0
H1362 H 0.21342 0.0914 0.46722 0.0
H1363 H 0.10229 0.96229 0.48121 0.0
H1364 H 0.15342 0.08336 0.5321 0.0
H1365 H 0.16796 0.96672 0.42129 0.0
H1366 H 0.12272 0.00494 0.50204 0.0
H1367 H 0.19769 0.04537 0.45067 0.0
C1368 C 0.19646 0.08004 0.47765 0.0
C1369 C 0.18387 0.09142 0.50043 0.0
C1370 C 0.13299 -0.00357 0.48462 0.0
C1371 C 0.16669 0.03825 0.48242 0.0
C1372 C 0.12147 0.97197 0.47284 0.0
C1373 C 0.13344 0.9611 0.44944 0.0
C1374 C 0.15646 0.01035 0.4727 0.0
C1375 C 0.15822 0.97439 0.43939 0.0
C1376 C 0.18783 0.05361 0.46846 0.0
C1377 C 0.16307 0.07545 0.51405 0.0
N1378 N 0.16869 -0.00137 0.45084 0.0
N1379 N 0.15494 0.04967 0.50471 0.0
H1380 H 0.16877 0.00473 0.6692 0.0
H1381 H 0.31256 0.94435 0.71332 0.0
H1382 H 0.18696 0.97799 0.74899 0.0
H1383 H 0.29485 0.96146 0.63059 0.0
H1384 H 0.26797 0.96161 0.72674 0.0
H1385 H 0.21442 -0.00986 0.65378 0.0
C1386 C 0.18192 -0.00505 0.68324 0.0
C1387 C 0.17405 -0.00751 0.71042 0.0
C1388 C 0.27389 0.96207 0.70566 0.0
C1389 C 0.22657 0.97688 0.69325 0.0
C1390 C 0.29962 0.95268 0.6981 0.0
C1391 C 0.30742 0.95171 0.67089 0.0
C1392 C 0.25552 0.97022 0.68582 0.0
C1393 C 0.28971 0.96229 0.65185 0.0
C1394 C 0.20818 0.98712 0.67455 0.0
C1395 C 0.19217 0.98026 0.72787 0.0
N1396 N 0.26429 0.97076 0.65962 0.0
N1397 N 0.21761 0.97321 0.71906 0.0
H1398 H 0.30467 0.97709 -0.00625 0.0
H1399 H 0.31052 0.09338 0.88483 0.0
H1400 H 0.24946 0.9731 0.92457 0.0
H1401 H 0.35126 0.10269 0.96226 0.0
H1402 H 0.28403 0.05169 0.90018 0.0
H1403 H 0.32074 0.02399 0.98264 0.0
C1404 C 0.29616 0.98592 0.97603 0.0
C1405 C 0.2758 0.97096 0.95999 0.0
C1406 C 0.29812 0.06331 0.91412 0.0
C1407 C 0.29378 0.02504 0.94738 0.0
C1408 C 0.3128 0.08741 0.90549 0.0
C1409 C 0.33295 0.10149 0.92235 0.0
C1410 C 0.30404 0.05321 0.93962 0.0
C1411 C 0.33571 0.09247 0.94875 0.0
C1412 C 0.30506 0.01289 0.96989 0.0
C1413 C 0.26524 0.98378 0.9375 0.0
N1414 N 0.32192 0.06861 0.95639 0.0
N1415 N 0.27444 0.01 0.9318 0.0
H1416 H 0.30196 0.03847 0.3149 0.0
H1417 H 0.16651 0.93204 0.30026 0.0
H1418 H 0.29167 0.9751 0.25273 0.0
H1419 H 0.18988 0.97526 0.37456 0.0
H1420 H 0.20524 0.95788 0.2774 0.0
H1421 H 0.25552 0.0236 0.33256 0.0
C1422 C 0.28998 0.02137 0.30497 0.0
C1423 C 0.30093 0.00781 0.28242 0.0
C1424 C 0.20133 0.9624 0.29851 0.0
C1425 C 0.24735 -0.00886 0.30227 0.0
C1426 C 0.17879 0.94816 0.3114 0.0
C1427 C 0.17481 0.95182 0.33924 0.0
C1428 C 0.21992 0.98045 0.31363 0.0
C1429 C 0.19197 0.9722 0.35297 0.0
C1430 C 0.2634 0.01301 0.31502 0.0
C1431 C 0.28431 0.98588 0.27037 0.0
N1432 N 0.21411 0.98546 0.34014 0.0
N1433 N 0.25834 0.97826 0.28042 0.0
H1434 H 0.29825 0.08893 0.50396 0.0
H1435 H 0.35254 -0.00032 0.62021 0.0
H1436 H 0.28306 0.11198 0.58694 0.0
H1437 H 0.33314 0.96924 0.53965 0.0
H1438 H 0.3272 0.04039 0.61138 0.0
H1439 H 0.31539 0.0464 0.5186 0.0
C1440 C 0.29905 0.08529 0.52538 0.0
C1441 C 0.28915 0.10409 0.54423 0.0
C1442 C 0.32764 0.02433 0.59599 0.0
C1443 C 0.30824 0.05473 0.56123 0.0
C1444 C 0.34155 0.00083 0.60121 0.0
C1445 C 0.34469 0.98104 0.58064 0.0
C1446 C 0.31734 0.02798 0.56992 0.0
C1447 C 0.33092 0.9839 0.55611 0.0
C1448 C 0.30845 0.06073 0.53372 0.0
C1449 C 0.29073 0.09815 0.57175 0.0
N1450 N 0.31842 0.00721 0.55121 0.0
N1451 N 0.30001 0.07386 0.57949 0.0
H1452 H 0.1995 0.12055 0.72642 0.0
H1453 H 0.31658 0.10591 0.83918 0.0
H1454 H 0.18888 0.06569 0.79276 0.0
H1455 H 0.32615 0.16189 0.77372 0.0
H1456 H 0.27297 0.08536 0.81849 0.0
H1457 H 0.24811 0.13278 0.74093 0.0
C1458 C 0.20734 0.11156 0.74436 0.0
C1459 C 0.19006 0.09298 0.75906 0.0
C1460 C 0.28498 0.1017 0.80829 0.0
C1461 C 0.24566 0.10578 0.77517 0.0
C1462 C 0.31009 0.11306 0.81989 0.0
C1463 C 0.32459 0.13578 0.80828 0.0
C1464 C 0.27463 0.11323 0.78498 0.0
C1465 C 0.3153 0.14451 0.78337 0.0
C1466 C 0.23509 0.11822 0.75247 0.0
C1467 C 0.2013 0.08102 0.78159 0.0
N1468 N 0.29059 0.13357 0.77278 0.0
N1469 N 0.22839 0.08771 0.78906 0.0
H1470 H 0.23696 0.96514 0.05862 0.0
H1471 H 0.11091 0.06249 0.05803 0.0
H1472 H 0.15647 0.94552 0.0201 0.0
H1473 H 0.18154 0.07884 0.11204 0.0
H1474 H 0.1298 0.02043 0.04301 0.0
H1475 H 0.21863 0.0063 0.07929 0.0
C1476 C 0.21526 0.96909 0.05503 0.0
C1477 C 0.19828 0.95198 0.03737 0.0
C1478 C 0.1413 0.03306 0.05821 0.0
C1479 C 0.17755 -0.00084 0.06039 0.0
C1480 C 0.13055 0.05731 0.06676 0.0
C1481 C 0.14449 0.07426 0.08662 0.0
C1482 C 0.1664 0.02538 0.06936 0.0
C1483 C 0.1701 0.06643 0.09674 0.0
C1484 C 0.20494 -0.00729 0.06663 0.0
C1485 C 0.17045 0.95824 0.03327 0.0
N1486 N 0.18027 0.04243 0.08804 0.0
N1487 N 0.16112 0.98139 0.04443 0.0
H1488 H 0.20281 0.34442 0.04127 0.0
H1489 H 0.22232 0.22666 0.14677 0.0
H1490 H 0.27035 0.34622 0.09942 0.0
H1491 H 0.15537 0.22146 0.08793 0.0
H1492 H 0.24038 0.27016 0.12858 0.0
H1493 H 0.1842 0.30023 0.05833 0.0
C1494 C 0.21351 0.33581 0.0579 0.0
C1495 C 0.23831 0.34917 0.06886 0.0
C1496 C 0.22185 0.25952 0.11944 0.0
C1497 C 0.21729 0.29824 0.0881 0.0
C1498 C 0.21158 0.23455 0.12975 0.0
C1499 C 0.18722 0.22043 0.11892 0.0
C1500 C 0.20761 0.27077 0.09819 0.0
C1501 C 0.17431 0.23159 0.09678 0.0
C1502 C 0.20298 0.3104 0.06744 0.0
C1503 C 0.25127 0.33677 0.09024 0.0
N1504 N 0.18453 0.25629 0.08727 0.0
N1505 N 0.2407 0.31202 0.09902 0.0
H1506 H 0.648 0.19254 0.96722 0.0
H1507 H 0.67814 0.34506 0.9524 0.0
H1508 H 0.72004 0.2256 0.92256 0.0
H1509 H 0.61668 0.31778 0.89202 0.0
H1510 H 0.67993 0.29764 0.96619 0.0
H1511 H 0.62453 0.23465 0.9588 0.0
C1512 C 0.65839 0.20807 0.95472 0.0
C1513 C 0.6861 0.20566 0.94564 0.0
C1514 C 0.66497 0.30227 0.95085 0.0
C1515 C 0.6598 0.25352 0.93672 0.0
C1516 C 0.66365 0.32932 0.94326 0.0
C1517 C 0.64717 0.33525 0.92117 0.0
C1518 C 0.64993 0.28116 0.93606 0.0
C1519 C 0.62941 0.31395 0.90938 0.0
C1520 C 0.64511 0.23211 0.95026 0.0
C1521 C 0.69878 0.22663 0.93001 0.0
N1522 N 0.632 0.28753 0.91628 0.0
N1523 N 0.68577 0.24991 0.92653 0.0
H1524 H 0.07082 0.47312 0.25077 0.0
H1525 H 0.95595 0.50642 0.14484 0.0
H1526 H 0.08858 0.52733 0.18487 0.0
H1527 H 0.95566 0.4246 0.17461 0.0
H1528 H 0.00108 0.51813 0.16725 0.0
H1529 H 0.02604 0.45677 0.22914 0.0
C1530 C 0.06579 0.48074 0.23122 0.0
C1531 C 0.08384 0.50082 0.21899 0.0
C1532 C -0.00913 0.49773 0.1693 0.0
C1533 C 0.0319 0.48402 0.19549 0.0
C1534 C 0.96499 0.49114 0.15681 0.0
C1535 C 0.95164 0.46468 0.15854 0.0
C1536 C 0.00354 0.47778 0.18375 0.0
C1537 C 0.96453 0.44554 0.17393 0.0
C1538 C 0.04006 0.4718 0.21919 0.0
C1539 C 0.07549 0.51141 0.1946 0.0
N1540 N -0.01013 0.45243 0.18599 0.0
N1541 N 0.04998 0.50312 0.18379 0.0
H1542 H 0.85651 0.8535 0.49374 0.0
H1543 H 0.79524 0.70927 0.43151 0.0
H1544 H 0.77079 0.8337 0.4677 0.0
H1545 H 0.88077 0.73959 0.41585 0.0
H1546 H 0.78948 0.74953 0.46049 0.0
H1547 H 0.86843 0.80804 0.47693 0.0
C1548 C 0.8403 0.83975 0.48425 0.0
C1549 C 0.81268 0.84756 0.48176 0.0
C1550 C 0.80983 0.74695 0.45146 0.0
C1551 C 0.82588 0.7954 0.46386 0.0
C1552 C 0.81332 0.72368 0.43543 0.0
C1553 C 0.83852 0.72113 0.4214 0.0
C1554 C 0.83171 0.76783 0.45336 0.0
C1555 C 0.86111 0.74072 0.42661 0.0
C1556 C 0.84708 0.81383 0.47493 0.0
C1557 C 0.79244 0.82882 0.46961 0.0
N1558 N 0.85702 0.7637 0.44176 0.0
N1559 N 0.79939 0.80359 0.46136 0.0
H1560 H 0.92628 0.08722 0.25278 0.0
H1561 H 0.06976 0.06559 0.17348 0.0
H1562 H 0.94573 0.01208 0.21191 0.0
H1563 H 0.03781 0.14482 0.18537 0.0
H1564 H 0.0305 0.04534 0.20034 0.0
H1565 H 0.97244 0.10837 0.2389 0.0
C1566 C 0.94017 0.07522 0.24091 0.0
C1567 C 0.93189 0.04802 0.23305 0.0
C1568 C 0.03252 0.06728 0.19768 0.0
C1569 C 0.98478 0.07167 0.218 0.0
C1570 C 0.05511 0.07881 0.18273 0.0
C1571 C 0.05692 0.10681 0.17754 0.0
C1572 C 0.01177 0.08396 0.20732 0.0
C1573 C 0.03706 0.12312 0.18926 0.0
C1574 C 0.9665 0.08722 0.23315 0.0
C1575 C 0.9509 0.03329 0.21796 0.0
N1576 N 0.01506 0.11143 0.20341 0.0
N1577 N 0.97638 0.04527 0.21098 0.0
H1578 H 0.29631 0.72494 0.51301 0.0
H1579 H 0.27147 0.85795 0.60329 0.0
H1580 H 0.23576 0.72794 0.57735 0.0
H1581 H 0.34871 0.84987 0.55987 0.0
H1582 H 0.2524 0.8142 0.58365 0.0
H1583 H 0.31264 0.77274 0.5234 0.0
C1584 C 0.28715 0.73541 0.52996 0.0
C1585 C 0.26552 0.72219 0.54518 0.0
C1586 C 0.27331 0.82223 0.57787 0.0
C1587 C 0.28239 0.77739 0.55562 0.0
C1588 C 0.28392 0.84752 0.58854 0.0
C1589 C 0.31181 0.85724 0.58341 0.0
C1590 C 0.29076 0.80661 0.56197 0.0
C1591 C 0.3272 0.84287 0.56445 0.0
C1592 C 0.29602 0.76284 0.53544 0.0
C1593 C 0.25301 0.73722 0.56567 0.0
N1594 N 0.31673 0.8178 0.55485 0.0
N1595 N 0.26158 0.76405 0.57025 0.0
H1596 H 0.09615 0.61937 0.30094 0.0
H1597 H 0.93078 0.59295 0.32501 0.0
H1598 H 0.04782 0.54122 0.30537 0.0
H1599 H 0.97686 0.66649 0.35515 0.0
H1600 H 0.97241 0.58108 0.30003 0.0
H1601 H 0.05226 0.64229 0.3082 0.0
C1602 C 0.0765 0.60707 0.30366 0.0
C1603 C 0.07579 0.57832 0.30287 0.0
C1604 C 0.9732 0.60036 0.31133 0.0
C1605 C 0.02575 0.60421 0.30962 0.0
C1606 C 0.94915 0.60748 0.32501 0.0
C1607 C 0.9506 0.63046 0.34244 0.0
C1608 C -0.00123 0.61631 0.31537 0.0
C1609 C 0.97508 0.64842 0.34199 0.0
C1610 C 0.05151 0.62013 0.3074 0.0
C1611 C 0.04964 0.56339 0.30605 0.0
N1612 N -0.00131 0.64051 0.32952 0.0
N1613 N 0.02584 0.57647 0.30911 0.0
H1614 H 0.43279 0.5025 0.8099 0.0
H1615 H 0.52197 0.38195 0.83692 0.0
H1616 H 0.41417 0.4269 0.76434 0.0
H1617 H 0.55712 0.46559 0.83971 0.0
H1618 H 0.48438 0.39505 0.80747 0.0
H1619 H 0.47819 0.48704 0.8222 0.0
C1620 C 0.43802 0.4824 0.80285 0.0
C1621 C 0.41943 0.46582 0.78634 0.0
C1622 C 0.50101 0.41033 0.81353 0.0
C1623 C 0.47189 0.4482 0.79997 0.0
C1624 C 0.52285 0.40274 0.82985 0.0
C1625 C 0.54245 0.42283 0.84094 0.0
C1626 C 0.49883 0.4382 0.80879 0.0
C1627 C 0.54231 0.44953 0.83162 0.0
C1628 C 0.46423 0.47382 0.80944 0.0
C1629 C 0.42778 0.44022 0.77731 0.0
N1630 N 0.52016 0.45672 0.81694 0.0
N1631 N 0.45332 0.432 0.78452 0.0
H1632 H 0.97776 0.84621 0.69683 0.0
H1633 H 0.92191 0.82946 0.84773 0.0
H1634 H 0.95828 0.76955 0.7362 0.0
H1635 H 0.92511 0.90538 0.80564 0.0
H1636 H 0.95027 0.81004 0.8118 0.0
H1637 H 0.97171 0.87049 0.74041 0.0
C1638 C 0.97249 0.83455 0.71464 0.0
C1639 C 0.96764 0.80597 0.71281 0.0
C1640 C 0.94552 0.83124 0.8108 0.0
C1641 C 0.96137 0.83325 0.76248 0.0
C1642 C 0.92971 0.84238 0.83153 0.0
C1643 C 0.92125 0.8689 0.82942 0.0
C1644 C 0.95242 0.84674 0.78784 0.0
C1645 C 0.93132 0.88475 0.80779 0.0
C1646 C 0.96914 0.84832 0.73946 0.0
C1647 C 0.96131 0.7917 0.73653 0.0
N1648 N 0.94592 0.87327 0.7875 0.0
N1649 N 0.95815 0.80546 0.76025 0.0
H1650 H 0.92856 0.25528 0.40705 0.0
H1651 H 0.9224 0.25476 0.5685 0.0
H1652 H 0.961 0.324 0.4571 0.0
H1653 H 0.89784 0.18617 0.51508 0.0
H1654 H 0.92802 0.28425 0.5288 0.0
H1655 H 0.9077 0.23383 0.44696 0.0
C1656 C 0.93079 0.26614 0.42634 0.0
C1657 C 0.94686 0.2913 0.42871 0.0
C1658 C 0.92106 0.26279 0.52591 0.0
C1659 C 0.92365 0.2665 0.47484 0.0
C1660 C 0.91783 0.24606 0.54853 0.0
C1661 C 0.91032 0.21794 0.54492 0.0
C1662 C 0.91642 0.25117 0.49979 0.0
C1663 C 0.90437 0.20764 0.51869 0.0
C1664 C 0.91902 0.25381 0.44924 0.0
C1665 C 0.94894 0.30445 0.45432 0.0
N1666 N 0.90776 0.22412 0.49725 0.0
N1667 N 0.93794 0.29169 0.47647 0.0
H1668 H 0.4813 0.18765 0.21949 0.0
H1669 H 0.62281 0.22236 0.30391 0.0
H1670 H 0.55382 0.23827 0.19285 0.0
H1671 H 0.55927 0.1607 0.32892 0.0
H1672 H 0.59291 0.23328 0.26679 0.0
H1673 H 0.50644 0.17939 0.26129 0.0
C1674 C 0.50261 0.19666 0.22218 0.0
C1675 C 0.51538 0.21378 0.20256 0.0
C1676 C 0.58525 0.21747 0.28042 0.0
C1677 C 0.54381 0.20504 0.25058 0.0
C1678 C 0.60219 0.21149 0.30186 0.0
C1679 C 0.59374 0.19014 0.31905 0.0
C1680 C 0.55967 0.20183 0.27587 0.0
C1681 C 0.56669 0.17699 0.31575 0.0
C1682 C 0.51679 0.19216 0.24617 0.0
C1683 C 0.54298 0.22501 0.20728 0.0
N1684 N 0.55072 0.18264 0.29409 0.0
N1685 N 0.55609 0.2206 0.23081 0.0
H1686 H 0.53212 0.87358 0.92528 0.0
H1687 H 0.61698 0.86139 0.06048 0.0
H1688 H 0.5852 0.80692 0.93287 0.0
H1689 H 0.53521 0.89268 0.05557 0.0
H1690 H 0.6118 0.84419 0.01356 0.0
H1691 H 0.54215 0.88746 0.9718 0.0
C1692 C 0.54684 0.8625 0.93646 0.0
C1693 C 0.55851 0.83955 0.92503 0.0
C1694 C 0.59482 0.85431 0.02306 0.0
C1695 C 0.56858 0.85423 0.979 0.0
C1696 C 0.59751 0.86361 0.04994 0.0
C1697 C 0.57634 0.87814 0.06198 0.0
C1698 C 0.57111 0.86023 0.00824 0.0
C1699 C 0.55204 0.88162 0.04703 0.0
C1700 C 0.55199 0.87002 0.96325 0.0
C1701 C 0.57623 0.82504 0.94096 0.0
N1702 N 0.55027 0.87309 0.02085 0.0
N1703 N 0.58072 0.83256 0.96735 0.0
H1704 H 0.9377 0.24919 0.83456 0.0
H1705 H 0.93484 0.17743 0.68872 0.0
H1706 H 0.00161 0.19585 0.811 0.0
H1707 H 0.8964 0.25203 0.7083 0.0
H1708 H 0.95807 0.18024 0.733 0.0
H1709 H 0.91795 0.24441 0.78936 0.0
C1710 C 0.94699 0.23561 0.82011 0.0
C1711 C 0.97082 0.2222 0.82683 0.0
C1712 C 0.94506 0.19631 0.72732 0.0
C1713 C 0.94924 0.21793 0.77422 0.0
C1714 C 0.93238 0.19506 0.70177 0.0
C1715 C 0.91429 0.21489 0.69444 0.0
C1716 C 0.93902 0.21723 0.74585 0.0
C1717 C 0.91038 0.23642 0.71297 0.0
C1718 C 0.93608 0.23341 0.79405 0.0
C1719 C 0.98285 0.20607 0.80674 0.0
N1720 N 0.92232 0.23683 0.73784 0.0
N1721 N 0.97194 0.20435 0.78126 0.0
H1722 H 0.56962 0.21874 0.5795 0.0
H1723 H 0.57491 0.19905 0.42294 0.0
H1724 H 0.57852 0.28964 0.52952 0.0
H1725 H 0.6099 0.14265 0.47625 0.0
H1726 H 0.57619 0.23352 0.46022 0.0
H1727 H 0.58345 0.19039 0.54111 0.0
C1728 C 0.5748 0.22837 0.56053 0.0
C1729 C 0.57293 0.25655 0.55771 0.0
C1730 C 0.58436 0.21387 0.46347 0.0
C1731 C 0.58819 0.22418 0.51351 0.0
C1732 C 0.58385 0.19437 0.44218 0.0
C1733 C 0.5927 0.16826 0.4466 0.0
C1734 C 0.59295 0.20667 0.48931 0.0
C1735 C 0.60324 0.16275 0.47208 0.0
C1736 C 0.5828 0.21223 0.53864 0.0
C1737 C 0.57987 0.26798 0.5326 0.0
N1738 N 0.60263 0.18158 0.49259 0.0
N1739 N 0.5867 0.25169 0.5113 0.0
H1740 H 0.49329 0.82699 0.3114 0.0
H1741 H 0.63687 0.84865 0.23076 0.0
H1742 H 0.57545 0.82252 0.3467 0.0
H1743 H 0.55851 0.87182 0.19812 0.0
H1744 H 0.61342 0.83815 0.2729 0.0
H1745 H 0.51562 0.84512 0.27046 0.0
C1746 C 0.516 0.83049 0.31084 0.0
C1747 C 0.53257 0.8229 0.33242 0.0
C1748 C 0.60126 0.84561 0.25662 0.0
C1749 C 0.55815 0.84296 0.28541 0.0
C1750 C 0.6146 0.85142 0.2323 0.0
C1751 C 0.59971 0.86141 0.2107 0.0
C1752 C 0.57261 0.84949 0.2596 0.0
C1753 C 0.57084 0.86432 0.21418 0.0
C1754 C 0.52871 0.84063 0.28736 0.0
C1755 C 0.56184 0.8279 0.33055 0.0
N1756 N 0.55818 0.85838 0.23822 0.0
N1757 N 0.57369 0.83719 0.30729 0.0
H1758 H 0.96385 0.77514 0.04627 0.0
H1759 H 0.93115 0.85026 0.9348 0.0
H1760 H 0.95712 0.85506 0.08306 0.0
H1761 H 0.88017 0.89442 -0.01028 0.0
H1762 H 0.94054 0.81895 0.97087 0.0
H1763 H 0.93448 0.78805 0.00849 0.0
C1764 C 0.95555 0.79511 0.04671 0.0
C1765 C 0.96298 0.81419 0.06763 0.0
C1766 C 0.92611 0.83459 0.9747 0.0
C1767 C 0.92964 0.82896 0.02485 0.0
C1768 C 0.92051 0.85229 0.95398 0.0
C1769 C 0.90472 0.87476 0.95933 0.0
C1770 C 0.91632 0.84002 0.00093 0.0
C1771 C 0.89226 0.87714 0.98481 0.0
C1772 C 0.93906 0.8025 0.0251 0.0
C1773 C 0.95202 0.83986 0.06721 0.0
N1774 N 0.89909 0.8606 0.00493 0.0
N1775 N 0.93594 0.8465 0.04614 0.0
H1776 H 0.6685 0.95946 0.83741 0.0
H1777 H 0.78918 0.92355 0.8912 0.0
H1778 H 0.712 0.03596 0.8152 0.0
H1779 H 0.82285 0.97052 0.82483 0.0
H1780 H 0.74862 0.9514 0.89274 0.0
H1781 H 0.71007 0.94838 0.86227 0.0
C1782 C 0.68645 0.97445 0.83884 0.0
C1783 C 0.68686 -0.00129 0.82452 0.0
C1784 C 0.7653 0.95618 0.87838 0.0
C1785 C 0.73492 0.98591 0.85213 0.0
C1786 C 0.78867 0.94065 0.87783 0.0
C1787 C 0.80929 0.94494 0.85792 0.0
C1788 C 0.76252 0.97572 0.85854 0.0
C1789 C 0.80741 0.96681 0.8406 0.0
C1790 C 0.71024 0.96819 0.85309 0.0
C1791 C 0.71084 0.01721 0.82637 0.0
N1792 N 0.78412 0.98114 0.84099 0.0
N1793 N 0.73429 0.01003 0.83916 0.0
H1794 H 0.81508 0.97424 0.51501 0.0
H1795 H 0.81092 0.1119 0.60223 0.0
H1796 H 0.74999 0.98249 0.57434 0.0
H1797 H 0.85488 0.10389 0.52692 0.0
H1798 H 0.78612 0.06636 0.5935 0.0
H1799 H 0.83051 0.02227 0.52187 0.0
C1800 C 0.80443 0.98613 0.53001 0.0
C1801 C 0.78185 0.97424 0.54479 0.0
C1802 C 0.80067 0.07495 0.5786 0.0
C1803 C 0.7985 0.02998 0.55188 0.0
C1804 C 0.81461 0.10096 0.58349 0.0
C1805 C 0.83558 0.11111 0.56568 0.0
C1806 C 0.80778 0.0595 0.55564 0.0
C1807 C 0.83923 0.09653 0.54141 0.0
C1808 C 0.81288 0.01376 0.53357 0.0
C1809 C 0.76793 -0.00908 0.56303 0.0
N1810 N 0.82595 0.07128 0.53738 0.0
N1811 N 0.77663 0.01804 0.56629 0.0
H1812 H 0.7932 0.00163 0.34627 0.0
H1813 H 0.72334 0.13952 0.38381 0.0
H1814 H 0.83885 0.08109 0.35427 0.0
H1815 H 0.68303 0.07306 0.3359 0.0
H1816 H 0.76231 0.11137 0.39292 0.0
H1817 H 0.75089 0.02148 0.36299 0.0
C1818 C 0.79468 0.02306 0.35252 0.0
C1819 C 0.81949 0.03992 0.34814 0.0
C1820 C 0.74445 0.10258 0.38127 0.0
C1821 C 0.77106 0.06257 0.36731 0.0
C1822 C 0.72212 0.11847 0.37627 0.0
C1823 C 0.69997 0.10841 0.35923 0.0
C1824 C 0.7446 0.07645 0.3691 0.0
C1825 C 0.69959 0.08135 0.34939 0.0
C1826 C 0.7704 0.03434 0.36189 0.0
C1827 C 0.82015 0.06741 0.35696 0.0
N1828 N 0.72186 0.06635 0.35417 0.0
N1829 N 0.79607 0.07804 0.3656 0.0
H1830 H 0.74495 0.10822 0.08727 0.0
H1831 H 0.6631 0.96155 0.05909 0.0
H1832 H 0.70347 0.08591 0.0117 0.0
H1833 H 0.65393 0.00604 0.13429 0.0
H1834 H 0.69297 0.00094 0.04227 0.0
H1835 H 0.72524 0.06448 0.10574 0.0
C1836 C 0.73175 0.09413 0.07464 0.0
C1837 C 0.72526 0.10083 0.04818 0.0
C1838 C 0.68496 0.00165 0.0627 0.0
C1839 C 0.70397 0.05075 0.06857 0.0
C1840 C 0.66824 0.9792 0.07232 0.0
C1841 C 0.65644 0.98066 0.09812 0.0
C1842 C 0.69017 0.02526 0.07929 0.0
C1843 C 0.66296 0.00421 0.11433 0.0
C1844 C 0.72069 0.06926 0.08508 0.0
C1845 C 0.7084 0.08176 0.03243 0.0
N1846 N 0.67944 0.02563 0.10469 0.0
N1847 N 0.69844 0.05752 0.04281 0.0
H1848 H 0.70766 0.07867 0.75417 0.0
H1849 H 0.82628 0.09487 0.64218 0.0
H1850 H 0.71969 0.01333 0.69617 0.0
H1851 H 0.82069 0.14775 0.71242 0.0
H1852 H 0.791 0.06191 0.66229 0.0
H1853 H 0.7511 0.10254 0.73921 0.0
C1854 C 0.71937 0.06938 0.7381 0.0
C1855 C 0.70976 0.04407 0.72622 0.0
C1856 C 0.79804 0.08045 0.67353 0.0
C1857 C 0.76015 0.07147 0.7089 0.0
C1858 C 0.81822 0.09916 0.66209 0.0
C1859 C 0.82564 0.12434 0.67536 0.0
C1860 C 0.78561 0.08719 0.69836 0.0
C1861 C 0.81512 0.12872 0.70136 0.0
C1862 C 0.74446 0.08293 0.72972 0.0
C1863 C 0.72626 0.03289 0.70579 0.0
N1864 N 0.79534 0.11062 0.71177 0.0
N1865 N 0.75055 0.04682 0.69753 0.0
H1866 H 0.69159 0.92247 0.4414 0.0
H1867 H 0.61382 0.03252 0.4261 0.0
H1868 H 0.76317 0.98182 0.44934 0.0
H1869 H 0.69144 0.08098 0.41069 0.0
H1870 H 0.63989 -0.00694 0.43254 0.0
H1871 H 0.66432 0.95779 0.42337 0.0
C1872 C 0.70167 0.94287 0.43902 0.0
C1873 C 0.72949 0.94929 0.44746 0.0
C1874 C 0.65144 0.01195 0.42699 0.0
C1875 C 0.69783 -0.00945 0.4286 0.0
C1876 C 0.63648 0.03489 0.42383 0.0
C1877 C 0.6504 0.06028 0.4175 0.0
C1878 C 0.68078 0.01407 0.42369 0.0
C1879 C 0.6798 0.06178 0.41499 0.0
C1880 C 0.68589 0.96331 0.42926 0.0
C1881 C 0.74162 0.976 0.44347 0.0
N1882 N 0.69404 0.03902 0.41818 0.0
N1883 N 0.72556 -0.00423 0.43483 0.0
H1884 H 0.80493 0.05091 0.21155 0.0
H1885 H 0.6621 0.95564 0.22201 0.0
H1886 H 0.78942 0.98463 0.26637 0.0
H1887 H 0.69996 0.97565 0.14546 0.0
H1888 H 0.6988 0.98603 0.24456 0.0
H1889 H 0.75714 0.04043 0.19274 0.0
C1890 C 0.79138 0.03426 0.21956 0.0
C1891 C 0.80111 0.01779 0.2396 0.0
C1892 C 0.69813 0.98478 0.22272 0.0
C1893 C 0.74668 0.00726 0.22001 0.0
C1894 C 0.67708 0.96778 0.20991 0.0
C1895 C 0.67801 0.96361 0.18195 0.0
C1896 C 0.71985 -0.00243 0.20727 0.0
C1897 C 0.69834 0.97896 0.16705 0.0
C1898 C 0.76423 0.02858 0.20917 0.0
C1899 C 0.78277 -0.00291 0.2502 0.0
N1900 N 0.71884 -0.00495 0.17994 0.0
N1901 N 0.75639 -0.00768 0.24021 0.0
H1902 H 0.82311 0.12749 0.94679 0.0
H1903 H 0.80538 0.96403 0.92882 0.0
H1904 H 0.74356 0.08143 0.95921 0.0
H1905 H 0.88381 0.01448 0.92846 0.0
H1906 H 0.78002 0.00601 0.9326 0.0
H1907 H 0.84294 0.08584 0.93054 0.0
C1908 C 0.80961 0.10864 0.94534 0.0
C1909 C 0.78171 0.10784 0.95424 0.0
C1910 C 0.80278 0.00773 0.93157 0.0
C1911 C 0.80457 0.0596 0.93689 0.0
C1912 C 0.81721 0.98383 0.92939 0.0
C1913 C 0.84675 0.98569 0.9285 0.0
C1914 C 0.81812 0.03351 0.93265 0.0
C1915 C 0.86107 0.01187 0.92956 0.0
C1916 C 0.82098 0.08474 0.93636 0.0
C1917 C 0.76514 0.08284 0.9522 0.0
N1918 N 0.84668 0.03456 0.93157 0.0
N1919 N 0.77697 0.0595 0.94419 0.0
H1920 H 0.75125 0.6999 0.92556 0.0
H1921 H 0.84594 0.84127 0.94668 0.0
H1922 H 0.78259 0.72562 0.00451 0.0
H1923 H 0.79106 0.81928 0.87899 0.0
H1924 H 0.82877 0.79812 0.96807 0.0
H1925 H 0.77404 0.7413 0.90708 0.0
C1926 C 0.76335 0.71413 0.93898 0.0
C1927 C 0.76484 0.70936 0.96665 0.0
C1928 C 0.82052 0.80298 0.94859 0.0
C1929 C 0.79056 0.75759 0.94564 0.0
C1930 C 0.83013 0.82765 0.93648 0.0
C1931 C 0.82012 0.8339 0.91086 0.0
C1932 C 0.80103 0.78455 0.93482 0.0
C1933 C 0.79975 0.81537 0.89854 0.0
C1934 C 0.7762 0.73797 0.92845 0.0
C1935 C 0.78103 0.72851 0.98302 0.0
N1936 N 0.79113 0.79165 0.91051 0.0
N1937 N 0.79304 0.75206 0.97232 0.0
H1938 H 0.33232 0.88034 0.06311 0.0
H1939 H 0.38171 0.76593 0.11401 0.0
H1940 H 0.3218 0.83603 0.98695 0.0
H1941 H 0.32483 0.72644 0.0551 0.0
H1942 H 0.3854 0.80728 0.0871 0.0
H1943 H 0.35479 0.84168 0.08126 0.0
C1944 C 0.33565 0.86292 0.0499 0.0
C1945 C 0.32477 0.86133 0.02361 0.0
C1946 C 0.37262 0.7894 0.0797 0.0
C1947 C 0.35026 0.81672 0.04429 0.0
C1948 C 0.37095 0.76564 0.09476 0.0
C1949 C 0.35303 0.74284 0.0866 0.0
C1950 C 0.35582 0.79039 0.05658 0.0
C1951 C 0.33908 0.74356 0.06187 0.0
C1952 C 0.34859 0.84077 0.06025 0.0
C1953 C 0.32958 0.83809 0.00746 0.0
N1954 N 0.34041 0.76717 0.04788 0.0
N1955 N 0.34118 0.8164 0.01829 0.0
H1956 H 0.92852 0.52607 0.79355 0.0
H1957 H 0.06835 0.62346 0.80985 0.0
H1958 H 0.95315 0.58324 0.73167 0.0
H1959 H 0.04814 0.55043 0.85462 0.0
H1960 H 0.02934 0.6094 0.77855 0.0
H1961 H 0.97379 0.53584 0.81513 0.0
C1962 C 0.94354 0.54099 0.78466 0.0
C1963 C 0.93693 0.55442 0.76125 0.0
C1964 C 0.03402 0.59613 0.79478 0.0
C1965 C -0.01046 0.56541 0.78558 0.0
C1966 C 0.05631 0.60408 0.81252 0.0
C1967 C 0.06092 0.58832 0.83507 0.0
C1968 C 0.01668 0.57222 0.79982 0.0
C1969 C 0.04504 0.56326 0.83759 0.0
C1970 C 0.96961 0.54634 0.7968 0.0
C1971 C 0.95745 0.57287 0.75004 0.0
N1972 N 0.02343 0.55622 0.82048 0.0
N1973 N 0.98289 0.5782 0.76257 0.0
H1974 H 0.13879 0.21467 0.52919 0.0
H1975 H 0.20719 0.35371 0.59418 0.0
H1976 H 0.22224 0.22432 0.56354 0.0
H1977 H 0.12164 0.32772 0.61492 0.0
H1978 H 0.2102 0.31103 0.56794 0.0
H1979 H 0.12949 0.2599 0.54884 0.0
C1980 C 0.15497 0.22608 0.54114 0.0
C1981 C 0.18126 0.21558 0.54497 0.0
C1982 C 0.19048 0.31508 0.57754 0.0
C1983 C 0.17117 0.26743 0.56618 0.0
C1984 C 0.18861 0.33956 0.59211 0.0
C1985 C 0.16393 0.34451 0.60612 0.0
C1986 C 0.16751 0.29533 0.57702 0.0
C1987 C 0.14071 0.32508 0.60362 0.0
C1988 C 0.14968 0.25184 0.55214 0.0
C1989 C 0.20157 0.23135 0.56037 0.0
N1990 N 0.1431 0.3011 0.58948 0.0
N1991 N 0.19623 0.25659 0.57006 0.0
H1992 H 0.03534 0.058 0.7945 0.0
H1993 H 0.97057 0.92114 0.85462 0.0
H1994 H 0.07013 0.98101 0.77597 0.0
H1995 H 0.9216 -0.00965 0.84441 0.0
H1996 H 0.00607 0.94128 0.8238 0.0
H1997 H -0.00706 0.0332 0.81152 0.0
C1998 C 0.03403 0.03581 0.794 0.0
C1999 C 0.05649 0.02151 0.78425 0.0
C2000 C 0.98731 0.95182 0.82776 0.0
C2001 C 0.00788 -0.00702 0.80373 0.0
C2002 C 0.96709 0.94034 0.8453 0.0
C2003 C 0.94335 0.95425 0.85194 0.0
C2004 C 0.98412 0.97781 0.81753 0.0
C2005 C 0.93965 0.97904 0.83958 0.0
C2006 C 0.00967 0.02167 0.80347 0.0
C2007 C 0.05339 -0.00721 0.78354 0.0
N2008 N 0.96019 -0.00963 0.82333 0.0
N2009 N 0.02968 0.97942 0.79362 0.0
H2010 H 0.74029 0.3425 0.4504 0.0
H2011 H 0.64305 0.20254 0.4441 0.0
H2012 H 0.68178 0.322 0.5144 0.0
H2013 H 0.71749 0.22015 0.3963 0.0
H2014 H 0.6546 0.24518 0.47061 0.0
H2015 H 0.72863 0.2979 0.42918 0.0
C2016 C 0.72452 0.32865 0.45972 0.0
C2017 C 0.7113 0.33615 0.48367 0.0
C2018 C 0.66853 0.23942 0.45453 0.0
C2019 C 0.69862 0.28425 0.4601 0.0
C2020 C 0.662 0.21505 0.43952 0.0
C2021 C 0.6789 0.20808 0.41758 0.0
C2022 C 0.69218 0.2567 0.44742 0.0
C2023 C 0.70346 0.22491 0.41265 0.0
C2024 C 0.71815 0.30297 0.44782 0.0
C2025 C 0.69195 0.31701 0.49557 0.0
N2026 N 0.70912 0.24848 0.42718 0.0
N2027 N 0.68595 0.29184 0.48352 0.0
H2028 H 0.93657 0.45563 0.76919 0.0
H2029 H 0.05573 0.44798 0.6925 0.0
H2030 H 0.8978 0.43777 0.69146 0.0
H2031 H 0.00769 0.38779 0.64299 0.0
H2032 H 0.01601 0.44855 0.7239 0.0
H2033 H 0.97858 0.43464 0.75334 0.0
C2034 C 0.93651 0.44662 0.749 0.0
C2035 C 0.91375 0.44905 0.73139 0.0
C2036 C 0.01456 0.4342 0.70688 0.0
C2037 C 0.96211 0.4254 0.71309 0.0
C2038 C 0.03741 0.43376 0.68909 0.0
C2039 C 0.03496 0.41767 0.66534 0.0
C2040 C -0.01096 0.41892 0.70033 0.0
C2041 C 0.01037 0.40032 0.66128 0.0
C2042 C 0.96071 0.43492 0.73992 0.0
C2043 C 0.9149 0.4367 0.70562 0.0
N2044 N -0.01195 0.40201 0.67811 0.0
N2045 N 0.93887 0.42576 0.69712 0.0
H2046 H 0.5626 0.57193 0.18946 0.0
H2047 H 0.46888 0.67953 0.13848 0.0
H2048 H 0.57017 0.64939 0.23366 0.0
H2049 H 0.43516 0.59732 0.154 0.0
H2050 H 0.50802 0.67353 0.1696 0.0
H2051 H 0.51945 0.58489 0.169 0.0
C2052 C 0.55555 0.59193 0.1945 0.0
C2053 C 0.57012 0.60961 0.21334 0.0
C2054 C 0.49141 0.65727 0.16697 0.0
C2055 C 0.52039 0.62434 0.19007 0.0
C2056 C 0.46897 0.66077 0.14955 0.0
C2057 C 0.44858 0.63903 0.14426 0.0
C2058 C 0.49378 0.63151 0.17804 0.0
C2059 C 0.45018 0.6147 0.15809 0.0
C2060 C 0.53065 0.59908 0.18311 0.0
C2061 C 0.55957 0.63515 0.21923 0.0
N2062 N 0.4728 0.61133 0.17386 0.0
N2063 N 0.53532 0.64191 0.20747 0.0
H2064 H 0.58892 0.82422 0.78923 0.0
H2065 H 0.57035 0.68347 0.70371 0.0
H2066 H 0.53023 0.75658 0.81086 0.0
H2067 H 0.62713 0.75234 0.68281 0.0
H2068 H 0.55046 0.71165 0.73953 0.0
H2069 H 0.59994 0.79934 0.748 0.0
C2070 C 0.57848 0.80402 0.78549 0.0
C2071 C 0.55875 0.79244 0.80382 0.0
C2072 C 0.56673 0.72085 0.72663 0.0
C2073 C 0.57112 0.76382 0.75611 0.0
C2074 C 0.57764 0.70491 0.70589 0.0
C2075 C 0.59991 0.71587 0.69008 0.0
C2076 C 0.57855 0.74774 0.73166 0.0
C2077 C 0.60962 0.74337 0.69438 0.0
C2078 C 0.58464 0.78988 0.76173 0.0
C2079 C 0.54574 0.76627 0.79751 0.0
N2080 N 0.59911 0.75828 0.71494 0.0
N2081 N 0.55222 0.75282 0.77423 0.0
H2082 H 0.56955 0.30342 0.09033 0.0
H2083 H 0.51706 0.33771 0.94316 0.0
H2084 H 0.48689 0.32712 0.07073 0.0
H2085 H 0.60511 0.34953 0.9635 0.0
H2086 H 0.50693 0.32222 0.9887 0.0
H2087 H 0.58462 0.31333 0.04375 0.0
C2088 C 0.55482 0.31139 0.07654 0.0
C2089 C 0.52688 0.31442 0.08448 0.0
C2090 C 0.52858 0.32768 0.98311 0.0
C2091 C 0.54356 0.32446 0.03117 0.0
C2092 C 0.53442 0.33601 0.95694 0.0
C2093 C 0.56194 0.34492 0.94953 0.0
C2094 C 0.55038 0.32835 0.00219 0.0
C2095 C 0.58363 0.34254 0.96832 0.0
C2096 C 0.56332 0.31662 0.0499 0.0
C2097 C 0.50858 0.32436 0.06558 0.0
N2098 N 0.57736 0.33492 -0.00596 0.0
N2099 N 0.51712 0.32864 0.03985 0.0
H2100 H 0.95009 0.32321 0.31226 0.0
H2101 H 0.90573 0.41879 0.20231 0.0
H2102 H 0.00217 0.39907 0.30615 0.0
H2103 H 0.91693 0.33385 0.18445 0.0
H2104 H 0.93649 0.41699 0.24199 0.0
H2105 H 0.92924 0.33147 0.26865 0.0
C2106 C 0.95668 0.34195 0.30211 0.0
C2107 C 0.9779 0.3605 0.31296 0.0
C2108 C 0.93302 0.3991 0.22875 0.0
C2109 C 0.95424 0.36982 0.26284 0.0
C2110 C 0.91592 0.40022 0.20591 0.0
C2111 C 0.90944 0.37657 0.18979 0.0
C2112 C 0.94252 0.37388 0.23584 0.0
C2113 C 0.92199 0.35264 0.19606 0.0
C2114 C 0.94509 0.3464 0.27702 0.0
C2115 C 0.98584 0.38425 0.2985 0.0
N2116 N 0.93734 0.35168 0.21898 0.0
N2117 N 0.97389 0.38836 0.27413 0.0
H2118 H -0.0087 0.69319 0.58256 0.0
H2119 H 0.97543 0.69937 0.44837 0.0
H2120 H 0.93205 0.75507 0.58909 0.0
H2121 H 0.88702 0.70396 0.46439 0.0
H2122 H 0.98569 0.71214 0.49548 0.0
H2123 H 0.9769 0.68418 0.53562 0.0
C2124 C 0.97459 0.7042 0.57431 0.0
C2125 C 0.96265 0.72465 0.58963 0.0
C2126 C 0.96407 0.71078 0.48856 0.0
C2127 C 0.94717 0.71559 0.53588 0.0
C2128 C 0.95829 0.70414 0.46162 0.0
C2129 C 0.93038 0.70059 0.45262 0.0
C2130 C 0.94177 0.71365 0.50662 0.0
C2131 C 0.90884 0.70679 0.47059 0.0
C2132 C 0.96678 0.69948 0.54749 0.0
C2133 C 0.94132 0.73872 0.57799 0.0
N2134 N 0.91493 0.71265 0.49705 0.0
N2135 N 0.93432 0.73408 0.55158 0.0
H2136 H 0.60415 0.28513 0.67455 0.0
H2137 H 0.56911 0.37006 0.809 0.0
H2138 H 0.53855 0.34068 0.67857 0.0
H2139 H 0.64321 0.32565 0.79909 0.0
H2140 H 0.55629 0.35833 0.76191 0.0
H2141 H 0.61927 0.30046 0.71999 0.0
C2142 C 0.59354 0.30122 0.68475 0.0
C2143 C 0.57052 0.31209 0.67265 0.0
C2144 C 0.57527 0.35106 0.77013 0.0
C2145 C 0.58663 0.32878 0.72519 0.0
C2146 C 0.58236 0.3574 0.79713 0.0
C2147 C 0.60721 0.34875 0.80808 0.0
C2148 C 0.59306 0.33579 0.75405 0.0
C2149 C 0.62387 0.33281 0.79154 0.0
C2150 C 0.60191 0.30975 0.7108 0.0
C2151 C 0.55689 0.33232 0.68697 0.0
N2152 N 0.61653 0.3269 0.76546 0.0
N2153 N 0.56493 0.3398 0.71262 0.0
H2154 H -0.0075 0.32575 0.94561 0.0
H2155 H 0.89343 0.34483 0.07414 0.0
H2156 H 0.92171 0.26861 0.96392 0.0
H2157 H 0.96411 0.40041 0.05275 0.0
H2158 H 0.90619 0.3133 0.03743 0.0
H2159 H 0.98399 0.35118 0.98717 0.0
C2160 C 0.97499 0.31863 0.95821 0.0
C2161 C 0.95774 0.29502 0.95103 0.0
C2162 C 0.91915 0.33221 0.04112 0.0
C2163 C 0.94802 0.32405 -0.00083 0.0
C2164 C 0.91202 0.35002 0.0622 0.0
C2165 C 0.92744 0.37542 0.06606 0.0
C2166 C 0.94195 0.33994 0.02414 0.0
C2167 C 0.95142 0.38117 0.05016 0.0
C2168 C 0.97026 0.33308 0.98215 0.0
C2169 C 0.93552 0.28677 0.96849 0.0
N2170 N 0.95771 0.36378 0.02975 0.0
N2171 N 0.93127 0.30128 -0.00828 0.0
H2172 H 0.97779 0.70471 0.17908 0.0
H2173 H 0.89809 0.75542 0.31135 0.0
H2174 H 0.93639 0.77966 0.18653 0.0
H2175 H 0.93171 0.67633 0.30556 0.0
H2176 H 0.91578 0.76536 0.26634 0.0
H2177 H 0.96163 0.69285 0.22477 0.0
C2178 C 0.96452 0.71819 0.18995 0.0
C2179 C 0.95832 0.74316 0.17904 0.0
C2180 C 0.91969 0.74592 0.27493 0.0
C2181 C 0.94081 0.73036 0.2314 0.0
C2182 C 0.90995 0.74044 0.30083 0.0
C2183 C 0.91355 0.71509 0.31223 0.0
C2184 C 0.93296 0.72581 0.26004 0.0
C2185 C 0.92884 0.69629 0.29762 0.0
C2186 C 0.95575 0.71168 0.21618 0.0
C2187 C 0.94164 0.76021 0.1942 0.0
N2188 N 0.9377 0.70187 0.27206 0.0
N2189 N 0.93373 0.75362 0.21961 0.0
H2190 H 0.56825 0.72208 0.42458 0.0
H2191 H 0.55144 0.7075 0.58351 0.0
H2192 H 0.48985 0.71108 0.46803 0.0
H2193 H 0.6168 0.66782 0.54175 0.0
H2194 H 0.53844 0.72769 0.54126 0.0
H2195 H 0.59377 0.71648 0.4672 0.0
C2196 C 0.55644 0.71826 0.44294 0.0
C2197 C 0.52684 0.71653 0.44262 0.0
C2198 C 0.55638 0.71543 0.54153 0.0
C2199 C 0.55578 0.71177 0.49125 0.0
C2200 C 0.56426 0.70446 0.56578 0.0
C2201 C 0.58512 0.68591 0.56606 0.0
C2202 C 0.56959 0.70785 0.51747 0.0
C2203 C 0.60063 0.68216 0.54232 0.0
C2204 C 0.57099 0.71535 0.46717 0.0
C2205 C 0.5126 0.712 0.46709 0.0
N2206 N 0.59205 0.69238 0.51867 0.0
N2207 N 0.52717 0.71004 0.49033 0.0
H2208 H 0.82447 0.55905 0.67148 0.0
H2209 H 0.66685 0.59257 0.70433 0.0
H2210 H 0.78403 0.55755 0.74927 0.0
H2211 H 0.71019 0.62017 0.63276 0.0
H2212 H 0.70419 0.56255 0.7128 0.0
H2213 H 0.77888 0.56754 0.65066 0.0
C2214 C 0.80602 0.56034 0.68406 0.0
C2215 C 0.80807 0.55849 0.71215 0.0
C2216 C 0.70511 0.57438 0.69464 0.0
C2217 C 0.75614 0.56691 0.68867 0.0
C2218 C 0.6834 0.59105 0.6895 0.0
C2219 C 0.68551 0.60884 0.66788 0.0
C2220 C 0.72929 0.57602 0.67829 0.0
C2221 C 0.7078 0.60657 0.64962 0.0
C2222 C 0.78008 0.56498 0.67224 0.0
C2223 C 0.78352 0.55974 0.7276 0.0
N2224 N 0.72938 0.59116 0.65566 0.0
N2225 N 0.75873 0.56394 0.71571 0.0
H2226 H 0.6426 0.58806 0.02827 0.0
H2227 H 0.6595 0.46156 0.92478 0.0
H2228 H 0.70664 0.58723 0.96696 0.0
H2229 H 0.58602 0.46945 0.97437 0.0
H2230 H 0.6805 0.50483 0.94463 0.0
H2231 H 0.62376 0.54231 0.0122 0.0
C2232 C 0.65236 0.57832 0.0112 0.0
C2233 C 0.67552 0.59159 -0.00169 0.0
C2234 C 0.65991 0.49689 0.95138 0.0
C2235 C 0.65507 0.53919 0.98054 0.0
C2236 C 0.6481 0.47205 0.94028 0.0
C2237 C 0.62093 0.46205 0.94779 0.0
C2238 C 0.6445 0.51158 0.97027 0.0
C2239 C 0.60694 0.47658 0.96783 0.0
C2240 C 0.6418 0.55225 0.00213 0.0
C2241 C 0.68811 0.57795 0.97681 0.0
N2242 N 0.6188 0.50068 0.97824 0.0
N2243 N 0.67773 0.5525 0.96858 0.0
H2244 H 0.67036 0.50949 0.1695 0.0
H2245 H 0.80702 0.43883 0.21729 0.0
H2246 H 0.68277 0.47921 0.24911 0.0
H2247 H 0.79576 0.46246 0.13518 0.0
H2248 H 0.76261 0.4572 0.22938 0.0
H2249 H 0.71548 0.49261 0.15554 0.0
C2250 C 0.6821 0.49849 0.18377 0.0
C2251 C 0.67282 0.49569 0.21051 0.0
C2252 C 0.7699 0.45879 0.20876 0.0
C2253 C 0.72473 0.47737 0.19504 0.0
C2254 C 0.7955 0.44869 0.20198 0.0
C2255 C 0.80508 0.4493 0.17528 0.0
C2256 C 0.75344 0.46933 0.18862 0.0
C2257 C 0.78923 0.46198 0.15609 0.0
C2258 C 0.70807 0.48932 0.17593 0.0
C2259 C 0.68913 0.48181 0.22831 0.0
N2260 N 0.7639 0.4712 0.16306 0.0
N2261 N 0.71435 0.47344 0.22034 0.0
H2262 H 0.74782 0.47812 0.4337 0.0
H2263 H 0.87251 0.59188 0.46932 0.0
H2264 H 0.80846 0.47181 0.49743 0.0
H2265 H 0.8161 0.59813 0.4024 0.0
H2266 H 0.8443 0.55128 0.48382 0.0
H2267 H 0.76909 0.52392 0.42445 0.0
C2268 C 0.7657 0.48624 0.4457 0.0
C2269 C 0.77643 0.47088 0.46634 0.0
C2270 C 0.83771 0.56167 0.46619 0.0
C2271 C 0.8006 0.52365 0.456 0.0
C2272 C 0.85364 0.58505 0.45808 0.0
C2273 C 0.84669 0.59818 0.43449 0.0
C2274 C 0.8148 0.55103 0.4504 0.0
C2275 C 0.82211 0.58854 0.42067 0.0
C2276 C 0.77771 0.51251 0.44046 0.0
C2277 C 0.79956 0.48267 0.48118 0.0
N2278 N 0.80726 0.56517 0.42855 0.0
N2279 N 0.81082 0.50829 0.47572 0.0
H2280 H 0.78931 0.47413 0.75964 0.0
H2281 H 0.68039 0.4778 0.88049 0.0
H2282 H 0.80235 0.52663 0.83057 0.0
H2283 H 0.66204 0.43443 0.8052 0.0
H2284 H 0.72157 0.50169 0.85991 0.0
H2285 H 0.74111 0.46192 0.77456 0.0
C2286 C 0.78223 0.48276 0.77855 0.0
C2287 C 0.80011 0.50121 0.79399 0.0
C2288 C 0.70807 0.48764 0.84753 0.0
C2289 C 0.7446 0.4879 0.81084 0.0
C2290 C 0.68411 0.47452 0.85914 0.0
C2291 C 0.6678 0.45418 0.84449 0.0
C2292 C 0.71591 0.47996 0.82123 0.0
C2293 C 0.67398 0.45018 0.81708 0.0
C2294 C 0.75453 0.47614 0.78684 0.0
C2295 C 0.78946 0.5122 0.81804 0.0
N2296 N 0.69805 0.46229 0.80652 0.0
N2297 N 0.76251 0.50531 0.82574 0.0
H2298 H 0.78221 0.61335 0.08689 0.0
H2299 H 0.82532 0.46251 0.04782 0.0
H2300 H 0.78246 0.577 0.00665 0.0
H2301 H 0.85274 0.50327 0.12221 0.0
H2302 H 0.79759 0.50087 0.03803 0.0
H2303 H 0.80039 0.57141 0.10428 0.0
C2304 C 0.78651 0.59685 0.0729 0.0
C2305 C 0.7809 0.59882 0.04523 0.0
C2306 C 0.80902 0.50119 0.0569 0.0
C2307 C 0.80041 0.55059 0.06507 0.0
C2308 C 0.82427 0.47893 0.06278 0.0
C2309 C 0.84101 0.47961 0.08597 0.0
C2310 C 0.81087 0.52452 0.07416 0.0
C2311 C 0.83968 0.50185 0.1043 0.0
C2312 C 0.7965 0.57282 0.08288 0.0
C2313 C 0.78644 0.57657 0.02812 0.0
N2314 N 0.82535 0.52377 0.09777 0.0
N2315 N 0.79562 0.55346 0.03831 0.0
H2316 H 0.68291 0.56381 0.29729 0.0
H2317 H 0.83615 0.63948 0.28363 0.0
H2318 H 0.7084 0.61791 0.23309 0.0
H2319 H 0.80657 0.59868 0.3552 0.0
H2320 H 0.79361 0.62112 0.25989 0.0
H2321 H 0.73056 0.56934 0.31549 0.0
C2322 C 0.6984 0.57756 0.2875 0.0
C2323 C 0.69148 0.59152 0.2644 0.0
C2324 C 0.79679 0.61541 0.28054 0.0
C2325 C 0.74657 0.59636 0.28399 0.0
C2326 C 0.82141 0.62529 0.29387 0.0
C2327 C 0.82471 0.62057 0.32138 0.0
C2328 C 0.77546 0.60084 0.295 0.0
C2329 C 0.80479 0.60263 0.33395 0.0
C2330 C 0.72576 0.58019 0.29754 0.0
C2331 C 0.71278 0.60753 0.25143 0.0
N2332 N 0.78056 0.59395 0.32087 0.0
N2333 N 0.73941 0.60963 0.26148 0.0
H2334 H 0.7327 0.46631 0.55953 0.0
H2335 H 0.59604 0.54954 0.57746 0.0
H2336 H 0.65126 0.44223 0.52483 0.0
H2337 H 0.67868 0.58409 0.60158 0.0
H2338 H 0.61586 0.50753 0.56385 0.0
H2339 H 0.71298 0.50619 0.58134 0.0
C2340 C 0.71053 0.46901 0.55706 0.0
C2341 C 0.69357 0.45097 0.54028 0.0
C2342 C 0.62981 0.5242 0.5721 0.0
C2343 C 0.67111 0.49659 0.56476 0.0
C2344 C 0.61849 0.54844 0.57988 0.0
C2345 C 0.63571 0.57074 0.5906 0.0
C2346 C 0.65875 0.52184 0.57485 0.0
C2347 C 0.66461 0.56755 0.59338 0.0
C2348 C 0.6994 0.49193 0.56925 0.0
C2349 C 0.66513 0.45567 0.53746 0.0
N2350 N 0.67529 0.54355 0.58543 0.0
N2351 N 0.65489 0.47803 0.54942 0.0
H2352 H 0.70173 0.84877 0.5374 0.0
H2353 H 0.7293 0.70884 0.60854 0.0
H2354 H 0.77542 0.83529 0.58432 0.0
H2355 H 0.64653 0.72611 0.58233 0.0
H2356 H 0.74842 0.75224 0.59056 0.0
H2357 H 0.68214 0.80239 0.54766 0.0
C2358 C 0.71365 0.8363 0.55015 0.0
C2359 C 0.74033 0.84613 0.56003 0.0
C2360 C 0.72614 0.74643 0.58828 0.0
C2361 C 0.71832 0.79278 0.57108 0.0
C2362 C 0.7153 0.72144 0.59815 0.0
C2363 C 0.68632 0.71398 0.59696 0.0
C2364 C 0.70785 0.76428 0.5773 0.0
C2365 C 0.66905 0.73109 0.58346 0.0
C2366 C 0.70252 0.80974 0.55577 0.0
C2367 C 0.75478 0.82884 0.57628 0.0
N2368 N 0.68001 0.75578 0.57451 0.0
N2369 N 0.7437 0.80305 0.58109 0.0
H2370 H 0.15364 0.69582 0.46825 0.0
H2371 H 0.19201 0.8529 0.44945 0.0
H2372 H 0.23475 0.73313 0.44458 0.0
H2373 H 0.12327 0.81776 0.40037 0.0
H2374 H 0.19616 0.80821 0.4691 0.0
H2375 H 0.1328 0.73923 0.45866 0.0
C2376 C 0.1669 0.71278 0.46044 0.0
C2377 C 0.19605 0.71089 0.45735 0.0
C2378 C 0.17931 0.81059 0.45492 0.0
C2379 C 0.17276 0.76033 0.44801 0.0
C2380 C 0.17663 0.83615 0.44408 0.0
C2381 C 0.15739 0.83886 0.42327 0.0
C2382 C 0.16276 0.7877 0.44467 0.0
C2383 C 0.1383 0.81637 0.41653 0.0
C2384 C 0.15507 0.73752 0.45541 0.0
C2385 C 0.21228 0.73361 0.44749 0.0
N2386 N 0.14201 0.79129 0.42659 0.0
N2387 N 0.20053 0.75745 0.44369 0.0
H2388 H 0.57249 0.9674 0.74733 0.0
H2389 H 0.45885 0.00543 0.64254 0.0
H2390 H 0.5912 0.02339 0.68305 0.0
H2391 H 0.45665 0.92276 0.67042 0.0
H2392 H 0.50422 0.0156 0.66493 0.0
H2393 H 0.52794 0.9518 0.72495 0.0
C2394 C 0.56777 0.97552 0.72791 0.0
C2395 C 0.58591 -0.00396 0.71647 0.0
C2396 C 0.49356 -0.00466 0.66656 0.0
C2397 C 0.53424 0.98004 0.69214 0.0
C2398 C 0.46753 -0.01036 0.65412 0.0
C2399 C 0.4536 0.9634 0.65529 0.0
C2400 C 0.50579 0.97469 0.6804 0.0
C2401 C 0.46603 0.94355 0.67016 0.0
C2402 C 0.54215 0.96702 0.71547 0.0
C2403 C 0.57799 0.00718 0.6922 0.0
N2404 N 0.49153 0.94957 0.68218 0.0
N2405 N 0.55256 -0.00068 0.68102 0.0
H2406 H 0.26228 0.33327 0.96544 0.0
H2407 H 0.3813 0.23998 0.91944 0.0
H2408 H 0.34693 0.34745 -0.0036 0.0
H2409 H 0.293 0.21458 0.91346 0.0
H2410 H 0.37039 0.2767 0.95138 0.0
H2411 H 0.27402 0.28899 0.94695 0.0
C2412 C 0.28346 0.32724 0.96807 0.0
C2413 C 0.30371 0.34429 0.98228 0.0
C2414 C 0.35346 0.26247 0.94389 0.0
C2415 C 0.31721 0.2932 0.9615 0.0
C2416 C 0.35977 0.24112 0.92613 0.0
C2417 C 0.338 0.22415 0.91405 0.0
C2418 C 0.32517 0.26703 0.94896 0.0
C2419 C 0.31037 0.22712 0.9226 0.0
C2420 C 0.29004 0.30172 0.95787 0.0
C2421 C 0.33068 0.33504 0.98547 0.0
N2422 N 0.30464 0.24862 0.93897 0.0
N2423 N 0.33673 0.31022 0.97497 0.0
H2424 H 0.41932 0.58832 0.74655 0.0
H2425 H 0.569 0.57139 0.67725 0.0
H2426 H 0.44284 0.51512 0.70474 0.0
H2427 H 0.53405 0.64944 0.68687 0.0
H2428 H 0.52852 0.55001 0.70163 0.0
H2429 H 0.46614 0.61059 0.73657 0.0
C2430 C 0.43422 0.57699 0.73523 0.0
C2431 C 0.42692 0.54999 0.72602 0.0
C2432 C 0.53023 0.57199 0.69922 0.0
C2433 C 0.48063 0.57489 0.71554 0.0
C2434 C 0.55357 0.58423 0.6858 0.0
C2435 C 0.55498 0.61222 0.68053 0.0
C2436 C 0.50829 0.58797 0.7073 0.0
C2437 C 0.53393 0.62787 0.69112 0.0
C2438 C 0.46094 0.58961 0.72973 0.0
C2439 C 0.44724 0.53614 0.71176 0.0
N2440 N 0.51121 0.61549 0.70371 0.0
N2441 N 0.47311 0.54871 0.70703 0.0
H2442 H 0.72942 0.22724 0.0683 0.0
H2443 H 0.84599 0.35197 0.06133 0.0
H2444 H 0.78727 0.23546 0.00172 0.0
H2445 H 0.77207 0.35228 0.11129 0.0
H2446 H 0.82492 0.31084 0.03723 0.0
H2447 H 0.74567 0.27357 0.08425 0.0
C2448 C 0.74582 0.23876 0.05729 0.0
C2449 C 0.75789 0.22728 0.03439 0.0
C2450 C 0.81297 0.32042 0.05294 0.0
C2451 C 0.77603 0.28046 0.05183 0.0
C2452 C 0.82485 0.34408 0.06641 0.0
C2453 C 0.81077 0.35532 0.08836 0.0
C2454 C 0.78698 0.30813 0.06171 0.0
C2455 C 0.78357 0.34414 0.09444 0.0
C2456 C 0.75493 0.26525 0.06618 0.0
C2457 C 0.7784 0.24327 0.02021 0.0
N2458 N 0.77279 0.32089 0.08157 0.0
N2459 N 0.78709 0.26899 0.02931 0.0
H2460 H 0.54464 0.03359 0.80305 0.0
H2461 H 0.472 0.15994 0.85456 0.0
H2462 H 0.59188 0.11251 0.80173 0.0
H2463 H 0.42751 0.0896 0.81617 0.0
H2464 H 0.51547 0.14782 0.83241 0.0
H2465 H 0.5017 0.05616 0.8086 0.0
C2466 C 0.5461 0.05577 0.80424 0.0
C2467 C 0.57209 0.07114 0.80204 0.0
C2468 C 0.49596 0.13574 0.82783 0.0
C2469 C 0.52228 0.09738 0.80814 0.0
C2470 C 0.47098 0.14297 0.84002 0.0
C2471 C 0.44631 0.12541 0.83747 0.0
C2472 C 0.49588 0.1108 0.81323 0.0
C2473 C 0.44618 0.10352 0.81879 0.0
C2474 C 0.52136 0.0687 0.80697 0.0
C2475 C 0.57234 0.09987 0.80357 0.0
N2476 N 0.47081 0.09625 0.80809 0.0
N2477 N 0.54775 0.11215 0.80682 0.0
H2478 H 0.93826 0.00274 0.31832 0.0
H2479 H 0.02966 0.88417 0.3422 0.0
H2480 H 0.91755 0.92672 0.27403 0.0
H2481 H 0.06474 0.96773 0.34012 0.0
H2482 H -0.00961 0.89603 0.31427 0.0
H2483 H 0.98449 0.98771 0.32806 0.0
C2484 C 0.9432 0.98262 0.31108 0.0
C2485 C 0.92383 0.96582 0.2956 0.0
C2486 C 0.00733 0.91151 0.31886 0.0
C2487 C 0.97719 0.94876 0.3062 0.0
C2488 C 0.03011 0.90462 0.33429 0.0
C2489 C 0.0502 0.92514 0.3437 0.0
C2490 C 0.00477 0.93914 0.31337 0.0
C2491 C 0.04952 0.95138 0.33337 0.0
C2492 C 0.96987 0.97431 0.31615 0.0
C2493 C 0.9318 0.94019 0.28624 0.0
N2494 N 0.02649 0.95797 0.31966 0.0
N2495 N 0.95784 0.93225 0.29194 0.0
H2496 H 0.47688 0.34095 0.1959 0.0
H2497 H 0.41873 0.3267 0.34636 0.0
H2498 H 0.44998 0.26521 0.23417 0.0
H2499 H 0.42916 0.4035 0.30592 0.0
H2500 H 0.4449 0.30542 0.30997 0.0
H2501 H 0.47191 0.36537 0.23958 0.0
C2502 C 0.47011 0.3295 0.21345 0.0
C2503 C 0.46302 0.30118 0.21124 0.0
C2504 C 0.44225 0.32715 0.30942 0.0
C2505 C 0.45807 0.32861 0.2611 0.0
C2506 C 0.42775 0.33933 0.33045 0.0
C2507 C 0.42195 0.36677 0.32899 0.0
C2508 C 0.45047 0.34253 0.28671 0.0
C2509 C 0.43341 0.38222 0.30764 0.0
C2510 C 0.46741 0.34335 0.23834 0.0
C2511 C 0.45481 0.2872 0.2347 0.0
N2512 N 0.44663 0.36977 0.28697 0.0
N2513 N 0.45242 0.30103 0.25849 0.0
H2514 H 0.44191 0.74806 0.90069 0.0
H2515 H 0.41806 0.75098 0.0612 0.0
H2516 H 0.45737 0.82201 0.94945 0.0
H2517 H 0.4206 0.67865 0.00988 0.0
H2518 H 0.42363 0.77926 0.02061 0.0
H2519 H 0.42352 0.72443 0.94042 0.0
C2520 C 0.44088 0.7595 0.91961 0.0
C2521 C 0.45153 0.78696 0.92172 0.0
C2522 C 0.42284 0.75716 0.01843 0.0
C2523 C 0.43113 0.7598 0.96771 0.0
C2524 C 0.41965 0.74109 0.04155 0.0
C2525 C 0.41942 0.71243 0.03909 0.0
C2526 C 0.42531 0.74431 -0.00718 0.0
C2527 C 0.4214 0.70066 0.01304 0.0
C2528 C 0.43058 0.74595 0.94243 0.0
C2529 C 0.44955 0.80074 0.9469 0.0
N2530 N 0.42429 0.71654 -0.00883 0.0
N2531 N 0.44002 0.78692 0.96901 0.0
H2532 H 0.05823 0.73908 0.69235 0.0
H2533 H 0.05804 0.6651 0.83408 0.0
H2534 H 0.98355 0.69473 0.72318 0.0
H2535 H 0.12451 0.7216 0.80498 0.0
H2536 H 0.02901 0.67556 0.79514 0.0
H2537 H 0.0828 0.7303 0.73361 0.0
C2538 C 0.04704 0.72715 0.70763 0.0
C2539 C 0.01868 0.71779 0.7042 0.0
C2540 C 0.0498 0.68595 0.79761 0.0
C2541 C 0.04675 0.70803 0.75213 0.0
C2542 C 0.06622 0.68019 0.81992 0.0
C2543 C 0.09396 0.69194 0.82227 0.0
C2544 C 0.06132 0.70375 0.77793 0.0
C2545 C 0.10345 0.7116 0.80361 0.0
C2546 C 0.06105 0.72237 0.73142 0.0
C2547 C 0.00543 0.70235 0.72487 0.0
N2548 N 0.08737 0.71656 0.7821 0.0
N2549 N 0.01955 0.69806 0.74805 0.0
H2550 H 0.04391 0.36517 0.4298 0.0
H2551 H 0.12618 0.35578 0.55846 0.0
H2552 H 0.08174 0.28808 0.42951 0.0
H2553 H 0.03554 0.35154 0.55919 0.0
H2554 H 0.12465 0.33861 0.51134 0.0
H2555 H 0.05822 0.37325 0.47666 0.0
C2556 C 0.05656 0.35062 0.43912 0.0
C2557 C 0.06224 0.32622 0.4256 0.0
C2558 C 0.1052 0.34042 0.5223 0.0
C2559 C 0.07728 0.33473 0.47952 0.0
C2560 C 0.10598 0.34971 0.54927 0.0
C2561 C 0.08088 0.35476 0.56275 0.0
C2562 C 0.07921 0.33682 0.50903 0.0
C2563 C 0.05529 0.34781 0.54949 0.0
C2564 C 0.06419 0.35499 0.46599 0.0
C2565 C 0.07736 0.30731 0.43928 0.0
N2566 N 0.05512 0.33989 0.5231 0.0
N2567 N 0.0841 0.31175 0.46581 0.0
H2568 H 0.49906 0.69363 0.30778 0.0
H2569 H 0.39297 0.75159 0.20236 0.0
H2570 H 0.43982 0.75304 0.32761 0.0
H2571 H 0.43157 0.67631 0.1866 0.0
H2572 H 0.41526 0.75521 0.24676 0.0
H2573 H 0.47842 0.6882 0.26217 0.0
C2574 C 0.48126 0.70495 0.30273 0.0
C2575 C 0.47057 0.7232 0.32169 0.0
C2576 C 0.41932 0.73808 0.23344 0.0
C2577 C 0.44784 0.71815 0.26951 0.0
C2578 C 0.40685 0.73621 0.20795 0.0
C2579 C 0.41112 0.714 0.19039 0.0
C2580 C 0.43612 0.7175 0.24167 0.0
C2581 C 0.42885 0.69436 0.19895 0.0
C2582 C 0.46967 0.70205 0.27672 0.0
C2583 C 0.44808 0.73806 0.31394 0.0
N2584 N 0.44064 0.69647 0.22403 0.0
N2585 N 0.43763 0.73534 0.28849 0.0
H2586 H 0.06331 0.7932 0.03082 0.0
H2587 H 0.11083 0.64874 0.97711 0.0
H2588 H 0.06637 0.72213 0.07996 0.0
H2589 H 0.06587 0.70068 0.92674 0.0
H2590 H 0.11054 0.68328 0.01374 0.0
H2591 H 0.0788 0.76626 -0.00816 0.0
C2592 C 0.0677 0.77208 0.03354 0.0
C2593 C 0.06332 0.7598 0.05867 0.0
C2594 C 0.10147 0.68749 -0.00558 0.0
C2595 C 0.0814 0.72919 0.01431 0.0
C2596 C 0.10195 0.668 0.97345 0.0
C2597 C 0.08872 0.67217 0.94887 0.0
C2598 C 0.08752 0.71128 -0.0092 0.0
C2599 C 0.07673 0.69703 0.9453 0.0
C2600 C 0.07642 0.75677 0.01127 0.0
C2601 C 0.06919 0.73234 0.06095 0.0
N2602 N 0.07616 0.71565 0.96619 0.0
N2603 N 0.07792 0.71798 0.03907 0.0
H2604 H 0.98592 0.3256 0.81585 0.0
H2605 H 0.05198 0.37423 0.69743 0.0
H2606 H 0.07055 0.32354 0.84605 0.0
H2607 H 0.12392 0.33831 0.73021 0.0
H2608 H 0.02688 0.36563 0.73975 0.0
H2609 H 0.00479 0.34213 0.77314 0.0
C2610 C 0.0085 0.3295 0.81381 0.0
C2611 C 0.02671 0.32294 0.83452 0.0
C2612 C 0.04794 0.35915 0.73754 0.0
C2613 C 0.04856 0.34174 0.78544 0.0
C2614 C 0.06227 0.36403 0.71326 0.0
C2615 C 0.09015 0.35713 0.71019 0.0
C2616 C 0.06165 0.34711 0.7588 0.0
C2617 C 0.10253 0.34416 0.73157 0.0
C2618 C 0.0193 0.33892 0.78927 0.0
C2619 C 0.05572 0.32826 0.83067 0.0
N2620 N 0.0883 0.33981 0.75492 0.0
N2621 N 0.06573 0.33686 0.80643 0.0
H2622 H 0.43977 0.31475 0.58286 0.0
H2623 H 0.4403 0.3578 0.42856 0.0
H2624 H 0.50975 0.31219 0.52804 0.0
H2625 H 0.38402 0.38835 0.48799 0.0
H2626 H 0.45502 0.32497 0.46108 0.0
H2627 H 0.41006 0.32739 0.54511 0.0
C2628 C 0.44865 0.31628 0.56279 0.0
C2629 C 0.47725 0.31287 0.55849 0.0
C2630 C 0.43865 0.33814 0.46672 0.0
C2631 C 0.44359 0.32666 0.51546 0.0
C2632 C 0.42987 0.3565 0.44796 0.0
C2633 C 0.41085 0.37562 0.45563 0.0
C2634 C 0.42845 0.33917 0.49333 0.0
C2635 C 0.39859 0.3737 0.48131 0.0
C2636 C 0.43178 0.32347 0.54133 0.0
C2637 C 0.48786 0.31508 0.53219 0.0
N2638 N 0.40802 0.35622 0.4995 0.0
N2639 N 0.47111 0.32196 0.51175 0.0
H2640 H 0.17151 0.4667 0.33825 0.0
H2641 H 0.29359 0.42922 0.38917 0.0
H2642 H 0.21706 0.5394 0.30906 0.0
H2643 H 0.32539 0.46989 0.31828 0.0
H2644 H 0.25408 0.45843 0.39017 0.0
H2645 H 0.21388 0.45508 0.36157 0.0
C2646 C 0.19017 0.48082 0.3378 0.0
C2647 C 0.19083 0.50416 0.32205 0.0
C2648 C 0.27016 0.46155 0.37487 0.0
C2649 C 0.23972 0.49066 0.34787 0.0
C2650 C 0.29298 0.44528 0.37462 0.0
C2651 C 0.31274 0.44739 0.35371 0.0
C2652 C 0.26707 0.47968 0.35379 0.0
C2653 C 0.31063 0.46789 0.33486 0.0
C2654 C 0.21441 0.47425 0.35115 0.0
C2655 C 0.21571 0.52145 0.32142 0.0
N2656 N 0.28791 0.483 0.33508 0.0
N2657 N 0.23945 0.51391 0.33344 0.0
H2658 H 0.25169 0.48129 0.07748 0.0
H2659 H 0.35467 0.60392 0.02134 0.0
H2660 H 0.30967 0.4742 0.01142 0.0
H2661 H 0.31902 0.60726 0.10074 0.0
H2662 H 0.32817 0.55978 0.01278 0.0
H2663 H 0.26851 0.53005 0.08339 0.0
C2664 C 0.26823 0.48996 0.06455 0.0
C2665 C 0.28003 0.47369 0.04454 0.0
C2666 C 0.32542 0.57048 0.03188 0.0
C2667 C 0.29816 0.52921 0.05012 0.0
C2668 C 0.34012 0.59591 0.03652 0.0
C2669 C 0.33839 0.60942 0.06165 0.0
C2670 C 0.30918 0.55832 0.05266 0.0
C2671 C 0.31992 0.59785 0.08093 0.0
C2672 C 0.2776 0.5177 0.06773 0.0
C2673 C 0.30073 0.48589 0.02768 0.0
N2674 N 0.30631 0.57267 0.07629 0.0
N2675 N 0.3091 0.51288 0.03083 0.0
H2676 H 0.33564 0.57624 0.84924 0.0
H2677 H 0.2168 0.63142 0.89151 0.0
H2678 H 0.28495 0.50063 0.83313 0.0
H2679 H 0.17992 0.57458 0.83139 0.0
H2680 H 0.25549 0.60201 0.897 0.0
H2681 H 0.29479 0.59544 0.86982 0.0
C2682 C 0.31626 0.56329 0.851 0.0
C2683 C 0.31364 0.53699 0.83896 0.0
C2684 C 0.2386 0.59557 0.88312 0.0
C2685 C 0.26653 0.5589 0.86219 0.0
C2686 C 0.21626 0.61205 0.88034 0.0
C2687 C 0.19513 0.60518 0.86113 0.0
C2688 C 0.24 0.57235 0.86612 0.0
C2689 C 0.19565 0.58031 0.84668 0.0
C2690 C 0.29281 0.57426 0.8628 0.0
C2691 C 0.28786 0.5212 0.84175 0.0
N2692 N 0.21803 0.56494 0.84917 0.0
N2693 N 0.26509 0.53268 0.85226 0.0
H2694 H 0.1777 0.60817 0.54543 0.0
H2695 H 0.18021 0.45904 0.60568 0.0
H2696 H 0.25634 0.57666 0.56756 0.0
H2697 H 0.11247 0.48771 0.55916 0.0
H2698 H 0.20924 0.50139 0.59509 0.0
H2699 H 0.15325 0.5646 0.55625 0.0
C2700 C 0.18987 0.59217 0.55282 0.0
C2701 C 0.21922 0.59611 0.55529 0.0
C2702 C 0.1881 0.49811 0.58705 0.0
C2703 C 0.19114 0.54559 0.56744 0.0
C2704 C 0.17161 0.47394 0.59295 0.0
C2705 C 0.14358 0.47021 0.584 0.0
C2706 C 0.17631 0.51835 0.57207 0.0
C2707 C 0.13366 0.48995 0.56719 0.0
C2708 C 0.17587 0.56712 0.55881 0.0
C2709 C 0.23369 0.57453 0.56529 0.0
N2710 N 0.14982 0.51319 0.56212 0.0
N2711 N 0.21951 0.55005 0.57088 0.0
H2712 H 0.20258 0.5214 0.18242 0.0
H2713 H 0.34313 0.61992 0.1937 0.0
H2714 H 0.22018 0.57094 0.25452 0.0
H2715 H 0.28456 0.62576 0.12841 0.0
H2716 H 0.309 0.58633 0.21495 0.0
H2717 H 0.24413 0.5447 0.16095 0.0
C2718 C 0.21535 0.53695 0.19378 0.0
C2719 C 0.20775 0.54469 0.22005 0.0
C2720 C 0.30427 0.59437 0.19549 0.0
C2721 C 0.25562 0.57028 0.19618 0.0
C2722 C 0.32374 0.61318 0.18329 0.0
C2723 C 0.31691 0.62489 0.15891 0.0
C2724 C 0.27836 0.58693 0.18274 0.0
C2725 C 0.29097 0.61647 0.14675 0.0
C2726 C 0.239 0.55006 0.18161 0.0
C2727 C 0.2251 0.56482 0.23402 0.0
N2728 N 0.27271 0.5979 0.15867 0.0
N2729 N 0.24832 0.57695 0.22192 0.0
H2730 H 0.25674 0.47215 0.94115 0.0
H2731 H 0.10736 0.53394 0.93044 0.0
H2732 H 0.17767 0.42745 0.95953 0.0
H2733 H 0.18611 0.58135 0.91726 0.0
H2734 H 0.13276 0.49353 0.9365 0.0
H2735 H 0.23114 0.50996 0.92545 0.0
C2736 C 0.23395 0.46994 0.94122 0.0
C2737 C 0.21933 0.44667 0.95201 0.0
C2738 C 0.14458 0.51271 0.93217 0.0
C2739 C 0.18994 0.49024 0.93466 0.0
C2740 C 0.13009 0.53599 0.92894 0.0
C2741 C 0.14463 0.56128 0.92322 0.0
C2742 C 0.17397 0.5145 0.9298 0.0
C2743 C 0.17405 0.5623 0.92124 0.0
C2744 C 0.21937 0.49171 0.9325 0.0
C2745 C 0.18984 0.44499 0.95151 0.0
N2746 N 0.18779 0.53927 0.92458 0.0
N2747 N 0.17614 0.46667 0.94341 0.0
H2748 H 0.29454 0.54883 0.70419 0.0
H2749 H 0.15671 0.44917 0.72694 0.0
H2750 H 0.28711 0.47907 0.75555 0.0
H2751 H 0.17487 0.48268 0.64902 0.0
H2752 H 0.19696 0.47734 0.74563 0.0
H2753 H 0.24513 0.53792 0.68975 0.0
C2754 C 0.28253 0.53117 0.71219 0.0
C2755 C 0.29491 0.51422 0.73032 0.0
C2756 C 0.19152 0.47932 0.72461 0.0
C2757 C 0.23864 0.50297 0.71563 0.0
C2758 C 0.16815 0.46375 0.71409 0.0
C2759 C 0.16285 0.46334 0.68633 0.0
C2760 C 0.2095 0.49453 0.70716 0.0
C2761 C 0.1786 0.48226 0.67047 0.0
C2762 C 0.25446 0.52518 0.70423 0.0
C2763 C 0.27848 0.49209 0.74088 0.0
N2764 N 0.20191 0.49656 0.68089 0.0
N2765 N 0.25119 0.48715 0.73344 0.0
H2766 H 0.31949 0.62633 0.45014 0.0
H2767 H 0.30572 0.46332 0.43051 0.0
H2768 H 0.24326 0.5773 0.46875 0.0
H2769 H 0.38201 0.51615 0.42307 0.0
H2770 H 0.27911 0.50433 0.43605 0.0
H2771 H 0.33869 0.58607 0.42967 0.0
C2772 C 0.30652 0.60714 0.44916 0.0
C2773 C 0.27986 0.60499 0.46103 0.0
C2774 C 0.30166 0.5068 0.43301 0.0
C2775 C 0.30209 0.55842 0.43892 0.0
C2776 C 0.31678 0.48347 0.42987 0.0
C2777 C 0.34612 0.48637 0.42674 0.0
C2778 C 0.3161 0.53301 0.43273 0.0
C2779 C 0.3595 0.51289 0.42606 0.0
C2780 C 0.31753 0.58405 0.43774 0.0
C2781 C 0.26387 0.57967 0.45951 0.0
N2782 N 0.34445 0.53504 0.4291 0.0
N2783 N 0.27547 0.55711 0.44915 0.0
H2784 H 0.2886 0.226 0.50457 0.0
H2785 H 0.28403 0.32932 0.38322 0.0
H2786 H 0.24282 0.2102 0.43001 0.0
H2787 H 0.35044 0.33965 0.44255 0.0
H2788 H 0.26542 0.28818 0.40511 0.0
H2789 H 0.31033 0.26883 0.48582 0.0
C2790 C 0.28351 0.23124 0.48417 0.0
C2791 C 0.26363 0.21461 0.46893 0.0
C2792 C 0.28407 0.29933 0.4135 0.0
C2793 C 0.28776 0.2635 0.44781 0.0
C2794 C 0.29464 0.32299 0.40105 0.0
C2795 C 0.31903 0.33779 0.41086 0.0
C2796 C 0.29792 0.29004 0.43603 0.0
C2797 C 0.33156 0.32879 0.43434 0.0
C2798 C 0.29572 0.25574 0.47361 0.0
C2799 C 0.25767 0.22247 0.4427 0.0
N2800 N 0.32098 0.30525 0.44609 0.0
N2801 N 0.26945 0.24633 0.43316 0.0
H2802 H 0.82687 0.37751 0.56772 0.0
H2803 H 0.87798 0.26273 0.61847 0.0
H2804 H 0.81306 0.33132 0.49295 0.0
H2805 H 0.81335 0.22405 0.56662 0.0
H2806 H 0.88027 0.30326 0.59028 0.0
H2807 H 0.8483 0.33843 0.58651 0.0
C2808 C 0.82921 0.35954 0.55496 0.0
C2809 C 0.81786 0.35764 0.52884 0.0
C2810 C 0.8661 0.28565 0.58468 0.0
C2811 C 0.84197 0.31265 0.55028 0.0
C2812 C 0.86511 0.2624 0.60045 0.0
C2813 C 0.84551 0.24014 0.59467 0.0
C2814 C 0.84715 0.28658 0.56315 0.0
C2815 C 0.82889 0.24078 0.57151 0.0
C2816 C 0.84153 0.3372 0.56566 0.0
C2817 C 0.82133 0.33369 0.51327 0.0
N2818 N 0.82984 0.26384 0.55671 0.0
N2819 N 0.83227 0.31185 0.52449 0.0
H2820 H 0.4277 0.03383 0.28999 0.0
H2821 H 0.57387 0.12053 0.30455 0.0
H2822 H 0.4612 0.07742 0.22122 0.0
H2823 H 0.54762 0.05027 0.35139 0.0
H2824 H 0.53488 0.10772 0.2727 0.0
H2825 H 0.47193 0.04397 0.31337 0.0
C2826 C 0.44441 0.04592 0.27992 0.0
C2827 C 0.44062 0.05534 0.2539 0.0
C2828 C 0.53822 0.09479 0.28957 0.0
C2829 C 0.49216 0.06639 0.28037 0.0
C2830 C 0.56047 0.10202 0.30764 0.0
C2831 C 0.56338 0.0868 0.33094 0.0
C2832 C 0.5192 0.07218 0.29507 0.0
C2833 C 0.54581 0.06278 0.33389 0.0
C2834 C 0.46988 0.05139 0.29315 0.0
C2835 C 0.4633 0.07017 0.24149 0.0
N2836 N 0.52428 0.0565 0.31648 0.0
N2837 N 0.48821 0.07556 0.25499 0.0
H2838 H 0.71932 0.72254 0.06155 0.0
H2839 H 0.62014 0.83165 0.10876 0.0
H2840 H 0.63874 0.71825 0.02139 0.0
H2841 H 0.70623 0.85345 0.08663 0.0
H2842 H 0.62166 0.78844 0.08217 0.0
H2843 H 0.71061 0.76784 0.07983 0.0
C2844 C 0.69952 0.73084 0.05701 0.0
C2845 C 0.67972 0.71651 0.03994 0.0
C2846 C 0.63983 0.8032 0.08245 0.0
C2847 C 0.66976 0.76854 0.06074 0.0
C2848 C 0.63885 0.82797 0.09724 0.0
C2849 C 0.66301 0.84625 0.0995 0.0
C2850 C 0.6654 0.79659 0.07083 0.0
C2851 C 0.68708 0.84004 0.08508 0.0
C2852 C 0.69476 0.75686 0.06716 0.0
C2853 C 0.65457 0.72864 0.03448 0.0
N2854 N 0.68791 0.81548 0.07193 0.0
N2855 N 0.65017 0.75399 0.045 0.0
H2856 H 0.53332 0.56212 0.29156 0.0
H2857 H 0.47293 0.42544 0.35437 0.0
H2858 H 0.56945 0.48579 0.27311 0.0
H2859 H 0.42117 0.49231 0.34253 0.0
H2860 H 0.50751 0.44589 0.32281 0.0
H2861 H 0.49139 0.53664 0.30889 0.0
C2862 C 0.53233 0.53993 0.29105 0.0
C2863 C 0.55504 0.526 0.28131 0.0
C2864 C 0.48835 0.45584 0.32661 0.0
C2865 C 0.50714 0.49674 0.30122 0.0
C2866 C 0.4687 0.44422 0.34461 0.0
C2867 C 0.44445 0.45742 0.35098 0.0
C2868 C 0.48405 0.48127 0.31562 0.0
C2869 C 0.43969 0.48161 0.33797 0.0
C2870 C 0.50828 0.52541 0.30072 0.0
C2871 C 0.55246 0.49728 0.28064 0.0
N2872 N 0.45968 0.49314 0.32126 0.0
N2873 N 0.52911 0.48355 0.29097 0.0
H2874 H 0.1849 0.82571 0.01761 0.0
H2875 H 0.22029 0.7116 0.9079 0.0
H2876 H 0.24321 0.83807 0.95179 0.0
H2877 H 0.13785 0.70944 0.94389 0.0
H2878 H 0.23391 0.75335 0.93395 0.0
H2879 H 0.17077 0.77932 -0.00117 0.0
C2880 C 0.19445 0.81869 -0.00087 0.0
C2881 C 0.2146 0.83577 0.98571 0.0
C2882 C 0.21292 0.74357 0.93647 0.0
C2883 C 0.19982 0.78302 0.96514 0.0
C2884 C 0.2052 0.71963 0.92178 0.0
C2885 C 0.1778 0.70718 0.92362 0.0
C2886 C 0.19311 0.75533 0.95314 0.0
C2887 C 0.15919 0.71834 0.94208 0.0
C2888 C 0.18652 0.79237 0.98854 0.0
C2889 C 0.22702 0.82573 0.96228 0.0
N2890 N 0.16704 0.74212 0.95597 0.0
N2891 N 0.2195 0.80003 0.95281 0.0
H2892 H 0.40051 0.93273 0.19231 0.0
H2893 H 0.52566 0.89187 0.14988 0.0
H2894 H 0.44083 0.95962 0.26729 0.0
H2895 H 0.55676 0.95797 0.20338 0.0
H2896 H 0.48251 0.88638 0.17672 0.0
H2897 H 0.44317 0.91168 0.17871 0.0
C2898 C 0.41791 0.93328 0.20639 0.0
C2899 C 0.41717 0.94841 0.23076 0.0
C2900 C 0.49906 0.90158 0.18308 0.0
C2901 C 0.46645 0.92457 0.21522 0.0
C2902 C 0.52398 0.90429 0.16814 0.0
C2903 C 0.54479 0.92533 0.17456 0.0
C2904 C 0.49489 0.92039 0.20431 0.0
C2905 C 0.54131 0.94132 0.19797 0.0
C2906 C 0.4424 0.92117 0.19863 0.0
C2907 C 0.4405 0.94848 0.24812 0.0
N2908 N 0.51656 0.93889 0.21173 0.0
N2909 N 0.46446 0.93757 0.23966 0.0
H2910 H 0.05675 0.06416 0.69397 0.0
H2911 H 0.9706 0.17901 0.64058 0.0
H2912 H 0.07093 0.14473 0.73135 0.0
H2913 H 0.93377 0.09688 0.65114 0.0
H2914 H 0.00863 0.16998 0.67185 0.0
H2915 H 0.01418 0.07819 0.67318 0.0
C2916 C 0.05119 0.08499 0.69746 0.0
C2917 C 0.06755 0.10337 0.71431 0.0
C2918 C -0.00834 0.15431 0.66805 0.0
C2919 C 0.0185 0.11939 0.69077 0.0
C2920 C 0.96987 0.15954 0.65053 0.0
C2921 C 0.94885 0.13879 0.64393 0.0
C2922 C -0.00721 0.12784 0.6779 0.0
C2923 C 0.94931 0.11353 0.65631 0.0
C2924 C 0.02661 0.09281 0.68594 0.0
C2925 C 0.05892 0.12997 0.71842 0.0
N2926 N 0.9713 0.10853 0.67229 0.0
N2927 N 0.03502 0.13733 0.7065 0.0
loop_
_geom_bond_atom_site_label_1
_geom_bond_atom_site_label_2
_geom_bond_distance
_geom_bond_site_symmetry_2
_ccdc_geom_bond_type
Mn0 O5 2.110 . S
Mn0 O15 2.162 1_455 S
Mn0 O16 2.297 1_455 S
Mn0 O24 2.385 . S
Mn0 O25 2.209 . S
Mn0 O26 2.094 . S
Mn1 O6 2.121 . S
Mn1 N8 2.257 . S
Mn1 N17 2.282 . S
Mn1 O25 2.215 . S
Mn1 O27 2.117 . S
C2 O24 1.234 . S
C2 O25 1.283 . S
C3 O15 1.281 . S
C3 O16 1.236 . S
C4 O26 1.240 . S
C4 O27 1.264 . S
O5 Mn0 2.110 . S
O5 C14 1.246 1_455 S
O6 Mn1 2.121 . S
O6 C14 1.258 1_455 S
C7 N8 1.326 . S
C7 C11 1.460 . S
C7 H13 0.929 . S
N8 Mn1 2.257 . S
N8 C7 1.326 . S
N8 C12 1.362 . S
C9 C10 1.258 . S
C9 C12 1.431 . S
C9 C29 1.449 . S
C10 C9 1.258 . S
C10 C11 1.477 . S
C10 H30 0.931 . S
C11 C7 1.460 . S
C11 C10 1.477 . S
C11 H31 0.930 . S
C12 N8 1.362 . S
C12 C9 1.431 . S
C12 C22 1.476 . S
H13 C7 0.929 . S
C14 O5 1.246 1_655 S
C14 O6 1.258 1_655 S
O15 Mn0 2.162 1_655 S
O15 C3 1.281 . S
O16 Mn0 2.297 1_655 S
O16 C3 1.236 . S
N17 Mn1 2.282 . S
N17 C18 1.328 . S
N17 C22 1.318 . S
C18 N17 1.328 . S
C18 C19 1.457 . S
C18 H23 0.929 . S
C19 C18 1.457 . S
C19 C20 1.291 . S
C19 H32 0.931 . S
C20 C19 1.291 . S
C20 C21 1.373 . S
C20 H33 0.929 . S
C21 C20 1.373 . S
C21 C22 1.396 . S
C21 C28 1.403 . S
C22 C12 1.476 . S
C22 N17 1.318 . S
C22 C21 1.396 . S
H23 C18 0.929 . S
O24 Mn0 2.385 . S
O24 C2 1.234 . S
O25 Mn0 2.209 . S
O25 Mn1 2.215 . S
O25 C2 1.283 . S
O26 Mn0 2.094 . S
O26 C4 1.240 . S
O27 Mn1 2.117 . S
O27 C4 1.264 . S
C28 C21 1.403 . S
C28 C29 1.399 . S
C28 H34 0.929 . S
C29 C9 1.449 . S
C29 C28 1.399 . S
C29 H35 0.930 . S
H30 C10 0.931 . S
H31 C11 0.930 . S
H32 C19 0.931 . S
H33 C20 0.929 . S
H34 C28 0.929 . S
H35 C29 0.930 . S
Mn36 O41 2.095 . S
Mn36 O51 2.162 . S
Mn36 O52 2.297 . S
Mn36 O60 2.385 . S
Mn36 O61 2.209 1_455 S
Mn36 O62 2.094 . S
Mn37 O42 2.121 . S
Mn37 N44 2.257 . S
Mn37 N53 2.282 . S
Mn37 O61 2.215 . S
Mn37 O63 2.117 1_655 S
C38 O60 1.234 1_655 S
C38 O61 1.283 . S
C39 O51 1.281 . S
C39 O52 1.236 . S
C40 O62 1.240 . S
C40 O63 1.264 . S
O41 Mn36 2.095 . S
O41 C50 1.250 1_455 S
O42 Mn37 2.121 . S
O42 C50 1.258 . S
C43 N44 1.326 . S
C43 C47 1.460 . S
C43 H49 0.929 . S
N44 Mn37 2.257 . S
N44 C43 1.326 . S
N44 C48 1.362 . S
C45 C46 1.258 . S
C45 C48 1.431 . S
C45 C65 1.449 . S
C46 C45 1.258 . S
C46 C47 1.477 . S
C46 H66 0.931 . S
C47 C43 1.460 . S
C47 C46 1.477 . S
C47 H67 0.930 . S
C48 N44 1.362 . S
C48 C45 1.431 . S
C48 C58 1.476 . S
H49 C43 0.929 . S
C50 O41 1.250 1_655 S
C50 O42 1.258 . S
O51 Mn36 2.162 . S
O51 C39 1.281 . S
O52 Mn36 2.297 . S
O52 C39 1.236 . S
N53 Mn37 2.282 . S
N53 C54 1.328 . S
N53 C58 1.318 . S
C54 N53 1.328 . S
C54 C55 1.457 . S
C54 H59 0.929 . S
C55 C54 1.457 . S
C55 C56 1.291 . S
C55 H68 0.931 . S
C56 C55 1.291 . S
C56 C57 1.373 . S
C56 H69 0.929 . S
C57 C56 1.373 . S
C57 C58 1.396 . S
C57 C64 1.403 . S
C58 C48 1.476 . S
C58 N53 1.318 . S
C58 C57 1.396 . S
H59 C54 0.929 . S
O60 Mn36 2.385 . S
O60 C38 1.234 1_455 S
O61 Mn36 2.209 1_655 S
O61 Mn37 2.215 . S
O61 C38 1.283 . S
O62 Mn36 2.094 . S
O62 C40 1.240 . S
O63 Mn37 2.117 1_455 S
O63 C40 1.264 . S
C64 C57 1.403 . S
C64 C65 1.399 . S
C64 H70 0.929 . S
C65 C45 1.449 . S
C65 C64 1.399 . S
C65 H71 0.930 . S
H66 C46 0.931 . S
H67 C47 0.930 . S
H68 C55 0.931 . S
H69 C56 0.929 . S
H70 C64 0.929 . S
H71 C65 0.930 . S
Mn72 O77 2.095 . S
Mn72 O87 2.162 . S
Mn72 O88 2.297 . S
Mn72 O96 2.385 . S
Mn72 O97 2.209 . S
Mn72 O98 2.094 . S
Mn73 O78 2.121 . S
Mn73 N80 2.257 . S
Mn73 N89 2.282 . S
Mn73 O97 2.215 . S
Mn73 O99 2.117 . S
C74 O96 1.234 . S
C74 O97 1.283 . S
C75 O87 1.281 . S
C75 O88 1.236 . S
C76 O98 1.240 . S
C76 O99 1.264 . S
O77 Mn72 2.095 . S
O77 C86 1.250 . S
O78 Mn73 2.121 . S
O78 C86 1.258 . S
C79 N80 1.326 . S
C79 C83 1.460 . S
C79 H85 0.929 . S
N80 Mn73 2.257 . S
N80 C79 1.326 . S
N80 C84 1.362 . S
C81 C82 1.258 . S
C81 C84 1.431 . S
C81 C101 1.449 . S
C82 C81 1.258 . S
C82 C83 1.477 . S
C82 H102 0.931 . S
C83 C79 1.460 . S
C83 C82 1.477 . S
C83 H103 0.930 . S
C84 N80 1.362 . S
C84 C81 1.431 . S
C84 C94 1.476 . S
H85 C79 0.929 . S
C86 O77 1.250 . S
C86 O78 1.258 . S
O87 Mn72 2.162 . S
O87 C75 1.281 . S
O88 Mn72 2.297 . S
O88 C75 1.236 . S
N89 Mn73 2.282 . S
N89 C90 1.328 . S
N89 C94 1.318 . S
C90 N89 1.328 . S
C90 C91 1.457 . S
C90 H95 0.929 . S
C91 C90 1.457 . S
C91 C92 1.291 . S
C91 H104 0.931 . S
C92 C91 1.291 . S
C92 C93 1.373 . S
C92 H105 0.929 . S
C93 C92 1.373 . S
C93 C94 1.396 . S
C93 C100 1.403 . S
C94 C84 1.476 . S
C94 N89 1.318 . S
C94 C93 1.396 . S
H95 C90 0.929 . S
O96 Mn72 2.385 . S
O96 C74 1.234 . S
O97 Mn72 2.209 . S
O97 Mn73 2.215 . S
O97 C74 1.283 . S
O98 Mn72 2.094 . S
O98 C76 1.240 . S
O99 Mn73 2.117 . S
O99 C76 1.264 . S
C100 C93 1.403 . S
C100 C101 1.399 . S
C100 H106 0.929 . S
C101 C81 1.449 . S
C101 C100 1.399 . S
C101 H107 0.930 . S
H102 C82 0.931 . S
H103 C83 0.930 . S
H104 C91 0.931 . S
H105 C92 0.929 . S
H106 C100 0.929 . S
H107 C101 0.930 . S
Mn108 O113 2.095 . S
Mn108 O123 2.162 . S
Mn108 O124 2.297 . S
Mn108 O132 2.385 . S
Mn108 O133 2.209 . S
Mn108 O134 2.094 . S
Mn109 O114 2.121 . S
Mn109 N116 2.257 . S
Mn109 N125 2.282 . S
Mn109 O133 2.215 . S
Mn109 O135 2.117 . S
C110 O132 1.234 . S
C110 O133 1.283 . S
C111 O123 1.281 . S
C111 O124 1.236 . S
C112 O134 1.240 . S
C112 O135 1.264 . S
O113 Mn108 2.095 . S
O113 C122 1.250 . S
O114 Mn109 2.121 . S
O114 C122 1.258 . S
C115 N116 1.326 . S
C115 C119 1.460 . S
C115 H121 0.929 . S
N116 Mn109 2.257 . S
N116 C115 1.326 . S
N116 C120 1.362 . S
C117 C118 1.258 . S
C117 C120 1.431 . S
C117 C137 1.449 . S
C118 C117 1.258 . S
C118 C119 1.477 . S
C118 H138 0.931 . S
C119 C115 1.460 . S
C119 C118 1.477 . S
C119 H139 0.930 . S
C120 N116 1.362 . S
C120 C117 1.431 . S
C120 C130 1.476 . S
H121 C115 0.929 . S
C122 O113 1.250 . S
C122 O114 1.258 . S
O123 Mn108 2.162 . S
O123 C111 1.281 . S
O124 Mn108 2.297 . S
O124 C111 1.236 . S
N125 Mn109 2.282 . S
N125 C126 1.328 . S
N125 C130 1.318 . S
C126 N125 1.328 . S
C126 C127 1.457 . S
C126 H131 0.929 . S
C127 C126 1.457 . S
C127 C128 1.291 . S
C127 H140 0.931 . S
C128 C127 1.291 . S
C128 C129 1.373 . S
C128 H141 0.929 . S
C129 C128 1.373 . S
C129 C130 1.396 . S
C129 C136 1.403 . S
C130 C120 1.476 . S
C130 N125 1.318 . S
C130 C129 1.396 . S
H131 C126 0.929 . S
O132 Mn108 2.385 . S
O132 C110 1.234 . S
O133 Mn108 2.209 . S
O133 Mn109 2.215 . S
O133 C110 1.283 . S
O134 Mn108 2.094 . S
O134 C112 1.240 . S
O135 Mn109 2.117 . S
O135 C112 1.264 . S
C136 C129 1.403 . S
C136 C137 1.399 . S
C136 H142 0.929 . S
C137 C117 1.449 . S
C137 C136 1.399 . S
C137 H143 0.930 . S
H138 C118 0.931 . S
H139 C119 0.930 . S
H140 C127 0.931 . S
H141 C128 0.929 . S
H142 C136 0.929 . S
H143 C137 0.930 . S
Mn144 O149 2.095 . S
Mn144 O159 2.162 . S
Mn144 O160 2.297 . S
Mn144 O168 2.385 1_655 S
Mn144 O169 2.209 1_655 S
Mn144 O170 2.094 1_655 S
Mn145 O150 2.121 1_455 S
Mn145 N152 2.257 . S
Mn145 N161 2.282 . S
Mn145 O169 2.215 . S
Mn145 O171 2.117 . S
C146 O168 1.234 . S
C146 O169 1.283 . S
C147 O159 1.281 . S
C147 O160 1.236 . S
C148 O170 1.240 . S
C148 O171 1.264 . S
O149 Mn144 2.095 . S
O149 C158 1.250 . S
O150 Mn145 2.121 1_655 S
O150 C158 1.258 . S
C151 N152 1.326 . S
C151 C155 1.460 . S
C151 H157 0.929 . S
N152 Mn145 2.257 . S
N152 C151 1.326 . S
N152 C156 1.362 . S
C153 C154 1.258 . S
C153 C156 1.431 . S
C153 C173 1.449 . S
C154 C153 1.258 . S
C154 C155 1.477 . S
C154 H174 0.931 . S
C155 C151 1.460 . S
C155 C154 1.477 . S
C155 H175 0.930 . S
C156 N152 1.362 . S
C156 C153 1.431 . S
C156 C166 1.476 . S
H157 C151 0.929 . S
C158 O149 1.250 . S
C158 O150 1.258 . S
O159 Mn144 2.162 . S
O159 C147 1.281 . S
O160 Mn144 2.297 . S
O160 C147 1.236 . S
N161 Mn145 2.282 . S
N161 C162 1.328 . S
N161 C166 1.318 . S
C162 N161 1.328 . S
C162 C163 1.457 . S
C162 H167 0.929 . S
C163 C162 1.457 . S
C163 C164 1.291 . S
C163 H176 0.931 . S
C164 C163 1.291 . S
C164 C165 1.373 . S
C164 H177 0.929 . S
C165 C164 1.373 . S
C165 C166 1.396 . S
C165 C172 1.403 . S
C166 C156 1.476 . S
C166 N161 1.318 . S
C166 C165 1.396 . S
H167 C162 0.929 . S
O168 Mn144 2.385 1_455 S
O168 C146 1.234 . S
O169 Mn144 2.209 1_455 S
O169 Mn145 2.215 . S
O169 C146 1.283 . S
O170 Mn144 2.094 1_455 S
O170 C148 1.240 . S
O171 Mn145 2.117 . S
O171 C148 1.264 . S
C172 C165 1.403 . S
C172 C173 1.399 . S
C172 H178 0.929 . S
C173 C153 1.449 . S
C173 C172 1.399 . S
C173 H179 0.930 . S
H174 C154 0.931 . S
H175 C155 0.930 . S
H176 C163 0.931 . S
H177 C164 0.929 . S
H178 C172 0.929 . S
H179 C173 0.930 . S
Mn180 O185 2.095 . S
Mn180 O195 2.162 . S
Mn180 O196 2.297 . S
Mn180 O204 2.385 . S
Mn180 O205 2.209 . S
Mn180 O206 2.094 . S
Mn181 O186 2.121 . S
Mn181 N188 2.257 . S
Mn181 N197 2.282 . S
Mn181 O205 2.215 . S
Mn181 O207 2.117 . S
C182 O204 1.234 . S
C182 O205 1.283 . S
C183 O195 1.281 . S
C183 O196 1.236 . S
C184 O206 1.240 . S
C184 O207 1.264 . S
O185 Mn180 2.095 . S
O185 C194 1.250 . S
O186 Mn181 2.121 . S
O186 C194 1.258 . S
C187 N188 1.326 . S
C187 C191 1.460 . S
C187 H193 0.929 . S
N188 Mn181 2.257 . S
N188 C187 1.326 . S
N188 C192 1.362 . S
C189 C190 1.258 . S
C189 C192 1.431 . S
C189 C209 1.449 . S
C190 C189 1.258 . S
C190 C191 1.477 . S
C190 H210 0.931 . S
C191 C187 1.460 . S
C191 C190 1.477 . S
C191 H211 0.930 . S
C192 N188 1.362 . S
C192 C189 1.431 . S
C192 C202 1.476 . S
H193 C187 0.929 . S
C194 O185 1.250 . S
C194 O186 1.258 . S
O195 Mn180 2.162 . S
O195 C183 1.281 . S
O196 Mn180 2.297 . S
O196 C183 1.236 . S
N197 Mn181 2.282 . S
N197 C198 1.328 . S
N197 C202 1.318 . S
C198 N197 1.328 . S
C198 C199 1.457 . S
C198 H203 0.929 . S
C199 C198 1.457 . S
C199 C200 1.291 . S
C199 H212 0.931 . S
C200 C199 1.291 . S
C200 C201 1.373 . S
C200 H213 0.929 . S
C201 C200 1.373 . S
C201 C202 1.396 . S
C201 C208 1.403 . S
C202 C192 1.476 . S
C202 N197 1.318 . S
C202 C201 1.396 . S
H203 C198 0.929 . S
O204 Mn180 2.385 . S
O204 C182 1.234 . S
O205 Mn180 2.209 . S
O205 Mn181 2.215 . S
O205 C182 1.283 . S
O206 Mn180 2.094 . S
O206 C184 1.240 . S
O207 Mn181 2.117 . S
O207 C184 1.264 . S
C208 C201 1.403 . S
C208 C209 1.399 . S
C208 H214 0.929 . S
C209 C189 1.449 . S
C209 C208 1.399 . S
C209 H215 0.930 . S
H210 C190 0.931 . S
H211 C191 0.930 . S
H212 C199 0.931 . S
H213 C200 0.929 . S
H214 C208 0.929 . S
H215 C209 0.930 . S
Mn216 O221 2.095 . S
Mn216 O231 2.162 . S
Mn216 O232 2.297 . S
Mn216 O240 2.385 . S
Mn216 O241 2.209 . S
Mn216 O242 2.094 . S
Mn217 O222 2.121 . S
Mn217 N224 2.257 . S
Mn217 N233 2.282 . S
Mn217 O241 2.215 . S
Mn217 O243 2.117 . S
C218 O240 1.234 . S
C218 O241 1.283 . S
C219 O231 1.281 . S
C219 O232 1.236 . S
C220 O242 1.240 . S
C220 O243 1.264 . S
O221 Mn216 2.095 . S
O221 C230 1.250 . S
O222 Mn217 2.121 . S
O222 C230 1.258 . S
C223 N224 1.326 . S
C223 C227 1.460 . S
C223 H229 0.929 . S
N224 Mn217 2.257 . S
N224 C223 1.326 . S
N224 C228 1.362 . S
C225 C226 1.258 . S
C225 C228 1.431 . S
C225 C245 1.449 . S
C226 C225 1.258 . S
C226 C227 1.477 . S
C226 H246 0.931 . S
C227 C223 1.460 . S
C227 C226 1.477 . S
C227 H247 0.930 . S
C228 N224 1.362 . S
C228 C225 1.431 . S
C228 C238 1.476 . S
H229 C223 0.929 . S
C230 O221 1.250 . S
C230 O222 1.258 . S
O231 Mn216 2.162 . S
O231 C219 1.281 . S
O232 Mn216 2.297 . S
O232 C219 1.236 . S
N233 Mn217 2.282 . S
N233 C234 1.328 . S
N233 C238 1.318 . S
C234 N233 1.328 . S
C234 C235 1.457 . S
C234 H239 0.929 . S
C235 C234 1.457 . S
C235 C236 1.291 . S
C235 H248 0.931 . S
C236 C235 1.291 . S
C236 C237 1.373 . S
C236 H249 0.929 . S
C237 C236 1.373 . S
C237 C238 1.396 . S
C237 C244 1.403 . S
C238 C228 1.476 . S
C238 N233 1.318 . S
C238 C237 1.396 . S
H239 C234 0.929 . S
O240 Mn216 2.385 . S
O240 C218 1.234 . S
O241 Mn216 2.209 . S
O241 Mn217 2.215 . S
O241 C218 1.283 . S
O242 Mn216 2.094 . S
O242 C220 1.240 . S
O243 Mn217 2.117 . S
O243 C220 1.264 . S
C244 C237 1.403 . S
C244 C245 1.399 . S
C244 H250 0.929 . S
C245 C225 1.449 . S
C245 C244 1.399 . S
C245 H251 0.930 . S
H246 C226 0.931 . S
H247 C227 0.930 . S
H248 C235 0.931 . S
H249 C236 0.929 . S
H250 C244 0.929 . S
H251 C245 0.930 . S
Mn252 O257 2.095 . S
Mn252 O267 2.162 . S
Mn252 O268 2.297 . S
Mn252 O276 2.385 . S
Mn252 O277 2.209 . S
Mn252 O278 2.094 . S
Mn253 O258 2.121 . S
Mn253 N260 2.257 . S
Mn253 N269 2.282 . S
Mn253 O277 2.215 1_655 S
Mn253 O279 2.117 1_655 S
C254 O276 1.234 . S
C254 O277 1.283 . S
C255 O267 1.281 . S
C255 O268 1.236 . S
C256 O278 1.240 . S
C256 O279 1.264 . S
O257 Mn252 2.095 . S
O257 C266 1.250 . S
O258 Mn253 2.121 . S
O258 C266 1.258 1_655 S
C259 N260 1.326 . S
C259 C263 1.460 . S
C259 H265 0.929 . S
N260 Mn253 2.257 . S
N260 C259 1.326 . S
N260 C264 1.362 . S
C261 C262 1.258 . S
C261 C264 1.431 . S
C261 C281 1.449 . S
C262 C261 1.258 . S
C262 C263 1.477 . S
C262 H282 0.931 . S
C263 C259 1.460 . S
C263 C262 1.477 . S
C263 H283 0.930 . S
C264 N260 1.362 . S
C264 C261 1.431 . S
C264 C274 1.476 . S
H265 C259 0.929 . S
C266 O257 1.250 . S
C266 O258 1.258 1_455 S
O267 Mn252 2.162 . S
O267 C255 1.281 . S
O268 Mn252 2.297 . S
O268 C255 1.236 . S
N269 Mn253 2.282 . S
N269 C270 1.328 1_655 S
N269 C274 1.318 . S
C270 N269 1.328 1_455 S
C270 C271 1.457 1_455 S
C270 H275 0.929 . S
C271 C270 1.457 1_655 S
C271 C272 1.291 . S
C271 H284 0.931 1_655 S
C272 C271 1.291 . S
C272 C273 1.373 . S
C272 H285 0.929 . S
C273 C272 1.373 . S
C273 C274 1.396 . S
C273 C280 1.403 . S
C274 C264 1.476 . S
C274 N269 1.318 . S
C274 C273 1.396 . S
H275 C270 0.929 . S
O276 Mn252 2.385 . S
O276 C254 1.234 . S
O277 Mn252 2.209 . S
O277 Mn253 2.215 1_455 S
O277 C254 1.283 . S
O278 Mn252 2.094 . S
O278 C256 1.240 . S
O279 Mn253 2.117 1_455 S
O279 C256 1.264 . S
C280 C273 1.403 . S
C280 C281 1.399 . S
C280 H286 0.929 . S
C281 C261 1.449 . S
C281 C280 1.399 . S
C281 H287 0.930 . S
H282 C262 0.931 . S
H283 C263 0.930 . S
H284 C271 0.931 1_455 S
H285 C272 0.929 . S
H286 C280 0.929 . S
H287 C281 0.930 . S
Mn288 O293 2.104 . S
Mn288 O303 2.171 . S
Mn288 O304 2.311 . S
Mn288 O312 2.373 1_565 S
Mn288 O313 2.201 1_565 S
Mn288 O314 2.082 1_565 S
Mn289 O294 2.121 1_545 S
Mn289 N296 2.257 . S
Mn289 N305 2.282 . S
Mn289 O313 2.215 . S
Mn289 O315 2.117 . S
C290 O312 1.234 . S
C290 O313 1.283 . S
C291 O303 1.281 . S
C291 O304 1.236 . S
C292 O314 1.240 . S
C292 O315 1.264 . S
O293 Mn288 2.104 . S
O293 C302 1.250 . S
O294 Mn289 2.121 1_565 S
O294 C302 1.258 . S
C295 N296 1.326 . S
C295 C299 1.460 . S
C295 H301 0.895 1_545 S
N296 Mn289 2.257 . S
N296 C295 1.326 . S
N296 C300 1.362 . S
C297 C298 1.258 . S
C297 C300 1.431 . S
C297 C317 1.449 . S
C298 C297 1.258 . S
C298 C299 1.477 . S
C298 H318 0.931 . S
C299 C295 1.460 . S
C299 C298 1.477 . S
C299 H319 0.930 . S
C300 N296 1.362 . S
C300 C297 1.431 . S
C300 C310 1.476 . S
H301 C295 0.895 1_565 S
C302 O293 1.250 . S
C302 O294 1.258 . S
O303 Mn288 2.171 . S
O303 C291 1.281 . S
O304 Mn288 2.311 . S
O304 C291 1.236 . S
N305 Mn289 2.282 . S
N305 C306 1.328 . S
N305 C310 1.318 . S
C306 N305 1.328 . S
C306 C307 1.457 . S
C306 H311 0.929 . S
C307 C306 1.457 . S
C307 C308 1.291 . S
C307 H320 0.931 . S
C308 C307 1.291 . S
C308 C309 1.373 . S
C308 H321 0.929 . S
C309 C308 1.373 . S
C309 C310 1.396 . S
C309 C316 1.403 . S
C310 C300 1.476 . S
C310 N305 1.318 . S
C310 C309 1.396 . S
H311 C306 0.929 . S
O312 Mn288 2.373 1_545 S
O312 C290 1.234 . S
O313 Mn288 2.201 1_545 S
O313 Mn289 2.215 . S
O313 C290 1.283 . S
O314 Mn288 2.082 1_545 S
O314 C292 1.240 . S
O315 Mn289 2.117 . S
O315 C292 1.264 . S
C316 C309 1.403 . S
C316 C317 1.399 . S
C316 H322 0.929 . S
C317 C297 1.449 . S
C317 C316 1.399 . S
C317 H323 0.930 . S
H318 C298 0.931 . S
H319 C299 0.930 . S
H320 C307 0.931 . S
H321 C308 0.929 . S
H322 C316 0.929 . S
H323 C317 0.930 . S
Mn324 O329 2.095 . S
Mn324 O339 2.162 . S
Mn324 O340 2.297 . S
Mn324 O348 2.385 . S
Mn324 O349 2.209 . S
Mn324 O350 2.094 . S
Mn325 O330 2.121 . S
Mn325 N332 2.257 . S
Mn325 N341 2.282 . S
Mn325 O349 2.215 . S
Mn325 O351 2.117 . S
C326 O348 1.234 . S
C326 O349 1.283 . S
C327 O339 1.281 . S
C327 O340 1.236 . S
C328 O350 1.240 . S
C328 O351 1.264 . S
O329 Mn324 2.095 . S
O329 C338 1.250 . S
O330 Mn325 2.121 . S
O330 C338 1.258 . S
C331 N332 1.326 . S
C331 C335 1.460 . S
C331 H337 0.929 . S
N332 Mn325 2.257 . S
N332 C331 1.326 . S
N332 C336 1.362 . S
C333 C334 1.258 . S
C333 C336 1.431 . S
C333 C353 1.449 . S
C334 C333 1.258 . S
C334 C335 1.477 . S
C334 H354 0.931 . S
C335 C331 1.460 . S
C335 C334 1.477 . S
C335 H355 0.930 . S
C336 N332 1.362 . S
C336 C333 1.431 . S
C336 C346 1.476 . S
H337 C331 0.929 . S
C338 O329 1.250 . S
C338 O330 1.258 . S
O339 Mn324 2.162 . S
O339 C327 1.281 . S
O340 Mn324 2.297 . S
O340 C327 1.236 . S
N341 Mn325 2.282 . S
N341 C342 1.328 . S
N341 C346 1.318 . S
C342 N341 1.328 . S
C342 C343 1.457 . S
C342 H347 0.929 . S
C343 C342 1.457 . S
C343 C344 1.291 . S
C343 H356 0.931 . S
C344 C343 1.291 . S
C344 C345 1.373 . S
C344 H357 0.929 . S
C345 C344 1.373 . S
C345 C346 1.396 . S
C345 C352 1.403 . S
C346 C336 1.476 . S
C346 N341 1.318 . S
C346 C345 1.396 . S
H347 C342 0.929 . S
O348 Mn324 2.385 . S
O348 C326 1.234 . S
O349 Mn324 2.209 . S
O349 Mn325 2.215 . S
O349 C326 1.283 . S
O350 Mn324 2.094 . S
O350 C328 1.240 . S
O351 Mn325 2.117 . S
O351 C328 1.264 . S
C352 C345 1.403 . S
C352 C353 1.399 . S
C352 H358 0.929 . S
C353 C333 1.449 . S
C353 C352 1.399 . S
C353 H359 0.930 . S
H354 C334 0.931 . S
H355 C335 0.930 . S
H356 C343 0.931 . S
H357 C344 0.929 . S
H358 C352 0.929 . S
H359 C353 0.930 . S
Mn360 O365 2.095 . S
Mn360 O375 2.162 . S
Mn360 O376 2.297 . S
Mn360 O384 2.385 . S
Mn360 O385 2.209 . S
Mn360 O386 2.094 . S
Mn361 O366 2.121 . S
Mn361 N368 2.257 . S
Mn361 N377 2.282 . S
Mn361 O385 2.215 . S
Mn361 O387 2.117 . S
C362 O384 1.234 . S
C362 O385 1.283 . S
C363 O375 1.281 . S
C363 O376 1.236 . S
C364 O386 1.240 . S
C364 O387 1.264 . S
O365 Mn360 2.095 . S
O365 C374 1.250 . S
O366 Mn361 2.121 . S
O366 C374 1.258 . S
C367 N368 1.326 . S
C367 C371 1.460 . S
C367 H373 0.929 . S
N368 Mn361 2.257 . S
N368 C367 1.326 . S
N368 C372 1.362 . S
C369 C370 1.258 . S
C369 C372 1.431 . S
C369 C389 1.449 . S
C370 C369 1.258 . S
C370 C371 1.477 . S
C370 H390 0.931 . S
C371 C367 1.460 . S
C371 C370 1.477 . S
C371 H391 0.930 . S
C372 N368 1.362 . S
C372 C369 1.431 . S
C372 C382 1.476 . S
H373 C367 0.929 . S
C374 O365 1.250 . S
C374 O366 1.258 . S
O375 Mn360 2.162 . S
O375 C363 1.281 . S
O376 Mn360 2.297 . S
O376 C363 1.236 . S
N377 Mn361 2.282 . S
N377 C378 1.328 . S
N377 C382 1.318 . S
C378 N377 1.328 . S
C378 C379 1.457 . S
C378 H383 0.929 . S
C379 C378 1.457 . S
C379 C380 1.291 . S
C379 H392 0.931 . S
C380 C379 1.291 . S
C380 C381 1.373 . S
C380 H393 0.929 . S
C381 C380 1.373 . S
C381 C382 1.396 . S
C381 C388 1.403 . S
C382 C372 1.476 . S
C382 N377 1.318 . S
C382 C381 1.396 . S
H383 C378 0.929 . S
O384 Mn360 2.385 . S
O384 C362 1.234 . S
O385 Mn360 2.209 . S
O385 Mn361 2.215 . S
O385 C362 1.283 . S
O386 Mn360 2.094 . S
O386 C364 1.240 . S
O387 Mn361 2.117 . S
O387 C364 1.264 . S
C388 C381 1.403 . S
C388 C389 1.399 . S
C388 H394 0.929 . S
C389 C369 1.449 . S
C389 C388 1.399 . S
C389 H395 0.930 . S
H390 C370 0.931 . S
H391 C371 0.930 . S
H392 C379 0.931 . S
H393 C380 0.929 . S
H394 C388 0.929 . S
H395 C389 0.930 . S
Mn396 O401 2.095 . S
Mn396 O411 2.162 . S
Mn396 O412 2.297 . S
Mn396 O420 2.385 . S
Mn396 O421 2.190 1_554 S
Mn396 O422 2.094 . S
Mn397 O402 2.121 . S
Mn397 N404 2.257 . S
Mn397 N413 2.282 . S
Mn397 O421 2.222 . S
Mn397 O423 2.117 1_556 S
C398 O420 1.234 . S
C398 O421 1.275 1_554 S
C399 O411 1.281 . S
C399 O412 1.236 . S
C400 O422 1.240 . S
C400 O423 1.264 . S
O401 Mn396 2.095 . S
O401 C410 1.248 1_554 S
O402 Mn397 2.121 . S
O402 C410 1.260 . S
C403 N404 1.326 . S
C403 C407 1.460 . S
C403 H409 0.929 . S
N404 Mn397 2.257 . S
N404 C403 1.326 . S
N404 C408 1.362 . S
C405 C406 1.258 . S
C405 C408 1.431 . S
C405 C425 1.449 . S
C406 C405 1.258 . S
C406 C407 1.477 . S
C406 H426 0.931 . S
C407 C403 1.460 . S
C407 C406 1.477 . S
C407 H427 0.930 . S
C408 N404 1.362 . S
C408 C405 1.431 . S
C408 C418 1.476 . S
H409 C403 0.929 . S
C410 O401 1.248 1_556 S
C410 O402 1.260 . S
O411 Mn396 2.162 . S
O411 C399 1.281 . S
O412 Mn396 2.297 . S
O412 C399 1.236 . S
N413 Mn397 2.282 . S
N413 C414 1.297 1_556 S
N413 C418 1.318 . S
C414 N413 1.297 1_554 S
C414 C415 1.450 1_554 S
C414 H419 0.967 . S
C415 C414 1.450 1_556 S
C415 C416 1.291 . S
C415 H428 0.931 1_556 S
C416 C415 1.291 . S
C416 C417 1.373 . S
C416 H429 0.929 . S
C417 C416 1.373 . S
C417 C418 1.396 . S
C417 C424 1.403 . S
C418 C408 1.476 . S
C418 N413 1.318 . S
C418 C417 1.396 . S
H419 C414 0.967 . S
O420 Mn396 2.385 . S
O420 C398 1.234 . S
O421 Mn396 2.190 1_556 S
O421 Mn397 2.222 . S
O421 C398 1.275 1_556 S
O422 Mn396 2.094 . S
O422 C400 1.240 . S
O423 Mn397 2.117 1_554 S
O423 C400 1.264 . S
C424 C417 1.403 . S
C424 C425 1.399 . S
C424 H430 0.929 . S
C425 C405 1.449 . S
C425 C424 1.399 . S
C425 H431 0.930 . S
H426 C406 0.931 . S
H427 C407 0.930 . S
H428 C415 0.931 1_554 S
H429 C416 0.929 . S
H430 C424 0.929 . S
H431 C425 0.930 . S
Mn432 O437 2.095 1_554 S
Mn432 O447 2.162 1_554 S
Mn432 O448 2.297 1_554 S
Mn432 O456 2.385 . S
Mn432 O457 2.209 . S
Mn432 O458 2.094 . S
Mn433 O438 2.119 1_554 S
Mn433 N440 2.257 . S
Mn433 N449 2.282 . S
Mn433 O457 2.215 . S
Mn433 O459 2.117 . S
C434 O456 1.234 . S
C434 O457 1.283 . S
C435 O447 1.281 . S
C435 O448 1.236 . S
C436 O458 1.240 . S
C436 O459 1.264 . S
O437 Mn432 2.095 1_556 S
O437 C446 1.250 . S
O438 Mn433 2.119 1_556 S
O438 C446 1.260 . S
C439 N440 1.326 . S
C439 C443 1.460 . S
C439 H445 0.929 . S
N440 Mn433 2.257 . S
N440 C439 1.326 . S
N440 C444 1.362 . S
C441 C442 1.258 . S
C441 C444 1.431 . S
C441 C461 1.449 . S
C442 C441 1.258 . S
C442 C443 1.477 . S
C442 H462 0.931 . S
C443 C439 1.460 . S
C443 C442 1.477 . S
C443 H463 0.930 . S
C444 N440 1.362 . S
C444 C441 1.431 . S
C444 C454 1.476 . S
H445 C439 0.929 . S
C446 O437 1.250 . S
C446 O438 1.260 . S
O447 Mn432 2.162 1_556 S
O447 C435 1.281 . S
O448 Mn432 2.297 1_556 S
O448 C435 1.236 . S
N449 Mn433 2.282 . S
N449 C450 1.328 . S
N449 C454 1.318 . S
C450 N449 1.328 . S
C450 C451 1.457 . S
C450 H455 0.929 . S
C451 C450 1.457 . S
C451 C452 1.291 . S
C451 H464 0.931 . S
C452 C451 1.291 . S
C452 C453 1.373 . S
C452 H465 0.929 . S
C453 C452 1.373 . S
C453 C454 1.396 . S
C453 C460 1.403 . S
C454 C444 1.476 . S
C454 N449 1.318 . S
C454 C453 1.396 . S
H455 C450 0.929 . S
O456 Mn432 2.385 . S
O456 C434 1.234 . S
O457 Mn432 2.209 . S
O457 Mn433 2.215 . S
O457 C434 1.283 . S
O458 Mn432 2.094 . S
O458 C436 1.240 . S
O459 Mn433 2.117 . S
O459 C436 1.264 . S
C460 C453 1.403 . S
C460 C461 1.399 . S
C460 H466 0.929 . S
C461 C441 1.449 . S
C461 C460 1.399 . S
C461 H467 0.930 . S
H462 C442 0.931 . S
H463 C443 0.930 . S
H464 C451 0.931 . S
H465 C452 0.929 . S
H466 C460 0.929 . S
H467 C461 0.930 . S
Mn468 O473 2.093 . S
Mn468 O483 2.159 . S
Mn468 O484 2.294 . S
Mn468 O492 2.388 1_556 S
Mn468 O493 2.210 1_556 S
Mn468 O494 2.096 1_556 S
Mn469 O474 2.121 1_554 S
Mn469 N476 2.257 . S
Mn469 N485 2.282 . S
Mn469 O493 2.215 . S
Mn469 O495 2.117 . S
C470 O492 1.234 . S
C470 O493 1.283 . S
C471 O483 1.281 . S
C471 O484 1.236 . S
C472 O494 1.240 . S
C472 O495 1.264 . S
O473 Mn468 2.093 . S
O473 C482 1.250 . S
O474 Mn469 2.121 1_556 S
O474 C482 1.258 . S
C475 N476 1.326 . S
C475 C479 1.460 . S
C475 H481 0.929 1_554 S
N476 Mn469 2.257 . S
N476 C475 1.326 . S
N476 C480 1.362 . S
C477 C478 1.258 . S
C477 C480 1.431 . S
C477 C497 1.449 . S
C478 C477 1.258 . S
C478 C479 1.477 . S
C478 H498 0.931 . S
C479 C475 1.460 . S
C479 C478 1.477 . S
C479 H499 0.930 . S
C480 N476 1.362 . S
C480 C477 1.431 . S
C480 C490 1.476 . S
H481 C475 0.929 1_556 S
C482 O473 1.250 . S
C482 O474 1.258 . S
O483 Mn468 2.159 . S
O483 C471 1.281 . S
O484 Mn468 2.294 . S
O484 C471 1.236 . S
N485 Mn469 2.282 . S
N485 C486 1.328 . S
N485 C490 1.318 . S
C486 N485 1.328 . S
C486 C487 1.457 . S
C486 H491 0.929 . S
C487 C486 1.457 . S
C487 C488 1.291 . S
C487 H500 0.931 . S
C488 C487 1.291 . S
C488 C489 1.373 . S
C488 H501 0.929 . S
C489 C488 1.373 . S
C489 C490 1.396 . S
C489 C496 1.403 . S
C490 C480 1.476 . S
C490 N485 1.318 . S
C490 C489 1.396 . S
H491 C486 0.929 . S
O492 Mn468 2.388 1_554 S
O492 C470 1.234 . S
O493 Mn468 2.210 1_554 S
O493 Mn469 2.215 . S
O493 C470 1.283 . S
O494 Mn468 2.096 1_554 S
O494 C472 1.240 . S
O495 Mn469 2.117 . S
O495 C472 1.264 . S
C496 C489 1.403 . S
C496 C497 1.399 . S
C496 H502 0.929 . S
C497 C477 1.449 . S
C497 C496 1.399 . S
C497 H503 0.930 . S
H498 C478 0.931 . S
H499 C479 0.930 . S
H500 C487 0.931 . S
H501 C488 0.929 . S
H502 C496 0.929 . S
H503 C497 0.930 . S
Mn504 O509 2.095 . S
Mn504 O519 2.162 . S
Mn504 O520 2.297 . S
Mn504 O528 2.385 . S
Mn504 O529 2.209 . S
Mn504 O530 2.094 . S
Mn505 O510 2.121 . S
Mn505 N512 2.257 . S
Mn505 N521 2.282 . S
Mn505 O529 2.215 . S
Mn505 O531 2.117 . S
C506 O528 1.234 . S
C506 O529 1.283 . S
C507 O519 1.281 . S
C507 O520 1.236 . S
C508 O530 1.240 . S
C508 O531 1.264 . S
O509 Mn504 2.095 . S
O509 C518 1.250 . S
O510 Mn505 2.121 . S
O510 C518 1.258 . S
C511 N512 1.326 . S
C511 C515 1.460 . S
C511 H517 0.929 . S
N512 Mn505 2.257 . S
N512 C511 1.326 . S
N512 C516 1.362 . S
C513 C514 1.258 . S
C513 C516 1.431 . S
C513 C533 1.449 . S
C514 C513 1.258 . S
C514 C515 1.477 . S
C514 H534 0.931 . S
C515 C511 1.460 . S
C515 C514 1.477 . S
C515 H535 0.930 . S
C516 N512 1.362 . S
C516 C513 1.431 . S
C516 C526 1.476 . S
H517 C511 0.929 . S
C518 O509 1.250 . S
C518 O510 1.258 . S
O519 Mn504 2.162 . S
O519 C507 1.281 . S
O520 Mn504 2.297 . S
O520 C507 1.236 . S
N521 Mn505 2.282 . S
N521 C522 1.328 . S
N521 C526 1.318 . S
C522 N521 1.328 . S
C522 C523 1.457 . S
C522 H527 0.929 . S
C523 C522 1.457 . S
C523 C524 1.291 . S
C523 H536 0.931 . S
C524 C523 1.291 . S
C524 C525 1.373 . S
C524 H537 0.929 . S
C525 C524 1.373 . S
C525 C526 1.396 . S
C525 C532 1.403 . S
C526 C516 1.476 . S
C526 N521 1.318 . S
C526 C525 1.396 . S
H527 C522 0.929 . S
O528 Mn504 2.385 . S
O528 C506 1.234 . S
O529 Mn504 2.209 . S
O529 Mn505 2.215 . S
O529 C506 1.283 . S
O530 Mn504 2.094 . S
O530 C508 1.240 . S
O531 Mn505 2.117 . S
O531 C508 1.264 . S
C532 C525 1.403 . S
C532 C533 1.399 . S
C532 H538 0.929 . S
C533 C513 1.449 . S
C533 C532 1.399 . S
C533 H539 0.930 . S
H534 C514 0.931 . S
H535 C515 0.930 . S
H536 C523 0.931 . S
H537 C524 0.929 . S
H538 C532 0.929 . S
H539 C533 0.930 . S
Mn540 O545 2.095 . S
Mn540 O555 2.162 . S
Mn540 O556 2.297 . S
Mn540 O564 2.385 . S
Mn540 O565 2.209 . S
Mn540 O566 2.094 . S
Mn541 O546 2.121 . S
Mn541 N548 2.257 . S
Mn541 N557 2.282 . S
Mn541 O565 2.215 . S
Mn541 O567 2.117 . S
C542 O564 1.234 . S
C542 O565 1.283 . S
C543 O555 1.281 . S
C543 O556 1.236 . S
C544 O566 1.240 . S
C544 O567 1.264 . S
O545 Mn540 2.095 . S
O545 C554 1.250 . S
O546 Mn541 2.121 . S
O546 C554 1.258 . S
C547 N548 1.326 . S
C547 C551 1.460 . S
C547 H553 0.929 . S
N548 Mn541 2.257 . S
N548 C547 1.326 . S
N548 C552 1.362 . S
C549 C550 1.258 . S
C549 C552 1.431 . S
C549 C569 1.449 . S
C550 C549 1.258 . S
C550 C551 1.477 . S
C550 H570 0.931 . S
C551 C547 1.460 . S
C551 C550 1.477 . S
C551 H571 0.930 . S
C552 N548 1.362 . S
C552 C549 1.431 . S
C552 C562 1.476 . S
H553 C547 0.929 . S
C554 O545 1.250 . S
C554 O546 1.258 . S
O555 Mn540 2.162 . S
O555 C543 1.281 . S
O556 Mn540 2.297 . S
O556 C543 1.236 . S
N557 Mn541 2.282 . S
N557 C558 1.328 . S
N557 C562 1.318 . S
C558 N557 1.328 . S
C558 C559 1.457 . S
C558 H563 0.929 . S
C559 C558 1.457 . S
C559 C560 1.291 . S
C559 H572 0.931 . S
C560 C559 1.291 . S
C560 C561 1.373 . S
C560 H573 0.929 . S
C561 C560 1.373 . S
C561 C562 1.396 . S
C561 C568 1.403 . S
C562 C552 1.476 . S
C562 N557 1.318 . S
C562 C561 1.396 . S
H563 C558 0.929 . S
O564 Mn540 2.385 . S
O564 C542 1.234 . S
O565 Mn540 2.209 . S
O565 Mn541 2.215 . S
O565 C542 1.283 . S
O566 Mn540 2.094 . S
O566 C544 1.240 . S
O567 Mn541 2.117 . S
O567 C544 1.264 . S
C568 C561 1.403 . S
C568 C569 1.399 . S
C568 H574 0.929 . S
C569 C549 1.449 . S
C569 C568 1.399 . S
C569 H575 0.930 . S
H570 C550 0.931 . S
H571 C551 0.930 . S
H572 C559 0.931 . S
H573 C560 0.929 . S
H574 C568 0.929 . S
H575 C569 0.930 . S
Mn576 O581 2.095 . S
Mn576 O591 2.162 . S
Mn576 O592 2.297 . S
Mn576 O600 2.385 . S
Mn576 O601 2.209 1_545 S
Mn576 O602 2.094 . S
Mn577 O582 2.121 . S
Mn577 N584 2.257 . S
Mn577 N593 2.282 . S
Mn577 O601 2.215 . S
Mn577 O603 2.117 1_565 S
C578 O600 1.234 1_565 S
C578 O601 1.283 . S
C579 O591 1.281 . S
C579 O592 1.236 . S
C580 O602 1.240 . S
C580 O603 1.264 . S
O581 Mn576 2.095 . S
O581 C590 1.250 1_545 S
O582 Mn577 2.121 . S
O582 C590 1.258 . S
C583 N584 1.326 . S
C583 C587 1.460 . S
C583 H589 0.929 . S
N584 Mn577 2.257 . S
N584 C583 1.326 . S
N584 C588 1.362 . S
C585 C586 1.258 . S
C585 C588 1.431 . S
C585 C605 1.449 . S
C586 C585 1.258 . S
C586 C587 1.477 . S
C586 H606 0.931 . S
C587 C583 1.460 . S
C587 C586 1.477 . S
C587 H607 0.930 . S
C588 N584 1.362 . S
C588 C585 1.431 . S
C588 C598 1.476 . S
H589 C583 0.929 . S
C590 O581 1.250 1_565 S
C590 O582 1.258 . S
O591 Mn576 2.162 . S
O591 C579 1.281 . S
O592 Mn576 2.297 . S
O592 C579 1.236 . S
N593 Mn577 2.282 . S
N593 C594 1.328 . S
N593 C598 1.318 . S
C594 N593 1.328 . S
C594 C595 1.457 . S
C594 H599 0.928 . S
C595 C594 1.457 . S
C595 C596 1.291 . S
C595 H608 0.931 . S
C596 C595 1.291 . S
C596 C597 1.373 . S
C596 H609 0.929 . S
C597 C596 1.373 . S
C597 C598 1.396 . S
C597 C604 1.403 . S
C598 C588 1.476 . S
C598 N593 1.318 . S
C598 C597 1.396 . S
H599 C594 0.928 . S
O600 Mn576 2.385 . S
O600 C578 1.234 1_545 S
O601 Mn576 2.209 1_565 S
O601 Mn577 2.215 . S
O601 C578 1.283 . S
O602 Mn576 2.094 . S
O602 C580 1.240 . S
O603 Mn577 2.117 1_545 S
O603 C580 1.264 . S
C604 C597 1.403 . S
C604 C605 1.399 . S
C604 H610 0.929 . S
C605 C585 1.449 . S
C605 C604 1.399 . S
C605 H611 0.930 . S
H606 C586 0.931 . S
H607 C587 0.930 . S
H608 C595 0.931 . S
H609 C596 0.929 . S
H610 C604 0.929 . S
H611 C605 0.930 . S
Mn612 O617 2.095 . S
Mn612 O627 2.162 . S
Mn612 O628 2.297 . S
Mn612 O636 2.385 . S
Mn612 O637 2.209 . S
Mn612 O638 2.094 . S
Mn613 O618 2.121 . S
Mn613 N620 2.257 . S
Mn613 N629 2.282 . S
Mn613 O637 2.215 . S
Mn613 O639 2.117 . S
C614 O636 1.234 . S
C614 O637 1.283 . S
C615 O627 1.281 . S
C615 O628 1.236 . S
C616 O638 1.240 . S
C616 O639 1.264 . S
O617 Mn612 2.095 . S
O617 C626 1.250 . S
O618 Mn613 2.121 . S
O618 C626 1.258 . S
C619 N620 1.326 . S
C619 C623 1.460 . S
C619 H625 0.929 . S
N620 Mn613 2.257 . S
N620 C619 1.326 . S
N620 C624 1.362 . S
C621 C622 1.258 . S
C621 C624 1.431 . S
C621 C641 1.449 . S
C622 C621 1.258 . S
C622 C623 1.477 . S
C622 H642 0.931 . S
C623 C619 1.460 . S
C623 C622 1.477 . S
C623 H643 0.930 . S
C624 N620 1.362 . S
C624 C621 1.431 . S
C624 C634 1.476 . S
H625 C619 0.929 . S
C626 O617 1.250 . S
C626 O618 1.258 . S
O627 Mn612 2.162 . S
O627 C615 1.281 . S
O628 Mn612 2.297 . S
O628 C615 1.236 . S
N629 Mn613 2.282 . S
N629 C630 1.328 . S
N629 C634 1.318 . S
C630 N629 1.328 . S
C630 C631 1.457 . S
C630 H635 0.929 . S
C631 C630 1.457 . S
C631 C632 1.291 . S
C631 H644 0.931 . S
C632 C631 1.291 . S
C632 C633 1.373 . S
C632 H645 0.929 . S
C633 C632 1.373 . S
C633 C634 1.396 . S
C633 C640 1.403 . S
C634 C624 1.476 . S
C634 N629 1.318 . S
C634 C633 1.396 . S
H635 C630 0.929 . S
O636 Mn612 2.385 . S
O636 C614 1.234 . S
O637 Mn612 2.209 . S
O637 Mn613 2.215 . S
O637 C614 1.283 . S
O638 Mn612 2.094 . S
O638 C616 1.240 . S
O639 Mn613 2.117 . S
O639 C616 1.264 . S
C640 C633 1.403 . S
C640 C641 1.399 . S
C640 H646 0.929 . S
C641 C621 1.449 . S
C641 C640 1.399 . S
C641 H647 0.930 . S
H642 C622 0.931 . S
H643 C623 0.930 . S
H644 C631 0.931 . S
H645 C632 0.929 . S
H646 C640 0.929 . S
H647 C641 0.930 . S
Mn648 O653 2.095 . S
Mn648 O663 2.162 . S
Mn648 O664 2.297 . S
Mn648 O672 2.385 . S
Mn648 O673 2.209 . S
Mn648 O674 2.094 . S
Mn649 O654 2.121 . S
Mn649 N656 2.257 . S
Mn649 N665 2.282 . S
Mn649 O673 2.215 . S
Mn649 O675 2.117 . S
C650 O672 1.234 . S
C650 O673 1.283 . S
C651 O663 1.281 . S
C651 O664 1.236 . S
C652 O674 1.240 . S
C652 O675 1.264 . S
O653 Mn648 2.095 . S
O653 C662 1.250 . S
O654 Mn649 2.121 . S
O654 C662 1.258 . S
C655 N656 1.326 . S
C655 C659 1.460 . S
C655 H661 0.929 . S
N656 Mn649 2.257 . S
N656 C655 1.326 . S
N656 C660 1.362 . S
C657 C658 1.258 . S
C657 C660 1.431 . S
C657 C677 1.449 . S
C658 C657 1.258 . S
C658 C659 1.477 . S
C658 H678 0.931 . S
C659 C655 1.460 . S
C659 C658 1.477 . S
C659 H679 0.930 . S
C660 N656 1.362 . S
C660 C657 1.431 . S
C660 C670 1.476 . S
H661 C655 0.929 . S
C662 O653 1.250 . S
C662 O654 1.258 . S
O663 Mn648 2.162 . S
O663 C651 1.281 . S
O664 Mn648 2.297 . S
O664 C651 1.236 . S
N665 Mn649 2.282 . S
N665 C666 1.328 . S
N665 C670 1.318 . S
C666 N665 1.328 . S
C666 C667 1.457 . S
C666 H671 0.929 . S
C667 C666 1.457 . S
C667 C668 1.291 . S
C667 H680 0.931 . S
C668 C667 1.291 . S
C668 C669 1.373 . S
C668 H681 0.929 . S
C669 C668 1.373 . S
C669 C670 1.396 . S
C669 C676 1.403 . S
C670 C660 1.476 . S
C670 N665 1.318 . S
C670 C669 1.396 . S
H671 C666 0.929 . S
O672 Mn648 2.385 . S
O672 C650 1.234 . S
O673 Mn648 2.209 . S
O673 Mn649 2.215 . S
O673 C650 1.283 . S
O674 Mn648 2.094 . S
O674 C652 1.240 . S
O675 Mn649 2.117 . S
O675 C652 1.264 . S
C676 C669 1.403 . S
C676 C677 1.399 . S
C676 H682 0.929 . S
C677 C657 1.449 . S
C677 C676 1.399 . S
C677 H683 0.930 . S
H678 C658 0.931 . S
H679 C659 0.930 . S
H680 C667 0.931 . S
H681 C668 0.929 . S
H682 C676 0.929 . S
H683 C677 0.930 . S
Mn684 O689 2.095 . S
Mn684 O699 2.162 . S
Mn684 O700 2.297 . S
Mn684 O708 2.385 . S
Mn684 O709 2.209 . S
Mn684 O710 2.094 . S
Mn685 O690 2.121 . S
Mn685 N692 2.257 1_545 S
Mn685 N701 2.282 . S
Mn685 O709 2.215 . S
Mn685 O711 2.117 . S
C686 O708 1.234 . S
C686 O709 1.283 . S
C687 O699 1.281 . S
C687 O700 1.236 . S
C688 O710 1.240 . S
C688 O711 1.264 . S
O689 Mn684 2.095 . S
O689 C698 1.250 . S
O690 Mn685 2.121 . S
O690 C698 1.258 . S
C691 N692 1.326 . S
C691 C695 1.460 . S
C691 H697 0.929 . S
N692 Mn685 2.257 1_565 S
N692 C691 1.326 . S
N692 C696 1.362 . S
C693 C694 1.258 . S
C693 C696 1.431 . S
C693 C713 1.449 . S
C694 C693 1.258 . S
C694 C695 1.477 . S
C694 H714 0.931 . S
C695 C691 1.460 . S
C695 C694 1.477 . S
C695 H715 0.930 . S
C696 N692 1.362 . S
C696 C693 1.431 . S
C696 C706 1.476 . S
H697 C691 0.929 . S
C698 O689 1.250 . S
C698 O690 1.258 . S
O699 Mn684 2.162 . S
O699 C687 1.281 . S
O700 Mn684 2.297 . S
O700 C687 1.236 . S
N701 Mn685 2.282 . S
N701 C702 1.328 . S
N701 C706 1.318 1_545 S
C702 N701 1.328 . S
C702 C703 1.457 . S
C702 H707 0.929 . S
C703 C702 1.457 . S
C703 C704 1.291 1_545 S
C703 H716 0.931 . S
C704 C703 1.291 1_565 S
C704 C705 1.373 . S
C704 H717 0.929 . S
C705 C704 1.373 . S
C705 C706 1.396 . S
C705 C712 1.403 . S
C706 C696 1.476 . S
C706 N701 1.318 1_565 S
C706 C705 1.396 . S
H707 C702 0.929 . S
O708 Mn684 2.385 . S
O708 C686 1.234 . S
O709 Mn684 2.209 . S
O709 Mn685 2.215 . S
O709 C686 1.283 . S
O710 Mn684 2.094 . S
O710 C688 1.240 . S
O711 Mn685 2.117 . S
O711 C688 1.264 . S
C712 C705 1.403 . S
C712 C713 1.399 . S
C712 H718 0.929 . S
C713 C693 1.449 . S
C713 C712 1.399 . S
C713 H719 0.930 . S
H714 C694 0.931 . S
H715 C695 0.930 . S
H716 C703 0.931 . S
H717 C704 0.929 . S
H718 C712 0.929 . S
H719 C713 0.930 . S
Mn720 O725 2.095 . S
Mn720 O735 2.162 . S
Mn720 O736 2.297 . S
Mn720 O744 2.385 . S
Mn720 O745 2.209 1_554 S
Mn720 O746 2.094 . S
Mn721 O726 2.121 . S
Mn721 N728 2.257 . S
Mn721 N737 2.282 . S
Mn721 O745 2.215 . S
Mn721 O747 2.117 1_556 S
C722 O744 1.234 1_556 S
C722 O745 1.283 . S
C723 O735 1.281 . S
C723 O736 1.236 . S
C724 O746 1.240 . S
C724 O747 1.264 . S
O725 Mn720 2.095 . S
O725 C734 1.250 1_554 S
O726 Mn721 2.121 . S
O726 C734 1.258 . S
C727 N728 1.326 . S
C727 C731 1.460 . S
C727 H733 0.929 . S
N728 Mn721 2.257 . S
N728 C727 1.326 . S
N728 C732 1.362 . S
C729 C730 1.258 . S
C729 C732 1.431 . S
C729 C749 1.449 . S
C730 C729 1.258 . S
C730 C731 1.477 . S
C730 H750 0.931 . S
C731 C727 1.460 . S
C731 C730 1.477 . S
C731 H751 0.930 . S
C732 N728 1.362 . S
C732 C729 1.431 . S
C732 C742 1.476 . S
H733 C727 0.929 . S
C734 O725 1.250 1_556 S
C734 O726 1.258 . S
O735 Mn720 2.162 . S
O735 C723 1.281 . S
O736 Mn720 2.297 . S
O736 C723 1.236 . S
N737 Mn721 2.282 . S
N737 C738 1.328 . S
N737 C742 1.318 . S
C738 N737 1.328 . S
C738 C739 1.457 . S
C738 H743 0.929 1_556 S
C739 C738 1.457 . S
C739 C740 1.291 . S
C739 H752 0.931 . S
C740 C739 1.291 . S
C740 C741 1.373 . S
C740 H753 0.929 . S
C741 C740 1.373 . S
C741 C742 1.396 . S
C741 C748 1.403 . S
C742 C732 1.476 . S
C742 N737 1.318 . S
C742 C741 1.396 . S
H743 C738 0.929 1_554 S
O744 Mn720 2.385 . S
O744 C722 1.234 1_554 S
O745 Mn720 2.209 1_556 S
O745 Mn721 2.215 . S
O745 C722 1.283 . S
O746 Mn720 2.094 . S
O746 C724 1.240 . S
O747 Mn721 2.117 1_554 S
O747 C724 1.264 . S
C748 C741 1.403 . S
C748 C749 1.399 . S
C748 H754 0.929 . S
C749 C729 1.449 . S
C749 C748 1.399 . S
C749 H755 0.930 . S
H750 C730 0.931 . S
H751 C731 0.930 . S
H752 C739 0.931 . S
H753 C740 0.929 . S
H754 C748 0.929 . S
H755 C749 0.930 . S
Mn756 O761 2.095 . S
Mn756 O771 2.162 . S
Mn756 O772 2.297 . S
Mn756 O780 2.385 . S
Mn756 O781 2.209 . S
Mn756 O782 2.094 . S
Mn757 O762 2.121 . S
Mn757 N764 2.257 . S
Mn757 N773 2.282 . S
Mn757 O781 2.215 . S
Mn757 O783 2.117 . S
C758 O780 1.234 . S
C758 O781 1.283 . S
C759 O771 1.281 . S
C759 O772 1.236 . S
C760 O782 1.240 . S
C760 O783 1.264 . S
O761 Mn756 2.095 . S
O761 C770 1.250 . S
O762 Mn757 2.121 . S
O762 C770 1.258 . S
C763 N764 1.326 . S
C763 C767 1.460 . S
C763 H769 0.929 . S
N764 Mn757 2.257 . S
N764 C763 1.326 . S
N764 C768 1.362 . S
C765 C766 1.258 . S
C765 C768 1.431 . S
C765 C785 1.449 . S
C766 C765 1.258 . S
C766 C767 1.477 . S
C766 H786 0.931 . S
C767 C763 1.460 . S
C767 C766 1.477 . S
C767 H787 0.930 . S
C768 N764 1.362 . S
C768 C765 1.431 . S
C768 C778 1.476 . S
H769 C763 0.929 . S
C770 O761 1.250 . S
C770 O762 1.258 . S
O771 Mn756 2.162 . S
O771 C759 1.281 . S
O772 Mn756 2.297 . S
O772 C759 1.236 . S
N773 Mn757 2.282 . S
N773 C774 1.328 . S
N773 C778 1.318 . S
C774 N773 1.328 . S
C774 C775 1.457 . S
C774 H779 0.929 . S
C775 C774 1.457 . S
C775 C776 1.291 . S
C775 H788 0.931 . S
C776 C775 1.291 . S
C776 C777 1.373 . S
C776 H789 0.929 . S
C777 C776 1.373 . S
C777 C778 1.396 . S
C777 C784 1.403 . S
C778 C768 1.476 . S
C778 N773 1.318 . S
C778 C777 1.396 . S
H779 C774 0.929 . S
O780 Mn756 2.385 . S
O780 C758 1.234 . S
O781 Mn756 2.209 . S
O781 Mn757 2.215 . S
O781 C758 1.283 . S
O782 Mn756 2.094 . S
O782 C760 1.240 . S
O783 Mn757 2.117 . S
O783 C760 1.264 . S
C784 C777 1.403 . S
C784 C785 1.399 . S
C784 H790 0.929 . S
C785 C765 1.449 . S
C785 C784 1.399 . S
C785 H791 0.930 . S
H786 C766 0.931 . S
H787 C767 0.930 . S
H788 C775 0.931 . S
H789 C776 0.929 . S
H790 C784 0.929 . S
H791 C785 0.930 . S
Mn792 O797 2.095 . S
Mn792 O807 2.162 . S
Mn792 O808 2.297 . S
Mn792 O816 2.385 . S
Mn792 O817 2.209 . S
Mn792 O818 2.094 . S
Mn793 O798 2.121 . S
Mn793 N800 2.257 . S
Mn793 N809 2.282 . S
Mn793 O817 2.215 . S
Mn793 O819 2.117 . S
C794 O816 1.234 . S
C794 O817 1.283 . S
C795 O807 1.281 . S
C795 O808 1.236 . S
C796 O818 1.240 . S
C796 O819 1.264 . S
O797 Mn792 2.095 . S
O797 C806 1.250 . S
O798 Mn793 2.121 . S
O798 C806 1.258 . S
C799 N800 1.326 . S
C799 C803 1.460 . S
C799 H805 0.929 . S
N800 Mn793 2.257 . S
N800 C799 1.326 . S
N800 C804 1.362 . S
C801 C802 1.258 . S
C801 C804 1.431 . S
C801 C821 1.449 . S
C802 C801 1.258 . S
C802 C803 1.477 . S
C802 H822 0.931 . S
C803 C799 1.460 . S
C803 C802 1.477 . S
C803 H823 0.930 . S
C804 N800 1.362 . S
C804 C801 1.431 . S
C804 C814 1.476 . S
H805 C799 0.929 . S
C806 O797 1.250 . S
C806 O798 1.258 . S
O807 Mn792 2.162 . S
O807 C795 1.281 . S
O808 Mn792 2.297 . S
O808 C795 1.236 . S
N809 Mn793 2.282 . S
N809 C810 1.328 . S
N809 C814 1.318 . S
C810 N809 1.328 . S
C810 C811 1.457 . S
C810 H815 0.929 . S
C811 C810 1.457 . S
C811 C812 1.291 . S
C811 H824 0.931 . S
C812 C811 1.291 . S
C812 C813 1.373 . S
C812 H825 0.929 . S
C813 C812 1.373 . S
C813 C814 1.396 . S
C813 C820 1.403 . S
C814 C804 1.476 . S
C814 N809 1.318 . S
C814 C813 1.396 . S
H815 C810 0.929 . S
O816 Mn792 2.385 . S
O816 C794 1.234 . S
O817 Mn792 2.209 . S
O817 Mn793 2.215 . S
O817 C794 1.283 . S
O818 Mn792 2.094 . S
O818 C796 1.240 . S
O819 Mn793 2.117 . S
O819 C796 1.264 . S
C820 C813 1.403 . S
C820 C821 1.399 . S
C820 H826 0.929 . S
C821 C801 1.449 . S
C821 C820 1.399 . S
C821 H827 0.930 . S
H822 C802 0.931 . S
H823 C803 0.930 . S
H824 C811 0.931 . S
H825 C812 0.929 . S
H826 C820 0.929 . S
H827 C821 0.930 . S
Mn828 O833 2.095 . S
Mn828 O843 2.162 . S
Mn828 O844 2.297 . S
Mn828 O852 2.385 . S
Mn828 O853 2.209 . S
Mn828 O854 2.094 . S
Mn829 O834 2.121 . S
Mn829 N836 2.257 . S
Mn829 N845 2.282 . S
Mn829 O853 2.215 . S
Mn829 O855 2.117 . S
C830 O852 1.234 . S
C830 O853 1.283 . S
C831 O843 1.281 . S
C831 O844 1.236 . S
C832 O854 1.240 . S
C832 O855 1.264 . S
O833 Mn828 2.095 . S
O833 C842 1.250 . S
O834 Mn829 2.121 . S
O834 C842 1.258 . S
C835 N836 1.326 . S
C835 C839 1.460 . S
C835 H841 0.929 . S
N836 Mn829 2.257 . S
N836 C835 1.326 . S
N836 C840 1.362 . S
C837 C838 1.258 . S
C837 C840 1.431 . S
C837 C857 1.449 . S
C838 C837 1.258 . S
C838 C839 1.477 . S
C838 H858 0.931 . S
C839 C835 1.460 . S
C839 C838 1.477 . S
C839 H859 0.930 . S
C840 N836 1.362 . S
C840 C837 1.431 . S
C840 C850 1.476 . S
H841 C835 0.929 . S
C842 O833 1.250 . S
C842 O834 1.258 . S
O843 Mn828 2.162 . S
O843 C831 1.281 . S
O844 Mn828 2.297 . S
O844 C831 1.236 . S
N845 Mn829 2.282 . S
N845 C846 1.328 . S
N845 C850 1.318 . S
C846 N845 1.328 . S
C846 C847 1.457 . S
C846 H851 0.929 . S
C847 C846 1.457 . S
C847 C848 1.291 . S
C847 H860 0.931 . S
C848 C847 1.291 . S
C848 C849 1.373 . S
C848 H861 0.929 . S
C849 C848 1.373 . S
C849 C850 1.396 . S
C849 C856 1.403 . S
C850 C840 1.476 . S
C850 N845 1.318 . S
C850 C849 1.396 . S
H851 C846 0.929 . S
O852 Mn828 2.385 . S
O852 C830 1.234 . S
O853 Mn828 2.209 . S
O853 Mn829 2.215 . S
O853 C830 1.283 . S
O854 Mn828 2.094 . S
O854 C832 1.240 . S
O855 Mn829 2.117 . S
O855 C832 1.264 . S
C856 C849 1.403 . S
C856 C857 1.399 . S
C856 H862 0.929 . S
C857 C837 1.449 . S
C857 C856 1.399 . S
C857 H863 0.930 . S
H858 C838 0.931 . S
H859 C839 0.930 . S
H860 C847 0.931 . S
H861 C848 0.929 . S
H862 C856 0.929 . S
H863 C857 0.930 . S
O864 Mn865 2.163 . S
O864 C878 1.244 . S
Mn865 O864 2.163 . S
Mn865 O868 2.160 . S
Mn865 O869 2.221 . S
Mn865 O871 2.163 . S
Mn865 O873 2.160 . S
Mn865 O883 2.221 . S
O866 Mn867 2.087 . S
O866 C878 1.256 . S
Mn867 O866 2.087 . S
Mn867 O874 2.089 . S
Mn867 O883 2.290 . S
Mn867 O884 2.251 . S
O868 Mn865 2.160 . S
O868 C879 1.239 . S
O869 Mn865 2.221 . S
O869 Mn870 2.290 . S
O869 C880 1.278 . S
Mn870 O869 2.290 . S
Mn870 O872 2.089 . S
Mn870 O875 2.251 . S
Mn870 O876 2.087 . S
O871 Mn865 2.163 . S
O871 C881 1.244 . S
O872 Mn870 2.089 . S
O872 C879 1.256 . S
O873 Mn865 2.160 . S
O873 C882 1.239 . S
O874 Mn867 2.089 . S
O874 C882 1.256 . S
O875 Mn870 2.251 . S
O875 C880 1.241 . S
O876 Mn870 2.087 . S
O876 C881 1.256 . S
C877 O883 1.278 . S
C877 O884 1.241 . S
C878 O864 1.244 . S
C878 O866 1.256 . S
C879 O868 1.239 . S
C879 O872 1.256 . S
C880 O869 1.278 . S
C880 O875 1.241 . S
C881 O871 1.244 . S
C881 O876 1.256 . S
C882 O873 1.239 . S
C882 O874 1.256 . S
O883 Mn865 2.221 . S
O883 Mn867 2.290 . S
O883 C877 1.278 . S
O884 Mn867 2.251 . S
O884 C877 1.241 . S
O885 Mn886 2.163 . S
O885 C899 1.244 . S
Mn886 O885 2.163 . S
Mn886 O889 2.160 . S
Mn886 O890 2.221 . S
Mn886 O892 2.163 . S
Mn886 O894 2.160 . S
Mn886 O904 2.221 . S
O887 Mn888 2.087 . S
O887 C899 1.256 . S
Mn888 O887 2.087 . S
Mn888 O895 2.089 . S
Mn888 O904 2.290 . S
Mn888 O905 2.251 . S
O889 Mn886 2.160 . S
O889 C900 1.239 . S
O890 Mn886 2.221 . S
O890 Mn891 2.290 . S
O890 C901 1.278 . S
Mn891 O890 2.290 . S
Mn891 O893 2.089 . S
Mn891 O896 2.251 . S
Mn891 O897 2.087 . S
O892 Mn886 2.163 . S
O892 C902 1.244 . S
O893 Mn891 2.089 . S
O893 C900 1.256 . S
O894 Mn886 2.160 . S
O894 C903 1.239 . S
O895 Mn888 2.089 . S
O895 C903 1.256 . S
O896 Mn891 2.251 . S
O896 C901 1.241 . S
O897 Mn891 2.087 . S
O897 C902 1.256 . S
C898 O904 1.278 . S
C898 O905 1.241 . S
C899 O885 1.244 . S
C899 O887 1.256 . S
C900 O889 1.239 . S
C900 O893 1.256 . S
C901 O890 1.278 . S
C901 O896 1.241 . S
C902 O892 1.244 . S
C902 O897 1.256 . S
C903 O894 1.239 . S
C903 O895 1.256 . S
O904 Mn886 2.221 . S
O904 Mn888 2.290 . S
O904 C898 1.278 . S
O905 Mn888 2.251 . S
O905 C898 1.241 . S
O906 Mn907 2.163 . S
O906 C920 1.244 . S
Mn907 O906 2.163 . S
Mn907 O910 2.160 . S
Mn907 O911 2.221 . S
Mn907 O913 2.163 . S
Mn907 O915 2.160 . S
Mn907 O925 2.221 . S
O908 Mn909 2.087 . S
O908 C920 1.256 . S
Mn909 O908 2.087 . S
Mn909 O916 2.089 . S
Mn909 O925 2.290 . S
Mn909 O926 2.251 . S
O910 Mn907 2.160 . S
O910 C921 1.239 . S
O911 Mn907 2.221 . S
O911 Mn912 2.290 . S
O911 C922 1.278 . S
Mn912 O911 2.290 . S
Mn912 O914 2.089 . S
Mn912 O917 2.251 . S
Mn912 O918 2.087 . S
O913 Mn907 2.163 . S
O913 C923 1.244 . S
O914 Mn912 2.089 . S
O914 C921 1.256 . S
O915 Mn907 2.160 . S
O915 C924 1.239 . S
O916 Mn909 2.089 . S
O916 C924 1.256 . S
O917 Mn912 2.251 . S
O917 C922 1.241 . S
O918 Mn912 2.087 . S
O918 C923 1.256 . S
C919 O925 1.278 . S
C919 O926 1.241 . S
C920 O906 1.244 . S
C920 O908 1.256 . S
C921 O910 1.239 . S
C921 O914 1.256 . S
C922 O911 1.278 . S
C922 O917 1.241 . S
C923 O913 1.244 . S
C923 O918 1.256 . S
C924 O915 1.239 . S
C924 O916 1.256 . S
O925 Mn907 2.221 . S
O925 Mn909 2.290 . S
O925 C919 1.278 . S
O926 Mn909 2.251 . S
O926 C919 1.241 . S
O927 Mn928 2.163 . S
O927 C941 1.244 . S
Mn928 O927 2.163 . S
Mn928 O931 2.160 . S
Mn928 O932 2.221 . S
Mn928 O934 2.163 . S
Mn928 O936 2.160 . S
Mn928 O946 2.221 . S
O929 Mn930 2.087 . S
O929 C941 1.256 . S
Mn930 O929 2.087 . S
Mn930 O937 2.089 . S
Mn930 O946 2.290 . S
Mn930 O947 2.251 . S
O931 Mn928 2.160 . S
O931 C942 1.239 . S
O932 Mn928 2.221 . S
O932 Mn933 2.290 . S
O932 C943 1.278 . S
Mn933 O932 2.290 . S
Mn933 O935 2.089 . S
Mn933 O938 2.251 . S
Mn933 O939 2.087 . S
O934 Mn928 2.163 . S
O934 C944 1.244 . S
O935 Mn933 2.089 . S
O935 C942 1.256 . S
O936 Mn928 2.160 . S
O936 C945 1.239 . S
O937 Mn930 2.089 . S
O937 C945 1.256 . S
O938 Mn933 2.251 . S
O938 C943 1.241 . S
O939 Mn933 2.087 . S
O939 C944 1.256 . S
C940 O946 1.278 . S
C940 O947 1.241 . S
C941 O927 1.244 . S
C941 O929 1.256 . S
C942 O931 1.239 . S
C942 O935 1.256 . S
C943 O932 1.278 . S
C943 O938 1.241 . S
C944 O934 1.244 . S
C944 O939 1.256 . S
C945 O936 1.239 . S
C945 O937 1.256 . S
O946 Mn928 2.221 . S
O946 Mn930 2.290 . S
O946 C940 1.278 . S
O947 Mn930 2.251 . S
O947 C940 1.241 . S
O948 Mn949 2.163 . S
O948 C962 1.244 . S
Mn949 O948 2.163 . S
Mn949 O952 2.160 . S
Mn949 O953 2.221 . S
Mn949 O955 2.163 . S
Mn949 O957 2.160 . S
Mn949 O967 2.221 . S
O950 Mn951 2.087 . S
O950 C962 1.256 . S
Mn951 O950 2.087 . S
Mn951 O958 2.089 . S
Mn951 O967 2.290 . S
Mn951 O968 2.251 . S
O952 Mn949 2.160 . S
O952 C963 1.239 . S
O953 Mn949 2.221 . S
O953 Mn954 2.290 . S
O953 C964 1.278 . S
Mn954 O953 2.290 . S
Mn954 O956 2.089 . S
Mn954 O959 2.251 . S
Mn954 O960 2.087 . S
O955 Mn949 2.163 . S
O955 C965 1.244 . S
O956 Mn954 2.089 . S
O956 C963 1.256 . S
O957 Mn949 2.160 . S
O957 C966 1.239 . S
O958 Mn951 2.089 . S
O958 C966 1.256 . S
O959 Mn954 2.251 . S
O959 C964 1.241 . S
O960 Mn954 2.087 . S
O960 C965 1.256 . S
C961 O967 1.278 . S
C961 O968 1.241 . S
C962 O948 1.244 . S
C962 O950 1.256 . S
C963 O952 1.239 . S
C963 O956 1.256 . S
C964 O953 1.278 . S
C964 O959 1.241 . S
C965 O955 1.244 . S
C965 O960 1.256 . S
C966 O957 1.239 . S
C966 O958 1.256 . S
O967 Mn949 2.221 . S
O967 Mn951 2.290 . S
O967 C961 1.278 . S
O968 Mn951 2.251 . S
O968 C961 1.241 . S
O969 Mn970 2.163 . S
O969 C983 1.244 . S
Mn970 O969 2.163 . S
Mn970 O973 2.160 . S
Mn970 O974 2.221 . S
Mn970 O976 2.163 . S
Mn970 O978 2.160 . S
Mn970 O988 2.221 . S
O971 Mn972 2.087 . S
O971 C983 1.256 . S
Mn972 O971 2.087 . S
Mn972 O979 2.089 . S
Mn972 O988 2.290 . S
Mn972 O989 2.251 . S
O973 Mn970 2.160 . S
O973 C984 1.239 . S
O974 Mn970 2.221 . S
O974 Mn975 2.290 . S
O974 C985 1.278 . S
Mn975 O974 2.290 . S
Mn975 O977 2.089 . S
Mn975 O980 2.251 . S
Mn975 O981 2.087 . S
O976 Mn970 2.163 . S
O976 C986 1.244 . S
O977 Mn975 2.089 . S
O977 C984 1.256 . S
O978 Mn970 2.160 . S
O978 C987 1.239 . S
O979 Mn972 2.089 . S
O979 C987 1.256 . S
O980 Mn975 2.251 . S
O980 C985 1.241 . S
O981 Mn975 2.087 . S
O981 C986 1.256 . S
C982 O988 1.278 . S
C982 O989 1.241 . S
C983 O969 1.244 . S
C983 O971 1.256 . S
C984 O973 1.239 . S
C984 O977 1.256 . S
C985 O974 1.278 . S
C985 O980 1.241 . S
C986 O976 1.244 . S
C986 O981 1.256 . S
C987 O978 1.239 . S
C987 O979 1.256 . S
O988 Mn970 2.221 . S
O988 Mn972 2.290 . S
O988 C982 1.278 . S
O989 Mn972 2.251 . S
O989 C982 1.241 . S
O990 Mn991 2.163 . S
O990 C1004 1.244 . S
Mn991 O990 2.163 . S
Mn991 O994 2.160 . S
Mn991 O995 2.221 . S
Mn991 O997 2.163 . S
Mn991 O999 2.160 . S
Mn991 O1009 2.221 . S
O992 Mn993 2.087 . S
O992 C1004 1.256 . S
Mn993 O992 2.087 . S
Mn993 O1000 2.089 . S
Mn993 O1009 2.290 . S
Mn993 O1010 2.251 . S
O994 Mn991 2.160 . S
O994 C1005 1.239 . S
O995 Mn991 2.221 . S
O995 Mn996 2.290 . S
O995 C1006 1.278 . S
Mn996 O995 2.290 . S
Mn996 O998 2.089 . S
Mn996 O1001 2.251 . S
Mn996 O1002 2.087 . S
O997 Mn991 2.163 . S
O997 C1007 1.244 . S
O998 Mn996 2.089 . S
O998 C1005 1.256 . S
O999 Mn991 2.160 . S
O999 C1008 1.239 . S
O1000 Mn993 2.089 . S
O1000 C1008 1.256 . S
O1001 Mn996 2.251 . S
O1001 C1006 1.241 . S
O1002 Mn996 2.087 . S
O1002 C1007 1.256 . S
C1003 O1009 1.278 . S
C1003 O1010 1.241 . S
C1004 O990 1.244 . S
C1004 O992 1.256 . S
C1005 O994 1.239 . S
C1005 O998 1.256 . S
C1006 O995 1.278 . S
C1006 O1001 1.241 . S
C1007 O997 1.244 . S
C1007 O1002 1.256 . S
C1008 O999 1.239 . S
C1008 O1000 1.256 . S
O1009 Mn991 2.221 . S
O1009 Mn993 2.290 . S
O1009 C1003 1.278 . S
O1010 Mn993 2.251 . S
O1010 C1003 1.241 . S
O1011 Mn1012 2.163 . S
O1011 C1025 1.244 . S
Mn1012 O1011 2.163 . S
Mn1012 O1015 2.160 . S
Mn1012 O1016 2.221 . S
Mn1012 O1018 2.163 . S
Mn1012 O1020 2.160 . S
Mn1012 O1030 2.221 . S
O1013 Mn1014 2.087 . S
O1013 C1025 1.256 . S
Mn1014 O1013 2.087 . S
Mn1014 O1021 2.089 . S
Mn1014 O1030 2.290 . S
Mn1014 O1031 2.251 . S
O1015 Mn1012 2.160 . S
O1015 C1026 1.239 . S
O1016 Mn1012 2.221 . S
O1016 Mn1017 2.290 . S
O1016 C1027 1.278 . S
Mn1017 O1016 2.290 . S
Mn1017 O1019 2.089 . S
Mn1017 O1022 2.251 . S
Mn1017 O1023 2.087 . S
O1018 Mn1012 2.163 . S
O1018 C1028 1.244 . S
O1019 Mn1017 2.089 . S
O1019 C1026 1.256 . S
O1020 Mn1012 2.160 . S
O1020 C1029 1.239 . S
O1021 Mn1014 2.089 . S
O1021 C1029 1.256 . S
O1022 Mn1017 2.251 . S
O1022 C1027 1.241 . S
O1023 Mn1017 2.087 . S
O1023 C1028 1.256 . S
C1024 O1030 1.278 . S
C1024 O1031 1.241 . S
C1025 O1011 1.244 . S
C1025 O1013 1.256 . S
C1026 O1015 1.239 . S
C1026 O1019 1.256 . S
C1027 O1016 1.278 . S
C1027 O1022 1.241 . S
C1028 O1018 1.244 . S
C1028 O1023 1.256 . S
C1029 O1020 1.239 . S
C1029 O1021 1.256 . S
O1030 Mn1012 2.221 . S
O1030 Mn1014 2.290 . S
O1030 C1024 1.278 . S
O1031 Mn1014 2.251 . S
O1031 C1024 1.241 . S
O1032 Mn1033 2.163 . S
O1032 C1046 1.244 . S
Mn1033 O1032 2.163 . S
Mn1033 O1036 2.160 . S
Mn1033 O1037 2.221 . S
Mn1033 O1039 2.163 . S
Mn1033 O1041 2.160 . S
Mn1033 O1051 2.221 . S
O1034 Mn1035 2.087 . S
O1034 C1046 1.256 . S
Mn1035 O1034 2.087 . S
Mn1035 O1042 2.089 . S
Mn1035 O1051 2.290 . S
Mn1035 O1052 2.251 . S
O1036 Mn1033 2.160 . S
O1036 C1047 1.239 . S
O1037 Mn1033 2.221 . S
O1037 Mn1038 2.290 . S
O1037 C1048 1.278 . S
Mn1038 O1037 2.290 . S
Mn1038 O1040 2.089 . S
Mn1038 O1043 2.251 . S
Mn1038 O1044 2.087 . S
O1039 Mn1033 2.163 . S
O1039 C1049 1.244 . S
O1040 Mn1038 2.089 . S
O1040 C1047 1.256 . S
O1041 Mn1033 2.160 . S
O1041 C1050 1.239 . S
O1042 Mn1035 2.089 . S
O1042 C1050 1.256 . S
O1043 Mn1038 2.251 . S
O1043 C1048 1.241 . S
O1044 Mn1038 2.087 . S
O1044 C1049 1.256 . S
C1045 O1051 1.278 . S
C1045 O1052 1.241 . S
C1046 O1032 1.244 . S
C1046 O1034 1.256 . S
C1047 O1036 1.239 . S
C1047 O1040 1.256 . S
C1048 O1037 1.278 . S
C1048 O1043 1.241 . S
C1049 O1039 1.244 . S
C1049 O1044 1.256 . S
C1050 O1041 1.239 . S
C1050 O1042 1.256 . S
O1051 Mn1033 2.221 . S
O1051 Mn1035 2.290 . S
O1051 C1045 1.278 . S
O1052 Mn1035 2.251 . S
O1052 C1045 1.241 . S
O1053 Mn1054 2.163 . S
O1053 C1067 1.244 . S
Mn1054 O1053 2.163 . S
Mn1054 O1057 2.160 . S
Mn1054 O1058 2.221 . S
Mn1054 O1060 2.163 . S
Mn1054 O1062 2.160 . S
Mn1054 O1072 2.221 . S
O1055 Mn1056 2.087 . S
O1055 C1067 1.256 . S
Mn1056 O1055 2.087 . S
Mn1056 O1063 2.089 . S
Mn1056 O1072 2.290 . S
Mn1056 O1073 2.251 . S
O1057 Mn1054 2.160 . S
O1057 C1068 1.239 . S
O1058 Mn1054 2.221 . S
O1058 Mn1059 2.290 . S
O1058 C1069 1.278 . S
Mn1059 O1058 2.290 . S
Mn1059 O1061 2.089 . S
Mn1059 O1064 2.251 . S
Mn1059 O1065 2.087 . S
O1060 Mn1054 2.163 . S
O1060 C1070 1.244 . S
O1061 Mn1059 2.089 . S
O1061 C1068 1.256 . S
O1062 Mn1054 2.160 . S
O1062 C1071 1.239 . S
O1063 Mn1056 2.089 . S
O1063 C1071 1.256 . S
O1064 Mn1059 2.251 . S
O1064 C1069 1.241 . S
O1065 Mn1059 2.087 . S
O1065 C1070 1.256 . S
C1066 O1072 1.278 . S
C1066 O1073 1.241 . S
C1067 O1053 1.244 . S
C1067 O1055 1.256 . S
C1068 O1057 1.239 . S
C1068 O1061 1.256 . S
C1069 O1058 1.278 . S
C1069 O1064 1.241 . S
C1070 O1060 1.244 . S
C1070 O1065 1.256 . S
C1071 O1062 1.239 . S
C1071 O1063 1.256 . S
O1072 Mn1054 2.221 . S
O1072 Mn1056 2.290 . S
O1072 C1066 1.278 . S
O1073 Mn1056 2.251 . S
O1073 C1066 1.241 . S
O1074 Mn1075 2.163 . S
O1074 C1088 1.244 . S
Mn1075 O1074 2.163 . S
Mn1075 O1078 2.160 . S
Mn1075 O1079 2.221 . S
Mn1075 O1081 2.163 . S
Mn1075 O1083 2.160 . S
Mn1075 O1093 2.221 . S
O1076 Mn1077 2.087 . S
O1076 C1088 1.256 . S
Mn1077 O1076 2.087 . S
Mn1077 O1084 2.089 . S
Mn1077 O1093 2.290 . S
Mn1077 O1094 2.251 . S
O1078 Mn1075 2.160 . S
O1078 C1089 1.239 . S
O1079 Mn1075 2.221 . S
O1079 Mn1080 2.290 . S
O1079 C1090 1.278 . S
Mn1080 O1079 2.290 . S
Mn1080 O1082 2.089 . S
Mn1080 O1085 2.251 . S
Mn1080 O1086 2.087 . S
O1081 Mn1075 2.163 . S
O1081 C1091 1.244 . S
O1082 Mn1080 2.089 . S
O1082 C1089 1.256 . S
O1083 Mn1075 2.160 . S
O1083 C1092 1.239 . S
O1084 Mn1077 2.089 . S
O1084 C1092 1.256 . S
O1085 Mn1080 2.251 . S
O1085 C1090 1.241 . S
O1086 Mn1080 2.087 . S
O1086 C1091 1.256 . S
C1087 O1093 1.278 . S
C1087 O1094 1.241 . S
C1088 O1074 1.244 . S
C1088 O1076 1.256 . S
C1089 O1078 1.239 . S
C1089 O1082 1.256 . S
C1090 O1079 1.278 . S
C1090 O1085 1.241 . S
C1091 O1081 1.244 . S
C1091 O1086 1.256 . S
C1092 O1083 1.239 . S
C1092 O1084 1.256 . S
O1093 Mn1075 2.221 . S
O1093 Mn1077 2.290 . S
O1093 C1087 1.278 . S
O1094 Mn1077 2.251 . S
O1094 C1087 1.241 . S
O1095 Mn1096 2.163 . S
O1095 C1109 1.244 . S
Mn1096 O1095 2.163 . S
Mn1096 O1099 2.160 . S
Mn1096 O1100 2.221 . S
Mn1096 O1102 2.163 . S
Mn1096 O1104 2.160 . S
Mn1096 O1114 2.221 . S
O1097 Mn1098 2.087 . S
O1097 C1109 1.256 . S
Mn1098 O1097 2.087 . S
Mn1098 O1105 2.089 . S
Mn1098 O1114 2.290 . S
Mn1098 O1115 2.251 . S
O1099 Mn1096 2.160 . S
O1099 C1110 1.239 . S
O1100 Mn1096 2.221 . S
O1100 Mn1101 2.290 . S
O1100 C1111 1.278 . S
Mn1101 O1100 2.290 . S
Mn1101 O1103 2.089 . S
Mn1101 O1106 2.251 . S
Mn1101 O1107 2.087 . S
O1102 Mn1096 2.163 . S
O1102 C1112 1.244 . S
O1103 Mn1101 2.089 . S
O1103 C1110 1.256 . S
O1104 Mn1096 2.160 . S
O1104 C1113 1.239 . S
O1105 Mn1098 2.089 . S
O1105 C1113 1.256 . S
O1106 Mn1101 2.251 . S
O1106 C1111 1.241 . S
O1107 Mn1101 2.087 . S
O1107 C1112 1.256 . S
C1108 O1114 1.278 . S
C1108 O1115 1.241 . S
C1109 O1095 1.244 . S
C1109 O1097 1.256 . S
C1110 O1099 1.239 . S
C1110 O1103 1.256 . S
C1111 O1100 1.278 . S
C1111 O1106 1.241 . S
C1112 O1102 1.244 . S
C1112 O1107 1.256 . S
C1113 O1104 1.239 . S
C1113 O1105 1.256 . S
O1114 Mn1096 2.221 . S
O1114 Mn1098 2.290 . S
O1114 C1108 1.278 . S
O1115 Mn1098 2.251 . S
O1115 C1108 1.241 . S
O1116 Mn1117 2.163 . S
O1116 C1130 1.244 . S
Mn1117 O1116 2.163 . S
Mn1117 O1120 2.160 . S
Mn1117 O1121 2.221 . S
Mn1117 O1123 2.163 . S
Mn1117 O1125 2.160 . S
Mn1117 O1135 2.221 . S
O1118 Mn1119 2.087 . S
O1118 C1130 1.256 . S
Mn1119 O1118 2.087 . S
Mn1119 O1126 2.089 . S
Mn1119 O1135 2.290 . S
Mn1119 O1136 2.251 . S
O1120 Mn1117 2.160 . S
O1120 C1131 1.239 . S
O1121 Mn1117 2.221 . S
O1121 Mn1122 2.290 . S
O1121 C1132 1.278 . S
Mn1122 O1121 2.290 . S
Mn1122 O1124 2.089 . S
Mn1122 O1127 2.251 . S
Mn1122 O1128 2.087 . S
O1123 Mn1117 2.163 . S
O1123 C1133 1.244 . S
O1124 Mn1122 2.089 . S
O1124 C1131 1.256 . S
O1125 Mn1117 2.160 . S
O1125 C1134 1.239 . S
O1126 Mn1119 2.089 . S
O1126 C1134 1.256 . S
O1127 Mn1122 2.251 . S
O1127 C1132 1.241 . S
O1128 Mn1122 2.087 . S
O1128 C1133 1.256 . S
C1129 O1135 1.278 . S
C1129 O1136 1.241 . S
C1130 O1116 1.244 . S
C1130 O1118 1.256 . S
C1131 O1120 1.239 . S
C1131 O1124 1.256 . S
C1132 O1121 1.278 . S
C1132 O1127 1.241 . S
C1133 O1123 1.244 . S
C1133 O1128 1.256 . S
C1134 O1125 1.239 . S
C1134 O1126 1.256 . S
O1135 Mn1117 2.221 . S
O1135 Mn1119 2.290 . S
O1135 C1129 1.278 . S
O1136 Mn1119 2.251 . S
O1136 C1129 1.241 . S
O1137 Mn1138 2.163 . S
O1137 C1151 1.244 . S
Mn1138 O1137 2.163 . S
Mn1138 O1141 2.160 . S
Mn1138 O1142 2.221 . S
Mn1138 O1144 2.163 . S
Mn1138 O1146 2.160 . S
Mn1138 O1156 2.221 . S
O1139 Mn1140 2.087 . S
O1139 C1151 1.256 . S
Mn1140 O1139 2.087 . S
Mn1140 O1147 2.089 . S
Mn1140 O1156 2.290 . S
Mn1140 O1157 2.251 . S
O1141 Mn1138 2.160 . S
O1141 C1152 1.239 . S
O1142 Mn1138 2.221 . S
O1142 Mn1143 2.290 . S
O1142 C1153 1.278 . S
Mn1143 O1142 2.290 . S
Mn1143 O1145 2.089 . S
Mn1143 O1148 2.251 . S
Mn1143 O1149 2.087 . S
O1144 Mn1138 2.163 . S
O1144 C1154 1.244 . S
O1145 Mn1143 2.089 . S
O1145 C1152 1.256 . S
O1146 Mn1138 2.160 . S
O1146 C1155 1.239 . S
O1147 Mn1140 2.089 . S
O1147 C1155 1.256 . S
O1148 Mn1143 2.251 . S
O1148 C1153 1.241 . S
O1149 Mn1143 2.087 . S
O1149 C1154 1.256 . S
C1150 O1156 1.278 . S
C1150 O1157 1.241 . S
C1151 O1137 1.244 . S
C1151 O1139 1.256 . S
C1152 O1141 1.239 . S
C1152 O1145 1.256 . S
C1153 O1142 1.278 . S
C1153 O1148 1.241 . S
C1154 O1144 1.244 . S
C1154 O1149 1.256 . S
C1155 O1146 1.239 . S
C1155 O1147 1.256 . S
O1156 Mn1138 2.221 . S
O1156 Mn1140 2.290 . S
O1156 C1150 1.278 . S
O1157 Mn1140 2.251 . S
O1157 C1150 1.241 . S
O1158 Mn1159 2.163 . S
O1158 C1172 1.244 . S
Mn1159 O1158 2.163 . S
Mn1159 O1162 2.160 . S
Mn1159 O1163 2.221 . S
Mn1159 O1165 2.163 . S
Mn1159 O1167 2.160 . S
Mn1159 O1177 2.221 . S
O1160 Mn1161 2.087 . S
O1160 C1172 1.256 . S
Mn1161 O1160 2.087 . S
Mn1161 O1168 2.089 . S
Mn1161 O1177 2.290 . S
Mn1161 O1178 2.251 . S
O1162 Mn1159 2.160 . S
O1162 C1173 1.239 . S
O1163 Mn1159 2.221 . S
O1163 Mn1164 2.290 . S
O1163 C1174 1.278 . S
Mn1164 O1163 2.290 . S
Mn1164 O1166 2.089 . S
Mn1164 O1169 2.251 . S
Mn1164 O1170 2.087 . S
O1165 Mn1159 2.163 . S
O1165 C1175 1.244 . S
O1166 Mn1164 2.089 . S
O1166 C1173 1.256 . S
O1167 Mn1159 2.160 . S
O1167 C1176 1.239 . S
O1168 Mn1161 2.089 . S
O1168 C1176 1.256 . S
O1169 Mn1164 2.251 . S
O1169 C1174 1.241 . S
O1170 Mn1164 2.087 . S
O1170 C1175 1.256 . S
C1171 O1177 1.278 . S
C1171 O1178 1.241 . S
C1172 O1158 1.244 . S
C1172 O1160 1.256 . S
C1173 O1162 1.239 . S
C1173 O1166 1.256 . S
C1174 O1163 1.278 . S
C1174 O1169 1.241 . S
C1175 O1165 1.244 . S
C1175 O1170 1.256 . S
C1176 O1167 1.239 . S
C1176 O1168 1.256 . S
O1177 Mn1159 2.221 . S
O1177 Mn1161 2.290 . S
O1177 C1171 1.278 . S
O1178 Mn1161 2.251 . S
O1178 C1171 1.241 . S
O1179 Mn1180 2.163 . S
O1179 C1193 1.244 . S
Mn1180 O1179 2.163 . S
Mn1180 O1183 2.160 . S
Mn1180 O1184 2.221 . S
Mn1180 O1186 2.163 . S
Mn1180 O1188 2.160 . S
Mn1180 O1198 2.221 . S
O1181 Mn1182 2.087 . S
O1181 C1193 1.256 . S
Mn1182 O1181 2.087 . S
Mn1182 O1189 2.089 . S
Mn1182 O1198 2.290 . S
Mn1182 O1199 2.251 . S
O1183 Mn1180 2.160 . S
O1183 C1194 1.239 . S
O1184 Mn1180 2.221 . S
O1184 Mn1185 2.290 . S
O1184 C1195 1.278 . S
Mn1185 O1184 2.290 . S
Mn1185 O1187 2.089 . S
Mn1185 O1190 2.251 . S
Mn1185 O1191 2.087 . S
O1186 Mn1180 2.163 . S
O1186 C1196 1.244 . S
O1187 Mn1185 2.089 . S
O1187 C1194 1.256 . S
O1188 Mn1180 2.160 . S
O1188 C1197 1.239 . S
O1189 Mn1182 2.089 . S
O1189 C1197 1.256 . S
O1190 Mn1185 2.251 . S
O1190 C1195 1.241 . S
O1191 Mn1185 2.087 . S
O1191 C1196 1.256 . S
C1192 O1198 1.278 . S
C1192 O1199 1.241 . S
C1193 O1179 1.244 . S
C1193 O1181 1.256 . S
C1194 O1183 1.239 . S
C1194 O1187 1.256 . S
C1195 O1184 1.278 . S
C1195 O1190 1.241 . S
C1196 O1186 1.244 . S
C1196 O1191 1.256 . S
C1197 O1188 1.239 . S
C1197 O1189 1.256 . S
O1198 Mn1180 2.221 . S
O1198 Mn1182 2.290 . S
O1198 C1192 1.278 . S
O1199 Mn1182 2.251 . S
O1199 C1192 1.241 . S
H1200 C1206 0.930 . S
H1201 C1210 0.930 . S
H1202 C1215 0.929 . S
H1203 C1213 0.929 . S
H1204 C1208 0.929 . S
H1205 C1214 0.929 . S
C1206 H1200 0.930 . S
C1206 C1207 1.367 . S
C1206 C1214 1.378 . S
C1207 C1206 1.367 . S
C1207 C1215 1.433 . S
C1208 H1204 0.929 . S
C1208 C1210 1.378 . S
C1208 C1212 1.350 . S
C1209 C1212 1.463 . S
C1209 C1214 1.350 . S
C1209 N1217 1.427 . S
C1210 H1201 0.930 . S
C1210 C1208 1.378 . S
C1210 C1211 1.367 . S
C1211 C1210 1.367 . S
C1211 C1213 1.433 . S
C1212 C1208 1.350 . S
C1212 C1209 1.463 . S
C1212 N1216 1.427 . S
C1213 H1203 0.929 . S
C1213 C1211 1.433 . S
C1213 N1216 1.384 . S
C1214 H1205 0.929 . S
C1214 C1206 1.378 . S
C1214 C1209 1.350 . S
C1215 H1202 0.929 . S
C1215 C1207 1.433 . S
C1215 N1217 1.384 . S
N1216 C1212 1.427 . S
N1216 C1213 1.384 . S
N1217 C1209 1.427 . S
N1217 C1215 1.384 . S
H1218 C1224 0.930 . S
H1219 C1228 0.930 . S
H1220 C1233 0.929 . S
H1221 C1231 0.929 . S
H1222 C1226 0.929 . S
H1223 C1232 0.929 . S
C1224 H1218 0.930 . S
C1224 C1225 1.367 . S
C1224 C1232 1.378 . S
C1225 C1224 1.367 . S
C1225 C1233 1.433 . S
C1226 H1222 0.929 . S
C1226 C1228 1.378 . S
C1226 C1230 1.350 . S
C1227 C1230 1.463 . S
C1227 C1232 1.350 . S
C1227 N1235 1.427 . S
C1228 H1219 0.930 . S
C1228 C1226 1.378 . S
C1228 C1229 1.367 . S
C1229 C1228 1.367 . S
C1229 C1231 1.433 . S
C1230 C1226 1.350 . S
C1230 C1227 1.463 . S
C1230 N1234 1.427 . S
C1231 H1221 0.929 . S
C1231 C1229 1.433 . S
C1231 N1234 1.384 . S
C1232 H1223 0.929 . S
C1232 C1224 1.378 . S
C1232 C1227 1.350 . S
C1233 H1220 0.929 . S
C1233 C1225 1.433 . S
C1233 N1235 1.384 . S
N1234 C1230 1.427 . S
N1234 C1231 1.384 . S
N1235 C1227 1.427 . S
N1235 C1233 1.384 . S
H1236 C1242 0.930 . S
H1237 C1246 0.930 . S
H1238 C1251 0.929 . S
H1239 C1249 0.929 . S
H1240 C1244 0.929 . S
H1241 C1250 0.929 . S
C1242 H1236 0.930 . S
C1242 C1243 1.367 . S
C1242 C1250 1.378 . S
C1243 C1242 1.367 . S
C1243 C1251 1.433 . S
C1244 H1240 0.929 . S
C1244 C1246 1.378 . S
C1244 C1248 1.350 . S
C1245 C1248 1.463 . S
C1245 C1250 1.350 . S
C1245 N1253 1.427 . S
C1246 H1237 0.930 . S
C1246 C1244 1.378 . S
C1246 C1247 1.367 . S
C1247 C1246 1.367 . S
C1247 C1249 1.433 . S
C1248 C1244 1.350 . S
C1248 C1245 1.463 . S
C1248 N1252 1.427 . S
C1249 H1239 0.929 . S
C1249 C1247 1.433 . S
C1249 N1252 1.384 . S
C1250 H1241 0.929 . S
C1250 C1242 1.378 . S
C1250 C1245 1.350 . S
C1251 H1238 0.929 . S
C1251 C1243 1.433 . S
C1251 N1253 1.384 . S
N1252 C1248 1.427 . S
N1252 C1249 1.384 . S
N1253 C1245 1.427 . S
N1253 C1251 1.384 . S
H1254 C1260 0.930 . S
H1255 C1264 0.930 . S
H1256 C1269 0.929 . S
H1257 C1267 0.929 . S
H1258 C1262 0.929 . S
H1259 C1268 0.929 . S
C1260 H1254 0.930 . S
C1260 C1261 1.367 . S
C1260 C1268 1.378 . S
C1261 C1260 1.367 . S
C1261 C1269 1.433 . S
C1262 H1258 0.929 . S
C1262 C1264 1.378 1_554 S
C1262 C1266 1.350 . S
C1263 C1266 1.463 . S
C1263 C1268 1.350 . S
C1263 N1271 1.427 . S
C1264 H1255 0.930 . S
C1264 C1262 1.378 1_556 S
C1264 C1265 1.367 . S
C1265 C1264 1.367 . S
C1265 C1267 1.433 . S
C1266 C1262 1.350 . S
C1266 C1263 1.463 . S
C1266 N1270 1.427 . S
C1267 H1257 0.929 . S
C1267 C1265 1.433 . S
C1267 N1270 1.384 1_556 S
C1268 H1259 0.929 . S
C1268 C1260 1.378 . S
C1268 C1263 1.350 . S
C1269 H1256 0.929 . S
C1269 C1261 1.433 . S
C1269 N1271 1.384 . S
N1270 C1266 1.427 . S
N1270 C1267 1.384 1_554 S
N1271 C1263 1.427 . S
N1271 C1269 1.384 . S
H1272 C1278 0.930 . S
H1273 C1282 0.930 . S
H1274 C1287 0.929 . S
H1275 C1285 0.929 . S
H1276 C1280 0.929 . S
H1277 C1286 0.929 . S
C1278 H1272 0.930 . S
C1278 C1279 1.367 . S
C1278 C1286 1.378 . S
C1279 C1278 1.367 . S
C1279 C1287 1.433 . S
C1280 H1276 0.929 . S
C1280 C1282 1.378 . S
C1280 C1284 1.350 . S
C1281 C1284 1.463 . S
C1281 C1286 1.350 . S
C1281 N1289 1.427 . S
C1282 H1273 0.930 . S
C1282 C1280 1.378 . S
C1282 C1283 1.367 . S
C1283 C1282 1.367 . S
C1283 C1285 1.433 . S
C1284 C1280 1.350 . S
C1284 C1281 1.463 . S
C1284 N1288 1.427 . S
C1285 H1275 0.929 . S
C1285 C1283 1.433 . S
C1285 N1288 1.384 . S
C1286 H1277 0.929 . S
C1286 C1278 1.378 . S
C1286 C1281 1.350 . S
C1287 H1274 0.929 . S
C1287 C1279 1.433 . S
C1287 N1289 1.384 . S
N1288 C1284 1.427 . S
N1288 C1285 1.384 . S
N1289 C1281 1.427 . S
N1289 C1287 1.384 . S
H1290 C1296 0.930 . S
H1291 C1300 0.930 . S
H1292 C1305 0.929 . S
H1293 C1303 0.929 . S
H1294 C1298 0.929 . S
H1295 C1304 0.929 . S
C1296 H1290 0.930 . S
C1296 C1297 1.367 . S
C1296 C1304 1.378 . S
C1297 C1296 1.367 . S
C1297 C1305 1.433 . S
C1298 H1294 0.929 . S
C1298 C1300 1.378 . S
C1298 C1302 1.350 . S
C1299 C1302 1.463 . S
C1299 C1304 1.350 . S
C1299 N1307 1.427 . S
C1300 H1291 0.930 . S
C1300 C1298 1.378 . S
C1300 C1301 1.367 . S
C1301 C1300 1.367 . S
C1301 C1303 1.433 . S
C1302 C1298 1.350 . S
C1302 C1299 1.463 . S
C1302 N1306 1.427 . S
C1303 H1293 0.929 . S
C1303 C1301 1.433 . S
C1303 N1306 1.384 . S
C1304 H1295 0.929 . S
C1304 C1296 1.378 . S
C1304 C1299 1.350 . S
C1305 H1292 0.929 . S
C1305 C1297 1.433 . S
C1305 N1307 1.384 . S
N1306 C1302 1.427 . S
N1306 C1303 1.384 . S
N1307 C1299 1.427 . S
N1307 C1305 1.384 . S
H1308 C1314 0.930 . S
H1309 C1318 0.930 . S
H1310 C1323 0.929 . S
H1311 C1321 0.929 . S
H1312 C1316 0.929 . S
H1313 C1322 0.929 . S
C1314 H1308 0.930 . S
C1314 C1315 1.367 . S
C1314 C1322 1.378 . S
C1315 C1314 1.367 . S
C1315 C1323 1.433 . S
C1316 H1312 0.929 . S
C1316 C1318 1.378 . S
C1316 C1320 1.350 . S
C1317 C1320 1.463 . S
C1317 C1322 1.350 . S
C1317 N1325 1.427 . S
C1318 H1309 0.930 . S
C1318 C1316 1.378 . S
C1318 C1319 1.367 . S
C1319 C1318 1.367 . S
C1319 C1321 1.433 . S
C1320 C1316 1.350 . S
C1320 C1317 1.463 . S
C1320 N1324 1.427 . S
C1321 H1311 0.929 . S
C1321 C1319 1.433 . S
C1321 N1324 1.384 . S
C1322 H1313 0.929 . S
C1322 C1314 1.378 . S
C1322 C1317 1.350 . S
C1323 H1310 0.929 . S
C1323 C1315 1.433 . S
C1323 N1325 1.384 . S
N1324 C1320 1.427 . S
N1324 C1321 1.384 . S
N1325 C1317 1.427 . S
N1325 C1323 1.384 . S
H1326 C1332 0.930 . S
H1327 C1336 0.930 . S
H1328 C1341 0.929 . S
H1329 C1339 0.929 . S
H1330 C1334 0.929 . S
H1331 C1340 0.929 . S
C1332 H1326 0.930 . S
C1332 C1333 1.367 . S
C1332 C1340 1.378 . S
C1333 C1332 1.367 . S
C1333 C1341 1.433 . S
C1334 H1330 0.929 . S
C1334 C1336 1.378 . S
C1334 C1338 1.350 . S
C1335 C1338 1.463 . S
C1335 C1340 1.350 1_554 S
C1335 N1343 1.427 . S
C1336 H1327 0.930 . S
C1336 C1334 1.378 . S
C1336 C1337 1.367 . S
C1337 C1336 1.367 . S
C1337 C1339 1.433 . S
C1338 C1334 1.350 . S
C1338 C1335 1.463 . S
C1338 N1342 1.427 . S
C1339 H1329 0.929 . S
C1339 C1337 1.433 . S
C1339 N1342 1.384 . S
C1340 H1331 0.929 . S
C1340 C1332 1.378 . S
C1340 C1335 1.350 1_556 S
C1341 H1328 0.929 . S
C1341 C1333 1.433 . S
C1341 N1343 1.384 1_556 S
N1342 C1338 1.427 . S
N1342 C1339 1.384 . S
N1343 C1335 1.427 . S
N1343 C1341 1.384 1_554 S
H1344 C1350 0.930 . S
H1345 C1354 0.930 . S
H1346 C1359 0.929 . S
H1347 C1357 0.929 . S
H1348 C1352 0.929 . S
H1349 C1358 0.929 . S
C1350 H1344 0.930 . S
C1350 C1351 1.367 . S
C1350 C1358 1.378 . S
C1351 C1350 1.367 . S
C1351 C1359 1.433 . S
C1352 H1348 0.929 . S
C1352 C1354 1.378 . S
C1352 C1356 1.350 . S
C1353 C1356 1.463 . S
C1353 C1358 1.350 . S
C1353 N1361 1.427 . S
C1354 H1345 0.930 . S
C1354 C1352 1.378 . S
C1354 C1355 1.367 . S
C1355 C1354 1.367 . S
C1355 C1357 1.433 . S
C1356 C1352 1.350 . S
C1356 C1353 1.463 . S
C1356 N1360 1.427 . S
C1357 H1347 0.929 . S
C1357 C1355 1.433 . S
C1357 N1360 1.384 . S
C1358 H1349 0.929 . S
C1358 C1350 1.378 . S
C1358 C1353 1.350 . S
C1359 H1346 0.929 . S
C1359 C1351 1.433 . S
C1359 N1361 1.384 . S
N1360 C1356 1.427 . S
N1360 C1357 1.384 . S
N1361 C1353 1.427 . S
N1361 C1359 1.384 . S
H1362 C1368 0.930 . S
H1363 C1372 0.930 . S
H1364 C1377 0.929 . S
H1365 C1375 0.929 . S
H1366 C1370 0.929 . S
H1367 C1376 0.929 . S
C1368 H1362 0.930 . S
C1368 C1369 1.367 . S
C1368 C1376 1.378 . S
C1369 C1368 1.367 . S
C1369 C1377 1.433 . S
C1370 H1366 0.929 . S
C1370 C1372 1.378 1_545 S
C1370 C1374 1.350 . S
C1371 C1374 1.463 . S
C1371 C1376 1.350 . S
C1371 N1379 1.427 . S
C1372 H1363 0.930 . S
C1372 C1370 1.378 1_565 S
C1372 C1373 1.367 . S
C1373 C1372 1.367 . S
C1373 C1375 1.433 . S
C1374 C1370 1.350 . S
C1374 C1371 1.463 . S
C1374 N1378 1.427 . S
C1375 H1365 0.929 . S
C1375 C1373 1.433 . S
C1375 N1378 1.384 1_565 S
C1376 H1367 0.929 . S
C1376 C1368 1.378 . S
C1376 C1371 1.350 . S
C1377 H1364 0.929 . S
C1377 C1369 1.433 . S
C1377 N1379 1.384 . S
N1378 C1374 1.427 . S
N1378 C1375 1.384 1_545 S
N1379 C1371 1.427 . S
N1379 C1377 1.384 . S
H1380 C1386 0.930 . S
H1381 C1390 0.930 . S
H1382 C1395 0.929 . S
H1383 C1393 0.929 . S
H1384 C1388 0.929 1_545 S
H1385 C1394 0.929 . S
C1386 H1380 0.930 . S
C1386 C1387 1.367 1_565 S
C1386 C1394 1.378 . S
C1387 C1386 1.367 1_545 S
C1387 C1395 1.433 . S
C1388 H1384 0.929 1_565 S
C1388 C1390 1.378 . S
C1388 C1392 1.350 . S
C1389 C1392 1.463 . S
C1389 C1394 1.350 . S
C1389 N1397 1.427 1_565 S
C1390 H1381 0.930 . S
C1390 C1388 1.378 . S
C1390 C1391 1.367 . S
C1391 C1390 1.367 . S
C1391 C1393 1.433 . S
C1392 C1388 1.350 . S
C1392 C1389 1.463 . S
C1392 N1396 1.427 . S
C1393 H1383 0.929 . S
C1393 C1391 1.433 . S
C1393 N1396 1.384 . S
C1394 H1385 0.929 . S
C1394 C1386 1.378 . S
C1394 C1389 1.350 . S
C1395 H1382 0.929 . S
C1395 C1387 1.433 . S
C1395 N1397 1.384 . S
N1396 C1392 1.427 . S
N1396 C1393 1.384 . S
N1397 C1389 1.427 1_545 S
N1397 C1395 1.384 . S
H1398 C1404 0.926 1_565 S
H1399 C1408 0.930 . S
H1400 C1413 0.929 . S
H1401 C1411 0.929 . S
H1402 C1406 0.929 . S
H1403 C1412 0.929 . S
C1404 H1398 0.926 1_545 S
C1404 C1405 1.345 1_544 S
C1404 C1412 1.405 . S
C1405 C1404 1.345 1_566 S
C1405 C1413 1.433 . S
C1406 H1402 0.929 . S
C1406 C1408 1.378 . S
C1406 C1410 1.350 . S
C1407 C1410 1.463 . S
C1407 C1412 1.350 1_556 S
C1407 N1415 1.427 . S
C1408 H1399 0.930 . S
C1408 C1406 1.378 . S
C1408 C1409 1.367 . S
C1409 C1408 1.367 . S
C1409 C1411 1.433 . S
C1410 C1406 1.350 . S
C1410 C1407 1.463 . S
C1410 N1414 1.427 . S
C1411 H1401 0.929 . S
C1411 C1409 1.433 . S
C1411 N1414 1.384 . S
C1412 H1403 0.929 . S
C1412 C1404 1.405 . S
C1412 C1407 1.350 1_554 S
C1413 H1400 0.929 . S
C1413 C1405 1.433 . S
C1413 N1415 1.384 1_565 S
N1414 C1410 1.427 . S
N1414 C1411 1.384 . S
N1415 C1407 1.427 . S
N1415 C1413 1.384 1_545 S
H1416 C1422 0.930 . S
H1417 C1426 0.930 . S
H1418 C1431 0.929 . S
H1419 C1429 0.929 . S
H1420 C1424 0.929 . S
H1421 C1430 0.929 . S
C1422 H1416 0.930 . S
C1422 C1423 1.367 . S
C1422 C1430 1.378 . S
C1423 C1422 1.367 . S
C1423 C1431 1.433 . S
C1424 H1420 0.929 . S
C1424 C1426 1.378 . S
C1424 C1428 1.350 . S
C1425 C1428 1.463 . S
C1425 C1430 1.350 . S
C1425 N1433 1.427 . S
C1426 H1417 0.930 . S
C1426 C1424 1.378 . S
C1426 C1427 1.367 . S
C1427 C1426 1.367 . S
C1427 C1429 1.433 . S
C1428 C1424 1.350 . S
C1428 C1425 1.463 . S
C1428 N1432 1.427 . S
C1429 H1419 0.929 . S
C1429 C1427 1.433 . S
C1429 N1432 1.384 . S
C1430 H1421 0.929 . S
C1430 C1422 1.378 . S
C1430 C1425 1.350 . S
C1431 H1418 0.929 . S
C1431 C1423 1.433 . S
C1431 N1433 1.384 . S
N1432 C1428 1.427 . S
N1432 C1429 1.384 . S
N1433 C1425 1.427 . S
N1433 C1431 1.384 . S
H1434 C1440 0.930 . S
H1435 C1444 0.930 1_565 S
H1436 C1449 0.929 . S
H1437 C1447 0.929 . S
H1438 C1442 0.929 . S
H1439 C1448 0.929 . S
C1440 H1434 0.930 . S
C1440 C1441 1.367 . S
C1440 C1448 1.378 . S
C1441 C1440 1.367 . S
C1441 C1449 1.433 . S
C1442 H1438 0.929 . S
C1442 C1444 1.379 . S
C1442 C1446 1.350 . S
C1443 C1446 1.463 . S
C1443 C1448 1.350 . S
C1443 N1451 1.427 . S
C1444 H1435 0.930 1_545 S
C1444 C1442 1.379 . S
C1444 C1445 1.366 1_545 S
C1445 C1444 1.366 1_565 S
C1445 C1447 1.433 . S
C1446 C1442 1.350 . S
C1446 C1443 1.463 . S
C1446 N1450 1.427 . S
C1447 H1437 0.929 . S
C1447 C1445 1.433 . S
C1447 N1450 1.384 1_565 S
C1448 H1439 0.929 . S
C1448 C1440 1.378 . S
C1448 C1443 1.350 . S
C1449 H1436 0.929 . S
C1449 C1441 1.433 . S
C1449 N1451 1.384 . S
N1450 C1446 1.427 . S
N1450 C1447 1.384 1_545 S
N1451 C1443 1.427 . S
N1451 C1449 1.384 . S
H1452 C1458 0.930 . S
H1453 C1462 0.930 . S
H1454 C1467 0.929 . S
H1455 C1465 0.929 . S
H1456 C1460 0.929 . S
H1457 C1466 0.929 . S
C1458 H1452 0.930 . S
C1458 C1459 1.367 . S
C1458 C1466 1.378 . S
C1459 C1458 1.367 . S
C1459 C1467 1.433 . S
C1460 H1456 0.929 . S
C1460 C1462 1.378 . S
C1460 C1464 1.350 . S
C1461 C1464 1.463 . S
C1461 C1466 1.350 . S
C1461 N1469 1.427 . S
C1462 H1453 0.930 . S
C1462 C1460 1.378 . S
C1462 C1463 1.367 . S
C1463 C1462 1.367 . S
C1463 C1465 1.433 . S
C1464 C1460 1.350 . S
C1464 C1461 1.463 . S
C1464 N1468 1.427 . S
C1465 H1455 0.929 . S
C1465 C1463 1.433 . S
C1465 N1468 1.384 . S
C1466 H1457 0.929 . S
C1466 C1458 1.378 . S
C1466 C1461 1.350 . S
C1467 H1454 0.929 . S
C1467 C1459 1.433 . S
C1467 N1469 1.384 . S
N1468 C1464 1.427 . S
N1468 C1465 1.384 . S
N1469 C1461 1.427 . S
N1469 C1467 1.384 . S
H1470 C1476 0.930 . S
H1471 C1480 0.930 . S
H1472 C1485 0.929 . S
H1473 C1483 0.929 . S
H1474 C1478 0.929 . S
H1475 C1484 0.929 . S
C1476 H1470 0.930 . S
C1476 C1477 1.367 . S
C1476 C1484 1.378 1_565 S
C1477 C1476 1.367 . S
C1477 C1485 1.433 . S
C1478 H1474 0.929 . S
C1478 C1480 1.378 . S
C1478 C1482 1.350 . S
C1479 C1482 1.463 . S
C1479 C1484 1.350 . S
C1479 N1487 1.427 . S
C1480 H1471 0.930 . S
C1480 C1478 1.378 . S
C1480 C1481 1.367 . S
C1481 C1480 1.367 . S
C1481 C1483 1.433 . S
C1482 C1478 1.350 . S
C1482 C1479 1.463 . S
C1482 N1486 1.427 . S
C1483 H1473 0.929 . S
C1483 C1481 1.433 . S
C1483 N1486 1.384 . S
C1484 H1475 0.929 . S
C1484 C1476 1.378 1_545 S
C1484 C1479 1.350 . S
C1485 H1472 0.929 . S
C1485 C1477 1.433 . S
C1485 N1487 1.384 1_565 S
N1486 C1482 1.427 . S
N1486 C1483 1.384 . S
N1487 C1479 1.427 . S
N1487 C1485 1.384 1_545 S
H1488 C1494 0.930 . S
H1489 C1498 0.930 . S
H1490 C1503 0.929 . S
H1491 C1501 0.929 . S
H1492 C1496 0.929 . S
H1493 C1502 0.929 . S
C1494 H1488 0.930 . S
C1494 C1495 1.367 . S
C1494 C1502 1.378 . S
C1495 C1494 1.367 . S
C1495 C1503 1.433 . S
C1496 H1492 0.929 . S
C1496 C1498 1.378 . S
C1496 C1500 1.350 . S
C1497 C1500 1.463 . S
C1497 C1502 1.350 . S
C1497 N1505 1.427 . S
C1498 H1489 0.930 . S
C1498 C1496 1.378 . S
C1498 C1499 1.367 . S
C1499 C1498 1.367 . S
C1499 C1501 1.433 . S
C1500 C1496 1.350 . S
C1500 C1497 1.463 . S
C1500 N1504 1.427 . S
C1501 H1491 0.929 . S
C1501 C1499 1.433 . S
C1501 N1504 1.384 . S
C1502 H1493 0.929 . S
C1502 C1494 1.378 . S
C1502 C1497 1.350 . S
C1503 H1490 0.929 . S
C1503 C1495 1.433 . S
C1503 N1505 1.384 . S
N1504 C1500 1.427 . S
N1504 C1501 1.384 . S
N1505 C1497 1.427 . S
N1505 C1503 1.384 . S
H1506 C1512 0.930 . S
H1507 C1516 0.930 . S
H1508 C1521 0.929 . S
H1509 C1519 0.929 . S
H1510 C1514 0.929 . S
H1511 C1520 0.929 . S
C1512 H1506 0.930 . S
C1512 C1513 1.367 . S
C1512 C1520 1.378 . S
C1513 C1512 1.367 . S
C1513 C1521 1.433 . S
C1514 H1510 0.929 . S
C1514 C1516 1.378 . S
C1514 C1518 1.350 . S
C1515 C1518 1.463 . S
C1515 C1520 1.350 . S
C1515 N1523 1.427 . S
C1516 H1507 0.930 . S
C1516 C1514 1.378 . S
C1516 C1517 1.367 . S
C1517 C1516 1.367 . S
C1517 C1519 1.433 . S
C1518 C1514 1.350 . S
C1518 C1515 1.463 . S
C1518 N1522 1.427 . S
C1519 H1509 0.929 . S
C1519 C1517 1.433 . S
C1519 N1522 1.384 . S
C1520 H1511 0.929 . S
C1520 C1512 1.378 . S
C1520 C1515 1.350 . S
C1521 H1508 0.929 . S
C1521 C1513 1.433 . S
C1521 N1523 1.384 . S
N1522 C1518 1.427 . S
N1522 C1519 1.384 . S
N1523 C1515 1.427 . S
N1523 C1521 1.384 . S
H1524 C1530 0.930 . S
H1525 C1534 0.930 . S
H1526 C1539 0.929 . S
H1527 C1537 0.929 . S
H1528 C1532 0.931 . S
H1529 C1538 0.929 . S
C1530 H1524 0.930 . S
C1530 C1531 1.367 . S
C1530 C1538 1.378 . S
C1531 C1530 1.367 . S
C1531 C1539 1.433 . S
C1532 H1528 0.931 . S
C1532 C1534 1.367 1_455 S
C1532 C1536 1.358 . S
C1533 C1536 1.463 . S
C1533 C1538 1.350 . S
C1533 N1541 1.427 . S
C1534 H1525 0.930 . S
C1534 C1532 1.367 1_655 S
C1534 C1535 1.367 . S
C1535 C1534 1.367 . S
C1535 C1537 1.433 . S
C1536 C1532 1.358 . S
C1536 C1533 1.463 . S
C1536 N1540 1.427 . S
C1537 H1527 0.929 . S
C1537 C1535 1.433 . S
C1537 N1540 1.384 1_655 S
C1538 H1529 0.929 . S
C1538 C1530 1.378 . S
C1538 C1533 1.350 . S
C1539 H1526 0.929 . S
C1539 C1531 1.433 . S
C1539 N1541 1.384 . S
N1540 C1536 1.427 . S
N1540 C1537 1.384 1_455 S
N1541 C1533 1.427 . S
N1541 C1539 1.384 . S
H1542 C1548 0.930 . S
H1543 C1552 0.930 . S
H1544 C1557 0.929 . S
H1545 C1555 0.929 . S
H1546 C1550 0.929 . S
H1547 C1556 0.929 . S
C1548 H1542 0.930 . S
C1548 C1549 1.367 . S
C1548 C1556 1.378 . S
C1549 C1548 1.367 . S
C1549 C1557 1.433 . S
C1550 H1546 0.929 . S
C1550 C1552 1.378 . S
C1550 C1554 1.350 . S
C1551 C1554 1.463 . S
C1551 C1556 1.350 . S
C1551 N1559 1.427 . S
C1552 H1543 0.930 . S
C1552 C1550 1.378 . S
C1552 C1553 1.367 . S
C1553 C1552 1.367 . S
C1553 C1555 1.433 . S
C1554 C1550 1.350 . S
C1554 C1551 1.463 . S
C1554 N1558 1.427 . S
C1555 H1545 0.929 . S
C1555 C1553 1.433 . S
C1555 N1558 1.384 . S
C1556 H1547 0.929 . S
C1556 C1548 1.378 . S
C1556 C1551 1.350 . S
C1557 H1544 0.929 . S
C1557 C1549 1.433 . S
C1557 N1559 1.384 . S
N1558 C1554 1.427 . S
N1558 C1555 1.384 . S
N1559 C1551 1.427 . S
N1559 C1557 1.384 . S
H1560 C1566 0.930 . S
H1561 C1570 0.930 . S
H1562 C1575 0.929 . S
H1563 C1573 0.929 . S
H1564 C1568 0.929 . S
H1565 C1574 0.929 . S
C1566 H1560 0.930 . S
C1566 C1567 1.367 . S
C1566 C1574 1.378 . S
C1567 C1566 1.367 . S
C1567 C1575 1.433 . S
C1568 H1564 0.929 . S
C1568 C1570 1.378 . S
C1568 C1572 1.350 . S
C1569 C1572 1.463 1_655 S
C1569 C1574 1.350 . S
C1569 N1577 1.427 . S
C1570 H1561 0.930 . S
C1570 C1568 1.378 . S
C1570 C1571 1.367 . S
C1571 C1570 1.367 . S
C1571 C1573 1.433 . S
C1572 C1568 1.350 . S
C1572 C1569 1.463 1_455 S
C1572 N1576 1.427 . S
C1573 H1563 0.929 . S
C1573 C1571 1.433 . S
C1573 N1576 1.384 . S
C1574 H1565 0.929 . S
C1574 C1566 1.378 . S
C1574 C1569 1.350 . S
C1575 H1562 0.929 . S
C1575 C1567 1.433 . S
C1575 N1577 1.384 . S
N1576 C1572 1.427 . S
N1576 C1573 1.384 . S
N1577 C1569 1.427 . S
N1577 C1575 1.384 . S
H1578 C1584 0.930 . S
H1579 C1588 0.930 . S
H1580 C1593 0.929 . S
H1581 C1591 0.929 . S
H1582 C1586 0.929 . S
H1583 C1592 0.929 . S
C1584 H1578 0.930 . S
C1584 C1585 1.367 . S
C1584 C1592 1.378 . S
C1585 C1584 1.367 . S
C1585 C1593 1.433 . S
C1586 H1582 0.929 . S
C1586 C1588 1.378 . S
C1586 C1590 1.350 . S
C1587 C1590 1.463 . S
C1587 C1592 1.350 . S
C1587 N1595 1.427 . S
C1588 H1579 0.930 . S
C1588 C1586 1.378 . S
C1588 C1589 1.367 . S
C1589 C1588 1.367 . S
C1589 C1591 1.433 . S
C1590 C1586 1.350 . S
C1590 C1587 1.463 . S
C1590 N1594 1.427 . S
C1591 H1581 0.929 . S
C1591 C1589 1.433 . S
C1591 N1594 1.384 . S
C1592 H1583 0.929 . S
C1592 C1584 1.378 . S
C1592 C1587 1.350 . S
C1593 H1580 0.929 . S
C1593 C1585 1.433 . S
C1593 N1595 1.384 . S
N1594 C1590 1.427 . S
N1594 C1591 1.384 . S
N1595 C1587 1.427 . S
N1595 C1593 1.384 . S
H1596 C1602 0.930 . S
H1597 C1606 0.930 . S
H1598 C1611 0.929 . S
H1599 C1609 0.929 . S
H1600 C1604 0.929 . S
H1601 C1610 0.929 . S
C1602 H1596 0.930 . S
C1602 C1603 1.367 . S
C1602 C1610 1.378 . S
C1603 C1602 1.367 . S
C1603 C1611 1.433 . S
C1604 H1600 0.929 . S
C1604 C1606 1.378 . S
C1604 C1608 1.350 1_655 S
C1605 C1608 1.463 . S
C1605 C1610 1.350 . S
C1605 N1613 1.427 . S
C1606 H1597 0.930 . S
C1606 C1604 1.378 . S
C1606 C1607 1.367 . S
C1607 C1606 1.367 . S
C1607 C1609 1.433 . S
C1608 C1604 1.350 1_455 S
C1608 C1605 1.463 . S
C1608 N1612 1.427 . S
C1609 H1599 0.929 . S
C1609 C1607 1.433 . S
C1609 N1612 1.384 1_655 S
C1610 H1601 0.929 . S
C1610 C1602 1.378 . S
C1610 C1605 1.350 . S
C1611 H1598 0.929 . S
C1611 C1603 1.433 . S
C1611 N1613 1.384 . S
N1612 C1608 1.427 . S
N1612 C1609 1.384 1_455 S
N1613 C1605 1.427 . S
N1613 C1611 1.384 . S
H1614 C1620 0.930 . S
H1615 C1624 0.930 . S
H1616 C1629 0.929 . S
H1617 C1627 0.929 . S
H1618 C1622 0.929 . S
H1619 C1628 0.929 . S
C1620 H1614 0.930 . S
C1620 C1621 1.367 . S
C1620 C1628 1.378 . S
C1621 C1620 1.367 . S
C1621 C1629 1.433 . S
C1622 H1618 0.929 . S
C1622 C1624 1.378 . S
C1622 C1626 1.350 . S
C1623 C1626 1.463 . S
C1623 C1628 1.350 . S
C1623 N1631 1.427 . S
C1624 H1615 0.930 . S
C1624 C1622 1.378 . S
C1624 C1625 1.367 . S
C1625 C1624 1.367 . S
C1625 C1627 1.433 . S
C1626 C1622 1.350 . S
C1626 C1623 1.463 . S
C1626 N1630 1.427 . S
C1627 H1617 0.929 . S
C1627 C1625 1.433 . S
C1627 N1630 1.384 . S
C1628 H1619 0.929 . S
C1628 C1620 1.378 . S
C1628 C1623 1.350 . S
C1629 H1616 0.929 . S
C1629 C1621 1.433 . S
C1629 N1631 1.384 . S
N1630 C1626 1.427 . S
N1630 C1627 1.384 . S
N1631 C1623 1.427 . S
N1631 C1629 1.384 . S
H1632 C1638 0.930 . S
H1633 C1642 0.930 . S
H1634 C1647 0.929 . S
H1635 C1645 0.929 . S
H1636 C1640 0.929 . S
H1637 C1646 0.929 . S
C1638 H1632 0.930 . S
C1638 C1639 1.367 . S
C1638 C1646 1.378 . S
C1639 C1638 1.367 . S
C1639 C1647 1.433 . S
C1640 H1636 0.929 . S
C1640 C1642 1.378 . S
C1640 C1644 1.350 . S
C1641 C1644 1.463 . S
C1641 C1646 1.350 . S
C1641 N1649 1.427 . S
C1642 H1633 0.930 . S
C1642 C1640 1.378 . S
C1642 C1643 1.367 . S
C1643 C1642 1.367 . S
C1643 C1645 1.433 . S
C1644 C1640 1.350 . S
C1644 C1641 1.463 . S
C1644 N1648 1.427 . S
C1645 H1635 0.929 . S
C1645 C1643 1.433 . S
C1645 N1648 1.384 . S
C1646 H1637 0.929 . S
C1646 C1638 1.378 . S
C1646 C1641 1.350 . S
C1647 H1634 0.929 . S
C1647 C1639 1.433 . S
C1647 N1649 1.384 . S
N1648 C1644 1.427 . S
N1648 C1645 1.384 . S
N1649 C1641 1.427 . S
N1649 C1647 1.384 . S
H1650 C1656 0.930 . S
H1651 C1660 0.930 . S
H1652 C1665 0.929 1_455 S
H1653 C1663 0.929 . S
H1654 C1658 0.929 . S
H1655 C1664 0.929 . S
C1656 H1650 0.930 . S
C1656 C1657 1.367 . S
C1656 C1664 1.378 . S
C1657 C1656 1.367 . S
C1657 C1665 1.433 . S
C1658 H1654 0.929 . S
C1658 C1660 1.378 . S
C1658 C1662 1.350 . S
C1659 C1662 1.463 . S
C1659 C1664 1.350 . S
C1659 N1667 1.427 . S
C1660 H1651 0.930 . S
C1660 C1658 1.378 . S
C1660 C1661 1.367 . S
C1661 C1660 1.367 . S
C1661 C1663 1.433 . S
C1662 C1658 1.350 . S
C1662 C1659 1.463 . S
C1662 N1666 1.427 . S
C1663 H1653 0.929 . S
C1663 C1661 1.433 . S
C1663 N1666 1.384 . S
C1664 H1655 0.929 . S
C1664 C1656 1.378 . S
C1664 C1659 1.350 . S
C1665 H1652 0.929 1_655 S
C1665 C1657 1.433 . S
C1665 N1667 1.384 . S
N1666 C1662 1.427 . S
N1666 C1663 1.384 . S
N1667 C1659 1.427 . S
N1667 C1665 1.384 . S
H1668 C1674 0.930 . S
H1669 C1678 0.930 . S
H1670 C1683 0.929 . S
H1671 C1681 0.929 . S
H1672 C1676 0.929 . S
H1673 C1682 0.929 . S
C1674 H1668 0.930 . S
C1674 C1675 1.367 . S
C1674 C1682 1.378 . S
C1675 C1674 1.367 . S
C1675 C1683 1.433 . S
C1676 H1672 0.929 . S
C1676 C1678 1.378 . S
C1676 C1680 1.350 . S
C1677 C1680 1.463 . S
C1677 C1682 1.350 . S
C1677 N1685 1.427 . S
C1678 H1669 0.930 . S
C1678 C1676 1.378 . S
C1678 C1679 1.367 . S
C1679 C1678 1.367 . S
C1679 C1681 1.433 . S
C1680 C1676 1.350 . S
C1680 C1677 1.463 . S
C1680 N1684 1.427 . S
C1681 H1671 0.929 . S
C1681 C1679 1.433 . S
C1681 N1684 1.384 . S
C1682 H1673 0.929 . S
C1682 C1674 1.378 . S
C1682 C1677 1.350 . S
C1683 H1670 0.929 . S
C1683 C1675 1.433 . S
C1683 N1685 1.384 . S
N1684 C1680 1.427 . S
N1684 C1681 1.384 . S
N1685 C1677 1.427 . S
N1685 C1683 1.384 . S
H1686 C1692 0.930 . S
H1687 C1696 0.930 . S
H1688 C1701 0.929 . S
H1689 C1699 0.929 . S
H1690 C1694 0.929 . S
H1691 C1700 0.929 . S
C1692 H1686 0.930 . S
C1692 C1693 1.367 . S
C1692 C1700 1.378 . S
C1693 C1692 1.367 . S
C1693 C1701 1.433 . S
C1694 H1690 0.929 . S
C1694 C1696 1.378 . S
C1694 C1698 1.350 . S
C1695 C1698 1.463 1_556 S
C1695 C1700 1.350 . S
C1695 N1703 1.427 . S
C1696 H1687 0.930 . S
C1696 C1694 1.378 . S
C1696 C1697 1.367 . S
C1697 C1696 1.367 . S
C1697 C1699 1.433 . S
C1698 C1694 1.350 . S
C1698 C1695 1.463 1_554 S
C1698 N1702 1.427 . S
C1699 H1689 0.929 . S
C1699 C1697 1.433 . S
C1699 N1702 1.384 . S
C1700 H1691 0.929 . S
C1700 C1692 1.378 . S
C1700 C1695 1.350 . S
C1701 H1688 0.929 . S
C1701 C1693 1.433 . S
C1701 N1703 1.384 . S
N1702 C1698 1.427 . S
N1702 C1699 1.384 . S
N1703 C1695 1.427 . S
N1703 C1701 1.384 . S
H1704 C1710 0.932 . S
H1705 C1714 0.930 . S
H1706 C1719 0.929 . S
H1707 C1717 0.929 . S
H1708 C1712 0.929 . S
H1709 C1718 0.929 . S
C1710 H1704 0.932 . S
C1710 C1711 1.367 . S
C1710 C1718 1.378 . S
C1711 C1710 1.367 . S
C1711 C1719 1.433 . S
C1712 H1708 0.929 . S
C1712 C1714 1.378 . S
C1712 C1716 1.350 . S
C1713 C1716 1.463 . S
C1713 C1718 1.350 . S
C1713 N1721 1.427 . S
C1714 H1705 0.930 . S
C1714 C1712 1.378 . S
C1714 C1715 1.367 . S
C1715 C1714 1.367 . S
C1715 C1717 1.433 . S
C1716 C1712 1.350 . S
C1716 C1713 1.463 . S
C1716 N1720 1.427 . S
C1717 H1707 0.929 . S
C1717 C1715 1.433 . S
C1717 N1720 1.384 . S
C1718 H1709 0.929 . S
C1718 C1710 1.378 . S
C1718 C1713 1.350 . S
C1719 H1706 0.929 . S
C1719 C1711 1.433 . S
C1719 N1721 1.384 . S
N1720 C1716 1.427 . S
N1720 C1717 1.384 . S
N1721 C1713 1.427 . S
N1721 C1719 1.384 . S
H1722 C1728 0.930 . S
H1723 C1732 0.930 . S
H1724 C1737 0.929 . S
H1725 C1735 0.929 . S
H1726 C1730 0.929 . S
H1727 C1736 0.929 . S
C1728 H1722 0.930 . S
C1728 C1729 1.367 . S
C1728 C1736 1.378 . S
C1729 C1728 1.367 . S
C1729 C1737 1.433 . S
C1730 H1726 0.929 . S
C1730 C1732 1.378 . S
C1730 C1734 1.350 . S
C1731 C1734 1.463 . S
C1731 C1736 1.350 . S
C1731 N1739 1.427 . S
C1732 H1723 0.930 . S
C1732 C1730 1.378 . S
C1732 C1733 1.367 . S
C1733 C1732 1.367 . S
C1733 C1735 1.433 . S
C1734 C1730 1.350 . S
C1734 C1731 1.463 . S
C1734 N1738 1.427 . S
C1735 H1725 0.929 . S
C1735 C1733 1.433 . S
C1735 N1738 1.384 . S
C1736 H1727 0.929 . S
C1736 C1728 1.378 . S
C1736 C1731 1.350 . S
C1737 H1724 0.929 . S
C1737 C1729 1.433 . S
C1737 N1739 1.384 . S
N1738 C1734 1.427 . S
N1738 C1735 1.384 . S
N1739 C1731 1.427 . S
N1739 C1737 1.384 . S
H1740 C1746 0.930 . S
H1741 C1750 0.930 . S
H1742 C1755 0.929 . S
H1743 C1753 0.929 . S
H1744 C1748 0.929 . S
H1745 C1754 0.929 . S
C1746 H1740 0.930 . S
C1746 C1747 1.367 . S
C1746 C1754 1.378 . S
C1747 C1746 1.367 . S
C1747 C1755 1.433 . S
C1748 H1744 0.929 . S
C1748 C1750 1.378 . S
C1748 C1752 1.350 . S
C1749 C1752 1.463 . S
C1749 C1754 1.350 . S
C1749 N1757 1.427 . S
C1750 H1741 0.930 . S
C1750 C1748 1.378 . S
C1750 C1751 1.367 . S
C1751 C1750 1.367 . S
C1751 C1753 1.433 . S
C1752 C1748 1.350 . S
C1752 C1749 1.463 . S
C1752 N1756 1.427 . S
C1753 H1743 0.929 . S
C1753 C1751 1.433 . S
C1753 N1756 1.384 . S
C1754 H1745 0.929 . S
C1754 C1746 1.378 . S
C1754 C1749 1.350 . S
C1755 H1742 0.929 . S
C1755 C1747 1.433 . S
C1755 N1757 1.384 . S
N1756 C1752 1.427 . S
N1756 C1753 1.384 . S
N1757 C1749 1.427 . S
N1757 C1755 1.384 . S
H1758 C1764 0.930 . S
H1759 C1768 0.930 . S
H1760 C1773 0.929 . S
H1761 C1771 0.929 . S
H1762 C1766 0.929 1_554 S
H1763 C1772 0.929 . S
C1764 H1758 0.930 . S
C1764 C1765 1.367 . S
C1764 C1772 1.378 . S
C1765 C1764 1.367 . S
C1765 C1773 1.433 . S
C1766 H1762 0.929 1_556 S
C1766 C1768 1.378 . S
C1766 C1770 1.350 1_556 S
C1767 C1770 1.463 . S
C1767 C1772 1.350 . S
C1767 N1775 1.427 . S
C1768 H1759 0.930 . S
C1768 C1766 1.378 . S
C1768 C1769 1.367 . S
C1769 C1768 1.367 . S
C1769 C1771 1.433 . S
C1770 C1766 1.350 1_554 S
C1770 C1767 1.463 . S
C1770 N1774 1.427 1_554 S
C1771 H1761 0.929 . S
C1771 C1769 1.433 . S
C1771 N1774 1.384 . S
C1772 H1763 0.929 . S
C1772 C1764 1.378 . S
C1772 C1767 1.350 . S
C1773 H1760 0.929 . S
C1773 C1765 1.433 . S
C1773 N1775 1.384 . S
N1774 C1770 1.427 1_556 S
N1774 C1771 1.384 . S
N1775 C1767 1.427 . S
N1775 C1773 1.384 . S
H1776 C1782 0.938 . S
H1777 C1786 0.930 . S
H1778 C1791 0.929 . S
H1779 C1789 0.929 . S
H1780 C1784 0.929 1_545 S
H1781 C1790 0.929 . S
C1782 H1776 0.938 . S
C1782 C1783 1.343 1_565 S
C1782 C1790 1.394 . S
C1783 C1782 1.343 1_545 S
C1783 C1791 1.433 . S
C1784 H1780 0.929 1_565 S
C1784 C1786 1.378 . S
C1784 C1788 1.350 . S
C1785 C1788 1.463 . S
C1785 C1790 1.350 . S
C1785 N1793 1.427 1_565 S
C1786 H1777 0.930 . S
C1786 C1784 1.378 . S
C1786 C1787 1.367 . S
C1787 C1786 1.367 . S
C1787 C1789 1.433 . S
C1788 C1784 1.350 . S
C1788 C1785 1.463 . S
C1788 N1792 1.427 . S
C1789 H1779 0.929 . S
C1789 C1787 1.433 . S
C1789 N1792 1.384 . S
C1790 H1781 0.929 . S
C1790 C1782 1.394 . S
C1790 C1785 1.350 . S
C1791 H1778 0.929 . S
C1791 C1783 1.433 . S
C1791 N1793 1.384 . S
N1792 C1788 1.427 . S
N1792 C1789 1.384 . S
N1793 C1785 1.427 1_545 S
N1793 C1791 1.384 . S
H1794 C1800 0.925 1_565 S
H1795 C1804 0.930 . S
H1796 C1809 0.929 . S
H1797 C1807 0.929 . S
H1798 C1802 0.929 . S
H1799 C1808 0.929 . S
C1800 H1794 0.925 1_545 S
C1800 C1801 1.367 1_545 S
C1800 C1808 1.378 . S
C1801 C1800 1.367 1_565 S
C1801 C1809 1.433 . S
C1802 H1798 0.929 . S
C1802 C1804 1.378 . S
C1802 C1806 1.350 . S
C1803 C1806 1.463 . S
C1803 C1808 1.350 . S
C1803 N1811 1.427 . S
C1804 H1795 0.930 . S
C1804 C1802 1.378 . S
C1804 C1805 1.367 . S
C1805 C1804 1.367 . S
C1805 C1807 1.433 . S
C1806 C1802 1.350 . S
C1806 C1803 1.463 . S
C1806 N1810 1.427 . S
C1807 H1797 0.929 . S
C1807 C1805 1.433 . S
C1807 N1810 1.384 . S
C1808 H1799 0.929 . S
C1808 C1800 1.378 . S
C1808 C1803 1.350 . S
C1809 H1796 0.929 . S
C1809 C1801 1.433 . S
C1809 N1811 1.384 1_565 S
N1810 C1806 1.427 . S
N1810 C1807 1.384 . S
N1811 C1803 1.427 . S
N1811 C1809 1.384 1_545 S
H1812 C1818 0.930 . S
H1813 C1822 0.930 . S
H1814 C1827 0.929 . S
H1815 C1825 0.929 . S
H1816 C1820 0.929 . S
H1817 C1826 0.929 . S
C1818 H1812 0.930 . S
C1818 C1819 1.367 . S
C1818 C1826 1.378 . S
C1819 C1818 1.367 . S
C1819 C1827 1.433 . S
C1820 H1816 0.929 . S
C1820 C1822 1.378 . S
C1820 C1824 1.350 . S
C1821 C1824 1.463 . S
C1821 C1826 1.350 . S
C1821 N1829 1.427 . S
C1822 H1813 0.930 . S
C1822 C1820 1.378 . S
C1822 C1823 1.367 . S
C1823 C1822 1.367 . S
C1823 C1825 1.433 . S
C1824 C1820 1.350 . S
C1824 C1821 1.463 . S
C1824 N1828 1.427 . S
C1825 H1815 0.929 . S
C1825 C1823 1.433 . S
C1825 N1828 1.384 . S
C1826 H1817 0.929 . S
C1826 C1818 1.378 . S
C1826 C1821 1.350 . S
C1827 H1814 0.929 . S
C1827 C1819 1.433 . S
C1827 N1829 1.384 . S
N1828 C1824 1.427 . S
N1828 C1825 1.384 . S
N1829 C1821 1.427 . S
N1829 C1827 1.384 . S
H1830 C1836 0.930 . S
H1831 C1840 0.930 . S
H1832 C1845 0.929 . S
H1833 C1843 0.929 . S
H1834 C1838 0.929 . S
H1835 C1844 0.929 . S
C1836 H1830 0.930 . S
C1836 C1837 1.367 . S
C1836 C1844 1.378 . S
C1837 C1836 1.367 . S
C1837 C1845 1.433 . S
C1838 H1834 0.929 . S
C1838 C1840 1.378 1_545 S
C1838 C1842 1.350 . S
C1839 C1842 1.463 . S
C1839 C1844 1.350 . S
C1839 N1847 1.427 . S
C1840 H1831 0.930 . S
C1840 C1838 1.378 1_565 S
C1840 C1841 1.367 . S
C1841 C1840 1.367 . S
C1841 C1843 1.433 . S
C1842 C1838 1.350 . S
C1842 C1839 1.463 . S
C1842 N1846 1.427 . S
C1843 H1833 0.929 . S
C1843 C1841 1.433 . S
C1843 N1846 1.384 1_565 S
C1844 H1835 0.929 . S
C1844 C1836 1.378 . S
C1844 C1839 1.350 . S
C1845 H1832 0.929 . S
C1845 C1837 1.433 . S
C1845 N1847 1.384 . S
N1846 C1842 1.427 . S
N1846 C1843 1.384 1_545 S
N1847 C1839 1.427 . S
N1847 C1845 1.384 . S
H1848 C1854 0.930 . S
H1849 C1858 0.930 . S
H1850 C1863 0.929 . S
H1851 C1861 0.929 . S
H1852 C1856 0.929 . S
H1853 C1862 0.929 . S
C1854 H1848 0.930 . S
C1854 C1855 1.367 . S
C1854 C1862 1.378 . S
C1855 C1854 1.367 . S
C1855 C1863 1.433 . S
C1856 H1852 0.929 . S
C1856 C1858 1.378 . S
C1856 C1860 1.350 . S
C1857 C1860 1.463 . S
C1857 C1862 1.350 . S
C1857 N1865 1.427 . S
C1858 H1849 0.930 . S
C1858 C1856 1.378 . S
C1858 C1859 1.367 . S
C1859 C1858 1.367 . S
C1859 C1861 1.433 . S
C1860 C1856 1.350 . S
C1860 C1857 1.463 . S
C1860 N1864 1.427 . S
C1861 H1851 0.929 . S
C1861 C1859 1.433 . S
C1861 N1864 1.384 . S
C1862 H1853 0.929 . S
C1862 C1854 1.378 . S
C1862 C1857 1.350 . S
C1863 H1850 0.929 . S
C1863 C1855 1.433 . S
C1863 N1865 1.384 . S
N1864 C1860 1.427 . S
N1864 C1861 1.384 . S
N1865 C1857 1.427 . S
N1865 C1863 1.384 . S
H1866 C1872 0.930 . S
H1867 C1876 0.930 . S
H1868 C1881 0.929 . S
H1869 C1879 0.929 . S
H1870 C1874 0.929 . S
H1871 C1880 0.928 . S
C1872 H1866 0.930 . S
C1872 C1873 1.367 . S
C1872 C1880 1.380 1_565 S
C1873 C1872 1.367 . S
C1873 C1881 1.433 . S
C1874 H1870 0.929 . S
C1874 C1876 1.378 . S
C1874 C1878 1.350 . S
C1875 C1878 1.463 . S
C1875 C1880 1.348 . S
C1875 N1883 1.427 . S
C1876 H1867 0.930 . S
C1876 C1874 1.378 . S
C1876 C1877 1.367 . S
C1877 C1876 1.367 . S
C1877 C1879 1.433 . S
C1878 C1874 1.350 . S
C1878 C1875 1.463 . S
C1878 N1882 1.427 . S
C1879 H1869 0.929 . S
C1879 C1877 1.433 . S
C1879 N1882 1.384 . S
C1880 H1871 0.928 . S
C1880 C1872 1.380 1_545 S
C1880 C1875 1.348 . S
C1881 H1868 0.929 . S
C1881 C1873 1.433 . S
C1881 N1883 1.384 1_565 S
N1882 C1878 1.427 . S
N1882 C1879 1.384 . S
N1883 C1875 1.427 . S
N1883 C1881 1.384 1_545 S
H1884 C1890 0.930 . S
H1885 C1894 0.930 . S
H1886 C1899 0.929 . S
H1887 C1897 0.929 . S
H1888 C1892 0.929 . S
H1889 C1898 0.929 . S
C1890 H1884 0.930 . S
C1890 C1891 1.367 . S
C1890 C1898 1.378 . S
C1891 C1890 1.367 . S
C1891 C1899 1.433 . S
C1892 H1888 0.929 . S
C1892 C1894 1.378 . S
C1892 C1896 1.350 . S
C1893 C1896 1.463 . S
C1893 C1898 1.350 . S
C1893 N1901 1.427 . S
C1894 H1885 0.930 . S
C1894 C1892 1.378 . S
C1894 C1895 1.367 . S
C1895 C1894 1.367 . S
C1895 C1897 1.433 . S
C1896 C1892 1.350 . S
C1896 C1893 1.463 . S
C1896 N1900 1.427 . S
C1897 H1887 0.929 . S
C1897 C1895 1.433 . S
C1897 N1900 1.384 . S
C1898 H1889 0.929 . S
C1898 C1890 1.378 . S
C1898 C1893 1.350 . S
C1899 H1886 0.929 . S
C1899 C1891 1.433 . S
C1899 N1901 1.384 . S
N1900 C1896 1.427 . S
N1900 C1897 1.384 . S
N1901 C1893 1.427 . S
N1901 C1899 1.384 . S
H1902 C1908 0.930 . S
H1903 C1912 0.930 . S
H1904 C1917 0.929 . S
H1905 C1915 0.929 . S
H1906 C1910 0.929 . S
H1907 C1916 0.929 . S
C1908 H1902 0.930 . S
C1908 C1909 1.367 . S
C1908 C1916 1.378 . S
C1909 C1908 1.367 . S
C1909 C1917 1.433 . S
C1910 H1906 0.929 . S
C1910 C1912 1.378 1_545 S
C1910 C1914 1.350 . S
C1911 C1914 1.463 . S
C1911 C1916 1.350 . S
C1911 N1919 1.427 . S
C1912 H1903 0.930 . S
C1912 C1910 1.378 1_565 S
C1912 C1913 1.367 . S
C1913 C1912 1.367 . S
C1913 C1915 1.433 1_565 S
C1914 C1910 1.350 . S
C1914 C1911 1.463 . S
C1914 N1918 1.427 . S
C1915 H1905 0.929 . S
C1915 C1913 1.433 1_545 S
C1915 N1918 1.384 . S
C1916 H1907 0.929 . S
C1916 C1908 1.378 . S
C1916 C1911 1.350 . S
C1917 H1904 0.929 . S
C1917 C1909 1.433 . S
C1917 N1919 1.384 . S
N1918 C1914 1.427 . S
N1918 C1915 1.384 . S
N1919 C1911 1.427 . S
N1919 C1917 1.384 . S
H1920 C1926 0.930 . S
H1921 C1930 0.930 . S
H1922 C1935 0.929 1_554 S
H1923 C1933 0.929 . S
H1924 C1928 0.929 . S
H1925 C1934 0.929 . S
C1926 H1920 0.930 . S
C1926 C1927 1.367 . S
C1926 C1934 1.378 . S
C1927 C1926 1.367 . S
C1927 C1935 1.433 . S
C1928 H1924 0.929 . S
C1928 C1930 1.378 . S
C1928 C1932 1.350 . S
C1929 C1932 1.463 . S
C1929 C1934 1.350 . S
C1929 N1937 1.427 . S
C1930 H1921 0.930 . S
C1930 C1928 1.378 . S
C1930 C1931 1.367 . S
C1931 C1930 1.367 . S
C1931 C1933 1.433 . S
C1932 C1928 1.350 . S
C1932 C1929 1.463 . S
C1932 N1936 1.427 . S
C1933 H1923 0.929 . S
C1933 C1931 1.433 . S
C1933 N1936 1.384 . S
C1934 H1925 0.929 . S
C1934 C1926 1.378 . S
C1934 C1929 1.350 . S
C1935 H1922 0.929 1_556 S
C1935 C1927 1.433 . S
C1935 N1937 1.384 . S
N1936 C1932 1.427 . S
N1936 C1933 1.384 . S
N1937 C1929 1.427 . S
N1937 C1935 1.384 . S
H1938 C1944 0.930 . S
H1939 C1948 0.930 . S
H1940 C1953 0.929 . S
H1941 C1951 0.929 . S
H1942 C1946 0.929 . S
H1943 C1952 0.929 . S
C1944 H1938 0.930 . S
C1944 C1945 1.367 . S
C1944 C1952 1.378 . S
C1945 C1944 1.367 . S
C1945 C1953 1.433 . S
C1946 H1942 0.929 . S
C1946 C1948 1.378 . S
C1946 C1950 1.350 . S
C1947 C1950 1.463 . S
C1947 C1952 1.350 . S
C1947 N1955 1.427 . S
C1948 H1939 0.930 . S
C1948 C1946 1.378 . S
C1948 C1949 1.367 . S
C1949 C1948 1.367 . S
C1949 C1951 1.433 . S
C1950 C1946 1.350 . S
C1950 C1947 1.463 . S
C1950 N1954 1.427 . S
C1951 H1941 0.929 . S
C1951 C1949 1.433 . S
C1951 N1954 1.384 . S
C1952 H1943 0.929 . S
C1952 C1944 1.378 . S
C1952 C1947 1.350 . S
C1953 H1940 0.929 . S
C1953 C1945 1.433 . S
C1953 N1955 1.384 . S
N1954 C1950 1.427 . S
N1954 C1951 1.384 . S
N1955 C1947 1.427 . S
N1955 C1953 1.384 . S
H1956 C1962 0.930 . S
H1957 C1966 0.930 . S
H1958 C1971 0.929 . S
H1959 C1969 0.929 . S
H1960 C1964 0.929 1_655 S
H1961 C1970 0.929 1_455 S
C1962 H1956 0.930 . S
C1962 C1963 1.367 . S
C1962 C1970 1.378 . S
C1963 C1962 1.367 . S
C1963 C1971 1.433 . S
C1964 H1960 0.929 1_455 S
C1964 C1966 1.378 . S
C1964 C1968 1.350 . S
C1965 C1968 1.463 1_655 S
C1965 C1970 1.350 . S
C1965 N1973 1.427 . S
C1966 H1957 0.930 . S
C1966 C1964 1.378 . S
C1966 C1967 1.367 . S
C1967 C1966 1.367 . S
C1967 C1969 1.433 . S
C1968 C1964 1.350 . S
C1968 C1965 1.463 1_455 S
C1968 N1972 1.427 . S
C1969 H1959 0.929 . S
C1969 C1967 1.433 . S
C1969 N1972 1.384 . S
C1970 H1961 0.929 1_655 S
C1970 C1962 1.378 . S
C1970 C1965 1.350 . S
C1971 H1958 0.929 . S
C1971 C1963 1.433 . S
C1971 N1973 1.384 . S
N1972 C1968 1.427 . S
N1972 C1969 1.384 . S
N1973 C1965 1.427 . S
N1973 C1971 1.384 . S
H1974 C1980 0.930 . S
H1975 C1984 0.930 . S
H1976 C1989 0.929 . S
H1977 C1987 0.929 . S
H1978 C1982 0.929 . S
H1979 C1988 0.929 . S
C1980 H1974 0.930 . S
C1980 C1981 1.367 . S
C1980 C1988 1.378 . S
C1981 C1980 1.367 . S
C1981 C1989 1.433 . S
C1982 H1978 0.929 . S
C1982 C1984 1.378 . S
C1982 C1986 1.350 . S
C1983 C1986 1.463 . S
C1983 C1988 1.350 . S
C1983 N1991 1.427 . S
C1984 H1975 0.930 . S
C1984 C1982 1.378 . S
C1984 C1985 1.367 . S
C1985 C1984 1.367 . S
C1985 C1987 1.433 . S
C1986 C1982 1.350 . S
C1986 C1983 1.463 . S
C1986 N1990 1.427 . S
C1987 H1977 0.929 . S
C1987 C1985 1.433 . S
C1987 N1990 1.384 . S
C1988 H1979 0.929 . S
C1988 C1980 1.378 . S
C1988 C1983 1.350 . S
C1989 H1976 0.929 . S
C1989 C1981 1.433 . S
C1989 N1991 1.384 . S
N1990 C1986 1.427 . S
N1990 C1987 1.384 . S
N1991 C1983 1.427 . S
N1991 C1989 1.384 . S
H1992 C1998 0.930 . S
H1993 C2002 0.930 . S
H1994 C2007 0.929 . S
H1995 C2005 0.929 . S
H1996 C2000 0.929 . S
H1997 C2006 0.929 . S
C1998 H1992 0.930 . S
C1998 C1999 1.367 . S
C1998 C2006 1.378 . S
C1999 C1998 1.367 . S
C1999 C2007 1.433 . S
C2000 H1996 0.929 . S
C2000 C2002 1.378 1_455 S
C2000 C2004 1.352 1_455 S
C2001 C2004 1.459 1_445 S
C2001 C2006 1.350 . S
C2001 N2009 1.427 . S
C2002 H1993 0.930 . S
C2002 C2000 1.378 1_655 S
C2002 C2003 1.367 . S
C2003 C2002 1.367 . S
C2003 C2005 1.433 . S
C2004 C2000 1.352 1_655 S
C2004 C2001 1.459 1_665 S
C2004 N2008 1.428 1_565 S
C2005 H1995 0.929 . S
C2005 C2003 1.433 . S
C2005 N2008 1.384 1_565 S
C2006 H1997 0.929 . S
C2006 C1998 1.378 . S
C2006 C2001 1.350 . S
C2007 H1994 0.929 . S
C2007 C1999 1.433 . S
C2007 N2009 1.384 . S
N2008 C2004 1.428 1_545 S
N2008 C2005 1.384 1_545 S
N2009 C2001 1.427 . S
N2009 C2007 1.384 . S
H2010 C2016 0.930 . S
H2011 C2020 0.930 . S
H2012 C2025 0.929 . S
H2013 C2023 0.929 . S
H2014 C2018 0.929 . S
H2015 C2024 0.929 . S
C2016 H2010 0.930 . S
C2016 C2017 1.367 . S
C2016 C2024 1.378 . S
C2017 C2016 1.367 . S
C2017 C2025 1.433 . S
C2018 H2014 0.929 . S
C2018 C2020 1.378 . S
C2018 C2022 1.350 . S
C2019 C2022 1.463 . S
C2019 C2024 1.350 . S
C2019 N2027 1.427 . S
C2020 H2011 0.930 . S
C2020 C2018 1.378 . S
C2020 C2021 1.367 . S
C2021 C2020 1.367 . S
C2021 C2023 1.433 . S
C2022 C2018 1.350 . S
C2022 C2019 1.463 . S
C2022 N2026 1.427 . S
C2023 H2013 0.929 . S
C2023 C2021 1.433 . S
C2023 N2026 1.384 . S
C2024 H2015 0.929 . S
C2024 C2016 1.378 . S
C2024 C2019 1.350 . S
C2025 H2012 0.929 . S
C2025 C2017 1.433 . S
C2025 N2027 1.384 . S
N2026 C2022 1.427 . S
N2026 C2023 1.384 . S
N2027 C2019 1.427 . S
N2027 C2025 1.384 . S
H2028 C2034 0.930 . S
H2029 C2038 0.930 . S
H2030 C2043 0.929 . S
H2031 C2041 0.929 . S
H2032 C2036 0.929 . S
H2033 C2042 0.929 . S
C2034 H2028 0.930 . S
C2034 C2035 1.367 . S
C2034 C2042 1.378 . S
C2035 C2034 1.367 . S
C2035 C2043 1.433 . S
C2036 H2032 0.929 . S
C2036 C2038 1.378 . S
C2036 C2040 1.350 . S
C2037 C2040 1.463 1_655 S
C2037 C2042 1.350 . S
C2037 N2045 1.427 . S
C2038 H2029 0.930 . S
C2038 C2036 1.378 . S
C2038 C2039 1.367 . S
C2039 C2038 1.367 . S
C2039 C2041 1.433 . S
C2040 C2036 1.350 . S
C2040 C2037 1.463 1_455 S
C2040 N2044 1.427 . S
C2041 H2031 0.929 . S
C2041 C2039 1.433 . S
C2041 N2044 1.384 . S
C2042 H2033 0.929 . S
C2042 C2034 1.378 . S
C2042 C2037 1.350 . S
C2043 H2030 0.929 . S
C2043 C2035 1.433 . S
C2043 N2045 1.384 . S
N2044 C2040 1.427 . S
N2044 C2041 1.384 . S
N2045 C2037 1.427 . S
N2045 C2043 1.384 . S
H2046 C2052 0.930 . S
H2047 C2056 0.930 . S
H2048 C2061 0.929 . S
H2049 C2059 0.929 . S
H2050 C2054 0.929 . S
H2051 C2060 0.929 . S
C2052 H2046 0.930 . S
C2052 C2053 1.367 . S
C2052 C2060 1.378 . S
C2053 C2052 1.367 . S
C2053 C2061 1.433 . S
C2054 H2050 0.929 . S
C2054 C2056 1.378 . S
C2054 C2058 1.350 . S
C2055 C2058 1.463 . S
C2055 C2060 1.350 . S
C2055 N2063 1.427 . S
C2056 H2047 0.930 . S
C2056 C2054 1.378 . S
C2056 C2057 1.367 . S
C2057 C2056 1.367 . S
C2057 C2059 1.433 . S
C2058 C2054 1.350 . S
C2058 C2055 1.463 . S
C2058 N2062 1.427 . S
C2059 H2049 0.929 . S
C2059 C2057 1.433 . S
C2059 N2062 1.384 . S
C2060 H2051 0.929 . S
C2060 C2052 1.378 . S
C2060 C2055 1.350 . S
C2061 H2048 0.929 . S
C2061 C2053 1.433 . S
C2061 N2063 1.384 . S
N2062 C2058 1.427 . S
N2062 C2059 1.384 . S
N2063 C2055 1.427 . S
N2063 C2061 1.384 . S
H2064 C2070 0.930 . S
H2065 C2074 0.930 . S
H2066 C2079 0.929 . S
H2067 C2077 0.929 . S
H2068 C2072 0.929 . S
H2069 C2078 0.929 . S
C2070 H2064 0.930 . S
C2070 C2071 1.367 . S
C2070 C2078 1.378 . S
C2071 C2070 1.367 . S
C2071 C2079 1.433 . S
C2072 H2068 0.929 . S
C2072 C2074 1.378 . S
C2072 C2076 1.350 . S
C2073 C2076 1.463 . S
C2073 C2078 1.350 . S
C2073 N2081 1.427 . S
C2074 H2065 0.930 . S
C2074 C2072 1.378 . S
C2074 C2075 1.367 . S
C2075 C2074 1.367 . S
C2075 C2077 1.433 . S
C2076 C2072 1.350 . S
C2076 C2073 1.463 . S
C2076 N2080 1.427 . S
C2077 H2067 0.929 . S
C2077 C2075 1.433 . S
C2077 N2080 1.384 . S
C2078 H2069 0.929 . S
C2078 C2070 1.378 . S
C2078 C2073 1.350 . S
C2079 H2066 0.929 . S
C2079 C2071 1.433 . S
C2079 N2081 1.384 . S
N2080 C2076 1.427 . S
N2080 C2077 1.384 . S
N2081 C2073 1.427 . S
N2081 C2079 1.384 . S
H2082 C2088 0.930 . S
H2083 C2092 0.930 . S
H2084 C2097 0.929 . S
H2085 C2095 0.929 . S
H2086 C2090 0.929 . S
H2087 C2096 0.929 . S
C2088 H2082 0.930 . S
C2088 C2089 1.367 . S
C2088 C2096 1.378 . S
C2089 C2088 1.367 . S
C2089 C2097 1.433 . S
C2090 H2086 0.929 . S
C2090 C2092 1.378 . S
C2090 C2094 1.350 1_556 S
C2091 C2094 1.463 . S
C2091 C2096 1.350 . S
C2091 N2099 1.427 . S
C2092 H2083 0.930 . S
C2092 C2090 1.378 . S
C2092 C2093 1.367 . S
C2093 C2092 1.367 . S
C2093 C2095 1.433 . S
C2094 C2090 1.350 1_554 S
C2094 C2091 1.463 . S
C2094 N2098 1.427 . S
C2095 H2085 0.929 . S
C2095 C2093 1.433 . S
C2095 N2098 1.384 1_556 S
C2096 H2087 0.929 . S
C2096 C2088 1.378 . S
C2096 C2091 1.350 . S
C2097 H2084 0.929 . S
C2097 C2089 1.433 . S
C2097 N2099 1.384 . S
N2098 C2094 1.427 . S
N2098 C2095 1.384 1_554 S
N2099 C2091 1.427 . S
N2099 C2097 1.384 . S
H2100 C2106 0.930 . S
H2101 C2110 0.930 . S
H2102 C2115 0.939 . S
H2103 C2113 0.929 . S
H2104 C2108 0.929 . S
H2105 C2114 0.929 . S
C2106 H2100 0.930 . S
C2106 C2107 1.367 . S
C2106 C2114 1.378 . S
C2107 C2106 1.367 . S
C2107 C2115 1.433 . S
C2108 H2104 0.929 . S
C2108 C2110 1.378 . S
C2108 C2112 1.350 . S
C2109 C2112 1.463 . S
C2109 C2114 1.350 . S
C2109 N2117 1.427 . S
C2110 H2101 0.930 . S
C2110 C2108 1.378 . S
C2110 C2111 1.367 . S
C2111 C2110 1.367 . S
C2111 C2113 1.433 . S
C2112 C2108 1.350 . S
C2112 C2109 1.463 . S
C2112 N2116 1.427 . S
C2113 H2103 0.929 . S
C2113 C2111 1.433 . S
C2113 N2116 1.384 . S
C2114 H2105 0.929 . S
C2114 C2106 1.378 . S
C2114 C2109 1.350 . S
C2115 H2102 0.939 . S
C2115 C2107 1.433 . S
C2115 N2117 1.384 . S
N2116 C2112 1.427 . S
N2116 C2113 1.384 . S
N2117 C2109 1.427 . S
N2117 C2115 1.384 . S
H2118 C2124 0.930 . S
H2119 C2128 0.930 . S
H2120 C2133 0.929 . S
H2121 C2131 0.929 . S
H2122 C2126 0.929 . S
H2123 C2132 0.929 . S
C2124 H2118 0.930 . S
C2124 C2125 1.367 . S
C2124 C2132 1.378 . S
C2125 C2124 1.367 . S
C2125 C2133 1.433 . S
C2126 H2122 0.929 . S
C2126 C2128 1.378 . S
C2126 C2130 1.350 . S
C2127 C2130 1.463 . S
C2127 C2132 1.350 . S
C2127 N2135 1.427 . S
C2128 H2119 0.930 . S
C2128 C2126 1.378 . S
C2128 C2129 1.367 . S
C2129 C2128 1.367 . S
C2129 C2131 1.433 . S
C2130 C2126 1.350 . S
C2130 C2127 1.463 . S
C2130 N2134 1.427 . S
C2131 H2121 0.929 . S
C2131 C2129 1.433 . S
C2131 N2134 1.384 . S
C2132 H2123 0.929 . S
C2132 C2124 1.378 . S
C2132 C2127 1.350 . S
C2133 H2120 0.929 . S
C2133 C2125 1.433 . S
C2133 N2135 1.384 . S
N2134 C2130 1.427 . S
N2134 C2131 1.384 . S
N2135 C2127 1.427 . S
N2135 C2133 1.384 . S
H2136 C2142 0.930 . S
H2137 C2146 0.930 . S
H2138 C2151 0.929 . S
H2139 C2149 0.929 . S
H2140 C2144 0.929 . S
H2141 C2150 0.929 . S
C2142 H2136 0.930 . S
C2142 C2143 1.367 . S
C2142 C2150 1.378 . S
C2143 C2142 1.367 . S
C2143 C2151 1.433 . S
C2144 H2140 0.929 . S
C2144 C2146 1.378 . S
C2144 C2148 1.350 . S
C2145 C2148 1.463 . S
C2145 C2150 1.350 . S
C2145 N2153 1.427 . S
C2146 H2137 0.930 . S
C2146 C2144 1.378 . S
C2146 C2147 1.367 . S
C2147 C2146 1.367 . S
C2147 C2149 1.433 . S
C2148 C2144 1.350 . S
C2148 C2145 1.463 . S
C2148 N2152 1.427 . S
C2149 H2139 0.929 . S
C2149 C2147 1.433 . S
C2149 N2152 1.384 . S
C2150 H2141 0.929 . S
C2150 C2142 1.378 . S
C2150 C2145 1.350 . S
C2151 H2138 0.929 . S
C2151 C2143 1.433 . S
C2151 N2153 1.384 . S
N2152 C2148 1.427 . S
N2152 C2149 1.384 . S
N2153 C2145 1.427 . S
N2153 C2151 1.384 . S
H2154 C2160 0.930 . S
H2155 C2164 0.930 . S
H2156 C2169 0.929 . S
H2157 C2167 0.929 . S
H2158 C2162 0.929 . S
H2159 C2168 0.929 . S
C2160 H2154 0.930 . S
C2160 C2161 1.367 . S
C2160 C2168 1.378 . S
C2161 C2160 1.367 . S
C2161 C2169 1.433 1_455 S
C2162 H2158 0.929 . S
C2162 C2164 1.378 . S
C2162 C2166 1.350 . S
C2163 C2166 1.463 . S
C2163 C2168 1.350 1_654 S
C2163 N2171 1.433 . S
C2164 H2155 0.930 . S
C2164 C2162 1.378 . S
C2164 C2165 1.367 . S
C2165 C2164 1.367 . S
C2165 C2167 1.433 . S
C2166 C2162 1.350 . S
C2166 C2163 1.463 . S
C2166 N2170 1.427 . S
C2167 H2157 0.929 . S
C2167 C2165 1.433 . S
C2167 N2170 1.384 . S
C2168 H2159 0.929 . S
C2168 C2160 1.378 . S
C2168 C2163 1.350 1_456 S
C2169 H2156 0.929 . S
C2169 C2161 1.433 1_655 S
C2169 N2171 1.359 1_556 S
N2170 C2166 1.427 . S
N2170 C2167 1.384 . S
N2171 C2163 1.433 . S
N2171 C2169 1.359 1_554 S
H2172 C2178 0.930 . S
H2173 C2182 0.930 . S
H2174 C2187 0.929 . S
H2175 C2185 0.929 . S
H2176 C2180 0.929 . S
H2177 C2186 0.929 . S
C2178 H2172 0.930 . S
C2178 C2179 1.367 . S
C2178 C2186 1.378 . S
C2179 C2178 1.367 . S
C2179 C2187 1.433 . S
C2180 H2176 0.929 . S
C2180 C2182 1.378 . S
C2180 C2184 1.350 . S
C2181 C2184 1.463 . S
C2181 C2186 1.350 . S
C2181 N2189 1.427 . S
C2182 H2173 0.930 . S
C2182 C2180 1.378 . S
C2182 C2183 1.367 . S
C2183 C2182 1.367 . S
C2183 C2185 1.433 . S
C2184 C2180 1.350 . S
C2184 C2181 1.463 . S
C2184 N2188 1.427 . S
C2185 H2175 0.929 . S
C2185 C2183 1.433 . S
C2185 N2188 1.384 . S
C2186 H2177 0.929 . S
C2186 C2178 1.378 . S
C2186 C2181 1.350 . S
C2187 H2174 0.929 . S
C2187 C2179 1.433 . S
C2187 N2189 1.384 . S
N2188 C2184 1.427 . S
N2188 C2185 1.384 . S
N2189 C2181 1.427 . S
N2189 C2187 1.384 . S
H2190 C2196 0.930 . S
H2191 C2200 0.930 . S
H2192 C2205 0.929 . S
H2193 C2203 0.929 . S
H2194 C2198 0.929 . S
H2195 C2204 0.929 . S
C2196 H2190 0.930 . S
C2196 C2197 1.367 . S
C2196 C2204 1.378 . S
C2197 C2196 1.367 . S
C2197 C2205 1.433 . S
C2198 H2194 0.929 . S
C2198 C2200 1.378 . S
C2198 C2202 1.350 . S
C2199 C2202 1.463 . S
C2199 C2204 1.350 . S
C2199 N2207 1.427 . S
C2200 H2191 0.930 . S
C2200 C2198 1.378 . S
C2200 C2201 1.367 . S
C2201 C2200 1.367 . S
C2201 C2203 1.433 . S
C2202 C2198 1.350 . S
C2202 C2199 1.463 . S
C2202 N2206 1.427 . S
C2203 H2193 0.929 . S
C2203 C2201 1.433 . S
C2203 N2206 1.384 . S
C2204 H2195 0.929 . S
C2204 C2196 1.378 . S
C2204 C2199 1.350 . S
C2205 H2192 0.929 . S
C2205 C2197 1.433 . S
C2205 N2207 1.384 . S
N2206 C2202 1.427 . S
N2206 C2203 1.384 . S
N2207 C2199 1.427 . S
N2207 C2205 1.384 . S
H2208 C2214 0.930 . S
H2209 C2218 0.930 . S
H2210 C2223 0.929 . S
H2211 C2221 0.929 . S
H2212 C2216 0.929 . S
H2213 C2222 0.929 . S
C2214 H2208 0.930 . S
C2214 C2215 1.367 . S
C2214 C2222 1.378 . S
C2215 C2214 1.367 . S
C2215 C2223 1.433 . S
C2216 H2212 0.929 . S
C2216 C2218 1.378 . S
C2216 C2220 1.350 . S
C2217 C2220 1.463 . S
C2217 C2222 1.350 . S
C2217 N2225 1.427 . S
C2218 H2209 0.930 . S
C2218 C2216 1.378 . S
C2218 C2219 1.367 . S
C2219 C2218 1.367 . S
C2219 C2221 1.433 . S
C2220 C2216 1.350 . S
C2220 C2217 1.463 . S
C2220 N2224 1.427 . S
C2221 H2211 0.929 . S
C2221 C2219 1.433 . S
C2221 N2224 1.384 . S
C2222 H2213 0.929 . S
C2222 C2214 1.378 . S
C2222 C2217 1.350 . S
C2223 H2210 0.929 . S
C2223 C2215 1.433 . S
C2223 N2225 1.384 . S
N2224 C2220 1.427 . S
N2224 C2221 1.384 . S
N2225 C2217 1.427 . S
N2225 C2223 1.384 . S
H2226 C2232 0.950 . S
H2227 C2236 0.930 . S
H2228 C2241 0.929 . S
H2229 C2239 0.929 . S
H2230 C2234 0.929 . S
H2231 C2240 0.929 . S
C2232 H2226 0.950 . S
C2232 C2233 1.367 . S
C2232 C2240 1.378 . S
C2233 C2232 1.367 . S
C2233 C2241 1.433 . S
C2234 H2230 0.929 . S
C2234 C2236 1.378 . S
C2234 C2238 1.350 . S
C2235 C2238 1.463 . S
C2235 C2240 1.350 . S
C2235 N2243 1.427 . S
C2236 H2227 0.930 . S
C2236 C2234 1.378 . S
C2236 C2237 1.367 . S
C2237 C2236 1.367 . S
C2237 C2239 1.433 . S
C2238 C2234 1.350 . S
C2238 C2235 1.463 . S
C2238 N2242 1.427 . S
C2239 H2229 0.929 . S
C2239 C2237 1.433 . S
C2239 N2242 1.384 . S
C2240 H2231 0.929 . S
C2240 C2232 1.378 . S
C2240 C2235 1.350 . S
C2241 H2228 0.929 . S
C2241 C2233 1.433 . S
C2241 N2243 1.384 . S
N2242 C2238 1.427 . S
N2242 C2239 1.384 . S
N2243 C2235 1.427 . S
N2243 C2241 1.384 . S
H2244 C2250 0.930 . S
H2245 C2254 0.930 . S
H2246 C2259 0.929 . S
H2247 C2257 0.929 . S
H2248 C2252 0.929 . S
H2249 C2258 0.929 . S
C2250 H2244 0.930 . S
C2250 C2251 1.367 . S
C2250 C2258 1.378 . S
C2251 C2250 1.367 . S
C2251 C2259 1.433 . S
C2252 H2248 0.929 . S
C2252 C2254 1.378 . S
C2252 C2256 1.350 . S
C2253 C2256 1.463 . S
C2253 C2258 1.350 . S
C2253 N2261 1.427 . S
C2254 H2245 0.930 . S
C2254 C2252 1.378 . S
C2254 C2255 1.367 . S
C2255 C2254 1.367 . S
C2255 C2257 1.433 . S
C2256 C2252 1.350 . S
C2256 C2253 1.463 . S
C2256 N2260 1.427 . S
C2257 H2247 0.929 . S
C2257 C2255 1.433 . S
C2257 N2260 1.384 . S
C2258 H2249 0.929 . S
C2258 C2250 1.378 . S
C2258 C2253 1.350 . S
C2259 H2246 0.929 . S
C2259 C2251 1.433 . S
C2259 N2261 1.384 . S
N2260 C2256 1.427 . S
N2260 C2257 1.384 . S
N2261 C2253 1.427 . S
N2261 C2259 1.384 . S
H2262 C2268 0.930 . S
H2263 C2272 0.930 . S
H2264 C2277 0.929 . S
H2265 C2275 0.929 . S
H2266 C2270 0.929 . S
H2267 C2276 0.929 . S
C2268 H2262 0.930 . S
C2268 C2269 1.367 . S
C2268 C2276 1.378 . S
C2269 C2268 1.367 . S
C2269 C2277 1.433 . S
C2270 H2266 0.929 . S
C2270 C2272 1.378 . S
C2270 C2274 1.350 . S
C2271 C2274 1.463 . S
C2271 C2276 1.350 . S
C2271 N2279 1.427 . S
C2272 H2263 0.930 . S
C2272 C2270 1.378 . S
C2272 C2273 1.367 . S
C2273 C2272 1.367 . S
C2273 C2275 1.433 . S
C2274 C2270 1.350 . S
C2274 C2271 1.463 . S
C2274 N2278 1.427 . S
C2275 H2265 0.929 . S
C2275 C2273 1.433 . S
C2275 N2278 1.384 . S
C2276 H2267 0.929 . S
C2276 C2268 1.378 . S
C2276 C2271 1.350 . S
C2277 H2264 0.929 . S
C2277 C2269 1.433 . S
C2277 N2279 1.384 . S
N2278 C2274 1.427 . S
N2278 C2275 1.384 . S
N2279 C2271 1.427 . S
N2279 C2277 1.384 . S
H2280 C2286 0.930 . S
H2281 C2290 0.930 . S
H2282 C2295 0.929 . S
H2283 C2293 0.929 . S
H2284 C2288 0.929 . S
H2285 C2294 0.929 . S
C2286 H2280 0.930 . S
C2286 C2287 1.367 . S
C2286 C2294 1.378 . S
C2287 C2286 1.367 . S
C2287 C2295 1.433 . S
C2288 H2284 0.929 . S
C2288 C2290 1.378 . S
C2288 C2292 1.350 . S
C2289 C2292 1.463 . S
C2289 C2294 1.350 . S
C2289 N2297 1.427 . S
C2290 H2281 0.930 . S
C2290 C2288 1.378 . S
C2290 C2291 1.367 . S
C2291 C2290 1.367 . S
C2291 C2293 1.433 . S
C2292 C2288 1.350 . S
C2292 C2289 1.463 . S
C2292 N2296 1.427 . S
C2293 H2283 0.929 . S
C2293 C2291 1.433 . S
C2293 N2296 1.384 . S
C2294 H2285 0.929 . S
C2294 C2286 1.378 . S
C2294 C2289 1.350 . S
C2295 H2282 0.929 . S
C2295 C2287 1.433 . S
C2295 N2297 1.384 . S
N2296 C2292 1.427 . S
N2296 C2293 1.384 . S
N2297 C2289 1.427 . S
N2297 C2295 1.384 . S
H2298 C2304 0.930 . S
H2299 C2308 0.930 . S
H2300 C2313 0.929 . S
H2301 C2311 0.929 . S
H2302 C2306 0.929 . S
H2303 C2312 0.929 . S
C2304 H2298 0.930 . S
C2304 C2305 1.367 . S
C2304 C2312 1.378 . S
C2305 C2304 1.367 . S
C2305 C2313 1.433 . S
C2306 H2302 0.929 . S
C2306 C2308 1.378 . S
C2306 C2310 1.350 . S
C2307 C2310 1.463 . S
C2307 C2312 1.350 . S
C2307 N2315 1.427 . S
C2308 H2299 0.930 . S
C2308 C2306 1.378 . S
C2308 C2309 1.367 . S
C2309 C2308 1.367 . S
C2309 C2311 1.433 . S
C2310 C2306 1.350 . S
C2310 C2307 1.463 . S
C2310 N2314 1.427 . S
C2311 H2301 0.929 . S
C2311 C2309 1.433 . S
C2311 N2314 1.384 . S
C2312 H2303 0.929 . S
C2312 C2304 1.378 . S
C2312 C2307 1.350 . S
C2313 H2300 0.929 . S
C2313 C2305 1.433 . S
C2313 N2315 1.384 . S
N2314 C2310 1.427 . S
N2314 C2311 1.384 . S
N2315 C2307 1.427 . S
N2315 C2313 1.384 . S
H2316 C2322 0.930 . S
H2317 C2326 0.930 . S
H2318 C2331 0.929 . S
H2319 C2329 0.929 . S
H2320 C2324 0.929 . S
H2321 C2330 0.929 . S
C2322 H2316 0.930 . S
C2322 C2323 1.367 . S
C2322 C2330 1.378 . S
C2323 C2322 1.367 . S
C2323 C2331 1.433 . S
C2324 H2320 0.929 . S
C2324 C2326 1.378 . S
C2324 C2328 1.350 . S
C2325 C2328 1.463 . S
C2325 C2330 1.350 . S
C2325 N2333 1.427 . S
C2326 H2317 0.930 . S
C2326 C2324 1.378 . S
C2326 C2327 1.367 . S
C2327 C2326 1.367 . S
C2327 C2329 1.433 . S
C2328 C2324 1.350 . S
C2328 C2325 1.463 . S
C2328 N2332 1.427 . S
C2329 H2319 0.929 . S
C2329 C2327 1.433 . S
C2329 N2332 1.384 . S
C2330 H2321 0.929 . S
C2330 C2322 1.378 . S
C2330 C2325 1.350 . S
C2331 H2318 0.929 . S
C2331 C2323 1.433 . S
C2331 N2333 1.384 . S
N2332 C2328 1.427 . S
N2332 C2329 1.384 . S
N2333 C2325 1.427 . S
N2333 C2331 1.384 . S
H2334 C2340 0.930 . S
H2335 C2344 0.930 . S
H2336 C2349 0.929 . S
H2337 C2347 0.929 . S
H2338 C2342 0.929 . S
H2339 C2348 0.929 . S
C2340 H2334 0.930 . S
C2340 C2341 1.367 . S
C2340 C2348 1.378 . S
C2341 C2340 1.367 . S
C2341 C2349 1.433 . S
C2342 H2338 0.929 . S
C2342 C2344 1.378 . S
C2342 C2346 1.350 . S
C2343 C2346 1.463 . S
C2343 C2348 1.350 . S
C2343 N2351 1.427 . S
C2344 H2335 0.930 . S
C2344 C2342 1.378 . S
C2344 C2345 1.367 . S
C2345 C2344 1.367 . S
C2345 C2347 1.433 . S
C2346 C2342 1.350 . S
C2346 C2343 1.463 . S
C2346 N2350 1.427 . S
C2347 H2337 0.929 . S
C2347 C2345 1.433 . S
C2347 N2350 1.384 . S
C2348 H2339 0.929 . S
C2348 C2340 1.378 . S
C2348 C2343 1.350 . S
C2349 H2336 0.929 . S
C2349 C2341 1.433 . S
C2349 N2351 1.384 . S
N2350 C2346 1.427 . S
N2350 C2347 1.384 . S
N2351 C2343 1.427 . S
N2351 C2349 1.384 . S
H2352 C2358 0.930 . S
H2353 C2362 0.930 . S
H2354 C2367 0.929 . S
H2355 C2365 0.929 . S
H2356 C2360 0.929 . S
H2357 C2366 0.929 . S
C2358 H2352 0.930 . S
C2358 C2359 1.367 . S
C2358 C2366 1.378 . S
C2359 C2358 1.367 . S
C2359 C2367 1.433 . S
C2360 H2356 0.929 . S
C2360 C2362 1.378 . S
C2360 C2364 1.350 . S
C2361 C2364 1.463 . S
C2361 C2366 1.350 . S
C2361 N2369 1.427 . S
C2362 H2353 0.930 . S
C2362 C2360 1.378 . S
C2362 C2363 1.367 . S
C2363 C2362 1.367 . S
C2363 C2365 1.433 . S
C2364 C2360 1.350 . S
C2364 C2361 1.463 . S
C2364 N2368 1.427 . S
C2365 H2355 0.929 . S
C2365 C2363 1.433 . S
C2365 N2368 1.384 . S
C2366 H2357 0.929 . S
C2366 C2358 1.378 . S
C2366 C2361 1.350 . S
C2367 H2354 0.929 . S
C2367 C2359 1.433 . S
C2367 N2369 1.384 . S
N2368 C2364 1.427 . S
N2368 C2365 1.384 . S
N2369 C2361 1.427 . S
N2369 C2367 1.384 . S
H2370 C2376 0.930 . S
H2371 C2380 0.930 . S
H2372 C2385 0.929 . S
H2373 C2383 0.929 . S
H2374 C2378 0.929 . S
H2375 C2384 0.929 . S
C2376 H2370 0.930 . S
C2376 C2377 1.367 . S
C2376 C2384 1.378 . S
C2377 C2376 1.367 . S
C2377 C2385 1.433 . S
C2378 H2374 0.929 . S
C2378 C2380 1.378 . S
C2378 C2382 1.350 . S
C2379 C2382 1.463 . S
C2379 C2384 1.350 . S
C2379 N2387 1.427 . S
C2380 H2371 0.930 . S
C2380 C2378 1.378 . S
C2380 C2381 1.367 . S
C2381 C2380 1.367 . S
C2381 C2383 1.433 . S
C2382 C2378 1.350 . S
C2382 C2379 1.463 . S
C2382 N2386 1.427 . S
C2383 H2373 0.929 . S
C2383 C2381 1.433 . S
C2383 N2386 1.384 . S
C2384 H2375 0.929 . S
C2384 C2376 1.378 . S
C2384 C2379 1.350 . S
C2385 H2372 0.929 . S
C2385 C2377 1.433 . S
C2385 N2387 1.384 . S
N2386 C2382 1.427 . S
N2386 C2383 1.384 . S
N2387 C2379 1.427 . S
N2387 C2385 1.384 . S
H2388 C2394 0.930 . S
H2389 C2398 0.930 . S
H2390 C2403 0.929 . S
H2391 C2401 0.929 . S
H2392 C2396 0.929 . S
H2393 C2402 0.929 . S
C2394 H2388 0.930 . S
C2394 C2395 1.367 1_565 S
C2394 C2402 1.378 . S
C2395 C2394 1.367 1_545 S
C2395 C2403 1.433 . S
C2396 H2392 0.929 . S
C2396 C2398 1.378 . S
C2396 C2400 1.350 1_545 S
C2397 C2400 1.463 1_545 S
C2397 C2402 1.350 1_545 S
C2397 N2405 1.427 . S
C2398 H2389 0.930 . S
C2398 C2396 1.378 . S
C2398 C2399 1.367 1_545 S
C2399 C2398 1.367 1_565 S
C2399 C2401 1.433 . S
C2400 C2396 1.350 1_565 S
C2400 C2397 1.463 1_565 S
C2400 N2404 1.427 . S
C2401 H2391 0.929 . S
C2401 C2399 1.433 . S
C2401 N2404 1.384 . S
C2402 H2393 0.929 . S
C2402 C2394 1.378 . S
C2402 C2397 1.350 1_565 S
C2403 H2390 0.929 . S
C2403 C2395 1.433 . S
C2403 N2405 1.384 . S
N2404 C2400 1.427 . S
N2404 C2401 1.384 . S
N2405 C2397 1.427 . S
N2405 C2403 1.384 . S
H2406 C2412 0.930 . S
H2407 C2416 0.930 . S
H2408 C2421 0.929 1_554 S
H2409 C2419 0.929 . S
H2410 C2414 0.929 . S
H2411 C2420 0.929 . S
C2412 H2406 0.930 . S
C2412 C2413 1.367 . S
C2412 C2420 1.378 . S
C2413 C2412 1.367 . S
C2413 C2421 1.433 . S
C2414 H2410 0.929 . S
C2414 C2416 1.378 . S
C2414 C2418 1.350 . S
C2415 C2418 1.463 . S
C2415 C2420 1.350 . S
C2415 N2423 1.427 . S
C2416 H2407 0.930 . S
C2416 C2414 1.378 . S
C2416 C2417 1.367 . S
C2417 C2416 1.367 . S
C2417 C2419 1.433 . S
C2418 C2414 1.350 . S
C2418 C2415 1.463 . S
C2418 N2422 1.427 . S
C2419 H2409 0.929 . S
C2419 C2417 1.433 . S
C2419 N2422 1.384 . S
C2420 H2411 0.929 . S
C2420 C2412 1.378 . S
C2420 C2415 1.350 . S
C2421 H2408 0.929 1_556 S
C2421 C2413 1.433 . S
C2421 N2423 1.384 . S
N2422 C2418 1.427 . S
N2422 C2419 1.384 . S
N2423 C2415 1.427 . S
N2423 C2421 1.384 . S
H2424 C2430 0.930 . S
H2425 C2434 0.930 . S
H2426 C2439 0.929 . S
H2427 C2437 0.929 . S
H2428 C2432 0.929 . S
H2429 C2438 0.929 . S
C2430 H2424 0.930 . S
C2430 C2431 1.367 . S
C2430 C2438 1.378 . S
C2431 C2430 1.367 . S
C2431 C2439 1.433 . S
C2432 H2428 0.929 . S
C2432 C2434 1.378 . S
C2432 C2436 1.350 . S
C2433 C2436 1.463 . S
C2433 C2438 1.350 . S
C2433 N2441 1.427 . S
C2434 H2425 0.930 . S
C2434 C2432 1.378 . S
C2434 C2435 1.367 . S
C2435 C2434 1.367 . S
C2435 C2437 1.433 . S
C2436 C2432 1.350 . S
C2436 C2433 1.463 . S
C2436 N2440 1.427 . S
C2437 H2427 0.929 . S
C2437 C2435 1.433 . S
C2437 N2440 1.384 . S
C2438 H2429 0.929 . S
C2438 C2430 1.378 . S
C2438 C2433 1.350 . S
C2439 H2426 0.929 . S
C2439 C2431 1.433 . S
C2439 N2441 1.384 . S
N2440 C2436 1.427 . S
N2440 C2437 1.384 . S
N2441 C2433 1.427 . S
N2441 C2439 1.384 . S
H2442 C2448 0.930 . S
H2443 C2452 0.930 . S
H2444 C2457 0.929 . S
H2445 C2455 0.929 . S
H2446 C2450 0.929 . S
H2447 C2456 0.929 . S
C2448 H2442 0.930 . S
C2448 C2449 1.367 . S
C2448 C2456 1.378 . S
C2449 C2448 1.367 . S
C2449 C2457 1.433 . S
C2450 H2446 0.929 . S
C2450 C2452 1.378 . S
C2450 C2454 1.350 . S
C2451 C2454 1.463 . S
C2451 C2456 1.350 . S
C2451 N2459 1.427 . S
C2452 H2443 0.930 . S
C2452 C2450 1.378 . S
C2452 C2453 1.367 . S
C2453 C2452 1.367 . S
C2453 C2455 1.433 . S
C2454 C2450 1.350 . S
C2454 C2451 1.463 . S
C2454 N2458 1.427 . S
C2455 H2445 0.929 . S
C2455 C2453 1.433 . S
C2455 N2458 1.384 . S
C2456 H2447 0.929 . S
C2456 C2448 1.378 . S
C2456 C2451 1.350 . S
C2457 H2444 0.929 . S
C2457 C2449 1.433 . S
C2457 N2459 1.384 . S
N2458 C2454 1.427 . S
N2458 C2455 1.384 . S
N2459 C2451 1.427 . S
N2459 C2457 1.384 . S
H2460 C2466 0.930 . S
H2461 C2470 0.930 . S
H2462 C2475 0.929 . S
H2463 C2473 0.929 . S
H2464 C2468 0.929 . S
H2465 C2474 0.929 . S
C2466 H2460 0.930 . S
C2466 C2467 1.367 . S
C2466 C2474 1.378 . S
C2467 C2466 1.367 . S
C2467 C2475 1.433 . S
C2468 H2464 0.929 . S
C2468 C2470 1.378 . S
C2468 C2472 1.350 . S
C2469 C2472 1.463 . S
C2469 C2474 1.350 . S
C2469 N2477 1.427 . S
C2470 H2461 0.930 . S
C2470 C2468 1.378 . S
C2470 C2471 1.367 . S
C2471 C2470 1.367 . S
C2471 C2473 1.433 . S
C2472 C2468 1.350 . S
C2472 C2469 1.463 . S
C2472 N2476 1.427 . S
C2473 H2463 0.929 . S
C2473 C2471 1.433 . S
C2473 N2476 1.384 . S
C2474 H2465 0.929 . S
C2474 C2466 1.378 . S
C2474 C2469 1.350 . S
C2475 H2462 0.929 . S
C2475 C2467 1.433 . S
C2475 N2477 1.384 . S
N2476 C2472 1.427 . S
N2476 C2473 1.384 . S
N2477 C2469 1.427 . S
N2477 C2475 1.384 . S
H2478 C2484 0.930 . S
H2479 C2488 0.930 . S
H2480 C2493 0.929 . S
H2481 C2491 0.929 . S
H2482 C2486 0.929 . S
H2483 C2492 0.929 . S
C2484 H2478 0.930 . S
C2484 C2485 1.367 . S
C2484 C2492 1.378 . S
C2485 C2484 1.367 . S
C2485 C2493 1.433 . S
C2486 H2482 0.929 . S
C2486 C2488 1.378 . S
C2486 C2490 1.350 . S
C2487 C2490 1.463 1_655 S
C2487 C2492 1.350 . S
C2487 N2495 1.427 . S
C2488 H2479 0.930 . S
C2488 C2486 1.378 . S
C2488 C2489 1.367 . S
C2489 C2488 1.367 . S
C2489 C2491 1.433 . S
C2490 C2486 1.350 . S
C2490 C2487 1.463 1_455 S
C2490 N2494 1.427 . S
C2491 H2481 0.929 . S
C2491 C2489 1.433 . S
C2491 N2494 1.384 . S
C2492 H2483 0.929 . S
C2492 C2484 1.378 . S
C2492 C2487 1.350 . S
C2493 H2480 0.929 . S
C2493 C2485 1.433 . S
C2493 N2495 1.384 . S
N2494 C2490 1.427 . S
N2494 C2491 1.384 . S
N2495 C2487 1.427 . S
N2495 C2493 1.384 . S
H2496 C2502 0.930 . S
H2497 C2506 0.930 . S
H2498 C2511 0.929 . S
H2499 C2509 0.929 . S
H2500 C2504 0.929 . S
H2501 C2510 0.929 . S
C2502 H2496 0.930 . S
C2502 C2503 1.367 . S
C2502 C2510 1.378 . S
C2503 C2502 1.367 . S
C2503 C2511 1.433 . S
C2504 H2500 0.929 . S
C2504 C2506 1.378 . S
C2504 C2508 1.350 . S
C2505 C2508 1.463 . S
C2505 C2510 1.350 . S
C2505 N2513 1.427 . S
C2506 H2497 0.930 . S
C2506 C2504 1.378 . S
C2506 C2507 1.367 . S
C2507 C2506 1.367 . S
C2507 C2509 1.433 . S
C2508 C2504 1.350 . S
C2508 C2505 1.463 . S
C2508 N2512 1.427 . S
C2509 H2499 0.929 . S
C2509 C2507 1.433 . S
C2509 N2512 1.384 . S
C2510 H2501 0.929 . S
C2510 C2502 1.378 . S
C2510 C2505 1.350 . S
C2511 H2498 0.929 . S
C2511 C2503 1.433 . S
C2511 N2513 1.384 . S
N2512 C2508 1.427 . S
N2512 C2509 1.384 . S
N2513 C2505 1.427 . S
N2513 C2511 1.384 . S
H2514 C2520 0.930 . S
H2515 C2524 0.930 . S
H2516 C2529 0.929 . S
H2517 C2527 0.929 . S
H2518 C2522 0.929 . S
H2519 C2528 0.929 . S
C2520 H2514 0.930 . S
C2520 C2521 1.367 . S
C2520 C2528 1.378 . S
C2521 C2520 1.367 . S
C2521 C2529 1.433 . S
C2522 H2518 0.929 . S
C2522 C2524 1.378 . S
C2522 C2526 1.350 . S
C2523 C2526 1.463 1_556 S
C2523 C2528 1.350 . S
C2523 N2531 1.427 . S
C2524 H2515 0.930 . S
C2524 C2522 1.378 . S
C2524 C2525 1.367 . S
C2525 C2524 1.367 . S
C2525 C2527 1.433 . S
C2526 C2522 1.350 . S
C2526 C2523 1.463 1_554 S
C2526 N2530 1.427 . S
C2527 H2517 0.929 . S
C2527 C2525 1.433 . S
C2527 N2530 1.384 . S
C2528 H2519 0.929 . S
C2528 C2520 1.378 . S
C2528 C2523 1.350 . S
C2529 H2516 0.929 . S
C2529 C2521 1.433 . S
C2529 N2531 1.384 . S
N2530 C2526 1.427 . S
N2530 C2527 1.384 . S
N2531 C2523 1.427 . S
N2531 C2529 1.384 . S
H2532 C2538 0.930 . S
H2533 C2542 0.930 . S
H2534 C2547 0.929 . S
H2535 C2545 0.929 . S
H2536 C2540 0.929 . S
H2537 C2546 0.929 . S
C2538 H2532 0.930 . S
C2538 C2539 1.367 . S
C2538 C2546 1.378 . S
C2539 C2538 1.367 . S
C2539 C2547 1.433 . S
C2540 H2536 0.929 . S
C2540 C2542 1.378 . S
C2540 C2544 1.350 . S
C2541 C2544 1.463 . S
C2541 C2546 1.350 . S
C2541 N2549 1.427 . S
C2542 H2533 0.930 . S
C2542 C2540 1.378 . S
C2542 C2543 1.367 . S
C2543 C2542 1.367 . S
C2543 C2545 1.433 . S
C2544 C2540 1.350 . S
C2544 C2541 1.463 . S
C2544 N2548 1.427 . S
C2545 H2535 0.929 . S
C2545 C2543 1.433 . S
C2545 N2548 1.384 . S
C2546 H2537 0.929 . S
C2546 C2538 1.378 . S
C2546 C2541 1.350 . S
C2547 H2534 0.929 . S
C2547 C2539 1.433 . S
C2547 N2549 1.384 . S
N2548 C2544 1.427 . S
N2548 C2545 1.384 . S
N2549 C2541 1.427 . S
N2549 C2547 1.384 . S
H2550 C2556 0.930 . S
H2551 C2560 0.930 . S
H2552 C2565 0.929 . S
H2553 C2563 0.929 . S
H2554 C2558 0.929 . S
H2555 C2564 0.929 . S
C2556 H2550 0.930 . S
C2556 C2557 1.367 . S
C2556 C2564 1.378 . S
C2557 C2556 1.367 . S
C2557 C2565 1.433 . S
C2558 H2554 0.929 . S
C2558 C2560 1.378 . S
C2558 C2562 1.350 . S
C2559 C2562 1.463 . S
C2559 C2564 1.350 . S
C2559 N2567 1.427 . S
C2560 H2551 0.930 . S
C2560 C2558 1.378 . S
C2560 C2561 1.367 . S
C2561 C2560 1.367 . S
C2561 C2563 1.433 . S
C2562 C2558 1.350 . S
C2562 C2559 1.463 . S
C2562 N2566 1.427 . S
C2563 H2553 0.929 . S
C2563 C2561 1.433 . S
C2563 N2566 1.384 . S
C2564 H2555 0.929 . S
C2564 C2556 1.378 . S
C2564 C2559 1.350 . S
C2565 H2552 0.929 . S
C2565 C2557 1.433 . S
C2565 N2567 1.384 . S
N2566 C2562 1.427 . S
N2566 C2563 1.384 . S
N2567 C2559 1.427 . S
N2567 C2565 1.384 . S
H2568 C2574 0.930 . S
H2569 C2578 0.930 . S
H2570 C2583 0.929 . S
H2571 C2581 0.929 . S
H2572 C2576 0.929 . S
H2573 C2582 0.929 . S
C2574 H2568 0.930 . S
C2574 C2575 1.367 . S
C2574 C2582 1.378 . S
C2575 C2574 1.367 . S
C2575 C2583 1.433 . S
C2576 H2572 0.929 . S
C2576 C2578 1.378 . S
C2576 C2580 1.350 . S
C2577 C2580 1.463 . S
C2577 C2582 1.350 . S
C2577 N2585 1.427 . S
C2578 H2569 0.930 . S
C2578 C2576 1.378 . S
C2578 C2579 1.367 . S
C2579 C2578 1.367 . S
C2579 C2581 1.433 . S
C2580 C2576 1.350 . S
C2580 C2577 1.463 . S
C2580 N2584 1.427 . S
C2581 H2571 0.929 . S
C2581 C2579 1.433 . S
C2581 N2584 1.384 . S
C2582 H2573 0.929 . S
C2582 C2574 1.378 . S
C2582 C2577 1.350 . S
C2583 H2570 0.929 . S
C2583 C2575 1.433 . S
C2583 N2585 1.384 . S
N2584 C2580 1.427 . S
N2584 C2581 1.384 . S
N2585 C2577 1.427 . S
N2585 C2583 1.384 . S
H2586 C2592 0.930 . S
H2587 C2596 0.930 . S
H2588 C2601 0.929 . S
H2589 C2599 0.929 . S
H2590 C2594 0.929 . S
H2591 C2600 0.929 . S
C2592 H2586 0.930 . S
C2592 C2593 1.367 . S
C2592 C2600 1.378 . S
C2593 C2592 1.367 . S
C2593 C2601 1.433 . S
C2594 H2590 0.929 . S
C2594 C2596 1.378 1_554 S
C2594 C2598 1.350 . S
C2595 C2598 1.463 . S
C2595 C2600 1.350 . S
C2595 N2603 1.427 . S
C2596 H2587 0.930 . S
C2596 C2594 1.378 1_556 S
C2596 C2597 1.367 . S
C2597 C2596 1.367 . S
C2597 C2599 1.433 . S
C2598 C2594 1.350 . S
C2598 C2595 1.463 . S
C2598 N2602 1.427 1_554 S
C2599 H2589 0.929 . S
C2599 C2597 1.433 . S
C2599 N2602 1.384 . S
C2600 H2591 0.929 . S
C2600 C2592 1.378 . S
C2600 C2595 1.350 . S
C2601 H2588 0.929 . S
C2601 C2593 1.433 . S
C2601 N2603 1.384 . S
N2602 C2598 1.427 1_556 S
N2602 C2599 1.384 . S
N2603 C2595 1.427 . S
N2603 C2601 1.384 . S
H2604 C2610 0.930 . S
H2605 C2614 0.930 . S
H2606 C2619 0.929 . S
H2607 C2617 0.929 . S
H2608 C2612 0.929 . S
H2609 C2618 0.929 . S
C2610 H2604 0.930 . S
C2610 C2611 1.367 . S
C2610 C2618 1.378 . S
C2611 C2610 1.367 . S
C2611 C2619 1.433 . S
C2612 H2608 0.929 . S
C2612 C2614 1.378 . S
C2612 C2616 1.350 . S
C2613 C2616 1.463 . S
C2613 C2618 1.350 . S
C2613 N2621 1.427 . S
C2614 H2605 0.930 . S
C2614 C2612 1.378 . S
C2614 C2615 1.367 . S
C2615 C2614 1.367 . S
C2615 C2617 1.433 . S
C2616 C2612 1.350 . S
C2616 C2613 1.463 . S
C2616 N2620 1.427 . S
C2617 H2607 0.929 . S
C2617 C2615 1.433 . S
C2617 N2620 1.384 . S
C2618 H2609 0.929 . S
C2618 C2610 1.378 . S
C2618 C2613 1.350 . S
C2619 H2606 0.929 . S
C2619 C2611 1.433 . S
C2619 N2621 1.384 . S
N2620 C2616 1.427 . S
N2620 C2617 1.384 . S
N2621 C2613 1.427 . S
N2621 C2619 1.384 . S
H2622 C2628 0.930 . S
H2623 C2632 0.930 . S
H2624 C2637 0.929 . S
H2625 C2635 0.929 . S
H2626 C2630 0.929 . S
H2627 C2636 0.929 . S
C2628 H2622 0.930 . S
C2628 C2629 1.367 . S
C2628 C2636 1.378 . S
C2629 C2628 1.367 . S
C2629 C2637 1.433 . S
C2630 H2626 0.929 . S
C2630 C2632 1.378 . S
C2630 C2634 1.350 . S
C2631 C2634 1.463 . S
C2631 C2636 1.350 . S
C2631 N2639 1.427 . S
C2632 H2623 0.930 . S
C2632 C2630 1.378 . S
C2632 C2633 1.367 . S
C2633 C2632 1.367 . S
C2633 C2635 1.433 . S
C2634 C2630 1.350 . S
C2634 C2631 1.463 . S
C2634 N2638 1.427 . S
C2635 H2625 0.929 . S
C2635 C2633 1.433 . S
C2635 N2638 1.384 . S
C2636 H2627 0.929 . S
C2636 C2628 1.378 . S
C2636 C2631 1.350 . S
C2637 H2624 0.929 . S
C2637 C2629 1.433 . S
C2637 N2639 1.384 . S
N2638 C2634 1.427 . S
N2638 C2635 1.384 . S
N2639 C2631 1.427 . S
N2639 C2637 1.384 . S
H2640 C2646 0.930 . S
H2641 C2650 0.930 . S
H2642 C2655 0.929 . S
H2643 C2653 0.929 . S
H2644 C2648 0.929 . S
H2645 C2654 0.929 . S
C2646 H2640 0.930 . S
C2646 C2647 1.367 . S
C2646 C2654 1.378 . S
C2647 C2646 1.367 . S
C2647 C2655 1.433 . S
C2648 H2644 0.929 . S
C2648 C2650 1.378 . S
C2648 C2652 1.350 . S
C2649 C2652 1.463 . S
C2649 C2654 1.350 . S
C2649 N2657 1.427 . S
C2650 H2641 0.930 . S
C2650 C2648 1.378 . S
C2650 C2651 1.367 . S
C2651 C2650 1.367 . S
C2651 C2653 1.433 . S
C2652 C2648 1.350 . S
C2652 C2649 1.463 . S
C2652 N2656 1.427 . S
C2653 H2643 0.929 . S
C2653 C2651 1.433 . S
C2653 N2656 1.384 . S
C2654 H2645 0.929 . S
C2654 C2646 1.378 . S
C2654 C2649 1.350 . S
C2655 H2642 0.929 . S
C2655 C2647 1.433 . S
C2655 N2657 1.384 . S
N2656 C2652 1.427 . S
N2656 C2653 1.384 . S
N2657 C2649 1.427 . S
N2657 C2655 1.384 . S
H2658 C2664 0.930 . S
H2659 C2668 0.930 . S
H2660 C2673 0.929 . S
H2661 C2671 0.929 . S
H2662 C2666 0.929 . S
H2663 C2672 0.929 . S
C2664 H2658 0.930 . S
C2664 C2665 1.367 . S
C2664 C2672 1.378 . S
C2665 C2664 1.367 . S
C2665 C2673 1.433 . S
C2666 H2662 0.929 . S
C2666 C2668 1.378 . S
C2666 C2670 1.350 . S
C2667 C2670 1.463 . S
C2667 C2672 1.350 . S
C2667 N2675 1.427 . S
C2668 H2659 0.930 . S
C2668 C2666 1.378 . S
C2668 C2669 1.367 . S
C2669 C2668 1.367 . S
C2669 C2671 1.433 . S
C2670 C2666 1.350 . S
C2670 C2667 1.463 . S
C2670 N2674 1.427 . S
C2671 H2661 0.929 . S
C2671 C2669 1.433 . S
C2671 N2674 1.384 . S
C2672 H2663 0.929 . S
C2672 C2664 1.378 . S
C2672 C2667 1.350 . S
C2673 H2660 0.929 . S
C2673 C2665 1.433 . S
C2673 N2675 1.384 . S
N2674 C2670 1.427 . S
N2674 C2671 1.384 . S
N2675 C2667 1.427 . S
N2675 C2673 1.384 . S
H2676 C2682 0.930 . S
H2677 C2686 0.930 . S
H2678 C2691 0.929 . S
H2679 C2689 0.929 . S
H2680 C2684 0.929 . S
H2681 C2690 0.929 . S
C2682 H2676 0.930 . S
C2682 C2683 1.367 . S
C2682 C2690 1.378 . S
C2683 C2682 1.367 . S
C2683 C2691 1.433 . S
C2684 H2680 0.929 . S
C2684 C2686 1.378 . S
C2684 C2688 1.350 . S
C2685 C2688 1.463 . S
C2685 C2690 1.350 . S
C2685 N2693 1.427 . S
C2686 H2677 0.930 . S
C2686 C2684 1.378 . S
C2686 C2687 1.367 . S
C2687 C2686 1.367 . S
C2687 C2689 1.433 . S
C2688 C2684 1.350 . S
C2688 C2685 1.463 . S
C2688 N2692 1.427 . S
C2689 H2679 0.929 . S
C2689 C2687 1.433 . S
C2689 N2692 1.384 . S
C2690 H2681 0.929 . S
C2690 C2682 1.378 . S
C2690 C2685 1.350 . S
C2691 H2678 0.929 . S
C2691 C2683 1.433 . S
C2691 N2693 1.384 . S
N2692 C2688 1.427 . S
N2692 C2689 1.384 . S
N2693 C2685 1.427 . S
N2693 C2691 1.384 . S
H2694 C2700 0.930 . S
H2695 C2704 0.930 . S
H2696 C2709 0.929 . S
H2697 C2707 0.929 . S
H2698 C2702 0.929 . S
H2699 C2708 0.929 . S
C2700 H2694 0.930 . S
C2700 C2701 1.367 . S
C2700 C2708 1.378 . S
C2701 C2700 1.367 . S
C2701 C2709 1.433 . S
C2702 H2698 0.929 . S
C2702 C2704 1.378 . S
C2702 C2706 1.350 . S
C2703 C2706 1.463 . S
C2703 C2708 1.350 . S
C2703 N2711 1.427 . S
C2704 H2695 0.930 . S
C2704 C2702 1.378 . S
C2704 C2705 1.367 . S
C2705 C2704 1.367 . S
C2705 C2707 1.433 . S
C2706 C2702 1.350 . S
C2706 C2703 1.463 . S
C2706 N2710 1.427 . S
C2707 H2697 0.929 . S
C2707 C2705 1.433 . S
C2707 N2710 1.384 . S
C2708 H2699 0.929 . S
C2708 C2700 1.378 . S
C2708 C2703 1.350 . S
C2709 H2696 0.929 . S
C2709 C2701 1.433 . S
C2709 N2711 1.384 . S
N2710 C2706 1.427 . S
N2710 C2707 1.384 . S
N2711 C2703 1.427 . S
N2711 C2709 1.384 . S
H2712 C2718 0.930 . S
H2713 C2722 0.930 . S
H2714 C2727 0.929 . S
H2715 C2725 0.929 . S
H2716 C2720 0.929 . S
H2717 C2726 0.929 . S
C2718 H2712 0.930 . S
C2718 C2719 1.367 . S
C2718 C2726 1.378 . S
C2719 C2718 1.367 . S
C2719 C2727 1.433 . S
C2720 H2716 0.929 . S
C2720 C2722 1.378 . S
C2720 C2724 1.350 . S
C2721 C2724 1.463 . S
C2721 C2726 1.350 . S
C2721 N2729 1.427 . S
C2722 H2713 0.930 . S
C2722 C2720 1.378 . S
C2722 C2723 1.367 . S
C2723 C2722 1.367 . S
C2723 C2725 1.433 . S
C2724 C2720 1.350 . S
C2724 C2721 1.463 . S
C2724 N2728 1.427 . S
C2725 H2715 0.929 . S
C2725 C2723 1.433 . S
C2725 N2728 1.384 . S
C2726 H2717 0.929 . S
C2726 C2718 1.378 . S
C2726 C2721 1.350 . S
C2727 H2714 0.929 . S
C2727 C2719 1.433 . S
C2727 N2729 1.384 . S
N2728 C2724 1.427 . S
N2728 C2725 1.384 . S
N2729 C2721 1.427 . S
N2729 C2727 1.384 . S
H2730 C2736 0.930 . S
H2731 C2740 0.930 . S
H2732 C2745 0.929 . S
H2733 C2743 0.929 . S
H2734 C2738 0.929 . S
H2735 C2744 0.929 . S
C2736 H2730 0.930 . S
C2736 C2737 1.367 . S
C2736 C2744 1.378 . S
C2737 C2736 1.367 . S
C2737 C2745 1.433 . S
C2738 H2734 0.929 . S
C2738 C2740 1.378 . S
C2738 C2742 1.350 . S
C2739 C2742 1.463 . S
C2739 C2744 1.350 . S
C2739 N2747 1.427 . S
C2740 H2731 0.930 . S
C2740 C2738 1.378 . S
C2740 C2741 1.367 . S
C2741 C2740 1.367 . S
C2741 C2743 1.433 . S
C2742 C2738 1.350 . S
C2742 C2739 1.463 . S
C2742 N2746 1.427 . S
C2743 H2733 0.929 . S
C2743 C2741 1.433 . S
C2743 N2746 1.384 . S
C2744 H2735 0.929 . S
C2744 C2736 1.378 . S
C2744 C2739 1.350 . S
C2745 H2732 0.929 . S
C2745 C2737 1.433 . S
C2745 N2747 1.384 . S
N2746 C2742 1.427 . S
N2746 C2743 1.384 . S
N2747 C2739 1.427 . S
N2747 C2745 1.384 . S
H2748 C2754 0.930 . S
H2749 C2758 0.930 . S
H2750 C2763 0.929 . S
H2751 C2761 0.929 . S
H2752 C2756 0.929 . S
H2753 C2762 0.929 . S
C2754 H2748 0.930 . S
C2754 C2755 1.367 . S
C2754 C2762 1.378 . S
C2755 C2754 1.367 . S
C2755 C2763 1.433 . S
C2756 H2752 0.929 . S
C2756 C2758 1.378 . S
C2756 C2760 1.350 . S
C2757 C2760 1.463 . S
C2757 C2762 1.350 . S
C2757 N2765 1.427 . S
C2758 H2749 0.930 . S
C2758 C2756 1.378 . S
C2758 C2759 1.367 . S
C2759 C2758 1.367 . S
C2759 C2761 1.433 . S
C2760 C2756 1.350 . S
C2760 C2757 1.463 . S
C2760 N2764 1.427 . S
C2761 H2751 0.929 . S
C2761 C2759 1.433 . S
C2761 N2764 1.384 . S
C2762 H2753 0.929 . S
C2762 C2754 1.378 . S
C2762 C2757 1.350 . S
C2763 H2750 0.929 . S
C2763 C2755 1.433 . S
C2763 N2765 1.384 . S
N2764 C2760 1.427 . S
N2764 C2761 1.384 . S
N2765 C2757 1.427 . S
N2765 C2763 1.384 . S
H2766 C2772 0.930 . S
H2767 C2776 0.930 . S
H2768 C2781 0.929 . S
H2769 C2779 0.929 . S
H2770 C2774 0.929 . S
H2771 C2780 0.929 . S
C2772 H2766 0.930 . S
C2772 C2773 1.367 . S
C2772 C2780 1.378 . S
C2773 C2772 1.367 . S
C2773 C2781 1.433 . S
C2774 H2770 0.929 . S
C2774 C2776 1.378 . S
C2774 C2778 1.350 . S
C2775 C2778 1.463 . S
C2775 C2780 1.350 . S
C2775 N2783 1.427 . S
C2776 H2767 0.930 . S
C2776 C2774 1.378 . S
C2776 C2777 1.367 . S
C2777 C2776 1.367 . S
C2777 C2779 1.433 . S
C2778 C2774 1.350 . S
C2778 C2775 1.463 . S
C2778 N2782 1.427 . S
C2779 H2769 0.929 . S
C2779 C2777 1.433 . S
C2779 N2782 1.384 . S
C2780 H2771 0.929 . S
C2780 C2772 1.378 . S
C2780 C2775 1.350 . S
C2781 H2768 0.929 . S
C2781 C2773 1.433 . S
C2781 N2783 1.384 . S
N2782 C2778 1.427 . S
N2782 C2779 1.384 . S
N2783 C2775 1.427 . S
N2783 C2781 1.384 . S
H2784 C2790 0.930 . S
H2785 C2794 0.930 . S
H2786 C2799 0.929 . S
H2787 C2797 0.929 . S
H2788 C2792 0.929 . S
H2789 C2798 0.929 . S
C2790 H2784 0.930 . S
C2790 C2791 1.367 . S
C2790 C2798 1.378 . S
C2791 C2790 1.367 . S
C2791 C2799 1.433 . S
C2792 H2788 0.929 . S
C2792 C2794 1.378 . S
C2792 C2796 1.350 . S
C2793 C2796 1.463 . S
C2793 C2798 1.350 . S
C2793 N2801 1.427 . S
C2794 H2785 0.930 . S
C2794 C2792 1.378 . S
C2794 C2795 1.367 . S
C2795 C2794 1.367 . S
C2795 C2797 1.433 . S
C2796 C2792 1.350 . S
C2796 C2793 1.463 . S
C2796 N2800 1.427 . S
C2797 H2787 0.929 . S
C2797 C2795 1.433 . S
C2797 N2800 1.384 . S
C2798 H2789 0.929 . S
C2798 C2790 1.378 . S
C2798 C2793 1.350 . S
C2799 H2786 0.929 . S
C2799 C2791 1.433 . S
C2799 N2801 1.384 . S
N2800 C2796 1.427 . S
N2800 C2797 1.384 . S
N2801 C2793 1.427 . S
N2801 C2799 1.384 . S
H2802 C2808 0.930 . S
H2803 C2812 0.930 . S
H2804 C2817 0.929 . S
H2805 C2815 0.929 . S
H2806 C2810 0.929 . S
H2807 C2816 0.929 . S
C2808 H2802 0.930 . S
C2808 C2809 1.367 . S
C2808 C2816 1.378 . S
C2809 C2808 1.367 . S
C2809 C2817 1.433 . S
C2810 H2806 0.929 . S
C2810 C2812 1.378 . S
C2810 C2814 1.350 . S
C2811 C2814 1.463 . S
C2811 C2816 1.350 . S
C2811 N2819 1.427 . S
C2812 H2803 0.930 . S
C2812 C2810 1.378 . S
C2812 C2813 1.367 . S
C2813 C2812 1.367 . S
C2813 C2815 1.433 . S
C2814 C2810 1.350 . S
C2814 C2811 1.463 . S
C2814 N2818 1.427 . S
C2815 H2805 0.929 . S
C2815 C2813 1.433 . S
C2815 N2818 1.384 . S
C2816 H2807 0.929 . S
C2816 C2808 1.378 . S
C2816 C2811 1.350 . S
C2817 H2804 0.929 . S
C2817 C2809 1.433 . S
C2817 N2819 1.384 . S
N2818 C2814 1.427 . S
N2818 C2815 1.384 . S
N2819 C2811 1.427 . S
N2819 C2817 1.384 . S
H2820 C2826 0.930 . S
H2821 C2830 0.930 . S
H2822 C2835 0.929 . S
H2823 C2833 0.929 . S
H2824 C2828 0.929 . S
H2825 C2834 0.929 . S
C2826 H2820 0.930 . S
C2826 C2827 1.367 . S
C2826 C2834 1.378 . S
C2827 C2826 1.367 . S
C2827 C2835 1.433 . S
C2828 H2824 0.929 . S
C2828 C2830 1.378 . S
C2828 C2832 1.350 . S
C2829 C2832 1.463 . S
C2829 C2834 1.350 . S
C2829 N2837 1.427 . S
C2830 H2821 0.930 . S
C2830 C2828 1.378 . S
C2830 C2831 1.367 . S
C2831 C2830 1.367 . S
C2831 C2833 1.433 . S
C2832 C2828 1.350 . S
C2832 C2829 1.463 . S
C2832 N2836 1.427 . S
C2833 H2823 0.929 . S
C2833 C2831 1.433 . S
C2833 N2836 1.384 . S
C2834 H2825 0.929 . S
C2834 C2826 1.378 . S
C2834 C2829 1.350 . S
C2835 H2822 0.929 . S
C2835 C2827 1.433 . S
C2835 N2837 1.384 . S
N2836 C2832 1.427 . S
N2836 C2833 1.384 . S
N2837 C2829 1.427 . S
N2837 C2835 1.384 . S
H2838 C2844 0.930 . S
H2839 C2848 0.930 . S
H2840 C2853 0.929 . S
H2841 C2851 0.929 . S
H2842 C2846 0.929 . S
H2843 C2852 0.929 . S
C2844 H2838 0.930 . S
C2844 C2845 1.367 . S
C2844 C2852 1.378 . S
C2845 C2844 1.367 . S
C2845 C2853 1.433 . S
C2846 H2842 0.929 . S
C2846 C2848 1.378 . S
C2846 C2850 1.350 . S
C2847 C2850 1.463 . S
C2847 C2852 1.350 . S
C2847 N2855 1.427 . S
C2848 H2839 0.930 . S
C2848 C2846 1.378 . S
C2848 C2849 1.367 . S
C2849 C2848 1.367 . S
C2849 C2851 1.433 . S
C2850 C2846 1.350 . S
C2850 C2847 1.463 . S
C2850 N2854 1.427 . S
C2851 H2841 0.929 . S
C2851 C2849 1.433 . S
C2851 N2854 1.384 . S
C2852 H2843 0.929 . S
C2852 C2844 1.378 . S
C2852 C2847 1.350 . S
C2853 H2840 0.929 . S
C2853 C2845 1.433 . S
C2853 N2855 1.384 . S
N2854 C2850 1.427 . S
N2854 C2851 1.384 . S
N2855 C2847 1.427 . S
N2855 C2853 1.384 . S
H2856 C2862 0.930 . S
H2857 C2866 0.930 . S
H2858 C2871 0.929 . S
H2859 C2869 0.929 . S
H2860 C2864 0.929 . S
H2861 C2870 0.929 . S
C2862 H2856 0.930 . S
C2862 C2863 1.367 . S
C2862 C2870 1.378 . S
C2863 C2862 1.367 . S
C2863 C2871 1.433 . S
C2864 H2860 0.929 . S
C2864 C2866 1.378 . S
C2864 C2868 1.350 . S
C2865 C2868 1.463 . S
C2865 C2870 1.350 . S
C2865 N2873 1.427 . S
C2866 H2857 0.930 . S
C2866 C2864 1.378 . S
C2866 C2867 1.367 . S
C2867 C2866 1.367 . S
C2867 C2869 1.433 . S
C2868 C2864 1.350 . S
C2868 C2865 1.463 . S
C2868 N2872 1.427 . S
C2869 H2859 0.929 . S
C2869 C2867 1.433 . S
C2869 N2872 1.384 . S
C2870 H2861 0.929 . S
C2870 C2862 1.378 . S
C2870 C2865 1.350 . S
C2871 H2858 0.929 . S
C2871 C2863 1.433 . S
C2871 N2873 1.384 . S
N2872 C2868 1.427 . S
N2872 C2869 1.384 . S
N2873 C2865 1.427 . S
N2873 C2871 1.384 . S
H2874 C2880 0.930 . S
H2875 C2884 0.930 . S
H2876 C2889 0.929 . S
H2877 C2887 0.929 . S
H2878 C2882 0.929 . S
H2879 C2888 0.929 1_554 S
C2880 H2874 0.930 . S
C2880 C2881 1.367 1_554 S
C2880 C2888 1.378 1_554 S
C2881 C2880 1.367 1_556 S
C2881 C2889 1.433 . S
C2882 H2878 0.929 . S
C2882 C2884 1.378 . S
C2882 C2886 1.350 . S
C2883 C2886 1.463 . S
C2883 C2888 1.350 . S
C2883 N2891 1.427 . S
C2884 H2875 0.930 . S
C2884 C2882 1.378 . S
C2884 C2885 1.367 . S
C2885 C2884 1.367 . S
C2885 C2887 1.433 . S
C2886 C2882 1.350 . S
C2886 C2883 1.463 . S
C2886 N2890 1.427 . S
C2887 H2877 0.929 . S
C2887 C2885 1.433 . S
C2887 N2890 1.384 . S
C2888 H2879 0.929 1_556 S
C2888 C2880 1.378 1_556 S
C2888 C2883 1.350 . S
C2889 H2876 0.929 . S
C2889 C2881 1.433 . S
C2889 N2891 1.384 . S
N2890 C2886 1.427 . S
N2890 C2887 1.384 . S
N2891 C2883 1.427 . S
N2891 C2889 1.384 . S
H2892 C2898 0.930 . S
H2893 C2902 0.930 . S
H2894 C2907 0.929 . S
H2895 C2905 0.929 . S
H2896 C2900 0.929 . S
H2897 C2906 0.929 . S
C2898 H2892 0.930 . S
C2898 C2899 1.367 . S
C2898 C2906 1.378 . S
C2899 C2898 1.367 . S
C2899 C2907 1.433 . S
C2900 H2896 0.929 . S
C2900 C2902 1.378 . S
C2900 C2904 1.350 . S
C2901 C2904 1.463 . S
C2901 C2906 1.350 . S
C2901 N2909 1.427 . S
C2902 H2893 0.930 . S
C2902 C2900 1.378 . S
C2902 C2903 1.367 . S
C2903 C2902 1.367 . S
C2903 C2905 1.433 . S
C2904 C2900 1.350 . S
C2904 C2901 1.463 . S
C2904 N2908 1.427 . S
C2905 H2895 0.929 . S
C2905 C2903 1.433 . S
C2905 N2908 1.384 . S
C2906 H2897 0.929 . S
C2906 C2898 1.378 . S
C2906 C2901 1.350 . S
C2907 H2894 0.929 . S
C2907 C2899 1.433 . S
C2907 N2909 1.384 . S
N2908 C2904 1.427 . S
N2908 C2905 1.384 . S
N2909 C2901 1.427 . S
N2909 C2907 1.384 . S
H2910 C2916 0.930 . S
H2911 C2920 0.930 . S
H2912 C2925 0.929 . S
H2913 C2923 0.929 . S
H2914 C2918 0.929 . S
H2915 C2924 0.929 . S
C2916 H2910 0.930 . S
C2916 C2917 1.367 . S
C2916 C2924 1.378 . S
C2917 C2916 1.367 . S
C2917 C2925 1.433 . S
C2918 H2914 0.929 . S
C2918 C2920 1.378 . S
C2918 C2922 1.350 1_655 S
C2919 C2922 1.463 . S
C2919 C2924 1.350 . S
C2919 N2927 1.427 . S
C2920 H2911 0.930 . S
C2920 C2918 1.378 . S
C2920 C2921 1.367 . S
C2921 C2920 1.367 . S
C2921 C2923 1.433 . S
C2922 C2918 1.350 1_455 S
C2922 C2919 1.463 . S
C2922 N2926 1.427 1_455 S
C2923 H2913 0.929 . S
C2923 C2921 1.433 . S
C2923 N2926 1.384 . S
C2924 H2915 0.929 . S
C2924 C2916 1.378 . S
C2924 C2919 1.350 . S
C2925 H2912 0.929 . S
C2925 C2917 1.433 . S
C2925 N2927 1.384 . S
N2926 C2922 1.427 1_655 S
N2926 C2923 1.384 . S
N2927 C2919 1.427 . S
N2927 C2925 1.384 . S
C1211 C882 1.013 . S
C1207 C4 1.050 . S
C1225 C39 1.469 . S
C1229 C902 1.468 . S
C1247 C922 1.013 . S
C1243 C86 1.077 . S
C1265 C941 1.366 . S
C1261 C110 1.333 . S
C1283 C899 1.306 . S
C1279 C146 1.268 . S
C1297 C194 1.138 . S
C1301 C924 1.154 . S
C1319 C944 1.376 . S
C1315 C219 1.392 . S
C1333 C256 1.113 . S
C1337 C880 1.015 . S
C1351 C292 1.315 . S
C1355 C877 1.204 . S
C1373 C900 1.164 . S
C1369 C326 1.217 . S
C1391 C923 1.324 . S
C1387 C363 1.323 . S
C1409 C945 1.330 . S
C1405 C410 1.325 . S
C1427 C903 1.019 . S
C1423 C302 0.984 . S
C1445 C919 1.017 . S
C1441 C327 1.151 . S
C1459 C362 1.091 . S
C1463 C942 1.038 . S
C1481 C881 0.878 . S
C1477 C400 0.879 . S
C1495 C436 1.244 . S
C1499 C878 1.264 . S
C1513 C471 0.967 . S
C1517 C961 0.872 . S
C1535 C983 1.269 . S
C1531 C506 1.256 . S
C1553 C1006 1.078 . S
C1549 C554 1.167 . S
C1567 C580 1.302 . S
C1571 C879 1.255 . S
C1585 C614 1.394 . S
C1589 C921 1.343 . S
C1607 C1003 1.159 . S
C1603 C507 1.376 . S
C1625 C964 0.903 . S
C1621 C662 0.944 . S
C1643 C1029 1.057 . S
C1639 C50 1.012 . S
C1661 C1049 1.605 . S
C1657 C3 1.582 . S
C1675 C112 1.096 . S
C1679 C1071 1.061 . S
C1693 C74 1.122 . S
C1697 C1088 1.169 . S
C1711 C254 1.622 1_655 S
C1715 C1046 1.659 . S
C1729 C220 1.165 . S
C1733 C1069 1.060 . S
C1751 C1091 1.326 . S
C1747 C183 1.320 . S
C1765 C158 1.195 . S
C1769 C1027 1.164 . S
C1783 C698 1.006 . S
C1787 C1024 1.037 . S
C1805 C1047 1.438 . S
C1801 C542 1.516 . S
C1823 C1066 1.304 . S
C1819 C579 1.421 . S
C1841 C1092 1.237 . S
C1837 C472 1.303 . S
C1859 C1050 0.989 . S
C1855 C688 1.038 . S
C1877 C1070 1.031 . S
C1873 C543 1.024 . S
C1895 C1089 0.876 . S
C1891 C578 0.897 . S
C1909 C482 1.223 . S
C1913 C1028 1.406 . S
C1931 C1025 1.417 . S
C1927 C734 1.264 . S
C1945 C399 1.161 . S
C1949 C1108 1.033 . S
C1967 C1131 1.308 . S
C1963 C758 1.368 . S
C1981 C328 1.237 . S
C1985 C1153 1.058 . S
C2003 C1026 1.380 . S
C1999 C374 1.298 . S
C2021 C1067 1.432 . S
C2017 C794 1.395 . S
C2039 C1150 0.999 . S
C2035 C759 1.133 . S
C2053 C832 0.861 . S
C2057 C1111 0.807 . S
C2071 C76 1.040 . S
C2075 C1176 1.001 . S
C2089 C111 1.481 . S
C2093 C965 1.479 . S
C2111 C985 1.026 . S
C2107 C14 1.081 . S
C2125 C38 1.350 . S
C2129 C1004 1.378 . S
C2143 C218 1.272 . S
C2147 C962 1.308 . S
C2161 C266 1.138 . S
C2165 C987 1.153 . S
C2183 C1007 1.378 . S
C2179 C147 1.396 . S
C2201 C1174 1.013 . S
C2197 C184 1.113 . S
C2219 C1171 1.188 . S
C2215 C760 1.323 . S
C2237 C963 1.164 . S
C2233 C722 1.210 . S
C2255 C986 1.315 . S
C2251 C831 1.316 . S
C2269 C806 1.340 . S
C2273 C1008 1.352 . S
C2291 C966 1.010 . S
C2287 C770 0.994 . S
C2305 C723 1.151 . S
C2309 C982 1.007 . S
C2327 C1005 1.053 . S
C2323 C830 1.106 . S
C2341 C796 0.859 . S
C2345 C1175 0.873 . S
C2363 C1172 1.274 . S
C2359 C544 1.259 . S
C2377 C615 0.967 . S
C2381 C898 0.869 . S
C2399 C920 1.267 . S
C2395 C686 1.254 . S
C2413 C446 1.169 . S
C2417 C943 1.081 . S
C2435 C1173 1.252 . S
C2431 C652 1.302 . S
C2453 C984 1.331 . S
C2449 C470 1.381 . S
C2471 C940 1.168 . S
C2467 C687 1.376 . S
C2489 C901 0.864 . S
C2485 C590 0.914 . S
C2503 C122 1.014 . S
C2507 C1197 1.052 . S
C2521 C75 1.583 . S
C2525 C1112 1.604 . S
C2539 C40 1.083 . S
C2543 C1134 1.045 . S
C2561 C1151 1.171 . S
C2557 C2 1.125 . S
C2579 C1109 1.664 . S
C2575 C182 1.633 . S
C2593 C148 1.154 . S
C2597 C1132 1.028 . S
C2615 C1154 1.312 . S
C2611 C255 1.303 . S
C2629 C230 1.199 . S
C2633 C1195 1.177 . S
C2651 C1192 1.038 . S
C2647 C518 1.007 . S
C2665 C434 1.530 . S
C2669 C1110 1.459 . S
C2683 C651 1.418 . S
C2687 C1129 1.315 . S
C2705 C1155 1.216 . S
C2701 C616 1.288 . S
C2723 C1113 1.003 . S
C2719 C508 1.048 . S
C2737 C435 1.008 . S
C2741 C1133 1.024 . S
C2759 C1152 0.859 . S
C2755 C650 0.884 . S
C2777 C1196 1.406 . S
C2773 C626 1.234 . S
C2795 C1193 1.413 . S
C2791 C338 1.276 . S
C2813 C1045 1.038 . S
C2809 C795 1.163 . S
C2827 C290 1.379 . S
C2831 C1068 1.325 . S
C2845 C724 1.233 . S
C2849 C1090 1.076 . S
C2867 C1194 1.381 . S
C2863 C842 1.287 . S
C2885 C1130 1.426 . S
C2881 C398 1.395 1_556 S
C2903 C1087 0.992 . S
C2899 C291 1.111 . S
C2921 C1048 0.842 . S
C2917 C364 0.876 . S
