# Generated by pormake.
# Topology iac, (4,6)-cn, num edge types: 1
# Building blocks:
#     Node 0, Type 0, BuildingBlock: QUQFOY_clean_sbu_1, # of connection points: 4
#     Node 1, Type 0, BuildingBlock: QUQFOY_clean_sbu_1, # of connection points: 4
#     Node 2, Type 0, BuildingBlock: QUQFOY_clean_sbu_1, # of connection points: 4
#     Node 3, Type 0, BuildingBlock: QUQFOY_clean_sbu_1, # of connection points: 4
#     Node 4, Type 0, BuildingBlock: QUQFOY_clean_sbu_1, # of connection points: 4
#     Node 5, Type 0, BuildingBlock: QUQFOY_clean_sbu_1, # of connection points: 4
#     Node 6, Type 0, BuildingBlock: QUQFOY_clean_sbu_1, # of connection points: 4
#     Node 7, Type 0, BuildingBlock: QUQFOY_clean_sbu_1, # of connection points: 4
#     Node 8, Type 0, BuildingBlock: QUQFOY_clean_sbu_1, # of connection points: 4
#     Node 9, Type 0, BuildingBlock: QUQFOY_clean_sbu_1, # of connection points: 4
#     Node 10, Type 0, BuildingBlock: QUQFOY_clean_sbu_1, # of connection points: 4
#     Node 11, Type 0, BuildingBlock: QUQFOY_clean_sbu_1, # of connection points: 4
#     Node 12, Type 0, BuildingBlock: QUQFOY_clean_sbu_1, # of connection points: 4
#     Node 13, Type 0, BuildingBlock: QUQFOY_clean_sbu_1, # of connection points: 4
#     Node 14, Type 0, BuildingBlock: QUQFOY_clean_sbu_1, # of connection points: 4
#     Node 15, Type 0, BuildingBlock: QUQFOY_clean_sbu_1, # of connection points: 4
#     Node 16, Type 0, BuildingBlock: QUQFOY_clean_sbu_1, # of connection points: 4
#     Node 17, Type 0, BuildingBlock: QUQFOY_clean_sbu_1, # of connection points: 4
#     Node 18, Type 0, BuildingBlock: QUQFOY_clean_sbu_1, # of connection points: 4
#     Node 19, Type 0, BuildingBlock: QUQFOY_clean_sbu_1, # of connection points: 4
#     Node 20, Type 0, BuildingBlock: QUQFOY_clean_sbu_1, # of connection points: 4
#     Node 21, Type 0, BuildingBlock: QUQFOY_clean_sbu_1, # of connection points: 4
#     Node 22, Type 0, BuildingBlock: QUQFOY_clean_sbu_1, # of connection points: 4
#     Node 23, Type 0, BuildingBlock: QUQFOY_clean_sbu_1, # of connection points: 4
#     Node 24, Type 1, BuildingBlock: FUNLAD_clean_sbu_0, # of connection points: 6
#     Node 25, Type 1, BuildingBlock: FUNLAD_clean_sbu_0, # of connection points: 6
#     Node 26, Type 1, BuildingBlock: FUNLAD_clean_sbu_0, # of connection points: 6
#     Node 27, Type 1, BuildingBlock: FUNLAD_clean_sbu_0, # of connection points: 6
#     Node 28, Type 1, BuildingBlock: FUNLAD_clean_sbu_0, # of connection points: 6
#     Node 29, Type 1, BuildingBlock: FUNLAD_clean_sbu_0, # of connection points: 6
#     Node 30, Type 1, BuildingBlock: FUNLAD_clean_sbu_0, # of connection points: 6
#     Node 31, Type 1, BuildingBlock: FUNLAD_clean_sbu_0, # of connection points: 6
#     Node 32, Type 1, BuildingBlock: FUNLAD_clean_sbu_0, # of connection points: 6
#     Node 33, Type 1, BuildingBlock: FUNLAD_clean_sbu_0, # of connection points: 6
#     Node 34, Type 1, BuildingBlock: FUNLAD_clean_sbu_0, # of connection points: 6
#     Node 35, Type 1, BuildingBlock: FUNLAD_clean_sbu_0, # of connection points: 6
#     Node 36, Type 1, BuildingBlock: FUNLAD_clean_sbu_0, # of connection points: 6
#     Node 37, Type 1, BuildingBlock: FUNLAD_clean_sbu_0, # of connection points: 6
#     Node 38, Type 1, BuildingBlock: FUNLAD_clean_sbu_0, # of connection points: 6
#     Node 39, Type 1, BuildingBlock: FUNLAD_clean_sbu_0, # of connection points: 6
#     Edge 40, Type (0, 1), None
#     Edge 41, Type (0, 1), None
#     Edge 42, Type (0, 1), None
#     Edge 43, Type (0, 1), None
#     Edge 44, Type (0, 1), None
#     Edge 45, Type (0, 1), None
#     Edge 46, Type (0, 1), None
#     Edge 47, Type (0, 1), None
#     Edge 48, Type (0, 1), None
#     Edge 49, Type (0, 1), None
#     Edge 50, Type (0, 1), None
#     Edge 51, Type (0, 1), None
#     Edge 52, Type (0, 1), None
#     Edge 53, Type (0, 1), None
#     Edge 54, Type (0, 1), None
#     Edge 55, Type (0, 1), None
#     Edge 56, Type (0, 1), None
#     Edge 57, Type (0, 1), None
#     Edge 58, Type (0, 1), None
#     Edge 59, Type (0, 1), None
#     Edge 60, Type (0, 1), None
#     Edge 61, Type (0, 1), None
#     Edge 62, Type (0, 1), None
#     Edge 63, Type (0, 1), None
#     Edge 64, Type (0, 1), None
#     Edge 65, Type (0, 1), None
#     Edge 66, Type (0, 1), None
#     Edge 67, Type (0, 1), None
#     Edge 68, Type (0, 1), None
#     Edge 69, Type (0, 1), None
#     Edge 70, Type (0, 1), None
#     Edge 71, Type (0, 1), None
#     Edge 72, Type (0, 1), None
#     Edge 73, Type (0, 1), None
#     Edge 74, Type (0, 1), None
#     Edge 75, Type (0, 1), None
#     Edge 76, Type (0, 1), None
#     Edge 77, Type (0, 1), None
#     Edge 78, Type (0, 1), None
#     Edge 79, Type (0, 1), None
#     Edge 80, Type (0, 1), None
#     Edge 81, Type (0, 1), None
#     Edge 82, Type (0, 1), None
#     Edge 83, Type (0, 1), None
#     Edge 84, Type (0, 1), None
#     Edge 85, Type (0, 1), None
#     Edge 86, Type (0, 1), None
#     Edge 87, Type (0, 1), None
#     Edge 88, Type (0, 1), None
#     Edge 89, Type (0, 1), None
#     Edge 90, Type (0, 1), None
#     Edge 91, Type (0, 1), None
#     Edge 92, Type (0, 1), None
#     Edge 93, Type (0, 1), None
#     Edge 94, Type (0, 1), None
#     Edge 95, Type (0, 1), None
#     Edge 96, Type (0, 1), None
#     Edge 97, Type (0, 1), None
#     Edge 98, Type (0, 1), None
#     Edge 99, Type (0, 1), None
#     Edge 100, Type (0, 1), None
#     Edge 101, Type (0, 1), None
#     Edge 102, Type (0, 1), None
#     Edge 103, Type (0, 1), None
#     Edge 104, Type (0, 1), None
#     Edge 105, Type (0, 1), None
#     Edge 106, Type (0, 1), None
#     Edge 107, Type (0, 1), None
#     Edge 108, Type (0, 1), None
#     Edge 109, Type (0, 1), None
#     Edge 110, Type (0, 1), None
#     Edge 111, Type (0, 1), None
#     Edge 112, Type (0, 1), None
#     Edge 113, Type (0, 1), None
#     Edge 114, Type (0, 1), None
#     Edge 115, Type (0, 1), None
#     Edge 116, Type (0, 1), None
#     Edge 117, Type (0, 1), None
#     Edge 118, Type (0, 1), None
#     Edge 119, Type (0, 1), None
#     Edge 120, Type (0, 1), None
#     Edge 121, Type (0, 1), None
#     Edge 122, Type (0, 1), None
#     Edge 123, Type (0, 1), None
#     Edge 124, Type (0, 1), None
#     Edge 125, Type (0, 1), None
#     Edge 126, Type (0, 1), None
#     Edge 127, Type (0, 1), None
#     Edge 128, Type (0, 1), None
#     Edge 129, Type (0, 1), None
#     Edge 130, Type (0, 1), None
#     Edge 131, Type (0, 1), None
#     Edge 132, Type (0, 1), None
#     Edge 133, Type (0, 1), None
#     Edge 134, Type (0, 1), None
#     Edge 135, Type (0, 1), None
# Relax obj value: 0.521
# Max RMSD: 0.362
# Mean RMSD: 0.206
data_MOF--net-iac--node1-QUQFOY_clean_sbu_1--node2-FUNLAD_clean_sbu_0--edge1-none
_symmetry_space_group_name_H-M    P1
_symmetry_Int_Tables_number       1
_symmetry_cell_setting            triclinic
loop_
_symmetry_equiv_pos_as_xyz
'x, y, z'
_cell_length_a     25.731957
_cell_length_b     24.782981
_cell_length_c     30.548496
_cell_angle_alpha  91.636495
_cell_angle_beta   89.052229
_cell_angle_gamma 90.916306
loop_
_atom_site_label
_atom_site_type_symbol
_atom_site_fract_x
_atom_site_fract_y
_atom_site_fract_z
_atom_type_partial_charge
O0 O 0.13979 0.16838 0.12646 0.0
Cd1 Cd 0.14397 0.2207 0.18207 0.0
Cd2 Cd 0.23887 0.22905 0.12337 0.0
O3 O 0.21681 0.15965 0.0938 0.0
O4 O 0.10808 0.18186 0.23072 0.0
O5 O 0.07582 0.25246 0.19758 0.0
C6 C 0.07193 0.21684 0.22754 0.0
C7 C 0.21209 0.30323 0.09118 0.0
C8 C 0.16895 0.14727 0.09666 0.0
C9 C 0.25083 0.26326 0.21328 0.0
O10 O 0.27415 0.23874 0.18183 0.0
O11 O 0.20167 0.26553 0.21453 0.0
O12 O 0.25848 0.28627 0.08301 0.0
O13 O 0.18188 0.27846 0.11828 0.0
O14 O 0.17624 0.77025 0.41025 0.0
Cd15 Cd 0.11453 0.77572 0.45781 0.0
Cd16 Cd 0.07231 0.83445 0.38725 0.0
O17 O 0.13894 0.80292 0.35223 0.0
O18 O 0.13323 0.72815 0.50689 0.0
O19 O 0.06587 0.71103 0.46448 0.0
C20 C 0.09329 0.69839 0.49756 0.0
C21 C 0.98752 0.82464 0.35801 0.0
C22 C 0.17754 0.77979 0.36922 0.0
C23 C 0.08472 0.89188 0.47785 0.0
O24 O 0.07884 0.89629 0.43658 0.0
O25 O 0.09695 0.84681 0.49311 0.0
O26 O 1.02068 0.85908 0.34266 0.0
O27 O 1.00271 0.7943 0.38888 0.0
O28 O 0.64365 0.66441 0.62701 0.0
Cd29 Cd 0.64173 0.7167 0.68244 0.0
Cd30 Cd 0.73594 0.72925 0.62231 0.0
O31 O 0.71783 0.65779 0.59016 0.0
O32 O 0.5986 0.68103 0.72866 0.0
O33 O 0.57321 0.7515 0.69149 0.0
C34 C 0.56428 0.71691 0.72164 0.0
C35 C 0.70605 0.80786 0.59625 0.0
C36 C 0.67102 0.64321 0.59595 0.0
C37 C 0.74791 0.75881 0.71494 0.0
O38 O 0.77122 0.73839 0.68148 0.0
O39 O 0.69876 0.75783 0.71792 0.0
O40 O 0.75217 0.79201 0.58522 0.0
O41 O 0.67672 0.77804 0.62046 0.0
O42 O 0.65747 0.24593 0.91444 0.0
Cd43 Cd 0.59912 0.25081 0.96655 0.0
Cd44 Cd 0.55562 0.32063 0.89291 0.0
O45 O 0.62192 0.28693 0.85883 0.0
O46 O 0.62038 0.20149 0.01535 0.0
O47 O 0.54895 0.18693 0.9783 0.0
C48 C 0.57854 0.17313 1.00968 0.0
C49 C 0.47194 0.32205 0.85901 0.0
C50 C 0.65927 0.25991 0.87412 0.0
C51 C 0.57527 0.37107 0.98658 0.0
O52 O 0.56664 0.37732 0.94584 0.0
O53 O 0.58603 0.32469 1.00066 0.0
O54 O 0.50916 0.35423 0.84726 0.0
O55 O 0.48215 0.28818 0.88895 0.0
O56 O 0.25743 0.99636 0.17416 0.0
Cd57 Cd 0.2894 1.00061 0.23738 0.0
Cd58 Cd 0.19384 0.03882 0.2618 0.0
O59 O 0.17695 1.00185 0.19996 0.0
O60 O 0.34423 0.94568 0.24261 0.0
O61 O 0.26716 0.94205 0.27664 0.0
C62 C 0.31251 0.9219 0.26924 0.0
C63 C 0.15266 0.03848 0.32902 0.0
C64 C 0.20864 0.9918 0.16806 0.0
C65 C 0.2827 0.10867 0.28215 0.0
O66 O 0.23617 0.1086 0.26923 0.0
O67 O 0.31208 0.06951 0.27211 0.0
O68 O 0.13061 0.06051 0.29643 0.0
O69 O 0.19203 0.00762 0.32102 0.0
O70 O 0.31645 0.90364 0.66042 0.0
Cd71 Cd 0.32727 0.95904 0.60654 0.0
Cd72 Cd 0.40056 0.87677 0.5957 0.0
O73 O 0.37323 0.83869 0.64837 0.0
O74 O 0.27086 0.01564 0.61542 0.0
O75 O 0.27069 0.95822 0.55937 0.0
C76 C 0.24871 0.998 0.58016 0.0
C77 C 0.39054 0.84384 0.52805 0.0
C78 C 0.33627 0.85847 0.67087 0.0
C79 C 0.44651 0.98244 0.58911 0.0
O80 O 0.4555 0.93432 0.59901 0.0
O81 O 0.39975 0.99967 0.58919 0.0
O82 O 0.42574 0.82416 0.55235 0.0
O83 O 0.35888 0.87989 0.54351 0.0
O84 O 0.498 0.08135 0.71904 0.0
Cd85 Cd 0.43731 0.07095 0.76845 0.0
Cd86 Cd 0.52816 0.98954 0.78503 0.0
O87 O 0.55752 0.01894 0.72813 0.0
O88 O 0.37894 0.11746 0.74818 0.0
O89 O 0.41897 0.13352 0.81047 0.0
C90 C 0.38295 0.14604 0.78385 0.0
C91 C 0.58109 0.97993 0.84305 0.0
C92 C 0.54104 0.05885 0.70765 0.0
C93 C 0.41608 0.9513 0.79391 0.0
O94 O 0.46401 0.9409 0.79036 0.0
O95 O 0.39935 0.99818 0.78633 0.0
O96 O 0.58152 0.94439 0.81143 0.0
O97 O 0.55297 0.02241 0.84014 0.0
O98 O 0.38418 0.13027 0.13233 0.0
Cd99 Cd 0.37049 0.08362 0.07705 0.0
Cd100 Cd 0.38895 0.17829 0.03669 0.0
O101 O 0.42903 0.1911 0.09551 0.0
O102 O 0.39397 0.00711 0.07987 0.0
O103 O 0.43777 0.07314 0.04785 0.0
C104 C 0.43403 0.02312 0.05743 0.0
C105 C 0.33034 0.23844 1.01302 0.0
C106 C 0.41631 0.1698 0.13171 0.0
C107 C 0.34363 0.09125 0.99292 0.0
O108 O 0.38747 0.11513 0.98959 0.0
O109 O 0.31887 0.09491 0.02921 0.0
O110 O 0.31538 0.20191 0.03989 0.0
O111 O 0.37951 0.24511 1.00508 0.0
O112 O 0.82599 0.38914 0.16625 0.0
Cd113 Cd 0.83166 0.44277 0.11177 0.0
Cd114 Cd 0.90395 0.3604 0.0966 0.0
O115 O 0.88132 0.32342 0.15215 0.0
O116 O 0.77392 0.49754 0.12237 0.0
O117 O 0.77097 0.43612 0.06902 0.0
C118 C 0.74897 0.47571 0.09 0.0
C119 C 0.8825 0.33193 0.02929 0.0
C120 C 0.84622 0.34418 0.17632 0.0
C121 C 0.94917 0.46632 0.0853 0.0
O122 O 0.95942 0.41818 0.09463 0.0
O123 O 0.90236 0.48342 0.08899 0.0
O124 O 0.91935 0.30834 0.04923 0.0
O125 O 0.85526 0.36863 0.04926 0.0
O126 O 1.0082 0.56652 0.21192 0.0
Cd127 Cd 0.94854 0.56224 0.2613 0.0
Cd128 Cd 0.03858 0.48346 0.28253 0.0
O129 O 0.06555 0.5022 0.22133 0.0
O130 O 0.89405 0.61304 0.23995 0.0
O131 O 0.93702 0.62767 0.30123 0.0
C132 C 0.90238 0.64297 0.27433 0.0
C133 C 0.09668 0.48779 0.33883 0.0
C134 C 0.04954 0.54158 0.19994 0.0
C135 C 0.92443 0.44719 0.29526 0.0
O136 O 0.9728 0.43757 0.29502 0.0
O137 O 0.90776 0.49208 0.28212 0.0
O138 O 0.09435 0.4456 0.3132 0.0
O139 O 0.06697 0.52803 0.33149 0.0
O140 O 0.9086 0.54943 0.64852 0.0
Cd141 Cd 0.89292 0.49401 0.59801 0.0
Cd142 Cd 0.84485 0.58657 0.5571 0.0
O143 O 0.88002 0.61942 0.61319 0.0
O144 O 0.95335 0.45592 0.57294 0.0
O145 O 0.91221 0.52027 0.5396 0.0
C146 C 0.95209 0.49009 0.54178 0.0
C147 C 0.82666 0.64752 0.50296 0.0
C148 C 0.90266 0.60018 0.64594 0.0
C149 C 0.80273 0.4635 0.56288 0.0
O150 O 0.80727 0.51129 0.54845 0.0
O151 O 0.82938 0.44869 0.59457 0.0
O152 O 0.86841 0.61932 0.50044 0.0
O153 O 0.79596 0.64156 0.53609 0.0
O154 O 0.67134 0.49858 0.70512 0.0
Cd155 Cd 0.72412 0.49878 0.75949 0.0
Cd156 Cd 0.64779 0.586 0.77454 0.0
O157 O 0.6129 0.56204 0.71884 0.0
O158 O 0.77959 0.44377 0.74441 0.0
O159 O 0.72437 0.43528 0.79995 0.0
C160 C 0.76412 0.41731 0.77804 0.0
C161 C 0.62201 0.57287 0.84291 0.0
C162 C 0.63032 0.52399 0.69468 0.0
C163 C 0.75314 0.61537 0.7926 0.0
O164 O 0.7114 0.63375 0.77791 0.0
O165 O 0.76361 0.56546 0.78863 0.0
O166 O 0.60235 0.61228 0.82208 0.0
O167 O 0.64897 0.53654 0.82181 0.0
O168 O 0.09791 0.79707 0.85363 0.0
Cd169 Cd 0.13702 0.78168 0.9103 0.0
Cd170 Cd 1.01968 0.81534 0.92705 0.0
O171 O 0.04832 0.863 0.87838 0.0
O172 O 0.15403 0.72905 0.95869 0.0
O173 O 0.07894 0.73902 0.92897 0.0
C174 C 0.10451 0.72273 0.96052 0.0
C175 C 0.94665 0.75943 0.91245 0.0
C176 C 0.08004 0.84437 0.84975 0.0
C177 C 0.10706 0.85205 0.98412 0.0
O178 O 0.06078 0.83201 0.9848 0.0
O179 O 0.13608 0.84821 0.94999 0.0
O180 O 0.94144 0.80637 0.93165 0.0
O181 O 0.99272 0.74383 0.90294 0.0
O182 O 0.06927 0.18894 0.66647 0.0
Cd183 Cd 0.058 0.24707 0.71931 0.0
Cd184 Cd 0.1189 0.30754 0.64981 0.0
O185 O 0.10807 0.23564 0.61375 0.0
O186 O 0.99966 0.22083 0.76216 0.0
O187 O 0.99073 0.29382 0.72471 0.0
C188 C 0.9709 0.26098 0.75278 0.0
C189 C 0.11113 0.39218 0.61422 0.0
C190 C 0.09008 0.19117 0.62793 0.0
C191 C 0.17193 0.28274 0.73816 0.0
O192 O 0.17385 0.30103 0.69938 0.0
O193 O 0.12908 0.26364 0.75399 0.0
O194 O 0.14737 0.35868 0.60402 0.0
O195 O 0.07824 0.37787 0.64423 0.0
O196 O 0.56505 0.26986 0.43371 0.0
Cd197 Cd 0.52148 0.3048 0.38745 0.0
Cd198 Cd 0.45512 0.33614 0.50108 0.0
O199 O 0.52464 0.33498 0.46771 0.0
O200 O 0.55013 0.31597 0.32762 0.0
O201 O 0.55795 0.37485 0.383 0.0
C202 C 0.57136 0.35961 0.3439 0.0
C203 C 0.46283 0.39804 0.55566 0.0
C204 C 0.55064 0.29227 0.46968 0.0
C205 C 0.42026 0.28115 0.4282 0.0
O206 O 0.40248 0.28545 0.46744 0.0
O207 O 0.44971 0.31903 0.4147 0.0
O208 O 0.47002 0.34752 0.56357 0.0
O209 O 0.43927 0.41028 0.52011 0.0
O210 O 0.58243 0.66455 0.18151 0.0
Cd211 Cd 0.57509 0.72781 0.22915 0.0
Cd212 Cd 0.629 0.78328 0.15878 0.0
O213 O 0.61567 0.70988 0.12581 0.0
O214 O 0.51672 0.70951 0.27304 0.0
O215 O 0.51049 0.77615 0.22751 0.0
C216 C 0.4894 0.74799 0.25821 0.0
C217 C 0.61183 0.86506 0.12307 0.0
C218 C 0.59928 0.66582 0.14189 0.0
C219 C 0.68682 0.76686 0.2456 0.0
O220 O 0.68705 0.7823 0.20599 0.0
O221 O 0.64521 0.7474 0.26295 0.0
O222 O 0.64981 0.83472 0.11064 0.0
O223 O 0.58331 0.84936 0.15563 0.0
O224 O 0.95011 0.00915 0.77476 0.0
Cd225 Cd 0.90346 0.01977 0.82838 0.0
Cd226 Cd 0.99516 0.98687 0.86402 0.0
O227 O 0.02691 0.01126 0.8058 0.0
O228 O 0.84408 0.06045 0.80423 0.0
O229 O 0.89382 0.09264 0.85761 0.0
C230 C 0.85665 0.0998 0.83056 0.0
C231 C 0.04476 0.0055 0.92891 0.0
C232 C 0.99919 0.00793 0.77177 0.0
C233 C 0.90545 0.90682 0.84397 0.0
O234 O 0.95398 0.91377 0.85083 0.0
O235 O 0.87477 0.94658 0.84535 0.0
O236 O 1.0001 0.02737 0.92419 0.0
O237 O 0.05993 0.9728 0.89815 0.0
O238 O 0.86617 0.22514 0.56528 0.0
Cd239 Cd 0.85751 0.14367 0.56079 0.0
Cd240 Cd 0.79189 0.25184 0.51668 0.0
O241 O 0.81939 0.29592 0.56937 0.0
O242 O 0.91205 0.09908 0.58868 0.0
O243 O 0.90872 0.10928 0.51701 0.0
C244 C 0.93236 0.09019 0.55015 0.0
C245 C 0.81476 0.27955 0.44573 0.0
C246 C 0.83858 0.25697 0.58899 0.0
C247 C 0.73696 0.14675 0.55918 0.0
O248 O 0.73708 0.1918 0.53898 0.0
O249 O 0.77892 0.12162 0.56722 0.0
O250 O 0.77441 0.2986 0.46642 0.0
O251 O 0.84091 0.24271 0.46449 0.0
O252 O 0.66212 0.03379 0.28543 0.0
Cd253 Cd 0.72609 0.03619 0.32631 0.0
Cd254 Cd 0.65508 0.1014 0.37116 0.0
O255 O 0.60596 0.08576 0.32178 0.0
O256 O 0.77456 0.98176 0.29758 0.0
O257 O 0.74426 0.97035 0.36414 0.0
C258 C 0.77184 0.95217 0.33149 0.0
C259 C 0.62361 0.07972 0.44113 0.0
C260 C 0.61845 0.05732 0.28844 0.0
C261 C 0.74821 0.1578 0.32919 0.0
O262 O 0.70693 0.16292 0.35264 0.0
O263 O 0.76561 0.11085 0.31933 0.0
O264 O 0.6097 0.1231 0.42234 0.0
O265 O 0.65791 0.04983 0.42129 0.0
O266 O 0.73649 0.96795 0.19413 0.0
Cd267 Cd 0.77844 0.01796 0.1537 0.0
Cd268 Cd 0.77654 0.90167 0.08824 0.0
O269 O 0.72378 0.91692 0.13752 0.0
O270 O 0.74318 0.07976 0.12975 0.0
O271 O 0.75759 1.00216 0.09385 0.0
C272 C 0.73464 0.04755 0.09647 0.0
C273 C 0.75229 0.86106 0.02137 0.0
C274 C 0.74279 0.92241 0.17537 0.0
C275 C 0.87564 0.96975 0.12106 0.0
O276 O 0.85224 0.93195 0.0991 0.0
O277 O 0.85306 0.00563 0.14462 0.0
O278 O 0.76788 0.83258 0.05337 0.0
O279 O 0.75013 0.91282 0.02763 0.0
O280 O 0.36648 0.7115 0.05809 0.0
Cd281 Cd 0.35916 0.62992 0.06072 0.0
Cd282 Cd 0.29263 0.74027 1.00793 0.0
O283 O 0.3214 0.78373 0.06041 0.0
O284 O 0.41134 0.58701 0.09408 0.0
O285 O 0.41253 0.5907 0.02184 0.0
C286 C 0.43361 0.57401 0.05707 0.0
C287 C 0.30982 0.77328 0.93723 0.0
C288 C 0.34196 0.74657 0.08124 0.0
C289 C 0.23853 0.63372 0.05144 0.0
O290 O 0.23936 0.67841 0.03058 0.0
O291 O 0.27999 0.60926 0.06217 0.0
O292 O 0.27022 0.78963 0.96039 0.0
O293 O 0.33814 0.73609 0.95321 0.0
O294 O 0.14743 0.54355 0.76558 0.0
Cd295 Cd 0.21328 0.54443 0.80429 0.0
Cd296 Cd 0.14416 0.60161 0.85842 0.0
O297 O 0.09312 0.59022 0.80842 0.0
O298 O 0.26366 0.49158 0.77573 0.0
O299 O 0.23256 0.48127 0.84252 0.0
C300 C 0.26162 0.46355 0.81057 0.0
C301 C 0.11639 0.57347 0.92971 0.0
C302 C 0.10373 0.56622 0.77227 0.0
C303 C 0.23492 0.66425 0.81561 0.0
O304 O 0.19545 0.66632 0.84177 0.0
O305 O 0.25128 0.61889 0.80087 0.0
O306 O 0.09984 0.61696 0.91278 0.0
O307 O 0.1504 0.5463 0.90704 0.0
O308 O 0.23394 0.44534 0.68895 0.0
Cd309 Cd 0.27047 0.51003 0.66049 0.0
Cd310 Cd 0.28679 0.41986 0.57303 0.0
O311 O 0.23314 0.41697 0.62248 0.0
O312 O 0.23501 0.57836 0.65067 0.0
O313 O 0.24982 0.5143 0.59996 0.0
C314 C 0.23121 0.56041 0.61061 0.0
C315 C 0.26322 0.37152 0.50899 0.0
C316 C 0.24617 0.40873 0.6613 0.0
C317 C 0.36447 0.50985 0.61072 0.0
O318 O 0.34539 0.4816 0.57859 0.0
O319 O 0.34597 0.50933 0.6493 0.0
O320 O 0.29344 0.35088 0.53732 0.0
O321 O 0.24882 0.42079 0.51588 0.0
O322 O 0.44416 0.50024 0.28002 0.0
Cd323 Cd 0.39764 0.51992 0.33286 0.0
Cd324 Cd 0.48474 0.49166 0.36744 0.0
O325 O 0.52089 0.50943 0.31042 0.0
O326 O 0.34219 0.56348 0.30776 0.0
O327 O 0.395 0.59331 0.36035 0.0
C328 C 0.35791 0.60216 0.33356 0.0
C329 C 0.52385 0.51481 0.43409 0.0
C330 C 0.49335 0.49961 0.277 0.0
C331 C 0.39299 0.41399 0.35389 0.0
O332 O 0.44187 0.42097 0.35713 0.0
O333 O 0.36258 0.45359 0.35598 0.0
O334 O 0.54202 0.4771 0.40874 0.0
O335 O 0.48316 0.53984 0.42174 0.0
C336 C 0.076 0.01273 0.96928 0.0
N337 N 0.0328 0.99141 0.09516 0.0
C338 C 1.00091 0.03426 0.09336 0.0
C339 C 0.94916 0.02803 0.1042 0.0
C340 C 0.93063 0.97697 0.11553 0.0
C341 C 0.96443 0.93418 0.12012 0.0
C342 C 1.01665 0.9428 0.1104 0.0
Zn343 Zn 0.09818 0.99704 0.06231 0.0
C344 C 0.12243 0.89231 0.0172 0.0
N345 N 0.23539 1.00252 0.98829 0.0
C346 C 0.23453 0.04132 0.95751 0.0
C347 C 0.28006 0.97645 0.99666 0.0
C348 C 0.3272 0.99739 0.9806 0.0
C349 C 0.3265 0.0487 0.9621 0.0
C350 C 0.28107 0.0627 0.9412 0.0
Zn351 Zn 0.17097 0.99578 0.02694 0.0
O352 O 0.05403 0.02011 1.00631 0.0
C353 C 0.14903 0.10117 0.07096 0.0
O354 O 0.12431 1.0028 0.96821 0.0
H355 H 0.27983 0.94396 0.01958 0.0
H356 H 1.01451 0.07198 0.08013 0.0
H357 H 0.19869 0.0608 0.94986 0.0
O358 O 0.10931 0.07607 0.08501 0.0
O359 O 0.17711 0.0798 0.0409 0.0
H360 H 0.04341 0.90974 0.11192 0.0
O361 O 0.21471 0.98792 0.08825 0.0
O362 O 0.13834 0.97578 0.11964 0.0
O363 O 0.16734 0.91367 1.01366 0.0
O364 O 0.08723 0.91694 0.03864 0.0
C365 C 0.18723 0.98177 0.12316 0.0
H366 H 0.92324 0.06166 0.10072 0.0
H367 H 0.95045 0.89474 0.12983 0.0
H368 H 0.36299 0.9818 0.99295 0.0
H369 H 0.27996 0.09907 0.92243 0.0
C370 C 0.43554 0.75817 0.27546 0.0
N371 N 0.29385 0.72666 0.21338 0.0
C372 C 0.26842 0.76246 0.18889 0.0
C373 C 0.28136 0.7673 0.14455 0.0
C374 C 0.32049 0.73476 0.12538 0.0
C375 C 0.34082 0.6936 0.1501 0.0
C376 C 0.32622 0.68964 0.19413 0.0
Zn377 Zn 0.31293 0.74882 0.27641 0.0
C378 C 0.34028 0.65687 0.32747 0.0
N379 N 0.3712 0.79606 0.39765 0.0
C380 C 0.40028 0.84109 0.40662 0.0
C381 C 0.35117 0.76456 0.42982 0.0
C382 C 0.35896 0.77864 0.4733 0.0
C383 C 0.38676 0.82581 0.48317 0.0
C384 C 0.40841 0.85716 0.44995 0.0
Zn385 Zn 0.34871 0.77689 0.3375 0.0
O386 O 0.39584 0.74287 0.25366 0.0
C387 C 0.32337 0.86816 0.28382 0.0
O388 O 0.42823 0.77793 0.31382 0.0
H389 H 0.32706 0.72967 0.42194 0.0
H390 H 0.24301 0.79171 0.20465 0.0
H391 H 0.41537 0.86536 0.38029 0.0
O392 O 0.31219 0.82888 0.25836 0.0
O393 O 0.33929 0.85979 0.32213 0.0
H394 H 0.3467 0.66187 0.21407 0.0
O395 O 0.27002 0.77624 0.36394 0.0
O396 O 0.23037 0.75793 0.30245 0.0
O397 O 0.35899 0.69496 0.35101 0.0
O398 O 0.3141 0.66749 0.2941 0.0
C399 C 0.22765 0.77021 0.34358 0.0
H400 H 0.26363 0.79897 0.12649 0.0
H401 H 0.37095 0.66777 0.13686 0.0
H402 H 0.34178 0.7543 0.49884 0.0
H403 H 0.4301 0.89401 0.45748 0.0
C404 C 0.56771 0.07201 0.66561 0.0
N405 N 0.64403 0.96093 0.58032 0.0
C406 C 0.68413 0.95532 0.60816 0.0
C407 C 0.70769 0.90553 0.61144 0.0
C408 C 0.68889 0.86153 0.58644 0.0
C409 C 0.64796 0.86816 0.55772 0.0
C410 C 0.62639 0.91901 0.55461 0.0
Zn411 Zn 0.61006 0.03301 0.57667 0.0
C412 C 0.49244 0.01645 0.5781 0.0
N413 N 0.533 0.17948 0.56729 0.0
C414 C 0.56257 0.22431 0.57637 0.0
C415 C 0.49931 0.17749 0.53349 0.0
C416 C 0.5035 0.21577 0.50151 0.0
C417 C 0.54008 0.25764 0.50634 0.0
C418 C 0.56702 0.2646 0.54552 0.0
Zn419 Zn 0.56624 0.10779 0.57532 0.0
O420 O 0.59582 0.03615 0.64647 0.0
C421 C 0.68637 0.12112 0.57199 0.0
O422 O 0.55528 0.11344 0.64471 0.0
H423 H 0.4765 0.14141 0.52658 0.0
H424 H 0.69712 0.98919 0.62845 0.0
H425 H 0.58861 0.22502 0.60383 0.0
O426 O 0.68431 0.07116 0.57953 0.0
O427 O 0.64406 0.14725 0.57245 0.0
H428 H 0.59483 0.92476 0.53237 0.0
O429 O 0.57536 0.10216 0.50559 0.0
O430 O 0.62313 0.03022 0.50723 0.0
O431 O 0.49073 0.0675 0.57676 0.0
O432 O 0.5362 0.99358 0.5739 0.0
C433 C 0.60477 0.06852 0.48592 0.0
H434 H 0.73849 0.90079 0.63474 0.0
H435 H 0.63225 0.83427 0.53875 0.0
H436 H 0.48175 0.21002 0.47168 0.0
H437 H 0.59438 0.29784 0.55036 0.0
C438 C 0.35497 0.19736 0.78925 0.0
N439 N 0.27743 0.28233 0.89564 0.0
C440 C 0.26089 0.23373 0.91048 0.0
C441 C 0.26779 0.2218 0.95446 0.0
C442 C 0.294 0.25951 0.98176 0.0
C443 C 0.30241 0.31184 0.96747 0.0
C444 C 0.29363 0.32255 0.92389 0.0
Zn445 Zn 0.30136 0.2935 0.83257 0.0
C446 C 0.42017 0.32191 0.83766 0.0
N447 N 0.3697 0.32612 0.70769 0.0
C448 C 0.34109 0.29993 0.67628 0.0
C449 C 0.37642 0.38018 0.7068 0.0
C450 C 0.33549 0.40957 0.69155 0.0
C451 C 0.29623 0.38286 0.6675 0.0
C452 C 0.30243 0.32832 0.65554 0.0
Zn453 Zn 0.34077 0.31243 0.76969 0.0
O454 O 0.32929 0.21026 0.82408 0.0
C455 C 0.22167 0.28421 0.76352 0.0
O456 O 0.36173 0.23181 0.75984 0.0
H457 H 0.40245 0.39988 0.72991 0.0
H458 H 0.24853 0.20226 0.88751 0.0
H459 H 0.3399 0.25628 0.67452 0.0
O460 O 0.22404 0.27448 0.80433 0.0
O461 O 0.26351 0.29762 0.74347 0.0
H462 H 0.30755 0.36069 0.91173 0.0
O463 O 0.31774 0.39586 0.7804 0.0
O464 O 0.27467 0.37613 0.83983 0.0
O465 O 0.41664 0.3281 0.79668 0.0
O466 O 0.37895 0.31108 0.85956 0.0
C467 C 0.28738 0.4104 0.81145 0.0
H468 H 0.26073 0.1809 0.96486 0.0
H469 H 0.32285 0.3416 0.9877 0.0
H470 H 0.33082 0.45009 0.70463 0.0
H471 H 0.27369 0.30666 0.63603 0.0
C472 C 0.19499 0.01474 0.56996 0.0
N473 N 0.11786 0.08772 0.46131 0.0
C474 C 0.16828 0.08335 0.44742 0.0
C475 C 0.18009 0.0666 0.40431 0.0
C476 C 0.13993 0.05652 0.37448 0.0
C477 C 0.08901 0.06844 0.38777 0.0
C478 C 0.07866 0.08338 0.43162 0.0
Zn479 Zn 0.10035 0.06227 0.52464 0.0
C480 C 0.08202 0.94076 0.50748 0.0
N481 N 0.06233 0.98841 0.64422 0.0
C482 C 0.09373 0.00676 0.67721 0.0
C483 C 1.01382 0.96867 0.65263 0.0
C484 C 0.993 0.97314 0.69488 0.0
C485 C 1.02289 0.99723 0.72851 0.0
C486 C 0.07477 0.01104 0.72 0.0
Zn487 Zn 0.07947 0.01731 0.58435 0.0
O488 O 0.1836 0.04072 0.536 0.0
C489 C 0.09451 0.14067 0.59997 0.0
O490 O 0.1587 1.00165 0.59603 0.0
H491 H 0.98953 0.95437 0.62605 0.0
H492 H 0.19957 0.08832 0.47029 0.0
H493 H 0.13162 0.02395 0.67008 0.0
O494 O 0.10884 0.14097 0.55955 0.0
O495 O 0.08337 0.09566 0.61697 0.0
H496 H 0.03861 0.08619 0.44211 0.0
O497 O 0.99899 0.03381 0.57512 0.0
O498 O 1.01796 0.08206 0.51805 0.0
O499 O 0.07482 0.93844 0.54898 0.0
O500 O 0.09012 0.98644 0.491 0.0
C501 C 0.98436 0.06508 0.54573 0.0
H502 H 0.22035 0.06077 0.3946 0.0
H503 H 0.05717 0.06307 0.36524 0.0
H504 H 0.95313 0.96017 0.70069 0.0
H505 H 0.09915 0.02879 0.74534 0.0
C506 C 0.32327 0.83313 0.71312 0.0
N507 N 0.42239 0.74497 0.7874 0.0
C508 C 0.42302 0.7124 0.75078 0.0
C509 C 0.4699 0.69991 0.72993 0.0
C510 C 0.51629 0.7195 0.7478 0.0
C511 C 0.51519 0.74832 0.78794 0.0
C512 C 0.46717 0.76109 0.80734 0.0
Zn513 Zn 0.35517 0.78531 0.79849 0.0
C514 C 0.38018 0.90589 0.80352 0.0
N515 N 0.21919 0.87652 0.80933 0.0
C516 C 0.18427 0.86239 0.77774 0.0
C517 C 0.20446 0.90402 0.84636 0.0
C518 C 0.15176 0.90822 0.85653 0.0
C519 C 0.11568 0.88208 0.82868 0.0
C520 C 0.13145 0.867 0.78629 0.0
Zn521 Zn 0.28728 0.83772 0.80603 0.0
O522 O 0.35421 0.79965 0.72899 0.0
C523 C 0.26424 0.71432 0.80387 0.0
O524 O 0.28705 0.85133 0.73728 0.0
H525 H 0.23297 0.91548 0.87068 0.0
H526 H 0.38702 0.70085 0.73508 0.0
H527 H 0.19616 0.83989 0.74863 0.0
O528 O 0.31232 0.71169 0.79441 0.0
O529 O 0.24298 0.76056 0.80564 0.0
H530 H 0.46567 0.78779 0.83595 0.0
O531 O 0.28827 0.82614 0.87586 0.0
O532 O 0.35543 0.77255 0.86805 0.0
O533 O 0.3314 0.91203 0.80847 0.0
O534 O 0.39858 0.85859 0.80309 0.0
C535 C 0.31952 0.79303 0.89226 0.0
H536 H 0.46953 0.67863 0.69862 0.0
H537 H 0.55068 0.76436 0.80221 0.0
H538 H 0.14108 0.92073 0.88959 0.0
H539 H 0.10438 0.84731 0.76393 0.0
C540 C 0.60264 0.91704 0.1019 0.0
N541 N 0.56248 0.06249 0.16206 0.0
C542 C 0.54199 0.02431 0.18899 0.0
C543 C 0.5562 0.02382 0.23271 0.0
C544 C 0.58973 0.06421 0.24847 0.0
C545 C 0.6034 0.10776 0.22208 0.0
C546 C 0.58924 0.10606 0.17828 0.0
Zn547 Zn 0.57563 0.03718 0.09915 0.0
C548 C 0.68449 0.04777 0.07736 0.0
N549 N 0.61039 0.9738 0.97441 0.0
C550 C 0.58127 0.93332 0.95594 0.0
C551 C 0.64168 0.00629 0.94984 0.0
C552 C 0.63778 0.00475 0.90454 0.0
C553 C 0.60303 0.96796 0.88508 0.0
C554 C 0.57757 0.92916 0.91054 0.0
Zn555 Zn 0.59439 1.00027 0.03594 0.0
O556 O 0.59675 0.95983 0.1252 0.0
C557 C 0.48268 0.99683 0.06093 0.0
O558 O 0.60113 0.92004 0.06049 0.0
H559 H 0.66481 0.03797 0.96536 0.0
H560 H 0.52065 0.98997 0.17557 0.0
H561 H 0.55665 0.90829 0.9763 0.0
O562 O 0.50253 0.00895 0.09716 0.0
O563 O 0.51201 0.99113 0.02716 0.0
H564 H 0.60514 0.13583 0.15633 0.0
O565 O 0.58957 0.07921 1.01089 0.0
O566 O 0.55707 0.11587 0.07116 0.0
O567 O 0.67347 0.01371 0.04694 0.0
O568 O 0.64909 0.06568 0.10236 0.0
C569 C 0.57203 0.12037 0.03121 0.0
H570 H 0.54501 0.98995 0.25266 0.0
H571 H 0.6293 0.13966 0.23391 0.0
H572 H 0.65748 0.03535 0.88548 0.0
H573 H 0.54989 0.90073 0.89609 0.0
C574 C 0.30352 0.15638 0.30542 0.0
N575 N 0.43313 0.23604 0.25858 0.0
C576 C 0.44443 0.18294 0.25172 0.0
C577 C 0.44361 0.16038 0.20923 0.0
C578 C 0.43462 0.19366 0.17379 0.0
C579 C 0.4346 0.24976 0.18127 0.0
C580 C 0.43408 0.2704 0.22446 0.0
Zn581 Zn 0.37526 0.2517 0.30503 0.0
C582 C 0.27982 0.27772 0.25277 0.0
N583 N 0.24341 0.28416 0.38909 0.0
C584 C 0.24694 0.25596 0.42653 0.0
C585 C 0.22997 0.33719 0.39118 0.0
C586 C 0.23257 0.36643 0.4311 0.0
C587 C 0.24739 0.34018 0.46899 0.0
C588 C 0.25084 0.28364 0.46702 0.0
Zn589 Zn 0.30112 0.26591 0.3428 0.0
O590 O 0.34988 0.17114 0.29731 0.0
C591 C 0.39674 0.24464 0.39526 0.0
O592 O 0.27373 0.1866 0.32873 0.0
H593 H 0.22675 0.35913 0.36125 0.0
H594 H 0.4449 0.1563 0.27915 0.0
H595 H 0.25649 0.21359 0.42451 0.0
O596 O 0.42117 0.23805 0.35893 0.0
O597 O 0.34756 0.24344 0.39577 0.0
H598 H 0.42495 0.31247 0.23025 0.0
O599 O 0.3294 0.34503 0.3541 0.0
O600 O 0.3997 0.33184 0.31374 0.0
O601 O 0.25623 0.28731 0.28908 0.0
O602 O 0.3277 0.26694 0.25226 0.0
C603 C 0.37309 0.36136 0.33999 0.0
H604 H 0.44527 0.11693 0.20455 0.0
H605 H 0.42831 0.27679 0.15468 0.0
H606 H 0.22837 0.40985 0.4313 0.0
H607 H 0.2604 0.26147 0.49578 0.0
C608 C 0.69447 0.4906 0.08127 0.0
N609 N 0.62042 0.57151 0.98056 0.0
C610 C 0.65477 0.54055 0.95725 0.0
C611 C 0.65538 0.54066 0.91212 0.0
C612 C 0.62081 0.57341 0.89066 0.0
C613 C 0.58926 0.60908 0.91524 0.0
C614 C 0.58956 0.60732 0.96083 0.0
Zn615 Zn 0.60075 0.54066 0.0384 0.0
C616 C 0.57689 0.41941 0.0172 0.0
N617 N 0.55962 0.46254 0.15349 0.0
C618 C 0.59152 0.47827 0.18683 0.0
C619 C 0.50922 0.44826 0.16099 0.0
C620 C 0.48698 0.45827 0.20213 0.0
C621 C 0.51754 0.48197 0.23545 0.0
C622 C 0.57106 0.48825 0.22852 0.0
Zn623 Zn 0.57851 0.49368 0.09529 0.0
O624 O 0.68298 0.52151 0.05046 0.0
C625 C 0.59958 0.61556 0.11408 0.0
O626 O 0.65802 0.47221 0.10516 0.0
H627 H 0.4848 0.43539 0.13405 0.0
H628 H 0.67788 0.5111 0.973 0.0
H629 H 0.63128 0.49044 0.18032 0.0
O630 O 0.60996 0.61674 0.07323 0.0
O631 O 0.58837 0.57042 0.13086 0.0
H632 H 0.56236 0.63134 0.98006 0.0
O633 O 0.49809 0.51727 0.08689 0.0
O634 O 0.51984 0.56098 0.0282 0.0
O635 O 0.56779 0.41657 0.05834 0.0
O636 O 0.58977 0.46492 1.00211 0.0
C637 C 0.48515 0.54733 0.05601 0.0
H638 H 0.68165 0.51386 0.89435 0.0
H639 H 0.5633 0.63623 0.89952 0.0
H640 H 0.44576 0.45053 0.20694 0.0
H641 H 0.59608 0.5048 0.2539 0.0
C642 C 0.83449 0.32041 0.21941 0.0
N643 N 0.9342 0.24089 0.29912 0.0
C644 C 0.93508 0.20245 0.26633 0.0
C645 C 0.98157 0.18981 0.24478 0.0
C646 C 0.02706 0.21699 0.25732 0.0
C647 C 1.02634 0.25213 0.29406 0.0
C648 C 0.97891 0.2634 0.31498 0.0
Zn649 Zn 0.86572 0.28013 0.30724 0.0
C650 C 0.8883 0.40225 0.30674 0.0
N651 N 0.72605 0.36759 0.31224 0.0
C652 C 0.69259 0.34835 0.28117 0.0
C653 C 0.70939 0.4 0.34606 0.0
C654 C 0.65614 0.4073 0.353 0.0
C655 C 0.62072 0.37986 0.32521 0.0
C656 C 0.63944 0.35529 0.28649 0.0
Zn657 Zn 0.79657 0.33173 0.31166 0.0
O658 O 0.86657 0.28926 0.23677 0.0
C659 C 0.77715 0.20705 0.31493 0.0
O660 O 0.79732 0.33857 0.24258 0.0
H661 H 0.73668 0.41514 0.37019 0.0
H662 H 0.89915 0.18615 0.2533 0.0
H663 H 0.70604 0.3219 0.25483 0.0
O664 O 0.82528 0.20475 0.30595 0.0
O665 O 0.75523 0.25295 0.31489 0.0
H666 H 0.97727 0.2943 0.34067 0.0
O667 O 0.79637 0.32715 0.38133 0.0
O668 O 0.86348 0.27294 0.37791 0.0
O669 O 0.83919 0.40788 0.31014 0.0
O670 O 0.90712 0.35534 0.30918 0.0
C671 C 0.82694 0.29557 0.40018 0.0
H672 H 0.98114 0.16294 0.21616 0.0
H673 H 0.06118 0.27394 0.30412 0.0
H674 H 0.64321 0.42745 0.38309 0.0
H675 H 0.61344 0.33431 0.26398 0.0
C676 C 0.10802 0.44493 0.59222 0.0
N677 N 0.04977 0.58989 0.64699 0.0
C678 C 0.0282 0.54821 0.66958 0.0
C679 C 0.04154 0.54091 0.71314 0.0
C680 C 0.07364 0.57935 0.73382 0.0
C681 C 0.08637 0.62726 0.71239 0.0
C682 C 0.07407 0.63175 0.66835 0.0
Zn683 Zn 0.0783 0.56854 0.58581 0.0
C684 C 0.18915 0.57679 0.58484 0.0
N685 N 0.13878 0.50155 0.46838 0.0
C686 C 0.12116 0.45271 0.45295 0.0
C687 C 0.15792 0.53951 0.44084 0.0
C688 C 0.14995 0.53341 0.39599 0.0
C689 C 0.12473 0.48666 0.37998 0.0
C690 C 0.11457 0.44398 0.40813 0.0
Zn691 Zn 0.11272 0.52753 0.52828 0.0
O692 O 0.08286 0.48408 0.60957 0.0
C693 C 1.0 0.51794 0.53497 0.0
O694 O 0.13089 0.45205 0.55574 0.0
H695 H 0.17276 0.57763 0.45389 0.0
H696 H 1.00764 0.51601 0.65226 0.0
H697 H 0.10597 0.42321 0.47541 0.0
O698 O 1.0078 0.55441 0.56382 0.0
O699 O 0.03769 0.49608 0.51446 0.0
H700 H 0.09133 0.66428 0.64994 0.0
O701 O 0.09517 0.60383 0.50014 0.0
O702 O 0.07631 0.64775 0.56163 0.0
O703 O 0.18585 0.55728 0.54595 0.0
O704 O 0.1488 0.58524 0.60747 0.0
C705 C 0.08454 0.64776 0.52045 0.0
H706 H 0.03073 0.50376 0.72902 0.0
H707 H 0.11126 0.65772 0.72776 0.0
H708 H 0.15857 0.56685 0.37482 0.0
H709 H 0.09499 0.40736 0.39659 0.0
C710 C 0.87561 0.69466 0.28151 0.0
N711 N 0.80079 0.74843 0.39663 0.0
C712 C 0.78207 0.69672 0.3951 0.0
C713 C 0.78821 0.66343 0.43069 0.0
C714 C 0.81327 0.68393 0.46804 0.0
C715 C 0.82794 0.73857 0.47048 0.0
C716 C 0.82134 0.77047 0.43399 0.0
Zn717 Zn 0.81904 0.78227 0.33797 0.0
C718 C 0.93468 0.81865 0.33958 0.0
N719 N 0.87299 0.83866 0.2144 0.0
C720 C 0.84382 0.81522 0.18212 0.0
C721 C 0.87512 0.89314 0.21933 0.0
C722 C 0.8321 0.92224 0.2072 0.0
C723 C 0.7929 0.89609 0.18257 0.0
C724 C 0.80141 0.84317 0.16668 0.0
Zn725 Zn 0.85244 0.80805 0.27413 0.0
O726 O 0.85101 0.70453 0.31724 0.0
C727 C 0.73673 0.77219 0.27007 0.0
O728 O 0.88091 0.73153 0.25379 0.0
H729 H 0.90179 0.91167 0.24252 0.0
H730 H 0.76674 0.67975 0.36488 0.0
H731 H 0.84536 0.77205 0.1761 0.0
O732 O 0.74119 0.76219 0.31061 0.0
O733 O 0.7767 0.78868 0.24931 0.0
H734 H 0.83671 0.81135 0.43426 0.0
O735 O 0.82237 0.88509 0.29554 0.0
O736 O 0.7883 0.86208 0.35837 0.0
O737 O 0.92729 0.82796 0.29949 0.0
O738 O 0.89665 0.80178 0.36302 0.0
C739 C 0.79644 0.89794 0.32977 0.0
H740 H 0.77611 0.62139 0.42817 0.0
H741 H 0.84703 0.75548 0.49921 0.0
H742 H 0.82843 0.96362 0.219 0.0
H743 H 0.77307 0.82205 0.14641 0.0
C744 C 0.91639 0.2668 0.7718 0.0
N745 N 0.77574 0.22082 0.7139 0.0
C746 C 0.75051 0.25658 0.68923 0.0
C747 C 0.768 0.26619 0.64655 0.0
C748 C 0.81136 0.23833 0.62922 0.0
C749 C 0.83058 0.19559 0.65283 0.0
C750 C 0.81119 0.1866 0.69502 0.0
Zn751 Zn 0.79468 0.24473 0.77688 0.0
C752 C 0.83469 0.15353 0.82543 0.0
N753 N 0.85229 0.29371 0.89805 0.0
C754 C 0.87418 0.34257 0.90822 0.0
C755 C 0.84064 0.25697 0.92924 0.0
C756 C 0.85162 0.26835 0.97269 0.0
C757 C 0.8729 0.3186 0.98393 0.0
C758 C 0.88447 0.35628 0.95175 0.0
Zn759 Zn 0.82894 0.27372 0.83788 0.0
O760 O 0.87734 0.24679 0.75153 0.0
C761 C 0.78704 0.36494 0.78806 0.0
O762 O 0.90816 0.28686 0.81015 0.0
H763 H 0.82128 0.21923 0.92081 0.0
H764 H 0.72195 0.28304 0.70436 0.0
H765 H 0.88243 0.37112 0.8828 0.0
O766 O 0.78415 0.32665 0.75984 0.0
O767 O 0.80472 0.35563 0.82577 0.0
H768 H 0.83128 0.15845 0.71485 0.0
O769 O 0.75223 0.26057 0.86768 0.0
O770 O 0.71225 0.24525 0.80593 0.0
O771 O 0.85166 0.19299 0.84847 0.0
O772 O 0.80479 0.16244 0.7939 0.0
C773 C 0.70967 0.25314 0.84775 0.0
H774 H 0.75037 0.29806 0.62881 0.0
H775 H 0.86347 0.17266 0.64072 0.0
H776 H 0.84204 0.23905 0.99735 0.0
H777 H 0.90115 0.39554 0.96024 0.0
C778 C 0.7896 0.65365 0.81315 0.0
N779 N 0.92339 0.7079 0.75506 0.0
C780 C 0.93378 0.65456 0.75977 0.0
C781 C 0.93078 0.61842 0.72375 0.0
C782 C 0.91899 0.63773 0.68238 0.0
C783 C 0.91809 0.69401 0.6774 0.0
C784 C 0.92116 0.72867 0.71436 0.0
Zn785 Zn 0.8714 0.73851 0.80201 0.0
C786 C 0.77792 0.77285 0.75406 0.0
N787 N 0.75399 0.79015 0.89363 0.0
C788 C 0.75198 0.75745 0.92875 0.0
C789 C 0.74257 0.84352 0.89847 0.0
C790 C 0.73678 0.86727 0.94047 0.0
C791 C 0.74268 0.8356 0.9775 0.0
C792 C 0.74658 0.77948 0.97118 0.0
Zn793 Zn 0.80546 0.7652 0.84455 0.0
O794 O 0.83143 0.66436 0.79289 0.0
C795 C 0.90351 0.73325 0.88933 0.0
O796 O 0.77298 0.68629 0.84285 0.0
H797 H 0.74444 0.86911 0.87038 0.0
H798 H 0.93525 0.63827 0.79216 0.0
H799 H 0.76197 0.71539 0.92464 0.0
O800 O 0.91499 0.71097 0.85262 0.0
O801 O 0.85868 0.75271 0.89542 0.0
H802 H 0.91367 0.77114 0.71086 0.0
O803 O 0.83682 0.84332 0.84419 0.0
O804 O 0.90999 0.81654 0.81271 0.0
O805 O 0.75559 0.77855 0.79151 0.0
O806 O 0.82648 0.76581 0.75141 0.0
C807 C 0.88374 0.85288 0.83339 0.0
H808 H 0.93261 0.57551 0.72916 0.0
H809 H 0.91072 0.711 0.64587 0.0
H810 H 0.73271 0.91063 0.94379 0.0
H811 H 0.75034 0.75333 0.99872 0.0
C812 C 0.54515 0.5241 0.47797 0.0
N813 N 0.49125 0.60933 0.58756 0.0
C814 C 0.45341 0.60888 0.55702 0.0
C815 C 0.41066 0.5748 0.56291 0.0
C816 C 0.40454 0.55047 0.6035 0.0
C817 C 0.43568 0.56818 0.63871 0.0
C818 C 0.47822 0.60112 0.62993 0.0
Zn819 Zn 0.5454 0.55196 0.57031 0.0
C820 C 0.5017 0.43731 0.57122 0.0
N821 N 0.65697 0.43426 0.53973 0.0
C822 C 0.68618 0.44757 0.50409 0.0
C823 C 0.67618 0.40281 0.57124 0.0
C824 C 0.72969 0.40106 0.57594 0.0
C825 C 0.76052 0.42954 0.54608 0.0
C826 C 0.73958 0.44355 0.50602 0.0
Zn827 Zn 0.60307 0.48814 0.55933 0.0
O828 O 0.52312 0.55629 0.50463 0.0
C829 C 0.64399 0.60439 0.56649 0.0
O830 O 0.58098 0.49458 0.49151 0.0
H831 H 0.65122 0.3893 0.59771 0.0
H832 H 0.46082 0.62604 0.52531 0.0
H833 H 0.67021 0.47073 0.4783 0.0
O834 O 0.59619 0.61347 0.56333 0.0
O835 O 0.66006 0.5562 0.56009 0.0
H836 H 0.50562 0.61068 0.65549 0.0
O837 O 0.62514 0.48 0.62483 0.0
O838 O 0.57209 0.54653 0.63814 0.0
O839 O 0.54885 0.42529 0.56418 0.0
O840 O 0.4898 0.48659 0.57648 0.0
C841 C 0.60652 0.51465 0.65142 0.0
H842 H 0.38417 0.56642 0.53629 0.0
H843 H 0.4295 0.55394 0.67163 0.0
H844 H 0.74517 0.38801 0.60654 0.0
H845 H 0.76333 0.46298 0.48121 0.0
C846 C 0.0743 0.55373 0.15714 0.0
N847 N 0.14694 0.44995 0.06678 0.0
C848 C 0.18621 0.4476 0.09584 0.0
C849 C 0.21227 0.40001 0.1006 0.0
C850 C 0.19626 0.3546 0.07629 0.0
C851 C 0.15658 0.35767 0.04581 0.0
C852 C 0.13252 0.4069 0.041 0.0
Zn853 Zn 0.11106 0.51936 0.0652 0.0
C854 C 0.99385 0.50101 0.07157 0.0
N855 N 0.03035 0.66668 0.07101 0.0
C856 C 0.06792 0.7049 0.07799 0.0
C857 C 1.00135 0.66791 0.03447 0.0
C858 C 1.02475 0.68799 0.99692 0.0
C859 C 0.07548 0.7097 1.00009 0.0
C860 C 0.09436 0.72465 0.04149 0.0
Zn861 Zn 0.06692 0.59368 0.06912 0.0
O862 O 0.09999 0.51773 0.13598 0.0
C863 C 0.18768 0.60746 0.06227 0.0
O864 O 0.06164 0.5959 0.13777 0.0
H865 H 0.96692 0.64256 0.03146 0.0
H866 H 0.19606 0.48212 0.11664 0.0
H867 H 0.08574 0.70912 0.10977 0.0
O868 O 0.18539 0.55721 0.06721 0.0
O869 O 0.1455 0.63344 0.06477 0.0
H870 H 0.1011 0.41033 0.01821 0.0
O871 O 0.07174 0.59082 0.9978 0.0
O872 O 0.12147 0.52038 0.99453 0.0
O873 O 0.99194 0.55224 0.07255 0.0
O874 O 0.03732 0.47857 0.06361 0.0
C875 C 0.10088 0.5593 0.97536 0.0
H876 H 0.24177 0.39763 0.12538 0.0
H877 H 0.14298 0.32214 0.02765 0.0
H878 H 1.00659 0.68017 0.96567 0.0
H879 H 0.1304 0.74737 0.04535 0.0
loop_
_geom_bond_atom_site_label_1
_geom_bond_atom_site_label_2
_geom_bond_distance
_geom_bond_site_symmetry_2
_ccdc_geom_bond_type
O0 Cd1 2.223 . S
O0 C8 1.315 . S
Cd1 O0 2.223 . S
Cd1 O4 2.297 . S
Cd1 O5 2.439 . S
Cd1 O11 2.240 . S
Cd2 O3 2.240 . S
Cd2 O10 2.223 . S
Cd2 O12 2.297 . S
Cd2 O13 2.439 . S
O3 Cd2 2.240 . S
O3 C8 1.279 . S
O4 Cd1 2.297 . S
O4 C6 1.247 . S
O5 Cd1 2.439 . S
O5 C6 1.208 . S
C6 O4 1.247 . S
C6 O5 1.208 . S
C7 O12 1.247 . S
C7 O13 1.208 . S
C8 O0 1.315 . S
C8 O3 1.279 . S
C9 O10 1.315 . S
C9 O11 1.279 . S
O10 Cd2 2.223 . S
O10 C9 1.315 . S
O11 Cd1 2.240 . S
O11 C9 1.279 . S
O12 Cd2 2.297 . S
O12 C7 1.247 . S
O13 Cd2 2.439 . S
O13 C7 1.208 . S
O14 Cd15 2.223 . S
O14 C22 1.315 . S
Cd15 O14 2.223 . S
Cd15 O18 2.297 . S
Cd15 O19 2.439 . S
Cd15 O25 2.240 . S
Cd16 O17 2.240 . S
Cd16 O24 2.223 . S
Cd16 O26 2.297 1_455 S
Cd16 O27 2.439 1_455 S
O17 Cd16 2.240 . S
O17 C22 1.279 . S
O18 Cd15 2.297 . S
O18 C20 1.247 . S
O19 Cd15 2.439 . S
O19 C20 1.208 . S
C20 O18 1.247 . S
C20 O19 1.208 . S
C21 O26 1.247 . S
C21 O27 1.208 . S
C22 O14 1.315 . S
C22 O17 1.279 . S
C23 O24 1.315 . S
C23 O25 1.279 . S
O24 Cd16 2.223 . S
O24 C23 1.315 . S
O25 Cd15 2.240 . S
O25 C23 1.279 . S
O26 Cd16 2.297 1_655 S
O26 C21 1.247 . S
O27 Cd16 2.439 1_655 S
O27 C21 1.208 . S
O28 Cd29 2.223 . S
O28 C36 1.315 . S
Cd29 O28 2.223 . S
Cd29 O32 2.297 . S
Cd29 O33 2.439 . S
Cd29 O39 2.240 . S
Cd30 O31 2.240 . S
Cd30 O38 2.223 . S
Cd30 O40 2.297 . S
Cd30 O41 2.439 . S
O31 Cd30 2.240 . S
O31 C36 1.279 . S
O32 Cd29 2.297 . S
O32 C34 1.247 . S
O33 Cd29 2.439 . S
O33 C34 1.208 . S
C34 O32 1.247 . S
C34 O33 1.208 . S
C35 O40 1.247 . S
C35 O41 1.208 . S
C36 O28 1.315 . S
C36 O31 1.279 . S
C37 O38 1.315 . S
C37 O39 1.279 . S
O38 Cd30 2.223 . S
O38 C37 1.315 . S
O39 Cd29 2.240 . S
O39 C37 1.279 . S
O40 Cd30 2.297 . S
O40 C35 1.247 . S
O41 Cd30 2.439 . S
O41 C35 1.208 . S
O42 Cd43 2.223 . S
O42 C50 1.315 . S
Cd43 O42 2.223 . S
Cd43 O46 2.297 . S
Cd43 O47 2.439 . S
Cd43 O53 2.240 . S
Cd44 O45 2.240 . S
Cd44 O52 2.223 . S
Cd44 O54 2.297 . S
Cd44 O55 2.439 . S
O45 Cd44 2.240 . S
O45 C50 1.279 . S
O46 Cd43 2.297 . S
O46 C48 1.247 . S
O47 Cd43 2.439 . S
O47 C48 1.208 . S
C48 O46 1.247 . S
C48 O47 1.208 . S
C49 O54 1.247 . S
C49 O55 1.208 . S
C50 O42 1.315 . S
C50 O45 1.279 . S
C51 O52 1.315 . S
C51 O53 1.279 . S
O52 Cd44 2.223 . S
O52 C51 1.315 . S
O53 Cd43 2.240 . S
O53 C51 1.279 . S
O54 Cd44 2.297 . S
O54 C49 1.247 . S
O55 Cd44 2.439 . S
O55 C49 1.208 . S
O56 Cd57 2.223 . S
O56 C64 1.315 . S
Cd57 O56 2.223 . S
Cd57 O60 2.297 1_545 S
Cd57 O61 2.439 1_545 S
Cd57 O67 2.240 . S
Cd58 O59 2.240 . S
Cd58 O66 2.223 . S
Cd58 O68 2.297 . S
Cd58 O69 2.439 . S
O59 Cd58 2.240 . S
O59 C64 1.279 . S
O60 Cd57 2.297 1_565 S
O60 C62 1.247 . S
O61 Cd57 2.439 1_565 S
O61 C62 1.208 . S
C62 O60 1.247 . S
C62 O61 1.208 . S
C63 O68 1.247 . S
C63 O69 1.208 . S
C64 O56 1.315 . S
C64 O59 1.279 . S
C65 O66 1.315 . S
C65 O67 1.279 . S
O66 Cd58 2.223 . S
O66 C65 1.315 . S
O67 Cd57 2.240 . S
O67 C65 1.279 . S
O68 Cd58 2.297 . S
O68 C63 1.247 . S
O69 Cd58 2.439 . S
O69 C63 1.208 . S
O70 Cd71 2.223 1_565 S
O70 C78 1.315 . S
Cd71 O70 2.223 1_545 S
Cd71 O74 2.297 . S
Cd71 O75 2.439 1_545 S
Cd71 O81 2.240 1_545 S
Cd72 O73 2.240 . S
Cd72 O80 2.223 . S
Cd72 O82 2.297 . S
Cd72 O83 2.439 . S
O73 Cd72 2.240 . S
O73 C78 1.279 . S
O74 Cd71 2.297 . S
O74 C76 1.247 1_545 S
O75 Cd71 2.439 1_565 S
O75 C76 1.208 . S
C76 O74 1.247 1_565 S
C76 O75 1.208 . S
C77 O82 1.247 . S
C77 O83 1.208 . S
C78 O70 1.315 . S
C78 O73 1.279 . S
C79 O80 1.315 . S
C79 O81 1.279 . S
O80 Cd72 2.223 . S
O80 C79 1.315 . S
O81 Cd71 2.240 1_565 S
O81 C79 1.279 . S
O82 Cd72 2.297 . S
O82 C77 1.247 . S
O83 Cd72 2.439 . S
O83 C77 1.208 . S
O84 Cd85 2.223 . S
O84 C92 1.315 . S
Cd85 O84 2.223 . S
Cd85 O88 2.297 . S
Cd85 O89 2.439 . S
Cd85 O95 2.240 1_545 S
Cd86 O87 2.240 1_565 S
Cd86 O94 2.223 . S
Cd86 O96 2.297 . S
Cd86 O97 2.439 1_565 S
O87 Cd86 2.240 1_545 S
O87 C92 1.279 . S
O88 Cd85 2.297 . S
O88 C90 1.247 . S
O89 Cd85 2.439 . S
O89 C90 1.208 . S
C90 O88 1.247 . S
C90 O89 1.208 . S
C91 O96 1.247 1_545 S
C91 O97 1.208 . S
C92 O84 1.315 . S
C92 O87 1.279 . S
C93 O94 1.315 . S
C93 O95 1.279 . S
O94 Cd86 2.223 . S
O94 C93 1.315 . S
O95 Cd85 2.240 1_565 S
O95 C93 1.279 . S
O96 Cd86 2.297 . S
O96 C91 1.247 1_565 S
O97 Cd86 2.439 1_545 S
O97 C91 1.208 . S
O98 Cd99 2.223 . S
O98 C106 1.315 . S
Cd99 O98 2.223 . S
Cd99 O102 2.297 . S
Cd99 O103 2.439 . S
Cd99 O109 2.240 . S
Cd100 O101 2.240 . S
Cd100 O108 2.223 . S
Cd100 O110 2.297 1_554 S
Cd100 O111 2.439 1_554 S
O101 Cd100 2.240 . S
O101 C106 1.279 . S
O102 Cd99 2.297 . S
O102 C104 1.247 . S
O103 Cd99 2.439 . S
O103 C104 1.208 . S
C104 O102 1.247 . S
C104 O103 1.208 . S
C105 O110 1.247 . S
C105 O111 1.208 . S
C106 O98 1.315 . S
C106 O101 1.279 . S
C107 O108 1.315 . S
C107 O109 1.279 . S
O108 Cd100 2.223 . S
O108 C107 1.315 . S
O109 Cd99 2.240 . S
O109 C107 1.279 . S
O110 Cd100 2.297 1_556 S
O110 C105 1.247 . S
O111 Cd100 2.439 1_556 S
O111 C105 1.208 . S
O112 Cd113 2.223 . S
O112 C120 1.315 . S
Cd113 O112 2.223 . S
Cd113 O116 2.297 . S
Cd113 O117 2.439 . S
Cd113 O123 2.240 . S
Cd114 O115 2.240 . S
Cd114 O122 2.223 . S
Cd114 O124 2.297 . S
Cd114 O125 2.439 . S
O115 Cd114 2.240 . S
O115 C120 1.279 . S
O116 Cd113 2.297 . S
O116 C118 1.247 . S
O117 Cd113 2.439 . S
O117 C118 1.208 . S
C118 O116 1.247 . S
C118 O117 1.208 . S
C119 O124 1.246 1_556 S
C119 O125 1.206 1_556 S
C120 O112 1.315 . S
C120 O115 1.279 . S
C121 O122 1.315 . S
C121 O123 1.279 . S
O122 Cd114 2.223 . S
O122 C121 1.315 . S
O123 Cd113 2.240 . S
O123 C121 1.279 . S
O124 Cd114 2.297 . S
O124 C119 1.246 1_554 S
O125 Cd114 2.439 . S
O125 C119 1.206 1_554 S
O126 Cd127 2.223 . S
O126 C134 1.315 . S
Cd127 O126 2.223 . S
Cd127 O130 2.297 . S
Cd127 O131 2.439 . S
Cd127 O137 2.240 . S
Cd128 O129 2.240 . S
Cd128 O136 2.223 . S
Cd128 O138 2.297 . S
Cd128 O139 2.439 . S
O129 Cd128 2.240 . S
O129 C134 1.279 . S
O130 Cd127 2.297 . S
O130 C132 1.247 . S
O131 Cd127 2.439 . S
O131 C132 1.208 . S
C132 O130 1.247 . S
C132 O131 1.208 . S
C133 O138 1.247 . S
C133 O139 1.208 . S
C134 O126 1.315 . S
C134 O129 1.279 . S
C135 O136 1.315 . S
C135 O137 1.279 . S
O136 Cd128 2.223 . S
O136 C135 1.315 . S
O137 Cd127 2.240 . S
O137 C135 1.279 . S
O138 Cd128 2.297 . S
O138 C133 1.247 . S
O139 Cd128 2.439 . S
O139 C133 1.208 . S
O140 Cd141 2.223 . S
O140 C148 1.315 . S
Cd141 O140 2.223 . S
Cd141 O144 2.297 . S
Cd141 O145 2.439 . S
Cd141 O151 2.240 . S
Cd142 O143 2.240 . S
Cd142 O150 2.223 . S
Cd142 O152 2.297 . S
Cd142 O153 2.439 . S
O143 Cd142 2.240 . S
O143 C148 1.279 . S
O144 Cd141 2.297 . S
O144 C146 1.247 . S
O145 Cd141 2.439 . S
O145 C146 1.208 . S
C146 O144 1.247 . S
C146 O145 1.208 . S
C147 O152 1.247 . S
C147 O153 1.208 . S
C148 O140 1.315 . S
C148 O143 1.279 . S
C149 O150 1.315 . S
C149 O151 1.279 . S
O150 Cd142 2.223 . S
O150 C149 1.315 . S
O151 Cd141 2.240 . S
O151 C149 1.279 . S
O152 Cd142 2.297 . S
O152 C147 1.247 . S
O153 Cd142 2.439 . S
O153 C147 1.208 . S
O154 Cd155 2.223 . S
O154 C162 1.315 . S
Cd155 O154 2.223 . S
Cd155 O158 2.297 . S
Cd155 O159 2.439 . S
Cd155 O165 2.240 . S
Cd156 O157 2.240 . S
Cd156 O164 2.223 . S
Cd156 O166 2.297 . S
Cd156 O167 2.439 . S
O157 Cd156 2.240 . S
O157 C162 1.279 . S
O158 Cd155 2.297 . S
O158 C160 1.247 . S
O159 Cd155 2.439 . S
O159 C160 1.208 . S
C160 O158 1.247 . S
C160 O159 1.208 . S
C161 O166 1.247 . S
C161 O167 1.208 . S
C162 O154 1.315 . S
C162 O157 1.279 . S
C163 O164 1.315 . S
C163 O165 1.279 . S
O164 Cd156 2.223 . S
O164 C163 1.315 . S
O165 Cd155 2.240 . S
O165 C163 1.279 . S
O166 Cd156 2.297 . S
O166 C161 1.247 . S
O167 Cd156 2.439 . S
O167 C161 1.208 . S
O168 Cd169 2.223 . S
O168 C176 1.315 . S
Cd169 O168 2.223 . S
Cd169 O172 2.297 . S
Cd169 O173 2.439 1_455 S
Cd169 O179 2.240 1_455 S
Cd170 O171 2.240 1_655 S
Cd170 O178 2.223 1_655 S
Cd170 O180 2.297 . S
Cd170 O181 2.439 . S
O171 Cd170 2.240 1_455 S
O171 C176 1.279 . S
O172 Cd169 2.297 . S
O172 C174 1.247 . S
O173 Cd169 2.439 1_655 S
O173 C174 1.208 1_655 S
C174 O172 1.247 . S
C174 O173 1.208 1_455 S
C175 O180 1.247 . S
C175 O181 1.208 . S
C176 O168 1.315 . S
C176 O171 1.279 . S
C177 O178 1.315 . S
C177 O179 1.279 1_455 S
O178 Cd170 2.223 1_455 S
O178 C177 1.315 . S
O179 Cd169 2.240 1_655 S
O179 C177 1.279 1_655 S
O180 Cd170 2.297 . S
O180 C175 1.247 . S
O181 Cd170 2.439 . S
O181 C175 1.208 . S
O182 Cd183 2.223 . S
O182 C190 1.315 . S
Cd183 O182 2.223 . S
Cd183 O186 2.297 1_455 S
Cd183 O187 2.439 1_455 S
Cd183 O193 2.240 . S
Cd184 O185 2.240 . S
Cd184 O192 2.223 . S
Cd184 O194 2.297 . S
Cd184 O195 2.439 . S
O185 Cd184 2.240 . S
O185 C190 1.279 . S
O186 Cd183 2.297 1_655 S
O186 C188 1.247 . S
O187 Cd183 2.439 1_655 S
O187 C188 1.208 . S
C188 O186 1.247 . S
C188 O187 1.208 . S
C189 O194 1.247 . S
C189 O195 1.208 . S
C190 O182 1.315 . S
C190 O185 1.279 . S
C191 O192 1.315 . S
C191 O193 1.279 . S
O192 Cd184 2.223 . S
O192 C191 1.315 . S
O193 Cd183 2.240 . S
O193 C191 1.279 . S
O194 Cd184 2.297 . S
O194 C189 1.247 . S
O195 Cd184 2.439 . S
O195 C189 1.208 . S
O196 Cd197 2.223 . S
O196 C204 1.315 . S
Cd197 O196 2.223 . S
Cd197 O200 2.297 . S
Cd197 O201 2.439 . S
Cd197 O207 2.240 . S
Cd198 O199 2.240 . S
Cd198 O206 2.223 . S
Cd198 O208 2.297 . S
Cd198 O209 2.439 . S
O199 Cd198 2.240 . S
O199 C204 1.279 . S
O200 Cd197 2.297 . S
O200 C202 1.247 . S
O201 Cd197 2.439 . S
O201 C202 1.208 . S
C202 O200 1.247 . S
C202 O201 1.208 . S
C203 O208 1.247 . S
C203 O209 1.208 . S
C204 O196 1.315 . S
C204 O199 1.279 . S
C205 O206 1.315 . S
C205 O207 1.279 . S
O206 Cd198 2.223 . S
O206 C205 1.315 . S
O207 Cd197 2.240 . S
O207 C205 1.279 . S
O208 Cd198 2.297 . S
O208 C203 1.247 . S
O209 Cd198 2.439 . S
O209 C203 1.208 . S
O210 Cd211 2.223 . S
O210 C218 1.315 . S
Cd211 O210 2.223 . S
Cd211 O214 2.297 . S
Cd211 O215 2.439 . S
Cd211 O221 2.240 . S
Cd212 O213 2.240 . S
Cd212 O220 2.223 . S
Cd212 O222 2.297 . S
Cd212 O223 2.439 . S
O213 Cd212 2.240 . S
O213 C218 1.279 . S
O214 Cd211 2.297 . S
O214 C216 1.247 . S
O215 Cd211 2.439 . S
O215 C216 1.208 . S
C216 O214 1.247 . S
C216 O215 1.208 . S
C217 O222 1.247 . S
C217 O223 1.208 . S
C218 O210 1.315 . S
C218 O213 1.279 . S
C219 O220 1.315 . S
C219 O221 1.279 . S
O220 Cd212 2.223 . S
O220 C219 1.315 . S
O221 Cd211 2.240 . S
O221 C219 1.279 . S
O222 Cd212 2.297 . S
O222 C217 1.247 . S
O223 Cd212 2.439 . S
O223 C217 1.208 . S
O224 Cd225 2.223 1_565 S
O224 C232 1.315 1_565 S
Cd225 O224 2.223 1_545 S
Cd225 O228 2.297 . S
Cd225 O229 2.439 . S
Cd225 O235 2.240 1_545 S
Cd226 O227 2.240 1_565 S
Cd226 O234 2.223 . S
Cd226 O236 2.297 1_655 S
Cd226 O237 2.439 1_565 S
O227 Cd226 2.240 1_545 S
O227 C232 1.279 . S
O228 Cd225 2.297 . S
O228 C230 1.247 . S
O229 Cd225 2.439 . S
O229 C230 1.208 . S
C230 O228 1.247 . S
C230 O229 1.208 . S
C231 O236 1.247 1_655 S
C231 O237 1.208 1_565 S
C232 O224 1.315 1_545 S
C232 O227 1.279 . S
C233 O234 1.315 . S
C233 O235 1.279 . S
O234 Cd226 2.223 . S
O234 C233 1.315 . S
O235 Cd225 2.240 1_565 S
O235 C233 1.279 . S
O236 Cd226 2.297 1_455 S
O236 C231 1.247 1_455 S
O237 Cd226 2.439 1_545 S
O237 C231 1.208 1_545 S
O238 Cd239 2.223 . S
O238 C246 1.315 . S
Cd239 O238 2.223 . S
Cd239 O242 2.297 . S
Cd239 O243 2.439 . S
Cd239 O249 2.240 . S
Cd240 O241 2.240 . S
Cd240 O248 2.223 . S
Cd240 O250 2.297 . S
Cd240 O251 2.439 . S
O241 Cd240 2.240 . S
O241 C246 1.279 . S
O242 Cd239 2.297 . S
O242 C244 1.247 . S
O243 Cd239 2.439 . S
O243 C244 1.208 . S
C244 O242 1.247 . S
C244 O243 1.208 . S
C245 O250 1.247 . S
C245 O251 1.208 . S
C246 O238 1.315 . S
C246 O241 1.279 . S
C247 O248 1.315 . S
C247 O249 1.279 . S
O248 Cd240 2.223 . S
O248 C247 1.315 . S
O249 Cd239 2.240 . S
O249 C247 1.279 . S
O250 Cd240 2.297 . S
O250 C245 1.247 . S
O251 Cd240 2.439 . S
O251 C245 1.208 . S
O252 Cd253 2.223 . S
O252 C260 1.315 . S
Cd253 O252 2.223 . S
Cd253 O256 2.297 1_545 S
Cd253 O257 2.439 1_545 S
Cd253 O263 2.240 . S
Cd254 O255 2.240 . S
Cd254 O262 2.223 . S
Cd254 O264 2.297 . S
Cd254 O265 2.439 . S
O255 Cd254 2.240 . S
O255 C260 1.279 . S
O256 Cd253 2.297 1_565 S
O256 C258 1.247 . S
O257 Cd253 2.439 1_565 S
O257 C258 1.208 . S
C258 O256 1.247 . S
C258 O257 1.208 . S
C259 O264 1.247 . S
C259 O265 1.208 . S
C260 O252 1.315 . S
C260 O255 1.279 . S
C261 O262 1.315 . S
C261 O263 1.279 . S
O262 Cd254 2.223 . S
O262 C261 1.315 . S
O263 Cd253 2.240 . S
O263 C261 1.279 . S
O264 Cd254 2.297 . S
O264 C259 1.247 . S
O265 Cd254 2.439 . S
O265 C259 1.208 . S
O266 Cd267 2.223 1_565 S
O266 C274 1.315 . S
Cd267 O266 2.223 1_545 S
Cd267 O270 2.297 . S
Cd267 O271 2.439 1_545 S
Cd267 O277 2.240 1_545 S
Cd268 O269 2.240 . S
Cd268 O276 2.223 . S
Cd268 O278 2.297 1_554 S
Cd268 O279 2.439 1_554 S
O269 Cd268 2.240 . S
O269 C274 1.279 . S
O270 Cd267 2.297 . S
O270 C272 1.247 . S
O271 Cd267 2.439 1_565 S
O271 C272 1.208 1_565 S
C272 O270 1.247 . S
C272 O271 1.208 1_545 S
C273 O278 1.247 . S
C273 O279 1.208 . S
C274 O266 1.315 . S
C274 O269 1.279 . S
C275 O276 1.315 . S
C275 O277 1.279 . S
O276 Cd268 2.223 . S
O276 C275 1.315 . S
O277 Cd267 2.240 1_565 S
O277 C275 1.279 . S
O278 Cd268 2.297 1_556 S
O278 C273 1.247 . S
O279 Cd268 2.439 1_556 S
O279 C273 1.208 . S
O280 Cd281 2.223 . S
O280 C288 1.315 . S
Cd281 O280 2.223 . S
Cd281 O284 2.297 . S
Cd281 O285 2.428 1_554 S
Cd281 O291 2.240 1_554 S
Cd282 O283 2.240 1_556 S
Cd282 O290 2.223 1_556 S
Cd282 O292 2.297 . S
Cd282 O293 2.439 . S
O283 Cd282 2.240 1_554 S
O283 C288 1.279 . S
O284 Cd281 2.297 . S
O284 C286 1.247 . S
O285 Cd281 2.428 1_556 S
O285 C286 1.193 1_556 S
C286 O284 1.247 . S
C286 O285 1.193 1_554 S
C287 O292 1.247 . S
C287 O293 1.208 . S
C288 O280 1.315 . S
C288 O283 1.279 . S
C289 O290 1.315 . S
C289 O291 1.279 1_554 S
O290 Cd282 2.223 1_554 S
O290 C289 1.315 . S
O291 Cd281 2.240 1_556 S
O291 C289 1.279 1_556 S
O292 Cd282 2.297 . S
O292 C287 1.247 . S
O293 Cd282 2.439 . S
O293 C287 1.208 . S
O294 Cd295 2.223 . S
O294 C302 1.315 . S
Cd295 O294 2.223 . S
Cd295 O298 2.297 . S
Cd295 O299 2.439 . S
Cd295 O305 2.240 . S
Cd296 O297 2.240 . S
Cd296 O304 2.223 . S
Cd296 O306 2.297 . S
Cd296 O307 2.439 . S
O297 Cd296 2.240 . S
O297 C302 1.279 . S
O298 Cd295 2.297 . S
O298 C300 1.247 . S
O299 Cd295 2.439 . S
O299 C300 1.208 . S
C300 O298 1.247 . S
C300 O299 1.208 . S
C301 O306 1.247 . S
C301 O307 1.208 . S
C302 O294 1.315 . S
C302 O297 1.279 . S
C303 O304 1.315 . S
C303 O305 1.279 . S
O304 Cd296 2.223 . S
O304 C303 1.315 . S
O305 Cd295 2.240 . S
O305 C303 1.279 . S
O306 Cd296 2.297 . S
O306 C301 1.247 . S
O307 Cd296 2.439 . S
O307 C301 1.208 . S
O308 Cd309 2.223 . S
O308 C316 1.315 . S
Cd309 O308 2.223 . S
Cd309 O312 2.297 . S
Cd309 O313 2.439 . S
Cd309 O319 2.240 . S
Cd310 O311 2.240 . S
Cd310 O318 2.223 . S
Cd310 O320 2.297 . S
Cd310 O321 2.439 . S
O311 Cd310 2.240 . S
O311 C316 1.279 . S
O312 Cd309 2.297 . S
O312 C314 1.247 . S
O313 Cd309 2.439 . S
O313 C314 1.208 . S
C314 O312 1.247 . S
C314 O313 1.208 . S
C315 O320 1.247 . S
C315 O321 1.208 . S
C316 O308 1.315 . S
C316 O311 1.279 . S
C317 O318 1.315 . S
C317 O319 1.279 . S
O318 Cd310 2.223 . S
O318 C317 1.315 . S
O319 Cd309 2.240 . S
O319 C317 1.279 . S
O320 Cd310 2.297 . S
O320 C315 1.247 . S
O321 Cd310 2.439 . S
O321 C315 1.208 . S
O322 Cd323 2.223 . S
O322 C330 1.315 . S
Cd323 O322 2.223 . S
Cd323 O326 2.297 . S
Cd323 O327 2.439 . S
Cd323 O333 2.240 . S
Cd324 O325 2.240 . S
Cd324 O332 2.223 . S
Cd324 O334 2.297 . S
Cd324 O335 2.439 . S
O325 Cd324 2.240 . S
O325 C330 1.279 . S
O326 Cd323 2.297 . S
O326 C328 1.247 . S
O327 Cd323 2.439 . S
O327 C328 1.208 . S
C328 O326 1.247 . S
C328 O327 1.208 . S
C329 O334 1.247 . S
C329 O335 1.208 . S
C330 O322 1.315 . S
C330 O325 1.279 . S
C331 O332 1.315 . S
C331 O333 1.279 . S
O332 Cd324 2.223 . S
O332 C331 1.315 . S
O333 Cd323 2.240 . S
O333 C331 1.279 . S
O334 Cd324 2.297 . S
O334 C329 1.247 . S
O335 Cd324 2.439 . S
O335 C329 1.208 . S
C336 O352 1.251 1_556 S
C336 O354 1.254 . S
N337 C338 1.333 1_565 S
N337 C342 1.307 . S
N337 Zn343 2.020 1_655 S
C338 N337 1.333 1_545 S
C338 C339 1.379 . S
C338 H356 0.952 . S
C339 C338 1.379 . S
C339 C340 1.390 1_545 S
C339 H366 0.949 . S
C340 C339 1.390 1_565 S
C340 C341 1.357 . S
C341 C340 1.357 . S
C341 C342 1.370 . S
C341 H367 0.950 . S
C342 N337 1.307 . S
C342 C341 1.370 . S
C342 H360 0.948 . S
Zn343 N337 2.020 1_455 S
Zn343 O352 2.039 1_565 S
Zn343 O358 2.034 1_565 S
Zn343 O362 2.025 . S
Zn343 O364 2.024 . S
C344 O363 1.246 . S
C344 O364 1.249 . S
N345 C346 1.307 . S
N345 C347 1.333 . S
N345 Zn351 2.020 . S
C346 N345 1.307 . S
C346 C350 1.370 1_554 S
C346 H357 0.948 1_554 S
C347 N345 1.333 . S
C347 C348 1.379 . S
C347 H355 0.952 1_545 S
C348 C347 1.379 . S
C348 C349 1.390 . S
C348 H368 0.949 1_545 S
C349 C348 1.390 . S
C349 C350 1.357 1_554 S
C350 C346 1.370 1_556 S
C350 C349 1.357 1_556 S
C350 H369 0.950 . S
Zn351 N345 2.020 . S
Zn351 O354 2.025 1_554 S
Zn351 O359 2.024 . S
Zn351 O361 2.039 1_545 S
Zn351 O363 2.034 1_545 S
O352 C336 1.251 1_554 S
O352 Zn343 2.039 1_545 S
C353 O358 1.246 . S
C353 O359 1.249 . S
O354 C336 1.254 . S
O354 Zn351 2.025 1_556 S
H355 C347 0.952 1_565 S
H356 C338 0.952 . S
H357 C346 0.948 1_556 S
O358 Zn343 2.034 1_545 S
O358 C353 1.246 . S
O359 Zn351 2.024 . S
O359 C353 1.249 . S
H360 C342 0.948 . S
O361 Zn351 2.039 1_565 S
O361 C365 1.251 . S
O362 Zn343 2.025 . S
O362 C365 1.254 . S
O363 C344 1.246 . S
O363 Zn351 2.034 1_565 S
O364 Zn343 2.024 . S
O364 C344 1.249 . S
C365 O361 1.251 . S
C365 O362 1.254 . S
H366 C339 0.949 . S
H367 C341 0.950 . S
H368 C348 0.949 1_565 S
H369 C350 0.950 . S
C370 O386 1.251 . S
C370 O388 1.254 . S
N371 C372 1.333 . S
N371 C376 1.307 . S
N371 Zn377 2.020 . S
C372 N371 1.333 . S
C372 C373 1.379 . S
C372 H390 0.952 . S
C373 C372 1.379 . S
C373 C374 1.390 . S
C373 H400 0.949 . S
C374 C373 1.390 . S
C374 C375 1.357 . S
C375 C374 1.357 . S
C375 C376 1.370 . S
C375 H401 0.950 . S
C376 N371 1.307 . S
C376 C375 1.370 . S
C376 H394 0.948 . S
Zn377 N371 2.020 . S
Zn377 O386 2.039 . S
Zn377 O392 2.034 . S
Zn377 O396 2.025 . S
Zn377 O398 2.024 . S
C378 O397 1.246 . S
C378 O398 1.249 . S
N379 C380 1.307 . S
N379 C381 1.333 . S
N379 Zn385 2.020 . S
C380 N379 1.307 . S
C380 C384 1.370 . S
C380 H391 0.948 . S
C381 N379 1.333 . S
C381 C382 1.379 . S
C381 H389 0.952 . S
C382 C381 1.379 . S
C382 C383 1.390 . S
C382 H402 0.949 . S
C383 C382 1.390 . S
C383 C384 1.357 . S
C384 C380 1.370 . S
C384 C383 1.357 . S
C384 H403 0.950 . S
Zn385 N379 2.020 . S
Zn385 O388 2.025 . S
Zn385 O393 2.024 . S
Zn385 O395 2.039 . S
Zn385 O397 2.034 . S
O386 C370 1.251 . S
O386 Zn377 2.039 . S
C387 O392 1.246 . S
C387 O393 1.249 . S
O388 C370 1.254 . S
O388 Zn385 2.025 . S
H389 C381 0.952 . S
H390 C372 0.952 . S
H391 C380 0.948 . S
O392 Zn377 2.034 . S
O392 C387 1.246 . S
O393 Zn385 2.024 . S
O393 C387 1.249 . S
H394 C376 0.948 . S
O395 Zn385 2.039 . S
O395 C399 1.251 . S
O396 Zn377 2.025 . S
O396 C399 1.254 . S
O397 C378 1.246 . S
O397 Zn385 2.034 . S
O398 Zn377 2.024 . S
O398 C378 1.249 . S
C399 O395 1.251 . S
C399 O396 1.254 . S
H400 C373 0.949 . S
H401 C375 0.950 . S
H402 C382 0.949 . S
H403 C384 0.950 . S
C404 O420 1.251 . S
C404 O422 1.254 . S
N405 C406 1.333 . S
N405 C410 1.307 . S
N405 Zn411 2.020 . S
C406 N405 1.333 . S
C406 C407 1.379 . S
C406 H424 0.952 . S
C407 C406 1.379 . S
C407 C408 1.390 . S
C407 H434 0.949 . S
C408 C407 1.390 . S
C408 C409 1.357 . S
C409 C408 1.357 . S
C409 C410 1.370 . S
C409 H435 0.950 . S
C410 N405 1.307 . S
C410 C409 1.370 . S
C410 H428 0.948 . S
Zn411 N405 2.020 . S
Zn411 O420 2.039 1_565 S
Zn411 O426 2.034 1_565 S
Zn411 O430 2.025 . S
Zn411 O432 2.024 . S
C412 O431 1.227 1_565 S
C412 O432 1.263 . S
N413 C414 1.307 . S
N413 C415 1.333 . S
N413 Zn419 2.020 . S
C414 N413 1.307 . S
C414 C418 1.370 . S
C414 H425 0.948 . S
C415 N413 1.333 . S
C415 C416 1.379 . S
C415 H423 0.952 . S
C416 C415 1.379 . S
C416 C417 1.390 . S
C416 H436 0.949 . S
C417 C416 1.390 . S
C417 C418 1.357 . S
C418 C414 1.370 . S
C418 C417 1.357 . S
C418 H437 0.950 . S
Zn419 N413 2.020 . S
Zn419 O422 2.025 . S
Zn419 O427 2.024 . S
Zn419 O429 2.039 . S
Zn419 O431 2.034 . S
O420 C404 1.251 . S
O420 Zn411 2.039 1_545 S
C421 O426 1.246 . S
C421 O427 1.249 . S
O422 C404 1.254 . S
O422 Zn419 2.025 . S
H423 C415 0.952 . S
H424 C406 0.952 . S
H425 C414 0.948 . S
O426 Zn411 2.034 1_545 S
O426 C421 1.246 . S
O427 Zn419 2.024 . S
O427 C421 1.249 . S
H428 C410 0.948 . S
O429 Zn419 2.039 . S
O429 C433 1.251 . S
O430 Zn411 2.025 . S
O430 C433 1.254 1_565 S
O431 C412 1.227 1_545 S
O431 Zn419 2.034 . S
O432 Zn411 2.024 . S
O432 C412 1.263 . S
C433 O429 1.251 . S
C433 O430 1.254 1_545 S
H434 C407 0.949 . S
H435 C409 0.950 . S
H436 C416 0.949 . S
H437 C418 0.950 . S
C438 O454 1.251 . S
C438 O456 1.254 . S
N439 C440 1.333 . S
N439 C444 1.307 . S
N439 Zn445 2.020 . S
C440 N439 1.333 . S
C440 C441 1.379 . S
C440 H458 0.952 . S
C441 C440 1.379 . S
C441 C442 1.390 . S
C441 H468 0.949 . S
C442 C441 1.390 . S
C442 C443 1.357 . S
C443 C442 1.357 . S
C443 C444 1.370 . S
C443 H469 0.950 . S
C444 N439 1.307 . S
C444 C443 1.370 . S
C444 H462 0.948 . S
Zn445 N439 2.020 . S
Zn445 O454 2.039 . S
Zn445 O460 2.034 . S
Zn445 O464 2.025 . S
Zn445 O466 2.024 . S
C446 O465 1.246 . S
C446 O466 1.249 . S
N447 C448 1.307 . S
N447 C449 1.333 . S
N447 Zn453 2.020 . S
C448 N447 1.307 . S
C448 C452 1.370 . S
C448 H459 0.948 . S
C449 N447 1.333 . S
C449 C450 1.379 . S
C449 H457 0.952 . S
C450 C449 1.379 . S
C450 C451 1.390 . S
C450 H470 0.949 . S
C451 C450 1.390 . S
C451 C452 1.357 . S
C452 C448 1.370 . S
C452 C451 1.357 . S
C452 H471 0.950 . S
Zn453 N447 2.020 . S
Zn453 O456 2.025 . S
Zn453 O461 2.024 . S
Zn453 O463 2.039 . S
Zn453 O465 2.034 . S
O454 C438 1.251 . S
O454 Zn445 2.039 . S
C455 O460 1.246 . S
C455 O461 1.249 . S
O456 C438 1.254 . S
O456 Zn453 2.025 . S
H457 C449 0.952 . S
H458 C440 0.952 . S
H459 C448 0.948 . S
O460 Zn445 2.034 . S
O460 C455 1.246 . S
O461 Zn453 2.024 . S
O461 C455 1.249 . S
H462 C444 0.948 . S
O463 Zn453 2.039 . S
O463 C467 1.251 . S
O464 Zn445 2.025 . S
O464 C467 1.254 . S
O465 C446 1.246 . S
O465 Zn453 2.034 . S
O466 Zn445 2.024 . S
O466 C446 1.249 . S
C467 O463 1.251 . S
C467 O464 1.254 . S
H468 C441 0.949 . S
H469 C443 0.950 . S
H470 C450 0.949 . S
H471 C452 0.950 . S
C472 O488 1.251 . S
C472 O490 1.253 1_545 S
N473 C474 1.333 . S
N473 C478 1.307 . S
N473 Zn479 2.020 . S
C474 N473 1.333 . S
C474 C475 1.379 . S
C474 H492 0.952 . S
C475 C474 1.379 . S
C475 C476 1.390 . S
C475 H502 0.949 . S
C476 C475 1.390 . S
C476 C477 1.357 . S
C477 C476 1.357 . S
C477 C478 1.370 . S
C477 H503 0.950 . S
C478 N473 1.307 . S
C478 C477 1.370 . S
C478 H496 0.948 . S
Zn479 N473 2.020 . S
Zn479 O488 2.039 . S
Zn479 O494 2.034 . S
Zn479 O498 2.020 1_455 S
Zn479 O500 2.024 1_545 S
C480 O499 1.246 . S
C480 O500 1.249 . S
N481 C482 1.307 . S
N481 C483 1.333 1_455 S
N481 Zn487 2.020 1_565 S
C482 N481 1.307 . S
C482 C486 1.370 . S
C482 H493 0.948 1_565 S
C483 N481 1.333 1_655 S
C483 C484 1.379 . S
C483 H491 0.952 . S
C484 C483 1.379 . S
C484 C485 1.390 . S
C484 H504 0.949 . S
C485 C484 1.390 . S
C485 C486 1.357 1_655 S
C486 C482 1.370 . S
C486 C485 1.357 1_455 S
C486 H505 0.950 . S
Zn487 N481 2.020 1_545 S
Zn487 O490 2.021 1_545 S
Zn487 O495 2.024 . S
Zn487 O497 2.039 1_455 S
Zn487 O499 2.034 1_545 S
O488 C472 1.251 . S
O488 Zn479 2.039 . S
C489 O494 1.246 . S
C489 O495 1.249 . S
O490 C472 1.253 1_565 S
O490 Zn487 2.021 1_565 S
H491 C483 0.952 . S
H492 C474 0.952 . S
H493 C482 0.948 1_545 S
O494 Zn479 2.034 . S
O494 C489 1.246 . S
O495 Zn487 2.024 . S
O495 C489 1.249 . S
H496 C478 0.948 . S
O497 Zn487 2.039 1_655 S
O497 C501 1.251 . S
O498 Zn479 2.020 1_655 S
O498 C501 1.258 . S
O499 C480 1.246 . S
O499 Zn487 2.034 1_565 S
O500 Zn479 2.024 1_565 S
O500 C480 1.249 . S
C501 O497 1.251 . S
C501 O498 1.258 . S
H502 C475 0.949 . S
H503 C477 0.950 . S
H504 C484 0.949 . S
H505 C486 0.950 . S
C506 O522 1.251 . S
C506 O524 1.254 . S
N507 C508 1.333 . S
N507 C512 1.307 . S
N507 Zn513 2.020 . S
C508 N507 1.333 . S
C508 C509 1.379 . S
C508 H526 0.952 . S
C509 C508 1.379 . S
C509 C510 1.390 . S
C509 H536 0.949 . S
C510 C509 1.390 . S
C510 C511 1.357 . S
C511 C510 1.357 . S
C511 C512 1.370 . S
C511 H537 0.950 . S
C512 N507 1.307 . S
C512 C511 1.370 . S
C512 H530 0.948 . S
Zn513 N507 2.020 . S
Zn513 O522 2.039 . S
Zn513 O528 2.034 . S
Zn513 O532 2.025 . S
Zn513 O534 2.024 . S
C514 O533 1.246 . S
C514 O534 1.249 . S
N515 C516 1.307 . S
N515 C517 1.333 . S
N515 Zn521 2.020 . S
C516 N515 1.307 . S
C516 C520 1.370 . S
C516 H527 0.948 . S
C517 N515 1.333 . S
C517 C518 1.379 . S
C517 H525 0.952 . S
C518 C517 1.379 . S
C518 C519 1.390 . S
C518 H538 0.949 . S
C519 C518 1.390 . S
C519 C520 1.357 . S
C520 C516 1.370 . S
C520 C519 1.357 . S
C520 H539 0.950 . S
Zn521 N515 2.020 . S
Zn521 O524 2.025 . S
Zn521 O529 2.024 . S
Zn521 O531 2.039 . S
Zn521 O533 2.034 . S
O522 C506 1.251 . S
O522 Zn513 2.039 . S
C523 O528 1.246 . S
C523 O529 1.249 . S
O524 C506 1.254 . S
O524 Zn521 2.025 . S
H525 C517 0.952 . S
H526 C508 0.952 . S
H527 C516 0.948 . S
O528 Zn513 2.034 . S
O528 C523 1.246 . S
O529 Zn521 2.024 . S
O529 C523 1.249 . S
H530 C512 0.948 . S
O531 Zn521 2.039 . S
O531 C535 1.251 . S
O532 Zn513 2.025 . S
O532 C535 1.254 . S
O533 C514 1.246 . S
O533 Zn521 2.034 . S
O534 Zn513 2.024 . S
O534 C514 1.249 . S
C535 O531 1.251 . S
C535 O532 1.254 . S
H536 C509 0.949 . S
H537 C511 0.950 . S
H538 C518 0.949 . S
H539 C520 0.950 . S
C540 O556 1.251 . S
C540 O558 1.254 . S
N541 C542 1.333 . S
N541 C546 1.307 . S
N541 Zn547 2.020 . S
C542 N541 1.333 . S
C542 C543 1.379 . S
C542 H560 0.952 . S
C543 C542 1.379 . S
C543 C544 1.390 . S
C543 H570 0.949 . S
C544 C543 1.390 . S
C544 C545 1.357 . S
C545 C544 1.357 . S
C545 C546 1.370 . S
C545 H571 0.950 . S
C546 N541 1.307 . S
C546 C545 1.370 . S
C546 H564 0.948 . S
Zn547 N541 2.020 . S
Zn547 O556 2.039 1_545 S
Zn547 O562 2.034 . S
Zn547 O566 2.025 . S
Zn547 O568 2.024 . S
C548 O567 1.246 . S
C548 O568 1.249 . S
N549 C550 1.307 . S
N549 C551 1.333 1_565 S
N549 Zn555 2.020 1_566 S
C550 N549 1.307 . S
C550 C554 1.370 . S
C550 H561 0.948 . S
C551 N549 1.333 1_545 S
C551 C552 1.379 . S
C551 H559 0.952 . S
C552 C551 1.379 . S
C552 C553 1.390 1_545 S
C552 H572 0.949 . S
C553 C552 1.390 1_565 S
C553 C554 1.357 . S
C554 C550 1.370 . S
C554 C553 1.357 . S
C554 H573 0.950 . S
Zn555 N549 2.020 1_544 S
Zn555 O558 2.025 1_545 S
Zn555 O563 2.024 . S
Zn555 O565 2.035 1_554 S
Zn555 O567 2.034 . S
O556 C540 1.251 . S
O556 Zn547 2.039 1_565 S
C557 O562 1.246 . S
C557 O563 1.249 . S
O558 C540 1.254 . S
O558 Zn555 2.025 1_565 S
H559 C551 0.952 . S
H560 C542 0.952 . S
H561 C550 0.948 . S
O562 Zn547 2.034 . S
O562 C557 1.246 . S
O563 Zn555 2.024 . S
O563 C557 1.249 . S
H564 C546 0.948 . S
O565 Zn555 2.035 1_556 S
O565 C569 1.239 1_556 S
O566 Zn547 2.025 . S
O566 C569 1.254 . S
O567 C548 1.246 . S
O567 Zn555 2.034 . S
O568 Zn547 2.024 . S
O568 C548 1.249 . S
C569 O565 1.239 1_554 S
C569 O566 1.254 . S
H570 C543 0.949 . S
H571 C545 0.950 . S
H572 C552 0.949 . S
H573 C554 0.950 . S
C574 O590 1.251 . S
C574 O592 1.254 . S
N575 C576 1.333 . S
N575 C580 1.307 . S
N575 Zn581 2.020 . S
C576 N575 1.333 . S
C576 C577 1.379 . S
C576 H594 0.952 . S
C577 C576 1.379 . S
C577 C578 1.390 . S
C577 H604 0.949 . S
C578 C577 1.390 . S
C578 C579 1.357 . S
C579 C578 1.357 . S
C579 C580 1.370 . S
C579 H605 0.950 . S
C580 N575 1.307 . S
C580 C579 1.370 . S
C580 H598 0.948 . S
Zn581 N575 2.020 . S
Zn581 O590 2.039 . S
Zn581 O596 2.034 . S
Zn581 O600 2.025 . S
Zn581 O602 2.024 . S
C582 O601 1.246 . S
C582 O602 1.249 . S
N583 C584 1.307 . S
N583 C585 1.333 . S
N583 Zn589 2.020 . S
C584 N583 1.307 . S
C584 C588 1.370 . S
C584 H595 0.948 . S
C585 N583 1.333 . S
C585 C586 1.379 . S
C585 H593 0.952 . S
C586 C585 1.379 . S
C586 C587 1.390 . S
C586 H606 0.949 . S
C587 C586 1.390 . S
C587 C588 1.357 . S
C588 C584 1.370 . S
C588 C587 1.357 . S
C588 H607 0.950 . S
Zn589 N583 2.020 . S
Zn589 O592 2.025 . S
Zn589 O597 2.024 . S
Zn589 O599 2.039 . S
Zn589 O601 2.034 . S
O590 C574 1.251 . S
O590 Zn581 2.039 . S
C591 O596 1.246 . S
C591 O597 1.249 . S
O592 C574 1.254 . S
O592 Zn589 2.025 . S
H593 C585 0.952 . S
H594 C576 0.952 . S
H595 C584 0.948 . S
O596 Zn581 2.034 . S
O596 C591 1.246 . S
O597 Zn589 2.024 . S
O597 C591 1.249 . S
H598 C580 0.948 . S
O599 Zn589 2.039 . S
O599 C603 1.251 . S
O600 Zn581 2.025 . S
O600 C603 1.254 . S
O601 C582 1.246 . S
O601 Zn589 2.034 . S
O602 Zn581 2.024 . S
O602 C582 1.249 . S
C603 O599 1.251 . S
C603 O600 1.254 . S
H604 C577 0.949 . S
H605 C579 0.950 . S
H606 C586 0.949 . S
H607 C588 0.950 . S
C608 O624 1.251 . S
C608 O626 1.254 . S
N609 C610 1.333 . S
N609 C614 1.307 . S
N609 Zn615 2.020 1_556 S
C610 N609 1.333 . S
C610 C611 1.379 . S
C610 H628 0.952 . S
C611 C610 1.379 . S
C611 C612 1.390 . S
C611 H638 0.949 . S
C612 C611 1.390 . S
C612 C613 1.357 . S
C613 C612 1.357 . S
C613 C614 1.370 . S
C613 H639 0.950 . S
C614 N609 1.307 . S
C614 C613 1.370 . S
C614 H632 0.948 . S
Zn615 N609 2.020 1_554 S
Zn615 O624 2.039 . S
Zn615 O630 2.034 . S
Zn615 O634 2.025 . S
Zn615 O636 2.024 . S
C616 O635 1.246 . S
C616 O636 1.249 . S
N617 C618 1.307 . S
N617 C619 1.333 . S
N617 Zn623 2.020 . S
C618 N617 1.307 . S
C618 C622 1.370 . S
C618 H629 0.948 . S
C619 N617 1.333 . S
C619 C620 1.379 . S
C619 H627 0.952 . S
C620 C619 1.379 . S
C620 C621 1.390 . S
C620 H640 0.949 . S
C621 C620 1.390 . S
C621 C622 1.357 . S
C622 C618 1.370 . S
C622 C621 1.357 . S
C622 H641 0.950 . S
Zn623 N617 2.020 . S
Zn623 O626 2.025 . S
Zn623 O631 2.024 . S
Zn623 O633 2.039 . S
Zn623 O635 2.034 . S
O624 C608 1.251 . S
O624 Zn615 2.039 . S
C625 O630 1.246 . S
C625 O631 1.249 . S
O626 C608 1.254 . S
O626 Zn623 2.025 . S
H627 C619 0.952 . S
H628 C610 0.952 . S
H629 C618 0.948 . S
O630 Zn615 2.034 . S
O630 C625 1.246 . S
O631 Zn623 2.024 . S
O631 C625 1.249 . S
H632 C614 0.948 . S
O633 Zn623 2.039 . S
O633 C637 1.251 . S
O634 Zn615 2.025 . S
O634 C637 1.254 . S
O635 C616 1.246 . S
O635 Zn623 2.034 . S
O636 Zn615 2.024 . S
O636 C616 1.249 . S
C637 O633 1.251 . S
C637 O634 1.254 . S
H638 C611 0.949 . S
H639 C613 0.950 . S
H640 C620 0.949 . S
H641 C622 0.950 . S
C642 O658 1.251 . S
C642 O660 1.254 . S
N643 C644 1.333 . S
N643 C648 1.307 . S
N643 Zn649 2.020 . S
C644 N643 1.333 . S
C644 C645 1.379 . S
C644 H662 0.952 . S
C645 C644 1.379 . S
C645 C646 1.390 1_655 S
C645 H672 0.949 . S
C646 C645 1.390 1_455 S
C646 C647 1.357 . S
C647 C646 1.357 . S
C647 C648 1.370 1_455 S
C647 H673 0.950 . S
C648 N643 1.307 . S
C648 C647 1.370 1_655 S
C648 H666 0.948 . S
Zn649 N643 2.020 . S
Zn649 O658 2.039 . S
Zn649 O664 2.034 . S
Zn649 O668 2.025 . S
Zn649 O670 2.024 . S
C650 O669 1.246 . S
C650 O670 1.249 . S
N651 C652 1.307 . S
N651 C653 1.333 . S
N651 Zn657 2.020 . S
C652 N651 1.307 . S
C652 C656 1.370 . S
C652 H663 0.948 . S
C653 N651 1.333 . S
C653 C654 1.379 . S
C653 H661 0.952 . S
C654 C653 1.379 . S
C654 C655 1.390 . S
C654 H674 0.949 . S
C655 C654 1.390 . S
C655 C656 1.357 . S
C656 C652 1.370 . S
C656 C655 1.357 . S
C656 H675 0.950 . S
Zn657 N651 2.020 . S
Zn657 O660 2.025 . S
Zn657 O665 2.024 . S
Zn657 O667 2.039 . S
Zn657 O669 2.034 . S
O658 C642 1.251 . S
O658 Zn649 2.039 . S
C659 O664 1.246 . S
C659 O665 1.249 . S
O660 C642 1.254 . S
O660 Zn657 2.025 . S
H661 C653 0.952 . S
H662 C644 0.952 . S
H663 C652 0.948 . S
O664 Zn649 2.034 . S
O664 C659 1.246 . S
O665 Zn657 2.024 . S
O665 C659 1.249 . S
H666 C648 0.948 . S
O667 Zn657 2.039 . S
O667 C671 1.251 . S
O668 Zn649 2.025 . S
O668 C671 1.254 . S
O669 C650 1.246 . S
O669 Zn657 2.034 . S
O670 Zn649 2.024 . S
O670 C650 1.249 . S
C671 O667 1.251 . S
C671 O668 1.254 . S
H672 C645 0.949 . S
H673 C647 0.950 . S
H674 C654 0.949 . S
H675 C656 0.950 . S
C676 O692 1.251 . S
C676 O694 1.254 . S
N677 C678 1.333 . S
N677 C682 1.307 . S
N677 Zn683 2.020 . S
C678 N677 1.333 . S
C678 C679 1.379 . S
C678 H696 0.952 . S
C679 C678 1.379 . S
C679 C680 1.390 . S
C679 H706 0.949 . S
C680 C679 1.390 . S
C680 C681 1.357 . S
C681 C680 1.357 . S
C681 C682 1.370 . S
C681 H707 0.950 . S
C682 N677 1.307 . S
C682 C681 1.370 . S
C682 H700 0.948 . S
Zn683 N677 2.020 . S
Zn683 O692 2.039 . S
Zn683 O698 2.034 . S
Zn683 O702 2.025 . S
Zn683 O704 2.024 . S
C684 O703 1.246 . S
C684 O704 1.249 . S
N685 C686 1.307 1_455 S
N685 C687 1.333 . S
N685 Zn691 2.020 . S
C686 N685 1.307 1_655 S
C686 C690 1.370 . S
C686 H697 0.948 . S
C687 N685 1.333 . S
C687 C688 1.379 . S
C687 H695 0.952 . S
C688 C687 1.379 . S
C688 C689 1.390 1_455 S
C688 H708 0.949 . S
C689 C688 1.390 1_655 S
C689 C690 1.357 . S
C690 C686 1.370 . S
C690 C689 1.357 . S
C690 H709 0.950 . S
Zn691 N685 2.020 . S
Zn691 O694 2.025 . S
Zn691 O699 2.024 1_455 S
Zn691 O701 2.039 . S
Zn691 O703 2.034 . S
O692 C676 1.251 . S
O692 Zn683 2.039 . S
C693 O698 1.246 1_655 S
C693 O699 1.249 . S
O694 C676 1.254 . S
O694 Zn691 2.025 . S
H695 C687 0.952 . S
H696 C678 0.952 . S
H697 C686 0.948 . S
O698 Zn683 2.034 . S
O698 C693 1.246 1_455 S
O699 Zn691 2.024 1_655 S
O699 C693 1.249 . S
H700 C682 0.948 . S
O701 Zn691 2.039 . S
O701 C705 1.251 . S
O702 Zn683 2.025 . S
O702 C705 1.254 . S
O703 C684 1.246 . S
O703 Zn691 2.034 . S
O704 Zn683 2.024 . S
O704 C684 1.249 . S
C705 O701 1.251 . S
C705 O702 1.254 . S
H706 C679 0.949 . S
H707 C681 0.950 . S
H708 C688 0.949 . S
H709 C690 0.950 . S
C710 O726 1.251 . S
C710 O728 1.254 . S
N711 C712 1.333 . S
N711 C716 1.307 . S
N711 Zn717 2.020 . S
C712 N711 1.333 . S
C712 C713 1.379 . S
C712 H730 0.952 . S
C713 C712 1.379 . S
C713 C714 1.390 . S
C713 H740 0.949 . S
C714 C713 1.390 . S
C714 C715 1.357 . S
C715 C714 1.357 . S
C715 C716 1.370 . S
C715 H741 0.950 . S
C716 N711 1.307 . S
C716 C715 1.370 . S
C716 H734 0.948 . S
Zn717 N711 2.020 . S
Zn717 O726 2.039 . S
Zn717 O732 2.034 . S
Zn717 O736 2.025 . S
Zn717 O738 2.024 . S
C718 O737 1.246 . S
C718 O738 1.249 . S
N719 C720 1.307 . S
N719 C721 1.333 . S
N719 Zn725 2.020 . S
C720 N719 1.307 . S
C720 C724 1.370 . S
C720 H731 0.948 . S
C721 N719 1.333 . S
C721 C722 1.379 . S
C721 H729 0.952 . S
C722 C721 1.379 . S
C722 C723 1.390 . S
C722 H742 0.949 . S
C723 C722 1.390 . S
C723 C724 1.357 . S
C724 C720 1.370 . S
C724 C723 1.357 . S
C724 H743 0.950 . S
Zn725 N719 2.020 . S
Zn725 O728 2.025 . S
Zn725 O733 2.024 . S
Zn725 O735 2.039 . S
Zn725 O737 2.034 . S
O726 C710 1.251 . S
O726 Zn717 2.039 . S
C727 O732 1.246 . S
C727 O733 1.249 . S
O728 C710 1.254 . S
O728 Zn725 2.025 . S
H729 C721 0.952 . S
H730 C712 0.952 . S
H731 C720 0.948 . S
O732 Zn717 2.034 . S
O732 C727 1.246 . S
O733 Zn725 2.024 . S
O733 C727 1.249 . S
H734 C716 0.948 . S
O735 Zn725 2.039 . S
O735 C739 1.251 . S
O736 Zn717 2.025 . S
O736 C739 1.254 . S
O737 C718 1.246 . S
O737 Zn725 2.034 . S
O738 Zn717 2.024 . S
O738 C718 1.249 . S
C739 O735 1.251 . S
C739 O736 1.254 . S
H740 C713 0.949 . S
H741 C715 0.950 . S
H742 C722 0.949 . S
H743 C724 0.950 . S
C744 O760 1.251 . S
C744 O762 1.254 . S
N745 C746 1.333 . S
N745 C750 1.307 . S
N745 Zn751 2.020 . S
C746 N745 1.333 . S
C746 C747 1.379 . S
C746 H764 0.952 . S
C747 C746 1.379 . S
C747 C748 1.390 . S
C747 H774 0.949 . S
C748 C747 1.390 . S
C748 C749 1.357 . S
C749 C748 1.357 . S
C749 C750 1.370 . S
C749 H775 0.950 . S
C750 N745 1.307 . S
C750 C749 1.370 . S
C750 H768 0.948 . S
Zn751 N745 2.020 . S
Zn751 O760 2.039 . S
Zn751 O766 2.034 . S
Zn751 O770 2.025 . S
Zn751 O772 2.024 . S
C752 O771 1.246 . S
C752 O772 1.249 . S
N753 C754 1.307 . S
N753 C755 1.333 . S
N753 Zn759 2.020 . S
C754 N753 1.307 . S
C754 C758 1.370 . S
C754 H765 0.948 . S
C755 N753 1.333 . S
C755 C756 1.379 . S
C755 H763 0.952 . S
C756 C755 1.379 . S
C756 C757 1.390 . S
C756 H776 0.949 . S
C757 C756 1.390 . S
C757 C758 1.357 . S
C758 C754 1.370 . S
C758 C757 1.357 . S
C758 H777 0.950 . S
Zn759 N753 2.020 . S
Zn759 O762 2.025 . S
Zn759 O767 2.024 . S
Zn759 O769 2.039 . S
Zn759 O771 2.034 . S
O760 C744 1.251 . S
O760 Zn751 2.039 . S
C761 O766 1.246 . S
C761 O767 1.249 . S
O762 C744 1.254 . S
O762 Zn759 2.025 . S
H763 C755 0.952 . S
H764 C746 0.952 . S
H765 C754 0.948 . S
O766 Zn751 2.034 . S
O766 C761 1.246 . S
O767 Zn759 2.024 . S
O767 C761 1.249 . S
H768 C750 0.948 . S
O769 Zn759 2.039 . S
O769 C773 1.251 . S
O770 Zn751 2.025 . S
O770 C773 1.254 . S
O771 C752 1.246 . S
O771 Zn759 2.034 . S
O772 Zn751 2.024 . S
O772 C752 1.249 . S
C773 O769 1.251 . S
C773 O770 1.254 . S
H774 C747 0.949 . S
H775 C749 0.950 . S
H776 C756 0.949 . S
H777 C758 0.950 . S
C778 O794 1.251 . S
C778 O796 1.254 . S
N779 C780 1.333 . S
N779 C784 1.307 . S
N779 Zn785 2.020 . S
C780 N779 1.333 . S
C780 C781 1.379 . S
C780 H798 0.952 . S
C781 C780 1.379 . S
C781 C782 1.390 . S
C781 H808 0.949 . S
C782 C781 1.390 . S
C782 C783 1.357 . S
C783 C782 1.357 . S
C783 C784 1.370 . S
C783 H809 0.950 . S
C784 N779 1.307 . S
C784 C783 1.370 . S
C784 H802 0.948 . S
Zn785 N779 2.020 . S
Zn785 O794 2.039 . S
Zn785 O800 2.034 . S
Zn785 O804 2.025 . S
Zn785 O806 2.024 . S
C786 O805 1.246 . S
C786 O806 1.249 . S
N787 C788 1.307 . S
N787 C789 1.333 . S
N787 Zn793 2.020 . S
C788 N787 1.307 . S
C788 C792 1.370 . S
C788 H799 0.948 . S
C789 N787 1.333 . S
C789 C790 1.379 . S
C789 H797 0.952 . S
C790 C789 1.379 . S
C790 C791 1.390 . S
C790 H810 0.949 . S
C791 C790 1.390 . S
C791 C792 1.357 . S
C792 C788 1.370 . S
C792 C791 1.357 . S
C792 H811 0.950 . S
Zn793 N787 2.020 . S
Zn793 O796 2.025 . S
Zn793 O801 2.024 . S
Zn793 O803 2.039 . S
Zn793 O805 2.034 . S
O794 C778 1.251 . S
O794 Zn785 2.039 . S
C795 O800 1.246 . S
C795 O801 1.249 . S
O796 C778 1.254 . S
O796 Zn793 2.025 . S
H797 C789 0.952 . S
H798 C780 0.952 . S
H799 C788 0.948 . S
O800 Zn785 2.034 . S
O800 C795 1.246 . S
O801 Zn793 2.024 . S
O801 C795 1.249 . S
H802 C784 0.948 . S
O803 Zn793 2.039 . S
O803 C807 1.251 . S
O804 Zn785 2.025 . S
O804 C807 1.254 . S
O805 C786 1.246 . S
O805 Zn793 2.034 . S
O806 Zn785 2.024 . S
O806 C786 1.249 . S
C807 O803 1.251 . S
C807 O804 1.254 . S
H808 C781 0.949 . S
H809 C783 0.950 . S
H810 C790 0.949 . S
H811 C792 0.950 . S
C812 O828 1.251 . S
C812 O830 1.254 . S
N813 C814 1.333 . S
N813 C818 1.307 . S
N813 Zn819 2.020 . S
C814 N813 1.333 . S
C814 C815 1.379 . S
C814 H832 0.952 . S
C815 C814 1.379 . S
C815 C816 1.390 . S
C815 H842 0.949 . S
C816 C815 1.390 . S
C816 C817 1.357 . S
C817 C816 1.357 . S
C817 C818 1.370 . S
C817 H843 0.950 . S
C818 N813 1.307 . S
C818 C817 1.370 . S
C818 H836 0.948 . S
Zn819 N813 2.020 . S
Zn819 O828 2.039 . S
Zn819 O834 2.034 . S
Zn819 O838 2.025 . S
Zn819 O840 2.024 . S
C820 O839 1.246 . S
C820 O840 1.249 . S
N821 C822 1.307 . S
N821 C823 1.333 . S
N821 Zn827 2.020 . S
C822 N821 1.307 . S
C822 C826 1.370 . S
C822 H833 0.948 . S
C823 N821 1.333 . S
C823 C824 1.379 . S
C823 H831 0.952 . S
C824 C823 1.379 . S
C824 C825 1.390 . S
C824 H844 0.949 . S
C825 C824 1.390 . S
C825 C826 1.357 . S
C826 C822 1.370 . S
C826 C825 1.357 . S
C826 H845 0.950 . S
Zn827 N821 2.020 . S
Zn827 O830 2.025 . S
Zn827 O835 2.024 . S
Zn827 O837 2.039 . S
Zn827 O839 2.034 . S
O828 C812 1.251 . S
O828 Zn819 2.039 . S
C829 O834 1.246 . S
C829 O835 1.249 . S
O830 C812 1.254 . S
O830 Zn827 2.025 . S
H831 C823 0.952 . S
H832 C814 0.952 . S
H833 C822 0.948 . S
O834 Zn819 2.034 . S
O834 C829 1.246 . S
O835 Zn827 2.024 . S
O835 C829 1.249 . S
H836 C818 0.948 . S
O837 Zn827 2.039 . S
O837 C841 1.251 . S
O838 Zn819 2.025 . S
O838 C841 1.254 . S
O839 C820 1.246 . S
O839 Zn827 2.034 . S
O840 Zn819 2.024 . S
O840 C820 1.249 . S
C841 O837 1.251 . S
C841 O838 1.254 . S
H842 C815 0.949 . S
H843 C817 0.950 . S
H844 C824 0.949 . S
H845 C826 0.950 . S
C846 O862 1.251 . S
C846 O864 1.254 . S
N847 C848 1.333 . S
N847 C852 1.307 . S
N847 Zn853 2.020 . S
C848 N847 1.333 . S
C848 C849 1.379 . S
C848 H866 0.952 . S
C849 C848 1.379 . S
C849 C850 1.390 . S
C849 H876 0.949 . S
C850 C849 1.390 . S
C850 C851 1.357 . S
C851 C850 1.357 . S
C851 C852 1.370 . S
C851 H877 0.950 . S
C852 N847 1.307 . S
C852 C851 1.370 . S
C852 H870 0.948 . S
Zn853 N847 2.020 . S
Zn853 O862 2.039 . S
Zn853 O868 2.034 . S
Zn853 O872 2.025 . S
Zn853 O874 2.024 . S
C854 O873 1.246 . S
C854 O874 1.249 1_655 S
N855 C856 1.307 . S
N855 C857 1.333 1_554 S
N855 Zn861 2.020 . S
C856 N855 1.307 . S
C856 C860 1.370 . S
C856 H867 0.948 . S
C857 N855 1.333 1_556 S
C857 C858 1.379 . S
C857 H865 0.952 . S
C858 C857 1.379 . S
C858 C859 1.390 . S
C858 H878 0.949 1_455 S
C859 C858 1.390 . S
C859 C860 1.357 1_556 S
C860 C856 1.370 . S
C860 C859 1.357 1_554 S
C860 H879 0.950 . S
Zn861 N855 2.020 . S
Zn861 O864 2.025 . S
Zn861 O869 2.024 . S
Zn861 O871 2.039 1_554 S
Zn861 O873 2.034 1_455 S
O862 C846 1.251 . S
O862 Zn853 2.039 . S
C863 O868 1.246 . S
C863 O869 1.249 . S
O864 C846 1.254 . S
O864 Zn861 2.025 . S
H865 C857 0.952 . S
H866 C848 0.952 . S
H867 C856 0.948 . S
O868 Zn853 2.034 . S
O868 C863 1.246 . S
O869 Zn861 2.024 . S
O869 C863 1.249 . S
H870 C852 0.948 . S
O871 Zn861 2.039 1_556 S
O871 C875 1.251 . S
O872 Zn853 2.025 . S
O872 C875 1.254 1_554 S
O873 C854 1.246 . S
O873 Zn861 2.034 1_655 S
O874 Zn853 2.024 . S
O874 C854 1.249 1_455 S
C875 O871 1.251 . S
C875 O872 1.254 1_556 S
H876 C849 0.949 . S
H877 C851 0.950 . S
H878 C858 0.949 1_655 S
H879 C860 0.950 . S
C353 C8 2.731 . S
C22 C399 3.567 . S
C35 C408 0.601 . S
C446 C49 2.232 . S
C23 C480 3.299 . S
C510 C34 0.792 . S
C569 C48 2.126 1_554 S
C9 C582 2.367 . S
C64 C365 2.574 1_545 S
C77 C383 1.310 . S
C404 C92 3.450 . S
C442 C105 2.347 . S
C63 C476 1.763 . S
C506 C78 3.306 . S
C553 C91 1.649 1_565 S
C578 C106 1.463 . S
C349 C107 1.297 . S
C608 C118 2.211 . S
C135 C650 2.775 . S
C693 C146 0.555 . S
C65 C574 2.651 . S
C412 C79 2.956 . S
C132 C710 1.906 . S
C761 C160 2.071 . S
C177 C344 3.539 1_556 S
C744 C188 2.487 . S
C204 C417 1.676 . S
C219 C727 2.413 . S
C489 C190 2.588 . S
C655 C202 0.799 . S
C540 C217 1.987 . S
C795 C175 2.816 . S
C336 C231 2.353 1_445 S
C246 C748 1.963 . S
C433 C259 2.623 . S
C274 C723 2.734 . S
C232 C485 1.909 1_545 S
C245 C671 2.449 . S
C544 C260 2.150 . S
C273 C791 1.326 . S
C275 C340 1.559 . S
C286 C637 1.933 . S
C303 C523 2.521 . S
C314 C684 1.115 . S
C807 C233 2.766 . S
C421 C247 2.546 . S
C467 C300 1.448 . S
C378 C328 1.873 . S
C36 C829 2.714 . S
C773 C50 3.553 . S
C850 C7 0.678 . S
C21 C718 2.230 . S
C51 C616 3.291 1_556 S
C646 C6 0.856 . S
C705 C20 2.115 . S
C786 C37 2.470 . S
C841 C162 2.393 . S
C119 C757 1.265 . S
C134 C846 3.491 1_655 S
C714 C147 2.184 . S
C612 C161 1.710 . S
C120 C642 3.361 . S
C689 C133 1.534 . S
C148 C782 1.974 . S
C825 C149 0.900 . S
C472 C76 2.125 1_545 S
C514 C93 2.924 . S
C104 C557 0.628 . S
C778 C163 2.252 . S
C121 C854 2.828 . S
C438 C90 1.883 . S
C387 C62 2.008 . S
C203 C820 3.274 . S
C370 C216 2.487 . S
C859 C174 1.268 . S
C191 C455 2.480 . S
C218 C625 2.485 . S
C176 C519 1.392 . S
C189 C676 1.955 . S
C205 C591 2.844 . S
C812 C329 2.481 . S
C288 C374 1.998 . S
C875 C301 2.470 . S
C316 C451 2.790 . S
C330 C621 1.927 . S
C535 C287 2.580 . S
C302 C680 2.112 . S
C587 C315 1.383 . S
C816 C317 1.748 . S
C501 C244 1.932 . S
C261 C659 2.625 . S
C548 C272 1.169 . S
C603 C331 2.514 . S
C289 C863 2.583 . S
C739 C258 1.555 . S
C752 C230 1.908 . S
