# Generated by pormake.
# Topology gar, (4,6)-cn, num edge types: 1
# Building blocks:
#     Node 0, Type 0, BuildingBlock: AZAVOO_clean_sbu_0, # of connection points: 4
#     Node 1, Type 0, BuildingBlock: AZAVOO_clean_sbu_0, # of connection points: 4
#     Node 2, Type 0, BuildingBlock: AZAVOO_clean_sbu_0, # of connection points: 4
#     Node 3, Type 0, BuildingBlock: AZAVOO_clean_sbu_0, # of connection points: 4
#     Node 4, Type 0, BuildingBlock: AZAVOO_clean_sbu_0, # of connection points: 4
#     Node 5, Type 0, BuildingBlock: AZAVOO_clean_sbu_0, # of connection points: 4
#     Node 6, Type 0, BuildingBlock: AZAVOO_clean_sbu_0, # of connection points: 4
#     Node 7, Type 0, BuildingBlock: AZAVOO_clean_sbu_0, # of connection points: 4
#     Node 8, Type 0, BuildingBlock: AZAVOO_clean_sbu_0, # of connection points: 4
#     Node 9, Type 0, BuildingBlock: AZAVOO_clean_sbu_0, # of connection points: 4
#     Node 10, Type 0, BuildingBlock: AZAVOO_clean_sbu_0, # of connection points: 4
#     Node 11, Type 0, BuildingBlock: AZAVOO_clean_sbu_0, # of connection points: 4
#     Node 12, Type 0, BuildingBlock: AZAVOO_clean_sbu_0, # of connection points: 4
#     Node 13, Type 0, BuildingBlock: AZAVOO_clean_sbu_0, # of connection points: 4
#     Node 14, Type 0, BuildingBlock: AZAVOO_clean_sbu_0, # of connection points: 4
#     Node 15, Type 0, BuildingBlock: AZAVOO_clean_sbu_0, # of connection points: 4
#     Node 16, Type 0, BuildingBlock: AZAVOO_clean_sbu_0, # of connection points: 4
#     Node 17, Type 0, BuildingBlock: AZAVOO_clean_sbu_0, # of connection points: 4
#     Node 18, Type 0, BuildingBlock: AZAVOO_clean_sbu_0, # of connection points: 4
#     Node 19, Type 0, BuildingBlock: AZAVOO_clean_sbu_0, # of connection points: 4
#     Node 20, Type 0, BuildingBlock: AZAVOO_clean_sbu_0, # of connection points: 4
#     Node 21, Type 0, BuildingBlock: AZAVOO_clean_sbu_0, # of connection points: 4
#     Node 22, Type 0, BuildingBlock: AZAVOO_clean_sbu_0, # of connection points: 4
#     Node 23, Type 0, BuildingBlock: AZAVOO_clean_sbu_0, # of connection points: 4
#     Node 24, Type 1, BuildingBlock: KUMBOL_clean_sbu_0, # of connection points: 6
#     Node 25, Type 1, BuildingBlock: KUMBOL_clean_sbu_0, # of connection points: 6
#     Node 26, Type 1, BuildingBlock: KUMBOL_clean_sbu_0, # of connection points: 6
#     Node 27, Type 1, BuildingBlock: KUMBOL_clean_sbu_0, # of connection points: 6
#     Node 28, Type 1, BuildingBlock: KUMBOL_clean_sbu_0, # of connection points: 6
#     Node 29, Type 1, BuildingBlock: KUMBOL_clean_sbu_0, # of connection points: 6
#     Node 30, Type 1, BuildingBlock: KUMBOL_clean_sbu_0, # of connection points: 6
#     Node 31, Type 1, BuildingBlock: KUMBOL_clean_sbu_0, # of connection points: 6
#     Node 32, Type 1, BuildingBlock: KUMBOL_clean_sbu_0, # of connection points: 6
#     Node 33, Type 1, BuildingBlock: KUMBOL_clean_sbu_0, # of connection points: 6
#     Node 34, Type 1, BuildingBlock: KUMBOL_clean_sbu_0, # of connection points: 6
#     Node 35, Type 1, BuildingBlock: KUMBOL_clean_sbu_0, # of connection points: 6
#     Node 36, Type 1, BuildingBlock: KUMBOL_clean_sbu_0, # of connection points: 6
#     Node 37, Type 1, BuildingBlock: KUMBOL_clean_sbu_0, # of connection points: 6
#     Node 38, Type 1, BuildingBlock: KUMBOL_clean_sbu_0, # of connection points: 6
#     Node 39, Type 1, BuildingBlock: KUMBOL_clean_sbu_0, # of connection points: 6
#     Edge 40, Type (0, 1), BuildingBlock: TEMPAE_clean_linker_10, # of connection points: 2
#     Edge 41, Type (0, 1), BuildingBlock: TEMPAE_clean_linker_10, # of connection points: 2
#     Edge 42, Type (0, 1), BuildingBlock: TEMPAE_clean_linker_10, # of connection points: 2
#     Edge 43, Type (0, 1), BuildingBlock: TEMPAE_clean_linker_10, # of connection points: 2
#     Edge 44, Type (0, 1), BuildingBlock: TEMPAE_clean_linker_10, # of connection points: 2
#     Edge 45, Type (0, 1), BuildingBlock: TEMPAE_clean_linker_10, # of connection points: 2
#     Edge 46, Type (0, 1), BuildingBlock: TEMPAE_clean_linker_10, # of connection points: 2
#     Edge 47, Type (0, 1), BuildingBlock: TEMPAE_clean_linker_10, # of connection points: 2
#     Edge 48, Type (0, 1), BuildingBlock: TEMPAE_clean_linker_10, # of connection points: 2
#     Edge 49, Type (0, 1), BuildingBlock: TEMPAE_clean_linker_10, # of connection points: 2
#     Edge 50, Type (0, 1), BuildingBlock: TEMPAE_clean_linker_10, # of connection points: 2
#     Edge 51, Type (0, 1), BuildingBlock: TEMPAE_clean_linker_10, # of connection points: 2
#     Edge 52, Type (0, 1), BuildingBlock: TEMPAE_clean_linker_10, # of connection points: 2
#     Edge 53, Type (0, 1), BuildingBlock: TEMPAE_clean_linker_10, # of connection points: 2
#     Edge 54, Type (0, 1), BuildingBlock: TEMPAE_clean_linker_10, # of connection points: 2
#     Edge 55, Type (0, 1), BuildingBlock: TEMPAE_clean_linker_10, # of connection points: 2
#     Edge 56, Type (0, 1), BuildingBlock: TEMPAE_clean_linker_10, # of connection points: 2
#     Edge 57, Type (0, 1), BuildingBlock: TEMPAE_clean_linker_10, # of connection points: 2
#     Edge 58, Type (0, 1), BuildingBlock: TEMPAE_clean_linker_10, # of connection points: 2
#     Edge 59, Type (0, 1), BuildingBlock: TEMPAE_clean_linker_10, # of connection points: 2
#     Edge 60, Type (0, 1), BuildingBlock: TEMPAE_clean_linker_10, # of connection points: 2
#     Edge 61, Type (0, 1), BuildingBlock: TEMPAE_clean_linker_10, # of connection points: 2
#     Edge 62, Type (0, 1), BuildingBlock: TEMPAE_clean_linker_10, # of connection points: 2
#     Edge 63, Type (0, 1), BuildingBlock: TEMPAE_clean_linker_10, # of connection points: 2
#     Edge 64, Type (0, 1), BuildingBlock: TEMPAE_clean_linker_10, # of connection points: 2
#     Edge 65, Type (0, 1), BuildingBlock: TEMPAE_clean_linker_10, # of connection points: 2
#     Edge 66, Type (0, 1), BuildingBlock: TEMPAE_clean_linker_10, # of connection points: 2
#     Edge 67, Type (0, 1), BuildingBlock: TEMPAE_clean_linker_10, # of connection points: 2
#     Edge 68, Type (0, 1), BuildingBlock: TEMPAE_clean_linker_10, # of connection points: 2
#     Edge 69, Type (0, 1), BuildingBlock: TEMPAE_clean_linker_10, # of connection points: 2
#     Edge 70, Type (0, 1), BuildingBlock: TEMPAE_clean_linker_10, # of connection points: 2
#     Edge 71, Type (0, 1), BuildingBlock: TEMPAE_clean_linker_10, # of connection points: 2
#     Edge 72, Type (0, 1), BuildingBlock: TEMPAE_clean_linker_10, # of connection points: 2
#     Edge 73, Type (0, 1), BuildingBlock: TEMPAE_clean_linker_10, # of connection points: 2
#     Edge 74, Type (0, 1), BuildingBlock: TEMPAE_clean_linker_10, # of connection points: 2
#     Edge 75, Type (0, 1), BuildingBlock: TEMPAE_clean_linker_10, # of connection points: 2
#     Edge 76, Type (0, 1), BuildingBlock: TEMPAE_clean_linker_10, # of connection points: 2
#     Edge 77, Type (0, 1), BuildingBlock: TEMPAE_clean_linker_10, # of connection points: 2
#     Edge 78, Type (0, 1), BuildingBlock: TEMPAE_clean_linker_10, # of connection points: 2
#     Edge 79, Type (0, 1), BuildingBlock: TEMPAE_clean_linker_10, # of connection points: 2
#     Edge 80, Type (0, 1), BuildingBlock: TEMPAE_clean_linker_10, # of connection points: 2
#     Edge 81, Type (0, 1), BuildingBlock: TEMPAE_clean_linker_10, # of connection points: 2
#     Edge 82, Type (0, 1), BuildingBlock: TEMPAE_clean_linker_10, # of connection points: 2
#     Edge 83, Type (0, 1), BuildingBlock: TEMPAE_clean_linker_10, # of connection points: 2
#     Edge 84, Type (0, 1), BuildingBlock: TEMPAE_clean_linker_10, # of connection points: 2
#     Edge 85, Type (0, 1), BuildingBlock: TEMPAE_clean_linker_10, # of connection points: 2
#     Edge 86, Type (0, 1), BuildingBlock: TEMPAE_clean_linker_10, # of connection points: 2
#     Edge 87, Type (0, 1), BuildingBlock: TEMPAE_clean_linker_10, # of connection points: 2
#     Edge 88, Type (0, 1), BuildingBlock: TEMPAE_clean_linker_10, # of connection points: 2
#     Edge 89, Type (0, 1), BuildingBlock: TEMPAE_clean_linker_10, # of connection points: 2
#     Edge 90, Type (0, 1), BuildingBlock: TEMPAE_clean_linker_10, # of connection points: 2
#     Edge 91, Type (0, 1), BuildingBlock: TEMPAE_clean_linker_10, # of connection points: 2
#     Edge 92, Type (0, 1), BuildingBlock: TEMPAE_clean_linker_10, # of connection points: 2
#     Edge 93, Type (0, 1), BuildingBlock: TEMPAE_clean_linker_10, # of connection points: 2
#     Edge 94, Type (0, 1), BuildingBlock: TEMPAE_clean_linker_10, # of connection points: 2
#     Edge 95, Type (0, 1), BuildingBlock: TEMPAE_clean_linker_10, # of connection points: 2
#     Edge 96, Type (0, 1), BuildingBlock: TEMPAE_clean_linker_10, # of connection points: 2
#     Edge 97, Type (0, 1), BuildingBlock: TEMPAE_clean_linker_10, # of connection points: 2
#     Edge 98, Type (0, 1), BuildingBlock: TEMPAE_clean_linker_10, # of connection points: 2
#     Edge 99, Type (0, 1), BuildingBlock: TEMPAE_clean_linker_10, # of connection points: 2
#     Edge 100, Type (0, 1), BuildingBlock: TEMPAE_clean_linker_10, # of connection points: 2
#     Edge 101, Type (0, 1), BuildingBlock: TEMPAE_clean_linker_10, # of connection points: 2
#     Edge 102, Type (0, 1), BuildingBlock: TEMPAE_clean_linker_10, # of connection points: 2
#     Edge 103, Type (0, 1), BuildingBlock: TEMPAE_clean_linker_10, # of connection points: 2
#     Edge 104, Type (0, 1), BuildingBlock: TEMPAE_clean_linker_10, # of connection points: 2
#     Edge 105, Type (0, 1), BuildingBlock: TEMPAE_clean_linker_10, # of connection points: 2
#     Edge 106, Type (0, 1), BuildingBlock: TEMPAE_clean_linker_10, # of connection points: 2
#     Edge 107, Type (0, 1), BuildingBlock: TEMPAE_clean_linker_10, # of connection points: 2
#     Edge 108, Type (0, 1), BuildingBlock: TEMPAE_clean_linker_10, # of connection points: 2
#     Edge 109, Type (0, 1), BuildingBlock: TEMPAE_clean_linker_10, # of connection points: 2
#     Edge 110, Type (0, 1), BuildingBlock: TEMPAE_clean_linker_10, # of connection points: 2
#     Edge 111, Type (0, 1), BuildingBlock: TEMPAE_clean_linker_10, # of connection points: 2
#     Edge 112, Type (0, 1), BuildingBlock: TEMPAE_clean_linker_10, # of connection points: 2
#     Edge 113, Type (0, 1), BuildingBlock: TEMPAE_clean_linker_10, # of connection points: 2
#     Edge 114, Type (0, 1), BuildingBlock: TEMPAE_clean_linker_10, # of connection points: 2
#     Edge 115, Type (0, 1), BuildingBlock: TEMPAE_clean_linker_10, # of connection points: 2
#     Edge 116, Type (0, 1), BuildingBlock: TEMPAE_clean_linker_10, # of connection points: 2
#     Edge 117, Type (0, 1), BuildingBlock: TEMPAE_clean_linker_10, # of connection points: 2
#     Edge 118, Type (0, 1), BuildingBlock: TEMPAE_clean_linker_10, # of connection points: 2
#     Edge 119, Type (0, 1), BuildingBlock: TEMPAE_clean_linker_10, # of connection points: 2
#     Edge 120, Type (0, 1), BuildingBlock: TEMPAE_clean_linker_10, # of connection points: 2
#     Edge 121, Type (0, 1), BuildingBlock: TEMPAE_clean_linker_10, # of connection points: 2
#     Edge 122, Type (0, 1), BuildingBlock: TEMPAE_clean_linker_10, # of connection points: 2
#     Edge 123, Type (0, 1), BuildingBlock: TEMPAE_clean_linker_10, # of connection points: 2
#     Edge 124, Type (0, 1), BuildingBlock: TEMPAE_clean_linker_10, # of connection points: 2
#     Edge 125, Type (0, 1), BuildingBlock: TEMPAE_clean_linker_10, # of connection points: 2
#     Edge 126, Type (0, 1), BuildingBlock: TEMPAE_clean_linker_10, # of connection points: 2
#     Edge 127, Type (0, 1), BuildingBlock: TEMPAE_clean_linker_10, # of connection points: 2
#     Edge 128, Type (0, 1), BuildingBlock: TEMPAE_clean_linker_10, # of connection points: 2
#     Edge 129, Type (0, 1), BuildingBlock: TEMPAE_clean_linker_10, # of connection points: 2
#     Edge 130, Type (0, 1), BuildingBlock: TEMPAE_clean_linker_10, # of connection points: 2
#     Edge 131, Type (0, 1), BuildingBlock: TEMPAE_clean_linker_10, # of connection points: 2
#     Edge 132, Type (0, 1), BuildingBlock: TEMPAE_clean_linker_10, # of connection points: 2
#     Edge 133, Type (0, 1), BuildingBlock: TEMPAE_clean_linker_10, # of connection points: 2
#     Edge 134, Type (0, 1), BuildingBlock: TEMPAE_clean_linker_10, # of connection points: 2
#     Edge 135, Type (0, 1), BuildingBlock: TEMPAE_clean_linker_10, # of connection points: 2
# Relax obj value: 0.145
# Max RMSD: 0.322
# Mean RMSD: 0.190
data_MOF--net-gar--node1-AZAVOO_clean_sbu_0--node2-KUMBOL_clean_sbu_0--edge1-TEMPAE_clean_linker_10
_symmetry_space_group_name_H-M    P1
_symmetry_Int_Tables_number       1
_symmetry_cell_setting            triclinic
loop_
_symmetry_equiv_pos_as_xyz
'x, y, z'
_cell_length_a     62.883914
_cell_length_b     56.100375
_cell_length_c     57.099786
_cell_angle_alpha  103.33186
_cell_angle_beta   93.08157
_cell_angle_gamma 103.94005
loop_
_atom_site_label
_atom_site_type_symbol
_atom_site_fract_x
_atom_site_fract_y
_atom_site_fract_z
_atom_type_partial_charge
Mg0 Mg 0.10634 0.31543 0.36353 0.0
O1 O 0.12589 0.35451 0.38621 0.0
O2 O 0.11319 0.34596 0.4185 0.0
Mg3 Mg 0.07595 0.33787 0.4106 0.0
C4 C 0.12489 0.36166 0.4087 0.0
C5 C 0.1462 0.3289 0.33895 0.0
O6 O 0.13843 0.34893 0.34128 0.0
O7 O 0.10999 0.29449 0.39315 0.0
O8 O 0.07975 0.29933 0.41123 0.0
O9 O 0.09189 0.33428 0.33919 0.0
O10 O 0.0772 0.32461 0.37129 0.0
C11 C 0.09477 0.28775 0.40618 0.0
C12 C 0.07676 0.33511 0.35359 0.0
O13 O 0.13671 0.31044 0.34724 0.0
Mg14 Mg 0.00198 0.77093 0.67041 0.0
O15 O 0.99332 0.73204 0.64676 0.0
O16 O 0.95972 0.71849 0.62669 0.0
Mg17 Mg 0.94566 0.75289 0.64065 0.0
C18 C 0.97844 0.71499 0.6322 0.0
C19 C 0.04004 0.75064 0.68016 0.0
O20 O 0.023 0.73537 0.68604 0.0
O21 O 0.00513 0.78626 0.63791 0.0
O22 O 0.97 0.77847 0.62203 0.0
O23 O 0.99002 0.75604 0.70057 0.0
O24 O 0.96922 0.7672 0.6744 0.0
C25 C 0.99068 0.78818 0.62252 0.0
C26 C 0.97091 0.75772 0.69274 0.0
O27 O 0.03728 0.76947 0.67278 0.0
Mg28 Mg 0.60239 0.80089 0.85962 0.0
O29 O 0.61122 0.84093 0.88615 0.0
O30 O 0.58118 0.84532 0.90463 0.0
Mg31 Mg 0.56393 0.80504 0.90273 0.0
C32 C 0.60037 0.85438 0.89921 0.0
C33 C 0.64683 0.8298 0.84619 0.0
O34 O 0.63886 0.84977 0.85102 0.0
O35 O 0.61297 0.78164 0.88709 0.0
O36 O 0.59975 0.8069 0.91386 0.0
O37 O 0.58371 0.81551 0.83577 0.0
O38 O 0.56941 0.79712 0.86413 0.0
C39 C 0.60849 0.78857 0.90853 0.0
C40 C 0.56745 0.80976 0.84823 0.0
O41 O 0.63568 0.8086 0.84849 0.0
Mg42 Mg 0.49891 0.27121 0.1739 0.0
O43 O 0.49551 0.23445 0.14659 0.0
O44 O 0.46271 0.22001 0.12433 0.0
Mg45 Mg 0.44476 0.25051 0.13795 0.0
C46 C 0.48191 0.21786 0.13006 0.0
C47 C 0.54039 0.26172 0.19423 0.0
O48 O 0.52485 0.25102 0.20572 0.0
O49 O 0.50332 0.29187 0.14485 0.0
O50 O 0.47009 0.27869 0.1229 0.0
O51 O 0.48475 0.25007 0.19953 0.0
O52 O 0.46479 0.26256 0.17395 0.0
C53 C 0.49015 0.29195 0.12717 0.0
C54 C 0.46566 0.25053 0.19056 0.0
O55 O 0.53561 0.2741 0.1796 0.0
Mg56 Mg 0.09858 0.8279 0.12048 0.0
O57 O 0.0941 0.78794 0.09311 0.0
O58 O 0.06053 0.7775 0.07282 0.0
Mg59 Mg 0.04131 0.80682 0.08639 0.0
C60 C 0.0789 0.77251 0.07703 0.0
C61 C 0.14137 0.82335 0.15143 0.0
O62 O 0.12473 0.81605 0.16334 0.0
O63 O 0.10009 0.85289 0.09039 0.0
O64 O 0.06435 0.83913 0.07584 0.0
O65 O 0.07956 0.81029 0.14901 0.0
O66 O 0.06321 0.82115 0.12035 0.0
C67 C 0.08326 0.85438 0.07713 0.0
C68 C 0.06148 0.81242 0.13903 0.0
O69 O 0.13719 0.83064 0.13225 0.0
Mg70 Mg 0.51559 0.7617 0.41831 0.0
O71 O 0.52101 0.80128 0.44597 0.0
O72 O 0.49133 0.79818 0.4658 0.0
Mg73 Mg 0.4691 0.75698 0.45254 0.0
C74 C 0.50956 0.81132 0.46132 0.0
C75 C 0.55667 0.77006 0.39021 0.0
O76 O 0.54009 0.76355 0.37301 0.0
O77 O 0.52374 0.74018 0.44635 0.0
O78 O 0.49375 0.73515 0.46547 0.0
O79 O 0.49789 0.7764 0.39179 0.0
O80 O 0.47991 0.75474 0.41539 0.0
C81 C 0.51254 0.73081 0.46164 0.0
C82 C 0.4792 0.76729 0.39904 0.0
O83 O 0.55245 0.77167 0.41198 0.0
Mg84 Mg 0.59618 0.32574 0.61904 0.0
O85 O 0.59173 0.28663 0.59109 0.0
O86 O 0.55866 0.27705 0.56996 0.0
Mg87 Mg 0.54037 0.30753 0.58336 0.0
C88 C 0.57673 0.27159 0.57464 0.0
C89 C 0.63748 0.32676 0.65402 0.0
O90 O 0.62133 0.32834 0.66748 0.0
O91 O 0.60012 0.35158 0.59009 0.0
O92 O 0.56474 0.33982 0.57394 0.0
O93 O 0.57616 0.3065 0.64559 0.0
O94 O 0.56121 0.32064 0.61814 0.0
C95 C 0.58421 0.35421 0.57632 0.0
C96 C 0.55874 0.31045 0.6359 0.0
O97 O 0.63368 0.32661 0.63162 0.0
Mg98 Mg 0.01287 0.25977 0.9178 0.0
O99 O 0.01885 0.29933 0.94588 0.0
O100 O 0.98889 0.29689 0.96526 0.0
Mg101 Mg 0.96554 0.25641 0.95122 0.0
C102 C 0.00757 0.30953 0.96133 0.0
C103 C 0.05482 0.257 0.89187 0.0
O104 O 0.03876 0.2402 0.87673 0.0
O105 O 0.01923 0.23719 0.94564 0.0
O106 O 0.98877 0.23308 0.96419 0.0
O107 O 0.99581 0.27408 0.89026 0.0
O108 O 0.97721 0.25383 0.91441 0.0
C109 C 0.00736 0.2281 0.96061 0.0
C110 C 0.97688 0.26539 0.89722 0.0
O111 O 0.05003 0.26907 0.9118 0.0
Mg112 Mg 0.42794 0.05825 0.31867 0.0
O113 O 0.39553 0.02815 0.30376 0.0
O114 O 0.385 0.0129 0.33536 0.0
Mg115 Mg 0.39729 0.0471 0.36693 0.0
C116 C 0.38455 0.01082 0.31262 0.0
C117 C 0.45113 0.05695 0.27684 0.0
O118 O 0.46499 0.05778 0.29526 0.0
O119 O 0.41242 0.08922 0.32633 0.0
O120 O 0.38446 0.06965 0.34312 0.0
O121 O 0.44121 0.02729 0.32026 0.0
O122 O 0.429 0.05026 0.35159 0.0
C123 C 0.39258 0.08525 0.33083 0.0
C124 C 0.4379 0.03203 0.34285 0.0
O125 O 0.43229 0.0603 0.2807 0.0
Mg126 Mg 0.29538 0.18796 0.49891 0.0
O127 O 0.29936 0.21483 0.53743 0.0
O128 O 0.33437 0.23758 0.54553 0.0
Mg129 Mg 0.3535 0.22513 0.51363 0.0
C130 C 0.31497 0.23166 0.55174 0.0
C131 C 0.2467 0.15578 0.4847 0.0
O132 O 0.25728 0.14357 0.46889 0.0
O133 O 0.2971 0.21946 0.47785 0.0
O134 O 0.33366 0.23607 0.48522 0.0
O135 O 0.30678 0.15898 0.51462 0.0
O136 O 0.32893 0.18848 0.5013 0.0
C137 C 0.31501 0.23386 0.47375 0.0
C138 C 0.32642 0.16934 0.5104 0.0
O139 O 0.25747 0.1766 0.49928 0.0
Mg140 Mg 0.16695 1.00149 0.76264 0.0
O141 O 0.19266 0.04309 0.76901 0.0
O142 O 0.21372 0.05113 0.80396 0.0
Mg143 Mg 0.20231 0.01703 0.82217 0.0
C144 C 0.20832 0.05799 0.78506 0.0
C145 C 0.13375 0.99974 0.71106 0.0
O146 O 0.11828 0.99131 0.72393 0.0
O147 O 0.19372 0.97291 0.7586 0.0
O148 O 0.21323 0.98434 0.7952 0.0
O149 O 0.13999 0.01396 0.78734 0.0
O150 O 0.16769 1.0053 0.80344 0.0
C151 C 0.20864 0.96971 0.7737 0.0
C152 C 0.14954 0.01166 0.80684 0.0
O153 O 0.15412 1.00393 0.72025 0.0
Mg154 Mg 0.33729 0.9663 0.02316 0.0
O155 O 0.34047 0.93762 0.98916 0.0
O156 O 0.37334 0.92938 0.9933 0.0
Mg157 Mg 0.39175 0.95446 0.02933 0.0
C158 C 0.35451 0.92554 0.98148 0.0
C159 C 0.29831 0.98045 0.02498 0.0
O160 O 0.31381 0.99537 0.04205 0.0
O161 O 0.33062 0.93449 0.04219 0.0
O162 O 0.36536 0.93128 0.04559 0.0
O163 O 0.35395 0.99867 0.00849 0.0
O164 O 0.37002 0.9794 0.03141 0.0
C165 C 0.34526 0.92465 0.04939 0.0
C166 C 0.37158 0.99616 0.01934 0.0
O167 O 0.30213 0.96123 0.01106 0.0
Mg168 Mg 0.31637 0.39663 0.04003 0.0
O169 O 0.31317 0.36679 0.00319 0.0
O170 O 0.34184 0.35037 0.00557 0.0
Mg171 Mg 0.36281 0.36884 0.04288 0.0
C172 C 0.32471 0.35203 0.99362 0.0
C173 C 0.27463 0.4155 0.04707 0.0
O174 O 0.28737 0.42722 0.06751 0.0
O175 O 0.30507 0.36797 0.06337 0.0
O176 O 0.33684 0.35758 0.06828 0.0
O177 O 0.33818 0.42595 0.0244 0.0
O178 O 0.35097 0.40304 0.04546 0.0
C179 C 0.31751 0.35776 0.07409 0.0
C180 C 0.3549 0.42009 0.03352 0.0
O181 O 0.28138 0.3998 0.03135 0.0
Mg182 Mg 0.77772 0.11309 0.01024 0.0
O183 O 0.7693 0.13455 0.04705 0.0
O184 O 0.8021 0.16334 0.0599 0.0
Mg185 Mg 0.82962 0.16104 0.03623 0.0
C186 C 0.78209 0.1536 0.06263 0.0
C187 C 0.72499 0.08147 0.99517 0.0
O188 O 0.71099 0.06336 0.97879 0.0
O189 O 0.77572 0.14608 0.99464 0.0
O190 O 0.81 0.17118 0.00711 0.0
O191 O 0.79004 0.08541 0.02577 0.0
O192 O 0.80969 0.12303 0.0243 0.0
C193 C 0.79124 0.16551 0.99459 0.0
C194 C 0.80892 0.10198 0.02957 0.0
O195 O 0.74491 0.08769 0.99138 0.0
Mg196 Mg 0.18574 0.52749 0.22674 0.0
O197 O 0.20893 0.56688 0.23919 0.0
O198 O 0.22257 0.57429 0.27803 0.0
Mg199 Mg 0.21088 0.53707 0.28828 0.0
C200 C 0.2209 0.58112 0.25836 0.0
C201 C 0.16849 0.5113 0.17837 0.0
O202 O 0.16348 0.49217 0.18846 0.0
O203 O 0.2144 0.51302 0.21896 0.0
O204 O 0.22898 0.52098 0.25745 0.0
O205 O 0.15789 0.54014 0.24227 0.0
O206 O 0.18226 0.52625 0.26155 0.0
C207 C 0.22963 0.51374 0.23462 0.0
C208 C 0.16551 0.5355 0.26177 0.0
O209 O 0.18262 0.53127 0.18978 0.0
Mg210 Mg 0.81638 0.89602 0.54038 0.0
O211 O 0.81081 0.86958 0.50166 0.0
O212 O 0.83627 0.84782 0.49965 0.0
Mg213 Mg 0.8609 0.86443 0.5346 0.0
C214 C 0.81952 0.85273 0.49005 0.0
C215 C 0.77649 0.91919 0.54924 0.0
O216 O 0.79023 0.93289 0.56838 0.0
O217 O 0.80523 0.86381 0.5597 0.0
O218 O 0.83671 0.85204 0.56104 0.0
O219 O 0.83773 0.92797 0.52819 0.0
O220 O 0.85061 0.90006 0.54208 0.0
C221 C 0.8178 0.85216 0.56818 0.0
C222 C 0.85447 0.91986 0.53366 0.0
O223 O 0.78198 0.90157 0.53456 0.0
Mg224 Mg 0.94874 0.08229 0.27739 0.0
O225 O 0.92218 0.04043 0.2698 0.0
O226 O 0.9023 0.04349 0.30117 0.0
Mg227 Mg 0.91612 0.08267 0.32936 0.0
C228 C 0.90667 0.03037 0.28136 0.0
C229 C 0.97751 0.0727 0.22768 0.0
O230 O 0.99118 0.06897 0.24384 0.0
O231 O 0.92243 0.10945 0.27337 0.0
O232 O 0.9057 0.10982 0.30673 0.0
O233 O 0.97458 0.06854 0.29938 0.0
O234 O 0.94967 0.08385 0.31723 0.0
C235 C 0.90895 0.11798 0.28763 0.0
C236 C 0.96612 0.07406 0.31938 0.0
O237 O 0.9594 0.07767 0.23478 0.0
Mg238 Mg 0.27923 0.60839 0.51251 0.0
O239 O 0.26837 0.63166 0.54727 0.0
O240 O 0.2993 0.66353 0.56063 0.0
Mg241 Mg 0.32738 0.66157 0.5377 0.0
C242 C 0.27945 0.65227 0.56243 0.0
C243 C 0.22717 0.57686 0.49408 0.0
O244 O 0.21362 0.55929 0.47684 0.0
O245 O 0.27552 0.63777 0.49368 0.0
O246 O 0.30596 0.6694 0.50798 0.0
O247 O 0.29169 0.58434 0.53219 0.0
O248 O 0.31069 0.62153 0.52834 0.0
C249 C 0.28778 0.65951 0.49419 0.0
C250 C 0.31027 0.60154 0.53582 0.0
O251 O 0.24754 0.58191 0.49219 0.0
Mg252 Mg 0.4489 0.58091 0.77951 0.0
O253 O 0.42222 0.53994 0.7729 0.0
O254 O 0.40259 0.54259 0.80442 0.0
Mg255 Mg 0.41615 0.58281 0.83094 0.0
C256 C 0.40703 0.52971 0.7846 0.0
C257 C 0.47585 0.58529 0.72827 0.0
O258 O 0.48763 0.60654 0.74304 0.0
O259 O 0.42284 0.60816 0.77418 0.0
O260 O 0.40486 0.60809 0.80674 0.0
O261 O 0.47224 0.56452 0.80154 0.0
O262 O 0.45066 0.58539 0.82014 0.0
C263 C 0.40853 0.61609 0.78763 0.0
C264 C 0.46518 0.57273 0.8219 0.0
O265 O 0.45954 0.57184 0.73663 0.0
Mg266 Mg 0.6906 0.02925 0.73009 0.0
O267 O 0.71627 0.06522 0.73982 0.0
O268 O 0.73372 0.07221 0.77672 0.0
Mg269 Mg 0.72297 0.03405 0.78581 0.0
C270 C 0.73003 0.0791 0.7575 0.0
C271 C 0.66411 0.02942 0.69163 0.0
O272 O 0.65315 0.01799 0.70666 0.0
O273 O 0.71435 0.00875 0.71504 0.0
O274 O 0.73407 0.01466 0.75059 0.0
O275 O 0.6694 0.04797 0.75214 0.0
O276 O 0.69073 0.02586 0.76503 0.0
C277 C 0.73076 0.00676 0.72749 0.0
C278 C 0.67709 0.03967 0.76923 0.0
O279 O 0.68469 0.03827 0.6959 0.0
Mg280 Mg 0.79773 0.6889 0.997 0.0
O281 O 0.80052 0.71311 0.03685 0.0
O282 O 0.83521 0.73709 0.04575 0.0
Mg283 Mg 0.85572 0.72737 0.01471 0.0
C284 C 0.81579 0.73011 0.0516 0.0
C285 C 0.75085 0.65482 0.99847 0.0
O286 O 0.76425 0.64169 0.00383 0.0
O287 O 0.80004 0.7231 0.98016 0.0
O288 O 0.83647 0.74101 0.98796 0.0
O289 O 0.80921 0.65779 0.00869 0.0
O290 O 0.83169 0.69054 1.00058 0.0
C291 C 0.81752 0.7391 0.97741 0.0
C292 C 0.82912 0.66955 0.00667 0.0
O293 O 0.75913 0.67638 0.99432 0.0
Mg294 Mg 0.93831 0.56604 0.80296 0.0
O295 O 0.91536 0.52561 0.79407 0.0
O296 O 0.90489 0.52116 0.8303 0.0
Mg297 Mg 0.91816 0.55716 0.86001 0.0
C298 C 0.905 0.51252 0.80755 0.0
C299 C 0.93324 0.55904 0.74414 0.0
O300 O 0.92824 0.56856 0.72626 0.0
O301 O 0.91008 0.57944 0.80876 0.0
O302 O 0.89432 0.5752 0.84184 0.0
O303 O 0.96678 0.55097 0.80914 0.0
O304 O 0.94425 0.56283 0.83583 0.0
C305 C 0.89499 0.58187 0.82196 0.0
C306 C 0.95991 0.55238 0.83034 0.0
O307 O 0.93364 0.57168 0.76557 0.0
Mg308 Mg 0.83402 0.46287 0.5246 0.0
O309 O 0.8413 0.43734 0.4907 0.0
O310 O 0.87404 0.42989 0.49789 0.0
Mg311 Mg 0.88772 0.45104 0.53669 0.0
C312 C 0.85658 0.42689 0.48394 0.0
C313 C 0.79752 0.47951 0.51483 0.0
O314 O 0.8133 0.4969 0.52985 0.0
O315 O 0.8251 0.42981 0.54135 0.0
O316 O 0.85928 0.42573 0.54903 0.0
O317 O 0.85277 0.49691 0.51381 0.0
O318 O 0.86618 0.47638 0.53744 0.0
C319 C 0.83849 0.41914 0.54967 0.0
C320 C 0.86931 0.49421 0.52648 0.0
O321 O 0.79985 0.45726 0.50782 0.0
Mg322 Mg 0.66612 0.5026 0.26292 0.0
O323 O 0.69144 0.54433 0.2694 0.0
O324 O 0.71416 0.55211 0.30301 0.0
Mg325 Mg 0.70227 0.51792 0.3213 0.0
C326 C 0.70783 0.55902 0.28453 0.0
C327 C 0.63528 0.49589 0.20664 0.0
O328 O 0.62217 0.47578 0.21111 0.0
O329 O 0.693 0.47417 0.25792 0.0
O330 O 0.71285 0.48516 0.29432 0.0
O331 O 0.64005 0.51568 0.28826 0.0
O332 O 0.66698 0.50481 0.30345 0.0
C333 C 0.708 0.47072 0.27277 0.0
C334 C 0.64918 0.5119 0.30727 0.0
O335 O 0.65295 0.50757 0.22176 0.0
Gd336 Gd 0.08518 0.06096 0.02889 0.0
Gd337 Gd 0.03148 0.02809 0.99977 0.0
C338 C 0.00431 0.94533 0.00275 0.0
C339 C 0.99212 0.92414 0.96039 0.0
C340 C 0.01072 0.96927 0.97237 0.0
C341 C 0.01256 0.96841 0.9963 0.0
C342 C 1.00022 0.94717 0.95413 0.0
C343 C 0.99421 0.92321 0.98467 0.0
C344 C 0.0061 0.94521 0.02721 0.0
C345 C 0.01599 0.96766 0.04456 0.0
N346 N 0.02195 0.99026 0.01335 0.0
C347 C 0.0237 0.99005 0.03733 0.0
H348 H 0.03165 0.00685 0.05119 0.0
C349 C 0.01499 0.99396 0.94376 0.0
N350 N 0.01835 0.99191 0.96701 0.0
C351 C 0.00494 0.97256 0.92501 0.0
C352 C 0.9976 0.94902 0.93019 0.0
H353 H 0.01987 0.0123 0.93974 0.0
H354 H 0.98772 0.90538 0.9893 0.0
H355 H 0.107 0.07699 0.97626 0.0
H356 H 0.99984 0.92794 0.03289 0.0
H357 H 0.01766 0.96779 0.06356 0.0
H358 H 0.98396 0.90701 0.94664 0.0
H359 H 0.09002 0.0835 0.08935 0.0
H360 H 0.13008 0.15624 0.99166 0.0
H361 H 0.12325 0.11399 0.96376 0.0
H362 H 0.12254 0.18533 0.07469 0.0
H363 H 0.00249 0.97433 0.90664 0.0
H364 H 0.98951 0.93253 0.9157 0.0
H365 H 0.12921 0.18244 0.03247 0.0
H366 H 0.1002 0.12391 0.11966 0.0
N367 N 0.10069 0.09599 0.0118 0.0
C368 C 0.12186 0.13963 0.99748 0.0
C369 C 0.11805 0.11586 0.98173 0.0
C370 C 0.11576 0.14168 0.02081 0.0
C371 C 0.10507 0.11941 0.02769 0.0
C372 C 0.10792 0.09434 0.98922 0.0
N373 N 0.09252 0.09976 0.05878 0.0
C374 C 0.10087 0.12128 0.05166 0.0
C375 C 0.09993 0.12361 0.10062 0.0
C376 C 0.1066 0.14604 0.0935 0.0
C377 C 0.09362 0.10063 0.08308 0.0
C378 C 0.10781 0.14508 0.06896 0.0
H379 H 0.11202 0.16386 0.10721 0.0
O380 O 0.09998 0.0502 0.05892 0.0
O381 O 0.05971 0.0242 0.02254 0.0
O382 O 0.0253 0.04315 0.03892 0.0
O383 O 0.06057 0.06261 0.05828 0.0
O384 O 0.09071 0.02231 0.0139 0.0
O385 O 0.1204 0.07301 0.03812 0.0
O386 O 0.00791 0.0403 0.97955 0.0
O387 O 0.05369 0.06732 0.01592 0.0
O388 O 0.08895 0.04481 0.98854 0.0
O389 O 0.05416 0.02032 0.96974 0.0
O390 O 0.04163 0.059 0.9802 0.0
O391 O 0.99897 0.02736 0.01147 0.0
C392 C 0.07132 0.00875 0.01536 0.0
C393 C 0.11725 0.16704 0.06165 0.0
C394 C 0.12112 0.16536 0.03763 0.0
C395 C 0.11968 0.06287 0.05653 0.0
C396 C 0.13867 0.05439 0.0633 0.0
C397 C 0.14631 0.06012 0.08799 0.0
C398 C 0.15083 0.04388 0.0458 0.0
C399 C 0.17087 0.03975 0.05317 0.0
C400 C 0.16625 0.05578 0.09526 0.0
C401 C 0.17861 0.04575 0.0779 0.0
C402 C 0.03881 0.05545 0.05895 0.0
C403 C 0.05199 0.07727 0.99829 0.0
C404 C 0.99301 0.03654 0.99404 0.0
C405 C 0.97012 0.02804 0.9834 0.0
C406 C 0.9624 0.00787 0.96271 0.0
C407 C 0.95603 0.04214 0.9937 0.0
C408 C 0.93419 0.03617 0.98366 0.0
C409 C 0.94046 1.00197 0.95248 0.0
C410 C 0.92629 0.01603 0.963 0.0
C411 C 0.07556 0.03017 0.96882 0.0
H412 H 0.13716 0.06869 0.10161 0.0
H413 H 0.1451 0.03963 0.02667 0.0
H414 H 0.17227 0.06057 0.11432 0.0
H415 H 0.19421 0.04267 0.08369 0.0
H416 H 0.97322 0.99691 0.95444 0.0
H417 H 0.96204 0.05782 0.00967 0.0
H418 H 0.93445 0.98651 0.93646 0.0
H419 H 0.90927 0.01126 0.95512 0.0
Gd420 Gd 0.29902 0.80515 0.29813 0.0
Gd421 Gd 0.32561 0.78262 0.24463 0.0
C422 C 0.29883 0.7026 0.19426 0.0
C423 C 0.33019 0.68484 0.19654 0.0
C424 C 0.33203 0.72735 0.22078 0.0
C425 C 0.31075 0.72518 0.21123 0.0
C426 C 0.34214 0.70737 0.21304 0.0
C427 C 0.30856 0.68243 0.18724 0.0
C428 C 0.27763 0.70104 0.18433 0.0
C429 C 0.26879 0.7217 0.19109 0.0
N430 N 0.30195 0.74531 0.21784 0.0
C431 C 0.28115 0.74368 0.20778 0.0
H432 H 0.27304 0.75846 0.21308 0.0
C433 C 0.36551 0.75363 0.243 0.0
N434 N 0.34338 0.74948 0.23639 0.0
C435 C 0.3761 0.73435 0.23613 0.0
C436 C 0.36429 0.71097 0.22131 0.0
H437 H 0.37506 0.77194 0.2539 0.0
H438 H 0.29965 0.66506 0.17423 0.0
H439 H 0.35449 0.83553 0.31803 0.0
H440 H 0.26799 0.68404 0.17133 0.0
H441 H 0.25229 0.72065 0.18367 0.0
H442 H 0.3377 0.66936 0.19045 0.0
H443 H 0.24938 0.81518 0.29176 0.0
H444 H 0.35708 0.9004 0.375 0.0
H445 H 0.37564 0.87125 0.35002 0.0
H446 H 0.28272 0.90733 0.37179 0.0
H447 H 0.39346 0.73767 0.24199 0.0
H448 H 0.37262 0.69615 0.21568 0.0
H449 H 0.32234 0.91359 0.38311 0.0
H450 H 0.22903 0.8455 0.31107 0.0
N451 N 0.32297 0.84238 0.32492 0.0
C452 C 0.3474 0.88432 0.361 0.0
C453 C 0.35791 0.86792 0.34696 0.0
C454 C 0.32465 0.88036 0.35614 0.0
C455 C 0.31279 0.85912 0.33767 0.0
C456 C 0.34551 0.84721 0.32884 0.0
N457 N 0.28016 0.83615 0.3123 0.0
C458 C 0.29071 0.85603 0.33092 0.0
C459 C 0.24644 0.84888 0.31668 0.0
C460 C 0.2572 0.8697 0.33557 0.0
C461 C 0.25814 0.83201 0.30547 0.0
C462 C 0.27958 0.87345 0.343 0.0
H463 H 0.24806 0.88261 0.34442 0.0
O464 O 0.26961 0.78666 0.31144 0.0
O465 O 0.3047 0.77281 0.27163 0.0
O466 O 0.29543 0.79634 0.23282 0.0
O467 O 0.28166 0.81605 0.26744 0.0
O468 O 0.27206 0.77196 0.27613 0.0
O469 O 0.30192 0.78943 0.32915 0.0
O470 O 0.35682 0.79893 0.23284 0.0
O471 O 0.3186 0.81546 0.26941 0.0
O472 O 0.33058 0.79566 0.3105 0.0
O473 O 0.34191 0.77228 0.27635 0.0
O474 O 0.35097 0.81835 0.26384 0.0
O475 O 0.32547 0.78925 0.20891 0.0
C476 C 0.28528 0.75965 0.26576 0.0
C477 C 0.29104 0.89391 0.36214 0.0
C478 C 0.31356 0.89739 0.36867 0.0
C479 C 0.2806 0.78195 0.32899 0.0
C480 C 0.27189 0.78546 0.3523 0.0
C481 C 0.26362 0.80626 0.36208 0.0
C482 C 0.27114 0.76653 0.36447 0.0
C483 C 0.26256 0.76825 0.3867 0.0
C484 C 0.25474 0.80796 0.38413 0.0
C485 C 0.2542 0.78905 0.39647 0.0
C486 C 0.28105 0.80842 0.24341 0.0
C487 C 0.33727 0.83077 0.27276 0.0
C488 C 0.34695 0.79805 0.21194 0.0
C489 C 0.35896 0.80686 0.19329 0.0
C490 C 0.38129 0.80727 0.19207 0.0
C491 C 0.3479 0.8157 0.17682 0.0
C492 C 0.3588 0.82461 0.15888 0.0
C493 C 0.39228 0.81625 0.17391 0.0
C494 C 0.38102 0.82488 0.15719 0.0
C495 C 0.34374 0.78201 0.30015 0.0
H496 H 0.26384 0.82095 0.35272 0.0
H497 H 0.27716 0.75026 0.35647 0.0
H498 H 0.24835 0.824 0.39172 0.0
H499 H 0.24767 0.79092 0.41378 0.0
H500 H 0.39012 0.80062 0.20498 0.0
H501 H 0.33077 0.81593 0.17804 0.0
H502 H 0.40948 0.81659 0.17286 0.0
H503 H 0.3896 0.83205 0.14327 0.0
Gd504 Gd 0.52773 0.04064 0.52654 0.0
Gd505 Gd 0.58443 0.04905 0.50778 0.0
C506 C 0.63111 0.12818 0.52024 0.0
C507 C 0.63566 0.13146 0.47904 0.0
C508 C 0.61268 0.09288 0.48638 0.0
C509 C 0.61723 0.10341 0.51117 0.0
C510 C 0.62228 0.1066 0.47009 0.0
C511 C 0.64001 0.14224 0.50405 0.0
C512 C 0.63581 0.13804 0.54533 0.0
C513 C 0.62723 0.12309 0.56072 0.0
N514 N 0.60831 0.08939 0.52641 0.0
C515 C 0.61368 0.09863 0.55096 0.0
H516 H 0.60748 0.08756 0.56339 0.0
C517 C 0.59673 0.05675 0.45412 0.0
N518 N 0.59943 0.06895 0.47819 0.0
C519 C 0.60592 0.06959 0.43729 0.0
C520 C 0.61849 0.09474 0.44528 0.0
H521 H 0.58701 0.03725 0.448 0.0
H522 H 0.65053 0.16135 0.51071 0.0
H523 H 0.5028 1.00017 0.47329 0.0
H524 H 0.64632 0.15699 0.55297 0.0
H525 H 0.63106 0.13038 0.58016 0.0
H526 H 0.64298 0.14238 0.46678 0.0
H527 H 0.52731 0.05619 0.58679 0.0
H528 H 0.46405 0.93293 0.48818 0.0
H529 H 0.47819 0.95735 0.45885 0.0
H530 H 0.47241 0.95154 0.57481 0.0
H531 H 0.60333 0.06008 0.4182 0.0
H532 H 0.6256 0.10465 0.4322 0.0
H533 H 0.46282 0.93044 0.5314 0.0
H534 H 0.51289 0.03554 0.61869 0.0
N535 N 0.50382 0.99995 0.51062 0.0
C536 C 0.47533 0.95159 0.49466 0.0
C537 C 0.48314 0.96539 0.47806 0.0
C538 C 0.48159 0.96236 0.51947 0.0
C539 C 0.49582 0.98705 0.52702 0.0
C540 C 0.49726 0.98974 0.4864 0.0
N541 N 0.51399 0.02321 0.55809 0.0
C542 C 0.50106 0.99901 0.55147 0.0
C543 C 0.50954 0.02502 0.59986 0.0
C544 C 0.49709 0.99975 0.59346 0.0
C545 C 0.51766 0.03666 0.58182 0.0
C546 C 0.49242 0.98653 0.56901 0.0
H547 H 0.49078 0.9908 0.60748 0.0
O548 O 0.51451 0.07305 0.53859 0.0
O549 O 0.55873 0.06788 0.52251 0.0
O550 O 0.58142 0.04945 0.54666 0.0
O551 O 0.54668 0.02536 0.55069 0.0
O552 O 0.54496 0.07696 0.55428 0.0
O553 O 0.49596 0.04169 0.50971 0.0
O554 O 0.59785 0.01778 0.49253 0.0
O555 O 0.55309 0.02204 0.51121 0.0
O556 O 0.53035 0.03912 0.48728 0.0
O557 O 0.56532 0.0624 0.48244 0.0
O558 O 0.56812 0.01057 0.48143 0.0
O559 O 0.61606 0.04657 0.52394 0.0
C560 C 0.56039 0.08515 0.54174 0.0
C561 C 0.47903 0.96153 0.56159 0.0
C562 C 0.47358 0.94951 0.53687 0.0
C563 C 0.49635 0.06359 0.52399 0.0
C564 C 0.47628 0.06642 0.53515 0.0
C565 C 0.47178 0.05827 0.55625 0.0
C566 C 0.46269 0.07965 0.52617 0.0
C567 C 0.44475 0.08459 0.53831 0.0
C568 C 0.45415 0.06347 0.56844 0.0
C569 C 0.44067 0.07655 0.55953 0.0
C570 C 0.56812 0.03359 0.55651 0.0
C571 C 0.55179 1.00348 0.4933 0.0
C572 C 0.61567 0.02578 0.50772 0.0
C573 C 0.63593 0.02285 0.49701 0.0
C574 C 0.64033 0.02898 0.47493 0.0
C575 C 0.64886 0.00952 0.50674 0.0
C576 C 0.66534 1.00132 0.49403 0.0
C577 C 0.65688 0.02105 0.46237 0.0
C578 C 0.66916 0.00696 0.47169 0.0
C579 C 0.54451 0.05121 0.47492 0.0
H580 H 0.48212 0.04833 0.56358 0.0
H581 H 0.46613 0.08624 0.51 0.0
H582 H 0.45101 0.05746 0.58492 0.0
H583 H 0.42704 0.08049 0.56922 0.0
H584 H 0.63047 0.03899 0.46696 0.0
H585 H 0.6454 1.0044 0.52357 0.0
H586 H 0.6599 0.02539 0.44513 0.0
H587 H 0.68176 1.00063 0.46161 0.0
Gd588 Gd 0.33639 0.28417 0.77318 0.0
Gd589 Gd 0.28218 0.29734 0.76926 0.0
C590 C 0.24609 0.2781 0.69255 0.0
C591 C 0.24266 0.31932 0.68896 0.0
C592 C 0.26028 0.31498 0.72621 0.0
C593 C 0.25685 0.2893 0.71632 0.0
C594 C 0.25261 0.33016 0.71291 0.0
C595 C 0.23946 0.29333 0.67878 0.0
C596 C 0.24196 0.25186 0.68347 0.0
C597 C 0.24786 0.23736 0.69822 0.0
N598 N 0.26341 0.27513 0.73018 0.0
C599 C 0.25829 0.24924 0.72169 0.0
H600 H 0.2628 0.23739 0.73236 0.0
C601 C 0.27011 0.34913 0.7612 0.0
N602 N 0.26982 0.32484 0.7494 0.0
C603 C 0.26293 0.365 0.74875 0.0
C604 C 0.25446 0.35559 0.72435 0.0
H605 H 0.27651 0.35643 0.78016 0.0
H606 H 0.2314 0.28509 0.66044 0.0
H607 H 0.35723 0.34523 0.80805 0.0
H608 H 0.23384 0.24258 0.66529 0.0
H609 H 0.24446 0.21697 0.69152 0.0
H610 H 0.23689 0.33073 0.67838 0.0
H611 H 0.34216 0.22538 0.76403 0.0
H612 H 0.38627 0.3422 0.87582 0.0
H613 H 0.37628 0.36679 0.84824 0.0
H614 H 0.38198 0.25416 0.86598 0.0
H615 H 0.26383 0.38442 0.758 0.0
H616 H 0.24875 0.36786 0.71477 0.0
H617 H 0.38791 0.30008 0.88244 0.0
H618 H 0.35504 0.19834 0.78728 0.0
N619 N 0.3556 0.30769 0.81176 0.0
C620 C 0.37775 0.33234 0.85793 0.0
C621 C 0.37228 0.34628 0.84238 0.0
C622 C 0.37287 0.30593 0.84991 0.0
C623 C 0.36179 0.29401 0.82639 0.0
C624 C 0.36137 0.33369 0.81925 0.0
N625 N 0.34899 0.25769 0.79404 0.0
C626 C 0.35837 0.2682 0.81721 0.0
C627 C 0.3559 0.21789 0.796 0.0
C628 C 0.36435 0.22801 0.82034 0.0
C629 C 0.34861 0.2332 0.78293 0.0
C630 C 0.3661 0.25358 0.83112 0.0
H631 H 0.37014 0.21617 0.8304 0.0
O632 O 0.35307 0.26706 0.74401 0.0
O633 O 0.30946 0.28802 0.7482 0.0
O634 O 0.27777 0.25611 0.77213 0.0
O635 O 0.31215 0.24878 0.77991 0.0
O636 O 0.31983 0.25482 0.7398 0.0
O637 O 0.36924 0.30403 0.76652 0.0
O638 O 0.2643 0.31368 0.79762 0.0
O639 O 0.30907 0.29325 0.79379 0.0
O640 O 0.34069 0.32519 0.76947 0.0
O641 O 0.30624 0.3335 0.76485 0.0
O642 O 0.29792 0.32557 0.80418 0.0
O643 O 0.24974 0.27614 0.77519 0.0
C644 C 0.30795 0.26775 0.73188 0.0
C645 C 0.37613 0.26512 0.85494 0.0
C646 C 0.37951 0.29126 0.86431 0.0
C647 C 0.37055 0.28598 0.7481 0.0
C648 C 0.39193 0.27937 0.74552 0.0
C649 C 0.39745 0.2624 0.75786 0.0
C650 C 0.40631 0.28856 0.72938 0.0
C651 C 0.426 0.2808 0.72598 0.0
C652 C 0.41654 0.25426 0.75405 0.0
C653 C 0.4307 0.26338 0.7383 0.0
C654 C 0.29012 0.2411 0.77675 0.0
C655 C 0.31064 0.31284 0.81084 0.0
C656 C 0.24725 0.29421 0.7929 0.0
C657 C 0.22548 0.29989 0.79321 0.0
C658 C 0.21845 0.31136 0.77596 0.0
C659 C 0.21207 0.29504 0.8116 0.0
C660 C 0.19189 0.30202 0.81288 0.0
C661 C 0.19863 0.31831 0.77712 0.0
C662 C 0.18548 0.31373 0.79534 0.0
C663 C 0.32814 0.34058 0.7666 0.0
H664 H 0.38692 0.2552 0.7703 0.0
H665 H 0.40229 0.3017 0.7197 0.0
H666 H 0.42042 0.24086 0.76341 0.0
H667 H 0.44551 0.25687 0.73578 0.0
H668 H 0.22829 0.31504 0.76163 0.0
H669 H 0.21753 0.2863 0.82506 0.0
H670 H 0.19338 0.32724 0.76375 0.0
H671 H 0.16999 0.31896 0.79538 0.0
Gd672 Gd 0.05479 0.00822 0.50243 0.0
Gd673 Gd 0.04799 0.06775 0.52863 0.0
C674 C 0.07553 0.10517 0.60765 0.0
C675 C 0.04319 0.1142 0.62538 0.0
C676 C 0.04019 0.09207 0.58283 0.0
C677 C 0.06251 0.09341 0.58513 0.0
C678 C 0.03036 0.1028 0.60287 0.0
C679 C 0.06571 0.11535 0.62777 0.0
C680 C 0.09809 0.10655 0.60925 0.0
C681 C 0.10724 0.09679 0.58863 0.0
N682 N 0.0716 0.08364 0.5653 0.0
C683 C 0.09376 0.08567 0.56665 0.0
H684 H 0.10118 0.07858 0.55091 0.0
C685 C 0.00679 0.08205 0.55717 0.0
N686 N 0.02828 0.08125 0.56078 0.0
C687 C 0.99626 0.09214 0.57655 0.0
C688 C 0.00805 0.10242 0.59955 0.0
H689 H 0.99775 0.07467 0.53925 0.0
H690 H 0.07545 0.12441 0.64519 0.0
H691 H 0.99996 0.99286 0.47706 0.0
H692 H 0.10861 0.11531 0.62624 0.0
H693 H 0.12472 0.09799 0.5896 0.0
H694 H 0.03592 0.12252 0.64096 0.0
H695 H 0.10775 0.00885 0.4899 0.0
H696 H 0.99578 0.95471 0.40337 0.0
H697 H 0.97811 0.97088 0.43895 0.0
H698 H 0.07009 0.95734 0.38948 0.0
H699 H 0.97915 0.09231 0.57366 0.0
H700 H 0.99994 0.11052 0.61448 0.0
H701 H 0.02988 0.94967 0.38531 0.0
H702 H 0.12688 0.99567 0.45542 0.0
N703 N 0.03116 0.99011 0.46505 0.0
C704 C 0.00582 0.96447 0.42049 0.0
C705 C 0.99581 0.97353 0.44049 0.0
C706 C 0.02867 0.96839 0.42271 0.0
C707 C 0.04117 0.98154 0.44542 0.0
C708 C 0.00864 0.98607 0.46257 0.0
N709 N 0.07578 0.99905 0.46949 0.0
C710 C 0.06399 0.98643 0.44761 0.0
C711 C 0.10925 0.99336 0.4528 0.0
C712 C 0.09748 0.98149 0.43016 0.0
C713 C 0.09815 1.0015 0.47234 0.0
C714 C 0.07461 0.97751 0.42738 0.0
H715 H 0.10611 0.97481 0.4151 0.0
O716 O 0.07838 0.98836 0.51188 0.0
O717 O 0.06552 0.03938 0.53712 0.0
O718 O 0.07766 0.0743 0.50857 0.0
O719 O 0.08788 0.03734 0.50627 0.0
O720 O 0.05014 1.00419 0.54057 0.0
O721 O 0.04357 0.96773 0.49929 0.0
O722 O 0.03263 0.09351 0.51593 0.0
O723 O 0.04614 0.04152 0.49117 0.0
O724 O 0.02015 1.00269 0.51299 0.0
O725 O 0.02032 0.04051 0.54017 0.0
O726 O 0.01847 0.05341 0.50019 0.0
O727 O 0.06714 0.10651 0.53133 0.0
C728 C 0.06077 0.0265 0.55302 0.0
C729 C 0.06216 0.9643 0.40506 0.0
C730 C 0.03927 0.9598 0.40272 0.0
C731 C 0.06327 0.96693 0.50692 0.0
C732 C 0.06798 0.94345 0.50956 0.0
C733 C 0.08625 0.93636 0.49998 0.0
C734 C 0.0553 0.92911 0.52339 0.0
C735 C 0.0611 0.90791 0.52792 0.0
C736 C 0.09174 0.91488 0.50412 0.0
C737 C 0.07928 0.90074 0.51817 0.0
C738 C 0.09217 0.061 0.50449 0.0
C739 C 0.0273 0.0428 0.48209 0.0
C740 C 0.0505 0.11192 0.52115 0.0
C741 C 0.04819 0.13772 0.52727 0.0
C742 C 0.03085 0.14439 0.53939 0.0
C743 C 0.06142 0.15459 0.51626 0.0
C744 C 0.05646 0.17733 0.51522 0.0
C745 C 0.02663 0.16783 0.53984 0.0
C746 C 0.0391 0.1841 0.52747 0.0
C747 C 0.01077 0.01672 0.52887 0.0
H748 H 0.09628 0.94749 0.48944 0.0
H749 H 0.0414 0.93485 0.53123 0.0
H750 H 0.1058 0.90936 0.49665 0.0
H751 H 0.08381 0.88426 0.52149 0.0
H752 H 0.02021 0.13126 0.54766 0.0
H753 H 0.07478 0.14908 0.50701 0.0
H754 H 0.01305 0.17289 0.54885 0.0
H755 H 0.0346 0.20138 0.52673 0.0
Gd756 Gd 0.28115 0.76967 0.77679 0.0
Gd757 Gd 0.33 0.80634 0.76277 0.0
C758 C 0.33365 0.88758 0.75762 0.0
C759 C 0.34433 0.8865 0.71726 0.0
C760 C 0.33855 0.84855 0.73245 0.0
C761 C 0.33334 0.8617 0.75406 0.0
C762 C 0.34462 0.86101 0.71404 0.0
C763 C 0.33876 0.89972 0.73896 0.0
C764 C 0.32951 0.9008 0.78008 0.0
C765 C 0.32598 0.88851 0.79863 0.0
N766 N 0.32912 0.84965 0.77203 0.0
C767 C 0.32618 0.86305 0.79444 0.0
H768 H 0.3231 0.85435 0.80924 0.0
C769 C 0.34695 0.8115 0.71029 0.0
N770 N 0.33903 0.82406 0.72996 0.0
C771 C 0.35294 0.82295 0.69148 0.0
C772 C 0.35156 0.84774 0.69325 0.0
H773 H 0.34835 0.79241 0.70905 0.0
H774 H 0.33903 0.91953 0.7414 0.0
H775 H 0.2882 0.71965 0.73326 0.0
H776 H 0.3295 0.92061 0.78346 0.0
H777 H 0.32306 0.89863 0.81623 0.0
H778 H 0.34885 0.89632 0.70328 0.0
H779 H 0.26017 0.78633 0.82845 0.0
H780 H 0.28189 0.65633 0.76378 0.0
H781 H 0.2883 0.67558 0.72917 0.0
H782 H 0.26092 0.68538 0.84238 0.0
H783 H 0.35878 0.81272 0.67575 0.0
H784 H 0.35643 0.85668 0.67877 0.0
H785 H 0.27192 0.66026 0.80605 0.0
H786 H 0.24847 0.76836 0.86282 0.0
N787 N 0.28227 0.72674 0.77054 0.0
C788 C 0.28188 0.67602 0.76586 0.0
C789 C 0.28539 0.68676 0.74627 0.0
C790 C 0.27754 0.69052 0.78759 0.0
C791 C 0.27777 0.71613 0.78941 0.0
C792 C 0.28524 0.71207 0.7488 0.0
N793 N 0.27082 0.75435 0.81053 0.0
C794 C 0.27178 0.73033 0.80998 0.0
C795 C 0.25514 0.75753 0.84817 0.0
C796 C 0.25713 0.73337 0.84854 0.0
C797 C 0.26176 0.76763 0.82872 0.0
C798 C 0.26515 0.71925 0.82911 0.0
H799 H 0.25181 0.72548 0.86353 0.0
O800 O 0.24914 0.77703 0.78018 0.0
O801 O 0.29387 0.8058 0.76432 0.0
O802 O 0.32862 0.81462 0.80314 0.0
O803 O 0.30156 0.78353 0.81277 0.0
O804 O 0.27628 0.80861 0.79371 0.0
O805 O 0.25272 0.74499 0.75235 0.0
O806 O 0.36181 0.79968 0.756 0.0
O807 O 0.31734 0.77076 0.77553 0.0
O808 O 0.2828 0.75947 0.73687 0.0
O809 O 0.30923 0.79046 0.72645 0.0
O810 O 0.33508 0.76716 0.74648 0.0
O811 O 0.35917 0.82867 0.78754 0.0
C812 C 0.28491 0.82103 0.77863 0.0
C813 C 0.26583 0.69415 0.8278 0.0
C814 C 0.27208 0.67984 0.80711 0.0
C815 C 0.23939 0.75773 0.76237 0.0
C816 C 0.21756 0.74359 0.76541 0.0
C817 C 0.21358 0.73146 0.78425 0.0
C818 C 0.20001 0.7447 0.75016 0.0
C819 C 0.17841 0.73473 0.75415 0.0
C820 C 0.19188 0.72111 0.78808 0.0
C821 C 0.17426 0.72303 0.77325 0.0
C822 C 0.31842 0.80369 0.81903 0.0
C823 C 0.32636 0.75522 0.76185 0.0
C824 C 0.3721 0.81702 0.77513 0.0
C825 C 0.39411 0.8318 0.77312 0.0
C826 C 0.3992 0.84145 0.75294 0.0
C827 C 0.41088 0.83377 0.79103 0.0
C828 C 0.43285 0.84474 0.78872 0.0
C829 C 0.42111 0.85284 0.75074 0.0
C830 C 0.43793 0.85443 0.76852 0.0
C831 C 0.29239 0.77014 0.72064 0.0
H832 H 0.22705 0.7304 0.79617 0.0
H833 H 0.20314 0.75446 0.73582 0.0
H834 H 0.18873 0.71205 0.80281 0.0
H835 H 0.15749 0.7155 0.77667 0.0
H836 H 0.38643 0.83976 0.73876 0.0
H837 H 0.40691 0.82584 0.80638 0.0
H838 H 0.42512 0.85988 0.73497 0.0
H839 H 0.45492 0.86238 0.76608 0.0
Gd840 Gd 0.55114 0.05008 0.99123 0.0
Gd841 Gd 0.56412 0.02867 0.04665 0.0
C842 C 0.62912 0.06192 0.09622 0.0
C843 C 0.6451 0.02591 0.0902 0.0
C844 C 0.60954 0.02196 0.06852 0.0
C845 C 0.61081 0.04708 0.07939 0.0
C846 C 0.62653 0.01099 0.07406 0.0
C847 C 0.64634 0.05129 0.10134 0.0
C848 C 0.62927 0.08675 0.10803 0.0
C849 C 0.61115 0.09594 0.10354 0.0
N850 N 0.5936 0.05657 0.07458 0.0
C851 C 0.59329 0.08047 0.08686 0.0
H852 H 0.57956 0.08811 0.08375 0.0
C853 C 0.58796 0.98227 0.0447 0.0
N854 N 0.59114 0.00785 0.05355 0.0
C855 C 0.60452 0.97065 0.04925 0.0
C856 C 0.62399 0.98512 0.06383 0.0
H857 H 0.57282 0.97108 0.03351 0.0
H858 H 0.66054 0.06243 0.11417 0.0
H859 H 0.53216 0.98572 0.96518 0.0
H860 H 0.64306 0.09878 0.12099 0.0
H861 H 0.61095 0.11501 0.11283 0.0
H862 H 0.65835 0.01785 0.09462 0.0
H863 H 0.54043 0.10592 0.99781 0.0
H864 H 0.47479 0.97257 0.91623 0.0
H865 H 0.50259 0.9566 0.93566 0.0
H866 H 0.46267 0.05498 0.92517 0.0
H867 H 0.6022 0.95053 0.04165 0.0
H868 H 0.63669 0.97601 0.06759 0.0
H869 H 0.46013 0.00933 0.91231 0.0
H870 H 0.5129 0.12503 0.98219 0.0
N871 N 0.5226 0.01927 0.96266 0.0
C872 C 0.48814 0.9858 0.92905 0.0
C873 C 0.50378 0.97675 0.93998 0.0
C874 C 0.48964 0.01177 0.93519 0.0
C875 C 0.50727 0.02821 0.95217 0.0
C876 C 0.52089 0.99371 0.95674 0.0
N877 N 0.52454 0.0685 0.97743 0.0
C878 C 0.50835 0.05369 0.95978 0.0
C879 C 0.51128 0.10488 0.97587 0.0
C880 C 0.49395 0.08967 0.95846 0.0
C881 C 0.52666 0.09397 0.98493 0.0
C882 C 0.49236 0.06375 0.95009 0.0
H883 H 0.48198 0.09811 0.95153 0.0
O884 O 0.57265 0.08123 0.98138 0.0
O885 O 0.57472 0.05254 0.02203 0.0
O886 O 0.54959 0.06273 0.05575 0.0
O887 O 0.53358 0.06876 0.01987 0.0
O888 O 0.57474 0.0862 0.01439 0.0
O889 O 0.56775 0.0428 0.95899 0.0
O890 O 0.54504 0.9976 0.05884 0.0
O891 O 0.54031 0.02772 0.01717 0.0
O892 O 0.5643 0.01524 0.98313 0.0
O893 O 0.58496 0.01542 0.01853 0.0
O894 O 0.53755 0.99398 0.02571 0.0
O895 O 0.55046 0.03675 0.08077 0.0
C896 C 0.58462 0.07568 0.02793 0.0
C897 C 0.47515 0.04763 0.93273 0.0
C898 C 0.47374 0.02166 0.92537 0.0
C899 C 0.57645 0.067 0.96157 0.0
C900 C 0.57558 0.0768 0.94023 0.0
C901 C 0.56701 0.09764 0.93956 0.0
C902 C 0.58634 0.06695 0.9213 0.0
C903 C 0.58984 0.07847 0.90223 0.0
C904 C 0.56974 0.10866 0.91999 0.0
C905 C 0.58134 0.09927 0.9014 0.0
C906 C 0.53732 0.07326 0.04368 0.0
C907 C 0.52782 0.00587 0.01352 0.0
C908 C 0.54125 0.01262 0.07835 0.0
C909 C 0.53947 1.00314 0.09991 0.0
C910 C 0.55024 0.98514 0.10431 0.0
C911 C 0.52414 0.01024 0.11483 0.0
C912 C 0.51893 0.99905 0.13381 0.0
C913 C 0.54519 0.97405 0.12359 0.0
C914 C 0.52938 0.98082 0.13826 0.0
C915 C 0.57895 0.00759 0.995 0.0
H916 H 0.55887 0.10587 0.95434 0.0
H917 H 0.59289 0.05085 0.92197 0.0
H918 H 0.56347 0.12493 0.91961 0.0
H919 H 0.58419 0.10863 0.88681 0.0
H920 H 0.56207 0.97932 0.09264 0.0
H921 H 0.51574 0.02407 0.11128 0.0
H922 H 0.55335 0.96007 0.12701 0.0
H923 H 0.52555 0.97222 0.15319 0.0
Gd924 Gd 0.3033 0.27391 0.26059 0.0
Gd925 Gd 0.3346 0.33845 0.29465 0.0
C926 C 0.40368 0.37477 0.2765 0.0
C927 C 0.42586 0.38477 0.31525 0.0
C928 C 0.38687 0.36241 0.3105 0.0
C929 C 0.38501 0.36303 0.28646 0.0
C930 C 0.40723 0.37386 0.32531 0.0
C931 C 0.42409 0.3852 0.29088 0.0
C932 C 0.40123 0.37655 0.25259 0.0
C933 C 0.3806 0.36694 0.23917 0.0
N934 N 0.36483 0.35349 0.27321 0.0
C935 C 0.36264 0.3554 0.24965 0.0
H936 H 0.34752 0.34758 0.23789 0.0
C937 C 0.36895 0.35598 0.34456 0.0
N938 N 0.36845 0.3526 0.31999 0.0
C939 C 0.38871 0.36661 0.35984 0.0
C940 C 0.40805 0.37528 0.35012 0.0
H941 H 0.35386 0.35115 0.35256 0.0
H942 H 0.43848 0.39427 0.28349 0.0
H943 H 0.28372 0.26651 0.31492 0.0
H944 H 0.41511 0.3855 0.24439 0.0
H945 H 0.37851 0.36808 0.22055 0.0
H946 H 0.44156 0.39364 0.32636 0.0
H947 H 0.29109 0.25921 0.20094 0.0
H948 H 0.21595 0.22781 0.30079 0.0
H949 H 0.2501 0.24686 0.32901 0.0
H950 H 0.19948 0.21437 0.2155 0.0
H951 H 0.38887 0.36877 0.37919 0.0
H952 H 0.4233 0.38409 0.36206 0.0
H953 H 0.19722 0.2162 0.25866 0.0
H954 H 0.25904 0.23895 0.16997 0.0
N955 N 0.27039 0.25841 0.27772 0.0
C956 C 0.23103 0.23629 0.29414 0.0
C957 C 0.25027 0.24681 0.31004 0.0
C958 C 0.23155 0.23649 0.26979 0.0
C959 C 0.25167 0.24783 0.26201 0.0
C960 C 0.26976 0.25767 0.30155 0.0
N961 N 0.27254 0.25704 0.23074 0.0
C962 C 0.2528 0.24713 0.2378 0.0
C963 C 0.25693 0.24147 0.18899 0.0
C964 C 0.23629 0.23233 0.19605 0.0
C965 C 0.27501 0.25333 0.20661 0.0
C966 C 0.23407 0.23466 0.22065 0.0
H967 H 0.22235 0.22275 0.18235 0.0
O968 O 0.31547 0.24892 0.23301 0.0
O969 O 0.33596 0.30113 0.2743 0.0
O970 O 0.31806 0.33825 0.25718 0.0
O971 O 0.29316 0.29876 0.2392 0.0
O972 O 0.33059 0.28492 0.23802 0.0
O973 O 0.30673 0.23813 0.26631 0.0
O974 O 0.32907 0.36486 0.32654 0.0
O975 O 0.30216 0.3113 0.28225 0.0
O976 O 0.3157 0.27357 0.29846 0.0
O977 O 0.34141 0.31198 0.31724 0.0
O978 O 0.30784 0.33059 0.31844 0.0
O979 O 0.33068 0.37481 0.29135 0.0
C980 C 0.34543 0.29858 0.25558 0.0
C981 C 0.21399 0.22398 0.22841 0.0
C982 C 0.21272 0.22497 0.25296 0.0
C983 C 0.31342 0.23166 0.24506 0.0
C984 C 0.30631 0.20512 0.2315 0.0
C985 C 0.30084 0.19752 0.20622 0.0
C986 C 0.30995 0.18765 0.24386 0.0
C987 C 0.31116 0.16364 0.23126 0.0
C988 C 0.29986 0.17263 0.19366 0.0
C989 C 0.30551 0.15581 0.20604 0.0
C990 C 0.30343 0.32221 0.23906 0.0
C991 C 0.29356 0.31471 0.3016 0.0
C992 C 0.32878 0.38171 0.31448 0.0
C993 C 0.32549 0.40625 0.32573 0.0
C994 C 0.3344 0.41963 0.34953 0.0
C995 C 0.31359 0.41668 0.31177 0.0
C996 C 0.31172 0.44123 0.32039 0.0
C997 C 0.33162 0.44396 0.35879 0.0
C998 C 0.32036 0.45494 0.34416 0.0
C999 C 0.32994 0.28866 0.31701 0.0
H1000 H 0.2982 0.21091 0.19615 0.0
H1001 H 0.314 0.1937 0.26341 0.0
H1002 H 0.29593 0.16681 0.17416 0.0
H1003 H 0.3064 0.1373 0.19586 0.0
H1004 H 0.34371 0.41154 0.36065 0.0
H1005 H 0.30626 0.40585 0.29359 0.0
H1006 H 0.33862 0.4545 0.37705 0.0
H1007 H 0.31893 0.47409 0.35103 0.0
Gd1008 Gd 0.55606 0.51186 0.00326 0.0
Gd1009 Gd 0.54706 0.57059 0.0325 0.0
C1010 C 0.5739 0.60818 0.11225 0.0
C1011 C 0.54092 0.61513 0.12978 0.0
C1012 C 0.53882 0.59428 0.08699 0.0
C1013 C 0.56124 0.59646 0.08948 0.0
C1014 C 0.52849 0.60407 0.10702 0.0
C1015 C 0.56357 0.61711 0.1324 0.0
C1016 C 0.59671 0.61136 0.114 0.0
C1017 C 0.60648 0.60372 0.09326 0.0
N1018 N 0.57086 0.58843 0.06947 0.0
C1019 C 0.59338 0.59269 0.07106 0.0
H1020 H 0.60167 0.58699 0.05559 0.0
C1021 C 0.50575 0.58439 0.06089 0.0
N1022 N 0.52732 0.584 0.0647 0.0
C1023 C 0.49474 0.59357 0.0802 0.0
C1024 C 0.50611 0.60326 0.10343 0.0
H1025 H 0.49702 0.5775 0.04282 0.0
H1026 H 0.57305 0.62615 0.14997 0.0
H1027 H 0.5016 0.49555 0.97955 0.0
H1028 H 0.60696 0.62017 0.13115 0.0
H1029 H 0.62418 0.6064 0.09431 0.0
H1030 H 0.53326 0.62271 0.14536 0.0
H1031 H 0.6062 0.50526 0.99384 0.0
H1032 H 0.49699 0.46193 0.90414 0.0
H1033 H 0.47944 0.47605 0.94063 0.0
H1034 H 0.57083 0.45874 0.89114 0.0
H1035 H 0.47758 0.59345 0.07709 0.0
H1036 H 0.49764 0.61068 0.11834 0.0
H1037 H 0.53109 0.45553 0.8859 0.0
H1038 H 0.62593 0.48872 0.96005 0.0
N1039 N 0.53255 0.49379 0.96613 0.0
C1040 C 0.50709 0.47075 0.92139 0.0
C1041 C 0.49712 0.47858 0.94193 0.0
C1042 C 0.52987 0.47374 0.92347 0.0
C1043 C 0.54233 0.4855 0.94634 0.0
C1044 C 0.51003 0.48967 0.96425 0.0
N1045 N 0.57597 0.49794 0.97156 0.0
C1046 C 0.5647 0.48753 0.94918 0.0
C1047 C 0.60875 0.4884 0.95669 0.0
C1048 C 0.59758 0.47841 0.93337 0.0
C1049 C 0.59755 0.49777 0.97574 0.0
C1050 C 0.57523 0.47758 0.92941 0.0
H1051 H 0.60622 0.4709 0.91866 0.0
O1052 O 0.57263 0.48751 0.01704 0.0
O1053 O 0.55747 0.5373 0.04061 0.0
O1054 O 0.58058 0.57717 0.0188 0.0
O1055 O 0.58357 0.54019 0.99248 0.0
O1056 O 0.58557 0.52612 0.03176 0.0
O1057 O 0.53737 0.47453 0.00556 0.0
O1058 O 0.52993 0.59444 0.01896 0.0
O1059 O 0.5459 0.54526 0.99519 0.0
O1060 O 0.52227 0.50549 0.01656 0.0
O1061 O 0.51945 0.5427 0.04275 0.0
O1062 O 0.51788 0.55675 0.00328 0.0
O1063 O 0.56511 0.60864 0.03157 0.0
C1064 C 0.57661 0.53707 0.04951 0.0
C1065 C 0.56302 0.46644 0.90653 0.0
C1066 C 0.5404 0.4646 0.90356 0.0
C1067 C 0.55468 0.46954 0.01484 0.0
C1068 C 0.55668 0.44358 0.0083 0.0
C1069 C 0.56816 0.4348 0.98919 0.0
C1070 C 0.54839 0.42804 0.02334 0.0
C1071 C 0.55142 0.40358 0.0196 0.0
C1072 C 0.57137 0.41046 0.98538 0.0
C1073 C 0.56313 0.39489 1.00054 0.0
C1074 C 0.59126 0.56466 0.00314 0.0
C1075 C 0.52695 0.54552 0.9858 0.0
C1076 C 0.54756 0.61302 0.02211 0.0
C1077 C 0.54484 0.63862 0.02778 0.0
C1078 C 0.52829 0.64564 0.04119 0.0
C1079 C 0.557 0.655 0.0156 0.0
C1080 C 0.55208 0.67787 0.01532 0.0
C1081 C 0.52395 0.6691 0.04197 0.0
C1082 C 0.53564 0.68513 0.02887 0.0
C1083 C 0.51172 0.51841 0.03201 0.0
H1084 H 0.57485 0.44678 0.97755 0.0
H1085 H 0.54009 0.43536 0.03851 0.0
H1086 H 0.58036 0.40367 0.97074 0.0
H1087 H 0.56568 0.37604 0.9972 0.0
H1088 H 0.51841 0.63284 0.05037 0.0
H1089 H 0.56967 0.64922 0.00518 0.0
H1090 H 0.51103 0.67449 0.05204 0.0
H1091 H 0.53139 0.70269 0.02872 0.0
Gd1092 Gd 0.78298 0.27351 0.27915 0.0
Gd1093 Gd 0.83058 0.30998 0.26224 0.0
C1094 C 0.82785 0.38935 0.2559 0.0
C1095 C 0.83369 0.38715 0.21393 0.0
C1096 C 0.83218 0.35024 0.23011 0.0
C1097 C 0.82863 0.36377 0.25258 0.0
C1098 C 0.83531 0.36214 0.21079 0.0
C1099 C 0.82992 0.40069 0.2364 0.0
C1100 C 0.82595 0.40331 0.27897 0.0
C1101 C 0.82574 0.39219 0.29832 0.0
N1102 N 0.82746 0.35269 0.27151 0.0
C1103 C 0.8269 0.36709 0.29441 0.0
H1104 H 0.82652 0.35974 0.31015 0.0
C1105 C 0.84169 0.31426 0.20706 0.0
N1106 N 0.83452 0.32635 0.22766 0.0
C1107 C 0.84451 0.3251 0.18738 0.0
C1108 C 0.84104 0.34901 0.18914 0.0
H1109 H 0.84523 0.29609 0.20587 0.0
H1110 H 0.82934 0.42024 0.23873 0.0
H1111 H 0.78955 0.22355 0.23599 0.0
H1112 H 0.82529 0.42291 0.28216 0.0
H1113 H 0.8247 0.40298 0.31638 0.0
H1114 H 0.83603 0.3965 0.19929 0.0
H1115 H 0.76641 0.29251 0.333 0.0
H1116 H 0.77651 0.15823 0.26406 0.0
H1117 H 0.78482 0.1781 0.23013 0.0
H1118 H 0.75958 0.18896 0.34422 0.0
H1119 H 0.8497 0.31515 0.17101 0.0
H1120 H 0.84363 0.35758 0.174 0.0
H1121 H 0.76763 0.1626 0.30674 0.0
H1122 H 0.75478 0.27506 0.36766 0.0
N1123 N 0.78314 0.23035 0.27294 0.0
C1124 C 0.77833 0.17842 0.26677 0.0
C1125 C 0.7829 0.18952 0.24757 0.0
C1126 C 0.77549 0.19335 0.28901 0.0
C1127 C 0.77782 0.21955 0.29152 0.0
C1128 C 0.78534 0.21555 0.251 0.0
N1129 N 0.77389 0.25892 0.31365 0.0
C1130 C 0.77319 0.23433 0.31257 0.0
C1131 C 0.76004 0.26343 0.35235 0.0
C1132 C 0.76002 0.23846 0.35194 0.0
C1133 C 0.76667 0.27326 0.33275 0.0
C1134 C 0.76625 0.22342 0.33172 0.0
H1135 H 0.75457 0.23076 0.36699 0.0
O1136 O 0.75112 0.28013 0.28594 0.0
O1137 O 0.79456 0.30903 0.2652 0.0
O1138 O 0.82987 0.32009 0.30247 0.0
O1139 O 0.80575 0.28756 0.31365 0.0
O1140 O 0.77837 0.3127 0.29571 0.0
O1141 O 0.75392 0.25049 0.2549 0.0
O1142 O 0.863 0.32703 0.25381 0.0
O1143 O 0.81904 0.27427 0.275 0.0
O1144 O 0.7808 0.26235 0.23902 0.0
O1145 O 0.81162 0.28571 0.22658 0.0
O1146 O 0.83811 0.27169 0.24714 0.0
O1147 O 0.85962 0.31716 0.28795 0.0
C1148 C 0.78589 0.32438 0.27966 0.0
C1149 C 0.76485 0.19765 0.32969 0.0
C1150 C 0.76943 0.18264 0.30836 0.0
C1151 C 0.74095 0.26235 0.267 0.0
C1152 C 0.71909 0.24754 0.2691 0.0
C1153 C 0.71494 0.23359 0.28658 0.0
C1154 C 0.70169 0.24921 0.25395 0.0
C1155 C 0.68005 0.23762 0.2565 0.0
C1156 C 0.69319 0.22158 0.28891 0.0
C1157 C 0.6757 0.22376 0.27403 0.0
C1158 C 0.82178 0.30859 0.31896 0.0
C1159 C 0.82858 0.25895 0.26167 0.0
C1160 C 0.87314 0.32544 0.27348 0.0
C1161 C 0.89236 0.3153 0.27064 0.0
C1162 C 0.89278 0.29522 0.25086 0.0
C1163 C 0.91106 0.32692 0.28745 0.0
C1164 C 0.93031 0.31901 0.28419 0.0
C1165 C 0.91195 0.287 0.24792 0.0
C1166 C 0.93076 0.29897 0.26445 0.0
C1167 C 0.79245 0.26865 0.22204 0.0
H1168 H 0.72831 0.23235 0.29857 0.0
H1169 H 0.70491 0.26048 0.24078 0.0
H1170 H 0.68987 0.21106 0.30257 0.0
H1171 H 0.65887 0.21511 0.27645 0.0
H1172 H 0.87852 0.28624 0.23752 0.0
H1173 H 0.91086 0.3426 0.30261 0.0
H1174 H 0.91233 0.27163 0.23263 0.0
H1175 H 0.94569 0.29275 0.26181 0.0
Gd1176 Gd 0.04976 0.55203 0.49205 0.0
Gd1177 Gd 0.06166 0.53018 0.54912 0.0
C1178 C 0.12924 0.55929 0.59507 0.0
C1179 C 0.14304 0.52169 0.58711 0.0
C1180 C 0.10691 0.52022 0.56836 0.0
C1181 C 0.10994 0.54562 0.57917 0.0
C1182 C 0.1231 0.50774 0.57286 0.0
C1183 C 0.14604 0.54742 0.59834 0.0
C1184 C 0.13055 0.58396 0.60833 0.0
C1185 C 0.11259 0.59408 0.60624 0.0
N1186 N 0.09302 0.55617 0.57622 0.0
C1187 C 0.09383 0.57984 0.59027 0.0
H1188 H 0.08023 0.58824 0.58964 0.0
C1189 C 0.08134 0.48118 0.5497 0.0
N1190 N 0.08706 0.5071 0.55577 0.0
C1191 C 0.09698 0.46793 0.55308 0.0
C1192 C 0.11815 0.48133 0.56426 0.0
H1193 H 0.0648 0.47085 0.54152 0.0
H1194 H 0.16102 0.55768 0.61031 0.0
H1195 H 0.03446 0.48776 0.46486 0.0
H1196 H 0.145 0.59499 0.62083 0.0
H1197 H 0.11314 0.61289 0.61697 0.0
H1198 H 0.15576 0.5125 0.59056 0.0
H1199 H 0.03495 0.60703 0.49994 0.0
H1200 H 0.97165 0.46984 0.424 0.0
H1201 H 0.00383 0.45681 0.43808 0.0
H1202 H 0.95327 0.54915 0.43664 0.0
H1203 H 0.09263 0.44742 0.54732 0.0
H1204 H 0.13013 0.47103 0.5673 0.0
H1205 H 0.95336 0.50439 0.42295 0.0
H1206 H 0.00387 0.62254 0.48795 0.0
N1207 N 0.02039 0.51929 0.46698 0.0
C1208 C 0.98515 0.4838 0.43603 0.0
C1209 C 0.00332 0.47643 0.44385 0.0
C1210 C 0.98463 0.50911 0.44374 0.0
C1211 C 0.00246 0.52655 0.45982 0.0
C1212 C 0.02093 0.49444 0.45911 0.0
N1213 N 0.01919 0.56795 0.48378 0.0
C1214 C 0.00193 0.55157 0.46832 0.0
C1215 C 0.00289 0.60246 0.48259 0.0
C1216 C 0.9846 0.58565 0.46776 0.0
C1217 C 0.02032 0.5934 0.4898 0.0
C1218 C 0.98416 0.56002 0.45996 0.0
H1219 H 0.97128 0.59279 0.46175 0.0
O1220 O 0.06319 0.58552 0.48081 0.0
O1221 O 0.07189 0.55352 0.52392 0.0
O1222 O 0.0531 0.5677 0.55815 0.0
O1223 O 0.03949 0.57683 0.52298 0.0
O1224 O 0.08374 0.57912 0.50479 0.0
O1225 O 0.06095 0.54794 0.45598 0.0
O1226 O 0.04 0.50246 0.5637 0.0
O1227 O 0.0391 0.5307 0.51881 0.0
O1228 O 0.06552 0.51954 0.48281 0.0
O1229 O 0.07683 0.50968 0.51897 0.0
O1230 O 0.03176 0.49806 0.53014 0.0
O1231 O 0.04873 0.54228 0.58302 0.0
C1232 C 0.08821 0.57112 0.5233 0.0
C1233 C 0.96689 0.54291 0.44337 0.0
C1234 C 0.96699 0.51746 0.43551 0.0
C1235 C 0.06658 0.57278 0.45984 0.0
C1236 C 0.07596 0.58651 0.44251 0.0
C1237 C 0.07774 0.61266 0.4467 0.0
C1238 C 0.08443 0.5741 0.4226 0.0
C1239 C 0.09512 0.58783 0.40716 0.0
C1240 C 0.08836 0.62635 0.43131 0.0
C1241 C 0.09719 0.61407 0.41168 0.0
C1242 C 0.04381 0.58115 0.54661 0.0
C1243 C 0.02504 0.50999 0.51565 0.0
C1244 C 0.03851 0.51917 0.58314 0.0
C1245 C 0.04132 0.51199 0.60579 0.0
C1246 C 0.06116 0.50756 0.61369 0.0
C1247 C 0.02349 0.50882 0.61931 0.0
C1248 C 0.02527 0.50116 0.64086 0.0
C1249 C 0.06297 0.49966 0.635 0.0
C1250 C 0.0451 0.49639 0.64854 0.0
C1251 C 0.07498 0.50675 0.49519 0.0
H1252 H 0.07119 0.62263 0.46204 0.0
H1253 H 0.08287 0.55388 0.41922 0.0
H1254 H 0.08994 0.64653 0.43474 0.0
H1255 H 0.10577 0.62508 0.40013 0.0
H1256 H 0.07511 0.51007 0.60337 0.0
H1257 H 0.00819 0.51228 0.613 0.0
H1258 H 0.07829 0.49622 0.64112 0.0
H1259 H 0.04697 0.49081 0.66532 0.0
Gd1260 Gd 0.83722 0.78408 0.27285 0.0
Gd1261 Gd 0.78348 0.79804 0.26701 0.0
C1262 C 0.74572 0.78249 0.1918 0.0
C1263 C 0.7425 0.82445 0.19059 0.0
C1264 C 0.76126 0.81822 0.22624 0.0
C1265 C 0.75722 0.79262 0.21534 0.0
C1266 C 0.75347 0.83432 0.21421 0.0
C1267 C 0.73871 0.7986 0.17938 0.0
C1268 C 0.74132 0.75641 0.18152 0.0
C1269 C 0.74786 0.74101 0.19485 0.0
N1270 N 0.76409 0.77752 0.22791 0.0
C1271 C 0.759 0.75183 0.21815 0.0
H1272 H 0.76437 0.73941 0.22745 0.0
C1273 C 0.7736 0.85163 0.26168 0.0
N1274 N 0.77187 0.82721 0.24906 0.0
C1275 C 0.76628 0.86834 0.25048 0.0
C1276 C 0.75639 0.85973 0.22653 0.0
H1277 H 0.78113 0.85826 0.28029 0.0
H1278 H 0.72999 0.79116 0.16126 0.0
H1279 H 0.8699 0.84227 0.30318 0.0
H1280 H 0.73267 0.74795 0.16346 0.0
H1281 H 0.74451 0.72077 0.18713 0.0
H1282 H 0.73654 0.83655 0.181 0.0
H1283 H 0.83832 0.72349 0.26249 0.0
H1284 H 0.89724 0.83736 0.37095 0.0
H1285 H 0.89194 0.86274 0.34212 0.0
H1286 H 0.88124 0.74807 0.3628 0.0
H1287 H 0.76816 0.88781 0.26035 0.0
H1288 H 0.75059 0.87267 0.21792 0.0
H1289 H 0.89264 0.79442 0.37877 0.0
H1290 H 0.84874 0.69426 0.28475 0.0
N1291 N 0.85991 0.8056 0.31002 0.0
C1292 C 0.88683 0.82826 0.35394 0.0
C1293 C 0.8839 0.84263 0.33774 0.0
C1294 C 0.87763 0.80204 0.34718 0.0
C1295 C 0.86435 0.7911 0.32467 0.0
C1296 C 0.87068 0.83088 0.31567 0.0
N1297 N 0.84786 0.75559 0.29275 0.0
C1298 C 0.85812 0.76514 0.31567 0.0
C1299 C 0.85131 0.71411 0.29375 0.0
C1300 C 0.86062 0.72337 0.31789 0.0
C1301 C 0.84549 0.73068 0.28121 0.0
C1302 C 0.8647 0.74928 0.32895 0.0
H1303 H 0.86545 0.71059 0.32746 0.0
O1304 O 0.8538 0.76569 0.24433 0.0
O1305 O 0.81081 0.78765 0.24727 0.0
O1306 O 0.77819 0.75597 0.26766 0.0
O1307 O 0.81177 0.75112 0.28247 0.0
O1308 O 0.82114 0.75457 0.23916 0.0
O1309 O 0.86851 0.80455 0.26321 0.0
O1310 O 0.76665 0.81402 0.29649 0.0
O1311 O 0.80988 0.79409 0.29233 0.0
O1312 O 0.84088 0.82664 0.27341 0.0
O1313 O 0.80768 0.83115 0.2573 0.0
O1314 O 0.79962 0.82656 0.30196 0.0
O1315 O 0.75037 0.77781 0.27221 0.0
C1316 C 0.80916 0.76732 0.23115 0.0
C1317 C 0.87625 0.75996 0.35223 0.0
C1318 C 0.88271 0.78634 0.36135 0.0
C1319 C 0.8705 0.78523 0.2466 0.0
C1320 C 0.89244 0.77988 0.24561 0.0
C1321 C 0.89886 0.76563 0.26058 0.0
C1322 C 0.90634 0.78714 0.2283 0.0
C1323 C 0.92616 0.77954 0.22579 0.0
C1324 C 0.9184 0.75814 0.25809 0.0
C1325 C 0.93186 0.76487 0.24075 0.0
C1326 C 0.79002 0.74216 0.27583 0.0
C1327 C 0.81196 0.81377 0.30932 0.0
C1328 C 0.74893 0.79532 0.29109 0.0
C1329 C 0.72787 0.80248 0.29321 0.0
C1330 C 0.72178 0.81751 0.27889 0.0
C1331 C 0.71463 0.7961 0.31123 0.0
C1332 C 0.69585 0.8054 0.31528 0.0
C1333 C 0.70323 0.82674 0.28288 0.0
C1334 C 0.69046 0.82094 0.30106 0.0
C1335 C 0.82913 0.84036 0.2648 0.0
H1336 H 0.88857 0.75988 0.27393 0.0
H1337 H 0.90153 0.79807 0.21655 0.0
H1338 H 0.92306 0.74688 0.26954 0.0
H1339 H 0.94692 0.75876 0.23911 0.0
H1340 H 0.73149 0.82239 0.26484 0.0
H1341 H 0.71918 0.78448 0.32239 0.0
H1342 H 0.69878 0.83854 0.2719 0.0
H1343 H 0.67606 0.82823 0.30375 0.0
Gd1344 Gd 0.79888 0.30841 0.79964 0.0
Gd1345 Gd 0.81841 0.28009 0.74313 0.0
C1346 C 0.79807 0.19827 0.6961 0.0
C1347 C 0.83216 0.18563 0.69854 0.0
C1348 C 0.82993 0.22682 0.72266 0.0
C1349 C 0.8081 0.22169 0.71303 0.0
C1350 C 0.84222 0.20885 0.71514 0.0
C1351 C 0.81017 0.18038 0.68902 0.0
C1352 C 0.77621 0.19354 0.68632 0.0
C1353 C 0.76464 0.21158 0.69373 0.0
N1354 N 0.79686 0.23968 0.71954 0.0
C1355 C 0.77519 0.23448 0.71028 0.0
H1356 H 0.76521 0.24713 0.71594 0.0
C1357 C 0.862 0.2565 0.74479 0.0
N1358 N 0.8396 0.2498 0.7381 0.0
C1359 C 0.87458 0.23915 0.73833 0.0
C1360 C 0.86461 0.21512 0.7236 0.0
H1361 H 0.87045 0.27552 0.75506 0.0
H1362 H 0.80271 0.16248 0.67595 0.0
H1363 H 0.8552 0.33606 0.80815 0.0
H1364 H 0.76806 0.17593 0.67318 0.0
H1365 H 0.7475 0.20787 0.68673 0.0
H1366 H 0.8414 0.17179 0.69254 0.0
H1367 H 0.75092 0.32546 0.79128 0.0
H1368 H 0.86565 0.40364 0.86499 0.0
H1369 H 0.88043 0.37171 0.83807 0.0
H1370 H 0.79401 0.41906 0.86611 0.0
H1371 H 0.89211 0.24461 0.74417 0.0
H1372 H 0.87453 0.20189 0.71812 0.0
H1373 H 0.83334 0.42156 0.87488 0.0
H1374 H 0.73495 0.35965 0.81023 0.0
N1375 N 0.82607 0.34602 0.81954 0.0
C1376 C 0.85444 0.38776 0.85206 0.0
C1377 C 0.86283 0.36975 0.83697 0.0
C1378 C 0.8319 0.38612 0.84894 0.0
C1379 C 0.81801 0.3649 0.83205 0.0
C1380 C 0.84837 0.34923 0.82031 0.0
N1381 N 0.78358 0.3437 0.80931 0.0
C1382 C 0.79606 0.36376 0.8267 0.0
C1383 C 0.75226 0.36128 0.81478 0.0
C1384 C 0.765 0.38199 0.83252 0.0
C1385 C 0.76171 0.34212 0.80357 0.0
C1386 C 0.78716 0.38346 0.83869 0.0
H1387 H 0.75753 0.39664 0.84144 0.0
O1388 O 0.76594 0.29446 0.80845 0.0
O1389 O 0.79374 0.27551 0.76811 0.0
O1390 O 0.78525 0.28675 0.73196 0.0
O1391 O 0.77764 0.31265 0.76726 0.0
O1392 O 0.79431 0.268 0.80217 0.0
O1393 O 0.79371 0.30968 0.83715 0.0
O1394 O 0.84985 0.29983 0.73439 0.0
O1395 O 0.82268 0.31484 0.77327 0.0
O1396 O 0.82947 0.29841 0.81302 0.0
O1397 O 0.83849 0.27565 0.77668 0.0
O1398 O 0.81928 0.31848 0.73798 0.0
O1399 O 0.82208 0.27917 0.70549 0.0
C1400 C 0.79184 0.25855 0.77917 0.0
C1401 C 0.80063 0.40395 0.85649 0.0
C1402 C 0.82298 0.4053 0.86158 0.0
C1403 C 0.77239 0.30003 0.83164 0.0
C1404 C 0.76046 0.28323 0.8455 0.0
C1405 C 0.73779 0.28111 0.84611 0.0
C1406 C 0.77105 0.27058 0.85904 0.0
C1407 C 0.75878 0.25571 0.8728 0.0
C1408 C 0.7257 0.26638 0.85988 0.0
C1409 C 0.73612 0.25364 0.87314 0.0
C1410 C 0.77327 0.30125 0.74365 0.0
C1411 C 0.82221 0.33037 0.76047 0.0
C1412 C 0.84239 0.29329 0.71141 0.0
C1413 C 0.85687 0.29784 0.69317 0.0
C1414 C 0.86974 0.28145 0.68405 0.0
C1415 C 0.85545 0.31755 0.6828 0.0
C1416 C 0.86516 0.31987 0.66173 0.0
C1417 C 0.8809 0.28477 0.66402 0.0
C1418 C 0.87839 0.30366 0.65261 0.0
C1419 C 0.84176 0.2848 0.80075 0.0
H1420 H 0.72948 0.29116 0.83612 0.0
H1421 H 0.7886 0.27231 0.85898 0.0
H1422 H 0.70829 0.26502 0.86044 0.0
H1423 H 0.7266 0.2425 0.88403 0.0
H1424 H 0.8707 0.2659 0.69197 0.0
H1425 H 0.84554 0.33019 0.69039 0.0
H1426 H 0.89074 0.27203 0.65671 0.0
H1427 H 0.88596 0.30482 0.63619 0.0
Gd1428 Gd 0.79982 0.77318 0.76364 0.0
Gd1429 Gd 0.83388 0.8378 0.79009 0.0
C1430 C 0.90576 0.86065 0.77395 0.0
C1431 C 0.92567 0.87274 0.81417 0.0
C1432 C 0.88587 0.85396 0.80806 0.0
C1433 C 0.88568 0.85261 0.78351 0.0
C1434 C 0.9059 0.86455 0.82368 0.0
C1435 C 0.92562 0.87066 0.78936 0.0
C1436 C 0.9054 0.8588 0.74916 0.0
C1437 C 0.88549 0.84884 0.73439 0.0
N1438 N 0.86603 0.84406 0.76909 0.0
C1439 C 0.86603 0.84161 0.74458 0.0
H1440 H 0.8515 0.83324 0.73202 0.0
C1441 C 0.86599 0.85144 0.84165 0.0
N1442 N 0.86643 0.84659 0.817 0.0
C1443 C 0.88535 0.86136 0.85764 0.0
C1444 C 0.90544 0.86777 0.84862 0.0
H1445 H 0.8506 0.84866 0.84945 0.0
H1446 H 0.94103 0.87715 0.78229 0.0
H1447 H 0.77799 0.78447 0.81873 0.0
H1448 H 0.92043 0.86469 0.7412 0.0
H1449 H 0.88508 0.84667 0.71502 0.0
H1450 H 0.94107 0.88107 0.82594 0.0
H1451 H 0.7856 0.76261 0.70318 0.0
H1452 H 0.71371 0.73418 0.80692 0.0
H1453 H 0.74531 0.76394 0.83483 0.0
H1454 H 0.69731 0.71052 0.7207 0.0
H1455 H 0.88464 0.86483 0.877 0.0
H1456 H 0.92041 0.87608 0.86111 0.0
H1457 H 0.69553 0.71549 0.7644 0.0
H1458 H 0.75394 0.73936 0.67354 0.0
N1459 N 0.76644 0.76535 0.78178 0.0
C1460 C 0.72823 0.74318 0.79968 0.0
C1461 C 0.74604 0.75981 0.81545 0.0
C1462 C 0.72879 0.73972 0.77474 0.0
C1463 C 0.74826 0.75153 0.76625 0.0
C1464 C 0.76487 0.77113 0.80613 0.0
N1465 N 0.76831 0.7604 0.73427 0.0
C1466 C 0.74914 0.74919 0.74176 0.0
C1467 C 0.75214 0.74245 0.69267 0.0
C1468 C 0.73237 0.7313 0.70024 0.0
C1469 C 0.77003 0.75651 0.70986 0.0
C1470 C 0.73071 0.73435 0.72499 0.0
H1471 H 0.7187 0.7198 0.68685 0.0
O1472 O 0.81072 0.75122 0.73216 0.0
O1473 O 0.8329 0.79998 0.76792 0.0
O1474 O 0.82222 0.83941 0.75226 0.0
O1475 O 0.80185 0.79711 0.73645 0.0
O1476 O 0.83123 0.76542 0.77623 0.0
O1477 O 0.7907 0.73238 0.75631 0.0
O1478 O 0.82549 0.86129 0.82231 0.0
O1479 O 0.80091 0.81107 0.78642 0.0
O1480 O 0.8082 0.77212 0.80189 0.0
O1481 O 0.8308 0.81343 0.81802 0.0
O1482 O 0.80205 0.84619 0.77986 0.0
O1483 O 0.84653 0.87852 0.79829 0.0
C1484 C 0.84415 0.78653 0.77464 0.0
C1485 C 0.71148 0.7222 0.73333 0.0
C1486 C 0.71051 0.72489 0.75817 0.0
C1487 C 0.79998 0.72982 0.73621 0.0
C1488 C 0.80737 0.707 0.72731 0.0
C1489 C 0.80701 0.69765 0.70224 0.0
C1490 C 0.81235 0.693 0.74308 0.0
C1491 C 0.81662 0.66947 0.73392 0.0
C1492 C 0.81134 0.6742 0.69304 0.0
C1493 C 0.81601 0.66 0.70881 0.0
C1494 C 0.81032 0.82038 0.73434 0.0
C1495 C 0.78928 0.82483 0.78106 0.0
C1496 C 0.83764 0.88216 0.81857 0.0
C1497 C 0.82989 0.90497 0.82535 0.0
C1498 C 0.83902 0.92291 0.84716 0.0
C1499 C 0.81542 0.91023 0.80918 0.0
C1500 C 0.8114 0.93432 0.81355 0.0
C1501 C 0.83417 0.94643 0.85235 0.0
C1502 C 0.82073 0.95236 0.83548 0.0
C1503 C 0.82062 0.79029 0.81997 0.0
H1504 H 0.80284 0.70821 0.68979 0.0
H1505 H 0.81241 0.7001 0.76244 0.0
H1506 H 0.81088 0.66695 0.67369 0.0
H1507 H 0.81946 0.6419 0.70147 0.0
H1508 H 0.85036 0.91897 0.85983 0.0
H1509 H 0.80812 0.89585 0.7927 0.0
H1510 H 0.8415 0.96043 0.86905 0.0
H1511 H 0.81834 0.97129 0.8393 0.0
Gd1512 Gd 0.58295 0.5607 0.52759 0.0
Gd1513 Gd 0.52968 0.52486 0.50046 0.0
C1514 C 0.50229 0.44255 0.50373 0.0
C1515 C 0.48963 0.42139 0.46142 0.0
C1516 C 0.50882 0.46632 0.47322 0.0
C1517 C 0.51065 0.46553 0.49719 0.0
C1518 C 0.49811 0.44429 0.45503 0.0
C1519 C 0.49176 0.42052 0.48572 0.0
C1520 C 0.50467 0.44241 0.52817 0.0
C1521 C 0.51521 0.46478 0.54539 0.0
N1522 N 0.52064 0.48725 0.51411 0.0
C1523 C 0.52298 0.48711 0.53806 0.0
H1524 H 0.53123 0.50398 0.55174 0.0
C1525 C 0.51382 0.49086 0.44449 0.0
N1526 N 0.51692 0.48881 0.46775 0.0
C1527 C 0.50362 0.4695 0.42576 0.0
C1528 C 0.49578 0.44607 0.43104 0.0
H1529 H 0.519 0.50917 0.44046 0.0
H1530 H 0.48513 0.40276 0.49042 0.0
H1531 H 0.58193 0.58248 0.47462 0.0
H1532 H 0.49852 0.42516 0.53392 0.0
H1533 H 0.51731 0.46488 0.56436 0.0
H1534 H 0.48128 0.40431 0.44772 0.0
H1535 H 0.59119 0.57922 0.5891 0.0
H1536 H 0.61746 0.65987 0.49297 0.0
H1537 H 0.59789 0.62075 0.46247 0.0
H1538 H 0.63166 0.68164 0.57899 0.0
H1539 H 0.50141 0.47123 0.40736 0.0
H1540 H 0.48758 0.42962 0.41657 0.0
H1541 H 0.62995 0.6822 0.53614 0.0
H1542 H 0.60745 0.61753 0.62098 0.0
N1543 N 0.59331 0.59785 0.5125 0.0
C1544 C 0.61078 0.64268 0.49864 0.0
C1545 C 0.59986 0.62066 0.48139 0.0
C1546 C 0.6124 0.64251 0.52305 0.0
C1547 C 0.60322 0.61967 0.52963 0.0
C1548 C 0.59124 0.59847 0.48858 0.0
N1549 N 0.59424 0.59769 0.56007 0.0
C1550 C 0.60356 0.6196 0.55396 0.0
C1551 C 0.60608 0.61858 0.60229 0.0
C1552 C 0.61491 0.6413 0.59633 0.0
C1553 C 0.59622 0.59688 0.58394 0.0
C1554 C 0.61396 0.64202 0.57202 0.0
H1555 H 0.62289 0.65805 0.6106 0.0
O1556 O 0.60245 0.55171 0.55505 0.0
O1557 O 0.55858 0.52315 0.52312 0.0
O1558 O 0.52498 0.54103 0.54019 0.0
O1559 O 0.56045 0.56131 0.55892 0.0
O1560 O 0.58893 0.52219 0.51267 0.0
O1561 O 0.61847 0.569 0.52711 0.0
O1562 O 0.50519 0.53665 0.4813 0.0
O1563 O 0.55018 0.56511 0.51548 0.0
O1564 O 0.58614 0.54782 0.48688 0.0
O1565 O 0.55336 0.51689 0.47073 0.0
O1566 O 0.53718 0.55421 0.47936 0.0
O1567 O 0.49683 0.52145 0.51223 0.0
C1568 C 0.57039 0.50814 0.51562 0.0
C1569 C 0.62354 0.66439 0.56537 0.0
C1570 C 0.62268 0.66467 0.54098 0.0
C1571 C 0.62062 0.56054 0.54635 0.0
C1572 C 0.64194 0.56092 0.55754 0.0
C1573 C 0.65015 0.57639 0.58075 0.0
C1574 C 0.65429 0.54591 0.5447 0.0
C1575 C 0.67504 0.54621 0.55503 0.0
C1576 C 0.67095 0.577 0.59106 0.0
C1577 C 0.6834 0.56199 0.57829 0.0
C1578 C 0.53879 0.55354 0.56007 0.0
C1579 C 0.5464 0.57343 0.49716 0.0
C1580 C 0.49044 0.53144 0.49561 0.0
C1581 C 0.46753 0.5233 0.48504 0.0
C1582 C 0.46001 0.50479 0.46314 0.0
C1583 C 0.45364 0.53734 0.49593 0.0
C1584 C 0.43226 0.53347 0.4851 0.0
C1585 C 0.43856 0.50073 0.45219 0.0
C1586 C 0.42473 0.51516 0.463 0.0
C1587 C 0.57371 0.52996 0.46833 0.0
H1588 H 0.64063 0.58817 0.59072 0.0
H1589 H 0.64757 0.5337 0.52686 0.0
H1590 H 0.67745 0.58917 0.6089 0.0
H1591 H 0.69961 0.56289 0.58648 0.0
H1592 H 0.47076 0.49401 0.45434 0.0
H1593 H 0.45982 0.55209 0.51256 0.0
H1594 H 0.43274 0.48661 0.43519 0.0
H1595 H 0.40816 0.51184 0.45433 0.0
Gd1596 Gd 0.0258 0.53865 0.02694 0.0
Gd1597 Gd 0.08309 0.54784 0.00945 0.0
C1598 C 0.12982 0.62425 0.01014 0.0
C1599 C 0.13408 0.61982 0.96747 0.0
C1600 C 0.10992 0.58563 0.98058 0.0
C1601 C 0.11513 0.59977 0.00442 0.0
C1602 C 0.11954 0.59544 0.96187 0.0
C1603 C 0.1392 0.63419 0.99155 0.0
C1604 C 0.13464 0.63808 0.03438 0.0
C1605 C 0.125 0.62743 0.05226 0.0
N1606 N 0.10584 0.58965 0.02204 0.0
C1607 C 0.11076 0.60305 0.04578 0.0
H1608 H 0.10335 0.59553 0.0599 0.0
C1609 C 0.092 0.54663 0.95274 0.0
N1610 N 0.09586 0.56205 0.97573 0.0
C1611 C 0.10089 0.55569 0.93355 0.0
C1612 C 0.1146 0.58026 0.93811 0.0
H1613 H 0.0819 0.52738 0.94921 0.0
H1614 H 0.15049 0.65294 0.99561 0.0
H1615 H 1.00018 0.50108 0.97102 0.0
H1616 H 0.14573 0.65696 0.03947 0.0
H1617 H 0.12849 0.63801 0.07107 0.0
H1618 H 0.14161 0.62766 0.95333 0.0
H1619 H 0.02058 0.55001 0.087 0.0
H1620 H 0.96322 0.43113 0.98125 0.0
H1621 H 0.97681 0.4586 0.95437 0.0
H1622 H 0.97017 0.44287 0.06694 0.0
H1623 H 0.09737 0.54361 0.9153 0.0
H1624 H 0.12163 0.58714 0.92324 0.0
H1625 H 0.96169 0.42498 0.02304 0.0
H1626 H 0.00554 0.5259 0.11613 0.0
N1627 N 0.00257 0.49796 0.00785 0.0
C1628 C 0.9744 0.44967 0.9889 0.0
C1629 C 0.98196 0.46516 0.97367 0.0
C1630 C 0.98055 0.45866 0.01386 0.0
C1631 C 0.99463 0.48333 0.02304 0.0
C1632 C 0.99574 0.48943 0.98344 0.0
N1633 N 0.01155 0.51788 0.05651 0.0
C1634 C 0.99939 0.49347 0.04796 0.0
C1635 C 0.00394 0.51645 0.09708 0.0
C1636 C 0.9931 0.49077 0.08886 0.0
C1637 C 0.0125 0.52997 0.08052 0.0
C1638 C 0.9901 0.47916 0.06403 0.0
H1639 H 0.98624 0.48037 0.10171 0.0
O1640 O 0.01079 0.56579 0.04822 0.0
O1641 O 0.05923 0.56584 0.02914 0.0
O1642 O 0.08311 0.55324 0.04969 0.0
O1643 O 0.04728 0.53724 0.05841 0.0
O1644 O 0.03237 0.58014 0.02753 0.0
O1645 O 0.99462 0.54285 0.01235 0.0
O1646 O 0.09661 0.51505 0.00233 0.0
O1647 O 0.05259 0.51999 0.01522 0.0
O1648 O 0.02927 0.53429 0.98805 0.0
O1649 O 0.06281 0.55955 0.98292 0.0
O1650 O 0.0665 0.50984 0.98366 0.0
O1651 O 0.11689 0.55071 0.02369 0.0
C1652 C 0.05331 0.5856 0.02785 0.0
C1653 C 0.9772 0.45417 0.05484 0.0
C1654 C 0.97234 0.444 0.02984 0.0
C1655 C 0.9941 0.56075 0.03153 0.0
C1656 C 0.97271 0.56174 0.04007 0.0
C1657 C 0.96424 0.54848 0.05696 0.0
C1658 C 0.96164 0.57825 0.03277 0.0
C1659 C 0.9424 0.58202 0.04274 0.0
C1660 C 0.94508 0.55205 0.06684 0.0
C1661 C 0.93426 0.56876 0.05989 0.0
C1662 C 0.06867 0.54606 0.06433 0.0
C1663 C 0.05141 0.5019 0.99668 0.0
C1664 C 0.11601 0.52723 0.01339 0.0
C1665 C 0.13447 0.52189 1.00012 0.0
C1666 C 0.13822 0.5292 0.9785 0.0
C1667 C 0.14725 0.50727 0.00803 0.0
C1668 C 0.16354 0.49969 0.99428 0.0
C1669 C 0.15403 0.52144 0.96458 0.0
C1670 C 0.16652 0.50665 0.97228 0.0
C1671 C 0.04126 0.55068 0.97791 0.0
H1672 H 0.97254 0.5357 0.06275 0.0
H1673 H 0.9684 0.58875 0.01994 0.0
H1674 H 0.93866 0.54195 0.08004 0.0
H1675 H 0.91935 0.57108 0.06773 0.0
H1676 H 0.12881 0.5406 0.9722 0.0
H1677 H 0.1445 0.50189 0.02489 0.0
H1678 H 0.15652 0.52678 0.94769 0.0
H1679 H 0.17846 0.50059 0.96094 0.0
C1680 C 0.0191 0.20981 0.99477 0.0
C1681 C 0.01319 0.20729 0.97004 0.0
C1682 C 0.02511 0.18996 0.00294 0.0
C1683 C 0.02456 0.16664 0.98617 0.0
C1684 C 0.01769 0.16383 0.96136 0.0
C1685 C 0.01252 0.18417 0.95364 0.0
C1686 C 0.03281 0.19431 0.02942 0.0
C1687 C 0.01583 0.13921 0.94278 0.0
C1688 C 0.06063 0.12178 0.99261 0.0
C1689 C 0.04667 0.10242 1.00049 0.0
C1690 C 0.05438 0.14379 0.99038 0.0
C1691 C 0.03262 0.14576 0.99377 0.0
C1692 C 0.01817 0.12609 0.00153 0.0
C1693 C 0.02555 0.10513 0.00539 0.0
C1694 C 0.07084 0.16443 0.9831 0.0
C1695 C 0.99453 0.12642 0.00448 0.0
H1696 H 0.01961 0.22754 0.00762 0.0
H1697 H 0.00767 0.18188 0.93457 0.0
H1698 H 0.02359 0.17861 0.03664 0.0
H1699 H 0.0505 0.19449 0.03155 0.0
H1700 H 0.03078 0.21253 0.04048 0.0
H1701 H 0.00856 0.13924 0.92462 0.0
H1702 H 0.03238 0.13574 0.9411 0.0
H1703 H 0.00545 0.12314 0.94867 0.0
H1704 H 0.07615 0.11931 0.98704 0.0
H1705 H 0.01425 0.09003 0.01081 0.0
H1706 H 0.07087 0.18332 0.99459 0.0
H1707 H 0.06618 0.16424 0.96404 0.0
H1708 H 0.08782 0.16203 0.98469 0.0
H1709 H 0.99401 0.14286 0.01935 0.0
H1710 H 0.98487 0.10881 0.00863 0.0
H1711 H 0.98638 0.12865 0.98768 0.0
C1712 C 0.1646 0.80151 0.17184 0.0
C1713 C 0.16378 0.8211 0.16047 0.0
C1714 C 0.18442 0.79966 0.18333 0.0
C1715 C 0.20448 0.81827 0.18436 0.0
C1716 C 0.204 0.83791 0.17244 0.0
C1717 C 0.18382 0.83897 0.16049 0.0
C1718 C 0.18362 0.77803 0.19511 0.0
C1719 C 0.22477 0.85828 0.17301 0.0
C1720 C 0.24817 0.82672 0.23809 0.0
C1721 C 0.2628 0.81293 0.22768 0.0
C1722 C 0.22976 0.82916 0.22422 0.0
C1723 C 0.22542 0.81765 0.19892 0.0
C1724 C 0.24043 0.80425 0.18812 0.0
C1725 C 0.25882 0.80221 0.20245 0.0
C1726 C 0.21459 0.8437 0.2369 0.0
C1727 C 0.23661 0.79116 0.16147 0.0
H1728 H 0.1494 0.78748 0.17203 0.0
H1729 H 0.18361 0.8544 0.15212 0.0
H1730 H 0.19721 0.76906 0.1902 0.0
H1731 H 0.18579 0.78541 0.2151 0.0
H1732 H 0.1677 0.76323 0.1898 0.0
H1733 H 0.22203 0.87211 0.16281 0.0
H1734 H 0.23118 0.86865 0.19206 0.0
H1735 H 0.23773 0.84957 0.16522 0.0
H1736 H 0.25091 0.83554 0.25732 0.0
H1737 H 0.26982 0.79163 0.19382 0.0
H1738 H 0.19788 0.83081 0.23547 0.0
H1739 H 0.21295 0.85888 0.22798 0.0
H1740 H 0.22056 0.85244 0.25639 0.0
H1741 H 0.22138 0.77533 0.15774 0.0
H1742 H 0.25057 0.78337 0.15526 0.0
H1743 H 0.23408 0.80451 0.15063 0.0
C1744 C 0.53755 0.85445 0.47307 0.0
C1745 C 0.51578 0.83963 0.47151 0.0
C1746 C 0.54277 0.88131 0.47992 0.0
C1747 C 0.5258 0.89395 0.48463 0.0
C1748 C 0.50395 0.87902 0.48386 0.0
C1749 C 0.4993 0.85227 0.47764 0.0
C1750 C 0.56646 0.89624 0.48162 0.0
C1751 C 0.48513 0.89119 0.48807 0.0
C1752 C 0.54152 0.96632 0.51271 0.0
C1753 C 0.54216 0.97593 0.49198 0.0
C1754 C 0.5358 0.93983 0.5108 0.0
C1755 C 0.53049 0.92236 0.48761 0.0
C1756 C 0.53032 0.93214 0.4668 0.0
C1757 C 0.53646 0.95857 0.46923 0.0
C1758 C 0.53636 0.93061 0.53359 0.0
C1759 C 0.52432 0.91461 0.4417 0.0
H1760 H 0.55049 0.84503 0.46861 0.0
H1761 H 0.48237 0.84122 0.47633 0.0
H1762 H 0.5681 0.90839 0.46866 0.0
H1763 H 0.57168 0.90899 0.50007 0.0
H1764 H 0.57781 0.88377 0.47777 0.0
H1765 H 0.46956 0.87738 0.48939 0.0
H1766 H 0.48925 0.9067 0.50491 0.0
H1767 H 0.48233 0.89961 0.47278 0.0
H1768 H 0.54644 0.97938 0.5304 0.0
H1769 H 0.53712 0.96575 0.45313 0.0
H1770 H 0.54993 0.92119 0.53414 0.0
H1771 H 0.52076 0.9163 0.53373 0.0
H1772 H 0.53892 0.94633 0.55022 0.0
H1773 H 0.5374 0.90464 0.43735 0.0
H1774 H 0.52243 0.92498 0.42766 0.0
H1775 H 0.50868 0.89997 0.44082 0.0
C1776 C 0.52488 0.32404 0.64682 0.0
C1777 C 0.53719 0.30607 0.64587 0.0
C1778 C 0.5052 0.32186 0.65777 0.0
C1779 C 0.49714 0.30068 0.66734 0.0
C1780 C 0.50895 0.28176 0.6652 0.0
C1781 C 0.52908 0.28496 0.65499 0.0
C1782 C 0.49382 0.34298 0.66026 0.0
C1783 C 0.50049 0.25835 0.67418 0.0
C1784 C 0.46391 0.30419 0.72126 0.0
C1785 C 0.44252 0.29074 0.71046 0.0
C1786 C 0.48148 0.3088 0.70729 0.0
C1787 C 0.47777 0.29939 0.68176 0.0
C1788 C 0.4559 0.28718 0.67057 0.0
C1789 C 0.43849 0.28303 0.68508 0.0
C1790 C 0.5043 0.32253 0.72003 0.0
C1791 C 0.45109 0.27743 0.6434 0.0
H1792 H 0.53117 0.34053 0.63992 0.0
H1793 H 0.53839 0.27089 0.654 0.0
H1794 H 0.47574 0.33529 0.65559 0.0
H1795 H 0.49679 0.35429 0.67938 0.0
H1796 H 0.50003 0.35592 0.64861 0.0
H1797 H 0.51051 0.24447 0.66945 0.0
H1798 H 0.5007 0.26376 0.69416 0.0
H1799 H 0.48313 0.24897 0.66631 0.0
H1800 H 0.46709 0.31009 0.74086 0.0
H1801 H 0.42201 0.27246 0.67666 0.0
H1802 H 0.512 0.33799 0.71164 0.0
H1803 H 0.51489 0.30913 0.71811 0.0
H1804 H 0.50411 0.33079 0.73965 0.0
H1805 H 0.45645 0.29325 0.63464 0.0
H1806 H 0.43327 0.26833 0.63746 0.0
H1807 H 0.4606 0.26341 0.63682 0.0
C1808 C 0.98894 0.82543 0.60724 0.0
C1809 C 0.99826 0.80515 0.60707 0.0
C1810 C 0.9984 0.84447 0.59598 0.0
C1811 C 0.01699 0.8424 0.58352 0.0
C1812 C 0.02613 0.82156 0.58291 0.0
C1813 C 0.01684 0.80336 0.59513 0.0
C1814 C 0.98875 0.86691 0.59776 0.0
C1815 C 0.04581 0.8186 0.56956 0.0
C1816 C 0.02951 0.87385 0.53234 0.0
C1817 C 0.04833 0.89323 0.54296 0.0
C1818 C 0.0185 0.85775 0.54577 0.0
C1819 C 0.02655 0.86145 0.57032 0.0
C1820 C 0.04492 0.88197 0.58145 0.0
C1821 C 0.05574 0.89762 0.56748 0.0
C1822 C 0.99905 0.83595 0.53336 0.0
C1823 C 0.05358 0.88681 0.60776 0.0
H1824 H 0.97492 0.82703 0.61719 0.0
H1825 H 0.02416 0.78779 0.59551 0.0
H1826 H 0.00195 0.88492 0.6034 0.0
H1827 H 0.98068 0.86609 0.57974 0.0
H1828 H 0.97633 0.86733 0.61087 0.0
H1829 H 0.05019 0.80064 0.56993 0.0
H1830 H 0.04238 0.81895 0.55039 0.0
H1831 H 0.06031 0.8347 0.57782 0.0
H1832 H 0.02393 0.87075 0.51332 0.0
H1833 H 0.07028 0.91289 0.57551 0.0
H1834 H 0.98474 0.83597 0.54388 0.0
H1835 H 0.00336 0.81772 0.53248 0.0
H1836 H 0.99401 0.8367 0.51465 0.0
H1837 H 0.03998 0.88749 0.61929 0.0
H1838 H 0.06672 0.90486 0.61413 0.0
H1839 H 0.06043 0.87102 0.6104 0.0
C1840 C 0.54123 0.82119 0.82202 0.0
C1841 C 0.54766 0.8185 0.84484 0.0
C1842 C 0.52187 0.82825 0.81775 0.0
C1843 C 0.5091 0.83352 0.83706 0.0
C1844 C 0.51621 0.83226 0.86053 0.0
C1845 C 0.53524 0.82416 0.86402 0.0
C1846 C 0.51464 0.829 0.7923 0.0
C1847 C 0.50352 0.83862 0.88179 0.0
C1848 C 0.46794 0.86467 0.81623 0.0
C1849 C 0.45051 0.84331 0.80589 0.0
C1850 C 0.48639 0.86237 0.82951 0.0
C1851 C 0.48748 0.83806 0.83159 0.0
C1852 C 0.469 0.81695 0.82325 0.0
C1853 C 0.45063 0.81986 0.81047 0.0
C1854 C 0.50542 0.88548 0.83947 0.0
C1855 C 0.46951 0.79077 0.8255 0.0
H1856 H 0.55092 0.81683 0.80723 0.0
H1857 H 0.54036 0.82247 0.88179 0.0
H1858 H 0.49855 0.81488 0.78548 0.0
H1859 H 0.51234 0.84797 0.79224 0.0
H1860 H 0.52674 0.82479 0.77952 0.0
H1861 H 0.51452 0.84502 0.89918 0.0
H1862 H 0.4952 0.85363 0.88025 0.0
H1863 H 0.49068 0.82141 0.88247 0.0
H1864 H 0.4675 0.88291 0.81314 0.0
H1865 H 0.43703 0.80336 0.80258 0.0
H1866 H 0.51842 0.88554 0.82707 0.0
H1867 H 0.51283 0.88516 0.85745 0.0
H1868 H 0.5002 0.90331 0.84125 0.0
H1869 H 0.4804 0.78324 0.8127 0.0
H1870 H 0.45284 0.7773 0.82133 0.0
H1871 H 0.47635 0.79151 0.84403 0.0
C1872 C 0.47733 0.17934 0.09587 0.0
C1873 C 0.48904 0.19559 0.11755 0.0
C1874 C 0.48475 0.15872 0.08371 0.0
C1875 C 0.50409 0.15433 0.09371 0.0
C1876 C 0.51586 0.17052 0.11563 0.0
C1877 C 0.50819 0.19098 0.12728 0.0
C1878 C 0.47218 0.14188 0.06002 0.0
C1879 C 0.53677 0.16651 0.12655 0.0
C1880 C 0.51452 0.08954 0.07418 0.0
C1881 C 0.52937 0.09375 0.05739 0.0
C1882 C 0.50584 0.10918 0.08607 0.0
C1883 C 0.51253 0.13325 0.08094 0.0
C1884 C 0.5279 0.1375 0.06421 0.0
C1885 C 0.53615 0.11755 0.0526 0.0
C1886 C 0.48954 0.10424 0.10396 0.0
C1887 C 0.5355 0.16295 0.05839 0.0
H1888 H 0.46263 0.18296 0.08822 0.0
H1889 H 0.51732 0.20343 0.14407 0.0
H1890 H 0.48303 0.1423 0.04535 0.0
H1891 H 0.46695 0.12193 0.06135 0.0
H1892 H 0.45734 0.14777 0.05479 0.0
H1893 H 0.54339 0.18025 0.14431 0.0
H1894 H 0.53368 0.14699 0.1291 0.0
H1895 H 0.54961 0.16855 0.11404 0.0
H1896 H 0.50939 0.07086 0.07757 0.0
H1897 H 0.54807 0.12056 0.03985 0.0
H1898 H 0.47381 0.10801 0.09817 0.0
H1899 H 0.49602 0.11734 0.12203 0.0
H1900 H 0.48605 0.0844 0.10576 0.0
H1901 H 0.52138 0.16732 0.04934 0.0
H1902 H 0.54877 0.1634 0.04629 0.0
H1903 H 0.54168 0.17821 0.07525 0.0
C1904 C 0.18494 0.34893 0.3359 0.0
C1905 C 0.16638 0.32838 0.32801 0.0
C1906 C 0.2053 0.34711 0.32818 0.0
C1907 C 0.2066 0.32445 0.31187 0.0
C1908 C 0.18745 0.30454 0.30233 0.0
C1909 C 0.16746 0.30661 0.31089 0.0
C1910 C 0.2256 0.36857 0.33879 0.0
C1911 C 0.1884 0.28028 0.28471 0.0
C1912 C 0.25948 0.32189 0.28483 0.0
C1913 C 0.27043 0.31392 0.30234 0.0
C1914 C 0.2386 0.32579 0.28776 0.0
C1915 C 0.22825 0.31999 0.30784 0.0
C1916 C 0.23892 0.31071 0.32489 0.0
C1917 C 0.26047 0.30912 0.32258 0.0
C1918 C 0.22822 0.33741 0.2703 0.0
C1919 C 0.22793 0.30322 0.34595 0.0
H1920 H 0.1838 0.3657 0.34922 0.0
H1921 H 0.15279 0.29099 0.30473 0.0
H1922 H 0.23596 0.36267 0.35158 0.0
H1923 H 0.23572 0.3732 0.32432 0.0
H1924 H 0.22136 0.38597 0.34878 0.0
H1925 H 0.17172 0.26855 0.27622 0.0
H1926 H 0.19864 0.28438 0.27018 0.0
H1927 H 0.19618 0.269 0.29445 0.0
H1928 H 0.26782 0.32672 0.26978 0.0
H1929 H 0.26948 0.30383 0.33645 0.0
H1930 H 0.22738 0.3567 0.27991 0.0
H1931 H 0.21108 0.32607 0.26342 0.0
H1932 H 0.23776 0.33902 0.25465 0.0
H1933 H 0.22693 0.32048 0.35952 0.0
H1934 H 0.23714 0.29259 0.355 0.0
H1935 H 0.21086 0.29122 0.33981 0.0
C1936 C 0.97861 0.08473 0.18605 0.0
C1937 C 0.98411 0.07045 0.20175 0.0
C1938 C 0.98715 0.08392 0.1631 0.0
C1939 C 0.00122 0.06789 0.1547 0.0
C1940 C 0.00645 0.05325 0.17039 0.0
C1941 C 0.99826 0.05496 0.19336 0.0
C1942 C 0.98137 0.10065 0.14792 0.0
C1943 C 0.02102 0.03565 0.16298 0.0
C1944 C 0.00767 0.04548 0.08576 0.0
C1945 C 0.02895 0.05971 0.08336 0.0
C1946 C 0.99847 0.04826 0.10831 0.0
C1947 C 0.01037 0.06605 0.12977 0.0
C1948 C 0.03164 0.08088 0.12737 0.0
C1949 C 0.04051 0.07751 0.10462 0.0
C1950 C 0.976 0.03157 0.10928 0.0
C1951 C 0.0452 0.1006 0.14895 0.0
H1952 H 0.96819 0.09724 0.19202 0.0
H1953 H 0.00302 0.04383 0.20493 0.0
H1954 H 0.99656 0.11172 0.14242 0.0
H1955 H 0.97084 0.08872 0.13111 0.0
H1956 H 0.97244 0.11403 0.1577 0.0
H1957 H 0.02247 0.02418 0.17616 0.0
H1958 H 0.01439 0.02259 0.14492 0.0
H1959 H 0.03778 0.04684 0.16139 0.0
H1960 H 0.99818 0.03157 0.06993 0.0
H1961 H 0.05655 0.08924 0.10358 0.0
H1962 H 0.96472 0.04345 0.11588 0.0
H1963 H 0.97724 0.0199 0.12233 0.0
H1964 H 0.96861 0.01872 0.09132 0.0
H1965 H 0.03612 0.11504 0.15566 0.0
H1966 H 0.06152 0.11033 0.14456 0.0
H1967 H 0.04787 0.09174 0.16394 0.0
C1968 C 0.26973 0.65987 0.45474 0.0
C1969 C 0.28092 0.67328 0.47764 0.0
C1970 C 0.26418 0.67276 0.43809 0.0
C1971 C 0.2696 0.69954 0.44491 0.0
C1972 C 0.27998 0.71309 0.46844 0.0
C1973 C 0.28582 0.69974 0.48448 0.0
C1974 C 0.25379 0.65773 0.41289 0.0
C1975 C 0.28547 0.74171 0.47641 0.0
C1976 C 0.2824 0.74013 0.40114 0.0
C1977 C 0.26332 0.74876 0.39989 0.0
C1978 C 0.28398 0.72249 0.41436 0.0
C1979 C 0.26624 0.71385 0.42708 0.0
C1980 C 0.24653 0.7215 0.42501 0.0
C1981 C 0.24527 0.73892 0.41129 0.0
C1982 C 0.30507 0.71421 0.41576 0.0
C1983 C 0.22714 0.71193 0.43788 0.0
H1984 H 0.26609 0.63933 0.44951 0.0
H1985 H 0.2942 0.70996 0.50237 0.0
H1986 H 0.24101 0.66582 0.40603 0.0
H1987 H 0.26671 0.65846 0.40038 0.0
H1988 H 0.24624 0.6375 0.41227 0.0
H1989 H 0.29173 0.7491 0.49597 0.0
H1990 H 0.29824 0.74999 0.46579 0.0
H1991 H 0.27064 0.74837 0.47291 0.0
H1992 H 0.29644 0.74779 0.39242 0.0
H1993 H 0.23031 0.74508 0.40972 0.0
H1994 H 0.30139 0.69333 0.41304 0.0
H1995 H 0.31438 0.72308 0.43401 0.0
H1996 H 0.31584 0.71973 0.40206 0.0
H1997 H 0.22112 0.69099 0.43132 0.0
H1998 H 0.21326 0.72037 0.43495 0.0
H1999 H 0.23228 0.71635 0.45764 0.0
C2000 C 0.65719 0.05016 0.65961 0.0
C2001 C 0.65299 0.02876 0.66894 0.0
C2002 C 0.64433 0.04992 0.63891 0.0
C2003 C 0.62747 0.02777 0.62807 0.0
C2004 C 0.62455 0.00559 0.63642 0.0
C2005 C 0.63738 0.00646 0.6571 0.0
C2006 C 0.648 0.07338 0.62932 0.0
C2007 C 0.60723 0.98139 0.62416 0.0
C2008 C 0.57573 0.03381 0.5983 0.0
C2009 C 0.57867 0.02504 0.57425 0.0
C2010 C 0.59201 0.03525 0.61631 0.0
C2011 C 0.61128 0.02798 0.60942 0.0
C2012 C 0.61369 0.01799 0.58503 0.0
C2013 C 0.59681 0.01594 0.56761 0.0
C2014 C 0.589 0.04541 0.64248 0.0
C2015 C 0.63442 0.01106 0.57696 0.0
H2016 H 0.66968 0.06722 0.66905 0.0
H2017 H 0.63491 0.98986 0.66434 0.0
H2018 H 0.64802 0.06825 0.60934 0.0
H2019 H 0.63431 0.08247 0.63325 0.0
H2020 H 0.66378 0.08749 0.63766 0.0
H2021 H 0.60748 0.96578 0.63304 0.0
H2022 H 0.59058 0.98486 0.62443 0.0
H2023 H 0.60992 0.97505 0.60492 0.0
H2024 H 0.56175 0.04139 0.60287 0.0
H2025 H 0.59871 0.00947 0.5486 0.0
H2026 H 0.6019 0.06331 0.65043 0.0
H2027 H 0.59088 0.03165 0.65312 0.0
H2028 H 0.57258 0.04924 0.6445 0.0
H2029 H 0.64548 0.02777 0.57266 0.0
H2030 H 0.63048 0.9953 0.56025 0.0
H2031 H 0.64362 0.00545 0.59097 0.0
C2032 C 0.33693 0.33104 0.95458 0.0
C2033 C 0.32032 0.33959 0.9669 0.0
C2034 C 0.33497 0.32343 0.92907 0.0
C2035 C 0.31574 0.32378 0.91519 0.0
C2036 C 0.29822 0.33064 0.9275 0.0
C2037 C 0.3008 0.33872 0.9531 0.0
C2038 C 0.35426 0.3168 0.91697 0.0
C2039 C 0.27698 0.33019 0.91356 0.0
C2040 C 0.32099 0.33866 0.85341 0.0
C2041 C 0.31466 0.31459 0.83721 0.0
C2042 C 0.32197 0.3417 0.87862 0.0
C2043 C 0.31523 0.3202 0.88814 0.0
C2044 C 0.30845 0.29572 0.87179 0.0
C2045 C 0.30868 0.29317 0.84656 0.0
C2046 C 0.32997 0.36812 0.89508 0.0
C2047 C 0.30029 0.27231 0.88086 0.0
H2048 H 0.35214 0.33162 0.96482 0.0
H2049 H 0.28773 0.345 0.96227 0.0
H2050 H 0.3487 0.29882 0.90265 0.0
H2051 H 0.36185 0.33192 0.90813 0.0
H2052 H 0.3671 0.31488 0.93003 0.0
H2053 H 0.26455 0.33492 0.92569 0.0
H2054 H 0.28025 0.34395 0.90217 0.0
H2055 H 0.26989 0.31111 0.90118 0.0
H2056 H 0.32517 0.35529 0.84625 0.0
H2057 H 0.3031 0.27454 0.8341 0.0
H2058 H 0.34351 0.36886 0.90875 0.0
H2059 H 0.31636 0.37318 0.90503 0.0
H2060 H 0.33606 0.38261 0.88494 0.0
H2061 H 0.31405 0.26898 0.89152 0.0
H2062 H 0.29327 0.25513 0.86581 0.0
H2063 H 0.28746 0.27499 0.89309 0.0
C2064 C 0.96292 0.0556 0.35729 0.0
C2065 C 0.97574 0.06975 0.34312 0.0
C2066 C 0.97239 0.05032 0.37838 0.0
C2067 C 0.99536 0.06034 0.387 0.0
C2068 C 0.00827 0.07512 0.37294 0.0
C2069 C 0.99858 0.07886 0.3512 0.0
C2070 C 0.9577 0.03334 0.39124 0.0
C2071 C 0.03254 0.08733 0.38067 0.0
C2072 C 0.00999 0.06667 0.45612 0.0
C2073 C 0.02158 0.04808 0.45719 0.0
C2074 C 0.00277 0.07161 0.43399 0.0
C2075 C 0.00532 0.05651 0.41113 0.0
C2076 C 0.01743 0.03806 0.41188 0.0
C2077 C 0.02603 0.0349 0.43453 0.0
C2078 C 0.9927 0.09365 0.43523 0.0
C2079 C 0.0207 0.0208 0.38868 0.0
H2080 H 0.94542 0.04785 0.35142 0.0
H2081 H 0.00903 0.08963 0.3407 0.0
H2082 H 0.96545 0.01832 0.39428 0.0
H2083 H 0.95556 0.04453 0.40926 0.0
H2084 H 0.94115 0.0242 0.38087 0.0
H2085 H 0.03822 0.10453 0.37381 0.0
H2086 H 0.03646 0.09275 0.40067 0.0
H2087 H 0.04212 0.07378 0.37295 0.0
H2088 H 0.00667 0.07799 0.47292 0.0
H2089 H 0.03588 0.02168 0.43427 0.0
H2090 H 0.97492 0.08658 0.42838 0.0
H2091 H 0.00071 0.10563 0.42351 0.0
H2092 H 0.99443 0.10571 0.45398 0.0
H2093 H 0.00442 0.0084 0.37963 0.0
H2094 H 0.03157 0.00864 0.39183 0.0
H2095 H 0.02791 0.03199 0.37605 0.0
C2096 C 0.25916 0.68192 0.5838 0.0
C2097 C 0.27064 0.6635 0.58434 0.0
C2098 C 0.25869 0.70035 0.60505 0.0
C2099 C 0.27039 0.70049 0.62701 0.0
C2100 C 0.28059 0.68074 0.62786 0.0
C2101 C 0.28046 0.66241 0.60651 0.0
C2102 C 0.24726 0.72079 0.60356 0.0
C2103 C 0.29324 0.68013 0.6509 0.0
C2104 C 0.29787 0.7597 0.67647 0.0
C2105 C 0.28463 0.75638 0.695 0.0
C2106 C 0.29248 0.74266 0.65341 0.0
C2107 C 0.27341 0.72191 0.64889 0.0
C2108 C 0.25902 0.71983 0.66688 0.0
C2109 C 0.26471 0.73717 0.6896 0.0
C2110 C 0.30809 0.74578 0.63451 0.0
C2111 C 0.23846 0.69818 0.66279 0.0
H2112 H 0.25211 0.68316 0.5665 0.0
H2113 H 0.28983 0.64853 0.60672 0.0
H2114 H 0.23766 0.72443 0.61914 0.0
H2115 H 0.25979 0.73874 0.60433 0.0
H2116 H 0.23599 0.71571 0.58648 0.0
H2117 H 0.29924 0.66276 0.64879 0.0
H2118 H 0.3077 0.69692 0.65631 0.0
H2119 H 0.28274 0.6811 0.66591 0.0
H2120 H 0.31305 0.7746 0.68029 0.0
H2121 H 0.25398 0.73476 0.70357 0.0
H2122 H 0.29884 0.74408 0.61685 0.0
H2123 H 0.31674 0.73045 0.6319 0.0
H2124 H 0.32066 0.76436 0.63978 0.0
H2125 H 0.22847 0.6966 0.64563 0.0
H2126 H 0.22807 0.70047 0.67786 0.0
H2127 H 0.24315 0.68005 0.66107 0.0
C2128 C 0.65669 0.02201 0.79888 0.0
C2129 C 0.66851 0.04335 0.79219 0.0
C2130 C 0.64496 0.02483 0.81885 0.0
C2131 C 0.64583 0.04958 0.83235 0.0
C2132 C 0.65938 0.07115 0.82675 0.0
C2133 C 0.67031 0.06776 0.80615 0.0
C2134 C 0.63033 1.00154 0.82418 0.0
C2135 C 0.66125 0.09775 0.84166 0.0
C2136 C 0.59668 0.06529 0.8596 0.0
C2137 C 0.60351 0.06936 0.88415 0.0
C2138 C 0.60989 0.05723 0.84227 0.0
C2139 C 0.63027 0.05335 0.84999 0.0
C2140 C 0.63672 0.05608 0.87467 0.0
C2141 C 0.62329 0.06438 0.89161 0.0
C2142 C 0.60255 0.05414 0.81586 0.0
C2143 C 0.6582 0.05146 0.8832 0.0
H2144 H 0.65546 1.0032 0.78756 0.0
H2145 H 0.67978 0.08403 0.80064 0.0
H2146 H 0.63199 1.00269 0.84387 0.0
H2147 H 0.61285 1.00029 0.81859 0.0
H2148 H 0.63417 0.98383 0.8143 0.0
H2149 H 0.67332 0.11229 0.83541 0.0
H2150 H 0.64494 0.10203 0.84069 0.0
H2151 H 0.66641 0.09933 0.86097 0.0
H2152 H 0.58113 0.06864 0.85402 0.0
H2153 H 0.62854 0.06761 0.91075 0.0
H2154 H 0.60398 0.03568 0.80478 0.0
H2155 H 0.61341 0.06933 0.80924 0.0
H2156 H 0.58525 0.05523 0.81285 0.0
H2157 H 0.66044 0.03345 0.87197 0.0
H2158 H 0.65908 0.05066 0.90248 0.0
H2159 H 0.67218 0.06697 0.88124 0.0
C2160 C 0.329 0.36042 0.11716 0.0
C2161 C 0.31221 0.3518 0.09762 0.0
C2162 C 0.32512 0.3567 0.1402 0.0
C2163 C 0.30398 0.34328 0.14396 0.0
C2164 C 0.28684 0.33433 0.12428 0.0
C2165 C 0.29103 0.33919 0.10145 0.0
C2166 C 0.34389 0.36686 0.16049 0.0
C2167 C 0.26428 0.31921 0.12725 0.0
C2168 C 0.30777 0.31144 0.19536 0.0
C2169 C 0.30212 0.32801 0.21498 0.0
C2170 C 0.30694 0.31528 0.17196 0.0
C2171 C 0.30087 0.33682 0.1679 0.0
C2172 C 0.29489 0.35365 0.18763 0.0
C2173 C 0.29571 0.34913 0.21104 0.0
C2174 C 0.31355 0.29677 0.15181 0.0
C2175 C 0.28837 0.37688 0.18423 0.0
H2176 H 0.34531 0.37066 0.11456 0.0
H2177 H 0.27794 0.33264 0.08651 0.0
H2178 H 0.33871 0.37839 0.17662 0.0
H2179 H 0.34848 0.35085 0.16596 0.0
H2180 H 0.35876 0.37875 0.1552 0.0
H2181 H 0.25284 0.31323 0.11022 0.0
H2182 H 0.26562 0.30202 0.13308 0.0
H2183 H 0.25707 0.33065 0.14165 0.0
H2184 H 0.31369 0.29575 0.19848 0.0
H2185 H 0.29141 0.36205 0.22616 0.0
H2186 H 0.32965 0.30598 0.14662 0.0
H2187 H 0.30127 0.29105 0.13551 0.0
H2188 H 0.31512 0.27941 0.15722 0.0
H2189 H 0.30322 0.39113 0.18192 0.0
H2190 H 0.28076 0.38564 0.19998 0.0
H2191 H 0.27659 0.37209 0.16762 0.0
C2192 C 0.26945 0.9987 0.0427 0.0
C2193 C 0.27735 0.98671 0.02211 0.0
C2194 C 0.25006 0.00625 0.04078 0.0
C2195 C 0.23864 1.00214 0.01752 0.0
C2196 C 0.24673 0.9903 0.99652 0.0
C2197 C 0.26604 0.98239 0.9991 0.0
C2198 C 0.24186 0.01854 0.06377 0.0
C2199 C 0.23545 0.98669 0.97148 0.0
C2200 C 0.18154 1.00296 0.02944 0.0
C2201 C 0.1841 0.02912 0.03543 0.0
C2202 C 0.19835 0.99295 0.01963 0.0
C2203 C 0.2179 0.00977 0.01603 0.0
C2204 C 0.21899 0.03575 0.01864 0.0
C2205 C 0.20203 0.04529 0.02874 0.0
C2206 C 0.1966 0.96512 0.01693 0.0
C2207 C 0.23939 0.05403 0.01429 0.0
H2208 H 0.27839 1.00201 0.06043 0.0
H2209 H 0.27265 0.97357 0.98318 0.0
H2210 H 0.24126 0.03809 0.06356 0.0
H2211 H 0.22489 0.00768 0.06504 0.0
H2212 H 0.25254 0.01961 0.08032 0.0
H2213 H 0.24209 0.97414 0.95738 0.0
H2214 H 0.21741 0.9786 0.97056 0.0
H2215 H 0.23794 0.00541 0.96719 0.0
H2216 H 0.16748 0.99067 0.03469 0.0
H2217 H 0.20372 0.06558 0.03342 0.0
H2218 H 0.20591 0.96281 0.03297 0.0
H2219 H 0.20388 0.95713 1.00063 0.0
H2220 H 0.17919 0.95402 0.01569 0.0
H2221 H 0.2519 0.05952 0.03038 0.0
H2222 H 0.23571 0.07158 0.0113 0.0
H2223 H 0.24674 0.04513 0.99843 0.0
C2224 C 0.71947 0.63056 0.01535 0.0
C2225 C 0.72673 0.6444 0.99843 0.0
C2226 C 0.69706 0.61855 0.01503 0.0
C2227 C 0.68137 0.61957 0.99679 0.0
C2228 C 0.68855 0.63364 0.97964 0.0
C2229 C 0.71112 0.64622 0.98086 0.0
C2230 C 0.69027 0.60451 0.03416 0.0
C2231 C 0.67241 0.63501 0.95977 0.0
C2232 C 0.62758 0.56682 0.98537 0.0
C2233 C 0.61356 0.57898 0.99905 0.0
C2234 C 0.64941 0.57997 0.98376 0.0
C2235 C 0.65751 0.60602 0.99602 0.0
C2236 C 0.64319 0.6186 0.00912 0.0
C2237 C 0.62153 0.60502 0.01044 0.0
C2238 C 0.66404 0.56578 0.96951 0.0
C2239 C 0.65103 0.64618 0.02279 0.0
H2240 H 0.73144 0.62915 0.02901 0.0
H2241 H 0.71666 0.65663 0.96756 0.0
H2242 H 0.67685 0.61113 0.0433 0.0
H2243 H 0.68377 0.58394 0.02555 0.0
H2244 H 0.70421 0.60712 0.04812 0.0
H2245 H 0.68063 0.64581 0.94725 0.0
H2246 H 0.66357 0.61558 0.94916 0.0
H2247 H 0.65981 0.64421 0.96779 0.0
H2248 H 0.62173 0.54686 0.97634 0.0
H2249 H 0.61101 0.61486 0.02105 0.0
H2250 H 0.67797 0.56508 0.98188 0.0
H2251 H 0.67122 0.57589 0.95605 0.0
H2252 H 0.655 0.54604 0.95989 0.0
H2253 H 0.66323 0.64821 0.03838 0.0
H2254 H 0.63729 0.65394 0.02977 0.0
H2255 H 0.65943 0.65782 0.01104 0.0
C2256 C 0.74264 0.45285 0.26957 0.0
C2257 C 0.71933 0.44835 0.267 0.0
C2258 C 0.7538 0.43313 0.26919 0.0
C2259 C 0.74194 0.40741 0.26716 0.0
C2260 C 0.71838 0.40267 0.26447 0.0
C2261 C 0.70761 0.42269 0.26429 0.0
C2262 C 0.77865 0.44008 0.27161 0.0
C2263 C 0.7043 0.37635 0.26283 0.0
C2264 C 0.77145 0.35092 0.25243 0.0
C2265 C 0.77639 0.34657 0.27534 0.0
C2266 C 0.76048 0.37014 0.24944 0.0
C2267 C 0.75405 0.38631 0.26968 0.0
C2268 C 0.75949 0.38218 0.29277 0.0
C2269 C 0.77007 0.36272 0.29518 0.0
C2270 C 0.75539 0.37283 0.22427 0.0
C2271 C 0.75399 0.39843 0.31536 0.0
H2272 H 0.75241 0.47225 0.27239 0.0
H2273 H 0.68979 0.41834 0.26324 0.0
H2274 H 0.78517 0.43622 0.28841 0.0
H2275 H 0.78438 0.42816 0.25618 0.0
H2276 H 0.7858 0.46036 0.27214 0.0
H2277 H 0.68649 0.37463 0.25836 0.0
H2278 H 0.70948 0.36219 0.2489 0.0
H2279 H 0.70659 0.37154 0.28044 0.0
H2280 H 0.77568 0.33887 0.23662 0.0
H2281 H 0.77345 0.3601 0.31309 0.0
H2282 H 0.76317 0.39247 0.22323 0.0
H2283 H 0.73731 0.36942 0.22004 0.0
H2284 H 0.76132 0.35937 0.21031 0.0
H2285 H 0.76237 0.41867 0.31709 0.0
H2286 H 0.75905 0.39319 0.33202 0.0
H2287 H 0.73598 0.39663 0.31408 0.0
C2288 C 0.89772 0.5102 0.50186 0.0
C2289 C 0.89194 0.50608 0.52411 0.0
C2290 C 0.91935 0.51194 0.49652 0.0
C2291 C 0.93489 0.50889 0.51365 0.0
C2292 C 0.92939 0.50679 0.53689 0.0
C2293 C 0.90805 0.50641 0.54212 0.0
C2294 C 0.92548 0.51641 0.47252 0.0
C2295 C 0.9456 0.50367 0.55584 0.0
C2296 C 0.9857 0.48642 0.50097 0.0
C2297 C 0.00171 0.50897 0.51147 0.0
C2298 C 0.96333 0.48638 0.49924 0.0
C2299 C 0.95744 0.50939 0.50835 0.0
C2300 C 0.97371 0.53223 0.51774 0.0
C2301 C 0.99544 0.53139 0.51999 0.0
C2302 C 0.94604 0.46159 0.48956 0.0
C2303 C 0.96834 0.55724 0.52788 0.0
H2304 H 0.88513 0.51015 0.4881 0.0
H2305 H 0.90338 0.50371 0.55954 0.0
H2306 H 0.93841 0.53452 0.47589 0.0
H2307 H 0.93235 0.501 0.46276 0.0
H2308 H 0.91125 0.51758 0.46085 0.0
H2309 H 0.93759 0.49879 0.5716 0.0
H2310 H 0.95358 0.48853 0.54791 0.0
H2311 H 0.95879 0.52155 0.56258 0.0
H2312 H 0.99058 0.46896 0.4948 0.0
H2313 H 0.0073 0.54827 0.52984 0.0
H2314 H 0.93297 0.46388 0.47707 0.0
H2315 H 0.93808 0.45551 0.50486 0.0
H2316 H 0.95322 0.44637 0.47985 0.0
H2317 H 0.95372 0.55897 0.51731 0.0
H2318 H 0.98247 0.57361 0.52804 0.0
H2319 H 0.96468 0.55856 0.54687 0.0
C2320 C 0.3834 0.09563 0.29289 0.0
C2321 C 0.37784 0.09343 0.31588 0.0
C2322 C 0.3698 0.10295 0.27762 0.0
C2323 C 0.3504 0.10861 0.28583 0.0
C2324 C 0.3441 0.10528 0.30853 0.0
C2325 C 0.35794 0.0974 0.32336 0.0
C2326 C 0.37712 0.10635 0.25352 0.0
C2327 C 0.32358 0.11162 0.31774 0.0
C2328 C 0.33895 0.16151 0.26251 0.0
C2329 C 0.32103 0.14876 0.24466 0.0
C2330 C 0.34772 0.14873 0.27702 0.0
C2331 C 0.33919 0.12225 0.27256 0.0
C2332 C 0.32177 0.10892 0.25401 0.0
C2333 C 0.31263 0.12248 0.24032 0.0
C2334 C 0.36645 0.16353 0.2967 0.0
C2335 C 0.31334 0.08041 0.24822 0.0
H2336 H 0.39852 0.09167 0.28674 0.0
H2337 H 0.35362 0.09514 0.341 0.0
H2338 H 0.36294 0.09994 0.23913 0.0
H2339 H 0.3847 0.12677 0.25513 0.0
H2340 H 0.38957 0.09579 0.24771 0.0
H2341 H 0.31954 0.1048 0.33417 0.0
H2342 H 0.32609 0.13252 0.32234 0.0
H2343 H 0.30929 0.1032 0.30352 0.0
H2344 H 0.34618 0.18167 0.26525 0.0
H2345 H 0.29893 0.11263 0.22639 0.0
H2346 H 0.38189 0.15833 0.29193 0.0
H2347 H 0.36293 0.15883 0.31418 0.0
H2348 H 0.3694 0.18437 0.2994 0.0
H2349 H 0.32635 0.07163 0.24066 0.0
H2350 H 0.29833 0.07321 0.23486 0.0
H2351 H 0.30959 0.07412 0.26493 0.0
C2352 C 0.34966 0.15118 0.53463 0.0
C2353 C 0.34517 0.15854 0.51355 0.0
C2354 C 0.36763 0.14084 0.5373 0.0
C2355 C 0.38071 0.13685 0.51798 0.0
C2356 C 0.37611 0.14425 0.4966 0.0
C2357 C 0.3586 0.15543 0.49484 0.0
C2358 C 0.37254 0.13402 0.5607 0.0
C2359 C 0.38904 0.13944 0.47524 0.0
C2360 C 0.43584 0.12438 0.5338 0.0
C2361 C 0.42987 0.09789 0.52917 0.0
C2362 C 0.42023 0.13744 0.52923 0.0
C2363 C 0.3983 0.12353 0.51977 0.0
C2364 C 0.3927 0.09667 0.51366 0.0
C2365 C 0.40853 0.08417 0.51871 0.0
C2366 C 0.42687 0.16608 0.53573 0.0
C2367 C 0.36971 0.08113 0.50289 0.0
H2368 H 0.33935 0.15388 0.54912 0.0
H2369 H 0.35491 0.16099 0.47842 0.0
H2370 H 0.37043 0.11325 0.55722 0.0
H2371 H 0.38995 0.14344 0.56834 0.0
H2372 H 0.36163 0.13967 0.57443 0.0
H2373 H 0.38496 0.14879 0.46106 0.0
H2374 H 0.40703 0.14624 0.48111 0.0
H2375 H 0.3853 0.11872 0.46704 0.0
H2376 H 0.45239 0.13487 0.54207 0.0
H2377 H 0.40404 0.06365 0.51526 0.0
H2378 H 0.41799 0.17341 0.55092 0.0
H2379 H 0.42213 0.17321 0.52018 0.0
H2380 H 0.44489 0.17397 0.5412 0.0
H2381 H 0.35806 0.08377 0.51659 0.0
H2382 H 0.36872 0.06056 0.49678 0.0
H2383 H 0.36415 0.0876 0.48723 0.0
C2384 C 0.73683 0.5898 0.26781 0.0
C2385 C 0.71906 0.58552 0.28171 0.0
C2386 C 0.74816 0.61471 0.26635 0.0
C2387 C 0.74206 0.63659 0.27928 0.0
C2388 C 0.72386 0.63222 0.29304 0.0
C2389 C 0.71279 0.60712 0.29408 0.0
C2390 C 0.76684 0.61761 0.25089 0.0
C2391 C 0.71598 0.65421 0.3068 0.0
C2392 C 0.78551 0.7028 0.29334 0.0
C2393 C 0.77799 0.71513 0.27692 0.0
C2394 C 0.77393 0.67788 0.2946 0.0
C2395 C 0.75455 0.66379 0.27843 0.0
C2396 C 0.74714 0.67603 0.26155 0.0
C2397 C 0.7585 0.70128 0.26136 0.0
C2398 C 0.78234 0.66673 0.31368 0.0
C2399 C 0.72745 0.66217 0.24298 0.0
H2400 H 0.74207 0.57356 0.25817 0.0
H2401 H 0.69915 0.60439 0.30487 0.0
H2402 H 0.76426 0.62921 0.23819 0.0
H2403 H 0.78257 0.62775 0.26257 0.0
H2404 H 0.76849 0.59901 0.24026 0.0
H2405 H 0.70307 0.64824 0.31835 0.0
H2406 H 0.73001 0.66889 0.31842 0.0
H2407 H 0.70905 0.66316 0.29386 0.0
H2408 H 0.80027 0.7129 0.30573 0.0
H2409 H 0.75214 0.71 0.24849 0.0
H2410 H 0.78719 0.64934 0.30492 0.0
H2411 H 0.76901 0.66111 0.32486 0.0
H2412 H 0.79676 0.68025 0.32577 0.0
H2413 H 0.73181 0.64678 0.22968 0.0
H2414 H 0.72204 0.67491 0.23301 0.0
H2415 H 0.71336 0.65316 0.25161 0.0
C2416 C 0.88018 0.47681 0.7759 0.0
C2417 C 0.89438 0.48558 0.79755 0.0
C2418 C 0.86822 0.45122 0.76833 0.0
C2419 C 0.87093 0.43447 0.78274 0.0
C2420 C 0.88621 0.44316 0.80385 0.0
C2421 C 0.89762 0.46868 0.8111 0.0
C2422 C 0.85227 0.44227 0.74545 0.0
C2423 C 0.88965 0.42591 0.8196 0.0
C2424 C 0.82503 0.37566 0.77892 0.0
C2425 C 0.83456 0.35688 0.76726 0.0
C2426 C 0.83684 0.40119 0.78451 0.0
C2427 C 0.85772 0.40786 0.77612 0.0
C2428 C 0.86665 0.38889 0.76269 0.0
C2429 C 0.85513 0.36351 0.7589 0.0
C2430 C 0.82721 0.42085 0.79977 0.0
C2431 C 0.88833 0.39539 0.75241 0.0
H2432 H 0.8778 0.49007 0.76552 0.0
H2433 H 0.90889 0.47559 0.8277 0.0
H2434 H 0.85503 0.42481 0.73367 0.0
H2435 H 0.83513 0.43739 0.75011 0.0
H2436 H 0.8538 0.45694 0.73503 0.0
H2437 H 0.90375 0.43503 0.83401 0.0
H2438 H 0.8745 0.42091 0.8283 0.0
H2439 H 0.89242 0.40807 0.80865 0.0
H2440 H 0.80841 0.37039 0.7835 0.0
H2441 H 0.86203 0.34883 0.74891 0.0
H2442 H 0.82643 0.4359 0.79039 0.0
H2443 H 0.83805 0.43003 0.8171 0.0
H2444 H 0.8104 0.4125 0.80396 0.0
H2445 H 0.88759 0.4084 0.74057 0.0
H2446 H 0.89254 0.37829 0.74166 0.0
H2447 H 0.90184 0.40545 0.76726 0.0
C2448 C 0.10106 0.89112 0.05814 0.0
C2449 C 0.08291 0.87671 0.06651 0.0
C2450 C 0.099 0.91157 0.04799 0.0
C2451 C 0.07854 0.91824 0.04666 0.0
C2452 C 0.06034 0.90372 0.05508 0.0
C2453 C 0.06272 0.88344 0.06466 0.0
C2454 C 0.11874 0.92613 0.03871 0.0
C2455 C 0.03815 0.90966 0.05413 0.0
C2456 C 0.07656 0.98639 0.04761 0.0
C2457 C 0.0701 0.98485 0.02329 0.0
C2458 C 0.0798 0.96514 0.05517 0.0
C2459 C 0.07617 0.9413 0.03815 0.0
C2460 C 0.06875 0.93941 0.01362 0.0
C2461 C 0.06628 0.96127 0.00642 0.0
C2462 C 0.08732 0.96832 0.08151 0.0
C2463 C 0.06385 0.91444 0.9948 0.0
H2464 H 0.11669 0.88627 0.0592 0.0
H2465 H 0.04843 0.87297 0.0712 0.0
H2466 H 0.11434 0.92662 0.01977 0.0
H2467 H 0.12382 0.94605 0.04977 0.0
H2468 H 0.13297 0.91769 0.03926 0.0
H2469 H 0.0256 0.89675 0.06162 0.0
H2470 H 0.03973 0.92946 0.06448 0.0
H2471 H 0.03204 0.90802 0.0351 0.0
H2472 H 0.07972 1.00453 0.06074 0.0
H2473 H 0.06161 0.95997 0.98752 0.0
H2474 H 0.10291 0.96257 0.08316 0.0
H2475 H 0.07481 0.95578 0.08936 0.0
H2476 H 0.09004 0.98819 0.09238 0.0
H2477 H 0.07956 0.90948 0.99087 0.0
H2478 H 0.05516 0.9152 0.97763 0.0
H2479 H 0.05359 0.89899 0.00158 0.0
C2480 C 0.95608 0.26813 0.85937 0.0
C2481 C 0.95597 0.26641 0.88359 0.0
C2482 C 0.93707 0.26902 0.84556 0.0
C2483 C 0.91715 0.26891 0.85613 0.0
C2484 C 0.91683 0.26701 0.88058 0.0
C2485 C 0.93604 0.26543 0.89385 0.0
C2486 C 0.93856 0.27063 0.81964 0.0
C2487 C 0.89615 0.2669 0.8928 0.0
C2488 C 0.87652 0.30073 0.83048 0.0
C2489 C 0.86083 0.28027 0.81482 0.0
C2490 C 0.89485 0.29728 0.84353 0.0
C2491 C 0.89733 0.27252 0.84211 0.0
C2492 C 0.88126 0.25162 0.82668 0.0
C2493 C 0.86361 0.25577 0.81284 0.0
C2494 C 0.91181 0.32035 0.85866 0.0
C2495 C 0.88269 0.22481 0.82472 0.0
H2496 H 0.97117 0.26853 0.85097 0.0
H2497 H 0.93559 0.26402 0.91244 0.0
H2498 H 0.92474 0.25623 0.80745 0.0
H2499 H 0.93718 0.28955 0.81804 0.0
H2500 H 0.95434 0.26775 0.81324 0.0
H2501 H 0.89839 0.26545 0.91181 0.0
H2502 H 0.89109 0.28453 0.8928 0.0
H2503 H 0.88248 0.25072 0.88254 0.0
H2504 H 0.87488 0.31974 0.83223 0.0
H2505 H 0.85169 0.23975 0.80088 0.0
H2506 H 0.92828 0.32066 0.85245 0.0
H2507 H 0.91305 0.31948 0.87788 0.0
H2508 H 0.90782 0.33835 0.85764 0.0
H2509 H 0.89722 0.22168 0.8155 0.0
H2510 H 0.8677 0.21057 0.81438 0.0
H2511 H 0.88499 0.22157 0.84304 0.0
C2512 C 0.56023 0.22718 0.54905 0.0
C2513 C 0.57864 0.24544 0.56306 0.0
C2514 C 0.55984 0.20132 0.542 0.0
C2515 C 0.57847 0.19331 0.54873 0.0
C2516 C 0.59789 0.21187 0.56069 0.0
C2517 C 0.59769 0.23764 0.56797 0.0
C2518 C 0.53862 0.18249 0.52937 0.0
C2519 C 0.61849 0.20426 0.56696 0.0
C2520 C 0.56643 0.12986 0.56543 0.0
C2521 C 0.56819 0.1129 0.54381 0.0
C2522 C 0.56983 0.15591 0.56714 0.0
C2523 C 0.57628 0.16572 0.5471 0.0
C2524 C 0.5791 0.14886 0.52551 0.0
C2525 C 0.57424 0.12258 0.52386 0.0
C2526 C 0.56548 0.17276 0.59013 0.0
C2527 C 0.58673 0.15845 0.50398 0.0
H2528 H 0.54544 0.23278 0.54479 0.0
H2529 H 0.61218 0.25149 0.57836 0.0
H2530 H 0.54179 0.16672 0.51549 0.0
H2531 H 0.52955 0.17412 0.54294 0.0
H2532 H 0.52781 0.19165 0.5205 0.0
H2533 H 0.63294 0.22094 0.57357 0.0
H2534 H 0.6158 0.19375 0.58126 0.0
H2535 H 0.62236 0.19132 0.55087 0.0
H2536 H 0.56131 0.12254 0.58081 0.0
H2537 H 0.57474 0.10963 0.50678 0.0
H2538 H 0.55257 0.18209 0.58592 0.0
H2539 H 0.58064 0.18796 0.59827 0.0
H2540 H 0.55994 0.16208 0.60381 0.0
H2541 H 0.57451 0.16718 0.49699 0.0
H2542 H 0.58918 0.14308 0.48903 0.0
H2543 H 0.60251 0.1734 0.50955 0.0
C2544 C 0.5839 0.78289 0.36236 0.0
C2545 C 0.57969 0.77553 0.38385 0.0
C2546 C 0.60515 0.78739 0.35508 0.0
C2547 C 0.62278 0.78393 0.36931 0.0
C2548 C 0.61873 0.77653 0.39115 0.0
C2549 C 0.59725 0.77271 0.39833 0.0
C2550 C 0.60866 0.79574 0.33192 0.0
C2551 C 0.63701 0.77256 0.40683 0.0
C2552 C 0.66833 0.77367 0.33019 0.0
C2553 C 0.68109 0.79864 0.33355 0.0
C2554 C 0.65034 0.76809 0.34349 0.0
C2555 C 0.64516 0.78793 0.36068 0.0
C2556 C 0.6595 0.81269 0.36588 0.0
C2557 C 0.6771 0.81782 0.35201 0.0
C2558 C 0.63573 0.74136 0.33754 0.0
C2559 C 0.65514 0.83436 0.38447 0.0
H2560 H 0.57049 0.78531 0.35116 0.0
H2561 H 0.5941 0.76692 0.41494 0.0
H2562 H 0.62159 0.81395 0.33566 0.0
H2563 H 0.61447 0.78145 0.3188 0.0
H2564 H 0.59337 0.7983 0.32331 0.0
H2565 H 0.63083 0.76465 0.42205 0.0
H2566 H 0.64556 0.75954 0.39583 0.0
H2567 H 0.64946 0.79091 0.41444 0.0
H2568 H 0.67136 0.75884 0.31589 0.0
H2569 H 0.68706 0.83714 0.35474 0.0
H2570 H 0.62012 0.74051 0.32695 0.0
H2571 H 0.6314 0.73558 0.35436 0.0
H2572 H 0.64369 0.72753 0.32672 0.0
H2573 H 0.64224 0.84145 0.37634 0.0
H2574 H 0.6702 0.85034 0.39057 0.0
H2575 H 0.64903 0.82811 0.4005 0.0
C2576 C 0.07323 0.25108 0.41823 0.0
C2577 C 0.09402 0.26631 0.41677 0.0
C2578 C 0.07062 0.23493 0.43361 0.0
C2579 C 0.08944 0.23373 0.44753 0.0
C2580 C 0.11078 0.2473 0.44446 0.0
C2581 C 0.11287 0.26366 0.42896 0.0
C2582 C 0.04752 0.22086 0.4364 0.0
C2583 C 0.13114 0.2455 0.45844 0.0
C2584 C 0.07302 0.21882 0.50587 0.0
C2585 C 0.06799 0.19231 0.49928 0.0
C2586 C 0.08184 0.2329 0.48975 0.0
C2587 C 0.08604 0.22007 0.46674 0.0
C2588 C 0.08256 0.19349 0.46067 0.0
C2589 C 0.07317 0.17986 0.47681 0.0
C2590 C 0.08506 0.2613 0.49664 0.0
C2591 C 0.08708 0.17927 0.43637 0.0
H2592 H 0.05874 0.25308 0.40844 0.0
H2593 H 0.12893 0.27554 0.42769 0.0
H2594 H 0.04621 0.20034 0.4337 0.0
H2595 H 0.04362 0.22808 0.45502 0.0
H2596 H 0.03485 0.22312 0.42334 0.0
H2597 H 0.14649 0.25757 0.45421 0.0
H2598 H 0.13015 0.25129 0.4782 0.0
H2599 H 0.13219 0.22552 0.45414 0.0
H2600 H 0.06943 0.22854 0.52333 0.0
H2601 H 0.06897 0.15932 0.47123 0.0
H2602 H 0.07268 0.26631 0.48539 0.0
H2603 H 0.10163 0.27111 0.49304 0.0
H2604 H 0.0832 0.26858 0.51602 0.0
H2605 H 0.07384 0.17816 0.4222 0.0
H2606 H 0.08767 0.15962 0.43633 0.0
H2607 H 0.10292 0.18933 0.43128 0.0
C2608 C 0.58045 0.27103 0.18804 0.0
C2609 C 0.56261 0.25822 0.19798 0.0
C2610 C 0.60173 0.2683 0.19302 0.0
C2611 C 0.60491 0.25241 0.20815 0.0
C2612 C 0.58672 0.23852 0.21714 0.0
C2613 C 0.56584 0.24162 0.21195 0.0
C2614 C 0.62082 0.28282 0.1827 0.0
C2615 C 0.58941 0.2213 0.23333 0.0
C2616 C 0.65382 0.22752 0.21937 0.0
C2617 C 0.6622 0.24268 0.24262 0.0
C2618 C 0.6363 0.2321 0.20642 0.0
C2619 C 0.62721 0.25216 0.21727 0.0
C2620 C 0.63698 0.26873 0.23996 0.0
C2621 C 0.65441 0.26368 0.25245 0.0
C2622 C 0.62651 0.21438 0.18206 0.0
C2623 C 0.6279 0.29052 0.25197 0.0
H2624 H 0.57789 0.28356 0.17689 0.0
H2625 H 0.55206 0.23128 0.21932 0.0
H2626 H 0.63339 0.29552 0.19756 0.0
H2627 H 0.62892 0.2694 0.17155 0.0
H2628 H 0.61554 0.29442 0.17129 0.0
H2629 H 0.57333 0.2107 0.23751 0.0
H2630 H 0.59828 0.20737 0.22462 0.0
H2631 H 0.59939 0.23272 0.25066 0.0
H2632 H 0.66054 0.21174 0.21168 0.0
H2633 H 0.66159 0.27572 0.27021 0.0
H2634 H 0.62183 0.22496 0.16931 0.0
H2635 H 0.61131 0.20056 0.18425 0.0
H2636 H 0.63814 0.20362 0.17394 0.0
H2637 H 0.62497 0.30162 0.23894 0.0
H2638 H 0.63916 0.30351 0.26788 0.0
H2639 H 0.6118 0.28293 0.25819 0.0
C2640 C 0.60742 0.89942 0.8998 0.0
C2641 C 0.61076 0.88079 0.911 0.0
C2642 C 0.60813 0.92366 0.91381 0.0
C2643 C 0.61182 0.9287 0.93937 0.0
C2644 C 0.61798 0.91083 0.95035 0.0
C2645 C 0.61749 0.88693 0.93585 0.0
C2646 C 0.60188 0.94251 0.90152 0.0
C2647 C 0.62151 0.91518 0.97754 0.0
C2648 C 0.61021 0.9921 0.97916 0.0
C2649 C 0.58771 0.98765 0.98144 0.0
C2650 C 0.61848 0.97315 0.96516 0.0
C2651 C 0.60385 0.94917 0.9543 0.0
C2652 C 0.58117 0.94439 0.95761 0.0
C2653 C 0.57331 0.96397 0.97088 0.0
C2654 C 0.64261 0.97887 0.9616 0.0
C2655 C 0.56512 0.91872 0.94705 0.0
H2656 H 0.60198 0.8943 0.88052 0.0
H2657 H 0.61978 0.87214 0.94431 0.0
H2658 H 0.58412 0.94149 0.90253 0.0
H2659 H 0.61143 0.96217 0.91067 0.0
H2660 H 0.60463 0.93838 0.8821 0.0
H2661 H 0.63141 0.9029 0.98282 0.0
H2662 H 0.62984 0.93525 0.98659 0.0
H2663 H 0.60524 0.91044 0.98442 0.0
H2664 H 0.62116 0.01049 0.98789 0.0
H2665 H 0.55597 0.96065 0.97338 0.0
H2666 H 0.64436 0.97638 0.94201 0.0
H2667 H 0.65038 0.96535 0.9679 0.0
H2668 H 0.65174 0.99851 0.97145 0.0
H2669 H 0.56292 0.91483 0.92701 0.0
H2670 H 0.54867 0.91761 0.9536 0.0
H2671 H 0.5716 0.90351 0.95181 0.0
C2672 C 0.9361 0.73949 0.70796 0.0
C2673 C 0.95481 0.75934 0.70956 0.0
C2674 C 0.91939 0.74343 0.72243 0.0
C2675 C 0.92162 0.76789 0.73774 0.0
C2676 C 0.94103 0.78749 0.73997 0.0
C2677 C 0.95761 0.78278 0.72597 0.0
C2678 C 0.89885 0.72211 0.7202 0.0
C2679 C 0.94342 0.81407 0.75524 0.0
C2680 C 0.86876 0.78677 0.74344 0.0
C2681 C 0.86566 0.78638 0.76734 0.0
C2682 C 0.88742 0.78162 0.73384 0.0
C2683 C 0.90248 0.77437 0.74825 0.0
C2684 C 0.89941 0.77382 0.77248 0.0
C2685 C 0.88086 0.78006 0.78189 0.0
C2686 C 0.89051 0.7831 0.70808 0.0
C2687 C 0.91495 0.76534 0.78787 0.0
H2688 H 0.93426 0.72143 0.69499 0.0
H2689 H 0.97228 0.79796 0.7267 0.0
H2690 H 0.89347 0.7215 0.73831 0.0
H2691 H 0.88522 0.72533 0.70921 0.0
H2692 H 0.90146 0.70339 0.71132 0.0
H2693 H 0.96025 0.82659 0.7562 0.0
H2694 H 0.93146 0.82249 0.74729 0.0
H2695 H 0.9396 0.81374 0.77391 0.0
H2696 H 0.85604 0.78994 0.73183 0.0
H2697 H 0.87768 0.77885 0.80012 0.0
H2698 H 0.88836 0.76377 0.69631 0.0
H2699 H 0.90742 0.79438 0.70714 0.0
H2700 H 0.87849 0.79185 0.70059 0.0
H2701 H 0.91291 0.74466 0.78077 0.0
H2702 H 0.91172 0.76902 0.80714 0.0
H2703 H 0.93236 0.77502 0.78695 0.0
C2704 C 0.15096 0.02361 0.85395 0.0
C2705 C 0.13878 0.01412 0.83074 0.0
C2706 C 0.14052 0.02613 0.87585 0.0
C2707 C 0.11709 0.01789 0.87534 0.0
C2708 C 0.10482 0.0076 0.85191 0.0
C2709 C 0.11558 0.00644 0.83034 0.0
C2710 C 0.15474 0.03795 0.89976 0.0
C2711 C 0.08008 0.9975 0.84948 0.0
C2712 C 0.09271 1.00445 0.93463 0.0
C2713 C 0.08504 0.02594 0.94429 0.0
C2714 C 0.10261 1.00139 0.9124 0.0
C2715 C 0.10553 0.02035 0.899 0.0
C2716 C 0.0973 0.0418 0.90854 0.0
C2717 C 0.08729 0.04422 0.93061 0.0
C2718 C 0.11 0.97764 0.90322 0.0
C2719 C 0.09961 0.06281 0.89573 0.0
H2720 H 0.16877 0.02974 0.85504 0.0
H2721 H 0.10564 0.99879 0.81288 0.0
H2722 H 0.14838 0.05327 0.91068 0.0
H2723 H 0.15412 0.02346 0.91021 0.0
H2724 H 0.17222 0.046 0.89742 0.0
H2725 H 0.07306 0.98731 0.83053 0.0
H2726 H 0.07545 0.98437 0.86132 0.0
H2727 H 0.0724 0.01339 0.85544 0.0
H2728 H 0.09112 0.98996 0.94459 0.0
H2729 H 0.08139 0.06086 0.9374 0.0
H2730 H 0.12822 0.98254 0.90366 0.0
H2731 H 0.10293 0.9686 0.88408 0.0
H2732 H 0.10505 0.96366 0.91419 0.0
H2733 H 0.11735 0.07255 0.89668 0.0
H2734 H 0.09077 0.07705 0.90388 0.0
H2735 H 0.09318 0.05502 0.8763 0.0
C2736 C 0.82919 0.37796 0.5596 0.0
C2737 C 0.83159 0.40405 0.56656 0.0
C2738 C 0.83207 0.36486 0.57709 0.0
C2739 C 0.83838 0.37867 0.60158 0.0
C2740 C 0.83928 0.40474 0.60876 0.0
C2741 C 0.8354 0.41707 0.59103 0.0
C2742 C 0.83022 0.33676 0.56916 0.0
C2743 C 0.84663 0.42019 0.63457 0.0
C2744 C 0.83724 0.33913 0.64642 0.0
C2745 C 0.85909 0.33705 0.64803 0.0
C2746 C 0.83058 0.35393 0.63244 0.0
C2747 C 0.84593 0.36621 0.61916 0.0
C2748 C 0.86818 0.36504 0.62129 0.0
C2749 C 0.87454 0.35045 0.63584 0.0
C2750 C 0.80686 0.35539 0.63096 0.0
C2751 C 0.88504 0.37834 0.60747 0.0
H2752 H 0.82679 0.36828 0.5405 0.0
H2753 H 0.8379 0.43751 0.59601 0.0
H2754 H 0.8467 0.33329 0.57198 0.0
H2755 H 0.81927 0.32657 0.58031 0.0
H2756 H 0.82361 0.32861 0.54976 0.0
H2757 H 0.8434 0.43923 0.63766 0.0
H2758 H 0.83823 0.41023 0.64753 0.0
H2759 H 0.86462 0.42284 0.63869 0.0
H2760 H 0.82502 0.32845 0.65538 0.0
H2761 H 0.89148 0.34922 0.63737 0.0
H2762 H 0.7982 0.34427 0.61288 0.0
H2763 H 0.80597 0.37527 0.63303 0.0
H2764 H 0.79793 0.3478 0.64504 0.0
H2765 H 0.88119 0.36882 0.58785 0.0
H2766 H 0.90208 0.37809 0.61343 0.0
H2767 H 0.88446 0.39835 0.60974 0.0
C2768 C 0.47166 0.02061 0.35219 0.0
C2769 C 0.45161 0.02462 0.35949 0.0
C2770 C 0.48987 0.02642 0.36922 0.0
C2771 C 0.48715 0.03408 0.39385 0.0
C2772 C 0.46632 0.03507 0.40153 0.0
C2773 C 0.44855 0.0302 0.38402 0.0
C2774 C 0.51227 0.02617 0.3609 0.0
C2775 C 0.46318 0.04294 0.42802 0.0
C2776 C 0.52671 0.0226 0.43749 0.0
C2777 C 0.53708 0.04748 0.45009 0.0
C2778 C 0.51024 0.018 0.41882 0.0
C2779 C 0.50584 0.03893 0.41169 0.0
C2780 C 0.51852 0.06407 0.42236 0.0
C2781 C 0.53426 0.06811 0.44192 0.0
C2782 C 0.49602 0.99119 0.40868 0.0
C2783 C 0.51476 0.08665 0.41421 0.0
H2784 H 0.47394 0.01603 0.33314 0.0
H2785 H 0.43289 0.03305 0.38944 0.0
H2786 H 0.52402 0.04506 0.36845 0.0
H2787 H 0.51892 0.01217 0.36777 0.0
H2788 H 0.5117 0.02143 0.34085 0.0
H2789 H 0.4456 0.04146 0.43077 0.0
H2790 H 0.46952 0.03099 0.43824 0.0
H2791 H 0.47276 0.0629 0.4359 0.0
H2792 H 0.52953 0.00693 0.44424 0.0
H2793 H 0.54273 0.08724 0.45212 0.0
H2794 H 0.49598 0.98539 0.38876 0.0
H2795 H 0.47871 0.99032 0.41232 0.0
H2796 H 0.50165 0.97723 0.41677 0.0
H2797 H 0.52276 0.08778 0.39751 0.0
H2798 H 0.52198 0.10474 0.42815 0.0
H2799 H 0.49696 0.08487 0.40987 0.0
C2800 C 0.79102 0.73356 0.08513 0.0
C2801 C 0.81183 0.74053 0.07711 0.0
C2802 C 0.78808 0.74097 0.10984 0.0
C2803 C 0.80641 0.75535 0.12708 0.0
C2804 C 0.82715 0.76358 0.11892 0.0
C2805 C 0.82955 0.75626 0.09415 0.0
C2806 C 0.76556 0.73247 0.11771 0.0
C2807 C 0.84733 0.77848 0.13652 0.0
C2808 C 0.80284 0.78377 0.19416 0.0
C2809 C 0.80577 0.76421 0.20448 0.0
C2810 C 0.80159 0.78069 0.16881 0.0
C2811 C 0.80487 0.75825 0.15366 0.0
C2812 C 0.80809 0.73867 0.16415 0.0
C2813 C 0.80789 0.74163 0.18917 0.0
C2814 C 0.79712 0.80156 0.15832 0.0
C2815 C 0.81264 0.71488 0.14909 0.0
H2816 H 0.77713 0.72167 0.07221 0.0
H2817 H 0.84572 0.76197 0.08835 0.0
H2818 H 0.76575 0.71859 0.12872 0.0
H2819 H 0.7611 0.7489 0.12935 0.0
H2820 H 0.7526 0.72351 0.10205 0.0
H2821 H 0.86143 0.78631 0.12719 0.0
H2822 H 0.84366 0.79437 0.1498 0.0
H2823 H 0.85243 0.76589 0.14686 0.0
H2824 H 0.80177 0.80152 0.20586 0.0
H2825 H 0.81033 0.72645 0.19695 0.0
H2826 H 0.78322 0.79363 0.14357 0.0
H2827 H 0.81178 0.81019 0.15027 0.0
H2828 H 0.79299 0.8167 0.17221 0.0
H2829 H 0.7985 0.70448 0.13509 0.0
H2830 H 0.81565 0.7019 0.1602 0.0
H2831 H 0.82734 0.71995 0.13953 0.0
C2832 C 0.13842 0.02279 0.67579 0.0
C2833 C 0.12612 1.00444 0.6866 0.0
C2834 C 0.12951 0.02849 0.65456 0.0
C2835 C 0.10768 0.01547 0.64299 0.0
C2836 C 0.09549 0.99659 0.65358 0.0
C2837 C 0.10458 0.99163 0.67488 0.0
C2838 C 0.14337 0.04911 0.64484 0.0
C2839 C 0.07257 0.98129 0.64226 0.0
C2840 C 0.07232 0.0402 0.59951 0.0
C2841 C 0.07559 0.02782 0.576 0.0
C2842 C 0.08354 0.03773 0.62104 0.0
C2843 C 0.09759 0.02098 0.61985 0.0
C2844 C 0.10052 0.00799 0.59615 0.0
C2845 C 0.08996 0.0118 0.57499 0.0
C2846 C 0.07972 0.05262 0.64528 0.0
C2847 C 0.11416 0.98899 0.593 0.0
H2848 H 0.15483 0.03338 0.68436 0.0
H2849 H 0.09452 0.9774 0.68251 0.0
H2850 H 0.14499 0.04165 0.62545 0.0
H2851 H 0.13508 0.06464 0.64594 0.0
H2852 H 0.16012 0.05709 0.65501 0.0
H2853 H 0.06492 0.96752 0.65254 0.0
H2854 H 0.06176 0.99408 0.64124 0.0
H2855 H 0.07321 0.9707 0.62343 0.0
H2856 H 0.06027 0.05117 0.60123 0.0
H2857 H 0.09227 1.00113 0.55739 0.0
H2858 H 0.09572 0.06239 0.65661 0.0
H2859 H 0.06999 0.03953 0.65501 0.0
H2860 H 0.0707 0.06698 0.64346 0.0
H2861 H 0.13138 0.99853 0.60124 0.0
H2862 H 0.11435 0.97963 0.57364 0.0
H2863 H 0.10755 0.97414 0.60256 0.0
C2864 C 0.83764 0.41032 0.44177 0.0
C2865 C 0.85303 0.4091 0.45986 0.0
C2866 C 0.83305 0.39244 0.41934 0.0
C2867 C 0.84392 0.37276 0.41518 0.0
C2868 C 0.85942 0.3714 0.43334 0.0
C2869 C 0.86398 0.38979 0.45543 0.0
C2870 C 0.81659 0.39456 0.40014 0.0
C2871 C 0.87111 0.35047 0.42943 0.0
C2872 C 0.81785 0.31573 0.36322 0.0
C2873 C 0.8296 0.32212 0.34445 0.0
C2874 C 0.82258 0.33181 0.38663 0.0
C2875 C 0.83986 0.35434 0.39132 0.0
C2876 C 0.85287 0.35989 0.3729 0.0
C2877 C 0.84763 0.34364 0.34969 0.0
C2878 C 0.80839 0.32534 0.40596 0.0
C2879 C 0.87154 0.38371 0.3773 0.0
H2880 H 0.82919 0.42529 0.44515 0.0
H2881 H 0.87572 0.38863 0.46947 0.0
H2882 H 0.82444 0.39598 0.38339 0.0
H2883 H 0.80263 0.37723 0.39537 0.0
H2884 H 0.80993 0.41132 0.40615 0.0
H2885 H 0.88186 0.35138 0.44587 0.0
H2886 H 0.85888 0.33168 0.42415 0.0
H2887 H 0.8814 0.35172 0.41434 0.0
H2888 H 0.80444 0.29879 0.35952 0.0
H2889 H 0.8572 0.34847 0.33543 0.0
H2890 H 0.79861 0.33941 0.41087 0.0
H2891 H 0.81886 0.32633 0.4226 0.0
H2892 H 0.79681 0.30612 0.39988 0.0
H2893 H 0.86478 0.40057 0.38105 0.0
H2894 H 0.88109 0.38417 0.36152 0.0
H2895 H 0.88298 0.38537 0.39342 0.0
C2896 C 0.44589 0.05326 0.2325 0.0
C2897 C 0.45577 0.04727 0.25216 0.0
C2898 C 0.45092 0.04435 0.209 0.0
C2899 C 0.4659 0.02902 0.20545 0.0
C2900 C 0.47455 0.0214 0.22508 0.0
C2901 C 0.46957 0.03091 0.24829 0.0
C2902 C 0.44108 0.05229 0.1883 0.0
C2903 C 0.49004 1.00431 0.22181 0.0
C2904 C 0.4825 0.99203 0.14955 0.0
C2905 C 0.50342 0.0078 0.14958 0.0
C2906 C 0.46826 1.00017 0.16577 0.0
C2907 C 0.47569 0.02414 0.18258 0.0
C2908 C 0.496 0.04096 0.18091 0.0
C2909 C 0.50963 0.03254 0.16423 0.0
C2910 C 0.44624 0.98224 0.16623 0.0
C2911 C 0.50452 0.06671 0.19851 0.0
H2912 H 0.43482 0.06551 0.23561 0.0
H2913 H 0.47658 0.02556 0.26345 0.0
H2914 H 0.45383 0.0669 0.18301 0.0
H2915 H 0.43542 0.03593 0.17222 0.0
H2916 H 0.42696 0.06035 0.19329 0.0
H2917 H 0.49387 0.99867 0.23865 0.0
H2918 H 0.48271 0.98684 0.20725 0.0
H2919 H 0.50576 0.0142 0.21633 0.0
H2920 H 0.47756 0.97321 0.13735 0.0
H2921 H 0.52569 0.04479 0.16352 0.0
H2922 H 0.43398 0.99257 0.17318 0.0
H2923 H 0.44836 0.96983 0.17828 0.0
H2924 H 0.43963 0.96986 0.14785 0.0
H2925 H 0.49131 0.07673 0.20123 0.0
H2926 H 0.51864 0.07886 0.19227 0.0
H2927 H 0.51014 0.06423 0.21636 0.0
C2928 C 0.8126 0.77138 0.95492 0.0
C2929 C 0.81789 0.74871 0.95556 0.0
C2930 C 0.81513 0.78087 0.93413 0.0
C2931 C 0.82323 0.76737 0.91387 0.0
C2932 C 0.82929 0.74493 0.915 0.0
C2933 C 0.82644 0.73586 0.93577 0.0
C2934 C 0.80883 0.80504 0.93361 0.0
C2935 C 0.8386 0.73034 0.89415 0.0
C2936 C 0.80446 0.76704 0.84982 0.0
C2937 C 0.82207 0.78454 0.84404 0.0
C2938 C 0.80421 0.76261 0.87292 0.0
C2939 C 0.82279 0.77456 0.89038 0.0
C2940 C 0.84128 0.79123 0.88436 0.0
C2941 C 0.8405 0.79638 0.86137 0.0
C2942 C 0.7841 0.7447 0.87843 0.0
C2943 C 0.86191 0.80343 0.90198 0.0
H2944 H 0.80665 0.78165 0.97059 0.0
H2945 H 0.83107 0.71864 0.93666 0.0
H2946 H 0.82298 0.81892 0.92941 0.0
H2947 H 0.79512 0.80105 0.91901 0.0
H2948 H 0.80363 0.81382 0.95111 0.0
H2949 H 0.8437 0.71408 0.89852 0.0
H2950 H 0.82611 0.72295 0.87798 0.0
H2951 H 0.8531 0.74311 0.88919 0.0
H2952 H 0.79058 0.75674 0.83637 0.0
H2953 H 0.85465 0.80889 0.85671 0.0
H2954 H 0.7787 0.75345 0.8958 0.0
H2955 H 0.78823 0.72706 0.8804 0.0
H2956 H 0.77006 0.73947 0.86394 0.0
H2957 H 0.85879 0.81864 0.91655 0.0
H2958 H 0.87603 0.81197 0.89305 0.0
H2959 H 0.86664 0.78939 0.91067 0.0
C2960 C 0.83155 0.07824 0.00705 0.0
C2961 C 0.82896 0.09375 0.029 0.0
C2962 C 0.85199 0.07412 0.0025 0.0
C2963 C 0.86991 0.08463 0.02101 0.0
C2964 C 0.86741 0.10043 0.04336 0.0
C2965 C 0.84686 0.10544 0.04687 0.0
C2966 C 0.85429 0.05837 0.97787 0.0
C2967 C 0.88633 0.11197 0.06329 0.0
C2968 C 0.90456 0.03906 0.00965 0.0
C2969 C 0.91957 0.05034 0.99578 0.0
C2970 C 0.8899 0.05183 0.02085 0.0
C2971 C 0.89005 0.07603 0.01738 0.0
C2972 C 0.90643 0.08834 0.00496 0.0
C2973 C 0.92123 0.07525 0.99433 0.0
C2974 C 0.87286 0.0384 0.03439 0.0
C2975 C 0.90711 0.11411 1.0008 0.0
H2976 H 0.81774 0.0704 0.99287 0.0
H2977 H 0.84476 0.11843 0.06334 0.0
H2978 H 0.86855 0.06849 0.97019 0.0
H2979 H 0.85736 0.04017 0.97965 0.0
H2980 H 0.83931 0.05404 0.9648 0.0
H2981 H 0.8813 0.12285 0.07995 0.0
H2982 H 0.89311 0.09688 0.06789 0.0
H2983 H 0.89982 0.1249 0.05703 0.0
H2984 H 0.90396 0.02001 0.0112 0.0
H2985 H 0.93343 0.08401 0.98401 0.0
H2986 H 0.85675 0.03118 0.02285 0.0
H2987 H 0.87064 0.05168 0.0512 0.0
H2988 H 0.87744 0.02206 0.03921 0.0
H2989 H 0.89649 0.11165 0.9838 0.0
H2990 H 0.92414 0.12428 0.99876 0.0
H2991 H 0.90091 0.12607 0.01575 0.0
C2992 C 0.38787 0.43311 0.01216 0.0
C2993 C 0.37771 0.4348 0.03346 0.0
C2994 C 0.40989 0.44683 0.01257 0.0
C2995 C 0.42172 0.463 0.03469 0.0
C2996 C 0.41124 0.46496 0.05613 0.0
C2997 C 0.38945 0.45059 0.05529 0.0
C2998 C 0.42057 0.4439 0.9894 0.0
C2999 C 0.42296 0.4824 0.07994 0.0
C3000 C 0.48455 0.48094 0.0391 0.0
C3001 C 0.4891 0.50532 0.03521 0.0
C3002 C 0.46276 0.46725 0.03969 0.0
C3003 C 0.44504 0.47786 0.03542 0.0
C3004 C 0.44964 0.50258 0.03158 0.0
C3005 C 0.47163 0.51609 0.03175 0.0
C3006 C 0.45866 0.4413 0.04457 0.0
C3007 C 0.43129 0.51442 0.02647 0.0
H3008 H 0.37873 0.42073 0.99535 0.0
H3009 H 0.38141 0.45192 0.0717 0.0
H3010 H 0.42651 0.46266 0.98539 0.0
H3011 H 0.43516 0.43641 0.99153 0.0
H3012 H 0.40908 0.43087 0.97369 0.0
H3013 H 0.41279 0.481 0.09513 0.0
H3014 H 0.4387 0.4779 0.08438 0.0
H3015 H 0.42711 0.50233 0.07846 0.0
H3016 H 0.49809 0.47256 0.0416 0.0
H3017 H 0.47508 0.53463 0.02801 0.0
H3018 H 0.44863 0.4268 0.02872 0.0
H3019 H 0.44912 0.44064 0.06031 0.0
H3020 H 0.47424 0.43612 0.04838 0.0
H3021 H 0.42125 0.50315 0.00912 0.0
H3022 H 0.43763 0.53431 0.02522 0.0
H3023 H 0.42014 0.51418 0.04087 0.0
C3024 C 0.37443 0.63501 0.78902 0.0
C3025 C 0.39608 0.63591 0.78261 0.0
C3026 C 0.36289 0.6538 0.78665 0.0
C3027 C 0.37299 0.67564 0.77847 0.0
C3028 C 0.39512 0.67712 0.77261 0.0
C3029 C 0.40602 0.6575 0.77432 0.0
C3030 C 0.33952 0.65006 0.79288 0.0
C3031 C 0.40782 0.70023 0.76542 0.0
C3032 C 0.33848 0.71372 0.74864 0.0
C3033 C 0.3362 0.73385 0.76771 0.0
C3034 C 0.34937 0.69481 0.75209 0.0
C3035 C 0.36023 0.696 0.77512 0.0
C3036 C 0.35848 0.7167 0.79452 0.0
C3037 C 0.34634 0.73468 0.79077 0.0
C3038 C 0.34912 0.67319 0.73068 0.0
C3039 C 0.36987 0.72039 0.81947 0.0
H3040 H 0.36618 0.61916 0.79589 0.0
H3041 H 0.42283 0.65967 0.77 0.0
H3042 H 0.33854 0.66579 0.80826 0.0
H3043 H 0.32847 0.65048 0.77724 0.0
H3044 H 0.33332 0.63184 0.7979 0.0
H3045 H 0.4245 0.69882 0.76087 0.0
H3046 H 0.39868 0.70313 0.74961 0.0
H3047 H 0.40962 0.71728 0.78059 0.0
H3048 H 0.33137 0.71255 0.73056 0.0
H3049 H 0.34567 0.75014 0.80587 0.0
H3050 H 0.34295 0.65481 0.73541 0.0
H3051 H 0.36613 0.67426 0.72591 0.0
H3052 H 0.33857 0.67336 0.71451 0.0
H3053 H 0.35989 0.70693 0.82866 0.0
H3054 H 0.3719 0.73994 0.83081 0.0
H3055 H 0.38635 0.71654 0.81845 0.0
C3056 C 0.21383 0.57929 0.53376 0.0
C3057 C 0.2181 0.5903 0.51434 0.0
C3058 C 0.19536 0.58163 0.54584 0.0
C3059 C 0.18099 0.59456 0.53752 0.0
C3060 C 0.18781 0.60966 0.52113 0.0
C3061 C 0.20658 0.60738 0.50973 0.0
C3062 C 0.18922 0.56673 0.56441 0.0
C3063 C 0.17314 0.62397 0.51177 0.0
C3064 C 0.12206 0.55761 0.51794 0.0
C3065 C 0.11095 0.57342 0.53195 0.0
C3066 C 0.14502 0.5635 0.52062 0.0
C3067 C 0.15708 0.58537 0.53852 0.0
C3068 C 0.14582 0.60025 0.55404 0.0
C3069 C 0.12279 0.5948 0.54969 0.0
C3070 C 0.15618 0.54768 0.50259 0.0
C3071 C 0.15811 0.62241 0.57445 0.0
H3072 H 0.22305 0.5662 0.53731 0.0
H3073 H 0.21021 0.61593 0.49469 0.0
H3074 H 0.18192 0.57765 0.5791 0.0
H3075 H 0.17668 0.5487 0.55578 0.0
H3076 H 0.20373 0.56206 0.57237 0.0
H3077 H 0.18256 0.63838 0.50311 0.0
H3078 H 0.16 0.61037 0.49799 0.0
H3079 H 0.16503 0.63361 0.52645 0.0
H3080 H 0.11294 0.54209 0.50318 0.0
H3081 H 0.11411 0.60767 0.55958 0.0
H3082 H 0.16775 0.54005 0.51217 0.0
H3083 H 0.16587 0.55964 0.49182 0.0
H3084 H 0.1442 0.53143 0.48978 0.0
H3085 H 0.16797 0.61563 0.58696 0.0
H3086 H 0.14679 0.63202 0.58488 0.0
H3087 H 0.16987 0.6365 0.56745 0.0
C3088 C 0.73258 0.96392 0.71764 0.0
C3089 C 0.74268 0.98878 0.71689 0.0
C3090 C 0.74422 0.95106 0.72954 0.0
C3091 C 0.76666 0.96272 0.73827 0.0
C3092 C 0.77789 0.98493 0.73182 0.0
C3093 C 0.76558 0.99769 0.72065 0.0
C3094 C 0.73163 0.92756 0.73635 0.0
C3095 C 0.80199 0.99751 0.74034 0.0
C3096 C 0.78591 0.95794 0.80021 0.0
C3097 C 0.79909 0.94103 0.79433 0.0
C3098 C 0.77521 0.96525 0.78203 0.0
C3099 C 0.7772 0.9546 0.75747 0.0
C3100 C 0.78986 0.93705 0.75135 0.0
C3101 C 0.80108 0.93089 0.76985 0.0
C3102 C 0.7621 0.98461 0.78913 0.0
C3103 C 0.79164 0.92498 0.72527 0.0
H3104 H 0.71475 0.95702 0.71405 0.0
H3105 H 0.77321 0.01678 0.71932 0.0
H3106 H 0.74168 0.91373 0.73577 0.0
H3107 H 0.72749 0.93298 0.75518 0.0
H3108 H 0.71596 0.91821 0.72426 0.0
H3109 H 0.80879 0.01233 0.73079 0.0
H3110 H 0.80395 0.00661 0.76006 0.0
H3111 H 0.81182 0.98334 0.73754 0.0
H3112 H 0.784 0.96557 0.81898 0.0
H3113 H 0.81174 0.91842 0.76498 0.0
H3114 H 0.74465 0.9764 0.78113 0.0
H3115 H 0.76875 1.00133 0.78192 0.0
H3116 H 0.76253 0.99125 0.80909 0.0
H3117 H 0.775 0.91414 0.71598 0.0
H3118 H 0.80259 0.91197 0.72362 0.0
H3119 H 0.79804 0.93977 0.7156 0.0
C3120 C 0.73854 0.92497 0.55241 0.0
C3121 C 0.75807 0.92849 0.54152 0.0
C3122 C 0.72133 0.93484 0.54547 0.0
C3123 C 0.72414 0.94899 0.52774 0.0
C3124 C 0.74397 0.95254 0.5168 0.0
C3125 C 0.76062 0.942 0.52367 0.0
C3126 C 0.70017 0.93006 0.55699 0.0
C3127 C 0.74783 0.96801 0.49825 0.0
C3128 C 0.6777 0.9619 0.49164 0.0
C3129 C 0.67856 0.98681 0.50402 0.0
C3130 C 0.69144 0.94861 0.50013 0.0
C3131 C 0.70682 0.96094 0.521 0.0
C3132 C 0.70716 0.98585 0.53396 0.0
C3133 C 0.69277 0.99837 0.52545 0.0
C3134 C 0.69008 0.92178 0.48631 0.0
C3135 C 0.7235 0.99979 0.55606 0.0
H3136 H 0.73675 0.91446 0.56623 0.0
H3137 H 0.77591 0.94481 0.51551 0.0
H3138 H 0.6964 0.94827 0.5653 0.0
H3139 H 0.68628 0.91896 0.54286 0.0
H3140 H 0.70092 0.91949 0.57111 0.0
H3141 H 0.76421 0.96901 0.49155 0.0
H3142 H 0.73489 0.9597 0.48254 0.0
H3143 H 0.74672 0.98761 0.50628 0.0
H3144 H 0.66644 0.95296 0.47518 0.0
H3145 H 0.69328 0.01766 0.53493 0.0
H3146 H 0.6893 0.90929 0.49891 0.0
H3147 H 0.70513 0.92135 0.47711 0.0
H3148 H 0.67546 0.91388 0.47241 0.0
H3149 H 0.72227 0.98838 0.56965 0.0
H3150 H 0.72091 0.0186 0.56467 0.0
H3151 H 0.74052 1.00266 0.55087 0.0
C3152 C 0.4078 0.48412 0.78246 0.0
C3153 C 0.39622 0.50131 0.77746 0.0
C3154 C 0.3972 0.45803 0.77999 0.0
C3155 C 0.37428 0.4481 0.77165 0.0
C3156 C 0.3627 0.4653 0.76581 0.0
C3157 C 0.37357 0.4915 0.76927 0.0
C3158 C 0.41053 0.44123 0.78709 0.0
C3159 C 0.33855 0.4561 0.75627 0.0
C3160 C 0.35073 0.37469 0.74815 0.0
C3161 C 0.3395 0.36796 0.7673 0.0
C3162 C 0.36167 0.40039 0.74908 0.0
C3163 C 0.36228 0.42025 0.77004 0.0
C3164 C 0.35125 0.41331 0.78958 0.0
C3165 C 0.33987 0.38762 0.78784 0.0
C3166 C 0.37248 0.40631 0.72743 0.0
C3167 C 0.35185 0.43305 0.81273 0.0
H3168 H 0.42514 0.49138 0.78938 0.0
H3169 H 0.36421 0.50445 0.76577 0.0
H3170 H 0.40217 0.43112 0.8 0.0
H3171 H 0.41185 0.42664 0.77084 0.0
H3172 H 0.42745 0.45211 0.79556 0.0
H3173 H 0.33254 0.47062 0.74947 0.0
H3174 H 0.33547 0.43859 0.74136 0.0
H3175 H 0.32874 0.45131 0.7709 0.0
H3176 H 0.35074 0.35982 0.73221 0.0
H3177 H 0.3316 0.38277 0.80294 0.0
H3178 H 0.39057 0.41365 0.73234 0.0
H3179 H 0.36646 0.42136 0.72169 0.0
H3180 H 0.3692 0.38936 0.71183 0.0
H3181 H 0.36923 0.4424 0.82054 0.0
H3182 H 0.34289 0.42482 0.82645 0.0
H3183 H 0.34442 0.44799 0.80892 0.0
C3184 C 0.23473 0.62717 0.27616 0.0
C3185 C 0.23402 0.60602 0.25737 0.0
C3186 C 0.24615 0.65133 0.27477 0.0
C3187 C 0.25743 0.654 0.25432 0.0
C3188 C 0.25778 0.6325 0.2359 0.0
C3189 C 0.24576 0.60859 0.23752 0.0
C3190 C 0.24523 0.67405 0.2946 0.0
C3191 C 0.27038 0.63486 0.21438 0.0
C3192 C 0.25884 0.71849 0.24682 0.0
C3193 C 0.27964 0.73209 0.25876 0.0
C3194 C 0.2526 0.6921 0.24211 0.0
C3195 C 0.26684 0.67964 0.25148 0.0
C3196 C 0.28833 0.69321 0.26248 0.0
C3197 C 0.29462 0.71943 0.26568 0.0
C3198 C 0.23012 0.67782 0.22876 0.0
C3199 C 0.30385 0.68066 0.27308 0.0
H3200 H 0.22564 0.6249 0.29147 0.0
H3201 H 0.24551 0.59189 0.22333 0.0
H3202 H 0.26208 0.68641 0.30136 0.0
H3203 H 0.23569 0.6855 0.28723 0.0
H3204 H 0.2373 0.66848 0.31013 0.0
H3205 H 0.26779 0.61636 0.20089 0.0
H3206 H 0.26537 0.64848 0.20531 0.0
H3207 H 0.28828 0.64245 0.22057 0.0
H3208 H 0.24749 0.72851 0.24129 0.0
H3209 H 0.31071 0.73014 0.27509 0.0
H3210 H 0.21878 0.67209 0.24188 0.0
H3211 H 0.23107 0.66031 0.21552 0.0
H3212 H 0.22298 0.68955 0.21893 0.0
H3213 H 0.29883 0.67775 0.29077 0.0
H3214 H 0.32117 0.69252 0.27617 0.0
H3215 H 0.30317 0.6618 0.26115 0.0
C3216 C 0.5381 0.70244 0.46456 0.0
C3217 C 0.52037 0.71201 0.47293 0.0
C3218 C 0.54376 0.68232 0.47233 0.0
C3219 C 0.53156 0.67114 0.48903 0.0
C3220 C 0.51454 0.68171 0.49871 0.0
C3221 C 0.50913 0.7018 0.49054 0.0
C3222 C 0.56219 0.6721 0.46163 0.0
C3223 C 0.50136 0.67102 0.51697 0.0
C3224 C 0.52739 0.6002 0.47833 0.0
C3225 C 0.54186 0.59878 0.49737 0.0
C3226 C 0.523 0.62321 0.47654 0.0
C3227 C 0.53437 0.64626 0.49326 0.0
C3228 C 0.54871 0.64507 0.5129 0.0
C3229 C 0.5514 0.62126 0.51532 0.0
C3230 C 0.5063 0.62278 0.45632 0.0
C3231 C 0.56209 0.66893 0.53071 0.0
H3232 H 0.54709 0.70996 0.45106 0.0
H3233 H 0.49558 0.709 0.49747 0.0
H3234 H 0.57337 0.66967 0.47611 0.0
H3235 H 0.55517 0.65314 0.44902 0.0
H3236 H 0.57202 0.6847 0.45149 0.0
H3237 H 0.48911 0.68165 0.52336 0.0
H3238 H 0.49254 0.65084 0.50885 0.0
H3239 H 0.51257 0.67155 0.53287 0.0
H3240 H 0.51914 0.58307 0.46463 0.0
H3241 H 0.56144 0.62042 0.53089 0.0
H3242 H 0.51472 0.63268 0.44331 0.0
H3243 H 0.49409 0.633 0.46371 0.0
H3244 H 0.49728 0.60317 0.44629 0.0
H3245 H 0.57578 0.67838 0.5218 0.0
H3246 H 0.56938 0.66487 0.54705 0.0
H3247 H 0.55197 0.68247 0.53636 0.0
C3248 C 0.66024 0.32255 0.68986 0.0
C3249 C 0.65881 0.32406 0.66553 0.0
C3250 C 0.67924 0.31927 0.70167 0.0
C3251 C 0.69794 0.31768 0.68924 0.0
C3252 C 0.69687 0.3194 0.66471 0.0
C3253 C 0.67738 0.32242 0.65313 0.0
C3254 C 0.67911 0.31719 0.72758 0.0
C3255 C 0.7163 0.31781 0.65062 0.0
C3256 C 0.75232 0.33012 0.73043 0.0
C3257 C 0.7543 0.30551 0.72939 0.0
C3258 C 0.73473 0.3344 0.71675 0.0
C3259 C 0.71816 0.31359 0.70199 0.0
C3260 C 0.72005 0.28868 0.70111 0.0
C3261 C 0.738 0.285 0.71461 0.0
C3262 C 0.73385 0.36131 0.71817 0.0
C3263 C 0.70265 0.26573 0.6865 0.0
H3264 H 0.64622 0.32366 0.6999 0.0
H3265 H 0.67671 0.32344 0.6344 0.0
H3266 H 0.68247 0.29901 0.72899 0.0
H3267 H 0.69239 0.33272 0.73941 0.0
H3268 H 0.66313 0.31816 0.73462 0.0
H3269 H 0.71379 0.32154 0.63253 0.0
H3270 H 0.7315 0.33163 0.66091 0.0
H3271 H 0.71908 0.29862 0.64807 0.0
H3272 H 0.76475 0.34613 0.74177 0.0
H3273 H 0.73872 0.26589 0.71419 0.0
H3274 H 0.71878 0.3647 0.72606 0.0
H3275 H 0.73289 0.36443 0.69969 0.0
H3276 H 0.74847 0.37544 0.72937 0.0
H3277 H 0.68688 0.26477 0.69453 0.0
H3278 H 0.70733 0.24775 0.68597 0.0
H3279 H 0.69962 0.26726 0.66766 0.0
C3280 C 0.9982 0.35134 0.97211 0.0
C3281 C 0.01424 0.33771 0.97182 0.0
C3282 C 0.00388 0.37808 0.97882 0.0
C3283 C 0.02614 0.39199 0.98649 0.0
C3284 C 0.04231 0.37827 0.98771 0.0
C3285 C 0.03627 0.35138 0.97987 0.0
C3286 C 0.98607 0.39146 0.97671 0.0
C3287 C 0.06606 0.39205 0.9969 0.0
C3288 C 0.04296 0.45698 0.97233 0.0
C3289 C 0.04298 0.47405 0.9946 0.0
C3290 C 0.03813 0.4306 0.96982 0.0
C3291 C 0.03264 0.4205 0.98995 0.0
C3292 C 0.03251 0.43763 0.01258 0.0
C3293 C 0.03807 0.46417 0.01473 0.0
C3294 C 0.03911 0.41348 0.94547 0.0
C3295 C 0.02682 0.42802 0.03463 0.0
H3296 H 0.98116 0.34105 0.96579 0.0
H3297 H 0.04878 0.34106 0.97998 0.0
H3298 H 0.98526 0.40371 0.99468 0.0
H3299 H 0.99009 0.40382 0.96407 0.0
H3300 H 0.96957 0.37808 0.97015 0.0
H3301 H 0.07666 0.37881 0.99685 0.0
H3302 H 0.0727 0.40519 0.98564 0.0
H3303 H 0.0671 0.40374 0.01568 0.0
H3304 H 0.04724 0.46437 0.95678 0.0
H3305 H 0.03892 0.47718 0.03223 0.0
H3306 H 0.0228 0.39976 0.93884 0.0
H3307 H 0.05123 0.40234 0.94725 0.0
H3308 H 0.04391 0.42423 0.93166 0.0
H3309 H 0.01006 0.41487 0.03102 0.0
H3310 H 0.02735 0.44368 0.05082 0.0
H3311 H 0.03851 0.41717 0.03876 0.0
C3312 C 0.02143 0.81247 0.13875 0.0
C3313 C 0.03973 0.8063 0.14879 0.0
C3314 C 0.00118 0.80879 0.14863 0.0
C3315 C 0.99902 0.79889 0.16931 0.0
C3316 C 0.01732 0.7923 0.17932 0.0
C3317 C 0.03739 0.79608 0.16899 0.0
C3318 C 0.98235 0.81626 0.13727 0.0
C3319 C 0.01578 0.78153 0.20125 0.0
C3320 C 0.95661 0.8104 0.21333 0.0
C3321 C 0.94147 0.78648 0.20796 0.0
C3322 C 0.97477 0.81519 0.20002 0.0
C3323 C 0.97788 0.7956 0.18085 0.0
C3324 C 0.96163 0.77204 0.17423 0.0
C3325 C 0.94379 0.76768 0.18802 0.0
C3326 C 0.99134 0.84077 0.20742 0.0
C3327 C 0.96365 0.75101 0.15327 0.0
H3328 H 0.02302 0.82083 0.12342 0.0
H3329 H 0.05136 0.79138 0.17699 0.0
H3330 H 0.96657 0.80164 0.1357 0.0
H3331 H 0.98047 0.83423 0.14895 0.0
H3332 H 0.98522 0.81922 0.11899 0.0
H3333 H 0.03135 0.77726 0.20687 0.0
H3334 H 0.01176 0.7952 0.21666 0.0
H3335 H 0.00223 0.76382 0.19735 0.0
H3336 H 0.95499 0.82488 0.22887 0.0
H3337 H 0.93215 0.74914 0.18388 0.0
H3338 H 0.99461 0.84856 0.19142 0.0
H3339 H 0.0072 0.83865 0.21502 0.0
H3340 H 0.98566 0.85463 0.22122 0.0
H3341 H 0.96555 0.75802 0.13665 0.0
H3342 H 0.94908 0.73434 0.14959 0.0
H3343 H 0.97863 0.74479 0.15719 0.0
C3344 C 0.49418 0.30009 0.08653 0.0
C3345 C 0.49837 0.30878 0.11173 0.0
C3346 C 0.50309 0.31581 0.07174 0.0
C3347 C 0.51581 0.3409 0.0826 0.0
C3348 C 0.51953 0.34991 0.10812 0.0
C3349 C 0.51098 0.33354 0.12241 0.0
C3350 C 0.49928 0.30547 0.04456 0.0
C3351 C 0.5322 0.37687 0.12032 0.0
C3352 C 0.55509 0.37353 0.04486 0.0
C3353 C 0.54242 0.38753 0.03584 0.0
C3354 C 0.54672 0.3585 0.06044 0.0
C3355 C 0.52526 0.35764 0.06716 0.0
C3356 C 0.5126 0.37219 0.05859 0.0
C3357 C 0.52127 0.38682 0.04285 0.0
C3358 C 0.56075 0.34342 0.0696 0.0
C3359 C 0.48979 0.37204 0.06575 0.0
H3360 H 0.48451 0.2808 0.07844 0.0
H3361 H 0.5139 0.34018 0.142 0.0
H3362 H 0.49084 0.3172 0.03617 0.0
H3363 H 0.51536 0.30649 0.03719 0.0
H3364 H 0.48917 0.28547 0.03905 0.0
H3365 H 0.5353 0.3801 0.14029 0.0
H3366 H 0.54825 0.38178 0.11308 0.0
H3367 H 0.52268 0.39008 0.11645 0.0
H3368 H 0.57162 0.37451 0.03992 0.0
H3369 H 0.51136 0.39752 0.03581 0.0
H3370 H 0.55223 0.32289 0.06375 0.0
H3371 H 0.56314 0.34878 0.0897 0.0
H3372 H 0.57722 0.34647 0.06291 0.0
H3373 H 0.47838 0.35304 0.05779 0.0
H3374 H 0.48307 0.38641 0.05952 0.0
H3375 H 0.49003 0.37577 0.08572 0.0
C3376 C 0.05034 0.36187 0.35728 0.0
C3377 C 0.0563 0.34006 0.34579 0.0
C3378 C 0.02935 0.36479 0.35147 0.0
C3379 C 0.01422 0.3451 0.33404 0.0
C3380 C 0.02044 0.32305 0.32232 0.0
C3381 C 0.04152 0.3209 0.32833 0.0
C3382 C 0.0234 0.38845 0.36464 0.0
C3383 C 0.00477 0.3015 0.30363 0.0
C3384 C 0.95294 0.32688 0.32337 0.0
C3385 C 0.95035 0.33214 0.30078 0.0
C3386 C 0.9738 0.33445 0.33674 0.0
C3387 C 0.99204 0.34716 0.32688 0.0
C3388 C 0.98874 0.35556 0.3058 0.0
C3389 C 0.9678 0.34763 0.29272 0.0
C3390 C 0.97675 0.3262 0.35978 0.0
C3391 C 0.00781 0.37012 0.29548 0.0
H3392 H 0.06195 0.37648 0.3708 0.0
H3393 H 0.04631 0.30386 0.31989 0.0
H3394 H 0.01058 0.39324 0.35383 0.0
H3395 H 0.01694 0.3854 0.38172 0.0
H3396 H 0.03815 0.40493 0.36952 0.0
H3397 H 0.01245 0.28592 0.29613 0.0
H3398 H 0.98997 0.29352 0.31186 0.0
H3399 H 0.99914 0.30857 0.28841 0.0
H3400 H 0.93912 0.31523 0.32961 0.0
H3401 H 0.96538 0.35204 0.27541 0.0
H3402 H 0.9892 0.3411 0.37333 0.0
H3403 H 0.98277 0.3088 0.35576 0.0
H3404 H 0.96098 0.32189 0.36777 0.0
H3405 H 0.01879 0.38546 0.31005 0.0
H3406 H 0.00211 0.37859 0.28134 0.0
H3407 H 0.0177 0.35712 0.28724 0.0
C3408 C 0.00418 0.68779 0.6304 0.0
C3409 C 0.98416 0.69118 0.62143 0.0
C3410 C 0.01213 0.6676 0.61903 0.0
C3411 C 0.99955 0.65004 0.59832 0.0
C3412 C 0.97857 0.652 0.59006 0.0
C3413 C 0.97106 0.67281 0.60173 0.0
C3414 C 0.03473 0.66618 0.62823 0.0
C3415 C 0.96469 0.63279 0.5683 0.0
C3416 C 0.03499 0.62232 0.55483 0.0
C3417 C 0.03393 0.59945 0.56095 0.0
C3418 C 0.02301 0.6386 0.56625 0.0
C3419 C 0.00973 0.6315 0.58403 0.0
C3420 C 0.00848 0.60819 0.59006 0.0
C3421 C 0.02086 0.59243 0.5785 0.0
C3422 C 0.02501 0.66362 0.55975 0.0
C3423 C 0.99459 0.60012 0.60903 0.0
H3424 H 0.01431 0.70154 0.64584 0.0
H3425 H 0.95548 0.67516 0.59492 0.0
H3426 H 0.03407 0.64698 0.63066 0.0
H3427 H 0.04637 0.66979 0.61473 0.0
H3428 H 0.04153 0.68028 0.64575 0.0
H3429 H 0.94795 0.63564 0.56554 0.0
H3430 H 0.97292 0.63421 0.55178 0.0
H3431 H 0.96309 0.61326 0.57039 0.0
H3432 H 0.04527 0.62748 0.54121 0.0
H3433 H 0.01977 0.57427 0.58262 0.0
H3434 H 0.03285 0.67948 0.57571 0.0
H3435 H 0.00843 0.66576 0.55467 0.0
H3436 H 0.03503 0.66542 0.5445 0.0
H3437 H 0.00342 0.61022 0.6273 0.0
H3438 H 0.99134 0.57939 0.60736 0.0
H3439 H 0.97859 0.60507 0.60779 0.0
C3440 C 0.68329 0.85405 0.83792 0.0
C3441 C 0.66808 0.83091 0.83676 0.0
C3442 C 0.70365 0.8544 0.82897 0.0
C3443 C 0.70843 0.8311 0.81859 0.0
C3444 C 0.69303 0.80784 0.81735 0.0
C3445 C 0.67312 0.80804 0.82655 0.0
C3446 C 0.72002 0.87947 0.8306 0.0
C3447 C 0.69789 0.78262 0.80761 0.0
C3448 C 0.75053 0.82557 0.77467 0.0
C3449 C 0.76826 0.8249 0.78995 0.0
C3450 C 0.73103 0.82865 0.78406 0.0
C3451 C 0.72955 0.8307 0.80907 0.0
C3452 C 0.74763 0.83011 0.8245 0.0
C3453 C 0.76714 0.82814 0.8148 0.0
C3454 C 0.71187 0.82914 0.76725 0.0
C3455 C 0.74645 0.8314 0.85111 0.0
H3456 H 0.6794 0.87174 0.84599 0.0
H3457 H 0.66147 0.79004 0.8257 0.0
H3458 H 0.73567 0.8806 0.84125 0.0
H3459 H 0.72394 0.88099 0.81219 0.0
H3460 H 0.71374 0.89589 0.83922 0.0
H3461 H 0.68267 0.76673 0.80281 0.0
H3462 H 0.70686 0.78245 0.7914 0.0
H3463 H 0.70838 0.7792 0.82204 0.0
H3464 H 0.75203 0.82394 0.75556 0.0
H3465 H 0.78153 0.82893 0.8266 0.0
H3466 H 0.70593 0.84618 0.77453 0.0
H3467 H 0.698 0.81223 0.76609 0.0
H3468 H 0.7163 0.82922 0.74869 0.0
H3469 H 0.74604 0.85078 0.86086 0.0
H3470 H 0.76084 0.82682 0.85949 0.0
H3471 H 0.73119 0.81801 0.85381 0.0
C3472 C 0.49045 0.59817 0.69079 0.0
C3473 C 0.48234 0.57855 0.7023 0.0
C3474 C 0.49909 0.59391 0.668 0.0
C3475 C 0.50065 0.56932 0.65577 0.0
C3476 C 0.49262 0.54933 0.66732 0.0
C3477 C 0.48345 0.55404 0.68997 0.0
C3478 C 0.50664 0.61605 0.65696 0.0
C3479 C 0.49443 0.52293 0.65607 0.0
C3480 C 0.50632 0.55411 0.58604 0.0
C3481 C 0.52927 0.55789 0.58473 0.0
C3482 C 0.49701 0.5576 0.60854 0.0
C3483 C 0.51056 0.56478 0.63118 0.0
C3484 C 0.53372 0.56839 0.63001 0.0
C3485 C 0.54262 0.56508 0.60723 0.0
C3486 C 0.47241 0.5538 0.60803 0.0
C3487 C 0.54933 0.57584 0.653 0.0
H3488 H 0.4901 0.61729 0.69979 0.0
H3489 H 0.47799 0.53861 0.6985 0.0
H3490 H 0.5243 0.61875 0.65419 0.0
H3491 H 0.49718 0.61209 0.6389 0.0
H3492 H 0.50447 0.63401 0.66843 0.0
H3493 H 0.48699 0.50915 0.66644 0.0
H3494 H 0.4862 0.51629 0.63719 0.0
H3495 H 0.51207 0.52317 0.65524 0.0
H3496 H 0.49542 0.54853 0.56926 0.0
H3497 H 0.5602 0.56775 0.60719 0.0
H3498 H 0.46878 0.57148 0.61822 0.0
H3499 H 0.46542 0.53868 0.61713 0.0
H3500 H 0.46392 0.54852 0.58928 0.0
H3501 H 0.54942 0.59519 0.66338 0.0
H3502 H 0.56649 0.57568 0.64937 0.0
H3503 H 0.54372 0.56275 0.66464 0.0
C3504 C 0.76987 0.18871 0.97464 0.0
C3505 C 0.78875 0.18017 0.97712 0.0
C3506 C 0.76763 0.20241 0.95744 0.0
C3507 C 0.78428 0.2065 0.94192 0.0
C3508 C 0.8033 0.19768 0.94438 0.0
C3509 C 0.80547 0.18497 0.96232 0.0
C3510 C 0.74743 0.21227 0.9557 0.0
C3511 C 0.82105 0.20111 0.92773 0.0
C3512 C 0.76272 0.21655 0.88321 0.0
C3513 C 0.76933 0.24299 0.88789 0.0
C3514 C 0.76872 0.20423 0.90015 0.0
C3515 C 0.78118 0.21891 0.92236 0.0
C3516 C 0.78911 0.24554 0.92648 0.0
C3517 C 0.78313 0.25734 0.90899 0.0
C3518 C 0.76058 0.1757 0.89489 0.0
C3519 C 0.80233 0.26175 0.95005 0.0
H3520 H 0.75707 0.18495 0.98631 0.0
H3521 H 0.81996 0.17799 0.96428 0.0
H3522 H 0.75239 0.23287 0.95662 0.0
H3523 H 0.73735 0.20257 0.938 0.0
H3524 H 0.73698 0.20923 0.97038 0.0
H3525 H 0.83434 0.19211 0.93151 0.0
H3526 H 0.81375 0.19276 0.90858 0.0
H3527 H 0.82853 0.2216 0.92971 0.0
H3528 H 0.75203 0.20567 0.86676 0.0
H3529 H 0.78798 0.27786 0.9125 0.0
H3530 H 0.74738 0.17057 0.90636 0.0
H3531 H 0.77411 0.16737 0.89938 0.0
H3532 H 0.75382 0.16697 0.8756 0.0
H3533 H 0.79117 0.26314 0.96444 0.0
H3534 H 0.81039 0.28124 0.94871 0.0
H3535 H 0.81519 0.25315 0.95585 0.0
C3536 C 0.15163 0.51139 0.13872 0.0
C3537 C 0.15117 0.51527 0.16358 0.0
C3538 C 0.13603 0.51803 0.12505 0.0
C3539 C 0.12022 0.52903 0.13703 0.0
C3540 C 0.11991 0.53311 0.16225 0.0
C3541 C 0.13544 0.5259 0.17533 0.0
C3542 C 0.13667 0.51372 0.098 0.0
C3543 C 0.10349 0.54542 0.17532 0.0
C3544 C 0.09605 0.56445 0.09988 0.0
C3545 C 0.0776 0.54535 0.08776 0.0
C3546 C 0.10951 0.5601 0.11764 0.0
C3547 C 0.10397 0.53617 0.12298 0.0
C3548 C 0.084 0.51794 0.11263 0.0
C3549 C 0.07076 0.52294 0.09508 0.0
C3550 C 0.1306 0.58005 0.12888 0.0
C3551 C 0.07789 0.49219 0.11804 0.0
H3552 H 0.16431 0.5036 0.13018 0.0
H3553 H 0.13574 0.52919 0.19484 0.0
H3554 H 0.12046 0.50193 0.08824 0.0
H3555 H 0.13993 0.53214 0.09301 0.0
H3556 H 0.14962 0.50418 0.09159 0.0
H3557 H 0.10615 0.54808 0.19524 0.0
H3558 H 0.10467 0.5642 0.17153 0.0
H3559 H 0.08646 0.53361 0.16858 0.0
H3560 H 0.10078 0.58199 0.09433 0.0
H3561 H 0.05638 0.50828 0.08538 0.0
H3562 H 0.145 0.57325 0.12263 0.0
H3563 H 0.13214 0.58354 0.1489 0.0
H3564 H 0.13145 0.5983 0.12403 0.0
H3565 H 0.08945 0.48112 0.11037 0.0
H3566 H 0.06082 0.48125 0.11017 0.0
H3567 H 0.07941 0.49416 0.13787 0.0
C3568 C 0.8171 0.81851 0.45186 0.0
C3569 C 0.81213 0.84107 0.46367 0.0
C3570 C 0.81397 0.80982 0.42638 0.0
C3571 C 0.80619 0.82433 0.41222 0.0
C3572 C 0.79949 0.84601 0.4241 0.0
C3573 C 0.80241 0.85401 0.44962 0.0
C3574 C 0.82045 0.78604 0.41463 0.0
C3575 C 0.79057 0.86174 0.40983 0.0
C3576 C 0.82876 0.83008 0.35255 0.0
C3577 C 0.81217 0.81312 0.3352 0.0
C3578 C 0.8276 0.83237 0.37748 0.0
C3579 C 0.80827 0.8193 0.38553 0.0
C3580 C 0.79092 0.80281 0.36804 0.0
C3581 C 0.7934 0.79933 0.34313 0.0
C3582 C 0.84685 0.84948 0.39528 0.0
C3583 C 0.76947 0.78954 0.37549 0.0
H3584 H 0.82423 0.80807 0.46251 0.0
H3585 H 0.79836 0.87137 0.45847 0.0
H3586 H 0.80808 0.77417 0.39922 0.0
H3587 H 0.83645 0.79132 0.40735 0.0
H3588 H 0.82219 0.77451 0.42769 0.0
H3589 H 0.78388 0.87631 0.42152 0.0
H3590 H 0.80393 0.87152 0.40075 0.0
H3591 H 0.77735 0.84939 0.39547 0.0
H3592 H 0.8423 0.84231 0.34673 0.0
H3593 H 0.78004 0.78693 0.32977 0.0
H3594 H 0.85248 0.83869 0.40731 0.0
H3595 H 0.8417 0.86538 0.40692 0.0
H3596 H 0.861 0.85753 0.38614 0.0
H3597 H 0.77212 0.77435 0.38384 0.0
H3598 H 0.75645 0.78086 0.35983 0.0
H3599 H 0.76339 0.80302 0.38924 0.0
C3600 C 0.47983 0.58701 0.86777 0.0
C3601 C 0.4742 0.56797 0.84573 0.0
C3602 C 0.49003 0.58324 0.8893 0.0
C3603 C 0.49428 0.55944 0.88984 0.0
C3604 C 0.48843 0.54013 0.86765 0.0
C3605 C 0.47909 0.54473 0.84617 0.0
C3606 C 0.49677 0.60515 0.91152 0.0
C3607 C 0.49168 0.51416 0.86666 0.0
C3608 C 0.53403 0.5529 0.94288 0.0
C3609 C 0.51954 0.54607 0.95971 0.0
C3610 C 0.52631 0.55715 0.92036 0.0
C3611 C 0.50333 0.55428 0.91371 0.0
C3612 C 0.48877 0.54657 0.9304 0.0
C3613 C 0.49692 0.54298 0.9528 0.0
C3614 C 0.54301 0.56578 0.90408 0.0
C3615 C 0.46425 0.54245 0.9248 0.0
H3616 H 0.47692 0.60533 0.86804 0.0
H3617 H 0.47522 0.52973 0.82957 0.0
H3618 H 0.48841 0.6 0.92695 0.0
H3619 H 0.5148 0.60945 0.91681 0.0
H3620 H 0.4928 0.62255 0.90854 0.0
H3621 H 0.48712 0.50129 0.84818 0.0
H3622 H 0.50912 0.51566 0.87268 0.0
H3623 H 0.48144 0.5055 0.8793 0.0
H3624 H 0.55155 0.55596 0.94771 0.0
H3625 H 0.48531 0.53792 0.96533 0.0
H3626 H 0.54362 0.58565 0.90381 0.0
H3627 H 0.53813 0.55402 0.88522 0.0
H3628 H 0.5598 0.5649 0.91024 0.0
H3629 H 0.46058 0.56072 0.92433 0.0
H3630 H 0.4548 0.53458 0.93841 0.0
H3631 H 0.45837 0.52927 0.90664 0.0
C3632 C 0.75771 0.17631 0.08689 0.0
C3633 C 0.7751 0.16467 0.08584 0.0
C3634 C 0.75586 0.19377 0.1083 0.0
C3635 C 0.77189 0.19956 0.12864 0.0
C3636 C 0.78844 0.18633 0.12798 0.0
C3637 C 0.78969 0.16892 0.10665 0.0
C3638 C 0.7378 0.20728 0.10856 0.0
C3639 C 0.80579 0.19172 0.14929 0.0
C3640 C 0.79285 0.26072 0.17692 0.0
C3641 C 0.78404 0.25349 0.19698 0.0
C3642 C 0.78687 0.24431 0.15362 0.0
C3643 C 0.77234 0.21989 0.15061 0.0
C3644 C 0.76205 0.2134 0.17044 0.0
C3645 C 0.76766 0.2305 0.19325 0.0
C3646 C 0.79752 0.25229 0.13263 0.0
C3647 C 0.74681 0.18744 0.16815 0.0
H3648 H 0.74663 0.17321 0.07063 0.0
H3649 H 0.80316 0.15987 0.10567 0.0
H3650 H 0.73003 0.2081 0.12561 0.0
H3651 H 0.745 0.22712 0.1077 0.0
H3652 H 0.72483 0.19792 0.09296 0.0
H3653 H 0.81682 0.17879 0.14615 0.0
H3654 H 0.81612 0.21151 0.15276 0.0
H3655 H 0.79789 0.1898 0.1659 0.0
H3656 H 0.80482 0.27879 0.17944 0.0
H3657 H 0.76012 0.22491 0.20843 0.0
H3658 H 0.78531 0.24662 0.11628 0.0
H3659 H 0.81081 0.24265 0.12823 0.0
H3660 H 0.80488 0.27312 0.13688 0.0
H3661 H 0.73396 0.18249 0.15249 0.0
H3662 H 0.73861 0.18619 0.18475 0.0
H3663 H 0.75638 0.17299 0.16481 0.0
C3664 C 0.13517 0.52357 0.28517 0.0
C3665 C 0.15527 0.54002 0.28374 0.0
C3666 C 0.12576 0.52617 0.30685 0.0
C3667 C 0.13641 0.5464 0.32686 0.0
C3668 C 0.15731 0.56242 0.32569 0.0
C3669 C 0.16672 0.5587 0.30401 0.0
C3670 C 0.10408 0.50796 0.30807 0.0
C3671 C 0.16949 0.58381 0.34696 0.0
C3672 C 0.10038 0.58031 0.3639 0.0
C3673 C 0.10404 0.57487 0.38619 0.0
C3674 C 0.11036 0.57034 0.34418 0.0
C3675 C 0.12385 0.55406 0.34681 0.0
C3676 C 0.12651 0.54711 0.36882 0.0
C3677 C 0.11663 0.55784 0.3885 0.0
C3678 C 0.10736 0.57834 0.32093 0.0
C3679 C 0.14037 0.52921 0.37182 0.0
H3680 H 0.12699 0.50852 0.26941 0.0
H3681 H 0.18273 0.57069 0.3027 0.0
H3682 H 0.10443 0.50194 0.32526 0.0
H3683 H 0.09059 0.51752 0.3077 0.0
H3684 H 0.10014 0.49082 0.29262 0.0
H3685 H 0.18319 0.59726 0.34148 0.0
H3686 H 0.15824 0.5946 0.35592 0.0
H3687 H 0.17663 0.57577 0.36056 0.0
H3688 H 0.09012 0.59294 0.36209 0.0
H3689 H 0.11933 0.55358 0.40583 0.0
H3690 H 0.10023 0.56145 0.30569 0.0
H3691 H 0.12362 0.58816 0.31652 0.0
H3692 H 0.09637 0.59129 0.32211 0.0
H3693 H 0.13649 0.51244 0.35603 0.0
H3694 H 0.13782 0.52261 0.38862 0.0
H3695 H 0.15807 0.53898 0.37269 0.0
C3696 C 0.79286 0.83135 0.59536 0.0
C3697 C 0.81361 0.84473 0.59119 0.0
C3698 C 0.78963 0.82556 0.61797 0.0
C3699 C 0.8073 0.83439 0.63702 0.0
C3700 C 0.82808 0.84831 0.63287 0.0
C3701 C 0.83102 0.85291 0.61002 0.0
C3702 C 0.76739 0.81014 0.62153 0.0
C3703 C 0.84728 0.85858 0.65268 0.0
C3704 C 0.80121 0.84416 0.70443 0.0
C3705 C 0.80812 0.82379 0.70947 0.0
C3706 C 0.79906 0.84671 0.68047 0.0
C3707 C 0.8047 0.82899 0.66134 0.0
C3708 C 0.81114 0.80804 0.66642 0.0
C3709 C 0.81273 0.80571 0.69035 0.0
C3710 C 0.79158 0.86899 0.67593 0.0
C3711 C 0.81722 0.78861 0.64672 0.0
H3712 H 0.77932 0.82514 0.58092 0.0
H3713 H 0.847 0.86373 0.6071 0.0
H3714 H 0.76924 0.79351 0.62807 0.0
H3715 H 0.76005 0.82179 0.63563 0.0
H3716 H 0.7558 0.80331 0.60457 0.0
H3717 H 0.86212 0.86987 0.64676 0.0
H3718 H 0.84257 0.87079 0.6687 0.0
H3719 H 0.85171 0.8427 0.65856 0.0
H3720 H 0.79737 0.85797 0.71914 0.0
H3721 H 0.81832 0.79005 0.69426 0.0
H3722 H 0.78212 0.86435 0.65779 0.0
H3723 H 0.80626 0.88496 0.67689 0.0
H3724 H 0.78104 0.87533 0.68977 0.0
H3725 H 0.80387 0.78115 0.63137 0.0
H3726 H 0.82027 0.77243 0.65331 0.0
H3727 H 0.83235 0.79765 0.63961 0.0
C3728 C 0.77662 0.51124 0.51524 0.0
C3729 C 0.77701 0.48577 0.50878 0.0
C3730 C 0.75671 0.51785 0.51575 0.0
C3731 C 0.73682 0.4984 0.50905 0.0
C3732 C 0.73722 0.47299 0.49914 0.0
C3733 C 0.75752 0.46682 0.49931 0.0
C3734 C 0.75708 0.54527 0.52643 0.0
C3735 C 0.71619 0.4522 0.4904 0.0
C3736 C 0.69862 0.51642 0.55352 0.0
C3737 C 0.68794 0.53011 0.54154 0.0
C3738 C 0.71302 0.50345 0.54199 0.0
C3739 C 0.71666 0.50424 0.51788 0.0
C3740 C 0.70426 0.51589 0.50488 0.0
C3741 C 0.6901 0.52899 0.517 0.0
C3742 C 0.72587 0.49101 0.55644 0.0
C3743 C 0.70733 0.51644 0.47895 0.0
H3744 H 0.79183 0.52599 0.52174 0.0
H3745 H 0.75797 0.44715 0.49363 0.0
H3746 H 0.74585 0.55156 0.51499 0.0
H3747 H 0.75131 0.54728 0.54464 0.0
H3748 H 0.77388 0.55819 0.52838 0.0
H3749 H 0.71943 0.43399 0.48094 0.0
H3750 H 0.70706 0.44912 0.50599 0.0
H3751 H 0.70534 0.45784 0.4779 0.0
H3752 H 0.69635 0.51666 0.57226 0.0
H3753 H 0.68165 0.53941 0.50761 0.0
H3754 H 0.74344 0.50201 0.56016 0.0
H3755 H 0.72527 0.47151 0.54604 0.0
H3756 H 0.71946 0.48996 0.57404 0.0
H3757 H 0.72148 0.53255 0.47863 0.0
H3758 H 0.69247 0.51908 0.46951 0.0
H3759 H 0.71092 0.49876 0.46874 0.0
C3760 C 0.2138 0.1509 0.50828 0.0
C3761 C 0.22325 0.14378 0.4869 0.0
C3762 C 0.19238 0.13775 0.51125 0.0
C3763 C 0.17996 0.11718 0.49228 0.0
C3764 C 0.18919 0.11045 0.47041 0.0
C3765 C 0.2107 0.12366 0.46806 0.0
C3766 C 0.1833 0.1454 0.53497 0.0
C3767 C 0.17639 0.0891 0.4495 0.0
C3768 C 0.13326 0.06651 0.50632 0.0
C3769 C 0.11459 0.0744 0.50035 0.0
C3770 C 0.15461 0.08037 0.50402 0.0
C3771 C 0.15739 0.10251 0.49526 0.0
C3772 C 0.13855 0.11034 0.48892 0.0
C3773 C 0.11748 0.09635 0.49172 0.0
C3774 C 0.17424 0.07151 0.51127 0.0
C3775 C 0.14062 0.13364 0.47934 0.0
H3776 H 0.2234 0.16625 0.52302 0.0
H3777 H 0.21778 0.11806 0.45142 0.0
H3778 H 0.16707 0.14929 0.53173 0.0
H3779 H 0.18062 0.12954 0.54397 0.0
H3780 H 0.19455 0.16249 0.54751 0.0
H3781 H 0.18581 0.08631 0.43363 0.0
H3782 H 0.17198 0.07112 0.45526 0.0
H3783 H 0.16073 0.09309 0.44378 0.0
H3784 H 0.13126 0.04991 0.51347 0.0
H3785 H 0.10316 0.10265 0.4871 0.0
H3786 H 0.18554 0.08672 0.52568 0.0
H3787 H 0.18363 0.06752 0.49556 0.0
H3788 H 0.16937 0.05413 0.518 0.0
H3789 H 0.14947 0.15077 0.49362 0.0
H3790 H 0.1243 0.13607 0.47348 0.0
H3791 H 0.15046 0.13256 0.46375 0.0
C3792 C 0.24347 0.95226 0.77437 0.0
C3793 C 0.2204 0.94761 0.76819 0.0
C3794 C 0.25454 0.93241 0.77367 0.0
C3795 C 0.24272 0.90619 0.76757 0.0
C3796 C 0.21939 0.9013 0.7612 0.0
C3797 C 0.20879 0.92156 0.76137 0.0
C3798 C 0.27922 0.93972 0.78006 0.0
C3799 C 0.20523 0.8744 0.75519 0.0
C3800 C 0.27391 0.851 0.75266 0.0
C3801 C 0.27597 0.84387 0.77477 0.0
C3802 C 0.26342 0.87076 0.74999 0.0
C3803 C 0.25438 0.88455 0.76972 0.0
C3804 C 0.25687 0.8776 0.79204 0.0
C3805 C 0.26724 0.85788 0.79415 0.0
C3806 C 0.26177 0.87669 0.72567 0.0
C3807 C 0.2483 0.89101 0.81409 0.0
H3808 H 0.25309 0.97185 0.78022 0.0
H3809 H 0.19102 0.9169 0.75731 0.0
H3810 H 0.2834 0.93374 0.79655 0.0
H3811 H 0.28699 0.9297 0.7652 0.0
H3812 H 0.28649 0.96047 0.78333 0.0
H3813 H 0.18803 0.8729 0.7481 0.0
H3814 H 0.21235 0.86192 0.74159 0.0
H3815 H 0.20484 0.86721 0.77175 0.0
H3816 H 0.28012 0.84079 0.73717 0.0
H3817 H 0.26838 0.85322 0.81149 0.0
H3818 H 0.2697 0.89707 0.72752 0.0
H3819 H 0.24417 0.87316 0.71877 0.0
H3820 H 0.26969 0.8651 0.71214 0.0
H3821 H 0.2567 0.91158 0.81881 0.0
H3822 H 0.25089 0.88347 0.83008 0.0
H3823 H 0.2304 0.88905 0.81012 0.0
C3824 C 0.40783 0.0239 0.03346 0.0
C3825 C 0.39345 0.0067 0.01407 0.0
C3826 C 0.42993 0.02355 0.03651 0.0
C3827 C 0.43739 0.00546 0.01971 0.0
C3828 C 0.42316 0.98912 0.99933 0.0
C3829 C 0.40141 0.99053 0.99634 0.0
C3830 C 0.44517 0.04231 0.05763 0.0
C3831 C 0.43069 0.96942 0.98128 0.0
C3832 C 0.49522 0.02089 0.00572 0.0
C3833 C 0.504 1.00336 0.01391 0.0
C3834 C 0.47388 0.02245 0.00831 0.0
C3835 C 0.46087 0.00647 0.02062 0.0
C3836 C 0.46975 0.98974 0.03088 0.0
C3837 C 0.49125 0.98792 0.02691 0.0
C3838 C 0.46538 0.04067 0.99685 0.0
C3839 C 0.45671 0.97427 0.0462 0.0
H3840 H 0.40131 0.03592 0.04739 0.0
H3841 H 0.38993 0.97673 0.98183 0.0
H3842 H 0.4549 0.03256 0.06717 0.0
H3843 H 0.45708 0.05652 0.05086 0.0
H3844 H 0.43606 0.05257 0.07085 0.0
H3845 H 0.41714 0.95721 0.96718 0.0
H3846 H 0.44428 0.97888 0.97226 0.0
H3847 H 0.43723 0.95707 0.99081 0.0
H3848 H 0.5053 0.03433 0.998 0.0
H3849 H 0.4983 0.97532 0.03481 0.0
H3850 H 0.45199 0.04731 0.0059 0.0
H3851 H 0.45886 0.03093 0.97769 0.0
H3852 H 0.47883 0.05769 0.99706 0.0
H3853 H 0.45053 0.98682 0.06073 0.0
H3854 H 0.46672 0.96401 0.05472 0.0
H3855 H 0.4421 0.96028 0.03493 0.0
C3856 C 0.87943 0.59508 0.7884 0.0
C3857 C 0.87788 0.59158 0.81192 0.0
C3858 C 0.86539 0.60621 0.77809 0.0
C3859 C 0.84869 0.61341 0.79129 0.0
C3860 C 0.84586 0.60854 0.81435 0.0
C3861 C 0.86077 0.59773 0.82466 0.0
C3862 C 0.86961 0.61176 0.75372 0.0
C3863 C 0.82762 0.61552 0.82825 0.0
C3864 C 0.83864 0.66801 0.77041 0.0
C3865 C 0.82237 0.65539 0.75087 0.0
C3866 C 0.84571 0.65481 0.78582 0.0
C3867 C 0.83617 0.62843 0.78143 0.0
C3868 C 0.81869 0.61589 0.76272 0.0
C3869 C 0.81206 0.62958 0.74741 0.0
C3870 C 0.86515 0.66854 0.80487 0.0
C3871 C 0.80866 0.58761 0.75733 0.0
H3872 H 0.89224 0.58988 0.77794 0.0
H3873 H 0.85934 0.59462 0.84262 0.0
H3874 H 0.85432 0.60459 0.74087 0.0
H3875 H 0.8753 0.63257 0.75602 0.0
H3876 H 0.8824 0.6031 0.7453 0.0
H3877 H 0.82652 0.60857 0.84497 0.0
H3878 H 0.83045 0.63645 0.83336 0.0
H3879 H 0.81157 0.6075 0.81664 0.0
H3880 H 0.84672 0.68795 0.77282 0.0
H3881 H 0.7993 0.62001 0.73237 0.0
H3882 H 0.88019 0.6633 0.79857 0.0
H3883 H 0.86251 0.66295 0.8221 0.0
H3884 H 0.86825 0.68948 0.80849 0.0
H3885 H 0.81997 0.57748 0.74753 0.0
H3886 H 0.79256 0.58176 0.74582 0.0
H3887 H 0.80634 0.58144 0.77434 0.0
C3888 C 0.84433 0.63349 0.01114 0.0
C3889 C 0.84804 0.65875 0.00985 0.0
C3890 C 0.86196 0.62258 0.01325 0.0
C3891 C 0.88388 0.63745 0.01466 0.0
C3892 C 0.88775 0.66269 0.01245 0.0
C3893 C 0.86975 0.67298 0.00988 0.0
C3894 C 0.85712 0.59527 0.01464 0.0
C3895 C 0.91088 0.67888 0.01319 0.0
C3896 C 0.92264 0.61604 0.05295 0.0
C3897 C 0.9306 0.59955 0.03537 0.0
C3898 C 0.90866 0.62998 0.04631 0.0
C3899 C 0.90246 0.62735 0.02147 0.0
C3900 C 0.91198 0.61247 0.00363 0.0
C3901 C 0.92594 0.59865 0.01082 0.0
C3902 C 0.89942 0.6463 0.06591 0.0
C3903 C 0.90633 0.60961 0.97694 0.0
H3904 H 0.82759 0.62213 0.01037 0.0
H3905 H 0.87278 0.69226 0.0081 0.0
H3906 H 0.86575 0.58456 0.00123 0.0
H3907 H 0.86338 0.59443 0.0329 0.0
H3908 H 0.8392 0.58569 0.01116 0.0
H3909 H 0.91108 0.69815 0.01115 0.0
H3910 H 0.92067 0.6808 0.0306 0.0
H3911 H 0.91924 0.6696 0.99849 0.0
H3912 H 0.92678 0.6174 0.07198 0.0
H3913 H 0.93222 0.58609 0.99714 0.0
H3914 H 0.88143 0.6379 0.06519 0.0
H3915 H 0.90165 0.66558 0.06295 0.0
H3916 H 0.90736 0.64809 0.08431 0.0
H3917 H 0.89091 0.59431 0.97029 0.0
H3918 H 0.91957 0.60432 0.96636 0.0
H3919 H 0.90358 0.62729 0.97332 0.0
C3920 C 0.22605 0.10529 0.80352 0.0
C3921 C 0.2199 0.08464 0.78281 0.0
C3922 C 0.23687 0.13035 0.8023 0.0
C3923 C 0.24279 0.1355 0.77991 0.0
C3924 C 0.23679 0.11467 0.7589 0.0
C3925 C 0.22521 0.08989 0.76051 0.0
C3926 C 0.24171 0.15153 0.82515 0.0
C3927 C 0.24306 0.11842 0.73464 0.0
C3928 C 0.25494 0.20513 0.7733 0.0
C3929 C 0.27819 0.21406 0.77778 0.0
C3930 C 0.24344 0.18001 0.77372 0.0
C3931 C 0.25509 0.16251 0.77863 0.0
C3932 C 0.27854 0.17135 0.78303 0.0
C3933 C 0.28962 0.19665 0.78265 0.0
C3934 C 0.2186 0.17224 0.76903 0.0
C3935 C 0.29211 0.15398 0.78821 0.0
H3936 H 0.22197 0.10196 0.82089 0.0
H3937 H 0.22084 0.07442 0.74429 0.0
H3938 H 0.25968 0.16069 0.82886 0.0
H3939 H 0.23339 0.1663 0.82276 0.0
H3940 H 0.23608 0.14478 0.84116 0.0
H3941 H 0.23646 0.10096 0.71979 0.0
H3942 H 0.23692 0.13401 0.73027 0.0
H3943 H 0.26131 0.12405 0.73538 0.0
H3944 H 0.24552 0.21785 0.76939 0.0
H3945 H 0.30739 0.20274 0.78622 0.0
H3946 H 0.21152 0.16656 0.78492 0.0
H3947 H 0.21309 0.15551 0.75328 0.0
H3948 H 0.21178 0.18771 0.76539 0.0
H3949 H 0.28825 0.14889 0.80544 0.0
H3950 H 0.31011 0.16282 0.78969 0.0
H3951 H 0.28787 0.13609 0.77366 0.0
C3952 C 0.35843 0.97781 0.27993 0.0
C3953 C 0.37721 0.98536 0.2968 0.0
C3954 C 0.35023 0.95216 0.26755 0.0
C3955 C 0.36105 0.93425 0.27276 0.0
C3956 C 0.38141 0.94252 0.28783 0.0
C3957 C 0.38922 0.96811 0.29968 0.0
C3958 C 0.32928 0.94413 0.25034 0.0
C3959 C 0.39391 0.92418 0.29339 0.0
C3960 C 0.32941 0.87305 0.28358 0.0
C3961 C 0.33974 0.85647 0.26953 0.0
C3962 C 0.33533 0.89879 0.2842 0.0
C3963 C 0.34934 0.90717 0.26748 0.0
C3964 C 0.35588 0.88934 0.24952 0.0
C3965 C 0.35195 0.86429 0.2515 0.0
C3966 C 0.32862 0.91709 0.30448 0.0
C3967 C 0.36794 0.89701 0.22918 0.0
H3968 H 0.34962 0.99159 0.27734 0.0
H3969 H 0.40423 0.97451 0.31222 0.0
H3970 H 0.32868 0.92676 0.23601 0.0
H3971 H 0.31485 0.94004 0.26048 0.0
H3972 H 0.32766 0.95952 0.24168 0.0
H3973 H 0.4098 0.93405 0.30496 0.0
H3974 H 0.38372 0.91114 0.30287 0.0
H3975 H 0.39754 0.91244 0.27641 0.0
H3976 H 0.31766 0.86631 0.29498 0.0
H3977 H 0.35851 0.85097 0.23901 0.0
H3978 H 0.32085 0.93003 0.29725 0.0
H3979 H 0.34351 0.92891 0.31693 0.0
H3980 H 0.31692 0.90719 0.31521 0.0
H3981 H 0.35865 0.90748 0.22004 0.0
H3982 H 0.37005 0.88034 0.21551 0.0
H3983 H 0.38444 0.91001 0.2364 0.0
C3984 C 0.59961 0.38671 0.55215 0.0
C3985 C 0.58521 0.37803 0.56813 0.0
C3986 C 0.59716 0.40715 0.54228 0.0
C3987 C 0.57992 0.41915 0.54845 0.0
C3988 C 0.56555 0.4104 0.56465 0.0
C3989 C 0.56846 0.39033 0.57427 0.0
C3990 C 0.61284 0.41578 0.52504 0.0
C3991 C 0.54663 0.42186 0.57149 0.0
C3992 C 0.58352 0.48777 0.54627 0.0
C3993 C 0.57082 0.48502 0.52437 0.0
C3994 C 0.58727 0.46667 0.55365 0.0
C3995 C 0.5774 0.44174 0.53933 0.0
C3996 C 0.564 0.43875 0.5174 0.0
C3997 C 0.56158 0.46039 0.50979 0.0
C3998 C 0.602 0.47115 0.57686 0.0
C3999 C 0.55228 0.41274 0.50188 0.0
H4000 H 0.61228 0.37711 0.54681 0.0
H4001 H 0.55708 0.38373 0.58644 0.0
H4002 H 0.60349 0.41429 0.5075 0.0
H4003 H 0.62174 0.43605 0.53251 0.0
H4004 H 0.62511 0.40443 0.52163 0.0
H4005 H 0.53679 0.41282 0.58421 0.0
H4006 H 0.55292 0.44247 0.58005 0.0
H4007 H 0.53553 0.41973 0.55495 0.0
H4008 H 0.59111 0.50661 0.5575 0.0
H4009 H 0.55254 0.45802 0.49236 0.0
H4010 H 0.61527 0.4613 0.57334 0.0
H4011 H 0.59231 0.46312 0.5902 0.0
H4012 H 0.6097 0.49164 0.58507 0.0
H4013 H 0.56453 0.40335 0.49327 0.0
H4014 H 0.54017 0.41359 0.48739 0.0
H4015 H 0.54348 0.40071 0.51312 0.0
C4016 C 0.43719 0.7553 0.38964 0.0
C4017 C 0.45813 0.76997 0.38723 0.0
C4018 C 0.41776 0.75639 0.37647 0.0
C4019 C 0.41907 0.77263 0.36048 0.0
C4020 C 0.44013 0.78786 0.35848 0.0
C4021 C 0.45918 0.7863 0.37169 0.0
C4022 C 0.39583 0.73967 0.37921 0.0
C4023 C 0.44264 0.80575 0.34211 0.0
C4024 C 0.37381 0.76028 0.30748 0.0
C4025 C 0.36196 0.77819 0.31615 0.0
C4026 C 0.39195 0.7579 0.32175 0.0
C4027 C 0.39867 0.77369 0.34561 0.0
C4028 C 0.38644 0.79136 0.35471 0.0
C4029 C 0.36832 0.79327 0.34006 0.0
C4030 C 0.4042 0.73867 0.31107 0.0
C4031 C 0.39272 0.80865 0.37991 0.0
H4032 H 0.43601 0.74245 0.40136 0.0
H4033 H 0.47513 0.79783 0.36957 0.0
H4034 H 0.38387 0.75119 0.38391 0.0
H4035 H 0.38896 0.72564 0.36172 0.0
H4036 H 0.39721 0.72929 0.39336 0.0
H4037 H 0.46009 0.81633 0.34249 0.0
H4038 H 0.43621 0.795 0.32317 0.0
H4039 H 0.43278 0.81963 0.34766 0.0
H4040 H 0.3689 0.74798 0.28943 0.0
H4041 H 0.35939 0.80708 0.3473 0.0
H4042 H 0.40432 0.72547 0.32284 0.0
H4043 H 0.42162 0.74843 0.31027 0.0
H4044 H 0.39676 0.72744 0.29252 0.0
H4045 H 0.3911 0.79715 0.39344 0.0
H4046 H 0.38228 0.82214 0.38403 0.0
H4047 H 0.41023 0.81966 0.38207 0.0
C4048 C 0.06329 0.72919 0.04885 0.0
C4049 C 0.08102 0.74654 0.06485 0.0
C4050 C 0.06278 0.70339 0.04049 0.0
C4051 C 0.08062 0.69444 0.0479 0.0
C4052 C 0.09944 0.71218 0.06225 0.0
C4053 C 0.09936 0.73793 0.07075 0.0
C4054 C 0.04218 0.68544 0.02543 0.0
C4055 C 0.11927 0.70368 0.0695 0.0
C4056 C 0.06394 0.62752 0.05694 0.0
C4057 C 0.0661 0.61251 0.03438 0.0
C4058 C 0.06923 0.65412 0.06172 0.0
C4059 C 0.07792 0.66635 0.04385 0.0
C4060 C 0.08147 0.65129 0.02149 0.0
C4061 C 0.07454 0.62455 0.01662 0.0
C4062 C 0.06377 0.66898 0.0852 0.0
C4063 C 0.09168 0.66336 0.00234 0.0
H4064 H 0.04909 0.73543 0.04376 0.0
H4065 H 0.11332 0.75106 0.08276 0.0
H4066 H 0.04631 0.67192 0.01004 0.0
H4067 H 0.0327 0.67415 0.03685 0.0
H4068 H 0.03138 0.69569 0.01813 0.0
H4069 H 0.13338 0.71995 0.07867 0.0
H4070 H 0.1149 0.69117 0.08194 0.0
H4071 H 0.12452 0.69243 0.05326 0.0
H4072 H 0.05641 0.61826 0.07029 0.0
H4073 H 0.07505 0.61311 0.99867 0.0
H4074 H 0.05117 0.67884 0.08126 0.0
H4075 H 0.07862 0.68372 0.09502 0.0
H4076 H 0.05727 0.65669 0.0973 0.0
H4077 H 0.08028 0.67274 0.99482 0.0
H4078 H 0.09556 0.64923 0.98721 0.0
H4079 H 0.10709 0.67821 0.01044 0.0
C4080 C 0.09638 0.27391 0.90147 0.0
C4081 C 0.07753 0.26283 0.88449 0.0
C4082 C 0.11769 0.27952 0.89391 0.0
C4083 C 0.12011 0.27488 0.86879 0.0
C4084 C 0.10108 0.26343 0.85173 0.0
C4085 C 0.08022 0.25723 0.85977 0.0
C4086 C 0.13745 0.29079 0.91287 0.0
C4087 C 0.1026 0.25843 0.82479 0.0
C4088 C 0.16553 0.31456 0.84204 0.0
C4089 C 0.17687 0.29673 0.83167 0.0
C4090 C 0.14809 0.30831 0.85581 0.0
C4091 C 0.14192 0.28369 0.85978 0.0
C4092 C 0.15476 0.26647 0.85151 0.0
C4093 C 0.17199 0.27311 0.83743 0.0
C4094 C 0.13525 0.32752 0.86462 0.0
C4095 C 0.14957 0.24056 0.85652 0.0
H4096 H 0.09453 0.27803 0.92064 0.0
H4097 H 0.06581 0.24867 0.8465 0.0
H4098 H 0.152 0.2842 0.9068 0.0
H4099 H 0.14183 0.31176 0.91632 0.0
H4100 H 0.13388 0.28589 0.93028 0.0
H4101 H 0.08619 0.25009 0.81392 0.0
H4102 H 0.11046 0.27639 0.82007 0.0
H4103 H 0.11308 0.24521 0.81949 0.0
H4104 H 0.16965 0.33319 0.83845 0.0
H4105 H 0.18077 0.25926 0.82982 0.0
H4106 H 0.13464 0.33053 0.88442 0.0
H4107 H 0.118 0.32025 0.85575 0.0
H4108 H 0.14255 0.34612 0.86076 0.0
H4109 H 0.1481 0.2423 0.87609 0.0
H4110 H 0.16238 0.23042 0.85115 0.0
H4111 H 0.13347 0.22889 0.84641 0.0
C4112 C 0.58065 0.7597 0.924 0.0
C4113 C 0.60289 0.76927 0.92182 0.0
C4114 C 0.57436 0.74327 0.93869 0.0
C4115 C 0.59086 0.73636 0.95141 0.0
C4116 C 0.61338 0.74504 0.94836 0.0
C4117 C 0.6192 0.76154 0.93334 0.0
C4118 C 0.55014 0.73421 0.94134 0.0
C4119 C 0.63119 0.73741 0.96136 0.0
C4120 C 0.57128 0.71925 0.00781 0.0
C4121 C 0.56329 0.69294 0.99946 0.0
C4122 C 0.58173 0.7336 0.9927 0.0
C4123 C 0.58418 0.72118 0.96882 0.0
C4124 C 0.57689 0.69453 0.96057 0.0
C4125 C 0.56626 0.68071 0.97593 0.0
C4126 C 0.58915 0.76213 0.00184 0.0
C4127 C 0.57914 0.68079 0.93511 0.0
H4128 H 0.56817 0.76555 0.91455 0.0
H4129 H 0.63638 0.76904 0.93126 0.0
H4130 H 0.54495 0.71319 0.93707 0.0
H4131 H 0.54724 0.74144 0.96036 0.0
H4132 H 0.53948 0.74065 0.9293 0.0
H4133 H 0.64797 0.74685 0.9579 0.0
H4134 H 0.63022 0.74219 0.98117 0.0
H4135 H 0.62868 0.71656 0.95534 0.0
H4136 H 0.56922 0.72858 0.02609 0.0
H4137 H 0.55977 0.66033 0.96927 0.0
H4138 H 0.57873 0.77082 0.99188 0.0
H4139 H 0.60645 0.76929 0.99841 0.0
H4140 H 0.58798 0.76858 0.02152 0.0
H4141 H 0.56723 0.68427 0.92206 0.0
H4142 H 0.57587 0.65998 0.93285 0.0
H4143 H 0.59591 0.68803 0.93025 0.0
C4144 C 0.06472 0.72723 0.69423 0.0
C4145 C 0.06213 0.74701 0.68417 0.0
C4146 C 0.08566 0.72548 0.70154 0.0
C4147 C 0.10438 0.74386 0.69848 0.0
C4148 C 0.10197 0.76259 0.68645 0.0
C4149 C 0.08073 0.764 0.67944 0.0
C4150 C 0.08768 0.70508 0.71416 0.0
C4151 C 0.12174 0.78181 0.68214 0.0
C4152 C 0.14807 0.75474 0.74975 0.0
C4153 C 0.16045 0.73842 0.73925 0.0
C4154 C 0.13088 0.75861 0.73584 0.0
C4155 C 0.12584 0.74531 0.71109 0.0
C4156 C 0.13929 0.73008 0.70007 0.0
C4157 C 0.15664 0.72689 0.71438 0.0
C4158 C 0.11728 0.77571 0.74799 0.0
C4159 C 0.13457 0.71583 0.67369 0.0
H4160 H 0.05037 0.71374 0.69748 0.0
H4161 H 0.07871 0.77898 0.67114 0.0
H4162 H 0.09949 0.69476 0.70584 0.0
H4163 H 0.0942 0.71392 0.73348 0.0
H4164 H 0.07161 0.69113 0.71338 0.0
H4165 H 0.117 0.79447 0.67161 0.0
H4166 H 0.13098 0.79365 0.69972 0.0
H4167 H 0.13313 0.77196 0.67219 0.0
H4168 H 0.15175 0.76426 0.76889 0.0
H4169 H 0.1668 0.71478 0.70635 0.0
H4170 H 0.10073 0.76402 0.74963 0.0
H4171 H 0.11487 0.78891 0.73693 0.0
H4172 H 0.12508 0.78704 0.76638 0.0
H4173 H 0.12208 0.69756 0.67183 0.0
H4174 H 0.14964 0.71152 0.66644 0.0
H4175 H 0.12784 0.72661 0.66246 0.0
C4176 C 0.10452 0.39334 0.40885 0.0
C4177 C 0.12343 0.38759 0.41731 0.0
C4178 C 0.0984 0.41466 0.42109 0.0
C4179 C 0.11237 0.43127 0.44152 0.0
C4180 C 0.13254 0.42668 0.44898 0.0
C4181 C 0.13764 0.40433 0.43702 0.0
C4182 C 0.07622 0.41787 0.4128 0.0
C4183 C 0.14782 0.44443 0.47054 0.0
C4184 C 0.09722 0.49299 0.46278 0.0
C4185 C 0.08488 0.48788 0.4815 0.0
C4186 C 0.10721 0.475 0.45014 0.0
C4187 C 0.10456 0.45165 0.45654 0.0
C4188 C 0.09181 0.44638 0.47526 0.0
C4189 C 0.08199 0.46462 0.48743 0.0
C4190 C 0.11973 0.48042 0.42934 0.0
C4191 C 0.08732 0.42096 0.48143 0.0
H4192 H 0.0935 0.37989 0.39386 0.0
H4193 H 0.15208 0.39944 0.44365 0.0
H4194 H 0.07121 0.43366 0.42471 0.0
H4195 H 0.07659 0.42115 0.39437 0.0
H4196 H 0.06324 0.40011 0.41156 0.0
H4197 H 0.16415 0.4402 0.47179 0.0
H4198 H 0.15025 0.46442 0.46951 0.0
H4199 H 0.14033 0.44266 0.48743 0.0
H4200 H 0.09911 0.51102 0.45814 0.0
H4201 H 0.07137 0.46032 0.50099 0.0
H4202 H 0.11051 0.46767 0.41207 0.0
H4203 H 0.1361 0.47643 0.43119 0.0
H4204 H 0.12208 0.50038 0.4282 0.0
H4205 H 0.07657 0.40624 0.46619 0.0
H4206 H 0.07899 0.42103 0.49812 0.0
H4207 H 0.10288 0.4154 0.484 0.0
C4208 C 0.45022 0.24782 0.22867 0.0
C4209 C 0.4466 0.24387 0.20346 0.0
C4210 C 0.43385 0.25299 0.24306 0.0
C4211 C 0.41332 0.25268 0.2316 0.0
C4212 C 0.40836 0.24374 0.20611 0.0
C4213 C 0.42537 0.23995 0.19215 0.0
C4214 C 0.43974 0.26277 0.27015 0.0
C4215 C 0.38611 0.24194 0.19343 0.0
C4216 C 0.36618 0.26897 0.26333 0.0
C4217 C 0.36613 0.29139 0.2565 0.0
C4218 C 0.38223 0.25621 0.25652 0.0
C4219 C 0.39957 0.26765 0.24482 0.0
C4220 C 0.40151 0.29243 0.24179 0.0
C4221 C 0.384 0.30333 0.24636 0.0
C4222 C 0.37875 0.22939 0.25906 0.0
C4223 C 0.42082 0.30625 0.23118 0.0
H4224 H 0.46665 0.25039 0.23738 0.0
H4225 H 0.42253 0.23624 0.1726 0.0
H4226 H 0.44243 0.2837 0.27518 0.0
H4227 H 0.42613 0.25469 0.2799 0.0
H4228 H 0.45502 0.25832 0.27642 0.0
H4229 H 0.38319 0.22903 0.17495 0.0
H4230 H 0.37263 0.23511 0.20397 0.0
H4231 H 0.3854 0.26103 0.19163 0.0
H4232 H 0.35242 0.26004 0.27166 0.0
H4233 H 0.38387 0.32024 0.24062 0.0
H4234 H 0.39439 0.22369 0.2602 0.0
H4235 H 0.36794 0.21627 0.24291 0.0
H4236 H 0.37033 0.22696 0.27529 0.0
H4237 H 0.43651 0.30336 0.23833 0.0
H4238 H 0.4222 0.32696 0.2353 0.0
H4239 H 0.41859 0.29879 0.2112 0.0
C4240 C 0.61647 0.51637 0.33184 0.0
C4241 C 0.63819 0.51345 0.33104 0.0
C4242 C 0.6053 0.51694 0.35308 0.0
C4243 C 0.61572 0.51481 0.37502 0.0
C4244 C 0.63753 0.51144 0.37427 0.0
C4245 C 0.64829 0.51069 0.35263 0.0
C4246 C 0.58213 0.52004 0.35201 0.0
C4247 C 0.64953 0.50831 0.39647 0.0
C4248 C 0.59887 0.54521 0.43771 0.0
C4249 C 0.58366 0.52524 0.44396 0.0
C4250 C 0.60856 0.54213 0.41555 0.0
C4251 C 0.60452 0.51793 0.39887 0.0
C4252 C 0.58964 0.49734 0.40528 0.0
C4253 C 0.57906 0.50132 0.42707 0.0
C4254 C 0.62312 0.5652 0.40985 0.0
C4255 C 0.58478 0.47084 0.38917 0.0
H4256 H 0.60792 0.51804 0.31555 0.0
H4257 H 0.66478 0.50797 0.35271 0.0
H4258 H 0.57085 0.50402 0.35709 0.0
H4259 H 0.58163 0.53772 0.36531 0.0
H4260 H 0.57585 0.5208 0.33372 0.0
H4261 H 0.66621 0.50572 0.39338 0.0
H4262 H 0.65124 0.52517 0.41179 0.0
H4263 H 0.63977 0.49162 0.40198 0.0
H4264 H 0.60322 0.56378 0.45012 0.0
H4265 H 0.56767 0.4854 0.43121 0.0
H4266 H 0.61692 0.56713 0.39199 0.0
H4267 H 0.64011 0.56299 0.40861 0.0
H4268 H 0.62382 0.58296 0.42374 0.0
H4269 H 0.57228 0.46873 0.37386 0.0
H4270 H 0.57815 0.45634 0.39912 0.0
H4271 H 0.59982 0.467 0.38149 0.0
C4272 C 0.31807 0.89518 0.06723 0.0
C4273 C 0.33982 0.90582 0.06361 0.0
C4274 C 0.31375 0.87806 0.0819 0.0
C4275 C 0.33167 0.87224 0.09332 0.0
C4276 C 0.35358 0.88261 0.08926 0.0
C4277 C 0.35728 0.89902 0.07431 0.0
C4278 C 0.29022 0.8669 0.08565 0.0
C4279 C 0.37338 0.87708 0.10117 0.0
C4280 C 0.34151 0.85743 0.15142 0.0
C4281 C 0.34676 0.83444 0.14262 0.0
C4282 C 0.33231 0.86863 0.13547 0.0
C4283 C 0.32854 0.85626 0.11048 0.0
C4284 C 0.33048 0.83117 0.1024 0.0
C4285 C 0.34011 0.82063 0.11866 0.0
C4286 C 0.33016 0.89531 0.14477 0.0
C4287 C 0.32573 0.81713 0.076 0.0
H4288 H 0.30455 0.9003 0.0588 0.0
H4289 H 0.37417 0.90705 0.07159 0.0
H4290 H 0.28758 0.84694 0.08681 0.0
H4291 H 0.28646 0.87797 0.10295 0.0
H4292 H 0.27839 0.8676 0.07083 0.0
H4293 H 0.38925 0.8871 0.09604 0.0
H4294 H 0.37405 0.883 0.12117 0.0
H4295 H 0.37214 0.85645 0.09592 0.0
H4296 H 0.34606 0.86743 0.17038 0.0
H4297 H 0.34343 0.80224 0.11244 0.0
H4298 H 0.31563 0.8982 0.13504 0.0
H4299 H 0.34508 0.90894 0.14162 0.0
H4300 H 0.32871 0.89975 0.16452 0.0
H4301 H 0.31153 0.82152 0.06709 0.0
H4302 H 0.32222 0.7963 0.0737 0.0
H4303 H 0.34037 0.82313 0.06664 0.0
C4304 C 0.98732 0.56925 0.86423 0.0
C4305 C 0.97209 0.54789 0.84992 0.0
C4306 C 0.99446 0.56992 0.88774 0.0
C4307 C 0.98723 0.54796 0.89619 0.0
C4308 C 0.97144 0.52633 0.88204 0.0
C4309 C 0.96362 0.52671 0.85881 0.0
C4310 C 0.00996 0.59399 0.90339 0.0
C4311 C 0.96288 0.50324 0.89155 0.0
C4312 C 0.03488 0.54383 0.93449 0.0
C4313 C 0.02991 0.55437 0.95731 0.0
C4314 C 0.01991 0.53969 0.91433 0.0
C4315 C 0.9998 0.54648 0.91753 0.0
C4316 C 0.99455 0.55675 0.94076 0.0
C4317 C 0.01004 0.56104 0.96052 0.0
C4318 C 0.02577 0.52847 0.88958 0.0
C4319 C 0.97306 0.56371 0.94503 0.0
H4320 H 0.99252 0.5861 0.85751 0.0
H4321 H 0.95061 0.511 0.84795 0.0
H4322 H 0.0034 0.59976 0.92086 0.0
H4323 H 0.02629 0.59066 0.90749 0.0
H4324 H 0.01235 0.60998 0.89454 0.0
H4325 H 0.94944 0.48872 0.87884 0.0
H4326 H 0.97652 0.49455 0.89473 0.0
H4327 H 0.95663 0.50888 0.90926 0.0
H4328 H 0.04977 0.53754 0.93249 0.0
H4329 H 0.00623 0.56853 0.97862 0.0
H4330 H 0.02765 0.54264 0.8786 0.0
H4331 H 0.01233 0.5117 0.87992 0.0
H4332 H 0.04137 0.52258 0.89061 0.0
H4333 H 0.97576 0.58445 0.94738 0.0
H4334 H 0.96726 0.55932 0.96199 0.0
H4335 H 0.95987 0.5537 0.92983 0.0
C4336 C 0.29091 0.23453 0.5859 0.0
C4337 C 0.31133 0.24245 0.57733 0.0
C4338 C 0.28836 0.24164 0.61075 0.0
C4339 C 0.30667 0.25688 0.62764 0.0
C4340 C 0.32696 0.26609 0.61894 0.0
C4341 C 0.32899 0.25889 0.59401 0.0
C4342 C 0.26632 0.23182 0.61912 0.0
C4343 C 0.34711 0.28195 0.63611 0.0
C4344 C 0.30205 0.28451 0.6948 0.0
C4345 C 0.3053 0.26507 0.70513 0.0
C4346 C 0.30125 0.28169 0.66946 0.0
C4347 C 0.30558 0.25984 0.65435 0.0
C4348 C 0.30959 0.24063 0.66491 0.0
C4349 C 0.30865 0.2431 0.68981 0.0
C4350 C 0.29585 0.30208 0.65888 0.0
C4351 C 0.31554 0.21765 0.65002 0.0
H4352 H 0.27707 0.22195 0.57332 0.0
H4353 H 0.34486 0.26527 0.58779 0.0
H4354 H 0.26758 0.2179 0.62978 0.0
H4355 H 0.26138 0.24762 0.63119 0.0
H4356 H 0.25316 0.22243 0.60371 0.0
H4357 H 0.36045 0.2909 0.62645 0.0
H4358 H 0.34296 0.29707 0.6499 0.0
H4359 H 0.35353 0.2697 0.64586 0.0
H4360 H 0.30028 0.30194 0.70647 0.0
H4361 H 0.31148 0.22803 0.6975 0.0
H4362 H 0.28155 0.29359 0.64466 0.0
H4363 H 0.30997 0.31075 0.65009 0.0
H4364 H 0.29185 0.31725 0.67283 0.0
H4365 H 0.30153 0.20612 0.63624 0.0
H4366 H 0.31981 0.2054 0.66131 0.0
H4367 H 0.32983 0.2237 0.64021 0.0
C4368 C 0.62979 0.53012 0.18447 0.0
C4369 C 0.62812 0.5045 0.18429 0.0
C4370 C 0.62038 0.53734 0.16452 0.0
C4371 C 0.60924 0.51879 0.14302 0.0
C4372 C 0.60776 0.49297 0.14274 0.0
C4373 C 0.61671 0.48629 0.16312 0.0
C4374 C 0.62182 0.56499 0.16676 0.0
C4375 C 0.59682 0.47214 0.12059 0.0
C4376 C 0.57038 0.5317 0.09325 0.0
C4377 C 0.58436 0.53597 0.07525 0.0
C4378 C 0.57817 0.52692 0.11546 0.0
C4379 C 0.60058 0.52617 0.12031 0.0
C4380 C 0.61471 0.5313 0.10245 0.0
C4381 C 0.60659 0.53607 0.08067 0.0
C4382 C 0.56215 0.52205 0.13356 0.0
C4383 C 0.63857 0.53095 0.10593 0.0
H4384 H 0.63777 0.54461 0.20065 0.0
H4385 H 0.61482 0.4664 0.16238 0.0
H4386 H 0.6295 0.5711 0.15134 0.0
H4387 H 0.60495 0.56781 0.16598 0.0
H4388 H 0.63148 0.57735 0.18396 0.0
H4389 H 0.59627 0.45296 0.12313 0.0
H4390 H 0.57973 0.47308 0.116 0.0
H4391 H 0.60592 0.47477 0.10485 0.0
H4392 H 0.55318 0.53126 0.08969 0.0
H4393 H 0.61782 0.53932 0.0673 0.0
H4394 H 0.56913 0.53445 0.1518 0.0
H4395 H 0.55933 0.50212 0.13484 0.0
H4396 H 0.546 0.52539 0.12852 0.0
H4397 H 0.64696 0.54498 0.1229 0.0
H4398 H 0.64763 0.53535 0.09063 0.0
H4399 H 0.63962 0.51198 0.10775 0.0
C4400 C 0.35732 0.88432 0.95583 0.0
C4401 C 0.34801 0.90502 0.9591 0.0
C4402 C 0.35113 0.86443 0.93483 0.0
C4403 C 0.3357 0.86568 0.91652 0.0
C4404 C 0.32556 0.88599 0.92013 0.0
C4405 C 0.33175 0.9054 0.94153 0.0
C4406 C 0.36166 0.84257 0.93181 0.0
C4407 C 0.30881 0.88767 0.90101 0.0
C4408 C 0.34255 0.83864 0.85147 0.0
C4409 C 0.32483 0.81684 0.84488 0.0
C4410 C 0.34657 0.85422 0.87499 0.0
C4411 C 0.33253 0.84785 0.89237 0.0
C4412 C 0.31531 0.8252 0.88628 0.0
C4413 C 0.31196 0.80968 0.86264 0.0
C4414 C 0.36523 0.87818 0.8809 0.0
C4415 C 0.30011 0.81761 0.90441 0.0
H4416 H 0.36942 0.88361 0.96974 0.0
H4417 H 0.32429 0.9212 0.94421 0.0
H4418 H 0.34885 0.82424 0.92607 0.0
H4419 H 0.37276 0.84326 0.91738 0.0
H4420 H 0.37141 0.843 0.94879 0.0
H4421 H 0.30119 0.90358 0.90742 0.0
H4422 H 0.31688 0.89044 0.88467 0.0
H4423 H 0.29555 0.86969 0.89544 0.0
H4424 H 0.3529 0.84416 0.83803 0.0
H4425 H 0.29879 0.79245 0.85796 0.0
H4426 H 0.37629 0.87879 0.89696 0.0
H4427 H 0.35846 0.895 0.88547 0.0
H4428 H 0.37522 0.87975 0.86559 0.0
H4429 H 0.30904 0.81071 0.91765 0.0
H4430 H 0.28521 0.80224 0.89558 0.0
H4431 H 0.29476 0.83406 0.9147 0.0
C4432 C 0.96209 0.53659 0.74652 0.0
C4433 C 0.94042 0.53571 0.73862 0.0
C4434 C 0.97329 0.52095 0.7322 0.0
C4435 C 0.96237 0.5048 0.70974 0.0
C4436 C 0.93927 0.50008 0.7048 0.0
C4437 C 0.92848 0.51589 0.71939 0.0
C4438 C 0.99772 0.52527 0.73873 0.0
C4439 C 0.92668 0.48191 0.68184 0.0
C4440 C 0.99703 0.52009 0.66087 0.0
C4441 C 0.007 0.49999 0.65609 0.0
C4442 C 0.98137 0.52093 0.67724 0.0
C4443 C 0.97559 0.50112 0.6892 0.0
C4444 C 0.98441 0.47987 0.68314 0.0
C4445 C 1.00024 0.47966 0.66674 0.0
C4446 C 0.97205 0.54384 0.6827 0.0
C4447 C 0.97818 0.45794 0.6947 0.0
H4448 H 0.97122 0.55183 0.76165 0.0
H4449 H 0.91147 0.51496 0.71382 0.0
H4450 H 0.00269 0.5073 0.7331 0.0
H4451 H 0.00692 0.53886 0.7291 0.0
H4452 H 0.00257 0.53335 0.75851 0.0
H4453 H 0.90921 0.4742 0.68449 0.0
H4454 H 0.92677 0.49221 0.66739 0.0
H4455 H 0.93423 0.46594 0.6756 0.0
H4456 H 0.00226 0.53585 0.65267 0.0
H4457 H 0.00761 0.46381 0.66258 0.0
H4458 H 0.97805 0.55517 0.70157 0.0
H4459 H 0.95378 0.53784 0.68107 0.0
H4460 H 0.97691 0.55637 0.67034 0.0
H4461 H 0.99071 0.46084 0.71024 0.0
H4462 H 0.97806 0.43984 0.68162 0.0
H4463 H 0.9618 0.45611 0.70144 0.0
C4464 C 0.33373 0.23982 0.43768 0.0
C4465 C 0.31602 0.24277 0.45114 0.0
C4466 C 0.33589 0.24716 0.41594 0.0
C4467 C 0.3202 0.25832 0.40738 0.0
C4468 C 0.30224 0.26154 0.42081 0.0
C4469 C 0.30013 0.25331 0.44242 0.0
C4470 C 0.35498 0.24273 0.40204 0.0
C4471 C 0.28534 0.27369 0.41233 0.0
C4472 C 0.34005 0.29674 0.36207 0.0
C4473 C 0.33011 0.27995 0.33985 0.0
C4474 C 0.33641 0.29031 0.38419 0.0
C4475 C 0.32277 0.2662 0.38419 0.0
C4476 C 0.31343 0.24871 0.36182 0.0
C4477 C 0.31742 0.25565 0.34002 0.0
C4478 C 0.347 0.30946 0.40759 0.0
C4479 C 0.29927 0.22252 0.36081 0.0
H4480 H 0.34585 0.23115 0.44396 0.0
H4481 H 0.2864 0.25553 0.45264 0.0
H4482 H 0.3487 0.23071 0.38348 0.0
H4483 H 0.3654 0.26105 0.40017 0.0
H4484 H 0.36553 0.23334 0.41098 0.0
H4485 H 0.27299 0.27596 0.4253 0.0
H4486 H 0.29364 0.29263 0.40983 0.0
H4487 H 0.27659 0.26197 0.39447 0.0
H4488 H 0.35036 0.31514 0.36239 0.0
H4489 H 0.30999 0.24212 0.32305 0.0
H4490 H 0.35847 0.30184 0.41737 0.0
H4491 H 0.33418 0.31306 0.41955 0.0
H4492 H 0.35634 0.3278 0.40456 0.0
H4493 H 0.30973 0.21102 0.36647 0.0
H4494 H 0.29081 0.21251 0.34233 0.0
H4495 H 0.28661 0.2236 0.37354 0.0
C4496 C 0.35089 0.61389 0.5461 0.0
C4497 C 0.33091 0.59501 0.54069 0.0
C4498 C 0.37078 0.60762 0.54146 0.0
C4499 C 0.3702 0.58213 0.53047 0.0
C4500 C 0.35028 0.56284 0.52701 0.0
C4501 C 0.33095 0.56949 0.53296 0.0
C4502 C 0.3919 0.62852 0.54634 0.0
C4503 C 0.34889 0.53546 0.51475 0.0
C4504 C 0.4065 0.56087 0.48446 0.0
C4505 C 0.41812 0.54867 0.49731 0.0
C4506 C 0.3923 0.57439 0.49588 0.0
C4507 C 0.38964 0.57528 0.52053 0.0
C4508 C 0.40263 0.56468 0.53399 0.0
C4509 C 0.41666 0.55131 0.52215 0.0
C4510 C 0.37897 0.58603 0.48113 0.0
C4511 C 0.40048 0.56584 0.56041 0.0
H4512 H 0.35083 0.63365 0.5523 0.0
H4513 H 0.3155 0.55486 0.52876 0.0
H4514 H 0.40612 0.6219 0.55214 0.0
H4515 H 0.3953 0.63469 0.5295 0.0
H4516 H 0.39067 0.64527 0.56051 0.0
H4517 H 0.33207 0.52283 0.51358 0.0
H4518 H 0.35352 0.53401 0.49608 0.0
H4519 H 0.36063 0.52835 0.52471 0.0
H4520 H 0.40822 0.55945 0.46543 0.0
H4521 H 0.42585 0.54204 0.53213 0.0
H4522 H 0.3791 0.60549 0.49124 0.0
H4523 H 0.36156 0.57452 0.47756 0.0
H4524 H 0.38531 0.58692 0.46347 0.0
H4525 H 0.39992 0.58512 0.57035 0.0
H4526 H 0.41431 0.56069 0.56923 0.0
H4527 H 0.3848 0.55243 0.56205 0.0
C4528 C 0.89409 0.92246 0.52778 0.0
C4529 C 0.87726 0.93458 0.53316 0.0
C4530 C 0.91595 0.93664 0.52832 0.0
C4531 C 0.92121 0.96353 0.53543 0.0
C4532 C 0.9043 0.97576 0.5416 0.0
C4533 C 0.88248 0.96115 0.53988 0.0
C4534 C 0.93334 0.92286 0.52092 0.0
C4535 C 0.90924 1.0043 0.55004 0.0
C4536 C 0.98219 0.9983 0.55329 0.0
C4537 C 0.98769 0.00567 0.53212 0.0
C4538 C 0.96041 0.98519 0.55499 0.0
C4539 C 0.94406 0.97888 0.53484 0.0
C4540 C 0.94957 0.98708 0.51376 0.0
C4541 C 0.97117 1.00089 0.51295 0.0
C4542 C 0.95498 0.97773 0.57815 0.0
C4543 C 0.93286 0.9805 0.49171 0.0
H4544 H 0.89007 0.90191 0.52272 0.0
H4545 H 0.86954 0.97054 0.54455 0.0
H4546 H 0.94166 0.92976 0.50618 0.0
H4547 H 0.94613 0.92687 0.53646 0.0
H4548 H 0.92634 0.90199 0.51458 0.0
H4549 H 0.89487 0.01063 0.55712 0.0
H4550 H 0.92343 0.01177 0.56447 0.0
H4551 H 0.91389 0.01286 0.53477 0.0
H4552 H 0.99497 1.00231 0.56823 0.0
H4553 H 0.97515 0.00776 0.49709 0.0
H4554 H 0.95093 0.95679 0.57488 0.0
H4555 H 0.94024 0.98382 0.58434 0.0
H4556 H 0.9689 0.98618 0.59287 0.0
H4557 H 0.92668 0.95956 0.4851 0.0
H4558 H 0.93987 0.98817 0.47669 0.0
H4559 H 0.91846 0.98803 0.49644 0.0
C4560 C 0.87998 0.14423 0.29739 0.0
C4561 C 0.89711 0.13869 0.28352 0.0
C4562 C 0.86916 0.16366 0.29523 0.0
C4563 C 0.87526 0.17937 0.27893 0.0
C4564 C 0.8929 0.17434 0.26524 0.0
C4565 C 0.90323 0.15438 0.26745 0.0
C4566 C 0.85069 0.16705 0.31039 0.0
C4567 C 0.9016 0.19087 0.24868 0.0
C4568 C 0.83548 0.21394 0.25186 0.0
C4569 C 0.83875 0.23804 0.26828 0.0
C4570 C 0.84584 0.19481 0.25598 0.0
C4571 C 0.86277 0.19998 0.27557 0.0
C4572 C 0.86745 0.22504 0.29144 0.0
C4573 C 0.8552 0.24306 0.28809 0.0
C4574 C 0.83835 0.16862 0.23915 0.0
C4575 C 0.88593 0.2334 0.31189 0.0
H4576 H 0.87474 0.13308 0.31021 0.0
H4577 H 0.91656 0.15148 0.25682 0.0
H4578 H 0.85417 0.18695 0.32128 0.0
H4579 H 0.83513 0.16308 0.29835 0.0
H4580 H 0.84817 0.15436 0.32289 0.0
H4581 H 0.91504 0.1849 0.239 0.0
H4582 H 0.88815 0.19046 0.23511 0.0
H4583 H 0.90797 0.21084 0.25946 0.0
H4584 H 0.82457 0.20979 0.23531 0.0
H4585 H 0.85941 0.26175 0.30049 0.0
H4586 H 0.83454 0.1542 0.24982 0.0
H4587 H 0.85172 0.16463 0.22824 0.0
H4588 H 0.82346 0.16638 0.22663 0.0
H4589 H 0.87977 0.22705 0.32785 0.0
H4590 H 0.89224 0.2544 0.3174 0.0
H4591 H 0.89984 0.22505 0.30675 0.0
C4592 C 0.70886 0.08277 0.03335 0.0
C4593 C 0.71653 0.09532 0.01576 0.0
C4594 C 0.69043 0.08728 0.04451 0.0
C4595 C 0.67919 0.1036 0.03673 0.0
C4596 C 0.68934 0.11951 0.02228 0.0
C4597 C 0.70836 0.11541 0.01224 0.0
C4598 C 0.68071 0.0712 0.06106 0.0
C4599 C 0.67777 0.13671 0.01296 0.0
C4600 C 0.61974 0.06947 0.01506 0.0
C4601 C 0.6087 0.0832 0.03147 0.0
C4602 C 0.64263 0.0763 0.01646 0.0
C4603 C 0.65487 0.0969 0.0355 0.0
C4604 C 0.64378 0.11093 0.05218 0.0
C4605 C 0.6206 0.10452 0.04928 0.0
C4606 C 0.65347 0.06124 0.99742 0.0
C4607 C 0.65629 0.13205 0.07337 0.0
H4608 H 0.71539 0.06727 0.03608 0.0
H4609 H 0.71447 0.12498 0.99851 0.0
H4610 H 0.67282 0.08212 0.07514 0.0
H4611 H 0.66786 0.05431 0.05043 0.0
H4612 H 0.69347 0.0645 0.06998 0.0
H4613 H 0.68963 0.1517 0.00703 0.0
H4614 H 0.6657 0.12524 0.99709 0.0
H4615 H 0.6686 0.14582 0.02684 0.0
H4616 H 0.61038 0.05381 1.00047 0.0
H4617 H 0.61183 0.11575 0.06118 0.0
H4618 H 0.66049 0.04808 0.0053 0.0
H4619 H 0.66704 0.07382 0.99095 0.0
H4620 H 0.64158 0.04982 0.98137 0.0
H4621 H 0.66433 0.12386 0.08619 0.0
H4622 H 0.64531 0.14269 0.08321 0.0
H4623 H 0.66957 0.1455 0.0674 0.0
C4624 C 0.26768 0.51414 0.23824 0.0
C4625 C 0.24646 0.50125 0.22715 0.0
C4626 C 0.27967 0.50176 0.25014 0.0
C4627 C 0.27051 0.47582 0.24887 0.0
C4628 C 0.25136 0.46169 0.23295 0.0
C4629 C 0.23962 0.47479 0.22154 0.0
C4630 C 0.30008 0.51732 0.26712 0.0
C4631 C 0.24137 0.4339 0.23105 0.0
C4632 C 0.30915 0.44944 0.28014 0.0
C4633 C 0.30183 0.45205 0.30315 0.0
C4634 C 0.2978 0.45511 0.26156 0.0
C4635 C 0.2795 0.46485 0.26661 0.0
C4636 C 0.27189 0.46756 0.28979 0.0
C4637 C 0.28328 0.461 0.30797 0.0
C4638 C 0.30559 0.45121 0.2367 0.0
C4639 C 0.25228 0.47807 0.29569 0.0
H4640 H 0.27279 0.53468 0.24185 0.0
H4641 H 0.22319 0.46505 0.21236 0.0
H4642 H 0.29642 0.51899 0.28616 0.0
H4643 H 0.31369 0.5079 0.26454 0.0
H4644 H 0.30583 0.53675 0.26447 0.0
H4645 H 0.22978 0.42479 0.21423 0.0
H4646 H 0.2543 0.42356 0.23146 0.0
H4647 H 0.23199 0.43197 0.24673 0.0
H4648 H 0.32349 0.44222 0.27655 0.0
H4649 H 0.27749 0.46232 0.32566 0.0
H4650 H 0.31255 0.46989 0.2329 0.0
H4651 H 0.29152 0.44079 0.22258 0.0
H4652 H 0.31839 0.4405 0.23506 0.0
H4653 H 0.25733 0.49898 0.29851 0.0
H4654 H 0.24583 0.47378 0.31242 0.0
H4655 H 0.23871 0.47034 0.28059 0.0
C4656 C 0.24151 0.41233 0.01876 0.0
C4657 C 0.25438 0.42322 0.04129 0.0
C4658 C 0.2242 0.42206 0.01187 0.0
C4659 C 0.21981 0.44327 0.02779 0.0
C4660 C 0.23179 0.45326 0.05113 0.0
C4661 C 0.24887 0.44307 0.05762 0.0
C4662 C 0.21155 0.41064 0.98697 0.0
C4663 C 0.22741 0.47568 0.06873 0.0
C4664 C 0.20018 0.49044 0.99995 0.0
C4665 C 0.17767 0.4849 0.00287 0.0
C4666 C 0.21388 0.47676 0.0077 0.0
C4667 C 0.20496 0.45716 0.01895 0.0
C4668 C 0.18227 0.45151 0.02215 0.0
C4669 C 0.16886 0.46536 0.01394 0.0
C4670 C 0.23802 0.48351 0.00405 0.0
C4671 C 0.17211 0.43069 0.03397 0.0
H4672 H 0.24546 0.39682 0.00612 0.0
H4673 H 0.25853 0.45146 0.07518 0.0
H4674 H 0.19357 0.40769 0.98798 0.0
H4675 H 0.2164 0.42391 0.97531 0.0
H4676 H 0.21476 0.39221 0.97816 0.0
H4677 H 0.23699 0.48 0.0868 0.0
H4678 H 0.23186 0.49272 0.06144 0.0
H4679 H 0.2096 0.47205 0.07101 0.0
H4680 H 0.20724 0.50579 0.99185 0.0
H4681 H 0.15141 0.46068 0.01594 0.0
H4682 H 0.24244 0.4666 0.99331 0.0
H4683 H 0.24832 0.48966 0.02184 0.0
H4684 H 0.24225 0.49893 0.99456 0.0
H4685 H 0.17169 0.41201 0.02181 0.0
H4686 H 0.155 0.43084 0.03785 0.0
H4687 H 0.18218 0.43253 0.05117 0.0
C4688 C 0.87363 0.99359 0.28169 0.0
C4689 C 0.89433 1.00211 0.27369 0.0
C4690 C 0.86284 0.9674 0.27806 0.0
C4691 C 0.87282 0.9483 0.26646 0.0
C4692 C 0.89348 0.95666 0.25772 0.0
C4693 C 0.9038 0.98315 0.26123 0.0
C4694 C 0.84084 0.96018 0.28746 0.0
C4695 C 0.90502 0.93755 0.24508 0.0
C4696 C 0.85634 0.88363 0.28384 0.0
C4697 C 0.84052 0.86775 0.26465 0.0
C4698 C 0.86708 0.90921 0.28431 0.0
C4699 C 0.86226 0.92003 0.26507 0.0
C4700 C 0.84637 0.90404 0.2455 0.0
C4701 C 0.83561 0.87853 0.24569 0.0
C4702 C 0.88342 0.92493 0.30587 0.0
C4703 C 0.84044 0.91395 0.22433 0.0
H4704 H 0.86586 0.0076 0.29134 0.0
H4705 H 0.91979 0.98897 0.25508 0.0
H4706 H 0.82861 0.9463 0.27294 0.0
H4707 H 0.84254 0.9509 0.30239 0.0
H4708 H 0.83428 0.97687 0.29433 0.0
H4709 H 0.92107 0.94671 0.2397 0.0
H4710 H 0.90794 0.92541 0.25711 0.0
H4711 H 0.89435 0.9249 0.22863 0.0
H4712 H 0.85986 0.8764 0.29916 0.0
H4713 H 0.82342 0.86688 0.23072 0.0
H4714 H 0.8774 0.94121 0.31537 0.0
H4715 H 0.89948 0.93284 0.29977 0.0
H4716 H 0.88615 0.9138 0.31899 0.0
H4717 H 0.83068 0.92787 0.23015 0.0
H4718 H 0.83056 0.89852 0.20899 0.0
H4719 H 0.85555 0.92394 0.21785 0.0
C4720 C 0.74542 0.10932 0.73382 0.0
C4721 C 0.7397 0.10485 0.75609 0.0
C4722 C 0.75249 0.13404 0.73132 0.0
C4723 C 0.75361 0.15436 0.75157 0.0
C4724 C 0.74669 0.14984 0.77374 0.0
C4725 C 0.74008 0.12496 0.77582 0.0
C4726 C 0.75895 0.13835 0.70727 0.0
C4727 C 0.7466 0.17127 0.79537 0.0
C4728 C 0.79646 0.2155 0.76881 0.0
C4729 C 0.78331 0.232 0.76791 0.0
C4730 C 0.78744 0.18946 0.76022 0.0
C4731 C 0.76476 0.18032 0.75127 0.0
C4732 C 0.75202 0.19723 0.74839 0.0
C4733 C 0.76143 0.22316 0.75739 0.0
C4734 C 0.80154 0.17179 0.76308 0.0
C4735 C 0.72815 0.18802 0.73764 0.0
H4736 H 0.74437 0.09344 0.71841 0.0
H4737 H 0.73462 0.12118 0.79261 0.0
H4738 H 0.74947 0.15051 0.70115 0.0
H4739 H 0.77667 0.14841 0.70926 0.0
H4740 H 0.75599 0.12033 0.69299 0.0
H4741 H 0.74001 0.16428 0.81091 0.0
H4742 H 0.7636 0.18354 0.80139 0.0
H4743 H 0.73635 0.18327 0.79034 0.0
H4744 H 0.81348 0.22291 0.77689 0.0
H4745 H 0.75161 0.23651 0.75671 0.0
H4746 H 0.79947 0.15653 0.74622 0.0
H4747 H 0.79625 0.16264 0.77785 0.0
H4748 H 0.81932 0.18192 0.76756 0.0
H4749 H 0.72606 0.17276 0.7208 0.0
H4750 H 0.7218 0.20359 0.73341 0.0
H4751 H 0.71791 0.17997 0.75059 0.0
loop_
_geom_bond_atom_site_label_1
_geom_bond_atom_site_label_2
_geom_bond_distance
_geom_bond_site_symmetry_2
_ccdc_geom_bond_type
Mg0 O1 2.028 . S
Mg0 O7 1.986 . S
Mg0 O9 2.114 . S
Mg0 O10 2.251 . S
Mg0 O13 2.010 . S
O1 Mg0 2.028 . S
O1 C4 1.250 . S
O2 Mg3 2.028 . S
O2 C4 1.248 . S
Mg3 O2 2.028 . S
Mg3 O8 2.032 . S
Mg3 O10 2.079 . S
C4 O1 1.250 . S
C4 O2 1.248 . S
C5 O6 1.264 . S
C5 O13 1.249 . S
O6 C5 1.264 . S
O7 Mg0 1.986 . S
O7 C11 1.246 . S
O8 Mg3 2.032 . S
O8 C11 1.259 . S
O9 Mg0 2.114 . S
O9 C12 1.252 . S
O10 Mg0 2.251 . S
O10 Mg3 2.079 . S
O10 C12 1.273 . S
C11 O7 1.246 . S
C11 O8 1.259 . S
C12 O9 1.252 . S
C12 O10 1.273 . S
O13 Mg0 2.010 . S
O13 C5 1.249 . S
Mg14 O15 2.028 . S
Mg14 O21 1.986 . S
Mg14 O23 2.114 1_455 S
Mg14 O24 2.251 1_455 S
Mg14 O27 2.010 . S
O15 Mg14 2.028 . S
O15 C18 1.250 1_455 S
O16 Mg17 2.028 . S
O16 C18 1.248 . S
Mg17 O16 2.028 . S
Mg17 O22 2.032 . S
Mg17 O24 2.079 . S
C18 O15 1.250 1_655 S
C18 O16 1.248 . S
C19 O20 1.264 . S
C19 O27 1.249 . S
O20 C19 1.264 . S
O21 Mg14 1.986 . S
O21 C25 1.246 1_455 S
O22 Mg17 2.032 . S
O22 C25 1.259 . S
O23 Mg14 2.114 1_655 S
O23 C26 1.252 . S
O24 Mg14 2.251 1_655 S
O24 Mg17 2.079 . S
O24 C26 1.273 . S
C25 O21 1.246 1_655 S
C25 O22 1.259 . S
C26 O23 1.252 . S
C26 O24 1.273 . S
O27 Mg14 2.010 . S
O27 C19 1.249 . S
Mg28 O29 2.028 . S
Mg28 O35 1.986 . S
Mg28 O37 2.114 . S
Mg28 O38 2.251 . S
Mg28 O41 2.010 . S
O29 Mg28 2.028 . S
O29 C32 1.250 . S
O30 Mg31 2.028 . S
O30 C32 1.248 . S
Mg31 O30 2.028 . S
Mg31 O36 2.032 . S
Mg31 O38 2.079 . S
C32 O29 1.250 . S
C32 O30 1.248 . S
C33 O34 1.264 . S
C33 O41 1.249 . S
O34 C33 1.264 . S
O35 Mg28 1.986 . S
O35 C39 1.246 . S
O36 Mg31 2.032 . S
O36 C39 1.259 . S
O37 Mg28 2.114 . S
O37 C40 1.252 . S
O38 Mg28 2.251 . S
O38 Mg31 2.079 . S
O38 C40 1.273 . S
C39 O35 1.246 . S
C39 O36 1.259 . S
C40 O37 1.252 . S
C40 O38 1.273 . S
O41 Mg28 2.010 . S
O41 C33 1.249 . S
Mg42 O43 2.028 . S
Mg42 O49 1.986 . S
Mg42 O51 2.114 . S
Mg42 O52 2.251 . S
Mg42 O55 2.010 . S
O43 Mg42 2.028 . S
O43 C46 1.250 . S
O44 Mg45 2.028 . S
O44 C46 1.248 . S
Mg45 O44 2.028 . S
Mg45 O50 2.032 . S
Mg45 O52 2.079 . S
C46 O43 1.250 . S
C46 O44 1.248 . S
C47 O48 1.264 . S
C47 O55 1.249 . S
O48 C47 1.264 . S
O49 Mg42 1.986 . S
O49 C53 1.246 . S
O50 Mg45 2.032 . S
O50 C53 1.259 . S
O51 Mg42 2.114 . S
O51 C54 1.252 . S
O52 Mg42 2.251 . S
O52 Mg45 2.079 . S
O52 C54 1.273 . S
C53 O49 1.246 . S
C53 O50 1.259 . S
C54 O51 1.252 . S
C54 O52 1.273 . S
O55 Mg42 2.010 . S
O55 C47 1.249 . S
Mg56 O57 2.028 . S
Mg56 O63 1.986 . S
Mg56 O65 2.114 . S
Mg56 O66 2.251 . S
Mg56 O69 2.010 . S
O57 Mg56 2.028 . S
O57 C60 1.250 . S
O58 Mg59 2.028 . S
O58 C60 1.248 . S
Mg59 O58 2.028 . S
Mg59 O64 2.032 . S
Mg59 O66 2.079 . S
C60 O57 1.250 . S
C60 O58 1.248 . S
C61 O62 1.264 . S
C61 O69 1.249 . S
O62 C61 1.264 . S
O63 Mg56 1.986 . S
O63 C67 1.246 . S
O64 Mg59 2.032 . S
O64 C67 1.259 . S
O65 Mg56 2.114 . S
O65 C68 1.252 . S
O66 Mg56 2.251 . S
O66 Mg59 2.079 . S
O66 C68 1.273 . S
C67 O63 1.246 . S
C67 O64 1.259 . S
C68 O65 1.252 . S
C68 O66 1.273 . S
O69 Mg56 2.010 . S
O69 C61 1.249 . S
Mg70 O71 2.028 . S
Mg70 O77 1.986 . S
Mg70 O79 2.114 . S
Mg70 O80 2.251 . S
Mg70 O83 2.010 . S
O71 Mg70 2.028 . S
O71 C74 1.250 . S
O72 Mg73 2.028 . S
O72 C74 1.248 . S
Mg73 O72 2.028 . S
Mg73 O78 2.032 . S
Mg73 O80 2.079 . S
C74 O71 1.250 . S
C74 O72 1.248 . S
C75 O76 1.264 . S
C75 O83 1.249 . S
O76 C75 1.264 . S
O77 Mg70 1.986 . S
O77 C81 1.246 . S
O78 Mg73 2.032 . S
O78 C81 1.259 . S
O79 Mg70 2.114 . S
O79 C82 1.252 . S
O80 Mg70 2.251 . S
O80 Mg73 2.079 . S
O80 C82 1.273 . S
C81 O77 1.246 . S
C81 O78 1.259 . S
C82 O79 1.252 . S
C82 O80 1.273 . S
O83 Mg70 2.010 . S
O83 C75 1.249 . S
Mg84 O85 2.028 . S
Mg84 O91 1.986 . S
Mg84 O93 2.114 . S
Mg84 O94 2.251 . S
Mg84 O97 2.010 . S
O85 Mg84 2.028 . S
O85 C88 1.250 . S
O86 Mg87 2.028 . S
O86 C88 1.248 . S
Mg87 O86 2.028 . S
Mg87 O92 2.032 . S
Mg87 O94 2.079 . S
C88 O85 1.250 . S
C88 O86 1.248 . S
C89 O90 1.264 . S
C89 O97 1.249 . S
O90 C89 1.264 . S
O91 Mg84 1.986 . S
O91 C95 1.246 . S
O92 Mg87 2.032 . S
O92 C95 1.259 . S
O93 Mg84 2.114 . S
O93 C96 1.252 . S
O94 Mg84 2.251 . S
O94 Mg87 2.079 . S
O94 C96 1.273 . S
C95 O91 1.246 . S
C95 O92 1.259 . S
C96 O93 1.252 . S
C96 O94 1.273 . S
O97 Mg84 2.010 . S
O97 C89 1.249 . S
Mg98 O99 2.028 . S
Mg98 O105 1.986 . S
Mg98 O107 2.122 . S
Mg98 O108 2.251 1_455 S
Mg98 O111 2.010 . S
O99 Mg98 2.028 . S
O99 C102 1.250 . S
O100 Mg101 2.028 1_455 S
O100 C102 1.248 . S
Mg101 O100 2.028 1_655 S
Mg101 O106 2.032 . S
Mg101 O108 2.079 . S
C102 O99 1.250 . S
C102 O100 1.248 . S
C103 O104 1.264 . S
C103 O111 1.249 . S
O104 C103 1.264 . S
O105 Mg98 1.986 . S
O105 C109 1.246 . S
O106 Mg101 2.032 . S
O106 C109 1.259 1_655 S
O107 Mg98 2.122 . S
O107 C110 1.241 1_455 S
O108 Mg98 2.251 1_655 S
O108 Mg101 2.079 . S
O108 C110 1.273 . S
C109 O105 1.246 . S
C109 O106 1.259 1_455 S
C110 O107 1.241 1_655 S
C110 O108 1.273 . S
O111 Mg98 2.010 . S
O111 C103 1.249 . S
Mg112 O113 2.028 1_545 S
Mg112 O119 1.986 . S
Mg112 O121 2.114 . S
Mg112 O122 2.251 . S
Mg112 O125 2.010 . S
O113 Mg112 2.028 1_565 S
O113 C116 1.250 . S
O114 Mg115 2.028 1_565 S
O114 C116 1.248 . S
Mg115 O114 2.028 1_545 S
Mg115 O120 2.032 . S
Mg115 O122 2.079 . S
C116 O113 1.250 . S
C116 O114 1.248 . S
C117 O118 1.264 . S
C117 O125 1.249 . S
O118 C117 1.264 . S
O119 Mg112 1.986 . S
O119 C123 1.246 . S
O120 Mg115 2.032 . S
O120 C123 1.259 . S
O121 Mg112 2.114 . S
O121 C124 1.252 . S
O122 Mg112 2.251 . S
O122 Mg115 2.079 . S
O122 C124 1.273 . S
C123 O119 1.246 . S
C123 O120 1.259 . S
C124 O121 1.252 . S
C124 O122 1.273 . S
O125 Mg112 2.010 . S
O125 C117 1.249 . S
Mg126 O127 2.028 . S
Mg126 O133 1.986 . S
Mg126 O135 2.114 . S
Mg126 O136 2.251 . S
Mg126 O139 2.010 . S
O127 Mg126 2.028 . S
O127 C130 1.250 . S
O128 Mg129 2.028 . S
O128 C130 1.248 . S
Mg129 O128 2.028 . S
Mg129 O134 2.032 . S
Mg129 O136 2.079 . S
C130 O127 1.250 . S
C130 O128 1.248 . S
C131 O132 1.264 . S
C131 O139 1.249 . S
O132 C131 1.264 . S
O133 Mg126 1.986 . S
O133 C137 1.246 . S
O134 Mg129 2.032 . S
O134 C137 1.259 . S
O135 Mg126 2.114 . S
O135 C138 1.252 . S
O136 Mg126 2.251 . S
O136 Mg129 2.079 . S
O136 C138 1.273 . S
C137 O133 1.246 . S
C137 O134 1.259 . S
C138 O135 1.252 . S
C138 O136 1.273 . S
O139 Mg126 2.010 . S
O139 C131 1.249 . S
Mg140 O141 2.028 1_565 S
Mg140 O147 1.986 . S
Mg140 O149 2.114 1_565 S
Mg140 O150 2.251 . S
Mg140 O153 2.010 . S
O141 Mg140 2.028 1_545 S
O141 C144 1.250 . S
O142 Mg143 2.028 . S
O142 C144 1.248 . S
Mg143 O142 2.028 . S
Mg143 O148 2.032 1_545 S
Mg143 O150 2.079 1_545 S
C144 O141 1.250 . S
C144 O142 1.248 . S
C145 O146 1.264 . S
C145 O153 1.249 . S
O146 C145 1.264 . S
O147 Mg140 1.986 . S
O147 C151 1.246 . S
O148 Mg143 2.032 1_565 S
O148 C151 1.259 . S
O149 Mg140 2.114 1_545 S
O149 C152 1.252 . S
O150 Mg140 2.251 . S
O150 Mg143 2.079 1_565 S
O150 C152 1.273 1_565 S
C151 O147 1.246 . S
C151 O148 1.259 . S
C152 O149 1.252 . S
C152 O150 1.273 1_545 S
O153 Mg140 2.010 . S
O153 C145 1.249 . S
Mg154 O155 2.028 1_554 S
Mg154 O161 1.986 . S
Mg154 O163 2.114 . S
Mg154 O164 2.251 . S
Mg154 O167 2.010 . S
O155 Mg154 2.028 1_556 S
O155 C158 1.250 . S
O156 Mg157 2.028 1_556 S
O156 C158 1.248 . S
Mg157 O156 2.028 1_554 S
Mg157 O162 2.032 . S
Mg157 O164 2.079 . S
C158 O155 1.250 . S
C158 O156 1.248 . S
C159 O160 1.264 . S
C159 O167 1.249 . S
O160 C159 1.264 . S
O161 Mg154 1.986 . S
O161 C165 1.246 . S
O162 Mg157 2.032 . S
O162 C165 1.259 . S
O163 Mg154 2.114 . S
O163 C166 1.252 . S
O164 Mg154 2.251 . S
O164 Mg157 2.079 . S
O164 C166 1.273 . S
C165 O161 1.246 . S
C165 O162 1.259 . S
C166 O163 1.252 . S
C166 O164 1.273 . S
O167 Mg154 2.010 . S
O167 C159 1.249 . S
Mg168 O169 2.028 . S
Mg168 O175 1.986 . S
Mg168 O177 2.114 . S
Mg168 O178 2.251 . S
Mg168 O181 2.010 . S
O169 Mg168 2.028 . S
O169 C172 1.250 . S
O170 Mg171 2.028 . S
O170 C172 1.248 . S
Mg171 O170 2.028 . S
Mg171 O176 2.032 . S
Mg171 O178 2.079 . S
C172 O169 1.250 . S
C172 O170 1.248 . S
C173 O174 1.264 . S
C173 O181 1.249 . S
O174 C173 1.264 . S
O175 Mg168 1.986 . S
O175 C179 1.246 . S
O176 Mg171 2.032 . S
O176 C179 1.259 . S
O177 Mg168 2.114 . S
O177 C180 1.252 . S
O178 Mg168 2.251 . S
O178 Mg171 2.079 . S
O178 C180 1.273 . S
C179 O175 1.246 . S
C179 O176 1.259 . S
C180 O177 1.252 . S
C180 O178 1.273 . S
O181 Mg168 2.010 . S
O181 C173 1.249 . S
Mg182 O183 2.028 . S
Mg182 O189 1.986 1_554 S
Mg182 O191 2.114 . S
Mg182 O192 2.251 . S
Mg182 O195 2.010 . S
O183 Mg182 2.028 . S
O183 C186 1.250 . S
O184 Mg185 2.028 . S
O184 C186 1.248 . S
Mg185 O184 2.028 . S
Mg185 O190 2.032 . S
Mg185 O192 2.079 . S
C186 O183 1.250 . S
C186 O184 1.248 . S
C187 O188 1.264 1_554 S
C187 O195 1.249 . S
O188 C187 1.264 1_556 S
O189 Mg182 1.986 1_556 S
O189 C193 1.246 . S
O190 Mg185 2.032 . S
O190 C193 1.259 1_554 S
O191 Mg182 2.114 . S
O191 C194 1.252 . S
O192 Mg182 2.251 . S
O192 Mg185 2.079 . S
O192 C194 1.273 . S
C193 O189 1.246 . S
C193 O190 1.259 1_556 S
C194 O191 1.252 . S
C194 O192 1.273 . S
O195 Mg182 2.010 . S
O195 C187 1.249 . S
Mg196 O197 2.028 . S
Mg196 O203 1.986 . S
Mg196 O205 2.114 . S
Mg196 O206 2.251 . S
Mg196 O209 2.010 . S
O197 Mg196 2.028 . S
O197 C200 1.250 . S
O198 Mg199 2.028 . S
O198 C200 1.248 . S
Mg199 O198 2.028 . S
Mg199 O204 2.032 . S
Mg199 O206 2.079 . S
C200 O197 1.250 . S
C200 O198 1.248 . S
C201 O202 1.264 . S
C201 O209 1.249 . S
O202 C201 1.264 . S
O203 Mg196 1.986 . S
O203 C207 1.246 . S
O204 Mg199 2.032 . S
O204 C207 1.259 . S
O205 Mg196 2.114 . S
O205 C208 1.252 . S
O206 Mg196 2.251 . S
O206 Mg199 2.079 . S
O206 C208 1.273 . S
C207 O203 1.246 . S
C207 O204 1.259 . S
C208 O205 1.252 . S
C208 O206 1.273 . S
O209 Mg196 2.010 . S
O209 C201 1.249 . S
Mg210 O211 2.028 . S
Mg210 O217 1.986 . S
Mg210 O219 2.114 . S
Mg210 O220 2.251 . S
Mg210 O223 2.010 . S
O211 Mg210 2.028 . S
O211 C214 1.250 . S
O212 Mg213 2.028 . S
O212 C214 1.248 . S
Mg213 O212 2.028 . S
Mg213 O218 2.032 . S
Mg213 O220 2.079 . S
C214 O211 1.250 . S
C214 O212 1.248 . S
C215 O216 1.264 . S
C215 O223 1.249 . S
O216 C215 1.264 . S
O217 Mg210 1.986 . S
O217 C221 1.246 . S
O218 Mg213 2.032 . S
O218 C221 1.259 . S
O219 Mg210 2.114 . S
O219 C222 1.252 . S
O220 Mg210 2.251 . S
O220 Mg213 2.079 . S
O220 C222 1.273 . S
C221 O217 1.246 . S
C221 O218 1.259 . S
C222 O219 1.252 . S
C222 O220 1.273 . S
O223 Mg210 2.010 . S
O223 C215 1.249 . S
Mg224 O225 2.028 . S
Mg224 O231 1.986 . S
Mg224 O233 2.114 . S
Mg224 O234 2.251 . S
Mg224 O237 2.010 . S
O225 Mg224 2.028 . S
O225 C228 1.250 . S
O226 Mg227 2.028 . S
O226 C228 1.248 . S
Mg227 O226 2.028 . S
Mg227 O232 2.032 . S
Mg227 O234 2.079 . S
C228 O225 1.250 . S
C228 O226 1.248 . S
C229 O230 1.264 . S
C229 O237 1.249 . S
O230 C229 1.264 . S
O231 Mg224 1.986 . S
O231 C235 1.246 . S
O232 Mg227 2.032 . S
O232 C235 1.259 . S
O233 Mg224 2.114 . S
O233 C236 1.252 . S
O234 Mg224 2.251 . S
O234 Mg227 2.079 . S
O234 C236 1.273 . S
C235 O231 1.246 . S
C235 O232 1.259 . S
C236 O233 1.252 . S
C236 O234 1.273 . S
O237 Mg224 2.010 . S
O237 C229 1.249 . S
Mg238 O239 2.028 . S
Mg238 O245 1.986 . S
Mg238 O247 2.114 . S
Mg238 O248 2.251 . S
Mg238 O251 2.010 . S
O239 Mg238 2.028 . S
O239 C242 1.250 . S
O240 Mg241 2.028 . S
O240 C242 1.248 . S
Mg241 O240 2.028 . S
Mg241 O246 2.032 . S
Mg241 O248 2.079 . S
C242 O239 1.250 . S
C242 O240 1.248 . S
C243 O244 1.264 . S
C243 O251 1.249 . S
O244 C243 1.264 . S
O245 Mg238 1.986 . S
O245 C249 1.246 . S
O246 Mg241 2.032 . S
O246 C249 1.259 . S
O247 Mg238 2.114 . S
O247 C250 1.252 . S
O248 Mg238 2.251 . S
O248 Mg241 2.079 . S
O248 C250 1.273 . S
C249 O245 1.246 . S
C249 O246 1.259 . S
C250 O247 1.252 . S
C250 O248 1.273 . S
O251 Mg238 2.010 . S
O251 C243 1.249 . S
Mg252 O253 2.028 . S
Mg252 O259 1.986 . S
Mg252 O261 2.114 . S
Mg252 O262 2.251 . S
Mg252 O265 2.010 . S
O253 Mg252 2.028 . S
O253 C256 1.250 . S
O254 Mg255 2.028 . S
O254 C256 1.248 . S
Mg255 O254 2.028 . S
Mg255 O260 2.032 . S
Mg255 O262 2.079 . S
C256 O253 1.250 . S
C256 O254 1.248 . S
C257 O258 1.264 . S
C257 O265 1.249 . S
O258 C257 1.264 . S
O259 Mg252 1.986 . S
O259 C263 1.246 . S
O260 Mg255 2.032 . S
O260 C263 1.259 . S
O261 Mg252 2.114 . S
O261 C264 1.252 . S
O262 Mg252 2.251 . S
O262 Mg255 2.079 . S
O262 C264 1.273 . S
C263 O259 1.246 . S
C263 O260 1.259 . S
C264 O261 1.252 . S
C264 O262 1.273 . S
O265 Mg252 2.010 . S
O265 C257 1.249 . S
Mg266 O267 2.028 . S
Mg266 O273 1.986 . S
Mg266 O275 2.114 . S
Mg266 O276 2.251 . S
Mg266 O279 2.010 . S
O267 Mg266 2.028 . S
O267 C270 1.250 . S
O268 Mg269 2.028 . S
O268 C270 1.248 . S
Mg269 O268 2.028 . S
Mg269 O274 2.032 . S
Mg269 O276 2.079 . S
C270 O267 1.250 . S
C270 O268 1.248 . S
C271 O272 1.264 . S
C271 O279 1.249 . S
O272 C271 1.264 . S
O273 Mg266 1.986 . S
O273 C277 1.246 . S
O274 Mg269 2.032 . S
O274 C277 1.259 . S
O275 Mg266 2.114 . S
O275 C278 1.252 . S
O276 Mg266 2.251 . S
O276 Mg269 2.079 . S
O276 C278 1.273 . S
C277 O273 1.246 . S
C277 O274 1.259 . S
C278 O275 1.252 . S
C278 O276 1.273 . S
O279 Mg266 2.010 . S
O279 C271 1.249 . S
Mg280 O281 2.028 1_556 S
Mg280 O287 1.986 . S
Mg280 O289 2.114 1_556 S
Mg280 O290 2.251 . S
Mg280 O293 2.010 . S
O281 Mg280 2.028 1_554 S
O281 C284 1.250 . S
O282 Mg283 2.028 . S
O282 C284 1.248 . S
Mg283 O282 2.028 . S
Mg283 O288 2.032 1_554 S
Mg283 O290 2.079 1_554 S
C284 O281 1.250 . S
C284 O282 1.248 . S
C285 O286 1.264 . S
C285 O293 1.249 . S
O286 C285 1.264 . S
O287 Mg280 1.986 . S
O287 C291 1.246 . S
O288 Mg283 2.032 1_556 S
O288 C291 1.259 . S
O289 Mg280 2.114 1_554 S
O289 C292 1.241 1_554 S
O290 Mg280 2.251 . S
O290 Mg283 2.079 1_556 S
O290 C292 1.290 . S
C291 O287 1.246 . S
C291 O288 1.259 . S
C292 O289 1.241 1_556 S
C292 O290 1.290 . S
O293 Mg280 2.010 . S
O293 C285 1.249 . S
Mg294 O295 2.028 . S
Mg294 O301 1.986 . S
Mg294 O303 2.114 . S
Mg294 O304 2.251 . S
Mg294 O307 2.010 . S
O295 Mg294 2.028 . S
O295 C298 1.250 . S
O296 Mg297 2.028 . S
O296 C298 1.248 . S
Mg297 O296 2.028 . S
Mg297 O302 2.032 . S
Mg297 O304 2.079 . S
C298 O295 1.250 . S
C298 O296 1.248 . S
C299 O300 1.264 . S
C299 O307 1.249 . S
O300 C299 1.264 . S
O301 Mg294 1.986 . S
O301 C305 1.246 . S
O302 Mg297 2.032 . S
O302 C305 1.259 . S
O303 Mg294 2.114 . S
O303 C306 1.252 . S
O304 Mg294 2.251 . S
O304 Mg297 2.079 . S
O304 C306 1.273 . S
C305 O301 1.246 . S
C305 O302 1.259 . S
C306 O303 1.252 . S
C306 O304 1.273 . S
O307 Mg294 2.010 . S
O307 C299 1.249 . S
Mg308 O309 2.028 . S
Mg308 O315 1.986 . S
Mg308 O317 2.114 . S
Mg308 O318 2.251 . S
Mg308 O321 2.010 . S
O309 Mg308 2.028 . S
O309 C312 1.250 . S
O310 Mg311 2.028 . S
O310 C312 1.248 . S
Mg311 O310 2.028 . S
Mg311 O316 2.032 . S
Mg311 O318 2.079 . S
C312 O309 1.250 . S
C312 O310 1.248 . S
C313 O314 1.264 . S
C313 O321 1.249 . S
O314 C313 1.264 . S
O315 Mg308 1.986 . S
O315 C319 1.246 . S
O316 Mg311 2.032 . S
O316 C319 1.259 . S
O317 Mg308 2.114 . S
O317 C320 1.252 . S
O318 Mg308 2.251 . S
O318 Mg311 2.079 . S
O318 C320 1.273 . S
C319 O315 1.246 . S
C319 O316 1.259 . S
C320 O317 1.252 . S
C320 O318 1.273 . S
O321 Mg308 2.010 . S
O321 C313 1.249 . S
Mg322 O323 2.028 . S
Mg322 O329 1.986 . S
Mg322 O331 2.114 . S
Mg322 O332 2.251 . S
Mg322 O335 2.010 . S
O323 Mg322 2.028 . S
O323 C326 1.250 . S
O324 Mg325 2.028 . S
O324 C326 1.248 . S
Mg325 O324 2.028 . S
Mg325 O330 2.032 . S
Mg325 O332 2.079 . S
C326 O323 1.250 . S
C326 O324 1.248 . S
C327 O328 1.264 . S
C327 O335 1.249 . S
O328 C327 1.264 . S
O329 Mg322 1.986 . S
O329 C333 1.246 . S
O330 Mg325 2.032 . S
O330 C333 1.259 . S
O331 Mg322 2.114 . S
O331 C334 1.252 . S
O332 Mg322 2.251 . S
O332 Mg325 2.079 . S
O332 C334 1.273 . S
C333 O329 1.246 . S
C333 O330 1.259 . S
C334 O331 1.252 . S
C334 O332 1.273 . S
O335 Mg322 2.010 . S
O335 C327 1.249 . S
Gd336 N367 2.661 . S
Gd336 N373 2.601 . S
Gd336 O380 2.545 . S
Gd336 O381 2.606 . S
Gd336 O383 2.429 . S
Gd336 O384 2.545 . S
Gd336 O385 2.412 . S
Gd336 O387 2.362 . S
Gd336 O388 2.324 1_554 S
Gd336 C395 2.828 . S
Gd337 N346 2.661 1_546 S
Gd337 N350 2.601 1_545 S
Gd337 O381 2.362 1_556 S
Gd337 O382 2.324 1_556 S
Gd337 O386 2.545 1_455 S
Gd337 O387 2.606 1_556 S
Gd337 O389 2.429 . S
Gd337 O390 2.545 . S
Gd337 O391 2.412 1_456 S
Gd337 C404 2.828 1_455 S
C338 C341 1.428 . S
C338 C343 1.431 1_554 S
C338 C344 1.412 . S
C339 C342 1.437 . S
C339 C343 1.317 . S
C339 H358 0.929 . S
C340 C341 1.406 1_556 S
C340 C342 1.413 . S
C340 N350 1.359 1_655 S
C341 C338 1.428 . S
C341 C340 1.406 1_554 S
C341 N346 1.359 1_655 S
C342 C339 1.437 . S
C342 C340 1.413 . S
C342 C352 1.391 . S
C343 C338 1.431 1_556 S
C343 C339 1.317 . S
C343 H354 0.930 . S
C344 C338 1.412 . S
C344 C345 1.355 . S
C344 H356 0.930 . S
C345 C344 1.355 . S
C345 C347 1.402 1_655 S
C345 H357 0.930 . S
N346 Gd337 2.661 1_564 S
N346 C341 1.359 1_455 S
N346 C347 1.307 . S
C347 C345 1.402 1_455 S
C347 N346 1.307 . S
C347 H348 0.930 . S
H348 C347 0.930 . S
C349 N350 1.334 . S
C349 C351 1.394 1_455 S
C349 H353 0.930 . S
N350 Gd337 2.601 1_565 S
N350 C340 1.359 1_455 S
N350 C349 1.334 . S
C351 C349 1.394 1_655 S
C351 C352 1.359 . S
C351 H363 0.930 . S
C352 C342 1.391 . S
C352 C351 1.359 . S
C352 H364 0.929 . S
H353 C349 0.930 . S
H354 C343 0.930 . S
H355 C372 0.930 . S
H356 C344 0.930 . S
H357 C345 0.930 . S
H358 C339 0.929 . S
H359 C377 0.930 . S
H360 C368 0.930 . S
H361 C369 0.930 . S
H362 C393 0.929 . S
H363 C351 0.930 . S
H364 C352 0.929 . S
H365 C394 0.930 . S
H366 C375 0.930 . S
N367 Gd336 2.661 . S
N367 C371 1.350 . S
N367 C372 1.307 1_554 S
C368 H360 0.930 . S
C368 C369 1.355 . S
C368 C370 1.412 1_556 S
C369 H361 0.930 . S
C369 C368 1.355 . S
C369 C372 1.402 . S
C370 C368 1.412 1_554 S
C370 C371 1.417 . S
C370 C394 1.431 . S
C371 N367 1.350 . S
C371 C370 1.417 . S
C371 C374 1.426 . S
C372 H355 0.930 . S
C372 N367 1.307 1_556 S
C372 C369 1.402 . S
N373 Gd336 2.601 . S
N373 C374 1.359 . S
N373 C377 1.334 . S
C374 C371 1.426 . S
C374 N373 1.359 . S
C374 C378 1.413 . S
C375 H366 0.930 . S
C375 C376 1.359 . S
C375 C377 1.394 . S
C376 C375 1.359 . S
C376 C378 1.391 . S
C376 H379 0.929 . S
C377 H359 0.930 . S
C377 N373 1.334 . S
C377 C375 1.394 . S
C378 C374 1.413 . S
C378 C376 1.391 . S
C378 C393 1.437 . S
H379 C376 0.929 . S
O380 Gd336 2.545 . S
O380 C395 1.258 . S
O381 Gd336 2.606 . S
O381 Gd337 2.362 1_554 S
O381 C392 1.284 1_545 S
O382 Gd337 2.324 1_554 S
O382 C402 1.254 . S
O383 Gd336 2.429 . S
O383 C402 1.268 . S
O384 Gd336 2.545 . S
O384 C392 1.250 1_545 S
O385 Gd336 2.412 . S
O385 C395 1.252 . S
O386 Gd337 2.545 1_655 S
O386 C404 1.258 . S
O387 Gd336 2.362 . S
O387 Gd337 2.606 1_554 S
O387 C403 1.284 . S
O388 Gd336 2.324 1_556 S
O388 C411 1.254 . S
O389 Gd337 2.429 . S
O389 C411 1.268 . S
O390 Gd337 2.545 . S
O390 C403 1.250 1_556 S
O391 Gd337 2.412 1_654 S
O391 C404 1.252 1_554 S
C392 O381 1.284 1_565 S
C392 O384 1.250 1_565 S
C393 H362 0.929 . S
C393 C378 1.437 . S
C393 C394 1.317 . S
C394 H365 0.930 . S
C394 C370 1.431 . S
C394 C393 1.317 . S
C395 Gd336 2.828 . S
C395 O380 1.258 . S
C395 O385 1.252 . S
C395 C396 1.497 . S
C396 C395 1.497 . S
C396 C397 1.395 . S
C396 C398 1.380 . S
C397 C396 1.395 . S
C397 C400 1.398 . S
C397 H412 0.930 . S
C398 C396 1.380 . S
C398 C399 1.391 . S
C398 H413 0.930 . S
C399 C398 1.391 . S
C399 C401 1.387 . S
C400 C397 1.398 . S
C400 C401 1.380 . S
C400 H414 0.930 . S
C401 C399 1.387 . S
C401 C400 1.380 . S
C401 H415 0.930 . S
C402 O382 1.254 . S
C402 O383 1.268 . S
C403 O387 1.284 . S
C403 O390 1.250 1_554 S
C404 Gd337 2.828 1_655 S
C404 O386 1.258 . S
C404 O391 1.252 1_556 S
C404 C405 1.497 . S
C405 C404 1.497 . S
C405 C406 1.395 . S
C405 C407 1.380 . S
C406 C405 1.395 . S
C406 C409 1.398 . S
C406 H416 0.930 . S
C407 C405 1.380 . S
C407 C408 1.391 . S
C407 H417 0.930 1_556 S
C408 C407 1.391 . S
C408 C410 1.387 . S
C409 C406 1.398 . S
C409 C410 1.380 . S
C409 H418 0.930 . S
C410 C408 1.387 . S
C410 C409 1.380 . S
C410 H419 0.930 . S
C411 O388 1.254 . S
C411 O389 1.268 . S
H412 C397 0.930 . S
H413 C398 0.930 . S
H414 C400 0.930 . S
H415 C401 0.930 . S
H416 C406 0.930 . S
H417 C407 0.930 1_554 S
H418 C409 0.930 . S
H419 C410 0.930 . S
Gd420 N451 2.661 . S
Gd420 N457 2.601 . S
Gd420 O464 2.545 . S
Gd420 O465 2.606 . S
Gd420 O467 2.429 . S
Gd420 O468 2.545 . S
Gd420 O469 2.412 . S
Gd420 O471 2.362 . S
Gd420 O472 2.324 . S
Gd420 C479 2.828 . S
Gd421 N430 2.661 . S
Gd421 N434 2.601 . S
Gd421 O465 2.362 . S
Gd421 O466 2.324 . S
Gd421 O470 2.545 . S
Gd421 O471 2.606 . S
Gd421 O473 2.429 . S
Gd421 O474 2.545 . S
Gd421 O475 2.412 . S
Gd421 C488 2.828 . S
C422 C425 1.417 . S
C422 C427 1.431 . S
C422 C428 1.412 . S
C423 C426 1.437 . S
C423 C427 1.317 . S
C423 H442 0.929 . S
C424 C425 1.426 . S
C424 C426 1.413 . S
C424 N434 1.359 . S
C425 C422 1.417 . S
C425 C424 1.426 . S
C425 N430 1.350 . S
C426 C423 1.437 . S
C426 C424 1.413 . S
C426 C436 1.391 . S
C427 C422 1.431 . S
C427 C423 1.317 . S
C427 H438 0.930 . S
C428 C422 1.412 . S
C428 C429 1.355 . S
C428 H440 0.930 . S
C429 C428 1.355 . S
C429 C431 1.402 . S
C429 H441 0.930 . S
N430 Gd421 2.661 . S
N430 C425 1.350 . S
N430 C431 1.307 . S
C431 C429 1.402 . S
C431 N430 1.307 . S
C431 H432 0.930 . S
H432 C431 0.930 . S
C433 N434 1.334 . S
C433 C435 1.394 . S
C433 H437 0.930 . S
N434 Gd421 2.601 . S
N434 C424 1.359 . S
N434 C433 1.334 . S
C435 C433 1.394 . S
C435 C436 1.359 . S
C435 H447 0.930 . S
C436 C426 1.391 . S
C436 C435 1.359 . S
C436 H448 0.929 . S
H437 C433 0.930 . S
H438 C427 0.930 . S
H439 C456 0.930 . S
H440 C428 0.930 . S
H441 C429 0.930 . S
H442 C423 0.929 . S
H443 C461 0.930 . S
H444 C452 0.930 . S
H445 C453 0.930 . S
H446 C477 0.929 . S
H447 C435 0.930 . S
H448 C436 0.929 . S
H449 C478 0.930 . S
H450 C459 0.930 . S
N451 Gd420 2.661 . S
N451 C455 1.350 . S
N451 C456 1.307 . S
C452 H444 0.930 . S
C452 C453 1.355 . S
C452 C454 1.412 . S
C453 H445 0.930 . S
C453 C452 1.355 . S
C453 C456 1.402 . S
C454 C452 1.412 . S
C454 C455 1.417 . S
C454 C478 1.431 . S
C455 N451 1.350 . S
C455 C454 1.417 . S
C455 C458 1.426 . S
C456 H439 0.930 . S
C456 N451 1.307 . S
C456 C453 1.402 . S
N457 Gd420 2.601 . S
N457 C458 1.359 . S
N457 C461 1.334 . S
C458 C455 1.426 . S
C458 N457 1.359 . S
C458 C462 1.413 . S
C459 H450 0.930 . S
C459 C460 1.359 . S
C459 C461 1.394 . S
C460 C459 1.359 . S
C460 C462 1.391 . S
C460 H463 0.929 . S
C461 H443 0.930 . S
C461 N457 1.334 . S
C461 C459 1.394 . S
C462 C458 1.413 . S
C462 C460 1.391 . S
C462 C477 1.437 . S
H463 C460 0.929 . S
O464 Gd420 2.545 . S
O464 C479 1.258 . S
O465 Gd420 2.606 . S
O465 Gd421 2.362 . S
O465 C476 1.284 . S
O466 Gd421 2.324 . S
O466 C486 1.254 . S
O467 Gd420 2.429 . S
O467 C486 1.268 . S
O468 Gd420 2.545 . S
O468 C476 1.250 . S
O469 Gd420 2.412 . S
O469 C479 1.252 . S
O470 Gd421 2.545 . S
O470 C488 1.258 . S
O471 Gd420 2.362 . S
O471 Gd421 2.606 . S
O471 C487 1.284 . S
O472 Gd420 2.324 . S
O472 C495 1.254 . S
O473 Gd421 2.429 . S
O473 C495 1.268 . S
O474 Gd421 2.545 . S
O474 C487 1.250 . S
O475 Gd421 2.412 . S
O475 C488 1.252 . S
C476 O465 1.284 . S
C476 O468 1.250 . S
C477 H446 0.929 . S
C477 C462 1.437 . S
C477 C478 1.317 . S
C478 H449 0.930 . S
C478 C454 1.431 . S
C478 C477 1.317 . S
C479 Gd420 2.828 . S
C479 O464 1.258 . S
C479 O469 1.252 . S
C479 C480 1.497 . S
C480 C479 1.497 . S
C480 C481 1.395 . S
C480 C482 1.380 . S
C481 C480 1.395 . S
C481 C484 1.398 . S
C481 H496 0.930 . S
C482 C480 1.380 . S
C482 C483 1.391 . S
C482 H497 0.930 . S
C483 C482 1.391 . S
C483 C485 1.387 . S
C484 C481 1.398 . S
C484 C485 1.380 . S
C484 H498 0.930 . S
C485 C483 1.387 . S
C485 C484 1.380 . S
C485 H499 0.930 . S
C486 O466 1.254 . S
C486 O467 1.268 . S
C487 O471 1.284 . S
C487 O474 1.250 . S
C488 Gd421 2.828 . S
C488 O470 1.258 . S
C488 O475 1.252 . S
C488 C489 1.497 . S
C489 C488 1.497 . S
C489 C490 1.395 . S
C489 C491 1.380 . S
C490 C489 1.395 . S
C490 C493 1.398 . S
C490 H500 0.930 . S
C491 C489 1.380 . S
C491 C492 1.391 . S
C491 H501 0.930 . S
C492 C491 1.391 . S
C492 C494 1.387 . S
C493 C490 1.398 . S
C493 C494 1.380 . S
C493 H502 0.930 . S
C494 C492 1.387 . S
C494 C493 1.380 . S
C494 H503 0.930 . S
C495 O472 1.254 . S
C495 O473 1.268 . S
H496 C481 0.930 . S
H497 C482 0.930 . S
H498 C484 0.930 . S
H499 C485 0.930 . S
H500 C490 0.930 . S
H501 C491 0.930 . S
H502 C493 0.930 . S
H503 C494 0.930 . S
Gd504 N535 2.661 1_545 S
Gd504 N541 2.601 . S
Gd504 O548 2.545 . S
Gd504 O549 2.606 . S
Gd504 O551 2.429 . S
Gd504 O552 2.545 . S
Gd504 O553 2.412 . S
Gd504 O555 2.362 . S
Gd504 O556 2.324 . S
Gd504 C563 2.828 . S
Gd505 N514 2.661 . S
Gd505 N518 2.601 . S
Gd505 O549 2.362 . S
Gd505 O550 2.324 . S
Gd505 O554 2.545 . S
Gd505 O555 2.606 . S
Gd505 O557 2.429 . S
Gd505 O558 2.545 1_545 S
Gd505 O559 2.412 . S
Gd505 C572 2.828 . S
C506 C509 1.417 . S
C506 C511 1.431 . S
C506 C512 1.412 . S
C507 C510 1.437 . S
C507 C511 1.317 . S
C507 H526 0.929 . S
C508 C509 1.426 . S
C508 C510 1.413 . S
C508 N518 1.359 . S
C509 C506 1.417 . S
C509 C508 1.426 . S
C509 N514 1.350 . S
C510 C507 1.437 . S
C510 C508 1.413 . S
C510 C520 1.391 . S
C511 C506 1.431 . S
C511 C507 1.317 . S
C511 H522 0.930 . S
C512 C506 1.412 . S
C512 C513 1.355 . S
C512 H524 0.930 . S
C513 C512 1.355 . S
C513 C515 1.402 . S
C513 H525 0.930 . S
N514 Gd505 2.661 . S
N514 C509 1.350 . S
N514 C515 1.307 . S
C515 C513 1.402 . S
C515 N514 1.307 . S
C515 H516 0.930 . S
H516 C515 0.930 . S
C517 N518 1.334 . S
C517 C519 1.394 . S
C517 H521 0.930 . S
N518 Gd505 2.601 . S
N518 C508 1.359 . S
N518 C517 1.334 . S
C519 C517 1.394 . S
C519 C520 1.359 . S
C519 H531 0.930 . S
C520 C510 1.391 . S
C520 C519 1.359 . S
C520 H532 0.929 . S
H521 C517 0.930 . S
H522 C511 0.930 . S
H523 C540 0.930 . S
H524 C512 0.930 . S
H525 C513 0.930 . S
H526 C507 0.929 . S
H527 C545 0.930 . S
H528 C536 0.930 . S
H529 C537 0.930 . S
H530 C561 0.929 . S
H531 C519 0.930 . S
H532 C520 0.929 . S
H533 C562 0.930 . S
H534 C543 0.930 . S
N535 Gd504 2.661 1_565 S
N535 C539 1.350 . S
N535 C540 1.307 . S
C536 H528 0.930 . S
C536 C537 1.355 . S
C536 C538 1.412 . S
C537 H529 0.930 . S
C537 C536 1.355 . S
C537 C540 1.402 . S
C538 C536 1.412 . S
C538 C539 1.417 . S
C538 C562 1.431 . S
C539 N535 1.350 . S
C539 C538 1.417 . S
C539 C542 1.426 . S
C540 H523 0.930 . S
C540 N535 1.307 . S
C540 C537 1.402 . S
N541 Gd504 2.601 . S
N541 C542 1.359 1_545 S
N541 C545 1.334 . S
C542 C539 1.426 . S
C542 N541 1.359 1_565 S
C542 C546 1.413 . S
C543 H534 0.930 . S
C543 C544 1.359 1_545 S
C543 C545 1.394 . S
C544 C543 1.359 1_565 S
C544 C546 1.391 . S
C544 H547 0.929 . S
C545 H527 0.930 . S
C545 N541 1.334 . S
C545 C543 1.394 . S
C546 C542 1.413 . S
C546 C544 1.391 . S
C546 C561 1.437 . S
H547 C544 0.929 . S
O548 Gd504 2.545 . S
O548 C563 1.258 . S
O549 Gd504 2.606 . S
O549 Gd505 2.362 . S
O549 C560 1.284 . S
O550 Gd505 2.324 . S
O550 C570 1.254 . S
O551 Gd504 2.429 . S
O551 C570 1.268 . S
O552 Gd504 2.545 . S
O552 C560 1.250 . S
O553 Gd504 2.412 . S
O553 C563 1.252 . S
O554 Gd505 2.545 . S
O554 C572 1.258 . S
O555 Gd504 2.362 . S
O555 Gd505 2.606 . S
O555 C571 1.284 1_545 S
O556 Gd504 2.324 . S
O556 C579 1.254 . S
O557 Gd505 2.429 . S
O557 C579 1.268 . S
O558 Gd505 2.545 1_565 S
O558 C571 1.250 . S
O559 Gd505 2.412 . S
O559 C572 1.252 . S
C560 O549 1.284 . S
C560 O552 1.250 . S
C561 H530 0.929 . S
C561 C546 1.437 . S
C561 C562 1.317 . S
C562 H533 0.930 . S
C562 C538 1.431 . S
C562 C561 1.317 . S
C563 Gd504 2.828 . S
C563 O548 1.258 . S
C563 O553 1.252 . S
C563 C564 1.497 . S
C564 C563 1.497 . S
C564 C565 1.395 . S
C564 C566 1.380 . S
C565 C564 1.395 . S
C565 C568 1.398 . S
C565 H580 0.930 . S
C566 C564 1.380 . S
C566 C567 1.391 . S
C566 H581 0.930 . S
C567 C566 1.391 . S
C567 C569 1.387 . S
C568 C565 1.398 . S
C568 C569 1.380 . S
C568 H582 0.930 . S
C569 C567 1.387 . S
C569 C568 1.380 . S
C569 H583 0.930 . S
C570 O550 1.254 . S
C570 O551 1.268 . S
C571 O555 1.284 1_565 S
C571 O558 1.250 . S
C572 Gd505 2.828 . S
C572 O554 1.258 . S
C572 O559 1.252 . S
C572 C573 1.497 . S
C573 C572 1.497 . S
C573 C574 1.395 . S
C573 C575 1.380 1_545 S
C574 C573 1.395 . S
C574 C577 1.398 1_545 S
C574 H584 0.930 . S
C575 C573 1.380 1_565 S
C575 C576 1.391 . S
C575 H585 0.930 . S
C576 C575 1.391 . S
C576 C578 1.387 . S
C577 C574 1.398 1_565 S
C577 C578 1.380 . S
C577 H586 0.930 . S
C578 C576 1.387 . S
C578 C577 1.380 . S
C578 H587 0.930 . S
C579 O556 1.254 . S
C579 O557 1.268 . S
H580 C565 0.930 . S
H581 C566 0.930 . S
H582 C568 0.930 . S
H583 C569 0.930 . S
H584 C574 0.930 . S
H585 C575 0.930 . S
H586 C577 0.930 . S
H587 C578 0.930 . S
Gd588 N619 2.661 . S
Gd588 N625 2.601 . S
Gd588 O632 2.545 . S
Gd588 O633 2.606 . S
Gd588 O635 2.429 . S
Gd588 O636 2.545 . S
Gd588 O637 2.412 . S
Gd588 O639 2.362 . S
Gd588 O640 2.324 . S
Gd588 C647 2.828 . S
Gd589 N598 2.661 . S
Gd589 N602 2.601 . S
Gd589 O633 2.362 . S
Gd589 O634 2.324 . S
Gd589 O638 2.545 . S
Gd589 O639 2.606 . S
Gd589 O641 2.429 . S
Gd589 O642 2.545 . S
Gd589 O643 2.412 . S
Gd589 C656 2.828 . S
C590 C593 1.417 . S
C590 C595 1.431 . S
C590 C596 1.412 . S
C591 C594 1.437 . S
C591 C595 1.317 . S
C591 H610 0.929 . S
C592 C593 1.426 . S
C592 C594 1.413 . S
C592 N602 1.359 . S
C593 C590 1.417 . S
C593 C592 1.426 . S
C593 N598 1.350 . S
C594 C591 1.437 . S
C594 C592 1.413 . S
C594 C604 1.391 . S
C595 C590 1.431 . S
C595 C591 1.317 . S
C595 H606 0.930 . S
C596 C590 1.412 . S
C596 C597 1.355 . S
C596 H608 0.930 . S
C597 C596 1.355 . S
C597 C599 1.402 . S
C597 H609 0.930 . S
N598 Gd589 2.661 . S
N598 C593 1.350 . S
N598 C599 1.307 . S
C599 C597 1.402 . S
C599 N598 1.307 . S
C599 H600 0.930 . S
H600 C599 0.930 . S
C601 N602 1.334 . S
C601 C603 1.394 . S
C601 H605 0.930 . S
N602 Gd589 2.601 . S
N602 C592 1.359 . S
N602 C601 1.334 . S
C603 C601 1.394 . S
C603 C604 1.359 . S
C603 H615 0.930 . S
C604 C594 1.391 . S
C604 C603 1.359 . S
C604 H616 0.929 . S
H605 C601 0.930 . S
H606 C595 0.930 . S
H607 C624 0.930 . S
H608 C596 0.930 . S
H609 C597 0.930 . S
H610 C591 0.929 . S
H611 C629 0.930 . S
H612 C620 0.930 . S
H613 C621 0.930 . S
H614 C645 0.929 . S
H615 C603 0.930 . S
H616 C604 0.929 . S
H617 C646 0.930 . S
H618 C627 0.930 . S
N619 Gd588 2.661 . S
N619 C623 1.350 . S
N619 C624 1.307 . S
C620 H612 0.930 . S
C620 C621 1.355 . S
C620 C622 1.412 . S
C621 H613 0.930 . S
C621 C620 1.355 . S
C621 C624 1.402 . S
C622 C620 1.412 . S
C622 C623 1.417 . S
C622 C646 1.431 . S
C623 N619 1.350 . S
C623 C622 1.417 . S
C623 C626 1.426 . S
C624 H607 0.930 . S
C624 N619 1.307 . S
C624 C621 1.402 . S
N625 Gd588 2.601 . S
N625 C626 1.359 . S
N625 C629 1.334 . S
C626 C623 1.426 . S
C626 N625 1.359 . S
C626 C630 1.413 . S
C627 H618 0.930 . S
C627 C628 1.359 . S
C627 C629 1.394 . S
C628 C627 1.359 . S
C628 C630 1.391 . S
C628 H631 0.929 . S
C629 H611 0.930 . S
C629 N625 1.334 . S
C629 C627 1.394 . S
C630 C626 1.413 . S
C630 C628 1.391 . S
C630 C645 1.437 . S
H631 C628 0.929 . S
O632 Gd588 2.545 . S
O632 C647 1.258 . S
O633 Gd588 2.606 . S
O633 Gd589 2.362 . S
O633 C644 1.284 . S
O634 Gd589 2.324 . S
O634 C654 1.254 . S
O635 Gd588 2.429 . S
O635 C654 1.268 . S
O636 Gd588 2.545 . S
O636 C644 1.250 . S
O637 Gd588 2.412 . S
O637 C647 1.252 . S
O638 Gd589 2.545 . S
O638 C656 1.258 . S
O639 Gd588 2.362 . S
O639 Gd589 2.606 . S
O639 C655 1.284 . S
O640 Gd588 2.324 . S
O640 C663 1.254 . S
O641 Gd589 2.429 . S
O641 C663 1.268 . S
O642 Gd589 2.545 . S
O642 C655 1.250 . S
O643 Gd589 2.412 . S
O643 C656 1.252 . S
C644 O633 1.284 . S
C644 O636 1.250 . S
C645 H614 0.929 . S
C645 C630 1.437 . S
C645 C646 1.317 . S
C646 H617 0.930 . S
C646 C622 1.431 . S
C646 C645 1.317 . S
C647 Gd588 2.828 . S
C647 O632 1.258 . S
C647 O637 1.252 . S
C647 C648 1.497 . S
C648 C647 1.497 . S
C648 C649 1.395 . S
C648 C650 1.380 . S
C649 C648 1.395 . S
C649 C652 1.398 . S
C649 H664 0.930 . S
C650 C648 1.380 . S
C650 C651 1.391 . S
C650 H665 0.930 . S
C651 C650 1.391 . S
C651 C653 1.387 . S
C652 C649 1.398 . S
C652 C653 1.380 . S
C652 H666 0.930 . S
C653 C651 1.387 . S
C653 C652 1.380 . S
C653 H667 0.930 . S
C654 O634 1.254 . S
C654 O635 1.268 . S
C655 O639 1.284 . S
C655 O642 1.250 . S
C656 Gd589 2.828 . S
C656 O638 1.258 . S
C656 O643 1.252 . S
C656 C657 1.497 . S
C657 C656 1.497 . S
C657 C658 1.395 . S
C657 C659 1.380 . S
C658 C657 1.395 . S
C658 C661 1.398 . S
C658 H668 0.930 . S
C659 C657 1.380 . S
C659 C660 1.391 . S
C659 H669 0.930 . S
C660 C659 1.391 . S
C660 C662 1.387 . S
C661 C658 1.398 . S
C661 C662 1.380 . S
C661 H670 0.930 . S
C662 C660 1.387 . S
C662 C661 1.380 . S
C662 H671 0.930 . S
C663 O640 1.254 . S
C663 O641 1.268 . S
H664 C649 0.930 . S
H665 C650 0.930 . S
H666 C652 0.930 . S
H667 C653 0.930 . S
H668 C658 0.930 . S
H669 C659 0.930 . S
H670 C661 0.930 . S
H671 C662 0.930 . S
Gd672 N703 2.661 1_545 S
Gd672 N709 2.601 1_545 S
Gd672 O716 2.545 1_545 S
Gd672 O717 2.606 . S
Gd672 O719 2.429 . S
Gd672 O720 2.545 . S
Gd672 O721 2.412 1_545 S
Gd672 O723 2.362 . S
Gd672 O724 2.324 . S
Gd672 C731 2.828 1_545 S
Gd673 N682 2.661 . S
Gd673 N686 2.601 . S
Gd673 O717 2.362 . S
Gd673 O718 2.324 . S
Gd673 O722 2.545 . S
Gd673 O723 2.606 . S
Gd673 O725 2.429 . S
Gd673 O726 2.545 . S
Gd673 O727 2.412 . S
Gd673 C740 2.828 . S
C674 C677 1.417 . S
C674 C679 1.431 . S
C674 C680 1.412 . S
C675 C678 1.437 . S
C675 C679 1.317 . S
C675 H694 0.929 . S
C676 C677 1.426 . S
C676 C678 1.413 . S
C676 N686 1.359 . S
C677 C674 1.417 . S
C677 C676 1.426 . S
C677 N682 1.350 . S
C678 C675 1.437 . S
C678 C676 1.413 . S
C678 C688 1.391 . S
C679 C674 1.431 . S
C679 C675 1.317 . S
C679 H690 0.930 . S
C680 C674 1.412 . S
C680 C681 1.355 . S
C680 H692 0.930 . S
C681 C680 1.355 . S
C681 C683 1.402 . S
C681 H693 0.930 . S
N682 Gd673 2.661 . S
N682 C677 1.350 . S
N682 C683 1.307 . S
C683 C681 1.402 . S
C683 N682 1.307 . S
C683 H684 0.930 . S
H684 C683 0.930 . S
C685 N686 1.334 . S
C685 C687 1.394 1_455 S
C685 H689 0.930 1_455 S
N686 Gd673 2.601 . S
N686 C676 1.359 . S
N686 C685 1.334 . S
C687 C685 1.394 1_655 S
C687 C688 1.359 1_655 S
C687 H699 0.930 . S
C688 C678 1.391 . S
C688 C687 1.359 1_455 S
C688 H700 0.929 . S
H689 C685 0.930 1_655 S
H690 C679 0.930 . S
H691 C708 0.930 . S
H692 C680 0.930 . S
H693 C681 0.930 . S
H694 C675 0.929 . S
H695 C713 0.930 . S
H696 C704 0.911 1_655 S
H697 C705 0.930 . S
H698 C729 0.929 . S
H699 C687 0.930 . S
H700 C688 0.929 . S
H701 C730 0.930 . S
H702 C711 0.930 . S
N703 Gd672 2.661 1_565 S
N703 C707 1.350 . S
N703 C708 1.307 . S
C704 H696 0.911 1_455 S
C704 C705 1.335 1_455 S
C704 C706 1.452 . S
C705 H697 0.930 . S
C705 C704 1.335 1_655 S
C705 C708 1.402 1_655 S
C706 C704 1.452 . S
C706 C707 1.417 . S
C706 C730 1.431 . S
C707 N703 1.350 . S
C707 C706 1.417 . S
C707 C710 1.426 . S
C708 H691 0.930 . S
C708 N703 1.307 . S
C708 C705 1.402 1_455 S
N709 Gd672 2.601 1_565 S
N709 C710 1.359 . S
N709 C713 1.334 . S
C710 C707 1.426 . S
C710 N709 1.359 . S
C710 C714 1.413 . S
C711 H702 0.930 . S
C711 C712 1.359 . S
C711 C713 1.394 . S
C712 C711 1.359 . S
C712 C714 1.391 . S
C712 H715 0.929 . S
C713 H695 0.930 . S
C713 N709 1.334 . S
C713 C711 1.394 . S
C714 C710 1.413 . S
C714 C712 1.391 . S
C714 C729 1.437 . S
H715 C712 0.929 . S
O716 Gd672 2.545 1_565 S
O716 C731 1.258 . S
O717 Gd672 2.606 . S
O717 Gd673 2.362 . S
O717 C728 1.284 . S
O718 Gd673 2.324 . S
O718 C738 1.254 . S
O719 Gd672 2.429 . S
O719 C738 1.268 . S
O720 Gd672 2.545 . S
O720 C728 1.250 . S
O721 Gd672 2.412 1_565 S
O721 C731 1.252 . S
O722 Gd673 2.545 . S
O722 C740 1.258 . S
O723 Gd672 2.362 . S
O723 Gd673 2.606 . S
O723 C739 1.284 . S
O724 Gd672 2.324 . S
O724 C747 1.254 . S
O725 Gd673 2.429 . S
O725 C747 1.268 . S
O726 Gd673 2.545 . S
O726 C739 1.250 . S
O727 Gd673 2.412 . S
O727 C740 1.252 . S
C728 O717 1.284 . S
C728 O720 1.250 . S
C729 H698 0.929 . S
C729 C714 1.437 . S
C729 C730 1.317 . S
C730 H701 0.930 . S
C730 C706 1.431 . S
C730 C729 1.317 . S
C731 Gd672 2.828 1_565 S
C731 O716 1.258 . S
C731 O721 1.252 . S
C731 C732 1.497 . S
C732 C731 1.497 . S
C732 C733 1.395 . S
C732 C734 1.380 . S
C733 C732 1.395 . S
C733 C736 1.398 . S
C733 H748 0.930 . S
C734 C732 1.380 . S
C734 C735 1.391 . S
C734 H749 0.930 . S
C735 C734 1.391 . S
C735 C737 1.387 . S
C736 C733 1.398 . S
C736 C737 1.380 . S
C736 H750 0.930 . S
C737 C735 1.387 . S
C737 C736 1.380 . S
C737 H751 0.930 . S
C738 O718 1.254 . S
C738 O719 1.268 . S
C739 O723 1.284 . S
C739 O726 1.250 . S
C740 Gd673 2.828 . S
C740 O722 1.258 . S
C740 O727 1.252 . S
C740 C741 1.497 . S
C741 C740 1.497 . S
C741 C742 1.395 . S
C741 C743 1.380 . S
C742 C741 1.395 . S
C742 C745 1.398 . S
C742 H752 0.930 . S
C743 C741 1.380 . S
C743 C744 1.391 . S
C743 H753 0.930 . S
C744 C743 1.391 . S
C744 C746 1.387 . S
C745 C742 1.398 . S
C745 C746 1.380 . S
C745 H754 0.930 . S
C746 C744 1.387 . S
C746 C745 1.380 . S
C746 H755 0.930 . S
C747 O724 1.254 . S
C747 O725 1.268 . S
H748 C733 0.930 . S
H749 C734 0.930 . S
H750 C736 0.930 . S
H751 C737 0.930 . S
H752 C742 0.930 . S
H753 C743 0.930 . S
H754 C745 0.930 . S
H755 C746 0.930 . S
Gd756 N787 2.661 . S
Gd756 N793 2.601 . S
Gd756 O800 2.545 . S
Gd756 O801 2.606 . S
Gd756 O803 2.429 . S
Gd756 O804 2.545 . S
Gd756 O805 2.412 . S
Gd756 O807 2.362 . S
Gd756 O808 2.324 . S
Gd756 C815 2.828 . S
Gd757 N766 2.661 . S
Gd757 N770 2.601 . S
Gd757 O801 2.362 . S
Gd757 O802 2.324 . S
Gd757 O806 2.545 . S
Gd757 O807 2.606 . S
Gd757 O809 2.429 . S
Gd757 O810 2.545 . S
Gd757 O811 2.412 . S
Gd757 C824 2.828 . S
C758 C761 1.417 . S
C758 C763 1.431 . S
C758 C764 1.412 . S
C759 C762 1.437 . S
C759 C763 1.317 . S
C759 H778 0.929 . S
C760 C761 1.426 . S
C760 C762 1.413 . S
C760 N770 1.359 . S
C761 C758 1.417 . S
C761 C760 1.426 . S
C761 N766 1.350 . S
C762 C759 1.437 . S
C762 C760 1.413 . S
C762 C772 1.391 . S
C763 C758 1.431 . S
C763 C759 1.317 . S
C763 H774 0.930 . S
C764 C758 1.412 . S
C764 C765 1.355 . S
C764 H776 0.930 . S
C765 C764 1.355 . S
C765 C767 1.402 . S
C765 H777 0.930 . S
N766 Gd757 2.661 . S
N766 C761 1.350 . S
N766 C767 1.307 . S
C767 C765 1.402 . S
C767 N766 1.307 . S
C767 H768 0.930 . S
H768 C767 0.930 . S
C769 N770 1.334 . S
C769 C771 1.394 . S
C769 H773 0.930 . S
N770 Gd757 2.601 . S
N770 C760 1.359 . S
N770 C769 1.334 . S
C771 C769 1.394 . S
C771 C772 1.359 . S
C771 H783 0.930 . S
C772 C762 1.391 . S
C772 C771 1.359 . S
C772 H784 0.929 . S
H773 C769 0.930 . S
H774 C763 0.930 . S
H775 C792 0.930 . S
H776 C764 0.930 . S
H777 C765 0.930 . S
H778 C759 0.929 . S
H779 C797 0.930 . S
H780 C788 0.930 . S
H781 C789 0.930 . S
H782 C813 0.929 . S
H783 C771 0.930 . S
H784 C772 0.929 . S
H785 C814 0.930 . S
H786 C795 0.930 . S
N787 Gd756 2.661 . S
N787 C791 1.350 . S
N787 C792 1.307 . S
C788 H780 0.930 . S
C788 C789 1.355 . S
C788 C790 1.412 . S
C789 H781 0.930 . S
C789 C788 1.355 . S
C789 C792 1.402 . S
C790 C788 1.412 . S
C790 C791 1.417 . S
C790 C814 1.431 . S
C791 N787 1.350 . S
C791 C790 1.417 . S
C791 C794 1.426 . S
C792 H775 0.930 . S
C792 N787 1.307 . S
C792 C789 1.402 . S
N793 Gd756 2.601 . S
N793 C794 1.359 . S
N793 C797 1.334 . S
C794 C791 1.426 . S
C794 N793 1.359 . S
C794 C798 1.413 . S
C795 H786 0.930 . S
C795 C796 1.359 . S
C795 C797 1.394 . S
C796 C795 1.359 . S
C796 C798 1.391 . S
C796 H799 0.929 . S
C797 H779 0.930 . S
C797 N793 1.334 . S
C797 C795 1.394 . S
C798 C794 1.413 . S
C798 C796 1.391 . S
C798 C813 1.437 . S
H799 C796 0.929 . S
O800 Gd756 2.545 . S
O800 C815 1.258 . S
O801 Gd756 2.606 . S
O801 Gd757 2.362 . S
O801 C812 1.284 . S
O802 Gd757 2.324 . S
O802 C822 1.254 . S
O803 Gd756 2.429 . S
O803 C822 1.268 . S
O804 Gd756 2.545 . S
O804 C812 1.250 . S
O805 Gd756 2.412 . S
O805 C815 1.252 . S
O806 Gd757 2.545 . S
O806 C824 1.258 . S
O807 Gd756 2.362 . S
O807 Gd757 2.606 . S
O807 C823 1.284 . S
O808 Gd756 2.324 . S
O808 C831 1.254 . S
O809 Gd757 2.429 . S
O809 C831 1.268 . S
O810 Gd757 2.545 . S
O810 C823 1.250 . S
O811 Gd757 2.412 . S
O811 C824 1.252 . S
C812 O801 1.284 . S
C812 O804 1.250 . S
C813 H782 0.929 . S
C813 C798 1.437 . S
C813 C814 1.317 . S
C814 H785 0.930 . S
C814 C790 1.431 . S
C814 C813 1.317 . S
C815 Gd756 2.828 . S
C815 O800 1.258 . S
C815 O805 1.252 . S
C815 C816 1.497 . S
C816 C815 1.497 . S
C816 C817 1.395 . S
C816 C818 1.380 . S
C817 C816 1.395 . S
C817 C820 1.398 . S
C817 H832 0.930 . S
C818 C816 1.380 . S
C818 C819 1.391 . S
C818 H833 0.930 . S
C819 C818 1.391 . S
C819 C821 1.387 . S
C820 C817 1.398 . S
C820 C821 1.380 . S
C820 H834 0.930 . S
C821 C819 1.387 . S
C821 C820 1.380 . S
C821 H835 0.930 . S
C822 O802 1.254 . S
C822 O803 1.268 . S
C823 O807 1.284 . S
C823 O810 1.250 . S
C824 Gd757 2.828 . S
C824 O806 1.258 . S
C824 O811 1.252 . S
C824 C825 1.497 . S
C825 C824 1.497 . S
C825 C826 1.395 . S
C825 C827 1.380 . S
C826 C825 1.395 . S
C826 C829 1.398 . S
C826 H836 0.930 . S
C827 C825 1.380 . S
C827 C828 1.391 . S
C827 H837 0.930 . S
C828 C827 1.391 . S
C828 C830 1.387 . S
C829 C826 1.398 . S
C829 C830 1.380 . S
C829 H838 0.930 . S
C830 C828 1.387 . S
C830 C829 1.380 . S
C830 H839 0.930 . S
C831 O808 1.254 . S
C831 O809 1.268 . S
H832 C817 0.930 . S
H833 C818 0.930 . S
H834 C820 0.930 . S
H835 C821 0.930 . S
H836 C826 0.930 . S
H837 C827 0.930 . S
H838 C829 0.930 . S
H839 C830 0.930 . S
Gd840 N871 2.661 . S
Gd840 N877 2.601 . S
Gd840 O884 2.545 . S
Gd840 O885 2.606 1_556 S
Gd840 O887 2.429 1_556 S
Gd840 O888 2.545 . S
Gd840 O889 2.412 . S
Gd840 O891 2.362 1_556 S
Gd840 O892 2.324 . S
Gd840 C899 2.828 . S
Gd841 N850 2.661 . S
Gd841 N854 2.601 . S
Gd841 O885 2.362 . S
Gd841 O886 2.324 . S
Gd841 O890 2.545 1_545 S
Gd841 O891 2.606 . S
Gd841 O893 2.429 1_545 S
Gd841 O894 2.545 . S
Gd841 O895 2.412 . S
Gd841 C908 2.828 . S
C842 C845 1.417 . S
C842 C847 1.431 . S
C842 C848 1.412 . S
C843 C846 1.437 . S
C843 C847 1.317 . S
C843 H862 0.929 . S
C844 C845 1.426 . S
C844 C846 1.413 . S
C844 N854 1.359 . S
C845 C842 1.417 . S
C845 C844 1.426 . S
C845 N850 1.350 . S
C846 C843 1.437 . S
C846 C844 1.413 . S
C846 C856 1.391 1_545 S
C847 C842 1.431 . S
C847 C843 1.317 . S
C847 H858 0.930 . S
C848 C842 1.412 . S
C848 C849 1.355 . S
C848 H860 0.930 . S
C849 C848 1.355 . S
C849 C851 1.402 . S
C849 H861 0.930 . S
N850 Gd841 2.661 . S
N850 C845 1.350 . S
N850 C851 1.307 . S
C851 C849 1.402 . S
C851 N850 1.307 . S
C851 H852 0.930 . S
H852 C851 0.930 . S
C853 N854 1.334 1_565 S
C853 C855 1.394 . S
C853 H857 0.930 . S
N854 Gd841 2.601 . S
N854 C844 1.359 . S
N854 C853 1.334 1_545 S
C855 C853 1.394 . S
C855 C856 1.359 . S
C855 H867 0.930 . S
C856 C846 1.391 1_565 S
C856 C855 1.359 . S
C856 H868 0.929 . S
H857 C853 0.930 . S
H858 C847 0.930 . S
H859 C876 0.930 . S
H860 C848 0.930 . S
H861 C849 0.930 . S
H862 C843 0.929 . S
H863 C881 0.930 . S
H864 C872 0.930 . S
H865 C873 0.930 . S
H866 C897 0.929 . S
H867 C855 0.930 . S
H868 C856 0.929 . S
H869 C898 0.930 . S
H870 C879 0.930 . S
N871 Gd840 2.661 . S
N871 C875 1.350 . S
N871 C876 1.307 1_545 S
C872 H864 0.930 . S
C872 C873 1.355 . S
C872 C874 1.412 1_565 S
C873 H865 0.930 . S
C873 C872 1.355 . S
C873 C876 1.402 . S
C874 C872 1.412 1_545 S
C874 C875 1.417 . S
C874 C898 1.431 . S
C875 N871 1.350 . S
C875 C874 1.417 . S
C875 C878 1.426 . S
C876 H859 0.930 . S
C876 N871 1.307 1_565 S
C876 C873 1.402 . S
N877 Gd840 2.601 . S
N877 C878 1.359 . S
N877 C881 1.334 . S
C878 C875 1.426 . S
C878 N877 1.359 . S
C878 C882 1.413 . S
C879 H870 0.930 . S
C879 C880 1.359 . S
C879 C881 1.394 . S
C880 C879 1.359 . S
C880 C882 1.391 . S
C880 H883 0.929 . S
C881 H863 0.930 . S
C881 N877 1.334 . S
C881 C879 1.394 . S
C882 C878 1.413 . S
C882 C880 1.391 . S
C882 C897 1.437 . S
H883 C880 0.929 . S
O884 Gd840 2.545 . S
O884 C899 1.258 . S
O885 Gd840 2.606 1_554 S
O885 Gd841 2.362 . S
O885 C896 1.284 . S
O886 Gd841 2.324 . S
O886 C906 1.254 . S
O887 Gd840 2.429 1_554 S
O887 C906 1.268 . S
O888 Gd840 2.545 . S
O888 C896 1.250 1_556 S
O889 Gd840 2.412 . S
O889 C899 1.252 . S
O890 Gd841 2.545 1_565 S
O890 C908 1.258 1_565 S
O891 Gd840 2.362 1_554 S
O891 Gd841 2.606 . S
O891 C907 1.284 . S
O892 Gd840 2.324 . S
O892 C915 1.254 1_545 S
O893 Gd841 2.429 1_565 S
O893 C915 1.268 1_554 S
O894 Gd841 2.545 . S
O894 C907 1.250 . S
O895 Gd841 2.412 . S
O895 C908 1.252 . S
C896 O885 1.284 . S
C896 O888 1.250 1_554 S
C897 H866 0.929 . S
C897 C882 1.437 . S
C897 C898 1.317 . S
C898 H869 0.930 . S
C898 C874 1.431 . S
C898 C897 1.317 . S
C899 Gd840 2.828 . S
C899 O884 1.258 . S
C899 O889 1.252 . S
C899 C900 1.497 . S
C900 C899 1.497 . S
C900 C901 1.395 . S
C900 C902 1.380 . S
C901 C900 1.395 . S
C901 C904 1.398 . S
C901 H916 0.930 . S
C902 C900 1.380 . S
C902 C903 1.391 . S
C902 H917 0.930 . S
C903 C902 1.391 . S
C903 C905 1.387 . S
C904 C901 1.398 . S
C904 C905 1.380 . S
C904 H918 0.930 . S
C905 C903 1.387 . S
C905 C904 1.380 . S
C905 H919 0.930 . S
C906 O886 1.254 . S
C906 O887 1.268 . S
C907 O891 1.284 . S
C907 O894 1.250 . S
C908 Gd841 2.828 . S
C908 O890 1.258 1_545 S
C908 O895 1.252 . S
C908 C909 1.510 . S
C909 C908 1.510 . S
C909 C910 1.359 1_545 S
C909 C911 1.404 . S
C910 C909 1.359 1_565 S
C910 C913 1.398 . S
C910 H920 0.930 . S
C911 C909 1.404 . S
C911 C912 1.391 . S
C911 H921 0.930 . S
C912 C911 1.391 . S
C912 C914 1.387 1_545 S
C913 C910 1.398 . S
C913 C914 1.380 . S
C913 H922 0.930 . S
C914 C912 1.387 1_565 S
C914 C913 1.380 . S
C914 H923 0.930 . S
C915 O892 1.254 1_565 S
C915 O893 1.268 1_556 S
H916 C901 0.930 . S
H917 C902 0.930 . S
H918 C904 0.930 . S
H919 C905 0.930 . S
H920 C910 0.930 . S
H921 C911 0.930 . S
H922 C913 0.930 . S
H923 C914 0.930 . S
Gd924 N955 2.661 . S
Gd924 N961 2.601 . S
Gd924 O968 2.545 . S
Gd924 O969 2.606 . S
Gd924 O971 2.429 . S
Gd924 O972 2.545 . S
Gd924 O973 2.412 . S
Gd924 O975 2.362 . S
Gd924 O976 2.324 . S
Gd924 C983 2.828 . S
Gd925 N934 2.661 . S
Gd925 N938 2.601 . S
Gd925 O969 2.362 . S
Gd925 O970 2.324 . S
Gd925 O974 2.545 . S
Gd925 O975 2.606 . S
Gd925 O977 2.429 . S
Gd925 O978 2.545 . S
Gd925 O979 2.412 . S
Gd925 C992 2.828 . S
C926 C929 1.417 . S
C926 C931 1.431 . S
C926 C932 1.412 . S
C927 C930 1.437 . S
C927 C931 1.317 . S
C927 H946 0.929 . S
C928 C929 1.426 . S
C928 C930 1.413 . S
C928 N938 1.359 . S
C929 C926 1.417 . S
C929 C928 1.426 . S
C929 N934 1.350 . S
C930 C927 1.437 . S
C930 C928 1.413 . S
C930 C940 1.391 . S
C931 C926 1.431 . S
C931 C927 1.317 . S
C931 H942 0.930 . S
C932 C926 1.412 . S
C932 C933 1.355 . S
C932 H944 0.930 . S
C933 C932 1.355 . S
C933 C935 1.402 . S
C933 H945 0.930 . S
N934 Gd925 2.661 . S
N934 C929 1.350 . S
N934 C935 1.307 . S
C935 C933 1.402 . S
C935 N934 1.307 . S
C935 H936 0.930 . S
H936 C935 0.930 . S
C937 N938 1.334 . S
C937 C939 1.394 . S
C937 H941 0.930 . S
N938 Gd925 2.601 . S
N938 C928 1.359 . S
N938 C937 1.334 . S
C939 C937 1.394 . S
C939 C940 1.359 . S
C939 H951 0.930 . S
C940 C930 1.391 . S
C940 C939 1.359 . S
C940 H952 0.929 . S
H941 C937 0.930 . S
H942 C931 0.930 . S
H943 C960 0.930 . S
H944 C932 0.930 . S
H945 C933 0.930 . S
H946 C927 0.929 . S
H947 C965 0.930 . S
H948 C956 0.930 . S
H949 C957 0.930 . S
H950 C981 0.929 . S
H951 C939 0.930 . S
H952 C940 0.929 . S
H953 C982 0.930 . S
H954 C963 0.930 . S
N955 Gd924 2.661 . S
N955 C959 1.350 . S
N955 C960 1.307 . S
C956 H948 0.930 . S
C956 C957 1.355 . S
C956 C958 1.412 . S
C957 H949 0.930 . S
C957 C956 1.355 . S
C957 C960 1.402 . S
C958 C956 1.412 . S
C958 C959 1.417 . S
C958 C982 1.431 . S
C959 N955 1.350 . S
C959 C958 1.417 . S
C959 C962 1.426 . S
C960 H943 0.930 . S
C960 N955 1.307 . S
C960 C957 1.402 . S
N961 Gd924 2.601 . S
N961 C962 1.359 . S
N961 C965 1.334 . S
C962 C959 1.426 . S
C962 N961 1.359 . S
C962 C966 1.413 . S
C963 H954 0.930 . S
C963 C964 1.359 . S
C963 C965 1.394 . S
C964 C963 1.359 . S
C964 C966 1.391 . S
C964 H967 0.929 . S
C965 H947 0.930 . S
C965 N961 1.334 . S
C965 C963 1.394 . S
C966 C962 1.413 . S
C966 C964 1.391 . S
C966 C981 1.437 . S
H967 C964 0.929 . S
O968 Gd924 2.545 . S
O968 C983 1.258 . S
O969 Gd924 2.606 . S
O969 Gd925 2.362 . S
O969 C980 1.284 . S
O970 Gd925 2.324 . S
O970 C990 1.254 . S
O971 Gd924 2.429 . S
O971 C990 1.268 . S
O972 Gd924 2.545 . S
O972 C980 1.250 . S
O973 Gd924 2.412 . S
O973 C983 1.252 . S
O974 Gd925 2.545 . S
O974 C992 1.258 . S
O975 Gd924 2.362 . S
O975 Gd925 2.606 . S
O975 C991 1.284 . S
O976 Gd924 2.324 . S
O976 C999 1.254 . S
O977 Gd925 2.429 . S
O977 C999 1.268 . S
O978 Gd925 2.545 . S
O978 C991 1.250 . S
O979 Gd925 2.412 . S
O979 C992 1.252 . S
C980 O969 1.284 . S
C980 O972 1.250 . S
C981 H950 0.929 . S
C981 C966 1.437 . S
C981 C982 1.317 . S
C982 H953 0.930 . S
C982 C958 1.431 . S
C982 C981 1.317 . S
C983 Gd924 2.828 . S
C983 O968 1.258 . S
C983 O973 1.252 . S
C983 C984 1.497 . S
C984 C983 1.497 . S
C984 C985 1.395 . S
C984 C986 1.380 . S
C985 C984 1.395 . S
C985 C988 1.398 . S
C985 H1000 0.930 . S
C986 C984 1.380 . S
C986 C987 1.391 . S
C986 H1001 0.930 . S
C987 C986 1.391 . S
C987 C989 1.387 . S
C988 C985 1.398 . S
C988 C989 1.380 . S
C988 H1002 0.930 . S
C989 C987 1.387 . S
C989 C988 1.380 . S
C989 H1003 0.930 . S
C990 O970 1.254 . S
C990 O971 1.268 . S
C991 O975 1.284 . S
C991 O978 1.250 . S
C992 Gd925 2.828 . S
C992 O974 1.258 . S
C992 O979 1.252 . S
C992 C993 1.497 . S
C993 C992 1.497 . S
C993 C994 1.395 . S
C993 C995 1.380 . S
C994 C993 1.395 . S
C994 C997 1.398 . S
C994 H1004 0.930 . S
C995 C993 1.380 . S
C995 C996 1.391 . S
C995 H1005 0.930 . S
C996 C995 1.391 . S
C996 C998 1.387 . S
C997 C994 1.398 . S
C997 C998 1.380 . S
C997 H1006 0.930 . S
C998 C996 1.387 . S
C998 C997 1.380 . S
C998 H1007 0.930 . S
C999 O976 1.254 . S
C999 O977 1.268 . S
H1000 C985 0.930 . S
H1001 C986 0.930 . S
H1002 C988 0.930 . S
H1003 C989 0.930 . S
H1004 C994 0.930 . S
H1005 C995 0.930 . S
H1006 C997 0.930 . S
H1007 C998 0.930 . S
Gd1008 N1039 2.661 1_554 S
Gd1008 N1045 2.601 1_554 S
Gd1008 O1052 2.545 . S
Gd1008 O1053 2.606 . S
Gd1008 O1055 2.429 . S
Gd1008 O1056 2.545 . S
Gd1008 O1057 2.412 . S
Gd1008 O1059 2.362 1_554 S
Gd1008 O1060 2.324 . S
Gd1008 C1067 2.828 . S
Gd1009 N1018 2.661 . S
Gd1009 N1022 2.601 . S
Gd1009 O1053 2.362 . S
Gd1009 O1054 2.324 . S
Gd1009 O1058 2.545 . S
Gd1009 O1059 2.606 1_554 S
Gd1009 O1061 2.429 . S
Gd1009 O1062 2.545 1_554 S
Gd1009 O1063 2.412 . S
Gd1009 C1076 2.828 . S
C1010 C1013 1.417 . S
C1010 C1015 1.431 . S
C1010 C1016 1.412 . S
C1011 C1014 1.437 . S
C1011 C1015 1.317 . S
C1011 H1030 0.929 . S
C1012 C1013 1.426 . S
C1012 C1014 1.413 . S
C1012 N1022 1.359 . S
C1013 C1010 1.417 . S
C1013 C1012 1.426 . S
C1013 N1018 1.350 . S
C1014 C1011 1.437 . S
C1014 C1012 1.413 . S
C1014 C1024 1.391 . S
C1015 C1010 1.431 . S
C1015 C1011 1.317 . S
C1015 H1026 0.930 . S
C1016 C1010 1.412 . S
C1016 C1017 1.355 . S
C1016 H1028 0.930 . S
C1017 C1016 1.355 . S
C1017 C1019 1.402 . S
C1017 H1029 0.930 . S
N1018 Gd1009 2.661 . S
N1018 C1013 1.350 . S
N1018 C1019 1.307 . S
C1019 C1017 1.402 . S
C1019 N1018 1.307 . S
C1019 H1020 0.930 . S
H1020 C1019 0.930 . S
C1021 N1022 1.334 . S
C1021 C1023 1.394 . S
C1021 H1025 0.930 . S
N1022 Gd1009 2.601 . S
N1022 C1012 1.359 . S
N1022 C1021 1.334 . S
C1023 C1021 1.394 . S
C1023 C1024 1.359 . S
C1023 H1035 0.930 . S
C1024 C1014 1.391 . S
C1024 C1023 1.359 . S
C1024 H1036 0.929 . S
H1025 C1021 0.930 . S
H1026 C1015 0.930 . S
H1027 C1044 0.930 . S
H1028 C1016 0.930 . S
H1029 C1017 0.930 . S
H1030 C1011 0.929 . S
H1031 C1049 0.930 . S
H1032 C1040 0.930 . S
H1033 C1041 0.930 . S
H1034 C1065 0.929 . S
H1035 C1023 0.930 . S
H1036 C1024 0.929 . S
H1037 C1066 0.930 . S
H1038 C1047 0.930 . S
N1039 Gd1008 2.661 1_556 S
N1039 C1043 1.350 . S
N1039 C1044 1.307 . S
C1040 H1032 0.930 . S
C1040 C1041 1.355 . S
C1040 C1042 1.412 . S
C1041 H1033 0.930 . S
C1041 C1040 1.355 . S
C1041 C1044 1.402 . S
C1042 C1040 1.412 . S
C1042 C1043 1.417 . S
C1042 C1066 1.431 . S
C1043 N1039 1.350 . S
C1043 C1042 1.417 . S
C1043 C1046 1.426 . S
C1044 H1027 0.930 . S
C1044 N1039 1.307 . S
C1044 C1041 1.402 . S
N1045 Gd1008 2.601 1_556 S
N1045 C1046 1.359 . S
N1045 C1049 1.334 . S
C1046 C1043 1.426 . S
C1046 N1045 1.359 . S
C1046 C1050 1.413 . S
C1047 H1038 0.930 . S
C1047 C1048 1.359 . S
C1047 C1049 1.394 . S
C1048 C1047 1.359 . S
C1048 C1050 1.391 . S
C1048 H1051 0.929 . S
C1049 H1031 0.930 . S
C1049 N1045 1.334 . S
C1049 C1047 1.394 . S
C1050 C1046 1.413 . S
C1050 C1048 1.391 . S
C1050 C1065 1.437 . S
H1051 C1048 0.929 . S
O1052 Gd1008 2.545 . S
O1052 C1067 1.258 . S
O1053 Gd1008 2.606 . S
O1053 Gd1009 2.362 . S
O1053 C1064 1.284 . S
O1054 Gd1009 2.324 . S
O1054 C1074 1.254 . S
O1055 Gd1008 2.429 . S
O1055 C1074 1.268 . S
O1056 Gd1008 2.545 . S
O1056 C1064 1.250 . S
O1057 Gd1008 2.412 . S
O1057 C1067 1.252 . S
O1058 Gd1009 2.545 . S
O1058 C1076 1.258 . S
O1059 Gd1008 2.362 1_556 S
O1059 Gd1009 2.606 1_556 S
O1059 C1075 1.284 . S
O1060 Gd1008 2.324 . S
O1060 C1083 1.254 . S
O1061 Gd1009 2.429 . S
O1061 C1083 1.268 . S
O1062 Gd1009 2.545 1_556 S
O1062 C1075 1.250 . S
O1063 Gd1009 2.412 . S
O1063 C1076 1.252 . S
C1064 O1053 1.284 . S
C1064 O1056 1.250 . S
C1065 H1034 0.929 . S
C1065 C1050 1.437 . S
C1065 C1066 1.317 . S
C1066 H1037 0.930 . S
C1066 C1042 1.431 . S
C1066 C1065 1.317 . S
C1067 Gd1008 2.828 . S
C1067 O1052 1.258 . S
C1067 O1057 1.252 . S
C1067 C1068 1.497 . S
C1068 C1067 1.497 . S
C1068 C1069 1.395 . S
C1068 C1070 1.380 . S
C1069 C1068 1.395 . S
C1069 C1072 1.398 . S
C1069 H1084 0.916 1_554 S
C1070 C1068 1.380 . S
C1070 C1071 1.391 . S
C1070 H1085 0.930 . S
C1071 C1070 1.391 . S
C1071 C1073 1.387 . S
C1072 C1069 1.398 . S
C1072 C1073 1.380 . S
C1072 H1086 0.930 . S
C1073 C1071 1.387 . S
C1073 C1072 1.380 . S
C1073 H1087 0.930 . S
C1074 O1054 1.254 . S
C1074 O1055 1.268 . S
C1075 O1059 1.284 . S
C1075 O1062 1.250 . S
C1076 Gd1009 2.828 . S
C1076 O1058 1.258 . S
C1076 O1063 1.252 . S
C1076 C1077 1.497 . S
C1077 C1076 1.497 . S
C1077 C1078 1.395 . S
C1077 C1079 1.380 . S
C1078 C1077 1.395 . S
C1078 C1081 1.398 . S
C1078 H1088 0.930 . S
C1079 C1077 1.380 . S
C1079 C1080 1.391 1_554 S
C1079 H1089 0.930 1_554 S
C1080 C1079 1.391 1_556 S
C1080 C1082 1.387 1_556 S
C1081 C1078 1.398 . S
C1081 C1082 1.380 . S
C1081 H1090 0.930 . S
C1082 C1080 1.387 1_554 S
C1082 C1081 1.380 . S
C1082 H1091 0.930 . S
C1083 O1060 1.254 . S
C1083 O1061 1.268 . S
H1084 C1069 0.916 1_556 S
H1085 C1070 0.930 . S
H1086 C1072 0.930 . S
H1087 C1073 0.930 . S
H1088 C1078 0.930 . S
H1089 C1079 0.930 1_556 S
H1090 C1081 0.930 . S
H1091 C1082 0.930 . S
Gd1092 N1123 2.661 . S
Gd1092 N1129 2.601 . S
Gd1092 O1136 2.545 . S
Gd1092 O1137 2.606 . S
Gd1092 O1139 2.429 . S
Gd1092 O1140 2.545 . S
Gd1092 O1141 2.412 . S
Gd1092 O1143 2.362 . S
Gd1092 O1144 2.324 . S
Gd1092 C1151 2.828 . S
Gd1093 N1102 2.661 . S
Gd1093 N1106 2.601 . S
Gd1093 O1137 2.362 . S
Gd1093 O1138 2.324 . S
Gd1093 O1142 2.545 . S
Gd1093 O1143 2.606 . S
Gd1093 O1145 2.429 . S
Gd1093 O1146 2.545 . S
Gd1093 O1147 2.412 . S
Gd1093 C1160 2.828 . S
C1094 C1097 1.417 . S
C1094 C1099 1.431 . S
C1094 C1100 1.412 . S
C1095 C1098 1.437 . S
C1095 C1099 1.317 . S
C1095 H1114 0.929 . S
C1096 C1097 1.426 . S
C1096 C1098 1.413 . S
C1096 N1106 1.359 . S
C1097 C1094 1.417 . S
C1097 C1096 1.426 . S
C1097 N1102 1.350 . S
C1098 C1095 1.437 . S
C1098 C1096 1.413 . S
C1098 C1108 1.391 . S
C1099 C1094 1.431 . S
C1099 C1095 1.317 . S
C1099 H1110 0.930 . S
C1100 C1094 1.412 . S
C1100 C1101 1.355 . S
C1100 H1112 0.930 . S
C1101 C1100 1.355 . S
C1101 C1103 1.402 . S
C1101 H1113 0.930 . S
N1102 Gd1093 2.661 . S
N1102 C1097 1.350 . S
N1102 C1103 1.307 . S
C1103 C1101 1.402 . S
C1103 N1102 1.307 . S
C1103 H1104 0.930 . S
H1104 C1103 0.930 . S
C1105 N1106 1.334 . S
C1105 C1107 1.394 . S
C1105 H1109 0.930 . S
N1106 Gd1093 2.601 . S
N1106 C1096 1.359 . S
N1106 C1105 1.334 . S
C1107 C1105 1.394 . S
C1107 C1108 1.359 . S
C1107 H1119 0.930 . S
C1108 C1098 1.391 . S
C1108 C1107 1.359 . S
C1108 H1120 0.929 . S
H1109 C1105 0.930 . S
H1110 C1099 0.930 . S
H1111 C1128 0.930 . S
H1112 C1100 0.930 . S
H1113 C1101 0.930 . S
H1114 C1095 0.929 . S
H1115 C1133 0.930 . S
H1116 C1124 0.930 . S
H1117 C1125 0.930 . S
H1118 C1149 0.929 . S
H1119 C1107 0.930 . S
H1120 C1108 0.929 . S
H1121 C1150 0.930 . S
H1122 C1131 0.930 . S
N1123 Gd1092 2.661 . S
N1123 C1127 1.350 . S
N1123 C1128 1.307 . S
C1124 H1116 0.930 . S
C1124 C1125 1.355 . S
C1124 C1126 1.412 . S
C1125 H1117 0.930 . S
C1125 C1124 1.355 . S
C1125 C1128 1.402 . S
C1126 C1124 1.412 . S
C1126 C1127 1.417 . S
C1126 C1150 1.431 . S
C1127 N1123 1.350 . S
C1127 C1126 1.417 . S
C1127 C1130 1.426 . S
C1128 H1111 0.930 . S
C1128 N1123 1.307 . S
C1128 C1125 1.402 . S
N1129 Gd1092 2.601 . S
N1129 C1130 1.359 . S
N1129 C1133 1.334 . S
C1130 C1127 1.426 . S
C1130 N1129 1.359 . S
C1130 C1134 1.413 . S
C1131 H1122 0.930 . S
C1131 C1132 1.359 . S
C1131 C1133 1.394 . S
C1132 C1131 1.359 . S
C1132 C1134 1.391 . S
C1132 H1135 0.929 . S
C1133 H1115 0.930 . S
C1133 N1129 1.334 . S
C1133 C1131 1.394 . S
C1134 C1130 1.413 . S
C1134 C1132 1.391 . S
C1134 C1149 1.437 . S
H1135 C1132 0.929 . S
O1136 Gd1092 2.545 . S
O1136 C1151 1.258 . S
O1137 Gd1092 2.606 . S
O1137 Gd1093 2.362 . S
O1137 C1148 1.284 . S
O1138 Gd1093 2.324 . S
O1138 C1158 1.254 . S
O1139 Gd1092 2.429 . S
O1139 C1158 1.268 . S
O1140 Gd1092 2.545 . S
O1140 C1148 1.250 . S
O1141 Gd1092 2.412 . S
O1141 C1151 1.252 . S
O1142 Gd1093 2.545 . S
O1142 C1160 1.258 . S
O1143 Gd1092 2.362 . S
O1143 Gd1093 2.606 . S
O1143 C1159 1.284 . S
O1144 Gd1092 2.324 . S
O1144 C1167 1.254 . S
O1145 Gd1093 2.429 . S
O1145 C1167 1.268 . S
O1146 Gd1093 2.545 . S
O1146 C1159 1.250 . S
O1147 Gd1093 2.412 . S
O1147 C1160 1.252 . S
C1148 O1137 1.284 . S
C1148 O1140 1.250 . S
C1149 H1118 0.929 . S
C1149 C1134 1.437 . S
C1149 C1150 1.317 . S
C1150 H1121 0.930 . S
C1150 C1126 1.431 . S
C1150 C1149 1.317 . S
C1151 Gd1092 2.828 . S
C1151 O1136 1.258 . S
C1151 O1141 1.252 . S
C1151 C1152 1.497 . S
C1152 C1151 1.497 . S
C1152 C1153 1.395 . S
C1152 C1154 1.380 . S
C1153 C1152 1.395 . S
C1153 C1156 1.398 . S
C1153 H1168 0.930 . S
C1154 C1152 1.380 . S
C1154 C1155 1.391 . S
C1154 H1169 0.930 . S
C1155 C1154 1.391 . S
C1155 C1157 1.387 . S
C1156 C1153 1.398 . S
C1156 C1157 1.380 . S
C1156 H1170 0.930 . S
C1157 C1155 1.387 . S
C1157 C1156 1.380 . S
C1157 H1171 0.930 . S
C1158 O1138 1.254 . S
C1158 O1139 1.268 . S
C1159 O1143 1.284 . S
C1159 O1146 1.250 . S
C1160 Gd1093 2.828 . S
C1160 O1142 1.258 . S
C1160 O1147 1.252 . S
C1160 C1161 1.497 . S
C1161 C1160 1.497 . S
C1161 C1162 1.395 . S
C1161 C1163 1.380 . S
C1162 C1161 1.395 . S
C1162 C1165 1.398 . S
C1162 H1172 0.930 . S
C1163 C1161 1.380 . S
C1163 C1164 1.391 . S
C1163 H1173 0.930 . S
C1164 C1163 1.391 . S
C1164 C1166 1.387 . S
C1165 C1162 1.398 . S
C1165 C1166 1.380 . S
C1165 H1174 0.930 . S
C1166 C1164 1.387 . S
C1166 C1165 1.380 . S
C1166 H1175 0.930 . S
C1167 O1144 1.254 . S
C1167 O1145 1.268 . S
H1168 C1153 0.930 . S
H1169 C1154 0.930 . S
H1170 C1156 0.930 . S
H1171 C1157 0.930 . S
H1172 C1162 0.930 . S
H1173 C1163 0.930 . S
H1174 C1165 0.930 . S
H1175 C1166 0.930 . S
Gd1176 N1207 2.661 . S
Gd1176 N1213 2.601 . S
Gd1176 O1220 2.545 . S
Gd1176 O1221 2.606 . S
Gd1176 O1223 2.429 . S
Gd1176 O1224 2.545 . S
Gd1176 O1225 2.412 . S
Gd1176 O1227 2.362 . S
Gd1176 O1228 2.324 . S
Gd1176 C1235 2.828 . S
Gd1177 N1186 2.661 . S
Gd1177 N1190 2.601 . S
Gd1177 O1221 2.362 . S
Gd1177 O1222 2.324 . S
Gd1177 O1226 2.545 . S
Gd1177 O1227 2.606 . S
Gd1177 O1229 2.429 . S
Gd1177 O1230 2.545 . S
Gd1177 O1231 2.412 . S
Gd1177 C1244 2.828 . S
C1178 C1181 1.417 . S
C1178 C1183 1.431 . S
C1178 C1184 1.412 . S
C1179 C1182 1.437 . S
C1179 C1183 1.317 . S
C1179 H1198 0.929 . S
C1180 C1181 1.426 . S
C1180 C1182 1.413 . S
C1180 N1190 1.359 . S
C1181 C1178 1.417 . S
C1181 C1180 1.426 . S
C1181 N1186 1.350 . S
C1182 C1179 1.437 . S
C1182 C1180 1.413 . S
C1182 C1192 1.391 . S
C1183 C1178 1.431 . S
C1183 C1179 1.317 . S
C1183 H1194 0.930 . S
C1184 C1178 1.412 . S
C1184 C1185 1.355 . S
C1184 H1196 0.930 . S
C1185 C1184 1.355 . S
C1185 C1187 1.402 . S
C1185 H1197 0.930 . S
N1186 Gd1177 2.661 . S
N1186 C1181 1.350 . S
N1186 C1187 1.307 . S
C1187 C1185 1.402 . S
C1187 N1186 1.307 . S
C1187 H1188 0.930 . S
H1188 C1187 0.930 . S
C1189 N1190 1.334 . S
C1189 C1191 1.394 . S
C1189 H1193 0.930 . S
N1190 Gd1177 2.601 . S
N1190 C1180 1.359 . S
N1190 C1189 1.334 . S
C1191 C1189 1.394 . S
C1191 C1192 1.359 . S
C1191 H1203 0.930 . S
C1192 C1182 1.391 . S
C1192 C1191 1.359 . S
C1192 H1204 0.929 . S
H1193 C1189 0.930 . S
H1194 C1183 0.930 . S
H1195 C1212 0.930 . S
H1196 C1184 0.930 . S
H1197 C1185 0.930 . S
H1198 C1179 0.929 . S
H1199 C1217 0.930 . S
H1200 C1208 0.930 . S
H1201 C1209 0.930 . S
H1202 C1233 0.929 . S
H1203 C1191 0.930 . S
H1204 C1192 0.929 . S
H1205 C1234 0.930 . S
H1206 C1215 0.930 . S
N1207 Gd1176 2.661 . S
N1207 C1211 1.338 1_455 S
N1207 C1212 1.307 . S
C1208 H1200 0.930 . S
C1208 C1209 1.355 . S
C1208 C1210 1.412 . S
C1209 H1201 0.930 . S
C1209 C1208 1.355 . S
C1209 C1212 1.402 1_655 S
C1210 C1208 1.412 . S
C1210 C1211 1.427 . S
C1210 C1234 1.431 . S
C1211 N1207 1.338 1_655 S
C1211 C1210 1.427 . S
C1211 C1214 1.429 1_655 S
C1212 H1195 0.930 . S
C1212 N1207 1.307 . S
C1212 C1209 1.402 1_455 S
N1213 Gd1176 2.601 . S
N1213 C1214 1.359 . S
N1213 C1217 1.334 . S
C1214 C1211 1.429 1_455 S
C1214 N1213 1.359 . S
C1214 C1218 1.413 1_455 S
C1215 H1206 0.930 . S
C1215 C1216 1.359 1_455 S
C1215 C1217 1.394 . S
C1216 C1215 1.359 1_655 S
C1216 C1218 1.391 . S
C1216 H1219 0.929 . S
C1217 H1199 0.930 . S
C1217 N1213 1.334 . S
C1217 C1215 1.394 . S
C1218 C1214 1.413 1_655 S
C1218 C1216 1.391 . S
C1218 C1233 1.437 . S
H1219 C1216 0.929 . S
O1220 Gd1176 2.545 . S
O1220 C1235 1.258 . S
O1221 Gd1176 2.606 . S
O1221 Gd1177 2.362 . S
O1221 C1232 1.284 . S
O1222 Gd1177 2.324 . S
O1222 C1242 1.254 . S
O1223 Gd1176 2.429 . S
O1223 C1242 1.268 . S
O1224 Gd1176 2.545 . S
O1224 C1232 1.250 . S
O1225 Gd1176 2.412 . S
O1225 C1235 1.252 . S
O1226 Gd1177 2.545 . S
O1226 C1244 1.258 . S
O1227 Gd1176 2.362 . S
O1227 Gd1177 2.606 . S
O1227 C1243 1.284 . S
O1228 Gd1176 2.324 . S
O1228 C1251 1.254 . S
O1229 Gd1177 2.429 . S
O1229 C1251 1.268 . S
O1230 Gd1177 2.545 . S
O1230 C1243 1.250 . S
O1231 Gd1177 2.412 . S
O1231 C1244 1.252 . S
C1232 O1221 1.284 . S
C1232 O1224 1.250 . S
C1233 H1202 0.929 . S
C1233 C1218 1.437 . S
C1233 C1234 1.317 . S
C1234 H1205 0.930 . S
C1234 C1210 1.431 . S
C1234 C1233 1.317 . S
C1235 Gd1176 2.828 . S
C1235 O1220 1.258 . S
C1235 O1225 1.252 . S
C1235 C1236 1.497 . S
C1236 C1235 1.497 . S
C1236 C1237 1.395 . S
C1236 C1238 1.380 . S
C1237 C1236 1.395 . S
C1237 C1240 1.398 . S
C1237 H1252 0.930 . S
C1238 C1236 1.380 . S
C1238 C1239 1.391 . S
C1238 H1253 0.930 . S
C1239 C1238 1.391 . S
C1239 C1241 1.387 . S
C1240 C1237 1.398 . S
C1240 C1241 1.380 . S
C1240 H1254 0.930 . S
C1241 C1239 1.387 . S
C1241 C1240 1.380 . S
C1241 H1255 0.930 . S
C1242 O1222 1.254 . S
C1242 O1223 1.268 . S
C1243 O1227 1.284 . S
C1243 O1230 1.250 . S
C1244 Gd1177 2.828 . S
C1244 O1226 1.258 . S
C1244 O1231 1.252 . S
C1244 C1245 1.497 . S
C1245 C1244 1.497 . S
C1245 C1246 1.395 . S
C1245 C1247 1.380 . S
C1246 C1245 1.395 . S
C1246 C1249 1.398 . S
C1246 H1256 0.930 . S
C1247 C1245 1.380 . S
C1247 C1248 1.391 . S
C1247 H1257 0.930 . S
C1248 C1247 1.391 . S
C1248 C1250 1.387 . S
C1249 C1246 1.398 . S
C1249 C1250 1.380 . S
C1249 H1258 0.930 . S
C1250 C1248 1.387 . S
C1250 C1249 1.380 . S
C1250 H1259 0.930 . S
C1251 O1228 1.254 . S
C1251 O1229 1.268 . S
H1252 C1237 0.930 . S
H1253 C1238 0.930 . S
H1254 C1240 0.930 . S
H1255 C1241 0.930 . S
H1256 C1246 0.930 . S
H1257 C1247 0.930 . S
H1258 C1249 0.930 . S
H1259 C1250 0.930 . S
Gd1260 N1291 2.661 . S
Gd1260 N1297 2.601 . S
Gd1260 O1304 2.545 . S
Gd1260 O1305 2.606 . S
Gd1260 O1307 2.429 . S
Gd1260 O1308 2.545 . S
Gd1260 O1309 2.412 . S
Gd1260 O1311 2.362 . S
Gd1260 O1312 2.324 . S
Gd1260 C1319 2.828 . S
Gd1261 N1270 2.661 . S
Gd1261 N1274 2.601 . S
Gd1261 O1305 2.362 . S
Gd1261 O1306 2.324 . S
Gd1261 O1310 2.545 . S
Gd1261 O1311 2.606 . S
Gd1261 O1313 2.429 . S
Gd1261 O1314 2.545 . S
Gd1261 O1315 2.412 . S
Gd1261 C1328 2.828 . S
C1262 C1265 1.417 . S
C1262 C1267 1.431 . S
C1262 C1268 1.412 . S
C1263 C1266 1.437 . S
C1263 C1267 1.317 . S
C1263 H1282 0.929 . S
C1264 C1265 1.426 . S
C1264 C1266 1.413 . S
C1264 N1274 1.359 . S
C1265 C1262 1.417 . S
C1265 C1264 1.426 . S
C1265 N1270 1.350 . S
C1266 C1263 1.437 . S
C1266 C1264 1.413 . S
C1266 C1276 1.391 . S
C1267 C1262 1.431 . S
C1267 C1263 1.317 . S
C1267 H1278 0.930 . S
C1268 C1262 1.412 . S
C1268 C1269 1.355 . S
C1268 H1280 0.930 . S
C1269 C1268 1.355 . S
C1269 C1271 1.402 . S
C1269 H1281 0.930 . S
N1270 Gd1261 2.661 . S
N1270 C1265 1.350 . S
N1270 C1271 1.307 . S
C1271 C1269 1.402 . S
C1271 N1270 1.307 . S
C1271 H1272 0.930 . S
H1272 C1271 0.930 . S
C1273 N1274 1.334 . S
C1273 C1275 1.394 . S
C1273 H1277 0.930 . S
N1274 Gd1261 2.601 . S
N1274 C1264 1.359 . S
N1274 C1273 1.334 . S
C1275 C1273 1.394 . S
C1275 C1276 1.359 . S
C1275 H1287 0.930 . S
C1276 C1266 1.391 . S
C1276 C1275 1.359 . S
C1276 H1288 0.929 . S
H1277 C1273 0.930 . S
H1278 C1267 0.930 . S
H1279 C1296 0.930 . S
H1280 C1268 0.930 . S
H1281 C1269 0.930 . S
H1282 C1263 0.929 . S
H1283 C1301 0.930 . S
H1284 C1292 0.930 . S
H1285 C1293 0.930 . S
H1286 C1317 0.929 . S
H1287 C1275 0.930 . S
H1288 C1276 0.929 . S
H1289 C1318 0.930 . S
H1290 C1299 0.930 . S
N1291 Gd1260 2.661 . S
N1291 C1295 1.350 . S
N1291 C1296 1.307 . S
C1292 H1284 0.930 . S
C1292 C1293 1.355 . S
C1292 C1294 1.412 . S
C1293 H1285 0.930 . S
C1293 C1292 1.355 . S
C1293 C1296 1.402 . S
C1294 C1292 1.412 . S
C1294 C1295 1.417 . S
C1294 C1318 1.431 . S
C1295 N1291 1.350 . S
C1295 C1294 1.417 . S
C1295 C1298 1.426 . S
C1296 H1279 0.930 . S
C1296 N1291 1.307 . S
C1296 C1293 1.402 . S
N1297 Gd1260 2.601 . S
N1297 C1298 1.359 . S
N1297 C1301 1.334 . S
C1298 C1295 1.426 . S
C1298 N1297 1.359 . S
C1298 C1302 1.413 . S
C1299 H1290 0.930 . S
C1299 C1300 1.359 . S
C1299 C1301 1.394 . S
C1300 C1299 1.359 . S
C1300 C1302 1.391 . S
C1300 H1303 0.929 . S
C1301 H1283 0.930 . S
C1301 N1297 1.334 . S
C1301 C1299 1.394 . S
C1302 C1298 1.413 . S
C1302 C1300 1.391 . S
C1302 C1317 1.437 . S
H1303 C1300 0.929 . S
O1304 Gd1260 2.545 . S
O1304 C1319 1.258 . S
O1305 Gd1260 2.606 . S
O1305 Gd1261 2.362 . S
O1305 C1316 1.284 . S
O1306 Gd1261 2.324 . S
O1306 C1326 1.254 . S
O1307 Gd1260 2.429 . S
O1307 C1326 1.268 . S
O1308 Gd1260 2.545 . S
O1308 C1316 1.250 . S
O1309 Gd1260 2.412 . S
O1309 C1319 1.252 . S
O1310 Gd1261 2.545 . S
O1310 C1328 1.258 . S
O1311 Gd1260 2.362 . S
O1311 Gd1261 2.606 . S
O1311 C1327 1.284 . S
O1312 Gd1260 2.324 . S
O1312 C1335 1.254 . S
O1313 Gd1261 2.429 . S
O1313 C1335 1.268 . S
O1314 Gd1261 2.545 . S
O1314 C1327 1.250 . S
O1315 Gd1261 2.412 . S
O1315 C1328 1.252 . S
C1316 O1305 1.284 . S
C1316 O1308 1.250 . S
C1317 H1286 0.929 . S
C1317 C1302 1.437 . S
C1317 C1318 1.317 . S
C1318 H1289 0.930 . S
C1318 C1294 1.431 . S
C1318 C1317 1.317 . S
C1319 Gd1260 2.828 . S
C1319 O1304 1.258 . S
C1319 O1309 1.252 . S
C1319 C1320 1.497 . S
C1320 C1319 1.497 . S
C1320 C1321 1.395 . S
C1320 C1322 1.380 . S
C1321 C1320 1.395 . S
C1321 C1324 1.398 . S
C1321 H1336 0.930 . S
C1322 C1320 1.380 . S
C1322 C1323 1.391 . S
C1322 H1337 0.930 . S
C1323 C1322 1.391 . S
C1323 C1325 1.387 . S
C1324 C1321 1.398 . S
C1324 C1325 1.380 . S
C1324 H1338 0.930 . S
C1325 C1323 1.387 . S
C1325 C1324 1.380 . S
C1325 H1339 0.930 . S
C1326 O1306 1.254 . S
C1326 O1307 1.268 . S
C1327 O1311 1.284 . S
C1327 O1314 1.250 . S
C1328 Gd1261 2.828 . S
C1328 O1310 1.258 . S
C1328 O1315 1.252 . S
C1328 C1329 1.497 . S
C1329 C1328 1.497 . S
C1329 C1330 1.395 . S
C1329 C1331 1.380 . S
C1330 C1329 1.395 . S
C1330 C1333 1.398 . S
C1330 H1340 0.930 . S
C1331 C1329 1.380 . S
C1331 C1332 1.391 . S
C1331 H1341 0.930 . S
C1332 C1331 1.391 . S
C1332 C1334 1.387 . S
C1333 C1330 1.398 . S
C1333 C1334 1.380 . S
C1333 H1342 0.930 . S
C1334 C1332 1.387 . S
C1334 C1333 1.380 . S
C1334 H1343 0.930 . S
C1335 O1312 1.254 . S
C1335 O1313 1.268 . S
H1336 C1321 0.930 . S
H1337 C1322 0.930 . S
H1338 C1324 0.930 . S
H1339 C1325 0.930 . S
H1340 C1330 0.930 . S
H1341 C1331 0.930 . S
H1342 C1333 0.930 . S
H1343 C1334 0.930 . S
Gd1344 N1375 2.661 . S
Gd1344 N1381 2.601 . S
Gd1344 O1388 2.545 . S
Gd1344 O1389 2.606 . S
Gd1344 O1391 2.429 . S
Gd1344 O1392 2.545 . S
Gd1344 O1393 2.412 . S
Gd1344 O1395 2.362 . S
Gd1344 O1396 2.324 . S
Gd1344 C1403 2.828 . S
Gd1345 N1354 2.661 . S
Gd1345 N1358 2.601 . S
Gd1345 O1389 2.362 . S
Gd1345 O1390 2.324 . S
Gd1345 O1394 2.545 . S
Gd1345 O1395 2.606 . S
Gd1345 O1397 2.429 . S
Gd1345 O1398 2.545 . S
Gd1345 O1399 2.412 . S
Gd1345 C1412 2.828 . S
C1346 C1349 1.417 . S
C1346 C1351 1.431 . S
C1346 C1352 1.412 . S
C1347 C1350 1.437 . S
C1347 C1351 1.317 . S
C1347 H1366 0.929 . S
C1348 C1349 1.426 . S
C1348 C1350 1.413 . S
C1348 N1358 1.359 . S
C1349 C1346 1.417 . S
C1349 C1348 1.426 . S
C1349 N1354 1.350 . S
C1350 C1347 1.437 . S
C1350 C1348 1.413 . S
C1350 C1360 1.391 . S
C1351 C1346 1.431 . S
C1351 C1347 1.317 . S
C1351 H1362 0.930 . S
C1352 C1346 1.412 . S
C1352 C1353 1.355 . S
C1352 H1364 0.930 . S
C1353 C1352 1.355 . S
C1353 C1355 1.402 . S
C1353 H1365 0.930 . S
N1354 Gd1345 2.661 . S
N1354 C1349 1.350 . S
N1354 C1355 1.307 . S
C1355 C1353 1.402 . S
C1355 N1354 1.307 . S
C1355 H1356 0.930 . S
H1356 C1355 0.930 . S
C1357 N1358 1.334 . S
C1357 C1359 1.394 . S
C1357 H1361 0.930 . S
N1358 Gd1345 2.601 . S
N1358 C1348 1.359 . S
N1358 C1357 1.334 . S
C1359 C1357 1.394 . S
C1359 C1360 1.359 . S
C1359 H1371 0.930 . S
C1360 C1350 1.391 . S
C1360 C1359 1.359 . S
C1360 H1372 0.929 . S
H1361 C1357 0.930 . S
H1362 C1351 0.930 . S
H1363 C1380 0.930 . S
H1364 C1352 0.930 . S
H1365 C1353 0.930 . S
H1366 C1347 0.929 . S
H1367 C1385 0.930 . S
H1368 C1376 0.930 . S
H1369 C1377 0.930 . S
H1370 C1401 0.929 . S
H1371 C1359 0.930 . S
H1372 C1360 0.929 . S
H1373 C1402 0.930 . S
H1374 C1383 0.930 . S
N1375 Gd1344 2.661 . S
N1375 C1379 1.350 . S
N1375 C1380 1.307 . S
C1376 H1368 0.930 . S
C1376 C1377 1.355 . S
C1376 C1378 1.412 . S
C1377 H1369 0.930 . S
C1377 C1376 1.355 . S
C1377 C1380 1.402 . S
C1378 C1376 1.412 . S
C1378 C1379 1.417 . S
C1378 C1402 1.431 . S
C1379 N1375 1.350 . S
C1379 C1378 1.417 . S
C1379 C1382 1.426 . S
C1380 H1363 0.930 . S
C1380 N1375 1.307 . S
C1380 C1377 1.402 . S
N1381 Gd1344 2.601 . S
N1381 C1382 1.359 . S
N1381 C1385 1.334 . S
C1382 C1379 1.426 . S
C1382 N1381 1.359 . S
C1382 C1386 1.413 . S
C1383 H1374 0.930 . S
C1383 C1384 1.359 . S
C1383 C1385 1.394 . S
C1384 C1383 1.359 . S
C1384 C1386 1.391 . S
C1384 H1387 0.929 . S
C1385 H1367 0.930 . S
C1385 N1381 1.334 . S
C1385 C1383 1.394 . S
C1386 C1382 1.413 . S
C1386 C1384 1.391 . S
C1386 C1401 1.437 . S
H1387 C1384 0.929 . S
O1388 Gd1344 2.545 . S
O1388 C1403 1.258 . S
O1389 Gd1344 2.606 . S
O1389 Gd1345 2.362 . S
O1389 C1400 1.284 . S
O1390 Gd1345 2.324 . S
O1390 C1410 1.254 . S
O1391 Gd1344 2.429 . S
O1391 C1410 1.268 . S
O1392 Gd1344 2.545 . S
O1392 C1400 1.250 . S
O1393 Gd1344 2.412 . S
O1393 C1403 1.252 . S
O1394 Gd1345 2.545 . S
O1394 C1412 1.258 . S
O1395 Gd1344 2.362 . S
O1395 Gd1345 2.606 . S
O1395 C1411 1.284 . S
O1396 Gd1344 2.324 . S
O1396 C1419 1.254 . S
O1397 Gd1345 2.429 . S
O1397 C1419 1.268 . S
O1398 Gd1345 2.545 . S
O1398 C1411 1.250 . S
O1399 Gd1345 2.412 . S
O1399 C1412 1.252 . S
C1400 O1389 1.284 . S
C1400 O1392 1.250 . S
C1401 H1370 0.929 . S
C1401 C1386 1.437 . S
C1401 C1402 1.317 . S
C1402 H1373 0.930 . S
C1402 C1378 1.431 . S
C1402 C1401 1.317 . S
C1403 Gd1344 2.828 . S
C1403 O1388 1.258 . S
C1403 O1393 1.252 . S
C1403 C1404 1.497 . S
C1404 C1403 1.497 . S
C1404 C1405 1.395 . S
C1404 C1406 1.380 . S
C1405 C1404 1.395 . S
C1405 C1408 1.398 . S
C1405 H1420 0.930 . S
C1406 C1404 1.380 . S
C1406 C1407 1.391 . S
C1406 H1421 0.930 . S
C1407 C1406 1.391 . S
C1407 C1409 1.387 . S
C1408 C1405 1.398 . S
C1408 C1409 1.380 . S
C1408 H1422 0.930 . S
C1409 C1407 1.387 . S
C1409 C1408 1.380 . S
C1409 H1423 0.930 . S
C1410 O1390 1.254 . S
C1410 O1391 1.268 . S
C1411 O1395 1.284 . S
C1411 O1398 1.250 . S
C1412 Gd1345 2.828 . S
C1412 O1394 1.258 . S
C1412 O1399 1.252 . S
C1412 C1413 1.497 . S
C1413 C1412 1.497 . S
C1413 C1414 1.395 . S
C1413 C1415 1.380 . S
C1414 C1413 1.395 . S
C1414 C1417 1.398 . S
C1414 H1424 0.930 . S
C1415 C1413 1.380 . S
C1415 C1416 1.391 . S
C1415 H1425 0.930 . S
C1416 C1415 1.391 . S
C1416 C1418 1.387 . S
C1417 C1414 1.398 . S
C1417 C1418 1.380 . S
C1417 H1426 0.930 . S
C1418 C1416 1.387 . S
C1418 C1417 1.380 . S
C1418 H1427 0.930 . S
C1419 O1396 1.254 . S
C1419 O1397 1.268 . S
H1420 C1405 0.930 . S
H1421 C1406 0.930 . S
H1422 C1408 0.930 . S
H1423 C1409 0.930 . S
H1424 C1414 0.930 . S
H1425 C1415 0.930 . S
H1426 C1417 0.930 . S
H1427 C1418 0.930 . S
Gd1428 N1459 2.661 . S
Gd1428 N1465 2.601 . S
Gd1428 O1472 2.545 . S
Gd1428 O1473 2.606 . S
Gd1428 O1475 2.429 . S
Gd1428 O1476 2.545 . S
Gd1428 O1477 2.412 . S
Gd1428 O1479 2.362 . S
Gd1428 O1480 2.324 . S
Gd1428 C1487 2.828 . S
Gd1429 N1438 2.661 . S
Gd1429 N1442 2.601 . S
Gd1429 O1473 2.362 . S
Gd1429 O1474 2.324 . S
Gd1429 O1478 2.545 . S
Gd1429 O1479 2.606 . S
Gd1429 O1481 2.429 . S
Gd1429 O1482 2.545 . S
Gd1429 O1483 2.412 . S
Gd1429 C1496 2.828 . S
C1430 C1433 1.417 . S
C1430 C1435 1.431 . S
C1430 C1436 1.412 . S
C1431 C1434 1.437 . S
C1431 C1435 1.317 . S
C1431 H1450 0.929 . S
C1432 C1433 1.426 . S
C1432 C1434 1.413 . S
C1432 N1442 1.359 . S
C1433 C1430 1.417 . S
C1433 C1432 1.426 . S
C1433 N1438 1.350 . S
C1434 C1431 1.437 . S
C1434 C1432 1.413 . S
C1434 C1444 1.391 . S
C1435 C1430 1.431 . S
C1435 C1431 1.317 . S
C1435 H1446 0.930 . S
C1436 C1430 1.412 . S
C1436 C1437 1.355 . S
C1436 H1448 0.930 . S
C1437 C1436 1.355 . S
C1437 C1439 1.402 . S
C1437 H1449 0.930 . S
N1438 Gd1429 2.661 . S
N1438 C1433 1.350 . S
N1438 C1439 1.307 . S
C1439 C1437 1.402 . S
C1439 N1438 1.307 . S
C1439 H1440 0.930 . S
H1440 C1439 0.930 . S
C1441 N1442 1.334 . S
C1441 C1443 1.394 . S
C1441 H1445 0.930 . S
N1442 Gd1429 2.601 . S
N1442 C1432 1.359 . S
N1442 C1441 1.334 . S
C1443 C1441 1.394 . S
C1443 C1444 1.359 . S
C1443 H1455 0.930 . S
C1444 C1434 1.391 . S
C1444 C1443 1.359 . S
C1444 H1456 0.929 . S
H1445 C1441 0.930 . S
H1446 C1435 0.930 . S
H1447 C1464 0.930 . S
H1448 C1436 0.930 . S
H1449 C1437 0.930 . S
H1450 C1431 0.929 . S
H1451 C1469 0.930 . S
H1452 C1460 0.930 . S
H1453 C1461 0.930 . S
H1454 C1485 0.929 . S
H1455 C1443 0.930 . S
H1456 C1444 0.929 . S
H1457 C1486 0.930 . S
H1458 C1467 0.930 . S
N1459 Gd1428 2.661 . S
N1459 C1463 1.350 . S
N1459 C1464 1.307 . S
C1460 H1452 0.930 . S
C1460 C1461 1.355 . S
C1460 C1462 1.412 . S
C1461 H1453 0.930 . S
C1461 C1460 1.355 . S
C1461 C1464 1.402 . S
C1462 C1460 1.412 . S
C1462 C1463 1.417 . S
C1462 C1486 1.431 . S
C1463 N1459 1.350 . S
C1463 C1462 1.417 . S
C1463 C1466 1.426 . S
C1464 H1447 0.930 . S
C1464 N1459 1.307 . S
C1464 C1461 1.402 . S
N1465 Gd1428 2.601 . S
N1465 C1466 1.359 . S
N1465 C1469 1.334 . S
C1466 C1463 1.426 . S
C1466 N1465 1.359 . S
C1466 C1470 1.413 . S
C1467 H1458 0.930 . S
C1467 C1468 1.359 . S
C1467 C1469 1.394 . S
C1468 C1467 1.359 . S
C1468 C1470 1.391 . S
C1468 H1471 0.929 . S
C1469 H1451 0.930 . S
C1469 N1465 1.334 . S
C1469 C1467 1.394 . S
C1470 C1466 1.413 . S
C1470 C1468 1.391 . S
C1470 C1485 1.437 . S
H1471 C1468 0.929 . S
O1472 Gd1428 2.545 . S
O1472 C1487 1.258 . S
O1473 Gd1428 2.606 . S
O1473 Gd1429 2.362 . S
O1473 C1484 1.284 . S
O1474 Gd1429 2.324 . S
O1474 C1494 1.254 . S
O1475 Gd1428 2.429 . S
O1475 C1494 1.268 . S
O1476 Gd1428 2.545 . S
O1476 C1484 1.250 . S
O1477 Gd1428 2.412 . S
O1477 C1487 1.252 . S
O1478 Gd1429 2.545 . S
O1478 C1496 1.258 . S
O1479 Gd1428 2.362 . S
O1479 Gd1429 2.606 . S
O1479 C1495 1.284 . S
O1480 Gd1428 2.324 . S
O1480 C1503 1.254 . S
O1481 Gd1429 2.429 . S
O1481 C1503 1.268 . S
O1482 Gd1429 2.545 . S
O1482 C1495 1.250 . S
O1483 Gd1429 2.412 . S
O1483 C1496 1.252 . S
C1484 O1473 1.284 . S
C1484 O1476 1.250 . S
C1485 H1454 0.929 . S
C1485 C1470 1.437 . S
C1485 C1486 1.317 . S
C1486 H1457 0.930 . S
C1486 C1462 1.431 . S
C1486 C1485 1.317 . S
C1487 Gd1428 2.828 . S
C1487 O1472 1.258 . S
C1487 O1477 1.252 . S
C1487 C1488 1.497 . S
C1488 C1487 1.497 . S
C1488 C1489 1.395 . S
C1488 C1490 1.380 . S
C1489 C1488 1.395 . S
C1489 C1492 1.398 . S
C1489 H1504 0.930 . S
C1490 C1488 1.380 . S
C1490 C1491 1.391 . S
C1490 H1505 0.930 . S
C1491 C1490 1.391 . S
C1491 C1493 1.387 . S
C1492 C1489 1.398 . S
C1492 C1493 1.380 . S
C1492 H1506 0.930 . S
C1493 C1491 1.387 . S
C1493 C1492 1.380 . S
C1493 H1507 0.930 . S
C1494 O1474 1.254 . S
C1494 O1475 1.268 . S
C1495 O1479 1.284 . S
C1495 O1482 1.250 . S
C1496 Gd1429 2.828 . S
C1496 O1478 1.258 . S
C1496 O1483 1.252 . S
C1496 C1497 1.497 . S
C1497 C1496 1.497 . S
C1497 C1498 1.395 . S
C1497 C1499 1.380 . S
C1498 C1497 1.395 . S
C1498 C1501 1.398 . S
C1498 H1508 0.930 . S
C1499 C1497 1.380 . S
C1499 C1500 1.391 . S
C1499 H1509 0.930 . S
C1500 C1499 1.391 . S
C1500 C1502 1.387 . S
C1501 C1498 1.398 . S
C1501 C1502 1.380 . S
C1501 H1510 0.930 . S
C1502 C1500 1.387 . S
C1502 C1501 1.380 . S
C1502 H1511 0.930 . S
C1503 O1480 1.254 . S
C1503 O1481 1.268 . S
H1504 C1489 0.930 . S
H1505 C1490 0.930 . S
H1506 C1492 0.930 . S
H1507 C1493 0.930 . S
H1508 C1498 0.930 . S
H1509 C1499 0.930 . S
H1510 C1501 0.930 . S
H1511 C1502 0.930 . S
Gd1512 N1543 2.661 . S
Gd1512 N1549 2.601 . S
Gd1512 O1556 2.545 . S
Gd1512 O1557 2.606 . S
Gd1512 O1559 2.429 . S
Gd1512 O1560 2.545 . S
Gd1512 O1561 2.412 . S
Gd1512 O1563 2.362 . S
Gd1512 O1564 2.324 . S
Gd1512 C1571 2.828 . S
Gd1513 N1522 2.661 . S
Gd1513 N1526 2.601 . S
Gd1513 O1557 2.362 . S
Gd1513 O1558 2.324 . S
Gd1513 O1562 2.545 . S
Gd1513 O1563 2.606 . S
Gd1513 O1565 2.429 . S
Gd1513 O1566 2.545 . S
Gd1513 O1567 2.412 . S
Gd1513 C1580 2.828 . S
C1514 C1517 1.417 . S
C1514 C1519 1.431 . S
C1514 C1520 1.412 . S
C1515 C1518 1.437 . S
C1515 C1519 1.317 . S
C1515 H1534 0.929 . S
C1516 C1517 1.426 . S
C1516 C1518 1.413 . S
C1516 N1526 1.359 . S
C1517 C1514 1.417 . S
C1517 C1516 1.426 . S
C1517 N1522 1.350 . S
C1518 C1515 1.437 . S
C1518 C1516 1.413 . S
C1518 C1528 1.391 . S
C1519 C1514 1.431 . S
C1519 C1515 1.317 . S
C1519 H1530 0.930 . S
C1520 C1514 1.412 . S
C1520 C1521 1.355 . S
C1520 H1532 0.930 . S
C1521 C1520 1.355 . S
C1521 C1523 1.402 . S
C1521 H1533 0.930 . S
N1522 Gd1513 2.661 . S
N1522 C1517 1.350 . S
N1522 C1523 1.307 . S
C1523 C1521 1.402 . S
C1523 N1522 1.307 . S
C1523 H1524 0.930 . S
H1524 C1523 0.930 . S
C1525 N1526 1.334 . S
C1525 C1527 1.394 . S
C1525 H1529 0.930 . S
N1526 Gd1513 2.601 . S
N1526 C1516 1.359 . S
N1526 C1525 1.334 . S
C1527 C1525 1.394 . S
C1527 C1528 1.359 . S
C1527 H1539 0.930 . S
C1528 C1518 1.391 . S
C1528 C1527 1.359 . S
C1528 H1540 0.929 . S
H1529 C1525 0.930 . S
H1530 C1519 0.930 . S
H1531 C1548 0.930 . S
H1532 C1520 0.930 . S
H1533 C1521 0.930 . S
H1534 C1515 0.929 . S
H1535 C1553 0.930 . S
H1536 C1544 0.930 . S
H1537 C1545 0.930 . S
H1538 C1569 0.929 . S
H1539 C1527 0.930 . S
H1540 C1528 0.929 . S
H1541 C1570 0.930 . S
H1542 C1551 0.930 . S
N1543 Gd1512 2.661 . S
N1543 C1547 1.350 . S
N1543 C1548 1.307 . S
C1544 H1536 0.930 . S
C1544 C1545 1.355 . S
C1544 C1546 1.412 . S
C1545 H1537 0.930 . S
C1545 C1544 1.355 . S
C1545 C1548 1.402 . S
C1546 C1544 1.412 . S
C1546 C1547 1.417 . S
C1546 C1570 1.431 . S
C1547 N1543 1.350 . S
C1547 C1546 1.417 . S
C1547 C1550 1.426 . S
C1548 H1531 0.930 . S
C1548 N1543 1.307 . S
C1548 C1545 1.402 . S
N1549 Gd1512 2.601 . S
N1549 C1550 1.359 . S
N1549 C1553 1.334 . S
C1550 C1547 1.426 . S
C1550 N1549 1.359 . S
C1550 C1554 1.413 . S
C1551 H1542 0.930 . S
C1551 C1552 1.359 . S
C1551 C1553 1.394 . S
C1552 C1551 1.359 . S
C1552 C1554 1.391 . S
C1552 H1555 0.929 . S
C1553 H1535 0.930 . S
C1553 N1549 1.334 . S
C1553 C1551 1.394 . S
C1554 C1550 1.413 . S
C1554 C1552 1.391 . S
C1554 C1569 1.437 . S
H1555 C1552 0.929 . S
O1556 Gd1512 2.545 . S
O1556 C1571 1.258 . S
O1557 Gd1512 2.606 . S
O1557 Gd1513 2.362 . S
O1557 C1568 1.284 . S
O1558 Gd1513 2.324 . S
O1558 C1578 1.254 . S
O1559 Gd1512 2.429 . S
O1559 C1578 1.268 . S
O1560 Gd1512 2.545 . S
O1560 C1568 1.250 . S
O1561 Gd1512 2.412 . S
O1561 C1571 1.252 . S
O1562 Gd1513 2.545 . S
O1562 C1580 1.258 . S
O1563 Gd1512 2.362 . S
O1563 Gd1513 2.606 . S
O1563 C1579 1.284 . S
O1564 Gd1512 2.324 . S
O1564 C1587 1.254 . S
O1565 Gd1513 2.429 . S
O1565 C1587 1.268 . S
O1566 Gd1513 2.545 . S
O1566 C1579 1.250 . S
O1567 Gd1513 2.412 . S
O1567 C1580 1.252 . S
C1568 O1557 1.284 . S
C1568 O1560 1.250 . S
C1569 H1538 0.929 . S
C1569 C1554 1.437 . S
C1569 C1570 1.317 . S
C1570 H1541 0.930 . S
C1570 C1546 1.431 . S
C1570 C1569 1.317 . S
C1571 Gd1512 2.828 . S
C1571 O1556 1.258 . S
C1571 O1561 1.252 . S
C1571 C1572 1.497 . S
C1572 C1571 1.497 . S
C1572 C1573 1.395 . S
C1572 C1574 1.380 . S
C1573 C1572 1.395 . S
C1573 C1576 1.398 . S
C1573 H1588 0.930 . S
C1574 C1572 1.380 . S
C1574 C1575 1.391 . S
C1574 H1589 0.930 . S
C1575 C1574 1.391 . S
C1575 C1577 1.387 . S
C1576 C1573 1.398 . S
C1576 C1577 1.380 . S
C1576 H1590 0.930 . S
C1577 C1575 1.387 . S
C1577 C1576 1.380 . S
C1577 H1591 0.930 . S
C1578 O1558 1.254 . S
C1578 O1559 1.268 . S
C1579 O1563 1.284 . S
C1579 O1566 1.250 . S
C1580 Gd1513 2.828 . S
C1580 O1562 1.258 . S
C1580 O1567 1.252 . S
C1580 C1581 1.497 . S
C1581 C1580 1.497 . S
C1581 C1582 1.395 . S
C1581 C1583 1.380 . S
C1582 C1581 1.395 . S
C1582 C1585 1.398 . S
C1582 H1592 0.930 . S
C1583 C1581 1.380 . S
C1583 C1584 1.391 . S
C1583 H1593 0.930 . S
C1584 C1583 1.391 . S
C1584 C1586 1.387 . S
C1585 C1582 1.398 . S
C1585 C1586 1.380 . S
C1585 H1594 0.930 . S
C1586 C1584 1.387 . S
C1586 C1585 1.380 . S
C1586 H1595 0.930 . S
C1587 O1564 1.254 . S
C1587 O1565 1.268 . S
H1588 C1573 0.930 . S
H1589 C1574 0.930 . S
H1590 C1576 0.930 . S
H1591 C1577 0.930 . S
H1592 C1582 0.930 . S
H1593 C1583 0.930 . S
H1594 C1585 0.930 . S
H1595 C1586 0.930 . S
Gd1596 N1627 2.661 1_455 S
Gd1596 N1633 2.601 . S
Gd1596 O1640 2.545 . S
Gd1596 O1641 2.606 . S
Gd1596 O1643 2.429 . S
Gd1596 O1644 2.545 . S
Gd1596 O1645 2.412 1_455 S
Gd1596 O1647 2.362 . S
Gd1596 O1648 2.324 1_554 S
Gd1596 C1655 2.828 1_455 S
Gd1597 N1606 2.661 . S
Gd1597 N1610 2.601 1_554 S
Gd1597 O1641 2.362 . S
Gd1597 O1642 2.324 . S
Gd1597 O1646 2.545 1_554 S
Gd1597 O1647 2.606 . S
Gd1597 O1649 2.429 1_554 S
Gd1597 O1650 2.545 1_554 S
Gd1597 O1651 2.412 . S
Gd1597 C1664 2.828 1_554 S
C1598 C1601 1.417 . S
C1598 C1603 1.431 . S
C1598 C1604 1.412 . S
C1599 C1602 1.437 . S
C1599 C1603 1.317 1_556 S
C1599 H1618 0.929 . S
C1600 C1601 1.426 1_556 S
C1600 C1602 1.413 . S
C1600 N1610 1.359 . S
C1601 C1598 1.417 . S
C1601 C1600 1.426 1_554 S
C1601 N1606 1.350 . S
C1602 C1599 1.437 . S
C1602 C1600 1.413 . S
C1602 C1612 1.391 . S
C1603 C1598 1.431 . S
C1603 C1599 1.317 1_554 S
C1603 H1614 0.930 . S
C1604 C1598 1.412 . S
C1604 C1605 1.355 . S
C1604 H1616 0.930 . S
C1605 C1604 1.355 . S
C1605 C1607 1.402 . S
C1605 H1617 0.930 . S
N1606 Gd1597 2.661 . S
N1606 C1601 1.350 . S
N1606 C1607 1.307 . S
C1607 C1605 1.402 . S
C1607 N1606 1.307 . S
C1607 H1608 0.930 . S
H1608 C1607 0.930 . S
C1609 N1610 1.334 . S
C1609 C1611 1.394 . S
C1609 H1613 0.930 . S
N1610 Gd1597 2.601 1_556 S
N1610 C1600 1.359 . S
N1610 C1609 1.334 . S
C1611 C1609 1.394 . S
C1611 C1612 1.359 . S
C1611 H1623 0.930 . S
C1612 C1602 1.391 . S
C1612 C1611 1.359 . S
C1612 H1624 0.929 . S
H1613 C1609 0.930 . S
H1614 C1603 0.930 . S
H1615 C1632 0.911 1_455 S
H1616 C1604 0.930 . S
H1617 C1605 0.930 . S
H1618 C1599 0.929 . S
H1619 C1637 0.930 . S
H1620 C1628 0.930 . S
H1621 C1629 0.930 . S
H1622 C1653 0.929 . S
H1623 C1611 0.930 . S
H1624 C1612 0.929 . S
H1625 C1654 0.930 . S
H1626 C1635 0.930 . S
N1627 Gd1596 2.661 1_655 S
N1627 C1631 1.350 . S
N1627 C1632 1.307 1_554 S
C1628 H1620 0.930 . S
C1628 C1629 1.355 . S
C1628 C1630 1.412 1_556 S
C1629 H1621 0.930 . S
C1629 C1628 1.355 . S
C1629 C1632 1.402 . S
C1630 C1628 1.412 1_554 S
C1630 C1631 1.417 . S
C1630 C1654 1.431 . S
C1631 N1627 1.350 . S
C1631 C1630 1.417 . S
C1631 C1634 1.426 . S
C1632 H1615 0.911 1_655 S
C1632 N1627 1.307 1_556 S
C1632 C1629 1.402 . S
N1633 Gd1596 2.601 . S
N1633 C1634 1.359 1_455 S
N1633 C1637 1.334 . S
C1634 C1631 1.426 . S
C1634 N1633 1.359 1_655 S
C1634 C1638 1.413 . S
C1635 H1626 0.930 . S
C1635 C1636 1.359 1_455 S
C1635 C1637 1.394 . S
C1636 C1635 1.359 1_655 S
C1636 C1638 1.391 . S
C1636 H1639 0.929 . S
C1637 H1619 0.930 . S
C1637 N1633 1.334 . S
C1637 C1635 1.394 . S
C1638 C1634 1.413 . S
C1638 C1636 1.391 . S
C1638 C1653 1.437 . S
H1639 C1636 0.929 . S
O1640 Gd1596 2.545 . S
O1640 C1655 1.258 1_455 S
O1641 Gd1596 2.606 . S
O1641 Gd1597 2.362 . S
O1641 C1652 1.284 . S
O1642 Gd1597 2.324 . S
O1642 C1662 1.254 . S
O1643 Gd1596 2.429 . S
O1643 C1662 1.268 . S
O1644 Gd1596 2.545 . S
O1644 C1652 1.250 . S
O1645 Gd1596 2.412 1_655 S
O1645 C1655 1.252 . S
O1646 Gd1597 2.545 1_556 S
O1646 C1664 1.258 . S
O1647 Gd1596 2.362 . S
O1647 Gd1597 2.606 . S
O1647 C1663 1.284 . S
O1648 Gd1596 2.324 1_556 S
O1648 C1671 1.254 . S
O1649 Gd1597 2.429 1_556 S
O1649 C1671 1.268 . S
O1650 Gd1597 2.545 1_556 S
O1650 C1663 1.250 1_556 S
O1651 Gd1597 2.412 . S
O1651 C1664 1.252 1_554 S
C1652 O1641 1.284 . S
C1652 O1644 1.250 . S
C1653 H1622 0.929 . S
C1653 C1638 1.437 . S
C1653 C1654 1.317 . S
C1654 H1625 0.930 . S
C1654 C1630 1.431 . S
C1654 C1653 1.317 . S
C1655 Gd1596 2.828 1_655 S
C1655 O1640 1.258 1_655 S
C1655 O1645 1.252 . S
C1655 C1656 1.497 . S
C1656 C1655 1.497 . S
C1656 C1657 1.395 . S
C1656 C1658 1.380 . S
C1657 C1656 1.395 . S
C1657 C1660 1.398 . S
C1657 H1672 0.930 . S
C1658 C1656 1.380 . S
C1658 C1659 1.391 . S
C1658 H1673 0.930 . S
C1659 C1658 1.391 . S
C1659 C1661 1.387 . S
C1660 C1657 1.398 . S
C1660 C1661 1.380 . S
C1660 H1674 0.930 . S
C1661 C1659 1.387 . S
C1661 C1660 1.380 . S
C1661 H1675 0.930 . S
C1662 O1642 1.254 . S
C1662 O1643 1.268 . S
C1663 O1647 1.284 . S
C1663 O1650 1.250 1_554 S
C1664 Gd1597 2.828 1_556 S
C1664 O1646 1.258 . S
C1664 O1651 1.252 1_556 S
C1664 C1665 1.497 . S
C1665 C1664 1.497 . S
C1665 C1666 1.395 . S
C1665 C1667 1.380 . S
C1666 C1665 1.395 . S
C1666 C1669 1.398 . S
C1666 H1676 0.930 . S
C1667 C1665 1.380 . S
C1667 C1668 1.391 . S
C1667 H1677 0.930 1_556 S
C1668 C1667 1.391 . S
C1668 C1670 1.387 . S
C1669 C1666 1.398 . S
C1669 C1670 1.380 . S
C1669 H1678 0.930 . S
C1670 C1668 1.387 . S
C1670 C1669 1.380 . S
C1670 H1679 0.930 . S
C1671 O1648 1.254 . S
C1671 O1649 1.268 . S
H1672 C1657 0.930 . S
H1673 C1658 0.930 . S
H1674 C1660 0.930 . S
H1675 C1661 0.930 . S
H1676 C1666 0.930 . S
H1677 C1667 0.930 1_554 S
H1678 C1669 0.930 . S
H1679 C1670 0.930 . S
C1680 C1681 1.383 1_554 S
C1680 C1682 1.397 . S
C1680 H1696 0.935 . S
C1681 C1680 1.383 1_556 S
C1681 C1685 1.376 . S
C1682 C1680 1.397 . S
C1682 C1683 1.369 1_554 S
C1682 C1686 1.531 . S
C1683 C1682 1.369 1_556 S
C1683 C1684 1.410 . S
C1683 C1691 1.503 . S
C1684 C1683 1.410 . S
C1684 C1685 1.392 . S
C1684 C1687 1.511 . S
C1685 C1681 1.376 . S
C1685 C1684 1.392 . S
C1685 H1697 0.929 . S
C1686 C1682 1.531 . S
C1686 H1698 0.960 . S
C1686 H1699 0.962 . S
C1686 H1700 0.960 . S
C1687 C1684 1.511 . S
C1687 H1701 0.961 . S
C1687 H1702 0.961 . S
C1687 H1703 0.961 1_455 S
C1688 C1689 1.370 . S
C1688 C1690 1.363 1_554 S
C1688 H1704 0.934 . S
C1689 C1688 1.370 . S
C1689 C1693 1.408 . S
C1690 C1688 1.363 1_556 S
C1690 C1691 1.370 . S
C1690 C1694 1.524 . S
C1691 C1683 1.503 . S
C1691 C1690 1.370 . S
C1691 C1692 1.403 1_556 S
C1692 C1691 1.403 1_554 S
C1692 C1693 1.404 . S
C1692 C1695 1.539 1_455 S
C1693 C1689 1.408 . S
C1693 C1692 1.404 . S
C1693 H1705 0.930 . S
C1694 C1690 1.524 . S
C1694 H1706 0.956 . S
C1694 H1707 0.961 . S
C1694 H1708 0.961 . S
C1695 C1692 1.539 1_655 S
C1695 H1709 0.958 . S
C1695 H1710 0.961 . S
C1695 H1711 0.960 1_554 S
H1696 C1680 0.935 . S
H1697 C1685 0.929 . S
H1698 C1686 0.960 . S
H1699 C1686 0.962 . S
H1700 C1686 0.960 . S
H1701 C1687 0.961 . S
H1702 C1687 0.961 . S
H1703 C1687 0.961 1_655 S
H1704 C1688 0.934 . S
H1705 C1693 0.930 . S
H1706 C1694 0.956 . S
H1707 C1694 0.961 . S
H1708 C1694 0.961 . S
H1709 C1695 0.958 . S
H1710 C1695 0.961 . S
H1711 C1695 0.960 1_556 S
C1712 C1713 1.391 . S
C1712 C1714 1.394 . S
C1712 H1728 0.931 . S
C1713 C1712 1.391 . S
C1713 C1717 1.376 . S
C1714 C1712 1.394 . S
C1714 C1715 1.369 . S
C1714 C1718 1.531 . S
C1715 C1714 1.369 . S
C1715 C1716 1.410 . S
C1715 C1723 1.503 . S
C1716 C1715 1.410 . S
C1716 C1717 1.392 . S
C1716 C1719 1.511 . S
C1717 C1713 1.376 . S
C1717 C1716 1.392 . S
C1717 H1729 0.929 . S
C1718 C1714 1.531 . S
C1718 H1730 0.960 . S
C1718 H1731 0.962 . S
C1718 H1732 0.960 . S
C1719 C1716 1.511 . S
C1719 H1733 0.961 . S
C1719 H1734 0.961 . S
C1719 H1735 0.961 . S
C1720 C1721 1.370 . S
C1720 C1722 1.363 . S
C1720 H1736 0.931 . S
C1721 C1720 1.370 . S
C1721 C1725 1.408 . S
C1722 C1720 1.363 . S
C1722 C1723 1.370 . S
C1722 C1726 1.524 . S
C1723 C1715 1.503 . S
C1723 C1722 1.370 . S
C1723 C1724 1.403 . S
C1724 C1723 1.403 . S
C1724 C1725 1.404 . S
C1724 C1727 1.539 . S
C1725 C1721 1.408 . S
C1725 C1724 1.404 . S
C1725 H1737 0.930 . S
C1726 C1722 1.524 . S
C1726 H1738 0.956 . S
C1726 H1739 0.961 . S
C1726 H1740 0.961 . S
C1727 C1724 1.539 . S
C1727 H1741 0.958 . S
C1727 H1742 0.961 . S
C1727 H1743 0.960 . S
H1728 C1712 0.931 . S
H1729 C1717 0.929 . S
H1730 C1718 0.960 . S
H1731 C1718 0.962 . S
H1732 C1718 0.960 . S
H1733 C1719 0.961 . S
H1734 C1719 0.961 . S
H1735 C1719 0.961 . S
H1736 C1720 0.931 . S
H1737 C1725 0.930 . S
H1738 C1726 0.956 . S
H1739 C1726 0.961 . S
H1740 C1726 0.961 . S
H1741 C1727 0.958 . S
H1742 C1727 0.961 . S
H1743 C1727 0.960 . S
C1744 C1745 1.391 . S
C1744 C1746 1.394 . S
C1744 H1760 0.931 . S
C1745 C1744 1.391 . S
C1745 C1749 1.376 . S
C1746 C1744 1.394 . S
C1746 C1747 1.369 . S
C1746 C1750 1.531 . S
C1747 C1746 1.369 . S
C1747 C1748 1.410 . S
C1747 C1755 1.503 . S
C1748 C1747 1.410 . S
C1748 C1749 1.392 . S
C1748 C1751 1.511 . S
C1749 C1745 1.376 . S
C1749 C1748 1.392 . S
C1749 H1761 0.929 . S
C1750 C1746 1.531 . S
C1750 H1762 0.960 . S
C1750 H1763 0.962 . S
C1750 H1764 0.960 . S
C1751 C1748 1.511 . S
C1751 H1765 0.961 . S
C1751 H1766 0.961 . S
C1751 H1767 0.961 . S
C1752 C1753 1.370 . S
C1752 C1754 1.363 . S
C1752 H1768 0.931 . S
C1753 C1752 1.370 . S
C1753 C1757 1.408 . S
C1754 C1752 1.363 . S
C1754 C1755 1.370 . S
C1754 C1758 1.524 . S
C1755 C1747 1.503 . S
C1755 C1754 1.370 . S
C1755 C1756 1.403 . S
C1756 C1755 1.403 . S
C1756 C1757 1.404 . S
C1756 C1759 1.539 . S
C1757 C1753 1.408 . S
C1757 C1756 1.404 . S
C1757 H1769 0.930 . S
C1758 C1754 1.524 . S
C1758 H1770 0.956 . S
C1758 H1771 0.961 . S
C1758 H1772 0.961 . S
C1759 C1756 1.539 . S
C1759 H1773 0.958 . S
C1759 H1774 0.961 . S
C1759 H1775 0.960 . S
H1760 C1744 0.931 . S
H1761 C1749 0.929 . S
H1762 C1750 0.960 . S
H1763 C1750 0.962 . S
H1764 C1750 0.960 . S
H1765 C1751 0.961 . S
H1766 C1751 0.961 . S
H1767 C1751 0.961 . S
H1768 C1752 0.931 . S
H1769 C1757 0.930 . S
H1770 C1758 0.956 . S
H1771 C1758 0.961 . S
H1772 C1758 0.961 . S
H1773 C1759 0.958 . S
H1774 C1759 0.961 . S
H1775 C1759 0.960 . S
C1776 C1777 1.391 . S
C1776 C1778 1.394 . S
C1776 H1792 0.931 . S
C1777 C1776 1.391 . S
C1777 C1781 1.376 . S
C1778 C1776 1.394 . S
C1778 C1779 1.369 . S
C1778 C1782 1.531 . S
C1779 C1778 1.369 . S
C1779 C1780 1.410 . S
C1779 C1787 1.503 . S
C1780 C1779 1.410 . S
C1780 C1781 1.392 . S
C1780 C1783 1.511 . S
C1781 C1777 1.376 . S
C1781 C1780 1.392 . S
C1781 H1793 0.929 . S
C1782 C1778 1.531 . S
C1782 H1794 0.960 . S
C1782 H1795 0.962 . S
C1782 H1796 0.960 . S
C1783 C1780 1.511 . S
C1783 H1797 0.961 . S
C1783 H1798 0.961 . S
C1783 H1799 0.961 . S
C1784 C1785 1.370 . S
C1784 C1786 1.363 . S
C1784 H1800 0.931 . S
C1785 C1784 1.370 . S
C1785 C1789 1.408 . S
C1786 C1784 1.363 . S
C1786 C1787 1.370 . S
C1786 C1790 1.524 . S
C1787 C1779 1.503 . S
C1787 C1786 1.370 . S
C1787 C1788 1.403 . S
C1788 C1787 1.403 . S
C1788 C1789 1.404 . S
C1788 C1791 1.539 . S
C1789 C1785 1.408 . S
C1789 C1788 1.404 . S
C1789 H1801 0.930 . S
C1790 C1786 1.524 . S
C1790 H1802 0.956 . S
C1790 H1803 0.961 . S
C1790 H1804 0.961 . S
C1791 C1788 1.539 . S
C1791 H1805 0.958 . S
C1791 H1806 0.961 . S
C1791 H1807 0.960 . S
H1792 C1776 0.931 . S
H1793 C1781 0.929 . S
H1794 C1782 0.960 . S
H1795 C1782 0.962 . S
H1796 C1782 0.960 . S
H1797 C1783 0.961 . S
H1798 C1783 0.961 . S
H1799 C1783 0.961 . S
H1800 C1784 0.931 . S
H1801 C1789 0.930 . S
H1802 C1790 0.956 . S
H1803 C1790 0.961 . S
H1804 C1790 0.961 . S
H1805 C1791 0.958 . S
H1806 C1791 0.961 . S
H1807 C1791 0.960 . S
C1808 C1809 1.391 1_655 S
C1808 C1810 1.394 1_655 S
C1808 H1824 0.931 . S
C1809 C1808 1.391 1_455 S
C1809 C1813 1.376 . S
C1810 C1808 1.394 1_455 S
C1810 C1811 1.369 . S
C1810 C1814 1.531 1_455 S
C1811 C1810 1.369 . S
C1811 C1812 1.410 . S
C1811 C1819 1.503 . S
C1812 C1811 1.410 . S
C1812 C1813 1.392 . S
C1812 C1815 1.511 . S
C1813 C1809 1.376 . S
C1813 C1812 1.392 . S
C1813 H1825 0.929 . S
C1814 C1810 1.531 1_655 S
C1814 H1826 0.960 1_655 S
C1814 H1827 0.962 . S
C1814 H1828 0.960 . S
C1815 C1812 1.511 . S
C1815 H1829 0.961 . S
C1815 H1830 0.961 . S
C1815 H1831 0.961 . S
C1816 C1817 1.370 . S
C1816 C1818 1.363 . S
C1816 H1832 0.931 . S
C1817 C1816 1.370 . S
C1817 C1821 1.408 . S
C1818 C1816 1.363 . S
C1818 C1819 1.370 . S
C1818 C1822 1.524 1_455 S
C1819 C1811 1.503 . S
C1819 C1818 1.370 . S
C1819 C1820 1.403 . S
C1820 C1819 1.403 . S
C1820 C1821 1.404 . S
C1820 C1823 1.539 . S
C1821 C1817 1.408 . S
C1821 C1820 1.404 . S
C1821 H1833 0.930 . S
C1822 C1818 1.524 1_655 S
C1822 H1834 0.956 . S
C1822 H1835 0.961 1_655 S
C1822 H1836 0.961 . S
C1823 C1820 1.539 . S
C1823 H1837 0.958 . S
C1823 H1838 0.961 . S
C1823 H1839 0.960 . S
H1824 C1808 0.931 . S
H1825 C1813 0.929 . S
H1826 C1814 0.960 1_455 S
H1827 C1814 0.962 . S
H1828 C1814 0.960 . S
H1829 C1815 0.961 . S
H1830 C1815 0.961 . S
H1831 C1815 0.961 . S
H1832 C1816 0.931 . S
H1833 C1821 0.930 . S
H1834 C1822 0.956 . S
H1835 C1822 0.961 1_455 S
H1836 C1822 0.961 . S
H1837 C1823 0.958 . S
H1838 C1823 0.961 . S
H1839 C1823 0.960 . S
C1840 C1841 1.391 . S
C1840 C1842 1.394 . S
C1840 H1856 0.931 . S
C1841 C1840 1.391 . S
C1841 C1845 1.376 . S
C1842 C1840 1.394 . S
C1842 C1843 1.369 . S
C1842 C1846 1.531 . S
C1843 C1842 1.369 . S
C1843 C1844 1.410 . S
C1843 C1851 1.503 . S
C1844 C1843 1.410 . S
C1844 C1845 1.392 . S
C1844 C1847 1.511 . S
C1845 C1841 1.376 . S
C1845 C1844 1.392 . S
C1845 H1857 0.929 . S
C1846 C1842 1.531 . S
C1846 H1858 0.960 . S
C1846 H1859 0.962 . S
C1846 H1860 0.960 . S
C1847 C1844 1.511 . S
C1847 H1861 0.961 . S
C1847 H1862 0.961 . S
C1847 H1863 0.961 . S
C1848 C1849 1.370 . S
C1848 C1850 1.363 . S
C1848 H1864 0.931 . S
C1849 C1848 1.370 . S
C1849 C1853 1.408 . S
C1850 C1848 1.363 . S
C1850 C1851 1.370 . S
C1850 C1854 1.524 . S
C1851 C1843 1.503 . S
C1851 C1850 1.370 . S
C1851 C1852 1.403 . S
C1852 C1851 1.403 . S
C1852 C1853 1.404 . S
C1852 C1855 1.539 . S
C1853 C1849 1.408 . S
C1853 C1852 1.404 . S
C1853 H1865 0.930 . S
C1854 C1850 1.524 . S
C1854 H1866 0.956 . S
C1854 H1867 0.961 . S
C1854 H1868 0.961 . S
C1855 C1852 1.539 . S
C1855 H1869 0.958 . S
C1855 H1870 0.961 . S
C1855 H1871 0.960 . S
H1856 C1840 0.931 . S
H1857 C1845 0.929 . S
H1858 C1846 0.960 . S
H1859 C1846 0.962 . S
H1860 C1846 0.960 . S
H1861 C1847 0.961 . S
H1862 C1847 0.961 . S
H1863 C1847 0.961 . S
H1864 C1848 0.931 . S
H1865 C1853 0.930 . S
H1866 C1854 0.956 . S
H1867 C1854 0.961 . S
H1868 C1854 0.961 . S
H1869 C1855 0.958 . S
H1870 C1855 0.961 . S
H1871 C1855 0.960 . S
C1872 C1873 1.391 . S
C1872 C1874 1.394 . S
C1872 H1888 0.931 . S
C1873 C1872 1.391 . S
C1873 C1877 1.376 . S
C1874 C1872 1.394 . S
C1874 C1875 1.369 . S
C1874 C1878 1.531 . S
C1875 C1874 1.369 . S
C1875 C1876 1.410 . S
C1875 C1883 1.503 . S
C1876 C1875 1.410 . S
C1876 C1877 1.392 . S
C1876 C1879 1.511 . S
C1877 C1873 1.376 . S
C1877 C1876 1.392 . S
C1877 H1889 0.929 . S
C1878 C1874 1.531 . S
C1878 H1890 0.960 . S
C1878 H1891 0.962 . S
C1878 H1892 0.960 . S
C1879 C1876 1.511 . S
C1879 H1893 0.961 . S
C1879 H1894 0.961 . S
C1879 H1895 0.961 . S
C1880 C1881 1.370 . S
C1880 C1882 1.363 . S
C1880 H1896 0.931 . S
C1881 C1880 1.370 . S
C1881 C1885 1.408 . S
C1882 C1880 1.363 . S
C1882 C1883 1.370 . S
C1882 C1886 1.524 . S
C1883 C1875 1.503 . S
C1883 C1882 1.370 . S
C1883 C1884 1.403 . S
C1884 C1883 1.403 . S
C1884 C1885 1.404 . S
C1884 C1887 1.539 . S
C1885 C1881 1.408 . S
C1885 C1884 1.404 . S
C1885 H1897 0.930 . S
C1886 C1882 1.524 . S
C1886 H1898 0.956 . S
C1886 H1899 0.961 . S
C1886 H1900 0.961 . S
C1887 C1884 1.539 . S
C1887 H1901 0.958 . S
C1887 H1902 0.961 . S
C1887 H1903 0.960 . S
H1888 C1872 0.931 . S
H1889 C1877 0.929 . S
H1890 C1878 0.960 . S
H1891 C1878 0.962 . S
H1892 C1878 0.960 . S
H1893 C1879 0.961 . S
H1894 C1879 0.961 . S
H1895 C1879 0.961 . S
H1896 C1880 0.931 . S
H1897 C1885 0.930 . S
H1898 C1886 0.956 . S
H1899 C1886 0.961 . S
H1900 C1886 0.961 . S
H1901 C1887 0.958 . S
H1902 C1887 0.961 . S
H1903 C1887 0.960 . S
C1904 C1905 1.391 . S
C1904 C1906 1.394 . S
C1904 H1920 0.931 . S
C1905 C1904 1.391 . S
C1905 C1909 1.376 . S
C1906 C1904 1.394 . S
C1906 C1907 1.369 . S
C1906 C1910 1.531 . S
C1907 C1906 1.369 . S
C1907 C1908 1.410 . S
C1907 C1915 1.503 . S
C1908 C1907 1.410 . S
C1908 C1909 1.392 . S
C1908 C1911 1.511 . S
C1909 C1905 1.376 . S
C1909 C1908 1.392 . S
C1909 H1921 0.929 . S
C1910 C1906 1.531 . S
C1910 H1922 0.960 . S
C1910 H1923 0.962 . S
C1910 H1924 0.960 . S
C1911 C1908 1.511 . S
C1911 H1925 0.961 . S
C1911 H1926 0.961 . S
C1911 H1927 0.961 . S
C1912 C1913 1.370 . S
C1912 C1914 1.363 . S
C1912 H1928 0.931 . S
C1913 C1912 1.370 . S
C1913 C1917 1.408 . S
C1914 C1912 1.363 . S
C1914 C1915 1.370 . S
C1914 C1918 1.524 . S
C1915 C1907 1.503 . S
C1915 C1914 1.370 . S
C1915 C1916 1.403 . S
C1916 C1915 1.403 . S
C1916 C1917 1.404 . S
C1916 C1919 1.539 . S
C1917 C1913 1.408 . S
C1917 C1916 1.404 . S
C1917 H1929 0.930 . S
C1918 C1914 1.524 . S
C1918 H1930 0.956 . S
C1918 H1931 0.961 . S
C1918 H1932 0.961 . S
C1919 C1916 1.539 . S
C1919 H1933 0.958 . S
C1919 H1934 0.961 . S
C1919 H1935 0.960 . S
H1920 C1904 0.931 . S
H1921 C1909 0.929 . S
H1922 C1910 0.960 . S
H1923 C1910 0.962 . S
H1924 C1910 0.960 . S
H1925 C1911 0.961 . S
H1926 C1911 0.961 . S
H1927 C1911 0.961 . S
H1928 C1912 0.931 . S
H1929 C1917 0.930 . S
H1930 C1918 0.956 . S
H1931 C1918 0.961 . S
H1932 C1918 0.961 . S
H1933 C1919 0.958 . S
H1934 C1919 0.961 . S
H1935 C1919 0.960 . S
C1936 C1937 1.391 . S
C1936 C1938 1.394 . S
C1936 H1952 0.931 . S
C1937 C1936 1.391 . S
C1937 C1941 1.376 . S
C1938 C1936 1.394 . S
C1938 C1939 1.369 1_655 S
C1938 C1942 1.531 . S
C1939 C1938 1.369 1_455 S
C1939 C1940 1.410 . S
C1939 C1947 1.503 . S
C1940 C1939 1.410 . S
C1940 C1941 1.392 1_455 S
C1940 C1943 1.511 . S
C1941 C1937 1.376 . S
C1941 C1940 1.392 1_655 S
C1941 H1953 0.916 1_655 S
C1942 C1938 1.531 . S
C1942 H1954 0.960 . S
C1942 H1955 0.962 . S
C1942 H1956 0.960 . S
C1943 C1940 1.511 . S
C1943 H1957 0.961 . S
C1943 H1958 0.961 . S
C1943 H1959 0.961 . S
C1944 C1945 1.370 . S
C1944 C1946 1.350 1_455 S
C1944 H1960 0.931 1_455 S
C1945 C1944 1.370 . S
C1945 C1949 1.408 . S
C1946 C1944 1.350 1_655 S
C1946 C1947 1.358 1_655 S
C1946 C1950 1.551 . S
C1947 C1939 1.503 . S
C1947 C1946 1.358 1_455 S
C1947 C1948 1.403 . S
C1948 C1947 1.403 . S
C1948 C1949 1.404 . S
C1948 C1951 1.539 . S
C1949 C1945 1.408 . S
C1949 C1948 1.404 . S
C1949 H1961 0.930 . S
C1950 C1946 1.551 . S
C1950 H1962 0.956 . S
C1950 H1963 0.961 . S
C1950 H1964 0.961 . S
C1951 C1948 1.539 . S
C1951 H1965 0.958 . S
C1951 H1966 0.961 . S
C1951 H1967 0.960 . S
H1952 C1936 0.931 . S
H1953 C1941 0.916 1_455 S
H1954 C1942 0.960 . S
H1955 C1942 0.962 . S
H1956 C1942 0.960 . S
H1957 C1943 0.961 . S
H1958 C1943 0.961 . S
H1959 C1943 0.961 . S
H1960 C1944 0.931 1_655 S
H1961 C1949 0.930 . S
H1962 C1950 0.956 . S
H1963 C1950 0.961 . S
H1964 C1950 0.961 . S
H1965 C1951 0.958 . S
H1966 C1951 0.961 . S
H1967 C1951 0.960 . S
C1968 C1969 1.391 . S
C1968 C1970 1.394 . S
C1968 H1984 0.931 . S
C1969 C1968 1.391 . S
C1969 C1973 1.376 . S
C1970 C1968 1.394 . S
C1970 C1971 1.369 . S
C1970 C1974 1.531 . S
C1971 C1970 1.369 . S
C1971 C1972 1.410 . S
C1971 C1979 1.503 . S
C1972 C1971 1.410 . S
C1972 C1973 1.392 . S
C1972 C1975 1.511 . S
C1973 C1969 1.376 . S
C1973 C1972 1.392 . S
C1973 H1985 0.929 . S
C1974 C1970 1.531 . S
C1974 H1986 0.960 . S
C1974 H1987 0.962 . S
C1974 H1988 0.960 . S
C1975 C1972 1.511 . S
C1975 H1989 0.961 . S
C1975 H1990 0.961 . S
C1975 H1991 0.961 . S
C1976 C1977 1.370 . S
C1976 C1978 1.363 . S
C1976 H1992 0.931 . S
C1977 C1976 1.370 . S
C1977 C1981 1.408 . S
C1978 C1976 1.363 . S
C1978 C1979 1.370 . S
C1978 C1982 1.524 . S
C1979 C1971 1.503 . S
C1979 C1978 1.370 . S
C1979 C1980 1.403 . S
C1980 C1979 1.403 . S
C1980 C1981 1.404 . S
C1980 C1983 1.539 . S
C1981 C1977 1.408 . S
C1981 C1980 1.404 . S
C1981 H1993 0.930 . S
C1982 C1978 1.524 . S
C1982 H1994 0.956 . S
C1982 H1995 0.961 . S
C1982 H1996 0.961 . S
C1983 C1980 1.539 . S
C1983 H1997 0.958 . S
C1983 H1998 0.961 . S
C1983 H1999 0.960 . S
H1984 C1968 0.931 . S
H1985 C1973 0.929 . S
H1986 C1974 0.960 . S
H1987 C1974 0.962 . S
H1988 C1974 0.960 . S
H1989 C1975 0.961 . S
H1990 C1975 0.961 . S
H1991 C1975 0.961 . S
H1992 C1976 0.931 . S
H1993 C1981 0.930 . S
H1994 C1982 0.956 . S
H1995 C1982 0.961 . S
H1996 C1982 0.961 . S
H1997 C1983 0.958 . S
H1998 C1983 0.961 . S
H1999 C1983 0.960 . S
C2000 C2001 1.391 . S
C2000 C2002 1.394 . S
C2000 H2016 0.931 . S
C2001 C2000 1.391 . S
C2001 C2005 1.376 . S
C2002 C2000 1.394 . S
C2002 C2003 1.369 . S
C2002 C2006 1.531 . S
C2003 C2002 1.369 . S
C2003 C2004 1.410 . S
C2003 C2011 1.503 . S
C2004 C2003 1.410 . S
C2004 C2005 1.392 . S
C2004 C2007 1.511 1_545 S
C2005 C2001 1.376 . S
C2005 C2004 1.392 . S
C2005 H2017 0.929 . S
C2006 C2002 1.531 . S
C2006 H2018 0.960 . S
C2006 H2019 0.962 . S
C2006 H2020 0.960 . S
C2007 C2004 1.511 1_565 S
C2007 H2021 0.961 . S
C2007 H2022 0.961 . S
C2007 H2023 0.961 . S
C2008 C2009 1.370 . S
C2008 C2010 1.363 . S
C2008 H2024 0.931 . S
C2009 C2008 1.370 . S
C2009 C2013 1.408 . S
C2010 C2008 1.363 . S
C2010 C2011 1.370 . S
C2010 C2014 1.524 . S
C2011 C2003 1.503 . S
C2011 C2010 1.370 . S
C2011 C2012 1.403 . S
C2012 C2011 1.403 . S
C2012 C2013 1.404 . S
C2012 C2015 1.539 . S
C2013 C2009 1.408 . S
C2013 C2012 1.404 . S
C2013 H2025 0.930 . S
C2014 C2010 1.524 . S
C2014 H2026 0.956 . S
C2014 H2027 0.961 . S
C2014 H2028 0.961 . S
C2015 C2012 1.539 . S
C2015 H2029 0.958 . S
C2015 H2030 0.961 . S
C2015 H2031 0.960 . S
H2016 C2000 0.931 . S
H2017 C2005 0.929 . S
H2018 C2006 0.960 . S
H2019 C2006 0.962 . S
H2020 C2006 0.960 . S
H2021 C2007 0.961 . S
H2022 C2007 0.961 . S
H2023 C2007 0.961 . S
H2024 C2008 0.931 . S
H2025 C2013 0.930 . S
H2026 C2014 0.956 . S
H2027 C2014 0.961 . S
H2028 C2014 0.961 . S
H2029 C2015 0.958 . S
H2030 C2015 0.961 . S
H2031 C2015 0.960 . S
C2032 C2033 1.391 . S
C2032 C2034 1.394 . S
C2032 H2048 0.931 . S
C2033 C2032 1.391 . S
C2033 C2037 1.376 . S
C2034 C2032 1.394 . S
C2034 C2035 1.369 . S
C2034 C2038 1.531 . S
C2035 C2034 1.369 . S
C2035 C2036 1.410 . S
C2035 C2043 1.503 . S
C2036 C2035 1.410 . S
C2036 C2037 1.392 . S
C2036 C2039 1.511 . S
C2037 C2033 1.376 . S
C2037 C2036 1.392 . S
C2037 H2049 0.929 . S
C2038 C2034 1.531 . S
C2038 H2050 0.960 . S
C2038 H2051 0.962 . S
C2038 H2052 0.960 . S
C2039 C2036 1.511 . S
C2039 H2053 0.961 . S
C2039 H2054 0.961 . S
C2039 H2055 0.961 . S
C2040 C2041 1.370 . S
C2040 C2042 1.363 . S
C2040 H2056 0.931 . S
C2041 C2040 1.370 . S
C2041 C2045 1.408 . S
C2042 C2040 1.363 . S
C2042 C2043 1.370 . S
C2042 C2046 1.524 . S
C2043 C2035 1.503 . S
C2043 C2042 1.370 . S
C2043 C2044 1.403 . S
C2044 C2043 1.403 . S
C2044 C2045 1.404 . S
C2044 C2047 1.539 . S
C2045 C2041 1.408 . S
C2045 C2044 1.404 . S
C2045 H2057 0.930 . S
C2046 C2042 1.524 . S
C2046 H2058 0.956 . S
C2046 H2059 0.961 . S
C2046 H2060 0.961 . S
C2047 C2044 1.539 . S
C2047 H2061 0.958 . S
C2047 H2062 0.961 . S
C2047 H2063 0.960 . S
H2048 C2032 0.931 . S
H2049 C2037 0.929 . S
H2050 C2038 0.960 . S
H2051 C2038 0.962 . S
H2052 C2038 0.960 . S
H2053 C2039 0.961 . S
H2054 C2039 0.961 . S
H2055 C2039 0.961 . S
H2056 C2040 0.931 . S
H2057 C2045 0.930 . S
H2058 C2046 0.956 . S
H2059 C2046 0.961 . S
H2060 C2046 0.961 . S
H2061 C2047 0.958 . S
H2062 C2047 0.961 . S
H2063 C2047 0.960 . S
C2064 C2065 1.391 . S
C2064 C2066 1.394 . S
C2064 H2080 0.931 . S
C2065 C2064 1.391 . S
C2065 C2069 1.376 1_655 S
C2066 C2064 1.394 . S
C2066 C2067 1.369 1_655 S
C2066 C2070 1.531 . S
C2067 C2066 1.369 1_455 S
C2067 C2068 1.410 . S
C2067 C2075 1.503 . S
C2068 C2067 1.410 . S
C2068 C2069 1.392 . S
C2068 C2071 1.511 . S
C2069 C2065 1.376 1_455 S
C2069 C2068 1.392 . S
C2069 H2081 0.929 . S
C2070 C2066 1.531 . S
C2070 H2082 0.960 . S
C2070 H2083 0.962 . S
C2070 H2084 0.960 . S
C2071 C2068 1.511 . S
C2071 H2085 0.961 . S
C2071 H2086 0.961 . S
C2071 H2087 0.961 . S
C2072 C2073 1.370 . S
C2072 C2074 1.363 . S
C2072 H2088 0.931 . S
C2073 C2072 1.370 . S
C2073 C2077 1.408 . S
C2074 C2072 1.363 . S
C2074 C2075 1.370 . S
C2074 C2078 1.524 . S
C2075 C2067 1.503 . S
C2075 C2074 1.370 . S
C2075 C2076 1.403 . S
C2076 C2075 1.403 . S
C2076 C2077 1.404 . S
C2076 C2079 1.539 . S
C2077 C2073 1.408 . S
C2077 C2076 1.404 . S
C2077 H2089 0.930 . S
C2078 C2074 1.524 . S
C2078 H2090 0.956 1_455 S
C2078 H2091 0.961 . S
C2078 H2092 0.961 . S
C2079 C2076 1.539 . S
C2079 H2093 0.958 . S
C2079 H2094 0.961 . S
C2079 H2095 0.960 . S
H2080 C2064 0.931 . S
H2081 C2069 0.929 . S
H2082 C2070 0.960 . S
H2083 C2070 0.962 . S
H2084 C2070 0.960 . S
H2085 C2071 0.961 . S
H2086 C2071 0.961 . S
H2087 C2071 0.961 . S
H2088 C2072 0.931 . S
H2089 C2077 0.930 . S
H2090 C2078 0.956 1_655 S
H2091 C2078 0.961 . S
H2092 C2078 0.961 . S
H2093 C2079 0.958 . S
H2094 C2079 0.961 . S
H2095 C2079 0.960 . S
C2096 C2097 1.391 . S
C2096 C2098 1.394 . S
C2096 H2112 0.931 . S
C2097 C2096 1.391 . S
C2097 C2101 1.376 . S
C2098 C2096 1.394 . S
C2098 C2099 1.369 . S
C2098 C2102 1.531 . S
C2099 C2098 1.369 . S
C2099 C2100 1.410 . S
C2099 C2107 1.503 . S
C2100 C2099 1.410 . S
C2100 C2101 1.392 . S
C2100 C2103 1.511 . S
C2101 C2097 1.376 . S
C2101 C2100 1.392 . S
C2101 H2113 0.929 . S
C2102 C2098 1.531 . S
C2102 H2114 0.960 . S
C2102 H2115 0.962 . S
C2102 H2116 0.960 . S
C2103 C2100 1.511 . S
C2103 H2117 0.961 . S
C2103 H2118 0.961 . S
C2103 H2119 0.961 . S
C2104 C2105 1.370 . S
C2104 C2106 1.363 . S
C2104 H2120 0.931 . S
C2105 C2104 1.370 . S
C2105 C2109 1.408 . S
C2106 C2104 1.363 . S
C2106 C2107 1.370 . S
C2106 C2110 1.524 . S
C2107 C2099 1.503 . S
C2107 C2106 1.370 . S
C2107 C2108 1.403 . S
C2108 C2107 1.403 . S
C2108 C2109 1.404 . S
C2108 C2111 1.539 . S
C2109 C2105 1.408 . S
C2109 C2108 1.404 . S
C2109 H2121 0.930 . S
C2110 C2106 1.524 . S
C2110 H2122 0.956 . S
C2110 H2123 0.961 . S
C2110 H2124 0.961 . S
C2111 C2108 1.539 . S
C2111 H2125 0.958 . S
C2111 H2126 0.961 . S
C2111 H2127 0.960 . S
H2112 C2096 0.931 . S
H2113 C2101 0.929 . S
H2114 C2102 0.960 . S
H2115 C2102 0.962 . S
H2116 C2102 0.960 . S
H2117 C2103 0.961 . S
H2118 C2103 0.961 . S
H2119 C2103 0.961 . S
H2120 C2104 0.931 . S
H2121 C2109 0.930 . S
H2122 C2110 0.956 . S
H2123 C2110 0.961 . S
H2124 C2110 0.961 . S
H2125 C2111 0.958 . S
H2126 C2111 0.961 . S
H2127 C2111 0.960 . S
C2128 C2129 1.391 . S
C2128 C2130 1.394 . S
C2128 H2144 0.931 . S
C2129 C2128 1.391 . S
C2129 C2133 1.376 . S
C2130 C2128 1.394 . S
C2130 C2131 1.369 . S
C2130 C2134 1.531 . S
C2131 C2130 1.369 . S
C2131 C2132 1.410 . S
C2131 C2139 1.503 . S
C2132 C2131 1.410 . S
C2132 C2133 1.392 . S
C2132 C2135 1.511 . S
C2133 C2129 1.376 . S
C2133 C2132 1.392 . S
C2133 H2145 0.929 . S
C2134 C2130 1.531 . S
C2134 H2146 0.960 . S
C2134 H2147 0.962 . S
C2134 H2148 0.960 1_545 S
C2135 C2132 1.511 . S
C2135 H2149 0.961 . S
C2135 H2150 0.961 . S
C2135 H2151 0.961 . S
C2136 C2137 1.370 . S
C2136 C2138 1.363 . S
C2136 H2152 0.931 . S
C2137 C2136 1.370 . S
C2137 C2141 1.408 . S
C2138 C2136 1.363 . S
C2138 C2139 1.370 . S
C2138 C2142 1.524 . S
C2139 C2131 1.503 . S
C2139 C2138 1.370 . S
C2139 C2140 1.403 . S
C2140 C2139 1.403 . S
C2140 C2141 1.404 . S
C2140 C2143 1.539 . S
C2141 C2137 1.408 . S
C2141 C2140 1.404 . S
C2141 H2153 0.930 . S
C2142 C2138 1.524 . S
C2142 H2154 0.956 . S
C2142 H2155 0.961 . S
C2142 H2156 0.961 . S
C2143 C2140 1.539 . S
C2143 H2157 0.958 . S
C2143 H2158 0.961 . S
C2143 H2159 0.960 . S
H2144 C2128 0.931 . S
H2145 C2133 0.929 . S
H2146 C2134 0.960 . S
H2147 C2134 0.962 . S
H2148 C2134 0.960 1_565 S
H2149 C2135 0.961 . S
H2150 C2135 0.961 . S
H2151 C2135 0.961 . S
H2152 C2136 0.931 . S
H2153 C2141 0.930 . S
H2154 C2142 0.956 . S
H2155 C2142 0.961 . S
H2156 C2142 0.961 . S
H2157 C2143 0.958 . S
H2158 C2143 0.961 . S
H2159 C2143 0.960 . S
C2160 C2161 1.391 . S
C2160 C2162 1.394 . S
C2160 H2176 0.931 . S
C2161 C2160 1.391 . S
C2161 C2165 1.376 . S
C2162 C2160 1.394 . S
C2162 C2163 1.369 . S
C2162 C2166 1.531 . S
C2163 C2162 1.369 . S
C2163 C2164 1.410 . S
C2163 C2171 1.503 . S
C2164 C2163 1.410 . S
C2164 C2165 1.392 . S
C2164 C2167 1.511 . S
C2165 C2161 1.376 . S
C2165 C2164 1.392 . S
C2165 H2177 0.929 . S
C2166 C2162 1.531 . S
C2166 H2178 0.960 . S
C2166 H2179 0.962 . S
C2166 H2180 0.960 . S
C2167 C2164 1.511 . S
C2167 H2181 0.961 . S
C2167 H2182 0.961 . S
C2167 H2183 0.961 . S
C2168 C2169 1.370 . S
C2168 C2170 1.363 . S
C2168 H2184 0.931 . S
C2169 C2168 1.370 . S
C2169 C2173 1.408 . S
C2170 C2168 1.363 . S
C2170 C2171 1.370 . S
C2170 C2174 1.524 . S
C2171 C2163 1.503 . S
C2171 C2170 1.370 . S
C2171 C2172 1.403 . S
C2172 C2171 1.403 . S
C2172 C2173 1.404 . S
C2172 C2175 1.539 . S
C2173 C2169 1.408 . S
C2173 C2172 1.404 . S
C2173 H2185 0.930 . S
C2174 C2170 1.524 . S
C2174 H2186 0.956 . S
C2174 H2187 0.961 . S
C2174 H2188 0.961 . S
C2175 C2172 1.539 . S
C2175 H2189 0.958 . S
C2175 H2190 0.961 . S
C2175 H2191 0.960 . S
H2176 C2160 0.931 . S
H2177 C2165 0.929 . S
H2178 C2166 0.960 . S
H2179 C2166 0.962 . S
H2180 C2166 0.960 . S
H2181 C2167 0.961 . S
H2182 C2167 0.961 . S
H2183 C2167 0.961 . S
H2184 C2168 0.931 . S
H2185 C2173 0.930 . S
H2186 C2174 0.956 . S
H2187 C2174 0.961 . S
H2188 C2174 0.961 . S
H2189 C2175 0.958 . S
H2190 C2175 0.961 . S
H2191 C2175 0.960 . S
C2192 C2193 1.391 . S
C2192 C2194 1.394 . S
C2192 H2208 0.931 . S
C2193 C2192 1.391 . S
C2193 C2197 1.376 1_554 S
C2194 C2192 1.394 . S
C2194 C2195 1.369 . S
C2194 C2198 1.531 1_565 S
C2195 C2194 1.369 . S
C2195 C2196 1.410 1_554 S
C2195 C2203 1.503 1_565 S
C2196 C2195 1.410 1_556 S
C2196 C2197 1.392 . S
C2196 C2199 1.511 . S
C2197 C2193 1.376 1_556 S
C2197 C2196 1.392 . S
C2197 H2209 0.929 . S
C2198 C2194 1.531 1_545 S
C2198 H2210 0.960 . S
C2198 H2211 0.962 1_545 S
C2198 H2212 0.960 . S
C2199 C2196 1.511 . S
C2199 H2213 0.961 . S
C2199 H2214 0.961 . S
C2199 H2215 0.961 1_565 S
C2200 C2201 1.370 1_565 S
C2200 C2202 1.363 . S
C2200 H2216 0.931 . S
C2201 C2200 1.370 1_545 S
C2201 C2205 1.408 . S
C2202 C2200 1.363 . S
C2202 C2203 1.370 1_565 S
C2202 C2206 1.524 . S
C2203 C2195 1.503 1_545 S
C2203 C2202 1.370 1_545 S
C2203 C2204 1.403 . S
C2204 C2203 1.403 . S
C2204 C2205 1.404 . S
C2204 C2207 1.539 . S
C2205 C2201 1.408 . S
C2205 C2204 1.404 . S
C2205 H2217 0.930 . S
C2206 C2202 1.524 . S
C2206 H2218 0.956 . S
C2206 H2219 0.961 . S
C2206 H2220 0.961 . S
C2207 C2204 1.539 . S
C2207 H2221 0.958 . S
C2207 H2222 0.961 . S
C2207 H2223 0.960 . S
H2208 C2192 0.931 . S
H2209 C2197 0.929 . S
H2210 C2198 0.960 . S
H2211 C2198 0.962 1_565 S
H2212 C2198 0.960 . S
H2213 C2199 0.961 . S
H2214 C2199 0.961 . S
H2215 C2199 0.961 1_545 S
H2216 C2200 0.931 . S
H2217 C2205 0.930 . S
H2218 C2206 0.956 . S
H2219 C2206 0.961 . S
H2220 C2206 0.961 . S
H2221 C2207 0.958 . S
H2222 C2207 0.961 . S
H2223 C2207 0.960 . S
C2224 C2225 1.391 1_554 S
C2224 C2226 1.394 . S
C2224 H2240 0.931 . S
C2225 C2224 1.391 1_556 S
C2225 C2229 1.376 . S
C2226 C2224 1.394 . S
C2226 C2227 1.370 . S
C2226 C2230 1.531 . S
C2227 C2226 1.370 . S
C2227 C2228 1.408 1_554 S
C2227 C2235 1.506 1_554 S
C2228 C2227 1.408 1_556 S
C2228 C2229 1.392 . S
C2228 C2231 1.511 . S
C2229 C2225 1.376 . S
C2229 C2228 1.392 . S
C2229 H2241 0.929 . S
C2230 C2226 1.531 . S
C2230 H2242 0.960 . S
C2230 H2243 0.962 . S
C2230 H2244 0.960 . S
C2231 C2228 1.511 . S
C2231 H2245 0.961 . S
C2231 H2246 0.961 . S
C2231 H2247 0.961 . S
C2232 C2233 1.370 . S
C2232 C2234 1.363 . S
C2232 H2248 0.931 . S
C2233 C2232 1.370 . S
C2233 C2237 1.408 1_556 S
C2234 C2232 1.363 . S
C2234 C2235 1.375 . S
C2234 C2238 1.524 . S
C2235 C2227 1.506 1_556 S
C2235 C2234 1.375 . S
C2235 C2236 1.396 1_556 S
C2236 C2235 1.396 1_554 S
C2236 C2237 1.404 . S
C2236 C2239 1.539 . S
C2237 C2233 1.408 1_554 S
C2237 C2236 1.404 . S
C2237 H2249 0.930 . S
C2238 C2234 1.524 . S
C2238 H2250 0.956 . S
C2238 H2251 0.961 . S
C2238 H2252 0.961 . S
C2239 C2236 1.539 . S
C2239 H2253 0.958 . S
C2239 H2254 0.961 . S
C2239 H2255 0.960 . S
H2240 C2224 0.931 . S
H2241 C2229 0.929 . S
H2242 C2230 0.960 . S
H2243 C2230 0.962 . S
H2244 C2230 0.960 . S
H2245 C2231 0.961 . S
H2246 C2231 0.961 . S
H2247 C2231 0.961 . S
H2248 C2232 0.931 . S
H2249 C2237 0.930 . S
H2250 C2238 0.956 . S
H2251 C2238 0.961 . S
H2252 C2238 0.961 . S
H2253 C2239 0.958 . S
H2254 C2239 0.961 . S
H2255 C2239 0.960 . S
C2256 C2257 1.391 . S
C2256 C2258 1.394 . S
C2256 H2272 0.931 . S
C2257 C2256 1.391 . S
C2257 C2261 1.376 . S
C2258 C2256 1.394 . S
C2258 C2259 1.369 . S
C2258 C2262 1.531 . S
C2259 C2258 1.369 . S
C2259 C2260 1.410 . S
C2259 C2267 1.503 . S
C2260 C2259 1.410 . S
C2260 C2261 1.392 . S
C2260 C2263 1.511 . S
C2261 C2257 1.376 . S
C2261 C2260 1.392 . S
C2261 H2273 0.929 . S
C2262 C2258 1.531 . S
C2262 H2274 0.960 . S
C2262 H2275 0.962 . S
C2262 H2276 0.960 . S
C2263 C2260 1.511 . S
C2263 H2277 0.961 . S
C2263 H2278 0.961 . S
C2263 H2279 0.961 . S
C2264 C2265 1.370 . S
C2264 C2266 1.363 . S
C2264 H2280 0.931 . S
C2265 C2264 1.370 . S
C2265 C2269 1.408 . S
C2266 C2264 1.363 . S
C2266 C2267 1.370 . S
C2266 C2270 1.524 . S
C2267 C2259 1.503 . S
C2267 C2266 1.370 . S
C2267 C2268 1.403 . S
C2268 C2267 1.403 . S
C2268 C2269 1.404 . S
C2268 C2271 1.539 . S
C2269 C2265 1.408 . S
C2269 C2268 1.404 . S
C2269 H2281 0.930 . S
C2270 C2266 1.524 . S
C2270 H2282 0.956 . S
C2270 H2283 0.961 . S
C2270 H2284 0.961 . S
C2271 C2268 1.539 . S
C2271 H2285 0.958 . S
C2271 H2286 0.961 . S
C2271 H2287 0.960 . S
H2272 C2256 0.931 . S
H2273 C2261 0.929 . S
H2274 C2262 0.960 . S
H2275 C2262 0.962 . S
H2276 C2262 0.960 . S
H2277 C2263 0.961 . S
H2278 C2263 0.961 . S
H2279 C2263 0.961 . S
H2280 C2264 0.931 . S
H2281 C2269 0.930 . S
H2282 C2270 0.956 . S
H2283 C2270 0.961 . S
H2284 C2270 0.961 . S
H2285 C2271 0.958 . S
H2286 C2271 0.961 . S
H2287 C2271 0.960 . S
C2288 C2289 1.391 . S
C2288 C2290 1.394 . S
C2288 H2304 0.931 . S
C2289 C2288 1.391 . S
C2289 C2293 1.376 . S
C2290 C2288 1.394 . S
C2290 C2291 1.369 . S
C2290 C2294 1.531 . S
C2291 C2290 1.369 . S
C2291 C2292 1.410 . S
C2291 C2299 1.503 . S
C2292 C2291 1.410 . S
C2292 C2293 1.392 . S
C2292 C2295 1.511 . S
C2293 C2289 1.376 . S
C2293 C2292 1.392 . S
C2293 H2305 0.929 . S
C2294 C2290 1.531 . S
C2294 H2306 0.960 . S
C2294 H2307 0.962 . S
C2294 H2308 0.960 . S
C2295 C2292 1.511 . S
C2295 H2309 0.961 . S
C2295 H2310 0.961 . S
C2295 H2311 0.961 . S
C2296 C2297 1.370 1_655 S
C2296 C2298 1.363 . S
C2296 H2312 0.917 1_655 S
C2297 C2296 1.370 1_455 S
C2297 C2301 1.408 1_455 S
C2298 C2296 1.363 . S
C2298 C2299 1.370 . S
C2298 C2302 1.524 . S
C2299 C2291 1.503 . S
C2299 C2298 1.370 . S
C2299 C2300 1.403 . S
C2300 C2299 1.403 . S
C2300 C2301 1.404 . S
C2300 C2303 1.539 . S
C2301 C2297 1.408 1_655 S
C2301 C2300 1.404 . S
C2301 H2313 0.930 1_655 S
C2302 C2298 1.524 . S
C2302 H2314 0.956 . S
C2302 H2315 0.961 . S
C2302 H2316 0.961 . S
C2303 C2300 1.539 . S
C2303 H2317 0.958 . S
C2303 H2318 0.961 . S
C2303 H2319 0.960 . S
H2304 C2288 0.931 . S
H2305 C2293 0.929 . S
H2306 C2294 0.960 . S
H2307 C2294 0.962 . S
H2308 C2294 0.960 . S
H2309 C2295 0.961 . S
H2310 C2295 0.961 . S
H2311 C2295 0.961 . S
H2312 C2296 0.917 1_455 S
H2313 C2301 0.930 1_455 S
H2314 C2302 0.956 . S
H2315 C2302 0.961 . S
H2316 C2302 0.961 . S
H2317 C2303 0.958 . S
H2318 C2303 0.961 . S
H2319 C2303 0.960 . S
C2320 C2321 1.391 . S
C2320 C2322 1.394 . S
C2320 H2336 0.931 . S
C2321 C2320 1.391 . S
C2321 C2325 1.376 . S
C2322 C2320 1.394 . S
C2322 C2323 1.369 . S
C2322 C2326 1.531 . S
C2323 C2322 1.369 . S
C2323 C2324 1.410 . S
C2323 C2331 1.503 . S
C2324 C2323 1.410 . S
C2324 C2325 1.392 . S
C2324 C2327 1.511 . S
C2325 C2321 1.376 . S
C2325 C2324 1.392 . S
C2325 H2337 0.929 . S
C2326 C2322 1.531 . S
C2326 H2338 0.960 . S
C2326 H2339 0.962 . S
C2326 H2340 0.960 . S
C2327 C2324 1.511 . S
C2327 H2341 0.961 . S
C2327 H2342 0.961 . S
C2327 H2343 0.961 . S
C2328 C2329 1.370 . S
C2328 C2330 1.363 . S
C2328 H2344 0.931 . S
C2329 C2328 1.370 . S
C2329 C2333 1.408 . S
C2330 C2328 1.363 . S
C2330 C2331 1.370 . S
C2330 C2334 1.524 . S
C2331 C2323 1.503 . S
C2331 C2330 1.370 . S
C2331 C2332 1.403 . S
C2332 C2331 1.403 . S
C2332 C2333 1.404 . S
C2332 C2335 1.539 . S
C2333 C2329 1.408 . S
C2333 C2332 1.404 . S
C2333 H2345 0.930 . S
C2334 C2330 1.524 . S
C2334 H2346 0.956 . S
C2334 H2347 0.961 . S
C2334 H2348 0.961 . S
C2335 C2332 1.539 . S
C2335 H2349 0.958 . S
C2335 H2350 0.961 . S
C2335 H2351 0.960 . S
H2336 C2320 0.931 . S
H2337 C2325 0.929 . S
H2338 C2326 0.960 . S
H2339 C2326 0.962 . S
H2340 C2326 0.960 . S
H2341 C2327 0.961 . S
H2342 C2327 0.961 . S
H2343 C2327 0.961 . S
H2344 C2328 0.931 . S
H2345 C2333 0.930 . S
H2346 C2334 0.956 . S
H2347 C2334 0.961 . S
H2348 C2334 0.961 . S
H2349 C2335 0.958 . S
H2350 C2335 0.961 . S
H2351 C2335 0.960 . S
C2352 C2353 1.391 . S
C2352 C2354 1.394 . S
C2352 H2368 0.931 . S
C2353 C2352 1.391 . S
C2353 C2357 1.376 . S
C2354 C2352 1.394 . S
C2354 C2355 1.369 . S
C2354 C2358 1.531 . S
C2355 C2354 1.369 . S
C2355 C2356 1.410 . S
C2355 C2363 1.503 . S
C2356 C2355 1.410 . S
C2356 C2357 1.392 . S
C2356 C2359 1.511 . S
C2357 C2353 1.376 . S
C2357 C2356 1.392 . S
C2357 H2369 0.929 . S
C2358 C2354 1.531 . S
C2358 H2370 0.960 . S
C2358 H2371 0.962 . S
C2358 H2372 0.960 . S
C2359 C2356 1.511 . S
C2359 H2373 0.961 . S
C2359 H2374 0.961 . S
C2359 H2375 0.961 . S
C2360 C2361 1.370 . S
C2360 C2362 1.363 . S
C2360 H2376 0.931 . S
C2361 C2360 1.370 . S
C2361 C2365 1.408 . S
C2362 C2360 1.363 . S
C2362 C2363 1.370 . S
C2362 C2366 1.524 . S
C2363 C2355 1.503 . S
C2363 C2362 1.370 . S
C2363 C2364 1.403 . S
C2364 C2363 1.403 . S
C2364 C2365 1.404 . S
C2364 C2367 1.539 . S
C2365 C2361 1.408 . S
C2365 C2364 1.404 . S
C2365 H2377 0.930 . S
C2366 C2362 1.524 . S
C2366 H2378 0.956 . S
C2366 H2379 0.961 . S
C2366 H2380 0.961 . S
C2367 C2364 1.539 . S
C2367 H2381 0.958 . S
C2367 H2382 0.961 . S
C2367 H2383 0.960 . S
H2368 C2352 0.931 . S
H2369 C2357 0.929 . S
H2370 C2358 0.960 . S
H2371 C2358 0.962 . S
H2372 C2358 0.960 . S
H2373 C2359 0.961 . S
H2374 C2359 0.961 . S
H2375 C2359 0.961 . S
H2376 C2360 0.931 . S
H2377 C2365 0.930 . S
H2378 C2366 0.956 . S
H2379 C2366 0.961 . S
H2380 C2366 0.961 . S
H2381 C2367 0.958 . S
H2382 C2367 0.961 . S
H2383 C2367 0.960 . S
C2384 C2385 1.391 . S
C2384 C2386 1.394 . S
C2384 H2400 0.931 . S
C2385 C2384 1.391 . S
C2385 C2389 1.376 . S
C2386 C2384 1.394 . S
C2386 C2387 1.369 . S
C2386 C2390 1.531 . S
C2387 C2386 1.369 . S
C2387 C2388 1.410 . S
C2387 C2395 1.503 . S
C2388 C2387 1.410 . S
C2388 C2389 1.392 . S
C2388 C2391 1.511 . S
C2389 C2385 1.376 . S
C2389 C2388 1.392 . S
C2389 H2401 0.929 . S
C2390 C2386 1.531 . S
C2390 H2402 0.960 . S
C2390 H2403 0.962 . S
C2390 H2404 0.960 . S
C2391 C2388 1.511 . S
C2391 H2405 0.961 . S
C2391 H2406 0.961 . S
C2391 H2407 0.961 . S
C2392 C2393 1.370 . S
C2392 C2394 1.363 . S
C2392 H2408 0.931 . S
C2393 C2392 1.370 . S
C2393 C2397 1.408 . S
C2394 C2392 1.363 . S
C2394 C2395 1.370 . S
C2394 C2398 1.524 . S
C2395 C2387 1.503 . S
C2395 C2394 1.370 . S
C2395 C2396 1.403 . S
C2396 C2395 1.403 . S
C2396 C2397 1.404 . S
C2396 C2399 1.539 . S
C2397 C2393 1.408 . S
C2397 C2396 1.404 . S
C2397 H2409 0.930 . S
C2398 C2394 1.524 . S
C2398 H2410 0.956 . S
C2398 H2411 0.961 . S
C2398 H2412 0.961 . S
C2399 C2396 1.539 . S
C2399 H2413 0.958 . S
C2399 H2414 0.961 . S
C2399 H2415 0.960 . S
H2400 C2384 0.931 . S
H2401 C2389 0.929 . S
H2402 C2390 0.960 . S
H2403 C2390 0.962 . S
H2404 C2390 0.960 . S
H2405 C2391 0.961 . S
H2406 C2391 0.961 . S
H2407 C2391 0.961 . S
H2408 C2392 0.931 . S
H2409 C2397 0.930 . S
H2410 C2398 0.956 . S
H2411 C2398 0.961 . S
H2412 C2398 0.961 . S
H2413 C2399 0.958 . S
H2414 C2399 0.961 . S
H2415 C2399 0.960 . S
C2416 C2417 1.391 . S
C2416 C2418 1.394 . S
C2416 H2432 0.931 . S
C2417 C2416 1.391 . S
C2417 C2421 1.376 . S
C2418 C2416 1.394 . S
C2418 C2419 1.369 . S
C2418 C2422 1.531 . S
C2419 C2418 1.369 . S
C2419 C2420 1.410 . S
C2419 C2427 1.503 . S
C2420 C2419 1.410 . S
C2420 C2421 1.392 . S
C2420 C2423 1.511 . S
C2421 C2417 1.376 . S
C2421 C2420 1.392 . S
C2421 H2433 0.929 . S
C2422 C2418 1.531 . S
C2422 H2434 0.960 . S
C2422 H2435 0.962 . S
C2422 H2436 0.960 . S
C2423 C2420 1.511 . S
C2423 H2437 0.961 . S
C2423 H2438 0.961 . S
C2423 H2439 0.961 . S
C2424 C2425 1.370 . S
C2424 C2426 1.363 . S
C2424 H2440 0.931 . S
C2425 C2424 1.370 . S
C2425 C2429 1.408 . S
C2426 C2424 1.363 . S
C2426 C2427 1.370 . S
C2426 C2430 1.524 . S
C2427 C2419 1.503 . S
C2427 C2426 1.370 . S
C2427 C2428 1.403 . S
C2428 C2427 1.403 . S
C2428 C2429 1.404 . S
C2428 C2431 1.539 . S
C2429 C2425 1.408 . S
C2429 C2428 1.404 . S
C2429 H2441 0.930 . S
C2430 C2426 1.524 . S
C2430 H2442 0.956 . S
C2430 H2443 0.961 . S
C2430 H2444 0.961 . S
C2431 C2428 1.539 . S
C2431 H2445 0.958 . S
C2431 H2446 0.961 . S
C2431 H2447 0.960 . S
H2432 C2416 0.931 . S
H2433 C2421 0.929 . S
H2434 C2422 0.960 . S
H2435 C2422 0.962 . S
H2436 C2422 0.960 . S
H2437 C2423 0.961 . S
H2438 C2423 0.961 . S
H2439 C2423 0.961 . S
H2440 C2424 0.931 . S
H2441 C2429 0.930 . S
H2442 C2430 0.956 . S
H2443 C2430 0.961 . S
H2444 C2430 0.961 . S
H2445 C2431 0.958 . S
H2446 C2431 0.961 . S
H2447 C2431 0.960 . S
C2448 C2449 1.391 . S
C2448 C2450 1.394 . S
C2448 H2464 0.931 . S
C2449 C2448 1.391 . S
C2449 C2453 1.376 . S
C2450 C2448 1.394 . S
C2450 C2451 1.369 . S
C2450 C2454 1.531 . S
C2451 C2450 1.369 . S
C2451 C2452 1.410 . S
C2451 C2459 1.503 . S
C2452 C2451 1.410 . S
C2452 C2453 1.392 . S
C2452 C2455 1.511 . S
C2453 C2449 1.376 . S
C2453 C2452 1.392 . S
C2453 H2465 0.929 . S
C2454 C2450 1.531 . S
C2454 H2466 0.960 . S
C2454 H2467 0.962 . S
C2454 H2468 0.960 . S
C2455 C2452 1.511 . S
C2455 H2469 0.961 . S
C2455 H2470 0.961 . S
C2455 H2471 0.961 . S
C2456 C2457 1.370 . S
C2456 C2458 1.363 . S
C2456 H2472 0.931 . S
C2457 C2456 1.370 . S
C2457 C2461 1.408 . S
C2458 C2456 1.363 . S
C2458 C2459 1.370 . S
C2458 C2462 1.524 . S
C2459 C2451 1.503 . S
C2459 C2458 1.370 . S
C2459 C2460 1.403 . S
C2460 C2459 1.403 . S
C2460 C2461 1.404 . S
C2460 C2463 1.539 1_554 S
C2461 C2457 1.408 . S
C2461 C2460 1.404 . S
C2461 H2473 0.930 1_554 S
C2462 C2458 1.524 . S
C2462 H2474 0.956 . S
C2462 H2475 0.961 . S
C2462 H2476 0.961 . S
C2463 C2460 1.539 1_556 S
C2463 H2477 0.958 . S
C2463 H2478 0.961 . S
C2463 H2479 0.992 . S
H2464 C2448 0.931 . S
H2465 C2453 0.929 . S
H2466 C2454 0.960 . S
H2467 C2454 0.962 . S
H2468 C2454 0.960 . S
H2469 C2455 0.961 . S
H2470 C2455 0.961 . S
H2471 C2455 0.961 . S
H2472 C2456 0.931 . S
H2473 C2461 0.930 1_556 S
H2474 C2462 0.956 . S
H2475 C2462 0.961 . S
H2476 C2462 0.961 . S
H2477 C2463 0.958 . S
H2478 C2463 0.961 . S
H2479 C2463 0.992 . S
C2480 C2481 1.391 . S
C2480 C2482 1.394 . S
C2480 H2496 0.931 . S
C2481 C2480 1.391 . S
C2481 C2485 1.376 . S
C2482 C2480 1.394 . S
C2482 C2483 1.369 . S
C2482 C2486 1.531 . S
C2483 C2482 1.369 . S
C2483 C2484 1.410 . S
C2483 C2491 1.503 . S
C2484 C2483 1.410 . S
C2484 C2485 1.392 . S
C2484 C2487 1.511 . S
C2485 C2481 1.376 . S
C2485 C2484 1.392 . S
C2485 H2497 0.929 . S
C2486 C2482 1.531 . S
C2486 H2498 0.960 . S
C2486 H2499 0.962 . S
C2486 H2500 0.960 . S
C2487 C2484 1.511 . S
C2487 H2501 0.961 . S
C2487 H2502 0.961 . S
C2487 H2503 0.961 . S
C2488 C2489 1.370 . S
C2488 C2490 1.363 . S
C2488 H2504 0.931 . S
C2489 C2488 1.370 . S
C2489 C2493 1.408 . S
C2490 C2488 1.363 . S
C2490 C2491 1.370 . S
C2490 C2494 1.524 . S
C2491 C2483 1.503 . S
C2491 C2490 1.370 . S
C2491 C2492 1.403 . S
C2492 C2491 1.403 . S
C2492 C2493 1.404 . S
C2492 C2495 1.539 . S
C2493 C2489 1.408 . S
C2493 C2492 1.404 . S
C2493 H2505 0.930 . S
C2494 C2490 1.524 . S
C2494 H2506 0.956 . S
C2494 H2507 0.961 . S
C2494 H2508 0.961 . S
C2495 C2492 1.539 . S
C2495 H2509 0.958 . S
C2495 H2510 0.961 . S
C2495 H2511 0.960 . S
H2496 C2480 0.931 . S
H2497 C2485 0.929 . S
H2498 C2486 0.960 . S
H2499 C2486 0.962 . S
H2500 C2486 0.960 . S
H2501 C2487 0.961 . S
H2502 C2487 0.961 . S
H2503 C2487 0.961 . S
H2504 C2488 0.931 . S
H2505 C2493 0.930 . S
H2506 C2494 0.956 . S
H2507 C2494 0.961 . S
H2508 C2494 0.961 . S
H2509 C2495 0.958 . S
H2510 C2495 0.961 . S
H2511 C2495 0.960 . S
C2512 C2513 1.391 . S
C2512 C2514 1.394 . S
C2512 H2528 0.931 . S
C2513 C2512 1.391 . S
C2513 C2517 1.376 . S
C2514 C2512 1.394 . S
C2514 C2515 1.369 . S
C2514 C2518 1.531 . S
C2515 C2514 1.369 . S
C2515 C2516 1.410 . S
C2515 C2523 1.503 . S
C2516 C2515 1.410 . S
C2516 C2517 1.392 . S
C2516 C2519 1.511 . S
C2517 C2513 1.376 . S
C2517 C2516 1.392 . S
C2517 H2529 0.929 . S
C2518 C2514 1.531 . S
C2518 H2530 0.960 . S
C2518 H2531 0.962 . S
C2518 H2532 0.960 . S
C2519 C2516 1.511 . S
C2519 H2533 0.961 . S
C2519 H2534 0.961 . S
C2519 H2535 0.961 . S
C2520 C2521 1.370 . S
C2520 C2522 1.363 . S
C2520 H2536 0.931 . S
C2521 C2520 1.370 . S
C2521 C2525 1.408 . S
C2522 C2520 1.363 . S
C2522 C2523 1.370 . S
C2522 C2526 1.524 . S
C2523 C2515 1.503 . S
C2523 C2522 1.370 . S
C2523 C2524 1.403 . S
C2524 C2523 1.403 . S
C2524 C2525 1.404 . S
C2524 C2527 1.539 . S
C2525 C2521 1.408 . S
C2525 C2524 1.404 . S
C2525 H2537 0.930 . S
C2526 C2522 1.524 . S
C2526 H2538 0.956 . S
C2526 H2539 0.961 . S
C2526 H2540 0.961 . S
C2527 C2524 1.539 . S
C2527 H2541 0.958 . S
C2527 H2542 0.961 . S
C2527 H2543 0.960 . S
H2528 C2512 0.931 . S
H2529 C2517 0.929 . S
H2530 C2518 0.960 . S
H2531 C2518 0.962 . S
H2532 C2518 0.960 . S
H2533 C2519 0.961 . S
H2534 C2519 0.961 . S
H2535 C2519 0.961 . S
H2536 C2520 0.931 . S
H2537 C2525 0.930 . S
H2538 C2526 0.956 . S
H2539 C2526 0.961 . S
H2540 C2526 0.961 . S
H2541 C2527 0.958 . S
H2542 C2527 0.961 . S
H2543 C2527 0.960 . S
C2544 C2545 1.391 . S
C2544 C2546 1.394 . S
C2544 H2560 0.931 . S
C2545 C2544 1.391 . S
C2545 C2549 1.376 . S
C2546 C2544 1.394 . S
C2546 C2547 1.369 . S
C2546 C2550 1.531 . S
C2547 C2546 1.369 . S
C2547 C2548 1.410 . S
C2547 C2555 1.503 . S
C2548 C2547 1.410 . S
C2548 C2549 1.392 . S
C2548 C2551 1.511 . S
C2549 C2545 1.376 . S
C2549 C2548 1.392 . S
C2549 H2561 0.929 . S
C2550 C2546 1.531 . S
C2550 H2562 0.960 . S
C2550 H2563 0.962 . S
C2550 H2564 0.960 . S
C2551 C2548 1.511 . S
C2551 H2565 0.961 . S
C2551 H2566 0.961 . S
C2551 H2567 0.961 . S
C2552 C2553 1.370 . S
C2552 C2554 1.363 . S
C2552 H2568 0.931 . S
C2553 C2552 1.370 . S
C2553 C2557 1.408 . S
C2554 C2552 1.363 . S
C2554 C2555 1.370 . S
C2554 C2558 1.524 . S
C2555 C2547 1.503 . S
C2555 C2554 1.370 . S
C2555 C2556 1.403 . S
C2556 C2555 1.403 . S
C2556 C2557 1.404 . S
C2556 C2559 1.539 . S
C2557 C2553 1.408 . S
C2557 C2556 1.404 . S
C2557 H2569 0.930 . S
C2558 C2554 1.524 . S
C2558 H2570 0.956 . S
C2558 H2571 0.961 . S
C2558 H2572 0.961 . S
C2559 C2556 1.539 . S
C2559 H2573 0.958 . S
C2559 H2574 0.961 . S
C2559 H2575 0.960 . S
H2560 C2544 0.931 . S
H2561 C2549 0.929 . S
H2562 C2550 0.960 . S
H2563 C2550 0.962 . S
H2564 C2550 0.960 . S
H2565 C2551 0.961 . S
H2566 C2551 0.961 . S
H2567 C2551 0.961 . S
H2568 C2552 0.931 . S
H2569 C2557 0.930 . S
H2570 C2558 0.956 . S
H2571 C2558 0.961 . S
H2572 C2558 0.961 . S
H2573 C2559 0.958 . S
H2574 C2559 0.961 . S
H2575 C2559 0.960 . S
C2576 C2577 1.391 . S
C2576 C2578 1.394 . S
C2576 H2592 0.931 . S
C2577 C2576 1.391 . S
C2577 C2581 1.376 . S
C2578 C2576 1.394 . S
C2578 C2579 1.369 . S
C2578 C2582 1.531 . S
C2579 C2578 1.369 . S
C2579 C2580 1.410 . S
C2579 C2587 1.503 . S
C2580 C2579 1.410 . S
C2580 C2581 1.392 . S
C2580 C2583 1.511 . S
C2581 C2577 1.376 . S
C2581 C2580 1.392 . S
C2581 H2593 0.929 . S
C2582 C2578 1.531 . S
C2582 H2594 0.960 . S
C2582 H2595 0.962 . S
C2582 H2596 0.960 . S
C2583 C2580 1.511 . S
C2583 H2597 0.961 . S
C2583 H2598 0.961 . S
C2583 H2599 0.961 . S
C2584 C2585 1.370 . S
C2584 C2586 1.363 . S
C2584 H2600 0.931 . S
C2585 C2584 1.370 . S
C2585 C2589 1.408 . S
C2586 C2584 1.363 . S
C2586 C2587 1.370 . S
C2586 C2590 1.524 . S
C2587 C2579 1.503 . S
C2587 C2586 1.370 . S
C2587 C2588 1.403 . S
C2588 C2587 1.403 . S
C2588 C2589 1.404 . S
C2588 C2591 1.539 . S
C2589 C2585 1.408 . S
C2589 C2588 1.404 . S
C2589 H2601 0.930 . S
C2590 C2586 1.524 . S
C2590 H2602 0.956 . S
C2590 H2603 0.961 . S
C2590 H2604 0.961 . S
C2591 C2588 1.539 . S
C2591 H2605 0.958 . S
C2591 H2606 0.961 . S
C2591 H2607 0.960 . S
H2592 C2576 0.931 . S
H2593 C2581 0.929 . S
H2594 C2582 0.960 . S
H2595 C2582 0.962 . S
H2596 C2582 0.960 . S
H2597 C2583 0.961 . S
H2598 C2583 0.961 . S
H2599 C2583 0.961 . S
H2600 C2584 0.931 . S
H2601 C2589 0.930 . S
H2602 C2590 0.956 . S
H2603 C2590 0.961 . S
H2604 C2590 0.961 . S
H2605 C2591 0.958 . S
H2606 C2591 0.961 . S
H2607 C2591 0.960 . S
C2608 C2609 1.391 . S
C2608 C2610 1.394 . S
C2608 H2624 0.931 . S
C2609 C2608 1.391 . S
C2609 C2613 1.376 . S
C2610 C2608 1.394 . S
C2610 C2611 1.369 . S
C2610 C2614 1.531 . S
C2611 C2610 1.369 . S
C2611 C2612 1.410 . S
C2611 C2619 1.503 . S
C2612 C2611 1.410 . S
C2612 C2613 1.392 . S
C2612 C2615 1.511 . S
C2613 C2609 1.376 . S
C2613 C2612 1.392 . S
C2613 H2625 0.929 . S
C2614 C2610 1.531 . S
C2614 H2626 0.960 . S
C2614 H2627 0.962 . S
C2614 H2628 0.960 . S
C2615 C2612 1.511 . S
C2615 H2629 0.961 . S
C2615 H2630 0.961 . S
C2615 H2631 0.961 . S
C2616 C2617 1.370 . S
C2616 C2618 1.363 . S
C2616 H2632 0.931 . S
C2617 C2616 1.370 . S
C2617 C2621 1.408 . S
C2618 C2616 1.363 . S
C2618 C2619 1.370 . S
C2618 C2622 1.524 . S
C2619 C2611 1.503 . S
C2619 C2618 1.370 . S
C2619 C2620 1.403 . S
C2620 C2619 1.403 . S
C2620 C2621 1.404 . S
C2620 C2623 1.539 . S
C2621 C2617 1.408 . S
C2621 C2620 1.404 . S
C2621 H2633 0.930 . S
C2622 C2618 1.524 . S
C2622 H2634 0.956 . S
C2622 H2635 0.961 . S
C2622 H2636 0.961 . S
C2623 C2620 1.539 . S
C2623 H2637 0.958 . S
C2623 H2638 0.961 . S
C2623 H2639 0.960 . S
H2624 C2608 0.931 . S
H2625 C2613 0.929 . S
H2626 C2614 0.960 . S
H2627 C2614 0.962 . S
H2628 C2614 0.960 . S
H2629 C2615 0.961 . S
H2630 C2615 0.961 . S
H2631 C2615 0.961 . S
H2632 C2616 0.931 . S
H2633 C2621 0.930 . S
H2634 C2622 0.956 . S
H2635 C2622 0.961 . S
H2636 C2622 0.961 . S
H2637 C2623 0.958 . S
H2638 C2623 0.961 . S
H2639 C2623 0.960 . S
C2640 C2641 1.391 . S
C2640 C2642 1.394 . S
C2640 H2656 0.931 . S
C2641 C2640 1.391 . S
C2641 C2645 1.376 . S
C2642 C2640 1.394 . S
C2642 C2643 1.369 . S
C2642 C2646 1.531 . S
C2643 C2642 1.369 . S
C2643 C2644 1.410 . S
C2643 C2651 1.503 . S
C2644 C2643 1.410 . S
C2644 C2645 1.392 . S
C2644 C2647 1.511 . S
C2645 C2641 1.376 . S
C2645 C2644 1.392 . S
C2645 H2657 0.929 . S
C2646 C2642 1.531 . S
C2646 H2658 0.960 . S
C2646 H2659 0.962 . S
C2646 H2660 0.960 . S
C2647 C2644 1.511 . S
C2647 H2661 0.961 . S
C2647 H2662 0.961 . S
C2647 H2663 0.961 . S
C2648 C2649 1.370 . S
C2648 C2650 1.363 . S
C2648 H2664 0.931 1_565 S
C2649 C2648 1.370 . S
C2649 C2653 1.408 . S
C2650 C2648 1.363 . S
C2650 C2651 1.370 . S
C2650 C2654 1.524 . S
C2651 C2643 1.503 . S
C2651 C2650 1.370 . S
C2651 C2652 1.403 . S
C2652 C2651 1.403 . S
C2652 C2653 1.404 . S
C2652 C2655 1.539 . S
C2653 C2649 1.408 . S
C2653 C2652 1.404 . S
C2653 H2665 0.930 . S
C2654 C2650 1.524 . S
C2654 H2666 0.956 . S
C2654 H2667 0.961 . S
C2654 H2668 0.961 . S
C2655 C2652 1.539 . S
C2655 H2669 0.958 . S
C2655 H2670 0.961 . S
C2655 H2671 0.960 . S
H2656 C2640 0.931 . S
H2657 C2645 0.929 . S
H2658 C2646 0.960 . S
H2659 C2646 0.962 . S
H2660 C2646 0.960 . S
H2661 C2647 0.961 . S
H2662 C2647 0.961 . S
H2663 C2647 0.961 . S
H2664 C2648 0.931 1_545 S
H2665 C2653 0.930 . S
H2666 C2654 0.956 . S
H2667 C2654 0.961 . S
H2668 C2654 0.961 . S
H2669 C2655 0.958 . S
H2670 C2655 0.961 . S
H2671 C2655 0.960 . S
C2672 C2673 1.391 . S
C2672 C2674 1.394 . S
C2672 H2688 0.931 . S
C2673 C2672 1.391 . S
C2673 C2677 1.376 . S
C2674 C2672 1.394 . S
C2674 C2675 1.369 . S
C2674 C2678 1.531 . S
C2675 C2674 1.369 . S
C2675 C2676 1.410 . S
C2675 C2683 1.503 . S
C2676 C2675 1.410 . S
C2676 C2677 1.392 . S
C2676 C2679 1.511 . S
C2677 C2673 1.376 . S
C2677 C2676 1.392 . S
C2677 H2689 0.929 . S
C2678 C2674 1.531 . S
C2678 H2690 0.960 . S
C2678 H2691 0.962 . S
C2678 H2692 0.960 . S
C2679 C2676 1.511 . S
C2679 H2693 0.961 . S
C2679 H2694 0.961 . S
C2679 H2695 0.961 . S
C2680 C2681 1.370 . S
C2680 C2682 1.363 . S
C2680 H2696 0.931 . S
C2681 C2680 1.370 . S
C2681 C2685 1.408 . S
C2682 C2680 1.363 . S
C2682 C2683 1.370 . S
C2682 C2686 1.524 . S
C2683 C2675 1.503 . S
C2683 C2682 1.370 . S
C2683 C2684 1.403 . S
C2684 C2683 1.403 . S
C2684 C2685 1.404 . S
C2684 C2687 1.539 . S
C2685 C2681 1.408 . S
C2685 C2684 1.404 . S
C2685 H2697 0.930 . S
C2686 C2682 1.524 . S
C2686 H2698 0.956 . S
C2686 H2699 0.961 . S
C2686 H2700 0.961 . S
C2687 C2684 1.539 . S
C2687 H2701 0.958 . S
C2687 H2702 0.961 . S
C2687 H2703 0.960 . S
H2688 C2672 0.931 . S
H2689 C2677 0.929 . S
H2690 C2678 0.960 . S
H2691 C2678 0.962 . S
H2692 C2678 0.960 . S
H2693 C2679 0.961 . S
H2694 C2679 0.961 . S
H2695 C2679 0.961 . S
H2696 C2680 0.931 . S
H2697 C2685 0.930 . S
H2698 C2686 0.956 . S
H2699 C2686 0.961 . S
H2700 C2686 0.961 . S
H2701 C2687 0.958 . S
H2702 C2687 0.961 . S
H2703 C2687 0.960 . S
C2704 C2705 1.391 . S
C2704 C2706 1.394 . S
C2704 H2720 0.931 . S
C2705 C2704 1.391 . S
C2705 C2709 1.376 1_545 S
C2706 C2704 1.394 . S
C2706 C2707 1.369 . S
C2706 C2710 1.531 . S
C2707 C2706 1.369 . S
C2707 C2708 1.410 . S
C2707 C2715 1.503 . S
C2708 C2707 1.410 . S
C2708 C2709 1.392 1_545 S
C2708 C2711 1.511 1_545 S
C2709 C2705 1.376 1_565 S
C2709 C2708 1.392 1_565 S
C2709 H2721 0.929 . S
C2710 C2706 1.531 . S
C2710 H2722 0.960 . S
C2710 H2723 0.962 . S
C2710 H2724 0.960 . S
C2711 C2708 1.511 1_565 S
C2711 H2725 0.961 . S
C2711 H2726 0.961 . S
C2711 H2727 0.961 1_565 S
C2712 C2713 1.370 1_565 S
C2712 C2714 1.363 . S
C2712 H2728 0.931 . S
C2713 C2712 1.370 1_545 S
C2713 C2717 1.408 . S
C2714 C2712 1.363 . S
C2714 C2715 1.370 1_565 S
C2714 C2718 1.524 . S
C2715 C2707 1.503 . S
C2715 C2714 1.370 1_545 S
C2715 C2716 1.403 . S
C2716 C2715 1.403 . S
C2716 C2717 1.404 . S
C2716 C2719 1.539 . S
C2717 C2713 1.408 . S
C2717 C2716 1.404 . S
C2717 H2729 0.930 . S
C2718 C2714 1.524 . S
C2718 H2730 0.956 . S
C2718 H2731 0.961 . S
C2718 H2732 0.961 . S
C2719 C2716 1.539 . S
C2719 H2733 0.958 . S
C2719 H2734 0.961 . S
C2719 H2735 0.960 . S
H2720 C2704 0.931 . S
H2721 C2709 0.929 . S
H2722 C2710 0.960 . S
H2723 C2710 0.962 . S
H2724 C2710 0.960 . S
H2725 C2711 0.961 . S
H2726 C2711 0.961 . S
H2727 C2711 0.961 1_545 S
H2728 C2712 0.931 . S
H2729 C2717 0.930 . S
H2730 C2718 0.956 . S
H2731 C2718 0.961 . S
H2732 C2718 0.961 . S
H2733 C2719 0.958 . S
H2734 C2719 0.961 . S
H2735 C2719 0.960 . S
C2736 C2737 1.391 . S
C2736 C2738 1.394 . S
C2736 H2752 0.931 . S
C2737 C2736 1.391 . S
C2737 C2741 1.376 . S
C2738 C2736 1.394 . S
C2738 C2739 1.369 . S
C2738 C2742 1.531 . S
C2739 C2738 1.369 . S
C2739 C2740 1.410 . S
C2739 C2747 1.503 . S
C2740 C2739 1.410 . S
C2740 C2741 1.392 . S
C2740 C2743 1.511 . S
C2741 C2737 1.376 . S
C2741 C2740 1.392 . S
C2741 H2753 0.929 . S
C2742 C2738 1.531 . S
C2742 H2754 0.960 . S
C2742 H2755 0.962 . S
C2742 H2756 0.960 . S
C2743 C2740 1.511 . S
C2743 H2757 0.961 . S
C2743 H2758 0.961 . S
C2743 H2759 0.961 . S
C2744 C2745 1.370 . S
C2744 C2746 1.363 . S
C2744 H2760 0.931 . S
C2745 C2744 1.370 . S
C2745 C2749 1.408 . S
C2746 C2744 1.363 . S
C2746 C2747 1.370 . S
C2746 C2750 1.524 . S
C2747 C2739 1.503 . S
C2747 C2746 1.370 . S
C2747 C2748 1.403 . S
C2748 C2747 1.403 . S
C2748 C2749 1.404 . S
C2748 C2751 1.539 . S
C2749 C2745 1.408 . S
C2749 C2748 1.404 . S
C2749 H2761 0.930 . S
C2750 C2746 1.524 . S
C2750 H2762 0.956 . S
C2750 H2763 0.961 . S
C2750 H2764 0.961 . S
C2751 C2748 1.539 . S
C2751 H2765 0.958 . S
C2751 H2766 0.961 . S
C2751 H2767 0.960 . S
H2752 C2736 0.931 . S
H2753 C2741 0.929 . S
H2754 C2742 0.960 . S
H2755 C2742 0.962 . S
H2756 C2742 0.960 . S
H2757 C2743 0.961 . S
H2758 C2743 0.961 . S
H2759 C2743 0.961 . S
H2760 C2744 0.931 . S
H2761 C2749 0.930 . S
H2762 C2750 0.956 . S
H2763 C2750 0.961 . S
H2764 C2750 0.961 . S
H2765 C2751 0.958 . S
H2766 C2751 0.961 . S
H2767 C2751 0.960 . S
C2768 C2769 1.391 . S
C2768 C2770 1.394 . S
C2768 H2784 0.931 . S
C2769 C2768 1.391 . S
C2769 C2773 1.376 . S
C2770 C2768 1.394 . S
C2770 C2771 1.369 . S
C2770 C2774 1.531 . S
C2771 C2770 1.369 . S
C2771 C2772 1.410 . S
C2771 C2779 1.503 . S
C2772 C2771 1.410 . S
C2772 C2773 1.392 . S
C2772 C2775 1.511 . S
C2773 C2769 1.376 . S
C2773 C2772 1.392 . S
C2773 H2785 0.929 . S
C2774 C2770 1.531 . S
C2774 H2786 0.960 . S
C2774 H2787 0.962 . S
C2774 H2788 0.960 . S
C2775 C2772 1.511 . S
C2775 H2789 0.961 . S
C2775 H2790 0.961 . S
C2775 H2791 0.961 . S
C2776 C2777 1.370 . S
C2776 C2778 1.363 . S
C2776 H2792 0.931 . S
C2777 C2776 1.370 . S
C2777 C2781 1.408 . S
C2778 C2776 1.363 . S
C2778 C2779 1.370 . S
C2778 C2782 1.524 1_545 S
C2779 C2771 1.503 . S
C2779 C2778 1.370 . S
C2779 C2780 1.403 . S
C2780 C2779 1.403 . S
C2780 C2781 1.404 . S
C2780 C2783 1.539 . S
C2781 C2777 1.408 . S
C2781 C2780 1.404 . S
C2781 H2793 0.930 . S
C2782 C2778 1.524 1_565 S
C2782 H2794 0.956 . S
C2782 H2795 0.961 1_565 S
C2782 H2796 0.961 . S
C2783 C2780 1.539 . S
C2783 H2797 0.958 . S
C2783 H2798 0.961 . S
C2783 H2799 0.960 . S
H2784 C2768 0.931 . S
H2785 C2773 0.929 . S
H2786 C2774 0.960 . S
H2787 C2774 0.962 . S
H2788 C2774 0.960 . S
H2789 C2775 0.961 . S
H2790 C2775 0.961 . S
H2791 C2775 0.961 . S
H2792 C2776 0.931 . S
H2793 C2781 0.930 . S
H2794 C2782 0.956 . S
H2795 C2782 0.961 1_545 S
H2796 C2782 0.961 . S
H2797 C2783 0.958 . S
H2798 C2783 0.961 . S
H2799 C2783 0.960 . S
C2800 C2801 1.391 . S
C2800 C2802 1.394 . S
C2800 H2816 0.931 . S
C2801 C2800 1.391 . S
C2801 C2805 1.376 . S
C2802 C2800 1.394 . S
C2802 C2803 1.369 . S
C2802 C2806 1.531 . S
C2803 C2802 1.369 . S
C2803 C2804 1.410 . S
C2803 C2811 1.503 . S
C2804 C2803 1.410 . S
C2804 C2805 1.392 . S
C2804 C2807 1.511 . S
C2805 C2801 1.376 . S
C2805 C2804 1.392 . S
C2805 H2817 0.929 . S
C2806 C2802 1.531 . S
C2806 H2818 0.960 . S
C2806 H2819 0.962 . S
C2806 H2820 0.960 . S
C2807 C2804 1.511 . S
C2807 H2821 0.961 . S
C2807 H2822 0.961 . S
C2807 H2823 0.961 . S
C2808 C2809 1.370 . S
C2808 C2810 1.363 . S
C2808 H2824 0.931 . S
C2809 C2808 1.370 . S
C2809 C2813 1.408 . S
C2810 C2808 1.363 . S
C2810 C2811 1.370 . S
C2810 C2814 1.524 . S
C2811 C2803 1.503 . S
C2811 C2810 1.370 . S
C2811 C2812 1.403 . S
C2812 C2811 1.403 . S
C2812 C2813 1.404 . S
C2812 C2815 1.539 . S
C2813 C2809 1.408 . S
C2813 C2812 1.404 . S
C2813 H2825 0.930 . S
C2814 C2810 1.524 . S
C2814 H2826 0.956 . S
C2814 H2827 0.961 . S
C2814 H2828 0.961 . S
C2815 C2812 1.539 . S
C2815 H2829 0.958 . S
C2815 H2830 0.961 . S
C2815 H2831 0.960 . S
H2816 C2800 0.931 . S
H2817 C2805 0.929 . S
H2818 C2806 0.960 . S
H2819 C2806 0.962 . S
H2820 C2806 0.960 . S
H2821 C2807 0.961 . S
H2822 C2807 0.961 . S
H2823 C2807 0.961 . S
H2824 C2808 0.931 . S
H2825 C2813 0.930 . S
H2826 C2814 0.956 . S
H2827 C2814 0.961 . S
H2828 C2814 0.961 . S
H2829 C2815 0.958 . S
H2830 C2815 0.961 . S
H2831 C2815 0.960 . S
C2832 C2833 1.391 1_545 S
C2832 C2834 1.394 . S
C2832 H2848 0.931 . S
C2833 C2832 1.391 1_565 S
C2833 C2837 1.376 . S
C2834 C2832 1.394 . S
C2834 C2835 1.369 . S
C2834 C2838 1.531 . S
C2835 C2834 1.369 . S
C2835 C2836 1.410 1_545 S
C2835 C2843 1.503 . S
C2836 C2835 1.410 1_565 S
C2836 C2837 1.392 . S
C2836 C2839 1.511 . S
C2837 C2833 1.376 . S
C2837 C2836 1.392 . S
C2837 H2849 0.929 . S
C2838 C2834 1.531 . S
C2838 H2850 0.960 . S
C2838 H2851 0.962 . S
C2838 H2852 0.960 . S
C2839 C2836 1.511 . S
C2839 H2853 0.961 . S
C2839 H2854 0.961 . S
C2839 H2855 0.961 . S
C2840 C2841 1.370 . S
C2840 C2842 1.363 . S
C2840 H2856 0.931 . S
C2841 C2840 1.370 . S
C2841 C2845 1.408 . S
C2842 C2840 1.363 . S
C2842 C2843 1.370 . S
C2842 C2846 1.524 . S
C2843 C2835 1.503 . S
C2843 C2842 1.370 . S
C2843 C2844 1.411 . S
C2844 C2843 1.411 . S
C2844 C2845 1.423 . S
C2844 C2847 1.511 1_545 S
C2845 C2841 1.408 . S
C2845 C2844 1.423 . S
C2845 H2857 0.927 1_545 S
C2846 C2842 1.524 . S
C2846 H2858 0.956 . S
C2846 H2859 0.961 . S
C2846 H2860 0.961 . S
C2847 C2844 1.511 1_565 S
C2847 H2861 0.958 . S
C2847 H2862 0.961 . S
C2847 H2863 0.960 . S
H2848 C2832 0.931 . S
H2849 C2837 0.929 . S
H2850 C2838 0.960 . S
H2851 C2838 0.962 . S
H2852 C2838 0.960 . S
H2853 C2839 0.961 . S
H2854 C2839 0.961 . S
H2855 C2839 0.961 . S
H2856 C2840 0.931 . S
H2857 C2845 0.927 1_565 S
H2858 C2846 0.956 . S
H2859 C2846 0.961 . S
H2860 C2846 0.961 . S
H2861 C2847 0.958 . S
H2862 C2847 0.961 . S
H2863 C2847 0.960 . S
C2864 C2865 1.391 . S
C2864 C2866 1.394 . S
C2864 H2880 0.931 . S
C2865 C2864 1.391 . S
C2865 C2869 1.376 . S
C2866 C2864 1.394 . S
C2866 C2867 1.369 . S
C2866 C2870 1.531 . S
C2867 C2866 1.369 . S
C2867 C2868 1.410 . S
C2867 C2875 1.503 . S
C2868 C2867 1.410 . S
C2868 C2869 1.392 . S
C2868 C2871 1.511 . S
C2869 C2865 1.376 . S
C2869 C2868 1.392 . S
C2869 H2881 0.929 . S
C2870 C2866 1.531 . S
C2870 H2882 0.960 . S
C2870 H2883 0.962 . S
C2870 H2884 0.960 . S
C2871 C2868 1.511 . S
C2871 H2885 0.961 . S
C2871 H2886 0.961 . S
C2871 H2887 0.961 . S
C2872 C2873 1.370 . S
C2872 C2874 1.363 . S
C2872 H2888 0.931 . S
C2873 C2872 1.370 . S
C2873 C2877 1.408 . S
C2874 C2872 1.363 . S
C2874 C2875 1.370 . S
C2874 C2878 1.524 . S
C2875 C2867 1.503 . S
C2875 C2874 1.370 . S
C2875 C2876 1.403 . S
C2876 C2875 1.403 . S
C2876 C2877 1.404 . S
C2876 C2879 1.539 . S
C2877 C2873 1.408 . S
C2877 C2876 1.404 . S
C2877 H2889 0.930 . S
C2878 C2874 1.524 . S
C2878 H2890 0.956 . S
C2878 H2891 0.961 . S
C2878 H2892 0.961 . S
C2879 C2876 1.539 . S
C2879 H2893 0.958 . S
C2879 H2894 0.961 . S
C2879 H2895 0.960 . S
H2880 C2864 0.931 . S
H2881 C2869 0.929 . S
H2882 C2870 0.960 . S
H2883 C2870 0.962 . S
H2884 C2870 0.960 . S
H2885 C2871 0.961 . S
H2886 C2871 0.961 . S
H2887 C2871 0.961 . S
H2888 C2872 0.931 . S
H2889 C2877 0.930 . S
H2890 C2878 0.956 . S
H2891 C2878 0.961 . S
H2892 C2878 0.961 . S
H2893 C2879 0.958 . S
H2894 C2879 0.961 . S
H2895 C2879 0.960 . S
C2896 C2897 1.391 . S
C2896 C2898 1.394 . S
C2896 H2912 0.931 . S
C2897 C2896 1.391 . S
C2897 C2901 1.376 . S
C2898 C2896 1.394 . S
C2898 C2899 1.369 . S
C2898 C2902 1.531 . S
C2899 C2898 1.369 . S
C2899 C2900 1.410 . S
C2899 C2907 1.503 . S
C2900 C2899 1.410 . S
C2900 C2901 1.392 . S
C2900 C2903 1.511 1_545 S
C2901 C2897 1.376 . S
C2901 C2900 1.392 . S
C2901 H2913 0.929 1_545 S
C2902 C2898 1.531 . S
C2902 H2914 0.960 . S
C2902 H2915 0.962 . S
C2902 H2916 0.960 . S
C2903 C2900 1.511 1_565 S
C2903 H2917 0.961 . S
C2903 H2918 0.961 . S
C2903 H2919 0.961 1_565 S
C2904 C2905 1.345 1_565 S
C2904 C2906 1.367 1_565 S
C2904 H2920 0.955 . S
C2905 C2904 1.345 1_545 S
C2905 C2909 1.408 . S
C2906 C2904 1.367 1_545 S
C2906 C2907 1.369 . S
C2906 C2910 1.526 1_545 S
C2907 C2899 1.503 . S
C2907 C2906 1.369 . S
C2907 C2908 1.403 . S
C2908 C2907 1.403 . S
C2908 C2909 1.404 . S
C2908 C2911 1.539 . S
C2909 C2905 1.408 . S
C2909 C2908 1.404 . S
C2909 H2921 0.930 . S
C2910 C2906 1.526 1_565 S
C2910 H2922 0.956 . S
C2910 H2923 0.961 . S
C2910 H2924 0.961 . S
C2911 C2908 1.539 . S
C2911 H2925 0.958 . S
C2911 H2926 0.961 . S
C2911 H2927 0.960 . S
H2912 C2896 0.931 . S
H2913 C2901 0.929 1_565 S
H2914 C2902 0.960 . S
H2915 C2902 0.962 . S
H2916 C2902 0.960 . S
H2917 C2903 0.961 . S
H2918 C2903 0.961 . S
H2919 C2903 0.961 1_545 S
H2920 C2904 0.955 . S
H2921 C2909 0.930 . S
H2922 C2910 0.956 . S
H2923 C2910 0.961 . S
H2924 C2910 0.961 . S
H2925 C2911 0.958 . S
H2926 C2911 0.961 . S
H2927 C2911 0.960 . S
C2928 C2929 1.391 . S
C2928 C2930 1.394 . S
C2928 H2944 0.931 . S
C2929 C2928 1.391 . S
C2929 C2933 1.376 . S
C2930 C2928 1.394 . S
C2930 C2931 1.369 . S
C2930 C2934 1.531 . S
C2931 C2930 1.369 . S
C2931 C2932 1.410 . S
C2931 C2939 1.503 . S
C2932 C2931 1.410 . S
C2932 C2933 1.392 . S
C2932 C2935 1.511 . S
C2933 C2929 1.376 . S
C2933 C2932 1.392 . S
C2933 H2945 0.929 . S
C2934 C2930 1.531 . S
C2934 H2946 0.960 . S
C2934 H2947 0.962 . S
C2934 H2948 0.960 . S
C2935 C2932 1.511 . S
C2935 H2949 0.961 . S
C2935 H2950 0.961 . S
C2935 H2951 0.961 . S
C2936 C2937 1.370 . S
C2936 C2938 1.363 . S
C2936 H2952 0.931 . S
C2937 C2936 1.370 . S
C2937 C2941 1.408 . S
C2938 C2936 1.363 . S
C2938 C2939 1.370 . S
C2938 C2942 1.524 . S
C2939 C2931 1.503 . S
C2939 C2938 1.370 . S
C2939 C2940 1.403 . S
C2940 C2939 1.403 . S
C2940 C2941 1.404 . S
C2940 C2943 1.539 . S
C2941 C2937 1.408 . S
C2941 C2940 1.404 . S
C2941 H2953 0.930 . S
C2942 C2938 1.524 . S
C2942 H2954 0.956 . S
C2942 H2955 0.961 . S
C2942 H2956 0.961 . S
C2943 C2940 1.539 . S
C2943 H2957 0.958 . S
C2943 H2958 0.961 . S
C2943 H2959 0.960 . S
H2944 C2928 0.931 . S
H2945 C2933 0.929 . S
H2946 C2934 0.960 . S
H2947 C2934 0.962 . S
H2948 C2934 0.960 . S
H2949 C2935 0.961 . S
H2950 C2935 0.961 . S
H2951 C2935 0.961 . S
H2952 C2936 0.931 . S
H2953 C2941 0.930 . S
H2954 C2942 0.956 . S
H2955 C2942 0.961 . S
H2956 C2942 0.961 . S
H2957 C2943 0.958 . S
H2958 C2943 0.961 . S
H2959 C2943 0.960 . S
C2960 C2961 1.369 1_556 S
C2960 C2962 1.398 . S
C2960 H2976 0.949 . S
C2961 C2960 1.369 1_554 S
C2961 C2965 1.376 . S
C2962 C2960 1.398 . S
C2962 C2963 1.369 1_556 S
C2962 C2966 1.531 . S
C2963 C2962 1.369 1_554 S
C2963 C2964 1.410 . S
C2963 C2971 1.503 . S
C2964 C2963 1.410 . S
C2964 C2965 1.392 . S
C2964 C2967 1.511 . S
C2965 C2961 1.376 . S
C2965 C2964 1.392 . S
C2965 H2977 0.929 . S
C2966 C2962 1.531 . S
C2966 H2978 0.960 . S
C2966 H2979 0.962 . S
C2966 H2980 0.960 . S
C2967 C2964 1.511 . S
C2967 H2981 0.961 . S
C2967 H2982 0.961 . S
C2967 H2983 0.961 . S
C2968 C2969 1.370 . S
C2968 C2970 1.363 . S
C2968 H2984 0.931 . S
C2969 C2968 1.370 . S
C2969 C2973 1.408 1_554 S
C2970 C2968 1.363 . S
C2970 C2971 1.370 . S
C2970 C2974 1.524 . S
C2971 C2963 1.503 . S
C2971 C2970 1.370 . S
C2971 C2972 1.419 . S
C2972 C2971 1.419 . S
C2972 C2973 1.402 1_554 S
C2972 C2975 1.527 1_554 S
C2973 C2969 1.408 1_556 S
C2973 C2972 1.402 1_556 S
C2973 H2985 0.930 . S
C2974 C2970 1.524 . S
C2974 H2986 0.956 . S
C2974 H2987 0.961 . S
C2974 H2988 0.961 . S
C2975 C2972 1.527 1_556 S
C2975 H2989 0.958 . S
C2975 H2990 0.962 . S
C2975 H2991 0.960 1_556 S
H2976 C2960 0.949 . S
H2977 C2965 0.929 . S
H2978 C2966 0.960 . S
H2979 C2966 0.962 . S
H2980 C2966 0.960 . S
H2981 C2967 0.961 . S
H2982 C2967 0.961 . S
H2983 C2967 0.961 . S
H2984 C2968 0.931 . S
H2985 C2973 0.930 . S
H2986 C2974 0.956 . S
H2987 C2974 0.961 . S
H2988 C2974 0.961 . S
H2989 C2975 0.958 . S
H2990 C2975 0.962 . S
H2991 C2975 0.960 1_554 S
C2992 C2993 1.391 . S
C2992 C2994 1.394 . S
C2992 H3008 0.931 . S
C2993 C2992 1.391 . S
C2993 C2997 1.376 . S
C2994 C2992 1.394 . S
C2994 C2995 1.369 . S
C2994 C2998 1.531 1_554 S
C2995 C2994 1.369 . S
C2995 C2996 1.410 . S
C2995 C3003 1.503 . S
C2996 C2995 1.410 . S
C2996 C2997 1.392 . S
C2996 C2999 1.511 . S
C2997 C2993 1.376 . S
C2997 C2996 1.392 . S
C2997 H3009 0.929 . S
C2998 C2994 1.531 1_556 S
C2998 H3010 0.960 . S
C2998 H3011 0.962 . S
C2998 H3012 0.960 . S
C2999 C2996 1.511 . S
C2999 H3013 0.961 . S
C2999 H3014 0.961 . S
C2999 H3015 0.961 . S
C3000 C3001 1.370 . S
C3000 C3002 1.363 . S
C3000 H3016 0.931 . S
C3001 C3000 1.370 . S
C3001 C3005 1.408 . S
C3002 C3000 1.363 . S
C3002 C3003 1.370 . S
C3002 C3006 1.524 . S
C3003 C2995 1.503 . S
C3003 C3002 1.370 . S
C3003 C3004 1.403 . S
C3004 C3003 1.403 . S
C3004 C3005 1.404 . S
C3004 C3007 1.539 . S
C3005 C3001 1.408 . S
C3005 C3004 1.404 . S
C3005 H3017 0.930 . S
C3006 C3002 1.524 . S
C3006 H3018 0.956 . S
C3006 H3019 0.961 . S
C3006 H3020 0.961 . S
C3007 C3004 1.539 . S
C3007 H3021 0.958 . S
C3007 H3022 0.961 . S
C3007 H3023 0.960 . S
H3008 C2992 0.931 . S
H3009 C2997 0.929 . S
H3010 C2998 0.960 . S
H3011 C2998 0.962 . S
H3012 C2998 0.960 . S
H3013 C2999 0.961 . S
H3014 C2999 0.961 . S
H3015 C2999 0.961 . S
H3016 C3000 0.931 . S
H3017 C3005 0.930 . S
H3018 C3006 0.956 . S
H3019 C3006 0.961 . S
H3020 C3006 0.961 . S
H3021 C3007 0.958 . S
H3022 C3007 0.961 . S
H3023 C3007 0.960 . S
C3024 C3025 1.391 . S
C3024 C3026 1.394 . S
C3024 H3040 0.931 . S
C3025 C3024 1.391 . S
C3025 C3029 1.376 . S
C3026 C3024 1.394 . S
C3026 C3027 1.369 . S
C3026 C3030 1.531 . S
C3027 C3026 1.369 . S
C3027 C3028 1.410 . S
C3027 C3035 1.503 . S
C3028 C3027 1.410 . S
C3028 C3029 1.392 . S
C3028 C3031 1.511 . S
C3029 C3025 1.376 . S
C3029 C3028 1.392 . S
C3029 H3041 0.929 . S
C3030 C3026 1.531 . S
C3030 H3042 0.960 . S
C3030 H3043 0.962 . S
C3030 H3044 0.960 . S
C3031 C3028 1.511 . S
C3031 H3045 0.961 . S
C3031 H3046 0.961 . S
C3031 H3047 0.961 . S
C3032 C3033 1.370 . S
C3032 C3034 1.363 . S
C3032 H3048 0.931 . S
C3033 C3032 1.370 . S
C3033 C3037 1.408 . S
C3034 C3032 1.363 . S
C3034 C3035 1.370 . S
C3034 C3038 1.524 . S
C3035 C3027 1.503 . S
C3035 C3034 1.370 . S
C3035 C3036 1.403 . S
C3036 C3035 1.403 . S
C3036 C3037 1.404 . S
C3036 C3039 1.539 . S
C3037 C3033 1.408 . S
C3037 C3036 1.404 . S
C3037 H3049 0.930 . S
C3038 C3034 1.524 . S
C3038 H3050 0.956 . S
C3038 H3051 0.961 . S
C3038 H3052 0.961 . S
C3039 C3036 1.539 . S
C3039 H3053 0.958 . S
C3039 H3054 0.961 . S
C3039 H3055 0.960 . S
H3040 C3024 0.931 . S
H3041 C3029 0.929 . S
H3042 C3030 0.960 . S
H3043 C3030 0.962 . S
H3044 C3030 0.960 . S
H3045 C3031 0.961 . S
H3046 C3031 0.961 . S
H3047 C3031 0.961 . S
H3048 C3032 0.931 . S
H3049 C3037 0.930 . S
H3050 C3038 0.956 . S
H3051 C3038 0.961 . S
H3052 C3038 0.961 . S
H3053 C3039 0.958 . S
H3054 C3039 0.961 . S
H3055 C3039 0.960 . S
C3056 C3057 1.391 . S
C3056 C3058 1.394 . S
C3056 H3072 0.931 . S
C3057 C3056 1.391 . S
C3057 C3061 1.376 . S
C3058 C3056 1.394 . S
C3058 C3059 1.369 . S
C3058 C3062 1.531 . S
C3059 C3058 1.369 . S
C3059 C3060 1.410 . S
C3059 C3067 1.503 . S
C3060 C3059 1.410 . S
C3060 C3061 1.392 . S
C3060 C3063 1.511 . S
C3061 C3057 1.376 . S
C3061 C3060 1.392 . S
C3061 H3073 0.929 . S
C3062 C3058 1.531 . S
C3062 H3074 0.960 . S
C3062 H3075 0.962 . S
C3062 H3076 0.960 . S
C3063 C3060 1.511 . S
C3063 H3077 0.961 . S
C3063 H3078 0.961 . S
C3063 H3079 0.961 . S
C3064 C3065 1.370 . S
C3064 C3066 1.363 . S
C3064 H3080 0.931 . S
C3065 C3064 1.370 . S
C3065 C3069 1.408 . S
C3066 C3064 1.363 . S
C3066 C3067 1.370 . S
C3066 C3070 1.524 . S
C3067 C3059 1.503 . S
C3067 C3066 1.370 . S
C3067 C3068 1.403 . S
C3068 C3067 1.403 . S
C3068 C3069 1.404 . S
C3068 C3071 1.539 . S
C3069 C3065 1.408 . S
C3069 C3068 1.404 . S
C3069 H3081 0.930 . S
C3070 C3066 1.524 . S
C3070 H3082 0.956 . S
C3070 H3083 0.961 . S
C3070 H3084 0.961 . S
C3071 C3068 1.539 . S
C3071 H3085 0.958 . S
C3071 H3086 0.961 . S
C3071 H3087 0.960 . S
H3072 C3056 0.931 . S
H3073 C3061 0.929 . S
H3074 C3062 0.960 . S
H3075 C3062 0.962 . S
H3076 C3062 0.960 . S
H3077 C3063 0.961 . S
H3078 C3063 0.961 . S
H3079 C3063 0.961 . S
H3080 C3064 0.931 . S
H3081 C3069 0.930 . S
H3082 C3070 0.956 . S
H3083 C3070 0.961 . S
H3084 C3070 0.961 . S
H3085 C3071 0.958 . S
H3086 C3071 0.961 . S
H3087 C3071 0.960 . S
C3088 C3089 1.391 1_565 S
C3088 C3090 1.394 . S
C3088 H3104 0.931 . S
C3089 C3088 1.391 1_545 S
C3089 C3093 1.376 . S
C3090 C3088 1.394 . S
C3090 C3091 1.369 . S
C3090 C3094 1.531 . S
C3091 C3090 1.369 . S
C3091 C3092 1.410 . S
C3091 C3099 1.503 . S
C3092 C3091 1.410 . S
C3092 C3093 1.392 1_565 S
C3092 C3095 1.511 1_565 S
C3093 C3089 1.376 . S
C3093 C3092 1.392 1_545 S
C3093 H3105 0.929 . S
C3094 C3090 1.531 . S
C3094 H3106 0.960 . S
C3094 H3107 0.962 . S
C3094 H3108 0.960 . S
C3095 C3092 1.511 1_545 S
C3095 H3109 0.961 . S
C3095 H3110 0.961 . S
C3095 H3111 0.961 1_545 S
C3096 C3097 1.370 . S
C3096 C3098 1.363 . S
C3096 H3112 0.931 . S
C3097 C3096 1.370 . S
C3097 C3101 1.408 . S
C3098 C3096 1.363 . S
C3098 C3099 1.370 . S
C3098 C3102 1.524 . S
C3099 C3091 1.503 . S
C3099 C3098 1.370 . S
C3099 C3100 1.403 . S
C3100 C3099 1.403 . S
C3100 C3101 1.404 . S
C3100 C3103 1.539 . S
C3101 C3097 1.408 . S
C3101 C3100 1.404 . S
C3101 H3113 0.930 . S
C3102 C3098 1.524 . S
C3102 H3114 0.956 . S
C3102 H3115 0.961 1_565 S
C3102 H3116 0.961 1_565 S
C3103 C3100 1.539 . S
C3103 H3117 0.958 . S
C3103 H3118 0.961 . S
C3103 H3119 0.960 . S
H3104 C3088 0.931 . S
H3105 C3093 0.929 . S
H3106 C3094 0.960 . S
H3107 C3094 0.962 . S
H3108 C3094 0.960 . S
H3109 C3095 0.961 . S
H3110 C3095 0.961 . S
H3111 C3095 0.961 1_565 S
H3112 C3096 0.931 . S
H3113 C3101 0.930 . S
H3114 C3102 0.956 . S
H3115 C3102 0.961 1_545 S
H3116 C3102 0.961 1_545 S
H3117 C3103 0.958 . S
H3118 C3103 0.961 . S
H3119 C3103 0.960 . S
C3120 C3121 1.391 . S
C3120 C3122 1.394 . S
C3120 H3136 0.931 . S
C3121 C3120 1.391 . S
C3121 C3125 1.376 . S
C3122 C3120 1.394 . S
C3122 C3123 1.369 . S
C3122 C3126 1.531 . S
C3123 C3122 1.369 . S
C3123 C3124 1.410 . S
C3123 C3131 1.503 . S
C3124 C3123 1.410 . S
C3124 C3125 1.392 . S
C3124 C3127 1.511 . S
C3125 C3121 1.376 . S
C3125 C3124 1.392 . S
C3125 H3137 0.929 . S
C3126 C3122 1.531 . S
C3126 H3138 0.960 . S
C3126 H3139 0.962 . S
C3126 H3140 0.960 . S
C3127 C3124 1.511 . S
C3127 H3141 0.961 . S
C3127 H3142 0.961 . S
C3127 H3143 0.961 . S
C3128 C3129 1.370 . S
C3128 C3130 1.363 . S
C3128 H3144 0.931 . S
C3129 C3128 1.370 . S
C3129 C3133 1.408 . S
C3130 C3128 1.363 . S
C3130 C3131 1.370 . S
C3130 C3134 1.524 . S
C3131 C3123 1.503 . S
C3131 C3130 1.370 . S
C3131 C3132 1.403 . S
C3132 C3131 1.403 . S
C3132 C3133 1.404 . S
C3132 C3135 1.539 . S
C3133 C3129 1.408 . S
C3133 C3132 1.404 . S
C3133 H3145 0.930 1_565 S
C3134 C3130 1.524 . S
C3134 H3146 0.956 . S
C3134 H3147 0.961 . S
C3134 H3148 0.961 . S
C3135 C3132 1.539 . S
C3135 H3149 0.958 . S
C3135 H3150 0.961 1_565 S
C3135 H3151 0.960 . S
H3136 C3120 0.931 . S
H3137 C3125 0.929 . S
H3138 C3126 0.960 . S
H3139 C3126 0.962 . S
H3140 C3126 0.960 . S
H3141 C3127 0.961 . S
H3142 C3127 0.961 . S
H3143 C3127 0.961 . S
H3144 C3128 0.931 . S
H3145 C3133 0.930 1_545 S
H3146 C3134 0.956 . S
H3147 C3134 0.961 . S
H3148 C3134 0.961 . S
H3149 C3135 0.958 . S
H3150 C3135 0.961 1_545 S
H3151 C3135 0.960 . S
C3152 C3153 1.391 . S
C3152 C3154 1.394 . S
C3152 H3168 0.931 . S
C3153 C3152 1.391 . S
C3153 C3157 1.376 . S
C3154 C3152 1.394 . S
C3154 C3155 1.369 . S
C3154 C3158 1.531 . S
C3155 C3154 1.369 . S
C3155 C3156 1.410 . S
C3155 C3163 1.503 . S
C3156 C3155 1.410 . S
C3156 C3157 1.392 . S
C3156 C3159 1.511 . S
C3157 C3153 1.376 . S
C3157 C3156 1.392 . S
C3157 H3169 0.929 . S
C3158 C3154 1.531 . S
C3158 H3170 0.960 . S
C3158 H3171 0.962 . S
C3158 H3172 0.960 . S
C3159 C3156 1.511 . S
C3159 H3173 0.961 . S
C3159 H3174 0.961 . S
C3159 H3175 0.961 . S
C3160 C3161 1.370 . S
C3160 C3162 1.363 . S
C3160 H3176 0.931 . S
C3161 C3160 1.370 . S
C3161 C3165 1.408 . S
C3162 C3160 1.363 . S
C3162 C3163 1.370 . S
C3162 C3166 1.524 . S
C3163 C3155 1.503 . S
C3163 C3162 1.370 . S
C3163 C3164 1.403 . S
C3164 C3163 1.403 . S
C3164 C3165 1.404 . S
C3164 C3167 1.539 . S
C3165 C3161 1.408 . S
C3165 C3164 1.404 . S
C3165 H3177 0.930 . S
C3166 C3162 1.524 . S
C3166 H3178 0.956 . S
C3166 H3179 0.961 . S
C3166 H3180 0.961 . S
C3167 C3164 1.539 . S
C3167 H3181 0.958 . S
C3167 H3182 0.961 . S
C3167 H3183 0.960 . S
H3168 C3152 0.931 . S
H3169 C3157 0.929 . S
H3170 C3158 0.960 . S
H3171 C3158 0.962 . S
H3172 C3158 0.960 . S
H3173 C3159 0.961 . S
H3174 C3159 0.961 . S
H3175 C3159 0.961 . S
H3176 C3160 0.931 . S
H3177 C3165 0.930 . S
H3178 C3166 0.956 . S
H3179 C3166 0.961 . S
H3180 C3166 0.961 . S
H3181 C3167 0.958 . S
H3182 C3167 0.961 . S
H3183 C3167 0.960 . S
C3184 C3185 1.391 . S
C3184 C3186 1.394 . S
C3184 H3200 0.931 . S
C3185 C3184 1.391 . S
C3185 C3189 1.376 . S
C3186 C3184 1.394 . S
C3186 C3187 1.369 . S
C3186 C3190 1.531 . S
C3187 C3186 1.369 . S
C3187 C3188 1.410 . S
C3187 C3195 1.503 . S
C3188 C3187 1.410 . S
C3188 C3189 1.392 . S
C3188 C3191 1.511 . S
C3189 C3185 1.376 . S
C3189 C3188 1.392 . S
C3189 H3201 0.929 . S
C3190 C3186 1.531 . S
C3190 H3202 0.960 . S
C3190 H3203 0.962 . S
C3190 H3204 0.960 . S
C3191 C3188 1.511 . S
C3191 H3205 0.961 . S
C3191 H3206 0.961 . S
C3191 H3207 0.961 . S
C3192 C3193 1.370 . S
C3192 C3194 1.363 . S
C3192 H3208 0.931 . S
C3193 C3192 1.370 . S
C3193 C3197 1.408 . S
C3194 C3192 1.363 . S
C3194 C3195 1.370 . S
C3194 C3198 1.524 . S
C3195 C3187 1.503 . S
C3195 C3194 1.370 . S
C3195 C3196 1.403 . S
C3196 C3195 1.403 . S
C3196 C3197 1.404 . S
C3196 C3199 1.539 . S
C3197 C3193 1.408 . S
C3197 C3196 1.404 . S
C3197 H3209 0.930 . S
C3198 C3194 1.524 . S
C3198 H3210 0.956 . S
C3198 H3211 0.961 . S
C3198 H3212 0.961 . S
C3199 C3196 1.539 . S
C3199 H3213 0.958 . S
C3199 H3214 0.961 . S
C3199 H3215 0.960 . S
H3200 C3184 0.931 . S
H3201 C3189 0.929 . S
H3202 C3190 0.960 . S
H3203 C3190 0.962 . S
H3204 C3190 0.960 . S
H3205 C3191 0.961 . S
H3206 C3191 0.961 . S
H3207 C3191 0.961 . S
H3208 C3192 0.931 . S
H3209 C3197 0.930 . S
H3210 C3198 0.956 . S
H3211 C3198 0.961 . S
H3212 C3198 0.961 . S
H3213 C3199 0.958 . S
H3214 C3199 0.961 . S
H3215 C3199 0.960 . S
C3216 C3217 1.391 . S
C3216 C3218 1.394 . S
C3216 H3232 0.931 . S
C3217 C3216 1.391 . S
C3217 C3221 1.376 . S
C3218 C3216 1.394 . S
C3218 C3219 1.369 . S
C3218 C3222 1.531 . S
C3219 C3218 1.369 . S
C3219 C3220 1.410 . S
C3219 C3227 1.503 . S
C3220 C3219 1.410 . S
C3220 C3221 1.392 . S
C3220 C3223 1.511 . S
C3221 C3217 1.376 . S
C3221 C3220 1.392 . S
C3221 H3233 0.929 . S
C3222 C3218 1.531 . S
C3222 H3234 0.960 . S
C3222 H3235 0.962 . S
C3222 H3236 0.960 . S
C3223 C3220 1.511 . S
C3223 H3237 0.961 . S
C3223 H3238 0.961 . S
C3223 H3239 0.961 . S
C3224 C3225 1.370 . S
C3224 C3226 1.363 . S
C3224 H3240 0.931 . S
C3225 C3224 1.370 . S
C3225 C3229 1.408 . S
C3226 C3224 1.363 . S
C3226 C3227 1.370 . S
C3226 C3230 1.524 . S
C3227 C3219 1.503 . S
C3227 C3226 1.370 . S
C3227 C3228 1.403 . S
C3228 C3227 1.403 . S
C3228 C3229 1.404 . S
C3228 C3231 1.539 . S
C3229 C3225 1.408 . S
C3229 C3228 1.404 . S
C3229 H3241 0.930 . S
C3230 C3226 1.524 . S
C3230 H3242 0.956 . S
C3230 H3243 0.961 . S
C3230 H3244 0.961 . S
C3231 C3228 1.539 . S
C3231 H3245 0.958 . S
C3231 H3246 0.961 . S
C3231 H3247 0.960 . S
H3232 C3216 0.931 . S
H3233 C3221 0.929 . S
H3234 C3222 0.960 . S
H3235 C3222 0.962 . S
H3236 C3222 0.960 . S
H3237 C3223 0.961 . S
H3238 C3223 0.961 . S
H3239 C3223 0.961 . S
H3240 C3224 0.931 . S
H3241 C3229 0.930 . S
H3242 C3230 0.956 . S
H3243 C3230 0.961 . S
H3244 C3230 0.961 . S
H3245 C3231 0.958 . S
H3246 C3231 0.961 . S
H3247 C3231 0.960 . S
C3248 C3249 1.391 . S
C3248 C3250 1.394 . S
C3248 H3264 0.931 . S
C3249 C3248 1.391 . S
C3249 C3253 1.376 . S
C3250 C3248 1.394 . S
C3250 C3251 1.369 . S
C3250 C3254 1.531 . S
C3251 C3250 1.369 . S
C3251 C3252 1.410 . S
C3251 C3259 1.503 . S
C3252 C3251 1.410 . S
C3252 C3253 1.392 . S
C3252 C3255 1.511 . S
C3253 C3249 1.376 . S
C3253 C3252 1.392 . S
C3253 H3265 0.929 . S
C3254 C3250 1.531 . S
C3254 H3266 0.960 . S
C3254 H3267 0.962 . S
C3254 H3268 0.960 . S
C3255 C3252 1.511 . S
C3255 H3269 0.961 . S
C3255 H3270 0.961 . S
C3255 H3271 0.961 . S
C3256 C3257 1.370 . S
C3256 C3258 1.363 . S
C3256 H3272 0.931 . S
C3257 C3256 1.370 . S
C3257 C3261 1.408 . S
C3258 C3256 1.363 . S
C3258 C3259 1.370 . S
C3258 C3262 1.524 . S
C3259 C3251 1.503 . S
C3259 C3258 1.370 . S
C3259 C3260 1.403 . S
C3260 C3259 1.403 . S
C3260 C3261 1.404 . S
C3260 C3263 1.539 . S
C3261 C3257 1.408 . S
C3261 C3260 1.404 . S
C3261 H3273 0.930 . S
C3262 C3258 1.524 . S
C3262 H3274 0.956 . S
C3262 H3275 0.961 . S
C3262 H3276 0.961 . S
C3263 C3260 1.539 . S
C3263 H3277 0.958 . S
C3263 H3278 0.961 . S
C3263 H3279 0.960 . S
H3264 C3248 0.931 . S
H3265 C3253 0.929 . S
H3266 C3254 0.960 . S
H3267 C3254 0.962 . S
H3268 C3254 0.960 . S
H3269 C3255 0.961 . S
H3270 C3255 0.961 . S
H3271 C3255 0.961 . S
H3272 C3256 0.931 . S
H3273 C3261 0.930 . S
H3274 C3262 0.956 . S
H3275 C3262 0.961 . S
H3276 C3262 0.961 . S
H3277 C3263 0.958 . S
H3278 C3263 0.961 . S
H3279 C3263 0.960 . S
C3280 C3281 1.391 . S
C3280 C3282 1.394 . S
C3280 H3296 0.931 1_455 S
C3281 C3280 1.391 . S
C3281 C3285 1.376 . S
C3282 C3280 1.394 . S
C3282 C3283 1.369 . S
C3282 C3286 1.531 1_455 S
C3283 C3282 1.369 . S
C3283 C3284 1.410 . S
C3283 C3291 1.503 . S
C3284 C3283 1.410 . S
C3284 C3285 1.392 . S
C3284 C3287 1.511 1_556 S
C3285 C3281 1.376 . S
C3285 C3284 1.392 . S
C3285 H3297 0.929 . S
C3286 C3282 1.531 1_655 S
C3286 H3298 0.960 . S
C3286 H3299 0.962 . S
C3286 H3300 0.960 . S
C3287 C3284 1.511 1_554 S
C3287 H3301 0.961 . S
C3287 H3302 0.961 . S
C3287 H3303 0.961 . S
C3288 C3289 1.370 1_556 S
C3288 C3290 1.363 . S
C3288 H3304 0.931 . S
C3289 C3288 1.370 1_554 S
C3289 C3293 1.408 . S
C3290 C3288 1.363 . S
C3290 C3291 1.370 . S
C3290 C3294 1.524 . S
C3291 C3283 1.503 . S
C3291 C3290 1.370 . S
C3291 C3292 1.403 1_556 S
C3292 C3291 1.403 1_554 S
C3292 C3293 1.404 . S
C3292 C3295 1.539 . S
C3293 C3289 1.408 . S
C3293 C3292 1.404 . S
C3293 H3305 0.930 . S
C3294 C3290 1.524 . S
C3294 H3306 0.956 . S
C3294 H3307 0.961 . S
C3294 H3308 0.961 . S
C3295 C3292 1.539 . S
C3295 H3309 0.958 . S
C3295 H3310 0.961 . S
C3295 H3311 0.960 . S
H3296 C3280 0.931 1_655 S
H3297 C3285 0.929 . S
H3298 C3286 0.960 . S
H3299 C3286 0.962 . S
H3300 C3286 0.960 . S
H3301 C3287 0.961 . S
H3302 C3287 0.961 . S
H3303 C3287 0.961 . S
H3304 C3288 0.931 . S
H3305 C3293 0.930 . S
H3306 C3294 0.956 . S
H3307 C3294 0.961 . S
H3308 C3294 0.961 . S
H3309 C3295 0.958 . S
H3310 C3295 0.961 . S
H3311 C3295 0.960 . S
C3312 C3313 1.391 . S
C3312 C3314 1.394 1_455 S
C3312 H3328 0.931 . S
C3313 C3312 1.391 . S
C3313 C3317 1.376 . S
C3314 C3312 1.394 1_655 S
C3314 C3315 1.369 . S
C3314 C3318 1.531 . S
C3315 C3314 1.369 . S
C3315 C3316 1.410 1_655 S
C3315 C3323 1.503 . S
C3316 C3315 1.410 1_455 S
C3316 C3317 1.392 . S
C3316 C3319 1.511 . S
C3317 C3313 1.376 . S
C3317 C3316 1.392 . S
C3317 H3329 0.929 . S
C3318 C3314 1.531 . S
C3318 H3330 0.960 . S
C3318 H3331 0.962 . S
C3318 H3332 0.960 . S
C3319 C3316 1.511 . S
C3319 H3333 0.961 . S
C3319 H3334 0.961 . S
C3319 H3335 0.961 . S
C3320 C3321 1.370 . S
C3320 C3322 1.363 . S
C3320 H3336 0.931 . S
C3321 C3320 1.370 . S
C3321 C3325 1.408 . S
C3322 C3320 1.363 . S
C3322 C3323 1.370 . S
C3322 C3326 1.524 . S
C3323 C3315 1.503 . S
C3323 C3322 1.370 . S
C3323 C3324 1.403 . S
C3324 C3323 1.403 . S
C3324 C3325 1.404 . S
C3324 C3327 1.539 . S
C3325 C3321 1.408 . S
C3325 C3324 1.404 . S
C3325 H3337 0.930 . S
C3326 C3322 1.524 . S
C3326 H3338 0.956 . S
C3326 H3339 0.961 1_655 S
C3326 H3340 0.961 . S
C3327 C3324 1.539 . S
C3327 H3341 0.958 . S
C3327 H3342 0.961 . S
C3327 H3343 0.960 . S
H3328 C3312 0.931 . S
H3329 C3317 0.929 . S
H3330 C3318 0.960 . S
H3331 C3318 0.962 . S
H3332 C3318 0.960 . S
H3333 C3319 0.961 . S
H3334 C3319 0.961 . S
H3335 C3319 0.961 . S
H3336 C3320 0.931 . S
H3337 C3325 0.930 . S
H3338 C3326 0.956 . S
H3339 C3326 0.961 1_455 S
H3340 C3326 0.961 . S
H3341 C3327 0.958 . S
H3342 C3327 0.961 . S
H3343 C3327 0.960 . S
C3344 C3345 1.391 . S
C3344 C3346 1.394 . S
C3344 H3360 0.931 . S
C3345 C3344 1.391 . S
C3345 C3349 1.376 . S
C3346 C3344 1.394 . S
C3346 C3347 1.369 . S
C3346 C3350 1.531 . S
C3347 C3346 1.369 . S
C3347 C3348 1.410 . S
C3347 C3355 1.503 . S
C3348 C3347 1.410 . S
C3348 C3349 1.392 . S
C3348 C3351 1.511 . S
C3349 C3345 1.376 . S
C3349 C3348 1.392 . S
C3349 H3361 0.929 . S
C3350 C3346 1.531 . S
C3350 H3362 0.960 . S
C3350 H3363 0.962 . S
C3350 H3364 0.960 . S
C3351 C3348 1.511 . S
C3351 H3365 0.961 . S
C3351 H3366 0.961 . S
C3351 H3367 0.961 . S
C3352 C3353 1.370 . S
C3352 C3354 1.363 . S
C3352 H3368 0.931 . S
C3353 C3352 1.370 . S
C3353 C3357 1.408 . S
C3354 C3352 1.363 . S
C3354 C3355 1.370 . S
C3354 C3358 1.524 . S
C3355 C3347 1.503 . S
C3355 C3354 1.370 . S
C3355 C3356 1.403 . S
C3356 C3355 1.403 . S
C3356 C3357 1.404 . S
C3356 C3359 1.539 . S
C3357 C3353 1.408 . S
C3357 C3356 1.404 . S
C3357 H3369 0.930 . S
C3358 C3354 1.524 . S
C3358 H3370 0.956 . S
C3358 H3371 0.961 . S
C3358 H3372 0.961 . S
C3359 C3356 1.539 . S
C3359 H3373 0.958 . S
C3359 H3374 0.961 . S
C3359 H3375 0.960 . S
H3360 C3344 0.931 . S
H3361 C3349 0.929 . S
H3362 C3350 0.960 . S
H3363 C3350 0.962 . S
H3364 C3350 0.960 . S
H3365 C3351 0.961 . S
H3366 C3351 0.961 . S
H3367 C3351 0.961 . S
H3368 C3352 0.931 . S
H3369 C3357 0.930 . S
H3370 C3358 0.956 . S
H3371 C3358 0.961 . S
H3372 C3358 0.961 . S
H3373 C3359 0.958 . S
H3374 C3359 0.961 . S
H3375 C3359 0.960 . S
C3376 C3377 1.391 . S
C3376 C3378 1.394 . S
C3376 H3392 0.931 . S
C3377 C3376 1.391 . S
C3377 C3381 1.376 . S
C3378 C3376 1.394 . S
C3378 C3379 1.369 . S
C3378 C3382 1.531 . S
C3379 C3378 1.369 . S
C3379 C3380 1.410 . S
C3379 C3387 1.503 1_455 S
C3380 C3379 1.410 . S
C3380 C3381 1.392 . S
C3380 C3383 1.511 . S
C3381 C3377 1.376 . S
C3381 C3380 1.392 . S
C3381 H3393 0.929 . S
C3382 C3378 1.531 . S
C3382 H3394 0.960 . S
C3382 H3395 0.962 . S
C3382 H3396 0.960 . S
C3383 C3380 1.511 . S
C3383 H3397 0.961 . S
C3383 H3398 0.961 1_455 S
C3383 H3399 0.961 . S
C3384 C3385 1.370 . S
C3384 C3386 1.363 . S
C3384 H3400 0.931 . S
C3385 C3384 1.370 . S
C3385 C3389 1.408 . S
C3386 C3384 1.363 . S
C3386 C3387 1.370 . S
C3386 C3390 1.524 . S
C3387 C3379 1.503 1_655 S
C3387 C3386 1.370 . S
C3387 C3388 1.403 . S
C3388 C3387 1.403 . S
C3388 C3389 1.404 . S
C3388 C3391 1.539 1_655 S
C3389 C3385 1.408 . S
C3389 C3388 1.404 . S
C3389 H3401 0.930 . S
C3390 C3386 1.524 . S
C3390 H3402 0.956 . S
C3390 H3403 0.961 . S
C3390 H3404 0.961 . S
C3391 C3388 1.539 1_455 S
C3391 H3405 0.958 . S
C3391 H3406 0.961 1_455 S
C3391 H3407 0.960 . S
H3392 C3376 0.931 . S
H3393 C3381 0.929 . S
H3394 C3382 0.960 . S
H3395 C3382 0.962 . S
H3396 C3382 0.960 . S
H3397 C3383 0.961 . S
H3398 C3383 0.961 1_655 S
H3399 C3383 0.961 . S
H3400 C3384 0.931 . S
H3401 C3389 0.930 . S
H3402 C3390 0.956 . S
H3403 C3390 0.961 . S
H3404 C3390 0.961 . S
H3405 C3391 0.958 . S
H3406 C3391 0.961 1_655 S
H3407 C3391 0.960 . S
C3408 C3409 1.391 1_455 S
C3408 C3410 1.394 . S
C3408 H3424 0.931 . S
C3409 C3408 1.391 1_655 S
C3409 C3413 1.376 . S
C3410 C3408 1.394 . S
C3410 C3411 1.369 . S
C3410 C3414 1.531 . S
C3411 C3410 1.369 . S
C3411 C3412 1.410 1_455 S
C3411 C3419 1.503 . S
C3412 C3411 1.410 1_655 S
C3412 C3413 1.392 . S
C3412 C3415 1.511 . S
C3413 C3409 1.376 . S
C3413 C3412 1.392 . S
C3413 H3425 0.929 . S
C3414 C3410 1.531 . S
C3414 H3426 0.960 . S
C3414 H3427 0.962 . S
C3414 H3428 0.960 . S
C3415 C3412 1.511 . S
C3415 H3429 0.961 . S
C3415 H3430 0.961 . S
C3415 H3431 0.961 . S
C3416 C3417 1.370 . S
C3416 C3418 1.363 . S
C3416 H3432 0.931 . S
C3417 C3416 1.370 . S
C3417 C3421 1.408 . S
C3418 C3416 1.363 . S
C3418 C3419 1.370 . S
C3418 C3422 1.524 . S
C3419 C3411 1.503 . S
C3419 C3418 1.370 . S
C3419 C3420 1.403 . S
C3420 C3419 1.403 . S
C3420 C3421 1.404 . S
C3420 C3423 1.539 . S
C3421 C3417 1.408 . S
C3421 C3420 1.404 . S
C3421 H3433 0.930 . S
C3422 C3418 1.524 . S
C3422 H3434 0.956 . S
C3422 H3435 0.961 . S
C3422 H3436 0.961 . S
C3423 C3420 1.539 . S
C3423 H3437 0.958 . S
C3423 H3438 0.961 1_455 S
C3423 H3439 0.960 1_455 S
H3424 C3408 0.931 . S
H3425 C3413 0.929 . S
H3426 C3414 0.960 . S
H3427 C3414 0.962 . S
H3428 C3414 0.960 . S
H3429 C3415 0.961 . S
H3430 C3415 0.961 . S
H3431 C3415 0.961 . S
H3432 C3416 0.931 . S
H3433 C3421 0.930 . S
H3434 C3422 0.956 . S
H3435 C3422 0.961 . S
H3436 C3422 0.961 . S
H3437 C3423 0.958 . S
H3438 C3423 0.961 1_655 S
H3439 C3423 0.960 1_655 S
C3440 C3441 1.391 . S
C3440 C3442 1.394 . S
C3440 H3456 0.931 . S
C3441 C3440 1.391 . S
C3441 C3445 1.376 . S
C3442 C3440 1.394 . S
C3442 C3443 1.369 . S
C3442 C3446 1.531 . S
C3443 C3442 1.369 . S
C3443 C3444 1.410 . S
C3443 C3451 1.503 . S
C3444 C3443 1.410 . S
C3444 C3445 1.392 . S
C3444 C3447 1.511 . S
C3445 C3441 1.376 . S
C3445 C3444 1.392 . S
C3445 H3457 0.929 . S
C3446 C3442 1.531 . S
C3446 H3458 0.960 . S
C3446 H3459 0.962 . S
C3446 H3460 0.960 . S
C3447 C3444 1.511 . S
C3447 H3461 0.961 . S
C3447 H3462 0.961 . S
C3447 H3463 0.961 . S
C3448 C3449 1.370 . S
C3448 C3450 1.363 . S
C3448 H3464 0.931 . S
C3449 C3448 1.370 . S
C3449 C3453 1.408 . S
C3450 C3448 1.363 . S
C3450 C3451 1.370 . S
C3450 C3454 1.524 . S
C3451 C3443 1.503 . S
C3451 C3450 1.370 . S
C3451 C3452 1.403 . S
C3452 C3451 1.403 . S
C3452 C3453 1.404 . S
C3452 C3455 1.539 . S
C3453 C3449 1.408 . S
C3453 C3452 1.404 . S
C3453 H3465 0.930 . S
C3454 C3450 1.524 . S
C3454 H3466 0.956 . S
C3454 H3467 0.961 . S
C3454 H3468 0.961 . S
C3455 C3452 1.539 . S
C3455 H3469 0.958 . S
C3455 H3470 0.961 . S
C3455 H3471 0.960 . S
H3456 C3440 0.931 . S
H3457 C3445 0.929 . S
H3458 C3446 0.960 . S
H3459 C3446 0.962 . S
H3460 C3446 0.960 . S
H3461 C3447 0.961 . S
H3462 C3447 0.961 . S
H3463 C3447 0.961 . S
H3464 C3448 0.931 . S
H3465 C3453 0.930 . S
H3466 C3454 0.956 . S
H3467 C3454 0.961 . S
H3468 C3454 0.961 . S
H3469 C3455 0.958 . S
H3470 C3455 0.961 . S
H3471 C3455 0.960 . S
C3472 C3473 1.391 . S
C3472 C3474 1.394 . S
C3472 H3488 0.931 . S
C3473 C3472 1.391 . S
C3473 C3477 1.376 . S
C3474 C3472 1.394 . S
C3474 C3475 1.369 . S
C3474 C3478 1.531 . S
C3475 C3474 1.369 . S
C3475 C3476 1.410 . S
C3475 C3483 1.503 . S
C3476 C3475 1.410 . S
C3476 C3477 1.392 . S
C3476 C3479 1.511 . S
C3477 C3473 1.376 . S
C3477 C3476 1.392 . S
C3477 H3489 0.929 . S
C3478 C3474 1.531 . S
C3478 H3490 0.960 . S
C3478 H3491 0.962 . S
C3478 H3492 0.960 . S
C3479 C3476 1.511 . S
C3479 H3493 0.961 . S
C3479 H3494 0.961 . S
C3479 H3495 0.961 . S
C3480 C3481 1.370 . S
C3480 C3482 1.363 . S
C3480 H3496 0.931 . S
C3481 C3480 1.370 . S
C3481 C3485 1.408 . S
C3482 C3480 1.363 . S
C3482 C3483 1.370 . S
C3482 C3486 1.524 . S
C3483 C3475 1.503 . S
C3483 C3482 1.370 . S
C3483 C3484 1.403 . S
C3484 C3483 1.403 . S
C3484 C3485 1.404 . S
C3484 C3487 1.539 . S
C3485 C3481 1.408 . S
C3485 C3484 1.404 . S
C3485 H3497 0.930 . S
C3486 C3482 1.524 . S
C3486 H3498 0.956 . S
C3486 H3499 0.961 . S
C3486 H3500 0.961 . S
C3487 C3484 1.539 . S
C3487 H3501 0.958 . S
C3487 H3502 0.961 . S
C3487 H3503 0.960 . S
H3488 C3472 0.931 . S
H3489 C3477 0.929 . S
H3490 C3478 0.960 . S
H3491 C3478 0.962 . S
H3492 C3478 0.960 . S
H3493 C3479 0.961 . S
H3494 C3479 0.961 . S
H3495 C3479 0.961 . S
H3496 C3480 0.931 . S
H3497 C3485 0.930 . S
H3498 C3486 0.956 . S
H3499 C3486 0.961 . S
H3500 C3486 0.961 . S
H3501 C3487 0.958 . S
H3502 C3487 0.961 . S
H3503 C3487 0.960 . S
C3504 C3505 1.391 . S
C3504 C3506 1.394 . S
C3504 H3520 0.931 . S
C3505 C3504 1.391 . S
C3505 C3509 1.376 . S
C3506 C3504 1.394 . S
C3506 C3507 1.369 . S
C3506 C3510 1.531 . S
C3507 C3506 1.369 . S
C3507 C3508 1.410 . S
C3507 C3515 1.503 . S
C3508 C3507 1.410 . S
C3508 C3509 1.392 . S
C3508 C3511 1.511 . S
C3509 C3505 1.376 . S
C3509 C3508 1.392 . S
C3509 H3521 0.929 . S
C3510 C3506 1.531 . S
C3510 H3522 0.960 . S
C3510 H3523 0.962 . S
C3510 H3524 0.960 . S
C3511 C3508 1.511 . S
C3511 H3525 0.961 . S
C3511 H3526 0.961 . S
C3511 H3527 0.961 . S
C3512 C3513 1.370 . S
C3512 C3514 1.363 . S
C3512 H3528 0.931 . S
C3513 C3512 1.370 . S
C3513 C3517 1.408 . S
C3514 C3512 1.363 . S
C3514 C3515 1.370 . S
C3514 C3518 1.524 . S
C3515 C3507 1.503 . S
C3515 C3514 1.370 . S
C3515 C3516 1.403 . S
C3516 C3515 1.403 . S
C3516 C3517 1.404 . S
C3516 C3519 1.539 . S
C3517 C3513 1.408 . S
C3517 C3516 1.404 . S
C3517 H3529 0.930 . S
C3518 C3514 1.524 . S
C3518 H3530 0.956 . S
C3518 H3531 0.961 . S
C3518 H3532 0.961 . S
C3519 C3516 1.539 . S
C3519 H3533 0.958 . S
C3519 H3534 0.961 . S
C3519 H3535 0.960 . S
H3520 C3504 0.931 . S
H3521 C3509 0.929 . S
H3522 C3510 0.960 . S
H3523 C3510 0.962 . S
H3524 C3510 0.960 . S
H3525 C3511 0.961 . S
H3526 C3511 0.961 . S
H3527 C3511 0.961 . S
H3528 C3512 0.931 . S
H3529 C3517 0.930 . S
H3530 C3518 0.956 . S
H3531 C3518 0.961 . S
H3532 C3518 0.961 . S
H3533 C3519 0.958 . S
H3534 C3519 0.961 . S
H3535 C3519 0.960 . S
C3536 C3537 1.391 . S
C3536 C3538 1.394 . S
C3536 H3552 0.931 . S
C3537 C3536 1.391 . S
C3537 C3541 1.376 . S
C3538 C3536 1.394 . S
C3538 C3539 1.369 . S
C3538 C3542 1.531 . S
C3539 C3538 1.369 . S
C3539 C3540 1.410 . S
C3539 C3547 1.503 . S
C3540 C3539 1.410 . S
C3540 C3541 1.392 . S
C3540 C3543 1.511 . S
C3541 C3537 1.376 . S
C3541 C3540 1.392 . S
C3541 H3553 0.929 . S
C3542 C3538 1.531 . S
C3542 H3554 0.960 . S
C3542 H3555 0.962 . S
C3542 H3556 0.960 . S
C3543 C3540 1.511 . S
C3543 H3557 0.961 . S
C3543 H3558 0.961 . S
C3543 H3559 0.961 . S
C3544 C3545 1.370 . S
C3544 C3546 1.363 . S
C3544 H3560 0.931 . S
C3545 C3544 1.370 . S
C3545 C3549 1.408 . S
C3546 C3544 1.363 . S
C3546 C3547 1.370 . S
C3546 C3550 1.524 . S
C3547 C3539 1.503 . S
C3547 C3546 1.370 . S
C3547 C3548 1.403 . S
C3548 C3547 1.403 . S
C3548 C3549 1.404 . S
C3548 C3551 1.539 . S
C3549 C3545 1.408 . S
C3549 C3548 1.404 . S
C3549 H3561 0.930 . S
C3550 C3546 1.524 . S
C3550 H3562 0.956 . S
C3550 H3563 0.961 . S
C3550 H3564 0.961 . S
C3551 C3548 1.539 . S
C3551 H3565 0.958 . S
C3551 H3566 0.961 . S
C3551 H3567 0.960 . S
H3552 C3536 0.931 . S
H3553 C3541 0.929 . S
H3554 C3542 0.960 . S
H3555 C3542 0.962 . S
H3556 C3542 0.960 . S
H3557 C3543 0.961 . S
H3558 C3543 0.961 . S
H3559 C3543 0.961 . S
H3560 C3544 0.931 . S
H3561 C3549 0.930 . S
H3562 C3550 0.956 . S
H3563 C3550 0.961 . S
H3564 C3550 0.961 . S
H3565 C3551 0.958 . S
H3566 C3551 0.961 . S
H3567 C3551 0.960 . S
C3568 C3569 1.391 . S
C3568 C3570 1.394 . S
C3568 H3584 0.931 . S
C3569 C3568 1.391 . S
C3569 C3573 1.376 . S
C3570 C3568 1.394 . S
C3570 C3571 1.369 . S
C3570 C3574 1.531 . S
C3571 C3570 1.369 . S
C3571 C3572 1.410 . S
C3571 C3579 1.503 . S
C3572 C3571 1.410 . S
C3572 C3573 1.392 . S
C3572 C3575 1.511 . S
C3573 C3569 1.376 . S
C3573 C3572 1.392 . S
C3573 H3585 0.929 . S
C3574 C3570 1.531 . S
C3574 H3586 0.960 . S
C3574 H3587 0.962 . S
C3574 H3588 0.960 . S
C3575 C3572 1.511 . S
C3575 H3589 0.961 . S
C3575 H3590 0.961 . S
C3575 H3591 0.961 . S
C3576 C3577 1.370 . S
C3576 C3578 1.363 . S
C3576 H3592 0.931 . S
C3577 C3576 1.370 . S
C3577 C3581 1.408 . S
C3578 C3576 1.363 . S
C3578 C3579 1.370 . S
C3578 C3582 1.524 . S
C3579 C3571 1.503 . S
C3579 C3578 1.370 . S
C3579 C3580 1.403 . S
C3580 C3579 1.403 . S
C3580 C3581 1.404 . S
C3580 C3583 1.539 . S
C3581 C3577 1.408 . S
C3581 C3580 1.404 . S
C3581 H3593 0.930 . S
C3582 C3578 1.524 . S
C3582 H3594 0.956 . S
C3582 H3595 0.961 . S
C3582 H3596 0.961 . S
C3583 C3580 1.539 . S
C3583 H3597 0.958 . S
C3583 H3598 0.961 . S
C3583 H3599 0.960 . S
H3584 C3568 0.931 . S
H3585 C3573 0.929 . S
H3586 C3574 0.960 . S
H3587 C3574 0.962 . S
H3588 C3574 0.960 . S
H3589 C3575 0.961 . S
H3590 C3575 0.961 . S
H3591 C3575 0.961 . S
H3592 C3576 0.931 . S
H3593 C3581 0.930 . S
H3594 C3582 0.956 . S
H3595 C3582 0.961 . S
H3596 C3582 0.961 . S
H3597 C3583 0.958 . S
H3598 C3583 0.961 . S
H3599 C3583 0.960 . S
C3600 C3601 1.391 . S
C3600 C3602 1.394 . S
C3600 H3616 0.931 . S
C3601 C3600 1.391 . S
C3601 C3605 1.376 . S
C3602 C3600 1.394 . S
C3602 C3603 1.369 . S
C3602 C3606 1.531 . S
C3603 C3602 1.369 . S
C3603 C3604 1.410 . S
C3603 C3611 1.503 . S
C3604 C3603 1.410 . S
C3604 C3605 1.392 . S
C3604 C3607 1.511 . S
C3605 C3601 1.376 . S
C3605 C3604 1.392 . S
C3605 H3617 0.929 . S
C3606 C3602 1.531 . S
C3606 H3618 0.960 . S
C3606 H3619 0.962 . S
C3606 H3620 0.960 . S
C3607 C3604 1.511 . S
C3607 H3621 0.961 . S
C3607 H3622 0.961 . S
C3607 H3623 0.961 . S
C3608 C3609 1.370 . S
C3608 C3610 1.363 . S
C3608 H3624 0.931 . S
C3609 C3608 1.370 . S
C3609 C3613 1.408 . S
C3610 C3608 1.363 . S
C3610 C3611 1.370 . S
C3610 C3614 1.524 . S
C3611 C3603 1.503 . S
C3611 C3610 1.370 . S
C3611 C3612 1.403 . S
C3612 C3611 1.403 . S
C3612 C3613 1.404 . S
C3612 C3615 1.539 . S
C3613 C3609 1.408 . S
C3613 C3612 1.404 . S
C3613 H3625 0.930 . S
C3614 C3610 1.524 . S
C3614 H3626 0.956 . S
C3614 H3627 0.961 . S
C3614 H3628 0.961 . S
C3615 C3612 1.539 . S
C3615 H3629 0.958 . S
C3615 H3630 0.961 . S
C3615 H3631 0.960 . S
H3616 C3600 0.931 . S
H3617 C3605 0.929 . S
H3618 C3606 0.960 . S
H3619 C3606 0.962 . S
H3620 C3606 0.960 . S
H3621 C3607 0.961 . S
H3622 C3607 0.961 . S
H3623 C3607 0.961 . S
H3624 C3608 0.931 . S
H3625 C3613 0.930 . S
H3626 C3614 0.956 . S
H3627 C3614 0.961 . S
H3628 C3614 0.961 . S
H3629 C3615 0.958 . S
H3630 C3615 0.961 . S
H3631 C3615 0.960 . S
C3632 C3633 1.391 . S
C3632 C3634 1.394 . S
C3632 H3648 0.931 . S
C3633 C3632 1.391 . S
C3633 C3637 1.376 . S
C3634 C3632 1.394 . S
C3634 C3635 1.369 . S
C3634 C3638 1.531 . S
C3635 C3634 1.369 . S
C3635 C3636 1.410 . S
C3635 C3643 1.503 . S
C3636 C3635 1.410 . S
C3636 C3637 1.392 . S
C3636 C3639 1.511 . S
C3637 C3633 1.376 . S
C3637 C3636 1.392 . S
C3637 H3649 0.929 . S
C3638 C3634 1.531 . S
C3638 H3650 0.960 . S
C3638 H3651 0.962 . S
C3638 H3652 0.960 . S
C3639 C3636 1.511 . S
C3639 H3653 0.961 . S
C3639 H3654 0.961 . S
C3639 H3655 0.961 . S
C3640 C3641 1.370 . S
C3640 C3642 1.363 . S
C3640 H3656 0.931 . S
C3641 C3640 1.370 . S
C3641 C3645 1.408 . S
C3642 C3640 1.363 . S
C3642 C3643 1.370 . S
C3642 C3646 1.524 . S
C3643 C3635 1.503 . S
C3643 C3642 1.370 . S
C3643 C3644 1.403 . S
C3644 C3643 1.403 . S
C3644 C3645 1.404 . S
C3644 C3647 1.539 . S
C3645 C3641 1.408 . S
C3645 C3644 1.404 . S
C3645 H3657 0.930 . S
C3646 C3642 1.524 . S
C3646 H3658 0.956 . S
C3646 H3659 0.961 . S
C3646 H3660 0.961 . S
C3647 C3644 1.539 . S
C3647 H3661 0.958 . S
C3647 H3662 0.961 . S
C3647 H3663 0.960 . S
H3648 C3632 0.931 . S
H3649 C3637 0.929 . S
H3650 C3638 0.960 . S
H3651 C3638 0.962 . S
H3652 C3638 0.960 . S
H3653 C3639 0.961 . S
H3654 C3639 0.961 . S
H3655 C3639 0.961 . S
H3656 C3640 0.931 . S
H3657 C3645 0.930 . S
H3658 C3646 0.956 . S
H3659 C3646 0.961 . S
H3660 C3646 0.961 . S
H3661 C3647 0.958 . S
H3662 C3647 0.961 . S
H3663 C3647 0.960 . S
C3664 C3665 1.391 . S
C3664 C3666 1.394 . S
C3664 H3680 0.931 . S
C3665 C3664 1.391 . S
C3665 C3669 1.376 . S
C3666 C3664 1.394 . S
C3666 C3667 1.369 . S
C3666 C3670 1.531 . S
C3667 C3666 1.369 . S
C3667 C3668 1.410 . S
C3667 C3675 1.503 . S
C3668 C3667 1.410 . S
C3668 C3669 1.392 . S
C3668 C3671 1.511 . S
C3669 C3665 1.376 . S
C3669 C3668 1.392 . S
C3669 H3681 0.929 . S
C3670 C3666 1.531 . S
C3670 H3682 0.960 . S
C3670 H3683 0.962 . S
C3670 H3684 0.960 . S
C3671 C3668 1.511 . S
C3671 H3685 0.961 . S
C3671 H3686 0.961 . S
C3671 H3687 0.961 . S
C3672 C3673 1.370 . S
C3672 C3674 1.363 . S
C3672 H3688 0.931 . S
C3673 C3672 1.370 . S
C3673 C3677 1.408 . S
C3674 C3672 1.363 . S
C3674 C3675 1.370 . S
C3674 C3678 1.524 . S
C3675 C3667 1.503 . S
C3675 C3674 1.370 . S
C3675 C3676 1.403 . S
C3676 C3675 1.403 . S
C3676 C3677 1.404 . S
C3676 C3679 1.539 . S
C3677 C3673 1.408 . S
C3677 C3676 1.404 . S
C3677 H3689 0.930 . S
C3678 C3674 1.524 . S
C3678 H3690 0.956 . S
C3678 H3691 0.961 . S
C3678 H3692 0.961 . S
C3679 C3676 1.539 . S
C3679 H3693 0.958 . S
C3679 H3694 0.961 . S
C3679 H3695 0.960 . S
H3680 C3664 0.931 . S
H3681 C3669 0.929 . S
H3682 C3670 0.960 . S
H3683 C3670 0.962 . S
H3684 C3670 0.960 . S
H3685 C3671 0.961 . S
H3686 C3671 0.961 . S
H3687 C3671 0.961 . S
H3688 C3672 0.931 . S
H3689 C3677 0.930 . S
H3690 C3678 0.956 . S
H3691 C3678 0.961 . S
H3692 C3678 0.961 . S
H3693 C3679 0.958 . S
H3694 C3679 0.961 . S
H3695 C3679 0.960 . S
C3696 C3697 1.391 . S
C3696 C3698 1.394 . S
C3696 H3712 0.931 . S
C3697 C3696 1.391 . S
C3697 C3701 1.376 . S
C3698 C3696 1.394 . S
C3698 C3699 1.369 . S
C3698 C3702 1.531 . S
C3699 C3698 1.369 . S
C3699 C3700 1.410 . S
C3699 C3707 1.503 . S
C3700 C3699 1.410 . S
C3700 C3701 1.392 . S
C3700 C3703 1.511 . S
C3701 C3697 1.376 . S
C3701 C3700 1.392 . S
C3701 H3713 0.929 . S
C3702 C3698 1.531 . S
C3702 H3714 0.960 . S
C3702 H3715 0.962 . S
C3702 H3716 0.960 . S
C3703 C3700 1.511 . S
C3703 H3717 0.961 . S
C3703 H3718 0.961 . S
C3703 H3719 0.961 . S
C3704 C3705 1.370 . S
C3704 C3706 1.363 . S
C3704 H3720 0.931 . S
C3705 C3704 1.370 . S
C3705 C3709 1.408 . S
C3706 C3704 1.363 . S
C3706 C3707 1.370 . S
C3706 C3710 1.524 . S
C3707 C3699 1.503 . S
C3707 C3706 1.370 . S
C3707 C3708 1.403 . S
C3708 C3707 1.403 . S
C3708 C3709 1.404 . S
C3708 C3711 1.539 . S
C3709 C3705 1.408 . S
C3709 C3708 1.404 . S
C3709 H3721 0.930 . S
C3710 C3706 1.524 . S
C3710 H3722 0.956 . S
C3710 H3723 0.961 . S
C3710 H3724 0.961 . S
C3711 C3708 1.539 . S
C3711 H3725 0.958 . S
C3711 H3726 0.961 . S
C3711 H3727 0.960 . S
H3712 C3696 0.931 . S
H3713 C3701 0.929 . S
H3714 C3702 0.960 . S
H3715 C3702 0.962 . S
H3716 C3702 0.960 . S
H3717 C3703 0.961 . S
H3718 C3703 0.961 . S
H3719 C3703 0.961 . S
H3720 C3704 0.931 . S
H3721 C3709 0.930 . S
H3722 C3710 0.956 . S
H3723 C3710 0.961 . S
H3724 C3710 0.961 . S
H3725 C3711 0.958 . S
H3726 C3711 0.961 . S
H3727 C3711 0.960 . S
C3728 C3729 1.391 . S
C3728 C3730 1.394 . S
C3728 H3744 0.931 . S
C3729 C3728 1.391 . S
C3729 C3733 1.376 . S
C3730 C3728 1.394 . S
C3730 C3731 1.369 . S
C3730 C3734 1.531 . S
C3731 C3730 1.369 . S
C3731 C3732 1.410 . S
C3731 C3739 1.503 . S
C3732 C3731 1.410 . S
C3732 C3733 1.392 . S
C3732 C3735 1.511 . S
C3733 C3729 1.376 . S
C3733 C3732 1.392 . S
C3733 H3745 0.929 . S
C3734 C3730 1.531 . S
C3734 H3746 0.960 . S
C3734 H3747 0.962 . S
C3734 H3748 0.960 . S
C3735 C3732 1.511 . S
C3735 H3749 0.961 . S
C3735 H3750 0.961 . S
C3735 H3751 0.961 . S
C3736 C3737 1.370 . S
C3736 C3738 1.363 . S
C3736 H3752 0.931 . S
C3737 C3736 1.370 . S
C3737 C3741 1.408 . S
C3738 C3736 1.363 . S
C3738 C3739 1.370 . S
C3738 C3742 1.524 . S
C3739 C3731 1.503 . S
C3739 C3738 1.370 . S
C3739 C3740 1.403 . S
C3740 C3739 1.403 . S
C3740 C3741 1.404 . S
C3740 C3743 1.539 . S
C3741 C3737 1.408 . S
C3741 C3740 1.404 . S
C3741 H3753 0.930 . S
C3742 C3738 1.524 . S
C3742 H3754 0.956 . S
C3742 H3755 0.961 . S
C3742 H3756 0.961 . S
C3743 C3740 1.539 . S
C3743 H3757 0.958 . S
C3743 H3758 0.961 . S
C3743 H3759 0.960 . S
H3744 C3728 0.931 . S
H3745 C3733 0.929 . S
H3746 C3734 0.960 . S
H3747 C3734 0.962 . S
H3748 C3734 0.960 . S
H3749 C3735 0.961 . S
H3750 C3735 0.961 . S
H3751 C3735 0.961 . S
H3752 C3736 0.931 . S
H3753 C3741 0.930 . S
H3754 C3742 0.956 . S
H3755 C3742 0.961 . S
H3756 C3742 0.961 . S
H3757 C3743 0.958 . S
H3758 C3743 0.961 . S
H3759 C3743 0.960 . S
C3760 C3761 1.391 . S
C3760 C3762 1.394 . S
C3760 H3776 0.931 . S
C3761 C3760 1.391 . S
C3761 C3765 1.376 . S
C3762 C3760 1.394 . S
C3762 C3763 1.369 . S
C3762 C3766 1.531 . S
C3763 C3762 1.369 . S
C3763 C3764 1.410 . S
C3763 C3771 1.503 . S
C3764 C3763 1.410 . S
C3764 C3765 1.392 . S
C3764 C3767 1.511 . S
C3765 C3761 1.376 . S
C3765 C3764 1.392 . S
C3765 H3777 0.929 . S
C3766 C3762 1.531 . S
C3766 H3778 0.960 . S
C3766 H3779 0.962 . S
C3766 H3780 0.960 . S
C3767 C3764 1.511 . S
C3767 H3781 0.961 . S
C3767 H3782 0.961 . S
C3767 H3783 0.961 . S
C3768 C3769 1.370 . S
C3768 C3770 1.363 . S
C3768 H3784 0.931 . S
C3769 C3768 1.370 . S
C3769 C3773 1.408 . S
C3770 C3768 1.363 . S
C3770 C3771 1.370 . S
C3770 C3774 1.524 . S
C3771 C3763 1.503 . S
C3771 C3770 1.370 . S
C3771 C3772 1.403 . S
C3772 C3771 1.403 . S
C3772 C3773 1.404 . S
C3772 C3775 1.539 . S
C3773 C3769 1.408 . S
C3773 C3772 1.404 . S
C3773 H3785 0.930 . S
C3774 C3770 1.524 . S
C3774 H3786 0.956 . S
C3774 H3787 0.961 . S
C3774 H3788 0.961 . S
C3775 C3772 1.539 . S
C3775 H3789 0.958 . S
C3775 H3790 0.961 . S
C3775 H3791 0.960 . S
H3776 C3760 0.931 . S
H3777 C3765 0.929 . S
H3778 C3766 0.960 . S
H3779 C3766 0.962 . S
H3780 C3766 0.960 . S
H3781 C3767 0.961 . S
H3782 C3767 0.961 . S
H3783 C3767 0.961 . S
H3784 C3768 0.931 . S
H3785 C3773 0.930 . S
H3786 C3774 0.956 . S
H3787 C3774 0.961 . S
H3788 C3774 0.961 . S
H3789 C3775 0.958 . S
H3790 C3775 0.961 . S
H3791 C3775 0.960 . S
C3792 C3793 1.391 . S
C3792 C3794 1.394 . S
C3792 H3808 0.931 . S
C3793 C3792 1.391 . S
C3793 C3797 1.376 . S
C3794 C3792 1.394 . S
C3794 C3795 1.369 . S
C3794 C3798 1.531 . S
C3795 C3794 1.369 . S
C3795 C3796 1.410 . S
C3795 C3803 1.503 . S
C3796 C3795 1.410 . S
C3796 C3797 1.392 . S
C3796 C3799 1.511 . S
C3797 C3793 1.376 . S
C3797 C3796 1.392 . S
C3797 H3809 0.929 . S
C3798 C3794 1.531 . S
C3798 H3810 0.960 . S
C3798 H3811 0.962 . S
C3798 H3812 0.960 . S
C3799 C3796 1.511 . S
C3799 H3813 0.961 . S
C3799 H3814 0.961 . S
C3799 H3815 0.961 . S
C3800 C3801 1.370 . S
C3800 C3802 1.363 . S
C3800 H3816 0.931 . S
C3801 C3800 1.370 . S
C3801 C3805 1.408 . S
C3802 C3800 1.363 . S
C3802 C3803 1.370 . S
C3802 C3806 1.524 . S
C3803 C3795 1.503 . S
C3803 C3802 1.370 . S
C3803 C3804 1.403 . S
C3804 C3803 1.403 . S
C3804 C3805 1.404 . S
C3804 C3807 1.539 . S
C3805 C3801 1.408 . S
C3805 C3804 1.404 . S
C3805 H3817 0.930 . S
C3806 C3802 1.524 . S
C3806 H3818 0.956 . S
C3806 H3819 0.961 . S
C3806 H3820 0.961 . S
C3807 C3804 1.539 . S
C3807 H3821 0.958 . S
C3807 H3822 0.961 . S
C3807 H3823 0.960 . S
H3808 C3792 0.931 . S
H3809 C3797 0.929 . S
H3810 C3798 0.960 . S
H3811 C3798 0.962 . S
H3812 C3798 0.960 . S
H3813 C3799 0.961 . S
H3814 C3799 0.961 . S
H3815 C3799 0.961 . S
H3816 C3800 0.931 . S
H3817 C3805 0.930 . S
H3818 C3806 0.956 . S
H3819 C3806 0.961 . S
H3820 C3806 0.961 . S
H3821 C3807 0.958 . S
H3822 C3807 0.961 . S
H3823 C3807 0.960 . S
C3824 C3825 1.391 . S
C3824 C3826 1.394 1_565 S
C3824 H3840 0.931 1_565 S
C3825 C3824 1.391 . S
C3825 C3829 1.376 . S
C3826 C3824 1.394 1_545 S
C3826 C3827 1.369 1_545 S
C3826 C3830 1.531 . S
C3827 C3826 1.369 1_565 S
C3827 C3828 1.410 . S
C3827 C3835 1.503 . S
C3828 C3827 1.410 . S
C3828 C3829 1.392 . S
C3828 C3831 1.511 1_554 S
C3829 C3825 1.376 . S
C3829 C3828 1.392 . S
C3829 H3841 0.939 . S
C3830 C3826 1.531 . S
C3830 H3842 0.960 . S
C3830 H3843 0.962 . S
C3830 H3844 0.960 . S
C3831 C3828 1.511 1_556 S
C3831 H3845 0.961 . S
C3831 H3846 0.961 . S
C3831 H3847 0.961 1_556 S
C3832 C3833 1.370 1_556 S
C3832 C3834 1.365 . S
C3832 H3848 0.931 . S
C3833 C3832 1.370 1_554 S
C3833 C3837 1.408 . S
C3834 C3832 1.365 . S
C3834 C3835 1.361 1_546 S
C3834 C3838 1.532 . S
C3835 C3827 1.503 . S
C3835 C3834 1.361 1_564 S
C3835 C3836 1.403 . S
C3836 C3835 1.403 . S
C3836 C3837 1.404 1_565 S
C3836 C3839 1.539 . S
C3837 C3833 1.408 . S
C3837 C3836 1.404 1_545 S
C3837 H3849 0.930 . S
C3838 C3834 1.532 . S
C3838 H3850 0.956 . S
C3838 H3851 0.961 1_545 S
C3838 H3852 0.961 . S
C3839 C3836 1.539 . S
C3839 H3853 0.958 . S
C3839 H3854 0.961 . S
C3839 H3855 0.960 . S
H3840 C3824 0.931 1_545 S
H3841 C3829 0.939 . S
H3842 C3830 0.960 . S
H3843 C3830 0.962 . S
H3844 C3830 0.960 . S
H3845 C3831 0.961 . S
H3846 C3831 0.961 . S
H3847 C3831 0.961 1_554 S
H3848 C3832 0.931 . S
H3849 C3837 0.930 . S
H3850 C3838 0.956 . S
H3851 C3838 0.961 1_565 S
H3852 C3838 0.961 . S
H3853 C3839 0.958 . S
H3854 C3839 0.961 . S
H3855 C3839 0.960 . S
C3856 C3857 1.391 . S
C3856 C3858 1.394 . S
C3856 H3872 0.931 . S
C3857 C3856 1.391 . S
C3857 C3861 1.376 . S
C3858 C3856 1.394 . S
C3858 C3859 1.369 . S
C3858 C3862 1.531 . S
C3859 C3858 1.369 . S
C3859 C3860 1.410 . S
C3859 C3867 1.503 . S
C3860 C3859 1.410 . S
C3860 C3861 1.392 . S
C3860 C3863 1.511 . S
C3861 C3857 1.376 . S
C3861 C3860 1.392 . S
C3861 H3873 0.929 . S
C3862 C3858 1.531 . S
C3862 H3874 0.960 . S
C3862 H3875 0.962 . S
C3862 H3876 0.960 . S
C3863 C3860 1.511 . S
C3863 H3877 0.961 . S
C3863 H3878 0.961 . S
C3863 H3879 0.961 . S
C3864 C3865 1.370 . S
C3864 C3866 1.363 . S
C3864 H3880 0.931 . S
C3865 C3864 1.370 . S
C3865 C3869 1.408 . S
C3866 C3864 1.363 . S
C3866 C3867 1.370 . S
C3866 C3870 1.524 . S
C3867 C3859 1.503 . S
C3867 C3866 1.370 . S
C3867 C3868 1.403 . S
C3868 C3867 1.403 . S
C3868 C3869 1.404 . S
C3868 C3871 1.539 . S
C3869 C3865 1.408 . S
C3869 C3868 1.404 . S
C3869 H3881 0.930 . S
C3870 C3866 1.524 . S
C3870 H3882 0.956 . S
C3870 H3883 0.961 . S
C3870 H3884 0.961 . S
C3871 C3868 1.539 . S
C3871 H3885 0.958 . S
C3871 H3886 0.961 . S
C3871 H3887 0.960 . S
H3872 C3856 0.931 . S
H3873 C3861 0.929 . S
H3874 C3862 0.960 . S
H3875 C3862 0.962 . S
H3876 C3862 0.960 . S
H3877 C3863 0.961 . S
H3878 C3863 0.961 . S
H3879 C3863 0.961 . S
H3880 C3864 0.931 . S
H3881 C3869 0.930 . S
H3882 C3870 0.956 . S
H3883 C3870 0.961 . S
H3884 C3870 0.961 . S
H3885 C3871 0.958 . S
H3886 C3871 0.961 . S
H3887 C3871 0.960 . S
C3888 C3889 1.390 . S
C3888 C3890 1.394 1_556 S
C3888 H3904 0.931 . S
C3889 C3888 1.390 . S
C3889 C3893 1.376 1_556 S
C3890 C3888 1.394 1_554 S
C3890 C3891 1.369 . S
C3890 C3894 1.531 . S
C3891 C3890 1.369 . S
C3891 C3892 1.410 . S
C3891 C3899 1.503 . S
C3892 C3891 1.410 . S
C3892 C3893 1.392 . S
C3892 C3895 1.511 . S
C3893 C3889 1.376 1_554 S
C3893 C3892 1.392 . S
C3893 H3905 0.929 . S
C3894 C3890 1.531 . S
C3894 H3906 0.960 1_554 S
C3894 H3907 0.962 . S
C3894 H3908 0.960 1_554 S
C3895 C3892 1.511 . S
C3895 H3909 0.961 . S
C3895 H3910 0.961 . S
C3895 H3911 0.961 1_554 S
C3896 C3897 1.370 . S
C3896 C3898 1.363 . S
C3896 H3912 0.931 . S
C3897 C3896 1.370 . S
C3897 C3901 1.408 . S
C3898 C3896 1.363 . S
C3898 C3899 1.370 . S
C3898 C3902 1.524 . S
C3899 C3891 1.503 . S
C3899 C3898 1.370 . S
C3899 C3900 1.403 1_554 S
C3900 C3899 1.403 1_556 S
C3900 C3901 1.404 1_556 S
C3900 C3903 1.539 . S
C3901 C3897 1.408 . S
C3901 C3900 1.404 1_554 S
C3901 H3913 0.930 1_554 S
C3902 C3898 1.524 . S
C3902 H3914 0.956 . S
C3902 H3915 0.961 . S
C3902 H3916 0.961 . S
C3903 C3900 1.539 . S
C3903 H3917 0.958 . S
C3903 H3918 0.961 . S
C3903 H3919 0.960 . S
H3904 C3888 0.931 . S
H3905 C3893 0.929 . S
H3906 C3894 0.960 1_556 S
H3907 C3894 0.962 . S
H3908 C3894 0.960 1_556 S
H3909 C3895 0.961 . S
H3910 C3895 0.961 . S
H3911 C3895 0.961 1_556 S
H3912 C3896 0.931 . S
H3913 C3901 0.930 1_556 S
H3914 C3902 0.956 . S
H3915 C3902 0.961 . S
H3916 C3902 0.961 . S
H3917 C3903 0.958 . S
H3918 C3903 0.961 . S
H3919 C3903 0.960 . S
C3920 C3921 1.391 . S
C3920 C3922 1.394 . S
C3920 H3936 0.931 . S
C3921 C3920 1.391 . S
C3921 C3925 1.376 . S
C3922 C3920 1.394 . S
C3922 C3923 1.369 . S
C3922 C3926 1.531 . S
C3923 C3922 1.369 . S
C3923 C3924 1.410 . S
C3923 C3931 1.503 . S
C3924 C3923 1.410 . S
C3924 C3925 1.392 . S
C3924 C3927 1.511 . S
C3925 C3921 1.376 . S
C3925 C3924 1.392 . S
C3925 H3937 0.929 . S
C3926 C3922 1.531 . S
C3926 H3938 0.960 . S
C3926 H3939 0.962 . S
C3926 H3940 0.960 . S
C3927 C3924 1.511 . S
C3927 H3941 0.961 . S
C3927 H3942 0.961 . S
C3927 H3943 0.961 . S
C3928 C3929 1.370 . S
C3928 C3930 1.363 . S
C3928 H3944 0.931 . S
C3929 C3928 1.370 . S
C3929 C3933 1.408 . S
C3930 C3928 1.363 . S
C3930 C3931 1.370 . S
C3930 C3934 1.524 . S
C3931 C3923 1.503 . S
C3931 C3930 1.370 . S
C3931 C3932 1.403 . S
C3932 C3931 1.403 . S
C3932 C3933 1.404 . S
C3932 C3935 1.539 . S
C3933 C3929 1.408 . S
C3933 C3932 1.404 . S
C3933 H3945 0.930 . S
C3934 C3930 1.524 . S
C3934 H3946 0.956 . S
C3934 H3947 0.961 . S
C3934 H3948 0.961 . S
C3935 C3932 1.539 . S
C3935 H3949 0.958 . S
C3935 H3950 0.961 . S
C3935 H3951 0.960 . S
H3936 C3920 0.931 . S
H3937 C3925 0.929 . S
H3938 C3926 0.960 . S
H3939 C3926 0.962 . S
H3940 C3926 0.960 . S
H3941 C3927 0.961 . S
H3942 C3927 0.961 . S
H3943 C3927 0.961 . S
H3944 C3928 0.931 . S
H3945 C3933 0.930 . S
H3946 C3934 0.956 . S
H3947 C3934 0.961 . S
H3948 C3934 0.961 . S
H3949 C3935 0.958 . S
H3950 C3935 0.961 . S
H3951 C3935 0.960 . S
C3952 C3953 1.391 . S
C3952 C3954 1.394 . S
C3952 H3968 0.931 . S
C3953 C3952 1.391 . S
C3953 C3957 1.376 . S
C3954 C3952 1.394 . S
C3954 C3955 1.369 . S
C3954 C3958 1.531 . S
C3955 C3954 1.369 . S
C3955 C3956 1.410 . S
C3955 C3963 1.503 . S
C3956 C3955 1.410 . S
C3956 C3957 1.392 . S
C3956 C3959 1.511 . S
C3957 C3953 1.376 . S
C3957 C3956 1.392 . S
C3957 H3969 0.929 . S
C3958 C3954 1.531 . S
C3958 H3970 0.960 . S
C3958 H3971 0.962 . S
C3958 H3972 0.960 . S
C3959 C3956 1.511 . S
C3959 H3973 0.961 . S
C3959 H3974 0.961 . S
C3959 H3975 0.961 . S
C3960 C3961 1.370 . S
C3960 C3962 1.363 . S
C3960 H3976 0.931 . S
C3961 C3960 1.370 . S
C3961 C3965 1.408 . S
C3962 C3960 1.363 . S
C3962 C3963 1.370 . S
C3962 C3966 1.524 . S
C3963 C3955 1.503 . S
C3963 C3962 1.370 . S
C3963 C3964 1.403 . S
C3964 C3963 1.403 . S
C3964 C3965 1.404 . S
C3964 C3967 1.539 . S
C3965 C3961 1.408 . S
C3965 C3964 1.404 . S
C3965 H3977 0.930 . S
C3966 C3962 1.524 . S
C3966 H3978 0.956 . S
C3966 H3979 0.961 . S
C3966 H3980 0.961 . S
C3967 C3964 1.539 . S
C3967 H3981 0.958 . S
C3967 H3982 0.961 . S
C3967 H3983 0.960 . S
H3968 C3952 0.931 . S
H3969 C3957 0.929 . S
H3970 C3958 0.960 . S
H3971 C3958 0.962 . S
H3972 C3958 0.960 . S
H3973 C3959 0.961 . S
H3974 C3959 0.961 . S
H3975 C3959 0.961 . S
H3976 C3960 0.931 . S
H3977 C3965 0.930 . S
H3978 C3966 0.956 . S
H3979 C3966 0.961 . S
H3980 C3966 0.961 . S
H3981 C3967 0.958 . S
H3982 C3967 0.961 . S
H3983 C3967 0.960 . S
C3984 C3985 1.391 . S
C3984 C3986 1.394 . S
C3984 H4000 0.931 . S
C3985 C3984 1.391 . S
C3985 C3989 1.376 . S
C3986 C3984 1.394 . S
C3986 C3987 1.369 . S
C3986 C3990 1.531 . S
C3987 C3986 1.369 . S
C3987 C3988 1.410 . S
C3987 C3995 1.503 . S
C3988 C3987 1.410 . S
C3988 C3989 1.392 . S
C3988 C3991 1.511 . S
C3989 C3985 1.376 . S
C3989 C3988 1.392 . S
C3989 H4001 0.929 . S
C3990 C3986 1.531 . S
C3990 H4002 0.960 . S
C3990 H4003 0.962 . S
C3990 H4004 0.960 . S
C3991 C3988 1.511 . S
C3991 H4005 0.961 . S
C3991 H4006 0.961 . S
C3991 H4007 0.961 . S
C3992 C3993 1.370 . S
C3992 C3994 1.363 . S
C3992 H4008 0.931 . S
C3993 C3992 1.370 . S
C3993 C3997 1.408 . S
C3994 C3992 1.363 . S
C3994 C3995 1.370 . S
C3994 C3998 1.524 . S
C3995 C3987 1.503 . S
C3995 C3994 1.370 . S
C3995 C3996 1.403 . S
C3996 C3995 1.403 . S
C3996 C3997 1.404 . S
C3996 C3999 1.539 . S
C3997 C3993 1.408 . S
C3997 C3996 1.404 . S
C3997 H4009 0.930 . S
C3998 C3994 1.524 . S
C3998 H4010 0.956 . S
C3998 H4011 0.961 . S
C3998 H4012 0.961 . S
C3999 C3996 1.539 . S
C3999 H4013 0.958 . S
C3999 H4014 0.961 . S
C3999 H4015 0.960 . S
H4000 C3984 0.931 . S
H4001 C3989 0.929 . S
H4002 C3990 0.960 . S
H4003 C3990 0.962 . S
H4004 C3990 0.960 . S
H4005 C3991 0.961 . S
H4006 C3991 0.961 . S
H4007 C3991 0.961 . S
H4008 C3992 0.931 . S
H4009 C3997 0.930 . S
H4010 C3998 0.956 . S
H4011 C3998 0.961 . S
H4012 C3998 0.961 . S
H4013 C3999 0.958 . S
H4014 C3999 0.961 . S
H4015 C3999 0.960 . S
C4016 C4017 1.391 . S
C4016 C4018 1.394 . S
C4016 H4032 0.931 . S
C4017 C4016 1.391 . S
C4017 C4021 1.376 . S
C4018 C4016 1.394 . S
C4018 C4019 1.369 . S
C4018 C4022 1.531 . S
C4019 C4018 1.369 . S
C4019 C4020 1.410 . S
C4019 C4027 1.503 . S
C4020 C4019 1.410 . S
C4020 C4021 1.392 . S
C4020 C4023 1.511 . S
C4021 C4017 1.376 . S
C4021 C4020 1.392 . S
C4021 H4033 0.929 . S
C4022 C4018 1.531 . S
C4022 H4034 0.960 . S
C4022 H4035 0.962 . S
C4022 H4036 0.960 . S
C4023 C4020 1.511 . S
C4023 H4037 0.961 . S
C4023 H4038 0.961 . S
C4023 H4039 0.961 . S
C4024 C4025 1.370 . S
C4024 C4026 1.363 . S
C4024 H4040 0.931 . S
C4025 C4024 1.370 . S
C4025 C4029 1.408 . S
C4026 C4024 1.363 . S
C4026 C4027 1.370 . S
C4026 C4030 1.524 . S
C4027 C4019 1.503 . S
C4027 C4026 1.370 . S
C4027 C4028 1.403 . S
C4028 C4027 1.403 . S
C4028 C4029 1.404 . S
C4028 C4031 1.539 . S
C4029 C4025 1.408 . S
C4029 C4028 1.404 . S
C4029 H4041 0.930 . S
C4030 C4026 1.524 . S
C4030 H4042 0.956 . S
C4030 H4043 0.961 . S
C4030 H4044 0.961 . S
C4031 C4028 1.539 . S
C4031 H4045 0.958 . S
C4031 H4046 0.961 . S
C4031 H4047 0.960 . S
H4032 C4016 0.931 . S
H4033 C4021 0.929 . S
H4034 C4022 0.960 . S
H4035 C4022 0.962 . S
H4036 C4022 0.960 . S
H4037 C4023 0.961 . S
H4038 C4023 0.961 . S
H4039 C4023 0.961 . S
H4040 C4024 0.931 . S
H4041 C4029 0.930 . S
H4042 C4030 0.956 . S
H4043 C4030 0.961 . S
H4044 C4030 0.961 . S
H4045 C4031 0.958 . S
H4046 C4031 0.961 . S
H4047 C4031 0.960 . S
C4048 C4049 1.391 . S
C4048 C4050 1.394 . S
C4048 H4064 0.931 . S
C4049 C4048 1.391 . S
C4049 C4053 1.376 . S
C4050 C4048 1.394 . S
C4050 C4051 1.369 . S
C4050 C4054 1.531 . S
C4051 C4050 1.369 . S
C4051 C4052 1.410 . S
C4051 C4059 1.503 . S
C4052 C4051 1.410 . S
C4052 C4053 1.392 . S
C4052 C4055 1.511 . S
C4053 C4049 1.376 . S
C4053 C4052 1.392 . S
C4053 H4065 0.929 . S
C4054 C4050 1.531 . S
C4054 H4066 0.960 . S
C4054 H4067 0.962 . S
C4054 H4068 0.960 . S
C4055 C4052 1.511 . S
C4055 H4069 0.961 . S
C4055 H4070 0.961 . S
C4055 H4071 0.961 . S
C4056 C4057 1.370 . S
C4056 C4058 1.363 . S
C4056 H4072 0.931 . S
C4057 C4056 1.370 . S
C4057 C4061 1.408 . S
C4058 C4056 1.363 . S
C4058 C4059 1.370 . S
C4058 C4062 1.524 . S
C4059 C4051 1.503 . S
C4059 C4058 1.370 . S
C4059 C4060 1.403 . S
C4060 C4059 1.403 . S
C4060 C4061 1.404 . S
C4060 C4063 1.535 1_554 S
C4061 C4057 1.408 . S
C4061 C4060 1.404 . S
C4061 H4073 0.930 1_554 S
C4062 C4058 1.524 . S
C4062 H4074 0.956 . S
C4062 H4075 0.961 . S
C4062 H4076 0.961 . S
C4063 C4060 1.535 1_556 S
C4063 H4077 0.963 . S
C4063 H4078 0.963 . S
C4063 H4079 0.958 1_556 S
H4064 C4048 0.931 . S
H4065 C4053 0.929 . S
H4066 C4054 0.960 . S
H4067 C4054 0.962 . S
H4068 C4054 0.960 . S
H4069 C4055 0.961 . S
H4070 C4055 0.961 . S
H4071 C4055 0.961 . S
H4072 C4056 0.931 . S
H4073 C4061 0.930 1_556 S
H4074 C4062 0.956 . S
H4075 C4062 0.961 . S
H4076 C4062 0.961 . S
H4077 C4063 0.963 . S
H4078 C4063 0.963 . S
H4079 C4063 0.958 1_554 S
C4080 C4081 1.391 . S
C4080 C4082 1.394 . S
C4080 H4096 0.931 . S
C4081 C4080 1.391 . S
C4081 C4085 1.376 . S
C4082 C4080 1.394 . S
C4082 C4083 1.369 . S
C4082 C4086 1.531 . S
C4083 C4082 1.369 . S
C4083 C4084 1.410 . S
C4083 C4091 1.503 . S
C4084 C4083 1.410 . S
C4084 C4085 1.392 . S
C4084 C4087 1.511 . S
C4085 C4081 1.376 . S
C4085 C4084 1.392 . S
C4085 H4097 0.929 . S
C4086 C4082 1.531 . S
C4086 H4098 0.960 . S
C4086 H4099 0.962 . S
C4086 H4100 0.960 . S
C4087 C4084 1.511 . S
C4087 H4101 0.961 . S
C4087 H4102 0.961 . S
C4087 H4103 0.961 . S
C4088 C4089 1.370 . S
C4088 C4090 1.363 . S
C4088 H4104 0.931 . S
C4089 C4088 1.370 . S
C4089 C4093 1.408 . S
C4090 C4088 1.363 . S
C4090 C4091 1.370 . S
C4090 C4094 1.524 . S
C4091 C4083 1.503 . S
C4091 C4090 1.370 . S
C4091 C4092 1.403 . S
C4092 C4091 1.403 . S
C4092 C4093 1.404 . S
C4092 C4095 1.539 . S
C4093 C4089 1.408 . S
C4093 C4092 1.404 . S
C4093 H4105 0.930 . S
C4094 C4090 1.524 . S
C4094 H4106 0.956 . S
C4094 H4107 0.961 . S
C4094 H4108 0.961 . S
C4095 C4092 1.539 . S
C4095 H4109 0.958 . S
C4095 H4110 0.961 . S
C4095 H4111 0.960 . S
H4096 C4080 0.931 . S
H4097 C4085 0.929 . S
H4098 C4086 0.960 . S
H4099 C4086 0.962 . S
H4100 C4086 0.960 . S
H4101 C4087 0.961 . S
H4102 C4087 0.961 . S
H4103 C4087 0.961 . S
H4104 C4088 0.931 . S
H4105 C4093 0.930 . S
H4106 C4094 0.956 . S
H4107 C4094 0.961 . S
H4108 C4094 0.961 . S
H4109 C4095 0.958 . S
H4110 C4095 0.961 . S
H4111 C4095 0.960 . S
C4112 C4113 1.391 . S
C4112 C4114 1.394 . S
C4112 H4128 0.931 . S
C4113 C4112 1.391 . S
C4113 C4117 1.376 . S
C4114 C4112 1.394 . S
C4114 C4115 1.369 . S
C4114 C4118 1.531 . S
C4115 C4114 1.369 . S
C4115 C4116 1.410 . S
C4115 C4123 1.503 . S
C4116 C4115 1.410 . S
C4116 C4117 1.392 . S
C4116 C4119 1.511 . S
C4117 C4113 1.376 . S
C4117 C4116 1.392 . S
C4117 H4129 0.929 . S
C4118 C4114 1.531 . S
C4118 H4130 0.960 . S
C4118 H4131 0.962 . S
C4118 H4132 0.960 . S
C4119 C4116 1.511 . S
C4119 H4133 0.961 . S
C4119 H4134 0.961 . S
C4119 H4135 0.961 . S
C4120 C4121 1.370 . S
C4120 C4122 1.363 . S
C4120 H4136 0.931 1_556 S
C4121 C4120 1.370 . S
C4121 C4125 1.408 . S
C4122 C4120 1.363 . S
C4122 C4123 1.370 . S
C4122 C4126 1.524 . S
C4123 C4115 1.503 . S
C4123 C4122 1.370 . S
C4123 C4124 1.403 . S
C4124 C4123 1.403 . S
C4124 C4125 1.404 . S
C4124 C4127 1.539 . S
C4125 C4121 1.408 . S
C4125 C4124 1.404 . S
C4125 H4137 0.930 . S
C4126 C4122 1.524 . S
C4126 H4138 0.956 . S
C4126 H4139 0.961 . S
C4126 H4140 0.961 1_556 S
C4127 C4124 1.539 . S
C4127 H4141 0.958 . S
C4127 H4142 0.961 . S
C4127 H4143 0.960 . S
H4128 C4112 0.931 . S
H4129 C4117 0.929 . S
H4130 C4118 0.960 . S
H4131 C4118 0.962 . S
H4132 C4118 0.960 . S
H4133 C4119 0.961 . S
H4134 C4119 0.961 . S
H4135 C4119 0.961 . S
H4136 C4120 0.931 1_554 S
H4137 C4125 0.930 . S
H4138 C4126 0.956 . S
H4139 C4126 0.961 . S
H4140 C4126 0.961 1_554 S
H4141 C4127 0.958 . S
H4142 C4127 0.961 . S
H4143 C4127 0.960 . S
C4144 C4145 1.391 . S
C4144 C4146 1.394 . S
C4144 H4160 0.931 . S
C4145 C4144 1.391 . S
C4145 C4149 1.376 . S
C4146 C4144 1.394 . S
C4146 C4147 1.369 . S
C4146 C4150 1.531 . S
C4147 C4146 1.369 . S
C4147 C4148 1.410 . S
C4147 C4155 1.503 . S
C4148 C4147 1.410 . S
C4148 C4149 1.392 . S
C4148 C4151 1.511 . S
C4149 C4145 1.376 . S
C4149 C4148 1.392 . S
C4149 H4161 0.929 . S
C4150 C4146 1.531 . S
C4150 H4162 0.960 . S
C4150 H4163 0.962 . S
C4150 H4164 0.960 . S
C4151 C4148 1.511 . S
C4151 H4165 0.961 . S
C4151 H4166 0.961 . S
C4151 H4167 0.961 . S
C4152 C4153 1.370 . S
C4152 C4154 1.363 . S
C4152 H4168 0.931 . S
C4153 C4152 1.370 . S
C4153 C4157 1.408 . S
C4154 C4152 1.363 . S
C4154 C4155 1.370 . S
C4154 C4158 1.524 . S
C4155 C4147 1.503 . S
C4155 C4154 1.370 . S
C4155 C4156 1.403 . S
C4156 C4155 1.403 . S
C4156 C4157 1.404 . S
C4156 C4159 1.539 . S
C4157 C4153 1.408 . S
C4157 C4156 1.404 . S
C4157 H4169 0.930 . S
C4158 C4154 1.524 . S
C4158 H4170 0.956 . S
C4158 H4171 0.961 . S
C4158 H4172 0.961 . S
C4159 C4156 1.539 . S
C4159 H4173 0.958 . S
C4159 H4174 0.961 . S
C4159 H4175 0.960 . S
H4160 C4144 0.931 . S
H4161 C4149 0.929 . S
H4162 C4150 0.960 . S
H4163 C4150 0.962 . S
H4164 C4150 0.960 . S
H4165 C4151 0.961 . S
H4166 C4151 0.961 . S
H4167 C4151 0.961 . S
H4168 C4152 0.931 . S
H4169 C4157 0.930 . S
H4170 C4158 0.956 . S
H4171 C4158 0.961 . S
H4172 C4158 0.961 . S
H4173 C4159 0.958 . S
H4174 C4159 0.961 . S
H4175 C4159 0.960 . S
C4176 C4177 1.391 . S
C4176 C4178 1.394 . S
C4176 H4192 0.931 . S
C4177 C4176 1.391 . S
C4177 C4181 1.376 . S
C4178 C4176 1.394 . S
C4178 C4179 1.369 . S
C4178 C4182 1.531 . S
C4179 C4178 1.369 . S
C4179 C4180 1.410 . S
C4179 C4187 1.503 . S
C4180 C4179 1.410 . S
C4180 C4181 1.392 . S
C4180 C4183 1.511 . S
C4181 C4177 1.376 . S
C4181 C4180 1.392 . S
C4181 H4193 0.929 . S
C4182 C4178 1.531 . S
C4182 H4194 0.960 . S
C4182 H4195 0.962 . S
C4182 H4196 0.960 . S
C4183 C4180 1.511 . S
C4183 H4197 0.961 . S
C4183 H4198 0.961 . S
C4183 H4199 0.961 . S
C4184 C4185 1.370 . S
C4184 C4186 1.363 . S
C4184 H4200 0.931 . S
C4185 C4184 1.370 . S
C4185 C4189 1.408 . S
C4186 C4184 1.363 . S
C4186 C4187 1.370 . S
C4186 C4190 1.524 . S
C4187 C4179 1.503 . S
C4187 C4186 1.370 . S
C4187 C4188 1.403 . S
C4188 C4187 1.403 . S
C4188 C4189 1.404 . S
C4188 C4191 1.539 . S
C4189 C4185 1.408 . S
C4189 C4188 1.404 . S
C4189 H4201 0.930 . S
C4190 C4186 1.524 . S
C4190 H4202 0.956 . S
C4190 H4203 0.961 . S
C4190 H4204 0.961 . S
C4191 C4188 1.539 . S
C4191 H4205 0.958 . S
C4191 H4206 0.961 . S
C4191 H4207 0.960 . S
H4192 C4176 0.931 . S
H4193 C4181 0.929 . S
H4194 C4182 0.960 . S
H4195 C4182 0.962 . S
H4196 C4182 0.960 . S
H4197 C4183 0.961 . S
H4198 C4183 0.961 . S
H4199 C4183 0.961 . S
H4200 C4184 0.931 . S
H4201 C4189 0.930 . S
H4202 C4190 0.956 . S
H4203 C4190 0.961 . S
H4204 C4190 0.961 . S
H4205 C4191 0.958 . S
H4206 C4191 0.961 . S
H4207 C4191 0.960 . S
C4208 C4209 1.391 . S
C4208 C4210 1.394 . S
C4208 H4224 0.931 . S
C4209 C4208 1.391 . S
C4209 C4213 1.376 . S
C4210 C4208 1.394 . S
C4210 C4211 1.369 . S
C4210 C4214 1.531 . S
C4211 C4210 1.369 . S
C4211 C4212 1.410 . S
C4211 C4219 1.503 . S
C4212 C4211 1.410 . S
C4212 C4213 1.392 . S
C4212 C4215 1.511 . S
C4213 C4209 1.376 . S
C4213 C4212 1.392 . S
C4213 H4225 0.929 . S
C4214 C4210 1.531 . S
C4214 H4226 0.960 . S
C4214 H4227 0.962 . S
C4214 H4228 0.960 . S
C4215 C4212 1.511 . S
C4215 H4229 0.961 . S
C4215 H4230 0.961 . S
C4215 H4231 0.961 . S
C4216 C4217 1.370 . S
C4216 C4218 1.363 . S
C4216 H4232 0.931 . S
C4217 C4216 1.370 . S
C4217 C4221 1.408 . S
C4218 C4216 1.363 . S
C4218 C4219 1.370 . S
C4218 C4222 1.524 . S
C4219 C4211 1.503 . S
C4219 C4218 1.370 . S
C4219 C4220 1.403 . S
C4220 C4219 1.403 . S
C4220 C4221 1.404 . S
C4220 C4223 1.539 . S
C4221 C4217 1.408 . S
C4221 C4220 1.404 . S
C4221 H4233 0.930 . S
C4222 C4218 1.524 . S
C4222 H4234 0.956 . S
C4222 H4235 0.961 . S
C4222 H4236 0.961 . S
C4223 C4220 1.539 . S
C4223 H4237 0.958 . S
C4223 H4238 0.961 . S
C4223 H4239 0.960 . S
H4224 C4208 0.931 . S
H4225 C4213 0.929 . S
H4226 C4214 0.960 . S
H4227 C4214 0.962 . S
H4228 C4214 0.960 . S
H4229 C4215 0.961 . S
H4230 C4215 0.961 . S
H4231 C4215 0.961 . S
H4232 C4216 0.931 . S
H4233 C4221 0.930 . S
H4234 C4222 0.956 . S
H4235 C4222 0.961 . S
H4236 C4222 0.961 . S
H4237 C4223 0.958 . S
H4238 C4223 0.961 . S
H4239 C4223 0.960 . S
C4240 C4241 1.391 . S
C4240 C4242 1.394 . S
C4240 H4256 0.931 . S
C4241 C4240 1.391 . S
C4241 C4245 1.376 . S
C4242 C4240 1.394 . S
C4242 C4243 1.369 . S
C4242 C4246 1.531 . S
C4243 C4242 1.369 . S
C4243 C4244 1.410 . S
C4243 C4251 1.503 . S
C4244 C4243 1.410 . S
C4244 C4245 1.392 . S
C4244 C4247 1.511 . S
C4245 C4241 1.376 . S
C4245 C4244 1.392 . S
C4245 H4257 0.929 . S
C4246 C4242 1.531 . S
C4246 H4258 0.960 . S
C4246 H4259 0.962 . S
C4246 H4260 0.960 . S
C4247 C4244 1.511 . S
C4247 H4261 0.961 . S
C4247 H4262 0.961 . S
C4247 H4263 0.961 . S
C4248 C4249 1.370 . S
C4248 C4250 1.363 . S
C4248 H4264 0.931 . S
C4249 C4248 1.370 . S
C4249 C4253 1.408 . S
C4250 C4248 1.363 . S
C4250 C4251 1.370 . S
C4250 C4254 1.524 . S
C4251 C4243 1.503 . S
C4251 C4250 1.370 . S
C4251 C4252 1.403 . S
C4252 C4251 1.403 . S
C4252 C4253 1.404 . S
C4252 C4255 1.539 . S
C4253 C4249 1.408 . S
C4253 C4252 1.404 . S
C4253 H4265 0.930 . S
C4254 C4250 1.524 . S
C4254 H4266 0.956 . S
C4254 H4267 0.961 . S
C4254 H4268 0.961 . S
C4255 C4252 1.539 . S
C4255 H4269 0.958 . S
C4255 H4270 0.961 . S
C4255 H4271 0.960 . S
H4256 C4240 0.931 . S
H4257 C4245 0.929 . S
H4258 C4246 0.960 . S
H4259 C4246 0.962 . S
H4260 C4246 0.960 . S
H4261 C4247 0.961 . S
H4262 C4247 0.961 . S
H4263 C4247 0.961 . S
H4264 C4248 0.931 . S
H4265 C4253 0.930 . S
H4266 C4254 0.956 . S
H4267 C4254 0.961 . S
H4268 C4254 0.961 . S
H4269 C4255 0.958 . S
H4270 C4255 0.961 . S
H4271 C4255 0.960 . S
C4272 C4273 1.391 . S
C4272 C4274 1.394 . S
C4272 H4288 0.931 . S
C4273 C4272 1.391 . S
C4273 C4277 1.376 . S
C4274 C4272 1.394 . S
C4274 C4275 1.369 . S
C4274 C4278 1.531 . S
C4275 C4274 1.369 . S
C4275 C4276 1.410 . S
C4275 C4283 1.503 . S
C4276 C4275 1.410 . S
C4276 C4277 1.392 . S
C4276 C4279 1.511 . S
C4277 C4273 1.376 . S
C4277 C4276 1.392 . S
C4277 H4289 0.929 . S
C4278 C4274 1.531 . S
C4278 H4290 0.960 . S
C4278 H4291 0.962 . S
C4278 H4292 0.960 . S
C4279 C4276 1.511 . S
C4279 H4293 0.961 . S
C4279 H4294 0.961 . S
C4279 H4295 0.961 . S
C4280 C4281 1.370 . S
C4280 C4282 1.363 . S
C4280 H4296 0.931 . S
C4281 C4280 1.370 . S
C4281 C4285 1.408 . S
C4282 C4280 1.363 . S
C4282 C4283 1.370 . S
C4282 C4286 1.524 . S
C4283 C4275 1.503 . S
C4283 C4282 1.370 . S
C4283 C4284 1.403 . S
C4284 C4283 1.403 . S
C4284 C4285 1.404 . S
C4284 C4287 1.539 . S
C4285 C4281 1.408 . S
C4285 C4284 1.404 . S
C4285 H4297 0.930 . S
C4286 C4282 1.524 . S
C4286 H4298 0.956 . S
C4286 H4299 0.961 . S
C4286 H4300 0.961 . S
C4287 C4284 1.539 . S
C4287 H4301 0.958 . S
C4287 H4302 0.961 . S
C4287 H4303 0.960 . S
H4288 C4272 0.931 . S
H4289 C4277 0.929 . S
H4290 C4278 0.960 . S
H4291 C4278 0.962 . S
H4292 C4278 0.960 . S
H4293 C4279 0.961 . S
H4294 C4279 0.961 . S
H4295 C4279 0.961 . S
H4296 C4280 0.931 . S
H4297 C4285 0.930 . S
H4298 C4286 0.956 . S
H4299 C4286 0.961 . S
H4300 C4286 0.961 . S
H4301 C4287 0.958 . S
H4302 C4287 0.961 . S
H4303 C4287 0.960 . S
C4304 C4305 1.391 . S
C4304 C4306 1.394 . S
C4304 H4320 0.931 . S
C4305 C4304 1.391 . S
C4305 C4309 1.376 . S
C4306 C4304 1.394 . S
C4306 C4307 1.369 . S
C4306 C4310 1.531 . S
C4307 C4306 1.369 . S
C4307 C4308 1.410 . S
C4307 C4315 1.503 . S
C4308 C4307 1.410 . S
C4308 C4309 1.392 . S
C4308 C4311 1.511 . S
C4309 C4305 1.376 . S
C4309 C4308 1.392 . S
C4309 H4321 0.929 . S
C4310 C4306 1.531 . S
C4310 H4322 0.960 . S
C4310 H4323 0.962 1_655 S
C4310 H4324 0.960 . S
C4311 C4308 1.511 . S
C4311 H4325 0.961 . S
C4311 H4326 0.961 . S
C4311 H4327 0.961 . S
C4312 C4313 1.370 . S
C4312 C4314 1.363 . S
C4312 H4328 0.931 . S
C4313 C4312 1.370 . S
C4313 C4317 1.408 . S
C4314 C4312 1.363 . S
C4314 C4315 1.370 1_455 S
C4314 C4318 1.524 . S
C4315 C4307 1.503 . S
C4315 C4314 1.370 1_655 S
C4315 C4316 1.403 . S
C4316 C4315 1.403 . S
C4316 C4317 1.404 1_655 S
C4316 C4319 1.539 . S
C4317 C4313 1.408 . S
C4317 C4316 1.404 1_455 S
C4317 H4329 0.930 . S
C4318 C4314 1.524 . S
C4318 H4330 0.956 . S
C4318 H4331 0.961 . S
C4318 H4332 0.961 . S
C4319 C4316 1.539 . S
C4319 H4333 0.958 . S
C4319 H4334 0.961 . S
C4319 H4335 0.960 . S
H4320 C4304 0.931 . S
H4321 C4309 0.929 . S
H4322 C4310 0.960 . S
H4323 C4310 0.962 1_455 S
H4324 C4310 0.960 . S
H4325 C4311 0.961 . S
H4326 C4311 0.961 . S
H4327 C4311 0.961 . S
H4328 C4312 0.931 . S
H4329 C4317 0.930 . S
H4330 C4318 0.956 . S
H4331 C4318 0.961 . S
H4332 C4318 0.961 . S
H4333 C4319 0.958 . S
H4334 C4319 0.961 . S
H4335 C4319 0.960 . S
C4336 C4337 1.391 . S
C4336 C4338 1.394 . S
C4336 H4352 0.931 . S
C4337 C4336 1.391 . S
C4337 C4341 1.376 . S
C4338 C4336 1.394 . S
C4338 C4339 1.369 . S
C4338 C4342 1.531 . S
C4339 C4338 1.369 . S
C4339 C4340 1.410 . S
C4339 C4347 1.503 . S
C4340 C4339 1.410 . S
C4340 C4341 1.392 . S
C4340 C4343 1.511 . S
C4341 C4337 1.376 . S
C4341 C4340 1.392 . S
C4341 H4353 0.929 . S
C4342 C4338 1.531 . S
C4342 H4354 0.960 . S
C4342 H4355 0.962 . S
C4342 H4356 0.960 . S
C4343 C4340 1.511 . S
C4343 H4357 0.961 . S
C4343 H4358 0.961 . S
C4343 H4359 0.961 . S
C4344 C4345 1.370 . S
C4344 C4346 1.363 . S
C4344 H4360 0.931 . S
C4345 C4344 1.370 . S
C4345 C4349 1.408 . S
C4346 C4344 1.363 . S
C4346 C4347 1.370 . S
C4346 C4350 1.524 . S
C4347 C4339 1.503 . S
C4347 C4346 1.370 . S
C4347 C4348 1.403 . S
C4348 C4347 1.403 . S
C4348 C4349 1.404 . S
C4348 C4351 1.539 . S
C4349 C4345 1.408 . S
C4349 C4348 1.404 . S
C4349 H4361 0.930 . S
C4350 C4346 1.524 . S
C4350 H4362 0.956 . S
C4350 H4363 0.961 . S
C4350 H4364 0.961 . S
C4351 C4348 1.539 . S
C4351 H4365 0.958 . S
C4351 H4366 0.961 . S
C4351 H4367 0.960 . S
H4352 C4336 0.931 . S
H4353 C4341 0.929 . S
H4354 C4342 0.960 . S
H4355 C4342 0.962 . S
H4356 C4342 0.960 . S
H4357 C4343 0.961 . S
H4358 C4343 0.961 . S
H4359 C4343 0.961 . S
H4360 C4344 0.931 . S
H4361 C4349 0.930 . S
H4362 C4350 0.956 . S
H4363 C4350 0.961 . S
H4364 C4350 0.961 . S
H4365 C4351 0.958 . S
H4366 C4351 0.961 . S
H4367 C4351 0.960 . S
C4368 C4369 1.391 . S
C4368 C4370 1.394 . S
C4368 H4384 0.931 . S
C4369 C4368 1.391 . S
C4369 C4373 1.376 . S
C4370 C4368 1.394 . S
C4370 C4371 1.369 . S
C4370 C4374 1.531 . S
C4371 C4370 1.369 . S
C4371 C4372 1.410 . S
C4371 C4379 1.503 . S
C4372 C4371 1.410 . S
C4372 C4373 1.392 . S
C4372 C4375 1.511 . S
C4373 C4369 1.376 . S
C4373 C4372 1.392 . S
C4373 H4385 0.929 . S
C4374 C4370 1.531 . S
C4374 H4386 0.960 . S
C4374 H4387 0.962 . S
C4374 H4388 0.960 . S
C4375 C4372 1.511 . S
C4375 H4389 0.961 . S
C4375 H4390 0.961 . S
C4375 H4391 0.961 . S
C4376 C4377 1.370 . S
C4376 C4378 1.363 . S
C4376 H4392 0.931 . S
C4377 C4376 1.370 . S
C4377 C4381 1.408 . S
C4378 C4376 1.363 . S
C4378 C4379 1.370 . S
C4378 C4382 1.524 . S
C4379 C4371 1.503 . S
C4379 C4378 1.370 . S
C4379 C4380 1.403 . S
C4380 C4379 1.403 . S
C4380 C4381 1.404 . S
C4380 C4383 1.539 . S
C4381 C4377 1.408 . S
C4381 C4380 1.404 . S
C4381 H4393 0.930 . S
C4382 C4378 1.524 . S
C4382 H4394 0.956 . S
C4382 H4395 0.961 . S
C4382 H4396 0.961 . S
C4383 C4380 1.539 . S
C4383 H4397 0.958 . S
C4383 H4398 0.961 . S
C4383 H4399 0.960 . S
H4384 C4368 0.931 . S
H4385 C4373 0.929 . S
H4386 C4374 0.960 . S
H4387 C4374 0.962 . S
H4388 C4374 0.960 . S
H4389 C4375 0.961 . S
H4390 C4375 0.961 . S
H4391 C4375 0.961 . S
H4392 C4376 0.931 . S
H4393 C4381 0.930 . S
H4394 C4382 0.956 . S
H4395 C4382 0.961 . S
H4396 C4382 0.961 . S
H4397 C4383 0.958 . S
H4398 C4383 0.961 . S
H4399 C4383 0.960 . S
C4400 C4401 1.391 . S
C4400 C4402 1.394 . S
C4400 H4416 0.931 . S
C4401 C4400 1.391 . S
C4401 C4405 1.376 . S
C4402 C4400 1.394 . S
C4402 C4403 1.369 . S
C4402 C4406 1.531 . S
C4403 C4402 1.369 . S
C4403 C4404 1.410 . S
C4403 C4411 1.503 . S
C4404 C4403 1.410 . S
C4404 C4405 1.392 . S
C4404 C4407 1.511 . S
C4405 C4401 1.376 . S
C4405 C4404 1.392 . S
C4405 H4417 0.929 . S
C4406 C4402 1.531 . S
C4406 H4418 0.960 . S
C4406 H4419 0.962 . S
C4406 H4420 0.960 . S
C4407 C4404 1.511 . S
C4407 H4421 0.961 . S
C4407 H4422 0.961 . S
C4407 H4423 0.961 . S
C4408 C4409 1.370 . S
C4408 C4410 1.363 . S
C4408 H4424 0.931 . S
C4409 C4408 1.370 . S
C4409 C4413 1.408 . S
C4410 C4408 1.363 . S
C4410 C4411 1.370 . S
C4410 C4414 1.524 . S
C4411 C4403 1.503 . S
C4411 C4410 1.370 . S
C4411 C4412 1.403 . S
C4412 C4411 1.403 . S
C4412 C4413 1.404 . S
C4412 C4415 1.539 . S
C4413 C4409 1.408 . S
C4413 C4412 1.404 . S
C4413 H4425 0.930 . S
C4414 C4410 1.524 . S
C4414 H4426 0.956 . S
C4414 H4427 0.961 . S
C4414 H4428 0.961 . S
C4415 C4412 1.539 . S
C4415 H4429 0.958 . S
C4415 H4430 0.961 . S
C4415 H4431 0.960 . S
H4416 C4400 0.931 . S
H4417 C4405 0.929 . S
H4418 C4406 0.960 . S
H4419 C4406 0.962 . S
H4420 C4406 0.960 . S
H4421 C4407 0.961 . S
H4422 C4407 0.961 . S
H4423 C4407 0.961 . S
H4424 C4408 0.931 . S
H4425 C4413 0.930 . S
H4426 C4414 0.956 . S
H4427 C4414 0.961 . S
H4428 C4414 0.961 . S
H4429 C4415 0.958 . S
H4430 C4415 0.961 . S
H4431 C4415 0.960 . S
C4432 C4433 1.391 . S
C4432 C4434 1.394 . S
C4432 H4448 0.931 . S
C4433 C4432 1.391 . S
C4433 C4437 1.376 . S
C4434 C4432 1.394 . S
C4434 C4435 1.369 . S
C4434 C4438 1.531 1_655 S
C4435 C4434 1.369 . S
C4435 C4436 1.410 . S
C4435 C4443 1.503 . S
C4436 C4435 1.410 . S
C4436 C4437 1.392 . S
C4436 C4439 1.511 . S
C4437 C4433 1.376 . S
C4437 C4436 1.392 . S
C4437 H4449 0.929 . S
C4438 C4434 1.531 1_455 S
C4438 H4450 0.960 . S
C4438 H4451 0.962 . S
C4438 H4452 0.960 . S
C4439 C4436 1.511 . S
C4439 H4453 0.961 . S
C4439 H4454 0.961 . S
C4439 H4455 0.961 . S
C4440 C4441 1.389 . S
C4440 C4442 1.363 . S
C4440 H4456 0.931 . S
C4441 C4440 1.389 . S
C4441 C4445 1.402 1_655 S
C4442 C4440 1.363 . S
C4442 C4443 1.370 . S
C4442 C4446 1.524 . S
C4443 C4435 1.503 . S
C4443 C4442 1.370 . S
C4443 C4444 1.403 . S
C4444 C4443 1.403 . S
C4444 C4445 1.404 1_655 S
C4444 C4447 1.539 . S
C4445 C4441 1.402 1_455 S
C4445 C4444 1.404 1_455 S
C4445 H4457 0.930 . S
C4446 C4442 1.524 . S
C4446 H4458 0.956 . S
C4446 H4459 0.961 . S
C4446 H4460 0.961 . S
C4447 C4444 1.539 . S
C4447 H4461 0.958 1_655 S
C4447 H4462 0.961 . S
C4447 H4463 0.960 . S
H4448 C4432 0.931 . S
H4449 C4437 0.929 . S
H4450 C4438 0.960 . S
H4451 C4438 0.962 . S
H4452 C4438 0.960 . S
H4453 C4439 0.961 . S
H4454 C4439 0.961 . S
H4455 C4439 0.961 . S
H4456 C4440 0.931 . S
H4457 C4445 0.930 . S
H4458 C4446 0.956 . S
H4459 C4446 0.961 . S
H4460 C4446 0.961 . S
H4461 C4447 0.958 1_455 S
H4462 C4447 0.961 . S
H4463 C4447 0.960 . S
C4464 C4465 1.391 . S
C4464 C4466 1.394 . S
C4464 H4480 0.931 . S
C4465 C4464 1.391 . S
C4465 C4469 1.376 . S
C4466 C4464 1.394 . S
C4466 C4467 1.369 . S
C4466 C4470 1.531 . S
C4467 C4466 1.369 . S
C4467 C4468 1.410 . S
C4467 C4475 1.503 . S
C4468 C4467 1.410 . S
C4468 C4469 1.392 . S
C4468 C4471 1.511 . S
C4469 C4465 1.376 . S
C4469 C4468 1.392 . S
C4469 H4481 0.929 . S
C4470 C4466 1.531 . S
C4470 H4482 0.960 . S
C4470 H4483 0.962 . S
C4470 H4484 0.960 . S
C4471 C4468 1.511 . S
C4471 H4485 0.961 . S
C4471 H4486 0.961 . S
C4471 H4487 0.961 . S
C4472 C4473 1.370 . S
C4472 C4474 1.363 . S
C4472 H4488 0.931 . S
C4473 C4472 1.370 . S
C4473 C4477 1.408 . S
C4474 C4472 1.363 . S
C4474 C4475 1.370 . S
C4474 C4478 1.524 . S
C4475 C4467 1.503 . S
C4475 C4474 1.370 . S
C4475 C4476 1.403 . S
C4476 C4475 1.403 . S
C4476 C4477 1.404 . S
C4476 C4479 1.539 . S
C4477 C4473 1.408 . S
C4477 C4476 1.404 . S
C4477 H4489 0.930 . S
C4478 C4474 1.524 . S
C4478 H4490 0.956 . S
C4478 H4491 0.961 . S
C4478 H4492 0.961 . S
C4479 C4476 1.539 . S
C4479 H4493 0.958 . S
C4479 H4494 0.961 . S
C4479 H4495 0.960 . S
H4480 C4464 0.931 . S
H4481 C4469 0.929 . S
H4482 C4470 0.960 . S
H4483 C4470 0.962 . S
H4484 C4470 0.960 . S
H4485 C4471 0.961 . S
H4486 C4471 0.961 . S
H4487 C4471 0.961 . S
H4488 C4472 0.931 . S
H4489 C4477 0.930 . S
H4490 C4478 0.956 . S
H4491 C4478 0.961 . S
H4492 C4478 0.961 . S
H4493 C4479 0.958 . S
H4494 C4479 0.961 . S
H4495 C4479 0.960 . S
C4496 C4497 1.391 . S
C4496 C4498 1.394 . S
C4496 H4512 0.931 . S
C4497 C4496 1.391 . S
C4497 C4501 1.376 . S
C4498 C4496 1.394 . S
C4498 C4499 1.369 . S
C4498 C4502 1.531 . S
C4499 C4498 1.369 . S
C4499 C4500 1.410 . S
C4499 C4507 1.503 . S
C4500 C4499 1.410 . S
C4500 C4501 1.392 . S
C4500 C4503 1.511 . S
C4501 C4497 1.376 . S
C4501 C4500 1.392 . S
C4501 H4513 0.929 . S
C4502 C4498 1.531 . S
C4502 H4514 0.960 . S
C4502 H4515 0.962 . S
C4502 H4516 0.960 . S
C4503 C4500 1.511 . S
C4503 H4517 0.961 . S
C4503 H4518 0.961 . S
C4503 H4519 0.961 . S
C4504 C4505 1.370 . S
C4504 C4506 1.363 . S
C4504 H4520 0.931 . S
C4505 C4504 1.370 . S
C4505 C4509 1.408 . S
C4506 C4504 1.363 . S
C4506 C4507 1.370 . S
C4506 C4510 1.524 . S
C4507 C4499 1.503 . S
C4507 C4506 1.370 . S
C4507 C4508 1.403 . S
C4508 C4507 1.403 . S
C4508 C4509 1.404 . S
C4508 C4511 1.539 . S
C4509 C4505 1.408 . S
C4509 C4508 1.404 . S
C4509 H4521 0.930 . S
C4510 C4506 1.524 . S
C4510 H4522 0.956 . S
C4510 H4523 0.961 . S
C4510 H4524 0.961 . S
C4511 C4508 1.539 . S
C4511 H4525 0.958 . S
C4511 H4526 0.961 . S
C4511 H4527 0.960 . S
H4512 C4496 0.931 . S
H4513 C4501 0.929 . S
H4514 C4502 0.960 . S
H4515 C4502 0.962 . S
H4516 C4502 0.960 . S
H4517 C4503 0.961 . S
H4518 C4503 0.961 . S
H4519 C4503 0.961 . S
H4520 C4504 0.931 . S
H4521 C4509 0.930 . S
H4522 C4510 0.956 . S
H4523 C4510 0.961 . S
H4524 C4510 0.961 . S
H4525 C4511 0.958 . S
H4526 C4511 0.961 . S
H4527 C4511 0.960 . S
C4528 C4529 1.391 . S
C4528 C4530 1.394 . S
C4528 H4544 0.931 . S
C4529 C4528 1.391 . S
C4529 C4533 1.376 . S
C4530 C4528 1.394 . S
C4530 C4531 1.369 . S
C4530 C4534 1.531 . S
C4531 C4530 1.369 . S
C4531 C4532 1.410 . S
C4531 C4539 1.503 . S
C4532 C4531 1.410 . S
C4532 C4533 1.392 . S
C4532 C4535 1.511 . S
C4533 C4529 1.376 . S
C4533 C4532 1.392 . S
C4533 H4545 0.929 . S
C4534 C4530 1.531 . S
C4534 H4546 0.960 . S
C4534 H4547 0.962 . S
C4534 H4548 0.960 . S
C4535 C4532 1.511 . S
C4535 H4549 0.961 1_565 S
C4535 H4550 0.961 1_565 S
C4535 H4551 0.961 1_565 S
C4536 C4537 1.370 . S
C4536 C4538 1.363 . S
C4536 H4552 0.931 . S
C4537 C4536 1.370 . S
C4537 C4541 1.408 . S
C4538 C4536 1.363 . S
C4538 C4539 1.370 . S
C4538 C4542 1.524 . S
C4539 C4531 1.503 . S
C4539 C4538 1.370 . S
C4539 C4540 1.403 . S
C4540 C4539 1.403 . S
C4540 C4541 1.404 . S
C4540 C4543 1.539 . S
C4541 C4537 1.408 . S
C4541 C4540 1.404 . S
C4541 H4553 0.930 . S
C4542 C4538 1.524 . S
C4542 H4554 0.956 . S
C4542 H4555 0.961 . S
C4542 H4556 0.961 . S
C4543 C4540 1.539 . S
C4543 H4557 0.958 . S
C4543 H4558 0.961 . S
C4543 H4559 0.960 . S
H4544 C4528 0.931 . S
H4545 C4533 0.929 . S
H4546 C4534 0.960 . S
H4547 C4534 0.962 . S
H4548 C4534 0.960 . S
H4549 C4535 0.961 1_545 S
H4550 C4535 0.961 1_545 S
H4551 C4535 0.961 1_545 S
H4552 C4536 0.931 . S
H4553 C4541 0.930 . S
H4554 C4542 0.956 . S
H4555 C4542 0.961 . S
H4556 C4542 0.961 . S
H4557 C4543 0.958 . S
H4558 C4543 0.961 . S
H4559 C4543 0.960 . S
C4560 C4561 1.391 . S
C4560 C4562 1.394 . S
C4560 H4576 0.931 . S
C4561 C4560 1.391 . S
C4561 C4565 1.376 . S
C4562 C4560 1.394 . S
C4562 C4563 1.369 . S
C4562 C4566 1.531 . S
C4563 C4562 1.369 . S
C4563 C4564 1.410 . S
C4563 C4571 1.503 . S
C4564 C4563 1.410 . S
C4564 C4565 1.392 . S
C4564 C4567 1.511 . S
C4565 C4561 1.376 . S
C4565 C4564 1.392 . S
C4565 H4577 0.929 . S
C4566 C4562 1.531 . S
C4566 H4578 0.960 . S
C4566 H4579 0.962 . S
C4566 H4580 0.960 . S
C4567 C4564 1.511 . S
C4567 H4581 0.961 . S
C4567 H4582 0.961 . S
C4567 H4583 0.961 . S
C4568 C4569 1.370 . S
C4568 C4570 1.363 . S
C4568 H4584 0.931 . S
C4569 C4568 1.370 . S
C4569 C4573 1.408 . S
C4570 C4568 1.363 . S
C4570 C4571 1.370 . S
C4570 C4574 1.524 . S
C4571 C4563 1.503 . S
C4571 C4570 1.370 . S
C4571 C4572 1.403 . S
C4572 C4571 1.403 . S
C4572 C4573 1.404 . S
C4572 C4575 1.539 . S
C4573 C4569 1.408 . S
C4573 C4572 1.404 . S
C4573 H4585 0.930 . S
C4574 C4570 1.524 . S
C4574 H4586 0.956 . S
C4574 H4587 0.961 . S
C4574 H4588 0.961 . S
C4575 C4572 1.539 . S
C4575 H4589 0.958 . S
C4575 H4590 0.961 . S
C4575 H4591 0.960 . S
H4576 C4560 0.931 . S
H4577 C4565 0.929 . S
H4578 C4566 0.960 . S
H4579 C4566 0.962 . S
H4580 C4566 0.960 . S
H4581 C4567 0.961 . S
H4582 C4567 0.961 . S
H4583 C4567 0.961 . S
H4584 C4568 0.931 . S
H4585 C4573 0.930 . S
H4586 C4574 0.956 . S
H4587 C4574 0.961 . S
H4588 C4574 0.961 . S
H4589 C4575 0.958 . S
H4590 C4575 0.961 . S
H4591 C4575 0.960 . S
C4592 C4593 1.391 . S
C4592 C4594 1.394 . S
C4592 H4608 0.931 . S
C4593 C4592 1.391 . S
C4593 C4597 1.376 . S
C4594 C4592 1.394 . S
C4594 C4595 1.369 . S
C4594 C4598 1.531 . S
C4595 C4594 1.369 . S
C4595 C4596 1.410 . S
C4595 C4603 1.503 . S
C4596 C4595 1.410 . S
C4596 C4597 1.392 . S
C4596 C4599 1.511 1_554 S
C4597 C4593 1.376 . S
C4597 C4596 1.392 . S
C4597 H4609 0.929 . S
C4598 C4594 1.531 . S
C4598 H4610 0.960 . S
C4598 H4611 0.962 . S
C4598 H4612 0.960 . S
C4599 C4596 1.511 1_556 S
C4599 H4613 0.961 . S
C4599 H4614 0.961 . S
C4599 H4615 0.961 1_556 S
C4600 C4601 1.370 . S
C4600 C4602 1.363 . S
C4600 H4616 0.931 1_554 S
C4601 C4600 1.370 . S
C4601 C4605 1.408 . S
C4602 C4600 1.363 . S
C4602 C4603 1.370 . S
C4602 C4606 1.524 1_554 S
C4603 C4595 1.503 . S
C4603 C4602 1.370 . S
C4603 C4604 1.403 . S
C4604 C4603 1.403 . S
C4604 C4605 1.404 . S
C4604 C4607 1.539 . S
C4605 C4601 1.408 . S
C4605 C4604 1.404 . S
C4605 H4617 0.930 . S
C4606 C4602 1.524 1_556 S
C4606 H4618 0.956 . S
C4606 H4619 0.961 . S
C4606 H4620 0.961 . S
C4607 C4604 1.539 . S
C4607 H4621 0.958 . S
C4607 H4622 0.961 . S
C4607 H4623 0.960 . S
H4608 C4592 0.931 . S
H4609 C4597 0.929 . S
H4610 C4598 0.960 . S
H4611 C4598 0.962 . S
H4612 C4598 0.960 . S
H4613 C4599 0.961 . S
H4614 C4599 0.961 . S
H4615 C4599 0.961 1_554 S
H4616 C4600 0.931 1_556 S
H4617 C4605 0.930 . S
H4618 C4606 0.956 . S
H4619 C4606 0.961 . S
H4620 C4606 0.961 . S
H4621 C4607 0.958 . S
H4622 C4607 0.961 . S
H4623 C4607 0.960 . S
C4624 C4625 1.391 . S
C4624 C4626 1.394 . S
C4624 H4640 0.931 . S
C4625 C4624 1.391 . S
C4625 C4629 1.376 . S
C4626 C4624 1.394 . S
C4626 C4627 1.369 . S
C4626 C4630 1.531 . S
C4627 C4626 1.369 . S
C4627 C4628 1.410 . S
C4627 C4635 1.503 . S
C4628 C4627 1.410 . S
C4628 C4629 1.392 . S
C4628 C4631 1.511 . S
C4629 C4625 1.376 . S
C4629 C4628 1.392 . S
C4629 H4641 0.929 . S
C4630 C4626 1.531 . S
C4630 H4642 0.960 . S
C4630 H4643 0.962 . S
C4630 H4644 0.960 . S
C4631 C4628 1.511 . S
C4631 H4645 0.961 . S
C4631 H4646 0.961 . S
C4631 H4647 0.961 . S
C4632 C4633 1.370 . S
C4632 C4634 1.363 . S
C4632 H4648 0.931 . S
C4633 C4632 1.370 . S
C4633 C4637 1.408 . S
C4634 C4632 1.363 . S
C4634 C4635 1.370 . S
C4634 C4638 1.524 . S
C4635 C4627 1.503 . S
C4635 C4634 1.370 . S
C4635 C4636 1.403 . S
C4636 C4635 1.403 . S
C4636 C4637 1.404 . S
C4636 C4639 1.539 . S
C4637 C4633 1.408 . S
C4637 C4636 1.404 . S
C4637 H4649 0.930 . S
C4638 C4634 1.524 . S
C4638 H4650 0.956 . S
C4638 H4651 0.961 . S
C4638 H4652 0.961 . S
C4639 C4636 1.539 . S
C4639 H4653 0.958 . S
C4639 H4654 0.961 . S
C4639 H4655 0.960 . S
H4640 C4624 0.931 . S
H4641 C4629 0.929 . S
H4642 C4630 0.960 . S
H4643 C4630 0.962 . S
H4644 C4630 0.960 . S
H4645 C4631 0.961 . S
H4646 C4631 0.961 . S
H4647 C4631 0.961 . S
H4648 C4632 0.931 . S
H4649 C4637 0.930 . S
H4650 C4638 0.956 . S
H4651 C4638 0.961 . S
H4652 C4638 0.961 . S
H4653 C4639 0.958 . S
H4654 C4639 0.961 . S
H4655 C4639 0.960 . S
C4656 C4657 1.391 . S
C4656 C4658 1.394 . S
C4656 H4672 0.949 . S
C4657 C4656 1.391 . S
C4657 C4661 1.376 . S
C4658 C4656 1.394 . S
C4658 C4659 1.369 . S
C4658 C4662 1.531 1_554 S
C4659 C4658 1.369 . S
C4659 C4660 1.410 . S
C4659 C4667 1.503 . S
C4660 C4659 1.410 . S
C4660 C4661 1.392 . S
C4660 C4663 1.511 . S
C4661 C4657 1.376 . S
C4661 C4660 1.392 . S
C4661 H4673 0.929 . S
C4662 C4658 1.531 1_556 S
C4662 H4674 0.960 . S
C4662 H4675 0.962 . S
C4662 H4676 0.960 . S
C4663 C4660 1.511 . S
C4663 H4677 0.961 . S
C4663 H4678 0.961 . S
C4663 H4679 0.961 . S
C4664 C4665 1.354 1_556 S
C4664 C4666 1.346 1_556 S
C4664 H4680 0.967 . S
C4665 C4664 1.354 1_554 S
C4665 C4669 1.408 . S
C4666 C4664 1.346 1_554 S
C4666 C4667 1.370 . S
C4666 C4670 1.523 1_554 S
C4667 C4659 1.503 . S
C4667 C4666 1.370 . S
C4667 C4668 1.403 . S
C4668 C4667 1.403 . S
C4668 C4669 1.404 . S
C4668 C4671 1.539 . S
C4669 C4665 1.408 . S
C4669 C4668 1.404 . S
C4669 H4681 0.930 . S
C4670 C4666 1.523 1_556 S
C4670 H4682 0.958 . S
C4670 H4683 0.958 1_556 S
C4670 H4684 0.963 . S
C4671 C4668 1.539 . S
C4671 H4685 0.958 . S
C4671 H4686 0.961 . S
C4671 H4687 0.960 . S
H4672 C4656 0.949 . S
H4673 C4661 0.929 . S
H4674 C4662 0.960 . S
H4675 C4662 0.962 . S
H4676 C4662 0.960 . S
H4677 C4663 0.961 . S
H4678 C4663 0.961 . S
H4679 C4663 0.961 . S
H4680 C4664 0.967 . S
H4681 C4669 0.930 . S
H4682 C4670 0.958 . S
H4683 C4670 0.958 1_554 S
H4684 C4670 0.963 . S
H4685 C4671 0.958 . S
H4686 C4671 0.961 . S
H4687 C4671 0.960 . S
C4688 C4689 1.391 . S
C4688 C4690 1.394 . S
C4688 H4704 0.931 1_565 S
C4689 C4688 1.391 . S
C4689 C4693 1.376 . S
C4690 C4688 1.394 . S
C4690 C4691 1.369 . S
C4690 C4694 1.531 . S
C4691 C4690 1.369 . S
C4691 C4692 1.410 . S
C4691 C4699 1.503 . S
C4692 C4691 1.410 . S
C4692 C4693 1.392 . S
C4692 C4695 1.511 . S
C4693 C4689 1.376 . S
C4693 C4692 1.392 . S
C4693 H4705 0.929 . S
C4694 C4690 1.531 . S
C4694 H4706 0.960 . S
C4694 H4707 0.962 . S
C4694 H4708 0.960 . S
C4695 C4692 1.511 . S
C4695 H4709 0.961 . S
C4695 H4710 0.961 . S
C4695 H4711 0.961 . S
C4696 C4697 1.370 . S
C4696 C4698 1.363 . S
C4696 H4712 0.931 . S
C4697 C4696 1.370 . S
C4697 C4701 1.408 . S
C4698 C4696 1.363 . S
C4698 C4699 1.370 . S
C4698 C4702 1.524 . S
C4699 C4691 1.503 . S
C4699 C4698 1.370 . S
C4699 C4700 1.403 . S
C4700 C4699 1.403 . S
C4700 C4701 1.404 . S
C4700 C4703 1.539 . S
C4701 C4697 1.408 . S
C4701 C4700 1.404 . S
C4701 H4713 0.930 . S
C4702 C4698 1.524 . S
C4702 H4714 0.956 . S
C4702 H4715 0.961 . S
C4702 H4716 0.961 . S
C4703 C4700 1.539 . S
C4703 H4717 0.958 . S
C4703 H4718 0.961 . S
C4703 H4719 0.960 . S
H4704 C4688 0.931 1_545 S
H4705 C4693 0.929 . S
H4706 C4694 0.960 . S
H4707 C4694 0.962 . S
H4708 C4694 0.960 . S
H4709 C4695 0.961 . S
H4710 C4695 0.961 . S
H4711 C4695 0.961 . S
H4712 C4696 0.931 . S
H4713 C4701 0.930 . S
H4714 C4702 0.956 . S
H4715 C4702 0.961 . S
H4716 C4702 0.961 . S
H4717 C4703 0.958 . S
H4718 C4703 0.961 . S
H4719 C4703 0.960 . S
C4720 C4721 1.391 . S
C4720 C4722 1.394 . S
C4720 H4736 0.931 . S
C4721 C4720 1.391 . S
C4721 C4725 1.376 . S
C4722 C4720 1.394 . S
C4722 C4723 1.369 . S
C4722 C4726 1.531 . S
C4723 C4722 1.369 . S
C4723 C4724 1.410 . S
C4723 C4731 1.503 . S
C4724 C4723 1.410 . S
C4724 C4725 1.392 . S
C4724 C4727 1.511 . S
C4725 C4721 1.376 . S
C4725 C4724 1.392 . S
C4725 H4737 0.929 . S
C4726 C4722 1.531 . S
C4726 H4738 0.960 . S
C4726 H4739 0.962 . S
C4726 H4740 0.960 . S
C4727 C4724 1.511 . S
C4727 H4741 0.961 . S
C4727 H4742 0.961 . S
C4727 H4743 0.961 . S
C4728 C4729 1.370 . S
C4728 C4730 1.363 . S
C4728 H4744 0.931 . S
C4729 C4728 1.370 . S
C4729 C4733 1.408 . S
C4730 C4728 1.363 . S
C4730 C4731 1.370 . S
C4730 C4734 1.524 . S
C4731 C4723 1.503 . S
C4731 C4730 1.370 . S
C4731 C4732 1.403 . S
C4732 C4731 1.403 . S
C4732 C4733 1.404 . S
C4732 C4735 1.539 . S
C4733 C4729 1.408 . S
C4733 C4732 1.404 . S
C4733 H4745 0.930 . S
C4734 C4730 1.524 . S
C4734 H4746 0.956 . S
C4734 H4747 0.961 . S
C4734 H4748 0.961 . S
C4735 C4732 1.539 . S
C4735 H4749 0.958 . S
C4735 H4750 0.961 . S
C4735 H4751 0.960 . S
H4736 C4720 0.931 . S
H4737 C4725 0.929 . S
H4738 C4726 0.960 . S
H4739 C4726 0.962 . S
H4740 C4726 0.960 . S
H4741 C4727 0.961 . S
H4742 C4727 0.961 . S
H4743 C4727 0.961 . S
H4744 C4728 0.931 . S
H4745 C4733 0.930 . S
H4746 C4734 0.956 . S
H4747 C4734 0.961 . S
H4748 C4734 0.961 . S
H4749 C4735 0.958 . S
H4750 C4735 0.961 . S
H4751 C4735 0.960 . S
C1681 C109 1.745 . S
C1689 C403 1.605 . S
C1713 C61 1.940 . S
C1721 C486 2.073 . S
C1745 C74 1.556 . S
C1753 C571 1.516 . S
C1785 C651 1.461 . S
C1777 C96 1.601 . S
C1809 C25 1.475 1_455 S
C1817 C735 1.406 . S
C1849 C828 0.933 . S
C1841 C40 1.005 . S
C1881 C906 0.965 . S
C1873 C46 0.954 . S
C1905 C5 1.037 . S
C1913 C991 1.287 . S
C1945 C402 1.907 . S
C1937 C229 1.691 . S
C1969 C249 0.673 . S
C1977 C483 0.632 . S
C2009 C570 1.016 . S
C2001 C271 0.936 . S
C2041 C655 1.690 . S
C2033 C172 1.737 1_556 S
C2065 C236 2.024 . S
C2073 C739 1.897 . S
C2105 C831 1.260 . S
C2097 C242 1.346 . S
C2137 C903 0.767 . S
C2129 C278 0.725 . S
C2169 C990 1.563 . S
C2161 C179 1.651 . S
C2201 C399 1.324 . S
C2193 C159 1.163 . S
C2225 C285 1.678 . S
C2233 C1074 1.778 1_556 S
C2265 C1148 2.118 . S
C2257 C333 2.248 . S
C2297 C1243 0.510 . S
C2289 C320 0.507 . S
C2321 C123 0.790 . S
C2329 C987 0.781 . S
C2353 C138 1.457 . S
C2361 C567 1.396 . S
C2385 C326 2.329 . S
C2393 C1326 2.252 . S
C2425 C1411 0.710 . S
C2417 C298 0.772 . S
C2457 C392 1.601 . S
C2449 C67 1.645 . S
C2489 C1419 2.042 . S
C2481 C110 2.096 . S
C2513 C88 1.573 . S
C2521 C560 1.528 . S
C2545 C75 1.331 . S
C2553 C1332 1.355 . S
C2585 C744 1.413 . S
C2577 C11 1.420 . S
C2609 C47 0.817 . S
C2617 C1155 0.861 . S
C2649 C915 0.789 . S
C2641 C32 0.688 . S
C2681 C1484 1.316 . S
C2673 C26 1.480 . S
C2713 C411 1.974 . S
C2705 C152 2.098 . S
C2745 C1416 0.635 . S
C2737 C319 0.600 . S
C2769 C124 1.037 . S
C2777 C579 1.027 . S
C2801 C284 1.753 . S
C2809 C1316 1.686 . S
C2833 C145 1.901 . S
C2841 C728 1.853 . S
C2873 C1158 1.160 . S
C2865 C312 1.206 . S
C2897 C117 0.594 . S
C2905 C912 0.656 . S
C2929 C291 1.506 . S
C2937 C1503 1.448 . S
C2961 C194 1.439 . S
C2969 C408 1.382 1_554 S
C2993 C180 1.834 . S
C3001 C1083 1.752 . S
C3025 C263 2.130 . S
C3033 C823 1.994 . S
C3057 C243 0.748 . S
C3065 C1232 0.501 . S
C3097 C1500 0.956 . S
C3089 C277 0.971 . S
C3121 C215 1.221 . S
C3129 C576 1.385 . S
C3161 C663 2.157 . S
C3153 C256 2.169 . S
C3193 C476 0.824 . S
C3185 C200 0.785 . S
C3217 C81 1.743 . S
C3225 C1579 1.633 . S
C3257 C1410 2.067 . S
C3249 C89 1.936 . S
C3281 C102 1.570 . S
C3289 C1663 1.538 . S
C3313 C68 1.600 . S
C3321 C1323 1.445 . S
C3345 C53 1.464 . S
C3353 C1071 1.424 . S
C3385 C1164 0.891 . S
C3377 C12 1.021 . S
C3417 C1242 0.983 . S
C3409 C18 0.998 . S
C3449 C1495 1.274 . S
C3441 C33 1.082 . S
C3481 C1578 1.900 . S
C3473 C257 1.708 . S
C3505 C193 0.616 . S
C3513 C1407 0.670 . S
C3545 C1662 1.028 . S
C3537 C201 0.819 . S
C3577 C1327 1.677 . S
C3569 C214 1.750 . S
C3609 C1075 1.876 . S
C3601 C264 2.032 . S
C3633 C186 1.338 . S
C3641 C1167 1.251 . S
C3673 C1239 0.776 . S
C3665 C208 0.718 . S
C3697 C221 1.652 . S
C3705 C1494 1.535 . S
C3737 C1575 1.344 . S
C3729 C313 1.237 . S
C3761 C131 1.641 . S
C3769 C738 1.790 . S
C3801 C812 2.116 . S
C3793 C151 2.254 . S
C3833 C907 0.469 . S
C3825 C166 0.434 . S
C3865 C1491 0.781 . S
C3857 C305 0.790 . S
C3889 C292 1.469 . S
C3897 C1659 1.411 . S
C3929 C654 2.257 . S
C3921 C144 2.309 . S
C3961 C487 0.712 . S
C3953 C116 0.782 . S
C3985 C95 1.635 . S
C3993 C1568 1.602 . S
C4025 C495 2.025 . S
C4017 C82 2.084 . S
C4049 C60 1.574 . S
C4057 C1652 1.528 . S
C4081 C103 1.223 . S
C4089 C660 1.385 . S
C4113 C39 1.417 . S
C4121 C1080 1.412 . S
C4153 C819 0.920 . S
C4145 C19 0.952 . S
C4177 C4 0.735 . S
C4185 C1251 0.797 . S
C4209 C54 1.448 . S
C4217 C980 1.315 . S
C4249 C1587 1.997 . S
C4241 C334 2.093 . S
C4273 C165 0.622 . S
C4281 C492 0.640 . S
C4313 C1671 1.007 . S
C4305 C306 1.049 . S
C4337 C130 1.752 . S
C4345 C644 1.690 . S
C4369 C327 1.931 . S
C4377 C1064 1.859 . S
C4409 C822 1.158 . S
C4401 C158 1.226 . S
C4433 C299 0.781 . S
C4441 C1248 0.594 1_655 S
C4473 C999 1.415 . S
C4465 C137 1.535 . S
C4505 C1584 1.385 . S
C4497 C250 1.463 . S
C4537 C747 1.745 1_665 S
C4529 C222 1.831 . S
C4561 C235 2.137 . S
C4569 C1159 1.985 . S
C4601 C896 0.495 . S
C4593 C187 0.744 . S
C4625 C207 0.848 . S
C4633 C996 0.941 . S
C4657 C173 1.282 . S
C4665 C1668 1.398 1_554 S
C4697 C1335 2.174 . S
C4689 C228 2.204 1_565 S
C4729 C1400 0.790 . S
C4721 C270 0.856 . S
