# Generated by pormake.
# Topology ibd, (4,6)-cn, num edge types: 1
# Building blocks:
#     Node 0, Type 0, BuildingBlock: CEKHIL_clean_sbu_0, # of connection points: 4
#     Node 1, Type 0, BuildingBlock: CEKHIL_clean_sbu_0, # of connection points: 4
#     Node 2, Type 0, BuildingBlock: CEKHIL_clean_sbu_0, # of connection points: 4
#     Node 3, Type 0, BuildingBlock: CEKHIL_clean_sbu_0, # of connection points: 4
#     Node 4, Type 0, BuildingBlock: CEKHIL_clean_sbu_0, # of connection points: 4
#     Node 5, Type 0, BuildingBlock: CEKHIL_clean_sbu_0, # of connection points: 4
#     Node 6, Type 0, BuildingBlock: CEKHIL_clean_sbu_0, # of connection points: 4
#     Node 7, Type 0, BuildingBlock: CEKHIL_clean_sbu_0, # of connection points: 4
#     Node 8, Type 0, BuildingBlock: CEKHIL_clean_sbu_0, # of connection points: 4
#     Node 9, Type 0, BuildingBlock: CEKHIL_clean_sbu_0, # of connection points: 4
#     Node 10, Type 0, BuildingBlock: CEKHIL_clean_sbu_0, # of connection points: 4
#     Node 11, Type 0, BuildingBlock: CEKHIL_clean_sbu_0, # of connection points: 4
#     Node 12, Type 0, BuildingBlock: CEKHIL_clean_sbu_0, # of connection points: 4
#     Node 13, Type 0, BuildingBlock: CEKHIL_clean_sbu_0, # of connection points: 4
#     Node 14, Type 0, BuildingBlock: CEKHIL_clean_sbu_0, # of connection points: 4
#     Node 15, Type 0, BuildingBlock: CEKHIL_clean_sbu_0, # of connection points: 4
#     Node 16, Type 0, BuildingBlock: CEKHIL_clean_sbu_0, # of connection points: 4
#     Node 17, Type 0, BuildingBlock: CEKHIL_clean_sbu_0, # of connection points: 4
#     Node 18, Type 0, BuildingBlock: CEKHIL_clean_sbu_0, # of connection points: 4
#     Node 19, Type 0, BuildingBlock: CEKHIL_clean_sbu_0, # of connection points: 4
#     Node 20, Type 0, BuildingBlock: CEKHIL_clean_sbu_0, # of connection points: 4
#     Node 21, Type 0, BuildingBlock: CEKHIL_clean_sbu_0, # of connection points: 4
#     Node 22, Type 0, BuildingBlock: CEKHIL_clean_sbu_0, # of connection points: 4
#     Node 23, Type 0, BuildingBlock: CEKHIL_clean_sbu_0, # of connection points: 4
#     Node 24, Type 1, BuildingBlock: OJICUG_clean_sbu_0, # of connection points: 6
#     Node 25, Type 1, BuildingBlock: OJICUG_clean_sbu_0, # of connection points: 6
#     Node 26, Type 1, BuildingBlock: OJICUG_clean_sbu_0, # of connection points: 6
#     Node 27, Type 1, BuildingBlock: OJICUG_clean_sbu_0, # of connection points: 6
#     Node 28, Type 1, BuildingBlock: OJICUG_clean_sbu_0, # of connection points: 6
#     Node 29, Type 1, BuildingBlock: OJICUG_clean_sbu_0, # of connection points: 6
#     Node 30, Type 1, BuildingBlock: OJICUG_clean_sbu_0, # of connection points: 6
#     Node 31, Type 1, BuildingBlock: OJICUG_clean_sbu_0, # of connection points: 6
#     Node 32, Type 1, BuildingBlock: OJICUG_clean_sbu_0, # of connection points: 6
#     Node 33, Type 1, BuildingBlock: OJICUG_clean_sbu_0, # of connection points: 6
#     Node 34, Type 1, BuildingBlock: OJICUG_clean_sbu_0, # of connection points: 6
#     Node 35, Type 1, BuildingBlock: OJICUG_clean_sbu_0, # of connection points: 6
#     Node 36, Type 1, BuildingBlock: OJICUG_clean_sbu_0, # of connection points: 6
#     Node 37, Type 1, BuildingBlock: OJICUG_clean_sbu_0, # of connection points: 6
#     Node 38, Type 1, BuildingBlock: OJICUG_clean_sbu_0, # of connection points: 6
#     Node 39, Type 1, BuildingBlock: OJICUG_clean_sbu_0, # of connection points: 6
#     Edge 40, Type (0, 1), BuildingBlock: CIFDUS_clean_linker_0, # of connection points: 2
#     Edge 41, Type (0, 1), BuildingBlock: CIFDUS_clean_linker_0, # of connection points: 2
#     Edge 42, Type (0, 1), BuildingBlock: CIFDUS_clean_linker_0, # of connection points: 2
#     Edge 43, Type (0, 1), BuildingBlock: CIFDUS_clean_linker_0, # of connection points: 2
#     Edge 44, Type (0, 1), BuildingBlock: CIFDUS_clean_linker_0, # of connection points: 2
#     Edge 45, Type (0, 1), BuildingBlock: CIFDUS_clean_linker_0, # of connection points: 2
#     Edge 46, Type (0, 1), BuildingBlock: CIFDUS_clean_linker_0, # of connection points: 2
#     Edge 47, Type (0, 1), BuildingBlock: CIFDUS_clean_linker_0, # of connection points: 2
#     Edge 48, Type (0, 1), BuildingBlock: CIFDUS_clean_linker_0, # of connection points: 2
#     Edge 49, Type (0, 1), BuildingBlock: CIFDUS_clean_linker_0, # of connection points: 2
#     Edge 50, Type (0, 1), BuildingBlock: CIFDUS_clean_linker_0, # of connection points: 2
#     Edge 51, Type (0, 1), BuildingBlock: CIFDUS_clean_linker_0, # of connection points: 2
#     Edge 52, Type (0, 1), BuildingBlock: CIFDUS_clean_linker_0, # of connection points: 2
#     Edge 53, Type (0, 1), BuildingBlock: CIFDUS_clean_linker_0, # of connection points: 2
#     Edge 54, Type (0, 1), BuildingBlock: CIFDUS_clean_linker_0, # of connection points: 2
#     Edge 55, Type (0, 1), BuildingBlock: CIFDUS_clean_linker_0, # of connection points: 2
#     Edge 56, Type (0, 1), BuildingBlock: CIFDUS_clean_linker_0, # of connection points: 2
#     Edge 57, Type (0, 1), BuildingBlock: CIFDUS_clean_linker_0, # of connection points: 2
#     Edge 58, Type (0, 1), BuildingBlock: CIFDUS_clean_linker_0, # of connection points: 2
#     Edge 59, Type (0, 1), BuildingBlock: CIFDUS_clean_linker_0, # of connection points: 2
#     Edge 60, Type (0, 1), BuildingBlock: CIFDUS_clean_linker_0, # of connection points: 2
#     Edge 61, Type (0, 1), BuildingBlock: CIFDUS_clean_linker_0, # of connection points: 2
#     Edge 62, Type (0, 1), BuildingBlock: CIFDUS_clean_linker_0, # of connection points: 2
#     Edge 63, Type (0, 1), BuildingBlock: CIFDUS_clean_linker_0, # of connection points: 2
#     Edge 64, Type (0, 1), BuildingBlock: CIFDUS_clean_linker_0, # of connection points: 2
#     Edge 65, Type (0, 1), BuildingBlock: CIFDUS_clean_linker_0, # of connection points: 2
#     Edge 66, Type (0, 1), BuildingBlock: CIFDUS_clean_linker_0, # of connection points: 2
#     Edge 67, Type (0, 1), BuildingBlock: CIFDUS_clean_linker_0, # of connection points: 2
#     Edge 68, Type (0, 1), BuildingBlock: CIFDUS_clean_linker_0, # of connection points: 2
#     Edge 69, Type (0, 1), BuildingBlock: CIFDUS_clean_linker_0, # of connection points: 2
#     Edge 70, Type (0, 1), BuildingBlock: CIFDUS_clean_linker_0, # of connection points: 2
#     Edge 71, Type (0, 1), BuildingBlock: CIFDUS_clean_linker_0, # of connection points: 2
#     Edge 72, Type (0, 1), BuildingBlock: CIFDUS_clean_linker_0, # of connection points: 2
#     Edge 73, Type (0, 1), BuildingBlock: CIFDUS_clean_linker_0, # of connection points: 2
#     Edge 74, Type (0, 1), BuildingBlock: CIFDUS_clean_linker_0, # of connection points: 2
#     Edge 75, Type (0, 1), BuildingBlock: CIFDUS_clean_linker_0, # of connection points: 2
#     Edge 76, Type (0, 1), BuildingBlock: CIFDUS_clean_linker_0, # of connection points: 2
#     Edge 77, Type (0, 1), BuildingBlock: CIFDUS_clean_linker_0, # of connection points: 2
#     Edge 78, Type (0, 1), BuildingBlock: CIFDUS_clean_linker_0, # of connection points: 2
#     Edge 79, Type (0, 1), BuildingBlock: CIFDUS_clean_linker_0, # of connection points: 2
#     Edge 80, Type (0, 1), BuildingBlock: CIFDUS_clean_linker_0, # of connection points: 2
#     Edge 81, Type (0, 1), BuildingBlock: CIFDUS_clean_linker_0, # of connection points: 2
#     Edge 82, Type (0, 1), BuildingBlock: CIFDUS_clean_linker_0, # of connection points: 2
#     Edge 83, Type (0, 1), BuildingBlock: CIFDUS_clean_linker_0, # of connection points: 2
#     Edge 84, Type (0, 1), BuildingBlock: CIFDUS_clean_linker_0, # of connection points: 2
#     Edge 85, Type (0, 1), BuildingBlock: CIFDUS_clean_linker_0, # of connection points: 2
#     Edge 86, Type (0, 1), BuildingBlock: CIFDUS_clean_linker_0, # of connection points: 2
#     Edge 87, Type (0, 1), BuildingBlock: CIFDUS_clean_linker_0, # of connection points: 2
#     Edge 88, Type (0, 1), BuildingBlock: CIFDUS_clean_linker_0, # of connection points: 2
#     Edge 89, Type (0, 1), BuildingBlock: CIFDUS_clean_linker_0, # of connection points: 2
#     Edge 90, Type (0, 1), BuildingBlock: CIFDUS_clean_linker_0, # of connection points: 2
#     Edge 91, Type (0, 1), BuildingBlock: CIFDUS_clean_linker_0, # of connection points: 2
#     Edge 92, Type (0, 1), BuildingBlock: CIFDUS_clean_linker_0, # of connection points: 2
#     Edge 93, Type (0, 1), BuildingBlock: CIFDUS_clean_linker_0, # of connection points: 2
#     Edge 94, Type (0, 1), BuildingBlock: CIFDUS_clean_linker_0, # of connection points: 2
#     Edge 95, Type (0, 1), BuildingBlock: CIFDUS_clean_linker_0, # of connection points: 2
#     Edge 96, Type (0, 1), BuildingBlock: CIFDUS_clean_linker_0, # of connection points: 2
#     Edge 97, Type (0, 1), BuildingBlock: CIFDUS_clean_linker_0, # of connection points: 2
#     Edge 98, Type (0, 1), BuildingBlock: CIFDUS_clean_linker_0, # of connection points: 2
#     Edge 99, Type (0, 1), BuildingBlock: CIFDUS_clean_linker_0, # of connection points: 2
#     Edge 100, Type (0, 1), BuildingBlock: CIFDUS_clean_linker_0, # of connection points: 2
#     Edge 101, Type (0, 1), BuildingBlock: CIFDUS_clean_linker_0, # of connection points: 2
#     Edge 102, Type (0, 1), BuildingBlock: CIFDUS_clean_linker_0, # of connection points: 2
#     Edge 103, Type (0, 1), BuildingBlock: CIFDUS_clean_linker_0, # of connection points: 2
#     Edge 104, Type (0, 1), BuildingBlock: CIFDUS_clean_linker_0, # of connection points: 2
#     Edge 105, Type (0, 1), BuildingBlock: CIFDUS_clean_linker_0, # of connection points: 2
#     Edge 106, Type (0, 1), BuildingBlock: CIFDUS_clean_linker_0, # of connection points: 2
#     Edge 107, Type (0, 1), BuildingBlock: CIFDUS_clean_linker_0, # of connection points: 2
#     Edge 108, Type (0, 1), BuildingBlock: CIFDUS_clean_linker_0, # of connection points: 2
#     Edge 109, Type (0, 1), BuildingBlock: CIFDUS_clean_linker_0, # of connection points: 2
#     Edge 110, Type (0, 1), BuildingBlock: CIFDUS_clean_linker_0, # of connection points: 2
#     Edge 111, Type (0, 1), BuildingBlock: CIFDUS_clean_linker_0, # of connection points: 2
#     Edge 112, Type (0, 1), BuildingBlock: CIFDUS_clean_linker_0, # of connection points: 2
#     Edge 113, Type (0, 1), BuildingBlock: CIFDUS_clean_linker_0, # of connection points: 2
#     Edge 114, Type (0, 1), BuildingBlock: CIFDUS_clean_linker_0, # of connection points: 2
#     Edge 115, Type (0, 1), BuildingBlock: CIFDUS_clean_linker_0, # of connection points: 2
#     Edge 116, Type (0, 1), BuildingBlock: CIFDUS_clean_linker_0, # of connection points: 2
#     Edge 117, Type (0, 1), BuildingBlock: CIFDUS_clean_linker_0, # of connection points: 2
#     Edge 118, Type (0, 1), BuildingBlock: CIFDUS_clean_linker_0, # of connection points: 2
#     Edge 119, Type (0, 1), BuildingBlock: CIFDUS_clean_linker_0, # of connection points: 2
#     Edge 120, Type (0, 1), BuildingBlock: CIFDUS_clean_linker_0, # of connection points: 2
#     Edge 121, Type (0, 1), BuildingBlock: CIFDUS_clean_linker_0, # of connection points: 2
#     Edge 122, Type (0, 1), BuildingBlock: CIFDUS_clean_linker_0, # of connection points: 2
#     Edge 123, Type (0, 1), BuildingBlock: CIFDUS_clean_linker_0, # of connection points: 2
#     Edge 124, Type (0, 1), BuildingBlock: CIFDUS_clean_linker_0, # of connection points: 2
#     Edge 125, Type (0, 1), BuildingBlock: CIFDUS_clean_linker_0, # of connection points: 2
#     Edge 126, Type (0, 1), BuildingBlock: CIFDUS_clean_linker_0, # of connection points: 2
#     Edge 127, Type (0, 1), BuildingBlock: CIFDUS_clean_linker_0, # of connection points: 2
#     Edge 128, Type (0, 1), BuildingBlock: CIFDUS_clean_linker_0, # of connection points: 2
#     Edge 129, Type (0, 1), BuildingBlock: CIFDUS_clean_linker_0, # of connection points: 2
#     Edge 130, Type (0, 1), BuildingBlock: CIFDUS_clean_linker_0, # of connection points: 2
#     Edge 131, Type (0, 1), BuildingBlock: CIFDUS_clean_linker_0, # of connection points: 2
#     Edge 132, Type (0, 1), BuildingBlock: CIFDUS_clean_linker_0, # of connection points: 2
#     Edge 133, Type (0, 1), BuildingBlock: CIFDUS_clean_linker_0, # of connection points: 2
#     Edge 134, Type (0, 1), BuildingBlock: CIFDUS_clean_linker_0, # of connection points: 2
#     Edge 135, Type (0, 1), BuildingBlock: CIFDUS_clean_linker_0, # of connection points: 2
# Relax obj value: 0.371
# Max RMSD: 0.283
# Mean RMSD: 0.280
data_MOF--net-ibd--node1-CEKHIL_clean_sbu_0--node2-OJICUG_clean_sbu_0--edge1-CIFDUS_clean_linker_0
_symmetry_space_group_name_H-M    P1
_symmetry_Int_Tables_number       1
_symmetry_cell_setting            triclinic
loop_
_symmetry_equiv_pos_as_xyz
'x, y, z'
_cell_length_a     42.899962
_cell_length_b     42.984309
_cell_length_c     42.986475
_cell_angle_alpha  90.322155
_cell_angle_beta   90.301822
_cell_angle_gamma 90.756921
loop_
_atom_site_label
_atom_site_type_symbol
_atom_site_fract_x
_atom_site_fract_y
_atom_site_fract_z
_atom_type_partial_charge
Co0 Co 0.98842 0.27816 0.33837 0.0
O1 O 0.9889 0.31767 0.31807 0.0
O2 O 0.95691 0.27806 0.30658 0.0
C3 C 0.9897 0.29785 0.38613 0.0
O4 O 0.97982 0.2349 0.35556 0.0
Co5 Co 0.04413 0.25804 0.37891 0.0
O6 O 0.01525 0.22458 0.39262 0.0
C7 C 0.05008 0.25747 0.31106 0.0
C8 C 0.96562 0.30677 0.30185 0.0
C9 C 0.99012 0.21805 0.37791 0.0
O10 O 0.0207 0.26263 0.30848 0.0
O11 O 0.0645 0.25679 0.33715 0.0
O12 O 0.96322 0.29495 0.37164 0.0
O13 O 0.01452 0.29088 0.37077 0.0
Co14 Co 0.0274 0.75497 0.63297 0.0
O15 O 0.9896 0.76062 0.65687 0.0
O16 O 0.03067 0.79227 0.65776 0.0
C17 C 0.00443 0.74306 0.58699 0.0
O18 O 0.06905 0.75992 0.61137 0.0
Co19 Co 0.04668 0.69321 0.60084 0.0
O20 O 0.08001 0.71864 0.58135 0.0
C21 C 0.05083 0.69928 0.66902 0.0
C22 C 0.00264 0.78616 0.66734 0.0
C23 C 0.08594 0.74613 0.59109 0.0
O24 O 0.04586 0.72881 0.66739 0.0
O25 O 0.04935 0.68105 0.64543 0.0
O26 O 0.0071 0.77197 0.59587 0.0
O27 O 0.01329 0.72268 0.60695 0.0
Co28 Co 0.5368 0.78348 0.89151 0.0
O29 O 0.53806 0.81038 0.85569 0.0
O30 O 0.49769 0.78113 0.87047 0.0
C31 C 0.55882 0.81619 0.92605 0.0
O32 O 0.52457 0.75444 0.92592 0.0
Co33 Co 0.59416 0.75889 0.92682 0.0
O34 O 0.56395 0.74098 0.95708 0.0
C35 C 0.5768 0.7314 0.86626 0.0
C36 C 0.50957 0.80058 0.85076 0.0
C37 C 0.53514 0.74037 0.9498 0.0
O38 O 0.55209 0.7479 0.86603 0.0
O39 O 0.59783 0.73376 0.88742 0.0
O40 O 0.52947 0.81872 0.91879 0.0
O41 O 0.57443 0.79605 0.91023 0.0
Co42 Co 0.50978 0.23965 0.11258 0.0
O43 O 0.49708 0.22576 0.15345 0.0
O44 O 0.49496 0.27416 0.13602 0.0
C45 C 0.48718 0.20059 0.08584 0.0
O46 O 0.51845 0.2643 0.07401 0.0
Co47 Co 0.55179 0.20451 0.06611 0.0
O48 O 0.54196 0.23782 0.03596 0.0
C49 C 0.57428 0.2255 0.12792 0.0
C50 C 0.48971 0.2547 0.15834 0.0
C51 C 0.5289 0.26212 0.04634 0.0
O52 O 0.55332 0.24655 0.12769 0.0
O53 O 0.57623 0.20502 0.10626 0.0
O54 O 0.47059 0.22408 0.095 0.0
O55 O 0.51611 0.20094 0.09409 0.0
Co56 Co 0.00195 0.74936 0.11607 0.0
O57 O 0.01202 0.78357 0.08902 0.0
O58 O 0.97186 0.75119 0.08251 0.0
C59 C 0.00677 0.77491 0.16135 0.0
O60 O 0.98327 0.71294 0.14006 0.0
Co61 Co 0.05255 0.72468 0.16195 0.0
O62 O 0.01834 0.69643 0.17542 0.0
C63 C 0.05921 0.71442 0.09543 0.0
C64 C 0.98723 0.77569 0.07326 0.0
C65 C 0.99148 0.69524 0.16264 0.0
O66 O 0.03026 0.72116 0.09134 0.0
O67 O 0.07372 0.71834 0.12119 0.0
O68 O 0.98141 0.77763 0.14502 0.0
O69 O 0.02928 0.76038 0.14812 0.0
Co70 Co 0.49459 0.74282 0.38934 0.0
O71 O 0.4682 0.75412 0.42289 0.0
O72 O 0.51492 0.7752 0.4137 0.0
C73 C 0.45677 0.74314 0.35331 0.0
O74 O 0.52736 0.73817 0.35626 0.0
Co75 Co 0.48401 0.68094 0.35323 0.0
O76 O 0.51623 0.69778 0.32459 0.0
C77 C 0.51331 0.68007 0.41497 0.0
C78 C 0.48963 0.77447 0.43023 0.0
C79 C 0.53287 0.72147 0.33212 0.0
O80 O 0.51484 0.70994 0.41504 0.0
O81 O 0.49918 0.66397 0.39398 0.0
O82 O 0.4707 0.76896 0.36145 0.0
O83 O 0.46453 0.71857 0.36858 0.0
Co84 Co 0.50409 0.26917 0.627 0.0
O85 O 0.50531 0.2962 0.5918 0.0
O86 O 0.46404 0.26825 0.60588 0.0
C87 C 0.52708 0.30237 0.66046 0.0
O88 O 0.4939 0.2398 0.66246 0.0
Co89 Co 0.56554 0.24794 0.6595 0.0
O90 O 0.53649 0.23481 0.69269 0.0
C91 C 0.5446 0.2179 0.60093 0.0
C92 C 0.47642 0.28826 0.58682 0.0
C93 C 0.5075 0.23048 0.68739 0.0
O94 O 0.51922 0.23355 0.60107 0.0
O95 O 0.56657 0.22183 0.6209 0.0
O96 O 0.49737 0.30442 0.65477 0.0
O97 O 0.54206 0.28259 0.64386 0.0
Co98 Co 0.95357 0.21762 0.86307 0.0
O99 O 0.91904 0.22955 0.88864 0.0
O100 O 0.96468 0.25448 0.8858 0.0
C101 C 0.92619 0.2078 0.81975 0.0
O102 O 0.99387 0.21473 0.8394 0.0
Co103 Co 0.96169 0.15243 0.83418 0.0
O104 O 0.99249 0.1739 0.80695 0.0
C105 C 0.97478 0.16208 0.90074 0.0
C106 C 0.93704 0.2525 0.89778 0.0
C107 C 0.00458 0.19959 0.81615 0.0
O108 O 0.97011 0.19132 0.89749 0.0
O109 O 0.97162 0.14217 0.87866 0.0
O110 O 0.93427 0.23627 0.82678 0.0
O111 O 0.93285 0.18671 0.83999 0.0
Co112 Co 0.37239 0.96004 0.20593 0.0
O113 O 0.41012 0.97482 0.18658 0.0
O114 O 0.39995 0.92581 0.19938 0.0
C115 C 0.33967 0.98681 0.17535 0.0
O116 O 0.33673 0.93515 0.22518 0.0
Co117 Co 0.32569 0.00336 0.23895 0.0
O118 O 0.29715 0.96663 0.23704 0.0
C119 C 0.38848 0.99295 0.26565 0.0
C120 C 0.41934 0.94617 0.18796 0.0
C121 C 0.30838 0.93959 0.23339 0.0
O122 O 0.39175 0.96908 0.2478 0.0
O123 O 0.36487 0.01084 0.264 0.0
O124 O 0.35038 0.96022 0.16578 0.0
O125 O 0.35017 -0.00341 0.20181 0.0
Co126 Co 0.2396 0.10285 0.50027 0.0
O127 O 0.23804 0.07013 0.53069 0.0
O128 O 0.27908 0.08266 0.50177 0.0
C129 C 0.21639 0.13908 0.52933 0.0
O130 O 0.25173 0.13466 0.46821 0.0
Co131 Co 0.18145 0.13459 0.4718 0.0
O132 O 0.21159 0.16215 0.45009 0.0
C133 C 0.20014 0.07245 0.44978 0.0
C134 C 0.26688 0.06515 0.5231 0.0
C135 C 0.24054 0.15606 0.451 0.0
O136 O 0.22486 0.07364 0.46678 0.0
O137 O 0.1791 0.09328 0.45021 0.0
O138 O 0.24595 0.13369 0.5331 0.0
O139 O 0.20159 0.12117 0.50996 0.0
Co140 Co 0.12934 0.01209 0.73151 0.0
O141 O 0.15249 0.00087 0.69518 0.0
O142 O 0.15051 0.97375 0.73898 0.0
C143 C 0.08582 0.02377 0.70562 0.0
O144 O 0.10685 0.01409 0.77277 0.0
Co145 Co 0.10459 0.07776 0.74351 0.0
O146 O 0.07802 0.05707 0.77509 0.0
C147 C 0.17146 0.06618 0.75123 0.0
C148 C 0.16051 0.97631 0.71062 0.0
C149 C 0.08529 0.03032 0.7852 0.0
O150 O 0.16608 0.03686 0.7477 0.0
O151 O 0.15033 0.08678 0.74886 0.0
O152 O 0.09166 -0.00492 0.71272 0.0
O153 O 0.10707 0.04427 0.71285 0.0
Co154 Co 0.20829 0.86516 0.98529 0.0
O155 O 0.2041 0.82776 0.00921 0.0
O156 O 0.24897 0.84867 0.99382 0.0
C157 C 0.17536 0.89318 0.0139 0.0
O158 O 0.2221 0.90359 0.96149 0.0
Co159 Co 0.15222 0.8932 0.94955 0.0
O160 O 0.18035 0.92967 0.94429 0.0
C161 C 0.18261 0.83662 0.92602 0.0
C162 C 0.23435 0.82701 0.00915 0.0
C163 C 0.20961 0.92731 0.94858 0.0
O164 O 0.20483 0.84053 0.94583 0.0
O165 O 0.15822 0.8535 0.92545 0.0
O166 O 0.20408 0.88977 0.02278 0.0
O167 O 0.16675 0.87774 0.98934 0.0
Co168 Co 0.30891 0.36736 0.03155 0.0
O169 O 0.33751 0.3332 0.02821 0.0
O170 O 0.30729 0.35056 0.99022 0.0
C171 C 0.34064 0.40119 0.05674 0.0
O172 O 0.27791 0.40183 0.02446 0.0
Co173 Co 0.28508 0.394 0.0941 0.0
O174 O 0.2684 0.42832 0.0684 0.0
C175 C 0.25868 0.33487 0.06967 0.0
C176 C 0.32793 0.33081 -0.0005 0.0
C177 C 0.26564 0.4247 0.03908 0.0
O178 O 0.27462 0.33795 0.04461 0.0
O179 O 0.26092 0.35371 0.09279 0.0
O180 O 0.34293 0.39739 0.02679 0.0
O181 O 0.32175 0.38228 0.07067 0.0
Co182 Co 0.71792 0.12427 -0.00392 0.0
O183 O 0.75056 0.0942 -0.00161 0.0
O184 O 0.72002 0.10118 0.9574 0.0
C185 C 0.74626 0.16375 0.0154 0.0
O186 O 0.68376 0.15498 0.98424 0.0
Co187 Co 0.69158 0.15624 0.05529 0.0
O188 O 0.68017 0.1882 0.02459 0.0
C189 C 0.67877 0.0898 0.04304 0.0
C190 C 0.7437 0.08712 0.96976 0.0
C191 C 0.67663 0.18169 -0.00415 0.0
O192 O 0.68784 0.09312 0.01469 0.0
O193 O 0.68029 0.11178 0.06322 0.0
O194 O 0.74857 0.15613 0.98623 0.0
O195 O 0.729 0.14582 0.03236 0.0
Co196 Co 0.12084 0.48213 0.21084 0.0
O197 O 0.15693 0.45513 0.20816 0.0
O198 O 0.14353 0.48336 0.24907 0.0
C199 C 0.08506 0.44953 0.18983 0.0
O200 O 0.08666 0.50998 0.22596 0.0
Co201 Co 0.08042 0.50785 0.15728 0.0
O202 O 0.0531 0.52627 0.1897 0.0
C203 C 0.14513 0.52936 0.16566 0.0
C204 C 0.16223 0.4633 0.23702 0.0
C205 C 0.06216 0.52456 0.21786 0.0
O206 O 0.14561 0.51815 0.19342 0.0
O207 O 0.12273 0.52458 0.14642 0.0
O208 O 0.09383 0.44613 0.21865 0.0
O209 O 0.09978 0.47063 0.17427 0.0
Co210 Co 0.72868 0.86084 0.48876 0.0
O211 O 0.7526 0.8243 0.49623 0.0
O212 O 0.72155 0.83142 0.45534 0.0
C213 C 0.76724 0.89533 0.49868 0.0
O214 O 0.70159 0.89553 0.4726 0.0
Co215 Co 0.71678 0.9079 0.54236 0.0
O216 O 0.69768 0.93308 0.50898 0.0
C217 C 0.68481 0.84716 0.54203 0.0
C218 C 0.74115 0.81396 0.47011 0.0
C219 C 0.69236 0.92236 0.48173 0.0
O220 O 0.69327 0.8427 0.51369 0.0
O221 O 0.69448 0.87014 0.55868 0.0
O222 O 0.76496 0.88217 0.47148 0.0
O223 O 0.74814 0.8852 0.51956 0.0
Co224 Co 0.89051 0.01282 0.30983 0.0
O225 O 0.92429 0.9854 0.31739 0.0
O226 O 0.91263 0.02596 0.34727 0.0
C227 C 0.85557 0.9749 0.29905 0.0
O228 O 0.85607 0.04506 0.30994 0.0
Co229 Co 0.85893 0.01441 0.24448 0.0
O230 O 0.82702 0.03868 0.26659 0.0
C231 C 0.92102 0.04301 0.2538 0.0
C232 C 0.93044 0.00231 0.34174 0.0
C233 C 0.83185 0.05097 0.29326 0.0
O234 O 0.91867 0.03969 0.28346 0.0
O235 O 0.90075 0.03251 0.23435 0.0
O236 O 0.86105 0.98273 0.32786 0.0
O237 O 0.87261 0.98853 0.2785 0.0
Co238 Co 0.24285 0.59678 0.52316 0.0
O239 O 0.27107 0.56196 0.52259 0.0
O240 O 0.23602 0.57272 0.48626 0.0
C241 C 0.27807 0.63332 0.5373 0.0
O242 O 0.21192 0.62984 0.51217 0.0
Co243 Co 0.22656 0.63745 0.58032 0.0
O244 O 0.20275 0.66369 0.55076 0.0
C245 C 0.20328 0.57305 0.57593 0.0
C246 C 0.25875 0.55545 0.4955 0.0
C247 C 0.19911 0.65436 0.5228 0.0
O248 O 0.2107 0.57192 0.54691 0.0
O249 O 0.21078 0.59568 0.59402 0.0
O250 O 0.2763 0.62405 0.50847 0.0
O251 O 0.26027 0.61884 0.55669 0.0
Co252 Co 0.35896 0.46728 0.71018 0.0
O253 O 0.3884 0.43426 0.71191 0.0
O254 O 0.38711 0.47489 0.74419 0.0
C255 C 0.31707 0.43701 0.70351 0.0
O256 O 0.33127 0.50468 0.71682 0.0
Co257 Co 0.32243 0.48053 0.65041 0.0
O258 O 0.29605 0.50611 0.67819 0.0
C259 C 0.38844 0.49718 0.65314 0.0
C260 C 0.40044 0.44929 0.73543 0.0
C261 C 0.30603 0.51512 0.70476 0.0
O262 O 0.38772 0.49078 0.6822 0.0
O263 O 0.36494 0.49348 0.635 0.0
O264 O 0.32825 0.44201 0.73127 0.0
O265 O 0.33298 0.44825 0.68047 0.0
Co266 Co 0.63192 0.00473 0.71149 0.0
O267 O 0.67178 0.98623 0.70357 0.0
O268 O 0.65878 0.01056 0.74713 0.0
C269 C 0.60283 0.96463 0.69443 0.0
O270 O 0.59296 0.02455 0.72961 0.0
Co271 Co 0.58423 0.01889 0.65929 0.0
O272 O 0.55446 0.01911 0.69443 0.0
C273 C 0.64234 0.05579 0.66453 0.0
C274 C 0.6793 0.99486 0.73167 0.0
C275 C 0.56382 0.02366 0.72229 0.0
O276 O 0.64701 0.0447 0.69196 0.0
O277 O 0.61975 0.0468 0.64696 0.0
O278 O 0.61438 0.96439 0.72243 0.0
O279 O 0.61129 0.98759 0.67703 0.0
Co280 Co 0.74082 0.63683 0.98286 0.0
O281 O 0.73428 0.59337 0.99035 0.0
O282 O 0.77219 0.61374 0.9614 0.0
C283 C 0.73554 0.65283 0.03206 0.0
O284 O 0.75604 0.67937 0.97063 0.0
Co285 Co 0.68948 0.68551 0.99436 0.0
O286 O 0.72138 0.71669 0.98123 0.0
C287 C 0.68231 0.63829 0.94549 0.0
C288 C 0.75876 0.5893 0.97318 0.0
C289 C 0.74784 0.70785 0.97152 0.0
O290 O 0.7119 0.63415 0.94619 0.0
O291 O 0.66806 0.655 0.96545 0.0
O292 O 0.76214 0.64218 0.02272 0.0
O293 O 0.71271 0.65122 0.01237 0.0
Co294 Co 0.88003 0.52575 0.74302 0.0
O295 O 0.9128 0.5291 0.71263 0.0
O296 O 0.88722 0.48573 0.72508 0.0
C297 C 0.85245 0.56704 0.72847 0.0
O298 O 0.84552 0.51212 0.77172 0.0
Co299 Co 0.86863 0.57488 0.79455 0.0
O300 O 0.83438 0.5472 0.80868 0.0
C301 C 0.9196 0.53 0.80172 0.0
C302 C 0.90896 0.49919 0.70894 0.0
C303 C 0.83007 0.52085 0.79561 0.0
O304 O 0.91154 0.51684 0.77607 0.0
O305 O 0.9066 0.55448 0.81235 0.0
O306 O 0.8498 0.5408 0.71351 0.0
O307 O 0.87373 0.56869 0.74991 0.0
Co308 Co 0.73433 0.38115 0.48646 0.0
O309 O 0.72605 0.34249 0.50737 0.0
O310 O 0.77105 0.35635 0.48578 0.0
C311 C 0.71285 0.41199 0.52212 0.0
O312 O 0.75297 0.41858 0.46472 0.0
Co313 Co 0.68294 0.42431 0.46246 0.0
O314 O 0.71731 0.45605 0.46254 0.0
C315 C 0.69249 0.36311 0.43304 0.0
C316 C 0.75483 0.33584 0.50104 0.0
C317 C 0.7455 0.44715 0.46135 0.0
O318 O 0.71931 0.36198 0.44639 0.0
O319 O 0.67313 0.38496 0.43826 0.0
O320 O 0.74119 0.40231 0.52595 0.0
O321 O 0.69771 0.40105 0.49829 0.0
Co322 Co 0.62202 0.51824 0.27047 0.0
O323 O 0.65313 0.53363 0.24215 0.0
O324 O 0.64867 0.48483 0.25862 0.0
C325 C 0.58121 0.54026 0.2474 0.0
O326 O 0.59334 0.49302 0.29795 0.0
Co327 Co 0.58458 0.56185 0.31266 0.0
O328 O 0.56211 0.52363 0.326 0.0
C329 C 0.65033 0.55123 0.32641 0.0
C330 C 0.66301 0.5052 0.24145 0.0
C331 C 0.57124 0.49684 0.31749 0.0
O332 O 0.64978 0.52906 0.30632 0.0
O333 O 0.62729 0.56928 0.33087 0.0
O334 O 0.59214 0.51413 0.23712 0.0
O335 O 0.5968 0.55379 0.26969 0.0
Sc336 Sc 0.09712 0.15566 0.10779 0.0
Sc337 Sc 0.13441 0.09809 0.15111 0.0
Sc338 Sc 0.14951 0.10567 0.07168 0.0
O339 O 0.1269 0.11991 0.11033 0.0
C340 C 0.08429 0.12489 0.04237 0.0
C341 C 0.06135 0.10819 0.15259 0.0
C342 C 0.12993 0.04254 0.10089 0.0
C343 C 0.12717 0.16836 0.17417 0.0
C344 C 0.1573 0.17846 0.06941 0.0
C345 C 0.20114 0.09426 0.12427 0.0
O346 O 0.07461 0.13816 0.06676 0.0
O347 O 0.08548 0.09281 0.15964 0.0
O348 O 0.13062 0.05996 0.07711 0.0
O349 O 0.11504 0.17753 0.14894 0.0
O350 O 0.16884 0.15158 0.06528 0.0
O351 O 0.18395 0.10224 0.14676 0.0
O352 O 0.13072 0.18288 0.0818 0.0
O353 O 0.13505 0.14031 0.17854 0.0
O354 O 0.19109 0.09189 0.09651 0.0
O355 O 0.06176 0.13151 0.13442 0.0
O356 O 0.11182 0.11487 0.03996 0.0
O357 O 0.13437 0.05268 0.12854 0.0
Sc358 Sc 0.1692 0.83409 0.38532 0.0
Sc359 Sc 0.08974 0.82497 0.39584 0.0
Sc360 Sc 0.11665 0.87573 0.34009 0.0
O361 O 0.12534 0.84488 0.37342 0.0
C362 C 0.17415 0.90594 0.37755 0.0
C363 C 0.13398 0.83783 0.4506 0.0
C364 C 0.06278 0.89274 0.38455 0.0
C365 C 0.14017 0.77034 0.39474 0.0
C366 C 0.17519 0.84552 0.31161 0.0
C367 C 0.0667 0.82098 0.32771 0.0
O368 O 0.18023 0.88193 0.3935 0.0
O369 O 0.10756 0.84381 0.43863 0.0
O370 O 0.08619 0.90216 0.36921 0.0
O371 O 0.15983 0.78529 0.37832 0.0
O372 O 0.14672 0.85248 0.30812 0.0
O373 O 0.07201 0.80628 0.3528 0.0
O374 O 0.1868 0.83938 0.33823 0.0
O375 O 0.11525 0.78284 0.40435 0.0
O376 O 0.07808 0.84793 0.32204 0.0
O377 O 0.15715 0.82918 0.43431 0.0
O378 O 0.15419 0.90605 0.35549 0.0
O379 O 0.05914 0.86435 0.39196 0.0
Sc380 Sc 0.40618 0.82834 0.63975 0.0
Sc381 Sc 0.33937 0.8573 0.60516 0.0
Sc382 Sc 0.36408 0.8868 0.67609 0.0
O383 O 0.37009 0.8574 0.64023 0.0
C384 C 0.39405 0.82834 0.70986 0.0
C385 C 0.35023 0.78624 0.61283 0.0
C386 C 0.29653 0.86649 0.66541 0.0
C387 C 0.4038 0.84714 0.56982 0.0
C388 C 0.435 0.89265 0.66627 0.0
C389 C 0.34104 0.92725 0.61856 0.0
O390 O 0.39576 0.81161 0.68555 0.0
O391 O 0.3312 0.8084 0.60976 0.0
O392 O 0.31903 0.86678 0.68477 0.0
O393 O 0.41985 0.84288 0.59426 0.0
O394 O 0.40936 0.90695 0.66923 0.0
O395 O 0.34616 0.90612 0.59859 0.0
O396 O 0.43689 0.86401 0.65867 0.0
O397 O 0.37427 0.84939 0.57021 0.0
O398 O 0.34267 0.9224 0.6477 0.0
O399 O 0.37875 0.79004 0.62049 0.0
O400 O 0.38528 0.8564 0.70926 0.0
O401 O 0.30082 0.86619 0.63608 0.0
Sc402 Sc 0.38826 0.07963 0.84374 0.0
Sc403 Sc 0.43117 0.12057 0.89976 0.0
Sc404 Sc 0.35135 0.11694 0.90534 0.0
O405 O 0.39003 0.10559 0.88247 0.0
C406 C 0.32643 0.1173 0.83516 0.0
C407 C 0.43606 0.13678 0.82986 0.0
C408 C 0.38715 0.17709 0.91724 0.0
C409 C 0.45294 0.05892 0.86473 0.0
C410 C 0.33883 0.04644 0.88912 0.0
C411 C 0.40074 0.10255 0.95991 0.0
O412 O 0.35059 0.10505 0.82374 0.0
O413 O 0.43901 0.1457 0.85807 0.0
O414 O 0.36355 0.16533 0.90345 0.0
O415 O 0.42521 0.05023 0.85897 0.0
O416 O 0.33718 0.06944 0.90775 0.0
O417 O 0.42247 0.09489 0.94139 0.0
O418 O 0.35526 0.04657 0.86435 0.0
O419 O 0.45876 0.08416 0.87914 0.0
O420 O 0.37497 0.11325 0.94989 0.0
O421 O 0.42089 0.11216 0.82141 0.0
O422 O 0.32313 0.12206 0.86414 0.0
O423 O 0.41179 0.16158 0.92182 0.0
Sc424 Sc 0.63143 0.41337 0.91219 0.0
Sc425 Sc 0.59214 0.36659 0.8588 0.0
Sc426 Sc 0.63176 0.43157 0.83447 0.0
O427 O 0.61807 0.40382 0.86876 0.0
C428 C 0.61983 0.47939 0.88949 0.0
C429 C 0.56249 0.3845 0.92072 0.0
C430 C 0.56321 0.42117 0.81774 0.0
C431 C 0.63926 0.34147 0.91095 0.0
C432 C 0.69159 0.42953 0.87168 0.0
C433 C 0.62959 0.36594 0.80004 0.0
O434 O 0.61139 0.45882 0.90899 0.0
O435 O 0.55802 0.37983 0.89191 0.0
O436 O 0.58449 0.44122 0.82369 0.0
O437 O 0.65143 0.36807 0.91702 0.0
O438 O 0.67857 0.42119 0.84629 0.0
O439 O 0.62546 0.35174 0.82538 0.0
O440 O 0.67641 0.43234 0.89702 0.0
O441 O 0.61584 0.33789 0.89277 0.0
O442 O 0.63036 0.39544 0.79919 0.0
O443 O 0.58847 0.39473 0.9315 0.0
O444 O 0.63318 0.4723 0.86409 0.0
O445 O 0.56555 0.39239 0.82457 0.0
Sc446 Sc 0.87187 0.35203 0.10514 0.0
Sc447 Sc 0.85801 0.42971 0.11774 0.0
Sc448 Sc 0.80695 0.38419 0.07186 0.0
O449 O 0.84545 0.38914 0.09797 0.0
C450 C 0.86097 0.34831 0.03488 0.0
C451 C 0.92379 0.4051 0.10959 0.0
C452 C 0.83372 0.44967 0.05048 0.0
C453 C 0.86485 0.37812 0.1709 0.0
C454 C 0.80607 0.31864 0.09712 0.0
C455 C 0.78461 0.429 0.12648 0.0
O456 O 0.88151 0.35036 0.05646 0.0
O457 O 0.90531 0.42652 0.10203 0.0
O458 O 0.81883 0.42441 0.04528 0.0
O459 O 0.86004 0.35491 0.15291 0.0
O460 O 0.79096 0.34363 0.0963 0.0
O461 O 0.81194 0.43708 0.13506 0.0
O462 O 0.83551 0.31862 0.09666 0.0
O463 O 0.86931 0.40592 0.16112 0.0
O464 O 0.77901 0.41107 0.10341 0.0
O465 O 0.91417 0.37776 0.11527 0.0
O466 O 0.83252 0.35617 0.03851 0.0
O467 O 0.84789 0.45559 0.07602 0.0
Sc468 Sc 0.89629 0.58555 0.35151 0.0
Sc469 Sc 0.91245 0.66347 0.36661 0.0
Sc470 Sc 0.86988 0.61864 0.41968 0.0
O471 O 0.89251 0.62292 0.37941 0.0
C472 C 0.82677 0.58306 0.36899 0.0
C473 C 0.89361 0.64061 0.30188 0.0
C474 C 0.84952 0.68573 0.39932 0.0
C475 C 0.96152 0.61104 0.34522 0.0
C476 C 0.89079 0.55189 0.4171 0.0
C477 C 0.92938 0.66089 0.43827 0.0
O478 O 0.84686 0.58288 0.3472 0.0
O479 O 0.88915 0.66164 0.32218 0.0
O480 O 0.84379 0.65965 0.41185 0.0
O481 O 0.94568 0.58873 0.35683 0.0
O482 O 0.89428 0.57732 0.43164 0.0
O483 O 0.93682 0.66856 0.41064 0.0
O484 O 0.89115 0.55117 0.38765 0.0
O485 O 0.95187 0.63912 0.34568 0.0
O486 O 0.90543 0.64439 0.44479 0.0
O487 O 0.90008 0.61291 0.30955 0.0
O488 O 0.83257 0.59257 0.39668 0.0
O489 O 0.87431 0.69134 0.38399 0.0
Sc490 Sc 0.91284 0.86509 0.86917 0.0
Sc491 Sc 0.84871 0.90178 0.89807 0.0
Sc492 Sc 0.88822 0.93416 0.83718 0.0
O493 O 0.88335 0.90023 0.86797 0.0
C494 C 0.95655 0.92475 0.85656 0.0
C495 C 0.90317 0.87083 0.93872 0.0
C496 C 0.86547 0.96959 0.89903 0.0
C497 C 0.84587 0.83345 0.881 0.0
C498 C 0.90726 0.87313 0.79847 0.0
C499 C 0.81782 0.92973 0.83613 0.0
O500 O 0.95268 0.89517 0.85713 0.0
O501 O 0.8744 0.87685 0.93432 0.0
O502 O 0.86928 0.96888 0.86952 0.0
O503 O 0.87565 0.83203 0.8819 0.0
O504 O 0.90707 0.9028 0.80129 0.0
O505 O 0.8181 0.92596 0.8656 0.0
O506 O 0.90349 0.85507 0.8214 0.0
O507 O 0.8315 0.85899 0.87993 0.0
O508 O 0.84208 0.92603 0.81972 0.0
O509 O 0.92303 0.87352 0.91713 0.0
O510 O 0.93387 0.94338 0.85468 0.0
O511 O 0.86632 0.94512 0.91537 0.0
Sc512 Sc 0.84639 0.11566 0.54434 0.0
Sc513 Sc 0.91327 0.15291 0.57461 0.0
Sc514 Sc 0.87756 0.09318 0.61565 0.0
O515 O 0.87901 0.12057 0.57806 0.0
C516 C 0.80707 0.10933 0.60753 0.0
C517 C 0.85478 0.18808 0.54569 0.0
C518 C 0.89792 0.15935 0.6447 0.0
C519 C 0.91006 0.12627 0.50662 0.0
C520 C 0.85481 0.04578 0.56214 0.0
C521 C 0.94881 0.09581 0.60604 0.0
O522 O 0.80866 0.10995 0.57786 0.0
O523 O 0.88354 0.18692 0.5529 0.0
O524 O 0.89235 0.13026 0.64634 0.0
O525 O 0.88058 0.12176 0.50733 0.0
O526 O 0.86165 0.05258 0.5902 0.0
O527 O 0.94769 0.1237 0.59635 0.0
O528 O 0.85234 0.06625 0.5411 0.0
O529 O 0.92604 0.13433 0.53038 0.0
O530 O 0.92457 0.07889 0.60923 0.0
O531 O 0.83709 0.16423 0.5448 0.0
O532 O 0.83086 0.10613 0.6248 0.0
O533 O 0.90265 0.17319 0.61908 0.0
Sc534 Sc 0.59775 0.0969 0.33063 0.0
Sc535 Sc 0.62699 0.13584 0.39665 0.0
Sc536 Sc 0.5552 0.15728 0.36554 0.0
O537 O 0.59326 0.12979 0.36421 0.0
C538 C 0.5747 0.15747 0.29468 0.0
C539 C 0.66856 0.11782 0.33816 0.0
C540 C 0.61091 0.20519 0.3828 0.0
C541 C 0.61786 0.06263 0.39334 0.0
C542 C 0.52453 0.09306 0.34189 0.0
C543 C 0.56439 0.14556 0.43603 0.0
O544 O 0.5871 0.13063 0.29486 0.0
O545 O 0.66564 0.12768 0.36584 0.0
O546 O 0.58218 0.1986 0.37828 0.0
O547 O 0.60972 0.06153 0.3647 0.0
O548 O 0.52276 0.12046 0.3529 0.0
O549 O 0.59383 0.14452 0.43297 0.0
O550 O 0.55017 0.08127 0.33371 0.0
O551 O 0.62402 0.08776 0.40798 0.0
O552 O 0.54588 0.1469 0.41304 0.0
O553 O 0.64575 0.10749 0.32223 0.0
O554 O 0.56215 0.16969 0.31837 0.0
O555 O 0.63138 0.18448 0.3868 0.0
Sc556 Sc 0.70235 0.86702 0.13166 0.0
Sc557 Sc 0.63698 0.82173 0.14984 0.0
Sc558 Sc 0.65462 0.88764 0.19484 0.0
O559 O 0.66487 0.85871 0.15906 0.0
C560 C 0.72806 0.88638 0.19945 0.0
C561 C 0.70509 0.7947 0.13562 0.0
C562 C 0.64038 0.81959 0.22265 0.0
C563 C 0.6502 0.84598 0.08251 0.0
C564 C 0.67388 0.93416 0.14021 0.0
C565 C 0.58686 0.87207 0.16993 0.0
O566 O 0.73138 0.88071 0.17058 0.0
O567 O 0.6756 0.79265 0.13801 0.0
O568 O 0.64367 0.84904 0.22553 0.0
O569 O 0.67797 0.85459 0.08901 0.0
O570 O 0.66328 0.92892 0.16734 0.0
O571 O 0.59419 0.84526 0.16014 0.0
O572 O 0.6877 0.91372 0.12412 0.0
O573 O 0.63121 0.83588 0.10273 0.0
O574 O 0.6067 0.89129 0.18106 0.0
O575 O 0.71966 0.8206 0.13622 0.0
O576 O 0.70156 0.88773 0.21236 0.0
O577 O 0.64046 0.80574 0.19648 0.0
Sc578 Sc 0.35685 0.64248 0.09406 0.0
Sc579 Sc 0.40083 0.68867 0.14573 0.0
Sc580 Sc 0.36926 0.61842 0.16938 0.0
O581 O 0.3756 0.65006 0.13619 0.0
C582 C 0.30304 0.6219 0.14192 0.0
C583 C 0.34619 0.71391 0.10165 0.0
C584 C 0.36863 0.68203 0.20852 0.0
C585 C 0.4248 0.67101 0.07956 0.0
C586 C 0.37448 0.57478 0.10922 0.0
C587 C 0.43873 0.63419 0.17875 0.0
O588 O 0.31346 0.62382 0.1141 0.0
O589 O 0.37105 0.71847 0.11757 0.0
O590 O 0.37018 0.65258 0.20638 0.0
O591 O 0.39828 0.6604 0.07045 0.0
O592 O 0.36779 0.57882 0.13775 0.0
O593 O 0.43407 0.6632 0.1746 0.0
O594 O 0.37648 0.59725 0.09038 0.0
O595 O 0.43028 0.67978 0.10727 0.0
O596 O 0.41808 0.61342 0.17326 0.0
O597 O 0.33609 0.68701 0.09427 0.0
O598 O 0.32052 0.6237 0.16576 0.0
O599 O 0.37292 0.69958 0.18527 0.0
Sc600 Sc 0.13707 0.54908 0.85579 0.0
Sc601 Sc 0.1759 0.60383 0.90449 0.0
Sc602 Sc 0.09664 0.61018 0.88973 0.0
O603 O 0.13664 0.58743 0.88325 0.0
C604 C 0.09655 0.5982 0.81727 0.0
C605 C 0.2029 0.57891 0.83987 0.0
C606 C 0.14625 0.66581 0.88327 0.0
C607 C 0.17814 0.5312 0.91604 0.0
C608 C 0.07079 0.54038 0.886 0.0
C609 C 0.12332 0.6147 0.95632 0.0
O610 O 0.1115 0.57267 0.81874 0.0
O611 O 0.20667 0.59258 0.86597 0.0
O612 O 0.11905 0.65518 0.88872 0.0
O613 O 0.1635 0.52383 0.89094 0.0
O614 O 0.06833 0.56921 0.89136 0.0
O615 O 0.15118 0.61838 0.9466 0.0
O616 O 0.09503 0.52871 0.87424 0.0
O617 O 0.18313 0.55921 0.92476 0.0
O618 O 0.10097 0.60674 0.93859 0.0
O619 O 0.17831 0.56392 0.83276 0.0
O620 O 0.09007 0.61438 0.84107 0.0
O621 O 0.17041 0.64911 0.88473 0.0
Sc622 Sc 0.119 0.35192 0.5844 0.0
Sc623 Sc 0.05254 0.31428 0.6118 0.0
Sc624 Sc 0.09716 0.36363 0.66103 0.0
O625 O 0.08946 0.34312 0.61927 0.0
C626 C 0.16561 0.35239 0.64266 0.0
C627 C 0.11022 0.27984 0.58008 0.0
C628 C 0.07346 0.29509 0.67949 0.0
C629 C 0.0549 0.34646 0.54722 0.0
C630 C 0.11159 0.41801 0.61185 0.0
C631 C 0.02427 0.37018 0.65131 0.0
O632 O 0.15906 0.35624 0.61416 0.0
O633 O 0.08142 0.28064 0.58749 0.0
O634 O 0.08481 0.32172 0.68687 0.0
O635 O 0.08423 0.34979 0.54875 0.0
O636 O 0.11096 0.40793 0.63978 0.0
O637 O 0.0207 0.34528 0.63539 0.0
O638 O 0.11048 0.40021 0.58824 0.0
O639 O 0.03886 0.33636 0.56968 0.0
O640 O 0.0505 0.37997 0.66139 0.0
O641 O 0.12793 0.30374 0.57987 0.0
O642 O 0.14481 0.34955 0.66335 0.0
O643 O 0.06211 0.28908 0.65287 0.0
Sc644 Sc 0.57919 0.64228 0.63389 0.0
Sc645 Sc 0.62344 0.58648 0.67327 0.0
Sc646 Sc 0.65889 0.63611 0.61868 0.0
O647 O 0.62055 0.62145 0.64199 0.0
C648 C 0.60509 0.63736 0.56646 0.0
C649 C 0.55588 0.57261 0.64553 0.0
C650 C 0.66475 0.56249 0.61663 0.0
C651 C 0.58223 0.63772 0.7074 0.0
C652 C 0.62687 0.69994 0.62978 0.0
C653 C 0.68905 0.62051 0.68456 0.0
O654 O 0.58255 0.63391 0.58516 0.0
O655 O 0.58099 0.56375 0.65816 0.0
O656 O 0.67027 0.58941 0.60564 0.0
O657 O 0.5736 0.65126 0.68258 0.0
O658 O 0.65132 0.68376 0.63063 0.0
O659 O 0.6664 0.60351 0.69336 0.0
O660 O 0.59963 0.68812 0.62806 0.0
O661 O 0.59927 0.61364 0.70774 0.0
O662 O 0.68958 0.63351 0.65815 0.0
O663 O 0.55187 0.60037 0.63685 0.0
O664 O 0.63328 0.64112 0.57535 0.0
O665 O 0.6482 0.55748 0.64069 0.0
Sc666 Sc 0.32734 0.35581 0.38943 0.0
Sc667 Sc 0.37546 0.39508 0.339 0.0
Sc668 Sc 0.39767 0.32417 0.36833 0.0
O669 O 0.36669 0.35813 0.36527 0.0
C670 C 0.37757 0.32896 0.43693 0.0
C671 C 0.3442 0.42451 0.39936 0.0
C672 C 0.43971 0.38557 0.36938 0.0
C673 C 0.30617 0.38584 0.32422 0.0
C674 C 0.33165 0.28832 0.36725 0.0
C675 C 0.40383 0.33841 0.29915 0.0
O676 O 0.34897 0.33231 0.42935 0.0
O677 O 0.35194 0.4271 0.37084 0.0
O678 O 0.43761 0.35616 0.36555 0.0
O679 O 0.30088 0.37939 0.35277 0.0
O680 O 0.36111 0.28852 0.37184 0.0
O681 O 0.40046 0.36754 0.30419 0.0
O682 O 0.31575 0.31296 0.3673 0.0
O683 O 0.3335 0.38732 0.31315 0.0
O684 O 0.39739 0.31804 0.31941 0.0
O685 O 0.33858 0.39854 0.41201 0.0
O686 O 0.3994 0.32972 0.41722 0.0
O687 O 0.41703 0.40362 0.36483 0.0
H688 H 0.10142 0.22166 0.30624 0.0
H689 H 0.03785 0.27692 0.25223 0.0
H690 H 0.0623 0.25923 0.20425 0.0
H691 H 0.09544 0.22215 0.17806 0.0
H692 H 0.15455 0.16176 0.23166 0.0
H693 H 0.13904 0.18831 0.27946 0.0
C694 C 0.09334 0.23026 0.28397 0.0
C695 C 0.0676 0.25015 0.28264 0.0
C696 C 0.1067 0.21906 0.25647 0.0
C697 C 0.0573 0.26115 0.25372 0.0
C698 C 0.07132 0.25113 0.22634 0.0
C699 C 0.10562 0.21518 0.20006 0.0
C700 C 0.12568 0.18956 0.20132 0.0
C701 C 0.09517 0.22918 0.22745 0.0
C702 C 0.13877 0.18115 0.23007 0.0
C703 C 0.1297 0.19616 0.25743 0.0
H704 H 0.08371 0.80755 0.57974 0.0
H705 H 0.14035 0.7269 0.56468 0.0
H706 H 0.16839 0.75402 0.52305 0.0
H707 H 0.16506 0.7937 0.48228 0.0
H708 H 0.10366 0.87143 0.49449 0.0
H709 H 0.08941 0.85271 0.54606 0.0
C710 C 0.10286 0.79623 0.56802 0.0
C711 C 0.10931 0.76492 0.57429 0.0
C712 C 0.11736 0.81119 0.54302 0.0
C713 C 0.13437 0.75065 0.55929 0.0
C714 C 0.15024 0.76609 0.5355 0.0
C715 C 0.14962 0.80724 0.49681 0.0
C716 C 0.13487 0.83351 0.48452 0.0
C717 C 0.1402 0.79537 0.52564 0.0
C718 C 0.11487 0.85086 0.50344 0.0
C719 C 0.10656 0.84004 0.53279 0.0
H720 H 0.46317 0.768 0.82314 0.0
H721 H 0.51512 0.85446 0.81792 0.0
H722 H 0.48202 0.87121 0.77465 0.0
H723 H 0.43839 0.86116 0.73897 0.0
H724 H 0.38933 0.77302 0.74083 0.0
H725 H 0.42121 0.7568 0.78545 0.0
C726 C 0.46716 0.79054 0.81253 0.0
C727 C 0.49118 0.81023 0.82372 0.0
C728 C 0.44849 0.79963 0.78751 0.0
C729 C 0.49668 0.83905 0.80955 0.0
C730 C 0.47773 0.84863 0.78502 0.0
C731 C 0.43443 0.83856 0.74951 0.0
C732 C 0.41118 0.81848 0.73751 0.0
C733 C 0.45349 0.82917 0.77404 0.0
C734 C 0.40684 0.78886 0.75029 0.0
C735 C 0.42509 0.77965 0.77556 0.0
H736 H 0.42629 0.18651 0.07396 0.0
H737 H 0.52008 0.15686 0.05497 0.0
H738 H 0.5003 0.11708 0.01928 0.0
H739 H 0.45742 0.09661 0.98767 0.0
H740 H 0.36353 0.12691 0.00533 0.0
H741 H 0.38218 0.15919 0.04843 0.0
C742 C 0.4423 0.17116 0.06214 0.0
C743 C 0.47455 0.17516 0.06634 0.0
C744 C 0.43079 0.14819 0.04166 0.0
C745 C 0.4951 0.15464 0.05162 0.0
C746 C 0.48384 0.13175 0.03132 0.0
C747 C 0.44083 0.10949 0.00148 0.0
C748 C 0.40935 0.11027 0.99243 0.0
C749 C 0.45182 0.12904 0.02537 0.0
C750 C 0.38809 0.12642 0.01126 0.0
C751 C 0.39876 0.14526 0.03572 0.0
H752 H 0.03143 0.74413 0.20965 0.0
H753 H 0.98731 0.83003 0.1849 0.0
H754 H -0.0014 0.8512 0.23694 0.0
H755 H 0.02724 0.84708 0.28659 0.0
H756 H 0.06874 0.75985 0.31185 0.0
H757 H 0.05125 0.7367 0.2626 0.0
C758 C 0.02386 0.76726 0.21584 0.0
C759 C 0.00925 0.78586 0.19358 0.0
C760 C 0.02987 0.77884 0.24575 0.0
C761 C -0.0011 0.81555 0.20184 0.0
C762 C 0.00539 0.8276 0.23146 0.0
C763 C 0.0318 0.82281 0.2815 0.0
C764 C 0.04967 0.80525 0.30232 0.0
C765 C 0.02176 0.80976 0.25321 0.0
C766 C 0.05506 0.77373 0.296 0.0
C767 C 0.04535 0.76062 0.26778 0.0
H768 H 0.4396 0.80961 0.43528 0.0
H769 H 0.5262 0.78798 0.48085 0.0
H770 H 0.50882 0.81471 0.52826 0.0
H771 H 0.46504 0.83511 0.55866 0.0
H772 H 0.37784 0.8548 0.51235 0.0
H773 H 0.39978 0.83874 0.46286 0.0
C774 C 0.45491 0.81155 0.45542 0.0
C775 C 0.48373 0.79669 0.4552 0.0
C776 C 0.44453 0.82627 0.48236 0.0
C777 C 0.50382 0.79938 0.48089 0.0
C778 C 0.49377 0.81439 0.50792 0.0
C779 C 0.45102 0.83654 0.53766 0.0
C780 C 0.41949 0.84511 0.53939 0.0
C781 C 0.46354 0.82657 0.50932 0.0
C782 C 0.40192 0.84755 0.51184 0.0
C783 C 0.4144 0.83831 0.4835 0.0
H784 H 0.52173 0.22244 0.74795 0.0
H785 H 0.45245 0.19868 0.67834 0.0
H786 H 0.42434 0.16664 0.71611 0.0
H787 H 0.42011 0.14473 0.76898 0.0
H788 H 0.48904 0.17061 0.8383 0.0
H789 H 0.51679 0.20223 0.80044 0.0
C790 C 0.50048 0.21025 0.741 0.0
C791 C 0.48929 0.21274 0.71041 0.0
C792 C 0.48446 0.19213 0.76274 0.0
C793 C 0.46148 0.19719 0.70186 0.0
C794 C 0.4455 0.17875 0.72337 0.0
C795 C 0.44125 0.15724 0.77565 0.0
C796 C 0.45251 0.15537 0.8063 0.0
C797 C 0.4569 0.17589 0.75385 0.0
C798 C 0.47977 0.17189 0.81485 0.0
C799 C 0.49571 0.18994 0.79324 0.0
H800 H 0.01865 0.11878 0.91137 0.0
H801 H 0.95798 0.18338 0.95751 0.0
H802 H 0.98431 0.17397 0.007 0.0
H803 H 0.02868 0.15314 0.03515 0.0
H804 H 0.0926 0.09207 0.98826 0.0
H805 H 0.06077 0.09416 0.94106 0.0
C806 C 0.01081 0.13017 0.93246 0.0
C807 C 0.98666 0.15182 0.93099 0.0
C808 C 0.02694 0.1257 0.9605 0.0
C809 C 0.97675 0.16677 0.95825 0.0
C810 C 0.99183 0.16149 0.98645 0.0
C811 C 0.03552 0.13993 0.01478 0.0
C812 C 0.06327 0.12293 0.01508 0.0
C813 C 0.01768 0.14193 0.98756 0.0
C814 C 0.07159 0.10577 0.9885 0.0
C815 C 0.05339 0.10691 0.96151 0.0
H816 H 0.32016 0.04415 0.18987 0.0
H817 H 0.30653 0.97016 0.12272 0.0
H818 H 0.26485 -0.00024 0.09769 0.0
H819 H 0.22916 0.04442 0.0985 0.0
H820 H 0.24147 0.11611 0.1683 0.0
H821 H 0.28748 0.08988 0.18845 0.0
C822 C 0.30823 0.03447 0.16964 0.0
C823 C 0.31607 0.00483 0.15838 0.0
C824 C 0.28426 0.05133 0.15582 0.0
C825 C 0.30069 0.99284 0.13193 0.0
C826 C 0.27693 0.00976 0.11765 0.0
C827 C 0.24249 0.05468 0.11756 0.0
C828 C 0.23217 0.0822 0.13189 0.0
C829 C 0.26813 0.03877 0.1298 0.0
C830 C 0.24913 0.09499 0.15696 0.0
C831 C 0.27524 0.07991 0.16856 0.0
H832 H 0.23261 0.01879 0.44984 0.0
H833 H 0.1569 0.06535 0.40341 0.0
H834 H 0.14549 0.01855 0.37305 0.0
H835 H 0.15296 0.9632 0.3644 0.0
H836 H 0.22625 0.91549 0.41329 0.0
H837 H 0.24316 0.96442 0.43753 0.0
C838 C 0.21385 0.01886 0.43282 0.0
C839 C 0.19529 0.04529 0.42929 0.0
C840 C 0.20698 0.99175 0.41593 0.0
C841 C 0.17121 0.04509 0.40697 0.0
C842 C 0.16471 0.0184 0.38952 0.0
C843 C 0.17305 0.96356 0.37985 0.0
C844 C 0.18808 0.9358 0.38742 0.0
C845 C 0.18186 0.99139 0.3945 0.0
C846 C 0.21406 0.93661 0.40746 0.0
C847 C 0.22367 0.9645 0.42138 0.0
H848 H 0.19074 0.92986 0.74007 0.0
H849 H 0.1743 0.96942 0.64944 0.0
H850 H 0.21067 0.933 0.62626 0.0
H851 H 0.25179 0.89541 0.63285 0.0
H852 H 0.27281 0.85951 0.72407 0.0
H853 H 0.22902 0.88816 0.74581 0.0
C854 C 0.19485 0.93019 0.71519 0.0
C855 C 0.18033 0.95252 0.69652 0.0
C856 C 0.2164 0.90973 0.70215 0.0
C857 C 0.18566 0.95272 0.66433 0.0
C858 C 0.20631 0.93183 0.65104 0.0
C859 C 0.24631 0.89303 0.65734 0.0
C860 C 0.26565 0.87559 0.6769 0.0
C861 C 0.22246 0.91092 0.66988 0.0
C862 C 0.2583 0.87296 0.7086 0.0
C863 C 0.23349 0.88956 0.72106 0.0
H864 H 0.26782 0.92236 0.92469 0.0
H865 H 0.19672 0.98882 0.94723 0.0
H866 H 0.23047 0.0313 0.92961 0.0
H867 H 0.28033 0.04956 0.90939 0.0
H868 H 0.35105 0.98399 0.88385 0.0
H869 H 0.31704 0.94076 0.90062 0.0
C870 C 0.25986 0.94619 0.92579 0.0
C871 C 0.23007 0.95263 0.93756 0.0
C872 C 0.27914 0.97042 0.91497 0.0
C873 C 0.21962 0.98342 0.93832 0.0
C874 C 0.23887 0.00765 0.92828 0.0
C875 C 0.28828 0.02575 0.90746 0.0
C876 C 0.31819 0.01978 0.89592 0.0
C877 C 0.26866 0.0014 0.91679 0.0
C878 C 0.32807 0.98896 0.89277 0.0
C879 C 0.30873 0.96439 0.9025 0.0
H880 H 0.24802 0.92749 0.21844 0.0
H881 H 0.32597 0.89163 0.26996 0.0
H882 H 0.29175 0.85345 0.29512 0.0
H883 H 0.23835 0.83743 0.30916 0.0
H884 H 0.16074 0.87218 0.25578 0.0
H885 H 0.19628 0.90252 0.22384 0.0
C886 C 0.25752 0.91079 0.23465 0.0
C887 C 0.28918 0.91267 0.24295 0.0
C888 C 0.23779 0.88875 0.24876 0.0
C889 C 0.30154 0.89066 0.26347 0.0
C890 C 0.28197 0.86893 0.27793 0.0
C891 C 0.22922 0.85083 0.28992 0.0
C892 C 0.19676 0.85332 0.28577 0.0
C893 C 0.24982 0.86871 0.27175 0.0
C894 C 0.18553 0.87023 0.26013 0.0
C895 C 0.20585 0.88792 0.24191 0.0
H896 H 0.26023 0.04205 0.58117 0.0
H897 H 0.31476 0.03368 0.4976 0.0
H898 H 0.34441 0.99148 0.52076 0.0
H899 H 0.35278 0.95518 0.56365 0.0
H900 H 0.29987 0.96474 0.64817 0.0
H901 H 0.27202 0.00872 0.62606 0.0
C902 C 0.27864 0.03093 0.56814 0.0
C903 C 0.28513 0.0405 0.53768 0.0
C904 C 0.29599 0.00716 0.58184 0.0
C905 C 0.30936 0.0265 0.5211 0.0
C906 C 0.32629 0.00242 0.5343 0.0
C907 C 0.33545 0.96721 0.57734 0.0
C908 C 0.32827 0.95677 0.60736 0.0
C909 C 0.31957 0.99237 0.56451 0.0
C910 C 0.30598 0.9726 0.62506 0.0
C911 C 0.28983 -0.00247 0.61233 0.0
H912 H 0.18945 0.11677 0.78534 0.0
H913 H 0.22522 0.03822 0.73446 0.0
H914 H 0.27816 0.05188 0.75103 0.0
H915 H 0.31287 0.08159 0.78523 0.0
H916 H 0.2767 0.15615 0.84149 0.0
H917 H 0.22544 0.14932 0.81683 0.0
C918 C 0.20894 0.10297 0.77755 0.0
C919 C 0.2035 0.07635 0.75903 0.0
C920 C 0.23919 0.11032 0.78807 0.0
C921 C 0.22885 0.05854 0.74913 0.0
C922 C 0.2591 0.06641 0.75848 0.0
C923 C 0.29406 0.09701 0.79146 0.0
C924 C 0.29852 0.11935 0.81513 0.0
C925 C 0.26439 0.09167 0.77867 0.0
C926 C 0.27376 0.1388 0.82329 0.0
C927 C 0.24443 0.13469 0.80942 0.0
H928 H 0.17859 0.91102 0.07374 0.0
H929 H 0.12727 0.92567 0.98867 0.0
H930 H 0.10247 0.97124 0.01162 0.0
H931 H 0.10387 0.01194 0.05193 0.0
H932 H 0.15653 -0.00231 0.13638 0.0
H933 H 0.17145 0.94621 0.11811 0.0
C934 C 0.16149 0.92389 0.0605 0.0
C935 C 0.15535 0.91582 0.02938 0.0
C936 C 0.14766 0.95004 0.07373 0.0
C937 C 0.13263 0.9319 0.01257 0.0
C938 C 0.11855 0.95795 0.02564 0.0
C939 C 0.11787 -0.00285 0.06669 0.0
C940 C 0.12978 0.00879 0.09503 0.0
C941 C 0.12711 0.96804 0.05564 0.0
C942 C 0.14728 0.9893 0.11434 0.0
C943 C 0.15612 0.96 0.10376 0.0
H944 H 0.25814 0.2809 0.0361 0.0
H945 H 0.20854 0.33012 0.10796 0.0
H946 H 0.17134 0.28704 0.11204 0.0
H947 H 0.15411 0.23486 0.09691 0.0
H948 H 0.20514 0.18363 0.02767 0.0
H949 H 0.24042 0.22827 0.02058 0.0
C950 C 0.2391 0.28224 0.05254 0.0
C951 C 0.23618 0.30865 0.07176 0.0
C952 C 0.21802 0.25713 0.05516 0.0
C953 C 0.2115 0.30996 0.09309 0.0
C954 C 0.19013 0.2854 0.09536 0.0
C955 C 0.17266 0.23358 0.0799 0.0
C956 C 0.17689 0.20609 0.06267 0.0
C957 C 0.1933 0.25882 0.07669 0.0
C958 C 0.2014 0.20459 0.04118 0.0
C959 C 0.2216 0.23005 0.03719 0.0
H960 H 0.69234 0.24168 0.00288 0.0
H961 H 0.64113 0.17903 0.9422 0.0
H962 H 0.6257 0.22318 0.90961 0.0
H963 H 0.6257 0.27993 0.89981 0.0
H964 H 0.67935 0.34116 0.96033 0.0
H965 H 0.69515 0.29697 0.99145 0.0
C966 C 0.67759 0.23766 0.98262 0.0
C967 C 0.66726 0.20732 0.97525 0.0
C968 C 0.66946 0.26284 0.96393 0.0
C969 C 0.64905 0.20228 0.94843 0.0
C970 C 0.64029 0.22749 0.92987 0.0
C971 C 0.64101 0.28359 0.91968 0.0
C972 C 0.65112 0.31397 0.92775 0.0
C973 C 0.6502 0.25793 0.93756 0.0
C974 C 0.67119 0.31816 0.95345 0.0
C975 C 0.68015 0.2929 0.97141 0.0
H976 H 0.0561 0.4635 0.13589 0.0
H977 H 0.05009 0.40226 0.21495 0.0
H978 H 0.00083 0.3806 0.19478 0.0
H979 H 0.95781 0.38217 0.15685 0.0
H980 H 0.96174 0.44728 0.0809 0.0
H981 H 0.01383 0.46453 0.09775 0.0
C982 C 0.04414 0.44533 0.14873 0.0
C983 C 0.0566 0.43461 0.17699 0.0
C984 C 0.01551 0.43385 0.13758 0.0
C985 C 0.04085 0.41097 0.19322 0.0
C986 C 0.01272 0.39865 0.18173 0.0
C987 C 0.97035 0.39975 0.14368 0.0
C988 C 0.95627 0.41332 0.1175 0.0
C989 C -0.00039 0.41032 0.15422 0.0
C990 C 0.9723 0.43655 0.10104 0.0
C991 C 0.00195 0.4464 0.11071 0.0
H992 H 0.77069 0.80755 0.41559 0.0
H993 H 0.7394 0.75697 0.49607 0.0
H994 H 0.76781 0.71102 0.47879 0.0
H995 H 0.80606 0.68788 0.44442 0.0
H996 H 0.84264 0.74016 0.36697 0.0
H997 H 0.80769 0.78306 0.37937 0.0
C998 C 0.76955 0.7861 0.42875 0.0
C999 C 0.75282 0.7851 0.45669 0.0
C1000 C 0.78733 0.7605 0.41954 0.0
C1001 C 0.75198 0.7578 0.47428 0.0
C1002 C 0.76835 0.73174 0.46453 0.0
C1003 C 0.80618 0.70846 0.42993 0.0
C1004 C 0.82706 0.71091 0.40489 0.0
C1005 C 0.78685 0.73321 0.43775 0.0
C1006 C 0.827 0.73785 0.38655 0.0
C1007 C 0.80699 0.76231 0.39358 0.0
H1008 H 0.92678 0.07129 0.19798 0.0
H1009 H 0.97861 0.04804 0.28083 0.0
H1010 H 0.02676 0.06659 0.2566 0.0
H1011 H 0.05438 0.08625 0.21074 0.0
H1012 H 0.00246 0.1113 0.12861 0.0
H1013 H 0.95382 0.09498 0.15371 0.0
C1014 C 0.94858 0.07051 0.21083 0.0
C1015 C 0.94923 0.05804 0.24101 0.0
C1016 C 0.97607 0.08116 0.19678 0.0
C1017 C 0.97752 0.0576 0.25759 0.0
C1018 C 0.00506 0.06798 0.24368 0.0
C1019 C 0.03239 0.08804 0.19834 0.0
C1020 C 0.03189 0.09937 0.16773 0.0
C1021 C 0.00466 0.0792 0.21309 0.0
C1022 C 0.00329 0.10241 0.15213 0.0
C1023 C 0.97558 0.09311 0.16646 0.0
H1024 H 0.27976 0.65931 0.59451 0.0
H1025 H 0.31789 0.66878 0.50228 0.0
H1026 H 0.34628 0.71593 0.51868 0.0
H1027 H 0.35743 0.75622 0.55858 0.0
H1028 H 0.31662 0.74786 0.64952 0.0
H1029 H 0.29209 0.69813 0.63447 0.0
C1030 C 0.29439 0.67156 0.57799 0.0
C1031 C 0.2966 0.66076 0.54717 0.0
C1032 C 0.31012 0.69873 0.58743 0.0
C1033 C 0.31573 0.6768 0.52609 0.0
C1034 C 0.33194 0.70371 0.53545 0.0
C1035 C 0.34355 0.74307 0.57509 0.0
C1036 C 0.33889 0.75501 0.6051 0.0
C1037 C 0.32895 0.71509 0.56595 0.0
C1038 C 0.32056 0.73855 0.62641 0.0
C1039 C 0.30651 0.71036 0.61776 0.0
H1040 H 0.03938 0.58344 0.22455 0.0
H1041 H 0.04416 0.49377 0.26869 0.0
H1042 H 0.01717 0.51385 0.31416 0.0
H1043 H 0.99111 0.55606 0.34081 0.0
H1044 H 0.9856 0.64629 0.29771 0.0
H1045 H 0.0152 0.62733 0.25323 0.0
C1046 C 0.03412 0.5684 0.24406 0.0
C1047 C 0.04322 0.53713 0.24327 0.0
C1048 C 0.01923 0.58035 0.27063 0.0
C1049 C 0.03704 0.51788 0.26884 0.0
C1050 C 0.02185 0.52937 0.2949 0.0
C1051 C -0.00317 0.57181 0.32197 0.0
C1052 C 0.98606 0.60251 0.32271 0.0
C1053 C 0.0129 0.56053 0.29608 0.0
C1054 C 0.99386 0.62259 0.29806 0.0
C1055 C 0.01037 0.61163 0.2723 0.0
H1056 H 0.44224 0.48459 0.76699 0.0
H1057 H 0.4235 0.39074 0.73531 0.0
H1058 H 0.47292 0.37373 0.75766 0.0
H1059 H 0.52107 0.3857 0.78622 0.0
H1060 H 0.54081 0.48013 0.81588 0.0
H1061 H 0.49133 0.49692 0.79384 0.0
C1062 C 0.44889 0.46037 0.76529 0.0
C1063 C 0.42931 0.43881 0.75002 0.0
C1064 C 0.47748 0.45098 0.77752 0.0
C1065 C 0.4383 0.40764 0.74722 0.0
C1066 C 0.46649 0.39794 0.7599 0.0
C1067 C 0.51452 0.40994 0.78787 0.0
C1068 C 0.53435 0.4316 0.80281 0.0
C1069 C 0.48622 0.41944 0.77507 0.0
C1070 C 0.52588 0.46303 0.8044 0.0
C1071 C 0.49757 0.47263 0.79197 0.0
H1072 H 0.94555 0.77858 0.6943 0.0
H1073 H 0.02354 0.84266 0.68828 0.0
H1074 H -0.00153 0.87789 0.72478 0.0
H1075 H 0.95637 0.88857 0.762 0.0
H1076 H 0.88019 0.82294 0.77059 0.0
H1077 H 0.902 0.79078 0.72915 0.0
C1078 C 0.95696 0.80033 0.70083 0.0
C1079 C 0.98652 0.80775 0.68876 0.0
C1080 C 0.94254 0.82043 0.72218 0.0
C1081 C 0.00091 0.83614 0.69741 0.0
C1082 C 0.98654 0.85643 0.71824 0.0
C1083 C 0.94413 0.86773 0.75406 0.0
C1084 C 0.91654 0.8583 0.76894 0.0
C1085 C 0.95756 0.84863 0.73116 0.0
C1086 C 0.90131 0.83076 0.75916 0.0
C1087 C 0.91393 0.81223 0.73569 0.0
H1088 H 0.0082 0.16861 0.4121 0.0
H1089 H 0.92703 0.21057 0.37118 0.0
H1090 H 0.89316 0.17835 0.40359 0.0
H1091 H 0.88769 0.14816 0.4519 0.0
H1092 H 0.96943 0.10922 0.49462 0.0
H1093 H 0.00184 0.12949 0.45273 0.0
C1094 C 0.98307 0.17011 0.40969 0.0
C1095 C 0.97017 0.19257 0.38998 0.0
C1096 C 0.9638 0.15219 0.42901 0.0
C1097 C 0.9376 0.19374 0.38649 0.0
C1098 C 0.91818 0.17545 0.4052 0.0
C1099 C 0.91237 0.14301 0.45128 0.0
C1100 C 0.92633 0.12781 0.47653 0.0
C1101 C 0.9311 0.15598 0.42782 0.0
C1102 C 0.95832 0.12129 0.47556 0.0
C1103 C 0.97689 0.13309 0.45176 0.0
H1104 H 0.5599 0.24985 0.18394 0.0
H1105 H 0.62097 0.18404 0.13983 0.0
H1106 H 0.62833 0.15764 0.18946 0.0
H1107 H 0.60935 0.14765 0.24254 0.0
H1108 H 0.54369 0.2111 0.28371 0.0
H1109 H 0.54533 0.24323 0.2376 0.0
C1110 C 0.57554 0.23026 0.18519 0.0
C1111 C 0.58907 0.21834 0.15804 0.0
C1112 C 0.57778 0.21391 0.21303 0.0
C1113 C 0.60982 0.19337 0.16036 0.0
C1114 C 0.61364 0.17795 0.18861 0.0
C1115 C 0.59542 0.16849 0.24139 0.0
C1116 C 0.57599 0.17653 0.26631 0.0
C1117 C 0.59619 0.18691 0.21458 0.0
C1118 C 0.55859 0.20403 0.26474 0.0
C1119 C 0.55965 0.22265 0.23846 0.0
H1120 H 0.61972 0.8212 0.9419 0.0
H1121 H 0.52722 0.84221 0.97421 0.0
H1122 H 0.54829 0.85655 0.02525 0.0
H1123 H 0.59193 0.85668 0.06219 0.0
H1124 H 0.68456 0.83602 0.03022 0.0
H1125 H 0.66457 0.82832 0.97722 0.0
C1126 C 0.60427 0.82938 0.96001 0.0
C1127 C 0.57196 0.83015 0.95461 0.0
C1128 C 0.61652 0.83736 0.98929 0.0
C1129 C 0.55217 0.84125 0.97795 0.0
C1130 C 0.56418 0.84929 0.00716 0.0
C1131 C 0.60776 0.85084 0.04349 0.0
C1132 C 0.63948 0.84629 0.04999 0.0
C1133 C 0.59612 0.8464 0.01333 0.0
C1134 C 0.65999 0.83945 0.02564 0.0
C1135 C 0.64856 0.8349 -0.00455 0.0
H1136 H 0.9364 0.23627 0.76431 0.0
H1137 H 0.88792 0.15922 0.80718 0.0
H1138 H 0.8714 0.13981 0.75623 0.0
H1139 H 0.87526 0.14161 0.70011 0.0
H1140 H 0.92662 0.21601 0.65585 0.0
H1141 H 0.9371 0.24001 0.70678 0.0
C1142 C 0.92174 0.21558 0.76235 0.0
C1143 C 0.9134 0.19902 0.78922 0.0
C1144 C 0.91313 0.20401 0.73287 0.0
C1145 C 0.89474 0.1721 0.78665 0.0
C1146 C 0.88532 0.16102 0.7576 0.0
C1147 C 0.88858 0.16322 0.70148 0.0
C1148 C 0.90059 0.17674 0.67433 0.0
C1149 C 0.89513 0.17628 0.73062 0.0
C1150 C 0.91722 0.20508 0.67647 0.0
C1151 C 0.92336 0.21869 0.70557 0.0
H1152 H 0.50448 0.20277 0.55393 0.0
H1153 H 0.59571 0.18196 0.59097 0.0
H1154 H 0.6074 0.15174 0.5446 0.0
H1155 H 0.59522 0.13901 0.49059 0.0
H1156 H 0.50525 0.16227 0.45226 0.0
H1157 H 0.48928 0.18285 0.50258 0.0
C1158 C 0.52677 0.1913 0.55209 0.0
C1159 C 0.54952 0.19546 0.57544 0.0
C1160 C 0.53364 0.17445 0.52512 0.0
C1161 C 0.57799 0.17977 0.57302 0.0
C1162 C 0.58473 0.16242 0.54652 0.0
C1163 C 0.5719 0.14807 0.49334 0.0
C1164 C 0.55185 0.15005 0.46753 0.0
C1165 C 0.56327 0.16082 0.52192 0.0
C1166 C 0.52138 0.16098 0.47167 0.0
C1167 C 0.51228 0.17295 0.50037 0.0
H1168 H 0.57185 0.77109 0.34042 0.0
H1169 H 0.55193 0.69432 0.27771 0.0
H1170 H 0.58923 0.71547 0.24051 0.0
H1171 H 0.62093 0.75929 0.22289 0.0
H1172 H 0.63715 0.83836 0.28368 0.0
H1173 H 0.60848 0.81209 0.32506 0.0
C1174 C 0.57586 0.7587 0.31879 0.0
C1175 C 0.55856 0.73151 0.31158 0.0
C1176 C 0.59665 0.7714 0.29719 0.0
C1177 C 0.56455 0.71554 0.28367 0.0
C1178 C 0.58589 0.72762 0.26238 0.0
C1179 C 0.61881 0.77066 0.24536 0.0
C1180 C 0.63059 0.80112 0.24991 0.0
C1181 C 0.60113 0.7561 0.26845 0.0
C1182 C 0.62795 0.81514 0.27937 0.0
C1183 C 0.61138 0.80021 0.30297 0.0
H1184 H 0.92763 0.78241 0.0528 0.0
H1185 H 0.02215 0.81316 0.03619 0.0
H1186 H 0.00422 0.847 0.99443 0.0
H1187 H 0.96191 0.86703 0.96199 0.0
H1188 H 0.86698 0.83798 0.97958 0.0
H1189 H 0.88471 0.8049 0.02206 0.0
C1190 C 0.94426 0.79639 0.03985 0.0
C1191 C 0.9762 0.79502 0.04722 0.0
C1192 C 0.93367 0.81644 0.01641 0.0
C1193 C -0.00253 0.81371 0.03077 0.0
C1194 C 0.98723 0.83313 0.00699 0.0
C1195 C 0.94503 0.85377 0.97538 0.0
C1196 C 0.91316 0.85506 0.96762 0.0
C1197 C 0.9554 0.83468 -0.00039 0.0
C1198 C 0.89161 0.83777 0.98527 0.0
C1199 C 0.90177 0.81856 0.00936 0.0
H1200 H 0.69216 0.99164 0.79328 0.0
H1201 H 0.73148 0.97388 0.70285 0.0
H1202 H 0.77782 0.95189 0.7272 0.0
H1203 H 0.80628 0.93619 0.77411 0.0
H1204 H 0.76595 0.95247 0.86453 0.0
H1205 H 0.72072 0.97617 0.84019 0.0
C1206 C 0.71105 0.98329 0.77892 0.0
C1207 C 0.70851 0.98448 0.74635 0.0
C1208 C 0.73721 0.96997 0.79305 0.0
C1209 C 0.73295 0.97322 0.728 0.0
C1210 C 0.75937 0.96054 0.7419 0.0
C1211 C 0.78756 0.9448 0.78853 0.0
C1212 C 0.7895 0.9423 0.82112 0.0
C1213 C 0.76156 0.95843 0.7744 0.0
C1214 C 0.76499 0.95369 0.83939 0.0
C1215 C 0.73916 0.96747 0.8255 0.0
H1216 H 0.78899 0.91494 0.55448 0.0
H1217 H 0.79304 0.93478 0.45635 0.0
H1218 H 0.82395 0.98191 0.46708 0.0
H1219 H 0.84525 0.01984 0.50481 0.0
H1220 H 0.84182 -0.00096 0.60298 0.0
H1221 H 0.81589 0.94954 0.59166 0.0
C1222 C 0.79688 0.92949 0.53547 0.0
C1223 C 0.78842 0.92184 0.50477 0.0
C1224 C 0.81478 0.9563 0.54178 0.0
C1225 C 0.79919 0.94042 0.48022 0.0
C1226 C 0.81679 0.96735 0.48633 0.0
C1227 C 0.83927 0.00428 0.52371 0.0
C1228 C 0.84503 0.01344 0.5547 0.0
C1229 C 0.82409 0.97588 0.5171 0.0
C1230 C 0.83756 0.99274 0.57888 0.0
C1231 C 0.82251 0.96446 0.57248 0.0
H1232 H 0.78434 0.07721 0.26163 0.0
H1233 H 0.82385 0.06978 0.35382 0.0
H1234 H 0.77803 0.09492 0.37573 0.0
H1235 H 0.72363 0.11173 0.36922 0.0
H1236 H 0.68381 0.1161 0.27692 0.0
H1237 H 0.73306 0.09975 0.25454 0.0
C1238 C 0.78319 0.08141 0.2865 0.0
C1239 C 0.80723 0.07107 0.3061 0.0
C1240 C 0.75658 0.09515 0.29895 0.0
C1241 C 0.80558 0.07729 0.3382 0.0
C1242 C 0.7793 0.09153 0.35077 0.0
C1243 C 0.72601 0.10986 0.34417 0.0
C1244 C 0.70001 0.11469 0.32478 0.0
C1245 C 0.75419 0.09953 0.33146 0.0
C1246 C 0.70338 0.11211 0.29236 0.0
C1247 C 0.7315 0.10269 0.27954 0.0
H1248 H 0.65928 0.07394 0.10095 0.0
H1249 H 0.68072 0.03449 0.01099 0.0
H1250 H 0.67923 0.9824 0.03324 0.0
H1251 H 0.67806 0.94897 0.07914 0.0
H1252 H 0.65849 0.98861 0.1694 0.0
H1253 H 0.65335 0.03996 0.14596 0.0
C1254 C 0.66316 0.05398 0.08599 0.0
C1255 C 0.67061 0.05827 0.05439 0.0
C1256 C 0.66327 0.02422 0.0991 0.0
C1257 C 0.67509 0.03199 0.03539 0.0
C1258 C 0.67454 0.00218 0.04816 0.0
C1259 C 0.67269 0.96882 0.09376 0.0
C1260 C 0.66934 0.96507 0.12611 0.0
C1261 C 0.66981 -0.00181 0.08017 0.0
C1262 C 0.66156 0.9909 0.14452 0.0
C1263 C 0.65855 0.02025 0.13112 0.0
H1264 H 0.69343 0.08103 0.69334 0.0
H1265 H 0.64623 0.07626 0.60441 0.0
H1266 H 0.69248 0.09702 0.57886 0.0
H1267 H 0.74904 0.10732 0.58066 0.0
H1268 H 0.79588 0.11143 0.66988 0.0
H1269 H 0.74707 0.10046 0.69614 0.0
C1270 C 0.69295 0.08515 0.66847 0.0
C1271 C 0.66668 0.07618 0.6508 0.0
C1272 C 0.71983 0.09649 0.65375 0.0
C1273 C 0.66631 0.0824 0.61865 0.0
C1274 C 0.69286 0.09413 0.6039 0.0
C1275 C 0.74848 0.10642 0.60586 0.0
C1276 C 0.77633 0.1092 0.62308 0.0
C1277 C 0.72025 0.09976 0.62102 0.0
C1278 C 0.77499 0.10859 0.65583 0.0
C1279 C 0.74703 0.10233 0.671 0.0
H1280 H 0.65063 0.96655 0.49554 0.0
H1281 H 0.69609 0.92214 0.4182 0.0
H1282 H 0.67271 0.95935 0.38231 0.0
H1283 H 0.64458 0.00868 0.37423 0.0
H1284 H 0.60074 0.05297 0.45262 0.0
H1285 H 0.61762 0.01128 0.48669 0.0
C1286 C 0.6552 0.96485 0.47079 0.0
C1287 C 0.67544 0.9421 0.45956 0.0
C1288 C 0.64188 0.98628 0.45048 0.0
C1289 C 0.68067 0.93966 0.42738 0.0
C1290 C 0.66738 0.96096 0.40688 0.0
C1291 C 0.63803 0.00859 0.39857 0.0
C1292 C 0.62175 0.03382 0.41107 0.0
C1293 C 0.64861 0.98491 0.41829 0.0
C1294 C 0.61353 0.03378 0.44266 0.0
C1295 C 0.62329 0.01009 0.46217 0.0
H1296 H 0.85601 0.93778 0.24917 0.0
H1297 H 0.79914 0.96438 0.32698 0.0
H1298 H 0.75463 0.93541 0.30448 0.0
H1299 H 0.73079 0.9085 0.25921 0.0
H1300 H 0.78876 0.88299 0.18138 0.0
H1301 H 0.8342 0.90519 0.20772 0.0
C1302 C 0.83395 0.93683 0.2614 0.0
C1303 C 0.83047 0.95342 0.2893 0.0
C1304 C 0.80873 0.92054 0.24823 0.0
C1305 C 0.80214 0.95172 0.30537 0.0
C1306 C 0.77674 0.93536 0.29241 0.0
C1307 C 0.75343 0.90731 0.2482 0.0
C1308 C 0.75615 0.8947 0.21799 0.0
C1309 C 0.77954 0.92055 0.26331 0.0
C1310 C 0.7858 0.89302 0.20433 0.0
C1311 C 0.81185 0.90575 0.21935 0.0
H1312 H 0.79779 0.06137 0.98857 0.0
H1313 H 0.73548 0.06687 0.90969 0.0
H1314 H 0.77052 0.03437 0.87912 0.0
H1315 H 0.81767 0.00241 0.87577 0.0
H1316 H 0.87819 -0.00502 0.95568 0.0
H1317 H 0.84555 0.03118 0.98469 0.0
C1318 C 0.79178 0.05544 0.96471 0.0
C1319 C 0.76392 0.0663 0.95151 0.0
C1320 C 0.81206 0.03696 0.9473 0.0
C1321 C 0.75667 0.0586 0.92047 0.0
C1322 C 0.77679 0.0402 0.90293 0.0
C1323 C 0.82419 0.00955 0.8992 0.0
C1324 C 0.85059 -0.00333 0.91347 0.0
C1325 C 0.80452 0.02921 0.91613 0.0
C1326 C 0.85825 0.00512 0.94417 0.0
C1327 C 0.8394 0.02546 0.96082 0.0
H1328 H 0.73719 0.74652 0.92407 0.0
H1329 H 0.80777 0.71751 0.98893 0.0
H1330 H 0.84648 0.75105 0.96342 0.0
H1331 H 0.8594 0.78985 0.9236 0.0
H1332 H 0.78873 0.81815 0.85829 0.0
H1333 H 0.75103 0.78259 0.88211 0.0
C1334 C 0.76097 0.74801 0.93272 0.0
C1335 C 0.76974 0.7305 0.95858 0.0
C1336 C 0.78315 0.76636 0.91731 0.0
C1337 C 0.80069 0.73149 0.96927 0.0
C1338 C 0.82278 0.7503 0.95454 0.0
C1339 C 0.83605 0.78738 0.91397 0.0
C1340 C 0.82679 0.80619 0.88912 0.0
C1341 C 0.81428 0.76774 0.92844 0.0
C1342 C 0.79629 0.80352 0.87727 0.0
C1343 C 0.77467 0.78358 0.89112 0.0
H1344 H 0.29409 0.83016 0.03043 0.0
H1345 H 0.21177 0.77131 0.02866 0.0
H1346 H 0.23861 0.73234 0.05948 0.0
H1347 H 0.28555 0.71437 0.0854 0.0
H1348 H 0.3682 0.77264 0.08834 0.0
H1349 H 0.34081 0.81302 0.05927 0.0
C1350 C 0.28216 0.80871 0.0367 0.0
C1351 C 0.25116 0.80337 0.02703 0.0
C1352 C 0.29759 0.7866 0.05492 0.0
C1353 C 0.23569 0.77582 0.03573 0.0
C1354 C 0.25097 0.75359 0.05341 0.0
C1355 C 0.29757 0.73601 0.07991 0.0
C1356 C 0.32892 0.74045 0.08877 0.0
C1357 C 0.2819 0.75871 0.06299 0.0
C1358 C 0.34401 0.76876 0.0819 0.0
C1359 C 0.32846 0.79167 0.06502 0.0
H1360 H 0.93342 0.53702 0.863 0.0
H1361 H 0.96565 0.49363 0.77847 0.0
H1362 H 0.01534 0.48222 0.8033 0.0
H1363 H 0.05312 0.49733 0.84353 0.0
H1364 H 0.0221 0.54478 0.92612 0.0
H1365 H 0.9681 0.54001 0.90851 0.0
C1366 C 0.95113 0.52453 0.85025 0.0
C1367 C 0.94645 0.51731 0.81868 0.0
C1368 C 0.97984 0.51853 0.86447 0.0
C1369 C 0.96903 0.50012 0.80266 0.0
C1370 C -0.00254 0.49353 0.81684 0.0
C1371 C 0.0344 0.50514 0.85843 0.0
C1372 C 0.04144 0.5224 0.88543 0.0
C1373 C 0.00375 0.50436 0.84706 0.0
C1374 C 0.01707 0.53196 0.90485 0.0
C1375 C 0.98627 0.52976 0.89451 0.0
H1376 H 0.15459 0.14973 0.53091 0.0
H1377 H 0.24372 0.18861 0.55909 0.0
H1378 H 0.21804 0.23525 0.57848 0.0
H1379 H 0.17093 0.26566 0.58481 0.0
H1380 H 0.0815 0.22705 0.55719 0.0
H1381 H 0.10678 0.17907 0.54031 0.0
C1382 C 0.16837 0.16836 0.54145 0.0
C1383 C 0.20099 0.166 0.54336 0.0
C1384 C 0.15347 0.19497 0.55248 0.0
C1385 C 0.21858 0.19003 0.55735 0.0
C1386 C 0.20394 0.21666 0.56833 0.0
C1387 C 0.1569 0.24677 0.57506 0.0
C1388 C 0.12447 0.24999 0.57174 0.0
C1389 C 0.1715 0.21951 0.56555 0.0
C1390 C 0.10653 0.22509 0.55981 0.0
C1391 C 0.12096 0.19777 0.55011 0.0
H1392 H 0.0828 0.96914 0.80073 0.0
H1393 H 0.04344 0.05829 0.8238 0.0
H1394 H 0.003 0.03244 0.8543 0.0
H1395 H 0.97374 0.98486 0.86577 0.0
H1396 H 0.01017 0.89569 0.83849 0.0
H1397 H 0.0574 0.92124 0.81906 0.0
C1398 C 0.06585 0.98303 0.81303 0.0
C1399 C 0.06575 0.01561 0.80942 0.0
C1400 C 0.04196 0.96796 0.8295 0.0
C1401 C 0.04374 0.03318 0.82574 0.0
C1402 C 0.02056 0.0184 0.84313 0.0
C1403 C 0.99226 0.9709 0.8561 0.0
C1404 C 0.9881 0.93849 0.85283 0.0
C1405 C 0.0186 0.98581 0.84381 0.0
C1406 C 0.01263 0.92069 0.84101 0.0
C1407 C 0.03952 0.93533 0.82965 0.0
H1408 H 0.63314 0.34628 0.41661 0.0
H1409 H 0.72892 0.31778 0.40831 0.0
H1410 H 0.71178 0.26708 0.38865 0.0
H1411 H 0.6699 0.22869 0.38083 0.0
H1412 H 0.57402 0.25618 0.39084 0.0
H1413 H 0.59096 0.30947 0.4025 0.0
C1414 C 0.6503 0.32928 0.40979 0.0
C1415 C 0.68227 0.33572 0.41438 0.0
C1416 C 0.64028 0.29977 0.39929 0.0
C1417 C 0.70416 0.31336 0.40537 0.0
C1418 C 0.69438 0.28427 0.39425 0.0
C1419 C 0.65264 0.24637 0.38527 0.0
C1420 C 0.62077 0.23826 0.38558 0.0
C1421 C 0.66253 0.27683 0.39233 0.0
C1422 C 0.59874 0.26166 0.39073 0.0
C1423 C 0.6084 0.29216 0.39748 0.0
H1424 H 0.90292 0.43815 0.69382 0.0
H1425 H 0.96409 0.51799 0.68354 0.0
H1426 H 0.00456 0.48467 0.6624 0.0
H1427 H 0.02439 0.4325 0.65265 0.0
H1428 H 0.96386 0.35233 0.66281 0.0
H1429 H 0.92096 0.38628 0.67819 0.0
C1430 C 0.92494 0.44832 0.68648 0.0
C1431 C 0.93074 0.48039 0.69062 0.0
C1432 C 0.94821 0.42898 0.67479 0.0
C1433 C 0.95915 0.49335 0.68068 0.0
C1434 C 0.98235 0.4743 0.6688 0.0
C1435 C 0.00172 0.42248 0.65811 0.0
C1436 C -0.00271 0.39004 0.65735 0.0
C1437 C 0.97745 0.44203 0.66677 0.0
C1438 C 0.96773 0.37728 0.66356 0.0
C1439 C 0.94333 0.39665 0.67238 0.0
H1440 H 0.56102 0.60008 0.25272 0.0
H1441 H 0.54044 0.51161 0.20849 0.0
H1442 H 0.49603 0.5339 0.18182 0.0
H1443 H 0.46271 0.57752 0.17167 0.0
H1444 H 0.48135 0.66663 0.21505 0.0
H1445 H 0.52751 0.64529 0.24094 0.0
C1446 C 0.54665 0.58575 0.23736 0.0
C1447 C 0.55381 0.55423 0.23268 0.0
C1448 C 0.52116 0.59884 0.22175 0.0
C1449 C 0.53533 0.53592 0.21249 0.0
C1450 C 0.50999 0.54863 0.19716 0.0
C1451 C 0.47685 0.59239 0.18676 0.0
C1452 C 0.46853 0.62346 0.19173 0.0
C1453 C 0.50272 0.57994 0.20168 0.0
C1454 C 0.48741 0.64259 0.21084 0.0
C1455 C 0.51358 0.63033 0.22581 0.0
H1456 H 0.53856 0.72266 0.81672 0.0
H1457 H 0.62391 0.68945 0.85795 0.0
H1458 H 0.63118 0.6545 0.81358 0.0
H1459 H 0.61526 0.63662 0.76128 0.0
H1460 H 0.53125 0.67232 0.71975 0.0
H1461 H 0.52125 0.70288 0.76654 0.0
C1462 C 0.55873 0.70771 0.81625 0.0
C1463 C 0.58084 0.70897 0.84049 0.0
C1464 C 0.56296 0.68811 0.79065 0.0
C1465 C 0.60668 0.6892 0.83943 0.0
C1466 C 0.61083 0.66918 0.81411 0.0
C1467 C 0.59448 0.65065 0.76276 0.0
C1468 C 0.57405 0.65238 0.73717 0.0
C1469 C 0.58937 0.66885 0.78936 0.0
C1470 C 0.54738 0.67085 0.73915 0.0
C1471 C 0.5417 0.68835 0.76581 0.0
H1472 H 0.50683 0.27151 0.9879 0.0
H1473 H 0.55288 0.31681 0.06549 0.0
H1474 H 0.56064 0.36391 0.03488 0.0
H1475 H 0.56217 0.38819 0.98375 0.0
H1476 H 0.51515 0.34349 0.90613 0.0
H1477 H 0.49823 0.30113 0.93952 0.0
C1478 C 0.51821 0.29191 -0.00201 0.0
C1479 C 0.53013 0.29076 0.0283 0.0
C1480 C 0.52207 0.31909 0.98047 0.0
C1481 C 0.54404 0.31734 0.04183 0.0
C1482 C 0.54836 0.34423 0.02446 0.0
C1483 C 0.54735 0.36973 0.97434 0.0
C1484 C 0.5412 0.36831 0.94229 0.0
C1485 C 0.5385 0.34492 0.9934 0.0
C1486 C 0.521 0.34482 0.93065 0.0
C1487 C 0.51162 0.32026 0.94962 0.0
H1488 H 0.90624 0.29946 0.28239 0.0
H1489 H 0.98693 0.35984 0.27466 0.0
H1490 H 0.95908 0.39266 0.23782 0.0
H1491 H 0.91447 0.39967 0.20285 0.0
H1492 H 0.83498 0.33762 0.20882 0.0
H1493 H 0.85908 0.31067 0.25251 0.0
C1494 C 0.91765 0.31983 0.27263 0.0
C1495 C 0.94869 0.3269 0.28043 0.0
C1496 C 0.90152 0.33854 0.25168 0.0
C1497 C 0.9631 0.35378 0.26846 0.0
C1498 C 0.94718 0.37259 0.24758 0.0
C1499 C 0.90194 0.3811 0.21463 0.0
C1500 C 0.87317 0.37045 0.2029 0.0
C1501 C 0.91666 0.36474 0.23847 0.0
C1502 C 0.8572 0.34608 0.21778 0.0
C1503 C 0.87115 0.33044 0.24236 0.0
H1504 H 0.99574 0.68437 0.56631 0.0
H1505 H 0.98845 0.77994 0.53741 0.0
H1506 H 0.96783 0.76272 0.4867 0.0
H1507 H 0.94827 0.72009 0.4521 0.0
H1508 H 0.95276 0.62529 0.48383 0.0
H1509 H 0.97864 0.6425 0.53177 0.0
C1510 C 0.98985 0.70152 0.5489 0.0
C1511 C 0.99338 0.7334 0.55569 0.0
C1512 C 0.97762 0.69149 0.52024 0.0
C1513 C 0.98571 0.75526 0.5328 0.0
C1514 C 0.97398 0.7454 0.50382 0.0
C1515 C 0.95555 0.70331 0.46934 0.0
C1516 C 0.94893 0.67149 0.46457 0.0
C1517 C 0.96939 0.71355 0.49745 0.0
C1518 C 0.95779 0.64987 0.48715 0.0
C1519 C 0.97242 0.6597 0.51455 0.0
H1520 H 0.58679 0.32124 0.66713 0.0
H1521 H 0.49986 0.31168 0.7164 0.0
H1522 H 0.52594 0.32636 0.7651 0.0
H1523 H 0.57319 0.34119 0.79331 0.0
H1524 H 0.6586 0.35891 0.74381 0.0
H1525 H 0.63379 0.34045 0.6952 0.0
C1526 C 0.57362 0.32278 0.68856 0.0
C1527 C 0.54158 0.31558 0.68847 0.0
C1528 C 0.58865 0.3318 0.71622 0.0
C1529 C 0.52448 0.3176 0.71607 0.0
C1530 C 0.53943 0.32559 0.74386 0.0
C1531 C 0.58646 0.34067 0.77191 0.0
C1532 C 0.61776 0.35051 0.77194 0.0
C1533 C 0.57149 0.33241 0.74417 0.0
C1534 C 0.63466 0.3506 0.74415 0.0
C1535 C 0.62037 0.34048 0.71649 0.0
H1536 H 0.87824 0.26343 0.91711 0.0
H1537 H 0.97426 0.29092 0.93236 0.0
H1538 H 0.9589 0.3248 0.97515 0.0
H1539 H 0.91863 0.344 0.0102 0.0
H1540 H 0.82241 0.31746 0.99437 0.0
H1541 H 0.83737 0.28608 0.94956 0.0
C1542 C 0.89571 0.27699 0.92973 0.0
C1543 C 0.92727 0.27453 0.92191 0.0
C1544 C 0.88672 0.29658 0.95412 0.0
C1545 C 0.94976 0.29246 0.93806 0.0
C1546 C 0.94104 0.31177 0.96255 0.0
C1547 C 0.90093 0.33159 -0.00327 0.0
C1548 C 0.86957 0.33284 0.00564 0.0
C1549 C 0.90965 0.31364 0.97105 0.0
C1550 C 0.84676 0.31696 0.98784 0.0
C1551 C 0.85528 0.29885 0.96235 0.0
H1552 H 0.93649 0.71416 0.18486 0.0
H1553 H 0.99527 0.63405 0.177 0.0
H1554 H 0.96395 0.60664 0.21582 0.0
H1555 H 0.92754 0.61001 0.25892 0.0
H1556 H 0.87379 0.69318 0.27227 0.0
H1557 H 0.89491 0.71474 0.22411 0.0
C1558 C 0.94156 0.69026 0.19085 0.0
C1559 C 0.96782 0.6759 0.17809 0.0
C1560 C 0.92474 0.67554 0.21467 0.0
C1561 C 0.97492 0.6453 0.18647 0.0
C1562 C 0.95721 0.6298 0.20883 0.0
C1563 C 0.91964 0.63246 0.25088 0.0
C1564 C 0.89939 0.65015 0.26937 0.0
C1565 C 0.93315 0.64534 0.22421 0.0
C1566 C 0.88959 0.67926 0.25861 0.0
C1567 C 0.90178 0.69164 0.23116 0.0
H1568 H 0.56996 0.69406 0.43825 0.0
H1569 H 0.49271 0.62967 0.4474 0.0
H1570 H 0.51703 0.6072 0.49372 0.0
H1571 H 0.55703 0.61073 0.53481 0.0
H1572 H 0.63474 0.67459 0.52478 0.0
H1573 H 0.61394 0.69192 0.4749 0.0
C1574 C 0.5587 0.67487 0.45028 0.0
C1575 C 0.52942 0.66384 0.44014 0.0
C1576 C 0.57293 0.662 0.47648 0.0
C1577 C 0.5152 0.63856 0.45518 0.0
C1578 C 0.52904 0.62582 0.48158 0.0
C1579 C 0.56972 0.62793 0.5213 0.0
C1580 C 0.59709 0.6417 0.53349 0.0
C1581 C 0.55745 0.638 0.49291 0.0
C1582 C 0.61365 0.66364 0.51576 0.0
C1583 C 0.6016 0.67379 0.48744 0.0
H1584 H 0.80121 0.5752 0.76279 0.0
H1585 H 0.85029 0.60973 0.68278 0.0
H1586 H 0.80351 0.63676 0.66532 0.0
H1587 H 0.74677 0.64021 0.6671 0.0
H1588 H 0.69657 0.60068 0.74455 0.0
H1589 H 0.74569 0.58673 0.76931 0.0
C1590 C 0.80188 0.58975 0.74229 0.0
C1591 C 0.82889 0.59087 0.72411 0.0
C1592 C 0.77451 0.60378 0.73169 0.0
C1593 C 0.82963 0.60903 0.69716 0.0
C1594 C 0.80285 0.62416 0.68708 0.0
C1595 C 0.74651 0.62936 0.68981 0.0
C1596 C 0.71798 0.62069 0.7035 0.0
C1597 C 0.77475 0.62019 0.70326 0.0
C1598 C 0.71818 0.60701 0.73316 0.0
C1599 C 0.74627 0.59891 0.7473 0.0
H1600 H 0.63084 0.60582 0.96047 0.0
H1601 H 0.69438 0.62386 0.88516 0.0
H1602 H 0.67458 0.57787 0.85734 0.0
H1603 H 0.64809 0.52759 0.86025 0.0
H1604 H 0.59013 0.50579 0.93926 0.0
H1605 H 0.59848 0.55839 0.95976 0.0
C1606 C 0.63943 0.60026 0.93742 0.0
C1607 C 0.66403 0.61786 0.92478 0.0
C1608 C 0.6295 0.5727 0.92271 0.0
C1609 C 0.67544 0.61042 0.89519 0.0
C1610 C 0.66434 0.58403 0.8795 0.0
C1611 C 0.6367 0.53444 0.88164 0.0
C1612 C 0.61916 0.51254 0.89863 0.0
C1613 C 0.64276 0.56409 0.89394 0.0
C1614 C 0.60427 0.52202 0.92607 0.0
C1615 C 0.60904 0.55208 0.9378 0.0
H1616 H 0.6669 0.45154 0.20967 0.0
H1617 H 0.71502 0.53868 0.22669 0.0
H1618 H 0.75727 0.5228 0.19207 0.0
H1619 H 0.78051 0.48364 0.15761 0.0
H1620 H 0.73006 0.39829 0.13756 0.0
H1621 H 0.68829 0.41409 0.17247 0.0
C1622 C 0.68675 0.46692 0.20581 0.0
C1623 C 0.68833 0.49595 0.2208 0.0
C1624 C 0.71024 0.45806 0.18524 0.0
C1625 C 0.71362 0.51614 0.21531 0.0
C1626 C 0.73766 0.50709 0.19559 0.0
C1627 C 0.76027 0.46862 0.16083 0.0
C1628 C 0.75833 0.43981 0.1453 0.0
C1629 C 0.7362 0.47806 0.18049 0.0
C1630 C 0.7319 0.42065 0.14922 0.0
C1631 C 0.70816 0.42957 0.16929 0.0
H1632 H 0.8041 0.43657 0.44036 0.0
H1633 H 0.74412 0.50955 0.4731 0.0
H1634 H 0.78676 0.54739 0.46805 0.0
H1635 H 0.83977 0.56019 0.45153 0.0
H1636 H 0.89767 0.48893 0.41239 0.0
H1637 H 0.85766 0.44947 0.42418 0.0
C1638 C 0.80037 0.46075 0.44645 0.0
C1639 C 0.77088 0.47029 0.45686 0.0
C1640 C 0.82484 0.48245 0.44303 0.0
C1641 C 0.76641 0.5017 0.46457 0.0
C1642 C 0.79087 0.52328 0.462 0.0
C1643 C 0.84402 0.53587 0.44644 0.0
C1644 C 0.87187 0.52726 0.43177 0.0
C1645 C 0.82008 0.51393 0.45108 0.0
C1646 C 0.87668 0.49588 0.42434 0.0
C1647 C 0.85362 0.47349 0.43062 0.0
H1648 H 0.79905 0.52522 0.85083 0.0
H1649 H 0.81138 0.46547 0.77064 0.0
H1650 H 0.77435 0.42814 0.79161 0.0
H1651 H 0.73451 0.41513 0.82916 0.0
H1652 H 0.71839 0.47572 0.90761 0.0
H1653 H 0.76205 0.50917 0.89178 0.0
C1654 C 0.79362 0.50404 0.83797 0.0
C1655 C 0.80754 0.4985 0.80892 0.0
C1656 C 0.77205 0.48254 0.85008 0.0
C1657 C 0.80073 0.47062 0.79285 0.0
C1658 C 0.77968 0.44908 0.80488 0.0
C1659 C 0.741 0.4353 0.84319 0.0
C1660 C 0.72302 0.44331 0.86907 0.0
C1661 C 0.76476 0.45515 0.83305 0.0
C1662 C 0.73193 0.4691 0.88748 0.0
C1663 C 0.75653 0.48851 0.87814 0.0
H1664 H 0.818 0.57815 0.9876 0.0
H1665 H 0.73203 0.5334 0.95897 0.0
H1666 H 0.75252 0.48271 0.97396 0.0
H1667 H 0.78916 0.45442 0.00628 0.0
H1668 H 0.87104 0.50126 0.04332 0.0
H1669 H 0.85829 0.54786 0.01377 0.0
C1670 C 0.80435 0.55704 0.98363 0.0
C1671 C 0.77372 0.55905 0.97242 0.0
C1672 C 0.81531 0.52862 0.99462 0.0
C1673 C 0.75572 0.532 0.9677 0.0
C1674 C 0.76733 0.50321 0.97651 0.0
C1675 C 0.80471 0.47452 0.00728 0.0
C1676 C 0.83062 0.47472 0.02747 0.0
C1677 C 0.79625 0.50164 0.99178 0.0
C1678 C 0.85062 0.50084 0.02838 0.0
C1679 C 0.84332 0.52745 0.01154 0.0
H1680 H 0.70467 0.52219 0.31654 0.0
H1681 H 0.66311 0.59406 0.37279 0.0
H1682 H 0.71458 0.60824 0.39374 0.0
H1683 H 0.77188 0.60363 0.39151 0.0
H1684 H 0.81227 0.53466 0.33112 0.0
H1685 H 0.76042 0.51578 0.3163 0.0
C1686 C 0.7066 0.54076 0.33367 0.0
C1687 C 0.6801 0.5573 0.3428 0.0
C1688 C 0.73609 0.54948 0.34458 0.0
C1689 C 0.68321 0.58113 0.36517 0.0
C1690 C 0.71261 0.5893 0.37707 0.0
C1691 C 0.76916 0.58429 0.37535 0.0
C1692 C 0.79556 0.57076 0.36199 0.0
C1693 C 0.73928 0.57422 0.36621 0.0
C1694 C 0.79208 0.54573 0.34114 0.0
C1695 C 0.76254 0.53487 0.33281 0.0
H1696 H 0.74256 0.46328 0.54357 0.0
H1697 H 0.65371 0.41538 0.5434 0.0
H1698 H 0.63124 0.45695 0.57508 0.0
H1699 H 0.63667 0.50789 0.60126 0.0
H1700 H 0.72398 0.55833 0.59602 0.0
H1701 H 0.74748 0.51489 0.56803 0.0
C1702 C 0.71839 0.46194 0.55082 0.0
C1703 C 0.69978 0.43642 0.54175 0.0
C1704 C 0.70544 0.4864 0.56787 0.0
C1705 C 0.66832 0.43498 0.5504 0.0
C1706 C 0.65554 0.45865 0.56844 0.0
C1707 C 0.66089 0.5091 0.59415 0.0
C1708 C 0.67875 0.5359 0.60072 0.0
C1709 C 0.67383 0.48458 0.57712 0.0
C1710 C 0.70992 0.53775 0.59105 0.0
C1711 C 0.72333 0.51299 0.57514 0.0
H1712 H 0.68586 0.82946 0.60216 0.0
H1713 H 0.63935 0.81151 0.51454 0.0
H1714 H 0.61125 0.76738 0.53735 0.0
H1715 H 0.60637 0.72952 0.57952 0.0
H1716 H 0.65917 0.74294 0.66414 0.0
H1717 H 0.67781 0.79374 0.64575 0.0
C1718 C 0.66906 0.81626 0.58829 0.0
C1719 C 0.66474 0.82347 0.55673 0.0
C1720 C 0.6542 0.79014 0.60113 0.0
C1721 C 0.64322 0.80608 0.53883 0.0
C1722 C 0.62717 0.78093 0.55186 0.0
C1723 C 0.62107 0.74419 0.59429 0.0
C1724 C 0.63115 0.73308 0.62321 0.0
C1725 C 0.63331 0.77213 0.58263 0.0
C1726 C 0.65094 0.7515 0.64194 0.0
C1727 C 0.66179 0.78028 0.63128 0.0
H1728 H 0.21532 0.66758 0.46405 0.0
H1729 H 0.14295 0.68194 0.53152 0.0
H1730 H 0.11504 0.71514 0.4947 0.0
H1731 H 0.11467 0.7442 0.44608 0.0
H1732 H 0.18911 0.73266 0.37984 0.0
H1733 H 0.21257 0.69341 0.41326 0.0
C1734 C 0.1933 0.67787 0.47054 0.0
C1735 C 0.18138 0.67314 0.50058 0.0
C1736 C 0.1779 0.69725 0.44953 0.0
C1737 C 0.15284 0.68621 0.5088 0.0
C1738 C 0.13684 0.70482 0.48766 0.0
C1739 C 0.13563 0.73264 0.43844 0.0
C1740 C 0.15022 0.74156 0.41047 0.0
C1741 C 0.14964 0.71119 0.45833 0.0
C1742 C 0.17745 0.72633 0.40123 0.0
C1743 C 0.191 0.70409 0.42045 0.0
H1744 H 0.55177 0.95614 0.72908 0.0
H1745 H 0.5923 0.93356 0.64043 0.0
H1746 H 0.54332 0.90843 0.62364 0.0
H1747 H 0.48834 0.89504 0.63377 0.0
H1748 H 0.44606 0.92463 0.71952 0.0
H1749 H 0.49618 0.9458 0.73788 0.0
C1750 C 0.54986 0.9453 0.70628 0.0
C1751 C 0.57537 0.94596 0.68609 0.0
C1752 C 0.52122 0.93298 0.69615 0.0
C1753 C 0.57279 0.93271 0.65633 0.0
C1754 C 0.54484 0.91869 0.6467 0.0
C1755 C 0.49022 0.90646 0.65629 0.0
C1756 C 0.46391 0.90865 0.67528 0.0
C1757 C 0.51879 0.91916 0.66625 0.0
C1758 C 0.46617 0.92333 0.70444 0.0
C1759 C 0.49478 0.93506 0.71503 0.0
H1760 H 0.37645 0.2915 0.00826 0.0
H1761 H 0.30261 0.31384 0.94386 0.0
H1762 H 0.31621 0.26963 0.91121 0.0
H1763 H 0.34627 0.22238 0.903 0.0
H1764 H 0.42053 0.19987 0.96682 0.0
H1765 H 0.40994 0.24662 -0.00271 0.0
C1766 C 0.36354 0.28679 0.98695 0.0
C1767 C 0.33836 0.30567 0.97868 0.0
C1768 C 0.37154 0.26133 0.96815 0.0
C1769 C 0.32203 0.29957 0.95083 0.0
C1770 C 0.32974 0.27426 0.93213 0.0
C1771 C 0.36037 0.22792 0.92336 0.0
C1772 C 0.38394 0.20761 0.93273 0.0
C1773 C 0.35404 0.25466 0.94087 0.0
C1774 C 0.40228 0.21522 0.959 0.0
C1775 C 0.3961 0.24183 0.97659 0.0
H1776 H 0.44553 0.47987 0.67081 0.0
H1777 H 0.39777 0.54225 0.60911 0.0
H1778 H 0.44725 0.56925 0.59806 0.0
H1779 H 0.5023 0.57921 0.61202 0.0
H1780 H 0.54917 0.51661 0.67456 0.0
H1781 H 0.50171 0.48523 0.67889 0.0
C1782 C 0.44606 0.49911 0.65456 0.0
C1783 C 0.41816 0.50958 0.64121 0.0
C1784 C 0.47429 0.51456 0.64874 0.0
C1785 C 0.41905 0.53399 0.61972 0.0
C1786 C 0.44725 0.5495 0.61361 0.0
C1787 C 0.50227 0.55846 0.62626 0.0
C1788 C 0.52907 0.55068 0.6435 0.0
C1789 C 0.47477 0.54066 0.62893 0.0
C1790 C 0.52883 0.52334 0.66129 0.0
C1791 C 0.50166 0.50543 0.66389 0.0
H1792 H 0.72952 0.1963 0.06689 0.0
H1793 H 0.79501 0.19524 0.99093 0.0
H1794 H 0.81947 0.243 0.01054 0.0
H1795 H 0.82221 0.28453 0.0488 0.0
H1796 H 0.75475 0.2895 0.12252 0.0
H1797 H 0.73052 0.24039 0.10412 0.0
C1798 C 0.74914 0.20657 0.05471 0.0
C1799 C 0.76066 0.19236 0.02765 0.0
C1800 C 0.76252 0.23446 0.06565 0.0
C1801 C 0.78585 0.2059 0.01182 0.0
C1802 C 0.79982 0.2331 0.02299 0.0
C1803 C 0.80229 0.27471 0.06095 0.0
C1804 C 0.79045 0.28986 0.0872 0.0
C1805 C 0.78835 0.24744 0.04983 0.0
C1806 C 0.76422 0.27774 0.10239 0.0
C1807 C 0.75051 0.24983 0.09189 0.0
H1808 H 0.57247 0.04039 0.78347 0.0
H1809 H 0.5016 0.01127 0.71727 0.0
H1810 H 0.46216 0.01382 0.75751 0.0
H1811 H 0.44681 0.02829 0.80994 0.0
H1812 H 0.51601 0.06159 0.87572 0.0
H1813 H 0.55713 0.05237 0.83756 0.0
C1814 C 0.5484 0.03464 0.77784 0.0
C1815 C 0.54006 0.02619 0.74715 0.0
C1816 C 0.52553 0.03647 0.80115 0.0
C1817 C 0.50874 0.01849 0.74045 0.0
C1818 C 0.48611 0.01966 0.76355 0.0
C1819 C 0.47095 0.03273 0.81637 0.0
C1820 C 0.47829 0.0455 0.84578 0.0
C1821 C 0.49414 0.02903 0.79383 0.0
C1822 C 0.50973 0.05158 0.85334 0.0
C1823 C 0.5332 0.04667 0.83137 0.0
H1824 H 0.93304 0.9554 0.38201 0.0
H1825 H 0.98757 0.02968 0.34213 0.0
H1826 H 0.03577 0.00379 0.3575 0.0
H1827 H 0.06113 0.95489 0.3718 0.0
H1828 H 0.00567 0.87952 0.40946 0.0
H1829 H 0.95922 0.91122 0.40626 0.0
C1830 C 0.95555 0.96649 0.37806 0.0
C1831 C 0.95709 0.99429 0.36126 0.0
C1832 C 0.98293 0.95089 0.38592 0.0
C1833 C 0.9861 0.00845 0.35554 0.0
C1834 C 0.01358 0.99341 0.36392 0.0
C1835 C 0.03903 0.94561 0.37996 0.0
C1836 C 0.03677 0.91447 0.38986 0.0
C1837 C 0.01217 0.96377 0.37748 0.0
C1838 C 0.00805 0.90314 0.40107 0.0
C1839 C 0.98138 0.92124 0.3992 0.0
H1840 H 0.46915 0.31256 0.17075 0.0
H1841 H 0.47682 0.22099 0.21067 0.0
H1842 H 0.44994 0.23892 0.25741 0.0
H1843 H 0.42414 0.28026 0.2863 0.0
H1844 H 0.41715 0.37213 0.24672 0.0
H1845 H 0.44384 0.35413 0.19996 0.0
C1846 C 0.46504 0.29648 0.18969 0.0
C1847 C 0.47483 0.26542 0.18724 0.0
C1848 C 0.44954 0.30691 0.21629 0.0
C1849 C 0.46939 0.24494 0.21198 0.0
C1850 C 0.454 0.25518 0.23863 0.0
C1851 C 0.42818 0.29642 0.26741 0.0
C1852 C 0.41841 0.32754 0.26998 0.0
C1853 C 0.44382 0.28604 0.24089 0.0
C1854 C 0.42426 0.34808 0.24534 0.0
C1855 C 0.4396 0.33782 0.21866 0.0
H1856 H 0.54391 0.71479 0.00722 0.0
H1857 H 0.47474 0.72687 0.935 0.0
H1858 H 0.43526 0.70254 0.96733 0.0
H1859 H 0.41891 0.68251 0.01788 0.0
H1860 H 0.48717 0.67216 0.09101 0.0
H1861 H 0.52834 0.69043 0.05642 0.0
C1862 C 0.5203 0.71179 -0.00154 0.0
C1863 C 0.51231 0.72311 0.96895 0.0
C1864 C 0.49739 0.69803 0.01733 0.0
C1865 C 0.48156 0.71885 0.95786 0.0
C1866 C 0.45886 0.70482 0.97627 0.0
C1867 C 0.4429 0.6836 0.02598 0.0
C1868 C 0.44996 0.67631 0.05692 0.0
C1869 C 0.46632 0.69496 0.00629 0.0
C1870 C 0.48113 0.67801 0.06726 0.0
C1871 C 0.50469 0.68854 0.04757 0.0
H1872 H 0.07002 0.64014 0.67933 0.0
H1873 H 0.04888 0.7261 0.72699 0.0
H1874 H 0.06023 0.70162 0.77686 0.0
H1875 H 0.07609 0.65643 0.80648 0.0
H1876 H 0.0984 0.57057 0.75929 0.0
H1877 H 0.08623 0.59467 0.70923 0.0
C1878 C 0.06781 0.65364 0.70058 0.0
C1879 C 0.05852 0.68501 0.69935 0.0
C1880 C 0.07439 0.63945 0.7291 0.0
C1881 C 0.05605 0.70203 0.72718 0.0
C1882 C 0.06244 0.68801 0.7557 0.0
C1883 C 0.07811 0.6427 0.78536 0.0
C1884 C 0.08797 0.61154 0.78673 0.0
C1885 C 0.07154 0.65678 0.75686 0.0
C1886 C 0.09078 0.59449 0.75896 0.0
C1887 C 0.08389 0.6083 0.73036 0.0
H1888 H 0.03104 0.34016 0.40573 0.0
H1889 H 0.95288 0.2842 0.43567 0.0
H1890 H 0.9626 0.30004 0.48988 0.0
H1891 H -0.00105 0.32265 0.52841 0.0
H1892 H 0.07768 0.37781 0.4974 0.0
H1893 H 0.06135 0.37046 0.44354 0.0
C1894 C 0.01594 0.33188 0.4242 0.0
C1895 C 0.99193 0.31061 0.41744 0.0
C1896 C 0.0217 0.34101 0.45483 0.0
C1897 C 0.97176 0.30042 0.4409 0.0
C1898 C 0.97734 0.30941 0.4717 0.0
C1899 C 0.01202 0.3338 0.50993 0.0
C1900 C 0.04001 0.34985 0.51666 0.0
C1901 C 0.00305 0.32872 0.47899 0.0
C1902 C 0.05647 0.36464 0.49261 0.0
C1903 C 0.04726 0.36037 0.46184 0.0
H1904 H 0.41199 0.69969 0.34402 0.0
H1905 H 0.45182 0.78319 0.30471 0.0
H1906 H 0.42062 0.77544 0.25742 0.0
H1907 H 0.39005 0.73971 0.22441 0.0
H1908 H 0.3522 0.65496 0.26334 0.0
H1909 H 0.37344 0.66919 0.31423 0.0
C1910 C 0.41345 0.71639 0.32523 0.0
C1911 C 0.43465 0.74143 0.32724 0.0
C1912 C 0.3957 0.71165 0.29821 0.0
C1913 C 0.43588 0.76347 0.30331 0.0
C1914 C 0.41807 0.75905 0.27633 0.0
C1915 C 0.38549 0.72484 0.24422 0.0
C1916 C 0.37043 0.69586 0.23995 0.0
C1917 C 0.39895 0.73248 0.27306 0.0
C1918 C 0.36432 0.6771 0.26595 0.0
C1919 C 0.3767 0.68507 0.29498 0.0
H1920 H 0.04518 0.65916 0.06933 0.0
H1921 H 0.11232 0.73443 0.06762 0.0
H1922 H 0.14194 0.70757 0.02706 0.0
H1923 H 0.14598 0.66427 0.98926 0.0
H1924 H 0.07921 0.58848 0.99272 0.0
H1925 H 0.05285 0.61321 0.03626 0.0
C1926 C 0.0662 0.66963 0.05981 0.0
C1927 C 0.07622 0.69895 0.07041 0.0
C1928 C 0.08345 0.65366 0.03736 0.0
C1929 C 0.10399 0.71206 0.05902 0.0
C1930 C 0.12099 0.69663 0.03611 0.0
C1931 C 0.12634 0.65273 0.00029 0.0
C1932 C 0.11443 0.62472 0.98781 0.0
C1933 C 0.11074 0.66753 0.02484 0.0
C1934 C 0.0887 0.61013 0.002 0.0
C1935 C 0.0734 0.6244 0.02663 0.0
H1936 H 0.02427 0.18397 0.75812 0.0
H1937 H 0.0395 0.25084 0.83216 0.0
H1938 H 0.06749 0.28506 0.79675 0.0
H1939 H 0.07816 0.30035 0.74278 0.0
H1940 H 0.06193 0.23355 0.66883 0.0
H1941 H 0.04437 0.19506 0.70621 0.0
C1942 C 0.03447 0.20559 0.76676 0.0
C1943 C 0.02893 0.21521 0.79745 0.0
C1944 C 0.04992 0.2256 0.74611 0.0
C1945 C 0.04275 0.24315 0.80837 0.0
C1946 C 0.05871 0.26286 0.78812 0.0
C1947 C 0.07154 0.27715 0.73495 0.0
C1948 C 0.07036 0.27027 0.70301 0.0
C1949 C 0.06092 0.25508 0.75656 0.0
C1950 C 0.0622 0.23985 0.69327 0.0
C1951 C 0.05215 0.2177 0.71462 0.0
H1952 H 0.41688 0.27416 0.56672 0.0
H1953 H 0.49708 0.33275 0.54757 0.0
H1954 H 0.47131 0.35326 0.50187 0.0
H1955 H 0.42853 0.35162 0.46494 0.0
H1956 H 0.34824 0.29279 0.48114 0.0
H1957 H 0.37105 0.27592 0.53085 0.0
C1958 C 0.42853 0.29158 0.55263 0.0
C1959 C 0.45905 0.30158 0.56036 0.0
C1960 C 0.41355 0.30332 0.52597 0.0
C1961 C 0.47378 0.32434 0.54203 0.0
C1962 C 0.45904 0.3362 0.51588 0.0
C1963 C 0.41579 0.3354 0.47957 0.0
C1964 C 0.38698 0.32321 0.46942 0.0
C1965 C 0.4293 0.32542 0.50733 0.0
C1966 C 0.37045 0.30257 0.48866 0.0
C1967 C 0.38366 0.29271 0.51685 0.0
H1968 H 0.21201 0.42779 0.21921 0.0
H1969 H 0.16731 0.46777 0.29957 0.0
H1970 H 0.2062 0.44535 0.3336 0.0
H1971 H 0.2537 0.41559 0.34102 0.0
H1972 H 0.3012 0.37816 0.26131 0.0
H1973 H 0.2605 0.39794 0.22681 0.0
C1974 C 0.21083 0.43149 0.24415 0.0
C1975 C 0.18678 0.44947 0.25671 0.0
C1976 C 0.23372 0.41881 0.26385 0.0
C1977 C 0.18564 0.45419 0.28913 0.0
C1978 C 0.20783 0.44126 0.30875 0.0
C1979 C 0.25487 0.41135 0.31615 0.0
C1980 C 0.28016 0.39519 0.30377 0.0
C1981 C 0.232 0.42361 0.29642 0.0
C1982 C 0.2818 0.39049 0.2714 0.0
C1983 C 0.2586 0.40186 0.25165 0.0
H1984 H 0.36931 0.45123 0.03054 0.0
H1985 H 0.33815 0.41482 0.11857 0.0
H1986 H 0.34945 0.4648 0.14364 0.0
H1987 H 0.36215 0.52032 0.13918 0.0
H1988 H 0.39162 0.55715 0.05061 0.0
H1989 H 0.38737 0.50547 0.02734 0.0
C1990 C 0.36551 0.45408 0.05531 0.0
C1991 C 0.35251 0.42953 0.07257 0.0
C1992 C 0.37146 0.48306 0.06946 0.0
C1993 C 0.34785 0.4335 0.10469 0.0
C1994 C 0.35423 0.46209 0.11904 0.0
C1995 C 0.36813 0.51702 0.11491 0.0
C1996 C 0.37667 0.54275 0.09661 0.0
C1997 C 0.3651 0.48731 0.10145 0.0
C1998 C 0.38456 0.53789 0.06522 0.0
C1999 C 0.38211 0.50831 0.05182 0.0
H2000 H 0.31857 0.53873 0.76274 0.0
H2001 H 0.24884 0.53821 0.68976 0.0
H2002 H 0.21217 0.56322 0.72457 0.0
H2003 H 0.19733 0.57737 0.77755 0.0
H2004 H 0.26576 0.57649 0.85134 0.0
H2005 H 0.30578 0.56059 0.81418 0.0
C2006 C 0.29556 0.54458 0.75422 0.0
C2007 C 0.28634 0.5359 0.72381 0.0
C2008 C 0.27428 0.55854 0.77457 0.0
C2009 C 0.25654 0.54417 0.71311 0.0
C2010 C 0.23546 0.55843 0.73305 0.0
C2011 C 0.22119 0.57433 0.78537 0.0
C2012 C 0.22856 0.57755 0.81716 0.0
C2013 C 0.24369 0.56451 0.76411 0.0
C2014 C 0.25957 0.5741 0.82698 0.0
C2015 C 0.28233 0.56471 0.80578 0.0
H2016 H 0.15656 0.54023 0.54848 0.0
H2017 H 0.20924 0.54868 0.63386 0.0
H2018 H 0.18149 0.50362 0.65526 0.0
H2019 H 0.1463 0.45841 0.64708 0.0
H2020 H 0.09324 0.45102 0.56173 0.0
H2021 H 0.11623 0.49964 0.54338 0.0
C2022 C 0.1618 0.53221 0.5718 0.0
C2023 C 0.18523 0.54713 0.58934 0.0
C2024 C 0.14546 0.5067 0.58408 0.0
C2025 C 0.19139 0.5372 0.61984 0.0
C2026 C 0.17553 0.51152 0.6321 0.0
C2027 C 0.13908 0.468 0.62493 0.0
C2028 C 0.1185 0.45102 0.60559 0.0
C2029 C 0.15295 0.49566 0.61415 0.0
C2030 C 0.10937 0.46359 0.57686 0.0
C2031 C 0.12266 0.49124 0.56623 0.0
H2032 H 0.17945 0.57062 0.1993 0.0
H2033 H 0.16973 0.5305 0.10758 0.0
H2034 H 0.21603 0.55914 0.09021 0.0
H2035 H 0.26221 0.59165 0.10292 0.0
H2036 H 0.27037 0.63279 0.19453 0.0
H2037 H 0.22136 0.60845 0.2098 0.0
C2038 C 0.18747 0.56833 0.17551 0.0
C2039 C 0.17176 0.54818 0.15492 0.0
C2040 C 0.21369 0.5852 0.16558 0.0
C2041 C 0.18176 0.54582 0.1239 0.0
C2042 C 0.20817 0.56218 0.11395 0.0
C2043 C 0.25283 0.59591 0.12591 0.0
C2044 C 0.27018 0.61344 0.14771 0.0
C2045 C 0.2247 0.58149 0.13478 0.0
C2046 C 0.25769 0.61888 0.17745 0.0
C2047 C 0.22973 0.60488 0.18631 0.0
H2048 H 0.2422 0.41711 0.98067 0.0
H2049 H 0.24791 0.48306 0.05675 0.0
H2050 H 0.21983 0.52112 0.02573 0.0
H2051 H 0.19587 0.53635 0.97646 0.0
H2052 H 0.1896 0.47047 0.90039 0.0
H2053 H 0.2155 0.43143 0.93227 0.0
C2054 C 0.23732 0.43981 0.99051 0.0
C2055 C 0.24744 0.44734 0.0209 0.0
C2056 C 0.22107 0.46151 0.97261 0.0
C2057 C 0.24046 0.47668 0.03343 0.0
C2058 C 0.22445 0.49847 0.01569 0.0
C2059 C 0.20006 0.51343 0.9668 0.0
C2060 C 0.1911 0.50645 0.93593 0.0
C2061 C 0.21498 0.49123 0.98517 0.0
C2062 C 0.19626 0.47646 0.92404 0.0
C2063 C 0.2112 0.4542 0.94221 0.0
H2064 H 0.3011 0.40473 0.65181 0.0
H2065 H 0.27056 0.42632 0.7448 0.0
H2066 H 0.22232 0.39658 0.73596 0.0
H2067 H 0.18683 0.36955 0.69984 0.0
H2068 H 0.2174 0.34846 0.6066 0.0
H2069 H 0.26825 0.37194 0.61792 0.0
C2070 C 0.28388 0.40279 0.67012 0.0
C2071 C 0.28885 0.41806 0.69862 0.0
C2072 C 0.25648 0.3855 0.66497 0.0
C2073 C 0.26689 0.41491 0.72252 0.0
C2074 C 0.23942 0.39788 0.71753 0.0
C2075 C 0.20488 0.36927 0.68227 0.0
C2076 C 0.19821 0.35782 0.65228 0.0
C2077 C 0.23371 0.38364 0.68861 0.0
C2078 C 0.22189 0.35754 0.62978 0.0
C2079 C 0.25087 0.37118 0.63612 0.0
H2080 H 0.31054 0.52018 0.50397 0.0
H2081 H 0.23594 0.53817 0.43893 0.0
H2082 H 0.25856 0.50245 0.40151 0.0
H2083 H 0.29848 0.46463 0.38763 0.0
H2084 H 0.371 0.44342 0.45345 0.0
H2085 H 0.35092 0.48239 0.48982 0.0
C2086 C 0.29918 0.51611 0.48169 0.0
C2087 C 0.27156 0.53172 0.47435 0.0
C2088 C 0.31231 0.49543 0.46014 0.0
C2089 C 0.25718 0.52636 0.44528 0.0
C2090 C 0.27017 0.50607 0.42371 0.0
C2091 C 0.31028 0.46931 0.4096 0.0
C2092 C 0.3365 0.45207 0.41775 0.0
C2093 C 0.29773 0.49054 0.43084 0.0
C2094 C 0.35111 0.45716 0.44664 0.0
C2095 C 0.33943 0.47909 0.46751 0.0
H2096 H 0.22714 0.19558 0.40363 0.0
H2097 H 0.30392 0.15645 0.45504 0.0
H2098 H 0.34055 0.18963 0.42733 0.0
H2099 H 0.34976 0.23527 0.39507 0.0
H2100 H 0.27304 0.27613 0.34526 0.0
H2101 H 0.23769 0.23597 0.36485 0.0
C2102 C 0.25189 0.19416 0.4086 0.0
C2103 C 0.26263 0.17422 0.43196 0.0
C2104 C 0.27294 0.21346 0.39271 0.0
C2105 C 0.29489 0.17203 0.43755 0.0
C2106 C 0.31595 0.19092 0.42164 0.0
C2107 C 0.32555 0.23475 0.38761 0.0
C2108 C 0.31385 0.25894 0.3694 0.0
C2109 C 0.30513 0.21247 0.4 0.0
C2110 C 0.28246 0.25792 0.35974 0.0
C2111 C 0.26216 0.23517 0.37116 0.0
H2112 H 0.81605 0.32188 0.50238 0.0
H2113 H 0.72458 0.28395 0.52184 0.0
H2114 H 0.74771 0.23483 0.53766 0.0
H2115 H 0.7937 0.2028 0.54546 0.0
H2116 H 0.88538 0.24105 0.52739 0.0
H2117 H 0.86228 0.29024 0.51166 0.0
C2118 C 0.80119 0.30283 0.51004 0.0
C2119 C 0.7687 0.30637 0.51084 0.0
C2120 C 0.81464 0.27488 0.5194 0.0
C2121 C 0.74969 0.2817 0.52108 0.0
C2122 C 0.76287 0.25365 0.53008 0.0
C2123 C 0.80867 0.22187 0.53806 0.0
C2124 C 0.84118 0.21826 0.53744 0.0
C2125 C 0.79529 0.25001 0.52927 0.0
C2126 C 0.86028 0.24331 0.52817 0.0
C2127 C 0.8471 0.27136 0.51907 0.0
H2128 H 0.39119 0.04247 0.30538 0.0
H2129 H 0.44588 0.96604 0.27097 0.0
H2130 H 0.49253 0.98885 0.29496 0.0
H2131 H 0.51884 0.03385 0.31922 0.0
H2132 H 0.46437 0.11138 0.35144 0.0
H2133 H 0.41663 0.08456 0.33488 0.0
C2134 C 0.41317 0.03043 0.30354 0.0
C2135 C 0.41499 0.0028 0.28589 0.0
C2136 C 0.4401 0.04411 0.31661 0.0
C2137 C 0.44369 0.98743 0.28419 0.0
C2138 C 0.4705 0.00058 0.29774 0.0
C2139 C 0.49653 0.04481 0.323 0.0
C2140 C 0.49536 0.07493 0.33605 0.0
C2141 C 0.46915 0.02949 0.31295 0.0
C2142 C 0.46612 0.08842 0.34114 0.0
C2143 C 0.43875 0.07311 0.33163 0.0
H2144 H 0.77418 0.69737 0.0553 0.0
H2145 H 0.68844 0.64728 0.07278 0.0
H2146 H 0.67529 0.68413 0.11396 0.0
H2147 H 0.68284 0.73561 0.13637 0.0
H2148 H 0.76502 0.78984 0.11388 0.0
H2149 H 0.78553 0.74606 0.08425 0.0
C2150 C 0.7532 0.69411 0.06895 0.0
C2151 C 0.73212 0.67002 0.06123 0.0
C2152 C 0.745 0.71639 0.09136 0.0
C2153 C 0.70477 0.66593 0.07848 0.0
C2154 C 0.69724 0.68701 0.10187 0.0
C2155 C 0.70558 0.7377 0.12558 0.0
C2156 C 0.72188 0.76627 0.12649 0.0
C2157 C 0.71634 0.71319 0.10724 0.0
C2158 C 0.7517 0.76826 0.11313 0.0
C2159 C 0.76335 0.74331 0.09594 0.0
H2160 H 0.53571 0.49239 0.36931 0.0
H2161 H 0.57051 0.43845 0.29225 0.0
H2162 H 0.53726 0.39457 0.30701 0.0
H2163 H 0.49138 0.37568 0.33568 0.0
H2164 H 0.45465 0.4311 0.41045 0.0
H2165 H 0.49631 0.46969 0.40362 0.0
C2166 C 0.53631 0.47088 0.35601 0.0
C2167 C 0.55484 0.46896 0.32928 0.0
C2168 C 0.51691 0.44589 0.36439 0.0
C2169 C 0.55606 0.44068 0.31271 0.0
C2170 C 0.53706 0.41555 0.32112 0.0
C2171 C 0.49345 0.39552 0.35131 0.0
C2172 C 0.47016 0.40085 0.37337 0.0
C2173 C 0.51646 0.41837 0.34612 0.0
C2174 C 0.47253 0.42676 0.39331 0.0
C2175 C 0.49605 0.44897 0.38913 0.0
H2176 H 0.13427 0.80897 0.89521 0.0
H2177 H 0.233 0.80076 0.91286 0.0
H2178 H 0.23134 0.74704 0.89451 0.0
H2179 H 0.19993 0.70007 0.88487 0.0
H2180 H 0.10053 0.70761 0.87099 0.0
H2181 H 0.10453 0.76397 0.87594 0.0
C2182 C 0.15562 0.79576 0.89419 0.0
C2183 C 0.18348 0.80847 0.9063 0.0
C2184 C 0.15427 0.76452 0.88487 0.0
C2185 C 0.21104 0.79121 0.90436 0.0
C2186 C 0.21012 0.76044 0.89399 0.0
C2187 C 0.17924 0.71407 0.8822 0.0
C2188 C 0.14987 0.69964 0.87868 0.0
C2189 C 0.18152 0.74638 0.88604 0.0
C2190 C 0.12335 0.71813 0.87462 0.0
C2191 C 0.12559 0.75038 0.87743 0.0
H2192 H 0.44153 0.88811 0.17892 0.0
H2193 H 0.46911 0.98503 0.17914 0.0
H2194 H 0.52352 0.9706 0.17223 0.0
H2195 H 0.56352 0.9304 0.1699 0.0
H2196 H 0.53587 0.83347 0.1686 0.0
H2197 H 0.48114 0.84798 0.17198 0.0
C2198 C 0.45943 0.90606 0.17713 0.0
C2199 C 0.45141 0.93755 0.17979 0.0
C2200 C 0.49062 0.89761 0.17318 0.0
C2201 C 0.47473 0.96061 0.17713 0.0
C2202 C 0.50586 0.95238 0.17335 0.0
C2203 C 0.5455 0.91246 0.17023 0.0
C2204 C 0.55373 0.88093 0.16941 0.0
C2205 C 0.51411 0.92095 0.17198 0.0
C2206 C 0.53013 0.85793 0.16929 0.0
C2207 C 0.49884 0.86619 0.1713 0.0
H2208 H 0.07799 0.07556 0.67152 0.0
H2209 H 0.03221 0.98992 0.69831 0.0
H2210 H 0.9866 0.0033 0.66699 0.0
H2211 H 0.95923 0.0403 0.63398 0.0
H2212 H 0.0054 0.12588 0.60694 0.0
H2213 H 0.05186 0.11103 0.63578 0.0
C2214 C 0.05796 0.05991 0.67057 0.0
C2215 C 0.05815 0.03203 0.6874 0.0
C2216 C 0.03216 0.06751 0.65222 0.0
C2217 C 0.03239 0.01163 0.68562 0.0
C2218 C 0.00642 0.01921 0.66767 0.0
C2219 C 0.97957 0.05556 0.63397 0.0
C2220 C 0.97864 0.08432 0.61853 0.0
C2221 C 0.00602 0.04717 0.65102 0.0
C2222 C 0.00535 0.10366 0.6187 0.0
C2223 C 0.03189 0.09531 0.63537 0.0
loop_
_geom_bond_atom_site_label_1
_geom_bond_atom_site_label_2
_geom_bond_distance
_geom_bond_site_symmetry_2
_ccdc_geom_bond_type
Co0 O1 2.216 1_655 S
Co0 O2 2.091 . S
Co0 O4 2.004 . S
Co0 O10 2.021 1_655 S
Co0 O12 2.140 . S
Co0 O13 2.244 1_655 S
O1 Co0 2.216 1_455 S
O1 C8 1.247 1_455 S
O2 Co0 2.091 . S
O2 C8 1.261 . S
C3 O12 1.224 1_455 S
C3 O13 1.272 . S
O4 Co0 2.004 . S
O4 C9 1.259 . S
Co5 O6 2.061 . S
Co5 O11 2.052 . S
Co5 O13 2.135 . S
O6 Co5 2.061 . S
O6 C9 1.235 1_455 S
C7 O10 1.238 . S
C7 O11 1.241 . S
C8 O1 1.247 1_655 S
C8 O2 1.261 . S
C9 O4 1.259 . S
C9 O6 1.235 1_655 S
O10 Co0 2.021 1_455 S
O10 C7 1.238 . S
O11 Co5 2.052 . S
O11 C7 1.241 . S
O12 Co0 2.140 . S
O12 C3 1.224 1_655 S
O13 Co0 2.244 1_455 S
O13 C3 1.272 . S
O13 Co5 2.135 . S
Co14 O15 2.216 . S
Co14 O16 2.091 . S
Co14 O18 2.004 1_655 S
Co14 O24 2.021 1_655 S
Co14 O26 2.137 . S
Co14 O27 2.244 . S
O15 Co14 2.216 . S
O15 C22 1.247 . S
O16 Co14 2.091 . S
O16 C22 1.261 . S
C17 O26 1.247 . S
C17 O27 1.272 . S
O18 Co14 2.004 1_455 S
O18 C23 1.259 . S
Co19 O20 2.061 . S
Co19 O25 2.052 . S
Co19 O27 2.135 1_455 S
O20 Co19 2.061 . S
O20 C23 1.235 . S
C21 O24 1.238 . S
C21 O25 1.241 . S
C22 O15 1.247 . S
C22 O16 1.261 . S
C23 O18 1.259 . S
C23 O20 1.235 . S
O24 Co14 2.021 1_455 S
O24 C21 1.238 . S
O25 Co19 2.052 . S
O25 C21 1.241 . S
O26 Co14 2.137 . S
O26 C17 1.247 . S
O27 Co14 2.244 . S
O27 C17 1.272 . S
O27 Co19 2.135 1_655 S
Co28 O29 2.216 . S
Co28 O30 2.091 . S
Co28 O32 2.004 . S
Co28 O38 2.021 . S
Co28 O40 2.137 . S
Co28 O41 2.244 . S
O29 Co28 2.216 . S
O29 C36 1.247 . S
O30 Co28 2.091 . S
O30 C36 1.261 . S
C31 O40 1.247 . S
C31 O41 1.272 . S
O32 Co28 2.004 . S
O32 C37 1.259 . S
Co33 O34 2.061 . S
Co33 O39 2.052 . S
Co33 O41 2.135 . S
O34 Co33 2.061 . S
O34 C37 1.235 . S
C35 O38 1.238 . S
C35 O39 1.241 . S
C36 O29 1.247 . S
C36 O30 1.261 . S
C37 O32 1.259 . S
C37 O34 1.235 . S
O38 Co28 2.021 . S
O38 C35 1.238 . S
O39 Co33 2.052 . S
O39 C35 1.241 . S
O40 Co28 2.137 . S
O40 C31 1.247 . S
O41 Co28 2.244 . S
O41 C31 1.272 . S
O41 Co33 2.135 . S
Co42 O43 2.216 . S
Co42 O44 2.091 . S
Co42 O46 2.004 . S
Co42 O52 2.021 . S
Co42 O54 2.137 . S
Co42 O55 2.244 . S
O43 Co42 2.216 . S
O43 C50 1.247 . S
O44 Co42 2.091 . S
O44 C50 1.261 . S
C45 O54 1.247 . S
C45 O55 1.272 . S
O46 Co42 2.004 . S
O46 C51 1.259 . S
Co47 O48 2.061 . S
Co47 O53 2.052 . S
Co47 O55 2.135 . S
O48 Co47 2.061 . S
O48 C51 1.235 . S
C49 O52 1.238 . S
C49 O53 1.241 . S
C50 O43 1.247 . S
C50 O44 1.261 . S
C51 O46 1.259 . S
C51 O48 1.235 . S
O52 Co42 2.021 . S
O52 C49 1.238 . S
O53 Co47 2.052 . S
O53 C49 1.241 . S
O54 Co42 2.137 . S
O54 C45 1.247 . S
O55 Co42 2.244 . S
O55 C45 1.272 . S
O55 Co47 2.135 . S
Co56 O57 2.216 1_655 S
Co56 O58 2.091 . S
Co56 O60 2.004 . S
Co56 O66 2.021 1_655 S
Co56 O68 2.137 . S
Co56 O69 2.244 1_655 S
O57 Co56 2.216 1_455 S
O57 C64 1.247 1_455 S
O58 Co56 2.091 . S
O58 C64 1.261 . S
C59 O68 1.247 1_455 S
C59 O69 1.272 . S
O60 Co56 2.004 . S
O60 C65 1.259 . S
Co61 O62 2.061 . S
Co61 O67 2.052 . S
Co61 O69 2.135 . S
O62 Co61 2.061 . S
O62 C65 1.235 1_455 S
C63 O66 1.238 . S
C63 O67 1.241 . S
C64 O57 1.247 1_655 S
C64 O58 1.261 . S
C65 O60 1.259 . S
C65 O62 1.235 1_655 S
O66 Co56 2.021 1_455 S
O66 C63 1.238 . S
O67 Co61 2.052 . S
O67 C63 1.241 . S
O68 Co56 2.137 . S
O68 C59 1.247 1_655 S
O69 Co56 2.244 1_455 S
O69 C59 1.272 . S
O69 Co61 2.135 . S
Co70 O71 2.216 . S
Co70 O72 2.091 . S
Co70 O74 2.004 . S
Co70 O80 2.021 . S
Co70 O82 2.137 . S
Co70 O83 2.244 . S
O71 Co70 2.216 . S
O71 C78 1.247 . S
O72 Co70 2.091 . S
O72 C78 1.261 . S
C73 O82 1.247 . S
C73 O83 1.272 . S
O74 Co70 2.004 . S
O74 C79 1.259 . S
Co75 O76 2.061 . S
Co75 O81 2.052 . S
Co75 O83 2.135 . S
O76 Co75 2.061 . S
O76 C79 1.235 . S
C77 O80 1.238 . S
C77 O81 1.241 . S
C78 O71 1.247 . S
C78 O72 1.261 . S
C79 O74 1.259 . S
C79 O76 1.235 . S
O80 Co70 2.021 . S
O80 C77 1.238 . S
O81 Co75 2.052 . S
O81 C77 1.241 . S
O82 Co70 2.137 . S
O82 C73 1.247 . S
O83 Co70 2.244 . S
O83 C73 1.272 . S
O83 Co75 2.135 . S
Co84 O85 2.216 . S
Co84 O86 2.091 . S
Co84 O88 2.004 . S
Co84 O94 2.021 . S
Co84 O96 2.137 . S
Co84 O97 2.244 . S
O85 Co84 2.216 . S
O85 C92 1.247 . S
O86 Co84 2.091 . S
O86 C92 1.261 . S
C87 O96 1.247 . S
C87 O97 1.272 . S
O88 Co84 2.004 . S
O88 C93 1.259 . S
Co89 O90 2.061 . S
Co89 O95 2.052 . S
Co89 O97 2.135 . S
O90 Co89 2.061 . S
O90 C93 1.235 . S
C91 O94 1.238 . S
C91 O95 1.241 . S
C92 O85 1.247 . S
C92 O86 1.261 . S
C93 O88 1.259 . S
C93 O90 1.235 . S
O94 Co84 2.021 . S
O94 C91 1.238 . S
O95 Co89 2.052 . S
O95 C91 1.241 . S
O96 Co84 2.137 . S
O96 C87 1.247 . S
O97 Co84 2.244 . S
O97 C87 1.272 . S
O97 Co89 2.135 . S
Co98 O99 2.216 . S
Co98 O100 2.091 . S
Co98 O102 2.004 1_655 S
Co98 O108 2.021 1_655 S
Co98 O110 2.137 . S
Co98 O111 2.244 . S
O99 Co98 2.216 . S
O99 C106 1.247 . S
O100 Co98 2.091 . S
O100 C106 1.261 . S
C101 O110 1.247 . S
C101 O111 1.272 . S
O102 Co98 2.004 1_455 S
O102 C107 1.259 . S
Co103 O104 2.061 . S
Co103 O109 2.052 . S
Co103 O111 2.135 1_455 S
O104 Co103 2.061 . S
O104 C107 1.235 . S
C105 O108 1.238 . S
C105 O109 1.241 . S
C106 O99 1.247 . S
C106 O100 1.261 . S
C107 O102 1.259 . S
C107 O104 1.235 . S
O108 Co98 2.021 1_455 S
O108 C105 1.238 . S
O109 Co103 2.052 . S
O109 C105 1.241 . S
O110 Co98 2.137 . S
O110 C101 1.247 . S
O111 Co98 2.244 . S
O111 C101 1.272 . S
O111 Co103 2.135 1_655 S
Co112 O113 2.216 1_565 S
Co112 O114 2.091 . S
Co112 O116 2.004 . S
Co112 O122 2.021 1_565 S
Co112 O124 2.139 . S
Co112 O125 2.244 1_565 S
O113 Co112 2.216 1_545 S
O113 C120 1.247 1_545 S
O114 Co112 2.091 . S
O114 C120 1.261 . S
C115 O124 1.231 1_545 S
C115 O125 1.272 . S
O116 Co112 2.004 . S
O116 C121 1.259 . S
Co117 O118 2.061 . S
Co117 O123 2.052 . S
Co117 O125 2.135 . S
O118 Co117 2.061 . S
O118 C121 1.235 1_545 S
C119 O122 1.238 . S
C119 O123 1.241 . S
C120 O113 1.247 1_565 S
C120 O114 1.261 . S
C121 O116 1.259 . S
C121 O118 1.235 1_565 S
O122 Co112 2.021 1_545 S
O122 C119 1.238 . S
O123 Co117 2.052 . S
O123 C119 1.241 . S
O124 Co112 2.139 . S
O124 C115 1.231 1_565 S
O125 Co112 2.244 1_545 S
O125 C115 1.272 . S
O125 Co117 2.135 . S
Co126 O127 2.216 . S
Co126 O128 2.091 . S
Co126 O130 2.004 . S
Co126 O136 2.021 . S
Co126 O138 2.137 . S
Co126 O139 2.244 . S
O127 Co126 2.216 . S
O127 C134 1.247 . S
O128 Co126 2.091 . S
O128 C134 1.261 . S
C129 O138 1.247 . S
C129 O139 1.272 . S
O130 Co126 2.004 . S
O130 C135 1.259 . S
Co131 O132 2.061 . S
Co131 O137 2.052 . S
Co131 O139 2.135 . S
O132 Co131 2.061 . S
O132 C135 1.235 . S
C133 O136 1.238 . S
C133 O137 1.241 . S
C134 O127 1.247 . S
C134 O128 1.261 . S
C135 O130 1.259 . S
C135 O132 1.235 . S
O136 Co126 2.021 . S
O136 C133 1.238 . S
O137 Co131 2.052 . S
O137 C133 1.241 . S
O138 Co126 2.137 . S
O138 C129 1.247 . S
O139 Co126 2.244 . S
O139 C129 1.272 . S
O139 Co131 2.135 . S
Co140 O141 2.216 1_565 S
Co140 O142 2.091 . S
Co140 O144 2.004 . S
Co140 O150 2.021 1_565 S
Co140 O152 2.137 . S
Co140 O153 2.244 1_565 S
O141 Co140 2.216 1_545 S
O141 C148 1.247 1_545 S
O142 Co140 2.091 . S
O142 C148 1.261 . S
C143 O152 1.247 1_545 S
C143 O153 1.272 . S
O144 Co140 2.004 . S
O144 C149 1.259 . S
Co145 O146 2.061 . S
Co145 O151 2.052 . S
Co145 O153 2.135 . S
O146 Co145 2.061 . S
O146 C149 1.235 1_545 S
C147 O150 1.238 . S
C147 O151 1.241 . S
C148 O141 1.247 1_565 S
C148 O142 1.261 . S
C149 O144 1.259 . S
C149 O146 1.235 1_565 S
O150 Co140 2.021 1_545 S
O150 C147 1.238 . S
O151 Co145 2.052 . S
O151 C147 1.241 . S
O152 Co140 2.137 . S
O152 C143 1.247 1_565 S
O153 Co140 2.244 1_545 S
O153 C143 1.272 . S
O153 Co145 2.135 . S
Co154 O155 2.216 . S
Co154 O156 2.091 . S
Co154 O158 2.004 1_554 S
Co154 O164 2.021 1_554 S
Co154 O166 2.137 . S
Co154 O167 2.244 . S
O155 Co154 2.216 . S
O155 C162 1.247 . S
O156 Co154 2.091 . S
O156 C162 1.261 . S
C157 O166 1.247 . S
C157 O167 1.272 . S
O158 Co154 2.004 1_556 S
O158 C163 1.259 . S
Co159 O160 2.061 . S
Co159 O165 2.052 . S
Co159 O167 2.135 1_556 S
O160 Co159 2.061 . S
O160 C163 1.235 . S
C161 O164 1.238 . S
C161 O165 1.241 . S
C162 O155 1.247 . S
C162 O156 1.261 . S
C163 O158 1.259 . S
C163 O160 1.235 . S
O164 Co154 2.021 1_556 S
O164 C161 1.238 . S
O165 Co159 2.052 . S
O165 C161 1.241 . S
O166 Co154 2.137 . S
O166 C157 1.247 . S
O167 Co154 2.244 . S
O167 C157 1.272 . S
O167 Co159 2.135 1_554 S
Co168 O169 2.216 1_556 S
Co168 O170 2.091 . S
Co168 O172 2.004 . S
Co168 O178 2.021 1_556 S
Co168 O180 2.137 . S
Co168 O181 2.244 1_556 S
O169 Co168 2.216 1_554 S
O169 C176 1.247 1_554 S
O170 Co168 2.091 . S
O170 C176 1.261 . S
C171 O180 1.247 1_554 S
C171 O181 1.272 . S
O172 Co168 2.004 . S
O172 C177 1.259 . S
Co173 O174 2.061 . S
Co173 O179 2.052 . S
Co173 O181 2.135 . S
O174 Co173 2.061 . S
O174 C177 1.235 1_554 S
C175 O178 1.238 . S
C175 O179 1.241 . S
C176 O169 1.247 1_556 S
C176 O170 1.261 . S
C177 O172 1.259 . S
C177 O174 1.235 1_556 S
O178 Co168 2.021 1_554 S
O178 C175 1.238 . S
O179 Co173 2.052 . S
O179 C175 1.241 . S
O180 Co168 2.137 . S
O180 C171 1.247 1_556 S
O181 Co168 2.244 1_554 S
O181 C171 1.272 . S
O181 Co173 2.135 . S
Co182 O183 2.216 1_556 S
Co182 O184 2.091 . S
Co182 O186 2.004 . S
Co182 O192 2.021 1_556 S
Co182 O194 2.137 . S
Co182 O195 2.244 1_556 S
O183 Co182 2.216 1_554 S
O183 C190 1.247 1_554 S
O184 Co182 2.091 . S
O184 C190 1.261 . S
C185 O194 1.247 1_554 S
C185 O195 1.272 . S
O186 Co182 2.004 . S
O186 C191 1.259 . S
Co187 O188 2.061 . S
Co187 O193 2.052 . S
Co187 O195 2.135 . S
O188 Co187 2.061 . S
O188 C191 1.235 1_554 S
C189 O192 1.238 . S
C189 O193 1.241 . S
C190 O183 1.247 1_556 S
C190 O184 1.261 . S
C191 O186 1.259 . S
C191 O188 1.235 1_556 S
O192 Co182 2.021 1_554 S
O192 C189 1.238 . S
O193 Co187 2.052 . S
O193 C189 1.241 . S
O194 Co182 2.137 . S
O194 C185 1.247 1_556 S
O195 Co182 2.244 1_554 S
O195 C185 1.272 . S
O195 Co187 2.135 . S
Co196 O197 2.216 . S
Co196 O198 2.091 . S
Co196 O200 2.004 . S
Co196 O206 2.021 . S
Co196 O208 2.137 . S
Co196 O209 2.244 . S
O197 Co196 2.216 . S
O197 C204 1.247 . S
O198 Co196 2.091 . S
O198 C204 1.261 . S
C199 O208 1.247 . S
C199 O209 1.272 . S
O200 Co196 2.004 . S
O200 C205 1.259 . S
Co201 O202 2.061 . S
Co201 O207 2.052 . S
Co201 O209 2.135 . S
O202 Co201 2.061 . S
O202 C205 1.235 . S
C203 O206 1.238 . S
C203 O207 1.241 . S
C204 O197 1.247 . S
C204 O198 1.261 . S
C205 O200 1.259 . S
C205 O202 1.235 . S
O206 Co196 2.021 . S
O206 C203 1.238 . S
O207 Co201 2.052 . S
O207 C203 1.241 . S
O208 Co196 2.137 . S
O208 C199 1.247 . S
O209 Co196 2.244 . S
O209 C199 1.272 . S
O209 Co201 2.135 . S
Co210 O211 2.216 . S
Co210 O212 2.091 . S
Co210 O214 2.004 . S
Co210 O220 2.021 . S
Co210 O222 2.137 . S
Co210 O223 2.244 . S
O211 Co210 2.216 . S
O211 C218 1.247 . S
O212 Co210 2.091 . S
O212 C218 1.261 . S
C213 O222 1.247 . S
C213 O223 1.272 . S
O214 Co210 2.004 . S
O214 C219 1.259 . S
Co215 O216 2.061 . S
Co215 O221 2.052 . S
Co215 O223 2.135 . S
O216 Co215 2.061 . S
O216 C219 1.235 . S
C217 O220 1.238 . S
C217 O221 1.241 . S
C218 O211 1.247 . S
C218 O212 1.261 . S
C219 O214 1.259 . S
C219 O216 1.235 . S
O220 Co210 2.021 . S
O220 C217 1.238 . S
O221 Co215 2.052 . S
O221 C217 1.241 . S
O222 Co210 2.137 . S
O222 C213 1.247 . S
O223 Co210 2.244 . S
O223 C213 1.272 . S
O223 Co215 2.135 . S
Co224 O225 2.216 . S
Co224 O226 2.091 . S
Co224 O228 2.004 1_565 S
Co224 O234 2.021 1_565 S
Co224 O236 2.137 . S
Co224 O237 2.244 . S
O225 Co224 2.216 . S
O225 C232 1.247 . S
O226 Co224 2.091 . S
O226 C232 1.261 . S
C227 O236 1.247 . S
C227 O237 1.272 . S
O228 Co224 2.004 1_545 S
O228 C233 1.259 . S
Co229 O230 2.061 . S
Co229 O235 2.052 . S
Co229 O237 2.135 1_545 S
O230 Co229 2.061 . S
O230 C233 1.235 . S
C231 O234 1.238 . S
C231 O235 1.241 . S
C232 O225 1.247 . S
C232 O226 1.261 . S
C233 O228 1.259 . S
C233 O230 1.235 . S
O234 Co224 2.021 1_545 S
O234 C231 1.238 . S
O235 Co229 2.052 . S
O235 C231 1.241 . S
O236 Co224 2.137 . S
O236 C227 1.247 . S
O237 Co224 2.244 . S
O237 C227 1.272 . S
O237 Co229 2.135 1_565 S
Co238 O239 2.216 . S
Co238 O240 2.091 . S
Co238 O242 2.004 . S
Co238 O248 2.021 . S
Co238 O250 2.137 . S
Co238 O251 2.244 . S
O239 Co238 2.216 . S
O239 C246 1.247 . S
O240 Co238 2.091 . S
O240 C246 1.261 . S
C241 O250 1.247 . S
C241 O251 1.272 . S
O242 Co238 2.004 . S
O242 C247 1.259 . S
Co243 O244 2.061 . S
Co243 O249 2.052 . S
Co243 O251 2.135 . S
O244 Co243 2.061 . S
O244 C247 1.235 . S
C245 O248 1.238 . S
C245 O249 1.241 . S
C246 O239 1.247 . S
C246 O240 1.261 . S
C247 O242 1.259 . S
C247 O244 1.235 . S
O248 Co238 2.021 . S
O248 C245 1.238 . S
O249 Co243 2.052 . S
O249 C245 1.241 . S
O250 Co238 2.137 . S
O250 C241 1.247 . S
O251 Co238 2.244 . S
O251 C241 1.272 . S
O251 Co243 2.135 . S
Co252 O253 2.216 . S
Co252 O254 2.091 . S
Co252 O256 2.004 . S
Co252 O262 2.021 . S
Co252 O264 2.137 . S
Co252 O265 2.244 . S
O253 Co252 2.216 . S
O253 C260 1.247 . S
O254 Co252 2.091 . S
O254 C260 1.261 . S
C255 O264 1.247 . S
C255 O265 1.272 . S
O256 Co252 2.004 . S
O256 C261 1.259 . S
Co257 O258 2.061 . S
Co257 O263 2.052 . S
Co257 O265 2.135 . S
O258 Co257 2.061 . S
O258 C261 1.235 . S
C259 O262 1.238 . S
C259 O263 1.241 . S
C260 O253 1.247 . S
C260 O254 1.261 . S
C261 O256 1.259 . S
C261 O258 1.235 . S
O262 Co252 2.021 . S
O262 C259 1.238 . S
O263 Co257 2.052 . S
O263 C259 1.241 . S
O264 Co252 2.137 . S
O264 C255 1.247 . S
O265 Co252 2.244 . S
O265 C255 1.272 . S
O265 Co257 2.135 . S
Co266 O267 2.216 . S
Co266 O268 2.091 . S
Co266 O270 2.004 1_565 S
Co266 O276 2.021 1_565 S
Co266 O278 2.137 . S
Co266 O279 2.244 . S
O267 Co266 2.216 . S
O267 C274 1.247 . S
O268 Co266 2.091 . S
O268 C274 1.261 . S
C269 O278 1.247 . S
C269 O279 1.272 . S
O270 Co266 2.004 1_545 S
O270 C275 1.259 . S
Co271 O272 2.061 . S
Co271 O277 2.052 . S
Co271 O279 2.135 1_545 S
O272 Co271 2.061 . S
O272 C275 1.235 . S
C273 O276 1.238 . S
C273 O277 1.241 . S
C274 O267 1.247 . S
C274 O268 1.261 . S
C275 O270 1.259 . S
C275 O272 1.235 . S
O276 Co266 2.021 1_545 S
O276 C273 1.238 . S
O277 Co271 2.052 . S
O277 C273 1.241 . S
O278 Co266 2.137 . S
O278 C269 1.247 . S
O279 Co266 2.244 . S
O279 C269 1.272 . S
O279 Co271 2.135 1_565 S
Co280 O281 2.216 . S
Co280 O282 2.091 . S
Co280 O284 2.004 1_554 S
Co280 O290 2.021 1_554 S
Co280 O292 2.137 . S
Co280 O293 2.244 . S
O281 Co280 2.216 . S
O281 C288 1.247 . S
O282 Co280 2.091 . S
O282 C288 1.261 . S
C283 O292 1.247 . S
C283 O293 1.272 . S
O284 Co280 2.004 1_556 S
O284 C289 1.259 . S
Co285 O286 2.061 . S
Co285 O291 2.052 . S
Co285 O293 2.135 1_556 S
O286 Co285 2.061 . S
O286 C289 1.235 . S
C287 O290 1.238 . S
C287 O291 1.241 . S
C288 O281 1.247 . S
C288 O282 1.261 . S
C289 O284 1.259 . S
C289 O286 1.235 . S
O290 Co280 2.021 1_556 S
O290 C287 1.238 . S
O291 Co285 2.052 . S
O291 C287 1.241 . S
O292 Co280 2.137 . S
O292 C283 1.247 . S
O293 Co280 2.244 . S
O293 C283 1.272 . S
O293 Co285 2.135 1_554 S
Co294 O295 2.216 . S
Co294 O296 2.091 . S
Co294 O298 2.004 . S
Co294 O304 2.021 . S
Co294 O306 2.137 . S
Co294 O307 2.244 . S
O295 Co294 2.216 . S
O295 C302 1.247 . S
O296 Co294 2.091 . S
O296 C302 1.261 . S
C297 O306 1.247 . S
C297 O307 1.272 . S
O298 Co294 2.004 . S
O298 C303 1.259 . S
Co299 O300 2.061 . S
Co299 O305 2.052 . S
Co299 O307 2.135 . S
O300 Co299 2.061 . S
O300 C303 1.235 . S
C301 O304 1.238 . S
C301 O305 1.241 . S
C302 O295 1.247 . S
C302 O296 1.261 . S
C303 O298 1.259 . S
C303 O300 1.235 . S
O304 Co294 2.021 . S
O304 C301 1.238 . S
O305 Co299 2.052 . S
O305 C301 1.241 . S
O306 Co294 2.137 . S
O306 C297 1.247 . S
O307 Co294 2.244 . S
O307 C297 1.272 . S
O307 Co299 2.135 . S
Co308 O309 2.216 . S
Co308 O310 2.091 . S
Co308 O312 2.004 . S
Co308 O318 2.021 . S
Co308 O320 2.137 . S
Co308 O321 2.244 . S
O309 Co308 2.216 . S
O309 C316 1.247 . S
O310 Co308 2.091 . S
O310 C316 1.261 . S
C311 O320 1.247 . S
C311 O321 1.272 . S
O312 Co308 2.004 . S
O312 C317 1.259 . S
Co313 O314 2.061 . S
Co313 O319 2.052 . S
Co313 O321 2.135 . S
O314 Co313 2.061 . S
O314 C317 1.235 . S
C315 O318 1.238 . S
C315 O319 1.241 . S
C316 O309 1.247 . S
C316 O310 1.261 . S
C317 O312 1.259 . S
C317 O314 1.235 . S
O318 Co308 2.021 . S
O318 C315 1.238 . S
O319 Co313 2.052 . S
O319 C315 1.241 . S
O320 Co308 2.137 . S
O320 C311 1.247 . S
O321 Co308 2.244 . S
O321 C311 1.272 . S
O321 Co313 2.135 . S
Co322 O323 2.216 . S
Co322 O324 2.091 . S
Co322 O326 2.004 . S
Co322 O332 2.021 . S
Co322 O334 2.137 . S
Co322 O335 2.244 . S
O323 Co322 2.216 . S
O323 C330 1.247 . S
O324 Co322 2.091 . S
O324 C330 1.261 . S
C325 O334 1.247 . S
C325 O335 1.272 . S
O326 Co322 2.004 . S
O326 C331 1.259 . S
Co327 O328 2.061 . S
Co327 O333 2.052 . S
Co327 O335 2.135 . S
O328 Co327 2.061 . S
O328 C331 1.235 . S
C329 O332 1.238 . S
C329 O333 1.241 . S
C330 O323 1.247 . S
C330 O324 1.261 . S
C331 O326 1.259 . S
C331 O328 1.235 . S
O332 Co322 2.021 . S
O332 C329 1.238 . S
O333 Co327 2.052 . S
O333 C329 1.241 . S
O334 Co322 2.137 . S
O334 C325 1.247 . S
O335 Co322 2.244 . S
O335 C325 1.272 . S
O335 Co327 2.135 . S
Sc336 O339 2.025 . S
Sc336 O346 2.105 . S
Sc336 O349 2.105 . S
Sc336 O352 2.105 . S
Sc336 O355 2.105 . S
Sc337 O339 2.025 . S
Sc337 O347 2.105 . S
Sc337 O351 2.105 . S
Sc337 O353 2.105 . S
Sc337 O357 2.105 . S
Sc338 O339 2.025 . S
Sc338 O348 2.105 . S
Sc338 O350 2.105 . S
Sc338 O354 2.105 . S
Sc338 O356 2.105 . S
O339 Sc336 2.025 . S
O339 Sc337 2.025 . S
O339 Sc338 2.025 . S
C340 O346 1.268 . S
C340 O356 1.268 . S
C341 O347 1.268 . S
C341 O355 1.268 . S
C342 O348 1.268 . S
C342 O357 1.268 . S
C343 O349 1.268 . S
C343 O353 1.268 . S
C344 O350 1.268 . S
C344 O352 1.268 . S
C345 O351 1.268 . S
C345 O354 1.268 . S
O346 Sc336 2.105 . S
O346 C340 1.268 . S
O347 Sc337 2.105 . S
O347 C341 1.268 . S
O348 Sc338 2.105 . S
O348 C342 1.268 . S
O349 Sc336 2.105 . S
O349 C343 1.268 . S
O350 Sc338 2.105 . S
O350 C344 1.268 . S
O351 Sc337 2.105 . S
O351 C345 1.268 . S
O352 Sc336 2.105 . S
O352 C344 1.268 . S
O353 Sc337 2.105 . S
O353 C343 1.268 . S
O354 Sc338 2.105 . S
O354 C345 1.268 . S
O355 Sc336 2.105 . S
O355 C341 1.268 . S
O356 Sc338 2.105 . S
O356 C340 1.268 . S
O357 Sc337 2.105 . S
O357 C342 1.268 . S
Sc358 O361 2.025 . S
Sc358 O368 2.105 . S
Sc358 O371 2.105 . S
Sc358 O374 2.105 . S
Sc358 O377 2.105 . S
Sc359 O361 2.025 . S
Sc359 O369 2.105 . S
Sc359 O373 2.105 . S
Sc359 O375 2.105 . S
Sc359 O379 2.105 . S
Sc360 O361 2.025 . S
Sc360 O370 2.105 . S
Sc360 O372 2.105 . S
Sc360 O376 2.105 . S
Sc360 O378 2.105 . S
O361 Sc358 2.025 . S
O361 Sc359 2.025 . S
O361 Sc360 2.025 . S
C362 O368 1.268 . S
C362 O378 1.268 . S
C363 O369 1.268 . S
C363 O377 1.268 . S
C364 O370 1.268 . S
C364 O379 1.268 . S
C365 O371 1.268 . S
C365 O375 1.268 . S
C366 O372 1.268 . S
C366 O374 1.268 . S
C367 O373 1.268 . S
C367 O376 1.268 . S
O368 Sc358 2.105 . S
O368 C362 1.268 . S
O369 Sc359 2.105 . S
O369 C363 1.268 . S
O370 Sc360 2.105 . S
O370 C364 1.268 . S
O371 Sc358 2.105 . S
O371 C365 1.268 . S
O372 Sc360 2.105 . S
O372 C366 1.268 . S
O373 Sc359 2.105 . S
O373 C367 1.268 . S
O374 Sc358 2.105 . S
O374 C366 1.268 . S
O375 Sc359 2.105 . S
O375 C365 1.268 . S
O376 Sc360 2.105 . S
O376 C367 1.268 . S
O377 Sc358 2.105 . S
O377 C363 1.268 . S
O378 Sc360 2.105 . S
O378 C362 1.268 . S
O379 Sc359 2.105 . S
O379 C364 1.268 . S
Sc380 O383 2.025 . S
Sc380 O390 2.105 . S
Sc380 O393 2.105 . S
Sc380 O396 2.105 . S
Sc380 O399 2.105 . S
Sc381 O383 2.025 . S
Sc381 O391 2.105 . S
Sc381 O395 2.105 . S
Sc381 O397 2.105 . S
Sc381 O401 2.105 . S
Sc382 O383 2.025 . S
Sc382 O392 2.105 . S
Sc382 O394 2.105 . S
Sc382 O398 2.105 . S
Sc382 O400 2.105 . S
O383 Sc380 2.025 . S
O383 Sc381 2.025 . S
O383 Sc382 2.025 . S
C384 O390 1.268 . S
C384 O400 1.268 . S
C385 O391 1.268 . S
C385 O399 1.268 . S
C386 O392 1.268 . S
C386 O401 1.268 . S
C387 O393 1.268 . S
C387 O397 1.268 . S
C388 O394 1.268 . S
C388 O396 1.268 . S
C389 O395 1.268 . S
C389 O398 1.268 . S
O390 Sc380 2.105 . S
O390 C384 1.268 . S
O391 Sc381 2.105 . S
O391 C385 1.268 . S
O392 Sc382 2.105 . S
O392 C386 1.268 . S
O393 Sc380 2.105 . S
O393 C387 1.268 . S
O394 Sc382 2.105 . S
O394 C388 1.268 . S
O395 Sc381 2.105 . S
O395 C389 1.268 . S
O396 Sc380 2.105 . S
O396 C388 1.268 . S
O397 Sc381 2.105 . S
O397 C387 1.268 . S
O398 Sc382 2.105 . S
O398 C389 1.268 . S
O399 Sc380 2.105 . S
O399 C385 1.268 . S
O400 Sc382 2.105 . S
O400 C384 1.268 . S
O401 Sc381 2.105 . S
O401 C386 1.268 . S
Sc402 O405 2.025 . S
Sc402 O412 2.105 . S
Sc402 O415 2.105 . S
Sc402 O418 2.105 . S
Sc402 O421 2.105 . S
Sc403 O405 2.025 . S
Sc403 O413 2.105 . S
Sc403 O417 2.105 . S
Sc403 O419 2.105 . S
Sc403 O423 2.105 . S
Sc404 O405 2.025 . S
Sc404 O414 2.105 . S
Sc404 O416 2.105 . S
Sc404 O420 2.105 . S
Sc404 O422 2.105 . S
O405 Sc402 2.025 . S
O405 Sc403 2.025 . S
O405 Sc404 2.025 . S
C406 O412 1.268 . S
C406 O422 1.268 . S
C407 O413 1.268 . S
C407 O421 1.268 . S
C408 O414 1.268 . S
C408 O423 1.268 . S
C409 O415 1.268 . S
C409 O419 1.268 . S
C410 O416 1.268 . S
C410 O418 1.268 . S
C411 O417 1.268 . S
C411 O420 1.268 . S
O412 Sc402 2.105 . S
O412 C406 1.268 . S
O413 Sc403 2.105 . S
O413 C407 1.268 . S
O414 Sc404 2.105 . S
O414 C408 1.268 . S
O415 Sc402 2.105 . S
O415 C409 1.268 . S
O416 Sc404 2.105 . S
O416 C410 1.268 . S
O417 Sc403 2.105 . S
O417 C411 1.268 . S
O418 Sc402 2.105 . S
O418 C410 1.268 . S
O419 Sc403 2.105 . S
O419 C409 1.268 . S
O420 Sc404 2.105 . S
O420 C411 1.268 . S
O421 Sc402 2.105 . S
O421 C407 1.268 . S
O422 Sc404 2.105 . S
O422 C406 1.268 . S
O423 Sc403 2.105 . S
O423 C408 1.268 . S
Sc424 O427 2.025 . S
Sc424 O434 2.105 . S
Sc424 O437 2.105 . S
Sc424 O440 2.105 . S
Sc424 O443 2.105 . S
Sc425 O427 2.025 . S
Sc425 O435 2.105 . S
Sc425 O439 2.105 . S
Sc425 O441 2.105 . S
Sc425 O445 2.105 . S
Sc426 O427 2.025 . S
Sc426 O436 2.105 . S
Sc426 O438 2.105 . S
Sc426 O442 2.105 . S
Sc426 O444 2.105 . S
O427 Sc424 2.025 . S
O427 Sc425 2.025 . S
O427 Sc426 2.025 . S
C428 O434 1.268 . S
C428 O444 1.268 . S
C429 O435 1.268 . S
C429 O443 1.268 . S
C430 O436 1.268 . S
C430 O445 1.268 . S
C431 O437 1.268 . S
C431 O441 1.268 . S
C432 O438 1.268 . S
C432 O440 1.268 . S
C433 O439 1.268 . S
C433 O442 1.268 . S
O434 Sc424 2.105 . S
O434 C428 1.268 . S
O435 Sc425 2.105 . S
O435 C429 1.268 . S
O436 Sc426 2.105 . S
O436 C430 1.268 . S
O437 Sc424 2.105 . S
O437 C431 1.268 . S
O438 Sc426 2.105 . S
O438 C432 1.268 . S
O439 Sc425 2.105 . S
O439 C433 1.268 . S
O440 Sc424 2.105 . S
O440 C432 1.268 . S
O441 Sc425 2.105 . S
O441 C431 1.268 . S
O442 Sc426 2.105 . S
O442 C433 1.268 . S
O443 Sc424 2.105 . S
O443 C429 1.268 . S
O444 Sc426 2.105 . S
O444 C428 1.268 . S
O445 Sc425 2.105 . S
O445 C430 1.268 . S
Sc446 O449 2.025 . S
Sc446 O456 2.105 . S
Sc446 O459 2.105 . S
Sc446 O462 2.105 . S
Sc446 O465 2.105 . S
Sc447 O449 2.025 . S
Sc447 O457 2.105 . S
Sc447 O461 2.105 . S
Sc447 O463 2.105 . S
Sc447 O467 2.105 . S
Sc448 O449 2.025 . S
Sc448 O458 2.105 . S
Sc448 O460 2.105 . S
Sc448 O464 2.105 . S
Sc448 O466 2.105 . S
O449 Sc446 2.025 . S
O449 Sc447 2.025 . S
O449 Sc448 2.025 . S
C450 O456 1.268 . S
C450 O466 1.268 . S
C451 O457 1.268 . S
C451 O465 1.268 . S
C452 O458 1.268 . S
C452 O467 1.268 . S
C453 O459 1.268 . S
C453 O463 1.268 . S
C454 O460 1.268 . S
C454 O462 1.268 . S
C455 O461 1.268 . S
C455 O464 1.268 . S
O456 Sc446 2.105 . S
O456 C450 1.268 . S
O457 Sc447 2.105 . S
O457 C451 1.268 . S
O458 Sc448 2.105 . S
O458 C452 1.268 . S
O459 Sc446 2.105 . S
O459 C453 1.268 . S
O460 Sc448 2.105 . S
O460 C454 1.268 . S
O461 Sc447 2.105 . S
O461 C455 1.268 . S
O462 Sc446 2.105 . S
O462 C454 1.268 . S
O463 Sc447 2.105 . S
O463 C453 1.268 . S
O464 Sc448 2.105 . S
O464 C455 1.268 . S
O465 Sc446 2.105 . S
O465 C451 1.268 . S
O466 Sc448 2.105 . S
O466 C450 1.268 . S
O467 Sc447 2.105 . S
O467 C452 1.268 . S
Sc468 O471 2.025 . S
Sc468 O478 2.105 . S
Sc468 O481 2.105 . S
Sc468 O484 2.105 . S
Sc468 O487 2.105 . S
Sc469 O471 2.025 . S
Sc469 O479 2.105 . S
Sc469 O483 2.105 . S
Sc469 O485 2.105 . S
Sc469 O489 2.105 . S
Sc470 O471 2.025 . S
Sc470 O480 2.105 . S
Sc470 O482 2.105 . S
Sc470 O486 2.105 . S
Sc470 O488 2.105 . S
O471 Sc468 2.025 . S
O471 Sc469 2.025 . S
O471 Sc470 2.025 . S
C472 O478 1.268 . S
C472 O488 1.268 . S
C473 O479 1.268 . S
C473 O487 1.268 . S
C474 O480 1.268 . S
C474 O489 1.268 . S
C475 O481 1.268 . S
C475 O485 1.268 . S
C476 O482 1.268 . S
C476 O484 1.268 . S
C477 O483 1.268 . S
C477 O486 1.268 . S
O478 Sc468 2.105 . S
O478 C472 1.268 . S
O479 Sc469 2.105 . S
O479 C473 1.268 . S
O480 Sc470 2.105 . S
O480 C474 1.268 . S
O481 Sc468 2.105 . S
O481 C475 1.268 . S
O482 Sc470 2.105 . S
O482 C476 1.268 . S
O483 Sc469 2.105 . S
O483 C477 1.268 . S
O484 Sc468 2.105 . S
O484 C476 1.268 . S
O485 Sc469 2.105 . S
O485 C475 1.268 . S
O486 Sc470 2.105 . S
O486 C477 1.268 . S
O487 Sc468 2.105 . S
O487 C473 1.268 . S
O488 Sc470 2.105 . S
O488 C472 1.268 . S
O489 Sc469 2.105 . S
O489 C474 1.268 . S
Sc490 O493 2.025 . S
Sc490 O500 2.105 . S
Sc490 O503 2.105 . S
Sc490 O506 2.105 . S
Sc490 O509 2.105 . S
Sc491 O493 2.025 . S
Sc491 O501 2.105 . S
Sc491 O505 2.105 . S
Sc491 O507 2.105 . S
Sc491 O511 2.105 . S
Sc492 O493 2.025 . S
Sc492 O502 2.105 . S
Sc492 O504 2.105 . S
Sc492 O508 2.105 . S
Sc492 O510 2.105 . S
O493 Sc490 2.025 . S
O493 Sc491 2.025 . S
O493 Sc492 2.025 . S
C494 O500 1.268 . S
C494 O510 1.268 . S
C495 O501 1.268 . S
C495 O509 1.268 . S
C496 O502 1.268 . S
C496 O511 1.268 . S
C497 O503 1.268 . S
C497 O507 1.268 . S
C498 O504 1.268 . S
C498 O506 1.268 . S
C499 O505 1.268 . S
C499 O508 1.268 . S
O500 Sc490 2.105 . S
O500 C494 1.268 . S
O501 Sc491 2.105 . S
O501 C495 1.268 . S
O502 Sc492 2.105 . S
O502 C496 1.268 . S
O503 Sc490 2.105 . S
O503 C497 1.268 . S
O504 Sc492 2.105 . S
O504 C498 1.268 . S
O505 Sc491 2.105 . S
O505 C499 1.268 . S
O506 Sc490 2.105 . S
O506 C498 1.268 . S
O507 Sc491 2.105 . S
O507 C497 1.268 . S
O508 Sc492 2.105 . S
O508 C499 1.268 . S
O509 Sc490 2.105 . S
O509 C495 1.268 . S
O510 Sc492 2.105 . S
O510 C494 1.268 . S
O511 Sc491 2.105 . S
O511 C496 1.268 . S
Sc512 O515 2.025 . S
Sc512 O522 2.105 . S
Sc512 O525 2.105 . S
Sc512 O528 2.105 . S
Sc512 O531 2.105 . S
Sc513 O515 2.025 . S
Sc513 O523 2.105 . S
Sc513 O527 2.105 . S
Sc513 O529 2.105 . S
Sc513 O533 2.105 . S
Sc514 O515 2.025 . S
Sc514 O524 2.105 . S
Sc514 O526 2.105 . S
Sc514 O530 2.105 . S
Sc514 O532 2.105 . S
O515 Sc512 2.025 . S
O515 Sc513 2.025 . S
O515 Sc514 2.025 . S
C516 O522 1.268 . S
C516 O532 1.268 . S
C517 O523 1.268 . S
C517 O531 1.268 . S
C518 O524 1.268 . S
C518 O533 1.268 . S
C519 O525 1.268 . S
C519 O529 1.268 . S
C520 O526 1.268 . S
C520 O528 1.268 . S
C521 O527 1.268 . S
C521 O530 1.268 . S
O522 Sc512 2.105 . S
O522 C516 1.268 . S
O523 Sc513 2.105 . S
O523 C517 1.268 . S
O524 Sc514 2.105 . S
O524 C518 1.268 . S
O525 Sc512 2.105 . S
O525 C519 1.268 . S
O526 Sc514 2.105 . S
O526 C520 1.268 . S
O527 Sc513 2.105 . S
O527 C521 1.268 . S
O528 Sc512 2.105 . S
O528 C520 1.268 . S
O529 Sc513 2.105 . S
O529 C519 1.268 . S
O530 Sc514 2.105 . S
O530 C521 1.268 . S
O531 Sc512 2.105 . S
O531 C517 1.268 . S
O532 Sc514 2.105 . S
O532 C516 1.268 . S
O533 Sc513 2.105 . S
O533 C518 1.268 . S
Sc534 O537 2.025 . S
Sc534 O544 2.105 . S
Sc534 O547 2.105 . S
Sc534 O550 2.105 . S
Sc534 O553 2.105 . S
Sc535 O537 2.025 . S
Sc535 O545 2.105 . S
Sc535 O549 2.105 . S
Sc535 O551 2.105 . S
Sc535 O555 2.105 . S
Sc536 O537 2.025 . S
Sc536 O546 2.105 . S
Sc536 O548 2.105 . S
Sc536 O552 2.105 . S
Sc536 O554 2.105 . S
O537 Sc534 2.025 . S
O537 Sc535 2.025 . S
O537 Sc536 2.025 . S
C538 O544 1.268 . S
C538 O554 1.268 . S
C539 O545 1.268 . S
C539 O553 1.268 . S
C540 O546 1.268 . S
C540 O555 1.268 . S
C541 O547 1.268 . S
C541 O551 1.268 . S
C542 O548 1.268 . S
C542 O550 1.268 . S
C543 O549 1.268 . S
C543 O552 1.268 . S
O544 Sc534 2.105 . S
O544 C538 1.268 . S
O545 Sc535 2.105 . S
O545 C539 1.268 . S
O546 Sc536 2.105 . S
O546 C540 1.268 . S
O547 Sc534 2.105 . S
O547 C541 1.268 . S
O548 Sc536 2.105 . S
O548 C542 1.268 . S
O549 Sc535 2.105 . S
O549 C543 1.268 . S
O550 Sc534 2.105 . S
O550 C542 1.268 . S
O551 Sc535 2.105 . S
O551 C541 1.268 . S
O552 Sc536 2.105 . S
O552 C543 1.268 . S
O553 Sc534 2.105 . S
O553 C539 1.268 . S
O554 Sc536 2.105 . S
O554 C538 1.268 . S
O555 Sc535 2.105 . S
O555 C540 1.268 . S
Sc556 O559 2.025 . S
Sc556 O566 2.105 . S
Sc556 O569 2.105 . S
Sc556 O572 2.105 . S
Sc556 O575 2.105 . S
Sc557 O559 2.025 . S
Sc557 O567 2.105 . S
Sc557 O571 2.105 . S
Sc557 O573 2.105 . S
Sc557 O577 2.105 . S
Sc558 O559 2.025 . S
Sc558 O568 2.105 . S
Sc558 O570 2.105 . S
Sc558 O574 2.105 . S
Sc558 O576 2.105 . S
O559 Sc556 2.025 . S
O559 Sc557 2.025 . S
O559 Sc558 2.025 . S
C560 O566 1.268 . S
C560 O576 1.268 . S
C561 O567 1.268 . S
C561 O575 1.268 . S
C562 O568 1.268 . S
C562 O577 1.268 . S
C563 O569 1.268 . S
C563 O573 1.268 . S
C564 O570 1.268 . S
C564 O572 1.268 . S
C565 O571 1.268 . S
C565 O574 1.268 . S
O566 Sc556 2.105 . S
O566 C560 1.268 . S
O567 Sc557 2.105 . S
O567 C561 1.268 . S
O568 Sc558 2.105 . S
O568 C562 1.268 . S
O569 Sc556 2.105 . S
O569 C563 1.268 . S
O570 Sc558 2.105 . S
O570 C564 1.268 . S
O571 Sc557 2.105 . S
O571 C565 1.268 . S
O572 Sc556 2.105 . S
O572 C564 1.268 . S
O573 Sc557 2.105 . S
O573 C563 1.268 . S
O574 Sc558 2.105 . S
O574 C565 1.268 . S
O575 Sc556 2.105 . S
O575 C561 1.268 . S
O576 Sc558 2.105 . S
O576 C560 1.268 . S
O577 Sc557 2.105 . S
O577 C562 1.268 . S
Sc578 O581 2.025 . S
Sc578 O588 2.105 . S
Sc578 O591 2.105 . S
Sc578 O594 2.105 . S
Sc578 O597 2.105 . S
Sc579 O581 2.025 . S
Sc579 O589 2.105 . S
Sc579 O593 2.105 . S
Sc579 O595 2.105 . S
Sc579 O599 2.105 . S
Sc580 O581 2.025 . S
Sc580 O590 2.105 . S
Sc580 O592 2.105 . S
Sc580 O596 2.105 . S
Sc580 O598 2.105 . S
O581 Sc578 2.025 . S
O581 Sc579 2.025 . S
O581 Sc580 2.025 . S
C582 O588 1.268 . S
C582 O598 1.268 . S
C583 O589 1.268 . S
C583 O597 1.268 . S
C584 O590 1.268 . S
C584 O599 1.268 . S
C585 O591 1.268 . S
C585 O595 1.268 . S
C586 O592 1.268 . S
C586 O594 1.268 . S
C587 O593 1.268 . S
C587 O596 1.268 . S
O588 Sc578 2.105 . S
O588 C582 1.268 . S
O589 Sc579 2.105 . S
O589 C583 1.268 . S
O590 Sc580 2.105 . S
O590 C584 1.268 . S
O591 Sc578 2.105 . S
O591 C585 1.268 . S
O592 Sc580 2.105 . S
O592 C586 1.268 . S
O593 Sc579 2.105 . S
O593 C587 1.268 . S
O594 Sc578 2.105 . S
O594 C586 1.268 . S
O595 Sc579 2.105 . S
O595 C585 1.268 . S
O596 Sc580 2.105 . S
O596 C587 1.268 . S
O597 Sc578 2.105 . S
O597 C583 1.268 . S
O598 Sc580 2.105 . S
O598 C582 1.268 . S
O599 Sc579 2.105 . S
O599 C584 1.268 . S
Sc600 O603 2.025 . S
Sc600 O610 2.105 . S
Sc600 O613 2.105 . S
Sc600 O616 2.105 . S
Sc600 O619 2.105 . S
Sc601 O603 2.025 . S
Sc601 O611 2.105 . S
Sc601 O615 2.105 . S
Sc601 O617 2.105 . S
Sc601 O621 2.105 . S
Sc602 O603 2.025 . S
Sc602 O612 2.105 . S
Sc602 O614 2.105 . S
Sc602 O618 2.105 . S
Sc602 O620 2.105 . S
O603 Sc600 2.025 . S
O603 Sc601 2.025 . S
O603 Sc602 2.025 . S
C604 O610 1.268 . S
C604 O620 1.268 . S
C605 O611 1.268 . S
C605 O619 1.268 . S
C606 O612 1.268 . S
C606 O621 1.268 . S
C607 O613 1.268 . S
C607 O617 1.268 . S
C608 O614 1.268 . S
C608 O616 1.268 . S
C609 O615 1.268 . S
C609 O618 1.268 . S
O610 Sc600 2.105 . S
O610 C604 1.268 . S
O611 Sc601 2.105 . S
O611 C605 1.268 . S
O612 Sc602 2.105 . S
O612 C606 1.268 . S
O613 Sc600 2.105 . S
O613 C607 1.268 . S
O614 Sc602 2.105 . S
O614 C608 1.268 . S
O615 Sc601 2.105 . S
O615 C609 1.268 . S
O616 Sc600 2.105 . S
O616 C608 1.268 . S
O617 Sc601 2.105 . S
O617 C607 1.268 . S
O618 Sc602 2.105 . S
O618 C609 1.268 . S
O619 Sc600 2.105 . S
O619 C605 1.268 . S
O620 Sc602 2.105 . S
O620 C604 1.268 . S
O621 Sc601 2.105 . S
O621 C606 1.268 . S
Sc622 O625 2.025 . S
Sc622 O632 2.105 . S
Sc622 O635 2.105 . S
Sc622 O638 2.105 . S
Sc622 O641 2.105 . S
Sc623 O625 2.025 . S
Sc623 O633 2.105 . S
Sc623 O637 2.105 . S
Sc623 O639 2.105 . S
Sc623 O643 2.105 . S
Sc624 O625 2.025 . S
Sc624 O634 2.105 . S
Sc624 O636 2.105 . S
Sc624 O640 2.105 . S
Sc624 O642 2.105 . S
O625 Sc622 2.025 . S
O625 Sc623 2.025 . S
O625 Sc624 2.025 . S
C626 O632 1.268 . S
C626 O642 1.268 . S
C627 O633 1.268 . S
C627 O641 1.268 . S
C628 O634 1.268 . S
C628 O643 1.268 . S
C629 O635 1.268 . S
C629 O639 1.268 . S
C630 O636 1.268 . S
C630 O638 1.268 . S
C631 O637 1.268 . S
C631 O640 1.268 . S
O632 Sc622 2.105 . S
O632 C626 1.268 . S
O633 Sc623 2.105 . S
O633 C627 1.268 . S
O634 Sc624 2.105 . S
O634 C628 1.268 . S
O635 Sc622 2.105 . S
O635 C629 1.268 . S
O636 Sc624 2.105 . S
O636 C630 1.268 . S
O637 Sc623 2.105 . S
O637 C631 1.268 . S
O638 Sc622 2.105 . S
O638 C630 1.268 . S
O639 Sc623 2.105 . S
O639 C629 1.268 . S
O640 Sc624 2.105 . S
O640 C631 1.268 . S
O641 Sc622 2.105 . S
O641 C627 1.268 . S
O642 Sc624 2.105 . S
O642 C626 1.268 . S
O643 Sc623 2.105 . S
O643 C628 1.268 . S
Sc644 O647 2.025 . S
Sc644 O654 2.105 . S
Sc644 O657 2.105 . S
Sc644 O660 2.105 . S
Sc644 O663 2.105 . S
Sc645 O647 2.025 . S
Sc645 O655 2.105 . S
Sc645 O659 2.105 . S
Sc645 O661 2.105 . S
Sc645 O665 2.105 . S
Sc646 O647 2.025 . S
Sc646 O656 2.105 . S
Sc646 O658 2.105 . S
Sc646 O662 2.105 . S
Sc646 O664 2.105 . S
O647 Sc644 2.025 . S
O647 Sc645 2.025 . S
O647 Sc646 2.025 . S
C648 O654 1.268 . S
C648 O664 1.268 . S
C649 O655 1.268 . S
C649 O663 1.268 . S
C650 O656 1.268 . S
C650 O665 1.268 . S
C651 O657 1.268 . S
C651 O661 1.268 . S
C652 O658 1.268 . S
C652 O660 1.268 . S
C653 O659 1.268 . S
C653 O662 1.268 . S
O654 Sc644 2.105 . S
O654 C648 1.268 . S
O655 Sc645 2.105 . S
O655 C649 1.268 . S
O656 Sc646 2.105 . S
O656 C650 1.268 . S
O657 Sc644 2.105 . S
O657 C651 1.268 . S
O658 Sc646 2.105 . S
O658 C652 1.268 . S
O659 Sc645 2.105 . S
O659 C653 1.268 . S
O660 Sc644 2.105 . S
O660 C652 1.268 . S
O661 Sc645 2.105 . S
O661 C651 1.268 . S
O662 Sc646 2.105 . S
O662 C653 1.268 . S
O663 Sc644 2.105 . S
O663 C649 1.268 . S
O664 Sc646 2.105 . S
O664 C648 1.268 . S
O665 Sc645 2.105 . S
O665 C650 1.268 . S
Sc666 O669 2.025 . S
Sc666 O676 2.105 . S
Sc666 O679 2.105 . S
Sc666 O682 2.105 . S
Sc666 O685 2.105 . S
Sc667 O669 2.025 . S
Sc667 O677 2.105 . S
Sc667 O681 2.105 . S
Sc667 O683 2.105 . S
Sc667 O687 2.105 . S
Sc668 O669 2.025 . S
Sc668 O678 2.105 . S
Sc668 O680 2.105 . S
Sc668 O684 2.105 . S
Sc668 O686 2.105 . S
O669 Sc666 2.025 . S
O669 Sc667 2.025 . S
O669 Sc668 2.025 . S
C670 O676 1.268 . S
C670 O686 1.268 . S
C671 O677 1.268 . S
C671 O685 1.268 . S
C672 O678 1.268 . S
C672 O687 1.268 . S
C673 O679 1.268 . S
C673 O683 1.268 . S
C674 O680 1.268 . S
C674 O682 1.268 . S
C675 O681 1.268 . S
C675 O684 1.268 . S
O676 Sc666 2.105 . S
O676 C670 1.268 . S
O677 Sc667 2.105 . S
O677 C671 1.268 . S
O678 Sc668 2.105 . S
O678 C672 1.268 . S
O679 Sc666 2.105 . S
O679 C673 1.268 . S
O680 Sc668 2.105 . S
O680 C674 1.268 . S
O681 Sc667 2.105 . S
O681 C675 1.268 . S
O682 Sc666 2.105 . S
O682 C674 1.268 . S
O683 Sc667 2.105 . S
O683 C673 1.268 . S
O684 Sc668 2.105 . S
O684 C675 1.268 . S
O685 Sc666 2.105 . S
O685 C671 1.268 . S
O686 Sc668 2.105 . S
O686 C670 1.268 . S
O687 Sc667 2.105 . S
O687 C672 1.268 . S
H688 C694 0.930 . S
H689 C697 0.930 . S
H690 C698 0.930 . S
H691 C699 0.930 . S
H692 C702 0.930 . S
H693 C703 0.930 . S
C694 H688 0.930 . S
C694 C695 1.355 . S
C694 C696 1.415 . S
C695 C694 1.355 . S
C695 C697 1.419 . S
C696 C694 1.415 . S
C696 C701 1.425 . S
C696 C703 1.409 . S
C697 H689 0.930 . S
C697 C695 1.419 . S
C697 C698 1.362 . S
C698 H690 0.930 . S
C698 C697 1.362 . S
C698 C701 1.409 . S
C699 H691 0.930 . S
C699 C700 1.355 . S
C699 C701 1.415 . S
C700 C699 1.355 . S
C700 C702 1.419 . S
C701 C696 1.425 . S
C701 C698 1.409 . S
C701 C699 1.415 . S
C702 H692 0.930 . S
C702 C700 1.419 . S
C702 C703 1.362 . S
C703 H693 0.930 . S
C703 C696 1.409 . S
C703 C702 1.362 . S
H704 C710 0.930 . S
H705 C713 0.930 . S
H706 C714 0.930 . S
H707 C715 0.930 . S
H708 C718 0.930 . S
H709 C719 0.930 . S
C710 H704 0.930 . S
C710 C711 1.355 . S
C710 C712 1.415 . S
C711 C710 1.355 . S
C711 C713 1.419 . S
C712 C710 1.415 . S
C712 C717 1.425 . S
C712 C719 1.409 . S
C713 H705 0.930 . S
C713 C711 1.419 . S
C713 C714 1.362 . S
C714 H706 0.930 . S
C714 C713 1.362 . S
C714 C717 1.409 . S
C715 H707 0.930 . S
C715 C716 1.355 . S
C715 C717 1.415 . S
C716 C715 1.355 . S
C716 C718 1.419 . S
C717 C712 1.425 . S
C717 C714 1.409 . S
C717 C715 1.415 . S
C718 H708 0.930 . S
C718 C716 1.419 . S
C718 C719 1.362 . S
C719 H709 0.930 . S
C719 C712 1.409 . S
C719 C718 1.362 . S
H720 C726 0.930 . S
H721 C729 0.930 . S
H722 C730 0.930 . S
H723 C731 0.930 . S
H724 C734 0.930 . S
H725 C735 0.930 . S
C726 H720 0.930 . S
C726 C727 1.355 . S
C726 C728 1.415 . S
C727 C726 1.355 . S
C727 C729 1.419 . S
C728 C726 1.415 . S
C728 C733 1.425 . S
C728 C735 1.409 . S
C729 H721 0.930 . S
C729 C727 1.419 . S
C729 C730 1.362 . S
C730 H722 0.930 . S
C730 C729 1.362 . S
C730 C733 1.409 . S
C731 H723 0.930 . S
C731 C732 1.355 . S
C731 C733 1.415 . S
C732 C731 1.355 . S
C732 C734 1.419 . S
C733 C728 1.425 . S
C733 C730 1.409 . S
C733 C731 1.415 . S
C734 H724 0.930 . S
C734 C732 1.419 . S
C734 C735 1.362 . S
C735 H725 0.930 . S
C735 C728 1.409 . S
C735 C734 1.362 . S
H736 C742 0.930 . S
H737 C745 0.930 . S
H738 C746 0.930 . S
H739 C747 0.930 . S
H740 C750 0.930 . S
H741 C751 0.930 . S
C742 H736 0.930 . S
C742 C743 1.355 . S
C742 C744 1.415 . S
C743 C742 1.355 . S
C743 C745 1.419 . S
C744 C742 1.415 . S
C744 C749 1.425 . S
C744 C751 1.409 . S
C745 H737 0.930 . S
C745 C743 1.419 . S
C745 C746 1.362 . S
C746 H738 0.930 . S
C746 C745 1.362 . S
C746 C749 1.409 . S
C747 H739 0.930 . S
C747 C748 1.355 . S
C747 C749 1.415 1_556 S
C748 C747 1.355 . S
C748 C750 1.419 . S
C749 C744 1.425 . S
C749 C746 1.409 . S
C749 C747 1.415 1_554 S
C750 H740 0.930 . S
C750 C748 1.419 . S
C750 C751 1.362 1_556 S
C751 H741 0.930 . S
C751 C744 1.409 . S
C751 C750 1.362 1_554 S
H752 C758 0.930 . S
H753 C761 0.930 1_655 S
H754 C762 0.930 . S
H755 C763 0.930 . S
H756 C766 0.930 . S
H757 C767 0.930 . S
C758 H752 0.930 . S
C758 C759 1.355 . S
C758 C760 1.415 . S
C759 C758 1.355 . S
C759 C761 1.419 . S
C760 C758 1.415 . S
C760 C765 1.425 . S
C760 C767 1.409 . S
C761 H753 0.930 1_455 S
C761 C759 1.419 . S
C761 C762 1.362 . S
C762 H754 0.930 . S
C762 C761 1.362 . S
C762 C765 1.409 . S
C763 H755 0.930 . S
C763 C764 1.355 . S
C763 C765 1.415 . S
C764 C763 1.355 . S
C764 C766 1.419 . S
C765 C760 1.425 . S
C765 C762 1.409 . S
C765 C763 1.415 . S
C766 H756 0.930 . S
C766 C764 1.419 . S
C766 C767 1.362 . S
C767 H757 0.930 . S
C767 C760 1.409 . S
C767 C766 1.362 . S
H768 C774 0.930 . S
H769 C777 0.930 . S
H770 C778 0.930 . S
H771 C779 0.930 . S
H772 C782 0.930 . S
H773 C783 0.930 . S
C774 H768 0.930 . S
C774 C775 1.355 . S
C774 C776 1.415 . S
C775 C774 1.355 . S
C775 C777 1.419 . S
C776 C774 1.415 . S
C776 C781 1.425 . S
C776 C783 1.409 . S
C777 H769 0.930 . S
C777 C775 1.419 . S
C777 C778 1.362 . S
C778 H770 0.930 . S
C778 C777 1.362 . S
C778 C781 1.409 . S
C779 H771 0.930 . S
C779 C780 1.355 . S
C779 C781 1.415 . S
C780 C779 1.355 . S
C780 C782 1.419 . S
C781 C776 1.425 . S
C781 C778 1.409 . S
C781 C779 1.415 . S
C782 H772 0.930 . S
C782 C780 1.419 . S
C782 C783 1.362 . S
C783 H773 0.930 . S
C783 C776 1.409 . S
C783 C782 1.362 . S
H784 C790 0.930 . S
H785 C793 0.930 . S
H786 C794 0.930 . S
H787 C795 0.930 . S
H788 C798 0.930 . S
H789 C799 0.930 . S
C790 H784 0.930 . S
C790 C791 1.355 . S
C790 C792 1.415 . S
C791 C790 1.355 . S
C791 C793 1.419 . S
C792 C790 1.415 . S
C792 C797 1.425 . S
C792 C799 1.409 . S
C793 H785 0.930 . S
C793 C791 1.419 . S
C793 C794 1.362 . S
C794 H786 0.930 . S
C794 C793 1.362 . S
C794 C797 1.409 . S
C795 H787 0.930 . S
C795 C796 1.355 . S
C795 C797 1.415 . S
C796 C795 1.355 . S
C796 C798 1.419 . S
C797 C792 1.425 . S
C797 C794 1.409 . S
C797 C795 1.415 . S
C798 H788 0.930 . S
C798 C796 1.419 . S
C798 C799 1.362 . S
C799 H789 0.930 . S
C799 C792 1.409 . S
C799 C798 1.362 . S
H800 C806 0.930 . S
H801 C809 0.930 . S
H802 C810 0.930 . S
H803 C811 0.930 1_556 S
H804 C814 0.930 . S
H805 C815 0.930 . S
C806 H800 0.930 . S
C806 C807 1.355 . S
C806 C808 1.415 . S
C807 C806 1.355 . S
C807 C809 1.419 . S
C808 C806 1.415 . S
C808 C813 1.425 . S
C808 C815 1.409 1_556 S
C809 H801 0.930 . S
C809 C807 1.419 . S
C809 C810 1.362 . S
C810 H802 0.930 . S
C810 C809 1.362 . S
C810 C813 1.409 . S
C811 H803 0.930 1_554 S
C811 C812 1.355 . S
C811 C813 1.415 1_554 S
C812 C811 1.355 . S
C812 C814 1.419 . S
C813 C808 1.425 . S
C813 C810 1.409 . S
C813 C811 1.415 1_556 S
C814 H804 0.930 . S
C814 C812 1.419 . S
C814 C815 1.362 . S
C815 H805 0.930 . S
C815 C808 1.409 1_554 S
C815 C814 1.362 . S
H816 C822 0.930 . S
H817 C825 0.911 1_565 S
H818 C826 0.930 . S
H819 C827 0.930 . S
H820 C830 0.930 . S
H821 C831 0.930 . S
C822 H816 0.930 . S
C822 C823 1.355 . S
C822 C824 1.415 . S
C823 C822 1.355 . S
C823 C825 1.419 . S
C824 C822 1.415 . S
C824 C829 1.425 . S
C824 C831 1.409 . S
C825 H817 0.911 1_545 S
C825 C823 1.419 . S
C825 C826 1.362 . S
C826 H818 0.930 . S
C826 C825 1.362 . S
C826 C829 1.409 . S
C827 H819 0.930 . S
C827 C828 1.355 . S
C827 C829 1.415 . S
C828 C827 1.355 . S
C828 C830 1.419 . S
C829 C824 1.425 . S
C829 C826 1.409 . S
C829 C827 1.415 . S
C830 H820 0.930 . S
C830 C828 1.419 . S
C830 C831 1.362 . S
C831 H821 0.930 . S
C831 C824 1.409 . S
C831 C830 1.362 . S
H832 C838 0.930 . S
H833 C841 0.930 . S
H834 C842 0.930 . S
H835 C843 0.930 . S
H836 C846 0.930 . S
H837 C847 0.930 . S
C838 H832 0.930 . S
C838 C839 1.355 . S
C838 C840 1.415 . S
C839 C838 1.355 . S
C839 C841 1.419 . S
C840 C838 1.415 . S
C840 C845 1.425 . S
C840 C847 1.409 1_545 S
C841 H833 0.930 . S
C841 C839 1.419 . S
C841 C842 1.362 . S
C842 H834 0.930 . S
C842 C841 1.362 . S
C842 C845 1.409 . S
C843 H835 0.930 . S
C843 C844 1.355 . S
C843 C845 1.415 1_565 S
C844 C843 1.355 . S
C844 C846 1.419 . S
C845 C840 1.425 . S
C845 C842 1.409 . S
C845 C843 1.415 1_545 S
C846 H836 0.930 . S
C846 C844 1.419 . S
C846 C847 1.362 . S
C847 H837 0.930 . S
C847 C840 1.409 1_565 S
C847 C846 1.362 . S
H848 C854 0.930 . S
H849 C857 0.930 . S
H850 C858 0.930 . S
H851 C859 0.930 . S
H852 C862 0.930 . S
H853 C863 0.930 . S
C854 H848 0.930 . S
C854 C855 1.355 . S
C854 C856 1.415 . S
C855 C854 1.355 . S
C855 C857 1.419 . S
C856 C854 1.415 . S
C856 C861 1.425 . S
C856 C863 1.409 . S
C857 H849 0.930 . S
C857 C855 1.419 . S
C857 C858 1.362 . S
C858 H850 0.930 . S
C858 C857 1.362 . S
C858 C861 1.409 . S
C859 H851 0.930 . S
C859 C860 1.355 . S
C859 C861 1.415 . S
C860 C859 1.355 . S
C860 C862 1.419 . S
C861 C856 1.425 . S
C861 C858 1.409 . S
C861 C859 1.415 . S
C862 H852 0.930 . S
C862 C860 1.419 . S
C862 C863 1.362 . S
C863 H853 0.930 . S
C863 C856 1.409 . S
C863 C862 1.362 . S
H864 C870 0.930 . S
H865 C873 0.930 . S
H866 C874 0.930 1_545 S
H867 C875 0.930 . S
H868 C878 0.930 . S
H869 C879 0.930 . S
C870 H864 0.930 . S
C870 C871 1.355 . S
C870 C872 1.415 . S
C871 C870 1.355 . S
C871 C873 1.419 . S
C872 C870 1.415 . S
C872 C877 1.425 . S
C872 C879 1.409 . S
C873 H865 0.930 . S
C873 C871 1.419 . S
C873 C874 1.362 . S
C874 H866 0.930 1_565 S
C874 C873 1.362 . S
C874 C877 1.409 . S
C875 H867 0.930 . S
C875 C876 1.355 . S
C875 C877 1.415 1_545 S
C876 C875 1.355 . S
C876 C878 1.419 . S
C877 C872 1.425 . S
C877 C874 1.409 . S
C877 C875 1.415 1_565 S
C878 H868 0.930 . S
C878 C876 1.419 . S
C878 C879 1.362 1_545 S
C879 H869 0.930 . S
C879 C872 1.409 . S
C879 C878 1.362 1_565 S
H880 C886 0.930 . S
H881 C889 0.930 . S
H882 C890 0.930 . S
H883 C891 0.930 . S
H884 C894 0.930 . S
H885 C895 0.930 . S
C886 H880 0.930 . S
C886 C887 1.355 . S
C886 C888 1.415 . S
C887 C886 1.355 . S
C887 C889 1.419 . S
C888 C886 1.415 . S
C888 C893 1.425 . S
C888 C895 1.409 . S
C889 H881 0.930 . S
C889 C887 1.419 . S
C889 C890 1.362 . S
C890 H882 0.930 . S
C890 C889 1.362 . S
C890 C893 1.409 . S
C891 H883 0.930 . S
C891 C892 1.355 . S
C891 C893 1.415 . S
C892 C891 1.355 . S
C892 C894 1.419 . S
C893 C888 1.425 . S
C893 C890 1.409 . S
C893 C891 1.415 . S
C894 H884 0.930 . S
C894 C892 1.419 . S
C894 C895 1.362 . S
C895 H885 0.930 . S
C895 C888 1.409 . S
C895 C894 1.362 . S
H896 C902 0.930 . S
H897 C905 0.930 . S
H898 C906 0.930 1_565 S
H899 C907 0.930 . S
H900 C910 0.932 . S
H901 C911 0.930 . S
C902 H896 0.930 . S
C902 C903 1.355 . S
C902 C904 1.415 . S
C903 C902 1.355 . S
C903 C905 1.419 . S
C904 C902 1.415 . S
C904 C909 1.425 . S
C904 C911 1.409 . S
C905 H897 0.930 . S
C905 C903 1.419 . S
C905 C906 1.362 . S
C906 H898 0.930 1_545 S
C906 C905 1.362 . S
C906 C909 1.409 . S
C907 H899 0.930 . S
C907 C908 1.355 . S
C907 C909 1.415 1_565 S
C908 C907 1.355 . S
C908 C910 1.440 . S
C909 C904 1.425 . S
C909 C906 1.409 . S
C909 C907 1.415 1_545 S
C910 H900 0.932 . S
C910 C908 1.440 . S
C910 C911 1.339 1_565 S
C911 H901 0.930 . S
C911 C904 1.409 . S
C911 C910 1.339 1_545 S
H912 C918 0.930 . S
H913 C921 0.930 . S
H914 C922 0.930 . S
H915 C923 0.930 . S
H916 C926 0.930 . S
H917 C927 0.930 . S
C918 H912 0.930 . S
C918 C919 1.355 . S
C918 C920 1.415 . S
C919 C918 1.355 . S
C919 C921 1.419 . S
C920 C918 1.415 . S
C920 C925 1.425 . S
C920 C927 1.409 . S
C921 H913 0.930 . S
C921 C919 1.419 . S
C921 C922 1.362 . S
C922 H914 0.930 . S
C922 C921 1.362 . S
C922 C925 1.409 . S
C923 H915 0.930 . S
C923 C924 1.355 . S
C923 C925 1.415 . S
C924 C923 1.355 . S
C924 C926 1.419 . S
C925 C920 1.425 . S
C925 C922 1.409 . S
C925 C923 1.415 . S
C926 H916 0.930 . S
C926 C924 1.419 . S
C926 C927 1.362 . S
C927 H917 0.930 . S
C927 C920 1.409 . S
C927 C926 1.362 . S
H928 C934 0.930 . S
H929 C937 0.930 . S
H930 C938 0.930 . S
H931 C939 0.930 . S
H932 C942 0.930 . S
H933 C943 0.930 . S
C934 H928 0.930 . S
C934 C935 1.355 . S
C934 C936 1.415 . S
C935 C934 1.355 . S
C935 C937 1.419 . S
C936 C934 1.415 . S
C936 C941 1.425 . S
C936 C943 1.409 1_565 S
C937 H929 0.930 . S
C937 C935 1.419 . S
C937 C938 1.362 . S
C938 H930 0.930 . S
C938 C937 1.362 . S
C938 C941 1.409 . S
C939 H931 0.930 . S
C939 C940 1.355 . S
C939 C941 1.415 1_545 S
C940 C939 1.355 . S
C940 C942 1.419 . S
C941 C936 1.425 . S
C941 C938 1.409 . S
C941 C939 1.415 1_565 S
C942 H932 0.930 . S
C942 C940 1.419 . S
C942 C943 1.362 . S
C943 H933 0.930 . S
C943 C936 1.409 1_545 S
C943 C942 1.362 . S
H944 C950 0.930 . S
H945 C953 0.930 . S
H946 C954 0.930 . S
H947 C955 0.930 . S
H948 C958 0.930 . S
H949 C959 0.930 . S
C950 H944 0.930 . S
C950 C951 1.355 . S
C950 C952 1.415 . S
C951 C950 1.355 . S
C951 C953 1.419 . S
C952 C950 1.415 . S
C952 C957 1.425 . S
C952 C959 1.409 . S
C953 H945 0.930 . S
C953 C951 1.419 . S
C953 C954 1.362 . S
C954 H946 0.930 . S
C954 C953 1.362 . S
C954 C957 1.409 . S
C955 H947 0.930 . S
C955 C956 1.355 . S
C955 C957 1.415 . S
C956 C955 1.355 . S
C956 C958 1.419 . S
C957 C952 1.425 . S
C957 C954 1.409 . S
C957 C955 1.415 . S
C958 H948 0.930 . S
C958 C956 1.419 . S
C958 C959 1.362 . S
C959 H949 0.930 . S
C959 C952 1.409 . S
C959 C958 1.362 . S
H960 C966 0.930 . S
H961 C969 0.930 . S
H962 C970 0.930 . S
H963 C971 0.930 . S
H964 C974 0.930 . S
H965 C975 0.930 . S
C966 H960 0.930 . S
C966 C967 1.355 . S
C966 C968 1.415 . S
C967 C966 1.355 . S
C967 C969 1.419 . S
C968 C966 1.415 . S
C968 C973 1.425 . S
C968 C975 1.409 . S
C969 H961 0.930 . S
C969 C967 1.419 . S
C969 C970 1.362 . S
C970 H962 0.930 . S
C970 C969 1.362 . S
C970 C973 1.409 . S
C971 H963 0.930 . S
C971 C972 1.355 . S
C971 C973 1.415 . S
C972 C971 1.355 . S
C972 C974 1.419 . S
C973 C968 1.425 . S
C973 C970 1.409 . S
C973 C971 1.415 . S
C974 H964 0.930 . S
C974 C972 1.419 . S
C974 C975 1.362 . S
C975 H965 0.930 . S
C975 C968 1.409 . S
C975 C974 1.362 . S
H976 C982 0.930 . S
H977 C985 0.930 . S
H978 C986 0.930 . S
H979 C987 0.933 . S
H980 C990 0.930 . S
H981 C991 0.930 . S
C982 H976 0.930 . S
C982 C983 1.355 . S
C982 C984 1.415 . S
C983 C982 1.355 . S
C983 C985 1.419 . S
C984 C982 1.415 . S
C984 C989 1.425 . S
C984 C991 1.409 1_455 S
C985 H977 0.930 . S
C985 C983 1.419 . S
C985 C986 1.362 . S
C986 H978 0.930 . S
C986 C985 1.362 . S
C986 C989 1.409 . S
C987 H979 0.933 . S
C987 C988 1.355 . S
C987 C989 1.415 1_655 S
C988 C987 1.355 . S
C988 C990 1.419 . S
C989 C984 1.425 . S
C989 C986 1.409 . S
C989 C987 1.415 1_455 S
C990 H980 0.930 . S
C990 C988 1.419 . S
C990 C991 1.362 . S
C991 H981 0.930 . S
C991 C984 1.409 1_655 S
C991 C990 1.362 . S
H992 C998 0.930 . S
H993 C1001 0.930 . S
H994 C1002 0.930 . S
H995 C1003 0.930 . S
H996 C1006 0.930 . S
H997 C1007 0.930 . S
C998 H992 0.930 . S
C998 C999 1.355 . S
C998 C1000 1.415 . S
C999 C998 1.355 . S
C999 C1001 1.419 . S
C1000 C998 1.415 . S
C1000 C1005 1.425 . S
C1000 C1007 1.409 . S
C1001 H993 0.930 . S
C1001 C999 1.419 . S
C1001 C1002 1.362 . S
C1002 H994 0.930 . S
C1002 C1001 1.362 . S
C1002 C1005 1.409 . S
C1003 H995 0.930 . S
C1003 C1004 1.355 . S
C1003 C1005 1.415 . S
C1004 C1003 1.355 . S
C1004 C1006 1.419 . S
C1005 C1000 1.425 . S
C1005 C1002 1.409 . S
C1005 C1003 1.415 . S
C1006 H996 0.930 . S
C1006 C1004 1.419 . S
C1006 C1007 1.362 . S
C1007 H997 0.930 . S
C1007 C1000 1.409 . S
C1007 C1006 1.362 . S
H1008 C1014 0.930 . S
H1009 C1017 0.930 . S
H1010 C1018 0.930 1_455 S
H1011 C1019 0.930 . S
H1012 C1022 0.930 . S
H1013 C1023 0.930 . S
C1014 H1008 0.930 . S
C1014 C1015 1.355 . S
C1014 C1016 1.415 . S
C1015 C1014 1.355 . S
C1015 C1017 1.419 . S
C1016 C1014 1.415 . S
C1016 C1021 1.425 . S
C1016 C1023 1.409 . S
C1017 H1009 0.930 . S
C1017 C1015 1.419 . S
C1017 C1018 1.362 . S
C1018 H1010 0.930 1_655 S
C1018 C1017 1.362 . S
C1018 C1021 1.409 . S
C1019 H1011 0.930 . S
C1019 C1020 1.355 . S
C1019 C1021 1.415 1_455 S
C1020 C1019 1.355 . S
C1020 C1022 1.419 . S
C1021 C1016 1.425 . S
C1021 C1018 1.409 . S
C1021 C1019 1.415 1_655 S
C1022 H1012 0.930 . S
C1022 C1020 1.419 . S
C1022 C1023 1.362 1_455 S
C1023 H1013 0.930 . S
C1023 C1016 1.409 . S
C1023 C1022 1.362 1_655 S
H1024 C1030 0.930 . S
H1025 C1033 0.930 . S
H1026 C1034 0.930 . S
H1027 C1035 0.930 . S
H1028 C1038 0.930 . S
H1029 C1039 0.930 . S
C1030 H1024 0.930 . S
C1030 C1031 1.355 . S
C1030 C1032 1.415 . S
C1031 C1030 1.355 . S
C1031 C1033 1.419 . S
C1032 C1030 1.415 . S
C1032 C1037 1.425 . S
C1032 C1039 1.409 . S
C1033 H1025 0.930 . S
C1033 C1031 1.419 . S
C1033 C1034 1.362 . S
C1034 H1026 0.930 . S
C1034 C1033 1.362 . S
C1034 C1037 1.409 . S
C1035 H1027 0.930 . S
C1035 C1036 1.355 . S
C1035 C1037 1.415 . S
C1036 C1035 1.355 . S
C1036 C1038 1.419 . S
C1037 C1032 1.425 . S
C1037 C1034 1.409 . S
C1037 C1035 1.415 . S
C1038 H1028 0.930 . S
C1038 C1036 1.419 . S
C1038 C1039 1.362 . S
C1039 H1029 0.930 . S
C1039 C1032 1.409 . S
C1039 C1038 1.362 . S
H1040 C1046 0.930 . S
H1041 C1049 0.930 . S
H1042 C1050 0.930 . S
H1043 C1051 0.930 . S
H1044 C1054 0.930 . S
H1045 C1055 0.930 1_455 S
C1046 H1040 0.930 . S
C1046 C1047 1.355 . S
C1046 C1048 1.415 . S
C1047 C1046 1.355 . S
C1047 C1049 1.419 . S
C1048 C1046 1.415 . S
C1048 C1053 1.425 . S
C1048 C1055 1.409 1_455 S
C1049 H1041 0.930 . S
C1049 C1047 1.419 . S
C1049 C1050 1.362 . S
C1050 H1042 0.930 . S
C1050 C1049 1.362 . S
C1050 C1053 1.409 . S
C1051 H1043 0.930 . S
C1051 C1052 1.355 . S
C1051 C1053 1.415 1_655 S
C1052 C1051 1.355 . S
C1052 C1054 1.419 . S
C1053 C1048 1.425 . S
C1053 C1050 1.409 . S
C1053 C1051 1.415 1_455 S
C1054 H1044 0.930 . S
C1054 C1052 1.419 . S
C1054 C1055 1.362 . S
C1055 H1045 0.930 1_655 S
C1055 C1048 1.409 1_655 S
C1055 C1054 1.362 . S
H1056 C1062 0.930 . S
H1057 C1065 0.930 . S
H1058 C1066 0.930 . S
H1059 C1067 0.930 . S
H1060 C1070 0.930 . S
H1061 C1071 0.930 . S
C1062 H1056 0.930 . S
C1062 C1063 1.355 . S
C1062 C1064 1.415 . S
C1063 C1062 1.355 . S
C1063 C1065 1.419 . S
C1064 C1062 1.415 . S
C1064 C1069 1.425 . S
C1064 C1071 1.409 . S
C1065 H1057 0.930 . S
C1065 C1063 1.419 . S
C1065 C1066 1.362 . S
C1066 H1058 0.930 . S
C1066 C1065 1.362 . S
C1066 C1069 1.409 . S
C1067 H1059 0.930 . S
C1067 C1068 1.355 . S
C1067 C1069 1.415 . S
C1068 C1067 1.355 . S
C1068 C1070 1.419 . S
C1069 C1064 1.425 . S
C1069 C1066 1.409 . S
C1069 C1067 1.415 . S
C1070 H1060 0.930 . S
C1070 C1068 1.419 . S
C1070 C1071 1.362 . S
C1071 H1061 0.930 . S
C1071 C1064 1.409 . S
C1071 C1070 1.362 . S
H1072 C1078 0.930 . S
H1073 C1081 0.930 . S
H1074 C1082 0.930 . S
H1075 C1083 0.930 . S
H1076 C1086 0.930 . S
H1077 C1087 0.930 . S
C1078 H1072 0.930 . S
C1078 C1079 1.355 . S
C1078 C1080 1.415 . S
C1079 C1078 1.355 . S
C1079 C1081 1.419 . S
C1080 C1078 1.415 . S
C1080 C1085 1.425 . S
C1080 C1087 1.409 . S
C1081 H1073 0.930 . S
C1081 C1079 1.419 . S
C1081 C1082 1.362 . S
C1082 H1074 0.930 . S
C1082 C1081 1.362 . S
C1082 C1085 1.409 . S
C1083 H1075 0.930 . S
C1083 C1084 1.355 . S
C1083 C1085 1.415 . S
C1084 C1083 1.355 . S
C1084 C1086 1.419 . S
C1085 C1080 1.425 . S
C1085 C1082 1.409 . S
C1085 C1083 1.415 . S
C1086 H1076 0.930 . S
C1086 C1084 1.419 . S
C1086 C1087 1.362 . S
C1087 H1077 0.930 . S
C1087 C1080 1.409 . S
C1087 C1086 1.362 . S
H1088 C1094 0.930 . S
H1089 C1097 0.930 . S
H1090 C1098 0.930 . S
H1091 C1099 0.930 . S
H1092 C1102 0.930 . S
H1093 C1103 0.930 . S
C1094 H1088 0.930 . S
C1094 C1095 1.355 . S
C1094 C1096 1.415 . S
C1095 C1094 1.355 . S
C1095 C1097 1.419 . S
C1096 C1094 1.415 . S
C1096 C1101 1.425 . S
C1096 C1103 1.409 . S
C1097 H1089 0.930 . S
C1097 C1095 1.419 . S
C1097 C1098 1.362 . S
C1098 H1090 0.930 . S
C1098 C1097 1.362 . S
C1098 C1101 1.409 . S
C1099 H1091 0.930 . S
C1099 C1100 1.355 . S
C1099 C1101 1.415 . S
C1100 C1099 1.355 . S
C1100 C1102 1.419 . S
C1101 C1096 1.425 . S
C1101 C1098 1.409 . S
C1101 C1099 1.415 . S
C1102 H1092 0.930 . S
C1102 C1100 1.419 . S
C1102 C1103 1.362 . S
C1103 H1093 0.930 . S
C1103 C1096 1.409 . S
C1103 C1102 1.362 . S
H1104 C1110 0.930 . S
H1105 C1113 0.930 . S
H1106 C1114 0.930 . S
H1107 C1115 0.930 . S
H1108 C1118 0.930 . S
H1109 C1119 0.930 . S
C1110 H1104 0.930 . S
C1110 C1111 1.355 . S
C1110 C1112 1.415 . S
C1111 C1110 1.355 . S
C1111 C1113 1.419 . S
C1112 C1110 1.415 . S
C1112 C1117 1.425 . S
C1112 C1119 1.409 . S
C1113 H1105 0.930 . S
C1113 C1111 1.419 . S
C1113 C1114 1.362 . S
C1114 H1106 0.930 . S
C1114 C1113 1.362 . S
C1114 C1117 1.409 . S
C1115 H1107 0.930 . S
C1115 C1116 1.355 . S
C1115 C1117 1.415 . S
C1116 C1115 1.355 . S
C1116 C1118 1.419 . S
C1117 C1112 1.425 . S
C1117 C1114 1.409 . S
C1117 C1115 1.415 . S
C1118 H1108 0.930 . S
C1118 C1116 1.419 . S
C1118 C1119 1.362 . S
C1119 H1109 0.930 . S
C1119 C1112 1.409 . S
C1119 C1118 1.362 . S
H1120 C1126 0.930 . S
H1121 C1129 0.930 . S
H1122 C1130 0.930 1_554 S
H1123 C1131 0.930 . S
H1124 C1134 0.930 . S
H1125 C1135 0.930 . S
C1126 H1120 0.930 . S
C1126 C1127 1.355 . S
C1126 C1128 1.415 . S
C1127 C1126 1.355 . S
C1127 C1129 1.419 . S
C1128 C1126 1.415 . S
C1128 C1133 1.425 . S
C1128 C1135 1.409 . S
C1129 H1121 0.930 . S
C1129 C1127 1.419 . S
C1129 C1130 1.362 . S
C1130 H1122 0.930 1_556 S
C1130 C1129 1.362 . S
C1130 C1133 1.409 . S
C1131 H1123 0.930 . S
C1131 C1132 1.355 . S
C1131 C1133 1.415 1_554 S
C1132 C1131 1.355 . S
C1132 C1134 1.419 . S
C1133 C1128 1.425 . S
C1133 C1130 1.409 . S
C1133 C1131 1.415 1_556 S
C1134 H1124 0.930 . S
C1134 C1132 1.419 . S
C1134 C1135 1.362 1_554 S
C1135 H1125 0.930 . S
C1135 C1128 1.409 . S
C1135 C1134 1.362 1_556 S
H1136 C1142 0.930 . S
H1137 C1145 0.930 . S
H1138 C1146 0.930 . S
H1139 C1147 0.930 . S
H1140 C1150 0.930 . S
H1141 C1151 0.930 . S
C1142 H1136 0.930 . S
C1142 C1143 1.355 . S
C1142 C1144 1.415 . S
C1143 C1142 1.355 . S
C1143 C1145 1.419 . S
C1144 C1142 1.415 . S
C1144 C1149 1.425 . S
C1144 C1151 1.409 . S
C1145 H1137 0.930 . S
C1145 C1143 1.419 . S
C1145 C1146 1.362 . S
C1146 H1138 0.930 . S
C1146 C1145 1.362 . S
C1146 C1149 1.409 . S
C1147 H1139 0.930 . S
C1147 C1148 1.355 . S
C1147 C1149 1.415 . S
C1148 C1147 1.355 . S
C1148 C1150 1.419 . S
C1149 C1144 1.425 . S
C1149 C1146 1.409 . S
C1149 C1147 1.415 . S
C1150 H1140 0.930 . S
C1150 C1148 1.419 . S
C1150 C1151 1.362 . S
C1151 H1141 0.930 . S
C1151 C1144 1.409 . S
C1151 C1150 1.362 . S
H1152 C1158 0.930 . S
H1153 C1161 0.930 . S
H1154 C1162 0.930 . S
H1155 C1163 0.930 . S
H1156 C1166 0.930 . S
H1157 C1167 0.930 . S
C1158 H1152 0.930 . S
C1158 C1159 1.355 . S
C1158 C1160 1.415 . S
C1159 C1158 1.355 . S
C1159 C1161 1.419 . S
C1160 C1158 1.415 . S
C1160 C1165 1.425 . S
C1160 C1167 1.409 . S
C1161 H1153 0.930 . S
C1161 C1159 1.419 . S
C1161 C1162 1.362 . S
C1162 H1154 0.930 . S
C1162 C1161 1.362 . S
C1162 C1165 1.409 . S
C1163 H1155 0.930 . S
C1163 C1164 1.355 . S
C1163 C1165 1.415 . S
C1164 C1163 1.355 . S
C1164 C1166 1.419 . S
C1165 C1160 1.425 . S
C1165 C1162 1.409 . S
C1165 C1163 1.415 . S
C1166 H1156 0.930 . S
C1166 C1164 1.419 . S
C1166 C1167 1.362 . S
C1167 H1157 0.930 . S
C1167 C1160 1.409 . S
C1167 C1166 1.362 . S
H1168 C1174 0.930 . S
H1169 C1177 0.930 . S
H1170 C1178 0.930 . S
H1171 C1179 0.930 . S
H1172 C1182 0.930 . S
H1173 C1183 0.930 . S
C1174 H1168 0.930 . S
C1174 C1175 1.355 . S
C1174 C1176 1.415 . S
C1175 C1174 1.355 . S
C1175 C1177 1.419 . S
C1176 C1174 1.415 . S
C1176 C1181 1.425 . S
C1176 C1183 1.409 . S
C1177 H1169 0.930 . S
C1177 C1175 1.419 . S
C1177 C1178 1.362 . S
C1178 H1170 0.930 . S
C1178 C1177 1.362 . S
C1178 C1181 1.409 . S
C1179 H1171 0.930 . S
C1179 C1180 1.355 . S
C1179 C1181 1.415 . S
C1180 C1179 1.355 . S
C1180 C1182 1.419 . S
C1181 C1176 1.425 . S
C1181 C1178 1.409 . S
C1181 C1179 1.415 . S
C1182 H1172 0.930 . S
C1182 C1180 1.419 . S
C1182 C1183 1.362 . S
C1183 H1173 0.930 . S
C1183 C1176 1.409 . S
C1183 C1182 1.362 . S
H1184 C1190 0.930 . S
H1185 C1193 0.930 . S
H1186 C1194 0.930 1_556 S
H1187 C1195 0.930 . S
H1188 C1198 0.930 . S
H1189 C1199 0.930 . S
C1190 H1184 0.930 . S
C1190 C1191 1.355 . S
C1190 C1192 1.415 . S
C1191 C1190 1.355 . S
C1191 C1193 1.419 . S
C1192 C1190 1.415 . S
C1192 C1197 1.425 . S
C1192 C1199 1.409 . S
C1193 H1185 0.930 . S
C1193 C1191 1.419 . S
C1193 C1194 1.362 . S
C1194 H1186 0.930 1_554 S
C1194 C1193 1.362 . S
C1194 C1197 1.409 . S
C1195 H1187 0.930 . S
C1195 C1196 1.355 . S
C1195 C1197 1.415 1_556 S
C1196 C1195 1.355 . S
C1196 C1198 1.419 . S
C1197 C1192 1.425 . S
C1197 C1194 1.409 . S
C1197 C1195 1.415 1_554 S
C1198 H1188 0.930 . S
C1198 C1196 1.419 . S
C1198 C1199 1.362 1_556 S
C1199 H1189 0.930 . S
C1199 C1192 1.409 . S
C1199 C1198 1.362 1_554 S
H1200 C1206 0.930 . S
H1201 C1209 0.930 . S
H1202 C1210 0.930 . S
H1203 C1211 0.930 . S
H1204 C1214 0.930 . S
H1205 C1215 0.930 . S
C1206 H1200 0.930 . S
C1206 C1207 1.355 . S
C1206 C1208 1.415 . S
C1207 C1206 1.355 . S
C1207 C1209 1.419 . S
C1208 C1206 1.415 . S
C1208 C1213 1.425 . S
C1208 C1215 1.409 . S
C1209 H1201 0.930 . S
C1209 C1207 1.419 . S
C1209 C1210 1.362 . S
C1210 H1202 0.930 . S
C1210 C1209 1.362 . S
C1210 C1213 1.409 . S
C1211 H1203 0.930 . S
C1211 C1212 1.355 . S
C1211 C1213 1.415 . S
C1212 C1211 1.355 . S
C1212 C1214 1.419 . S
C1213 C1208 1.425 . S
C1213 C1210 1.409 . S
C1213 C1211 1.415 . S
C1214 H1204 0.930 . S
C1214 C1212 1.419 . S
C1214 C1215 1.362 . S
C1215 H1205 0.930 . S
C1215 C1208 1.409 . S
C1215 C1214 1.362 . S
H1216 C1222 0.930 . S
H1217 C1225 0.930 . S
H1218 C1226 0.930 . S
H1219 C1227 0.930 . S
H1220 C1230 0.930 . S
H1221 C1231 0.930 . S
C1222 H1216 0.930 . S
C1222 C1223 1.355 . S
C1222 C1224 1.415 . S
C1223 C1222 1.355 . S
C1223 C1225 1.419 . S
C1224 C1222 1.415 . S
C1224 C1229 1.425 . S
C1224 C1231 1.409 . S
C1225 H1217 0.930 . S
C1225 C1223 1.419 . S
C1225 C1226 1.362 . S
C1226 H1218 0.930 . S
C1226 C1225 1.362 . S
C1226 C1229 1.409 . S
C1227 H1219 0.930 . S
C1227 C1228 1.355 . S
C1227 C1229 1.415 1_545 S
C1228 C1227 1.355 . S
C1228 C1230 1.419 . S
C1229 C1224 1.425 . S
C1229 C1226 1.409 . S
C1229 C1227 1.415 1_565 S
C1230 H1220 0.930 . S
C1230 C1228 1.419 . S
C1230 C1231 1.362 1_545 S
C1231 H1221 0.930 . S
C1231 C1224 1.409 . S
C1231 C1230 1.362 1_565 S
H1232 C1238 0.930 . S
H1233 C1241 0.930 . S
H1234 C1242 0.930 . S
H1235 C1243 0.930 . S
H1236 C1246 0.930 . S
H1237 C1247 0.930 . S
C1238 H1232 0.930 . S
C1238 C1239 1.355 . S
C1238 C1240 1.415 . S
C1239 C1238 1.355 . S
C1239 C1241 1.419 . S
C1240 C1238 1.415 . S
C1240 C1245 1.425 . S
C1240 C1247 1.409 . S
C1241 H1233 0.930 . S
C1241 C1239 1.419 . S
C1241 C1242 1.362 . S
C1242 H1234 0.930 . S
C1242 C1241 1.362 . S
C1242 C1245 1.409 . S
C1243 H1235 0.930 . S
C1243 C1244 1.355 . S
C1243 C1245 1.415 . S
C1244 C1243 1.355 . S
C1244 C1246 1.419 . S
C1245 C1240 1.425 . S
C1245 C1242 1.409 . S
C1245 C1243 1.415 . S
C1246 H1236 0.930 . S
C1246 C1244 1.419 . S
C1246 C1247 1.362 . S
C1247 H1237 0.930 . S
C1247 C1240 1.409 . S
C1247 C1246 1.362 . S
H1248 C1254 0.930 . S
H1249 C1257 0.930 . S
H1250 C1258 0.930 . S
H1251 C1259 0.930 . S
H1252 C1262 0.930 . S
H1253 C1263 0.930 . S
C1254 H1248 0.930 . S
C1254 C1255 1.355 . S
C1254 C1256 1.415 . S
C1255 C1254 1.355 . S
C1255 C1257 1.419 . S
C1256 C1254 1.415 . S
C1256 C1261 1.425 . S
C1256 C1263 1.409 . S
C1257 H1249 0.930 . S
C1257 C1255 1.419 . S
C1257 C1258 1.362 . S
C1258 H1250 0.930 . S
C1258 C1257 1.362 . S
C1258 C1261 1.409 . S
C1259 H1251 0.930 . S
C1259 C1260 1.355 . S
C1259 C1261 1.415 1_565 S
C1260 C1259 1.355 . S
C1260 C1262 1.419 . S
C1261 C1256 1.425 . S
C1261 C1258 1.409 . S
C1261 C1259 1.415 1_545 S
C1262 H1252 0.930 . S
C1262 C1260 1.419 . S
C1262 C1263 1.362 1_565 S
C1263 H1253 0.930 . S
C1263 C1256 1.409 . S
C1263 C1262 1.362 1_545 S
H1264 C1270 0.930 . S
H1265 C1273 0.930 . S
H1266 C1274 0.930 . S
H1267 C1275 0.930 . S
H1268 C1278 0.930 . S
H1269 C1279 0.930 . S
C1270 H1264 0.930 . S
C1270 C1271 1.355 . S
C1270 C1272 1.415 . S
C1271 C1270 1.355 . S
C1271 C1273 1.419 . S
C1272 C1270 1.415 . S
C1272 C1277 1.425 . S
C1272 C1279 1.409 . S
C1273 H1265 0.930 . S
C1273 C1271 1.419 . S
C1273 C1274 1.362 . S
C1274 H1266 0.930 . S
C1274 C1273 1.362 . S
C1274 C1277 1.409 . S
C1275 H1267 0.930 . S
C1275 C1276 1.355 . S
C1275 C1277 1.415 . S
C1276 C1275 1.355 . S
C1276 C1278 1.419 . S
C1277 C1272 1.425 . S
C1277 C1274 1.409 . S
C1277 C1275 1.415 . S
C1278 H1268 0.930 . S
C1278 C1276 1.419 . S
C1278 C1279 1.362 . S
C1279 H1269 0.930 . S
C1279 C1272 1.409 . S
C1279 C1278 1.362 . S
H1280 C1286 0.930 . S
H1281 C1289 0.930 . S
H1282 C1290 0.930 1_545 S
H1283 C1291 0.930 . S
H1284 C1294 0.930 . S
H1285 C1295 0.930 . S
C1286 H1280 0.930 . S
C1286 C1287 1.355 . S
C1286 C1288 1.415 . S
C1287 C1286 1.355 . S
C1287 C1289 1.419 . S
C1288 C1286 1.415 . S
C1288 C1293 1.421 1_565 S
C1288 C1295 1.409 . S
C1289 H1281 0.930 . S
C1289 C1287 1.419 . S
C1289 C1290 1.362 . S
C1290 H1282 0.930 1_565 S
C1290 C1289 1.362 . S
C1290 C1293 1.408 1_565 S
C1291 H1283 0.930 . S
C1291 C1292 1.355 . S
C1291 C1293 1.420 . S
C1292 C1291 1.355 . S
C1292 C1294 1.419 . S
C1293 C1288 1.421 1_545 S
C1293 C1290 1.408 1_545 S
C1293 C1291 1.420 . S
C1294 H1284 0.930 . S
C1294 C1292 1.419 . S
C1294 C1295 1.362 1_545 S
C1295 H1285 0.930 . S
C1295 C1288 1.409 . S
C1295 C1294 1.362 1_565 S
H1296 C1302 0.930 . S
H1297 C1305 0.930 . S
H1298 C1306 0.930 . S
H1299 C1307 0.930 . S
H1300 C1310 0.930 . S
H1301 C1311 0.930 . S
C1302 H1296 0.930 . S
C1302 C1303 1.355 . S
C1302 C1304 1.415 . S
C1303 C1302 1.355 . S
C1303 C1305 1.419 . S
C1304 C1302 1.415 . S
C1304 C1309 1.425 . S
C1304 C1311 1.409 . S
C1305 H1297 0.930 . S
C1305 C1303 1.419 . S
C1305 C1306 1.362 . S
C1306 H1298 0.930 . S
C1306 C1305 1.362 . S
C1306 C1309 1.409 . S
C1307 H1299 0.930 . S
C1307 C1308 1.355 . S
C1307 C1309 1.415 . S
C1308 C1307 1.355 . S
C1308 C1310 1.419 . S
C1309 C1304 1.425 . S
C1309 C1306 1.409 . S
C1309 C1307 1.415 . S
C1310 H1300 0.930 . S
C1310 C1308 1.419 . S
C1310 C1311 1.362 . S
C1311 H1301 0.930 . S
C1311 C1304 1.409 . S
C1311 C1310 1.362 . S
H1312 C1318 0.930 . S
H1313 C1321 0.930 . S
H1314 C1322 0.930 . S
H1315 C1323 0.930 . S
H1316 C1326 0.930 . S
H1317 C1327 0.930 . S
C1318 H1312 0.930 . S
C1318 C1319 1.355 . S
C1318 C1320 1.415 . S
C1319 C1318 1.355 . S
C1319 C1321 1.419 . S
C1320 C1318 1.415 . S
C1320 C1325 1.425 . S
C1320 C1327 1.409 . S
C1321 H1313 0.930 . S
C1321 C1319 1.419 . S
C1321 C1322 1.362 . S
C1322 H1314 0.930 . S
C1322 C1321 1.362 . S
C1322 C1325 1.409 . S
C1323 H1315 0.930 . S
C1323 C1324 1.355 . S
C1323 C1325 1.415 1_565 S
C1324 C1323 1.355 . S
C1324 C1326 1.419 . S
C1325 C1320 1.425 . S
C1325 C1322 1.409 . S
C1325 C1323 1.415 1_545 S
C1326 H1316 0.930 . S
C1326 C1324 1.419 . S
C1326 C1327 1.362 1_565 S
C1327 H1317 0.930 . S
C1327 C1320 1.409 . S
C1327 C1326 1.362 1_545 S
H1328 C1334 0.930 . S
H1329 C1337 0.930 . S
H1330 C1338 0.930 . S
H1331 C1339 0.930 . S
H1332 C1342 0.930 . S
H1333 C1343 0.930 . S
C1334 H1328 0.930 . S
C1334 C1335 1.355 . S
C1334 C1336 1.415 . S
C1335 C1334 1.355 . S
C1335 C1337 1.419 . S
C1336 C1334 1.415 . S
C1336 C1341 1.425 . S
C1336 C1343 1.409 . S
C1337 H1329 0.930 . S
C1337 C1335 1.419 . S
C1337 C1338 1.362 . S
C1338 H1330 0.930 . S
C1338 C1337 1.362 . S
C1338 C1341 1.409 . S
C1339 H1331 0.930 . S
C1339 C1340 1.355 . S
C1339 C1341 1.415 . S
C1340 C1339 1.355 . S
C1340 C1342 1.419 . S
C1341 C1336 1.425 . S
C1341 C1338 1.409 . S
C1341 C1339 1.415 . S
C1342 H1332 0.930 . S
C1342 C1340 1.419 . S
C1342 C1343 1.362 . S
C1343 H1333 0.930 . S
C1343 C1336 1.409 . S
C1343 C1342 1.362 . S
H1344 C1350 0.930 . S
H1345 C1353 0.930 . S
H1346 C1354 0.930 . S
H1347 C1355 0.930 . S
H1348 C1358 0.930 . S
H1349 C1359 0.930 . S
C1350 H1344 0.930 . S
C1350 C1351 1.355 . S
C1350 C1352 1.415 . S
C1351 C1350 1.355 . S
C1351 C1353 1.419 . S
C1352 C1350 1.415 . S
C1352 C1357 1.425 . S
C1352 C1359 1.409 . S
C1353 H1345 0.930 . S
C1353 C1351 1.419 . S
C1353 C1354 1.362 . S
C1354 H1346 0.930 . S
C1354 C1353 1.362 . S
C1354 C1357 1.409 . S
C1355 H1347 0.930 . S
C1355 C1356 1.355 . S
C1355 C1357 1.415 . S
C1356 C1355 1.355 . S
C1356 C1358 1.419 . S
C1357 C1352 1.425 . S
C1357 C1354 1.409 . S
C1357 C1355 1.415 . S
C1358 H1348 0.930 . S
C1358 C1356 1.419 . S
C1358 C1359 1.362 . S
C1359 H1349 0.930 . S
C1359 C1352 1.409 . S
C1359 C1358 1.362 . S
H1360 C1366 0.930 . S
H1361 C1369 0.930 . S
H1362 C1370 0.930 1_455 S
H1363 C1371 0.930 . S
H1364 C1374 0.929 1_455 S
H1365 C1375 0.930 . S
C1366 H1360 0.930 . S
C1366 C1367 1.355 . S
C1366 C1368 1.415 . S
C1367 C1366 1.355 . S
C1367 C1369 1.419 . S
C1368 C1366 1.415 . S
C1368 C1373 1.425 . S
C1368 C1375 1.409 . S
C1369 H1361 0.930 . S
C1369 C1367 1.419 . S
C1369 C1370 1.362 . S
C1370 H1362 0.930 1_655 S
C1370 C1369 1.362 . S
C1370 C1373 1.409 . S
C1371 H1363 0.930 . S
C1371 C1372 1.355 . S
C1371 C1373 1.415 1_455 S
C1372 C1371 1.355 . S
C1372 C1374 1.388 1_455 S
C1373 C1368 1.425 . S
C1373 C1370 1.409 . S
C1373 C1371 1.415 1_655 S
C1374 H1364 0.929 1_655 S
C1374 C1372 1.388 1_655 S
C1374 C1375 1.396 . S
C1375 H1365 0.930 . S
C1375 C1368 1.409 . S
C1375 C1374 1.396 . S
H1376 C1382 0.930 . S
H1377 C1385 0.930 . S
H1378 C1386 0.930 . S
H1379 C1387 0.930 . S
H1380 C1390 0.930 . S
H1381 C1391 0.930 . S
C1382 H1376 0.930 . S
C1382 C1383 1.355 . S
C1382 C1384 1.415 . S
C1383 C1382 1.355 . S
C1383 C1385 1.419 . S
C1384 C1382 1.415 . S
C1384 C1389 1.425 . S
C1384 C1391 1.409 . S
C1385 H1377 0.930 . S
C1385 C1383 1.419 . S
C1385 C1386 1.362 . S
C1386 H1378 0.930 . S
C1386 C1385 1.362 . S
C1386 C1389 1.409 . S
C1387 H1379 0.930 . S
C1387 C1388 1.355 . S
C1387 C1389 1.415 . S
C1388 C1387 1.355 . S
C1388 C1390 1.419 . S
C1389 C1384 1.425 . S
C1389 C1386 1.409 . S
C1389 C1387 1.415 . S
C1390 H1380 0.930 . S
C1390 C1388 1.419 . S
C1390 C1391 1.362 . S
C1391 H1381 0.930 . S
C1391 C1384 1.409 . S
C1391 C1390 1.362 . S
H1392 C1398 0.930 . S
H1393 C1401 0.930 1_545 S
H1394 C1402 0.930 1_655 S
H1395 C1403 0.930 . S
H1396 C1406 0.930 . S
H1397 C1407 0.930 . S
C1398 H1392 0.930 . S
C1398 C1399 1.355 . S
C1398 C1400 1.415 . S
C1399 C1398 1.355 . S
C1399 C1401 1.419 . S
C1400 C1398 1.415 . S
C1400 C1405 1.425 . S
C1400 C1407 1.409 . S
C1401 H1393 0.930 1_565 S
C1401 C1399 1.419 . S
C1401 C1402 1.362 . S
C1402 H1394 0.930 1_455 S
C1402 C1401 1.362 . S
C1402 C1405 1.409 . S
C1403 H1395 0.930 . S
C1403 C1404 1.355 . S
C1403 C1405 1.415 1_655 S
C1404 C1403 1.355 . S
C1404 C1406 1.419 . S
C1405 C1400 1.425 . S
C1405 C1402 1.409 . S
C1405 C1403 1.415 1_455 S
C1406 H1396 0.930 . S
C1406 C1404 1.419 . S
C1406 C1407 1.362 1_655 S
C1407 H1397 0.930 . S
C1407 C1400 1.409 . S
C1407 C1406 1.362 1_455 S
H1408 C1414 0.930 . S
H1409 C1417 0.930 . S
H1410 C1418 0.930 . S
H1411 C1419 0.930 . S
H1412 C1422 0.930 . S
H1413 C1423 0.930 . S
C1414 H1408 0.930 . S
C1414 C1415 1.355 . S
C1414 C1416 1.415 . S
C1415 C1414 1.355 . S
C1415 C1417 1.419 . S
C1416 C1414 1.415 . S
C1416 C1421 1.425 . S
C1416 C1423 1.409 . S
C1417 H1409 0.930 . S
C1417 C1415 1.419 . S
C1417 C1418 1.362 . S
C1418 H1410 0.930 . S
C1418 C1417 1.362 . S
C1418 C1421 1.409 . S
C1419 H1411 0.930 . S
C1419 C1420 1.355 . S
C1419 C1421 1.415 . S
C1420 C1419 1.355 . S
C1420 C1422 1.419 . S
C1421 C1416 1.425 . S
C1421 C1418 1.409 . S
C1421 C1419 1.415 . S
C1422 H1412 0.930 . S
C1422 C1420 1.419 . S
C1422 C1423 1.362 . S
C1423 H1413 0.930 . S
C1423 C1416 1.409 . S
C1423 C1422 1.362 . S
H1424 C1430 0.930 . S
H1425 C1433 0.930 . S
H1426 C1434 0.930 . S
H1427 C1435 0.930 . S
H1428 C1438 0.930 . S
H1429 C1439 0.926 1_655 S
C1430 H1424 0.930 . S
C1430 C1431 1.355 . S
C1430 C1432 1.415 . S
C1431 C1430 1.355 . S
C1431 C1433 1.419 . S
C1432 C1430 1.415 . S
C1432 C1437 1.425 . S
C1432 C1439 1.409 1_655 S
C1433 H1425 0.930 . S
C1433 C1431 1.419 . S
C1433 C1434 1.362 . S
C1434 H1426 0.930 . S
C1434 C1433 1.362 . S
C1434 C1437 1.409 . S
C1435 H1427 0.930 . S
C1435 C1436 1.355 . S
C1435 C1437 1.415 1_455 S
C1436 C1435 1.355 . S
C1436 C1438 1.419 . S
C1437 C1432 1.425 . S
C1437 C1434 1.409 . S
C1437 C1435 1.415 1_655 S
C1438 H1428 0.930 . S
C1438 C1436 1.419 . S
C1438 C1439 1.362 . S
C1439 H1429 0.926 1_455 S
C1439 C1432 1.409 1_455 S
C1439 C1438 1.362 . S
H1440 C1446 0.930 . S
H1441 C1449 0.930 . S
H1442 C1450 0.930 . S
H1443 C1451 0.930 . S
H1444 C1454 0.930 . S
H1445 C1455 0.930 . S
C1446 H1440 0.930 . S
C1446 C1447 1.355 . S
C1446 C1448 1.415 . S
C1447 C1446 1.355 . S
C1447 C1449 1.419 . S
C1448 C1446 1.415 . S
C1448 C1453 1.425 . S
C1448 C1455 1.409 . S
C1449 H1441 0.930 . S
C1449 C1447 1.419 . S
C1449 C1450 1.362 . S
C1450 H1442 0.930 . S
C1450 C1449 1.362 . S
C1450 C1453 1.409 . S
C1451 H1443 0.930 . S
C1451 C1452 1.355 . S
C1451 C1453 1.415 . S
C1452 C1451 1.355 . S
C1452 C1454 1.419 . S
C1453 C1448 1.425 . S
C1453 C1450 1.409 . S
C1453 C1451 1.415 . S
C1454 H1444 0.930 . S
C1454 C1452 1.419 . S
C1454 C1455 1.362 . S
C1455 H1445 0.930 . S
C1455 C1448 1.409 . S
C1455 C1454 1.362 . S
H1456 C1462 0.930 . S
H1457 C1465 0.930 . S
H1458 C1466 0.930 . S
H1459 C1467 0.930 . S
H1460 C1470 0.930 . S
H1461 C1471 0.930 . S
C1462 H1456 0.930 . S
C1462 C1463 1.355 . S
C1462 C1464 1.415 . S
C1463 C1462 1.355 . S
C1463 C1465 1.419 . S
C1464 C1462 1.415 . S
C1464 C1469 1.425 . S
C1464 C1471 1.409 . S
C1465 H1457 0.930 . S
C1465 C1463 1.419 . S
C1465 C1466 1.362 . S
C1466 H1458 0.930 . S
C1466 C1465 1.362 . S
C1466 C1469 1.409 . S
C1467 H1459 0.930 . S
C1467 C1468 1.355 . S
C1467 C1469 1.415 . S
C1468 C1467 1.355 . S
C1468 C1470 1.419 . S
C1469 C1464 1.425 . S
C1469 C1466 1.409 . S
C1469 C1467 1.415 . S
C1470 H1460 0.930 . S
C1470 C1468 1.419 . S
C1470 C1471 1.362 . S
C1471 H1461 0.930 . S
C1471 C1464 1.409 . S
C1471 C1470 1.362 . S
H1472 C1478 0.930 . S
H1473 C1481 0.930 . S
H1474 C1482 0.930 . S
H1475 C1483 0.934 . S
H1476 C1486 0.930 . S
H1477 C1487 0.930 . S
C1478 H1472 0.930 . S
C1478 C1479 1.355 . S
C1478 C1480 1.415 . S
C1479 C1478 1.355 . S
C1479 C1481 1.419 . S
C1480 C1478 1.415 . S
C1480 C1485 1.425 . S
C1480 C1487 1.409 1_554 S
C1481 H1473 0.930 . S
C1481 C1479 1.419 . S
C1481 C1482 1.362 . S
C1482 H1474 0.930 . S
C1482 C1481 1.362 . S
C1482 C1485 1.409 . S
C1483 H1475 0.934 . S
C1483 C1484 1.355 . S
C1483 C1485 1.415 1_556 S
C1484 C1483 1.355 . S
C1484 C1486 1.419 . S
C1485 C1480 1.425 . S
C1485 C1482 1.409 . S
C1485 C1483 1.415 1_554 S
C1486 H1476 0.930 . S
C1486 C1484 1.419 . S
C1486 C1487 1.362 . S
C1487 H1477 0.930 . S
C1487 C1480 1.409 1_556 S
C1487 C1486 1.362 . S
H1488 C1494 0.930 . S
H1489 C1497 0.930 1_455 S
H1490 C1498 0.930 . S
H1491 C1499 0.930 . S
H1492 C1502 0.930 . S
H1493 C1503 0.930 . S
C1494 H1488 0.930 . S
C1494 C1495 1.355 . S
C1494 C1496 1.415 . S
C1495 C1494 1.355 . S
C1495 C1497 1.419 . S
C1496 C1494 1.415 . S
C1496 C1501 1.425 . S
C1496 C1503 1.409 . S
C1497 H1489 0.930 1_655 S
C1497 C1495 1.419 . S
C1497 C1498 1.362 . S
C1498 H1490 0.930 . S
C1498 C1497 1.362 . S
C1498 C1501 1.409 . S
C1499 H1491 0.930 . S
C1499 C1500 1.355 . S
C1499 C1501 1.415 . S
C1500 C1499 1.355 . S
C1500 C1502 1.419 . S
C1501 C1496 1.425 . S
C1501 C1498 1.409 . S
C1501 C1499 1.415 . S
C1502 H1492 0.930 . S
C1502 C1500 1.419 . S
C1502 C1503 1.362 . S
C1503 H1493 0.930 . S
C1503 C1496 1.409 . S
C1503 C1502 1.362 . S
H1504 C1510 0.930 . S
H1505 C1513 0.930 . S
H1506 C1514 0.930 . S
H1507 C1515 0.930 . S
H1508 C1518 0.930 . S
H1509 C1519 0.930 . S
C1510 H1504 0.930 . S
C1510 C1511 1.355 . S
C1510 C1512 1.415 . S
C1511 C1510 1.355 . S
C1511 C1513 1.419 . S
C1512 C1510 1.415 . S
C1512 C1517 1.425 . S
C1512 C1519 1.409 . S
C1513 H1505 0.930 . S
C1513 C1511 1.419 . S
C1513 C1514 1.362 . S
C1514 H1506 0.930 . S
C1514 C1513 1.362 . S
C1514 C1517 1.409 . S
C1515 H1507 0.930 . S
C1515 C1516 1.355 . S
C1515 C1517 1.415 . S
C1516 C1515 1.355 . S
C1516 C1518 1.419 . S
C1517 C1512 1.425 . S
C1517 C1514 1.409 . S
C1517 C1515 1.415 . S
C1518 H1508 0.930 . S
C1518 C1516 1.419 . S
C1518 C1519 1.362 . S
C1519 H1509 0.930 . S
C1519 C1512 1.409 . S
C1519 C1518 1.362 . S
H1520 C1526 0.930 . S
H1521 C1529 0.930 . S
H1522 C1530 0.930 . S
H1523 C1531 0.930 . S
H1524 C1534 0.930 . S
H1525 C1535 0.930 . S
C1526 H1520 0.930 . S
C1526 C1527 1.355 . S
C1526 C1528 1.415 . S
C1527 C1526 1.355 . S
C1527 C1529 1.419 . S
C1528 C1526 1.415 . S
C1528 C1533 1.425 . S
C1528 C1535 1.409 . S
C1529 H1521 0.930 . S
C1529 C1527 1.419 . S
C1529 C1530 1.362 . S
C1530 H1522 0.930 . S
C1530 C1529 1.362 . S
C1530 C1533 1.409 . S
C1531 H1523 0.930 . S
C1531 C1532 1.355 . S
C1531 C1533 1.415 . S
C1532 C1531 1.355 . S
C1532 C1534 1.419 . S
C1533 C1528 1.425 . S
C1533 C1530 1.409 . S
C1533 C1531 1.415 . S
C1534 H1524 0.930 . S
C1534 C1532 1.419 . S
C1534 C1535 1.362 . S
C1535 H1525 0.930 . S
C1535 C1528 1.409 . S
C1535 C1534 1.362 . S
H1536 C1542 0.930 . S
H1537 C1545 0.930 . S
H1538 C1546 0.930 . S
H1539 C1547 0.930 . S
H1540 C1550 0.930 . S
H1541 C1551 0.930 . S
C1542 H1536 0.930 . S
C1542 C1543 1.355 . S
C1542 C1544 1.415 . S
C1543 C1542 1.355 . S
C1543 C1545 1.419 . S
C1544 C1542 1.415 . S
C1544 C1549 1.425 . S
C1544 C1551 1.409 . S
C1545 H1537 0.930 . S
C1545 C1543 1.419 . S
C1545 C1546 1.362 . S
C1546 H1538 0.930 . S
C1546 C1545 1.362 . S
C1546 C1549 1.409 . S
C1547 H1539 0.930 . S
C1547 C1548 1.355 . S
C1547 C1549 1.415 1_554 S
C1548 C1547 1.355 . S
C1548 C1550 1.419 . S
C1549 C1544 1.425 . S
C1549 C1546 1.409 . S
C1549 C1547 1.415 1_556 S
C1550 H1540 0.930 . S
C1550 C1548 1.419 . S
C1550 C1551 1.362 1_554 S
C1551 H1541 0.930 . S
C1551 C1544 1.409 . S
C1551 C1550 1.362 1_556 S
H1552 C1558 0.930 . S
H1553 C1561 0.930 . S
H1554 C1562 0.930 . S
H1555 C1563 0.930 . S
H1556 C1566 0.930 . S
H1557 C1567 0.930 . S
C1558 H1552 0.930 . S
C1558 C1559 1.355 . S
C1558 C1560 1.415 . S
C1559 C1558 1.355 . S
C1559 C1561 1.419 . S
C1560 C1558 1.415 . S
C1560 C1565 1.425 . S
C1560 C1567 1.409 . S
C1561 H1553 0.930 . S
C1561 C1559 1.419 . S
C1561 C1562 1.362 . S
C1562 H1554 0.930 . S
C1562 C1561 1.362 . S
C1562 C1565 1.409 . S
C1563 H1555 0.930 . S
C1563 C1564 1.355 . S
C1563 C1565 1.415 . S
C1564 C1563 1.355 . S
C1564 C1566 1.419 . S
C1565 C1560 1.425 . S
C1565 C1562 1.409 . S
C1565 C1563 1.415 . S
C1566 H1556 0.930 . S
C1566 C1564 1.419 . S
C1566 C1567 1.362 . S
C1567 H1557 0.930 . S
C1567 C1560 1.409 . S
C1567 C1566 1.362 . S
H1568 C1574 0.930 . S
H1569 C1577 0.930 . S
H1570 C1578 0.930 . S
H1571 C1579 0.930 . S
H1572 C1582 0.930 . S
H1573 C1583 0.930 . S
C1574 H1568 0.930 . S
C1574 C1575 1.355 . S
C1574 C1576 1.415 . S
C1575 C1574 1.355 . S
C1575 C1577 1.419 . S
C1576 C1574 1.415 . S
C1576 C1581 1.425 . S
C1576 C1583 1.409 . S
C1577 H1569 0.930 . S
C1577 C1575 1.419 . S
C1577 C1578 1.362 . S
C1578 H1570 0.930 . S
C1578 C1577 1.362 . S
C1578 C1581 1.409 . S
C1579 H1571 0.930 . S
C1579 C1580 1.355 . S
C1579 C1581 1.415 . S
C1580 C1579 1.355 . S
C1580 C1582 1.419 . S
C1581 C1576 1.425 . S
C1581 C1578 1.409 . S
C1581 C1579 1.415 . S
C1582 H1572 0.930 . S
C1582 C1580 1.419 . S
C1582 C1583 1.362 . S
C1583 H1573 0.930 . S
C1583 C1576 1.409 . S
C1583 C1582 1.362 . S
H1584 C1590 0.930 . S
H1585 C1593 0.930 . S
H1586 C1594 0.930 . S
H1587 C1595 0.930 . S
H1588 C1598 0.930 . S
H1589 C1599 0.930 . S
C1590 H1584 0.930 . S
C1590 C1591 1.355 . S
C1590 C1592 1.415 . S
C1591 C1590 1.355 . S
C1591 C1593 1.419 . S
C1592 C1590 1.415 . S
C1592 C1597 1.425 . S
C1592 C1599 1.409 . S
C1593 H1585 0.930 . S
C1593 C1591 1.419 . S
C1593 C1594 1.362 . S
C1594 H1586 0.930 . S
C1594 C1593 1.362 . S
C1594 C1597 1.409 . S
C1595 H1587 0.930 . S
C1595 C1596 1.355 . S
C1595 C1597 1.415 . S
C1596 C1595 1.355 . S
C1596 C1598 1.419 . S
C1597 C1592 1.425 . S
C1597 C1594 1.409 . S
C1597 C1595 1.415 . S
C1598 H1588 0.930 . S
C1598 C1596 1.419 . S
C1598 C1599 1.362 . S
C1599 H1589 0.930 . S
C1599 C1592 1.409 . S
C1599 C1598 1.362 . S
H1600 C1606 0.930 . S
H1601 C1609 0.930 . S
H1602 C1610 0.930 . S
H1603 C1611 0.930 . S
H1604 C1614 0.930 . S
H1605 C1615 0.930 . S
C1606 H1600 0.930 . S
C1606 C1607 1.355 . S
C1606 C1608 1.415 . S
C1607 C1606 1.355 . S
C1607 C1609 1.419 . S
C1608 C1606 1.415 . S
C1608 C1613 1.425 . S
C1608 C1615 1.409 . S
C1609 H1601 0.930 . S
C1609 C1607 1.419 . S
C1609 C1610 1.362 . S
C1610 H1602 0.930 . S
C1610 C1609 1.362 . S
C1610 C1613 1.409 . S
C1611 H1603 0.930 . S
C1611 C1612 1.355 . S
C1611 C1613 1.415 . S
C1612 C1611 1.355 . S
C1612 C1614 1.419 . S
C1613 C1608 1.425 . S
C1613 C1610 1.409 . S
C1613 C1611 1.415 . S
C1614 H1604 0.930 . S
C1614 C1612 1.419 . S
C1614 C1615 1.362 . S
C1615 H1605 0.930 . S
C1615 C1608 1.409 . S
C1615 C1614 1.362 . S
H1616 C1622 0.930 . S
H1617 C1625 0.930 . S
H1618 C1626 0.930 . S
H1619 C1627 0.930 . S
H1620 C1630 0.930 . S
H1621 C1631 0.930 . S
C1622 H1616 0.930 . S
C1622 C1623 1.355 . S
C1622 C1624 1.415 . S
C1623 C1622 1.355 . S
C1623 C1625 1.419 . S
C1624 C1622 1.415 . S
C1624 C1629 1.425 . S
C1624 C1631 1.409 . S
C1625 H1617 0.930 . S
C1625 C1623 1.419 . S
C1625 C1626 1.362 . S
C1626 H1618 0.930 . S
C1626 C1625 1.362 . S
C1626 C1629 1.409 . S
C1627 H1619 0.930 . S
C1627 C1628 1.355 . S
C1627 C1629 1.415 . S
C1628 C1627 1.355 . S
C1628 C1630 1.419 . S
C1629 C1624 1.425 . S
C1629 C1626 1.409 . S
C1629 C1627 1.415 . S
C1630 H1620 0.930 . S
C1630 C1628 1.419 . S
C1630 C1631 1.362 . S
C1631 H1621 0.930 . S
C1631 C1624 1.409 . S
C1631 C1630 1.362 . S
H1632 C1638 0.930 . S
H1633 C1641 0.930 . S
H1634 C1642 0.930 . S
H1635 C1643 0.930 . S
H1636 C1646 0.930 . S
H1637 C1647 0.930 . S
C1638 H1632 0.930 . S
C1638 C1639 1.355 . S
C1638 C1640 1.415 . S
C1639 C1638 1.355 . S
C1639 C1641 1.419 . S
C1640 C1638 1.415 . S
C1640 C1645 1.425 . S
C1640 C1647 1.409 . S
C1641 H1633 0.930 . S
C1641 C1639 1.419 . S
C1641 C1642 1.362 . S
C1642 H1634 0.930 . S
C1642 C1641 1.362 . S
C1642 C1645 1.409 . S
C1643 H1635 0.930 . S
C1643 C1644 1.355 . S
C1643 C1645 1.415 . S
C1644 C1643 1.355 . S
C1644 C1646 1.419 . S
C1645 C1640 1.425 . S
C1645 C1642 1.409 . S
C1645 C1643 1.415 . S
C1646 H1636 0.930 . S
C1646 C1644 1.419 . S
C1646 C1647 1.362 . S
C1647 H1637 0.930 . S
C1647 C1640 1.409 . S
C1647 C1646 1.362 . S
H1648 C1654 0.930 . S
H1649 C1657 0.930 . S
H1650 C1658 0.930 . S
H1651 C1659 0.930 . S
H1652 C1662 0.930 . S
H1653 C1663 0.930 . S
C1654 H1648 0.930 . S
C1654 C1655 1.355 . S
C1654 C1656 1.415 . S
C1655 C1654 1.355 . S
C1655 C1657 1.419 . S
C1656 C1654 1.415 . S
C1656 C1661 1.425 . S
C1656 C1663 1.409 . S
C1657 H1649 0.930 . S
C1657 C1655 1.419 . S
C1657 C1658 1.362 . S
C1658 H1650 0.930 . S
C1658 C1657 1.362 . S
C1658 C1661 1.409 . S
C1659 H1651 0.930 . S
C1659 C1660 1.355 . S
C1659 C1661 1.415 . S
C1660 C1659 1.355 . S
C1660 C1662 1.419 . S
C1661 C1656 1.425 . S
C1661 C1658 1.409 . S
C1661 C1659 1.415 . S
C1662 H1652 0.930 . S
C1662 C1660 1.419 . S
C1662 C1663 1.362 . S
C1663 H1653 0.930 . S
C1663 C1656 1.409 . S
C1663 C1662 1.362 . S
H1664 C1670 0.930 . S
H1665 C1673 0.930 . S
H1666 C1674 0.930 . S
H1667 C1675 0.930 . S
H1668 C1678 0.930 . S
H1669 C1679 0.930 . S
C1670 H1664 0.930 . S
C1670 C1671 1.355 . S
C1670 C1672 1.415 . S
C1671 C1670 1.355 . S
C1671 C1673 1.419 . S
C1672 C1670 1.415 . S
C1672 C1677 1.425 . S
C1672 C1679 1.409 . S
C1673 H1665 0.930 . S
C1673 C1671 1.419 . S
C1673 C1674 1.362 . S
C1674 H1666 0.930 . S
C1674 C1673 1.362 . S
C1674 C1677 1.409 . S
C1675 H1667 0.930 . S
C1675 C1676 1.355 . S
C1675 C1677 1.415 . S
C1676 C1675 1.355 . S
C1676 C1678 1.419 . S
C1677 C1672 1.425 . S
C1677 C1674 1.409 . S
C1677 C1675 1.415 . S
C1678 H1668 0.930 . S
C1678 C1676 1.419 . S
C1678 C1679 1.362 . S
C1679 H1669 0.930 . S
C1679 C1672 1.409 . S
C1679 C1678 1.362 . S
H1680 C1686 0.930 . S
H1681 C1689 0.930 . S
H1682 C1690 0.930 . S
H1683 C1691 0.930 . S
H1684 C1694 0.930 . S
H1685 C1695 0.930 . S
C1686 H1680 0.930 . S
C1686 C1687 1.355 . S
C1686 C1688 1.415 . S
C1687 C1686 1.355 . S
C1687 C1689 1.419 . S
C1688 C1686 1.415 . S
C1688 C1693 1.425 . S
C1688 C1695 1.409 . S
C1689 H1681 0.930 . S
C1689 C1687 1.419 . S
C1689 C1690 1.362 . S
C1690 H1682 0.930 . S
C1690 C1689 1.362 . S
C1690 C1693 1.409 . S
C1691 H1683 0.930 . S
C1691 C1692 1.355 . S
C1691 C1693 1.415 . S
C1692 C1691 1.355 . S
C1692 C1694 1.419 . S
C1693 C1688 1.425 . S
C1693 C1690 1.409 . S
C1693 C1691 1.415 . S
C1694 H1684 0.930 . S
C1694 C1692 1.419 . S
C1694 C1695 1.362 . S
C1695 H1685 0.930 . S
C1695 C1688 1.409 . S
C1695 C1694 1.362 . S
H1696 C1702 0.930 . S
H1697 C1705 0.930 . S
H1698 C1706 0.930 . S
H1699 C1707 0.930 . S
H1700 C1710 0.930 . S
H1701 C1711 0.930 . S
C1702 H1696 0.930 . S
C1702 C1703 1.355 . S
C1702 C1704 1.415 . S
C1703 C1702 1.355 . S
C1703 C1705 1.419 . S
C1704 C1702 1.415 . S
C1704 C1709 1.425 . S
C1704 C1711 1.409 . S
C1705 H1697 0.930 . S
C1705 C1703 1.419 . S
C1705 C1706 1.362 . S
C1706 H1698 0.930 . S
C1706 C1705 1.362 . S
C1706 C1709 1.409 . S
C1707 H1699 0.930 . S
C1707 C1708 1.355 . S
C1707 C1709 1.415 . S
C1708 C1707 1.355 . S
C1708 C1710 1.419 . S
C1709 C1704 1.425 . S
C1709 C1706 1.409 . S
C1709 C1707 1.415 . S
C1710 H1700 0.930 . S
C1710 C1708 1.419 . S
C1710 C1711 1.362 . S
C1711 H1701 0.930 . S
C1711 C1704 1.409 . S
C1711 C1710 1.362 . S
H1712 C1718 0.930 . S
H1713 C1721 0.930 . S
H1714 C1722 0.930 . S
H1715 C1723 0.930 . S
H1716 C1726 0.930 . S
H1717 C1727 0.930 . S
C1718 H1712 0.930 . S
C1718 C1719 1.355 . S
C1718 C1720 1.415 . S
C1719 C1718 1.355 . S
C1719 C1721 1.419 . S
C1720 C1718 1.415 . S
C1720 C1725 1.425 . S
C1720 C1727 1.409 . S
C1721 H1713 0.930 . S
C1721 C1719 1.419 . S
C1721 C1722 1.362 . S
C1722 H1714 0.930 . S
C1722 C1721 1.362 . S
C1722 C1725 1.409 . S
C1723 H1715 0.930 . S
C1723 C1724 1.355 . S
C1723 C1725 1.415 . S
C1724 C1723 1.355 . S
C1724 C1726 1.419 . S
C1725 C1720 1.425 . S
C1725 C1722 1.409 . S
C1725 C1723 1.415 . S
C1726 H1716 0.930 . S
C1726 C1724 1.419 . S
C1726 C1727 1.362 . S
C1727 H1717 0.930 . S
C1727 C1720 1.409 . S
C1727 C1726 1.362 . S
H1728 C1734 0.930 . S
H1729 C1737 0.930 . S
H1730 C1738 0.930 . S
H1731 C1739 0.930 . S
H1732 C1742 0.930 . S
H1733 C1743 0.930 . S
C1734 H1728 0.930 . S
C1734 C1735 1.355 . S
C1734 C1736 1.415 . S
C1735 C1734 1.355 . S
C1735 C1737 1.419 . S
C1736 C1734 1.415 . S
C1736 C1741 1.425 . S
C1736 C1743 1.409 . S
C1737 H1729 0.930 . S
C1737 C1735 1.419 . S
C1737 C1738 1.362 . S
C1738 H1730 0.930 . S
C1738 C1737 1.362 . S
C1738 C1741 1.409 . S
C1739 H1731 0.930 . S
C1739 C1740 1.355 . S
C1739 C1741 1.415 . S
C1740 C1739 1.355 . S
C1740 C1742 1.419 . S
C1741 C1736 1.425 . S
C1741 C1738 1.409 . S
C1741 C1739 1.415 . S
C1742 H1732 0.930 . S
C1742 C1740 1.419 . S
C1742 C1743 1.362 . S
C1743 H1733 0.930 . S
C1743 C1736 1.409 . S
C1743 C1742 1.362 . S
H1744 C1750 0.930 . S
H1745 C1753 0.930 . S
H1746 C1754 0.930 . S
H1747 C1755 0.930 . S
H1748 C1758 0.930 . S
H1749 C1759 0.930 . S
C1750 H1744 0.930 . S
C1750 C1751 1.355 . S
C1750 C1752 1.415 . S
C1751 C1750 1.355 . S
C1751 C1753 1.419 . S
C1752 C1750 1.415 . S
C1752 C1757 1.425 . S
C1752 C1759 1.409 . S
C1753 H1745 0.930 . S
C1753 C1751 1.419 . S
C1753 C1754 1.362 . S
C1754 H1746 0.930 . S
C1754 C1753 1.362 . S
C1754 C1757 1.409 . S
C1755 H1747 0.930 . S
C1755 C1756 1.355 . S
C1755 C1757 1.415 . S
C1756 C1755 1.355 . S
C1756 C1758 1.419 . S
C1757 C1752 1.425 . S
C1757 C1754 1.409 . S
C1757 C1755 1.415 . S
C1758 H1748 0.930 . S
C1758 C1756 1.419 . S
C1758 C1759 1.362 . S
C1759 H1749 0.930 . S
C1759 C1752 1.409 . S
C1759 C1758 1.362 . S
H1760 C1766 0.930 . S
H1761 C1769 0.930 . S
H1762 C1770 0.930 . S
H1763 C1771 0.930 . S
H1764 C1774 0.930 . S
H1765 C1775 0.930 . S
C1766 H1760 0.930 . S
C1766 C1767 1.355 . S
C1766 C1768 1.415 . S
C1767 C1766 1.355 . S
C1767 C1769 1.419 . S
C1768 C1766 1.415 . S
C1768 C1773 1.425 . S
C1768 C1775 1.409 . S
C1769 H1761 0.930 . S
C1769 C1767 1.419 . S
C1769 C1770 1.362 . S
C1770 H1762 0.930 . S
C1770 C1769 1.362 . S
C1770 C1773 1.409 . S
C1771 H1763 0.930 . S
C1771 C1772 1.355 . S
C1771 C1773 1.415 . S
C1772 C1771 1.355 . S
C1772 C1774 1.419 . S
C1773 C1768 1.425 . S
C1773 C1770 1.409 . S
C1773 C1771 1.415 . S
C1774 H1764 0.930 . S
C1774 C1772 1.419 . S
C1774 C1775 1.362 . S
C1775 H1765 0.930 . S
C1775 C1768 1.409 . S
C1775 C1774 1.362 . S
H1776 C1782 0.930 . S
H1777 C1785 0.930 . S
H1778 C1786 0.930 . S
H1779 C1787 0.930 . S
H1780 C1790 0.930 . S
H1781 C1791 0.930 . S
C1782 H1776 0.930 . S
C1782 C1783 1.355 . S
C1782 C1784 1.415 . S
C1783 C1782 1.355 . S
C1783 C1785 1.419 . S
C1784 C1782 1.415 . S
C1784 C1789 1.425 . S
C1784 C1791 1.409 . S
C1785 H1777 0.930 . S
C1785 C1783 1.419 . S
C1785 C1786 1.362 . S
C1786 H1778 0.930 . S
C1786 C1785 1.362 . S
C1786 C1789 1.409 . S
C1787 H1779 0.930 . S
C1787 C1788 1.355 . S
C1787 C1789 1.415 . S
C1788 C1787 1.355 . S
C1788 C1790 1.419 . S
C1789 C1784 1.425 . S
C1789 C1786 1.409 . S
C1789 C1787 1.415 . S
C1790 H1780 0.930 . S
C1790 C1788 1.419 . S
C1790 C1791 1.362 . S
C1791 H1781 0.930 . S
C1791 C1784 1.409 . S
C1791 C1790 1.362 . S
H1792 C1798 0.930 . S
H1793 C1801 0.930 . S
H1794 C1802 0.930 . S
H1795 C1803 0.930 . S
H1796 C1806 0.930 . S
H1797 C1807 0.930 . S
C1798 H1792 0.930 . S
C1798 C1799 1.355 . S
C1798 C1800 1.415 . S
C1799 C1798 1.355 . S
C1799 C1801 1.419 . S
C1800 C1798 1.415 . S
C1800 C1805 1.425 . S
C1800 C1807 1.409 . S
C1801 H1793 0.930 . S
C1801 C1799 1.419 . S
C1801 C1802 1.362 . S
C1802 H1794 0.930 . S
C1802 C1801 1.362 . S
C1802 C1805 1.409 . S
C1803 H1795 0.930 . S
C1803 C1804 1.355 . S
C1803 C1805 1.415 . S
C1804 C1803 1.355 . S
C1804 C1806 1.419 . S
C1805 C1800 1.425 . S
C1805 C1802 1.409 . S
C1805 C1803 1.415 . S
C1806 H1796 0.930 . S
C1806 C1804 1.419 . S
C1806 C1807 1.362 . S
C1807 H1797 0.930 . S
C1807 C1800 1.409 . S
C1807 C1806 1.362 . S
H1808 C1814 0.930 . S
H1809 C1817 0.930 . S
H1810 C1818 0.930 . S
H1811 C1819 0.930 . S
H1812 C1822 0.930 . S
H1813 C1823 0.930 . S
C1814 H1808 0.930 . S
C1814 C1815 1.355 . S
C1814 C1816 1.415 . S
C1815 C1814 1.355 . S
C1815 C1817 1.419 . S
C1816 C1814 1.415 . S
C1816 C1821 1.425 . S
C1816 C1823 1.409 . S
C1817 H1809 0.930 . S
C1817 C1815 1.419 . S
C1817 C1818 1.362 . S
C1818 H1810 0.930 . S
C1818 C1817 1.362 . S
C1818 C1821 1.409 . S
C1819 H1811 0.930 . S
C1819 C1820 1.355 . S
C1819 C1821 1.415 . S
C1820 C1819 1.355 . S
C1820 C1822 1.419 . S
C1821 C1816 1.425 . S
C1821 C1818 1.409 . S
C1821 C1819 1.415 . S
C1822 H1812 0.930 . S
C1822 C1820 1.419 . S
C1822 C1823 1.362 . S
C1823 H1813 0.930 . S
C1823 C1816 1.409 . S
C1823 C1822 1.362 . S
H1824 C1830 0.930 . S
H1825 C1833 0.930 . S
H1826 C1834 0.930 1_455 S
H1827 C1835 0.930 . S
H1828 C1838 0.930 . S
H1829 C1839 0.930 . S
C1830 H1824 0.930 . S
C1830 C1831 1.355 . S
C1830 C1832 1.415 . S
C1831 C1830 1.355 . S
C1831 C1833 1.419 . S
C1832 C1830 1.415 . S
C1832 C1837 1.412 1_655 S
C1832 C1839 1.409 . S
C1833 H1825 0.930 . S
C1833 C1831 1.419 . S
C1833 C1834 1.362 . S
C1834 H1826 0.930 1_655 S
C1834 C1833 1.362 . S
C1834 C1837 1.408 1_655 S
C1835 H1827 0.930 . S
C1835 C1836 1.355 . S
C1835 C1837 1.428 . S
C1836 C1835 1.355 . S
C1836 C1838 1.419 . S
C1837 C1832 1.412 1_455 S
C1837 C1834 1.408 1_455 S
C1837 C1835 1.428 . S
C1838 H1828 0.930 . S
C1838 C1836 1.419 . S
C1838 C1839 1.362 1_455 S
C1839 H1829 0.930 . S
C1839 C1832 1.409 . S
C1839 C1838 1.362 1_655 S
H1840 C1846 0.930 . S
H1841 C1849 0.930 . S
H1842 C1850 0.930 . S
H1843 C1851 0.930 . S
H1844 C1854 0.930 . S
H1845 C1855 0.930 . S
C1846 H1840 0.930 . S
C1846 C1847 1.355 . S
C1846 C1848 1.415 . S
C1847 C1846 1.355 . S
C1847 C1849 1.419 . S
C1848 C1846 1.415 . S
C1848 C1853 1.425 . S
C1848 C1855 1.409 . S
C1849 H1841 0.930 . S
C1849 C1847 1.419 . S
C1849 C1850 1.362 . S
C1850 H1842 0.930 . S
C1850 C1849 1.362 . S
C1850 C1853 1.409 . S
C1851 H1843 0.930 . S
C1851 C1852 1.355 . S
C1851 C1853 1.415 . S
C1852 C1851 1.355 . S
C1852 C1854 1.419 . S
C1853 C1848 1.425 . S
C1853 C1850 1.409 . S
C1853 C1851 1.415 . S
C1854 H1844 0.930 . S
C1854 C1852 1.419 . S
C1854 C1855 1.362 . S
C1855 H1845 0.930 . S
C1855 C1848 1.409 . S
C1855 C1854 1.362 . S
H1856 C1862 0.930 . S
H1857 C1865 0.930 . S
H1858 C1866 0.930 . S
H1859 C1867 0.930 . S
H1860 C1870 0.930 . S
H1861 C1871 0.930 . S
C1862 H1856 0.930 . S
C1862 C1863 1.355 . S
C1862 C1864 1.415 . S
C1863 C1862 1.355 . S
C1863 C1865 1.419 . S
C1864 C1862 1.415 . S
C1864 C1869 1.425 . S
C1864 C1871 1.409 1_556 S
C1865 H1857 0.930 . S
C1865 C1863 1.419 . S
C1865 C1866 1.362 . S
C1866 H1858 0.930 . S
C1866 C1865 1.362 . S
C1866 C1869 1.409 . S
C1867 H1859 0.930 . S
C1867 C1868 1.355 . S
C1867 C1869 1.415 1_554 S
C1868 C1867 1.355 . S
C1868 C1870 1.419 . S
C1869 C1864 1.425 . S
C1869 C1866 1.409 . S
C1869 C1867 1.415 1_556 S
C1870 H1860 0.930 . S
C1870 C1868 1.419 . S
C1870 C1871 1.362 . S
C1871 H1861 0.930 . S
C1871 C1864 1.409 1_554 S
C1871 C1870 1.362 . S
H1872 C1878 0.930 . S
H1873 C1881 0.930 . S
H1874 C1882 0.930 . S
H1875 C1883 0.930 . S
H1876 C1886 0.930 . S
H1877 C1887 0.930 . S
C1878 H1872 0.930 . S
C1878 C1879 1.355 . S
C1878 C1880 1.415 . S
C1879 C1878 1.355 . S
C1879 C1881 1.419 . S
C1880 C1878 1.415 . S
C1880 C1885 1.425 . S
C1880 C1887 1.409 . S
C1881 H1873 0.930 . S
C1881 C1879 1.419 . S
C1881 C1882 1.362 . S
C1882 H1874 0.930 . S
C1882 C1881 1.362 . S
C1882 C1885 1.409 . S
C1883 H1875 0.930 . S
C1883 C1884 1.355 . S
C1883 C1885 1.415 . S
C1884 C1883 1.355 . S
C1884 C1886 1.419 . S
C1885 C1880 1.425 . S
C1885 C1882 1.409 . S
C1885 C1883 1.415 . S
C1886 H1876 0.930 . S
C1886 C1884 1.419 . S
C1886 C1887 1.362 . S
C1887 H1877 0.930 . S
C1887 C1880 1.409 . S
C1887 C1886 1.362 . S
H1888 C1894 0.930 . S
H1889 C1897 0.930 1_655 S
H1890 C1898 0.930 . S
H1891 C1899 0.930 . S
H1892 C1902 0.930 . S
H1893 C1903 0.930 . S
C1894 H1888 0.930 . S
C1894 C1895 1.355 . S
C1894 C1896 1.415 . S
C1895 C1894 1.355 . S
C1895 C1897 1.419 . S
C1896 C1894 1.415 . S
C1896 C1901 1.425 . S
C1896 C1903 1.409 . S
C1897 H1889 0.930 1_455 S
C1897 C1895 1.419 . S
C1897 C1898 1.362 . S
C1898 H1890 0.930 . S
C1898 C1897 1.362 . S
C1898 C1901 1.409 . S
C1899 H1891 0.930 . S
C1899 C1900 1.355 . S
C1899 C1901 1.415 . S
C1900 C1899 1.355 . S
C1900 C1902 1.419 . S
C1901 C1896 1.425 . S
C1901 C1898 1.409 . S
C1901 C1899 1.415 . S
C1902 H1892 0.930 . S
C1902 C1900 1.419 . S
C1902 C1903 1.362 . S
C1903 H1893 0.930 . S
C1903 C1896 1.409 . S
C1903 C1902 1.362 . S
H1904 C1910 0.930 . S
H1905 C1913 0.930 . S
H1906 C1914 0.930 . S
H1907 C1915 0.930 . S
H1908 C1918 0.930 . S
H1909 C1919 0.930 . S
C1910 H1904 0.930 . S
C1910 C1911 1.355 . S
C1910 C1912 1.415 . S
C1911 C1910 1.355 . S
C1911 C1913 1.419 . S
C1912 C1910 1.415 . S
C1912 C1917 1.425 . S
C1912 C1919 1.409 . S
C1913 H1905 0.930 . S
C1913 C1911 1.419 . S
C1913 C1914 1.362 . S
C1914 H1906 0.930 . S
C1914 C1913 1.362 . S
C1914 C1917 1.409 . S
C1915 H1907 0.930 . S
C1915 C1916 1.355 . S
C1915 C1917 1.415 . S
C1916 C1915 1.355 . S
C1916 C1918 1.419 . S
C1917 C1912 1.425 . S
C1917 C1914 1.409 . S
C1917 C1915 1.415 . S
C1918 H1908 0.930 . S
C1918 C1916 1.419 . S
C1918 C1919 1.362 . S
C1919 H1909 0.930 . S
C1919 C1912 1.409 . S
C1919 C1918 1.362 . S
H1920 C1926 0.930 . S
H1921 C1929 0.930 . S
H1922 C1930 0.930 . S
H1923 C1931 0.930 . S
H1924 C1934 0.930 . S
H1925 C1935 0.930 . S
C1926 H1920 0.930 . S
C1926 C1927 1.355 . S
C1926 C1928 1.415 . S
C1927 C1926 1.355 . S
C1927 C1929 1.419 . S
C1928 C1926 1.415 . S
C1928 C1933 1.425 . S
C1928 C1935 1.409 1_554 S
C1929 H1921 0.930 . S
C1929 C1927 1.419 . S
C1929 C1930 1.362 . S
C1930 H1922 0.930 . S
C1930 C1929 1.362 . S
C1930 C1933 1.409 . S
C1931 H1923 0.930 . S
C1931 C1932 1.355 . S
C1931 C1933 1.415 1_556 S
C1932 C1931 1.355 . S
C1932 C1934 1.419 . S
C1933 C1928 1.425 . S
C1933 C1930 1.409 . S
C1933 C1931 1.415 1_554 S
C1934 H1924 0.930 . S
C1934 C1932 1.419 . S
C1934 C1935 1.362 . S
C1935 H1925 0.930 . S
C1935 C1928 1.409 1_556 S
C1935 C1934 1.362 . S
H1936 C1942 0.930 . S
H1937 C1945 0.930 . S
H1938 C1946 0.930 . S
H1939 C1947 0.930 . S
H1940 C1950 0.930 . S
H1941 C1951 0.930 . S
C1942 H1936 0.930 . S
C1942 C1943 1.355 . S
C1942 C1944 1.415 . S
C1943 C1942 1.355 . S
C1943 C1945 1.419 . S
C1944 C1942 1.415 . S
C1944 C1949 1.425 . S
C1944 C1951 1.409 . S
C1945 H1937 0.930 . S
C1945 C1943 1.419 . S
C1945 C1946 1.362 . S
C1946 H1938 0.930 . S
C1946 C1945 1.362 . S
C1946 C1949 1.409 . S
C1947 H1939 0.930 . S
C1947 C1948 1.355 . S
C1947 C1949 1.415 . S
C1948 C1947 1.355 . S
C1948 C1950 1.419 . S
C1949 C1944 1.425 . S
C1949 C1946 1.409 . S
C1949 C1947 1.415 . S
C1950 H1940 0.930 . S
C1950 C1948 1.419 . S
C1950 C1951 1.362 . S
C1951 H1941 0.930 . S
C1951 C1944 1.409 . S
C1951 C1950 1.362 . S
H1952 C1958 0.930 . S
H1953 C1961 0.930 . S
H1954 C1962 0.930 . S
H1955 C1963 0.930 . S
H1956 C1966 0.930 . S
H1957 C1967 0.930 . S
C1958 H1952 0.930 . S
C1958 C1959 1.355 . S
C1958 C1960 1.415 . S
C1959 C1958 1.355 . S
C1959 C1961 1.419 . S
C1960 C1958 1.415 . S
C1960 C1965 1.425 . S
C1960 C1967 1.409 . S
C1961 H1953 0.930 . S
C1961 C1959 1.419 . S
C1961 C1962 1.362 . S
C1962 H1954 0.930 . S
C1962 C1961 1.362 . S
C1962 C1965 1.409 . S
C1963 H1955 0.930 . S
C1963 C1964 1.355 . S
C1963 C1965 1.415 . S
C1964 C1963 1.355 . S
C1964 C1966 1.419 . S
C1965 C1960 1.425 . S
C1965 C1962 1.409 . S
C1965 C1963 1.415 . S
C1966 H1956 0.930 . S
C1966 C1964 1.419 . S
C1966 C1967 1.362 . S
C1967 H1957 0.930 . S
C1967 C1960 1.409 . S
C1967 C1966 1.362 . S
H1968 C1974 0.930 . S
H1969 C1977 0.930 . S
H1970 C1978 0.930 . S
H1971 C1979 0.930 . S
H1972 C1982 0.930 . S
H1973 C1983 0.930 . S
C1974 H1968 0.930 . S
C1974 C1975 1.355 . S
C1974 C1976 1.415 . S
C1975 C1974 1.355 . S
C1975 C1977 1.419 . S
C1976 C1974 1.415 . S
C1976 C1981 1.425 . S
C1976 C1983 1.409 . S
C1977 H1969 0.930 . S
C1977 C1975 1.419 . S
C1977 C1978 1.362 . S
C1978 H1970 0.930 . S
C1978 C1977 1.362 . S
C1978 C1981 1.409 . S
C1979 H1971 0.930 . S
C1979 C1980 1.355 . S
C1979 C1981 1.415 . S
C1980 C1979 1.355 . S
C1980 C1982 1.419 . S
C1981 C1976 1.425 . S
C1981 C1978 1.409 . S
C1981 C1979 1.415 . S
C1982 H1972 0.930 . S
C1982 C1980 1.419 . S
C1982 C1983 1.362 . S
C1983 H1973 0.930 . S
C1983 C1976 1.409 . S
C1983 C1982 1.362 . S
H1984 C1990 0.930 . S
H1985 C1993 0.930 . S
H1986 C1994 0.930 . S
H1987 C1995 0.930 . S
H1988 C1998 0.930 . S
H1989 C1999 0.930 . S
C1990 H1984 0.930 . S
C1990 C1991 1.355 . S
C1990 C1992 1.415 . S
C1991 C1990 1.355 . S
C1991 C1993 1.419 . S
C1992 C1990 1.415 . S
C1992 C1997 1.425 . S
C1992 C1999 1.409 . S
C1993 H1985 0.930 . S
C1993 C1991 1.419 . S
C1993 C1994 1.362 . S
C1994 H1986 0.930 . S
C1994 C1993 1.362 . S
C1994 C1997 1.409 . S
C1995 H1987 0.930 . S
C1995 C1996 1.355 . S
C1995 C1997 1.415 . S
C1996 C1995 1.355 . S
C1996 C1998 1.419 . S
C1997 C1992 1.425 . S
C1997 C1994 1.409 . S
C1997 C1995 1.415 . S
C1998 H1988 0.930 . S
C1998 C1996 1.419 . S
C1998 C1999 1.362 . S
C1999 H1989 0.930 . S
C1999 C1992 1.409 . S
C1999 C1998 1.362 . S
H2000 C2006 0.930 . S
H2001 C2009 0.930 . S
H2002 C2010 0.930 . S
H2003 C2011 0.930 . S
H2004 C2014 0.930 . S
H2005 C2015 0.930 . S
C2006 H2000 0.930 . S
C2006 C2007 1.355 . S
C2006 C2008 1.415 . S
C2007 C2006 1.355 . S
C2007 C2009 1.419 . S
C2008 C2006 1.415 . S
C2008 C2013 1.425 . S
C2008 C2015 1.409 . S
C2009 H2001 0.930 . S
C2009 C2007 1.419 . S
C2009 C2010 1.362 . S
C2010 H2002 0.930 . S
C2010 C2009 1.362 . S
C2010 C2013 1.409 . S
C2011 H2003 0.930 . S
C2011 C2012 1.355 . S
C2011 C2013 1.415 . S
C2012 C2011 1.355 . S
C2012 C2014 1.419 . S
C2013 C2008 1.425 . S
C2013 C2010 1.409 . S
C2013 C2011 1.415 . S
C2014 H2004 0.930 . S
C2014 C2012 1.419 . S
C2014 C2015 1.362 . S
C2015 H2005 0.930 . S
C2015 C2008 1.409 . S
C2015 C2014 1.362 . S
H2016 C2022 0.930 . S
H2017 C2025 0.930 . S
H2018 C2026 0.930 . S
H2019 C2027 0.930 . S
H2020 C2030 0.930 . S
H2021 C2031 0.930 . S
C2022 H2016 0.930 . S
C2022 C2023 1.355 . S
C2022 C2024 1.415 . S
C2023 C2022 1.355 . S
C2023 C2025 1.419 . S
C2024 C2022 1.415 . S
C2024 C2029 1.425 . S
C2024 C2031 1.409 . S
C2025 H2017 0.930 . S
C2025 C2023 1.419 . S
C2025 C2026 1.362 . S
C2026 H2018 0.930 . S
C2026 C2025 1.362 . S
C2026 C2029 1.409 . S
C2027 H2019 0.930 . S
C2027 C2028 1.355 . S
C2027 C2029 1.415 . S
C2028 C2027 1.355 . S
C2028 C2030 1.419 . S
C2029 C2024 1.425 . S
C2029 C2026 1.409 . S
C2029 C2027 1.415 . S
C2030 H2020 0.930 . S
C2030 C2028 1.419 . S
C2030 C2031 1.362 . S
C2031 H2021 0.930 . S
C2031 C2024 1.409 . S
C2031 C2030 1.362 . S
H2032 C2038 0.930 . S
H2033 C2041 0.930 . S
H2034 C2042 0.930 . S
H2035 C2043 0.930 . S
H2036 C2046 0.930 . S
H2037 C2047 0.930 . S
C2038 H2032 0.930 . S
C2038 C2039 1.355 . S
C2038 C2040 1.415 . S
C2039 C2038 1.355 . S
C2039 C2041 1.419 . S
C2040 C2038 1.415 . S
C2040 C2045 1.425 . S
C2040 C2047 1.409 . S
C2041 H2033 0.930 . S
C2041 C2039 1.419 . S
C2041 C2042 1.362 . S
C2042 H2034 0.930 . S
C2042 C2041 1.362 . S
C2042 C2045 1.409 . S
C2043 H2035 0.930 . S
C2043 C2044 1.355 . S
C2043 C2045 1.415 . S
C2044 C2043 1.355 . S
C2044 C2046 1.419 . S
C2045 C2040 1.425 . S
C2045 C2042 1.409 . S
C2045 C2043 1.415 . S
C2046 H2036 0.930 . S
C2046 C2044 1.419 . S
C2046 C2047 1.362 . S
C2047 H2037 0.930 . S
C2047 C2040 1.409 . S
C2047 C2046 1.362 . S
H2048 C2054 0.930 . S
H2049 C2057 0.930 . S
H2050 C2058 0.930 . S
H2051 C2059 0.930 . S
H2052 C2062 0.930 . S
H2053 C2063 0.930 . S
C2054 H2048 0.930 . S
C2054 C2055 1.355 . S
C2054 C2056 1.415 . S
C2055 C2054 1.355 . S
C2055 C2057 1.419 . S
C2056 C2054 1.415 . S
C2056 C2061 1.425 . S
C2056 C2063 1.409 . S
C2057 H2049 0.930 . S
C2057 C2055 1.419 . S
C2057 C2058 1.362 . S
C2058 H2050 0.930 . S
C2058 C2057 1.362 . S
C2058 C2061 1.409 . S
C2059 H2051 0.930 . S
C2059 C2060 1.355 . S
C2059 C2061 1.415 . S
C2060 C2059 1.355 . S
C2060 C2062 1.419 . S
C2061 C2056 1.425 . S
C2061 C2058 1.409 . S
C2061 C2059 1.415 . S
C2062 H2052 0.930 . S
C2062 C2060 1.419 . S
C2062 C2063 1.362 . S
C2063 H2053 0.930 . S
C2063 C2056 1.409 . S
C2063 C2062 1.362 . S
H2064 C2070 0.930 . S
H2065 C2073 0.930 . S
H2066 C2074 0.930 . S
H2067 C2075 0.930 . S
H2068 C2078 0.930 . S
H2069 C2079 0.930 . S
C2070 H2064 0.930 . S
C2070 C2071 1.355 . S
C2070 C2072 1.415 . S
C2071 C2070 1.355 . S
C2071 C2073 1.419 . S
C2072 C2070 1.415 . S
C2072 C2077 1.425 . S
C2072 C2079 1.409 . S
C2073 H2065 0.930 . S
C2073 C2071 1.419 . S
C2073 C2074 1.362 . S
C2074 H2066 0.930 . S
C2074 C2073 1.362 . S
C2074 C2077 1.409 . S
C2075 H2067 0.930 . S
C2075 C2076 1.355 . S
C2075 C2077 1.415 . S
C2076 C2075 1.355 . S
C2076 C2078 1.419 . S
C2077 C2072 1.425 . S
C2077 C2074 1.409 . S
C2077 C2075 1.415 . S
C2078 H2068 0.930 . S
C2078 C2076 1.419 . S
C2078 C2079 1.362 . S
C2079 H2069 0.930 . S
C2079 C2072 1.409 . S
C2079 C2078 1.362 . S
H2080 C2086 0.930 . S
H2081 C2089 0.930 . S
H2082 C2090 0.930 . S
H2083 C2091 0.930 . S
H2084 C2094 0.930 . S
H2085 C2095 0.930 . S
C2086 H2080 0.930 . S
C2086 C2087 1.355 . S
C2086 C2088 1.415 . S
C2087 C2086 1.355 . S
C2087 C2089 1.419 . S
C2088 C2086 1.415 . S
C2088 C2093 1.425 . S
C2088 C2095 1.409 . S
C2089 H2081 0.930 . S
C2089 C2087 1.419 . S
C2089 C2090 1.362 . S
C2090 H2082 0.930 . S
C2090 C2089 1.362 . S
C2090 C2093 1.409 . S
C2091 H2083 0.930 . S
C2091 C2092 1.355 . S
C2091 C2093 1.415 . S
C2092 C2091 1.355 . S
C2092 C2094 1.419 . S
C2093 C2088 1.425 . S
C2093 C2090 1.409 . S
C2093 C2091 1.415 . S
C2094 H2084 0.930 . S
C2094 C2092 1.419 . S
C2094 C2095 1.362 . S
C2095 H2085 0.930 . S
C2095 C2088 1.409 . S
C2095 C2094 1.362 . S
H2096 C2102 0.930 . S
H2097 C2105 0.930 . S
H2098 C2106 0.930 . S
H2099 C2107 0.930 . S
H2100 C2110 0.930 . S
H2101 C2111 0.930 . S
C2102 H2096 0.930 . S
C2102 C2103 1.355 . S
C2102 C2104 1.415 . S
C2103 C2102 1.355 . S
C2103 C2105 1.419 . S
C2104 C2102 1.415 . S
C2104 C2109 1.425 . S
C2104 C2111 1.409 . S
C2105 H2097 0.930 . S
C2105 C2103 1.419 . S
C2105 C2106 1.362 . S
C2106 H2098 0.930 . S
C2106 C2105 1.362 . S
C2106 C2109 1.409 . S
C2107 H2099 0.930 . S
C2107 C2108 1.355 . S
C2107 C2109 1.415 . S
C2108 C2107 1.355 . S
C2108 C2110 1.419 . S
C2109 C2104 1.425 . S
C2109 C2106 1.409 . S
C2109 C2107 1.415 . S
C2110 H2100 0.930 . S
C2110 C2108 1.419 . S
C2110 C2111 1.362 . S
C2111 H2101 0.930 . S
C2111 C2104 1.409 . S
C2111 C2110 1.362 . S
H2112 C2118 0.930 . S
H2113 C2121 0.930 . S
H2114 C2122 0.930 . S
H2115 C2123 0.930 . S
H2116 C2126 0.930 . S
H2117 C2127 0.930 . S
C2118 H2112 0.930 . S
C2118 C2119 1.355 . S
C2118 C2120 1.415 . S
C2119 C2118 1.355 . S
C2119 C2121 1.419 . S
C2120 C2118 1.415 . S
C2120 C2125 1.425 . S
C2120 C2127 1.409 . S
C2121 H2113 0.930 . S
C2121 C2119 1.419 . S
C2121 C2122 1.362 . S
C2122 H2114 0.930 . S
C2122 C2121 1.362 . S
C2122 C2125 1.409 . S
C2123 H2115 0.930 . S
C2123 C2124 1.355 . S
C2123 C2125 1.415 . S
C2124 C2123 1.355 . S
C2124 C2126 1.419 . S
C2125 C2120 1.425 . S
C2125 C2122 1.409 . S
C2125 C2123 1.415 . S
C2126 H2116 0.930 . S
C2126 C2124 1.419 . S
C2126 C2127 1.362 . S
C2127 H2117 0.930 . S
C2127 C2120 1.409 . S
C2127 C2126 1.362 . S
H2128 C2134 0.930 . S
H2129 C2137 0.930 1_565 S
H2130 C2138 0.930 . S
H2131 C2139 0.930 . S
H2132 C2142 0.930 . S
H2133 C2143 0.930 . S
C2134 H2128 0.930 . S
C2134 C2135 1.355 . S
C2134 C2136 1.415 . S
C2135 C2134 1.355 . S
C2135 C2137 1.419 . S
C2136 C2134 1.415 . S
C2136 C2141 1.425 . S
C2136 C2143 1.409 . S
C2137 H2129 0.930 1_545 S
C2137 C2135 1.419 . S
C2137 C2138 1.362 . S
C2138 H2130 0.930 . S
C2138 C2137 1.362 . S
C2138 C2141 1.409 . S
C2139 H2131 0.930 . S
C2139 C2140 1.355 . S
C2139 C2141 1.415 . S
C2140 C2139 1.355 . S
C2140 C2142 1.419 . S
C2141 C2136 1.425 . S
C2141 C2138 1.409 . S
C2141 C2139 1.415 . S
C2142 H2132 0.930 . S
C2142 C2140 1.419 . S
C2142 C2143 1.362 . S
C2143 H2133 0.930 . S
C2143 C2136 1.409 . S
C2143 C2142 1.362 . S
H2144 C2150 0.930 . S
H2145 C2153 0.930 . S
H2146 C2154 0.930 . S
H2147 C2155 0.930 . S
H2148 C2158 0.930 . S
H2149 C2159 0.930 . S
C2150 H2144 0.930 . S
C2150 C2151 1.355 . S
C2150 C2152 1.415 . S
C2151 C2150 1.355 . S
C2151 C2153 1.419 . S
C2152 C2150 1.415 . S
C2152 C2157 1.425 . S
C2152 C2159 1.409 . S
C2153 H2145 0.930 . S
C2153 C2151 1.419 . S
C2153 C2154 1.362 . S
C2154 H2146 0.930 . S
C2154 C2153 1.362 . S
C2154 C2157 1.409 . S
C2155 H2147 0.930 . S
C2155 C2156 1.355 . S
C2155 C2157 1.415 . S
C2156 C2155 1.355 . S
C2156 C2158 1.419 . S
C2157 C2152 1.425 . S
C2157 C2154 1.409 . S
C2157 C2155 1.415 . S
C2158 H2148 0.930 . S
C2158 C2156 1.419 . S
C2158 C2159 1.362 . S
C2159 H2149 0.930 . S
C2159 C2152 1.409 . S
C2159 C2158 1.362 . S
H2160 C2166 0.930 . S
H2161 C2169 0.930 . S
H2162 C2170 0.930 . S
H2163 C2171 0.930 . S
H2164 C2174 0.930 . S
H2165 C2175 0.930 . S
C2166 H2160 0.930 . S
C2166 C2167 1.355 . S
C2166 C2168 1.415 . S
C2167 C2166 1.355 . S
C2167 C2169 1.419 . S
C2168 C2166 1.415 . S
C2168 C2173 1.425 . S
C2168 C2175 1.409 . S
C2169 H2161 0.930 . S
C2169 C2167 1.419 . S
C2169 C2170 1.362 . S
C2170 H2162 0.930 . S
C2170 C2169 1.362 . S
C2170 C2173 1.409 . S
C2171 H2163 0.930 . S
C2171 C2172 1.355 . S
C2171 C2173 1.415 . S
C2172 C2171 1.355 . S
C2172 C2174 1.419 . S
C2173 C2168 1.425 . S
C2173 C2170 1.409 . S
C2173 C2171 1.415 . S
C2174 H2164 0.930 . S
C2174 C2172 1.419 . S
C2174 C2175 1.362 . S
C2175 H2165 0.930 . S
C2175 C2168 1.409 . S
C2175 C2174 1.362 . S
H2176 C2182 0.930 . S
H2177 C2185 0.930 . S
H2178 C2186 0.930 . S
H2179 C2187 0.930 . S
H2180 C2190 0.930 . S
H2181 C2191 0.930 . S
C2182 H2176 0.930 . S
C2182 C2183 1.355 . S
C2182 C2184 1.415 . S
C2183 C2182 1.355 . S
C2183 C2185 1.419 . S
C2184 C2182 1.415 . S
C2184 C2189 1.425 . S
C2184 C2191 1.409 . S
C2185 H2177 0.930 . S
C2185 C2183 1.419 . S
C2185 C2186 1.362 . S
C2186 H2178 0.930 . S
C2186 C2185 1.362 . S
C2186 C2189 1.409 . S
C2187 H2179 0.930 . S
C2187 C2188 1.355 . S
C2187 C2189 1.415 . S
C2188 C2187 1.355 . S
C2188 C2190 1.419 . S
C2189 C2184 1.425 . S
C2189 C2186 1.409 . S
C2189 C2187 1.415 . S
C2190 H2180 0.930 . S
C2190 C2188 1.419 . S
C2190 C2191 1.362 . S
C2191 H2181 0.930 . S
C2191 C2184 1.409 . S
C2191 C2190 1.362 . S
H2192 C2198 0.930 . S
H2193 C2201 0.930 1_545 S
H2194 C2202 0.918 1_545 S
H2195 C2203 0.930 . S
H2196 C2206 0.930 . S
H2197 C2207 0.930 . S
C2198 H2192 0.930 . S
C2198 C2199 1.355 . S
C2198 C2200 1.415 . S
C2199 C2198 1.355 . S
C2199 C2201 1.419 . S
C2200 C2198 1.415 . S
C2200 C2205 1.425 . S
C2200 C2207 1.409 . S
C2201 H2193 0.930 1_565 S
C2201 C2199 1.419 . S
C2201 C2202 1.362 . S
C2202 H2194 0.918 1_565 S
C2202 C2201 1.362 . S
C2202 C2205 1.409 . S
C2203 H2195 0.930 . S
C2203 C2204 1.355 . S
C2203 C2205 1.415 . S
C2204 C2203 1.355 . S
C2204 C2206 1.419 . S
C2205 C2200 1.425 . S
C2205 C2202 1.409 . S
C2205 C2203 1.415 . S
C2206 H2196 0.930 . S
C2206 C2204 1.419 . S
C2206 C2207 1.362 . S
C2207 H2197 0.930 . S
C2207 C2200 1.409 . S
C2207 C2206 1.362 . S
H2208 C2214 0.930 . S
H2209 C2217 0.930 . S
H2210 C2218 0.930 1_655 S
H2211 C2219 0.930 . S
H2212 C2222 0.926 1_655 S
H2213 C2223 0.930 . S
C2214 H2208 0.930 . S
C2214 C2215 1.355 . S
C2214 C2216 1.415 . S
C2215 C2214 1.355 . S
C2215 C2217 1.419 . S
C2216 C2214 1.415 . S
C2216 C2221 1.425 . S
C2216 C2223 1.409 . S
C2217 H2209 0.930 . S
C2217 C2215 1.419 . S
C2217 C2218 1.362 . S
C2218 H2210 0.930 1_455 S
C2218 C2217 1.362 . S
C2218 C2221 1.409 . S
C2219 H2211 0.930 . S
C2219 C2220 1.355 . S
C2219 C2221 1.415 1_655 S
C2220 C2219 1.355 . S
C2220 C2222 1.393 1_655 S
C2221 C2216 1.425 . S
C2221 C2218 1.409 . S
C2221 C2219 1.415 1_455 S
C2222 H2212 0.926 1_455 S
C2222 C2220 1.393 1_455 S
C2222 C2223 1.391 . S
C2223 H2213 0.930 . S
C2223 C2216 1.409 . S
C2223 C2222 1.391 . S
C700 C343 1.213 . S
C695 C7 1.285 . S
C711 C23 1.255 . S
C716 C363 1.233 . S
C732 C384 1.177 . S
C727 C36 1.194 . S
C748 C411 1.120 . S
C743 C45 1.233 . S
C764 C367 1.224 . S
C759 C59 1.233 . S
C775 C78 1.166 . S
C780 C387 1.060 . S
C796 C407 1.143 . S
C791 C93 1.270 . S
C807 C105 1.279 . S
C812 C340 1.192 . S
C823 C115 1.298 . S
C828 C345 1.276 . S
C844 C362 1.115 . S
C839 C133 1.200 . S
C860 C386 1.180 . S
C855 C148 1.244 . S
C876 C410 1.189 . S
C871 C163 1.182 . S
C892 C366 1.104 . S
C887 C121 1.233 . S
C908 C389 1.154 . S
C903 C134 1.189 . S
C919 C147 1.261 . S
C924 C406 1.230 . S
C940 C342 1.183 . S
C935 C157 1.313 . S
C951 C175 1.300 . S
C956 C344 1.243 . S
C967 C191 1.272 . S
C972 C431 1.139 . S
C988 C451 1.187 . S
C983 C199 1.245 . S
C1004 C474 1.196 . S
C999 C218 1.219 . S
C1015 C231 1.278 . S
C1020 C341 1.215 . S
C1031 C241 1.241 . S
C1036 C385 1.203 . S
C1052 C475 1.136 . S
C1047 C205 1.255 . S
C1068 C430 1.196 . S
C1063 C260 1.219 . S
C1084 C498 1.129 . S
C1079 C22 1.097 . S
C1100 C519 1.201 . S
C1095 C9 1.253 . S
C1111 C49 1.251 . S
C1116 C538 1.152 . S
C1127 C31 1.170 . S
C1132 C563 1.151 . S
C1143 C101 1.196 . S
C1148 C518 1.089 . S
C1159 C91 1.233 . S
C1164 C543 1.213 . S
C1180 C562 1.204 . S
C1175 C79 1.196 . S
C1191 C64 1.099 . S
C1196 C495 1.123 . S
C1207 C274 1.097 . S
C1212 C499 1.127 . S
C1228 C520 1.118 . S
C1223 C213 1.180 . S
C1244 C539 1.214 . S
C1239 C233 1.266 . S
C1260 C564 1.234 . S
C1255 C189 1.225 . S
C1276 C516 1.205 . S
C1271 C273 1.215 . S
C1292 C541 1.254 . S
C1287 C219 1.221 . S
C1308 C560 1.156 . S
C1303 C227 1.172 . S
C1319 C190 1.098 . S
C1324 C496 1.129 . S
C1340 C497 1.102 . S
C1335 C289 1.156 . S
C1351 C162 1.197 . S
C1356 C583 1.214 . S
C1372 C608 1.188 . S
C1367 C301 1.210 . S
C1383 C129 1.236 . S
C1388 C627 1.150 . S
C1404 C494 1.116 . S
C1399 C149 1.091 . S
C1420 C540 1.144 . S
C1415 C315 1.217 . S
C1436 C631 1.138 . S
C1431 C302 1.227 . S
C1447 C325 1.222 . S
C1452 C587 1.239 . S
C1463 C35 1.293 . S
C1468 C651 1.218 . S
C1479 C51 1.257 . S
C1484 C429 1.123 . S
C1500 C453 1.168 . S
C1495 C8 1.183 . S
C1511 C17 1.266 . S
C1516 C477 1.215 . S
C1527 C87 1.221 . S
C1532 C433 1.195 . S
C1543 C106 1.143 . S
C1548 C450 1.080 . S
C1564 C473 1.166 . S
C1559 C65 1.275 . S
C1580 C648 1.177 . S
C1575 C77 1.269 . S
C1596 C653 1.275 . S
C1591 C297 1.334 . S
C1612 C428 1.225 . S
C1607 C287 1.260 . S
C1628 C455 1.197 . S
C1623 C330 1.246 . S
C1639 C317 1.182 . S
C1644 C476 1.189 . S
C1660 C432 1.087 . S
C1655 C303 1.220 . S
C1671 C288 1.212 . S
C1676 C452 1.194 . S
C1692 C472 1.121 . S
C1687 C329 1.204 . S
C1703 C311 1.330 . S
C1708 C650 1.210 . S
C1724 C652 1.242 . S
C1719 C217 1.294 . S
C1735 C247 1.256 . S
C1740 C365 1.253 . S
C1756 C388 1.141 . S
C1751 C269 1.244 . S
C1767 C176 1.169 . S
C1772 C408 1.074 . S
C1788 C649 1.193 . S
C1783 C259 1.272 . S
C1804 C454 1.214 . S
C1799 C185 1.228 . S
C1820 C409 1.171 . S
C1815 C275 1.229 . S
C1836 C364 1.163 . S
C1831 C232 1.184 . S
C1847 C50 1.099 . S
C1852 C675 1.123 . S
C1863 C37 1.250 . S
C1868 C585 1.208 . S
C1879 C21 1.265 . S
C1884 C604 1.185 . S
C1900 C629 1.147 . S
C1895 C3 1.170 . S
C1916 C584 1.189 . S
C1911 C73 1.185 . S
C1927 C63 1.235 . S
C1932 C609 1.195 . S
C1948 C628 1.180 . S
C1943 C107 1.257 . S
C1959 C92 1.133 . S
C1964 C670 1.028 . S
C1980 C673 1.033 . S
C1975 C204 1.132 . S
C1991 C171 1.187 . S
C1996 C586 1.188 . S
C2007 C261 1.209 . S
C2012 C605 1.238 . S
C2028 C630 1.152 . S
C2023 C245 1.225 . S
C2044 C582 1.140 . S
C2039 C203 1.233 . S
C2055 C177 1.223 . S
C2060 C607 1.255 . S
C2076 C626 1.136 . S
C2071 C255 1.175 . S
C2092 C671 1.050 . S
C2087 C246 1.127 . S
C2108 C674 1.064 . S
C2103 C135 1.158 . S
C2124 C517 1.169 . S
C2119 C316 1.215 . S
C2135 C119 1.215 . S
C2140 C542 1.124 . S
C2151 C283 1.255 . S
C2156 C561 1.187 . S
C2172 C672 1.147 . S
C2167 C331 1.101 . S
C2188 C606 1.135 . S
C2183 C161 1.217 . S
C2204 C565 1.179 . S
C2199 C120 1.211 . S
C2220 C521 1.230 . S
C2215 C143 1.216 . S
