# Generated by pormake.
# Topology zzz, (3,6)-cn, num edge types: 1
# Building blocks:
#     Node 0, Type 0, BuildingBlock: OLANEW_clean_sbu_2, # of connection points: 3
#     Node 1, Type 0, BuildingBlock: OLANEW_clean_sbu_2, # of connection points: 3
#     Node 2, Type 0, BuildingBlock: OLANEW_clean_sbu_2, # of connection points: 3
#     Node 3, Type 0, BuildingBlock: OLANEW_clean_sbu_2, # of connection points: 3
#     Node 4, Type 0, BuildingBlock: OLANEW_clean_sbu_2, # of connection points: 3
#     Node 5, Type 0, BuildingBlock: OLANEW_clean_sbu_2, # of connection points: 3
#     Node 6, Type 0, BuildingBlock: OLANEW_clean_sbu_2, # of connection points: 3
#     Node 7, Type 0, BuildingBlock: OLANEW_clean_sbu_2, # of connection points: 3
#     Node 8, Type 1, BuildingBlock: JUFBIX_clean_sbu_0, # of connection points: 6
#     Node 9, Type 1, BuildingBlock: JUFBIX_clean_sbu_0, # of connection points: 6
#     Node 10, Type 1, BuildingBlock: JUFBIX_clean_sbu_0, # of connection points: 6
#     Node 11, Type 1, BuildingBlock: JUFBIX_clean_sbu_0, # of connection points: 6
#     Edge 12, Type (0, 1), BuildingBlock: XUDNAN_clean_linker_2, # of connection points: 2
#     Edge 13, Type (0, 1), BuildingBlock: XUDNAN_clean_linker_2, # of connection points: 2
#     Edge 14, Type (0, 1), BuildingBlock: XUDNAN_clean_linker_2, # of connection points: 2
#     Edge 15, Type (0, 1), BuildingBlock: XUDNAN_clean_linker_2, # of connection points: 2
#     Edge 16, Type (0, 1), BuildingBlock: XUDNAN_clean_linker_2, # of connection points: 2
#     Edge 17, Type (0, 1), BuildingBlock: XUDNAN_clean_linker_2, # of connection points: 2
#     Edge 18, Type (0, 1), BuildingBlock: XUDNAN_clean_linker_2, # of connection points: 2
#     Edge 19, Type (0, 1), BuildingBlock: XUDNAN_clean_linker_2, # of connection points: 2
#     Edge 20, Type (0, 1), BuildingBlock: XUDNAN_clean_linker_2, # of connection points: 2
#     Edge 21, Type (0, 1), BuildingBlock: XUDNAN_clean_linker_2, # of connection points: 2
#     Edge 22, Type (0, 1), BuildingBlock: XUDNAN_clean_linker_2, # of connection points: 2
#     Edge 23, Type (0, 1), BuildingBlock: XUDNAN_clean_linker_2, # of connection points: 2
#     Edge 24, Type (0, 1), BuildingBlock: XUDNAN_clean_linker_2, # of connection points: 2
#     Edge 25, Type (0, 1), BuildingBlock: XUDNAN_clean_linker_2, # of connection points: 2
#     Edge 26, Type (0, 1), BuildingBlock: XUDNAN_clean_linker_2, # of connection points: 2
#     Edge 27, Type (0, 1), BuildingBlock: XUDNAN_clean_linker_2, # of connection points: 2
#     Edge 28, Type (0, 1), BuildingBlock: XUDNAN_clean_linker_2, # of connection points: 2
#     Edge 29, Type (0, 1), BuildingBlock: XUDNAN_clean_linker_2, # of connection points: 2
#     Edge 30, Type (0, 1), BuildingBlock: XUDNAN_clean_linker_2, # of connection points: 2
#     Edge 31, Type (0, 1), BuildingBlock: XUDNAN_clean_linker_2, # of connection points: 2
#     Edge 32, Type (0, 1), BuildingBlock: XUDNAN_clean_linker_2, # of connection points: 2
#     Edge 33, Type (0, 1), BuildingBlock: XUDNAN_clean_linker_2, # of connection points: 2
#     Edge 34, Type (0, 1), BuildingBlock: XUDNAN_clean_linker_2, # of connection points: 2
#     Edge 35, Type (0, 1), BuildingBlock: XUDNAN_clean_linker_2, # of connection points: 2
# Relax obj value: 0.116
# Max RMSD: 0.177
# Mean RMSD: 0.088
data_MOF--net-zzz--node1-OLANEW_clean_sbu_2--node2-JUFBIX_clean_sbu_0--edge1-XUDNAN_clean_linker_2
_symmetry_space_group_name_H-M    P1
_symmetry_Int_Tables_number       1
_symmetry_cell_setting            triclinic
loop_
_symmetry_equiv_pos_as_xyz
'x, y, z'
_cell_length_a     55.188816
_cell_length_b     54.640574
_cell_length_c     19.316605
_cell_angle_alpha  81.944007
_cell_angle_beta   89.968007
_cell_angle_gamma 91.847453
loop_
_atom_site_label
_atom_site_type_symbol
_atom_site_fract_x
_atom_site_fract_y
_atom_site_fract_z
_atom_type_partial_charge
O0 O 0.82491 0.60537 0.00721 0.0
Cd1 Cd 0.78937 0.62835 0.02973 0.0
O2 O 0.82035 0.58531 0.1132 0.0
Cd3 Cd 0.83404 0.55999 0.20067 0.0
O4 O 0.85699 0.54173 0.28248 0.0
C5 C 0.87279 0.55499 0.30913 0.0
O6 O 0.87431 0.57885 0.28692 0.0
C7 C 0.83159 0.5886 0.05503 0.0
C8 C 0.74884 0.59728 0.02212 0.0
O9 O 0.75619 0.61219 0.96851 0.0
O10 O 0.76029 0.59758 0.07971 0.0
O11 O 0.9095 0.79386 0.03212 0.0
Cd12 Cd 0.89266 0.75464 0.09072 0.0
O13 O 0.91953 0.80835 0.12891 0.0
Cd14 Cd 0.93688 0.83435 0.19205 0.0
O15 O 0.94813 0.86397 0.25172 0.0
C16 C 0.93205 0.87861 0.26632 0.0
O17 O 0.90969 0.87519 0.24549 0.0
C18 C 0.91914 0.81091 0.06237 0.0
C19 C 0.92118 0.71755 0.05237 0.0
O20 O 0.90332 0.72568 0.0145 0.0
O21 O 0.92512 0.72646 0.10943 0.0
O22 O 0.72566 0.96297 0.96503 0.0
Cd23 Cd 0.76322 0.94053 0.97158 0.0
O24 O 0.7216 0.95519 0.07891 0.0
Cd25 Cd 0.70243 0.95343 0.17891 0.0
O26 O 0.68281 0.95674 0.27522 0.0
C27 C 0.6602 0.96048 0.2729 0.0
O28 O 0.64902 0.96173 0.21253 0.0
C29 C 0.71354 0.96482 0.0199 0.0
C30 C 0.80252 0.96896 0.91097 0.0
O31 O 0.78825 0.9572 0.87389 0.0
O32 O 0.79803 0.96747 0.97658 0.0
O33 O 0.5997 0.72032 0.9396 0.0
Cd34 Cd 0.62399 0.75535 0.96988 0.0
O35 O 0.60956 0.69784 0.03806 0.0
Cd36 Cd 0.60704 0.66529 0.11856 0.0
O37 O 0.60546 0.63607 0.20845 0.0
C38 C 0.58513 0.62719 0.23277 0.0
O39 O 0.56515 0.63535 0.20193 0.0
C40 C 0.59798 0.70004 0.98071 0.0
C41 C 0.59528 0.7966 0.96368 0.0
O42 O 0.60827 0.79316 0.91108 0.0
O43 O 0.59621 0.78077 0.01916 0.0
O44 O 0.21061 0.43363 0.58357 0.0
Cd45 Cd 0.24397 0.40855 0.55529 0.0
O46 O 0.18684 0.41962 0.50592 0.0
Cd47 Cd 0.15414 0.42273 0.44226 0.0
O48 O 0.12902 0.43761 0.36138 0.0
C49 C 0.1259 0.46077 0.35295 0.0
O50 O 0.13694 0.47434 0.39519 0.0
C51 C 0.19033 0.43353 0.55268 0.0
C52 C 0.28664 0.42701 0.60834 0.0
O53 O 0.27984 0.43473 0.54588 0.0
O54 O 0.2735 0.41023 0.64499 0.0
O55 O 0.11502 0.22804 0.58875 0.0
Cd56 Cd 0.13131 0.26708 0.52686 0.0
O57 O 0.11343 0.20918 0.4958 0.0
Cd58 Cd 0.10749 0.17831 0.43598 0.0
O59 O 0.09728 0.14967 0.37209 0.0
C60 C 0.10114 0.12707 0.39337 0.0
O61 O 0.11214 0.12111 0.45338 0.0
C62 C 0.10955 0.20888 0.56089 0.0
C63 C 0.11439 0.30465 0.59603 0.0
O64 O 0.1026 0.29744 0.54502 0.0
O65 O 0.13462 0.29461 0.6129 0.0
O66 O 0.28842 0.91695 0.79223 0.0
Cd67 Cd 0.25146 0.89116 0.79529 0.0
O68 O 0.29394 0.91212 0.68268 0.0
Cd69 Cd 0.31505 0.9152 0.58577 0.0
O70 O 0.34007 0.92438 0.49784 0.0
C71 C 0.34574 0.90825 0.45979 0.0
O72 O 0.33611 0.88579 0.47349 0.0
C73 C 0.30095 0.92138 0.73647 0.0
C74 C 0.21102 0.91767 0.82144 0.0
O75 O 0.22365 0.90684 0.87164 0.0
O76 O 0.21749 0.91589 0.75863 0.0
O77 O 0.45602 0.29183 0.63051 0.0
Cd78 Cd 0.43063 0.25798 0.59786 0.0
O79 O 0.44101 0.31649 0.543 0.0
Cd80 Cd 0.43945 0.35109 0.47123 0.0
O81 O 0.44134 0.38138 0.38485 0.0
C82 C 0.46202 0.38925 0.36084 0.0
O83 O 0.48154 0.3795 0.39064 0.0
C84 C 0.45506 0.31323 0.59541 0.0
C85 C 0.44426 0.2131 0.67142 0.0
O86 O 0.45286 0.22068 0.61024 0.0
O87 O 0.4291 0.22666 0.6973 0.0
Co88 Co 0.0113 0.01483 0.87326 0.0
C89 C 0.96785 0.02407 0.80522 0.0
Co90 Co 0.01235 0.00924 0.76218 0.0
C91 C 0.02643 0.03079 0.00384 0.0
C92 C 0.99331 0.00906 0.01397 0.0
N93 N 0.01023 0.01895 0.96681 0.0
N94 N 0.02041 0.02837 0.07225 0.0
C95 C -0.00039 0.01469 0.0789 0.0
H96 H 0.04269 0.04039 0.98147 0.0
H97 H 0.97755 0.99813 0.00207 0.0
C98 C 0.05537 0.99859 0.83236 0.0
N99 N 0.01297 0.00439 0.66916 0.0
C100 C 0.99518 0.99346 0.63536 0.0
C101 C 0.03118 0.00915 0.6221 0.0
N102 N 0.00153 0.99101 0.56934 0.0
C103 C 0.02424 0.00078 0.56067 0.0
C104 C 0.02691 0.05649 0.78438 0.0
O105 O 0.04363 0.00457 0.8837 0.0
O106 O 0.04514 0.99958 0.77307 0.0
O107 O 0.02301 0.04269 0.73745 0.0
O108 O 0.02275 0.04799 0.84815 0.0
O109 O 0.97945 0.01856 0.75298 0.0
H110 H 0.04855 0.01765 0.63229 0.0
H111 H 0.97817 0.98653 0.65975 0.0
O112 O 0.97887 0.02464 0.8627 0.0
O113 O -3e-05 0.98167 0.89716 0.0
O114 O 0.00174 0.9758 0.78747 0.0
C115 C 0.99687 0.96758 0.85082 0.0
H116 H 0.98966 0.00925 0.12722 0.0
H117 H 0.03507 0.00167 0.51358 0.0
Co118 Co 0.49742 0.99861 0.91887 0.0
C119 C 0.51287 0.95413 0.88453 0.0
Co120 Co 0.51139 0.00133 0.81092 0.0
C121 C 0.46923 0.97833 0.03878 0.0
C122 C 0.48993 0.01044 0.05814 0.0
N123 N 0.48523 0.99581 0.00878 0.0
N124 N 0.46364 0.9814 0.10496 0.0
C125 C 0.47664 0.00165 0.11736 0.0
H126 H 0.46152 0.96386 0.01182 0.0
H127 H 0.50217 0.02647 0.05142 0.0
C128 C 0.49588 0.04583 0.84683 0.0
N129 N 0.52349 0.00394 0.72086 0.0
C130 C 0.54367 0.99385 0.69933 0.0
C131 C 0.51406 0.01641 0.66244 0.0
N132 N 0.54726 0.99949 0.62967 0.0
C133 C 0.52861 0.0137 0.60632 0.0
C134 C 0.46224 0.99077 0.82061 0.0
O135 O 0.49118 0.03265 0.90506 0.0
O136 O 0.50519 0.03587 0.79781 0.0
O137 O 0.47991 0.99462 0.77797 0.0
O138 O 0.4659 0.99162 0.88516 0.0
O139 O 0.51757 0.96675 0.82533 0.0
H140 H 0.49771 0.02688 0.66085 0.0
H141 H 0.55532 0.98234 0.73422 0.0
O142 O 0.50367 0.96462 0.93242 0.0
O143 O 0.52917 0.00533 0.95182 0.0
O144 O 0.54273 0.00776 0.84421 0.0
C145 C 0.54679 0.00822 0.9087 0.0
H146 H 0.47678 0.00944 0.16587 0.0
H147 H 0.52584 0.02191 0.55272 0.0
Co148 Co 0.54321 0.50078 0.81559 0.0
C149 C 0.50621 0.48718 0.91155 0.0
Co150 Co 0.50714 0.51166 0.77549 0.0
C151 C 0.59225 0.50813 0.86225 0.0
C152 C 0.58001 0.47023 0.88276 0.0
N153 N 0.57344 0.49269 0.8517 0.0
N154 N 0.61006 0.49629 0.89978 0.0
C155 C 0.60248 0.47239 0.91248 0.0
H156 H 0.59222 0.52795 0.84664 0.0
H157 H 0.56867 0.45357 0.88671 0.0
C158 C 0.54421 0.52547 0.67984 0.0
N159 N 0.47655 0.5188 0.74122 0.0
C160 C 0.45703 0.50334 0.7532 0.0
C161 C 0.46876 0.53821 0.69683 0.0
N162 N 0.43734 0.51211 0.71819 0.0
C163 C 0.44459 0.53406 0.6822 0.0
C164 C 0.52934 0.54768 0.84028 0.0
O165 O 0.55747 0.51553 0.72921 0.0
O166 O 0.52138 0.52551 0.68892 0.0
O167 O 0.51022 0.54282 0.80749 0.0
O168 O 0.54568 0.53171 0.84998 0.0
O169 O 0.4932 0.4978 0.86291 0.0
H170 H 0.48004 0.55401 0.67526 0.0
H171 H 0.45753 0.48538 0.7849 0.0
O172 O 0.52887 0.48619 0.90154 0.0
O173 O 0.54025 0.46992 0.78083 0.0
O174 O 0.50418 0.48052 0.74317 0.0
C175 C 0.52075 0.46482 0.75031 0.0
H176 H 0.61212 0.45769 0.94302 0.0
H177 H 0.43332 0.5461 0.64753 0.0
Co178 Co 0.01533 0.53074 0.7963 0.0
C179 C 0.03687 0.50737 0.91697 0.0
Co180 Co 0.0078 0.49049 0.8163 0.0
C181 C 0.01481 0.5778 0.8409 0.0
C182 C 0.01863 0.58185 0.72964 0.0
N183 N 0.01828 0.56484 0.78747 0.0
N184 N 0.01234 0.60207 0.81911 0.0
C185 C 0.01477 0.60482 0.74899 0.0
H186 H 0.01176 0.56922 0.89434 0.0
H187 H 0.01978 0.57761 0.67671 0.0
C188 C 0.98579 0.51348 0.69667 0.0
N189 N 0.00468 0.45641 0.82584 0.0
C190 C 0.02353 0.44118 0.83033 0.0
C191 C 0.98528 0.44219 0.81256 0.0
N192 N 0.01699 0.4183 0.81767 0.0
C193 C 0.99286 0.41874 0.80687 0.0
C194 C 0.97371 0.51442 0.87794 0.0
O195 O 0.99636 0.53286 0.71314 0.0
O196 O 0.98849 0.49295 0.73517 0.0
O197 O 0.97951 0.49246 0.87207 0.0
O198 O 0.98684 0.53238 0.84871 0.0
O199 O 0.02709 0.4881 0.89774 0.0
H200 H 0.9673 0.44898 0.8014 0.0
H201 H 0.04219 0.44749 0.83508 0.0
O202 O 0.03406 0.52819 0.87985 0.0
O203 O 0.04393 0.52899 0.74355 0.0
O204 O 0.03596 0.48903 0.75999 0.0
C205 C 0.04935 0.50732 0.73368 0.0
H206 H 0.01263 0.62191 0.71408 0.0
H207 H 0.98184 0.40376 0.79103 0.0
H208 H 0.17625 0.93599 0.72856 0.0
H209 H 0.19704 0.93062 0.9468 0.0
H210 H 0.16064 0.95306 0.97158 0.0
H211 H 0.15078 0.99729 0.71368 0.0
H212 H 0.12637 0.9895 0.65796 0.0
H213 H 0.15487 0.9744 0.65628 0.0
H214 H 0.13257 0.93165 0.68355 0.0
H215 H 0.10403 0.94661 0.68521 0.0
H216 H 0.11324 0.92532 0.75966 0.0
H217 H 0.12146 0.97472 0.97362 0.0
H218 H 0.08124 0.99273 0.95389 0.0
H219 H 0.0855 0.98335 0.73462 0.0
C220 C 0.17328 0.93975 0.78142 0.0
C221 C 0.18953 0.93164 0.83573 0.0
C222 C 0.18484 0.93666 0.90437 0.0
C223 C 0.16427 0.94947 0.91893 0.0
C224 C 0.14855 0.95708 0.8643 0.0
C225 C 0.15275 0.95236 0.79696 0.0
C226 C 0.13239 0.96149 0.74849 0.0
C227 C 0.14166 0.98189 0.69069 0.0
C228 C 0.11982 0.93998 0.71743 0.0
C229 C 0.11594 0.97178 0.79933 0.0
C230 C 0.12572 0.96926 0.86568 0.0
C231 C 0.11364 0.97689 0.92183 0.0
C232 C 0.0908 0.9871 0.91005 0.0
C233 C 0.0802 0.98945 0.84271 0.0
C234 C 0.09313 0.98189 0.78662 0.0
H235 H 0.46942 0.17633 0.6232 0.0
H236 H 0.43554 0.19633 0.80942 0.0
H237 H 0.4474 0.15668 0.87605 0.0
H238 H 0.45054 0.11286 0.6524 0.0
H239 H 0.47807 0.10188 0.6191 0.0
H240 H 0.46825 0.13247 0.58701 0.0
H241 H 0.50965 0.151 0.62116 0.0
H242 H 0.51957 0.12043 0.65356 0.0
H243 H 0.5202 0.14411 0.70985 0.0
H244 H 0.46179 0.11466 0.92157 0.0
H245 H 0.47611 0.07202 0.94207 0.0
H246 H 0.50003 0.07882 0.72571 0.0
C247 C 0.46468 0.17246 0.67814 0.0
C248 C 0.45164 0.18945 0.71124 0.0
C249 C 0.44552 0.18358 0.783 0.0
C250 C 0.45225 0.16116 0.82135 0.0
C251 C 0.46503 0.1448 0.78712 0.0
C252 C 0.4711 0.15008 0.7171 0.0
C253 C 0.48388 0.12876 0.69215 0.0
C254 C 0.46931 0.11838 0.63425 0.0
C255 C 0.50987 0.13655 0.66776 0.0
C256 C 0.48382 0.11058 0.75897 0.0
C257 C 0.47305 0.12032 0.81322 0.0
C258 C 0.47034 0.10685 0.87961 0.0
C259 C 0.47854 0.08264 0.89069 0.0
C260 C 0.48922 0.07207 0.83552 0.0
C261 C 0.4921 0.08641 0.76905 0.0
H262 H 0.31882 0.46223 0.54293 0.0
H263 H 0.30428 0.41567 0.74082 0.0
H264 H 0.34051 0.43384 0.79145 0.0
H265 H 0.3837 0.45828 0.54914 0.0
H266 H 0.38925 0.48987 0.50982 0.0
H267 H 0.36197 0.47342 0.48944 0.0
H268 H 0.33624 0.50802 0.52833 0.0
H269 H 0.36346 0.52447 0.54936 0.0
H270 H 0.3402 0.51631 0.61483 0.0
H271 H 0.37831 0.45652 0.82033 0.0
H272 H 0.41618 0.48151 0.82466 0.0
H273 H 0.40637 0.51337 0.60833 0.0
C274 C 0.32324 0.45585 0.59692 0.0
C275 C 0.3087 0.43753 0.63796 0.0
C276 C 0.31515 0.42966 0.70835 0.0
C277 C 0.33565 0.43991 0.73765 0.0
C278 C 0.3495 0.458 0.69591 0.0
C279 C 0.34366 0.46586 0.62702 0.0
C280 C 0.36188 0.48527 0.59326 0.0
C281 C 0.37497 0.47616 0.53179 0.0
C282 C 0.34971 0.50998 0.5701 0.0
C283 C 0.37889 0.48706 0.65398 0.0
C284 C 0.37136 0.47118 0.71266 0.0
C285 C 0.38438 0.46903 0.77476 0.0
C286 C 0.40589 0.48323 0.77664 0.0
C287 C 0.41418 0.49935 0.71685 0.0
C288 C 0.40027 0.50149 0.65508 0.0
H289 H 0.07128 0.32798 0.57501 0.0
H290 H 0.13446 0.32257 0.70948 0.0
H291 H 0.11599 0.35071 0.78259 0.0
H292 H 0.06097 0.39313 0.58487 0.0
H293 H 0.02847 0.38883 0.58365 0.0
H294 H 0.04735 0.36933 0.54027 0.0
H295 H 0.02699 0.33054 0.61285 0.0
H296 H 0.00829 0.34989 0.65719 0.0
H297 H 0.0272 0.32763 0.70699 0.0
H298 H 0.09003 0.37872 0.84264 0.0
H299 H 0.05911 0.4057 0.88212 0.0
H300 H 0.0129 0.39171 0.70976 0.0
C301 C 0.08137 0.33287 0.61943 0.0
C302 C 0.1043 0.32304 0.63659 0.0
C303 C 0.11686 0.32989 0.69527 0.0
C304 C 0.10651 0.34582 0.7372 0.0
C305 C 0.08362 0.35474 0.71964 0.0
C306 C 0.07131 0.34869 0.66179 0.0
C307 C 0.0469 0.36058 0.65453 0.0
C308 C 0.04587 0.37907 0.58682 0.0
C309 C 0.02612 0.34098 0.65813 0.0
C310 C 0.0471 0.37375 0.71834 0.0
C311 C 0.06853 0.37037 0.75491 0.0
C312 C 0.07314 0.38139 0.81461 0.0
C313 C 0.05551 0.39657 0.83676 0.0
C314 C 0.03352 0.40036 0.79972 0.0
C315 C 0.02924 0.38857 0.7402 0.0
H316 H 0.84077 0.98754 0.97935 0.0
H317 H 0.81354 0.98108 0.77178 0.0
H318 H 0.85136 0.00121 0.72008 0.0
H319 H 0.87531 0.04706 0.93455 0.0
H320 H 0.89972 0.03702 0.9926 0.0
H321 H 0.86916 0.02554 0.01265 0.0
H322 H 0.8834 0.98042 0.02007 0.0
H323 H 0.9139 0.99178 0.00058 0.0
H324 H 0.89937 0.97123 0.94695 0.0
H325 H 0.89398 0.017 0.69207 0.0
H326 H 0.93823 0.02552 0.6907 0.0
H327 H 0.93717 0.02225 0.91648 0.0
C328 C 0.84248 0.99093 0.92294 0.0
C329 C 0.82414 0.98294 0.87955 0.0
C330 C 0.82733 0.98716 0.80603 0.0
C331 C 0.84869 0.99869 0.77616 0.0
C332 C 0.86663 0.00596 0.82053 0.0
C333 C 0.86372 0.00224 0.89239 0.0
C334 C 0.88663 0.00928 0.92888 0.0
C335 C 0.88245 0.03102 0.96956 0.0
C336 C 0.89639 0.98685 0.97689 0.0
C337 C 0.90308 0.01698 0.86644 0.0
C338 C 0.89118 0.01522 0.80432 0.0
C339 C 0.90337 0.01897 0.74024 0.0
C340 C 0.9285 0.02385 0.73994 0.0
C341 C 0.94112 0.02488 0.80336 0.0
C342 C 0.928 0.02222 0.86693 0.0
H343 H 0.59524 0.838 0.86462 0.0
H344 H 0.55943 0.80354 0.05555 0.0
H345 H 0.53254 0.83891 0.05059 0.0
H346 H 0.59465 0.89988 0.90619 0.0
H347 H 0.58951 0.91384 0.81748 0.0
H348 H 0.60522 0.88527 0.83422 0.0
H349 H 0.57396 0.86482 0.758 0.0
H350 H 0.55807 0.89334 0.74171 0.0
H351 H 0.54211 0.86521 0.77848 0.0
H352 H 0.51053 0.87818 0.02777 0.0
H353 H 0.4959 0.92016 0.99152 0.0
H354 H 0.54588 0.92963 0.81539 0.0
C355 C 0.58163 0.83783 0.90509 0.0
C356 C 0.57935 0.81796 0.96036 0.0
C357 C 0.56152 0.81856 0.01279 0.0
C358 C 0.54609 0.83851 0.01026 0.0
C359 C 0.54878 0.85777 0.95514 0.0
C360 C 0.56619 0.85773 0.90372 0.0
C361 C 0.56596 0.88135 0.85208 0.0
C362 C 0.59028 0.89594 0.85257 0.0
C363 C 0.55964 0.87584 0.77819 0.0
C364 C 0.54573 0.89464 0.88271 0.0
C365 C 0.53603 0.88062 0.94196 0.0
C366 C 0.51785 0.88929 0.98121 0.0
C367 C 0.50967 0.91314 0.96018 0.0
C368 C 0.51964 0.92805 0.9004 0.0
C369 C 0.53763 0.91848 0.86058 0.0
H370 H 0.71781 0.59555 0.91189 0.0
H371 H 0.73334 0.55916 0.12094 0.0
H372 H 0.69985 0.52881 0.11114 0.0
H373 H 0.6538 0.58895 0.92742 0.0
H374 H 0.64838 0.58319 0.83894 0.0
H375 H 0.67434 0.60184 0.85845 0.0
H376 H 0.70363 0.57344 0.80632 0.0
H377 H 0.67813 0.55488 0.78323 0.0
H378 H 0.70219 0.54064 0.83591 0.0
H379 H 0.66546 0.50184 0.07753 0.0
H380 H 0.63058 0.48174 0.02555 0.0
H381 H 0.63662 0.53638 0.83997 0.0
C382 C 0.71419 0.5812 0.95563 0.0
C383 C 0.72822 0.57969 0.01715 0.0
C384 C 0.72279 0.56072 0.07336 0.0
C385 C 0.70387 0.54333 0.0682 0.0
C386 C 0.6905 0.54527 0.00666 0.0
C387 C 0.6953 0.56379 0.95154 0.0
C388 C 0.6778 0.5621 0.8919 0.0
C389 C 0.66266 0.5854 0.87832 0.0
C390 C 0.69125 0.55748 0.82542 0.0
C391 C 0.66242 0.5397 0.9221 0.0
C392 C 0.67021 0.53013 0.98806 0.0
C393 C 0.65916 0.50918 0.02595 0.0
C394 C 0.6395 0.49778 0.99581 0.0
C395 C 0.63097 0.50748 0.92869 0.0
C396 C 0.64266 0.52871 0.89155 0.0
H397 H 0.92417 0.70313 0.9224 0.0
H398 H 0.95486 0.69052 0.13078 0.0
H399 H 0.98272 0.66061 0.09189 0.0
H400 H 0.92638 0.64119 0.88548 0.0
H401 H 0.93493 0.64942 0.79502 0.0
H402 H 0.91735 0.67015 0.83797 0.0
H403 H 0.94939 0.70539 0.80589 0.0
H404 H 0.96715 0.68516 0.76162 0.0
H405 H 0.98062 0.70045 0.82972 0.0
H406 H 0.00668 0.63169 0.03113 0.0
H407 H 0.02491 0.60526 0.95247 0.0
H408 H 0.97948 0.63755 0.78308 0.0
C409 C 0.93666 0.69398 0.95998 0.0
C410 C 0.93729 0.69905 0.02974 0.0
C411 C 0.95406 0.68689 0.07711 0.0
C412 C 0.96997 0.66992 0.0555 0.0
C413 C 0.96902 0.66552 0.98621 0.0
C414 C 0.95285 0.67722 0.93909 0.0
C415 C 0.9557 0.66934 0.86745 0.0
C416 C 0.9322 0.65677 0.84515 0.0
C417 C 0.96369 0.6914 0.81297 0.0
C418 C 0.97576 0.6511 0.88194 0.0
C419 C 0.98322 0.64923 0.95073 0.0
C420 C 0.00109 0.6331 0.97707 0.0
C421 C 0.01134 0.6182 0.93215 0.0
C422 C 0.00378 0.61959 0.86171 0.0
C423 C 0.98598 0.63652 0.83621 0.0
H424 H 0.07686 0.17355 0.52397 0.0
H425 H 0.11729 0.19528 0.69941 0.0
H426 H 0.0984 0.16018 0.7771 0.0
H427 H 0.02215 0.15334 0.62225 0.0
H428 H 0.01571 0.1278 0.57463 0.0
H429 H 0.03181 0.15508 0.53248 0.0
H430 H 0.06632 0.1282 0.50138 0.0
H431 H 0.05106 0.10064 0.54409 0.0
H432 H 0.08148 0.10835 0.56947 0.0
H433 H 0.0754 0.12288 0.83587 0.0
H434 H 0.05215 0.08369 0.87002 0.0
H435 H 0.02783 0.08508 0.65585 0.0
C436 C 0.08223 0.17057 0.57822 0.0
C437 C 0.09898 0.18687 0.6053 0.0
C438 C 0.1046 0.18295 0.67749 0.0
C439 C 0.09393 0.16312 0.72208 0.0
C440 C 0.0775 0.14742 0.69385 0.0
C441 C 0.07172 0.15081 0.6236 0.0
C442 C 0.05357 0.13107 0.60683 0.0
C443 C 0.02938 0.14251 0.58263 0.0
C444 C 0.06376 0.11616 0.55226 0.0
C445 C 0.05094 0.11553 0.67793 0.0
C446 C 0.06442 0.12565 0.72772 0.0
C447 C 0.06478 0.11475 0.79736 0.0
C448 C 0.05143 0.09256 0.8163 0.0
C449 C 0.03828 0.08134 0.7655 0.0
C450 C 0.0378 0.09321 0.69569 0.0
H451 H 0.33151 0.9242 0.84621 0.0
H452 H 0.32168 0.95283 0.62741 0.0
H453 H 0.36176 0.97431 0.62529 0.0
H454 H 0.36118 0.98069 0.89222 0.0
H455 H 0.38115 0.96389 0.95421 0.0
H456 H 0.35155 0.95097 0.9383 0.0
H457 H 0.37121 0.91134 0.90777 0.0
H458 H 0.40082 0.92418 0.92338 0.0
H459 H 0.39417 0.91399 0.84044 0.0
H460 H 0.40418 0.99008 0.64526 0.0
H461 H 0.44459 0.00165 0.68814 0.0
H462 H 0.42517 0.96565 0.89633 0.0
C463 C 0.33772 0.93514 0.79798 0.0
C464 C 0.32398 0.93597 0.73609 0.0
C465 C 0.33253 0.95076 0.67431 0.0
C466 C 0.35508 0.9634 0.67297 0.0
C467 C 0.36854 0.96155 0.73437 0.0
C468 C 0.36002 0.94813 0.79604 0.0
C469 C 0.37802 0.94912 0.85478 0.0
C470 C 0.36733 0.96194 0.91333 0.0
C471 C 0.38655 0.92311 0.88323 0.0
C472 C 0.3982 0.9648 0.81617 0.0
C473 C 0.39241 0.97174 0.74673 0.0
C474 C 0.40878 0.98508 0.69976 0.0
C475 C 0.43169 0.99148 0.72447 0.0
C476 C 0.43785 0.98473 0.79558 0.0
C477 C 0.42077 0.97141 0.84195 0.0
H478 H 0.44357 0.36191 0.5869 0.0
H479 H 0.49994 0.31054 0.65428 0.0
H480 H 0.52442 0.34447 0.69486 0.0
H481 H 0.48413 0.41552 0.52628 0.0
H482 H 0.46392 0.43701 0.55694 0.0
H483 H 0.45189 0.40902 0.52861 0.0
H484 H 0.43008 0.39735 0.64816 0.0
H485 H 0.44216 0.42516 0.67694 0.0
H486 H 0.44749 0.39555 0.72756 0.0
H487 H 0.54175 0.38365 0.73308 0.0
H488 H 0.55004 0.42477 0.76914 0.0
H489 H 0.48215 0.45017 0.67571 0.0
C490 C 0.46141 0.35797 0.60786 0.0
C491 C 0.47019 0.33378 0.61574 0.0
C492 C 0.49305 0.32906 0.64717 0.0
C493 C 0.50709 0.3482 0.67009 0.0
C494 C 0.49792 0.37189 0.6614 0.0
C495 C 0.4756 0.37683 0.63105 0.0
C496 C 0.46924 0.40354 0.6314 0.0
C497 C 0.46718 0.41707 0.55635 0.0
C498 C 0.44587 0.40549 0.67354 0.0
C499 C 0.49125 0.41273 0.66801 0.0
C500 C 0.50771 0.39431 0.68428 0.0
C501 C 0.52908 0.39829 0.72014 0.0
C502 C 0.53363 0.42168 0.74042 0.0
C503 C 0.51678 0.44068 0.7252 0.0
C504 C 0.49546 0.43608 0.68795 0.0
H505 H 0.14185 0.42268 0.56966 0.0
H506 H 0.19641 0.48103 0.57823 0.0
H507 H 0.16502 0.50819 0.61376 0.0
H508 H 0.0913 0.46288 0.50774 0.0
H509 H 0.06931 0.44379 0.56147 0.0
H510 H 0.09545 0.43009 0.52853 0.0
H511 H 0.10668 0.41158 0.65474 0.0
H512 H 0.08071 0.4253 0.68796 0.0
H513 H 0.1105 0.43178 0.72048 0.0
H514 H 0.12822 0.52813 0.65408 0.0
H515 H 0.08941 0.53812 0.70611 0.0
H516 H 0.05946 0.46593 0.67622 0.0
C517 C 0.147 0.44141 0.57725 0.0
C518 C 0.17136 0.45005 0.56993 0.0
C519 C 0.17773 0.47426 0.58303 0.0
C520 C 0.16004 0.48981 0.60282 0.0
C521 C 0.13615 0.48072 0.60994 0.0
C522 C 0.12963 0.45701 0.59805 0.0
C523 C 0.10315 0.45098 0.6153 0.0
C524 C 0.08896 0.44669 0.54932 0.0
C525 C 0.10012 0.4286 0.67306 0.0
C526 C 0.09604 0.47473 0.64088 0.0
C527 C 0.11515 0.49186 0.63583 0.0
C528 C 0.11306 0.51494 0.65792 0.0
C529 C 0.09097 0.52048 0.68724 0.0
C530 C 0.07151 0.5028 0.69526 0.0
C531 C 0.07405 0.47982 0.67073 0.0
H532 H 0.92464 0.85895 0.09122 0.0
H533 H 0.93962 0.8118 0.93426 0.0
H534 H 0.96051 0.84694 0.86165 0.0
H535 H 0.91518 0.91472 0.97384 0.0
H536 H 0.93011 0.93459 0.02874 0.0
H537 H 0.91538 0.90604 0.06741 0.0
H538 H 0.95534 0.89249 0.12884 0.0
H539 H 0.97031 0.92089 0.09052 0.0
H540 H 0.98256 0.89163 0.07782 0.0
H541 H 0.98027 0.88689 0.80681 0.0
H542 H 0.99799 0.9291 0.77432 0.0
H543 H 0.97228 0.94926 0.97049 0.0
C544 C 0.93286 0.85579 0.04263 0.0
C545 C 0.93105 0.83244 0.01932 0.0
C546 C 0.94087 0.82953 0.95327 0.0
C547 C 0.95282 0.84934 0.91172 0.0
C548 C 0.95478 0.87195 0.93693 0.0
C549 C 0.9451 0.87531 0.00083 0.0
C550 C 0.95004 0.90144 0.01608 0.0
C551 C 0.92626 0.91499 0.02183 0.0
C552 C 0.9655 0.90161 0.08221 0.0
C553 C 0.9642 0.91209 0.95114 0.0
C554 C 0.96654 0.89487 0.90583 0.0
C555 C 0.97863 0.90054 0.84195 0.0
C556 C 0.98863 0.92451 0.82398 0.0
C557 C 0.98669 0.9423 0.8702 0.0
C558 C 0.97432 0.93593 0.93452 0.0
H559 H 0.68256 0.96639 0.91014 0.0
H560 H 0.69108 0.99061 0.11339 0.0
H561 H 0.64975 0.00687 0.10489 0.0
H562 H 0.64854 0.01965 0.8311 0.0
H563 H 0.6297 0.00113 0.78093 0.0
H564 H 0.66025 0.99229 0.8025 0.0
H565 H 0.6441 0.94903 0.85985 0.0
H566 H 0.61361 0.95782 0.83818 0.0
H567 H 0.62133 0.9469 0.92757 0.0
H568 H 0.60572 0.01653 0.07847 0.0
H569 H 0.56391 0.02124 0.03258 0.0
H570 H 0.58623 0.99397 0.84281 0.0
C571 C 0.67585 0.97536 0.95258 0.0
C572 C 0.68969 0.97647 0.01355 0.0
C573 C 0.68035 0.98847 0.06772 0.0
C574 C 0.65704 0.99814 0.06281 0.0
C575 C 0.64357 0.99605 0.00278 0.0
C576 C 0.6528 0.98525 0.94821 0.0
C577 C 0.63457 0.98478 0.88997 0.0
C578 C 0.64382 0.0004 0.82212 0.0
C579 C 0.62802 0.95805 0.87827 0.0
C580 C 0.61348 0.99665 0.92074 0.0
C581 C 0.6189 0.00296 0.98594 0.0
C582 C 0.60144 0.01219 0.0268 0.0
C583 C 0.57778 0.01479 0.00046 0.0
C584 C 0.57202 0.00845 0.93369 0.0
C585 C 0.59026 -0.00033 0.89319 0.0
H586 H 0.6057 0.65031 0.00671 0.0
H587 H 0.5557 0.70398 0.90828 0.0
H588 H 0.53033 0.67017 0.87055 0.0
H589 H 0.60427 0.61217 0.87701 0.0
H590 H 0.60597 0.58357 0.93569 0.0
H591 H 0.61853 0.61177 0.96109 0.0
H592 H 0.59209 0.60502 0.07342 0.0
H593 H 0.57938 0.57681 0.04809 0.0
H594 H 0.55971 0.60086 0.06625 0.0
H595 H 0.51182 0.63084 0.83777 0.0
H596 H 0.50276 0.58915 0.80685 0.0
H597 H 0.56523 0.5614 0.92603 0.0
C598 C 0.58898 0.65486 0.9794 0.0
C599 C 0.5823 0.67965 0.96184 0.0
C600 C 0.56097 0.68502 0.92269 0.0
C601 C 0.5464 0.66597 0.90143 0.0
C602 C 0.55349 0.64168 0.91958 0.0
C603 C 0.5743 0.63608 0.9576 0.0
C604 C 0.57888 0.60867 0.96563 0.0
C605 C 0.60335 0.60377 0.93285 0.0
C606 C 0.57742 0.59716 0.04294 0.0
C607 C 0.55782 0.59985 0.92443 0.0
C608 C 0.54314 0.61908 0.89931 0.0
C609 C 0.52306 0.61558 0.85765 0.0
C610 C 0.51805 0.59185 0.84038 0.0
C611 C 0.53328 0.57204 0.86401 0.0
C612 C 0.5532 0.57614 0.90733 0.0
H613 H 0.87366 0.60336 0.9855 0.0
H614 H 0.83513 0.53889 0.09424 0.0
H615 H 0.86837 0.51244 0.0666 0.0
H616 H 0.89618 0.57516 0.84616 0.0
H617 H 0.92482 0.59215 0.84178 0.0
H618 H 0.8983 0.60523 0.87425 0.0
H619 H 0.92172 0.61016 0.99041 0.0
H620 H 0.94781 0.59714 0.95505 0.0
H621 H 0.9353 0.58345 0.03828 0.0
H622 H 0.90462 0.49265 0.01765 0.0
H623 H 0.94165 0.48188 0.95695 0.0
H624 H 0.95612 0.55988 0.88448 0.0
C625 C 0.87242 0.58372 0.00418 0.0
C626 C 0.85211 0.57314 0.04279 0.0
C627 C 0.85091 0.54738 0.06604 0.0
C628 C 0.86959 0.53221 0.05019 0.0
C629 C 0.8894 0.54319 0.01163 0.0
C630 C 0.89104 0.56842 0.98969 0.0
C631 C 0.91389 0.57566 0.94768 0.0
C632 C 0.90794 0.58776 0.87306 0.0
C633 C 0.93068 0.5926 0.98506 0.0
C634 C 0.92449 0.5505 0.9477 0.0
C635 C 0.91025 0.53194 0.98487 0.0
C636 C 0.91608 0.50708 0.9891 0.0
C637 C 0.93706 0.50111 0.95438 0.0
C638 C 0.95183 0.51998 0.91626 0.0
C639 C 0.94538 0.54493 0.91357 0.0
H640 H 0.08922 0.1317 0.25464 0.0
H641 H 0.09035 0.07874 0.44425 0.0
H642 H 0.07103 0.04699 0.38109 0.0
H643 H 0.0323 0.1133 0.19273 0.0
H644 H 0.04114 0.11736 0.10189 0.0
H645 H 0.05598 0.13558 0.16114 0.0
H646 H 0.09769 0.12022 0.12693 0.0
H647 H 0.08296 0.10201 0.06733 0.0
H648 H 0.10248 0.08747 0.13465 0.0
H649 H 0.04844 0.02223 0.29984 0.0
H650 H 0.02707 0.00522 0.20356 0.0
H651 H 0.04279 0.07345 0.06546 0.0
C652 C 0.0856 0.11334 0.28265 0.0
C653 C 0.09127 0.10764 0.35428 0.0
C654 C 0.08633 0.08343 0.3892 0.0
C655 C 0.07529 0.06531 0.35384 0.0
C656 C 0.0697 0.07162 0.28337 0.0
C657 C 0.07499 0.09494 0.24788 0.0
C658 C 0.06697 0.09702 0.17234 0.0
C659 C 0.04797 0.11699 0.15611 0.0
C660 C 0.08883 0.10197 0.12237 0.0
C661 C 0.05591 0.07137 0.17122 0.0
C662 C 0.05756 0.05703 0.23588 0.0
C663 C 0.04735 0.03316 0.24875 0.0
C664 C 0.03517 0.02371 0.19404 0.0
C665 C 0.03354 0.038 0.12726 0.0
C666 C 0.04423 0.06203 0.11573 0.0
H667 H 0.36986 0.95274 0.42046 0.0
H668 H 0.36126 0.87831 0.36729 0.0
H669 H 0.39076 0.88896 0.27075 0.0
H670 H 0.37508 0.98401 0.24416 0.0
H671 H 0.3974 0.0065 0.26574 0.0
H672 H 0.37558 0.99299 0.33049 0.0
H673 H 0.41049 0.97879 0.41495 0.0
H674 H 0.43242 0.99219 0.35035 0.0
H675 H 0.43377 0.96001 0.38646 0.0
H676 H 0.42134 0.90767 0.18047 0.0
H677 H 0.4506 0.9331 0.1025 0.0
H678 H 0.43874 0.99543 0.21391 0.0
C679 C 0.37413 0.93865 0.38852 0.0
C680 C 0.36323 0.91467 0.40147 0.0
C681 C 0.36937 0.8968 0.35842 0.0
C682 C 0.38611 0.90267 0.30347 0.0
C683 C 0.39655 0.92646 0.29232 0.0
C684 C 0.39079 0.94417 0.33356 0.0
C685 C 0.40458 0.96836 0.3106 0.0
C686 C 0.38711 0.98919 0.28629 0.0
C687 C 0.42131 0.97523 0.36907 0.0
C688 C 0.41902 0.96147 0.24997 0.0
C689 C 0.41413 0.93724 0.24028 0.0
C690 C 0.42525 0.92671 0.18739 0.0
C691 C 0.44176 0.94138 0.14307 0.0
C692 C 0.44698 0.96635 0.15173 0.0
C693 C 0.43542 0.97638 0.20623 0.0
H694 H 0.50326 0.40549 0.28708 0.0
H695 H 0.42529 0.41386 0.28858 0.0
H696 H 0.42839 0.44173 0.17645 0.0
H697 H 0.5194 0.46892 0.20774 0.0
H698 H 0.54374 0.45915 0.1568 0.0
H699 H 0.53557 0.44151 0.23991 0.0
H700 H 0.52946 0.40218 0.18005 0.0
H701 H 0.53747 0.4197 0.0968 0.0
H702 H 0.5089 0.40263 0.1074 0.0
H703 H 0.43964 0.46635 0.06027 0.0
H704 H 0.45833 0.48648 0.94973 0.0
H705 H 0.52889 0.46184 0.02455 0.0
C706 C 0.48686 0.41347 0.26447 0.0
C707 C 0.46403 0.40752 0.29671 0.0
C708 C 0.44299 0.41817 0.26491 0.0
C709 C 0.44456 0.43404 0.20125 0.0
C710 C 0.4673 0.43914 0.17023 0.0
C711 C 0.48809 0.42928 0.20095 0.0
C712 C 0.51016 0.43676 0.15535 0.0
C713 C 0.52828 0.45252 0.19215 0.0
C714 C 0.52219 0.41396 0.13362 0.0
C715 C 0.49848 0.452 0.09361 0.0
C716 C 0.47377 0.45329 0.10334 0.0
C717 C 0.45901 0.46567 0.05234 0.0
C718 C 0.46979 0.477 0.98968 0.0
C719 C 0.49509 0.47581 0.97855 0.0
C720 C 0.50954 0.46322 0.03157 0.0
H721 H 0.10128 0.43805 0.25483 0.0
H722 H 0.1189 0.51021 0.31465 0.0
H723 H 0.0978 0.53009 0.20995 0.0
H724 H 0.10987 0.45498 0.07219 0.0
H725 H 0.08495 0.43587 0.04787 0.0
H726 H 0.10057 0.42722 0.12897 0.0
H727 H 0.05995 0.42597 0.19705 0.0
H728 H 0.04418 0.43444 0.11605 0.0
H729 H 0.04136 0.45276 0.18614 0.0
H730 H 0.07637 0.54218 0.09562 0.0
H731 H 0.05437 0.54539 0.98345 0.0
H732 H 0.05051 0.46528 0.99976 0.0
C733 C 0.10054 0.45803 0.24633 0.0
C734 C 0.11178 0.47257 0.29295 0.0
C735 C 0.11041 0.49867 0.27975 0.0
C736 C 0.0985 0.51015 0.22035 0.0
C737 C 0.08795 0.49527 0.17489 0.0
C738 C 0.08868 0.46977 0.18749 0.0
C739 C 0.07614 0.45802 0.13011 0.0
C740 C 0.09395 0.44315 0.09258 0.0
C741 C 0.0541 0.44185 0.15908 0.0
C742 C 0.06843 0.4809 0.08296 0.0
C743 C 0.07543 0.50221 0.10957 0.0
C744 C 0.07068 0.52561 0.07444 0.0
C745 C 0.05827 0.52725 0.01066 0.0
C746 C 0.0507 0.5056 0.9829 0.0
C747 C 0.05595 0.48218 0.0197 0.0
H748 H 0.97734 0.89574 0.30035 0.0
H749 H 0.90053 0.90711 0.326 0.0
H750 H 0.91028 0.93941 0.39979 0.0
H751 H 0.99504 0.90221 0.4716 0.0
H752 H 0.02329 0.91864 0.44722 0.0
H753 H 0.01041 0.89766 0.39222 0.0
H754 H 0.01135 0.93279 0.28691 0.0
H755 H 0.02425 0.95391 0.34171 0.0
H756 H 0.99672 0.96133 0.29437 0.0
H757 H 0.92803 0.96772 0.47875 0.0
H758 H 0.95285 0.99125 0.5548 0.0
H759 H 0.01816 0.96268 0.47565 0.0
C760 C 0.96258 0.90518 0.32101 0.0
C761 C 0.93815 0.89882 0.30762 0.0
C762 C 0.91937 0.91166 0.33543 0.0
C763 C 0.92472 0.93007 0.37736 0.0
C764 C 0.94895 0.93569 0.39023 0.0
C765 C 0.96761 0.92382 0.36238 0.0
C766 C 0.99207 0.93291 0.38603 0.0
C767 C 0.00601 0.91158 0.42669 0.0
C768 C 0.00697 0.94602 0.32353 0.0
C769 C 0.9842 0.9511 0.43341 0.0
C770 C 0.95925 0.95253 0.43467 0.0
C771 C 0.94759 0.96699 0.47756 0.0
C772 C 0.9618 0.98017 0.52081 0.0
C773 C 0.98738 0.97886 0.52079 0.0
C774 C 0.99868 0.96439 0.47568 0.0
H775 H 0.6126 0.9724 0.2833 0.0
H776 H 0.67749 0.95724 0.4069 0.0
H777 H 0.6553 0.96466 0.51272 0.0
H778 H 0.59281 0.0216 0.36971 0.0
H779 H 0.56105 0.01326 0.36489 0.0
H780 H 0.58177 0.00581 0.29949 0.0
H781 H 0.56804 0.95963 0.3259 0.0
H782 H 0.54721 0.96694 0.39124 0.0
H783 H 0.56955 0.94388 0.41422 0.0
H784 H 0.62617 0.97475 0.60467 0.0
H785 H 0.5925 0.987 0.67518 0.0
H786 H 0.54678 0.99515 0.49106 0.0
C787 C 0.62214 0.97046 0.33264 0.0
C788 C 0.64679 0.96419 0.3368 0.0
C789 C 0.65861 0.96201 0.40241 0.0
C790 C 0.64616 0.96617 0.46283 0.0
C791 C 0.62191 0.97248 0.45675 0.0
C792 C 0.61003 0.97459 0.39334 0.0
C793 C 0.58409 0.98211 0.40056 0.0
C794 C 0.57969 0.00718 0.35603 0.0
C795 C 0.56617 0.96193 0.38189 0.0
C796 C 0.58328 0.98408 0.47788 0.0
C797 C 0.60522 0.97836 0.50948 0.0
C798 C 0.60886 0.97913 0.58053 0.0
C799 C 0.58956 0.98599 0.62027 0.0
C800 C 0.56691 0.99205 0.58883 0.0
C801 C 0.56388 0.99094 0.51666 0.0
H802 H 0.5445 0.60836 0.30598 0.0
H803 H 0.62303 0.60542 0.30686 0.0
H804 H 0.62106 0.57724 0.41863 0.0
H805 H 0.53734 0.61008 0.4866 0.0
H806 H 0.50987 0.59112 0.49535 0.0
H807 H 0.51734 0.60956 0.413 0.0
H808 H 0.51438 0.5704 0.35124 0.0
H809 H 0.50682 0.55184 0.43348 0.0
H810 H 0.53221 0.54412 0.38288 0.0
H811 H 0.61059 0.55119 0.53386 0.0
H812 H 0.59238 0.52925 0.64308 0.0
H813 H 0.5208 0.54948 0.56627 0.0
C814 C 0.5613 0.60157 0.32913 0.0
C815 C 0.58393 0.60908 0.29751 0.0
C816 C 0.60547 0.59991 0.33 0.0
C817 C 0.60454 0.58386 0.39347 0.0
C818 C 0.58194 0.57711 0.4237 0.0
C819 C 0.56071 0.58561 0.39247 0.0
C820 C 0.53882 0.57639 0.43705 0.0
C821 C 0.52504 0.59808 0.45931 0.0
C822 C 0.52207 0.55969 0.39888 0.0
C823 C 0.55107 0.56169 0.49874 0.0
C824 C 0.57594 0.56219 0.48994 0.0
C825 C 0.59112 0.55051 0.54107 0.0
C826 C 0.58061 0.53812 0.60296 0.0
C827 C 0.55516 0.53756 0.61323 0.0
C828 C 0.5403 0.54941 0.55998 0.0
H829 H 0.90568 0.5789 0.38475 0.0
H830 H 0.87702 0.50582 0.35848 0.0
H831 H 0.90424 0.48723 0.45128 0.0
H832 H 0.96788 0.56165 0.41893 0.0
H833 H 0.97239 0.58219 0.48346 0.0
H834 H 0.9513 0.58976 0.41314 0.0
H835 H 0.91714 0.59331 0.50303 0.0
H836 H 0.93814 0.58582 0.57354 0.0
H837 H 0.91043 0.56764 0.57035 0.0
H838 H 0.93366 0.47668 0.54853 0.0
H839 H 0.96262 0.47482 0.64602 0.0
H840 H 0.97205 0.55484 0.60951 0.0
C841 C 0.9052 0.55897 0.39816 0.0
C842 C 0.88924 0.5438 0.36424 0.0
C843 C 0.88908 0.51782 0.38374 0.0
C844 C 0.90452 0.50708 0.43625 0.0
C845 C 0.91998 0.52258 0.46869 0.0
C846 C 0.92042 0.54796 0.45057 0.0
C847 C 0.93822 0.56048 0.49509 0.0
C848 C 0.95866 0.57433 0.44995 0.0
C849 C 0.9252 0.57783 0.53805 0.0
C850 C 0.94758 0.53817 0.54149 0.0
C851 C 0.93691 0.51649 0.5251 0.0
C852 C 0.94221 0.49352 0.56168 0.0
C853 C 0.9587 0.49268 0.617 0.0
C854 C 0.96964 0.51469 0.63535 0.0
C855 C 0.96412 0.53769 0.5965 0.0
loop_
_geom_bond_atom_site_label_1
_geom_bond_atom_site_label_2
_geom_bond_distance
_geom_bond_site_symmetry_2
_ccdc_geom_bond_type
O0 Cd1 2.300 . S
O0 C7 1.275 . S
Cd1 O0 2.300 . S
Cd1 O9 2.381 . S
Cd1 O10 2.378 . S
O2 Cd3 2.385 . S
O2 C7 1.255 . S
Cd3 O2 2.385 . S
Cd3 O4 2.317 . S
O4 Cd3 2.317 . S
O4 C5 1.232 . S
C5 O4 1.232 . S
C5 O6 1.218 . S
O6 C5 1.218 . S
C7 O0 1.275 . S
C7 O2 1.255 . S
C8 O9 1.258 . S
C8 O10 1.256 . S
O9 Cd1 2.381 . S
O9 C8 1.258 . S
O10 Cd1 2.378 . S
O10 C8 1.256 . S
O11 Cd12 2.300 . S
O11 C18 1.275 . S
Cd12 O11 2.300 . S
Cd12 O20 2.381 . S
Cd12 O21 2.378 . S
O13 Cd14 2.385 1_655 S
O13 C18 1.255 . S
Cd14 O13 2.385 1_455 S
Cd14 O15 2.317 1_455 S
O15 Cd14 2.317 1_655 S
O15 C16 1.232 . S
C16 O15 1.232 . S
C16 O17 1.218 . S
O17 C16 1.218 . S
C18 O11 1.275 . S
C18 O13 1.255 . S
C19 O20 1.258 . S
C19 O21 1.256 . S
O20 Cd12 2.381 . S
O20 C19 1.258 . S
O21 Cd12 2.378 . S
O21 C19 1.256 . S
O22 Cd23 2.300 1_566 S
O22 C29 1.275 1_566 S
Cd23 O22 2.300 1_544 S
Cd23 O31 2.383 1_545 S
Cd23 O32 2.378 . S
O24 Cd25 2.385 . S
O24 C29 1.255 . S
Cd25 O24 2.385 . S
Cd25 O26 2.317 . S
O26 Cd25 2.317 . S
O26 C27 1.232 . S
C27 O26 1.232 . S
C27 O28 1.218 . S
O28 C27 1.218 . S
C29 O22 1.275 1_544 S
C29 O24 1.255 . S
C30 O31 1.259 1_545 S
C30 O32 1.256 . S
O31 Cd23 2.383 1_565 S
O31 C30 1.259 1_565 S
O32 Cd23 2.378 . S
O32 C30 1.256 . S
O33 Cd34 2.300 . S
O33 C40 1.275 . S
Cd34 O33 2.300 . S
Cd34 O42 2.381 . S
Cd34 O43 2.378 . S
O35 Cd36 2.385 . S
O35 C40 1.255 . S
Cd36 O35 2.385 . S
Cd36 O37 2.317 . S
O37 Cd36 2.317 . S
O37 C38 1.232 . S
C38 O37 1.232 . S
C38 O39 1.218 . S
O39 C38 1.218 . S
C40 O33 1.275 . S
C40 O35 1.255 . S
C41 O42 1.258 . S
C41 O43 1.256 . S
O42 Cd34 2.381 . S
O42 C41 1.258 . S
O43 Cd34 2.378 . S
O43 C41 1.256 . S
O44 Cd45 2.300 . S
O44 C51 1.275 . S
Cd45 O44 2.300 . S
Cd45 O53 2.381 . S
Cd45 O54 2.378 . S
O46 Cd47 2.385 . S
O46 C51 1.255 . S
Cd47 O46 2.385 . S
Cd47 O48 2.317 . S
O48 Cd47 2.317 . S
O48 C49 1.232 . S
C49 O48 1.232 . S
C49 O50 1.218 . S
O50 C49 1.218 . S
C51 O44 1.275 . S
C51 O46 1.255 . S
C52 O53 1.258 . S
C52 O54 1.256 . S
O53 Cd45 2.381 . S
O53 C52 1.258 . S
O54 Cd45 2.378 . S
O54 C52 1.256 . S
O55 Cd56 2.300 . S
O55 C62 1.275 . S
Cd56 O55 2.300 . S
Cd56 O64 2.381 . S
Cd56 O65 2.378 . S
O57 Cd58 2.385 . S
O57 C62 1.255 . S
Cd58 O57 2.385 . S
Cd58 O59 2.317 . S
O59 Cd58 2.317 . S
O59 C60 1.232 . S
C60 O59 1.232 . S
C60 O61 1.218 . S
O61 C60 1.218 . S
C62 O55 1.275 . S
C62 O57 1.255 . S
C63 O64 1.258 . S
C63 O65 1.256 . S
O64 Cd56 2.381 . S
O64 C63 1.258 . S
O65 Cd56 2.378 . S
O65 C63 1.256 . S
O66 Cd67 2.300 1_565 S
O66 C73 1.275 1_565 S
Cd67 O66 2.300 1_545 S
Cd67 O75 2.381 1_545 S
Cd67 O76 2.378 . S
O68 Cd69 2.385 . S
O68 C73 1.255 . S
Cd69 O68 2.385 . S
Cd69 O70 2.317 . S
O70 Cd69 2.317 . S
O70 C71 1.232 . S
C71 O70 1.232 . S
C71 O72 1.218 . S
O72 C71 1.218 . S
C73 O66 1.275 1_545 S
C73 O68 1.255 . S
C74 O75 1.258 1_545 S
C74 O76 1.256 . S
O75 Cd67 2.381 1_565 S
O75 C74 1.258 1_565 S
O76 Cd67 2.378 . S
O76 C74 1.256 . S
O77 Cd78 2.300 . S
O77 C84 1.275 . S
Cd78 O77 2.300 . S
Cd78 O86 2.381 . S
Cd78 O87 2.378 . S
O79 Cd80 2.385 . S
O79 C84 1.255 . S
Cd80 O79 2.385 . S
Cd80 O81 2.317 . S
O81 Cd80 2.317 . S
O81 C82 1.232 . S
C82 O81 1.232 . S
C82 O83 1.218 . S
O83 C82 1.218 . S
C84 O77 1.275 . S
C84 O79 1.255 . S
C85 O86 1.258 . S
C85 O87 1.256 . S
O86 Cd78 2.381 . S
O86 C85 1.258 . S
O87 Cd78 2.378 . S
O87 C85 1.256 . S
Co88 N93 2.057 . S
Co88 O105 2.021 . S
Co88 O108 2.062 . S
Co88 O112 2.117 1_455 S
Co88 O113 2.020 1_545 S
C89 O109 1.259 1_545 S
C89 O112 1.258 . S
Co90 N99 2.057 . S
Co90 O106 2.117 . S
Co90 O107 2.020 1_565 S
Co90 O109 2.021 1_455 S
Co90 O114 2.062 . S
C91 N93 1.316 . S
C91 N94 1.347 1_556 S
C91 H96 0.931 . S
C92 N93 1.375 1_554 S
C92 C95 1.350 . S
C92 H97 0.930 1_454 S
N93 Co88 2.057 . S
N93 C91 1.316 . S
N93 C92 1.375 1_556 S
N94 C91 1.347 1_554 S
N94 C95 1.373 . S
C95 C92 1.350 . S
C95 N94 1.373 . S
C95 H116 0.931 . S
H96 C91 0.931 . S
H97 C92 0.930 1_656 S
C98 O105 1.259 1_565 S
C98 O106 1.258 . S
N99 Co90 2.057 . S
N99 C100 1.316 1_455 S
N99 C101 1.375 . S
C100 N99 1.316 1_655 S
C100 N102 1.347 . S
C100 H111 0.931 . S
C101 N99 1.375 . S
C101 C103 1.350 . S
C101 H110 0.930 . S
N102 C100 1.347 . S
N102 C103 1.373 1_655 S
C103 C101 1.350 . S
C103 N102 1.373 1_455 S
C103 H117 0.931 . S
C104 O107 1.256 . S
C104 O108 1.255 . S
O105 Co88 2.021 . S
O105 C98 1.259 1_545 S
O106 Co90 2.117 . S
O106 C98 1.258 . S
O107 Co90 2.020 1_545 S
O107 C104 1.256 . S
O108 Co88 2.062 . S
O108 C104 1.255 . S
O109 C89 1.259 1_565 S
O109 Co90 2.021 1_655 S
H110 C101 0.930 . S
H111 C100 0.931 . S
O112 Co88 2.117 1_655 S
O112 C89 1.258 . S
O113 Co88 2.020 1_565 S
O113 C115 1.256 . S
O114 Co90 2.062 . S
O114 C115 1.255 . S
C115 O113 1.256 . S
C115 O114 1.255 . S
H116 C95 0.931 . S
H117 C103 0.931 . S
Co118 N123 2.057 1_545 S
Co118 O135 2.021 . S
Co118 O138 2.063 . S
Co118 O142 2.117 1_545 S
Co118 O143 2.020 . S
C119 O139 1.259 . S
C119 O142 1.258 . S
Co120 N129 2.057 1_565 S
Co120 O136 2.117 1_565 S
Co120 O137 2.020 . S
Co120 O139 2.021 . S
Co120 O144 2.061 . S
C121 N123 1.285 1_544 S
C121 N124 1.352 . S
C121 H126 0.929 1_554 S
C122 N123 1.405 1_554 S
C122 C125 1.350 . S
C122 H127 0.930 . S
N123 Co118 2.057 1_565 S
N123 C121 1.285 1_566 S
N123 C122 1.405 1_556 S
N124 C121 1.352 . S
N124 C125 1.373 1_545 S
C125 C122 1.350 . S
C125 N124 1.373 1_565 S
C125 H146 0.931 . S
H126 C121 0.929 1_556 S
H127 C122 0.930 . S
C128 O135 1.259 . S
C128 O136 1.258 . S
N129 Co120 2.057 1_545 S
N129 C130 1.316 1_545 S
N129 C131 1.375 . S
C130 N129 1.316 1_565 S
C130 N132 1.347 . S
C130 H141 0.931 . S
C131 N129 1.375 . S
C131 C133 1.350 . S
C131 H140 0.930 . S
N132 C130 1.347 . S
N132 C133 1.373 1_565 S
C133 C131 1.350 . S
C133 N132 1.373 1_545 S
C133 H147 0.931 . S
C134 O137 1.256 . S
C134 O138 1.252 1_565 S
O135 Co118 2.021 . S
O135 C128 1.259 . S
O136 Co120 2.117 1_545 S
O136 C128 1.258 . S
O137 Co120 2.020 . S
O137 C134 1.256 . S
O138 Co118 2.063 . S
O138 C134 1.252 1_545 S
O139 C119 1.259 . S
O139 Co120 2.021 . S
H140 C131 0.930 . S
H141 C130 0.931 . S
O142 Co118 2.117 1_565 S
O142 C119 1.258 . S
O143 Co118 2.020 . S
O143 C145 1.256 . S
O144 Co120 2.061 . S
O144 C145 1.255 1_565 S
C145 O143 1.256 . S
C145 O144 1.255 1_545 S
H146 C125 0.931 . S
H147 C133 0.931 . S
Co148 N153 2.057 . S
Co148 O165 2.021 . S
Co148 O168 2.062 . S
Co148 O172 2.117 . S
Co148 O173 2.020 . S
C149 O169 1.259 . S
C149 O172 1.258 . S
Co150 N159 2.057 . S
Co150 O166 2.117 . S
Co150 O167 2.020 . S
Co150 O169 2.021 . S
Co150 O174 2.062 . S
C151 N153 1.316 . S
C151 N154 1.347 . S
C151 H156 0.931 . S
C152 N153 1.375 . S
C152 C155 1.350 . S
C152 H157 0.930 . S
N153 Co148 2.057 . S
N153 C151 1.316 . S
N153 C152 1.375 . S
N154 C151 1.347 . S
N154 C155 1.373 . S
C155 C152 1.350 . S
C155 N154 1.373 . S
C155 H176 0.931 . S
H156 C151 0.931 . S
H157 C152 0.930 . S
C158 O165 1.259 . S
C158 O166 1.258 . S
N159 Co150 2.057 . S
N159 C160 1.316 . S
N159 C161 1.375 . S
C160 N159 1.316 . S
C160 N162 1.347 . S
C160 H171 0.931 . S
C161 N159 1.375 . S
C161 C163 1.350 . S
C161 H170 0.930 . S
N162 C160 1.347 . S
N162 C163 1.373 . S
C163 C161 1.350 . S
C163 N162 1.373 . S
C163 H177 0.931 . S
C164 O167 1.256 . S
C164 O168 1.255 . S
O165 Co148 2.021 . S
O165 C158 1.259 . S
O166 Co150 2.117 . S
O166 C158 1.258 . S
O167 Co150 2.020 . S
O167 C164 1.256 . S
O168 Co148 2.062 . S
O168 C164 1.255 . S
O169 C149 1.259 . S
O169 Co150 2.021 . S
H170 C161 0.930 . S
H171 C160 0.931 . S
O172 Co148 2.117 . S
O172 C149 1.258 . S
O173 Co148 2.020 . S
O173 C175 1.256 . S
O174 Co150 2.062 . S
O174 C175 1.255 . S
C175 O173 1.256 . S
C175 O174 1.255 . S
H176 C155 0.931 . S
H177 C163 0.931 . S
Co178 N183 2.057 . S
Co178 O195 2.021 1_455 S
Co178 O198 2.062 1_455 S
Co178 O202 2.117 . S
Co178 O203 2.020 . S
C179 O199 1.259 . S
C179 O202 1.258 . S
Co180 N189 2.057 . S
Co180 O196 2.117 1_455 S
Co180 O197 2.020 1_455 S
Co180 O199 2.021 . S
Co180 O204 2.062 . S
C181 N183 1.316 . S
C181 N184 1.347 . S
C181 H186 0.931 1_455 S
C182 N183 1.375 . S
C182 C185 1.350 . S
C182 H187 0.930 . S
N183 Co178 2.057 . S
N183 C181 1.316 . S
N183 C182 1.375 . S
N184 C181 1.347 . S
N184 C185 1.373 . S
C185 C182 1.350 . S
C185 N184 1.373 . S
C185 H206 0.931 . S
H186 C181 0.931 1_655 S
H187 C182 0.930 . S
C188 O195 1.259 . S
C188 O196 1.258 . S
N189 Co180 2.057 . S
N189 C190 1.316 . S
N189 C191 1.375 1_455 S
C190 N189 1.316 . S
C190 N192 1.347 . S
C190 H201 0.931 . S
C191 N189 1.375 1_655 S
C191 C193 1.350 1_655 S
C191 H200 0.930 . S
N192 C190 1.347 . S
N192 C193 1.373 . S
C193 C191 1.350 1_455 S
C193 N192 1.373 . S
C193 H207 0.931 1_455 S
C194 O197 1.256 . S
C194 O198 1.255 . S
O195 Co178 2.021 1_655 S
O195 C188 1.259 . S
O196 Co180 2.117 1_655 S
O196 C188 1.258 . S
O197 Co180 2.020 1_655 S
O197 C194 1.256 . S
O198 Co178 2.062 1_655 S
O198 C194 1.255 . S
O199 C179 1.259 . S
O199 Co180 2.021 . S
H200 C191 0.930 . S
H201 C190 0.931 . S
O202 Co178 2.117 . S
O202 C179 1.258 . S
O203 Co178 2.020 . S
O203 C205 1.256 . S
O204 Co180 2.062 . S
O204 C205 1.255 . S
C205 O203 1.256 . S
C205 O204 1.255 . S
H206 C185 0.931 . S
H207 C193 0.931 1_655 S
H208 C220 0.930 . S
H209 C222 0.930 . S
H210 C223 0.930 . S
H211 C227 0.959 . S
H212 C227 0.959 . S
H213 C227 0.961 . S
H214 C228 0.960 . S
H215 C228 0.961 . S
H216 C228 0.959 . S
H217 C231 0.929 . S
H218 C232 0.931 . S
H219 C234 0.930 . S
C220 H208 0.930 . S
C220 C221 1.399 1_545 S
C220 C225 1.399 . S
C221 C220 1.399 1_565 S
C221 C222 1.376 . S
C222 H209 0.930 . S
C222 C221 1.376 . S
C222 C223 1.388 . S
C223 H210 0.930 . S
C223 C222 1.388 . S
C223 C224 1.390 . S
C224 C223 1.390 . S
C224 C225 1.394 1_565 S
C224 C230 1.465 . S
C225 C220 1.399 . S
C225 C224 1.394 1_545 S
C225 C226 1.516 . S
C226 C225 1.516 . S
C226 C227 1.502 . S
C226 C228 1.561 . S
C226 C229 1.526 . S
C227 H211 0.959 . S
C227 H212 0.959 . S
C227 H213 0.961 . S
C227 C226 1.502 . S
C228 H214 0.960 . S
C228 H215 0.961 . S
C228 H216 0.959 . S
C228 C226 1.561 . S
C229 C226 1.526 . S
C229 C230 1.396 1_545 S
C229 C234 1.390 . S
C230 C224 1.465 . S
C230 C229 1.396 1_565 S
C230 C231 1.399 . S
C231 H217 0.929 . S
C231 C230 1.399 . S
C231 C232 1.385 . S
C232 H218 0.931 . S
C232 C231 1.385 . S
C232 C233 1.389 . S
C233 C232 1.389 . S
C233 C234 1.387 1_565 S
C234 H219 0.930 . S
C234 C229 1.390 . S
C234 C233 1.387 1_545 S
H235 C247 0.930 . S
H236 C249 0.930 . S
H237 C250 0.930 . S
H238 C254 0.959 . S
H239 C254 0.959 . S
H240 C254 0.961 . S
H241 C255 0.960 . S
H242 C255 0.961 . S
H243 C255 0.959 . S
H244 C258 0.929 . S
H245 C259 0.931 . S
H246 C261 0.930 . S
C247 H235 0.930 . S
C247 C248 1.399 . S
C247 C252 1.399 . S
C248 C247 1.399 . S
C248 C249 1.376 . S
C249 H236 0.930 . S
C249 C248 1.376 . S
C249 C250 1.388 . S
C250 H237 0.930 . S
C250 C249 1.388 . S
C250 C251 1.390 . S
C251 C250 1.390 . S
C251 C252 1.394 . S
C251 C257 1.465 . S
C252 C247 1.399 . S
C252 C251 1.394 . S
C252 C253 1.516 . S
C253 C252 1.516 . S
C253 C254 1.502 . S
C253 C255 1.561 . S
C253 C256 1.526 . S
C254 H238 0.959 . S
C254 H239 0.959 . S
C254 H240 0.961 . S
C254 C253 1.502 . S
C255 H241 0.960 . S
C255 H242 0.961 . S
C255 H243 0.959 . S
C255 C253 1.561 . S
C256 C253 1.526 . S
C256 C257 1.396 . S
C256 C261 1.390 . S
C257 C251 1.465 . S
C257 C256 1.396 . S
C257 C258 1.399 . S
C258 H244 0.929 . S
C258 C257 1.399 . S
C258 C259 1.385 . S
C259 H245 0.931 . S
C259 C258 1.385 . S
C259 C260 1.389 . S
C260 C259 1.389 . S
C260 C261 1.387 . S
C261 H246 0.930 . S
C261 C256 1.390 . S
C261 C260 1.387 . S
H262 C274 0.930 . S
H263 C276 0.930 . S
H264 C277 0.930 . S
H265 C281 0.959 . S
H266 C281 0.959 . S
H267 C281 0.961 . S
H268 C282 0.960 . S
H269 C282 0.961 . S
H270 C282 0.959 . S
H271 C285 0.929 . S
H272 C286 0.931 . S
H273 C288 0.930 . S
C274 H262 0.930 . S
C274 C275 1.399 . S
C274 C279 1.399 . S
C275 C274 1.399 . S
C275 C276 1.376 . S
C276 H263 0.930 . S
C276 C275 1.376 . S
C276 C277 1.388 . S
C277 H264 0.930 . S
C277 C276 1.388 . S
C277 C278 1.390 . S
C278 C277 1.390 . S
C278 C279 1.394 . S
C278 C284 1.465 . S
C279 C274 1.399 . S
C279 C278 1.394 . S
C279 C280 1.516 . S
C280 C279 1.516 . S
C280 C281 1.502 . S
C280 C282 1.561 . S
C280 C283 1.526 . S
C281 H265 0.959 . S
C281 H266 0.959 . S
C281 H267 0.961 . S
C281 C280 1.502 . S
C282 H268 0.960 . S
C282 H269 0.961 . S
C282 H270 0.959 . S
C282 C280 1.561 . S
C283 C280 1.526 . S
C283 C284 1.396 . S
C283 C288 1.390 . S
C284 C278 1.465 . S
C284 C283 1.396 . S
C284 C285 1.399 . S
C285 H271 0.929 . S
C285 C284 1.399 . S
C285 C286 1.385 . S
C286 H272 0.931 . S
C286 C285 1.385 . S
C286 C287 1.389 . S
C287 C286 1.389 . S
C287 C288 1.387 . S
C288 H273 0.930 . S
C288 C283 1.390 . S
C288 C287 1.387 . S
H289 C301 0.930 . S
H290 C303 0.930 . S
H291 C304 0.930 . S
H292 C308 0.959 . S
H293 C308 0.959 . S
H294 C308 0.961 . S
H295 C309 0.960 . S
H296 C309 0.961 . S
H297 C309 0.959 . S
H298 C312 0.929 . S
H299 C313 0.931 . S
H300 C315 0.930 . S
C301 H289 0.930 . S
C301 C302 1.399 . S
C301 C306 1.399 . S
C302 C301 1.399 . S
C302 C303 1.376 . S
C303 H290 0.930 . S
C303 C302 1.376 . S
C303 C304 1.388 . S
C304 H291 0.930 . S
C304 C303 1.388 . S
C304 C305 1.390 . S
C305 C304 1.390 . S
C305 C306 1.394 . S
C305 C311 1.465 . S
C306 C301 1.399 . S
C306 C305 1.394 . S
C306 C307 1.516 . S
C307 C306 1.516 . S
C307 C308 1.502 . S
C307 C309 1.561 . S
C307 C310 1.526 . S
C308 H292 0.959 . S
C308 H293 0.959 . S
C308 H294 0.961 . S
C308 C307 1.502 . S
C309 H295 0.960 . S
C309 H296 0.961 . S
C309 H297 0.959 . S
C309 C307 1.561 . S
C310 C307 1.526 . S
C310 C311 1.396 . S
C310 C315 1.390 . S
C311 C305 1.465 . S
C311 C310 1.396 . S
C311 C312 1.399 . S
C312 H298 0.929 . S
C312 C311 1.399 . S
C312 C313 1.385 . S
C313 H299 0.931 . S
C313 C312 1.385 . S
C313 C314 1.389 . S
C314 C313 1.389 . S
C314 C315 1.387 . S
C315 H300 0.930 . S
C315 C310 1.390 . S
C315 C314 1.387 . S
H316 C328 0.930 . S
H317 C330 0.930 . S
H318 C331 0.930 . S
H319 C335 0.959 . S
H320 C335 0.959 . S
H321 C335 0.961 . S
H322 C336 0.960 1_554 S
H323 C336 0.961 . S
H324 C336 0.959 1_554 S
H325 C339 0.929 . S
H326 C340 0.931 . S
H327 C342 0.930 . S
C328 H316 0.930 . S
C328 C329 1.399 1_546 S
C328 C333 1.399 . S
C329 C328 1.399 1_564 S
C329 C330 1.376 . S
C330 H317 0.930 . S
C330 C329 1.376 . S
C330 C331 1.388 1_554 S
C331 H318 0.930 . S
C331 C330 1.388 1_556 S
C331 C332 1.390 . S
C332 C331 1.390 . S
C332 C333 1.394 1_565 S
C332 C338 1.465 . S
C333 C328 1.399 . S
C333 C332 1.394 1_545 S
C333 C334 1.516 . S
C334 C333 1.516 . S
C334 C335 1.502 . S
C334 C336 1.561 . S
C334 C337 1.526 . S
C335 H319 0.959 . S
C335 H320 0.959 . S
C335 H321 0.961 . S
C335 C334 1.502 . S
C336 H322 0.960 1_556 S
C336 H323 0.961 . S
C336 H324 0.959 1_556 S
C336 C334 1.561 . S
C337 C334 1.526 . S
C337 C338 1.396 1_545 S
C337 C342 1.390 . S
C338 C332 1.465 . S
C338 C337 1.396 1_565 S
C338 C339 1.399 . S
C339 H325 0.929 . S
C339 C338 1.399 . S
C339 C340 1.385 . S
C340 H326 0.931 . S
C340 C339 1.385 . S
C340 C341 1.389 1_565 S
C341 C340 1.389 1_545 S
C341 C342 1.387 . S
C342 H327 0.930 . S
C342 C337 1.390 . S
C342 C341 1.387 . S
H343 C355 0.930 . S
H344 C357 0.930 . S
H345 C358 0.930 . S
H346 C362 0.959 . S
H347 C362 0.959 1_556 S
H348 C362 0.961 . S
H349 C363 0.960 . S
H350 C363 0.961 . S
H351 C363 0.959 . S
H352 C366 0.929 . S
H353 C367 0.931 . S
H354 C369 0.930 . S
C355 H343 0.930 . S
C355 C356 1.399 . S
C355 C360 1.399 1_554 S
C356 C355 1.399 . S
C356 C357 1.376 . S
C357 H344 0.930 . S
C357 C356 1.376 . S
C357 C358 1.388 1_554 S
C358 H345 0.930 . S
C358 C357 1.388 1_556 S
C358 C359 1.390 . S
C359 C358 1.390 . S
C359 C360 1.394 . S
C359 C365 1.465 . S
C360 C355 1.399 1_556 S
C360 C359 1.394 . S
C360 C361 1.516 . S
C361 C360 1.516 . S
C361 C362 1.502 1_556 S
C361 C363 1.561 . S
C361 C364 1.526 . S
C362 H346 0.959 . S
C362 H347 0.959 1_554 S
C362 H348 0.961 . S
C362 C361 1.502 1_554 S
C363 H349 0.960 . S
C363 H350 0.961 . S
C363 H351 0.959 . S
C363 C361 1.561 . S
C364 C361 1.526 . S
C364 C365 1.396 . S
C364 C369 1.390 . S
C365 C359 1.465 . S
C365 C364 1.396 . S
C365 C366 1.399 . S
C366 H352 0.929 . S
C366 C365 1.399 . S
C366 C367 1.385 . S
C367 H353 0.931 . S
C367 C366 1.385 . S
C367 C368 1.389 . S
C368 C367 1.389 . S
C368 C369 1.387 . S
C369 H354 0.930 . S
C369 C364 1.390 . S
C369 C368 1.387 . S
H370 C382 0.930 . S
H371 C384 0.930 . S
H372 C385 0.930 . S
H373 C389 0.959 . S
H374 C389 0.959 . S
H375 C389 0.961 . S
H376 C390 0.960 . S
H377 C390 0.961 . S
H378 C390 0.959 . S
H379 C393 0.929 . S
H380 C394 0.931 . S
H381 C396 0.930 . S
C382 H370 0.930 . S
C382 C383 1.399 . S
C382 C387 1.399 . S
C383 C382 1.399 . S
C383 C384 1.376 . S
C384 H371 0.930 . S
C384 C383 1.376 . S
C384 C385 1.388 . S
C385 H372 0.930 . S
C385 C384 1.388 . S
C385 C386 1.390 . S
C386 C385 1.390 . S
C386 C387 1.394 . S
C386 C392 1.465 1_554 S
C387 C382 1.399 . S
C387 C386 1.394 . S
C387 C388 1.516 . S
C388 C387 1.516 . S
C388 C389 1.502 . S
C388 C390 1.561 1_554 S
C388 C391 1.526 1_554 S
C389 H373 0.959 . S
C389 H374 0.959 . S
C389 H375 0.961 . S
C389 C388 1.502 . S
C390 H376 0.960 . S
C390 H377 0.961 . S
C390 H378 0.959 . S
C390 C388 1.561 1_556 S
C391 C388 1.526 1_556 S
C391 C392 1.396 . S
C391 C396 1.390 . S
C392 C386 1.465 1_556 S
C392 C391 1.396 . S
C392 C393 1.399 . S
C393 H379 0.929 . S
C393 C392 1.399 . S
C393 C394 1.385 . S
C394 H380 0.931 . S
C394 C393 1.385 . S
C394 C395 1.389 . S
C395 C394 1.389 . S
C395 C396 1.387 . S
C396 H381 0.930 . S
C396 C391 1.390 . S
C396 C395 1.387 . S
H397 C409 0.930 . S
H398 C411 0.930 . S
H399 C412 0.930 . S
H400 C416 0.959 . S
H401 C416 0.959 . S
H402 C416 0.961 . S
H403 C417 0.960 . S
H404 C417 0.961 . S
H405 C417 0.959 1_455 S
H406 C420 0.918 1_455 S
H407 C421 0.931 . S
H408 C423 0.930 . S
C409 H397 0.930 . S
C409 C410 1.399 1_556 S
C409 C414 1.399 . S
C410 C409 1.399 1_554 S
C410 C411 1.376 . S
C411 H398 0.930 . S
C411 C410 1.376 . S
C411 C412 1.388 . S
C412 H399 0.930 . S
C412 C411 1.388 . S
C412 C413 1.390 . S
C413 C412 1.390 . S
C413 C414 1.394 1_554 S
C413 C419 1.465 1_554 S
C414 C409 1.399 . S
C414 C413 1.394 1_556 S
C414 C415 1.516 . S
C415 C414 1.516 . S
C415 C416 1.502 . S
C415 C417 1.561 . S
C415 C418 1.526 . S
C416 H400 0.959 . S
C416 H401 0.959 . S
C416 H402 0.961 . S
C416 C415 1.502 . S
C417 H403 0.960 . S
C417 H404 0.961 . S
C417 H405 0.959 1_655 S
C417 C415 1.561 . S
C418 C415 1.526 . S
C418 C419 1.396 . S
C418 C423 1.390 . S
C419 C413 1.465 1_556 S
C419 C418 1.396 . S
C419 C420 1.422 1_556 S
C420 H406 0.918 1_655 S
C420 C419 1.422 1_554 S
C420 C421 1.375 1_654 S
C421 H407 0.931 . S
C421 C420 1.375 1_456 S
C421 C422 1.389 1_455 S
C422 C421 1.389 1_655 S
C422 C423 1.387 . S
C423 H408 0.930 . S
C423 C418 1.390 . S
C423 C422 1.387 . S
H424 C436 0.930 . S
H425 C438 0.930 . S
H426 C439 0.930 . S
H427 C443 0.959 . S
H428 C443 0.959 . S
H429 C443 0.961 . S
H430 C444 0.960 . S
H431 C444 0.961 . S
H432 C444 0.959 . S
H433 C447 0.929 . S
H434 C448 0.931 . S
H435 C450 0.930 . S
C436 H424 0.930 . S
C436 C437 1.399 . S
C436 C441 1.399 . S
C437 C436 1.399 . S
C437 C438 1.376 . S
C438 H425 0.930 . S
C438 C437 1.376 . S
C438 C439 1.388 . S
C439 H426 0.930 . S
C439 C438 1.388 . S
C439 C440 1.390 . S
C440 C439 1.390 . S
C440 C441 1.394 . S
C440 C446 1.465 . S
C441 C436 1.399 . S
C441 C440 1.394 . S
C441 C442 1.516 . S
C442 C441 1.516 . S
C442 C443 1.502 . S
C442 C444 1.561 . S
C442 C445 1.526 . S
C443 H427 0.959 . S
C443 H428 0.959 . S
C443 H429 0.961 . S
C443 C442 1.502 . S
C444 H430 0.960 . S
C444 H431 0.961 . S
C444 H432 0.959 . S
C444 C442 1.561 . S
C445 C442 1.526 . S
C445 C446 1.396 . S
C445 C450 1.390 . S
C446 C440 1.465 . S
C446 C445 1.396 . S
C446 C447 1.399 . S
C447 H433 0.929 . S
C447 C446 1.399 . S
C447 C448 1.385 . S
C448 H434 0.931 . S
C448 C447 1.385 . S
C448 C449 1.389 . S
C449 C448 1.389 . S
C449 C450 1.387 . S
C450 H435 0.930 . S
C450 C445 1.390 . S
C450 C449 1.387 . S
H451 C463 0.930 . S
H452 C465 0.930 . S
H453 C466 0.930 . S
H454 C470 0.959 . S
H455 C470 0.959 . S
H456 C470 0.961 . S
H457 C471 0.960 . S
H458 C471 0.961 . S
H459 C471 0.959 . S
H460 C474 0.929 . S
H461 C475 0.931 . S
H462 C477 0.930 . S
C463 H451 0.930 . S
C463 C464 1.399 1_565 S
C463 C468 1.399 . S
C464 C463 1.399 1_545 S
C464 C465 1.376 . S
C465 H452 0.930 . S
C465 C464 1.376 . S
C465 C466 1.388 . S
C466 H453 0.930 . S
C466 C465 1.388 . S
C466 C467 1.390 . S
C467 C466 1.390 . S
C467 C468 1.394 1_545 S
C467 C473 1.465 . S
C468 C463 1.399 . S
C468 C467 1.394 1_565 S
C468 C469 1.516 . S
C469 C468 1.516 . S
C469 C470 1.502 . S
C469 C471 1.561 . S
C469 C472 1.526 . S
C470 H454 0.959 . S
C470 H455 0.959 . S
C470 H456 0.961 . S
C470 C469 1.502 . S
C471 H457 0.960 . S
C471 H458 0.961 . S
C471 H459 0.959 . S
C471 C469 1.561 . S
C472 C469 1.526 . S
C472 C473 1.396 1_565 S
C472 C477 1.390 . S
C473 C467 1.465 . S
C473 C472 1.396 1_545 S
C473 C474 1.399 . S
C474 H460 0.929 . S
C474 C473 1.399 . S
C474 C475 1.385 . S
C475 H461 0.931 . S
C475 C474 1.385 . S
C475 C476 1.389 1_545 S
C476 C475 1.389 1_565 S
C476 C477 1.387 . S
C477 H462 0.930 . S
C477 C472 1.390 . S
C477 C476 1.387 . S
H478 C490 0.930 . S
H479 C492 0.930 . S
H480 C493 0.930 . S
H481 C497 0.959 . S
H482 C497 0.959 . S
H483 C497 0.961 . S
H484 C498 0.960 . S
H485 C498 0.961 . S
H486 C498 0.959 . S
H487 C501 0.929 . S
H488 C502 0.931 . S
H489 C504 0.930 . S
C490 H478 0.930 . S
C490 C491 1.399 . S
C490 C495 1.399 . S
C491 C490 1.399 . S
C491 C492 1.376 . S
C492 H479 0.930 . S
C492 C491 1.376 . S
C492 C493 1.388 . S
C493 H480 0.930 . S
C493 C492 1.388 . S
C493 C494 1.390 . S
C494 C493 1.390 . S
C494 C495 1.394 . S
C494 C500 1.465 . S
C495 C490 1.399 . S
C495 C494 1.394 . S
C495 C496 1.516 . S
C496 C495 1.516 . S
C496 C497 1.502 . S
C496 C498 1.561 . S
C496 C499 1.526 . S
C497 H481 0.959 . S
C497 H482 0.959 . S
C497 H483 0.961 . S
C497 C496 1.502 . S
C498 H484 0.960 . S
C498 H485 0.961 . S
C498 H486 0.959 . S
C498 C496 1.561 . S
C499 C496 1.526 . S
C499 C500 1.396 . S
C499 C504 1.390 . S
C500 C494 1.465 . S
C500 C499 1.396 . S
C500 C501 1.399 . S
C501 H487 0.929 . S
C501 C500 1.399 . S
C501 C502 1.385 . S
C502 H488 0.931 . S
C502 C501 1.385 . S
C502 C503 1.389 . S
C503 C502 1.389 . S
C503 C504 1.387 . S
C504 H489 0.930 . S
C504 C499 1.390 . S
C504 C503 1.387 . S
H505 C517 0.930 . S
H506 C519 0.930 . S
H507 C520 0.930 . S
H508 C524 0.959 . S
H509 C524 0.959 . S
H510 C524 0.961 . S
H511 C525 0.960 . S
H512 C525 0.961 . S
H513 C525 0.959 . S
H514 C528 0.929 . S
H515 C529 0.931 . S
H516 C531 0.930 . S
C517 H505 0.930 . S
C517 C518 1.399 . S
C517 C522 1.399 . S
C518 C517 1.399 . S
C518 C519 1.376 . S
C519 H506 0.930 . S
C519 C518 1.376 . S
C519 C520 1.388 . S
C520 H507 0.930 . S
C520 C519 1.388 . S
C520 C521 1.390 . S
C521 C520 1.390 . S
C521 C522 1.394 . S
C521 C527 1.465 . S
C522 C517 1.399 . S
C522 C521 1.394 . S
C522 C523 1.516 . S
C523 C522 1.516 . S
C523 C524 1.502 . S
C523 C525 1.561 . S
C523 C526 1.526 . S
C524 H508 0.959 . S
C524 H509 0.959 . S
C524 H510 0.961 . S
C524 C523 1.502 . S
C525 H511 0.960 . S
C525 H512 0.961 . S
C525 H513 0.959 . S
C525 C523 1.561 . S
C526 C523 1.526 . S
C526 C527 1.396 . S
C526 C531 1.390 . S
C527 C521 1.465 . S
C527 C526 1.396 . S
C527 C528 1.399 . S
C528 H514 0.929 . S
C528 C527 1.399 . S
C528 C529 1.385 . S
C529 H515 0.931 . S
C529 C528 1.385 . S
C529 C530 1.389 . S
C530 C529 1.389 . S
C530 C531 1.387 . S
C531 H516 0.930 . S
C531 C526 1.390 . S
C531 C530 1.387 . S
H532 C544 0.930 . S
H533 C546 0.930 . S
H534 C547 0.930 . S
H535 C551 0.959 . S
H536 C551 0.959 1_455 S
H537 C551 0.961 . S
H538 C552 0.960 . S
H539 C552 0.961 . S
H540 C552 0.959 . S
H541 C555 0.929 . S
H542 C556 0.931 . S
H543 C558 0.931 . S
C544 H532 0.930 . S
C544 C545 1.399 . S
C544 C549 1.399 . S
C545 C544 1.399 . S
C545 C546 1.376 1_554 S
C546 H533 0.930 . S
C546 C545 1.376 1_556 S
C546 C547 1.388 . S
C547 H534 0.930 . S
C547 C546 1.388 . S
C547 C548 1.390 . S
C548 C547 1.390 . S
C548 C549 1.394 1_556 S
C548 C554 1.465 . S
C549 C544 1.399 . S
C549 C548 1.394 1_554 S
C549 C550 1.516 . S
C550 C549 1.516 . S
C550 C551 1.502 . S
C550 C552 1.561 1_655 S
C550 C553 1.526 1_554 S
C551 H535 0.959 . S
C551 H536 0.959 1_655 S
C551 H537 0.961 . S
C551 C550 1.502 . S
C552 H538 0.960 . S
C552 H539 0.961 . S
C552 H540 0.959 . S
C552 C550 1.561 1_455 S
C553 C550 1.526 1_556 S
C553 C554 1.396 . S
C553 C558 1.390 1_655 S
C554 C548 1.465 . S
C554 C553 1.396 . S
C554 C555 1.399 . S
C555 H541 0.929 . S
C555 C554 1.399 . S
C555 C556 1.385 . S
C556 H542 0.931 . S
C556 C555 1.385 . S
C556 C557 1.389 1_655 S
C557 C556 1.389 1_455 S
C557 C558 1.387 . S
C558 H543 0.931 . S
C558 C553 1.390 1_455 S
C558 C557 1.387 . S
H559 C571 0.930 . S
H560 C573 0.930 . S
H561 C574 0.930 . S
H562 C578 0.959 . S
H563 C578 0.959 . S
H564 C578 0.961 . S
H565 C579 0.960 . S
H566 C579 0.961 . S
H567 C579 0.959 1_554 S
H568 C582 0.929 . S
H569 C583 0.931 . S
H570 C585 0.930 . S
C571 H559 0.930 . S
C571 C572 1.399 1_566 S
C571 C576 1.399 . S
C572 C571 1.399 1_544 S
C572 C573 1.376 . S
C573 H560 0.930 . S
C573 C572 1.376 . S
C573 C574 1.388 . S
C574 H561 0.930 . S
C574 C573 1.388 . S
C574 C575 1.390 1_554 S
C575 C574 1.390 1_556 S
C575 C576 1.394 1_545 S
C575 C581 1.465 . S
C576 C571 1.399 . S
C576 C575 1.394 1_565 S
C576 C577 1.516 . S
C577 C576 1.516 . S
C577 C578 1.502 . S
C577 C579 1.561 . S
C577 C580 1.526 . S
C578 H562 0.959 . S
C578 H563 0.959 . S
C578 H564 0.961 . S
C578 C577 1.502 . S
C579 H565 0.960 . S
C579 H566 0.961 . S
C579 H567 0.959 1_556 S
C579 C577 1.561 . S
C580 C577 1.526 . S
C580 C581 1.396 1_565 S
C580 C585 1.390 . S
C581 C575 1.465 . S
C581 C580 1.396 1_545 S
C581 C582 1.399 . S
C582 H568 0.929 . S
C582 C581 1.399 . S
C582 C583 1.385 . S
C583 H569 0.931 . S
C583 C582 1.385 . S
C583 C584 1.389 . S
C584 C583 1.389 . S
C584 C585 1.387 1_545 S
C585 H570 0.930 . S
C585 C580 1.390 . S
C585 C584 1.387 1_565 S
H586 C598 0.930 . S
H587 C600 0.930 . S
H588 C601 0.930 . S
H589 C605 0.959 . S
H590 C605 0.959 . S
H591 C605 0.961 . S
H592 C606 0.960 . S
H593 C606 0.961 . S
H594 C606 0.959 1_556 S
H595 C609 0.929 . S
H596 C610 0.931 . S
H597 C612 0.930 . S
C598 H586 0.930 . S
C598 C599 1.399 . S
C598 C603 1.399 . S
C599 C598 1.399 . S
C599 C600 1.376 1_554 S
C600 H587 0.930 . S
C600 C599 1.376 1_556 S
C600 C601 1.388 . S
C601 H588 0.930 . S
C601 C600 1.388 . S
C601 C602 1.390 . S
C602 C601 1.390 . S
C602 C603 1.394 1_556 S
C602 C608 1.465 . S
C603 C598 1.399 . S
C603 C602 1.394 1_554 S
C603 C604 1.516 . S
C604 C603 1.516 . S
C604 C605 1.502 . S
C604 C606 1.561 . S
C604 C607 1.526 1_554 S
C605 H589 0.959 . S
C605 H590 0.959 . S
C605 H591 0.961 . S
C605 C604 1.502 . S
C606 H592 0.960 . S
C606 H593 0.961 . S
C606 H594 0.959 1_554 S
C606 C604 1.561 . S
C607 C604 1.526 1_556 S
C607 C608 1.396 . S
C607 C612 1.390 . S
C608 C602 1.465 . S
C608 C607 1.396 . S
C608 C609 1.399 . S
C609 H595 0.929 . S
C609 C608 1.399 . S
C609 C610 1.385 . S
C610 H596 0.931 . S
C610 C609 1.385 . S
C610 C611 1.389 . S
C611 C610 1.389 . S
C611 C612 1.387 . S
C612 H597 0.930 . S
C612 C607 1.390 . S
C612 C611 1.387 . S
H613 C625 0.930 . S
H614 C627 0.930 . S
H615 C628 0.930 . S
H616 C632 0.959 . S
H617 C632 0.959 . S
H618 C632 0.961 . S
H619 C633 0.960 . S
H620 C633 0.961 . S
H621 C633 0.959 1_554 S
H622 C636 0.929 . S
H623 C637 0.931 . S
H624 C639 0.930 . S
C625 H613 0.930 . S
C625 C626 1.399 . S
C625 C630 1.399 . S
C626 C625 1.399 . S
C626 C627 1.376 . S
C627 H614 0.930 . S
C627 C626 1.376 . S
C627 C628 1.388 . S
C628 H615 0.930 . S
C628 C627 1.388 . S
C628 C629 1.390 . S
C629 C628 1.390 . S
C629 C630 1.394 . S
C629 C635 1.465 . S
C630 C625 1.399 . S
C630 C629 1.394 . S
C630 C631 1.516 1_554 S
C631 C630 1.516 1_556 S
C631 C632 1.502 . S
C631 C633 1.561 . S
C631 C634 1.526 . S
C632 H616 0.959 . S
C632 H617 0.959 . S
C632 H618 0.961 . S
C632 C631 1.502 . S
C633 H619 0.960 . S
C633 H620 0.961 . S
C633 H621 0.959 1_556 S
C633 C631 1.561 . S
C634 C631 1.526 . S
C634 C635 1.396 1_556 S
C634 C639 1.390 . S
C635 C629 1.465 . S
C635 C634 1.396 1_554 S
C635 C636 1.399 . S
C636 H622 0.929 . S
C636 C635 1.399 . S
C636 C637 1.385 1_554 S
C637 H623 0.931 . S
C637 C636 1.385 1_556 S
C637 C638 1.389 . S
C638 C637 1.389 . S
C638 C639 1.387 . S
C639 H624 0.930 . S
C639 C634 1.390 . S
C639 C638 1.387 . S
H640 C652 0.930 . S
H641 C654 0.930 . S
H642 C655 0.930 . S
H643 C659 0.959 . S
H644 C659 0.959 . S
H645 C659 0.961 . S
H646 C660 0.960 . S
H647 C660 0.961 . S
H648 C660 0.959 . S
H649 C663 0.929 . S
H650 C664 0.931 . S
H651 C666 0.930 . S
C652 H640 0.930 . S
C652 C653 1.399 . S
C652 C657 1.399 . S
C653 C652 1.399 . S
C653 C654 1.376 . S
C654 H641 0.930 . S
C654 C653 1.376 . S
C654 C655 1.388 . S
C655 H642 0.930 . S
C655 C654 1.388 . S
C655 C656 1.390 . S
C656 C655 1.390 . S
C656 C657 1.394 . S
C656 C662 1.465 . S
C657 C652 1.399 . S
C657 C656 1.394 . S
C657 C658 1.516 . S
C658 C657 1.516 . S
C658 C659 1.502 . S
C658 C660 1.561 . S
C658 C661 1.526 . S
C659 H643 0.959 . S
C659 H644 0.959 . S
C659 H645 0.961 . S
C659 C658 1.502 . S
C660 H646 0.960 . S
C660 H647 0.961 . S
C660 H648 0.959 . S
C660 C658 1.561 . S
C661 C658 1.526 . S
C661 C662 1.396 . S
C661 C666 1.390 . S
C662 C656 1.465 . S
C662 C661 1.396 . S
C662 C663 1.399 . S
C663 H649 0.929 . S
C663 C662 1.399 . S
C663 C664 1.385 . S
C664 H650 0.931 . S
C664 C663 1.385 . S
C664 C665 1.389 . S
C665 C664 1.389 . S
C665 C666 1.387 . S
C666 H651 0.930 . S
C666 C661 1.390 . S
C666 C665 1.387 . S
H667 C679 0.930 . S
H668 C681 0.930 . S
H669 C682 0.930 . S
H670 C686 0.959 . S
H671 C686 0.959 . S
H672 C686 0.961 . S
H673 C687 0.960 . S
H674 C687 0.961 . S
H675 C687 0.959 . S
H676 C690 0.929 . S
H677 C691 0.931 . S
H678 C693 0.930 . S
C679 H667 0.930 . S
C679 C680 1.399 1_545 S
C679 C684 1.399 . S
C680 C679 1.399 1_565 S
C680 C681 1.376 . S
C681 H668 0.930 . S
C681 C680 1.376 . S
C681 C682 1.388 . S
C682 H669 0.930 . S
C682 C681 1.388 . S
C682 C683 1.390 . S
C683 C682 1.390 . S
C683 C684 1.394 1_565 S
C683 C689 1.465 . S
C684 C679 1.399 . S
C684 C683 1.394 1_545 S
C684 C685 1.516 . S
C685 C684 1.516 . S
C685 C686 1.502 . S
C685 C687 1.561 . S
C685 C688 1.526 . S
C686 H670 0.959 . S
C686 H671 0.959 . S
C686 H672 0.961 . S
C686 C685 1.502 . S
C687 H673 0.960 . S
C687 H674 0.961 . S
C687 H675 0.959 . S
C687 C685 1.561 . S
C688 C685 1.526 . S
C688 C689 1.396 1_545 S
C688 C693 1.390 . S
C689 C683 1.465 . S
C689 C688 1.396 1_565 S
C689 C690 1.399 . S
C690 H676 0.929 . S
C690 C689 1.399 . S
C690 C691 1.385 . S
C691 H677 0.931 . S
C691 C690 1.385 . S
C691 C692 1.389 1_565 S
C692 C691 1.389 1_545 S
C692 C693 1.387 . S
C693 H678 0.930 . S
C693 C688 1.390 . S
C693 C692 1.387 . S
H694 C706 0.930 . S
H695 C708 0.930 . S
H696 C709 0.930 . S
H697 C713 0.959 . S
H698 C713 0.959 . S
H699 C713 0.961 . S
H700 C714 0.960 . S
H701 C714 0.974 . S
H702 C714 0.959 . S
H703 C717 0.929 . S
H704 C718 0.931 . S
H705 C720 0.930 1_556 S
C706 H694 0.930 . S
C706 C707 1.399 . S
C706 C711 1.399 . S
C707 C706 1.399 . S
C707 C708 1.376 . S
C708 H695 0.930 . S
C708 C707 1.376 . S
C708 C709 1.388 . S
C709 H696 0.930 . S
C709 C708 1.388 . S
C709 C710 1.390 . S
C710 C709 1.390 . S
C710 C711 1.394 . S
C710 C716 1.465 . S
C711 C706 1.399 . S
C711 C710 1.394 . S
C711 C712 1.516 . S
C712 C711 1.516 . S
C712 C713 1.502 . S
C712 C714 1.561 . S
C712 C715 1.526 . S
C713 H697 0.959 . S
C713 H698 0.959 . S
C713 H699 0.961 . S
C713 C712 1.502 . S
C714 H700 0.960 . S
C714 H701 0.974 . S
C714 H702 0.959 . S
C714 C712 1.561 . S
C715 C712 1.526 . S
C715 C716 1.396 . S
C715 C720 1.390 . S
C716 C710 1.465 . S
C716 C715 1.396 . S
C716 C717 1.399 . S
C717 H703 0.929 . S
C717 C716 1.399 . S
C717 C718 1.385 . S
C718 H704 0.931 . S
C718 C717 1.385 . S
C718 C719 1.389 . S
C719 C718 1.389 . S
C719 C720 1.387 . S
C720 H705 0.930 1_554 S
C720 C715 1.390 . S
C720 C719 1.387 . S
H721 C733 0.930 . S
H722 C735 0.930 . S
H723 C736 0.930 . S
H724 C740 0.959 . S
H725 C740 0.959 1_556 S
H726 C740 0.961 . S
H727 C741 0.960 . S
H728 C741 0.961 . S
H729 C741 0.959 . S
H730 C744 0.929 . S
H731 C745 0.931 . S
H732 C747 0.930 . S
C733 H721 0.930 . S
C733 C734 1.399 . S
C733 C738 1.399 . S
C734 C733 1.399 . S
C734 C735 1.376 . S
C735 H722 0.930 . S
C735 C734 1.376 . S
C735 C736 1.388 . S
C736 H723 0.930 . S
C736 C735 1.388 . S
C736 C737 1.390 . S
C737 C736 1.390 . S
C737 C738 1.394 . S
C737 C743 1.465 . S
C738 C733 1.399 . S
C738 C737 1.394 . S
C738 C739 1.516 . S
C739 C738 1.516 . S
C739 C740 1.502 . S
C739 C741 1.561 . S
C739 C742 1.526 . S
C740 H724 0.959 . S
C740 H725 0.959 1_554 S
C740 H726 0.961 . S
C740 C739 1.502 . S
C741 H727 0.960 . S
C741 H728 0.961 . S
C741 H729 0.959 . S
C741 C739 1.561 . S
C742 C739 1.526 . S
C742 C743 1.396 . S
C742 C747 1.390 1_554 S
C743 C737 1.465 . S
C743 C742 1.396 . S
C743 C744 1.399 . S
C744 H730 0.929 . S
C744 C743 1.399 . S
C744 C745 1.385 . S
C745 H731 0.931 . S
C745 C744 1.385 . S
C745 C746 1.389 1_554 S
C746 C745 1.389 1_556 S
C746 C747 1.387 . S
C747 H732 0.930 . S
C747 C742 1.390 1_556 S
C747 C746 1.387 . S
H748 C760 0.930 . S
H749 C762 0.930 . S
H750 C763 0.930 . S
H751 C767 0.959 . S
H752 C767 0.959 . S
H753 C767 0.961 . S
H754 C768 0.960 . S
H755 C768 0.961 . S
H756 C768 0.959 1_655 S
H757 C771 0.929 . S
H758 C772 0.931 . S
H759 C774 0.930 1_455 S
C760 H748 0.930 . S
C760 C761 1.399 . S
C760 C765 1.399 . S
C761 C760 1.399 . S
C761 C762 1.376 . S
C762 H749 0.930 . S
C762 C761 1.376 . S
C762 C763 1.388 . S
C763 H750 0.930 . S
C763 C762 1.388 . S
C763 C764 1.390 . S
C764 C763 1.390 . S
C764 C765 1.394 . S
C764 C770 1.465 . S
C765 C760 1.399 . S
C765 C764 1.394 . S
C765 C766 1.516 . S
C766 C765 1.516 . S
C766 C767 1.502 1_655 S
C766 C768 1.561 1_655 S
C766 C769 1.526 . S
C767 H751 0.959 . S
C767 H752 0.959 . S
C767 H753 0.961 . S
C767 C766 1.502 1_455 S
C768 H754 0.960 . S
C768 H755 0.961 . S
C768 H756 0.959 1_455 S
C768 C766 1.561 1_455 S
C769 C766 1.526 . S
C769 C770 1.396 . S
C769 C774 1.390 . S
C770 C764 1.465 . S
C770 C769 1.396 . S
C770 C771 1.399 . S
C771 H757 0.929 . S
C771 C770 1.399 . S
C771 C772 1.385 . S
C772 H758 0.931 . S
C772 C771 1.385 . S
C772 C773 1.389 . S
C773 C772 1.389 . S
C773 C774 1.387 . S
C774 H759 0.930 1_655 S
C774 C769 1.390 . S
C774 C773 1.387 . S
H775 C787 0.930 . S
H776 C789 0.930 . S
H777 C790 0.930 . S
H778 C794 0.959 . S
H779 C794 0.959 . S
H780 C794 0.961 . S
H781 C795 0.960 . S
H782 C795 0.961 . S
H783 C795 0.959 . S
H784 C798 0.929 . S
H785 C799 0.931 . S
H786 C801 0.930 . S
C787 H775 0.930 . S
C787 C788 1.371 1_565 S
C787 C792 1.399 . S
C788 C787 1.371 1_545 S
C788 C789 1.414 . S
C789 H776 0.930 . S
C789 C788 1.414 . S
C789 C790 1.388 . S
C790 H777 0.930 . S
C790 C789 1.388 . S
C790 C791 1.390 . S
C791 C790 1.390 . S
C791 C792 1.394 1_545 S
C791 C797 1.465 . S
C792 C787 1.399 . S
C792 C791 1.394 1_565 S
C792 C793 1.516 . S
C793 C792 1.516 . S
C793 C794 1.502 . S
C793 C795 1.561 . S
C793 C796 1.526 . S
C794 H778 0.959 . S
C794 H779 0.959 . S
C794 H780 0.961 . S
C794 C793 1.502 . S
C795 H781 0.960 . S
C795 H782 0.961 . S
C795 H783 0.959 . S
C795 C793 1.561 . S
C796 C793 1.526 . S
C796 C797 1.396 1_565 S
C796 C801 1.390 . S
C797 C791 1.465 . S
C797 C796 1.396 1_545 S
C797 C798 1.399 . S
C798 H784 0.929 . S
C798 C797 1.399 . S
C798 C799 1.385 . S
C799 H785 0.931 . S
C799 C798 1.385 . S
C799 C800 1.389 1_545 S
C800 C799 1.389 1_565 S
C800 C801 1.387 . S
C801 H786 0.930 . S
C801 C796 1.390 . S
C801 C800 1.387 . S
H802 C814 0.930 . S
H803 C816 0.930 . S
H804 C817 0.930 . S
H805 C821 0.959 . S
H806 C821 0.959 . S
H807 C821 0.961 . S
H808 C822 0.960 . S
H809 C822 0.961 . S
H810 C822 0.959 . S
H811 C825 0.929 . S
H812 C826 0.931 . S
H813 C828 0.930 . S
C814 H802 0.930 . S
C814 C815 1.399 . S
C814 C819 1.399 . S
C815 C814 1.399 . S
C815 C816 1.376 . S
C816 H803 0.930 . S
C816 C815 1.376 . S
C816 C817 1.388 . S
C817 H804 0.930 . S
C817 C816 1.388 . S
C817 C818 1.390 . S
C818 C817 1.390 . S
C818 C819 1.394 . S
C818 C824 1.465 . S
C819 C814 1.399 . S
C819 C818 1.394 . S
C819 C820 1.516 . S
C820 C819 1.516 . S
C820 C821 1.502 . S
C820 C822 1.561 . S
C820 C823 1.526 . S
C821 H805 0.959 . S
C821 H806 0.959 . S
C821 H807 0.961 . S
C821 C820 1.502 . S
C822 H808 0.960 . S
C822 H809 0.961 . S
C822 H810 0.959 . S
C822 C820 1.561 . S
C823 C820 1.526 . S
C823 C824 1.396 . S
C823 C828 1.390 . S
C824 C818 1.465 . S
C824 C823 1.396 . S
C824 C825 1.399 . S
C825 H811 0.929 . S
C825 C824 1.399 . S
C825 C826 1.385 . S
C826 H812 0.931 . S
C826 C825 1.385 . S
C826 C827 1.389 . S
C827 C826 1.389 . S
C827 C828 1.387 . S
C828 H813 0.930 . S
C828 C823 1.390 . S
C828 C827 1.387 . S
H829 C841 0.930 . S
H830 C843 0.930 . S
H831 C844 0.930 . S
H832 C848 0.959 . S
H833 C848 0.959 . S
H834 C848 0.961 . S
H835 C849 0.960 . S
H836 C849 0.961 . S
H837 C849 0.959 . S
H838 C852 0.929 . S
H839 C853 0.931 . S
H840 C855 0.930 . S
C841 H829 0.930 . S
C841 C842 1.399 . S
C841 C846 1.399 . S
C842 C841 1.399 . S
C842 C843 1.376 . S
C843 H830 0.930 . S
C843 C842 1.376 . S
C843 C844 1.388 . S
C844 H831 0.930 . S
C844 C843 1.388 . S
C844 C845 1.390 . S
C845 C844 1.390 . S
C845 C846 1.394 . S
C845 C851 1.465 . S
C846 C841 1.399 . S
C846 C845 1.394 . S
C846 C847 1.516 . S
C847 C846 1.516 . S
C847 C848 1.502 . S
C847 C849 1.561 . S
C847 C850 1.526 . S
C848 H832 0.959 . S
C848 H833 0.959 . S
C848 H834 0.961 . S
C848 C847 1.502 . S
C849 H835 0.960 . S
C849 H836 0.961 . S
C849 H837 0.959 . S
C849 C847 1.561 . S
C850 C847 1.526 . S
C850 C851 1.396 . S
C850 C855 1.390 . S
C851 C845 1.465 . S
C851 C850 1.396 . S
C851 C852 1.399 . S
C852 H838 0.929 . S
C852 C851 1.399 . S
C852 C853 1.385 . S
C853 H839 0.931 . S
C853 C852 1.385 . S
C853 C854 1.389 . S
C854 C853 1.389 . S
C854 C855 1.387 . S
C855 H840 0.930 . S
C855 C850 1.390 . S
C855 C854 1.387 . S
C221 C74 1.640 1_565 S
C233 C98 1.638 . S
C260 C128 1.767 . S
C248 C85 1.764 . S
C287 N162 1.349 . S
C275 C52 1.367 . S
C314 N192 1.404 . S
C302 C63 1.473 . S
C341 C89 1.621 . S
C329 C30 1.636 1_565 S
C356 C41 1.712 . S
C368 C119 1.788 . S
C383 C8 1.329 . S
C395 N154 1.327 . S
C410 C19 1.393 . S
C422 N184 1.380 1_655 S
C449 C104 0.421 . S
C437 C62 0.469 . S
C476 C134 0.780 . S
C464 C73 0.758 . S
C503 C175 1.113 . S
C491 C84 1.098 . S
C518 C51 0.593 . S
C530 C205 0.644 . S
C545 C18 0.617 . S
C557 C115 0.429 . S
C584 C145 0.828 . S
C572 C29 0.751 . S
C611 C164 1.062 . S
C599 C40 1.062 . S
C626 C7 0.615 . S
C638 C194 0.644 . S
C653 C60 1.259 . S
C665 N94 1.488 . S
C680 C71 1.221 1_565 S
C692 N124 1.368 . S
C719 C149 1.647 1_554 S
C707 C82 1.384 . S
C746 C179 1.571 . S
C734 C49 1.306 . S
C761 C16 1.252 . S
C773 N102 1.510 . S
C800 N132 1.379 . S
C788 C27 1.236 . S
C827 C158 1.651 . S
C815 C38 1.255 . S
C842 C5 1.258 . S
C854 C188 1.568 . S
