# Generated by pormake.
# Topology apo, (3,6)-cn, num edge types: 1
# Building blocks:
#     Node 0, Type 0, BuildingBlock: WUSLED_clean_sbu_0, # of connection points: 3
#     Node 1, Type 0, BuildingBlock: WUSLED_clean_sbu_0, # of connection points: 3
#     Node 2, Type 0, BuildingBlock: WUSLED_clean_sbu_0, # of connection points: 3
#     Node 3, Type 0, BuildingBlock: WUSLED_clean_sbu_0, # of connection points: 3
#     Node 4, Type 0, BuildingBlock: WUSLED_clean_sbu_0, # of connection points: 3
#     Node 5, Type 0, BuildingBlock: WUSLED_clean_sbu_0, # of connection points: 3
#     Node 6, Type 0, BuildingBlock: WUSLED_clean_sbu_0, # of connection points: 3
#     Node 7, Type 0, BuildingBlock: WUSLED_clean_sbu_0, # of connection points: 3
#     Node 8, Type 1, BuildingBlock: KUMBOL_clean_sbu_1, # of connection points: 6
#     Node 9, Type 1, BuildingBlock: KUMBOL_clean_sbu_1, # of connection points: 6
#     Node 10, Type 1, BuildingBlock: KUMBOL_clean_sbu_1, # of connection points: 6
#     Node 11, Type 1, BuildingBlock: KUMBOL_clean_sbu_1, # of connection points: 6
#     Edge 12, Type (0, 1), BuildingBlock: EZIPEK_clean_linker_0, # of connection points: 2
#     Edge 13, Type (0, 1), BuildingBlock: EZIPEK_clean_linker_0, # of connection points: 2
#     Edge 14, Type (0, 1), BuildingBlock: EZIPEK_clean_linker_0, # of connection points: 2
#     Edge 15, Type (0, 1), BuildingBlock: EZIPEK_clean_linker_0, # of connection points: 2
#     Edge 16, Type (0, 1), BuildingBlock: EZIPEK_clean_linker_0, # of connection points: 2
#     Edge 17, Type (0, 1), BuildingBlock: EZIPEK_clean_linker_0, # of connection points: 2
#     Edge 18, Type (0, 1), BuildingBlock: EZIPEK_clean_linker_0, # of connection points: 2
#     Edge 19, Type (0, 1), BuildingBlock: EZIPEK_clean_linker_0, # of connection points: 2
#     Edge 20, Type (0, 1), BuildingBlock: EZIPEK_clean_linker_0, # of connection points: 2
#     Edge 21, Type (0, 1), BuildingBlock: EZIPEK_clean_linker_0, # of connection points: 2
#     Edge 22, Type (0, 1), BuildingBlock: EZIPEK_clean_linker_0, # of connection points: 2
#     Edge 23, Type (0, 1), BuildingBlock: EZIPEK_clean_linker_0, # of connection points: 2
#     Edge 24, Type (0, 1), BuildingBlock: EZIPEK_clean_linker_0, # of connection points: 2
#     Edge 25, Type (0, 1), BuildingBlock: EZIPEK_clean_linker_0, # of connection points: 2
#     Edge 26, Type (0, 1), BuildingBlock: EZIPEK_clean_linker_0, # of connection points: 2
#     Edge 27, Type (0, 1), BuildingBlock: EZIPEK_clean_linker_0, # of connection points: 2
#     Edge 28, Type (0, 1), BuildingBlock: EZIPEK_clean_linker_0, # of connection points: 2
#     Edge 29, Type (0, 1), BuildingBlock: EZIPEK_clean_linker_0, # of connection points: 2
#     Edge 30, Type (0, 1), BuildingBlock: EZIPEK_clean_linker_0, # of connection points: 2
#     Edge 31, Type (0, 1), BuildingBlock: EZIPEK_clean_linker_0, # of connection points: 2
#     Edge 32, Type (0, 1), BuildingBlock: EZIPEK_clean_linker_0, # of connection points: 2
#     Edge 33, Type (0, 1), BuildingBlock: EZIPEK_clean_linker_0, # of connection points: 2
#     Edge 34, Type (0, 1), BuildingBlock: EZIPEK_clean_linker_0, # of connection points: 2
#     Edge 35, Type (0, 1), BuildingBlock: EZIPEK_clean_linker_0, # of connection points: 2
# Relax obj value: 0.009
# Max RMSD: 0.111
# Mean RMSD: 0.083
data_MOF--net-apo--node1-WUSLED_clean_sbu_0--node2-KUMBOL_clean_sbu_1--edge1-EZIPEK_clean_linker_0
_symmetry_space_group_name_H-M    P1
_symmetry_Int_Tables_number       1
_symmetry_cell_setting            triclinic
loop_
_symmetry_equiv_pos_as_xyz
'x, y, z'
_cell_length_a     25.485952
_cell_length_b     43.519326
_cell_length_c     53.443595
_cell_angle_alpha  90.154692
_cell_angle_beta   89.85143
_cell_angle_gamma 90.508995
loop_
_atom_site_label
_atom_site_type_symbol
_atom_site_fract_x
_atom_site_fract_y
_atom_site_fract_z
_atom_type_partial_charge
C0 C 0.32794 0.43915 0.37223 0.0
C1 C 0.34293 0.46262 0.3889 0.0
C2 C 0.36908 0.49498 0.35392 0.0
C3 C 0.36329 0.49041 0.37978 0.0
C4 C 0.35389 0.47157 0.33728 0.0
C5 C 0.33337 0.44385 0.34639 0.0
U6 U 0.30339 0.38089 0.4246 0.0
O7 O 0.23378 0.35211 0.43225 0.0
O8 O 0.30914 0.33046 0.42377 0.0
C9 C 0.25854 0.3264 0.42743 0.0
C10 C 0.30729 0.40957 0.38141 0.0
C11 C 0.23201 0.30547 0.40973 0.0
C12 C 0.2017 0.29294 0.36776 0.0
C13 C 0.22846 0.3127 0.38419 0.0
C14 C 0.18228 0.25846 0.40218 0.0
C15 C 0.17811 0.26581 0.37672 0.0
C16 C 0.20905 0.27817 0.41857 0.0
C17 C 0.35 0.40052 0.49134 0.0
C18 C 0.33468 0.36792 0.52757 0.0
C19 C 0.37971 0.41685 0.53252 0.0
C20 C 0.3751 0.42215 0.50682 0.0
C21 C 0.35926 0.3898 0.54309 0.0
C22 C 0.33004 0.37325 0.50182 0.0
C23 C 0.34408 0.40726 0.46452 0.0
O24 O 0.34278 0.38975 0.38858 0.0
O25 O 0.26712 0.4112 0.39682 0.0
O26 O 0.29583 0.41198 0.45691 0.0
O27 O 0.37122 0.39 0.44907 0.0
H28 H 0.3392 0.45933 0.40892 0.0
H29 H 0.37513 0.50822 0.39286 0.0
H30 H 0.35835 0.4747 0.31728 0.0
H31 H 0.32208 0.42596 0.33327 0.0
H32 H 0.19877 0.29895 0.34816 0.0
H33 H 0.24593 0.33371 0.37705 0.0
H34 H 0.16421 0.23766 0.4094 0.0
H35 H 0.21139 0.27226 0.43822 0.0
H36 H 0.31857 0.34695 0.53546 0.0
H37 H 0.39869 0.43398 0.54423 0.0
H38 H 0.39068 0.44333 0.49905 0.0
H39 H 0.31048 0.35632 0.49013 0.0
C40 C 0.18502 0.16465 0.99536 0.0
C41 C 0.13154 0.16194 1.00133 0.0
C42 C 0.15216 0.1439 0.04375 0.0
C43 C 0.11547 0.15275 1.02527 0.0
C44 C 0.2054 0.15114 0.03842 0.0
C45 C 0.22161 0.16046 1.01452 0.0
U46 U 0.2016 0.14507 0.92597 0.0
O47 O 0.19095 0.17339 0.89216 0.0
O48 O 0.26731 0.15252 0.89992 0.0
C49 C 0.24044 0.17105 0.88548 0.0
C50 C 0.20313 0.17282 0.96972 0.0
C51 C 0.26724 0.19968 0.87744 0.0
C52 C 0.3347 0.23915 0.88274 0.0
C53 C 0.3065 0.21382 0.89203 0.0
C54 C 0.28368 0.23726 0.84457 0.0
C55 C 0.3239 0.25077 0.85881 0.0
C56 C 0.25565 0.21189 0.85381 0.0
C57 C 0.14836 0.06538 0.90514 0.0
C58 C 0.1462 0.04598 0.86239 0.0
C59 C 0.11001 0.01525 0.89615 0.0
C60 C 0.12388 0.0382 0.91329 0.0
C61 C 0.12057 0.01908 0.87058 0.0
C62 C 0.16004 0.06906 0.8796 0.0
C63 C 0.15946 0.08973 0.92361 0.0
O64 O 0.24283 0.15689 0.96099 0.0
O65 O 0.16652 0.17735 0.95286 0.0
O66 O 0.13234 0.11509 0.92125 0.0
O67 O 0.20913 0.09481 0.92885 0.0
H68 H 0.10178 0.16707 0.98756 0.0
H69 H 0.0739 0.15337 1.0289 0.0
H70 H 0.23543 0.15019 0.05257 0.0
H71 H 0.26301 0.16446 1.01105 0.0
H72 H 0.36566 0.24932 0.89397 0.0
H73 H 0.31619 0.20488 0.91033 0.0
H74 H 0.27491 0.24589 0.82606 0.0
H75 H 0.22569 0.20131 0.84221 0.0
H76 H 0.15416 0.0494 0.84267 0.0
H77 H 0.08988 0.99477 0.90275 0.0
H78 H 0.11454 0.03499 0.9329 0.0
H79 H 0.17887 0.08994 0.87299 0.0
C80 C 0.79574 0.09241 0.69361 0.0
C81 C 0.83445 0.07511 0.68145 0.0
C82 C 0.83731 0.04005 0.71682 0.0
C83 C 0.85516 0.0491 0.69303 0.0
C84 C 0.79782 0.05697 0.72871 0.0
C85 C 0.77726 0.08303 0.71717 0.0
U86 U 0.76724 0.14764 0.63875 0.0
O87 O 0.69678 0.17591 0.63343 0.0
O88 O 0.77383 0.19801 0.63826 0.0
C89 C 0.7227 0.20168 0.63747 0.0
C90 C 0.77523 0.1208 0.68258 0.0
C91 C 0.7004 0.22188 0.65694 0.0
C92 C 0.70123 0.24293 0.69921 0.0
C93 C 0.72277 0.22364 0.68095 0.0
C94 C 0.63386 0.2583 0.66998 0.0
C95 C 0.65667 0.26037 0.69383 0.0
C96 C 0.6557 0.23925 0.65164 0.0
C97 C 0.80584 0.12797 0.57078 0.0
C98 C 0.77148 0.15158 0.53302 0.0
C99 C 0.84844 0.11941 0.53057 0.0
C100 C 0.84578 0.11455 0.55643 0.0
C101 C 0.81103 0.13772 0.51863 0.0
C102 C 0.76895 0.14681 0.55893 0.0
C103 C 0.80274 0.12123 0.59783 0.0
O104 O 0.81037 0.14026 0.67375 0.0
O105 O 0.73406 0.11761 0.66803 0.0
O106 O 0.75549 0.11615 0.60697 0.0
O107 O 0.83216 0.13849 0.61246 0.0
H108 H 0.84907 0.08194 0.66323 0.0
H109 H 0.88555 0.0362 0.68359 0.0
H110 H 0.78355 0.05025 0.74702 0.0
H111 H 0.74736 0.09612 0.7268 0.0
H112 H 0.71923 0.24424 0.71753 0.0
H113 H 0.75692 0.21018 0.6856 0.0
H114 H 0.59944 0.27164 0.66555 0.0
H115 H 0.6377 0.23808 0.63332 0.0
H116 H 0.74231 0.1658 0.52412 0.0
H117 H 0.87925 0.10856 0.5198 0.0
H118 H 0.87463 0.09998 0.5652 0.0
H119 H 0.73792 0.1575 0.56966 0.0
C120 C 0.71354 0.35876 0.06941 0.0
C121 C 0.74587 0.37741 0.05422 0.0
C122 C 0.6993 0.36026 1.01693 0.0
C123 C 0.73873 0.37816 1.02825 0.0
C124 C 0.66602 0.34231 0.03204 0.0
C125 C 0.67323 0.34145 0.058 0.0
U126 U 0.71434 0.38335 0.13952 0.0
O127 O 0.69974 0.35512 0.17297 0.0
O128 O 0.77651 0.37736 0.16755 0.0
C129 C 0.7482 0.35819 0.18108 0.0
C130 C 0.72485 0.35454 0.09647 0.0
C131 C 0.77452 0.33006 0.19023 0.0
C132 C 0.76895 0.27999 0.21051 0.0
C133 C 0.74471 0.30469 0.19862 0.0
C134 C 0.85352 0.30501 0.20538 0.0
C135 C 0.82339 0.28024 0.21432 0.0
C136 C 0.82933 0.32973 0.1935 0.0
C137 C 0.65828 0.45986 0.16213 0.0
C138 C 0.68259 0.4883 0.19977 0.0
C139 C 0.59828 0.49699 0.1803 0.0
C140 C 0.6101 0.47523 0.16186 0.0
C141 C 0.63458 0.50384 0.19925 0.0
C142 C 0.69427 0.46632 0.18142 0.0
C143 C 0.67024 0.43756 0.14202 0.0
O144 O 0.76171 0.37206 0.10636 0.0
O145 O 0.68434 0.35042 0.11144 0.0
O146 O 0.64329 0.41168 0.14263 0.0
O147 O 0.72016 0.43365 0.1367 0.0
H148 H 0.77766 0.3908 0.06225 0.0
H149 H 0.76488 0.3921 1.01688 0.0
H150 H 0.63546 0.32827 1.02363 0.0
H151 H 0.64815 0.32653 0.06909 0.0
H152 H 0.74506 0.26117 0.21751 0.0
H153 H 0.70239 0.30437 0.19682 0.0
H154 H 0.89554 0.30566 0.20837 0.0
H155 H 0.85341 0.34907 0.18767 0.0
H156 H 0.71107 0.49338 0.21425 0.0
H157 H 0.56114 0.50887 0.17959 0.0
H158 H 0.58176 0.47057 0.14723 0.0
H159 H 0.73157 0.45463 0.18219 0.0
C160 C 0.68426 0.58474 0.69147 0.0
C161 C 0.68378 0.55617 0.67937 0.0
C162 C 0.64851 0.53102 0.71718 0.0
C163 C 0.6647 0.52993 0.69173 0.0
C164 C 0.64215 0.56086 0.72742 0.0
C165 C 0.66123 0.58705 0.71514 0.0
U166 U 0.72839 0.63781 0.6367 0.0
O167 O 0.73141 0.68837 0.63585 0.0
O168 O 0.8041 0.66212 0.63249 0.0
C169 C 0.78294 0.68939 0.63496 0.0
C170 C 0.70986 0.61214 0.68041 0.0
C171 C 0.80851 0.71023 0.6531 0.0
C172 C 0.8269 0.72627 0.6959 0.0
C173 C 0.80374 0.70551 0.67902 0.0
C174 C 0.8605 0.75632 0.66117 0.0
C175 C 0.85518 0.75193 0.68707 0.0
C176 C 0.83737 0.73561 0.64433 0.0
C177 C 0.69364 0.61796 0.56808 0.0
C178 C 0.72865 0.64388 0.53121 0.0
C179 C 0.66009 0.60536 0.52666 0.0
C180 C 0.65954 0.60106 0.5526 0.0
C181 C 0.6948 0.62667 0.51573 0.0
C182 C 0.72805 0.63958 0.55724 0.0
C183 C 0.69294 0.6122 0.5953 0.0
O184 O 0.75257 0.60731 0.66718 0.0
O185 O 0.67897 0.63282 0.6705 0.0
O186 O 0.66542 0.63144 0.60892 0.0
O187 O 0.73812 0.60516 0.60553 0.0
H188 H 0.69843 0.55406 0.6604 0.0
H189 H 0.66236 0.50926 0.68067 0.0
H190 H 0.62224 0.56461 0.74499 0.0
H191 H 0.65842 0.60919 0.72436 0.0
H192 H 0.82207 0.72265 0.71583 0.0
H193 H 0.78159 0.68603 0.68613 0.0
H194 H 0.88192 0.77606 0.65403 0.0
H195 H 0.84148 0.73963 0.62442 0.0
H196 H 0.75574 0.66042 0.52311 0.0
H197 H 0.63371 0.59189 0.51505 0.0
H198 H 0.63268 0.58431 0.5606 0.0
H199 H 0.75461 0.6529 0.56886 0.0
C200 C 0.78355 0.87288 0.06674 0.0
C201 C 0.8338 0.88437 0.06074 0.0
C202 C 0.81259 0.883 1.01631 0.0
C203 C 0.84822 0.88928 0.03572 0.0
C204 C 0.76213 0.87208 1.02229 0.0
C205 C 0.74781 0.86699 0.0473 0.0
U206 U 0.78141 0.89039 0.13757 0.0
O207 O 0.71734 0.88536 0.16503 0.0
O208 O 0.78985 0.85922 0.16968 0.0
C209 C 0.74202 0.86425 0.17794 0.0
C210 C 0.76809 0.86594 0.09291 0.0
C211 C 0.71118 0.83707 0.18655 0.0
C212 C 0.70782 0.78918 0.2102 0.0
C213 C 0.73667 0.81312 0.19919 0.0
C214 C 0.62715 0.81234 0.1961 0.0
C215 C 0.65287 0.78882 0.20899 0.0
C216 C 0.65599 0.8363 0.18502 0.0
C217 C 0.85232 0.96312 0.1628 0.0
C218 C 0.83511 1.00609 0.19101 0.0
C219 C 0.92321 0.98623 0.18722 0.0
C220 C 0.90542 0.9643 0.16993 0.0
C221 C 0.88832 1.00753 0.1976 0.0
C222 C 0.81722 0.9841 0.17377 0.0
C223 C 0.83532 0.94184 0.14251 0.0
O224 O 0.80598 0.85802 0.1082 0.0
O225 O 0.73417 0.88471 0.10325 0.0
O226 O 0.78495 0.94091 0.13724 0.0
O227 O 0.85717 0.91458 0.14208 0.0
H228 H 0.86208 0.88925 0.07535 0.0
H229 H 0.88729 0.89779 0.03146 0.0
H230 H 0.73413 0.86713 1.00758 0.0
H231 H 0.7089 0.85813 0.05145 0.0
H232 H 0.72829 0.77124 0.22012 0.0
H233 H 0.77897 0.8133 0.20113 0.0
H234 H 0.58471 0.81238 0.19498 0.0
H235 H 0.63493 0.85455 0.17581 0.0
H236 H 0.80774 0.02253 0.19871 0.0
H237 H 0.96451 0.98721 0.19193 0.0
H238 H 0.93355 0.94878 0.16161 0.0
H239 H 0.77617 0.98411 0.1686 0.0
C240 C 0.18923 0.94203 0.36531 0.0
C241 C 0.18457 0.9683 0.38025 0.0
C242 C 0.17164 1.0004 0.34292 0.0
C243 C 0.1746 0.99688 0.3693 0.0
C244 C 0.17045 0.97288 0.32869 0.0
C245 C 0.18047 0.94439 0.33961 0.0
U246 U 0.19809 0.88072 0.41778 0.0
O247 O 0.18827 0.83054 0.41371 0.0
O248 O 0.2637 0.84996 0.42598 0.0
C249 C 0.23811 0.82536 0.41822 0.0
C250 C 0.20351 0.91198 0.3758 0.0
C251 C 0.26559 0.80553 0.39989 0.0
C252 C 0.33901 0.79538 0.3718 0.0
C253 C 0.31248 0.81511 0.38814 0.0
C254 C 0.27165 0.75652 0.378 0.0
C255 C 0.31903 0.76586 0.36677 0.0
C256 C 0.24533 0.77613 0.3945 0.0
C257 C 0.14407 0.89485 0.48436 0.0
C258 C 0.11137 0.8583 0.51531 0.0
C259 C 0.14158 0.90869 0.52855 0.0
C260 C 0.15331 0.91616 0.50368 0.0
C261 C 0.12012 0.87982 0.53451 0.0
C262 C 0.12341 0.8657 0.49042 0.0
C263 C 0.15455 0.90406 0.45815 0.0
O264 O 0.24093 0.9121 0.39269 0.0
O265 O 0.16449 0.89321 0.38125 0.0
O266 O 0.1279 0.88948 0.44065 0.0
O267 O 0.20405 0.9087 0.45216 0.0
H268 H 0.18852 0.96674 0.40039 0.0
H269 H 0.16829 0.01578 0.382 0.0
H270 H 0.16086 0.9726 0.30906 0.0
H271 H 0.18133 0.92406 0.32785 0.0
H272 H 0.37555 0.80297 0.36334 0.0
H273 H 0.32909 0.83766 0.39177 0.0
H274 H 0.25565 0.73381 0.37436 0.0
H275 H 0.20936 0.76818 0.4033 0.0
H276 H 0.09491 0.83589 0.5196 0.0
H277 H 0.14858 0.92557 0.54313 0.0
H278 H 0.16912 0.93876 0.49948 0.0
H279 H 0.11605 0.84876 0.47593 0.0
C280 C 0.3247 0.6866 0.99228 0.0
C281 C 0.34293 0.65835 1.00134 0.0
C282 C 0.36279 0.68203 0.04159 0.0
C283 C 0.36177 0.65607 1.0259 0.0
C284 C 0.34484 0.71023 0.03242 0.0
C285 C 0.32595 0.71247 1.00796 0.0
U286 U 0.30246 0.65729 0.92514 0.0
O287 O 0.23193 0.66034 0.90151 0.0
O288 O 0.30561 0.68242 0.88955 0.0
C289 C 0.25529 0.67832 0.8851 0.0
C290 C 0.30372 0.68964 0.96675 0.0
C291 C 0.22536 0.70531 0.87646 0.0
C292 C 0.22104 0.75911 0.86409 0.0
C293 C 0.24808 0.73489 0.87531 0.0
C294 C 0.14752 0.72495 0.85583 0.0
C295 C 0.17092 0.75416 0.85393 0.0
C296 C 0.17455 0.70075 0.86693 0.0
C297 C 0.35686 0.57927 0.90359 0.0
C298 C 0.41504 0.55331 0.87421 0.0
C299 C 0.32824 0.53245 0.88223 0.0
C300 C 0.31831 0.55658 0.89891 0.0
C301 C 0.37688 0.5305 0.87001 0.0
C302 C 0.40523 0.5774 0.89091 0.0
C303 C 0.34847 0.60359 0.92272 0.0
O304 O 0.33876 0.69304 0.94886 0.0
O305 O 0.26545 0.67058 0.96074 0.0
O306 O 0.3002 0.60725 0.93092 0.0
O307 O 0.37346 0.62979 0.91913 0.0
H308 H 0.34232 0.63812 0.98947 0.0
H309 H 0.37538 0.63412 0.0327 0.0
H310 H 0.34526 0.73046 0.04427 0.0
H311 H 0.31206 0.73444 1.0013 0.0
H312 H 0.2398 0.78147 0.86265 0.0
H313 H 0.28726 0.73917 0.88237 0.0
H314 H 0.10897 0.72068 0.84799 0.0
H315 H 0.15634 0.67816 0.86737 0.0
H316 H 0.45297 0.55198 0.8651 0.0
H317 H 0.29852 0.51485 0.87932 0.0
H318 H 0.28085 0.55705 0.9085 0.0
H319 H 0.43599 0.59423 0.8943 0.0
C320 C 0.85744 0.0926 0.30266 0.0
C321 C 0.87898 0.0429 0.31997 0.0
C322 C 0.8917 0.07409 0.31573 0.0
C323 C 0.83242 0.03046 0.31003 0.0
C324 C 0.80977 0.08051 0.2934 0.0
C325 C 0.7979 0.04923 0.29676 0.0
N326 N 0.87027 0.12268 0.29945 0.0
C327 C 0.83526 0.14251 0.28914 0.0
C328 C 0.77504 0.10038 0.28144 0.0
C329 C 0.78752 0.13161 0.27964 0.0
Gd330 Gd 0.0563 0.16108 0.25771 0.0
Gd331 Gd 0.95244 0.13875 0.31458 0.0
N332 N 0.93662 0.08676 0.32495 0.0
C333 C 0.91306 0.02523 0.33437 0.0
C334 C 0.96842 0.06999 0.34022 0.0
C335 C 0.9576 0.03896 0.34481 0.0
H336 H 0.00198 0.08048 0.34923 0.0
H337 H 0.98344 0.02573 0.35658 0.0
H338 H 0.00766 0.23076 0.24615 0.0
H339 H 0.844 0.16674 0.28826 0.0
H340 H 0.03276 0.28515 0.25301 0.0
H341 H 0.90471 1.0012 0.33802 0.0
H342 H 0.82234 1.00648 0.31285 0.0
H343 H 0.16754 0.11982 0.26582 0.0
H344 H 0.73799 0.092 0.27409 0.0
H345 H 0.76031 0.14733 0.27105 0.0
H346 H 0.20659 0.28008 0.28726 0.0
H347 H 0.7617 0.03945 0.28958 0.0
H348 H 0.28677 0.18117 0.29264 0.0
H349 H 0.2572 0.12867 0.28135 0.0
N350 N 0.14468 0.16661 0.26999 0.0
C351 C 0.16132 0.1959 0.27451 0.0
C352 C 0.17915 0.14276 0.27137 0.0
C353 C 0.24703 0.17742 0.28607 0.0
C354 C 0.23043 0.14773 0.27981 0.0
C355 C 0.2127 0.20203 0.28305 0.0
H356 H 0.26737 0.23756 0.29499 0.0
N357 N 0.07829 0.21335 0.26142 0.0
C358 C 0.12731 0.21997 0.26994 0.0
C359 C 0.10847 0.27424 0.26837 0.0
C360 C 0.14338 0.25062 0.27411 0.0
C361 C 0.04529 0.23626 0.25429 0.0
C362 C 0.05953 0.26703 0.25805 0.0
O363 O 0.9372 0.1215 0.27492 0.0
O364 O 0.01931 0.11391 0.25786 0.0
O365 O 0.03254 0.16805 0.21901 0.0
O366 O 0.11183 0.15531 0.2271 0.0
O367 O 0.03034 0.11472 0.31696 0.0
O368 O 0.07857 0.11828 0.27975 0.0
O369 O 0.04074 0.19158 0.29091 0.0
O370 O 0.03129 0.16004 0.32445 0.0
O371 O 0.93375 0.13168 0.35385 0.0
O372 O 0.91312 0.17434 0.33615 0.0
O373 O 0.97114 0.17488 0.25326 0.0
O374 O 0.93923 0.18297 0.29332 0.0
C375 C 0.96945 0.10661 0.26 0.0
C376 C 0.06931 0.10643 0.30222 0.0
C377 C 0.07532 0.13593 0.18988 0.0
C378 C 0.08809 0.12006 0.14643 0.0
C379 C 0.05903 0.08296 0.1775 0.0
C380 C 0.06102 0.10563 0.19595 0.0
C381 C 0.07252 0.09007 0.15288 0.0
C382 C 0.08899 0.14314 0.16499 0.0
C383 C 0.07732 0.1596 0.20967 0.0
C384 C 0.19373 0.2567 0.28363 0.0
C385 C 0.22833 0.23247 0.28804 0.0
H386 H 0.11932 0.29809 0.27134 0.0
C387 C 0.053 0.18415 0.31383 0.0
C388 C 0.9386 0.18835 0.26907 0.0
C389 C 0.8605 0.15726 0.37047 0.0
C390 C 0.81465 0.15283 0.41054 0.0
C391 C 0.7653 0.1583 0.37201 0.0
C392 C 0.812 0.15942 0.35825 0.0
C393 C 0.76651 0.155 0.39801 0.0
C394 C 0.8616 0.15397 0.39667 0.0
C395 C 0.91041 0.15785 0.35644 0.0
H396 H 0.04747 0.05972 0.18235 0.0
H397 H 0.05161 0.09941 0.21499 0.0
H398 H 0.07145 0.07207 0.13883 0.0
H399 H 0.10095 0.16634 0.16014 0.0
H400 H 0.72801 0.15994 0.36247 0.0
H401 H 0.81014 0.16195 0.33815 0.0
H402 H 0.72996 0.15408 0.40838 0.0
H403 H 0.89887 0.15214 0.40627 0.0
C404 C 0.6643 0.42212 0.80505 0.0
C405 C 0.65827 0.47007 0.82791 0.0
C406 C 0.63641 0.44153 0.82061 0.0
C407 C 0.70742 0.47923 0.81842 0.0
C408 C 0.71443 0.43071 0.79615 0.0
C409 C 0.73537 0.45963 0.80251 0.0
N410 N 0.64302 0.39432 0.79925 0.0
C411 C 0.67151 0.373 0.78648 0.0
C412 C 0.74253 0.40964 0.78164 0.0
C413 C 0.72128 0.38047 0.77712 0.0
Gd414 Gd 0.44423 0.38142 0.75949 0.0
Gd415 Gd 0.55856 0.38378 0.81465 0.0
N416 N 0.58902 0.43193 0.82948 0.0
C417 C 0.63059 0.48829 0.84493 0.0
C418 C 0.56355 0.44884 0.84732 0.0
C419 C 0.58335 0.47742 0.85492 0.0
H420 H 0.52823 0.44025 0.85613 0.0
H421 H 0.56243 0.49089 0.8687 0.0
H422 H 0.4717 0.31214 0.73681 0.0
H423 H 0.65594 0.35017 0.78349 0.0
H424 H 0.43411 0.25944 0.73765 0.0
H425 H 0.64599 0.51038 0.85095 0.0
H426 H 0.72453 0.50121 0.8236 0.0
H427 H 0.34499 0.42949 0.77484 0.0
H428 H 0.78119 0.41535 0.77445 0.0
H429 H 0.74329 0.36368 0.76655 0.0
H430 H 0.26739 0.27185 0.77848 0.0
H431 H 0.77363 0.46676 0.79568 0.0
H432 H 0.21256 0.37462 0.79649 0.0
H433 H 0.25448 0.42559 0.79073 0.0
N434 N 0.3562 0.381 0.77333 0.0
C435 C 0.33278 0.35286 0.77506 0.0
C436 C 0.32802 0.40699 0.77801 0.0
C437 C 0.25268 0.37612 0.78982 0.0
C438 C 0.27628 0.40493 0.78667 0.0
C439 C 0.28063 0.34963 0.78364 0.0
H440 H 0.21817 0.31722 0.7924 0.0
N441 N 0.40944 0.33139 0.75786 0.0
C442 C 0.36026 0.32726 0.76717 0.0
C443 C 0.36447 0.27304 0.75768 0.0
C444 C 0.33675 0.29785 0.76774 0.0
C445 C 0.43468 0.30792 0.74606 0.0
C446 C 0.41321 0.27823 0.74632 0.0
O447 O 0.57282 0.40796 0.77769 0.0
O448 O 0.49293 0.42507 0.76288 0.0
O449 O 0.46113 0.37607 0.71969 0.0
O450 O 0.39294 0.40105 0.73143 0.0
O451 O 0.48808 0.41339 0.82221 0.0
O452 O 0.43354 0.42037 0.78753 0.0
O453 O 0.45559 0.34351 0.78792 0.0
O454 O 0.47717 0.36686 0.82461 0.0
O455 O 0.57336 0.38195 0.85454 0.0
O456 O 0.5985 0.34453 0.83103 0.0
O457 O 0.52575 0.36477 0.75054 0.0
O458 O 0.55782 0.34365 0.78713 0.0
C459 C 0.54375 0.42861 0.76647 0.0
C460 C 0.44935 0.42718 0.81049 0.0
C461 C 0.38673 0.37356 0.69341 0.0
C462 C 0.36152 0.3661 0.64974 0.0
C463 C 0.31869 0.33646 0.68242 0.0
C464 C 0.34921 0.35138 0.70045 0.0
C465 C 0.32467 0.34379 0.65718 0.0
C466 C 0.3929 0.38085 0.66791 0.0
C467 C 0.41847 0.38961 0.71256 0.0
C468 C 0.2859 0.29433 0.77755 0.0
C469 C 0.25785 0.32018 0.78544 0.0
H470 H 0.3478 0.25006 0.75777 0.0
C471 C 0.44873 0.34704 0.81203 0.0
C472 C 0.55388 0.34429 0.76245 0.0
C473 C 0.6485 0.35604 0.86773 0.0
C474 C 0.69277 0.35742 0.90825 0.0
C475 C 0.74366 0.35797 0.86975 0.0
C476 C 0.69752 0.35692 0.8557 0.0
C477 C 0.7414 0.35826 0.89588 0.0
C478 C 0.64638 0.35622 0.89407 0.0
C479 C 0.59906 0.35642 0.85345 0.0
H480 H 0.2899 0.31939 0.68807 0.0
H481 H 0.34295 0.34584 0.71987 0.0
H482 H 0.3002 0.3323 0.64343 0.0
H483 H 0.42127 0.3982 0.66223 0.0
H484 H 0.78132 0.35869 0.86035 0.0
H485 H 0.70024 0.35697 0.83551 0.0
H486 H 0.77755 0.35915 0.90649 0.0
H487 H 0.60872 0.35571 0.90356 0.0
C488 C 0.84437 0.83219 0.78563 0.0
C489 C 0.86992 0.78045 0.79659 0.0
C490 C 0.88006 0.81238 0.79648 0.0
C491 C 0.82517 0.76874 0.78443 0.0
C492 C 0.79833 0.82067 0.7743 0.0
C493 C 0.78948 0.7888 0.7733 0.0
N494 N 0.85468 0.86285 0.78622 0.0
C495 C 0.81883 0.88345 0.77776 0.0
C496 C 0.76244 0.84158 0.76444 0.0
C497 C 0.7724 0.87312 0.7665 0.0
Gd498 Gd 0.04786 0.89154 0.74944 0.0
Gd499 Gd 0.93442 0.87817 0.80412 0.0
N500 N 0.9235 0.82439 0.80776 0.0
C501 C 0.9044 0.7613 0.80942 0.0
C502 C 0.95447 0.80604 0.82216 0.0
C503 C 0.94623 0.77423 0.82269 0.0
H504 H 0.985 0.81568 0.83376 0.0
H505 H 0.97175 0.75978 0.83363 0.0
H506 H 0.04342 0.96761 0.7394 0.0
H507 H 0.82651 0.90783 0.77928 0.0
H508 H 0.10077 1.01317 0.74533 0.0
H509 H 0.898 0.73666 0.80995 0.0
H510 H 0.81723 0.74425 0.784 0.0
H511 H 0.12918 0.83127 0.74583 0.0
H512 H 0.72665 0.83363 0.75553 0.0
H513 H 0.74451 0.88946 0.7593 0.0
H514 H 0.26521 0.97098 0.77154 0.0
H515 H 0.75471 0.77947 0.76434 0.0
H516 H 0.28213 0.86137 0.76875 0.0
H517 H 0.2214 0.81947 0.75605 0.0
N518 N 0.13637 0.87851 0.75536 0.0
C519 C 0.16993 0.9021 0.76034 0.0
C520 C 0.15491 0.84939 0.75237 0.0
C521 C 0.24144 0.86649 0.76484 0.0
C522 C 0.20729 0.84277 0.75771 0.0
C523 C 0.22328 0.89674 0.76554 0.0
H524 H 0.29802 0.9181 0.77468 0.0
N525 N 0.10073 0.93602 0.75207 0.0
C526 C 0.15156 0.93183 0.75854 0.0
C527 C 0.16681 0.9867 0.75778 0.0
C528 C 0.18589 0.95707 0.76192 0.0
C529 C 0.08309 0.96464 0.74599 0.0
C530 C 0.11543 0.99044 0.74932 0.0
O531 O 0.92324 0.8679 0.76296 0.0
O532 O 0.00065 0.84732 0.75111 0.0
O533 O 0.00794 0.89146 0.71355 0.0
O534 O 0.09234 0.88913 0.71469 0.0
O535 O 0.01596 0.85971 0.81209 0.0
O536 O 0.05754 0.85001 0.77428 0.0
O537 O 0.04077 0.92728 0.78053 0.0
O538 O 0.01057 0.9011 0.81526 0.0
O539 O 0.90106 0.86445 0.84002 0.0
O540 O 0.89407 0.91117 0.82797 0.0
O541 O 0.9792 0.92341 0.7471 0.0
O542 O 0.9227 0.92265 0.782 0.0
C543 C 0.94914 0.84675 0.75071 0.0
C544 C 0.05207 0.84563 0.79853 0.0
C545 C 0.05016 0.86458 0.68085 0.0
C546 C 0.06392 0.85023 0.63716 0.0
C547 C 0.0362 0.8118 0.66744 0.0
C548 C 0.03647 0.83402 0.68636 0.0
C549 C 0.04996 0.81979 0.64295 0.0
C550 C 0.06384 0.87261 0.6562 0.0
C551 C 0.05088 0.88822 0.70061 0.0
C552 C 0.23838 0.95188 0.76853 0.0
C553 C 0.25705 0.92176 0.77034 0.0
H554 H 0.19189 1.0067 0.76024 0.0
C555 C 0.03359 0.92495 0.80486 0.0
C556 C 0.93919 0.93379 0.76017 0.0
C557 C 0.90637 0.90228 0.8714 0.0
C558 C 0.89593 0.90478 0.91692 0.0
C559 C 0.97421 0.92583 0.89722 0.0
C560 C 0.95561 0.91668 0.87382 0.0
C561 C 0.94456 0.91997 0.91867 0.0
C562 C 0.87659 0.89612 0.89316 0.0
C563 C 0.88785 0.89207 0.84645 0.0
H564 H 0.02542 0.78829 0.67179 0.0
H565 H 0.02616 0.82734 0.70525 0.0
H566 H 0.04971 0.80229 0.62849 0.0
H567 H 0.07459 0.89615 0.65181 0.0
H568 H 0.0121 0.93711 0.89875 0.0
H569 H 0.98009 0.92053 0.85766 0.0
H570 H 0.95998 0.9268 0.93674 0.0
H571 H 0.83914 0.88426 0.8917 0.0
C572 C 0.65466 0.69741 0.29784 0.0
C573 C 0.63274 0.74636 0.31663 0.0
C574 C 0.62047 0.71523 0.31176 0.0
C575 C 0.67845 0.75949 0.3063 0.0
C576 C 0.70136 0.71019 0.28806 0.0
C577 C 0.71261 0.74147 0.29199 0.0
N578 N 0.64236 0.66735 0.29403 0.0
C579 C 0.67691 0.64812 0.28257 0.0
C580 C 0.7357 0.69098 0.27495 0.0
C581 C 0.72373 0.65972 0.27249 0.0
Gd582 Gd 0.4527 0.63938 0.25435 0.0
Gd583 Gd 0.56268 0.6497 0.31067 0.0
N584 N 0.57614 0.70193 0.32116 0.0
C585 C 0.59906 0.76326 0.33199 0.0
C586 C 0.54503 0.71786 0.33746 0.0
C587 C 0.55542 0.74881 0.34272 0.0
H588 H 0.51263 0.70681 0.34695 0.0
H589 H 0.53006 0.76141 0.35529 0.0
H590 H 0.48137 0.56877 0.23499 0.0
H591 H 0.66792 0.62389 0.28099 0.0
H592 H 0.44036 0.51692 0.23463 0.0
H593 H 0.60705 0.78723 0.33615 0.0
H594 H 0.68808 0.78347 0.30956 0.0
H595 H 0.35388 0.68994 0.26357 0.0
H596 H 0.77199 0.69992 0.26714 0.0
H597 H 0.75058 0.64454 0.26291 0.0
H598 H 0.26545 0.53425 0.26498 0.0
H599 H 0.74804 0.75181 0.28441 0.0
H600 H 0.21403 0.63849 0.27928 0.0
H601 H 0.26036 0.68841 0.27512 0.0
N602 N 0.36218 0.64123 0.26346 0.0
C603 C 0.33665 0.61367 0.26416 0.0
C604 C 0.33487 0.66793 0.2663 0.0
C605 C 0.25545 0.63898 0.27465 0.0
C606 C 0.2815 0.66719 0.27241 0.0
C607 C 0.28272 0.61177 0.27004 0.0
H608 H 0.2164 0.58098 0.27559 0.0
N609 N 0.41561 0.59002 0.25189 0.0
C610 C 0.36418 0.58729 0.25823 0.0
C611 C 0.36707 0.5327 0.25006 0.0
C612 C 0.3387 0.55841 0.25793 0.0
C613 C 0.44204 0.56563 0.24207 0.0
C614 C 0.41869 0.53644 0.24163 0.0
O615 O 0.57383 0.66946 0.27162 0.0
O616 O 0.49273 0.68557 0.25922 0.0
O617 O 0.48254 0.63618 0.21629 0.0
O618 O 0.40376 0.65173 0.22269 0.0
O619 O 0.48182 0.66852 0.3188 0.0
O620 O 0.4373 0.67829 0.2817 0.0
O621 O 0.45888 0.60145 0.28329 0.0
O622 O 0.48679 0.62493 0.3198 0.0
O623 O 0.57691 0.65327 0.3506 0.0
O624 O 0.61591 0.61813 0.32931 0.0
O625 O 0.53516 0.62139 0.24947 0.0
O626 O 0.56899 0.60589 0.28749 0.0
C627 C 0.54365 0.6899 0.26096 0.0
C628 C 0.44431 0.6821 0.306 0.0
C629 C 0.44738 0.67082 0.18702 0.0
C630 C 0.43681 0.68809 0.14393 0.0
C631 C 0.47697 0.72182 0.17486 0.0
C632 C 0.46995 0.69934 0.1932 0.0
C633 C 0.46047 0.71628 0.15033 0.0
C634 C 0.4308 0.66525 0.16233 0.0
C635 C 0.44019 0.64692 0.20616 0.0
C636 C 0.28558 0.55628 0.2648 0.0
C637 C 0.25763 0.5829 0.27081 0.0
H638 H 0.34895 0.51009 0.24962 0.0
C639 C 0.4633 0.60238 0.30779 0.0
C640 C 0.56112 0.6017 0.26328 0.0
C641 C 0.65806 0.637 0.36621 0.0
C642 C 0.6996 0.63985 0.40737 0.0
C643 C 0.74925 0.65291 0.36995 0.0
C644 C 0.70525 0.64681 0.35512 0.0
C645 C 0.74655 0.64943 0.39593 0.0
C646 C 0.65539 0.63364 0.3924 0.0
C647 C 0.6106 0.63116 0.35113 0.0
H648 H 0.49482 0.74369 0.17973 0.0
H649 H 0.48187 0.70425 0.21218 0.0
H650 H 0.46556 0.73408 0.13638 0.0
H651 H 0.41271 0.64339 0.15747 0.0
H652 H 0.78556 0.66045 0.36128 0.0
H653 H 0.7081 0.64984 0.33508 0.0
H654 H 0.781 0.6543 0.40714 0.0
H655 H 0.61898 0.62629 0.40116 0.0
C656 C 0.15911 0.05895 0.34485 0.0
C657 C 0.16329 0.03167 0.33069 0.0
C658 C 0.12142 0.05733 0.29546 0.0
C659 C 0.10493 0.08167 0.31164 0.0
N660 N 0.11083 0.10482 0.35334 0.0
N661 N 0.18914 0.0199 0.28852 0.0
C662 C 0.1247 0.08238 0.33675 0.0
C663 C 0.15657 0.03493 0.3046 0.0
N664 N 0.19448 0.06475 0.36342 0.0
N665 N 0.10135 0.05383 0.27197 0.0
H666 H 0.22075 1.0071 0.29506 0.0
H667 H 0.18925 0.02375 0.26927 0.0
H668 H 0.07269 0.06781 0.26449 0.0
H669 H 0.10922 0.03462 0.26091 0.0
H670 H 0.19711 0.08577 0.37277 0.0
H671 H 0.22597 0.05009 0.36665 0.0
H672 H 0.11945 0.10341 0.37237 0.0
H673 H 0.08876 0.1239 0.34889 0.0
C674 C 0.40347 0.47538 0.86588 0.0
C675 C 0.38967 0.50331 0.85428 0.0
C676 C 0.41264 0.48175 0.81326 0.0
C677 C 0.42327 0.45276 0.82466 0.0
N678 N 0.41337 0.4207 0.86149 0.0
N679 N 0.36918 0.53101 0.81674 0.0
C680 C 0.41389 0.4492 0.85085 0.0
C681 C 0.39024 0.50575 0.82789 0.0
N682 N 0.40858 0.47399 0.89132 0.0
N683 N 0.42711 0.48753 0.78908 0.0
H684 H 0.35323 0.54917 0.82694 0.0
H685 H 0.36307 0.53258 0.79752 0.0
H686 H 0.44524 0.47169 0.7775 0.0
H687 H 0.42599 0.50935 0.78115 0.0
H688 H 0.425 0.45531 0.90049 0.0
H689 H 0.40078 0.4925 0.90315 0.0
H690 H 0.40103 0.41667 0.8798 0.0
H691 H 0.41976 0.40064 0.85147 0.0
C692 C 0.61842 0.50391 0.75779 0.0
C693 C 0.63306 0.50222 0.73211 0.0
C694 C 0.59374 0.45069 0.73005 0.0
C695 C 0.57124 0.45476 0.75408 0.0
N696 N 0.55857 0.48704 0.79024 0.0
N697 N 0.66993 0.46308 0.70554 0.0
C698 C 0.58267 0.48187 0.76783 0.0
C699 C 0.63067 0.47256 0.72101 0.0
N700 N 0.64513 0.5232 0.77348 0.0
N701 N 0.57948 0.42626 0.71549 0.0
H702 H 0.70428 0.47605 0.70331 0.0
H703 H 0.67221 0.44068 0.69865 0.0
H704 H 0.55127 0.41023 0.72112 0.0
H705 H 0.59229 0.42383 0.69704 0.0
H706 H 0.63886 0.52393 0.79275 0.0
H707 H 0.67852 0.53523 0.76755 0.0
H708 H 0.5613 0.50797 0.79971 0.0
H709 H 0.53252 0.4713 0.79823 0.0
C710 C 0.9185 0.06223 0.20303 0.0
C711 C 0.90847 0.03295 0.21372 0.0
C712 C 0.94495 0.05096 0.25363 0.0
C713 C 0.94873 0.08122 0.24396 0.0
N714 N 0.93705 0.11624 0.2096 0.0
N715 N 0.9054 1.00029 0.25004 0.0
C716 C 0.93478 0.08701 0.21869 0.0
C717 C 0.91971 0.02757 0.2393 0.0
N718 N 0.91449 0.06605 0.1777 0.0
N719 N 0.96811 0.04411 0.2759 0.0
H720 H 0.88744 0.9825 0.24002 0.0
H721 H 0.90737 0.99636 0.26924 0.0
H722 H 0.98817 0.06048 0.28654 0.0
H723 H 0.97172 0.02179 0.28263 0.0
H724 H 0.92751 0.08564 0.16834 0.0
H725 H 0.90207 0.0486 0.16562 0.0
H726 H 0.9214 0.12276 0.19247 0.0
H727 H 0.9522 0.13448 0.21993 0.0
C728 C 0.84887 0.98321 0.72048 0.0
C729 C 0.86105 1.01307 0.72935 0.0
C730 C 0.92459 0.99131 0.75884 0.0
C731 C 0.91306 0.96142 0.74941 0.0
N732 N 0.88134 0.93204 0.71413 0.0
N733 N 0.91429 0.04669 0.75485 0.0
C734 C 0.87981 0.95813 0.72828 0.0
C735 C 0.89968 0.01746 0.74817 0.0
N736 N 0.80758 0.97874 0.70458 0.0
N737 N 0.96192 0.99477 0.77686 0.0
H738 H 0.89698 0.06624 0.74738 0.0
H739 H 0.94508 0.05204 0.76685 0.0
H740 H 0.98715 0.97707 0.78148 0.0
H741 H 0.96846 0.01483 0.78704 0.0
H742 H 0.79372 0.95697 0.69959 0.0
H743 H 0.78408 0.99665 0.69833 0.0
H744 H 0.86096 0.92936 0.69738 0.0
H745 H 0.90908 0.91509 0.71707 0.0
C746 C 0.59702 0.52088 0.24056 0.0
C747 C 0.62281 0.5284 0.21782 0.0
C748 C 0.62118 0.58299 0.22922 0.0
C749 C 0.58813 0.57603 0.24994 0.0
N750 N 0.54146 0.53812 0.2745 0.0
N751 N 0.65775 0.56649 0.18954 0.0
C752 C 0.57602 0.54484 0.2557 0.0
C753 C 0.63476 0.55943 0.21197 0.0
N754 N 0.59239 0.4908 0.24758 0.0
N755 N 0.64101 0.61204 0.22649 0.0
H756 H 0.67045 0.54984 0.17687 0.0
H757 H 0.66128 0.58882 0.18275 0.0
H758 H 0.63273 0.62962 0.23906 0.0
H759 H 0.66956 0.61799 0.21336 0.0
H760 H 0.57912 0.48389 0.26515 0.0
H761 H 0.60594 0.47269 0.23656 0.0
H762 H 0.52593 0.51628 0.27772 0.0
H763 H 0.52471 0.55492 0.28569 0.0
C764 C 0.4486 0.52685 0.34335 0.0
C765 C 0.39313 0.52385 0.34421 0.0
C766 C 0.38406 0.57477 0.32508 0.0
C767 C 0.43938 0.57679 0.32251 0.0
N768 N 0.52449 0.55935 0.33555 0.0
N769 N 0.30736 0.54349 0.33477 0.0
C770 C 0.47173 0.55419 0.33359 0.0
C771 C 0.36064 0.54754 0.33494 0.0
N772 N 0.47917 0.50278 0.3506 0.0
N773 N 0.35425 0.59978 0.31967 0.0
H774 H 0.2887 0.52452 0.34284 0.0
H775 H 0.28172 0.55793 0.3254 0.0
H776 H 0.37034 0.62012 0.31269 0.0
H777 H 0.31453 0.60147 0.32395 0.0
H778 H 0.51943 0.50172 0.34746 0.0
H779 H 0.46386 0.48259 0.35829 0.0
H780 H 0.54967 0.54574 0.34596 0.0
H781 H 0.54273 0.57882 0.32832 0.0
C782 C 0.04688 0.99735 0.84516 0.0
C783 C 0.10017 0.99595 0.85239 0.0
C784 C 0.11103 0.94874 0.82752 0.0
C785 C 0.05669 0.94919 0.82151 0.0
N786 N 0.971 0.9705 0.82914 0.0
N787 N 0.18267 0.96954 0.85268 0.0
C788 C 0.02415 0.97254 0.83162 0.0
C789 C 0.13232 0.97147 0.84407 0.0
N790 N 0.01812 0.02289 0.85069 0.0
N791 N 0.14202 0.92631 0.81763 0.0
H792 H 0.19962 0.98623 0.86423 0.0
H793 H 0.20699 0.95084 0.84959 0.0
H794 H 0.1269 0.90814 0.80707 0.0
H795 H 0.18272 0.92615 0.8189 0.0
H796 H 0.98104 0.02693 0.84331 0.0
H797 H 0.03304 0.04147 0.86089 0.0
H798 H 0.94475 0.98423 0.83898 0.0
H799 H 0.95299 0.95356 0.81844 0.0
C800 C 0.17229 0.12204 0.0876 0.0
C801 C 0.13515 0.13062 0.06913 0.0
C802 C 0.066 0.12794 0.10116 0.0
C803 C 0.10462 0.12616 0.12013 0.0
N804 N 0.19586 0.12151 0.13142 0.0
N805 N 0.04751 0.11407 0.0585 0.0
C806 C 0.15822 0.12332 0.11335 0.0
C807 C 0.0815 0.12614 0.07565 0.0
N808 N 0.21689 0.1072 0.08053 0.0
N809 N 0.01436 0.13116 0.10739 0.0
H810 H 0.06068 0.10573 0.04128 0.0
H811 H 0.00899 0.10778 0.06284 0.0
H812 H 0.00136 0.13238 0.1259 0.0
H813 H 0.98543 0.13523 0.09406 0.0
H814 H 0.2432 0.09778 0.09322 0.0
H815 H 0.22299 0.10024 0.06204 0.0
H816 H 0.23586 0.12248 0.12732 0.0
H817 H 0.18715 0.12146 0.1505 0.0
C818 C 0.32545 0.39976 0.58657 0.0
C819 C 0.36204 0.38492 0.57063 0.0
C820 C 0.40034 0.35864 0.60679 0.0
C821 C 0.36516 0.37448 0.62281 0.0
N822 N 0.30067 0.41394 0.62892 0.0
N823 N 0.43972 0.35437 0.5655 0.0
C824 C 0.32974 0.39628 0.61296 0.0
C825 C 0.40115 0.36556 0.58074 0.0
N826 N 0.28533 0.41622 0.57641 0.0
N827 N 0.43182 0.33633 0.61642 0.0
H828 H 0.44106 0.35865 0.5463 0.0
H829 H 0.47253 0.34283 0.57203 0.0
H830 H 0.43363 0.33148 0.6355 0.0
H831 H 0.4538 0.32137 0.60546 0.0
H832 H 0.25393 0.42465 0.58676 0.0
H833 H 0.28113 0.41955 0.5572 0.0
H834 H 0.2783 0.43251 0.62315 0.0
H835 H 0.30225 0.41168 0.64833 0.0
C836 C 0.67424 0.38447 0.97588 0.0
C837 C 0.69485 0.35906 0.98911 0.0
C838 C 0.70583 0.33101 0.94952 0.0
C839 C 0.69089 0.35765 0.93615 0.0
N840 N 0.66695 0.41115 0.93624 0.0
N841 N 0.73757 0.30978 0.98846 0.0
C842 C 0.67651 0.38477 0.94924 0.0
C843 C 0.71248 0.3327 0.97591 0.0
N844 N 0.65134 0.40798 0.9888 0.0
N845 N 0.71241 0.30385 0.93702 0.0
H846 H 0.74342 0.31012 1.00776 0.0
H847 H 0.75654 0.2917 0.97953 0.0
H848 H 0.70776 0.30173 0.9177 0.0
H849 H 0.71775 0.2829 0.94599 0.0
H850 H 0.63064 0.42558 0.98025 0.0
H851 H 0.64913 0.40852 1.0083 0.0
H852 H 0.66209 0.43249 0.94474 0.0
H853 H 0.66787 0.41225 0.91675 0.0
C854 C 0.79742 0.11685 0.47509 0.0
C855 C 0.81259 0.14165 0.4909 0.0
C856 C 0.82685 0.17435 0.45402 0.0
C857 C 0.81554 0.14885 0.43824 0.0
N858 N 0.79899 0.09455 0.43344 0.0
N859 N 0.84998 0.19241 0.49561 0.0
C860 C 0.80342 0.1197 0.44871 0.0
C861 C 0.82962 0.17 0.48041 0.0
N862 N 0.77546 0.09094 0.48525 0.0
N863 N 0.83336 0.20292 0.44384 0.0
H864 H 0.85249 0.19008 0.51499 0.0
H865 H 0.86832 0.21223 0.48892 0.0
H866 H 0.83234 0.20693 0.42462 0.0
H867 H 0.83575 0.22298 0.45445 0.0
H868 H 0.75833 0.07347 0.47462 0.0
H869 H 0.77023 0.08798 0.50446 0.0
H870 H 0.79598 0.07214 0.44008 0.0
H871 H 0.80288 0.09578 0.41403 0.0
C872 C 0.82064 0.91617 0.97781 0.0
C873 C 0.82868 0.88742 0.98967 0.0
C874 C 0.87574 0.86866 0.95249 0.0
C875 C 0.86714 0.89727 0.94052 0.0
N876 N 0.82362 0.94606 0.93942 0.0
N877 N 0.85487 0.83445 0.98704 0.0
C878 C 0.837 0.92033 0.95248 0.0
C879 C 0.85335 0.86306 0.97655 0.0
N880 N 0.79891 0.93978 0.99108 0.0
N881 N 0.90724 0.84735 0.94129 0.0
H882 H 0.84012 0.82971 1.00485 0.0
H883 H 0.86707 0.8149 0.97748 0.0
H884 H 0.92273 0.85015 0.92334 0.0
H885 H 0.92059 0.8277 0.95021 0.0
H886 H 0.79735 0.96231 0.98467 0.0
H887 H 0.78503 0.93728 1.00935 0.0
H888 H 0.79762 0.96252 0.94603 0.0
H889 H 0.83528 0.94974 0.92093 0.0
C890 C 0.72081 0.6076 0.47294 0.0
C891 C 0.69627 0.63034 0.48795 0.0
C892 C 0.67611 0.66016 0.45019 0.0
C893 C 0.6971 0.63628 0.43512 0.0
N894 N 0.73216 0.58522 0.43164 0.0
N895 N 0.64379 0.676 0.49098 0.0
C896 C 0.71739 0.60939 0.44638 0.0
C897 C 0.67206 0.65604 0.47659 0.0
N898 N 0.74889 0.5848 0.48411 0.0
N899 N 0.66136 0.68713 0.4393 0.0
H900 H 0.64043 0.67391 0.51036 0.0
H901 H 0.62036 0.69322 0.48361 0.0
H902 H 0.66273 0.69073 0.42002 0.0
H903 H 0.65141 0.70671 0.44941 0.0
H904 H 0.77246 0.5695 0.47428 0.0
H905 H 0.7522 0.58268 0.50347 0.0
H906 H 0.74173 0.5637 0.43866 0.0
H907 H 0.73076 0.58583 0.41214 0.0
C908 C 0.43637 0.67912 0.07298 0.0
C909 C 0.38174 0.67997 0.0679 0.0
C910 C 0.3629 0.68512 0.11278 0.0
C911 C 0.41737 0.68305 0.11795 0.0
N912 N 0.50493 0.67177 0.1038 0.0
N913 N 0.2926 0.67703 0.08288 0.0
C914 C 0.45381 0.67807 0.09826 0.0
C915 C 0.34487 0.68085 0.08782 0.0
N916 N 0.47163 0.68063 0.05369 0.0
N917 N 0.32859 0.6925 0.13153 0.0
H918 H 0.27806 0.67385 0.06482 0.0
H919 H 0.2642 0.67424 0.09675 0.0
H920 H 0.34008 0.69557 0.15009 0.0
H921 H 0.28943 0.69789 0.12843 0.0
H922 H 0.51182 0.68368 0.05625 0.0
H923 H 0.46042 0.68108 0.03494 0.0
H924 H 0.53232 0.66482 0.0905 0.0
H925 H 0.51895 0.67087 0.12211 0.0
C926 C 0.05432 0.87848 0.5697 0.0
C927 C 0.10583 0.8724 0.56089 0.0
C928 C 0.13112 0.8546 0.60273 0.0
C929 C 0.07862 0.85854 0.61102 0.0
N930 N 0.98855 0.87069 0.6021 0.0
N931 N 0.19186 0.85157 0.56771 0.0
C932 C 0.03973 0.86956 0.59441 0.0
C933 C 0.14389 0.85961 0.57707 0.0
N934 N 0.01972 0.89343 0.55457 0.0
N935 N 0.16898 0.84676 0.61959 0.0
H936 H 0.203 0.85562 0.5492 0.0
H937 H 0.21936 0.83902 0.57766 0.0
H938 H 0.16086 0.84234 0.63838 0.0
H939 H 0.20892 0.84676 0.6155 0.0
H940 H 0.98373 0.90174 0.56069 0.0
H941 H 0.02846 0.89952 0.53615 0.0
H942 H 0.9573 0.87506 0.59016 0.0
H943 H 0.97663 0.86516 0.62024 0.0
C944 C 0.09613 0.25423 0.35232 0.0
C945 C 0.14725 0.24551 0.35965 0.0
C946 C 0.13657 0.19639 0.33744 0.0
C947 C 0.08614 0.20562 0.32913 0.0
N948 N 0.02318 0.2463 0.32425 0.0
N949 N 0.22044 0.21132 0.3555 0.0
C950 C 0.06764 0.23549 0.33516 0.0
C951 C 0.16868 0.21738 0.3512 0.0
N952 N 0.07378 0.27982 0.36256 0.0
N953 N 0.1542 0.16766 0.33188 0.0
H954 H 0.24498 0.22619 0.3655 0.0
H955 H 0.24033 0.19297 0.34746 0.0
H956 H 0.13431 0.1529 0.31979 0.0
H957 H 0.18727 0.15795 0.33993 0.0
H958 H 0.0344 0.28535 0.36034 0.0
H959 H 0.09337 0.29432 0.37507 0.0
H960 H 0.01141 0.26912 0.32537 0.0
H961 H 0.00037 0.23311 0.31225 0.0
C962 C 0.40639 0.26929 0.83767 0.0
C963 C 0.35658 0.27609 0.84808 0.0
C964 C 0.36771 0.33026 0.83601 0.0
C965 C 0.41818 0.32341 0.8262 0.0
N966 N 0.4916 0.28905 0.82554 0.0
N967 N 0.29267 0.3134 0.8609 0.0
C968 C 0.43926 0.29365 0.82925 0.0
C969 C 0.33812 0.30678 0.84842 0.0
N970 N 0.4219 0.23944 0.83523 0.0
N971 N 0.34775 0.35902 0.83298 0.0
H972 H 0.26985 0.29662 0.86976 0.0
H973 H 0.27916 0.33556 0.86404 0.0
H974 H 0.36821 0.37646 0.82377 0.0
H975 H 0.30982 0.36525 0.83794 0.0
H976 H 0.45511 0.23302 0.82515 0.0
H977 H 0.39934 0.22085 0.84146 0.0
H978 H 0.51035 0.26854 0.82976 0.0
H979 H 0.5173 0.30689 0.8209 0.0
C980 C 0.64443 0.31337 0.71132 0.0
C981 C 0.63422 0.28136 0.71304 0.0
C982 C 0.57578 0.28994 0.74906 0.0
C983 C 0.58454 0.32218 0.74684 0.0
N984 N 0.63521 0.3641 0.72942 0.0
N985 N 0.58884 0.23861 0.732 0.0
C986 C 0.62095 0.33375 0.72885 0.0
C987 C 0.60022 0.26943 0.7318 0.0
N988 N 0.6756 0.32433 0.69239 0.0
N989 N 0.54346 0.27899 0.76748 0.0
H990 H 0.60626 0.22297 0.7198 0.0
H991 H 0.56047 0.22834 0.74328 0.0
H992 H 0.52038 0.29322 0.77847 0.0
H993 H 0.53988 0.25599 0.77243 0.0
H994 H 0.67903 0.34744 0.6877 0.0
H995 H 0.69639 0.31007 0.68025 0.0
H996 H 0.66554 0.37365 0.71888 0.0
H997 H 0.61981 0.37962 0.74222 0.0
C998 C 0.86171 0.26213 0.2549 0.0
C999 C 0.84819 0.25586 0.22965 0.0
C1000 C 0.87581 0.20261 0.23502 0.0
C1001 C 0.89925 0.21026 0.2583 0.0
N1002 N 0.90714 0.24694 0.29235 0.0
N1003 N 0.84504 0.22052 0.19487 0.0
C1004 C 0.88969 0.23981 0.26895 0.0
C1005 C 0.85574 0.22615 0.21951 0.0
N1006 N 0.8456 0.28893 0.26583 0.0
N1007 N 0.86956 0.17246 0.22854 0.0
H1008 H 0.82992 0.23714 0.18293 0.0
H1009 H 0.85522 0.20014 0.18588 0.0
H1010 H 0.8794 0.15476 0.24071 0.0
H1011 H 0.84865 0.16517 0.21285 0.0
H1012 H 0.84869 0.29354 0.28489 0.0
H1013 H 0.82505 0.3058 0.25621 0.0
H1014 H 0.91181 0.2694 0.2988 0.0
H1015 H 0.9151 0.2305 0.30577 0.0
C1016 C 0.92202 0.7693 0.71902 0.0
C1017 C 0.87655 0.77537 0.70481 0.0
C1018 C 0.87551 0.8281 0.72118 0.0
C1019 C 0.92043 0.82184 0.73628 0.0
N1020 N 0.97093 0.78226 0.75613 0.0
N1021 N 0.80181 0.80755 0.69768 0.0
C1022 C 0.93942 0.79121 0.737 0.0
C1023 C 0.85087 0.80388 0.7075 0.0
N1024 N 0.94927 0.74282 0.71515 0.0
N1025 N 0.8566 0.85715 0.71909 0.0
H1026 H 0.78244 0.79038 0.68754 0.0
H1027 H 0.77826 0.82639 0.70169 0.0
H1028 H 0.86836 0.87515 0.73041 0.0
H1029 H 0.82999 0.86364 0.70536 0.0
H1030 H 0.98583 0.73885 0.72317 0.0
H1031 H 0.93745 0.72602 0.70233 0.0
H1032 H 0.982 0.75953 0.75896 0.0
H1033 H 0.97987 0.79681 0.77102 0.0
C1034 C 0.61731 0.73475 0.21 0.0
C1035 C 0.62232 0.76393 0.22163 0.0
C1036 C 0.56824 0.74588 0.25685 0.0
C1037 C 0.5685 0.71571 0.24673 0.0
N1038 N 0.59382 0.68094 0.21376 0.0
N1039 N 0.60796 0.79672 0.25737 0.0
C1040 C 0.59338 0.71002 0.22334 0.0
C1041 C 0.59896 0.76941 0.24534 0.0
N1042 N 0.63377 0.73103 0.1858 0.0
N1043 N 0.53809 0.75219 0.27734 0.0
H1044 H 0.62983 0.81462 0.24948 0.0
H1045 H 0.59727 0.8008 0.27589 0.0
H1046 H 0.51765 0.73523 0.28712 0.0
H1047 H 0.53084 0.77436 0.28376 0.0
H1048 H 0.62598 0.71148 0.17513 0.0
H1049 H 0.65177 0.74857 0.17555 0.0
H1050 H 0.61694 0.67422 0.19866 0.0
H1051 H 0.57225 0.66305 0.22163 0.0
C1052 C 0.35462 0.7497 0.32467 0.0
C1053 C 0.34899 0.74417 0.35064 0.0
C1054 C 0.39411 0.69523 0.34552 0.0
C1055 C 0.408 0.70291 0.32037 0.0
N1056 N 0.40662 0.74177 0.28758 0.0
N1057 N 0.3733 0.71447 0.38676 0.0
C1058 C 0.38944 0.73124 0.31025 0.0
C1059 C 0.37173 0.7178 0.36135 0.0
N1060 N 0.32584 0.7722 0.31356 0.0
N1061 N 0.39947 0.66594 0.35415 0.0
H1062 H 0.35802 0.73067 0.39915 0.0
H1063 H 0.39452 0.69718 0.3955 0.0
H1064 H 0.41154 0.64784 0.34293 0.0
H1065 H 0.38528 0.6588 0.37152 0.0
H1066 H 0.32382 0.77497 0.29423 0.0
H1067 H 0.29997 0.78615 0.32349 0.0
H1068 H 0.39919 0.76393 0.28123 0.0
H1069 H 0.43207 0.73004 0.2759 0.0
C1070 C 0.13982 0.7758 0.81321 0.0
C1071 C 0.14443 0.77873 0.83946 0.0
C1072 C 0.10203 0.82885 0.83717 0.0
C1073 C 0.08784 0.82333 0.81167 0.0
N1074 N 0.08922 0.78693 0.7767 0.0
N1075 N 0.12326 0.80631 0.87722 0.0
C1076 C 0.10591 0.79568 0.79992 0.0
C1077 C 0.12354 0.80474 0.85169 0.0
N1078 N 0.16882 0.75434 0.80072 0.0
N1079 N 0.09803 0.85755 0.84734 0.0
H1080 H 0.13897 0.78919 0.88851 0.0
H1081 H 0.10325 0.82326 0.88711 0.0
H1082 H 0.08747 0.87665 0.83699 0.0
H1083 H 0.11209 0.86316 0.86508 0.0
H1084 H 0.17166 0.7536 0.78126 0.0
H1085 H 0.19437 0.73941 0.80972 0.0
H1086 H 0.09556 0.76502 0.76944 0.0
H1087 H 0.06597 0.79999 0.76514 0.0
loop_
_geom_bond_atom_site_label_1
_geom_bond_atom_site_label_2
_geom_bond_distance
_geom_bond_site_symmetry_2
_ccdc_geom_bond_type
C0 C1 1.264 . S
C0 C5 1.479 . S
C0 C10 1.465 . S
C1 C0 1.264 . S
C1 C3 1.339 . S
C1 H28 0.931 . S
C2 C3 1.395 . S
C2 C4 1.320 . S
C3 C1 1.339 . S
C3 C2 1.395 . S
C3 H29 0.929 . S
C4 C2 1.320 . S
C4 C5 1.405 . S
C4 H30 0.930 . S
C5 C0 1.479 . S
C5 C4 1.405 . S
C5 H31 0.931 . S
U6 O7 2.454 . S
U6 O8 2.458 . S
U6 C9 2.984 . S
U6 C10 2.847 . S
U6 C23 2.882 . S
U6 O24 2.441 . S
U6 O25 2.420 . S
U6 O26 2.455 . S
U6 O27 2.449 . S
O7 U6 2.454 . S
O7 C9 1.353 . S
O8 U6 2.458 . S
O8 C9 1.286 . S
C9 U6 2.984 . S
C9 O7 1.353 . S
C9 O8 1.286 . S
C9 C11 1.363 . S
C10 C0 1.465 . S
C10 U6 2.847 . S
C10 O24 1.249 . S
C10 O25 1.202 . S
C11 C9 1.363 . S
C11 C13 1.408 . S
C11 C16 1.342 . S
C12 C13 1.310 . S
C12 C15 1.461 . S
C12 H32 0.932 . S
C13 C11 1.408 . S
C13 C12 1.310 . S
C13 H33 0.930 . S
C14 C15 1.474 . S
C14 C16 1.285 . S
C14 H34 0.929 . S
C15 C12 1.461 . S
C15 C14 1.474 . S
C16 C11 1.342 . S
C16 C14 1.285 . S
C16 H35 0.930 . S
C17 C20 1.424 . S
C17 C22 1.245 . S
C17 C23 1.428 . S
C18 C21 1.260 . S
C18 C22 1.477 . S
C18 H36 0.932 . S
C19 C20 1.384 . S
C19 C21 1.479 . S
C19 H37 0.929 . S
C20 C17 1.424 . S
C20 C19 1.384 . S
C20 H38 0.928 . S
C21 C18 1.260 . S
C21 C19 1.479 . S
C22 C17 1.245 . S
C22 C18 1.477 . S
C22 H39 0.932 . S
C23 U6 2.882 . S
C23 C17 1.428 . S
C23 O26 1.301 . S
C23 O27 1.282 . S
O24 U6 2.441 . S
O24 C10 1.249 . S
O25 U6 2.420 . S
O25 C10 1.202 . S
O26 U6 2.455 . S
O26 C23 1.301 . S
O27 U6 2.449 . S
O27 C23 1.282 . S
H28 C1 0.931 . S
H29 C3 0.929 . S
H30 C4 0.930 . S
H31 C5 0.931 . S
H32 C12 0.932 . S
H33 C13 0.930 . S
H34 C14 0.929 . S
H35 C16 0.930 . S
H36 C18 0.932 . S
H37 C19 0.929 . S
H38 C20 0.928 . S
H39 C22 0.932 . S
C40 C41 1.264 . S
C40 C45 1.479 . S
C40 C50 1.465 . S
C41 C40 1.264 . S
C41 C43 1.339 1_556 S
C41 H68 0.931 . S
C42 C43 1.395 . S
C42 C44 1.320 . S
C43 C41 1.339 1_554 S
C43 C42 1.395 . S
C43 H69 0.929 . S
C44 C42 1.320 . S
C44 C45 1.405 1_554 S
C44 H70 0.930 . S
C45 C40 1.479 . S
C45 C44 1.405 1_556 S
C45 H71 0.931 . S
U46 O47 2.454 . S
U46 O48 2.458 . S
U46 C49 2.984 . S
U46 C50 2.847 . S
U46 C63 2.882 . S
U46 O64 2.441 . S
U46 O65 2.420 . S
U46 O66 2.455 . S
U46 O67 2.449 . S
O47 U46 2.454 . S
O47 C49 1.353 . S
O48 U46 2.458 . S
O48 C49 1.286 . S
C49 U46 2.984 . S
C49 O47 1.353 . S
C49 O48 1.286 . S
C49 C51 1.363 . S
C50 C40 1.465 . S
C50 U46 2.847 . S
C50 O64 1.249 . S
C50 O65 1.202 . S
C51 C49 1.363 . S
C51 C53 1.408 . S
C51 C56 1.342 . S
C52 C53 1.310 . S
C52 C55 1.461 . S
C52 H72 0.932 . S
C53 C51 1.408 . S
C53 C52 1.310 . S
C53 H73 0.930 . S
C54 C55 1.474 . S
C54 C56 1.285 . S
C54 H74 0.929 . S
C55 C52 1.461 . S
C55 C54 1.474 . S
C56 C51 1.342 . S
C56 C54 1.285 . S
C56 H75 0.930 . S
C57 C60 1.424 . S
C57 C62 1.245 . S
C57 C63 1.428 . S
C58 C61 1.260 1_545 S
C58 C62 1.477 . S
C58 H76 0.932 . S
C59 C60 1.368 1_565 S
C59 C61 1.482 . S
C59 H77 0.942 . S
C60 C57 1.424 . S
C60 C59 1.368 1_545 S
C60 H78 0.928 . S
C61 C58 1.260 1_565 S
C61 C59 1.482 . S
C62 C57 1.245 . S
C62 C58 1.477 . S
C62 H79 0.932 . S
C63 U46 2.882 . S
C63 C57 1.428 . S
C63 O66 1.301 . S
C63 O67 1.282 . S
O64 U46 2.441 . S
O64 C50 1.249 . S
O65 U46 2.420 . S
O65 C50 1.202 . S
O66 U46 2.455 . S
O66 C63 1.301 . S
O67 U46 2.449 . S
O67 C63 1.282 . S
H68 C41 0.931 . S
H69 C43 0.929 . S
H70 C44 0.930 . S
H71 C45 0.931 . S
H72 C52 0.932 . S
H73 C53 0.930 . S
H74 C54 0.929 . S
H75 C56 0.930 . S
H76 C58 0.932 . S
H77 C59 0.942 . S
H78 C60 0.928 . S
H79 C62 0.932 . S
C80 C81 1.264 . S
C80 C85 1.479 . S
C80 C90 1.465 . S
C81 C80 1.264 . S
C81 C83 1.339 1_545 S
C81 H108 0.931 . S
C82 C83 1.395 . S
C82 C84 1.320 1_565 S
C83 C81 1.339 1_565 S
C83 C82 1.395 . S
C83 H109 0.929 . S
C84 C82 1.320 1_545 S
C84 C85 1.405 . S
C84 H110 0.930 . S
C85 C80 1.479 . S
C85 C84 1.405 . S
C85 H111 0.931 . S
U86 O87 2.454 . S
U86 O88 2.458 . S
U86 C89 2.984 . S
U86 C90 2.847 . S
U86 C103 2.882 . S
U86 O104 2.441 . S
U86 O105 2.420 . S
U86 O106 2.455 . S
U86 O107 2.449 . S
O87 U86 2.454 . S
O87 C89 1.353 . S
O88 U86 2.458 . S
O88 C89 1.286 . S
C89 U86 2.984 . S
C89 O87 1.353 . S
C89 O88 1.286 . S
C89 C91 1.363 . S
C90 C80 1.465 . S
C90 U86 2.847 . S
C90 O104 1.249 . S
C90 O105 1.202 . S
C91 C89 1.363 . S
C91 C93 1.408 . S
C91 C96 1.342 . S
C92 C93 1.310 . S
C92 C95 1.461 . S
C92 H112 0.932 . S
C93 C91 1.408 . S
C93 C92 1.310 . S
C93 H113 0.930 . S
C94 C95 1.474 . S
C94 C96 1.285 . S
C94 H114 0.929 . S
C95 C92 1.461 . S
C95 C94 1.474 . S
C96 C91 1.342 . S
C96 C94 1.285 . S
C96 H115 0.930 . S
C97 C100 1.424 . S
C97 C102 1.245 . S
C97 C103 1.428 . S
C98 C101 1.260 . S
C98 C102 1.477 . S
C98 H116 0.932 . S
C99 C100 1.384 . S
C99 C101 1.479 . S
C99 H117 0.929 . S
C100 C97 1.424 . S
C100 C99 1.384 . S
C100 H118 0.928 . S
C101 C98 1.260 . S
C101 C99 1.479 . S
C102 C97 1.245 . S
C102 C98 1.477 . S
C102 H119 0.932 . S
C103 U86 2.882 . S
C103 C97 1.428 . S
C103 O106 1.301 . S
C103 O107 1.282 . S
O104 U86 2.441 . S
O104 C90 1.249 . S
O105 U86 2.420 . S
O105 C90 1.202 . S
O106 U86 2.455 . S
O106 C103 1.301 . S
O107 U86 2.449 . S
O107 C103 1.282 . S
H108 C81 0.931 . S
H109 C83 0.929 . S
H110 C84 0.930 . S
H111 C85 0.931 . S
H112 C92 0.932 . S
H113 C93 0.930 . S
H114 C94 0.929 . S
H115 C96 0.930 . S
H116 C98 0.932 . S
H117 C99 0.929 . S
H118 C100 0.928 . S
H119 C102 0.932 . S
C120 C121 1.264 . S
C120 C125 1.479 . S
C120 C130 1.465 . S
C121 C120 1.264 . S
C121 C123 1.339 1_554 S
C121 H148 0.931 . S
C122 C123 1.395 . S
C122 C124 1.320 . S
C123 C121 1.339 1_556 S
C123 C122 1.395 . S
C123 H149 0.929 . S
C124 C122 1.320 . S
C124 C125 1.405 1_556 S
C124 H150 0.930 . S
C125 C120 1.479 . S
C125 C124 1.405 1_554 S
C125 H151 0.931 . S
U126 O127 2.454 . S
U126 O128 2.458 . S
U126 C129 2.984 . S
U126 C130 2.847 . S
U126 C143 2.882 . S
U126 O144 2.441 . S
U126 O145 2.420 . S
U126 O146 2.455 . S
U126 O147 2.449 . S
O127 U126 2.454 . S
O127 C129 1.353 . S
O128 U126 2.458 . S
O128 C129 1.286 . S
C129 U126 2.984 . S
C129 O127 1.353 . S
C129 O128 1.286 . S
C129 C131 1.363 . S
C130 C120 1.465 . S
C130 U126 2.847 . S
C130 O144 1.249 . S
C130 O145 1.202 . S
C131 C129 1.363 . S
C131 C133 1.408 . S
C131 C136 1.342 . S
C132 C133 1.310 . S
C132 C135 1.461 . S
C132 H152 0.932 . S
C133 C131 1.408 . S
C133 C132 1.310 . S
C133 H153 0.930 . S
C134 C135 1.474 . S
C134 C136 1.285 . S
C134 H154 0.929 . S
C135 C132 1.461 . S
C135 C134 1.474 . S
C136 C131 1.342 . S
C136 C134 1.285 . S
C136 H155 0.930 . S
C137 C140 1.424 . S
C137 C142 1.245 . S
C137 C143 1.428 . S
C138 C141 1.260 . S
C138 C142 1.477 . S
C138 H156 0.932 . S
C139 C140 1.384 . S
C139 C141 1.479 . S
C139 H157 0.929 . S
C140 C137 1.424 . S
C140 C139 1.384 . S
C140 H158 0.928 . S
C141 C138 1.260 . S
C141 C139 1.479 . S
C142 C137 1.245 . S
C142 C138 1.477 . S
C142 H159 0.932 . S
C143 U126 2.882 . S
C143 C137 1.428 . S
C143 O146 1.301 . S
C143 O147 1.282 . S
O144 U126 2.441 . S
O144 C130 1.249 . S
O145 U126 2.420 . S
O145 C130 1.202 . S
O146 U126 2.455 . S
O146 C143 1.301 . S
O147 U126 2.449 . S
O147 C143 1.282 . S
H148 C121 0.931 . S
H149 C123 0.929 . S
H150 C124 0.930 . S
H151 C125 0.931 . S
H152 C132 0.932 . S
H153 C133 0.930 . S
H154 C134 0.929 . S
H155 C136 0.930 . S
H156 C138 0.932 . S
H157 C139 0.929 . S
H158 C140 0.928 . S
H159 C142 0.932 . S
C160 C161 1.264 . S
C160 C165 1.479 . S
C160 C170 1.465 . S
C161 C160 1.264 . S
C161 C163 1.339 . S
C161 H188 0.931 . S
C162 C163 1.395 . S
C162 C164 1.320 . S
C163 C161 1.339 . S
C163 C162 1.395 . S
C163 H189 0.929 . S
C164 C162 1.320 . S
C164 C165 1.405 . S
C164 H190 0.930 . S
C165 C160 1.479 . S
C165 C164 1.405 . S
C165 H191 0.931 . S
U166 O167 2.454 . S
U166 O168 2.458 . S
U166 C169 2.984 . S
U166 C170 2.847 . S
U166 C183 2.882 . S
U166 O184 2.441 . S
U166 O185 2.420 . S
U166 O186 2.455 . S
U166 O187 2.449 . S
O167 U166 2.454 . S
O167 C169 1.353 . S
O168 U166 2.458 . S
O168 C169 1.286 . S
C169 U166 2.984 . S
C169 O167 1.353 . S
C169 O168 1.286 . S
C169 C171 1.363 . S
C170 C160 1.465 . S
C170 U166 2.847 . S
C170 O184 1.249 . S
C170 O185 1.202 . S
C171 C169 1.363 . S
C171 C173 1.408 . S
C171 C176 1.342 . S
C172 C173 1.310 . S
C172 C175 1.461 . S
C172 H192 0.932 . S
C173 C171 1.408 . S
C173 C172 1.310 . S
C173 H193 0.930 . S
C174 C175 1.474 . S
C174 C176 1.285 . S
C174 H194 0.929 . S
C175 C172 1.461 . S
C175 C174 1.474 . S
C176 C171 1.342 . S
C176 C174 1.285 . S
C176 H195 0.930 . S
C177 C180 1.424 . S
C177 C182 1.245 . S
C177 C183 1.428 . S
C178 C181 1.260 . S
C178 C182 1.477 . S
C178 H196 0.932 . S
C179 C180 1.384 . S
C179 C181 1.479 . S
C179 H197 0.929 . S
C180 C177 1.424 . S
C180 C179 1.384 . S
C180 H198 0.928 . S
C181 C178 1.260 . S
C181 C179 1.479 . S
C182 C177 1.245 . S
C182 C178 1.477 . S
C182 H199 0.932 . S
C183 U166 2.882 . S
C183 C177 1.428 . S
C183 O186 1.301 . S
C183 O187 1.282 . S
O184 U166 2.441 . S
O184 C170 1.249 . S
O185 U166 2.420 . S
O185 C170 1.202 . S
O186 U166 2.455 . S
O186 C183 1.301 . S
O187 U166 2.449 . S
O187 C183 1.282 . S
H188 C161 0.931 . S
H189 C163 0.929 . S
H190 C164 0.930 . S
H191 C165 0.931 . S
H192 C172 0.932 . S
H193 C173 0.930 . S
H194 C174 0.929 . S
H195 C176 0.930 . S
H196 C178 0.932 . S
H197 C179 0.929 . S
H198 C180 0.928 . S
H199 C182 0.932 . S
C200 C201 1.264 . S
C200 C205 1.479 . S
C200 C210 1.465 . S
C201 C200 1.264 . S
C201 C203 1.339 1_554 S
C201 H228 0.931 . S
C202 C203 1.395 . S
C202 C204 1.320 . S
C203 C201 1.339 1_556 S
C203 C202 1.395 . S
C203 H229 0.929 . S
C204 C202 1.320 . S
C204 C205 1.405 1_556 S
C204 H230 0.930 . S
C205 C200 1.479 . S
C205 C204 1.405 1_554 S
C205 H231 0.931 . S
U206 O207 2.454 . S
U206 O208 2.458 . S
U206 C209 2.984 . S
U206 C210 2.847 . S
U206 C223 2.882 . S
U206 O224 2.441 . S
U206 O225 2.420 . S
U206 O226 2.455 . S
U206 O227 2.449 . S
O207 U206 2.454 . S
O207 C209 1.353 . S
O208 U206 2.458 . S
O208 C209 1.286 . S
C209 U206 2.984 . S
C209 O207 1.353 . S
C209 O208 1.286 . S
C209 C211 1.363 . S
C210 C200 1.465 . S
C210 U206 2.847 . S
C210 O224 1.249 . S
C210 O225 1.202 . S
C211 C209 1.363 . S
C211 C213 1.408 . S
C211 C216 1.342 . S
C212 C213 1.310 . S
C212 C215 1.461 . S
C212 H232 0.932 . S
C213 C211 1.408 . S
C213 C212 1.310 . S
C213 H233 0.930 . S
C214 C215 1.474 . S
C214 C216 1.285 . S
C214 H234 0.929 . S
C215 C212 1.461 . S
C215 C214 1.474 . S
C216 C211 1.342 . S
C216 C214 1.285 . S
C216 H235 0.930 . S
C217 C220 1.424 . S
C217 C222 1.245 . S
C217 C223 1.428 . S
C218 C221 1.260 1_565 S
C218 C222 1.477 . S
C218 H236 0.932 . S
C219 C220 1.384 1_545 S
C219 C221 1.479 . S
C219 H237 0.929 . S
C220 C217 1.424 . S
C220 C219 1.384 1_565 S
C220 H238 0.928 . S
C221 C218 1.260 1_545 S
C221 C219 1.479 . S
C222 C217 1.245 . S
C222 C218 1.477 . S
C222 H239 0.932 . S
C223 U206 2.882 . S
C223 C217 1.428 . S
C223 O226 1.301 . S
C223 O227 1.282 . S
O224 U206 2.441 . S
O224 C210 1.249 . S
O225 U206 2.420 . S
O225 C210 1.202 . S
O226 U206 2.455 . S
O226 C223 1.301 . S
O227 U206 2.449 . S
O227 C223 1.282 . S
H228 C201 0.931 . S
H229 C203 0.929 . S
H230 C204 0.930 . S
H231 C205 0.931 . S
H232 C212 0.932 . S
H233 C213 0.930 . S
H234 C214 0.929 . S
H235 C216 0.930 . S
H236 C218 0.932 . S
H237 C219 0.929 . S
H238 C220 0.928 . S
H239 C222 0.932 . S
C240 C241 1.264 . S
C240 C245 1.479 . S
C240 C250 1.465 . S
C241 C240 1.264 . S
C241 C243 1.339 . S
C241 H268 0.931 . S
C242 C243 1.395 1_545 S
C242 C244 1.320 1_545 S
C243 C241 1.339 . S
C243 C242 1.395 1_565 S
C243 H269 0.929 1_565 S
C244 C242 1.320 1_565 S
C244 C245 1.405 . S
C244 H270 0.930 . S
C245 C240 1.479 . S
C245 C244 1.405 . S
C245 H271 0.931 . S
U246 O247 2.454 . S
U246 O248 2.458 . S
U246 C249 2.984 . S
U246 C250 2.847 . S
U246 C263 2.882 . S
U246 O264 2.441 . S
U246 O265 2.420 . S
U246 O266 2.455 . S
U246 O267 2.449 . S
O247 U246 2.454 . S
O247 C249 1.353 . S
O248 U246 2.458 . S
O248 C249 1.286 . S
C249 U246 2.984 . S
C249 O247 1.353 . S
C249 O248 1.286 . S
C249 C251 1.363 . S
C250 C240 1.465 . S
C250 U246 2.847 . S
C250 O264 1.249 . S
C250 O265 1.202 . S
C251 C249 1.363 . S
C251 C253 1.408 . S
C251 C256 1.342 . S
C252 C253 1.310 . S
C252 C255 1.461 . S
C252 H272 0.932 . S
C253 C251 1.408 . S
C253 C252 1.310 . S
C253 H273 0.930 . S
C254 C255 1.474 . S
C254 C256 1.285 . S
C254 H274 0.929 . S
C255 C252 1.461 . S
C255 C254 1.474 . S
C256 C251 1.342 . S
C256 C254 1.285 . S
C256 H275 0.930 . S
C257 C260 1.424 . S
C257 C262 1.245 . S
C257 C263 1.428 . S
C258 C261 1.260 . S
C258 C262 1.477 . S
C258 H276 0.932 . S
C259 C260 1.384 . S
C259 C261 1.479 . S
C259 H277 0.929 . S
C260 C257 1.424 . S
C260 C259 1.384 . S
C260 H278 0.928 . S
C261 C258 1.260 . S
C261 C259 1.479 . S
C262 C257 1.245 . S
C262 C258 1.477 . S
C262 H279 0.932 . S
C263 U246 2.882 . S
C263 C257 1.428 . S
C263 O266 1.301 . S
C263 O267 1.282 . S
O264 U246 2.441 . S
O264 C250 1.249 . S
O265 U246 2.420 . S
O265 C250 1.202 . S
O266 U246 2.455 . S
O266 C263 1.301 . S
O267 U246 2.449 . S
O267 C263 1.282 . S
H268 C241 0.931 . S
H269 C243 0.929 1_545 S
H270 C244 0.930 . S
H271 C245 0.931 . S
H272 C252 0.932 . S
H273 C253 0.930 . S
H274 C254 0.929 . S
H275 C256 0.930 . S
H276 C258 0.932 . S
H277 C259 0.929 . S
H278 C260 0.928 . S
H279 C262 0.932 . S
C280 C281 1.264 . S
C280 C285 1.479 . S
C280 C290 1.465 . S
C281 C280 1.264 . S
C281 C283 1.339 1_556 S
C281 H308 0.931 . S
C282 C283 1.395 . S
C282 C284 1.320 . S
C283 C281 1.339 1_554 S
C283 C282 1.395 . S
C283 H309 0.929 . S
C284 C282 1.320 . S
C284 C285 1.405 1_554 S
C284 H310 0.930 . S
C285 C280 1.479 . S
C285 C284 1.405 1_556 S
C285 H311 0.931 . S
U286 O287 2.454 . S
U286 O288 2.458 . S
U286 C289 2.984 . S
U286 C290 2.847 . S
U286 C303 2.882 . S
U286 O304 2.441 . S
U286 O305 2.420 . S
U286 O306 2.455 . S
U286 O307 2.449 . S
O287 U286 2.454 . S
O287 C289 1.353 . S
O288 U286 2.458 . S
O288 C289 1.286 . S
C289 U286 2.984 . S
C289 O287 1.353 . S
C289 O288 1.286 . S
C289 C291 1.363 . S
C290 C280 1.465 . S
C290 U286 2.847 . S
C290 O304 1.249 . S
C290 O305 1.202 . S
C291 C289 1.363 . S
C291 C293 1.408 . S
C291 C296 1.342 . S
C292 C293 1.310 . S
C292 C295 1.461 . S
C292 H312 0.932 . S
C293 C291 1.408 . S
C293 C292 1.310 . S
C293 H313 0.930 . S
C294 C295 1.474 . S
C294 C296 1.285 . S
C294 H314 0.929 . S
C295 C292 1.461 . S
C295 C294 1.474 . S
C296 C291 1.342 . S
C296 C294 1.285 . S
C296 H315 0.930 . S
C297 C300 1.424 . S
C297 C302 1.245 . S
C297 C303 1.428 . S
C298 C301 1.260 . S
C298 C302 1.477 . S
C298 H316 0.932 . S
C299 C300 1.384 . S
C299 C301 1.479 . S
C299 H317 0.929 . S
C300 C297 1.424 . S
C300 C299 1.384 . S
C300 H318 0.928 . S
C301 C298 1.260 . S
C301 C299 1.479 . S
C302 C297 1.245 . S
C302 C298 1.477 . S
C302 H319 0.932 . S
C303 U286 2.882 . S
C303 C297 1.428 . S
C303 O306 1.301 . S
C303 O307 1.282 . S
O304 U286 2.441 . S
O304 C290 1.249 . S
O305 U286 2.420 . S
O305 C290 1.202 . S
O306 U286 2.455 . S
O306 C303 1.301 . S
O307 U286 2.449 . S
O307 C303 1.282 . S
H308 C281 0.931 . S
H309 C283 0.929 . S
H310 C284 0.930 . S
H311 C285 0.931 . S
H312 C292 0.932 . S
H313 C293 0.930 . S
H314 C294 0.929 . S
H315 C296 0.930 . S
H316 C298 0.932 . S
H317 C299 0.929 . S
H318 C300 0.928 . S
H319 C302 0.932 . S
C320 C322 1.422 . S
C320 C324 1.415 . S
C320 N326 1.369 . S
C321 C322 1.421 . S
C321 C323 1.417 . S
C321 C333 1.422 . S
C322 C320 1.422 . S
C322 C321 1.421 . S
C322 N332 1.359 . S
C323 C321 1.417 . S
C323 C325 1.329 . S
C323 H342 0.930 . S
C324 C320 1.415 . S
C324 C325 1.437 . S
C324 C328 1.413 . S
C325 C323 1.329 . S
C325 C324 1.437 . S
C325 H347 0.929 . S
N326 C320 1.369 . S
N326 C327 1.338 . S
N326 Gd331 2.622 . S
C327 N326 1.338 . S
C327 C329 1.378 . S
C327 H339 0.929 . S
C328 C324 1.413 . S
C328 C329 1.348 . S
C328 H344 0.931 . S
C329 C327 1.378 . S
C329 C328 1.348 . S
C329 H345 0.930 . S
Gd330 N350 2.622 . S
Gd330 N357 2.570 . S
Gd330 O364 2.353 . S
Gd330 O365 2.468 . S
Gd330 O366 2.427 . S
Gd330 O368 2.388 . S
Gd330 O369 2.386 . S
Gd330 O373 2.289 1_455 S
Gd330 C383 2.805 . S
Gd331 N326 2.622 . S
Gd331 N332 2.570 . S
Gd331 O363 2.386 . S
Gd331 O367 2.307 1_655 S
Gd331 O370 2.346 1_655 S
Gd331 O371 2.468 . S
Gd331 O372 2.427 . S
Gd331 O374 2.388 . S
Gd331 C395 2.805 . S
N332 C322 1.359 . S
N332 Gd331 2.570 . S
N332 C334 1.343 . S
C333 C321 1.422 . S
C333 C335 1.321 . S
C333 H341 0.931 . S
C334 N332 1.343 . S
C334 C335 1.390 . S
C334 H336 0.931 . S
C335 C333 1.321 . S
C335 C334 1.390 . S
C335 H337 0.930 . S
H336 C334 0.931 . S
H337 C335 0.930 . S
H338 C361 0.931 . S
H339 C327 0.929 . S
H340 C362 0.930 . S
H341 C333 0.931 . S
H342 C323 0.930 . S
H343 C352 0.929 . S
H344 C328 0.931 . S
H345 C329 0.930 . S
H346 C384 0.930 . S
H347 C325 0.929 . S
H348 C353 0.931 . S
H349 C354 0.930 . S
N350 Gd330 2.622 . S
N350 C351 1.369 . S
N350 C352 1.338 . S
C351 N350 1.369 . S
C351 C355 1.415 . S
C351 C358 1.422 . S
C352 H343 0.929 . S
C352 N350 1.338 . S
C352 C354 1.378 . S
C353 H348 0.931 . S
C353 C354 1.348 . S
C353 C355 1.413 . S
C354 H349 0.930 . S
C354 C352 1.378 . S
C354 C353 1.348 . S
C355 C351 1.415 . S
C355 C353 1.413 . S
C355 C385 1.437 . S
H356 C385 0.929 . S
N357 Gd330 2.570 . S
N357 C358 1.359 . S
N357 C361 1.343 . S
C358 C351 1.422 . S
C358 N357 1.359 . S
C358 C360 1.421 . S
C359 C360 1.422 . S
C359 C362 1.321 . S
C359 H386 0.931 . S
C360 C358 1.421 . S
C360 C359 1.422 . S
C360 C384 1.417 . S
C361 H338 0.931 . S
C361 N357 1.343 . S
C361 C362 1.390 . S
C362 H340 0.930 . S
C362 C359 1.321 . S
C362 C361 1.390 . S
O363 Gd331 2.386 . S
O363 C375 1.265 . S
O364 Gd330 2.353 . S
O364 C375 1.242 1_455 S
O365 Gd330 2.468 . S
O365 C383 1.263 . S
O366 Gd330 2.427 . S
O366 C383 1.252 . S
O367 Gd331 2.307 1_455 S
O367 C376 1.261 . S
O368 Gd330 2.388 . S
O368 C376 1.252 . S
O369 Gd330 2.386 . S
O369 C387 1.265 . S
O370 Gd331 2.346 1_455 S
O370 C387 1.251 . S
O371 Gd331 2.468 . S
O371 C395 1.263 . S
O372 Gd331 2.427 . S
O372 C395 1.252 . S
O373 Gd330 2.289 1_655 S
O373 C388 1.282 . S
O374 Gd331 2.388 . S
O374 C388 1.252 . S
C375 O363 1.265 . S
C375 O364 1.242 1_655 S
C376 O367 1.261 . S
C376 O368 1.252 . S
C377 C380 1.394 . S
C377 C382 1.370 . S
C377 C383 1.500 . S
C378 C381 1.383 . S
C378 C382 1.395 . S
C379 C380 1.396 . S
C379 C381 1.365 . S
C379 H396 0.929 . S
C380 C377 1.394 . S
C380 C379 1.396 . S
C380 H397 0.930 . S
C381 C378 1.383 . S
C381 C379 1.365 . S
C381 H398 0.931 . S
C382 C377 1.370 . S
C382 C378 1.395 . S
C382 H399 0.930 . S
C383 Gd330 2.805 . S
C383 O365 1.263 . S
C383 O366 1.252 . S
C383 C377 1.500 . S
C384 H346 0.930 . S
C384 C360 1.417 . S
C384 C385 1.329 . S
C385 C355 1.437 . S
C385 H356 0.929 . S
C385 C384 1.329 . S
H386 C359 0.931 . S
C387 O369 1.265 . S
C387 O370 1.251 . S
C388 O373 1.282 . S
C388 O374 1.252 . S
C389 C392 1.394 . S
C389 C394 1.370 . S
C389 C395 1.500 . S
C390 C393 1.383 . S
C390 C394 1.395 . S
C391 C392 1.396 . S
C391 C393 1.365 . S
C391 H400 0.929 . S
C392 C389 1.394 . S
C392 C391 1.396 . S
C392 H401 0.930 . S
C393 C390 1.383 . S
C393 C391 1.365 . S
C393 H402 0.931 . S
C394 C389 1.370 . S
C394 C390 1.395 . S
C394 H403 0.930 . S
C395 Gd331 2.805 . S
C395 O371 1.263 . S
C395 O372 1.252 . S
C395 C389 1.500 . S
H396 C379 0.929 . S
H397 C380 0.930 . S
H398 C381 0.931 . S
H399 C382 0.930 . S
H400 C391 0.929 . S
H401 C392 0.930 . S
H402 C393 0.931 . S
H403 C394 0.930 . S
C404 C406 1.422 . S
C404 C408 1.415 . S
C404 N410 1.369 . S
C405 C406 1.421 . S
C405 C407 1.417 . S
C405 C417 1.422 . S
C406 C404 1.422 . S
C406 C405 1.421 . S
C406 N416 1.359 . S
C407 C405 1.417 . S
C407 C409 1.329 . S
C407 H426 0.930 . S
C408 C404 1.415 . S
C408 C409 1.437 . S
C408 C412 1.413 . S
C409 C407 1.329 . S
C409 C408 1.437 . S
C409 H431 0.929 . S
N410 C404 1.369 . S
N410 C411 1.338 . S
N410 Gd415 2.622 . S
C411 N410 1.338 . S
C411 C413 1.378 . S
C411 H423 0.929 . S
C412 C408 1.413 . S
C412 C413 1.348 . S
C412 H428 0.931 . S
C413 C411 1.378 . S
C413 C412 1.348 . S
C413 H429 0.930 . S
Gd414 N434 2.622 . S
Gd414 N441 2.570 . S
Gd414 O448 2.353 . S
Gd414 O449 2.468 . S
Gd414 O450 2.427 . S
Gd414 O452 2.388 . S
Gd414 O453 2.386 . S
Gd414 O457 2.307 . S
Gd414 C467 2.805 . S
Gd415 N410 2.622 . S
Gd415 N416 2.570 . S
Gd415 O447 2.386 . S
Gd415 O451 2.307 . S
Gd415 O454 2.353 . S
Gd415 O455 2.468 . S
Gd415 O456 2.427 . S
Gd415 O458 2.388 . S
Gd415 C479 2.805 . S
N416 C406 1.359 . S
N416 Gd415 2.570 . S
N416 C418 1.343 . S
C417 C405 1.422 . S
C417 C419 1.321 . S
C417 H425 0.931 . S
C418 N416 1.343 . S
C418 C419 1.390 . S
C418 H420 0.931 . S
C419 C417 1.321 . S
C419 C418 1.390 . S
C419 H421 0.930 . S
H420 C418 0.931 . S
H421 C419 0.930 . S
H422 C445 0.931 . S
H423 C411 0.929 . S
H424 C446 0.930 . S
H425 C417 0.931 . S
H426 C407 0.930 . S
H427 C436 0.929 . S
H428 C412 0.931 . S
H429 C413 0.930 . S
H430 C468 0.930 . S
H431 C409 0.929 . S
H432 C437 0.931 . S
H433 C438 0.930 . S
N434 Gd414 2.622 . S
N434 C435 1.369 . S
N434 C436 1.338 . S
C435 N434 1.369 . S
C435 C439 1.415 . S
C435 C442 1.422 . S
C436 H427 0.929 . S
C436 N434 1.338 . S
C436 C438 1.378 . S
C437 H432 0.931 . S
C437 C438 1.348 . S
C437 C439 1.413 . S
C438 H433 0.930 . S
C438 C436 1.378 . S
C438 C437 1.348 . S
C439 C435 1.415 . S
C439 C437 1.413 . S
C439 C469 1.437 . S
H440 C469 0.929 . S
N441 Gd414 2.570 . S
N441 C442 1.359 . S
N441 C445 1.343 . S
C442 C435 1.422 . S
C442 N441 1.359 . S
C442 C444 1.421 . S
C443 C444 1.422 . S
C443 C446 1.321 . S
C443 H470 0.931 . S
C444 C442 1.421 . S
C444 C443 1.422 . S
C444 C468 1.417 . S
C445 H422 0.931 . S
C445 N441 1.343 . S
C445 C446 1.390 . S
C446 H424 0.930 . S
C446 C443 1.321 . S
C446 C445 1.390 . S
O447 Gd415 2.386 . S
O447 C459 1.265 . S
O448 Gd414 2.353 . S
O448 C459 1.242 . S
O449 Gd414 2.468 . S
O449 C467 1.263 . S
O450 Gd414 2.427 . S
O450 C467 1.252 . S
O451 Gd415 2.307 . S
O451 C460 1.261 . S
O452 Gd414 2.388 . S
O452 C460 1.252 . S
O453 Gd414 2.386 . S
O453 C471 1.265 . S
O454 Gd415 2.353 . S
O454 C471 1.242 . S
O455 Gd415 2.468 . S
O455 C479 1.263 . S
O456 Gd415 2.427 . S
O456 C479 1.252 . S
O457 Gd414 2.307 . S
O457 C472 1.261 . S
O458 Gd415 2.388 . S
O458 C472 1.252 . S
C459 O447 1.265 . S
C459 O448 1.242 . S
C460 O451 1.261 . S
C460 O452 1.252 . S
C461 C464 1.394 . S
C461 C466 1.370 . S
C461 C467 1.500 . S
C462 C465 1.383 . S
C462 C466 1.395 . S
C463 C464 1.396 . S
C463 C465 1.365 . S
C463 H480 0.929 . S
C464 C461 1.394 . S
C464 C463 1.396 . S
C464 H481 0.930 . S
C465 C462 1.383 . S
C465 C463 1.365 . S
C465 H482 0.931 . S
C466 C461 1.370 . S
C466 C462 1.395 . S
C466 H483 0.930 . S
C467 Gd414 2.805 . S
C467 O449 1.263 . S
C467 O450 1.252 . S
C467 C461 1.500 . S
C468 H430 0.930 . S
C468 C444 1.417 . S
C468 C469 1.329 . S
C469 C439 1.437 . S
C469 H440 0.929 . S
C469 C468 1.329 . S
H470 C443 0.931 . S
C471 O453 1.265 . S
C471 O454 1.242 . S
C472 O457 1.261 . S
C472 O458 1.252 . S
C473 C476 1.394 . S
C473 C478 1.370 . S
C473 C479 1.500 . S
C474 C477 1.383 . S
C474 C478 1.395 . S
C475 C476 1.396 . S
C475 C477 1.365 . S
C475 H484 0.929 . S
C476 C473 1.394 . S
C476 C475 1.396 . S
C476 H485 0.930 . S
C477 C474 1.383 . S
C477 C475 1.365 . S
C477 H486 0.931 . S
C478 C473 1.370 . S
C478 C474 1.395 . S
C478 H487 0.930 . S
C479 Gd415 2.805 . S
C479 O455 1.263 . S
C479 O456 1.252 . S
C479 C473 1.500 . S
H480 C463 0.929 . S
H481 C464 0.930 . S
H482 C465 0.931 . S
H483 C466 0.930 . S
H484 C475 0.929 . S
H485 C476 0.930 . S
H486 C477 0.931 . S
H487 C478 0.930 . S
C488 C490 1.422 . S
C488 C492 1.415 . S
C488 N494 1.369 . S
C489 C490 1.421 . S
C489 C491 1.417 . S
C489 C501 1.422 . S
C490 C488 1.422 . S
C490 C489 1.421 . S
C490 N500 1.359 . S
C491 C489 1.417 . S
C491 C493 1.329 . S
C491 H510 0.930 . S
C492 C488 1.415 . S
C492 C493 1.437 . S
C492 C496 1.413 . S
C493 C491 1.329 . S
C493 C492 1.437 . S
C493 H515 0.929 . S
N494 C488 1.369 . S
N494 C495 1.338 . S
N494 Gd499 2.622 . S
C495 N494 1.338 . S
C495 C497 1.378 . S
C495 H507 0.929 . S
C496 C492 1.413 . S
C496 C497 1.348 . S
C496 H512 0.931 . S
C497 C495 1.378 . S
C497 C496 1.348 . S
C497 H513 0.930 . S
Gd498 N518 2.622 . S
Gd498 N525 2.570 . S
Gd498 O532 2.353 . S
Gd498 O533 2.468 . S
Gd498 O534 2.427 . S
Gd498 O536 2.388 . S
Gd498 O537 2.386 . S
Gd498 O541 2.307 . S
Gd498 C551 2.805 . S
Gd499 N494 2.622 . S
Gd499 N500 2.570 . S
Gd499 O531 2.386 . S
Gd499 O535 2.307 1_655 S
Gd499 O538 2.353 1_655 S
Gd499 O539 2.468 . S
Gd499 O540 2.427 . S
Gd499 O542 2.388 . S
Gd499 C563 2.805 . S
N500 C490 1.359 . S
N500 Gd499 2.570 . S
N500 C502 1.343 . S
C501 C489 1.422 . S
C501 C503 1.321 . S
C501 H509 0.931 . S
C502 N500 1.343 . S
C502 C503 1.390 . S
C502 H504 0.931 . S
C503 C501 1.321 . S
C503 C502 1.390 . S
C503 H505 0.930 . S
H504 C502 0.931 . S
H505 C503 0.930 . S
H506 C529 0.931 . S
H507 C495 0.929 . S
H508 C530 0.930 . S
H509 C501 0.931 . S
H510 C491 0.930 . S
H511 C520 0.929 . S
H512 C496 0.931 . S
H513 C497 0.930 . S
H514 C552 0.930 . S
H515 C493 0.929 . S
H516 C521 0.931 . S
H517 C522 0.930 . S
N518 Gd498 2.622 . S
N518 C519 1.369 . S
N518 C520 1.338 . S
C519 N518 1.369 . S
C519 C523 1.415 . S
C519 C526 1.422 . S
C520 H511 0.929 . S
C520 N518 1.338 . S
C520 C522 1.378 . S
C521 H516 0.931 . S
C521 C522 1.348 . S
C521 C523 1.413 . S
C522 H517 0.930 . S
C522 C520 1.378 . S
C522 C521 1.348 . S
C523 C519 1.415 . S
C523 C521 1.413 . S
C523 C553 1.437 . S
H524 C553 0.929 . S
N525 Gd498 2.570 . S
N525 C526 1.359 . S
N525 C529 1.343 . S
C526 C519 1.422 . S
C526 N525 1.359 . S
C526 C528 1.421 . S
C527 C528 1.422 . S
C527 C530 1.321 . S
C527 H554 0.931 . S
C528 C526 1.421 . S
C528 C527 1.422 . S
C528 C552 1.417 . S
C529 H506 0.931 . S
C529 N525 1.343 . S
C529 C530 1.390 . S
C530 H508 0.930 . S
C530 C527 1.321 . S
C530 C529 1.390 . S
O531 Gd499 2.386 . S
O531 C543 1.265 . S
O532 Gd498 2.353 . S
O532 C543 1.242 1_455 S
O533 Gd498 2.468 . S
O533 C551 1.263 . S
O534 Gd498 2.427 . S
O534 C551 1.252 . S
O535 Gd499 2.307 1_455 S
O535 C544 1.261 . S
O536 Gd498 2.388 . S
O536 C544 1.252 . S
O537 Gd498 2.386 . S
O537 C555 1.265 . S
O538 Gd499 2.353 1_455 S
O538 C555 1.242 . S
O539 Gd499 2.468 . S
O539 C563 1.263 . S
O540 Gd499 2.427 . S
O540 C563 1.252 . S
O541 Gd498 2.307 . S
O541 C556 1.261 1_455 S
O542 Gd499 2.388 . S
O542 C556 1.252 . S
C543 O531 1.265 . S
C543 O532 1.242 1_655 S
C544 O535 1.261 . S
C544 O536 1.252 . S
C545 C548 1.394 . S
C545 C550 1.370 . S
C545 C551 1.500 . S
C546 C549 1.383 . S
C546 C550 1.395 . S
C547 C548 1.396 . S
C547 C549 1.365 . S
C547 H564 0.929 . S
C548 C545 1.394 . S
C548 C547 1.396 . S
C548 H565 0.930 . S
C549 C546 1.383 . S
C549 C547 1.365 . S
C549 H566 0.931 . S
C550 C545 1.370 . S
C550 C546 1.395 . S
C550 H567 0.930 . S
C551 Gd498 2.805 . S
C551 O533 1.263 . S
C551 O534 1.252 . S
C551 C545 1.500 . S
C552 H514 0.930 . S
C552 C528 1.417 . S
C552 C553 1.329 . S
C553 C523 1.437 . S
C553 H524 0.929 . S
C553 C552 1.329 . S
H554 C527 0.931 . S
C555 O537 1.265 . S
C555 O538 1.242 . S
C556 O541 1.261 1_655 S
C556 O542 1.252 . S
C557 C560 1.394 . S
C557 C562 1.370 . S
C557 C563 1.500 . S
C558 C561 1.383 . S
C558 C562 1.395 . S
C559 C560 1.396 . S
C559 C561 1.365 . S
C559 H568 0.929 . S
C560 C557 1.394 . S
C560 C559 1.396 . S
C560 H569 0.930 . S
C561 C558 1.383 . S
C561 C559 1.365 . S
C561 H570 0.931 . S
C562 C557 1.370 . S
C562 C558 1.395 . S
C562 H571 0.930 . S
C563 Gd499 2.805 . S
C563 O539 1.263 . S
C563 O540 1.252 . S
C563 C557 1.500 . S
H564 C547 0.929 . S
H565 C548 0.930 . S
H566 C549 0.931 . S
H567 C550 0.930 . S
H568 C559 0.929 . S
H569 C560 0.930 . S
H570 C561 0.931 . S
H571 C562 0.930 . S
C572 C574 1.422 . S
C572 C576 1.415 . S
C572 N578 1.369 . S
C573 C574 1.421 . S
C573 C575 1.417 . S
C573 C585 1.422 . S
C574 C572 1.422 . S
C574 C573 1.421 . S
C574 N584 1.359 . S
C575 C573 1.417 . S
C575 C577 1.329 . S
C575 H594 0.930 . S
C576 C572 1.415 . S
C576 C577 1.437 . S
C576 C580 1.413 . S
C577 C575 1.329 . S
C577 C576 1.437 . S
C577 H599 0.929 . S
N578 C572 1.369 . S
N578 C579 1.338 . S
N578 Gd583 2.622 . S
C579 N578 1.338 . S
C579 C581 1.378 . S
C579 H591 0.929 . S
C580 C576 1.413 . S
C580 C581 1.348 . S
C580 H596 0.931 . S
C581 C579 1.378 . S
C581 C580 1.348 . S
C581 H597 0.930 . S
Gd582 N602 2.622 . S
Gd582 N609 2.570 . S
Gd582 O616 2.353 . S
Gd582 O617 2.468 . S
Gd582 O618 2.427 . S
Gd582 O620 2.388 . S
Gd582 O621 2.386 . S
Gd582 O625 2.307 . S
Gd582 C635 2.805 . S
Gd583 N578 2.622 . S
Gd583 N584 2.570 . S
Gd583 O615 2.386 . S
Gd583 O619 2.307 . S
Gd583 O622 2.353 . S
Gd583 O623 2.468 . S
Gd583 O624 2.427 . S
Gd583 O626 2.388 . S
Gd583 C647 2.805 . S
N584 C574 1.359 . S
N584 Gd583 2.570 . S
N584 C586 1.343 . S
C585 C573 1.422 . S
C585 C587 1.321 . S
C585 H593 0.931 . S
C586 N584 1.343 . S
C586 C587 1.390 . S
C586 H588 0.931 . S
C587 C585 1.321 . S
C587 C586 1.390 . S
C587 H589 0.930 . S
H588 C586 0.931 . S
H589 C587 0.930 . S
H590 C613 0.931 . S
H591 C579 0.929 . S
H592 C614 0.930 . S
H593 C585 0.931 . S
H594 C575 0.930 . S
H595 C604 0.929 . S
H596 C580 0.931 . S
H597 C581 0.930 . S
H598 C636 0.930 . S
H599 C577 0.929 . S
H600 C605 0.931 . S
H601 C606 0.930 . S
N602 Gd582 2.622 . S
N602 C603 1.369 . S
N602 C604 1.338 . S
C603 N602 1.369 . S
C603 C607 1.415 . S
C603 C610 1.422 . S
C604 H595 0.929 . S
C604 N602 1.338 . S
C604 C606 1.378 . S
C605 H600 0.931 . S
C605 C606 1.348 . S
C605 C607 1.413 . S
C606 H601 0.930 . S
C606 C604 1.378 . S
C606 C605 1.348 . S
C607 C603 1.415 . S
C607 C605 1.413 . S
C607 C637 1.437 . S
H608 C637 0.929 . S
N609 Gd582 2.570 . S
N609 C610 1.359 . S
N609 C613 1.343 . S
C610 C603 1.422 . S
C610 N609 1.359 . S
C610 C612 1.421 . S
C611 C612 1.422 . S
C611 C614 1.321 . S
C611 H638 0.931 . S
C612 C610 1.421 . S
C612 C611 1.422 . S
C612 C636 1.417 . S
C613 H590 0.931 . S
C613 N609 1.343 . S
C613 C614 1.390 . S
C614 H592 0.930 . S
C614 C611 1.321 . S
C614 C613 1.390 . S
O615 Gd583 2.386 . S
O615 C627 1.265 . S
O616 Gd582 2.353 . S
O616 C627 1.242 . S
O617 Gd582 2.468 . S
O617 C635 1.263 . S
O618 Gd582 2.427 . S
O618 C635 1.252 . S
O619 Gd583 2.307 . S
O619 C628 1.261 . S
O620 Gd582 2.388 . S
O620 C628 1.252 . S
O621 Gd582 2.386 . S
O621 C639 1.265 . S
O622 Gd583 2.353 . S
O622 C639 1.242 . S
O623 Gd583 2.468 . S
O623 C647 1.263 . S
O624 Gd583 2.427 . S
O624 C647 1.252 . S
O625 Gd582 2.307 . S
O625 C640 1.261 . S
O626 Gd583 2.388 . S
O626 C640 1.252 . S
C627 O615 1.265 . S
C627 O616 1.242 . S
C628 O619 1.261 . S
C628 O620 1.252 . S
C629 C632 1.394 . S
C629 C634 1.370 . S
C629 C635 1.500 . S
C630 C633 1.383 . S
C630 C634 1.395 . S
C631 C632 1.396 . S
C631 C633 1.365 . S
C631 H648 0.929 . S
C632 C629 1.394 . S
C632 C631 1.396 . S
C632 H649 0.930 . S
C633 C630 1.383 . S
C633 C631 1.365 . S
C633 H650 0.931 . S
C634 C629 1.370 . S
C634 C630 1.395 . S
C634 H651 0.930 . S
C635 Gd582 2.805 . S
C635 O617 1.263 . S
C635 O618 1.252 . S
C635 C629 1.500 . S
C636 H598 0.930 . S
C636 C612 1.417 . S
C636 C637 1.329 . S
C637 C607 1.437 . S
C637 H608 0.929 . S
C637 C636 1.329 . S
H638 C611 0.931 . S
C639 O621 1.265 . S
C639 O622 1.242 . S
C640 O625 1.261 . S
C640 O626 1.252 . S
C641 C644 1.394 . S
C641 C646 1.370 . S
C641 C647 1.500 . S
C642 C645 1.383 . S
C642 C646 1.395 . S
C643 C644 1.396 . S
C643 C645 1.365 . S
C643 H652 0.929 . S
C644 C641 1.394 . S
C644 C643 1.396 . S
C644 H653 0.930 . S
C645 C642 1.383 . S
C645 C643 1.365 . S
C645 H654 0.931 . S
C646 C641 1.370 . S
C646 C642 1.395 . S
C646 H655 0.930 . S
C647 Gd583 2.805 . S
C647 O623 1.263 . S
C647 O624 1.252 . S
C647 C641 1.500 . S
H648 C631 0.929 . S
H649 C632 0.930 . S
H650 C633 0.931 . S
H651 C634 0.930 . S
H652 C643 0.929 . S
H653 C644 0.930 . S
H654 C645 0.931 . S
H655 C646 0.930 . S
C656 C657 1.363 . S
C656 C662 1.379 . S
C656 N664 1.356 . S
C657 C656 1.363 . S
C657 C663 1.363 . S
C658 C659 1.363 . S
C658 C663 1.379 . S
C658 N665 1.356 . S
C659 C658 1.363 . S
C659 C662 1.363 . S
N660 C662 1.356 . S
N660 H672 0.984 . S
N660 H673 0.985 . S
N661 C663 1.356 . S
N661 H666 1.005 . S
N661 H667 0.985 . S
C662 C656 1.379 . S
C662 C659 1.363 . S
C662 N660 1.356 . S
C663 C657 1.363 . S
C663 C658 1.379 . S
C663 N661 1.356 . S
N664 C656 1.356 . S
N664 H670 0.984 . S
N664 H671 0.984 . S
N665 C658 1.356 . S
N665 H668 0.984 . S
N665 H669 0.985 . S
H666 N661 1.005 . S
H667 N661 0.985 . S
H668 N665 0.984 . S
H669 N665 0.985 . S
H670 N664 0.984 . S
H671 N664 0.984 . S
H672 N660 0.984 . S
H673 N660 0.985 . S
C674 C675 1.363 . S
C674 C680 1.379 . S
C674 N682 1.356 . S
C675 C674 1.363 . S
C675 C681 1.363 . S
C676 C677 1.363 . S
C676 C681 1.379 . S
C676 N683 1.356 . S
C677 C676 1.363 . S
C677 C680 1.363 . S
N678 C680 1.356 . S
N678 H690 0.984 . S
N678 H691 0.985 . S
N679 C681 1.356 . S
N679 H684 0.984 . S
N679 H685 0.985 . S
C680 C674 1.379 . S
C680 C677 1.363 . S
C680 N678 1.356 . S
C681 C675 1.363 . S
C681 C676 1.379 . S
C681 N679 1.356 . S
N682 C674 1.356 . S
N682 H688 0.984 . S
N682 H689 0.984 . S
N683 C676 1.356 . S
N683 H686 0.984 . S
N683 H687 0.985 . S
H684 N679 0.984 . S
H685 N679 0.985 . S
H686 N683 0.984 . S
H687 N683 0.985 . S
H688 N682 0.984 . S
H689 N682 0.984 . S
H690 N678 0.984 . S
H691 N678 0.985 . S
C692 C693 1.363 . S
C692 C698 1.379 . S
C692 N700 1.356 . S
C693 C692 1.363 . S
C693 C699 1.363 . S
C694 C695 1.363 . S
C694 C699 1.379 . S
C694 N701 1.356 . S
C695 C694 1.363 . S
C695 C698 1.363 . S
N696 C698 1.356 . S
N696 H708 0.984 . S
N696 H709 0.985 . S
N697 C699 1.356 . S
N697 H702 0.984 . S
N697 H703 0.985 . S
C698 C692 1.379 . S
C698 C695 1.363 . S
C698 N696 1.356 . S
C699 C693 1.363 . S
C699 C694 1.379 . S
C699 N697 1.356 . S
N700 C692 1.356 . S
N700 H706 0.984 . S
N700 H707 0.984 . S
N701 C694 1.356 . S
N701 H704 0.984 . S
N701 H705 0.985 . S
H702 N697 0.984 . S
H703 N697 0.985 . S
H704 N701 0.984 . S
H705 N701 0.985 . S
H706 N700 0.984 . S
H707 N700 0.984 . S
H708 N696 0.984 . S
H709 N696 0.985 . S
C710 C711 1.363 . S
C710 C716 1.379 . S
C710 N718 1.356 . S
C711 C710 1.363 . S
C711 C717 1.363 . S
C712 C713 1.363 . S
C712 C717 1.379 . S
C712 N719 1.356 . S
C713 C712 1.363 . S
C713 C716 1.363 . S
N714 C716 1.356 . S
N714 H726 0.984 . S
N714 H727 0.985 . S
N715 C717 1.356 . S
N715 H720 0.984 1_545 S
N715 H721 0.985 1_545 S
C716 C710 1.379 . S
C716 C713 1.363 . S
C716 N714 1.356 . S
C717 C711 1.363 . S
C717 C712 1.379 . S
C717 N715 1.356 . S
N718 C710 1.356 . S
N718 H724 0.984 . S
N718 H725 0.984 . S
N719 C712 1.356 . S
N719 H722 0.984 . S
N719 H723 0.985 . S
H720 N715 0.984 1_565 S
H721 N715 0.985 1_565 S
H722 N719 0.984 . S
H723 N719 0.985 . S
H724 N718 0.984 . S
H725 N718 0.984 . S
H726 N714 0.984 . S
H727 N714 0.985 . S
C728 C729 1.363 . S
C728 C734 1.379 . S
C728 N736 1.356 . S
C729 C728 1.363 . S
C729 C735 1.363 . S
C730 C731 1.363 . S
C730 C735 1.379 . S
C730 N737 1.356 . S
C731 C730 1.363 . S
C731 C734 1.363 . S
N732 C734 1.356 . S
N732 H744 0.984 . S
N732 H745 0.985 . S
N733 C735 1.356 1_545 S
N733 H738 0.984 . S
N733 H739 0.985 . S
C734 C728 1.379 . S
C734 C731 1.363 . S
C734 N732 1.356 . S
C735 C729 1.363 . S
C735 C730 1.379 . S
C735 N733 1.356 1_565 S
N736 C728 1.356 . S
N736 H742 0.984 . S
N736 H743 0.984 . S
N737 C730 1.356 . S
N737 H740 0.984 . S
N737 H741 0.985 . S
H738 N733 0.984 . S
H739 N733 0.985 . S
H740 N737 0.984 . S
H741 N737 0.985 . S
H742 N736 0.984 . S
H743 N736 0.984 . S
H744 N732 0.984 . S
H745 N732 0.985 . S
C746 C747 1.363 . S
C746 C752 1.379 . S
C746 N754 1.356 . S
C747 C746 1.363 . S
C747 C753 1.363 . S
C748 C749 1.363 . S
C748 C753 1.379 . S
C748 N755 1.356 . S
C749 C748 1.363 . S
C749 C752 1.363 . S
N750 C752 1.356 . S
N750 H762 0.984 . S
N750 H763 0.985 . S
N751 C753 1.356 . S
N751 H756 0.984 . S
N751 H757 0.985 . S
C752 C746 1.379 . S
C752 C749 1.363 . S
C752 N750 1.356 . S
C753 C747 1.363 . S
C753 C748 1.379 . S
C753 N751 1.356 . S
N754 C746 1.356 . S
N754 H760 0.984 . S
N754 H761 0.984 . S
N755 C748 1.356 . S
N755 H758 0.984 . S
N755 H759 0.985 . S
H756 N751 0.984 . S
H757 N751 0.985 . S
H758 N755 0.984 . S
H759 N755 0.985 . S
H760 N754 0.984 . S
H761 N754 0.984 . S
H762 N750 0.984 . S
H763 N750 0.985 . S
C764 C765 1.363 . S
C764 C770 1.379 . S
C764 N772 1.356 . S
C765 C764 1.363 . S
C765 C771 1.363 . S
C766 C767 1.363 . S
C766 C771 1.379 . S
C766 N773 1.356 . S
C767 C766 1.363 . S
C767 C770 1.363 . S
N768 C770 1.356 . S
N768 H780 0.984 . S
N768 H781 0.985 . S
N769 C771 1.356 . S
N769 H774 0.984 . S
N769 H775 0.985 . S
C770 C764 1.379 . S
C770 C767 1.363 . S
C770 N768 1.356 . S
C771 C765 1.363 . S
C771 C766 1.379 . S
C771 N769 1.356 . S
N772 C764 1.356 . S
N772 H778 0.984 . S
N772 H779 0.984 . S
N773 C766 1.356 . S
N773 H776 0.984 . S
N773 H777 0.985 . S
H774 N769 0.984 . S
H775 N769 0.985 . S
H776 N773 0.984 . S
H777 N773 0.985 . S
H778 N772 0.984 . S
H779 N772 0.984 . S
H780 N768 0.984 . S
H781 N768 0.985 . S
C782 C783 1.363 . S
C782 C788 1.379 . S
C782 N790 1.356 1_565 S
C783 C782 1.363 . S
C783 C789 1.363 . S
C784 C785 1.363 . S
C784 C789 1.379 . S
C784 N791 1.356 . S
C785 C784 1.363 . S
C785 C788 1.363 . S
N786 C788 1.356 . S
N786 H798 0.984 . S
N786 H799 0.985 . S
N787 C789 1.356 . S
N787 H792 0.984 . S
N787 H793 0.985 . S
C788 C782 1.379 . S
C788 C785 1.363 . S
C788 N786 1.356 . S
C789 C783 1.363 . S
C789 C784 1.379 . S
C789 N787 1.356 . S
N790 C782 1.356 1_545 S
N790 H796 0.984 . S
N790 H797 0.984 . S
N791 C784 1.356 . S
N791 H794 0.984 . S
N791 H795 0.985 . S
H792 N787 0.984 . S
H793 N787 0.985 . S
H794 N791 0.984 . S
H795 N791 0.985 . S
H796 N790 0.984 . S
H797 N790 0.984 . S
H798 N786 0.984 . S
H799 N786 0.985 . S
C800 C801 1.363 . S
C800 C806 1.379 . S
C800 N808 1.356 . S
C801 C800 1.363 . S
C801 C807 1.363 . S
C802 C803 1.363 . S
C802 C807 1.379 . S
C802 N809 1.356 . S
C803 C802 1.363 . S
C803 C806 1.363 . S
N804 C806 1.356 . S
N804 H816 0.984 . S
N804 H817 0.985 . S
N805 C807 1.356 . S
N805 H810 0.984 . S
N805 H811 0.985 . S
C806 C800 1.379 . S
C806 C803 1.363 . S
C806 N804 1.356 . S
C807 C801 1.363 . S
C807 C802 1.379 . S
C807 N805 1.356 . S
N808 C800 1.356 . S
N808 H814 0.984 . S
N808 H815 0.984 . S
N809 C802 1.356 . S
N809 H812 0.984 . S
N809 H813 0.985 . S
H810 N805 0.984 . S
H811 N805 0.985 . S
H812 N809 0.984 . S
H813 N809 0.985 . S
H814 N808 0.984 . S
H815 N808 0.984 . S
H816 N804 0.984 . S
H817 N804 0.985 . S
C818 C819 1.363 . S
C818 C824 1.379 . S
C818 N826 1.356 . S
C819 C818 1.363 . S
C819 C825 1.363 . S
C820 C821 1.363 . S
C820 C825 1.379 . S
C820 N827 1.356 . S
C821 C820 1.363 . S
C821 C824 1.363 . S
N822 C824 1.356 . S
N822 H834 0.984 . S
N822 H835 0.985 . S
N823 C825 1.356 . S
N823 H828 0.984 . S
N823 H829 0.985 . S
C824 C818 1.379 . S
C824 C821 1.363 . S
C824 N822 1.356 . S
C825 C819 1.363 . S
C825 C820 1.379 . S
C825 N823 1.356 . S
N826 C818 1.356 . S
N826 H832 0.984 . S
N826 H833 0.984 . S
N827 C820 1.356 . S
N827 H830 0.984 . S
N827 H831 0.985 . S
H828 N823 0.984 . S
H829 N823 0.985 . S
H830 N827 0.984 . S
H831 N827 0.985 . S
H832 N826 0.984 . S
H833 N826 0.984 . S
H834 N822 0.984 . S
H835 N822 0.985 . S
C836 C837 1.363 . S
C836 C842 1.379 . S
C836 N844 1.356 . S
C837 C836 1.363 . S
C837 C843 1.363 . S
C838 C839 1.363 . S
C838 C843 1.379 . S
C838 N845 1.356 . S
C839 C838 1.363 . S
C839 C842 1.363 . S
N840 C842 1.356 . S
N840 H852 0.984 . S
N840 H853 0.985 . S
N841 C843 1.356 . S
N841 H846 0.984 . S
N841 H847 0.985 . S
C842 C836 1.379 . S
C842 C839 1.363 . S
C842 N840 1.356 . S
C843 C837 1.363 . S
C843 C838 1.379 . S
C843 N841 1.356 . S
N844 C836 1.356 . S
N844 H850 0.984 . S
N844 H851 0.984 . S
N845 C838 1.356 . S
N845 H848 0.984 . S
N845 H849 0.985 . S
H846 N841 0.984 . S
H847 N841 0.985 . S
H848 N845 0.984 . S
H849 N845 0.985 . S
H850 N844 0.984 . S
H851 N844 0.984 . S
H852 N840 0.984 . S
H853 N840 0.985 . S
C854 C855 1.363 . S
C854 C860 1.379 . S
C854 N862 1.356 . S
C855 C854 1.363 . S
C855 C861 1.363 . S
C856 C857 1.363 . S
C856 C861 1.379 . S
C856 N863 1.356 . S
C857 C856 1.363 . S
C857 C860 1.363 . S
N858 C860 1.356 . S
N858 H870 0.984 . S
N858 H871 0.985 . S
N859 C861 1.356 . S
N859 H864 0.984 . S
N859 H865 0.985 . S
C860 C854 1.379 . S
C860 C857 1.363 . S
C860 N858 1.356 . S
C861 C855 1.363 . S
C861 C856 1.379 . S
C861 N859 1.356 . S
N862 C854 1.356 . S
N862 H868 0.984 . S
N862 H869 0.984 . S
N863 C856 1.356 . S
N863 H866 0.984 . S
N863 H867 0.985 . S
H864 N859 0.984 . S
H865 N859 0.985 . S
H866 N863 0.984 . S
H867 N863 0.985 . S
H868 N862 0.984 . S
H869 N862 0.984 . S
H870 N858 0.984 . S
H871 N858 0.985 . S
C872 C873 1.363 . S
C872 C878 1.379 . S
C872 N880 1.356 . S
C873 C872 1.363 . S
C873 C879 1.363 . S
C874 C875 1.363 . S
C874 C879 1.379 . S
C874 N881 1.356 . S
C875 C874 1.363 . S
C875 C878 1.363 . S
N876 C878 1.356 . S
N876 H888 0.984 . S
N876 H889 0.985 . S
N877 C879 1.356 . S
N877 H882 0.984 . S
N877 H883 0.985 . S
C878 C872 1.379 . S
C878 C875 1.363 . S
C878 N876 1.356 . S
C879 C873 1.363 . S
C879 C874 1.379 . S
C879 N877 1.356 . S
N880 C872 1.356 . S
N880 H886 0.984 . S
N880 H887 0.984 . S
N881 C874 1.356 . S
N881 H884 0.984 . S
N881 H885 0.985 . S
H882 N877 0.984 . S
H883 N877 0.985 . S
H884 N881 0.984 . S
H885 N881 0.985 . S
H886 N880 0.984 . S
H887 N880 0.984 . S
H888 N876 0.984 . S
H889 N876 0.985 . S
C890 C891 1.363 . S
C890 C896 1.379 . S
C890 N898 1.356 . S
C891 C890 1.363 . S
C891 C897 1.363 . S
C892 C893 1.363 . S
C892 C897 1.379 . S
C892 N899 1.356 . S
C893 C892 1.363 . S
C893 C896 1.363 . S
N894 C896 1.356 . S
N894 H906 0.984 . S
N894 H907 0.985 . S
N895 C897 1.356 . S
N895 H900 0.984 . S
N895 H901 0.985 . S
C896 C890 1.379 . S
C896 C893 1.363 . S
C896 N894 1.356 . S
C897 C891 1.363 . S
C897 C892 1.379 . S
C897 N895 1.356 . S
N898 C890 1.356 . S
N898 H904 0.984 . S
N898 H905 0.984 . S
N899 C892 1.356 . S
N899 H902 0.984 . S
N899 H903 0.985 . S
H900 N895 0.984 . S
H901 N895 0.985 . S
H902 N899 0.984 . S
H903 N899 0.985 . S
H904 N898 0.984 . S
H905 N898 0.984 . S
H906 N894 0.984 . S
H907 N894 0.985 . S
C908 C909 1.363 . S
C908 C914 1.379 . S
C908 N916 1.356 . S
C909 C908 1.363 . S
C909 C915 1.363 . S
C910 C911 1.363 . S
C910 C915 1.379 . S
C910 N917 1.356 . S
C911 C910 1.363 . S
C911 C914 1.363 . S
N912 C914 1.356 . S
N912 H924 0.984 . S
N912 H925 0.985 . S
N913 C915 1.356 . S
N913 H918 0.984 . S
N913 H919 0.985 . S
C914 C908 1.379 . S
C914 C911 1.363 . S
C914 N912 1.356 . S
C915 C909 1.363 . S
C915 C910 1.379 . S
C915 N913 1.356 . S
N916 C908 1.356 . S
N916 H922 0.984 . S
N916 H923 0.984 . S
N917 C910 1.356 . S
N917 H920 0.984 . S
N917 H921 0.985 . S
H918 N913 0.984 . S
H919 N913 0.985 . S
H920 N917 0.984 . S
H921 N917 0.985 . S
H922 N916 0.984 . S
H923 N916 0.984 . S
H924 N912 0.984 . S
H925 N912 0.985 . S
C926 C927 1.363 . S
C926 C932 1.379 . S
C926 N934 1.356 . S
C927 C926 1.363 . S
C927 C933 1.363 . S
C928 C929 1.363 . S
C928 C933 1.379 . S
C928 N935 1.356 . S
C929 C928 1.363 . S
C929 C932 1.363 . S
N930 C932 1.356 . S
N930 H942 0.984 . S
N930 H943 0.985 . S
N931 C933 1.356 . S
N931 H936 0.984 . S
N931 H937 0.985 . S
C932 C926 1.379 . S
C932 C929 1.363 . S
C932 N930 1.356 . S
C933 C927 1.363 . S
C933 C928 1.379 . S
C933 N931 1.356 . S
N934 C926 1.356 . S
N934 H940 0.984 . S
N934 H941 0.984 . S
N935 C928 1.356 . S
N935 H938 0.984 . S
N935 H939 0.985 . S
H936 N931 0.984 . S
H937 N931 0.985 . S
H938 N935 0.984 . S
H939 N935 0.985 . S
H940 N934 0.984 . S
H941 N934 0.984 . S
H942 N930 0.984 . S
H943 N930 0.985 . S
C944 C945 1.363 . S
C944 C950 1.379 . S
C944 N952 1.356 . S
C945 C944 1.363 . S
C945 C951 1.363 . S
C946 C947 1.363 . S
C946 C951 1.379 . S
C946 N953 1.356 . S
C947 C946 1.363 . S
C947 C950 1.363 . S
N948 C950 1.356 . S
N948 H960 0.984 . S
N948 H961 0.985 . S
N949 C951 1.356 . S
N949 H954 0.984 . S
N949 H955 0.985 . S
C950 C944 1.379 . S
C950 C947 1.363 . S
C950 N948 1.356 . S
C951 C945 1.363 . S
C951 C946 1.379 . S
C951 N949 1.356 . S
N952 C944 1.356 . S
N952 H958 0.984 . S
N952 H959 0.984 . S
N953 C946 1.356 . S
N953 H956 0.984 . S
N953 H957 0.985 . S
H954 N949 0.984 . S
H955 N949 0.985 . S
H956 N953 0.984 . S
H957 N953 0.985 . S
H958 N952 0.984 . S
H959 N952 0.984 . S
H960 N948 0.984 . S
H961 N948 0.985 . S
C962 C963 1.363 . S
C962 C968 1.379 . S
C962 N970 1.356 . S
C963 C962 1.363 . S
C963 C969 1.363 . S
C964 C965 1.363 . S
C964 C969 1.379 . S
C964 N971 1.356 . S
C965 C964 1.363 . S
C965 C968 1.363 . S
N966 C968 1.356 . S
N966 H978 0.984 . S
N966 H979 0.985 . S
N967 C969 1.356 . S
N967 H972 0.984 . S
N967 H973 0.985 . S
C968 C962 1.379 . S
C968 C965 1.363 . S
C968 N966 1.356 . S
C969 C963 1.363 . S
C969 C964 1.379 . S
C969 N967 1.356 . S
N970 C962 1.356 . S
N970 H976 0.984 . S
N970 H977 0.984 . S
N971 C964 1.356 . S
N971 H974 0.984 . S
N971 H975 0.985 . S
H972 N967 0.984 . S
H973 N967 0.985 . S
H974 N971 0.984 . S
H975 N971 0.985 . S
H976 N970 0.984 . S
H977 N970 0.984 . S
H978 N966 0.984 . S
H979 N966 0.985 . S
C980 C981 1.363 . S
C980 C986 1.379 . S
C980 N988 1.356 . S
C981 C980 1.363 . S
C981 C987 1.363 . S
C982 C983 1.363 . S
C982 C987 1.379 . S
C982 N989 1.356 . S
C983 C982 1.363 . S
C983 C986 1.363 . S
N984 C986 1.356 . S
N984 H996 0.984 . S
N984 H997 0.985 . S
N985 C987 1.356 . S
N985 H990 0.984 . S
N985 H991 0.985 . S
C986 C980 1.379 . S
C986 C983 1.363 . S
C986 N984 1.356 . S
C987 C981 1.363 . S
C987 C982 1.379 . S
C987 N985 1.356 . S
N988 C980 1.356 . S
N988 H994 0.984 . S
N988 H995 0.984 . S
N989 C982 1.356 . S
N989 H992 0.984 . S
N989 H993 0.985 . S
H990 N985 0.984 . S
H991 N985 0.985 . S
H992 N989 0.984 . S
H993 N989 0.985 . S
H994 N988 0.984 . S
H995 N988 0.984 . S
H996 N984 0.984 . S
H997 N984 0.985 . S
C998 C999 1.363 . S
C998 C1004 1.379 . S
C998 N1006 1.356 . S
C999 C998 1.363 . S
C999 C1005 1.363 . S
C1000 C1001 1.363 . S
C1000 C1005 1.379 . S
C1000 N1007 1.355 . S
C1001 C1000 1.363 . S
C1001 C1004 1.363 . S
N1002 C1004 1.356 . S
N1002 H1014 0.984 . S
N1002 H1015 0.985 . S
N1003 C1005 1.356 . S
N1003 H1008 0.984 . S
N1003 H1009 0.985 . S
C1004 C998 1.379 . S
C1004 C1001 1.363 . S
C1004 N1002 1.356 . S
C1005 C999 1.363 . S
C1005 C1000 1.379 . S
C1005 N1003 1.356 . S
N1006 C998 1.356 . S
N1006 H1012 0.984 . S
N1006 H1013 0.984 . S
N1007 C1000 1.355 . S
N1007 H1010 0.985 1_655 S
N1007 H1011 0.985 1_655 S
H1008 N1003 0.984 . S
H1009 N1003 0.985 . S
H1010 N1007 0.985 1_455 S
H1011 N1007 0.985 1_455 S
H1012 N1006 0.984 . S
H1013 N1006 0.984 . S
H1014 N1002 0.984 . S
H1015 N1002 0.985 . S
C1016 C1017 1.363 . S
C1016 C1022 1.379 . S
C1016 N1024 1.356 . S
C1017 C1016 1.363 . S
C1017 C1023 1.363 . S
C1018 C1019 1.363 . S
C1018 C1023 1.379 . S
C1018 N1025 1.356 . S
C1019 C1018 1.363 . S
C1019 C1022 1.363 . S
N1020 C1022 1.356 1_455 S
N1020 H1032 0.984 . S
N1020 H1033 0.985 . S
N1021 C1023 1.356 . S
N1021 H1026 0.984 . S
N1021 H1027 0.985 . S
C1022 C1016 1.379 . S
C1022 C1019 1.363 . S
C1022 N1020 1.356 1_655 S
C1023 C1017 1.363 . S
C1023 C1018 1.379 . S
C1023 N1021 1.356 . S
N1024 C1016 1.356 . S
N1024 H1030 0.984 1_655 S
N1024 H1031 0.984 . S
N1025 C1018 1.356 . S
N1025 H1028 0.984 . S
N1025 H1029 0.985 . S
H1026 N1021 0.984 . S
H1027 N1021 0.985 . S
H1028 N1025 0.984 . S
H1029 N1025 0.985 . S
H1030 N1024 0.984 1_455 S
H1031 N1024 0.984 . S
H1032 N1020 0.984 . S
H1033 N1020 0.985 . S
C1034 C1035 1.363 . S
C1034 C1040 1.379 . S
C1034 N1042 1.356 . S
C1035 C1034 1.363 . S
C1035 C1041 1.363 . S
C1036 C1037 1.363 . S
C1036 C1041 1.379 . S
C1036 N1043 1.356 . S
C1037 C1036 1.363 . S
C1037 C1040 1.363 . S
N1038 C1040 1.356 . S
N1038 H1050 0.984 . S
N1038 H1051 0.985 . S
N1039 C1041 1.356 . S
N1039 H1044 0.984 . S
N1039 H1045 0.985 . S
C1040 C1034 1.379 . S
C1040 C1037 1.363 . S
C1040 N1038 1.356 . S
C1041 C1035 1.363 . S
C1041 C1036 1.379 . S
C1041 N1039 1.356 . S
N1042 C1034 1.356 . S
N1042 H1048 0.984 . S
N1042 H1049 0.984 . S
N1043 C1036 1.356 . S
N1043 H1046 0.984 . S
N1043 H1047 0.985 . S
H1044 N1039 0.984 . S
H1045 N1039 0.985 . S
H1046 N1043 0.984 . S
H1047 N1043 0.985 . S
H1048 N1042 0.984 . S
H1049 N1042 0.984 . S
H1050 N1038 0.984 . S
H1051 N1038 0.985 . S
C1052 C1053 1.363 . S
C1052 C1058 1.379 . S
C1052 N1060 1.356 . S
C1053 C1052 1.363 . S
C1053 C1059 1.363 . S
C1054 C1055 1.363 . S
C1054 C1059 1.379 . S
C1054 N1061 1.356 . S
C1055 C1054 1.363 . S
C1055 C1058 1.363 . S
N1056 C1058 1.356 . S
N1056 H1068 0.984 . S
N1056 H1069 0.985 . S
N1057 C1059 1.356 . S
N1057 H1062 0.984 . S
N1057 H1063 0.985 . S
C1058 C1052 1.379 . S
C1058 C1055 1.363 . S
C1058 N1056 1.356 . S
C1059 C1053 1.363 . S
C1059 C1054 1.379 . S
C1059 N1057 1.356 . S
N1060 C1052 1.356 . S
N1060 H1066 0.984 . S
N1060 H1067 0.984 . S
N1061 C1054 1.356 . S
N1061 H1064 0.984 . S
N1061 H1065 0.985 . S
H1062 N1057 0.984 . S
H1063 N1057 0.985 . S
H1064 N1061 0.984 . S
H1065 N1061 0.985 . S
H1066 N1060 0.984 . S
H1067 N1060 0.984 . S
H1068 N1056 0.984 . S
H1069 N1056 0.985 . S
C1070 C1071 1.363 . S
C1070 C1076 1.379 . S
C1070 N1078 1.356 . S
C1071 C1070 1.363 . S
C1071 C1077 1.363 . S
C1072 C1073 1.363 . S
C1072 C1077 1.379 . S
C1072 N1079 1.356 . S
C1073 C1072 1.363 . S
C1073 C1076 1.363 . S
N1074 C1076 1.356 . S
N1074 H1086 0.984 . S
N1074 H1087 0.985 . S
N1075 C1077 1.356 . S
N1075 H1080 0.984 . S
N1075 H1081 0.985 . S
C1076 C1070 1.379 . S
C1076 C1073 1.363 . S
C1076 N1074 1.356 . S
C1077 C1071 1.363 . S
C1077 C1072 1.379 . S
C1077 N1075 1.356 . S
N1078 C1070 1.356 . S
N1078 H1084 0.984 . S
N1078 H1085 0.984 . S
N1079 C1072 1.356 . S
N1079 H1082 0.984 . S
N1079 H1083 0.985 1_455 S
H1080 N1075 0.984 . S
H1081 N1075 0.985 . S
H1082 N1079 0.984 . S
H1083 N1079 0.985 1_655 S
H1084 N1078 0.984 . S
H1085 N1078 0.984 . S
H1086 N1074 0.984 . S
H1087 N1074 0.985 . S
C657 C242 1.467 . S
C659 C376 1.498 . S
C677 C460 1.490 . S
C675 C301 1.505 . S
C695 C459 1.504 . S
C693 C162 1.463 . S
C711 C221 1.507 . S
C713 C375 1.497 . S
C731 C556 1.498 . S
C729 C82 1.505 . S
C749 C640 1.490 . S
C747 C141 1.473 . S
C765 C2 1.508 . S
C767 C639 1.504 . S
C783 C61 1.466 . S
C785 C555 1.497 . S
C803 C378 1.320 . S
C801 C42 1.497 . S
C821 C462 1.319 . S
C819 C21 1.548 . S
C839 C474 1.398 . S
C837 C122 1.514 . S
C857 C390 1.400 . S
C855 C101 1.558 . S
C875 C558 1.320 . S
C873 C202 1.540 . S
C891 C181 1.496 . S
C893 C642 1.319 . S
C911 C630 1.398 . S
C909 C282 1.549 . S
C927 C261 1.515 . S
C929 C546 1.400 . S
C947 C387 1.620 . S
C945 C15 1.605 . S
C965 C471 1.601 . S
C963 C55 1.588 . S
C981 C95 1.587 . S
C983 C472 1.602 . S
C1001 C388 1.584 . S
C999 C135 1.572 . S
C1019 C543 1.620 . S
C1017 C175 1.601 . S
C1035 C215 1.592 . S
C1037 C627 1.601 . S
C1053 C255 1.584 . S
C1055 C628 1.602 . S
C1071 C295 1.576 . S
C1073 C544 1.584 . S
