# Generated by pormake.
# Topology ocu, (6,8)-cn, num edge types: 1
# Building blocks:
#     Node 0, Type 0, BuildingBlock: FUNLAD_clean_sbu_0, # of connection points: 6
#     Node 1, Type 0, BuildingBlock: FUNLAD_clean_sbu_0, # of connection points: 6
#     Node 2, Type 0, BuildingBlock: FUNLAD_clean_sbu_0, # of connection points: 6
#     Node 3, Type 0, BuildingBlock: FUNLAD_clean_sbu_0, # of connection points: 6
#     Node 4, Type 0, BuildingBlock: FUNLAD_clean_sbu_0, # of connection points: 6
#     Node 5, Type 0, BuildingBlock: FUNLAD_clean_sbu_0, # of connection points: 6
#     Node 6, Type 0, BuildingBlock: FUNLAD_clean_sbu_0, # of connection points: 6
#     Node 7, Type 0, BuildingBlock: FUNLAD_clean_sbu_0, # of connection points: 6
#     Node 8, Type 1, BuildingBlock: TAGTUT_clean_sbu_1, # of connection points: 8
#     Node 9, Type 1, BuildingBlock: TAGTUT_clean_sbu_1, # of connection points: 8
#     Node 10, Type 1, BuildingBlock: TAGTUT_clean_sbu_1, # of connection points: 8
#     Node 11, Type 1, BuildingBlock: TAGTUT_clean_sbu_1, # of connection points: 8
#     Node 12, Type 1, BuildingBlock: TAGTUT_clean_sbu_1, # of connection points: 8
#     Node 13, Type 1, BuildingBlock: TAGTUT_clean_sbu_1, # of connection points: 8
#     Edge 14, Type (0, 1), BuildingBlock: ZUJKAS_clean_linker_0, # of connection points: 2
#     Edge 15, Type (0, 1), BuildingBlock: ZUJKAS_clean_linker_0, # of connection points: 2
#     Edge 16, Type (0, 1), BuildingBlock: ZUJKAS_clean_linker_0, # of connection points: 2
#     Edge 17, Type (0, 1), BuildingBlock: ZUJKAS_clean_linker_0, # of connection points: 2
#     Edge 18, Type (0, 1), BuildingBlock: ZUJKAS_clean_linker_0, # of connection points: 2
#     Edge 19, Type (0, 1), BuildingBlock: ZUJKAS_clean_linker_0, # of connection points: 2
#     Edge 20, Type (0, 1), BuildingBlock: ZUJKAS_clean_linker_0, # of connection points: 2
#     Edge 21, Type (0, 1), BuildingBlock: ZUJKAS_clean_linker_0, # of connection points: 2
#     Edge 22, Type (0, 1), BuildingBlock: ZUJKAS_clean_linker_0, # of connection points: 2
#     Edge 23, Type (0, 1), BuildingBlock: ZUJKAS_clean_linker_0, # of connection points: 2
#     Edge 24, Type (0, 1), BuildingBlock: ZUJKAS_clean_linker_0, # of connection points: 2
#     Edge 25, Type (0, 1), BuildingBlock: ZUJKAS_clean_linker_0, # of connection points: 2
#     Edge 26, Type (0, 1), BuildingBlock: ZUJKAS_clean_linker_0, # of connection points: 2
#     Edge 27, Type (0, 1), BuildingBlock: ZUJKAS_clean_linker_0, # of connection points: 2
#     Edge 28, Type (0, 1), BuildingBlock: ZUJKAS_clean_linker_0, # of connection points: 2
#     Edge 29, Type (0, 1), BuildingBlock: ZUJKAS_clean_linker_0, # of connection points: 2
#     Edge 30, Type (0, 1), BuildingBlock: ZUJKAS_clean_linker_0, # of connection points: 2
#     Edge 31, Type (0, 1), BuildingBlock: ZUJKAS_clean_linker_0, # of connection points: 2
#     Edge 32, Type (0, 1), BuildingBlock: ZUJKAS_clean_linker_0, # of connection points: 2
#     Edge 33, Type (0, 1), BuildingBlock: ZUJKAS_clean_linker_0, # of connection points: 2
#     Edge 34, Type (0, 1), BuildingBlock: ZUJKAS_clean_linker_0, # of connection points: 2
#     Edge 35, Type (0, 1), BuildingBlock: ZUJKAS_clean_linker_0, # of connection points: 2
#     Edge 36, Type (0, 1), BuildingBlock: ZUJKAS_clean_linker_0, # of connection points: 2
#     Edge 37, Type (0, 1), BuildingBlock: ZUJKAS_clean_linker_0, # of connection points: 2
#     Edge 38, Type (0, 1), BuildingBlock: ZUJKAS_clean_linker_0, # of connection points: 2
#     Edge 39, Type (0, 1), BuildingBlock: ZUJKAS_clean_linker_0, # of connection points: 2
#     Edge 40, Type (0, 1), BuildingBlock: ZUJKAS_clean_linker_0, # of connection points: 2
#     Edge 41, Type (0, 1), BuildingBlock: ZUJKAS_clean_linker_0, # of connection points: 2
#     Edge 42, Type (0, 1), BuildingBlock: ZUJKAS_clean_linker_0, # of connection points: 2
#     Edge 43, Type (0, 1), BuildingBlock: ZUJKAS_clean_linker_0, # of connection points: 2
#     Edge 44, Type (0, 1), BuildingBlock: ZUJKAS_clean_linker_0, # of connection points: 2
#     Edge 45, Type (0, 1), BuildingBlock: ZUJKAS_clean_linker_0, # of connection points: 2
#     Edge 46, Type (0, 1), BuildingBlock: ZUJKAS_clean_linker_0, # of connection points: 2
#     Edge 47, Type (0, 1), BuildingBlock: ZUJKAS_clean_linker_0, # of connection points: 2
#     Edge 48, Type (0, 1), BuildingBlock: ZUJKAS_clean_linker_0, # of connection points: 2
#     Edge 49, Type (0, 1), BuildingBlock: ZUJKAS_clean_linker_0, # of connection points: 2
#     Edge 50, Type (0, 1), BuildingBlock: ZUJKAS_clean_linker_0, # of connection points: 2
#     Edge 51, Type (0, 1), BuildingBlock: ZUJKAS_clean_linker_0, # of connection points: 2
#     Edge 52, Type (0, 1), BuildingBlock: ZUJKAS_clean_linker_0, # of connection points: 2
#     Edge 53, Type (0, 1), BuildingBlock: ZUJKAS_clean_linker_0, # of connection points: 2
#     Edge 54, Type (0, 1), BuildingBlock: ZUJKAS_clean_linker_0, # of connection points: 2
#     Edge 55, Type (0, 1), BuildingBlock: ZUJKAS_clean_linker_0, # of connection points: 2
#     Edge 56, Type (0, 1), BuildingBlock: ZUJKAS_clean_linker_0, # of connection points: 2
#     Edge 57, Type (0, 1), BuildingBlock: ZUJKAS_clean_linker_0, # of connection points: 2
#     Edge 58, Type (0, 1), BuildingBlock: ZUJKAS_clean_linker_0, # of connection points: 2
#     Edge 59, Type (0, 1), BuildingBlock: ZUJKAS_clean_linker_0, # of connection points: 2
#     Edge 60, Type (0, 1), BuildingBlock: ZUJKAS_clean_linker_0, # of connection points: 2
#     Edge 61, Type (0, 1), BuildingBlock: ZUJKAS_clean_linker_0, # of connection points: 2
# Relax obj value: 0.188
# Max RMSD: 0.254
# Mean RMSD: 0.200
data_MOF--net-ocu--node1-FUNLAD_clean_sbu_0--node2-TAGTUT_clean_sbu_1--edge1-ZUJKAS_clean_linker_0
_symmetry_space_group_name_H-M    P1
_symmetry_Int_Tables_number       1
_symmetry_cell_setting            triclinic
loop_
_symmetry_equiv_pos_as_xyz
'x, y, z'
_cell_length_a     49.220479
_cell_length_b     46.384858
_cell_length_c     51.068022
_cell_angle_alpha  86.737401
_cell_angle_beta   88.600624
_cell_angle_gamma 92.725187
loop_
_atom_site_label
_atom_site_type_symbol
_atom_site_fract_x
_atom_site_fract_y
_atom_site_fract_z
_atom_type_partial_charge
C0 C 0.22954 0.26423 0.29289 0.0
N1 N 0.20405 0.19654 0.24715 0.0
C2 C 0.19951 0.17976 0.26965 0.0
C3 C 0.1765 0.16112 0.27258 0.0
C4 C 0.15777 0.16007 0.2523 0.0
C5 C 0.16353 0.17659 0.22882 0.0
C6 C 0.18712 0.19462 0.22654 0.0
Zn7 Zn 0.23414 0.22819 0.2464 0.0
C8 C 0.21481 0.28309 0.22029 0.0
N9 N 0.29488 0.29641 0.24492 0.0
C10 C 0.31096 0.29841 0.26614 0.0
C11 C 0.30016 0.31322 0.22256 0.0
C12 C 0.32314 0.33201 0.22047 0.0
C13 C 0.34097 0.33321 0.24149 0.0
C14 C 0.33441 0.31662 0.26476 0.0
Zn15 Zn 0.26481 0.26482 0.24532 0.0
O16 O 0.21886 0.24223 0.28263 0.0
C17 C 0.28435 0.21013 0.27141 0.0
O18 O 0.24992 0.27779 0.28147 0.0
H19 H 0.28724 0.31108 0.20589 0.0
H20 H 0.213 0.18191 0.28589 0.0
H21 H 0.30627 0.28492 0.2838 0.0
O22 O 0.26067 0.20001 0.26656 0.0
O23 O 0.29089 0.23633 0.26464 0.0
H24 H 0.1912 0.20808 0.20877 0.0
O25 O 0.27956 0.25137 0.20889 0.0
O26 O 0.24953 0.21477 0.21036 0.0
O27 O 0.23829 0.29314 0.22587 0.0
O28 O 0.20823 0.25671 0.22636 0.0
C29 C 0.26945 0.22901 0.19874 0.0
H30 H 0.17251 0.1491 0.2912 0.0
H31 H 0.14949 0.17632 0.21282 0.0
H32 H 0.32776 0.34412 0.20201 0.0
H33 H 0.34771 0.31703 0.28134 0.0
C34 C 0.71134 0.28249 0.2287 0.0
N35 N 0.74467 0.20354 0.21304 0.0
C36 C 0.71866 0.19591 0.20707 0.0
C37 C 0.71338 0.17504 0.18919 0.0
C38 C 0.73502 0.16155 0.17729 0.0
C39 C 0.76179 0.16997 0.18351 0.0
C40 C 0.76618 0.19114 0.20167 0.0
Zn41 Zn 0.74911 0.23381 0.2402 0.0
C42 C 0.79099 0.28035 0.22498 0.0
N43 N 0.75408 0.29667 0.29759 0.0
C44 C 0.73245 0.3097 0.3081 0.0
C45 C 0.7798 0.30238 0.30569 0.0
C46 C 0.78449 0.32104 0.32561 0.0
C47 C 0.76261 0.33439 0.3371 0.0
C48 C 0.73633 0.32906 0.32792 0.0
Zn49 Zn 0.74979 0.26681 0.26997 0.0
O50 O 0.71957 0.25882 0.22083 0.0
C51 C 0.70803 0.22015 0.28536 0.0
O52 O 0.72086 0.29208 0.24963 0.0
H53 H 0.79677 0.29215 0.29689 0.0
H54 H 0.70184 0.20605 0.21622 0.0
H55 H 0.71218 0.30484 0.30133 0.0
O56 O 0.71768 0.21086 0.26426 0.0
O57 O 0.71753 0.24419 0.29294 0.0
H58 H 0.78671 0.19757 0.20675 0.0
O59 O 0.77848 0.241 0.28987 0.0
O60 O 0.77882 0.20922 0.25977 0.0
O61 O 0.78227 0.28902 0.24672 0.0
O62 O 0.78044 0.25716 0.21659 0.0
C63 C 0.78751 0.21801 0.2813 0.0
H64 H 0.69245 0.16984 0.18447 0.0
H65 H 0.77903 0.16012 0.17472 0.0
H66 H 0.80509 0.32505 0.332 0.0
H67 H 0.71905 0.33917 0.33638 0.0
C68 C 0.78712 0.71827 0.27627 0.0
N69 N 0.79204 0.80677 0.25388 0.0
C70 C 0.80506 0.8057 0.2771 0.0
C71 C 0.81967 0.82977 0.28512 0.0
C72 C 0.82029 0.8556 0.26961 0.0
C73 C 0.8072 0.85642 0.24554 0.0
C74 C 0.79331 0.83133 0.23779 0.0
Zn75 Zn 0.76633 0.7718 0.2481 0.0
C76 C 0.77746 0.73975 0.2034 0.0
N77 N 0.71183 0.69862 0.2448 0.0
C78 C 0.7085 0.67495 0.26189 0.0
C79 C 0.70246 0.69817 0.21998 0.0
C80 C 0.6905 0.67314 0.21102 0.0
C81 C 0.68837 0.64798 0.2275 0.0
C82 C 0.69654 0.64906 0.25356 0.0
Zn83 Zn 0.73675 0.73398 0.2508 0.0
O84 O 0.79378 0.74376 0.26728 0.0
C85 C 0.72575 0.76584 0.2956 0.0
O86 O 0.76315 0.70792 0.27314 0.0
H87 H 0.70587 0.71667 0.2063 0.0
H88 H 0.80295 0.7867 0.29032 0.0
H89 H 0.71642 0.67563 0.28143 0.0
O90 O 0.7463 0.77956 0.28447 0.0
O91 O 0.71566 0.7435 0.28538 0.0
H92 H 0.78251 0.83194 0.2196 0.0
O93 O 0.71035 0.76084 0.22904 0.0
O94 O 0.73861 0.79878 0.22822 0.0
O95 O 0.75852 0.72485 0.21592 0.0
O96 O 0.78584 0.76367 0.21204 0.0
C97 C 0.71577 0.7873 0.22235 0.0
H98 H 0.82907 0.82872 0.30411 0.0
H99 H 0.80707 0.8763 0.23336 0.0
H100 H 0.6841 0.67308 0.19086 0.0
H101 H 0.69499 0.6299 0.26676 0.0
C102 C 0.2331 0.80242 0.26305 0.0
N103 N 0.29531 0.7547 0.29405 0.0
C104 C 0.3094 0.78047 0.29563 0.0
C105 C 0.32184 0.78733 0.31876 0.0
C106 C 0.31914 0.76785 0.34074 0.0
C107 C 0.30564 0.74087 0.33844 0.0
C108 C 0.29409 0.7345 0.31456 0.0
Zn109 Zn 0.2702 0.75116 0.26297 0.0
C110 C 0.21714 0.7209 0.27955 0.0
N111 N 0.21478 0.75009 0.20023 0.0
C112 C 0.21546 0.76929 0.17896 0.0
C113 C 0.20024 0.72438 0.2001 0.0
C114 C 0.18616 0.71687 0.17811 0.0
C115 C 0.1876 0.73549 0.15554 0.0
C116 C 0.20217 0.76218 0.15605 0.0
Zn117 Zn 0.24022 0.75434 0.23113 0.0
O118 O 0.25216 0.78919 0.27408 0.0
C119 C 0.29335 0.7849 0.21474 0.0
O120 O 0.22307 0.79293 0.24229 0.0
H121 H 0.2008 0.70864 0.21643 0.0
H122 H 0.30947 0.79671 0.27962 0.0
H123 H 0.22739 0.78944 0.17923 0.0
O124 O 0.29901 0.77592 0.23784 0.0
O125 O 0.26977 0.77887 0.2063 0.0
H126 H 0.28277 0.71415 0.313 0.0
O127 O 0.25756 0.71569 0.22062 0.0
O128 O 0.2878 0.71303 0.25146 0.0
O129 O 0.21118 0.73023 0.25666 0.0
O130 O 0.24094 0.72634 0.2876 0.0
C131 C 0.27688 0.70275 0.23147 0.0
H132 H 0.33173 0.80856 0.32003 0.0
H133 H 0.30318 0.72542 0.35515 0.0
H134 H 0.17566 0.69579 0.17819 0.0
H135 H 0.20383 0.77692 0.1388 0.0
C136 C 0.21177 0.7795 0.72592 0.0
N137 N 0.2442 0.69996 0.71009 0.0
C138 C 0.21822 0.69272 0.70374 0.0
C139 C 0.21293 0.67162 0.68605 0.0
C140 C 0.23454 0.65741 0.67485 0.0
C141 C 0.26127 0.66549 0.68145 0.0
C142 C 0.26568 0.68697 0.69928 0.0
Zn143 Zn 0.24906 0.73029 0.7371 0.0
C144 C 0.29097 0.77663 0.72096 0.0
N145 N 0.25568 0.79348 0.79403 0.0
C146 C 0.23435 0.80597 0.80565 0.0
C147 C 0.28171 0.79946 0.80108 0.0
C148 C 0.28709 0.81783 0.82107 0.0
C149 C 0.26555 0.83049 0.83383 0.0
C150 C 0.2389 0.82494 0.82566 0.0
Zn151 Zn 0.25066 0.76364 0.76653 0.0
O152 O 0.21951 0.75566 0.71795 0.0
C153 C 0.20866 0.71731 0.78263 0.0
O154 O 0.22171 0.789 0.7467 0.0
H155 H 0.2984 0.78958 0.79146 0.0
H156 H 0.20143 0.70328 0.71251 0.0
H157 H 0.21382 0.80087 0.7997 0.0
O158 O 0.21765 0.70787 0.76134 0.0
O159 O 0.21874 0.74117 0.79008 0.0
H160 H 0.28618 0.69309 0.70465 0.0
O161 O 0.27959 0.73782 0.78605 0.0
O162 O 0.27866 0.7054 0.75652 0.0
O163 O 0.2825 0.78575 0.74259 0.0
O164 O 0.28045 0.75309 0.71324 0.0
C165 C 0.288 0.71446 0.77769 0.0
H166 H 0.19203 0.6667 0.68104 0.0
H167 H 0.2785 0.65506 0.67327 0.0
H168 H 0.30797 0.82205 0.82657 0.0
H169 H 0.22185 0.8345 0.83509 0.0
C170 C 0.28588 0.21767 0.77567 0.0
N171 N 0.28963 0.30662 0.75435 0.0
C172 C 0.30186 0.30595 0.77799 0.0
C173 C 0.31633 0.33008 0.78602 0.0
C174 C 0.31766 0.35561 0.77007 0.0
C175 C 0.30536 0.35605 0.74559 0.0
C176 C 0.29155 0.33088 0.73788 0.0
Zn177 Zn 0.26411 0.27145 0.74852 0.0
C178 C 0.27511 0.23969 0.70286 0.0
N179 N 0.20964 0.19766 0.74436 0.0
C180 C 0.20888 0.17298 0.76027 0.0
C181 C 0.19643 0.1986 0.72122 0.0
C182 C 0.18221 0.17433 0.71312 0.0
C183 C 0.18222 0.14838 0.7284 0.0
C184 C 0.19546 0.14767 0.7524 0.0
Zn185 Zn 0.23518 0.2329 0.75019 0.0
O186 O 0.29114 0.2441 0.76876 0.0
C187 C 0.22397 0.26457 0.79582 0.0
O188 O 0.26285 0.20616 0.77046 0.0
H189 H 0.19817 0.21764 0.70804 0.0
H190 H 0.2992 0.28724 0.7915 0.0
H191 H 0.21978 0.17243 0.77841 0.0
O192 O 0.24346 0.27959 0.78425 0.0
O193 O 0.2153 0.24136 0.78603 0.0
H194 H 0.28134 0.33119 0.71937 0.0
O195 O 0.20803 0.26052 0.73025 0.0
O196 O 0.23682 0.29807 0.72786 0.0
O197 O 0.25538 0.22501 0.71437 0.0
O198 O 0.28424 0.26266 0.71279 0.0
C199 C 0.21361 0.28679 0.72294 0.0
H200 H 0.32511 0.32933 0.8053 0.0
H201 H 0.30577 0.37571 0.73305 0.0
H202 H 0.17273 0.17533 0.69416 0.0
H203 H 0.1961 0.12773 0.76441 0.0
C204 C 0.7344 0.30035 0.76892 0.0
N205 N 0.79754 0.25284 0.79822 0.0
C206 C 0.81198 0.27824 0.80083 0.0
C207 C 0.82396 0.28405 0.82441 0.0
C208 C 0.82039 0.26401 0.84588 0.0
C209 C 0.80636 0.2375 0.84267 0.0
C210 C 0.79534 0.23211 0.81829 0.0
Zn211 Zn 0.77355 0.25108 0.76602 0.0
C212 C 0.72073 0.21712 0.77865 0.0
N213 N 0.72059 0.25432 0.70131 0.0
C214 C 0.69382 0.24548 0.7034 0.0
C215 C 0.73397 0.2564 0.67757 0.0
C216 C 0.72119 0.2474 0.65528 0.0
C217 C 0.69473 0.23473 0.65747 0.0
C218 C 0.6805 0.2352 0.68167 0.0
Zn219 Zn 0.74404 0.25582 0.73396 0.0
O220 O 0.75481 0.28825 0.77863 0.0
C221 C 0.79662 0.28968 0.72112 0.0
O222 O 0.72378 0.29077 0.74848 0.0
H223 H 0.75532 0.26277 0.67595 0.0
H224 H 0.81271 0.29506 0.78531 0.0
H225 H 0.6833 0.24415 0.72229 0.0
O226 O 0.80321 0.27766 0.74286 0.0
O227 O 0.77263 0.2852 0.71324 0.0
H228 H 0.78369 0.21212 0.816 0.0
O229 O 0.76461 0.22074 0.71995 0.0
O230 O 0.79188 0.21393 0.75288 0.0
O231 O 0.7158 0.22655 0.75549 0.0
O232 O 0.74345 0.22429 0.78837 0.0
C233 C 0.78326 0.2067 0.73078 0.0
H234 H 0.8342 0.30499 0.82641 0.0
H235 H 0.80313 0.22168 0.85901 0.0
H236 H 0.73272 0.24848 0.6369 0.0
H237 H 0.66004 0.22572 0.68446 0.0
C238 C 0.73195 0.76901 0.79552 0.0
N239 N 0.70541 0.70016 0.75157 0.0
C240 C 0.70117 0.68399 0.77446 0.0
C241 C 0.6783 0.6652 0.77798 0.0
C242 C 0.65942 0.66335 0.7579 0.0
C243 C 0.66481 0.67935 0.73407 0.0
C244 C 0.68825 0.69756 0.73121 0.0
Zn245 Zn 0.73555 0.73185 0.74965 0.0
C246 C 0.71561 0.78613 0.72284 0.0
N247 N 0.7963 0.80023 0.74569 0.0
C248 C 0.81315 0.80261 0.76631 0.0
C249 C 0.8011 0.81629 0.72282 0.0
C250 C 0.82439 0.83452 0.71952 0.0
C251 C 0.84304 0.83595 0.73985 0.0
C252 C 0.83692 0.82029 0.76372 0.0
Zn253 Zn 0.76612 0.76864 0.74744 0.0
O254 O 0.72105 0.7468 0.78577 0.0
C255 C 0.78618 0.71447 0.77415 0.0
O256 O 0.75205 0.78248 0.78355 0.0
H257 H 0.78759 0.81383 0.70662 0.0
H258 H 0.71485 0.68667 0.79048 0.0
H259 H 0.80885 0.78971 0.78437 0.0
O260 O 0.7624 0.70422 0.76987 0.0
O261 O 0.79262 0.74055 0.76683 0.0
H262 H 0.69209 0.71055 0.71313 0.0
O263 O 0.78009 0.75429 0.71119 0.0
O264 O 0.75032 0.71746 0.7137 0.0
O265 O 0.73915 0.79647 0.72789 0.0
O266 O 0.70924 0.75984 0.72951 0.0
C267 C 0.77002 0.73159 0.70162 0.0
H268 H 0.6746 0.65357 0.79683 0.0
H269 H 0.65067 0.67843 0.71819 0.0
H270 H 0.82861 0.84592 0.70065 0.0
H271 H 0.85083 0.82091 0.77981 0.0
C272 C 0.9286 0.05513 0.5445 0.0
C273 C 0.95101 0.06006 0.46162 0.0
C274 C 0.96598 0.94886 0.47086 0.0
Mg275 Mg 0.98341 0.06147 0.51212 0.0
O276 O 0.97895 0.02099 0.51715 0.0
Mg277 Mg 0.94444 0.00159 0.50557 0.0
Mg278 Mg 0.00509 0.9973 0.49864 0.0
O279 O 0.03125 0.9738 0.47996 0.0
Mg280 Mg 0.02717 0.93322 0.48334 0.0
Mg281 Mg 0.06569 0.99331 0.49152 0.0
C282 C 0.04429 0.04608 0.52562 0.0
C283 C 0.03455 0.03729 0.45164 0.0
O284 O 0.9228 0.03081 0.5345 0.0
O285 O 0.95065 0.07024 0.5387 0.0
O286 O 0.93977 0.03631 0.47152 0.0
O287 O 0.97065 0.073 0.47283 0.0
O288 O 0.02608 0.06514 0.5244 0.0
O289 O 0.03957 0.02045 0.51809 0.0
C290 C 0.97538 0.95748 0.54556 0.0
O291 O 0.99791 0.96496 0.53344 0.0
O292 O 0.95276 0.96793 0.53867 0.0
O293 O 0.08748 0.96487 0.4621 0.0
O294 O 0.05989 0.92571 0.45615 0.0
O295 O 0.07005 0.95827 0.52549 0.0
C296 C 0.08189 0.94116 0.45103 0.0
O297 O 0.04004 0.92096 0.5224 0.0
O298 O 0.98437 0.92996 0.47118 0.0
C299 C 0.05892 0.93407 0.53453 0.0
O300 O 0.97063 0.97412 0.47927 0.0
O301 O 0.01215 0.02957 0.46387 0.0
O302 O 0.05732 0.02715 0.45849 0.0
C303 C 0.43492 0.0835 0.02099 0.0
C304 C 0.46486 0.06996 0.94335 0.0
C305 C 0.45872 0.95719 0.97475 0.0
Mg306 Mg 0.49206 0.07388 0.99682 0.0
O307 O 0.48086 0.03526 0.00625 0.0
Mg308 Mg 0.44525 0.0207 0.99241 0.0
Mg309 Mg 0.50397 0.00332 0.99572 0.0
O310 O 0.52678 0.97122 0.98527 0.0
Mg311 Mg 0.51517 0.93272 0.99505 0.0
Mg312 Mg 0.56238 0.98555 0.9991 0.0
C313 C 0.54848 0.04984 0.01781 0.0
C314 C 0.54837 0.02888 0.94962 0.0
O315 O 0.42633 0.05915 0.01259 0.0
O316 O 0.45978 0.09297 0.018 0.0
O317 O 0.45034 0.04886 0.9542 0.0
O318 O 0.48393 0.0826 0.95557 0.0
O319 O 0.5337 0.07128 0.01152 0.0
O320 O 0.53986 0.02336 0.01634 0.0
C321 C 0.4595 0.97723 0.0417 0.0
O322 O 0.4844 0.97711 0.03319 0.0
O323 O 0.44204 0.99244 0.02984 0.0
O324 O 0.58073 0.94657 0.97936 0.0
O325 O 0.547 0.91311 0.97371 0.0
O326 O 0.55743 0.9579 0.03759 0.0
C327 C 0.57199 0.92228 0.97095 0.0
O328 O 0.524 0.92401 0.03614 0.0
O329 O 0.47294 0.93549 0.98165 0.0
C330 C 0.543 0.93671 0.04841 0.0
O331 O 0.46826 0.98344 0.97504 0.0
O332 O 0.52356 0.02947 0.95826 0.0
O333 O 0.56568 0.01341 0.96141 0.0
C334 C 0.9266 0.57881 0.02253 0.0
C335 C 0.95375 0.55866 0.94497 0.0
C336 C 0.95331 0.44881 0.98548 0.0
Mg337 Mg 0.98243 0.56766 0.99657 0.0
O338 O 0.9727 0.53008 0.0102 0.0
Mg339 Mg 0.93701 0.51349 0.99786 0.0
Mg340 Mg 0.99702 0.49883 0.00064 0.0
O341 O 0.02136 0.46767 0.99078 0.0
Mg342 Mg 0.0122 0.4296 0.00343 0.0
Mg343 Mg 0.05725 0.48442 0.00223 0.0
C344 C 0.04094 0.54887 0.01565 0.0
C345 C 0.03919 0.5249 0.95231 0.0
O346 O 0.91776 0.55341 0.01664 0.0
O347 O 0.9511 0.58836 0.0172 0.0
O348 O 0.93939 0.53867 0.9577 0.0
O349 O 0.97344 0.57198 0.95559 0.0
O350 O 0.02489 0.56838 0.00759 0.0
O351 O 0.0334 0.52192 0.01899 0.0
C352 C 0.95401 0.47297 0.0484 0.0
O353 O 0.97894 0.47336 0.0397 0.0
O354 O 0.93614 0.48742 0.03632 0.0
O355 O 0.07649 0.44495 0.9828 0.0
O356 O 0.04343 0.40978 0.98166 0.0
O357 O 0.05529 0.45885 0.04212 0.0
C358 C 0.06785 0.41969 0.97637 0.0
O359 O 0.02201 0.42456 0.04425 0.0
O360 O 0.96945 0.4292 0.99316 0.0
C361 C 0.04149 0.43836 0.05479 0.0
O362 O 0.96094 0.47572 0.98205 0.0
O363 O 0.01463 0.52442 0.96187 0.0
O364 O 0.05768 0.51063 0.96358 0.0
C365 C 0.42283 0.55562 0.04442 0.0
C366 C 0.44707 0.55795 0.96178 0.0
C367 C 0.46014 0.4463 0.97461 0.0
Mg368 Mg 0.47833 0.56068 0.01308 0.0
O369 O 0.47327 0.52027 0.01833 0.0
Mg370 Mg 0.43881 0.50079 0.00695 0.0
Mg371 Mg 0.49927 0.49557 0.00089 0.0
O372 O 0.52549 0.47088 0.98361 0.0
Mg373 Mg 0.52079 0.43052 0.98931 0.0
Mg374 Mg 0.55985 0.49058 0.99531 0.0
C375 C 0.53829 0.54411 0.02815 0.0
C376 C 0.53001 0.53343 0.95331 0.0
O377 O 0.41695 0.53131 0.03443 0.0
O378 O 0.44528 0.5702 0.03907 0.0
O379 O 0.43542 0.53447 0.97185 0.0
O380 O 0.46634 0.57118 0.9733 0.0
O381 O 0.52069 0.56377 0.02654 0.0
O382 O 0.5333 0.5188 0.02017 0.0
C383 C 0.4689 0.45797 0.04875 0.0
O384 O 0.49142 0.46477 0.03642 0.0
O385 O 0.44632 0.46821 0.0414 0.0
O386 O 0.58206 0.46022 0.96806 0.0
O387 O 0.5539 0.42125 0.96322 0.0
O388 O 0.56365 0.45739 0.0305 0.0
C389 C 0.57633 0.43593 0.95799 0.0
O390 O 0.53309 0.42035 0.02919 0.0
O391 O 0.47821 0.42709 0.97629 0.0
C392 C 0.55224 0.43385 0.04067 0.0
O393 O 0.46499 0.47199 0.98192 0.0
O394 O 0.50728 0.52654 0.96528 0.0
O395 O 0.55245 0.52311 0.96094 0.0
C396 C 0.93798 0.58301 0.52813 0.0
C397 C 0.96523 0.573 0.44909 0.0
C398 C 0.95747 0.45881 0.4755 0.0
Mg399 Mg 0.99412 0.57359 0.50201 0.0
O400 O 0.98265 0.53474 0.5096 0.0
Mg401 Mg 0.94624 0.5216 0.49659 0.0
Mg402 Mg 0.00451 0.50317 0.49631 0.0
O403 O 0.02607 0.4713 0.48317 0.0
Mg404 Mg 0.0141 0.43287 0.49306 0.0
Mg405 Mg 0.06257 0.48448 0.4958 0.0
C406 C 0.05117 0.54763 0.51841 0.0
C407 C 0.04617 0.53017 0.44907 0.0
O408 O 0.92888 0.55937 0.51877 0.0
O409 O 0.96295 0.59214 0.52517 0.0
O410 O 0.95045 0.55149 0.45893 0.0
O411 O 0.9846 0.5846 0.46167 0.0
O412 O 0.03651 0.56966 0.51416 0.0
O413 O 0.04179 0.52162 0.5158 0.0
C414 C 0.96286 0.47607 0.54351 0.0
O415 O 0.98701 0.47575 0.53329 0.0
O416 O 0.94467 0.49189 0.53355 0.0
O417 O 0.07918 0.44589 0.4742 0.0
O418 O 0.04475 0.41272 0.47047 0.0
O419 O 0.05874 0.45576 0.53378 0.0
C420 C 0.06964 0.42168 0.46626 0.0
O421 O 0.02352 0.42377 0.53397 0.0
O422 O 0.97161 0.43664 0.48099 0.0
C423 C 0.04381 0.43536 0.54527 0.0
O424 O 0.96741 0.48481 0.47672 0.0
O425 O 0.02211 0.53077 0.45945 0.0
O426 O 0.06412 0.51384 0.45872 0.0
C427 C 0.42589 0.07749 0.52427 0.0
C428 C 0.45131 0.0574 0.44621 0.0
C429 C 0.45276 0.94798 0.4857 0.0
Mg430 Mg 0.48132 0.06678 0.49702 0.0
O431 O 0.472 0.02913 0.5108 0.0
Mg432 Mg 0.43608 0.01223 0.49946 0.0
Mg433 Mg 0.49635 0.99829 0.5003 0.0
O434 O 0.52086 0.96752 0.48971 0.0
Mg435 Mg 0.51234 0.9292 0.50214 0.0
Mg436 Mg 0.55661 0.98462 0.50126 0.0
C437 C 0.53992 0.04825 0.51568 0.0
C438 C 0.5378 0.02554 0.4519 0.0
O439 O 0.41703 0.05196 0.51877 0.0
O440 O 0.4502 0.08721 0.51824 0.0
O441 O 0.43725 0.03752 0.45939 0.0
O442 O 0.47139 0.07075 0.45622 0.0
O443 O 0.52396 0.06792 0.50777 0.0
O444 O 0.53239 0.02132 0.51855 0.0
C445 C 0.45517 0.9717 0.54902 0.0
O446 O 0.47956 0.97219 0.53903 0.0
O447 O 0.43647 0.98606 0.53815 0.0
O448 O 0.57624 0.94582 0.48146 0.0
O449 O 0.54371 0.91016 0.4798 0.0
O450 O 0.55539 0.95866 0.54093 0.0
C451 C 0.56801 0.92057 0.47468 0.0
O452 O 0.52282 0.92366 0.54278 0.0
O453 O 0.4693 0.92846 0.49271 0.0
C454 C 0.54208 0.9377 0.5534 0.0
O455 O 0.46005 0.97499 0.48246 0.0
O456 O 0.51326 0.02464 0.46159 0.0
O457 O 0.55649 0.01131 0.4629 0.0
H458 H 0.14745 0.10523 0.27307 0.0
H459 H 0.10507 0.08664 0.29461 0.0
H460 H 0.06508 0.16251 0.26582 0.0
H461 H 0.10786 0.18147 0.24455 0.0
H462 H 0.06534 0.15863 0.31757 0.0
H463 H 0.02972 0.05229 0.28675 0.0
H464 H 0.06591 0.05228 0.28947 0.0
H465 H 0.05127 0.07686 0.26566 0.0
C466 C 0.12933 0.11736 0.27044 0.0
C467 C 0.13095 0.1449 0.25752 0.0
C468 C 0.10496 0.10658 0.2825 0.0
C469 C 0.08177 0.12312 0.28175 0.0
C470 C 0.08265 0.1493 0.26647 0.0
H471 H 0.99138 0.04571 0.41995 0.0
H472 H 0.99195 0.07232 0.37704 0.0
C473 C 0.10709 0.16007 0.2543 0.0
C474 C 0.05997 0.11647 0.30196 0.0
H475 H 0.02933 0.05762 0.3354 0.0
C476 C 0.05643 0.13686 0.32095 0.0
C477 C 0.04777 0.08836 0.30631 0.0
C478 C 0.04866 0.06638 0.28572 0.0
C479 C 0.04464 0.12858 0.34561 0.0
C480 C 0.03644 0.09931 0.3513 0.0
C481 C 0.03623 0.07999 0.33113 0.0
C482 C 0.03416 0.08716 0.37862 0.0
C483 C 0.04332 0.15057 0.36618 0.0
C484 C 0.05764 0.08704 0.39368 0.0
C485 C 0.05748 0.07175 0.41796 0.0
C486 C 0.03376 0.05645 0.42767 0.0
C487 C 0.00988 0.05764 0.41308 0.0
C488 C 0.01015 0.0727 0.38856 0.0
H489 H 0.04141 0.17267 0.35705 0.0
H490 H 0.02591 0.14536 0.38018 0.0
H491 H 0.06238 0.15058 0.37736 0.0
H492 H 0.07651 0.09768 0.38607 0.0
H493 H 0.07613 0.07123 0.42877 0.0
H494 H 0.80974 0.23165 0.32773 0.0
H495 H 0.84123 0.20401 0.35411 0.0
H496 H 0.84199 0.13948 0.29661 0.0
H497 H 0.81052 0.1672 0.26983 0.0
H498 H 0.83115 0.14784 0.37533 0.0
H499 H 0.92355 0.15559 0.31011 0.0
H500 H 0.89582 0.17942 0.30574 0.0
H501 H 0.89276 0.14316 0.29519 0.0
C502 C 0.81672 0.2117 0.32052 0.0
C503 C 0.80753 0.20163 0.29665 0.0
C504 C 0.83477 0.19593 0.33564 0.0
C505 C 0.84421 0.16984 0.32722 0.0
C506 C 0.83537 0.15982 0.30327 0.0
H507 H 0.90996 0.03832 0.43216 0.0
H508 H 0.88591 0.06372 0.39731 0.0
C509 C 0.81723 0.1756 0.28807 0.0
C510 C 0.86187 0.1524 0.34446 0.0
H511 H 0.92489 0.12467 0.3487 0.0
C512 C 0.85163 0.14276 0.36948 0.0
C513 C 0.88868 0.14601 0.33688 0.0
C514 C 0.90105 0.15674 0.31061 0.0
C515 C 0.86735 0.12681 0.38709 0.0
C516 C 0.89397 0.11993 0.37937 0.0
C517 C 0.90438 0.12974 0.35444 0.0
C518 C 0.91125 0.10309 0.39743 0.0
C519 C 0.85552 0.11792 0.41406 0.0
C520 C 0.93436 0.1163 0.40814 0.0
C521 C 0.94827 0.1018 0.42813 0.0
C522 C 0.93928 0.07382 0.43773 0.0
C523 C 0.91725 0.05999 0.4256 0.0
C524 C 0.90341 0.07448 0.40565 0.0
H525 H 0.83742 0.13024 0.41889 0.0
H526 H 0.84914 0.09461 0.41485 0.0
H527 H 0.87089 0.12118 0.42931 0.0
H528 H 0.94086 0.13831 0.4019 0.0
H529 H 0.96533 0.113 0.43679 0.0
H530 H 0.79263 0.89741 0.29142 0.0
H531 H 0.81019 0.92794 0.32548 0.0
H532 H 0.89117 0.90054 0.30958 0.0
H533 H 0.87357 0.86986 0.27586 0.0
H534 H 0.83393 0.89609 0.36718 0.0
H535 H 0.90421 0.98582 0.32783 0.0
H536 H 0.87779 0.96975 0.30853 0.0
H537 H 0.90939 0.95235 0.31281 0.0
C538 C 0.81438 0.89929 0.29423 0.0
C539 C 0.8319 0.88169 0.28098 0.0
C540 C 0.82434 0.91651 0.31379 0.0
C541 C 0.85196 0.91654 0.31997 0.0
C542 C 0.86989 0.90125 0.30479 0.0
H543 H 0.94877 0.89856 0.44941 0.0
H544 H 0.91458 0.89355 0.41591 0.0
C545 C 0.85988 0.8838 0.28548 0.0
C546 C 0.86112 0.92693 0.34527 0.0
H547 H 0.91184 0.9672 0.3721 0.0
C548 C 0.85049 0.91221 0.36836 0.0
C549 C 0.88265 0.94793 0.34674 0.0
C550 C 0.89403 0.96509 0.32266 0.0
C551 C 0.86219 0.91646 0.39268 0.0
C552 C 0.88504 0.93584 0.39382 0.0
C553 C 0.89439 0.95215 0.37108 0.0
C554 C 0.9014 0.93726 0.41759 0.0
C555 C 0.85078 0.89936 0.41679 0.0
C556 C 0.90457 0.96316 0.43021 0.0
C557 C 0.92391 0.96599 0.44957 0.0
C558 C 0.94085 0.94322 0.45618 0.0
C559 C 0.93618 0.91659 0.44478 0.0
C560 C 0.91662 0.91367 0.42563 0.0
H561 H 0.82942 0.89144 0.41413 0.0
H562 H 0.86319 0.8803 0.42071 0.0
H563 H 0.85155 0.91261 0.43422 0.0
H564 H 0.89299 0.98159 0.42424 0.0
H565 H 0.92675 0.98667 0.45801 0.0
H566 H 0.19345 0.83825 0.24557 0.0
H567 H 0.17024 0.87364 0.27092 0.0
H568 H 0.22137 0.85434 0.33649 0.0
H569 H 0.24529 0.82058 0.31115 0.0
H570 H 0.14016 0.86292 0.3118 0.0
H571 H 0.22137 0.93845 0.34137 0.0
H572 H 0.22695 0.91372 0.31596 0.0
H573 H 0.23118 0.90259 0.35004 0.0
C574 C 0.20019 0.84223 0.26513 0.0
C575 C 0.22119 0.82659 0.27632 0.0
C576 C 0.1869 0.86242 0.27962 0.0
C577 C 0.19432 0.86713 0.30553 0.0
C578 C 0.21582 0.85204 0.3163 0.0
H579 H 0.08948 0.88659 0.43626 0.0
H580 H 0.11669 0.87231 0.399 0.0
C581 C 0.22932 0.83235 0.30179 0.0
C582 C 0.17761 0.88457 0.32269 0.0
H583 H 0.18285 0.92977 0.37298 0.0
C584 C 0.14946 0.87808 0.32472 0.0
C585 C 0.18941 0.90496 0.33923 0.0
C586 C 0.21885 0.91553 0.33625 0.0
C587 C 0.13323 0.88967 0.34405 0.0
C588 C 0.14567 0.90724 0.36261 0.0
C589 C 0.17339 0.91557 0.35931 0.0
C590 C 0.13056 0.91598 0.38615 0.0
C591 C 0.10296 0.88264 0.34446 0.0
C592 C 0.13076 0.94508 0.39244 0.0
C593 C 0.11588 0.95318 0.4143 0.0
C594 C 0.10035 0.93234 0.43004 0.0
C595 C 0.10097 0.90315 0.42426 0.0
C596 C 0.11626 0.89502 0.40278 0.0
H597 H 0.09575 0.87894 0.32441 0.0
H598 H 0.09832 0.86242 0.35674 0.0
H599 H 0.09138 0.90024 0.35255 0.0
H600 H 0.1419 0.96161 0.3801 0.0
H601 H 0.11568 0.97588 0.41824 0.0
H602 H 0.19942 0.83617 0.72997 0.0
H603 H 0.16941 0.86449 0.70195 0.0
H604 H 0.1498 0.78924 0.65905 0.0
H605 H 0.17991 0.76087 0.68662 0.0
H606 H 0.17671 0.86674 0.641 0.0
H607 H 0.07451 0.8276 0.68095 0.0
H608 H 0.10452 0.82749 0.7007 0.0
H609 H 0.09969 0.80118 0.67664 0.0
C610 C 0.18848 0.82557 0.71476 0.0
C611 C 0.19212 0.79628 0.71048 0.0
C612 C 0.17137 0.84178 0.69879 0.0
C613 C 0.15726 0.82886 0.67861 0.0
C614 C 0.16032 0.7995 0.67471 0.0
H615 H 0.0525 0.8773 0.55252 0.0
H616 H 0.07521 0.85355 0.58934 0.0
C617 C 0.17763 0.78338 0.69042 0.0
C618 C 0.14091 0.84639 0.66029 0.0
H619 H 0.07585 0.85719 0.64159 0.0
C620 C 0.15464 0.86496 0.64124 0.0
C621 C 0.11221 0.84363 0.66055 0.0
C622 C 0.09668 0.82404 0.68085 0.0
C623 C 0.14046 0.88028 0.62185 0.0
C624 C 0.11162 0.87768 0.62208 0.0
C625 C 0.09789 0.85934 0.64147 0.0
C626 C 0.09554 0.89275 0.60159 0.0
C627 C 0.15667 0.89803 0.60064 0.0
C628 C 0.09845 0.92288 0.59683 0.0
C629 C 0.08582 0.93645 0.57555 0.0
C630 C 0.06953 0.92025 0.55889 0.0
C631 C 0.06506 0.89039 0.56483 0.0
C632 C 0.07803 0.87677 0.58591 0.0
H633 H 0.17799 0.89131 0.59913 0.0
H634 H 0.14728 0.89613 0.58123 0.0
H635 H 0.1573 0.9211 0.60536 0.0
H636 H 0.11107 0.93585 0.60919 0.0
H637 H 0.08927 0.95958 0.57186 0.0
H638 H 0.12944 0.13399 0.71964 0.0
H639 H 0.11355 0.10203 0.68616 0.0
H640 H 0.19518 0.0742 0.67486 0.0
H641 H 0.21102 0.10605 0.70868 0.0
H642 H 0.17318 0.10348 0.63079 0.0
H643 H 0.10153 0.01571 0.67148 0.0
H644 H 0.09551 0.05003 0.68457 0.0
H645 H 0.12698 0.03308 0.69103 0.0
C646 C 0.14361 0.11979 0.71105 0.0
C647 C 0.1713 0.12209 0.71681 0.0
C648 C 0.13458 0.10159 0.69189 0.0
C649 C 0.1532 0.08569 0.6781 0.0
C650 C 0.18049 0.0861 0.68547 0.0
H651 H 0.08175 0.00781 0.54214 0.0
H652 H 0.11472 0.01438 0.5764 0.0
C653 C 0.18947 0.10407 0.7049 0.0
C654 C 0.14511 0.07386 0.65302 0.0
H655 H 0.09546 0.03207 0.62625 0.0
C656 C 0.15667 0.08728 0.62973 0.0
C657 C 0.12367 0.05272 0.6517 0.0
C658 C 0.11136 0.03684 0.67604 0.0
C659 C 0.14595 0.08166 0.60525 0.0
C660 C 0.12311 0.06225 0.60414 0.0
C661 C 0.11289 0.04717 0.62721 0.0
C662 C 0.10757 0.05962 0.57993 0.0
C663 C 0.15841 0.09738 0.58088 0.0
C664 C 0.09333 0.08316 0.56996 0.0
C665 C 0.07428 0.07943 0.55045 0.0
C666 C 0.06912 0.05204 0.54065 0.0
C667 C 0.0851 0.02913 0.54922 0.0
C668 C 0.10394 0.0328 0.5689 0.0
H669 H 0.17984 0.10482 0.58388 0.0
H670 H 0.15779 0.08335 0.56396 0.0
H671 H 0.14666 0.11668 0.57589 0.0
H672 H 0.09565 0.10399 0.57845 0.0
H673 H 0.06241 0.09757 0.5443 0.0
H674 H 0.81981 0.1672 0.74836 0.0
H675 H 0.84231 0.13183 0.72231 0.0
H676 H 0.79789 0.16016 0.65449 0.0
H677 H 0.77472 0.19422 0.68033 0.0
H678 H 0.80127 0.10346 0.65632 0.0
H679 H 0.90354 0.15545 0.67129 0.0
H680 H 0.88578 0.14105 0.70062 0.0
H681 H 0.87266 0.17112 0.68195 0.0
C682 C 0.8147 0.16559 0.72797 0.0
C683 C 0.7957 0.1837 0.71637 0.0
C684 C 0.82766 0.14552 0.71307 0.0
C685 C 0.82219 0.14376 0.68629 0.0
C686 C 0.80248 0.16109 0.67508 0.0
H687 H 0.9218 0.11085 0.55581 0.0
H688 H 0.89468 0.12837 0.59165 0.0
C689 C 0.7893 0.1807 0.68994 0.0
C690 C 0.83774 0.12536 0.6691 0.0
H691 H 0.90111 0.11803 0.6425 0.0
C692 C 0.82316 0.10638 0.65346 0.0
C693 C 0.86627 0.12941 0.66527 0.0
C694 C 0.88303 0.1505 0.68047 0.0
C695 C 0.83607 0.09255 0.63316 0.0
C696 C 0.86451 0.09705 0.62905 0.0
C697 C 0.87928 0.11473 0.64566 0.0
C698 C 0.87921 0.08586 0.60635 0.0
C699 C 0.81887 0.07472 0.61542 0.0
C700 C 0.87913 0.05615 0.60234 0.0
C701 C 0.89421 0.04612 0.58142 0.0
C702 C 0.91008 0.06562 0.56462 0.0
C703 C 0.90983 0.09533 0.5685 0.0
C704 C 0.89442 0.10534 0.58904 0.0
H705 H 0.79697 0.07931 0.61722 0.0
H706 H 0.82561 0.07883 0.59458 0.0
H707 H 0.82089 0.05144 0.62087 0.0
H708 H 0.86804 0.04066 0.61576 0.0
H709 H 0.89434 0.02307 0.57906 0.0
H710 H 0.8926 0.81458 0.74977 0.0
H711 H 0.93631 0.83298 0.73009 0.0
H712 H 0.89767 0.90777 0.697 0.0
H713 H 0.8543 0.88977 0.71696 0.0
H714 H 0.93972 0.83593 0.67811 0.0
H715 H 0.97188 0.94304 0.70981 0.0
H716 H 0.94929 0.91844 0.72981 0.0
H717 H 0.936 0.9425 0.70474 0.0
C718 C 0.89377 0.83561 0.73933 0.0
C719 C 0.87008 0.85067 0.73459 0.0
C720 C 0.91875 0.84606 0.72808 0.0
C721 C 0.92037 0.87183 0.71221 0.0
C722 C 0.89717 0.88818 0.70963 0.0
H723 H 0.93353 0.92298 0.56688 0.0
H724 H 0.93188 0.89628 0.60945 0.0
C725 C 0.87225 0.87771 0.72076 0.0
C726 C 0.94354 0.87833 0.69346 0.0
H727 H 0.976 0.93701 0.66141 0.0
C728 C 0.94867 0.85772 0.67505 0.0
C729 C 0.95581 0.90647 0.68961 0.0
C730 C 0.95314 0.9287 0.7098 0.0
C731 C 0.96216 0.8658 0.65112 0.0
C732 C 0.97046 0.89507 0.6456 0.0
C733 C 0.96908 0.91461 0.66552 0.0
C734 C 0.97384 0.90704 0.61829 0.0
C735 C 0.96506 0.84363 0.6309 0.0
C736 C 0.9981 0.92164 0.60913 0.0
C737 C 0.99912 0.9368 0.58462 0.0
C738 C 0.9757 0.93803 0.56936 0.0
C739 C 0.95181 0.92248 0.57825 0.0
C740 C 0.95093 0.90705 0.60246 0.0
H741 H 0.9666 0.82163 0.64039 0.0
H742 H 0.94678 0.84333 0.61858 0.0
H743 H 0.98327 0.84886 0.61791 0.0
H744 H 0.01585 0.9221 0.62125 0.0
H745 H 0.01775 0.94883 0.5783 0.0
H746 H 0.31392 0.25267 0.17087 0.0
H747 H 0.33901 0.2312 0.13562 0.0
H748 H 0.28004 0.15924 0.13815 0.0
H749 H 0.25464 0.1806 0.17328 0.0
H750 H 0.36078 0.17644 0.14361 0.0
H751 H 0.29217 0.17948 0.05883 0.0
H752 H 0.28837 0.20233 0.08607 0.0
H753 H 0.27668 0.16498 0.08931 0.0
C754 C 0.30594 0.23257 0.16358 0.0
C755 C 0.28236 0.21824 0.17499 0.0
C756 C 0.32032 0.22036 0.14344 0.0
C757 C 0.31126 0.19378 0.13419 0.0
C758 C 0.2871 0.18003 0.14471 0.0
H759 H 0.38269 0.06796 0.03797 0.0
H760 H 0.35232 0.09574 0.06433 0.0
C761 C 0.27271 0.1922 0.1649 0.0
C762 C 0.32869 0.1789 0.11579 0.0
H763 H 0.33084 0.15082 0.05545 0.0
C764 C 0.35436 0.17106 0.12423 0.0
C765 C 0.32005 0.17166 0.0907 0.0
C766 C 0.2929 0.18022 0.08052 0.0
C767 C 0.37152 0.15572 0.10842 0.0
C768 C 0.363 0.14861 0.08323 0.0
C769 C 0.33731 0.15643 0.07475 0.0
C770 C 0.38054 0.1328 0.06563 0.0
C771 C 0.39831 0.14656 0.11914 0.0
C772 C 0.40615 0.14479 0.05713 0.0
C773 C 0.42362 0.12895 0.04226 0.0
C774 C 0.41567 0.1009 0.03536 0.0
C775 C 0.38951 0.08944 0.04302 0.0
C776 C 0.37209 0.10528 0.05803 0.0
H777 H 0.39856 0.14703 0.14087 0.0
H778 H 0.40269 0.12442 0.11358 0.0
H779 H 0.41492 0.16165 0.11088 0.0
H780 H 0.4128 0.16626 0.06235 0.0
H781 H 0.44347 0.13862 0.03643 0.0
H782 H 0.82952 0.31825 0.24293 0.0
H783 H 0.86401 0.34825 0.21739 0.0
H784 H 0.83533 0.31279 0.14624 0.0
H785 H 0.80185 0.28143 0.17198 0.0
H786 H 0.888 0.3201 0.14237 0.0
H787 H 0.84931 0.42123 0.17832 0.0
H788 H 0.86088 0.39787 0.20442 0.0
H789 H 0.83199 0.3866 0.18581 0.0
C790 C 0.83064 0.31675 0.22184 0.0
C791 C 0.81271 0.29764 0.20947 0.0
C792 C 0.85029 0.33412 0.20718 0.0
C793 C 0.85191 0.33363 0.17966 0.0
C794 C 0.83453 0.31386 0.16738 0.0
H795 H 0.90283 0.46967 0.06977 0.0
H796 H 0.88269 0.43526 0.1025 0.0
C797 C 0.8153 0.29595 0.18212 0.0
C798 C 0.87107 0.35412 0.1636 0.0
H799 H 0.88921 0.42587 0.15176 0.0
C800 C 0.88827 0.34324 0.14445 0.0
C801 C 0.87146 0.38446 0.16605 0.0
C802 C 0.85224 0.39827 0.18456 0.0
C803 C 0.90513 0.36171 0.12738 0.0
C804 C 0.90562 0.39199 0.13001 0.0
C805 C 0.88915 0.40271 0.14978 0.0
C806 C 0.9197 0.41333 0.11039 0.0
C807 C 0.92118 0.34865 0.10587 0.0
C808 C 0.94771 0.41319 0.10377 0.0
C809 C 0.95957 0.43306 0.0843 0.0
C810 C 0.94368 0.45364 0.07134 0.0
C811 C 0.91598 0.45426 0.07898 0.0
C812 C 0.90425 0.43443 0.09795 0.0
H813 H 0.9141 0.32596 0.10305 0.0
H814 H 0.91963 0.36145 0.08696 0.0
H815 H 0.94293 0.34866 0.11107 0.0
H816 H 0.96038 0.39767 0.1135 0.0
H817 H 0.98092 0.43197 0.07913 0.0
H818 H 0.66787 0.76724 0.20259 0.0
H819 H 0.63509 0.79454 0.17746 0.0
H820 H 0.68449 0.87288 0.18453 0.0
H821 H 0.7178 0.84558 0.20922 0.0
H822 H 0.60425 0.84009 0.18925 0.0
H823 H 0.67601 0.8716 0.1059 0.0
H824 H 0.68346 0.84461 0.13119 0.0
H825 H 0.68793 0.88243 0.13695 0.0
C826 C 0.67182 0.79029 0.19881 0.0
C827 C 0.69562 0.80419 0.20772 0.0
C828 C 0.65298 0.80588 0.18449 0.0
C829 C 0.6575 0.83568 0.17876 0.0
C830 C 0.68087 0.84978 0.18822 0.0
H831 H 0.57616 0.9625 0.08308 0.0
H832 H 0.60073 0.9385 0.1183 0.0
C833 C 0.69985 0.83417 0.20242 0.0
C834 C 0.63799 0.85177 0.16245 0.0
H835 H 0.6332 0.89264 0.10517 0.0
C836 C 0.61055 0.85158 0.17085 0.0
C837 C 0.64618 0.86654 0.13833 0.0
C838 C 0.67493 0.86614 0.12738 0.0
C839 C 0.59121 0.8662 0.15597 0.0
C840 C 0.59954 0.8812 0.13205 0.0
C841 C 0.62692 0.88134 0.12367 0.0
C842 C 0.58038 0.8966 0.11487 0.0
C843 C 0.56215 0.86585 0.16606 0.0
C844 C 0.55989 0.88126 0.10198 0.0
C845 C 0.54564 0.89499 0.08176 0.0
C846 C 0.55195 0.92417 0.07396 0.0
C847 C 0.57094 0.93993 0.0884 0.0
C848 C 0.58506 0.92625 0.10856 0.0
H849 H 0.56029 0.85907 0.18728 0.0
H850 H 0.55371 0.88753 0.16293 0.0
H851 H 0.5496 0.85035 0.15512 0.0
H852 H 0.55616 0.85827 0.10632 0.0
H853 H 0.53123 0.8822 0.07099 0.0
H854 H 0.13582 0.71576 0.14823 0.0
H855 H 0.12033 0.68585 0.11312 0.0
H856 H 0.19872 0.69969 0.07358 0.0
H857 H 0.2144 0.72965 0.10899 0.0
H858 H 0.11854 0.69347 0.05734 0.0
H859 H 0.19037 0.61085 0.09163 0.0
H860 H 0.18234 0.64092 0.11087 0.0
H861 H 0.20418 0.64667 0.08223 0.0
C862 C 0.14943 0.71314 0.13162 0.0
C863 C 0.17624 0.72487 0.13123 0.0
C864 C 0.14064 0.69601 0.11165 0.0
C865 C 0.15859 0.69015 0.09108 0.0
C866 C 0.18474 0.70369 0.08952 0.0
H867 H 0.07619 0.57961 0.98233 0.0
H868 H 0.11347 0.61199 0.9956 0.0
C869 C 0.19353 0.72104 0.10952 0.0
C870 C 0.15023 0.66783 0.07297 0.0
H871 H 0.15754 0.59663 0.06183 0.0
C872 C 0.12741 0.67248 0.05775 0.0
C873 C 0.16176 0.64041 0.07395 0.0
C874 C 0.18593 0.63414 0.09062 0.0
C875 C 0.11479 0.65001 0.04458 0.0
C876 C 0.12575 0.62225 0.04627 0.0
C877 C 0.14941 0.61797 0.06042 0.0
C878 C 0.1106 0.59689 0.03649 0.0
C879 C 0.0887 0.65571 0.0306 0.0
C880 C 0.09865 0.57577 0.0546 0.0
C881 C 0.07785 0.55674 0.0469 0.0
C882 C 0.06876 0.55896 0.02111 0.0
C883 C 0.08297 0.57765 0.00236 0.0
C884 C 0.10405 0.59628 0.00995 0.0
H885 H 0.08053 0.67681 0.03523 0.0
H886 H 0.09258 0.65604 0.00909 0.0
H887 H 0.07287 0.6384 0.036 0.0
H888 H 0.10356 0.5758 0.07517 0.0
H889 H 0.06695 0.54265 0.06166 0.0
H890 H 0.25126 0.88619 0.83954 0.0
H891 H 0.27019 0.9195 0.87104 0.0
H892 H 0.31302 0.84971 0.90792 0.0
H893 H 0.29402 0.81662 0.87694 0.0
H894 H 0.29338 0.89017 0.94369 0.0
H895 H 0.35167 0.94248 0.85705 0.0
H896 H 0.31511 0.94134 0.85668 0.0
H897 H 0.33273 0.90847 0.85503 0.0
C898 C 0.26405 0.87792 0.85492 0.0
C899 C 0.27161 0.84907 0.85568 0.0
C900 C 0.27492 0.89692 0.87277 0.0
C901 C 0.29334 0.88711 0.89148 0.0
C902 C 0.29889 0.85772 0.8936 0.0
H903 H 0.4287 0.90598 0.97907 0.0
H904 H 0.38341 0.89593 0.96268 0.0
C905 C 0.28817 0.83888 0.87583 0.0
C906 C 0.31018 0.90737 0.90637 0.0
H907 H 0.36804 0.9507 0.89842 0.0
C908 C 0.30929 0.90409 0.93387 0.0
C909 C 0.3308 0.92564 0.8935 0.0
C910 C 0.33289 0.92976 0.86395 0.0
C911 C 0.32969 0.91688 0.94874 0.0
C912 C 0.35172 0.9328 0.93567 0.0
C913 C 0.35122 0.93829 0.90839 0.0
C914 C 0.3773 0.94016 0.94902 0.0
C915 C 0.32803 0.9122 0.97821 0.0
C916 C 0.38919 0.96831 0.94648 0.0
C917 C 0.41537 0.97405 0.95548 0.0
C918 C 0.43021 0.9517 0.96707 0.0
C919 C 0.4179 0.92371 0.97024 0.0
C920 C 0.39179 0.91799 0.9612 0.0
H921 H 0.3065 0.91006 0.98541 0.0
H922 H 0.33773 0.89179 0.98407 0.0
H923 H 0.33857 0.93022 0.98793 0.0
H924 H 0.37853 0.98565 0.93679 0.0
H925 H 0.42427 0.9958 0.95251 0.0
H926 H 0.17769 0.24263 0.82263 0.0
H927 H 0.15257 0.26534 0.85738 0.0
H928 H 0.21378 0.33514 0.85564 0.0
H929 H 0.23919 0.31248 0.82147 0.0
H930 H 0.19575 0.31761 0.90627 0.0
H931 H 0.10915 0.33678 0.84071 0.0
H932 H 0.11762 0.29962 0.84522 0.0
H933 H 0.14151 0.32547 0.82874 0.0
C934 C 0.18599 0.26259 0.82992 0.0
C935 C 0.2103 0.27587 0.81905 0.0
C936 C 0.17152 0.27565 0.84963 0.0
C937 C 0.18103 0.30225 0.85869 0.0
C938 C 0.20597 0.31473 0.84884 0.0
H939 H 0.11984 0.43351 0.95696 0.0
H940 H 0.14827 0.40412 0.93004 0.0
C941 C 0.22044 0.30171 0.82923 0.0
C942 C 0.16454 0.31796 0.87744 0.0
H943 H 0.1043 0.35077 0.88418 0.0
C944 C 0.17572 0.32481 0.9015 0.0
C945 C 0.13852 0.32758 0.87106 0.0
C946 C 0.12602 0.32227 0.84495 0.0
C947 C 0.16141 0.3407 0.91949 0.0
C948 C 0.13542 0.35029 0.91307 0.0
C949 C 0.12422 0.34332 0.88908 0.0
C950 C 0.11927 0.36748 0.93088 0.0
C951 C 0.17404 0.34675 0.94535 0.0
C952 C 0.09348 0.35677 0.9401 0.0
C953 C 0.07716 0.3735 0.95532 0.0
C954 C 0.08618 0.40149 0.96156 0.0
C955 C 0.11227 0.41204 0.95264 0.0
C956 C 0.12862 0.3952 0.93736 0.0
H957 H 0.19074 0.33213 0.94994 0.0
H958 H 0.18268 0.36933 0.94442 0.0
H959 H 0.15855 0.34433 0.96161 0.0
H960 H 0.08583 0.33549 0.93526 0.0
H961 H 0.05726 0.36455 0.96184 0.0
H962 H 0.7255 0.19092 0.82775 0.0
H963 H 0.69126 0.16045 0.85328 0.0
H964 H 0.6345 0.17151 0.79093 0.0
H965 H 0.66877 0.20147 0.76506 0.0
H966 H 0.64064 0.17225 0.87193 0.0
H967 H 0.63217 0.08436 0.80279 0.0
H968 H 0.65915 0.11216 0.80003 0.0
H969 H 0.62584 0.11954 0.78843 0.0
C970 C 0.70579 0.18676 0.81938 0.0
C971 C 0.70002 0.19849 0.79422 0.0
C972 C 0.68618 0.16939 0.83405 0.0
C973 C 0.66037 0.16328 0.82393 0.0
C974 C 0.65442 0.17532 0.79898 0.0
H975 H 0.5296 0.08077 0.92961 0.0
H976 H 0.55292 0.11474 0.89679 0.0
C977 C 0.67405 0.19259 0.78423 0.0
C978 C 0.63976 0.14445 0.8396 0.0
H979 H 0.60188 0.0807 0.83953 0.0
C980 C 0.63204 0.1523 0.86479 0.0
C981 C 0.62863 0.11831 0.83037 0.0
C982 C 0.637 0.10788 0.80404 0.0
C983 C 0.61392 0.13458 0.88113 0.0
C984 C 0.60274 0.10847 0.87187 0.0
C985 C 0.61011 0.10089 0.8465 0.0
C986 C 0.58616 0.08709 0.88928 0.0
C987 C 0.6079 0.14334 0.9086 0.0
C988 C 0.59616 0.0597 0.89495 0.0
C989 C 0.58275 0.04029 0.91335 0.0
C990 C 0.55885 0.04763 0.92661 0.0
C991 C 0.54783 0.07437 0.91976 0.0
C992 C 0.56138 0.09396 0.90123 0.0
H993 H 0.62219 0.16098 0.91438 0.0
H994 H 0.58696 0.15114 0.90973 0.0
H995 H 0.60908 0.12462 0.92302 0.0
H996 H 0.61508 0.05374 0.88592 0.0
H997 H 0.59176 0.0198 0.91793 0.0
H998 H 0.77917 0.65874 0.79524 0.0
H999 H 0.81281 0.63029 0.81851 0.0
H1000 H 0.87258 0.70102 0.80569 0.0
H1001 H 0.83922 0.72967 0.78283 0.0
H1002 H 0.86626 0.61386 0.80215 0.0
H1003 H 0.8691 0.68535 0.8859 0.0
H1004 H 0.84257 0.68624 0.86215 0.0
H1005 H 0.87539 0.70359 0.85421 0.0
C1006 C 0.79949 0.6682 0.79735 0.0
C1007 C 0.80642 0.69657 0.78744 0.0
C1008 C 0.81868 0.65189 0.81054 0.0
C1009 C 0.84503 0.66373 0.81407 0.0
C1010 C 0.85222 0.69169 0.80353 0.0
H1011 H 0.97402 0.60582 0.91449 0.0
H1012 H 0.95149 0.62988 0.87774 0.0
C1013 C 0.83309 0.708 0.79044 0.0
C1014 C 0.86477 0.64735 0.8296 0.0
H1015 H 0.90017 0.64829 0.88615 0.0
C1016 C 0.87376 0.62135 0.8205 0.0
C1017 C 0.87454 0.65729 0.85346 0.0
C1018 C 0.86478 0.68451 0.8647 0.0
C1019 C 0.89237 0.60499 0.83469 0.0
C1020 C 0.90184 0.61477 0.85873 0.0
C1021 C 0.89313 0.64099 0.86756 0.0
C1022 C 0.91879 0.59717 0.87643 0.0
C1023 C 0.90179 0.57751 0.8238 0.0
C1024 C 0.90845 0.57027 0.88718 0.0
C1025 C 0.92127 0.55644 0.90814 0.0
C1026 C 0.94451 0.56945 0.91897 0.0
C1027 C 0.95606 0.59528 0.90677 0.0
C1028 C 0.9432 0.60909 0.88577 0.0
H1029 H 0.89999 0.57795 0.80214 0.0
H1030 H 0.92324 0.57385 0.82878 0.0
H1031 H 0.88883 0.55894 0.83236 0.0
H1032 H 0.88942 0.56088 0.88062 0.0
H1033 H 0.91187 0.53649 0.91693 0.0
H1034 H 0.16481 0.26691 0.20254 0.0
H1035 H 0.13245 0.29743 0.18016 0.0
H1036 H 0.1871 0.37199 0.18669 0.0
H1037 H 0.21993 0.34151 0.20865 0.0
H1038 H 0.10598 0.34581 0.19561 0.0
H1039 H 0.17392 0.37244 0.1082 0.0
H1040 H 0.18062 0.34406 0.13246 0.0
H1041 H 0.18851 0.38122 0.1388 0.0
C1042 C 0.17001 0.2898 0.1992 0.0
C1043 C 0.19509 0.30175 0.20712 0.0
C1044 C 0.15141 0.30722 0.18651 0.0
C1045 C 0.15752 0.33688 0.18149 0.0
C1046 C 0.18222 0.34903 0.18995 0.0
H1047 H 0.0782 0.4655 0.08544 0.0
H1048 H 0.10345 0.44312 0.12106 0.0
C1049 C 0.20093 0.3316 0.20253 0.0
C1050 C 0.13833 0.35481 0.16668 0.0
H1051 H 0.13236 0.39551 0.10957 0.0
C1052 C 0.11172 0.35679 0.17683 0.0
C1053 C 0.14587 0.36896 0.14214 0.0
C1054 C 0.17369 0.36642 0.12958 0.0
C1055 C 0.09247 0.37271 0.16308 0.0
C1056 C 0.10003 0.38672 0.13852 0.0
C1057 C 0.12671 0.38497 0.12856 0.0
C1058 C 0.08053 0.40212 0.12183 0.0
C1059 C 0.0643 0.37454 0.17496 0.0
C1060 C 0.05844 0.38688 0.11128 0.0
C1061 C 0.04383 0.39967 0.09091 0.0
C1062 C 0.0514 0.42774 0.08056 0.0
C1063 C 0.07203 0.44373 0.09274 0.0
C1064 C 0.0865 0.43099 0.11313 0.0
H1065 H 0.06396 0.36966 0.19652 0.0
H1066 H 0.05642 0.39634 0.17089 0.0
H1067 H 0.05034 0.3585 0.16618 0.0
H1068 H 0.05372 0.36444 0.11745 0.0
H1069 H 0.02805 0.38676 0.08199 0.0
H1070 H 0.18817 0.7279 0.83157 0.0
H1071 H 0.15457 0.69812 0.8587 0.0
H1072 H 0.14699 0.6382 0.79752 0.0
H1073 H 0.18044 0.66779 0.77025 0.0
H1074 H 0.09569 0.65225 0.82197 0.0
H1075 H 0.17242 0.61875 0.89439 0.0
H1076 H 0.17032 0.65705 0.88774 0.0
H1077 H 0.1819 0.63502 0.86231 0.0
C1078 C 0.17927 0.70847 0.8238 0.0
C1079 C 0.18723 0.70019 0.79875 0.0
C1080 C 0.16009 0.69141 0.83938 0.0
C1081 C 0.14842 0.66574 0.83027 0.0
C1082 C 0.15571 0.65788 0.805 0.0
H1083 H 0.0776 0.51495 0.91547 0.0
H1084 H 0.10115 0.5503 0.88458 0.0
C1085 C 0.17495 0.67481 0.78946 0.0
C1086 C 0.12949 0.64639 0.84738 0.0
H1087 H 0.12714 0.60157 0.90299 0.0
C1088 C 0.10248 0.64129 0.83978 0.0
C1089 C 0.13842 0.63188 0.87051 0.0
C1090 C 0.16738 0.63567 0.87924 0.0
C1091 C 0.08426 0.62206 0.85466 0.0
C1092 C 0.09327 0.60752 0.87772 0.0
C1093 C 0.12019 0.6128 0.88537 0.0
C1094 C 0.07582 0.58545 0.89354 0.0
C1095 C 0.05575 0.61673 0.8453 0.0
C1096 C 0.05307 0.59313 0.90836 0.0
C1097 C 0.03937 0.57275 0.92611 0.0
C1098 C 0.04827 0.54441 0.92933 0.0
C1099 C 0.07011 0.53653 0.91338 0.0
C1100 C 0.08371 0.55677 0.89577 0.0
H1101 H 0.05318 0.62617 0.82508 0.0
H1102 H 0.05042 0.59316 0.84576 0.0
H1103 H 0.04118 0.6266 0.85865 0.0
H1104 H 0.04683 0.61523 0.90729 0.0
H1105 H 0.02324 0.57978 0.93861 0.0
H1106 H 0.2848 0.15927 0.78816 0.0
H1107 H 0.31926 0.13214 0.81145 0.0
H1108 H 0.3679 0.21104 0.81828 0.0
H1109 H 0.33403 0.23814 0.79451 0.0
H1110 H 0.39905 0.16667 0.80487 0.0
H1111 H 0.33023 0.13189 0.88968 0.0
H1112 H 0.31762 0.12135 0.85879 0.0
H1113 H 0.32148 0.15908 0.86509 0.0
C1114 C 0.30283 0.17083 0.79464 0.0
C1115 C 0.30655 0.2009 0.78964 0.0
C1116 C 0.32246 0.15532 0.80803 0.0
C1117 C 0.34597 0.16963 0.81699 0.0
C1118 C 0.34992 0.19954 0.81161 0.0
H1119 H 0.4752 0.12501 0.92151 0.0
H1120 H 0.4493 0.14869 0.88674 0.0
C1121 C 0.33045 0.21501 0.79808 0.0
C1122 C 0.36626 0.15366 0.8324 0.0
H1123 H 0.37356 0.11202 0.88884 0.0
C1124 C 0.3935 0.15471 0.82324 0.0
C1125 C 0.35905 0.13828 0.85649 0.0
C1126 C 0.33058 0.13776 0.86827 0.0
C1127 C 0.4136 0.14042 0.83735 0.0
C1128 C 0.40625 0.12483 0.86123 0.0
C1129 C 0.37907 0.12378 0.87036 0.0
C1130 C 0.42626 0.10979 0.87767 0.0
C1131 C 0.44244 0.14177 0.82653 0.0
C1132 C 0.42261 0.07992 0.8834 0.0
C1133 C 0.4373 0.06639 0.9032 0.0
C1134 C 0.45581 0.08251 0.91786 0.0
C1135 C 0.4612 0.11196 0.91054 0.0
C1136 C 0.44638 0.12554 0.89066 0.0
H1137 H 0.44365 0.14927 0.80547 0.0
H1138 H 0.45499 0.15712 0.83764 0.0
H1139 H 0.45135 0.12025 0.82884 0.0
H1140 H 0.40723 0.06737 0.87357 0.0
H1141 H 0.4328 0.04361 0.90819 0.0
H1142 H 0.87082 0.28098 0.86083 0.0
H1143 H 0.88152 0.30909 0.8986 0.0
H1144 H 0.79787 0.29826 0.9261 0.0
H1145 H 0.78717 0.26981 0.88822 0.0
H1146 H 0.81727 0.35633 0.91718 0.0
H1147 H 0.88811 0.29479 0.97825 0.0
H1148 H 0.89721 0.29467 0.94402 0.0
H1149 H 0.86527 0.2777 0.95595 0.0
C1150 C 0.85504 0.28358 0.87555 0.0
C1151 C 0.82829 0.27313 0.87188 0.0
C1152 C 0.86111 0.29962 0.8971 0.0
C1153 C 0.84049 0.30558 0.91521 0.0
C1154 C 0.81407 0.29364 0.91245 0.0
H1155 H 0.9196 0.41884 0.02065 0.0
H1156 H 0.88114 0.38689 0.00967 0.0
C1157 C 0.80804 0.27725 0.89099 0.0
C1158 C 0.84611 0.32771 0.93432 0.0
H1159 H 0.8938 0.34712 0.9779 0.0
C1160 C 0.83345 0.35415 0.93109 0.0
C1161 C 0.86684 0.32469 0.95272 0.0
C1162 C 0.87993 0.2963 0.95815 0.0
C1163 C 0.84286 0.37848 0.94398 0.0
C1164 C 0.86564 0.37625 0.96014 0.0
C1165 C 0.87648 0.34905 0.96529 0.0
C1166 C 0.88129 0.40195 0.96877 0.0
C1167 C 0.82903 0.40655 0.93927 0.0
C1168 C 0.89287 0.42248 0.94986 0.0
C1169 C 0.91454 0.44115 0.95626 0.0
C1170 C 0.92506 0.43904 0.98148 0.0
C1171 C 0.91163 0.4208 0.00106 0.0
C1172 C 0.88975 0.40249 0.99478 0.0
H1173 H 0.80699 0.4025 0.93593 0.0
H1174 H 0.83142 0.42061 0.95603 0.0
H1175 H 0.83811 0.41824 0.92135 0.0
H1176 H 0.88713 0.42213 0.92954 0.0
H1177 H 0.92493 0.45477 0.94083 0.0
H1178 H 0.68407 0.75139 0.82114 0.0
H1179 H 0.66099 0.7757 0.85601 0.0
H1180 H 0.72934 0.83711 0.85846 0.0
H1181 H 0.75239 0.81332 0.82331 0.0
H1182 H 0.67481 0.79045 0.90749 0.0
H1183 H 0.66525 0.88724 0.83952 0.0
H1184 H 0.67522 0.85299 0.82833 0.0
H1185 H 0.69942 0.87623 0.84385 0.0
C1186 C 0.69437 0.76981 0.82935 0.0
C1187 C 0.71987 0.78072 0.8192 0.0
C1188 C 0.68117 0.78364 0.84928 0.0
C1189 C 0.69327 0.80851 0.85936 0.0
C1190 C 0.71946 0.81829 0.8505 0.0
H1191 H 0.6258 0.93536 0.95851 0.0
H1192 H 0.65703 0.9067 0.9341 0.0
C1193 C 0.73262 0.8046 0.83049 0.0
C1194 C 0.67766 0.82533 0.87773 0.0
H1195 H 0.64862 0.89018 0.88286 0.0
C1196 C 0.66914 0.81229 0.9022 0.0
C1197 C 0.67025 0.85377 0.87063 0.0
C1198 C 0.67776 0.86837 0.84408 0.0
C1199 C 0.65341 0.82706 0.91989 0.0
C1200 C 0.6458 0.85536 0.91265 0.0
C1201 C 0.65466 0.86852 0.88835 0.0
C1202 C 0.62759 0.87139 0.92937 0.0
C1203 C 0.64518 0.81235 0.94618 0.0
C1204 C 0.60069 0.86101 0.93467 0.0
C1205 C 0.58274 0.87733 0.94852 0.0
C1206 C 0.59134 0.90445 0.9572 0.0
C1207 C 0.61847 0.91459 0.95214 0.0
C1208 C 0.63638 0.89824 0.93823 0.0
H1209 H 0.65851 0.79438 0.95152 0.0
H1210 H 0.64587 0.82798 0.96187 0.0
H1211 H 0.62401 0.80317 0.94535 0.0
H1212 H 0.59336 0.84061 0.92749 0.0
H1213 H 0.56201 0.86885 0.95204 0.0
H1214 H 0.76168 0.69077 0.17974 0.0
H1215 H 0.78576 0.66728 0.14527 0.0
H1216 H 0.84657 0.73758 0.13956 0.0
H1217 H 0.82278 0.76116 0.17467 0.0
H1218 H 0.80122 0.68345 0.09384 0.0
H1219 H 0.89116 0.66696 0.1557 0.0
H1220 H 0.85934 0.67844 0.16881 0.0
H1221 H 0.88229 0.70394 0.15065 0.0
C1222 C 0.78008 0.70145 0.17108 0.0
C1223 C 0.79051 0.72772 0.18022 0.0
C1224 C 0.79378 0.68797 0.15129 0.0
C1225 C 0.81821 0.70038 0.14019 0.0
C1226 C 0.82801 0.72733 0.14827 0.0
H1227 H 0.93711 0.63496 0.03398 0.0
H1228 H 0.90948 0.66504 0.06041 0.0
C1229 C 0.81431 0.74088 0.16819 0.0
C1230 C 0.83387 0.68424 0.12114 0.0
H1231 H 0.89378 0.65132 0.11265 0.0
C1232 C 0.8215 0.67649 0.09788 0.0
C1233 C 0.86021 0.67492 0.1266 0.0
C1234 C 0.87401 0.68122 0.15188 0.0
C1235 C 0.8349 0.65994 0.07979 0.0
C1236 C 0.8612 0.65064 0.0853 0.0
C1237 C 0.87362 0.65854 0.10847 0.0
C1238 C 0.87649 0.63285 0.06735 0.0
C1239 C 0.82099 0.65285 0.0548 0.0
C1240 C 0.86701 0.60471 0.06227 0.0
C1241 C 0.88284 0.58727 0.04708 0.0
C1242 C 0.9085 0.59764 0.03687 0.0
C1243 C 0.91754 0.6261 0.04158 0.0
C1244 C 0.90176 0.64343 0.05669 0.0
H1245 H 0.80394 0.66715 0.05062 0.0
H1246 H 0.83565 0.65486 0.03784 0.0
H1247 H 0.81257 0.63019 0.05671 0.0
H1248 H 0.84775 0.59594 0.0707 0.0
H1249 H 0.87529 0.56546 0.04395 0.0
H1250 H 0.34539 0.80149 0.22721 0.0
H1251 H 0.37869 0.83196 0.20063 0.0
H1252 H 0.32134 0.83948 0.13844 0.0
H1253 H 0.28797 0.80863 0.16475 0.0
H1254 H 0.37388 0.82944 0.12034 0.0
H1255 H 0.37533 0.91941 0.18765 0.0
H1256 H 0.38286 0.88487 0.20271 0.0
H1257 H 0.3496 0.89028 0.19011 0.0
C1258 C 0.33982 0.80955 0.20785 0.0
C1259 C 0.31387 0.80271 0.1982 0.0
C1260 C 0.35889 0.82712 0.19272 0.0
C1261 C 0.35242 0.83842 0.16768 0.0
C1262 C 0.32678 0.83111 0.15774 0.0
H1263 H 0.41378 0.98331 0.07133 0.0
H1264 H 0.39161 0.94857 0.10335 0.0
C1265 C 0.30768 0.81351 0.17285 0.0
C1266 C 0.37216 0.85814 0.15192 0.0
H1267 H 0.40575 0.92445 0.15109 0.0
C1268 C 0.38101 0.85013 0.12712 0.0
C1269 C 0.38132 0.88525 0.16071 0.0
C1270 C 0.37166 0.89568 0.18664 0.0
C1271 C 0.39839 0.86863 0.11072 0.0
C1272 C 0.40755 0.89575 0.11951 0.0
C1273 C 0.39905 0.90352 0.1445 0.0
C1274 C 0.42314 0.91774 0.10193 0.0
C1275 C 0.40583 0.85953 0.08367 0.0
C1276 C 0.44889 0.91258 0.09106 0.0
C1277 C 0.46179 0.93264 0.07253 0.0
C1278 C 0.44913 0.95812 0.06456 0.0
C1279 C 0.4241 0.96381 0.07671 0.0
C1280 C 0.41133 0.94394 0.09513 0.0
H1281 H 0.39307 0.84055 0.07813 0.0
H1282 H 0.40358 0.87757 0.06874 0.0
H1283 H 0.42741 0.85361 0.08317 0.0
H1284 H 0.45871 0.89278 0.09641 0.0
H1285 H 0.48097 0.92755 0.06367 0.0
H1286 H 0.7612 0.1547 0.12994 0.0
H1287 H 0.74465 0.12515 0.09476 0.0
H1288 H 0.67785 0.09104 0.14543 0.0
H1289 H 0.69532 0.11857 0.18091 0.0
H1290 H 0.69172 0.05193 0.113 0.0
H1291 H 0.68255 0.15713 0.05604 0.0
H1292 H 0.71629 0.14687 0.06353 0.0
H1293 H 0.69326 0.15556 0.0895 0.0
C1294 C 0.74352 0.14013 0.13379 0.0
C1295 C 0.72902 0.13964 0.1579 0.0
C1296 C 0.73389 0.12354 0.11356 0.0
C1297 C 0.7094 0.10675 0.1171 0.0
C1298 C 0.69659 0.10409 0.14203 0.0
H1299 H 0.56405 0.09542 0.04554 0.0
H1300 H 0.60816 0.10578 0.06435 0.0
C1301 C 0.70641 0.12016 0.16226 0.0
C1302 C 0.69464 0.09497 0.09474 0.0
H1303 H 0.65745 0.11743 0.04254 0.0
C1304 C 0.68462 0.06604 0.0972 0.0
C1305 C 0.6855 0.11346 0.07407 0.0
C1306 C 0.69476 0.14501 0.07058 0.0
C1307 C 0.66361 0.05595 0.08146 0.0
C1308 C 0.6532 0.07509 0.06203 0.0
C1309 C 0.66534 0.10298 0.05767 0.0
C1310 C 0.62706 0.06865 0.04923 0.0
C1311 C 0.65122 0.0258 0.08736 0.0
C1312 C 0.62301 0.04448 0.03422 0.0
C1313 C 0.59749 0.03821 0.02382 0.0
C1314 C 0.57585 0.05634 0.02782 0.0
C1315 C 0.58032 0.08105 0.04206 0.0
C1316 C 0.60556 0.08701 0.05279 0.0
H1317 H 0.65862 0.01571 0.10594 0.0
H1318 H 0.62869 0.02607 0.08882 0.0
H1319 H 0.65669 0.01194 0.07123 0.0
H1320 H 0.63948 0.03045 0.0306 0.0
H1321 H 0.59495 0.01945 0.01242 0.0
H1322 H 0.65052 0.6087 0.7796 0.0
H1323 H 0.60816 0.58841 0.80008 0.0
H1324 H 0.56613 0.66233 0.76998 0.0
H1325 H 0.60884 0.68299 0.74973 0.0
H1326 H 0.56391 0.65747 0.82207 0.0
H1327 H 0.53486 0.55066 0.78764 0.0
H1328 H 0.57086 0.55252 0.79208 0.0
H1329 H 0.55627 0.57676 0.76796 0.0
C1330 C 0.63204 0.62009 0.77655 0.0
C1331 C 0.63295 0.6475 0.76339 0.0
C1332 C 0.6077 0.60832 0.78798 0.0
C1333 C 0.58384 0.62373 0.7864 0.0
C1334 C 0.58422 0.64995 0.77122 0.0
H1335 H 0.48801 0.54198 0.92012 0.0
H1336 H 0.49007 0.56898 0.87729 0.0
C1337 C 0.60862 0.6617 0.75963 0.0
C1338 C 0.56125 0.61566 0.80546 0.0
H1339 H 0.53106 0.55493 0.83625 0.0
C1340 C 0.55571 0.63533 0.82461 0.0
C1341 C 0.54998 0.58704 0.80867 0.0
C1342 C 0.55311 0.56571 0.78775 0.0
C1343 C 0.54275 0.62596 0.8485 0.0
C1344 C 0.5354 0.59634 0.85323 0.0
C1345 C 0.53727 0.57761 0.83272 0.0
C1346 C 0.53223 0.58347 0.88024 0.0
C1347 C 0.53934 0.6472 0.86947 0.0
C1348 C 0.55521 0.58299 0.89597 0.0
C1349 C 0.55422 0.56746 0.92014 0.0
C1350 C 0.53014 0.5523 0.9291 0.0
C1351 C 0.50677 0.55375 0.91379 0.0
C1352 C 0.50789 0.56903 0.88934 0.0
H1353 H 0.53771 0.66952 0.86073 0.0
H1354 H 0.52098 0.64123 0.88207 0.0
H1355 H 0.5574 0.64709 0.88207 0.0
H1356 H 0.5743 0.59369 0.88901 0.0
H1357 H 0.57248 0.56678 0.93154 0.0
H1358 H 0.31107 0.66379 0.76582 0.0
H1359 H 0.34185 0.63533 0.79285 0.0
H1360 H 0.34057 0.69895 0.85112 0.0
H1361 H 0.30996 0.72747 0.82443 0.0
H1362 H 0.39561 0.65301 0.81603 0.0
H1363 H 0.31297 0.61949 0.88914 0.0
H1364 H 0.30627 0.63336 0.85629 0.0
H1365 H 0.31676 0.65766 0.88068 0.0
C1366 C 0.31747 0.67182 0.78431 0.0
C1367 C 0.30784 0.6978 0.79304 0.0
C1368 C 0.33513 0.65557 0.79967 0.0
C1369 C 0.34328 0.66495 0.82405 0.0
C1370 C 0.33432 0.69123 0.83245 0.0
H1371 H 0.46156 0.61072 0.93676 0.0
H1372 H 0.43855 0.63482 0.9003 0.0
C1373 C 0.31681 0.7075 0.81713 0.0
C1374 C 0.36003 0.64674 0.84145 0.0
H1375 H 0.35771 0.60827 0.9005 0.0
C1376 C 0.38736 0.64304 0.83443 0.0
C1377 C 0.34909 0.63353 0.86528 0.0
C1378 C 0.31961 0.63593 0.87331 0.0
C1379 C 0.40426 0.62705 0.85106 0.0
C1380 C 0.3935 0.61468 0.87533 0.0
C1381 C 0.36599 0.61784 0.88194 0.0
C1382 C 0.41024 0.59872 0.89458 0.0
C1383 C 0.43337 0.62338 0.84249 0.0
C1384 C 0.40226 0.57027 0.9033 0.0
C1385 C 0.41519 0.55653 0.92425 0.0
C1386 C 0.43632 0.57101 0.93712 0.0
C1387 C 0.44529 0.59896 0.92742 0.0
C1388 C 0.43227 0.61273 0.90642 0.0
H1389 H 0.43635 0.62719 0.82091 0.0
H1390 H 0.44681 0.63927 0.85208 0.0
H1391 H 0.43985 0.60137 0.84833 0.0
H1392 H 0.38534 0.55903 0.89444 0.0
H1393 H 0.40789 0.53491 0.93097 0.0
H1394 H 0.28986 0.3972 0.79199 0.0
H1395 H 0.30723 0.42707 0.82656 0.0
H1396 H 0.38834 0.40019 0.81038 0.0
H1397 H 0.37091 0.37016 0.77612 0.0
H1398 H 0.3308 0.39397 0.86764 0.0
H1399 H 0.40106 0.4849 0.83077 0.0
H1400 H 0.37478 0.46941 0.81095 0.0
H1401 H 0.40635 0.4519 0.815 0.0
C1402 C 0.3116 0.39911 0.79482 0.0
C1403 C 0.32919 0.38178 0.78134 0.0
C1404 C 0.32146 0.41595 0.81469 0.0
C1405 C 0.34905 0.41587 0.82097 0.0
C1406 C 0.36707 0.40098 0.80553 0.0
H1407 H 0.4443 0.3962 0.95202 0.0
H1408 H 0.41102 0.39129 0.91768 0.0
C1409 C 0.35717 0.38391 0.78589 0.0
C1410 C 0.35801 0.42551 0.84661 0.0
H1411 H 0.40803 0.46545 0.87485 0.0
C1412 C 0.34723 0.41014 0.86932 0.0
C1413 C 0.37937 0.44657 0.84873 0.0
C1414 C 0.39093 0.46436 0.82508 0.0
C1415 C 0.35856 0.41389 0.89389 0.0
C1416 C 0.38119 0.43343 0.89568 0.0
C1417 C 0.39074 0.45029 0.87332 0.0
C1418 C 0.39702 0.43464 0.91981 0.0
C1419 C 0.34696 0.39616 0.91757 0.0
C1420 C 0.39939 0.46025 0.93296 0.0
C1421 C 0.41818 0.46301 0.95282 0.0
C1422 C 0.4354 0.44046 0.9594 0.0
C1423 C 0.43149 0.41405 0.94745 0.0
C1424 C 0.41246 0.4112 0.92779 0.0
H1425 H 0.32579 0.38792 0.91444 0.0
H1426 H 0.35964 0.3773 0.92144 0.0
H1427 H 0.34715 0.40907 0.93523 0.0
H1428 H 0.38758 0.47854 0.92707 0.0
H1429 H 0.42036 0.48349 0.96174 0.0
H1430 H 0.75717 0.33179 0.8068 0.0
H1431 H 0.73373 0.36177 0.83704 0.0
H1432 H 0.65953 0.34965 0.79498 0.0
H1433 H 0.68294 0.3198 0.76429 0.0
H1434 H 0.66938 0.40707 0.81475 0.0
H1435 H 0.67941 0.31678 0.8899 0.0
H1436 H 0.71072 0.33103 0.87431 0.0
H1437 H 0.68564 0.3128 0.85536 0.0
C1438 C 0.736 0.33599 0.80361 0.0
C1439 C 0.72174 0.32309 0.78342 0.0
C1440 C 0.72267 0.35309 0.82093 0.0
C1441 C 0.69484 0.35735 0.8185 0.0
C1442 C 0.68103 0.34643 0.79718 0.0
H1443 H 0.57224 0.3848 0.93403 0.0
H1444 H 0.60245 0.36797 0.90024 0.0
C1445 C 0.69442 0.32942 0.77968 0.0
C1446 C 0.67957 0.37041 0.83968 0.0
H1447 H 0.65832 0.35806 0.9036 0.0
C1448 C 0.66704 0.39653 0.83424 0.0
C1449 C 0.6764 0.3563 0.86495 0.0
C1450 C 0.68853 0.32756 0.87155 0.0
C1451 C 0.65124 0.40891 0.85351 0.0
C1452 C 0.6482 0.39483 0.87879 0.0
C1453 C 0.66092 0.36885 0.88423 0.0
C1454 C 0.63034 0.4055 0.89941 0.0
C1455 C 0.63722 0.43642 0.8465 0.0
C1456 C 0.63634 0.43199 0.91044 0.0
C1457 C 0.6191 0.44173 0.92987 0.0
C1458 C 0.59562 0.42506 0.9386 0.0
C1459 C 0.59006 0.39826 0.92778 0.0
C1460 C 0.60729 0.38858 0.90843 0.0
H1461 H 0.6375 0.44156 0.82498 0.0
H1462 H 0.61576 0.43478 0.85389 0.0
H1463 H 0.64775 0.45466 0.85589 0.0
H1464 H 0.65434 0.44508 0.90403 0.0
H1465 H 0.62402 0.46244 0.93781 0.0
H1466 H 0.68936 0.26829 0.18231 0.0
H1467 H 0.65878 0.2961 0.15499 0.0
H1468 H 0.65748 0.36137 0.21171 0.0
H1469 H 0.68831 0.33363 0.23939 0.0
H1470 H 0.60338 0.34217 0.18836 0.0
H1471 H 0.68661 0.37537 0.11575 0.0
H1472 H 0.68329 0.33739 0.12517 0.0
H1473 H 0.69305 0.36265 0.14901 0.0
C1474 C 0.68252 0.28848 0.18915 0.0
C1475 C 0.69151 0.29883 0.213 0.0
C1476 C 0.66501 0.30433 0.17347 0.0
C1477 C 0.65603 0.33085 0.18124 0.0
C1478 C 0.66421 0.34092 0.20538 0.0
H1479 H 0.59106 0.45777 0.07137 0.0
H1480 H 0.61351 0.43463 0.10843 0.0
C1481 C 0.68189 0.32509 0.22111 0.0
C1482 C 0.63927 0.34856 0.16338 0.0
H1483 H 0.64188 0.38577 0.1037 0.0
C1484 C 0.61176 0.35191 0.16992 0.0
C1485 C 0.65035 0.36143 0.13948 0.0
C1486 C 0.67999 0.35931 0.1319 0.0
C1487 C 0.59485 0.36723 0.15276 0.0
C1488 C 0.60578 0.37926 0.12843 0.0
C1489 C 0.63347 0.37646 0.1223 0.0
C1490 C 0.58909 0.39459 0.10868 0.0
C1491 C 0.56554 0.37056 0.16084 0.0
C1492 C 0.56735 0.38006 0.09682 0.0
C1493 C 0.55435 0.39329 0.07551 0.0
C1494 C 0.56305 0.4212 0.0655 0.0
C1495 C 0.58393 0.43617 0.07832 0.0
C1496 C 0.59682 0.42298 0.09958 0.0
H1497 H 0.56227 0.36714 0.18242 0.0
H1498 H 0.5588 0.39232 0.15452 0.0
H1499 H 0.5525 0.35422 0.15135 0.0
H1500 H 0.56126 0.35799 0.10322 0.0
H1501 H 0.5383 0.38116 0.06621 0.0
H1502 H 0.71265 0.62271 0.18766 0.0
H1503 H 0.68947 0.59213 0.15721 0.0
H1504 H 0.61977 0.58148 0.21045 0.0
H1505 H 0.64262 0.61378 0.24046 0.0
H1506 H 0.66332 0.54239 0.15031 0.0
H1507 H 0.58997 0.63003 0.15155 0.0
H1508 H 0.62074 0.63124 0.16982 0.0
H1509 H 0.59166 0.60896 0.18195 0.0
C1510 C 0.69276 0.61294 0.19329 0.0
C1511 C 0.67905 0.62101 0.21596 0.0
C1512 C 0.67951 0.59544 0.17589 0.0
C1513 C 0.65246 0.58553 0.18107 0.0
C1514 C 0.64033 0.58981 0.2057 0.0
H1515 H 0.56052 0.5033 0.05962 0.0
H1516 H 0.59044 0.51113 0.09582 0.0
C1517 C 0.65347 0.60789 0.223 0.0
C1518 C 0.63612 0.57583 0.15891 0.0
H1519 H 0.58367 0.59565 0.12049 0.0
C1520 C 0.64575 0.55384 0.14384 0.0
C1521 C 0.61367 0.5914 0.1501 0.0
C1522 C 0.6035 0.61688 0.164 0.0
C1523 C 0.63397 0.54744 0.11994 0.0
C1524 C 0.6113 0.56278 0.11138 0.0
C1525 C 0.60122 0.58411 0.12688 0.0
C1526 C 0.59716 0.55714 0.08672 0.0
C1527 C 0.64672 0.52523 0.10368 0.0
C1528 C 0.59091 0.58034 0.06927 0.0
C1529 C 0.57307 0.57601 0.04882 0.0
C1530 C 0.56173 0.54829 0.04516 0.0
C1531 C 0.56955 0.52481 0.06146 0.0
C1532 C 0.58675 0.52924 0.08227 0.0
H1533 H 0.66857 0.52323 0.1081 0.0
H1534 H 0.63622 0.5038 0.1084 0.0
H1535 H 0.64505 0.53072 0.08235 0.0
H1536 H 0.59873 0.60209 0.0723 0.0
H1537 H 0.56722 0.59447 0.03665 0.0
H1538 H 0.25041 0.66756 0.19883 0.0
H1539 H 0.27054 0.63327 0.17049 0.0
H1540 H 0.34827 0.6483 0.20586 0.0
H1541 H 0.32804 0.68228 0.23478 0.0
H1542 H 0.30959 0.65233 0.13505 0.0
H1543 H 0.34697 0.56155 0.1972 0.0
H1544 H 0.32224 0.58566 0.209 0.0
H1545 H 0.35789 0.59633 0.20789 0.0
C1546 C 0.27163 0.66294 0.20111 0.0
C1547 C 0.28776 0.67775 0.21884 0.0
C1548 C 0.28307 0.64332 0.18491 0.0
C1549 C 0.31087 0.63819 0.18608 0.0
C1550 C 0.32666 0.65152 0.20496 0.0
H1551 H 0.4244 0.60914 0.06406 0.0
H1552 H 0.39472 0.62672 0.09793 0.0
C1553 C 0.31512 0.67102 0.22142 0.0
C1554 C 0.32397 0.6226 0.16503 0.0
H1555 H 0.36618 0.56819 0.15331 0.0
C1556 C 0.32162 0.63365 0.13905 0.0
C1557 C 0.33949 0.59815 0.17023 0.0
C1558 C 0.34161 0.58453 0.19757 0.0
C1559 C 0.33525 0.62163 0.11823 0.0
C1560 C 0.35196 0.59823 0.12359 0.0
C1561 C 0.35346 0.58633 0.14937 0.0
C1562 C 0.36944 0.58726 0.10285 0.0
C1563 C 0.33203 0.63437 0.09069 0.0
C1564 C 0.36507 0.55916 0.09457 0.0
C1565 C 0.38197 0.549 0.07505 0.0
C1566 C 0.40371 0.56672 0.06381 0.0
C1567 C 0.40788 0.59491 0.07223 0.0
C1568 C 0.39091 0.60505 0.09156 0.0
H1569 H 0.31341 0.64692 0.08904 0.0
H1570 H 0.34985 0.64922 0.08518 0.0
H1571 H 0.33107 0.61716 0.07643 0.0
H1572 H 0.34858 0.54515 0.10318 0.0
H1573 H 0.37832 0.52712 0.06915 0.0
H1574 H 0.3908 0.31299 0.25226 0.0
H1575 H 0.43451 0.33308 0.2339 0.0
H1576 H 0.39472 0.4077 0.20197 0.0
H1577 H 0.35138 0.38803 0.22067 0.0
H1578 H 0.43844 0.33691 0.18234 0.0
H1579 H 0.46809 0.44425 0.21473 0.0
H1580 H 0.4459 0.41908 0.23458 0.0
H1581 H 0.43219 0.44323 0.20981 0.0
C1582 C 0.39169 0.33434 0.24242 0.0
C1583 C 0.36774 0.34886 0.23751 0.0
C1584 C 0.41668 0.34577 0.23193 0.0
C1585 C 0.41799 0.37195 0.21665 0.0
C1586 C 0.39446 0.3878 0.21415 0.0
H1587 H 0.42712 0.42461 0.07197 0.0
H1588 H 0.42664 0.3986 0.11493 0.0
C1589 C 0.36956 0.37637 0.22454 0.0
C1590 C 0.4411 0.37923 0.19799 0.0
H1591 H 0.47111 0.43922 0.16584 0.0
C1592 C 0.44666 0.359 0.17934 0.0
C1593 C 0.45249 0.40776 0.19419 0.0
C1594 C 0.44954 0.42964 0.21465 0.0
C1595 C 0.45941 0.36777 0.15521 0.0
C1596 C 0.46653 0.39733 0.14978 0.0
C1597 C 0.46498 0.4166 0.1699 0.0
C1598 C 0.46887 0.40955 0.12253 0.0
C1599 C 0.46267 0.34598 0.13471 0.0
C1600 C 0.49285 0.4241 0.11266 0.0
C1601 C 0.49318 0.43886 0.088 0.0
C1602 C 0.4694 0.43963 0.07321 0.0
C1603 C 0.44568 0.42439 0.08295 0.0
C1604 C 0.44546 0.40938 0.10736 0.0
H1605 H 0.46467 0.32392 0.1439 0.0
H1606 H 0.44438 0.34551 0.12242 0.0
H1607 H 0.48077 0.35182 0.12172 0.0
H1608 H 0.51098 0.42468 0.12427 0.0
H1609 H 0.51167 0.45079 0.08111 0.0
H1610 H 0.75673 0.68126 0.67836 0.0
H1611 H 0.78319 0.6589 0.64445 0.0
H1612 H 0.83935 0.73332 0.63839 0.0
H1613 H 0.81321 0.75586 0.6723 0.0
H1614 H 0.80303 0.67968 0.59051 0.0
H1615 H 0.88436 0.6622 0.66273 0.0
H1616 H 0.85021 0.67044 0.67242 0.0
H1617 H 0.87338 0.69854 0.65843 0.0
C1618 C 0.77443 0.69312 0.66949 0.0
C1619 C 0.78309 0.72017 0.67827 0.0
C1620 C 0.78948 0.68031 0.65012 0.0
C1621 C 0.81336 0.69434 0.63931 0.0
C1622 C 0.82111 0.72208 0.6468 0.0
H1623 H 0.94788 0.63652 0.54688 0.0
H1624 H 0.91667 0.66456 0.57185 0.0
C1625 C 0.80611 0.73491 0.66613 0.0
C1626 C 0.83141 0.67902 0.6219 0.0
H1627 H 0.89301 0.64844 0.61976 0.0
C1628 C 0.82272 0.67282 0.5968 0.0
C1629 C 0.85699 0.67012 0.63034 0.0
C1630 C 0.86682 0.6754 0.65751 0.0
C1631 C 0.83928 0.65826 0.57964 0.0
C1632 C 0.86484 0.64923 0.58815 0.0
C1633 C 0.87345 0.65549 0.61328 0.0
C1634 C 0.88298 0.63288 0.57158 0.0
C1635 C 0.82949 0.65314 0.55245 0.0
C1636 C 0.8744 0.60569 0.56329 0.0
C1637 C 0.89216 0.58959 0.54895 0.0
C1638 C 0.91895 0.60028 0.54289 0.0
C1639 C 0.92743 0.62758 0.55123 0.0
C1640 C 0.90961 0.64368 0.56546 0.0
H1641 H 0.81352 0.66817 0.54655 0.0
H1642 H 0.84656 0.65574 0.53774 0.0
H1643 H 0.82059 0.63074 0.55212 0.0
H1644 H 0.85414 0.59664 0.56837 0.0
H1645 H 0.88499 0.56859 0.54297 0.0
H1646 H 0.31889 0.8265 0.73297 0.0
H1647 H 0.3516 0.85649 0.70522 0.0
H1648 H 0.34412 0.79614 0.64438 0.0
H1649 H 0.31119 0.76603 0.67195 0.0
H1650 H 0.40256 0.8441 0.68049 0.0
H1651 H 0.32457 0.87413 0.6082 0.0
H1652 H 0.31567 0.85763 0.64031 0.0
H1653 H 0.32784 0.836 0.61483 0.0
C1654 C 0.32425 0.81947 0.71374 0.0
C1655 C 0.31216 0.7939 0.70466 0.0
C1656 C 0.34307 0.83663 0.69792 0.0
C1657 C 0.35014 0.82879 0.67258 0.0
C1658 C 0.33873 0.80287 0.66371 0.0
H1659 H 0.47321 0.91781 0.56346 0.0
H1660 H 0.45062 0.88179 0.59497 0.0
C1661 C 0.31995 0.78561 0.67956 0.0
C1662 C 0.3685 0.84842 0.65515 0.0
H1663 H 0.36945 0.8923 0.59899 0.0
C1664 C 0.39541 0.85452 0.66258 0.0
C1665 C 0.3591 0.86223 0.63188 0.0
C1666 C 0.33017 0.85744 0.62332 0.0
C1667 C 0.41306 0.87411 0.64742 0.0
C1668 C 0.40358 0.88792 0.62422 0.0
C1669 C 0.37677 0.88161 0.61672 0.0
C1670 C 0.42028 0.91042 0.60816 0.0
C1671 C 0.44143 0.88059 0.65666 0.0
C1672 C 0.41129 0.93864 0.60556 0.0
C1673 C 0.42423 0.95917 0.58779 0.0
C1674 C 0.44652 0.95203 0.57204 0.0
C1675 C 0.45656 0.92423 0.57568 0.0
C1676 C 0.44349 0.90354 0.59357 0.0
H1677 H 0.44426 0.87168 0.67702 0.0
H1678 H 0.45632 0.87091 0.6435 0.0
H1679 H 0.44609 0.90429 0.6558 0.0
H1680 H 0.3935 0.94452 0.6166 0.0
H1681 H 0.41591 0.98035 0.58546 0.0
H1682 H 0.2176 0.344 0.70575 0.0
H1683 H 0.18427 0.37099 0.68077 0.0
H1684 H 0.1308 0.2945 0.68193 0.0
H1685 H 0.16365 0.26755 0.70721 0.0
H1686 H 0.16588 0.3595 0.63228 0.0
H1687 H 0.07877 0.35466 0.70359 0.0
H1688 H 0.11271 0.34604 0.71296 0.0
H1689 H 0.09129 0.31988 0.69751 0.0
C1690 C 0.19862 0.33301 0.70092 0.0
C1691 C 0.19328 0.30364 0.70854 0.0
C1692 C 0.17958 0.34846 0.68668 0.0
C1693 C 0.15482 0.33491 0.67988 0.0
C1694 C 0.14942 0.30563 0.68753 0.0
H1695 H 0.03164 0.3811 0.56822 0.0
H1696 H 0.05643 0.35717 0.60379 0.0
C1697 C 0.16837 0.29019 0.70182 0.0
C1698 C 0.13554 0.35077 0.66315 0.0
H1699 H 0.06966 0.37083 0.65955 0.0
C1700 C 0.14492 0.36218 0.63836 0.0
C1701 C 0.10811 0.35406 0.67102 0.0
C1702 C 0.09714 0.34325 0.69782 0.0
C1703 C 0.12759 0.3764 0.62108 0.0
C1704 C 0.10019 0.37968 0.62892 0.0
C1705 C 0.09069 0.36826 0.65365 0.0
C1706 C 0.08148 0.3952 0.61142 0.0
C1707 C 0.13862 0.38741 0.59432 0.0
C1708 C 0.08641 0.42478 0.60501 0.0
C1709 C 0.07239 0.43844 0.58478 0.0
C1710 C 0.05308 0.42278 0.57063 0.0
C1711 C 0.04639 0.39375 0.57872 0.0
C1712 C 0.06059 0.38002 0.59897 0.0
H1713 H 0.15816 0.37777 0.58924 0.0
H1714 H 0.12377 0.3826 0.57894 0.0
H1715 H 0.14226 0.41122 0.59409 0.0
H1716 H 0.10218 0.43694 0.61469 0.0
H1717 H 0.07781 0.46092 0.57927 0.0
H1718 H 0.72315 0.20285 0.62361 0.0
H1719 H 0.70537 0.17162 0.59096 0.0
H1720 H 0.62365 0.19331 0.6117 0.0
H1721 H 0.64141 0.22679 0.64296 0.0
H1722 H 0.67565 0.12482 0.59915 0.0
H1723 H 0.61954 0.19852 0.53408 0.0
H1724 H 0.64274 0.21172 0.55797 0.0
H1725 H 0.60805 0.20082 0.56741 0.0
C1726 C 0.70144 0.20207 0.62061 0.0
C1727 C 0.68376 0.21779 0.63587 0.0
C1728 C 0.69129 0.18376 0.60209 0.0
C1729 C 0.66322 0.18034 0.59861 0.0
C1730 C 0.64546 0.19615 0.61353 0.0
H1731 H 0.56443 0.03752 0.56171 0.0
H1732 H 0.6018 0.06707 0.5783 0.0
C1733 C 0.65564 0.21497 0.63175 0.0
C1734 C 0.65244 0.1585 0.58101 0.0
H1735 H 0.60534 0.14787 0.53444 0.0
C1736 C 0.66065 0.12996 0.58461 0.0
C1737 C 0.63347 0.16525 0.56154 0.0
C1738 C 0.62572 0.19583 0.55483 0.0
C1739 C 0.64914 0.10768 0.57039 0.0
C1740 C 0.6282 0.11397 0.55281 0.0
C1741 C 0.62122 0.14282 0.54809 0.0
C1742 C 0.6111 0.09109 0.5412 0.0
C1743 C 0.65943 0.0777 0.5746 0.0
C1744 C 0.60429 0.09407 0.51466 0.0
C1745 C 0.58234 0.07782 0.50547 0.0
C1746 C 0.5674 0.0579 0.52254 0.0
C1747 C 0.57602 0.05253 0.5482 0.0
C1748 C 0.5975 0.06937 0.55762 0.0
H1749 H 0.68145 0.07869 0.57898 0.0
H1750 H 0.64849 0.06644 0.59179 0.0
H1751 H 0.65633 0.06474 0.5572 0.0
H1752 H 0.61454 0.11056 0.50159 0.0
H1753 H 0.57586 0.08221 0.48556 0.0
H1754 H 0.78604 0.32032 0.38301 0.0
H1755 H 0.8048 0.35352 0.41395 0.0
H1756 H 0.77117 0.42517 0.37023 0.0
H1757 H 0.75235 0.39161 0.33893 0.0
H1758 H 0.82584 0.43096 0.37406 0.0
H1759 H 0.7821 0.40243 0.47282 0.0
H1760 H 0.79114 0.37032 0.45745 0.0
H1761 H 0.76526 0.39222 0.44341 0.0
C1762 C 0.78187 0.34303 0.38055 0.0
C1763 C 0.76792 0.35355 0.35866 0.0
C1764 C 0.79236 0.36199 0.39837 0.0
C1765 C 0.7891 0.39182 0.39463 0.0
C1766 C 0.77361 0.40218 0.37365 0.0
H1767 H 0.92214 0.49918 0.45763 0.0
H1768 H 0.87632 0.49025 0.44147 0.0
C1769 C 0.76287 0.38308 0.35584 0.0
C1770 C 0.80637 0.4118 0.40949 0.0
H1771 H 0.83049 0.41902 0.47093 0.0
C1772 C 0.82635 0.42925 0.39531 0.0
C1773 C 0.80692 0.4096 0.43719 0.0
C1774 C 0.78497 0.39284 0.45355 0.0
C1775 C 0.84857 0.44189 0.40786 0.0
C1776 C 0.85048 0.43732 0.43538 0.0
C1777 C 0.82913 0.42222 0.4498 0.0
C1778 C 0.87623 0.44384 0.4487 0.0
C1779 C 0.87099 0.45777 0.3913 0.0
C1780 C 0.89085 0.42083 0.45912 0.0
C1781 C 0.91688 0.42584 0.4686 0.0
C1782 C 0.92885 0.45402 0.46783 0.0
C1783 C 0.91361 0.47721 0.4585 0.0
C1784 C 0.88745 0.47216 0.44912 0.0
H1785 H 0.868 0.4559 0.36996 0.0
H1786 H 0.87154 0.48105 0.3953 0.0
H1787 H 0.89106 0.44929 0.39629 0.0
H1788 H 0.88255 0.39879 0.45897 0.0
H1789 H 0.92788 0.40748 0.47584 0.0
H1790 H 0.67674 0.74864 0.31986 0.0
H1791 H 0.65271 0.77328 0.35411 0.0
H1792 H 0.72093 0.83461 0.35781 0.0
H1793 H 0.74495 0.81043 0.32361 0.0
H1794 H 0.66741 0.7884 0.40668 0.0
H1795 H 0.65597 0.88451 0.33841 0.0
H1796 H 0.66544 0.85007 0.32722 0.0
H1797 H 0.69021 0.87335 0.34193 0.0
C1798 C 0.68678 0.76711 0.32824 0.0
C1799 C 0.71262 0.77776 0.31878 0.0
C1800 C 0.67302 0.78117 0.34777 0.0
C1801 C 0.68487 0.80607 0.35809 0.0
C1802 C 0.71124 0.81575 0.34973 0.0
H1803 H 0.62068 0.93491 0.45786 0.0
H1804 H 0.65061 0.90636 0.43172 0.0
C1805 C 0.72496 0.8018 0.33024 0.0
C1806 C 0.66919 0.82286 0.37654 0.0
H1807 H 0.64076 0.88802 0.38223 0.0
C1808 C 0.66155 0.81017 0.40139 0.0
C1809 C 0.66167 0.85129 0.36956 0.0
C1810 C 0.6685 0.86561 0.34276 0.0
C1811 C 0.64674 0.82531 0.41957 0.0
C1812 C 0.63897 0.85364 0.41246 0.0
C1813 C 0.64685 0.86637 0.38769 0.0
C1814 C 0.62159 0.87005 0.42986 0.0
C1815 C 0.6399 0.811 0.44634 0.0
C1816 C 0.59532 0.85918 0.43738 0.0
C1817 C 0.57819 0.87538 0.45229 0.0
C1818 C 0.58686 0.90299 0.45986 0.0
C1819 C 0.61332 0.91375 0.45245 0.0
C1820 C 0.63047 0.89747 0.43751 0.0
H1821 H 0.65391 0.79357 0.45141 0.0
H1822 H 0.64083 0.82694 0.46175 0.0
H1823 H 0.61892 0.8011 0.44643 0.0
H1824 H 0.58778 0.8384 0.43118 0.0
H1825 H 0.55794 0.86638 0.45751 0.0
H1826 H 0.17028 0.6931 0.26461 0.0
H1827 H 0.1375 0.6631 0.29216 0.0
H1828 H 0.18432 0.68043 0.36036 0.0
H1829 H 0.21784 0.70936 0.33266 0.0
H1830 H 0.171 0.6263 0.36145 0.0
H1831 H 0.07751 0.68357 0.33985 0.0
H1832 H 0.09336 0.67222 0.31046 0.0
H1833 H 0.11087 0.6984 0.32959 0.0
C1834 C 0.17348 0.6907 0.28551 0.0
C1835 C 0.19666 0.70366 0.29645 0.0
C1836 C 0.15454 0.67373 0.30132 0.0
C1837 C 0.15797 0.66992 0.32853 0.0
C1838 C 0.18105 0.68308 0.33947 0.0
H1839 H 0.03871 0.58819 0.44333 0.0
H1840 H 0.06425 0.62309 0.41291 0.0
C1841 C 0.20024 0.69963 0.32361 0.0
C1842 C 0.13858 0.65074 0.34533 0.0
H1843 H 0.07109 0.636 0.36082 0.0
C1844 C 0.14918 0.62865 0.3614 0.0
C1845 C 0.11005 0.65393 0.34575 0.0
C1846 C 0.09731 0.67852 0.3307 0.0
C1847 C 0.13222 0.60944 0.37739 0.0
C1848 C 0.1036 0.61148 0.37657 0.0
C1849 C 0.09294 0.634 0.36104 0.0
C1850 C 0.08468 0.59058 0.39207 0.0
C1851 C 0.14533 0.58755 0.39544 0.0
C1852 C 0.08639 0.56073 0.38951 0.0
C1853 C 0.07213 0.54092 0.40701 0.0
C1854 C 0.05514 0.55049 0.42689 0.0
C1855 C 0.05137 0.58024 0.42794 0.0
C1856 C 0.06614 0.60018 0.41069 0.0
H1857 H 0.16655 0.59464 0.39976 0.0
H1858 H 0.13366 0.58376 0.4143 0.0
H1859 H 0.1461 0.56675 0.3858 0.0
H1860 H 0.09982 0.55274 0.37476 0.0
H1861 H 0.07534 0.51808 0.40577 0.0
H1862 H 0.33674 0.22568 0.28228 0.0
H1863 H 0.36965 0.19681 0.30548 0.0
H1864 H 0.31055 0.12503 0.31446 0.0
H1865 H 0.27738 0.15374 0.29085 0.0
H1866 H 0.36258 0.17419 0.35651 0.0
H1867 H 0.37934 0.08707 0.28859 0.0
H1868 H 0.36395 0.12036 0.27847 0.0
H1869 H 0.34425 0.09212 0.29683 0.0
C1870 C 0.33073 0.20366 0.28896 0.0
C1871 C 0.30437 0.19201 0.28477 0.0
C1872 C 0.34963 0.18718 0.30216 0.0
C1873 C 0.34268 0.15868 0.31136 0.0
C1874 C 0.31651 0.1468 0.307 0.0
H1875 H 0.40782 0.03578 0.42 0.0
H1876 H 0.38494 0.05984 0.38369 0.0
C1877 C 0.29752 0.1633 0.29372 0.0
C1878 C 0.36214 0.14243 0.3274 0.0
H1879 H 0.39741 0.08073 0.33135 0.0
C1880 C 0.37045 0.15392 0.35089 0.0
C1881 C 0.37225 0.11596 0.31998 0.0
C1882 C 0.36472 0.10321 0.29448 0.0
C1883 C 0.38798 0.13926 0.36762 0.0
C1884 C 0.39797 0.11266 0.36035 0.0
C1885 C 0.38992 0.10127 0.3367 0.0
C1886 C 0.41493 0.09543 0.3783 0.0
C1887 C 0.39476 0.15186 0.39344 0.0
C1888 C 0.4402 0.10664 0.38628 0.0
C1889 C 0.45334 0.09303 0.40723 0.0
C1890 C 0.44139 0.06792 0.4204 0.0
C1891 C 0.41743 0.0553 0.41057 0.0
C1892 C 0.4043 0.06897 0.38974 0.0
H1893 H 0.38091 0.16909 0.39842 0.0
H1894 H 0.39353 0.1348 0.40965 0.0
H1895 H 0.41585 0.1615 0.39221 0.0
H1896 H 0.449 0.12675 0.37727 0.0
H1897 H 0.47195 0.10313 0.41403 0.0
H1898 H 0.72138 0.84367 0.70726 0.0
H1899 H 0.68813 0.8732 0.68478 0.0
H1900 H 0.63168 0.79913 0.68542 0.0
H1901 H 0.66448 0.76963 0.7082 0.0
H1902 H 0.66703 0.86431 0.63664 0.0
H1903 H 0.58356 0.86082 0.71178 0.0
H1904 H 0.61754 0.85048 0.71931 0.0
H1905 H 0.59429 0.8257 0.7043 0.0
C1906 C 0.70181 0.83373 0.70281 0.0
C1907 C 0.69558 0.80431 0.70954 0.0
C1908 C 0.68281 0.85065 0.69003 0.0
C1909 C 0.65724 0.8385 0.68389 0.0
C1910 C 0.65099 0.80916 0.6906 0.0
H1911 H 0.5301 0.88531 0.57982 0.0
H1912 H 0.55631 0.86327 0.61514 0.0
C1913 C 0.6699 0.79225 0.7034 0.0
C1914 C 0.63793 0.85586 0.66862 0.0
H1915 H 0.5726 0.87784 0.66832 0.0
C1916 C 0.64651 0.86759 0.64371 0.0
C1917 C 0.61109 0.85991 0.67784 0.0
C1918 C 0.60111 0.8488 0.70488 0.0
C1919 C 0.62878 0.88258 0.62743 0.0
C1920 C 0.60187 0.8864 0.63651 0.0
C1921 C 0.59328 0.87493 0.66151 0.0
C1922 C 0.58235 0.90146 0.61963 0.0
C1923 C 0.63875 0.89342 0.60027 0.0
C1924 C 0.58733 0.93067 0.61163 0.0
C1925 C 0.57252 0.94329 0.59142 0.0
C1926 C 0.55238 0.9269 0.57896 0.0
C1927 C 0.54559 0.89847 0.58887 0.0
C1928 C 0.56056 0.88582 0.60904 0.0
H1929 H 0.65787 0.88344 0.59434 0.0
H1930 H 0.62313 0.88887 0.58554 0.0
H1931 H 0.64282 0.91718 0.59992 0.0
H1932 H 0.60377 0.94322 0.61995 0.0
H1933 H 0.578 0.96537 0.58453 0.0
H1934 H 0.68243 0.16893 0.27349 0.0
H1935 H 0.64829 0.13936 0.29981 0.0
H1936 H 0.65024 0.20192 0.35908 0.0
H1937 H 0.68471 0.23159 0.33294 0.0
H1938 H 0.65372 0.14648 0.38 0.0
H1939 H 0.5676 0.15043 0.31232 0.0
H1940 H 0.59823 0.13895 0.29717 0.0
H1941 H 0.59719 0.17499 0.30834 0.0
C1942 C 0.67548 0.1766 0.29203 0.0
C1943 C 0.68638 0.20276 0.30102 0.0
C1944 C 0.65573 0.15971 0.307 0.0
C1945 C 0.64623 0.16856 0.33129 0.0
C1946 C 0.65703 0.19468 0.34033 0.0
H1947 H 0.52103 0.08031 0.4389 0.0
H1948 H 0.54447 0.11675 0.40831 0.0
C1949 C 0.67677 0.21166 0.32533 0.0
C1950 C 0.62628 0.14973 0.34788 0.0
H1951 H 0.56373 0.11392 0.34763 0.0
C1952 C 0.63394 0.13969 0.37298 0.0
C1953 C 0.60028 0.14092 0.33895 0.0
C1954 C 0.59017 0.1521 0.31283 0.0
C1955 C 0.61687 0.12032 0.38885 0.0
C1956 C 0.59147 0.11052 0.37942 0.0
C1957 C 0.58329 0.12129 0.35477 0.0
C1958 C 0.57417 0.0878 0.39452 0.0
C1959 C 0.62629 0.11 0.41552 0.0
C1960 C 0.58231 0.05923 0.39607 0.0
C1961 C 0.56878 0.03841 0.41319 0.0
C1962 C 0.54669 0.0456 0.4292 0.0
C1963 C 0.53742 0.07382 0.42641 0.0
C1964 C 0.55105 0.09477 0.40915 0.0
H1965 H 0.64396 0.12339 0.42191 0.0
H1966 H 0.60951 0.11038 0.43043 0.0
H1967 H 0.63241 0.08733 0.4148 0.0
H1968 H 0.59999 0.05333 0.3849 0.0
H1969 H 0.57655 0.01693 0.41492 0.0
H1970 H 0.77957 0.68695 0.32272 0.0
H1971 H 0.81403 0.66221 0.34811 0.0
H1972 H 0.87356 0.68446 0.28579 0.0
H1973 H 0.83965 0.71139 0.26163 0.0
H1974 H 0.84145 0.61921 0.34317 0.0
H1975 H 0.91692 0.71133 0.34316 0.0
H1976 H 0.88341 0.71525 0.33052 0.0
H1977 H 0.91014 0.70183 0.3104 0.0
C1978 C 0.80009 0.68658 0.31461 0.0
C1979 C 0.80715 0.70124 0.29046 0.0
C1980 C 0.8198 0.67244 0.32906 0.0
C1981 C 0.84679 0.67202 0.3193 0.0
C1982 C 0.85335 0.68545 0.29441 0.0
H1983 H 0.94865 0.54887 0.40425 0.0
H1984 H 0.92371 0.57257 0.36876 0.0
C1985 C 0.83389 0.70052 0.28043 0.0
C1986 C 0.86775 0.65729 0.33512 0.0
H1987 H 0.932 0.66567 0.35839 0.0
C1988 C 0.86117 0.62952 0.34663 0.0
C1989 C 0.8935 0.67071 0.33999 0.0
C1990 C 0.90128 0.70152 0.3306 0.0
C1991 C 0.87912 0.61513 0.36323 0.0
C1992 C 0.90534 0.62799 0.36715 0.0
C1993 C 0.91215 0.65551 0.35518 0.0
C1994 C 0.92501 0.61457 0.38541 0.0
C1995 C 0.86896 0.58705 0.37741 0.0
C1996 C 0.9366 0.63083 0.40511 0.0
C1997 C 0.95217 0.61767 0.42448 0.0
C1998 C 0.95591 0.58785 0.42491 0.0
C1999 C 0.94593 0.57191 0.40434 0.0
C2000 C 0.93123 0.58535 0.38436 0.0
H2001 H 0.84637 0.58504 0.37852 0.0
H2002 H 0.87608 0.56866 0.36656 0.0
H2003 H 0.87651 0.58518 0.39771 0.0
H2004 H 0.9324 0.65343 0.40639 0.0
H2005 H 0.9594 0.63036 0.4403 0.0
H2006 H 0.36916 0.78855 0.35377 0.0
H2007 H 0.38008 0.81571 0.39212 0.0
H2008 H 0.29809 0.79882 0.42284 0.0
H2009 H 0.28716 0.7713 0.38442 0.0
H2010 H 0.31582 0.85887 0.41581 0.0
H2011 H 0.38961 0.79499 0.47126 0.0
H2012 H 0.39706 0.79712 0.43659 0.0
H2013 H 0.36588 0.779 0.44913 0.0
C2014 C 0.35381 0.7898 0.36918 0.0
C2015 C 0.32745 0.77776 0.36638 0.0
C2016 C 0.36001 0.80525 0.39104 0.0
C2017 C 0.3399 0.80906 0.41033 0.0
C2018 C 0.31388 0.79586 0.40823 0.0
H2019 H 0.42042 0.91521 0.52016 0.0
H2020 H 0.38171 0.88393 0.50859 0.0
C2021 C 0.30776 0.78002 0.38646 0.0
C2022 C 0.34556 0.82985 0.43057 0.0
H2023 H 0.39393 0.84689 0.47422 0.0
C2024 C 0.33237 0.85607 0.42922 0.0
C2025 C 0.36674 0.82592 0.44831 0.0
C2026 C 0.38046 0.79759 0.45164 0.0
C2027 C 0.34168 0.87949 0.44337 0.0
C2028 C 0.36488 0.87655 0.45888 0.0
C2029 C 0.37626 0.84937 0.46215 0.0
C2030 C 0.38045 0.90174 0.46856 0.0
C2031 C 0.3273 0.90744 0.44067 0.0
C2032 C 0.39129 0.92357 0.45047 0.0
C2033 C 0.4131 0.94184 0.45725 0.0
C2034 C 0.42452 0.938 0.48197 0.0
C2035 C 0.41181 0.91842 0.50093 0.0
C2036 C 0.38976 0.90054 0.49433 0.0
H2037 H 0.3052 0.90322 0.43775 0.0
H2038 H 0.32997 0.92034 0.45817 0.0
H2039 H 0.33569 0.92042 0.42313 0.0
H2040 H 0.38488 0.9246 0.43032 0.0
H2041 H 0.42287 0.95658 0.44229 0.0
H2042 H 0.18091 0.24667 0.3172 0.0
H2043 H 0.15661 0.27136 0.35108 0.0
H2044 H 0.2248 0.33265 0.35534 0.0
H2045 H 0.2491 0.30846 0.32125 0.0
H2046 H 0.16892 0.28698 0.40315 0.0
H2047 H 0.16109 0.38245 0.33329 0.0
H2048 H 0.17125 0.3479 0.32298 0.0
H2049 H 0.19512 0.37147 0.33855 0.0
C2050 C 0.19092 0.26512 0.32564 0.0
C2051 C 0.21676 0.27589 0.31627 0.0
C2052 C 0.17701 0.27918 0.34499 0.0
C2053 C 0.18872 0.30413 0.35524 0.0
C2054 C 0.21523 0.31374 0.34724 0.0
H2055 H 0.12321 0.4336 0.45206 0.0
H2056 H 0.15313 0.40397 0.4272 0.0
C2057 C 0.2291 0.29982 0.32783 0.0
C2058 C 0.17251 0.32127 0.37286 0.0
H2059 H 0.14398 0.38661 0.37638 0.0
C2060 C 0.16346 0.30877 0.39738 0.0
C2061 C 0.16537 0.34964 0.36512 0.0
C2062 C 0.17347 0.36364 0.33847 0.0
C2063 C 0.14765 0.32411 0.41456 0.0
C2064 C 0.14047 0.35242 0.40676 0.0
C2065 C 0.14967 0.36494 0.38232 0.0
C2066 C 0.12278 0.36932 0.42325 0.0
C2067 C 0.13904 0.31006 0.44102 0.0
C2068 C 0.09576 0.35969 0.42907 0.0
C2069 C 0.07855 0.37658 0.44322 0.0
C2070 C 0.08802 0.40351 0.45168 0.0
C2071 C 0.11521 0.41299 0.44589 0.0
C2072 C 0.13237 0.39608 0.43172 0.0
H2073 H 0.1519 0.29179 0.4467 0.0
H2074 H 0.14008 0.32597 0.45645 0.0
H2075 H 0.11768 0.30142 0.44025 0.0
H2076 H 0.08781 0.33937 0.42221 0.0
H2077 H 0.05774 0.3686 0.44726 0.0
H2078 H 0.25836 0.19261 0.67692 0.0
H2079 H 0.28302 0.16909 0.64287 0.0
H2080 H 0.34636 0.23672 0.64139 0.0
H2081 H 0.32199 0.26026 0.67616 0.0
H2082 H 0.30144 0.18517 0.59265 0.0
H2083 H 0.38763 0.16419 0.65827 0.0
H2084 H 0.3558 0.17694 0.67012 0.0
H2085 H 0.3804 0.20164 0.65316 0.0
C2086 C 0.27743 0.20273 0.66925 0.0
C2087 C 0.2884 0.22816 0.67955 0.0
C2088 C 0.29147 0.18923 0.64969 0.0
C2089 C 0.31678 0.2008 0.63997 0.0
C2090 C 0.32711 0.22708 0.64906 0.0
H2091 H 0.43736 0.13307 0.53697 0.0
H2092 H 0.40972 0.16347 0.56305 0.0
C2093 C 0.31308 0.24062 0.66878 0.0
C2094 C 0.33276 0.18435 0.62138 0.0
H2095 H 0.39176 0.14918 0.61509 0.0
C2096 C 0.32123 0.17737 0.5975 0.0
C2097 C 0.35845 0.1739 0.62788 0.0
C2098 C 0.37126 0.17927 0.65383 0.0
C2099 C 0.33484 0.16048 0.57983 0.0
C2100 C 0.36049 0.15009 0.58638 0.0
C2101 C 0.37209 0.15723 0.61014 0.0
C2102 C 0.37598 0.13201 0.56884 0.0
C2103 C 0.32187 0.15418 0.55419 0.0
C2104 C 0.3661 0.10415 0.56331 0.0
C2105 C 0.38195 0.0865 0.54834 0.0
C2106 C 0.408 0.0964 0.53878 0.0
C2107 C 0.41748 0.12457 0.54403 0.0
C2108 C 0.40169 0.14209 0.55895 0.0
H2109 H 0.30529 0.16892 0.54955 0.0
H2110 H 0.33724 0.15618 0.53782 0.0
H2111 H 0.31304 0.13166 0.55546 0.0
H2112 H 0.34646 0.09578 0.57114 0.0
H2113 H 0.37403 0.06494 0.54476 0.0
H2114 H 0.79441 0.30401 0.66878 0.0
H2115 H 0.82738 0.33335 0.6411 0.0
H2116 H 0.87673 0.34715 0.70838 0.0
H2117 H 0.8443 0.31646 0.736 0.0
H2118 H 0.84141 0.38699 0.64122 0.0
H2119 H 0.93466 0.32719 0.65794 0.0
H2120 H 0.90143 0.31278 0.66905 0.0
H2121 H 0.91992 0.33847 0.6879 0.0
C2122 C 0.81237 0.31312 0.67769 0.0
C2123 C 0.81674 0.30786 0.7046 0.0
C2124 C 0.83128 0.32991 0.66181 0.0
C2125 C 0.8549 0.34222 0.67244 0.0
C2126 C 0.85918 0.33726 0.69943 0.0
H2127 H 0.93709 0.49079 0.58779 0.0
H2128 H 0.91401 0.45813 0.62143 0.0
C2129 C 0.84046 0.31994 0.71529 0.0
C2130 C 0.87401 0.36145 0.65536 0.0
H2131 H 0.94075 0.37383 0.63568 0.0
C2132 C 0.86311 0.38394 0.63999 0.0
C2133 C 0.90235 0.35738 0.65332 0.0
C2134 C 0.91525 0.33247 0.66772 0.0
C2135 C 0.87952 0.40239 0.62281 0.0
C2136 C 0.90804 0.39926 0.62171 0.0
C2137 C 0.91901 0.37661 0.63684 0.0
C2138 C 0.92643 0.41896 0.60442 0.0
C2139 C 0.86585 0.42446 0.6054 0.0
C2140 C 0.94309 0.40797 0.58492 0.0
C2141 C 0.95713 0.42676 0.56615 0.0
C2142 C 0.95446 0.45674 0.56653 0.0
C2143 C 0.93937 0.46773 0.58707 0.0
C2144 C 0.92592 0.44905 0.6061 0.0
H2145 H 0.84408 0.41811 0.6027 0.0
H2146 H 0.86664 0.44554 0.61464 0.0
H2147 H 0.8761 0.42738 0.58575 0.0
H2148 H 0.94402 0.38485 0.58332 0.0
H2149 H 0.96835 0.41777 0.55029 0.0
H2150 H 0.19354 0.61579 0.67838 0.0
H2151 H 0.17774 0.58585 0.64408 0.0
H2152 H 0.24714 0.61586 0.59487 0.0
H2153 H 0.262 0.64796 0.62878 0.0
H2154 H 0.20599 0.62175 0.5681 0.0
H2155 H 0.19059 0.51277 0.6132 0.0
H2156 H 0.17447 0.53537 0.63545 0.0
H2157 H 0.21076 0.54003 0.62888 0.0
C2158 C 0.20565 0.61587 0.66038 0.0
C2159 C 0.22867 0.63478 0.65608 0.0
C2160 C 0.1969 0.59813 0.64088 0.0
C2161 C 0.21141 0.59808 0.61687 0.0
C2162 C 0.23562 0.61537 0.61325 0.0
H2163 H 0.09145 0.50848 0.52435 0.0
H2164 H 0.13727 0.5173 0.53996 0.0
C2165 C 0.24418 0.63361 0.6327 0.0
C2166 C 0.19844 0.58404 0.59457 0.0
H2167 H 0.15263 0.52883 0.58416 0.0
C2168 C 0.19507 0.60094 0.57126 0.0
C2169 C 0.18502 0.55634 0.59771 0.0
C2170 C 0.19078 0.53507 0.62009 0.0
C2171 C 0.17592 0.59262 0.55293 0.0
C2172 C 0.15881 0.56755 0.55871 0.0
C2173 C 0.16484 0.54874 0.5801 0.0
C2174 C 0.13257 0.56276 0.54546 0.0
C2175 C 0.17355 0.6115 0.52812 0.0
C2176 C 0.11451 0.58528 0.5432 0.0
C2177 C 0.08855 0.58048 0.53355 0.0
C2178 C 0.07959 0.55277 0.52667 0.0
C2179 C 0.09764 0.53018 0.52899 0.0
C2180 C 0.12393 0.53518 0.53807 0.0
H2181 H 0.19399 0.62004 0.52084 0.0
H2182 H 0.16367 0.59959 0.51236 0.0
H2183 H 0.1615 0.6304 0.53238 0.0
H2184 H 0.12002 0.60646 0.54985 0.0
H2185 H 0.07517 0.59836 0.53244 0.0
loop_
_geom_bond_atom_site_label_1
_geom_bond_atom_site_label_2
_geom_bond_distance
_geom_bond_site_symmetry_2
_ccdc_geom_bond_type
C0 O16 1.251 . S
C0 O18 1.254 . S
N1 C2 1.333 . S
N1 C6 1.307 . S
N1 Zn7 2.020 . S
C2 N1 1.333 . S
C2 C3 1.379 . S
C2 H20 0.952 . S
C3 C2 1.379 . S
C3 C4 1.390 . S
C3 H30 0.949 . S
C4 C3 1.390 . S
C4 C5 1.357 . S
C5 C4 1.357 . S
C5 C6 1.370 . S
C5 H31 0.950 . S
C6 N1 1.307 . S
C6 C5 1.370 . S
C6 H24 0.948 . S
Zn7 N1 2.020 . S
Zn7 O16 2.039 . S
Zn7 O22 2.034 . S
Zn7 O26 2.025 . S
Zn7 O28 2.024 . S
C8 O27 1.246 . S
C8 O28 1.249 . S
N9 C10 1.307 . S
N9 C11 1.333 . S
N9 Zn15 2.020 . S
C10 N9 1.307 . S
C10 C14 1.370 . S
C10 H21 0.948 . S
C11 N9 1.333 . S
C11 C12 1.379 . S
C11 H19 0.952 . S
C12 C11 1.379 . S
C12 C13 1.390 . S
C12 H32 0.949 . S
C13 C12 1.390 . S
C13 C14 1.357 . S
C14 C10 1.370 . S
C14 C13 1.357 . S
C14 H33 0.950 . S
Zn15 N9 2.020 . S
Zn15 O18 2.025 . S
Zn15 O23 2.024 . S
Zn15 O25 2.039 . S
Zn15 O27 2.034 . S
O16 C0 1.251 . S
O16 Zn7 2.039 . S
C17 O22 1.246 . S
C17 O23 1.249 . S
O18 C0 1.254 . S
O18 Zn15 2.025 . S
H19 C11 0.952 . S
H20 C2 0.952 . S
H21 C10 0.948 . S
O22 Zn7 2.034 . S
O22 C17 1.246 . S
O23 Zn15 2.024 . S
O23 C17 1.249 . S
H24 C6 0.948 . S
O25 Zn15 2.039 . S
O25 C29 1.251 . S
O26 Zn7 2.025 . S
O26 C29 1.254 . S
O27 C8 1.246 . S
O27 Zn15 2.034 . S
O28 Zn7 2.024 . S
O28 C8 1.249 . S
C29 O25 1.251 . S
C29 O26 1.254 . S
H30 C3 0.949 . S
H31 C5 0.950 . S
H32 C12 0.949 . S
H33 C14 0.950 . S
C34 O50 1.251 . S
C34 O52 1.254 . S
N35 C36 1.333 . S
N35 C40 1.307 . S
N35 Zn41 2.020 . S
C36 N35 1.333 . S
C36 C37 1.379 . S
C36 H54 0.952 . S
C37 C36 1.379 . S
C37 C38 1.390 . S
C37 H64 0.949 . S
C38 C37 1.390 . S
C38 C39 1.357 . S
C39 C38 1.357 . S
C39 C40 1.370 . S
C39 H65 0.950 . S
C40 N35 1.307 . S
C40 C39 1.370 . S
C40 H58 0.948 . S
Zn41 N35 2.020 . S
Zn41 O50 2.039 . S
Zn41 O56 2.034 . S
Zn41 O60 2.025 . S
Zn41 O62 2.024 . S
C42 O61 1.246 . S
C42 O62 1.249 . S
N43 C44 1.307 . S
N43 C45 1.333 . S
N43 Zn49 2.020 . S
C44 N43 1.307 . S
C44 C48 1.370 . S
C44 H55 0.948 . S
C45 N43 1.333 . S
C45 C46 1.379 . S
C45 H53 0.952 . S
C46 C45 1.379 . S
C46 C47 1.390 . S
C46 H66 0.949 . S
C47 C46 1.390 . S
C47 C48 1.357 . S
C48 C44 1.370 . S
C48 C47 1.357 . S
C48 H67 0.950 . S
Zn49 N43 2.020 . S
Zn49 O52 2.025 . S
Zn49 O57 2.024 . S
Zn49 O59 2.039 . S
Zn49 O61 2.034 . S
O50 C34 1.251 . S
O50 Zn41 2.039 . S
C51 O56 1.246 . S
C51 O57 1.249 . S
O52 C34 1.254 . S
O52 Zn49 2.025 . S
H53 C45 0.952 . S
H54 C36 0.952 . S
H55 C44 0.948 . S
O56 Zn41 2.034 . S
O56 C51 1.246 . S
O57 Zn49 2.024 . S
O57 C51 1.249 . S
H58 C40 0.948 . S
O59 Zn49 2.039 . S
O59 C63 1.251 . S
O60 Zn41 2.025 . S
O60 C63 1.254 . S
O61 C42 1.246 . S
O61 Zn49 2.034 . S
O62 Zn41 2.024 . S
O62 C42 1.249 . S
C63 O59 1.251 . S
C63 O60 1.254 . S
H64 C37 0.949 . S
H65 C39 0.950 . S
H66 C46 0.949 . S
H67 C48 0.950 . S
C68 O84 1.251 . S
C68 O86 1.254 . S
N69 C70 1.333 . S
N69 C74 1.307 . S
N69 Zn75 2.020 . S
C70 N69 1.333 . S
C70 C71 1.379 . S
C70 H88 0.952 . S
C71 C70 1.379 . S
C71 C72 1.390 . S
C71 H98 0.949 . S
C72 C71 1.390 . S
C72 C73 1.357 . S
C73 C72 1.357 . S
C73 C74 1.370 . S
C73 H99 0.950 . S
C74 N69 1.307 . S
C74 C73 1.370 . S
C74 H92 0.948 . S
Zn75 N69 2.020 . S
Zn75 O84 2.039 . S
Zn75 O90 2.034 . S
Zn75 O94 2.025 . S
Zn75 O96 2.024 . S
C76 O95 1.246 . S
C76 O96 1.249 . S
N77 C78 1.307 . S
N77 C79 1.333 . S
N77 Zn83 2.020 . S
C78 N77 1.307 . S
C78 C82 1.370 . S
C78 H89 0.948 . S
C79 N77 1.333 . S
C79 C80 1.379 . S
C79 H87 0.952 . S
C80 C79 1.379 . S
C80 C81 1.390 . S
C80 H100 0.949 . S
C81 C80 1.390 . S
C81 C82 1.357 . S
C82 C78 1.370 . S
C82 C81 1.357 . S
C82 H101 0.950 . S
Zn83 N77 2.020 . S
Zn83 O86 2.025 . S
Zn83 O91 2.024 . S
Zn83 O93 2.039 . S
Zn83 O95 2.034 . S
O84 C68 1.251 . S
O84 Zn75 2.039 . S
C85 O90 1.246 . S
C85 O91 1.249 . S
O86 C68 1.254 . S
O86 Zn83 2.025 . S
H87 C79 0.952 . S
H88 C70 0.952 . S
H89 C78 0.948 . S
O90 Zn75 2.034 . S
O90 C85 1.246 . S
O91 Zn83 2.024 . S
O91 C85 1.249 . S
H92 C74 0.948 . S
O93 Zn83 2.039 . S
O93 C97 1.251 . S
O94 Zn75 2.025 . S
O94 C97 1.254 . S
O95 C76 1.246 . S
O95 Zn83 2.034 . S
O96 Zn75 2.024 . S
O96 C76 1.249 . S
C97 O93 1.251 . S
C97 O94 1.254 . S
H98 C71 0.949 . S
H99 C73 0.950 . S
H100 C80 0.949 . S
H101 C82 0.950 . S
C102 O118 1.251 . S
C102 O120 1.254 . S
N103 C104 1.333 . S
N103 C108 1.307 . S
N103 Zn109 2.020 . S
C104 N103 1.333 . S
C104 C105 1.379 . S
C104 H122 0.952 . S
C105 C104 1.379 . S
C105 C106 1.390 . S
C105 H132 0.949 . S
C106 C105 1.390 . S
C106 C107 1.357 . S
C107 C106 1.357 . S
C107 C108 1.370 . S
C107 H133 0.950 . S
C108 N103 1.307 . S
C108 C107 1.370 . S
C108 H126 0.948 . S
Zn109 N103 2.020 . S
Zn109 O118 2.039 . S
Zn109 O124 2.034 . S
Zn109 O128 2.025 . S
Zn109 O130 2.024 . S
C110 O129 1.246 . S
C110 O130 1.249 . S
N111 C112 1.307 . S
N111 C113 1.333 . S
N111 Zn117 2.020 . S
C112 N111 1.307 . S
C112 C116 1.370 . S
C112 H123 0.948 . S
C113 N111 1.333 . S
C113 C114 1.379 . S
C113 H121 0.952 . S
C114 C113 1.379 . S
C114 C115 1.390 . S
C114 H134 0.949 . S
C115 C114 1.390 . S
C115 C116 1.357 . S
C116 C112 1.370 . S
C116 C115 1.357 . S
C116 H135 0.950 . S
Zn117 N111 2.020 . S
Zn117 O120 2.025 . S
Zn117 O125 2.024 . S
Zn117 O127 2.039 . S
Zn117 O129 2.034 . S
O118 C102 1.251 . S
O118 Zn109 2.039 . S
C119 O124 1.246 . S
C119 O125 1.249 . S
O120 C102 1.254 . S
O120 Zn117 2.025 . S
H121 C113 0.952 . S
H122 C104 0.952 . S
H123 C112 0.948 . S
O124 Zn109 2.034 . S
O124 C119 1.246 . S
O125 Zn117 2.024 . S
O125 C119 1.249 . S
H126 C108 0.948 . S
O127 Zn117 2.039 . S
O127 C131 1.251 . S
O128 Zn109 2.025 . S
O128 C131 1.254 . S
O129 C110 1.246 . S
O129 Zn117 2.034 . S
O130 Zn109 2.024 . S
O130 C110 1.249 . S
C131 O127 1.251 . S
C131 O128 1.254 . S
H132 C105 0.949 . S
H133 C107 0.950 . S
H134 C114 0.949 . S
H135 C116 0.950 . S
C136 O152 1.251 . S
C136 O154 1.254 . S
N137 C138 1.333 . S
N137 C142 1.307 . S
N137 Zn143 2.020 . S
C138 N137 1.333 . S
C138 C139 1.379 . S
C138 H156 0.952 . S
C139 C138 1.379 . S
C139 C140 1.390 . S
C139 H166 0.949 . S
C140 C139 1.390 . S
C140 C141 1.357 . S
C141 C140 1.357 . S
C141 C142 1.370 . S
C141 H167 0.950 . S
C142 N137 1.307 . S
C142 C141 1.370 . S
C142 H160 0.948 . S
Zn143 N137 2.020 . S
Zn143 O152 2.039 . S
Zn143 O158 2.034 . S
Zn143 O162 2.025 . S
Zn143 O164 2.024 . S
C144 O163 1.246 . S
C144 O164 1.249 . S
N145 C146 1.307 . S
N145 C147 1.333 . S
N145 Zn151 2.020 . S
C146 N145 1.307 . S
C146 C150 1.370 . S
C146 H157 0.948 . S
C147 N145 1.333 . S
C147 C148 1.379 . S
C147 H155 0.952 . S
C148 C147 1.379 . S
C148 C149 1.390 . S
C148 H168 0.949 . S
C149 C148 1.390 . S
C149 C150 1.357 . S
C150 C146 1.370 . S
C150 C149 1.357 . S
C150 H169 0.950 . S
Zn151 N145 2.020 . S
Zn151 O154 2.025 . S
Zn151 O159 2.024 . S
Zn151 O161 2.039 . S
Zn151 O163 2.034 . S
O152 C136 1.251 . S
O152 Zn143 2.039 . S
C153 O158 1.246 . S
C153 O159 1.249 . S
O154 C136 1.254 . S
O154 Zn151 2.025 . S
H155 C147 0.952 . S
H156 C138 0.952 . S
H157 C146 0.948 . S
O158 Zn143 2.034 . S
O158 C153 1.246 . S
O159 Zn151 2.024 . S
O159 C153 1.249 . S
H160 C142 0.948 . S
O161 Zn151 2.039 . S
O161 C165 1.251 . S
O162 Zn143 2.025 . S
O162 C165 1.254 . S
O163 C144 1.246 . S
O163 Zn151 2.034 . S
O164 Zn143 2.024 . S
O164 C144 1.249 . S
C165 O161 1.251 . S
C165 O162 1.254 . S
H166 C139 0.949 . S
H167 C141 0.950 . S
H168 C148 0.949 . S
H169 C150 0.950 . S
C170 O186 1.251 . S
C170 O188 1.254 . S
N171 C172 1.333 . S
N171 C176 1.307 . S
N171 Zn177 2.020 . S
C172 N171 1.333 . S
C172 C173 1.379 . S
C172 H190 0.952 . S
C173 C172 1.379 . S
C173 C174 1.390 . S
C173 H200 0.949 . S
C174 C173 1.390 . S
C174 C175 1.357 . S
C175 C174 1.357 . S
C175 C176 1.370 . S
C175 H201 0.950 . S
C176 N171 1.307 . S
C176 C175 1.370 . S
C176 H194 0.948 . S
Zn177 N171 2.020 . S
Zn177 O186 2.039 . S
Zn177 O192 2.034 . S
Zn177 O196 2.025 . S
Zn177 O198 2.024 . S
C178 O197 1.246 . S
C178 O198 1.249 . S
N179 C180 1.307 . S
N179 C181 1.333 . S
N179 Zn185 2.020 . S
C180 N179 1.307 . S
C180 C184 1.370 . S
C180 H191 0.948 . S
C181 N179 1.333 . S
C181 C182 1.379 . S
C181 H189 0.952 . S
C182 C181 1.379 . S
C182 C183 1.390 . S
C182 H202 0.949 . S
C183 C182 1.390 . S
C183 C184 1.357 . S
C184 C180 1.370 . S
C184 C183 1.357 . S
C184 H203 0.950 . S
Zn185 N179 2.020 . S
Zn185 O188 2.025 . S
Zn185 O193 2.024 . S
Zn185 O195 2.039 . S
Zn185 O197 2.034 . S
O186 C170 1.251 . S
O186 Zn177 2.039 . S
C187 O192 1.246 . S
C187 O193 1.249 . S
O188 C170 1.254 . S
O188 Zn185 2.025 . S
H189 C181 0.952 . S
H190 C172 0.952 . S
H191 C180 0.948 . S
O192 Zn177 2.034 . S
O192 C187 1.246 . S
O193 Zn185 2.024 . S
O193 C187 1.249 . S
H194 C176 0.948 . S
O195 Zn185 2.039 . S
O195 C199 1.251 . S
O196 Zn177 2.025 . S
O196 C199 1.254 . S
O197 C178 1.246 . S
O197 Zn185 2.034 . S
O198 Zn177 2.024 . S
O198 C178 1.249 . S
C199 O195 1.251 . S
C199 O196 1.254 . S
H200 C173 0.949 . S
H201 C175 0.950 . S
H202 C182 0.949 . S
H203 C184 0.950 . S
C204 O220 1.251 . S
C204 O222 1.254 . S
N205 C206 1.333 . S
N205 C210 1.307 . S
N205 Zn211 2.020 . S
C206 N205 1.333 . S
C206 C207 1.379 . S
C206 H224 0.952 . S
C207 C206 1.379 . S
C207 C208 1.390 . S
C207 H234 0.949 . S
C208 C207 1.390 . S
C208 C209 1.357 . S
C209 C208 1.357 . S
C209 C210 1.370 . S
C209 H235 0.950 . S
C210 N205 1.307 . S
C210 C209 1.370 . S
C210 H228 0.948 . S
Zn211 N205 2.020 . S
Zn211 O220 2.039 . S
Zn211 O226 2.034 . S
Zn211 O230 2.025 . S
Zn211 O232 2.024 . S
C212 O231 1.246 . S
C212 O232 1.249 . S
N213 C214 1.307 . S
N213 C215 1.333 . S
N213 Zn219 2.020 . S
C214 N213 1.307 . S
C214 C218 1.370 . S
C214 H225 0.948 . S
C215 N213 1.333 . S
C215 C216 1.379 . S
C215 H223 0.952 . S
C216 C215 1.379 . S
C216 C217 1.390 . S
C216 H236 0.949 . S
C217 C216 1.390 . S
C217 C218 1.357 . S
C218 C214 1.370 . S
C218 C217 1.357 . S
C218 H237 0.950 . S
Zn219 N213 2.020 . S
Zn219 O222 2.025 . S
Zn219 O227 2.024 . S
Zn219 O229 2.039 . S
Zn219 O231 2.034 . S
O220 C204 1.251 . S
O220 Zn211 2.039 . S
C221 O226 1.246 . S
C221 O227 1.249 . S
O222 C204 1.254 . S
O222 Zn219 2.025 . S
H223 C215 0.952 . S
H224 C206 0.952 . S
H225 C214 0.948 . S
O226 Zn211 2.034 . S
O226 C221 1.246 . S
O227 Zn219 2.024 . S
O227 C221 1.249 . S
H228 C210 0.948 . S
O229 Zn219 2.039 . S
O229 C233 1.251 . S
O230 Zn211 2.025 . S
O230 C233 1.254 . S
O231 C212 1.246 . S
O231 Zn219 2.034 . S
O232 Zn211 2.024 . S
O232 C212 1.249 . S
C233 O229 1.251 . S
C233 O230 1.254 . S
H234 C207 0.949 . S
H235 C209 0.950 . S
H236 C216 0.949 . S
H237 C218 0.950 . S
C238 O254 1.251 . S
C238 O256 1.254 . S
N239 C240 1.333 . S
N239 C244 1.307 . S
N239 Zn245 2.020 . S
C240 N239 1.333 . S
C240 C241 1.379 . S
C240 H258 0.952 . S
C241 C240 1.379 . S
C241 C242 1.390 . S
C241 H268 0.949 . S
C242 C241 1.390 . S
C242 C243 1.357 . S
C243 C242 1.357 . S
C243 C244 1.370 . S
C243 H269 0.950 . S
C244 N239 1.307 . S
C244 C243 1.370 . S
C244 H262 0.948 . S
Zn245 N239 2.020 . S
Zn245 O254 2.039 . S
Zn245 O260 2.034 . S
Zn245 O264 2.025 . S
Zn245 O266 2.024 . S
C246 O265 1.246 . S
C246 O266 1.249 . S
N247 C248 1.307 . S
N247 C249 1.333 . S
N247 Zn253 2.020 . S
C248 N247 1.307 . S
C248 C252 1.370 . S
C248 H259 0.948 . S
C249 N247 1.333 . S
C249 C250 1.379 . S
C249 H257 0.952 . S
C250 C249 1.379 . S
C250 C251 1.390 . S
C250 H270 0.949 . S
C251 C250 1.390 . S
C251 C252 1.357 . S
C252 C248 1.370 . S
C252 C251 1.357 . S
C252 H271 0.950 . S
Zn253 N247 2.020 . S
Zn253 O256 2.025 . S
Zn253 O261 2.024 . S
Zn253 O263 2.039 . S
Zn253 O265 2.034 . S
O254 C238 1.251 . S
O254 Zn245 2.039 . S
C255 O260 1.246 . S
C255 O261 1.249 . S
O256 C238 1.254 . S
O256 Zn253 2.025 . S
H257 C249 0.952 . S
H258 C240 0.952 . S
H259 C248 0.948 . S
O260 Zn245 2.034 . S
O260 C255 1.246 . S
O261 Zn253 2.024 . S
O261 C255 1.249 . S
H262 C244 0.948 . S
O263 Zn253 2.039 . S
O263 C267 1.251 . S
O264 Zn245 2.025 . S
O264 C267 1.254 . S
O265 C246 1.246 . S
O265 Zn253 2.034 . S
O266 Zn245 2.024 . S
O266 C246 1.249 . S
C267 O263 1.251 . S
C267 O264 1.254 . S
H268 C241 0.949 . S
H269 C243 0.950 . S
H270 C250 0.949 . S
H271 C252 0.950 . S
C272 O284 1.241 . S
C272 O285 1.280 . S
C273 O286 1.277 . S
C273 O287 1.245 . S
C274 O298 1.247 . S
C274 O300 1.289 . S
Mg275 O276 1.926 . S
Mg275 O285 1.984 . S
Mg275 O287 1.988 . S
Mg275 O288 2.061 1_655 S
O276 Mg275 1.926 . S
O276 Mg277 1.986 . S
O276 Mg278 1.917 1_655 S
Mg277 O276 1.986 . S
Mg277 O284 2.042 . S
Mg277 O286 2.041 . S
Mg277 O292 2.038 1_545 S
Mg277 O300 2.238 1_545 S
Mg278 O276 1.917 1_455 S
Mg278 O279 1.917 1_545 S
Mg278 O289 2.106 . S
Mg278 O291 2.079 1_445 S
Mg278 O300 2.106 1_445 S
Mg278 O301 2.079 . S
O279 Mg278 1.917 1_565 S
O279 Mg280 1.926 . S
O279 Mg281 1.986 . S
Mg280 O279 1.926 . S
Mg280 O294 1.984 . S
Mg280 O297 1.988 . S
Mg280 O298 2.061 1_455 S
Mg281 O279 1.986 . S
Mg281 O289 2.238 1_565 S
Mg281 O293 2.042 . S
Mg281 O295 2.041 . S
Mg281 O302 2.038 1_565 S
C282 O288 1.247 . S
C282 O289 1.289 . S
C283 O301 1.245 . S
C283 O302 1.274 . S
O284 C272 1.241 . S
O284 Mg277 2.042 . S
O285 C272 1.280 . S
O285 Mg275 1.984 . S
O286 C273 1.277 . S
O286 Mg277 2.041 . S
O287 C273 1.245 . S
O287 Mg275 1.988 . S
O288 Mg275 2.061 1_455 S
O288 C282 1.247 . S
O289 Mg278 2.106 . S
O289 Mg281 2.238 1_545 S
O289 C282 1.289 . S
C290 O291 1.245 . S
C290 O292 1.274 . S
O291 Mg278 2.079 1_665 S
O291 C290 1.245 . S
O292 Mg277 2.038 1_565 S
O292 C290 1.274 . S
O293 Mg281 2.042 . S
O293 C296 1.241 . S
O294 Mg280 1.984 . S
O294 C296 1.280 . S
O295 Mg281 2.041 . S
O295 C299 1.277 . S
C296 O293 1.241 . S
C296 O294 1.280 . S
O297 Mg280 1.988 . S
O297 C299 1.245 . S
O298 C274 1.247 . S
O298 Mg280 2.061 1_655 S
C299 O295 1.277 . S
C299 O297 1.245 . S
O300 C274 1.289 . S
O300 Mg277 2.238 1_565 S
O300 Mg278 2.106 1_665 S
O301 Mg278 2.079 . S
O301 C283 1.245 . S
O302 Mg281 2.038 1_545 S
O302 C283 1.274 . S
C303 O315 1.241 . S
C303 O316 1.280 . S
C304 O317 1.277 . S
C304 O318 1.245 . S
C305 O329 1.247 . S
C305 O331 1.289 . S
Mg306 O307 1.926 . S
Mg306 O316 1.984 . S
Mg306 O318 1.988 1_554 S
Mg306 O319 2.061 . S
O307 Mg306 1.926 . S
O307 Mg308 1.986 . S
O307 Mg309 1.917 . S
Mg308 O307 1.986 . S
Mg308 O315 2.042 . S
Mg308 O317 2.041 1_554 S
Mg308 O323 2.038 1_545 S
Mg308 O331 2.238 1_544 S
Mg309 O307 1.917 . S
Mg309 O310 1.917 1_544 S
Mg309 O320 2.106 . S
Mg309 O322 2.079 1_545 S
Mg309 O331 2.106 1_544 S
Mg309 O332 2.079 1_554 S
O310 Mg309 1.917 1_566 S
O310 Mg311 1.926 . S
O310 Mg312 1.986 . S
Mg311 O310 1.926 . S
Mg311 O325 1.984 . S
Mg311 O328 1.988 1_556 S
Mg311 O329 2.061 . S
Mg312 O310 1.986 . S
Mg312 O320 2.238 1_566 S
Mg312 O324 2.042 . S
Mg312 O326 2.041 1_556 S
Mg312 O333 2.038 1_565 S
C313 O319 1.247 . S
C313 O320 1.289 . S
C314 O332 1.245 . S
C314 O333 1.274 . S
O315 C303 1.241 . S
O315 Mg308 2.042 . S
O316 C303 1.280 . S
O316 Mg306 1.984 . S
O317 C304 1.277 . S
O317 Mg308 2.041 1_556 S
O318 C304 1.245 . S
O318 Mg306 1.988 1_556 S
O319 Mg306 2.061 . S
O319 C313 1.247 . S
O320 Mg309 2.106 . S
O320 Mg312 2.238 1_544 S
O320 C313 1.289 . S
C321 O322 1.245 . S
C321 O323 1.274 . S
O322 Mg309 2.079 1_565 S
O322 C321 1.245 . S
O323 Mg308 2.038 1_565 S
O323 C321 1.274 . S
O324 Mg312 2.042 . S
O324 C327 1.241 . S
O325 Mg311 1.984 . S
O325 C327 1.280 . S
O326 Mg312 2.041 1_554 S
O326 C330 1.277 . S
C327 O324 1.241 . S
C327 O325 1.280 . S
O328 Mg311 1.988 1_554 S
O328 C330 1.245 . S
O329 C305 1.247 . S
O329 Mg311 2.061 . S
C330 O326 1.277 . S
C330 O328 1.245 . S
O331 C305 1.289 . S
O331 Mg308 2.238 1_566 S
O331 Mg309 2.106 1_566 S
O332 Mg309 2.079 1_556 S
O332 C314 1.245 . S
O333 Mg312 2.038 1_545 S
O333 C314 1.274 . S
C334 O346 1.241 . S
C334 O347 1.280 . S
C335 O348 1.277 . S
C335 O349 1.245 . S
C336 O360 1.247 . S
C336 O362 1.289 . S
Mg337 O338 1.926 . S
Mg337 O347 1.984 . S
Mg337 O349 1.988 1_554 S
Mg337 O350 2.061 1_655 S
O338 Mg337 1.926 . S
O338 Mg339 1.986 . S
O338 Mg340 1.917 1_655 S
Mg339 O338 1.986 . S
Mg339 O346 2.042 . S
Mg339 O348 2.041 1_554 S
Mg339 O354 2.038 . S
Mg339 O362 2.238 1_554 S
Mg340 O338 1.917 1_455 S
Mg340 O341 1.917 1_554 S
Mg340 O351 2.106 . S
Mg340 O353 2.079 1_455 S
Mg340 O362 2.106 1_454 S
Mg340 O363 2.079 1_554 S
O341 Mg340 1.917 1_556 S
O341 Mg342 1.926 . S
O341 Mg343 1.986 . S
Mg342 O341 1.926 . S
Mg342 O356 1.984 . S
Mg342 O359 1.988 1_556 S
Mg342 O360 2.061 1_455 S
Mg343 O341 1.986 . S
Mg343 O351 2.238 1_556 S
Mg343 O355 2.042 . S
Mg343 O357 2.041 1_556 S
Mg343 O364 2.038 . S
C344 O350 1.247 . S
C344 O351 1.289 . S
C345 O363 1.245 . S
C345 O364 1.274 . S
O346 C334 1.241 . S
O346 Mg339 2.042 . S
O347 C334 1.280 . S
O347 Mg337 1.984 . S
O348 C335 1.277 . S
O348 Mg339 2.041 1_556 S
O349 C335 1.245 . S
O349 Mg337 1.988 1_556 S
O350 Mg337 2.061 1_455 S
O350 C344 1.247 . S
O351 Mg340 2.106 . S
O351 Mg343 2.238 1_554 S
O351 C344 1.289 . S
C352 O353 1.245 . S
C352 O354 1.274 . S
O353 Mg340 2.079 1_655 S
O353 C352 1.245 . S
O354 Mg339 2.038 . S
O354 C352 1.274 . S
O355 Mg343 2.042 . S
O355 C358 1.241 . S
O356 Mg342 1.984 . S
O356 C358 1.280 . S
O357 Mg343 2.041 1_554 S
O357 C361 1.277 . S
C358 O355 1.241 . S
C358 O356 1.280 . S
O359 Mg342 1.988 1_554 S
O359 C361 1.245 . S
O360 C336 1.247 . S
O360 Mg342 2.061 1_655 S
C361 O357 1.277 . S
C361 O359 1.245 . S
O362 C336 1.289 . S
O362 Mg339 2.238 1_556 S
O362 Mg340 2.106 1_656 S
O363 Mg340 2.079 1_556 S
O363 C345 1.245 . S
O364 Mg343 2.038 . S
O364 C345 1.274 . S
C365 O377 1.241 . S
C365 O378 1.280 . S
C366 O379 1.277 . S
C366 O380 1.245 . S
C367 O391 1.247 . S
C367 O393 1.289 . S
Mg368 O369 1.926 . S
Mg368 O378 1.984 . S
Mg368 O380 1.988 1_554 S
Mg368 O381 2.061 . S
O369 Mg368 1.926 . S
O369 Mg370 1.986 . S
O369 Mg371 1.917 . S
Mg370 O369 1.986 . S
Mg370 O377 2.042 . S
Mg370 O379 2.041 1_554 S
Mg370 O385 2.038 . S
Mg370 O393 2.238 1_554 S
Mg371 O369 1.917 . S
Mg371 O372 1.917 1_554 S
Mg371 O382 2.106 . S
Mg371 O384 2.079 . S
Mg371 O393 2.106 1_554 S
Mg371 O394 2.079 1_554 S
O372 Mg371 1.917 1_556 S
O372 Mg373 1.926 . S
O372 Mg374 1.986 . S
Mg373 O372 1.926 . S
Mg373 O387 1.984 . S
Mg373 O390 1.988 1_556 S
Mg373 O391 2.061 . S
Mg374 O372 1.986 . S
Mg374 O382 2.238 1_556 S
Mg374 O386 2.042 . S
Mg374 O388 2.041 1_556 S
Mg374 O395 2.038 . S
C375 O381 1.247 . S
C375 O382 1.289 . S
C376 O394 1.245 . S
C376 O395 1.274 . S
O377 C365 1.241 . S
O377 Mg370 2.042 . S
O378 C365 1.280 . S
O378 Mg368 1.984 . S
O379 C366 1.277 . S
O379 Mg370 2.041 1_556 S
O380 C366 1.245 . S
O380 Mg368 1.988 1_556 S
O381 Mg368 2.061 . S
O381 C375 1.247 . S
O382 Mg371 2.106 . S
O382 Mg374 2.238 1_554 S
O382 C375 1.289 . S
C383 O384 1.245 . S
C383 O385 1.274 . S
O384 Mg371 2.079 . S
O384 C383 1.245 . S
O385 Mg370 2.038 . S
O385 C383 1.274 . S
O386 Mg374 2.042 . S
O386 C389 1.241 . S
O387 Mg373 1.984 . S
O387 C389 1.280 . S
O388 Mg374 2.041 1_554 S
O388 C392 1.277 . S
C389 O386 1.241 . S
C389 O387 1.280 . S
O390 Mg373 1.988 1_554 S
O390 C392 1.245 . S
O391 C367 1.247 . S
O391 Mg373 2.061 . S
C392 O388 1.277 . S
C392 O390 1.245 . S
O393 C367 1.289 . S
O393 Mg370 2.238 1_556 S
O393 Mg371 2.106 1_556 S
O394 Mg371 2.079 1_556 S
O394 C376 1.245 . S
O395 Mg374 2.038 . S
O395 C376 1.274 . S
C396 O408 1.241 . S
C396 O409 1.280 . S
C397 O410 1.277 . S
C397 O411 1.245 . S
C398 O422 1.247 . S
C398 O424 1.289 . S
Mg399 O400 1.926 . S
Mg399 O409 1.984 . S
Mg399 O411 1.988 . S
Mg399 O412 2.061 1_655 S
O400 Mg399 1.926 . S
O400 Mg401 1.986 . S
O400 Mg402 1.917 1_655 S
Mg401 O400 1.986 . S
Mg401 O408 2.042 . S
Mg401 O410 2.041 . S
Mg401 O416 2.038 . S
Mg401 O424 2.238 . S
Mg402 O400 1.917 1_455 S
Mg402 O403 1.917 . S
Mg402 O413 2.106 . S
Mg402 O415 2.079 1_455 S
Mg402 O424 2.106 1_455 S
Mg402 O425 2.079 . S
O403 Mg402 1.917 . S
O403 Mg404 1.926 . S
O403 Mg405 1.986 . S
Mg404 O403 1.926 . S
Mg404 O418 1.984 . S
Mg404 O421 1.988 . S
Mg404 O422 2.061 1_455 S
Mg405 O403 1.986 . S
Mg405 O413 2.238 . S
Mg405 O417 2.042 . S
Mg405 O419 2.041 . S
Mg405 O426 2.038 . S
C406 O412 1.247 . S
C406 O413 1.289 . S
C407 O425 1.245 . S
C407 O426 1.274 . S
O408 C396 1.241 . S
O408 Mg401 2.042 . S
O409 C396 1.280 . S
O409 Mg399 1.984 . S
O410 C397 1.277 . S
O410 Mg401 2.041 . S
O411 C397 1.245 . S
O411 Mg399 1.988 . S
O412 Mg399 2.061 1_455 S
O412 C406 1.247 . S
O413 Mg402 2.106 . S
O413 Mg405 2.238 . S
O413 C406 1.289 . S
C414 O415 1.245 . S
C414 O416 1.274 . S
O415 Mg402 2.079 1_655 S
O415 C414 1.245 . S
O416 Mg401 2.038 . S
O416 C414 1.274 . S
O417 Mg405 2.042 . S
O417 C420 1.241 . S
O418 Mg404 1.984 . S
O418 C420 1.280 . S
O419 Mg405 2.041 . S
O419 C423 1.277 . S
C420 O417 1.241 . S
C420 O418 1.280 . S
O421 Mg404 1.988 . S
O421 C423 1.245 . S
O422 C398 1.247 . S
O422 Mg404 2.061 1_655 S
C423 O419 1.277 . S
C423 O421 1.245 . S
O424 C398 1.289 . S
O424 Mg401 2.238 . S
O424 Mg402 2.106 1_655 S
O425 Mg402 2.079 . S
O425 C407 1.245 . S
O426 Mg405 2.038 . S
O426 C407 1.274 . S
C427 O439 1.241 . S
C427 O440 1.280 . S
C428 O441 1.277 . S
C428 O442 1.245 . S
C429 O453 1.247 . S
C429 O455 1.289 . S
Mg430 O431 1.926 . S
Mg430 O440 1.984 . S
Mg430 O442 1.988 . S
Mg430 O443 2.061 . S
O431 Mg430 1.926 . S
O431 Mg432 1.986 . S
O431 Mg433 1.917 . S
Mg432 O431 1.986 . S
Mg432 O439 2.042 . S
Mg432 O441 2.041 . S
Mg432 O447 2.038 1_545 S
Mg432 O455 2.238 1_545 S
Mg433 O431 1.917 . S
Mg433 O434 1.917 1_545 S
Mg433 O444 2.106 . S
Mg433 O446 2.079 1_545 S
Mg433 O455 2.106 1_545 S
Mg433 O456 2.079 . S
O434 Mg433 1.917 1_565 S
O434 Mg435 1.926 . S
O434 Mg436 1.986 . S
Mg435 O434 1.926 . S
Mg435 O449 1.984 . S
Mg435 O452 1.988 . S
Mg435 O453 2.061 . S
Mg436 O434 1.986 . S
Mg436 O444 2.238 1_565 S
Mg436 O448 2.042 . S
Mg436 O450 2.041 . S
Mg436 O457 2.038 1_565 S
C437 O443 1.247 . S
C437 O444 1.289 . S
C438 O456 1.245 . S
C438 O457 1.274 . S
O439 C427 1.241 . S
O439 Mg432 2.042 . S
O440 C427 1.280 . S
O440 Mg430 1.984 . S
O441 C428 1.277 . S
O441 Mg432 2.041 . S
O442 C428 1.245 . S
O442 Mg430 1.988 . S
O443 Mg430 2.061 . S
O443 C437 1.247 . S
O444 Mg433 2.106 . S
O444 Mg436 2.238 1_545 S
O444 C437 1.289 . S
C445 O446 1.245 . S
C445 O447 1.274 . S
O446 Mg433 2.079 1_565 S
O446 C445 1.245 . S
O447 Mg432 2.038 1_565 S
O447 C445 1.274 . S
O448 Mg436 2.042 . S
O448 C451 1.241 . S
O449 Mg435 1.984 . S
O449 C451 1.280 . S
O450 Mg436 2.041 . S
O450 C454 1.277 . S
C451 O448 1.241 . S
C451 O449 1.280 . S
O452 Mg435 1.988 . S
O452 C454 1.245 . S
O453 C429 1.247 . S
O453 Mg435 2.061 . S
C454 O450 1.277 . S
C454 O452 1.245 . S
O455 C429 1.289 . S
O455 Mg432 2.238 1_565 S
O455 Mg433 2.106 1_565 S
O456 Mg433 2.079 . S
O456 C438 1.245 . S
O457 Mg436 2.038 1_545 S
O457 C438 1.274 . S
H458 C466 0.929 . S
H459 C468 0.930 . S
H460 C470 0.930 . S
H461 C473 0.929 . S
H462 C476 0.930 . S
H463 C478 0.960 . S
H464 C478 0.960 . S
H465 C478 0.960 . S
C466 H458 0.929 . S
C466 C467 1.377 . S
C466 C468 1.384 . S
C467 C466 1.377 . S
C467 C473 1.390 . S
C468 H459 0.930 . S
C468 C466 1.384 . S
C468 C469 1.372 . S
C469 C468 1.372 . S
C469 C470 1.400 . S
C469 C474 1.490 . S
C470 H460 0.930 . S
C470 C469 1.400 . S
C470 C473 1.386 . S
H471 C487 0.930 . S
H472 C488 0.931 . S
C473 H461 0.929 . S
C473 C467 1.390 . S
C473 C470 1.386 . S
C474 C469 1.490 . S
C474 C476 1.395 . S
C474 C477 1.403 . S
H475 C481 0.930 . S
C476 H462 0.930 . S
C476 C474 1.395 . S
C476 C479 1.403 . S
C477 C474 1.403 . S
C477 C478 1.524 . S
C477 C481 1.400 . S
C478 H463 0.960 . S
C478 H464 0.960 . S
C478 H465 0.960 . S
C478 C477 1.524 . S
C479 C476 1.403 . S
C479 C480 1.392 . S
C479 C483 1.495 . S
C480 C479 1.392 . S
C480 C481 1.385 . S
C480 C482 1.478 . S
C481 H475 0.930 . S
C481 C477 1.400 . S
C481 C480 1.385 . S
C482 C480 1.478 . S
C482 C484 1.381 . S
C482 C488 1.383 . S
C483 C479 1.495 . S
C483 H489 0.959 . S
C483 H490 0.961 . S
C483 H491 0.960 . S
C484 C482 1.381 . S
C484 C485 1.394 . S
C484 H492 0.930 . S
C485 C484 1.394 . S
C485 C486 1.383 . S
C485 H493 0.929 . S
C486 C485 1.383 . S
C486 C487 1.377 . S
C487 H471 0.930 . S
C487 C486 1.377 . S
C487 C488 1.379 . S
C488 H472 0.931 . S
C488 C482 1.383 . S
C488 C487 1.379 . S
H489 C483 0.959 . S
H490 C483 0.961 . S
H491 C483 0.960 . S
H492 C484 0.930 . S
H493 C485 0.929 . S
H494 C502 0.929 . S
H495 C504 0.930 . S
H496 C506 0.930 . S
H497 C509 0.929 . S
H498 C512 0.930 . S
H499 C514 0.960 . S
H500 C514 0.960 . S
H501 C514 0.960 . S
C502 H494 0.929 . S
C502 C503 1.377 . S
C502 C504 1.384 . S
C503 C502 1.377 . S
C503 C509 1.390 . S
C504 H495 0.930 . S
C504 C502 1.384 . S
C504 C505 1.372 . S
C505 C504 1.372 . S
C505 C506 1.400 . S
C505 C510 1.490 . S
C506 H496 0.930 . S
C506 C505 1.400 . S
C506 C509 1.386 . S
H507 C523 0.930 . S
H508 C524 0.931 . S
C509 H497 0.929 . S
C509 C503 1.390 . S
C509 C506 1.386 . S
C510 C505 1.490 . S
C510 C512 1.395 . S
C510 C513 1.403 . S
H511 C517 0.930 . S
C512 H498 0.930 . S
C512 C510 1.395 . S
C512 C515 1.403 . S
C513 C510 1.403 . S
C513 C514 1.524 . S
C513 C517 1.400 . S
C514 H499 0.960 . S
C514 H500 0.960 . S
C514 H501 0.960 . S
C514 C513 1.524 . S
C515 C512 1.403 . S
C515 C516 1.392 . S
C515 C519 1.495 . S
C516 C515 1.392 . S
C516 C517 1.385 . S
C516 C518 1.478 . S
C517 H511 0.930 . S
C517 C513 1.400 . S
C517 C516 1.385 . S
C518 C516 1.478 . S
C518 C520 1.381 . S
C518 C524 1.383 . S
C519 C515 1.495 . S
C519 H525 0.959 . S
C519 H526 0.961 . S
C519 H527 0.960 . S
C520 C518 1.381 . S
C520 C521 1.394 . S
C520 H528 0.930 . S
C521 C520 1.394 . S
C521 C522 1.383 . S
C521 H529 0.929 . S
C522 C521 1.383 . S
C522 C523 1.377 . S
C523 H507 0.930 . S
C523 C522 1.377 . S
C523 C524 1.379 . S
C524 H508 0.931 . S
C524 C518 1.383 . S
C524 C523 1.379 . S
H525 C519 0.959 . S
H526 C519 0.961 . S
H527 C519 0.960 . S
H528 C520 0.930 . S
H529 C521 0.929 . S
H530 C538 0.929 . S
H531 C540 0.930 . S
H532 C542 0.930 . S
H533 C545 0.929 . S
H534 C548 0.930 . S
H535 C550 0.960 . S
H536 C550 0.960 . S
H537 C550 0.960 . S
C538 H530 0.929 . S
C538 C539 1.377 . S
C538 C540 1.384 . S
C539 C538 1.377 . S
C539 C545 1.390 . S
C540 H531 0.930 . S
C540 C538 1.384 . S
C540 C541 1.372 . S
C541 C540 1.372 . S
C541 C542 1.400 . S
C541 C546 1.490 . S
C542 H532 0.930 . S
C542 C541 1.400 . S
C542 C545 1.386 . S
H543 C559 0.930 . S
H544 C560 0.931 . S
C545 H533 0.929 . S
C545 C539 1.390 . S
C545 C542 1.386 . S
C546 C541 1.490 . S
C546 C548 1.395 . S
C546 C549 1.403 . S
H547 C553 0.930 . S
C548 H534 0.930 . S
C548 C546 1.395 . S
C548 C551 1.403 . S
C549 C546 1.403 . S
C549 C550 1.524 . S
C549 C553 1.400 . S
C550 H535 0.960 . S
C550 H536 0.960 . S
C550 H537 0.960 . S
C550 C549 1.524 . S
C551 C548 1.403 . S
C551 C552 1.392 . S
C551 C555 1.495 . S
C552 C551 1.392 . S
C552 C553 1.385 . S
C552 C554 1.478 . S
C553 H547 0.930 . S
C553 C549 1.400 . S
C553 C552 1.385 . S
C554 C552 1.478 . S
C554 C556 1.381 . S
C554 C560 1.383 . S
C555 C551 1.495 . S
C555 H561 0.959 . S
C555 H562 0.961 . S
C555 H563 0.960 . S
C556 C554 1.381 . S
C556 C557 1.394 . S
C556 H564 0.930 . S
C557 C556 1.394 . S
C557 C558 1.383 . S
C557 H565 0.929 . S
C558 C557 1.383 . S
C558 C559 1.377 . S
C559 H543 0.930 . S
C559 C558 1.377 . S
C559 C560 1.379 . S
C560 H544 0.931 . S
C560 C554 1.383 . S
C560 C559 1.379 . S
H561 C555 0.959 . S
H562 C555 0.961 . S
H563 C555 0.960 . S
H564 C556 0.930 . S
H565 C557 0.929 . S
H566 C574 0.929 . S
H567 C576 0.930 . S
H568 C578 0.930 . S
H569 C581 0.929 . S
H570 C584 0.930 . S
H571 C586 0.960 . S
H572 C586 0.960 . S
H573 C586 0.960 . S
C574 H566 0.929 . S
C574 C575 1.377 . S
C574 C576 1.384 . S
C575 C574 1.377 . S
C575 C581 1.390 . S
C576 H567 0.930 . S
C576 C574 1.384 . S
C576 C577 1.372 . S
C577 C576 1.372 . S
C577 C578 1.400 . S
C577 C582 1.490 . S
C578 H568 0.930 . S
C578 C577 1.400 . S
C578 C581 1.386 . S
H579 C595 0.930 . S
H580 C596 0.931 . S
C581 H569 0.929 . S
C581 C575 1.390 . S
C581 C578 1.386 . S
C582 C577 1.490 . S
C582 C584 1.395 . S
C582 C585 1.403 . S
H583 C589 0.930 . S
C584 H570 0.930 . S
C584 C582 1.395 . S
C584 C587 1.403 . S
C585 C582 1.403 . S
C585 C586 1.524 . S
C585 C589 1.400 . S
C586 H571 0.960 . S
C586 H572 0.960 . S
C586 H573 0.960 . S
C586 C585 1.524 . S
C587 C584 1.403 . S
C587 C588 1.392 . S
C587 C591 1.495 . S
C588 C587 1.392 . S
C588 C589 1.385 . S
C588 C590 1.478 . S
C589 H583 0.930 . S
C589 C585 1.400 . S
C589 C588 1.385 . S
C590 C588 1.478 . S
C590 C592 1.381 . S
C590 C596 1.383 . S
C591 C587 1.495 . S
C591 H597 0.959 . S
C591 H598 0.961 . S
C591 H599 0.960 . S
C592 C590 1.381 . S
C592 C593 1.394 . S
C592 H600 0.930 . S
C593 C592 1.394 . S
C593 C594 1.383 . S
C593 H601 0.929 . S
C594 C593 1.383 . S
C594 C595 1.377 . S
C595 H579 0.930 . S
C595 C594 1.377 . S
C595 C596 1.379 . S
C596 H580 0.931 . S
C596 C590 1.383 . S
C596 C595 1.379 . S
H597 C591 0.959 . S
H598 C591 0.961 . S
H599 C591 0.960 . S
H600 C592 0.930 . S
H601 C593 0.929 . S
H602 C610 0.929 . S
H603 C612 0.930 . S
H604 C614 0.930 . S
H605 C617 0.929 . S
H606 C620 0.930 . S
H607 C622 0.960 . S
H608 C622 0.960 . S
H609 C622 0.960 . S
C610 H602 0.929 . S
C610 C611 1.377 . S
C610 C612 1.384 . S
C611 C610 1.377 . S
C611 C617 1.390 . S
C612 H603 0.930 . S
C612 C610 1.384 . S
C612 C613 1.372 . S
C613 C612 1.372 . S
C613 C614 1.400 . S
C613 C618 1.490 . S
C614 H604 0.930 . S
C614 C613 1.400 . S
C614 C617 1.386 . S
H615 C631 0.930 . S
H616 C632 0.931 . S
C617 H605 0.929 . S
C617 C611 1.390 . S
C617 C614 1.386 . S
C618 C613 1.490 . S
C618 C620 1.395 . S
C618 C621 1.403 . S
H619 C625 0.930 . S
C620 H606 0.930 . S
C620 C618 1.395 . S
C620 C623 1.403 . S
C621 C618 1.403 . S
C621 C622 1.524 . S
C621 C625 1.400 . S
C622 H607 0.960 . S
C622 H608 0.960 . S
C622 H609 0.960 . S
C622 C621 1.524 . S
C623 C620 1.403 . S
C623 C624 1.392 . S
C623 C627 1.495 . S
C624 C623 1.392 . S
C624 C625 1.385 . S
C624 C626 1.478 . S
C625 H619 0.930 . S
C625 C621 1.400 . S
C625 C624 1.385 . S
C626 C624 1.478 . S
C626 C628 1.381 . S
C626 C632 1.383 . S
C627 C623 1.495 . S
C627 H633 0.959 . S
C627 H634 0.961 . S
C627 H635 0.960 . S
C628 C626 1.381 . S
C628 C629 1.394 . S
C628 H636 0.930 . S
C629 C628 1.394 . S
C629 C630 1.383 . S
C629 H637 0.929 . S
C630 C629 1.383 . S
C630 C631 1.377 . S
C631 H615 0.930 . S
C631 C630 1.377 . S
C631 C632 1.379 . S
C632 H616 0.931 . S
C632 C626 1.383 . S
C632 C631 1.379 . S
H633 C627 0.959 . S
H634 C627 0.961 . S
H635 C627 0.960 . S
H636 C628 0.930 . S
H637 C629 0.929 . S
H638 C646 0.929 . S
H639 C648 0.930 . S
H640 C650 0.930 . S
H641 C653 0.929 . S
H642 C656 0.930 . S
H643 C658 0.960 . S
H644 C658 0.960 . S
H645 C658 0.960 . S
C646 H638 0.929 . S
C646 C647 1.377 . S
C646 C648 1.384 . S
C647 C646 1.377 . S
C647 C653 1.390 . S
C648 H639 0.930 . S
C648 C646 1.384 . S
C648 C649 1.372 . S
C649 C648 1.372 . S
C649 C650 1.400 . S
C649 C654 1.490 . S
C650 H640 0.930 . S
C650 C649 1.400 . S
C650 C653 1.386 . S
H651 C667 0.930 . S
H652 C668 0.931 . S
C653 H641 0.929 . S
C653 C647 1.390 . S
C653 C650 1.386 . S
C654 C649 1.490 . S
C654 C656 1.395 . S
C654 C657 1.403 . S
H655 C661 0.930 . S
C656 H642 0.930 . S
C656 C654 1.395 . S
C656 C659 1.403 . S
C657 C654 1.403 . S
C657 C658 1.524 . S
C657 C661 1.400 . S
C658 H643 0.960 . S
C658 H644 0.960 . S
C658 H645 0.960 . S
C658 C657 1.524 . S
C659 C656 1.403 . S
C659 C660 1.392 . S
C659 C663 1.495 . S
C660 C659 1.392 . S
C660 C661 1.385 . S
C660 C662 1.478 . S
C661 H655 0.930 . S
C661 C657 1.400 . S
C661 C660 1.385 . S
C662 C660 1.478 . S
C662 C664 1.381 . S
C662 C668 1.383 . S
C663 C659 1.495 . S
C663 H669 0.959 . S
C663 H670 0.961 . S
C663 H671 0.960 . S
C664 C662 1.381 . S
C664 C665 1.394 . S
C664 H672 0.930 . S
C665 C664 1.394 . S
C665 C666 1.383 . S
C665 H673 0.929 . S
C666 C665 1.383 . S
C666 C667 1.377 . S
C667 H651 0.930 . S
C667 C666 1.377 . S
C667 C668 1.379 . S
C668 H652 0.931 . S
C668 C662 1.383 . S
C668 C667 1.379 . S
H669 C663 0.959 . S
H670 C663 0.961 . S
H671 C663 0.960 . S
H672 C664 0.930 . S
H673 C665 0.929 . S
H674 C682 0.929 . S
H675 C684 0.930 . S
H676 C686 0.930 . S
H677 C689 0.929 . S
H678 C692 0.930 . S
H679 C694 0.960 . S
H680 C694 0.960 . S
H681 C694 0.960 . S
C682 H674 0.929 . S
C682 C683 1.377 . S
C682 C684 1.384 . S
C683 C682 1.377 . S
C683 C689 1.390 . S
C684 H675 0.930 . S
C684 C682 1.384 . S
C684 C685 1.372 . S
C685 C684 1.372 . S
C685 C686 1.400 . S
C685 C690 1.490 . S
C686 H676 0.930 . S
C686 C685 1.400 . S
C686 C689 1.386 . S
H687 C703 0.930 . S
H688 C704 0.931 . S
C689 H677 0.929 . S
C689 C683 1.390 . S
C689 C686 1.386 . S
C690 C685 1.490 . S
C690 C692 1.395 . S
C690 C693 1.403 . S
H691 C697 0.930 . S
C692 H678 0.930 . S
C692 C690 1.395 . S
C692 C695 1.403 . S
C693 C690 1.403 . S
C693 C694 1.524 . S
C693 C697 1.400 . S
C694 H679 0.960 . S
C694 H680 0.960 . S
C694 H681 0.960 . S
C694 C693 1.524 . S
C695 C692 1.403 . S
C695 C696 1.392 . S
C695 C699 1.495 . S
C696 C695 1.392 . S
C696 C697 1.385 . S
C696 C698 1.478 . S
C697 H691 0.930 . S
C697 C693 1.400 . S
C697 C696 1.385 . S
C698 C696 1.478 . S
C698 C700 1.381 . S
C698 C704 1.383 . S
C699 C695 1.495 . S
C699 H705 0.959 . S
C699 H706 0.961 . S
C699 H707 0.960 . S
C700 C698 1.381 . S
C700 C701 1.394 . S
C700 H708 0.930 . S
C701 C700 1.394 . S
C701 C702 1.383 . S
C701 H709 0.929 . S
C702 C701 1.383 . S
C702 C703 1.377 . S
C703 H687 0.930 . S
C703 C702 1.377 . S
C703 C704 1.379 . S
C704 H688 0.931 . S
C704 C698 1.383 . S
C704 C703 1.379 . S
H705 C699 0.959 . S
H706 C699 0.961 . S
H707 C699 0.960 . S
H708 C700 0.930 . S
H709 C701 0.929 . S
H710 C718 0.929 . S
H711 C720 0.930 . S
H712 C722 0.930 . S
H713 C725 0.929 . S
H714 C728 0.930 . S
H715 C730 0.960 . S
H716 C730 0.960 . S
H717 C730 0.960 . S
C718 H710 0.929 . S
C718 C719 1.377 . S
C718 C720 1.384 . S
C719 C718 1.377 . S
C719 C725 1.390 . S
C720 H711 0.930 . S
C720 C718 1.384 . S
C720 C721 1.372 . S
C721 C720 1.372 . S
C721 C722 1.400 . S
C721 C726 1.490 . S
C722 H712 0.930 . S
C722 C721 1.400 . S
C722 C725 1.386 . S
H723 C739 0.930 . S
H724 C740 0.931 . S
C725 H713 0.929 . S
C725 C719 1.390 . S
C725 C722 1.386 . S
C726 C721 1.490 . S
C726 C728 1.395 . S
C726 C729 1.403 . S
H727 C733 0.930 . S
C728 H714 0.930 . S
C728 C726 1.395 . S
C728 C731 1.403 . S
C729 C726 1.403 . S
C729 C730 1.524 . S
C729 C733 1.400 . S
C730 H715 0.960 . S
C730 H716 0.960 . S
C730 H717 0.960 . S
C730 C729 1.524 . S
C731 C728 1.403 . S
C731 C732 1.392 . S
C731 C735 1.495 . S
C732 C731 1.392 . S
C732 C733 1.385 . S
C732 C734 1.478 . S
C733 H727 0.930 . S
C733 C729 1.400 . S
C733 C732 1.385 . S
C734 C732 1.478 . S
C734 C736 1.381 . S
C734 C740 1.383 . S
C735 C731 1.495 . S
C735 H741 0.959 . S
C735 H742 0.961 . S
C735 H743 0.960 . S
C736 C734 1.381 . S
C736 C737 1.394 . S
C736 H744 0.930 . S
C737 C736 1.394 . S
C737 C738 1.383 . S
C737 H745 0.929 . S
C738 C737 1.383 . S
C738 C739 1.377 . S
C739 H723 0.930 . S
C739 C738 1.377 . S
C739 C740 1.379 . S
C740 H724 0.931 . S
C740 C734 1.383 . S
C740 C739 1.379 . S
H741 C735 0.959 . S
H742 C735 0.961 . S
H743 C735 0.960 . S
H744 C736 0.930 . S
H745 C737 0.929 . S
H746 C754 0.929 . S
H747 C756 0.930 . S
H748 C758 0.930 . S
H749 C761 0.929 . S
H750 C764 0.930 . S
H751 C766 0.960 . S
H752 C766 0.960 . S
H753 C766 0.960 . S
C754 H746 0.929 . S
C754 C755 1.377 . S
C754 C756 1.384 . S
C755 C754 1.377 . S
C755 C761 1.390 . S
C756 H747 0.930 . S
C756 C754 1.384 . S
C756 C757 1.372 . S
C757 C756 1.372 . S
C757 C758 1.400 . S
C757 C762 1.490 . S
C758 H748 0.930 . S
C758 C757 1.400 . S
C758 C761 1.386 . S
H759 C775 0.930 . S
H760 C776 0.931 . S
C761 H749 0.929 . S
C761 C755 1.390 . S
C761 C758 1.386 . S
C762 C757 1.490 . S
C762 C764 1.395 . S
C762 C765 1.403 . S
H763 C769 0.930 . S
C764 H750 0.930 . S
C764 C762 1.395 . S
C764 C767 1.403 . S
C765 C762 1.403 . S
C765 C766 1.524 . S
C765 C769 1.400 . S
C766 H751 0.960 . S
C766 H752 0.960 . S
C766 H753 0.960 . S
C766 C765 1.524 . S
C767 C764 1.403 . S
C767 C768 1.392 . S
C767 C771 1.495 . S
C768 C767 1.392 . S
C768 C769 1.385 . S
C768 C770 1.478 . S
C769 H763 0.930 . S
C769 C765 1.400 . S
C769 C768 1.385 . S
C770 C768 1.478 . S
C770 C772 1.381 . S
C770 C776 1.383 . S
C771 C767 1.495 . S
C771 H777 0.959 . S
C771 H778 0.961 . S
C771 H779 0.960 . S
C772 C770 1.381 . S
C772 C773 1.394 . S
C772 H780 0.930 . S
C773 C772 1.394 . S
C773 C774 1.383 . S
C773 H781 0.929 . S
C774 C773 1.383 . S
C774 C775 1.377 . S
C775 H759 0.930 . S
C775 C774 1.377 . S
C775 C776 1.379 . S
C776 H760 0.931 . S
C776 C770 1.383 . S
C776 C775 1.379 . S
H777 C771 0.959 . S
H778 C771 0.961 . S
H779 C771 0.960 . S
H780 C772 0.930 . S
H781 C773 0.929 . S
H782 C790 0.929 . S
H783 C792 0.930 . S
H784 C794 0.930 . S
H785 C797 0.929 . S
H786 C800 0.930 . S
H787 C802 0.960 . S
H788 C802 0.960 . S
H789 C802 0.960 . S
C790 H782 0.929 . S
C790 C791 1.377 . S
C790 C792 1.384 . S
C791 C790 1.377 . S
C791 C797 1.390 . S
C792 H783 0.930 . S
C792 C790 1.384 . S
C792 C793 1.372 . S
C793 C792 1.372 . S
C793 C794 1.400 . S
C793 C798 1.490 . S
C794 H784 0.930 . S
C794 C793 1.400 . S
C794 C797 1.386 . S
H795 C811 0.930 . S
H796 C812 0.931 . S
C797 H785 0.929 . S
C797 C791 1.390 . S
C797 C794 1.386 . S
C798 C793 1.490 . S
C798 C800 1.395 . S
C798 C801 1.403 . S
H799 C805 0.930 . S
C800 H786 0.930 . S
C800 C798 1.395 . S
C800 C803 1.403 . S
C801 C798 1.403 . S
C801 C802 1.524 . S
C801 C805 1.400 . S
C802 H787 0.960 . S
C802 H788 0.960 . S
C802 H789 0.960 . S
C802 C801 1.524 . S
C803 C800 1.403 . S
C803 C804 1.392 . S
C803 C807 1.495 . S
C804 C803 1.392 . S
C804 C805 1.385 . S
C804 C806 1.478 . S
C805 H799 0.930 . S
C805 C801 1.400 . S
C805 C804 1.385 . S
C806 C804 1.478 . S
C806 C808 1.381 . S
C806 C812 1.383 . S
C807 C803 1.495 . S
C807 H813 0.959 . S
C807 H814 0.961 . S
C807 H815 0.960 . S
C808 C806 1.381 . S
C808 C809 1.394 . S
C808 H816 0.930 . S
C809 C808 1.394 . S
C809 C810 1.383 . S
C809 H817 0.929 . S
C810 C809 1.383 . S
C810 C811 1.377 . S
C811 H795 0.930 . S
C811 C810 1.377 . S
C811 C812 1.379 . S
C812 H796 0.931 . S
C812 C806 1.383 . S
C812 C811 1.379 . S
H813 C807 0.959 . S
H814 C807 0.961 . S
H815 C807 0.960 . S
H816 C808 0.930 . S
H817 C809 0.929 . S
H818 C826 0.929 . S
H819 C828 0.930 . S
H820 C830 0.930 . S
H821 C833 0.929 . S
H822 C836 0.930 . S
H823 C838 0.960 . S
H824 C838 0.960 . S
H825 C838 0.960 . S
C826 H818 0.929 . S
C826 C827 1.377 . S
C826 C828 1.384 . S
C827 C826 1.377 . S
C827 C833 1.390 . S
C828 H819 0.930 . S
C828 C826 1.384 . S
C828 C829 1.372 . S
C829 C828 1.372 . S
C829 C830 1.400 . S
C829 C834 1.490 . S
C830 H820 0.930 . S
C830 C829 1.400 . S
C830 C833 1.386 . S
H831 C847 0.930 . S
H832 C848 0.931 . S
C833 H821 0.929 . S
C833 C827 1.390 . S
C833 C830 1.386 . S
C834 C829 1.490 . S
C834 C836 1.395 . S
C834 C837 1.403 . S
H835 C841 0.930 . S
C836 H822 0.930 . S
C836 C834 1.395 . S
C836 C839 1.403 . S
C837 C834 1.403 . S
C837 C838 1.524 . S
C837 C841 1.400 . S
C838 H823 0.960 . S
C838 H824 0.960 . S
C838 H825 0.960 . S
C838 C837 1.524 . S
C839 C836 1.403 . S
C839 C840 1.392 . S
C839 C843 1.495 . S
C840 C839 1.392 . S
C840 C841 1.385 . S
C840 C842 1.478 . S
C841 H835 0.930 . S
C841 C837 1.400 . S
C841 C840 1.385 . S
C842 C840 1.478 . S
C842 C844 1.381 . S
C842 C848 1.383 . S
C843 C839 1.495 . S
C843 H849 0.959 . S
C843 H850 0.961 . S
C843 H851 0.960 . S
C844 C842 1.381 . S
C844 C845 1.394 . S
C844 H852 0.930 . S
C845 C844 1.394 . S
C845 C846 1.383 . S
C845 H853 0.929 . S
C846 C845 1.383 . S
C846 C847 1.377 . S
C847 H831 0.930 . S
C847 C846 1.377 . S
C847 C848 1.379 . S
C848 H832 0.931 . S
C848 C842 1.383 . S
C848 C847 1.379 . S
H849 C843 0.959 . S
H850 C843 0.961 . S
H851 C843 0.960 . S
H852 C844 0.930 . S
H853 C845 0.929 . S
H854 C862 0.929 . S
H855 C864 0.930 . S
H856 C866 0.930 . S
H857 C869 0.929 . S
H858 C872 0.930 . S
H859 C874 0.960 . S
H860 C874 0.960 . S
H861 C874 0.960 . S
C862 H854 0.929 . S
C862 C863 1.377 . S
C862 C864 1.384 . S
C863 C862 1.377 . S
C863 C869 1.390 . S
C864 H855 0.930 . S
C864 C862 1.384 . S
C864 C865 1.372 . S
C865 C864 1.372 . S
C865 C866 1.400 . S
C865 C870 1.490 . S
C866 H856 0.930 . S
C866 C865 1.400 . S
C866 C869 1.386 . S
H867 C883 0.930 . S
H868 C884 0.931 . S
C869 H857 0.929 . S
C869 C863 1.390 . S
C869 C866 1.386 . S
C870 C865 1.490 . S
C870 C872 1.395 . S
C870 C873 1.403 . S
H871 C877 0.930 . S
C872 H858 0.930 . S
C872 C870 1.395 . S
C872 C875 1.403 . S
C873 C870 1.403 . S
C873 C874 1.524 . S
C873 C877 1.400 . S
C874 H859 0.960 . S
C874 H860 0.960 . S
C874 H861 0.960 . S
C874 C873 1.524 . S
C875 C872 1.403 . S
C875 C876 1.392 . S
C875 C879 1.495 . S
C876 C875 1.392 . S
C876 C877 1.385 . S
C876 C878 1.478 . S
C877 H871 0.930 . S
C877 C873 1.400 . S
C877 C876 1.385 . S
C878 C876 1.478 . S
C878 C880 1.381 . S
C878 C884 1.383 . S
C879 C875 1.495 . S
C879 H885 0.959 . S
C879 H886 0.961 . S
C879 H887 0.960 . S
C880 C878 1.381 . S
C880 C881 1.394 . S
C880 H888 0.930 . S
C881 C880 1.394 . S
C881 C882 1.383 . S
C881 H889 0.929 . S
C882 C881 1.383 . S
C882 C883 1.377 . S
C883 H867 0.930 . S
C883 C882 1.377 . S
C883 C884 1.379 . S
C884 H868 0.931 . S
C884 C878 1.383 . S
C884 C883 1.379 . S
H885 C879 0.959 . S
H886 C879 0.961 . S
H887 C879 0.960 . S
H888 C880 0.930 . S
H889 C881 0.929 . S
H890 C898 0.929 . S
H891 C900 0.930 . S
H892 C902 0.930 . S
H893 C905 0.929 . S
H894 C908 0.930 . S
H895 C910 0.960 . S
H896 C910 0.960 . S
H897 C910 0.960 . S
C898 H890 0.929 . S
C898 C899 1.377 . S
C898 C900 1.384 . S
C899 C898 1.377 . S
C899 C905 1.390 . S
C900 H891 0.930 . S
C900 C898 1.384 . S
C900 C901 1.372 . S
C901 C900 1.372 . S
C901 C902 1.400 . S
C901 C906 1.490 . S
C902 H892 0.930 . S
C902 C901 1.400 . S
C902 C905 1.386 . S
H903 C919 0.930 . S
H904 C920 0.931 . S
C905 H893 0.929 . S
C905 C899 1.390 . S
C905 C902 1.386 . S
C906 C901 1.490 . S
C906 C908 1.395 . S
C906 C909 1.403 . S
H907 C913 0.930 . S
C908 H894 0.930 . S
C908 C906 1.395 . S
C908 C911 1.403 . S
C909 C906 1.403 . S
C909 C910 1.524 . S
C909 C913 1.400 . S
C910 H895 0.960 . S
C910 H896 0.960 . S
C910 H897 0.960 . S
C910 C909 1.524 . S
C911 C908 1.403 . S
C911 C912 1.392 . S
C911 C915 1.495 . S
C912 C911 1.392 . S
C912 C913 1.385 . S
C912 C914 1.478 . S
C913 H907 0.930 . S
C913 C909 1.400 . S
C913 C912 1.385 . S
C914 C912 1.478 . S
C914 C916 1.381 . S
C914 C920 1.383 . S
C915 C911 1.495 . S
C915 H921 0.959 . S
C915 H922 0.961 . S
C915 H923 0.960 . S
C916 C914 1.381 . S
C916 C917 1.394 . S
C916 H924 0.930 . S
C917 C916 1.394 . S
C917 C918 1.383 . S
C917 H925 0.929 . S
C918 C917 1.383 . S
C918 C919 1.377 . S
C919 H903 0.930 . S
C919 C918 1.377 . S
C919 C920 1.379 . S
C920 H904 0.931 . S
C920 C914 1.383 . S
C920 C919 1.379 . S
H921 C915 0.959 . S
H922 C915 0.961 . S
H923 C915 0.960 . S
H924 C916 0.930 . S
H925 C917 0.929 . S
H926 C934 0.929 . S
H927 C936 0.930 . S
H928 C938 0.930 . S
H929 C941 0.929 . S
H930 C944 0.930 . S
H931 C946 0.960 . S
H932 C946 0.960 . S
H933 C946 0.960 . S
C934 H926 0.929 . S
C934 C935 1.377 . S
C934 C936 1.384 . S
C935 C934 1.377 . S
C935 C941 1.390 . S
C936 H927 0.930 . S
C936 C934 1.384 . S
C936 C937 1.372 . S
C937 C936 1.372 . S
C937 C938 1.400 . S
C937 C942 1.490 . S
C938 H928 0.930 . S
C938 C937 1.400 . S
C938 C941 1.386 . S
H939 C955 0.930 . S
H940 C956 0.931 . S
C941 H929 0.929 . S
C941 C935 1.390 . S
C941 C938 1.386 . S
C942 C937 1.490 . S
C942 C944 1.395 . S
C942 C945 1.403 . S
H943 C949 0.930 . S
C944 H930 0.930 . S
C944 C942 1.395 . S
C944 C947 1.403 . S
C945 C942 1.403 . S
C945 C946 1.524 . S
C945 C949 1.400 . S
C946 H931 0.960 . S
C946 H932 0.960 . S
C946 H933 0.960 . S
C946 C945 1.524 . S
C947 C944 1.403 . S
C947 C948 1.392 . S
C947 C951 1.495 . S
C948 C947 1.392 . S
C948 C949 1.385 . S
C948 C950 1.478 . S
C949 H943 0.930 . S
C949 C945 1.400 . S
C949 C948 1.385 . S
C950 C948 1.478 . S
C950 C952 1.381 . S
C950 C956 1.383 . S
C951 C947 1.495 . S
C951 H957 0.959 . S
C951 H958 0.961 . S
C951 H959 0.960 . S
C952 C950 1.381 . S
C952 C953 1.394 . S
C952 H960 0.930 . S
C953 C952 1.394 . S
C953 C954 1.383 . S
C953 H961 0.929 . S
C954 C953 1.383 . S
C954 C955 1.377 . S
C955 H939 0.930 . S
C955 C954 1.377 . S
C955 C956 1.379 . S
C956 H940 0.931 . S
C956 C950 1.383 . S
C956 C955 1.379 . S
H957 C951 0.959 . S
H958 C951 0.961 . S
H959 C951 0.960 . S
H960 C952 0.930 . S
H961 C953 0.929 . S
H962 C970 0.929 . S
H963 C972 0.930 . S
H964 C974 0.930 . S
H965 C977 0.929 . S
H966 C980 0.930 . S
H967 C982 0.960 . S
H968 C982 0.960 . S
H969 C982 0.960 . S
C970 H962 0.929 . S
C970 C971 1.377 . S
C970 C972 1.384 . S
C971 C970 1.377 . S
C971 C977 1.390 . S
C972 H963 0.930 . S
C972 C970 1.384 . S
C972 C973 1.372 . S
C973 C972 1.372 . S
C973 C974 1.400 . S
C973 C978 1.490 . S
C974 H964 0.930 . S
C974 C973 1.400 . S
C974 C977 1.386 . S
H975 C991 0.930 . S
H976 C992 0.931 . S
C977 H965 0.929 . S
C977 C971 1.390 . S
C977 C974 1.386 . S
C978 C973 1.490 . S
C978 C980 1.395 . S
C978 C981 1.403 . S
H979 C985 0.930 . S
C980 H966 0.930 . S
C980 C978 1.395 . S
C980 C983 1.403 . S
C981 C978 1.403 . S
C981 C982 1.524 . S
C981 C985 1.400 . S
C982 H967 0.960 . S
C982 H968 0.960 . S
C982 H969 0.960 . S
C982 C981 1.524 . S
C983 C980 1.403 . S
C983 C984 1.392 . S
C983 C987 1.495 . S
C984 C983 1.392 . S
C984 C985 1.385 . S
C984 C986 1.478 . S
C985 H979 0.930 . S
C985 C981 1.400 . S
C985 C984 1.385 . S
C986 C984 1.478 . S
C986 C988 1.381 . S
C986 C992 1.383 . S
C987 C983 1.495 . S
C987 H993 0.959 . S
C987 H994 0.961 . S
C987 H995 0.960 . S
C988 C986 1.381 . S
C988 C989 1.394 . S
C988 H996 0.930 . S
C989 C988 1.394 . S
C989 C990 1.383 . S
C989 H997 0.929 . S
C990 C989 1.383 . S
C990 C991 1.377 . S
C991 H975 0.930 . S
C991 C990 1.377 . S
C991 C992 1.379 . S
C992 H976 0.931 . S
C992 C986 1.383 . S
C992 C991 1.379 . S
H993 C987 0.959 . S
H994 C987 0.961 . S
H995 C987 0.960 . S
H996 C988 0.930 . S
H997 C989 0.929 . S
H998 C1006 0.929 . S
H999 C1008 0.930 . S
H1000 C1010 0.930 . S
H1001 C1013 0.929 . S
H1002 C1016 0.930 . S
H1003 C1018 0.960 . S
H1004 C1018 0.960 . S
H1005 C1018 0.960 . S
C1006 H998 0.929 . S
C1006 C1007 1.377 . S
C1006 C1008 1.384 . S
C1007 C1006 1.377 . S
C1007 C1013 1.390 . S
C1008 H999 0.930 . S
C1008 C1006 1.384 . S
C1008 C1009 1.372 . S
C1009 C1008 1.372 . S
C1009 C1010 1.400 . S
C1009 C1014 1.490 . S
C1010 H1000 0.930 . S
C1010 C1009 1.400 . S
C1010 C1013 1.386 . S
H1011 C1027 0.930 . S
H1012 C1028 0.931 . S
C1013 H1001 0.929 . S
C1013 C1007 1.390 . S
C1013 C1010 1.386 . S
C1014 C1009 1.490 . S
C1014 C1016 1.395 . S
C1014 C1017 1.403 . S
H1015 C1021 0.930 . S
C1016 H1002 0.930 . S
C1016 C1014 1.395 . S
C1016 C1019 1.403 . S
C1017 C1014 1.403 . S
C1017 C1018 1.524 . S
C1017 C1021 1.400 . S
C1018 H1003 0.960 . S
C1018 H1004 0.960 . S
C1018 H1005 0.960 . S
C1018 C1017 1.524 . S
C1019 C1016 1.403 . S
C1019 C1020 1.392 . S
C1019 C1023 1.495 . S
C1020 C1019 1.392 . S
C1020 C1021 1.385 . S
C1020 C1022 1.478 . S
C1021 H1015 0.930 . S
C1021 C1017 1.400 . S
C1021 C1020 1.385 . S
C1022 C1020 1.478 . S
C1022 C1024 1.381 . S
C1022 C1028 1.383 . S
C1023 C1019 1.495 . S
C1023 H1029 0.959 . S
C1023 H1030 0.961 . S
C1023 H1031 0.960 . S
C1024 C1022 1.381 . S
C1024 C1025 1.394 . S
C1024 H1032 0.930 . S
C1025 C1024 1.394 . S
C1025 C1026 1.383 . S
C1025 H1033 0.929 . S
C1026 C1025 1.383 . S
C1026 C1027 1.377 . S
C1027 H1011 0.930 . S
C1027 C1026 1.377 . S
C1027 C1028 1.379 . S
C1028 H1012 0.931 . S
C1028 C1022 1.383 . S
C1028 C1027 1.379 . S
H1029 C1023 0.959 . S
H1030 C1023 0.961 . S
H1031 C1023 0.960 . S
H1032 C1024 0.930 . S
H1033 C1025 0.929 . S
H1034 C1042 0.929 . S
H1035 C1044 0.930 . S
H1036 C1046 0.930 . S
H1037 C1049 0.929 . S
H1038 C1052 0.930 . S
H1039 C1054 0.960 . S
H1040 C1054 0.960 . S
H1041 C1054 0.960 . S
C1042 H1034 0.929 . S
C1042 C1043 1.377 . S
C1042 C1044 1.384 . S
C1043 C1042 1.377 . S
C1043 C1049 1.390 . S
C1044 H1035 0.930 . S
C1044 C1042 1.384 . S
C1044 C1045 1.372 . S
C1045 C1044 1.372 . S
C1045 C1046 1.400 . S
C1045 C1050 1.490 . S
C1046 H1036 0.930 . S
C1046 C1045 1.400 . S
C1046 C1049 1.386 . S
H1047 C1063 0.930 . S
H1048 C1064 0.931 . S
C1049 H1037 0.929 . S
C1049 C1043 1.390 . S
C1049 C1046 1.386 . S
C1050 C1045 1.490 . S
C1050 C1052 1.395 . S
C1050 C1053 1.403 . S
H1051 C1057 0.930 . S
C1052 H1038 0.930 . S
C1052 C1050 1.395 . S
C1052 C1055 1.403 . S
C1053 C1050 1.403 . S
C1053 C1054 1.524 . S
C1053 C1057 1.400 . S
C1054 H1039 0.960 . S
C1054 H1040 0.960 . S
C1054 H1041 0.960 . S
C1054 C1053 1.524 . S
C1055 C1052 1.403 . S
C1055 C1056 1.392 . S
C1055 C1059 1.495 . S
C1056 C1055 1.392 . S
C1056 C1057 1.385 . S
C1056 C1058 1.478 . S
C1057 H1051 0.930 . S
C1057 C1053 1.400 . S
C1057 C1056 1.385 . S
C1058 C1056 1.478 . S
C1058 C1060 1.381 . S
C1058 C1064 1.383 . S
C1059 C1055 1.495 . S
C1059 H1065 0.959 . S
C1059 H1066 0.961 . S
C1059 H1067 0.960 . S
C1060 C1058 1.381 . S
C1060 C1061 1.394 . S
C1060 H1068 0.930 . S
C1061 C1060 1.394 . S
C1061 C1062 1.383 . S
C1061 H1069 0.929 . S
C1062 C1061 1.383 . S
C1062 C1063 1.377 . S
C1063 H1047 0.930 . S
C1063 C1062 1.377 . S
C1063 C1064 1.379 . S
C1064 H1048 0.931 . S
C1064 C1058 1.383 . S
C1064 C1063 1.379 . S
H1065 C1059 0.959 . S
H1066 C1059 0.961 . S
H1067 C1059 0.960 . S
H1068 C1060 0.930 . S
H1069 C1061 0.929 . S
H1070 C1078 0.929 . S
H1071 C1080 0.930 . S
H1072 C1082 0.930 . S
H1073 C1085 0.929 . S
H1074 C1088 0.930 . S
H1075 C1090 0.960 . S
H1076 C1090 0.960 . S
H1077 C1090 0.960 . S
C1078 H1070 0.929 . S
C1078 C1079 1.377 . S
C1078 C1080 1.384 . S
C1079 C1078 1.377 . S
C1079 C1085 1.390 . S
C1080 H1071 0.930 . S
C1080 C1078 1.384 . S
C1080 C1081 1.372 . S
C1081 C1080 1.372 . S
C1081 C1082 1.400 . S
C1081 C1086 1.490 . S
C1082 H1072 0.930 . S
C1082 C1081 1.400 . S
C1082 C1085 1.386 . S
H1083 C1099 0.930 . S
H1084 C1100 0.931 . S
C1085 H1073 0.929 . S
C1085 C1079 1.390 . S
C1085 C1082 1.386 . S
C1086 C1081 1.490 . S
C1086 C1088 1.395 . S
C1086 C1089 1.403 . S
H1087 C1093 0.930 . S
C1088 H1074 0.930 . S
C1088 C1086 1.395 . S
C1088 C1091 1.403 . S
C1089 C1086 1.403 . S
C1089 C1090 1.524 . S
C1089 C1093 1.400 . S
C1090 H1075 0.960 . S
C1090 H1076 0.960 . S
C1090 H1077 0.960 . S
C1090 C1089 1.524 . S
C1091 C1088 1.403 . S
C1091 C1092 1.392 . S
C1091 C1095 1.495 . S
C1092 C1091 1.392 . S
C1092 C1093 1.385 . S
C1092 C1094 1.478 . S
C1093 H1087 0.930 . S
C1093 C1089 1.400 . S
C1093 C1092 1.385 . S
C1094 C1092 1.478 . S
C1094 C1096 1.381 . S
C1094 C1100 1.383 . S
C1095 C1091 1.495 . S
C1095 H1101 0.959 . S
C1095 H1102 0.961 . S
C1095 H1103 0.960 . S
C1096 C1094 1.381 . S
C1096 C1097 1.394 . S
C1096 H1104 0.930 . S
C1097 C1096 1.394 . S
C1097 C1098 1.383 . S
C1097 H1105 0.929 . S
C1098 C1097 1.383 . S
C1098 C1099 1.377 . S
C1099 H1083 0.930 . S
C1099 C1098 1.377 . S
C1099 C1100 1.379 . S
C1100 H1084 0.931 . S
C1100 C1094 1.383 . S
C1100 C1099 1.379 . S
H1101 C1095 0.959 . S
H1102 C1095 0.961 . S
H1103 C1095 0.960 . S
H1104 C1096 0.930 . S
H1105 C1097 0.929 . S
H1106 C1114 0.929 . S
H1107 C1116 0.930 . S
H1108 C1118 0.930 . S
H1109 C1121 0.929 . S
H1110 C1124 0.930 . S
H1111 C1126 0.960 . S
H1112 C1126 0.960 . S
H1113 C1126 0.960 . S
C1114 H1106 0.929 . S
C1114 C1115 1.377 . S
C1114 C1116 1.384 . S
C1115 C1114 1.377 . S
C1115 C1121 1.390 . S
C1116 H1107 0.930 . S
C1116 C1114 1.384 . S
C1116 C1117 1.372 . S
C1117 C1116 1.372 . S
C1117 C1118 1.400 . S
C1117 C1122 1.490 . S
C1118 H1108 0.930 . S
C1118 C1117 1.400 . S
C1118 C1121 1.386 . S
H1119 C1135 0.930 . S
H1120 C1136 0.931 . S
C1121 H1109 0.929 . S
C1121 C1115 1.390 . S
C1121 C1118 1.386 . S
C1122 C1117 1.490 . S
C1122 C1124 1.395 . S
C1122 C1125 1.403 . S
H1123 C1129 0.930 . S
C1124 H1110 0.930 . S
C1124 C1122 1.395 . S
C1124 C1127 1.403 . S
C1125 C1122 1.403 . S
C1125 C1126 1.524 . S
C1125 C1129 1.400 . S
C1126 H1111 0.960 . S
C1126 H1112 0.960 . S
C1126 H1113 0.960 . S
C1126 C1125 1.524 . S
C1127 C1124 1.403 . S
C1127 C1128 1.392 . S
C1127 C1131 1.495 . S
C1128 C1127 1.392 . S
C1128 C1129 1.385 . S
C1128 C1130 1.478 . S
C1129 H1123 0.930 . S
C1129 C1125 1.400 . S
C1129 C1128 1.385 . S
C1130 C1128 1.478 . S
C1130 C1132 1.381 . S
C1130 C1136 1.383 . S
C1131 C1127 1.495 . S
C1131 H1137 0.959 . S
C1131 H1138 0.961 . S
C1131 H1139 0.960 . S
C1132 C1130 1.381 . S
C1132 C1133 1.394 . S
C1132 H1140 0.930 . S
C1133 C1132 1.394 . S
C1133 C1134 1.383 . S
C1133 H1141 0.929 . S
C1134 C1133 1.383 . S
C1134 C1135 1.377 . S
C1135 H1119 0.930 . S
C1135 C1134 1.377 . S
C1135 C1136 1.379 . S
C1136 H1120 0.931 . S
C1136 C1130 1.383 . S
C1136 C1135 1.379 . S
H1137 C1131 0.959 . S
H1138 C1131 0.961 . S
H1139 C1131 0.960 . S
H1140 C1132 0.930 . S
H1141 C1133 0.929 . S
H1142 C1150 0.929 . S
H1143 C1152 0.930 . S
H1144 C1154 0.930 . S
H1145 C1157 0.929 . S
H1146 C1160 0.930 . S
H1147 C1162 0.960 . S
H1148 C1162 0.960 . S
H1149 C1162 0.960 . S
C1150 H1142 0.929 . S
C1150 C1151 1.377 . S
C1150 C1152 1.384 . S
C1151 C1150 1.377 . S
C1151 C1157 1.390 . S
C1152 H1143 0.930 . S
C1152 C1150 1.384 . S
C1152 C1153 1.372 . S
C1153 C1152 1.372 . S
C1153 C1154 1.400 . S
C1153 C1158 1.490 . S
C1154 H1144 0.930 . S
C1154 C1153 1.400 . S
C1154 C1157 1.386 . S
H1155 C1171 0.930 . S
H1156 C1172 0.931 . S
C1157 H1145 0.929 . S
C1157 C1151 1.390 . S
C1157 C1154 1.386 . S
C1158 C1153 1.490 . S
C1158 C1160 1.395 . S
C1158 C1161 1.403 . S
H1159 C1165 0.930 . S
C1160 H1146 0.930 . S
C1160 C1158 1.395 . S
C1160 C1163 1.403 . S
C1161 C1158 1.403 . S
C1161 C1162 1.524 . S
C1161 C1165 1.400 . S
C1162 H1147 0.960 . S
C1162 H1148 0.960 . S
C1162 H1149 0.960 . S
C1162 C1161 1.524 . S
C1163 C1160 1.403 . S
C1163 C1164 1.392 . S
C1163 C1167 1.495 . S
C1164 C1163 1.392 . S
C1164 C1165 1.385 . S
C1164 C1166 1.478 . S
C1165 H1159 0.930 . S
C1165 C1161 1.400 . S
C1165 C1164 1.385 . S
C1166 C1164 1.478 . S
C1166 C1168 1.381 . S
C1166 C1172 1.383 . S
C1167 C1163 1.495 . S
C1167 H1173 0.959 . S
C1167 H1174 0.961 . S
C1167 H1175 0.960 . S
C1168 C1166 1.381 . S
C1168 C1169 1.394 . S
C1168 H1176 0.930 . S
C1169 C1168 1.394 . S
C1169 C1170 1.383 . S
C1169 H1177 0.929 . S
C1170 C1169 1.383 . S
C1170 C1171 1.377 . S
C1171 H1155 0.930 . S
C1171 C1170 1.377 . S
C1171 C1172 1.379 . S
C1172 H1156 0.931 . S
C1172 C1166 1.383 . S
C1172 C1171 1.379 . S
H1173 C1167 0.959 . S
H1174 C1167 0.961 . S
H1175 C1167 0.960 . S
H1176 C1168 0.930 . S
H1177 C1169 0.929 . S
H1178 C1186 0.929 . S
H1179 C1188 0.930 . S
H1180 C1190 0.930 . S
H1181 C1193 0.929 . S
H1182 C1196 0.930 . S
H1183 C1198 0.960 . S
H1184 C1198 0.960 . S
H1185 C1198 0.960 . S
C1186 H1178 0.929 . S
C1186 C1187 1.377 . S
C1186 C1188 1.384 . S
C1187 C1186 1.377 . S
C1187 C1193 1.390 . S
C1188 H1179 0.930 . S
C1188 C1186 1.384 . S
C1188 C1189 1.372 . S
C1189 C1188 1.372 . S
C1189 C1190 1.400 . S
C1189 C1194 1.490 . S
C1190 H1180 0.930 . S
C1190 C1189 1.400 . S
C1190 C1193 1.386 . S
H1191 C1207 0.930 . S
H1192 C1208 0.931 . S
C1193 H1181 0.929 . S
C1193 C1187 1.390 . S
C1193 C1190 1.386 . S
C1194 C1189 1.490 . S
C1194 C1196 1.395 . S
C1194 C1197 1.403 . S
H1195 C1201 0.930 . S
C1196 H1182 0.930 . S
C1196 C1194 1.395 . S
C1196 C1199 1.403 . S
C1197 C1194 1.403 . S
C1197 C1198 1.524 . S
C1197 C1201 1.400 . S
C1198 H1183 0.960 . S
C1198 H1184 0.960 . S
C1198 H1185 0.960 . S
C1198 C1197 1.524 . S
C1199 C1196 1.403 . S
C1199 C1200 1.392 . S
C1199 C1203 1.495 . S
C1200 C1199 1.392 . S
C1200 C1201 1.385 . S
C1200 C1202 1.478 . S
C1201 H1195 0.930 . S
C1201 C1197 1.400 . S
C1201 C1200 1.385 . S
C1202 C1200 1.478 . S
C1202 C1204 1.381 . S
C1202 C1208 1.383 . S
C1203 C1199 1.495 . S
C1203 H1209 0.959 . S
C1203 H1210 0.961 . S
C1203 H1211 0.960 . S
C1204 C1202 1.381 . S
C1204 C1205 1.394 . S
C1204 H1212 0.930 . S
C1205 C1204 1.394 . S
C1205 C1206 1.383 . S
C1205 H1213 0.929 . S
C1206 C1205 1.383 . S
C1206 C1207 1.377 . S
C1207 H1191 0.930 . S
C1207 C1206 1.377 . S
C1207 C1208 1.379 . S
C1208 H1192 0.931 . S
C1208 C1202 1.383 . S
C1208 C1207 1.379 . S
H1209 C1203 0.959 . S
H1210 C1203 0.961 . S
H1211 C1203 0.960 . S
H1212 C1204 0.930 . S
H1213 C1205 0.929 . S
H1214 C1222 0.929 . S
H1215 C1224 0.930 . S
H1216 C1226 0.930 . S
H1217 C1229 0.929 . S
H1218 C1232 0.930 . S
H1219 C1234 0.960 . S
H1220 C1234 0.960 . S
H1221 C1234 0.960 . S
C1222 H1214 0.929 . S
C1222 C1223 1.377 . S
C1222 C1224 1.384 . S
C1223 C1222 1.377 . S
C1223 C1229 1.390 . S
C1224 H1215 0.930 . S
C1224 C1222 1.384 . S
C1224 C1225 1.372 . S
C1225 C1224 1.372 . S
C1225 C1226 1.400 . S
C1225 C1230 1.490 . S
C1226 H1216 0.930 . S
C1226 C1225 1.400 . S
C1226 C1229 1.386 . S
H1227 C1243 0.930 . S
H1228 C1244 0.931 . S
C1229 H1217 0.929 . S
C1229 C1223 1.390 . S
C1229 C1226 1.386 . S
C1230 C1225 1.490 . S
C1230 C1232 1.395 . S
C1230 C1233 1.403 . S
H1231 C1237 0.930 . S
C1232 H1218 0.930 . S
C1232 C1230 1.395 . S
C1232 C1235 1.403 . S
C1233 C1230 1.403 . S
C1233 C1234 1.524 . S
C1233 C1237 1.400 . S
C1234 H1219 0.960 . S
C1234 H1220 0.960 . S
C1234 H1221 0.960 . S
C1234 C1233 1.524 . S
C1235 C1232 1.403 . S
C1235 C1236 1.392 . S
C1235 C1239 1.495 . S
C1236 C1235 1.392 . S
C1236 C1237 1.385 . S
C1236 C1238 1.478 . S
C1237 H1231 0.930 . S
C1237 C1233 1.400 . S
C1237 C1236 1.385 . S
C1238 C1236 1.478 . S
C1238 C1240 1.381 . S
C1238 C1244 1.383 . S
C1239 C1235 1.495 . S
C1239 H1245 0.959 . S
C1239 H1246 0.961 . S
C1239 H1247 0.960 . S
C1240 C1238 1.381 . S
C1240 C1241 1.394 . S
C1240 H1248 0.930 . S
C1241 C1240 1.394 . S
C1241 C1242 1.383 . S
C1241 H1249 0.929 . S
C1242 C1241 1.383 . S
C1242 C1243 1.377 . S
C1243 H1227 0.930 . S
C1243 C1242 1.377 . S
C1243 C1244 1.379 . S
C1244 H1228 0.931 . S
C1244 C1238 1.383 . S
C1244 C1243 1.379 . S
H1245 C1239 0.959 . S
H1246 C1239 0.961 . S
H1247 C1239 0.960 . S
H1248 C1240 0.930 . S
H1249 C1241 0.929 . S
H1250 C1258 0.929 . S
H1251 C1260 0.930 . S
H1252 C1262 0.930 . S
H1253 C1265 0.929 . S
H1254 C1268 0.930 . S
H1255 C1270 0.960 . S
H1256 C1270 0.960 . S
H1257 C1270 0.960 . S
C1258 H1250 0.929 . S
C1258 C1259 1.377 . S
C1258 C1260 1.384 . S
C1259 C1258 1.377 . S
C1259 C1265 1.390 . S
C1260 H1251 0.930 . S
C1260 C1258 1.384 . S
C1260 C1261 1.372 . S
C1261 C1260 1.372 . S
C1261 C1262 1.400 . S
C1261 C1266 1.490 . S
C1262 H1252 0.930 . S
C1262 C1261 1.400 . S
C1262 C1265 1.386 . S
H1263 C1279 0.930 . S
H1264 C1280 0.931 . S
C1265 H1253 0.929 . S
C1265 C1259 1.390 . S
C1265 C1262 1.386 . S
C1266 C1261 1.490 . S
C1266 C1268 1.395 . S
C1266 C1269 1.403 . S
H1267 C1273 0.930 . S
C1268 H1254 0.930 . S
C1268 C1266 1.395 . S
C1268 C1271 1.403 . S
C1269 C1266 1.403 . S
C1269 C1270 1.524 . S
C1269 C1273 1.400 . S
C1270 H1255 0.960 . S
C1270 H1256 0.960 . S
C1270 H1257 0.960 . S
C1270 C1269 1.524 . S
C1271 C1268 1.403 . S
C1271 C1272 1.392 . S
C1271 C1275 1.495 . S
C1272 C1271 1.392 . S
C1272 C1273 1.385 . S
C1272 C1274 1.478 . S
C1273 H1267 0.930 . S
C1273 C1269 1.400 . S
C1273 C1272 1.385 . S
C1274 C1272 1.478 . S
C1274 C1276 1.381 . S
C1274 C1280 1.383 . S
C1275 C1271 1.495 . S
C1275 H1281 0.959 . S
C1275 H1282 0.961 . S
C1275 H1283 0.960 . S
C1276 C1274 1.381 . S
C1276 C1277 1.394 . S
C1276 H1284 0.930 . S
C1277 C1276 1.394 . S
C1277 C1278 1.383 . S
C1277 H1285 0.929 . S
C1278 C1277 1.383 . S
C1278 C1279 1.377 . S
C1279 H1263 0.930 . S
C1279 C1278 1.377 . S
C1279 C1280 1.379 . S
C1280 H1264 0.931 . S
C1280 C1274 1.383 . S
C1280 C1279 1.379 . S
H1281 C1275 0.959 . S
H1282 C1275 0.961 . S
H1283 C1275 0.960 . S
H1284 C1276 0.930 . S
H1285 C1277 0.929 . S
H1286 C1294 0.929 . S
H1287 C1296 0.930 . S
H1288 C1298 0.930 . S
H1289 C1301 0.929 . S
H1290 C1304 0.930 . S
H1291 C1306 0.960 . S
H1292 C1306 0.960 . S
H1293 C1306 0.960 . S
C1294 H1286 0.929 . S
C1294 C1295 1.377 . S
C1294 C1296 1.384 . S
C1295 C1294 1.377 . S
C1295 C1301 1.390 . S
C1296 H1287 0.930 . S
C1296 C1294 1.384 . S
C1296 C1297 1.372 . S
C1297 C1296 1.372 . S
C1297 C1298 1.400 . S
C1297 C1302 1.490 . S
C1298 H1288 0.930 . S
C1298 C1297 1.400 . S
C1298 C1301 1.386 . S
H1299 C1315 0.930 . S
H1300 C1316 0.931 . S
C1301 H1289 0.929 . S
C1301 C1295 1.390 . S
C1301 C1298 1.386 . S
C1302 C1297 1.490 . S
C1302 C1304 1.395 . S
C1302 C1305 1.403 . S
H1303 C1309 0.930 . S
C1304 H1290 0.930 . S
C1304 C1302 1.395 . S
C1304 C1307 1.403 . S
C1305 C1302 1.403 . S
C1305 C1306 1.524 . S
C1305 C1309 1.400 . S
C1306 H1291 0.960 . S
C1306 H1292 0.960 . S
C1306 H1293 0.960 . S
C1306 C1305 1.524 . S
C1307 C1304 1.403 . S
C1307 C1308 1.392 . S
C1307 C1311 1.495 . S
C1308 C1307 1.392 . S
C1308 C1309 1.385 . S
C1308 C1310 1.478 . S
C1309 H1303 0.930 . S
C1309 C1305 1.400 . S
C1309 C1308 1.385 . S
C1310 C1308 1.478 . S
C1310 C1312 1.381 . S
C1310 C1316 1.383 . S
C1311 C1307 1.495 . S
C1311 H1317 0.959 . S
C1311 H1318 0.961 . S
C1311 H1319 0.960 . S
C1312 C1310 1.381 . S
C1312 C1313 1.394 . S
C1312 H1320 0.930 . S
C1313 C1312 1.394 . S
C1313 C1314 1.383 . S
C1313 H1321 0.929 . S
C1314 C1313 1.383 . S
C1314 C1315 1.377 . S
C1315 H1299 0.930 . S
C1315 C1314 1.377 . S
C1315 C1316 1.379 . S
C1316 H1300 0.931 . S
C1316 C1310 1.383 . S
C1316 C1315 1.379 . S
H1317 C1311 0.959 . S
H1318 C1311 0.961 . S
H1319 C1311 0.960 . S
H1320 C1312 0.930 . S
H1321 C1313 0.929 . S
H1322 C1330 0.929 . S
H1323 C1332 0.930 . S
H1324 C1334 0.930 . S
H1325 C1337 0.929 . S
H1326 C1340 0.930 . S
H1327 C1342 0.960 . S
H1328 C1342 0.960 . S
H1329 C1342 0.960 . S
C1330 H1322 0.929 . S
C1330 C1331 1.377 . S
C1330 C1332 1.384 . S
C1331 C1330 1.377 . S
C1331 C1337 1.390 . S
C1332 H1323 0.930 . S
C1332 C1330 1.384 . S
C1332 C1333 1.372 . S
C1333 C1332 1.372 . S
C1333 C1334 1.400 . S
C1333 C1338 1.490 . S
C1334 H1324 0.930 . S
C1334 C1333 1.400 . S
C1334 C1337 1.386 . S
H1335 C1351 0.930 . S
H1336 C1352 0.931 . S
C1337 H1325 0.929 . S
C1337 C1331 1.390 . S
C1337 C1334 1.386 . S
C1338 C1333 1.490 . S
C1338 C1340 1.395 . S
C1338 C1341 1.403 . S
H1339 C1345 0.930 . S
C1340 H1326 0.930 . S
C1340 C1338 1.395 . S
C1340 C1343 1.403 . S
C1341 C1338 1.403 . S
C1341 C1342 1.524 . S
C1341 C1345 1.400 . S
C1342 H1327 0.960 . S
C1342 H1328 0.960 . S
C1342 H1329 0.960 . S
C1342 C1341 1.524 . S
C1343 C1340 1.403 . S
C1343 C1344 1.392 . S
C1343 C1347 1.495 . S
C1344 C1343 1.392 . S
C1344 C1345 1.385 . S
C1344 C1346 1.478 . S
C1345 H1339 0.930 . S
C1345 C1341 1.400 . S
C1345 C1344 1.385 . S
C1346 C1344 1.478 . S
C1346 C1348 1.381 . S
C1346 C1352 1.383 . S
C1347 C1343 1.495 . S
C1347 H1353 0.959 . S
C1347 H1354 0.961 . S
C1347 H1355 0.960 . S
C1348 C1346 1.381 . S
C1348 C1349 1.394 . S
C1348 H1356 0.930 . S
C1349 C1348 1.394 . S
C1349 C1350 1.383 . S
C1349 H1357 0.929 . S
C1350 C1349 1.383 . S
C1350 C1351 1.377 . S
C1351 H1335 0.930 . S
C1351 C1350 1.377 . S
C1351 C1352 1.379 . S
C1352 H1336 0.931 . S
C1352 C1346 1.383 . S
C1352 C1351 1.379 . S
H1353 C1347 0.959 . S
H1354 C1347 0.961 . S
H1355 C1347 0.960 . S
H1356 C1348 0.930 . S
H1357 C1349 0.929 . S
H1358 C1366 0.929 . S
H1359 C1368 0.930 . S
H1360 C1370 0.930 . S
H1361 C1373 0.929 . S
H1362 C1376 0.930 . S
H1363 C1378 0.960 . S
H1364 C1378 0.960 . S
H1365 C1378 0.960 . S
C1366 H1358 0.929 . S
C1366 C1367 1.377 . S
C1366 C1368 1.384 . S
C1367 C1366 1.377 . S
C1367 C1373 1.390 . S
C1368 H1359 0.930 . S
C1368 C1366 1.384 . S
C1368 C1369 1.372 . S
C1369 C1368 1.372 . S
C1369 C1370 1.400 . S
C1369 C1374 1.490 . S
C1370 H1360 0.930 . S
C1370 C1369 1.400 . S
C1370 C1373 1.386 . S
H1371 C1387 0.930 . S
H1372 C1388 0.931 . S
C1373 H1361 0.929 . S
C1373 C1367 1.390 . S
C1373 C1370 1.386 . S
C1374 C1369 1.490 . S
C1374 C1376 1.395 . S
C1374 C1377 1.403 . S
H1375 C1381 0.930 . S
C1376 H1362 0.930 . S
C1376 C1374 1.395 . S
C1376 C1379 1.403 . S
C1377 C1374 1.403 . S
C1377 C1378 1.524 . S
C1377 C1381 1.400 . S
C1378 H1363 0.960 . S
C1378 H1364 0.960 . S
C1378 H1365 0.960 . S
C1378 C1377 1.524 . S
C1379 C1376 1.403 . S
C1379 C1380 1.392 . S
C1379 C1383 1.495 . S
C1380 C1379 1.392 . S
C1380 C1381 1.385 . S
C1380 C1382 1.478 . S
C1381 H1375 0.930 . S
C1381 C1377 1.400 . S
C1381 C1380 1.385 . S
C1382 C1380 1.478 . S
C1382 C1384 1.381 . S
C1382 C1388 1.383 . S
C1383 C1379 1.495 . S
C1383 H1389 0.959 . S
C1383 H1390 0.961 . S
C1383 H1391 0.960 . S
C1384 C1382 1.381 . S
C1384 C1385 1.394 . S
C1384 H1392 0.930 . S
C1385 C1384 1.394 . S
C1385 C1386 1.383 . S
C1385 H1393 0.929 . S
C1386 C1385 1.383 . S
C1386 C1387 1.377 . S
C1387 H1371 0.930 . S
C1387 C1386 1.377 . S
C1387 C1388 1.379 . S
C1388 H1372 0.931 . S
C1388 C1382 1.383 . S
C1388 C1387 1.379 . S
H1389 C1383 0.959 . S
H1390 C1383 0.961 . S
H1391 C1383 0.960 . S
H1392 C1384 0.930 . S
H1393 C1385 0.929 . S
H1394 C1402 0.929 . S
H1395 C1404 0.930 . S
H1396 C1406 0.930 . S
H1397 C1409 0.929 . S
H1398 C1412 0.930 . S
H1399 C1414 0.960 . S
H1400 C1414 0.960 . S
H1401 C1414 0.960 . S
C1402 H1394 0.929 . S
C1402 C1403 1.377 . S
C1402 C1404 1.384 . S
C1403 C1402 1.377 . S
C1403 C1409 1.390 . S
C1404 H1395 0.930 . S
C1404 C1402 1.384 . S
C1404 C1405 1.372 . S
C1405 C1404 1.372 . S
C1405 C1406 1.400 . S
C1405 C1410 1.490 . S
C1406 H1396 0.930 . S
C1406 C1405 1.400 . S
C1406 C1409 1.386 . S
H1407 C1423 0.930 . S
H1408 C1424 0.931 . S
C1409 H1397 0.929 . S
C1409 C1403 1.390 . S
C1409 C1406 1.386 . S
C1410 C1405 1.490 . S
C1410 C1412 1.395 . S
C1410 C1413 1.403 . S
H1411 C1417 0.930 . S
C1412 H1398 0.930 . S
C1412 C1410 1.395 . S
C1412 C1415 1.403 . S
C1413 C1410 1.403 . S
C1413 C1414 1.524 . S
C1413 C1417 1.400 . S
C1414 H1399 0.960 . S
C1414 H1400 0.960 . S
C1414 H1401 0.960 . S
C1414 C1413 1.524 . S
C1415 C1412 1.403 . S
C1415 C1416 1.392 . S
C1415 C1419 1.495 . S
C1416 C1415 1.392 . S
C1416 C1417 1.385 . S
C1416 C1418 1.478 . S
C1417 H1411 0.930 . S
C1417 C1413 1.400 . S
C1417 C1416 1.385 . S
C1418 C1416 1.478 . S
C1418 C1420 1.381 . S
C1418 C1424 1.383 . S
C1419 C1415 1.495 . S
C1419 H1425 0.959 . S
C1419 H1426 0.961 . S
C1419 H1427 0.960 . S
C1420 C1418 1.381 . S
C1420 C1421 1.394 . S
C1420 H1428 0.930 . S
C1421 C1420 1.394 . S
C1421 C1422 1.383 . S
C1421 H1429 0.929 . S
C1422 C1421 1.383 . S
C1422 C1423 1.377 . S
C1423 H1407 0.930 . S
C1423 C1422 1.377 . S
C1423 C1424 1.379 . S
C1424 H1408 0.931 . S
C1424 C1418 1.383 . S
C1424 C1423 1.379 . S
H1425 C1419 0.959 . S
H1426 C1419 0.961 . S
H1427 C1419 0.960 . S
H1428 C1420 0.930 . S
H1429 C1421 0.929 . S
H1430 C1438 0.929 . S
H1431 C1440 0.930 . S
H1432 C1442 0.930 . S
H1433 C1445 0.929 . S
H1434 C1448 0.930 . S
H1435 C1450 0.960 . S
H1436 C1450 0.960 . S
H1437 C1450 0.960 . S
C1438 H1430 0.929 . S
C1438 C1439 1.377 . S
C1438 C1440 1.384 . S
C1439 C1438 1.377 . S
C1439 C1445 1.390 . S
C1440 H1431 0.930 . S
C1440 C1438 1.384 . S
C1440 C1441 1.372 . S
C1441 C1440 1.372 . S
C1441 C1442 1.400 . S
C1441 C1446 1.490 . S
C1442 H1432 0.930 . S
C1442 C1441 1.400 . S
C1442 C1445 1.386 . S
H1443 C1459 0.930 . S
H1444 C1460 0.931 . S
C1445 H1433 0.929 . S
C1445 C1439 1.390 . S
C1445 C1442 1.386 . S
C1446 C1441 1.490 . S
C1446 C1448 1.395 . S
C1446 C1449 1.403 . S
H1447 C1453 0.930 . S
C1448 H1434 0.930 . S
C1448 C1446 1.395 . S
C1448 C1451 1.403 . S
C1449 C1446 1.403 . S
C1449 C1450 1.524 . S
C1449 C1453 1.400 . S
C1450 H1435 0.960 . S
C1450 H1436 0.960 . S
C1450 H1437 0.960 . S
C1450 C1449 1.524 . S
C1451 C1448 1.403 . S
C1451 C1452 1.392 . S
C1451 C1455 1.495 . S
C1452 C1451 1.392 . S
C1452 C1453 1.385 . S
C1452 C1454 1.478 . S
C1453 H1447 0.930 . S
C1453 C1449 1.400 . S
C1453 C1452 1.385 . S
C1454 C1452 1.478 . S
C1454 C1456 1.381 . S
C1454 C1460 1.383 . S
C1455 C1451 1.495 . S
C1455 H1461 0.959 . S
C1455 H1462 0.961 . S
C1455 H1463 0.960 . S
C1456 C1454 1.381 . S
C1456 C1457 1.394 . S
C1456 H1464 0.930 . S
C1457 C1456 1.394 . S
C1457 C1458 1.383 . S
C1457 H1465 0.929 . S
C1458 C1457 1.383 . S
C1458 C1459 1.377 . S
C1459 H1443 0.930 . S
C1459 C1458 1.377 . S
C1459 C1460 1.379 . S
C1460 H1444 0.931 . S
C1460 C1454 1.383 . S
C1460 C1459 1.379 . S
H1461 C1455 0.959 . S
H1462 C1455 0.961 . S
H1463 C1455 0.960 . S
H1464 C1456 0.930 . S
H1465 C1457 0.929 . S
H1466 C1474 0.929 . S
H1467 C1476 0.930 . S
H1468 C1478 0.930 . S
H1469 C1481 0.929 . S
H1470 C1484 0.930 . S
H1471 C1486 0.960 . S
H1472 C1486 0.960 . S
H1473 C1486 0.960 . S
C1474 H1466 0.929 . S
C1474 C1475 1.377 . S
C1474 C1476 1.384 . S
C1475 C1474 1.377 . S
C1475 C1481 1.390 . S
C1476 H1467 0.930 . S
C1476 C1474 1.384 . S
C1476 C1477 1.372 . S
C1477 C1476 1.372 . S
C1477 C1478 1.400 . S
C1477 C1482 1.490 . S
C1478 H1468 0.930 . S
C1478 C1477 1.400 . S
C1478 C1481 1.386 . S
H1479 C1495 0.930 . S
H1480 C1496 0.931 . S
C1481 H1469 0.929 . S
C1481 C1475 1.390 . S
C1481 C1478 1.386 . S
C1482 C1477 1.490 . S
C1482 C1484 1.395 . S
C1482 C1485 1.403 . S
H1483 C1489 0.930 . S
C1484 H1470 0.930 . S
C1484 C1482 1.395 . S
C1484 C1487 1.403 . S
C1485 C1482 1.403 . S
C1485 C1486 1.524 . S
C1485 C1489 1.400 . S
C1486 H1471 0.960 . S
C1486 H1472 0.960 . S
C1486 H1473 0.960 . S
C1486 C1485 1.524 . S
C1487 C1484 1.403 . S
C1487 C1488 1.392 . S
C1487 C1491 1.495 . S
C1488 C1487 1.392 . S
C1488 C1489 1.385 . S
C1488 C1490 1.478 . S
C1489 H1483 0.930 . S
C1489 C1485 1.400 . S
C1489 C1488 1.385 . S
C1490 C1488 1.478 . S
C1490 C1492 1.381 . S
C1490 C1496 1.383 . S
C1491 C1487 1.495 . S
C1491 H1497 0.959 . S
C1491 H1498 0.961 . S
C1491 H1499 0.960 . S
C1492 C1490 1.381 . S
C1492 C1493 1.394 . S
C1492 H1500 0.930 . S
C1493 C1492 1.394 . S
C1493 C1494 1.383 . S
C1493 H1501 0.929 . S
C1494 C1493 1.383 . S
C1494 C1495 1.377 . S
C1495 H1479 0.930 . S
C1495 C1494 1.377 . S
C1495 C1496 1.379 . S
C1496 H1480 0.931 . S
C1496 C1490 1.383 . S
C1496 C1495 1.379 . S
H1497 C1491 0.959 . S
H1498 C1491 0.961 . S
H1499 C1491 0.960 . S
H1500 C1492 0.930 . S
H1501 C1493 0.929 . S
H1502 C1510 0.929 . S
H1503 C1512 0.930 . S
H1504 C1514 0.930 . S
H1505 C1517 0.929 . S
H1506 C1520 0.930 . S
H1507 C1522 0.960 . S
H1508 C1522 0.960 . S
H1509 C1522 0.960 . S
C1510 H1502 0.929 . S
C1510 C1511 1.377 . S
C1510 C1512 1.384 . S
C1511 C1510 1.377 . S
C1511 C1517 1.390 . S
C1512 H1503 0.930 . S
C1512 C1510 1.384 . S
C1512 C1513 1.372 . S
C1513 C1512 1.372 . S
C1513 C1514 1.400 . S
C1513 C1518 1.490 . S
C1514 H1504 0.930 . S
C1514 C1513 1.400 . S
C1514 C1517 1.386 . S
H1515 C1531 0.930 . S
H1516 C1532 0.931 . S
C1517 H1505 0.929 . S
C1517 C1511 1.390 . S
C1517 C1514 1.386 . S
C1518 C1513 1.490 . S
C1518 C1520 1.395 . S
C1518 C1521 1.403 . S
H1519 C1525 0.930 . S
C1520 H1506 0.930 . S
C1520 C1518 1.395 . S
C1520 C1523 1.403 . S
C1521 C1518 1.403 . S
C1521 C1522 1.524 . S
C1521 C1525 1.400 . S
C1522 H1507 0.960 . S
C1522 H1508 0.960 . S
C1522 H1509 0.960 . S
C1522 C1521 1.524 . S
C1523 C1520 1.403 . S
C1523 C1524 1.392 . S
C1523 C1527 1.495 . S
C1524 C1523 1.392 . S
C1524 C1525 1.385 . S
C1524 C1526 1.478 . S
C1525 H1519 0.930 . S
C1525 C1521 1.400 . S
C1525 C1524 1.385 . S
C1526 C1524 1.478 . S
C1526 C1528 1.381 . S
C1526 C1532 1.383 . S
C1527 C1523 1.495 . S
C1527 H1533 0.959 . S
C1527 H1534 0.961 . S
C1527 H1535 0.960 . S
C1528 C1526 1.381 . S
C1528 C1529 1.394 . S
C1528 H1536 0.930 . S
C1529 C1528 1.394 . S
C1529 C1530 1.383 . S
C1529 H1537 0.929 . S
C1530 C1529 1.383 . S
C1530 C1531 1.377 . S
C1531 H1515 0.930 . S
C1531 C1530 1.377 . S
C1531 C1532 1.379 . S
C1532 H1516 0.931 . S
C1532 C1526 1.383 . S
C1532 C1531 1.379 . S
H1533 C1527 0.959 . S
H1534 C1527 0.961 . S
H1535 C1527 0.960 . S
H1536 C1528 0.930 . S
H1537 C1529 0.929 . S
H1538 C1546 0.929 . S
H1539 C1548 0.930 . S
H1540 C1550 0.930 . S
H1541 C1553 0.929 . S
H1542 C1556 0.930 . S
H1543 C1558 0.960 . S
H1544 C1558 0.960 . S
H1545 C1558 0.960 . S
C1546 H1538 0.929 . S
C1546 C1547 1.377 . S
C1546 C1548 1.384 . S
C1547 C1546 1.377 . S
C1547 C1553 1.390 . S
C1548 H1539 0.930 . S
C1548 C1546 1.384 . S
C1548 C1549 1.372 . S
C1549 C1548 1.372 . S
C1549 C1550 1.400 . S
C1549 C1554 1.490 . S
C1550 H1540 0.930 . S
C1550 C1549 1.400 . S
C1550 C1553 1.386 . S
H1551 C1567 0.930 . S
H1552 C1568 0.931 . S
C1553 H1541 0.929 . S
C1553 C1547 1.390 . S
C1553 C1550 1.386 . S
C1554 C1549 1.490 . S
C1554 C1556 1.395 . S
C1554 C1557 1.403 . S
H1555 C1561 0.930 . S
C1556 H1542 0.930 . S
C1556 C1554 1.395 . S
C1556 C1559 1.403 . S
C1557 C1554 1.403 . S
C1557 C1558 1.524 . S
C1557 C1561 1.400 . S
C1558 H1543 0.960 . S
C1558 H1544 0.960 . S
C1558 H1545 0.960 . S
C1558 C1557 1.524 . S
C1559 C1556 1.403 . S
C1559 C1560 1.392 . S
C1559 C1563 1.495 . S
C1560 C1559 1.392 . S
C1560 C1561 1.385 . S
C1560 C1562 1.478 . S
C1561 H1555 0.930 . S
C1561 C1557 1.400 . S
C1561 C1560 1.385 . S
C1562 C1560 1.478 . S
C1562 C1564 1.381 . S
C1562 C1568 1.383 . S
C1563 C1559 1.495 . S
C1563 H1569 0.959 . S
C1563 H1570 0.961 . S
C1563 H1571 0.960 . S
C1564 C1562 1.381 . S
C1564 C1565 1.394 . S
C1564 H1572 0.930 . S
C1565 C1564 1.394 . S
C1565 C1566 1.383 . S
C1565 H1573 0.929 . S
C1566 C1565 1.383 . S
C1566 C1567 1.377 . S
C1567 H1551 0.930 . S
C1567 C1566 1.377 . S
C1567 C1568 1.379 . S
C1568 H1552 0.931 . S
C1568 C1562 1.383 . S
C1568 C1567 1.379 . S
H1569 C1563 0.959 . S
H1570 C1563 0.961 . S
H1571 C1563 0.960 . S
H1572 C1564 0.930 . S
H1573 C1565 0.929 . S
H1574 C1582 0.929 . S
H1575 C1584 0.930 . S
H1576 C1586 0.930 . S
H1577 C1589 0.929 . S
H1578 C1592 0.930 . S
H1579 C1594 0.960 . S
H1580 C1594 0.960 . S
H1581 C1594 0.960 . S
C1582 H1574 0.929 . S
C1582 C1583 1.377 . S
C1582 C1584 1.384 . S
C1583 C1582 1.377 . S
C1583 C1589 1.390 . S
C1584 H1575 0.930 . S
C1584 C1582 1.384 . S
C1584 C1585 1.372 . S
C1585 C1584 1.372 . S
C1585 C1586 1.400 . S
C1585 C1590 1.490 . S
C1586 H1576 0.930 . S
C1586 C1585 1.400 . S
C1586 C1589 1.386 . S
H1587 C1603 0.930 . S
H1588 C1604 0.931 . S
C1589 H1577 0.929 . S
C1589 C1583 1.390 . S
C1589 C1586 1.386 . S
C1590 C1585 1.490 . S
C1590 C1592 1.395 . S
C1590 C1593 1.403 . S
H1591 C1597 0.930 . S
C1592 H1578 0.930 . S
C1592 C1590 1.395 . S
C1592 C1595 1.403 . S
C1593 C1590 1.403 . S
C1593 C1594 1.524 . S
C1593 C1597 1.400 . S
C1594 H1579 0.960 . S
C1594 H1580 0.960 . S
C1594 H1581 0.960 . S
C1594 C1593 1.524 . S
C1595 C1592 1.403 . S
C1595 C1596 1.392 . S
C1595 C1599 1.495 . S
C1596 C1595 1.392 . S
C1596 C1597 1.385 . S
C1596 C1598 1.478 . S
C1597 H1591 0.930 . S
C1597 C1593 1.400 . S
C1597 C1596 1.385 . S
C1598 C1596 1.478 . S
C1598 C1600 1.381 . S
C1598 C1604 1.383 . S
C1599 C1595 1.495 . S
C1599 H1605 0.959 . S
C1599 H1606 0.961 . S
C1599 H1607 0.960 . S
C1600 C1598 1.381 . S
C1600 C1601 1.394 . S
C1600 H1608 0.930 . S
C1601 C1600 1.394 . S
C1601 C1602 1.383 . S
C1601 H1609 0.929 . S
C1602 C1601 1.383 . S
C1602 C1603 1.377 . S
C1603 H1587 0.930 . S
C1603 C1602 1.377 . S
C1603 C1604 1.379 . S
C1604 H1588 0.931 . S
C1604 C1598 1.383 . S
C1604 C1603 1.379 . S
H1605 C1599 0.959 . S
H1606 C1599 0.961 . S
H1607 C1599 0.960 . S
H1608 C1600 0.930 . S
H1609 C1601 0.929 . S
H1610 C1618 0.929 . S
H1611 C1620 0.930 . S
H1612 C1622 0.930 . S
H1613 C1625 0.929 . S
H1614 C1628 0.930 . S
H1615 C1630 0.960 . S
H1616 C1630 0.960 . S
H1617 C1630 0.960 . S
C1618 H1610 0.929 . S
C1618 C1619 1.377 . S
C1618 C1620 1.384 . S
C1619 C1618 1.377 . S
C1619 C1625 1.390 . S
C1620 H1611 0.930 . S
C1620 C1618 1.384 . S
C1620 C1621 1.372 . S
C1621 C1620 1.372 . S
C1621 C1622 1.400 . S
C1621 C1626 1.490 . S
C1622 H1612 0.930 . S
C1622 C1621 1.400 . S
C1622 C1625 1.386 . S
H1623 C1639 0.930 . S
H1624 C1640 0.931 . S
C1625 H1613 0.929 . S
C1625 C1619 1.390 . S
C1625 C1622 1.386 . S
C1626 C1621 1.490 . S
C1626 C1628 1.395 . S
C1626 C1629 1.403 . S
H1627 C1633 0.930 . S
C1628 H1614 0.930 . S
C1628 C1626 1.395 . S
C1628 C1631 1.403 . S
C1629 C1626 1.403 . S
C1629 C1630 1.524 . S
C1629 C1633 1.400 . S
C1630 H1615 0.960 . S
C1630 H1616 0.960 . S
C1630 H1617 0.960 . S
C1630 C1629 1.524 . S
C1631 C1628 1.403 . S
C1631 C1632 1.392 . S
C1631 C1635 1.495 . S
C1632 C1631 1.392 . S
C1632 C1633 1.385 . S
C1632 C1634 1.478 . S
C1633 H1627 0.930 . S
C1633 C1629 1.400 . S
C1633 C1632 1.385 . S
C1634 C1632 1.478 . S
C1634 C1636 1.381 . S
C1634 C1640 1.383 . S
C1635 C1631 1.495 . S
C1635 H1641 0.959 . S
C1635 H1642 0.961 . S
C1635 H1643 0.960 . S
C1636 C1634 1.381 . S
C1636 C1637 1.394 . S
C1636 H1644 0.930 . S
C1637 C1636 1.394 . S
C1637 C1638 1.383 . S
C1637 H1645 0.929 . S
C1638 C1637 1.383 . S
C1638 C1639 1.377 . S
C1639 H1623 0.930 . S
C1639 C1638 1.377 . S
C1639 C1640 1.379 . S
C1640 H1624 0.931 . S
C1640 C1634 1.383 . S
C1640 C1639 1.379 . S
H1641 C1635 0.959 . S
H1642 C1635 0.961 . S
H1643 C1635 0.960 . S
H1644 C1636 0.930 . S
H1645 C1637 0.929 . S
H1646 C1654 0.929 . S
H1647 C1656 0.930 . S
H1648 C1658 0.930 . S
H1649 C1661 0.929 . S
H1650 C1664 0.930 . S
H1651 C1666 0.960 . S
H1652 C1666 0.960 . S
H1653 C1666 0.960 . S
C1654 H1646 0.929 . S
C1654 C1655 1.377 . S
C1654 C1656 1.384 . S
C1655 C1654 1.377 . S
C1655 C1661 1.390 . S
C1656 H1647 0.930 . S
C1656 C1654 1.384 . S
C1656 C1657 1.372 . S
C1657 C1656 1.372 . S
C1657 C1658 1.400 . S
C1657 C1662 1.490 . S
C1658 H1648 0.930 . S
C1658 C1657 1.400 . S
C1658 C1661 1.386 . S
H1659 C1675 0.930 . S
H1660 C1676 0.931 . S
C1661 H1649 0.929 . S
C1661 C1655 1.390 . S
C1661 C1658 1.386 . S
C1662 C1657 1.490 . S
C1662 C1664 1.395 . S
C1662 C1665 1.403 . S
H1663 C1669 0.930 . S
C1664 H1650 0.930 . S
C1664 C1662 1.395 . S
C1664 C1667 1.403 . S
C1665 C1662 1.403 . S
C1665 C1666 1.524 . S
C1665 C1669 1.400 . S
C1666 H1651 0.960 . S
C1666 H1652 0.960 . S
C1666 H1653 0.960 . S
C1666 C1665 1.524 . S
C1667 C1664 1.403 . S
C1667 C1668 1.392 . S
C1667 C1671 1.495 . S
C1668 C1667 1.392 . S
C1668 C1669 1.385 . S
C1668 C1670 1.478 . S
C1669 H1663 0.930 . S
C1669 C1665 1.400 . S
C1669 C1668 1.385 . S
C1670 C1668 1.478 . S
C1670 C1672 1.381 . S
C1670 C1676 1.383 . S
C1671 C1667 1.495 . S
C1671 H1677 0.959 . S
C1671 H1678 0.961 . S
C1671 H1679 0.960 . S
C1672 C1670 1.381 . S
C1672 C1673 1.394 . S
C1672 H1680 0.930 . S
C1673 C1672 1.394 . S
C1673 C1674 1.383 . S
C1673 H1681 0.929 . S
C1674 C1673 1.383 . S
C1674 C1675 1.377 . S
C1675 H1659 0.930 . S
C1675 C1674 1.377 . S
C1675 C1676 1.379 . S
C1676 H1660 0.931 . S
C1676 C1670 1.383 . S
C1676 C1675 1.379 . S
H1677 C1671 0.959 . S
H1678 C1671 0.961 . S
H1679 C1671 0.960 . S
H1680 C1672 0.930 . S
H1681 C1673 0.929 . S
H1682 C1690 0.929 . S
H1683 C1692 0.930 . S
H1684 C1694 0.930 . S
H1685 C1697 0.929 . S
H1686 C1700 0.930 . S
H1687 C1702 0.960 . S
H1688 C1702 0.960 . S
H1689 C1702 0.960 . S
C1690 H1682 0.929 . S
C1690 C1691 1.377 . S
C1690 C1692 1.384 . S
C1691 C1690 1.377 . S
C1691 C1697 1.390 . S
C1692 H1683 0.930 . S
C1692 C1690 1.384 . S
C1692 C1693 1.372 . S
C1693 C1692 1.372 . S
C1693 C1694 1.400 . S
C1693 C1698 1.490 . S
C1694 H1684 0.930 . S
C1694 C1693 1.400 . S
C1694 C1697 1.386 . S
H1695 C1711 0.930 . S
H1696 C1712 0.931 . S
C1697 H1685 0.929 . S
C1697 C1691 1.390 . S
C1697 C1694 1.386 . S
C1698 C1693 1.490 . S
C1698 C1700 1.395 . S
C1698 C1701 1.403 . S
H1699 C1705 0.930 . S
C1700 H1686 0.930 . S
C1700 C1698 1.395 . S
C1700 C1703 1.403 . S
C1701 C1698 1.403 . S
C1701 C1702 1.524 . S
C1701 C1705 1.400 . S
C1702 H1687 0.960 . S
C1702 H1688 0.960 . S
C1702 H1689 0.960 . S
C1702 C1701 1.524 . S
C1703 C1700 1.403 . S
C1703 C1704 1.392 . S
C1703 C1707 1.495 . S
C1704 C1703 1.392 . S
C1704 C1705 1.385 . S
C1704 C1706 1.478 . S
C1705 H1699 0.930 . S
C1705 C1701 1.400 . S
C1705 C1704 1.385 . S
C1706 C1704 1.478 . S
C1706 C1708 1.381 . S
C1706 C1712 1.383 . S
C1707 C1703 1.495 . S
C1707 H1713 0.959 . S
C1707 H1714 0.961 . S
C1707 H1715 0.960 . S
C1708 C1706 1.381 . S
C1708 C1709 1.394 . S
C1708 H1716 0.930 . S
C1709 C1708 1.394 . S
C1709 C1710 1.383 . S
C1709 H1717 0.929 . S
C1710 C1709 1.383 . S
C1710 C1711 1.377 . S
C1711 H1695 0.930 . S
C1711 C1710 1.377 . S
C1711 C1712 1.379 . S
C1712 H1696 0.931 . S
C1712 C1706 1.383 . S
C1712 C1711 1.379 . S
H1713 C1707 0.959 . S
H1714 C1707 0.961 . S
H1715 C1707 0.960 . S
H1716 C1708 0.930 . S
H1717 C1709 0.929 . S
H1718 C1726 0.929 . S
H1719 C1728 0.930 . S
H1720 C1730 0.930 . S
H1721 C1733 0.929 . S
H1722 C1736 0.930 . S
H1723 C1738 0.960 . S
H1724 C1738 0.960 . S
H1725 C1738 0.960 . S
C1726 H1718 0.929 . S
C1726 C1727 1.377 . S
C1726 C1728 1.384 . S
C1727 C1726 1.377 . S
C1727 C1733 1.390 . S
C1728 H1719 0.930 . S
C1728 C1726 1.384 . S
C1728 C1729 1.372 . S
C1729 C1728 1.372 . S
C1729 C1730 1.400 . S
C1729 C1734 1.490 . S
C1730 H1720 0.930 . S
C1730 C1729 1.400 . S
C1730 C1733 1.386 . S
H1731 C1747 0.930 . S
H1732 C1748 0.931 . S
C1733 H1721 0.929 . S
C1733 C1727 1.390 . S
C1733 C1730 1.386 . S
C1734 C1729 1.490 . S
C1734 C1736 1.395 . S
C1734 C1737 1.403 . S
H1735 C1741 0.930 . S
C1736 H1722 0.930 . S
C1736 C1734 1.395 . S
C1736 C1739 1.403 . S
C1737 C1734 1.403 . S
C1737 C1738 1.524 . S
C1737 C1741 1.400 . S
C1738 H1723 0.960 . S
C1738 H1724 0.960 . S
C1738 H1725 0.960 . S
C1738 C1737 1.524 . S
C1739 C1736 1.403 . S
C1739 C1740 1.392 . S
C1739 C1743 1.495 . S
C1740 C1739 1.392 . S
C1740 C1741 1.385 . S
C1740 C1742 1.478 . S
C1741 H1735 0.930 . S
C1741 C1737 1.400 . S
C1741 C1740 1.385 . S
C1742 C1740 1.478 . S
C1742 C1744 1.381 . S
C1742 C1748 1.383 . S
C1743 C1739 1.495 . S
C1743 H1749 0.959 . S
C1743 H1750 0.961 . S
C1743 H1751 0.960 . S
C1744 C1742 1.381 . S
C1744 C1745 1.394 . S
C1744 H1752 0.930 . S
C1745 C1744 1.394 . S
C1745 C1746 1.383 . S
C1745 H1753 0.929 . S
C1746 C1745 1.383 . S
C1746 C1747 1.377 . S
C1747 H1731 0.930 . S
C1747 C1746 1.377 . S
C1747 C1748 1.379 . S
C1748 H1732 0.931 . S
C1748 C1742 1.383 . S
C1748 C1747 1.379 . S
H1749 C1743 0.959 . S
H1750 C1743 0.961 . S
H1751 C1743 0.960 . S
H1752 C1744 0.930 . S
H1753 C1745 0.929 . S
H1754 C1762 0.929 . S
H1755 C1764 0.930 . S
H1756 C1766 0.930 . S
H1757 C1769 0.929 . S
H1758 C1772 0.930 . S
H1759 C1774 0.960 . S
H1760 C1774 0.960 . S
H1761 C1774 0.960 . S
C1762 H1754 0.929 . S
C1762 C1763 1.377 . S
C1762 C1764 1.384 . S
C1763 C1762 1.377 . S
C1763 C1769 1.390 . S
C1764 H1755 0.930 . S
C1764 C1762 1.384 . S
C1764 C1765 1.372 . S
C1765 C1764 1.372 . S
C1765 C1766 1.400 . S
C1765 C1770 1.490 . S
C1766 H1756 0.930 . S
C1766 C1765 1.400 . S
C1766 C1769 1.386 . S
H1767 C1783 0.930 . S
H1768 C1784 0.931 . S
C1769 H1757 0.929 . S
C1769 C1763 1.390 . S
C1769 C1766 1.386 . S
C1770 C1765 1.490 . S
C1770 C1772 1.395 . S
C1770 C1773 1.403 . S
H1771 C1777 0.930 . S
C1772 H1758 0.930 . S
C1772 C1770 1.395 . S
C1772 C1775 1.403 . S
C1773 C1770 1.403 . S
C1773 C1774 1.524 . S
C1773 C1777 1.400 . S
C1774 H1759 0.960 . S
C1774 H1760 0.960 . S
C1774 H1761 0.960 . S
C1774 C1773 1.524 . S
C1775 C1772 1.403 . S
C1775 C1776 1.392 . S
C1775 C1779 1.495 . S
C1776 C1775 1.392 . S
C1776 C1777 1.385 . S
C1776 C1778 1.478 . S
C1777 H1771 0.930 . S
C1777 C1773 1.400 . S
C1777 C1776 1.385 . S
C1778 C1776 1.478 . S
C1778 C1780 1.381 . S
C1778 C1784 1.383 . S
C1779 C1775 1.495 . S
C1779 H1785 0.959 . S
C1779 H1786 0.961 . S
C1779 H1787 0.960 . S
C1780 C1778 1.381 . S
C1780 C1781 1.394 . S
C1780 H1788 0.930 . S
C1781 C1780 1.394 . S
C1781 C1782 1.383 . S
C1781 H1789 0.929 . S
C1782 C1781 1.383 . S
C1782 C1783 1.377 . S
C1783 H1767 0.930 . S
C1783 C1782 1.377 . S
C1783 C1784 1.379 . S
C1784 H1768 0.931 . S
C1784 C1778 1.383 . S
C1784 C1783 1.379 . S
H1785 C1779 0.959 . S
H1786 C1779 0.961 . S
H1787 C1779 0.960 . S
H1788 C1780 0.930 . S
H1789 C1781 0.929 . S
H1790 C1798 0.929 . S
H1791 C1800 0.930 . S
H1792 C1802 0.930 . S
H1793 C1805 0.929 . S
H1794 C1808 0.930 . S
H1795 C1810 0.960 . S
H1796 C1810 0.960 . S
H1797 C1810 0.960 . S
C1798 H1790 0.929 . S
C1798 C1799 1.377 . S
C1798 C1800 1.384 . S
C1799 C1798 1.377 . S
C1799 C1805 1.390 . S
C1800 H1791 0.930 . S
C1800 C1798 1.384 . S
C1800 C1801 1.372 . S
C1801 C1800 1.372 . S
C1801 C1802 1.400 . S
C1801 C1806 1.490 . S
C1802 H1792 0.930 . S
C1802 C1801 1.400 . S
C1802 C1805 1.386 . S
H1803 C1819 0.930 . S
H1804 C1820 0.931 . S
C1805 H1793 0.929 . S
C1805 C1799 1.390 . S
C1805 C1802 1.386 . S
C1806 C1801 1.490 . S
C1806 C1808 1.395 . S
C1806 C1809 1.403 . S
H1807 C1813 0.930 . S
C1808 H1794 0.930 . S
C1808 C1806 1.395 . S
C1808 C1811 1.403 . S
C1809 C1806 1.403 . S
C1809 C1810 1.524 . S
C1809 C1813 1.400 . S
C1810 H1795 0.960 . S
C1810 H1796 0.960 . S
C1810 H1797 0.960 . S
C1810 C1809 1.524 . S
C1811 C1808 1.403 . S
C1811 C1812 1.392 . S
C1811 C1815 1.495 . S
C1812 C1811 1.392 . S
C1812 C1813 1.385 . S
C1812 C1814 1.478 . S
C1813 H1807 0.930 . S
C1813 C1809 1.400 . S
C1813 C1812 1.385 . S
C1814 C1812 1.478 . S
C1814 C1816 1.381 . S
C1814 C1820 1.383 . S
C1815 C1811 1.495 . S
C1815 H1821 0.959 . S
C1815 H1822 0.961 . S
C1815 H1823 0.960 . S
C1816 C1814 1.381 . S
C1816 C1817 1.394 . S
C1816 H1824 0.930 . S
C1817 C1816 1.394 . S
C1817 C1818 1.383 . S
C1817 H1825 0.929 . S
C1818 C1817 1.383 . S
C1818 C1819 1.377 . S
C1819 H1803 0.930 . S
C1819 C1818 1.377 . S
C1819 C1820 1.379 . S
C1820 H1804 0.931 . S
C1820 C1814 1.383 . S
C1820 C1819 1.379 . S
H1821 C1815 0.959 . S
H1822 C1815 0.961 . S
H1823 C1815 0.960 . S
H1824 C1816 0.930 . S
H1825 C1817 0.929 . S
H1826 C1834 0.929 . S
H1827 C1836 0.930 . S
H1828 C1838 0.930 . S
H1829 C1841 0.929 . S
H1830 C1844 0.930 . S
H1831 C1846 0.960 . S
H1832 C1846 0.960 . S
H1833 C1846 0.960 . S
C1834 H1826 0.929 . S
C1834 C1835 1.377 . S
C1834 C1836 1.384 . S
C1835 C1834 1.377 . S
C1835 C1841 1.390 . S
C1836 H1827 0.930 . S
C1836 C1834 1.384 . S
C1836 C1837 1.372 . S
C1837 C1836 1.372 . S
C1837 C1838 1.400 . S
C1837 C1842 1.490 . S
C1838 H1828 0.930 . S
C1838 C1837 1.400 . S
C1838 C1841 1.386 . S
H1839 C1855 0.930 . S
H1840 C1856 0.931 . S
C1841 H1829 0.929 . S
C1841 C1835 1.390 . S
C1841 C1838 1.386 . S
C1842 C1837 1.490 . S
C1842 C1844 1.395 . S
C1842 C1845 1.403 . S
H1843 C1849 0.930 . S
C1844 H1830 0.930 . S
C1844 C1842 1.395 . S
C1844 C1847 1.403 . S
C1845 C1842 1.403 . S
C1845 C1846 1.524 . S
C1845 C1849 1.400 . S
C1846 H1831 0.960 . S
C1846 H1832 0.960 . S
C1846 H1833 0.960 . S
C1846 C1845 1.524 . S
C1847 C1844 1.403 . S
C1847 C1848 1.392 . S
C1847 C1851 1.495 . S
C1848 C1847 1.392 . S
C1848 C1849 1.385 . S
C1848 C1850 1.478 . S
C1849 H1843 0.930 . S
C1849 C1845 1.400 . S
C1849 C1848 1.385 . S
C1850 C1848 1.478 . S
C1850 C1852 1.381 . S
C1850 C1856 1.383 . S
C1851 C1847 1.495 . S
C1851 H1857 0.959 . S
C1851 H1858 0.961 . S
C1851 H1859 0.960 . S
C1852 C1850 1.381 . S
C1852 C1853 1.394 . S
C1852 H1860 0.930 . S
C1853 C1852 1.394 . S
C1853 C1854 1.383 . S
C1853 H1861 0.929 . S
C1854 C1853 1.383 . S
C1854 C1855 1.377 . S
C1855 H1839 0.930 . S
C1855 C1854 1.377 . S
C1855 C1856 1.379 . S
C1856 H1840 0.931 . S
C1856 C1850 1.383 . S
C1856 C1855 1.379 . S
H1857 C1851 0.959 . S
H1858 C1851 0.961 . S
H1859 C1851 0.960 . S
H1860 C1852 0.930 . S
H1861 C1853 0.929 . S
H1862 C1870 0.929 . S
H1863 C1872 0.930 . S
H1864 C1874 0.930 . S
H1865 C1877 0.929 . S
H1866 C1880 0.930 . S
H1867 C1882 0.960 . S
H1868 C1882 0.960 . S
H1869 C1882 0.960 . S
C1870 H1862 0.929 . S
C1870 C1871 1.377 . S
C1870 C1872 1.384 . S
C1871 C1870 1.377 . S
C1871 C1877 1.390 . S
C1872 H1863 0.930 . S
C1872 C1870 1.384 . S
C1872 C1873 1.372 . S
C1873 C1872 1.372 . S
C1873 C1874 1.400 . S
C1873 C1878 1.490 . S
C1874 H1864 0.930 . S
C1874 C1873 1.400 . S
C1874 C1877 1.386 . S
H1875 C1891 0.930 . S
H1876 C1892 0.931 . S
C1877 H1865 0.929 . S
C1877 C1871 1.390 . S
C1877 C1874 1.386 . S
C1878 C1873 1.490 . S
C1878 C1880 1.395 . S
C1878 C1881 1.403 . S
H1879 C1885 0.930 . S
C1880 H1866 0.930 . S
C1880 C1878 1.395 . S
C1880 C1883 1.403 . S
C1881 C1878 1.403 . S
C1881 C1882 1.524 . S
C1881 C1885 1.400 . S
C1882 H1867 0.960 . S
C1882 H1868 0.960 . S
C1882 H1869 0.960 . S
C1882 C1881 1.524 . S
C1883 C1880 1.403 . S
C1883 C1884 1.392 . S
C1883 C1887 1.495 . S
C1884 C1883 1.392 . S
C1884 C1885 1.385 . S
C1884 C1886 1.478 . S
C1885 H1879 0.930 . S
C1885 C1881 1.400 . S
C1885 C1884 1.385 . S
C1886 C1884 1.478 . S
C1886 C1888 1.381 . S
C1886 C1892 1.383 . S
C1887 C1883 1.495 . S
C1887 H1893 0.959 . S
C1887 H1894 0.961 . S
C1887 H1895 0.960 . S
C1888 C1886 1.381 . S
C1888 C1889 1.394 . S
C1888 H1896 0.930 . S
C1889 C1888 1.394 . S
C1889 C1890 1.383 . S
C1889 H1897 0.929 . S
C1890 C1889 1.383 . S
C1890 C1891 1.377 . S
C1891 H1875 0.930 . S
C1891 C1890 1.377 . S
C1891 C1892 1.379 . S
C1892 H1876 0.931 . S
C1892 C1886 1.383 . S
C1892 C1891 1.379 . S
H1893 C1887 0.959 . S
H1894 C1887 0.961 . S
H1895 C1887 0.960 . S
H1896 C1888 0.930 . S
H1897 C1889 0.929 . S
H1898 C1906 0.929 . S
H1899 C1908 0.930 . S
H1900 C1910 0.930 . S
H1901 C1913 0.929 . S
H1902 C1916 0.930 . S
H1903 C1918 0.960 . S
H1904 C1918 0.960 . S
H1905 C1918 0.960 . S
C1906 H1898 0.929 . S
C1906 C1907 1.377 . S
C1906 C1908 1.384 . S
C1907 C1906 1.377 . S
C1907 C1913 1.390 . S
C1908 H1899 0.930 . S
C1908 C1906 1.384 . S
C1908 C1909 1.372 . S
C1909 C1908 1.372 . S
C1909 C1910 1.400 . S
C1909 C1914 1.490 . S
C1910 H1900 0.930 . S
C1910 C1909 1.400 . S
C1910 C1913 1.386 . S
H1911 C1927 0.930 . S
H1912 C1928 0.931 . S
C1913 H1901 0.929 . S
C1913 C1907 1.390 . S
C1913 C1910 1.386 . S
C1914 C1909 1.490 . S
C1914 C1916 1.395 . S
C1914 C1917 1.403 . S
H1915 C1921 0.930 . S
C1916 H1902 0.930 . S
C1916 C1914 1.395 . S
C1916 C1919 1.403 . S
C1917 C1914 1.403 . S
C1917 C1918 1.524 . S
C1917 C1921 1.400 . S
C1918 H1903 0.960 . S
C1918 H1904 0.960 . S
C1918 H1905 0.960 . S
C1918 C1917 1.524 . S
C1919 C1916 1.403 . S
C1919 C1920 1.392 . S
C1919 C1923 1.495 . S
C1920 C1919 1.392 . S
C1920 C1921 1.385 . S
C1920 C1922 1.478 . S
C1921 H1915 0.930 . S
C1921 C1917 1.400 . S
C1921 C1920 1.385 . S
C1922 C1920 1.478 . S
C1922 C1924 1.381 . S
C1922 C1928 1.383 . S
C1923 C1919 1.495 . S
C1923 H1929 0.959 . S
C1923 H1930 0.961 . S
C1923 H1931 0.960 . S
C1924 C1922 1.381 . S
C1924 C1925 1.394 . S
C1924 H1932 0.930 . S
C1925 C1924 1.394 . S
C1925 C1926 1.383 . S
C1925 H1933 0.929 . S
C1926 C1925 1.383 . S
C1926 C1927 1.377 . S
C1927 H1911 0.930 . S
C1927 C1926 1.377 . S
C1927 C1928 1.379 . S
C1928 H1912 0.931 . S
C1928 C1922 1.383 . S
C1928 C1927 1.379 . S
H1929 C1923 0.959 . S
H1930 C1923 0.961 . S
H1931 C1923 0.960 . S
H1932 C1924 0.930 . S
H1933 C1925 0.929 . S
H1934 C1942 0.929 . S
H1935 C1944 0.930 . S
H1936 C1946 0.930 . S
H1937 C1949 0.929 . S
H1938 C1952 0.930 . S
H1939 C1954 0.960 . S
H1940 C1954 0.960 . S
H1941 C1954 0.960 . S
C1942 H1934 0.929 . S
C1942 C1943 1.377 . S
C1942 C1944 1.384 . S
C1943 C1942 1.377 . S
C1943 C1949 1.390 . S
C1944 H1935 0.930 . S
C1944 C1942 1.384 . S
C1944 C1945 1.372 . S
C1945 C1944 1.372 . S
C1945 C1946 1.400 . S
C1945 C1950 1.490 . S
C1946 H1936 0.930 . S
C1946 C1945 1.400 . S
C1946 C1949 1.386 . S
H1947 C1963 0.930 . S
H1948 C1964 0.931 . S
C1949 H1937 0.929 . S
C1949 C1943 1.390 . S
C1949 C1946 1.386 . S
C1950 C1945 1.490 . S
C1950 C1952 1.395 . S
C1950 C1953 1.403 . S
H1951 C1957 0.930 . S
C1952 H1938 0.930 . S
C1952 C1950 1.395 . S
C1952 C1955 1.403 . S
C1953 C1950 1.403 . S
C1953 C1954 1.524 . S
C1953 C1957 1.400 . S
C1954 H1939 0.960 . S
C1954 H1940 0.960 . S
C1954 H1941 0.960 . S
C1954 C1953 1.524 . S
C1955 C1952 1.403 . S
C1955 C1956 1.392 . S
C1955 C1959 1.495 . S
C1956 C1955 1.392 . S
C1956 C1957 1.385 . S
C1956 C1958 1.478 . S
C1957 H1951 0.930 . S
C1957 C1953 1.400 . S
C1957 C1956 1.385 . S
C1958 C1956 1.478 . S
C1958 C1960 1.381 . S
C1958 C1964 1.383 . S
C1959 C1955 1.495 . S
C1959 H1965 0.959 . S
C1959 H1966 0.961 . S
C1959 H1967 0.960 . S
C1960 C1958 1.381 . S
C1960 C1961 1.394 . S
C1960 H1968 0.930 . S
C1961 C1960 1.394 . S
C1961 C1962 1.383 . S
C1961 H1969 0.929 . S
C1962 C1961 1.383 . S
C1962 C1963 1.377 . S
C1963 H1947 0.930 . S
C1963 C1962 1.377 . S
C1963 C1964 1.379 . S
C1964 H1948 0.931 . S
C1964 C1958 1.383 . S
C1964 C1963 1.379 . S
H1965 C1959 0.959 . S
H1966 C1959 0.961 . S
H1967 C1959 0.960 . S
H1968 C1960 0.930 . S
H1969 C1961 0.929 . S
H1970 C1978 0.929 . S
H1971 C1980 0.930 . S
H1972 C1982 0.930 . S
H1973 C1985 0.929 . S
H1974 C1988 0.930 . S
H1975 C1990 0.960 . S
H1976 C1990 0.960 . S
H1977 C1990 0.960 . S
C1978 H1970 0.929 . S
C1978 C1979 1.377 . S
C1978 C1980 1.384 . S
C1979 C1978 1.377 . S
C1979 C1985 1.390 . S
C1980 H1971 0.930 . S
C1980 C1978 1.384 . S
C1980 C1981 1.372 . S
C1981 C1980 1.372 . S
C1981 C1982 1.400 . S
C1981 C1986 1.490 . S
C1982 H1972 0.930 . S
C1982 C1981 1.400 . S
C1982 C1985 1.386 . S
H1983 C1999 0.930 . S
H1984 C2000 0.931 . S
C1985 H1973 0.929 . S
C1985 C1979 1.390 . S
C1985 C1982 1.386 . S
C1986 C1981 1.490 . S
C1986 C1988 1.395 . S
C1986 C1989 1.403 . S
H1987 C1993 0.930 . S
C1988 H1974 0.930 . S
C1988 C1986 1.395 . S
C1988 C1991 1.403 . S
C1989 C1986 1.403 . S
C1989 C1990 1.524 . S
C1989 C1993 1.400 . S
C1990 H1975 0.960 . S
C1990 H1976 0.960 . S
C1990 H1977 0.960 . S
C1990 C1989 1.524 . S
C1991 C1988 1.403 . S
C1991 C1992 1.392 . S
C1991 C1995 1.495 . S
C1992 C1991 1.392 . S
C1992 C1993 1.385 . S
C1992 C1994 1.478 . S
C1993 H1987 0.930 . S
C1993 C1989 1.400 . S
C1993 C1992 1.385 . S
C1994 C1992 1.478 . S
C1994 C1996 1.381 . S
C1994 C2000 1.383 . S
C1995 C1991 1.495 . S
C1995 H2001 0.959 . S
C1995 H2002 0.961 . S
C1995 H2003 0.960 . S
C1996 C1994 1.381 . S
C1996 C1997 1.394 . S
C1996 H2004 0.930 . S
C1997 C1996 1.394 . S
C1997 C1998 1.383 . S
C1997 H2005 0.929 . S
C1998 C1997 1.383 . S
C1998 C1999 1.377 . S
C1999 H1983 0.930 . S
C1999 C1998 1.377 . S
C1999 C2000 1.379 . S
C2000 H1984 0.931 . S
C2000 C1994 1.383 . S
C2000 C1999 1.379 . S
H2001 C1995 0.959 . S
H2002 C1995 0.961 . S
H2003 C1995 0.960 . S
H2004 C1996 0.930 . S
H2005 C1997 0.929 . S
H2006 C2014 0.929 . S
H2007 C2016 0.930 . S
H2008 C2018 0.930 . S
H2009 C2021 0.929 . S
H2010 C2024 0.930 . S
H2011 C2026 0.960 . S
H2012 C2026 0.960 . S
H2013 C2026 0.960 . S
C2014 H2006 0.929 . S
C2014 C2015 1.377 . S
C2014 C2016 1.384 . S
C2015 C2014 1.377 . S
C2015 C2021 1.390 . S
C2016 H2007 0.930 . S
C2016 C2014 1.384 . S
C2016 C2017 1.372 . S
C2017 C2016 1.372 . S
C2017 C2018 1.400 . S
C2017 C2022 1.490 . S
C2018 H2008 0.930 . S
C2018 C2017 1.400 . S
C2018 C2021 1.386 . S
H2019 C2035 0.930 . S
H2020 C2036 0.931 . S
C2021 H2009 0.929 . S
C2021 C2015 1.390 . S
C2021 C2018 1.386 . S
C2022 C2017 1.490 . S
C2022 C2024 1.395 . S
C2022 C2025 1.403 . S
H2023 C2029 0.930 . S
C2024 H2010 0.930 . S
C2024 C2022 1.395 . S
C2024 C2027 1.403 . S
C2025 C2022 1.403 . S
C2025 C2026 1.524 . S
C2025 C2029 1.400 . S
C2026 H2011 0.960 . S
C2026 H2012 0.960 . S
C2026 H2013 0.960 . S
C2026 C2025 1.524 . S
C2027 C2024 1.403 . S
C2027 C2028 1.392 . S
C2027 C2031 1.495 . S
C2028 C2027 1.392 . S
C2028 C2029 1.385 . S
C2028 C2030 1.478 . S
C2029 H2023 0.930 . S
C2029 C2025 1.400 . S
C2029 C2028 1.385 . S
C2030 C2028 1.478 . S
C2030 C2032 1.381 . S
C2030 C2036 1.383 . S
C2031 C2027 1.495 . S
C2031 H2037 0.959 . S
C2031 H2038 0.961 . S
C2031 H2039 0.960 . S
C2032 C2030 1.381 . S
C2032 C2033 1.394 . S
C2032 H2040 0.930 . S
C2033 C2032 1.394 . S
C2033 C2034 1.383 . S
C2033 H2041 0.929 . S
C2034 C2033 1.383 . S
C2034 C2035 1.377 . S
C2035 H2019 0.930 . S
C2035 C2034 1.377 . S
C2035 C2036 1.379 . S
C2036 H2020 0.931 . S
C2036 C2030 1.383 . S
C2036 C2035 1.379 . S
H2037 C2031 0.959 . S
H2038 C2031 0.961 . S
H2039 C2031 0.960 . S
H2040 C2032 0.930 . S
H2041 C2033 0.929 . S
H2042 C2050 0.929 . S
H2043 C2052 0.930 . S
H2044 C2054 0.930 . S
H2045 C2057 0.929 . S
H2046 C2060 0.930 . S
H2047 C2062 0.960 . S
H2048 C2062 0.960 . S
H2049 C2062 0.960 . S
C2050 H2042 0.929 . S
C2050 C2051 1.377 . S
C2050 C2052 1.384 . S
C2051 C2050 1.377 . S
C2051 C2057 1.390 . S
C2052 H2043 0.930 . S
C2052 C2050 1.384 . S
C2052 C2053 1.372 . S
C2053 C2052 1.372 . S
C2053 C2054 1.400 . S
C2053 C2058 1.490 . S
C2054 H2044 0.930 . S
C2054 C2053 1.400 . S
C2054 C2057 1.386 . S
H2055 C2071 0.930 . S
H2056 C2072 0.931 . S
C2057 H2045 0.929 . S
C2057 C2051 1.390 . S
C2057 C2054 1.386 . S
C2058 C2053 1.490 . S
C2058 C2060 1.395 . S
C2058 C2061 1.403 . S
H2059 C2065 0.930 . S
C2060 H2046 0.930 . S
C2060 C2058 1.395 . S
C2060 C2063 1.403 . S
C2061 C2058 1.403 . S
C2061 C2062 1.524 . S
C2061 C2065 1.400 . S
C2062 H2047 0.960 . S
C2062 H2048 0.960 . S
C2062 H2049 0.960 . S
C2062 C2061 1.524 . S
C2063 C2060 1.403 . S
C2063 C2064 1.392 . S
C2063 C2067 1.495 . S
C2064 C2063 1.392 . S
C2064 C2065 1.385 . S
C2064 C2066 1.478 . S
C2065 H2059 0.930 . S
C2065 C2061 1.400 . S
C2065 C2064 1.385 . S
C2066 C2064 1.478 . S
C2066 C2068 1.381 . S
C2066 C2072 1.383 . S
C2067 C2063 1.495 . S
C2067 H2073 0.959 . S
C2067 H2074 0.961 . S
C2067 H2075 0.960 . S
C2068 C2066 1.381 . S
C2068 C2069 1.394 . S
C2068 H2076 0.930 . S
C2069 C2068 1.394 . S
C2069 C2070 1.383 . S
C2069 H2077 0.929 . S
C2070 C2069 1.383 . S
C2070 C2071 1.377 . S
C2071 H2055 0.930 . S
C2071 C2070 1.377 . S
C2071 C2072 1.379 . S
C2072 H2056 0.931 . S
C2072 C2066 1.383 . S
C2072 C2071 1.379 . S
H2073 C2067 0.959 . S
H2074 C2067 0.961 . S
H2075 C2067 0.960 . S
H2076 C2068 0.930 . S
H2077 C2069 0.929 . S
H2078 C2086 0.929 . S
H2079 C2088 0.930 . S
H2080 C2090 0.930 . S
H2081 C2093 0.929 . S
H2082 C2096 0.930 . S
H2083 C2098 0.960 . S
H2084 C2098 0.960 . S
H2085 C2098 0.960 . S
C2086 H2078 0.929 . S
C2086 C2087 1.377 . S
C2086 C2088 1.384 . S
C2087 C2086 1.377 . S
C2087 C2093 1.390 . S
C2088 H2079 0.930 . S
C2088 C2086 1.384 . S
C2088 C2089 1.372 . S
C2089 C2088 1.372 . S
C2089 C2090 1.400 . S
C2089 C2094 1.490 . S
C2090 H2080 0.930 . S
C2090 C2089 1.400 . S
C2090 C2093 1.386 . S
H2091 C2107 0.930 . S
H2092 C2108 0.931 . S
C2093 H2081 0.929 . S
C2093 C2087 1.390 . S
C2093 C2090 1.386 . S
C2094 C2089 1.490 . S
C2094 C2096 1.395 . S
C2094 C2097 1.403 . S
H2095 C2101 0.930 . S
C2096 H2082 0.930 . S
C2096 C2094 1.395 . S
C2096 C2099 1.403 . S
C2097 C2094 1.403 . S
C2097 C2098 1.524 . S
C2097 C2101 1.400 . S
C2098 H2083 0.960 . S
C2098 H2084 0.960 . S
C2098 H2085 0.960 . S
C2098 C2097 1.524 . S
C2099 C2096 1.403 . S
C2099 C2100 1.392 . S
C2099 C2103 1.495 . S
C2100 C2099 1.392 . S
C2100 C2101 1.385 . S
C2100 C2102 1.478 . S
C2101 H2095 0.930 . S
C2101 C2097 1.400 . S
C2101 C2100 1.385 . S
C2102 C2100 1.478 . S
C2102 C2104 1.381 . S
C2102 C2108 1.383 . S
C2103 C2099 1.495 . S
C2103 H2109 0.959 . S
C2103 H2110 0.961 . S
C2103 H2111 0.960 . S
C2104 C2102 1.381 . S
C2104 C2105 1.394 . S
C2104 H2112 0.930 . S
C2105 C2104 1.394 . S
C2105 C2106 1.383 . S
C2105 H2113 0.929 . S
C2106 C2105 1.383 . S
C2106 C2107 1.377 . S
C2107 H2091 0.930 . S
C2107 C2106 1.377 . S
C2107 C2108 1.379 . S
C2108 H2092 0.931 . S
C2108 C2102 1.383 . S
C2108 C2107 1.379 . S
H2109 C2103 0.959 . S
H2110 C2103 0.961 . S
H2111 C2103 0.960 . S
H2112 C2104 0.930 . S
H2113 C2105 0.929 . S
H2114 C2122 0.929 . S
H2115 C2124 0.930 . S
H2116 C2126 0.930 . S
H2117 C2129 0.929 . S
H2118 C2132 0.930 . S
H2119 C2134 0.960 . S
H2120 C2134 0.960 . S
H2121 C2134 0.960 . S
C2122 H2114 0.929 . S
C2122 C2123 1.377 . S
C2122 C2124 1.384 . S
C2123 C2122 1.377 . S
C2123 C2129 1.390 . S
C2124 H2115 0.930 . S
C2124 C2122 1.384 . S
C2124 C2125 1.372 . S
C2125 C2124 1.372 . S
C2125 C2126 1.400 . S
C2125 C2130 1.490 . S
C2126 H2116 0.930 . S
C2126 C2125 1.400 . S
C2126 C2129 1.386 . S
H2127 C2143 0.930 . S
H2128 C2144 0.931 . S
C2129 H2117 0.929 . S
C2129 C2123 1.390 . S
C2129 C2126 1.386 . S
C2130 C2125 1.490 . S
C2130 C2132 1.395 . S
C2130 C2133 1.403 . S
H2131 C2137 0.930 . S
C2132 H2118 0.930 . S
C2132 C2130 1.395 . S
C2132 C2135 1.403 . S
C2133 C2130 1.403 . S
C2133 C2134 1.524 . S
C2133 C2137 1.400 . S
C2134 H2119 0.960 . S
C2134 H2120 0.960 . S
C2134 H2121 0.960 . S
C2134 C2133 1.524 . S
C2135 C2132 1.403 . S
C2135 C2136 1.392 . S
C2135 C2139 1.495 . S
C2136 C2135 1.392 . S
C2136 C2137 1.385 . S
C2136 C2138 1.478 . S
C2137 H2131 0.930 . S
C2137 C2133 1.400 . S
C2137 C2136 1.385 . S
C2138 C2136 1.478 . S
C2138 C2140 1.381 . S
C2138 C2144 1.383 . S
C2139 C2135 1.495 . S
C2139 H2145 0.959 . S
C2139 H2146 0.961 . S
C2139 H2147 0.960 . S
C2140 C2138 1.381 . S
C2140 C2141 1.394 . S
C2140 H2148 0.930 . S
C2141 C2140 1.394 . S
C2141 C2142 1.383 . S
C2141 H2149 0.929 . S
C2142 C2141 1.383 . S
C2142 C2143 1.377 . S
C2143 H2127 0.930 . S
C2143 C2142 1.377 . S
C2143 C2144 1.379 . S
C2144 H2128 0.931 . S
C2144 C2138 1.383 . S
C2144 C2143 1.379 . S
H2145 C2139 0.959 . S
H2146 C2139 0.961 . S
H2147 C2139 0.960 . S
H2148 C2140 0.930 . S
H2149 C2141 0.929 . S
H2150 C2158 0.929 . S
H2151 C2160 0.930 . S
H2152 C2162 0.930 . S
H2153 C2165 0.929 . S
H2154 C2168 0.930 . S
H2155 C2170 0.960 . S
H2156 C2170 0.960 . S
H2157 C2170 0.960 . S
C2158 H2150 0.929 . S
C2158 C2159 1.377 . S
C2158 C2160 1.384 . S
C2159 C2158 1.377 . S
C2159 C2165 1.390 . S
C2160 H2151 0.930 . S
C2160 C2158 1.384 . S
C2160 C2161 1.372 . S
C2161 C2160 1.372 . S
C2161 C2162 1.400 . S
C2161 C2166 1.490 . S
C2162 H2152 0.930 . S
C2162 C2161 1.400 . S
C2162 C2165 1.386 . S
H2163 C2179 0.930 . S
H2164 C2180 0.931 . S
C2165 H2153 0.929 . S
C2165 C2159 1.390 . S
C2165 C2162 1.386 . S
C2166 C2161 1.490 . S
C2166 C2168 1.395 . S
C2166 C2169 1.403 . S
H2167 C2173 0.930 . S
C2168 H2154 0.930 . S
C2168 C2166 1.395 . S
C2168 C2171 1.403 . S
C2169 C2166 1.403 . S
C2169 C2170 1.524 . S
C2169 C2173 1.400 . S
C2170 H2155 0.960 . S
C2170 H2156 0.960 . S
C2170 H2157 0.960 . S
C2170 C2169 1.524 . S
C2171 C2168 1.403 . S
C2171 C2172 1.392 . S
C2171 C2175 1.495 . S
C2172 C2171 1.392 . S
C2172 C2173 1.385 . S
C2172 C2174 1.478 . S
C2173 H2167 0.930 . S
C2173 C2169 1.400 . S
C2173 C2172 1.385 . S
C2174 C2172 1.478 . S
C2174 C2176 1.381 . S
C2174 C2180 1.383 . S
C2175 C2171 1.495 . S
C2175 H2181 0.959 . S
C2175 H2182 0.961 . S
C2175 H2183 0.960 . S
C2176 C2174 1.381 . S
C2176 C2177 1.394 . S
C2176 H2184 0.930 . S
C2177 C2176 1.394 . S
C2177 C2178 1.383 . S
C2177 H2185 0.929 . S
C2178 C2177 1.383 . S
C2178 C2179 1.377 . S
C2179 H2163 0.930 . S
C2179 C2178 1.377 . S
C2179 C2180 1.379 . S
C2180 H2164 0.931 . S
C2180 C2174 1.383 . S
C2180 C2179 1.379 . S
H2181 C2175 0.959 . S
H2182 C2175 0.961 . S
H2183 C2175 0.960 . S
H2184 C2176 0.930 . S
H2185 C2177 0.929 . S
C486 C283 0.290 . S
C467 C4 0.238 . S
C522 C273 1.680 . S
C503 C63 1.701 . S
C558 C274 0.655 . S
C539 C72 0.652 . S
C575 C102 1.624 . S
C594 C296 1.603 . S
C611 C136 1.705 . S
C630 C299 1.682 . S
C666 C282 0.623 . S
C647 C183 0.641 . S
C683 C233 1.626 . S
C702 C272 1.616 . S
C719 C251 0.248 . S
C738 C290 0.355 . S
C774 C303 1.564 . S
C755 C29 1.585 . S
C791 C42 1.877 . S
C810 C352 1.803 . S
C846 C330 1.694 . S
C827 C97 1.699 . S
C882 C344 0.619 . S
C863 C115 0.582 . S
C899 C149 0.614 . S
C918 C305 0.604 . S
C954 C358 1.583 . S
C935 C187 1.633 . S
C971 C212 1.891 . S
C990 C314 1.781 . S
C1007 C255 1.682 . S
C1026 C335 1.670 . S
C1043 C8 1.684 . S
C1062 C361 1.660 . S
C1079 C153 1.880 . S
C1098 C345 1.815 . S
C1134 C304 1.687 . S
C1115 C170 1.703 . S
C1170 C336 0.704 . S
C1151 C208 0.601 . S
C1187 C238 1.590 . S
C1206 C327 1.548 . S
C1223 C76 1.633 . S
C1242 C334 1.602 . S
C1278 C321 1.801 . S
C1259 C119 1.889 . S
C1295 C38 0.619 . S
C1314 C313 0.671 . S
C1331 C242 0.248 . S
C1350 C376 0.280 . S
C1367 C165 1.702 . S
C1386 C366 1.710 . S
C1422 C367 0.600 . S
C1403 C174 0.640 . S
C1458 C389 1.619 . S
C1439 C204 1.622 . S
C1475 C34 1.699 . S
C1494 C392 1.705 . S
C1530 C375 0.690 . S
C1511 C81 0.631 . S
C1547 C131 1.625 . S
C1566 C365 1.592 . S
C1583 C13 0.248 . S
C1602 C383 0.352 . S
C1619 C267 1.591 . S
C1638 C396 1.533 . S
C1674 C445 1.811 . S
C1655 C144 1.880 . S
C1691 C199 1.702 . S
C1710 C423 1.652 . S
C1727 C217 0.593 . S
C1746 C437 0.689 . S
C1782 C398 0.645 . S
C1763 C47 0.621 . S
C1799 C85 1.631 . S
C1818 C451 1.565 . S
C1854 C407 1.772 . S
C1835 C110 1.887 . S
C1890 C428 1.632 . S
C1871 C17 1.683 . S
C1926 C454 1.643 . S
C1907 C246 1.686 . S
C1943 C51 1.877 . S
C1962 C438 1.770 . S
C1979 C68 1.699 . S
C1998 C397 1.665 . S
C2034 C429 0.655 . S
C2015 C106 0.590 . S
C2051 C0 1.589 . S
C2070 C420 1.536 . S
C2087 C178 1.629 . S
C2106 C427 1.572 . S
C2142 C414 1.762 . S
C2123 C221 1.891 . S
C2178 C406 0.574 . S
C2159 C140 0.608 . S
