# Generated by pormake.
# Topology rtl, (3,6)-cn, num edge types: 1
# Building blocks:
#     Node 0, Type 0, BuildingBlock: WUSLED_clean_sbu_0, # of connection points: 3
#     Node 1, Type 0, BuildingBlock: WUSLED_clean_sbu_0, # of connection points: 3
#     Node 2, Type 0, BuildingBlock: WUSLED_clean_sbu_0, # of connection points: 3
#     Node 3, Type 0, BuildingBlock: WUSLED_clean_sbu_0, # of connection points: 3
#     Node 4, Type 1, BuildingBlock: KUMBUR_clean_sbu_1, # of connection points: 6
#     Node 5, Type 1, BuildingBlock: KUMBUR_clean_sbu_1, # of connection points: 6
#     Edge 6, Type (0, 1), BuildingBlock: XUDNAN_clean_linker_2, # of connection points: 2
#     Edge 7, Type (0, 1), BuildingBlock: XUDNAN_clean_linker_2, # of connection points: 2
#     Edge 8, Type (0, 1), BuildingBlock: XUDNAN_clean_linker_2, # of connection points: 2
#     Edge 9, Type (0, 1), BuildingBlock: XUDNAN_clean_linker_2, # of connection points: 2
#     Edge 10, Type (0, 1), BuildingBlock: XUDNAN_clean_linker_2, # of connection points: 2
#     Edge 11, Type (0, 1), BuildingBlock: XUDNAN_clean_linker_2, # of connection points: 2
#     Edge 12, Type (0, 1), BuildingBlock: XUDNAN_clean_linker_2, # of connection points: 2
#     Edge 13, Type (0, 1), BuildingBlock: XUDNAN_clean_linker_2, # of connection points: 2
#     Edge 14, Type (0, 1), BuildingBlock: XUDNAN_clean_linker_2, # of connection points: 2
#     Edge 15, Type (0, 1), BuildingBlock: XUDNAN_clean_linker_2, # of connection points: 2
#     Edge 16, Type (0, 1), BuildingBlock: XUDNAN_clean_linker_2, # of connection points: 2
#     Edge 17, Type (0, 1), BuildingBlock: XUDNAN_clean_linker_2, # of connection points: 2
# Relax obj value: 0.016
# Max RMSD: 0.102
# Mean RMSD: 0.058
data_MOF--net-rtl--node1-WUSLED_clean_sbu_0--node2-KUMBUR_clean_sbu_1--edge1-XUDNAN_clean_linker_2
_symmetry_space_group_name_H-M    P1
_symmetry_Int_Tables_number       1
_symmetry_cell_setting            triclinic
loop_
_symmetry_equiv_pos_as_xyz
'x, y, z'
_cell_length_a     42.081229
_cell_length_b     42.717302
_cell_length_c     36.382392
_cell_angle_alpha  80.940423
_cell_angle_beta   99.10009
_cell_angle_gamma 90.409895
loop_
_atom_site_label
_atom_site_type_symbol
_atom_site_fract_x
_atom_site_fract_y
_atom_site_fract_z
_atom_type_partial_charge
C0 C 0.20172 0.83748 0.13562 0.0
C1 C 0.17032 0.85039 0.128 0.0
C2 C 0.17359 0.85775 0.19373 0.0
C3 C 0.15637 0.86044 0.15682 0.0
C4 C 0.20531 0.84546 0.20079 0.0
C5 C 0.21916 0.83541 0.17206 0.0
U6 U 0.20936 0.83355 0.03239 0.0
O7 O 0.25309 0.83276 1.00625 0.0
O8 O 0.21999 0.79277 1.00592 0.0
C9 C 0.24762 0.80417 0.99784 0.0
C10 C 0.21676 0.82566 0.10637 0.0
C11 C 0.27561 0.78196 1.00491 0.0
C12 C 0.299 0.72856 0.02268 0.0
C13 C 0.2738 0.75013 0.02183 0.0
C14 C 0.32868 0.77049 0.99119 0.0
C15 C 0.32635 0.73834 1.0064 0.0
C16 C 0.3036 0.79197 0.99035 0.0
C17 C 0.15483 0.88201 0.95035 0.0
C18 C 0.16627 0.88564 0.88641 0.0
C19 C 0.1185 0.91142 0.89788 0.0
C20 C 0.12671 0.90028 0.93653 0.0
C21 C 0.13843 0.90458 0.87241 0.0
C22 C 0.17436 0.87441 0.92501 0.0
C23 C 0.16422 0.87181 0.99119 0.0
O24 O 0.19911 0.80709 0.08605 0.0
O25 O 0.23272 0.84662 0.0863 0.0
O26 O 0.19251 0.88153 1.00554 0.0
O27 O 0.1593 0.84185 1.00353 0.0
H28 H 0.15651 0.85233 0.09993 0.0
H29 H 0.13185 0.86958 0.15041 0.0
H30 H 0.21955 0.84363 0.2286 0.0
H31 H 0.24351 0.82577 0.17842 0.0
H32 H 0.29636 0.70395 0.03444 0.0
H33 H 0.25248 0.74159 0.03316 0.0
H34 H 0.34964 0.77895 0.979 0.0
H35 H 0.30561 0.81627 0.97699 0.0
H36 H 0.1819 0.87959 0.86752 0.0
H37 H 0.09708 0.92619 0.88808 0.0
H38 H 0.11137 0.90639 0.95572 0.0
H39 H 0.19611 0.86017 0.93517 0.0
C40 C 0.69116 0.67694 0.72629 0.0
C41 C 0.69142 0.64363 0.73058 0.0
C42 C 0.6646 0.64049 0.78582 0.0
C43 C 0.6784 0.62565 0.76006 0.0
C44 C 0.66353 0.67381 0.78085 0.0
C45 C 0.67681 0.69181 0.75152 0.0
U46 U 0.70461 0.70149 0.62354 0.0
O47 O 0.71154 0.74889 0.59177 0.0
O48 O 0.74909 0.71192 0.59984 0.0
C49 C 0.74077 0.74171 0.58691 0.0
C50 C 0.70673 0.69645 0.69686 0.0
C51 C 0.76583 0.76569 0.59301 0.0
C52 C 0.8182 0.78122 0.62298 0.0
C53 C 0.79339 0.75923 0.62054 0.0
C54 C 0.78804 0.81681 0.57104 0.0
C55 C 0.81601 0.81021 0.59802 0.0
C56 C 0.76332 0.79477 0.56854 0.0
C57 C 0.65731 0.66032 0.54539 0.0
C58 C 0.62574 0.6744 0.48273 0.0
C59 C 0.66109 0.62821 0.49637 0.0
C60 C 0.67022 0.63413 0.53331 0.0
C61 C 0.63856 0.64815 0.4707 0.0
C62 C 0.63494 0.6804 0.51961 0.0
C63 C 0.66583 0.66537 0.58523 0.0
O64 O 0.72705 0.68166 0.68118 0.0
O65 O 0.68801 0.71712 0.67247 0.0
O66 O 0.65671 0.69253 0.59334 0.0
O67 O 0.69496 0.65627 0.60233 0.0
H68 H 0.70204 0.63139 0.71146 0.0
H69 H 0.6792 0.60004 0.76275 0.0
H70 H 0.65329 0.68598 0.80031 0.0
H71 H 0.67634 0.71743 0.74889 0.0
H72 H 0.83948 0.7751 0.64385 0.0
H73 H 0.79612 0.73692 0.63968 0.0
H74 H 0.78519 0.83904 0.55179 0.0
H75 H 0.74238 0.80024 0.54696 0.0
H76 H 0.60859 0.69043 0.46357 0.0
H77 H 0.6711 0.60754 0.48821 0.0
H78 H 0.68709 0.6179 0.55259 0.0
H79 H 0.62425 0.70064 0.52792 0.0
C80 C 0.84372 0.16201 0.17159 0.0
C81 C 0.87618 0.15601 0.16991 0.0
C82 C 0.88481 0.13134 0.23594 0.0
C83 C 0.89657 0.14092 0.20185 0.0
C84 C 0.85199 0.13624 0.237 0.0
C85 C 0.83168 0.15155 0.20513 0.0
U86 U 0.81493 0.18854 0.06555 0.0
O87 O 0.76545 0.19875 0.03539 0.0
O88 O 0.80143 0.23618 0.03459 0.0
C89 C 0.77093 0.22912 0.02645 0.0
C90 C 0.82248 0.18051 0.13951 0.0
C91 C 0.7477 0.25106 0.03602 0.0
C92 C 0.73275 0.28649 0.07694 0.0
C93 C 0.7546 0.26502 0.06878 0.0
C94 C 0.6964 0.27974 0.02023 0.0
C95 C 0.70336 0.29424 0.05272 0.0
C96 C 0.7184 0.25844 1.01196 0.0
C97 C 0.85724 0.1531 0.99333 0.0
C98 C 0.88974 0.16392 0.94303 0.0
C99 C 0.84784 0.12495 0.93935 0.0
C100 C 0.84011 0.13077 0.97374 0.0
C101 C 0.87306 0.14114 0.92381 0.0
C102 C 0.88201 0.16974 0.9774 0.0
C103 C 0.85175 0.15664 0.03186 0.0
O104 O 0.8362 0.20326 0.11911 0.0
O105 O 0.80204 0.16419 0.11915 0.0
O106 O 0.82469 0.1457 0.04226 0.0
O107 O 0.86007 0.18365 0.04339 0.0
H108 H 0.88596 0.1636 0.1442 0.0
H109 H 0.92166 0.13711 0.20004 0.0
H110 H 0.84227 0.12939 0.26289 0.0
H111 H 0.80669 0.15594 0.20697 0.0
H112 H 0.73923 0.29743 0.10191 0.0
H113 H 0.77704 0.25958 0.08789 0.0
H114 H 0.67383 0.28462 1.00125 0.0
H115 H 0.71253 0.24777 0.98666 0.0
H116 H 0.90904 0.1771 0.9317 0.0
H117 H 0.83479 0.1069 0.92566 0.0
H118 H 0.82127 0.11708 0.98542 0.0
H119 H 0.896 0.1868 0.99192 0.0
C120 C 0.36898 0.37116 0.37385 0.0
C121 C 0.3517 0.39713 0.35104 0.0
C122 C 0.3853 0.39625 0.30234 0.0
C123 C 0.35968 0.40942 0.31579 0.0
C124 C 0.40243 0.37008 0.32496 0.0
C125 C 0.39443 0.35775 0.36033 0.0
U126 U 0.32723 0.32145 0.45174 0.0
O127 O 0.31751 0.27545 0.43215 0.0
O128 O 0.28007 0.31274 0.41964 0.0
C129 C 0.2869 0.28263 0.42025 0.0
C130 C 0.36283 0.36073 0.41304 0.0
C131 C 0.26393 0.2597 0.43568 0.0
C132 C 0.24027 0.20724 0.44069 0.0
C133 C 0.26083 0.2296 0.42475 0.0
C134 C 0.22514 0.24505 0.47816 0.0
C135 C 0.22235 0.21459 0.46791 0.0
C136 C 0.24582 0.26721 0.4625 0.0
C137 C 0.34637 0.33642 0.55519 0.0
C138 C 0.35792 0.33834 0.62227 0.0
C139 C 0.37768 0.37948 0.57813 0.0
C140 C 0.36352 0.36445 0.54812 0.0
C141 C 0.37497 0.36659 0.6156 0.0
C142 C 0.34382 0.32346 0.59238 0.0
C143 C 0.32999 0.32059 0.52456 0.0
O144 O 0.37266 0.33202 0.42958 0.0
O145 O 0.33471 0.36863 0.42066 0.0
O146 O 0.30918 0.33806 0.49892 0.0
O147 O 0.34805 0.30218 0.51031 0.0
H148 H 0.33246 0.40859 0.3608 0.0
H149 H 0.34633 0.42996 0.29958 0.0
H150 H 0.42213 0.35917 0.31542 0.0
H151 H 0.40863 0.33809 0.37738 0.0
H152 H 0.23905 0.18397 0.43236 0.0
H153 H 0.27471 0.2232 0.40429 0.0
H154 H 0.2113 0.25191 0.49839 0.0
H155 H 0.24779 0.29017 0.47168 0.0
H156 H 0.35479 0.32805 0.65061 0.0
H157 H 0.39085 0.40105 0.57205 0.0
H158 H 0.36574 0.37478 0.51949 0.0
H159 H 0.33049 0.30194 0.59832 0.0
Tb160 Tb 0.04233 0.98355 0.52527 0.0
C161 C 0.94802 0.08841 0.5072 0.0
N162 N 0.97847 0.08905 0.52599 0.0
C163 C 0.98652 0.13952 0.48963 0.0
C164 C 0.93598 0.11271 0.47753 0.0
C165 C 0.99738 0.11474 0.51885 0.0
C166 C 0.95584 0.1383 0.46852 0.0
C167 C 0.89701 0.06185 0.50005 0.0
C168 C 0.92909 0.06319 0.51809 0.0
C169 C 0.88506 0.0854 0.46954 0.0
C170 C 0.90453 0.11078 0.45827 0.0
Tb171 Tb 0.99516 0.04641 0.57101 0.0
N172 N 0.94159 0.04103 0.54781 0.0
C173 C 0.87765 0.03752 0.51406 0.0
C174 C 0.92173 0.01931 0.56386 0.0
C175 C 0.88988 0.01657 0.54663 0.0
H176 H 0.02121 0.11548 0.53494 0.0
H177 H 0.87465 0.99862 0.55884 0.0
H178 H 0.99236 0.92383 0.51111 0.0
H179 H 0.16754 0.97558 0.58801 0.0
H180 H 0.93008 1.00417 0.59026 0.0
H181 H 0.85288 0.03557 0.50098 0.0
H182 H 0.11944 0.99935 0.54424 0.0
H183 H 1.00184 0.15946 0.48329 0.0
H184 H 0.86059 0.08458 0.45501 0.0
H185 H 0.89487 0.12904 0.43509 0.0
H186 H 0.98433 0.86979 0.54382 0.0
H187 H 0.94753 0.15745 0.44582 0.0
H188 H 0.16296 0.92498 0.63057 0.0
N189 N 0.03421 0.93176 0.54956 0.0
C190 C 0.05761 0.91804 0.5773 0.0
C191 C 1.00484 0.88327 0.55393 0.0
C192 C 0.05473 0.88693 0.59606 0.0
C193 C 1.00926 0.91403 0.53576 0.0
C194 C 0.02727 0.86994 0.58488 0.0
N195 N 0.08834 0.96291 0.56295 0.0
C196 C 0.11753 0.97714 0.56262 0.0
C197 C 0.11249 0.91963 0.60926 0.0
C198 C 0.08601 0.93402 0.58384 0.0
C199 C 0.14195 0.93526 0.61143 0.0
C200 C 0.14466 0.96379 0.58736 0.0
H201 H 0.02404 0.84597 0.59858 0.0
H202 H 0.07817 0.84958 0.63894 0.0
H203 H 0.12888 0.8783 0.65052 0.0
O204 O 0.05912 1.00164 0.47472 0.0
O205 O 0.06225 0.99609 0.58079 0.0
O206 O 0.0192 1.00583 0.60963 0.0
O207 O 0.05602 0.9516 0.4917 0.0
O208 O 0.06278 0.03172 0.52181 0.0
O209 O 0.04576 0.05784 0.56782 0.0
O210 O 0.96661 0.06258 0.60731 0.0
O211 O 1.00318 0.05262 0.51225 0.0
O212 O 0.99633 1.00403 0.49493 0.0
O213 O 1.01505 0.07794 0.60686 0.0
O214 O 0.98523 0.99587 0.58527 0.0
O215 O 0.99119 0.97617 0.53128 0.0
C216 C 0.04861 0.99497 0.61106 0.0
C217 C 0.0502 0.96988 0.42642 0.0
C218 C 0.05825 0.94963 0.36915 0.0
C219 C 0.02766 0.96189 0.3517 0.0
C220 C 0.01966 0.98155 0.40863 0.0
C221 C 1.00857 0.97768 0.37139 0.0
C222 C 0.06936 0.95396 0.40664 0.0
C223 C 0.065 0.05451 0.54307 0.0
C224 C 0.06263 0.97382 0.46557 0.0
C225 C 0.0801 0.87328 0.62374 0.0
C226 C 0.109 0.88961 0.63029 0.0
C227 C 0.99183 0.03479 0.48728 0.0
C228 C 0.99665 0.07027 0.66556 0.0
C229 C 0.98147 0.07496 0.72678 0.0
C230 C 1.00901 0.05676 0.74457 0.0
C231 C 0.02392 0.05217 0.68408 0.0
C232 C 0.97549 0.0816 0.68701 0.0
C233 C 0.03008 0.04566 0.72331 0.0
C234 C 0.97947 0.97426 0.56305 0.0
C235 C 0.99019 0.07751 0.62399 0.0
H236 H 0.01817 0.95868 0.32312 0.0
H237 H 1.00442 0.99354 0.42351 0.0
H238 H 0.98497 0.98671 0.35781 0.0
H239 H 0.09304 0.94513 0.42047 0.0
H240 H 1.01416 0.05075 0.77498 0.0
H241 H 0.04062 0.04318 0.66829 0.0
H242 H 0.95468 0.09589 0.67269 0.0
H243 H 0.05134 0.03199 0.73728 0.0
Tb244 Tb 0.4877 0.49955 0.99564 0.0
C245 C 0.60995 0.56385 0.04377 0.0
N246 N 0.60025 0.53654 0.06314 0.0
C247 C 0.6521 0.51255 0.06606 0.0
C248 C 0.64095 0.56625 0.03374 0.0
C249 C 0.62094 0.51118 0.07502 0.0
C250 C 0.66209 0.54012 0.04511 0.0
C251 C 0.59711 0.6177 1.01279 0.0
C252 C 0.58809 0.58901 0.03307 0.0
C253 C 0.62774 0.62006 1.00189 0.0
C254 C 0.64961 0.59439 1.01236 0.0
Tb255 Tb 0.54849 0.53622 0.07474 0.0
N256 N 0.55839 0.58561 0.04352 0.0
C257 C 0.57542 0.64341 1.00497 0.0
C258 C 0.53887 0.61175 0.03971 0.0
C259 C 0.54651 0.64064 0.01934 0.0
H260 H 0.61327 0.48984 0.09115 0.0
H261 H 0.53039 0.66094 1.01544 0.0
H262 H 0.43781 0.55642 0.94692 0.0
H263 H 0.46747 0.38721 0.08021 0.0
H264 H 0.51776 0.61098 0.05314 0.0
H265 H 0.58138 0.66587 0.98941 0.0
H266 H 0.50033 0.42885 0.05124 0.0
H267 H 0.66834 0.4923 0.07514 0.0
H268 H 0.63493 0.64179 0.9859 0.0
H269 H 0.67322 0.59662 1.00398 0.0
H270 H 0.37919 0.5673 0.93465 0.0
H271 H 0.68613 0.54099 0.03792 0.0
H272 H 0.40814 0.39295 0.06913 0.0
N273 N 0.43411 0.51183 0.98118 0.0
C274 C 0.41417 0.48953 0.9953 0.0
C275 C 0.38872 0.54539 0.9519 0.0
C276 C 0.38054 0.49444 0.98847 0.0
C277 C 0.42194 0.53939 0.95935 0.0
C278 C 0.36792 0.52284 0.96656 0.0
N279 N 0.46034 0.45902 0.02505 0.0
C280 C 0.47466 0.4322 0.04663 0.0
C281 C 0.40789 0.43856 0.03337 0.0
C282 C 0.42766 0.46199 0.01749 0.0
C283 C 0.42249 0.41148 0.05634 0.0
C284 C 0.45599 0.40824 0.06284 0.0
H285 H 0.3422 0.52755 0.96073 0.0
H286 H 0.33477 0.47438 0.99906 0.0
H287 H 0.35872 0.42546 0.03835 0.0
O288 O 0.50553 0.46734 0.96535 0.0
O289 O 0.47105 0.5006 0.04987 0.0
O290 O 0.51534 0.50095 0.09699 0.0
O291 O 0.46605 0.49889 0.93935 0.0
O292 O 0.53213 0.47247 0.02146 0.0
O293 O 0.54985 0.48438 0.0817 0.0
O294 O 0.54452 0.56511 0.11585 0.0
O295 O 0.56336 0.52535 0.02246 0.0
O296 O 0.51931 0.53777 0.97721 0.0
O297 O 0.57932 0.52723 0.12696 0.0
O298 O 0.49974 0.55745 0.05592 0.0
O299 O 0.48942 0.55085 0.9936 0.0
C300 C 0.48475 0.49573 0.08551 0.0
C301 C 0.4661 0.44864 0.92036 0.0
C302 C 0.44306 0.42379 0.86615 0.0
C303 C 0.43217 0.39891 0.8911 0.0
C304 C 0.45558 0.42315 0.94449 0.0
C305 C 0.43852 0.39862 0.92991 0.0
C306 C 0.45981 0.44887 0.88114 0.0
C307 C 0.54958 0.46628 0.05542 0.0
C308 C 0.48356 0.47501 0.93576 0.0
C309 C 0.36068 0.47105 1.00398 0.0
C310 C 0.37432 0.44317 0.02633 0.0
C311 C 0.55059 0.53674 0.98772 0.0
C312 C 0.59202 0.57135 0.1581 0.0
C313 C 0.61185 0.59712 0.21262 0.0
C314 C 0.63749 0.60934 0.19449 0.0
C315 C 0.6178 0.5838 0.14066 0.0
C316 C 0.58909 0.57814 0.19402 0.0
C317 C 0.64035 0.60271 0.15877 0.0
C318 C 0.48377 0.56513 0.02144 0.0
C319 C 0.56822 0.55091 0.13971 0.0
H320 H 0.41849 0.37969 0.88063 0.0
H321 H 0.46063 0.422 0.9746 0.0
H322 H 0.43022 0.37925 0.94881 0.0
H323 H 0.46842 0.46827 0.86248 0.0
H324 H 0.65512 0.62439 0.2077 0.0
H325 H 0.62065 0.57883 0.11323 0.0
H326 H 0.56937 0.56819 0.20768 0.0
H327 H 0.66013 0.61229 0.14506 0.0
H328 H 0.1841 0.16949 0.43618 0.0
H329 H 0.21333 0.20484 0.54186 0.0
H330 H 0.17722 0.16725 0.57228 0.0
H331 H 0.10173 0.15711 0.44518 0.0
H332 H 0.09861 0.12088 0.4254 0.0
H333 H 0.12709 0.15033 0.41153 0.0
H334 H 0.17334 0.10841 0.43145 0.0
H335 H 0.14495 0.0788 0.44529 0.0
H336 H 0.17948 0.08642 0.47863 0.0
H337 H 0.13615 0.12795 0.59082 0.0
H338 H 0.09442 0.08743 0.59694 0.0
H339 H 0.09366 0.0748 0.48074 0.0
C340 C 0.18327 0.16909 0.46584 0.0
C341 C 0.20142 0.19059 0.48638 0.0
C342 C 0.19921 0.1893 0.52511 0.0
C343 C 0.17893 0.16779 0.54282 0.0
C344 C 0.16116 0.14731 0.52168 0.0
C345 C 0.16328 0.14751 0.48414 0.0
C346 C 0.14135 0.12296 0.46795 0.0
C347 C 0.11568 0.13877 0.4356 0.0
C348 C 0.16096 0.09764 0.45507 0.0
C349 C 0.12642 0.10921 0.50218 0.0
C350 C 0.13814 0.12374 0.5328 0.0
C351 C 0.12702 0.11617 0.56715 0.0
C352 C 0.10324 0.0932 0.57032 0.0
C353 C 0.09098 0.0778 0.53943 0.0
C354 C 0.10297 0.0858 0.50502 0.0
H355 H 0.35388 0.68796 0.05906 0.0
H356 H 0.3546 0.73533 0.94449 0.0
H357 H 0.39519 0.69674 0.93658 0.0
H358 H 0.43912 0.66886 0.08112 0.0
H359 H 0.43392 0.63065 0.10836 0.0
H360 H 0.40498 0.66216 0.10551 0.0
H361 H 0.35916 0.62614 0.08107 0.0
H362 H 0.38802 0.59455 0.0839 0.0
H363 H 0.36206 0.60822 0.04001 0.0
H364 H 0.43467 0.65279 0.9401 0.0
H365 H 0.47172 0.6064 0.95556 0.0
H366 H 0.44632 0.58694 0.06785 0.0
C367 C 0.36255 0.69014 0.03231 0.0
C368 C 0.35121 0.71492 1.00251 0.0
C369 C 0.36331 0.717 0.96799 0.0
C370 C 0.38624 0.69504 0.9631 0.0
C371 C 0.39696 0.67105 0.99298 0.0
C372 C 0.38565 0.66843 0.02697 0.0
C373 C 0.40138 0.64029 0.05447 0.0
C374 C 0.42101 0.65115 0.08943 0.0
C375 C 0.37614 0.61586 0.0655 0.0
C376 C 0.42314 0.62754 0.03053 0.0
C377 C 0.42007 0.64563 0.99511 0.0
C378 C 0.43728 0.63842 0.96773 0.0
C379 C 0.45813 0.61196 0.9767 0.0
C380 C 0.46166 0.59301 1.01276 0.0
C381 C 0.4441 0.6011 0.04009 0.0
H382 H 0.8391 0.84785 0.5392 0.0
H383 H 0.85365 0.82534 0.66142 0.0
H384 H 0.89825 0.86301 0.66509 0.0
H385 H 0.92248 0.85725 0.52909 0.0
H386 H 0.91536 0.89033 0.4912 0.0
H387 H 0.88473 0.86112 0.49733 0.0
H388 H 0.84366 0.90489 0.50118 0.0
H389 H 0.87389 0.93438 0.49436 0.0
H390 H 0.85373 0.93157 0.53489 0.0
H391 H 0.94025 0.90396 0.65595 0.0
H392 H 0.97658 0.94613 0.63452 0.0
H393 H 0.93474 0.94324 0.51828 0.0
C394 C 0.85146 0.85096 0.56679 0.0
C395 C 0.8428 0.83335 0.60005 0.0
C396 C 0.86004 0.838 0.63549 0.0
C397 C 0.88535 0.85952 0.63789 0.0
C398 C 0.89323 0.87635 0.60463 0.0
C399 C 0.87678 0.87244 0.56973 0.0
C400 C 0.88982 0.89397 0.53837 0.0
C401 C 0.90393 0.8745 0.51247 0.0
C402 C 0.86372 0.9176 0.51588 0.0
C403 C 0.91603 0.91068 0.56114 0.0
C404 C 0.91759 0.90006 0.59931 0.0
C405 C 0.93932 0.91237 0.62614 0.0
C406 C 0.95981 0.93635 0.6137 0.0
C407 C 0.95861 0.94773 0.57478 0.0
C408 C 0.93649 0.9346 0.54817 0.0
H409 H 0.66527 0.33922 1.00251 0.0
H410 H 0.689 0.30232 0.12198 0.0
H411 H 0.65213 0.34195 0.13591 0.0
H412 H 0.65884 0.42079 1.01132 0.0
H413 H 0.62527 0.42925 0.9736 0.0
H414 H 0.65371 0.39809 0.97306 0.0
H415 H 0.60723 0.35803 0.96788 0.0
H416 H 0.57866 0.38911 0.96837 0.0
H417 H 0.5806 0.35342 1.00254 0.0
H418 H 0.61359 0.38711 0.13691 0.0
H419 H 0.57513 0.4326 0.12433 0.0
H420 H 0.57473 0.43754 1.00422 0.0
C421 C 0.66247 0.33907 0.03161 0.0
C422 C 0.68029 0.31756 0.06112 0.0
C423 C 0.67615 0.3188 0.09884 0.0
C424 C 0.65505 0.34112 0.10705 0.0
C425 C 0.63801 0.36197 0.07728 0.0
C426 C 0.64135 0.361 0.04029 0.0
C427 C 0.62027 0.38601 1.01342 0.0
C428 C 0.64075 0.40994 0.99157 0.0
C429 C 0.5952 0.37072 0.98647 0.0
C430 C 0.60454 0.40119 0.04105 0.0
C431 C 0.61521 0.38719 0.07779 0.0
C432 C 0.60487 0.39806 0.10821 0.0
C433 C 0.58308 0.42391 0.10083 0.0
C434 C 0.57167 0.43837 0.06332 0.0
C435 C 0.58254 0.42665 0.03318 0.0
H436 H 0.13371 0.90932 0.19235 0.0
H437 H 0.17897 0.82647 0.26625 0.0
H438 H 0.15522 0.84144 0.31884 0.0
H439 H 0.14337 0.96208 0.26106 0.0
H440 H 0.10487 0.98175 0.24427 0.0
H441 H 0.12559 0.96477 0.21219 0.0
H442 H 0.07564 0.9313 0.19406 0.0
H443 H 0.05475 0.94822 0.22603 0.0
H444 H 0.05922 0.90579 0.23054 0.0
H445 H 0.12658 0.86505 0.36358 0.0
H446 H 0.09417 0.89538 0.39717 0.0
H447 H 0.06707 0.96294 0.29465 0.0
C448 C 0.13843 0.89418 0.2195 0.0
C449 C 0.15849 0.8668 0.2251 0.0
C450 C 0.16424 0.84786 0.26129 0.0
C451 C 0.15067 0.85605 0.29135 0.0
C452 C 0.13126 0.88323 0.28493 0.0
C453 C 0.12504 0.902 0.24992 0.0
C454 C 0.10321 0.92994 0.25069 0.0
C455 C 0.12029 0.9615 0.24152 0.0
C456 C 0.07132 0.92873 0.22373 0.0
C457 C 0.09812 0.92386 0.29156 0.0
C458 C 0.11458 0.89683 0.31079 0.0
C459 C 0.11365 0.88633 0.34885 0.0
C460 C 0.09533 0.90387 0.36777 0.0
C461 C 0.07811 0.93167 0.34871 0.0
C462 C 0.07966 0.94168 0.31002 0.0
H463 H 0.60826 0.64883 0.8135 0.0
H464 H 0.69368 0.5885 0.83214 0.0
H465 H 0.67405 0.55591 0.88597 0.0
H466 H 0.60166 0.6462 0.91287 0.0
H467 H 0.55833 0.6454 0.90481 0.0
H468 H 0.57945 0.66487 0.86843 0.0
H469 H 0.55048 0.62991 0.82172 0.0
H470 H 0.52926 0.61036 0.85792 0.0
H471 H 0.55293 0.58734 0.83428 0.0
H472 H 0.64555 0.53003 0.93824 0.0
H473 H 0.60871 0.5113 0.98341 0.0
H474 H 0.54089 0.58709 0.93005 0.0
C475 C 0.62294 0.62891 0.82911 0.0
C476 C 0.65251 0.62117 0.81846 0.0
C477 C 0.67079 0.59467 0.8394 0.0
C478 C 0.65995 0.57613 0.87021 0.0
C479 C 0.63067 0.58427 0.8798 0.0
C480 C 0.61234 0.60996 0.85986 0.0
C481 C 0.58132 0.61299 0.87552 0.0
C482 C 0.58013 0.64422 0.89133 0.0
C483 C 0.55175 0.60996 0.84557 0.0
C484 C 0.58487 0.58471 0.9069 0.0
C485 C 0.61375 0.56875 0.90924 0.0
C486 C 0.62281 0.54226 0.93653 0.0
C487 C 0.60178 0.5318 0.96204 0.0
C488 C 0.57195 0.54761 0.9599 0.0
C489 C 0.56337 0.57431 0.93187 0.0
H490 H 0.87585 0.08031 0.2899 0.0
H491 H 0.94377 0.15364 0.26142 0.0
H492 H 0.97969 0.1348 0.32115 0.0
H493 H 0.88464 0.08494 0.38652 0.0
H494 H 0.88254 0.04301 0.40305 0.0
H495 H 0.86242 0.05974 0.35675 0.0
H496 H 0.89252 0.02144 0.32625 0.0
H497 H 0.91331 1.00346 0.37179 0.0
H498 H 0.93583 0.01943 0.33507 0.0
H499 H 1.00594 0.1114 0.38573 0.0
H500 H 0.02272 0.08245 0.45015 0.0
H501 H 0.93941 0.02259 0.43676 0.0
C502 C 0.8984 0.09222 0.29616 0.0
C503 C 0.9071 0.11836 0.27087 0.0
C504 C 0.93684 0.13329 0.28004 0.0
C505 C 0.95733 0.12287 0.31399 0.0
C506 C 0.94793 0.09727 0.33839 0.0
C507 C 0.91936 0.0819 0.32983 0.0
C508 C 0.91482 0.05531 0.36144 0.0
C509 C 0.88431 0.06109 0.37794 0.0
C510 C 0.91409 0.02298 0.34784 0.0
C511 C 0.94505 0.05854 0.38935 0.0
C512 C 0.96372 0.08299 0.37542 0.0
C513 C 0.99183 0.09187 0.3967 0.0
C514 C 1.00113 0.07537 0.4332 0.0
C515 C 0.98258 0.05008 0.44789 0.0
C516 C 0.95433 0.04138 0.42564 0.0
H517 H 0.40621 0.339 0.68497 0.0
H518 H 0.37469 0.4304 0.61947 0.0
H519 H 0.39328 0.45617 0.67517 0.0
H520 H 0.37943 0.35152 0.76761 0.0
H521 H 0.41258 0.33059 0.79912 0.0
H522 H 0.40037 0.32007 0.75306 0.0
H523 H 0.45831 0.32919 0.73826 0.0
H524 H 0.47076 0.33962 0.78441 0.0
H525 H 0.47709 0.36672 0.74305 0.0
H526 H 0.41055 0.47106 0.7404 0.0
H527 H 0.42529 0.47357 0.80846 0.0
H528 H 0.44579 0.37232 0.83018 0.0
C529 C 0.40344 0.36449 0.68216 0.0
C530 C 0.38896 0.38266 0.64779 0.0
C531 C 0.38608 0.416 0.64533 0.0
C532 C 0.39645 0.43084 0.67689 0.0
C533 C 0.40989 0.41205 0.71061 0.0
C534 C 0.41361 0.37961 0.71327 0.0
C535 C 0.42701 0.36441 0.75309 0.0
C536 C 0.40344 0.34023 0.76915 0.0
C537 C 0.46027 0.34909 0.75479 0.0
C538 C 0.42954 0.39323 0.7727 0.0
C539 C 0.41983 0.42057 0.7478 0.0
C540 C 0.41862 0.44984 0.76003 0.0
C541 C 0.42718 0.45106 0.79875 0.0
C542 C 0.43667 0.42316 0.8248 0.0
C543 C 0.43834 0.39407 0.81119 0.0
H544 H 0.67583 0.62877 0.42239 0.0
H545 H 0.57725 0.65177 0.43099 0.0
H546 H 0.55949 0.64045 0.36647 0.0
H547 H 0.67253 0.66284 0.32551 0.0
H548 H 0.69748 0.63239 0.31491 0.0
H549 H 0.70234 0.64187 0.36196 0.0
H550 H 0.69326 0.5831 0.38839 0.0
H551 H 0.6884 0.57342 0.34141 0.0
H552 H 0.65729 0.56387 0.36997 0.0
H553 H 0.55247 0.62657 0.30076 0.0
H554 H 0.55705 0.61282 0.23828 0.0
H555 H 0.66008 0.59821 0.27301 0.0
C556 C 0.65046 0.63117 0.41085 0.0
C557 C 0.62795 0.64123 0.4318 0.0
C558 C 0.59502 0.6445 0.41536 0.0
C559 C 0.58466 0.63792 0.37881 0.0
C560 C 0.60749 0.62809 0.35896 0.0
C561 C 0.63971 0.62478 0.37437 0.0
C562 C 0.65943 0.61434 0.34687 0.0
C563 C 0.68441 0.63936 0.33672 0.0
C564 C 0.67554 0.58174 0.36261 0.0
C565 C 0.63329 0.61241 0.31355 0.0
C566 C 0.60347 0.62027 0.32113 0.0
C567 C 0.57569 0.62028 0.29455 0.0
C568 C 0.5785 0.61226 0.25921 0.0
C569 C 0.6089 0.60443 0.25066 0.0
C570 C 0.63654 0.60441 0.27845 0.0
H571 H 0.93441 0.13525 0.90836 0.0
H572 H 0.83399 0.12853 0.85984 0.0
H573 H 0.85054 0.11271 0.80305 0.0
H574 H 0.96288 0.16725 0.82049 0.0
H575 H 1.00041 0.1452 0.83346 0.0
H576 H 0.98046 0.15719 0.86944 0.0
H577 H 0.98071 0.09874 0.90227 0.0
H578 H 1.00049 0.08656 0.86631 0.0
H579 H 0.96302 0.06889 0.87583 0.0
H580 H 0.87845 0.0955 0.75239 0.0
H581 H 0.91523 0.07814 0.71257 0.0
H582 H 0.99715 0.0981 0.79368 0.0
C583 C 0.91582 0.13106 0.88555 0.0
C584 C 0.88284 0.13324 0.88864 0.0
C585 C 0.8594 0.12675 0.85837 0.0
C586 C 0.86857 0.11793 0.82588 0.0
C587 C 0.90129 0.11578 0.82396 0.0
C588 C 0.92454 0.12228 0.85297 0.0
C589 C 0.95808 0.11734 0.8445 0.0
C590 C 0.97654 0.14861 0.8418 0.0
C591 C 0.97666 0.09133 0.87398 0.0
C592 C 0.95012 0.10668 0.80639 0.0
C593 C 0.91726 0.10605 0.79488 0.0
C594 C 0.90423 0.09619 0.76099 0.0
C595 C 0.92535 0.08653 0.73844 0.0
C596 C 0.95917 0.08673 0.74985 0.0
C597 C 0.97149 0.09728 0.78421 0.0
H598 H 0.44627 0.40573 0.2838 0.0
H599 H 0.34491 0.41913 0.23686 0.0
H600 H 0.35949 0.44586 0.17684 0.0
H601 H 0.47293 0.47934 0.24067 0.0
H602 H 0.51006 0.46381 0.23136 0.0
H603 H 0.49197 0.44464 0.27048 0.0
H604 H 0.4914 0.39146 0.24457 0.0
H605 H 0.50979 0.41043 0.20554 0.0
H606 H 0.47242 0.38994 0.19686 0.0
H607 H 0.38476 0.4731 0.12282 0.0
H608 H 0.41906 0.49725 0.07753 0.0
H609 H 0.50433 0.46462 0.15802 0.0
C610 C 0.42711 0.4138 0.26073 0.0
C611 C 0.39437 0.41042 0.26529 0.0
C612 C 0.37013 0.42183 0.23442 0.0
C613 C 0.37817 0.43691 0.20008 0.0
C614 C 0.41059 0.44029 0.1968 0.0
C615 C 0.43471 0.42886 0.22613 0.0
C616 C 0.46769 0.43596 0.21522 0.0
C617 C 0.48677 0.4572 0.24097 0.0
C618 C 0.48643 0.40511 0.21557 0.0
C619 C 0.4583 0.45355 0.17538 0.0
C620 C 0.42522 0.45568 0.16534 0.0
C621 C 0.41069 0.47128 0.13025 0.0
C622 C 0.43044 0.48481 0.10461 0.0
C623 C 0.46444 0.48248 0.1139 0.0
C624 C 0.47845 0.46682 0.14998 0.0
H625 H 0.07955 0.90946 0.82587 0.0
H626 H 0.18058 0.93131 0.82704 0.0
H627 H 0.16862 0.95593 0.76022 0.0
H628 H 0.0644 0.89189 0.72897 0.0
H629 H 0.02445 0.90924 0.71957 0.0
H630 H 0.04142 0.89161 0.76685 0.0
H631 H 0.03001 0.94372 0.78936 0.0
H632 H 1.01509 0.9634 0.74231 0.0
H633 H 0.0482 0.97973 0.77072 0.0
H634 H 0.1457 0.97967 0.694 0.0
H635 H 0.11314 1.00053 0.63248 0.0
H636 H 0.02693 0.96387 0.67391 0.0
C637 C 0.09916 0.91939 0.81204 0.0
C638 C 0.13106 0.91832 0.83172 0.0
C639 C 0.15605 0.93139 0.81247 0.0
C640 C 0.14948 0.94558 0.77455 0.0
C641 C 0.11779 0.94641 0.75611 0.0
C642 C 0.09304 0.93348 0.77406 0.0
C643 C 0.06104 0.93792 0.7478 0.0
C644 C 0.04701 0.90575 0.74037 0.0
C645 C 0.03716 0.95737 0.76343 0.0
C646 C 0.07159 0.95615 0.71266 0.0
C647 C 0.10449 0.96042 0.71794 0.0
C648 C 0.11996 0.97624 0.68945 0.0
C649 C 0.10135 0.98776 0.65451 0.0
C650 C 0.06771 0.98329 0.6483 0.0
C651 C 0.05264 0.96757 0.67792 0.0
loop_
_geom_bond_atom_site_label_1
_geom_bond_atom_site_label_2
_geom_bond_distance
_geom_bond_site_symmetry_2
_ccdc_geom_bond_type
C0 C1 1.264 . S
C0 C5 1.479 . S
C0 C10 1.465 . S
C1 C0 1.264 . S
C1 C3 1.339 . S
C1 H28 0.931 . S
C2 C3 1.395 . S
C2 C4 1.320 . S
C3 C1 1.339 . S
C3 C2 1.395 . S
C3 H29 0.929 . S
C4 C2 1.320 . S
C4 C5 1.405 . S
C4 H30 0.930 . S
C5 C0 1.479 . S
C5 C4 1.405 . S
C5 H31 0.931 . S
U6 O7 2.454 . S
U6 O8 2.450 1_554 S
U6 C9 2.984 . S
U6 C10 2.847 . S
U6 C23 2.882 1_554 S
U6 O24 2.441 . S
U6 O25 2.420 . S
U6 O26 2.455 1_554 S
U6 O27 2.449 1_554 S
O7 U6 2.454 . S
O7 C9 1.353 . S
O8 U6 2.450 1_556 S
O8 C9 1.276 1_556 S
C9 U6 2.984 . S
C9 O7 1.353 . S
C9 O8 1.276 1_554 S
C9 C11 1.363 . S
C10 C0 1.465 . S
C10 U6 2.847 . S
C10 O24 1.249 . S
C10 O25 1.202 . S
C11 C9 1.363 . S
C11 C13 1.408 . S
C11 C16 1.342 . S
C12 C13 1.310 . S
C12 C15 1.461 . S
C12 H32 0.932 . S
C13 C11 1.408 . S
C13 C12 1.310 . S
C13 H33 0.930 . S
C14 C15 1.474 . S
C14 C16 1.285 . S
C14 H34 0.929 1_554 S
C15 C12 1.461 . S
C15 C14 1.474 . S
C16 C11 1.342 . S
C16 C14 1.285 . S
C16 H35 0.930 1_554 S
C17 C20 1.424 . S
C17 C22 1.245 . S
C17 C23 1.428 . S
C18 C21 1.260 . S
C18 C22 1.477 . S
C18 H36 0.932 . S
C19 C20 1.384 . S
C19 C21 1.479 . S
C19 H37 0.929 . S
C20 C17 1.424 . S
C20 C19 1.384 . S
C20 H38 0.928 . S
C21 C18 1.260 . S
C21 C19 1.479 . S
C22 C17 1.245 . S
C22 C18 1.477 . S
C22 H39 0.932 . S
C23 U6 2.882 1_556 S
C23 C17 1.428 . S
C23 O26 1.301 . S
C23 O27 1.282 . S
O24 U6 2.441 . S
O24 C10 1.249 . S
O25 U6 2.420 . S
O25 C10 1.202 . S
O26 U6 2.455 1_556 S
O26 C23 1.301 . S
O27 U6 2.449 1_556 S
O27 C23 1.282 . S
H28 C1 0.931 . S
H29 C3 0.929 . S
H30 C4 0.930 . S
H31 C5 0.931 . S
H32 C12 0.932 . S
H33 C13 0.930 . S
H34 C14 0.929 1_556 S
H35 C16 0.930 1_556 S
H36 C18 0.932 . S
H37 C19 0.929 . S
H38 C20 0.928 . S
H39 C22 0.932 . S
C40 C41 1.264 . S
C40 C45 1.479 . S
C40 C50 1.465 . S
C41 C40 1.264 . S
C41 C43 1.339 . S
C41 H68 0.931 . S
C42 C43 1.395 . S
C42 C44 1.320 . S
C43 C41 1.339 . S
C43 C42 1.395 . S
C43 H69 0.929 . S
C44 C42 1.320 . S
C44 C45 1.405 . S
C44 H70 0.930 . S
C45 C40 1.479 . S
C45 C44 1.405 . S
C45 H71 0.931 . S
U46 O47 2.454 . S
U46 O48 2.458 . S
U46 C49 2.984 . S
U46 C50 2.847 . S
U46 C63 2.882 . S
U46 O64 2.441 . S
U46 O65 2.420 . S
U46 O66 2.455 . S
U46 O67 2.449 . S
O47 U46 2.454 . S
O47 C49 1.353 . S
O48 U46 2.458 . S
O48 C49 1.286 . S
C49 U46 2.984 . S
C49 O47 1.353 . S
C49 O48 1.286 . S
C49 C51 1.363 . S
C50 C40 1.465 . S
C50 U46 2.847 . S
C50 O64 1.249 . S
C50 O65 1.202 . S
C51 C49 1.363 . S
C51 C53 1.408 . S
C51 C56 1.342 . S
C52 C53 1.310 . S
C52 C55 1.461 . S
C52 H72 0.932 . S
C53 C51 1.408 . S
C53 C52 1.310 . S
C53 H73 0.930 . S
C54 C55 1.474 . S
C54 C56 1.285 . S
C54 H74 0.929 . S
C55 C52 1.461 . S
C55 C54 1.474 . S
C56 C51 1.342 . S
C56 C54 1.285 . S
C56 H75 0.930 . S
C57 C60 1.424 . S
C57 C62 1.245 . S
C57 C63 1.428 . S
C58 C61 1.260 . S
C58 C62 1.477 . S
C58 H76 0.932 . S
C59 C60 1.384 . S
C59 C61 1.479 . S
C59 H77 0.929 . S
C60 C57 1.424 . S
C60 C59 1.384 . S
C60 H78 0.928 . S
C61 C58 1.260 . S
C61 C59 1.479 . S
C62 C57 1.245 . S
C62 C58 1.477 . S
C62 H79 0.932 . S
C63 U46 2.882 . S
C63 C57 1.428 . S
C63 O66 1.301 . S
C63 O67 1.282 . S
O64 U46 2.441 . S
O64 C50 1.249 . S
O65 U46 2.420 . S
O65 C50 1.202 . S
O66 U46 2.455 . S
O66 C63 1.301 . S
O67 U46 2.449 . S
O67 C63 1.282 . S
H68 C41 0.931 . S
H69 C43 0.929 . S
H70 C44 0.930 . S
H71 C45 0.931 . S
H72 C52 0.932 . S
H73 C53 0.930 . S
H74 C54 0.929 . S
H75 C56 0.930 . S
H76 C58 0.932 . S
H77 C59 0.929 . S
H78 C60 0.928 . S
H79 C62 0.932 . S
C80 C81 1.264 . S
C80 C85 1.479 . S
C80 C90 1.465 . S
C81 C80 1.264 . S
C81 C83 1.339 . S
C81 H108 0.931 . S
C82 C83 1.395 . S
C82 C84 1.320 . S
C83 C81 1.339 . S
C83 C82 1.395 . S
C83 H109 0.929 . S
C84 C82 1.320 . S
C84 C85 1.405 . S
C84 H110 0.930 . S
C85 C80 1.479 . S
C85 C84 1.405 . S
C85 H111 0.931 . S
U86 O87 2.454 . S
U86 O88 2.458 . S
U86 C89 2.984 . S
U86 C90 2.847 . S
U86 C103 2.882 1_554 S
U86 O104 2.441 . S
U86 O105 2.420 . S
U86 O106 2.455 1_554 S
U86 O107 2.449 . S
O87 U86 2.454 . S
O87 C89 1.353 . S
O88 U86 2.458 . S
O88 C89 1.286 . S
C89 U86 2.984 . S
C89 O87 1.353 . S
C89 O88 1.286 . S
C89 C91 1.363 . S
C90 C80 1.465 . S
C90 U86 2.847 . S
C90 O104 1.249 . S
C90 O105 1.202 . S
C91 C89 1.363 . S
C91 C93 1.408 . S
C91 C96 1.342 1_554 S
C92 C93 1.310 . S
C92 C95 1.461 . S
C92 H112 0.932 . S
C93 C91 1.408 . S
C93 C92 1.310 . S
C93 H113 0.930 . S
C94 C95 1.474 1_556 S
C94 C96 1.285 . S
C94 H114 0.929 . S
C95 C92 1.461 . S
C95 C94 1.474 1_554 S
C96 C91 1.342 1_556 S
C96 C94 1.285 . S
C96 H115 0.930 . S
C97 C100 1.424 . S
C97 C102 1.245 . S
C97 C103 1.428 . S
C98 C101 1.260 . S
C98 C102 1.477 . S
C98 H116 0.932 . S
C99 C100 1.384 . S
C99 C101 1.479 . S
C99 H117 0.929 . S
C100 C97 1.424 . S
C100 C99 1.384 . S
C100 H118 0.928 . S
C101 C98 1.260 . S
C101 C99 1.479 . S
C102 C97 1.245 . S
C102 C98 1.477 . S
C102 H119 0.932 . S
C103 U86 2.882 1_556 S
C103 C97 1.428 . S
C103 O106 1.301 . S
C103 O107 1.282 1_556 S
O104 U86 2.441 . S
O104 C90 1.249 . S
O105 U86 2.420 . S
O105 C90 1.202 . S
O106 U86 2.455 1_556 S
O106 C103 1.301 . S
O107 U86 2.449 . S
O107 C103 1.282 1_554 S
H108 C81 0.931 . S
H109 C83 0.929 . S
H110 C84 0.930 . S
H111 C85 0.931 . S
H112 C92 0.932 . S
H113 C93 0.930 . S
H114 C94 0.929 . S
H115 C96 0.930 . S
H116 C98 0.932 . S
H117 C99 0.929 . S
H118 C100 0.928 . S
H119 C102 0.932 . S
C120 C121 1.264 . S
C120 C125 1.479 . S
C120 C130 1.465 . S
C121 C120 1.264 . S
C121 C123 1.339 . S
C121 H148 0.931 . S
C122 C123 1.395 . S
C122 C124 1.320 . S
C123 C121 1.339 . S
C123 C122 1.395 . S
C123 H149 0.929 . S
C124 C122 1.320 . S
C124 C125 1.405 . S
C124 H150 0.930 . S
C125 C120 1.479 . S
C125 C124 1.405 . S
C125 H151 0.931 . S
U126 O127 2.454 . S
U126 O128 2.458 . S
U126 C129 2.984 . S
U126 C130 2.847 . S
U126 C143 2.882 . S
U126 O144 2.441 . S
U126 O145 2.420 . S
U126 O146 2.455 . S
U126 O147 2.449 . S
O127 U126 2.454 . S
O127 C129 1.353 . S
O128 U126 2.458 . S
O128 C129 1.286 . S
C129 U126 2.984 . S
C129 O127 1.353 . S
C129 O128 1.286 . S
C129 C131 1.363 . S
C130 C120 1.465 . S
C130 U126 2.847 . S
C130 O144 1.249 . S
C130 O145 1.202 . S
C131 C129 1.363 . S
C131 C133 1.408 . S
C131 C136 1.342 . S
C132 C133 1.310 . S
C132 C135 1.461 . S
C132 H152 0.932 . S
C133 C131 1.408 . S
C133 C132 1.310 . S
C133 H153 0.930 . S
C134 C135 1.474 . S
C134 C136 1.285 . S
C134 H154 0.929 . S
C135 C132 1.461 . S
C135 C134 1.474 . S
C136 C131 1.342 . S
C136 C134 1.285 . S
C136 H155 0.930 . S
C137 C140 1.424 . S
C137 C142 1.245 . S
C137 C143 1.428 . S
C138 C141 1.260 . S
C138 C142 1.477 . S
C138 H156 0.932 . S
C139 C140 1.384 . S
C139 C141 1.479 . S
C139 H157 0.929 . S
C140 C137 1.424 . S
C140 C139 1.384 . S
C140 H158 0.928 . S
C141 C138 1.260 . S
C141 C139 1.479 . S
C142 C137 1.245 . S
C142 C138 1.477 . S
C142 H159 0.932 . S
C143 U126 2.882 . S
C143 C137 1.428 . S
C143 O146 1.301 . S
C143 O147 1.282 . S
O144 U126 2.441 . S
O144 C130 1.249 . S
O145 U126 2.420 . S
O145 C130 1.202 . S
O146 U126 2.455 . S
O146 C143 1.301 . S
O147 U126 2.449 . S
O147 C143 1.282 . S
H148 C121 0.931 . S
H149 C123 0.929 . S
H150 C124 0.930 . S
H151 C125 0.931 . S
H152 C132 0.932 . S
H153 C133 0.930 . S
H154 C134 0.929 . S
H155 C136 0.930 . S
H156 C138 0.932 . S
H157 C139 0.929 . S
H158 C140 0.928 . S
H159 C142 0.932 . S
Tb160 N189 2.617 . S
Tb160 N195 2.572 . S
Tb160 O204 2.465 . S
Tb160 O205 2.387 . S
Tb160 O207 2.428 . S
Tb160 O208 2.308 1_565 S
Tb160 O212 2.363 1_455 S
Tb160 O215 2.393 1_455 S
Tb160 C224 2.802 . S
C161 N162 1.379 . S
C161 C164 1.416 . S
C161 C168 1.424 . S
N162 C161 1.379 . S
N162 C165 1.334 1_655 S
N162 Tb171 2.617 . S
C163 C165 1.390 1_655 S
C163 C166 1.369 . S
C163 H183 0.900 1_655 S
C164 C161 1.416 . S
C164 C166 1.416 . S
C164 C170 1.448 . S
C165 N162 1.334 1_455 S
C165 C163 1.390 1_455 S
C165 H176 0.930 . S
C166 C163 1.369 . S
C166 C164 1.416 . S
C166 H187 0.930 . S
C167 C168 1.413 . S
C167 C169 1.427 . S
C167 C173 1.416 . S
C168 C161 1.424 . S
C168 C167 1.413 . S
C168 N172 1.361 . S
C169 C167 1.427 . S
C169 C170 1.328 . S
C169 H184 0.929 . S
C170 C164 1.448 . S
C170 C169 1.328 . S
C170 H185 0.930 . S
Tb171 N162 2.617 . S
Tb171 N172 2.572 . S
Tb171 O206 2.349 1_655 S
Tb171 O209 2.393 1_655 S
Tb171 O210 2.465 . S
Tb171 O211 2.387 . S
Tb171 O213 2.428 . S
Tb171 O214 2.308 1_545 S
Tb171 C235 2.802 . S
N172 C168 1.361 . S
N172 Tb171 2.572 . S
N172 C174 1.340 . S
C173 C167 1.416 . S
C173 C175 1.332 . S
C173 H181 0.931 . S
C174 N172 1.340 . S
C174 C175 1.407 . S
C174 H180 0.930 . S
C175 C173 1.332 . S
C175 C174 1.407 . S
C175 H177 0.929 . S
H176 C165 0.930 . S
H177 C175 0.929 . S
H178 C193 0.930 1_655 S
H179 C200 0.929 . S
H180 C174 0.930 . S
H181 C173 0.931 . S
H182 C196 0.930 . S
H183 C163 0.900 1_455 S
H184 C169 0.929 . S
H185 C170 0.930 . S
H186 C191 0.930 1_655 S
H187 C166 0.930 . S
H188 C199 0.931 . S
N189 Tb160 2.617 . S
N189 C190 1.379 . S
N189 C193 1.334 . S
C190 N189 1.379 . S
C190 C192 1.416 . S
C190 C198 1.424 . S
C191 H186 0.930 1_455 S
C191 C193 1.390 . S
C191 C194 1.339 . S
C192 C190 1.416 . S
C192 C194 1.416 . S
C192 C225 1.448 . S
C193 H178 0.930 1_455 S
C193 N189 1.334 . S
C193 C191 1.390 . S
C194 C191 1.339 . S
C194 C192 1.416 . S
C194 H201 0.930 . S
N195 Tb160 2.572 . S
N195 C196 1.340 . S
N195 C198 1.361 . S
C196 H182 0.930 . S
C196 N195 1.340 . S
C196 C200 1.407 . S
C197 C198 1.413 . S
C197 C199 1.416 . S
C197 C226 1.427 . S
C198 C190 1.424 . S
C198 N195 1.361 . S
C198 C197 1.413 . S
C199 H188 0.931 . S
C199 C197 1.416 . S
C199 C200 1.332 . S
C200 H179 0.929 . S
C200 C196 1.407 . S
C200 C199 1.332 . S
H201 C194 0.930 . S
H202 C225 0.930 . S
H203 C226 0.929 . S
O204 Tb160 2.465 . S
O204 C224 1.264 . S
O205 Tb160 2.387 . S
O205 C216 1.264 . S
O206 Tb171 2.349 1_455 S
O206 C216 1.243 1_545 S
O207 Tb160 2.428 . S
O207 C224 1.256 . S
O208 Tb160 2.308 1_545 S
O208 C223 1.266 . S
O209 Tb171 2.393 1_455 S
O209 C223 1.248 . S
O210 Tb171 2.465 . S
O210 C235 1.264 . S
O211 Tb171 2.387 . S
O211 C227 1.264 . S
O212 Tb160 2.363 1_655 S
O212 C227 1.222 1_565 S
O213 Tb171 2.428 . S
O213 C235 1.256 . S
O214 Tb171 2.308 1_565 S
O214 C234 1.266 . S
O215 Tb160 2.393 1_655 S
O215 C234 1.248 . S
C216 O205 1.264 . S
C216 O206 1.243 1_565 S
C217 C220 1.399 . S
C217 C222 1.383 . S
C217 C224 1.496 . S
C218 C219 1.399 . S
C218 C222 1.389 . S
C219 C218 1.399 . S
C219 C221 1.380 . S
C219 H236 0.929 . S
C220 C217 1.399 . S
C220 C221 1.392 . S
C220 H237 0.929 . S
C221 C219 1.380 . S
C221 C220 1.392 . S
C221 H238 0.929 . S
C222 C217 1.383 . S
C222 C218 1.389 . S
C222 H239 0.931 . S
C223 O208 1.266 . S
C223 O209 1.248 . S
C224 Tb160 2.802 . S
C224 O204 1.264 . S
C224 O207 1.256 . S
C224 C217 1.496 . S
C225 C192 1.448 . S
C225 H202 0.930 . S
C225 C226 1.328 . S
C226 C197 1.427 . S
C226 H203 0.929 . S
C226 C225 1.328 . S
C227 O211 1.264 . S
C227 O212 1.222 1_545 S
C228 C231 1.399 . S
C228 C232 1.383 . S
C228 C235 1.496 . S
C229 C230 1.399 . S
C229 C232 1.389 . S
C230 C229 1.399 . S
C230 C233 1.380 . S
C230 H240 0.929 . S
C231 C228 1.399 . S
C231 C233 1.392 . S
C231 H241 0.929 . S
C232 C228 1.383 . S
C232 C229 1.389 . S
C232 H242 0.931 . S
C233 C230 1.380 . S
C233 C231 1.392 . S
C233 H243 0.929 . S
C234 O214 1.266 . S
C234 O215 1.248 . S
C235 Tb171 2.802 . S
C235 O210 1.264 . S
C235 O213 1.256 . S
C235 C228 1.496 . S
H236 C219 0.929 . S
H237 C220 0.929 . S
H238 C221 0.929 . S
H239 C222 0.931 . S
H240 C230 0.929 . S
H241 C231 0.929 . S
H242 C232 0.931 . S
H243 C233 0.929 . S
Tb244 N273 2.617 . S
Tb244 N279 2.572 1_556 S
Tb244 O288 2.465 . S
Tb244 O289 2.387 1_556 S
Tb244 O291 2.428 . S
Tb244 O292 2.308 1_556 S
Tb244 O296 2.349 . S
Tb244 O299 2.393 . S
Tb244 C308 2.802 . S
C245 N246 1.379 . S
C245 C248 1.416 . S
C245 C252 1.424 . S
N246 C245 1.379 . S
N246 C249 1.334 . S
N246 Tb255 2.617 . S
C247 C249 1.390 . S
C247 C250 1.339 . S
C247 H267 0.930 . S
C248 C245 1.416 . S
C248 C250 1.416 . S
C248 C254 1.448 . S
C249 N246 1.334 . S
C249 C247 1.390 . S
C249 H260 0.930 . S
C250 C247 1.339 . S
C250 C248 1.416 . S
C250 H271 0.930 . S
C251 C252 1.413 . S
C251 C253 1.427 . S
C251 C257 1.416 . S
C252 C245 1.424 . S
C252 C251 1.413 . S
C252 N256 1.361 . S
C253 C251 1.427 . S
C253 C254 1.328 . S
C253 H268 0.929 . S
C254 C248 1.448 . S
C254 C253 1.328 . S
C254 H269 0.930 . S
Tb255 N246 2.617 . S
Tb255 N256 2.572 . S
Tb255 O290 2.349 . S
Tb255 O293 2.393 . S
Tb255 O294 2.465 . S
Tb255 O295 2.387 1_554 S
Tb255 O297 2.428 . S
Tb255 O298 2.308 . S
Tb255 C319 2.802 . S
N256 C252 1.361 . S
N256 Tb255 2.572 . S
N256 C258 1.340 . S
C257 C251 1.416 . S
C257 C259 1.332 . S
C257 H265 0.931 . S
C258 N256 1.340 . S
C258 C259 1.407 . S
C258 H264 0.930 . S
C259 C257 1.332 . S
C259 C258 1.407 . S
C259 H261 0.929 . S
H260 C249 0.930 . S
H261 C259 0.929 . S
H262 C277 0.930 . S
H263 C284 0.929 . S
H264 C258 0.930 . S
H265 C257 0.931 . S
H266 C280 0.930 . S
H267 C247 0.930 . S
H268 C253 0.929 . S
H269 C254 0.930 . S
H270 C275 0.930 . S
H271 C250 0.930 . S
H272 C283 0.931 . S
N273 Tb244 2.617 . S
N273 C274 1.379 1_556 S
N273 C277 1.334 . S
C274 N273 1.379 1_554 S
C274 C276 1.416 . S
C274 C282 1.424 . S
C275 H270 0.930 . S
C275 C277 1.390 . S
C275 C278 1.339 1_556 S
C276 C274 1.416 . S
C276 C278 1.416 . S
C276 C309 1.448 . S
C277 H262 0.930 . S
C277 N273 1.334 . S
C277 C275 1.390 . S
C278 C275 1.339 1_554 S
C278 C276 1.416 . S
C278 H285 0.930 . S
N279 Tb244 2.572 1_554 S
N279 C280 1.340 . S
N279 C282 1.361 . S
C280 H266 0.930 . S
C280 N279 1.340 . S
C280 C284 1.407 . S
C281 C282 1.413 . S
C281 C283 1.416 . S
C281 C310 1.427 . S
C282 C274 1.424 . S
C282 N279 1.361 . S
C282 C281 1.413 . S
C283 H272 0.931 . S
C283 C281 1.416 . S
C283 C284 1.332 . S
C284 H263 0.929 . S
C284 C280 1.407 . S
C284 C283 1.332 . S
H285 C278 0.930 . S
H286 C309 0.930 . S
H287 C310 0.929 . S
O288 Tb244 2.465 . S
O288 C308 1.264 . S
O289 Tb244 2.387 1_554 S
O289 C300 1.264 . S
O290 Tb255 2.349 . S
O290 C300 1.243 . S
O291 Tb244 2.428 . S
O291 C308 1.256 . S
O292 Tb244 2.308 1_554 S
O292 C307 1.266 . S
O293 Tb255 2.393 . S
O293 C307 1.248 . S
O294 Tb255 2.465 . S
O294 C319 1.264 . S
O295 Tb255 2.387 1_556 S
O295 C311 1.264 . S
O296 Tb244 2.349 . S
O296 C311 1.243 . S
O297 Tb255 2.428 . S
O297 C319 1.256 . S
O298 Tb255 2.308 . S
O298 C318 1.266 . S
O299 Tb244 2.393 . S
O299 C318 1.248 1_556 S
C300 O289 1.264 . S
C300 O290 1.243 . S
C301 C304 1.399 . S
C301 C306 1.383 . S
C301 C308 1.496 . S
C302 C303 1.399 . S
C302 C306 1.389 . S
C303 C302 1.399 . S
C303 C305 1.380 . S
C303 H320 0.929 . S
C304 C301 1.399 . S
C304 C305 1.392 . S
C304 H321 0.929 . S
C305 C303 1.380 . S
C305 C304 1.392 . S
C305 H322 0.929 . S
C306 C301 1.383 . S
C306 C302 1.389 . S
C306 H323 0.931 . S
C307 O292 1.266 . S
C307 O293 1.248 . S
C308 Tb244 2.802 . S
C308 O288 1.264 . S
C308 O291 1.256 . S
C308 C301 1.496 . S
C309 C276 1.448 . S
C309 H286 0.930 . S
C309 C310 1.328 . S
C310 C281 1.427 . S
C310 H287 0.929 . S
C310 C309 1.328 . S
C311 O295 1.264 . S
C311 O296 1.243 . S
C312 C315 1.399 . S
C312 C316 1.383 . S
C312 C319 1.496 . S
C313 C314 1.399 . S
C313 C316 1.389 . S
C314 C313 1.399 . S
C314 C317 1.380 . S
C314 H324 0.929 . S
C315 C312 1.399 . S
C315 C317 1.392 . S
C315 H325 0.929 . S
C316 C312 1.383 . S
C316 C313 1.389 . S
C316 H326 0.931 . S
C317 C314 1.380 . S
C317 C315 1.392 . S
C317 H327 0.929 . S
C318 O298 1.266 . S
C318 O299 1.248 1_554 S
C319 Tb255 2.802 . S
C319 O294 1.264 . S
C319 O297 1.256 . S
C319 C312 1.496 . S
H320 C303 0.929 . S
H321 C304 0.929 . S
H322 C305 0.929 . S
H323 C306 0.931 . S
H324 C314 0.929 . S
H325 C315 0.929 . S
H326 C316 0.931 . S
H327 C317 0.929 . S
H328 C340 0.930 . S
H329 C342 0.930 . S
H330 C343 0.930 . S
H331 C347 0.959 . S
H332 C347 0.959 . S
H333 C347 0.961 . S
H334 C348 0.960 . S
H335 C348 0.961 . S
H336 C348 0.959 . S
H337 C351 0.929 . S
H338 C352 0.931 . S
H339 C354 0.930 . S
C340 H328 0.930 . S
C340 C341 1.399 . S
C340 C345 1.399 . S
C341 C340 1.399 . S
C341 C342 1.376 . S
C342 H329 0.930 . S
C342 C341 1.376 . S
C342 C343 1.388 . S
C343 H330 0.930 . S
C343 C342 1.388 . S
C343 C344 1.390 . S
C344 C343 1.390 . S
C344 C345 1.394 . S
C344 C350 1.465 . S
C345 C340 1.399 . S
C345 C344 1.394 . S
C345 C346 1.516 . S
C346 C345 1.516 . S
C346 C347 1.502 . S
C346 C348 1.561 . S
C346 C349 1.526 . S
C347 H331 0.959 . S
C347 H332 0.959 . S
C347 H333 0.961 . S
C347 C346 1.502 . S
C348 H334 0.960 . S
C348 H335 0.961 . S
C348 H336 0.959 . S
C348 C346 1.561 . S
C349 C346 1.526 . S
C349 C350 1.396 . S
C349 C354 1.390 . S
C350 C344 1.465 . S
C350 C349 1.396 . S
C350 C351 1.399 . S
C351 H337 0.929 . S
C351 C350 1.399 . S
C351 C352 1.385 . S
C352 H338 0.931 . S
C352 C351 1.385 . S
C352 C353 1.389 . S
C353 C352 1.389 . S
C353 C354 1.387 . S
C354 H339 0.930 . S
C354 C349 1.390 . S
C354 C353 1.387 . S
H355 C367 0.930 . S
H356 C369 0.929 1_556 S
H357 C370 0.930 . S
H358 C374 0.959 . S
H359 C374 0.959 . S
H360 C374 0.961 . S
H361 C375 0.960 . S
H362 C375 0.961 . S
H363 C375 0.959 . S
H364 C378 0.929 . S
H365 C379 0.931 . S
H366 C381 0.930 . S
C367 H355 0.930 . S
C367 C368 1.399 . S
C367 C372 1.399 . S
C368 C367 1.399 . S
C368 C369 1.378 . S
C369 H356 0.929 1_554 S
C369 C368 1.378 . S
C369 C370 1.388 1_554 S
C370 H357 0.930 . S
C370 C369 1.388 1_556 S
C370 C371 1.390 1_556 S
C371 C370 1.390 1_554 S
C371 C372 1.394 . S
C371 C377 1.465 . S
C372 C367 1.399 . S
C372 C371 1.394 . S
C372 C373 1.516 . S
C373 C372 1.516 . S
C373 C374 1.502 . S
C373 C375 1.561 . S
C373 C376 1.526 . S
C374 H358 0.959 . S
C374 H359 0.959 . S
C374 H360 0.961 . S
C374 C373 1.502 . S
C375 H361 0.960 . S
C375 H362 0.961 . S
C375 H363 0.959 . S
C375 C373 1.561 . S
C376 C373 1.526 . S
C376 C377 1.396 . S
C376 C381 1.390 . S
C377 C371 1.465 . S
C377 C376 1.396 . S
C377 C378 1.399 1_554 S
C378 H364 0.929 . S
C378 C377 1.399 1_556 S
C378 C379 1.385 . S
C379 H365 0.931 . S
C379 C378 1.385 . S
C379 C380 1.389 1_556 S
C380 C379 1.389 1_554 S
C380 C381 1.387 . S
C381 H366 0.930 . S
C381 C376 1.390 . S
C381 C380 1.387 . S
H382 C394 0.930 . S
H383 C396 0.930 . S
H384 C397 0.930 . S
H385 C401 0.959 . S
H386 C401 0.959 . S
H387 C401 0.961 . S
H388 C402 0.960 . S
H389 C402 0.961 . S
H390 C402 0.959 . S
H391 C405 0.929 . S
H392 C406 0.931 . S
H393 C408 0.930 . S
C394 H382 0.930 . S
C394 C395 1.399 . S
C394 C399 1.399 . S
C395 C394 1.399 . S
C395 C396 1.376 . S
C396 H383 0.930 . S
C396 C395 1.376 . S
C396 C397 1.388 . S
C397 H384 0.930 . S
C397 C396 1.388 . S
C397 C398 1.390 . S
C398 C397 1.390 . S
C398 C399 1.394 . S
C398 C404 1.465 . S
C399 C394 1.399 . S
C399 C398 1.394 . S
C399 C400 1.516 . S
C400 C399 1.516 . S
C400 C401 1.502 . S
C400 C402 1.561 . S
C400 C403 1.526 . S
C401 H385 0.959 . S
C401 H386 0.959 . S
C401 H387 0.961 . S
C401 C400 1.502 . S
C402 H388 0.960 . S
C402 H389 0.961 . S
C402 H390 0.959 . S
C402 C400 1.561 . S
C403 C400 1.526 . S
C403 C404 1.396 . S
C403 C408 1.390 . S
C404 C398 1.465 . S
C404 C403 1.396 . S
C404 C405 1.399 . S
C405 H391 0.929 . S
C405 C404 1.399 . S
C405 C406 1.385 . S
C406 H392 0.931 . S
C406 C405 1.385 . S
C406 C407 1.389 . S
C407 C406 1.389 . S
C407 C408 1.387 . S
C408 H393 0.930 . S
C408 C403 1.390 . S
C408 C407 1.387 . S
H409 C421 0.930 . S
H410 C423 0.930 . S
H411 C424 0.930 . S
H412 C428 0.959 . S
H413 C428 0.959 . S
H414 C428 0.961 . S
H415 C429 0.960 . S
H416 C429 0.961 . S
H417 C429 0.959 . S
H418 C432 0.929 . S
H419 C433 0.931 . S
H420 C435 0.930 . S
C421 H409 0.930 . S
C421 C422 1.399 1_556 S
C421 C426 1.399 . S
C422 C421 1.399 1_554 S
C422 C423 1.376 . S
C423 H410 0.930 . S
C423 C422 1.376 . S
C423 C424 1.388 . S
C424 H411 0.930 . S
C424 C423 1.388 . S
C424 C425 1.390 . S
C425 C424 1.390 . S
C425 C426 1.394 1_554 S
C425 C431 1.465 . S
C426 C421 1.399 . S
C426 C425 1.394 1_556 S
C426 C427 1.516 . S
C427 C426 1.516 . S
C427 C428 1.502 . S
C427 C429 1.561 . S
C427 C430 1.533 . S
C428 H412 0.959 . S
C428 H413 0.959 . S
C428 H414 0.961 . S
C428 C427 1.502 . S
C429 H415 0.960 . S
C429 H416 0.961 . S
C429 H417 0.959 . S
C429 C427 1.561 . S
C430 C427 1.533 . S
C430 C431 1.389 1_556 S
C430 C435 1.388 . S
C431 C425 1.465 . S
C431 C430 1.389 1_554 S
C431 C432 1.399 . S
C432 H418 0.929 . S
C432 C431 1.399 . S
C432 C433 1.385 . S
C433 H419 0.931 . S
C433 C432 1.385 . S
C433 C434 1.389 . S
C434 C433 1.389 . S
C434 C435 1.387 1_554 S
C435 H420 0.930 . S
C435 C430 1.388 . S
C435 C434 1.387 1_556 S
H436 C448 0.930 . S
H437 C450 0.930 . S
H438 C451 0.930 . S
H439 C455 0.959 . S
H440 C455 0.959 1_545 S
H441 C455 0.961 1_545 S
H442 C456 0.960 . S
H443 C456 0.961 . S
H444 C456 0.959 1_565 S
H445 C459 0.929 . S
H446 C460 0.931 . S
H447 C462 0.930 . S
C448 H436 0.930 . S
C448 C449 1.399 . S
C448 C453 1.399 . S
C449 C448 1.399 . S
C449 C450 1.376 . S
C450 H437 0.930 . S
C450 C449 1.376 . S
C450 C451 1.388 . S
C451 H438 0.930 . S
C451 C450 1.388 . S
C451 C452 1.390 . S
C452 C451 1.390 . S
C452 C453 1.394 . S
C452 C458 1.465 . S
C453 C448 1.399 . S
C453 C452 1.394 . S
C453 C454 1.516 . S
C454 C453 1.516 . S
C454 C455 1.502 . S
C454 C456 1.561 1_565 S
C454 C457 1.526 . S
C455 H439 0.959 . S
C455 H440 0.959 1_565 S
C455 H441 0.961 1_565 S
C455 C454 1.502 . S
C456 H442 0.960 . S
C456 H443 0.961 . S
C456 H444 0.959 1_545 S
C456 C454 1.561 1_545 S
C457 C454 1.526 . S
C457 C458 1.396 . S
C457 C462 1.390 . S
C458 C452 1.465 . S
C458 C457 1.396 . S
C458 C459 1.399 . S
C459 H445 0.929 . S
C459 C458 1.399 . S
C459 C460 1.385 . S
C460 H446 0.931 . S
C460 C459 1.385 . S
C460 C461 1.389 . S
C461 C460 1.389 . S
C461 C462 1.387 . S
C462 H447 0.930 . S
C462 C457 1.390 . S
C462 C461 1.387 . S
H463 C475 0.930 . S
H464 C477 0.930 . S
H465 C478 0.930 . S
H466 C482 0.959 . S
H467 C482 0.959 . S
H468 C482 0.961 . S
H469 C483 0.960 . S
H470 C483 0.961 . S
H471 C483 0.959 . S
H472 C486 0.929 . S
H473 C487 0.931 . S
H474 C489 0.930 . S
C475 H463 0.930 . S
C475 C476 1.399 . S
C475 C480 1.399 . S
C476 C475 1.399 . S
C476 C477 1.376 . S
C477 H464 0.930 . S
C477 C476 1.376 . S
C477 C478 1.388 . S
C478 H465 0.930 . S
C478 C477 1.388 . S
C478 C479 1.390 . S
C479 C478 1.390 . S
C479 C480 1.394 . S
C479 C485 1.465 . S
C480 C475 1.399 . S
C480 C479 1.394 . S
C480 C481 1.516 . S
C481 C480 1.516 . S
C481 C482 1.502 . S
C481 C483 1.561 . S
C481 C484 1.526 . S
C482 H466 0.959 . S
C482 H467 0.959 . S
C482 H468 0.961 . S
C482 C481 1.502 . S
C483 H469 0.960 . S
C483 H470 0.961 . S
C483 H471 0.959 . S
C483 C481 1.561 . S
C484 C481 1.526 . S
C484 C485 1.396 . S
C484 C489 1.390 . S
C485 C479 1.465 . S
C485 C484 1.396 . S
C485 C486 1.399 . S
C486 H472 0.929 . S
C486 C485 1.399 . S
C486 C487 1.385 . S
C487 H473 0.931 . S
C487 C486 1.385 . S
C487 C488 1.389 . S
C488 C487 1.389 . S
C488 C489 1.387 . S
C489 H474 0.930 . S
C489 C484 1.390 . S
C489 C488 1.387 . S
H490 C502 0.930 . S
H491 C504 0.930 . S
H492 C505 0.930 . S
H493 C509 0.959 1_545 S
H494 C509 0.959 . S
H495 C509 0.961 . S
H496 C510 0.960 . S
H497 C510 0.961 . S
H498 C510 0.959 . S
H499 C513 0.929 . S
H500 C514 0.931 . S
H501 C516 0.930 1_565 S
C502 H490 0.930 . S
C502 C503 1.399 . S
C502 C507 1.399 . S
C503 C502 1.399 . S
C503 C504 1.376 . S
C504 H491 0.930 . S
C504 C503 1.376 . S
C504 C505 1.388 . S
C505 H492 0.930 . S
C505 C504 1.388 . S
C505 C506 1.390 . S
C506 C505 1.390 . S
C506 C507 1.394 . S
C506 C512 1.465 . S
C507 C502 1.399 . S
C507 C506 1.394 . S
C507 C508 1.516 . S
C508 C507 1.516 . S
C508 C509 1.502 1_545 S
C508 C510 1.561 1_545 S
C508 C511 1.526 . S
C509 H493 0.959 1_565 S
C509 H494 0.959 . S
C509 H495 0.961 . S
C509 C508 1.502 1_565 S
C510 H496 0.960 . S
C510 H497 0.961 . S
C510 H498 0.959 . S
C510 C508 1.561 1_565 S
C511 C508 1.526 . S
C511 C512 1.396 . S
C511 C516 1.390 . S
C512 C506 1.465 . S
C512 C511 1.396 . S
C512 C513 1.399 . S
C513 H499 0.929 . S
C513 C512 1.399 . S
C513 C514 1.385 . S
C514 H500 0.931 . S
C514 C513 1.385 . S
C514 C515 1.389 . S
C515 C514 1.389 . S
C515 C516 1.387 . S
C516 H501 0.930 1_545 S
C516 C511 1.390 . S
C516 C515 1.387 . S
H517 C529 0.930 . S
H518 C531 0.930 . S
H519 C532 0.930 . S
H520 C536 0.959 . S
H521 C536 0.959 . S
H522 C536 0.961 . S
H523 C537 0.960 . S
H524 C537 0.961 . S
H525 C537 0.959 . S
H526 C540 0.929 . S
H527 C541 0.931 . S
H528 C543 0.930 . S
C529 H517 0.930 . S
C529 C530 1.399 . S
C529 C534 1.399 . S
C530 C529 1.399 . S
C530 C531 1.376 . S
C531 H518 0.930 . S
C531 C530 1.376 . S
C531 C532 1.388 . S
C532 H519 0.930 . S
C532 C531 1.388 . S
C532 C533 1.390 . S
C533 C532 1.390 . S
C533 C534 1.394 . S
C533 C539 1.465 . S
C534 C529 1.399 . S
C534 C533 1.394 . S
C534 C535 1.516 . S
C535 C534 1.516 . S
C535 C536 1.502 . S
C535 C537 1.561 . S
C535 C538 1.526 . S
C536 H520 0.959 . S
C536 H521 0.959 . S
C536 H522 0.961 . S
C536 C535 1.502 . S
C537 H523 0.960 . S
C537 H524 0.961 . S
C537 H525 0.959 . S
C537 C535 1.561 . S
C538 C535 1.526 . S
C538 C539 1.396 . S
C538 C543 1.390 . S
C539 C533 1.465 . S
C539 C538 1.396 . S
C539 C540 1.399 . S
C540 H526 0.929 . S
C540 C539 1.399 . S
C540 C541 1.385 . S
C541 H527 0.931 . S
C541 C540 1.385 . S
C541 C542 1.389 . S
C542 C541 1.389 . S
C542 C543 1.387 . S
C543 H528 0.930 . S
C543 C538 1.390 . S
C543 C542 1.387 . S
H544 C556 0.930 . S
H545 C558 0.930 . S
H546 C559 0.930 . S
H547 C563 0.959 . S
H548 C563 0.959 . S
H549 C563 0.961 . S
H550 C564 0.960 . S
H551 C564 0.961 . S
H552 C564 0.959 . S
H553 C567 0.929 . S
H554 C568 0.931 . S
H555 C570 0.930 . S
C556 H544 0.930 . S
C556 C557 1.399 . S
C556 C561 1.399 . S
C557 C556 1.399 . S
C557 C558 1.376 . S
C558 H545 0.930 . S
C558 C557 1.376 . S
C558 C559 1.388 . S
C559 H546 0.930 . S
C559 C558 1.388 . S
C559 C560 1.390 . S
C560 C559 1.390 . S
C560 C561 1.394 . S
C560 C566 1.465 . S
C561 C556 1.399 . S
C561 C560 1.394 . S
C561 C562 1.516 . S
C562 C561 1.516 . S
C562 C563 1.502 . S
C562 C564 1.561 . S
C562 C565 1.526 . S
C563 H547 0.959 . S
C563 H548 0.959 . S
C563 H549 0.961 . S
C563 C562 1.502 . S
C564 H550 0.960 . S
C564 H551 0.961 . S
C564 H552 0.959 . S
C564 C562 1.561 . S
C565 C562 1.526 . S
C565 C566 1.396 . S
C565 C570 1.390 . S
C566 C560 1.465 . S
C566 C565 1.396 . S
C566 C567 1.399 . S
C567 H553 0.929 . S
C567 C566 1.399 . S
C567 C568 1.385 . S
C568 H554 0.931 . S
C568 C567 1.385 . S
C568 C569 1.389 . S
C569 C568 1.389 . S
C569 C570 1.387 . S
C570 H555 0.930 . S
C570 C565 1.390 . S
C570 C569 1.387 . S
H571 C583 0.930 . S
H572 C585 0.930 . S
H573 C586 0.930 . S
H574 C590 0.959 . S
H575 C590 0.959 . S
H576 C590 0.961 . S
H577 C591 0.960 . S
H578 C591 0.961 . S
H579 C591 0.959 . S
H580 C594 0.929 . S
H581 C595 0.931 . S
H582 C597 0.930 . S
C583 H571 0.930 . S
C583 C584 1.399 . S
C583 C588 1.399 . S
C584 C583 1.399 . S
C584 C585 1.376 . S
C585 H572 0.930 . S
C585 C584 1.376 . S
C585 C586 1.388 . S
C586 H573 0.930 . S
C586 C585 1.388 . S
C586 C587 1.390 . S
C587 C586 1.390 . S
C587 C588 1.394 . S
C587 C593 1.465 . S
C588 C583 1.399 . S
C588 C587 1.394 . S
C588 C589 1.516 . S
C589 C588 1.516 . S
C589 C590 1.502 . S
C589 C591 1.561 . S
C589 C592 1.526 . S
C590 H574 0.959 . S
C590 H575 0.959 . S
C590 H576 0.961 . S
C590 C589 1.502 . S
C591 H577 0.960 . S
C591 H578 0.961 . S
C591 H579 0.959 . S
C591 C589 1.561 . S
C592 C589 1.526 . S
C592 C593 1.396 . S
C592 C597 1.390 . S
C593 C587 1.465 . S
C593 C592 1.396 . S
C593 C594 1.399 . S
C594 H580 0.929 . S
C594 C593 1.399 . S
C594 C595 1.385 . S
C595 H581 0.931 . S
C595 C594 1.385 . S
C595 C596 1.389 . S
C596 C595 1.389 . S
C596 C597 1.387 . S
C597 H582 0.930 . S
C597 C592 1.390 . S
C597 C596 1.387 . S
H598 C610 0.930 . S
H599 C612 0.930 . S
H600 C613 0.930 . S
H601 C617 0.959 . S
H602 C617 0.959 . S
H603 C617 0.961 . S
H604 C618 0.960 . S
H605 C618 0.961 . S
H606 C618 0.959 . S
H607 C621 0.929 . S
H608 C622 0.931 . S
H609 C624 0.930 . S
C610 H598 0.930 . S
C610 C611 1.399 . S
C610 C615 1.399 . S
C611 C610 1.399 . S
C611 C612 1.376 . S
C612 H599 0.930 . S
C612 C611 1.376 . S
C612 C613 1.388 . S
C613 H600 0.930 . S
C613 C612 1.388 . S
C613 C614 1.390 . S
C614 C613 1.390 . S
C614 C615 1.394 . S
C614 C620 1.465 . S
C615 C610 1.399 . S
C615 C614 1.394 . S
C615 C616 1.516 . S
C616 C615 1.516 . S
C616 C617 1.502 . S
C616 C618 1.561 . S
C616 C619 1.526 . S
C617 H601 0.959 . S
C617 H602 0.959 . S
C617 H603 0.961 . S
C617 C616 1.502 . S
C618 H604 0.960 . S
C618 H605 0.961 . S
C618 H606 0.959 . S
C618 C616 1.561 . S
C619 C616 1.526 . S
C619 C620 1.396 . S
C619 C624 1.390 . S
C620 C614 1.465 . S
C620 C619 1.396 . S
C620 C621 1.399 . S
C621 H607 0.929 . S
C621 C620 1.399 . S
C621 C622 1.385 . S
C622 H608 0.931 . S
C622 C621 1.385 . S
C622 C623 1.389 . S
C623 C622 1.389 . S
C623 C624 1.387 . S
C624 H609 0.930 . S
C624 C619 1.390 . S
C624 C623 1.387 . S
H625 C637 0.930 . S
H626 C639 0.930 . S
H627 C640 0.930 . S
H628 C644 0.959 . S
H629 C644 0.959 . S
H630 C644 0.961 . S
H631 C645 0.960 . S
H632 C645 0.961 . S
H633 C645 0.959 . S
H634 C648 0.929 . S
H635 C649 0.931 . S
H636 C651 0.930 . S
C637 H625 0.930 . S
C637 C638 1.399 . S
C637 C642 1.399 . S
C638 C637 1.399 . S
C638 C639 1.376 . S
C639 H626 0.930 . S
C639 C638 1.376 . S
C639 C640 1.388 . S
C640 H627 0.930 . S
C640 C639 1.388 . S
C640 C641 1.390 . S
C641 C640 1.390 . S
C641 C642 1.394 . S
C641 C647 1.465 . S
C642 C637 1.399 . S
C642 C641 1.394 . S
C642 C643 1.516 . S
C643 C642 1.516 . S
C643 C644 1.502 . S
C643 C645 1.561 1_565 S
C643 C646 1.526 . S
C644 H628 0.959 . S
C644 H629 0.959 . S
C644 H630 0.961 . S
C644 C643 1.502 . S
C645 H631 0.960 . S
C645 H632 0.961 . S
C645 H633 0.959 . S
C645 C643 1.561 1_545 S
C646 C643 1.526 . S
C646 C647 1.396 . S
C646 C651 1.390 . S
C647 C641 1.465 . S
C647 C646 1.396 . S
C647 C648 1.399 . S
C648 H634 0.929 . S
C648 C647 1.399 . S
C648 C649 1.385 . S
C649 H635 0.931 . S
C649 C648 1.385 . S
C649 C650 1.389 . S
C650 C649 1.389 . S
C650 C651 1.387 . S
C651 H636 0.930 . S
C651 C646 1.390 . S
C651 C650 1.387 . S
C353 C223 1.643 . S
C341 C135 1.648 . S
C368 C15 1.622 . S
C380 C318 1.627 . S
C395 C55 1.668 . S
C407 C234 1.666 . S
C422 C95 1.660 . S
C434 C307 1.643 . S
C461 C218 1.361 . S
C449 C2 1.555 . S
C488 C311 1.613 . S
C476 C42 1.611 . S
C503 C82 1.609 . S
C515 C227 1.629 . S
C530 C141 1.518 . S
C542 C302 1.397 . S
C569 C313 1.476 . S
C557 C61 1.548 . S
C596 C229 1.474 . S
C584 C101 1.574 . S
C623 C300 1.641 . S
C611 C122 1.571 . S
C638 C21 1.654 . S
C650 C216 1.657 . S
