# Generated by pormake.
# Topology dag, (6,3)-cn, num edge types: 1
# Building blocks:
#     Node 0, Type 0, BuildingBlock: IZENUY_clean_sbu_0, # of connection points: 6
#     Node 1, Type 0, BuildingBlock: IZENUY_clean_sbu_0, # of connection points: 6
#     Node 2, Type 0, BuildingBlock: IZENUY_clean_sbu_0, # of connection points: 6
#     Node 3, Type 0, BuildingBlock: IZENUY_clean_sbu_0, # of connection points: 6
#     Node 4, Type 1, BuildingBlock: OLANEW_clean_sbu_2, # of connection points: 3
#     Node 5, Type 1, BuildingBlock: OLANEW_clean_sbu_2, # of connection points: 3
#     Node 6, Type 1, BuildingBlock: OLANEW_clean_sbu_2, # of connection points: 3
#     Node 7, Type 1, BuildingBlock: OLANEW_clean_sbu_2, # of connection points: 3
#     Node 8, Type 1, BuildingBlock: OLANEW_clean_sbu_2, # of connection points: 3
#     Node 9, Type 1, BuildingBlock: OLANEW_clean_sbu_2, # of connection points: 3
#     Node 10, Type 1, BuildingBlock: OLANEW_clean_sbu_2, # of connection points: 3
#     Node 11, Type 1, BuildingBlock: OLANEW_clean_sbu_2, # of connection points: 3
#     Edge 12, Type (0, 1), BuildingBlock: TEMPAE_clean_linker_10, # of connection points: 2
#     Edge 13, Type (0, 1), BuildingBlock: TEMPAE_clean_linker_10, # of connection points: 2
#     Edge 14, Type (0, 1), BuildingBlock: TEMPAE_clean_linker_10, # of connection points: 2
#     Edge 15, Type (0, 1), BuildingBlock: TEMPAE_clean_linker_10, # of connection points: 2
#     Edge 16, Type (0, 1), BuildingBlock: TEMPAE_clean_linker_10, # of connection points: 2
#     Edge 17, Type (0, 1), BuildingBlock: TEMPAE_clean_linker_10, # of connection points: 2
#     Edge 18, Type (0, 1), BuildingBlock: TEMPAE_clean_linker_10, # of connection points: 2
#     Edge 19, Type (0, 1), BuildingBlock: TEMPAE_clean_linker_10, # of connection points: 2
#     Edge 20, Type (0, 1), BuildingBlock: TEMPAE_clean_linker_10, # of connection points: 2
#     Edge 21, Type (0, 1), BuildingBlock: TEMPAE_clean_linker_10, # of connection points: 2
#     Edge 22, Type (0, 1), BuildingBlock: TEMPAE_clean_linker_10, # of connection points: 2
#     Edge 23, Type (0, 1), BuildingBlock: TEMPAE_clean_linker_10, # of connection points: 2
#     Edge 24, Type (0, 1), BuildingBlock: TEMPAE_clean_linker_10, # of connection points: 2
#     Edge 25, Type (0, 1), BuildingBlock: TEMPAE_clean_linker_10, # of connection points: 2
#     Edge 26, Type (0, 1), BuildingBlock: TEMPAE_clean_linker_10, # of connection points: 2
#     Edge 27, Type (0, 1), BuildingBlock: TEMPAE_clean_linker_10, # of connection points: 2
#     Edge 28, Type (0, 1), BuildingBlock: TEMPAE_clean_linker_10, # of connection points: 2
#     Edge 29, Type (0, 1), BuildingBlock: TEMPAE_clean_linker_10, # of connection points: 2
#     Edge 30, Type (0, 1), BuildingBlock: TEMPAE_clean_linker_10, # of connection points: 2
#     Edge 31, Type (0, 1), BuildingBlock: TEMPAE_clean_linker_10, # of connection points: 2
#     Edge 32, Type (0, 1), BuildingBlock: TEMPAE_clean_linker_10, # of connection points: 2
#     Edge 33, Type (0, 1), BuildingBlock: TEMPAE_clean_linker_10, # of connection points: 2
#     Edge 34, Type (0, 1), BuildingBlock: TEMPAE_clean_linker_10, # of connection points: 2
#     Edge 35, Type (0, 1), BuildingBlock: TEMPAE_clean_linker_10, # of connection points: 2
# Relax obj value: 0.127
# Max RMSD: 0.152
# Mean RMSD: 0.116
data_MOF--net-dag--node1-IZENUY_clean_sbu_0--node2-OLANEW_clean_sbu_2--edge1-TEMPAE_clean_linker_10
_symmetry_space_group_name_H-M    P1
_symmetry_Int_Tables_number       1
_symmetry_cell_setting            triclinic
loop_
_symmetry_equiv_pos_as_xyz
'x, y, z'
_cell_length_a     43.786797
_cell_length_b     40.984577
_cell_length_c     37.609245
_cell_angle_alpha  92.199964
_cell_angle_beta   94.288517
_cell_angle_gamma 91.170425
loop_
_atom_site_label
_atom_site_type_symbol
_atom_site_fract_x
_atom_site_fract_y
_atom_site_fract_z
_atom_type_partial_charge
Fe0 Fe 0.16679 0.9021 0.02132 0.0
Fe1 Fe 0.0984 0.91844 0.01813 0.0
O2 O 0.12776 0.88967 0.01408 0.0
Fe3 Fe 0.11795 0.8484 0.00241 0.0
O4 O 0.15116 0.83132 0.02784 0.0
O5 O 0.17361 0.87386 0.05671 0.0
O6 O 0.15997 0.9332 0.05652 0.0
C7 C 0.13759 0.93675 0.07586 0.0
C8 C 0.16572 0.85805 0.96119 0.0
O9 O 0.11085 0.9275 0.06445 0.0
C10 C 0.0756 0.88308 0.95858 0.0
O11 O 0.16293 0.93131 0.98645 0.0
O12 O 0.12091 0.9534 0.00345 0.0
O13 O 0.13791 0.85013 0.96229 0.0
O14 O 0.18042 0.87301 0.98749 0.0
C15 C 0.07445 0.86151 0.04832 0.0
O16 O 0.08414 0.91093 0.97169 0.0
O17 O 0.08305 0.85755 0.97475 0.0
C18 C 0.1446 0.9546 0.98604 0.0
O19 O 0.07054 0.8889 0.03414 0.0
O20 O 0.09708 0.84439 0.04167 0.0
C21 C 0.16891 0.84345 0.05334 0.0
Fe22 Fe 0.6923 0.61263 0.46493 0.0
Fe23 Fe 0.64864 0.67025 0.46047 0.0
O24 O 0.65519 0.62831 0.4673 0.0
Fe25 Fe 0.62481 0.6019 0.47674 0.0
O26 O 0.64869 0.5759 0.50557 0.0
O27 O 0.69372 0.60082 0.51105 0.0
O28 O 0.71235 0.65064 0.48094 0.0
C29 C 0.70378 0.67461 0.49961 0.0
C30 C 0.65419 0.56212 0.43159 0.0
O31 O 0.67604 0.6827 0.49771 0.0
C32 C 0.59718 0.64276 0.42467 0.0
O33 O 0.69282 0.62362 0.41903 0.0
O34 O 0.6779 0.67409 0.42764 0.0
O35 O 0.6296 0.57609 0.4375 0.0
O36 O 0.67926 0.57166 0.44804 0.0
C37 C 0.61102 0.65543 0.51676 0.0
O38 O 0.62081 0.66065 0.4229 0.0
O39 O 0.59537 0.62327 0.44982 0.0
C40 C 0.68998 0.65233 0.40855 0.0
O41 O 0.61805 0.67351 0.49177 0.0
O42 O 0.61821 0.62585 0.5165 0.0
C43 C 0.67405 0.58223 0.52322 0.0
Fe44 Fe 0.85811 0.18801 0.02838 0.0
Fe45 Fe 0.87862 0.12006 0.00639 0.0
O46 O 0.84892 0.14757 0.01218 0.0
Fe47 Fe 0.81035 0.13457 0.00175 0.0
O48 O 0.79783 0.17467 0.98668 0.0
O49 O 0.84031 0.20463 0.98817 0.0
O50 O 0.89503 0.19059 0.00759 0.0
C51 C 0.90454 0.17425 0.98141 0.0
C52 C 0.80444 0.17167 0.06259 0.0
O53 O 0.89467 0.14554 0.9742 0.0
C54 C 0.83767 0.07989 0.03485 0.0
O55 O 0.87644 0.17368 0.06982 0.0
O56 O 0.90418 0.13779 0.04301 0.0
O57 O 0.8008 0.14393 0.04697 0.0
O58 O 0.823 0.19267 0.0519 0.0
C59 C 0.83781 0.10549 0.94637 0.0
O60 O 0.86403 0.09304 0.03815 0.0
O61 O 0.8164 0.0921 0.01508 0.0
C62 C 0.89817 0.15389 0.07085 0.0
O63 O 0.85882 0.09714 0.96876 0.0
O64 O 0.81714 0.12431 0.95554 0.0
C65 C 0.8129 0.19886 0.97632 0.0
Fe66 Fe 0.38124 0.39641 0.55634 0.0
Fe67 Fe 0.31387 0.37673 0.56378 0.0
O68 O 0.35316 0.36688 0.56528 0.0
Fe69 Fe 0.36449 0.32696 0.57592 0.0
O70 O 0.38697 0.3424 0.61572 0.0
O71 O 0.41066 0.38098 0.58847 0.0
O72 O 0.3706 0.42399 0.59182 0.0
C73 C 0.34401 0.43435 0.595 0.0
C74 C 0.40395 0.34295 0.52294 0.0
O75 O 0.32067 0.41944 0.57975 0.0
C76 C 0.31399 0.31294 0.53115 0.0
O77 O 0.35662 0.41686 0.52318 0.0
O78 O 0.31349 0.38791 0.5173 0.0
O79 O 0.3981 0.32677 0.54963 0.0
O80 O 0.39398 0.37136 0.51973 0.0
C81 C 0.31817 0.33902 0.62212 0.0
O82 O 0.30023 0.33548 0.54726 0.0
O83 O 0.34253 0.30979 0.53676 0.0
C84 C 0.33192 0.40819 0.50536 0.0
O85 O 0.31177 0.36665 0.61036 0.0
O86 O 0.33314 0.3191 0.60426 0.0
C87 C 0.40802 0.3639 0.61556 0.0
O88 O 0.18132 0.02732 0.34881 0.0
Cd89 Cd 0.17619 0.04849 0.40972 0.0
O90 O 0.14797 0.06415 0.33381 0.0
Cd91 Cd 0.11366 0.08891 0.30013 0.0
O92 O 0.07738 0.11231 0.26828 0.0
C93 C 0.04956 0.10532 0.27276 0.0
O94 O 0.04335 0.08426 0.29685 0.0
C95 C 0.16446 0.04049 0.32468 0.0
C96 C 0.20725 0.10751 0.42811 0.0
O97 O 0.2191 0.08017 0.43619 0.0
O98 O 0.18095 0.10696 0.41065 0.0
O99 O 0.26588 0.66975 0.66637 0.0
Cd100 Cd 0.24485 0.72436 0.67288 0.0
O101 O 0.31338 0.68675 0.6795 0.0
Cd102 Cd 0.36284 0.68099 0.67929 0.0
O103 O 0.40978 0.68293 0.66337 0.0
C104 C 0.41503 0.66828 0.63414 0.0
O105 O 0.39246 0.65195 0.61598 0.0
C106 C 0.29426 0.66373 0.67005 0.0
C107 C 0.23984 0.74955 0.74209 0.0
O108 O 0.22022 0.72856 0.72747 0.0
O109 O 0.26246 0.75797 0.72443 0.0
O110 O 0.91937 0.70893 0.16683 0.0
Cd111 Cd 0.88531 0.66332 0.17834 0.0
O112 O 0.87986 0.73853 0.151 0.0
Cd113 Cd 0.85949 0.78381 0.13347 0.0
O114 O 0.8445 0.83271 0.12129 0.0
C115 C 0.84931 0.84383 0.09111 0.0
O116 O 0.86245 0.82511 0.06786 0.0
C117 C 0.90871 0.73533 0.15506 0.0
C118 C 0.84159 0.67723 0.22659 0.0
O119 O 0.86842 0.66792 0.23717 0.0
O120 O 0.83563 0.68078 0.19308 0.0
O121 O 0.67965 0.42948 0.73907 0.0
Cd122 Cd 0.65546 0.3892 0.77481 0.0
O123 O 0.66917 0.47224 0.77279 0.0
Cd124 Cd 0.64245 0.44145 0.80566 0.0
O125 O 0.59999 0.41236 0.79873 0.0
C126 C 0.5747 0.42689 0.79986 0.0
O127 O 0.5752 0.45805 0.80961 0.0
C128 C 0.68109 0.46022 0.7455 0.0
C129 C 0.69613 0.35254 0.81639 0.0
O130 O 0.68556 0.37922 0.82888 0.0
O131 O 0.68786 0.34359 0.78401 0.0
O132 O 0.61772 0.33436 0.28627 0.0
Cd133 Cd 0.60095 0.27987 0.2632 0.0
O134 O 0.64536 0.31491 0.33152 0.0
Cd135 Cd 0.62104 0.26798 0.32494 0.0
O136 O 0.57879 0.26282 0.35154 0.0
C137 C 0.58032 0.27855 0.38144 0.0
O138 O 0.60648 0.29294 0.39301 0.0
C139 C 0.63674 0.33903 0.31333 0.0
C140 C 0.64533 0.25268 0.22248 0.0
O141 O 0.62341 0.2691 0.20809 0.0
O142 O 0.64607 0.24881 0.25618 0.0
O143 O 0.27246 0.16863 0.93264 0.0
Cd144 Cd 0.2973 0.22267 0.93055 0.0
O145 O 0.2311 0.18961 0.90773 0.0
Cd146 Cd 0.18214 0.19233 0.89379 0.0
O147 O 0.13309 0.19714 0.89634 0.0
C148 C 0.12076 0.18004 0.91905 0.0
O149 O 0.13796 0.1603 0.93818 0.0
C150 C 0.24436 0.16538 0.9217 0.0
C151 C 0.29664 0.24974 0.86349 0.0
O152 O 0.31954 0.23352 0.87584 0.0
O153 O 0.27367 0.25256 0.88252 0.0
O154 O 0.38066 0.65797 0.26965 0.0
Cd155 Cd 0.32792 0.64396 0.24563 0.0
O156 O 0.39477 0.60767 0.25799 0.0
Cd157 Cd 0.34873 0.5859 0.2484 0.0
O158 O 0.32356 0.54784 0.27415 0.0
C159 C 0.31123 0.55552 0.30276 0.0
O160 O 0.31103 0.5865 0.31314 0.0
C161 C 0.40162 0.6369 0.26876 0.0
C162 C 0.29649 0.69127 0.20618 0.0
O163 O 0.29382 0.68917 0.23974 0.0
O164 O 0.31466 0.67164 0.19147 0.0
O165 O 0.971 0.81731 0.70106 0.0
Cd166 Cd 0.95106 0.79777 0.64122 0.0
O167 O 0.93128 0.84735 0.70965 0.0
Cd168 Cd 0.9041 0.88348 0.73638 0.0
O169 O 0.87944 0.91909 0.76685 0.0
C170 C 0.86792 0.94428 0.75296 0.0
O171 O 0.87051 0.94888 0.71893 0.0
C172 C 0.95745 0.83728 0.72082 0.0
C173 C 0.88876 0.78118 0.62914 0.0
O174 O 0.90799 0.76077 0.64208 0.0
O175 O 0.89876 0.80998 0.62338 0.0
C176 C 0.17145 0.96623 0.1242 0.0
C177 C 0.14243 0.9536 0.1116 0.0
C178 C 0.1763 0.9816 0.15829 0.0
C179 C 0.15159 0.9843 0.18038 0.0
C180 C 0.12222 0.97186 0.16773 0.0
C181 C 0.11799 0.9567 0.13355 0.0
C182 C 0.20794 0.99462 0.17081 0.0
C183 C 0.09528 0.97417 0.19049 0.0
C184 C 0.16776 0.99349 0.28102 0.0
C185 C 0.16262 0.02678 0.28751 0.0
C186 C 0.16471 0.97948 0.24624 0.0
C187 C 0.15652 0.99928 0.21716 0.0
C188 C 0.15213 0.0331 0.22344 0.0
C189 C 0.15538 0.04647 0.25854 0.0
C190 C 0.16959 0.94331 0.24072 0.0
C191 C 0.14365 0.05509 0.19311 0.0
H192 H 0.19049 0.96399 0.1075 0.0
H193 H 0.09548 0.947 0.12419 0.0
H194 H 0.20703 0.02093 0.17866 0.0
H195 H 0.21667 0.98174 0.19478 0.0
H196 H 0.22448 0.99158 0.14998 0.0
H197 H 0.0738 0.96386 0.17646 0.0
H198 H 0.10013 0.96086 0.21535 0.0
H199 H 0.09158 1.00006 0.19842 0.0
H200 H 0.17349 0.97815 0.30329 0.0
H201 H 0.15258 0.07242 0.2632 0.0
H202 H 0.18723 0.93909 0.22146 0.0
H203 H 0.14804 0.93113 0.22914 0.0
H204 H 0.17688 0.93154 0.26598 0.0
H205 H 0.16107 0.05369 0.17319 0.0
H206 H 0.14172 0.08098 0.20237 0.0
H207 H 0.12143 0.04676 0.17929 0.0
C208 C 0.58248 0.64672 0.57063 0.0
C209 C 0.58793 0.66583 0.54147 0.0
C210 C 0.55617 0.65076 0.58923 0.0
C211 C 0.53484 0.67462 0.57855 0.0
C212 C 0.54159 0.69598 0.55129 0.0
C213 C 0.56813 0.69134 0.53303 0.0
C214 C 0.55 0.6276 0.61829 0.0
C215 C 0.51962 0.72202 0.53945 0.0
C216 C 0.45155 0.65239 0.5889 0.0
C217 C 0.44574 0.67028 0.62011 0.0
C218 C 0.48032 0.65404 0.57495 0.0
C219 C 0.50393 0.67416 0.59253 0.0
C220 C 0.49819 0.69254 0.62385 0.0
C221 C 0.46916 0.69031 0.63735 0.0
C222 C 0.48555 0.63389 0.54153 0.0
C223 C 0.52275 0.71437 0.64317 0.0
H224 H 0.5979 0.62721 0.57764 0.0
H225 H 0.57218 0.70628 0.5106 0.0
H226 H 0.54249 0.64111 0.64208 0.0
H227 H 0.53119 0.6102 0.60855 0.0
H228 H 0.57049 0.61336 0.62649 0.0
H229 H 0.53034 0.73983 0.52235 0.0
H230 H 0.49945 0.71038 0.52398 0.0
H231 H 0.51117 0.73541 0.56283 0.0
H232 H 0.43362 0.63687 0.57538 0.0
H233 H 0.46482 0.70435 0.66139 0.0
H234 H 0.5041 0.61638 0.54727 0.0
H235 H 0.49303 0.64996 0.52059 0.0
H236 H 0.46465 0.61994 0.53075 0.0
H237 H 0.54238 0.69953 0.65275 0.0
H238 H 0.51428 0.72806 0.66639 0.0
H239 H 0.53153 0.73213 0.62464 0.0
C240 C 0.80811 0.02703 0.03729 0.0
C241 C 0.83382 0.04679 0.04858 0.0
C242 C 0.80674 0.99396 0.04576 0.0
C243 C 0.83169 0.98047 0.06587 0.0
C244 C 0.85684 0.00078 0.0791 0.0
C245 C 0.85753 0.03368 0.07042 0.0
C246 C 0.77937 0.97311 0.03161 0.0
C247 C 0.88387 0.98737 0.10077 0.0
C248 C 0.82737 0.89783 0.10762 0.0
C249 C 0.84218 0.87807 0.08323 0.0
C250 C 0.82256 0.93099 0.10163 0.0
C251 C 0.833 0.9447 0.07065 0.0
C252 C 0.847 0.92463 0.04535 0.0
C253 C 0.85134 0.89154 0.05191 0.0
C254 C 0.8073 0.95159 0.12902 0.0
C255 C 0.85851 0.93839 0.012 0.0
H256 H 0.78961 0.03697 0.02055 0.0
H257 H 0.87734 0.04885 0.07967 0.0
H258 H 0.78619 0.95594 0.01025 0.0
H259 H 0.7709 0.95823 0.05301 0.0
H260 H 0.76031 0.98801 0.02042 0.0
H261 H 0.90051 0.00688 0.11126 0.0
H262 H 0.87601 0.97394 0.12358 0.0
H263 H 0.89593 0.96978 0.08392 0.0
H264 H 0.82003 0.88755 0.13179 0.0
H265 H 0.86272 0.87645 0.03287 0.0
H266 H 0.78853 0.96566 0.11593 0.0
H267 H 0.82418 0.96952 0.14232 0.0
H268 H 0.79778 0.93662 0.14977 0.0
H269 H 0.83994 0.95131 0.99705 0.0
H270 H 0.86725 0.91917 0.99403 0.0
H271 H 0.8773 0.95653 0.01942 0.0
C272 C 0.45786 0.38673 0.64304 0.0
C273 C 0.43103 0.3682 0.64637 0.0
C274 C 0.47934 0.39266 0.67214 0.0
C275 C 0.47386 0.37993 0.70561 0.0
C276 C 0.44706 0.36076 0.70916 0.0
C277 C 0.42594 0.35505 0.67941 0.0
C278 C 0.50775 0.41303 0.6671 0.0
C279 C 0.44037 0.34695 0.74446 0.0
C280 C 0.547 0.38023 0.76564 0.0
C281 C 0.54622 0.4112 0.78279 0.0
C282 C 0.52227 0.36827 0.7426 0.0
C283 C 0.49618 0.38772 0.73669 0.0
C284 C 0.49407 0.4175 0.75659 0.0
C285 C 0.51914 0.4289 0.77943 0.0
C286 C 0.52528 0.3362 0.72218 0.0
C287 C 0.46648 0.43879 0.75139 0.0
H288 H 0.46207 0.39685 0.6176 0.0
H289 H 0.40514 0.34089 0.68224 0.0
H290 H 0.50823 0.43545 0.68465 0.0
H291 H 0.52855 0.39918 0.67484 0.0
H292 H 0.50893 0.42037 0.6391 0.0
H293 H 0.41988 0.33035 0.74207 0.0
H294 H 0.46031 0.33338 0.75561 0.0
H295 H 0.43639 0.3672 0.76388 0.0
H296 H 0.56768 0.36615 0.76841 0.0
H297 H 0.51814 0.45265 0.79295 0.0
H298 H 0.52992 0.34103 0.69423 0.0
H299 H 0.50368 0.32148 0.72135 0.0
H300 H 0.54427 0.32159 0.73404 0.0
H301 H 0.4668 0.45054 0.72531 0.0
H302 H 0.46618 0.4583 0.7727 0.0
H303 H 0.44497 0.42396 0.75091 0.0
C304 C 0.62609 0.51275 0.40388 0.0
C305 C 0.65323 0.53159 0.40927 0.0
C306 C 0.62557 0.48228 0.38556 0.0
C307 C 0.6527 0.4707 0.37165 0.0
C308 C 0.67982 0.4903 0.37556 0.0
C309 C 0.67984 0.5204 0.39468 0.0
C310 C 0.59629 0.4619 0.38235 0.0
C311 C 0.70898 0.47911 0.36038 0.0
C312 C 0.65669 0.37859 0.36203 0.0
C313 C 0.64553 0.37269 0.32637 0.0
C314 C 0.66021 0.41051 0.37675 0.0
C315 C 0.65296 0.4372 0.35511 0.0
C316 C 0.64363 0.43151 0.31851 0.0
C317 C 0.63973 0.39927 0.30463 0.0
C318 C 0.66993 0.41553 0.41601 0.0
C319 C 0.63642 0.4594 0.29441 0.0
H320 H 0.60547 0.52125 0.41517 0.0
H321 H 0.7008 0.53509 0.39845 0.0
H322 H 0.58972 0.45506 0.35395 0.0
H323 H 0.59988 0.4389 0.39659 0.0
H324 H 0.57696 0.47487 0.39364 0.0
H325 H 0.7271 0.49861 0.3625 0.0
H326 H 0.71778 0.45775 0.37486 0.0
H327 H 0.70443 0.47116 0.3319 0.0
H328 H 0.66112 0.35821 0.37907 0.0
H329 H 0.6313 0.39487 0.27698 0.0
H330 H 0.65081 0.42613 0.43007 0.0
H331 H 0.6896 0.43309 0.41999 0.0
H332 H 0.6765 0.39237 0.42862 0.0
H333 H 0.61507 0.4711 0.3019 0.0
H334 H 0.63327 0.45113 0.26587 0.0
H335 H 0.65501 0.47832 0.29764 0.0
C336 C 0.9412 0.16785 0.93431 0.0
C337 C 0.93267 0.18461 0.96514 0.0
C338 C 0.97091 0.17111 0.92329 0.0
C339 C 0.99255 0.19172 0.94353 0.0
C340 C 0.98325 0.21106 0.97265 0.0
C341 C 0.9533 0.20732 0.98311 0.0
C342 C 0.9798 0.15031 0.89185 0.0
C343 C 0.0056 0.23359 0.99465 0.0
C344 C 0.07436 0.16298 0.94887 0.0
C345 C 0.0879 0.18312 0.92489 0.0
C346 C 0.04341 0.16582 0.9553 0.0
C347 C 0.02555 0.18944 0.93736 0.0
C348 C 0.03904 0.20992 0.91317 0.0
C349 C 0.0701 0.20648 0.90715 0.0
C350 C 0.0298 0.14337 0.98121 0.0
C351 C 0.02066 0.23538 0.89366 0.0
H352 H 0.92518 0.1506 0.91998 0.0
H353 H 0.94684 0.22046 0.00687 0.0
H354 H 0.99312 0.16496 0.87395 0.0
H355 H 0.99463 0.13038 0.90159 0.0
H356 H 0.95948 0.13914 0.87611 0.0
H357 H 0.99381 0.25063 0.01247 0.0
H358 H 0.02156 0.21885 0.01142 0.0
H359 H 0.01956 0.24805 0.9772 0.0
H360 H 0.08794 0.14485 0.96265 0.0
H361 H 0.08045 0.22221 0.88866 0.0
H362 H 0.01069 0.12852 0.96737 0.0
H363 H 0.02019 0.15796 0.00301 0.0
H364 H 0.04691 0.12657 0.99322 0.0
H365 H 0.0013 0.22347 0.87698 0.0
H366 H 0.03473 0.24982 0.87624 0.0
H367 H 0.01066 0.25234 0.9131 0.0
C368 C 0.29429 0.4227 0.45454 0.0
C369 C 0.32392 0.42483 0.47166 0.0
C370 C 0.28662 0.44077 0.42413 0.0
C371 C 0.3091 0.46138 0.41074 0.0
C372 C 0.33925 0.46265 0.42723 0.0
C373 C 0.34625 0.44437 0.45729 0.0
C374 C 0.25432 0.43858 0.40704 0.0
C375 C 0.36405 0.48413 0.41379 0.0
C376 C 0.30847 0.49686 0.31934 0.0
C377 C 0.30335 0.52991 0.32762 0.0
C378 C 0.30751 0.47335 0.34549 0.0
C379 C 0.30141 0.48318 0.38072 0.0
C380 C 0.29337 0.51587 0.38828 0.0
C381 C 0.29436 0.53882 0.36162 0.0
C382 C 0.31569 0.43864 0.33615 0.0
C383 C 0.28653 0.52737 0.42542 0.0
H384 H 0.27691 0.40759 0.46536 0.0
H385 H 0.36933 0.44589 0.46994 0.0
H386 H 0.24272 0.46194 0.41201 0.0
H387 H 0.25446 0.43465 0.3777 0.0
H388 H 0.24069 0.41852 0.41772 0.0
H389 H 0.38656 0.48153 0.42899 0.0
H390 H 0.36676 0.47802 0.38523 0.0
H391 H 0.3575 0.51011 0.41591 0.0
H392 H 0.31502 0.4896 0.29301 0.0
H393 H 0.28992 0.56418 0.36818 0.0
H394 H 0.3006 0.42104 0.34865 0.0
H395 H 0.3396 0.43437 0.34658 0.0
H396 H 0.31395 0.43351 0.30684 0.0
H397 H 0.2707 0.50992 0.43698 0.0
H398 H 0.27624 0.55193 0.42572 0.0
H399 H 0.30811 0.52865 0.44293 0.0
C400 C 0.04385 0.84872 0.91279 0.0
C401 C 0.05541 0.87971 0.92497 0.0
C402 C 0.02621 0.84428 0.88021 0.0
C403 C 0.0199 0.87147 0.85899 0.0
C404 C 0.03078 0.90298 0.87143 0.0
C405 C 0.04842 0.90675 0.90428 0.0
C406 C 0.01508 0.81025 0.86804 0.0
C407 C 0.02447 0.93256 0.84958 0.0
C408 C 0.00503 0.84973 0.76008 0.0
C409 C 0.97291 0.84882 0.75566 0.0
C410 C 0.02057 0.85837 0.79321 0.0
C411 C 0.00361 0.86623 0.82286 0.0
C412 C 0.97117 0.86621 0.8184 0.0
C413 C 0.9562 0.85729 0.7849 0.0
C414 C 0.05516 0.85797 0.79674 0.0
C415 C 0.95225 0.8743 0.84936 0.0
H416 H 0.04894 0.82762 0.92852 0.0
H417 H 0.05722 0.93078 0.9134 0.0
H418 H 0.98994 0.80985 0.86159 0.0
H419 H 0.02585 0.80268 0.84333 0.0
H420 H 0.02053 0.79198 0.88851 0.0
H421 H 0.03269 0.95561 0.86401 0.0
H422 H 0.03597 0.93019 0.82434 0.0
H423 H 0.99954 0.9342 0.84231 0.0
H424 H 0.01813 0.84326 0.7376 0.0
H425 H 0.93145 0.85559 0.78213 0.0
H426 H 0.06289 0.83851 0.81482 0.0
H427 H 0.0646 0.88153 0.80879 0.0
H428 H 0.06499 0.85353 0.77065 0.0
H429 H 0.95428 0.85461 0.86878 0.0
H430 H 0.92763 0.87694 0.84068 0.0
H431 H 0.96086 0.89729 0.86353 0.0
C432 C 0.86409 0.08214 0.8959 0.0
C433 C 0.83648 0.08963 0.91052 0.0
C434 C 0.86458 0.06157 0.86548 0.0
C435 C 0.83671 0.04788 0.84946 0.0
C436 C 0.80851 0.05747 0.86238 0.0
C437 C 0.8087 0.07847 0.89289 0.0
C438 C 0.89517 0.05245 0.85233 0.0
C439 C 0.77834 0.0437 0.84571 0.0
C440 C 0.84826 0.00065 0.76317 0.0
C441 C 0.85467 0.9696 0.77593 0.0
C442 C 0.83991 0.02611 0.78632 0.0
C443 C 0.83798 0.02026 0.82293 0.0
C444 C 0.84215 0.98834 0.8353 0.0
C445 C 0.85048 0.96342 0.81166 0.0
C446 C 0.83529 0.05973 0.77209 0.0
C447 C 0.84006 0.98096 0.87412 0.0
H448 H 0.88555 0.09128 0.90929 0.0
H449 H 0.78734 0.08434 0.90423 0.0
H450 H 0.89984 0.02662 0.85821 0.0
H451 H 0.8949 0.05466 0.82302 0.0
H452 H 0.91429 0.06801 0.8652 0.0
H453 H 0.75876 0.05833 0.85383 0.0
H454 H 0.77809 0.04267 0.81617 0.0
H455 H 0.77503 0.01836 0.85434 0.0
H456 H 0.85115 0.00554 0.73549 0.0
H457 H 0.85489 0.93936 0.82161 0.0
H458 H 0.85587 0.07533 0.78003 0.0
H459 H 0.81543 0.0715 0.78349 0.0
H460 H 0.83167 0.05896 0.74251 0.0
H461 H 0.85968 0.99295 0.89033 0.0
H462 H 0.84046 0.95434 0.87861 0.0
H463 H 0.81876 0.99088 0.88403 0.0
C464 C 0.43859 0.2992 0.50295 0.0
C465 C 0.42618 0.33021 0.4983 0.0
C466 C 0.46178 0.28793 0.48216 0.0
C467 C 0.47284 0.30812 0.45605 0.0
C468 C 0.45942 0.33877 0.45002 0.0
C469 C 0.43623 0.34945 0.47121 0.0
C470 C 0.47542 0.25505 0.4893 0.0
C471 C 0.47054 0.36094 0.4223 0.0
C472 C 0.55561 0.30067 0.43457 0.0
C473 C 0.5528 0.2836 0.4014 0.0
C474 C 0.52977 0.3083 0.45279 0.0
C475 C 0.50031 0.29864 0.43749 0.0
C476 C 0.49728 0.28068 0.40446 0.0
C477 C 0.52361 0.27332 0.38677 0.0
C478 C 0.53399 0.32733 0.4881 0.0
C479 C 0.46621 0.2699 0.38745 0.0
H480 H 0.43077 0.28398 0.52356 0.0
H481 H 0.42662 0.37331 0.46719 0.0
H482 H 0.4763 0.24038 0.46401 0.0
H483 H 0.49931 0.25852 0.5011 0.0
H484 H 0.46225 0.24097 0.50791 0.0
H485 H 0.45591 0.38257 0.41866 0.0
H486 H 0.4943 0.36961 0.43044 0.0
H487 H 0.47104 0.34741 0.39624 0.0
H488 H 0.57807 0.30861 0.44617 0.0
H489 H 0.52126 0.26017 0.36112 0.0
H490 H 0.52334 0.3137 0.50908 0.0
H491 H 0.52232 0.35104 0.48601 0.0
H492 H 0.55852 0.33223 0.49678 0.0
H493 H 0.45358 0.25564 0.40636 0.0
H494 H 0.46785 0.25477 0.36255 0.0
H495 H 0.45245 0.29164 0.38103 0.0
C496 C 0.17781 0.98592 0.94726 0.0
C497 C 0.15404 0.98562 0.97031 0.0
C498 C 0.19006 0.0154 0.93604 0.0
C499 C 0.17852 0.04545 0.94844 0.0
C500 C 0.15345 0.04531 0.97019 0.0
C501 C 0.14139 0.01539 0.9807 0.0
C502 C 0.21642 0.01439 0.91236 0.0
C503 C 0.14044 0.07679 0.98394 0.0
C504 C 0.23572 0.11684 0.95803 0.0
C505 C 0.22715 0.13488 0.92812 0.0
C506 C 0.21971 0.08809 0.96518 0.0
C507 C 0.19468 0.07675 0.94158 0.0
C508 C 0.18597 0.09476 0.91119 0.0
C509 C 0.20235 0.12361 0.9048 0.0
C510 C 0.22967 0.06981 0.99803 0.0
C511 C 0.15966 0.08332 0.88518 0.0
H512 H 0.18751 0.96304 0.93874 0.0
H513 H 0.12302 0.01546 0.99848 0.0
H514 H 0.21205 0.03041 0.8895 0.0
H515 H 0.23764 0.02372 0.9277 0.0
H516 H 0.22047 0.98926 0.90186 0.0
H517 H 0.11961 0.07258 0.99843 0.0
H518 H 0.15791 0.09001 0.00231 0.0
H519 H 0.13459 0.09294 0.96155 0.0
H520 H 0.25483 0.12546 0.9762 0.0
H521 H 0.19617 0.13688 0.88108 0.0
H522 H 0.23694 0.04496 0.99015 0.0
H523 H 0.21016 0.0669 0.01494 0.0
H524 H 0.24894 0.08243 0.01429 0.0
H525 H 0.16478 0.05917 0.87297 0.0
H526 H 0.15507 0.10069 0.86356 0.0
H527 H 0.13854 0.08015 0.89935 0.0
C528 C 0.54194 0.6313 0.40573 0.0
C529 C 0.56995 0.64634 0.39914 0.0
C530 C 0.5159 0.63366 0.38201 0.0
C531 C 0.51775 0.65132 0.35059 0.0
C532 C 0.54579 0.66696 0.34388 0.0
C533 C 0.57157 0.66436 0.3683 0.0
C534 C 0.48646 0.61672 0.39039 0.0
C535 C 0.54868 0.68589 0.31063 0.0
C536 C 0.45673 0.62253 0.27892 0.0
C537 C 0.43328 0.64467 0.28422 0.0
C538 C 0.48524 0.62582 0.29855 0.0
C539 C 0.49049 0.6518 0.32433 0.0
C540 C 0.46776 0.67559 0.32796 0.0
C541 C 0.43943 0.6718 0.30776 0.0
C542 C 0.5089 0.60008 0.2935 0.0
C543 C 0.47246 0.70371 0.35504 0.0
H544 H 0.54027 0.61753 0.42957 0.0
H545 H 0.59308 0.67606 0.36296 0.0
H546 H 0.46765 0.63445 0.39047 0.0
H547 H 0.47979 0.59756 0.36943 0.0
H548 H 0.48849 0.60512 0.41665 0.0
H549 H 0.57153 0.69812 0.31024 0.0
H550 H 0.54496 0.66918 0.28672 0.0
H551 H 0.5308 0.70466 0.30846 0.0
H552 H 0.45235 0.60168 0.2605 0.0
H553 H 0.42151 0.68906 0.31203 0.0
H554 H 0.51062 0.5846 0.31711 0.0
H555 H 0.5318 0.61158 0.29129 0.0
H556 H 0.50302 0.58406 0.26936 0.0
H557 H 0.47133 0.69444 0.38226 0.0
H558 H 0.45478 0.72255 0.351 0.0
H559 H 0.49542 0.71537 0.35378 0.0
C560 C 0.36056 0.49278 0.6042 0.0
C561 C 0.34042 0.46723 0.61136 0.0
C562 C 0.35523 0.5251 0.61546 0.0
C563 C 0.32972 0.53178 0.63538 0.0
C564 C 0.31035 0.50572 0.64442 0.0
C565 C 0.31558 0.47381 0.63165 0.0
C566 C 0.37582 0.55224 0.60419 0.0
C567 C 0.28353 0.51167 0.66662 0.0
C568 C 0.32637 0.61521 0.68318 0.0
C569 C 0.30465 0.63068 0.66079 0.0
C570 C 0.33468 0.58286 0.67548 0.0
C571 C 0.3217 0.5662 0.64404 0.0
C572 C 0.30052 0.58228 0.6208 0.0
C573 C 0.29181 0.61408 0.62984 0.0
C574 C 0.3566 0.56622 0.70144 0.0
C575 C 0.28696 0.56587 0.58637 0.0
H576 H 0.37958 0.48774 0.58809 0.0
H577 H 0.30011 0.45399 0.63729 0.0
H578 H 0.36253 0.5679 0.58553 0.0
H579 H 0.38437 0.56801 0.62758 0.0
H580 H 0.39578 0.5428 0.59074 0.0
H581 H 0.27316 0.48852 0.67509 0.0
H582 H 0.29083 0.52714 0.69075 0.0
H583 H 0.26565 0.52499 0.65098 0.0
H584 H 0.33603 0.62803 0.70732 0.0
H585 H 0.27514 0.62621 0.61244 0.0
H586 H 0.37677 0.55767 0.68786 0.0
H587 H 0.34518 0.54434 0.71145 0.0
H588 H 0.36473 0.58258 0.7246 0.0
H589 H 0.30551 0.55693 0.57022 0.0
H590 H 0.2725 0.58255 0.57012 0.0
H591 H 0.2727 0.54435 0.59224 0.0
C592 C 0.04604 0.81262 0.06718 0.0
C593 C 0.04975 0.8467 0.06765 0.0
C594 C 0.02178 0.79781 0.08328 0.0
C595 C 0.00109 0.81747 0.10121 0.0
C596 C 0.00511 0.8519 0.10261 0.0
C597 C 0.02918 0.86617 0.08532 0.0
C598 C 0.01793 0.76104 0.08036 0.0
C599 C 0.98403 0.87359 0.12232 0.0
C600 C 0.92441 0.77535 0.11126 0.0
C601 C 0.92993 0.76089 0.1442 0.0
C602 C 0.94687 0.79527 0.09758 0.0
C603 C 0.97513 0.80152 0.11785 0.0
C604 C 0.97986 0.78878 0.15226 0.0
C605 C 0.95741 0.76808 0.16474 0.0
C606 C 0.94116 0.80779 0.06048 0.0
C607 C 0.00931 0.79555 0.17509 0.0
H608 H 0.06164 0.79743 0.05324 0.0
H609 H 0.03207 0.89253 0.08587 0.0
H610 H 0.0194 0.75091 0.10733 0.0
H611 H 0.99495 0.75419 0.06744 0.0
H612 H 0.03555 0.74937 0.06465 0.0
H613 H 0.99158 0.89967 0.12313 0.0
H614 H 0.96048 0.87145 0.10924 0.0
H615 H 0.98289 0.86566 0.15008 0.0
H616 H 0.90336 0.76933 0.09511 0.0
H617 H 0.96163 0.75691 0.19026 0.0
H618 H 0.95882 0.79855 0.0432 0.0
H619 H 0.94301 0.83484 0.0614 0.0
H620 H 0.91823 0.8002 0.04792 0.0
H621 H 0.02812 0.78182 0.16374 0.0
H622 H 0.00753 0.78819 0.203 0.0
H623 H 0.01573 0.8219 0.17539 0.0
C624 C 0.65849 0.54597 0.57078 0.0
C625 C 0.68091 0.56607 0.55742 0.0
C626 C 0.66385 0.5309 0.60335 0.0
C627 C 0.69241 0.53593 0.62325 0.0
C628 C 0.71523 0.55617 0.61007 0.0
C629 C 0.7092 0.57108 0.57726 0.0
C630 C 0.63878 0.50959 0.61646 0.0
C631 C 0.74593 0.56205 0.63059 0.0
C632 C 0.68511 0.51523 0.71931 0.0
C633 C 0.6919 0.48191 0.71814 0.0
C634 C 0.68788 0.53422 0.68936 0.0
C635 C 0.69783 0.51952 0.65769 0.0
C636 C 0.70782 0.4869 0.65768 0.0
C637 C 0.70469 0.46845 0.68791 0.0
C638 C 0.67725 0.56902 0.69059 0.0
C639 C 0.71899 0.47043 0.62464 0.0
H640 H 0.63649 0.54207 0.55584 0.0
H641 H 0.72662 0.58669 0.56724 0.0
H642 H 0.64705 0.48441 0.6199 0.0
H643 H 0.63251 0.5191 0.64289 0.0
H644 H 0.61782 0.50837 0.59785 0.0
H645 H 0.76117 0.57856 0.61678 0.0
H646 H 0.74272 0.57292 0.65748 0.0
H647 H 0.75752 0.53849 0.63449 0.0
H648 H 0.67548 0.52598 0.74264 0.0
H649 H 0.71045 0.44285 0.68693 0.0
H650 H 0.6543 0.57015 0.67607 0.0
H651 H 0.69302 0.58526 0.67726 0.0
H652 H 0.67552 0.57854 0.71841 0.0
H653 H 0.69914 0.46457 0.60517 0.0
H654 H 0.73086 0.44737 0.63071 0.0
H655 H 0.73483 0.48686 0.61165 0.0
C656 C 0.94107 0.12666 0.10415 0.0
C657 C 0.9185 0.15051 0.10374 0.0
C658 C 0.96075 0.12235 0.13451 0.0
C659 C 0.95796 0.14244 0.16546 0.0
C660 C 0.93523 0.16655 0.16548 0.0
C661 C 0.91563 0.17027 0.13455 0.0
C662 C 0.98458 0.09621 0.13337 0.0
C663 C 0.93174 0.1884 0.19806 0.0
C664 C 0.99499 0.10479 0.24775 0.0
C665 C 0.0247 0.11844 0.24897 0.0
C666 C 0.97219 0.11408 0.22214 0.0
C667 C 0.97925 0.13779 0.19742 0.0
C668 C 0.00855 0.15332 0.20018 0.0
C669 C 0.031 0.14332 0.2258 0.0
C670 C 0.94128 0.0968 0.21992 0.0
C671 C 0.01688 0.17893 0.17454 0.0
H672 H 0.94339 0.11105 0.08063 0.0
H673 H 0.89821 0.18868 0.13448 0.0
H674 H 0.00784 0.10742 0.13849 0.0
H675 H 0.98143 0.07866 0.15461 0.0
H676 H 0.98345 0.08243 0.10727 0.0
H677 H 0.91289 0.20591 0.1938 0.0
H678 H 0.92708 0.17341 0.22108 0.0
H679 H 0.95341 0.20239 0.20537 0.0
H680 H 0.98987 0.08568 0.2657 0.0
H681 H 0.05379 0.15432 0.22691 0.0
H682 H 0.93911 0.07988 0.19607 0.0
H683 H 0.9226 0.11458 0.21686 0.0
H684 H 0.938 0.08244 0.24386 0.0
H685 H 0.0193 0.16714 0.14787 0.0
H686 H 0.03877 0.19199 0.18345 0.0
H687 H 0.99851 0.19707 0.17141 0.0
C688 C 0.21191 0.83411 0.09952 0.0
C689 C 0.18691 0.82161 0.07718 0.0
C690 C 0.22996 0.8136 0.1211 0.0
C691 C 0.22267 0.77977 0.12078 0.0
C692 C 0.19714 0.76707 0.09882 0.0
C693 C 0.17969 0.78809 0.07715 0.0
C694 C 0.25715 0.82807 0.14385 0.0
C695 C 0.18835 0.73122 0.09807 0.0
C696 C 0.2848 0.72049 0.14954 0.0
C697 C 0.27834 0.71483 0.1848 0.0
C698 C 0.2671 0.74183 0.12858 0.0
C699 C 0.24204 0.75759 0.14301 0.0
C700 C 0.23545 0.75205 0.17862 0.0
C701 C 0.25379 0.73093 0.19914 0.0
C702 C 0.27516 0.74743 0.09091 0.0
C703 C 0.20875 0.76809 0.19487 0.0
H704 H 0.21778 0.85994 0.09972 0.0
H705 H 0.16034 0.77821 0.06017 0.0
H706 H 0.25491 0.82299 0.1723 0.0
H707 H 0.27847 0.8165 0.13602 0.0
H708 H 0.2596 0.8549 0.14133 0.0
H709 H 0.16727 0.72539 0.08049 0.0
H710 H 0.20729 0.7165 0.08848 0.0
H711 H 0.18457 0.7236 0.12542 0.0
H712 H 0.30376 0.70824 0.13827 0.0
H713 H 0.24851 0.72657 0.22628 0.0
H714 H 0.27935 0.77387 0.08745 0.0
H715 H 0.2557 0.73949 0.07174 0.0
H716 H 0.29581 0.73399 0.08396 0.0
H717 H 0.21133 0.79504 0.19432 0.0
H718 H 0.20667 0.76125 0.2229 0.0
H719 H 0.18712 0.76101 0.17893 0.0
C720 C 0.72058 0.71357 0.5511 0.0
C721 C 0.7275 0.6948 0.5209 0.0
C722 C 0.74389 0.73069 0.57252 0.0
C723 C 0.7746 0.7293 0.5631 0.0
C724 C 0.78141 0.71124 0.53196 0.0
C725 C 0.75788 0.69409 0.51147 0.0
C726 C 0.73582 0.74943 0.60571 0.0
C727 C 0.81372 0.70947 0.52052 0.0
C728 C 0.83849 0.78973 0.59483 0.0
C729 C 0.85676 0.7707 0.61781 0.0
C730 C 0.81039 0.77748 0.57866 0.0
C731 C 0.80019 0.74559 0.58597 0.0
C732 C 0.81734 0.72738 0.6114 0.0
C733 C 0.84551 0.74006 0.62685 0.0
C734 C 0.79289 0.79767 0.55163 0.0
C735 C 0.80706 0.69348 0.62039 0.0
H736 H 0.69716 0.71407 0.55857 0.0
H737 H 0.76337 0.67996 0.48793 0.0
H738 H 0.74669 0.73803 0.62962 0.0
H739 H 0.7449 0.7749 0.60583 0.0
H740 H 0.71069 0.74995 0.60804 0.0
H741 H 0.81489 0.69565 0.49468 0.0
H742 H 0.82336 0.73444 0.5179 0.0
H743 H 0.82853 0.69744 0.54111 0.0
H744 H 0.84693 0.81349 0.58778 0.0
H745 H 0.8593 0.72533 0.6449 0.0
H746 H 0.76807 0.79706 0.55572 0.0
H747 H 0.79562 0.78725 0.52441 0.0
H748 H 0.8012 0.82351 0.55294 0.0
H749 H 0.78237 0.69296 0.62517 0.0
H750 H 0.82031 0.68462 0.64433 0.0
H751 H 0.81018 0.67625 0.59753 0.0
C752 C 0.78619 0.21275 0.10678 0.0
C753 C 0.78359 0.18143 0.09023 0.0
C754 C 0.76483 0.22347 0.13041 0.0
C755 C 0.74025 0.20239 0.13766 0.0
C756 C 0.73815 0.17032 0.12219 0.0
C757 C 0.75988 0.16019 0.09873 0.0
C758 C 0.76796 0.25777 0.14662 0.0
C759 C 0.7123 0.14711 0.12935 0.0
C760 C 0.69459 0.22344 0.21718 0.0
C761 C 0.66932 0.23907 0.20084 0.0
C762 C 0.71784 0.21121 0.19697 0.0
C763 C 0.71568 0.21462 0.15956 0.0
C764 C 0.69009 0.23008 0.1429 0.0
C765 C 0.66726 0.24217 0.16374 0.0
C766 C 0.74485 0.19494 0.21564 0.0
C767 C 0.68691 0.23405 0.10304 0.0
H768 H 0.80454 0.22927 0.10063 0.0
H769 H 0.75772 0.13589 0.08626 0.0
H770 H 0.74838 0.27239 0.1364 0.0
H771 H 0.76732 0.2574 0.17604 0.0
H772 H 0.78956 0.27025 0.14036 0.0
H773 H 0.71513 0.12229 0.11727 0.0
H774 H 0.71076 0.1451 0.1585 0.0
H775 H 0.69022 0.15674 0.11829 0.0
H776 H 0.69637 0.22099 0.24585 0.0
H777 H 0.64779 0.25416 0.1509 0.0
H778 H 0.76633 0.20847 0.21112 0.0
H779 H 0.74691 0.16974 0.20438 0.0
H780 H 0.74288 0.19382 0.24485 0.0
H781 H 0.70655 0.24875 0.09483 0.0
H782 H 0.66536 0.2462 0.09416 0.0
H783 H 0.68732 0.20982 0.0889 0.0
C784 C 0.30182 0.29573 0.66156 0.0
C785 C 0.30798 0.32887 0.65663 0.0
C786 C 0.29673 0.28445 0.69535 0.0
C787 C 0.29848 0.30678 0.72512 0.0
C788 C 0.30334 0.34054 0.72006 0.0
C789 C 0.30776 0.35127 0.68569 0.0
C790 C 0.29102 0.24836 0.69942 0.0
C791 C 0.30573 0.36504 0.75119 0.0
C792 C 0.2699 0.27636 0.81129 0.0
C793 C 0.29701 0.26521 0.82856 0.0
C794 C 0.27003 0.29058 0.77788 0.0
C795 C 0.298 0.29416 0.76167 0.0
C796 C 0.32554 0.28373 0.77945 0.0
C797 C 0.32467 0.26913 0.8125 0.0
C798 C 0.24017 0.30101 0.75953 0.0
C799 C 0.35593 0.28753 0.76327 0.0
H800 H 0.30175 0.2784 0.63901 0.0
H801 H 0.3128 0.37687 0.68193 0.0
H802 H 0.31108 0.23786 0.71432 0.0
H803 H 0.27085 0.2443 0.71501 0.0
H804 H 0.28708 0.23485 0.67324 0.0
H805 H 0.30613 0.39061 0.7424 0.0
H806 H 0.2863 0.36174 0.7681 0.0
H807 H 0.3271 0.36104 0.7681 0.0
H808 H 0.24845 0.27341 0.82358 0.0
H809 H 0.34575 0.26089 0.82586 0.0
H810 H 0.23518 0.28624 0.73433 0.0
H811 H 0.24192 0.32694 0.75233 0.0
H812 H 0.22064 0.29805 0.77644 0.0
H813 H 0.35575 0.27228 0.73824 0.0
H814 H 0.37547 0.28023 0.78158 0.0
H815 H 0.35976 0.31327 0.75627 0.0
C816 C 0.71465 0.63656 0.35312 0.0
C817 C 0.70617 0.66127 0.37703 0.0
C818 C 0.73433 0.64324 0.32652 0.0
C819 C 0.74588 0.67546 0.32369 0.0
C820 C 0.73584 0.70095 0.34617 0.0
C821 C 0.716 0.69356 0.37263 0.0
C822 C 0.74421 0.61536 0.30288 0.0
C823 C 0.74746 0.73565 0.34374 0.0
C824 C 0.82463 0.67688 0.28853 0.0
C825 C 0.81765 0.68153 0.25211 0.0
C826 C 0.8016 0.67673 0.31249 0.0
C827 C 0.7708 0.68136 0.29974 0.0
C828 C 0.76381 0.68797 0.26341 0.0
C829 C 0.78735 0.68794 0.23997 0.0
C830 C 0.81004 0.66975 0.35109 0.0
C831 C 0.73129 0.69329 0.2489 0.0
H832 H 0.70678 0.61161 0.35605 0.0
H833 H 0.70951 0.71278 0.39099 0.0
H834 H 0.74118 0.62159 0.27441 0.0
H835 H 0.76892 0.61094 0.30913 0.0
H836 H 0.73114 0.59234 0.30646 0.0
H837 H 0.73412 0.75323 0.3592 0.0
H838 H 0.77178 0.73757 0.35438 0.0
H839 H 0.7465 0.74281 0.31553 0.0
H840 H 0.84801 0.67219 0.29821 0.0
H841 H 0.78177 0.69176 0.21189 0.0
H842 H 0.80032 0.64555 0.35717 0.0
H843 H 0.80016 0.68824 0.36895 0.0
H844 H 0.83524 0.66962 0.35738 0.0
H845 H 0.71809 0.66985 0.24812 0.0
H846 H 0.73021 0.70264 0.22151 0.0
H847 H 0.71987 0.71077 0.26653 0.0
C848 C 0.76546 0.21956 0.94432 0.0
C849 C 0.79725 0.22221 0.95238 0.0
C850 C 0.75019 0.2416 0.92202 0.0
C851 C 0.7671 0.26679 0.90715 0.0
C852 C 0.7992 0.26955 0.91495 0.0
C853 C 0.81389 0.24728 0.93757 0.0
C854 C 0.71588 0.23798 0.9145 0.0
C855 C 0.818 0.29598 0.89934 0.0
C856 C 0.72882 0.30363 0.82464 0.0
C857 C 0.71626 0.33195 0.83912 0.0
C858 C 0.74623 0.2827 0.84632 0.0
C859 C 0.75103 0.29017 0.8834 0.0
C860 C 0.73909 0.31913 0.89804 0.0
C861 C 0.72192 0.33974 0.8757 0.0
C862 C 0.75879 0.25215 0.82969 0.0
C863 C 0.74366 0.32785 0.93749 0.0
H864 H 0.75237 0.20035 0.95567 0.0
H865 H 0.83848 0.24944 0.9435 0.0
H866 H 0.7047 0.2607 0.92311 0.0
H867 H 0.7101 0.23416 0.88539 0.0
H868 H 0.70608 0.2172 0.92836 0.0
H869 H 0.84278 0.29466 0.90784 0.0
H870 H 0.81512 0.29396 0.86977 0.0
H871 H 0.80983 0.32036 0.9076 0.0
H872 H 0.72468 0.29752 0.79637 0.0
H873 H 0.71231 0.36157 0.88711 0.0
H874 H 0.74791 0.23029 0.8404 0.0
H875 H 0.7838 0.25096 0.83673 0.0
H876 H 0.75467 0.25093 0.80016 0.0
H877 H 0.73225 0.30906 0.95272 0.0
H878 H 0.73422 0.35205 0.94438 0.0
H879 H 0.76839 0.32813 0.9464 0.0
C880 C 0.30953 0.26807 0.4842 0.0
C881 C 0.2962 0.28637 0.51097 0.0
C882 C 0.29435 0.24046 0.4675 0.0
C883 C 0.26552 0.23045 0.47853 0.0
C884 C 0.25153 0.24944 0.50479 0.0
C885 C 0.2669 0.27744 0.5204 0.0
C886 C 0.30967 0.22135 0.43895 0.0
C887 C 0.22109 0.23925 0.51778 0.0
C888 C 0.21519 0.16779 0.42304 0.0
C889 C 0.22293 0.13882 0.43985 0.0
C890 C 0.22932 0.19778 0.43481 0.0
C891 C 0.25111 0.19884 0.46464 0.0
C892 C 0.25898 0.16963 0.48169 0.0
C893 C 0.24507 0.13993 0.46881 0.0
C894 C 0.22092 0.22828 0.41543 0.0
C895 C 0.28169 0.16981 0.51398 0.0
H896 H 0.33211 0.27509 0.47669 0.0
H897 H 0.25663 0.29139 0.5413 0.0
H898 H 0.31656 0.19729 0.449 0.0
H899 H 0.29345 0.21665 0.41511 0.0
H900 H 0.33037 0.2343 0.43072 0.0
H901 H 0.21252 0.25763 0.53687 0.0
H902 H 0.2037 0.23536 0.49495 0.0
H903 H 0.22344 0.21569 0.53119 0.0
H904 H 0.1982 0.167 0.4005 0.0
H905 H 0.25096 0.11763 0.48207 0.0
H906 H 0.24183 0.24028 0.40656 0.0
H907 H 0.21045 0.24595 0.43372 0.0
H908 H 0.20456 0.22309 0.39176 0.0
H909 H 0.30422 0.17958 0.50713 0.0
H910 H 0.28492 0.14505 0.5245 0.0
H911 H 0.27377 0.18612 0.5355 0.0
C912 C 0.16582 0.84538 0.89621 0.0
C913 C 0.18152 0.84627 0.93008 0.0
C914 C 0.17876 0.83115 0.86657 0.0
C915 C 0.20778 0.81661 0.87112 0.0
C916 C 0.22413 0.81819 0.90516 0.0
C917 C 0.21092 0.83345 0.93425 0.0
C918 C 0.16086 0.83077 0.83061 0.0
C919 C 0.25478 0.80233 0.91122 0.0
C920 C 0.2175 0.74928 0.80122 0.0
C921 C 0.23518 0.76518 0.77729 0.0
C922 C 0.21006 0.76515 0.83304 0.0
C923 C 0.21979 0.79803 0.84058 0.0
C924 C 0.23853 0.81384 0.81708 0.0
C925 C 0.24634 0.79704 0.78588 0.0
C926 C 0.19069 0.74714 0.85786 0.0
C927 C 0.24881 0.84907 0.82376 0.0
H928 H 0.14313 0.85552 0.893 0.0
H929 H 0.22291 0.83388 0.96056 0.0
H930 H 0.17542 0.84016 0.81017 0.0
H931 H 0.1538 0.80532 0.8222 0.0
H932 H 0.13998 0.8457 0.831 0.0
H933 H 0.26559 0.8079 0.9385 0.0
H934 H 0.25176 0.77545 0.90734 0.0
H935 H 0.27063 0.81049 0.89149 0.0
H936 H 0.20906 0.72454 0.79478 0.0
H937 H 0.25986 0.80948 0.76731 0.0
H938 H 0.16757 0.75776 0.85728 0.0
H939 H 0.20097 0.74988 0.88572 0.0
H940 H 0.18809 0.72069 0.85033 0.0
H941 H 0.22861 0.86496 0.82096 0.0
H942 H 0.26555 0.85685 0.8048 0.0
H943 H 0.25932 0.85309 0.85137 0.0
loop_
_geom_bond_atom_site_label_1
_geom_bond_atom_site_label_2
_geom_bond_distance
_geom_bond_site_symmetry_2
_ccdc_geom_bond_type
Fe0 O2 1.917 1_554 S
Fe0 O5 1.997 . S
Fe0 O6 2.002 . S
Fe0 O11 1.976 1_554 S
Fe0 O14 1.996 1_554 S
Fe1 O2 1.917 1_554 S
Fe1 O9 1.997 . S
Fe1 O12 1.996 1_554 S
Fe1 O16 1.976 1_554 S
Fe1 O19 2.002 . S
O2 Fe0 1.917 1_556 S
O2 Fe1 1.917 1_556 S
O2 Fe3 1.920 . S
Fe3 O2 1.920 . S
Fe3 O4 2.002 1_556 S
Fe3 O13 1.976 . S
Fe3 O17 1.996 . S
Fe3 O20 1.997 1_556 S
O4 Fe3 2.002 1_554 S
O4 C21 1.295 . S
O5 Fe0 1.997 . S
O5 C21 1.235 . S
O6 Fe0 2.002 . S
O6 C7 1.295 . S
C7 O6 1.295 . S
C7 O9 1.235 . S
C8 O13 1.287 . S
C8 O14 1.255 . S
O9 Fe1 1.997 . S
O9 C7 1.235 . S
C10 O16 1.287 . S
C10 O17 1.255 . S
O11 Fe0 1.976 1_556 S
O11 C18 1.287 . S
O12 Fe1 1.996 1_556 S
O12 C18 1.255 . S
O13 Fe3 1.976 . S
O13 C8 1.287 . S
O14 Fe0 1.996 1_556 S
O14 C8 1.255 . S
C15 O19 1.295 . S
C15 O20 1.235 . S
O16 Fe1 1.976 1_556 S
O16 C10 1.287 . S
O17 Fe3 1.996 . S
O17 C10 1.255 . S
C18 O11 1.287 . S
C18 O12 1.255 . S
O19 Fe1 2.002 . S
O19 C15 1.295 . S
O20 Fe3 1.997 1_554 S
O20 C15 1.235 . S
C21 O4 1.295 . S
C21 O5 1.235 . S
Fe22 O24 1.918 . S
Fe22 O27 1.997 . S
Fe22 O28 2.002 . S
Fe22 O33 1.976 . S
Fe22 O36 1.996 . S
Fe23 O24 1.918 . S
Fe23 O31 1.997 . S
Fe23 O34 1.996 . S
Fe23 O38 1.976 . S
Fe23 O41 2.002 . S
O24 Fe22 1.918 . S
O24 Fe23 1.918 . S
O24 Fe25 1.918 . S
Fe25 O24 1.918 . S
Fe25 O26 2.002 . S
Fe25 O35 1.976 . S
Fe25 O39 1.996 . S
Fe25 O42 1.997 . S
O26 Fe25 2.002 . S
O26 C43 1.295 . S
O27 Fe22 1.997 . S
O27 C43 1.235 . S
O28 Fe22 2.002 . S
O28 C29 1.295 . S
C29 O28 1.295 . S
C29 O31 1.235 . S
C30 O35 1.287 . S
C30 O36 1.255 . S
O31 Fe23 1.997 . S
O31 C29 1.235 . S
C32 O38 1.287 . S
C32 O39 1.255 . S
O33 Fe22 1.976 . S
O33 C40 1.287 . S
O34 Fe23 1.996 . S
O34 C40 1.255 . S
O35 Fe25 1.976 . S
O35 C30 1.287 . S
O36 Fe22 1.996 . S
O36 C30 1.255 . S
C37 O41 1.295 . S
C37 O42 1.235 . S
O38 Fe23 1.976 . S
O38 C32 1.287 . S
O39 Fe25 1.996 . S
O39 C32 1.255 . S
C40 O33 1.287 . S
C40 O34 1.255 . S
O41 Fe23 2.002 . S
O41 C37 1.295 . S
O42 Fe25 1.997 . S
O42 C37 1.235 . S
C43 O26 1.295 . S
C43 O27 1.235 . S
Fe44 O46 1.918 . S
Fe44 O49 1.997 . S
Fe44 O50 2.002 . S
Fe44 O55 1.976 . S
Fe44 O58 1.996 . S
Fe45 O46 1.918 . S
Fe45 O53 1.997 . S
Fe45 O56 1.996 . S
Fe45 O60 1.976 . S
Fe45 O63 2.002 1_554 S
O46 Fe44 1.918 . S
O46 Fe45 1.918 . S
O46 Fe47 1.918 . S
Fe47 O46 1.918 . S
Fe47 O48 2.002 1_554 S
Fe47 O57 1.976 . S
Fe47 O61 1.996 . S
Fe47 O64 1.997 1_554 S
O48 Fe47 2.002 1_556 S
O48 C65 1.295 . S
O49 Fe44 1.997 . S
O49 C65 1.235 1_554 S
O50 Fe44 2.002 . S
O50 C51 1.295 . S
C51 O50 1.295 . S
C51 O53 1.235 . S
C52 O57 1.287 . S
C52 O58 1.255 . S
O53 Fe45 1.997 . S
O53 C51 1.235 . S
C54 O60 1.287 . S
C54 O61 1.255 . S
O55 Fe44 1.976 . S
O55 C62 1.287 . S
O56 Fe45 1.996 . S
O56 C62 1.255 . S
O57 Fe47 1.976 . S
O57 C52 1.287 . S
O58 Fe44 1.996 . S
O58 C52 1.255 . S
C59 O63 1.295 . S
C59 O64 1.235 . S
O60 Fe45 1.976 . S
O60 C54 1.287 . S
O61 Fe47 1.996 . S
O61 C54 1.255 . S
C62 O55 1.287 . S
C62 O56 1.255 . S
O63 Fe45 2.002 1_556 S
O63 C59 1.295 . S
O64 Fe47 1.997 1_556 S
O64 C59 1.235 . S
C65 O48 1.295 . S
C65 O49 1.235 1_556 S
Fe66 O68 1.918 . S
Fe66 O71 1.997 . S
Fe66 O72 2.002 . S
Fe66 O77 1.976 . S
Fe66 O80 1.996 . S
Fe67 O68 1.918 . S
Fe67 O75 1.997 . S
Fe67 O78 1.996 . S
Fe67 O82 1.976 . S
Fe67 O85 2.002 . S
O68 Fe66 1.918 . S
O68 Fe67 1.918 . S
O68 Fe69 1.918 . S
Fe69 O68 1.918 . S
Fe69 O70 2.002 . S
Fe69 O79 1.976 . S
Fe69 O83 1.996 . S
Fe69 O86 1.997 . S
O70 Fe69 2.002 . S
O70 C87 1.295 . S
O71 Fe66 1.997 . S
O71 C87 1.235 . S
O72 Fe66 2.002 . S
O72 C73 1.295 . S
C73 O72 1.295 . S
C73 O75 1.235 . S
C74 O79 1.287 . S
C74 O80 1.255 . S
O75 Fe67 1.997 . S
O75 C73 1.235 . S
C76 O82 1.287 . S
C76 O83 1.255 . S
O77 Fe66 1.976 . S
O77 C84 1.287 . S
O78 Fe67 1.996 . S
O78 C84 1.255 . S
O79 Fe69 1.976 . S
O79 C74 1.287 . S
O80 Fe66 1.996 . S
O80 C74 1.255 . S
C81 O85 1.295 . S
C81 O86 1.235 . S
O82 Fe67 1.976 . S
O82 C76 1.287 . S
O83 Fe69 1.996 . S
O83 C76 1.255 . S
C84 O77 1.287 . S
C84 O78 1.255 . S
O85 Fe67 2.002 . S
O85 C81 1.295 . S
O86 Fe69 1.997 . S
O86 C81 1.235 . S
C87 O70 1.295 . S
C87 O71 1.235 . S
O88 Cd89 2.300 . S
O88 C95 1.275 . S
Cd89 O88 2.300 . S
Cd89 O97 2.381 . S
Cd89 O98 2.378 . S
O90 Cd91 2.385 . S
O90 C95 1.255 . S
Cd91 O90 2.385 . S
Cd91 O92 2.317 . S
O92 Cd91 2.317 . S
O92 C93 1.232 . S
C93 O92 1.232 . S
C93 O94 1.218 . S
O94 C93 1.218 . S
C95 O88 1.275 . S
C95 O90 1.255 . S
C96 O97 1.258 . S
C96 O98 1.256 . S
O97 Cd89 2.381 . S
O97 C96 1.258 . S
O98 Cd89 2.378 . S
O98 C96 1.256 . S
O99 Cd100 2.300 . S
O99 C106 1.275 . S
Cd100 O99 2.300 . S
Cd100 O108 2.381 . S
Cd100 O109 2.378 . S
O101 Cd102 2.385 . S
O101 C106 1.255 . S
Cd102 O101 2.385 . S
Cd102 O103 2.317 . S
O103 Cd102 2.317 . S
O103 C104 1.232 . S
C104 O103 1.232 . S
C104 O105 1.218 . S
O105 C104 1.218 . S
C106 O99 1.275 . S
C106 O101 1.255 . S
C107 O108 1.258 . S
C107 O109 1.256 . S
O108 Cd100 2.381 . S
O108 C107 1.258 . S
O109 Cd100 2.378 . S
O109 C107 1.256 . S
O110 Cd111 2.300 . S
O110 C117 1.275 . S
Cd111 O110 2.300 . S
Cd111 O119 2.381 . S
Cd111 O120 2.378 . S
O112 Cd113 2.385 . S
O112 C117 1.255 . S
Cd113 O112 2.385 . S
Cd113 O114 2.317 . S
O114 Cd113 2.317 . S
O114 C115 1.232 . S
C115 O114 1.232 . S
C115 O116 1.218 . S
O116 C115 1.218 . S
C117 O110 1.275 . S
C117 O112 1.255 . S
C118 O119 1.258 . S
C118 O120 1.256 . S
O119 Cd111 2.381 . S
O119 C118 1.258 . S
O120 Cd111 2.378 . S
O120 C118 1.256 . S
O121 Cd122 2.300 . S
O121 C128 1.275 . S
Cd122 O121 2.300 . S
Cd122 O130 2.381 . S
Cd122 O131 2.378 . S
O123 Cd124 2.385 . S
O123 C128 1.255 . S
Cd124 O123 2.385 . S
Cd124 O125 2.317 . S
O125 Cd124 2.317 . S
O125 C126 1.232 . S
C126 O125 1.232 . S
C126 O127 1.218 . S
O127 C126 1.218 . S
C128 O121 1.275 . S
C128 O123 1.255 . S
C129 O130 1.258 . S
C129 O131 1.256 . S
O130 Cd122 2.381 . S
O130 C129 1.258 . S
O131 Cd122 2.378 . S
O131 C129 1.256 . S
O132 Cd133 2.300 . S
O132 C139 1.275 . S
Cd133 O132 2.300 . S
Cd133 O141 2.381 . S
Cd133 O142 2.378 . S
O134 Cd135 2.385 . S
O134 C139 1.255 . S
Cd135 O134 2.385 . S
Cd135 O136 2.317 . S
O136 Cd135 2.317 . S
O136 C137 1.232 . S
C137 O136 1.232 . S
C137 O138 1.218 . S
O138 C137 1.218 . S
C139 O132 1.275 . S
C139 O134 1.255 . S
C140 O141 1.258 . S
C140 O142 1.256 . S
O141 Cd133 2.381 . S
O141 C140 1.258 . S
O142 Cd133 2.378 . S
O142 C140 1.256 . S
O143 Cd144 2.300 . S
O143 C150 1.275 . S
Cd144 O143 2.300 . S
Cd144 O152 2.381 . S
Cd144 O153 2.378 . S
O145 Cd146 2.385 . S
O145 C150 1.255 . S
Cd146 O145 2.385 . S
Cd146 O147 2.317 . S
O147 Cd146 2.317 . S
O147 C148 1.232 . S
C148 O147 1.232 . S
C148 O149 1.218 . S
O149 C148 1.218 . S
C150 O143 1.275 . S
C150 O145 1.255 . S
C151 O152 1.258 . S
C151 O153 1.256 . S
O152 Cd144 2.381 . S
O152 C151 1.258 . S
O153 Cd144 2.378 . S
O153 C151 1.256 . S
O154 Cd155 2.300 . S
O154 C161 1.275 . S
Cd155 O154 2.300 . S
Cd155 O163 2.381 . S
Cd155 O164 2.378 . S
O156 Cd157 2.385 . S
O156 C161 1.255 . S
Cd157 O156 2.385 . S
Cd157 O158 2.317 . S
O158 Cd157 2.317 . S
O158 C159 1.232 . S
C159 O158 1.232 . S
C159 O160 1.218 . S
O160 C159 1.218 . S
C161 O154 1.275 . S
C161 O156 1.255 . S
C162 O163 1.258 . S
C162 O164 1.256 . S
O163 Cd155 2.381 . S
O163 C162 1.258 . S
O164 Cd155 2.378 . S
O164 C162 1.256 . S
O165 Cd166 2.300 . S
O165 C172 1.275 . S
Cd166 O165 2.300 . S
Cd166 O174 2.381 . S
Cd166 O175 2.378 . S
O167 Cd168 2.385 . S
O167 C172 1.255 . S
Cd168 O167 2.385 . S
Cd168 O169 2.317 . S
O169 Cd168 2.317 . S
O169 C170 1.232 . S
C170 O169 1.232 . S
C170 O171 1.218 . S
O171 C170 1.218 . S
C172 O165 1.275 . S
C172 O167 1.255 . S
C173 O174 1.258 . S
C173 O175 1.256 . S
O174 Cd166 2.381 . S
O174 C173 1.258 . S
O175 Cd166 2.378 . S
O175 C173 1.256 . S
C176 C177 1.391 . S
C176 C178 1.394 . S
C176 H192 0.931 . S
C177 C176 1.391 . S
C177 C181 1.376 . S
C178 C176 1.394 . S
C178 C179 1.369 . S
C178 C182 1.531 . S
C179 C178 1.369 . S
C179 C180 1.410 . S
C179 C187 1.503 . S
C180 C179 1.410 . S
C180 C181 1.392 . S
C180 C183 1.511 . S
C181 C177 1.376 . S
C181 C180 1.392 . S
C181 H193 0.929 . S
C182 C178 1.531 . S
C182 H194 0.960 . S
C182 H195 0.962 . S
C182 H196 0.960 . S
C183 C180 1.511 . S
C183 H197 0.961 . S
C183 H198 0.961 . S
C183 H199 0.961 1_565 S
C184 C185 1.370 1_565 S
C184 C186 1.363 . S
C184 H200 0.931 . S
C185 C184 1.370 1_545 S
C185 C189 1.408 . S
C186 C184 1.363 . S
C186 C187 1.370 . S
C186 C190 1.524 . S
C187 C179 1.503 . S
C187 C186 1.370 . S
C187 C188 1.403 1_565 S
C188 C187 1.403 1_545 S
C188 C189 1.404 . S
C188 C191 1.539 . S
C189 C185 1.408 . S
C189 C188 1.404 . S
C189 H201 0.930 . S
C190 C186 1.524 . S
C190 H202 0.956 . S
C190 H203 0.961 . S
C190 H204 0.961 . S
C191 C188 1.539 . S
C191 H205 0.958 . S
C191 H206 0.961 . S
C191 H207 0.960 . S
H192 C176 0.931 . S
H193 C181 0.929 . S
H194 C182 0.960 . S
H195 C182 0.962 . S
H196 C182 0.960 . S
H197 C183 0.961 . S
H198 C183 0.961 . S
H199 C183 0.961 1_545 S
H200 C184 0.931 . S
H201 C189 0.930 . S
H202 C190 0.956 . S
H203 C190 0.961 . S
H204 C190 0.961 . S
H205 C191 0.958 . S
H206 C191 0.961 . S
H207 C191 0.960 . S
C208 C209 1.391 . S
C208 C210 1.394 . S
C208 H224 0.931 . S
C209 C208 1.391 . S
C209 C213 1.376 . S
C210 C208 1.394 . S
C210 C211 1.369 . S
C210 C214 1.531 . S
C211 C210 1.369 . S
C211 C212 1.410 . S
C211 C219 1.503 . S
C212 C211 1.410 . S
C212 C213 1.392 . S
C212 C215 1.511 . S
C213 C209 1.376 . S
C213 C212 1.392 . S
C213 H225 0.929 . S
C214 C210 1.531 . S
C214 H226 0.960 . S
C214 H227 0.962 . S
C214 H228 0.960 . S
C215 C212 1.511 . S
C215 H229 0.961 . S
C215 H230 0.961 . S
C215 H231 0.961 . S
C216 C217 1.370 . S
C216 C218 1.363 . S
C216 H232 0.931 . S
C217 C216 1.370 . S
C217 C221 1.408 . S
C218 C216 1.363 . S
C218 C219 1.370 . S
C218 C222 1.524 . S
C219 C211 1.503 . S
C219 C218 1.370 . S
C219 C220 1.403 . S
C220 C219 1.403 . S
C220 C221 1.404 . S
C220 C223 1.539 . S
C221 C217 1.408 . S
C221 C220 1.404 . S
C221 H233 0.930 . S
C222 C218 1.524 . S
C222 H234 0.956 . S
C222 H235 0.961 . S
C222 H236 0.961 . S
C223 C220 1.539 . S
C223 H237 0.958 . S
C223 H238 0.961 . S
C223 H239 0.960 . S
H224 C208 0.931 . S
H225 C213 0.929 . S
H226 C214 0.960 . S
H227 C214 0.962 . S
H228 C214 0.960 . S
H229 C215 0.961 . S
H230 C215 0.961 . S
H231 C215 0.961 . S
H232 C216 0.931 . S
H233 C221 0.930 . S
H234 C222 0.956 . S
H235 C222 0.961 . S
H236 C222 0.961 . S
H237 C223 0.958 . S
H238 C223 0.961 . S
H239 C223 0.960 . S
C240 C241 1.391 . S
C240 C242 1.394 1_545 S
C240 H256 0.931 . S
C241 C240 1.391 . S
C241 C245 1.376 . S
C242 C240 1.394 1_565 S
C242 C243 1.369 . S
C242 C246 1.531 . S
C243 C242 1.369 . S
C243 C244 1.410 . S
C243 C251 1.503 . S
C244 C243 1.410 . S
C244 C245 1.392 1_565 S
C244 C247 1.511 . S
C245 C241 1.376 . S
C245 C244 1.392 1_545 S
C245 H257 0.929 . S
C246 C242 1.531 . S
C246 H258 0.960 . S
C246 H259 0.962 . S
C246 H260 0.960 . S
C247 C244 1.511 . S
C247 H261 0.961 . S
C247 H262 0.961 . S
C247 H263 0.961 . S
C248 C249 1.370 . S
C248 C250 1.363 . S
C248 H264 0.931 . S
C249 C248 1.370 . S
C249 C253 1.408 . S
C250 C248 1.363 . S
C250 C251 1.370 . S
C250 C254 1.524 . S
C251 C243 1.503 . S
C251 C250 1.370 . S
C251 C252 1.403 . S
C252 C251 1.403 . S
C252 C253 1.404 . S
C252 C255 1.539 . S
C253 C249 1.408 . S
C253 C252 1.404 . S
C253 H265 0.930 . S
C254 C250 1.524 . S
C254 H266 0.956 . S
C254 H267 0.961 . S
C254 H268 0.961 . S
C255 C252 1.539 . S
C255 H269 0.958 1_554 S
C255 H270 0.961 1_554 S
C255 H271 0.960 . S
H256 C240 0.931 . S
H257 C245 0.929 . S
H258 C246 0.960 . S
H259 C246 0.962 . S
H260 C246 0.960 . S
H261 C247 0.961 . S
H262 C247 0.961 . S
H263 C247 0.961 . S
H264 C248 0.931 . S
H265 C253 0.930 . S
H266 C254 0.956 . S
H267 C254 0.961 . S
H268 C254 0.961 . S
H269 C255 0.958 1_556 S
H270 C255 0.961 1_556 S
H271 C255 0.960 . S
C272 C273 1.391 . S
C272 C274 1.394 . S
C272 H288 0.931 . S
C273 C272 1.391 . S
C273 C277 1.376 . S
C274 C272 1.394 . S
C274 C275 1.369 . S
C274 C278 1.531 . S
C275 C274 1.369 . S
C275 C276 1.410 . S
C275 C283 1.503 . S
C276 C275 1.410 . S
C276 C277 1.392 . S
C276 C279 1.511 . S
C277 C273 1.376 . S
C277 C276 1.392 . S
C277 H289 0.929 . S
C278 C274 1.531 . S
C278 H290 0.960 . S
C278 H291 0.962 . S
C278 H292 0.960 . S
C279 C276 1.511 . S
C279 H293 0.961 . S
C279 H294 0.961 . S
C279 H295 0.961 . S
C280 C281 1.370 . S
C280 C282 1.363 . S
C280 H296 0.931 . S
C281 C280 1.370 . S
C281 C285 1.408 . S
C282 C280 1.363 . S
C282 C283 1.370 . S
C282 C286 1.524 . S
C283 C275 1.503 . S
C283 C282 1.370 . S
C283 C284 1.403 . S
C284 C283 1.403 . S
C284 C285 1.404 . S
C284 C287 1.539 . S
C285 C281 1.408 . S
C285 C284 1.404 . S
C285 H297 0.930 . S
C286 C282 1.524 . S
C286 H298 0.956 . S
C286 H299 0.961 . S
C286 H300 0.961 . S
C287 C284 1.539 . S
C287 H301 0.958 . S
C287 H302 0.961 . S
C287 H303 0.960 . S
H288 C272 0.931 . S
H289 C277 0.929 . S
H290 C278 0.960 . S
H291 C278 0.962 . S
H292 C278 0.960 . S
H293 C279 0.961 . S
H294 C279 0.961 . S
H295 C279 0.961 . S
H296 C280 0.931 . S
H297 C285 0.930 . S
H298 C286 0.956 . S
H299 C286 0.961 . S
H300 C286 0.961 . S
H301 C287 0.958 . S
H302 C287 0.961 . S
H303 C287 0.960 . S
C304 C305 1.391 . S
C304 C306 1.394 . S
C304 H320 0.931 . S
C305 C304 1.391 . S
C305 C309 1.376 . S
C306 C304 1.394 . S
C306 C307 1.369 . S
C306 C310 1.531 . S
C307 C306 1.369 . S
C307 C308 1.410 . S
C307 C315 1.503 . S
C308 C307 1.410 . S
C308 C309 1.392 . S
C308 C311 1.511 . S
C309 C305 1.376 . S
C309 C308 1.392 . S
C309 H321 0.929 . S
C310 C306 1.531 . S
C310 H322 0.960 . S
C310 H323 0.962 . S
C310 H324 0.960 . S
C311 C308 1.511 . S
C311 H325 0.961 . S
C311 H326 0.961 . S
C311 H327 0.961 . S
C312 C313 1.370 . S
C312 C314 1.363 . S
C312 H328 0.931 . S
C313 C312 1.370 . S
C313 C317 1.408 . S
C314 C312 1.363 . S
C314 C315 1.370 . S
C314 C318 1.524 . S
C315 C307 1.503 . S
C315 C314 1.370 . S
C315 C316 1.403 . S
C316 C315 1.403 . S
C316 C317 1.404 . S
C316 C319 1.539 . S
C317 C313 1.408 . S
C317 C316 1.404 . S
C317 H329 0.930 . S
C318 C314 1.524 . S
C318 H330 0.956 . S
C318 H331 0.961 . S
C318 H332 0.961 . S
C319 C316 1.539 . S
C319 H333 0.958 . S
C319 H334 0.961 . S
C319 H335 0.960 . S
H320 C304 0.931 . S
H321 C309 0.929 . S
H322 C310 0.960 . S
H323 C310 0.962 . S
H324 C310 0.960 . S
H325 C311 0.961 . S
H326 C311 0.961 . S
H327 C311 0.961 . S
H328 C312 0.931 . S
H329 C317 0.930 . S
H330 C318 0.956 . S
H331 C318 0.961 . S
H332 C318 0.961 . S
H333 C319 0.958 . S
H334 C319 0.961 . S
H335 C319 0.960 . S
C336 C337 1.391 . S
C336 C338 1.394 . S
C336 H352 0.931 . S
C337 C336 1.391 . S
C337 C341 1.376 1_556 S
C338 C336 1.394 . S
C338 C339 1.369 . S
C338 C342 1.516 1_655 S
C339 C338 1.369 . S
C339 C340 1.410 . S
C339 C347 1.503 1_655 S
C340 C339 1.410 . S
C340 C341 1.392 1_556 S
C340 C343 1.511 1_556 S
C341 C337 1.376 1_554 S
C341 C340 1.392 1_554 S
C341 H353 0.929 . S
C342 C338 1.516 1_455 S
C342 H354 0.976 . S
C342 H355 0.978 . S
C342 H356 0.943 1_455 S
C343 C340 1.511 1_554 S
C343 H357 0.961 . S
C343 H358 0.961 1_655 S
C343 H359 0.961 1_554 S
C344 C345 1.370 . S
C344 C346 1.363 . S
C344 H360 0.931 . S
C345 C344 1.370 . S
C345 C349 1.408 . S
C346 C344 1.363 . S
C346 C347 1.370 . S
C346 C350 1.524 1_556 S
C347 C339 1.503 1_455 S
C347 C346 1.370 . S
C347 C348 1.403 . S
C348 C347 1.403 . S
C348 C349 1.404 . S
C348 C351 1.539 . S
C349 C345 1.408 . S
C349 C348 1.404 . S
C349 H361 0.930 . S
C350 C346 1.524 1_554 S
C350 H362 0.956 1_554 S
C350 H363 0.961 . S
C350 H364 0.961 . S
C351 C348 1.539 . S
C351 H365 0.958 . S
C351 H366 0.961 . S
C351 H367 0.960 1_455 S
H352 C336 0.931 . S
H353 C341 0.929 . S
H354 C342 0.976 . S
H355 C342 0.978 . S
H356 C342 0.943 1_655 S
H357 C343 0.961 . S
H358 C343 0.961 1_455 S
H359 C343 0.961 1_556 S
H360 C344 0.931 . S
H361 C349 0.930 . S
H362 C350 0.956 1_556 S
H363 C350 0.961 . S
H364 C350 0.961 . S
H365 C351 0.958 . S
H366 C351 0.961 . S
H367 C351 0.960 1_655 S
C368 C369 1.391 . S
C368 C370 1.394 . S
C368 H384 0.931 . S
C369 C368 1.391 . S
C369 C373 1.376 . S
C370 C368 1.394 . S
C370 C371 1.369 . S
C370 C374 1.531 . S
C371 C370 1.369 . S
C371 C372 1.410 . S
C371 C379 1.503 . S
C372 C371 1.410 . S
C372 C373 1.392 . S
C372 C375 1.511 . S
C373 C369 1.376 . S
C373 C372 1.392 . S
C373 H385 0.929 . S
C374 C370 1.531 . S
C374 H386 0.960 . S
C374 H387 0.962 . S
C374 H388 0.960 . S
C375 C372 1.511 . S
C375 H389 0.961 . S
C375 H390 0.961 . S
C375 H391 0.961 . S
C376 C377 1.370 . S
C376 C378 1.363 . S
C376 H392 0.931 . S
C377 C376 1.370 . S
C377 C381 1.408 . S
C378 C376 1.363 . S
C378 C379 1.370 . S
C378 C382 1.524 . S
C379 C371 1.503 . S
C379 C378 1.370 . S
C379 C380 1.403 . S
C380 C379 1.403 . S
C380 C381 1.404 . S
C380 C383 1.539 . S
C381 C377 1.408 . S
C381 C380 1.404 . S
C381 H393 0.930 . S
C382 C378 1.524 . S
C382 H394 0.956 . S
C382 H395 0.961 . S
C382 H396 0.961 . S
C383 C380 1.539 . S
C383 H397 0.958 . S
C383 H398 0.961 . S
C383 H399 0.960 . S
H384 C368 0.931 . S
H385 C373 0.929 . S
H386 C374 0.960 . S
H387 C374 0.962 . S
H388 C374 0.960 . S
H389 C375 0.961 . S
H390 C375 0.961 . S
H391 C375 0.961 . S
H392 C376 0.931 . S
H393 C381 0.930 . S
H394 C382 0.956 . S
H395 C382 0.961 . S
H396 C382 0.961 . S
H397 C383 0.958 . S
H398 C383 0.961 . S
H399 C383 0.960 . S
C400 C401 1.391 . S
C400 C402 1.394 . S
C400 H416 0.931 . S
C401 C400 1.391 . S
C401 C405 1.376 . S
C402 C400 1.394 . S
C402 C403 1.369 . S
C402 C406 1.531 1_455 S
C403 C402 1.369 . S
C403 C404 1.410 . S
C403 C411 1.503 1_455 S
C404 C403 1.410 . S
C404 C405 1.392 . S
C404 C407 1.511 . S
C405 C401 1.376 . S
C405 C404 1.392 . S
C405 H417 0.929 . S
C406 C402 1.531 1_655 S
C406 H418 0.960 . S
C406 H419 0.962 . S
C406 H420 0.960 . S
C407 C404 1.511 . S
C407 H421 0.961 . S
C407 H422 0.961 . S
C407 H423 0.961 . S
C408 C409 1.370 . S
C408 C410 1.363 . S
C408 H424 0.931 . S
C409 C408 1.370 . S
C409 C413 1.408 . S
C410 C408 1.363 . S
C410 C411 1.370 . S
C410 C414 1.524 1_655 S
C411 C403 1.503 1_655 S
C411 C410 1.370 . S
C411 C412 1.403 . S
C412 C411 1.403 . S
C412 C413 1.404 . S
C412 C415 1.539 . S
C413 C409 1.408 . S
C413 C412 1.404 . S
C413 H425 0.930 . S
C414 C410 1.524 1_455 S
C414 H426 0.956 . S
C414 H427 0.961 . S
C414 H428 0.961 . S
C415 C412 1.539 . S
C415 H429 0.958 . S
C415 H430 0.961 . S
C415 H431 0.960 . S
H416 C400 0.931 . S
H417 C405 0.929 . S
H418 C406 0.960 . S
H419 C406 0.962 . S
H420 C406 0.960 . S
H421 C407 0.961 . S
H422 C407 0.961 . S
H423 C407 0.961 . S
H424 C408 0.931 . S
H425 C413 0.930 . S
H426 C414 0.956 . S
H427 C414 0.961 . S
H428 C414 0.961 . S
H429 C415 0.958 . S
H430 C415 0.961 . S
H431 C415 0.960 . S
C432 C433 1.391 . S
C432 C434 1.394 . S
C432 H448 0.931 . S
C433 C432 1.391 . S
C433 C437 1.376 . S
C434 C432 1.394 . S
C434 C435 1.369 . S
C434 C438 1.531 . S
C435 C434 1.369 . S
C435 C436 1.410 . S
C435 C443 1.503 . S
C436 C435 1.410 . S
C436 C437 1.392 . S
C436 C439 1.511 . S
C437 C433 1.376 . S
C437 C436 1.392 . S
C437 H449 0.929 . S
C438 C434 1.531 . S
C438 H450 0.960 1_545 S
C438 H451 0.962 . S
C438 H452 0.960 1_545 S
C439 C436 1.511 . S
C439 H453 0.961 . S
C439 H454 0.961 . S
C439 H455 0.961 . S
C440 C441 1.370 1_545 S
C440 C442 1.363 . S
C440 H456 0.931 . S
C441 C440 1.370 1_565 S
C441 C445 1.408 . S
C442 C440 1.363 . S
C442 C443 1.370 . S
C442 C446 1.524 . S
C443 C435 1.503 . S
C443 C442 1.370 . S
C443 C444 1.403 1_545 S
C444 C443 1.403 1_565 S
C444 C445 1.404 . S
C444 C447 1.539 . S
C445 C441 1.408 . S
C445 C444 1.404 . S
C445 H457 0.930 . S
C446 C442 1.524 . S
C446 H458 0.956 . S
C446 H459 0.961 . S
C446 H460 0.961 . S
C447 C444 1.539 . S
C447 H461 0.958 . S
C447 H462 0.961 . S
C447 H463 0.970 . S
H448 C432 0.931 . S
H449 C437 0.929 . S
H450 C438 0.960 1_565 S
H451 C438 0.962 . S
H452 C438 0.960 1_565 S
H453 C439 0.961 . S
H454 C439 0.961 . S
H455 C439 0.961 . S
H456 C440 0.931 . S
H457 C445 0.930 . S
H458 C446 0.956 . S
H459 C446 0.961 . S
H460 C446 0.961 . S
H461 C447 0.958 . S
H462 C447 0.961 . S
H463 C447 0.970 . S
C464 C465 1.391 . S
C464 C466 1.394 . S
C464 H480 0.931 . S
C465 C464 1.391 . S
C465 C469 1.376 . S
C466 C464 1.394 . S
C466 C467 1.369 . S
C466 C470 1.531 . S
C467 C466 1.369 . S
C467 C468 1.410 . S
C467 C475 1.503 . S
C468 C467 1.410 . S
C468 C469 1.392 . S
C468 C471 1.511 . S
C469 C465 1.376 . S
C469 C468 1.392 . S
C469 H481 0.929 . S
C470 C466 1.531 . S
C470 H482 0.960 . S
C470 H483 0.962 . S
C470 H484 0.960 . S
C471 C468 1.511 . S
C471 H485 0.961 . S
C471 H486 0.961 . S
C471 H487 0.961 . S
C472 C473 1.370 . S
C472 C474 1.363 . S
C472 H488 0.931 . S
C473 C472 1.370 . S
C473 C477 1.408 . S
C474 C472 1.363 . S
C474 C475 1.370 . S
C474 C478 1.524 . S
C475 C467 1.503 . S
C475 C474 1.370 . S
C475 C476 1.403 . S
C476 C475 1.403 . S
C476 C477 1.404 . S
C476 C479 1.539 . S
C477 C473 1.408 . S
C477 C476 1.404 . S
C477 H489 0.930 . S
C478 C474 1.524 . S
C478 H490 0.956 . S
C478 H491 0.961 . S
C478 H492 0.961 . S
C479 C476 1.539 . S
C479 H493 0.958 . S
C479 H494 0.961 . S
C479 H495 0.960 . S
H480 C464 0.931 . S
H481 C469 0.929 . S
H482 C470 0.960 . S
H483 C470 0.962 . S
H484 C470 0.960 . S
H485 C471 0.961 . S
H486 C471 0.961 . S
H487 C471 0.961 . S
H488 C472 0.931 . S
H489 C477 0.930 . S
H490 C478 0.956 . S
H491 C478 0.961 . S
H492 C478 0.961 . S
H493 C479 0.958 . S
H494 C479 0.961 . S
H495 C479 0.960 . S
C496 C497 1.391 . S
C496 C498 1.394 1_565 S
C496 H512 0.931 . S
C497 C496 1.391 . S
C497 C501 1.376 1_565 S
C498 C496 1.394 1_545 S
C498 C499 1.369 . S
C498 C502 1.531 . S
C499 C498 1.369 . S
C499 C500 1.410 . S
C499 C507 1.503 . S
C500 C499 1.410 . S
C500 C501 1.392 . S
C500 C503 1.511 . S
C501 C497 1.376 1_545 S
C501 C500 1.392 . S
C501 H513 0.929 1_545 S
C502 C498 1.531 . S
C502 H514 0.960 . S
C502 H515 0.962 . S
C502 H516 0.960 . S
C503 C500 1.511 . S
C503 H517 0.961 . S
C503 H518 0.961 . S
C503 H519 0.961 . S
C504 C505 1.370 . S
C504 C506 1.363 . S
C504 H520 0.931 . S
C505 C504 1.370 . S
C505 C509 1.408 . S
C506 C504 1.363 . S
C506 C507 1.370 . S
C506 C510 1.524 1_556 S
C507 C499 1.503 . S
C507 C506 1.370 . S
C507 C508 1.403 . S
C508 C507 1.403 . S
C508 C509 1.404 . S
C508 C511 1.539 . S
C509 C505 1.408 . S
C509 C508 1.404 . S
C509 H521 0.930 . S
C510 C506 1.524 1_554 S
C510 H522 0.956 . S
C510 H523 0.961 . S
C510 H524 0.961 . S
C511 C508 1.539 . S
C511 H525 0.958 . S
C511 H526 0.961 . S
C511 H527 0.960 . S
H512 C496 0.931 . S
H513 C501 0.929 1_565 S
H514 C502 0.960 . S
H515 C502 0.962 . S
H516 C502 0.960 . S
H517 C503 0.961 . S
H518 C503 0.961 . S
H519 C503 0.961 . S
H520 C504 0.931 . S
H521 C509 0.930 . S
H522 C510 0.956 . S
H523 C510 0.961 . S
H524 C510 0.961 . S
H525 C511 0.958 . S
H526 C511 0.961 . S
H527 C511 0.960 . S
C528 C529 1.391 . S
C528 C530 1.394 . S
C528 H544 0.931 . S
C529 C528 1.391 . S
C529 C533 1.376 . S
C530 C528 1.394 . S
C530 C531 1.369 . S
C530 C534 1.531 . S
C531 C530 1.369 . S
C531 C532 1.410 . S
C531 C539 1.503 . S
C532 C531 1.410 . S
C532 C533 1.392 . S
C532 C535 1.511 . S
C533 C529 1.376 . S
C533 C532 1.392 . S
C533 H545 0.929 . S
C534 C530 1.531 . S
C534 H546 0.960 . S
C534 H547 0.962 . S
C534 H548 0.960 . S
C535 C532 1.511 . S
C535 H549 0.961 . S
C535 H550 0.961 . S
C535 H551 0.961 . S
C536 C537 1.370 . S
C536 C538 1.363 . S
C536 H552 0.931 . S
C537 C536 1.370 . S
C537 C541 1.408 . S
C538 C536 1.363 . S
C538 C539 1.370 . S
C538 C542 1.524 . S
C539 C531 1.503 . S
C539 C538 1.370 . S
C539 C540 1.403 . S
C540 C539 1.403 . S
C540 C541 1.404 . S
C540 C543 1.539 . S
C541 C537 1.408 . S
C541 C540 1.404 . S
C541 H553 0.930 . S
C542 C538 1.524 . S
C542 H554 0.956 . S
C542 H555 0.961 . S
C542 H556 0.961 . S
C543 C540 1.539 . S
C543 H557 0.958 . S
C543 H558 0.961 . S
C543 H559 0.960 . S
H544 C528 0.931 . S
H545 C533 0.929 . S
H546 C534 0.960 . S
H547 C534 0.962 . S
H548 C534 0.960 . S
H549 C535 0.961 . S
H550 C535 0.961 . S
H551 C535 0.961 . S
H552 C536 0.931 . S
H553 C541 0.930 . S
H554 C542 0.956 . S
H555 C542 0.961 . S
H556 C542 0.961 . S
H557 C543 0.958 . S
H558 C543 0.961 . S
H559 C543 0.960 . S
C560 C561 1.391 . S
C560 C562 1.394 . S
C560 H576 0.931 . S
C561 C560 1.391 . S
C561 C565 1.376 . S
C562 C560 1.394 . S
C562 C563 1.369 . S
C562 C566 1.531 . S
C563 C562 1.369 . S
C563 C564 1.410 . S
C563 C571 1.503 . S
C564 C563 1.410 . S
C564 C565 1.392 . S
C564 C567 1.511 . S
C565 C561 1.376 . S
C565 C564 1.392 . S
C565 H577 0.929 . S
C566 C562 1.531 . S
C566 H578 0.960 . S
C566 H579 0.962 . S
C566 H580 0.960 . S
C567 C564 1.511 . S
C567 H581 0.961 . S
C567 H582 0.961 . S
C567 H583 0.961 . S
C568 C569 1.370 . S
C568 C570 1.363 . S
C568 H584 0.931 . S
C569 C568 1.370 . S
C569 C573 1.408 . S
C570 C568 1.363 . S
C570 C571 1.370 . S
C570 C574 1.524 . S
C571 C563 1.503 . S
C571 C570 1.370 . S
C571 C572 1.403 . S
C572 C571 1.403 . S
C572 C573 1.404 . S
C572 C575 1.539 . S
C573 C569 1.408 . S
C573 C572 1.404 . S
C573 H585 0.930 . S
C574 C570 1.524 . S
C574 H586 0.956 . S
C574 H587 0.961 . S
C574 H588 0.961 . S
C575 C572 1.539 . S
C575 H589 0.958 . S
C575 H590 0.961 . S
C575 H591 0.960 . S
H576 C560 0.931 . S
H577 C565 0.929 . S
H578 C566 0.960 . S
H579 C566 0.962 . S
H580 C566 0.960 . S
H581 C567 0.961 . S
H582 C567 0.961 . S
H583 C567 0.961 . S
H584 C568 0.931 . S
H585 C573 0.930 . S
H586 C574 0.956 . S
H587 C574 0.961 . S
H588 C574 0.961 . S
H589 C575 0.958 . S
H590 C575 0.961 . S
H591 C575 0.960 . S
C592 C593 1.391 . S
C592 C594 1.394 . S
C592 H608 0.931 . S
C593 C592 1.391 . S
C593 C597 1.376 . S
C594 C592 1.394 . S
C594 C595 1.369 1_455 S
C594 C598 1.531 1_455 S
C595 C594 1.369 1_655 S
C595 C596 1.410 1_655 S
C595 C603 1.503 . S
C596 C595 1.410 1_455 S
C596 C597 1.392 . S
C596 C599 1.511 1_455 S
C597 C593 1.376 . S
C597 C596 1.392 . S
C597 H609 0.929 . S
C598 C594 1.531 1_655 S
C598 H610 0.960 . S
C598 H611 0.962 . S
C598 H612 0.960 1_655 S
C599 C596 1.511 1_655 S
C599 H613 0.961 . S
C599 H614 0.961 . S
C599 H615 0.969 . S
C600 C601 1.370 . S
C600 C602 1.363 . S
C600 H616 0.931 . S
C601 C600 1.370 . S
C601 C605 1.408 . S
C602 C600 1.363 . S
C602 C603 1.370 . S
C602 C606 1.524 . S
C603 C595 1.503 . S
C603 C602 1.370 . S
C603 C604 1.403 . S
C604 C603 1.403 . S
C604 C605 1.404 . S
C604 C607 1.539 . S
C605 C601 1.408 . S
C605 C604 1.404 . S
C605 H617 0.930 . S
C606 C602 1.524 . S
C606 H618 0.956 . S
C606 H619 0.961 . S
C606 H620 0.961 . S
C607 C604 1.539 . S
C607 H621 0.958 . S
C607 H622 0.961 . S
C607 H623 0.960 1_655 S
H608 C592 0.931 . S
H609 C597 0.929 . S
H610 C598 0.960 . S
H611 C598 0.962 . S
H612 C598 0.960 1_455 S
H613 C599 0.961 . S
H614 C599 0.961 . S
H615 C599 0.969 . S
H616 C600 0.931 . S
H617 C605 0.930 . S
H618 C606 0.956 . S
H619 C606 0.961 . S
H620 C606 0.961 . S
H621 C607 0.958 . S
H622 C607 0.961 . S
H623 C607 0.960 1_455 S
C624 C625 1.391 . S
C624 C626 1.394 . S
C624 H640 0.931 . S
C625 C624 1.391 . S
C625 C629 1.376 . S
C626 C624 1.394 . S
C626 C627 1.369 . S
C626 C630 1.531 . S
C627 C626 1.369 . S
C627 C628 1.410 . S
C627 C635 1.503 . S
C628 C627 1.410 . S
C628 C629 1.392 . S
C628 C631 1.511 . S
C629 C625 1.376 . S
C629 C628 1.392 . S
C629 H641 0.929 . S
C630 C626 1.531 . S
C630 H642 0.960 . S
C630 H643 0.962 . S
C630 H644 0.960 . S
C631 C628 1.511 . S
C631 H645 0.961 . S
C631 H646 0.961 . S
C631 H647 0.961 . S
C632 C633 1.370 . S
C632 C634 1.363 . S
C632 H648 0.931 . S
C633 C632 1.370 . S
C633 C637 1.408 . S
C634 C632 1.363 . S
C634 C635 1.370 . S
C634 C638 1.524 . S
C635 C627 1.503 . S
C635 C634 1.370 . S
C635 C636 1.403 . S
C636 C635 1.403 . S
C636 C637 1.404 . S
C636 C639 1.539 . S
C637 C633 1.408 . S
C637 C636 1.404 . S
C637 H649 0.930 . S
C638 C634 1.524 . S
C638 H650 0.956 . S
C638 H651 0.961 . S
C638 H652 0.961 . S
C639 C636 1.539 . S
C639 H653 0.958 . S
C639 H654 0.961 . S
C639 H655 0.960 . S
H640 C624 0.931 . S
H641 C629 0.929 . S
H642 C630 0.960 . S
H643 C630 0.962 . S
H644 C630 0.960 . S
H645 C631 0.961 . S
H646 C631 0.961 . S
H647 C631 0.961 . S
H648 C632 0.931 . S
H649 C637 0.930 . S
H650 C638 0.956 . S
H651 C638 0.961 . S
H652 C638 0.961 . S
H653 C639 0.958 . S
H654 C639 0.961 . S
H655 C639 0.960 . S
C656 C657 1.391 . S
C656 C658 1.394 . S
C656 H672 0.931 . S
C657 C656 1.391 . S
C657 C661 1.376 . S
C658 C656 1.394 . S
C658 C659 1.369 . S
C658 C662 1.531 1_655 S
C659 C658 1.369 . S
C659 C660 1.410 . S
C659 C667 1.503 . S
C660 C659 1.410 . S
C660 C661 1.392 . S
C660 C663 1.511 . S
C661 C657 1.376 . S
C661 C660 1.392 . S
C661 H673 0.929 . S
C662 C658 1.531 1_455 S
C662 H674 0.960 . S
C662 H675 0.962 . S
C662 H676 0.960 . S
C663 C660 1.511 . S
C663 H677 0.961 . S
C663 H678 0.961 . S
C663 H679 0.961 . S
C664 C665 1.370 . S
C664 C666 1.371 . S
C664 H680 0.931 . S
C665 C664 1.370 . S
C665 C669 1.408 . S
C666 C664 1.371 . S
C666 C667 1.368 1_455 S
C666 C670 1.520 1_455 S
C667 C659 1.503 . S
C667 C666 1.368 1_655 S
C667 C668 1.403 1_655 S
C668 C667 1.403 1_455 S
C668 C669 1.404 . S
C668 C671 1.539 1_455 S
C669 C665 1.408 . S
C669 C668 1.404 . S
C669 H681 0.930 . S
C670 C666 1.520 1_655 S
C670 H682 0.956 . S
C670 H683 0.961 . S
C670 H684 0.961 . S
C671 C668 1.539 1_655 S
C671 H685 0.958 1_655 S
C671 H686 0.960 . S
C671 H687 0.960 . S
H672 C656 0.931 . S
H673 C661 0.929 . S
H674 C662 0.960 . S
H675 C662 0.962 . S
H676 C662 0.960 . S
H677 C663 0.961 . S
H678 C663 0.961 . S
H679 C663 0.961 . S
H680 C664 0.931 . S
H681 C669 0.930 . S
H682 C670 0.956 . S
H683 C670 0.961 . S
H684 C670 0.961 . S
H685 C671 0.958 1_455 S
H686 C671 0.960 . S
H687 C671 0.960 . S
C688 C689 1.391 . S
C688 C690 1.394 . S
C688 H704 0.931 . S
C689 C688 1.391 . S
C689 C693 1.376 . S
C690 C688 1.394 . S
C690 C691 1.369 . S
C690 C694 1.531 . S
C691 C690 1.369 . S
C691 C692 1.410 . S
C691 C699 1.503 . S
C692 C691 1.410 . S
C692 C693 1.392 . S
C692 C695 1.511 . S
C693 C689 1.376 . S
C693 C692 1.392 . S
C693 H705 0.929 . S
C694 C690 1.531 . S
C694 H706 0.960 . S
C694 H707 0.962 . S
C694 H708 0.960 . S
C695 C692 1.511 . S
C695 H709 0.961 . S
C695 H710 0.961 . S
C695 H711 0.961 . S
C696 C697 1.370 . S
C696 C698 1.363 . S
C696 H712 0.931 . S
C697 C696 1.370 . S
C697 C701 1.408 . S
C698 C696 1.363 . S
C698 C699 1.370 . S
C698 C702 1.524 . S
C699 C691 1.503 . S
C699 C698 1.370 . S
C699 C700 1.403 . S
C700 C699 1.403 . S
C700 C701 1.404 . S
C700 C703 1.539 . S
C701 C697 1.408 . S
C701 C700 1.404 . S
C701 H713 0.930 . S
C702 C698 1.524 . S
C702 H714 0.956 . S
C702 H715 0.961 . S
C702 H716 0.961 . S
C703 C700 1.539 . S
C703 H717 0.958 . S
C703 H718 0.961 . S
C703 H719 0.960 . S
H704 C688 0.931 . S
H705 C693 0.929 . S
H706 C694 0.960 . S
H707 C694 0.962 . S
H708 C694 0.960 . S
H709 C695 0.961 . S
H710 C695 0.961 . S
H711 C695 0.961 . S
H712 C696 0.931 . S
H713 C701 0.930 . S
H714 C702 0.956 . S
H715 C702 0.961 . S
H716 C702 0.961 . S
H717 C703 0.958 . S
H718 C703 0.961 . S
H719 C703 0.960 . S
C720 C721 1.391 . S
C720 C722 1.394 . S
C720 H736 0.931 . S
C721 C720 1.391 . S
C721 C725 1.376 . S
C722 C720 1.394 . S
C722 C723 1.369 . S
C722 C726 1.531 . S
C723 C722 1.369 . S
C723 C724 1.410 . S
C723 C731 1.503 . S
C724 C723 1.410 . S
C724 C725 1.392 . S
C724 C727 1.511 . S
C725 C721 1.376 . S
C725 C724 1.392 . S
C725 H737 0.929 . S
C726 C722 1.531 . S
C726 H738 0.960 . S
C726 H739 0.962 . S
C726 H740 0.960 . S
C727 C724 1.511 . S
C727 H741 0.961 . S
C727 H742 0.961 . S
C727 H743 0.961 . S
C728 C729 1.370 . S
C728 C730 1.363 . S
C728 H744 0.931 . S
C729 C728 1.370 . S
C729 C733 1.408 . S
C730 C728 1.363 . S
C730 C731 1.370 . S
C730 C734 1.524 . S
C731 C723 1.503 . S
C731 C730 1.370 . S
C731 C732 1.403 . S
C732 C731 1.403 . S
C732 C733 1.404 . S
C732 C735 1.539 . S
C733 C729 1.408 . S
C733 C732 1.404 . S
C733 H745 0.930 . S
C734 C730 1.524 . S
C734 H746 0.956 . S
C734 H747 0.961 . S
C734 H748 0.961 . S
C735 C732 1.539 . S
C735 H749 0.958 . S
C735 H750 0.961 . S
C735 H751 0.960 . S
H736 C720 0.931 . S
H737 C725 0.929 . S
H738 C726 0.960 . S
H739 C726 0.962 . S
H740 C726 0.960 . S
H741 C727 0.961 . S
H742 C727 0.961 . S
H743 C727 0.961 . S
H744 C728 0.931 . S
H745 C733 0.930 . S
H746 C734 0.956 . S
H747 C734 0.961 . S
H748 C734 0.961 . S
H749 C735 0.958 . S
H750 C735 0.961 . S
H751 C735 0.960 . S
C752 C753 1.391 . S
C752 C754 1.394 . S
C752 H768 0.931 . S
C753 C752 1.391 . S
C753 C757 1.376 . S
C754 C752 1.394 . S
C754 C755 1.369 . S
C754 C758 1.531 . S
C755 C754 1.369 . S
C755 C756 1.410 . S
C755 C763 1.503 . S
C756 C755 1.410 . S
C756 C757 1.392 . S
C756 C759 1.511 . S
C757 C753 1.376 . S
C757 C756 1.392 . S
C757 H769 0.929 . S
C758 C754 1.531 . S
C758 H770 0.960 . S
C758 H771 0.962 . S
C758 H772 0.960 . S
C759 C756 1.511 . S
C759 H773 0.961 . S
C759 H774 0.961 . S
C759 H775 0.961 . S
C760 C761 1.370 . S
C760 C762 1.363 . S
C760 H776 0.931 . S
C761 C760 1.370 . S
C761 C765 1.408 . S
C762 C760 1.363 . S
C762 C763 1.370 . S
C762 C766 1.524 . S
C763 C755 1.503 . S
C763 C762 1.370 . S
C763 C764 1.403 . S
C764 C763 1.403 . S
C764 C765 1.404 . S
C764 C767 1.539 . S
C765 C761 1.408 . S
C765 C764 1.404 . S
C765 H777 0.930 . S
C766 C762 1.524 . S
C766 H778 0.956 . S
C766 H779 0.961 . S
C766 H780 0.961 . S
C767 C764 1.539 . S
C767 H781 0.958 . S
C767 H782 0.961 . S
C767 H783 0.960 . S
H768 C752 0.931 . S
H769 C757 0.929 . S
H770 C758 0.960 . S
H771 C758 0.962 . S
H772 C758 0.960 . S
H773 C759 0.961 . S
H774 C759 0.961 . S
H775 C759 0.961 . S
H776 C760 0.931 . S
H777 C765 0.930 . S
H778 C766 0.956 . S
H779 C766 0.961 . S
H780 C766 0.961 . S
H781 C767 0.958 . S
H782 C767 0.961 . S
H783 C767 0.960 . S
C784 C785 1.391 . S
C784 C786 1.394 . S
C784 H800 0.931 . S
C785 C784 1.391 . S
C785 C789 1.376 . S
C786 C784 1.394 . S
C786 C787 1.369 . S
C786 C790 1.531 . S
C787 C786 1.369 . S
C787 C788 1.410 . S
C787 C795 1.503 . S
C788 C787 1.410 . S
C788 C789 1.392 . S
C788 C791 1.511 . S
C789 C785 1.376 . S
C789 C788 1.392 . S
C789 H801 0.929 . S
C790 C786 1.531 . S
C790 H802 0.960 . S
C790 H803 0.962 . S
C790 H804 0.960 . S
C791 C788 1.511 . S
C791 H805 0.961 . S
C791 H806 0.961 . S
C791 H807 0.961 . S
C792 C793 1.370 . S
C792 C794 1.363 . S
C792 H808 0.931 . S
C793 C792 1.370 . S
C793 C797 1.408 . S
C794 C792 1.363 . S
C794 C795 1.370 . S
C794 C798 1.524 . S
C795 C787 1.503 . S
C795 C794 1.370 . S
C795 C796 1.403 . S
C796 C795 1.403 . S
C796 C797 1.404 . S
C796 C799 1.539 . S
C797 C793 1.408 . S
C797 C796 1.404 . S
C797 H809 0.930 . S
C798 C794 1.524 . S
C798 H810 0.956 . S
C798 H811 0.961 . S
C798 H812 0.961 . S
C799 C796 1.539 . S
C799 H813 0.958 . S
C799 H814 0.961 . S
C799 H815 0.960 . S
H800 C784 0.931 . S
H801 C789 0.929 . S
H802 C790 0.960 . S
H803 C790 0.962 . S
H804 C790 0.960 . S
H805 C791 0.961 . S
H806 C791 0.961 . S
H807 C791 0.961 . S
H808 C792 0.931 . S
H809 C797 0.930 . S
H810 C798 0.956 . S
H811 C798 0.961 . S
H812 C798 0.961 . S
H813 C799 0.958 . S
H814 C799 0.961 . S
H815 C799 0.960 . S
C816 C817 1.391 . S
C816 C818 1.394 . S
C816 H832 0.931 . S
C817 C816 1.391 . S
C817 C821 1.376 . S
C818 C816 1.394 . S
C818 C819 1.369 . S
C818 C822 1.531 . S
C819 C818 1.369 . S
C819 C820 1.410 . S
C819 C827 1.503 . S
C820 C819 1.410 . S
C820 C821 1.392 . S
C820 C823 1.511 . S
C821 C817 1.376 . S
C821 C820 1.392 . S
C821 H833 0.929 . S
C822 C818 1.531 . S
C822 H834 0.960 . S
C822 H835 0.962 . S
C822 H836 0.960 . S
C823 C820 1.511 . S
C823 H837 0.961 . S
C823 H838 0.961 . S
C823 H839 0.961 . S
C824 C825 1.370 . S
C824 C826 1.363 . S
C824 H840 0.931 . S
C825 C824 1.370 . S
C825 C829 1.408 . S
C826 C824 1.363 . S
C826 C827 1.370 . S
C826 C830 1.524 . S
C827 C819 1.503 . S
C827 C826 1.370 . S
C827 C828 1.403 . S
C828 C827 1.403 . S
C828 C829 1.404 . S
C828 C831 1.539 . S
C829 C825 1.408 . S
C829 C828 1.404 . S
C829 H841 0.930 . S
C830 C826 1.524 . S
C830 H842 0.956 . S
C830 H843 0.961 . S
C830 H844 0.961 . S
C831 C828 1.539 . S
C831 H845 0.958 . S
C831 H846 0.961 . S
C831 H847 0.960 . S
H832 C816 0.931 . S
H833 C821 0.929 . S
H834 C822 0.960 . S
H835 C822 0.962 . S
H836 C822 0.960 . S
H837 C823 0.961 . S
H838 C823 0.961 . S
H839 C823 0.961 . S
H840 C824 0.931 . S
H841 C829 0.930 . S
H842 C830 0.956 . S
H843 C830 0.961 . S
H844 C830 0.961 . S
H845 C831 0.958 . S
H846 C831 0.961 . S
H847 C831 0.960 . S
C848 C849 1.391 . S
C848 C850 1.394 . S
C848 H864 0.931 1_556 S
C849 C848 1.391 . S
C849 C853 1.376 . S
C850 C848 1.394 . S
C850 C851 1.369 . S
C850 C854 1.531 . S
C851 C850 1.369 . S
C851 C852 1.410 . S
C851 C859 1.503 . S
C852 C851 1.410 . S
C852 C853 1.392 . S
C852 C855 1.511 . S
C853 C849 1.376 . S
C853 C852 1.392 . S
C853 H865 0.929 . S
C854 C850 1.531 . S
C854 H866 0.960 . S
C854 H867 0.962 . S
C854 H868 0.960 1_556 S
C855 C852 1.511 . S
C855 H869 0.961 . S
C855 H870 0.961 . S
C855 H871 0.961 . S
C856 C857 1.370 . S
C856 C858 1.363 . S
C856 H872 0.931 . S
C857 C856 1.370 . S
C857 C861 1.408 . S
C858 C856 1.363 . S
C858 C859 1.370 . S
C858 C862 1.524 . S
C859 C851 1.503 . S
C859 C858 1.370 . S
C859 C860 1.403 . S
C860 C859 1.403 . S
C860 C861 1.404 . S
C860 C863 1.539 . S
C861 C857 1.408 . S
C861 C860 1.404 . S
C861 H873 0.930 . S
C862 C858 1.524 . S
C862 H874 0.956 . S
C862 H875 0.961 . S
C862 H876 0.961 . S
C863 C860 1.539 . S
C863 H877 0.958 . S
C863 H878 0.961 . S
C863 H879 0.960 . S
H864 C848 0.931 1_554 S
H865 C853 0.929 . S
H866 C854 0.960 . S
H867 C854 0.962 . S
H868 C854 0.960 1_554 S
H869 C855 0.961 . S
H870 C855 0.961 . S
H871 C855 0.961 . S
H872 C856 0.931 . S
H873 C861 0.930 . S
H874 C862 0.956 . S
H875 C862 0.961 . S
H876 C862 0.961 . S
H877 C863 0.958 . S
H878 C863 0.961 . S
H879 C863 0.960 . S
C880 C881 1.391 . S
C880 C882 1.394 . S
C880 H896 0.931 . S
C881 C880 1.391 . S
C881 C885 1.376 . S
C882 C880 1.394 . S
C882 C883 1.369 . S
C882 C886 1.531 . S
C883 C882 1.369 . S
C883 C884 1.410 . S
C883 C891 1.503 . S
C884 C883 1.410 . S
C884 C885 1.392 . S
C884 C887 1.511 . S
C885 C881 1.376 . S
C885 C884 1.392 . S
C885 H897 0.929 . S
C886 C882 1.531 . S
C886 H898 0.960 . S
C886 H899 0.962 . S
C886 H900 0.960 . S
C887 C884 1.511 . S
C887 H901 0.961 . S
C887 H902 0.961 . S
C887 H903 0.961 . S
C888 C889 1.370 . S
C888 C890 1.363 . S
C888 H904 0.931 . S
C889 C888 1.370 . S
C889 C893 1.408 . S
C890 C888 1.363 . S
C890 C891 1.370 . S
C890 C894 1.524 . S
C891 C883 1.503 . S
C891 C890 1.370 . S
C891 C892 1.403 . S
C892 C891 1.403 . S
C892 C893 1.404 . S
C892 C895 1.539 . S
C893 C889 1.408 . S
C893 C892 1.404 . S
C893 H905 0.930 . S
C894 C890 1.524 . S
C894 H906 0.956 . S
C894 H907 0.961 . S
C894 H908 0.961 . S
C895 C892 1.539 . S
C895 H909 0.958 . S
C895 H910 0.961 . S
C895 H911 0.960 . S
H896 C880 0.931 . S
H897 C885 0.929 . S
H898 C886 0.960 . S
H899 C886 0.962 . S
H900 C886 0.960 . S
H901 C887 0.961 . S
H902 C887 0.961 . S
H903 C887 0.961 . S
H904 C888 0.931 . S
H905 C893 0.930 . S
H906 C894 0.956 . S
H907 C894 0.961 . S
H908 C894 0.961 . S
H909 C895 0.958 . S
H910 C895 0.961 . S
H911 C895 0.960 . S
C912 C913 1.391 . S
C912 C914 1.394 . S
C912 H928 0.931 . S
C913 C912 1.391 . S
C913 C917 1.376 . S
C914 C912 1.394 . S
C914 C915 1.369 . S
C914 C918 1.531 . S
C915 C914 1.369 . S
C915 C916 1.410 . S
C915 C923 1.503 . S
C916 C915 1.410 . S
C916 C917 1.392 . S
C916 C919 1.511 . S
C917 C913 1.376 . S
C917 C916 1.392 . S
C917 H929 0.929 . S
C918 C914 1.531 . S
C918 H930 0.960 . S
C918 H931 0.962 . S
C918 H932 0.960 . S
C919 C916 1.511 . S
C919 H933 0.961 . S
C919 H934 0.961 . S
C919 H935 0.961 . S
C920 C921 1.370 . S
C920 C922 1.363 . S
C920 H936 0.931 . S
C921 C920 1.370 . S
C921 C925 1.408 . S
C922 C920 1.363 . S
C922 C923 1.370 . S
C922 C926 1.524 . S
C923 C915 1.503 . S
C923 C922 1.370 . S
C923 C924 1.403 . S
C924 C923 1.403 . S
C924 C925 1.404 . S
C924 C927 1.539 . S
C925 C921 1.408 . S
C925 C924 1.404 . S
C925 H937 0.930 . S
C926 C922 1.524 . S
C926 H938 0.956 . S
C926 H939 0.961 . S
C926 H940 0.961 . S
C927 C924 1.539 . S
C927 H941 0.958 . S
C927 H942 0.961 . S
C927 H943 0.960 . S
H928 C912 0.931 . S
H929 C917 0.929 . S
H930 C918 0.960 . S
H931 C918 0.962 . S
H932 C918 0.960 . S
H933 C919 0.961 . S
H934 C919 0.961 . S
H935 C919 0.961 . S
H936 C920 0.931 . S
H937 C925 0.930 . S
H938 C926 0.956 . S
H939 C926 0.961 . S
H940 C926 0.961 . S
H941 C927 0.958 . S
H942 C927 0.961 . S
H943 C927 0.960 . S
C177 C7 1.532 . S
C185 C95 1.449 . S
C209 C37 1.419 . S
C217 C104 1.086 . S
C241 C54 1.230 . S
C249 C115 0.997 . S
C281 C126 1.030 . S
C273 C87 1.108 . S
C313 C139 1.280 . S
C305 C30 1.298 . S
C337 C51 1.250 1_556 S
C345 C148 0.928 . S
C369 C84 1.061 . S
C377 C159 0.985 . S
C401 C10 1.614 . S
C409 C172 1.537 . S
C433 C59 1.186 . S
C441 C170 0.887 . S
C473 C137 1.134 . S
C465 C74 1.313 . S
C505 C150 1.543 . S
C497 C18 1.639 . S
C529 C32 1.653 . S
C537 C161 1.654 . S
C569 C106 1.413 . S
C561 C73 1.396 . S
C593 C15 1.679 . S
C601 C117 1.596 . S
C633 C128 1.456 . S
C625 C43 1.436 . S
C665 C93 0.900 . S
C657 C62 1.187 . S
C697 C162 1.424 . S
C689 C21 1.423 . S
C729 C173 1.454 . S
C721 C29 1.510 . S
C753 C52 1.306 . S
C761 C140 1.289 . S
C793 C151 1.418 . S
C785 C81 1.477 . S
C825 C118 1.528 . S
C817 C40 1.597 . S
C849 C65 1.323 . S
C857 C129 1.331 . S
C889 C96 1.377 . S
C881 C76 1.404 . S
C921 C107 1.422 . S
C913 C8 1.445 . S
