# Generated by pormake.
# Topology dag, (6,3)-cn, num edge types: 1
# Building blocks:
#     Node 0, Type 0, BuildingBlock: MIDCAF_clean_sbu_0, # of connection points: 6
#     Node 1, Type 0, BuildingBlock: MIDCAF_clean_sbu_0, # of connection points: 6
#     Node 2, Type 0, BuildingBlock: MIDCAF_clean_sbu_0, # of connection points: 6
#     Node 3, Type 0, BuildingBlock: MIDCAF_clean_sbu_0, # of connection points: 6
#     Node 4, Type 1, BuildingBlock: WUSLED_clean_sbu_0, # of connection points: 3
#     Node 5, Type 1, BuildingBlock: WUSLED_clean_sbu_0, # of connection points: 3
#     Node 6, Type 1, BuildingBlock: WUSLED_clean_sbu_0, # of connection points: 3
#     Node 7, Type 1, BuildingBlock: WUSLED_clean_sbu_0, # of connection points: 3
#     Node 8, Type 1, BuildingBlock: WUSLED_clean_sbu_0, # of connection points: 3
#     Node 9, Type 1, BuildingBlock: WUSLED_clean_sbu_0, # of connection points: 3
#     Node 10, Type 1, BuildingBlock: WUSLED_clean_sbu_0, # of connection points: 3
#     Node 11, Type 1, BuildingBlock: WUSLED_clean_sbu_0, # of connection points: 3
#     Edge 12, Type (0, 1), BuildingBlock: EZIPEK_clean_linker_0, # of connection points: 2
#     Edge 13, Type (0, 1), BuildingBlock: EZIPEK_clean_linker_0, # of connection points: 2
#     Edge 14, Type (0, 1), BuildingBlock: EZIPEK_clean_linker_0, # of connection points: 2
#     Edge 15, Type (0, 1), BuildingBlock: EZIPEK_clean_linker_0, # of connection points: 2
#     Edge 16, Type (0, 1), BuildingBlock: EZIPEK_clean_linker_0, # of connection points: 2
#     Edge 17, Type (0, 1), BuildingBlock: EZIPEK_clean_linker_0, # of connection points: 2
#     Edge 18, Type (0, 1), BuildingBlock: EZIPEK_clean_linker_0, # of connection points: 2
#     Edge 19, Type (0, 1), BuildingBlock: EZIPEK_clean_linker_0, # of connection points: 2
#     Edge 20, Type (0, 1), BuildingBlock: EZIPEK_clean_linker_0, # of connection points: 2
#     Edge 21, Type (0, 1), BuildingBlock: EZIPEK_clean_linker_0, # of connection points: 2
#     Edge 22, Type (0, 1), BuildingBlock: EZIPEK_clean_linker_0, # of connection points: 2
#     Edge 23, Type (0, 1), BuildingBlock: EZIPEK_clean_linker_0, # of connection points: 2
#     Edge 24, Type (0, 1), BuildingBlock: EZIPEK_clean_linker_0, # of connection points: 2
#     Edge 25, Type (0, 1), BuildingBlock: EZIPEK_clean_linker_0, # of connection points: 2
#     Edge 26, Type (0, 1), BuildingBlock: EZIPEK_clean_linker_0, # of connection points: 2
#     Edge 27, Type (0, 1), BuildingBlock: EZIPEK_clean_linker_0, # of connection points: 2
#     Edge 28, Type (0, 1), BuildingBlock: EZIPEK_clean_linker_0, # of connection points: 2
#     Edge 29, Type (0, 1), BuildingBlock: EZIPEK_clean_linker_0, # of connection points: 2
#     Edge 30, Type (0, 1), BuildingBlock: EZIPEK_clean_linker_0, # of connection points: 2
#     Edge 31, Type (0, 1), BuildingBlock: EZIPEK_clean_linker_0, # of connection points: 2
#     Edge 32, Type (0, 1), BuildingBlock: EZIPEK_clean_linker_0, # of connection points: 2
#     Edge 33, Type (0, 1), BuildingBlock: EZIPEK_clean_linker_0, # of connection points: 2
#     Edge 34, Type (0, 1), BuildingBlock: EZIPEK_clean_linker_0, # of connection points: 2
#     Edge 35, Type (0, 1), BuildingBlock: EZIPEK_clean_linker_0, # of connection points: 2
# Relax obj value: 0.295
# Max RMSD: 0.191
# Mean RMSD: 0.179
data_MOF--net-dag--node1-MIDCAF_clean_sbu_0--node2-WUSLED_clean_sbu_0--edge1-EZIPEK_clean_linker_0
_symmetry_space_group_name_H-M    P1
_symmetry_Int_Tables_number       1
_symmetry_cell_setting            triclinic
loop_
_symmetry_equiv_pos_as_xyz
'x, y, z'
_cell_length_a     42.163461
_cell_length_b     41.378142
_cell_length_c     31.284847
_cell_angle_alpha  90.041287
_cell_angle_beta   93.933733
_cell_angle_gamma 90.158236
loop_
_atom_site_label
_atom_site_type_symbol
_atom_site_fract_x
_atom_site_fract_y
_atom_site_fract_z
_atom_type_partial_charge
Zn0 Zn 0.14607 0.80546 0.0779 0.0
Zn1 Zn 0.1614 0.84584 0.90943 0.0
Zn2 Zn 0.15598 0.8238 0.99277 0.0
C3 C 0.17201 0.89811 0.96606 0.0
C4 C 0.09952 0.82172 0.91605 0.0
O5 O 0.19045 0.78537 0.00997 0.0
O6 O 0.17934 0.77152 0.07594 0.0
C7 C 0.16489 0.8709 0.07574 0.0
O8 O 0.16733 0.87578 0.99358 0.0
O9 O 0.17084 0.89174 0.92648 0.0
O10 O 0.11682 0.83401 0.88885 0.0
O11 O 0.11073 0.81661 0.95476 0.0
O12 O 0.15807 0.84918 0.10199 0.0
O13 O 0.16482 0.86492 0.03538 0.0
O14 O 0.1069 0.80813 0.99726 0.0
O15 O 0.0999 0.79526 0.0648 0.0
C16 C 0.08888 0.79894 0.02654 0.0
O17 O 0.1934 0.79446 0.96696 0.0
O18 O 0.19636 0.8147 0.90159 0.0
C19 C 0.19569 0.76804 0.04388 0.0
C20 C 0.20562 0.79481 0.93041 0.0
Zn21 Zn 0.6736 0.62597 0.41562 0.0
Zn22 Zn 0.67128 0.67744 0.56957 0.0
Zn23 Zn 0.67143 0.65718 0.49003 0.0
C24 C 0.6864 0.61496 0.57926 0.0
C25 C 0.61153 0.69333 0.52822 0.0
O26 O 0.70523 0.68444 0.45196 0.0
O27 O 0.70089 0.65813 0.39003 0.0
C28 C 0.69018 0.5808 0.47445 0.0
O29 O 0.68391 0.6189 0.53827 0.0
O30 O 0.68132 0.63817 0.60395 0.0
O31 O 0.62713 0.69392 0.5641 0.0
O32 O 0.62361 0.67875 0.49671 0.0
O33 O 0.69094 0.58361 0.43442 0.0
O34 O 0.6829 0.60518 0.49752 0.0
O35 O 0.62312 0.65828 0.46037 0.0
O36 O 0.62681 0.62748 0.40289 0.0
C37 C 0.61015 0.64343 0.42743 0.0
O38 O 0.70687 0.69663 0.4941 0.0
O39 O 0.70572 0.70906 0.56293 0.0
C40 C 0.71224 0.68115 0.41274 0.0
C41 C 0.7168 0.71354 0.52693 0.0
Zn42 Zn 0.8414 0.19085 0.97578 0.0
Zn43 Zn 0.84817 0.14429 0.14251 0.0
Zn44 Zn 0.84198 0.17075 0.06232 0.0
C45 C 0.90686 0.17045 0.12482 0.0
C46 C 0.82742 0.09546 0.08692 0.0
O47 O 0.80577 0.20837 0.05653 0.0
O48 O 0.80684 0.22191 0.98787 0.0
C49 C 0.90244 0.20152 0.01593 0.0
O50 O 0.89066 0.17822 0.09001 0.0
O51 O 0.89425 0.15443 0.15357 0.0
O52 O 0.83475 0.09964 0.12634 0.0
O53 O 0.82939 0.11895 0.06026 0.0
O54 O 0.88705 0.20522 0.98019 0.0
O55 O 0.88901 0.18952 0.04812 0.0
O56 O 0.83011 0.13037 0.0185 0.0
O57 O 0.8305 0.14694 0.95111 0.0
C58 C 0.82708 0.1246 0.97794 0.0
O59 O 0.8083 0.1981 0.09981 0.0
O60 O 0.81624 0.17456 0.16334 0.0
C61 C 0.79548 0.22526 0.024 0.0
C62 C 0.80229 0.1955 0.13949 0.0
Zn63 Zn 0.33202 0.36353 0.69216 0.0
Zn64 Zn 0.33443 0.32063 0.48437 0.0
Zn65 Zn 0.33267 0.32898 0.56707 0.0
C66 C 0.39459 0.30399 0.51985 0.0
C67 C 0.31745 0.38523 0.50029 0.0
O68 O 0.29718 0.29953 0.59708 0.0
O69 O 0.31661 0.33086 0.64642 0.0
C70 C 0.38011 0.32764 0.6349 0.0
O71 O 0.38082 0.31099 0.55417 0.0
O72 O 0.37972 0.30645 0.48357 0.0
O73 O 0.32226 0.36613 0.46989 0.0
O74 O 0.32082 0.37562 0.53932 0.0
O75 O 0.35399 0.33708 0.64822 0.0
O76 O 0.37871 0.3178 0.5963 0.0
O77 O 0.32464 0.3814 0.5876 0.0
O78 O 0.32241 0.40331 0.65442 0.0
C79 C 0.32121 0.40576 0.61339 0.0
O80 O 0.29629 0.29215 0.55293 0.0
O81 O 0.30067 0.28687 0.48306 0.0
C82 C 0.29578 0.30979 0.63533 0.0
C83 C 0.288 0.27865 0.51686 0.0
C84 C 0.09381 0.19359 0.23102 0.0
C85 C 0.09333 0.18531 0.18734 0.0
C86 C 0.0367 0.19596 0.17946 0.0
C87 C 0.06495 0.18686 0.16153 0.0
C88 C 0.03776 0.20686 0.22201 0.0
C89 C 0.06618 0.20575 0.24761 0.0
U90 U 0.15522 0.13131 0.26272 0.0
O91 O 0.20392 0.13312 0.29268 0.0
O92 O 0.16649 0.10752 0.32468 0.0
C93 C 0.19558 0.11925 0.32809 0.0
C94 C 0.12035 0.18358 0.26102 0.0
C95 C 0.20508 0.13686 0.36807 0.0
C96 C 0.19195 0.16272 0.4346 0.0
C97 C 0.18338 0.1428 0.3995 0.0
C98 C 0.24429 0.16984 0.4084 0.0
C99 C 0.22209 0.17725 0.43828 0.0
C100 C 0.23592 0.14969 0.37371 0.0
C101 C 0.15727 0.0582 0.18585 0.0
C102 C 0.1859 0.02538 0.13664 0.0
C103 C 0.14975 -4e-05 0.18341 0.0
C104 C 0.14323 0.02995 0.20107 0.0
C105 C 0.17037 0.99767 0.15032 0.0
C106 C 0.17919 0.05554 0.15406 0.0
C107 C 0.14624 0.09035 0.19906 0.0
O108 O 0.11393 0.15781 0.28336 0.0
O109 O 0.14874 0.18276 0.24598 0.0
O110 O 0.16686 0.11427 0.19895 0.0
O111 O 0.1285 0.0911 0.23201 0.0
H112 H 0.11427 0.17549 0.17391 0.0
H113 H 0.06446 0.17839 0.12872 0.0
H114 H 0.01614 0.214 0.23626 0.0
H115 H 0.06601 0.21199 0.28124 0.0
H116 H 0.17467 0.16806 0.45766 0.0
H117 H 0.15949 0.13303 0.39633 0.0
H118 H 0.26777 0.18069 0.41106 0.0
H119 H 0.25318 0.14515 0.35032 0.0
H120 H 0.20178 0.02388 0.11091 0.0
H121 H 0.13747 0.97871 0.19407 0.0
H122 H 0.12607 0.03106 0.22524 0.0
H123 H 0.19008 0.07689 0.14131 0.0
C124 C 0.33624 0.60538 0.62484 0.0
C125 C 0.31806 0.59817 0.58648 0.0
C126 C 0.32895 0.54096 0.59659 0.0
C127 C 0.3146 0.56612 0.57229 0.0
C128 C 0.34859 0.54833 0.63328 0.0
C129 C 0.35214 0.58019 0.64733 0.0
U130 U 0.35367 0.6976 0.64637 0.0
O131 O 0.31958 0.73372 0.66773 0.0
O132 O 0.36169 0.72054 0.70924 0.0
C133 C 0.33482 0.73656 0.70568 0.0
C134 C 0.33431 0.63726 0.64596 0.0
C135 C 0.3156 0.73555 0.74328 0.0
C136 C 0.27891 0.76303 0.78728 0.0
C137 C 0.29454 0.76098 0.7495 0.0
C138 C 0.30452 0.71371 0.81307 0.0
C139 C 0.28417 0.73974 0.81953 0.0
C140 C 0.32008 0.71153 0.77503 0.0
C141 C 0.41662 0.70992 0.56038 0.0
C142 C 0.45832 0.73278 0.51994 0.0
C143 C 0.46203 0.67724 0.54421 0.0
C144 C 0.43239 0.68002 0.5615 0.0
C145 C 0.47611 0.7044 0.52618 0.0
C146 C 0.42863 0.73545 0.5368 0.0
C147 C 0.39445 0.71829 0.59289 0.0
O148 O 0.35968 0.64751 0.66892 0.0
O149 O 0.31877 0.66045 0.62486 0.0
O150 O 0.40245 0.70775 0.6317 0.0
O151 O 0.36362 0.71786 0.58288 0.0
H152 H 0.30523 0.61697 0.5686 0.0
H153 H 0.29946 0.56077 0.54378 0.0
H154 H 0.35992 0.52917 0.6523 0.0
H155 H 0.36593 0.58486 0.67722 0.0
H156 H 0.26329 0.78331 0.79189 0.0
H157 H 0.2909 0.77983 0.72565 0.0
H158 H 0.30885 0.69561 0.83776 0.0
H159 H 0.33626 0.69165 0.77105 0.0
H160 H 0.46882 0.75397 0.50619 0.0
H161 H 0.47553 0.65522 0.54958 0.0
H162 H 0.42359 0.66007 0.57976 0.0
H163 H 0.41689 0.75873 0.53575 0.0
C164 C 0.77407 0.90275 0.09949 0.0
C165 C 0.79032 0.90709 0.06209 0.0
C166 C 0.78565 0.96521 0.0693 0.0
C167 C 0.79586 0.93824 0.04681 0.0
C168 C 0.76663 0.96067 0.1039 0.0
C169 C 0.76088 0.92959 0.11894 0.0
U170 U 0.82324 0.82942 0.12312 0.0
O171 O 0.84533 0.81258 0.18486 0.0
O172 O 0.81449 0.77997 0.14505 0.0
C173 C 0.83077 0.78448 0.18202 0.0
C174 C 0.77818 0.87269 0.12415 0.0
C175 C 0.81484 0.77439 0.22016 0.0
C176 C 0.76836 0.7722 0.26154 0.0
C177 C 0.78416 0.78484 0.22734 0.0
C178 C 0.81483 0.74178 0.28442 0.0
C179 C 0.78183 0.74691 0.28743 0.0
C180 C 0.83072 0.75427 0.25029 0.0
C181 C 0.8946 0.82013 0.05374 0.0
C182 C 0.92815 0.80029 0.99917 0.0
C183 C 0.95053 0.80966 0.07158 0.0
C184 C 0.92075 0.81875 0.08405 0.0
C185 C 0.95461 0.80144 0.02886 0.0
C186 C 0.89831 0.80996 0.01148 0.0
C187 C 0.86448 0.83514 0.06454 0.0
O188 O 0.77458 0.84537 0.10271 0.0
O189 O 0.80375 0.8732 0.15052 0.0
O190 O 0.83867 0.8173 0.05899 0.0
O191 O 0.86566 0.8523 0.1 0.0
H192 H 0.80116 0.88671 0.047 0.0
H193 H 0.81069 0.94136 0.02017 0.0
H194 H 0.75857 0.98128 0.12156 0.0
H195 H 0.74866 0.92675 0.14808 0.0
H196 H 0.74561 0.7827 0.26699 0.0
H197 H 0.77233 0.80253 0.20633 0.0
H198 H 0.82891 0.72798 0.30797 0.0
H199 H 0.85539 0.74792 0.24724 0.0
H200 H 0.93099 0.79373 0.96613 0.0
H201 H 0.97075 0.81041 0.09491 0.0
H202 H 0.91859 0.82608 0.11696 0.0
H203 H 0.87845 0.81078 0.98763 0.0
C204 C 0.70346 0.45203 0.74303 0.0
C205 C 0.69627 0.4843 0.75264 0.0
C206 C 0.70532 0.50055 0.67996 0.0
C207 C 0.69699 0.50824 0.72133 0.0
C208 C 0.71432 0.46883 0.67068 0.0
C209 C 0.71331 0.4447 0.70196 0.0
U210 U 0.64923 0.38841 0.78384 0.0
O211 O 0.65574 0.3391 0.8085 0.0
O212 O 0.63639 0.3765 0.84922 0.0
C213 C 0.6471 0.34678 0.84683 0.0
C214 C 0.69821 0.42619 0.77476 0.0
C215 C 0.66792 0.33536 0.88363 0.0
C216 C 0.71664 0.30977 0.91218 0.0
C217 C 0.69875 0.324 0.87807 0.0
C218 C 0.67412 0.31968 0.9588 0.0
C219 C 0.70418 0.3068 0.95245 0.0
C220 C 0.656 0.33364 0.92446 0.0
C221 C 0.56964 0.37971 0.71751 0.0
C222 C 0.52499 0.34746 0.73826 0.0
C223 C 0.52246 0.37448 0.66929 0.0
C224 C 0.55304 0.38667 0.67832 0.0
C225 C 0.50815 0.35515 0.69936 0.0
C226 C 0.55572 0.3597 0.74732 0.0
C227 C 0.60109 0.3942 0.72673 0.0
O228 O 0.67625 0.43244 0.80147 0.0
O229 O 0.69664 0.39638 0.76003 0.0
O230 O 0.60447 0.41196 0.7616 0.0
O231 O 0.62533 0.37504 0.72165 0.0
H232 H 0.68904 0.49093 0.78403 0.0
H233 H 0.69033 0.53271 0.7291 0.0
H234 H 0.72107 0.46261 0.63892 0.0
H235 H 0.71934 0.42019 0.69354 0.0
H236 H 0.73994 0.30019 0.90685 0.0
H237 H 0.70873 0.32523 0.84712 0.0
H238 H 0.66428 0.31779 0.98979 0.0
H239 H 0.6323 0.34228 0.92948 0.0
H240 H 0.51409 0.3327 0.76182 0.0
H241 H 0.50965 0.38067 0.6392 0.0
H242 H 0.56355 0.40199 0.65498 0.0
H243 H 0.56837 0.35406 0.7777 0.0
C244 C 0.57557 0.26634 0.43597 0.0
C245 C 0.54627 0.27289 0.4136 0.0
C246 C 0.51954 0.27109 0.47988 0.0
C247 C 0.5186 0.27548 0.43538 0.0
C248 C 0.54832 0.26243 0.50211 0.0
C249 C 0.57626 0.26044 0.48039 0.0
U250 U 0.65182 0.31137 0.4226 0.0
O251 O 0.69942 0.29881 0.4035 0.0
O252 O 0.6699 0.33285 0.36454 0.0
C253 C 0.69651 0.31632 0.36837 0.0
C254 C 0.60506 0.2697 0.41317 0.0
C255 C 0.70643 0.3006 0.32928 0.0
C256 C 0.70697 0.25457 0.28128 0.0
C257 C 0.69396 0.27078 0.3153 0.0
C258 C 0.74229 0.2992 0.27198 0.0
C259 C 0.7345 0.26648 0.26269 0.0
C260 C 0.72936 0.31551 0.30582 0.0
C261 C 0.66821 0.38171 0.50016 0.0
C262 C 0.69799 0.42869 0.47957 0.0
C263 C 0.6695 0.42998 0.54432 0.0
C264 C 0.66003 0.3979 0.53722 0.0
C265 C 0.68689 0.44604 0.51405 0.0
C266 C 0.6887 0.3966 0.47263 0.0
C267 C 0.6506 0.3525 0.48639 0.0
O268 O 0.60633 0.29631 0.39046 0.0
O269 O 0.63219 0.26295 0.43471 0.0
O270 O 0.66612 0.32501 0.48946 0.0
O271 O 0.63356 0.35573 0.44991 0.0
H272 H 0.545 0.27742 0.37941 0.0
H273 H 0.49649 0.28169 0.41762 0.0
H274 H 0.54933 0.25851 0.5364 0.0
H275 H 0.59845 0.25536 0.49861 0.0
H276 H 0.69483 0.2329 0.27018 0.0
H277 H 0.67443 0.25989 0.33095 0.0
H278 H 0.75886 0.31252 0.25386 0.0
H279 H 0.73778 0.33963 0.31416 0.0
H280 H 0.71126 0.44085 0.45582 0.0
H281 H 0.66058 0.44313 0.57089 0.0
H282 H 0.64417 0.38671 0.55871 0.0
H283 H 0.69518 0.38439 0.44386 0.0
C284 C 0.09272 0.23642 0.95792 0.0
C285 C 0.09075 0.22283 0.9989 0.0
C286 C 0.0334 0.22986 0.99332 0.0
C287 C 0.06128 0.21991 0.01671 0.0
C288 C 0.03562 0.24508 0.95356 0.0
C289 C 0.06507 0.24839 0.93605 0.0
U290 U 0.1631 0.18673 0.93075 0.0
O291 O 0.18072 0.17402 0.86855 0.0
O292 O 0.21242 0.19862 0.91686 0.0
C293 C 0.20847 0.18797 0.87721 0.0
C294 C 0.12202 0.2338 0.93491 0.0
C295 C 0.21924 0.20951 0.84358 0.0
C296 C 0.20847 0.25013 0.78835 0.0
C297 C 0.19848 0.2318 0.8226 0.0
C298 C 0.26031 0.22483 0.7965 0.0
C299 C 0.23934 0.2465 0.77484 0.0
C300 C 0.25029 0.20642 0.8306 0.0
C301 C 0.16657 0.10267 0.98489 0.0
C302 C 0.1656 0.05319 0.02641 0.0
C303 C 0.18432 0.05222 0.9549 0.0
C304 C 0.17954 0.08558 0.95144 0.0
C305 C 0.17633 0.0357 0.99185 0.0
C306 C 0.16073 0.0865 0.02295 0.0
C307 C 0.1544 0.13569 0.97841 0.0
O308 O 0.14913 0.23319 0.95844 0.0
O309 O 0.12037 0.21195 0.90438 0.0
O310 O 0.13888 0.14089 0.94122 0.0
O311 O 0.1733 0.15968 0.99106 0.0
H312 H 0.11167 0.21303 0.01624 0.0
H313 H 0.05997 0.20818 0.04749 0.0
H314 H 0.01436 0.25297 0.93514 0.0
H315 H 0.06601 0.25871 0.90433 0.0
H316 H 0.192 0.26677 0.77196 0.0
H317 H 0.17442 0.23455 0.83216 0.0
H318 H 0.2842 0.22175 0.78646 0.0
H319 H 0.2666 0.18929 0.84633 0.0
H320 H 0.15879 0.04074 0.05471 0.0
H321 H 0.19246 0.03901 0.92784 0.0
H322 H 0.18415 0.09765 0.92176 0.0
H323 H 0.15052 0.09924 0.04896 0.0
C324 C 0.27388 0.55093 0.35347 0.0
C325 C 0.26854 0.51823 0.34321 0.0
C326 C 0.28139 0.50314 0.41737 0.0
C327 C 0.27248 0.49451 0.37487 0.0
C328 C 0.28376 0.53591 0.42859 0.0
C329 C 0.2803 0.55968 0.3968 0.0
U330 U 0.33051 0.60551 0.30323 0.0
O331 O 0.34284 0.6122 0.23642 0.0
O332 O 0.32877 0.65386 0.27437 0.0
C333 C 0.33594 0.64316 0.23659 0.0
C334 C 0.27861 0.57425 0.31853 0.0
C335 C 0.31631 0.6553 0.19921 0.0
C336 C 0.26818 0.68071 0.16833 0.0
C337 C 0.28496 0.66578 0.20295 0.0
C338 C 0.31306 0.67323 0.12493 0.0
C339 C 0.28239 0.68524 0.12948 0.0
C340 C 0.32997 0.65852 0.15971 0.0
C341 C 0.41274 0.606 0.36578 0.0
C342 C 0.45368 0.64732 0.37581 0.0
C343 C 0.4674 0.59075 0.38497 0.0
C344 C 0.43572 0.58215 0.37527 0.0
C345 C 0.47651 0.62336 0.38558 0.0
C346 C 0.42195 0.6387 0.36577 0.0
C347 C 0.37931 0.59601 0.35828 0.0
O348 O 0.28347 0.6046 0.32994 0.0
O349 O 0.29832 0.56421 0.29058 0.0
O350 O 0.37273 0.57722 0.32495 0.0
O351 O 0.35768 0.61827 0.36324 0.0
H352 H 0.26357 0.51081 0.3102 0.0
H353 H 0.27033 0.46928 0.36579 0.0
H354 H 0.2905 0.54292 0.46134 0.0
H355 H 0.28463 0.58463 0.4059 0.0
H356 H 0.24444 0.6897 0.17226 0.0
H357 H 0.27379 0.66334 0.23295 0.0
H358 H 0.32429 0.67643 0.0951 0.0
H359 H 0.3541 0.65052 0.15616 0.0
H360 H 0.46042 0.67261 0.37618 0.0
H361 H 0.48478 0.57201 0.39252 0.0
H362 H 0.42906 0.55685 0.3757 0.0
H363 H 0.40466 0.65757 0.35855 0.0
C364 C 0.83407 0.93859 0.86234 0.0
C365 C 0.84451 0.96809 0.84581 0.0
C366 C 0.82114 0.9975 0.90298 0.0
C367 C 0.83812 0.99723 0.86601 0.0
C368 C 0.80908 0.96843 0.9183 0.0
C369 C 0.81569 0.93914 0.89829 0.0
U370 U 0.8405 0.86549 0.78376 0.0
O371 O 0.82676 0.88721 0.7211 0.0
O372 O 0.79218 0.85822 0.7539 0.0
C373 C 0.7991 0.8723 0.71796 0.0
C374 C 0.84639 0.90745 0.84694 0.0
C375 C 0.79154 0.85335 0.67824 0.0
C376 C 0.75645 0.81579 0.63806 0.0
C377 C 0.76307 0.8356 0.67373 0.0
C378 C 0.80583 0.83224 0.60922 0.0
C379 C 0.77801 0.81349 0.60598 0.0
C380 C 0.81265 0.85193 0.64518 0.0
C381 C 0.90755 0.80798 0.81424 0.0
C382 C 0.96145 0.78733 0.82125 0.0
C383 C 0.94204 0.82094 0.87732 0.0
C384 C 0.91244 0.82294 0.85449 0.0
C385 C 0.96709 0.80425 0.8599 0.0
C386 C 0.93181 0.78922 0.7985 0.0
C387 C 0.87984 0.81646 0.7855 0.0
O388 O 0.86342 0.90843 0.81328 0.0
O389 O 0.82754 0.88207 0.84732 0.0
O390 O 0.88392 0.84285 0.76326 0.0
O391 O 0.85195 0.81513 0.80186 0.0
H392 H 0.85896 0.96866 0.81851 0.0
H393 H 0.84764 0.01951 0.85389 0.0
H394 H 0.79603 0.96829 0.94695 0.0
H395 H 0.80774 0.91681 0.91217 0.0
H396 H 0.73473 0.80165 0.6359 0.0
H397 H 0.74619 0.8365 0.69831 0.0
H398 H 0.82261 0.83093 0.58456 0.0
H399 H 0.83468 0.86551 0.64736 0.0
H400 H 0.9806 0.77454 0.80727 0.0
H401 H 0.94613 0.8344 0.90686 0.0
H402 H 0.89411 0.83789 0.86689 0.0
H403 H 0.92851 0.77781 0.76732 0.0
C404 C 0.19637 0.91423 0.11532 0.0
C405 C 0.16848 0.90456 0.09075 0.0
C406 C 0.14613 0.95871 0.09686 0.0
C407 C 0.1719 0.96692 0.12641 0.0
N408 N 0.22119 0.95304 0.16545 0.0
N409 N 0.11553 0.91614 0.06038 0.0
C410 C 0.19717 0.94495 0.1358 0.0
C411 C 0.14313 0.92652 0.08167 0.0
N412 N 0.22219 0.89426 0.11826 0.0
N413 N 0.12459 0.98181 0.08329 0.0
H414 H 0.11238 0.89278 0.04838 0.0
H415 H 0.09487 0.92989 0.05711 0.0
H416 H 0.12556 0.00554 0.09454 0.0
H417 H 0.1073 0.9783 0.05832 0.0
H418 H 0.24435 0.90106 0.13214 0.0
H419 H 0.22217 0.8716 0.10356 0.0
H420 H 0.23844 0.93684 0.17737 0.0
H421 H 0.22287 0.9757 0.1801 0.0
C422 C 0.55963 0.70757 0.48528 0.0
C423 C 0.57798 0.70593 0.52493 0.0
C424 C 0.52992 0.71144 0.56362 0.0
C425 C 0.51121 0.70624 0.52468 0.0
N426 N 0.50724 0.70386 0.44758 0.0
N427 N 0.58042 0.72999 0.59536 0.0
C428 C 0.52575 0.70612 0.48505 0.0
C429 C 0.56324 0.71477 0.56258 0.0
N430 N 0.57449 0.71394 0.4488 0.0
N431 N 0.516 0.71341 0.60176 0.0
H432 H 0.60348 0.73843 0.59229 0.0
H433 H 0.57037 0.73918 0.62232 0.0
H434 H 0.49149 0.71415 0.60423 0.0
H435 H 0.52898 0.71263 0.63132 0.0
H436 H 0.56259 0.71815 0.41911 0.0
H437 H 0.59879 0.7189 0.44946 0.0
H438 H 0.51626 0.70155 0.41763 0.0
H439 H 0.48248 0.70269 0.44664 0.0
C440 C 0.78846 0.05537 0.05204 0.0
C441 C 0.81907 0.06249 0.07159 0.0
C442 C 0.83038 0.00499 0.08071 0.0
C443 C 0.79935 0.99773 0.06257 0.0
N444 N 0.75294 0.01449 0.01954 0.0
N445 N 0.87259 0.04471 0.08987 0.0
C446 C 0.77978 0.02252 0.0442 0.0
C447 C 0.84118 0.03742 0.081 0.0
N448 N 0.76708 0.07965 0.04342 0.0
N449 N 0.84878 0.98137 0.10023 0.0
H450 H 0.88125 0.06836 0.08959 0.0
H451 H 0.89037 0.02727 0.0928 0.0
H452 H 0.84208 0.95714 0.10091 0.0
H453 H 0.86984 0.98618 0.11854 0.0
H454 H 0.74334 0.07562 0.03344 0.0
H455 H 0.77256 0.10397 0.04865 0.0
H456 H 0.73914 0.03126 1.00188 0.0
H457 H 0.74632 0.99049 0.01355 0.0
C458 C 0.43448 0.30788 0.65909 0.0
C459 C 0.41153 0.33302 0.65837 0.0
C460 C 0.45058 0.36842 0.69661 0.0
C461 C 0.47455 0.34535 0.6907 0.0
N462 N 0.49044 0.29391 0.66324 0.0
N463 N 0.40049 0.3898 0.66851 0.0
C464 C 0.46682 0.31513 0.67134 0.0
C465 C 0.42007 0.3639 0.67564 0.0
N466 N 0.42525 0.27699 0.64882 0.0
N467 N 0.45719 0.39506 0.72155 0.0
H468 H 0.37933 0.38839 0.64975 0.0
H469 H 0.40706 0.41344 0.67657 0.0
H470 H 0.47955 0.39936 0.73692 0.0
H471 H 0.43972 0.41107 0.7303 0.0
H472 H 0.44041 0.2572 0.6523 0.0
H473 H 0.40162 0.27063 0.64085 0.0
H474 H 0.48669 0.2733 0.6444 0.0
H475 H 0.51425 0.29805 0.67305 0.0
C476 C 0.71579 0.53308 0.51284 0.0
C477 C 0.68862 0.548 0.49242 0.0
C478 C 0.65921 0.49713 0.49193 0.0
C479 C 0.68649 0.48178 0.51176 0.0
N480 N 0.73792 0.48561 0.54974 0.0
N481 N 0.63208 0.5473 0.47436 0.0
C482 C 0.71395 0.5 0.52514 0.0
C483 C 0.65953 0.53097 0.48593 0.0
N484 N 0.74338 0.55032 0.51929 0.0
N485 N 0.63362 0.47917 0.47645 0.0
H486 H 0.63138 0.5722 0.46924 0.0
H487 H 0.6096 0.53678 0.47397 0.0
H488 H 0.63188 0.45424 0.48032 0.0
H489 H 0.61497 0.48862 0.45681 0.0
H490 H 0.76499 0.54022 0.53027 0.0
H491 H 0.74482 0.57487 0.51197 0.0
H492 H 0.75735 0.4981 0.56394 0.0
H493 H 0.73699 0.46137 0.55878 0.0
C494 C 0.94824 0.24051 0.02305 0.0
C495 C 0.937 0.20826 0.01926 0.0
C496 C 0.99013 0.18937 1.00463 0.0
C497 C 0.00147 0.22173 0.00788 0.0
N498 N 0.99389 0.27659 0.03046 0.0
N499 N 0.94835 0.1512 0.01843 0.0
C500 C 0.98127 0.24686 0.02048 0.0
C501 C 0.95841 0.18241 0.01432 0.0
N502 N 0.9272 0.26504 0.02817 0.0
N503 N 0.00883 0.16562 0.98935 0.0
H504 H 0.92502 0.14511 0.02425 0.0
H505 H 0.96372 0.13151 0.02003 0.0
H506 H 0.03211 0.1695 0.98129 0.0
H507 H 0.00051 0.14253 0.98137 0.0
H508 H 0.93312 0.28941 0.02635 0.0
H509 H 0.90319 0.26091 0.03245 0.0
H510 H 0.98117 0.29524 0.04355 0.0
H511 H 0.01807 0.28167 0.0292 0.0
C512 C 0.27804 0.4304 0.49134 0.0
C513 C 0.30971 0.41925 0.48961 0.0
C514 C 0.32428 0.46887 0.45284 0.0
C515 C 0.29165 0.47745 0.44843 0.0
N516 N 0.2375 0.46871 0.46519 0.0
N517 N 0.36368 0.42762 0.47137 0.0
C518 C 0.26858 0.45914 0.46888 0.0
C519 C 0.33315 0.43871 0.47168 0.0
N520 N 0.25705 0.41315 0.5138 0.0
N521 N 0.34669 0.48951 0.43868 0.0
H522 H 0.37142 0.40668 0.48742 0.0
H523 H 0.38119 0.43835 0.45426 0.0
H524 H 0.34104 0.51129 0.42332 0.0
H525 H 0.37105 0.48644 0.44476 0.0
H526 H 0.23431 0.421 0.51945 0.0
H527 H 0.26319 0.39168 0.52968 0.0
H528 H 0.21867 0.455 0.47518 0.0
H529 H 0.2303 0.49041 0.45064 0.0
C530 C 0.04687 0.84403 0.88931 0.0
C531 C 0.06511 0.81713 0.90455 0.0
C532 C 0.01706 0.78336 0.89904 0.0
C533 C 0.00026 0.80902 0.87785 0.0
N534 N 0.00072 0.86239 0.84637 0.0
N535 N 0.0685 0.7601 0.92024 0.0
C536 C 0.01554 0.83903 0.87133 0.0
C537 C 0.05044 0.78646 0.90871 0.0
N538 N 0.059 0.87463 0.8935 0.0
N539 N 0.00099 0.75638 0.91058 0.0
H540 H 0.09303 0.76138 0.92712 0.0
H541 H 0.05963 0.73659 0.91981 0.0
H542 H 0.97653 0.75358 0.90395 0.0
H543 H 0.01125 0.73824 0.92996 0.0
H544 H 0.04539 0.89531 0.88736 0.0
H545 H 0.08163 0.87953 0.90743 0.0
H546 H 0.01229 0.88314 0.83669 0.0
H547 H 0.97782 0.85985 0.83195 0.0
C548 C 0.84826 0.0684 0.97232 0.0
C549 C 0.82332 0.09081 0.96277 0.0
C550 C 0.79454 0.05043 0.9175 0.0
C551 C 0.81927 0.028 0.9277 0.0
N552 N 0.86522 0.01252 0.9731 0.0
N553 N 0.76981 0.1014 0.93452 0.0
C554 C 0.84461 0.03598 0.95801 0.0
C555 C 0.79551 0.08127 0.93782 0.0
N556 N 0.87625 0.07849 0.99286 0.0
N557 N 0.77068 0.04253 0.88753 0.0
H558 H 0.76982 0.12402 0.94931 0.0
H559 H 0.74771 0.09469 0.92036 0.0
H560 H 0.76861 0.01966 0.87353 0.0
H561 H 0.75394 0.05902 0.87492 0.0
H562 H 0.8965 0.06413 0.99635 0.0
H563 H 0.8803 0.10212 1.00346 0.0
H564 H 0.88195 0.01607 0.99875 0.0
H565 H 0.86368 0.98858 0.96271 0.0
C566 C 0.43437 0.26078 0.50972 0.0
C567 C 0.428 0.29291 0.52209 0.0
C568 C 0.48471 0.30625 0.52246 0.0
C569 C 0.48992 0.27612 0.50227 0.0
N570 N 0.47121 0.22339 0.47971 0.0
N571 N 0.44639 0.34607 0.54342 0.0
C572 C 0.46524 0.25276 0.49748 0.0
C573 C 0.45311 0.3154 0.53048 0.0
N574 N 0.41079 0.23805 0.51015 0.0
N575 N 0.50989 0.32625 0.53312 0.0
H576 H 0.42368 0.35329 0.55054 0.0
H577 H 0.46283 0.36488 0.54546 0.0
H578 H 0.53309 0.3209 0.5261 0.0
H579 H 0.50837 0.34696 0.55172 0.0
H580 H 0.41422 0.21353 0.50482 0.0
H581 H 0.38813 0.24343 0.5196 0.0
H582 H 0.45366 0.2066 0.47038 0.0
H583 H 0.49402 0.21616 0.47291 0.0
C584 C 0.20019 0.94677 0.99886 0.0
C585 C 0.1722 0.93242 0.97956 0.0
C586 C 0.14523 0.98492 0.97712 0.0
C587 C 0.17444 -0.00015 0.99142 0.0
N588 N 0.22923 0.99624 0.01796 0.0
N589 N 0.11693 0.93574 0.95517 0.0
C590 C 0.20172 0.98106 1.00343 0.0
C591 C 0.14427 0.95094 0.97048 0.0
N592 N 0.22501 0.92748 0.01298 0.0
N593 N 0.11844 0.00336 0.97026 0.0
H594 H 0.11468 0.91066 0.95411 0.0
H595 H 0.09644 0.94746 0.94321 0.0
H596 H 0.11837 0.02843 0.97343 0.0
H597 H 0.09571 0.99415 0.96338 0.0
H598 H 0.2452 0.93574 0.03065 0.0
H599 H 0.22446 0.9024 0.0095 0.0
H600 H 0.25097 0.98466 0.02356 0.0
H601 H 0.23061 0.02113 0.02311 0.0
C602 C 0.56184 0.65195 0.37809 0.0
C603 C 0.57525 0.64262 0.41902 0.0
C604 C 0.52247 0.62742 0.4403 0.0
C605 C 0.51004 0.63212 0.39749 0.0
N606 N 0.51848 0.64524 0.32396 0.0
N607 N 0.56911 0.61675 0.48735 0.0
C608 C 0.52983 0.64359 0.36589 0.0
C609 C 0.55579 0.6293 0.4499 0.0
N610 N 0.57951 0.66957 0.35137 0.0
N611 N 0.50234 0.62185 0.47195 0.0
H612 H 0.59347 0.61685 0.49558 0.0
H613 H 0.55626 0.60355 0.50865 0.0
H614 H 0.47769 0.62081 0.46617 0.0
H615 H 0.50985 0.62154 0.50436 0.0
H616 H 0.57008 0.6798 0.32287 0.0
H617 H 0.60283 0.67681 0.35985 0.0
H618 H 0.53287 0.65 0.29893 0.0
H619 H 0.49516 0.63925 0.31364 0.0
C620 C 0.29195 0.45763 0.60262 0.0
C621 C 0.31917 0.43892 0.59572 0.0
C622 C 0.34616 0.48722 0.57089 0.0
C623 C 0.32192 0.50648 0.5867 0.0
N624 N 0.27093 0.5107 0.61685 0.0
N625 N 0.37289 0.43554 0.5735 0.0
C626 C 0.29417 0.49189 0.60141 0.0
C627 C 0.34627 0.45345 0.57897 0.0
N628 N 0.26415 0.44247 0.61064 0.0
N629 N 0.36917 0.50147 0.54861 0.0
H630 H 0.37386 0.41061 0.57779 0.0
H631 H 0.39461 0.44564 0.56664 0.0
H632 H 0.36929 0.52626 0.54238 0.0
H633 H 0.38598 0.4885 0.5328 0.0
H634 H 0.24258 0.45447 0.61211 0.0
H635 H 0.26213 0.41733 0.61164 0.0
H636 H 0.25207 0.50149 0.63292 0.0
H637 H 0.27133 0.53587 0.6156 0.0
C638 C 0.03772 0.76794 0.0229 0.0
C639 C 0.05411 0.79734 0.01693 0.0
C640 C 0.00347 0.82514 1.00126 0.0
C641 C 0.9874 0.7975 0.0155 0.0
N642 N 0.98797 0.74191 0.03787 0.0
N643 N 0.05287 0.85487 1.00267 0.0
C644 C 0.00414 0.76847 0.02513 0.0
C645 C 0.03712 0.82609 1.00573 0.0
N646 N 0.05431 0.73962 0.02588 0.0
N647 N 0.98655 0.8508 0.98441 0.0
H648 H 0.0775 0.85713 1.0061 0.0
H649 H 0.04148 0.87714 0.99986 0.0
H650 H 0.9618 0.85162 0.98243 0.0
H651 H 0.9969 0.86992 0.96872 0.0
H652 H 0.0436 0.71695 0.02654 0.0
H653 H 0.0789 0.73871 0.02383 0.0
H654 H -0.00102 0.72111 0.05022 0.0
H655 H 0.9632 0.74125 0.03754 0.0
C656 C 0.72381 0.57686 0.61862 0.0
C657 C 0.69348 0.58273 0.59779 0.0
C658 C 0.67501 0.52952 0.61998 0.0
C659 C 0.70345 0.52606 0.64653 0.0
N660 N 0.75554 0.54524 0.67097 0.0
N661 N 0.63974 0.56557 0.57828 0.0
C662 C 0.72824 0.54923 0.64535 0.0
C663 C 0.66909 0.55906 0.5977 0.0
N664 N 0.74838 0.59753 0.61215 0.0
N665 N 0.65361 0.50462 0.61638 0.0
H666 H 0.63471 0.58661 0.5608 0.0
H667 H 0.61984 0.55102 0.58118 0.0
H668 H 0.65664 0.48312 0.6335 0.0
H669 H 0.63424 0.50408 0.59391 0.0
H670 H 0.77184 0.59324 0.6231 0.0
H671 H 0.74571 0.61786 0.59251 0.0
H672 H 0.773 0.56295 0.67574 0.0
H673 H 0.76017 0.52442 0.68912 0.0
C674 C 0.96261 0.15135 0.13554 0.0
C675 C 0.94126 0.17756 0.13001 0.0
C676 C 0.98557 0.21555 0.14277 0.0
C677 C 0.00534 0.18942 0.15663 0.0
N678 N 0.01185 0.1321 0.17013 0.0
N679 N 0.93162 0.23503 0.12907 0.0
C680 C 0.99384 0.15713 0.1535 0.0
C681 C 0.95255 0.20988 0.13307 0.0
N682 N 0.95308 0.12096 0.12309 0.0
N683 N 0.99846 0.24563 0.1389 0.0
H684 H 0.90731 0.23182 0.12183 0.0
H685 H 0.938 0.25895 0.1355 0.0
H686 H 0.02264 0.25023 0.14572 0.0
H687 H 0.98595 0.26516 0.1253 0.0
H688 H 0.96861 0.10145 0.12245 0.0
H689 H 0.93042 0.11605 0.109 0.0
H690 H 0.00302 0.10874 0.17316 0.0
H691 H 0.03479 0.13497 0.18426 0.0
C692 C 0.21633 0.71179 0.04966 0.0
C693 C 0.22268 0.74536 0.0485 0.0
C694 C 0.27316 0.73781 0.09044 0.0
C695 C 0.26549 0.70458 0.09504 0.0
N696 N 0.23532 0.6581 0.06993 0.0
N697 N 0.2605 0.78887 0.05497 0.0
C698 C 0.23891 0.69092 0.07126 0.0
C699 C 0.25252 0.75774 0.06416 0.0
N700 N 0.188 0.70039 0.03183 0.0
N701 N 0.29875 0.75079 0.11368 0.0
H702 H 0.24531 0.804 0.03651 0.0
H703 H 0.28298 0.79871 0.06213 0.0
H704 H 0.31462 0.73702 0.13302 0.0
H705 H 0.30337 0.77548 0.11582 0.0
H706 H 0.17996 0.67681 0.03537 0.0
H707 H 0.17203 0.71522 0.01405 0.0
H708 H 0.21773 0.64623 0.05091 0.0
H709 H 0.25175 0.64252 0.08551 0.0
C710 C 0.72997 0.77124 0.51715 0.0
C711 C 0.74082 0.73934 0.52471 0.0
C712 C 0.78485 0.75886 0.57261 0.0
C713 C 0.7712 0.79022 0.57025 0.0
N714 N 0.73805 0.82869 0.53108 0.0
N715 N 0.78366 0.70372 0.54508 0.0
C716 C 0.74633 0.79726 0.53885 0.0
C717 C 0.77046 0.73372 0.54703 0.0
N718 N 0.70269 0.77603 0.49188 0.0
N719 N 0.80981 0.75265 0.60159 0.0
H720 H 0.77263 0.68532 0.52655 0.0
H721 H 0.80626 0.69798 0.55832 0.0
H722 H 0.82119 0.77063 0.62034 0.0
H723 H 0.81857 0.72958 0.6083 0.0
H724 H 0.6912 0.79817 0.48822 0.0
H725 H 0.69128 0.75707 0.47493 0.0
H726 H 0.72129 0.83592 0.50705 0.0
H727 H 0.75001 0.84786 0.54688 0.0
C728 C 0.75394 0.20337 0.17806 0.0
C729 C 0.7805 0.21759 0.1603 0.0
C730 C 0.78259 0.25849 0.21684 0.0
C731 C 0.75354 0.24661 0.23187 0.0
N732 N 0.7317 0.19383 0.24517 0.0
N733 N 0.81715 0.26197 0.15829 0.0
C734 C 0.74379 0.21524 0.21739 0.0
C735 C 0.79346 0.24654 0.17786 0.0
N736 N 0.73944 0.17728 0.15844 0.0
N737 N 0.80304 0.27584 0.24374 0.0
H738 H 0.82577 0.25345 0.1299 0.0
H739 H 0.82574 0.28466 0.16801 0.0
H740 H 0.79928 0.27868 0.27615 0.0
H741 H 0.82575 0.28268 0.23595 0.0
H742 H 0.71852 0.16728 0.16867 0.0
H743 H 0.7468 0.168 0.12967 0.0
H744 H 0.72638 0.16988 0.23709 0.0
H745 H 0.73292 0.19827 0.27809 0.0
C746 C 0.2688 0.31428 0.70481 0.0
C747 C 0.27274 0.29724 0.6662 0.0
C748 C 0.2482 0.24925 0.69622 0.0
C749 C 0.24936 0.2646 0.73693 0.0
N750 N 0.26119 0.31163 0.78082 0.0
N751 N 0.24864 0.25647 0.61957 0.0
C752 C 0.25938 0.29727 0.74137 0.0
C753 C 0.25749 0.26683 0.66002 0.0
N754 N 0.27111 0.34719 0.7051 0.0
N755 N 0.23868 0.21772 0.69224 0.0
H756 H 0.24876 0.27201 0.59349 0.0
H757 H 0.23599 0.23524 0.61269 0.0
H758 H 0.23009 0.20454 0.71742 0.0
H759 H 0.2412 0.20402 0.66475 0.0
H760 H 0.26603 0.36153 0.73111 0.0
H761 H 0.27387 0.36032 0.67711 0.0
H762 H 0.27187 0.33403 0.78694 0.0
H763 H 0.25405 0.30012 0.80824 0.0
C764 C 0.71657 0.72652 0.36303 0.0
C765 C 0.73242 0.70443 0.39132 0.0
C766 C 0.77667 0.70272 0.34499 0.0
C767 C 0.76275 0.7281 0.31924 0.0
N768 N 0.71007 0.74083 0.28885 0.0
N769 N 0.77982 0.67546 0.41362 0.0
C770 C 0.72998 0.73447 0.32404 0.0
C771 C 0.76349 0.69437 0.38403 0.0
N772 N 0.68771 0.73846 0.37228 0.0
N773 N 0.79757 0.68194 0.32811 0.0
H774 H 0.77026 0.66886 0.4423 0.0
H775 H 0.80361 0.6693 0.41129 0.0
H776 H 0.80165 0.68222 0.29558 0.0
H777 H 0.80641 0.66145 0.34416 0.0
H778 H 0.67611 0.7565 0.35399 0.0
H779 H 0.67717 0.7324 0.40046 0.0
H780 H 0.68552 0.74305 0.29004 0.0
H781 H 0.7174 0.73808 0.25786 0.0
C782 C 0.77532 0.28157 0.0233 0.0
C783 C 0.76892 0.24813 0.0265 0.0
C784 C 0.71505 0.25573 0.99448 0.0
C785 C 0.72265 0.2886 0.98665 0.0
N786 N 0.75509 0.33513 1.00474 0.0
N787 N 0.73065 0.20548 0.03027 0.0
C788 C 0.75116 0.30236 1.00529 0.0
C789 C 0.73781 0.23609 0.01771 0.0
N790 N 0.80511 0.2928 0.03528 0.0
N791 N 0.68732 0.24272 0.97686 0.0
H792 H 0.74736 0.19088 0.04706 0.0
H793 H 0.70777 0.19583 0.02785 0.0
H794 H 0.66991 0.25636 0.96 0.0
H795 H 0.68217 0.21811 0.97704 0.0
H796 H 0.81282 0.31623 0.02966 0.0
H797 H 0.82249 0.27792 0.05026 0.0
H798 H 0.77442 0.34712 0.02001 0.0
H799 H 0.73742 0.35057 0.99173 0.0
C800 C 0.27197 0.22087 0.52381 0.0
C801 C 0.26359 0.25309 0.51303 0.0
C802 C 0.21998 0.23461 0.46379 0.0
C803 C 0.23038 0.20233 0.47103 0.0
N804 N 0.25862 0.1638 0.51657 0.0
N805 N 0.224 0.29077 0.48638 0.0
C806 C 0.25371 0.19518 0.50442 0.0
C807 C 0.23536 0.25988 0.48786 0.0
N808 N 0.29848 0.21499 0.5502 0.0
N809 N 0.19729 0.24134 0.43174 0.0
H810 H 0.23531 0.30943 0.5041 0.0
H811 H 0.20214 0.29717 0.4713 0.0
H812 H 0.18515 0.22351 0.41363 0.0
H813 H 0.19158 0.26468 0.42153 0.0
H814 H 0.30813 0.19211 0.55555 0.0
H815 H 0.31147 0.23348 0.56595 0.0
H816 H 0.27369 0.15687 0.54268 0.0
H817 H 0.24528 0.14481 0.50248 0.0
C818 C 0.26187 0.78348 0.91774 0.0
C819 C 0.23049 0.77177 0.91993 0.0
C820 C 0.23946 0.72995 0.86703 0.0
C821 C 0.2693 0.74441 0.86068 0.0
N822 N 0.31335 0.77704 0.88824 0.0
N823 N 0.19307 0.72834 0.90929 0.0
C824 C 0.28213 0.76837 0.88934 0.0
C825 C 0.22075 0.74273 0.89915 0.0
N826 N 0.27124 0.81033 0.94074 0.0
N827 N 0.2283 0.70563 0.84049 0.0
H828 H 0.1793 0.7378 0.9328 0.0
H829 H 0.18527 0.70597 0.89748 0.0
H830 H 0.24197 0.69535 0.8175 0.0
H831 H 0.20533 0.69634 0.84019 0.0
H832 H 0.29252 0.82256 0.93741 0.0
H833 H 0.25685 0.82091 0.96272 0.0
H834 H 0.32493 0.7929 0.90994 0.0
H835 H 0.32842 0.76611 0.86743 0.0
loop_
_geom_bond_atom_site_label_1
_geom_bond_atom_site_label_2
_geom_bond_distance
_geom_bond_site_symmetry_2
_ccdc_geom_bond_type
Zn0 O6 1.920 . S
Zn0 O12 1.898 . S
Zn0 O15 1.905 . S
Zn1 O9 1.905 . S
Zn1 O10 1.898 . S
Zn1 O18 1.920 . S
Zn2 O5 2.085 . S
Zn2 O8 2.109 1_554 S
Zn2 O11 2.109 1_554 S
Zn2 O13 2.130 . S
Zn2 O14 2.122 . S
Zn2 O17 2.073 1_554 S
C3 O8 1.166 . S
C3 O9 1.182 . S
C4 O10 1.167 . S
C4 O11 1.299 . S
O5 Zn2 2.085 . S
O5 C19 1.305 . S
O6 Zn0 1.920 . S
O6 C19 1.234 . S
C7 O12 1.167 . S
C7 O13 1.299 . S
O8 Zn2 2.109 1_556 S
O8 C3 1.166 . S
O9 Zn1 1.905 . S
O9 C3 1.182 . S
O10 Zn1 1.898 . S
O10 C4 1.167 . S
O11 Zn2 2.109 1_556 S
O11 C4 1.299 . S
O12 Zn0 1.898 . S
O12 C7 1.167 . S
O13 Zn2 2.130 . S
O13 C7 1.299 . S
O14 Zn2 2.122 . S
O14 C16 1.166 . S
O15 Zn0 1.905 . S
O15 C16 1.182 . S
C16 O14 1.166 . S
C16 O15 1.182 . S
O17 Zn2 2.073 1_556 S
O17 C20 1.305 . S
O18 Zn1 1.920 . S
O18 C20 1.234 . S
C19 O5 1.305 . S
C19 O6 1.234 . S
C20 O17 1.305 . S
C20 O18 1.234 . S
Zn21 O27 1.920 . S
Zn21 O33 1.898 . S
Zn21 O36 1.905 . S
Zn22 O30 1.905 . S
Zn22 O31 1.898 . S
Zn22 O39 1.920 . S
Zn23 O26 2.080 . S
Zn23 O29 2.114 . S
Zn23 O32 2.120 . S
Zn23 O34 2.120 . S
Zn23 O35 2.114 . S
Zn23 O38 2.080 . S
C24 O29 1.166 . S
C24 O30 1.182 . S
C25 O31 1.167 . S
C25 O32 1.299 . S
O26 Zn23 2.080 . S
O26 C40 1.305 . S
O27 Zn21 1.920 . S
O27 C40 1.234 . S
C28 O33 1.167 . S
C28 O34 1.299 . S
O29 Zn23 2.114 . S
O29 C24 1.166 . S
O30 Zn22 1.905 . S
O30 C24 1.182 . S
O31 Zn22 1.898 . S
O31 C25 1.167 . S
O32 Zn23 2.120 . S
O32 C25 1.299 . S
O33 Zn21 1.898 . S
O33 C28 1.167 . S
O34 Zn23 2.120 . S
O34 C28 1.299 . S
O35 Zn23 2.114 . S
O35 C37 1.166 . S
O36 Zn21 1.905 . S
O36 C37 1.182 . S
C37 O35 1.166 . S
C37 O36 1.182 . S
O38 Zn23 2.080 . S
O38 C41 1.305 . S
O39 Zn22 1.920 . S
O39 C41 1.234 . S
C40 O26 1.305 . S
C40 O27 1.234 . S
C41 O38 1.305 . S
C41 O39 1.234 . S
Zn42 O48 1.920 . S
Zn42 O54 1.898 . S
Zn42 O57 1.905 . S
Zn43 O51 1.905 . S
Zn43 O52 1.898 . S
Zn43 O60 1.920 . S
Zn44 O47 2.080 . S
Zn44 O50 2.114 . S
Zn44 O53 2.120 . S
Zn44 O55 2.120 . S
Zn44 O56 2.134 . S
Zn44 O59 2.080 . S
C45 O50 1.166 . S
C45 O51 1.182 . S
C46 O52 1.167 . S
C46 O53 1.299 . S
O47 Zn44 2.080 . S
O47 C61 1.305 1_554 S
O48 Zn42 1.920 . S
O48 C61 1.234 . S
C49 O54 1.143 1_554 S
C49 O55 1.317 . S
O50 Zn44 2.114 . S
O50 C45 1.166 . S
O51 Zn43 1.905 . S
O51 C45 1.182 . S
O52 Zn43 1.898 . S
O52 C46 1.167 . S
O53 Zn44 2.120 . S
O53 C46 1.299 . S
O54 Zn42 1.898 . S
O54 C49 1.143 1_556 S
O55 Zn44 2.120 . S
O55 C49 1.317 . S
O56 Zn44 2.134 . S
O56 C58 1.142 1_554 S
O57 Zn42 1.905 . S
O57 C58 1.182 . S
C58 O56 1.142 1_556 S
C58 O57 1.182 . S
O59 Zn44 2.080 . S
O59 C62 1.305 . S
O60 Zn43 1.920 . S
O60 C62 1.234 . S
C61 O47 1.305 1_556 S
C61 O48 1.234 . S
C62 O59 1.305 . S
C62 O60 1.234 . S
Zn63 O69 1.920 . S
Zn63 O75 1.898 . S
Zn63 O78 1.905 . S
Zn64 O72 1.905 . S
Zn64 O73 1.898 . S
Zn64 O81 1.920 . S
Zn65 O68 2.080 . S
Zn65 O71 2.114 . S
Zn65 O74 2.120 . S
Zn65 O76 2.120 . S
Zn65 O77 2.114 . S
Zn65 O80 2.080 . S
C66 O71 1.166 . S
C66 O72 1.182 . S
C67 O73 1.167 . S
C67 O74 1.299 . S
O68 Zn65 2.080 . S
O68 C82 1.305 . S
O69 Zn63 1.920 . S
O69 C82 1.234 . S
C70 O75 1.167 . S
C70 O76 1.299 . S
O71 Zn65 2.114 . S
O71 C66 1.166 . S
O72 Zn64 1.905 . S
O72 C66 1.182 . S
O73 Zn64 1.898 . S
O73 C67 1.167 . S
O74 Zn65 2.120 . S
O74 C67 1.299 . S
O75 Zn63 1.898 . S
O75 C70 1.167 . S
O76 Zn65 2.120 . S
O76 C70 1.299 . S
O77 Zn65 2.114 . S
O77 C79 1.166 . S
O78 Zn63 1.905 . S
O78 C79 1.182 . S
C79 O77 1.166 . S
C79 O78 1.182 . S
O80 Zn65 2.080 . S
O80 C83 1.305 . S
O81 Zn64 1.920 . S
O81 C83 1.234 . S
C82 O68 1.305 . S
C82 O69 1.234 . S
C83 O80 1.305 . S
C83 O81 1.234 . S
C84 C85 1.264 . S
C84 C89 1.479 . S
C84 C94 1.465 . S
C85 C84 1.264 . S
C85 C87 1.339 . S
C85 H112 0.931 . S
C86 C87 1.395 . S
C86 C88 1.320 . S
C87 C85 1.339 . S
C87 C86 1.395 . S
C87 H113 0.929 . S
C88 C86 1.320 . S
C88 C89 1.405 . S
C88 H114 0.930 . S
C89 C84 1.479 . S
C89 C88 1.405 . S
C89 H115 0.931 . S
U90 O91 2.454 . S
U90 O92 2.458 . S
U90 C93 2.984 . S
U90 C94 2.847 . S
U90 C107 2.882 . S
U90 O108 2.441 . S
U90 O109 2.420 . S
U90 O110 2.455 . S
U90 O111 2.449 . S
O91 U90 2.454 . S
O91 C93 1.353 . S
O92 U90 2.458 . S
O92 C93 1.286 . S
C93 U90 2.984 . S
C93 O91 1.353 . S
C93 O92 1.286 . S
C93 C95 1.363 . S
C94 C84 1.465 . S
C94 U90 2.847 . S
C94 O108 1.249 . S
C94 O109 1.202 . S
C95 C93 1.363 . S
C95 C97 1.408 . S
C95 C100 1.342 . S
C96 C97 1.310 . S
C96 C99 1.461 . S
C96 H116 0.932 . S
C97 C95 1.408 . S
C97 C96 1.310 . S
C97 H117 0.930 . S
C98 C99 1.474 . S
C98 C100 1.285 . S
C98 H118 0.929 . S
C99 C96 1.461 . S
C99 C98 1.474 . S
C100 C95 1.342 . S
C100 C98 1.285 . S
C100 H119 0.930 . S
C101 C104 1.424 . S
C101 C106 1.245 . S
C101 C107 1.428 1_565 S
C102 C105 1.260 . S
C102 C106 1.477 . S
C102 H120 0.932 . S
C103 C104 1.384 . S
C103 C105 1.479 . S
C103 H121 0.929 . S
C104 C101 1.424 . S
C104 C103 1.384 . S
C104 H122 0.928 . S
C105 C102 1.260 . S
C105 C103 1.479 . S
C106 C101 1.245 . S
C106 C102 1.477 . S
C106 H123 0.932 . S
C107 U90 2.882 . S
C107 C101 1.428 1_545 S
C107 O110 1.301 . S
C107 O111 1.282 . S
O108 U90 2.441 . S
O108 C94 1.249 . S
O109 U90 2.420 . S
O109 C94 1.202 . S
O110 U90 2.455 . S
O110 C107 1.301 . S
O111 U90 2.449 . S
O111 C107 1.282 . S
H112 C85 0.931 . S
H113 C87 0.929 . S
H114 C88 0.930 . S
H115 C89 0.931 . S
H116 C96 0.932 . S
H117 C97 0.930 . S
H118 C98 0.929 . S
H119 C100 0.930 . S
H120 C102 0.932 . S
H121 C103 0.929 . S
H122 C104 0.928 . S
H123 C106 0.932 . S
C124 C125 1.264 . S
C124 C129 1.479 . S
C124 C134 1.465 . S
C125 C124 1.264 . S
C125 C127 1.339 . S
C125 H152 0.931 . S
C126 C127 1.395 . S
C126 C128 1.320 . S
C127 C125 1.339 . S
C127 C126 1.395 . S
C127 H153 0.929 . S
C128 C126 1.320 . S
C128 C129 1.405 . S
C128 H154 0.930 . S
C129 C124 1.479 . S
C129 C128 1.405 . S
C129 H155 0.931 . S
U130 O131 2.454 . S
U130 O132 2.458 . S
U130 C133 2.984 . S
U130 C134 2.847 . S
U130 C147 2.882 . S
U130 O148 2.441 . S
U130 O149 2.420 . S
U130 O150 2.455 . S
U130 O151 2.449 . S
O131 U130 2.454 . S
O131 C133 1.353 . S
O132 U130 2.458 . S
O132 C133 1.286 . S
C133 U130 2.984 . S
C133 O131 1.353 . S
C133 O132 1.286 . S
C133 C135 1.363 . S
C134 C124 1.465 . S
C134 U130 2.847 . S
C134 O148 1.249 . S
C134 O149 1.202 . S
C135 C133 1.363 . S
C135 C137 1.408 . S
C135 C140 1.342 . S
C136 C137 1.310 . S
C136 C139 1.461 . S
C136 H156 0.932 . S
C137 C135 1.408 . S
C137 C136 1.310 . S
C137 H157 0.930 . S
C138 C139 1.474 . S
C138 C140 1.285 . S
C138 H158 0.929 . S
C139 C136 1.461 . S
C139 C138 1.474 . S
C140 C135 1.342 . S
C140 C138 1.285 . S
C140 H159 0.930 . S
C141 C144 1.424 . S
C141 C146 1.245 . S
C141 C147 1.428 . S
C142 C145 1.260 . S
C142 C146 1.477 . S
C142 H160 0.932 . S
C143 C144 1.384 . S
C143 C145 1.479 . S
C143 H161 0.929 . S
C144 C141 1.424 . S
C144 C143 1.384 . S
C144 H162 0.928 . S
C145 C142 1.260 . S
C145 C143 1.479 . S
C146 C141 1.245 . S
C146 C142 1.477 . S
C146 H163 0.932 . S
C147 U130 2.882 . S
C147 C141 1.428 . S
C147 O150 1.301 . S
C147 O151 1.282 . S
O148 U130 2.441 . S
O148 C134 1.249 . S
O149 U130 2.420 . S
O149 C134 1.202 . S
O150 U130 2.455 . S
O150 C147 1.301 . S
O151 U130 2.449 . S
O151 C147 1.282 . S
H152 C125 0.931 . S
H153 C127 0.929 . S
H154 C128 0.930 . S
H155 C129 0.931 . S
H156 C136 0.932 . S
H157 C137 0.930 . S
H158 C138 0.929 . S
H159 C140 0.930 . S
H160 C142 0.932 . S
H161 C143 0.929 . S
H162 C144 0.928 . S
H163 C146 0.932 . S
C164 C165 1.264 . S
C164 C169 1.479 . S
C164 C174 1.465 . S
C165 C164 1.264 . S
C165 C167 1.339 . S
C165 H192 0.931 . S
C166 C167 1.395 . S
C166 C168 1.320 . S
C167 C165 1.339 . S
C167 C166 1.395 . S
C167 H193 0.929 . S
C168 C166 1.320 . S
C168 C169 1.405 . S
C168 H194 0.930 . S
C169 C164 1.479 . S
C169 C168 1.405 . S
C169 H195 0.931 . S
U170 O171 2.454 . S
U170 O172 2.458 . S
U170 C173 2.984 . S
U170 C174 2.847 . S
U170 C187 2.882 . S
U170 O188 2.441 . S
U170 O189 2.420 . S
U170 O190 2.455 . S
U170 O191 2.449 . S
O171 U170 2.454 . S
O171 C173 1.353 . S
O172 U170 2.458 . S
O172 C173 1.286 . S
C173 U170 2.984 . S
C173 O171 1.353 . S
C173 O172 1.286 . S
C173 C175 1.363 . S
C174 C164 1.465 . S
C174 U170 2.847 . S
C174 O188 1.249 . S
C174 O189 1.202 . S
C175 C173 1.363 . S
C175 C177 1.408 . S
C175 C180 1.342 . S
C176 C177 1.310 . S
C176 C179 1.461 . S
C176 H196 0.932 . S
C177 C175 1.408 . S
C177 C176 1.310 . S
C177 H197 0.930 . S
C178 C179 1.474 . S
C178 C180 1.285 . S
C178 H198 0.929 . S
C179 C176 1.461 . S
C179 C178 1.474 . S
C180 C175 1.342 . S
C180 C178 1.285 . S
C180 H199 0.930 . S
C181 C184 1.424 . S
C181 C186 1.245 . S
C181 C187 1.428 . S
C182 C185 1.260 . S
C182 C186 1.477 . S
C182 H200 0.932 . S
C183 C184 1.384 . S
C183 C185 1.479 . S
C183 H201 0.929 . S
C184 C181 1.424 . S
C184 C183 1.384 . S
C184 H202 0.928 . S
C185 C182 1.260 . S
C185 C183 1.479 . S
C186 C181 1.245 . S
C186 C182 1.477 . S
C186 H203 0.932 . S
C187 U170 2.882 . S
C187 C181 1.428 . S
C187 O190 1.301 . S
C187 O191 1.282 . S
O188 U170 2.441 . S
O188 C174 1.249 . S
O189 U170 2.420 . S
O189 C174 1.202 . S
O190 U170 2.455 . S
O190 C187 1.301 . S
O191 U170 2.449 . S
O191 C187 1.282 . S
H192 C165 0.931 . S
H193 C167 0.929 . S
H194 C168 0.930 . S
H195 C169 0.931 . S
H196 C176 0.932 . S
H197 C177 0.930 . S
H198 C178 0.929 . S
H199 C180 0.930 . S
H200 C182 0.932 . S
H201 C183 0.929 . S
H202 C184 0.928 . S
H203 C186 0.932 . S
C204 C205 1.264 . S
C204 C209 1.479 . S
C204 C214 1.465 . S
C205 C204 1.264 . S
C205 C207 1.339 . S
C205 H232 0.931 . S
C206 C207 1.395 . S
C206 C208 1.320 . S
C207 C205 1.339 . S
C207 C206 1.395 . S
C207 H233 0.929 . S
C208 C206 1.320 . S
C208 C209 1.405 . S
C208 H234 0.930 . S
C209 C204 1.479 . S
C209 C208 1.405 . S
C209 H235 0.931 . S
U210 O211 2.454 . S
U210 O212 2.458 . S
U210 C213 2.984 . S
U210 C214 2.847 . S
U210 C227 2.882 . S
U210 O228 2.441 . S
U210 O229 2.420 . S
U210 O230 2.455 . S
U210 O231 2.449 . S
O211 U210 2.454 . S
O211 C213 1.353 . S
O212 U210 2.458 . S
O212 C213 1.286 . S
C213 U210 2.984 . S
C213 O211 1.353 . S
C213 O212 1.286 . S
C213 C215 1.363 . S
C214 C204 1.465 . S
C214 U210 2.847 . S
C214 O228 1.249 . S
C214 O229 1.202 . S
C215 C213 1.363 . S
C215 C217 1.408 . S
C215 C220 1.342 . S
C216 C217 1.310 . S
C216 C219 1.461 . S
C216 H236 0.932 . S
C217 C215 1.408 . S
C217 C216 1.310 . S
C217 H237 0.930 . S
C218 C219 1.474 . S
C218 C220 1.285 . S
C218 H238 0.929 . S
C219 C216 1.461 . S
C219 C218 1.474 . S
C220 C215 1.342 . S
C220 C218 1.285 . S
C220 H239 0.930 . S
C221 C224 1.424 . S
C221 C226 1.245 . S
C221 C227 1.428 . S
C222 C225 1.260 . S
C222 C226 1.477 . S
C222 H240 0.932 . S
C223 C224 1.384 . S
C223 C225 1.479 . S
C223 H241 0.929 . S
C224 C221 1.424 . S
C224 C223 1.384 . S
C224 H242 0.928 . S
C225 C222 1.260 . S
C225 C223 1.479 . S
C226 C221 1.245 . S
C226 C222 1.477 . S
C226 H243 0.932 . S
C227 U210 2.882 . S
C227 C221 1.428 . S
C227 O230 1.301 . S
C227 O231 1.282 . S
O228 U210 2.441 . S
O228 C214 1.249 . S
O229 U210 2.420 . S
O229 C214 1.202 . S
O230 U210 2.455 . S
O230 C227 1.301 . S
O231 U210 2.449 . S
O231 C227 1.282 . S
H232 C205 0.931 . S
H233 C207 0.929 . S
H234 C208 0.930 . S
H235 C209 0.931 . S
H236 C216 0.932 . S
H237 C217 0.930 . S
H238 C218 0.929 . S
H239 C220 0.930 . S
H240 C222 0.932 . S
H241 C223 0.929 . S
H242 C224 0.928 . S
H243 C226 0.932 . S
C244 C245 1.264 . S
C244 C249 1.479 . S
C244 C254 1.465 . S
C245 C244 1.264 . S
C245 C247 1.339 . S
C245 H272 0.931 . S
C246 C247 1.395 . S
C246 C248 1.320 . S
C247 C245 1.339 . S
C247 C246 1.395 . S
C247 H273 0.929 . S
C248 C246 1.320 . S
C248 C249 1.405 . S
C248 H274 0.930 . S
C249 C244 1.479 . S
C249 C248 1.405 . S
C249 H275 0.931 . S
U250 O251 2.454 . S
U250 O252 2.458 . S
U250 C253 2.984 . S
U250 C254 2.847 . S
U250 C267 2.882 . S
U250 O268 2.441 . S
U250 O269 2.420 . S
U250 O270 2.455 . S
U250 O271 2.449 . S
O251 U250 2.454 . S
O251 C253 1.353 . S
O252 U250 2.458 . S
O252 C253 1.286 . S
C253 U250 2.984 . S
C253 O251 1.353 . S
C253 O252 1.286 . S
C253 C255 1.363 . S
C254 C244 1.465 . S
C254 U250 2.847 . S
C254 O268 1.249 . S
C254 O269 1.202 . S
C255 C253 1.363 . S
C255 C257 1.408 . S
C255 C260 1.342 . S
C256 C257 1.310 . S
C256 C259 1.461 . S
C256 H276 0.932 . S
C257 C255 1.408 . S
C257 C256 1.310 . S
C257 H277 0.930 . S
C258 C259 1.474 . S
C258 C260 1.285 . S
C258 H278 0.929 . S
C259 C256 1.461 . S
C259 C258 1.474 . S
C260 C255 1.342 . S
C260 C258 1.285 . S
C260 H279 0.930 . S
C261 C264 1.424 . S
C261 C266 1.245 . S
C261 C267 1.428 . S
C262 C265 1.260 . S
C262 C266 1.477 . S
C262 H280 0.932 . S
C263 C264 1.384 . S
C263 C265 1.479 . S
C263 H281 0.929 . S
C264 C261 1.424 . S
C264 C263 1.384 . S
C264 H282 0.928 . S
C265 C262 1.260 . S
C265 C263 1.479 . S
C266 C261 1.245 . S
C266 C262 1.477 . S
C266 H283 0.932 . S
C267 U250 2.882 . S
C267 C261 1.428 . S
C267 O270 1.301 . S
C267 O271 1.282 . S
O268 U250 2.441 . S
O268 C254 1.249 . S
O269 U250 2.420 . S
O269 C254 1.202 . S
O270 U250 2.455 . S
O270 C267 1.301 . S
O271 U250 2.449 . S
O271 C267 1.282 . S
H272 C245 0.931 . S
H273 C247 0.929 . S
H274 C248 0.930 . S
H275 C249 0.931 . S
H276 C256 0.932 . S
H277 C257 0.930 . S
H278 C258 0.929 . S
H279 C260 0.930 . S
H280 C262 0.932 . S
H281 C263 0.929 . S
H282 C264 0.928 . S
H283 C266 0.932 . S
C284 C285 1.264 . S
C284 C289 1.479 . S
C284 C294 1.465 . S
C285 C284 1.264 . S
C285 C287 1.339 . S
C285 H312 0.931 . S
C286 C287 1.395 1_655 S
C286 C288 1.320 1_655 S
C287 C285 1.339 . S
C287 C286 1.395 1_455 S
C287 H313 0.929 1_455 S
C288 C286 1.320 1_455 S
C288 C289 1.405 . S
C288 H314 0.930 . S
C289 C284 1.479 . S
C289 C288 1.405 . S
C289 H315 0.931 . S
U290 O291 2.454 . S
U290 O292 2.458 . S
U290 C293 2.984 . S
U290 C294 2.847 . S
U290 C307 2.882 . S
U290 O308 2.441 . S
U290 O309 2.420 . S
U290 O310 2.455 . S
U290 O311 2.449 . S
O291 U290 2.454 . S
O291 C293 1.353 . S
O292 U290 2.458 . S
O292 C293 1.286 . S
C293 U290 2.984 . S
C293 O291 1.353 . S
C293 O292 1.286 . S
C293 C295 1.363 . S
C294 C284 1.465 . S
C294 U290 2.847 . S
C294 O308 1.249 . S
C294 O309 1.202 . S
C295 C293 1.363 . S
C295 C297 1.408 . S
C295 C300 1.342 . S
C296 C297 1.310 . S
C296 C299 1.461 . S
C296 H316 0.932 . S
C297 C295 1.408 . S
C297 C296 1.310 . S
C297 H317 0.930 . S
C298 C299 1.474 . S
C298 C300 1.285 . S
C298 H318 0.929 . S
C299 C296 1.461 . S
C299 C298 1.474 . S
C300 C295 1.342 . S
C300 C298 1.285 . S
C300 H319 0.930 . S
C301 C304 1.424 . S
C301 C306 1.245 . S
C301 C307 1.428 . S
C302 C305 1.260 . S
C302 C306 1.477 . S
C302 H320 0.932 . S
C303 C304 1.384 . S
C303 C305 1.479 . S
C303 H321 0.929 . S
C304 C301 1.424 . S
C304 C303 1.384 . S
C304 H322 0.928 . S
C305 C302 1.260 . S
C305 C303 1.479 . S
C306 C301 1.245 . S
C306 C302 1.477 . S
C306 H323 0.932 . S
C307 U290 2.882 . S
C307 C301 1.428 . S
C307 O310 1.301 . S
C307 O311 1.282 . S
O308 U290 2.441 . S
O308 C294 1.249 . S
O309 U290 2.420 . S
O309 C294 1.202 . S
O310 U290 2.455 . S
O310 C307 1.301 . S
O311 U290 2.449 . S
O311 C307 1.282 . S
H312 C285 0.931 . S
H313 C287 0.929 1_655 S
H314 C288 0.930 . S
H315 C289 0.931 . S
H316 C296 0.932 . S
H317 C297 0.930 . S
H318 C298 0.929 . S
H319 C300 0.930 . S
H320 C302 0.932 . S
H321 C303 0.929 . S
H322 C304 0.928 . S
H323 C306 0.932 . S
C324 C325 1.264 . S
C324 C329 1.479 . S
C324 C334 1.465 . S
C325 C324 1.264 . S
C325 C327 1.339 . S
C325 H352 0.931 . S
C326 C327 1.395 . S
C326 C328 1.320 . S
C327 C325 1.339 . S
C327 C326 1.395 . S
C327 H353 0.929 . S
C328 C326 1.320 . S
C328 C329 1.405 . S
C328 H354 0.930 . S
C329 C324 1.479 . S
C329 C328 1.405 . S
C329 H355 0.931 . S
U330 O331 2.454 . S
U330 O332 2.458 . S
U330 C333 2.984 . S
U330 C334 2.847 . S
U330 C347 2.882 . S
U330 O348 2.441 . S
U330 O349 2.420 . S
U330 O350 2.455 . S
U330 O351 2.449 . S
O331 U330 2.454 . S
O331 C333 1.353 . S
O332 U330 2.458 . S
O332 C333 1.286 . S
C333 U330 2.984 . S
C333 O331 1.353 . S
C333 O332 1.286 . S
C333 C335 1.363 . S
C334 C324 1.465 . S
C334 U330 2.847 . S
C334 O348 1.249 . S
C334 O349 1.202 . S
C335 C333 1.363 . S
C335 C337 1.408 . S
C335 C340 1.342 . S
C336 C337 1.310 . S
C336 C339 1.461 . S
C336 H356 0.932 . S
C337 C335 1.408 . S
C337 C336 1.310 . S
C337 H357 0.930 . S
C338 C339 1.474 . S
C338 C340 1.285 . S
C338 H358 0.929 . S
C339 C336 1.461 . S
C339 C338 1.474 . S
C340 C335 1.342 . S
C340 C338 1.285 . S
C340 H359 0.930 . S
C341 C344 1.424 . S
C341 C346 1.245 . S
C341 C347 1.428 . S
C342 C345 1.260 . S
C342 C346 1.477 . S
C342 H360 0.932 . S
C343 C344 1.384 . S
C343 C345 1.479 . S
C343 H361 0.929 . S
C344 C341 1.424 . S
C344 C343 1.384 . S
C344 H362 0.928 . S
C345 C342 1.260 . S
C345 C343 1.479 . S
C346 C341 1.245 . S
C346 C342 1.477 . S
C346 H363 0.932 . S
C347 U330 2.882 . S
C347 C341 1.428 . S
C347 O350 1.301 . S
C347 O351 1.282 . S
O348 U330 2.441 . S
O348 C334 1.249 . S
O349 U330 2.420 . S
O349 C334 1.202 . S
O350 U330 2.455 . S
O350 C347 1.301 . S
O351 U330 2.449 . S
O351 C347 1.282 . S
H352 C325 0.931 . S
H353 C327 0.929 . S
H354 C328 0.930 . S
H355 C329 0.931 . S
H356 C336 0.932 . S
H357 C337 0.930 . S
H358 C338 0.929 . S
H359 C340 0.930 . S
H360 C342 0.932 . S
H361 C343 0.929 . S
H362 C344 0.928 . S
H363 C346 0.932 . S
C364 C365 1.264 . S
C364 C369 1.479 . S
C364 C374 1.465 . S
C365 C364 1.264 . S
C365 C367 1.339 1_565 S
C365 H392 0.931 . S
C366 C367 1.395 . S
C366 C368 1.320 . S
C367 C365 1.339 1_545 S
C367 C366 1.395 . S
C367 H393 0.929 . S
C368 C366 1.320 . S
C368 C369 1.405 1_545 S
C368 H394 0.930 . S
C369 C364 1.479 . S
C369 C368 1.405 1_565 S
C369 H395 0.931 . S
U370 O371 2.454 . S
U370 O372 2.458 . S
U370 C373 2.984 . S
U370 C374 2.847 . S
U370 C387 2.882 . S
U370 O388 2.441 . S
U370 O389 2.420 . S
U370 O390 2.455 . S
U370 O391 2.449 . S
O371 U370 2.454 . S
O371 C373 1.353 . S
O372 U370 2.458 . S
O372 C373 1.286 . S
C373 U370 2.984 . S
C373 O371 1.353 . S
C373 O372 1.286 . S
C373 C375 1.363 . S
C374 C364 1.465 . S
C374 U370 2.847 . S
C374 O388 1.249 . S
C374 O389 1.202 . S
C375 C373 1.363 . S
C375 C377 1.408 . S
C375 C380 1.342 . S
C376 C377 1.310 . S
C376 C379 1.461 . S
C376 H396 0.932 . S
C377 C375 1.408 . S
C377 C376 1.310 . S
C377 H397 0.930 . S
C378 C379 1.474 . S
C378 C380 1.285 . S
C378 H398 0.929 . S
C379 C376 1.461 . S
C379 C378 1.474 . S
C380 C375 1.342 . S
C380 C378 1.285 . S
C380 H399 0.930 . S
C381 C384 1.424 . S
C381 C386 1.245 . S
C381 C387 1.428 . S
C382 C385 1.260 . S
C382 C386 1.477 1_455 S
C382 H400 0.932 . S
C383 C384 1.384 1_455 S
C383 C385 1.479 . S
C383 H401 0.929 . S
C384 C381 1.424 . S
C384 C383 1.384 1_655 S
C384 H402 0.928 . S
C385 C382 1.260 . S
C385 C383 1.479 . S
C386 C381 1.245 . S
C386 C382 1.477 1_655 S
C386 H403 0.932 . S
C387 U370 2.882 . S
C387 C381 1.428 . S
C387 O390 1.301 . S
C387 O391 1.282 . S
O388 U370 2.441 . S
O388 C374 1.249 . S
O389 U370 2.420 . S
O389 C374 1.202 . S
O390 U370 2.455 . S
O390 C387 1.301 . S
O391 U370 2.449 . S
O391 C387 1.282 . S
H392 C365 0.931 . S
H393 C367 0.929 . S
H394 C368 0.930 . S
H395 C369 0.931 . S
H396 C376 0.932 . S
H397 C377 0.930 . S
H398 C378 0.929 . S
H399 C380 0.930 . S
H400 C382 0.932 . S
H401 C383 0.929 . S
H402 C384 0.928 . S
H403 C386 0.932 . S
C404 C405 1.363 . S
C404 C410 1.379 . S
C404 N412 1.356 . S
C405 C404 1.363 . S
C405 C411 1.363 . S
C406 C407 1.363 . S
C406 C411 1.379 . S
C406 N413 1.356 . S
C407 C406 1.363 . S
C407 C410 1.363 . S
N408 C410 1.356 . S
N408 H420 0.984 . S
N408 H421 0.985 . S
N409 C411 1.356 . S
N409 H414 0.984 . S
N409 H415 0.985 . S
C410 C404 1.379 . S
C410 C407 1.363 . S
C410 N408 1.356 . S
C411 C405 1.363 . S
C411 C406 1.379 . S
C411 N409 1.356 . S
N412 C404 1.356 . S
N412 H418 0.984 . S
N412 H419 0.984 . S
N413 C406 1.356 . S
N413 H416 0.984 . S
N413 H417 0.985 . S
H414 N409 0.984 . S
H415 N409 0.985 . S
H416 N413 0.984 . S
H417 N413 0.985 . S
H418 N412 0.984 . S
H419 N412 0.984 . S
H420 N408 0.984 . S
H421 N408 0.985 . S
C422 C423 1.363 . S
C422 C428 1.379 . S
C422 N430 1.356 . S
C423 C422 1.363 . S
C423 C429 1.363 . S
C424 C425 1.363 . S
C424 C429 1.379 . S
C424 N431 1.356 . S
C425 C424 1.363 . S
C425 C428 1.363 . S
N426 C428 1.356 . S
N426 H438 0.984 . S
N426 H439 0.985 . S
N427 C429 1.356 . S
N427 H432 0.984 . S
N427 H433 0.985 . S
C428 C422 1.379 . S
C428 C425 1.363 . S
C428 N426 1.356 . S
C429 C423 1.363 . S
C429 C424 1.379 . S
C429 N427 1.356 . S
N430 C422 1.356 . S
N430 H436 0.984 . S
N430 H437 0.984 . S
N431 C424 1.356 . S
N431 H434 0.984 . S
N431 H435 0.985 . S
H432 N427 0.984 . S
H433 N427 0.985 . S
H434 N431 0.984 . S
H435 N431 0.985 . S
H436 N430 0.984 . S
H437 N430 0.984 . S
H438 N426 0.984 . S
H439 N426 0.985 . S
C440 C441 1.363 . S
C440 C446 1.379 . S
C440 N448 1.356 . S
C441 C440 1.363 . S
C441 C447 1.363 . S
C442 C443 1.363 . S
C442 C447 1.379 . S
C442 N449 1.356 1_545 S
C443 C442 1.363 . S
C443 C446 1.363 . S
N444 C446 1.356 . S
N444 H456 0.984 . S
N444 H457 0.985 . S
N445 C447 1.356 . S
N445 H450 0.984 . S
N445 H451 0.985 . S
C446 C440 1.379 . S
C446 C443 1.363 . S
C446 N444 1.356 . S
C447 C441 1.363 . S
C447 C442 1.379 . S
C447 N445 1.356 . S
N448 C440 1.356 . S
N448 H454 0.984 . S
N448 H455 0.984 . S
N449 C442 1.356 1_565 S
N449 H452 0.984 . S
N449 H453 0.985 . S
H450 N445 0.984 . S
H451 N445 0.985 . S
H452 N449 0.984 . S
H453 N449 0.985 . S
H454 N448 0.984 . S
H455 N448 0.984 . S
H456 N444 0.984 . S
H457 N444 0.985 . S
C458 C459 1.363 . S
C458 C464 1.379 . S
C458 N466 1.356 . S
C459 C458 1.363 . S
C459 C465 1.363 . S
C460 C461 1.363 . S
C460 C465 1.379 . S
C460 N467 1.356 . S
C461 C460 1.363 . S
C461 C464 1.363 . S
N462 C464 1.356 . S
N462 H474 0.984 . S
N462 H475 0.985 . S
N463 C465 1.356 . S
N463 H468 0.984 . S
N463 H469 0.985 . S
C464 C458 1.379 . S
C464 C461 1.363 . S
C464 N462 1.356 . S
C465 C459 1.363 . S
C465 C460 1.379 . S
C465 N463 1.356 . S
N466 C458 1.356 . S
N466 H472 0.984 . S
N466 H473 0.984 . S
N467 C460 1.356 . S
N467 H470 0.984 . S
N467 H471 0.985 . S
H468 N463 0.984 . S
H469 N463 0.985 . S
H470 N467 0.984 . S
H471 N467 0.985 . S
H472 N466 0.984 . S
H473 N466 0.984 . S
H474 N462 0.984 . S
H475 N462 0.985 . S
C476 C477 1.363 . S
C476 C482 1.379 . S
C476 N484 1.356 . S
C477 C476 1.363 . S
C477 C483 1.363 . S
C478 C479 1.363 . S
C478 C483 1.379 . S
C478 N485 1.356 . S
C479 C478 1.363 . S
C479 C482 1.363 . S
N480 C482 1.356 . S
N480 H492 0.984 . S
N480 H493 0.985 . S
N481 C483 1.356 . S
N481 H486 0.984 . S
N481 H487 0.985 . S
C482 C476 1.379 . S
C482 C479 1.363 . S
C482 N480 1.356 . S
C483 C477 1.363 . S
C483 C478 1.379 . S
C483 N481 1.356 . S
N484 C476 1.356 . S
N484 H490 0.984 . S
N484 H491 0.984 . S
N485 C478 1.356 . S
N485 H488 0.984 . S
N485 H489 0.985 . S
H486 N481 0.984 . S
H487 N481 0.985 . S
H488 N485 0.984 . S
H489 N485 0.985 . S
H490 N484 0.984 . S
H491 N484 0.984 . S
H492 N480 0.984 . S
H493 N480 0.985 . S
C494 C495 1.363 . S
C494 C500 1.379 . S
C494 N502 1.356 . S
C495 C494 1.363 . S
C495 C501 1.363 1_554 S
C496 C497 1.363 . S
C496 C501 1.379 . S
C496 N503 1.356 . S
C497 C496 1.363 . S
C497 C500 1.363 1_556 S
N498 C500 1.356 . S
N498 H510 0.984 . S
N498 H511 0.985 . S
N499 C501 1.356 . S
N499 H504 0.984 . S
N499 H505 0.985 . S
C500 C494 1.379 . S
C500 C497 1.363 1_554 S
C500 N498 1.356 . S
C501 C495 1.363 1_556 S
C501 C496 1.379 . S
C501 N499 1.356 . S
N502 C494 1.356 . S
N502 H508 0.984 . S
N502 H509 0.984 . S
N503 C496 1.356 . S
N503 H506 0.984 1_655 S
N503 H507 0.985 1_655 S
H504 N499 0.984 . S
H505 N499 0.985 . S
H506 N503 0.984 1_455 S
H507 N503 0.985 1_455 S
H508 N502 0.984 . S
H509 N502 0.984 . S
H510 N498 0.984 . S
H511 N498 0.985 . S
C512 C513 1.363 . S
C512 C518 1.379 . S
C512 N520 1.356 . S
C513 C512 1.363 . S
C513 C519 1.363 . S
C514 C515 1.363 . S
C514 C519 1.379 . S
C514 N521 1.356 . S
C515 C514 1.363 . S
C515 C518 1.363 . S
N516 C518 1.356 . S
N516 H528 0.984 . S
N516 H529 0.985 . S
N517 C519 1.356 . S
N517 H522 0.984 . S
N517 H523 0.985 . S
C518 C512 1.379 . S
C518 C515 1.363 . S
C518 N516 1.356 . S
C519 C513 1.363 . S
C519 C514 1.379 . S
C519 N517 1.356 . S
N520 C512 1.356 . S
N520 H526 0.984 . S
N520 H527 0.984 . S
N521 C514 1.356 . S
N521 H524 0.984 . S
N521 H525 0.985 . S
H522 N517 0.984 . S
H523 N517 0.985 . S
H524 N521 0.984 . S
H525 N521 0.985 . S
H526 N520 0.984 . S
H527 N520 0.984 . S
H528 N516 0.984 . S
H529 N516 0.985 . S
C530 C531 1.363 . S
C530 C536 1.379 . S
C530 N538 1.356 . S
C531 C530 1.363 . S
C531 C537 1.363 . S
C532 C533 1.363 . S
C532 C537 1.379 . S
C532 N539 1.356 . S
C533 C532 1.363 . S
C533 C536 1.363 . S
N534 C536 1.356 . S
N534 H546 0.984 . S
N534 H547 0.985 . S
N535 C537 1.356 . S
N535 H540 0.984 . S
N535 H541 0.985 . S
C536 C530 1.379 . S
C536 C533 1.363 . S
C536 N534 1.356 . S
C537 C531 1.363 . S
C537 C532 1.379 . S
C537 N535 1.356 . S
N538 C530 1.356 . S
N538 H544 0.984 . S
N538 H545 0.984 . S
N539 C532 1.356 . S
N539 H542 0.984 . S
N539 H543 0.985 . S
H540 N535 0.984 . S
H541 N535 0.985 . S
H542 N539 0.984 . S
H543 N539 0.985 . S
H544 N538 0.984 . S
H545 N538 0.984 . S
H546 N534 0.984 . S
H547 N534 0.985 . S
C548 C549 1.363 . S
C548 C554 1.379 . S
C548 N556 1.356 . S
C549 C548 1.363 . S
C549 C555 1.363 . S
C550 C551 1.363 . S
C550 C555 1.379 . S
C550 N557 1.356 . S
C551 C550 1.363 . S
C551 C554 1.363 . S
N552 C554 1.356 . S
N552 H564 0.984 1_545 S
N552 H565 0.985 . S
N553 C555 1.356 . S
N553 H558 0.984 . S
N553 H559 0.985 . S
C554 C548 1.379 . S
C554 C551 1.363 . S
C554 N552 1.356 . S
C555 C549 1.363 . S
C555 C550 1.379 . S
C555 N553 1.356 . S
N556 C548 1.356 . S
N556 H562 0.984 . S
N556 H563 0.984 . S
N557 C550 1.356 . S
N557 H560 0.984 . S
N557 H561 0.985 . S
H558 N553 0.984 . S
H559 N553 0.985 . S
H560 N557 0.984 . S
H561 N557 0.985 . S
H562 N556 0.984 . S
H563 N556 0.984 . S
H564 N552 0.984 1_565 S
H565 N552 0.985 . S
C566 C567 1.363 . S
C566 C572 1.379 . S
C566 N574 1.356 . S
C567 C566 1.363 . S
C567 C573 1.363 . S
C568 C569 1.363 . S
C568 C573 1.379 . S
C568 N575 1.356 . S
C569 C568 1.363 . S
C569 C572 1.363 . S
N570 C572 1.356 . S
N570 H582 0.984 . S
N570 H583 0.985 . S
N571 C573 1.356 . S
N571 H576 0.984 . S
N571 H577 0.985 . S
C572 C566 1.379 . S
C572 C569 1.363 . S
C572 N570 1.356 . S
C573 C567 1.363 . S
C573 C568 1.379 . S
C573 N571 1.356 . S
N574 C566 1.356 . S
N574 H580 0.984 . S
N574 H581 0.984 . S
N575 C568 1.356 . S
N575 H578 0.984 . S
N575 H579 0.985 . S
H576 N571 0.984 . S
H577 N571 0.985 . S
H578 N575 0.984 . S
H579 N575 0.985 . S
H580 N574 0.984 . S
H581 N574 0.984 . S
H582 N570 0.984 . S
H583 N570 0.985 . S
C584 C585 1.363 . S
C584 C590 1.379 1_565 S
C584 N592 1.356 . S
C585 C584 1.363 . S
C585 C591 1.363 1_556 S
C586 C587 1.385 . S
C586 C591 1.377 1_546 S
C586 N593 1.341 1_556 S
C587 C586 1.385 . S
C587 C590 1.363 . S
N588 C590 1.356 . S
N588 H600 0.984 . S
N588 H601 0.985 . S
N589 C591 1.356 . S
N589 H594 0.984 . S
N589 H595 0.985 . S
C590 C584 1.379 1_545 S
C590 C587 1.363 . S
C590 N588 1.356 . S
C591 C585 1.363 1_554 S
C591 C586 1.377 1_564 S
C591 N589 1.356 . S
N592 C584 1.356 . S
N592 H598 0.984 . S
N592 H599 0.984 . S
N593 C586 1.341 1_554 S
N593 H596 0.984 . S
N593 H597 0.985 . S
H594 N589 0.984 . S
H595 N589 0.985 . S
H596 N593 0.984 . S
H597 N593 0.985 . S
H598 N592 0.984 . S
H599 N592 0.984 . S
H600 N588 0.984 . S
H601 N588 0.985 . S
C602 C603 1.363 . S
C602 C608 1.379 . S
C602 N610 1.356 . S
C603 C602 1.363 . S
C603 C609 1.363 . S
C604 C605 1.363 . S
C604 C609 1.379 . S
C604 N611 1.356 . S
C605 C604 1.363 . S
C605 C608 1.363 . S
N606 C608 1.356 . S
N606 H618 0.984 . S
N606 H619 0.985 . S
N607 C609 1.356 . S
N607 H612 0.984 . S
N607 H613 0.985 . S
C608 C602 1.379 . S
C608 C605 1.363 . S
C608 N606 1.356 . S
C609 C603 1.363 . S
C609 C604 1.379 . S
C609 N607 1.356 . S
N610 C602 1.356 . S
N610 H616 0.984 . S
N610 H617 0.984 . S
N611 C604 1.356 . S
N611 H614 0.984 . S
N611 H615 0.985 . S
H612 N607 0.984 . S
H613 N607 0.985 . S
H614 N611 0.984 . S
H615 N611 0.985 . S
H616 N610 0.984 . S
H617 N610 0.984 . S
H618 N606 0.984 . S
H619 N606 0.985 . S
C620 C621 1.363 . S
C620 C626 1.379 . S
C620 N628 1.356 . S
C621 C620 1.363 . S
C621 C627 1.363 . S
C622 C623 1.363 . S
C622 C627 1.379 . S
C622 N629 1.356 . S
C623 C622 1.363 . S
C623 C626 1.363 . S
N624 C626 1.356 . S
N624 H636 0.984 . S
N624 H637 0.985 . S
N625 C627 1.356 . S
N625 H630 0.984 . S
N625 H631 0.985 . S
C626 C620 1.379 . S
C626 C623 1.363 . S
C626 N624 1.356 . S
C627 C621 1.363 . S
C627 C622 1.379 . S
C627 N625 1.356 . S
N628 C620 1.356 . S
N628 H634 0.984 . S
N628 H635 0.984 . S
N629 C622 1.356 . S
N629 H632 0.984 . S
N629 H633 0.985 . S
H630 N625 0.984 . S
H631 N625 0.985 . S
H632 N629 0.984 . S
H633 N629 0.985 . S
H634 N628 0.984 . S
H635 N628 0.984 . S
H636 N624 0.984 . S
H637 N624 0.985 . S
C638 C639 1.363 . S
C638 C644 1.379 . S
C638 N646 1.356 . S
C639 C638 1.363 . S
C639 C645 1.363 . S
C640 C641 1.363 . S
C640 C645 1.379 1_655 S
C640 N647 1.356 1_554 S
C641 C640 1.363 . S
C641 C644 1.363 1_655 S
N642 C644 1.362 . S
N642 H654 0.992 . S
N642 H655 0.972 1_455 S
N643 C645 1.356 1_556 S
N643 H648 0.984 1_556 S
N643 H649 0.985 . S
C644 C638 1.379 . S
C644 C641 1.363 1_455 S
C644 N642 1.362 . S
C645 C639 1.363 . S
C645 C640 1.379 1_455 S
C645 N643 1.356 1_554 S
N646 C638 1.356 . S
N646 H652 0.984 . S
N646 H653 0.984 . S
N647 C640 1.356 1_556 S
N647 H650 0.984 1_556 S
N647 H651 0.985 . S
H648 N643 0.984 1_554 S
H649 N643 0.985 . S
H650 N647 0.984 1_554 S
H651 N647 0.985 . S
H652 N646 0.984 . S
H653 N646 0.984 . S
H654 N642 0.992 . S
H655 N642 0.972 1_655 S
C656 C657 1.363 . S
C656 C662 1.379 . S
C656 N664 1.356 . S
C657 C656 1.363 . S
C657 C663 1.363 . S
C658 C659 1.363 . S
C658 C663 1.379 . S
C658 N665 1.356 . S
C659 C658 1.363 . S
C659 C662 1.363 . S
N660 C662 1.356 . S
N660 H672 0.984 . S
N660 H673 0.985 . S
N661 C663 1.356 . S
N661 H666 0.984 . S
N661 H667 0.985 . S
C662 C656 1.379 . S
C662 C659 1.363 . S
C662 N660 1.356 . S
C663 C657 1.363 . S
C663 C658 1.379 . S
C663 N661 1.356 . S
N664 C656 1.356 . S
N664 H670 0.984 . S
N664 H671 0.984 . S
N665 C658 1.356 . S
N665 H668 0.984 . S
N665 H669 0.985 . S
H666 N661 0.984 . S
H667 N661 0.985 . S
H668 N665 0.984 . S
H669 N665 0.985 . S
H670 N664 0.984 . S
H671 N664 0.984 . S
H672 N660 0.984 . S
H673 N660 0.985 . S
C674 C675 1.363 . S
C674 C680 1.379 . S
C674 N682 1.356 . S
C675 C674 1.363 . S
C675 C681 1.363 . S
C676 C677 1.363 . S
C676 C681 1.379 . S
C676 N683 1.356 1_655 S
C677 C676 1.363 . S
C677 C680 1.363 . S
N678 C680 1.356 . S
N678 H690 0.984 . S
N678 H691 0.985 . S
N679 C681 1.356 . S
N679 H684 0.984 . S
N679 H685 0.985 . S
C680 C674 1.379 . S
C680 C677 1.363 . S
C680 N678 1.356 . S
C681 C675 1.363 . S
C681 C676 1.379 . S
C681 N679 1.356 . S
N682 C674 1.356 . S
N682 H688 0.984 . S
N682 H689 0.984 . S
N683 C676 1.356 1_455 S
N683 H686 0.984 . S
N683 H687 0.985 . S
H684 N679 0.984 . S
H685 N679 0.985 . S
H686 N683 0.984 . S
H687 N683 0.985 . S
H688 N682 0.984 . S
H689 N682 0.984 . S
H690 N678 0.984 . S
H691 N678 0.985 . S
C692 C693 1.363 . S
C692 C698 1.379 . S
C692 N700 1.356 1_554 S
C693 C692 1.363 . S
C693 C699 1.363 . S
C694 C695 1.363 . S
C694 C699 1.379 . S
C694 N701 1.356 . S
C695 C694 1.363 . S
C695 C698 1.363 . S
N696 C698 1.356 . S
N696 H708 0.984 1_554 S
N696 H709 0.985 . S
N697 C699 1.356 . S
N697 H702 0.984 . S
N697 H703 0.985 . S
C698 C692 1.379 . S
C698 C695 1.363 . S
C698 N696 1.356 . S
C699 C693 1.363 . S
C699 C694 1.379 . S
C699 N697 1.356 . S
N700 C692 1.356 1_556 S
N700 H706 0.984 . S
N700 H707 0.984 . S
N701 C694 1.356 . S
N701 H704 0.984 . S
N701 H705 0.985 . S
H702 N697 0.984 . S
H703 N697 0.985 . S
H704 N701 0.984 . S
H705 N701 0.985 . S
H706 N700 0.984 . S
H707 N700 0.984 . S
H708 N696 0.984 1_556 S
H709 N696 0.985 . S
C710 C711 1.363 . S
C710 C716 1.379 . S
C710 N718 1.356 . S
C711 C710 1.363 . S
C711 C717 1.363 . S
C712 C713 1.363 . S
C712 C717 1.379 . S
C712 N719 1.356 . S
C713 C712 1.363 . S
C713 C716 1.363 . S
N714 C716 1.356 . S
N714 H726 0.984 . S
N714 H727 0.985 . S
N715 C717 1.356 . S
N715 H720 0.984 . S
N715 H721 0.985 . S
C716 C710 1.379 . S
C716 C713 1.363 . S
C716 N714 1.356 . S
C717 C711 1.363 . S
C717 C712 1.379 . S
C717 N715 1.356 . S
N718 C710 1.356 . S
N718 H724 0.984 . S
N718 H725 0.984 . S
N719 C712 1.356 . S
N719 H722 0.984 . S
N719 H723 0.985 . S
H720 N715 0.984 . S
H721 N715 0.985 . S
H722 N719 0.984 . S
H723 N719 0.985 . S
H724 N718 0.984 . S
H725 N718 0.984 . S
H726 N714 0.984 . S
H727 N714 0.985 . S
C728 C729 1.363 . S
C728 C734 1.379 . S
C728 N736 1.356 . S
C729 C728 1.363 . S
C729 C735 1.363 . S
C730 C731 1.363 . S
C730 C735 1.379 . S
C730 N737 1.356 . S
C731 C730 1.363 . S
C731 C734 1.363 . S
N732 C734 1.356 . S
N732 H744 0.984 . S
N732 H745 0.985 . S
N733 C735 1.356 . S
N733 H738 0.984 . S
N733 H739 0.985 . S
C734 C728 1.379 . S
C734 C731 1.363 . S
C734 N732 1.356 . S
C735 C729 1.363 . S
C735 C730 1.379 . S
C735 N733 1.356 . S
N736 C728 1.356 . S
N736 H742 0.984 . S
N736 H743 0.984 . S
N737 C730 1.356 . S
N737 H740 0.984 . S
N737 H741 0.985 . S
H738 N733 0.984 . S
H739 N733 0.985 . S
H740 N737 0.984 . S
H741 N737 0.985 . S
H742 N736 0.984 . S
H743 N736 0.984 . S
H744 N732 0.984 . S
H745 N732 0.985 . S
C746 C747 1.363 . S
C746 C752 1.379 . S
C746 N754 1.356 . S
C747 C746 1.363 . S
C747 C753 1.363 . S
C748 C749 1.363 . S
C748 C753 1.379 . S
C748 N755 1.356 . S
C749 C748 1.363 . S
C749 C752 1.363 . S
N750 C752 1.356 . S
N750 H762 0.984 . S
N750 H763 0.985 . S
N751 C753 1.356 . S
N751 H756 0.984 . S
N751 H757 0.985 . S
C752 C746 1.379 . S
C752 C749 1.363 . S
C752 N750 1.356 . S
C753 C747 1.363 . S
C753 C748 1.379 . S
C753 N751 1.356 . S
N754 C746 1.356 . S
N754 H760 0.984 . S
N754 H761 0.984 . S
N755 C748 1.356 . S
N755 H758 0.984 . S
N755 H759 0.985 . S
H756 N751 0.984 . S
H757 N751 0.985 . S
H758 N755 0.984 . S
H759 N755 0.985 . S
H760 N754 0.984 . S
H761 N754 0.984 . S
H762 N750 0.984 . S
H763 N750 0.985 . S
C764 C765 1.363 . S
C764 C770 1.379 . S
C764 N772 1.356 . S
C765 C764 1.363 . S
C765 C771 1.363 . S
C766 C767 1.363 . S
C766 C771 1.379 . S
C766 N773 1.356 . S
C767 C766 1.363 . S
C767 C770 1.363 . S
N768 C770 1.356 . S
N768 H780 0.984 . S
N768 H781 0.985 . S
N769 C771 1.356 . S
N769 H774 0.984 . S
N769 H775 0.985 . S
C770 C764 1.379 . S
C770 C767 1.363 . S
C770 N768 1.356 . S
C771 C765 1.363 . S
C771 C766 1.379 . S
C771 N769 1.356 . S
N772 C764 1.356 . S
N772 H778 0.984 . S
N772 H779 0.984 . S
N773 C766 1.356 . S
N773 H776 0.984 . S
N773 H777 0.985 . S
H774 N769 0.984 . S
H775 N769 0.985 . S
H776 N773 0.984 . S
H777 N773 0.985 . S
H778 N772 0.984 . S
H779 N772 0.984 . S
H780 N768 0.984 . S
H781 N768 0.985 . S
C782 C783 1.363 1_554 S
C782 C788 1.379 . S
C782 N790 1.356 . S
C783 C782 1.363 1_556 S
C783 C789 1.363 . S
C784 C785 1.363 . S
C784 C789 1.379 . S
C784 N791 1.356 . S
C785 C784 1.363 . S
C785 C788 1.363 1_556 S
N786 C788 1.356 . S
N786 H798 0.984 . S
N786 H799 0.985 . S
N787 C789 1.356 . S
N787 H792 0.984 . S
N787 H793 0.985 . S
C788 C782 1.379 . S
C788 C785 1.363 1_554 S
C788 N786 1.356 . S
C789 C783 1.363 . S
C789 C784 1.379 . S
C789 N787 1.356 . S
N790 C782 1.356 . S
N790 H796 0.984 . S
N790 H797 0.984 . S
N791 C784 1.356 . S
N791 H794 0.984 . S
N791 H795 0.985 . S
H792 N787 0.984 . S
H793 N787 0.985 . S
H794 N791 0.984 . S
H795 N791 0.985 . S
H796 N790 0.984 . S
H797 N790 0.984 . S
H798 N786 0.984 . S
H799 N786 0.985 . S
C800 C801 1.363 . S
C800 C806 1.379 . S
C800 N808 1.356 . S
C801 C800 1.363 . S
C801 C807 1.363 . S
C802 C803 1.363 . S
C802 C807 1.379 . S
C802 N809 1.356 . S
C803 C802 1.363 . S
C803 C806 1.363 . S
N804 C806 1.356 . S
N804 H816 0.984 . S
N804 H817 0.985 . S
N805 C807 1.356 . S
N805 H810 0.984 . S
N805 H811 0.985 . S
C806 C800 1.379 . S
C806 C803 1.363 . S
C806 N804 1.356 . S
C807 C801 1.363 . S
C807 C802 1.379 . S
C807 N805 1.356 . S
N808 C800 1.356 . S
N808 H814 0.984 . S
N808 H815 0.984 . S
N809 C802 1.356 . S
N809 H812 0.984 . S
N809 H813 0.985 . S
H810 N805 0.984 . S
H811 N805 0.985 . S
H812 N809 0.984 . S
H813 N809 0.985 . S
H814 N808 0.984 . S
H815 N808 0.984 . S
H816 N804 0.984 . S
H817 N804 0.985 . S
C818 C819 1.363 . S
C818 C824 1.379 . S
C818 N826 1.356 . S
C819 C818 1.363 . S
C819 C825 1.363 . S
C820 C821 1.363 . S
C820 C825 1.379 . S
C820 N827 1.356 . S
C821 C820 1.363 . S
C821 C824 1.363 . S
N822 C824 1.356 . S
N822 H834 0.984 . S
N822 H835 0.985 . S
N823 C825 1.356 . S
N823 H828 0.984 . S
N823 H829 0.985 . S
C824 C818 1.379 . S
C824 C821 1.363 . S
C824 N822 1.356 . S
C825 C819 1.363 . S
C825 C820 1.379 . S
C825 N823 1.356 . S
N826 C818 1.356 . S
N826 H832 0.984 . S
N826 H833 0.984 . S
N827 C820 1.356 . S
N827 H830 0.984 . S
N827 H831 0.985 . S
H828 N823 0.984 . S
H829 N823 0.985 . S
H830 N827 0.984 . S
H831 N827 0.985 . S
H832 N826 0.984 . S
H833 N826 0.984 . S
H834 N822 0.984 . S
H835 N822 0.985 . S
C405 C7 1.420 . S
C407 C105 1.326 . S
C423 C25 1.638 . S
C425 C145 1.504 . S
C441 C46 1.411 . S
C443 C166 1.226 1_545 S
C461 C225 1.048 . S
C459 C70 1.042 . S
C479 C265 1.332 . S
C477 C28 1.428 . S
C495 C49 1.608 . S
C497 C286 1.442 . S
C513 C67 1.430 . S
C515 C326 1.519 . S
C531 C4 1.107 . S
C533 C385 1.107 . S
C549 C58 1.687 . S
C551 C366 1.757 . S
C569 C246 2.170 . S
C567 C66 2.161 . S
C587 C305 1.898 . S
C585 C3 1.965 . S
C603 C37 1.783 . S
C605 C345 1.971 . S
C623 C126 1.953 . S
C621 C79 1.877 . S
C639 C16 2.264 . S
C641 C185 2.077 . S
C659 C206 1.771 . S
C657 C24 1.700 . S
C677 C86 1.871 1_655 S
C675 C45 1.741 . S
C695 C339 1.491 . S
C693 C19 1.462 . S
C713 C379 1.296 . S
C711 C41 1.303 . S
C729 C62 1.220 . S
C731 C259 1.497 . S
C749 C299 1.668 . S
C747 C82 1.359 . S
C767 C179 1.536 . S
C765 C40 1.260 . S
C783 C61 1.238 . S
C785 C219 1.242 . S
C803 C99 1.489 . S
C801 C83 1.482 . S
C821 C139 1.695 . S
C819 C20 1.389 . S
