# Generated by pormake.
# Topology iac, (4,6)-cn, num edge types: 1
# Building blocks:
#     Node 0, Type 0, BuildingBlock: AZAVOO_clean_sbu_0, # of connection points: 4
#     Node 1, Type 0, BuildingBlock: AZAVOO_clean_sbu_0, # of connection points: 4
#     Node 2, Type 0, BuildingBlock: AZAVOO_clean_sbu_0, # of connection points: 4
#     Node 3, Type 0, BuildingBlock: AZAVOO_clean_sbu_0, # of connection points: 4
#     Node 4, Type 0, BuildingBlock: AZAVOO_clean_sbu_0, # of connection points: 4
#     Node 5, Type 0, BuildingBlock: AZAVOO_clean_sbu_0, # of connection points: 4
#     Node 6, Type 0, BuildingBlock: AZAVOO_clean_sbu_0, # of connection points: 4
#     Node 7, Type 0, BuildingBlock: AZAVOO_clean_sbu_0, # of connection points: 4
#     Node 8, Type 0, BuildingBlock: AZAVOO_clean_sbu_0, # of connection points: 4
#     Node 9, Type 0, BuildingBlock: AZAVOO_clean_sbu_0, # of connection points: 4
#     Node 10, Type 0, BuildingBlock: AZAVOO_clean_sbu_0, # of connection points: 4
#     Node 11, Type 0, BuildingBlock: AZAVOO_clean_sbu_0, # of connection points: 4
#     Node 12, Type 0, BuildingBlock: AZAVOO_clean_sbu_0, # of connection points: 4
#     Node 13, Type 0, BuildingBlock: AZAVOO_clean_sbu_0, # of connection points: 4
#     Node 14, Type 0, BuildingBlock: AZAVOO_clean_sbu_0, # of connection points: 4
#     Node 15, Type 0, BuildingBlock: AZAVOO_clean_sbu_0, # of connection points: 4
#     Node 16, Type 0, BuildingBlock: AZAVOO_clean_sbu_0, # of connection points: 4
#     Node 17, Type 0, BuildingBlock: AZAVOO_clean_sbu_0, # of connection points: 4
#     Node 18, Type 0, BuildingBlock: AZAVOO_clean_sbu_0, # of connection points: 4
#     Node 19, Type 0, BuildingBlock: AZAVOO_clean_sbu_0, # of connection points: 4
#     Node 20, Type 0, BuildingBlock: AZAVOO_clean_sbu_0, # of connection points: 4
#     Node 21, Type 0, BuildingBlock: AZAVOO_clean_sbu_0, # of connection points: 4
#     Node 22, Type 0, BuildingBlock: AZAVOO_clean_sbu_0, # of connection points: 4
#     Node 23, Type 0, BuildingBlock: AZAVOO_clean_sbu_0, # of connection points: 4
#     Node 24, Type 1, BuildingBlock: CIFDUS_clean_sbu_1, # of connection points: 6
#     Node 25, Type 1, BuildingBlock: CIFDUS_clean_sbu_1, # of connection points: 6
#     Node 26, Type 1, BuildingBlock: CIFDUS_clean_sbu_1, # of connection points: 6
#     Node 27, Type 1, BuildingBlock: CIFDUS_clean_sbu_1, # of connection points: 6
#     Node 28, Type 1, BuildingBlock: CIFDUS_clean_sbu_1, # of connection points: 6
#     Node 29, Type 1, BuildingBlock: CIFDUS_clean_sbu_1, # of connection points: 6
#     Node 30, Type 1, BuildingBlock: CIFDUS_clean_sbu_1, # of connection points: 6
#     Node 31, Type 1, BuildingBlock: CIFDUS_clean_sbu_1, # of connection points: 6
#     Node 32, Type 1, BuildingBlock: CIFDUS_clean_sbu_1, # of connection points: 6
#     Node 33, Type 1, BuildingBlock: CIFDUS_clean_sbu_1, # of connection points: 6
#     Node 34, Type 1, BuildingBlock: CIFDUS_clean_sbu_1, # of connection points: 6
#     Node 35, Type 1, BuildingBlock: CIFDUS_clean_sbu_1, # of connection points: 6
#     Node 36, Type 1, BuildingBlock: CIFDUS_clean_sbu_1, # of connection points: 6
#     Node 37, Type 1, BuildingBlock: CIFDUS_clean_sbu_1, # of connection points: 6
#     Node 38, Type 1, BuildingBlock: CIFDUS_clean_sbu_1, # of connection points: 6
#     Node 39, Type 1, BuildingBlock: CIFDUS_clean_sbu_1, # of connection points: 6
#     Edge 40, Type (0, 1), BuildingBlock: KIFKEQ_clean_linker_1, # of connection points: 2
#     Edge 41, Type (0, 1), BuildingBlock: KIFKEQ_clean_linker_1, # of connection points: 2
#     Edge 42, Type (0, 1), BuildingBlock: KIFKEQ_clean_linker_1, # of connection points: 2
#     Edge 43, Type (0, 1), BuildingBlock: KIFKEQ_clean_linker_1, # of connection points: 2
#     Edge 44, Type (0, 1), BuildingBlock: KIFKEQ_clean_linker_1, # of connection points: 2
#     Edge 45, Type (0, 1), BuildingBlock: KIFKEQ_clean_linker_1, # of connection points: 2
#     Edge 46, Type (0, 1), BuildingBlock: KIFKEQ_clean_linker_1, # of connection points: 2
#     Edge 47, Type (0, 1), BuildingBlock: KIFKEQ_clean_linker_1, # of connection points: 2
#     Edge 48, Type (0, 1), BuildingBlock: KIFKEQ_clean_linker_1, # of connection points: 2
#     Edge 49, Type (0, 1), BuildingBlock: KIFKEQ_clean_linker_1, # of connection points: 2
#     Edge 50, Type (0, 1), BuildingBlock: KIFKEQ_clean_linker_1, # of connection points: 2
#     Edge 51, Type (0, 1), BuildingBlock: KIFKEQ_clean_linker_1, # of connection points: 2
#     Edge 52, Type (0, 1), BuildingBlock: KIFKEQ_clean_linker_1, # of connection points: 2
#     Edge 53, Type (0, 1), BuildingBlock: KIFKEQ_clean_linker_1, # of connection points: 2
#     Edge 54, Type (0, 1), BuildingBlock: KIFKEQ_clean_linker_1, # of connection points: 2
#     Edge 55, Type (0, 1), BuildingBlock: KIFKEQ_clean_linker_1, # of connection points: 2
#     Edge 56, Type (0, 1), BuildingBlock: KIFKEQ_clean_linker_1, # of connection points: 2
#     Edge 57, Type (0, 1), BuildingBlock: KIFKEQ_clean_linker_1, # of connection points: 2
#     Edge 58, Type (0, 1), BuildingBlock: KIFKEQ_clean_linker_1, # of connection points: 2
#     Edge 59, Type (0, 1), BuildingBlock: KIFKEQ_clean_linker_1, # of connection points: 2
#     Edge 60, Type (0, 1), BuildingBlock: KIFKEQ_clean_linker_1, # of connection points: 2
#     Edge 61, Type (0, 1), BuildingBlock: KIFKEQ_clean_linker_1, # of connection points: 2
#     Edge 62, Type (0, 1), BuildingBlock: KIFKEQ_clean_linker_1, # of connection points: 2
#     Edge 63, Type (0, 1), BuildingBlock: KIFKEQ_clean_linker_1, # of connection points: 2
#     Edge 64, Type (0, 1), BuildingBlock: KIFKEQ_clean_linker_1, # of connection points: 2
#     Edge 65, Type (0, 1), BuildingBlock: KIFKEQ_clean_linker_1, # of connection points: 2
#     Edge 66, Type (0, 1), BuildingBlock: KIFKEQ_clean_linker_1, # of connection points: 2
#     Edge 67, Type (0, 1), BuildingBlock: KIFKEQ_clean_linker_1, # of connection points: 2
#     Edge 68, Type (0, 1), BuildingBlock: KIFKEQ_clean_linker_1, # of connection points: 2
#     Edge 69, Type (0, 1), BuildingBlock: KIFKEQ_clean_linker_1, # of connection points: 2
#     Edge 70, Type (0, 1), BuildingBlock: KIFKEQ_clean_linker_1, # of connection points: 2
#     Edge 71, Type (0, 1), BuildingBlock: KIFKEQ_clean_linker_1, # of connection points: 2
#     Edge 72, Type (0, 1), BuildingBlock: KIFKEQ_clean_linker_1, # of connection points: 2
#     Edge 73, Type (0, 1), BuildingBlock: KIFKEQ_clean_linker_1, # of connection points: 2
#     Edge 74, Type (0, 1), BuildingBlock: KIFKEQ_clean_linker_1, # of connection points: 2
#     Edge 75, Type (0, 1), BuildingBlock: KIFKEQ_clean_linker_1, # of connection points: 2
#     Edge 76, Type (0, 1), BuildingBlock: KIFKEQ_clean_linker_1, # of connection points: 2
#     Edge 77, Type (0, 1), BuildingBlock: KIFKEQ_clean_linker_1, # of connection points: 2
#     Edge 78, Type (0, 1), BuildingBlock: KIFKEQ_clean_linker_1, # of connection points: 2
#     Edge 79, Type (0, 1), BuildingBlock: KIFKEQ_clean_linker_1, # of connection points: 2
#     Edge 80, Type (0, 1), BuildingBlock: KIFKEQ_clean_linker_1, # of connection points: 2
#     Edge 81, Type (0, 1), BuildingBlock: KIFKEQ_clean_linker_1, # of connection points: 2
#     Edge 82, Type (0, 1), BuildingBlock: KIFKEQ_clean_linker_1, # of connection points: 2
#     Edge 83, Type (0, 1), BuildingBlock: KIFKEQ_clean_linker_1, # of connection points: 2
#     Edge 84, Type (0, 1), BuildingBlock: KIFKEQ_clean_linker_1, # of connection points: 2
#     Edge 85, Type (0, 1), BuildingBlock: KIFKEQ_clean_linker_1, # of connection points: 2
#     Edge 86, Type (0, 1), BuildingBlock: KIFKEQ_clean_linker_1, # of connection points: 2
#     Edge 87, Type (0, 1), BuildingBlock: KIFKEQ_clean_linker_1, # of connection points: 2
#     Edge 88, Type (0, 1), BuildingBlock: KIFKEQ_clean_linker_1, # of connection points: 2
#     Edge 89, Type (0, 1), BuildingBlock: KIFKEQ_clean_linker_1, # of connection points: 2
#     Edge 90, Type (0, 1), BuildingBlock: KIFKEQ_clean_linker_1, # of connection points: 2
#     Edge 91, Type (0, 1), BuildingBlock: KIFKEQ_clean_linker_1, # of connection points: 2
#     Edge 92, Type (0, 1), BuildingBlock: KIFKEQ_clean_linker_1, # of connection points: 2
#     Edge 93, Type (0, 1), BuildingBlock: KIFKEQ_clean_linker_1, # of connection points: 2
#     Edge 94, Type (0, 1), BuildingBlock: KIFKEQ_clean_linker_1, # of connection points: 2
#     Edge 95, Type (0, 1), BuildingBlock: KIFKEQ_clean_linker_1, # of connection points: 2
#     Edge 96, Type (0, 1), BuildingBlock: KIFKEQ_clean_linker_1, # of connection points: 2
#     Edge 97, Type (0, 1), BuildingBlock: KIFKEQ_clean_linker_1, # of connection points: 2
#     Edge 98, Type (0, 1), BuildingBlock: KIFKEQ_clean_linker_1, # of connection points: 2
#     Edge 99, Type (0, 1), BuildingBlock: KIFKEQ_clean_linker_1, # of connection points: 2
#     Edge 100, Type (0, 1), BuildingBlock: KIFKEQ_clean_linker_1, # of connection points: 2
#     Edge 101, Type (0, 1), BuildingBlock: KIFKEQ_clean_linker_1, # of connection points: 2
#     Edge 102, Type (0, 1), BuildingBlock: KIFKEQ_clean_linker_1, # of connection points: 2
#     Edge 103, Type (0, 1), BuildingBlock: KIFKEQ_clean_linker_1, # of connection points: 2
#     Edge 104, Type (0, 1), BuildingBlock: KIFKEQ_clean_linker_1, # of connection points: 2
#     Edge 105, Type (0, 1), BuildingBlock: KIFKEQ_clean_linker_1, # of connection points: 2
#     Edge 106, Type (0, 1), BuildingBlock: KIFKEQ_clean_linker_1, # of connection points: 2
#     Edge 107, Type (0, 1), BuildingBlock: KIFKEQ_clean_linker_1, # of connection points: 2
#     Edge 108, Type (0, 1), BuildingBlock: KIFKEQ_clean_linker_1, # of connection points: 2
#     Edge 109, Type (0, 1), BuildingBlock: KIFKEQ_clean_linker_1, # of connection points: 2
#     Edge 110, Type (0, 1), BuildingBlock: KIFKEQ_clean_linker_1, # of connection points: 2
#     Edge 111, Type (0, 1), BuildingBlock: KIFKEQ_clean_linker_1, # of connection points: 2
#     Edge 112, Type (0, 1), BuildingBlock: KIFKEQ_clean_linker_1, # of connection points: 2
#     Edge 113, Type (0, 1), BuildingBlock: KIFKEQ_clean_linker_1, # of connection points: 2
#     Edge 114, Type (0, 1), BuildingBlock: KIFKEQ_clean_linker_1, # of connection points: 2
#     Edge 115, Type (0, 1), BuildingBlock: KIFKEQ_clean_linker_1, # of connection points: 2
#     Edge 116, Type (0, 1), BuildingBlock: KIFKEQ_clean_linker_1, # of connection points: 2
#     Edge 117, Type (0, 1), BuildingBlock: KIFKEQ_clean_linker_1, # of connection points: 2
#     Edge 118, Type (0, 1), BuildingBlock: KIFKEQ_clean_linker_1, # of connection points: 2
#     Edge 119, Type (0, 1), BuildingBlock: KIFKEQ_clean_linker_1, # of connection points: 2
#     Edge 120, Type (0, 1), BuildingBlock: KIFKEQ_clean_linker_1, # of connection points: 2
#     Edge 121, Type (0, 1), BuildingBlock: KIFKEQ_clean_linker_1, # of connection points: 2
#     Edge 122, Type (0, 1), BuildingBlock: KIFKEQ_clean_linker_1, # of connection points: 2
#     Edge 123, Type (0, 1), BuildingBlock: KIFKEQ_clean_linker_1, # of connection points: 2
#     Edge 124, Type (0, 1), BuildingBlock: KIFKEQ_clean_linker_1, # of connection points: 2
#     Edge 125, Type (0, 1), BuildingBlock: KIFKEQ_clean_linker_1, # of connection points: 2
#     Edge 126, Type (0, 1), BuildingBlock: KIFKEQ_clean_linker_1, # of connection points: 2
#     Edge 127, Type (0, 1), BuildingBlock: KIFKEQ_clean_linker_1, # of connection points: 2
#     Edge 128, Type (0, 1), BuildingBlock: KIFKEQ_clean_linker_1, # of connection points: 2
#     Edge 129, Type (0, 1), BuildingBlock: KIFKEQ_clean_linker_1, # of connection points: 2
#     Edge 130, Type (0, 1), BuildingBlock: KIFKEQ_clean_linker_1, # of connection points: 2
#     Edge 131, Type (0, 1), BuildingBlock: KIFKEQ_clean_linker_1, # of connection points: 2
#     Edge 132, Type (0, 1), BuildingBlock: KIFKEQ_clean_linker_1, # of connection points: 2
#     Edge 133, Type (0, 1), BuildingBlock: KIFKEQ_clean_linker_1, # of connection points: 2
#     Edge 134, Type (0, 1), BuildingBlock: KIFKEQ_clean_linker_1, # of connection points: 2
#     Edge 135, Type (0, 1), BuildingBlock: KIFKEQ_clean_linker_1, # of connection points: 2
# Relax obj value: 0.128
# Max RMSD: 0.178
# Mean RMSD: 0.151
data_MOF--net-iac--node1-AZAVOO_clean_sbu_0--node2-CIFDUS_clean_sbu_1--edge1-KIFKEQ_clean_linker_1
_symmetry_space_group_name_H-M    P1
_symmetry_Int_Tables_number       1
_symmetry_cell_setting            triclinic
loop_
_symmetry_equiv_pos_as_xyz
'x, y, z'
_cell_length_a     56.068607
_cell_length_b     53.494385
_cell_length_c     54.872867
_cell_angle_alpha  92.28454
_cell_angle_beta   89.831907
_cell_angle_gamma 91.058926
loop_
_atom_site_label
_atom_site_type_symbol
_atom_site_fract_x
_atom_site_fract_y
_atom_site_fract_z
_atom_type_partial_charge
Mg0 Mg -0.0032 0.26556 0.13534 0.0
O1 O -0.00304 0.22659 0.11612 0.0
O2 O 0.96247 0.22208 0.09607 0.0
Mg3 Mg 0.93965 0.25677 0.10303 0.0
C4 C 0.98269 0.21381 0.10228 0.0
C5 C 0.04185 0.24744 0.16075 0.0
O6 O 0.02496 0.23395 0.17079 0.0
O7 O 0.00279 0.28543 0.09962 0.0
O8 O 0.96585 0.28286 0.08414 0.0
O9 O 0.97732 0.25174 0.16843 0.0
O10 O 0.96001 0.26629 0.13599 0.0
C11 C 0.98723 0.29155 0.08397 0.0
C12 C 0.95806 0.25743 0.15717 0.0
O13 O 0.03632 0.26214 0.14408 0.0
Mg14 Mg -0.00451 0.73566 0.35837 0.0
O15 O -0.00186 0.77263 0.38023 0.0
O16 O 0.96453 0.77472 0.40244 0.0
Mg17 Mg 0.94021 0.74121 0.39373 0.0
C18 C 0.98474 0.78365 0.39593 0.0
C19 C 0.04258 0.75493 0.33667 0.0
O20 O 0.0279 0.77212 0.32976 0.0
O21 O 0.00227 0.71472 0.39276 0.0
O22 O 0.96715 0.71681 0.41198 0.0
O23 O 0.97889 0.7556 0.32825 0.0
O24 O 0.95893 0.73882 0.35866 0.0
C25 C 0.9886 0.70938 0.41052 0.0
C26 C 0.95911 0.75292 0.34015 0.0
O27 O 0.03476 0.7375 0.34974 0.0
Mg28 Mg 0.49614 0.76606 0.63549 0.0
O29 O 0.49919 0.72751 0.61577 0.0
O30 O 0.4658 0.7209 0.59423 0.0
Mg31 Mg 0.44123 0.75451 0.60009 0.0
C32 C 0.48622 0.71397 0.60129 0.0
C33 C 0.53946 0.76287 0.66911 0.0
O34 O 0.52171 0.76503 0.68468 0.0
O35 O 0.50303 0.78701 0.60041 0.0
O36 O 0.46705 0.78242 0.58297 0.0
O37 O 0.47575 0.75044 0.66706 0.0
O38 O 0.45923 0.76509 0.63435 0.0
C39 C 0.4879 0.79246 0.58406 0.0
C40 C 0.45664 0.756 0.65543 0.0
O41 O 0.53514 0.76357 0.64639 0.0
Mg42 Mg 0.49758 0.23634 0.86227 0.0
O43 O 0.50417 0.27483 0.88031 0.0
O44 O 0.47514 0.27969 0.90816 0.0
Mg45 Mg 0.44951 0.2464 0.90672 0.0
C46 C 0.4939 0.28739 0.89736 0.0
C47 C 0.54183 0.25441 0.83306 0.0
O48 O 0.52701 0.27218 0.82791 0.0
O49 O 0.51002 0.21776 0.89616 0.0
O50 O 0.47924 0.22264 0.92177 0.0
O51 O 0.47578 0.25426 0.83479 0.0
O52 O 0.46131 0.23926 0.86898 0.0
C53 C 0.49993 0.2143 0.91666 0.0
C54 C 0.45806 0.25186 0.84979 0.0
O55 O 0.53501 0.23723 0.84696 0.0
Mg56 Mg 0.126 0.99186 0.26034 0.0
O57 O 0.14814 0.02802 0.25659 0.0
O58 O 0.1727 0.03063 0.28851 0.0
Mg59 Mg 0.16222 0.00063 0.31555 0.0
C60 C 0.16538 0.03866 0.2683 0.0
C61 C 0.10026 0.01008 0.21529 0.0
O62 O 0.09437 0.027 0.23214 0.0
O63 O 0.15816 0.96705 0.25311 0.0
O64 O 0.17577 0.96945 0.28988 0.0
O65 O 0.09653 0.01085 0.28081 0.0
O66 O 0.12749 0.99395 0.29796 0.0
C67 C 0.17367 0.95989 0.26829 0.0
C68 C 0.10733 0.00468 0.30045 0.0
O69 O 0.1148 0.99316 0.22065 0.0
Mg70 Mg 0.26006 0.88563 0.51382 0.0
O71 O 0.26115 0.86475 0.47637 0.0
O72 O 0.29574 0.84438 0.47547 0.0
Mg73 Mg 0.31435 0.84878 0.51224 0.0
C74 C 0.27662 0.85121 0.46529 0.0
C75 C 0.2183 0.91944 0.51139 0.0
O76 O 0.23618 0.93394 0.51893 0.0
O77 O 0.24947 0.85035 0.53323 0.0
O78 O 0.28372 0.82973 0.53302 0.0
O79 O 0.28002 0.91692 0.49768 0.0
O80 O 0.29709 0.88526 0.51528 0.0
C81 C 0.26183 0.83175 0.53918 0.0
C82 C 0.29916 0.905 0.50263 0.0
O83 O 0.22177 0.89618 0.5078 0.0
Mg84 Mg 0.39322 0.01973 0.7626 0.0
O85 O 0.37608 0.98039 0.76121 0.0
O86 O 0.34965 0.97957 0.79195 0.0
Mg87 Mg 0.35193 0.01625 0.8144 0.0
C88 C 0.36008 0.96924 0.77357 0.0
C89 C 0.42561 0.0011 0.71985 0.0
O90 O 0.43697 0.99167 0.73815 0.0
O91 O 0.35899 0.03697 0.74944 0.0
O92 O 0.33593 0.03665 0.78272 0.0
O93 O 0.42201 0.00588 0.78557 0.0
O94 O 0.38808 0.02144 0.79985 0.0
C95 C 0.33965 0.04238 0.76066 0.0
C96 C 0.40761 0.00999 0.80371 0.0
O97 O 0.40682 0.01352 0.72398 0.0
Mg98 Mg 0.26132 0.1157 0.98909 0.0
O99 O 0.26414 0.13333 0.02796 0.0
O100 O 0.29911 0.15409 0.02962 0.0
Mg101 Mg 0.32073 0.14509 0.99489 0.0
C102 C 0.27935 0.1475 0.03929 0.0
C103 C 0.21274 0.08943 0.98789 0.0
O104 O 0.22767 0.07182 0.98105 0.0
O105 O 0.25802 0.15337 0.97122 0.0
O106 O 0.296 0.16695 0.97069 0.0
O107 O 0.27744 0.07981 0.00084 0.0
O108 O 0.29774 0.11222 0.98726 0.0
C109 C 0.27428 0.16852 0.96403 0.0
C110 C 0.29773 0.09021 0.99556 0.0
O111 O 0.22106 0.11114 0.99339 0.0
Mg112 Mg 0.76135 0.3881 0.01377 0.0
O113 O 0.7605 0.36661 0.97681 0.0
O114 O 0.79386 0.34413 0.97426 0.0
Mg115 Mg 0.81426 0.34886 0.00999 0.0
C116 C 0.77452 0.35181 0.96523 0.0
C117 C 0.71811 0.42016 -0.00014 0.0
O118 O 0.73579 0.43484 0.99325 0.0
O119 O 0.75049 0.35324 0.03403 0.0
O120 O 0.78387 0.33112 0.0321 0.0
O121 O 0.78209 0.41827 -0.00346 0.0
O122 O 0.79853 0.38618 0.01387 0.0
C123 C 0.76239 0.33406 0.0393 0.0
C124 C 0.80098 0.40575 0.00104 0.0
O125 O 0.72271 0.39923 0.00886 0.0
Mg126 Mg 0.89434 0.51795 0.25948 0.0
O127 O 0.87499 0.48019 0.26286 0.0
O128 O 0.85481 0.48198 0.29812 0.0
Mg129 Mg 0.86188 0.51985 0.31744 0.0
C130 C 0.86118 0.47037 0.27848 0.0
C131 C 0.91524 0.49022 0.2138 0.0
O132 O 0.9226 0.47551 0.23074 0.0
O133 O 0.85938 0.5367 0.25071 0.0
O134 O 0.84138 0.53824 0.28719 0.0
O135 O 0.92483 0.50246 0.27941 0.0
O136 O 0.895 0.52347 0.29667 0.0
C137 C 0.84185 0.54282 0.26452 0.0
C138 C 0.91381 0.51046 0.29888 0.0
O139 O 0.90211 0.50857 0.21982 0.0
Mg140 Mg 0.76121 0.61961 0.48684 0.0
O141 O 0.76131 0.63529 0.52651 0.0
O142 O 0.79474 0.6584 0.53107 0.0
Mg143 Mg 0.8187 0.65191 0.49728 0.0
C144 C 0.77493 0.65 0.53921 0.0
C145 C 0.71158 0.59574 0.50056 0.0
O146 O 0.7257 0.58049 0.51161 0.0
O147 O 0.75717 0.65796 0.47037 0.0
O148 O 0.79472 0.67282 0.47165 0.0
O149 O 0.77911 0.58403 0.49767 0.0
O150 O 0.798 0.61804 0.48633 0.0
C151 C 0.77331 0.6736 0.46389 0.0
C152 C 0.79909 0.59547 0.49308 0.0
O153 O 0.72078 0.61359 0.48893 0.0
Mg154 Mg 0.62686 0.491 0.75974 0.0
O155 O 0.64771 0.52794 0.75521 0.0
O156 O 0.67246 0.53183 0.787 0.0
Mg157 Mg 0.66245 0.50261 0.81498 0.0
C158 C 0.66482 0.53918 0.76665 0.0
C159 C 0.59389 0.48386 0.71689 0.0
O160 O 0.58148 0.47624 0.73564 0.0
O161 O 0.66003 0.46742 0.7533 0.0
O162 O 0.67676 0.47119 0.79036 0.0
O163 O 0.59649 0.50943 0.77947 0.0
O164 O 0.62821 0.49455 0.79706 0.0
C165 C 0.67519 0.46069 0.76909 0.0
C166 C 0.60763 0.50441 0.79928 0.0
O167 O 0.61553 0.49069 0.72015 0.0
Mg168 Mg 0.00548 0.7436 0.85794 0.0
O169 O 0.00171 0.77914 0.88335 0.0
O170 O 0.96482 0.7769 0.89917 0.0
Mg171 Mg 0.94616 0.74046 0.88607 0.0
C172 C 0.98485 0.78823 0.89656 0.0
C173 C 0.05293 0.74382 0.83217 0.0
O174 O 0.0371 0.73837 0.81507 0.0
O175 O 0.01079 0.7188 0.8901 0.0
O176 O 0.97351 0.71536 0.90411 0.0
O177 O 0.989 0.76296 0.82647 0.0
O178 O 0.96884 0.74187 0.85377 0.0
C179 C -0.00453 0.7093 0.90443 0.0
C180 C 0.96867 0.75555 0.83509 0.0
O181 O 0.04565 0.74868 0.85376 0.0
Mg182 Mg 0.00024 0.26028 0.64025 0.0
O183 O 0.00026 0.22247 0.62065 0.0
O184 O 0.96472 0.21598 0.6031 0.0
Mg185 Mg 0.94083 0.24861 0.61463 0.0
C186 C 0.9859 0.2091 0.60755 0.0
C187 C 0.04882 0.26716 0.66231 0.0
O188 O 0.03453 0.27745 0.67871 0.0
O189 O 0.00165 0.27968 0.60438 0.0
O190 O 0.96327 0.27668 0.59347 0.0
O191 O 0.98824 0.2431 0.67456 0.0
O192 O 0.96398 0.25658 0.64636 0.0
C193 C 0.98442 0.28542 0.59072 0.0
C194 C 0.96676 0.24559 0.66657 0.0
O195 O 0.0401 0.25884 0.64226 0.0
Mg196 Mg 0.50429 0.243 0.35813 0.0
O197 O 0.50131 0.27844 0.38374 0.0
O198 O 0.46621 0.27577 0.40308 0.0
Mg199 Mg 0.44715 0.23934 0.3904 0.0
C200 C 0.4857 0.28747 0.3986 0.0
C201 C 0.5528 0.23663 0.33403 0.0
O202 O 0.53803 0.22444 0.31906 0.0
O203 O 0.51156 0.21773 0.38952 0.0
O204 O 0.47556 0.21435 0.40663 0.0
O205 O 0.48595 0.26257 0.32798 0.0
O206 O 0.46752 0.24112 0.35623 0.0
C207 C 0.49748 0.20831 0.40511 0.0
C208 C 0.46617 0.25506 0.33777 0.0
O209 O 0.54433 0.24834 0.35263 0.0
Mg210 Mg 0.50202 0.76554 0.14103 0.0
O211 O 0.5041 0.72674 0.12266 0.0
O212 O 0.46949 0.71926 0.10345 0.0
Mg213 Mg 0.4439 0.75048 0.11323 0.0
C214 C 0.49062 0.71309 0.10883 0.0
C215 C 0.54883 0.76353 0.16683 0.0
O216 O 0.53321 0.76681 0.1845 0.0
O217 O 0.50407 0.78399 0.10413 0.0
O218 O 0.46653 0.77689 0.09149 0.0
O219 O 0.48702 0.74916 0.17539 0.0
O220 O 0.46572 0.76221 0.14486 0.0
C221 C 0.48709 0.78708 0.08908 0.0
C222 C 0.46634 0.75236 0.16575 0.0
O223 O 0.54186 0.76437 0.14495 0.0
Mg224 Mg 0.88983 0.00624 0.74834 0.0
O225 O 0.86457 0.97202 0.75351 0.0
O226 O 0.8461 0.97881 0.78932 0.0
Mg227 Mg 0.85781 0.01704 0.8056 0.0
C228 C 0.85026 0.96507 0.77029 0.0
C229 C 0.91683 0.00492 0.70212 0.0
O230 O 0.93125 0.01448 0.71902 0.0
O231 O 0.8597 0.03123 0.73816 0.0
O232 O 0.84169 0.03864 0.77405 0.0
O233 O 0.91882 0.98819 0.76901 0.0
O234 O 0.89152 0.01291 0.78545 0.0
C235 C 0.84386 0.04209 0.75121 0.0
C236 C 0.90977 -0.00088 0.7883 0.0
O237 O 0.89642 0.99677 0.70845 0.0
Mg238 Mg 0.76174 0.11846 0.4856 0.0
O239 O 0.76104 0.13727 0.52346 0.0
O240 O 0.79624 0.1564 0.53027 0.0
Mg241 Mg 0.81908 0.15056 0.49599 0.0
C242 C 0.77532 0.15004 0.53723 0.0
C243 C 0.71462 0.09042 0.49048 0.0
O244 O 0.73009 0.07241 0.48748 0.0
O245 O 0.75768 0.1557 0.46742 0.0
O246 O 0.79396 0.17297 0.47239 0.0
O247 O 0.77663 0.0845 0.50178 0.0
O248 O 0.79866 0.11555 0.48778 0.0
C249 C 0.77283 0.17328 0.46376 0.0
C250 C 0.79744 0.09481 0.49896 0.0
O251 O 0.72179 0.11293 0.4889 0.0
Mg252 Mg 0.61845 0.99051 0.25129 0.0
O253 O 0.63617 0.0289 0.24852 0.0
O254 O 0.65411 0.03891 0.28402 0.0
Mg255 Mg 0.64956 0.00552 0.30831 0.0
C256 C 0.64803 0.04407 0.26245 0.0
C257 C 0.59155 0.99184 0.20387 0.0
O258 O 0.57424 0.98925 0.21982 0.0
O259 O 0.6539 0.97207 0.24613 0.0
O260 O 0.67191 0.98055 0.28181 0.0
O261 O 0.58616 0.00824 0.26681 0.0
O262 O 0.6161 0.99518 0.28895 0.0
C263 C 0.67163 0.97025 0.26037 0.0
C264 C 0.596 0.00645 0.28795 0.0
O265 O 0.61296 0.99085 0.21097 0.0
Mg266 Mg 0.74738 0.88646 0.01853 0.0
O267 O 0.74473 0.86489 0.98136 0.0
O268 O 0.77757 0.8419 0.97853 0.0
Mg269 Mg 0.80116 0.84855 0.01221 0.0
C270 C 0.7581 0.84948 0.96961 0.0
C271 C 0.70337 0.91954 0.01524 0.0
O272 O 0.72093 0.93588 0.01296 0.0
O273 O 0.73824 0.85231 0.04067 0.0
O274 O 0.77401 0.83468 0.03998 0.0
O275 O 0.7682 0.91776 0.00132 0.0
O276 O 0.78443 0.88489 0.01703 0.0
C277 C 0.75288 0.83654 0.04852 0.0
C278 C 0.78715 0.90532 0.00586 0.0
O279 O 0.70823 0.89664 0.01721 0.0
Mg280 Mg 0.26101 0.62111 0.98588 0.0
O281 O 0.26237 0.63746 0.02473 0.0
O282 O 0.2985 0.65435 0.03166 0.0
Mg283 Mg 0.32041 0.64799 -0.00334 0.0
C284 C 0.27741 0.64882 0.03878 0.0
C285 C 0.2132 0.59598 0.98601 0.0
O286 O 0.22782 0.57876 0.97757 0.0
O287 O 0.25909 0.65949 0.97016 0.0
O288 O 0.29666 0.67353 0.97425 0.0
O289 O 0.27337 0.5848 -0.00107 0.0
O290 O 0.29744 0.61522 0.98677 0.0
C291 C 0.27537 0.67587 0.96642 0.0
C292 C 0.29479 0.59358 -0.00393 0.0
O293 O 0.22114 0.61812 0.98973 0.0
Mg294 Mg 0.11892 0.49405 0.75186 0.0
O295 O 0.13708 0.5321 0.75445 0.0
O296 O 0.1536 0.53821 0.79133 0.0
Mg297 Mg 0.14584 0.50275 0.81209 0.0
C298 C 0.14877 0.54548 0.77009 0.0
C299 C 0.10106 0.48606 0.69916 0.0
O300 O 0.08775 0.46919 0.70982 0.0
O301 O 0.15451 0.47542 0.7479 0.0
O302 O 0.16938 0.47913 0.7856 0.0
O303 O 0.08551 0.51033 0.76603 0.0
O304 O 0.11382 0.49528 0.78923 0.0
C305 C 0.17071 0.47114 0.76336 0.0
C306 C 0.09383 0.50668 0.78756 0.0
O307 O 0.11641 0.49859 0.71159 0.0
Mg308 Mg 0.2473 0.38686 0.52175 0.0
O309 O 0.24527 0.36359 0.48536 0.0
O310 O 0.27551 0.33707 0.4856 0.0
Mg311 Mg 0.2958 0.34246 0.52181 0.0
C312 C 0.25768 0.3464 0.475 0.0
C313 C 0.2042 0.421 0.50938 0.0
O314 O 0.22145 0.43623 0.50272 0.0
O315 O 0.23294 0.35546 0.54453 0.0
O316 O 0.26411 0.33023 0.5461 0.0
O317 O 0.27261 0.41419 0.50443 0.0
O318 O 0.28386 0.38149 0.52437 0.0
C319 C 0.24298 0.33628 0.55256 0.0
C320 C 0.28973 0.40059 0.51208 0.0
O321 O 0.20935 0.39959 0.51674 0.0
Mg322 Mg 0.38866 0.50927 0.24939 0.0
O323 O 0.3654 0.47339 0.2532 0.0
O324 O 0.34297 0.47994 0.28669 0.0
Mg325 Mg 0.35333 0.51769 0.30481 0.0
C326 C 0.34949 0.4663 0.26836 0.0
C327 C 0.41933 0.5016 0.20463 0.0
O328 O 0.43497 0.5028 0.22243 0.0
O329 O 0.35759 0.53261 0.23801 0.0
O330 O 0.33796 0.53921 0.27306 0.0
O331 O 0.41741 0.49198 0.2705 0.0
O332 O 0.3884 0.51477 0.28665 0.0
C333 C 0.34084 0.54278 0.25034 0.0
C334 C 0.40692 0.50134 0.28974 0.0
O335 O 0.39726 0.50105 0.2098 0.0
O336 O 0.02972 0.02342 -0.00238 0.0
Mn337 Mn -0.00059 0.00129 0.00399 0.0
O338 O 0.06087 -0.00231 0.99422 0.0
Mn339 Mn 0.0452 0.97079 0.00766 0.0
O340 O 0.96836 0.97997 0.01006 0.0
O341 O 0.98278 0.03309 0.01303 0.0
Mn342 Mn 0.95475 0.03432 -0.00084 0.0
O343 O 0.98973 0.00359 0.96747 0.0
O344 O 0.93806 0.00729 0.01111 0.0
O345 O 0.00922 -0.00095 0.04057 0.0
O346 O 0.04053 0.97325 0.04107 0.0
O347 O 0.95855 0.06397 0.01736 0.0
O348 O 0.96106 0.03247 0.96598 0.0
C349 C 0.0218 0.94712 0.98626 0.0
C350 C 0.05172 0.0192 0.99299 0.0
C351 C 0.94626 0.98539 0.01318 0.0
C352 C 0.97897 0.0549 0.02286 0.0
C353 C 0.97551 0.01721 0.95565 0.0
C354 C 0.02504 0.9869 0.0519 0.0
O355 O 0.01643 0.96925 0.99475 0.0
O356 O 0.04311 0.94015 0.99143 0.0
O357 O 0.29231 0.7474 0.24247 0.0
Mn358 Mn 0.25665 0.74668 0.25127 0.0
O359 O 0.29518 0.7654 0.20602 0.0
Mn360 Mn 0.2631 0.77298 0.2021 0.0
O361 O 0.22078 0.7452 0.26076 0.0
O362 O 0.26281 0.71712 0.27033 0.0
Mn363 Mn 0.25076 0.7176 0.29961 0.0
O364 O 0.26311 0.77051 0.2818 0.0
O365 O 0.2184 0.72012 0.29309 0.0
O366 O 0.25005 0.72254 0.22071 0.0
O367 O 0.24491 0.74687 0.18873 0.0
O368 O 0.2666 0.68725 0.29464 0.0
O369 O 0.26474 0.74603 0.31438 0.0
C370 C 0.24598 0.79901 0.22697 0.0
C371 C 0.30423 0.75442 0.224 0.0
C372 C 0.2089 0.73327 0.27685 0.0
C373 C 0.27103 0.69541 0.27324 0.0
C374 C 0.26677 0.76722 0.30456 0.0
C375 C 0.244 0.72564 0.19842 0.0
O376 O 0.25163 0.77665 0.23178 0.0
O377 O 0.25154 0.80526 0.20513 0.0
O378 O 0.47403 0.985 0.48916 0.0
Mn379 Mn 0.50478 0.00524 0.49874 0.0
O380 O 0.44305 0.01072 0.49659 0.0
Mn381 Mn 0.45989 0.03726 0.51158 0.0
O382 O 0.53555 0.02559 0.50875 0.0
O383 O 0.52193 0.97292 0.49995 0.0
Mn384 Mn 0.54995 0.97456 0.48569 0.0
O385 O 0.5136 0.0087 0.4624 0.0
O386 O 0.5662 -0.00095 0.50413 0.0
O387 O 0.49557 0.0024 0.53534 0.0
O388 O 0.4679 0.03181 0.54364 0.0
O389 O 0.54667 0.94241 0.49672 0.0
O390 O 0.5438 0.98258 0.4537 0.0
C391 C 0.48353 0.05864 0.48881 0.0
C392 C 0.45172 0.98988 0.48911 0.0
C393 C 0.55758 0.02004 0.51116 0.0
C394 C 0.52634 0.95017 0.50486 0.0
C395 C 0.52844 -0.00155 0.44754 0.0
C396 C 0.48195 0.01476 0.55012 0.0
O397 O 0.48757 0.03704 0.49687 0.0
O398 O 0.46348 0.06768 0.49632 0.0
O399 O 0.28686 0.26143 0.7725 0.0
Mn400 Mn 0.25457 0.25458 0.75402 0.0
O401 O 0.31527 0.26102 0.7431 0.0
Mn402 Mn 0.29687 0.24944 0.71702 0.0
O403 O 0.22331 0.24788 0.73425 0.0
O404 O 0.239 0.24619 0.78599 0.0
Mn405 Mn 0.20919 0.25632 0.78512 0.0
O406 O 0.24536 0.29164 0.75951 0.0
O407 O 0.19423 0.238 0.76017 0.0
O408 O 0.2634 0.21717 0.74811 0.0
O409 O 0.28937 0.21548 0.71662 0.0
O410 O 0.21271 0.24318 0.81523 0.0
O411 O 0.21096 0.2907 0.78085 0.0
C412 C 0.27063 0.27315 0.70163 0.0
C413 C 0.3087 0.26358 0.76537 0.0
C414 C 0.20228 0.23949 0.73863 0.0
C415 C 0.23428 0.23918 0.80781 0.0
C416 C 0.22737 0.30245 0.76949 0.0
C417 C 0.27582 0.20496 0.73207 0.0
O418 O 0.26948 0.26352 0.72262 0.0
O419 O 0.29025 0.2683 0.69013 0.0
O420 O -0.00453 0.97181 0.47234 0.0
Mn421 Mn 0.00358 0.0007 0.49752 0.0
O422 O -0.00243 0.93597 0.49265 0.0
Mn423 Mn 0.0096 0.94922 0.52185 0.0
O424 O 0.01199 0.02998 0.52251 0.0
O425 O 0.00973 0.02246 0.47004 0.0
Mn426 Mn 0.0006 0.05329 0.47467 0.0
O427 O 0.96845 0.01167 0.49848 0.0
O428 O 0.01975 0.06394 0.50058 0.0
O429 O 0.03909 0.99012 0.49689 0.0
O430 O 0.04193 0.95717 0.52124 0.0
O431 O 0.01208 0.04985 0.44269 0.0
O432 O 0.96837 0.05021 0.4828 0.0
C433 C 0.98591 0.97164 0.54424 0.0
C434 C 0.99356 0.94798 0.4735 0.0
C435 C 0.01977 0.05261 0.5206 0.0
C436 C 0.01589 0.02705 0.4483 0.0
C437 C 0.95801 0.03177 0.49289 0.0
C438 C 0.05118 0.97401 0.50813 0.0
O439 O -0.00348 0.97858 0.52491 0.0
O440 O 0.99105 0.9492 0.55007 0.0
O441 O 0.28046 0.7848 0.75499 0.0
Mn442 Mn 0.25664 0.75425 0.75221 0.0
O443 O 0.2581 0.8193 0.75171 0.0
Mn444 Mn 0.22887 0.80362 0.74534 0.0
O445 O 0.2327 0.72393 0.74884 0.0
O446 O 0.28389 0.73246 0.74353 0.0
Mn447 Mn 0.28204 0.70317 0.7566 0.0
O448 O 0.26144 0.74729 0.78897 0.0
O449 O 0.25451 0.68923 0.74299 0.0
O450 O 0.25163 0.76082 0.71521 0.0
O451 O 0.2251 0.79188 0.71325 0.0
O452 O 0.31081 0.70436 0.73975 0.0
O453 O 0.28111 0.71083 0.79001 0.0
C454 C 0.21059 0.78258 0.77284 0.0
C455 C 0.2781 0.80863 0.75425 0.0
C456 C 0.2347 0.70054 0.74311 0.0
C457 C 0.30438 0.72669 0.73493 0.0
C458 C 0.27143 0.72988 0.80055 0.0
C459 C 0.23767 0.77466 0.7032 0.0
O460 O 0.22964 0.7761 0.76151 0.0
O461 O 0.20319 0.80428 0.76705 0.0
O462 O 0.47678 0.99257 0.97499 0.0
Mn463 Mn 0.50078 0.00288 0.00241 0.0
O464 O 0.49821 0.98639 0.94053 0.0
Mn465 Mn 0.52622 0.00186 0.95157 0.0
O466 O 0.52453 0.01328 0.03032 0.0
O467 O 0.47307 0.01246 0.0232 0.0
Mn468 Mn 0.47538 0.00237 0.0531 0.0
O469 O 0.4988 0.96701 0.01425 0.0
O470 O 0.50224 0.01972 0.06425 0.0
O471 O 0.50355 0.03892 0.99013 0.0
O472 O 0.52646 0.03652 0.9561 0.0
O473 O 0.44608 0.0178 0.05082 0.0
O474 O 0.47796 0.96769 0.04949 0.0
C475 C 0.54786 0.98186 0.97643 0.0
C476 C 0.47879 0.98505 0.95265 0.0
C477 C 0.52191 0.02118 0.05258 0.0
C478 C 0.45242 0.02097 0.02848 0.0
C479 C 0.48908 0.95623 0.03218 0.0
C480 C 0.51556 0.04896 0.97299 0.0
O481 O 0.52812 0.99244 0.98161 0.0
O482 O 0.55423 0.98387 0.95395 0.0
O483 O 0.28815 0.24853 0.26542 0.0
Mn484 Mn 0.25299 0.25237 0.25477 0.0
O485 O 0.287 0.22694 0.29995 0.0
Mn486 Mn 0.25404 0.22153 0.30129 0.0
O487 O 0.21743 0.25649 0.24389 0.0
O488 O 0.26326 0.28378 0.23872 0.0
Mn489 Mn 0.25018 0.28566 0.20994 0.0
O490 O 0.25868 0.23062 0.22237 0.0
O491 O 0.2178 0.28631 0.21598 0.0
O492 O 0.24672 0.27428 0.28723 0.0
O493 O 0.23768 0.2474 0.31647 0.0
O494 O 0.26938 0.31391 0.21402 0.0
O495 O 0.25949 0.25767 0.19186 0.0
C496 C 0.23622 0.19813 0.27406 0.0
C497 C 0.29826 0.23892 0.28367 0.0
C498 C 0.20672 0.27096 0.22937 0.0
C499 C 0.27386 0.30489 0.23501 0.0
C500 C 0.26033 0.23555 0.19961 0.0
C501 C 0.23921 0.26954 0.30888 0.0
O502 O 0.24392 0.22061 0.2709 0.0
O503 O 0.23997 0.19031 0.2957 0.0
O504 O 0.49508 0.47145 0.97457 0.0
Mn505 Mn 0.50222 0.50192 -0.00165 0.0
O506 O 0.48909 0.43803 -0.00226 0.0
Mn507 Mn 0.50343 0.45165 0.02566 0.0
O508 O 0.50948 0.53258 0.02188 0.0
O509 O 0.50988 0.522 0.96961 0.0
Mn510 Mn 0.497 0.55167 0.97115 0.0
O511 O 0.46683 0.51227 -0.00307 0.0
O512 O 0.51066 0.56672 -0.0011 0.0
O513 O 0.53761 0.49051 0.00068 0.0
O514 O 0.53626 0.45621 0.02368 0.0
O515 O 0.51309 0.54903 0.94159 0.0
O516 O 0.46432 0.54533 0.97296 0.0
C517 C 0.48387 0.4788 0.04735 0.0
C518 C 0.48907 0.44847 0.97723 0.0
C519 C 0.51334 0.55603 0.01908 0.0
C520 C 0.5182 0.52698 0.94858 0.0
C521 C 0.45483 0.52853 0.98593 0.0
C522 C 0.54772 0.47273 0.01182 0.0
O523 O 0.49372 0.48235 0.0268 0.0
O524 O 0.48655 0.45643 0.0548 0.0
O525 O 0.77434 0.28899 0.25378 0.0
Mn526 Mn 0.75598 0.25455 0.25057 0.0
O527 O 0.74715 0.31842 0.24691 0.0
Mn528 Mn 0.72092 0.2973 0.24167 0.0
O529 O 0.73796 0.21965 0.24683 0.0
O530 O 0.78697 0.23889 0.24231 0.0
Mn531 Mn 0.79109 0.21094 0.25699 0.0
O532 O 0.761 0.24857 0.28779 0.0
O533 O 0.76665 0.1906 0.24526 0.0
O534 O 0.75053 0.25984 0.21318 0.0
O535 O 0.71838 0.28404 0.21019 0.0
O536 O 0.81845 0.21623 0.2389 0.0
O537 O 0.78895 0.21892 0.28999 0.0
C538 C 0.70578 0.27642 0.2707 0.0
C539 C 0.7685 0.31185 0.25105 0.0
C540 C 0.74485 0.1968 0.24409 0.0
C541 C 0.80764 0.23612 0.23262 0.0
C542 C 0.77411 0.234 0.29996 0.0
C543 C 0.73421 0.26998 0.20056 0.0
O544 O 0.72536 0.27119 0.25947 0.0
O545 O 0.69561 0.29625 0.2633 0.0
O546 O 0.97408 0.49039 0.47506 0.0
Mn547 Mn -0.00023 0.50088 0.50126 0.0
O548 O 0.99416 0.4817 0.44013 0.0
Mn549 Mn 0.02278 0.49684 0.44934 0.0
O550 O 0.0256 0.51093 0.52736 0.0
O551 O 0.97347 0.51282 0.52295 0.0
Mn552 Mn 0.97927 0.50754 0.55367 0.0
O553 O -0.00288 0.46614 0.51583 0.0
O554 O 0.00638 0.52672 0.5602 0.0
O555 O 0.00329 0.53603 0.4873 0.0
O556 O 0.02366 0.53167 0.45192 0.0
O557 O 0.94925 0.52162 0.55254 0.0
O558 O 0.98396 0.4731 0.55444 0.0
C559 C 0.04525 0.47759 0.47388 0.0
C560 C 0.97508 0.48183 0.45286 0.0
C561 C 0.02552 0.52247 0.54835 0.0
C562 C 0.95319 0.5217 0.52933 0.0
C563 C 0.99184 0.4587 0.53712 0.0
C564 C 0.01415 0.54516 0.46897 0.0
O565 O 0.02574 0.4884 0.4796 0.0
O566 O 0.05064 0.47862 0.45104 0.0
O567 O 0.78449 0.76065 0.27246 0.0
Mn568 Mn 0.75327 0.75289 0.25304 0.0
O569 O 0.81475 0.75507 0.24545 0.0
Mn570 Mn 0.79723 0.7418 0.21922 0.0
O571 O 0.72274 0.74484 0.23281 0.0
O572 O 0.73587 0.74859 0.2848 0.0
Mn573 Mn 0.70806 0.76337 0.28374 0.0
O574 O 0.74597 0.79087 0.25388 0.0
O575 O 0.69163 0.74655 0.2587 0.0
O576 O 0.76057 0.71471 0.25153 0.0
O577 O 0.78756 0.70868 0.2213 0.0
O578 O 0.70951 0.74981 0.31397 0.0
O579 O 0.71518 0.79704 0.27975 0.0
C580 C 0.77314 0.76528 0.20032 0.0
C581 C 0.80667 0.76128 0.2666 0.0
C582 C 0.70069 0.74125 0.23786 0.0
C583 C 0.73023 0.74238 0.30659 0.0
C584 C 0.73141 0.80516 0.26559 0.0
C585 C 0.77268 0.70047 0.23687 0.0
O586 O 0.77028 0.75749 0.22186 0.0
O587 O 0.79295 0.75837 0.19031 0.0
O588 O 0.79315 0.24676 0.74397 0.0
Mn589 Mn 0.75674 0.24683 0.75057 0.0
O590 O 0.80064 0.2722 0.71293 0.0
Mn591 Mn 0.76898 0.27651 0.70415 0.0
O592 O 0.72011 0.24632 0.75742 0.0
O593 O 0.7609 0.21641 0.76923 0.0
Mn594 Mn 0.74502 0.21591 0.7966 0.0
O595 O 0.7618 0.26934 0.78219 0.0
O596 O 0.71376 0.21761 0.78602 0.0
O597 O 0.75114 0.22435 0.71894 0.0
O598 O 0.75451 0.24981 0.68719 0.0
O599 O 0.76205 0.18621 0.79367 0.0
O600 O 0.7557 0.24437 0.81405 0.0
C601 C 0.74675 0.29962 0.72719 0.0
C602 C 0.80745 0.25788 0.72953 0.0
C603 C 0.70627 0.2329 0.77056 0.0
C604 C 0.76913 0.19486 0.77318 0.0
C605 C 0.76081 0.26553 0.80517 0.0
C606 C 0.74936 0.22871 0.69613 0.0
O607 O 0.75339 0.27758 0.73188 0.0
O608 O 0.75462 0.30749 0.70665 0.0
O609 O 0.78982 0.74968 0.76524 0.0
Mn610 Mn 0.75461 0.7514 0.75374 0.0
O611 O 0.79098 0.72662 0.7986 0.0
Mn612 Mn 0.75797 0.72417 0.80246 0.0
O613 O 0.71957 0.75415 0.74104 0.0
O614 O 0.76473 0.7811 0.73468 0.0
Mn615 Mn 0.75716 0.77566 0.70391 0.0
O616 O 0.76109 0.72581 0.7243 0.0
O617 O 0.72427 0.77164 0.70443 0.0
O618 O 0.74717 0.77614 0.78375 0.0
O619 O 0.74401 0.75216 0.81659 0.0
O620 O 0.77084 0.80724 0.70591 0.0
O621 O 0.77351 0.74783 0.69279 0.0
C622 C 0.73641 0.70026 0.77884 0.0
C623 C 0.80119 0.73939 0.78227 0.0
C624 C 0.71115 0.76245 0.72109 0.0
C625 C 0.77251 0.80296 0.72888 0.0
C626 C 0.76968 0.72706 0.70264 0.0
C627 C 0.74222 0.77307 0.80645 0.0
O628 O 0.74547 0.72154 0.77301 0.0
O629 O 0.7414 0.69398 0.80075 0.0
O630 O 0.52864 0.52917 0.49852 0.0
Mn631 Mn 0.50004 0.50355 0.50317 0.0
O632 O 0.55936 0.50743 0.48529 0.0
Mn633 Mn 0.54726 0.48146 0.5026 0.0
O634 O 0.46989 0.48011 0.50813 0.0
O635 O 0.4822 0.5339 0.51384 0.0
Mn636 Mn 0.45252 0.53303 0.50426 0.0
O637 O 0.48891 0.50723 0.46744 0.0
O638 O 0.43966 0.50544 0.5191 0.0
O639 O 0.51001 0.49985 0.53922 0.0
O640 O 0.54739 0.48583 0.53629 0.0
O641 O 0.45765 0.56388 0.52045 0.0
O642 O 0.45438 0.52853 0.47059 0.0
C643 C 0.5299 0.45125 0.4852 0.0
C644 C 0.54954 0.52818 0.48918 0.0
C645 C 0.44835 0.48374 0.51566 0.0
C646 C 0.47908 0.55598 0.52319 0.0
C647 C 0.47011 0.51646 0.45822 0.0
C648 C 0.52962 0.4934 0.5488 0.0
O649 O 0.51831 0.47152 0.49216 0.0
O650 O 0.55256 0.45093 0.48986 0.0
O651 O 0.97544 0.48654 0.99226 0.0
Mn652 Mn 0.00722 0.50531 0.00077 0.0
O653 O 0.94617 0.51369 0.00228 0.0
Mn654 Mn 0.96495 0.54015 0.01474 0.0
O655 O 0.03875 0.52451 0.00973 0.0
O656 O 0.02306 0.47226 0.00274 0.0
Mn657 Mn 0.051 0.47247 0.98818 0.0
O658 O 0.01545 0.50688 0.96401 0.0
O659 O 0.06842 0.49678 0.00573 0.0
O660 O -0.00121 0.50401 0.03785 0.0
O661 O 0.97489 0.53662 0.04643 0.0
O662 O 0.04675 0.44073 -0.00023 0.0
O663 O 0.04442 0.47905 0.95594 0.0
C664 C 0.98812 0.55997 0.99049 0.0
C665 C 0.95341 0.49244 0.99409 0.0
C666 C 0.06054 0.51824 0.01229 0.0
C667 C 0.02664 0.44933 0.00765 0.0
C668 C 0.02942 0.49507 0.94927 0.0
C669 C 0.98753 0.51849 0.05301 0.0
O670 O 0.9915 0.538 -0.00189 0.0
O671 O 0.9688 0.57001 -0.00119 0.0
H672 H 0.9524 0.17457 0.0932 0.0
H673 H 0.02729 0.19495 0.09282 0.0
H674 H 0.96195 0.13223 0.07907 0.0
H675 H 0.03683 0.15223 0.07773 0.0
H676 H 0.0123 0.0888 0.00946 0.0
H677 H 0.02088 0.12715 0.0339 0.0
H678 H 0.98813 0.09402 0.09638 0.0
H679 H 0.97965 0.05575 0.07192 0.0
C680 C 0.97093 0.16998 0.09012 0.0
C681 C 0.98908 0.18809 0.09404 0.0
C682 C 0.97642 0.14566 0.08228 0.0
C683 C 0.00015 0.1389 0.0777 0.0
C684 C 0.01843 0.15694 0.08146 0.0
C685 C 0.01296 0.18129 0.08999 0.0
C686 C 0.00849 0.08912 0.02885 0.0
C687 C -0.00465 0.06944 0.03889 0.0
C688 C 0.01326 0.11114 0.0428 0.0
C689 C 0.00471 0.11363 0.06684 0.0
C690 C 0.99476 0.09255 0.07782 0.0
C691 C 0.99011 0.07056 0.0639 0.0
H692 H 0.07895 0.72676 0.35233 0.0
H693 H 0.06141 0.7808 0.299 0.0
H694 H 0.11815 0.72198 0.33398 0.0
H695 H 0.10053 0.77539 0.28004 0.0
H696 H 0.18414 0.77616 0.27311 0.0
H697 H 0.14293 0.78273 0.28629 0.0
H698 H 0.13452 0.70344 0.29731 0.0
H699 H 0.17588 0.69725 0.28523 0.0
C700 C 0.08348 0.73761 0.33666 0.0
C701 C 0.06707 0.75398 0.32696 0.0
C702 C 0.10585 0.73469 0.32597 0.0
C703 C 0.11222 0.74787 0.30519 0.0
C704 C 0.09612 0.76495 0.29601 0.0
C705 C 0.07375 0.76804 0.30687 0.0
C706 C 0.17318 0.76014 0.27775 0.0
C707 C 0.18304 0.73628 0.27848 0.0
C708 C 0.14965 0.76387 0.28535 0.0
C709 C 0.13571 0.74369 0.29346 0.0
C710 C 0.14508 0.71949 0.29197 0.0
C711 C 0.16861 0.71586 0.2848 0.0
H712 H 0.52866 0.82156 0.58159 0.0
H713 H 0.4564 0.81503 0.55438 0.0
H714 H 0.5325 0.86277 0.56446 0.0
H715 H 0.46 0.85647 0.53818 0.0
H716 H 0.49093 0.91907 0.48829 0.0
H717 H 0.47936 0.88019 0.50739 0.0
H718 H 0.51791 0.90455 0.57246 0.0
H719 H 0.52983 0.94305 0.5529 0.0
C720 C 0.5137 0.82873 0.57175 0.0
C721 C 0.49224 0.8149 0.5695 0.0
C722 C 0.51573 0.85258 0.56231 0.0
C723 C 0.49631 0.86323 0.55052 0.0
C724 C 0.47527 0.84891 0.5472 0.0
C725 C 0.4733 0.82501 0.55644 0.0
C726 C 0.49591 0.91651 0.50708 0.0
C727 C 0.51111 0.93389 0.51925 0.0
C728 C 0.48952 0.89415 0.51798 0.0
C729 C 0.49844 0.88889 0.54114 0.0
C730 C 0.51141 0.90769 0.55429 0.0
C731 C 0.51781 0.92996 0.54335 0.0
H732 H 0.4156 0.24397 0.87322 0.0
H733 H 0.44826 0.28556 0.81556 0.0
H734 H 0.37612 0.25486 0.85856 0.0
H735 H 0.40886 0.29647 0.80124 0.0
H736 H 0.35182 0.24339 0.76101 0.0
H737 H 0.3859 0.24932 0.7875 0.0
H738 H 0.34453 0.29539 0.83751 0.0
H739 H 0.30943 0.28951 0.81032 0.0
C740 C 0.41439 0.25619 0.85802 0.0
C741 C 0.43491 0.26322 0.84497 0.0
C742 C 0.39181 0.26269 0.84991 0.0
C743 C 0.38963 0.27634 0.82878 0.0
C744 C 0.41022 0.286 0.81767 0.0
C745 C 0.43272 0.27941 0.82564 0.0
C746 C 0.34984 0.25503 0.77749 0.0
C747 C 0.32813 0.2665 0.78332 0.0
C748 C 0.36939 0.2584 0.79262 0.0
C749 C 0.36787 0.27335 0.81403 0.0
C750 C 0.34601 0.2841 0.82077 0.0
C751 C 0.32608 0.28066 0.80538 0.0
H752 H 0.97574 0.80378 0.44075 0.0
H753 H 0.00767 0.82045 0.37138 0.0
H754 H 0.97748 0.84795 0.45298 0.0
H755 H 0.00892 0.86516 0.38349 0.0
H756 H 0.02569 0.93743 0.43831 0.0
H757 H 0.0261 0.89727 0.41531 0.0
H758 H 0.95326 0.8829 0.43736 0.0
H759 H 0.95335 0.92242 0.46107 0.0
C760 C 0.9834 0.81695 0.42827 0.0
C761 C 0.99115 0.80896 0.40503 0.0
C762 C 0.98413 0.8422 0.43509 0.0
C763 C 0.99231 0.85995 0.41867 0.0
C764 C 0.00208 0.85181 0.39622 0.0
C765 C 0.00155 0.82632 0.38943 0.0
C766 C 0.00941 0.92621 0.43704 0.0
C767 C 0.9895 0.93265 0.45138 0.0
C768 C 0.00972 0.90319 0.42411 0.0
C769 C 0.99001 0.88675 0.4254 0.0
C770 C 0.96891 0.89505 0.43674 0.0
C771 C 0.96875 0.91779 0.44991 0.0
H772 H 0.44391 0.73704 0.69933 0.0
H773 H 0.41563 0.77394 0.63726 0.0
H774 H 0.40472 0.7388 0.71882 0.0
H775 H 0.37684 0.77625 0.65695 0.0
H776 H 0.30842 0.73391 0.68681 0.0
H777 H 0.3455 0.74629 0.66693 0.0
H778 H 0.3757 0.76807 0.73719 0.0
H779 H 0.3385 0.75532 0.7569 0.0
C780 C 0.42935 0.74544 0.68986 0.0
C781 C 0.43276 0.75498 0.66665 0.0
C782 C 0.40702 0.74686 0.70115 0.0
C783 C 0.38778 0.75796 0.68949 0.0
C784 C 0.39127 0.76751 0.66631 0.0
C785 C 0.41349 0.76599 0.655 0.0
C786 C 0.32258 0.7426 0.69776 0.0
C787 C 0.32084 0.74383 0.7232 0.0
C788 C 0.34389 0.74952 0.68647 0.0
C789 C 0.36371 0.75745 0.70062 0.0
C790 C 0.36087 0.76143 0.72592 0.0
C791 C 0.33953 0.75457 0.73716 0.0
H792 H 0.5371 0.18317 0.90746 0.0
H793 H 0.48714 0.20587 0.96389 0.0
H794 H 0.54584 0.14614 0.92916 0.0
H795 H 0.49676 0.16907 0.98643 0.0
H796 H 0.48087 0.08279 0.98288 0.0
H797 H 0.48347 0.12772 0.97751 0.0
H798 H 0.55858 0.12151 0.96026 0.0
H799 H 0.55533 0.07635 0.96404 0.0
C800 C 0.52863 0.18074 0.925 0.0
C801 C 0.51071 0.19688 0.93346 0.0
C802 C 0.5338 0.15947 0.93765 0.0
C803 C 0.52138 0.15413 0.95922 0.0
C804 C 0.50597 0.17217 0.96941 0.0
C805 C 0.50055 0.19332 0.95655 0.0
C806 C 0.49793 0.0912 0.97821 0.0
C807 C 0.51771 0.07628 0.97311 0.0
C808 C 0.49958 0.117 0.97545 0.0
C809 C 0.52122 0.12828 0.96807 0.0
C810 C 0.54151 0.11339 0.96526 0.0
C811 C 0.53967 0.08757 0.96737 0.0
H812 H 0.05671 0.22771 0.20318 0.0
H813 H 0.08222 0.26811 0.14134 0.0
H814 H 0.0958 0.23281 0.22236 0.0
H815 H 0.12143 0.27263 0.16023 0.0
H816 H 0.17688 0.30497 0.21125 0.0
H817 H 0.13708 0.29728 0.19504 0.0
H818 H 0.13828 0.22159 0.21963 0.0
H819 H 0.17835 0.22944 0.23623 0.0
C820 C 0.07077 0.23733 0.19349 0.0
C821 C 0.06629 0.24783 0.17088 0.0
C822 C 0.09318 0.2402 0.20449 0.0
C823 C 0.11157 0.25352 0.19305 0.0
C824 C 0.10741 0.26286 0.16984 0.0
C825 C 0.085 0.26014 0.15892 0.0
C826 C 0.16852 0.28681 0.21364 0.0
C827 C 0.18083 0.26776 0.22491 0.0
C828 C 0.1458 0.28231 0.20407 0.0
C829 C 0.13477 0.25863 0.20547 0.0
C830 C 0.14636 0.24002 0.21819 0.0
C831 C 0.16923 0.24455 0.22785 0.0
H832 H 0.06206 0.03735 0.20157 0.0
H833 H 0.10991 0.97971 0.17554 0.0
H834 H 0.03877 0.03188 0.16411 0.0
H835 H 0.08709 0.97471 0.13802 0.0
H836 H 0.03312 0.95126 0.08426 0.0
H837 H 0.04859 0.95792 0.12549 0.0
H838 H 0.0405 0.0377 0.11998 0.0
H839 H 0.02414 0.03076 0.07888 0.0
C840 C 0.06778 0.02371 0.18775 0.0
C841 C 0.08772 0.00877 0.1916 0.0
C842 C 0.0544 0.02059 0.16631 0.0
C843 C 0.06076 0.0025 0.14832 0.0
C844 C 0.08125 0.98828 0.15185 0.0
C845 C 0.09451 0.99131 0.17325 0.0
C846 C 0.03395 0.97013 0.09221 0.0
C847 C 0.02763 0.99052 0.07846 0.0
C848 C 0.04308 0.974 0.11566 0.0
C849 C 0.04653 -0.00161 0.12567 0.0
C850 C 0.03817 0.01868 0.11274 0.0
C851 C 0.02868 0.01474 0.08929 0.0
H852 H 0.31015 0.85802 0.43095 0.0
H853 H 0.23734 0.83275 0.44045 0.0
H854 H 0.30811 0.84626 0.38762 0.0
H855 H 0.2355 0.81976 0.39709 0.0
H856 H 0.23531 0.80343 0.31667 0.0
H857 H 0.2368 0.83064 0.35374 0.0
H858 H 0.30794 0.80514 0.36807 0.0
H859 H 0.30613 0.77804 0.3314 0.0
C860 C 0.29369 0.84988 0.42365 0.0
C861 C 0.27407 0.8457 0.43896 0.0
C862 C 0.2925 0.84322 0.39887 0.0
C863 C 0.27179 0.83173 0.38895 0.0
C864 C 0.25165 0.82879 0.40409 0.0
C865 C 0.25273 0.83595 0.42892 0.0
C866 C 0.25157 0.80456 0.32733 0.0
C867 C 0.27071 0.78892 0.3213 0.0
C868 C 0.25231 0.81983 0.34866 0.0
C869 C 0.27236 0.81983 0.36402 0.0
C870 C 0.29228 0.80577 0.35662 0.0
C871 C 0.29135 0.79026 0.3356 0.0
H872 H 0.46919 0.98349 0.70541 0.0
H873 H 0.40352 0.01251 0.67777 0.0
H874 H 0.48557 0.98145 0.66395 0.0
H875 H 0.41985 0.01044 0.63669 0.0
H876 H 0.44519 0.98649 0.56381 0.0
H877 H 0.43295 0.97791 0.60539 0.0
H878 H 0.49706 0.01505 0.63291 0.0
H879 H 0.50939 0.02342 0.59087 0.0
C880 C 0.4582 0.98922 0.6905 0.0
C881 C 0.43512 -0.00171 0.69482 0.0
C882 C 0.46762 0.98811 0.66686 0.0
C883 C 0.45394 0.99569 0.6472 0.0
C884 C 0.43067 0.00415 0.6515 0.0
C885 C 0.42138 0.0055 0.67505 0.0
C886 C 0.45693 0.99216 0.57878 0.0
C887 C 0.47809 0.00559 0.5745 0.0
C888 C 0.44991 0.98739 0.60248 0.0
C889 C 0.46391 0.99614 0.62229 0.0
C890 C 0.48603 0.00803 0.61789 0.0
C891 C 0.49307 0.01285 0.594 0.0
H892 H 0.23436 0.16764 0.93544 0.0
H893 H 0.30326 0.20447 0.94445 0.0
H894 H 0.23087 0.18474 0.89523 0.0
H895 H 0.29968 0.22146 0.90398 0.0
H896 H 0.26356 0.26514 0.83898 0.0
H897 H 0.27528 0.2501 0.8787 0.0
H898 H 0.25236 0.17533 0.85579 0.0
H899 H 0.24048 0.19057 0.81632 0.0
C900 C 0.24854 0.17982 0.92914 0.0
C901 C 0.26925 0.18435 0.94312 0.0
C902 C 0.24671 0.18927 0.90588 0.0
C903 C 0.2654 0.20369 0.89613 0.0
C904 C 0.28518 0.21007 0.91087 0.0
C905 C 0.28712 0.20044 0.93412 0.0
C906 C 0.26231 0.24527 0.84204 0.0
C907 C 0.25139 0.2289 0.82464 0.0
C908 C 0.26869 0.23672 0.86487 0.0
C909 C 0.26399 0.21172 0.87058 0.0
C910 C 0.25559 0.19485 0.85209 0.0
C911 C 0.24928 0.20341 0.82933 0.0
H912 H 0.06454 0.02543 0.31198 0.0
H913 H 0.12163 0.9831 0.34199 0.0
H914 H 0.04166 0.0206 0.34921 0.0
H915 H 0.09835 0.97743 0.37895 0.0
H916 H 0.06164 0.01295 0.44984 0.0
H917 H 0.08493 0.00153 0.41369 0.0
H918 H 0.01977 0.9908 0.37226 0.0
H919 H -0.00324 0.00369 0.40831 0.0
C920 C 0.07224 0.01522 0.32659 0.0
C921 C 0.09495 0.00492 0.32415 0.0
C922 C 0.05894 0.01195 0.34775 0.0
C923 C 0.06796 -0.0019 0.36688 0.0
C924 C 0.09088 0.98814 0.36458 0.0
C925 C 0.10428 0.99161 0.34347 0.0
C926 C 0.05236 0.007 0.43324 0.0
C927 C 0.02763 0.0095 0.43145 0.0
C928 C 0.06566 0.00052 0.41247 0.0
C929 C 0.05419 0.99634 0.38986 0.0
C930 C 0.02912 0.99494 0.38923 0.0
C931 C 0.01591 0.00191 0.40987 0.0
H932 H 0.27913 0.78639 0.55163 0.0
H933 H 0.22293 0.8385 0.56856 0.0
H934 H 0.26943 0.76399 0.58828 0.0
H935 H 0.21403 0.81709 0.60556 0.0
H936 H 0.19988 0.7793 0.67287 0.0
H937 H 0.20113 0.78441 0.62894 0.0
H938 H 0.27731 0.77286 0.62952 0.0
H939 H 0.27555 0.76625 0.67309 0.0
C940 C 0.2644 0.79279 0.56292 0.0
C941 C 0.2521 0.81453 0.5574 0.0
C942 C 0.25897 0.78007 0.58408 0.0
C943 C 0.24135 0.78901 0.60036 0.0
C944 C 0.22764 0.8094 0.59357 0.0
C945 C 0.23282 0.82187 0.57225 0.0
C946 C 0.21673 0.77718 0.66337 0.0
C947 C 0.23766 0.77261 0.67632 0.0
C948 C 0.21752 0.7803 0.63822 0.0
C949 C 0.2394 0.77966 0.62559 0.0
C950 C 0.26005 0.77328 0.6384 0.0
C951 C 0.25913 0.76957 0.66347 0.0
H952 H 0.37616 0.98774 0.83449 0.0
H953 H 0.45032 0.00897 0.82599 0.0
H954 H 0.38449 0.97302 0.8753 0.0
H955 H 0.45865 0.99379 0.86647 0.0
H956 H 0.43723 0.00983 0.95085 0.0
H957 H 0.41121 0.00822 0.91518 0.0
H958 H 0.44716 0.94256 0.88703 0.0
H959 H 0.47325 0.94419 0.9226 0.0
C960 C 0.39413 0.98946 0.84145 0.0
C961 C 0.41255 -2e-05 0.82751 0.0
C962 C 0.39886 0.98074 0.86453 0.0
C963 C 0.42212 0.98223 0.8736 0.0
C964 C 0.44062 0.99219 0.85944 0.0
C965 C 0.43589 0.00091 0.83646 0.0
C966 C 0.43846 0.9941 0.93787 0.0
C967 C 0.45741 0.97744 0.93894 0.0
C968 C 0.42357 0.99316 0.91752 0.0
C969 C 0.42766 0.97549 0.89847 0.0
C970 C 0.44387 0.9563 0.90164 0.0
C971 C 0.45882 0.95733 0.92185 0.0
H972 H 0.29131 0.1927 0.06014 0.0
H973 H 0.25606 0.1226 0.07548 0.0
H974 H 0.28404 0.20788 0.10205 0.0
H975 H 0.24923 0.13784 0.11793 0.0
H976 H 0.28764 0.19286 0.19376 0.0
H977 H 0.28991 0.16598 0.1561 0.0
H978 H 0.23234 0.20647 0.12512 0.0
H979 H 0.23006 0.23298 0.1621 0.0
C980 C 0.28221 0.18047 0.07255 0.0
C981 C 0.27425 0.15651 0.06458 0.0
C982 C 0.27816 0.1891 0.0965 0.0
C983 C 0.26651 0.1738 0.11315 0.0
C984 C 0.25854 0.14977 0.1054 0.0
C985 C 0.26223 0.14123 0.08115 0.0
C986 C 0.27507 0.1954 0.17916 0.0
C987 C 0.25907 0.2153 0.18051 0.0
C988 C 0.2763 0.18006 0.15774 0.0
C989 C 0.26134 0.1844 0.13783 0.0
C990 C 0.24399 0.20278 0.14024 0.0
C991 C 0.24286 0.21802 0.16133 0.0
H992 H 0.19022 0.04692 0.97105 0.0
H993 H 0.17646 0.11981 0.00443 0.0
H994 H 0.1478 0.03779 0.96952 0.0
H995 H 0.13338 0.11046 0.00285 0.0
H996 H 0.06666 0.05564 0.02536 0.0
H997 H 0.10451 0.07903 0.0225 0.0
H998 H 0.11199 0.05225 0.94761 0.0
H999 H 0.07475 0.0282 0.95093 0.0
C1000 C 0.17813 0.06109 0.97798 0.0
C1001 C 0.18674 0.08415 0.98772 0.0
C1002 C 0.15373 0.05595 0.97684 0.0
C1003 C 0.13723 0.07365 0.98552 0.0
C1004 C 0.14572 0.09661 0.99577 0.0
C1005 C 0.17032 0.1019 -0.00332 0.0
C1006 C 0.07596 0.05574 0.00802 0.0
C1007 C 0.06816 0.04007 0.9884 0.0
C1008 C 0.0976 0.06906 0.00638 0.0
C1009 C 0.11147 0.06683 0.98504 0.0
C1010 C 0.10191 0.05377 0.96446 0.0
C1011 C 0.08055 0.04021 0.96623 0.0
H1012 H 0.7026 0.4662 0.98749 0.0
H1013 H 0.67739 0.39346 0.00904 0.0
H1014 H 0.66175 0.48145 0.98932 0.0
H1015 H 0.63673 0.40862 0.01051 0.0
H1016 H 0.57598 0.45086 0.04437 0.0
H1017 H 0.61737 0.43926 0.03929 0.0
H1018 H 0.62019 0.47554 0.9704 0.0
H1019 H 0.57831 0.48739 0.97557 0.0
C1020 C 0.68833 0.45338 0.99233 0.0
C1021 C 0.69325 0.42872 -0.00148 0.0
C1022 C 0.66497 0.46212 0.99327 0.0
C1023 C 0.64618 0.44635 0.00045 0.0
C1024 C 0.65098 0.42136 0.00545 0.0
C1025 C 0.67426 0.41265 0.00453 0.0
C1026 C 0.58543 0.45662 0.02821 0.0
C1027 C 0.57382 0.46981 0.0102 0.0
C1028 C 0.6091 0.44982 0.02525 0.0
C1029 C 0.62179 0.45597 0.00419 0.0
C1030 C 0.61074 0.47048 0.98678 0.0
C1031 C 0.58686 0.47735 0.98977 0.0
H1032 H 0.81563 0.4557 0.28553 0.0
H1033 H 0.88352 0.42889 0.25919 0.0
H1034 H 0.79742 0.41474 0.27601 0.0
H1035 H 0.86521 0.38719 0.25025 0.0
H1036 H 0.81087 0.3149 0.27679 0.0
H1037 H 0.83765 0.35192 0.28118 0.0
H1038 H 0.79468 0.39028 0.22995 0.0
H1039 H 0.76815 0.35394 0.22561 0.0
C1040 C 0.82668 0.44089 0.27796 0.0
C1041 C 0.85089 0.44531 0.27308 0.0
C1042 C 0.81629 0.41754 0.27248 0.0
C1043 C 0.82999 0.39796 0.26251 0.0
C1044 C 0.85439 0.40208 0.25803 0.0
C1045 C 0.86475 0.42581 0.26298 0.0
C1046 C 0.8075 0.3311 0.26616 0.0
C1047 C 0.78703 0.33189 0.25148 0.0
C1048 C 0.82285 0.35212 0.26855 0.0
C1049 C 0.8179 0.37388 0.25609 0.0
C1050 C 0.79863 0.37377 0.23993 0.0
C1051 C 0.78337 0.35304 0.23765 0.0
H1052 H 0.84092 0.61234 0.47445 0.0
H1053 H 0.80994 0.55062 0.51279 0.0
H1054 H 0.87955 0.59273 0.47476 0.0
H1055 H 0.84909 0.53123 0.51389 0.0
H1056 H 0.91875 0.49454 0.50531 0.0
H1057 H 0.88112 0.51126 0.49094 0.0
H1058 H 0.90885 0.58641 0.50499 0.0
H1059 H 0.94631 0.56952 0.51861 0.0
C1060 C 0.8424 0.59464 0.48319 0.0
C1061 C 0.82245 0.58322 0.49402 0.0
C1062 C 0.8646 0.58335 0.48326 0.0
C1063 C 0.86752 0.56045 0.49441 0.0
C1064 C 0.84741 0.54871 0.5048 0.0
C1065 C 0.82505 0.55994 0.5045 0.0
C1066 C 0.91702 0.5146 0.50418 0.0
C1067 C 0.93529 0.53086 0.51274 0.0
C1068 C 0.8954 0.52418 0.49638 0.0
C1069 C 0.89176 0.55016 0.49734 0.0
C1070 C 0.911 0.56633 0.50386 0.0
C1071 C 0.93254 0.55672 0.51157 0.0
H1072 H 0.2096 0.05778 0.27915 0.0
H1073 H 0.14738 0.07104 0.23561 0.0
H1074 H 0.22705 0.0974 0.26735 0.0
H1075 H 0.16492 0.1112 0.2239 0.0
H1076 H 0.18957 0.1913 0.263 0.0
H1077 H 0.17237 0.1505 0.25085 0.0
H1078 H 0.24276 0.12353 0.23357 0.0
H1079 H 0.2598 0.16449 0.24571 0.0
C1080 C 0.19977 0.06901 0.26676 0.0
C1081 C 0.17694 0.06143 0.25866 0.0
C1082 C 0.20993 0.09163 0.25971 0.0
C1083 C 0.1974 0.10746 0.2446 0.0
C1084 C 0.17499 0.09939 0.23554 0.0
C1085 C 0.16496 0.07645 0.2423 0.0
C1086 C 0.20114 0.17716 0.25503 0.0
C1087 C 0.22595 0.18095 0.25524 0.0
C1088 C 0.19133 0.15366 0.24823 0.0
C1089 C 0.2063 0.13359 0.24194 0.0
C1090 C 0.23082 0.13854 0.23875 0.0
C1091 C 0.24057 0.16208 0.24539 0.0
H1092 H 0.31267 0.95251 0.49302 0.0
H1093 H 0.33797 0.87666 0.49073 0.0
H1094 H 0.35278 0.96755 0.48269 0.0
H1095 H 0.37807 0.89188 0.48099 0.0
H1096 H 0.42955 0.97608 0.44641 0.0
H1097 H 0.39262 0.95043 0.44297 0.0
H1098 H 0.39773 0.93425 0.51915 0.0
H1099 H 0.4343 0.95972 0.52257 0.0
C1100 C 0.32664 0.93903 0.48984 0.0
C1101 C 0.32243 0.91349 0.49339 0.0
C1102 C 0.34944 0.9476 0.48377 0.0
C1103 C 0.36817 0.93072 0.481 0.0
C1104 C 0.36371 0.90508 0.48302 0.0
C1105 C 0.3409 0.89649 0.48902 0.0
C1106 C 0.42317 0.96615 0.46204 0.0
C1107 C 0.43458 0.96944 0.48466 0.0
C1108 C 0.40218 0.95168 0.46011 0.0
C1109 C 0.39271 0.94051 0.4808 0.0
C1110 C 0.40512 0.9424 0.50293 0.0
C1111 C 0.42594 0.95685 0.50486 0.0
H1112 H 0.84254 0.56936 0.22304 0.0
H1113 H 0.79825 0.55212 0.28496 0.0
H1114 H 0.81649 0.60329 0.21375 0.0
H1115 H 0.77161 0.58574 0.2752 0.0
H1116 H 0.76952 0.67402 0.27816 0.0
H1117 H 0.77815 0.62979 0.28125 0.0
H1118 H 0.78 0.6212 0.20255 0.0
H1119 H 0.77252 0.66572 0.19968 0.0
C1120 C 0.82676 0.57224 0.23417 0.0
C1121 C 0.82283 0.55853 0.25511 0.0
C1122 C 0.81165 0.59167 0.22876 0.0
C1123 C 0.79216 0.5976 0.24406 0.0
C1124 C 0.78679 0.58206 0.26344 0.0
C1125 C 0.80204 0.56276 0.26897 0.0
C1126 C 0.77105 0.66244 0.26159 0.0
C1127 C 0.77096 0.6732 0.23874 0.0
C1128 C 0.77588 0.63704 0.26328 0.0
C1129 C 0.78033 0.62204 0.2421 0.0
C1130 C 0.77735 0.63238 0.2192 0.0
C1131 C 0.77298 0.6578 0.21754 0.0
H1132 H 0.70201 0.43623 0.80171 0.0
H1133 H 0.67634 0.4308 0.72736 0.0
H1134 H 0.71569 0.39351 0.79792 0.0
H1135 H 0.69098 0.38829 0.72333 0.0
H1136 H 0.69982 0.30822 0.72385 0.0
H1137 H 0.68125 0.34722 0.73768 0.0
H1138 H 0.7452 0.36819 0.77801 0.0
H1139 H 0.76313 0.32872 0.76482 0.0
C1140 C 0.69972 0.42615 0.78434 0.0
C1141 C 0.6879 0.43696 0.76483 0.0
C1142 C 0.70748 0.40155 0.78228 0.0
C1143 C 0.70389 0.38729 0.76057 0.0
C1144 C 0.69326 0.39851 0.74062 0.0
C1145 C 0.68526 0.42305 0.74275 0.0
C1146 C 0.70927 0.32066 0.73672 0.0
C1147 C 0.73274 0.31576 0.7434 0.0
C1148 C 0.69891 0.34316 0.74424 0.0
C1149 C 0.71214 0.36117 0.75812 0.0
C1150 C 0.73459 0.3548 0.76717 0.0
C1151 C 0.74482 0.33214 0.75982 0.0
H1152 H 0.01979 0.80484 0.92799 0.0
H1153 H 0.95622 0.82799 0.89172 0.0
H1154 H 0.02259 0.84587 0.94972 0.0
H1155 H 0.95958 0.86941 0.91269 0.0
H1156 H 0.01033 0.94538 0.93809 0.0
H1157 H -0.00197 0.90712 0.91475 0.0
H1158 H 0.98876 0.86884 0.98191 0.0
H1159 H 0.00023 0.90717 0.00509 0.0
C1160 C 0.00665 0.81884 0.92447 0.0
C1161 C 0.98779 0.81337 0.90832 0.0
C1162 C 0.00814 0.84218 0.93693 0.0
C1163 C 0.99117 0.86063 0.93293 0.0
C1164 C 0.97277 0.85545 0.91612 0.0
C1165 C 0.97088 0.83184 0.90421 0.0
C1166 C 0.00416 0.92925 0.94781 0.0
C1167 C 0.00556 0.92933 0.97336 0.0
C1168 C -0.00247 0.90727 0.93449 0.0
C1169 C 0.99283 0.88504 0.94661 0.0
C1170 C 0.99245 0.88573 0.97219 0.0
C1171 C -0.00135 0.90772 0.98544 0.0
H1172 H 0.96195 0.24861 0.71576 0.0
H1173 H 0.92464 0.22616 0.6495 0.0
H1174 H 0.92433 0.24614 0.73858 0.0
H1175 H 0.88735 0.22318 0.67231 0.0
H1176 H 0.82494 0.21166 0.7224 0.0
H1177 H 0.86634 0.20121 0.71247 0.0
H1178 H 0.88755 0.27844 0.72634 0.0
H1179 H 0.84599 0.28903 0.73527 0.0
C1180 C 0.94588 0.24228 0.70629 0.0
C1181 C 0.94594 0.238 0.68089 0.0
C1182 C 0.92447 0.24091 0.7193 0.0
C1183 C 0.90315 0.23452 0.7071 0.0
C1184 C 0.90368 0.22795 0.68209 0.0
C1185 C 0.92492 0.2299 0.66902 0.0
C1186 C 0.83866 0.22615 0.72414 0.0
C1187 C 0.83258 0.25108 0.72958 0.0
C1188 C 0.86221 0.22019 0.71847 0.0
C1189 C 0.87995 0.23902 0.71886 0.0
C1190 C 0.87413 0.2636 0.72629 0.0
C1191 C 0.85047 0.26968 0.73125 0.0
H1192 H 0.53615 0.17834 0.39616 0.0
H1193 H 0.47604 0.18882 0.44485 0.0
H1194 H 0.54285 0.13717 0.41304 0.0
H1195 H 0.48304 0.14812 0.46157 0.0
H1196 H 0.47479 0.06445 0.44122 0.0
H1197 H 0.48823 0.10064 0.41872 0.0
H1198 H 0.5377 0.12123 0.47638 0.0
H1199 H 0.52435 0.08474 0.49884 0.0
C1200 C 0.52486 0.17228 0.41093 0.0
C1201 C 0.50538 0.18677 0.41901 0.0
C1202 C 0.52869 0.14873 0.42044 0.0
C1203 C 0.51335 0.13969 0.4384 0.0
C1204 C 0.49508 0.15489 0.44771 0.0
C1205 C 0.49111 0.17817 0.43813 0.0
C1206 C 0.48961 0.0758 0.44831 0.0
C1207 C 0.49866 0.07197 0.47163 0.0
C1208 C 0.49729 0.09647 0.43546 0.0
C1209 C 0.51387 0.11362 0.44598 0.0
C1210 C 0.52508 0.10805 0.46788 0.0
C1211 C 0.51751 0.08718 0.48066 0.0
H1212 H 0.58621 0.75632 0.13511 0.0
H1213 H 0.56585 0.7514 0.21088 0.0
H1214 H 0.62592 0.74102 0.14475 0.0
H1215 H 0.60501 0.73636 0.22033 0.0
H1216 H 0.66813 0.70341 0.23823 0.0
H1217 H 0.63216 0.70064 0.21323 0.0
H1218 H 0.65962 0.76045 0.16986 0.0
H1219 H 0.69582 0.76251 0.19439 0.0
C1220 C 0.59018 0.75191 0.15375 0.0
C1221 C 0.57303 0.75525 0.17231 0.0
C1222 C 0.61277 0.74299 0.15917 0.0
C1223 C 0.61834 0.73701 0.18314 0.0
C1224 C 0.60103 0.7401 0.20152 0.0
C1225 C 0.57868 0.74918 0.19619 0.0
C1226 C 0.66685 0.71506 0.22259 0.0
C1227 C 0.68427 0.73347 0.21832 0.0
C1228 C 0.64636 0.71352 0.20833 0.0
C1229 C 0.64285 0.73095 0.19025 0.0
C1230 C 0.66183 0.74687 0.18376 0.0
C1231 C 0.68256 0.74809 0.19779 0.0
H1232 H 0.96161 0.17587 0.57736 0.0
H1233 H 0.02812 0.18633 0.61665 0.0
H1234 H 0.97404 0.13443 0.56326 0.0
H1235 H 0.04044 0.14466 0.60232 0.0
H1236 H 0.05466 0.08733 0.53134 0.0
H1237 H 0.04898 0.12457 0.55801 0.0
H1238 H 0.98283 0.09272 0.58409 0.0
H1239 H 0.98821 0.05617 0.55718 0.0
C1240 C 0.97881 0.16932 0.58309 0.0
C1241 C 0.9938 0.18436 0.59822 0.0
C1242 C 0.98582 0.14553 0.57519 0.0
C1243 C 0.00797 0.13631 0.58219 0.0
C1244 C 0.02321 0.15139 0.59691 0.0
C1245 C 0.01614 0.1752 0.60497 0.0
C1246 C 0.03963 0.08781 0.5438 0.0
C1247 C 0.02208 0.06874 0.54263 0.0
C1248 C 0.03633 0.10908 0.55894 0.0
C1249 C 0.01529 0.1115 0.57269 0.0
C1250 C -0.00085 0.09121 0.57354 0.0
C1251 C 0.00251 0.06999 0.55856 0.0
H1252 H 0.58914 0.24712 0.36633 0.0
H1253 H 0.57515 0.22462 0.29122 0.0
H1254 H 0.63198 0.24765 0.35786 0.0
H1255 H 0.6176 0.22602 0.2825 0.0
H1256 H 0.69186 0.22761 0.26618 0.0
H1257 H 0.65713 0.21031 0.28718 0.0
H1258 H 0.657 0.27559 0.33626 0.0
H1259 H 0.69165 0.29228 0.31544 0.0
C1260 C 0.59523 0.24229 0.34802 0.0
C1261 C 0.57878 0.23619 0.32935 0.0
C1262 C 0.61977 0.24246 0.34319 0.0
C1263 C 0.62835 0.23686 0.31949 0.0
C1264 C 0.61181 0.22989 0.30109 0.0
C1265 C 0.58737 0.22944 0.30599 0.0
C1266 C 0.68521 0.23739 0.28236 0.0
C1267 C 0.69414 0.26128 0.28914 0.0
C1268 C 0.66505 0.22777 0.29416 0.0
C1269 C 0.65372 0.24199 0.31287 0.0
C1270 C 0.66504 0.26413 0.32187 0.0
C1271 C 0.68501 0.27374 0.30999 0.0
H1272 H 0.5274 0.80544 0.06643 0.0
H1273 H 0.45113 0.81427 0.0727 0.0
H1274 H 0.53001 0.84366 0.04324 0.0
H1275 H 0.45377 0.85249 0.05167 0.0
H1276 H 0.45739 0.92142 0.01506 0.0
H1277 H 0.45975 0.87615 0.01836 0.0
H1278 H 0.52801 0.88607 0.05466 0.0
H1279 H 0.52607 0.93105 0.04953 0.0
C1280 C 0.51124 0.81531 0.06253 0.0
C1281 C 0.48913 0.80697 0.07141 0.0
C1282 C 0.51269 0.83722 0.04943 0.0
C1283 C 0.49214 0.85139 0.04572 0.0
C1284 C 0.46996 0.842 0.05347 0.0
C1285 C 0.46845 0.81997 0.06584 0.0
C1286 C 0.47295 0.91363 0.02338 0.0
C1287 C 0.4912 0.92925 0.03281 0.0
C1288 C 0.47438 0.88782 0.02532 0.0
C1289 C 0.49376 0.87742 0.03743 0.0
C1290 C 0.51283 0.89325 0.04521 0.0
C1291 C 0.51159 0.91902 0.04274 0.0
H1292 H 0.92879 0.77192 0.85806 0.0
H1293 H 0.95715 0.7518 0.78695 0.0
H1294 H 0.88863 0.7723 0.84112 0.0
H1295 H 0.91668 0.75183 0.76986 0.0
H1296 H 0.83947 0.71046 0.77062 0.0
H1297 H 0.88161 0.72058 0.77933 0.0
H1298 H 0.86159 0.79275 0.81014 0.0
H1299 H 0.81964 0.78269 0.80104 0.0
C1300 C 0.92641 0.76808 0.83868 0.0
C1301 C 0.94587 0.76159 0.82381 0.0
C1302 C 0.90347 0.76843 0.82895 0.0
C1303 C 0.89955 0.76181 0.80424 0.0
C1304 C 0.91925 0.75681 0.78901 0.0
C1305 C 0.94234 0.757 0.79871 0.0
C1306 C 0.84427 0.72858 0.77886 0.0
C1307 C 0.82659 0.7458 0.7853 0.0
C1308 C 0.86828 0.73448 0.78367 0.0
C1309 C 0.87481 0.75747 0.79539 0.0
C1310 C 0.85704 0.77493 0.80112 0.0
C1311 C 0.83314 0.76919 0.79595 0.0
H1312 H 0.94955 0.97323 0.80097 0.0
H1313 H 0.89552 0.02266 0.83036 0.0
H1314 H 0.97065 0.97657 0.84021 0.0
H1315 H 0.91625 0.02573 0.86896 0.0
H1316 H 0.96845 0.0529 0.92302 0.0
H1317 H 0.95566 0.04627 0.88081 0.0
H1318 H 0.9641 0.96661 0.8863 0.0
H1319 H 0.97731 0.97337 0.92866 0.0
C1320 C 0.94201 0.98447 0.81583 0.0
C1321 C 0.92093 -0.0022 0.81252 0.0
C1322 C 0.9541 0.9864 0.83818 0.0
C1323 C 0.94535 0.00189 0.85732 0.0
C1324 C 0.92373 0.01417 0.85428 0.0
C1325 C 0.91168 0.01216 0.83219 0.0
C1326 C 0.96821 0.03406 0.91498 0.0
C1327 C 0.97368 0.01361 0.92902 0.0
C1328 C 0.9608 0.03024 0.89092 0.0
C1329 C 0.95839 0.00589 0.88057 0.0
C1330 C 0.96583 0.98556 0.89389 0.0
C1331 C 0.97347 0.98943 0.91804 0.0
H1332 H 0.73008 0.14925 0.55626 0.0
H1333 H 0.80376 0.16466 0.57554 0.0
H1334 H 0.71805 0.16014 0.59824 0.0
H1335 H 0.79174 0.17532 0.6172 0.0
H1336 H 0.77095 0.1839 0.6923 0.0
H1337 H 0.77308 0.15735 0.65509 0.0
H1338 H 0.71982 0.20223 0.62186 0.0
H1339 H 0.71762 0.2285 0.65913 0.0
C1340 C 0.7437 0.15478 0.56946 0.0
C1341 C 0.76786 0.15641 0.56253 0.0
C1342 C 0.73681 0.16085 0.59346 0.0
C1343 C 0.75399 0.16821 0.61101 0.0
C1344 C 0.77815 0.16918 0.60419 0.0
C1345 C 0.785 0.16347 0.58021 0.0
C1346 C 0.75873 0.18711 0.67756 0.0
C1347 C 0.74415 0.20811 0.67843 0.0
C1348 C 0.76017 0.17218 0.65616 0.0
C1349 C 0.74697 0.1781 0.63548 0.0
C1350 C 0.73019 0.19723 0.6375 0.0
C1351 C 0.72894 0.21228 0.65879 0.0
H1352 H 0.54961 0.02036 0.29296 0.0
H1353 H 0.61499 0.01332 0.33348 0.0
H1354 H 0.52786 0.02745 0.3313 0.0
H1355 H 0.59344 0.02094 0.37134 0.0
H1356 H 0.55246 0.04028 0.43694 0.0
H1357 H 0.56574 0.05225 0.39639 0.0
H1358 H 0.52382 0.9912 0.36384 0.0
H1359 H 0.51109 0.97891 0.40452 0.0
C1360 C 0.55946 0.02105 0.30993 0.0
C1361 C 0.58395 0.01581 0.31027 0.0
C1362 C 0.54701 0.02516 0.33177 0.0
C1363 C 0.55902 0.02467 0.35411 0.0
C1364 C 0.58383 0.02167 0.35429 0.0
C1365 C 0.59616 0.01709 0.33257 0.0
C1366 C 0.54553 0.03002 0.42097 0.0
C1367 C 0.531 0.00867 0.42346 0.0
C1368 C 0.55303 0.03688 0.39791 0.0
C1369 C 0.54579 0.0226 0.37716 0.0
C1370 C 0.5294 0.00264 0.37961 0.0
C1371 C 0.52225 0.99549 0.40275 0.0
H1372 H 0.70957 0.82275 0.06924 0.0
H1373 H 0.78561 0.82656 0.08227 0.0
H1374 H 0.70334 0.80909 0.1114 0.0
H1375 H 0.7793 0.81417 0.12357 0.0
H1376 H 0.77068 0.8153 0.19756 0.0
H1377 H 0.7552 0.83622 0.16233 0.0
H1378 H 0.7236 0.76648 0.1352 0.0
H1379 H 0.73855 0.74576 0.17092 0.0
C1380 C 0.72484 0.82054 0.08095 0.0
C1381 C 0.74809 0.82533 0.07229 0.0
C1382 C 0.72125 0.81305 0.10501 0.0
C1383 C 0.74082 0.81131 0.12077 0.0
C1384 C 0.76387 0.81592 0.11194 0.0
C1385 C 0.76749 0.82257 0.08804 0.0
C1386 C 0.75903 0.8049 0.18493 0.0
C1387 C 0.75561 0.77909 0.18683 0.0
C1388 C 0.75019 0.81682 0.16477 0.0
C1389 C 0.73858 0.80279 0.14594 0.0
C1390 C 0.73235 0.77769 0.14955 0.0
C1391 C 0.741 0.76583 0.1699 0.0
H1392 H 0.96162 0.00929 0.68398 0.0
H1393 H 0.8878 0.00281 0.66201 0.0
H1394 H 0.9738 0.01027 0.64164 0.0
H1395 H 0.89993 0.00475 0.61923 0.0
H1396 H 0.94008 0.96093 0.55497 0.0
H1397 H 0.91914 0.97636 0.59123 0.0
H1398 H 0.97532 0.03171 0.60449 0.0
H1399 H -0.00328 0.01499 0.56875 0.0
C1400 C 0.94796 0.00842 0.67004 0.0
C1401 C 0.92382 0.00559 0.67624 0.0
C1402 C 0.9549 0.0094 0.6457 0.0
C1403 C 0.93783 0.00787 0.62693 0.0
C1404 C 0.91354 0.00581 0.63322 0.0
C1405 C 0.9066 0.00453 0.65766 0.0
C1406 C 0.94734 0.9771 0.56512 0.0
C1407 C 0.96983 0.98698 0.55923 0.0
C1408 C 0.93534 0.98604 0.5859 0.0
C1409 C 0.9459 0.00481 0.6012 0.0
C1410 C 0.967 0.0168 0.59339 0.0
C1411 C 0.97906 0.00767 0.57267 0.0
H1412 H 0.73086 0.17927 0.43917 0.0
H1413 H 0.80266 0.20959 0.44639 0.0
H1414 H 0.72628 0.20122 0.40129 0.0
H1415 H 0.79773 0.2315 0.40872 0.0
H1416 H 0.77402 0.19086 0.3232 0.0
H1417 H 0.76786 0.18414 0.36625 0.0
H1418 H 0.75786 0.26321 0.37984 0.0
H1419 H 0.76332 0.27013 0.33578 0.0
C1420 C 0.74531 0.19133 0.43328 0.0
C1421 C 0.76733 0.19217 0.44558 0.0
C1422 C 0.74256 0.20404 0.4117 0.0
C1423 C 0.76162 0.21808 0.40232 0.0
C1424 C 0.78266 0.22115 0.41591 0.0
C1425 C 0.78549 0.20837 0.4374 0.0
C1426 C 0.77043 0.20692 0.33524 0.0
C1427 C 0.7696 0.23112 0.32623 0.0
C1428 C 0.76665 0.20297 0.35981 0.0
C1429 C 0.76231 0.22313 0.37613 0.0
C1430 C 0.76104 0.24742 0.36737 0.0
C1431 C 0.76426 0.25135 0.34236 0.0
H1432 H 0.62303 -0.00164 0.16639 0.0
H1433 H 0.54854 0.00468 0.18605 0.0
H1434 H 0.61451 0.015 0.12645 0.0
H1435 H 0.54025 0.02128 0.14651 0.0
H1436 H 0.52631 0.06055 0.0848 0.0
H1437 H 0.55087 0.05999 0.12139 0.0
H1438 H 0.58803 0.99599 0.09094 0.0
H1439 H 0.56324 0.99637 0.05475 0.0
C1440 C 0.6049 0.00332 0.16221 0.0
C1441 C 0.5864 0.00016 0.17927 0.0
C1442 C 0.60015 0.01304 0.13952 0.0
C1443 C 0.57693 0.02002 0.13378 0.0
C1444 C 0.55849 0.01679 0.15082 0.0
C1445 C 0.56315 0.00686 0.1733 0.0
C1446 C 0.54069 0.04733 0.0854 0.0
C1447 C 0.54286 0.02832 0.06721 0.0
C1448 C 0.55465 0.04695 0.1063 0.0
C1449 C 0.57074 0.02749 0.10911 0.0
C1450 C 0.57569 0.01115 0.08916 0.0
C1451 C 0.56166 0.01151 0.06826 0.0
H1452 H 0.78863 0.83102 0.93501 0.0
H1453 H 0.71528 0.85255 0.94538 0.0
H1454 H 0.78078 0.82089 0.89226 0.0
H1455 H 0.70734 0.84206 0.90215 0.0
H1456 H 0.7054 0.77729 0.83814 0.0
H1457 H 0.70648 0.80173 0.87658 0.0
H1458 H 0.77028 0.84014 0.85278 0.0
H1459 H 0.76905 0.81558 0.81413 0.0
C1460 C 0.77075 0.83353 0.9282 0.0
C1461 C 0.75252 0.84236 0.94376 0.0
C1462 C 0.76636 0.8281 0.90352 0.0
C1463 C 0.74353 0.83104 0.89367 0.0
C1464 C 0.72517 0.83978 0.90917 0.0
C1465 C 0.72968 0.84564 0.93393 0.0
C1466 C 0.71892 0.7919 0.84063 0.0
C1467 C 0.73718 0.79453 0.82325 0.0
C1468 C 0.71962 0.80583 0.86273 0.0
C1469 C 0.73879 0.82241 0.86797 0.0
C1470 C 0.7555 0.82716 0.84938 0.0
C1471 C 0.75462 0.81339 0.8271 0.0
H1472 H 0.82669 0.87905 0.99271 0.0
H1473 H 0.80214 0.95375 0.00958 0.0
H1474 H 0.86808 0.89397 -0.004 0.0
H1475 H 0.84347 0.96878 0.0126 0.0
H1476 H 0.91286 0.98288 0.04847 0.0
H1477 H 0.8745 0.96087 0.04429 0.0
H1478 H 0.89927 0.92319 0.97815 0.0
H1479 H 0.938 0.94492 0.98277 0.0
C1480 C 0.83018 0.89872 -0.00324 0.0
C1481 C 0.81132 0.91521 0.00133 0.0
C1482 C 0.85384 0.90724 -0.00142 0.0
C1483 C 0.85893 0.93233 0.00532 0.0
C1484 C 0.84 0.94916 0.00804 0.0
C1485 C 0.81638 0.94069 0.00593 0.0
C1486 C 0.91041 0.96906 0.03366 0.0
C1487 C 0.92823 0.96551 0.01596 0.0
C1488 C 0.88838 0.95683 0.031 0.0
C1489 C 0.8837 0.94107 0.01042 0.0
C1490 C 0.90238 0.93544 0.99407 0.0
C1491 C 0.9246 0.9476 -0.00314 0.0
H1492 H 0.30007 0.54377 0.9877 0.0
H1493 H 0.33614 0.61015 0.01735 0.0
H1494 H 0.33749 0.5208 0.98933 0.0
H1495 H 0.37322 0.58698 0.01974 0.0
H1496 H 0.43333 0.5313 0.02998 0.0
H1497 H 0.39154 0.54161 0.03837 0.0
H1498 H 0.37722 0.53911 0.96107 0.0
H1499 H 0.41918 0.52981 0.95267 0.0
C1500 C 0.31582 0.55315 0.9953 0.0
C1501 C 0.31555 0.57876 0.00197 0.0
C1502 C 0.33708 0.54004 -0.00375 0.0
C1503 C 0.35801 0.55225 0.00463 0.0
C1504 C 0.35717 0.57723 0.01336 0.0
C1505 C 0.33611 0.59051 0.01176 0.0
C1506 C 0.42101 0.53223 0.01488 0.0
C1507 C 0.42919 0.5298 0.99072 0.0
C1508 C 0.39725 0.53812 0.01968 0.0
C1509 C 0.38137 0.54088 0.00033 0.0
C1510 C 0.38921 0.53669 0.97622 0.0
C1511 C 0.4131 0.53155 0.97141 0.0
H1512 H 0.18651 0.55598 0.74164 0.0
H1513 H 0.12875 0.58987 0.78214 0.0
H1514 H 0.20076 0.59711 0.72999 0.0
H1515 H 0.14202 0.63129 0.76952 0.0
H1516 H 0.19993 0.6954 0.77646 0.0
H1517 H 0.1735 0.65924 0.77943 0.0
H1518 H 0.19549 0.63286 0.70738 0.0
H1519 H 0.22287 0.66875 0.70519 0.0
C1520 C 0.1768 0.57241 0.74778 0.0
C1521 C 0.15697 0.57018 0.76307 0.0
C1522 C 0.18463 0.59594 0.7408 0.0
C1523 C 0.17246 0.61764 0.74869 0.0
C1524 C 0.152 0.61507 0.76338 0.0
C1525 C 0.14442 0.59149 0.77065 0.0
C1526 C 0.19818 0.68249 0.76083 0.0
C1527 C 0.21328 0.68468 0.74064 0.0
C1528 C 0.18311 0.66161 0.76252 0.0
C1529 C 0.18285 0.64271 0.74392 0.0
C1530 C 0.19586 0.64665 0.72238 0.0
C1531 C 0.21127 0.66731 0.72093 0.0
H1532 H 0.18631 0.46348 0.49123 0.0
H1533 H 0.16538 0.39681 0.52847 0.0
H1534 H 0.14506 0.47674 0.49154 0.0
H1535 H 0.12397 0.41034 0.52903 0.0
H1536 H 0.05534 0.42929 0.48111 0.0
H1537 H 0.09336 0.41496 0.49656 0.0
H1538 H 0.11244 0.49103 0.51908 0.0
H1539 H 0.07451 0.50519 0.50322 0.0
C1540 C 0.17295 0.45179 0.49972 0.0
C1541 C 0.17912 0.42907 0.50971 0.0
C1542 C 0.14933 0.45951 0.50016 0.0
C1543 C 0.13133 0.44474 0.51065 0.0
C1544 C 0.13748 0.4221 0.52087 0.0
C1545 C 0.16117 0.41435 0.52043 0.0
C1546 C 0.06726 0.44265 0.49045 0.0
C1547 C 0.06219 0.46821 0.49124 0.0
C1548 C 0.08902 0.43452 0.49924 0.0
C1549 C 0.10608 0.452 0.50848 0.0
C1550 C 0.09979 0.47725 0.5116 0.0
C1551 C 0.07803 0.48532 0.50283 0.0
H1552 H 0.83461 0.93623 0.80738 0.0
H1553 H 0.84019 0.93676 0.72884 0.0
H1554 H 0.81519 0.89471 0.80418 0.0
H1555 H 0.82034 0.89555 0.72583 0.0
H1556 H 0.75123 0.84681 0.73643 0.0
H1557 H 0.77074 0.88578 0.75088 0.0
H1558 H 0.83226 0.84474 0.77215 0.0
H1559 H 0.81261 0.80538 0.75738 0.0
C1560 C 0.83166 0.92753 0.78946 0.0
C1561 C 0.83879 0.93986 0.76831 0.0
C1562 C 0.82074 0.90374 0.78772 0.0
C1563 C 0.81646 0.89209 0.76481 0.0
C1564 C 0.82367 0.90424 0.74371 0.0
C1565 C 0.83495 0.92778 0.74543 0.0
C1566 C 0.76845 0.84597 0.74525 0.0
C1567 C 0.78038 0.8232 0.74603 0.0
C1568 C 0.77965 0.86825 0.75331 0.0
C1569 C 0.80298 0.86814 0.76232 0.0
C1570 C 0.81417 0.84514 0.76531 0.0
C1571 C 0.80289 0.82268 0.75713 0.0
H1572 H 0.67785 0.12291 0.49871 0.0
H1573 H 0.6958 0.0447 0.4999 0.0
H1574 H 0.63728 0.11258 0.51231 0.0
H1575 H 0.65571 0.03457 0.51327 0.0
H1576 H 0.59026 0.01728 0.54697 0.0
H1577 H 0.62808 0.04064 0.54847 0.0
H1578 H 0.60286 0.08811 0.49249 0.0
H1579 H 0.56488 0.06508 0.49155 0.0
C1580 C 0.67317 0.10358 0.50191 0.0
C1581 C 0.68996 0.08458 0.49809 0.0
C1582 C 0.65004 0.09774 0.50981 0.0
C1583 C 0.64349 0.07288 0.51427 0.0
C1584 C 0.6604 0.05402 0.51064 0.0
C1585 C 0.68332 0.05978 0.50261 0.0
C1586 C 0.59243 0.03356 0.53597 0.0
C1587 C 0.57491 0.03943 0.51908 0.0
C1588 C 0.61407 0.04678 0.53666 0.0
C1589 C 0.61859 0.06565 0.52007 0.0
C1590 C 0.59986 0.07364 0.50548 0.0
C1591 C 0.57805 0.06057 0.50501 0.0
H1592 H 0.17095 0.4393 0.72323 0.0
H1593 H 0.21094 0.45953 0.7886 0.0
H1594 H 0.191 0.39936 0.7203 0.0
H1595 H 0.23129 0.41951 0.78515 0.0
H1596 H 0.26166 0.33797 0.75938 0.0
H1597 H 0.25524 0.38242 0.75176 0.0
H1598 H 0.17962 0.37118 0.7625 0.0
H1599 H 0.18582 0.32748 0.77069 0.0
C1600 C 0.18476 0.4358 0.73636 0.0
C1601 C 0.18876 0.45222 0.75667 0.0
C1602 C 0.19627 0.41292 0.73457 0.0
C1603 C 0.2123 0.40642 0.75273 0.0
C1604 C 0.21892 0.42424 0.77099 0.0
C1605 C 0.20715 0.44704 0.77302 0.0
C1606 C 0.24371 0.34512 0.7602 0.0
C1607 C 0.22425 0.32935 0.76588 0.0
C1608 C 0.2401 0.37037 0.75573 0.0
C1609 C 0.21695 0.37984 0.7562 0.0
C1610 C 0.19759 0.36408 0.7617 0.0
C1611 C 0.20121 0.33916 0.76668 0.0
H1612 H 0.29524 0.55609 0.26072 0.0
H1613 H 0.35614 0.57543 0.21648 0.0
H1614 H 0.27729 0.5959 0.25228 0.0
H1615 H 0.33839 0.6158 0.2086 0.0
H1616 H 0.31788 0.68755 0.2643 0.0
H1617 H 0.33351 0.64937 0.24477 0.0
H1618 H 0.26245 0.62764 0.22116 0.0
H1619 H 0.24698 0.66603 0.24056 0.0
C1620 C 0.30436 0.56849 0.24847 0.0
C1621 C 0.32714 0.56281 0.23948 0.0
C1622 C 0.29405 0.59125 0.24349 0.0
C1623 C 0.30654 0.60898 0.22987 0.0
C1624 C 0.3284 0.60242 0.21909 0.0
C1625 C 0.33849 0.57931 0.22358 0.0
C1626 C 0.30591 0.67524 0.25375 0.0
C1627 C 0.28132 0.67939 0.25391 0.0
C1628 C 0.3148 0.65343 0.24251 0.0
C1629 C 0.29906 0.63537 0.23185 0.0
C1630 C 0.27488 0.64119 0.22941 0.0
C1631 C 0.26606 0.66311 0.24045 0.0
H1632 H 0.52804 0.70063 0.57859 0.0
H1633 H 0.46215 0.67053 0.60686 0.0
H1634 H 0.53852 0.6586 0.56227 0.0
H1635 H 0.47283 0.62882 0.59159 0.0
H1636 H 0.49213 0.55553 0.57057 0.0
H1637 H 0.50363 0.59351 0.5943 0.0
H1638 H 0.51602 0.63187 0.52761 0.0
H1639 H 0.50434 0.59396 0.50406 0.0
C1640 C 0.51612 0.68491 0.58176 0.0
C1641 C 0.49417 0.68869 0.59368 0.0
C1642 C 0.52214 0.66095 0.57255 0.0
C1643 C 0.50664 0.64036 0.5759 0.0
C1644 C 0.48536 0.64416 0.58907 0.0
C1645 C 0.47907 0.66807 0.59756 0.0
C1646 C 0.49874 0.57162 0.56105 0.0
C1647 C 0.49724 0.57198 0.53557 0.0
C1648 C 0.50512 0.59344 0.57461 0.0
C1649 C 0.51008 0.61583 0.56278 0.0
C1650 C 0.51223 0.61496 0.53724 0.0
C1651 C 0.50564 0.5932 0.52372 0.0
H1652 H 0.57765 0.223 0.84339 0.0
H1653 H 0.55995 0.28338 0.797 0.0
H1654 H 0.61591 0.21894 0.82304 0.0
H1655 H 0.59841 0.27892 0.77615 0.0
H1656 H 0.68352 0.27742 0.77078 0.0
H1657 H 0.64213 0.28416 0.78347 0.0
H1658 H 0.62991 0.20413 0.78303 0.0
H1659 H 0.67132 0.19755 0.77132 0.0
C1660 C 0.58189 0.23536 0.82876 0.0
C1661 C 0.56565 0.2533 0.8216 0.0
C1662 C 0.60375 0.23289 0.81694 0.0
C1663 C 0.6099 0.24819 0.79756 0.0
C1664 C 0.59406 0.26677 0.7909 0.0
C1665 C 0.57208 0.2693 0.80283 0.0
C1666 C 0.67167 0.26136 0.77261 0.0
C1667 C 0.68048 0.23698 0.7704 0.0
C1668 C 0.64804 0.26519 0.77995 0.0
C1669 C 0.63303 0.24465 0.78491 0.0
C1670 C 0.6413 0.22031 0.78007 0.0
C1671 C 0.66488 0.21651 0.77312 0.0
H1672 H 0.95759 0.31165 0.05073 0.0
H1673 H 0.02699 0.3222 0.08422 0.0
H1674 H 0.96064 0.35326 0.03464 0.0
H1675 H 0.03028 0.36352 0.0674 0.0
H1676 H 0.02484 0.44335 0.05611 0.0
H1677 H 0.01241 0.40436 0.07455 0.0
H1678 H 0.98204 0.37801 0.00569 0.0
H1679 H 0.994 0.41729 0.9877 0.0
C1680 C 0.97377 0.32257 0.05422 0.0
C1681 C 0.99197 0.31359 0.06904 0.0
C1682 C 0.97541 0.34653 0.04508 0.0
C1683 C -0.00464 0.36199 0.05035 0.0
C1684 C 0.01426 0.35239 0.06374 0.0
C1685 C 0.0126 0.32847 0.07298 0.0
C1686 C 0.01433 0.42972 0.04541 0.0
C1687 C 0.01014 0.43319 0.02065 0.0
C1688 C 0.00769 0.4072 0.05575 0.0
C1689 C -0.00296 0.38775 0.0413 0.0
C1690 C 0.99036 0.39251 0.01727 0.0
C1691 C -0.00304 0.4151 0.007 0.0
H1692 H 0.92338 0.77084 0.36961 0.0
H1693 H 0.94641 0.76497 0.29448 0.0
H1694 H 0.88335 0.78131 0.35652 0.0
H1695 H 0.90647 0.77633 0.28152 0.0
H1696 H 0.83325 0.72737 0.28728 0.0
H1697 H 0.87061 0.73544 0.30912 0.0
H1698 H 0.85896 0.8149 0.30836 0.0
H1699 H 0.82099 0.80672 0.28642 0.0
C1700 C 0.92 0.77218 0.35037 0.0
C1701 C 0.93748 0.76576 0.33294 0.0
C1702 C 0.8973 0.77882 0.34299 0.0
C1703 C 0.89209 0.77943 0.31813 0.0
C1704 C 0.91037 0.77613 0.30084 0.0
C1705 C 0.93306 0.76942 0.30823 0.0
C1706 C 0.8382 0.74648 0.29267 0.0
C1707 C 0.82448 0.76646 0.28547 0.0
C1708 C 0.85951 0.75109 0.30497 0.0
C1709 C 0.86742 0.77572 0.31003 0.0
C1710 C 0.85295 0.7958 0.30449 0.0
C1711 C 0.83136 0.79114 0.2922 0.0
H1712 H 0.50594 0.30607 0.94187 0.0
H1713 H 0.49878 0.32576 0.86678 0.0
H1714 H 0.50586 0.35029 0.95459 0.0
H1715 H 0.49804 0.37034 0.87965 0.0
H1716 H 0.51731 0.4467 0.93691 0.0
H1717 H 0.52373 0.40857 0.91151 0.0
H1718 H 0.46246 0.37372 0.94484 0.0
H1719 H 0.45629 0.41136 0.97035 0.0
C1720 C 0.50526 0.32 0.92808 0.0
C1721 C 0.50213 0.31285 0.90351 0.0
C1722 C 0.50508 0.34516 0.9353 0.0
C1723 C 0.5013 0.36336 0.91805 0.0
C1724 C 0.50085 0.35646 0.89315 0.0
C1725 C 0.50138 0.33112 0.88585 0.0
C1726 C 0.50452 0.43133 0.93781 0.0
C1727 C 0.48649 0.43163 0.9557 0.0
C1728 C 0.50834 0.40954 0.92348 0.0
C1729 C 0.49394 0.38829 0.92691 0.0
C1730 C 0.47398 0.38992 0.94232 0.0
C1731 C 0.47032 0.41144 0.95672 0.0
H1732 H 0.9383 0.29707 0.17983 0.0
H1733 H 0.92519 0.21962 0.15861 0.0
H1734 H 0.89673 0.3012 0.19281 0.0
H1735 H 0.88372 0.22325 0.17218 0.0
H1736 H 0.80975 0.23228 0.18369 0.0
H1737 H 0.84631 0.24275 0.16184 0.0
H1738 H 0.87098 0.28671 0.22492 0.0
H1739 H 0.83411 0.27675 0.24621 0.0
C1740 C 0.9265 0.28079 0.17858 0.0
C1741 C 0.93477 0.25785 0.16899 0.0
C1742 C 0.90274 0.28321 0.1857 0.0
C1743 C 0.88683 0.26271 0.18317 0.0
C1744 C 0.89537 0.23961 0.17379 0.0
C1745 C 0.91916 0.23725 0.16659 0.0
C1746 C 0.82233 0.24556 0.19216 0.0
C1747 C 0.81946 0.25354 0.2166 0.0
C1748 C 0.84348 0.2511 0.17991 0.0
C1749 C 0.86195 0.26452 0.19214 0.0
C1750 C 0.85724 0.27602 0.2151 0.0
C1751 C 0.83598 0.27058 0.22726 0.0
H1752 H 0.96133 0.68409 0.44276 0.0
H1753 H 0.03435 0.69507 0.41934 0.0
H1754 H 0.9728 0.6481 0.46487 0.0
H1755 H 0.04611 0.6593 0.44253 0.0
H1756 H 0.0386 0.57197 0.43547 0.0
H1757 H 0.03768 0.61659 0.43019 0.0
H1758 H 0.99364 0.62562 0.49466 0.0
H1759 H 0.99394 0.58057 0.49959 0.0
C1760 C 0.98003 0.67933 0.44301 0.0
C1761 C -0.00318 0.69184 0.4286 0.0
C1762 C 0.98667 0.65876 0.45597 0.0
C1763 C 0.0103 0.65048 0.45499 0.0
C1764 C 0.02764 0.66488 0.44304 0.0
C1765 C 0.02092 0.68531 0.42976 0.0
C1766 C 0.02887 0.58343 0.44868 0.0
C1767 C 0.01573 0.57261 0.46749 0.0
C1768 C 0.0287 0.60916 0.44591 0.0
C1769 C 0.0154 0.62467 0.4619 0.0
C1770 C 0.00376 0.61409 0.48184 0.0
C1771 C 0.00387 0.58828 0.48458 0.0
H1772 H 0.55518 0.76581 0.71634 0.0
H1773 H 0.57917 0.75186 0.64219 0.0
H1774 H 0.59624 0.76294 0.73077 0.0
H1775 H 0.61997 0.74857 0.65669 0.0
H1776 H 0.68814 0.78536 0.68506 0.0
H1777 H 0.64665 0.78223 0.67398 0.0
H1778 H 0.63269 0.73435 0.73409 0.0
H1779 H 0.67513 0.73738 0.74555 0.0
C1780 C 0.56916 0.76188 0.70315 0.0
C1781 C 0.56402 0.75957 0.67805 0.0
C1782 C 0.59261 0.76001 0.71148 0.0
C1783 C 0.6113 0.75581 0.69484 0.0
C1784 C 0.60594 0.75227 0.66989 0.0
C1785 C 0.58259 0.75421 0.66158 0.0
C1786 C 0.67645 0.77403 0.69606 0.0
C1787 C 0.68515 0.76139 0.71613 0.0
C1788 C 0.65258 0.77215 0.68953 0.0
C1789 C 0.63653 0.75765 0.70283 0.0
C1790 C 0.6448 0.74557 0.72344 0.0
C1791 C 0.66901 0.74735 0.73001 0.0
H1792 H 0.54871 0.46886 0.70393 0.0
H1793 H 0.61243 0.50446 0.676 0.0
H1794 H 0.52888 0.47386 0.66494 0.0
H1795 H 0.59263 0.50924 0.63701 0.0
H1796 H 0.54632 0.53286 0.57619 0.0
H1797 H 0.55936 0.53234 0.61878 0.0
H1798 H 0.53346 0.45598 0.6226 0.0
H1799 H 0.52035 0.45678 0.58012 0.0
C1800 C 0.55851 0.47771 0.68947 0.0
C1801 C 0.58219 0.48618 0.69301 0.0
C1802 C 0.54712 0.48057 0.66717 0.0
C1803 C 0.55914 0.4921 0.64802 0.0
C1804 C 0.58277 0.50066 0.6516 0.0
C1805 C 0.59421 0.49768 0.67383 0.0
C1806 C 0.54288 0.5163 0.5865 0.0
C1807 C 0.53231 0.4949 0.57527 0.0
C1808 C 0.55049 0.51588 0.61068 0.0
C1809 C 0.5477 0.494 0.62388 0.0
C1810 C 0.53572 0.47313 0.61295 0.0
C1811 C 0.5282 0.47355 0.58873 0.0
H1812 H 0.74133 0.31855 0.94725 0.0
H1813 H 0.79702 0.36995 0.92609 0.0
H1814 H 0.7366 0.30392 0.90471 0.0
H1815 H 0.79193 0.35606 0.88328 0.0
H1816 H 0.80033 0.29036 0.82324 0.0
H1817 H 0.80154 0.31731 0.86041 0.0
H1818 H 0.7245 0.31453 0.86399 0.0
H1819 H 0.72355 0.28733 0.82719 0.0
C1820 C 0.75212 0.32706 0.93329 0.0
C1821 C 0.76956 0.34515 0.93963 0.0
C1822 C 0.74937 0.31888 0.90895 0.0
C1823 C 0.76393 0.32885 0.89058 0.0
C1824 C 0.78068 0.34782 0.89701 0.0
C1825 C 0.78354 0.3558 0.92139 0.0
C1826 C 0.78374 0.29631 0.83161 0.0
C1827 C 0.76188 0.28691 0.82264 0.0
C1828 C 0.78435 0.31169 0.85286 0.0
C1829 C 0.76309 0.31763 0.86541 0.0
C1830 C 0.74117 0.30988 0.85504 0.0
C1831 C 0.7406 0.29454 0.8339 0.0
H1832 H 0.95286 0.46196 0.19766 0.0
H1833 H 0.90156 0.51535 0.17423 0.0
H1834 H 0.97503 0.4665 0.15948 0.0
H1835 H 0.92359 0.51969 0.13635 0.0
H1836 H 0.98179 0.55046 0.09193 0.0
H1837 H 0.96536 0.5398 0.13135 0.0
H1838 H 0.97064 0.46119 0.11144 0.0
H1839 H 0.98725 0.47189 0.07171 0.0
C1840 C 0.94606 0.47425 0.1842 0.0
C1841 C 0.92577 0.48873 0.18913 0.0
C1842 C 0.95878 0.47685 0.16244 0.0
C1843 C 0.95136 0.49399 0.14545 0.0
C1844 C 0.93005 0.5069 0.14956 0.0
C1845 C 0.91736 0.50429 0.17117 0.0
C1846 C 0.98013 0.5309 0.09623 0.0
C1847 C 0.98541 0.51198 0.07871 0.0
C1848 C 0.97056 0.52482 0.11867 0.0
C1849 C 0.96607 0.49972 0.12398 0.0
C1850 C 0.97375 0.48069 0.10759 0.0
C1851 C 0.98342 0.48681 0.08499 0.0
H1852 H 0.73054 0.68202 0.44185 0.0
H1853 H 0.80611 0.69852 0.43632 0.0
H1854 H 0.72486 0.69709 0.40103 0.0
H1855 H 0.80045 0.71282 0.39524 0.0
H1856 H 0.77032 0.75898 0.33023 0.0
H1857 H 0.78287 0.74405 0.36975 0.0
H1858 H 0.73453 0.68054 0.36043 0.0
H1859 H 0.72169 0.69597 0.32149 0.0
C1860 C 0.74588 0.68922 0.43213 0.0
C1861 C 0.76879 0.68872 0.44234 0.0
C1862 C 0.74271 0.69748 0.40855 0.0
C1863 C 0.76236 0.70531 0.39454 0.0
C1864 C 0.78499 0.70669 0.40542 0.0
C1865 C 0.78815 0.6986 0.4291 0.0
C1866 C 0.76331 0.74122 0.33621 0.0
C1867 C 0.74517 0.72849 0.32295 0.0
C1868 C 0.77023 0.73282 0.35896 0.0
C1869 C 0.75899 0.71162 0.36863 0.0
C1870 C 0.74289 0.69742 0.35389 0.0
C1871 C 0.73592 0.7059 0.33135 0.0
H1872 H 0.56272 0.5205 0.81023 0.0
H1873 H 0.62504 0.48836 0.84199 0.0
H1874 H 0.54136 0.51609 0.84862 0.0
H1875 H 0.60348 0.48325 0.87998 0.0
H1876 H 0.56564 0.52185 0.94859 0.0
H1877 H 0.58874 0.51075 0.9123 0.0
H1878 H 0.52414 0.48503 0.87561 0.0
H1879 H 0.50113 0.49662 0.91213 0.0
C1880 C 0.5719 0.51268 0.82543 0.0
C1881 C 0.59564 0.50513 0.82319 0.0
C1882 C 0.55953 0.50964 0.84726 0.0
C1883 C 0.57065 0.49889 0.86719 0.0
C1884 C 0.59446 0.49159 0.86496 0.0
C1885 C 0.60685 0.49476 0.84324 0.0
C1886 C 0.55668 0.51244 0.93324 0.0
C1887 C 0.53182 0.50994 0.93293 0.0
C1888 C 0.56982 0.50627 0.91234 0.0
C1889 C 0.5581 0.49778 0.89087 0.0
C1890 C 0.53352 0.49219 0.89173 0.0
C1891 C 0.52041 0.4984 0.91267 0.0
H1892 H 0.72412 0.34098 0.06968 0.0
H1893 H 0.77891 0.28798 0.05029 0.0
H1894 H 0.71455 0.31782 0.10563 0.0
H1895 H 0.76878 0.26422 0.086 0.0
H1896 H 0.77348 0.26358 0.17149 0.0
H1897 H 0.7765 0.2724 0.12839 0.0
H1898 H 0.70017 0.28197 0.12551 0.0
H1899 H 0.69738 0.27398 0.16882 0.0
C1900 C 0.73361 0.32391 0.07263 0.0
C1901 C 0.75261 0.31664 0.05735 0.0
C1902 C 0.72804 0.31048 0.09329 0.0
C1903 C 0.74118 0.28931 0.09902 0.0
C1904 C 0.75871 0.28077 0.08249 0.0
C1905 C 0.76441 0.29432 0.06192 0.0
C1906 C 0.75728 0.2668 0.16147 0.0
C1907 C 0.73528 0.2685 0.17361 0.0
C1908 C 0.75896 0.27184 0.13668 0.0
C1909 C 0.73861 0.27842 0.1235 0.0
C1910 C 0.71629 0.27765 0.1352 0.0
C1911 C 0.71466 0.2729 0.16 0.0
H1912 H 0.90847 0.4634 0.31445 0.0
H1913 H 0.92995 0.53852 0.3371 0.0
H1914 H 0.91159 0.4504 0.35674 0.0
H1915 H 0.93401 0.52571 0.37896 0.0
H1916 H 0.93493 0.50932 0.45161 0.0
H1917 H 0.91155 0.51211 0.41444 0.0
H1918 H 0.9441 0.44477 0.38503 0.0
H1919 H 0.96679 0.44175 0.42233 0.0
C1920 C 0.91439 0.47688 0.32852 0.0
C1921 C 0.91958 0.5017 0.32285 0.0
C1922 C 0.9158 0.46962 0.35264 0.0
C1923 C 0.92249 0.48714 0.37129 0.0
C1924 C 0.92796 0.51193 0.36524 0.0
C1925 C 0.92626 0.51919 0.34126 0.0
C1926 C 0.93582 0.49424 0.43788 0.0
C1927 C 0.95311 0.47578 0.43931 0.0
C1928 C 0.92274 0.49603 0.41642 0.0
C1929 C 0.92701 0.47938 0.39642 0.0
C1930 C 0.94075 0.45816 0.39991 0.0
C1931 C 0.95374 0.45636 0.42135 0.0
H1932 H 0.77447 0.61879 0.57706 0.0
H1933 H 0.76209 0.69515 0.55895 0.0
H1934 H 0.77018 0.63047 0.62074 0.0
H1935 H 0.75679 0.70658 0.6024 0.0
H1936 H 0.72921 0.70957 0.68203 0.0
H1937 H 0.72614 0.68579 0.64303 0.0
H1938 H 0.80178 0.67291 0.64446 0.0
H1939 H 0.80506 0.69789 0.68295 0.0
C1940 C 0.77023 0.6379 0.58246 0.0
C1941 C 0.76864 0.65615 0.56483 0.0
C1942 C 0.76781 0.64453 0.60733 0.0
C1943 C 0.76314 0.66936 0.61478 0.0
C1944 C 0.76026 0.68728 0.59701 0.0
C1945 C 0.76332 0.6808 0.57225 0.0
C1946 C 0.74499 0.70066 0.67455 0.0
C1947 C 0.76735 0.70526 0.68553 0.0
C1948 C 0.74322 0.68724 0.6522 0.0
C1949 C 0.76373 0.67762 0.64085 0.0
C1950 C 0.78572 0.68004 0.65304 0.0
C1951 C 0.7876 0.69415 0.67507 0.0
H1952 H 0.67714 0.62403 0.48009 0.0
H1953 H 0.68656 0.55811 0.52186 0.0
H1954 H 0.63403 0.61558 0.47884 0.0
H1955 H 0.64362 0.55002 0.52078 0.0
H1956 H 0.56503 0.55059 0.53088 0.0
H1957 H 0.60341 0.57266 0.5359 0.0
H1958 H 0.61046 0.57534 0.45772 0.0
H1959 H 0.57252 0.55216 0.45275 0.0
C1960 C 0.67004 0.6079 0.48918 0.0
C1961 C 0.68533 0.59166 0.50097 0.0
C1962 C 0.64539 0.60315 0.48849 0.0
C1963 C 0.63555 0.58231 0.49989 0.0
C1964 C 0.65073 0.56649 0.51223 0.0
C1965 C 0.67534 0.57105 0.51269 0.0
C1966 C 0.57422 0.55703 0.51482 0.0
C1967 C 0.56584 0.54993 0.49142 0.0
C1968 C 0.59629 0.56938 0.5177 0.0
C1969 C 0.60995 0.57541 0.49719 0.0
C1970 C 0.60021 0.57092 0.47381 0.0
C1971 C 0.57846 0.55786 0.47093 0.0
H1972 H 0.17741 0.89495 0.49624 0.0
H1973 H 0.20601 0.96841 0.51674 0.0
H1974 H 0.13808 0.91282 0.49113 0.0
H1975 H 0.16665 0.98615 0.51158 0.0
H1976 H 0.08592 0.98981 0.5394 0.0
H1977 H 0.12827 0.97973 0.53625 0.0
H1978 H 0.11576 0.94397 0.46531 0.0
H1979 H 0.07343 0.95457 0.46842 0.0
C1980 C 0.17536 0.91491 0.49942 0.0
C1981 C 0.19473 0.93022 0.50715 0.0
C1982 C 0.15292 0.92516 0.49628 0.0
C1983 C 0.14945 0.95085 0.50092 0.0
C1984 C 0.16891 0.96627 0.50801 0.0
C1985 C 0.19137 0.95607 0.51101 0.0
C1986 C 0.09251 0.98055 0.52286 0.0
C1987 C 0.07683 0.97303 0.50408 0.0
C1988 C 0.11662 0.97479 0.52102 0.0
C1989 C 0.12514 0.96093 0.50061 0.0
C1990 C 0.10954 0.95455 0.48126 0.0
C1991 C 0.0855 0.96072 0.48294 0.0
H1992 H 0.38881 0.92871 0.76828 0.0
H1993 H 0.31565 0.95183 0.76424 0.0
H1994 H 0.37577 0.88466 0.76117 0.0
H1995 H 0.30283 0.90835 0.7563 0.0
H1996 H 0.29147 0.83553 0.71645 0.0
H1997 H 0.31775 0.87244 0.7179 0.0
H1998 H 0.33777 0.85686 0.79151 0.0
H1999 H 0.31117 0.81962 0.79008 0.0
C2000 C 0.37007 0.92433 0.76537 0.0
C2001 C 0.35313 0.94339 0.76664 0.0
C2002 C 0.36267 0.89931 0.76148 0.0
C2003 C 0.33838 0.89338 0.75818 0.0
C2004 C 0.32167 0.91261 0.75873 0.0
C2005 C 0.32895 0.93737 0.76323 0.0
C2006 C 0.30226 0.83942 0.73257 0.0
C2007 C 0.2993 0.82503 0.75323 0.0
C2008 C 0.31728 0.86043 0.73335 0.0
C2009 C 0.32957 0.86737 0.75481 0.0
C2010 C 0.32857 0.85158 0.77469 0.0
C2011 C 0.31341 0.8304 0.77391 0.0
H2012 H 0.33206 0.10168 0.02854 0.0
H2013 H 0.31469 0.0524 0.96686 0.0
H2014 H 0.37259 0.08589 0.0286 0.0
H2015 H 0.35569 0.03724 0.96589 0.0
H2016 H 0.41987 0.99532 0.00112 0.0
H2017 H 0.38204 0.0124 0.98861 0.0
H2018 H 0.40912 0.08715 0.0062 0.0
H2019 H 0.44664 0.06967 0.01948 0.0
C2020 C 0.337 0.08719 0.0152 0.0
C2021 C 0.32039 0.07764 -0.00184 0.0
C2022 C 0.3603 0.07854 0.01479 0.0
C2023 C 0.36757 0.06063 -0.0031 0.0
C2024 C 0.35068 0.05093 0.97996 0.0
C2025 C 0.32721 0.05935 0.98065 0.0
C2026 C 0.41802 0.01546 0.00116 0.0
C2027 C 0.43591 0.03128 0.01121 0.0
C2028 C 0.39631 0.02528 0.99414 0.0
C2029 C 0.39226 0.05108 -0.00272 0.0
C2030 C 0.41144 0.06711 0.00434 0.0
C2031 C 0.43307 0.05722 0.01151 0.0
H2032 H 0.71083 0.55591 0.77057 0.0
H2033 H 0.64243 0.57498 0.74133 0.0
H2034 H 0.72659 0.59733 0.76134 0.0
H2035 H 0.65808 0.61689 0.7328 0.0
H2036 H 0.75233 0.6717 0.74034 0.0
H2037 H 0.73403 0.63142 0.72689 0.0
H2038 H 0.67144 0.64875 0.7698 0.0
H2039 H 0.68997 0.68837 0.78363 0.0
C2040 C 0.69932 0.56881 0.76171 0.0
C2041 C 0.67531 0.5624 0.75702 0.0
C2042 C 0.70841 0.59242 0.75618 0.0
C2043 C 0.69353 0.61031 0.74638 0.0
C2044 C 0.66993 0.60338 0.74025 0.0
C2045 C 0.66099 0.57947 0.7452 0.0
C2046 C 0.73416 0.66741 0.74575 0.0
C2047 C 0.72237 0.68312 0.76276 0.0
C2048 C 0.72379 0.64432 0.73825 0.0
C2049 C 0.70137 0.63696 0.74741 0.0
C2050 C 0.68856 0.65406 0.76219 0.0
C2051 C 0.69911 0.67681 0.77003 0.0
H2052 H 0.84177 0.37832 -0.00355 0.0
H2053 H 0.81334 0.45136 0.9844 0.0
H2054 H 0.8818 0.39412 0.98776 0.0
H2055 H 0.85354 0.46695 0.97567 0.0
H2056 H 0.92617 0.47304 0.02858 0.0
H2057 H 0.89053 0.4466 0.02283 0.0
H2058 H 0.9029 0.44277 0.94513 0.0
H2059 H 0.93935 0.46908 0.951 0.0
C2060 C 0.84389 0.39752 0.99144 0.0
C2061 C 0.82444 0.41373 0.99167 0.0
C2062 C 0.86679 0.40639 0.98611 0.0
C2063 C 0.87045 0.43154 0.98085 0.0
C2064 C 0.85088 0.4473 0.97919 0.0
C2065 C 0.82798 0.43842 0.98445 0.0
C2066 C 0.92163 0.46593 0.01036 0.0
C2067 C 0.93516 0.47295 0.99019 0.0
C2068 C 0.9014 0.45087 0.0071 0.0
C2069 C 0.89425 0.44291 0.9836 0.0
C2070 C 0.90838 0.44876 0.96339 0.0
C2071 C 0.92904 0.46365 0.96672 0.0
H2072 H 0.2942 0.05281 0.77553 0.0
H2073 H 0.34676 0.07059 0.7208 0.0
H2074 H 0.27089 0.08852 0.76429 0.0
H2075 H 0.32405 0.10663 0.7102 0.0
H2076 H 0.28307 0.17213 0.69375 0.0
H2077 H 0.29071 0.12753 0.69548 0.0
H2078 H 0.27832 0.1317 0.77337 0.0
H2079 H 0.26959 0.17591 0.77131 0.0
C2080 C 0.30053 0.06402 0.76073 0.0
C2081 C 0.32263 0.05926 0.74946 0.0
C2082 C 0.28723 0.08458 0.7544 0.0
C2083 C 0.29588 0.10087 0.73681 0.0
C2084 C 0.31673 0.09452 0.7238 0.0
C2085 C 0.3299 0.07383 0.72996 0.0
C2086 C 0.28146 0.16329 0.71112 0.0
C2087 C 0.27612 0.17746 0.73247 0.0
C2088 C 0.2859 0.13779 0.71213 0.0
C2089 C 0.28556 0.12606 0.7346 0.0
C2090 C 0.2785 0.13995 0.75567 0.0
C2091 C 0.27364 0.16539 0.75457 0.0
H2092 H 0.15294 0.91656 0.27883 0.0
H2093 H 0.21796 0.94843 0.25043 0.0
H2094 H 0.17045 0.87516 0.27734 0.0
H2095 H 0.23544 0.90669 0.24769 0.0
H2096 H 0.26812 0.83382 0.25621 0.0
H2097 H 0.25018 0.87297 0.27091 0.0
H2098 H 0.18098 0.84442 0.24727 0.0
H2099 H 0.199 0.8053 0.23349 0.0
C2100 C 0.1709 0.91443 0.27176 0.0
C2101 C 0.18403 0.93526 0.26413 0.0
C2102 C 0.18096 0.89082 0.27103 0.0
C2103 C 0.20434 0.88756 0.26244 0.0
C2104 C 0.21752 0.90861 0.25483 0.0
C2105 C 0.20747 0.93239 0.25589 0.0
C2106 C 0.24892 0.83564 0.25537 0.0
C2107 C 0.23477 0.81678 0.244 0.0
C2108 C 0.23871 0.85814 0.26332 0.0
C2109 C 0.21428 0.8621 0.2596 0.0
C2110 C 0.19984 0.84207 0.25046 0.0
C2111 C 0.21007 0.81956 0.24268 0.0
H2112 H 0.52583 0.31731 0.39663 0.0
H2113 H 0.45448 0.31547 0.42669 0.0
H2114 H 0.53281 0.35828 0.41659 0.0
H2115 H 0.46169 0.35664 0.44674 0.0
H2116 H 0.48665 0.44423 0.46022 0.0
H2117 H 0.47325 0.40536 0.43782 0.0
H2118 H 0.53557 0.36784 0.46277 0.0
H2119 H 0.54857 0.40542 0.48479 0.0
C2120 C 0.51159 0.32561 0.40739 0.0
C2121 C 0.48975 0.31278 0.41033 0.0
C2122 C 0.51556 0.34916 0.41876 0.0
C2123 C 0.4978 0.36061 0.4333 0.0
C2124 C 0.47562 0.34835 0.43553 0.0
C2125 C 0.47166 0.32463 0.42425 0.0
C2126 C 0.4972 0.42753 0.46107 0.0
C2127 C 0.5189 0.42813 0.47391 0.0
C2128 C 0.48961 0.40537 0.44825 0.0
C2129 C 0.50376 0.38379 0.44807 0.0
C2130 C 0.52464 0.38429 0.46197 0.0
C2131 C 0.53203 0.40599 0.47468 0.0
H2132 H 0.45923 0.73033 0.21012 0.0
H2133 H 0.42212 0.76024 0.14901 0.0
H2134 H 0.42031 0.72241 0.22997 0.0
H2135 H 0.38456 0.75148 0.16785 0.0
H2136 H 0.31992 0.72091 0.19068 0.0
H2137 H 0.3613 0.71037 0.1818 0.0
H2138 H 0.38464 0.75818 0.24271 0.0
H2139 H 0.3428 0.76798 0.25219 0.0
C2140 C 0.44294 0.73463 0.20071 0.0
C2141 C 0.44378 0.74536 0.1777 0.0
C2142 C 0.42085 0.73009 0.21201 0.0
C2143 C 0.39962 0.73579 0.20005 0.0
C2144 C 0.40066 0.74616 0.17708 0.0
C2145 C 0.42236 0.75109 0.16619 0.0
C2146 C 0.33392 0.7286 0.2025 0.0
C2147 C 0.32866 0.74586 0.22149 0.0
C2148 C 0.35743 0.72226 0.19772 0.0
C2149 C 0.37599 0.73368 0.21148 0.0
C2150 C 0.37054 0.74902 0.23204 0.0
C2151 C 0.3468 0.75498 0.23716 0.0
H2152 H 0.03933 0.68688 0.9072 0.0
H2153 H 0.96672 0.682 0.93384 0.0
H2154 H 0.04751 0.64621 0.92455 0.0
H2155 H 0.97498 0.6417 0.95049 0.0
H2156 H 0.98263 0.56107 0.94187 0.0
H2157 H 0.9928 0.59779 0.91859 0.0
H2158 H 0.03595 0.62735 0.9783 0.0
H2159 H 0.02566 0.59056 0.00165 0.0
C2160 C 0.02526 0.67744 0.91703 0.0
C2161 C 0.00225 0.68763 0.91885 0.0
C2162 C 0.02997 0.65416 0.92677 0.0
C2163 C 0.01166 0.6408 0.93821 0.0
C2164 C 0.98921 0.65159 0.94129 0.0
C2165 C 0.98458 0.67478 0.93188 0.0
C2166 C -0.00445 0.5746 0.94934 0.0
C2167 C 0.00346 0.57313 0.97342 0.0
C2168 C 0.00129 0.59562 0.93608 0.0
C2169 C 0.0149 0.61537 0.94689 0.0
C2170 C 0.02558 0.61223 0.96961 0.0
C2171 C 0.01978 0.59116 0.98289 0.0
H2172 H 0.07344 0.28551 0.70187 0.0
H2173 H 0.08063 0.23814 0.63657 0.0
H2174 H 0.11393 0.27537 0.71371 0.0
H2175 H 0.12123 0.22785 0.64889 0.0
H2176 H 0.16845 0.20324 0.7286 0.0
H2177 H 0.13276 0.20832 0.70349 0.0
H2178 H 0.16018 0.27976 0.68128 0.0
H2179 H 0.19564 0.27474 0.7061 0.0
C2180 C 0.08371 0.27314 0.68995 0.0
C2181 C 0.07391 0.26266 0.66829 0.0
C2182 C 0.10679 0.26738 0.69674 0.0
C2183 C 0.12035 0.25092 0.68211 0.0
C2184 C 0.11088 0.2406 0.66031 0.0
C2185 C 0.0878 0.24659 0.65332 0.0
C2186 C 0.16725 0.21943 0.71743 0.0
C2187 C 0.18483 0.23842 0.71882 0.0
C2188 C 0.14699 0.22229 0.70311 0.0
C2189 C 0.14409 0.24434 0.69052 0.0
C2190 C 0.16242 0.26245 0.69055 0.0
C2191 C 0.18274 0.25945 0.70455 0.0
H2192 H 0.5206 0.68038 0.12992 0.0
H2193 H 0.481 0.69265 0.06415 0.0
H2194 H 0.53133 0.63847 0.11354 0.0
H2195 H 0.49193 0.65129 0.04794 0.0
H2196 H 0.47971 0.56705 0.0521 0.0
H2197 H 0.47888 0.60511 0.0782 0.0
H2198 H 0.55205 0.62173 0.05933 0.0
H2199 H 0.55265 0.5838 0.03246 0.0
C2200 C 0.51458 0.67427 0.11187 0.0
C2201 C 0.49961 0.68938 0.0984 0.0
C2202 C 0.52071 0.65046 0.1026 0.0
C2203 C 0.51212 0.64189 0.07975 0.0
C2204 C 0.49842 0.65759 0.06578 0.0
C2205 C 0.49212 0.6811 0.07506 0.0
C2206 C 0.49597 0.57813 0.05456 0.0
C2207 C 0.51631 0.57262 0.04063 0.0
C2208 C 0.49547 0.59987 0.06936 0.0
C2209 C 0.51544 0.61604 0.07067 0.0
C2210 C 0.5366 0.60926 0.05866 0.0
C2211 C 0.53695 0.58768 0.04343 0.0
H2212 H 0.07304 0.7462 0.7873 0.0
H2213 H 0.09083 0.74047 0.86338 0.0
H2214 H 0.1151 0.74671 0.77681 0.0
H2215 H 0.13335 0.74044 0.85275 0.0
H2216 H 0.19752 0.78972 0.82004 0.0
H2217 H 0.16094 0.77292 0.83781 0.0
H2218 H 0.15181 0.72278 0.77469 0.0
H2219 H 0.18816 0.74008 0.7569 0.0
C2220 C 0.08598 0.74467 0.80177 0.0
C2221 C 0.07865 0.74355 0.82618 0.0
C2222 C 0.11013 0.74464 0.79573 0.0
C2223 C 0.12763 0.74331 0.81392 0.0
C2224 C 0.1203 0.74156 0.83834 0.0
C2225 C 0.09601 0.74173 0.84443 0.0
C2226 C 0.18825 0.77425 0.81061 0.0
C2227 C 0.1956 0.76601 0.78727 0.0
C2228 C 0.16728 0.76462 0.82073 0.0
C2229 C 0.15315 0.74699 0.80735 0.0
C2230 C 0.1621 0.7367 0.78523 0.0
C2231 C 0.18314 0.74626 0.77521 0.0
H2232 H 0.02129 0.29876 0.56021 0.0
H2233 H 0.95465 0.3237 0.59161 0.0
H2234 H 0.02823 0.34082 0.54408 0.0
H2235 H 0.96199 0.36517 0.57656 0.0
H2236 H -7e-05 0.43943 0.58125 0.0
H2237 H 0.00312 0.39543 0.59051 0.0
H2238 H -0.00303 0.3745 0.51402 0.0
H2239 H 0.99394 0.41876 0.50447 0.0
C2240 C 0.00802 0.31303 0.56318 0.0
C2241 C 0.98728 0.30805 0.57675 0.0
C2242 C 0.01202 0.33691 0.55414 0.0
C2243 C -0.00432 0.35594 0.55944 0.0
C2244 C 0.97476 0.35064 0.57233 0.0
C2245 C 0.97046 0.32687 0.58067 0.0
C2246 C -0.00057 0.4255 0.56636 0.0
C2247 C -0.00413 0.43236 0.54224 0.0
C2248 C 0.00162 0.40045 0.57164 0.0
C2249 C 0.00019 0.38189 0.55291 0.0
C2250 C -0.00166 0.38869 0.52862 0.0
C2251 C -0.00369 0.41388 0.52327 0.0
H2252 H 0.42578 0.26455 0.36341 0.0
H2253 H 0.45356 0.25933 0.29006 0.0
H2254 H 0.38549 0.26447 0.34785 0.0
H2255 H 0.41281 0.26037 0.27402 0.0
H2256 H 0.33818 0.22038 0.26117 0.0
H2257 H 0.37976 0.23057 0.27207 0.0
H2258 H 0.35533 0.28453 0.32699 0.0
H2259 H 0.31411 0.27327 0.31679 0.0
C2260 C 0.42323 0.26376 0.34388 0.0
C2261 C 0.44269 0.26124 0.32796 0.0
C2262 C 0.40007 0.26408 0.33486 0.0
C2263 C 0.39579 0.26202 0.30961 0.0
C2264 C 0.41546 0.26146 0.29358 0.0
C2265 C 0.43877 0.26118 0.30271 0.0
C2266 C 0.34193 0.23444 0.27546 0.0
C2267 C 0.32326 0.24577 0.28852 0.0
C2268 C 0.36565 0.24053 0.28155 0.0
C2269 C 0.37093 0.25825 0.30058 0.0
C2270 C 0.35198 0.27043 0.31264 0.0
C2271 C 0.3284 0.26405 0.30682 0.0
H2272 H 0.38763 0.51759 0.33276 0.0
H2273 H 0.44782 0.47766 0.30232 0.0
H2274 H 0.40478 0.51618 0.37294 0.0
H2275 H 0.46519 0.47616 0.34322 0.0
H2276 H 0.497 0.5182 0.41609 0.0
H2277 H 0.48239 0.50873 0.37433 0.0
H2278 H 0.41409 0.48595 0.40362 0.0
H2279 H 0.42822 0.4963 0.4446 0.0
C2280 C 0.40432 0.50806 0.33468 0.0
C2281 C 0.41631 0.49772 0.31435 0.0
C2282 C 0.41417 0.5072 0.35779 0.0
C2283 C 0.4363 0.49598 0.3612 0.0
C2284 C 0.44816 0.48504 0.34102 0.0
C2285 C 0.43815 0.48578 0.31772 0.0
C2286 C 0.47898 0.51101 0.41337 0.0
C2287 C 0.46339 0.50877 0.43322 0.0
C2288 C 0.4707 0.50536 0.38965 0.0
C2289 C 0.44695 0.4971 0.38582 0.0
C2290 C 0.43224 0.49291 0.406 0.0
C2291 C 0.44029 0.49894 0.4294 0.0
H2292 H 0.3053 0.66888 0.07576 0.0
H2293 H 0.23351 0.64222 0.05986 0.0
H2294 H 0.29347 0.67931 0.11759 0.0
H2295 H 0.2218 0.65256 0.10187 0.0
H2296 H 0.21103 0.71813 0.16271 0.0
H2297 H 0.21724 0.69318 0.12516 0.0
H2298 H 0.27962 0.66102 0.15658 0.0
H2299 H 0.27343 0.68623 0.19405 0.0
C2300 C 0.28705 0.66508 0.08119 0.0
C2301 C 0.27034 0.65492 0.06435 0.0
C2302 C 0.28034 0.67075 0.10528 0.0
C2303 C 0.25675 0.66649 0.11308 0.0
C2304 C 0.2401 0.65601 0.09638 0.0
C2305 C 0.24684 0.65019 0.0723 0.0
C2306 C 0.22533 0.70476 0.16198 0.0
C2307 C 0.24168 0.70396 0.18125 0.0
C2308 C 0.22898 0.69055 0.14045 0.0
C2309 C 0.24922 0.67557 0.13777 0.0
C2310 C 0.26406 0.67269 0.15805 0.0
C2311 C 0.26025 0.68674 0.1797 0.0
H2312 H 0.04568 0.50847 0.79207 0.0
H2313 H 0.11114 0.52097 0.83241 0.0
H2314 H 0.02295 0.51165 0.83029 0.0
H2315 H 0.08838 0.52479 0.87031 0.0
H2316 H 0.03514 0.54158 0.93246 0.0
H2317 H 0.04599 0.55205 0.89065 0.0
H2318 H 0.03647 0.47452 0.86738 0.0
H2319 H 0.02658 0.4639 0.90926 0.0
C2320 C 0.05511 0.51271 0.80898 0.0
C2321 C 0.08016 0.51395 0.80948 0.0
C2322 C 0.04211 0.51459 0.8307 0.0
C2323 C 0.05405 0.51852 0.85295 0.0
C2324 C 0.07889 0.522 0.8532 0.0
C2325 C 0.0919 0.51951 0.83161 0.0
C2326 C 0.03454 0.52702 0.91816 0.0
C2327 C 0.03009 0.50199 0.92378 0.0
C2328 C 0.04073 0.533 0.8944 0.0
C2329 C 0.04179 0.51407 0.87605 0.0
C2330 C 0.03537 0.48939 0.88131 0.0
C2331 C 0.02987 0.48331 0.90516 0.0
H2332 H 0.24923 0.28849 0.5667 0.0
H2333 H 0.21377 0.35712 0.58738 0.0
H2334 H 0.24241 0.27334 0.60744 0.0
H2335 H 0.20753 0.34217 0.62848 0.0
H2336 H 0.26417 0.32209 0.69329 0.0
H2337 H 0.24394 0.33676 0.65736 0.0
H2338 H 0.21415 0.26265 0.64309 0.0
H2339 H 0.23438 0.24816 0.6792 0.0
C2340 C 0.2392 0.29994 0.57967 0.0
C2341 C 0.23232 0.32408 0.57389 0.0
C2342 C 0.23516 0.29124 0.60302 0.0
C2343 C 0.22461 0.3067 0.62122 0.0
C2344 C 0.21572 0.3299 0.61482 0.0
C2345 C 0.21925 0.33838 0.59123 0.0
C2346 C 0.25209 0.3094 0.68332 0.0
C2347 C 0.25067 0.2841 0.68893 0.0
C2348 C 0.24052 0.31774 0.66269 0.0
C2349 C 0.22785 0.30068 0.64716 0.0
C2350 C 0.22398 0.27611 0.65462 0.0
C2351 C 0.2354 0.26787 0.67536 0.0
H2352 H 0.39341 0.51871 0.16688 0.0
H2353 H 0.46337 0.49311 0.18574 0.0
H2354 H 0.40741 0.52638 0.12555 0.0
H2355 H 0.47716 0.50015 0.1445 0.0
H2356 H 0.50395 0.51595 0.07546 0.0
H2357 H 0.48609 0.5315 0.1137 0.0
H2358 H 0.41855 0.4975 0.09182 0.0
H2359 H 0.43652 0.48222 0.05383 0.0
C2360 C 0.41173 0.51459 0.16213 0.0
C2361 C 0.42728 0.50504 0.17938 0.0
C2362 C 0.41978 0.51926 0.1386 0.0
C2363 C 0.44346 0.51427 0.13188 0.0
C2364 C 0.45901 0.50495 0.14929 0.0
C2365 C 0.45102 0.50049 0.17281 0.0
C2366 C 0.48496 0.51317 0.07832 0.0
C2367 C 0.47153 0.49771 0.06216 0.0
C2368 C 0.4748 0.52179 0.10027 0.0
C2369 C 0.4512 0.51484 0.10609 0.0
C2370 C 0.43684 0.50294 0.088 0.0
C2371 C 0.44707 0.49419 0.06619 0.0
H2372 H 0.23512 0.68158 0.93904 0.0
H2373 H 0.30543 0.71369 0.95244 0.0
H2374 H 0.233 0.7034 0.90108 0.0
H2375 H 0.30305 0.73571 0.91452 0.0
H2376 H 0.30668 0.71549 0.83014 0.0
H2377 H 0.30534 0.71195 0.87414 0.0
H2378 H 0.2346 0.74264 0.87595 0.0
H2379 H 0.23615 0.74655 0.83146 0.0
C2380 C 0.24977 0.694 0.93441 0.0
C2381 C 0.27079 0.69522 0.94843 0.0
C2382 C 0.24847 0.70662 0.91263 0.0
C2383 C 0.26811 0.72074 0.90456 0.0
C2384 C 0.28785 0.7245 0.92009 0.0
C2385 C 0.28917 0.7119 0.94185 0.0
C2386 C 0.29104 0.72198 0.83997 0.0
C2387 C 0.27151 0.73122 0.82745 0.0
C2388 C 0.29034 0.72017 0.86522 0.0
C2389 C 0.26991 0.72717 0.87854 0.0
C2390 C 0.2506 0.73723 0.86614 0.0
C2391 C 0.25152 0.73953 0.84077 0.0
H2392 H 0.07563 0.45882 0.66486 0.0
H2393 H 0.11611 0.52785 0.67631 0.0
H2394 H 0.0657 0.47096 0.62383 0.0
H2395 H 0.10595 0.54003 0.63522 0.0
H2396 H 0.03945 0.55842 0.58218 0.0
H2397 H 0.06511 0.55073 0.6169 0.0
H2398 H 0.08531 0.48007 0.58288 0.0
H2399 H 0.05924 0.48739 0.54879 0.0
C2400 C 0.08268 0.47639 0.65848 0.0
C2401 C 0.09666 0.49233 0.67372 0.0
C2402 C 0.07719 0.48325 0.63495 0.0
C2403 C 0.08538 0.50629 0.62633 0.0
C2404 C 0.09964 0.5221 0.64142 0.0
C2405 C 0.10542 0.51508 0.66486 0.0
C2406 C 0.05037 0.54191 0.5816 0.0
C2407 C 0.04755 0.52358 0.56274 0.0
C2408 C 0.065 0.53746 0.60146 0.0
C2409 C 0.07675 0.51457 0.60266 0.0
C2410 C 0.07624 0.49775 0.5824 0.0
C2411 C 0.06171 0.50222 0.56257 0.0
H2412 H 0.28765 0.3227 0.44272 0.0
H2413 H 0.21679 0.35282 0.44834 0.0
H2414 H 0.28063 0.31102 0.39998 0.0
H2415 H 0.20967 0.34064 0.40532 0.0
H2416 H 0.20366 0.27476 0.3423 0.0
H2417 H 0.20642 0.29804 0.38145 0.0
H2418 H 0.27326 0.33124 0.35897 0.0
H2419 H 0.27021 0.30822 0.31953 0.0
C2420 C 0.2705 0.32676 0.43489 0.0
C2421 C 0.25272 0.33854 0.44912 0.0
C2422 C 0.26662 0.32035 0.41025 0.0
C2423 C 0.2447 0.32516 0.39916 0.0
C2424 C 0.22679 0.33679 0.41333 0.0
C2425 C 0.23085 0.34367 0.43798 0.0
C2426 C 0.21838 0.28792 0.34531 0.0
C2427 C 0.23664 0.28979 0.32782 0.0
C2428 C 0.22002 0.30117 0.36779 0.0
C2429 C 0.24025 0.31614 0.37347 0.0
C2430 C 0.25757 0.31963 0.35519 0.0
C2431 C 0.25567 0.30674 0.33247 0.0
H2432 H 0.30889 0.437 0.48355 0.0
H2433 H 0.32816 0.38015 0.53332 0.0
H2434 H 0.35062 0.4516 0.4826 0.0
H2435 H 0.3695 0.39509 0.53266 0.0
H2436 H 0.42233 0.46575 0.55316 0.0
H2437 H 0.38523 0.44095 0.54934 0.0
H2438 H 0.39539 0.43389 0.47141 0.0
H2439 H 0.43309 0.45778 0.47543 0.0
C2440 C 0.32204 0.42737 0.49393 0.0
C2441 C 0.31518 0.4075 0.50858 0.0
C2442 C 0.34589 0.43566 0.49332 0.0
C2443 C 0.36318 0.42446 0.50764 0.0
C2444 C 0.35649 0.40404 0.52152 0.0
C2445 C 0.3328 0.39549 0.52181 0.0
C2446 C 0.41718 0.45783 0.53543 0.0
C2447 C 0.4308 0.46299 0.5147 0.0
C2448 C 0.39589 0.44389 0.53318 0.0
C2449 C 0.38747 0.43565 0.51007 0.0
C2450 C 0.40155 0.44001 0.48941 0.0
C2451 C 0.42322 0.45332 0.49176 0.0
H2452 H 0.83949 0.11771 0.51202 0.0
H2453 H 0.80434 0.04527 0.50641 0.0
H2454 H 0.87723 0.09819 0.51808 0.0
H2455 H 0.84253 0.02528 0.51339 0.0
H2456 H 0.91738 0.00831 0.47615 0.0
H2457 H 0.8765 0.02015 0.48648 0.0
H2458 H 0.90372 0.07444 0.5405 0.0
H2459 H 0.94438 0.06338 0.52906 0.0
C2460 C 0.83976 0.09758 0.51242 0.0
C2461 C 0.81913 0.08303 0.50781 0.0
C2462 C 0.86145 0.08628 0.51637 0.0
C2463 C 0.86303 0.06007 0.51582 0.0
C2464 C 0.84196 0.0455 0.51342 0.0
C2465 C 0.82011 0.05693 0.50955 0.0
C2466 C 0.91439 0.02245 0.49046 0.0
C2467 C 0.93364 0.03545 0.50147 0.0
C2468 C 0.89107 0.02907 0.49662 0.0
C2469 C 0.88686 0.04857 0.51405 0.0
C2470 C 0.90635 0.0598 0.5266 0.0
C2471 C 0.92956 0.05352 0.5201 0.0
H2472 H 0.68059 0.04998 0.2269 0.0
H2473 H 0.63472 0.09091 0.27679 0.0
H2474 H 0.70053 0.08914 0.21618 0.0
H2475 H 0.65439 0.13032 0.26579 0.0
H2476 H 0.69681 0.19765 0.23187 0.0
H2477 H 0.66867 0.16159 0.23035 0.0
H2478 H 0.72581 0.11309 0.24936 0.0
H2479 H 0.75328 0.14811 0.2513 0.0
C2480 C 0.67432 0.06752 0.23491 0.0
C2481 C 0.65649 0.06772 0.25281 0.0
C2482 C 0.6856 0.08984 0.22876 0.0
C2483 C 0.67899 0.11265 0.24027 0.0
C2484 C 0.65966 0.113 0.25659 0.0
C2485 C 0.64863 0.09055 0.26305 0.0
C2486 C 0.70323 0.17925 0.23566 0.0
C2487 C 0.72731 0.17584 0.2416 0.0
C2488 C 0.68723 0.1587 0.23465 0.0
C2489 C 0.69528 0.13458 0.23926 0.0
C2490 C 0.71928 0.13133 0.245 0.0
C2491 C 0.73502 0.15158 0.24619 0.0
H2492 H 0.66342 0.89351 0.02952 0.0
H2493 H 0.68696 0.96456 0.0023 0.0
H2494 H 0.62212 0.90768 0.0296 0.0
H2495 H 0.64602 0.97839 0.00189 0.0
H2496 H 0.57551 0.00644 0.00968 0.0
H2497 H 0.61189 0.99019 0.02708 0.0
H2498 H 0.59336 0.91637 -0.0027 0.0
H2499 H 0.5568 0.93277 0.98049 0.0
C2500 C 0.65978 0.91214 0.02361 0.0
C2501 C 0.6784 0.92791 0.0158 0.0
C2502 C 0.63618 0.92026 0.02376 0.0
C2503 C 0.63081 0.94426 0.01606 0.0
C2504 C 0.64956 0.96006 0.00861 0.0
C2505 C 0.67305 0.95202 0.00857 0.0
C2506 C 0.57871 0.98653 0.00802 0.0
C2507 C 0.56353 0.97073 0.99401 0.0
C2508 C 0.59964 0.97726 0.01766 0.0
C2509 C 0.6058 0.95214 0.01298 0.0
C2510 C 0.58916 0.9358 0.00123 0.0
C2511 C 0.56823 0.94512 0.99161 0.0
H2512 H 0.30322 0.45093 0.2638 0.0
H2513 H 0.37466 0.42377 0.27058 0.0
H2514 H 0.28744 0.40808 0.2639 0.0
H2515 H 0.35902 0.38086 0.27223 0.0
H2516 H 0.32161 0.31077 0.23344 0.0
H2517 H 0.34214 0.34945 0.24623 0.0
H2518 H 0.27966 0.37239 0.28711 0.0
H2519 H 0.2591 0.33365 0.27358 0.0
C2520 C 0.31549 0.43566 0.26537 0.0
C2521 C 0.34011 0.44042 0.26659 0.0
C2522 C 0.30649 0.41113 0.26591 0.0
C2523 C 0.3219 0.39084 0.26838 0.0
C2524 C 0.34661 0.39586 0.27001 0.0
C2525 C 0.35561 0.42038 0.26891 0.0
C2526 C 0.3128 0.3235 0.24626 0.0
C2527 C 0.28884 0.31935 0.25252 0.0
C2528 C 0.32447 0.34589 0.25346 0.0
C2529 C 0.31226 0.36459 0.26695 0.0
C2530 C 0.28934 0.35879 0.27601 0.0
C2531 C 0.2777 0.33633 0.26877 0.0
H2532 H 0.177 0.62671 0.00137 0.0
H2533 H 0.19557 0.54894 0.99051 0.0
H2534 H 0.13786 0.61384 0.01726 0.0
H2535 H 0.15704 0.53635 0.0063 0.0
H2536 H 0.09653 0.51314 0.04433 0.0
H2537 H 0.13336 0.53818 0.04544 0.0
H2538 H 0.10199 0.59025 -0.00281 0.0
H2539 H 0.06493 0.56554 -0.00328 0.0
C2540 C 0.17275 0.60694 0.00242 0.0
C2541 C 0.18924 0.5888 0.99456 0.0
C2542 C 0.1505 0.59966 0.01163 0.0
C2543 C 0.14469 0.57417 0.01348 0.0
C2544 C 0.16128 0.55616 0.00572 0.0
C2545 C 0.18324 0.56338 -0.00372 0.0
C2546 C 0.09721 0.53058 0.03492 0.0
C2547 C 0.07827 0.53731 0.02007 0.0
C2548 C 0.11822 0.54485 0.0355 0.0
C2549 C 0.12065 0.56563 0.02078 0.0
C2550 C 0.10056 0.57426 0.00864 0.0
C2551 C 0.07936 0.56014 0.00836 0.0
H2552 H 0.715 0.96444 0.28216 0.0
H2553 H 0.67053 0.93475 0.22322 0.0
H2554 H 0.73929 0.92707 0.27887 0.0
H2555 H 0.69416 0.89732 0.22055 0.0
H2556 H 0.73416 0.82786 0.22237 0.0
H2557 H 0.72967 0.87243 0.21538 0.0
H2558 H 0.72488 0.88711 0.29331 0.0
H2559 H 0.72986 0.84281 0.29996 0.0
C2560 C 0.71077 0.95027 0.2681 0.0
C2561 C 0.69035 0.95214 0.25356 0.0
C2562 C 0.72465 0.92887 0.26625 0.0
C2563 C 0.71817 0.90891 0.25001 0.0
C2564 C 0.69965 0.91227 0.23332 0.0
C2565 C 0.68594 0.93376 0.23499 0.0
C2566 C 0.73314 0.84088 0.23789 0.0
C2567 C 0.73247 0.83213 0.26164 0.0
C2568 C 0.73035 0.86631 0.23394 0.0
C2569 C 0.72692 0.88336 0.25377 0.0
C2570 C 0.72785 0.87463 0.27761 0.0
C2571 C 0.73041 0.84923 0.28148 0.0
H2572 H 0.86184 0.07731 0.72166 0.0
H2573 H 0.79764 0.05487 0.75917 0.0
H2574 H 0.8448 0.11835 0.71511 0.0
H2575 H 0.78026 0.09538 0.7517 0.0
H2576 H 0.75067 0.1666 0.73612 0.0
H2577 H 0.76892 0.12881 0.71838 0.0
H2578 H 0.83518 0.14934 0.75438 0.0
H2579 H 0.81668 0.1868 0.77245 0.0
C2580 C 0.84366 0.08073 0.72746 0.0
C2581 C 0.83101 0.06305 0.74103 0.0
C2582 C 0.834 0.1042 0.72375 0.0
C2583 C 0.81126 0.10994 0.73286 0.0
C2584 C 0.79774 0.0913 0.74423 0.0
C2585 C 0.80766 0.06817 0.74861 0.0
C2586 C 0.76947 0.1636 0.73917 0.0
C2587 C 0.7824 0.1794 0.75549 0.0
C2588 C 0.77986 0.14201 0.72911 0.0
C2589 C 0.80332 0.13611 0.73525 0.0
C2590 C 0.81711 0.15359 0.7492 0.0
C2591 C 0.80658 0.17498 0.75956 0.0
loop_
_geom_bond_atom_site_label_1
_geom_bond_atom_site_label_2
_geom_bond_distance
_geom_bond_site_symmetry_2
_ccdc_geom_bond_type
Mg0 O1 2.028 . S
Mg0 O7 1.986 . S
Mg0 O9 2.114 1_455 S
Mg0 O10 2.251 1_455 S
Mg0 O13 2.010 . S
O1 Mg0 2.028 . S
O1 C4 1.250 . S
O2 Mg3 2.028 . S
O2 C4 1.248 1_655 S
Mg3 O2 2.028 . S
Mg3 O8 2.032 . S
Mg3 O10 2.079 . S
C4 O1 1.250 . S
C4 O2 1.248 1_455 S
C5 O6 1.264 . S
C5 O13 1.249 . S
O6 C5 1.264 . S
O7 Mg0 1.986 . S
O7 C11 1.246 . S
O8 Mg3 2.032 . S
O8 C11 1.259 1_655 S
O9 Mg0 2.114 1_655 S
O9 C12 1.252 . S
O10 Mg0 2.251 1_655 S
O10 Mg3 2.079 . S
O10 C12 1.273 . S
C11 O7 1.246 . S
C11 O8 1.259 1_455 S
C12 O9 1.252 . S
C12 O10 1.273 . S
O13 Mg0 2.010 . S
O13 C5 1.249 . S
Mg14 O15 2.028 . S
Mg14 O21 1.986 . S
Mg14 O23 2.114 1_455 S
Mg14 O24 2.251 1_455 S
Mg14 O27 2.010 . S
O15 Mg14 2.028 . S
O15 C18 1.250 . S
O16 Mg17 2.028 . S
O16 C18 1.248 1_655 S
Mg17 O16 2.028 . S
Mg17 O22 2.032 . S
Mg17 O24 2.079 . S
C18 O15 1.250 . S
C18 O16 1.248 1_455 S
C19 O20 1.264 . S
C19 O27 1.249 . S
O20 C19 1.264 . S
O21 Mg14 1.986 . S
O21 C25 1.246 . S
O22 Mg17 2.032 . S
O22 C25 1.259 1_655 S
O23 Mg14 2.114 1_655 S
O23 C26 1.252 . S
O24 Mg14 2.251 1_655 S
O24 Mg17 2.079 . S
O24 C26 1.273 . S
C25 O21 1.246 . S
C25 O22 1.259 1_455 S
C26 O23 1.252 . S
C26 O24 1.273 . S
O27 Mg14 2.010 . S
O27 C19 1.249 . S
Mg28 O29 2.028 . S
Mg28 O35 1.986 . S
Mg28 O37 2.114 . S
Mg28 O38 2.251 . S
Mg28 O41 2.010 . S
O29 Mg28 2.028 . S
O29 C32 1.250 . S
O30 Mg31 2.028 . S
O30 C32 1.248 . S
Mg31 O30 2.028 . S
Mg31 O36 2.032 . S
Mg31 O38 2.079 . S
C32 O29 1.250 . S
C32 O30 1.248 . S
C33 O34 1.264 . S
C33 O41 1.249 . S
O34 C33 1.264 . S
O35 Mg28 1.986 . S
O35 C39 1.246 . S
O36 Mg31 2.032 . S
O36 C39 1.259 . S
O37 Mg28 2.114 . S
O37 C40 1.252 . S
O38 Mg28 2.251 . S
O38 Mg31 2.079 . S
O38 C40 1.273 . S
C39 O35 1.246 . S
C39 O36 1.259 . S
C40 O37 1.252 . S
C40 O38 1.273 . S
O41 Mg28 2.010 . S
O41 C33 1.249 . S
Mg42 O43 2.028 . S
Mg42 O49 1.986 . S
Mg42 O51 2.114 . S
Mg42 O52 2.251 . S
Mg42 O55 2.010 . S
O43 Mg42 2.028 . S
O43 C46 1.250 . S
O44 Mg45 2.028 . S
O44 C46 1.248 . S
Mg45 O44 2.028 . S
Mg45 O50 2.032 . S
Mg45 O52 2.079 . S
C46 O43 1.250 . S
C46 O44 1.248 . S
C47 O48 1.264 . S
C47 O55 1.249 . S
O48 C47 1.264 . S
O49 Mg42 1.986 . S
O49 C53 1.246 . S
O50 Mg45 2.032 . S
O50 C53 1.259 . S
O51 Mg42 2.114 . S
O51 C54 1.252 . S
O52 Mg42 2.251 . S
O52 Mg45 2.079 . S
O52 C54 1.273 . S
C53 O49 1.246 . S
C53 O50 1.259 . S
C54 O51 1.252 . S
C54 O52 1.273 . S
O55 Mg42 2.010 . S
O55 C47 1.249 . S
Mg56 O57 2.028 1_565 S
Mg56 O63 1.986 . S
Mg56 O65 2.114 1_565 S
Mg56 O66 2.251 . S
Mg56 O69 2.010 . S
O57 Mg56 2.028 1_545 S
O57 C60 1.250 . S
O58 Mg59 2.028 . S
O58 C60 1.248 . S
Mg59 O58 2.028 . S
Mg59 O64 2.032 1_545 S
Mg59 O66 2.079 1_545 S
C60 O57 1.250 . S
C60 O58 1.248 . S
C61 O62 1.264 . S
C61 O69 1.249 . S
O62 C61 1.264 . S
O63 Mg56 1.986 . S
O63 C67 1.246 . S
O64 Mg59 2.032 1_565 S
O64 C67 1.259 . S
O65 Mg56 2.114 1_545 S
O65 C68 1.252 . S
O66 Mg56 2.251 . S
O66 Mg59 2.079 1_565 S
O66 C68 1.273 1_565 S
C67 O63 1.246 . S
C67 O64 1.259 . S
C68 O65 1.252 . S
C68 O66 1.273 1_545 S
O69 Mg56 2.010 . S
O69 C61 1.249 . S
Mg70 O71 2.028 . S
Mg70 O77 1.986 . S
Mg70 O79 2.114 . S
Mg70 O80 2.251 . S
Mg70 O83 2.010 . S
O71 Mg70 2.028 . S
O71 C74 1.250 . S
O72 Mg73 2.028 . S
O72 C74 1.248 . S
Mg73 O72 2.028 . S
Mg73 O78 2.032 . S
Mg73 O80 2.079 . S
C74 O71 1.250 . S
C74 O72 1.248 . S
C75 O76 1.264 . S
C75 O83 1.249 . S
O76 C75 1.264 . S
O77 Mg70 1.986 . S
O77 C81 1.246 . S
O78 Mg73 2.032 . S
O78 C81 1.259 . S
O79 Mg70 2.114 . S
O79 C82 1.252 . S
O80 Mg70 2.251 . S
O80 Mg73 2.079 . S
O80 C82 1.273 . S
C81 O77 1.246 . S
C81 O78 1.259 . S
C82 O79 1.252 . S
C82 O80 1.273 . S
O83 Mg70 2.010 . S
O83 C75 1.249 . S
Mg84 O85 2.028 1_545 S
Mg84 O91 1.986 . S
Mg84 O93 2.095 1_545 S
Mg84 O94 2.251 . S
Mg84 O97 2.010 . S
O85 Mg84 2.028 1_565 S
O85 C88 1.250 . S
O86 Mg87 2.028 1_565 S
O86 C88 1.248 . S
Mg87 O86 2.028 1_545 S
Mg87 O92 2.032 . S
Mg87 O94 2.079 . S
C88 O85 1.250 . S
C88 O86 1.248 . S
C89 O90 1.264 . S
C89 O97 1.249 . S
O90 C89 1.264 . S
O91 Mg84 1.986 . S
O91 C95 1.246 . S
O92 Mg87 2.032 . S
O92 C95 1.259 . S
O93 Mg84 2.095 1_565 S
O93 C96 1.242 1_565 S
O94 Mg84 2.251 . S
O94 Mg87 2.079 . S
O94 C96 1.273 . S
C95 O91 1.246 . S
C95 O92 1.259 . S
C96 O93 1.242 1_545 S
C96 O94 1.273 . S
O97 Mg84 2.010 . S
O97 C89 1.249 . S
Mg98 O99 1.992 1_556 S
Mg98 O105 2.014 . S
Mg98 O107 2.094 1_556 S
Mg98 O108 2.249 1_556 S
Mg98 O111 2.012 . S
O99 Mg98 1.992 1_554 S
O99 C102 1.250 . S
O100 Mg101 2.028 . S
O100 C102 1.248 . S
Mg101 O100 2.028 . S
Mg101 O106 2.032 1_554 S
Mg101 O108 2.079 . S
C102 O99 1.250 . S
C102 O100 1.248 . S
C103 O104 1.264 1_554 S
C103 O111 1.249 1_554 S
O104 C103 1.264 1_556 S
O105 Mg98 2.014 . S
O105 C109 1.246 . S
O106 Mg101 2.032 1_556 S
O106 C109 1.259 . S
O107 Mg98 2.094 1_554 S
O107 C110 1.252 . S
O108 Mg98 2.249 1_554 S
O108 Mg101 2.079 . S
O108 C110 1.273 . S
C109 O105 1.246 . S
C109 O106 1.259 . S
C110 O107 1.252 . S
C110 O108 1.273 . S
O111 Mg98 2.012 . S
O111 C103 1.249 1_556 S
Mg112 O113 2.028 1_554 S
Mg112 O119 1.986 . S
Mg112 O121 2.114 1_554 S
Mg112 O122 2.251 . S
Mg112 O125 2.010 . S
O113 Mg112 2.028 1_556 S
O113 C116 1.250 . S
O114 Mg115 2.028 1_556 S
O114 C116 1.248 . S
Mg115 O114 2.028 1_554 S
Mg115 O120 2.032 . S
Mg115 O122 2.079 . S
C116 O113 1.250 . S
C116 O114 1.248 . S
C117 O118 1.264 . S
C117 O125 1.249 . S
O118 C117 1.264 . S
O119 Mg112 1.986 . S
O119 C123 1.246 . S
O120 Mg115 2.032 . S
O120 C123 1.259 . S
O121 Mg112 2.114 1_556 S
O121 C124 1.252 1_556 S
O122 Mg112 2.251 . S
O122 Mg115 2.079 . S
O122 C124 1.273 . S
C123 O119 1.246 . S
C123 O120 1.259 . S
C124 O121 1.252 1_554 S
C124 O122 1.273 . S
O125 Mg112 2.010 . S
O125 C117 1.249 . S
Mg126 O127 2.028 . S
Mg126 O133 1.986 . S
Mg126 O135 2.114 . S
Mg126 O136 2.251 . S
Mg126 O139 2.010 . S
O127 Mg126 2.028 . S
O127 C130 1.250 . S
O128 Mg129 2.028 . S
O128 C130 1.248 . S
Mg129 O128 2.028 . S
Mg129 O134 2.032 . S
Mg129 O136 2.079 . S
C130 O127 1.250 . S
C130 O128 1.248 . S
C131 O132 1.264 . S
C131 O139 1.249 . S
O132 C131 1.264 . S
O133 Mg126 1.986 . S
O133 C137 1.246 . S
O134 Mg129 2.032 . S
O134 C137 1.259 . S
O135 Mg126 2.114 . S
O135 C138 1.252 . S
O136 Mg126 2.251 . S
O136 Mg129 2.079 . S
O136 C138 1.273 . S
C137 O133 1.246 . S
C137 O134 1.259 . S
C138 O135 1.252 . S
C138 O136 1.273 . S
O139 Mg126 2.010 . S
O139 C131 1.249 . S
Mg140 O141 2.028 . S
Mg140 O147 1.986 . S
Mg140 O149 2.114 . S
Mg140 O150 2.251 . S
Mg140 O153 2.010 . S
O141 Mg140 2.028 . S
O141 C144 1.250 . S
O142 Mg143 2.028 . S
O142 C144 1.248 . S
Mg143 O142 2.028 . S
Mg143 O148 2.032 . S
Mg143 O150 2.079 . S
C144 O141 1.250 . S
C144 O142 1.248 . S
C145 O146 1.264 . S
C145 O153 1.249 . S
O146 C145 1.264 . S
O147 Mg140 1.986 . S
O147 C151 1.246 . S
O148 Mg143 2.032 . S
O148 C151 1.259 . S
O149 Mg140 2.114 . S
O149 C152 1.252 . S
O150 Mg140 2.251 . S
O150 Mg143 2.079 . S
O150 C152 1.273 . S
C151 O147 1.246 . S
C151 O148 1.259 . S
C152 O149 1.252 . S
C152 O150 1.273 . S
O153 Mg140 2.010 . S
O153 C145 1.249 . S
Mg154 O155 2.028 . S
Mg154 O161 1.986 . S
Mg154 O163 2.114 . S
Mg154 O164 2.251 . S
Mg154 O167 2.010 . S
O155 Mg154 2.028 . S
O155 C158 1.250 . S
O156 Mg157 2.028 . S
O156 C158 1.248 . S
Mg157 O156 2.028 . S
Mg157 O162 2.032 . S
Mg157 O164 2.079 . S
C158 O155 1.250 . S
C158 O156 1.248 . S
C159 O160 1.264 . S
C159 O167 1.249 . S
O160 C159 1.264 . S
O161 Mg154 1.986 . S
O161 C165 1.246 . S
O162 Mg157 2.032 . S
O162 C165 1.259 . S
O163 Mg154 2.114 . S
O163 C166 1.252 . S
O164 Mg154 2.251 . S
O164 Mg157 2.079 . S
O164 C166 1.273 . S
C165 O161 1.246 . S
C165 O162 1.259 . S
C166 O163 1.252 . S
C166 O164 1.273 . S
O167 Mg154 2.010 . S
O167 C159 1.249 . S
Mg168 O169 2.028 . S
Mg168 O175 1.986 . S
Mg168 O177 2.114 1_455 S
Mg168 O178 2.251 1_455 S
Mg168 O181 2.010 . S
O169 Mg168 2.028 . S
O169 C172 1.250 . S
O170 Mg171 2.028 . S
O170 C172 1.248 1_655 S
Mg171 O170 2.028 . S
Mg171 O176 2.032 . S
Mg171 O178 2.079 . S
C172 O169 1.250 . S
C172 O170 1.248 1_455 S
C173 O174 1.264 . S
C173 O181 1.249 . S
O174 C173 1.264 . S
O175 Mg168 1.986 . S
O175 C179 1.246 . S
O176 Mg171 2.032 . S
O176 C179 1.259 1_655 S
O177 Mg168 2.114 1_655 S
O177 C180 1.252 . S
O178 Mg168 2.251 1_655 S
O178 Mg171 2.079 . S
O178 C180 1.273 . S
C179 O175 1.246 . S
C179 O176 1.259 1_455 S
C180 O177 1.252 . S
C180 O178 1.273 . S
O181 Mg168 2.010 . S
O181 C173 1.249 . S
Mg182 O183 2.028 . S
Mg182 O189 1.986 . S
Mg182 O191 2.114 1_455 S
Mg182 O192 2.251 1_455 S
Mg182 O195 2.010 . S
O183 Mg182 2.028 . S
O183 C186 1.250 . S
O184 Mg185 2.028 . S
O184 C186 1.248 1_655 S
Mg185 O184 2.028 . S
Mg185 O190 2.032 . S
Mg185 O192 2.079 . S
C186 O183 1.250 . S
C186 O184 1.248 1_455 S
C187 O188 1.264 . S
C187 O195 1.249 . S
O188 C187 1.264 . S
O189 Mg182 1.986 . S
O189 C193 1.246 . S
O190 Mg185 2.032 . S
O190 C193 1.259 1_655 S
O191 Mg182 2.114 1_655 S
O191 C194 1.252 . S
O192 Mg182 2.251 1_655 S
O192 Mg185 2.079 . S
O192 C194 1.273 . S
C193 O189 1.246 . S
C193 O190 1.259 1_455 S
C194 O191 1.252 . S
C194 O192 1.273 . S
O195 Mg182 2.010 . S
O195 C187 1.249 . S
Mg196 O197 2.028 . S
Mg196 O203 1.986 . S
Mg196 O205 2.114 . S
Mg196 O206 2.251 . S
Mg196 O209 2.010 . S
O197 Mg196 2.028 . S
O197 C200 1.250 . S
O198 Mg199 2.028 . S
O198 C200 1.248 . S
Mg199 O198 2.028 . S
Mg199 O204 2.032 . S
Mg199 O206 2.079 . S
C200 O197 1.250 . S
C200 O198 1.248 . S
C201 O202 1.264 . S
C201 O209 1.249 . S
O202 C201 1.264 . S
O203 Mg196 1.986 . S
O203 C207 1.246 . S
O204 Mg199 2.032 . S
O204 C207 1.259 . S
O205 Mg196 2.114 . S
O205 C208 1.252 . S
O206 Mg196 2.251 . S
O206 Mg199 2.079 . S
O206 C208 1.273 . S
C207 O203 1.246 . S
C207 O204 1.259 . S
C208 O205 1.252 . S
C208 O206 1.273 . S
O209 Mg196 2.010 . S
O209 C201 1.249 . S
Mg210 O211 2.028 . S
Mg210 O217 1.986 . S
Mg210 O219 2.114 . S
Mg210 O220 2.251 . S
Mg210 O223 2.010 . S
O211 Mg210 2.028 . S
O211 C214 1.250 . S
O212 Mg213 2.028 . S
O212 C214 1.248 . S
Mg213 O212 2.028 . S
Mg213 O218 2.032 . S
Mg213 O220 2.079 . S
C214 O211 1.250 . S
C214 O212 1.248 . S
C215 O216 1.264 . S
C215 O223 1.249 . S
O216 C215 1.264 . S
O217 Mg210 1.986 . S
O217 C221 1.246 . S
O218 Mg213 2.032 . S
O218 C221 1.259 . S
O219 Mg210 2.114 . S
O219 C222 1.252 . S
O220 Mg210 2.251 . S
O220 Mg213 2.079 . S
O220 C222 1.273 . S
C221 O217 1.246 . S
C221 O218 1.259 . S
C222 O219 1.252 . S
C222 O220 1.273 . S
O223 Mg210 2.010 . S
O223 C215 1.249 . S
Mg224 O225 2.028 1_545 S
Mg224 O231 1.986 . S
Mg224 O233 2.114 1_545 S
Mg224 O234 2.251 . S
Mg224 O237 2.010 . S
O225 Mg224 2.028 1_565 S
O225 C228 1.250 . S
O226 Mg227 2.028 1_565 S
O226 C228 1.248 . S
Mg227 O226 2.028 1_545 S
Mg227 O232 2.032 . S
Mg227 O234 2.079 . S
C228 O225 1.250 . S
C228 O226 1.248 . S
C229 O230 1.264 . S
C229 O237 1.249 . S
O230 C229 1.264 . S
O231 Mg224 1.986 . S
O231 C235 1.246 . S
O232 Mg227 2.032 . S
O232 C235 1.259 . S
O233 Mg224 2.114 1_565 S
O233 C236 1.254 . S
O234 Mg224 2.251 . S
O234 Mg227 2.079 . S
O234 C236 1.270 1_545 S
C235 O231 1.246 . S
C235 O232 1.259 . S
C236 O233 1.254 . S
C236 O234 1.270 1_565 S
O237 Mg224 2.010 . S
O237 C229 1.249 . S
Mg238 O239 2.028 . S
Mg238 O245 1.986 . S
Mg238 O247 2.114 . S
Mg238 O248 2.251 . S
Mg238 O251 2.010 . S
O239 Mg238 2.028 . S
O239 C242 1.250 . S
O240 Mg241 2.028 . S
O240 C242 1.248 . S
Mg241 O240 2.028 . S
Mg241 O246 2.032 . S
Mg241 O248 2.079 . S
C242 O239 1.250 . S
C242 O240 1.248 . S
C243 O244 1.264 . S
C243 O251 1.249 . S
O244 C243 1.264 . S
O245 Mg238 1.986 . S
O245 C249 1.246 . S
O246 Mg241 2.032 . S
O246 C249 1.259 . S
O247 Mg238 2.114 . S
O247 C250 1.252 . S
O248 Mg238 2.251 . S
O248 Mg241 2.079 . S
O248 C250 1.273 . S
C249 O245 1.246 . S
C249 O246 1.259 . S
C250 O247 1.252 . S
C250 O248 1.273 . S
O251 Mg238 2.010 . S
O251 C243 1.249 . S
Mg252 O253 2.028 1_565 S
Mg252 O259 1.986 . S
Mg252 O261 2.114 1_565 S
Mg252 O262 2.250 1_565 S
Mg252 O265 2.010 . S
O253 Mg252 2.028 1_545 S
O253 C256 1.250 . S
O254 Mg255 2.028 . S
O254 C256 1.248 . S
Mg255 O254 2.028 . S
Mg255 O260 2.032 1_545 S
Mg255 O262 2.083 . S
C256 O253 1.250 . S
C256 O254 1.248 . S
C257 O258 1.291 . S
C257 O265 1.261 . S
O258 C257 1.291 . S
O259 Mg252 1.986 . S
O259 C263 1.246 . S
O260 Mg255 2.032 1_565 S
O260 C263 1.259 . S
O261 Mg252 2.114 1_545 S
O261 C264 1.252 . S
O262 Mg252 2.250 1_545 S
O262 Mg255 2.083 . S
O262 C264 1.290 . S
C263 O259 1.246 . S
C263 O260 1.259 . S
C264 O261 1.252 . S
C264 O262 1.290 . S
O265 Mg252 2.010 . S
O265 C257 1.261 . S
Mg266 O267 2.028 1_554 S
Mg266 O273 1.986 . S
Mg266 O275 2.114 . S
Mg266 O276 2.251 . S
Mg266 O279 2.010 . S
O267 Mg266 2.028 1_556 S
O267 C270 1.250 . S
O268 Mg269 2.028 1_556 S
O268 C270 1.248 . S
Mg269 O268 2.028 1_554 S
Mg269 O274 2.032 . S
Mg269 O276 2.079 . S
C270 O267 1.250 . S
C270 O268 1.248 . S
C271 O272 1.264 . S
C271 O279 1.249 . S
O272 C271 1.264 . S
O273 Mg266 1.986 . S
O273 C277 1.246 . S
O274 Mg269 2.032 . S
O274 C277 1.259 . S
O275 Mg266 2.114 . S
O275 C278 1.252 . S
O276 Mg266 2.251 . S
O276 Mg269 2.079 . S
O276 C278 1.273 . S
C277 O273 1.246 . S
C277 O274 1.259 . S
C278 O275 1.252 . S
C278 O276 1.273 . S
O279 Mg266 2.010 . S
O279 C271 1.249 . S
Mg280 O281 2.028 1_556 S
Mg280 O287 1.986 . S
Mg280 O289 2.114 1_556 S
Mg280 O290 2.251 . S
Mg280 O293 2.010 . S
O281 Mg280 2.028 1_554 S
O281 C284 1.250 . S
O282 Mg283 2.028 . S
O282 C284 1.248 . S
Mg283 O282 2.028 . S
Mg283 O288 2.032 1_554 S
Mg283 O290 2.079 1_554 S
C284 O281 1.250 . S
C284 O282 1.248 . S
C285 O286 1.264 . S
C285 O293 1.249 . S
O286 C285 1.264 . S
O287 Mg280 1.986 . S
O287 C291 1.246 . S
O288 Mg283 2.032 1_556 S
O288 C291 1.259 . S
O289 Mg280 2.114 1_554 S
O289 C292 1.252 . S
O290 Mg280 2.251 . S
O290 Mg283 2.079 1_556 S
O290 C292 1.273 1_556 S
C291 O287 1.246 . S
C291 O288 1.259 . S
C292 O289 1.252 . S
C292 O290 1.273 1_554 S
O293 Mg280 2.010 . S
O293 C285 1.249 . S
Mg294 O295 2.028 . S
Mg294 O301 1.986 . S
Mg294 O303 2.114 . S
Mg294 O304 2.251 . S
Mg294 O307 2.010 . S
O295 Mg294 2.028 . S
O295 C298 1.250 . S
O296 Mg297 2.028 . S
O296 C298 1.248 . S
Mg297 O296 2.028 . S
Mg297 O302 2.032 . S
Mg297 O304 2.079 . S
C298 O295 1.250 . S
C298 O296 1.248 . S
C299 O300 1.264 . S
C299 O307 1.249 . S
O300 C299 1.264 . S
O301 Mg294 1.986 . S
O301 C305 1.246 . S
O302 Mg297 2.032 . S
O302 C305 1.259 . S
O303 Mg294 2.114 . S
O303 C306 1.252 . S
O304 Mg294 2.251 . S
O304 Mg297 2.079 . S
O304 C306 1.273 . S
C305 O301 1.246 . S
C305 O302 1.259 . S
C306 O303 1.252 . S
C306 O304 1.273 . S
O307 Mg294 2.010 . S
O307 C299 1.249 . S
Mg308 O309 2.028 . S
Mg308 O315 1.986 . S
Mg308 O317 2.114 . S
Mg308 O318 2.251 . S
Mg308 O321 2.010 . S
O309 Mg308 2.028 . S
O309 C312 1.250 . S
O310 Mg311 2.028 . S
O310 C312 1.248 . S
Mg311 O310 2.028 . S
Mg311 O316 2.032 . S
Mg311 O318 2.079 . S
C312 O309 1.250 . S
C312 O310 1.248 . S
C313 O314 1.264 . S
C313 O321 1.249 . S
O314 C313 1.264 . S
O315 Mg308 1.986 . S
O315 C319 1.246 . S
O316 Mg311 2.032 . S
O316 C319 1.259 . S
O317 Mg308 2.114 . S
O317 C320 1.252 . S
O318 Mg308 2.251 . S
O318 Mg311 2.079 . S
O318 C320 1.273 . S
C319 O315 1.246 . S
C319 O316 1.259 . S
C320 O317 1.252 . S
C320 O318 1.273 . S
O321 Mg308 2.010 . S
O321 C313 1.249 . S
Mg322 O323 2.028 . S
Mg322 O329 1.986 . S
Mg322 O331 2.114 . S
Mg322 O332 2.251 . S
Mg322 O335 2.010 . S
O323 Mg322 2.028 . S
O323 C326 1.250 . S
O324 Mg325 2.028 . S
O324 C326 1.248 . S
Mg325 O324 2.028 . S
Mg325 O330 2.032 . S
Mg325 O332 2.079 . S
C326 O323 1.250 . S
C326 O324 1.248 . S
C327 O328 1.264 . S
C327 O335 1.249 . S
O328 C327 1.264 . S
O329 Mg322 1.986 . S
O329 C333 1.246 . S
O330 Mg325 2.032 . S
O330 C333 1.259 . S
O331 Mg322 2.114 . S
O331 C334 1.252 . S
O332 Mg322 2.251 . S
O332 Mg325 2.079 . S
O332 C334 1.273 . S
C333 O329 1.246 . S
C333 O330 1.259 . S
C334 O331 1.252 . S
C334 O332 1.273 . S
O335 Mg322 2.010 . S
O335 C327 1.249 . S
O336 Mn337 2.163 . S
O336 C350 1.246 . S
Mn337 O336 2.163 . S
Mn337 O340 2.160 1_445 S
Mn337 O341 2.221 1_455 S
Mn337 O343 2.163 1_454 S
Mn337 O345 2.160 1_545 S
Mn337 O355 2.230 1_545 S
O338 Mn339 2.107 1_556 S
O338 C350 1.234 1_566 S
Mn339 O338 2.107 1_554 S
Mn339 O346 2.089 . S
Mn339 O355 2.306 . S
Mn339 O356 2.251 1_554 S
O340 Mn337 2.160 1_665 S
O340 C351 1.239 . S
O341 Mn337 2.221 1_655 S
O341 Mn342 2.305 . S
O341 C352 1.278 . S
Mn342 O341 2.305 . S
Mn342 O344 2.093 . S
Mn342 O347 2.256 . S
Mn342 O348 2.061 1_554 S
O343 Mn337 2.163 1_656 S
O343 C353 1.244 . S
O344 Mn342 2.093 . S
O344 C351 1.256 1_545 S
O345 Mn337 2.160 1_565 S
O345 C354 1.239 . S
O346 Mn339 2.089 . S
O346 C354 1.256 . S
O347 Mn342 2.256 . S
O347 C352 1.241 . S
O348 Mn342 2.061 1_556 S
O348 C353 1.256 . S
C349 O355 1.243 1_556 S
C349 O356 1.241 . S
C350 O336 1.246 . S
C350 O338 1.234 1_544 S
C351 O340 1.239 . S
C351 O344 1.256 1_565 S
C352 O341 1.278 . S
C352 O347 1.241 . S
C353 O343 1.244 . S
C353 O348 1.256 . S
C354 O345 1.239 . S
C354 O346 1.256 . S
O355 Mn337 2.230 1_565 S
O355 Mn339 2.306 . S
O355 C349 1.243 1_554 S
O356 Mn339 2.251 1_556 S
O356 C349 1.241 . S
O357 Mn358 2.163 . S
O357 C371 1.244 . S
Mn358 O357 2.163 . S
Mn358 O361 2.160 . S
Mn358 O362 2.221 . S
Mn358 O364 2.163 . S
Mn358 O366 2.160 . S
Mn358 O376 2.221 . S
O359 Mn360 2.087 . S
O359 C371 1.256 . S
Mn360 O359 2.087 . S
Mn360 O367 2.089 . S
Mn360 O376 2.290 . S
Mn360 O377 2.251 . S
O361 Mn358 2.160 . S
O361 C372 1.239 . S
O362 Mn358 2.221 . S
O362 Mn363 2.290 . S
O362 C373 1.278 . S
Mn363 O362 2.290 . S
Mn363 O365 2.089 . S
Mn363 O368 2.251 . S
Mn363 O369 2.087 . S
O364 Mn358 2.163 . S
O364 C374 1.244 . S
O365 Mn363 2.089 . S
O365 C372 1.256 . S
O366 Mn358 2.160 . S
O366 C375 1.239 . S
O367 Mn360 2.089 . S
O367 C375 1.256 . S
O368 Mn363 2.251 . S
O368 C373 1.241 . S
O369 Mn363 2.087 . S
O369 C374 1.256 . S
C370 O376 1.278 . S
C370 O377 1.241 . S
C371 O357 1.244 . S
C371 O359 1.256 . S
C372 O361 1.239 . S
C372 O365 1.256 . S
C373 O362 1.278 . S
C373 O368 1.241 . S
C374 O364 1.244 . S
C374 O369 1.256 . S
C375 O366 1.239 . S
C375 O367 1.256 . S
O376 Mn358 2.221 . S
O376 Mn360 2.290 . S
O376 C370 1.278 . S
O377 Mn360 2.251 . S
O377 C370 1.241 . S
O378 Mn379 2.163 1_565 S
O378 C392 1.244 . S
Mn379 O378 2.163 1_545 S
Mn379 O382 2.160 . S
Mn379 O383 2.221 1_545 S
Mn379 O385 2.163 . S
Mn379 O387 2.160 . S
Mn379 O397 2.221 . S
O380 Mn381 2.087 . S
O380 C392 1.256 1_545 S
Mn381 O380 2.087 . S
Mn381 O388 2.089 . S
Mn381 O397 2.290 . S
Mn381 O398 2.251 . S
O382 Mn379 2.160 . S
O382 C393 1.239 . S
O383 Mn379 2.221 1_565 S
O383 Mn384 2.290 . S
O383 C394 1.278 . S
Mn384 O383 2.290 . S
Mn384 O386 2.089 1_565 S
Mn384 O389 2.251 . S
Mn384 O390 2.087 . S
O385 Mn379 2.163 . S
O385 C395 1.244 1_545 S
O386 Mn384 2.089 1_545 S
O386 C393 1.256 . S
O387 Mn379 2.160 . S
O387 C396 1.239 . S
O388 Mn381 2.089 . S
O388 C396 1.256 . S
O389 Mn384 2.251 . S
O389 C394 1.241 . S
O390 Mn384 2.087 . S
O390 C395 1.256 . S
C391 O397 1.278 . S
C391 O398 1.241 . S
C392 O378 1.244 . S
C392 O380 1.256 1_565 S
C393 O382 1.239 . S
C393 O386 1.256 . S
C394 O383 1.278 . S
C394 O389 1.241 . S
C395 O385 1.244 1_565 S
C395 O390 1.256 . S
C396 O387 1.239 . S
C396 O388 1.256 . S
O397 Mn379 2.221 . S
O397 Mn381 2.290 . S
O397 C391 1.278 . S
O398 Mn381 2.251 . S
O398 C391 1.241 . S
O399 Mn400 2.163 . S
O399 C413 1.244 . S
Mn400 O399 2.163 . S
Mn400 O403 2.160 . S
Mn400 O404 2.221 . S
Mn400 O406 2.163 . S
Mn400 O408 2.160 . S
Mn400 O418 2.221 . S
O401 Mn402 2.087 . S
O401 C413 1.256 . S
Mn402 O401 2.087 . S
Mn402 O409 2.089 . S
Mn402 O418 2.290 . S
Mn402 O419 2.251 . S
O403 Mn400 2.160 . S
O403 C414 1.239 . S
O404 Mn400 2.221 . S
O404 Mn405 2.290 . S
O404 C415 1.278 . S
Mn405 O404 2.290 . S
Mn405 O407 2.089 . S
Mn405 O410 2.251 . S
Mn405 O411 2.087 . S
O406 Mn400 2.163 . S
O406 C416 1.244 . S
O407 Mn405 2.089 . S
O407 C414 1.256 . S
O408 Mn400 2.160 . S
O408 C417 1.239 . S
O409 Mn402 2.089 . S
O409 C417 1.256 . S
O410 Mn405 2.251 . S
O410 C415 1.241 . S
O411 Mn405 2.087 . S
O411 C416 1.256 . S
C412 O418 1.278 . S
C412 O419 1.241 . S
C413 O399 1.244 . S
C413 O401 1.256 . S
C414 O403 1.239 . S
C414 O407 1.256 . S
C415 O404 1.278 . S
C415 O410 1.241 . S
C416 O406 1.244 . S
C416 O411 1.256 . S
C417 O408 1.239 . S
C417 O409 1.256 . S
O418 Mn400 2.221 . S
O418 Mn402 2.290 . S
O418 C412 1.278 . S
O419 Mn402 2.251 . S
O419 C412 1.241 . S
O420 Mn421 2.163 1_565 S
O420 C434 1.244 . S
Mn421 O420 2.163 1_545 S
Mn421 O424 2.160 . S
Mn421 O425 2.221 . S
Mn421 O427 2.163 1_455 S
Mn421 O429 2.160 1_545 S
Mn421 O439 2.221 1_545 S
O422 Mn423 2.087 . S
O422 C434 1.256 . S
Mn423 O422 2.087 . S
Mn423 O430 2.089 . S
Mn423 O439 2.290 . S
Mn423 O440 2.251 1_455 S
O424 Mn421 2.160 . S
O424 C435 1.239 . S
O425 Mn421 2.221 . S
O425 Mn426 2.290 . S
O425 C436 1.278 . S
Mn426 O425 2.290 . S
Mn426 O428 2.089 . S
Mn426 O431 2.251 . S
Mn426 O432 2.087 1_455 S
O427 Mn421 2.163 1_655 S
O427 C437 1.244 . S
O428 Mn426 2.089 . S
O428 C435 1.256 . S
O429 Mn421 2.160 1_565 S
O429 C438 1.239 . S
O430 Mn423 2.089 . S
O430 C438 1.256 . S
O431 Mn426 2.251 . S
O431 C436 1.241 . S
O432 Mn426 2.087 1_655 S
O432 C437 1.256 . S
C433 O439 1.278 1_655 S
C433 O440 1.241 . S
C434 O420 1.244 . S
C434 O422 1.256 . S
C435 O424 1.239 . S
C435 O428 1.256 . S
C436 O425 1.278 . S
C436 O431 1.241 . S
C437 O427 1.244 . S
C437 O432 1.256 . S
C438 O429 1.239 . S
C438 O430 1.256 . S
O439 Mn421 2.221 1_565 S
O439 Mn423 2.290 . S
O439 C433 1.278 1_455 S
O440 Mn423 2.251 1_655 S
O440 C433 1.241 . S
O441 Mn442 2.163 . S
O441 C455 1.244 . S
Mn442 O441 2.163 . S
Mn442 O445 2.160 . S
Mn442 O446 2.221 . S
Mn442 O448 2.163 . S
Mn442 O450 2.160 . S
Mn442 O460 2.221 . S
O443 Mn444 2.087 . S
O443 C455 1.256 . S
Mn444 O443 2.087 . S
Mn444 O451 2.089 . S
Mn444 O460 2.290 . S
Mn444 O461 2.251 . S
O445 Mn442 2.160 . S
O445 C456 1.239 . S
O446 Mn442 2.221 . S
O446 Mn447 2.290 . S
O446 C457 1.278 . S
Mn447 O446 2.290 . S
Mn447 O449 2.089 . S
Mn447 O452 2.251 . S
Mn447 O453 2.087 . S
O448 Mn442 2.163 . S
O448 C458 1.244 . S
O449 Mn447 2.089 . S
O449 C456 1.256 . S
O450 Mn442 2.160 . S
O450 C459 1.239 . S
O451 Mn444 2.089 . S
O451 C459 1.256 . S
O452 Mn447 2.251 . S
O452 C457 1.241 . S
O453 Mn447 2.087 . S
O453 C458 1.256 . S
C454 O460 1.278 . S
C454 O461 1.241 . S
C455 O441 1.244 . S
C455 O443 1.256 . S
C456 O445 1.239 . S
C456 O449 1.256 . S
C457 O446 1.278 . S
C457 O452 1.241 . S
C458 O448 1.244 . S
C458 O453 1.256 . S
C459 O450 1.239 . S
C459 O451 1.256 . S
O460 Mn442 2.221 . S
O460 Mn444 2.290 . S
O460 C454 1.278 . S
O461 Mn444 2.251 . S
O461 C454 1.241 . S
O462 Mn463 2.170 1_556 S
O462 C476 1.240 1_545 S
Mn463 O462 2.170 1_554 S
Mn463 O466 2.160 . S
Mn463 O467 2.221 . S
Mn463 O469 2.163 1_545 S
Mn463 O471 2.160 1_554 S
Mn463 O481 2.226 1_554 S
O464 Mn465 2.087 1_565 S
O464 C476 1.256 . S
Mn465 O464 2.087 1_545 S
Mn465 O472 2.089 . S
Mn465 O481 2.298 . S
Mn465 O482 2.251 1_545 S
O466 Mn463 2.160 . S
O466 C477 1.239 . S
O467 Mn463 2.221 . S
O467 Mn468 2.276 1_545 S
O467 C478 1.278 . S
Mn468 O467 2.276 1_565 S
Mn468 O470 2.085 1_565 S
Mn468 O473 2.246 1_565 S
Mn468 O474 2.113 . S
O469 Mn463 2.163 1_565 S
O469 C479 1.244 . S
O470 Mn468 2.085 1_545 S
O470 C477 1.256 . S
O471 Mn463 2.160 1_556 S
O471 C480 1.239 . S
O472 Mn465 2.089 . S
O472 C480 1.256 . S
O473 Mn468 2.246 1_545 S
O473 C478 1.241 . S
O474 Mn468 2.113 . S
O474 C479 1.256 . S
C475 O481 1.260 1_565 S
C475 O482 1.241 . S
C476 O462 1.240 1_565 S
C476 O464 1.256 . S
C477 O466 1.239 . S
C477 O470 1.256 . S
C478 O467 1.278 . S
C478 O473 1.241 . S
C479 O469 1.244 . S
C479 O474 1.256 . S
C480 O471 1.239 . S
C480 O472 1.256 . S
O481 Mn463 2.226 1_556 S
O481 Mn465 2.298 . S
O481 C475 1.260 1_545 S
O482 Mn465 2.251 1_565 S
O482 C475 1.241 . S
O483 Mn484 2.163 . S
O483 C497 1.244 . S
Mn484 O483 2.163 . S
Mn484 O487 2.160 . S
Mn484 O488 2.221 . S
Mn484 O490 2.163 . S
Mn484 O492 2.160 . S
Mn484 O502 2.221 . S
O485 Mn486 2.087 . S
O485 C497 1.256 . S
Mn486 O485 2.087 . S
Mn486 O493 2.089 . S
Mn486 O502 2.290 . S
Mn486 O503 2.251 . S
O487 Mn484 2.160 . S
O487 C498 1.239 . S
O488 Mn484 2.221 . S
O488 Mn489 2.290 . S
O488 C499 1.278 . S
Mn489 O488 2.290 . S
Mn489 O491 2.089 . S
Mn489 O494 2.251 . S
Mn489 O495 2.087 . S
O490 Mn484 2.163 . S
O490 C500 1.244 . S
O491 Mn489 2.089 . S
O491 C498 1.256 . S
O492 Mn484 2.160 . S
O492 C501 1.239 . S
O493 Mn486 2.089 . S
O493 C501 1.256 . S
O494 Mn489 2.251 . S
O494 C499 1.241 . S
O495 Mn489 2.087 . S
O495 C500 1.256 . S
C496 O502 1.278 . S
C496 O503 1.241 . S
C497 O483 1.244 . S
C497 O485 1.256 . S
C498 O487 1.239 . S
C498 O491 1.256 . S
C499 O488 1.278 . S
C499 O494 1.241 . S
C500 O490 1.244 . S
C500 O495 1.256 . S
C501 O492 1.239 . S
C501 O493 1.256 . S
O502 Mn484 2.221 . S
O502 Mn486 2.290 . S
O502 C496 1.278 . S
O503 Mn486 2.251 . S
O503 C496 1.241 . S
O504 Mn505 2.163 1_556 S
O504 C518 1.244 . S
Mn505 O504 2.163 1_554 S
Mn505 O508 2.160 . S
Mn505 O509 2.221 1_554 S
Mn505 O511 2.163 . S
Mn505 O513 2.160 . S
Mn505 O523 2.221 . S
O506 Mn507 2.087 . S
O506 C518 1.256 1_554 S
Mn507 O506 2.087 . S
Mn507 O514 2.089 . S
Mn507 O523 2.290 . S
Mn507 O524 2.251 . S
O508 Mn505 2.160 . S
O508 C519 1.239 . S
O509 Mn505 2.221 1_556 S
O509 Mn510 2.290 . S
O509 C520 1.278 . S
Mn510 O509 2.290 . S
Mn510 O512 2.089 1_556 S
Mn510 O515 2.251 . S
Mn510 O516 2.087 . S
O511 Mn505 2.163 . S
O511 C521 1.244 1_554 S
O512 Mn510 2.089 1_554 S
O512 C519 1.256 . S
O513 Mn505 2.160 . S
O513 C522 1.239 . S
O514 Mn507 2.089 . S
O514 C522 1.256 . S
O515 Mn510 2.251 . S
O515 C520 1.241 . S
O516 Mn510 2.087 . S
O516 C521 1.256 . S
C517 O523 1.278 . S
C517 O524 1.241 . S
C518 O504 1.244 . S
C518 O506 1.256 1_556 S
C519 O508 1.239 . S
C519 O512 1.256 . S
C520 O509 1.278 . S
C520 O515 1.241 . S
C521 O511 1.244 1_556 S
C521 O516 1.256 . S
C522 O513 1.239 . S
C522 O514 1.256 . S
O523 Mn505 2.221 . S
O523 Mn507 2.290 . S
O523 C517 1.278 . S
O524 Mn507 2.251 . S
O524 C517 1.241 . S
O525 Mn526 2.163 . S
O525 C539 1.244 . S
Mn526 O525 2.163 . S
Mn526 O529 2.160 . S
Mn526 O530 2.221 . S
Mn526 O532 2.163 . S
Mn526 O534 2.160 . S
Mn526 O544 2.221 . S
O527 Mn528 2.087 . S
O527 C539 1.256 . S
Mn528 O527 2.087 . S
Mn528 O535 2.089 . S
Mn528 O544 2.290 . S
Mn528 O545 2.251 . S
O529 Mn526 2.160 . S
O529 C540 1.239 . S
O530 Mn526 2.221 . S
O530 Mn531 2.290 . S
O530 C541 1.278 . S
Mn531 O530 2.290 . S
Mn531 O533 2.089 . S
Mn531 O536 2.251 . S
Mn531 O537 2.087 . S
O532 Mn526 2.163 . S
O532 C542 1.244 . S
O533 Mn531 2.089 . S
O533 C540 1.256 . S
O534 Mn526 2.160 . S
O534 C543 1.239 . S
O535 Mn528 2.089 . S
O535 C543 1.256 . S
O536 Mn531 2.251 . S
O536 C541 1.241 . S
O537 Mn531 2.087 . S
O537 C542 1.256 . S
C538 O544 1.278 . S
C538 O545 1.241 . S
C539 O525 1.244 . S
C539 O527 1.256 . S
C540 O529 1.239 . S
C540 O533 1.256 . S
C541 O530 1.278 . S
C541 O536 1.241 . S
C542 O532 1.244 . S
C542 O537 1.256 . S
C543 O534 1.239 . S
C543 O535 1.256 . S
O544 Mn526 2.221 . S
O544 Mn528 2.290 . S
O544 C538 1.278 . S
O545 Mn528 2.251 . S
O545 C538 1.241 . S
O546 Mn547 2.163 1_655 S
O546 C560 1.244 . S
Mn547 O546 2.163 1_455 S
Mn547 O550 2.160 . S
Mn547 O551 2.221 1_455 S
Mn547 O553 2.163 . S
Mn547 O555 2.160 . S
Mn547 O565 2.221 . S
O548 Mn549 2.087 . S
O548 C560 1.256 1_455 S
Mn549 O548 2.087 . S
Mn549 O556 2.089 . S
Mn549 O565 2.290 . S
Mn549 O566 2.251 . S
O550 Mn547 2.160 . S
O550 C561 1.239 . S
O551 Mn547 2.221 1_655 S
O551 Mn552 2.290 . S
O551 C562 1.278 . S
Mn552 O551 2.290 . S
Mn552 O554 2.079 1_655 S
Mn552 O557 2.251 . S
Mn552 O558 2.087 . S
O553 Mn547 2.163 . S
O553 C563 1.244 1_455 S
O554 Mn552 2.079 1_455 S
O554 C561 1.263 . S
O555 Mn547 2.160 . S
O555 C564 1.239 . S
O556 Mn549 2.089 . S
O556 C564 1.256 . S
O557 Mn552 2.251 . S
O557 C562 1.241 . S
O558 Mn552 2.087 . S
O558 C563 1.256 . S
C559 O565 1.278 . S
C559 O566 1.241 . S
C560 O546 1.244 . S
C560 O548 1.256 1_655 S
C561 O550 1.239 . S
C561 O554 1.263 . S
C562 O551 1.278 . S
C562 O557 1.241 . S
C563 O553 1.244 1_655 S
C563 O558 1.256 . S
C564 O555 1.239 . S
C564 O556 1.256 . S
O565 Mn547 2.221 . S
O565 Mn549 2.290 . S
O565 C559 1.278 . S
O566 Mn549 2.251 . S
O566 C559 1.241 . S
O567 Mn568 2.163 . S
O567 C581 1.244 . S
Mn568 O567 2.163 . S
Mn568 O571 2.160 . S
Mn568 O572 2.221 . S
Mn568 O574 2.163 . S
Mn568 O576 2.160 . S
Mn568 O586 2.221 . S
O569 Mn570 2.087 . S
O569 C581 1.256 . S
Mn570 O569 2.087 . S
Mn570 O577 2.089 . S
Mn570 O586 2.290 . S
Mn570 O587 2.251 . S
O571 Mn568 2.160 . S
O571 C582 1.239 . S
O572 Mn568 2.221 . S
O572 Mn573 2.290 . S
O572 C583 1.278 . S
Mn573 O572 2.290 . S
Mn573 O575 2.089 . S
Mn573 O578 2.251 . S
Mn573 O579 2.087 . S
O574 Mn568 2.163 . S
O574 C584 1.244 . S
O575 Mn573 2.089 . S
O575 C582 1.256 . S
O576 Mn568 2.160 . S
O576 C585 1.239 . S
O577 Mn570 2.089 . S
O577 C585 1.256 . S
O578 Mn573 2.251 . S
O578 C583 1.241 . S
O579 Mn573 2.087 . S
O579 C584 1.256 . S
C580 O586 1.278 . S
C580 O587 1.241 . S
C581 O567 1.244 . S
C581 O569 1.256 . S
C582 O571 1.239 . S
C582 O575 1.256 . S
C583 O572 1.278 . S
C583 O578 1.241 . S
C584 O574 1.244 . S
C584 O579 1.256 . S
C585 O576 1.239 . S
C585 O577 1.256 . S
O586 Mn568 2.221 . S
O586 Mn570 2.290 . S
O586 C580 1.278 . S
O587 Mn570 2.251 . S
O587 C580 1.241 . S
O588 Mn589 2.163 . S
O588 C602 1.244 . S
Mn589 O588 2.163 . S
Mn589 O592 2.160 . S
Mn589 O593 2.221 . S
Mn589 O595 2.163 . S
Mn589 O597 2.160 . S
Mn589 O607 2.221 . S
O590 Mn591 2.087 . S
O590 C602 1.256 . S
Mn591 O590 2.087 . S
Mn591 O598 2.089 . S
Mn591 O607 2.290 . S
Mn591 O608 2.251 . S
O592 Mn589 2.160 . S
O592 C603 1.239 . S
O593 Mn589 2.221 . S
O593 Mn594 2.290 . S
O593 C604 1.278 . S
Mn594 O593 2.290 . S
Mn594 O596 2.089 . S
Mn594 O599 2.251 . S
Mn594 O600 2.087 . S
O595 Mn589 2.163 . S
O595 C605 1.244 . S
O596 Mn594 2.089 . S
O596 C603 1.256 . S
O597 Mn589 2.160 . S
O597 C606 1.239 . S
O598 Mn591 2.089 . S
O598 C606 1.256 . S
O599 Mn594 2.251 . S
O599 C604 1.241 . S
O600 Mn594 2.087 . S
O600 C605 1.256 . S
C601 O607 1.278 . S
C601 O608 1.241 . S
C602 O588 1.244 . S
C602 O590 1.256 . S
C603 O592 1.239 . S
C603 O596 1.256 . S
C604 O593 1.278 . S
C604 O599 1.241 . S
C605 O595 1.244 . S
C605 O600 1.256 . S
C606 O597 1.239 . S
C606 O598 1.256 . S
O607 Mn589 2.221 . S
O607 Mn591 2.290 . S
O607 C601 1.278 . S
O608 Mn591 2.251 . S
O608 C601 1.241 . S
O609 Mn610 2.163 . S
O609 C623 1.244 . S
Mn610 O609 2.163 . S
Mn610 O613 2.160 . S
Mn610 O614 2.221 . S
Mn610 O616 2.163 . S
Mn610 O618 2.160 . S
Mn610 O628 2.221 . S
O611 Mn612 2.087 . S
O611 C623 1.256 . S
Mn612 O611 2.087 . S
Mn612 O619 2.089 . S
Mn612 O628 2.290 . S
Mn612 O629 2.251 . S
O613 Mn610 2.160 . S
O613 C624 1.239 . S
O614 Mn610 2.221 . S
O614 Mn615 2.290 . S
O614 C625 1.278 . S
Mn615 O614 2.290 . S
Mn615 O617 2.089 . S
Mn615 O620 2.251 . S
Mn615 O621 2.087 . S
O616 Mn610 2.163 . S
O616 C626 1.244 . S
O617 Mn615 2.089 . S
O617 C624 1.256 . S
O618 Mn610 2.160 . S
O618 C627 1.239 . S
O619 Mn612 2.089 . S
O619 C627 1.256 . S
O620 Mn615 2.251 . S
O620 C625 1.241 . S
O621 Mn615 2.087 . S
O621 C626 1.256 . S
C622 O628 1.278 . S
C622 O629 1.241 . S
C623 O609 1.244 . S
C623 O611 1.256 . S
C624 O613 1.239 . S
C624 O617 1.256 . S
C625 O614 1.278 . S
C625 O620 1.241 . S
C626 O616 1.244 . S
C626 O621 1.256 . S
C627 O618 1.239 . S
C627 O619 1.256 . S
O628 Mn610 2.221 . S
O628 Mn612 2.290 . S
O628 C622 1.278 . S
O629 Mn612 2.251 . S
O629 C622 1.241 . S
O630 Mn631 2.163 . S
O630 C644 1.244 . S
Mn631 O630 2.163 . S
Mn631 O634 2.160 . S
Mn631 O635 2.221 . S
Mn631 O637 2.163 . S
Mn631 O639 2.160 . S
Mn631 O649 2.221 . S
O632 Mn633 2.087 . S
O632 C644 1.256 . S
Mn633 O632 2.087 . S
Mn633 O640 2.089 . S
Mn633 O649 2.290 . S
Mn633 O650 2.251 . S
O634 Mn631 2.160 . S
O634 C645 1.239 . S
O635 Mn631 2.221 . S
O635 Mn636 2.290 . S
O635 C646 1.278 . S
Mn636 O635 2.290 . S
Mn636 O638 2.089 . S
Mn636 O641 2.251 . S
Mn636 O642 2.087 . S
O637 Mn631 2.163 . S
O637 C647 1.244 . S
O638 Mn636 2.089 . S
O638 C645 1.256 . S
O639 Mn631 2.160 . S
O639 C648 1.239 . S
O640 Mn633 2.089 . S
O640 C648 1.256 . S
O641 Mn636 2.251 . S
O641 C646 1.241 . S
O642 Mn636 2.087 . S
O642 C647 1.256 . S
C643 O649 1.278 . S
C643 O650 1.241 . S
C644 O630 1.244 . S
C644 O632 1.256 . S
C645 O634 1.239 . S
C645 O638 1.256 . S
C646 O635 1.278 . S
C646 O641 1.241 . S
C647 O637 1.244 . S
C647 O642 1.256 . S
C648 O639 1.239 . S
C648 O640 1.256 . S
O649 Mn631 2.221 . S
O649 Mn633 2.290 . S
O649 C643 1.278 . S
O650 Mn633 2.251 . S
O650 C643 1.241 . S
O651 Mn652 2.158 1_656 S
O651 C665 1.249 . S
Mn652 O651 2.158 1_454 S
Mn652 O655 2.160 . S
Mn652 O656 2.221 . S
Mn652 O658 2.163 1_554 S
Mn652 O660 2.149 1_455 S
Mn652 O670 2.221 1_454 S
O653 Mn654 2.087 1_556 S
O653 C665 1.256 . S
Mn654 O653 2.087 1_554 S
Mn654 O661 2.089 . S
Mn654 O670 2.290 1_554 S
Mn654 O671 2.251 1_554 S
O655 Mn652 2.160 . S
O655 C666 1.239 . S
O656 Mn652 2.221 . S
O656 Mn657 2.290 1_554 S
O656 C667 1.278 . S
Mn657 O656 2.290 1_556 S
Mn657 O659 2.088 1_556 S
Mn657 O662 2.251 1_556 S
Mn657 O663 2.087 . S
O658 Mn652 2.163 1_556 S
O658 C668 1.244 . S
O659 Mn657 2.088 1_554 S
O659 C666 1.259 . S
O660 Mn652 2.149 1_655 S
O660 C669 1.273 . S
O661 Mn654 2.089 . S
O661 C669 1.256 . S
O662 Mn657 2.251 1_554 S
O662 C667 1.241 . S
O663 Mn657 2.087 . S
O663 C668 1.256 . S
C664 O670 1.278 . S
C664 O671 1.241 . S
C665 O651 1.249 . S
C665 O653 1.256 . S
C666 O655 1.239 . S
C666 O659 1.259 . S
C667 O656 1.278 . S
C667 O662 1.241 . S
C668 O658 1.244 . S
C668 O663 1.256 . S
C669 O660 1.273 . S
C669 O661 1.256 . S
O670 Mn652 2.221 1_656 S
O670 Mn654 2.290 1_556 S
O670 C664 1.278 . S
O671 Mn654 2.251 1_556 S
O671 C664 1.241 . S
H672 C680 0.950 . S
H673 C685 0.950 . S
H674 C682 0.950 . S
H675 C684 0.950 . S
H676 C686 0.950 . S
H677 C688 0.950 . S
H678 C690 0.950 . S
H679 C691 0.950 . S
C680 H672 0.950 . S
C680 C681 1.386 1_655 S
C680 C682 1.391 . S
C681 C680 1.386 1_455 S
C681 C685 1.393 . S
C682 H674 0.950 . S
C682 C680 1.391 . S
C682 C683 1.400 1_655 S
C683 C682 1.400 1_455 S
C683 C684 1.398 . S
C683 C689 1.491 . S
C684 H675 0.950 . S
C684 C683 1.398 . S
C684 C685 1.391 . S
C685 H673 0.950 . S
C685 C681 1.393 . S
C685 C684 1.391 . S
C686 H676 0.950 . S
C686 C687 1.386 1_455 S
C686 C688 1.391 . S
C687 C686 1.386 1_655 S
C687 C691 1.393 . S
C688 H677 0.950 . S
C688 C686 1.391 . S
C688 C689 1.400 . S
C689 C683 1.491 . S
C689 C688 1.400 . S
C689 C690 1.398 1_455 S
C690 H678 0.950 . S
C690 C689 1.398 1_655 S
C690 C691 1.391 . S
C691 H679 0.950 . S
C691 C687 1.393 . S
C691 C690 1.391 . S
H692 C700 0.950 . S
H693 C705 0.950 . S
H694 C702 0.950 . S
H695 C704 0.950 . S
H696 C706 0.950 . S
H697 C708 0.950 . S
H698 C710 0.950 . S
H699 C711 0.950 . S
C700 H692 0.950 . S
C700 C701 1.386 . S
C700 C702 1.391 . S
C701 C700 1.386 . S
C701 C705 1.393 . S
C702 H694 0.950 . S
C702 C700 1.391 . S
C702 C703 1.400 . S
C703 C702 1.400 . S
C703 C704 1.398 . S
C703 C709 1.491 . S
C704 H695 0.950 . S
C704 C703 1.398 . S
C704 C705 1.391 . S
C705 H693 0.950 . S
C705 C701 1.393 . S
C705 C704 1.391 . S
C706 H696 0.950 . S
C706 C707 1.386 . S
C706 C708 1.391 . S
C707 C706 1.386 . S
C707 C711 1.393 . S
C708 H697 0.950 . S
C708 C706 1.391 . S
C708 C709 1.400 . S
C709 C703 1.491 . S
C709 C708 1.400 . S
C709 C710 1.398 . S
C710 H698 0.950 . S
C710 C709 1.398 . S
C710 C711 1.391 . S
C711 H699 0.950 . S
C711 C707 1.393 . S
C711 C710 1.391 . S
H712 C720 0.950 . S
H713 C725 0.950 . S
H714 C722 0.950 . S
H715 C724 0.950 . S
H716 C726 0.950 . S
H717 C728 0.950 . S
H718 C730 0.950 . S
H719 C731 0.950 . S
C720 H712 0.950 . S
C720 C721 1.386 . S
C720 C722 1.391 . S
C721 C720 1.386 . S
C721 C725 1.393 . S
C722 H714 0.950 . S
C722 C720 1.391 . S
C722 C723 1.400 . S
C723 C722 1.400 . S
C723 C724 1.398 . S
C723 C729 1.491 . S
C724 H715 0.950 . S
C724 C723 1.398 . S
C724 C725 1.391 . S
C725 H713 0.950 . S
C725 C721 1.393 . S
C725 C724 1.391 . S
C726 H716 0.950 . S
C726 C727 1.386 . S
C726 C728 1.391 . S
C727 C726 1.386 . S
C727 C731 1.393 . S
C728 H717 0.950 . S
C728 C726 1.391 . S
C728 C729 1.400 . S
C729 C723 1.491 . S
C729 C728 1.400 . S
C729 C730 1.398 . S
C730 H718 0.950 . S
C730 C729 1.398 . S
C730 C731 1.391 . S
C731 H719 0.950 . S
C731 C727 1.393 . S
C731 C730 1.391 . S
H732 C740 0.950 . S
H733 C745 0.950 . S
H734 C742 0.950 . S
H735 C744 0.950 . S
H736 C746 0.950 . S
H737 C748 0.950 . S
H738 C750 0.950 . S
H739 C751 0.950 . S
C740 H732 0.950 . S
C740 C741 1.386 . S
C740 C742 1.391 . S
C741 C740 1.386 . S
C741 C745 1.393 . S
C742 H734 0.950 . S
C742 C740 1.391 . S
C742 C743 1.400 . S
C743 C742 1.400 . S
C743 C744 1.398 . S
C743 C749 1.491 . S
C744 H735 0.950 . S
C744 C743 1.398 . S
C744 C745 1.391 . S
C745 H733 0.950 . S
C745 C741 1.393 . S
C745 C744 1.391 . S
C746 H736 0.950 . S
C746 C747 1.386 . S
C746 C748 1.391 . S
C747 C746 1.386 . S
C747 C751 1.393 . S
C748 H737 0.950 . S
C748 C746 1.391 . S
C748 C749 1.400 . S
C749 C743 1.491 . S
C749 C748 1.400 . S
C749 C750 1.398 . S
C750 H738 0.950 . S
C750 C749 1.398 . S
C750 C751 1.391 . S
C751 H739 0.950 . S
C751 C747 1.393 . S
C751 C750 1.391 . S
H752 C760 0.950 . S
H753 C765 0.950 . S
H754 C762 0.950 . S
H755 C764 0.950 . S
H756 C766 0.950 . S
H757 C768 0.950 . S
H758 C770 0.950 . S
H759 C771 0.950 . S
C760 H752 0.950 . S
C760 C761 1.386 1_655 S
C760 C762 1.391 . S
C761 C760 1.386 1_455 S
C761 C765 1.393 . S
C762 H754 0.950 . S
C762 C760 1.391 . S
C762 C763 1.400 1_655 S
C763 C762 1.400 1_455 S
C763 C764 1.398 . S
C763 C769 1.491 . S
C764 H755 0.950 . S
C764 C763 1.398 . S
C764 C765 1.391 . S
C765 H753 0.950 . S
C765 C761 1.393 . S
C765 C764 1.391 . S
C766 H756 0.950 . S
C766 C767 1.386 . S
C766 C768 1.391 . S
C767 C766 1.386 . S
C767 C771 1.393 1_455 S
C768 H757 0.950 . S
C768 C766 1.391 . S
C768 C769 1.400 . S
C769 C763 1.491 . S
C769 C768 1.400 . S
C769 C770 1.398 1_455 S
C770 H758 0.950 . S
C770 C769 1.398 1_655 S
C770 C771 1.391 . S
C771 H759 0.950 . S
C771 C767 1.393 1_655 S
C771 C770 1.391 . S
H772 C780 0.950 . S
H773 C785 0.950 . S
H774 C782 0.950 . S
H775 C784 0.950 . S
H776 C786 0.950 . S
H777 C788 0.950 . S
H778 C790 0.950 . S
H779 C791 0.950 . S
C780 H772 0.950 . S
C780 C781 1.386 . S
C780 C782 1.391 . S
C781 C780 1.386 . S
C781 C785 1.393 . S
C782 H774 0.950 . S
C782 C780 1.391 . S
C782 C783 1.400 . S
C783 C782 1.400 . S
C783 C784 1.398 . S
C783 C789 1.491 . S
C784 H775 0.950 . S
C784 C783 1.398 . S
C784 C785 1.391 . S
C785 H773 0.950 . S
C785 C781 1.393 . S
C785 C784 1.391 . S
C786 H776 0.950 . S
C786 C787 1.386 . S
C786 C788 1.391 . S
C787 C786 1.386 . S
C787 C791 1.393 . S
C788 H777 0.950 . S
C788 C786 1.391 . S
C788 C789 1.400 . S
C789 C783 1.491 . S
C789 C788 1.400 . S
C789 C790 1.398 . S
C790 H778 0.950 . S
C790 C789 1.398 . S
C790 C791 1.391 . S
C791 H779 0.950 . S
C791 C787 1.393 . S
C791 C790 1.391 . S
H792 C800 0.950 . S
H793 C805 0.950 . S
H794 C802 0.950 . S
H795 C804 0.950 . S
H796 C806 0.950 . S
H797 C808 0.950 . S
H798 C810 0.950 . S
H799 C811 0.950 . S
C800 H792 0.950 . S
C800 C801 1.386 . S
C800 C802 1.391 . S
C801 C800 1.386 . S
C801 C805 1.393 . S
C802 H794 0.950 . S
C802 C800 1.391 . S
C802 C803 1.400 . S
C803 C802 1.400 . S
C803 C804 1.398 . S
C803 C809 1.491 . S
C804 H795 0.950 . S
C804 C803 1.398 . S
C804 C805 1.391 . S
C805 H793 0.950 . S
C805 C801 1.393 . S
C805 C804 1.391 . S
C806 H796 0.950 . S
C806 C807 1.386 . S
C806 C808 1.391 . S
C807 C806 1.386 . S
C807 C811 1.393 . S
C808 H797 0.950 . S
C808 C806 1.391 . S
C808 C809 1.400 . S
C809 C803 1.491 . S
C809 C808 1.400 . S
C809 C810 1.398 . S
C810 H798 0.950 . S
C810 C809 1.398 . S
C810 C811 1.391 . S
C811 H799 0.950 . S
C811 C807 1.393 . S
C811 C810 1.391 . S
H812 C820 0.950 . S
H813 C825 0.950 . S
H814 C822 0.950 . S
H815 C824 0.950 . S
H816 C826 0.950 . S
H817 C828 0.950 . S
H818 C830 0.950 . S
H819 C831 0.950 . S
C820 H812 0.950 . S
C820 C821 1.386 . S
C820 C822 1.391 . S
C821 C820 1.386 . S
C821 C825 1.393 . S
C822 H814 0.950 . S
C822 C820 1.391 . S
C822 C823 1.400 . S
C823 C822 1.400 . S
C823 C824 1.398 . S
C823 C829 1.491 . S
C824 H815 0.950 . S
C824 C823 1.398 . S
C824 C825 1.391 . S
C825 H813 0.950 . S
C825 C821 1.393 . S
C825 C824 1.391 . S
C826 H816 0.950 . S
C826 C827 1.386 . S
C826 C828 1.391 . S
C827 C826 1.386 . S
C827 C831 1.393 . S
C828 H817 0.950 . S
C828 C826 1.391 . S
C828 C829 1.400 . S
C829 C823 1.491 . S
C829 C828 1.400 . S
C829 C830 1.398 . S
C830 H818 0.950 . S
C830 C829 1.398 . S
C830 C831 1.391 . S
C831 H819 0.950 . S
C831 C827 1.393 . S
C831 C830 1.391 . S
H832 C840 0.950 . S
H833 C845 0.950 . S
H834 C842 0.950 . S
H835 C844 0.950 . S
H836 C846 0.950 . S
H837 C848 0.950 . S
H838 C850 0.950 . S
H839 C851 0.950 . S
C840 H832 0.950 . S
C840 C841 1.386 . S
C840 C842 1.391 . S
C841 C840 1.386 . S
C841 C845 1.393 1_545 S
C842 H834 0.950 . S
C842 C840 1.391 . S
C842 C843 1.400 . S
C843 C842 1.400 . S
C843 C844 1.398 1_545 S
C843 C849 1.490 1_545 S
C844 H835 0.950 . S
C844 C843 1.398 1_565 S
C844 C845 1.391 . S
C845 H833 0.950 . S
C845 C841 1.393 1_565 S
C845 C844 1.391 . S
C846 H836 0.950 . S
C846 C847 1.386 . S
C846 C848 1.391 . S
C847 C846 1.386 . S
C847 C851 1.393 1_565 S
C848 H837 0.950 . S
C848 C846 1.391 . S
C848 C849 1.422 . S
C849 C843 1.490 1_565 S
C849 C848 1.422 . S
C849 C850 1.378 1_565 S
C850 H838 0.950 . S
C850 C849 1.378 1_545 S
C850 C851 1.391 . S
C851 H839 0.950 . S
C851 C847 1.393 1_545 S
C851 C850 1.391 . S
H852 C860 0.950 . S
H853 C865 0.950 . S
H854 C862 0.950 . S
H855 C864 0.950 . S
H856 C866 0.950 . S
H857 C868 0.950 . S
H858 C870 0.950 . S
H859 C871 0.950 . S
C860 H852 0.950 . S
C860 C861 1.386 . S
C860 C862 1.391 . S
C861 C860 1.386 . S
C861 C865 1.393 . S
C862 H854 0.950 . S
C862 C860 1.391 . S
C862 C863 1.400 . S
C863 C862 1.400 . S
C863 C864 1.398 . S
C863 C869 1.491 . S
C864 H855 0.950 . S
C864 C863 1.398 . S
C864 C865 1.391 . S
C865 H853 0.950 . S
C865 C861 1.393 . S
C865 C864 1.391 . S
C866 H856 0.950 . S
C866 C867 1.386 . S
C866 C868 1.391 . S
C867 C866 1.386 . S
C867 C871 1.393 . S
C868 H857 0.950 . S
C868 C866 1.391 . S
C868 C869 1.400 . S
C869 C863 1.491 . S
C869 C868 1.400 . S
C869 C870 1.398 . S
C870 H858 0.950 . S
C870 C869 1.398 . S
C870 C871 1.391 . S
C871 H859 0.950 . S
C871 C867 1.393 . S
C871 C870 1.391 . S
H872 C880 0.951 . S
H873 C885 0.950 . S
H874 C882 0.950 . S
H875 C884 0.950 . S
H876 C886 0.950 . S
H877 C888 0.950 . S
H878 C890 0.950 . S
H879 C891 0.950 . S
C880 H872 0.951 . S
C880 C881 1.386 . S
C880 C882 1.391 . S
C881 C880 1.386 . S
C881 C885 1.393 . S
C882 H874 0.950 . S
C882 C880 1.391 . S
C882 C883 1.400 . S
C883 C882 1.400 . S
C883 C884 1.398 . S
C883 C889 1.491 . S
C884 H875 0.950 . S
C884 C883 1.398 . S
C884 C885 1.391 . S
C885 H873 0.950 . S
C885 C881 1.393 . S
C885 C884 1.391 . S
C886 H876 0.950 . S
C886 C887 1.386 . S
C886 C888 1.391 . S
C887 C886 1.386 . S
C887 C891 1.393 . S
C888 H877 0.950 . S
C888 C886 1.391 . S
C888 C889 1.400 . S
C889 C883 1.491 . S
C889 C888 1.400 . S
C889 C890 1.398 . S
C890 H878 0.950 . S
C890 C889 1.398 . S
C890 C891 1.391 . S
C891 H879 0.950 . S
C891 C887 1.393 . S
C891 C890 1.391 . S
H892 C900 0.950 . S
H893 C905 0.950 . S
H894 C902 0.950 . S
H895 C904 0.950 . S
H896 C906 0.950 . S
H897 C908 0.950 . S
H898 C910 0.950 . S
H899 C911 0.950 . S
C900 H892 0.950 . S
C900 C901 1.386 . S
C900 C902 1.391 . S
C901 C900 1.386 . S
C901 C905 1.393 . S
C902 H894 0.950 . S
C902 C900 1.391 . S
C902 C903 1.400 . S
C903 C902 1.400 . S
C903 C904 1.398 . S
C903 C909 1.491 . S
C904 H895 0.950 . S
C904 C903 1.398 . S
C904 C905 1.391 . S
C905 H893 0.950 . S
C905 C901 1.393 . S
C905 C904 1.391 . S
C906 H896 0.950 . S
C906 C907 1.386 . S
C906 C908 1.391 . S
C907 C906 1.386 . S
C907 C911 1.393 . S
C908 H897 0.950 . S
C908 C906 1.391 . S
C908 C909 1.400 . S
C909 C903 1.491 . S
C909 C908 1.400 . S
C909 C910 1.398 . S
C910 H898 0.950 . S
C910 C909 1.398 . S
C910 C911 1.391 . S
C911 H899 0.950 . S
C911 C907 1.393 . S
C911 C910 1.391 . S
H912 C920 0.950 . S
H913 C925 0.950 1_565 S
H914 C922 0.950 . S
H915 C924 0.950 1_565 S
H916 C926 0.950 . S
H917 C928 0.950 . S
H918 C930 0.950 . S
H919 C931 0.950 . S
C920 H912 0.950 . S
C920 C921 1.386 . S
C920 C922 1.391 . S
C921 C920 1.386 . S
C921 C925 1.393 . S
C922 H914 0.950 . S
C922 C920 1.391 . S
C922 C923 1.400 . S
C923 C922 1.400 . S
C923 C924 1.398 . S
C923 C929 1.491 . S
C924 H915 0.950 1_545 S
C924 C923 1.398 . S
C924 C925 1.391 . S
C925 H913 0.950 1_545 S
C925 C921 1.393 . S
C925 C924 1.391 . S
C926 H916 0.950 . S
C926 C927 1.386 . S
C926 C928 1.391 . S
C927 C926 1.386 . S
C927 C931 1.393 . S
C928 H917 0.950 . S
C928 C926 1.391 . S
C928 C929 1.400 . S
C929 C923 1.491 . S
C929 C928 1.400 . S
C929 C930 1.398 . S
C930 H918 0.950 . S
C930 C929 1.398 . S
C930 C931 1.391 . S
C931 H919 0.950 . S
C931 C927 1.393 . S
C931 C930 1.391 . S
H932 C940 0.950 . S
H933 C945 0.950 . S
H934 C942 0.950 . S
H935 C944 0.950 . S
H936 C946 0.950 . S
H937 C948 0.950 . S
H938 C950 0.950 . S
H939 C951 0.950 . S
C940 H932 0.950 . S
C940 C941 1.386 . S
C940 C942 1.391 . S
C941 C940 1.386 . S
C941 C945 1.393 . S
C942 H934 0.950 . S
C942 C940 1.391 . S
C942 C943 1.400 . S
C943 C942 1.400 . S
C943 C944 1.398 . S
C943 C949 1.491 . S
C944 H935 0.950 . S
C944 C943 1.398 . S
C944 C945 1.391 . S
C945 H933 0.950 . S
C945 C941 1.393 . S
C945 C944 1.391 . S
C946 H936 0.950 . S
C946 C947 1.386 . S
C946 C948 1.391 . S
C947 C946 1.386 . S
C947 C951 1.393 . S
C948 H937 0.950 . S
C948 C946 1.391 . S
C948 C949 1.400 . S
C949 C943 1.491 . S
C949 C948 1.400 . S
C949 C950 1.398 . S
C950 H938 0.950 . S
C950 C949 1.398 . S
C950 C951 1.391 . S
C951 H939 0.950 . S
C951 C947 1.393 . S
C951 C950 1.391 . S
H952 C960 0.950 . S
H953 C965 0.950 . S
H954 C962 0.950 . S
H955 C964 0.950 . S
H956 C966 0.950 . S
H957 C968 0.950 . S
H958 C970 0.950 . S
H959 C971 0.950 . S
C960 H952 0.950 . S
C960 C961 1.386 1_565 S
C960 C962 1.391 . S
C961 C960 1.386 1_545 S
C961 C965 1.393 . S
C962 H954 0.950 . S
C962 C960 1.391 . S
C962 C963 1.400 1_565 S
C963 C962 1.400 1_545 S
C963 C964 1.398 . S
C963 C969 1.491 1_545 S
C964 H955 0.950 . S
C964 C963 1.398 . S
C964 C965 1.391 . S
C965 H953 0.950 . S
C965 C961 1.393 . S
C965 C964 1.391 . S
C966 H956 0.950 . S
C966 C967 1.386 1_545 S
C966 C968 1.391 . S
C967 C966 1.386 1_565 S
C967 C971 1.393 . S
C968 H957 0.950 . S
C968 C966 1.391 . S
C968 C969 1.400 1_545 S
C969 C963 1.491 1_565 S
C969 C968 1.400 1_565 S
C969 C970 1.399 . S
C970 H958 0.950 . S
C970 C969 1.399 . S
C970 C971 1.391 . S
C971 H959 0.950 . S
C971 C967 1.393 . S
C971 C970 1.391 . S
H972 C980 0.950 . S
H973 C985 0.950 . S
H974 C982 0.950 . S
H975 C984 0.950 . S
H976 C986 0.950 . S
H977 C988 0.950 . S
H978 C990 0.950 . S
H979 C991 0.950 . S
C980 H972 0.950 . S
C980 C981 1.386 . S
C980 C982 1.391 . S
C981 C980 1.386 . S
C981 C985 1.393 . S
C982 H974 0.950 . S
C982 C980 1.391 . S
C982 C983 1.400 . S
C983 C982 1.400 . S
C983 C984 1.398 . S
C983 C989 1.491 . S
C984 H975 0.950 . S
C984 C983 1.398 . S
C984 C985 1.391 . S
C985 H973 0.950 . S
C985 C981 1.393 . S
C985 C984 1.391 . S
C986 H976 0.950 . S
C986 C987 1.386 . S
C986 C988 1.391 . S
C987 C986 1.386 . S
C987 C991 1.393 . S
C988 H977 0.950 . S
C988 C986 1.391 . S
C988 C989 1.400 . S
C989 C983 1.491 . S
C989 C988 1.400 . S
C989 C990 1.398 . S
C990 H978 0.950 . S
C990 C989 1.398 . S
C990 C991 1.391 . S
C991 H979 0.950 . S
C991 C987 1.393 . S
C991 C990 1.391 . S
H992 C1000 0.950 . S
H993 C1005 0.950 . S
H994 C1002 0.950 . S
H995 C1004 0.950 . S
H996 C1006 0.950 . S
H997 C1008 0.950 . S
H998 C1010 0.950 . S
H999 C1011 0.950 . S
C1000 H992 0.950 . S
C1000 C1001 1.386 1_556 S
C1000 C1002 1.391 . S
C1001 C1000 1.386 1_554 S
C1001 C1005 1.393 . S
C1002 H994 0.950 . S
C1002 C1000 1.391 . S
C1002 C1003 1.400 1_556 S
C1003 C1002 1.400 1_554 S
C1003 C1004 1.398 . S
C1003 C1009 1.491 . S
C1004 H995 0.950 . S
C1004 C1003 1.398 . S
C1004 C1005 1.391 . S
C1005 H993 0.950 . S
C1005 C1001 1.393 . S
C1005 C1004 1.391 . S
C1006 H996 0.950 . S
C1006 C1007 1.383 1_554 S
C1006 C1008 1.391 . S
C1007 C1006 1.383 1_556 S
C1007 C1011 1.395 . S
C1008 H997 0.950 . S
C1008 C1006 1.391 . S
C1008 C1009 1.400 . S
C1009 C1003 1.491 . S
C1009 C1008 1.400 . S
C1009 C1010 1.398 1_554 S
C1010 H998 0.950 . S
C1010 C1009 1.398 1_556 S
C1010 C1011 1.391 . S
C1011 H999 0.950 . S
C1011 C1007 1.395 . S
C1011 C1010 1.391 . S
H1012 C1020 0.950 . S
H1013 C1025 0.950 . S
H1014 C1022 0.950 . S
H1015 C1024 0.950 . S
H1016 C1026 0.950 . S
H1017 C1028 0.950 . S
H1018 C1030 0.950 . S
H1019 C1031 0.969 . S
C1020 H1012 0.950 . S
C1020 C1021 1.386 1_556 S
C1020 C1022 1.391 . S
C1021 C1020 1.386 1_554 S
C1021 C1025 1.393 . S
C1022 H1014 0.950 . S
C1022 C1020 1.391 . S
C1022 C1023 1.400 1_556 S
C1023 C1022 1.400 1_554 S
C1023 C1024 1.398 . S
C1023 C1029 1.491 . S
C1024 H1015 0.950 . S
C1024 C1023 1.398 . S
C1024 C1025 1.391 . S
C1025 H1013 0.950 . S
C1025 C1021 1.393 . S
C1025 C1024 1.391 . S
C1026 H1016 0.950 . S
C1026 C1027 1.386 . S
C1026 C1028 1.391 . S
C1027 C1026 1.386 . S
C1027 C1031 1.372 1_554 S
C1028 H1017 0.950 . S
C1028 C1026 1.391 . S
C1028 C1029 1.400 . S
C1029 C1023 1.491 . S
C1029 C1028 1.400 . S
C1029 C1030 1.398 1_554 S
C1030 H1018 0.950 . S
C1030 C1029 1.398 1_556 S
C1030 C1031 1.393 . S
C1031 H1019 0.969 . S
C1031 C1027 1.372 1_556 S
C1031 C1030 1.393 . S
H1032 C1040 0.950 . S
H1033 C1045 0.950 . S
H1034 C1042 0.950 . S
H1035 C1044 0.950 . S
H1036 C1046 0.950 . S
H1037 C1048 0.950 . S
H1038 C1050 0.950 . S
H1039 C1051 0.950 . S
C1040 H1032 0.950 . S
C1040 C1041 1.386 . S
C1040 C1042 1.391 . S
C1041 C1040 1.386 . S
C1041 C1045 1.393 . S
C1042 H1034 0.950 . S
C1042 C1040 1.391 . S
C1042 C1043 1.400 . S
C1043 C1042 1.400 . S
C1043 C1044 1.398 . S
C1043 C1049 1.491 . S
C1044 H1035 0.950 . S
C1044 C1043 1.398 . S
C1044 C1045 1.391 . S
C1045 H1033 0.950 . S
C1045 C1041 1.393 . S
C1045 C1044 1.391 . S
C1046 H1036 0.950 . S
C1046 C1047 1.386 . S
C1046 C1048 1.391 . S
C1047 C1046 1.386 . S
C1047 C1051 1.393 . S
C1048 H1037 0.950 . S
C1048 C1046 1.391 . S
C1048 C1049 1.400 . S
C1049 C1043 1.491 . S
C1049 C1048 1.400 . S
C1049 C1050 1.398 . S
C1050 H1038 0.950 . S
C1050 C1049 1.398 . S
C1050 C1051 1.391 . S
C1051 H1039 0.950 . S
C1051 C1047 1.393 . S
C1051 C1050 1.391 . S
H1052 C1060 0.950 . S
H1053 C1065 0.950 . S
H1054 C1062 0.950 . S
H1055 C1064 0.950 . S
H1056 C1066 0.950 . S
H1057 C1068 0.950 . S
H1058 C1070 0.950 . S
H1059 C1071 0.950 . S
C1060 H1052 0.950 . S
C1060 C1061 1.386 . S
C1060 C1062 1.391 . S
C1061 C1060 1.386 . S
C1061 C1065 1.393 . S
C1062 H1054 0.950 . S
C1062 C1060 1.391 . S
C1062 C1063 1.400 . S
C1063 C1062 1.400 . S
C1063 C1064 1.398 . S
C1063 C1069 1.491 . S
C1064 H1055 0.950 . S
C1064 C1063 1.398 . S
C1064 C1065 1.391 . S
C1065 H1053 0.950 . S
C1065 C1061 1.393 . S
C1065 C1064 1.391 . S
C1066 H1056 0.950 . S
C1066 C1067 1.386 . S
C1066 C1068 1.391 . S
C1067 C1066 1.386 . S
C1067 C1071 1.393 . S
C1068 H1057 0.950 . S
C1068 C1066 1.391 . S
C1068 C1069 1.400 . S
C1069 C1063 1.491 . S
C1069 C1068 1.400 . S
C1069 C1070 1.398 . S
C1070 H1058 0.950 . S
C1070 C1069 1.398 . S
C1070 C1071 1.391 . S
C1071 H1059 0.950 . S
C1071 C1067 1.393 . S
C1071 C1070 1.391 . S
H1072 C1080 0.950 . S
H1073 C1085 0.950 . S
H1074 C1082 0.950 . S
H1075 C1084 0.950 . S
H1076 C1086 0.950 . S
H1077 C1088 0.950 . S
H1078 C1090 0.950 . S
H1079 C1091 0.950 . S
C1080 H1072 0.950 . S
C1080 C1081 1.386 . S
C1080 C1082 1.391 . S
C1081 C1080 1.386 . S
C1081 C1085 1.393 . S
C1082 H1074 0.950 . S
C1082 C1080 1.391 . S
C1082 C1083 1.400 . S
C1083 C1082 1.400 . S
C1083 C1084 1.398 . S
C1083 C1089 1.491 . S
C1084 H1075 0.950 . S
C1084 C1083 1.398 . S
C1084 C1085 1.391 . S
C1085 H1073 0.950 . S
C1085 C1081 1.393 . S
C1085 C1084 1.391 . S
C1086 H1076 0.950 . S
C1086 C1087 1.386 . S
C1086 C1088 1.391 . S
C1087 C1086 1.386 . S
C1087 C1091 1.393 . S
C1088 H1077 0.950 . S
C1088 C1086 1.391 . S
C1088 C1089 1.400 . S
C1089 C1083 1.491 . S
C1089 C1088 1.400 . S
C1089 C1090 1.398 . S
C1090 H1078 0.950 . S
C1090 C1089 1.398 . S
C1090 C1091 1.391 . S
C1091 H1079 0.950 . S
C1091 C1087 1.393 . S
C1091 C1090 1.391 . S
H1092 C1100 0.950 . S
H1093 C1105 0.950 . S
H1094 C1102 0.950 . S
H1095 C1104 0.950 . S
H1096 C1106 0.950 . S
H1097 C1108 0.950 . S
H1098 C1110 0.950 . S
H1099 C1111 0.950 . S
C1100 H1092 0.950 . S
C1100 C1101 1.386 . S
C1100 C1102 1.391 . S
C1101 C1100 1.386 . S
C1101 C1105 1.393 . S
C1102 H1094 0.950 . S
C1102 C1100 1.391 . S
C1102 C1103 1.400 . S
C1103 C1102 1.400 . S
C1103 C1104 1.398 . S
C1103 C1109 1.491 . S
C1104 H1095 0.950 . S
C1104 C1103 1.398 . S
C1104 C1105 1.391 . S
C1105 H1093 0.950 . S
C1105 C1101 1.393 . S
C1105 C1104 1.391 . S
C1106 H1096 0.950 . S
C1106 C1107 1.386 . S
C1106 C1108 1.391 . S
C1107 C1106 1.386 . S
C1107 C1111 1.393 . S
C1108 H1097 0.950 . S
C1108 C1106 1.391 . S
C1108 C1109 1.400 . S
C1109 C1103 1.491 . S
C1109 C1108 1.400 . S
C1109 C1110 1.398 . S
C1110 H1098 0.950 . S
C1110 C1109 1.398 . S
C1110 C1111 1.391 . S
C1111 H1099 0.950 . S
C1111 C1107 1.393 . S
C1111 C1110 1.391 . S
H1112 C1120 0.950 . S
H1113 C1125 0.950 . S
H1114 C1122 0.950 . S
H1115 C1124 0.950 . S
H1116 C1126 0.950 . S
H1117 C1128 0.950 . S
H1118 C1130 0.950 . S
H1119 C1131 0.950 . S
C1120 H1112 0.950 . S
C1120 C1121 1.386 . S
C1120 C1122 1.391 . S
C1121 C1120 1.386 . S
C1121 C1125 1.393 . S
C1122 H1114 0.950 . S
C1122 C1120 1.391 . S
C1122 C1123 1.400 . S
C1123 C1122 1.400 . S
C1123 C1124 1.398 . S
C1123 C1129 1.491 . S
C1124 H1115 0.950 . S
C1124 C1123 1.398 . S
C1124 C1125 1.391 . S
C1125 H1113 0.950 . S
C1125 C1121 1.393 . S
C1125 C1124 1.391 . S
C1126 H1116 0.950 . S
C1126 C1127 1.386 . S
C1126 C1128 1.391 . S
C1127 C1126 1.386 . S
C1127 C1131 1.393 . S
C1128 H1117 0.950 . S
C1128 C1126 1.391 . S
C1128 C1129 1.400 . S
C1129 C1123 1.491 . S
C1129 C1128 1.400 . S
C1129 C1130 1.398 . S
C1130 H1118 0.950 . S
C1130 C1129 1.398 . S
C1130 C1131 1.391 . S
C1131 H1119 0.950 . S
C1131 C1127 1.393 . S
C1131 C1130 1.391 . S
H1132 C1140 0.950 . S
H1133 C1145 0.950 . S
H1134 C1142 0.950 . S
H1135 C1144 0.950 . S
H1136 C1146 0.950 . S
H1137 C1148 0.950 . S
H1138 C1150 0.950 . S
H1139 C1151 0.950 . S
C1140 H1132 0.950 . S
C1140 C1141 1.386 . S
C1140 C1142 1.391 . S
C1141 C1140 1.386 . S
C1141 C1145 1.393 . S
C1142 H1134 0.950 . S
C1142 C1140 1.391 . S
C1142 C1143 1.400 . S
C1143 C1142 1.400 . S
C1143 C1144 1.398 . S
C1143 C1149 1.491 . S
C1144 H1135 0.950 . S
C1144 C1143 1.398 . S
C1144 C1145 1.391 . S
C1145 H1133 0.950 . S
C1145 C1141 1.393 . S
C1145 C1144 1.391 . S
C1146 H1136 0.950 . S
C1146 C1147 1.386 . S
C1146 C1148 1.391 . S
C1147 C1146 1.386 . S
C1147 C1151 1.393 . S
C1148 H1137 0.950 . S
C1148 C1146 1.391 . S
C1148 C1149 1.400 . S
C1149 C1143 1.491 . S
C1149 C1148 1.400 . S
C1149 C1150 1.398 . S
C1150 H1138 0.950 . S
C1150 C1149 1.398 . S
C1150 C1151 1.391 . S
C1151 H1139 0.950 . S
C1151 C1147 1.393 . S
C1151 C1150 1.391 . S
H1152 C1160 0.950 . S
H1153 C1165 0.954 . S
H1154 C1162 0.950 . S
H1155 C1164 0.937 1_655 S
H1156 C1166 0.930 1_655 S
H1157 C1168 0.941 1_655 S
H1158 C1170 0.950 . S
H1159 C1171 0.950 . S
C1160 H1152 0.950 . S
C1160 C1161 1.386 . S
C1160 C1162 1.391 . S
C1161 C1160 1.386 . S
C1161 C1165 1.389 1_455 S
C1162 H1154 0.950 . S
C1162 C1160 1.391 . S
C1162 C1163 1.400 . S
C1163 C1162 1.400 . S
C1163 C1164 1.412 . S
C1163 C1169 1.491 . S
C1164 H1155 0.937 1_455 S
C1164 C1163 1.412 . S
C1164 C1165 1.391 1_455 S
C1165 H1153 0.954 . S
C1165 C1161 1.389 1_655 S
C1165 C1164 1.391 1_655 S
C1166 H1156 0.930 1_455 S
C1166 C1167 1.406 . S
C1166 C1168 1.391 . S
C1167 C1166 1.406 . S
C1167 C1171 1.393 . S
C1168 H1157 0.941 1_455 S
C1168 C1166 1.391 . S
C1168 C1169 1.409 . S
C1169 C1163 1.491 . S
C1169 C1168 1.409 . S
C1169 C1170 1.398 . S
C1170 H1158 0.950 . S
C1170 C1169 1.398 . S
C1170 C1171 1.391 . S
C1171 H1159 0.950 . S
C1171 C1167 1.393 . S
C1171 C1170 1.391 . S
H1172 C1180 0.950 . S
H1173 C1185 0.950 . S
H1174 C1182 0.950 . S
H1175 C1184 0.950 . S
H1176 C1186 0.950 . S
H1177 C1188 0.950 . S
H1178 C1190 0.950 . S
H1179 C1191 0.950 . S
C1180 H1172 0.950 . S
C1180 C1181 1.386 . S
C1180 C1182 1.391 . S
C1181 C1180 1.386 . S
C1181 C1185 1.393 . S
C1182 H1174 0.950 . S
C1182 C1180 1.391 . S
C1182 C1183 1.400 . S
C1183 C1182 1.400 . S
C1183 C1184 1.398 . S
C1183 C1189 1.491 . S
C1184 H1175 0.950 . S
C1184 C1183 1.398 . S
C1184 C1185 1.391 . S
C1185 H1173 0.950 . S
C1185 C1181 1.393 . S
C1185 C1184 1.391 . S
C1186 H1176 0.950 . S
C1186 C1187 1.386 . S
C1186 C1188 1.391 . S
C1187 C1186 1.386 . S
C1187 C1191 1.393 . S
C1188 H1177 0.950 . S
C1188 C1186 1.391 . S
C1188 C1189 1.400 . S
C1189 C1183 1.491 . S
C1189 C1188 1.400 . S
C1189 C1190 1.398 . S
C1190 H1178 0.950 . S
C1190 C1189 1.398 . S
C1190 C1191 1.391 . S
C1191 H1179 0.950 . S
C1191 C1187 1.393 . S
C1191 C1190 1.391 . S
H1192 C1200 0.950 . S
H1193 C1205 0.950 . S
H1194 C1202 0.950 . S
H1195 C1204 0.950 . S
H1196 C1206 0.950 . S
H1197 C1208 0.950 . S
H1198 C1210 0.950 . S
H1199 C1211 0.950 . S
C1200 H1192 0.950 . S
C1200 C1201 1.386 . S
C1200 C1202 1.391 . S
C1201 C1200 1.386 . S
C1201 C1205 1.393 . S
C1202 H1194 0.950 . S
C1202 C1200 1.391 . S
C1202 C1203 1.400 . S
C1203 C1202 1.400 . S
C1203 C1204 1.398 . S
C1203 C1209 1.491 . S
C1204 H1195 0.950 . S
C1204 C1203 1.398 . S
C1204 C1205 1.391 . S
C1205 H1193 0.950 . S
C1205 C1201 1.393 . S
C1205 C1204 1.391 . S
C1206 H1196 0.950 . S
C1206 C1207 1.386 . S
C1206 C1208 1.391 . S
C1207 C1206 1.386 . S
C1207 C1211 1.393 . S
C1208 H1197 0.950 . S
C1208 C1206 1.391 . S
C1208 C1209 1.400 . S
C1209 C1203 1.491 . S
C1209 C1208 1.400 . S
C1209 C1210 1.398 . S
C1210 H1198 0.950 . S
C1210 C1209 1.398 . S
C1210 C1211 1.391 . S
C1211 H1199 0.950 . S
C1211 C1207 1.393 . S
C1211 C1210 1.391 . S
H1212 C1220 0.950 . S
H1213 C1225 0.950 . S
H1214 C1222 0.950 . S
H1215 C1224 0.950 . S
H1216 C1226 0.950 . S
H1217 C1228 0.950 . S
H1218 C1230 0.950 . S
H1219 C1231 0.950 . S
C1220 H1212 0.950 . S
C1220 C1221 1.386 . S
C1220 C1222 1.391 . S
C1221 C1220 1.386 . S
C1221 C1225 1.393 . S
C1222 H1214 0.950 . S
C1222 C1220 1.391 . S
C1222 C1223 1.400 . S
C1223 C1222 1.400 . S
C1223 C1224 1.398 . S
C1223 C1229 1.491 . S
C1224 H1215 0.950 . S
C1224 C1223 1.398 . S
C1224 C1225 1.391 . S
C1225 H1213 0.950 . S
C1225 C1221 1.393 . S
C1225 C1224 1.391 . S
C1226 H1216 0.950 . S
C1226 C1227 1.386 . S
C1226 C1228 1.391 . S
C1227 C1226 1.386 . S
C1227 C1231 1.393 . S
C1228 H1217 0.950 . S
C1228 C1226 1.391 . S
C1228 C1229 1.400 . S
C1229 C1223 1.491 . S
C1229 C1228 1.400 . S
C1229 C1230 1.398 . S
C1230 H1218 0.950 . S
C1230 C1229 1.398 . S
C1230 C1231 1.391 . S
C1231 H1219 0.950 . S
C1231 C1227 1.393 . S
C1231 C1230 1.391 . S
H1232 C1240 0.950 . S
H1233 C1245 0.950 . S
H1234 C1242 0.950 . S
H1235 C1244 0.950 . S
H1236 C1246 0.950 . S
H1237 C1248 0.950 . S
H1238 C1250 0.950 . S
H1239 C1251 0.950 . S
C1240 H1232 0.950 . S
C1240 C1241 1.386 1_655 S
C1240 C1242 1.391 . S
C1241 C1240 1.386 1_455 S
C1241 C1245 1.393 . S
C1242 H1234 0.950 . S
C1242 C1240 1.391 . S
C1242 C1243 1.400 1_655 S
C1243 C1242 1.400 1_455 S
C1243 C1244 1.398 . S
C1243 C1249 1.491 . S
C1244 H1235 0.950 . S
C1244 C1243 1.398 . S
C1244 C1245 1.391 . S
C1245 H1233 0.950 . S
C1245 C1241 1.393 . S
C1245 C1244 1.391 . S
C1246 H1236 0.950 . S
C1246 C1247 1.386 . S
C1246 C1248 1.391 . S
C1247 C1246 1.386 . S
C1247 C1251 1.393 1_455 S
C1248 H1237 0.950 . S
C1248 C1246 1.391 . S
C1248 C1249 1.400 . S
C1249 C1243 1.491 . S
C1249 C1248 1.400 . S
C1249 C1250 1.398 1_455 S
C1250 H1238 0.950 . S
C1250 C1249 1.398 1_655 S
C1250 C1251 1.391 . S
C1251 H1239 0.950 . S
C1251 C1247 1.393 1_655 S
C1251 C1250 1.391 . S
H1252 C1260 0.950 . S
H1253 C1265 0.950 . S
H1254 C1262 0.950 . S
H1255 C1264 0.950 . S
H1256 C1266 0.950 . S
H1257 C1268 0.950 . S
H1258 C1270 0.950 . S
H1259 C1271 0.950 . S
C1260 H1252 0.950 . S
C1260 C1261 1.386 . S
C1260 C1262 1.391 . S
C1261 C1260 1.386 . S
C1261 C1265 1.393 . S
C1262 H1254 0.950 . S
C1262 C1260 1.391 . S
C1262 C1263 1.400 . S
C1263 C1262 1.400 . S
C1263 C1264 1.398 . S
C1263 C1269 1.491 . S
C1264 H1255 0.950 . S
C1264 C1263 1.398 . S
C1264 C1265 1.391 . S
C1265 H1253 0.950 . S
C1265 C1261 1.393 . S
C1265 C1264 1.391 . S
C1266 H1256 0.950 . S
C1266 C1267 1.386 . S
C1266 C1268 1.391 . S
C1267 C1266 1.386 . S
C1267 C1271 1.393 . S
C1268 H1257 0.950 . S
C1268 C1266 1.391 . S
C1268 C1269 1.400 . S
C1269 C1263 1.491 . S
C1269 C1268 1.400 . S
C1269 C1270 1.398 . S
C1270 H1258 0.950 . S
C1270 C1269 1.398 . S
C1270 C1271 1.391 . S
C1271 H1259 0.950 . S
C1271 C1267 1.393 . S
C1271 C1270 1.391 . S
H1272 C1280 0.950 . S
H1273 C1285 0.950 . S
H1274 C1282 0.950 . S
H1275 C1284 0.950 . S
H1276 C1286 0.950 . S
H1277 C1288 0.950 . S
H1278 C1290 0.950 . S
H1279 C1291 0.950 . S
C1280 H1272 0.950 . S
C1280 C1281 1.386 . S
C1280 C1282 1.391 . S
C1281 C1280 1.386 . S
C1281 C1285 1.393 . S
C1282 H1274 0.950 . S
C1282 C1280 1.391 . S
C1282 C1283 1.400 . S
C1283 C1282 1.400 . S
C1283 C1284 1.398 . S
C1283 C1289 1.491 . S
C1284 H1275 0.950 . S
C1284 C1283 1.398 . S
C1284 C1285 1.391 . S
C1285 H1273 0.950 . S
C1285 C1281 1.393 . S
C1285 C1284 1.391 . S
C1286 H1276 0.950 . S
C1286 C1287 1.386 . S
C1286 C1288 1.391 . S
C1287 C1286 1.386 . S
C1287 C1291 1.393 . S
C1288 H1277 0.950 . S
C1288 C1286 1.391 . S
C1288 C1289 1.400 . S
C1289 C1283 1.491 . S
C1289 C1288 1.400 . S
C1289 C1290 1.398 . S
C1290 H1278 0.950 . S
C1290 C1289 1.398 . S
C1290 C1291 1.391 . S
C1291 H1279 0.950 . S
C1291 C1287 1.393 . S
C1291 C1290 1.391 . S
H1292 C1300 0.950 . S
H1293 C1305 0.950 . S
H1294 C1302 0.950 . S
H1295 C1304 0.950 . S
H1296 C1306 0.950 . S
H1297 C1308 0.950 . S
H1298 C1310 0.950 . S
H1299 C1311 0.950 . S
C1300 H1292 0.950 . S
C1300 C1301 1.386 . S
C1300 C1302 1.391 . S
C1301 C1300 1.386 . S
C1301 C1305 1.393 . S
C1302 H1294 0.950 . S
C1302 C1300 1.391 . S
C1302 C1303 1.400 . S
C1303 C1302 1.400 . S
C1303 C1304 1.398 . S
C1303 C1309 1.491 . S
C1304 H1295 0.950 . S
C1304 C1303 1.398 . S
C1304 C1305 1.391 . S
C1305 H1293 0.950 . S
C1305 C1301 1.393 . S
C1305 C1304 1.391 . S
C1306 H1296 0.950 . S
C1306 C1307 1.386 . S
C1306 C1308 1.391 . S
C1307 C1306 1.386 . S
C1307 C1311 1.393 . S
C1308 H1297 0.950 . S
C1308 C1306 1.391 . S
C1308 C1309 1.400 . S
C1309 C1303 1.491 . S
C1309 C1308 1.400 . S
C1309 C1310 1.398 . S
C1310 H1298 0.950 . S
C1310 C1309 1.398 . S
C1310 C1311 1.391 . S
C1311 H1299 0.950 . S
C1311 C1307 1.393 . S
C1311 C1310 1.391 . S
H1312 C1320 0.950 . S
H1313 C1325 0.950 . S
H1314 C1322 0.950 . S
H1315 C1324 0.950 . S
H1316 C1326 0.950 . S
H1317 C1328 0.950 . S
H1318 C1330 0.950 . S
H1319 C1331 0.950 . S
C1320 H1312 0.950 . S
C1320 C1321 1.365 1_565 S
C1320 C1322 1.391 . S
C1321 C1320 1.365 1_545 S
C1321 C1325 1.415 . S
C1322 H1314 0.950 . S
C1322 C1320 1.391 . S
C1322 C1323 1.400 1_565 S
C1323 C1322 1.400 1_545 S
C1323 C1324 1.398 . S
C1323 C1329 1.491 . S
C1324 H1315 0.950 . S
C1324 C1323 1.398 . S
C1324 C1325 1.391 . S
C1325 H1313 0.950 . S
C1325 C1321 1.415 . S
C1325 C1324 1.391 . S
C1326 H1316 0.950 . S
C1326 C1327 1.386 . S
C1326 C1328 1.391 . S
C1327 C1326 1.386 . S
C1327 C1331 1.393 1_545 S
C1328 H1317 0.950 . S
C1328 C1326 1.391 . S
C1328 C1329 1.400 . S
C1329 C1323 1.491 . S
C1329 C1328 1.400 . S
C1329 C1330 1.398 1_545 S
C1330 H1318 0.950 . S
C1330 C1329 1.398 1_565 S
C1330 C1331 1.391 . S
C1331 H1319 0.950 . S
C1331 C1327 1.393 1_565 S
C1331 C1330 1.391 . S
H1332 C1340 0.950 . S
H1333 C1345 0.950 . S
H1334 C1342 0.950 . S
H1335 C1344 0.950 . S
H1336 C1346 0.950 . S
H1337 C1348 0.950 . S
H1338 C1350 0.950 . S
H1339 C1351 0.950 . S
C1340 H1332 0.950 . S
C1340 C1341 1.386 . S
C1340 C1342 1.391 . S
C1341 C1340 1.386 . S
C1341 C1345 1.393 . S
C1342 H1334 0.950 . S
C1342 C1340 1.391 . S
C1342 C1343 1.400 . S
C1343 C1342 1.400 . S
C1343 C1344 1.398 . S
C1343 C1349 1.491 . S
C1344 H1335 0.950 . S
C1344 C1343 1.398 . S
C1344 C1345 1.391 . S
C1345 H1333 0.950 . S
C1345 C1341 1.393 . S
C1345 C1344 1.391 . S
C1346 H1336 0.950 . S
C1346 C1347 1.386 . S
C1346 C1348 1.391 . S
C1347 C1346 1.386 . S
C1347 C1351 1.393 . S
C1348 H1337 0.950 . S
C1348 C1346 1.391 . S
C1348 C1349 1.400 . S
C1349 C1343 1.491 . S
C1349 C1348 1.400 . S
C1349 C1350 1.398 . S
C1350 H1338 0.950 . S
C1350 C1349 1.398 . S
C1350 C1351 1.391 . S
C1351 H1339 0.950 . S
C1351 C1347 1.393 . S
C1351 C1350 1.391 . S
H1352 C1360 0.950 . S
H1353 C1365 0.950 . S
H1354 C1362 0.950 . S
H1355 C1364 0.950 1_565 S
H1356 C1366 0.950 . S
H1357 C1368 0.950 . S
H1358 C1370 0.950 . S
H1359 C1371 0.952 . S
C1360 H1352 0.950 . S
C1360 C1361 1.386 . S
C1360 C1362 1.391 . S
C1361 C1360 1.386 . S
C1361 C1365 1.393 . S
C1362 H1354 0.950 . S
C1362 C1360 1.391 . S
C1362 C1363 1.400 . S
C1363 C1362 1.400 . S
C1363 C1364 1.398 . S
C1363 C1369 1.491 . S
C1364 H1355 0.950 1_545 S
C1364 C1363 1.398 . S
C1364 C1365 1.391 . S
C1365 H1353 0.950 . S
C1365 C1361 1.393 . S
C1365 C1364 1.391 . S
C1366 H1356 0.950 . S
C1366 C1367 1.386 . S
C1366 C1368 1.391 . S
C1367 C1366 1.386 . S
C1367 C1371 1.387 1_565 S
C1368 H1357 0.950 . S
C1368 C1366 1.391 . S
C1368 C1369 1.400 1_565 S
C1369 C1363 1.491 . S
C1369 C1368 1.400 1_545 S
C1369 C1370 1.398 . S
C1370 H1358 0.950 . S
C1370 C1369 1.398 . S
C1370 C1371 1.395 . S
C1371 H1359 0.952 . S
C1371 C1367 1.387 1_545 S
C1371 C1370 1.395 . S
H1372 C1380 0.950 . S
H1373 C1385 0.950 . S
H1374 C1382 0.950 . S
H1375 C1384 0.950 . S
H1376 C1386 0.950 . S
H1377 C1388 0.950 . S
H1378 C1390 0.950 . S
H1379 C1391 0.950 . S
C1380 H1372 0.950 . S
C1380 C1381 1.386 . S
C1380 C1382 1.391 . S
C1381 C1380 1.386 . S
C1381 C1385 1.393 . S
C1382 H1374 0.950 . S
C1382 C1380 1.391 . S
C1382 C1383 1.400 . S
C1383 C1382 1.400 . S
C1383 C1384 1.398 . S
C1383 C1389 1.491 . S
C1384 H1375 0.950 . S
C1384 C1383 1.398 . S
C1384 C1385 1.391 . S
C1385 H1373 0.950 . S
C1385 C1381 1.393 . S
C1385 C1384 1.391 . S
C1386 H1376 0.950 . S
C1386 C1387 1.386 . S
C1386 C1388 1.391 . S
C1387 C1386 1.386 . S
C1387 C1391 1.393 . S
C1388 H1377 0.950 . S
C1388 C1386 1.391 . S
C1388 C1389 1.400 . S
C1389 C1383 1.491 . S
C1389 C1388 1.400 . S
C1389 C1390 1.398 . S
C1390 H1378 0.950 . S
C1390 C1389 1.398 . S
C1390 C1391 1.391 . S
C1391 H1379 0.950 . S
C1391 C1387 1.393 . S
C1391 C1390 1.391 . S
H1392 C1400 0.950 1_545 S
H1393 C1405 0.950 . S
H1394 C1402 0.950 1_545 S
H1395 C1404 0.950 . S
H1396 C1406 0.950 . S
H1397 C1408 0.950 . S
H1398 C1410 0.949 1_545 S
H1399 C1411 0.944 1_445 S
C1400 H1392 0.950 1_565 S
C1400 C1401 1.386 . S
C1400 C1402 1.391 . S
C1401 C1400 1.386 . S
C1401 C1405 1.393 . S
C1402 H1394 0.950 1_565 S
C1402 C1400 1.391 . S
C1402 C1403 1.400 . S
C1403 C1402 1.400 . S
C1403 C1404 1.398 . S
C1403 C1409 1.491 . S
C1404 H1395 0.950 . S
C1404 C1403 1.398 . S
C1404 C1405 1.391 . S
C1405 H1393 0.950 . S
C1405 C1401 1.393 . S
C1405 C1404 1.391 . S
C1406 H1396 0.950 . S
C1406 C1407 1.386 . S
C1406 C1408 1.391 . S
C1407 C1406 1.386 . S
C1407 C1411 1.400 . S
C1408 H1397 0.950 . S
C1408 C1406 1.391 . S
C1408 C1409 1.400 . S
C1409 C1403 1.491 . S
C1409 C1408 1.400 . S
C1409 C1410 1.399 . S
C1410 H1398 0.949 1_565 S
C1410 C1409 1.399 . S
C1410 C1411 1.391 . S
C1411 H1399 0.944 1_665 S
C1411 C1407 1.400 . S
C1411 C1410 1.391 . S
H1412 C1420 0.950 . S
H1413 C1425 0.950 . S
H1414 C1422 0.950 . S
H1415 C1424 0.950 . S
H1416 C1426 0.950 . S
H1417 C1428 0.950 . S
H1418 C1430 0.950 . S
H1419 C1431 0.950 . S
C1420 H1412 0.950 . S
C1420 C1421 1.386 . S
C1420 C1422 1.391 . S
C1421 C1420 1.386 . S
C1421 C1425 1.393 . S
C1422 H1414 0.950 . S
C1422 C1420 1.391 . S
C1422 C1423 1.400 . S
C1423 C1422 1.400 . S
C1423 C1424 1.398 . S
C1423 C1429 1.491 . S
C1424 H1415 0.950 . S
C1424 C1423 1.398 . S
C1424 C1425 1.391 . S
C1425 H1413 0.950 . S
C1425 C1421 1.393 . S
C1425 C1424 1.391 . S
C1426 H1416 0.950 . S
C1426 C1427 1.386 . S
C1426 C1428 1.391 . S
C1427 C1426 1.386 . S
C1427 C1431 1.393 . S
C1428 H1417 0.950 . S
C1428 C1426 1.391 . S
C1428 C1429 1.400 . S
C1429 C1423 1.491 . S
C1429 C1428 1.400 . S
C1429 C1430 1.398 . S
C1430 H1418 0.950 . S
C1430 C1429 1.398 . S
C1430 C1431 1.391 . S
C1431 H1419 0.950 . S
C1431 C1427 1.393 . S
C1431 C1430 1.391 . S
H1432 C1440 0.950 1_565 S
H1433 C1445 0.950 . S
H1434 C1442 0.950 . S
H1435 C1444 0.950 . S
H1436 C1446 0.950 . S
H1437 C1448 0.950 . S
H1438 C1450 0.950 . S
H1439 C1451 0.950 . S
C1440 H1432 0.950 1_545 S
C1440 C1441 1.386 . S
C1440 C1442 1.391 . S
C1441 C1440 1.386 . S
C1441 C1445 1.393 . S
C1442 H1434 0.950 . S
C1442 C1440 1.391 . S
C1442 C1443 1.400 . S
C1443 C1442 1.400 . S
C1443 C1444 1.398 . S
C1443 C1449 1.491 . S
C1444 H1435 0.950 . S
C1444 C1443 1.398 . S
C1444 C1445 1.391 . S
C1445 H1433 0.950 . S
C1445 C1441 1.393 . S
C1445 C1444 1.391 . S
C1446 H1436 0.950 . S
C1446 C1447 1.386 . S
C1446 C1448 1.391 . S
C1447 C1446 1.386 . S
C1447 C1451 1.393 . S
C1448 H1437 0.950 . S
C1448 C1446 1.391 . S
C1448 C1449 1.400 . S
C1449 C1443 1.491 . S
C1449 C1448 1.400 . S
C1449 C1450 1.398 . S
C1450 H1438 0.950 . S
C1450 C1449 1.398 . S
C1450 C1451 1.391 . S
C1451 H1439 0.950 . S
C1451 C1447 1.393 . S
C1451 C1450 1.391 . S
H1452 C1460 0.950 . S
H1453 C1465 0.950 . S
H1454 C1462 0.950 . S
H1455 C1464 0.950 . S
H1456 C1466 0.950 . S
H1457 C1468 0.950 . S
H1458 C1470 0.950 . S
H1459 C1471 0.950 . S
C1460 H1452 0.950 . S
C1460 C1461 1.386 . S
C1460 C1462 1.391 . S
C1461 C1460 1.386 . S
C1461 C1465 1.393 . S
C1462 H1454 0.950 . S
C1462 C1460 1.391 . S
C1462 C1463 1.400 . S
C1463 C1462 1.400 . S
C1463 C1464 1.398 . S
C1463 C1469 1.491 . S
C1464 H1455 0.950 . S
C1464 C1463 1.398 . S
C1464 C1465 1.391 . S
C1465 H1453 0.950 . S
C1465 C1461 1.393 . S
C1465 C1464 1.391 . S
C1466 H1456 0.950 . S
C1466 C1467 1.386 . S
C1466 C1468 1.391 . S
C1467 C1466 1.386 . S
C1467 C1471 1.393 . S
C1468 H1457 0.950 . S
C1468 C1466 1.391 . S
C1468 C1469 1.400 . S
C1469 C1463 1.491 . S
C1469 C1468 1.400 . S
C1469 C1470 1.398 . S
C1470 H1458 0.950 . S
C1470 C1469 1.398 . S
C1470 C1471 1.391 . S
C1471 H1459 0.950 . S
C1471 C1467 1.393 . S
C1471 C1470 1.391 . S
H1472 C1480 0.950 . S
H1473 C1485 0.950 . S
H1474 C1482 0.950 . S
H1475 C1484 0.950 . S
H1476 C1486 0.950 . S
H1477 C1488 0.950 . S
H1478 C1490 0.950 . S
H1479 C1491 0.950 . S
C1480 H1472 0.950 . S
C1480 C1481 1.386 1_556 S
C1480 C1482 1.391 . S
C1481 C1480 1.386 1_554 S
C1481 C1485 1.393 . S
C1482 H1474 0.950 . S
C1482 C1480 1.391 . S
C1482 C1483 1.400 1_556 S
C1483 C1482 1.400 1_554 S
C1483 C1484 1.398 . S
C1483 C1489 1.491 . S
C1484 H1475 0.950 . S
C1484 C1483 1.398 . S
C1484 C1485 1.391 . S
C1485 H1473 0.950 . S
C1485 C1481 1.393 . S
C1485 C1484 1.391 . S
C1486 H1476 0.950 . S
C1486 C1487 1.386 . S
C1486 C1488 1.391 . S
C1487 C1486 1.386 . S
C1487 C1491 1.393 1_554 S
C1488 H1477 0.950 . S
C1488 C1486 1.391 . S
C1488 C1489 1.400 . S
C1489 C1483 1.491 . S
C1489 C1488 1.400 . S
C1489 C1490 1.398 1_554 S
C1490 H1478 0.950 . S
C1490 C1489 1.398 1_556 S
C1490 C1491 1.391 . S
C1491 H1479 0.950 . S
C1491 C1487 1.393 1_556 S
C1491 C1490 1.391 . S
H1492 C1500 0.950 . S
H1493 C1505 0.950 . S
H1494 C1502 0.950 . S
H1495 C1504 0.950 . S
H1496 C1506 0.950 . S
H1497 C1508 0.950 . S
H1498 C1510 0.950 . S
H1499 C1511 0.950 . S
C1500 H1492 0.950 . S
C1500 C1501 1.386 1_556 S
C1500 C1502 1.391 . S
C1501 C1500 1.386 1_554 S
C1501 C1505 1.393 . S
C1502 H1494 0.950 . S
C1502 C1500 1.391 . S
C1502 C1503 1.393 1_556 S
C1503 C1502 1.393 1_554 S
C1503 C1504 1.406 . S
C1503 C1509 1.490 1_554 S
C1504 H1495 0.950 . S
C1504 C1503 1.406 . S
C1504 C1505 1.391 . S
C1505 H1493 0.950 . S
C1505 C1501 1.393 . S
C1505 C1504 1.391 . S
C1506 H1496 0.950 . S
C1506 C1507 1.386 1_554 S
C1506 C1508 1.391 . S
C1507 C1506 1.386 1_556 S
C1507 C1511 1.393 . S
C1508 H1497 0.950 . S
C1508 C1506 1.391 . S
C1508 C1509 1.400 1_554 S
C1509 C1503 1.490 1_556 S
C1509 C1508 1.400 1_556 S
C1509 C1510 1.398 . S
C1510 H1498 0.950 . S
C1510 C1509 1.398 . S
C1510 C1511 1.391 . S
C1511 H1499 0.950 . S
C1511 C1507 1.393 . S
C1511 C1510 1.391 . S
H1512 C1520 0.950 . S
H1513 C1525 0.950 . S
H1514 C1522 0.950 . S
H1515 C1524 0.950 . S
H1516 C1526 0.950 . S
H1517 C1528 0.950 . S
H1518 C1530 0.950 . S
H1519 C1531 0.950 . S
C1520 H1512 0.950 . S
C1520 C1521 1.386 . S
C1520 C1522 1.391 . S
C1521 C1520 1.386 . S
C1521 C1525 1.393 . S
C1522 H1514 0.950 . S
C1522 C1520 1.391 . S
C1522 C1523 1.400 . S
C1523 C1522 1.400 . S
C1523 C1524 1.398 . S
C1523 C1529 1.491 . S
C1524 H1515 0.950 . S
C1524 C1523 1.398 . S
C1524 C1525 1.391 . S
C1525 H1513 0.950 . S
C1525 C1521 1.393 . S
C1525 C1524 1.391 . S
C1526 H1516 0.950 . S
C1526 C1527 1.386 . S
C1526 C1528 1.391 . S
C1527 C1526 1.386 . S
C1527 C1531 1.393 . S
C1528 H1517 0.950 . S
C1528 C1526 1.391 . S
C1528 C1529 1.400 . S
C1529 C1523 1.491 . S
C1529 C1528 1.400 . S
C1529 C1530 1.398 . S
C1530 H1518 0.950 . S
C1530 C1529 1.398 . S
C1530 C1531 1.391 . S
C1531 H1519 0.950 . S
C1531 C1527 1.393 . S
C1531 C1530 1.391 . S
H1532 C1540 0.950 . S
H1533 C1545 0.950 . S
H1534 C1542 0.950 . S
H1535 C1544 0.950 . S
H1536 C1546 0.950 . S
H1537 C1548 0.950 . S
H1538 C1550 0.950 . S
H1539 C1551 0.950 . S
C1540 H1532 0.950 . S
C1540 C1541 1.386 . S
C1540 C1542 1.391 . S
C1541 C1540 1.386 . S
C1541 C1545 1.393 . S
C1542 H1534 0.950 . S
C1542 C1540 1.391 . S
C1542 C1543 1.400 . S
C1543 C1542 1.400 . S
C1543 C1544 1.398 . S
C1543 C1549 1.491 . S
C1544 H1535 0.950 . S
C1544 C1543 1.398 . S
C1544 C1545 1.391 . S
C1545 H1533 0.950 . S
C1545 C1541 1.393 . S
C1545 C1544 1.391 . S
C1546 H1536 0.950 . S
C1546 C1547 1.386 . S
C1546 C1548 1.391 . S
C1547 C1546 1.386 . S
C1547 C1551 1.393 . S
C1548 H1537 0.950 . S
C1548 C1546 1.391 . S
C1548 C1549 1.400 . S
C1549 C1543 1.491 . S
C1549 C1548 1.400 . S
C1549 C1550 1.398 . S
C1550 H1538 0.950 . S
C1550 C1549 1.398 . S
C1550 C1551 1.391 . S
C1551 H1539 0.950 . S
C1551 C1547 1.393 . S
C1551 C1550 1.391 . S
H1552 C1560 0.950 . S
H1553 C1565 0.950 . S
H1554 C1562 0.950 . S
H1555 C1564 0.950 . S
H1556 C1566 0.950 . S
H1557 C1568 0.950 . S
H1558 C1570 0.950 . S
H1559 C1571 0.950 . S
C1560 H1552 0.950 . S
C1560 C1561 1.386 . S
C1560 C1562 1.391 . S
C1561 C1560 1.386 . S
C1561 C1565 1.393 . S
C1562 H1554 0.950 . S
C1562 C1560 1.391 . S
C1562 C1563 1.400 . S
C1563 C1562 1.400 . S
C1563 C1564 1.398 . S
C1563 C1569 1.491 . S
C1564 H1555 0.950 . S
C1564 C1563 1.398 . S
C1564 C1565 1.391 . S
C1565 H1553 0.950 . S
C1565 C1561 1.393 . S
C1565 C1564 1.391 . S
C1566 H1556 0.950 . S
C1566 C1567 1.386 . S
C1566 C1568 1.391 . S
C1567 C1566 1.386 . S
C1567 C1571 1.393 . S
C1568 H1557 0.950 . S
C1568 C1566 1.391 . S
C1568 C1569 1.400 . S
C1569 C1563 1.491 . S
C1569 C1568 1.400 . S
C1569 C1570 1.398 . S
C1570 H1558 0.950 . S
C1570 C1569 1.398 . S
C1570 C1571 1.391 . S
C1571 H1559 0.950 . S
C1571 C1567 1.393 . S
C1571 C1570 1.391 . S
H1572 C1580 0.950 . S
H1573 C1585 0.950 . S
H1574 C1582 0.950 . S
H1575 C1584 0.950 . S
H1576 C1586 0.950 . S
H1577 C1588 0.950 . S
H1578 C1590 0.950 . S
H1579 C1591 0.950 . S
C1580 H1572 0.950 . S
C1580 C1581 1.386 . S
C1580 C1582 1.391 . S
C1581 C1580 1.386 . S
C1581 C1585 1.393 . S
C1582 H1574 0.950 . S
C1582 C1580 1.391 . S
C1582 C1583 1.400 . S
C1583 C1582 1.400 . S
C1583 C1584 1.398 . S
C1583 C1589 1.491 . S
C1584 H1575 0.950 . S
C1584 C1583 1.398 . S
C1584 C1585 1.391 . S
C1585 H1573 0.950 . S
C1585 C1581 1.393 . S
C1585 C1584 1.391 . S
C1586 H1576 0.950 . S
C1586 C1587 1.386 . S
C1586 C1588 1.391 . S
C1587 C1586 1.386 . S
C1587 C1591 1.393 . S
C1588 H1577 0.950 . S
C1588 C1586 1.391 . S
C1588 C1589 1.400 . S
C1589 C1583 1.491 . S
C1589 C1588 1.400 . S
C1589 C1590 1.398 . S
C1590 H1578 0.950 . S
C1590 C1589 1.398 . S
C1590 C1591 1.391 . S
C1591 H1579 0.950 . S
C1591 C1587 1.393 . S
C1591 C1590 1.391 . S
H1592 C1600 0.950 . S
H1593 C1605 0.950 . S
H1594 C1602 0.950 . S
H1595 C1604 0.950 . S
H1596 C1606 0.950 . S
H1597 C1608 0.950 . S
H1598 C1610 0.950 . S
H1599 C1611 0.950 . S
C1600 H1592 0.950 . S
C1600 C1601 1.386 . S
C1600 C1602 1.391 . S
C1601 C1600 1.386 . S
C1601 C1605 1.393 . S
C1602 H1594 0.950 . S
C1602 C1600 1.391 . S
C1602 C1603 1.400 . S
C1603 C1602 1.400 . S
C1603 C1604 1.398 . S
C1603 C1609 1.491 . S
C1604 H1595 0.950 . S
C1604 C1603 1.398 . S
C1604 C1605 1.391 . S
C1605 H1593 0.950 . S
C1605 C1601 1.393 . S
C1605 C1604 1.391 . S
C1606 H1596 0.950 . S
C1606 C1607 1.386 . S
C1606 C1608 1.391 . S
C1607 C1606 1.386 . S
C1607 C1611 1.393 . S
C1608 H1597 0.950 . S
C1608 C1606 1.391 . S
C1608 C1609 1.400 . S
C1609 C1603 1.491 . S
C1609 C1608 1.400 . S
C1609 C1610 1.398 . S
C1610 H1598 0.950 . S
C1610 C1609 1.398 . S
C1610 C1611 1.391 . S
C1611 H1599 0.950 . S
C1611 C1607 1.393 . S
C1611 C1610 1.391 . S
H1612 C1620 0.950 . S
H1613 C1625 0.950 . S
H1614 C1622 0.950 . S
H1615 C1624 0.950 . S
H1616 C1626 0.950 . S
H1617 C1628 0.950 . S
H1618 C1630 0.950 . S
H1619 C1631 0.950 . S
C1620 H1612 0.950 . S
C1620 C1621 1.386 . S
C1620 C1622 1.391 . S
C1621 C1620 1.386 . S
C1621 C1625 1.393 . S
C1622 H1614 0.950 . S
C1622 C1620 1.391 . S
C1622 C1623 1.400 . S
C1623 C1622 1.400 . S
C1623 C1624 1.398 . S
C1623 C1629 1.491 . S
C1624 H1615 0.950 . S
C1624 C1623 1.398 . S
C1624 C1625 1.391 . S
C1625 H1613 0.950 . S
C1625 C1621 1.393 . S
C1625 C1624 1.391 . S
C1626 H1616 0.950 . S
C1626 C1627 1.386 . S
C1626 C1628 1.391 . S
C1627 C1626 1.386 . S
C1627 C1631 1.393 . S
C1628 H1617 0.950 . S
C1628 C1626 1.391 . S
C1628 C1629 1.400 . S
C1629 C1623 1.491 . S
C1629 C1628 1.400 . S
C1629 C1630 1.398 . S
C1630 H1618 0.950 . S
C1630 C1629 1.398 . S
C1630 C1631 1.391 . S
C1631 H1619 0.950 . S
C1631 C1627 1.393 . S
C1631 C1630 1.391 . S
H1632 C1640 0.950 . S
H1633 C1645 0.950 . S
H1634 C1642 0.950 . S
H1635 C1644 0.950 . S
H1636 C1646 0.950 . S
H1637 C1648 0.950 . S
H1638 C1650 0.950 . S
H1639 C1651 0.950 . S
C1640 H1632 0.950 . S
C1640 C1641 1.386 . S
C1640 C1642 1.391 . S
C1641 C1640 1.386 . S
C1641 C1645 1.393 . S
C1642 H1634 0.950 . S
C1642 C1640 1.391 . S
C1642 C1643 1.400 . S
C1643 C1642 1.400 . S
C1643 C1644 1.398 . S
C1643 C1649 1.491 . S
C1644 H1635 0.950 . S
C1644 C1643 1.398 . S
C1644 C1645 1.391 . S
C1645 H1633 0.950 . S
C1645 C1641 1.393 . S
C1645 C1644 1.391 . S
C1646 H1636 0.950 . S
C1646 C1647 1.386 . S
C1646 C1648 1.391 . S
C1647 C1646 1.386 . S
C1647 C1651 1.393 . S
C1648 H1637 0.950 . S
C1648 C1646 1.391 . S
C1648 C1649 1.400 . S
C1649 C1643 1.491 . S
C1649 C1648 1.400 . S
C1649 C1650 1.398 . S
C1650 H1638 0.950 . S
C1650 C1649 1.398 . S
C1650 C1651 1.391 . S
C1651 H1639 0.950 . S
C1651 C1647 1.393 . S
C1651 C1650 1.391 . S
H1652 C1660 0.950 . S
H1653 C1665 0.950 . S
H1654 C1662 0.950 . S
H1655 C1664 0.950 . S
H1656 C1666 0.950 . S
H1657 C1668 0.950 . S
H1658 C1670 0.950 . S
H1659 C1671 0.950 . S
C1660 H1652 0.950 . S
C1660 C1661 1.386 . S
C1660 C1662 1.391 . S
C1661 C1660 1.386 . S
C1661 C1665 1.393 . S
C1662 H1654 0.950 . S
C1662 C1660 1.391 . S
C1662 C1663 1.400 . S
C1663 C1662 1.400 . S
C1663 C1664 1.398 . S
C1663 C1669 1.491 . S
C1664 H1655 0.950 . S
C1664 C1663 1.398 . S
C1664 C1665 1.391 . S
C1665 H1653 0.950 . S
C1665 C1661 1.393 . S
C1665 C1664 1.391 . S
C1666 H1656 0.950 . S
C1666 C1667 1.386 . S
C1666 C1668 1.391 . S
C1667 C1666 1.386 . S
C1667 C1671 1.393 . S
C1668 H1657 0.950 . S
C1668 C1666 1.391 . S
C1668 C1669 1.400 . S
C1669 C1663 1.491 . S
C1669 C1668 1.400 . S
C1669 C1670 1.398 . S
C1670 H1658 0.950 . S
C1670 C1669 1.398 . S
C1670 C1671 1.391 . S
C1671 H1659 0.950 . S
C1671 C1667 1.393 . S
C1671 C1670 1.391 . S
H1672 C1680 0.950 . S
H1673 C1685 0.950 . S
H1674 C1682 0.950 . S
H1675 C1684 0.950 . S
H1676 C1686 0.950 . S
H1677 C1688 0.950 . S
H1678 C1690 0.950 . S
H1679 C1691 0.950 . S
C1680 H1672 0.950 . S
C1680 C1681 1.386 1_655 S
C1680 C1682 1.391 . S
C1681 C1680 1.386 1_455 S
C1681 C1685 1.393 . S
C1682 H1674 0.950 . S
C1682 C1680 1.391 . S
C1682 C1683 1.400 1_655 S
C1683 C1682 1.400 1_455 S
C1683 C1684 1.398 . S
C1683 C1689 1.491 . S
C1684 H1675 0.950 . S
C1684 C1683 1.398 . S
C1684 C1685 1.391 . S
C1685 H1673 0.950 . S
C1685 C1681 1.393 . S
C1685 C1684 1.391 . S
C1686 H1676 0.950 . S
C1686 C1687 1.386 . S
C1686 C1688 1.391 . S
C1687 C1686 1.386 . S
C1687 C1691 1.393 1_455 S
C1688 H1677 0.950 . S
C1688 C1686 1.391 . S
C1688 C1689 1.400 . S
C1689 C1683 1.491 . S
C1689 C1688 1.400 . S
C1689 C1690 1.398 1_455 S
C1690 H1678 0.950 . S
C1690 C1689 1.398 1_655 S
C1690 C1691 1.391 . S
C1691 H1679 0.950 . S
C1691 C1687 1.393 1_655 S
C1691 C1690 1.391 . S
H1692 C1700 0.950 . S
H1693 C1705 0.950 . S
H1694 C1702 0.950 . S
H1695 C1704 0.950 . S
H1696 C1706 0.950 . S
H1697 C1708 0.950 . S
H1698 C1710 0.950 . S
H1699 C1711 0.950 . S
C1700 H1692 0.950 . S
C1700 C1701 1.386 . S
C1700 C1702 1.391 . S
C1701 C1700 1.386 . S
C1701 C1705 1.393 . S
C1702 H1694 0.950 . S
C1702 C1700 1.391 . S
C1702 C1703 1.400 . S
C1703 C1702 1.400 . S
C1703 C1704 1.398 . S
C1703 C1709 1.491 . S
C1704 H1695 0.950 . S
C1704 C1703 1.398 . S
C1704 C1705 1.391 . S
C1705 H1693 0.950 . S
C1705 C1701 1.393 . S
C1705 C1704 1.391 . S
C1706 H1696 0.950 . S
C1706 C1707 1.386 . S
C1706 C1708 1.391 . S
C1707 C1706 1.386 . S
C1707 C1711 1.393 . S
C1708 H1697 0.950 . S
C1708 C1706 1.391 . S
C1708 C1709 1.400 . S
C1709 C1703 1.491 . S
C1709 C1708 1.400 . S
C1709 C1710 1.398 . S
C1710 H1698 0.950 . S
C1710 C1709 1.398 . S
C1710 C1711 1.391 . S
C1711 H1699 0.950 . S
C1711 C1707 1.393 . S
C1711 C1710 1.391 . S
H1712 C1720 0.950 . S
H1713 C1725 0.950 . S
H1714 C1722 0.950 . S
H1715 C1724 0.950 . S
H1716 C1726 0.950 . S
H1717 C1728 0.950 . S
H1718 C1730 0.950 . S
H1719 C1731 0.905 1_554 S
C1720 H1712 0.950 . S
C1720 C1721 1.386 . S
C1720 C1722 1.391 . S
C1721 C1720 1.386 . S
C1721 C1725 1.393 . S
C1722 H1714 0.950 . S
C1722 C1720 1.391 . S
C1722 C1723 1.400 . S
C1723 C1722 1.400 . S
C1723 C1724 1.398 . S
C1723 C1729 1.491 . S
C1724 H1715 0.950 . S
C1724 C1723 1.398 . S
C1724 C1725 1.391 . S
C1725 H1713 0.950 . S
C1725 C1721 1.393 . S
C1725 C1724 1.391 . S
C1726 H1716 0.950 . S
C1726 C1727 1.386 . S
C1726 C1728 1.391 . S
C1727 C1726 1.386 . S
C1727 C1731 1.393 . S
C1728 H1717 0.950 . S
C1728 C1726 1.391 . S
C1728 C1729 1.400 . S
C1729 C1723 1.491 . S
C1729 C1728 1.400 . S
C1729 C1730 1.398 . S
C1730 H1718 0.950 . S
C1730 C1729 1.398 . S
C1730 C1731 1.391 . S
C1731 H1719 0.905 1_556 S
C1731 C1727 1.393 . S
C1731 C1730 1.391 . S
H1732 C1740 0.950 . S
H1733 C1745 0.950 . S
H1734 C1742 0.950 . S
H1735 C1744 0.950 . S
H1736 C1746 0.950 . S
H1737 C1748 0.950 . S
H1738 C1750 0.950 . S
H1739 C1751 0.950 . S
C1740 H1732 0.950 . S
C1740 C1741 1.386 . S
C1740 C1742 1.391 . S
C1741 C1740 1.386 . S
C1741 C1745 1.393 . S
C1742 H1734 0.950 . S
C1742 C1740 1.391 . S
C1742 C1743 1.400 . S
C1743 C1742 1.400 . S
C1743 C1744 1.398 . S
C1743 C1749 1.491 . S
C1744 H1735 0.950 . S
C1744 C1743 1.398 . S
C1744 C1745 1.391 . S
C1745 H1733 0.950 . S
C1745 C1741 1.393 . S
C1745 C1744 1.391 . S
C1746 H1736 0.950 . S
C1746 C1747 1.386 . S
C1746 C1748 1.391 . S
C1747 C1746 1.386 . S
C1747 C1751 1.393 . S
C1748 H1737 0.950 . S
C1748 C1746 1.391 . S
C1748 C1749 1.400 . S
C1749 C1743 1.491 . S
C1749 C1748 1.400 . S
C1749 C1750 1.398 . S
C1750 H1738 0.950 . S
C1750 C1749 1.398 . S
C1750 C1751 1.391 . S
C1751 H1739 0.950 . S
C1751 C1747 1.393 . S
C1751 C1750 1.391 . S
H1752 C1760 0.950 . S
H1753 C1765 0.950 . S
H1754 C1762 0.950 . S
H1755 C1764 0.950 . S
H1756 C1766 0.950 . S
H1757 C1768 0.950 . S
H1758 C1770 0.950 . S
H1759 C1771 0.950 . S
C1760 H1752 0.950 . S
C1760 C1761 1.386 1_655 S
C1760 C1762 1.391 . S
C1761 C1760 1.386 1_455 S
C1761 C1765 1.393 . S
C1762 H1754 0.950 . S
C1762 C1760 1.391 . S
C1762 C1763 1.400 1_655 S
C1763 C1762 1.400 1_455 S
C1763 C1764 1.398 . S
C1763 C1769 1.491 . S
C1764 H1755 0.950 . S
C1764 C1763 1.398 . S
C1764 C1765 1.391 . S
C1765 H1753 0.950 . S
C1765 C1761 1.393 . S
C1765 C1764 1.391 . S
C1766 H1756 0.950 . S
C1766 C1767 1.386 . S
C1766 C1768 1.391 . S
C1767 C1766 1.386 . S
C1767 C1771 1.393 1_455 S
C1768 H1757 0.950 . S
C1768 C1766 1.391 . S
C1768 C1769 1.400 . S
C1769 C1763 1.491 . S
C1769 C1768 1.400 . S
C1769 C1770 1.398 1_455 S
C1770 H1758 0.950 . S
C1770 C1769 1.398 1_655 S
C1770 C1771 1.391 . S
C1771 H1759 0.950 . S
C1771 C1767 1.393 1_655 S
C1771 C1770 1.391 . S
H1772 C1780 0.950 . S
H1773 C1785 0.950 . S
H1774 C1782 0.950 . S
H1775 C1784 0.950 . S
H1776 C1786 0.950 . S
H1777 C1788 0.950 . S
H1778 C1790 0.950 . S
H1779 C1791 0.950 . S
C1780 H1772 0.950 . S
C1780 C1781 1.386 . S
C1780 C1782 1.391 . S
C1781 C1780 1.386 . S
C1781 C1785 1.393 . S
C1782 H1774 0.950 . S
C1782 C1780 1.391 . S
C1782 C1783 1.400 . S
C1783 C1782 1.400 . S
C1783 C1784 1.398 . S
C1783 C1789 1.491 . S
C1784 H1775 0.950 . S
C1784 C1783 1.398 . S
C1784 C1785 1.391 . S
C1785 H1773 0.950 . S
C1785 C1781 1.393 . S
C1785 C1784 1.391 . S
C1786 H1776 0.950 . S
C1786 C1787 1.386 . S
C1786 C1788 1.391 . S
C1787 C1786 1.386 . S
C1787 C1791 1.393 . S
C1788 H1777 0.950 . S
C1788 C1786 1.391 . S
C1788 C1789 1.400 . S
C1789 C1783 1.491 . S
C1789 C1788 1.400 . S
C1789 C1790 1.398 . S
C1790 H1778 0.950 . S
C1790 C1789 1.398 . S
C1790 C1791 1.391 . S
C1791 H1779 0.950 . S
C1791 C1787 1.393 . S
C1791 C1790 1.391 . S
H1792 C1800 0.950 . S
H1793 C1805 0.950 . S
H1794 C1802 0.950 . S
H1795 C1804 0.950 . S
H1796 C1806 0.950 . S
H1797 C1808 0.950 . S
H1798 C1810 0.950 . S
H1799 C1811 0.950 . S
C1800 H1792 0.950 . S
C1800 C1801 1.386 . S
C1800 C1802 1.391 . S
C1801 C1800 1.386 . S
C1801 C1805 1.393 . S
C1802 H1794 0.950 . S
C1802 C1800 1.391 . S
C1802 C1803 1.400 . S
C1803 C1802 1.400 . S
C1803 C1804 1.398 . S
C1803 C1809 1.491 . S
C1804 H1795 0.950 . S
C1804 C1803 1.398 . S
C1804 C1805 1.391 . S
C1805 H1793 0.950 . S
C1805 C1801 1.393 . S
C1805 C1804 1.391 . S
C1806 H1796 0.950 . S
C1806 C1807 1.386 . S
C1806 C1808 1.391 . S
C1807 C1806 1.386 . S
C1807 C1811 1.393 . S
C1808 H1797 0.950 . S
C1808 C1806 1.391 . S
C1808 C1809 1.400 . S
C1809 C1803 1.491 . S
C1809 C1808 1.400 . S
C1809 C1810 1.398 . S
C1810 H1798 0.950 . S
C1810 C1809 1.398 . S
C1810 C1811 1.391 . S
C1811 H1799 0.950 . S
C1811 C1807 1.393 . S
C1811 C1810 1.391 . S
H1812 C1820 0.950 . S
H1813 C1825 0.950 . S
H1814 C1822 0.950 . S
H1815 C1824 0.950 . S
H1816 C1826 0.950 . S
H1817 C1828 0.950 . S
H1818 C1830 0.950 . S
H1819 C1831 0.950 . S
C1820 H1812 0.950 . S
C1820 C1821 1.386 . S
C1820 C1822 1.391 . S
C1821 C1820 1.386 . S
C1821 C1825 1.393 . S
C1822 H1814 0.950 . S
C1822 C1820 1.391 . S
C1822 C1823 1.400 . S
C1823 C1822 1.400 . S
C1823 C1824 1.398 . S
C1823 C1829 1.491 . S
C1824 H1815 0.950 . S
C1824 C1823 1.398 . S
C1824 C1825 1.391 . S
C1825 H1813 0.950 . S
C1825 C1821 1.393 . S
C1825 C1824 1.391 . S
C1826 H1816 0.950 . S
C1826 C1827 1.386 . S
C1826 C1828 1.391 . S
C1827 C1826 1.386 . S
C1827 C1831 1.393 . S
C1828 H1817 0.950 . S
C1828 C1826 1.391 . S
C1828 C1829 1.400 . S
C1829 C1823 1.491 . S
C1829 C1828 1.400 . S
C1829 C1830 1.398 . S
C1830 H1818 0.950 . S
C1830 C1829 1.398 . S
C1830 C1831 1.391 . S
C1831 H1819 0.950 . S
C1831 C1827 1.393 . S
C1831 C1830 1.391 . S
H1832 C1840 0.950 . S
H1833 C1845 0.950 . S
H1834 C1842 0.950 . S
H1835 C1844 0.950 . S
H1836 C1846 0.950 . S
H1837 C1848 0.950 . S
H1838 C1850 0.950 . S
H1839 C1851 0.950 . S
C1840 H1832 0.950 . S
C1840 C1841 1.386 . S
C1840 C1842 1.391 . S
C1841 C1840 1.386 . S
C1841 C1845 1.393 . S
C1842 H1834 0.950 . S
C1842 C1840 1.391 . S
C1842 C1843 1.400 . S
C1843 C1842 1.400 . S
C1843 C1844 1.398 . S
C1843 C1849 1.491 . S
C1844 H1835 0.950 . S
C1844 C1843 1.398 . S
C1844 C1845 1.391 . S
C1845 H1833 0.950 . S
C1845 C1841 1.393 . S
C1845 C1844 1.391 . S
C1846 H1836 0.950 . S
C1846 C1847 1.386 . S
C1846 C1848 1.391 . S
C1847 C1846 1.386 . S
C1847 C1851 1.393 . S
C1848 H1837 0.950 . S
C1848 C1846 1.391 . S
C1848 C1849 1.400 . S
C1849 C1843 1.491 . S
C1849 C1848 1.400 . S
C1849 C1850 1.398 . S
C1850 H1838 0.950 . S
C1850 C1849 1.398 . S
C1850 C1851 1.391 . S
C1851 H1839 0.950 . S
C1851 C1847 1.393 . S
C1851 C1850 1.391 . S
H1852 C1860 0.950 . S
H1853 C1865 0.950 . S
H1854 C1862 0.950 . S
H1855 C1864 0.950 . S
H1856 C1866 0.950 . S
H1857 C1868 0.950 . S
H1858 C1870 0.950 . S
H1859 C1871 0.950 . S
C1860 H1852 0.950 . S
C1860 C1861 1.386 . S
C1860 C1862 1.391 . S
C1861 C1860 1.386 . S
C1861 C1865 1.393 . S
C1862 H1854 0.950 . S
C1862 C1860 1.391 . S
C1862 C1863 1.400 . S
C1863 C1862 1.400 . S
C1863 C1864 1.398 . S
C1863 C1869 1.491 . S
C1864 H1855 0.950 . S
C1864 C1863 1.398 . S
C1864 C1865 1.391 . S
C1865 H1853 0.950 . S
C1865 C1861 1.393 . S
C1865 C1864 1.391 . S
C1866 H1856 0.950 . S
C1866 C1867 1.386 . S
C1866 C1868 1.391 . S
C1867 C1866 1.386 . S
C1867 C1871 1.393 . S
C1868 H1857 0.950 . S
C1868 C1866 1.391 . S
C1868 C1869 1.400 . S
C1869 C1863 1.491 . S
C1869 C1868 1.400 . S
C1869 C1870 1.398 . S
C1870 H1858 0.950 . S
C1870 C1869 1.398 . S
C1870 C1871 1.391 . S
C1871 H1859 0.950 . S
C1871 C1867 1.393 . S
C1871 C1870 1.391 . S
H1872 C1880 0.950 . S
H1873 C1885 0.950 . S
H1874 C1882 0.950 . S
H1875 C1884 0.950 . S
H1876 C1886 0.950 . S
H1877 C1888 0.950 . S
H1878 C1890 0.950 . S
H1879 C1891 0.950 . S
C1880 H1872 0.950 . S
C1880 C1881 1.386 . S
C1880 C1882 1.391 . S
C1881 C1880 1.386 . S
C1881 C1885 1.393 . S
C1882 H1874 0.950 . S
C1882 C1880 1.391 . S
C1882 C1883 1.400 . S
C1883 C1882 1.400 . S
C1883 C1884 1.398 . S
C1883 C1889 1.491 . S
C1884 H1875 0.950 . S
C1884 C1883 1.398 . S
C1884 C1885 1.391 . S
C1885 H1873 0.950 . S
C1885 C1881 1.393 . S
C1885 C1884 1.391 . S
C1886 H1876 0.950 . S
C1886 C1887 1.386 . S
C1886 C1888 1.391 . S
C1887 C1886 1.386 . S
C1887 C1891 1.393 . S
C1888 H1877 0.950 . S
C1888 C1886 1.391 . S
C1888 C1889 1.400 . S
C1889 C1883 1.491 . S
C1889 C1888 1.400 . S
C1889 C1890 1.398 . S
C1890 H1878 0.950 . S
C1890 C1889 1.398 . S
C1890 C1891 1.391 . S
C1891 H1879 0.950 . S
C1891 C1887 1.393 . S
C1891 C1890 1.391 . S
H1892 C1900 0.950 . S
H1893 C1905 0.950 . S
H1894 C1902 0.950 . S
H1895 C1904 0.950 . S
H1896 C1906 0.950 . S
H1897 C1908 0.950 . S
H1898 C1910 0.950 . S
H1899 C1911 0.950 . S
C1900 H1892 0.950 . S
C1900 C1901 1.386 . S
C1900 C1902 1.391 . S
C1901 C1900 1.386 . S
C1901 C1905 1.393 . S
C1902 H1894 0.950 . S
C1902 C1900 1.391 . S
C1902 C1903 1.400 . S
C1903 C1902 1.400 . S
C1903 C1904 1.398 . S
C1903 C1909 1.491 . S
C1904 H1895 0.950 . S
C1904 C1903 1.398 . S
C1904 C1905 1.391 . S
C1905 H1893 0.950 . S
C1905 C1901 1.393 . S
C1905 C1904 1.391 . S
C1906 H1896 0.950 . S
C1906 C1907 1.386 . S
C1906 C1908 1.391 . S
C1907 C1906 1.386 . S
C1907 C1911 1.393 . S
C1908 H1897 0.950 . S
C1908 C1906 1.391 . S
C1908 C1909 1.400 . S
C1909 C1903 1.491 . S
C1909 C1908 1.400 . S
C1909 C1910 1.398 . S
C1910 H1898 0.950 . S
C1910 C1909 1.398 . S
C1910 C1911 1.391 . S
C1911 H1899 0.950 . S
C1911 C1907 1.393 . S
C1911 C1910 1.391 . S
H1912 C1920 0.950 . S
H1913 C1925 0.950 . S
H1914 C1922 0.950 . S
H1915 C1924 0.950 . S
H1916 C1926 0.950 . S
H1917 C1928 0.950 . S
H1918 C1930 0.950 . S
H1919 C1931 0.950 . S
C1920 H1912 0.950 . S
C1920 C1921 1.386 . S
C1920 C1922 1.391 . S
C1921 C1920 1.386 . S
C1921 C1925 1.393 . S
C1922 H1914 0.950 . S
C1922 C1920 1.391 . S
C1922 C1923 1.400 . S
C1923 C1922 1.400 . S
C1923 C1924 1.398 . S
C1923 C1929 1.491 . S
C1924 H1915 0.950 . S
C1924 C1923 1.398 . S
C1924 C1925 1.391 . S
C1925 H1913 0.950 . S
C1925 C1921 1.393 . S
C1925 C1924 1.391 . S
C1926 H1916 0.950 . S
C1926 C1927 1.386 . S
C1926 C1928 1.391 . S
C1927 C1926 1.386 . S
C1927 C1931 1.393 . S
C1928 H1917 0.950 . S
C1928 C1926 1.391 . S
C1928 C1929 1.400 . S
C1929 C1923 1.491 . S
C1929 C1928 1.400 . S
C1929 C1930 1.398 . S
C1930 H1918 0.950 . S
C1930 C1929 1.398 . S
C1930 C1931 1.391 . S
C1931 H1919 0.950 . S
C1931 C1927 1.393 . S
C1931 C1930 1.391 . S
H1932 C1940 0.950 . S
H1933 C1945 0.950 . S
H1934 C1942 0.950 . S
H1935 C1944 0.950 . S
H1936 C1946 0.950 . S
H1937 C1948 0.950 . S
H1938 C1950 0.950 . S
H1939 C1951 0.950 . S
C1940 H1932 0.950 . S
C1940 C1941 1.386 . S
C1940 C1942 1.391 . S
C1941 C1940 1.386 . S
C1941 C1945 1.393 . S
C1942 H1934 0.950 . S
C1942 C1940 1.391 . S
C1942 C1943 1.400 . S
C1943 C1942 1.400 . S
C1943 C1944 1.398 . S
C1943 C1949 1.491 . S
C1944 H1935 0.950 . S
C1944 C1943 1.398 . S
C1944 C1945 1.391 . S
C1945 H1933 0.950 . S
C1945 C1941 1.393 . S
C1945 C1944 1.391 . S
C1946 H1936 0.950 . S
C1946 C1947 1.386 . S
C1946 C1948 1.391 . S
C1947 C1946 1.386 . S
C1947 C1951 1.393 . S
C1948 H1937 0.950 . S
C1948 C1946 1.391 . S
C1948 C1949 1.400 . S
C1949 C1943 1.491 . S
C1949 C1948 1.400 . S
C1949 C1950 1.398 . S
C1950 H1938 0.950 . S
C1950 C1949 1.398 . S
C1950 C1951 1.391 . S
C1951 H1939 0.950 . S
C1951 C1947 1.393 . S
C1951 C1950 1.391 . S
H1952 C1960 0.950 . S
H1953 C1965 0.950 . S
H1954 C1962 0.950 . S
H1955 C1964 0.950 . S
H1956 C1966 0.950 . S
H1957 C1968 0.950 . S
H1958 C1970 0.950 . S
H1959 C1971 0.950 . S
C1960 H1952 0.950 . S
C1960 C1961 1.386 . S
C1960 C1962 1.391 . S
C1961 C1960 1.386 . S
C1961 C1965 1.393 . S
C1962 H1954 0.950 . S
C1962 C1960 1.391 . S
C1962 C1963 1.400 . S
C1963 C1962 1.400 . S
C1963 C1964 1.398 . S
C1963 C1969 1.491 . S
C1964 H1955 0.950 . S
C1964 C1963 1.398 . S
C1964 C1965 1.391 . S
C1965 H1953 0.950 . S
C1965 C1961 1.393 . S
C1965 C1964 1.391 . S
C1966 H1956 0.950 . S
C1966 C1967 1.386 . S
C1966 C1968 1.391 . S
C1967 C1966 1.386 . S
C1967 C1971 1.393 . S
C1968 H1957 0.950 . S
C1968 C1966 1.391 . S
C1968 C1969 1.400 . S
C1969 C1963 1.491 . S
C1969 C1968 1.400 . S
C1969 C1970 1.398 . S
C1970 H1958 0.950 . S
C1970 C1969 1.398 . S
C1970 C1971 1.391 . S
C1971 H1959 0.950 . S
C1971 C1967 1.393 . S
C1971 C1970 1.391 . S
H1972 C1980 0.950 . S
H1973 C1985 0.950 . S
H1974 C1982 0.950 . S
H1975 C1984 0.950 . S
H1976 C1986 0.950 1_545 S
H1977 C1988 0.950 . S
H1978 C1990 0.950 . S
H1979 C1991 0.950 . S
C1980 H1972 0.950 . S
C1980 C1981 1.386 . S
C1980 C1982 1.391 . S
C1981 C1980 1.386 . S
C1981 C1985 1.393 . S
C1982 H1974 0.950 . S
C1982 C1980 1.391 . S
C1982 C1983 1.400 . S
C1983 C1982 1.400 . S
C1983 C1984 1.398 . S
C1983 C1989 1.491 . S
C1984 H1975 0.950 . S
C1984 C1983 1.398 . S
C1984 C1985 1.391 . S
C1985 H1973 0.950 . S
C1985 C1981 1.393 . S
C1985 C1984 1.391 . S
C1986 H1976 0.950 1_565 S
C1986 C1987 1.386 . S
C1986 C1988 1.391 . S
C1987 C1986 1.386 . S
C1987 C1991 1.393 . S
C1988 H1977 0.950 . S
C1988 C1986 1.391 . S
C1988 C1989 1.400 . S
C1989 C1983 1.491 . S
C1989 C1988 1.400 . S
C1989 C1990 1.398 . S
C1990 H1978 0.950 . S
C1990 C1989 1.398 . S
C1990 C1991 1.391 . S
C1991 H1979 0.950 . S
C1991 C1987 1.393 . S
C1991 C1990 1.391 . S
H1992 C2000 0.950 . S
H1993 C2005 0.950 . S
H1994 C2002 0.950 . S
H1995 C2004 0.950 . S
H1996 C2006 0.950 . S
H1997 C2008 0.950 . S
H1998 C2010 0.950 . S
H1999 C2011 0.950 . S
C2000 H1992 0.950 . S
C2000 C2001 1.386 . S
C2000 C2002 1.391 . S
C2001 C2000 1.386 . S
C2001 C2005 1.393 . S
C2002 H1994 0.950 . S
C2002 C2000 1.391 . S
C2002 C2003 1.400 . S
C2003 C2002 1.400 . S
C2003 C2004 1.398 . S
C2003 C2009 1.491 . S
C2004 H1995 0.950 . S
C2004 C2003 1.398 . S
C2004 C2005 1.391 . S
C2005 H1993 0.950 . S
C2005 C2001 1.393 . S
C2005 C2004 1.391 . S
C2006 H1996 0.950 . S
C2006 C2007 1.386 . S
C2006 C2008 1.391 . S
C2007 C2006 1.386 . S
C2007 C2011 1.393 . S
C2008 H1997 0.950 . S
C2008 C2006 1.391 . S
C2008 C2009 1.400 . S
C2009 C2003 1.491 . S
C2009 C2008 1.400 . S
C2009 C2010 1.398 . S
C2010 H1998 0.950 . S
C2010 C2009 1.398 . S
C2010 C2011 1.391 . S
C2011 H1999 0.950 . S
C2011 C2007 1.393 . S
C2011 C2010 1.391 . S
H2012 C2020 0.950 . S
H2013 C2025 0.950 . S
H2014 C2022 0.950 . S
H2015 C2024 0.950 . S
H2016 C2026 0.950 . S
H2017 C2028 0.950 . S
H2018 C2030 0.950 . S
H2019 C2031 0.950 . S
C2020 H2012 0.950 . S
C2020 C2021 1.386 . S
C2020 C2022 1.391 . S
C2021 C2020 1.386 . S
C2021 C2025 1.393 1_554 S
C2022 H2014 0.950 . S
C2022 C2020 1.391 . S
C2022 C2023 1.400 . S
C2023 C2022 1.400 . S
C2023 C2024 1.398 1_554 S
C2023 C2029 1.491 . S
C2024 H2015 0.950 . S
C2024 C2023 1.398 1_556 S
C2024 C2025 1.391 . S
C2025 H2013 0.950 . S
C2025 C2021 1.393 1_556 S
C2025 C2024 1.391 . S
C2026 H2016 0.950 . S
C2026 C2027 1.386 1_556 S
C2026 C2028 1.391 . S
C2027 C2026 1.386 1_554 S
C2027 C2031 1.393 . S
C2028 H2017 0.950 . S
C2028 C2026 1.391 . S
C2028 C2029 1.400 1_556 S
C2029 C2023 1.491 . S
C2029 C2028 1.400 1_554 S
C2029 C2030 1.398 . S
C2030 H2018 0.950 . S
C2030 C2029 1.398 . S
C2030 C2031 1.391 . S
C2031 H2019 0.950 . S
C2031 C2027 1.393 . S
C2031 C2030 1.391 . S
H2032 C2040 0.950 . S
H2033 C2045 0.950 . S
H2034 C2042 0.950 . S
H2035 C2044 0.950 . S
H2036 C2046 0.950 . S
H2037 C2048 0.950 . S
H2038 C2050 0.950 . S
H2039 C2051 0.950 . S
C2040 H2032 0.950 . S
C2040 C2041 1.386 . S
C2040 C2042 1.391 . S
C2041 C2040 1.386 . S
C2041 C2045 1.393 . S
C2042 H2034 0.950 . S
C2042 C2040 1.391 . S
C2042 C2043 1.400 . S
C2043 C2042 1.400 . S
C2043 C2044 1.398 . S
C2043 C2049 1.491 . S
C2044 H2035 0.950 . S
C2044 C2043 1.398 . S
C2044 C2045 1.391 . S
C2045 H2033 0.950 . S
C2045 C2041 1.393 . S
C2045 C2044 1.391 . S
C2046 H2036 0.950 . S
C2046 C2047 1.386 . S
C2046 C2048 1.391 . S
C2047 C2046 1.386 . S
C2047 C2051 1.393 . S
C2048 H2037 0.950 . S
C2048 C2046 1.391 . S
C2048 C2049 1.400 . S
C2049 C2043 1.491 . S
C2049 C2048 1.400 . S
C2049 C2050 1.398 . S
C2050 H2038 0.950 . S
C2050 C2049 1.398 . S
C2050 C2051 1.391 . S
C2051 H2039 0.950 . S
C2051 C2047 1.393 . S
C2051 C2050 1.391 . S
H2052 C2060 0.950 . S
H2053 C2065 0.950 . S
H2054 C2062 0.950 . S
H2055 C2064 0.950 . S
H2056 C2066 0.950 . S
H2057 C2068 0.950 . S
H2058 C2070 0.950 . S
H2059 C2071 0.950 . S
C2060 H2052 0.950 . S
C2060 C2061 1.386 1_556 S
C2060 C2062 1.391 . S
C2061 C2060 1.386 1_554 S
C2061 C2065 1.393 . S
C2062 H2054 0.950 . S
C2062 C2060 1.391 . S
C2062 C2063 1.402 1_556 S
C2063 C2062 1.402 1_554 S
C2063 C2064 1.397 . S
C2063 C2069 1.489 1_554 S
C2064 H2055 0.950 . S
C2064 C2063 1.397 . S
C2064 C2065 1.391 . S
C2065 H2053 0.950 . S
C2065 C2061 1.393 . S
C2065 C2064 1.391 . S
C2066 H2056 0.950 . S
C2066 C2067 1.386 1_554 S
C2066 C2068 1.391 . S
C2067 C2066 1.386 1_556 S
C2067 C2071 1.393 . S
C2068 H2057 0.950 . S
C2068 C2066 1.391 . S
C2068 C2069 1.381 1_554 S
C2069 C2063 1.489 1_556 S
C2069 C2068 1.381 1_556 S
C2069 C2070 1.420 . S
C2070 H2058 0.950 . S
C2070 C2069 1.420 . S
C2070 C2071 1.391 . S
C2071 H2059 0.950 . S
C2071 C2067 1.393 . S
C2071 C2070 1.391 . S
H2072 C2080 0.950 . S
H2073 C2085 0.950 . S
H2074 C2082 0.950 . S
H2075 C2084 0.950 . S
H2076 C2086 0.950 . S
H2077 C2088 0.950 . S
H2078 C2090 0.950 . S
H2079 C2091 0.950 . S
C2080 H2072 0.950 . S
C2080 C2081 1.386 . S
C2080 C2082 1.391 . S
C2081 C2080 1.386 . S
C2081 C2085 1.393 . S
C2082 H2074 0.950 . S
C2082 C2080 1.391 . S
C2082 C2083 1.400 . S
C2083 C2082 1.400 . S
C2083 C2084 1.398 . S
C2083 C2089 1.491 . S
C2084 H2075 0.950 . S
C2084 C2083 1.398 . S
C2084 C2085 1.391 . S
C2085 H2073 0.950 . S
C2085 C2081 1.393 . S
C2085 C2084 1.391 . S
C2086 H2076 0.950 . S
C2086 C2087 1.386 . S
C2086 C2088 1.391 . S
C2087 C2086 1.386 . S
C2087 C2091 1.393 . S
C2088 H2077 0.950 . S
C2088 C2086 1.391 . S
C2088 C2089 1.400 . S
C2089 C2083 1.491 . S
C2089 C2088 1.400 . S
C2089 C2090 1.398 . S
C2090 H2078 0.950 . S
C2090 C2089 1.398 . S
C2090 C2091 1.391 . S
C2091 H2079 0.950 . S
C2091 C2087 1.393 . S
C2091 C2090 1.391 . S
H2092 C2100 0.950 . S
H2093 C2105 0.950 . S
H2094 C2102 0.950 . S
H2095 C2104 0.950 . S
H2096 C2106 0.950 . S
H2097 C2108 0.950 . S
H2098 C2110 0.950 . S
H2099 C2111 0.950 . S
C2100 H2092 0.950 . S
C2100 C2101 1.386 . S
C2100 C2102 1.391 . S
C2101 C2100 1.386 . S
C2101 C2105 1.393 . S
C2102 H2094 0.950 . S
C2102 C2100 1.391 . S
C2102 C2103 1.400 . S
C2103 C2102 1.400 . S
C2103 C2104 1.398 . S
C2103 C2109 1.491 . S
C2104 H2095 0.950 . S
C2104 C2103 1.398 . S
C2104 C2105 1.391 . S
C2105 H2093 0.950 . S
C2105 C2101 1.393 . S
C2105 C2104 1.391 . S
C2106 H2096 0.950 . S
C2106 C2107 1.386 . S
C2106 C2108 1.391 . S
C2107 C2106 1.386 . S
C2107 C2111 1.393 . S
C2108 H2097 0.950 . S
C2108 C2106 1.391 . S
C2108 C2109 1.400 . S
C2109 C2103 1.491 . S
C2109 C2108 1.400 . S
C2109 C2110 1.398 . S
C2110 H2098 0.950 . S
C2110 C2109 1.398 . S
C2110 C2111 1.391 . S
C2111 H2099 0.950 . S
C2111 C2107 1.393 . S
C2111 C2110 1.391 . S
H2112 C2120 0.950 . S
H2113 C2125 0.950 . S
H2114 C2122 0.950 . S
H2115 C2124 0.950 . S
H2116 C2126 0.950 . S
H2117 C2128 0.950 . S
H2118 C2130 0.950 . S
H2119 C2131 0.950 . S
C2120 H2112 0.950 . S
C2120 C2121 1.386 . S
C2120 C2122 1.391 . S
C2121 C2120 1.386 . S
C2121 C2125 1.393 . S
C2122 H2114 0.950 . S
C2122 C2120 1.391 . S
C2122 C2123 1.400 . S
C2123 C2122 1.400 . S
C2123 C2124 1.398 . S
C2123 C2129 1.491 . S
C2124 H2115 0.950 . S
C2124 C2123 1.398 . S
C2124 C2125 1.391 . S
C2125 H2113 0.950 . S
C2125 C2121 1.393 . S
C2125 C2124 1.391 . S
C2126 H2116 0.950 . S
C2126 C2127 1.386 . S
C2126 C2128 1.391 . S
C2127 C2126 1.386 . S
C2127 C2131 1.393 . S
C2128 H2117 0.950 . S
C2128 C2126 1.391 . S
C2128 C2129 1.400 . S
C2129 C2123 1.491 . S
C2129 C2128 1.400 . S
C2129 C2130 1.398 . S
C2130 H2118 0.950 . S
C2130 C2129 1.398 . S
C2130 C2131 1.391 . S
C2131 H2119 0.950 . S
C2131 C2127 1.393 . S
C2131 C2130 1.391 . S
H2132 C2140 0.950 . S
H2133 C2145 0.950 . S
H2134 C2142 0.950 . S
H2135 C2144 0.950 . S
H2136 C2146 0.950 . S
H2137 C2148 0.950 . S
H2138 C2150 0.950 . S
H2139 C2151 0.950 . S
C2140 H2132 0.950 . S
C2140 C2141 1.386 . S
C2140 C2142 1.391 . S
C2141 C2140 1.386 . S
C2141 C2145 1.393 . S
C2142 H2134 0.950 . S
C2142 C2140 1.391 . S
C2142 C2143 1.400 . S
C2143 C2142 1.400 . S
C2143 C2144 1.398 . S
C2143 C2149 1.491 . S
C2144 H2135 0.950 . S
C2144 C2143 1.398 . S
C2144 C2145 1.391 . S
C2145 H2133 0.950 . S
C2145 C2141 1.393 . S
C2145 C2144 1.391 . S
C2146 H2136 0.950 . S
C2146 C2147 1.386 . S
C2146 C2148 1.391 . S
C2147 C2146 1.386 . S
C2147 C2151 1.393 . S
C2148 H2137 0.950 . S
C2148 C2146 1.391 . S
C2148 C2149 1.400 . S
C2149 C2143 1.491 . S
C2149 C2148 1.400 . S
C2149 C2150 1.398 . S
C2150 H2138 0.950 . S
C2150 C2149 1.398 . S
C2150 C2151 1.391 . S
C2151 H2139 0.950 . S
C2151 C2147 1.393 . S
C2151 C2150 1.391 . S
H2152 C2160 0.950 . S
H2153 C2165 0.950 . S
H2154 C2162 0.950 . S
H2155 C2164 0.950 . S
H2156 C2166 0.950 . S
H2157 C2168 0.950 . S
H2158 C2170 0.950 . S
H2159 C2171 0.950 . S
C2160 H2152 0.950 . S
C2160 C2161 1.386 . S
C2160 C2162 1.391 . S
C2161 C2160 1.386 . S
C2161 C2165 1.393 1_455 S
C2162 H2154 0.950 . S
C2162 C2160 1.391 . S
C2162 C2163 1.400 . S
C2163 C2162 1.400 . S
C2163 C2164 1.398 1_455 S
C2163 C2169 1.491 . S
C2164 H2155 0.950 . S
C2164 C2163 1.398 1_655 S
C2164 C2165 1.391 . S
C2165 H2153 0.950 . S
C2165 C2161 1.393 1_655 S
C2165 C2164 1.391 . S
C2166 H2156 0.950 . S
C2166 C2167 1.386 . S
C2166 C2168 1.391 . S
C2167 C2166 1.386 . S
C2167 C2171 1.393 1_655 S
C2168 H2157 0.950 . S
C2168 C2166 1.391 . S
C2168 C2169 1.400 1_655 S
C2169 C2163 1.491 . S
C2169 C2168 1.400 1_455 S
C2169 C2170 1.398 . S
C2170 H2158 0.950 . S
C2170 C2169 1.398 . S
C2170 C2171 1.391 . S
C2171 H2159 0.950 . S
C2171 C2167 1.393 1_455 S
C2171 C2170 1.391 . S
H2172 C2180 0.950 . S
H2173 C2185 0.950 . S
H2174 C2182 0.950 . S
H2175 C2184 0.950 . S
H2176 C2186 0.950 . S
H2177 C2188 0.950 . S
H2178 C2190 0.950 . S
H2179 C2191 0.950 . S
C2180 H2172 0.950 . S
C2180 C2181 1.386 . S
C2180 C2182 1.391 . S
C2181 C2180 1.386 . S
C2181 C2185 1.393 . S
C2182 H2174 0.950 . S
C2182 C2180 1.391 . S
C2182 C2183 1.400 . S
C2183 C2182 1.400 . S
C2183 C2184 1.398 . S
C2183 C2189 1.491 . S
C2184 H2175 0.950 . S
C2184 C2183 1.398 . S
C2184 C2185 1.391 . S
C2185 H2173 0.950 . S
C2185 C2181 1.393 . S
C2185 C2184 1.391 . S
C2186 H2176 0.950 . S
C2186 C2187 1.386 . S
C2186 C2188 1.391 . S
C2187 C2186 1.386 . S
C2187 C2191 1.393 . S
C2188 H2177 0.950 . S
C2188 C2186 1.391 . S
C2188 C2189 1.400 . S
C2189 C2183 1.491 . S
C2189 C2188 1.400 . S
C2189 C2190 1.398 . S
C2190 H2178 0.950 . S
C2190 C2189 1.398 . S
C2190 C2191 1.391 . S
C2191 H2179 0.950 . S
C2191 C2187 1.393 . S
C2191 C2190 1.391 . S
H2192 C2200 0.950 . S
H2193 C2205 0.950 . S
H2194 C2202 0.950 . S
H2195 C2204 0.950 . S
H2196 C2206 0.950 . S
H2197 C2208 0.950 . S
H2198 C2210 0.950 . S
H2199 C2211 0.950 . S
C2200 H2192 0.950 . S
C2200 C2201 1.386 . S
C2200 C2202 1.391 . S
C2201 C2200 1.386 . S
C2201 C2205 1.393 . S
C2202 H2194 0.950 . S
C2202 C2200 1.391 . S
C2202 C2203 1.400 . S
C2203 C2202 1.400 . S
C2203 C2204 1.398 . S
C2203 C2209 1.491 . S
C2204 H2195 0.950 . S
C2204 C2203 1.398 . S
C2204 C2205 1.391 . S
C2205 H2193 0.950 . S
C2205 C2201 1.393 . S
C2205 C2204 1.391 . S
C2206 H2196 0.950 . S
C2206 C2207 1.386 . S
C2206 C2208 1.391 . S
C2207 C2206 1.386 . S
C2207 C2211 1.393 . S
C2208 H2197 0.950 . S
C2208 C2206 1.391 . S
C2208 C2209 1.400 . S
C2209 C2203 1.491 . S
C2209 C2208 1.400 . S
C2209 C2210 1.398 . S
C2210 H2198 0.950 . S
C2210 C2209 1.398 . S
C2210 C2211 1.391 . S
C2211 H2199 0.950 . S
C2211 C2207 1.393 . S
C2211 C2210 1.391 . S
H2212 C2220 0.950 . S
H2213 C2225 0.950 . S
H2214 C2222 0.950 . S
H2215 C2224 0.950 . S
H2216 C2226 0.950 . S
H2217 C2228 0.950 . S
H2218 C2230 0.950 . S
H2219 C2231 0.950 . S
C2220 H2212 0.950 . S
C2220 C2221 1.386 . S
C2220 C2222 1.391 . S
C2221 C2220 1.386 . S
C2221 C2225 1.393 . S
C2222 H2214 0.950 . S
C2222 C2220 1.391 . S
C2222 C2223 1.400 . S
C2223 C2222 1.400 . S
C2223 C2224 1.398 . S
C2223 C2229 1.491 . S
C2224 H2215 0.950 . S
C2224 C2223 1.398 . S
C2224 C2225 1.391 . S
C2225 H2213 0.950 . S
C2225 C2221 1.393 . S
C2225 C2224 1.391 . S
C2226 H2216 0.950 . S
C2226 C2227 1.386 . S
C2226 C2228 1.391 . S
C2227 C2226 1.386 . S
C2227 C2231 1.393 . S
C2228 H2217 0.950 . S
C2228 C2226 1.391 . S
C2228 C2229 1.400 . S
C2229 C2223 1.491 . S
C2229 C2228 1.400 . S
C2229 C2230 1.398 . S
C2230 H2218 0.950 . S
C2230 C2229 1.398 . S
C2230 C2231 1.391 . S
C2231 H2219 0.950 . S
C2231 C2227 1.393 . S
C2231 C2230 1.391 . S
H2232 C2240 0.950 . S
H2233 C2245 0.950 . S
H2234 C2242 0.950 . S
H2235 C2244 0.950 . S
H2236 C2246 0.950 . S
H2237 C2248 0.950 . S
H2238 C2250 0.950 . S
H2239 C2251 0.950 . S
C2240 H2232 0.950 . S
C2240 C2241 1.386 . S
C2240 C2242 1.391 . S
C2241 C2240 1.386 . S
C2241 C2245 1.393 1_455 S
C2242 H2234 0.950 . S
C2242 C2240 1.391 . S
C2242 C2243 1.414 . S
C2243 C2242 1.414 . S
C2243 C2244 1.387 1_455 S
C2243 C2249 1.489 1_455 S
C2244 H2235 0.950 . S
C2244 C2243 1.387 1_655 S
C2244 C2245 1.391 . S
C2245 H2233 0.950 . S
C2245 C2241 1.393 1_655 S
C2245 C2244 1.391 . S
C2246 H2236 0.950 . S
C2246 C2247 1.386 . S
C2246 C2248 1.391 . S
C2247 C2246 1.386 . S
C2247 C2251 1.393 1_655 S
C2248 H2237 0.950 . S
C2248 C2246 1.391 . S
C2248 C2249 1.400 . S
C2249 C2243 1.489 1_655 S
C2249 C2248 1.400 . S
C2249 C2250 1.398 1_655 S
C2250 H2238 0.950 . S
C2250 C2249 1.398 1_455 S
C2250 C2251 1.391 . S
C2251 H2239 0.950 . S
C2251 C2247 1.393 1_455 S
C2251 C2250 1.391 . S
H2252 C2260 0.950 . S
H2253 C2265 0.950 . S
H2254 C2262 0.950 . S
H2255 C2264 0.950 . S
H2256 C2266 0.950 . S
H2257 C2268 0.950 . S
H2258 C2270 0.950 . S
H2259 C2271 0.950 . S
C2260 H2252 0.950 . S
C2260 C2261 1.386 . S
C2260 C2262 1.391 . S
C2261 C2260 1.386 . S
C2261 C2265 1.393 . S
C2262 H2254 0.950 . S
C2262 C2260 1.391 . S
C2262 C2263 1.400 . S
C2263 C2262 1.400 . S
C2263 C2264 1.398 . S
C2263 C2269 1.491 . S
C2264 H2255 0.950 . S
C2264 C2263 1.398 . S
C2264 C2265 1.391 . S
C2265 H2253 0.950 . S
C2265 C2261 1.393 . S
C2265 C2264 1.391 . S
C2266 H2256 0.950 . S
C2266 C2267 1.386 . S
C2266 C2268 1.391 . S
C2267 C2266 1.386 . S
C2267 C2271 1.393 . S
C2268 H2257 0.950 . S
C2268 C2266 1.391 . S
C2268 C2269 1.400 . S
C2269 C2263 1.491 . S
C2269 C2268 1.400 . S
C2269 C2270 1.398 . S
C2270 H2258 0.950 . S
C2270 C2269 1.398 . S
C2270 C2271 1.391 . S
C2271 H2259 0.950 . S
C2271 C2267 1.393 . S
C2271 C2270 1.391 . S
H2272 C2280 0.950 . S
H2273 C2285 0.950 . S
H2274 C2282 0.950 . S
H2275 C2284 0.950 . S
H2276 C2286 0.950 . S
H2277 C2288 0.950 . S
H2278 C2290 0.950 . S
H2279 C2291 0.950 . S
C2280 H2272 0.950 . S
C2280 C2281 1.386 . S
C2280 C2282 1.391 . S
C2281 C2280 1.386 . S
C2281 C2285 1.393 . S
C2282 H2274 0.950 . S
C2282 C2280 1.391 . S
C2282 C2283 1.400 . S
C2283 C2282 1.400 . S
C2283 C2284 1.398 . S
C2283 C2289 1.491 . S
C2284 H2275 0.950 . S
C2284 C2283 1.398 . S
C2284 C2285 1.391 . S
C2285 H2273 0.950 . S
C2285 C2281 1.393 . S
C2285 C2284 1.391 . S
C2286 H2276 0.950 . S
C2286 C2287 1.386 . S
C2286 C2288 1.391 . S
C2287 C2286 1.386 . S
C2287 C2291 1.393 . S
C2288 H2277 0.950 . S
C2288 C2286 1.391 . S
C2288 C2289 1.400 . S
C2289 C2283 1.491 . S
C2289 C2288 1.400 . S
C2289 C2290 1.398 . S
C2290 H2278 0.950 . S
C2290 C2289 1.398 . S
C2290 C2291 1.391 . S
C2291 H2279 0.950 . S
C2291 C2287 1.393 . S
C2291 C2290 1.391 . S
H2292 C2300 0.950 . S
H2293 C2305 0.950 . S
H2294 C2302 0.950 . S
H2295 C2304 0.950 . S
H2296 C2306 0.950 . S
H2297 C2308 0.950 . S
H2298 C2310 0.950 . S
H2299 C2311 0.950 . S
C2300 H2292 0.950 . S
C2300 C2301 1.386 . S
C2300 C2302 1.391 . S
C2301 C2300 1.386 . S
C2301 C2305 1.393 . S
C2302 H2294 0.950 . S
C2302 C2300 1.391 . S
C2302 C2303 1.400 . S
C2303 C2302 1.400 . S
C2303 C2304 1.398 . S
C2303 C2309 1.491 . S
C2304 H2295 0.950 . S
C2304 C2303 1.398 . S
C2304 C2305 1.391 . S
C2305 H2293 0.950 . S
C2305 C2301 1.393 . S
C2305 C2304 1.391 . S
C2306 H2296 0.950 . S
C2306 C2307 1.386 . S
C2306 C2308 1.391 . S
C2307 C2306 1.386 . S
C2307 C2311 1.393 . S
C2308 H2297 0.950 . S
C2308 C2306 1.391 . S
C2308 C2309 1.400 . S
C2309 C2303 1.491 . S
C2309 C2308 1.400 . S
C2309 C2310 1.398 . S
C2310 H2298 0.950 . S
C2310 C2309 1.398 . S
C2310 C2311 1.391 . S
C2311 H2299 0.950 . S
C2311 C2307 1.393 . S
C2311 C2310 1.391 . S
H2312 C2320 0.950 . S
H2313 C2325 0.950 . S
H2314 C2322 0.950 . S
H2315 C2324 0.950 . S
H2316 C2326 0.950 . S
H2317 C2328 0.950 . S
H2318 C2330 0.950 . S
H2319 C2331 0.950 . S
C2320 H2312 0.950 . S
C2320 C2321 1.386 . S
C2320 C2322 1.391 . S
C2321 C2320 1.386 . S
C2321 C2325 1.393 . S
C2322 H2314 0.950 . S
C2322 C2320 1.391 . S
C2322 C2323 1.400 . S
C2323 C2322 1.400 . S
C2323 C2324 1.398 . S
C2323 C2329 1.491 . S
C2324 H2315 0.950 . S
C2324 C2323 1.398 . S
C2324 C2325 1.391 . S
C2325 H2313 0.950 . S
C2325 C2321 1.393 . S
C2325 C2324 1.391 . S
C2326 H2316 0.950 . S
C2326 C2327 1.386 . S
C2326 C2328 1.391 . S
C2327 C2326 1.386 . S
C2327 C2331 1.393 . S
C2328 H2317 0.950 . S
C2328 C2326 1.391 . S
C2328 C2329 1.400 . S
C2329 C2323 1.491 . S
C2329 C2328 1.400 . S
C2329 C2330 1.398 . S
C2330 H2318 0.950 . S
C2330 C2329 1.398 . S
C2330 C2331 1.391 . S
C2331 H2319 0.950 . S
C2331 C2327 1.393 . S
C2331 C2330 1.391 . S
H2332 C2340 0.950 . S
H2333 C2345 0.950 . S
H2334 C2342 0.950 . S
H2335 C2344 0.950 . S
H2336 C2346 0.950 . S
H2337 C2348 0.950 . S
H2338 C2350 0.950 . S
H2339 C2351 0.950 . S
C2340 H2332 0.950 . S
C2340 C2341 1.386 . S
C2340 C2342 1.391 . S
C2341 C2340 1.386 . S
C2341 C2345 1.393 . S
C2342 H2334 0.950 . S
C2342 C2340 1.391 . S
C2342 C2343 1.400 . S
C2343 C2342 1.400 . S
C2343 C2344 1.398 . S
C2343 C2349 1.491 . S
C2344 H2335 0.950 . S
C2344 C2343 1.398 . S
C2344 C2345 1.391 . S
C2345 H2333 0.950 . S
C2345 C2341 1.393 . S
C2345 C2344 1.391 . S
C2346 H2336 0.950 . S
C2346 C2347 1.386 . S
C2346 C2348 1.391 . S
C2347 C2346 1.386 . S
C2347 C2351 1.393 . S
C2348 H2337 0.950 . S
C2348 C2346 1.391 . S
C2348 C2349 1.400 . S
C2349 C2343 1.491 . S
C2349 C2348 1.400 . S
C2349 C2350 1.398 . S
C2350 H2338 0.950 . S
C2350 C2349 1.398 . S
C2350 C2351 1.391 . S
C2351 H2339 0.950 . S
C2351 C2347 1.393 . S
C2351 C2350 1.391 . S
H2352 C2360 0.950 . S
H2353 C2365 0.950 . S
H2354 C2362 0.950 . S
H2355 C2364 0.950 . S
H2356 C2366 0.950 . S
H2357 C2368 0.950 . S
H2358 C2370 0.950 . S
H2359 C2371 0.950 . S
C2360 H2352 0.950 . S
C2360 C2361 1.386 . S
C2360 C2362 1.391 . S
C2361 C2360 1.386 . S
C2361 C2365 1.393 . S
C2362 H2354 0.950 . S
C2362 C2360 1.391 . S
C2362 C2363 1.400 . S
C2363 C2362 1.400 . S
C2363 C2364 1.398 . S
C2363 C2369 1.491 . S
C2364 H2355 0.950 . S
C2364 C2363 1.398 . S
C2364 C2365 1.391 . S
C2365 H2353 0.950 . S
C2365 C2361 1.393 . S
C2365 C2364 1.391 . S
C2366 H2356 0.950 . S
C2366 C2367 1.386 . S
C2366 C2368 1.391 . S
C2367 C2366 1.386 . S
C2367 C2371 1.393 . S
C2368 H2357 0.950 . S
C2368 C2366 1.391 . S
C2368 C2369 1.400 . S
C2369 C2363 1.491 . S
C2369 C2368 1.400 . S
C2369 C2370 1.398 . S
C2370 H2358 0.950 . S
C2370 C2369 1.398 . S
C2370 C2371 1.391 . S
C2371 H2359 0.950 . S
C2371 C2367 1.393 . S
C2371 C2370 1.391 . S
H2372 C2380 0.950 . S
H2373 C2385 0.950 . S
H2374 C2382 0.950 . S
H2375 C2384 0.950 . S
H2376 C2386 0.950 . S
H2377 C2388 0.950 . S
H2378 C2390 0.950 . S
H2379 C2391 0.950 . S
C2380 H2372 0.950 . S
C2380 C2381 1.386 . S
C2380 C2382 1.391 . S
C2381 C2380 1.386 . S
C2381 C2385 1.393 . S
C2382 H2374 0.950 . S
C2382 C2380 1.391 . S
C2382 C2383 1.400 . S
C2383 C2382 1.400 . S
C2383 C2384 1.398 . S
C2383 C2389 1.491 . S
C2384 H2375 0.950 . S
C2384 C2383 1.398 . S
C2384 C2385 1.391 . S
C2385 H2373 0.950 . S
C2385 C2381 1.393 . S
C2385 C2384 1.391 . S
C2386 H2376 0.950 . S
C2386 C2387 1.386 . S
C2386 C2388 1.391 . S
C2387 C2386 1.386 . S
C2387 C2391 1.393 . S
C2388 H2377 0.950 . S
C2388 C2386 1.391 . S
C2388 C2389 1.400 . S
C2389 C2383 1.491 . S
C2389 C2388 1.400 . S
C2389 C2390 1.398 . S
C2390 H2378 0.950 . S
C2390 C2389 1.398 . S
C2390 C2391 1.391 . S
C2391 H2379 0.950 . S
C2391 C2387 1.393 . S
C2391 C2390 1.391 . S
H2392 C2400 0.950 . S
H2393 C2405 0.950 . S
H2394 C2402 0.950 . S
H2395 C2404 0.950 . S
H2396 C2406 0.950 . S
H2397 C2408 0.950 . S
H2398 C2410 0.950 . S
H2399 C2411 0.950 . S
C2400 H2392 0.950 . S
C2400 C2401 1.386 . S
C2400 C2402 1.391 . S
C2401 C2400 1.386 . S
C2401 C2405 1.393 . S
C2402 H2394 0.950 . S
C2402 C2400 1.391 . S
C2402 C2403 1.400 . S
C2403 C2402 1.400 . S
C2403 C2404 1.398 . S
C2403 C2409 1.491 . S
C2404 H2395 0.950 . S
C2404 C2403 1.398 . S
C2404 C2405 1.391 . S
C2405 H2393 0.950 . S
C2405 C2401 1.393 . S
C2405 C2404 1.391 . S
C2406 H2396 0.950 . S
C2406 C2407 1.386 . S
C2406 C2408 1.391 . S
C2407 C2406 1.386 . S
C2407 C2411 1.393 . S
C2408 H2397 0.950 . S
C2408 C2406 1.391 . S
C2408 C2409 1.400 . S
C2409 C2403 1.491 . S
C2409 C2408 1.400 . S
C2409 C2410 1.398 . S
C2410 H2398 0.950 . S
C2410 C2409 1.398 . S
C2410 C2411 1.391 . S
C2411 H2399 0.950 . S
C2411 C2407 1.393 . S
C2411 C2410 1.391 . S
H2412 C2420 0.950 . S
H2413 C2425 0.950 . S
H2414 C2422 0.950 . S
H2415 C2424 0.950 . S
H2416 C2426 0.950 . S
H2417 C2428 0.950 . S
H2418 C2430 0.950 . S
H2419 C2431 0.950 . S
C2420 H2412 0.950 . S
C2420 C2421 1.386 . S
C2420 C2422 1.391 . S
C2421 C2420 1.386 . S
C2421 C2425 1.393 . S
C2422 H2414 0.950 . S
C2422 C2420 1.391 . S
C2422 C2423 1.400 . S
C2423 C2422 1.400 . S
C2423 C2424 1.398 . S
C2423 C2429 1.491 . S
C2424 H2415 0.950 . S
C2424 C2423 1.398 . S
C2424 C2425 1.391 . S
C2425 H2413 0.950 . S
C2425 C2421 1.393 . S
C2425 C2424 1.391 . S
C2426 H2416 0.950 . S
C2426 C2427 1.386 . S
C2426 C2428 1.391 . S
C2427 C2426 1.386 . S
C2427 C2431 1.393 . S
C2428 H2417 0.950 . S
C2428 C2426 1.391 . S
C2428 C2429 1.400 . S
C2429 C2423 1.491 . S
C2429 C2428 1.400 . S
C2429 C2430 1.398 . S
C2430 H2418 0.950 . S
C2430 C2429 1.398 . S
C2430 C2431 1.391 . S
C2431 H2419 0.950 . S
C2431 C2427 1.393 . S
C2431 C2430 1.391 . S
H2432 C2440 0.950 . S
H2433 C2445 0.950 . S
H2434 C2442 0.950 . S
H2435 C2444 0.950 . S
H2436 C2446 0.950 . S
H2437 C2448 0.950 . S
H2438 C2450 0.950 . S
H2439 C2451 0.950 . S
C2440 H2432 0.950 . S
C2440 C2441 1.386 . S
C2440 C2442 1.391 . S
C2441 C2440 1.386 . S
C2441 C2445 1.393 . S
C2442 H2434 0.950 . S
C2442 C2440 1.391 . S
C2442 C2443 1.400 . S
C2443 C2442 1.400 . S
C2443 C2444 1.398 . S
C2443 C2449 1.491 . S
C2444 H2435 0.950 . S
C2444 C2443 1.398 . S
C2444 C2445 1.391 . S
C2445 H2433 0.950 . S
C2445 C2441 1.393 . S
C2445 C2444 1.391 . S
C2446 H2436 0.950 . S
C2446 C2447 1.386 . S
C2446 C2448 1.391 . S
C2447 C2446 1.386 . S
C2447 C2451 1.393 . S
C2448 H2437 0.950 . S
C2448 C2446 1.391 . S
C2448 C2449 1.400 . S
C2449 C2443 1.491 . S
C2449 C2448 1.400 . S
C2449 C2450 1.398 . S
C2450 H2438 0.950 . S
C2450 C2449 1.398 . S
C2450 C2451 1.391 . S
C2451 H2439 0.950 . S
C2451 C2447 1.393 . S
C2451 C2450 1.391 . S
H2452 C2460 0.950 . S
H2453 C2465 0.950 . S
H2454 C2462 0.950 . S
H2455 C2464 0.950 . S
H2456 C2466 0.950 . S
H2457 C2468 0.950 . S
H2458 C2470 0.950 . S
H2459 C2471 0.950 . S
C2460 H2452 0.950 . S
C2460 C2461 1.386 . S
C2460 C2462 1.391 . S
C2461 C2460 1.386 . S
C2461 C2465 1.393 . S
C2462 H2454 0.950 . S
C2462 C2460 1.391 . S
C2462 C2463 1.400 . S
C2463 C2462 1.400 . S
C2463 C2464 1.398 . S
C2463 C2469 1.491 . S
C2464 H2455 0.950 . S
C2464 C2463 1.398 . S
C2464 C2465 1.391 . S
C2465 H2453 0.950 . S
C2465 C2461 1.393 . S
C2465 C2464 1.391 . S
C2466 H2456 0.950 . S
C2466 C2467 1.386 . S
C2466 C2468 1.391 . S
C2467 C2466 1.386 . S
C2467 C2471 1.393 . S
C2468 H2457 0.950 . S
C2468 C2466 1.391 . S
C2468 C2469 1.400 . S
C2469 C2463 1.491 . S
C2469 C2468 1.400 . S
C2469 C2470 1.398 . S
C2470 H2458 0.950 . S
C2470 C2469 1.398 . S
C2470 C2471 1.391 . S
C2471 H2459 0.950 . S
C2471 C2467 1.393 . S
C2471 C2470 1.391 . S
H2472 C2480 0.950 . S
H2473 C2485 0.950 . S
H2474 C2482 0.950 . S
H2475 C2484 0.950 . S
H2476 C2486 0.950 . S
H2477 C2488 0.950 . S
H2478 C2490 0.950 . S
H2479 C2491 0.950 . S
C2480 H2472 0.950 . S
C2480 C2481 1.386 . S
C2480 C2482 1.391 . S
C2481 C2480 1.386 . S
C2481 C2485 1.393 . S
C2482 H2474 0.950 . S
C2482 C2480 1.391 . S
C2482 C2483 1.400 . S
C2483 C2482 1.400 . S
C2483 C2484 1.398 . S
C2483 C2489 1.491 . S
C2484 H2475 0.950 . S
C2484 C2483 1.398 . S
C2484 C2485 1.391 . S
C2485 H2473 0.950 . S
C2485 C2481 1.393 . S
C2485 C2484 1.391 . S
C2486 H2476 0.950 . S
C2486 C2487 1.386 . S
C2486 C2488 1.391 . S
C2487 C2486 1.386 . S
C2487 C2491 1.393 . S
C2488 H2477 0.950 . S
C2488 C2486 1.391 . S
C2488 C2489 1.400 . S
C2489 C2483 1.491 . S
C2489 C2488 1.400 . S
C2489 C2490 1.398 . S
C2490 H2478 0.950 . S
C2490 C2489 1.398 . S
C2490 C2491 1.391 . S
C2491 H2479 0.950 . S
C2491 C2487 1.393 . S
C2491 C2490 1.391 . S
H2492 C2500 0.950 . S
H2493 C2505 0.950 . S
H2494 C2502 0.950 . S
H2495 C2504 0.950 . S
H2496 C2506 0.950 . S
H2497 C2508 0.950 . S
H2498 C2510 0.950 . S
H2499 C2511 0.950 . S
C2500 H2492 0.950 . S
C2500 C2501 1.386 . S
C2500 C2502 1.391 . S
C2501 C2500 1.386 . S
C2501 C2505 1.393 1_554 S
C2502 H2494 0.950 . S
C2502 C2500 1.391 . S
C2502 C2503 1.400 . S
C2503 C2502 1.400 . S
C2503 C2504 1.398 1_554 S
C2503 C2509 1.491 1_554 S
C2504 H2495 0.950 . S
C2504 C2503 1.398 1_556 S
C2504 C2505 1.391 . S
C2505 H2493 0.950 . S
C2505 C2501 1.393 1_556 S
C2505 C2504 1.391 . S
C2506 H2496 0.950 . S
C2506 C2507 1.386 . S
C2506 C2508 1.391 . S
C2507 C2506 1.386 . S
C2507 C2511 1.393 1_556 S
C2508 H2497 0.950 . S
C2508 C2506 1.391 . S
C2508 C2509 1.400 . S
C2509 C2503 1.491 1_556 S
C2509 C2508 1.400 . S
C2509 C2510 1.398 1_556 S
C2510 H2498 0.950 . S
C2510 C2509 1.398 1_554 S
C2510 C2511 1.391 . S
C2511 H2499 0.950 . S
C2511 C2507 1.393 1_554 S
C2511 C2510 1.391 . S
H2512 C2520 0.950 . S
H2513 C2525 0.950 . S
H2514 C2522 0.950 . S
H2515 C2524 0.950 . S
H2516 C2526 0.950 . S
H2517 C2528 0.950 . S
H2518 C2530 0.950 . S
H2519 C2531 0.950 . S
C2520 H2512 0.950 . S
C2520 C2521 1.386 . S
C2520 C2522 1.391 . S
C2521 C2520 1.386 . S
C2521 C2525 1.393 . S
C2522 H2514 0.950 . S
C2522 C2520 1.391 . S
C2522 C2523 1.400 . S
C2523 C2522 1.400 . S
C2523 C2524 1.398 . S
C2523 C2529 1.491 . S
C2524 H2515 0.950 . S
C2524 C2523 1.398 . S
C2524 C2525 1.391 . S
C2525 H2513 0.950 . S
C2525 C2521 1.393 . S
C2525 C2524 1.391 . S
C2526 H2516 0.950 . S
C2526 C2527 1.386 . S
C2526 C2528 1.391 . S
C2527 C2526 1.386 . S
C2527 C2531 1.393 . S
C2528 H2517 0.950 . S
C2528 C2526 1.391 . S
C2528 C2529 1.400 . S
C2529 C2523 1.491 . S
C2529 C2528 1.400 . S
C2529 C2530 1.398 . S
C2530 H2518 0.950 . S
C2530 C2529 1.398 . S
C2530 C2531 1.391 . S
C2531 H2519 0.950 . S
C2531 C2527 1.393 . S
C2531 C2530 1.391 . S
H2532 C2540 0.950 1_556 S
H2533 C2545 0.950 . S
H2534 C2542 0.950 . S
H2535 C2544 0.950 . S
H2536 C2546 0.950 . S
H2537 C2548 0.950 . S
H2538 C2550 0.950 . S
H2539 C2551 0.950 . S
C2540 H2532 0.950 1_554 S
C2540 C2541 1.386 . S
C2540 C2542 1.391 . S
C2541 C2540 1.386 . S
C2541 C2545 1.393 . S
C2542 H2534 0.950 . S
C2542 C2540 1.391 . S
C2542 C2543 1.400 . S
C2543 C2542 1.400 . S
C2543 C2544 1.398 . S
C2543 C2549 1.491 . S
C2544 H2535 0.950 . S
C2544 C2543 1.398 . S
C2544 C2545 1.391 . S
C2545 H2533 0.950 . S
C2545 C2541 1.393 . S
C2545 C2544 1.391 . S
C2546 H2536 0.950 . S
C2546 C2547 1.386 . S
C2546 C2548 1.391 . S
C2547 C2546 1.386 . S
C2547 C2551 1.393 . S
C2548 H2537 0.950 . S
C2548 C2546 1.391 . S
C2548 C2549 1.400 . S
C2549 C2543 1.491 . S
C2549 C2548 1.400 . S
C2549 C2550 1.398 . S
C2550 H2538 0.950 . S
C2550 C2549 1.398 . S
C2550 C2551 1.391 . S
C2551 H2539 0.950 . S
C2551 C2547 1.393 . S
C2551 C2550 1.391 . S
H2552 C2560 0.950 . S
H2553 C2565 0.950 . S
H2554 C2562 0.950 . S
H2555 C2564 0.950 . S
H2556 C2566 0.950 . S
H2557 C2568 0.950 . S
H2558 C2570 0.950 . S
H2559 C2571 0.950 . S
C2560 H2552 0.950 . S
C2560 C2561 1.386 . S
C2560 C2562 1.391 . S
C2561 C2560 1.386 . S
C2561 C2565 1.393 . S
C2562 H2554 0.950 . S
C2562 C2560 1.391 . S
C2562 C2563 1.400 . S
C2563 C2562 1.400 . S
C2563 C2564 1.398 . S
C2563 C2569 1.491 . S
C2564 H2555 0.950 . S
C2564 C2563 1.398 . S
C2564 C2565 1.391 . S
C2565 H2553 0.950 . S
C2565 C2561 1.393 . S
C2565 C2564 1.391 . S
C2566 H2556 0.950 . S
C2566 C2567 1.386 . S
C2566 C2568 1.391 . S
C2567 C2566 1.386 . S
C2567 C2571 1.393 . S
C2568 H2557 0.950 . S
C2568 C2566 1.391 . S
C2568 C2569 1.400 . S
C2569 C2563 1.491 . S
C2569 C2568 1.400 . S
C2569 C2570 1.398 . S
C2570 H2558 0.950 . S
C2570 C2569 1.398 . S
C2570 C2571 1.391 . S
C2571 H2559 0.950 . S
C2571 C2567 1.393 . S
C2571 C2570 1.391 . S
H2572 C2580 0.950 . S
H2573 C2585 0.950 . S
H2574 C2582 0.950 . S
H2575 C2584 0.950 . S
H2576 C2586 0.950 . S
H2577 C2588 0.950 . S
H2578 C2590 0.950 . S
H2579 C2591 0.950 . S
C2580 H2572 0.950 . S
C2580 C2581 1.386 . S
C2580 C2582 1.391 . S
C2581 C2580 1.386 . S
C2581 C2585 1.393 . S
C2582 H2574 0.950 . S
C2582 C2580 1.391 . S
C2582 C2583 1.400 . S
C2583 C2582 1.400 . S
C2583 C2584 1.398 . S
C2583 C2589 1.491 . S
C2584 H2575 0.950 . S
C2584 C2583 1.398 . S
C2584 C2585 1.391 . S
C2585 H2573 0.950 . S
C2585 C2581 1.393 . S
C2585 C2584 1.391 . S
C2586 H2576 0.950 . S
C2586 C2587 1.386 . S
C2586 C2588 1.391 . S
C2587 C2586 1.386 . S
C2587 C2591 1.393 . S
C2588 H2577 0.950 . S
C2588 C2586 1.391 . S
C2588 C2589 1.400 . S
C2589 C2583 1.491 . S
C2589 C2588 1.400 . S
C2589 C2590 1.398 . S
C2590 H2578 0.950 . S
C2590 C2589 1.398 . S
C2590 C2591 1.391 . S
C2591 H2579 0.950 . S
C2591 C2587 1.393 . S
C2591 C2590 1.391 . S
C687 C352 1.192 . S
C681 C4 1.249 . S
C701 C19 0.929 . S
C707 C372 1.085 . S
C721 C39 1.190 . S
C727 C394 1.117 . S
C747 C413 1.232 . S
C741 C54 1.273 . S
C761 C18 1.263 . S
C767 C434 1.262 . S
C787 C457 1.197 . S
C781 C40 1.322 . S
C807 C480 1.044 . S
C801 C53 1.079 . S
C821 C5 1.056 . S
C827 C498 1.207 . S
C841 C61 0.995 1_545 S
C847 C354 1.140 . S
C861 C74 1.322 . S
C867 C374 1.333 . S
C887 C396 1.030 . S
C881 C89 0.932 . S
C907 C415 1.222 . S
C901 C109 1.310 . S
C921 C68 1.274 . S
C927 C436 1.156 . S
C947 C459 1.129 . S
C941 C81 1.131 . S
C967 C476 1.201 . S
C961 C96 1.229 . S
C987 C500 1.301 . S
C981 C102 1.324 . S
C1007 C350 1.182 1_556 S
C1001 C103 1.023 . S
C1027 C522 1.093 . S
C1021 C117 0.976 . S
C1041 C130 1.275 . S
C1047 C539 1.259 . S
C1067 C562 1.237 . S
C1061 C152 1.329 . S
C1081 C60 1.306 . S
C1087 C496 1.197 . S
C1107 C392 1.219 . S
C1101 C82 1.260 . S
C1121 C137 1.053 . S
C1127 C585 1.019 . S
C1147 C601 1.083 . S
C1141 C165 1.181 . S
C1161 C172 1.296 . S
C1167 C349 1.197 . S
C1187 C602 1.247 . S
C1181 C194 1.249 . S
C1201 C207 1.270 . S
C1207 C391 1.195 . S
C1221 C215 1.006 . S
C1227 C582 1.162 . S
C1247 C435 1.214 . S
C1241 C186 1.238 . S
C1267 C538 1.190 . S
C1261 C201 1.140 . S
C1287 C479 1.204 . S
C1281 C221 1.210 . S
C1307 C623 1.308 . S
C1301 C180 1.336 . S
C1327 C353 1.258 . S
C1321 C236 1.280 1_545 S
C1341 C242 1.318 . S
C1347 C606 1.265 . S
C1367 C395 1.219 . S
C1361 C264 1.226 . S
C1381 C277 1.310 . S
C1387 C580 1.260 . S
C1401 C229 1.079 1_565 S
C1407 C433 1.137 . S
C1421 C249 1.249 . S
C1427 C542 1.246 . S
C1447 C477 1.099 . S
C1441 C257 0.915 1_545 S
C1461 C270 1.305 . S
C1467 C627 1.301 . S
C1481 C278 1.203 . S
C1487 C351 1.175 . S
C1501 C292 1.308 . S
C1507 C521 1.304 . S
C1521 C298 1.295 . S
C1527 C456 1.246 . S
C1541 C313 1.192 . S
C1547 C559 1.231 . S
C1567 C625 1.224 . S
C1561 C228 1.315 . S
C1587 C393 1.123 . S
C1581 C243 0.978 . S
C1607 C416 1.178 . S
C1601 C305 1.195 . S
C1627 C373 1.155 . S
C1621 C333 1.223 . S
C1641 C32 1.264 . S
C1647 C646 1.156 . S
C1667 C603 1.084 . S
C1661 C47 0.934 . S
C1687 C667 1.082 . S
C1681 C11 1.185 . S
C1701 C26 1.274 . S
C1707 C581 1.236 . S
C1721 C46 1.267 . S
C1727 C518 1.254 . S
C1747 C541 1.199 . S
C1741 C12 1.321 . S
C1767 C564 1.071 . S
C1761 C25 1.076 . S
C1787 C624 1.198 . S
C1781 C33 1.061 . S
C1807 C648 1.111 . S
C1801 C159 0.980 . S
C1821 C116 1.332 . S
C1827 C605 1.312 . S
C1841 C131 0.922 . S
C1847 C669 1.042 . S
C1867 C583 1.208 . S
C1861 C151 1.306 . S
C1887 C520 1.154 . S
C1881 C166 1.274 . S
C1901 C123 1.141 . S
C1907 C543 1.110 . S
C1927 C560 1.204 . S
C1921 C138 1.229 . S
C1941 C144 1.303 . S
C1947 C626 1.308 . S
C1967 C644 1.173 . S
C1961 C145 0.983 . S
C1987 C438 1.090 . S
C1981 C75 0.917 . S
C2007 C455 1.267 . S
C2001 C88 1.251 . S
C2021 C110 1.330 . S
C2027 C478 1.234 . S
C2047 C622 1.205 . S
C2041 C158 1.302 . S
C2061 C124 1.266 . S
C2067 C665 1.236 . S
C2087 C417 1.046 . S
C2081 C95 1.047 . S
C2107 C370 1.119 . S
C2101 C67 1.190 . S
C2121 C200 1.288 . S
C2127 C643 1.176 . S
C2147 C371 1.242 . S
C2141 C222 1.250 . S
C2167 C664 1.198 . S
C2161 C179 1.268 . S
C2181 C187 1.047 . S
C2187 C414 1.147 . S
C2201 C214 1.228 . S
C2207 C519 1.211 . S
C2221 C173 1.181 . S
C2227 C454 1.228 . S
C2241 C193 1.202 . S
C2247 C563 1.212 . S
C2261 C208 1.335 . S
C2267 C497 1.310 . S
C2287 C647 1.260 . S
C2281 C334 1.279 . S
C2301 C284 1.315 . S
C2307 C375 1.292 . S
C2327 C668 1.225 . S
C2321 C306 1.227 . S
C2341 C319 1.307 . S
C2347 C412 1.259 . S
C2361 C327 1.021 . S
C2367 C517 1.100 . S
C2387 C458 1.237 . S
C2381 C291 1.257 . S
C2401 C299 0.970 . S
C2407 C561 1.091 . S
C2427 C501 1.298 . S
C2421 C312 1.310 . S
C2447 C645 1.164 . S
C2441 C320 1.199 . S
C2467 C437 1.289 . S
C2461 C250 1.316 . S
C2481 C256 1.296 . S
C2487 C540 1.252 . S
C2507 C475 1.219 . S
C2501 C271 1.140 . S
C2527 C499 1.235 . S
C2521 C326 1.328 . S
C2541 C285 0.978 1_554 S
C2547 C666 1.121 . S
C2567 C584 1.195 . S
C2561 C263 1.175 . S
C2587 C604 1.119 . S
C2581 C235 1.242 . S
