# Generated by pormake.
# Topology apo, (3,6)-cn, num edge types: 1
# Building blocks:
#     Node 0, Type 0, BuildingBlock: WUSLED_clean_sbu_0, # of connection points: 3
#     Node 1, Type 0, BuildingBlock: WUSLED_clean_sbu_0, # of connection points: 3
#     Node 2, Type 0, BuildingBlock: WUSLED_clean_sbu_0, # of connection points: 3
#     Node 3, Type 0, BuildingBlock: WUSLED_clean_sbu_0, # of connection points: 3
#     Node 4, Type 0, BuildingBlock: WUSLED_clean_sbu_0, # of connection points: 3
#     Node 5, Type 0, BuildingBlock: WUSLED_clean_sbu_0, # of connection points: 3
#     Node 6, Type 0, BuildingBlock: WUSLED_clean_sbu_0, # of connection points: 3
#     Node 7, Type 0, BuildingBlock: WUSLED_clean_sbu_0, # of connection points: 3
#     Node 8, Type 1, BuildingBlock: KUMJIN_clean_sbu_1, # of connection points: 6
#     Node 9, Type 1, BuildingBlock: KUMJIN_clean_sbu_1, # of connection points: 6
#     Node 10, Type 1, BuildingBlock: KUMJIN_clean_sbu_1, # of connection points: 6
#     Node 11, Type 1, BuildingBlock: KUMJIN_clean_sbu_1, # of connection points: 6
#     Edge 12, Type (0, 1), BuildingBlock: ZUJKAS_clean_linker_0, # of connection points: 2
#     Edge 13, Type (0, 1), BuildingBlock: ZUJKAS_clean_linker_0, # of connection points: 2
#     Edge 14, Type (0, 1), BuildingBlock: ZUJKAS_clean_linker_0, # of connection points: 2
#     Edge 15, Type (0, 1), BuildingBlock: ZUJKAS_clean_linker_0, # of connection points: 2
#     Edge 16, Type (0, 1), BuildingBlock: ZUJKAS_clean_linker_0, # of connection points: 2
#     Edge 17, Type (0, 1), BuildingBlock: ZUJKAS_clean_linker_0, # of connection points: 2
#     Edge 18, Type (0, 1), BuildingBlock: ZUJKAS_clean_linker_0, # of connection points: 2
#     Edge 19, Type (0, 1), BuildingBlock: ZUJKAS_clean_linker_0, # of connection points: 2
#     Edge 20, Type (0, 1), BuildingBlock: ZUJKAS_clean_linker_0, # of connection points: 2
#     Edge 21, Type (0, 1), BuildingBlock: ZUJKAS_clean_linker_0, # of connection points: 2
#     Edge 22, Type (0, 1), BuildingBlock: ZUJKAS_clean_linker_0, # of connection points: 2
#     Edge 23, Type (0, 1), BuildingBlock: ZUJKAS_clean_linker_0, # of connection points: 2
#     Edge 24, Type (0, 1), BuildingBlock: ZUJKAS_clean_linker_0, # of connection points: 2
#     Edge 25, Type (0, 1), BuildingBlock: ZUJKAS_clean_linker_0, # of connection points: 2
#     Edge 26, Type (0, 1), BuildingBlock: ZUJKAS_clean_linker_0, # of connection points: 2
#     Edge 27, Type (0, 1), BuildingBlock: ZUJKAS_clean_linker_0, # of connection points: 2
#     Edge 28, Type (0, 1), BuildingBlock: ZUJKAS_clean_linker_0, # of connection points: 2
#     Edge 29, Type (0, 1), BuildingBlock: ZUJKAS_clean_linker_0, # of connection points: 2
#     Edge 30, Type (0, 1), BuildingBlock: ZUJKAS_clean_linker_0, # of connection points: 2
#     Edge 31, Type (0, 1), BuildingBlock: ZUJKAS_clean_linker_0, # of connection points: 2
#     Edge 32, Type (0, 1), BuildingBlock: ZUJKAS_clean_linker_0, # of connection points: 2
#     Edge 33, Type (0, 1), BuildingBlock: ZUJKAS_clean_linker_0, # of connection points: 2
#     Edge 34, Type (0, 1), BuildingBlock: ZUJKAS_clean_linker_0, # of connection points: 2
#     Edge 35, Type (0, 1), BuildingBlock: ZUJKAS_clean_linker_0, # of connection points: 2
# Relax obj value: 0.010
# Max RMSD: 0.089
# Mean RMSD: 0.069
data_MOF--net-apo--node1-WUSLED_clean_sbu_0--node2-KUMJIN_clean_sbu_1--edge1-ZUJKAS_clean_linker_0
_symmetry_space_group_name_H-M    P1
_symmetry_Int_Tables_number       1
_symmetry_cell_setting            triclinic
loop_
_symmetry_equiv_pos_as_xyz
'x, y, z'
_cell_length_a     38.213482
_cell_length_b     67.921913
_cell_length_c     79.544986
_cell_angle_alpha  90.402961
_cell_angle_beta   90.104036
_cell_angle_gamma 90.739989
loop_
_atom_site_label
_atom_site_type_symbol
_atom_site_fract_x
_atom_site_fract_y
_atom_site_fract_z
_atom_type_partial_charge
C0 C 0.3037 0.42235 0.38806 0.0
C1 C 0.32664 0.43461 0.39727 0.0
C2 C 0.33228 0.45664 0.37329 0.0
C3 C 0.34081 0.45163 0.38995 0.0
C4 C 0.30887 0.44437 0.36426 0.0
C5 C 0.29477 0.42739 0.37158 0.0
U6 U 0.28943 0.38675 0.42469 0.0
O7 O 0.24236 0.36939 0.43128 0.0
O8 O 0.29106 0.35441 0.4248 0.0
C9 C 0.25737 0.35254 0.4278 0.0
C10 C 0.28923 0.40411 0.39527 0.0
C11 C 0.23792 0.33947 0.41613 0.0
C12 C 0.22239 0.32923 0.38769 0.0
C13 C 0.24056 0.34192 0.39867 0.0
C14 C 0.19822 0.3117 0.4115 0.0
C15 C 0.20104 0.31393 0.39397 0.0
C16 C 0.21656 0.32434 0.42247 0.0
C17 C 0.33025 0.40043 0.46793 0.0
C18 C 0.31986 0.3841 0.49464 0.0
C19 C 0.36533 0.40912 0.49242 0.0
C20 C 0.3571 0.4116 0.47547 0.0
C21 C 0.34688 0.39534 0.50226 0.0
C22 C 0.31166 0.38659 0.47758 0.0
C23 C 0.32218 0.40382 0.45008 0.0
O24 O 0.31235 0.39091 0.39961 0.0
O25 O 0.26436 0.40638 0.40648 0.0
O26 O 0.28924 0.40708 0.44634 0.0
O27 O 0.33772 0.39217 0.43923 0.0
H28 H 0.33382 0.4309 0.41004 0.0
H29 H 0.35897 0.46064 0.39721 0.0
H30 H 0.30124 0.44793 0.35153 0.0
H31 H 0.27696 0.41813 0.36432 0.0
H32 H 0.22479 0.33152 0.37428 0.0
H33 H 0.25675 0.35363 0.39354 0.0
H34 H 0.18231 0.29997 0.41675 0.0
H35 H 0.2142 0.32223 0.43591 0.0
H36 H 0.30531 0.37326 0.5018 0.0
H37 H 0.38583 0.41828 0.4979 0.0
H38 H 0.37162 0.42242 0.46824 0.0
H39 H 0.29086 0.37778 0.47194 0.0
C40 C 0.21239 0.15552 0.9732 0.0
C41 C 0.18765 0.14129 0.97821 0.0
C42 C 0.19109 0.15337 1.00716 0.0
C43 C 0.17706 0.14023 0.99505 0.0
C44 C 0.21613 0.16747 1.002 0.0
C45 C 0.2266 0.16852 0.9852 0.0
U46 U 0.21727 0.13535 0.92822 0.0
O47 O 0.21265 0.15052 0.90403 0.0
O48 O 0.26141 0.1355 0.91041 0.0
C49 C 0.24519 0.14694 0.89974 0.0
C50 C 0.22375 0.15702 0.95557 0.0
C51 C 0.26579 0.1637 0.89314 0.0
C52 C 0.27825 0.19882 0.89096 0.0
C53 C 0.25962 0.18318 0.89827 0.0
C54 C 0.31003 0.17567 0.87367 0.0
C55 C 0.30352 0.19525 0.87848 0.0
C56 C 0.2913 0.16009 0.8809 0.0
C57 C 0.17408 0.086 0.91701 0.0
C58 C 0.17737 0.07188 0.88889 0.0
C59 C 0.14472 0.05493 0.91063 0.0
C60 C 0.15339 0.06996 0.92206 0.0
C61 C 0.15663 0.05567 0.8939 0.0
C62 C 0.18604 0.08692 0.90036 0.0
C63 C 0.18289 0.10165 0.92922 0.0
O64 O 0.24724 0.14419 0.95077 0.0
O65 O 0.19869 0.15939 0.94444 0.0
O66 O 0.16767 0.11861 0.92669 0.0
O67 O 0.21627 0.10349 0.93301 0.0
H68 H 0.17643 0.13109 0.9691 0.0
H69 H 0.15752 0.12932 0.99852 0.0
H70 H 0.22799 0.17758 1.011 0.0
H71 H 0.24591 0.17952 0.98157 0.0
H72 H 0.2729 0.21371 0.89508 0.0
H73 H 0.24017 0.18633 0.90778 0.0
H74 H 0.32897 0.17239 0.86396 0.0
H75 H 0.29637 0.14518 0.87672 0.0
H76 H 0.18727 0.07284 0.87617 0.0
H77 H 0.12825 0.04286 0.91485 0.0
H78 H 0.14383 0.06907 0.93485 0.0
H79 H 0.20211 0.09924 0.89626 0.0
C80 C 0.80737 0.10048 0.64427 0.0
C81 C 0.83948 0.09255 0.63923 0.0
C82 C 0.83331 0.06641 0.65996 0.0
C83 C 0.85237 0.07569 0.64703 0.0
C84 C 0.80074 0.07418 0.66462 0.0
C85 C 0.78799 0.09105 0.65687 0.0
U86 U 0.79341 0.13713 0.60809 0.0
O87 O 0.74673 0.1547 0.60255 0.0
O88 O 0.79666 0.16946 0.60859 0.0
C89 C 0.76283 0.17142 0.60616 0.0
C90 C 0.79405 0.1189 0.6371 0.0
C91 C 0.74449 0.18441 0.61811 0.0
C92 C 0.73866 0.19949 0.6458 0.0
C93 C 0.75626 0.18694 0.63474 0.0
C94 C 0.6968 0.20681 0.62391 0.0
C95 C 0.7087 0.20964 0.64053 0.0
C96 C 0.71458 0.19438 0.61283 0.0
C97 C 0.82845 0.12615 0.56367 0.0
C98 C 0.84583 0.14916 0.54179 0.0
C99 C 0.83207 0.11525 0.53453 0.0
C100 C 0.82501 0.11128 0.55143 0.0
C101 C 0.84296 0.13418 0.52952 0.0
C102 C 0.83851 0.14521 0.55869 0.0
C103 C 0.82271 0.1212 0.58152 0.0
O104 O 0.81767 0.13214 0.63273 0.0
O105 O 0.76834 0.11699 0.62619 0.0
O106 O 0.79015 0.11751 0.58592 0.0
O107 O 0.84005 0.1319 0.59266 0.0
H108 H 0.85487 0.09955 0.62948 0.0
H109 H 0.87767 0.07024 0.64322 0.0
H110 H 0.78502 0.06724 0.67427 0.0
H111 H 0.76307 0.09689 0.66088 0.0
H112 H 0.7489 0.20145 0.65841 0.0
H113 H 0.77917 0.17931 0.63918 0.0
H114 H 0.67349 0.21404 0.61946 0.0
H115 H 0.70489 0.19252 0.60009 0.0
H116 H 0.85371 0.16395 0.53831 0.0
H117 H 0.82992 0.10334 0.52544 0.0
H118 H 0.81736 0.09648 0.55499 0.0
H119 H 0.84111 0.157 0.56787 0.0
C120 C 0.70498 0.3658 0.05962 0.0
C121 C 0.68491 0.38195 0.05473 0.0
C122 C 0.68256 0.36941 0.02589 0.0
C123 C 0.6738 0.38375 0.038 0.0
C124 C 0.70291 0.35334 0.03093 0.0
C125 C 0.71396 0.35156 0.04762 0.0
U126 U 0.7118 0.3843 0.10502 0.0
O127 O 0.70596 0.36836 0.12883 0.0
O128 O 0.75571 0.3833 0.12297 0.0
C129 C 0.73849 0.37192 0.13347 0.0
C130 C 0.7166 0.3635 0.07716 0.0
C131 C 0.75786 0.35517 0.14034 0.0
C132 C 0.77558 0.3209 0.13972 0.0
C133 C 0.75791 0.33666 0.13238 0.0
C134 C 0.79364 0.34213 0.16283 0.0
C135 C 0.7936 0.32344 0.15508 0.0
C136 C 0.77598 0.35779 0.15553 0.0
C137 C 0.67215 0.43348 0.11753 0.0
C138 C 0.66482 0.44371 0.14666 0.0
C139 C 0.65546 0.46701 0.12423 0.0
C140 C 0.66356 0.45248 0.11236 0.0
C141 C 0.65567 0.46277 0.14154 0.0
C142 C 0.67307 0.42921 0.13477 0.0
C143 C 0.67992 0.41831 0.10483 0.0
O144 O 0.74104 0.37596 0.08229 0.0
O145 O 0.69151 0.36091 0.08824 0.0
O146 O 0.66343 0.40136 0.10671 0.0
O147 O 0.71317 0.41637 0.10106 0.0
H148 H 0.6777 0.39309 0.06386 0.0
H149 H 0.65792 0.39621 0.03463 0.0
H150 H 0.71068 0.3422 0.02193 0.0
H151 H 0.72957 0.33904 0.05116 0.0
H152 H 0.7753 0.30676 0.13333 0.0
H153 H 0.74412 0.33437 0.1206 0.0
H154 H 0.8067 0.34458 0.17477 0.0
H155 H 0.7761 0.37196 0.16189 0.0
H156 H 0.66493 0.43985 0.15985 0.0
H157 H 0.64919 0.48159 0.11982 0.0
H158 H 0.66301 0.45608 0.09911 0.0
H159 H 0.67981 0.41461 0.139 0.0
C160 C 0.70805 0.59939 0.64202 0.0
C161 C 0.68655 0.58633 0.6328 0.0
C162 C 0.68296 0.56429 0.65689 0.0
C163 C 0.67405 0.56893 0.64019 0.0
C164 C 0.70471 0.57746 0.66596 0.0
C165 C 0.7171 0.5948 0.65859 0.0
U166 U 0.72072 0.63616 0.60574 0.0
O167 O 0.71771 0.66852 0.60661 0.0
O168 O 0.76701 0.65437 0.59977 0.0
C169 C 0.7513 0.67091 0.60362 0.0
C170 C 0.72103 0.61797 0.6348 0.0
C171 C 0.77019 0.68402 0.61548 0.0
C172 C 0.80203 0.68946 0.64166 0.0
C173 C 0.78429 0.67677 0.6305 0.0
C174 C 0.79136 0.7168 0.62303 0.0
C175 C 0.80573 0.70965 0.63807 0.0
C176 C 0.77381 0.70409 0.61185 0.0
C177 C 0.68406 0.62445 0.56154 0.0
C178 C 0.70108 0.64046 0.53547 0.0
C179 C 0.6505 0.61861 0.53595 0.0
C180 C 0.65594 0.61534 0.55309 0.0
C181 C 0.67319 0.63107 0.52686 0.0
C182 C 0.70641 0.63723 0.55267 0.0
C183 C 0.69008 0.61985 0.57941 0.0
O184 O 0.74628 0.61642 0.6237 0.0
O185 O 0.69701 0.63065 0.63047 0.0
O186 O 0.67339 0.6308 0.59039 0.0
O187 O 0.72265 0.61644 0.58375 0.0
H188 H 0.67938 0.58964 0.61995 0.0
H189 H 0.65764 0.55904 0.63279 0.0
H190 H 0.71164 0.57456 0.67891 0.0
H191 H 0.73357 0.60476 0.66591 0.0
H192 H 0.8124 0.68351 0.65321 0.0
H193 H 0.78149 0.66132 0.6336 0.0
H194 H 0.79407 0.73221 0.61979 0.0
H195 H 0.76307 0.70995 0.60033 0.0
H196 H 0.7188 0.6503 0.52891 0.0
H197 H 0.62908 0.61093 0.52971 0.0
H198 H 0.63846 0.6054 0.55971 0.0
H199 H 0.72818 0.64451 0.55899 0.0
C200 C 0.80314 0.86462 0.05622 0.0
C201 C 0.80517 0.8832 0.04861 0.0
C202 C 0.82489 0.8682 0.02234 0.0
C203 C 0.81579 0.88496 0.03184 0.0
C204 C 0.82331 0.84967 0.03016 0.0
C205 C 0.81248 0.84792 0.04689 0.0
U206 U 0.79585 0.88311 0.10164 0.0
O207 O 0.75113 0.88242 0.11911 0.0
O208 O 0.79966 0.86718 0.12552 0.0
C209 C 0.76712 0.87085 0.12975 0.0
C210 C 0.79105 0.86233 0.07374 0.0
C211 C 0.74634 0.85416 0.1363 0.0
C212 C 0.73087 0.8193 0.1371 0.0
C213 C 0.74951 0.83498 0.12982 0.0
C214 C 0.70518 0.84189 0.15713 0.0
C215 C 0.70864 0.82256 0.15093 0.0
C216 C 0.72385 0.85748 0.14989 0.0
C217 C 0.8388 0.93236 0.11425 0.0
C218 C 0.82336 0.95336 0.13795 0.0
C219 C 0.88089 0.95622 0.12542 0.0
C220 C 0.87201 0.94134 0.11389 0.0
C221 C 0.85661 0.96255 0.13754 0.0
C222 C 0.81459 0.93837 0.12646 0.0
C223 C 0.83013 0.91686 0.10176 0.0
O224 O 0.81568 0.85965 0.08502 0.0
O225 O 0.76684 0.87462 0.07878 0.0
O226 O 0.797 0.91507 0.09744 0.0
O227 O 0.8454 0.89986 0.10404 0.0
H228 H 0.79825 0.89634 0.05558 0.0
H229 H 0.81621 0.89945 0.02625 0.0
H230 H 0.83069 0.83647 0.02339 0.0
H231 H 0.81131 0.83346 0.05255 0.0
H232 H 0.73384 0.80464 0.1319 0.0
H233 H 0.76666 0.83209 0.11928 0.0
H234 H 0.68875 0.84494 0.16789 0.0
H235 H 0.72117 0.87216 0.15512 0.0
H236 H 0.80386 0.95796 0.14697 0.0
H237 H 0.90695 0.96262 0.12491 0.0
H238 H 0.89116 0.93682 0.10465 0.0
H239 H 0.78882 0.93158 0.12707 0.0
C240 C 0.20393 0.9215 0.38704 0.0
C241 C 0.17665 0.93197 0.39461 0.0
C242 C 0.17829 0.95594 0.37189 0.0
C243 C 0.16387 0.94903 0.38707 0.0
C244 C 0.20606 0.94553 0.36458 0.0
C245 C 0.2187 0.92848 0.37209 0.0
U246 U 0.21679 0.88431 0.42293 0.0
O247 O 0.21207 0.85198 0.42179 0.0
O248 O 0.26242 0.86595 0.42825 0.0
C249 C 0.24567 0.84949 0.42443 0.0
C250 C 0.2166 0.9029 0.39406 0.0
C251 C 0.26332 0.83661 0.41224 0.0
C252 C 0.29093 0.83134 0.38508 0.0
C253 C 0.27404 0.84375 0.39653 0.0
C254 C 0.28619 0.80448 0.40487 0.0
C255 C 0.2972 0.81155 0.38912 0.0
C256 C 0.26944 0.81692 0.41632 0.0
C257 C 0.18317 0.8949 0.46771 0.0
C258 C 0.16119 0.87284 0.4894 0.0
C259 C 0.18596 0.90458 0.49721 0.0
C260 C 0.19237 0.90863 0.48026 0.0
C261 C 0.16991 0.88672 0.50202 0.0
C262 C 0.16782 0.87685 0.47244 0.0
C263 C 0.1886 0.9001 0.44985 0.0
O264 O 0.24241 0.90439 0.40495 0.0
O265 O 0.19235 0.89004 0.39846 0.0
O266 O 0.17062 0.88985 0.43862 0.0
O267 O 0.22115 0.90356 0.4453 0.0
H268 H 0.165 0.92684 0.40621 0.0
H269 H 0.14274 0.95682 0.39312 0.0
H270 H 0.21747 0.95025 0.3528 0.0
H271 H 0.23969 0.92055 0.36604 0.0
H272 H 0.2987 0.83718 0.373 0.0
H273 H 0.26931 0.8589 0.39312 0.0
H274 H 0.29097 0.7894 0.40846 0.0
H275 H 0.26135 0.81117 0.42839 0.0
H276 H 0.14844 0.85903 0.49255 0.0
H277 H 0.19364 0.91548 0.50655 0.0
H278 H 0.2043 0.92263 0.47694 0.0
H279 H 0.16045 0.86594 0.46305 0.0
C280 C 0.30761 0.65834 0.97147 0.0
C281 C 0.33855 0.64856 0.9757 0.0
C282 C 0.33043 0.65708 1.00527 0.0
C283 C 0.34994 0.64802 0.99244 0.0
C284 C 0.2991 0.6665 1.00098 0.0
C285 C 0.28789 0.66715 0.98424 0.0
U286 U 0.30094 0.63796 0.92658 0.0
O287 O 0.25679 0.63803 0.9087 0.0
O288 O 0.30638 0.65284 0.90227 0.0
C289 C 0.27369 0.64921 0.89792 0.0
C290 C 0.29576 0.65973 0.95386 0.0
C291 C 0.25395 0.66571 0.89072 0.0
C292 C 0.24548 0.70069 0.88588 0.0
C293 C 0.26298 0.68548 0.89407 0.0
C294 C 0.2091 0.67661 0.8713 0.0
C295 C 0.21863 0.69642 0.8742 0.0
C296 C 0.22663 0.66146 0.87944 0.0
C297 C 0.34174 0.58834 0.91561 0.0
C298 C 0.36185 0.57719 0.88818 0.0
C299 C 0.34621 0.55334 0.90945 0.0
C300 C 0.33805 0.56866 0.92056 0.0
C301 C 0.35849 0.55739 0.89314 0.0
C302 C 0.35342 0.5925 0.89927 0.0
C303 C 0.33349 0.6042 0.92771 0.0
O304 O 0.32049 0.66224 0.94256 0.0
O305 O 0.27158 0.64688 0.94917 0.0
O306 O 0.30021 0.60605 0.93146 0.0
O307 O 0.34968 0.62118 0.92546 0.0
H308 H 0.35405 0.64148 0.96606 0.0
H309 H 0.37394 0.64045 0.99535 0.0
H310 H 0.28365 0.67378 1.01052 0.0
H311 H 0.26393 0.67474 0.98124 0.0
H312 H 0.2537 0.71576 0.88833 0.0
H313 H 0.28398 0.68917 0.90275 0.0
H314 H 0.18812 0.67276 0.86266 0.0
H315 H 0.21918 0.64632 0.87669 0.0
H316 H 0.37161 0.58092 0.87582 0.0
H317 H 0.34264 0.53832 0.91364 0.0
H318 H 0.32886 0.56511 0.93308 0.0
H319 H 0.35633 0.60757 0.89508 0.0
Eu320 Eu 0.04133 0.1498 0.2505 0.0
C321 C 0.88011 0.13588 0.27193 0.0
N322 N 0.90083 0.15213 0.27409 0.0
C323 C 0.85305 0.173 0.26694 0.0
C324 C 0.84489 0.13763 0.26691 0.0
C325 C 0.88776 0.17055 0.27201 0.0
C326 C 0.83155 0.15647 0.26429 0.0
C327 C 0.87328 0.10029 0.27274 0.0
C328 C 0.89413 0.11742 0.27482 0.0
C329 C 0.83824 0.10198 0.26764 0.0
C330 C 0.8241 0.12059 0.26473 0.0
Eu331 Eu 0.95914 0.1464 0.2822 0.0
N332 N 0.92846 0.11618 0.27922 0.0
C333 C 0.88835 0.08197 0.27574 0.0
C334 C 0.94297 0.09842 0.28273 0.0
C335 C 0.92327 0.08105 0.28086 0.0
H336 H 0.90394 0.18336 0.27458 0.0
H337 H 0.93502 0.06696 0.2834 0.0
H338 H 0.10789 0.12915 0.27078 0.0
H339 H 0.02576 0.22632 0.2305 0.0
H340 H 0.96975 0.09757 0.28686 0.0
H341 H 0.87322 0.06846 0.27424 0.0
H342 H 0.01417 0.19064 0.22996 0.0
H343 H 0.84283 0.18764 0.2652 0.0
H344 H 0.82186 0.08898 0.26592 0.0
H345 H 0.797 0.12164 0.26084 0.0
H346 H 0.16215 0.13954 0.28564 0.0
H347 H 0.80463 0.15842 0.26041 0.0
H348 H 0.07442 0.23988 0.24776 0.0
N349 N 0.09399 0.15831 0.26435 0.0
C350 C 0.10283 0.17777 0.26478 0.0
C351 C 0.14565 0.15043 0.27986 0.0
C352 C 0.13334 0.18436 0.2732 0.0
C353 C 0.115 0.14459 0.27148 0.0
C354 C 0.15477 0.1704 0.28081 0.0
N355 N 0.05176 0.18426 0.24882 0.0
C356 C 0.03358 0.19645 0.23853 0.0
C357 C 0.0896 0.21136 0.25711 0.0
C358 C 0.08087 0.19111 0.257 0.0
C359 C 0.06858 0.22423 0.24802 0.0
C360 C 0.04094 0.21666 0.23836 0.0
H361 H 0.17841 0.17489 0.28741 0.0
H362 H 0.16445 0.20995 0.28042 0.0
H363 H 0.12635 0.23357 0.26622 0.0
O364 O 0.04647 0.15255 0.22322 0.0
O365 O 0.04543 0.15937 0.27801 0.0
O366 O 0.99302 0.17392 0.28225 0.0
O367 O 0.08482 0.13625 0.23702 0.0
O368 O 0.98781 0.16073 0.24202 0.0
O369 O 0.96488 0.17365 0.26628 0.0
O370 O 0.96935 0.14024 0.30869 0.0
O371 O 0.95321 0.12942 0.25743 0.0
O372 O 0.00877 0.12197 0.24782 0.0
O373 O 0.92399 0.15701 0.30183 0.0
O374 O 0.00719 0.12842 0.28888 0.0
O375 O 0.04114 0.12143 0.26527 0.0
C376 C 0.02672 0.17319 0.28501 0.0
C377 C 0.10391 0.15295 0.21254 0.0
C378 C 0.12998 0.16018 0.18515 0.0
C379 C 0.15531 0.1721 0.19328 0.0
C380 C 0.12949 0.16489 0.22034 0.0
C381 C 0.15503 0.17439 0.21073 0.0
C382 C 0.10432 0.15057 0.19495 0.0
C383 C 0.96643 0.17281 0.2498 0.0
C384 C 0.07608 0.14337 0.22249 0.0
C385 C 0.14131 0.20458 0.27386 0.0
C386 C 0.1195 0.21805 0.26585 0.0
C387 C 0.9747 0.11909 0.24802 0.0
C388 C 0.94985 0.16399 0.32818 0.0
C389 C 0.94668 0.17178 0.35822 0.0
C390 C 0.96361 0.18992 0.35504 0.0
C391 C 0.96631 0.1822 0.32532 0.0
C392 C 0.94006 0.15881 0.34461 0.0
C393 C 0.97336 0.19503 0.33871 0.0
C394 C 0.0312 0.1181 0.28091 0.0
C395 C 0.94279 0.1503 0.31413 0.0
H396 H 0.17567 0.17948 0.18615 0.0
H397 H 0.1298 0.16689 0.23382 0.0
H398 H 0.17471 0.18355 0.21684 0.0
H399 H 0.08431 0.14153 0.18891 0.0
H400 H 0.96873 0.20036 0.36512 0.0
H401 H 0.97343 0.18651 0.31273 0.0
H402 H 0.92757 0.14464 0.34676 0.0
H403 H 0.98613 0.20907 0.3364 0.0
Eu404 Eu 0.46261 0.37642 0.75078 0.0
C405 C 0.61131 0.40217 0.76702 0.0
N406 N 0.59952 0.38322 0.76602 0.0
C407 C 0.64781 0.37463 0.7484 0.0
C408 C 0.64153 0.40821 0.75821 0.0
C409 C 0.6175 0.36935 0.75719 0.0
C410 C 0.65977 0.39416 0.74882 0.0
C411 C 0.60385 0.43547 0.77753 0.0
C412 C 0.59236 0.41567 0.77646 0.0
C413 C 0.63349 0.44163 0.76846 0.0
C414 C 0.6523 0.42805 0.75885 0.0
Eu415 Eu 0.54791 0.3757 0.78098 0.0
N416 N 0.56338 0.40937 0.78493 0.0
C417 C 0.58574 0.4484 0.78805 0.0
C418 C 0.54804 0.42144 0.79647 0.0
C419 C 0.55819 0.44123 0.79784 0.0
H420 H 0.60826 0.35426 0.75687 0.0
H421 H 0.54524 0.45084 0.80671 0.0
H422 H 0.40927 0.41278 0.7625 0.0
H423 H 0.43815 0.297 0.74648 0.0
H424 H 0.52875 0.41579 0.80507 0.0
H425 H 0.59374 0.46371 0.78923 0.0
H426 H 0.4725 0.32767 0.74357 0.0
H427 H 0.66186 0.36366 0.74126 0.0
H428 H 0.64242 0.45683 0.76901 0.0
H429 H 0.67524 0.43301 0.75202 0.0
H430 H 0.34913 0.41658 0.77335 0.0
H431 H 0.68309 0.39824 0.74187 0.0
H432 H 0.37728 0.2981 0.75693 0.0
N433 N 0.40533 0.38165 0.76057 0.0
C434 C 0.38462 0.36535 0.76213 0.0
C435 C 0.35884 0.40209 0.77032 0.0
C436 C 0.35002 0.36683 0.76809 0.0
C437 C 0.39298 0.39989 0.76436 0.0
C438 C 0.33728 0.38549 0.77223 0.0
N439 N 0.43219 0.346 0.75291 0.0
C440 C 0.44628 0.3284 0.74838 0.0
C441 C 0.37757 0.32984 0.75978 0.0
C442 C 0.39826 0.34704 0.75802 0.0
C443 C 0.3923 0.31166 0.75571 0.0
C444 C 0.42671 0.31096 0.74988 0.0
H445 H 0.31085 0.38724 0.77686 0.0
H446 H 0.30273 0.35058 0.77441 0.0
H447 H 0.32684 0.31822 0.76716 0.0
O448 O 0.46631 0.37051 0.72379 0.0
O449 O 0.45607 0.36038 0.77563 0.0
O450 O 0.51072 0.34967 0.78387 0.0
O451 O 0.42731 0.39055 0.73302 0.0
O452 O 0.50969 0.3588 0.74195 0.0
O453 O 0.54061 0.34815 0.76524 0.0
O454 O 0.56072 0.37679 0.80821 0.0
O455 O 0.55062 0.38734 0.75408 0.0
O456 O 0.49866 0.40298 0.75141 0.0
O457 O 0.59033 0.35827 0.79097 0.0
O458 O 0.49735 0.38892 0.7912 0.0
O459 O 0.47221 0.40279 0.76779 0.0
C460 C 0.47634 0.34878 0.7844 0.0
C461 C 0.4508 0.39667 0.70611 0.0
C462 C 0.44912 0.40518 0.6763 0.0
C463 C 0.46935 0.42216 0.67993 0.0
C464 C 0.47057 0.41378 0.70943 0.0
C465 C 0.47987 0.42642 0.69639 0.0
C466 C 0.43992 0.39245 0.68955 0.0
C467 C 0.53211 0.34693 0.74923 0.0
C468 C 0.44206 0.38297 0.71978 0.0
C469 C 0.32935 0.34972 0.76983 0.0
C470 C 0.34308 0.33128 0.76568 0.0
C471 C 0.53219 0.40197 0.74831 0.0
C472 C 0.60871 0.35728 0.82013 0.0
C473 C 0.62403 0.35489 0.84995 0.0
C474 C 0.65068 0.3417 0.84571 0.0
C475 C 0.63574 0.34413 0.81631 0.0
C476 C 0.60321 0.36287 0.83706 0.0
C477 C 0.65656 0.33647 0.82901 0.0
C478 C 0.47633 0.40179 0.7842 0.0
C479 C 0.58607 0.36432 0.80634 0.0
H480 H 0.47655 0.43235 0.67007 0.0
H481 H 0.47869 0.41738 0.72211 0.0
H482 H 0.49513 0.43961 0.69907 0.0
H483 H 0.42475 0.37917 0.68698 0.0
H484 H 0.66723 0.33553 0.85536 0.0
H485 H 0.64073 0.33959 0.80346 0.0
H486 H 0.58243 0.37293 0.84024 0.0
H487 H 0.67724 0.32633 0.82589 0.0
Eu488 Eu 0.05101 0.8763 0.74837 0.0
C489 C 0.91084 0.84148 0.77267 0.0
N490 N 0.91871 0.86079 0.77031 0.0
C491 C 0.86535 0.86504 0.75499 0.0
C492 C 0.88042 0.83291 0.76556 0.0
C493 C 0.89599 0.87283 0.76221 0.0
C494 C 0.85779 0.84492 0.75645 0.0
C495 C 0.9247 0.81057 0.78596 0.0
C496 C 0.93273 0.83051 0.78272 0.0
C497 C 0.89538 0.80165 0.77821 0.0
C498 C 0.87321 0.81283 0.76808 0.0
Eu499 Eu 0.97148 0.87276 0.78217 0.0
N500 N 0.96045 0.83969 0.79026 0.0
C501 C 0.94557 0.80041 0.79739 0.0
C502 C 0.97877 0.83037 0.80255 0.0
C503 C 0.97231 0.81048 0.80597 0.0
H504 H 0.90206 0.88835 0.76101 0.0
H505 H 0.9876 0.80303 0.8154 0.0
H506 H 0.1088 0.842 0.76155 0.0
H507 H 0.07783 0.95405 0.73701 0.0
H508 H 0.99817 0.83827 0.8099 0.0
H509 H 0.94033 0.78507 0.8002 0.0
H510 H 0.04641 0.92204 0.73375 0.0
H511 H 0.84771 0.87451 0.74824 0.0
H512 H 0.88901 0.78629 0.7804 0.0
H513 H 0.85014 0.80591 0.76259 0.0
H514 H 0.16273 0.84084 0.77851 0.0
H515 H 0.83413 0.8389 0.75079 0.0
H516 H 0.13012 0.95652 0.7554 0.0
N517 N 0.10542 0.87324 0.76255 0.0
C518 C 0.12284 0.89035 0.7661 0.0
C519 C 0.15149 0.85489 0.77536 0.0
C520 C 0.1545 0.89043 0.77524 0.0
C521 C 0.12046 0.8556 0.76604 0.0
C522 C 0.16822 0.8724 0.7803 0.0
N523 N 0.08047 0.907 0.75025 0.0
C524 C 0.06943 0.92311 0.74164 0.0
C525 C 0.12887 0.92559 0.76186 0.0
C526 C 0.11034 0.90772 0.75949 0.0
C527 C 0.11661 0.9425 0.75389 0.0
C528 C 0.0871 0.94117 0.74349 0.0
H529 H 0.19246 0.87181 0.78735 0.0
H530 H 0.19622 0.90873 0.78566 0.0
H531 H 0.17369 0.93955 0.77396 0.0
O532 O 0.04268 0.87909 0.7213 0.0
O533 O 0.03961 0.90134 0.76678 0.0
O534 O 0.02455 0.88436 0.79024 0.0
O535 O 0.09121 0.86748 0.73039 0.0
O536 O 1.0005 0.89091 0.74044 0.0
O537 O 0.96994 0.89929 0.76476 0.0
O538 O 0.94518 0.87228 0.80691 0.0
O539 O 0.96421 0.86213 0.7551 0.0
O540 O 0.0171 0.8487 0.74874 0.0
O541 O 0.9485 0.89946 0.79241 0.0
O542 O 0.02452 0.86017 0.78933 0.0
O543 O 0.04702 0.84851 0.76434 0.0
C544 C 0.03898 0.89977 0.78319 0.0
C545 C 0.0706 0.85579 0.70413 0.0
C546 C 0.07794 0.84587 0.67472 0.0
C547 C 0.06652 0.82674 0.67897 0.0
C548 C 0.0592 0.83667 0.70805 0.0
C549 C 0.05716 0.82225 0.6955 0.0
C550 C 0.07985 0.86036 0.6875 0.0
C551 C 0.97781 0.90179 0.74872 0.0
C552 C 0.07228 0.87118 0.71721 0.0
C553 C 0.17211 0.90836 0.77846 0.0
C554 C 0.15934 0.92591 0.77177 0.0
C555 C 0.98288 0.84868 0.74747 0.0
C556 C 0.91851 0.90175 0.81924 0.0
C557 C 0.89893 0.90577 0.84836 0.0
C558 C 0.88415 0.9239 0.844 0.0
C559 C 0.90355 0.91993 0.81529 0.0
C560 C 0.91577 0.89457 0.8358 0.0
C561 C 0.88636 0.93084 0.82758 0.0
C562 C 0.04349 0.8475 0.7808 0.0
C563 C 0.93785 0.89091 0.8061 0.0
H564 H 0.06521 0.81514 0.66958 0.0
H565 H 0.05194 0.83294 0.7208 0.0
H566 H 0.0484 0.80749 0.6986 0.0
H567 H 0.08801 0.87527 0.68453 0.0
H568 H 0.87058 0.93267 0.85329 0.0
H569 H 0.90516 0.92576 0.80267 0.0
H570 H 0.92758 0.88068 0.83902 0.0
H571 H 0.87484 0.94481 0.82439 0.0
Eu572 Eu 0.46952 0.64587 0.2505 0.0
C573 C 0.6112 0.67898 0.27381 0.0
N574 N 0.60281 0.65972 0.27125 0.0
C575 C 0.65526 0.65518 0.25531 0.0
C576 C 0.64142 0.68737 0.26651 0.0
C577 C 0.62485 0.64755 0.26273 0.0
C578 C 0.66332 0.67524 0.25699 0.0
C579 C 0.59856 0.70999 0.28758 0.0
C580 C 0.58998 0.69009 0.28419 0.0
C581 C 0.62767 0.71872 0.27967 0.0
C582 C 0.64914 0.7074 0.26922 0.0
Eu583 Eu 0.55072 0.64795 0.28369 0.0
N584 N 0.56241 0.68109 0.29188 0.0
C585 C 0.57845 0.72028 0.29931 0.0
C586 C 0.54495 0.69053 0.30446 0.0
C587 C 0.55197 0.71038 0.30804 0.0
H588 H 0.61843 0.63207 0.2614 0.0
H589 H 0.53735 0.71793 0.31773 0.0
H590 H 0.41389 0.68114 0.26387 0.0
H591 H 0.43751 0.56887 0.23743 0.0
H592 H 0.52589 0.68275 0.31197 0.0
H593 H 0.58414 0.73559 0.30226 0.0
H594 H 0.47115 0.60022 0.23502 0.0
H595 H 0.67235 0.64561 0.24825 0.0
H596 H 0.63445 0.73404 0.28199 0.0
H597 H 0.67208 0.71418 0.2636 0.0
H598 H 0.35978 0.68339 0.28057 0.0
H599 H 0.68679 0.68113 0.25118 0.0
H600 H 0.38488 0.5673 0.25553 0.0
N601 N 0.41523 0.64986 0.26451 0.0
C602 C 0.3967 0.63311 0.26774 0.0
C603 C 0.37016 0.66912 0.2773 0.0
C604 C 0.36483 0.63366 0.27663 0.0
C605 C 0.40127 0.66779 0.26814 0.0
C606 C 0.35221 0.65195 0.28188 0.0
N607 N 0.43815 0.61575 0.2518 0.0
C608 C 0.44806 0.59954 0.24283 0.0
C609 C 0.3883 0.59808 0.26274 0.0
C610 C 0.40819 0.61555 0.26092 0.0
C611 C 0.39944 0.58102 0.25444 0.0
C612 C 0.42912 0.58185 0.24419 0.0
H613 H 0.32786 0.65302 0.28876 0.0
H614 H 0.32153 0.61621 0.28631 0.0
H615 H 0.34201 0.58505 0.27404 0.0
O616 O 0.47749 0.64286 0.22342 0.0
O617 O 0.4804 0.62035 0.26817 0.0
O618 O 0.49836 0.63582 0.29229 0.0
O619 O 0.43027 0.65604 0.23255 0.0
O620 O 0.51934 0.63084 0.24207 0.0
O621 O 0.55025 0.62143 0.26593 0.0
O622 O 0.57817 0.64874 0.30821 0.0
O623 O 0.5567 0.65895 0.25679 0.0
O624 O 0.50406 0.67318 0.25162 0.0
O625 O 0.57599 0.62169 0.29318 0.0
O626 O 0.49825 0.66046 0.29191 0.0
O627 O 0.47518 0.67298 0.26747 0.0
C628 C 0.48195 0.62126 0.28464 0.0
C629 C 0.45224 0.667 0.20646 0.0
C630 C 0.44651 0.6771 0.17716 0.0
C631 C 0.462 0.69538 0.18142 0.0
C632 C 0.46733 0.68536 0.21046 0.0
C633 C 0.47224 0.69945 0.19797 0.0
C634 C 0.44169 0.66294 0.18984 0.0
C635 C 0.54155 0.61931 0.2499 0.0
C636 C 0.44877 0.65171 0.21936 0.0
C637 C 0.34587 0.6161 0.27934 0.0
C638 C 0.35752 0.59836 0.27235 0.0
C639 C 0.53812 0.67282 0.24981 0.0
C640 C 0.60801 0.61983 0.31949 0.0
C641 C 0.63218 0.61665 0.34787 0.0
C642 C 0.6498 0.59965 0.34257 0.0
C643 C 0.62577 0.60274 0.31462 0.0
C644 C 0.61113 0.62672 0.33623 0.0
C645 C 0.64651 0.59276 0.3261 0.0
C646 C 0.47871 0.67327 0.28395 0.0
C647 C 0.58703 0.63037 0.30686 0.0
H648 H 0.46578 0.70665 0.17201 0.0
H649 H 0.47539 0.68871 0.22321 0.0
H650 H 0.48404 0.71358 0.20113 0.0
H651 H 0.43038 0.64865 0.18675 0.0
H652 H 0.66579 0.59147 0.35128 0.0
H653 H 0.62392 0.59716 0.30185 0.0
H654 H 0.59753 0.63988 0.34013 0.0
H655 H 0.66012 0.57962 0.3222 0.0
H656 H 0.10946 0.96592 0.36803 0.0
H657 H 0.08586 0.99398 0.35277 0.0
H658 H 0.1906 0.01351 0.34076 0.0
H659 H 0.21448 0.98579 0.35637 0.0
H660 H 0.14662 0.04402 0.35146 0.0
H661 H 0.08435 0.99847 0.30119 0.0
H662 H 0.0719 0.99174 0.32216 0.0
H663 H 0.11647 0.98882 0.31551 0.0
C664 C 0.12751 0.97631 0.36232 0.0
C665 C 0.16388 0.97353 0.36335 0.0
C666 C 0.11396 0.99221 0.35344 0.0
C667 C 0.13646 1.00562 0.34537 0.0
C668 C 0.17276 1.00323 0.34676 0.0
H669 H 0.07805 0.09095 0.26907 0.0
H670 H 0.10503 0.06412 0.28465 0.0
C671 C 0.18635 0.98732 0.35561 0.0
C672 C 0.1222 0.02214 0.33546 0.0
H673 H 0.0713 0.03256 0.30137 0.0
C674 C 0.13023 0.04153 0.34049 0.0
C675 C 0.10125 0.01885 0.32099 0.0
C676 C 0.09318 0.99836 0.3145 0.0
C677 C 0.11721 0.05773 0.33166 0.0
C678 C 0.09529 0.05443 0.31753 0.0
C679 C 0.0879 0.03505 0.31228 0.0
C680 C 0.07936 0.0709 0.30817 0.0
C681 C 0.12733 0.07824 0.3374 0.0
C682 C 0.05571 0.08347 0.31617 0.0
C683 C 0.04022 0.09879 0.30733 0.0
C684 C 0.04795 0.10184 0.29023 0.0
C685 C 0.07157 0.08912 0.28222 0.0
C686 C 0.08699 0.07375 0.29109 0.0
H687 H 0.15109 0.07824 0.34548 0.0
H688 H 0.13224 0.08801 0.3265 0.0
H689 H 0.10559 0.08453 0.34486 0.0
H690 H 0.04893 0.08131 0.32925 0.0
H691 H 0.02209 0.10819 0.31395 0.0
H692 H 0.391 0.52275 0.9008 0.0
H693 H 0.40726 0.49613 0.88162 0.0
H694 H 0.36554 0.52842 0.83985 0.0
H695 H 0.34807 0.55491 0.85896 0.0
H696 H 0.35957 0.47433 0.85704 0.0
H697 H 0.47132 0.51506 0.82809 0.0
H698 H 0.45389 0.52164 0.84844 0.0
H699 H 0.43028 0.52765 0.8297 0.0
C700 C 0.38477 0.52414 0.88758 0.0
C701 C 0.36819 0.54107 0.88147 0.0
C702 C 0.3943 0.50893 0.87663 0.0
C703 C 0.38782 0.51041 0.85935 0.0
C704 C 0.3711 0.52713 0.85316 0.0
H705 H 0.45094 0.43748 0.77465 0.0
H706 H 0.42644 0.46316 0.79259 0.0
C707 C 0.36132 0.5423 0.86411 0.0
C708 C 0.39882 0.49447 0.84778 0.0
H709 H 0.45861 0.48334 0.81747 0.0
C710 C 0.38119 0.47624 0.84836 0.0
C711 C 0.42687 0.49713 0.83645 0.0
C712 C 0.44696 0.51636 0.8356 0.0
C713 C 0.39075 0.46058 0.83776 0.0
C714 C 0.41933 0.46308 0.82663 0.0
C715 C 0.43673 0.48141 0.826 0.0
C716 C 0.43205 0.44686 0.81569 0.0
C717 C 0.36967 0.44165 0.83834 0.0
C718 C 0.44335 0.42909 0.82269 0.0
C719 C 0.4569 0.41424 0.81241 0.0
C720 C 0.45989 0.41697 0.79497 0.0
C721 C 0.44849 0.43475 0.788 0.0
C722 C 0.43471 0.44953 0.79826 0.0
H723 H 0.34301 0.4441 0.84344 0.0
H724 H 0.3672 0.43483 0.82567 0.0
H725 H 0.38299 0.43111 0.84672 0.0
H726 H 0.4424 0.42686 0.83614 0.0
H727 H 0.46563 0.40076 0.81818 0.0
H728 H 0.61693 0.54808 0.65452 0.0
H729 H 0.59352 0.51937 0.6694 0.0
H730 H 0.69406 0.51065 0.69266 0.0
H731 H 0.71778 0.5392 0.67774 0.0
H732 H 0.61473 0.47954 0.66986 0.0
H733 H 0.62679 0.51488 0.73284 0.0
H734 H 0.63014 0.52864 0.71357 0.0
H735 H 0.66657 0.51455 0.72084 0.0
C736 C 0.63421 0.53992 0.66263 0.0
C737 C 0.66918 0.54609 0.66505 0.0
C738 C 0.62074 0.52356 0.67118 0.0
C739 C 0.64188 0.51309 0.68237 0.0
C740 C 0.67707 0.51878 0.68438 0.0
H741 H 0.58995 0.39944 0.72821 0.0
H742 H 0.61801 0.426 0.71215 0.0
C743 C 0.69056 0.53513 0.67585 0.0
C744 C 0.62694 0.49644 0.69215 0.0
H745 H 0.60933 0.48133 0.73217 0.0
C746 C 0.61355 0.4799 0.68348 0.0
C747 C 0.62512 0.49704 0.70992 0.0
C748 C 0.63761 0.51478 0.71988 0.0
C749 C 0.59859 0.46389 0.69212 0.0
C750 C 0.59736 0.46437 0.7099 0.0
C751 C 0.61059 0.48094 0.71855 0.0
C752 C 0.58104 0.44822 0.71976 0.0
C753 C 0.58353 0.44679 0.68215 0.0
C754 C 0.55155 0.45201 0.7297 0.0
C755 C 0.53577 0.43695 0.73898 0.0
C756 C 0.54932 0.41783 0.73858 0.0
C757 C 0.57908 0.41407 0.72879 0.0
C758 C 0.59491 0.42917 0.71949 0.0
H759 H 0.57935 0.45064 0.66875 0.0
H760 H 0.60195 0.43432 0.68261 0.0
H761 H 0.55822 0.44175 0.68755 0.0
H762 H 0.54053 0.46662 0.73015 0.0
H763 H 0.51301 0.44029 0.74653 0.0
H764 H 0.89542 0.99601 0.13149 0.0
H765 H 0.9126 0.02188 0.15139 0.0
H766 H 0.85464 0.99251 0.19056 0.0
H767 H 0.83881 0.96598 0.17095 0.0
H768 H 0.87389 0.04748 0.16924 0.0
H769 H 0.94891 1.00041 0.21279 0.0
H770 H 0.93442 0.99186 0.19239 0.0
H771 H 0.90435 0.9925 0.20975 0.0
C772 C 0.88674 0.99483 0.14439 0.0
C773 C 0.86602 0.97871 0.14961 0.0
C774 C 0.89633 1.00977 0.15573 0.0
C775 C 0.88541 1.00901 0.17256 0.0
C776 C 0.86403 0.99322 0.17775 0.0
H777 H 0.90585 0.11172 0.23982 0.0
H778 H 0.88211 0.08471 0.22264 0.0
C779 C 0.8546 0.97818 0.16643 0.0
C780 C 0.89637 0.02486 0.18453 0.0
H781 H 0.9411 0.03358 0.22112 0.0
C782 C 0.88854 0.04445 0.18061 0.0
C783 C 0.91581 0.0209 0.19927 0.0
C784 C 0.92669 1.00031 0.20376 0.0
C785 C 0.89978 0.06018 0.19092 0.0
C786 C 0.9187 0.0562 0.20581 0.0
C787 C 0.92633 0.0366 0.20979 0.0
C788 C 0.93257 0.07218 0.21693 0.0
C789 C 0.89231 0.08095 0.18546 0.0
C790 C 0.9687 0.07378 0.21994 0.0
C791 C 0.98227 0.08894 0.23008 0.0
C792 C 0.95999 0.10286 0.23747 0.0
C793 C 0.92374 0.10113 0.23455 0.0
C794 C 0.91014 0.08583 0.22451 0.0
H795 H 0.8857 0.08164 0.17187 0.0
H796 H 0.86965 0.08659 0.19264 0.0
H797 H 0.91512 0.09085 0.18793 0.0
H798 H 0.98651 0.06339 0.21427 0.0
H799 H 0.0103 0.08972 0.23208 0.0
H800 H 0.82973 0.05803 0.69359 0.0
H801 H 0.85312 0.02952 0.70819 0.0
H802 H 0.89321 1.00696 0.66135 0.0
H803 H 0.8693 0.03526 0.64652 0.0
H804 H 0.83861 0.98843 0.70193 0.0
H805 H 0.9791 1.00805 0.69338 0.0
H806 H 0.94455 0.02561 0.69056 0.0
H807 H 0.95314 1.00759 0.67451 0.0
C808 C 0.84318 0.04693 0.68632 0.0
C809 C 0.8476 0.04899 0.66884 0.0
C810 C 0.85671 0.03069 0.69473 0.0
C811 C 0.87522 0.01626 0.68589 0.0
C812 C 0.87952 0.01813 0.66845 0.0
H813 H 0.98359 0.91052 0.71527 0.0
H814 H 0.95714 0.93772 0.70019 0.0
C815 C 0.86589 0.03434 0.66001 0.0
C816 C 0.88974 0.99917 0.69495 0.0
H817 H 0.96639 0.97719 0.70566 0.0
C818 C 0.86654 0.98596 0.70279 0.0
C819 C 0.92618 0.99602 0.69602 0.0
C820 C 0.95231 1.01012 0.6883 0.0
C821 C 0.87879 0.96945 0.71146 0.0
C822 C 0.91527 0.96634 0.71262 0.0
C823 C 0.93844 0.97958 0.70476 0.0
C824 C 0.93008 0.94942 0.72185 0.0
C825 C 0.85253 0.95526 0.71895 0.0
C826 C 0.92378 0.94695 0.7391 0.0
C827 C 0.93876 0.93131 0.7478 0.0
C828 C 0.96065 0.91794 0.73945 0.0
C829 C 0.96686 0.92048 0.72215 0.0
C830 C 0.95179 0.93606 0.71348 0.0
H831 H 0.8263 0.95668 0.71307 0.0
H832 H 0.86118 0.9398 0.71747 0.0
H833 H 0.84982 0.95846 0.73258 0.0
H834 H 0.90775 0.95732 0.74592 0.0
H835 H 0.93357 0.92992 0.76113 0.0
H836 H 0.68501 0.47031 0.17257 0.0
H837 H 0.6676 0.4952 0.19327 0.0
H838 H 0.58763 0.51529 0.1594 0.0
H839 H 0.60376 0.49004 0.13901 0.0
H840 H 0.66679 0.53561 0.19081 0.0
H841 H 0.5328 0.50697 0.20235 0.0
H842 H 0.5655 0.49274 0.19154 0.0
H843 H 0.54101 0.51103 0.18045 0.0
C844 C 0.66338 0.47984 0.16962 0.0
C845 C 0.64571 0.47808 0.15412 0.0
C846 C 0.65364 0.49415 0.18142 0.0
C847 C 0.62592 0.50689 0.17801 0.0
C848 C 0.6086 0.50535 0.16247 0.0
H849 H 0.5282 0.60922 0.21716 0.0
H850 H 0.55103 0.58146 0.20125 0.0
C851 C 0.61821 0.49105 0.15071 0.0
C852 C 0.61546 0.52213 0.19044 0.0
H853 H 0.5447 0.5401 0.21146 0.0
C854 C 0.64023 0.53645 0.19552 0.0
C855 C 0.58086 0.52313 0.19669 0.0
C856 C 0.55361 0.50752 0.19262 0.0
C857 C 0.63085 0.55226 0.20603 0.0
C858 C 0.5959 0.55367 0.21164 0.0
C859 C 0.57145 0.53903 0.20702 0.0
C860 C 0.5835 0.57085 0.22145 0.0
C861 C 0.65792 0.56778 0.21052 0.0
C862 C 0.59426 0.5741 0.23813 0.0
C863 C 0.58109 0.59 0.24738 0.0
C864 C 0.55694 0.6029 0.24007 0.0
C865 C 0.54669 0.59965 0.22326 0.0
C866 C 0.55968 0.58375 0.21411 0.0
H867 H 0.68251 0.566 0.20326 0.0
H868 H 0.64751 0.58271 0.20818 0.0
H869 H 0.66425 0.56681 0.2241 0.0
H870 H 0.61237 0.56416 0.24407 0.0
H871 H 0.58956 0.59203 0.26029 0.0
H872 H 0.35647 0.46022 0.34107 0.0
H873 H 0.38104 0.48947 0.32758 0.0
H874 H 0.36853 0.52255 0.37358 0.0
H875 H 0.34356 0.49335 0.38719 0.0
H876 H 0.34934 0.52625 0.32318 0.0
H877 H 0.47141 0.53307 0.36106 0.0
H878 H 0.44477 0.51092 0.36074 0.0
H879 H 0.43148 0.53189 0.37292 0.0
C880 C 0.35872 0.47373 0.34833 0.0
C881 C 0.34797 0.47441 0.36523 0.0
C882 C 0.37295 0.49041 0.3406 0.0
C883 C 0.37698 0.50813 0.34961 0.0
C884 C 0.36629 0.50893 0.36648 0.0
H885 H 0.45994 0.6227 0.31731 0.0
H886 H 0.43309 0.59595 0.33364 0.0
C887 C 0.35203 0.49221 0.37424 0.0
C888 C 0.39158 0.5258 0.34112 0.0
H889 H 0.46098 0.55806 0.34121 0.0
C890 C 0.37374 0.53321 0.32713 0.0
C891 C 0.4233 0.53494 0.34636 0.0
C892 C 0.4441 0.52726 0.36101 0.0
C893 C 0.38682 0.54946 0.31819 0.0
C894 C 0.41889 0.55832 0.3232 0.0
C895 C 0.4364 0.5512 0.3374 0.0
C896 C 0.4353 0.57451 0.31344 0.0
C897 C 0.36601 0.55722 0.30357 0.0
C898 C 0.44605 0.57118 0.29682 0.0
C899 C 0.46152 0.58634 0.28755 0.0
C900 C 0.46642 0.60515 0.29468 0.0
C901 C 0.45635 0.60836 0.31146 0.0
C902 C 0.44096 0.59314 0.32078 0.0
H903 H 0.33838 0.55195 0.30385 0.0
H904 H 0.36639 0.57357 0.30362 0.0
H905 H 0.37787 0.5521 0.29162 0.0
H906 H 0.44274 0.55678 0.29105 0.0
H907 H 0.47006 0.58325 0.27486 0.0
H908 H 0.13767 0.05902 0.86072 0.0
H909 H 0.11987 0.03261 0.84126 0.0
H910 H 0.13615 0.98974 0.8801 0.0
H911 H 0.15436 0.01594 0.89957 0.0
H912 H 0.15631 0.99789 0.83056 0.0
H913 H 0.03379 0.98009 0.86504 0.0
H914 H 0.05826 1.00266 0.86853 0.0
H915 H 0.07272 0.98008 0.87773 0.0
C916 C 0.13785 0.04396 0.86508 0.0
C917 C 0.14715 0.03964 0.88178 0.0
C918 C 0.12754 0.0289 0.85395 0.0
C919 C 0.12616 1.00927 0.85932 0.0
C920 C 0.13633 1.00484 0.87581 0.0
H921 H 0.06078 0.89747 0.81575 0.0
H922 H 0.08354 0.92418 0.83366 0.0
C923 C 0.14665 0.01985 0.88693 0.0
C924 C 0.11362 0.99341 0.8478 0.0
H925 H 0.04936 0.95843 0.84291 0.0
C926 C 0.13285 0.98931 0.83319 0.0
C927 C 0.083 0.98226 0.85128 0.0
C928 C 0.06051 0.98655 0.86641 0.0
C929 C 0.12267 0.97399 0.82215 0.0
C930 C 0.09214 0.96278 0.82571 0.0
C931 C 0.07284 0.967 0.84026 0.0
C932 C 0.07965 0.94656 0.81454 0.0
C933 C 0.14515 0.96959 0.80704 0.0
C934 C 0.06959 0.95032 0.7979 0.0
C935 C 0.05646 0.93509 0.78768 0.0
C936 C 0.05317 0.91586 0.79391 0.0
C937 C 0.06305 0.91215 0.8106 0.0
C938 C 0.07614 0.92737 0.82082 0.0
H939 H 0.17183 0.97612 0.80835 0.0
H940 H 0.14747 0.95346 0.80503 0.0
H941 H 0.13289 0.97591 0.79566 0.0
H942 H 0.07121 0.9651 0.79292 0.0
H943 H 0.04818 0.93848 0.77502 0.0
H944 H 0.17787 0.12057 0.02634 0.0
H945 H 0.16076 0.11936 0.05597 0.0
H946 H 0.16329 0.1828 0.05843 0.0
H947 H 0.17895 0.18417 0.02874 0.0
H948 H 0.19705 0.13303 0.08323 0.0
H949 H 0.06976 0.17068 0.07985 0.0
H950 H 0.09196 0.16165 0.06138 0.0
H951 H 0.10446 0.18497 0.07064 0.0
C952 C 0.17414 0.13428 0.03309 0.0
C953 C 0.17978 0.15248 0.02509 0.0
C954 C 0.16457 0.13356 0.05007 0.0
C955 C 0.16018 0.15099 0.05939 0.0
C956 C 0.16574 0.16915 0.05144 0.0
H957 H 0.1404 0.18884 0.16166 0.0
H958 H 0.14544 0.18487 0.13118 0.0
C959 C 0.17522 0.1699 0.03449 0.0
C960 C 0.15169 0.15029 0.07763 0.0
H961 H 0.09567 0.16831 0.10727 0.0
C962 C 0.1746 0.14049 0.08847 0.0
C963 C 0.12231 0.15999 0.08447 0.0
C964 C 0.09552 0.16974 0.07346 0.0
C965 C 0.16982 0.14088 0.10599 0.0
C966 C 0.14117 0.15117 0.11284 0.0
C967 C 0.11771 0.1605 0.10199 0.0
C968 C 0.13632 0.15339 0.13127 0.0
C969 C 0.19624 0.13095 0.11709 0.0
C970 C 0.12884 0.13703 0.14142 0.0
C971 C 0.12597 0.13925 0.15889 0.0
C972 C 0.13065 0.15787 0.16652 0.0
C973 C 0.13721 0.17426 0.15622 0.0
C974 C 0.13988 0.17205 0.13879 0.0
H975 H 0.2201 0.1267 0.11005 0.0
H976 H 0.20406 0.14078 0.1277 0.0
H977 H 0.1843 0.11742 0.12246 0.0
H978 H 0.12554 0.12254 0.13584 0.0
H979 H 0.12102 0.12633 0.16647 0.0
H980 H 0.30203 0.39058 0.52899 0.0
H981 H 0.31709 0.38973 0.55899 0.0
H982 H 0.4266 0.39446 0.54659 0.0
H983 H 0.41196 0.395 0.51668 0.0
H984 H 0.36535 0.36377 0.57785 0.0
H985 H 0.40593 0.44261 0.57809 0.0
H986 H 0.37901 0.43183 0.56167 0.0
H987 H 0.42536 0.42778 0.56189 0.0
C988 C 0.32935 0.39112 0.53263 0.0
C989 C 0.35576 0.39311 0.52041 0.0
C990 C 0.33788 0.39071 0.54978 0.0
C991 C 0.37292 0.39235 0.555 0.0
C992 C 0.39936 0.39353 0.54283 0.0
H993 H 0.48788 0.40794 0.64755 0.0
H994 H 0.46802 0.40342 0.61853 0.0
C995 C 0.39091 0.3939 0.52574 0.0
C996 C 0.38204 0.39359 0.57312 0.0
H997 H 0.41861 0.4244 0.60254 0.0
C998 C 0.37679 0.37704 0.58333 0.0
C999 C 0.39689 0.41094 0.5802 0.0
C1000 C 0.40192 0.42939 0.56997 0.0
C1001 C 0.38715 0.37717 0.60033 0.0
C1002 C 0.40249 0.39447 0.60735 0.0
C1003 C 0.40707 0.41111 0.59716 0.0
C1004 C 0.41468 0.3957 0.62512 0.0
C1005 C 0.38265 0.3586 0.61043 0.0
C1006 C 0.3914 0.39276 0.63855 0.0
C1007 C 0.40277 0.39526 0.6552 0.0
C1008 C 0.43753 0.40103 0.65873 0.0
C1009 C 0.46085 0.4037 0.64526 0.0
C1010 C 0.44955 0.40107 0.62866 0.0
H1011 H 0.37948 0.34541 0.6022 0.0
H1012 H 0.40538 0.35637 0.61889 0.0
H1013 H 0.35882 0.35979 0.6183 0.0
H1014 H 0.36418 0.38908 0.63617 0.0
H1015 H 0.38406 0.39335 0.66529 0.0
H1016 H 0.65867 0.33995 1.00496 0.0
H1017 H 0.64208 0.34229 0.97538 0.0
H1018 H 0.66107 0.40498 0.97695 0.0
H1019 H 0.67902 0.40268 1.00643 0.0
H1020 H 0.58971 0.36338 0.95964 0.0
H1021 H 0.72124 0.38757 0.9374 0.0
H1022 H 0.71412 0.37787 0.95819 0.0
H1023 H 0.70219 0.40273 0.95347 0.0
C1024 C 0.6597 0.35423 0.999 0.0
C1025 C 0.67064 0.37109 1.00808 0.0
C1026 C 0.64988 0.35557 0.98211 0.0
C1027 C 0.65081 0.37376 0.97385 0.0
C1028 C 0.66074 0.39073 0.98296 0.0
H1029 H 0.62369 0.39144 0.86479 0.0
H1030 H 0.62487 0.39885 0.89514 0.0
C1031 C 0.67064 0.38941 0.99988 0.0
C1032 C 0.64193 0.37469 0.95565 0.0
H1033 H 0.67712 0.38385 0.91695 0.0
C1034 C 0.60874 0.36802 0.95032 0.0
C1035 C 0.66668 0.38083 0.94347 0.0
C1036 C 0.70316 0.38752 0.94833 0.0
C1037 C 0.59994 0.36688 0.93317 0.0
C1038 C 0.62512 0.37233 0.92099 0.0
C1039 C 0.65779 0.37976 0.92632 0.0
C1040 C 0.61966 0.36843 0.90276 0.0
C1041 C 0.56389 0.35962 0.9282 0.0
C1042 C 0.61591 0.34894 0.89699 0.0
C1043 C 0.61543 0.34472 0.87979 0.0
C1044 C 0.61862 0.3599 0.86795 0.0
C1045 C 0.62081 0.3795 0.87366 0.0
C1046 C 0.62167 0.38372 0.89096 0.0
H1047 H 0.54473 0.36186 0.93851 0.0
H1048 H 0.55444 0.36722 0.91678 0.0
H1049 H 0.56488 0.3436 0.92542 0.0
H1050 H 0.61494 0.33687 0.90582 0.0
H1051 H 0.61379 0.32948 0.87571 0.0
H1052 H 0.80793 0.12202 0.50108 0.0
H1053 H 0.8248 0.12744 0.47172 0.0
H1054 H 0.91557 0.16065 0.48821 0.0
H1055 H 0.89919 0.15511 0.51756 0.0
H1056 H 0.83715 0.16491 0.4548 0.0
H1057 H 0.9545 0.11749 0.45593 0.0
H1058 H 0.92026 0.11576 0.47149 0.0
H1059 H 0.95204 0.13543 0.4726 0.0
C1060 C 0.83158 0.1304 0.49845 0.0
C1061 C 0.85228 0.13808 0.51167 0.0
C1062 C 0.84108 0.13355 0.48168 0.0
C1063 C 0.87165 0.14423 0.47781 0.0
C1064 C 0.8921 0.15215 0.49094 0.0
H1065 H 0.98224 0.17858 0.38773 0.0
H1066 H 0.96266 0.17176 0.41635 0.0
C1067 C 0.88252 0.14913 0.5077 0.0
C1068 C 0.88212 0.14723 0.46004 0.0
H1069 H 0.94631 0.13686 0.43162 0.0
C1070 C 0.86088 0.1587 0.44967 0.0
C1071 C 0.91312 0.13911 0.45342 0.0
C1072 C 0.93624 0.12612 0.46385 0.0
C1073 C 0.87034 0.16274 0.43295 0.0
C1074 C 0.90147 0.15469 0.42633 0.0
C1075 C 0.92249 0.14304 0.43669 0.0
C1076 C 0.9132 0.15855 0.40882 0.0
C1077 C 0.84748 0.17611 0.42274 0.0
C1078 C 0.8922 0.1531 0.39501 0.0
C1079 C 0.90317 0.15717 0.37859 0.0
C1080 C 0.93555 0.16665 0.37564 0.0
C1081 C 0.95689 0.17162 0.38952 0.0
C1082 C 0.94584 0.16759 0.40591 0.0
H1083 H 0.83016 0.1851 0.43086 0.0
H1084 H 0.86354 0.18618 0.41486 0.0
H1085 H 0.83059 0.16704 0.41428 0.0
H1086 H 0.86724 0.14572 0.39691 0.0
H1087 H 0.88595 0.15324 0.36825 0.0
H1088 H 0.80916 0.84317 0.99601 0.0
H1089 H 0.82637 0.84627 0.96658 0.0
H1090 H 0.87998 0.90098 0.97809 0.0
H1091 H 0.8645 0.8975 1.00768 0.0
H1092 H 0.80987 0.87415 0.94444 0.0
H1093 H 0.95393 0.87316 0.95146 0.0
H1094 H 0.92473 0.86636 0.96831 0.0
H1095 H 0.93431 0.8919 0.96418 0.0
C1096 C 0.82525 0.85567 0.99239 0.0
C1097 C 0.83558 0.87002 1.00434 0.0
C1098 C 0.83484 0.85749 0.97549 0.0
C1099 C 0.85502 0.87367 0.97011 0.0
C1100 C 0.86515 0.8881 0.98196 0.0
H1101 H 0.91261 0.92713 0.87682 0.0
H1102 H 0.90323 0.91731 0.906 0.0
C1103 C 0.85577 0.88623 0.99888 0.0
C1104 C 0.86396 0.87597 0.952 0.0
H1105 H 0.93199 0.8844 0.92499 0.0
C1106 C 0.83662 0.87612 0.94017 0.0
C1107 C 0.89889 0.87849 0.94638 0.0
C1108 C 0.92966 0.87727 0.95823 0.0
C1109 C 0.84311 0.87946 0.92303 0.0
C1110 C 0.8779 0.88256 0.91752 0.0
C1111 C 0.90533 0.88202 0.92926 0.0
C1112 C 0.88599 0.88768 0.89982 0.0
C1113 C 0.8126 0.88037 0.911 0.0
C1114 C 0.88026 0.8741 0.88666 0.0
C1115 C 0.8857 0.87968 0.86991 0.0
C1116 C 0.89671 0.89896 0.86607 0.0
C1117 C 0.90362 0.91225 0.87936 0.0
C1118 C 0.89845 0.90664 0.89604 0.0
H1119 H 0.78709 0.88088 0.91766 0.0
H1120 H 0.81501 0.89352 0.90285 0.0
H1121 H 0.81255 0.86713 0.90275 0.0
H1122 H 0.87103 0.85931 0.88933 0.0
H1123 H 0.8801 0.86914 0.85995 0.0
H1124 H 0.72371 0.63174 0.50247 0.0
H1125 H 0.7156 0.63336 0.47199 0.0
H1126 H 0.60394 0.63674 0.4788 0.0
H1127 H 0.61186 0.63558 0.50932 0.0
H1128 H 0.67664 0.60559 0.45306 0.0
H1129 H 0.62437 0.68084 0.44474 0.0
H1130 H 0.64697 0.67346 0.4636 0.0
H1131 H 0.60219 0.66609 0.46019 0.0
C1132 C 0.69747 0.63326 0.49752 0.0
C1133 C 0.66844 0.63353 0.50838 0.0
C1134 C 0.69286 0.63407 0.48008 0.0
C1135 C 0.6592 0.63538 0.4731 0.0
C1136 C 0.63021 0.63606 0.48389 0.0
H1137 H 0.58019 0.62656 0.37002 0.0
H1138 H 0.58621 0.6324 0.40043 0.0
C1139 C 0.63477 0.63518 0.50134 0.0
C1140 C 0.65437 0.63448 0.45456 0.0
H1141 H 0.62351 0.65985 0.42073 0.0
C1142 C 0.6652 0.61751 0.44599 0.0
C1143 C 0.63905 0.64994 0.44537 0.0
C1144 C 0.62769 0.6687 0.45388 0.0
C1145 C 0.66093 0.61546 0.42853 0.0
C1146 C 0.64616 0.63104 0.41925 0.0
C1147 C 0.63496 0.64796 0.42783 0.0
C1148 C 0.64262 0.62991 0.40064 0.0
C1149 C 0.67161 0.5964 0.42023 0.0
C1150 C 0.67238 0.62742 0.39057 0.0
C1151 C 0.66898 0.62401 0.3733 0.0
C1152 C 0.63576 0.62328 0.36566 0.0
C1153 C 0.6061 0.62708 0.37555 0.0
C1154 C 0.60952 0.63035 0.39292 0.0
H1155 H 0.67302 0.5842 0.42943 0.0
H1156 H 0.653 0.59206 0.41009 0.0
H1157 H 0.69795 0.59834 0.41459 0.0
H1158 H 0.69825 0.62755 0.39616 0.0
H1159 H 0.69235 0.62146 0.36595 0.0
H1160 H 0.29237 0.65052 0.03394 0.0
H1161 H 0.31288 0.65238 0.06315 0.0
H1162 H 0.41741 0.66554 0.04594 0.0
H1163 H 0.39712 0.66393 1.01672 0.0
H1164 H 0.37116 0.63039 0.07925 0.0
H1165 H 0.39044 0.7117 0.0789 0.0
H1166 H 0.36311 0.69892 0.0637 0.0
H1167 H 0.40987 0.6983 0.06179 0.0
C1168 C 0.31971 0.65386 0.03638 0.0
C1169 C 0.34308 0.65718 0.023 0.0
C1170 C 0.33141 0.6548 0.05306 0.0
C1171 C 0.36657 0.65928 0.05669 0.0
C1172 C 0.3901 0.66223 0.04339 0.0
H1173 H 0.48262 0.68506 0.14827 0.0
H1174 H 0.46354 0.67948 0.11923 0.0
C1175 C 0.3785 0.66116 0.02671 0.0
C1176 C 0.37853 0.66128 0.07438 0.0
H1177 H 0.40859 0.69494 0.10321 0.0
C1178 C 0.37929 0.64448 0.08454 0.0
C1179 C 0.38918 0.67968 0.08119 0.0
C1180 C 0.38796 0.69826 0.07093 0.0
C1181 C 0.39108 0.64555 0.1013 0.0
C1182 C 0.40154 0.66401 0.10818 0.0
C1183 C 0.40065 0.68079 0.09796 0.0
C1184 C 0.41358 0.66637 0.1259 0.0
C1185 C 0.39309 0.6268 0.1113 0.0
C1186 C 0.39187 0.66091 0.13937 0.0
C1187 C 0.40281 0.66401 0.156 0.0
C1188 C 0.43547 0.67292 0.15951 0.0
C1189 C 0.45717 0.67834 0.146 0.0
C1190 C 0.44634 0.6751 0.12939 0.0
H1191 H 0.39422 0.61362 0.10298 0.0
H1192 H 0.41638 0.62693 0.11967 0.0
H1193 H 0.36934 0.62535 0.11922 0.0
H1194 H 0.36611 0.65464 0.13703 0.0
H1195 H 0.38528 0.65994 0.16612 0.0
H1196 H 0.17416 0.85172 0.51907 0.0
H1197 H 0.15831 0.84519 0.54829 0.0
H1198 H 0.13277 0.90633 0.55535 0.0
H1199 H 0.14686 0.91282 0.52598 0.0
H1200 H 0.18472 0.85971 0.57762 0.0
H1201 H 0.04484 0.87935 0.5721 0.0
H1202 H 0.0726 0.87611 0.554 0.0
H1203 H 0.07411 0.8988 0.56582 0.0
C1204 C 0.16471 0.86375 0.52674 0.0
C1205 C 0.16157 0.88278 0.52004 0.0
C1206 C 0.15593 0.86001 0.54351 0.0
C1207 C 0.14375 0.87518 0.55397 0.0
C1208 C 0.14136 0.89428 0.54746 0.0
H1209 H 0.13182 0.86967 0.66362 0.0
H1210 H 0.14783 0.87716 0.6346 0.0
C1211 C 0.14994 0.89802 0.53067 0.0
C1212 C 0.13384 0.87105 0.5717 0.0
H1213 H 0.06641 0.87409 0.59972 0.0
C1214 C 0.15882 0.86281 0.58245 0.0
C1215 C 0.09989 0.87484 0.57795 0.0
C1216 C 0.0712 0.88257 0.56684 0.0
C1217 C 0.15094 0.85847 0.59929 0.0
C1218 C 0.11735 0.86287 0.60569 0.0
C1219 C 0.09226 0.87091 0.59489 0.0
C1220 C 0.1073 0.85874 0.62341 0.0
C1221 C 0.17842 0.84877 0.60995 0.0
C1222 C 0.07842 0.84645 0.62685 0.0
C1223 C 0.06878 0.84242 0.64344 0.0
C1224 C 0.08779 0.85061 0.65702 0.0
C1225 C 0.11641 0.86318 0.65352 0.0
C1226 C 0.12593 0.86728 0.6369 0.0
H1227 H 0.19861 0.84151 0.6021 0.0
H1228 H 0.19178 0.86013 0.61784 0.0
H1229 H 0.16652 0.83761 0.61839 0.0
H1230 H 0.06341 0.83983 0.61666 0.0
H1231 H 0.04619 0.83299 0.64561 0.0
H1232 H 0.22552 0.29672 0.36512 0.0
H1233 H 0.19465 0.27376 0.34628 0.0
H1234 H 0.10278 0.27714 0.37753 0.0
H1235 H 0.13361 0.29999 0.3965 0.0
H1236 H 0.11742 0.23955 0.3693 0.0
H1237 H 0.11998 0.28505 0.31177 0.0
H1238 H 0.16271 0.28133 0.32048 0.0
H1239 H 0.13085 0.29496 0.33226 0.0
C1240 C 0.19859 0.29278 0.36787 0.0
C1241 C 0.18201 0.30026 0.3823 0.0
C1242 C 0.18093 0.27967 0.35706 0.0
C1243 C 0.14615 0.27396 0.3603 0.0
C1244 C 0.12955 0.28137 0.37472 0.0
H1245 H 0.00647 0.21099 0.29091 0.0
H1246 H 0.0348 0.23553 0.30937 0.0
C1247 C 0.14726 0.29438 0.38559 0.0
C1248 C 0.12749 0.2597 0.34904 0.0
H1249 H 0.10298 0.25134 0.30822 0.0
C1250 C 0.11412 0.24219 0.35597 0.0
C1251 C 0.12272 0.26324 0.33166 0.0
C1252 C 0.1345 0.28225 0.32362 0.0
C1253 C 0.0968 0.22798 0.34596 0.0
C1254 C 0.09337 0.23116 0.32848 0.0
C1255 C 0.10604 0.24883 0.32159 0.0
C1256 C 0.07649 0.21635 0.31717 0.0
C1257 C 0.08185 0.2098 0.35423 0.0
C1258 C 0.09078 0.19753 0.31528 0.0
C1259 C 0.07451 0.18348 0.30486 0.0
C1260 C 0.04384 0.18806 0.29603 0.0
C1261 C 0.02988 0.20701 0.29772 0.0
C1262 C 0.04613 0.22105 0.30817 0.0
H1263 H 0.07865 0.21192 0.368 0.0
H1264 H 0.05604 0.20567 0.3487 0.0
H1265 H 0.0999 0.19734 0.3522 0.0
H1266 H 0.11457 0.1937 0.32184 0.0
H1267 H 0.08585 0.169 0.30378 0.0
H1268 H 0.27663 0.23014 0.86757 0.0
H1269 H 0.30703 0.25645 0.85232 0.0
H1270 H 0.40329 0.2242 0.85519 0.0
H1271 H 0.37311 0.19784 0.87041 0.0
H1272 H 0.3642 0.28007 0.861 0.0
H1273 H 0.39415 0.23423 0.80494 0.0
H1274 H 0.3634 0.22646 0.82084 0.0
H1275 H 0.40967 0.22423 0.82437 0.0
C1276 C 0.30435 0.22873 0.8651 0.0
C1277 C 0.32238 0.2118 0.8701 0.0
C1278 C 0.32165 0.24374 0.85632 0.0
C1279 C 0.35727 0.24212 0.85232 0.0
C1280 C 0.37559 0.22554 0.85775 0.0
H1281 H 0.50605 0.31603 0.79809 0.0
H1282 H 0.47739 0.29058 0.81506 0.0
C1283 C 0.35831 0.2105 0.86647 0.0
C1284 C 0.37523 0.25777 0.84246 0.0
H1285 H 0.42002 0.26614 0.806 0.0
C1286 C 0.37631 0.27704 0.84895 0.0
C1287 C 0.391 0.2538 0.82672 0.0
C1288 C 0.38929 0.23361 0.8187 0.0
C1289 C 0.39322 0.29239 0.84027 0.0
C1290 C 0.40903 0.2884 0.82455 0.0
C1291 C 0.408 0.26913 0.81807 0.0
C1292 C 0.42641 0.30406 0.81452 0.0
C1293 C 0.39459 0.31267 0.84813 0.0
C1294 C 0.4072 0.32 0.80848 0.0
C1295 C 0.42352 0.3346 0.79887 0.0
C1296 C 0.45932 0.33346 0.79491 0.0
C1297 C 0.47849 0.31743 0.80095 0.0
C1298 C 0.46213 0.30283 0.8106 0.0
H1299 H 0.38939 0.3122 0.86186 0.0
H1300 H 0.4205 0.31984 0.84606 0.0
H1301 H 0.37433 0.32194 0.84224 0.0
H1302 H 0.37949 0.32108 0.81109 0.0
H1303 H 0.40801 0.34683 0.7946 0.0
H1304 H 0.69717 0.20521 0.67445 0.0
H1305 H 0.66706 0.22771 0.69357 0.0
H1306 H 0.64703 0.26693 0.65242 0.0
H1307 H 0.67806 0.24496 0.63328 0.0
H1308 H 0.68369 0.27119 0.69845 0.0
H1309 H 0.54894 0.25431 0.67549 0.0
H1310 H 0.58485 0.23758 0.67254 0.0
H1311 H 0.58166 0.25914 0.65975 0.0
C1312 C 0.68674 0.21871 0.66945 0.0
C1313 C 0.69006 0.22318 0.65225 0.0
C1314 C 0.66934 0.23149 0.6804 0.0
C1315 C 0.65456 0.24885 0.67436 0.0
C1316 C 0.65786 0.25344 0.65727 0.0
H1317 H 0.5323 0.34401 0.71491 0.0
H1318 H 0.56256 0.31994 0.69746 0.0
C1319 C 0.67547 0.24078 0.64634 0.0
C1320 C 0.63605 0.26236 0.68592 0.0
H1321 H 0.55532 0.2805 0.695 0.0
C1322 C 0.6556 0.27318 0.69781 0.0
C1323 C 0.59948 0.26494 0.68493 0.0
C1324 C 0.57729 0.25332 0.67259 0.0
C1325 C 0.63961 0.28696 0.7085 0.0
C1326 C 0.60292 0.28954 0.70756 0.0
C1327 C 0.58339 0.27852 0.69574 0.0
C1328 C 0.58436 0.30397 0.71838 0.0
C1329 C 0.66238 0.29907 0.72027 0.0
C1330 C 0.58603 0.30285 0.73598 0.0
C1331 C 0.56894 0.31672 0.74603 0.0
C1332 C 0.54939 0.33182 0.73867 0.0
C1333 C 0.54708 0.33259 0.72103 0.0
C1334 C 0.5644 0.31883 0.71101 0.0
H1335 H 0.69017 0.29929 0.71618 0.0
H1336 H 0.65317 0.31449 0.72114 0.0
H1337 H 0.66132 0.29256 0.73302 0.0
H1338 H 0.60049 0.29122 0.74198 0.0
H1339 H 0.57101 0.31556 0.75957 0.0
H1340 H 0.77119 0.28498 0.15764 0.0
H1341 H 0.79966 0.25812 0.17256 0.0
H1342 H 0.88473 0.29727 0.18648 0.0
H1343 H 0.85711 0.32399 0.17114 0.0
H1344 H 0.90751 0.26082 0.17596 0.0
H1345 H 0.80249 0.25309 0.22371 0.0
H1346 H 0.7877 0.25074 0.20233 0.0
H1347 H 0.80543 0.27386 0.20974 0.0
C1348 C 0.79618 0.28782 0.16368 0.0
C1349 C 0.8117 0.30672 0.1633 0.0
C1350 C 0.81222 0.2725 0.17238 0.0
C1351 C 0.84399 0.27578 0.18092 0.0
C1352 C 0.86006 0.29444 0.18011 0.0
H1353 H 0.94061 0.20831 0.26002 0.0
H1354 H 0.91026 0.23261 0.24295 0.0
C1355 C 0.8441 0.30974 0.17143 0.0
C1356 C 0.86051 0.25989 0.19082 0.0
H1357 H 0.84795 0.22976 0.22458 0.0
C1358 C 0.89446 0.25399 0.18656 0.0
C1359 C 0.84366 0.2512 0.20482 0.0
C1360 C 0.80794 0.25763 0.21057 0.0
C1361 C 0.91194 0.23957 0.19584 0.0
C1362 C 0.89477 0.23056 0.2096 0.0
C1363 C 0.86091 0.23654 0.21393 0.0
C1364 C 0.91198 0.21537 0.21999 0.0
C1365 C 0.949 0.23448 0.19112 0.0
C1366 C 0.92245 0.19744 0.21284 0.0
C1367 C 0.93966 0.18348 0.22259 0.0
C1368 C 0.94644 0.18712 0.23972 0.0
C1369 C 0.93531 0.20492 0.24692 0.0
C1370 C 0.91812 0.21887 0.23717 0.0
H1371 H 0.96124 0.24597 0.18309 0.0
H1372 H 0.96546 0.23261 0.20251 0.0
H1373 H 0.94885 0.2204 0.18397 0.0
H1374 H 0.91741 0.19426 0.19969 0.0
H1375 H 0.94779 0.16986 0.2167 0.0
H1376 H 0.78682 0.74673 0.64794 0.0
H1377 H 0.81826 0.76929 0.66698 0.0
H1378 H 0.89789 0.72581 0.67439 0.0
H1379 H 0.86694 0.70326 0.65514 0.0
H1380 H 0.83804 0.76275 0.70158 0.0
H1381 H 0.95285 0.7762 0.66015 0.0
H1382 H 0.91208 0.76591 0.65237 0.0
H1383 H 0.94175 0.75081 0.66393 0.0
C1384 C 0.81119 0.74202 0.6535 0.0
C1385 C 0.82447 0.72322 0.64993 0.0
C1386 C 0.829 0.75489 0.66446 0.0
C1387 C 0.86061 0.74932 0.67194 0.0
C1388 C 0.87378 0.7305 0.66857 0.0
H1389 H 0.00682 0.81242 0.73828 0.0
H1390 H 0.97723 0.78771 0.72047 0.0
C1391 C 0.85588 0.71757 0.65769 0.0
C1392 C 0.87958 0.76319 0.68335 0.0
H1393 H 0.95482 0.7906 0.68725 0.0
C1394 C 0.86355 0.76887 0.69846 0.0
C1395 C 0.91295 0.77104 0.67928 0.0
C1396 C 0.93094 0.76585 0.663 0.0
C1397 C 0.88011 0.78211 0.70967 0.0
C1398 C 0.91322 0.79024 0.70546 0.0
C1399 C 0.92943 0.78437 0.69044 0.0
C1400 C 0.9311 0.80517 0.7163 0.0
C1401 C 0.86239 0.78697 0.72609 0.0
C1402 C 0.91532 0.82334 0.7196 0.0
C1403 C 0.93224 0.83749 0.72966 0.0
C1404 C 0.96527 0.83377 0.73664 0.0
C1405 C 0.98134 0.81571 0.73309 0.0
C1406 C 0.96444 0.80156 0.72297 0.0
H1407 H 0.84201 0.77583 0.72936 0.0
H1408 H 0.88176 0.78788 0.7365 0.0
H1409 H 0.84951 0.80146 0.72508 0.0
H1410 H 0.89005 0.8267 0.71422 0.0
H1411 H 0.91966 0.85147 0.73177 0.0
H1412 H 0.73354 0.78586 0.15813 0.0
H1413 H 0.70379 0.75932 0.17338 0.0
H1414 H 0.61234 0.79536 0.17862 0.0
H1415 H 0.64142 0.82168 0.16295 0.0
H1416 H 0.67907 0.76095 0.20603 0.0
H1417 H 0.57032 0.74344 0.16192 0.0
H1418 H 0.60826 0.75779 0.15582 0.0
H1419 H 0.57348 0.76906 0.16749 0.0
C1420 C 0.70683 0.78799 0.16222 0.0
C1421 C 0.68987 0.80592 0.15928 0.0
C1422 C 0.68995 0.77286 0.17104 0.0
C1423 C 0.65568 0.77525 0.17699 0.0
C1424 C 0.63853 0.79302 0.17391 0.0
H1425 H 0.51531 0.70964 0.24218 0.0
H1426 H 0.54422 0.73421 0.22433 0.0
C1427 C 0.65537 0.80815 0.1651 0.0
C1428 C 0.63854 0.75961 0.18719 0.0
H1429 H 0.56596 0.72978 0.18938 0.0
C1430 C 0.65451 0.754 0.20231 0.0
C1431 C 0.60639 0.75062 0.18237 0.0
C1432 C 0.58873 0.75537 0.16594 0.0
C1433 C 0.63884 0.73997 0.21289 0.0
C1434 C 0.60659 0.73113 0.20814 0.0
C1435 C 0.59066 0.73664 0.193 0.0
C1436 C 0.58898 0.71613 0.21876 0.0
C1437 C 0.65632 0.7351 0.22935 0.0
C1438 C 0.60432 0.69773 0.22132 0.0
C1439 C 0.58768 0.68362 0.23134 0.0
C1440 C 0.55551 0.68769 0.23906 0.0
C1441 C 0.54004 0.70606 0.23635 0.0
C1442 C 0.55655 0.72012 0.22621 0.0
H1443 H 0.67745 0.74584 0.23264 0.0
H1444 H 0.63682 0.73484 0.23968 0.0
H1445 H 0.66801 0.72026 0.22845 0.0
H1446 H 0.62903 0.69422 0.21543 0.0
H1447 H 0.59981 0.66944 0.23286 0.0
H1448 H 0.35457 0.81993 0.36966 0.0
H1449 H 0.38491 0.79789 0.35019 0.0
H1450 H 0.31197 0.75111 0.36211 0.0
H1451 H 0.28105 0.77314 0.3813 0.0
H1452 H 0.4169 0.76193 0.35793 0.0
H1453 H 0.31181 0.75161 0.31034 0.0
H1454 H 0.31158 0.77134 0.32567 0.0
H1455 H 0.29813 0.74689 0.33154 0.0
C1456 C 0.34467 0.80504 0.36796 0.0
C1457 C 0.31531 0.79831 0.37702 0.0
C1458 C 0.36217 0.79243 0.3569 0.0
C1459 C 0.35045 0.77294 0.35455 0.0
C1460 C 0.32113 0.76619 0.36353 0.0
H1461 H 0.45896 0.6712 0.31683 0.0
H1462 H 0.42879 0.69619 0.33348 0.0
C1463 C 0.30372 0.77874 0.37463 0.0
C1464 C 0.36968 0.7594 0.34322 0.0
H1465 H 0.36025 0.72994 0.30846 0.0
C1466 C 0.40459 0.75503 0.34706 0.0
C1467 C 0.35371 0.75059 0.32892 0.0
C1468 C 0.31685 0.75545 0.32374 0.0
C1469 C 0.42363 0.74164 0.33726 0.0
C1470 C 0.4072 0.73224 0.32337 0.0
C1471 C 0.37265 0.73703 0.31922 0.0
C1472 C 0.42533 0.71712 0.31319 0.0
C1473 C 0.46124 0.73769 0.34179 0.0
C1474 C 0.43282 0.72047 0.29617 0.0
C1475 C 0.45021 0.70624 0.28664 0.0
C1476 C 0.46005 0.68833 0.29392 0.0
C1477 C 0.45204 0.68493 0.31091 0.0
C1478 C 0.43485 0.69919 0.32044 0.0
H1479 H 0.47239 0.74936 0.35014 0.0
H1480 H 0.46268 0.72345 0.3485 0.0
H1481 H 0.47766 0.7366 0.33032 0.0
H1482 H 0.42558 0.73419 0.29033 0.0
H1483 H 0.4562 0.70931 0.2736 0.0
H1484 H 0.19922 0.69637 0.84102 0.0
H1485 H 0.1702 0.7224 0.82544 0.0
H1486 H 0.16989 0.75891 0.86998 0.0
H1487 H 0.19856 0.73282 0.88579 0.0
H1488 H 0.10512 0.73995 0.83219 0.0
H1489 H 0.21403 0.79492 0.83413 0.0
H1490 H 0.22022 0.76925 0.83892 0.0
H1491 H 0.20108 0.7854 0.85423 0.0
C1492 C 0.19276 0.70986 0.84759 0.0
C1493 C 0.20122 0.71245 0.86471 0.0
C1494 C 0.17633 0.72477 0.83861 0.0
C1495 C 0.16825 0.74268 0.84649 0.0
C1496 C 0.17651 0.74535 0.86357 0.0
H1497 H 0.06559 0.84896 0.8134 0.0
H1498 H 0.0955 0.82332 0.82918 0.0
C1499 C 0.19292 0.73041 0.87258 0.0
C1500 C 0.15047 0.75833 0.83686 0.0
H1501 H 0.16011 0.80551 0.82282 0.0
C1502 C 0.11717 0.75427 0.83009 0.0
C1503 C 0.16624 0.777 0.83415 0.0
C1504 C 0.20248 0.78193 0.8406 0.0
C1505 C 0.09897 0.76848 0.8209 0.0
C1506 C 0.1148 0.78712 0.81813 0.0
C1507 C 0.14807 0.7912 0.82493 0.0
C1508 C 0.09707 0.80266 0.80838 0.0
C1509 C 0.06261 0.76358 0.81457 0.0
C1510 C 0.08849 0.79968 0.79136 0.0
C1511 C 0.07128 0.81429 0.78233 0.0
C1512 C 0.06247 0.83216 0.79015 0.0
C1513 C 0.0717 0.83525 0.80709 0.0
C1514 C 0.08891 0.82065 0.8161 0.0
H1515 H 0.05095 0.75076 0.82123 0.0
H1516 H 0.04502 0.77636 0.8161 0.0
H1517 H 0.06388 0.75984 0.80098 0.0
H1518 H 0.09513 0.78605 0.78506 0.0
H1519 H 0.06456 0.81153 0.76928 0.0
loop_
_geom_bond_atom_site_label_1
_geom_bond_atom_site_label_2
_geom_bond_distance
_geom_bond_site_symmetry_2
_ccdc_geom_bond_type
C0 C1 1.264 . S
C0 C5 1.479 . S
C0 C10 1.465 . S
C1 C0 1.264 . S
C1 C3 1.339 . S
C1 H28 0.931 . S
C2 C3 1.395 . S
C2 C4 1.320 . S
C3 C1 1.339 . S
C3 C2 1.395 . S
C3 H29 0.929 . S
C4 C2 1.320 . S
C4 C5 1.405 . S
C4 H30 0.930 . S
C5 C0 1.479 . S
C5 C4 1.405 . S
C5 H31 0.931 . S
U6 O7 2.454 . S
U6 O8 2.458 . S
U6 C9 2.984 . S
U6 C10 2.847 . S
U6 C23 2.882 . S
U6 O24 2.441 . S
U6 O25 2.420 . S
U6 O26 2.455 . S
U6 O27 2.449 . S
O7 U6 2.454 . S
O7 C9 1.353 . S
O8 U6 2.458 . S
O8 C9 1.286 . S
C9 U6 2.984 . S
C9 O7 1.353 . S
C9 O8 1.286 . S
C9 C11 1.363 . S
C10 C0 1.465 . S
C10 U6 2.847 . S
C10 O24 1.249 . S
C10 O25 1.202 . S
C11 C9 1.363 . S
C11 C13 1.408 . S
C11 C16 1.342 . S
C12 C13 1.310 . S
C12 C15 1.461 . S
C12 H32 0.932 . S
C13 C11 1.408 . S
C13 C12 1.310 . S
C13 H33 0.930 . S
C14 C15 1.474 . S
C14 C16 1.285 . S
C14 H34 0.929 . S
C15 C12 1.461 . S
C15 C14 1.474 . S
C16 C11 1.342 . S
C16 C14 1.285 . S
C16 H35 0.930 . S
C17 C20 1.424 . S
C17 C22 1.245 . S
C17 C23 1.428 . S
C18 C21 1.260 . S
C18 C22 1.477 . S
C18 H36 0.932 . S
C19 C20 1.384 . S
C19 C21 1.479 . S
C19 H37 0.929 . S
C20 C17 1.424 . S
C20 C19 1.384 . S
C20 H38 0.928 . S
C21 C18 1.260 . S
C21 C19 1.479 . S
C22 C17 1.245 . S
C22 C18 1.477 . S
C22 H39 0.932 . S
C23 U6 2.882 . S
C23 C17 1.428 . S
C23 O26 1.301 . S
C23 O27 1.282 . S
O24 U6 2.441 . S
O24 C10 1.249 . S
O25 U6 2.420 . S
O25 C10 1.202 . S
O26 U6 2.455 . S
O26 C23 1.301 . S
O27 U6 2.449 . S
O27 C23 1.282 . S
H28 C1 0.931 . S
H29 C3 0.929 . S
H30 C4 0.930 . S
H31 C5 0.931 . S
H32 C12 0.932 . S
H33 C13 0.930 . S
H34 C14 0.929 . S
H35 C16 0.930 . S
H36 C18 0.932 . S
H37 C19 0.929 . S
H38 C20 0.928 . S
H39 C22 0.932 . S
C40 C41 1.264 . S
C40 C45 1.479 . S
C40 C50 1.465 . S
C41 C40 1.264 . S
C41 C43 1.339 . S
C41 H68 0.931 . S
C42 C43 1.395 . S
C42 C44 1.320 . S
C43 C41 1.339 . S
C43 C42 1.395 . S
C43 H69 0.929 . S
C44 C42 1.320 . S
C44 C45 1.405 . S
C44 H70 0.930 . S
C45 C40 1.479 . S
C45 C44 1.405 . S
C45 H71 0.931 . S
U46 O47 2.454 . S
U46 O48 2.458 . S
U46 C49 2.984 . S
U46 C50 2.847 . S
U46 C63 2.882 . S
U46 O64 2.441 . S
U46 O65 2.420 . S
U46 O66 2.455 . S
U46 O67 2.449 . S
O47 U46 2.454 . S
O47 C49 1.353 . S
O48 U46 2.458 . S
O48 C49 1.286 . S
C49 U46 2.984 . S
C49 O47 1.353 . S
C49 O48 1.286 . S
C49 C51 1.363 . S
C50 C40 1.465 . S
C50 U46 2.847 . S
C50 O64 1.249 . S
C50 O65 1.202 . S
C51 C49 1.363 . S
C51 C53 1.408 . S
C51 C56 1.342 . S
C52 C53 1.310 . S
C52 C55 1.461 . S
C52 H72 0.932 . S
C53 C51 1.408 . S
C53 C52 1.310 . S
C53 H73 0.930 . S
C54 C55 1.474 . S
C54 C56 1.285 . S
C54 H74 0.929 . S
C55 C52 1.461 . S
C55 C54 1.474 . S
C56 C51 1.342 . S
C56 C54 1.285 . S
C56 H75 0.930 . S
C57 C60 1.424 . S
C57 C62 1.245 . S
C57 C63 1.428 . S
C58 C61 1.260 . S
C58 C62 1.477 . S
C58 H76 0.932 . S
C59 C60 1.384 . S
C59 C61 1.479 . S
C59 H77 0.929 . S
C60 C57 1.424 . S
C60 C59 1.384 . S
C60 H78 0.928 . S
C61 C58 1.260 . S
C61 C59 1.479 . S
C62 C57 1.245 . S
C62 C58 1.477 . S
C62 H79 0.932 . S
C63 U46 2.882 . S
C63 C57 1.428 . S
C63 O66 1.301 . S
C63 O67 1.282 . S
O64 U46 2.441 . S
O64 C50 1.249 . S
O65 U46 2.420 . S
O65 C50 1.202 . S
O66 U46 2.455 . S
O66 C63 1.301 . S
O67 U46 2.449 . S
O67 C63 1.282 . S
H68 C41 0.931 . S
H69 C43 0.929 . S
H70 C44 0.930 . S
H71 C45 0.931 . S
H72 C52 0.932 . S
H73 C53 0.930 . S
H74 C54 0.929 . S
H75 C56 0.930 . S
H76 C58 0.932 . S
H77 C59 0.929 . S
H78 C60 0.928 . S
H79 C62 0.932 . S
C80 C81 1.264 . S
C80 C85 1.479 . S
C80 C90 1.465 . S
C81 C80 1.264 . S
C81 C83 1.339 . S
C81 H108 0.931 . S
C82 C83 1.395 . S
C82 C84 1.320 . S
C83 C81 1.339 . S
C83 C82 1.395 . S
C83 H109 0.929 . S
C84 C82 1.320 . S
C84 C85 1.405 . S
C84 H110 0.930 . S
C85 C80 1.479 . S
C85 C84 1.405 . S
C85 H111 0.931 . S
U86 O87 2.454 . S
U86 O88 2.458 . S
U86 C89 2.984 . S
U86 C90 2.847 . S
U86 C103 2.882 . S
U86 O104 2.441 . S
U86 O105 2.420 . S
U86 O106 2.455 . S
U86 O107 2.449 . S
O87 U86 2.454 . S
O87 C89 1.353 . S
O88 U86 2.458 . S
O88 C89 1.286 . S
C89 U86 2.984 . S
C89 O87 1.353 . S
C89 O88 1.286 . S
C89 C91 1.363 . S
C90 C80 1.465 . S
C90 U86 2.847 . S
C90 O104 1.249 . S
C90 O105 1.202 . S
C91 C89 1.363 . S
C91 C93 1.408 . S
C91 C96 1.342 . S
C92 C93 1.310 . S
C92 C95 1.461 . S
C92 H112 0.932 . S
C93 C91 1.408 . S
C93 C92 1.310 . S
C93 H113 0.930 . S
C94 C95 1.474 . S
C94 C96 1.285 . S
C94 H114 0.929 . S
C95 C92 1.461 . S
C95 C94 1.474 . S
C96 C91 1.342 . S
C96 C94 1.285 . S
C96 H115 0.930 . S
C97 C100 1.424 . S
C97 C102 1.245 . S
C97 C103 1.428 . S
C98 C101 1.260 . S
C98 C102 1.477 . S
C98 H116 0.932 . S
C99 C100 1.384 . S
C99 C101 1.479 . S
C99 H117 0.929 . S
C100 C97 1.424 . S
C100 C99 1.384 . S
C100 H118 0.928 . S
C101 C98 1.260 . S
C101 C99 1.479 . S
C102 C97 1.245 . S
C102 C98 1.477 . S
C102 H119 0.932 . S
C103 U86 2.882 . S
C103 C97 1.428 . S
C103 O106 1.301 . S
C103 O107 1.282 . S
O104 U86 2.441 . S
O104 C90 1.249 . S
O105 U86 2.420 . S
O105 C90 1.202 . S
O106 U86 2.455 . S
O106 C103 1.301 . S
O107 U86 2.449 . S
O107 C103 1.282 . S
H108 C81 0.931 . S
H109 C83 0.929 . S
H110 C84 0.930 . S
H111 C85 0.931 . S
H112 C92 0.932 . S
H113 C93 0.930 . S
H114 C94 0.929 . S
H115 C96 0.930 . S
H116 C98 0.932 . S
H117 C99 0.929 . S
H118 C100 0.928 . S
H119 C102 0.932 . S
C120 C121 1.264 . S
C120 C125 1.479 . S
C120 C130 1.465 . S
C121 C120 1.264 . S
C121 C123 1.339 . S
C121 H148 0.931 . S
C122 C123 1.395 . S
C122 C124 1.320 . S
C123 C121 1.339 . S
C123 C122 1.395 . S
C123 H149 0.929 . S
C124 C122 1.320 . S
C124 C125 1.405 . S
C124 H150 0.930 . S
C125 C120 1.479 . S
C125 C124 1.405 . S
C125 H151 0.931 . S
U126 O127 2.454 . S
U126 O128 2.458 . S
U126 C129 2.984 . S
U126 C130 2.847 . S
U126 C143 2.882 . S
U126 O144 2.441 . S
U126 O145 2.420 . S
U126 O146 2.455 . S
U126 O147 2.449 . S
O127 U126 2.454 . S
O127 C129 1.353 . S
O128 U126 2.458 . S
O128 C129 1.286 . S
C129 U126 2.984 . S
C129 O127 1.353 . S
C129 O128 1.286 . S
C129 C131 1.363 . S
C130 C120 1.465 . S
C130 U126 2.847 . S
C130 O144 1.249 . S
C130 O145 1.202 . S
C131 C129 1.363 . S
C131 C133 1.408 . S
C131 C136 1.342 . S
C132 C133 1.310 . S
C132 C135 1.461 . S
C132 H152 0.932 . S
C133 C131 1.408 . S
C133 C132 1.310 . S
C133 H153 0.930 . S
C134 C135 1.474 . S
C134 C136 1.285 . S
C134 H154 0.929 . S
C135 C132 1.461 . S
C135 C134 1.474 . S
C136 C131 1.342 . S
C136 C134 1.285 . S
C136 H155 0.930 . S
C137 C140 1.424 . S
C137 C142 1.245 . S
C137 C143 1.428 . S
C138 C141 1.260 . S
C138 C142 1.477 . S
C138 H156 0.932 . S
C139 C140 1.384 . S
C139 C141 1.479 . S
C139 H157 0.929 . S
C140 C137 1.424 . S
C140 C139 1.384 . S
C140 H158 0.928 . S
C141 C138 1.260 . S
C141 C139 1.479 . S
C142 C137 1.245 . S
C142 C138 1.477 . S
C142 H159 0.932 . S
C143 U126 2.882 . S
C143 C137 1.428 . S
C143 O146 1.301 . S
C143 O147 1.282 . S
O144 U126 2.441 . S
O144 C130 1.249 . S
O145 U126 2.420 . S
O145 C130 1.202 . S
O146 U126 2.455 . S
O146 C143 1.301 . S
O147 U126 2.449 . S
O147 C143 1.282 . S
H148 C121 0.931 . S
H149 C123 0.929 . S
H150 C124 0.930 . S
H151 C125 0.931 . S
H152 C132 0.932 . S
H153 C133 0.930 . S
H154 C134 0.929 . S
H155 C136 0.930 . S
H156 C138 0.932 . S
H157 C139 0.929 . S
H158 C140 0.928 . S
H159 C142 0.932 . S
C160 C161 1.264 . S
C160 C165 1.479 . S
C160 C170 1.465 . S
C161 C160 1.264 . S
C161 C163 1.339 . S
C161 H188 0.931 . S
C162 C163 1.395 . S
C162 C164 1.320 . S
C163 C161 1.339 . S
C163 C162 1.395 . S
C163 H189 0.929 . S
C164 C162 1.320 . S
C164 C165 1.405 . S
C164 H190 0.930 . S
C165 C160 1.479 . S
C165 C164 1.405 . S
C165 H191 0.931 . S
U166 O167 2.454 . S
U166 O168 2.458 . S
U166 C169 2.984 . S
U166 C170 2.847 . S
U166 C183 2.882 . S
U166 O184 2.441 . S
U166 O185 2.420 . S
U166 O186 2.455 . S
U166 O187 2.449 . S
O167 U166 2.454 . S
O167 C169 1.353 . S
O168 U166 2.458 . S
O168 C169 1.286 . S
C169 U166 2.984 . S
C169 O167 1.353 . S
C169 O168 1.286 . S
C169 C171 1.363 . S
C170 C160 1.465 . S
C170 U166 2.847 . S
C170 O184 1.249 . S
C170 O185 1.202 . S
C171 C169 1.363 . S
C171 C173 1.408 . S
C171 C176 1.342 . S
C172 C173 1.310 . S
C172 C175 1.461 . S
C172 H192 0.932 . S
C173 C171 1.408 . S
C173 C172 1.310 . S
C173 H193 0.930 . S
C174 C175 1.474 . S
C174 C176 1.285 . S
C174 H194 0.929 . S
C175 C172 1.461 . S
C175 C174 1.474 . S
C176 C171 1.342 . S
C176 C174 1.285 . S
C176 H195 0.930 . S
C177 C180 1.424 . S
C177 C182 1.245 . S
C177 C183 1.428 . S
C178 C181 1.260 . S
C178 C182 1.477 . S
C178 H196 0.932 . S
C179 C180 1.384 . S
C179 C181 1.479 . S
C179 H197 0.929 . S
C180 C177 1.424 . S
C180 C179 1.384 . S
C180 H198 0.928 . S
C181 C178 1.260 . S
C181 C179 1.479 . S
C182 C177 1.245 . S
C182 C178 1.477 . S
C182 H199 0.932 . S
C183 U166 2.882 . S
C183 C177 1.428 . S
C183 O186 1.301 . S
C183 O187 1.282 . S
O184 U166 2.441 . S
O184 C170 1.249 . S
O185 U166 2.420 . S
O185 C170 1.202 . S
O186 U166 2.455 . S
O186 C183 1.301 . S
O187 U166 2.449 . S
O187 C183 1.282 . S
H188 C161 0.931 . S
H189 C163 0.929 . S
H190 C164 0.930 . S
H191 C165 0.931 . S
H192 C172 0.932 . S
H193 C173 0.930 . S
H194 C174 0.929 . S
H195 C176 0.930 . S
H196 C178 0.932 . S
H197 C179 0.929 . S
H198 C180 0.928 . S
H199 C182 0.932 . S
C200 C201 1.264 . S
C200 C205 1.479 . S
C200 C210 1.465 . S
C201 C200 1.264 . S
C201 C203 1.339 . S
C201 H228 0.931 . S
C202 C203 1.404 . S
C202 C204 1.327 . S
C203 C201 1.339 . S
C203 C202 1.404 . S
C203 H229 0.929 . S
C204 C202 1.327 . S
C204 C205 1.405 . S
C204 H230 0.947 . S
C205 C200 1.479 . S
C205 C204 1.405 . S
C205 H231 0.931 . S
U206 O207 2.454 . S
U206 O208 2.458 . S
U206 C209 2.984 . S
U206 C210 2.847 . S
U206 C223 2.882 . S
U206 O224 2.441 . S
U206 O225 2.420 . S
U206 O226 2.455 . S
U206 O227 2.449 . S
O207 U206 2.454 . S
O207 C209 1.353 . S
O208 U206 2.458 . S
O208 C209 1.286 . S
C209 U206 2.984 . S
C209 O207 1.353 . S
C209 O208 1.286 . S
C209 C211 1.363 . S
C210 C200 1.465 . S
C210 U206 2.847 . S
C210 O224 1.249 . S
C210 O225 1.202 . S
C211 C209 1.363 . S
C211 C213 1.408 . S
C211 C216 1.342 . S
C212 C213 1.310 . S
C212 C215 1.461 . S
C212 H232 0.932 . S
C213 C211 1.408 . S
C213 C212 1.310 . S
C213 H233 0.930 . S
C214 C215 1.474 . S
C214 C216 1.285 . S
C214 H234 0.929 . S
C215 C212 1.461 . S
C215 C214 1.474 . S
C216 C211 1.342 . S
C216 C214 1.285 . S
C216 H235 0.930 . S
C217 C220 1.424 . S
C217 C222 1.245 . S
C217 C223 1.428 . S
C218 C221 1.260 . S
C218 C222 1.477 . S
C218 H236 0.932 . S
C219 C220 1.384 . S
C219 C221 1.479 . S
C219 H237 0.929 . S
C220 C217 1.424 . S
C220 C219 1.384 . S
C220 H238 0.928 . S
C221 C218 1.260 . S
C221 C219 1.479 . S
C222 C217 1.245 . S
C222 C218 1.477 . S
C222 H239 0.932 . S
C223 U206 2.882 . S
C223 C217 1.428 . S
C223 O226 1.301 . S
C223 O227 1.282 . S
O224 U206 2.441 . S
O224 C210 1.249 . S
O225 U206 2.420 . S
O225 C210 1.202 . S
O226 U206 2.455 . S
O226 C223 1.301 . S
O227 U206 2.449 . S
O227 C223 1.282 . S
H228 C201 0.931 . S
H229 C203 0.929 . S
H230 C204 0.947 . S
H231 C205 0.931 . S
H232 C212 0.932 . S
H233 C213 0.930 . S
H234 C214 0.929 . S
H235 C216 0.930 . S
H236 C218 0.932 . S
H237 C219 0.929 . S
H238 C220 0.928 . S
H239 C222 0.932 . S
C240 C241 1.264 . S
C240 C245 1.479 . S
C240 C250 1.465 . S
C241 C240 1.264 . S
C241 C243 1.339 . S
C241 H268 0.931 . S
C242 C243 1.395 . S
C242 C244 1.320 . S
C243 C241 1.339 . S
C243 C242 1.395 . S
C243 H269 0.929 . S
C244 C242 1.320 . S
C244 C245 1.405 . S
C244 H270 0.930 . S
C245 C240 1.479 . S
C245 C244 1.405 . S
C245 H271 0.931 . S
U246 O247 2.454 . S
U246 O248 2.458 . S
U246 C249 2.984 . S
U246 C250 2.847 . S
U246 C263 2.882 . S
U246 O264 2.441 . S
U246 O265 2.420 . S
U246 O266 2.455 . S
U246 O267 2.449 . S
O247 U246 2.454 . S
O247 C249 1.353 . S
O248 U246 2.458 . S
O248 C249 1.286 . S
C249 U246 2.984 . S
C249 O247 1.353 . S
C249 O248 1.286 . S
C249 C251 1.363 . S
C250 C240 1.465 . S
C250 U246 2.847 . S
C250 O264 1.249 . S
C250 O265 1.202 . S
C251 C249 1.363 . S
C251 C253 1.408 . S
C251 C256 1.342 . S
C252 C253 1.310 . S
C252 C255 1.461 . S
C252 H272 0.932 . S
C253 C251 1.408 . S
C253 C252 1.310 . S
C253 H273 0.930 . S
C254 C255 1.474 . S
C254 C256 1.285 . S
C254 H274 0.929 . S
C255 C252 1.461 . S
C255 C254 1.474 . S
C256 C251 1.342 . S
C256 C254 1.285 . S
C256 H275 0.930 . S
C257 C260 1.424 . S
C257 C262 1.245 . S
C257 C263 1.428 . S
C258 C261 1.260 . S
C258 C262 1.477 . S
C258 H276 0.932 . S
C259 C260 1.384 . S
C259 C261 1.479 . S
C259 H277 0.929 . S
C260 C257 1.424 . S
C260 C259 1.384 . S
C260 H278 0.928 . S
C261 C258 1.260 . S
C261 C259 1.479 . S
C262 C257 1.245 . S
C262 C258 1.477 . S
C262 H279 0.932 . S
C263 U246 2.882 . S
C263 C257 1.428 . S
C263 O266 1.301 . S
C263 O267 1.282 . S
O264 U246 2.441 . S
O264 C250 1.249 . S
O265 U246 2.420 . S
O265 C250 1.202 . S
O266 U246 2.455 . S
O266 C263 1.301 . S
O267 U246 2.449 . S
O267 C263 1.282 . S
H268 C241 0.931 . S
H269 C243 0.929 . S
H270 C244 0.930 . S
H271 C245 0.931 . S
H272 C252 0.932 . S
H273 C253 0.930 . S
H274 C254 0.929 . S
H275 C256 0.930 . S
H276 C258 0.932 . S
H277 C259 0.929 . S
H278 C260 0.928 . S
H279 C262 0.932 . S
C280 C281 1.264 . S
C280 C285 1.479 . S
C280 C290 1.465 . S
C281 C280 1.264 . S
C281 C283 1.339 . S
C281 H308 0.931 . S
C282 C283 1.395 . S
C282 C284 1.320 . S
C283 C281 1.339 . S
C283 C282 1.395 . S
C283 H309 0.929 . S
C284 C282 1.320 . S
C284 C285 1.405 . S
C284 H310 0.930 . S
C285 C280 1.479 . S
C285 C284 1.405 . S
C285 H311 0.931 . S
U286 O287 2.454 . S
U286 O288 2.458 . S
U286 C289 2.984 . S
U286 C290 2.847 . S
U286 C303 2.882 . S
U286 O304 2.441 . S
U286 O305 2.420 . S
U286 O306 2.455 . S
U286 O307 2.449 . S
O287 U286 2.454 . S
O287 C289 1.353 . S
O288 U286 2.458 . S
O288 C289 1.286 . S
C289 U286 2.984 . S
C289 O287 1.353 . S
C289 O288 1.286 . S
C289 C291 1.363 . S
C290 C280 1.465 . S
C290 U286 2.847 . S
C290 O304 1.249 . S
C290 O305 1.202 . S
C291 C289 1.363 . S
C291 C293 1.408 . S
C291 C296 1.342 . S
C292 C293 1.310 . S
C292 C295 1.461 . S
C292 H312 0.932 . S
C293 C291 1.408 . S
C293 C292 1.310 . S
C293 H313 0.930 . S
C294 C295 1.474 . S
C294 C296 1.285 . S
C294 H314 0.929 . S
C295 C292 1.461 . S
C295 C294 1.474 . S
C296 C291 1.342 . S
C296 C294 1.285 . S
C296 H315 0.930 . S
C297 C300 1.424 . S
C297 C302 1.245 . S
C297 C303 1.428 . S
C298 C301 1.260 . S
C298 C302 1.477 . S
C298 H316 0.932 . S
C299 C300 1.384 . S
C299 C301 1.479 . S
C299 H317 0.929 . S
C300 C297 1.424 . S
C300 C299 1.384 . S
C300 H318 0.928 . S
C301 C298 1.260 . S
C301 C299 1.479 . S
C302 C297 1.245 . S
C302 C298 1.477 . S
C302 H319 0.932 . S
C303 U286 2.882 . S
C303 C297 1.428 . S
C303 O306 1.301 . S
C303 O307 1.282 . S
O304 U286 2.441 . S
O304 C290 1.249 . S
O305 U286 2.420 . S
O305 C290 1.202 . S
O306 U286 2.455 . S
O306 C303 1.301 . S
O307 U286 2.449 . S
O307 C303 1.282 . S
H308 C281 0.931 . S
H309 C283 0.929 . S
H310 C284 0.930 . S
H311 C285 0.931 . S
H312 C292 0.932 . S
H313 C293 0.930 . S
H314 C294 0.929 . S
H315 C296 0.930 . S
H316 C298 0.932 . S
H317 C299 0.929 . S
H318 C300 0.928 . S
H319 C302 0.932 . S
Eu320 N349 2.600 . S
Eu320 N355 2.562 . S
Eu320 O364 2.462 . S
Eu320 O365 2.373 . S
Eu320 O367 2.432 . S
Eu320 O368 2.315 . S
Eu320 O372 2.335 . S
Eu320 O375 2.372 . S
Eu320 C384 2.787 . S
C321 N322 1.365 . S
C321 C324 1.405 . S
C321 C328 1.448 . S
N322 C321 1.365 . S
N322 C325 1.319 . S
N322 Eu331 2.600 . S
C323 C325 1.397 . S
C323 C326 1.367 . S
C323 H343 0.931 . S
C324 C321 1.405 . S
C324 C326 1.403 . S
C324 C330 1.439 . S
C325 N322 1.319 . S
C325 C323 1.397 . S
C325 H336 0.930 . S
C326 C323 1.367 . S
C326 C324 1.403 . S
C326 H347 0.929 . S
C327 C328 1.430 . S
C327 C329 1.387 . S
C327 C333 1.404 . S
C328 C321 1.448 . S
C328 C327 1.430 . S
C328 N332 1.351 . S
C329 C327 1.387 . S
C329 C330 1.374 . S
C329 H344 0.931 . S
C330 C324 1.439 . S
C330 C329 1.374 . S
C330 H345 0.931 . S
Eu331 N322 2.600 . S
Eu331 N332 2.562 . S
Eu331 O366 2.353 . S
Eu331 O369 2.372 . S
Eu331 O370 2.462 . S
Eu331 O371 2.373 . S
Eu331 O373 2.432 . S
Eu331 O374 2.273 1_655 S
Eu331 C395 2.787 . S
N332 C328 1.351 . S
N332 Eu331 2.562 . S
N332 C334 1.325 . S
C333 C327 1.404 . S
C333 C335 1.366 . S
C333 H341 0.930 . S
C334 N332 1.325 . S
C334 C335 1.416 . S
C334 H340 0.929 . S
C335 C333 1.366 . S
C335 C334 1.416 . S
C335 H337 0.930 . S
H336 C325 0.930 . S
H337 C335 0.930 . S
H338 C353 0.930 . S
H339 C360 0.930 . S
H340 C334 0.929 . S
H341 C333 0.930 . S
H342 C356 0.929 . S
H343 C323 0.931 . S
H344 C329 0.931 . S
H345 C330 0.931 . S
H346 C351 0.931 . S
H347 C326 0.929 . S
H348 C359 0.930 . S
N349 Eu320 2.600 . S
N349 C350 1.365 . S
N349 C353 1.319 . S
C350 N349 1.365 . S
C350 C352 1.405 . S
C350 C358 1.448 . S
C351 H346 0.931 . S
C351 C353 1.397 . S
C351 C354 1.367 . S
C352 C350 1.405 . S
C352 C354 1.403 . S
C352 C385 1.439 . S
C353 H338 0.930 . S
C353 N349 1.319 . S
C353 C351 1.397 . S
C354 C351 1.367 . S
C354 C352 1.403 . S
C354 H361 0.929 . S
N355 Eu320 2.562 . S
N355 C356 1.325 . S
N355 C358 1.351 . S
C356 H342 0.929 . S
C356 N355 1.325 . S
C356 C360 1.416 . S
C357 C358 1.430 . S
C357 C359 1.404 . S
C357 C386 1.387 . S
C358 C350 1.448 . S
C358 N355 1.351 . S
C358 C357 1.430 . S
C359 H348 0.930 . S
C359 C357 1.404 . S
C359 C360 1.366 . S
C360 H339 0.930 . S
C360 C356 1.416 . S
C360 C359 1.366 . S
H361 C354 0.929 . S
H362 C385 0.931 . S
H363 C386 0.931 . S
O364 Eu320 2.462 . S
O364 C384 1.252 . S
O365 Eu320 2.373 . S
O365 C376 1.249 . S
O366 Eu331 2.353 . S
O366 C376 1.240 1_655 S
O367 Eu320 2.432 . S
O367 C384 1.268 . S
O368 Eu320 2.315 . S
O368 C383 1.227 1_455 S
O369 Eu331 2.372 . S
O369 C383 1.257 . S
O370 Eu331 2.462 . S
O370 C395 1.252 . S
O371 Eu331 2.373 . S
O371 C387 1.249 . S
O372 Eu320 2.335 . S
O372 C387 1.264 1_455 S
O373 Eu331 2.432 . S
O373 C395 1.268 . S
O374 Eu331 2.273 1_455 S
O374 C394 1.276 . S
O375 Eu320 2.372 . S
O375 C394 1.257 . S
C376 O365 1.249 . S
C376 O366 1.240 1_455 S
C377 C380 1.382 . S
C377 C382 1.390 . S
C377 C384 1.506 . S
C378 C379 1.398 . S
C378 C382 1.392 . S
C379 C378 1.398 . S
C379 C381 1.372 . S
C379 H396 0.931 . S
C380 C377 1.382 . S
C380 C381 1.390 . S
C380 H397 0.931 . S
C381 C379 1.372 . S
C381 C380 1.390 . S
C381 H398 0.929 . S
C382 C377 1.390 . S
C382 C378 1.392 . S
C382 H399 0.930 . S
C383 O368 1.227 1_655 S
C383 O369 1.257 . S
C384 Eu320 2.787 . S
C384 O364 1.252 . S
C384 O367 1.268 . S
C384 C377 1.506 . S
C385 C352 1.439 . S
C385 H362 0.931 . S
C385 C386 1.374 . S
C386 C357 1.387 . S
C386 H363 0.931 . S
C386 C385 1.374 . S
C387 O371 1.249 . S
C387 O372 1.264 1_655 S
C388 C391 1.382 . S
C388 C392 1.390 . S
C388 C395 1.506 . S
C389 C390 1.398 . S
C389 C392 1.392 . S
C390 C389 1.398 . S
C390 C393 1.372 . S
C390 H400 0.931 . S
C391 C388 1.382 . S
C391 C393 1.390 . S
C391 H401 0.931 . S
C392 C388 1.390 . S
C392 C389 1.392 . S
C392 H402 0.930 . S
C393 C390 1.372 . S
C393 C391 1.390 . S
C393 H403 0.929 . S
C394 O374 1.276 . S
C394 O375 1.257 . S
C395 Eu331 2.787 . S
C395 O370 1.252 . S
C395 O373 1.268 . S
C395 C388 1.506 . S
H396 C379 0.931 . S
H397 C380 0.931 . S
H398 C381 0.929 . S
H399 C382 0.930 . S
H400 C390 0.931 . S
H401 C391 0.931 . S
H402 C392 0.930 . S
H403 C393 0.929 . S
Eu404 N433 2.600 . S
Eu404 N439 2.562 . S
Eu404 O448 2.462 . S
Eu404 O449 2.373 . S
Eu404 O451 2.432 . S
Eu404 O452 2.291 . S
Eu404 O456 2.335 . S
Eu404 O459 2.372 . S
Eu404 C468 2.787 . S
C405 N406 1.365 . S
C405 C408 1.405 . S
C405 C412 1.448 . S
N406 C405 1.365 . S
N406 C409 1.319 . S
N406 Eu415 2.600 . S
C407 C409 1.397 . S
C407 C410 1.367 . S
C407 H427 0.931 . S
C408 C405 1.405 . S
C408 C410 1.403 . S
C408 C414 1.439 . S
C409 N406 1.319 . S
C409 C407 1.397 . S
C409 H420 0.930 . S
C410 C407 1.367 . S
C410 C408 1.403 . S
C410 H431 0.929 . S
C411 C412 1.430 . S
C411 C413 1.387 . S
C411 C417 1.404 . S
C412 C405 1.448 . S
C412 C411 1.430 . S
C412 N416 1.351 . S
C413 C411 1.387 . S
C413 C414 1.374 . S
C413 H428 0.931 . S
C414 C408 1.439 . S
C414 C413 1.374 . S
C414 H429 0.931 . S
Eu415 N406 2.600 . S
Eu415 N416 2.562 . S
Eu415 O450 2.335 . S
Eu415 O453 2.372 . S
Eu415 O454 2.462 . S
Eu415 O455 2.373 . S
Eu415 O457 2.432 . S
Eu415 O458 2.291 . S
Eu415 C479 2.787 . S
N416 C412 1.351 . S
N416 Eu415 2.562 . S
N416 C418 1.325 . S
C417 C411 1.404 . S
C417 C419 1.366 . S
C417 H425 0.930 . S
C418 N416 1.325 . S
C418 C419 1.416 . S
C418 H424 0.929 . S
C419 C417 1.366 . S
C419 C418 1.416 . S
C419 H421 0.930 . S
H420 C409 0.930 . S
H421 C419 0.930 . S
H422 C437 0.930 . S
H423 C444 0.930 . S
H424 C418 0.929 . S
H425 C417 0.930 . S
H426 C440 0.929 . S
H427 C407 0.931 . S
H428 C413 0.931 . S
H429 C414 0.931 . S
H430 C435 0.931 . S
H431 C410 0.929 . S
H432 C443 0.930 . S
N433 Eu404 2.600 . S
N433 C434 1.365 . S
N433 C437 1.319 . S
C434 N433 1.365 . S
C434 C436 1.405 . S
C434 C442 1.448 . S
C435 H430 0.931 . S
C435 C437 1.397 . S
C435 C438 1.367 . S
C436 C434 1.405 . S
C436 C438 1.403 . S
C436 C469 1.439 . S
C437 H422 0.930 . S
C437 N433 1.319 . S
C437 C435 1.397 . S
C438 C435 1.367 . S
C438 C436 1.403 . S
C438 H445 0.929 . S
N439 Eu404 2.562 . S
N439 C440 1.325 . S
N439 C442 1.351 . S
C440 H426 0.929 . S
C440 N439 1.325 . S
C440 C444 1.416 . S
C441 C442 1.430 . S
C441 C443 1.404 . S
C441 C470 1.387 . S
C442 C434 1.448 . S
C442 N439 1.351 . S
C442 C441 1.430 . S
C443 H432 0.930 . S
C443 C441 1.404 . S
C443 C444 1.366 . S
C444 H423 0.930 . S
C444 C440 1.416 . S
C444 C443 1.366 . S
H445 C438 0.929 . S
H446 C469 0.931 . S
H447 C470 0.931 . S
O448 Eu404 2.462 . S
O448 C468 1.252 . S
O449 Eu404 2.373 . S
O449 C460 1.249 . S
O450 Eu415 2.335 . S
O450 C460 1.264 . S
O451 Eu404 2.432 . S
O451 C468 1.268 . S
O452 Eu404 2.291 . S
O452 C467 1.255 . S
O453 Eu415 2.372 . S
O453 C467 1.257 . S
O454 Eu415 2.462 . S
O454 C479 1.252 . S
O455 Eu415 2.373 . S
O455 C471 1.249 . S
O456 Eu404 2.335 . S
O456 C471 1.264 . S
O457 Eu415 2.432 . S
O457 C479 1.268 . S
O458 Eu415 2.291 . S
O458 C478 1.255 . S
O459 Eu404 2.372 . S
O459 C478 1.257 . S
C460 O449 1.249 . S
C460 O450 1.264 . S
C461 C464 1.382 . S
C461 C466 1.390 . S
C461 C468 1.506 . S
C462 C463 1.398 . S
C462 C466 1.392 . S
C463 C462 1.398 . S
C463 C465 1.372 . S
C463 H480 0.931 . S
C464 C461 1.382 . S
C464 C465 1.390 . S
C464 H481 0.931 . S
C465 C463 1.372 . S
C465 C464 1.390 . S
C465 H482 0.929 . S
C466 C461 1.390 . S
C466 C462 1.392 . S
C466 H483 0.930 . S
C467 O452 1.255 . S
C467 O453 1.257 . S
C468 Eu404 2.787 . S
C468 O448 1.252 . S
C468 O451 1.268 . S
C468 C461 1.506 . S
C469 C436 1.439 . S
C469 H446 0.931 . S
C469 C470 1.374 . S
C470 C441 1.387 . S
C470 H447 0.931 . S
C470 C469 1.374 . S
C471 O455 1.249 . S
C471 O456 1.264 . S
C472 C475 1.382 . S
C472 C476 1.390 . S
C472 C479 1.506 . S
C473 C474 1.398 . S
C473 C476 1.392 . S
C474 C473 1.398 . S
C474 C477 1.372 . S
C474 H484 0.931 . S
C475 C472 1.382 . S
C475 C477 1.390 . S
C475 H485 0.931 . S
C476 C472 1.390 . S
C476 C473 1.392 . S
C476 H486 0.930 . S
C477 C474 1.372 . S
C477 C475 1.390 . S
C477 H487 0.929 . S
C478 O458 1.255 . S
C478 O459 1.257 . S
C479 Eu415 2.787 . S
C479 O454 1.252 . S
C479 O457 1.268 . S
C479 C472 1.506 . S
H480 C463 0.931 . S
H481 C464 0.931 . S
H482 C465 0.929 . S
H483 C466 0.930 . S
H484 C474 0.931 . S
H485 C475 0.931 . S
H486 C476 0.930 . S
H487 C477 0.929 . S
Eu488 N517 2.600 . S
Eu488 N523 2.562 . S
Eu488 O532 2.462 . S
Eu488 O533 2.373 . S
Eu488 O535 2.432 . S
Eu488 O536 2.291 . S
Eu488 O540 2.335 . S
Eu488 O543 2.372 . S
Eu488 C552 2.787 . S
C489 N490 1.365 . S
C489 C492 1.405 . S
C489 C496 1.448 . S
N490 C489 1.365 . S
N490 C493 1.319 . S
N490 Eu499 2.600 . S
C491 C493 1.397 . S
C491 C494 1.367 . S
C491 H511 0.931 . S
C492 C489 1.405 . S
C492 C494 1.403 . S
C492 C498 1.439 . S
C493 N490 1.319 . S
C493 C491 1.397 . S
C493 H504 0.930 . S
C494 C491 1.367 . S
C494 C492 1.403 . S
C494 H515 0.929 . S
C495 C496 1.430 . S
C495 C497 1.387 . S
C495 C501 1.404 . S
C496 C489 1.448 . S
C496 C495 1.430 . S
C496 N500 1.351 . S
C497 C495 1.387 . S
C497 C498 1.374 . S
C497 H512 0.931 . S
C498 C492 1.439 . S
C498 C497 1.374 . S
C498 H513 0.931 . S
Eu499 N490 2.600 . S
Eu499 N500 2.562 . S
Eu499 O534 2.335 1_655 S
Eu499 O537 2.372 . S
Eu499 O538 2.462 . S
Eu499 O539 2.373 . S
Eu499 O541 2.432 . S
Eu499 O542 2.291 1_655 S
Eu499 C563 2.787 . S
N500 C496 1.351 . S
N500 Eu499 2.562 . S
N500 C502 1.325 . S
C501 C495 1.404 . S
C501 C503 1.366 . S
C501 H509 0.930 . S
C502 N500 1.325 . S
C502 C503 1.416 . S
C502 H508 0.929 . S
C503 C501 1.366 . S
C503 C502 1.416 . S
C503 H505 0.930 . S
H504 C493 0.930 . S
H505 C503 0.930 . S
H506 C521 0.930 . S
H507 C528 0.930 . S
H508 C502 0.929 . S
H509 C501 0.930 . S
H510 C524 0.929 . S
H511 C491 0.931 . S
H512 C497 0.931 . S
H513 C498 0.931 . S
H514 C519 0.931 . S
H515 C494 0.929 . S
H516 C527 0.930 . S
N517 Eu488 2.600 . S
N517 C518 1.365 . S
N517 C521 1.319 . S
C518 N517 1.365 . S
C518 C520 1.405 . S
C518 C526 1.448 . S
C519 H514 0.931 . S
C519 C521 1.397 . S
C519 C522 1.367 . S
C520 C518 1.405 . S
C520 C522 1.403 . S
C520 C553 1.439 . S
C521 H506 0.930 . S
C521 N517 1.319 . S
C521 C519 1.397 . S
C522 C519 1.367 . S
C522 C520 1.403 . S
C522 H529 0.929 . S
N523 Eu488 2.562 . S
N523 C524 1.325 . S
N523 C526 1.351 . S
C524 H510 0.929 . S
C524 N523 1.325 . S
C524 C528 1.416 . S
C525 C526 1.430 . S
C525 C527 1.404 . S
C525 C554 1.387 . S
C526 C518 1.448 . S
C526 N523 1.351 . S
C526 C525 1.430 . S
C527 H516 0.930 . S
C527 C525 1.404 . S
C527 C528 1.366 . S
C528 H507 0.930 . S
C528 C524 1.416 . S
C528 C527 1.366 . S
H529 C522 0.929 . S
H530 C553 0.931 . S
H531 C554 0.931 . S
O532 Eu488 2.462 . S
O532 C552 1.252 . S
O533 Eu488 2.373 . S
O533 C544 1.249 . S
O534 Eu499 2.335 1_455 S
O534 C544 1.264 . S
O535 Eu488 2.432 . S
O535 C552 1.268 . S
O536 Eu488 2.291 . S
O536 C551 1.255 1_455 S
O537 Eu499 2.372 . S
O537 C551 1.257 . S
O538 Eu499 2.462 . S
O538 C563 1.252 . S
O539 Eu499 2.373 . S
O539 C555 1.249 . S
O540 Eu488 2.335 . S
O540 C555 1.264 1_455 S
O541 Eu499 2.432 . S
O541 C563 1.268 . S
O542 Eu499 2.291 1_455 S
O542 C562 1.255 . S
O543 Eu488 2.372 . S
O543 C562 1.257 . S
C544 O533 1.249 . S
C544 O534 1.264 . S
C545 C548 1.382 . S
C545 C550 1.390 . S
C545 C552 1.506 . S
C546 C547 1.398 . S
C546 C550 1.392 . S
C547 C546 1.398 . S
C547 C549 1.372 . S
C547 H564 0.931 . S
C548 C545 1.382 . S
C548 C549 1.390 . S
C548 H565 0.931 . S
C549 C547 1.372 . S
C549 C548 1.390 . S
C549 H566 0.929 . S
C550 C545 1.390 . S
C550 C546 1.392 . S
C550 H567 0.930 . S
C551 O536 1.255 1_655 S
C551 O537 1.257 . S
C552 Eu488 2.787 . S
C552 O532 1.252 . S
C552 O535 1.268 . S
C552 C545 1.506 . S
C553 C520 1.439 . S
C553 H530 0.931 . S
C553 C554 1.374 . S
C554 C525 1.387 . S
C554 H531 0.931 . S
C554 C553 1.374 . S
C555 O539 1.249 . S
C555 O540 1.264 1_655 S
C556 C559 1.382 . S
C556 C560 1.390 . S
C556 C563 1.506 . S
C557 C558 1.398 . S
C557 C560 1.392 . S
C558 C557 1.398 . S
C558 C561 1.372 . S
C558 H568 0.931 . S
C559 C556 1.382 . S
C559 C561 1.390 . S
C559 H569 0.931 . S
C560 C556 1.390 . S
C560 C557 1.392 . S
C560 H570 0.930 . S
C561 C558 1.372 . S
C561 C559 1.390 . S
C561 H571 0.929 . S
C562 O542 1.255 . S
C562 O543 1.257 . S
C563 Eu499 2.787 . S
C563 O538 1.252 . S
C563 O541 1.268 . S
C563 C556 1.506 . S
H564 C547 0.931 . S
H565 C548 0.931 . S
H566 C549 0.929 . S
H567 C550 0.930 . S
H568 C558 0.931 . S
H569 C559 0.931 . S
H570 C560 0.930 . S
H571 C561 0.929 . S
Eu572 N601 2.600 . S
Eu572 N607 2.562 . S
Eu572 O616 2.462 . S
Eu572 O617 2.373 . S
Eu572 O619 2.432 . S
Eu572 O620 2.291 . S
Eu572 O624 2.335 . S
Eu572 O627 2.372 . S
Eu572 C636 2.787 . S
C573 N574 1.365 . S
C573 C576 1.405 . S
C573 C580 1.448 . S
N574 C573 1.365 . S
N574 C577 1.319 . S
N574 Eu583 2.600 . S
C575 C577 1.397 . S
C575 C578 1.367 . S
C575 H595 0.931 . S
C576 C573 1.405 . S
C576 C578 1.403 . S
C576 C582 1.439 . S
C577 N574 1.319 . S
C577 C575 1.397 . S
C577 H588 0.930 . S
C578 C575 1.367 . S
C578 C576 1.403 . S
C578 H599 0.929 . S
C579 C580 1.430 . S
C579 C581 1.387 . S
C579 C585 1.404 . S
C580 C573 1.448 . S
C580 C579 1.430 . S
C580 N584 1.351 . S
C581 C579 1.387 . S
C581 C582 1.374 . S
C581 H596 0.931 . S
C582 C576 1.439 . S
C582 C581 1.374 . S
C582 H597 0.931 . S
Eu583 N574 2.600 . S
Eu583 N584 2.562 . S
Eu583 O618 2.335 . S
Eu583 O621 2.372 . S
Eu583 O622 2.462 . S
Eu583 O623 2.373 . S
Eu583 O625 2.432 . S
Eu583 O626 2.291 . S
Eu583 C647 2.787 . S
N584 C580 1.351 . S
N584 Eu583 2.562 . S
N584 C586 1.325 . S
C585 C579 1.404 . S
C585 C587 1.366 . S
C585 H593 0.930 . S
C586 N584 1.325 . S
C586 C587 1.416 . S
C586 H592 0.929 . S
C587 C585 1.366 . S
C587 C586 1.416 . S
C587 H589 0.930 . S
H588 C577 0.930 . S
H589 C587 0.930 . S
H590 C605 0.930 . S
H591 C612 0.930 . S
H592 C586 0.929 . S
H593 C585 0.930 . S
H594 C608 0.929 . S
H595 C575 0.931 . S
H596 C581 0.931 . S
H597 C582 0.931 . S
H598 C603 0.931 . S
H599 C578 0.929 . S
H600 C611 0.930 . S
N601 Eu572 2.600 . S
N601 C602 1.365 . S
N601 C605 1.319 . S
C602 N601 1.365 . S
C602 C604 1.405 . S
C602 C610 1.448 . S
C603 H598 0.931 . S
C603 C605 1.397 . S
C603 C606 1.367 . S
C604 C602 1.405 . S
C604 C606 1.403 . S
C604 C637 1.439 . S
C605 H590 0.930 . S
C605 N601 1.319 . S
C605 C603 1.397 . S
C606 C603 1.367 . S
C606 C604 1.403 . S
C606 H613 0.929 . S
N607 Eu572 2.562 . S
N607 C608 1.325 . S
N607 C610 1.351 . S
C608 H594 0.929 . S
C608 N607 1.325 . S
C608 C612 1.416 . S
C609 C610 1.430 . S
C609 C611 1.404 . S
C609 C638 1.387 . S
C610 C602 1.448 . S
C610 N607 1.351 . S
C610 C609 1.430 . S
C611 H600 0.930 . S
C611 C609 1.404 . S
C611 C612 1.366 . S
C612 H591 0.930 . S
C612 C608 1.416 . S
C612 C611 1.366 . S
H613 C606 0.929 . S
H614 C637 0.931 . S
H615 C638 0.931 . S
O616 Eu572 2.462 . S
O616 C636 1.252 . S
O617 Eu572 2.373 . S
O617 C628 1.249 . S
O618 Eu583 2.335 . S
O618 C628 1.264 . S
O619 Eu572 2.432 . S
O619 C636 1.268 . S
O620 Eu572 2.291 . S
O620 C635 1.255 . S
O621 Eu583 2.372 . S
O621 C635 1.257 . S
O622 Eu583 2.462 . S
O622 C647 1.252 . S
O623 Eu583 2.373 . S
O623 C639 1.249 . S
O624 Eu572 2.335 . S
O624 C639 1.264 . S
O625 Eu583 2.432 . S
O625 C647 1.268 . S
O626 Eu583 2.291 . S
O626 C646 1.255 . S
O627 Eu572 2.372 . S
O627 C646 1.257 . S
C628 O617 1.249 . S
C628 O618 1.264 . S
C629 C632 1.382 . S
C629 C634 1.390 . S
C629 C636 1.506 . S
C630 C631 1.398 . S
C630 C634 1.392 . S
C631 C630 1.398 . S
C631 C633 1.372 . S
C631 H648 0.931 . S
C632 C629 1.382 . S
C632 C633 1.390 . S
C632 H649 0.931 . S
C633 C631 1.372 . S
C633 C632 1.390 . S
C633 H650 0.929 . S
C634 C629 1.390 . S
C634 C630 1.392 . S
C634 H651 0.930 . S
C635 O620 1.255 . S
C635 O621 1.257 . S
C636 Eu572 2.787 . S
C636 O616 1.252 . S
C636 O619 1.268 . S
C636 C629 1.506 . S
C637 C604 1.439 . S
C637 H614 0.931 . S
C637 C638 1.374 . S
C638 C609 1.387 . S
C638 H615 0.931 . S
C638 C637 1.374 . S
C639 O623 1.249 . S
C639 O624 1.264 . S
C640 C643 1.382 . S
C640 C644 1.390 . S
C640 C647 1.506 . S
C641 C642 1.398 . S
C641 C644 1.392 . S
C642 C641 1.398 . S
C642 C645 1.372 . S
C642 H652 0.931 . S
C643 C640 1.382 . S
C643 C645 1.390 . S
C643 H653 0.931 . S
C644 C640 1.390 . S
C644 C641 1.392 . S
C644 H654 0.930 . S
C645 C642 1.372 . S
C645 C643 1.390 . S
C645 H655 0.929 . S
C646 O626 1.255 . S
C646 O627 1.257 . S
C647 Eu583 2.787 . S
C647 O622 1.252 . S
C647 O625 1.268 . S
C647 C640 1.506 . S
H648 C631 0.931 . S
H649 C632 0.931 . S
H650 C633 0.929 . S
H651 C634 0.930 . S
H652 C642 0.931 . S
H653 C643 0.931 . S
H654 C644 0.930 . S
H655 C645 0.929 . S
H656 C664 0.929 . S
H657 C666 0.940 . S
H658 C668 0.930 . S
H659 C671 0.929 . S
H660 C674 0.930 . S
H661 C676 0.960 . S
H662 C676 0.960 1_565 S
H663 C676 0.968 . S
C664 H656 0.929 . S
C664 C665 1.377 . S
C664 C666 1.361 1_565 S
C665 C664 1.377 . S
C665 C671 1.390 . S
C666 H657 0.940 . S
C666 C664 1.361 1_545 S
C666 C667 1.386 . S
C667 C666 1.386 . S
C667 C668 1.400 . S
C667 C672 1.490 . S
C668 H658 0.930 . S
C668 C667 1.400 . S
C668 C671 1.386 1_545 S
H669 C685 0.930 . S
H670 C686 0.931 . S
C671 H659 0.929 . S
C671 C665 1.390 . S
C671 C668 1.386 1_565 S
C672 C667 1.490 . S
C672 C674 1.395 . S
C672 C675 1.403 . S
H673 C679 0.930 . S
C674 H660 0.930 . S
C674 C672 1.395 . S
C674 C677 1.403 . S
C675 C672 1.403 . S
C675 C676 1.524 . S
C675 C679 1.400 . S
C676 H661 0.960 . S
C676 H662 0.960 1_545 S
C676 H663 0.968 . S
C676 C675 1.524 . S
C677 C674 1.403 . S
C677 C678 1.392 . S
C677 C681 1.495 . S
C678 C677 1.392 . S
C678 C679 1.385 . S
C678 C680 1.478 . S
C679 H673 0.930 . S
C679 C675 1.400 . S
C679 C678 1.385 . S
C680 C678 1.478 . S
C680 C682 1.381 . S
C680 C686 1.383 . S
C681 C677 1.495 . S
C681 H687 0.959 . S
C681 H688 0.961 . S
C681 H689 0.960 . S
C682 C680 1.381 . S
C682 C683 1.394 . S
C682 H690 0.930 . S
C683 C682 1.394 . S
C683 C684 1.383 . S
C683 H691 0.960 . S
C684 C683 1.383 . S
C684 C685 1.377 . S
C685 H669 0.930 . S
C685 C684 1.377 . S
C685 C686 1.379 . S
C686 H670 0.931 . S
C686 C680 1.383 . S
C686 C685 1.379 . S
H687 C681 0.959 . S
H688 C681 0.961 . S
H689 C681 0.960 . S
H690 C682 0.930 . S
H691 C683 0.960 . S
H692 C700 0.929 . S
H693 C702 0.930 . S
H694 C704 0.930 . S
H695 C707 0.929 . S
H696 C710 0.930 . S
H697 C712 0.960 . S
H698 C712 0.960 . S
H699 C712 0.960 . S
C700 H692 0.929 . S
C700 C701 1.377 . S
C700 C702 1.384 . S
C701 C700 1.377 . S
C701 C707 1.390 . S
C702 H693 0.930 . S
C702 C700 1.384 . S
C702 C703 1.372 . S
C703 C702 1.372 . S
C703 C704 1.400 . S
C703 C708 1.490 . S
C704 H694 0.930 . S
C704 C703 1.400 . S
C704 C707 1.386 . S
H705 C721 0.930 . S
H706 C722 0.931 . S
C707 H695 0.929 . S
C707 C701 1.390 . S
C707 C704 1.386 . S
C708 C703 1.490 . S
C708 C710 1.395 . S
C708 C711 1.403 . S
H709 C715 0.930 . S
C710 H696 0.930 . S
C710 C708 1.395 . S
C710 C713 1.403 . S
C711 C708 1.403 . S
C711 C712 1.524 . S
C711 C715 1.400 . S
C712 H697 0.960 . S
C712 H698 0.960 . S
C712 H699 0.960 . S
C712 C711 1.524 . S
C713 C710 1.403 . S
C713 C714 1.392 . S
C713 C717 1.495 . S
C714 C713 1.392 . S
C714 C715 1.385 . S
C714 C716 1.478 . S
C715 H709 0.930 . S
C715 C711 1.400 . S
C715 C714 1.385 . S
C716 C714 1.478 . S
C716 C718 1.381 . S
C716 C722 1.383 . S
C717 C713 1.495 . S
C717 H723 0.959 . S
C717 H724 0.961 . S
C717 H725 0.960 . S
C718 C716 1.381 . S
C718 C719 1.394 . S
C718 H726 0.930 . S
C719 C718 1.394 . S
C719 C720 1.383 . S
C719 H727 0.929 . S
C720 C719 1.383 . S
C720 C721 1.377 . S
C721 H705 0.930 . S
C721 C720 1.377 . S
C721 C722 1.379 . S
C722 H706 0.931 . S
C722 C716 1.383 . S
C722 C721 1.379 . S
H723 C717 0.959 . S
H724 C717 0.961 . S
H725 C717 0.960 . S
H726 C718 0.930 . S
H727 C719 0.929 . S
H728 C736 0.929 . S
H729 C738 0.930 . S
H730 C740 0.930 . S
H731 C743 0.929 . S
H732 C746 0.930 . S
H733 C748 0.960 . S
H734 C748 0.960 . S
H735 C748 0.960 . S
C736 H728 0.929 . S
C736 C737 1.377 . S
C736 C738 1.384 . S
C737 C736 1.377 . S
C737 C743 1.390 . S
C738 H729 0.930 . S
C738 C736 1.384 . S
C738 C739 1.372 . S
C739 C738 1.372 . S
C739 C740 1.400 . S
C739 C744 1.490 . S
C740 H730 0.930 . S
C740 C739 1.400 . S
C740 C743 1.386 . S
H741 C757 0.930 . S
H742 C758 0.931 . S
C743 H731 0.929 . S
C743 C737 1.390 . S
C743 C740 1.386 . S
C744 C739 1.490 . S
C744 C746 1.395 . S
C744 C747 1.403 . S
H745 C751 0.930 . S
C746 H732 0.930 . S
C746 C744 1.395 . S
C746 C749 1.403 . S
C747 C744 1.403 . S
C747 C748 1.524 . S
C747 C751 1.400 . S
C748 H733 0.960 . S
C748 H734 0.960 . S
C748 H735 0.960 . S
C748 C747 1.524 . S
C749 C746 1.403 . S
C749 C750 1.392 . S
C749 C753 1.495 . S
C750 C749 1.392 . S
C750 C751 1.385 . S
C750 C752 1.478 . S
C751 H745 0.930 . S
C751 C747 1.400 . S
C751 C750 1.385 . S
C752 C750 1.478 . S
C752 C754 1.381 . S
C752 C758 1.383 . S
C753 C749 1.495 . S
C753 H759 0.959 . S
C753 H760 0.961 . S
C753 H761 0.960 . S
C754 C752 1.381 . S
C754 C755 1.394 . S
C754 H762 0.930 . S
C755 C754 1.394 . S
C755 C756 1.383 . S
C755 H763 0.929 . S
C756 C755 1.383 . S
C756 C757 1.377 . S
C757 H741 0.930 . S
C757 C756 1.377 . S
C757 C758 1.379 . S
C758 H742 0.931 . S
C758 C752 1.383 . S
C758 C757 1.379 . S
H759 C753 0.959 . S
H760 C753 0.961 . S
H761 C753 0.960 . S
H762 C754 0.930 . S
H763 C755 0.929 . S
H764 C772 0.929 . S
H765 C774 0.930 . S
H766 C776 0.930 . S
H767 C779 0.929 . S
H768 C782 0.930 . S
H769 C784 0.964 . S
H770 C784 0.951 1_565 S
H771 C784 0.924 1_565 S
C772 H764 0.929 . S
C772 C773 1.377 . S
C772 C774 1.384 1_565 S
C773 C772 1.377 . S
C773 C779 1.390 . S
C774 H765 0.930 . S
C774 C772 1.384 1_545 S
C774 C775 1.372 . S
C775 C774 1.372 . S
C775 C776 1.400 1_545 S
C775 C780 1.490 . S
C776 H766 0.930 . S
C776 C775 1.400 1_565 S
C776 C779 1.386 . S
H777 C793 0.930 . S
H778 C794 0.931 . S
C779 H767 0.929 . S
C779 C773 1.390 . S
C779 C776 1.386 . S
C780 C775 1.490 . S
C780 C782 1.395 . S
C780 C783 1.403 . S
H781 C787 0.930 . S
C782 H768 0.930 . S
C782 C780 1.395 . S
C782 C785 1.403 . S
C783 C780 1.403 . S
C783 C784 1.568 . S
C783 C787 1.400 . S
C784 H769 0.964 . S
C784 H770 0.951 1_545 S
C784 H771 0.924 1_545 S
C784 C783 1.568 . S
C785 C782 1.403 . S
C785 C786 1.392 . S
C785 C789 1.495 . S
C786 C785 1.392 . S
C786 C787 1.385 . S
C786 C788 1.478 . S
C787 H781 0.930 . S
C787 C783 1.400 . S
C787 C786 1.385 . S
C788 C786 1.478 . S
C788 C790 1.381 . S
C788 C794 1.383 . S
C789 C785 1.495 . S
C789 H795 0.959 . S
C789 H796 0.961 . S
C789 H797 0.960 . S
C790 C788 1.381 . S
C790 C791 1.394 . S
C790 H798 0.930 . S
C791 C790 1.394 . S
C791 C792 1.383 . S
C791 H799 0.929 . S
C792 C791 1.383 . S
C792 C793 1.377 . S
C793 H777 0.930 . S
C793 C792 1.377 . S
C793 C794 1.379 . S
C794 H778 0.931 . S
C794 C788 1.383 . S
C794 C793 1.379 . S
H795 C789 0.959 . S
H796 C789 0.961 . S
H797 C789 0.960 . S
H798 C790 0.930 . S
H799 C791 0.929 . S
H800 C808 0.929 . S
H801 C810 0.930 . S
H802 C812 0.930 . S
H803 C815 0.930 . S
H804 C818 0.930 . S
H805 C820 0.960 . S
H806 C820 0.960 . S
H807 C820 0.960 . S
C808 H800 0.929 . S
C808 C809 1.377 . S
C808 C810 1.384 . S
C809 C808 1.377 . S
C809 C815 1.390 . S
C810 H801 0.930 . S
C810 C808 1.384 . S
C810 C811 1.372 1_545 S
C811 C810 1.372 1_565 S
C811 C812 1.400 . S
C811 C816 1.490 . S
C812 H802 0.930 . S
C812 C811 1.400 . S
C812 C815 1.386 1_565 S
H813 C829 0.930 . S
H814 C830 0.931 . S
C815 H803 0.930 . S
C815 C809 1.390 . S
C815 C812 1.386 1_545 S
C816 C811 1.490 . S
C816 C818 1.395 . S
C816 C819 1.403 . S
H817 C823 0.930 . S
C818 H804 0.930 . S
C818 C816 1.395 . S
C818 C821 1.403 . S
C819 C816 1.403 . S
C819 C820 1.524 . S
C819 C823 1.400 . S
C820 H805 0.960 . S
C820 H806 0.960 . S
C820 H807 0.960 . S
C820 C819 1.524 . S
C821 C818 1.403 . S
C821 C822 1.392 . S
C821 C825 1.495 . S
C822 C821 1.392 . S
C822 C823 1.385 . S
C822 C824 1.478 . S
C823 H817 0.930 . S
C823 C819 1.400 . S
C823 C822 1.385 . S
C824 C822 1.478 . S
C824 C826 1.381 . S
C824 C830 1.383 . S
C825 C821 1.495 . S
C825 H831 0.959 . S
C825 H832 0.961 . S
C825 H833 0.960 . S
C826 C824 1.381 . S
C826 C827 1.394 . S
C826 H834 0.930 . S
C827 C826 1.394 . S
C827 C828 1.383 . S
C827 H835 0.929 . S
C828 C827 1.383 . S
C828 C829 1.377 . S
C829 H813 0.930 . S
C829 C828 1.377 . S
C829 C830 1.379 . S
C830 H814 0.931 . S
C830 C824 1.383 . S
C830 C829 1.379 . S
H831 C825 0.959 . S
H832 C825 0.961 . S
H833 C825 0.960 . S
H834 C826 0.930 . S
H835 C827 0.929 . S
H836 C844 0.929 . S
H837 C846 0.930 . S
H838 C848 0.930 . S
H839 C851 0.929 . S
H840 C854 0.930 . S
H841 C856 0.960 . S
H842 C856 0.960 . S
H843 C856 0.960 . S
C844 H836 0.929 . S
C844 C845 1.377 . S
C844 C846 1.384 . S
C845 C844 1.377 . S
C845 C851 1.390 . S
C846 H837 0.930 . S
C846 C844 1.384 . S
C846 C847 1.372 . S
C847 C846 1.372 . S
C847 C848 1.400 . S
C847 C852 1.490 . S
C848 H838 0.930 . S
C848 C847 1.400 . S
C848 C851 1.386 . S
H849 C865 0.930 . S
H850 C866 0.931 . S
C851 H839 0.929 . S
C851 C845 1.390 . S
C851 C848 1.386 . S
C852 C847 1.490 . S
C852 C854 1.395 . S
C852 C855 1.403 . S
H853 C859 0.930 . S
C854 H840 0.930 . S
C854 C852 1.395 . S
C854 C857 1.403 . S
C855 C852 1.403 . S
C855 C856 1.524 . S
C855 C859 1.400 . S
C856 H841 0.960 . S
C856 H842 0.960 . S
C856 H843 0.960 . S
C856 C855 1.524 . S
C857 C854 1.403 . S
C857 C858 1.392 . S
C857 C861 1.495 . S
C858 C857 1.392 . S
C858 C859 1.385 . S
C858 C860 1.478 . S
C859 H853 0.930 . S
C859 C855 1.400 . S
C859 C858 1.385 . S
C860 C858 1.478 . S
C860 C862 1.381 . S
C860 C866 1.383 . S
C861 C857 1.495 . S
C861 H867 0.959 . S
C861 H868 0.961 . S
C861 H869 0.960 . S
C862 C860 1.381 . S
C862 C863 1.394 . S
C862 H870 0.930 . S
C863 C862 1.394 . S
C863 C864 1.383 . S
C863 H871 0.929 . S
C864 C863 1.383 . S
C864 C865 1.377 . S
C865 H849 0.930 . S
C865 C864 1.377 . S
C865 C866 1.379 . S
C866 H850 0.931 . S
C866 C860 1.383 . S
C866 C865 1.379 . S
H867 C861 0.959 . S
H868 C861 0.961 . S
H869 C861 0.960 . S
H870 C862 0.930 . S
H871 C863 0.929 . S
H872 C880 0.929 . S
H873 C882 0.930 . S
H874 C884 0.930 . S
H875 C887 0.929 . S
H876 C890 0.930 . S
H877 C892 0.960 . S
H878 C892 0.960 . S
H879 C892 0.960 . S
C880 H872 0.929 . S
C880 C881 1.377 . S
C880 C882 1.384 . S
C881 C880 1.377 . S
C881 C887 1.390 . S
C882 H873 0.930 . S
C882 C880 1.384 . S
C882 C883 1.372 . S
C883 C882 1.372 . S
C883 C884 1.400 . S
C883 C888 1.490 . S
C884 H874 0.930 . S
C884 C883 1.400 . S
C884 C887 1.386 . S
H885 C901 0.930 . S
H886 C902 0.931 . S
C887 H875 0.929 . S
C887 C881 1.390 . S
C887 C884 1.386 . S
C888 C883 1.490 . S
C888 C890 1.395 . S
C888 C891 1.403 . S
H889 C895 0.930 . S
C890 H876 0.930 . S
C890 C888 1.395 . S
C890 C893 1.403 . S
C891 C888 1.403 . S
C891 C892 1.524 . S
C891 C895 1.400 . S
C892 H877 0.960 . S
C892 H878 0.960 . S
C892 H879 0.960 . S
C892 C891 1.524 . S
C893 C890 1.403 . S
C893 C894 1.392 . S
C893 C897 1.495 . S
C894 C893 1.392 . S
C894 C895 1.385 . S
C894 C896 1.478 . S
C895 H889 0.930 . S
C895 C891 1.400 . S
C895 C894 1.385 . S
C896 C894 1.478 . S
C896 C898 1.381 . S
C896 C902 1.383 . S
C897 C893 1.495 . S
C897 H903 0.959 . S
C897 H904 0.961 . S
C897 H905 0.960 . S
C898 C896 1.381 . S
C898 C899 1.394 . S
C898 H906 0.930 . S
C899 C898 1.394 . S
C899 C900 1.383 . S
C899 H907 0.929 . S
C900 C899 1.383 . S
C900 C901 1.377 . S
C901 H885 0.930 . S
C901 C900 1.377 . S
C901 C902 1.379 . S
C902 H886 0.931 . S
C902 C896 1.383 . S
C902 C901 1.379 . S
H903 C897 0.959 . S
H904 C897 0.961 . S
H905 C897 0.960 . S
H906 C898 0.930 . S
H907 C899 0.929 . S
H908 C916 0.929 . S
H909 C918 0.930 . S
H910 C920 0.930 . S
H911 C923 0.929 . S
H912 C926 0.930 . S
H913 C928 0.960 . S
H914 C928 0.960 . S
H915 C928 0.960 . S
C916 H908 0.929 . S
C916 C917 1.377 . S
C916 C918 1.384 . S
C917 C916 1.377 . S
C917 C923 1.390 . S
C918 H909 0.930 . S
C918 C916 1.384 . S
C918 C919 1.372 1_545 S
C919 C918 1.372 1_565 S
C919 C920 1.400 . S
C919 C924 1.490 . S
C920 H910 0.930 . S
C920 C919 1.400 . S
C920 C923 1.386 1_565 S
H921 C937 0.930 . S
H922 C938 0.931 . S
C923 H911 0.929 . S
C923 C917 1.390 . S
C923 C920 1.386 1_545 S
C924 C919 1.490 . S
C924 C926 1.395 . S
C924 C927 1.403 . S
H925 C931 0.930 . S
C926 H912 0.930 . S
C926 C924 1.395 . S
C926 C929 1.403 . S
C927 C924 1.403 . S
C927 C928 1.524 . S
C927 C931 1.400 . S
C928 H913 0.960 . S
C928 H914 0.960 . S
C928 H915 0.960 . S
C928 C927 1.524 . S
C929 C926 1.403 . S
C929 C930 1.392 . S
C929 C933 1.495 . S
C930 C929 1.392 . S
C930 C931 1.385 . S
C930 C932 1.478 . S
C931 H925 0.930 . S
C931 C927 1.400 . S
C931 C930 1.385 . S
C932 C930 1.478 . S
C932 C934 1.381 . S
C932 C938 1.383 . S
C933 C929 1.495 . S
C933 H939 0.959 . S
C933 H940 0.961 . S
C933 H941 0.960 . S
C934 C932 1.381 . S
C934 C935 1.394 . S
C934 H942 0.930 . S
C935 C934 1.394 . S
C935 C936 1.383 . S
C935 H943 0.929 . S
C936 C935 1.383 . S
C936 C937 1.377 . S
C937 H921 0.930 . S
C937 C936 1.377 . S
C937 C938 1.379 . S
C938 H922 0.931 . S
C938 C932 1.383 . S
C938 C937 1.379 . S
H939 C933 0.959 . S
H940 C933 0.961 . S
H941 C933 0.960 . S
H942 C934 0.930 . S
H943 C935 0.929 . S
H944 C952 0.929 . S
H945 C954 0.930 . S
H946 C956 0.930 . S
H947 C959 0.929 . S
H948 C962 0.930 . S
H949 C964 0.960 . S
H950 C964 0.960 . S
H951 C964 0.960 . S
C952 H944 0.929 . S
C952 C953 1.377 . S
C952 C954 1.384 . S
C953 C952 1.377 . S
C953 C959 1.390 . S
C954 H945 0.930 . S
C954 C952 1.384 . S
C954 C955 1.372 . S
C955 C954 1.372 . S
C955 C956 1.400 . S
C955 C960 1.490 . S
C956 H946 0.930 . S
C956 C955 1.400 . S
C956 C959 1.386 . S
H957 C973 0.930 . S
H958 C974 0.931 . S
C959 H947 0.929 . S
C959 C953 1.390 . S
C959 C956 1.386 . S
C960 C955 1.490 . S
C960 C962 1.395 . S
C960 C963 1.403 . S
H961 C967 0.930 . S
C962 H948 0.930 . S
C962 C960 1.395 . S
C962 C965 1.403 . S
C963 C960 1.403 . S
C963 C964 1.524 . S
C963 C967 1.400 . S
C964 H949 0.960 . S
C964 H950 0.960 . S
C964 H951 0.960 . S
C964 C963 1.524 . S
C965 C962 1.403 . S
C965 C966 1.392 . S
C965 C969 1.495 . S
C966 C965 1.392 . S
C966 C967 1.385 . S
C966 C968 1.478 . S
C967 H961 0.930 . S
C967 C963 1.400 . S
C967 C966 1.385 . S
C968 C966 1.478 . S
C968 C970 1.381 . S
C968 C974 1.383 . S
C969 C965 1.495 . S
C969 H975 0.959 . S
C969 H976 0.961 . S
C969 H977 0.960 . S
C970 C968 1.381 . S
C970 C971 1.394 . S
C970 H978 0.930 . S
C971 C970 1.394 . S
C971 C972 1.383 . S
C971 H979 0.929 . S
C972 C971 1.383 . S
C972 C973 1.377 . S
C973 H957 0.930 . S
C973 C972 1.377 . S
C973 C974 1.379 . S
C974 H958 0.931 . S
C974 C968 1.383 . S
C974 C973 1.379 . S
H975 C969 0.959 . S
H976 C969 0.961 . S
H977 C969 0.960 . S
H978 C970 0.930 . S
H979 C971 0.929 . S
H980 C988 0.929 . S
H981 C990 0.930 . S
H982 C992 0.930 . S
H983 C995 0.929 . S
H984 C998 0.930 . S
H985 C1000 0.960 . S
H986 C1000 0.960 . S
H987 C1000 0.960 . S
C988 H980 0.929 . S
C988 C989 1.377 . S
C988 C990 1.384 . S
C989 C988 1.377 . S
C989 C995 1.390 . S
C990 H981 0.930 . S
C990 C988 1.384 . S
C990 C991 1.372 . S
C991 C990 1.372 . S
C991 C992 1.400 . S
C991 C996 1.490 . S
C992 H982 0.930 . S
C992 C991 1.400 . S
C992 C995 1.386 . S
H993 C1009 0.930 . S
H994 C1010 0.931 . S
C995 H983 0.929 . S
C995 C989 1.390 . S
C995 C992 1.386 . S
C996 C991 1.490 . S
C996 C998 1.395 . S
C996 C999 1.403 . S
H997 C1003 0.930 . S
C998 H984 0.930 . S
C998 C996 1.395 . S
C998 C1001 1.403 . S
C999 C996 1.403 . S
C999 C1000 1.524 . S
C999 C1003 1.400 . S
C1000 H985 0.960 . S
C1000 H986 0.960 . S
C1000 H987 0.960 . S
C1000 C999 1.524 . S
C1001 C998 1.403 . S
C1001 C1002 1.392 . S
C1001 C1005 1.495 . S
C1002 C1001 1.392 . S
C1002 C1003 1.385 . S
C1002 C1004 1.478 . S
C1003 H997 0.930 . S
C1003 C999 1.400 . S
C1003 C1002 1.385 . S
C1004 C1002 1.478 . S
C1004 C1006 1.381 . S
C1004 C1010 1.383 . S
C1005 C1001 1.495 . S
C1005 H1011 0.959 . S
C1005 H1012 0.961 . S
C1005 H1013 0.960 . S
C1006 C1004 1.381 . S
C1006 C1007 1.394 . S
C1006 H1014 0.930 . S
C1007 C1006 1.394 . S
C1007 C1008 1.383 . S
C1007 H1015 0.929 . S
C1008 C1007 1.383 . S
C1008 C1009 1.377 . S
C1009 H993 0.930 . S
C1009 C1008 1.377 . S
C1009 C1010 1.379 . S
C1010 H994 0.931 . S
C1010 C1004 1.383 . S
C1010 C1009 1.379 . S
H1011 C1005 0.959 . S
H1012 C1005 0.961 . S
H1013 C1005 0.960 . S
H1014 C1006 0.930 . S
H1015 C1007 0.929 . S
H1016 C1024 0.929 . S
H1017 C1026 0.930 . S
H1018 C1028 0.930 . S
H1019 C1031 0.929 . S
H1020 C1034 0.930 . S
H1021 C1036 0.960 . S
H1022 C1036 0.960 . S
H1023 C1036 0.960 . S
C1024 H1016 0.929 . S
C1024 C1025 1.377 . S
C1024 C1026 1.384 . S
C1025 C1024 1.377 . S
C1025 C1031 1.390 . S
C1026 H1017 0.930 . S
C1026 C1024 1.384 . S
C1026 C1027 1.372 . S
C1027 C1026 1.372 . S
C1027 C1028 1.400 . S
C1027 C1032 1.490 . S
C1028 H1018 0.930 . S
C1028 C1027 1.400 . S
C1028 C1031 1.386 . S
H1029 C1045 0.930 . S
H1030 C1046 0.931 . S
C1031 H1019 0.929 . S
C1031 C1025 1.390 . S
C1031 C1028 1.386 . S
C1032 C1027 1.490 . S
C1032 C1034 1.395 . S
C1032 C1035 1.403 . S
H1033 C1039 0.930 . S
C1034 H1020 0.930 . S
C1034 C1032 1.395 . S
C1034 C1037 1.403 . S
C1035 C1032 1.403 . S
C1035 C1036 1.524 . S
C1035 C1039 1.400 . S
C1036 H1021 0.960 . S
C1036 H1022 0.960 . S
C1036 H1023 0.960 . S
C1036 C1035 1.524 . S
C1037 C1034 1.403 . S
C1037 C1038 1.392 . S
C1037 C1041 1.495 . S
C1038 C1037 1.392 . S
C1038 C1039 1.385 . S
C1038 C1040 1.478 . S
C1039 H1033 0.930 . S
C1039 C1035 1.400 . S
C1039 C1038 1.385 . S
C1040 C1038 1.478 . S
C1040 C1042 1.381 . S
C1040 C1046 1.383 . S
C1041 C1037 1.495 . S
C1041 H1047 0.959 . S
C1041 H1048 0.961 . S
C1041 H1049 0.960 . S
C1042 C1040 1.381 . S
C1042 C1043 1.394 . S
C1042 H1050 0.930 . S
C1043 C1042 1.394 . S
C1043 C1044 1.383 . S
C1043 H1051 0.929 . S
C1044 C1043 1.383 . S
C1044 C1045 1.377 . S
C1045 H1029 0.930 . S
C1045 C1044 1.377 . S
C1045 C1046 1.379 . S
C1046 H1030 0.931 . S
C1046 C1040 1.383 . S
C1046 C1045 1.379 . S
H1047 C1041 0.959 . S
H1048 C1041 0.961 . S
H1049 C1041 0.960 . S
H1050 C1042 0.930 . S
H1051 C1043 0.929 . S
H1052 C1060 0.929 . S
H1053 C1062 0.930 . S
H1054 C1064 0.930 . S
H1055 C1067 0.929 . S
H1056 C1070 0.930 . S
H1057 C1072 0.960 . S
H1058 C1072 0.960 . S
H1059 C1072 0.960 . S
C1060 H1052 0.929 . S
C1060 C1061 1.377 . S
C1060 C1062 1.384 . S
C1061 C1060 1.377 . S
C1061 C1067 1.390 . S
C1062 H1053 0.930 . S
C1062 C1060 1.384 . S
C1062 C1063 1.372 . S
C1063 C1062 1.372 . S
C1063 C1064 1.400 . S
C1063 C1068 1.490 . S
C1064 H1054 0.930 . S
C1064 C1063 1.400 . S
C1064 C1067 1.386 . S
H1065 C1081 0.930 . S
H1066 C1082 0.931 . S
C1067 H1055 0.929 . S
C1067 C1061 1.390 . S
C1067 C1064 1.386 . S
C1068 C1063 1.490 . S
C1068 C1070 1.395 . S
C1068 C1071 1.403 . S
H1069 C1075 0.930 . S
C1070 H1056 0.930 . S
C1070 C1068 1.395 . S
C1070 C1073 1.403 . S
C1071 C1068 1.403 . S
C1071 C1072 1.524 . S
C1071 C1075 1.400 . S
C1072 H1057 0.960 . S
C1072 H1058 0.960 . S
C1072 H1059 0.960 . S
C1072 C1071 1.524 . S
C1073 C1070 1.403 . S
C1073 C1074 1.392 . S
C1073 C1077 1.495 . S
C1074 C1073 1.392 . S
C1074 C1075 1.385 . S
C1074 C1076 1.478 . S
C1075 H1069 0.930 . S
C1075 C1071 1.400 . S
C1075 C1074 1.385 . S
C1076 C1074 1.478 . S
C1076 C1078 1.381 . S
C1076 C1082 1.383 . S
C1077 C1073 1.495 . S
C1077 H1083 0.959 . S
C1077 H1084 0.961 . S
C1077 H1085 0.960 . S
C1078 C1076 1.381 . S
C1078 C1079 1.394 . S
C1078 H1086 0.930 . S
C1079 C1078 1.394 . S
C1079 C1080 1.383 . S
C1079 H1087 0.929 . S
C1080 C1079 1.383 . S
C1080 C1081 1.377 . S
C1081 H1065 0.930 . S
C1081 C1080 1.377 . S
C1081 C1082 1.379 . S
C1082 H1066 0.931 . S
C1082 C1076 1.383 . S
C1082 C1081 1.379 . S
H1083 C1077 0.959 . S
H1084 C1077 0.961 . S
H1085 C1077 0.960 . S
H1086 C1078 0.930 . S
H1087 C1079 0.929 . S
H1088 C1096 0.929 . S
H1089 C1098 0.930 . S
H1090 C1100 0.930 . S
H1091 C1103 0.929 . S
H1092 C1106 0.930 . S
H1093 C1108 0.960 . S
H1094 C1108 0.960 . S
H1095 C1108 0.960 . S
C1096 H1088 0.929 . S
C1096 C1097 1.377 . S
C1096 C1098 1.384 . S
C1097 C1096 1.377 . S
C1097 C1103 1.390 . S
C1098 H1089 0.930 . S
C1098 C1096 1.384 . S
C1098 C1099 1.372 . S
C1099 C1098 1.372 . S
C1099 C1100 1.400 . S
C1099 C1104 1.490 . S
C1100 H1090 0.930 . S
C1100 C1099 1.400 . S
C1100 C1103 1.386 . S
H1101 C1117 0.930 . S
H1102 C1118 0.931 . S
C1103 H1091 0.929 . S
C1103 C1097 1.390 . S
C1103 C1100 1.386 . S
C1104 C1099 1.490 . S
C1104 C1106 1.395 . S
C1104 C1107 1.403 . S
H1105 C1111 0.930 . S
C1106 H1092 0.930 . S
C1106 C1104 1.395 . S
C1106 C1109 1.403 . S
C1107 C1104 1.403 . S
C1107 C1108 1.524 . S
C1107 C1111 1.400 . S
C1108 H1093 0.960 . S
C1108 H1094 0.960 . S
C1108 H1095 0.960 . S
C1108 C1107 1.524 . S
C1109 C1106 1.403 . S
C1109 C1110 1.392 . S
C1109 C1113 1.495 . S
C1110 C1109 1.392 . S
C1110 C1111 1.385 . S
C1110 C1112 1.478 . S
C1111 H1105 0.930 . S
C1111 C1107 1.400 . S
C1111 C1110 1.385 . S
C1112 C1110 1.478 . S
C1112 C1114 1.381 . S
C1112 C1118 1.383 . S
C1113 C1109 1.495 . S
C1113 H1119 0.959 . S
C1113 H1120 0.961 . S
C1113 H1121 0.960 . S
C1114 C1112 1.381 . S
C1114 C1115 1.394 . S
C1114 H1122 0.930 . S
C1115 C1114 1.394 . S
C1115 C1116 1.383 . S
C1115 H1123 0.929 . S
C1116 C1115 1.383 . S
C1116 C1117 1.377 . S
C1117 H1101 0.930 . S
C1117 C1116 1.377 . S
C1117 C1118 1.379 . S
C1118 H1102 0.931 . S
C1118 C1112 1.383 . S
C1118 C1117 1.379 . S
H1119 C1113 0.959 . S
H1120 C1113 0.961 . S
H1121 C1113 0.960 . S
H1122 C1114 0.930 . S
H1123 C1115 0.929 . S
H1124 C1132 0.929 . S
H1125 C1134 0.930 . S
H1126 C1136 0.930 . S
H1127 C1139 0.929 . S
H1128 C1142 0.930 . S
H1129 C1144 0.960 . S
H1130 C1144 0.960 . S
H1131 C1144 0.960 . S
C1132 H1124 0.929 . S
C1132 C1133 1.377 . S
C1132 C1134 1.384 . S
C1133 C1132 1.377 . S
C1133 C1139 1.390 . S
C1134 H1125 0.930 . S
C1134 C1132 1.384 . S
C1134 C1135 1.372 . S
C1135 C1134 1.372 . S
C1135 C1136 1.400 . S
C1135 C1140 1.490 . S
C1136 H1126 0.930 . S
C1136 C1135 1.400 . S
C1136 C1139 1.386 . S
H1137 C1153 0.930 . S
H1138 C1154 0.931 . S
C1139 H1127 0.929 . S
C1139 C1133 1.390 . S
C1139 C1136 1.386 . S
C1140 C1135 1.490 . S
C1140 C1142 1.395 . S
C1140 C1143 1.403 . S
H1141 C1147 0.930 . S
C1142 H1128 0.930 . S
C1142 C1140 1.395 . S
C1142 C1145 1.403 . S
C1143 C1140 1.403 . S
C1143 C1144 1.524 . S
C1143 C1147 1.400 . S
C1144 H1129 0.960 . S
C1144 H1130 0.960 . S
C1144 H1131 0.960 . S
C1144 C1143 1.524 . S
C1145 C1142 1.403 . S
C1145 C1146 1.392 . S
C1145 C1149 1.495 . S
C1146 C1145 1.392 . S
C1146 C1147 1.385 . S
C1146 C1148 1.478 . S
C1147 H1141 0.930 . S
C1147 C1143 1.400 . S
C1147 C1146 1.385 . S
C1148 C1146 1.478 . S
C1148 C1150 1.381 . S
C1148 C1154 1.383 . S
C1149 C1145 1.495 . S
C1149 H1155 0.959 . S
C1149 H1156 0.961 . S
C1149 H1157 0.960 . S
C1150 C1148 1.381 . S
C1150 C1151 1.394 . S
C1150 H1158 0.930 . S
C1151 C1150 1.394 . S
C1151 C1152 1.383 . S
C1151 H1159 0.929 . S
C1152 C1151 1.383 . S
C1152 C1153 1.377 . S
C1153 H1137 0.930 . S
C1153 C1152 1.377 . S
C1153 C1154 1.379 . S
C1154 H1138 0.931 . S
C1154 C1148 1.383 . S
C1154 C1153 1.379 . S
H1155 C1149 0.959 . S
H1156 C1149 0.961 . S
H1157 C1149 0.960 . S
H1158 C1150 0.930 . S
H1159 C1151 0.929 . S
H1160 C1168 0.929 . S
H1161 C1170 0.930 . S
H1162 C1172 0.930 . S
H1163 C1175 0.929 . S
H1164 C1178 0.930 . S
H1165 C1180 0.960 . S
H1166 C1180 0.960 . S
H1167 C1180 0.960 . S
C1168 H1160 0.929 . S
C1168 C1169 1.377 . S
C1168 C1170 1.384 . S
C1169 C1168 1.377 . S
C1169 C1175 1.390 . S
C1170 H1161 0.930 . S
C1170 C1168 1.384 . S
C1170 C1171 1.372 . S
C1171 C1170 1.372 . S
C1171 C1172 1.400 . S
C1171 C1176 1.490 . S
C1172 H1162 0.930 . S
C1172 C1171 1.400 . S
C1172 C1175 1.386 . S
H1173 C1189 0.930 . S
H1174 C1190 0.931 . S
C1175 H1163 0.929 . S
C1175 C1169 1.390 . S
C1175 C1172 1.386 . S
C1176 C1171 1.490 . S
C1176 C1178 1.395 . S
C1176 C1179 1.403 . S
H1177 C1183 0.930 . S
C1178 H1164 0.930 . S
C1178 C1176 1.395 . S
C1178 C1181 1.403 . S
C1179 C1176 1.403 . S
C1179 C1180 1.524 . S
C1179 C1183 1.400 . S
C1180 H1165 0.960 . S
C1180 H1166 0.960 . S
C1180 H1167 0.960 . S
C1180 C1179 1.524 . S
C1181 C1178 1.403 . S
C1181 C1182 1.392 . S
C1181 C1185 1.495 . S
C1182 C1181 1.392 . S
C1182 C1183 1.385 . S
C1182 C1184 1.478 . S
C1183 H1177 0.930 . S
C1183 C1179 1.400 . S
C1183 C1182 1.385 . S
C1184 C1182 1.478 . S
C1184 C1186 1.381 . S
C1184 C1190 1.383 . S
C1185 C1181 1.495 . S
C1185 H1191 0.959 . S
C1185 H1192 0.961 . S
C1185 H1193 0.960 . S
C1186 C1184 1.381 . S
C1186 C1187 1.394 . S
C1186 H1194 0.930 . S
C1187 C1186 1.394 . S
C1187 C1188 1.383 . S
C1187 H1195 0.929 . S
C1188 C1187 1.383 . S
C1188 C1189 1.377 . S
C1189 H1173 0.930 . S
C1189 C1188 1.377 . S
C1189 C1190 1.379 . S
C1190 H1174 0.931 . S
C1190 C1184 1.383 . S
C1190 C1189 1.379 . S
H1191 C1185 0.959 . S
H1192 C1185 0.961 . S
H1193 C1185 0.960 . S
H1194 C1186 0.930 . S
H1195 C1187 0.929 . S
H1196 C1204 0.929 . S
H1197 C1206 0.930 . S
H1198 C1208 0.930 . S
H1199 C1211 0.929 . S
H1200 C1214 0.930 . S
H1201 C1216 0.960 . S
H1202 C1216 0.960 . S
H1203 C1216 0.960 . S
C1204 H1196 0.929 . S
C1204 C1205 1.377 . S
C1204 C1206 1.384 . S
C1205 C1204 1.377 . S
C1205 C1211 1.390 . S
C1206 H1197 0.930 . S
C1206 C1204 1.384 . S
C1206 C1207 1.372 . S
C1207 C1206 1.372 . S
C1207 C1208 1.400 . S
C1207 C1212 1.490 . S
C1208 H1198 0.930 . S
C1208 C1207 1.400 . S
C1208 C1211 1.386 . S
H1209 C1225 0.930 . S
H1210 C1226 0.931 . S
C1211 H1199 0.929 . S
C1211 C1205 1.390 . S
C1211 C1208 1.386 . S
C1212 C1207 1.490 . S
C1212 C1214 1.395 . S
C1212 C1215 1.403 . S
H1213 C1219 0.930 . S
C1214 H1200 0.930 . S
C1214 C1212 1.395 . S
C1214 C1217 1.403 . S
C1215 C1212 1.403 . S
C1215 C1216 1.524 . S
C1215 C1219 1.400 . S
C1216 H1201 0.960 . S
C1216 H1202 0.960 . S
C1216 H1203 0.960 . S
C1216 C1215 1.524 . S
C1217 C1214 1.403 . S
C1217 C1218 1.392 . S
C1217 C1221 1.495 . S
C1218 C1217 1.392 . S
C1218 C1219 1.385 . S
C1218 C1220 1.478 . S
C1219 H1213 0.930 . S
C1219 C1215 1.400 . S
C1219 C1218 1.385 . S
C1220 C1218 1.478 . S
C1220 C1222 1.381 . S
C1220 C1226 1.383 . S
C1221 C1217 1.495 . S
C1221 H1227 0.959 . S
C1221 H1228 0.961 . S
C1221 H1229 0.960 . S
C1222 C1220 1.381 . S
C1222 C1223 1.394 . S
C1222 H1230 0.930 . S
C1223 C1222 1.394 . S
C1223 C1224 1.383 . S
C1223 H1231 0.929 . S
C1224 C1223 1.383 . S
C1224 C1225 1.377 . S
C1225 H1209 0.930 . S
C1225 C1224 1.377 . S
C1225 C1226 1.379 . S
C1226 H1210 0.931 . S
C1226 C1220 1.383 . S
C1226 C1225 1.379 . S
H1227 C1221 0.959 . S
H1228 C1221 0.961 . S
H1229 C1221 0.960 . S
H1230 C1222 0.930 . S
H1231 C1223 0.929 . S
H1232 C1240 0.929 . S
H1233 C1242 0.930 . S
H1234 C1244 0.930 . S
H1235 C1247 0.929 . S
H1236 C1250 0.930 . S
H1237 C1252 0.960 . S
H1238 C1252 0.960 . S
H1239 C1252 0.960 . S
C1240 H1232 0.929 . S
C1240 C1241 1.377 . S
C1240 C1242 1.384 . S
C1241 C1240 1.377 . S
C1241 C1247 1.390 . S
C1242 H1233 0.930 . S
C1242 C1240 1.384 . S
C1242 C1243 1.372 . S
C1243 C1242 1.372 . S
C1243 C1244 1.400 . S
C1243 C1248 1.490 . S
C1244 H1234 0.930 . S
C1244 C1243 1.400 . S
C1244 C1247 1.386 . S
H1245 C1261 0.930 . S
H1246 C1262 0.931 . S
C1247 H1235 0.929 . S
C1247 C1241 1.390 . S
C1247 C1244 1.386 . S
C1248 C1243 1.490 . S
C1248 C1250 1.395 . S
C1248 C1251 1.403 . S
H1249 C1255 0.930 . S
C1250 H1236 0.930 . S
C1250 C1248 1.395 . S
C1250 C1253 1.403 . S
C1251 C1248 1.403 . S
C1251 C1252 1.524 . S
C1251 C1255 1.400 . S
C1252 H1237 0.960 . S
C1252 H1238 0.960 . S
C1252 H1239 0.960 . S
C1252 C1251 1.524 . S
C1253 C1250 1.403 . S
C1253 C1254 1.392 . S
C1253 C1257 1.495 . S
C1254 C1253 1.392 . S
C1254 C1255 1.385 . S
C1254 C1256 1.478 . S
C1255 H1249 0.930 . S
C1255 C1251 1.400 . S
C1255 C1254 1.385 . S
C1256 C1254 1.478 . S
C1256 C1258 1.381 . S
C1256 C1262 1.383 . S
C1257 C1253 1.495 . S
C1257 H1263 0.959 . S
C1257 H1264 0.961 . S
C1257 H1265 0.960 . S
C1258 C1256 1.381 . S
C1258 C1259 1.394 . S
C1258 H1266 0.930 . S
C1259 C1258 1.394 . S
C1259 C1260 1.383 . S
C1259 H1267 0.929 . S
C1260 C1259 1.383 . S
C1260 C1261 1.377 . S
C1261 H1245 0.930 . S
C1261 C1260 1.377 . S
C1261 C1262 1.379 . S
C1262 H1246 0.931 . S
C1262 C1256 1.383 . S
C1262 C1261 1.379 . S
H1263 C1257 0.959 . S
H1264 C1257 0.961 . S
H1265 C1257 0.960 . S
H1266 C1258 0.930 . S
H1267 C1259 0.929 . S
H1268 C1276 0.929 . S
H1269 C1278 0.930 . S
H1270 C1280 0.930 . S
H1271 C1283 0.929 . S
H1272 C1286 0.930 . S
H1273 C1288 0.960 . S
H1274 C1288 0.960 . S
H1275 C1288 0.960 . S
C1276 H1268 0.929 . S
C1276 C1277 1.377 . S
C1276 C1278 1.384 . S
C1277 C1276 1.377 . S
C1277 C1283 1.390 . S
C1278 H1269 0.930 . S
C1278 C1276 1.384 . S
C1278 C1279 1.372 . S
C1279 C1278 1.372 . S
C1279 C1280 1.400 . S
C1279 C1284 1.490 . S
C1280 H1270 0.930 . S
C1280 C1279 1.400 . S
C1280 C1283 1.386 . S
H1281 C1297 0.930 . S
H1282 C1298 0.931 . S
C1283 H1271 0.929 . S
C1283 C1277 1.390 . S
C1283 C1280 1.386 . S
C1284 C1279 1.490 . S
C1284 C1286 1.395 . S
C1284 C1287 1.403 . S
H1285 C1291 0.930 . S
C1286 H1272 0.930 . S
C1286 C1284 1.395 . S
C1286 C1289 1.403 . S
C1287 C1284 1.403 . S
C1287 C1288 1.524 . S
C1287 C1291 1.400 . S
C1288 H1273 0.960 . S
C1288 H1274 0.960 . S
C1288 H1275 0.960 . S
C1288 C1287 1.524 . S
C1289 C1286 1.403 . S
C1289 C1290 1.392 . S
C1289 C1293 1.495 . S
C1290 C1289 1.392 . S
C1290 C1291 1.385 . S
C1290 C1292 1.478 . S
C1291 H1285 0.930 . S
C1291 C1287 1.400 . S
C1291 C1290 1.385 . S
C1292 C1290 1.478 . S
C1292 C1294 1.381 . S
C1292 C1298 1.383 . S
C1293 C1289 1.495 . S
C1293 H1299 0.959 . S
C1293 H1300 0.961 . S
C1293 H1301 0.960 . S
C1294 C1292 1.381 . S
C1294 C1295 1.394 . S
C1294 H1302 0.930 . S
C1295 C1294 1.394 . S
C1295 C1296 1.383 . S
C1295 H1303 0.929 . S
C1296 C1295 1.383 . S
C1296 C1297 1.377 . S
C1297 H1281 0.930 . S
C1297 C1296 1.377 . S
C1297 C1298 1.379 . S
C1298 H1282 0.931 . S
C1298 C1292 1.383 . S
C1298 C1297 1.379 . S
H1299 C1293 0.959 . S
H1300 C1293 0.961 . S
H1301 C1293 0.960 . S
H1302 C1294 0.930 . S
H1303 C1295 0.929 . S
H1304 C1312 0.929 . S
H1305 C1314 0.930 . S
H1306 C1316 0.930 . S
H1307 C1319 0.929 . S
H1308 C1322 0.930 . S
H1309 C1324 0.960 . S
H1310 C1324 0.960 . S
H1311 C1324 0.960 . S
C1312 H1304 0.929 . S
C1312 C1313 1.377 . S
C1312 C1314 1.384 . S
C1313 C1312 1.377 . S
C1313 C1319 1.390 . S
C1314 H1305 0.930 . S
C1314 C1312 1.384 . S
C1314 C1315 1.372 . S
C1315 C1314 1.372 . S
C1315 C1316 1.400 . S
C1315 C1320 1.490 . S
C1316 H1306 0.930 . S
C1316 C1315 1.400 . S
C1316 C1319 1.386 . S
H1317 C1333 0.930 . S
H1318 C1334 0.931 . S
C1319 H1307 0.929 . S
C1319 C1313 1.390 . S
C1319 C1316 1.386 . S
C1320 C1315 1.490 . S
C1320 C1322 1.395 . S
C1320 C1323 1.403 . S
H1321 C1327 0.930 . S
C1322 H1308 0.930 . S
C1322 C1320 1.395 . S
C1322 C1325 1.403 . S
C1323 C1320 1.403 . S
C1323 C1324 1.524 . S
C1323 C1327 1.400 . S
C1324 H1309 0.960 . S
C1324 H1310 0.960 . S
C1324 H1311 0.960 . S
C1324 C1323 1.524 . S
C1325 C1322 1.403 . S
C1325 C1326 1.392 . S
C1325 C1329 1.495 . S
C1326 C1325 1.392 . S
C1326 C1327 1.385 . S
C1326 C1328 1.478 . S
C1327 H1321 0.930 . S
C1327 C1323 1.400 . S
C1327 C1326 1.385 . S
C1328 C1326 1.478 . S
C1328 C1330 1.381 . S
C1328 C1334 1.383 . S
C1329 C1325 1.495 . S
C1329 H1335 0.959 . S
C1329 H1336 0.961 . S
C1329 H1337 0.960 . S
C1330 C1328 1.381 . S
C1330 C1331 1.394 . S
C1330 H1338 0.930 . S
C1331 C1330 1.394 . S
C1331 C1332 1.383 . S
C1331 H1339 0.929 . S
C1332 C1331 1.383 . S
C1332 C1333 1.377 . S
C1333 H1317 0.930 . S
C1333 C1332 1.377 . S
C1333 C1334 1.379 . S
C1334 H1318 0.931 . S
C1334 C1328 1.383 . S
C1334 C1333 1.379 . S
H1335 C1329 0.959 . S
H1336 C1329 0.961 . S
H1337 C1329 0.960 . S
H1338 C1330 0.930 . S
H1339 C1331 0.929 . S
H1340 C1348 0.929 . S
H1341 C1350 0.930 . S
H1342 C1352 0.930 . S
H1343 C1355 0.929 . S
H1344 C1358 0.930 . S
H1345 C1360 0.960 . S
H1346 C1360 0.960 . S
H1347 C1360 0.960 . S
C1348 H1340 0.929 . S
C1348 C1349 1.377 . S
C1348 C1350 1.384 . S
C1349 C1348 1.377 . S
C1349 C1355 1.390 . S
C1350 H1341 0.930 . S
C1350 C1348 1.384 . S
C1350 C1351 1.372 . S
C1351 C1350 1.372 . S
C1351 C1352 1.400 . S
C1351 C1356 1.490 . S
C1352 H1342 0.930 . S
C1352 C1351 1.400 . S
C1352 C1355 1.386 . S
H1353 C1369 0.930 . S
H1354 C1370 0.931 . S
C1355 H1343 0.929 . S
C1355 C1349 1.390 . S
C1355 C1352 1.386 . S
C1356 C1351 1.490 . S
C1356 C1358 1.395 . S
C1356 C1359 1.403 . S
H1357 C1363 0.930 . S
C1358 H1344 0.930 . S
C1358 C1356 1.395 . S
C1358 C1361 1.403 . S
C1359 C1356 1.403 . S
C1359 C1360 1.524 . S
C1359 C1363 1.400 . S
C1360 H1345 0.960 . S
C1360 H1346 0.960 . S
C1360 H1347 0.960 . S
C1360 C1359 1.524 . S
C1361 C1358 1.403 . S
C1361 C1362 1.392 . S
C1361 C1365 1.495 . S
C1362 C1361 1.392 . S
C1362 C1363 1.385 . S
C1362 C1364 1.478 . S
C1363 H1357 0.930 . S
C1363 C1359 1.400 . S
C1363 C1362 1.385 . S
C1364 C1362 1.478 . S
C1364 C1366 1.381 . S
C1364 C1370 1.383 . S
C1365 C1361 1.495 . S
C1365 H1371 0.959 . S
C1365 H1372 0.961 . S
C1365 H1373 0.960 . S
C1366 C1364 1.381 . S
C1366 C1367 1.394 . S
C1366 H1374 0.930 . S
C1367 C1366 1.394 . S
C1367 C1368 1.383 . S
C1367 H1375 0.929 . S
C1368 C1367 1.383 . S
C1368 C1369 1.377 . S
C1369 H1353 0.930 . S
C1369 C1368 1.377 . S
C1369 C1370 1.379 . S
C1370 H1354 0.931 . S
C1370 C1364 1.383 . S
C1370 C1369 1.379 . S
H1371 C1365 0.959 . S
H1372 C1365 0.961 . S
H1373 C1365 0.960 . S
H1374 C1366 0.930 . S
H1375 C1367 0.929 . S
H1376 C1384 0.929 . S
H1377 C1386 0.930 . S
H1378 C1388 0.930 . S
H1379 C1391 0.929 . S
H1380 C1394 0.930 . S
H1381 C1396 0.960 . S
H1382 C1396 0.960 . S
H1383 C1396 0.960 . S
C1384 H1376 0.929 . S
C1384 C1385 1.377 . S
C1384 C1386 1.384 . S
C1385 C1384 1.377 . S
C1385 C1391 1.390 . S
C1386 H1377 0.930 . S
C1386 C1384 1.384 . S
C1386 C1387 1.372 . S
C1387 C1386 1.372 . S
C1387 C1388 1.400 . S
C1387 C1392 1.490 . S
C1388 H1378 0.930 . S
C1388 C1387 1.400 . S
C1388 C1391 1.386 . S
H1389 C1405 0.930 . S
H1390 C1406 0.931 . S
C1391 H1379 0.929 . S
C1391 C1385 1.390 . S
C1391 C1388 1.386 . S
C1392 C1387 1.490 . S
C1392 C1394 1.395 . S
C1392 C1395 1.403 . S
H1393 C1399 0.930 . S
C1394 H1380 0.930 . S
C1394 C1392 1.395 . S
C1394 C1397 1.403 . S
C1395 C1392 1.403 . S
C1395 C1396 1.524 . S
C1395 C1399 1.400 . S
C1396 H1381 0.960 . S
C1396 H1382 0.960 . S
C1396 H1383 0.960 . S
C1396 C1395 1.524 . S
C1397 C1394 1.403 . S
C1397 C1398 1.392 . S
C1397 C1401 1.495 . S
C1398 C1397 1.392 . S
C1398 C1399 1.385 . S
C1398 C1400 1.478 . S
C1399 H1393 0.930 . S
C1399 C1395 1.400 . S
C1399 C1398 1.385 . S
C1400 C1398 1.478 . S
C1400 C1402 1.381 . S
C1400 C1406 1.383 . S
C1401 C1397 1.495 . S
C1401 H1407 0.959 . S
C1401 H1408 0.961 . S
C1401 H1409 0.960 . S
C1402 C1400 1.381 . S
C1402 C1403 1.394 . S
C1402 H1410 0.930 . S
C1403 C1402 1.394 . S
C1403 C1404 1.383 . S
C1403 H1411 0.929 . S
C1404 C1403 1.383 . S
C1404 C1405 1.377 . S
C1405 H1389 0.930 . S
C1405 C1404 1.377 . S
C1405 C1406 1.379 . S
C1406 H1390 0.931 . S
C1406 C1400 1.383 . S
C1406 C1405 1.379 . S
H1407 C1401 0.959 . S
H1408 C1401 0.961 . S
H1409 C1401 0.960 . S
H1410 C1402 0.930 . S
H1411 C1403 0.929 . S
H1412 C1420 0.929 . S
H1413 C1422 0.930 . S
H1414 C1424 0.930 . S
H1415 C1427 0.929 . S
H1416 C1430 0.930 . S
H1417 C1432 0.960 . S
H1418 C1432 0.960 . S
H1419 C1432 0.960 . S
C1420 H1412 0.929 . S
C1420 C1421 1.377 . S
C1420 C1422 1.384 . S
C1421 C1420 1.377 . S
C1421 C1427 1.390 . S
C1422 H1413 0.930 . S
C1422 C1420 1.384 . S
C1422 C1423 1.372 . S
C1423 C1422 1.372 . S
C1423 C1424 1.400 . S
C1423 C1428 1.490 . S
C1424 H1414 0.930 . S
C1424 C1423 1.400 . S
C1424 C1427 1.386 . S
H1425 C1441 0.930 . S
H1426 C1442 0.931 . S
C1427 H1415 0.929 . S
C1427 C1421 1.390 . S
C1427 C1424 1.386 . S
C1428 C1423 1.490 . S
C1428 C1430 1.395 . S
C1428 C1431 1.403 . S
H1429 C1435 0.930 . S
C1430 H1416 0.930 . S
C1430 C1428 1.395 . S
C1430 C1433 1.403 . S
C1431 C1428 1.403 . S
C1431 C1432 1.524 . S
C1431 C1435 1.400 . S
C1432 H1417 0.960 . S
C1432 H1418 0.960 . S
C1432 H1419 0.960 . S
C1432 C1431 1.524 . S
C1433 C1430 1.403 . S
C1433 C1434 1.392 . S
C1433 C1437 1.495 . S
C1434 C1433 1.392 . S
C1434 C1435 1.385 . S
C1434 C1436 1.478 . S
C1435 H1429 0.930 . S
C1435 C1431 1.400 . S
C1435 C1434 1.385 . S
C1436 C1434 1.478 . S
C1436 C1438 1.381 . S
C1436 C1442 1.383 . S
C1437 C1433 1.495 . S
C1437 H1443 0.959 . S
C1437 H1444 0.961 . S
C1437 H1445 0.960 . S
C1438 C1436 1.381 . S
C1438 C1439 1.394 . S
C1438 H1446 0.930 . S
C1439 C1438 1.394 . S
C1439 C1440 1.383 . S
C1439 H1447 0.929 . S
C1440 C1439 1.383 . S
C1440 C1441 1.377 . S
C1441 H1425 0.930 . S
C1441 C1440 1.377 . S
C1441 C1442 1.379 . S
C1442 H1426 0.931 . S
C1442 C1436 1.383 . S
C1442 C1441 1.379 . S
H1443 C1437 0.959 . S
H1444 C1437 0.961 . S
H1445 C1437 0.960 . S
H1446 C1438 0.930 . S
H1447 C1439 0.929 . S
H1448 C1456 0.929 . S
H1449 C1458 0.930 . S
H1450 C1460 0.930 . S
H1451 C1463 0.929 . S
H1452 C1466 0.930 . S
H1453 C1468 0.960 . S
H1454 C1468 0.960 . S
H1455 C1468 0.960 . S
C1456 H1448 0.929 . S
C1456 C1457 1.377 . S
C1456 C1458 1.384 . S
C1457 C1456 1.377 . S
C1457 C1463 1.390 . S
C1458 H1449 0.930 . S
C1458 C1456 1.384 . S
C1458 C1459 1.372 . S
C1459 C1458 1.372 . S
C1459 C1460 1.400 . S
C1459 C1464 1.490 . S
C1460 H1450 0.930 . S
C1460 C1459 1.400 . S
C1460 C1463 1.386 . S
H1461 C1477 0.930 . S
H1462 C1478 0.931 . S
C1463 H1451 0.929 . S
C1463 C1457 1.390 . S
C1463 C1460 1.386 . S
C1464 C1459 1.490 . S
C1464 C1466 1.395 . S
C1464 C1467 1.403 . S
H1465 C1471 0.930 . S
C1466 H1452 0.930 . S
C1466 C1464 1.395 . S
C1466 C1469 1.403 . S
C1467 C1464 1.403 . S
C1467 C1468 1.524 . S
C1467 C1471 1.400 . S
C1468 H1453 0.960 . S
C1468 H1454 0.960 . S
C1468 H1455 0.960 . S
C1468 C1467 1.524 . S
C1469 C1466 1.403 . S
C1469 C1470 1.392 . S
C1469 C1473 1.495 . S
C1470 C1469 1.392 . S
C1470 C1471 1.385 . S
C1470 C1472 1.478 . S
C1471 H1465 0.930 . S
C1471 C1467 1.400 . S
C1471 C1470 1.385 . S
C1472 C1470 1.478 . S
C1472 C1474 1.381 . S
C1472 C1478 1.383 . S
C1473 C1469 1.495 . S
C1473 H1479 0.959 . S
C1473 H1480 0.961 . S
C1473 H1481 0.960 . S
C1474 C1472 1.381 . S
C1474 C1475 1.394 . S
C1474 H1482 0.930 . S
C1475 C1474 1.394 . S
C1475 C1476 1.383 . S
C1475 H1483 0.929 . S
C1476 C1475 1.383 . S
C1476 C1477 1.377 . S
C1477 H1461 0.930 . S
C1477 C1476 1.377 . S
C1477 C1478 1.379 . S
C1478 H1462 0.931 . S
C1478 C1472 1.383 . S
C1478 C1477 1.379 . S
H1479 C1473 0.959 . S
H1480 C1473 0.961 . S
H1481 C1473 0.960 . S
H1482 C1474 0.930 . S
H1483 C1475 0.929 . S
H1484 C1492 0.929 . S
H1485 C1494 0.930 . S
H1486 C1496 0.930 . S
H1487 C1499 0.929 . S
H1488 C1502 0.930 . S
H1489 C1504 0.960 . S
H1490 C1504 0.960 . S
H1491 C1504 0.960 . S
C1492 H1484 0.929 . S
C1492 C1493 1.377 . S
C1492 C1494 1.384 . S
C1493 C1492 1.377 . S
C1493 C1499 1.390 . S
C1494 H1485 0.930 . S
C1494 C1492 1.384 . S
C1494 C1495 1.372 . S
C1495 C1494 1.372 . S
C1495 C1496 1.400 . S
C1495 C1500 1.490 . S
C1496 H1486 0.930 . S
C1496 C1495 1.400 . S
C1496 C1499 1.386 . S
H1497 C1513 0.930 . S
H1498 C1514 0.931 . S
C1499 H1487 0.929 . S
C1499 C1493 1.390 . S
C1499 C1496 1.386 . S
C1500 C1495 1.490 . S
C1500 C1502 1.395 . S
C1500 C1503 1.403 . S
H1501 C1507 0.930 . S
C1502 H1488 0.930 . S
C1502 C1500 1.395 . S
C1502 C1505 1.403 . S
C1503 C1500 1.403 . S
C1503 C1504 1.524 . S
C1503 C1507 1.400 . S
C1504 H1489 0.960 . S
C1504 H1490 0.960 . S
C1504 H1491 0.960 . S
C1504 C1503 1.524 . S
C1505 C1502 1.403 . S
C1505 C1506 1.392 . S
C1505 C1509 1.495 . S
C1506 C1505 1.392 . S
C1506 C1507 1.385 . S
C1506 C1508 1.478 . S
C1507 H1501 0.930 . S
C1507 C1503 1.400 . S
C1507 C1506 1.385 . S
C1508 C1506 1.478 . S
C1508 C1510 1.381 . S
C1508 C1514 1.383 . S
C1509 C1505 1.495 . S
C1509 H1515 0.959 . S
C1509 H1516 0.961 . S
C1509 H1517 0.960 . S
C1510 C1508 1.381 . S
C1510 C1511 1.394 . S
C1510 H1518 0.930 . S
C1511 C1510 1.394 . S
C1511 C1512 1.383 . S
C1511 H1519 0.929 . S
C1512 C1511 1.383 . S
C1512 C1513 1.377 . S
C1513 H1497 0.930 . S
C1513 C1512 1.377 . S
C1513 C1514 1.379 . S
C1514 H1498 0.931 . S
C1514 C1508 1.383 . S
C1514 C1513 1.379 . S
H1515 C1509 0.959 . S
H1516 C1509 0.961 . S
H1517 C1509 0.960 . S
H1518 C1510 0.930 . S
H1519 C1511 0.929 . S
C665 C242 1.455 . S
C684 C394 1.485 . S
C720 C478 1.479 . S
C701 C301 1.487 . S
C756 C471 1.467 . S
C737 C162 1.445 . S
C773 C221 1.479 . S
C792 C387 1.464 . S
C828 C551 1.461 . S
C809 C82 1.483 . S
C864 C635 1.469 . S
C845 C141 1.461 . S
C881 C2 1.476 . S
C900 C628 1.474 . S
C917 C61 1.449 . S
C936 C544 1.469 . S
C972 C378 1.307 . S
C953 C42 1.503 1_554 S
C1008 C462 1.345 . S
C989 C21 1.529 . S
C1044 C473 1.441 . S
C1025 C122 1.524 1_556 S
C1080 C389 1.366 . S
C1061 C101 1.549 . S
C1116 C557 1.314 . S
C1097 C202 1.515 1_556 S
C1133 C181 1.500 . S
C1152 C641 1.303 . S
C1188 C630 1.411 . S
C1169 C282 1.548 1_554 S
C1205 C261 1.520 . S
C1224 C546 1.376 . S
C1260 C376 1.610 . S
C1241 C15 1.613 . S
C1296 C460 1.594 . S
C1277 C55 1.597 . S
C1313 C95 1.604 . S
C1332 C467 1.578 . S
C1368 C383 1.588 . S
C1349 C135 1.588 . S
C1404 C555 1.617 . S
C1385 C175 1.612 . S
C1421 C215 1.603 . S
C1440 C639 1.606 . S
C1457 C255 1.598 . S
C1476 C646 1.596 . S
C1493 C295 1.591 . S
C1512 C562 1.566 . S
