# Generated by pormake.
# Topology tsx, (6,3)-cn, num edge types: 1
# Building blocks:
#     Node 0, Type 0, BuildingBlock: MIDCAF_clean_sbu_0, # of connection points: 6
#     Node 1, Type 0, BuildingBlock: MIDCAF_clean_sbu_0, # of connection points: 6
#     Node 2, Type 1, BuildingBlock: OLANEW_clean_sbu_2, # of connection points: 3
#     Node 3, Type 1, BuildingBlock: OLANEW_clean_sbu_2, # of connection points: 3
#     Node 4, Type 1, BuildingBlock: OLANEW_clean_sbu_2, # of connection points: 3
#     Node 5, Type 1, BuildingBlock: OLANEW_clean_sbu_2, # of connection points: 3
#     Edge 6, Type (0, 1), BuildingBlock: ZUJKAS_clean_linker_0, # of connection points: 2
#     Edge 7, Type (0, 1), BuildingBlock: ZUJKAS_clean_linker_0, # of connection points: 2
#     Edge 8, Type (0, 1), BuildingBlock: ZUJKAS_clean_linker_0, # of connection points: 2
#     Edge 9, Type (0, 1), BuildingBlock: ZUJKAS_clean_linker_0, # of connection points: 2
#     Edge 10, Type (0, 1), BuildingBlock: ZUJKAS_clean_linker_0, # of connection points: 2
#     Edge 11, Type (0, 1), BuildingBlock: ZUJKAS_clean_linker_0, # of connection points: 2
#     Edge 12, Type (0, 1), BuildingBlock: ZUJKAS_clean_linker_0, # of connection points: 2
#     Edge 13, Type (0, 1), BuildingBlock: ZUJKAS_clean_linker_0, # of connection points: 2
#     Edge 14, Type (0, 1), BuildingBlock: ZUJKAS_clean_linker_0, # of connection points: 2
#     Edge 15, Type (0, 1), BuildingBlock: ZUJKAS_clean_linker_0, # of connection points: 2
#     Edge 16, Type (0, 1), BuildingBlock: ZUJKAS_clean_linker_0, # of connection points: 2
#     Edge 17, Type (0, 1), BuildingBlock: ZUJKAS_clean_linker_0, # of connection points: 2
# Relax obj value: 0.070
# Max RMSD: 0.154
# Mean RMSD: 0.100
data_MOF--net-tsx--node1-MIDCAF_clean_sbu_0--node2-OLANEW_clean_sbu_2--edge1-ZUJKAS_clean_linker_0
_symmetry_space_group_name_H-M    P1
_symmetry_Int_Tables_number       1
_symmetry_cell_setting            triclinic
loop_
_symmetry_equiv_pos_as_xyz
'x, y, z'
_cell_length_a     27.801473
_cell_length_b     28.683303
_cell_length_c     47.346808
_cell_angle_alpha  95.992262
_cell_angle_beta   94.3839
_cell_angle_gamma 89.968517
loop_
_atom_site_label
_atom_site_type_symbol
_atom_site_fract_x
_atom_site_fract_y
_atom_site_fract_z
_atom_type_partial_charge
Zn0 Zn 0.9515 0.9967 0.97994 0.0
Zn1 Zn 0.10879 0.04097 0.04684 0.0
Zn2 Zn 0.02878 0.02416 0.0141 0.0
C3 C 0.06781 0.12781 0.03722 0.0
C4 C 0.13769 0.99324 0.99802 0.0
O5 O 0.98108 0.97964 0.0365 0.0
O6 O 0.92335 0.95343 0.00381 0.0
C7 C 0.94949 0.09616 0.99355 0.0
O8 O 0.037 0.10175 0.02101 0.0
O9 O 0.10104 0.10964 0.05201 0.0
O10 O 0.15661 0.01498 0.02068 0.0
O11 O 0.09147 0.99287 0.99273 0.0
O12 O 0.92524 0.0614 0.98147 0.0
O13 O 0.99154 0.09014 0.00602 0.0
O14 O 0.05066 0.9879 0.97344 0.0
O15 O 0.98366 0.96927 0.94629 0.0
C16 C 0.02911 0.96991 0.94974 0.0
O17 O 0.02191 0.99333 0.05483 0.0
O18 O 0.09372 0.00443 0.07813 0.0
C19 C 0.94302 0.95436 0.02873 0.0
C20 C 0.05128 0.98835 0.07675 0.0
Zn21 Zn 0.61071 0.52892 0.53934 0.0
Zn22 Zn 0.45724 0.50344 0.46569 0.0
Zn23 Zn 0.53337 0.51743 0.50255 0.0
C24 C 0.53622 0.47 0.43727 0.0
C25 C 0.46593 0.60044 0.48043 0.0
O26 O 0.51766 0.48515 0.54152 0.0
O27 O 0.58489 0.49626 0.56966 0.0
C28 C 0.64014 0.47529 0.49171 0.0
O29 O 0.55778 0.48338 0.46187 0.0
O30 O 0.49102 0.47371 0.43333 0.0
O31 O 0.43984 0.57013 0.46516 0.0
O32 O 0.50302 0.58759 0.49572 0.0
O33 O 0.65745 0.49463 0.51549 0.0
O34 O 0.59539 0.481 0.48351 0.0
O35 O 0.54723 0.59386 0.5121 0.0
O36 O 0.61086 0.59819 0.54343 0.0
C37 C 0.57919 0.61821 0.52851 0.0
O38 O 0.48001 0.47325 0.52047 0.0
O39 O 0.41892 0.46389 0.4875 0.0
C40 C 0.54225 0.48061 0.56529 0.0
C41 C 0.43827 0.45563 0.51143 0.0
O42 O 0.02057 0.96444 0.38524 0.0
Cd43 Cd 0.03283 0.98318 0.43698 0.0
O44 O 0.07063 0.02051 0.37809 0.0
Cd45 Cd 0.05975 0.05827 0.4194 0.0
O46 O 0.00811 0.11172 0.43311 0.0
C47 C 0.97915 0.1231 0.41288 0.0
O48 O 0.98319 0.10235 0.38709 0.0
C49 C 0.04501 0.98483 0.36844 0.0
C50 C 0.11753 0.94084 0.45708 0.0
O51 O 0.07689 0.91914 0.45451 0.0
O52 O 0.11815 0.98313 0.45063 0.0
O53 O 0.09982 0.00597 0.65733 0.0
Cd54 Cd 0.07708 0.03404 0.61139 0.0
O55 O 0.05676 0.94101 0.64855 0.0
Cd56 Cd 0.01917 0.95719 0.60846 0.0
O57 O 0.9508 0.94761 0.5822 0.0
C58 C 0.91447 0.94241 0.59636 0.0
O59 O 0.92099 0.94573 0.62429 0.0
C60 C 0.08639 0.96709 0.66487 0.0
C61 C 0.14345 0.102 0.60121 0.0
O62 O 0.10537 0.11337 0.61388 0.0
O63 O 0.14971 0.05857 0.59299 0.0
O64 O 0.5119 0.4647 0.86864 0.0
Cd65 Cd 0.53049 0.48937 0.91944 0.0
O66 O 0.54099 0.53105 0.85743 0.0
Cd67 Cd 0.53503 0.56884 0.8993 0.0
O68 O 0.49038 0.62578 0.91676 0.0
C69 C 0.47896 0.65648 0.89994 0.0
O70 O 0.49643 0.65282 0.87479 0.0
C71 C 0.52454 0.48992 0.8499 0.0
C72 C 0.61274 0.44413 0.9406 0.0
O73 O 0.57042 0.42687 0.94145 0.0
O74 O 0.61629 0.4831 0.92988 0.0
O75 O 0.55238 0.53783 0.15385 0.0
Cd76 Cd 0.53305 0.56151 0.10637 0.0
O77 O 0.56914 0.46492 0.1388 0.0
Cd78 Cd 0.52509 0.46849 0.0987 0.0
O79 O 0.45762 0.44553 0.07413 0.0
C80 C 0.41796 0.46443 0.08059 0.0
O81 O 0.4189 0.50015 0.10041 0.0
C82 C 0.56955 0.49816 0.1588 0.0
C83 C 0.6022 0.62841 0.09797 0.0
O84 O 0.56239 0.64058 0.1085 0.0
O85 O 0.60869 0.58472 0.09061 0.0
H86 H 0.06162 0.19608 0.08064 0.0
H87 H 0.10292 0.27193 0.08409 0.0
H88 H 0.13092 0.24712 0.99544 0.0
H89 H 0.08839 0.17192 0.99189 0.0
H90 H 0.19722 0.26348 0.07652 0.0
H91 H 0.11886 0.3891 0.00483 0.0
H92 H 0.08417 0.34166 0.01567 0.0
H93 H 0.12368 0.33084 0.98737 0.0
C94 C 0.07389 0.20829 0.0615 0.0
C95 C 0.07133 0.17862 0.03592 0.0
C96 C 0.09787 0.25144 0.06351 0.0
C97 C 0.12026 0.26527 0.04006 0.0
C98 C 0.11326 0.23781 0.01369 0.0
H99 H 0.4033 0.38469 0.04372 0.0
H100 H 0.32757 0.34125 0.03156 0.0
C101 C 0.08876 0.1948 0.01162 0.0
C102 C 0.15924 0.30132 0.04478 0.0
H103 H 0.2032 0.3999 0.0205 0.0
C104 C 0.19799 0.2937 0.06456 0.0
C105 C 0.16061 0.34054 0.02902 0.0
C106 C 0.11937 0.35135 0.00821 0.0
C107 C 0.23843 0.32337 0.06853 0.0
C108 C 0.24065 0.36153 0.05208 0.0
C109 C 0.20151 0.37022 0.03284 0.0
C110 C 0.28403 0.39204 0.0549 0.0
C111 C 0.279 0.31338 0.09008 0.0
C112 C 0.2842 0.43564 0.0713 0.0
C113 C 0.32749 0.46051 0.07843 0.0
C114 C 0.3713 0.44212 0.06924 0.0
C115 C 0.37034 0.39978 0.05128 0.0
C116 C 0.32708 0.37494 0.04424 0.0
H117 H 0.26835 0.28735 0.1043 0.0
H118 H 0.31025 0.29928 0.07874 0.0
H119 H 0.29099 0.34612 0.10337 0.0
H120 H 0.25131 0.44924 0.07982 0.0
H121 H 0.32687 0.49311 0.09218 0.0
H122 H 0.2285 0.01503 0.98635 0.0
H123 H 0.28592 0.96314 0.96232 0.0
H124 H 0.17611 0.85549 0.94497 0.0
H125 H 0.11836 0.90777 0.96844 0.0
H126 H 0.31512 0.88507 0.98239 0.0
H127 H 0.23991 0.84176 0.87116 0.0
H128 H 0.21812 0.89013 0.89413 0.0
H129 H 0.1971 0.83139 0.89633 0.0
C130 C 0.21634 0.98074 0.97668 0.0
C131 C 0.16903 0.96541 0.97907 0.0
C132 C 0.24911 0.95114 0.96298 0.0
C133 C 0.23533 0.90547 0.95169 0.0
C134 C 0.18735 0.89089 0.95289 0.0
H135 H 0.42439 0.6662 0.94591 0.0
H136 H 0.36559 0.72735 0.95742 0.0
C137 C 0.15435 0.92076 0.96635 0.0
C138 C 0.27259 0.87143 0.94234 0.0
H139 H 0.3006 0.78955 0.88857 0.0
C140 C 0.31216 0.8646 0.96172 0.0
C141 C 0.26901 0.84499 0.91531 0.0
C142 C 0.229 0.85276 0.89294 0.0
C143 C 0.34766 0.8314 0.95512 0.0
C144 C 0.34274 0.80311 0.92875 0.0
C145 C 0.30392 0.81077 0.90898 0.0
C146 C 0.37759 0.76542 0.9214 0.0
C147 C 0.39034 0.82739 0.97643 0.0
C148 C 0.40291 0.76578 0.89691 0.0
C149 C 0.43615 0.73058 0.89011 0.0
C150 C 0.44471 0.69435 0.9077 0.0
C151 C 0.41907 0.69392 0.93212 0.0
C152 C 0.38554 0.72892 0.93877 0.0
H153 H 0.39619 0.86018 0.99101 0.0
H154 H 0.38352 0.79865 0.98962 0.0
H155 H 0.42389 0.8194 0.96562 0.0
H156 H 0.39723 0.79353 0.88317 0.0
H157 H 0.45518 0.73186 0.87108 0.0
H158 H 0.95637 0.86179 0.03163 0.0
H159 H 0.90228 0.80895 0.05198 0.0
H160 H 0.82437 0.92813 0.0879 0.0
H161 H 0.87776 0.98085 0.06682 0.0
H162 H 0.86856 0.79663 0.10573 0.0
H163 H 0.72471 0.85834 0.03053 0.0
H164 H 0.78757 0.87231 0.02881 0.0
H165 H 0.75324 0.9035 0.05529 0.0
C166 C 0.92879 0.8766 0.0448 0.0
C167 C 0.9214 0.92516 0.0481 0.0
C168 C 0.89781 0.84649 0.05628 0.0
C169 C 0.85877 0.86461 0.07097 0.0
C170 C 0.85383 0.91343 0.07625 0.0
H171 H 0.59954 0.72317 0.11252 0.0
H172 H 0.66278 0.78097 0.10872 0.0
C173 C 0.88459 0.94351 0.06455 0.0
C174 C 0.8204 0.83246 0.07761 0.0
H175 H 0.70249 0.80166 0.05961 0.0
C176 C 0.83216 0.79785 0.09581 0.0
C177 C 0.77302 0.83389 0.0644 0.0
C178 C 0.75879 0.86868 0.04347 0.0
C179 C 0.79769 0.76475 0.10127 0.0
C180 C 0.75053 0.76592 0.0878 0.0
C181 C 0.73863 0.80095 0.06997 0.0
C182 C 0.71316 0.73042 0.09115 0.0
C183 C 0.81195 0.729 0.12153 0.0
C184 C 0.72021 0.6829 0.08211 0.0
C185 C 0.68408 0.64978 0.08416 0.0
C186 C 0.64006 0.66361 0.09514 0.0
C187 C 0.63298 0.71132 0.10396 0.0
C188 C 0.66913 0.7444 0.10189 0.0
H189 H 0.84417 0.74061 0.13587 0.0
H190 H 0.78191 0.72205 0.13472 0.0
H191 H 0.82094 0.6956 0.1091 0.0
H192 H 0.75343 0.67149 0.07309 0.0
H193 H 0.69066 0.61335 0.0771 0.0
H194 H 0.85479 0.11433 0.99612 0.0
H195 H 0.81375 0.18889 0.99345 0.0
H196 H 0.95028 0.25837 0.98966 0.0
H197 H 0.9919 0.18275 0.99199 0.0
H198 H 0.82937 0.2786 0.03001 0.0
H199 H 0.86319 0.28569 0.91587 0.0
H200 H 0.86869 0.23158 0.93217 0.0
H201 H 0.9131 0.27701 0.94134 0.0
C202 C 0.87627 0.14547 0.9949 0.0
C203 C 0.92666 0.14279 0.9943 0.0
C204 C 0.85274 0.1881 0.99353 0.0
C205 C 0.8789 0.22905 0.99125 0.0
C206 C 0.92945 0.22703 0.99135 0.0
H207 H 0.70781 0.46889 0.93917 0.0
H208 H 0.77916 0.42532 0.9549 0.0
C209 C 0.95324 0.18405 0.99297 0.0
C210 C 0.85176 0.27262 0.98726 0.0
H211 H 0.80434 0.3358 0.9347 0.0
C212 C 0.8247 0.29196 0.00937 0.0
C213 C 0.84591 0.29004 0.96036 0.0
C214 C 0.87403 0.27016 0.93592 0.0
C215 C 0.78989 0.3264 0.00483 0.0
C216 C 0.78122 0.34105 0.97728 0.0
C217 C 0.81077 0.32424 0.95574 0.0
C218 C 0.73849 0.36949 0.96957 0.0
C219 C 0.76169 0.34569 0.02937 0.0
C220 C 0.69198 0.35238 0.97237 0.0
C221 C 0.65127 0.37702 0.96338 0.0
C222 C 0.65615 0.41923 0.95118 0.0
C223 C 0.70279 0.43654 0.94855 0.0
C224 C 0.74361 0.41173 0.95753 0.0
H225 H 0.78296 0.344 0.05008 0.0
H226 H 0.75098 0.3826 0.02745 0.0
H227 H 0.72853 0.32425 0.02957 0.0
H228 H 0.68709 0.31925 0.98091 0.0
H229 H 0.61594 0.36256 0.96561 0.0
H230 H 0.59544 0.68268 0.57398 0.0
H231 H 0.62985 0.76064 0.57344 0.0
H232 H 0.61219 0.74582 0.48162 0.0
H233 H 0.5766 0.66751 0.4822 0.0
H234 H 0.70797 0.75372 0.50507 0.0
H235 H 0.59974 0.89528 0.55607 0.0
H236 H 0.6015 0.84463 0.57538 0.0
H237 H 0.57343 0.84043 0.53964 0.0
C238 C 0.59673 0.697 0.55376 0.0
C239 C 0.58366 0.66925 0.52815 0.0
C240 C 0.6162 0.7417 0.55344 0.0
C241 C 0.62348 0.7592 0.52749 0.0
C242 C 0.60644 0.73315 0.50187 0.0
H243 H 0.88521 0.93668 0.53921 0.0
H244 H 0.80926 0.90332 0.51584 0.0
C245 C 0.58603 0.68855 0.50222 0.0
C246 C 0.65829 0.79837 0.52761 0.0
H247 H 0.68723 0.90552 0.56306 0.0
C248 C 0.70312 0.78765 0.5169 0.0
C249 C 0.65181 0.84241 0.54312 0.0
C250 C 0.60379 0.85656 0.55396 0.0
C251 C 0.74315 0.81757 0.52392 0.0
C252 C 0.73767 0.86015 0.54142 0.0
C253 C 0.6916 0.8728 0.54983 0.0
C254 C 0.78016 0.8877 0.55497 0.0
C255 C 0.79172 0.80109 0.51474 0.0
C256 C 0.78787 0.89258 0.58477 0.0
C257 C 0.83062 0.91232 0.59814 0.0
C258 C 0.86694 0.92733 0.582 0.0
C259 C 0.8582 0.92483 0.55221 0.0
C260 C 0.81492 0.90557 0.53882 0.0
H261 H 0.79092 0.76375 0.50567 0.0
H262 H 0.80297 0.82246 0.49812 0.0
H263 H 0.81946 0.80525 0.53299 0.0
H264 H 0.76164 0.87917 0.59774 0.0
H265 H 0.83594 0.91395 0.62113 0.0
H266 H 0.73742 0.47993 0.48994 0.0
H267 H 0.79004 0.41967 0.46905 0.0
H268 H 0.66555 0.336 0.43582 0.0
H269 H 0.61258 0.39604 0.45714 0.0
H270 H 0.73328 0.28909 0.46911 0.0
H271 H 0.82214 0.3755 0.3874 0.0
H272 H 0.82353 0.4104 0.42123 0.0
H273 H 0.7666 0.39658 0.40147 0.0
C274 C 0.72123 0.44915 0.47765 0.0
C275 C 0.67093 0.44279 0.47497 0.0
C276 C 0.75132 0.4149 0.46557 0.0
C277 C 0.73167 0.37363 0.45063 0.0
C278 C 0.68135 0.36784 0.44707 0.0
H279 H 0.91365 0.15488 0.37358 0.0
H280 H 0.85122 0.21371 0.38155 0.0
C281 C 0.65116 0.40224 0.45909 0.0
C282 C 0.76396 0.33465 0.44174 0.0
H283 H 0.86149 0.30763 0.40371 0.0
C284 C 0.76091 0.29285 0.45451 0.0
C285 C 0.7997 0.33956 0.42255 0.0
C286 C 0.803 0.38276 0.40714 0.0
C287 C 0.79393 0.25649 0.44948 0.0
C288 C 0.83136 0.26245 0.43154 0.0
C289 C 0.83318 0.30345 0.41781 0.0
C290 C 0.86919 0.22668 0.42694 0.0
C291 C 0.78852 0.21206 0.46346 0.0
C292 C 0.90037 0.21485 0.44981 0.0
C293 C 0.93617 0.18116 0.44537 0.0
C294 C 0.94151 0.1589 0.41791 0.0
C295 C 0.91046 0.17123 0.39502 0.0
C296 C 0.87477 0.2049 0.39949 0.0
H297 H 0.75137 0.20794 0.47005 0.0
H298 H 0.79719 0.18077 0.44893 0.0
H299 H 0.81383 0.21328 0.48282 0.0
H300 H 0.89723 0.23194 0.47109 0.0
H301 H 0.95964 0.17266 0.4634 0.0
H302 H 0.47773 0.3892 0.54353 0.0
H303 H 0.43404 0.32894 0.56494 0.0
H304 H 0.29869 0.3879 0.53596 0.0
H305 H 0.34194 0.44836 0.515 0.0
H306 H 0.35087 0.33639 0.60528 0.0
H307 H 0.30721 0.24775 0.49619 0.0
H308 H 0.35621 0.28944 0.50455 0.0
H309 H 0.29512 0.30957 0.50079 0.0
C310 C 0.4387 0.39004 0.54252 0.0
C311 C 0.41312 0.42356 0.52785 0.0
C312 C 0.41385 0.35556 0.55459 0.0
C313 C 0.36326 0.35395 0.55177 0.0
C314 C 0.33777 0.38856 0.5382 0.0
H315 H 0.14 0.19674 0.61575 0.0
H316 H 0.19792 0.25613 0.60612 0.0
C317 C 0.36248 0.42296 0.52624 0.0
C318 C 0.33669 0.31402 0.5606 0.0
H319 H 0.26639 0.22015 0.53335 0.0
C320 C 0.33268 0.31066 0.58966 0.0
C321 C 0.31366 0.28031 0.5401 0.0
C322 C 0.31843 0.28149 0.50864 0.0
C323 C 0.30458 0.27511 0.59872 0.0
C324 C 0.27969 0.24267 0.5781 0.0
C325 C 0.28524 0.24522 0.54911 0.0
C326 C 0.24652 0.20648 0.58586 0.0
C327 C 0.30181 0.27256 0.63021 0.0
C328 C 0.25414 0.15894 0.57719 0.0
C329 C 0.22088 0.12495 0.5824 0.0
C330 C 0.17917 0.13793 0.59624 0.0
C331 C 0.17181 0.18557 0.6051 0.0
C332 C 0.20511 0.21954 0.59987 0.0
H333 H 0.33296 0.2907 0.64284 0.0
H334 H 0.26836 0.29003 0.63702 0.0
H335 H 0.3007 0.23561 0.63518 0.0
H336 H 0.28567 0.14818 0.56613 0.0
H337 H 0.22766 0.08857 0.57532 0.0
H338 H 0.47964 0.67085 0.52465 0.0
H339 H 0.4396 0.74742 0.52818 0.0
H340 H 0.37459 0.71595 0.44259 0.0
H341 H 0.41591 0.6412 0.43856 0.0
H342 H 0.39708 0.80769 0.45342 0.0
H343 H 0.29757 0.74838 0.54121 0.0
H344 H 0.36197 0.7537 0.54741 0.0
H345 H 0.33609 0.7096 0.52085 0.0
C346 C 0.45825 0.68114 0.50629 0.0
C347 C 0.45069 0.64995 0.48139 0.0
C348 C 0.43478 0.72458 0.50847 0.0
C349 C 0.40308 0.73695 0.48589 0.0
C350 C 0.3986 0.70721 0.46036 0.0
H351 H 0.12909 0.84821 0.46377 0.0
H352 H 0.20384 0.80731 0.47505 0.0
C353 C 0.42211 0.66428 0.45813 0.0
C354 C 0.37032 0.77784 0.48905 0.0
H355 H 0.2685 0.81427 0.5207 0.0
C356 C 0.36949 0.80986 0.4685 0.0
C357 C 0.33416 0.78033 0.50866 0.0
C358 C 0.33201 0.74611 0.5307 0.0
C359 C 0.33164 0.84192 0.46563 0.0
C360 C 0.29432 0.84293 0.48442 0.0
C361 C 0.2971 0.81332 0.5063 0.0
C362 C 0.24905 0.8695 0.47947 0.0
C363 C 0.33017 0.87182 0.44116 0.0
C364 C 0.24929 0.91831 0.47868 0.0
C365 C 0.20645 0.94181 0.47182 0.0
C366 C 0.16254 0.91697 0.46609 0.0
C367 C 0.16223 0.86842 0.46802 0.0
C368 C 0.205 0.84498 0.47454 0.0
H369 H 0.35657 0.86012 0.42547 0.0
H370 H 0.29361 0.87109 0.4299 0.0
H371 H 0.33902 0.90865 0.44951 0.0
H372 H 0.28261 0.93817 0.48305 0.0
H373 H 0.20779 0.97933 0.47077 0.0
H374 H 0.96182 0.99117 0.09715 0.0
H375 H 0.94157 0.97086 0.1439 0.0
H376 H 0.08704 0.92266 0.16041 0.0
H377 H 0.10638 0.94036 0.11331 0.0
H378 H 0.02084 0.87229 0.18608 0.0
H379 H 0.99597 0.06514 0.2084 0.0
H380 H 0.9557 0.03559 0.18082 0.0
H381 H 0.01898 0.03934 0.17585 0.0
C382 C 0.98858 0.97403 0.11019 0.0
C383 C 0.03554 0.96723 0.10163 0.0
C384 C 0.97728 0.96315 0.13708 0.0
C385 C 0.01316 0.94626 0.15588 0.0
C386 C 0.05883 0.93579 0.14632 0.0
H387 H 0.09956 0.01417 0.32817 0.0
H388 H 0.08596 0.9982 0.27659 0.0
C389 C 0.06993 0.94621 0.11946 0.0
C390 C 0.00655 0.94615 0.18663 0.0
H391 H 0.999 0.021 0.24706 0.0
C392 C 0.01513 0.90458 0.19945 0.0
C393 C 0.99973 0.98855 0.20401 0.0
C394 C 0.99241 0.03481 0.19173 0.0
C395 C 0.01932 0.90471 0.22924 0.0
C396 C 0.0142 0.94742 0.24649 0.0
C397 C 0.00304 0.98838 0.23366 0.0
C398 C 0.02487 0.95192 0.27777 0.0
C399 C 0.03191 0.85989 0.24207 0.0
C400 C 0.99563 0.93032 0.29555 0.0
C401 C 0.00354 0.93917 0.3252 0.0
C402 C 0.04048 0.97017 0.33744 0.0
C403 C 0.07067 0.99032 0.31948 0.0
C404 C 0.06293 0.98127 0.28998 0.0
H405 H 0.04186 0.83149 0.22581 0.0
H406 H 0.06238 0.86591 0.25865 0.0
H407 H 1.0004 0.84782 0.25246 0.0
H408 H 0.96568 0.90805 0.28654 0.0
H409 H 0.97949 0.92328 0.33846 0.0
H410 H 0.10404 0.01418 0.92979 0.0
H411 H 0.13342 0.99793 0.88221 0.0
H412 H 0.04635 0.87203 0.8677 0.0
H413 H 0.01506 0.88957 0.91456 0.0
H414 H 0.17474 0.92746 0.84606 0.0
H415 H 0.98202 0.95631 0.81249 0.0
H416 H 0.00577 0.96676 0.84907 0.0
H417 H 0.9914 0.90803 0.83342 0.0
C418 C 0.09231 0.9824 0.91668 0.0
C419 C 0.05665 0.95355 0.92537 0.0
C420 C 0.10917 0.97307 0.88958 0.0
C421 C 0.09088 0.93454 0.87115 0.0
C422 C 0.05989 0.90262 0.88134 0.0
H423 H 0.06513 0.88635 0.68745 0.0
H424 H 0.07654 0.87143 0.73732 0.0
C425 C 0.04213 0.91255 0.90806 0.0
C426 C 0.09734 0.9322 0.84026 0.0
H427 H 0.03372 0.93783 0.77618 0.0
C428 C 0.14399 0.92943 0.83071 0.0
C429 C 0.05712 0.93563 0.82034 0.0
C430 C 0.00632 0.94233 0.8293 0.0
C431 C 0.15129 0.92952 0.80161 0.0
C432 C 0.11095 0.93248 0.78183 0.0
C433 C 0.0645 0.93484 0.79141 0.0
C434 C 0.11515 0.93622 0.75118 0.0
C435 C 0.20185 0.9265 0.79217 0.0
C436 C 0.13427 0.97707 0.74235 0.0
C437 C 0.12759 0.9859 0.71381 0.0
C438 C 0.10131 0.95413 0.69373 0.0
C439 C 0.08517 0.91176 0.70237 0.0
C440 C 0.09189 0.903 0.73085 0.0
H441 H 0.22763 0.9136 0.80866 0.0
H442 H 0.20301 0.90298 0.77206 0.0
H443 H 0.21391 0.9619 0.7881 0.0
H444 H 0.15153 0.00356 0.7578 0.0
H445 H 0.14061 0.01881 0.70787 0.0
H446 H 0.5891 0.43072 0.604 0.0
H447 H 0.56065 0.41091 0.64845 0.0
H448 H 0.41919 0.46275 0.62434 0.0
H449 H 0.44874 0.4851 0.58008 0.0
H450 H 0.44963 0.50427 0.67261 0.0
H451 H 0.48331 0.31818 0.6816 0.0
H452 H 0.53718 0.34231 0.67044 0.0
H453 H 0.4819 0.34197 0.64769 0.0
C454 C 0.55155 0.43677 0.60781 0.0
C455 C 0.52111 0.45941 0.58862 0.0
C456 C 0.53501 0.4247 0.63311 0.0
C457 C 0.48743 0.43451 0.63971 0.0
C458 C 0.45592 0.45438 0.61963 0.0
H459 H 0.46777 0.41667 0.82419 0.0
H460 H 0.44721 0.39763 0.77285 0.0
C461 C 0.47272 0.46696 0.5943 0.0
C462 C 0.47477 0.43283 0.66951 0.0
H463 H 0.50094 0.37129 0.72666 0.0
C464 C 0.4593 0.47453 0.68421 0.0
C465 C 0.48608 0.39392 0.68486 0.0
C466 C 0.49746 0.34649 0.67012 0.0
C467 C 0.46027 0.48005 0.71398 0.0
C468 C 0.47849 0.44344 0.72946 0.0
C469 C 0.48853 0.39992 0.71478 0.0
C470 C 0.4926 0.45198 0.76038 0.0
C471 C 0.44401 0.526 0.72859 0.0
C472 C 0.52643 0.48739 0.77019 0.0
C473 C 0.53806 0.49839 0.79925 0.0
C474 C 0.51663 0.47372 0.81919 0.0
C475 C 0.48481 0.43636 0.80932 0.0
C476 C 0.47287 0.42555 0.78006 0.0
H477 H 0.41584 0.54241 0.715 0.0
H478 H 0.42946 0.5213 0.74932 0.0
H479 H 0.47516 0.55062 0.7325 0.0
H480 H 0.54328 0.50722 0.7553 0.0
H481 H 0.56318 0.52693 0.8061 0.0
H482 H 0.50255 0.41828 0.38865 0.0
H483 H 0.53916 0.40949 0.34368 0.0
H484 H 0.66905 0.47734 0.38399 0.0
H485 H 0.63036 0.49014 0.42879 0.0
H486 H 0.64568 0.51788 0.34156 0.0
H487 H 0.62981 0.33311 0.30084 0.0
H488 H 0.57122 0.34948 0.31128 0.0
H489 H 0.62195 0.35213 0.33775 0.0
C490 C 0.53937 0.43035 0.38818 0.0
C491 C 0.5636 0.45471 0.41239 0.0
C492 C 0.56074 0.42458 0.36239 0.0
C493 C 0.60745 0.44188 0.36028 0.0
C494 C 0.63313 0.46332 0.385 0.0
H495 H 0.63091 0.42965 0.17576 0.0
H496 H 0.65744 0.41545 0.22472 0.0
C497 C 0.61119 0.47013 0.41076 0.0
C498 C 0.62476 0.44514 0.33155 0.0
H499 H 0.61141 0.38937 0.2642 0.0
C500 C 0.63969 0.4892 0.32483 0.0
C501 C 0.6191 0.40772 0.30952 0.0
C502 C 0.61024 0.35792 0.31544 0.0
C503 C 0.64332 0.49811 0.29652 0.0
C504 C 0.62937 0.46276 0.27426 0.0
C505 C 0.62029 0.41723 0.28109 0.0
C506 C 0.61797 0.47366 0.24445 0.0
C507 C 0.66056 0.5459 0.29088 0.0
C508 C 0.58685 0.5109 0.23912 0.0
C509 C 0.57253 0.51958 0.21131 0.0
C510 C 0.5877 0.4903 0.18809 0.0
C511 C 0.61864 0.4528 0.19328 0.0
C512 C 0.63385 0.4447 0.22123 0.0
H513 H 0.68887 0.5595 0.30753 0.0
H514 H 0.67543 0.54518 0.26973 0.0
H515 H 0.63005 0.57083 0.29185 0.0
H516 H 0.57225 0.53257 0.25649 0.0
H517 H 0.54811 0.5483 0.20805 0.0
loop_
_geom_bond_atom_site_label_1
_geom_bond_atom_site_label_2
_geom_bond_distance
_geom_bond_site_symmetry_2
_ccdc_geom_bond_type
Zn0 O6 1.920 1_545 S
Zn0 O12 1.898 . S
Zn0 O15 1.905 1_545 S
Zn1 O9 1.905 . S
Zn1 O10 1.898 1_545 S
Zn1 O18 1.920 1_545 S
Zn2 O5 2.080 1_445 S
Zn2 O8 2.114 . S
Zn2 O11 2.120 1_545 S
Zn2 O13 2.120 1_455 S
Zn2 O14 2.114 1_554 S
Zn2 O17 2.080 . S
C3 O8 1.166 . S
C3 O9 1.182 . S
C4 O10 1.167 . S
C4 O11 1.299 . S
O5 Zn2 2.080 1_665 S
O5 C19 1.305 . S
O6 Zn0 1.920 1_565 S
O6 C19 1.234 1_556 S
C7 O12 1.167 . S
C7 O13 1.299 1_556 S
O8 Zn2 2.114 . S
O8 C3 1.166 . S
O9 Zn1 1.905 . S
O9 C3 1.182 . S
O10 Zn1 1.898 1_565 S
O10 C4 1.167 . S
O11 Zn2 2.120 1_565 S
O11 C4 1.299 . S
O12 Zn0 1.898 . S
O12 C7 1.167 . S
O13 Zn2 2.120 1_655 S
O13 C7 1.299 1_554 S
O14 Zn2 2.114 1_556 S
O14 C16 1.166 1_545 S
O15 Zn0 1.905 1_565 S
O15 C16 1.182 1_655 S
C16 O14 1.166 1_565 S
C16 O15 1.182 1_455 S
O17 Zn2 2.080 . S
O17 C20 1.305 1_545 S
O18 Zn1 1.920 1_565 S
O18 C20 1.234 . S
C19 O5 1.305 . S
C19 O6 1.234 1_554 S
C20 O17 1.305 1_565 S
C20 O18 1.234 . S
Zn21 O27 1.920 . S
Zn21 O33 1.898 . S
Zn21 O36 1.905 . S
Zn22 O30 1.905 . S
Zn22 O31 1.898 . S
Zn22 O39 1.920 . S
Zn23 O26 2.080 . S
Zn23 O29 2.114 . S
Zn23 O32 2.120 . S
Zn23 O34 2.120 . S
Zn23 O35 2.114 . S
Zn23 O38 2.080 . S
C24 O29 1.166 . S
C24 O30 1.182 . S
C25 O31 1.167 . S
C25 O32 1.299 . S
O26 Zn23 2.080 . S
O26 C40 1.305 . S
O27 Zn21 1.920 . S
O27 C40 1.234 . S
C28 O33 1.167 . S
C28 O34 1.299 . S
O29 Zn23 2.114 . S
O29 C24 1.166 . S
O30 Zn22 1.905 . S
O30 C24 1.182 . S
O31 Zn22 1.898 . S
O31 C25 1.167 . S
O32 Zn23 2.120 . S
O32 C25 1.299 . S
O33 Zn21 1.898 . S
O33 C28 1.167 . S
O34 Zn23 2.120 . S
O34 C28 1.299 . S
O35 Zn23 2.114 . S
O35 C37 1.166 . S
O36 Zn21 1.905 . S
O36 C37 1.182 . S
C37 O35 1.166 . S
C37 O36 1.182 . S
O38 Zn23 2.080 . S
O38 C41 1.305 . S
O39 Zn22 1.920 . S
O39 C41 1.234 . S
C40 O26 1.305 . S
C40 O27 1.234 . S
C41 O38 1.305 . S
C41 O39 1.234 . S
O42 Cd43 2.300 . S
O42 C49 1.275 . S
Cd43 O42 2.300 . S
Cd43 O51 2.381 1_545 S
Cd43 O52 2.378 1_545 S
O44 Cd45 2.385 . S
O44 C49 1.255 . S
Cd45 O44 2.385 . S
Cd45 O46 2.317 . S
O46 Cd45 2.317 . S
O46 C47 1.246 . S
C47 O46 1.246 . S
C47 O48 1.219 . S
O48 C47 1.219 . S
C49 O42 1.275 . S
C49 O44 1.255 . S
C50 O51 1.258 . S
C50 O52 1.256 . S
O51 Cd43 2.381 1_565 S
O51 C50 1.258 . S
O52 Cd43 2.378 1_565 S
O52 C50 1.256 . S
O53 Cd54 2.300 . S
O53 C60 1.275 . S
Cd54 O53 2.300 . S
Cd54 O62 2.381 . S
Cd54 O63 2.378 . S
O55 Cd56 2.385 . S
O55 C60 1.255 1_565 S
Cd56 O55 2.385 . S
Cd56 O57 2.317 1_455 S
O57 Cd56 2.317 1_655 S
O57 C58 1.232 . S
C58 O57 1.232 . S
C58 O59 1.218 . S
O59 C58 1.218 . S
C60 O53 1.275 . S
C60 O55 1.255 1_545 S
C61 O62 1.258 . S
C61 O63 1.256 . S
O62 Cd54 2.381 . S
O62 C61 1.258 . S
O63 Cd54 2.378 . S
O63 C61 1.256 . S
O64 Cd65 2.300 . S
O64 C71 1.275 . S
Cd65 O64 2.300 . S
Cd65 O73 2.381 . S
Cd65 O74 2.378 . S
O66 Cd67 2.385 . S
O66 C71 1.255 . S
Cd67 O66 2.385 . S
Cd67 O68 2.317 . S
O68 Cd67 2.317 . S
O68 C69 1.232 . S
C69 O68 1.232 . S
C69 O70 1.218 . S
O70 C69 1.218 . S
C71 O64 1.275 . S
C71 O66 1.255 . S
C72 O73 1.258 . S
C72 O74 1.256 . S
O73 Cd65 2.381 . S
O73 C72 1.258 . S
O74 Cd65 2.378 . S
O74 C72 1.256 . S
O75 Cd76 2.300 . S
O75 C82 1.275 . S
Cd76 O75 2.300 . S
Cd76 O84 2.381 . S
Cd76 O85 2.378 . S
O77 Cd78 2.385 . S
O77 C82 1.255 . S
Cd78 O77 2.385 . S
Cd78 O79 2.317 . S
O79 Cd78 2.317 . S
O79 C80 1.232 . S
C80 O79 1.232 . S
C80 O81 1.218 . S
O81 C80 1.218 . S
C82 O75 1.275 . S
C82 O77 1.255 . S
C83 O84 1.258 . S
C83 O85 1.256 . S
O84 Cd76 2.381 . S
O84 C83 1.258 . S
O85 Cd76 2.378 . S
O85 C83 1.256 . S
H86 C94 0.929 . S
H87 C96 0.930 . S
H88 C98 0.930 1_556 S
H89 C101 0.929 1_556 S
H90 C104 0.930 . S
H91 C106 0.960 . S
H92 C106 0.960 . S
H93 C106 0.960 . S
C94 H86 0.929 . S
C94 C95 1.377 . S
C94 C96 1.384 . S
C95 C94 1.377 . S
C95 C101 1.390 . S
C96 H87 0.930 . S
C96 C94 1.384 . S
C96 C97 1.372 . S
C97 C96 1.372 . S
C97 C98 1.400 . S
C97 C102 1.490 . S
C98 H88 0.930 1_554 S
C98 C97 1.400 . S
C98 C101 1.386 . S
H99 C115 0.930 . S
H100 C116 0.931 . S
C101 H89 0.929 1_554 S
C101 C95 1.390 . S
C101 C98 1.386 . S
C102 C97 1.490 . S
C102 C104 1.395 . S
C102 C105 1.403 . S
H103 C109 0.930 . S
C104 H90 0.930 . S
C104 C102 1.395 . S
C104 C107 1.403 . S
C105 C102 1.403 . S
C105 C106 1.524 . S
C105 C109 1.400 . S
C106 H91 0.960 . S
C106 H92 0.960 . S
C106 H93 0.960 . S
C106 C105 1.524 . S
C107 C104 1.403 . S
C107 C108 1.392 . S
C107 C111 1.495 . S
C108 C107 1.392 . S
C108 C109 1.385 . S
C108 C110 1.478 . S
C109 H103 0.930 . S
C109 C105 1.400 . S
C109 C108 1.385 . S
C110 C108 1.478 . S
C110 C112 1.381 . S
C110 C116 1.383 . S
C111 C107 1.495 . S
C111 H117 0.959 . S
C111 H118 0.961 . S
C111 H119 0.960 . S
C112 C110 1.381 . S
C112 C113 1.394 . S
C112 H120 0.930 . S
C113 C112 1.394 . S
C113 C114 1.383 . S
C113 H121 0.929 . S
C114 C113 1.383 . S
C114 C115 1.377 . S
C115 H99 0.930 . S
C115 C114 1.377 . S
C115 C116 1.379 . S
C116 H100 0.931 . S
C116 C110 1.383 . S
C116 C115 1.379 . S
H117 C111 0.959 . S
H118 C111 0.961 . S
H119 C111 0.960 . S
H120 C112 0.930 . S
H121 C113 0.929 . S
H122 C130 0.929 . S
H123 C132 0.930 . S
H124 C134 0.930 . S
H125 C137 0.929 . S
H126 C140 0.930 . S
H127 C142 0.960 . S
H128 C142 0.960 . S
H129 C142 0.960 . S
C130 H122 0.929 . S
C130 C131 1.377 . S
C130 C132 1.384 . S
C131 C130 1.377 . S
C131 C137 1.390 1_556 S
C132 H123 0.930 . S
C132 C130 1.384 . S
C132 C133 1.372 . S
C133 C132 1.372 . S
C133 C134 1.400 1_556 S
C133 C138 1.490 . S
C134 H124 0.930 . S
C134 C133 1.400 1_554 S
C134 C137 1.386 . S
H135 C151 0.930 . S
H136 C152 0.931 . S
C137 H125 0.929 . S
C137 C131 1.390 1_554 S
C137 C134 1.386 . S
C138 C133 1.490 . S
C138 C140 1.395 . S
C138 C141 1.403 . S
H139 C145 0.930 . S
C140 H126 0.930 . S
C140 C138 1.395 . S
C140 C143 1.403 . S
C141 C138 1.403 . S
C141 C142 1.524 . S
C141 C145 1.400 . S
C142 H127 0.960 . S
C142 H128 0.960 . S
C142 H129 0.960 . S
C142 C141 1.524 . S
C143 C140 1.403 . S
C143 C144 1.392 . S
C143 C147 1.495 . S
C144 C143 1.392 . S
C144 C145 1.385 . S
C144 C146 1.478 . S
C145 H139 0.930 . S
C145 C141 1.400 . S
C145 C144 1.385 . S
C146 C144 1.478 . S
C146 C148 1.381 . S
C146 C152 1.383 . S
C147 C143 1.495 . S
C147 H153 0.959 . S
C147 H154 0.961 . S
C147 H155 0.960 . S
C148 C146 1.381 . S
C148 C149 1.394 . S
C148 H156 0.930 . S
C149 C148 1.394 . S
C149 C150 1.383 . S
C149 H157 0.929 . S
C150 C149 1.383 . S
C150 C151 1.377 . S
C151 H135 0.930 . S
C151 C150 1.377 . S
C151 C152 1.379 . S
C152 H136 0.931 . S
C152 C146 1.383 . S
C152 C151 1.379 . S
H153 C147 0.959 . S
H154 C147 0.961 . S
H155 C147 0.960 . S
H156 C148 0.930 . S
H157 C149 0.929 . S
H158 C166 0.929 1_556 S
H159 C168 0.930 1_556 S
H160 C170 0.930 . S
H161 C173 0.929 . S
H162 C176 0.930 . S
H163 C178 0.960 . S
H164 C178 0.960 . S
H165 C178 0.960 . S
C166 H158 0.929 1_554 S
C166 C167 1.377 . S
C166 C168 1.384 . S
C167 C166 1.377 . S
C167 C173 1.390 . S
C168 H159 0.930 1_554 S
C168 C166 1.384 . S
C168 C169 1.372 . S
C169 C168 1.372 . S
C169 C170 1.400 . S
C169 C174 1.490 . S
C170 H160 0.930 . S
C170 C169 1.400 . S
C170 C173 1.386 . S
H171 C187 0.930 . S
H172 C188 0.931 . S
C173 H161 0.929 . S
C173 C167 1.390 . S
C173 C170 1.386 . S
C174 C169 1.490 . S
C174 C176 1.395 . S
C174 C177 1.403 . S
H175 C181 0.930 . S
C176 H162 0.930 . S
C176 C174 1.395 . S
C176 C179 1.403 . S
C177 C174 1.403 . S
C177 C178 1.524 . S
C177 C181 1.400 . S
C178 H163 0.960 . S
C178 H164 0.960 . S
C178 H165 0.960 . S
C178 C177 1.524 . S
C179 C176 1.403 . S
C179 C180 1.392 . S
C179 C183 1.495 . S
C180 C179 1.392 . S
C180 C181 1.385 . S
C180 C182 1.478 . S
C181 H175 0.930 . S
C181 C177 1.400 . S
C181 C180 1.385 . S
C182 C180 1.478 . S
C182 C184 1.381 . S
C182 C188 1.383 . S
C183 C179 1.495 . S
C183 H189 0.959 . S
C183 H190 0.961 . S
C183 H191 0.960 . S
C184 C182 1.381 . S
C184 C185 1.394 . S
C184 H192 0.930 . S
C185 C184 1.394 . S
C185 C186 1.383 . S
C185 H193 0.929 . S
C186 C185 1.383 . S
C186 C187 1.377 . S
C187 H171 0.930 . S
C187 C186 1.377 . S
C187 C188 1.379 . S
C188 H172 0.931 . S
C188 C182 1.383 . S
C188 C187 1.379 . S
H189 C183 0.959 . S
H190 C183 0.961 . S
H191 C183 0.960 . S
H192 C184 0.930 . S
H193 C185 0.929 . S
H194 C202 0.929 . S
H195 C204 0.930 . S
H196 C206 0.930 . S
H197 C209 0.929 . S
H198 C212 0.930 . S
H199 C214 0.960 . S
H200 C214 0.960 . S
H201 C214 0.960 . S
C202 H194 0.929 . S
C202 C203 1.373 1_554 S
C202 C204 1.384 . S
C203 C202 1.373 1_556 S
C203 C209 1.398 . S
C204 H195 0.930 . S
C204 C202 1.384 . S
C204 C205 1.372 1_554 S
C205 C204 1.372 1_556 S
C205 C206 1.400 . S
C205 C210 1.490 . S
C206 H196 0.930 . S
C206 C205 1.400 . S
C206 C209 1.386 . S
H207 C223 0.930 . S
H208 C224 0.931 . S
C209 H197 0.929 . S
C209 C203 1.398 . S
C209 C206 1.386 . S
C210 C205 1.490 . S
C210 C212 1.395 1_556 S
C210 C213 1.403 . S
H211 C217 0.930 . S
C212 H198 0.930 . S
C212 C210 1.395 1_554 S
C212 C215 1.403 . S
C213 C210 1.403 . S
C213 C214 1.524 . S
C213 C217 1.400 . S
C214 H199 0.960 . S
C214 H200 0.960 . S
C214 H201 0.960 . S
C214 C213 1.524 . S
C215 C212 1.403 . S
C215 C216 1.392 1_554 S
C215 C219 1.495 . S
C216 C215 1.392 1_556 S
C216 C217 1.385 . S
C216 C218 1.478 . S
C217 H211 0.930 . S
C217 C213 1.400 . S
C217 C216 1.385 . S
C218 C216 1.478 . S
C218 C220 1.381 . S
C218 C224 1.383 . S
C219 C215 1.495 . S
C219 H225 0.959 . S
C219 H226 0.961 . S
C219 H227 0.960 . S
C220 C218 1.381 . S
C220 C221 1.394 . S
C220 H228 0.930 . S
C221 C220 1.394 . S
C221 C222 1.383 . S
C221 H229 0.929 . S
C222 C221 1.383 . S
C222 C223 1.377 . S
C223 H207 0.930 . S
C223 C222 1.377 . S
C223 C224 1.379 . S
C224 H208 0.931 . S
C224 C218 1.383 . S
C224 C223 1.379 . S
H225 C219 0.959 . S
H226 C219 0.961 . S
H227 C219 0.960 . S
H228 C220 0.930 . S
H229 C221 0.929 . S
H230 C238 0.929 . S
H231 C240 0.930 . S
H232 C242 0.930 . S
H233 C245 0.929 . S
H234 C248 0.930 . S
H235 C250 0.960 . S
H236 C250 0.960 . S
H237 C250 0.960 . S
C238 H230 0.929 . S
C238 C239 1.377 . S
C238 C240 1.384 . S
C239 C238 1.377 . S
C239 C245 1.390 . S
C240 H231 0.930 . S
C240 C238 1.384 . S
C240 C241 1.372 . S
C241 C240 1.372 . S
C241 C242 1.400 . S
C241 C246 1.490 . S
C242 H232 0.930 . S
C242 C241 1.400 . S
C242 C245 1.386 . S
H243 C259 0.930 . S
H244 C260 0.931 . S
C245 H233 0.929 . S
C245 C239 1.390 . S
C245 C242 1.386 . S
C246 C241 1.490 . S
C246 C248 1.395 . S
C246 C249 1.403 . S
H247 C253 0.930 . S
C248 H234 0.930 . S
C248 C246 1.395 . S
C248 C251 1.403 . S
C249 C246 1.403 . S
C249 C250 1.524 . S
C249 C253 1.400 . S
C250 H235 0.960 . S
C250 H236 0.960 . S
C250 H237 0.960 . S
C250 C249 1.524 . S
C251 C248 1.403 . S
C251 C252 1.392 . S
C251 C255 1.495 . S
C252 C251 1.392 . S
C252 C253 1.385 . S
C252 C254 1.478 . S
C253 H247 0.930 . S
C253 C249 1.400 . S
C253 C252 1.385 . S
C254 C252 1.478 . S
C254 C256 1.381 . S
C254 C260 1.383 . S
C255 C251 1.495 . S
C255 H261 0.959 . S
C255 H262 0.961 . S
C255 H263 0.960 . S
C256 C254 1.381 . S
C256 C257 1.394 . S
C256 H264 0.930 . S
C257 C256 1.394 . S
C257 C258 1.383 . S
C257 H265 0.929 . S
C258 C257 1.383 . S
C258 C259 1.377 . S
C259 H243 0.930 . S
C259 C258 1.377 . S
C259 C260 1.379 . S
C260 H244 0.931 . S
C260 C254 1.383 . S
C260 C259 1.379 . S
H261 C255 0.959 . S
H262 C255 0.961 . S
H263 C255 0.960 . S
H264 C256 0.930 . S
H265 C257 0.929 . S
H266 C274 0.929 . S
H267 C276 0.930 . S
H268 C278 0.930 . S
H269 C281 0.929 . S
H270 C284 0.930 . S
H271 C286 0.960 . S
H272 C286 0.960 . S
H273 C286 0.960 . S
C274 H266 0.929 . S
C274 C275 1.377 . S
C274 C276 1.384 . S
C275 C274 1.377 . S
C275 C281 1.390 . S
C276 H267 0.930 . S
C276 C274 1.384 . S
C276 C277 1.372 . S
C277 C276 1.372 . S
C277 C278 1.400 . S
C277 C282 1.490 . S
C278 H268 0.930 . S
C278 C277 1.400 . S
C278 C281 1.386 . S
H279 C295 0.930 . S
H280 C296 0.931 . S
C281 H269 0.929 . S
C281 C275 1.390 . S
C281 C278 1.386 . S
C282 C277 1.490 . S
C282 C284 1.395 . S
C282 C285 1.403 . S
H283 C289 0.930 . S
C284 H270 0.930 . S
C284 C282 1.395 . S
C284 C287 1.403 . S
C285 C282 1.403 . S
C285 C286 1.524 . S
C285 C289 1.400 . S
C286 H271 0.960 . S
C286 H272 0.960 . S
C286 H273 0.960 . S
C286 C285 1.524 . S
C287 C284 1.403 . S
C287 C288 1.392 . S
C287 C291 1.495 . S
C288 C287 1.392 . S
C288 C289 1.385 . S
C288 C290 1.478 . S
C289 H283 0.930 . S
C289 C285 1.400 . S
C289 C288 1.385 . S
C290 C288 1.478 . S
C290 C292 1.381 . S
C290 C296 1.383 . S
C291 C287 1.495 . S
C291 H297 0.959 . S
C291 H298 0.961 . S
C291 H299 0.960 . S
C292 C290 1.381 . S
C292 C293 1.394 . S
C292 H300 0.930 . S
C293 C292 1.394 . S
C293 C294 1.383 . S
C293 H301 0.929 . S
C294 C293 1.383 . S
C294 C295 1.377 . S
C295 H279 0.930 . S
C295 C294 1.377 . S
C295 C296 1.379 . S
C296 H280 0.931 . S
C296 C290 1.383 . S
C296 C295 1.379 . S
H297 C291 0.959 . S
H298 C291 0.961 . S
H299 C291 0.960 . S
H300 C292 0.930 . S
H301 C293 0.929 . S
H302 C310 0.929 . S
H303 C312 0.930 . S
H304 C314 0.930 . S
H305 C317 0.929 . S
H306 C320 0.930 . S
H307 C322 0.960 . S
H308 C322 0.960 . S
H309 C322 0.960 . S
C310 H302 0.929 . S
C310 C311 1.377 . S
C310 C312 1.384 . S
C311 C310 1.377 . S
C311 C317 1.390 . S
C312 H303 0.930 . S
C312 C310 1.384 . S
C312 C313 1.372 . S
C313 C312 1.372 . S
C313 C314 1.400 . S
C313 C318 1.490 . S
C314 H304 0.930 . S
C314 C313 1.400 . S
C314 C317 1.386 . S
H315 C331 0.930 . S
H316 C332 0.931 . S
C317 H305 0.929 . S
C317 C311 1.390 . S
C317 C314 1.386 . S
C318 C313 1.490 . S
C318 C320 1.395 . S
C318 C321 1.403 . S
H319 C325 0.930 . S
C320 H306 0.930 . S
C320 C318 1.395 . S
C320 C323 1.403 . S
C321 C318 1.403 . S
C321 C322 1.524 . S
C321 C325 1.400 . S
C322 H307 0.960 . S
C322 H308 0.960 . S
C322 H309 0.960 . S
C322 C321 1.524 . S
C323 C320 1.403 . S
C323 C324 1.392 . S
C323 C327 1.495 . S
C324 C323 1.392 . S
C324 C325 1.385 . S
C324 C326 1.478 . S
C325 H319 0.930 . S
C325 C321 1.400 . S
C325 C324 1.385 . S
C326 C324 1.478 . S
C326 C328 1.381 . S
C326 C332 1.383 . S
C327 C323 1.495 . S
C327 H333 0.959 . S
C327 H334 0.961 . S
C327 H335 0.960 . S
C328 C326 1.381 . S
C328 C329 1.394 . S
C328 H336 0.930 . S
C329 C328 1.394 . S
C329 C330 1.383 . S
C329 H337 0.929 . S
C330 C329 1.383 . S
C330 C331 1.377 . S
C331 H315 0.930 . S
C331 C330 1.377 . S
C331 C332 1.379 . S
C332 H316 0.931 . S
C332 C326 1.383 . S
C332 C331 1.379 . S
H333 C327 0.959 . S
H334 C327 0.961 . S
H335 C327 0.960 . S
H336 C328 0.930 . S
H337 C329 0.929 . S
H338 C346 0.929 . S
H339 C348 0.930 . S
H340 C350 0.930 . S
H341 C353 0.929 . S
H342 C356 0.930 . S
H343 C358 0.960 . S
H344 C358 0.960 . S
H345 C358 0.960 . S
C346 H338 0.929 . S
C346 C347 1.377 . S
C346 C348 1.384 . S
C347 C346 1.377 . S
C347 C353 1.390 . S
C348 H339 0.930 . S
C348 C346 1.384 . S
C348 C349 1.372 . S
C349 C348 1.372 . S
C349 C350 1.400 . S
C349 C354 1.490 . S
C350 H340 0.930 . S
C350 C349 1.400 . S
C350 C353 1.386 . S
H351 C367 0.930 . S
H352 C368 0.931 . S
C353 H341 0.929 . S
C353 C347 1.390 . S
C353 C350 1.386 . S
C354 C349 1.490 . S
C354 C356 1.395 . S
C354 C357 1.403 . S
H355 C361 0.930 . S
C356 H342 0.930 . S
C356 C354 1.395 . S
C356 C359 1.403 . S
C357 C354 1.403 . S
C357 C358 1.524 . S
C357 C361 1.400 . S
C358 H343 0.960 . S
C358 H344 0.960 . S
C358 H345 0.960 . S
C358 C357 1.524 . S
C359 C356 1.403 . S
C359 C360 1.392 . S
C359 C363 1.495 . S
C360 C359 1.392 . S
C360 C361 1.385 . S
C360 C362 1.478 . S
C361 H355 0.930 . S
C361 C357 1.400 . S
C361 C360 1.385 . S
C362 C360 1.478 . S
C362 C364 1.381 . S
C362 C368 1.383 . S
C363 C359 1.495 . S
C363 H369 0.959 . S
C363 H370 0.961 . S
C363 H371 0.960 . S
C364 C362 1.381 . S
C364 C365 1.394 . S
C364 H372 0.930 . S
C365 C364 1.394 . S
C365 C366 1.383 . S
C365 H373 0.929 . S
C366 C365 1.383 . S
C366 C367 1.377 . S
C367 H351 0.930 . S
C367 C366 1.377 . S
C367 C368 1.379 . S
C368 H352 0.931 . S
C368 C362 1.383 . S
C368 C367 1.379 . S
H369 C363 0.959 . S
H370 C363 0.961 . S
H371 C363 0.960 . S
H372 C364 0.930 . S
H373 C365 0.929 . S
H374 C382 0.929 . S
H375 C384 0.930 . S
H376 C386 0.930 . S
H377 C389 0.929 . S
H378 C392 0.930 . S
H379 C394 0.960 . S
H380 C394 0.960 . S
H381 C394 0.960 . S
C382 H374 0.929 . S
C382 C383 1.377 1_655 S
C382 C384 1.384 . S
C383 C382 1.377 1_455 S
C383 C389 1.390 1_565 S
C384 H375 0.930 . S
C384 C382 1.384 . S
C384 C385 1.372 1_665 S
C385 C384 1.372 1_445 S
C385 C386 1.400 . S
C385 C390 1.490 . S
C386 H376 0.930 . S
C386 C385 1.400 . S
C386 C389 1.386 . S
H387 C403 0.930 . S
H388 C404 0.931 . S
C389 H377 0.929 . S
C389 C383 1.390 1_545 S
C389 C386 1.386 . S
C390 C385 1.490 . S
C390 C392 1.395 1_545 S
C390 C393 1.403 . S
H391 C397 0.930 . S
C392 H378 0.930 . S
C392 C390 1.395 1_565 S
C392 C395 1.403 . S
C393 C390 1.403 . S
C393 C394 1.524 . S
C393 C397 1.400 . S
C394 H379 0.960 . S
C394 H380 0.960 . S
C394 H381 0.960 . S
C394 C393 1.524 . S
C395 C392 1.403 . S
C395 C396 1.392 1_565 S
C395 C399 1.495 . S
C396 C395 1.392 1_545 S
C396 C397 1.385 . S
C396 C398 1.478 . S
C397 H391 0.930 . S
C397 C393 1.400 . S
C397 C396 1.385 . S
C398 C396 1.478 . S
C398 C400 1.381 . S
C398 C404 1.383 . S
C399 C395 1.495 . S
C399 H405 0.959 . S
C399 H406 0.961 . S
C399 H407 0.960 1_455 S
C400 C398 1.381 . S
C400 C401 1.394 . S
C400 H408 0.930 1_455 S
C401 C400 1.394 . S
C401 C402 1.383 . S
C401 H409 0.929 1_455 S
C402 C401 1.383 . S
C402 C403 1.377 . S
C403 H387 0.930 . S
C403 C402 1.377 . S
C403 C404 1.379 . S
C404 H388 0.931 . S
C404 C398 1.383 . S
C404 C403 1.379 . S
H405 C399 0.959 . S
H406 C399 0.961 . S
H407 C399 0.960 1_655 S
H408 C400 0.930 1_655 S
H409 C401 0.929 1_655 S
H410 C418 0.929 . S
H411 C420 0.930 . S
H412 C422 0.930 . S
H413 C425 0.929 . S
H414 C428 0.930 . S
H415 C430 0.960 . S
H416 C430 0.960 . S
H417 C430 0.960 . S
C418 H410 0.929 . S
C418 C419 1.377 1_645 S
C418 C420 1.384 . S
C419 C418 1.377 1_465 S
C419 C425 1.390 . S
C420 H411 0.930 . S
C420 C418 1.384 . S
C420 C421 1.372 1_645 S
C421 C420 1.372 1_465 S
C421 C422 1.400 . S
C421 C426 1.492 . S
C422 H412 0.930 . S
C422 C421 1.400 . S
C422 C425 1.386 . S
H423 C439 0.930 . S
H424 C440 0.931 . S
C425 H413 0.929 . S
C425 C419 1.390 . S
C425 C422 1.386 . S
C426 C421 1.492 . S
C426 C428 1.387 1_565 S
C426 C429 1.408 1_455 S
H427 C433 0.930 . S
C428 H414 0.930 . S
C428 C426 1.387 1_545 S
C428 C431 1.403 . S
C429 C426 1.408 1_655 S
C429 C430 1.524 . S
C429 C433 1.400 . S
C430 H415 0.960 . S
C430 H416 0.960 . S
C430 H417 0.960 . S
C430 C429 1.524 . S
C431 C428 1.403 . S
C431 C432 1.392 . S
C431 C435 1.495 . S
C432 C431 1.392 . S
C432 C433 1.385 1_445 S
C432 C434 1.478 . S
C433 H427 0.930 . S
C433 C429 1.400 . S
C433 C432 1.385 1_665 S
C434 C432 1.478 . S
C434 C436 1.381 1_455 S
C434 C440 1.383 1_545 S
C435 C431 1.495 . S
C435 H441 0.959 . S
C435 H442 0.961 . S
C435 H443 0.960 . S
C436 C434 1.381 1_655 S
C436 C437 1.394 . S
C436 H444 0.930 . S
C437 C436 1.394 . S
C437 C438 1.383 1_655 S
C437 H445 0.929 . S
C438 C437 1.383 1_455 S
C438 C439 1.377 1_545 S
C439 H423 0.930 . S
C439 C438 1.377 1_565 S
C439 C440 1.379 . S
C440 H424 0.931 . S
C440 C434 1.383 1_565 S
C440 C439 1.379 . S
H441 C435 0.959 . S
H442 C435 0.961 . S
H443 C435 0.960 . S
H444 C436 0.930 . S
H445 C437 0.929 . S
H446 C454 0.929 . S
H447 C456 0.930 . S
H448 C458 0.930 . S
H449 C461 0.929 . S
H450 C464 0.930 . S
H451 C466 0.960 . S
H452 C466 0.960 . S
H453 C466 0.960 . S
C454 H446 0.929 . S
C454 C455 1.377 . S
C454 C456 1.384 . S
C455 C454 1.377 . S
C455 C461 1.390 . S
C456 H447 0.930 . S
C456 C454 1.384 . S
C456 C457 1.372 . S
C457 C456 1.372 . S
C457 C458 1.400 . S
C457 C462 1.490 . S
C458 H448 0.930 . S
C458 C457 1.400 . S
C458 C461 1.386 . S
H459 C475 0.930 . S
H460 C476 0.931 . S
C461 H449 0.929 . S
C461 C455 1.390 . S
C461 C458 1.386 . S
C462 C457 1.490 . S
C462 C464 1.395 . S
C462 C465 1.403 . S
H463 C469 0.930 . S
C464 H450 0.930 . S
C464 C462 1.395 . S
C464 C467 1.403 . S
C465 C462 1.403 . S
C465 C466 1.524 . S
C465 C469 1.400 . S
C466 H451 0.960 . S
C466 H452 0.960 . S
C466 H453 0.960 . S
C466 C465 1.524 . S
C467 C464 1.403 . S
C467 C468 1.392 . S
C467 C471 1.495 . S
C468 C467 1.392 . S
C468 C469 1.385 . S
C468 C470 1.478 . S
C469 H463 0.930 . S
C469 C465 1.400 . S
C469 C468 1.385 . S
C470 C468 1.478 . S
C470 C472 1.381 . S
C470 C476 1.383 . S
C471 C467 1.495 . S
C471 H477 0.959 . S
C471 H478 0.961 . S
C471 H479 0.960 . S
C472 C470 1.381 . S
C472 C473 1.394 . S
C472 H480 0.930 . S
C473 C472 1.394 . S
C473 C474 1.383 . S
C473 H481 0.929 . S
C474 C473 1.383 . S
C474 C475 1.377 . S
C475 H459 0.930 . S
C475 C474 1.377 . S
C475 C476 1.379 . S
C476 H460 0.931 . S
C476 C470 1.383 . S
C476 C475 1.379 . S
H477 C471 0.959 . S
H478 C471 0.961 . S
H479 C471 0.960 . S
H480 C472 0.930 . S
H481 C473 0.929 . S
H482 C490 0.929 . S
H483 C492 0.930 . S
H484 C494 0.930 . S
H485 C497 0.929 . S
H486 C500 0.930 . S
H487 C502 0.960 . S
H488 C502 0.960 . S
H489 C502 0.960 . S
C490 H482 0.929 . S
C490 C491 1.377 . S
C490 C492 1.384 . S
C491 C490 1.377 . S
C491 C497 1.390 . S
C492 H483 0.930 . S
C492 C490 1.384 . S
C492 C493 1.372 . S
C493 C492 1.372 . S
C493 C494 1.400 . S
C493 C498 1.490 . S
C494 H484 0.930 . S
C494 C493 1.400 . S
C494 C497 1.386 . S
H495 C511 0.930 . S
H496 C512 0.931 . S
C497 H485 0.929 . S
C497 C491 1.390 . S
C497 C494 1.386 . S
C498 C493 1.490 . S
C498 C500 1.395 . S
C498 C501 1.403 . S
H499 C505 0.930 . S
C500 H486 0.930 . S
C500 C498 1.395 . S
C500 C503 1.403 . S
C501 C498 1.403 . S
C501 C502 1.524 . S
C501 C505 1.400 . S
C502 H487 0.960 . S
C502 H488 0.960 . S
C502 H489 0.960 . S
C502 C501 1.524 . S
C503 C500 1.403 . S
C503 C504 1.392 . S
C503 C507 1.495 . S
C504 C503 1.392 . S
C504 C505 1.385 . S
C504 C506 1.478 . S
C505 H499 0.930 . S
C505 C501 1.400 . S
C505 C504 1.385 . S
C506 C504 1.478 . S
C506 C508 1.381 . S
C506 C512 1.383 . S
C507 C503 1.495 . S
C507 H513 0.959 . S
C507 H514 0.961 . S
C507 H515 0.960 . S
C508 C506 1.381 . S
C508 C509 1.394 . S
C508 H516 0.930 . S
C509 C508 1.394 . S
C509 C510 1.383 . S
C509 H517 0.929 . S
C510 C509 1.383 . S
C510 C511 1.377 . S
C511 H495 0.930 . S
C511 C510 1.377 . S
C511 C512 1.379 . S
C512 H496 0.931 . S
C512 C506 1.383 . S
C512 C511 1.379 . S
H513 C507 0.959 . S
H514 C507 0.961 . S
H515 C507 0.960 . S
H516 C508 0.930 . S
H517 C509 0.929 . S
C114 C80 1.018 . S
C95 C3 1.138 . S
C131 C4 1.565 1_556 S
C150 C69 1.443 . S
C167 C19 1.502 . S
C186 C83 1.569 . S
C203 C7 1.066 . S
C222 C72 1.200 . S
C239 C37 1.135 . S
C258 C58 1.023 . S
C275 C28 1.552 . S
C294 C47 1.509 1_655 S
C330 C61 1.572 . S
C311 C41 1.509 . S
C366 C50 1.164 . S
C347 C25 1.087 . S
C383 C20 1.309 . S
C402 C49 1.405 . S
C419 C16 1.356 . S
C438 C60 1.451 . S
C474 C71 1.408 . S
C455 C40 1.302 . S
C491 C24 1.361 . S
C510 C82 1.471 . S
