# Generated by pormake.
# Topology iac, (4,6)-cn, num edge types: 1
# Building blocks:
#     Node 0, Type 0, BuildingBlock: QUQFOY_clean_sbu_3, # of connection points: 4
#     Node 1, Type 0, BuildingBlock: QUQFOY_clean_sbu_3, # of connection points: 4
#     Node 2, Type 0, BuildingBlock: QUQFOY_clean_sbu_3, # of connection points: 4
#     Node 3, Type 0, BuildingBlock: QUQFOY_clean_sbu_3, # of connection points: 4
#     Node 4, Type 0, BuildingBlock: QUQFOY_clean_sbu_3, # of connection points: 4
#     Node 5, Type 0, BuildingBlock: QUQFOY_clean_sbu_3, # of connection points: 4
#     Node 6, Type 0, BuildingBlock: QUQFOY_clean_sbu_3, # of connection points: 4
#     Node 7, Type 0, BuildingBlock: QUQFOY_clean_sbu_3, # of connection points: 4
#     Node 8, Type 0, BuildingBlock: QUQFOY_clean_sbu_3, # of connection points: 4
#     Node 9, Type 0, BuildingBlock: QUQFOY_clean_sbu_3, # of connection points: 4
#     Node 10, Type 0, BuildingBlock: QUQFOY_clean_sbu_3, # of connection points: 4
#     Node 11, Type 0, BuildingBlock: QUQFOY_clean_sbu_3, # of connection points: 4
#     Node 12, Type 0, BuildingBlock: QUQFOY_clean_sbu_3, # of connection points: 4
#     Node 13, Type 0, BuildingBlock: QUQFOY_clean_sbu_3, # of connection points: 4
#     Node 14, Type 0, BuildingBlock: QUQFOY_clean_sbu_3, # of connection points: 4
#     Node 15, Type 0, BuildingBlock: QUQFOY_clean_sbu_3, # of connection points: 4
#     Node 16, Type 0, BuildingBlock: QUQFOY_clean_sbu_3, # of connection points: 4
#     Node 17, Type 0, BuildingBlock: QUQFOY_clean_sbu_3, # of connection points: 4
#     Node 18, Type 0, BuildingBlock: QUQFOY_clean_sbu_3, # of connection points: 4
#     Node 19, Type 0, BuildingBlock: QUQFOY_clean_sbu_3, # of connection points: 4
#     Node 20, Type 0, BuildingBlock: QUQFOY_clean_sbu_3, # of connection points: 4
#     Node 21, Type 0, BuildingBlock: QUQFOY_clean_sbu_3, # of connection points: 4
#     Node 22, Type 0, BuildingBlock: QUQFOY_clean_sbu_3, # of connection points: 4
#     Node 23, Type 0, BuildingBlock: QUQFOY_clean_sbu_3, # of connection points: 4
#     Node 24, Type 1, BuildingBlock: JUFBIX_clean_sbu_0, # of connection points: 6
#     Node 25, Type 1, BuildingBlock: JUFBIX_clean_sbu_0, # of connection points: 6
#     Node 26, Type 1, BuildingBlock: JUFBIX_clean_sbu_0, # of connection points: 6
#     Node 27, Type 1, BuildingBlock: JUFBIX_clean_sbu_0, # of connection points: 6
#     Node 28, Type 1, BuildingBlock: JUFBIX_clean_sbu_0, # of connection points: 6
#     Node 29, Type 1, BuildingBlock: JUFBIX_clean_sbu_0, # of connection points: 6
#     Node 30, Type 1, BuildingBlock: JUFBIX_clean_sbu_0, # of connection points: 6
#     Node 31, Type 1, BuildingBlock: JUFBIX_clean_sbu_0, # of connection points: 6
#     Node 32, Type 1, BuildingBlock: JUFBIX_clean_sbu_0, # of connection points: 6
#     Node 33, Type 1, BuildingBlock: JUFBIX_clean_sbu_0, # of connection points: 6
#     Node 34, Type 1, BuildingBlock: JUFBIX_clean_sbu_0, # of connection points: 6
#     Node 35, Type 1, BuildingBlock: JUFBIX_clean_sbu_0, # of connection points: 6
#     Node 36, Type 1, BuildingBlock: JUFBIX_clean_sbu_0, # of connection points: 6
#     Node 37, Type 1, BuildingBlock: JUFBIX_clean_sbu_0, # of connection points: 6
#     Node 38, Type 1, BuildingBlock: JUFBIX_clean_sbu_0, # of connection points: 6
#     Node 39, Type 1, BuildingBlock: JUFBIX_clean_sbu_0, # of connection points: 6
#     Edge 40, Type (0, 1), BuildingBlock: ZUJKAS_clean_linker_0, # of connection points: 2
#     Edge 41, Type (0, 1), BuildingBlock: ZUJKAS_clean_linker_0, # of connection points: 2
#     Edge 42, Type (0, 1), BuildingBlock: ZUJKAS_clean_linker_0, # of connection points: 2
#     Edge 43, Type (0, 1), BuildingBlock: ZUJKAS_clean_linker_0, # of connection points: 2
#     Edge 44, Type (0, 1), BuildingBlock: ZUJKAS_clean_linker_0, # of connection points: 2
#     Edge 45, Type (0, 1), BuildingBlock: ZUJKAS_clean_linker_0, # of connection points: 2
#     Edge 46, Type (0, 1), BuildingBlock: ZUJKAS_clean_linker_0, # of connection points: 2
#     Edge 47, Type (0, 1), BuildingBlock: ZUJKAS_clean_linker_0, # of connection points: 2
#     Edge 48, Type (0, 1), BuildingBlock: ZUJKAS_clean_linker_0, # of connection points: 2
#     Edge 49, Type (0, 1), BuildingBlock: ZUJKAS_clean_linker_0, # of connection points: 2
#     Edge 50, Type (0, 1), BuildingBlock: ZUJKAS_clean_linker_0, # of connection points: 2
#     Edge 51, Type (0, 1), BuildingBlock: ZUJKAS_clean_linker_0, # of connection points: 2
#     Edge 52, Type (0, 1), BuildingBlock: ZUJKAS_clean_linker_0, # of connection points: 2
#     Edge 53, Type (0, 1), BuildingBlock: ZUJKAS_clean_linker_0, # of connection points: 2
#     Edge 54, Type (0, 1), BuildingBlock: ZUJKAS_clean_linker_0, # of connection points: 2
#     Edge 55, Type (0, 1), BuildingBlock: ZUJKAS_clean_linker_0, # of connection points: 2
#     Edge 56, Type (0, 1), BuildingBlock: ZUJKAS_clean_linker_0, # of connection points: 2
#     Edge 57, Type (0, 1), BuildingBlock: ZUJKAS_clean_linker_0, # of connection points: 2
#     Edge 58, Type (0, 1), BuildingBlock: ZUJKAS_clean_linker_0, # of connection points: 2
#     Edge 59, Type (0, 1), BuildingBlock: ZUJKAS_clean_linker_0, # of connection points: 2
#     Edge 60, Type (0, 1), BuildingBlock: ZUJKAS_clean_linker_0, # of connection points: 2
#     Edge 61, Type (0, 1), BuildingBlock: ZUJKAS_clean_linker_0, # of connection points: 2
#     Edge 62, Type (0, 1), BuildingBlock: ZUJKAS_clean_linker_0, # of connection points: 2
#     Edge 63, Type (0, 1), BuildingBlock: ZUJKAS_clean_linker_0, # of connection points: 2
#     Edge 64, Type (0, 1), BuildingBlock: ZUJKAS_clean_linker_0, # of connection points: 2
#     Edge 65, Type (0, 1), BuildingBlock: ZUJKAS_clean_linker_0, # of connection points: 2
#     Edge 66, Type (0, 1), BuildingBlock: ZUJKAS_clean_linker_0, # of connection points: 2
#     Edge 67, Type (0, 1), BuildingBlock: ZUJKAS_clean_linker_0, # of connection points: 2
#     Edge 68, Type (0, 1), BuildingBlock: ZUJKAS_clean_linker_0, # of connection points: 2
#     Edge 69, Type (0, 1), BuildingBlock: ZUJKAS_clean_linker_0, # of connection points: 2
#     Edge 70, Type (0, 1), BuildingBlock: ZUJKAS_clean_linker_0, # of connection points: 2
#     Edge 71, Type (0, 1), BuildingBlock: ZUJKAS_clean_linker_0, # of connection points: 2
#     Edge 72, Type (0, 1), BuildingBlock: ZUJKAS_clean_linker_0, # of connection points: 2
#     Edge 73, Type (0, 1), BuildingBlock: ZUJKAS_clean_linker_0, # of connection points: 2
#     Edge 74, Type (0, 1), BuildingBlock: ZUJKAS_clean_linker_0, # of connection points: 2
#     Edge 75, Type (0, 1), BuildingBlock: ZUJKAS_clean_linker_0, # of connection points: 2
#     Edge 76, Type (0, 1), BuildingBlock: ZUJKAS_clean_linker_0, # of connection points: 2
#     Edge 77, Type (0, 1), BuildingBlock: ZUJKAS_clean_linker_0, # of connection points: 2
#     Edge 78, Type (0, 1), BuildingBlock: ZUJKAS_clean_linker_0, # of connection points: 2
#     Edge 79, Type (0, 1), BuildingBlock: ZUJKAS_clean_linker_0, # of connection points: 2
#     Edge 80, Type (0, 1), BuildingBlock: ZUJKAS_clean_linker_0, # of connection points: 2
#     Edge 81, Type (0, 1), BuildingBlock: ZUJKAS_clean_linker_0, # of connection points: 2
#     Edge 82, Type (0, 1), BuildingBlock: ZUJKAS_clean_linker_0, # of connection points: 2
#     Edge 83, Type (0, 1), BuildingBlock: ZUJKAS_clean_linker_0, # of connection points: 2
#     Edge 84, Type (0, 1), BuildingBlock: ZUJKAS_clean_linker_0, # of connection points: 2
#     Edge 85, Type (0, 1), BuildingBlock: ZUJKAS_clean_linker_0, # of connection points: 2
#     Edge 86, Type (0, 1), BuildingBlock: ZUJKAS_clean_linker_0, # of connection points: 2
#     Edge 87, Type (0, 1), BuildingBlock: ZUJKAS_clean_linker_0, # of connection points: 2
#     Edge 88, Type (0, 1), BuildingBlock: ZUJKAS_clean_linker_0, # of connection points: 2
#     Edge 89, Type (0, 1), BuildingBlock: ZUJKAS_clean_linker_0, # of connection points: 2
#     Edge 90, Type (0, 1), BuildingBlock: ZUJKAS_clean_linker_0, # of connection points: 2
#     Edge 91, Type (0, 1), BuildingBlock: ZUJKAS_clean_linker_0, # of connection points: 2
#     Edge 92, Type (0, 1), BuildingBlock: ZUJKAS_clean_linker_0, # of connection points: 2
#     Edge 93, Type (0, 1), BuildingBlock: ZUJKAS_clean_linker_0, # of connection points: 2
#     Edge 94, Type (0, 1), BuildingBlock: ZUJKAS_clean_linker_0, # of connection points: 2
#     Edge 95, Type (0, 1), BuildingBlock: ZUJKAS_clean_linker_0, # of connection points: 2
#     Edge 96, Type (0, 1), BuildingBlock: ZUJKAS_clean_linker_0, # of connection points: 2
#     Edge 97, Type (0, 1), BuildingBlock: ZUJKAS_clean_linker_0, # of connection points: 2
#     Edge 98, Type (0, 1), BuildingBlock: ZUJKAS_clean_linker_0, # of connection points: 2
#     Edge 99, Type (0, 1), BuildingBlock: ZUJKAS_clean_linker_0, # of connection points: 2
#     Edge 100, Type (0, 1), BuildingBlock: ZUJKAS_clean_linker_0, # of connection points: 2
#     Edge 101, Type (0, 1), BuildingBlock: ZUJKAS_clean_linker_0, # of connection points: 2
#     Edge 102, Type (0, 1), BuildingBlock: ZUJKAS_clean_linker_0, # of connection points: 2
#     Edge 103, Type (0, 1), BuildingBlock: ZUJKAS_clean_linker_0, # of connection points: 2
#     Edge 104, Type (0, 1), BuildingBlock: ZUJKAS_clean_linker_0, # of connection points: 2
#     Edge 105, Type (0, 1), BuildingBlock: ZUJKAS_clean_linker_0, # of connection points: 2
#     Edge 106, Type (0, 1), BuildingBlock: ZUJKAS_clean_linker_0, # of connection points: 2
#     Edge 107, Type (0, 1), BuildingBlock: ZUJKAS_clean_linker_0, # of connection points: 2
#     Edge 108, Type (0, 1), BuildingBlock: ZUJKAS_clean_linker_0, # of connection points: 2
#     Edge 109, Type (0, 1), BuildingBlock: ZUJKAS_clean_linker_0, # of connection points: 2
#     Edge 110, Type (0, 1), BuildingBlock: ZUJKAS_clean_linker_0, # of connection points: 2
#     Edge 111, Type (0, 1), BuildingBlock: ZUJKAS_clean_linker_0, # of connection points: 2
#     Edge 112, Type (0, 1), BuildingBlock: ZUJKAS_clean_linker_0, # of connection points: 2
#     Edge 113, Type (0, 1), BuildingBlock: ZUJKAS_clean_linker_0, # of connection points: 2
#     Edge 114, Type (0, 1), BuildingBlock: ZUJKAS_clean_linker_0, # of connection points: 2
#     Edge 115, Type (0, 1), BuildingBlock: ZUJKAS_clean_linker_0, # of connection points: 2
#     Edge 116, Type (0, 1), BuildingBlock: ZUJKAS_clean_linker_0, # of connection points: 2
#     Edge 117, Type (0, 1), BuildingBlock: ZUJKAS_clean_linker_0, # of connection points: 2
#     Edge 118, Type (0, 1), BuildingBlock: ZUJKAS_clean_linker_0, # of connection points: 2
#     Edge 119, Type (0, 1), BuildingBlock: ZUJKAS_clean_linker_0, # of connection points: 2
#     Edge 120, Type (0, 1), BuildingBlock: ZUJKAS_clean_linker_0, # of connection points: 2
#     Edge 121, Type (0, 1), BuildingBlock: ZUJKAS_clean_linker_0, # of connection points: 2
#     Edge 122, Type (0, 1), BuildingBlock: ZUJKAS_clean_linker_0, # of connection points: 2
#     Edge 123, Type (0, 1), BuildingBlock: ZUJKAS_clean_linker_0, # of connection points: 2
#     Edge 124, Type (0, 1), BuildingBlock: ZUJKAS_clean_linker_0, # of connection points: 2
#     Edge 125, Type (0, 1), BuildingBlock: ZUJKAS_clean_linker_0, # of connection points: 2
#     Edge 126, Type (0, 1), BuildingBlock: ZUJKAS_clean_linker_0, # of connection points: 2
#     Edge 127, Type (0, 1), BuildingBlock: ZUJKAS_clean_linker_0, # of connection points: 2
#     Edge 128, Type (0, 1), BuildingBlock: ZUJKAS_clean_linker_0, # of connection points: 2
#     Edge 129, Type (0, 1), BuildingBlock: ZUJKAS_clean_linker_0, # of connection points: 2
#     Edge 130, Type (0, 1), BuildingBlock: ZUJKAS_clean_linker_0, # of connection points: 2
#     Edge 131, Type (0, 1), BuildingBlock: ZUJKAS_clean_linker_0, # of connection points: 2
#     Edge 132, Type (0, 1), BuildingBlock: ZUJKAS_clean_linker_0, # of connection points: 2
#     Edge 133, Type (0, 1), BuildingBlock: ZUJKAS_clean_linker_0, # of connection points: 2
#     Edge 134, Type (0, 1), BuildingBlock: ZUJKAS_clean_linker_0, # of connection points: 2
#     Edge 135, Type (0, 1), BuildingBlock: ZUJKAS_clean_linker_0, # of connection points: 2
# Relax obj value: 0.213
# Max RMSD: 0.226
# Mean RMSD: 0.110
data_MOF--net-iac--node1-QUQFOY_clean_sbu_3--node2-JUFBIX_clean_sbu_0--edge1-ZUJKAS_clean_linker_0
_symmetry_space_group_name_H-M    P1
_symmetry_Int_Tables_number       1
_symmetry_cell_setting            triclinic
loop_
_symmetry_equiv_pos_as_xyz
'x, y, z'
_cell_length_a     70.665979
_cell_length_b     73.346537
_cell_length_c     71.889858
_cell_angle_alpha  90.505771
_cell_angle_beta   88.850442
_cell_angle_gamma 89.751706
loop_
_atom_site_label
_atom_site_type_symbol
_atom_site_fract_x
_atom_site_fract_y
_atom_site_fract_z
_atom_type_partial_charge
C0 C 0.98359 0.26135 0.16407 0.0
O1 O -0.0052 0.25124 0.17298 0.0
Cd2 Cd 0.02654 0.24468 0.16362 0.0
O3 O 0.98921 0.26908 0.14907 0.0
Cd4 Cd 0.0197 0.27119 0.12971 0.0
C5 C 0.0189 0.22473 0.12067 0.0
O6 O 0.04004 0.27368 0.15685 0.0
O7 O 0.05518 0.26909 0.13103 0.0
O8 O 0.01082 0.30363 0.12727 0.0
C9 C 0.05583 0.27264 0.1483 0.0
O10 O 0.02399 0.22344 0.1375 0.0
C11 C 0.01423 0.30543 0.11 0.0
O12 O 0.01536 0.24042 0.11383 0.0
O13 O 0.01991 0.29113 0.10137 0.0
C14 C 0.01108 0.76509 0.36537 0.0
O15 O 0.0238 0.77625 0.36026 0.0
Cd16 Cd 0.05216 0.78098 0.37695 0.0
O17 O 0.01327 0.75521 0.37967 0.0
Cd18 Cd 0.03741 0.7494 0.40336 0.0
C19 C 0.03189 0.79223 0.41952 0.0
O20 O 0.06404 0.75103 0.38222 0.0
O21 O 0.07124 0.75134 0.4112 0.0
O22 O 0.02989 0.7173 0.40021 0.0
C23 C 0.07675 0.75047 0.39433 0.0
O24 O 0.0416 0.79699 0.40527 0.0
C25 C 0.02903 0.71427 0.41755 0.0
O26 O 0.02732 0.77564 0.42191 0.0
O27 O 0.03137 0.72783 0.42837 0.0
C28 C 0.48471 0.75957 0.66502 0.0
O29 O 0.49602 0.74957 0.67391 0.0
Cd30 Cd 0.5279 0.74358 0.66475 0.0
O31 O 0.49024 0.7674 0.65004 0.0
Cd32 Cd 0.52064 0.76964 0.63055 0.0
C33 C 0.52048 0.72313 0.622 0.0
O34 O 0.54082 0.77281 0.65777 0.0
O35 O 0.55615 0.76798 0.63218 0.0
O36 O 0.5096 0.80144 0.62705 0.0
C37 C 0.55669 0.77173 0.64941 0.0
O38 O 0.52575 0.72213 0.6388 0.0
C39 C 0.51492 0.80355 0.61026 0.0
O40 O 0.51654 0.73866 0.61501 0.0
O41 O 0.52259 0.78972 0.60235 0.0
C42 C 0.51049 0.26201 0.86298 0.0
O43 O 0.52242 0.27388 0.85771 0.0
Cd44 Cd 0.55054 0.28124 0.87386 0.0
O45 O 0.51334 0.25249 0.87742 0.0
Cd46 Cd 0.53804 0.24873 0.90117 0.0
C47 C 0.5299 0.29153 0.91656 0.0
O48 O 0.56465 0.25267 0.88042 0.0
O49 O 0.57147 0.25362 0.90943 0.0
O50 O 0.53372 0.21598 0.89908 0.0
C51 C 0.57723 0.25376 0.89262 0.0
O52 O 0.53923 0.29669 0.90222 0.0
C53 C 0.53231 0.21362 0.91652 0.0
O54 O 0.52627 0.27475 0.91914 0.0
O55 O 0.53298 0.22775 0.92682 0.0
C56 C 0.11267 -0.00342 0.29886 0.0
O57 O 0.10242 0.00187 0.28561 0.0
Cd58 Cd 0.11329 0.00439 0.25414 0.0
O59 O 0.12986 -0.00813 0.29589 0.0
Cd60 Cd 0.1527 0.98875 0.26952 0.0
C61 C 0.14989 0.03401 0.2612 0.0
O62 O 0.12986 0.97624 0.24889 0.0
O63 O 0.15637 0.98296 0.23563 0.0
O64 O 0.16534 0.96294 0.28616 0.0
C65 C 0.14003 0.97611 0.23424 0.0
O66 O 0.13372 0.03138 0.25415 0.0
C67 C 0.18259 0.96686 0.28297 0.0
O68 O 0.15899 0.02096 0.26842 0.0
O69 O 0.18593 0.98123 0.27377 0.0
C70 C 0.25681 0.92284 0.51523 0.0
O71 O 0.24376 0.9265 0.50394 0.0
Cd72 Cd 0.21494 0.9097 0.50259 0.0
O73 O 0.25484 0.90995 0.52687 0.0
Cd74 Cd 0.23035 0.88726 0.53521 0.0
C75 C 0.23413 0.86819 0.49237 0.0
O76 O 0.20406 0.90822 0.5345 0.0
O77 O 0.19635 0.8799 0.53691 0.0
O78 O 0.23964 0.8895 0.56765 0.0
C79 C 0.19138 0.89651 0.53785 0.0
O80 O 0.22403 0.88126 0.48648 0.0
C81 C 0.24061 0.87236 0.56988 0.0
O82 O 0.23896 0.86775 0.50926 0.0
O83 O 0.23746 0.86237 0.55579 0.0
C84 C 0.42493 0.02198 0.76054 0.0
O85 O 0.43125 0.01638 0.74484 0.0
Cd86 Cd 0.4124 0.01776 0.71779 0.0
O87 O 0.40856 0.02925 0.76214 0.0
Cd88 Cd 0.38191 0.03849 0.74261 0.0
C89 C 0.37283 -0.00535 0.73259 0.0
O90 O 0.40196 0.04911 0.71796 0.0
O91 O 0.37248 0.04727 0.71103 0.0
O92 O 0.37929 0.06571 0.76174 0.0
C93 C 0.38897 0.0527 0.70671 0.0
O94 O 0.38792 -0.00565 0.72259 0.0
C95 C 0.3614 0.06506 0.76355 0.0
O96 O 0.36789 0.00891 0.74159 0.0
O97 O 0.35318 0.05148 0.75629 0.0
C98 C 0.28871 0.10933 0.01904 0.0
O99 O 0.27799 0.10054 0.03011 0.0
Cd100 Cd 0.24631 0.10873 0.0385 0.0
O101 O 0.28278 0.12389 0.01138 0.0
Cd102 Cd 0.25242 0.14244 0.0114 0.0
C103 C 0.25391 0.15084 0.05856 0.0
O104 O 0.23194 0.11573 0.00962 0.0
O105 O 0.21717 0.14096 0.01493 0.0
O106 O 0.25863 0.14711 0.97798 0.0
C107 C 0.21627 0.12401 0.0114 0.0
O108 O 0.24888 0.13428 0.06027 0.0
C109 C 0.25642 0.16428 0.97809 0.0
O110 O 0.25723 0.15744 0.04243 0.0
O111 O 0.25257 0.17161 -0.00618 0.0
C112 C 0.75985 0.42007 0.01581 0.0
O113 O 0.74597 0.42682 0.00725 0.0
Cd114 Cd 0.7175 0.41007 0.0027 0.0
O115 O 0.75837 0.40469 0.0238 0.0
Cd116 Cd 0.73368 0.38141 0.02951 0.0
C117 C 0.73731 0.37111 0.98414 0.0
O118 O 0.70637 0.40107 0.03307 0.0
O119 O 0.70037 0.37256 0.02794 0.0
O120 O 0.74233 0.37894 0.06186 0.0
C121 C 0.69448 0.38821 0.03292 0.0
O122 O 0.72762 0.38545 0.98123 0.0
C123 C 0.74369 0.36167 0.06154 0.0
O124 O 0.74191 0.36686 0.00052 0.0
O125 O 0.74129 0.35372 0.04602 0.0
C126 C 0.93951 0.52475 0.26385 0.0
O127 O 0.94501 0.5178 0.24843 0.0
Cd128 Cd 0.92525 0.51771 0.2216 0.0
O129 O 0.92347 0.53266 0.26538 0.0
Cd130 Cd 0.89634 0.54074 0.24633 0.0
C131 C 0.88586 0.49655 0.23956 0.0
O132 O 0.91371 0.54833 0.21816 0.0
O133 O 0.88343 0.54585 0.21564 0.0
O134 O 0.89465 0.57036 0.26145 0.0
C135 C 0.89918 0.55021 0.20827 0.0
O136 O 0.89995 0.49575 0.22824 0.0
C137 C 0.87705 0.56949 0.26524 0.0
O138 O 0.88215 0.51108 0.24871 0.0
O139 O 0.86871 0.55474 0.26112 0.0
C140 C 0.789 0.60866 0.52072 0.0
O141 O 0.77781 0.59999 0.53144 0.0
Cd142 Cd 0.74646 0.60896 0.54001 0.0
O143 O 0.78373 0.62354 0.5132 0.0
Cd144 Cd 0.75359 0.64256 0.51227 0.0
C145 C 0.75447 0.65142 0.55947 0.0
O146 O 0.7332 0.61588 0.51073 0.0
O147 O 0.718 0.64111 0.51376 0.0
O148 O 0.76128 0.64695 0.47903 0.0
C149 C 0.71739 0.62396 0.51145 0.0
O150 O 0.74953 0.63485 0.56131 0.0
C151 C 0.75865 0.66407 0.47884 0.0
O152 O 0.75774 0.6579 0.54327 0.0
O153 O 0.75399 0.67149 0.49433 0.0
C154 C 0.61152 0.49318 0.79429 0.0
O155 O 0.60255 0.50017 0.78096 0.0
Cd156 Cd 0.61526 0.50572 0.75062 0.0
O157 O 0.62879 0.4883 0.79219 0.0
Cd158 Cd 0.6531 0.48769 0.76673 0.0
C159 C 0.65171 0.53367 0.76265 0.0
O160 O 0.63119 0.47765 0.74374 0.0
O161 O 0.65881 0.48411 0.73275 0.0
O162 O 0.66544 0.46013 0.78073 0.0
C163 C 0.64239 0.47799 0.72985 0.0
O164 O 0.63608 0.53208 0.75428 0.0
C165 C 0.68271 0.46427 0.77807 0.0
O166 O 0.65999 0.51979 0.76922 0.0
O167 O 0.68614 0.47969 0.77091 0.0
C168 C 0.98039 0.7729 0.86127 0.0
O169 O 0.99227 0.78247 0.85222 0.0
Cd170 Cd 0.02342 0.78968 0.86196 0.0
O171 O 0.98498 0.76566 0.8767 0.0
Cd172 Cd 0.01474 0.76331 0.89632 0.0
C173 C 0.01489 0.80986 0.90509 0.0
O174 O 0.03747 0.76131 0.86997 0.0
O175 O 0.05004 0.76491 0.89669 0.0
O176 O 0.00838 0.73035 0.89868 0.0
C177 C 0.05241 0.76228 0.87933 0.0
O178 O 0.0199 0.81096 0.88803 0.0
C179 C 0.0093 0.72909 0.91622 0.0
O180 O 0.01124 0.79428 0.91224 0.0
O181 O 0.01218 0.74394 0.92501 0.0
C182 C 0.97006 0.25024 0.64903 0.0
O183 O 0.98269 0.24323 0.65912 0.0
Cd184 Cd 0.01549 0.25112 0.658 0.0
O185 O 0.97422 0.26268 0.6374 0.0
Cd186 Cd 0.00161 0.28051 0.62615 0.0
C187 C 0.02441 0.2421 0.61133 0.0
O188 O 0.01497 0.28339 0.65627 0.0
O189 O 0.03269 0.2935 0.63408 0.0
O190 O 0.98123 0.30716 0.62588 0.0
C191 C 0.03039 0.29076 0.65137 0.0
O192 O 0.02686 0.23847 0.62842 0.0
C193 C 0.98482 0.31118 0.60905 0.0
O194 O 0.01493 0.25606 0.60657 0.0
O195 O -0.00394 0.30065 0.59999 0.0
C196 C 0.47895 0.27215 0.3611 0.0
O197 O 0.49051 0.28239 0.35245 0.0
Cd198 Cd 0.52203 0.28907 0.36132 0.0
O199 O 0.48396 0.26413 0.37599 0.0
Cd200 Cd 0.51397 0.26223 0.39535 0.0
C201 C 0.51456 0.30883 0.40464 0.0
O202 O 0.53634 0.26066 0.36878 0.0
O203 O 0.54924 0.26461 0.39532 0.0
O204 O 0.51098 0.22883 0.39757 0.0
C205 C 0.5514 0.26183 0.37795 0.0
O206 O 0.51928 0.31011 0.38752 0.0
C207 C 0.50979 0.22775 0.41515 0.0
O208 O 0.51096 0.29319 0.41166 0.0
O209 O 0.50995 0.24284 0.42403 0.0
C210 C 0.4832 0.76319 0.15535 0.0
O211 O 0.49695 0.75796 0.16513 0.0
Cd212 Cd 0.52949 0.76295 0.15703 0.0
O213 O 0.48609 0.77193 0.14034 0.0
Cd214 Cd 0.5117 0.78448 0.12069 0.0
C215 C 0.53038 0.74232 0.11351 0.0
O216 O 0.52998 0.79354 0.14642 0.0
O217 O 0.54453 0.7962 0.12008 0.0
O218 O 0.49204 0.81108 0.1171 0.0
C219 C 0.54495 0.79786 0.13765 0.0
O220 O 0.53538 0.7426 0.13045 0.0
C221 C 0.49231 0.81071 0.09945 0.0
O222 O 0.52084 0.75537 0.10672 0.0
O223 O 0.50174 0.79795 0.0915 0.0
C224 C 0.91823 0.03609 0.76664 0.0
O225 O 0.92801 0.0316 0.7523 0.0
Cd226 Cd 0.91495 0.02994 0.72193 0.0
O227 O 0.90089 0.04065 0.76529 0.0
Cd228 Cd 0.87626 0.04489 0.74189 0.0
C229 C 0.87906 -0.00019 0.73204 0.0
O230 O 0.897 0.05746 0.71876 0.0
O231 O 0.86955 0.05007 0.70877 0.0
O232 O 0.86651 0.07223 0.75821 0.0
C233 C 0.8856 0.05715 0.70543 0.0
O234 O 0.89483 0.00288 0.72376 0.0
C235 C 0.84923 0.06785 0.76021 0.0
O236 O 0.8699 0.01259 0.7403 0.0
O237 O 0.84435 0.05244 0.75372 0.0
C238 C 0.80926 0.11851 0.5088 0.0
O239 O 0.79884 0.10809 0.51859 0.0
Cd240 Cd 0.76535 0.11297 0.52321 0.0
O241 O 0.80247 0.13276 0.50146 0.0
Cd242 Cd 0.77292 0.14997 0.49896 0.0
C243 C 0.76471 0.15464 0.54546 0.0
O244 O 0.75442 0.12312 0.49381 0.0
O245 O 0.7385 0.14821 0.49513 0.0
O246 O 0.78438 0.15708 0.46809 0.0
C247 C 0.73847 0.131 0.49329 0.0
O248 O 0.76121 0.13763 0.54583 0.0
C249 C 0.78327 0.17426 0.47007 0.0
O250 O 0.77056 0.16224 0.53056 0.0
O251 O 0.77692 0.18031 0.4856 0.0
C252 C 0.60512 0.01438 0.30884 0.0
O253 O 0.59575 0.02557 0.29924 0.0
Cd254 Cd 0.60457 0.03161 0.26752 0.0
O255 O 0.61912 0.00573 0.30168 0.0
Cd256 Cd 0.63691 0.00134 0.27266 0.0
C257 C 0.65051 0.04521 0.27402 0.0
O258 O 0.60955 0.00216 0.25339 0.0
O259 O 0.63645 0.00192 0.23858 0.0
O260 O 0.63728 0.96971 0.28145 0.0
C261 C 0.61853 0.00156 0.23797 0.0
O262 O 0.63366 0.04933 0.2696 0.0
C263 C 0.65506 0.9677 0.27969 0.0
O264 O 0.65525 0.02874 0.2768 0.0
O265 O 0.66454 0.98144 0.27433 0.0
C266 C 0.78812 0.92085 0.00715 0.0
O267 O 0.7763 0.92825 -0.00355 0.0
Cd268 Cd 0.7442 0.9191 0.99204 0.0
O269 O 0.78347 0.90677 0.01655 0.0
Cd270 Cd 0.7543 0.88693 0.02001 0.0
C271 C 0.75088 0.87628 0.97338 0.0
O272 O 0.73136 0.9121 0.02194 0.0
O273 O 0.71912 0.88552 0.01883 0.0
O274 O 0.75835 0.88425 0.05382 0.0
C275 C 0.71654 0.90249 0.02134 0.0
O276 O 0.74442 0.8924 0.97177 0.0
C277 C 0.75972 0.86701 0.05435 0.0
O278 O 0.75726 0.87078 0.98891 0.0
O279 O 0.75915 0.8587 0.03877 0.0
C280 C 0.31168 0.6185 0.02382 0.0
O281 O 0.30137 0.60855 0.03421 0.0
Cd282 Cd 0.26781 0.61334 0.03814 0.0
O283 O 0.30441 0.63127 0.01445 0.0
Cd284 Cd 0.27386 0.64526 0.00754 0.0
C285 C 0.26623 0.6585 0.05216 0.0
O286 O 0.25559 0.61744 0.00776 0.0
O287 O 0.23954 0.64239 0.00587 0.0
O288 O 0.28438 0.64555 0.97535 0.0
C289 C 0.23957 0.62512 0.00663 0.0
O290 O 0.26354 0.6417 0.05567 0.0
C291 C 0.28264 0.66263 0.97332 0.0
O292 O 0.27138 0.66361 0.03594 0.0
O293 O 0.27659 0.6718 0.98732 0.0
C294 C 0.10806 0.51822 0.81658 0.0
O295 O 0.09738 0.52869 0.80745 0.0
Cd296 Cd 0.10119 0.5326 0.77443 0.0
O297 O 0.12089 0.50883 0.80834 0.0
Cd298 Cd 0.13424 0.50222 0.77751 0.0
C299 C 0.14779 0.54596 0.77312 0.0
O300 O 0.10461 0.50258 0.76138 0.0
O301 O 0.12991 0.50087 0.74406 0.0
O302 O 0.13623 0.47088 0.78723 0.0
C303 C 0.11198 0.5012 0.74521 0.0
O304 O 0.13043 0.54996 0.77085 0.0
C305 C 0.15387 0.4693 0.78389 0.0
O306 O 0.15286 0.52972 0.77667 0.0
O307 O 0.16239 0.4831 0.77729 0.0
C308 C 0.29061 0.41914 0.50714 0.0
O309 O 0.27904 0.4271 0.49658 0.0
Cd310 Cd 0.24675 0.41869 0.49187 0.0
O311 O 0.28555 0.40494 0.51613 0.0
Cd312 Cd 0.25589 0.38576 0.51933 0.0
C313 C 0.25259 0.37598 0.47253 0.0
O314 O 0.23392 0.41178 0.5218 0.0
O315 O 0.22073 0.38558 0.51906 0.0
O316 O 0.2632 0.38253 0.55249 0.0
C317 C 0.21879 0.40262 0.52157 0.0
O318 O 0.24646 0.39225 0.47118 0.0
C319 C 0.26145 0.36534 0.55327 0.0
O320 O 0.2588 0.3701 0.48797 0.0
O321 O 0.25766 0.35728 0.53806 0.0
C322 C 0.41612 0.53221 0.26894 0.0
O323 O 0.42757 0.52745 0.25592 0.0
Cd324 Cd 0.41933 0.52609 0.22387 0.0
O325 O 0.3992 0.53698 0.26547 0.0
Cd326 Cd 0.37772 0.54115 0.23921 0.0
C327 C 0.38232 0.49607 0.22872 0.0
O328 O 0.40213 0.5539 0.22006 0.0
O329 O 0.37594 0.54966 0.20608 0.0
O330 O 0.3649 0.56584 0.25805 0.0
C331 C 0.39287 0.55528 0.20529 0.0
O332 O 0.39907 0.49909 0.22265 0.0
C333 C 0.34768 0.56249 0.2547 0.0
O334 O 0.37221 0.50883 0.23584 0.0
O335 O 0.34433 0.54895 0.24415 0.0
Co336 Co 0.00263 0.02328 0.00131 0.0
C337 C -0.0002 0.04766 0.03196 0.0
Co338 Co 0.00747 0.01075 0.02843 0.0
C339 C 0.99086 0.02902 0.96366 0.0
C340 C 0.00572 0.05187 0.97487 0.0
N341 N -0.00065 0.03507 0.97913 0.0
N342 N 0.99167 0.04141 0.9499 0.0
C343 C 0.00098 0.05582 0.95692 0.0
H344 H 0.9842 0.01581 0.96255 0.0
H345 H 0.01359 0.06057 0.98413 0.0
C346 C 0.01054 0.98633 -0.00209 0.0
N347 N 0.01092 -0.00122 0.05057 0.0
C348 C 0.02432 0.00156 0.06336 0.0
C349 C 0.00164 0.98373 0.05627 0.0
N350 N 0.02393 0.98871 0.07667 0.0
C351 C 0.00956 0.97754 0.07232 0.0
C352 C 0.96983 0.00919 0.01692 0.0
O353 O 0.00709 0.00047 0.9884 0.0
O354 O 0.01167 0.98802 0.01547 0.0
O355 O 0.98106 0.00544 0.02994 0.0
O356 O 0.97622 0.01767 0.00279 0.0
O357 O 0.00337 0.0335 0.04141 0.0
H358 H 0.99031 0.97723 0.04885 0.0
H359 H 0.03477 0.01228 0.06239 0.0
O360 O -0.00176 0.04596 0.01442 0.0
O361 O 0.02894 0.02882 -0.00025 0.0
O362 O 0.03387 0.0163 0.02673 0.0
C363 C 0.04019 0.02494 0.01269 0.0
H364 H 0.00456 0.06813 0.94947 0.0
H365 H 0.00529 0.96554 0.07996 0.0
Co366 Co 0.29014 0.76849 0.29056 0.0
C367 C 0.27967 0.73399 0.27886 0.0
Co368 Co 0.27107 0.76853 0.26669 0.0
C369 C 0.30318 0.77962 0.32586 0.0
C370 C 0.31886 0.75636 0.31598 0.0
N371 N 0.30539 0.76839 0.31107 0.0
N372 N 0.31446 0.775 0.33993 0.0
C373 C 0.32432 0.76028 0.3339 0.0
H374 H 0.29244 0.79018 0.32684 0.0
H375 H 0.32365 0.74493 0.30749 0.0
C376 C 0.28111 0.80302 0.27847 0.0
N377 N 0.25571 0.76863 0.24627 0.0
C378 C 0.25814 0.75822 0.2309 0.0
C379 C 0.24054 0.77922 0.24284 0.0
N380 N 0.2452 0.76185 0.2179 0.0
C381 C 0.23407 0.77511 0.22533 0.0
C382 C 0.25193 0.76911 0.30025 0.0
O383 O 0.29023 0.7944 0.29064 0.0
O384 O 0.2719 0.79421 0.2664 0.0
O385 O 0.24958 0.76939 0.28279 0.0
O386 O 0.26858 0.76872 0.30649 0.0
O387 O 0.2702 0.7428 0.2671 0.0
H388 H 0.23476 0.78942 0.25234 0.0
H389 H 0.26963 0.74852 0.22909 0.0
O390 O 0.28977 0.74263 0.29036 0.0
O391 O 0.3116 0.76816 0.27464 0.0
O392 O 0.29275 0.76755 0.25077 0.0
C393 C 0.30937 0.76753 0.25716 0.0
H394 H 0.33416 0.75254 0.3421 0.0
H395 H 0.22216 0.7814 0.21861 0.0
Co396 Co 0.49233 0.0126 0.50648 0.0
C397 C 0.50574 0.04767 0.49876 0.0
Co398 Co 0.51816 0.01938 0.52151 0.0
C399 C 0.45471 -0.00027 0.50108 0.0
C400 C 0.46704 0.00996 0.47584 0.0
N401 N 0.47068 0.00702 0.49391 0.0
N402 N 0.44114 -0.00193 0.48826 0.0
C403 C 0.44885 0.00449 0.47232 0.0
H404 H 0.45293 -0.0038 0.51559 0.0
H405 H 0.47691 0.01588 0.46594 0.0
C406 C 0.50493 0.98431 0.5292 0.0
N407 N 0.53992 0.0251 0.53384 0.0
C408 C 0.55574 0.03176 0.52578 0.0
C409 C 0.54381 0.02395 0.55209 0.0
N410 N 0.56942 0.0348 0.53815 0.0
C411 C 0.562 0.03005 0.55481 0.0
C412 C 0.48544 0.02929 0.54044 0.0
O413 O 0.49221 0.98879 0.51777 0.0
O414 O 0.51763 -0.00409 0.53312 0.0
O415 O 0.50337 0.02947 0.5412 0.0
O416 O 0.47759 0.02206 0.5265 0.0
O417 O 0.51872 0.04286 0.50973 0.0
H418 H 0.53404 0.01908 0.56269 0.0
H419 H 0.55704 0.03469 0.51107 0.0
O420 O 0.49254 0.03644 0.49537 0.0
O421 O 0.50713 0.00324 0.48642 0.0
O422 O 0.53282 0.00937 0.50172 0.0
C423 C 0.52504 0.00305 0.48732 0.0
H424 H 0.44189 0.00515 0.45907 0.0
H425 H 0.56923 0.03079 0.56793 0.0
Co426 Co 0.27707 0.27452 0.76998 0.0
C427 C 0.2642 0.28014 0.73405 0.0
Co428 Co 0.24909 0.26259 0.76537 0.0
C429 C 0.31541 0.27569 0.78167 0.0
C430 C 0.30717 0.30074 0.76903 0.0
N431 N 0.30069 0.28411 0.77375 0.0
N432 N 0.33089 0.28634 0.78209 0.0
C433 C 0.32576 0.30217 0.7742 0.0
H434 H 0.31467 0.26203 0.78721 0.0
H435 H 0.29894 0.31108 0.76218 0.0
C436 C 0.26198 0.25685 0.8012 0.0
N437 N 0.22546 0.25308 0.76155 0.0
C438 C 0.21154 0.26118 0.75212 0.0
C439 C 0.21804 0.23721 0.76754 0.0
N440 N 0.1957 0.25107 0.75192 0.0
C441 C 0.19963 0.23597 0.76167 0.0
C442 C 0.27804 0.23861 0.75772 0.0
O443 O 0.27606 0.26603 0.79526 0.0
O444 O 0.24837 0.25388 0.7903 0.0
O445 O 0.2602 0.24049 0.75749 0.0
O446 O 0.2882 0.25207 0.76239 0.0
O447 O 0.24998 0.27135 0.74027 0.0
H448 H 0.22551 0.22724 0.77565 0.0
H449 H 0.21292 0.27447 0.74579 0.0
O450 O 0.27801 0.28292 0.74478 0.0
O451 O 0.2658 0.29683 0.77768 0.0
O452 O 0.23792 0.28469 0.77352 0.0
C453 C 0.2479 0.2982 0.77831 0.0
H454 H 0.33486 0.31383 0.77204 0.0
H455 H 0.19 0.22479 0.76418 0.0
Co456 Co -0.00136 0.00679 0.50658 0.0
C457 C 0.98999 0.02586 0.539 0.0
Co458 Co 0.01856 0.02897 0.51261 0.0
C459 C 0.9885 0.97095 0.49631 0.0
C460 C 0.96371 0.98601 0.50455 0.0
N461 N 0.98261 0.98756 0.50205 0.0
N462 N 0.97418 0.95899 0.49511 0.0
C463 C 0.95847 0.96833 0.50036 0.0
H464 H 0.00323 0.96751 0.49373 0.0
H465 H 0.95444 -0.00311 0.50944 0.0
C466 C 0.02712 0.01028 0.48 0.0
N467 N 0.035 0.0479 0.51699 0.0
C468 C 0.0304 0.06515 0.52186 0.0
C469 C 0.05399 0.04792 0.51467 0.0
N470 N 0.04572 0.07601 0.52251 0.0
C471 C 0.06063 0.06524 0.518 0.0
C472 C 0.02943 -0.00366 0.52754 0.0
O473 O 0.01274 0.00092 0.48456 0.0
O474 O 0.03198 0.02346 0.49035 0.0
O475 O 0.03446 0.01284 0.52568 0.0
O476 O 0.01411 0.99107 0.52041 0.0
O477 O 0.00502 0.03449 0.53485 0.0
H478 H 0.0624 0.03617 0.51045 0.0
H479 H 0.01598 0.06978 0.52427 0.0
O480 O 0.98463 0.01294 0.52848 0.0
O481 O 0.98324 0.02248 0.49288 0.0
O482 O 0.00237 0.045 0.49961 0.0
C483 C 0.98746 0.03926 0.49194 0.0
H484 H 0.94431 0.96279 0.50118 0.0
H485 H 0.07525 0.06955 0.51715 0.0
Co486 Co 0.27182 0.78109 0.77939 0.0
C487 C 0.23652 0.76626 0.78805 0.0
Co488 Co 0.2667 0.75497 0.76521 0.0
C489 C 0.28078 0.81863 0.78196 0.0
C490 C 0.27526 0.80785 0.80907 0.0
N491 N 0.27592 0.80323 0.79085 0.0
N492 N 0.28313 0.83269 0.79378 0.0
C493 C 0.27988 0.82604 0.81093 0.0
H494 H 0.28304 0.81944 0.76705 0.0
H495 H 0.27178 0.79859 0.82025 0.0
C496 C 0.3019 0.76982 0.75645 0.0
N497 N 0.26301 0.73303 0.75332 0.0
C498 C 0.25741 0.71721 0.76097 0.0
C499 C 0.26615 0.72914 0.73514 0.0
N500 N 0.25696 0.70357 0.7483 0.0
C501 C 0.26234 0.71102 0.73199 0.0
C502 C 0.25533 0.78453 0.7449 0.0
O503 O 0.29633 0.78247 0.7675 0.0
O504 O 0.29108 0.75634 0.75369 0.0
O505 O 0.25624 0.76726 0.74475 0.0
O506 O 0.26111 0.79322 0.75899 0.0
O507 O 0.24211 0.75367 0.77689 0.0
H508 H 0.27108 0.73883 0.72489 0.0
H509 H 0.25358 0.7158 0.77554 0.0
O510 O 0.24742 0.77967 0.79111 0.0
O511 O 0.28243 0.76884 0.79971 0.0
O512 O 0.27727 0.74274 0.78571 0.0
C513 C 0.28331 0.75156 0.79964 0.0
H514 H 0.28069 0.83377 0.82378 0.0
H515 H 0.26369 0.70384 0.71881 0.0
Co516 Co 0.50107 0.00113 0.99034 0.0
C517 C 0.53455 0.99082 0.0075 0.0
Co518 Co 0.50368 0.01189 0.01874 0.0
C519 C 0.49713 -0.00041 0.9506 0.0
C520 C 0.50083 0.97317 0.96245 0.0
N521 N 0.49928 0.99104 0.96693 0.0
N522 N 0.49724 0.98776 0.93616 0.0
C523 C 0.49944 0.9711 0.94353 0.0
H524 H 0.49544 0.0142 0.94933 0.0
H525 H 0.50312 0.96235 0.9723 0.0
C526 C 0.47031 0.02226 0.00167 0.0
N527 N 0.50582 0.02164 0.04222 0.0
C528 C 0.51407 0.01361 0.05673 0.0
C529 C 0.50137 0.03863 0.0482 0.0
N530 N 0.51535 0.02496 0.07149 0.0
C531 C 0.50722 0.04071 0.06625 0.0
C532 C 0.5181 0.03467 0.9913 0.0
O533 O 0.4771 0.01317 0.9879 0.0
O534 O 0.47963 0.0231 0.01659 0.0
O535 O 0.51524 0.03295 0.00869 0.0
O536 O 0.51336 0.02183 0.98042 0.0
O537 O 0.5279 0.00059 0.02077 0.0
H538 H 0.49502 0.04904 0.03974 0.0
H539 H 0.51948 -0.00022 0.05625 0.0
O540 O 0.52499 0.98917 -0.0072 0.0
O541 O 0.48866 0.98066 0.00036 0.0
O542 O 0.49197 0.99081 0.02881 0.0
C543 C 0.48616 0.9786 0.01771 0.0
H544 H 0.50038 0.95842 0.93574 0.0
H545 H 0.50642 0.05313 0.07448 0.0
Co546 Co 0.25874 0.25364 0.27022 0.0
C547 C 0.29708 0.26194 0.2739 0.0
Co548 Co 0.26726 0.27881 0.25619 0.0
C549 C 0.24033 0.21965 0.27596 0.0
C550 C 0.25678 0.22712 0.29948 0.0
N551 N 0.25176 0.23276 0.28247 0.0
N552 N 0.23797 0.20599 0.28817 0.0
C553 C 0.24836 0.21056 0.30301 0.0
H554 H 0.23417 0.21996 0.2623 0.0
H555 H 0.266 0.23453 0.30868 0.0
C556 C 0.22892 0.27047 0.25246 0.0
N557 N 0.27393 0.29954 0.24344 0.0
C558 C 0.28617 0.31279 0.24808 0.0
C559 C 0.26756 0.30423 0.22658 0.0
N560 N 0.28763 0.32559 0.23475 0.0
C561 C 0.27592 0.32023 0.22122 0.0
C562 C 0.26939 0.24773 0.2333 0.0
O563 O 0.23334 0.25668 0.26204 0.0
O564 O 0.24151 0.28235 0.249 0.0
O565 O 0.27182 0.26487 0.23392 0.0
O566 O 0.26428 0.23963 0.24811 0.0
O567 O 0.29292 0.27523 0.26346 0.0
H568 H 0.25763 0.29636 0.21857 0.0
H569 H 0.29376 0.31306 0.26101 0.0
O570 O 0.2842 0.25063 0.27833 0.0
O571 O 0.25314 0.26768 0.29224 0.0
O572 O 0.26278 0.29269 0.27859 0.0
C573 C 0.25659 0.28467 0.29312 0.0
H574 H 0.24968 0.2026 0.31552 0.0
H575 H 0.27384 0.32717 0.20818 0.0
Co576 Co 0.50192 0.50333 0.00563 0.0
C577 C 0.49792 0.52128 0.03927 0.0
Co578 Co 0.52244 0.52552 0.0092 0.0
C579 C 0.48961 0.46788 -0.00441 0.0
C580 C 0.46676 0.48319 0.008 0.0
N581 N 0.48514 0.4844 0.0027 0.0
N582 N 0.47488 0.45632 -0.00374 0.0
C583 C 0.46042 0.46581 0.00414 0.0
H584 H 0.5037 0.46419 0.99066 0.0
H585 H 0.45865 0.49409 0.01459 0.0
C586 C 0.52627 0.50788 0.97536 0.0
N587 N 0.5393 0.54435 0.01221 0.0
C588 C 0.53548 0.56046 0.02059 0.0
C589 C 0.55768 0.5453 0.00686 0.0
N590 N 0.55069 0.57144 0.02081 0.0
C591 C 0.56472 0.56205 0.01207 0.0
C592 C 0.53543 0.49247 0.02156 0.0
O593 O 0.51267 0.49834 0.98166 0.0
O594 O 0.53263 0.52081 0.98523 0.0
O595 O 0.54003 0.50904 0.01937 0.0
O596 O 0.51928 0.48712 0.01647 0.0
O597 O 0.51204 0.53022 0.03323 0.0
H598 H 0.56545 0.5345 -0.00028 0.0
H599 H 0.52166 0.56414 0.02627 0.0
O600 O 0.49128 0.5085 0.02938 0.0
O601 O 0.48459 0.5196 -0.00489 0.0
O602 O 0.50462 0.54197 -0.00083 0.0
C603 C 0.4885 0.53645 -0.00595 0.0
H604 H 0.44638 0.46056 0.00699 0.0
H605 H 0.57908 0.5668 0.00993 0.0
Co606 Co 0.76818 0.28397 0.27352 0.0
C607 C 0.73418 0.26748 0.2842 0.0
Co608 Co 0.76622 0.25532 0.26467 0.0
C609 C 0.77773 0.32149 0.27129 0.0
C610 C 0.76466 0.31547 0.29761 0.0
N611 N 0.7697 0.30792 0.28107 0.0
N612 N 0.77828 0.33721 0.2811 0.0
C613 C 0.76992 0.33354 0.29767 0.0
H614 H 0.78343 0.31971 0.2573 0.0
H615 H 0.75822 0.30816 0.30908 0.0
C616 C 0.80015 0.27174 0.25391 0.0
N617 N 0.7651 0.23145 0.25676 0.0
C618 C 0.75904 0.21676 0.26625 0.0
C619 C 0.77052 0.22498 0.23985 0.0
N620 N 0.76041 0.20136 0.2559 0.0
C621 C 0.76762 0.20648 0.23927 0.0
C622 C 0.75305 0.27965 0.23876 0.0
O623 O 0.79293 0.28556 0.26217 0.0
O624 O 0.79084 0.257 0.25364 0.0
O625 O 0.75556 0.26284 0.24202 0.0
O626 O 0.75739 0.29136 0.25103 0.0
O627 O 0.74141 0.25368 0.27582 0.0
H628 H 0.77618 0.23321 0.22866 0.0
H629 H 0.75337 0.21745 0.28034 0.0
O630 O 0.74354 0.28224 0.28473 0.0
O631 O 0.77902 0.27659 0.29597 0.0
O632 O 0.77699 0.24794 0.28736 0.0
C633 C 0.78165 0.25984 0.29936 0.0
H634 H 0.76852 0.34295 0.3093 0.0
H635 H 0.77063 0.19752 0.22753 0.0
Co636 Co 0.00299 0.50181 0.49585 0.0
C637 C 0.03745 0.49297 0.51199 0.0
Co638 Co 0.00732 0.51509 0.52297 0.0
C639 C -0.0008 0.49812 0.45624 0.0
C640 C -0.00017 0.47217 0.46956 0.0
N641 N 6e-05 0.49029 0.47309 0.0
N642 N -0.00144 0.48566 0.44241 0.0
C643 C -0.00125 0.46929 0.45067 0.0
H644 H -0.0008 0.5127 0.45406 0.0
H645 H 0.00096 0.46168 0.47996 0.0
C646 C 0.97302 0.5241 0.50688 0.0
N647 N 0.01046 0.52643 0.54556 0.0
C648 C 0.01696 0.51872 0.56109 0.0
C649 C 0.00704 0.544 0.55021 0.0
N650 N 0.01787 0.53075 0.57533 0.0
C651 C 0.01159 0.54671 0.56855 0.0
C652 C 0.02021 0.53559 0.49342 0.0
O653 O 0.9786 0.51323 0.49397 0.0
O654 O 0.9835 0.52666 0.5208 0.0
O655 O 0.01892 0.53502 0.51102 0.0
O656 O 0.01431 0.52218 0.48392 0.0
O657 O 0.03137 0.50343 0.52498 0.0
H658 H 0.00177 0.5542 0.54082 0.0
H659 H 0.02085 0.50447 0.5619 0.0
O660 O 0.02728 0.4905 0.4978 0.0
O661 O 0.99168 0.48175 0.50804 0.0
O662 O -0.00449 0.49514 0.53503 0.0
C663 C 0.98971 0.48164 0.52561 0.0
H664 H -0.00121 0.45623 0.44351 0.0
H665 H 0.01075 0.55951 0.57614 0.0
Co666 Co 0.77834 0.77411 0.27048 0.0
C667 C 0.76584 0.77982 0.23458 0.0
Co668 Co 0.75115 0.76085 0.26535 0.0
C669 C 0.81632 0.77711 0.28288 0.0
C670 C 0.80678 0.80192 0.27064 0.0
N671 N 0.80123 0.78488 0.27495 0.0
N672 N 0.83114 0.78857 0.28366 0.0
C673 C 0.82519 0.80426 0.27603 0.0
H674 H 0.81633 0.76331 0.2881 0.0
H675 H 0.79806 0.81191 0.26384 0.0
C676 C 0.76359 0.75508 0.30117 0.0
N677 N 0.72819 0.75034 0.26059 0.0
C678 C 0.71379 0.75899 0.25244 0.0
C679 C 0.72233 0.73298 0.26265 0.0
N680 N 0.69919 0.74781 0.24913 0.0
C681 C 0.70445 0.73134 0.25543 0.0
C682 C 0.78166 0.73857 0.2576 0.0
O683 O 0.77715 0.76518 0.29562 0.0
O684 O 0.7504 0.75139 0.28997 0.0
O685 O 0.76375 0.73947 0.25702 0.0
O686 O 0.79088 0.75245 0.26281 0.0
O687 O 0.75194 0.77043 0.24052 0.0
H688 H 0.73072 0.72213 0.26846 0.0
H689 H 0.71441 0.77308 0.24811 0.0
O690 O 0.77946 0.78288 0.24544 0.0
O691 O 0.76576 0.79569 0.27825 0.0
O692 O 0.73861 0.78221 0.27398 0.0
C693 C 0.74782 0.79619 0.27887 0.0
H694 H 0.83363 0.8164 0.27415 0.0
H695 H 0.69614 0.71901 0.25457 0.0
Co696 Co 0.78378 0.26487 0.78251 0.0
C697 C 0.76955 0.23026 0.77773 0.0
Co698 Co 0.76268 0.26305 0.76043 0.0
C699 C 0.80103 0.28021 0.81401 0.0
C700 C 0.81413 0.25467 0.807 0.0
N701 N 0.80104 0.26671 0.80125 0.0
N702 N 0.81327 0.27707 0.82771 0.0
C703 C 0.82154 0.26093 0.82348 0.0
H704 H 0.79102 0.29144 0.8141 0.0
H705 H 0.81723 0.24172 0.80027 0.0
C706 C 0.77639 0.29784 0.76564 0.0
N707 N 0.74541 0.2613 0.74164 0.0
C708 C 0.74604 0.24882 0.72782 0.0
C709 C 0.73091 0.27248 0.73752 0.0
N710 N 0.73271 0.25179 0.71504 0.0
C711 C 0.72312 0.26671 0.72105 0.0
C712 C 0.74688 0.27057 0.79497 0.0
O713 O 0.78635 0.29014 0.7778 0.0
O714 O 0.76504 0.28836 0.75615 0.0
O715 O 0.74289 0.26774 0.77803 0.0
O716 O 0.76402 0.27001 0.79981 0.0
O717 O 0.76039 0.23768 0.7648 0.0
H718 H 0.72674 0.28439 0.74561 0.0
H719 H 0.7568 0.2383 0.72664 0.0
O720 O 0.78081 0.23974 0.78733 0.0
O721 O 0.80349 0.25964 0.76514 0.0
O722 O 0.7826 0.25839 0.74304 0.0
C723 C 0.79965 0.25723 0.7481 0.0
H724 H 0.83142 0.25378 0.83215 0.0
H725 H 0.71164 0.27322 0.71385 0.0
Co726 Co 0.76046 0.75458 0.77066 0.0
C727 C 0.79855 0.76415 0.7741 0.0
Co728 Co 0.76798 0.78019 0.75689 0.0
C729 C 0.7441 0.71949 0.77609 0.0
C730 C 0.75965 0.72806 0.79984 0.0
N731 N 0.75451 0.73333 0.78274 0.0
N732 N 0.74253 0.7057 0.7883 0.0
C733 C 0.75229 0.71106 0.80331 0.0
H734 H 0.73769 0.71967 0.76255 0.0
H735 H 0.76832 0.73601 0.80909 0.0
C736 C 0.72991 0.77061 0.75341 0.0
N737 N 0.77373 0.80133 0.74444 0.0
C738 C 0.78546 0.81491 0.74934 0.0
C739 C 0.76707 0.80616 0.72773 0.0
N740 N 0.78634 0.82806 0.73632 0.0
C741 C 0.77476 0.82259 0.72273 0.0
C742 C 0.7709 0.74943 0.73357 0.0
O743 O 0.73484 0.75686 0.76283 0.0
O744 O 0.7421 0.78287 0.74994 0.0
O745 O 0.7729 0.76663 0.73436 0.0
O746 O 0.76617 0.74105 0.74833 0.0
O747 O 0.7938 0.77748 0.76398 0.0
H748 H 0.7574 0.79811 0.7196 0.0
H749 H 0.79312 0.81516 0.76223 0.0
O750 O 0.78615 0.7523 0.77836 0.0
O751 O 0.75466 0.76817 0.79292 0.0
O752 O 0.76313 0.79365 0.77948 0.0
C753 C 0.75743 0.78527 0.79396 0.0
H754 H 0.7543 0.70314 0.81575 0.0
H755 H 0.77234 0.82973 0.70987 0.0
Co756 Co 0.50376 0.52204 0.50231 0.0
C757 C 0.50217 0.54566 0.53366 0.0
Co758 Co 0.5103 0.50903 0.52878 0.0
C759 C 0.48825 0.5287 0.46634 0.0
C760 C 0.50436 0.55125 0.47641 0.0
N761 N 0.49856 0.53431 0.48084 0.0
N762 N 0.48735 0.5415 0.45303 0.0
C763 C 0.49745 0.55573 0.45932 0.0
H764 H 0.4814 0.51554 0.46566 0.0
H765 H 0.51314 0.55976 0.48503 0.0
C766 C 0.51207 0.48538 0.49746 0.0
N767 N 0.51568 0.49648 0.55015 0.0
C768 C 0.52999 0.49923 0.56195 0.0
C769 C 0.50829 0.48021 0.55499 0.0
N770 N 0.53207 0.48511 0.5736 0.0
C771 C 0.51844 0.47313 0.56935 0.0
C772 C 0.47216 0.50688 0.51951 0.0
O773 O 0.50791 0.49967 0.48845 0.0
O774 O 0.51411 0.48677 0.51494 0.0
O775 O 0.4841 0.50304 0.53189 0.0
O776 O 0.47769 0.51577 0.50532 0.0
O777 O 0.50659 0.53141 0.54264 0.0
H778 H 0.4971 0.47333 0.54768 0.0
H779 H 0.53964 0.51064 0.56109 0.0
O780 O 0.49966 0.54423 0.51624 0.0
O781 O 0.52974 0.52834 0.49925 0.0
O782 O 0.53648 0.51517 0.52547 0.0
C783 C 0.54182 0.52434 0.51141 0.0
H784 H 0.5 0.56831 0.45194 0.0
H785 H 0.51654 0.45988 0.57561 0.0
Co786 Co 0.99155 0.51417 0.00618 0.0
C787 C 0.00365 0.54976 7e-05 0.0
Co788 Co 0.01461 0.52209 0.0246 0.0
C789 C 0.9548 0.50119 -0.00203 0.0
C790 C 0.97022 0.50708 0.97284 0.0
N791 N 0.97163 0.50725 0.99154 0.0
N792 N 0.94288 0.49735 0.98415 0.0
C793 C 0.95249 0.50085 0.96823 0.0
H794 H 0.95139 0.49939 0.01258 0.0
H795 H 0.98129 0.5113 0.96322 0.0
C796 C 0.00268 0.48645 0.03058 0.0
N797 N 0.03446 0.52899 0.03922 0.0
C798 C 0.05006 0.53764 0.03303 0.0
C799 C 0.03723 0.52633 0.0575 0.0
N800 N 0.06257 0.54053 0.04661 0.0
C801 C 0.05461 0.53337 0.06209 0.0
C802 C 0.97966 0.53046 0.03946 0.0
O803 O 0.99124 0.49051 0.01777 0.0
O804 O 0.01426 0.49854 0.036 0.0
O805 O -0.00277 0.53109 0.04273 0.0
O806 O 0.97421 0.52336 0.02437 0.0
O807 O 0.01489 0.54568 0.01303 0.0
H808 H 0.02736 0.51955 0.06679 0.0
H809 H 0.0524 0.54129 0.01861 0.0
O810 O 0.99197 0.53776 -0.00537 0.0
O811 O 0.009 0.50525 0.98809 0.0
O812 O 0.03202 0.51317 0.00638 0.0
C813 C 0.02658 0.50629 0.99117 0.0
H814 H 0.94699 0.49934 0.95436 0.0
H815 H 0.06086 0.53326 0.07571 0.0
H816 H 0.02533 0.18989 0.13213 0.0
H817 H 0.02044 0.16139 0.11544 0.0
H818 H 0.00179 0.19109 0.06767 0.0
H819 H 0.00678 0.22006 0.08439 0.0
H820 H 0.98679 0.14789 0.10117 0.0
H821 H 0.04145 0.15547 0.04511 0.0
H822 H 0.04111 0.16952 0.06587 0.0
H823 H 0.02471 0.17389 0.04767 0.0
C824 C 0.02029 0.19054 0.11802 0.0
C825 C 0.0165 0.20746 0.10966 0.0
C826 C 0.01746 0.1741 0.10849 0.0
C827 C 0.01087 0.17396 0.09022 0.0
C828 C 0.00716 0.19078 0.08166 0.0
H829 H 0.99215 0.08044 0.01553 0.0
H830 H -0.00658 0.111 0.02937 0.0
C831 C 0.00995 0.20736 0.09127 0.0
C832 C 0.00754 0.15608 0.0806 0.0
H833 H 0.0229 0.12885 0.04438 0.0
C834 C -0.00535 0.14377 0.0887 0.0
C835 C 0.01771 0.15062 0.0643 0.0
C836 C 0.03215 0.16295 0.05523 0.0
C837 C 0.99169 0.12628 0.08105 0.0
C838 C 0.00223 0.12062 0.06502 0.0
C839 C 0.01484 0.13307 0.05669 0.0
C840 C 0.00063 0.1018 0.05686 0.0
C841 C 0.97706 0.11415 0.09011 0.0
C842 C 0.00423 0.08625 0.0676 0.0
C843 C 0.00337 0.06867 0.05973 0.0
C844 C -0.00094 0.06617 0.04084 0.0
C845 C -0.00462 0.08176 0.03014 0.0
C846 C -0.00381 0.09931 0.03804 0.0
H847 H 0.96638 0.12221 0.09825 0.0
H848 H 0.96961 0.10579 0.0796 0.0
H849 H 0.98416 0.10481 0.09985 0.0
H850 H 0.00815 0.0877 0.08202 0.0
H851 H 0.00655 0.05707 0.06836 0.0
H852 H 0.10761 0.75332 0.41675 0.0
H853 H 0.14101 0.75489 0.40665 0.0
H854 H 0.12442 0.74975 0.34942 0.0
H855 H 0.09134 0.74803 0.35926 0.0
H856 H 0.15553 0.72674 0.36031 0.0
H857 H 0.1643 0.80009 0.37946 0.0
H858 H 0.15536 0.78469 0.39689 0.0
H859 H 0.14121 0.78996 0.3772 0.0
C860 C 0.11115 0.75245 0.40203 0.0
C861 C 0.0969 0.75069 0.38876 0.0
C862 C 0.13016 0.7534 0.39632 0.0
C863 C 0.13503 0.75258 0.37732 0.0
C864 C 0.12086 0.75041 0.36416 0.0
H865 H 0.21483 0.76462 0.29161 0.0
H866 H 0.1882 0.76 0.31324 0.0
C867 C 0.10197 0.74949 0.36981 0.0
C868 C 0.15477 0.75438 0.37067 0.0
H869 H 0.18853 0.78632 0.36141 0.0
C870 C 0.16295 0.73965 0.36085 0.0
C871 C 0.16433 0.77124 0.3715 0.0
C872 C 0.15592 0.78749 0.38174 0.0
C873 C 0.18004 0.74163 0.35094 0.0
C874 C 0.18894 0.75882 0.35074 0.0
C875 C 0.18147 0.77322 0.36156 0.0
C876 C 0.20498 0.76248 0.33797 0.0
C877 C 0.18811 0.72553 0.34019 0.0
C878 C 0.223 0.76597 0.34487 0.0
C879 C 0.23825 0.76862 0.33257 0.0
C880 C 0.23559 0.76797 0.31322 0.0
C881 C 0.21733 0.76515 0.30642 0.0
C882 C 0.20215 0.76241 0.31873 0.0
H883 H 0.18248 0.71243 0.34555 0.0
H884 H 0.18419 0.72667 0.32538 0.0
H885 H 0.2038 0.72525 0.34084 0.0
H886 H 0.22532 0.76623 0.35973 0.0
H887 H 0.25215 0.77086 0.33822 0.0
H888 H 0.53137 0.81496 0.5773 0.0
H889 H 0.52961 0.84532 0.56334 0.0
H890 H 0.4915 0.86299 0.60756 0.0
H891 H 0.49378 0.833 0.62188 0.0
H892 H 0.50238 0.86551 0.5494 0.0
H893 H 0.52969 0.90257 0.61045 0.0
H894 H 0.53012 0.87804 0.60877 0.0
H895 H 0.50884 0.88983 0.61627 0.0
C896 C 0.52261 0.82531 0.58404 0.0
C897 C 0.51287 0.82153 0.60084 0.0
C898 C 0.5216 0.84272 0.57604 0.0
C899 C 0.51079 0.85676 0.58458 0.0
C900 C 0.50047 0.85272 0.60095 0.0
H901 H 0.47737 0.95792 0.52857 0.0
H902 H 0.47851 0.92726 0.54175 0.0
C903 C 0.50165 0.83544 0.60907 0.0
C904 C 0.51023 0.87554 0.57639 0.0
H905 H 0.51601 0.92078 0.58692 0.0
C906 C 0.50545 0.87758 0.55761 0.0
C907 C 0.51456 0.89141 0.58687 0.0
C908 C 0.52129 0.89037 0.60663 0.0
C909 C 0.50456 0.89488 0.54921 0.0
C910 C 0.50801 0.91081 0.55996 0.0
C911 C 0.51308 0.90872 0.57864 0.0
C912 C 0.50699 0.9297 0.55207 0.0
C913 C 0.50045 0.89579 0.52872 0.0
C914 C 0.52224 0.9418 0.55404 0.0
C915 C 0.52144 0.95951 0.54686 0.0
C916 C 0.50539 0.96565 0.53739 0.0
C917 C 0.49003 0.95364 0.5356 0.0
C918 C 0.49075 0.93597 0.54301 0.0
H919 H 0.50408 0.88275 0.52147 0.0
H920 H 0.48511 0.89832 0.52694 0.0
H921 H 0.50846 0.90695 0.52188 0.0
H922 H 0.53492 0.93747 0.56101 0.0
H923 H 0.53356 0.96833 0.54852 0.0
H924 H 0.48011 0.24048 0.87191 0.0
H925 H 0.44939 0.23986 0.85681 0.0
H926 H 0.46952 0.27881 0.8165 0.0
H927 H 0.50025 0.2794 0.83127 0.0
H928 H 0.42632 0.27029 0.85383 0.0
H929 H 0.44313 0.2409 0.78415 0.0
H930 H 0.45879 0.23867 0.80357 0.0
H931 H 0.45844 0.25936 0.79032 0.0
C932 C 0.47812 0.24867 0.85963 0.0
C933 C 0.49261 0.26006 0.85284 0.0
C934 C 0.46057 0.24829 0.85104 0.0
C935 C 0.4573 0.25913 0.83544 0.0
C936 C 0.4719 0.27006 0.8283 0.0
H937 H 0.35641 0.30946 0.79682 0.0
H938 H 0.38695 0.30139 0.80997 0.0
C939 C 0.48942 0.27048 0.83687 0.0
C940 C 0.43815 0.2605 0.82773 0.0
H941 H 0.41381 0.25746 0.78732 0.0
C942 C 0.4235 0.26724 0.83936 0.0
C943 C 0.43452 0.25638 0.80889 0.0
C944 C 0.44951 0.24826 0.79605 0.0
C945 C 0.40547 0.27071 0.83243 0.0
C946 C 0.40215 0.26757 0.81336 0.0
C947 C 0.41654 0.26008 0.8019 0.0
C948 C 0.38395 0.27241 0.80499 0.0
C949 C 0.39016 0.27784 0.84553 0.0
C950 C 0.37248 0.25882 0.79743 0.0
C951 C 0.3551 0.2634 0.78981 0.0
C952 C 0.34901 0.28169 0.78951 0.0
C953 C 0.36076 0.2953 0.79676 0.0
C954 C 0.3781 0.29069 0.80443 0.0
H955 H 0.39345 0.27506 0.86029 0.0
H956 H 0.38887 0.29283 0.84391 0.0
H957 H 0.37626 0.27166 0.84234 0.0
H958 H 0.37688 0.24466 0.79761 0.0
H959 H 0.34652 0.25265 0.78403 0.0
H960 H 0.00527 0.78873 0.44759 0.0
H961 H 0.99167 0.81317 0.46725 0.0
H962 H 0.02878 0.85201 0.44072 0.0
H963 H 0.04245 0.82787 0.42113 0.0
H964 H 0.02512 0.85409 0.48184 0.0
H965 H 0.95656 0.85384 0.4446 0.0
H966 H 0.96576 0.83272 0.45339 0.0
H967 H 0.97768 0.84371 0.43435 0.0
C968 C 0.01068 0.80245 0.4461 0.0
C969 C 0.02485 0.8064 0.43269 0.0
C970 C 0.00284 0.81636 0.45728 0.0
C971 C 0.00913 0.83434 0.45525 0.0
C972 C 0.02374 0.83818 0.44242 0.0
H973 H -0.00014 0.94433 0.47117 0.0
H974 H 0.00584 0.91205 0.46528 0.0
C975 C 0.0315 0.82437 0.43121 0.0
C976 C 0.00019 0.84957 0.46573 0.0
H977 H 0.96253 0.87879 0.46425 0.0
C978 C 0.01123 0.85926 0.47839 0.0
C979 C 0.98203 0.85617 0.46123 0.0
C980 C 0.96973 0.84619 0.44762 0.0
C981 C 0.0051 0.87607 0.48572 0.0
C982 C 0.98765 0.8834 0.48 0.0
C983 C 0.97592 0.87306 0.46853 0.0
C984 C 0.98301 0.90279 0.48327 0.0
C985 C 0.01779 0.88635 0.49874 0.0
C986 C 0.96769 0.9082 0.49478 0.0
C987 C 0.96426 0.92677 0.49824 0.0
C988 C 0.97609 0.94003 0.49015 0.0
C989 C 0.99081 0.93443 0.47795 0.0
C990 C -0.00577 0.91602 0.47456 0.0
H991 H 0.02755 0.87699 0.50598 0.0
H992 H 0.02651 0.89613 0.49062 0.0
H993 H 0.00935 0.89418 0.50931 0.0
H994 H 0.95877 0.8981 0.50143 0.0
H995 H 0.95285 0.93072 0.50772 0.0
H996 H 0.46765 0.74096 0.69331 0.0
H997 H 0.43625 0.74564 0.70702 0.0
H998 H 0.42589 0.78906 0.66842 0.0
H999 H 0.45745 0.7842 0.65423 0.0
H1000 H 0.42208 0.77583 0.72448 0.0
H1001 H 0.37853 0.75808 0.66344 0.0
H1002 H 0.40351 0.75302 0.66423 0.0
H1003 H 0.3956 0.77582 0.65962 0.0
C1004 C 0.45872 0.75146 0.68758 0.0
C1005 C 0.46514 0.7622 0.67261 0.0
C1006 C 0.44073 0.75413 0.6955 0.0
C1007 C 0.42861 0.76761 0.68872 0.0
C1008 C 0.43485 0.77836 0.6737 0.0
H1009 H 0.32702 0.79831 0.75558 0.0
H1010 H 0.35744 0.79972 0.73865 0.0
C1011 C 0.45292 0.77561 0.66564 0.0
C1012 C 0.40972 0.77044 0.69787 0.0
H1013 H 0.36215 0.76747 0.69081 0.0
C1014 C 0.40896 0.77413 0.71709 0.0
C1015 C 0.39261 0.76807 0.68826 0.0
C1016 C 0.39249 0.76338 0.66778 0.0
C1017 C 0.39165 0.77509 0.72703 0.0
C1018 C 0.37453 0.77271 0.71743 0.0
C1019 C 0.37526 0.7694 0.69814 0.0
C1020 C 0.35582 0.77233 0.72733 0.0
C1021 C 0.39194 0.77785 0.74786 0.0
C1022 C 0.34453 0.75668 0.72625 0.0
C1023 C 0.3271 0.7559 0.73574 0.0
C1024 C 0.32053 0.77077 0.74659 0.0
C1025 C 0.33176 0.78654 0.74753 0.0
C1026 C 0.34918 0.78735 0.7379 0.0
H1027 H 0.40614 0.77502 0.75356 0.0
H1028 H 0.38822 0.79222 0.75126 0.0
H1029 H 0.38147 0.7689 0.75495 0.0
H1030 H 0.34931 0.74493 0.71818 0.0
H1031 H 0.31881 0.74356 0.73463 0.0
H1032 H 0.53146 0.20436 0.95324 0.0
H1033 H 0.53164 0.17364 0.96623 0.0
H1034 H 0.53034 0.15059 0.91087 0.0
H1035 H 0.53043 0.18122 0.89773 0.0
H1036 H 0.50527 0.14572 0.96207 0.0
H1037 H 0.57597 0.12512 0.93384 0.0
H1038 H 0.56801 0.14854 0.93451 0.0
H1039 H 0.55998 0.13328 0.91665 0.0
C1040 C 0.53116 0.19276 0.94383 0.0
C1041 C 0.53104 0.19518 0.92446 0.0
C1042 C 0.53131 0.17524 0.95127 0.0
C1043 C 0.53141 0.15991 0.93947 0.0
C1044 C 0.53074 0.16228 0.92017 0.0
H1045 H 0.52223 0.04414 0.95476 0.0
H1046 H 0.52737 0.07479 0.94257 0.0
C1047 C 0.53063 0.17978 0.91271 0.0
C1048 C 0.53178 0.14142 0.94739 0.0
H1049 H 0.55727 0.10177 0.94771 0.0
C1050 C 0.5167 0.13614 0.95907 0.0
C1051 C 0.54674 0.12902 0.94339 0.0
C1052 C 0.56369 0.13429 0.93155 0.0
C1053 C 0.51592 0.11858 0.96653 0.0
C1054 C 0.5308 0.10614 0.96241 0.0
C1055 C 0.54595 0.11142 0.95083 0.0
C1056 C 0.53044 0.0874 0.96965 0.0
C1057 C 0.49896 0.11331 0.97837 0.0
C1058 C 0.53129 0.08435 0.98883 0.0
C1059 C 0.52836 0.0669 -0.00415 0.0
C1060 C 0.52459 0.05225 0.98375 0.0
C1061 C 0.52502 0.05517 0.96444 0.0
C1062 C 0.52795 0.07264 0.95744 0.0
H1063 H 0.48703 0.12309 0.97699 0.0
H1064 H 0.49397 0.09946 0.97454 0.0
H1065 H 0.50301 0.1131 -0.0068 0.0
H1066 H 0.53352 0.0956 -0.0016 0.0
H1067 H 0.52825 0.06508 0.01078 0.0
H1068 H 0.06128 0.28701 0.18285 0.0
H1069 H 0.09047 0.28804 0.20043 0.0
H1070 H 0.12018 0.26046 0.15527 0.0
H1071 H 0.09112 0.26021 0.13722 0.0
H1072 H 0.11093 0.26266 0.21407 0.0
H1073 H 0.15675 0.30015 0.16441 0.0
H1074 H 0.13162 0.29795 0.16129 0.0
H1075 H 0.14749 0.27977 0.15419 0.0
C1076 C 0.07408 0.28134 0.17656 0.0
C1077 C 0.07388 0.27364 0.15858 0.0
C1078 C 0.0908 0.2819 0.18666 0.0
C1079 C 0.10775 0.27459 0.17916 0.0
C1080 C 0.10753 0.26671 0.16123 0.0
H1081 H 0.20295 0.24332 0.248 0.0
H1082 H 0.17358 0.24449 0.23072 0.0
C1083 C 0.09084 0.26646 0.15095 0.0
C1084 C 0.1253 0.27463 0.19048 0.0
H1085 H 0.17226 0.28577 0.18958 0.0
C1086 C 0.1243 0.26784 0.20871 0.0
C1087 C 0.14278 0.28164 0.18374 0.0
C1088 C 0.14471 0.29047 0.16492 0.0
C1089 C 0.14016 0.26769 0.22024 0.0
C1090 C 0.15786 0.27385 0.21318 0.0
C1091 C 0.15882 0.28085 0.19503 0.0
C1092 C 0.17552 0.27323 0.2243 0.0
C1093 C 0.13756 0.26135 0.24005 0.0
C1094 C 0.18685 0.28885 0.22616 0.0
C1095 C 0.20392 0.28811 0.23573 0.0
C1096 C 0.21001 0.27177 0.24384 0.0
C1097 C 0.19854 0.25622 0.24223 0.0
C1098 C 0.18163 0.2569 0.23239 0.0
H1099 H 0.12267 0.26312 0.24501 0.0
H1100 H 0.14104 0.24661 0.24076 0.0
H1101 H 0.14689 0.26891 0.24964 0.0
H1102 H 0.18256 0.30162 0.22004 0.0
H1103 H 0.21247 0.3003 0.23659 0.0
H1104 H 0.10696 0.95879 0.22784 0.0
H1105 H 0.08971 0.95785 0.19879 0.0
H1106 H 0.13594 0.98515 0.17075 0.0
H1107 H 0.15349 0.98587 0.19978 0.0
H1108 H 0.07967 0.99039 0.18221 0.0
H1109 H 0.12039 0.9457 0.1329 0.0
H1110 H 0.12336 0.94492 0.15779 0.0
H1111 H 0.13402 0.96289 0.14446 0.0
C1112 C 0.11365 0.9642 0.21539 0.0
C1113 C 0.13146 0.97257 0.21607 0.0
C1114 C 0.1038 0.96363 0.19882 0.0
C1115 C 0.11158 0.97142 0.18268 0.0
C1116 C 0.12984 0.97883 0.18302 0.0
H1117 H 0.04417 0.01513 0.09362 0.0
H1118 H 0.0667 0.01111 0.11867 0.0
C1119 C 0.1398 0.97929 0.19962 0.0
C1120 C 0.09955 0.97386 0.16635 0.0
H1121 H 0.09522 0.96305 0.12039 0.0
C1122 C 0.08304 0.98438 0.1687 0.0
C1123 C 0.10404 0.96596 0.14881 0.0
C1124 C 0.12133 0.9541 0.14578 0.0
C1125 C 0.07078 0.98721 0.15395 0.0
C1126 C 0.0754 0.97958 0.13633 0.0
C1127 C 0.09189 0.969 0.13394 0.0
C1128 C 0.06282 0.98193 0.12042 0.0
C1129 C 0.05281 -0.00199 0.15745 0.0
C1130 C 0.05359 0.96678 0.11292 0.0
C1131 C 0.04083 0.96901 0.09857 0.0
C1132 C 0.03714 0.98644 0.09144 0.0
C1133 C 0.04675 0.00154 0.09877 0.0
C1134 C 0.05952 -0.00071 0.11313 0.0
H1135 H 0.04935 -0.00058 0.17255 0.0
H1136 H 0.05456 0.0119 0.15168 0.0
H1137 H 0.04067 0.99148 0.15048 0.0
H1138 H 0.05605 0.95327 0.11837 0.0
H1139 H 0.03399 0.95705 0.09298 0.0
H1140 H 0.22624 0.86374 0.45544 0.0
H1141 H 0.24232 0.84331 0.43308 0.0
H1142 H 0.27605 0.82135 0.47695 0.0
H1143 H 0.26007 0.84157 0.49945 0.0
H1144 H 0.29659 0.83575 0.44452 0.0
H1145 H 0.24041 0.78626 0.42644 0.0
H1146 H 0.23328 0.80983 0.42643 0.0
H1147 H 0.2399 0.79938 0.44786 0.0
C1148 C 0.23683 0.85434 0.4604 0.0
C1149 C 0.24191 0.85434 0.47921 0.0
C1150 C 0.24595 0.84265 0.44763 0.0
C1151 C 0.26027 0.83082 0.45346 0.0
C1152 C 0.26497 0.83036 0.47227 0.0
H1153 H 0.31332 0.75609 0.37199 0.0
H1154 H 0.30349 0.76825 0.40267 0.0
C1155 C 0.25578 0.84192 0.48507 0.0
C1156 C 0.2714 0.82011 0.43963 0.0
H1157 H 0.26744 0.78735 0.40605 0.0
C1158 C 0.29035 0.82496 0.43628 0.0
C1159 C 0.26322 0.80597 0.42911 0.0
C1160 C 0.24312 0.79989 0.43269 0.0
C1161 C 0.30106 0.81663 0.42193 0.0
C1162 C 0.29254 0.8032 0.41073 0.0
C1163 C 0.27391 0.79767 0.41472 0.0
C1164 C 0.30179 0.79622 0.39351 0.0
C1165 C 0.32122 0.82258 0.4185 0.0
C1166 C 0.30446 0.80802 0.37847 0.0
C1167 C 0.30993 0.80111 0.36106 0.0
C1168 C 0.31288 0.78233 0.35845 0.0
C1169 C 0.31138 0.77065 0.37378 0.0
C1170 C 0.30566 0.77755 0.39121 0.0
H1171 H 0.32723 0.82911 0.43107 0.0
H1172 H 0.33032 0.81082 0.41423 0.0
H1173 H 0.3216 0.83267 0.4071 0.0
H1174 H 0.30126 0.82243 0.37993 0.0
H1175 H 0.31098 0.8103 0.34938 0.0
H1176 H 0.4182 0.07475 0.69793 0.0
H1177 H 0.43136 0.08014 0.66685 0.0
H1178 H 0.38457 0.05131 0.64282 0.0
H1179 H 0.37103 0.04628 0.67398 0.0
H1180 H 0.44033 0.04695 0.64925 0.0
H1181 H 0.39743 0.09099 0.60361 0.0
H1182 H 0.39626 0.09268 0.62873 0.0
H1183 H 0.38441 0.07445 0.61697 0.0
C1184 C 0.41037 0.07016 0.68597 0.0
C1185 C 0.39385 0.05981 0.68824 0.0
C1186 C 0.41781 0.07337 0.66825 0.0
C1187 C 0.40893 0.0661 0.65261 0.0
C1188 C 0.39144 0.05728 0.65473 0.0
H1189 H 0.44751 0.02525 0.54667 0.0
H1190 H 0.42875 0.03702 0.57315 0.0
C1191 C 0.38381 0.05429 0.67252 0.0
C1192 C 0.42009 0.06375 0.63524 0.0
H1193 H 0.42119 0.07236 0.58871 0.0
C1194 C 0.43632 0.05275 0.63605 0.0
C1195 C 0.41452 0.07104 0.6181 0.0
C1196 C 0.39728 0.08307 0.61672 0.0
C1197 C 0.44702 0.04849 0.62008 0.0
C1198 C 0.44157 0.05583 0.60288 0.0
C1199 C 0.42537 0.06694 0.60201 0.0
C1200 C 0.45216 0.0512 0.58564 0.0
C1201 C 0.46362 0.03558 0.62167 0.0
C1202 C 0.47136 0.05571 0.58378 0.0
C1203 C 0.48217 0.04874 0.56892 0.0
C1204 C 0.47382 0.03743 0.55556 0.0
C1205 C 0.45433 0.03382 0.55688 0.0
C1206 C 0.44357 0.04063 0.57188 0.0
H1207 H 0.46306 0.02784 0.63489 0.0
H1208 H 0.46412 0.02568 0.60989 0.0
H1209 H 0.47696 0.0435 0.62137 0.0
H1210 H 0.47811 0.06409 0.59418 0.0
H1211 H 0.4971 0.052 0.56806 0.0
H1212 H 0.25432 0.20148 0.97394 0.0
H1213 H 0.25616 0.21878 0.94493 0.0
H1214 H 0.26324 0.16866 0.91372 0.0
H1215 H 0.26187 0.15137 0.9426 0.0
H1216 H 0.28736 0.19429 0.90123 0.0
H1217 H 0.21509 0.22386 0.90706 0.0
H1218 H 0.22966 0.22904 0.92655 0.0
H1219 H 0.223 0.20582 0.92195 0.0
C1220 C 0.25628 0.19415 0.9609 0.0
C1221 C 0.25786 0.17501 0.96063 0.0
C1222 C 0.2572 0.20406 0.94428 0.0
C1223 C 0.2595 0.19504 0.92703 0.0
C1224 C 0.26138 0.17597 0.92679 0.0
H1225 H 0.2353 0.23442 0.81678 0.0
H1226 H 0.23546 0.22023 0.84738 0.0
C1227 C 0.26057 0.16608 0.94336 0.0
C1228 C 0.26008 0.20534 0.90917 0.0
H1229 H 0.23455 0.23429 0.88219 0.0
C1230 C 0.27582 0.20307 0.89709 0.0
C1231 C 0.24492 0.21662 0.90359 0.0
C1232 C 0.22712 0.21888 0.91536 0.0
C1233 C 0.27683 0.21169 0.87968 0.0
C1234 C 0.26185 0.22329 0.87428 0.0
C1235 C 0.24612 0.22557 0.88636 0.0
C1236 C 0.26178 0.23246 0.8558 0.0
C1237 C 0.29365 0.20778 0.86698 0.0
C1238 C 0.27638 0.24437 0.85032 0.0
C1239 C 0.27639 0.25246 0.8327 0.0
C1240 C 0.26168 0.249 0.82024 0.0
C1241 C 0.24687 0.23743 0.82596 0.0
C1242 C 0.24692 0.22928 0.84351 0.0
H1243 H 0.30118 0.19512 0.87097 0.0
H1244 H 0.28928 0.20639 0.85229 0.0
H1245 H 0.3038 0.21924 0.8679 0.0
H1246 H 0.28778 0.24742 0.85967 0.0
H1247 H 0.28797 0.26137 0.82882 0.0
H1248 H 0.07621 0.00386 0.30995 0.0
H1249 H 0.06316 0.00423 0.34164 0.0
H1250 H 0.11762 0.98883 0.36268 0.0
H1251 H 0.13083 0.98817 0.33096 0.0
H1252 H 0.08663 0.96959 0.37867 0.0
H1253 H 0.07522 0.04454 0.37974 0.0
H1254 H 0.06458 0.03305 0.36045 0.0
H1255 H 0.08991 0.03319 0.36234 0.0
C1256 C 0.08544 0.00052 0.32129 0.0
C1257 C 0.10461 -0.00385 0.31795 0.0
C1258 C 0.07796 0.00079 0.33937 0.0
C1259 C 0.08953 -0.00316 0.35443 0.0
C1260 C 0.10852 -0.008 0.35118 0.0
H1261 H 0.06013 0.02578 0.46822 0.0
H1262 H 0.07675 0.02089 0.4385 0.0
C1263 C 0.11603 0.99167 0.33307 0.0
C1264 C 0.08184 -0.00188 0.37361 0.0
H1265 H 0.06153 0.02791 0.40475 0.0
C1266 C 0.08122 0.98233 0.38447 0.0
C1267 C 0.0751 0.01485 0.38112 0.0
C1268 C 0.07637 0.03242 0.37039 0.0
C1269 C 0.07355 0.98275 0.40261 0.0
C1270 C 0.06612 -0.00066 0.40983 0.0
C1271 C 0.06714 0.01519 0.39909 0.0
C1272 C 0.05708 0.00071 0.42847 0.0
C1273 C 0.07363 0.96553 0.41394 0.0
C1274 C 0.0406 0.99084 0.43268 0.0
C1275 C 0.03109 -0.00645 0.4497 0.0
C1276 C 0.03781 0.00634 0.46262 0.0
C1277 C 0.05454 0.0159 0.4585 0.0
C1278 C 0.06408 0.01311 0.44156 0.0
H1279 H 0.0843 0.95557 0.40849 0.0
H1280 H 0.07662 0.96854 0.42875 0.0
H1281 H 0.05951 0.95904 0.41328 0.0
H1282 H 0.03477 0.98149 0.42259 0.0
H1283 H 0.0182 0.98601 0.45249 0.0
H1284 H 0.2453 0.89024 0.60298 0.0
H1285 H 0.2469 0.87665 0.6339 0.0
H1286 H 0.24429 0.82291 0.60928 0.0
H1287 H 0.24253 0.83631 0.57838 0.0
H1288 H 0.21724 0.83011 0.63868 0.0
H1289 H 0.29075 0.84813 0.65798 0.0
H1290 H 0.27636 0.86657 0.64982 0.0
H1291 H 0.28294 0.84828 0.63421 0.0
C1292 C 0.24535 0.87552 0.60414 0.0
C1293 C 0.24377 0.86433 0.58828 0.0
C1294 C 0.24631 0.8678 0.62178 0.0
C1295 C 0.24579 0.84881 0.62378 0.0
C1296 C 0.2447 0.83761 0.60795 0.0
H1297 H 0.24574 0.77024 0.71121 0.0
H1298 H 0.24119 0.78687 0.68236 0.0
C1299 C 0.24376 0.84529 0.59033 0.0
C1300 C 0.24537 0.84056 0.6424 0.0
H1301 H 0.27172 0.83397 0.68096 0.0
C1302 C 0.22912 0.83095 0.64797 0.0
C1303 C 0.26086 0.84184 0.65443 0.0
C1304 C 0.2788 0.85163 0.64883 0.0
C1305 C 0.22797 0.82248 0.66534 0.0
C1306 C 0.24361 0.82345 0.67723 0.0
C1307 C 0.25973 0.83333 0.67178 0.0
C1308 C 0.24403 0.81358 0.69502 0.0
C1309 C 0.21001 0.8127 0.67087 0.0
C1310 C 0.24705 0.82313 0.71166 0.0
C1311 C 0.24977 0.81367 0.72815 0.0
C1312 C 0.24962 0.7945 0.7282 0.0
C1313 C 0.24583 0.785 0.71163 0.0
C1314 C 0.24315 0.79448 0.69515 0.0
H1315 H 0.19772 0.81767 0.6629 0.0
H1316 H 0.21176 0.79791 0.66788 0.0
H1317 H 0.20679 0.81445 0.68596 0.0
H1318 H 0.24784 0.83788 0.71178 0.0
H1319 H 0.25267 0.82138 0.74069 0.0
H1320 H 0.41334 0.02455 0.79677 0.0
H1321 H 0.43257 0.02147 0.82429 0.0
H1322 H 0.48239 0.01304 0.78952 0.0
H1323 H 0.46304 0.01547 0.76176 0.0
H1324 H 0.48115 0.98903 0.8164 0.0
H1325 H 0.46798 0.05685 0.84758 0.0
H1326 H 0.44584 0.04608 0.84299 0.0
H1327 H 0.46178 0.05147 0.82392 0.0
C1328 C 0.42841 0.02217 0.79495 0.0
C1329 C 0.4367 0.02031 0.77712 0.0
C1330 C 0.43942 0.02059 0.8107 0.0
C1331 C 0.45899 0.01755 0.80893 0.0
C1332 C 0.46734 0.0156 0.79115 0.0
H1333 H 0.51125 0.01715 0.91835 0.0
H1334 H 0.50699 0.02488 0.88559 0.0
C1335 C 0.45626 0.01694 0.77534 0.0
C1336 C 0.4703 0.01513 0.82579 0.0
H1337 H 0.47587 0.03275 0.86929 0.0
C1338 C 0.48037 -0.00124 0.82784 0.0
C1339 C 0.46982 0.02806 0.8405 0.0
C1340 C 0.46095 0.04668 0.83852 0.0
C1341 C 0.4886 -0.00567 0.84478 0.0
C1342 C 0.4861 0.00632 0.86016 0.0
C1343 C 0.47744 0.02335 0.85762 0.0
C1344 C 0.49055 0.00082 0.87931 0.0
C1345 C 0.49953 0.97669 0.84607 0.0
C1346 C 0.48268 0.9848 0.88663 0.0
C1347 C 0.48528 0.98032 0.90519 0.0
C1348 C 0.49537 -0.008 0.91687 0.0
C1349 C 0.50327 0.00803 0.90959 0.0
C1350 C 0.50094 0.01237 0.89092 0.0
H1351 H 0.50651 0.97315 0.83252 0.0
H1352 H 0.5105 0.97742 0.8569 0.0
H1353 H 0.48961 0.96549 0.84957 0.0
H1354 H 0.474 0.97603 0.87817 0.0
H1355 H 0.47882 0.96805 0.9106 0.0
H1356 H 0.24749 0.14056 0.09456 0.0
H1357 H 0.25193 0.15825 0.12295 0.0
H1358 H 0.27057 0.20418 0.0905 0.0
H1359 H 0.26594 0.18654 0.06176 0.0
H1360 H 0.28486 0.17364 0.13616 0.0
H1361 H 0.23011 0.22689 0.12522 0.0
H1362 H 0.23114 0.20602 0.11174 0.0
H1363 H 0.24733 0.22421 0.10666 0.0
C1364 C 0.25244 0.15446 0.09333 0.0
C1365 C 0.25629 0.1621 0.07575 0.0
C1366 C 0.25502 0.16456 0.10967 0.0
C1367 C 0.26141 0.18262 0.10894 0.0
C1368 C 0.2653 0.19037 0.09144 0.0
H1369 H 0.27939 0.26137 0.19915 0.0
H1370 H 0.279 0.24569 0.16898 0.0
C1371 C 0.26273 0.18023 0.075 0.0
C1372 C 0.2643 0.19298 0.12661 0.0
H1373 H 0.24864 0.2299 0.15201 0.0
C1374 C 0.27696 0.18597 0.1396 0.0
C1375 C 0.25404 0.2091 0.13112 0.0
C1376 C 0.23977 0.21698 0.11806 0.0
C1377 C 0.27964 0.19457 0.15692 0.0
C1378 C 0.2691 0.21049 0.16159 0.0
C1379 C 0.2567 0.2177 0.14847 0.0
C1380 C 0.27041 0.21965 0.18015 0.0
C1381 C 0.29391 0.18664 0.16995 0.0
C1382 C 0.26576 0.21027 0.19658 0.0
C1383 C 0.26605 0.21918 0.21391 0.0
C1384 C 0.27086 0.23774 0.2152 0.0
C1385 C 0.27572 0.24705 0.19873 0.0
C1386 C 0.27544 0.23812 0.18143 0.0
H1387 H 0.30453 0.17801 0.16238 0.0
H1388 H 0.30145 0.19755 0.17759 0.0
H1389 H 0.28647 0.17794 0.18028 0.0
H1390 H 0.26143 0.19613 0.19597 0.0
H1391 H 0.26202 0.21163 0.22624 0.0
H1392 H 0.18134 0.1354 0.02441 0.0
H1393 H 0.15194 0.11776 0.02558 0.0
H1394 H 0.18071 0.07244 -0.00139 0.0
H1395 H 0.21019 0.08968 -0.00186 0.0
H1396 H 0.13042 0.1039 -3e-05 0.0
H1397 H 0.15715 0.0466 0.04154 0.0
H1398 H 0.17047 0.06726 0.0382 0.0
H1399 H 0.17106 0.04953 0.02068 0.0
C1400 C 0.18138 0.12165 0.0188 0.0
C1401 C 0.19814 0.11388 0.01136 0.0
C1402 C 0.16458 0.11156 0.01947 0.0
C1403 C 0.16415 0.09354 0.01261 0.0
C1404 C 0.18075 0.08603 0.00461 0.0
H1405 H 0.06023 0.03781 0.9827 0.0
H1406 H 0.09058 0.05368 0.98274 0.0
C1407 C 0.19759 0.09599 0.00418 0.0
C1408 C 0.14627 0.08277 0.01337 0.0
H1409 H 0.12775 0.0417 0.02639 0.0
C1410 C 0.12983 0.09034 0.00587 0.0
C1411 C 0.1453 0.06519 0.02137 0.0
C1412 C 0.16189 0.05676 0.03108 0.0
C1413 C 0.11265 0.08075 0.00579 0.0
C1414 C 0.11197 0.06275 0.01281 0.0
C1415 C 0.12829 0.05533 0.02069 0.0
C1416 C 0.09438 0.05157 0.01246 0.0
C1417 C 0.09531 0.09024 -0.00141 0.0
C1418 C 0.08693 0.04399 0.02893 0.0
C1419 C 0.0698 0.03445 0.02886 0.0
C1420 C 0.05968 0.0324 0.01232 0.0
C1421 C 0.06758 0.03928 -0.00429 0.0
C1422 C 0.08485 0.04856 -0.00425 0.0
H1423 H 0.09672 0.10531 -0.00062 0.0
H1424 H 0.09347 0.08645 0.98376 0.0
H1425 H 0.08237 0.08627 0.00654 0.0
H1426 H 0.09407 0.04595 0.04199 0.0
H1427 H 0.06408 0.02938 0.0419 0.0
H1428 H 0.6761 0.38985 0.06619 0.0
H1429 H 0.64355 0.40067 0.07215 0.0
H1430 H 0.63639 0.40729 0.01305 0.0
H1431 H 0.66853 0.39588 0.00721 0.0
H1432 H 0.63199 0.43328 0.06555 0.0
H1433 H 0.58589 0.38723 0.02667 0.0
H1434 H 0.61001 0.38117 0.03182 0.0
H1435 H 0.60474 0.39424 0.01138 0.0
C1436 C 0.66722 0.3931 0.05455 0.0
C1437 C 0.67444 0.39196 0.03628 0.0
C1438 C 0.64874 0.39927 0.05792 0.0
C1439 C 0.63739 0.40447 0.04303 0.0
C1440 C 0.64458 0.40276 0.02472 0.0
H1441 H 0.57355 0.49616 0.0243 0.0
H1442 H 0.5961 0.47332 0.03455 0.0
C1443 C 0.66296 0.39643 0.02136 0.0
C1444 C 0.61928 0.41424 0.04649 0.0
H1445 H 0.57566 0.41948 0.02799 0.0
C1446 C 0.61946 0.42997 0.05776 0.0
C1447 C 0.60269 0.40971 0.03685 0.0
C1448 C 0.60079 0.39202 0.02621 0.0
C1449 C 0.60421 0.44224 0.05808 0.0
C1450 C 0.58876 0.43895 0.04634 0.0
C1451 C 0.58774 0.42229 0.03663 0.0
C1452 C 0.57481 0.45335 0.04211 0.0
C1453 C 0.60517 0.45885 0.07054 0.0
C1454 C 0.55536 0.44959 0.04247 0.0
C1455 C 0.54247 0.46248 0.03611 0.0
C1456 C 0.54885 0.47937 0.02942 0.0
C1457 C 0.56824 0.48332 0.02956 0.0
C1458 C 0.58112 0.47033 0.03562 0.0
H1459 H 0.61281 0.45569 0.08349 0.0
H1460 H 0.61321 0.46972 0.06325 0.0
H1461 H 0.59086 0.46414 0.07437 0.0
H1462 H 0.55019 0.43654 0.04727 0.0
H1463 H 0.52756 0.45912 0.0362 0.0
H1464 H 0.89024 0.46249 0.22408 0.0
H1465 H 0.8704 0.43573 0.22959 0.0
H1466 H 0.83442 0.46732 0.26691 0.0
H1467 H 0.85396 0.49414 0.26143 0.0
H1468 H 0.86331 0.41987 0.26496 0.0
H1469 H 0.79691 0.44226 0.23172 0.0
H1470 H 0.81948 0.45291 0.22698 0.0
H1471 H 0.80646 0.45828 0.24806 0.0
C1472 C 0.87802 0.46379 0.23334 0.0
C1473 C 0.87369 0.48045 0.24232 0.0
C1474 C 0.86672 0.44851 0.23645 0.0
C1475 C 0.85085 0.44969 0.24844 0.0
C1476 C 0.84641 0.46627 0.25732 0.0
H1477 H 0.77088 0.37154 0.29366 0.0
H1478 H 0.78848 0.39921 0.28566 0.0
C1479 C 0.85769 0.48154 0.25426 0.0
C1480 C 0.83958 0.4333 0.25258 0.0
H1481 H 0.79523 0.41538 0.2499 0.0
C1482 C 0.84846 0.4188 0.26157 0.0
C1483 C 0.8202 0.43212 0.24824 0.0
C1484 C 0.81019 0.44714 0.23808 0.0
C1485 C 0.83836 0.40317 0.26661 0.0
C1486 C 0.819 0.40194 0.26221 0.0
C1487 C 0.81009 0.41645 0.25325 0.0
C1488 C 0.8079 0.38549 0.26651 0.0
C1489 C 0.8484 0.38825 0.27693 0.0
C1490 C 0.81284 0.3688 0.25811 0.0
C1491 C 0.80298 0.35304 0.26273 0.0
C1492 C 0.78784 0.35369 0.27574 0.0
C1493 C 0.78261 0.37056 0.28379 0.0
C1494 C 0.79255 0.38637 0.27915 0.0
H1495 H 0.86159 0.39325 0.28338 0.0
H1496 H 0.83908 0.38246 0.28798 0.0
H1497 H 0.85233 0.37712 0.26702 0.0
H1498 H 0.8245 0.36794 0.24811 0.0
H1499 H 0.80758 0.34029 0.25643 0.0
H1500 H 0.82061 0.62562 0.5059 0.0
H1501 H 0.85239 0.61242 0.50131 0.0
H1502 H 0.83206 0.5608 0.52169 0.0
H1503 H 0.80072 0.57392 0.52684 0.0
H1504 H 0.8636 0.56978 0.53812 0.0
H1505 H 0.87377 0.57813 0.46196 0.0
H1506 H 0.86859 0.59905 0.47421 0.0
H1507 H 0.85108 0.58134 0.47354 0.0
C1508 C 0.82293 0.61143 0.50926 0.0
C1509 C 0.80814 0.60087 0.51684 0.0
C1510 C 0.84107 0.60385 0.5065 0.0
C1511 C 0.84462 0.58552 0.51095 0.0
C1512 C 0.82974 0.57496 0.51816 0.0
H1513 H 0.943 0.51701 0.48415 0.0
H1514 H 0.91204 0.53242 0.48454 0.0
C1515 C 0.81178 0.58253 0.52113 0.0
C1516 C 0.86393 0.57738 0.50924 0.0
H1517 H 0.90042 0.5678 0.47867 0.0
C1518 C 0.87161 0.56935 0.52509 0.0
C1519 C 0.87433 0.57658 0.4922 0.0
C1520 C 0.86648 0.58407 0.47445 0.0
C1521 C 0.88927 0.56054 0.52442 0.0
C1522 C 0.89996 0.56024 0.50754 0.0
C1523 C 0.8923 0.56818 0.49163 0.0
C1524 C 0.91908 0.55168 0.50629 0.0
C1525 C 0.89604 0.55123 0.54173 0.0
C1526 C 0.93346 0.55768 0.518 0.0
C1527 C 0.95097 0.54879 0.51799 0.0
C1528 C 0.95465 0.53387 0.506 0.0
C1529 C 0.94055 0.52838 0.49363 0.0
C1530 C 0.92289 0.5372 0.49381 0.0
H1531 H 0.8841 0.54803 0.55142 0.0
H1532 H 0.90373 0.53838 0.53825 0.0
H1533 H 0.90581 0.56045 0.54917 0.0
H1534 H 0.93107 0.56914 0.52738 0.0
H1535 H 0.96162 0.55358 0.52748 0.0
H1536 H 0.13458 0.06577 0.24811 0.0
H1537 H 0.14817 0.09642 0.24989 0.0
H1538 H 0.19698 0.07464 0.27725 0.0
H1539 H 0.1838 0.04411 0.27534 0.0
H1540 H 0.15787 0.11558 0.28206 0.0
H1541 H 0.22059 0.10506 0.23573 0.0
H1542 H 0.20076 0.0896 0.23611 0.0
H1543 H 0.21871 0.08806 0.25345 0.0
C1544 C 0.14829 0.06749 0.25433 0.0
C1545 C 0.15813 0.05248 0.26152 0.0
C1546 C 0.156 0.08499 0.25535 0.0
C1547 C 0.17369 0.08768 0.26341 0.0
C1548 C 0.18351 0.07276 0.27057 0.0
H1549 H 0.24532 0.17257 0.30194 0.0
H1550 H 0.22803 0.14441 0.29552 0.0
C1551 C 0.17587 0.05532 0.26957 0.0
C1552 C 0.18164 0.10616 0.26532 0.0
H1553 H 0.22152 0.13088 0.25645 0.0
C1554 C 0.17165 0.11907 0.27623 0.0
C1555 C 0.19958 0.11061 0.25763 0.0
C1556 C 0.21045 0.09766 0.24492 0.0
C1557 C 0.17959 0.13608 0.2804 0.0
C1558 C 0.19786 0.14016 0.27337 0.0
C1559 C 0.20757 0.12752 0.26195 0.0
C1560 C 0.20742 0.15734 0.27806 0.0
C1561 C 0.16877 0.14932 0.29282 0.0
C1562 C 0.20139 0.17381 0.2704 0.0
C1563 C 0.21122 0.18987 0.27403 0.0
C1564 C 0.22721 0.18966 0.28538 0.0
C1565 C 0.23295 0.17316 0.29332 0.0
C1566 C 0.22318 0.15709 0.28959 0.0
H1567 H 0.15588 0.14309 0.29914 0.0
H1568 H 0.17793 0.15437 0.30411 0.0
H1569 H 0.16438 0.16126 0.28454 0.0
H1570 H 0.18931 0.17417 0.26137 0.0
H1571 H 0.20636 0.20243 0.26791 0.0
H1572 H 0.26587 0.95114 0.49225 0.0
H1573 H 0.29659 0.96594 0.48847 0.0
H1574 H 0.31937 0.9321 0.53144 0.0
H1575 H 0.28864 0.91731 0.53552 0.0
H1576 H 0.32988 0.96977 0.53346 0.0
H1577 H 0.34204 0.9394 0.46304 0.0
H1578 H 0.3202 0.95179 0.46617 0.0
H1579 H 0.324 0.93121 0.47897 0.0
C1580 C 0.27735 0.94692 0.50101 0.0
C1581 C 0.27486 0.93291 0.51406 0.0
C1582 C 0.2949 0.95535 0.49877 0.0
C1583 C 0.31025 0.94985 0.50945 0.0
C1584 C 0.30766 0.93642 0.523 0.0
H1585 H 0.42948 0.97367 0.51404 0.0
H1586 H 0.39721 0.96292 0.51958 0.0
C1587 C 0.2901 0.92799 0.52529 0.0
C1588 C 0.32919 0.95768 0.50609 0.0
H1589 H 0.3649 0.96026 0.47359 0.0
C1590 C 0.33758 0.96772 0.52039 0.0
C1591 C 0.3391 0.95491 0.489 0.0
C1592 C 0.331 0.94362 0.47344 0.0
C1593 C 0.35565 0.97526 0.51799 0.0
C1594 C 0.36561 0.97237 0.50095 0.0
C1595 C 0.35715 0.96245 0.48661 0.0
C1596 C 0.38503 0.97916 0.49783 0.0
C1597 C 0.36383 0.98644 0.53358 0.0
C1598 C 0.38889 0.99148 0.48346 0.0
C1599 C 0.40732 -0.00238 0.48022 0.0
C1600 C 0.4222 0.99146 0.49128 0.0
C1601 C 0.41828 0.97894 0.50552 0.0
C1602 C 0.39986 0.9728 0.50873 0.0
H1603 H 0.35266 0.99136 0.54352 0.0
H1604 H 0.37389 0.97789 0.54137 0.0
H1605 H 0.37167 -0.00161 0.52806 0.0
H1606 H 0.3776 -0.00356 0.47484 0.0
H1607 H 0.40985 0.00739 0.46928 0.0
H1608 H 0.89099 0.60309 0.27368 0.0
H1609 H 0.87298 0.63152 0.27552 0.0
H1610 H 0.82087 0.60145 0.27163 0.0
H1611 H 0.83877 0.57289 0.26967 0.0
H1612 H 0.82751 0.62703 0.24304 0.0
H1613 H 0.8372 0.65799 0.31292 0.0
H1614 H 0.8587 0.65 0.30179 0.0
H1615 H 0.84066 0.63394 0.30828 0.0
C1616 C 0.87568 0.60247 0.27383 0.0
C1617 C 0.86629 0.58581 0.27128 0.0
C1618 C 0.86541 0.61873 0.27496 0.0
C1619 C 0.84564 0.61851 0.2737 0.0
C1620 C 0.83615 0.60181 0.27265 0.0
H1621 H 0.76564 0.70526 0.25182 0.0
H1622 H 0.78113 0.67561 0.25438 0.0
C1623 C 0.8464 0.58553 0.27157 0.0
C1624 C 0.8353 0.63566 0.27057 0.0
H1625 H 0.82584 0.67761 0.28928 0.0
C1626 C 0.82692 0.63804 0.25322 0.0
C1627 C 0.83482 0.64997 0.28381 0.0
C1628 C 0.84318 0.64785 0.30282 0.0
C1629 C 0.81844 0.65462 0.24854 0.0
C1630 C 0.81811 0.66901 0.26172 0.0
C1631 C 0.82627 0.66654 0.27918 0.0
C1632 C 0.80917 0.68673 0.25784 0.0
C1633 C 0.81045 0.65678 0.22937 0.0
C1634 C 0.8199 0.70273 0.25868 0.0
C1635 C 0.8111 0.7197 0.25731 0.0
C1636 C 0.79141 0.72089 0.25518 0.0
C1637 C 0.78086 0.70479 0.25335 0.0
C1638 C 0.78967 0.68783 0.25479 0.0
H1639 H 0.81622 0.64637 0.21945 0.0
H1640 H 0.79485 0.65513 0.23018 0.0
H1641 H 0.81353 0.67053 0.22376 0.0
H1642 H 0.83499 0.70209 0.26102 0.0
H1643 H 0.81962 0.73186 0.2588 0.0
H1644 H 0.71844 0.46461 0.76309 0.0
H1645 H 0.74059 0.43891 0.76134 0.0
H1646 H 0.70368 0.40793 0.79749 0.0
H1647 H 0.6811 0.43331 0.79873 0.0
H1648 H 0.76054 0.41626 0.78473 0.0
H1649 H 0.70348 0.3791 0.74888 0.0
H1650 H 0.70197 0.40314 0.75414 0.0
H1651 H 0.69647 0.38663 0.77181 0.0
C1652 C 0.71524 0.45247 0.77101 0.0
C1653 C 0.69789 0.45077 0.78074 0.0
C1654 C 0.72793 0.43782 0.77 0.0
C1655 C 0.72347 0.4214 0.77886 0.0
C1656 C 0.70709 0.42037 0.79016 0.0
H1657 H 0.78427 0.32218 0.79308 0.0
H1658 H 0.77513 0.35422 0.79414 0.0
C1659 C 0.69426 0.43487 0.79092 0.0
C1660 C 0.73467 0.40477 0.77457 0.0
H1661 H 0.73026 0.3617 0.75725 0.0
C1662 C 0.75402 0.40433 0.7786 0.0
C1663 C 0.72626 0.38948 0.76598 0.0
C1664 C 0.70596 0.38963 0.75975 0.0
C1665 C 0.76501 0.38863 0.77499 0.0
C1666 C 0.75624 0.37292 0.76757 0.0
C1667 C 0.73705 0.37369 0.76297 0.0
C1668 C 0.76599 0.35505 0.76557 0.0
C1669 C 0.78587 0.38913 0.77902 0.0
C1670 C 0.76423 0.34483 0.74906 0.0
C1671 C 0.76887 0.32633 0.74862 0.0
C1672 C 0.77572 0.31785 0.76457 0.0
C1673 C 0.77915 0.32843 0.78052 0.0
C1674 C 0.77406 0.34684 0.78111 0.0
H1675 H 0.79154 0.40317 0.77761 0.0
H1676 H 0.78805 0.38481 0.79358 0.0
H1677 H 0.7941 0.37988 0.76957 0.0
H1678 H 0.75807 0.35089 0.73688 0.0
H1679 H 0.76619 0.31846 0.73613 0.0
H1680 H 0.01105 0.8147 0.94337 0.0
H1681 H 0.00968 0.84381 0.96078 0.0
H1682 H 0.01409 0.87324 0.90929 0.0
H1683 H 0.01548 0.84462 0.89196 0.0
H1684 H 0.03764 0.87361 0.95968 0.0
H1685 H 0.96711 0.89612 0.93615 0.0
H1686 H 0.97486 0.87264 0.93471 0.0
H1687 H 0.983 0.8888 0.91773 0.0
C1688 C 0.01159 0.82737 0.93577 0.0
C1689 C 0.01334 0.82719 0.91621 0.0
C1690 C 0.01087 0.84401 0.94574 0.0
C1691 C 0.01156 0.86078 0.93635 0.0
C1692 C 0.01324 0.86056 0.91688 0.0
H1693 H 0.00921 0.97729 0.96067 0.0
H1694 H 0.01008 0.94675 0.94649 0.0
C1695 C 0.01413 0.84407 0.90698 0.0
C1696 C 0.01104 0.87861 0.94661 0.0
H1697 H 0.98605 0.91858 0.95075 0.0
C1698 C 0.02626 0.88337 0.95793 0.0
C1699 C -0.0037 0.89147 0.94418 0.0
C1700 C 0.97929 0.88701 0.93267 0.0
C1701 C 0.02743 0.90077 0.96636 0.0
C1702 C 0.01274 0.91372 0.96381 0.0
C1703 C -0.00261 0.90881 0.9527 0.0
C1704 C 0.01296 0.93241 0.97248 0.0
C1705 C 0.0448 0.90532 0.97733 0.0
C1706 C 0.01421 0.9347 0.99185 0.0
C1707 C 0.01388 0.95217 -3e-05 0.0
C1708 C 0.01206 0.96787 0.98898 0.0
C1709 C 0.01076 0.96557 0.96958 0.0
C1710 C 0.01118 0.94807 0.96145 0.0
H1711 H 0.05694 0.89633 0.97336 0.0
H1712 H 0.04909 0.91972 0.97525 0.0
H1713 H 0.04166 0.90332 -0.00765 0.0
H1714 H 0.01507 0.92294 0.00079 0.0
H1715 H 0.01469 0.95332 0.01497 0.0
H1716 H 0.93926 0.26186 0.6298 0.0
H1717 H 0.90603 0.25897 0.63941 0.0
H1718 H 0.92226 0.22541 0.68544 0.0
H1719 H 0.95541 0.22788 0.67582 0.0
H1720 H 0.88679 0.21564 0.66937 0.0
H1721 H 0.89297 0.2897 0.68637 0.0
H1722 H 0.89753 0.2831 0.66257 0.0
H1723 H 0.91332 0.2758 0.68034 0.0
C1724 C 0.93573 0.2535 0.64172 0.0
C1725 C 0.95 0.24546 0.65233 0.0
C1726 C 0.91675 0.25187 0.64715 0.0
C1727 C 0.91183 0.24231 0.66332 0.0
C1728 C 0.92584 0.23291 0.67294 0.0
H1729 H 0.83759 0.2558 0.75402 0.0
H1730 H 0.86288 0.25095 0.73084 0.0
C1731 C 0.9448 0.23442 0.66747 0.0
C1732 C 0.89283 0.24429 0.67196 0.0
H1733 H 0.86549 0.2749 0.69648 0.0
C1734 C 0.88188 0.22863 0.675 0.0
C1735 C 0.8867 0.26128 0.67945 0.0
C1736 C 0.89824 0.27844 0.67719 0.0
C1737 C 0.86522 0.22944 0.68594 0.0
C1738 C 0.85955 0.24629 0.69391 0.0
C1739 C 0.87001 0.26205 0.69022 0.0
C1740 C 0.844 0.24766 0.70775 0.0
C1741 C 0.8543 0.21222 0.68977 0.0
C1742 C 0.8251 0.24731 0.7023 0.0
C1743 C 0.81058 0.25016 0.71549 0.0
C1744 C 0.81486 0.25342 0.73427 0.0
C1745 C 0.83385 0.25338 0.73967 0.0
C1746 C 0.8483 0.25058 0.72648 0.0
H1747 H 0.86108 0.20003 0.68316 0.0
H1748 H 0.85307 0.21003 0.70501 0.0
H1749 H 0.83974 0.21362 0.68442 0.0
H1750 H 0.82162 0.24523 0.68783 0.0
H1751 H 0.79606 0.25006 0.71093 0.0
H1752 H 0.49804 0.21985 0.45103 0.0
H1753 H 0.49646 0.18983 0.46577 0.0
H1754 H 0.51899 0.16486 0.41542 0.0
H1755 H 0.51954 0.19455 0.40043 0.0
H1756 H 0.49298 0.14442 0.42758 0.0
H1757 H 0.53665 0.16067 0.48844 0.0
H1758 H 0.51607 0.17497 0.48761 0.0
H1759 H 0.53401 0.17631 0.46948 0.0
C1760 C 0.50267 0.20794 0.44314 0.0
C1761 C 0.50894 0.20967 0.42453 0.0
C1762 C 0.50195 0.19073 0.45165 0.0
C1763 C 0.50801 0.17488 0.44196 0.0
C1764 C 0.51423 0.1767 0.42335 0.0
H1765 H 0.53566 0.07113 0.49475 0.0
H1766 H 0.53589 0.10143 0.48072 0.0
C1767 C 0.51457 0.19378 0.41475 0.0
C1768 C 0.50746 0.15633 0.45078 0.0
H1769 H 0.52066 0.13221 0.48904 0.0
C1770 C 0.49914 0.14181 0.441 0.0
C1771 C 0.51572 0.15257 0.46818 0.0
C1772 C 0.52629 0.16691 0.47894 0.0
C1773 C 0.49884 0.1239 0.44798 0.0
C1774 C 0.50632 0.12031 0.46576 0.0
C1775 C 0.51469 0.13481 0.47554 0.0
C1776 C 0.50607 0.10163 0.47427 0.0
C1777 C 0.49111 0.10895 0.43577 0.0
C1778 C 0.48926 0.09144 0.47562 0.0
C1779 C 0.48921 0.07387 0.48326 0.0
C1780 C 0.50587 0.0662 0.4903 0.0
C1781 C 0.52258 0.07657 0.48943 0.0
C1782 C 0.5227 0.09398 0.48144 0.0
H1783 H 0.49201 0.11263 0.42082 0.0
H1784 H 0.49885 0.09591 0.43764 0.0
H1785 H 0.47595 0.10681 0.43939 0.0
H1786 H 0.47604 0.0971 0.4709 0.0
H1787 H 0.47602 0.06642 0.48396 0.0
H1788 H 0.58059 0.79094 0.12363 0.0
H1789 H 0.60857 0.78403 0.14194 0.0
H1790 H 0.57778 0.7988 0.19228 0.0
H1791 H 0.54973 0.80545 0.17418 0.0
H1792 H 0.63043 0.80279 0.16982 0.0
H1793 H 0.59026 0.7436 0.19727 0.0
H1794 H 0.58277 0.75642 0.17738 0.0
H1795 H 0.57837 0.76512 0.20053 0.0
C1796 C 0.57997 0.79322 0.13854 0.0
C1797 C 0.56294 0.79843 0.14757 0.0
C1798 C 0.59591 0.78921 0.14896 0.0
C1799 C 0.59496 0.79048 0.16843 0.0
C1800 C 0.57857 0.79739 0.17727 0.0
H1801 H 0.68072 0.77993 0.25036 0.0
H1802 H 0.65545 0.78968 0.22993 0.0
C1803 C 0.56263 0.80126 0.16692 0.0
C1804 C 0.61031 0.78298 0.17967 0.0
H1805 H 0.61949 0.75015 0.21161 0.0
C1806 C 0.62813 0.79124 0.1789 0.0
C1807 C 0.60728 0.76763 0.19112 0.0
C1808 C 0.5887 0.75753 0.19154 0.0
C1809 C 0.6429 0.78494 0.18991 0.0
C1810 C 0.63953 0.77023 0.20215 0.0
C1811 C 0.62191 0.76157 0.20237 0.0
C1812 C 0.65398 0.76391 0.21515 0.0
C1813 C 0.66199 0.794 0.18828 0.0
C1814 C 0.66074 0.7459 0.21423 0.0
C1815 C 0.67504 0.74024 0.22605 0.0
C1816 C 0.68272 0.75256 0.23888 0.0
C1817 C 0.67524 0.7703 0.24034 0.0
C1818 C 0.66092 0.7759 0.22863 0.0
H1819 H 0.66378 0.80117 0.17481 0.0
H1820 H 0.66329 0.80426 0.19962 0.0
H1821 H 0.67364 0.78391 0.18957 0.0
H1822 H 0.65535 0.7364 0.20402 0.0
H1823 H 0.68066 0.72654 0.2246 0.0
H1824 H 0.04335 0.21027 0.61696 0.0
H1825 H 0.0518 0.187 0.5941 0.0
H1826 H 0.03086 0.22095 0.55026 0.0
H1827 H 0.02174 0.24434 0.57332 0.0
H1828 H 0.01611 0.18834 0.54825 0.0
H1829 H 0.09273 0.17914 0.55597 0.0
H1830 H 0.08163 0.17832 0.57855 0.0
H1831 H 0.08038 0.19898 0.56516 0.0
C1832 C 0.04081 0.21302 0.60244 0.0
C1833 C 0.03172 0.22914 0.597 0.0
C1834 C 0.0459 0.19973 0.58931 0.0
C1835 C 0.04233 0.20235 0.5704 0.0
C1836 C 0.03391 0.21873 0.56478 0.0
H1837 H 0.07002 0.10123 0.5087 0.0
H1838 H 0.06989 0.13402 0.51571 0.0
C1839 C 0.02868 0.23205 0.57797 0.0
C1840 C 0.04502 0.18689 0.55722 0.0
H1841 H 0.07505 0.15136 0.54777 0.0
C1842 C 0.02918 0.18052 0.5477 0.0
C1843 C 0.06216 0.17687 0.55604 0.0
C1844 C 0.08022 0.18385 0.56433 0.0
C1845 C 0.02948 0.16354 0.53863 0.0
C1846 C 0.04587 0.15248 0.5396 0.0
C1847 C 0.0623 0.15964 0.54745 0.0
C1848 C 0.04559 0.1329 0.53447 0.0
C1849 C 0.012 0.15738 0.52868 0.0
C1850 C 0.03222 0.12139 0.54296 0.0
C1851 C 0.03225 0.10278 0.53896 0.0
C1852 C 0.04587 0.09522 0.52664 0.0
C1853 C 0.05946 0.10669 0.51835 0.0
C1854 C 0.05932 0.1254 0.52224 0.0
H1855 H 0.00417 0.16922 0.52306 0.0
H1856 H 0.01555 0.14781 0.51706 0.0
H1857 H 0.00239 0.15039 0.53869 0.0
H1858 H 0.02193 0.12676 0.55297 0.0
H1859 H 0.02186 0.09422 0.54582 0.0
H1860 H 0.55948 0.2564 0.34099 0.0
H1861 H 0.59049 0.25621 0.32529 0.0
H1862 H 0.61724 0.26666 0.37768 0.0
H1863 H 0.58622 0.26656 0.39357 0.0
H1864 H 0.61643 0.28337 0.3226 0.0
H1865 H 0.64809 0.22374 0.35743 0.0
H1866 H 0.6231 0.22885 0.35892 0.0
H1867 H 0.63942 0.24101 0.3733 0.0
C1868 C 0.57196 0.25854 0.34922 0.0
C1869 C 0.57035 0.26143 0.36857 0.0
C1870 C 0.5897 0.25845 0.3402 0.0
C1871 C 0.60627 0.26117 0.3503 0.0
C1872 C 0.60472 0.26413 0.36962 0.0
H1873 H 0.71539 0.29427 0.30394 0.0
H1874 H 0.68449 0.29249 0.31967 0.0
C1875 C 0.58696 0.26418 0.37868 0.0
C1876 C 0.62504 0.26155 0.34043 0.0
H1877 H 0.66889 0.24159 0.33866 0.0
C1878 C 0.62787 0.27419 0.32609 0.0
C1879 C 0.63992 0.24941 0.34477 0.0
C1880 C 0.63748 0.23486 0.35932 0.0
C1881 C 0.64521 0.27525 0.31621 0.0
C1882 C 0.66031 0.26356 0.32099 0.0
C1883 C 0.65739 0.25068 0.3351 0.0
C1884 C 0.67924 0.26452 0.31153 0.0
C1885 C 0.64706 0.28869 0.30051 0.0
C1886 C 0.68688 0.24924 0.30208 0.0
C1887 C 0.70466 0.25017 0.29313 0.0
C1888 C 0.71523 0.2664 0.29352 0.0
C1889 C 0.70761 0.2816 0.30319 0.0
C1890 C 0.68987 0.28064 0.31213 0.0
H1891 H 0.63301 0.29283 0.29526 0.0
H1892 H 0.65424 0.30113 0.30561 0.0
H1893 H 0.65562 0.28289 0.28874 0.0
H1894 H 0.67901 0.23662 0.30151 0.0
H1895 H 0.71012 0.23818 0.28591 0.0
H1896 H 0.47631 0.84196 0.11308 0.0
H1897 H 0.46571 0.86808 0.09544 0.0
H1898 H 0.47648 0.83848 0.04414 0.0
H1899 H 0.48782 0.81237 0.06179 0.0
H1900 H 0.49469 0.86926 0.04446 0.0
H1901 H 0.42117 0.88438 0.06673 0.0
H1902 H 0.43572 0.88196 0.08667 0.0
H1903 H 0.43236 0.86273 0.0713 0.0
C1904 C 0.47604 0.84083 0.09805 0.0
C1905 C 0.48312 0.82523 0.08879 0.0
C1906 C 0.46972 0.85573 0.08798 0.0
C1907 C 0.47001 0.85516 0.06846 0.0
C1908 C 0.47601 0.83915 0.0592 0.0
H1909 H 0.47101 0.95102 -0.00271 0.0
H1910 H 0.46259 0.9206 0.00811 0.0
C1911 C 0.48256 0.82429 0.06929 0.0
C1912 C 0.46734 0.87222 0.058 0.0
H1913 H 0.43984 0.91055 0.05617 0.0
C1914 C 0.48244 0.87805 0.04661 0.0
C1915 C 0.4514 0.88373 0.06088 0.0
C1916 C 0.43418 0.87775 0.07192 0.0
C1917 C 0.48261 0.89552 0.039 0.0
C1918 C 0.46722 0.9074 0.04284 0.0
C1919 C 0.45166 0.90136 0.05343 0.0
C1920 C 0.46805 0.92654 0.037 0.0
C1921 C 0.4997 0.90155 0.02774 0.0
C1922 C 0.4732 0.94002 0.04986 0.0
C1923 C 0.47812 0.95742 0.04376 0.0
C1924 C 0.47797 0.96146 0.02469 0.0
C1925 C 0.47146 0.94826 0.01205 0.0
C1926 C 0.46654 0.93091 0.01818 0.0
H1927 H 0.51129 0.89126 0.02765 0.0
H1928 H 0.49556 0.90393 0.01315 0.0
H1929 H 0.50521 0.9146 0.03336 0.0
H1930 H 0.47451 0.93676 0.06445 0.0
H1931 H 0.48298 0.96734 0.05382 0.0
H1932 H 0.94822 0.75876 0.87817 0.0
H1933 H 0.9168 0.75501 0.86446 0.0
H1934 H 0.93804 0.77691 0.81273 0.0
H1935 H 0.96915 0.78083 0.82617 0.0
H1936 H 0.89392 0.78483 0.8463 0.0
H1937 H 0.91228 0.72662 0.79926 0.0
H1938 H 0.92568 0.73203 0.81973 0.0
H1939 H 0.92871 0.74528 0.79901 0.0
C1940 C 0.9462 0.76271 0.86386 0.0
C1941 C 0.96127 0.77011 0.85332 0.0
C1942 C 0.92824 0.76059 0.85606 0.0
C1943 C 0.92514 0.76553 0.83751 0.0
C1944 C 0.94015 0.77282 0.82699 0.0
H1945 H 0.82621 0.79026 0.77328 0.0
H1946 H 0.85654 0.78989 0.7892 0.0
C1947 C 0.95795 0.77512 0.83478 0.0
C1948 C 0.90619 0.76359 0.82904 0.0
H1949 H 0.88301 0.74167 0.79408 0.0
C1950 C 0.89146 0.77528 0.83501 0.0
C1951 C 0.90299 0.7511 0.81434 0.0
C1952 C 0.91817 0.73791 0.80773 0.0
C1953 C 0.87381 0.77518 0.82626 0.0
C1954 C 0.87083 0.76313 0.81111 0.0
C1955 C 0.88535 0.75102 0.80557 0.0
C1956 C 0.85275 0.76302 0.80081 0.0
C1957 C 0.85844 0.78799 0.83325 0.0
C1958 C 0.84075 0.74783 0.80161 0.0
C1959 C 0.82338 0.74799 0.79253 0.0
C1960 C 0.81773 0.76328 0.78226 0.0
C1961 C 0.83009 0.77824 0.781 0.0
C1962 C 0.84739 0.77812 0.79022 0.0
H1963 H 0.86149 0.79352 0.84732 0.0
H1964 H 0.85731 0.79962 0.82356 0.0
H1965 H 0.84454 0.78099 0.83378 0.0
H1966 H 0.84465 0.73599 0.80961 0.0
H1967 H 0.81423 0.73624 0.79382 0.0
H1968 H 0.95357 0.02388 0.77546 0.0
H1969 H 0.96723 0.02224 0.8064 0.0
H1970 H 0.91625 0.04579 0.83051 0.0
H1971 H 0.90234 0.04721 0.79978 0.0
H1972 H 0.97417 0.05 0.83126 0.0
H1973 H 0.92379 0.00033 0.86178 0.0
H1974 H 0.92569 0.00436 0.83708 0.0
H1975 H 0.9122 0.01969 0.85191 0.0
C1976 C 0.94524 0.02868 0.78735 0.0
C1977 C 0.92682 0.03558 0.78518 0.0
C1978 C 0.95306 0.0277 0.80499 0.0
C1979 C 0.94258 0.03355 0.82072 0.0
C1980 C 0.92436 0.04077 0.81857 0.0
H1981 H 0.97935 0.06837 0.9278 0.0
H1982 H 0.96851 0.06532 0.89589 0.0
C1983 C 0.9165 0.04169 0.80098 0.0
C1984 C 0.95089 0.03274 0.83936 0.0
H1985 H 0.94298 0.01678 0.88323 0.0
C1986 C 0.96748 0.04259 0.84259 0.0
C1987 C 0.94228 0.02279 0.85399 0.0
C1988 C 0.92512 0.01104 0.851 0.0
C1989 C 0.9753 0.04337 0.86033 0.0
C1990 C 0.96603 0.03434 0.8752 0.0
C1991 C 0.94989 0.02387 0.87181 0.0
C1992 C 0.97253 0.03606 0.89451 0.0
C1993 C -0.00661 0.05385 0.86297 0.0
C1994 C 0.97777 0.02054 0.90445 0.0
C1995 C 0.98386 0.02224 0.92274 0.0
C1996 C 0.98476 0.03949 0.93133 0.0
C1997 C 0.97916 0.05496 0.92141 0.0
C1998 C 0.973 0.05324 0.90319 0.0
H1999 H 0.00151 0.05523 0.84966 0.0
H2000 H 0.9899 0.06777 0.86819 0.0
H2001 H 0.00256 0.04712 0.87326 0.0
H2002 H 0.97736 0.00715 0.89799 0.0
H2003 H 0.98824 0.01011 0.92999 0.0
H2004 H 0.77168 0.19106 0.55064 0.0
H2005 H 0.76412 0.20962 0.57832 0.0
H2006 H 0.74149 0.16229 0.6059 0.0
H2007 H 0.74892 0.14362 0.57843 0.0
H2008 H 0.71783 0.19594 0.60714 0.0
H2009 H 0.79233 0.20523 0.62931 0.0
H2010 H 0.78711 0.21008 0.60544 0.0
H2011 H 0.78552 0.18711 0.61367 0.0
C2012 C 0.76518 0.18457 0.56262 0.0
C2013 C 0.76098 0.16583 0.56235 0.0
C2014 C 0.76087 0.1952 0.57838 0.0
C2015 C 0.7523 0.18725 0.59406 0.0
C2016 C 0.74807 0.16861 0.59386 0.0
H2017 H 0.74093 0.21641 0.7082 0.0
H2018 H 0.74376 0.20158 0.67771 0.0
C2019 C 0.75243 0.15797 0.57818 0.0
C2020 C 0.74789 0.19822 0.61088 0.0
H2021 H 0.76841 0.21891 0.64797 0.0
C2022 C 0.72884 0.20113 0.61602 0.0
C2023 C 0.76236 0.20481 0.62237 0.0
C2024 C 0.78301 0.20162 0.61758 0.0
C2025 C 0.72388 0.21033 0.63262 0.0
C2026 C 0.73837 0.21667 0.64421 0.0
C2027 C 0.75739 0.21402 0.63892 0.0
C2028 C 0.73423 0.22509 0.66253 0.0
C2029 C 0.70329 0.21275 0.63802 0.0
C2030 C 0.72751 0.24307 0.66398 0.0
C2031 C 0.72599 0.25164 0.68141 0.0
C2032 C 0.73129 0.24232 0.69753 0.0
C2033 C 0.73707 0.224 0.696 0.0
C2034 C 0.73861 0.2155 0.67864 0.0
H2035 H 0.69378 0.20556 0.62829 0.0
H2036 H 0.70064 0.20756 0.6523 0.0
H2037 H 0.69964 0.22748 0.63811 0.0
H2038 H 0.72421 0.25069 0.65161 0.0
H2039 H 0.72165 0.2658 0.68215 0.0
H2040 H 0.57685 0.03082 0.32953 0.0
H2041 H 0.56806 0.02479 0.36195 0.0
H2042 H 0.61247 0.98446 0.36483 0.0
H2043 H 0.62133 0.99023 0.33243 0.0
H2044 H 0.57667 0.97289 0.37884 0.0
H2045 H 0.59843 0.0395 0.40836 0.0
H2046 H 0.5834 0.04154 0.38862 0.0
H2047 H 0.60651 0.03141 0.38575 0.0
C2048 C 0.58479 0.02072 0.33706 0.0
C2049 C 0.59981 0.01106 0.32844 0.0
C2050 C 0.57982 0.01736 0.35558 0.0
C2051 C 0.58982 0.00437 0.36572 0.0
C2052 C 0.6047 -0.00539 0.35717 0.0
H2053 H 0.56359 0.00246 0.48434 0.0
H2054 H 0.5826 -0.0017 0.45585 0.0
C2055 C 0.60972 -0.00203 0.33869 0.0
C2056 C 0.58431 0.00065 0.38515 0.0
H2057 H 0.57751 0.02152 0.4272 0.0
C2058 C 0.5771 0.98339 0.38954 0.0
C2059 C 0.58533 0.01427 0.39907 0.0
C2060 C 0.59402 0.03267 0.3953 0.0
C2061 C 0.56971 0.97978 0.40735 0.0
C2062 C 0.56939 -0.00612 0.42085 0.0
C2063 C 0.5777 0.01075 0.41676 0.0
C2064 C 0.55867 -0.00766 0.43854 0.0
C2065 C 0.56195 0.96108 0.41141 0.0
C2066 C 0.53901 0.98988 0.43824 0.0
C2067 C 0.52811 -0.00776 0.45444 0.0
C2068 C 0.53672 -0.0027 0.47114 0.0
C2069 C 0.55655 -0.00136 0.47165 0.0
C2070 C 0.56744 -0.00376 0.45542 0.0
H2071 H 0.56895 0.95052 0.40244 0.0
H2072 H 0.56381 0.95741 0.42622 0.0
H2073 H 0.5466 0.96091 0.40844 0.0
H2074 H 0.53194 0.98727 0.42526 0.0
H2075 H 0.51287 0.9911 0.45364 0.0
H2076 H 0.77114 0.83166 0.06046 0.0
H2077 H 0.77326 0.816 0.09035 0.0
H2078 H 0.75273 0.86445 0.11876 0.0
H2079 H 0.75158 0.88036 0.08914 0.0
H2080 H 0.77946 0.85116 0.13771 0.0
H2081 H 0.73255 0.79346 0.12064 0.0
H2082 H 0.75265 0.79454 0.1051 0.0
H2083 H 0.73542 0.81274 0.10549 0.0
C2084 C 0.76709 0.83895 0.0731 0.0
C2085 C 0.76116 0.85726 0.07237 0.0
C2086 C 0.76812 0.82992 0.09021 0.0
C2087 C 0.76274 0.83882 0.10696 0.0
C2088 C 0.75694 0.85716 0.10617 0.0
H2089 H 0.73559 0.78492 0.21193 0.0
H2090 H 0.73532 0.7992 0.18131 0.0
C2091 C 0.75626 0.86628 0.08915 0.0
C2092 C 0.76352 0.82938 0.12537 0.0
H2093 H 0.74934 0.79124 0.14887 0.0
C2094 C 0.77278 0.83808 0.14011 0.0
C2095 C 0.75459 0.81241 0.12879 0.0
C2096 C 0.74307 0.80284 0.11423 0.0
C2097 C 0.77337 0.83043 0.15799 0.0
C2098 C 0.76517 0.81309 0.16121 0.0
C2099 C 0.75586 0.80439 0.14648 0.0
C2100 C 0.76554 0.80402 0.17982 0.0
C2101 C 0.78221 0.84143 0.17337 0.0
C2102 C 0.78261 0.80156 0.18926 0.0
C2103 C 0.78273 0.79372 0.207 0.0
C2104 C 0.76584 0.78762 0.21552 0.0
C2105 C 0.74886 0.78944 0.20579 0.0
C2106 C 0.7487 0.79762 0.18822 0.0
H2107 H 0.78209 0.85624 0.17025 0.0
H2108 H 0.77469 0.83936 0.18689 0.0
H2109 H 0.79719 0.83718 0.17479 0.0
H2110 H 0.79592 0.80572 0.18294 0.0
H2111 H 0.79609 0.79232 0.21399 0.0
H2112 H 0.91606 0.07717 0.69491 0.0
H2113 H 0.93161 0.07731 0.66427 0.0
H2114 H 0.88713 0.04363 0.64253 0.0
H2115 H 0.8712 0.04391 0.67303 0.0
H2116 H 0.94469 0.04561 0.65013 0.0
H2117 H 0.89706 0.07765 0.59943 0.0
H2118 H 0.89401 0.0808 0.62426 0.0
H2119 H 0.8856 0.06041 0.61311 0.0
C2120 C 0.90931 0.07027 0.68344 0.0
C2121 C 0.89255 0.06038 0.68633 0.0
C2122 C 0.91818 0.07038 0.66597 0.0
C2123 C 0.91051 0.06052 0.65113 0.0
C2124 C 0.8931 0.05163 0.65368 0.0
H2125 H 0.95607 0.01178 0.55057 0.0
H2126 H 0.93668 0.02145 0.57751 0.0
C2127 C 0.88407 0.05171 0.67114 0.0
C2128 C 0.92214 0.05712 0.63415 0.0
H2129 H 0.92222 0.05893 0.58673 0.0
C2130 C 0.93988 0.04878 0.63629 0.0
C2131 C 0.91573 0.06107 0.61613 0.0
C2132 C 0.89713 0.07064 0.61307 0.0
C2133 C 0.95124 0.04392 0.62086 0.0
C2134 C 0.94472 0.04765 0.60286 0.0
C2135 C 0.92708 0.05611 0.60064 0.0
C2136 C 0.95603 0.04248 0.58621 0.0
C2137 C 0.96988 0.03438 0.62389 0.0
C2138 C 0.97321 0.05123 0.58227 0.0
C2139 C 0.98435 0.04573 0.56699 0.0
C2140 C 0.97843 0.03138 0.55541 0.0
C2141 C 0.96107 0.02278 0.55932 0.0
C2142 C 0.94993 0.02834 0.57459 0.0
H2143 H 0.97117 0.02948 0.63839 0.0
H2144 H 0.97162 0.02257 0.61422 0.0
H2145 H 0.98164 0.044 0.62102 0.0
H2146 H 0.97802 0.06227 0.59107 0.0
H2147 H -0.00243 0.05273 0.56425 0.0
H2148 H 0.79554 0.16448 0.43532 0.0
H2149 H 0.8027 0.18438 0.40926 0.0
H2150 H 0.79125 0.23157 0.44402 0.0
H2151 H 0.78358 0.2116 0.47025 0.0
H2152 H 0.77192 0.23237 0.41254 0.0
H2153 H 0.84644 0.21641 0.39468 0.0
H2154 H 0.83294 0.19585 0.39652 0.0
H2155 H 0.83568 0.21024 0.41674 0.0
C2156 C 0.79478 0.17909 0.43753 0.0
C2157 C 0.78888 0.18649 0.45479 0.0
C2158 C 0.79913 0.19047 0.42267 0.0
C2159 C 0.79793 0.20946 0.42482 0.0
C2160 C 0.79248 0.21694 0.44217 0.0
H2161 H 0.79111 0.28192 0.32847 0.0
H2162 H 0.79877 0.27256 0.36002 0.0
C2163 C 0.78803 0.20553 0.45708 0.0
C2164 C 0.79991 0.22115 0.40827 0.0
H2165 H 0.82711 0.22697 0.36904 0.0
C2166 C 0.7842 0.23164 0.40326 0.0
C2167 C 0.81597 0.22019 0.39623 0.0
C2168 C 0.83377 0.2102 0.40145 0.0
C2169 C 0.78351 0.24 0.38586 0.0
C2170 C 0.79902 0.23789 0.3733 0.0
C2171 C 0.81522 0.2284 0.37872 0.0
C2172 C 0.7976 0.24369 0.35383 0.0
C2173 C 0.76571 0.24998 0.38053 0.0
C2174 C 0.7951 0.23049 0.3399 0.0
C2175 C 0.79068 0.23574 0.32189 0.0
C2176 C 0.78875 0.25429 0.31761 0.0
C2177 C 0.79237 0.2675 0.33138 0.0
C2178 C 0.79676 0.26222 0.34939 0.0
H2179 H 0.75418 0.24859 0.39114 0.0
H2180 H 0.76885 0.26469 0.37889 0.0
H2181 H 0.76059 0.24476 0.36699 0.0
H2182 H 0.79568 0.2161 0.34317 0.0
H2183 H 0.78807 0.22525 0.31156 0.0
H2184 H 0.58051 -0.00035 0.23317 0.0
H2185 H 0.56355 0.00195 0.20403 0.0
H2186 H 0.61655 0.00686 0.17373 0.0
H2187 H 0.63373 0.00463 0.2029 0.0
H2188 H 0.58837 0.03429 0.16628 0.0
H2189 H 0.56044 0.96375 0.16112 0.0
H2190 H 0.55643 0.97483 0.18327 0.0
H2191 H 0.5802 0.96968 0.17552 0.0
C2192 C 0.58859 0.00107 0.22029 0.0
C2193 C 0.60845 0.00199 0.22027 0.0
C2194 C 0.57887 0.00228 0.20368 0.0
C2195 C 0.58885 0.00437 0.18682 0.0
C2196 C 0.60868 0.00514 0.18668 0.0
H2197 H 0.54435 0.00119 0.07604 0.0
H2198 H 0.56203 -0.00384 0.10427 0.0
C2199 C 0.61844 0.00386 0.20331 0.0
C2200 C 0.57846 0.00675 0.16947 0.0
H2201 H 0.54769 0.9856 0.14052 0.0
C2202 C 0.57955 0.02364 0.16055 0.0
C2203 C 0.56709 -0.00725 0.1621 0.0
C2204 C 0.56604 0.97416 0.17088 0.0
C2205 C 0.56921 0.02704 0.14452 0.0
C2206 C 0.55741 0.01322 0.13747 0.0
C2207 C 0.55662 -0.0038 0.14617 0.0
C2208 C 0.54618 0.01601 0.12071 0.0
C2209 C 0.5711 0.04528 0.13514 0.0
C2210 C 0.53124 0.02865 0.1208 0.0
C2211 C 0.52093 0.03146 0.1047 0.0
C2212 C 0.52541 0.02162 0.08832 0.0
C2213 C 0.54026 0.00877 0.08846 0.0
C2214 C 0.5505 0.00596 0.10454 0.0
H2215 H 0.5836 0.05295 0.14005 0.0
H2216 H 0.57234 0.04354 0.1198 0.0
H2217 H 0.55826 0.0536 0.13828 0.0
H2218 H 0.52757 0.03632 0.13331 0.0
H2219 H 0.50944 0.04126 0.10509 0.0
H2220 H 0.72402 0.87463 0.94711 0.0
H2221 H 0.72474 0.85758 0.91784 0.0
H2222 H 0.77916 0.83498 0.93151 0.0
H2223 H 0.77786 0.85131 0.9615 0.0
H2224 H 0.74633 0.86114 0.88975 0.0
H2225 H 0.75555 0.78996 0.91281 0.0
H2226 H 0.75005 0.80827 0.92893 0.0
H2227 H 0.77407 0.80444 0.92088 0.0
C2228 C 0.73598 0.86573 0.94404 0.0
C2229 C 0.75084 0.86423 0.95666 0.0
C2230 C 0.73643 0.85602 0.92722 0.0
C2231 C 0.75193 0.84477 0.92231 0.0
C2232 C 0.76676 0.84309 0.93504 0.0
H2233 H 0.77418 0.81712 0.80472 0.0
H2234 H 0.77338 0.8314 0.83558 0.0
C2235 C 0.76608 0.85251 0.95218 0.0
C2236 C 0.75284 0.83591 0.90343 0.0
H2237 H 0.76019 0.79538 0.88041 0.0
C2238 C 0.74924 0.84671 0.8878 0.0
C2239 C 0.75642 0.81703 0.90067 0.0
C2240 C 0.75904 0.80422 0.91673 0.0
C2241 C 0.74902 0.83929 0.86969 0.0
C2242 C 0.7534 0.82058 0.86683 0.0
C2243 C 0.757 0.80975 0.88244 0.0
C2244 C 0.75398 0.8119 0.84787 0.0
C2245 C 0.74342 0.85156 0.85395 0.0
C2246 C 0.74391 0.79575 0.84443 0.0
C2247 C 0.74476 0.78729 0.82686 0.0
C2248 C 0.75549 0.79489 0.81221 0.0
C2249 C 0.76546 0.81111 0.81558 0.0
C2250 C 0.76493 0.81935 0.83326 0.0
H2251 H 0.73454 0.86318 0.85906 0.0
H2252 H 0.75635 0.85733 0.84732 0.0
H2253 H 0.73542 0.84401 0.84323 0.0
H2254 H 0.73539 0.78963 0.85537 0.0
H2255 H 0.73702 0.77474 0.82477 0.0
H2256 H 0.80391 0.94716 0.98525 0.0
H2257 H 0.83459 0.96178 0.98821 0.0
H2258 H 0.84629 0.92871 0.03596 0.0
H2259 H 0.81562 0.91358 0.0328 0.0
H2260 H 0.84784 0.98221 0.01616 0.0
H2261 H 0.89443 0.92176 0.0056 0.0
H2262 H 0.86949 0.92128 0.00075 0.0
H2263 H 0.87741 0.91936 0.02428 0.0
C2264 C 0.81302 0.94283 -0.00367 0.0
C2265 C 0.80725 0.9291 0.00876 0.0
C2266 C 0.8306 0.95127 -0.00198 0.0
C2267 C 0.84293 0.94626 0.01217 0.0
C2268 C 0.83726 0.93256 0.02466 0.0
H2269 H 0.95331 0.98788 0.04367 0.0
H2270 H 0.92221 0.97345 0.04317 0.0
C2271 C 0.81965 0.92397 0.02289 0.0
C2272 C 0.86137 0.95588 0.01403 0.0
H2273 H 0.90932 0.94934 0.01441 0.0
C2274 C 0.86127 0.975 0.01573 0.0
C2275 C 0.87896 0.94652 0.01348 0.0
C2276 C 0.88017 0.92612 0.01075 0.0
C2277 C 0.87817 0.98496 0.01698 0.0
C2278 C 0.89571 0.9756 0.01637 0.0
C2279 C 0.89585 0.95649 0.01489 0.0
C2280 C 0.9141 0.98537 0.0171 0.0
C2281 C 0.87715 0.00542 0.01917 0.0
C2282 C 0.91986 -0.00301 0.00264 0.0
C2283 C 0.9377 0.00528 0.00284 0.0
C2284 C 0.95014 0.00209 0.01753 0.0
C2285 C 0.94411 0.99074 0.03217 0.0
C2286 C 0.92634 0.9824 0.0319 0.0
H2287 H 0.86278 0.0101 0.02363 0.0
H2288 H 0.88752 0.01028 0.02948 0.0
H2289 H 0.88068 0.01182 0.00562 0.0
H2290 H 0.91075 -0.00072 0.99094 0.0
H2291 H 0.94192 0.01381 0.99127 0.0
H2292 H 0.3382 0.63885 0.00536 0.0
H2293 H 0.37115 0.63065 -0.00158 0.0
H2294 H 0.36422 0.5809 0.02931 0.0
H2295 H 0.33133 0.5891 0.03663 0.0
H2296 H 0.39859 0.59859 0.03553 0.0
H2297 H 0.38442 0.59072 0.95999 0.0
H2298 H 0.37863 0.61258 0.97011 0.0
H2299 H 0.36569 0.59275 0.97732 0.0
C2300 C 0.34372 0.62623 0.01083 0.0
C2301 C 0.33209 0.6145 0.02137 0.0
C2302 C 0.36252 0.62156 0.00678 0.0
C2303 C 0.36994 0.60502 0.01304 0.0
C2304 C 0.35867 0.59369 0.02428 0.0
H2305 H 0.45311 0.52918 0.98172 0.0
H2306 H 0.42576 0.5495 0.98392 0.0
C2307 C 0.33989 0.59839 0.02843 0.0
C2308 C 0.38915 0.599 0.00727 0.0
H2309 H 0.41528 0.58414 0.96963 0.0
C2310 C 0.40238 0.59565 0.02111 0.0
C2311 C 0.39388 0.59509 0.98843 0.0
C2312 C 0.37991 0.59781 0.97307 0.0
C2313 C 0.42007 0.58787 0.0167 0.0
C2314 C 0.42469 0.5837 -0.00212 0.0
C2315 C 0.4117 0.58761 0.98398 0.0
C2316 C 0.44176 0.57299 -0.00717 0.0
C2317 C 0.43322 0.58323 0.0323 0.0
C2318 C 0.4599 0.57982 -0.00393 0.0
C2319 C 0.47562 0.56822 -0.00518 0.0
C2320 C 0.4733 0.54966 0.99033 0.0
C2321 C 0.45533 0.54337 0.98537 0.0
C2322 C 0.43968 0.55496 0.98661 0.0
H2323 H 0.42622 0.58473 0.04621 0.0
H2324 H 0.43854 0.56902 0.03074 0.0
H2325 H 0.4456 0.59248 0.0318 0.0
H2326 H 0.46176 0.59382 0.00058 0.0
H2327 H 0.48931 0.5735 -0.00136 0.0
H2328 H 0.18597 0.54276 0.77821 0.0
H2329 H 0.2096 0.56703 0.7768 0.0
H2330 H 0.16599 0.60587 0.7636 0.0
H2331 H 0.14226 0.58188 0.76517 0.0
H2332 H 0.21915 0.58993 0.74702 0.0
H2333 H 0.19232 0.62935 0.8081 0.0
H2334 H 0.18551 0.60604 0.80365 0.0
H2335 H 0.17407 0.62446 0.79182 0.0
C2336 C 0.18139 0.55648 0.77505 0.0
C2337 C 0.16221 0.56042 0.77192 0.0
C2338 C 0.19491 0.57029 0.77426 0.0
C2339 C 0.18942 0.58823 0.77045 0.0
C2340 C 0.17039 0.59215 0.76699 0.0
H2341 H 0.23957 0.68114 0.72415 0.0
H2342 H 0.22709 0.65084 0.73063 0.0
C2343 C 0.15688 0.57839 0.76778 0.0
C2344 C 0.20354 0.60293 0.76956 0.0
H2345 H 0.21216 0.64556 0.78636 0.0
C2346 C 0.21788 0.60199 0.75581 0.0
C2347 C 0.20209 0.6184 0.78135 0.0
C2348 C 0.18779 0.61957 0.79719 0.0
C2349 C 0.23006 0.61674 0.75271 0.0
C2350 C 0.22749 0.63285 0.76343 0.0
C2351 C 0.21397 0.63327 0.778 0.0
C2352 C 0.23732 0.64998 0.75882 0.0
C2353 C 0.24529 0.61505 0.73779 0.0
C2354 C 0.24705 0.65961 0.77256 0.0
C2355 C 0.25397 0.67703 0.76894 0.0
C2356 C 0.25125 0.68509 0.75153 0.0
C2357 C 0.24208 0.67516 0.73759 0.0
C2358 C 0.23504 0.65781 0.74126 0.0
H2359 H 0.24975 0.60061 0.73573 0.0
H2360 H 0.23964 0.61993 0.72442 0.0
H2361 H 0.2579 0.6233 0.74123 0.0
H2362 H 0.24885 0.65383 0.78623 0.0
H2363 H 0.26124 0.68429 0.77983 0.0
H2364 H 0.21102 0.43906 0.52471 0.0
H2365 H 0.1801 0.45413 0.52419 0.0
H2366 H 0.15298 0.40192 0.51822 0.0
H2367 H 0.18388 0.38669 0.51896 0.0
H2368 H 0.15404 0.45354 0.49605 0.0
H2369 H 0.12263 0.42561 0.56112 0.0
H2370 H 0.14765 0.42423 0.55564 0.0
H2371 H 0.13149 0.40858 0.54504 0.0
C2372 C 0.19848 0.43074 0.52344 0.0
C2373 C 0.19993 0.41165 0.52193 0.0
C2374 C 0.1808 0.4394 0.52311 0.0
C2375 C 0.16418 0.42916 0.52139 0.0
C2376 C 0.16556 0.41009 0.51993 0.0
H2377 H 0.0547 0.47005 0.48652 0.0
H2378 H 0.08534 0.4547 0.48887 0.0
C2379 C 0.18326 0.4014 0.52025 0.0
C2380 C 0.14552 0.43855 0.52041 0.0
H2381 H 0.10195 0.44213 0.5417 0.0
C2382 C 0.14266 0.45107 0.50606 0.0
C2383 C 0.13075 0.4355 0.5336 0.0
C2384 C 0.13327 0.42288 0.54983 0.0
C2385 C 0.12538 0.46041 0.50436 0.0
C2386 C 0.11041 0.45695 0.51722 0.0
C2387 C 0.11336 0.44464 0.53175 0.0
C2388 C 0.09166 0.46609 0.5159 0.0
C2389 C 0.1234 0.47414 0.489 0.0
C2390 C 0.08479 0.47727 0.5305 0.0
C2391 C 0.06721 0.48603 0.52924 0.0
C2392 C 0.0561 0.48369 0.51337 0.0
C2393 C 0.06293 0.47227 0.49888 0.0
C2394 C 0.0805 0.46354 0.50016 0.0
H2395 H 0.13741 0.47863 0.48349 0.0
H2396 H 0.11561 0.46783 0.47736 0.0
H2397 H 0.11532 0.48632 0.49395 0.0
H2398 H 0.09311 0.47937 0.54282 0.0
H2399 H 0.06236 0.49464 0.5407 0.0
H2400 H 0.84498 0.98872 0.74636 0.0
H2401 H 0.83274 0.95773 0.7478 0.0
H2402 H 0.8837 0.9374 0.72072 0.0
H2403 H 0.89603 0.96847 0.7189 0.0
H2404 H 0.85148 0.92345 0.70567 0.0
H2405 H 0.84884 0.91708 0.78235 0.0
H2406 H 0.83666 0.93703 0.77456 0.0
H2407 H 0.86182 0.93493 0.77066 0.0
C2408 C 0.85365 0.97768 0.74074 0.0
C2409 C 0.87152 0.98106 0.73257 0.0
C2410 C 0.84668 0.95996 0.74172 0.0
C2411 C 0.85751 0.94528 0.73474 0.0
C2412 C 0.87523 0.94858 0.72635 0.0
H2413 H 0.8199 0.83303 0.75326 0.0
H2414 H 0.83931 0.86063 0.75271 0.0
C2415 C 0.88221 0.96633 0.72529 0.0
C2416 C 0.84986 0.9266 0.73549 0.0
H2417 H 0.8304 0.89551 0.76515 0.0
C2418 C 0.8471 0.91722 0.71869 0.0
C2419 C 0.84449 0.91838 0.75251 0.0
C2420 C 0.84828 0.92729 0.77105 0.0
C2421 C 0.83821 0.90019 0.71839 0.0
C2422 C 0.83161 0.89259 0.73531 0.0
C2423 C 0.83525 0.90152 0.75218 0.0
C2424 C 0.82003 0.8759 0.7357 0.0
C2425 C 0.8358 0.89058 0.69994 0.0
C2426 C 0.80263 0.87556 0.72668 0.0
C2427 C 0.79155 0.85991 0.72702 0.0
C2428 C 0.79757 0.84434 0.73653 0.0
C2429 C 0.81483 0.84485 0.74593 0.0
C2430 C 0.82597 0.86054 0.74553 0.0
H2431 H 0.84648 0.89517 0.68946 0.0
H2432 H 0.83703 0.87556 0.70141 0.0
H2433 H 0.82157 0.89377 0.69456 0.0
H2434 H 0.79756 0.88748 0.71947 0.0
H2435 H 0.77815 0.86006 0.71999 0.0
H2436 H 0.73458 0.09413 0.49088 0.0
H2437 H 0.70585 0.07645 0.49661 0.0
H2438 H 0.67394 0.12623 0.5049 0.0
H2439 H 0.70253 0.14405 0.49886 0.0
H2440 H 0.68518 0.07719 0.52949 0.0
H2441 H 0.64046 0.09684 0.4703 0.0
H2442 H 0.66562 0.10097 0.47053 0.0
H2443 H 0.64955 0.11595 0.48304 0.0
C2444 C 0.72138 0.10132 0.49359 0.0
C2445 C 0.72079 0.12047 0.49446 0.0
C2446 C 0.70502 0.0912 0.4969 0.0
C2447 C 0.6878 0.10005 0.50105 0.0
C2448 C 0.68704 0.11917 0.50139 0.0
H2449 H 0.58991 0.05709 0.56008 0.0
H2450 H 0.61972 0.07211 0.55151 0.0
C2451 C 0.70339 0.12931 0.49801 0.0
C2452 C 0.67098 0.08928 0.50636 0.0
H2453 H 0.62508 0.08128 0.49528 0.0
C2454 C 0.67206 0.07796 0.52195 0.0
C2455 C 0.65399 0.09026 0.49639 0.0
C2456 C 0.65233 0.10152 0.47903 0.0
C2457 C 0.65644 0.06775 0.52804 0.0
C2458 C 0.63926 0.06922 0.51845 0.0
C2459 C 0.63827 0.08032 0.50268 0.0
C2460 C 0.62211 0.05922 0.52434 0.0
C2461 C 0.65855 0.05534 0.5445 0.0
C2462 C 0.61363 0.04709 0.5119 0.0
C2463 C 0.59664 0.03864 0.51672 0.0
C2464 C 0.58779 0.04222 0.53405 0.0
C2465 C 0.59657 0.05396 0.54674 0.0
C2466 C 0.61356 0.06251 0.54185 0.0
H2467 H 0.67364 0.05211 0.54709 0.0
H2468 H 0.65257 0.06221 0.55713 0.0
H2469 H 0.65078 0.04238 0.5424 0.0
H2470 H 0.62005 0.04435 0.49834 0.0
H2471 H 0.5903 0.02944 0.50679 0.0
H2472 H 0.13855 0.4371 0.79508 0.0
H2473 H 0.15493 0.408 0.79891 0.0
H2474 H 0.20805 0.43335 0.78422 0.0
H2475 H 0.1918 0.46258 0.7803 0.0
H2476 H 0.17726 0.39193 0.76796 0.0
H2477 H 0.21837 0.4025 0.83235 0.0
H2478 H 0.1974 0.41562 0.82732 0.0
H2479 H 0.21936 0.42043 0.81543 0.0
C2480 C 0.15375 0.43655 0.79286 0.0
C2481 C 0.16391 0.45206 0.78728 0.0
C2482 C 0.16305 0.41995 0.79512 0.0
C2483 C 0.18265 0.4187 0.79205 0.0
C2484 C 0.19293 0.43422 0.78693 0.0
H2485 H 0.26416 0.33179 0.78096 0.0
H2486 H 0.24788 0.36098 0.78614 0.0
C2487 C 0.18362 0.45082 0.78456 0.0
C2488 C 0.19202 0.40078 0.79229 0.0
H2489 H 0.22492 0.37555 0.81483 0.0
C2490 C 0.18757 0.38823 0.77827 0.0
C2491 C 0.20554 0.39626 0.8057 0.0
C2492 C 0.21043 0.40932 0.82117 0.0
C2493 C 0.19663 0.37128 0.77702 0.0
C2494 C 0.2101 0.36664 0.7905 0.0
C2495 C 0.21449 0.37917 0.80461 0.0
C2496 C 0.22013 0.34899 0.78971 0.0
C2497 C 0.19214 0.35876 0.76092 0.0
C2498 C 0.20994 0.33267 0.79067 0.0
C2499 C 0.21911 0.31606 0.78748 0.0
C2500 C 0.23867 0.31553 0.78361 0.0
C2501 C 0.24905 0.33183 0.78383 0.0
C2502 C 0.23981 0.34847 0.78682 0.0
H2503 H 0.18538 0.36622 0.7494 0.0
H2504 H 0.20513 0.35191 0.75535 0.0
H2505 H 0.18215 0.3481 0.76575 0.0
H2506 H 0.19479 0.33283 0.79332 0.0
H2507 H 0.21081 0.30368 0.78766 0.0
H2508 H 0.35002 0.58822 0.28194 0.0
H2509 H 0.32716 0.61228 0.28928 0.0
H2510 H 0.28833 0.58903 0.25016 0.0
H2511 H 0.31128 0.56475 0.24269 0.0
H2512 H 0.29897 0.62447 0.24253 0.0
H2513 H 0.27615 0.61953 0.31616 0.0
H2514 H 0.30125 0.61648 0.31342 0.0
H2515 H 0.28549 0.60025 0.30303 0.0
C2516 C 0.33642 0.58793 0.27526 0.0
C2517 C 0.3325 0.57477 0.26159 0.0
C2518 C 0.32326 0.60157 0.27963 0.0
C2519 C 0.30597 0.6023 0.27042 0.0
C2520 C 0.30153 0.58854 0.25756 0.0
H2521 H 0.25552 0.71163 0.26025 0.0
H2522 H 0.25617 0.67827 0.25889 0.0
C2523 C 0.31466 0.57475 0.25329 0.0
C2524 C 0.2946 0.61921 0.2717 0.0
H2525 H 0.27758 0.65027 0.30342 0.0
C2526 C 0.2937 0.62997 0.25571 0.0
C2527 C 0.2878 0.62626 0.28892 0.0
C2528 C 0.28754 0.61492 0.30631 0.0
C2529 C 0.28795 0.64825 0.2568 0.0
C2530 C 0.28251 0.65574 0.27432 0.0
C2531 C 0.28188 0.64451 0.29004 0.0
C2532 C 0.2801 0.67561 0.277 0.0
C2533 C 0.28934 0.65974 0.23949 0.0
C2534 C 0.2928 0.68506 0.28828 0.0
C2535 C 0.29234 0.70404 0.28928 0.0
C2536 C 0.27921 0.7139 0.2789 0.0
C2537 C 0.26598 0.70438 0.2682 0.0
C2538 C 0.26632 0.68535 0.26738 0.0
H2539 H 0.29694 0.65256 0.22787 0.0
H2540 H 0.2749 0.66311 0.23479 0.0
H2541 H 0.2968 0.67272 0.2424 0.0
H2542 H 0.30356 0.67776 0.29581 0.0
H2543 H 0.30264 0.71099 0.29772 0.0
H2544 H 0.50728 0.71764 0.58621 0.0
H2545 H 0.50244 0.68827 0.57011 0.0
H2546 H 0.52393 0.65982 0.61747 0.0
H2547 H 0.52871 0.68868 0.63353 0.0
H2548 H 0.52873 0.6593 0.56095 0.0
H2549 H 0.47256 0.63537 0.60962 0.0
H2550 H 0.47978 0.65893 0.60854 0.0
H2551 H 0.49364 0.64264 0.62101 0.0
C2552 C 0.51101 0.70513 0.59317 0.0
C2553 C 0.51827 0.70567 0.61128 0.0
C2554 C 0.50822 0.68833 0.58395 0.0
C2555 C 0.51244 0.67174 0.59271 0.0
C2556 C 0.52012 0.67232 0.61054 0.0
H2557 H 0.51098 0.55501 0.5697 0.0
H2558 H 0.51288 0.58572 0.58335 0.0
C2559 C 0.52295 0.68897 0.61969 0.0
C2560 C 0.50912 0.65371 0.58342 0.0
H2561 H 0.48627 0.61299 0.58918 0.0
C2562 C 0.51928 0.64925 0.56699 0.0
C2563 C 0.49687 0.64048 0.59132 0.0
C2564 C 0.48495 0.64461 0.6085 0.0
C2565 C 0.51802 0.63181 0.55866 0.0
C2566 C 0.50595 0.61849 0.56672 0.0
C2567 C 0.49558 0.62307 0.58299 0.0
C2568 C 0.50402 0.59971 0.55859 0.0
C2569 C 0.53021 0.62761 0.54167 0.0
C2570 C 0.49788 0.59716 0.54028 0.0
C2571 C 0.49677 0.57962 0.53245 0.0
C2572 C 0.50159 0.56408 0.54277 0.0
C2573 C 0.50711 0.56659 0.56133 0.0
C2574 C 0.50825 0.58419 0.56915 0.0
H2575 H 0.54223 0.63725 0.54029 0.0
H2576 H 0.53595 0.61351 0.54213 0.0
H2577 H 0.52152 0.62884 0.52906 0.0
H2578 H 0.49404 0.60878 0.53195 0.0
H2579 H 0.49238 0.57828 0.51816 0.0
H2580 H 0.60764 0.25791 0.91544 0.0
H2581 H 0.64014 0.26614 0.90604 0.0
H2582 H 0.62346 0.26756 0.84869 0.0
H2583 H 0.59129 0.25938 0.85781 0.0
H2584 H 0.66426 0.24637 0.87914 0.0
H2585 H 0.65007 0.31728 0.85773 0.0
H2586 H 0.6346 0.30499 0.8735 0.0
H2587 H 0.63313 0.30146 0.84876 0.0
C2588 C 0.61095 0.26002 0.90085 0.0
C2589 C 0.59694 0.25809 0.88736 0.0
C2590 C 0.62944 0.26476 0.89554 0.0
C2591 C 0.63396 0.26784 0.87676 0.0
C2592 C 0.62006 0.26565 0.86331 0.0
H2593 H 0.70881 0.27164 0.78962 0.0
H2594 H 0.68379 0.27399 0.81344 0.0
C2595 C 0.60173 0.26083 0.86854 0.0
C2596 C 0.65337 0.27235 0.87059 0.0
H2597 H 0.67683 0.30217 0.84243 0.0
C2598 C 0.66733 0.2588 0.87161 0.0
C2599 C 0.65722 0.28864 0.86092 0.0
C2600 C 0.643 0.30401 0.86031 0.0
C2601 C 0.68446 0.26036 0.86158 0.0
C2602 C 0.68757 0.27596 0.85053 0.0
C2603 C 0.67428 0.29019 0.85084 0.0
C2604 C 0.70296 0.27642 0.83643 0.0
C2605 C 0.69842 0.24473 0.86162 0.0
C2606 C 0.72194 0.27743 0.84155 0.0
C2607 C 0.73629 0.27604 0.82797 0.0
C2608 C 0.73179 0.27363 0.8091 0.0
C2609 C 0.71272 0.27337 0.80402 0.0
C2610 C 0.69843 0.27477 0.81759 0.0
H2611 H 0.69307 0.23294 0.86974 0.0
H2612 H 0.70163 0.2401 0.84714 0.0
H2613 H 0.71186 0.24936 0.86778 0.0
H2614 H 0.72563 0.2789 0.85604 0.0
H2615 H 0.75088 0.27645 0.8323 0.0
H2616 H 0.00244 0.33768 0.12582 0.0
H2617 H -0.00022 0.36753 0.11131 0.0
H2618 H 0.01845 0.34435 0.05875 0.0
H2619 H 0.02143 0.31432 0.07331 0.0
H2620 H 0.03639 0.37662 0.0663 0.0
H2621 H 0.95919 0.38597 0.07716 0.0
H2622 H 0.97122 0.38121 0.09833 0.0
H2623 H 0.97078 0.36424 0.0801 0.0
C2624 C 0.00587 0.33884 0.11113 0.0
C2625 C 0.01206 0.32348 0.10074 0.0
C2626 C 0.00422 0.35597 0.1028 0.0
C2627 C 0.00857 0.35827 0.08381 0.0
C2628 C 0.01487 0.34299 0.07339 0.0
H2629 H 0.98076 0.45696 0.02133 0.0
H2630 H 0.98239 0.42591 0.03354 0.0
C2631 C 0.01653 0.32578 0.08173 0.0
C2632 C 0.00709 0.3767 0.07507 0.0
H2633 H 0.97667 0.41242 0.06837 0.0
C2634 C 0.02329 0.38438 0.06666 0.0
C2635 C 0.98996 0.38686 0.07525 0.0
C2636 C 0.97175 0.37909 0.08302 0.0
C2637 C 0.02296 0.402 0.05895 0.0
C2638 C 0.00605 0.41248 0.05988 0.0
C2639 C 0.98972 0.40459 0.06782 0.0
C2640 C 0.00496 0.43156 0.05262 0.0
C2641 C 0.04073 0.4091 0.04961 0.0
C2642 C 0.01683 0.44532 0.05947 0.0
C2643 C 0.01594 0.46312 0.05249 0.0
C2644 C 0.00305 0.46769 0.03856 0.0
C2645 C 0.99089 0.45399 0.03201 0.0
C2646 C 0.99181 0.43618 0.03899 0.0
H2647 H 0.05045 0.39782 0.04529 0.0
H2648 H 0.03737 0.41728 0.03716 0.0
H2649 H 0.04833 0.41797 0.05953 0.0
H2650 H 0.02678 0.44232 0.0703 0.0
H2651 H 0.02545 0.47328 0.05798 0.0
H2652 H 0.98024 0.74378 0.37295 0.0
H2653 H 0.94976 0.74426 0.35747 0.0
H2654 H 0.97078 0.78506 0.31958 0.0
H2655 H 0.00134 0.78456 0.33476 0.0
H2656 H 0.92681 0.77497 0.35548 0.0
H2657 H 0.94529 0.74835 0.28496 0.0
H2658 H 0.96046 0.74532 0.30464 0.0
H2659 H 0.96028 0.76661 0.29242 0.0
C2660 C 0.97848 0.75267 0.36116 0.0
C2661 C -0.0068 0.76418 0.35512 0.0
C2662 C 0.96107 0.75291 0.35234 0.0
C2663 C 0.95815 0.76454 0.33729 0.0
C2664 C 0.97291 0.77572 0.33095 0.0
H2665 H 0.85534 0.81267 0.29892 0.0
H2666 H 0.88628 0.80587 0.31192 0.0
C2667 C 0.99032 0.7755 0.33974 0.0
C2668 C 0.93919 0.76621 0.32924 0.0
H2669 H 0.91545 0.7637 0.28847 0.0
C2670 C 0.92426 0.77233 0.34087 0.0
C2671 C 0.93594 0.7626 0.31023 0.0
C2672 C 0.9513 0.75518 0.29736 0.0
C2673 C 0.90622 0.7755 0.33384 0.0
C2674 C 0.90321 0.77273 0.31466 0.0
C2675 C 0.91795 0.76602 0.30314 0.0
C2676 C 0.88484 0.77688 0.30629 0.0
C2677 C 0.89055 0.78181 0.34696 0.0
C2678 C 0.87414 0.76288 0.29843 0.0
C2679 C 0.85655 0.76674 0.29089 0.0
C2680 C 0.84947 0.7847 0.291 0.0
C2681 C 0.86046 0.79874 0.29856 0.0
C2682 C 0.87803 0.79486 0.30613 0.0
H2683 H 0.89386 0.77892 0.36169 0.0
H2684 H 0.88862 0.79676 0.3456 0.0
H2685 H 0.87696 0.77513 0.34356 0.0
H2686 H 0.8793 0.74895 0.29831 0.0
H2687 H 0.84858 0.75568 0.28485 0.0
H2688 H 0.54095 0.32689 0.91963 0.0
H2689 H 0.5276 0.35047 0.94012 0.0
H2690 H 0.48887 0.31149 0.96406 0.0
H2691 H 0.50227 0.28758 0.94355 0.0
H2692 H 0.47238 0.34561 0.95034 0.0
H2693 H 0.53218 0.35715 -0.00241 0.0
H2694 H 0.5394 0.3558 0.97352 0.0
H2695 H 0.52926 0.33614 0.98463 0.0
C2696 C 0.52973 0.32324 0.92936 0.0
C2697 C 0.52265 0.30538 0.92995 0.0
C2698 C 0.52221 0.3367 0.94115 0.0
C2699 C 0.50744 0.33261 0.95371 0.0
C2700 C 0.5004 0.31479 0.95454 0.0
H2701 H 0.45591 0.42824 0.01231 0.0
H2702 H 0.46021 0.39562 0.00488 0.0
C2703 C 0.50808 0.3012 0.94285 0.0
C2704 C 0.49869 0.3475 0.96484 0.0
H2705 H 0.5108 0.3826 -0.0065 0.0
C2706 C 0.48047 0.35343 0.96026 0.0
C2707 C 0.50931 0.35754 0.9778 0.0
C2708 C 0.52856 0.35125 0.98383 0.0
C2709 C 0.47331 0.37013 0.96706 0.0
C2710 C 0.48467 0.38091 0.97869 0.0
C2711 C 0.50219 0.37424 0.98449 0.0
C2712 C 0.48027 0.40025 0.98233 0.0
C2713 C 0.45437 0.3769 0.96067 0.0
C2714 C 0.48987 0.41342 0.97184 0.0
C2715 C 0.48744 0.43184 0.97598 0.0
C2716 C 0.47541 0.43745 0.99074 0.0
C2717 C 0.46517 0.42426 0.00078 0.0
C2718 C 0.46766 0.4057 -0.00336 0.0
H2719 H 0.44678 0.36644 0.95244 0.0
H2720 H 0.4454 0.38094 0.97289 0.0
H2721 H 0.45643 0.3892 0.95197 0.0
H2722 H 0.49959 0.40938 0.96069 0.0
H2723 H 0.49526 0.44174 0.96784 0.0
H2724 H 0.96727 0.24511 0.19431 0.0
H2725 H 0.93573 0.25001 0.20763 0.0
H2726 H 0.92388 0.28924 0.16505 0.0
H2727 H 0.95562 0.28421 0.15131 0.0
H2728 H 0.92006 0.28187 0.22185 0.0
H2729 H 0.87818 0.255 0.16301 0.0
H2730 H 0.90331 0.25101 0.16473 0.0
H2731 H 0.89468 0.2728 0.15737 0.0
C2732 C 0.95801 0.25474 0.18764 0.0
C2733 C 0.96405 0.26424 0.17166 0.0
C2734 C 0.93994 0.25755 0.19534 0.0
C2735 C 0.92736 0.26989 0.1873 0.0
C2736 C 0.93324 0.27943 0.17134 0.0
H2737 H 0.82291 0.30171 0.24916 0.0
H2738 H 0.85341 0.30318 0.23237 0.0
C2739 C 0.95141 0.2766 0.16354 0.0
C2740 C 0.90829 0.27271 0.19603 0.0
H2741 H 0.86109 0.26593 0.18931 0.0
C2742 C 0.90714 0.27854 0.21469 0.0
C2743 C 0.89146 0.26821 0.18672 0.0
C2744 C 0.89185 0.26127 0.1669 0.0
C2745 C 0.88971 0.2796 0.22443 0.0
C2746 C 0.87288 0.275 0.21516 0.0
C2747 C 0.87398 0.26955 0.19637 0.0
C2748 C 0.85419 0.27448 0.22505 0.0
C2749 C 0.88957 0.28487 0.24477 0.0
C2750 C 0.84428 0.25798 0.22621 0.0
C2751 C 0.82684 0.25712 0.23568 0.0
C2752 C 0.81887 0.27277 0.24421 0.0
C2753 C 0.82874 0.28936 0.24292 0.0
C2754 C 0.8462 0.29021 0.23336 0.0
H2755 H 0.90391 0.28401 0.25077 0.0
H2756 H 0.88449 0.29914 0.24638 0.0
H2757 H 0.87988 0.27597 0.25293 0.0
H2758 H 0.85014 0.24567 0.2199 0.0
H2759 H 0.81962 0.24414 0.23631 0.0
H2760 H 0.02963 0.7034 0.45375 0.0
H2761 H 0.02942 0.67212 0.46526 0.0
H2762 H 0.02336 0.65175 0.40924 0.0
H2763 H 0.02382 0.68296 0.39754 0.0
H2764 H 0.00219 0.6447 0.46173 0.0
H2765 H 0.07054 0.62484 0.42745 0.0
H2766 H 0.06291 0.64829 0.4298 0.0
H2767 H 0.05309 0.63386 0.41215 0.0
C2768 C 0.02811 0.69227 0.44389 0.0
C2769 C 0.02688 0.69561 0.42473 0.0
C2770 C 0.02804 0.67443 0.45048 0.0
C2771 C 0.02679 0.65968 0.43803 0.0
C2772 C 0.0248 0.66298 0.41899 0.0
H2773 H 0.02024 0.54313 0.45619 0.0
H2774 H 0.02339 0.57322 0.44201 0.0
C2775 C 0.02491 0.68081 0.41237 0.0
C2776 C 0.02756 0.64085 0.44505 0.0
H2777 H 0.05364 0.60154 0.44315 0.0
C2778 C 0.01344 0.63527 0.45771 0.0
C2779 C 0.04228 0.62863 0.4397 0.0
C2780 C 0.05817 0.6342 0.42665 0.0
C2781 C 0.01358 0.61768 0.46512 0.0
C2782 C 0.02838 0.60553 0.45991 0.0
C2783 C 0.04238 0.61099 0.4471 0.0
C2784 C 0.02944 0.58712 0.46786 0.0
C2785 C -0.0022 0.61215 0.47833 0.0
C2786 C 0.03268 0.585 0.48688 0.0
C2787 C 0.03092 0.5679 0.49501 0.0
C2788 C 0.0259 0.55266 0.48422 0.0
C2789 C 0.02403 0.55462 0.46489 0.0
C2790 C 0.0258 0.57177 0.45676 0.0
H2791 H 0.98549 0.62159 0.47776 0.0
H2792 H -0.00707 0.59811 0.47512 0.0
H2793 H 0.00308 0.61229 0.49276 0.0
H2794 H 0.03578 0.59672 0.49556 0.0
H2795 H 0.03259 0.56682 0.50991 0.0
H2796 H 0.59195 0.75945 0.63827 0.0
H2797 H 0.62088 0.75903 0.65653 0.0
H2798 H 0.59109 0.78603 0.70199 0.0
H2799 H 0.56203 0.78571 0.68416 0.0
H2800 H 0.64253 0.78407 0.67051 0.0
H2801 H 0.61322 0.74473 0.72953 0.0
H2802 H 0.60054 0.74766 0.70826 0.0
H2803 H 0.59991 0.76521 0.72598 0.0
C2804 C 0.59158 0.76526 0.65218 0.0
C2805 C 0.57463 0.77243 0.65983 0.0
C2806 C 0.60814 0.76501 0.66263 0.0
C2807 C 0.60816 0.77207 0.6809 0.0
C2808 C 0.59139 0.77989 0.68824 0.0
H2809 H 0.71231 0.80023 0.73839 0.0
H2810 H 0.68262 0.80083 0.72149 0.0
C2811 C 0.57478 0.77986 0.67794 0.0
C2812 C 0.62574 0.77152 0.69214 0.0
H2813 H 0.64287 0.75928 0.73445 0.0
C2814 C 0.6426 0.77854 0.68445 0.0
C2815 C 0.62606 0.76401 0.71025 0.0
C2816 C 0.60901 0.7548 0.7189 0.0
C2817 C 0.65958 0.77854 0.69437 0.0
C2818 C 0.65964 0.77194 0.71286 0.0
C2819 C 0.64285 0.76463 0.72043 0.0
C2820 C 0.67704 0.77197 0.72437 0.0
C2821 C 0.67736 0.78515 0.68465 0.0
C2822 C 0.68334 0.75581 0.73269 0.0
C2823 C 0.70006 0.75556 0.74285 0.0
C2824 C 0.71097 0.77143 0.74481 0.0
C2825 C 0.70433 0.78773 0.73703 0.0
C2826 C 0.68744 0.78804 0.72715 0.0
H2827 H 0.67625 0.78413 0.66928 0.0
H2828 H 0.67961 0.79971 0.68826 0.0
H2829 H 0.68995 0.77722 0.68891 0.0
H2830 H 0.67557 0.74324 0.73092 0.0
H2831 H 0.7048 0.74274 0.74857 0.0
H2832 H 0.60622 0.47163 0.71992 0.0
H2833 H 0.5942 0.46771 0.68878 0.0
H2834 H 0.65096 0.4713 0.66581 0.0
H2835 H 0.66314 0.47595 0.69724 0.0
H2836 H 0.62808 0.4924 0.64745 0.0
H2837 H 0.59359 0.42574 0.65353 0.0
H2838 H 0.58533 0.43985 0.67246 0.0
H2839 H 0.6101 0.43379 0.67056 0.0
C2840 C 0.61623 0.47133 0.7083 0.0
C2841 C 0.63563 0.47409 0.711 0.0
C2842 C 0.60934 0.46889 0.69048 0.0
C2843 C 0.62173 0.46873 0.67498 0.0
C2844 C 0.64119 0.47117 0.67761 0.0
H2845 H 0.55257 0.45432 0.57658 0.0
H2846 H 0.5789 0.44907 0.59755 0.0
C2847 C 0.64811 0.47384 0.69553 0.0
C2848 C 0.61378 0.46789 0.65613 0.0
H2849 H 0.57842 0.44736 0.63242 0.0
C2850 C 0.61758 0.48228 0.64389 0.0
C2851 C 0.60055 0.45439 0.65113 0.0
C2852 C 0.59737 0.43748 0.66257 0.0
C2853 C 0.60714 0.48447 0.62768 0.0
C2854 C 0.59209 0.47235 0.62408 0.0
C2855 C 0.58959 0.45699 0.63538 0.0
C2856 C 0.57772 0.47613 0.60988 0.0
C2857 C 0.61215 0.49997 0.61486 0.0
C2858 C 0.5683 0.49307 0.60979 0.0
C2859 C 0.55355 0.49614 0.59759 0.0
C2860 C 0.54755 0.48214 0.58576 0.0
C2861 C 0.55688 0.46521 0.58582 0.0
C2862 C 0.57194 0.46227 0.59769 0.0
H2863 H 0.6276 0.50269 0.61495 0.0
H2864 H 0.60796 0.49708 0.60033 0.0
H2865 H 0.60483 0.51257 0.61983 0.0
H2866 H 0.57196 0.50376 0.61954 0.0
H2867 H 0.54639 0.50923 0.59777 0.0
H2868 H 0.75644 0.3388 0.98567 0.0
H2869 H 0.77188 0.32223 0.95996 0.0
H2870 H 0.75099 0.36177 0.92128 0.0
H2871 H 0.73526 0.37845 0.94692 0.0
H2872 H 0.74754 0.32489 0.9096 0.0
H2873 H 0.82012 0.34092 0.93314 0.0
H2874 H 0.80497 0.33058 0.95039 0.0
H2875 H 0.79937 0.35289 0.94191 0.0
C2876 C 0.75498 0.34394 0.97169 0.0
C2877 C 0.74476 0.36005 0.96835 0.0
C2878 C 0.76393 0.3345 0.95705 0.0
C2879 C 0.7629 0.34105 0.93887 0.0
C2880 C 0.75205 0.35665 0.93532 0.0
H2881 H 0.81117 0.31335 0.83236 0.0
H2882 H 0.80141 0.32922 0.86112 0.0
C2883 C 0.74305 0.36611 0.94996 0.0
C2884 C 0.77328 0.33167 0.92355 0.0
H2885 H 0.81771 0.32043 0.90756 0.0
C2886 C 0.76286 0.32391 0.90914 0.0
C2887 C 0.79329 0.33053 0.92304 0.0
C2888 C 0.80515 0.3393 0.93785 0.0
C2889 C 0.77196 0.31484 0.89424 0.0
C2890 C 0.79192 0.31364 0.8938 0.0
C2891 C 0.80239 0.32135 0.90816 0.0
C2892 C 0.80194 0.30495 0.87795 0.0
C2893 C 0.76027 0.30663 0.87896 0.0
C2894 C 0.80632 0.2863 0.87831 0.0
C2895 C 0.81195 0.27725 0.86193 0.0
C2896 C 0.81308 0.28679 0.84509 0.0
C2897 C 0.8103 0.30576 0.8452 0.0
C2898 C 0.80474 0.3148 0.86154 0.0
H2899 H 0.74483 0.30755 0.88209 0.0
H2900 H 0.76328 0.31384 0.86572 0.0
H2901 H 0.76418 0.29208 0.87677 0.0
H2902 H 0.80413 0.27857 0.89093 0.0
H2903 H 0.81382 0.26259 0.86213 0.0
H2904 H 0.87091 0.55254 0.18291 0.0
H2905 H 0.87463 0.55716 0.14929 0.0
H2906 H 0.93486 0.56327 0.15558 0.0
H2907 H 0.93129 0.55895 0.18901 0.0
H2908 H 0.91806 0.5875 0.12892 0.0
H2909 H 0.89853 0.51437 0.11906 0.0
H2910 H 0.88206 0.52941 0.13097 0.0
H2911 H 0.90388 0.52342 0.14175 0.0
C2912 C 0.88489 0.55514 0.17713 0.0
C2913 C 0.90088 0.55506 0.18849 0.0
C2914 C 0.88696 0.55779 0.15797 0.0
C2915 C 0.90502 0.56034 0.15003 0.0
C2916 C 0.92079 0.56136 0.16151 0.0
H2917 H 0.98667 0.5478 0.07224 0.0
H2918 H 0.96358 0.55899 0.09525 0.0
C2919 C 0.91875 0.55875 0.18059 0.0
C2920 C 0.90827 0.55974 0.12974 0.0
H2921 H 0.91507 0.52848 0.09491 0.0
C2922 C 0.91691 0.57478 0.12122 0.0
C2923 C 0.9065 0.54318 0.11971 0.0
C2924 C 0.89731 0.5266 0.12825 0.0
C2925 C 0.92545 0.57315 0.10354 0.0
C2926 C 0.92555 0.556 0.09445 0.0
C2927 C 0.91509 0.54158 0.10206 0.0
C2928 C 0.93911 0.55165 0.07917 0.0
C2929 C 0.93522 0.58949 0.09524 0.0
C2930 C 0.93299 0.5435 0.06265 0.0
C2931 C 0.94619 0.53684 0.04955 0.0
C2932 C 0.9657 0.5381 0.0529 0.0
C2933 C 0.97175 0.54661 0.06928 0.0
C2934 C 0.95856 0.55326 0.08232 0.0
H2935 H 0.92797 0.60233 0.09968 0.0
H2936 H 0.94995 0.5901 0.10028 0.0
H2937 H 0.93568 0.58875 0.0798 0.0
H2938 H 0.91802 0.54188 0.06013 0.0
H2939 H 0.94111 0.53038 0.03701 0.0
H2940 H 0.76632 0.65101 0.44372 0.0
H2941 H 0.76811 0.66802 0.41469 0.0
H2942 H 0.75694 0.71808 0.44491 0.0
H2943 H 0.75472 0.70104 0.47407 0.0
H2944 H 0.7358 0.71585 0.4141 0.0
H2945 H 0.81021 0.6997 0.39479 0.0
H2946 H 0.79638 0.67959 0.39867 0.0
H2947 H 0.80036 0.69521 0.41764 0.0
C2948 C 0.76438 0.66566 0.44426 0.0
C2949 C 0.76047 0.67465 0.4613 0.0
C2950 C 0.76553 0.67541 0.42761 0.0
C2951 C 0.76302 0.69443 0.42756 0.0
C2952 C 0.75906 0.70345 0.44455 0.0
H2953 H 0.78881 0.76085 0.32922 0.0
H2954 H 0.78851 0.74737 0.36031 0.0
C2955 C 0.75783 0.69368 0.46124 0.0
C2956 C 0.76379 0.70473 0.40971 0.0
H2957 H 0.79125 0.71222 0.3708 0.0
C2958 C 0.74799 0.71516 0.40471 0.0
C2959 C 0.77979 0.70413 0.39751 0.0
C2960 C 0.79772 0.69421 0.40249 0.0
C2961 C 0.74752 0.7245 0.38769 0.0
C2962 C 0.76313 0.72311 0.37506 0.0
C2963 C 0.77917 0.71314 0.38032 0.0
C2964 C 0.76304 0.73167 0.35627 0.0
C2965 C 0.73035 0.73595 0.38354 0.0
C2966 C 0.74895 0.72725 0.34349 0.0
C2967 C 0.74902 0.73501 0.32575 0.0
C2968 C 0.76332 0.74726 0.32024 0.0
C2969 C 0.77753 0.75155 0.33299 0.0
C2970 C 0.7774 0.74382 0.35078 0.0
H2971 H 0.72263 0.74016 0.3965 0.0
H2972 H 0.73432 0.74837 0.37568 0.0
H2973 H 0.7205 0.72782 0.375 0.0
H2974 H 0.738 0.71756 0.34712 0.0
H2975 H 0.73796 0.73122 0.31627 0.0
H2976 H 0.62727 0.48491 0.8277 0.0
H2977 H 0.61129 0.48409 0.85817 0.0
H2978 H 0.55796 0.49582 0.83256 0.0
H2979 H 0.57381 0.49707 0.80216 0.0
H2980 H 0.56506 0.51861 0.86118 0.0
H2981 H 0.57641 0.44706 0.8827 0.0
H2982 H 0.5979 0.45841 0.87596 0.0
H2983 H 0.57997 0.45446 0.859 0.0
C2984 C 0.6121 0.48707 0.82853 0.0
C2985 C 0.60182 0.49116 0.81254 0.0
C2986 C 0.60298 0.48646 0.84593 0.0
C2987 C 0.58342 0.48966 0.84756 0.0
C2988 C 0.57306 0.49325 0.83156 0.0
H2989 H 0.51512 0.48242 0.9498 0.0
H2990 H 0.52843 0.47728 0.91843 0.0
C2991 C 0.58216 0.494 0.81421 0.0
C2992 C 0.57402 0.49097 0.86606 0.0
H2993 H 0.56598 0.46804 0.90654 0.0
C2994 C 0.56512 0.50749 0.87103 0.0
C2995 C 0.57394 0.47637 0.87878 0.0
C2996 C 0.58241 0.45801 0.8738 0.0
C2997 C 0.55655 0.51 0.88858 0.0
C2998 C 0.55728 0.49573 0.90162 0.0
C2999 C 0.56567 0.479 0.89652 0.0
C3000 C 0.54978 0.49818 0.92077 0.0
C3001 C 0.54677 0.5279 0.893 0.0
C3002 C 0.55769 0.51136 0.93248 0.0
C3003 C 0.55011 0.51439 0.95027 0.0
C3004 C 0.53456 0.50417 0.95673 0.0
C3005 C 0.52701 0.49058 0.94516 0.0
C3006 C 0.53461 0.48759 0.92729 0.0
H3007 H 0.54296 0.53527 0.88016 0.0
H3008 H 0.5337 0.52578 0.90154 0.0
H3009 H 0.55643 0.53673 0.90103 0.0
H3010 H 0.56965 0.5194 0.92777 0.0
H3011 H 0.55637 0.52482 0.95892 0.0
H3012 H 0.74537 0.32466 0.06522 0.0
H3013 H 0.74469 0.30747 0.09428 0.0
H3014 H 0.7462 0.35778 0.12568 0.0
H3015 H 0.7468 0.3751 0.0968 0.0
H3016 H 0.77035 0.30838 0.12544 0.0
H3017 H 0.69737 0.33108 0.14425 0.0
H3018 H 0.7072 0.33279 0.12094 0.0
H3019 H 0.71332 0.34927 0.13844 0.0
C3020 C 0.74579 0.33205 0.07831 0.0
C3021 C 0.74598 0.35123 0.07877 0.0
C3022 C 0.74535 0.32222 0.09485 0.0
C3023 C 0.74498 0.33143 0.112 0.0
C3024 C 0.74609 0.3505 0.1125 0.0
H3025 H 0.74688 0.31446 0.22742 0.0
H3026 H 0.7426 0.32476 0.19561 0.0
C3027 C 0.74657 0.36034 0.09601 0.0
C3028 C 0.74315 0.32124 0.12949 0.0
H3029 H 0.71494 0.31692 0.16822 0.0
C3030 C 0.75815 0.30997 0.13472 0.0
C3031 C 0.72711 0.32334 0.14138 0.0
C3032 C 0.71023 0.33464 0.13594 0.0
C3033 C 0.75801 0.30153 0.15214 0.0
C3034 C 0.74228 0.30423 0.16435 0.0
C3035 C 0.72694 0.3149 0.15877 0.0
C3036 C 0.74236 0.2976 0.18363 0.0
C3037 C 0.77508 0.29056 0.15772 0.0
C3038 C 0.7429 0.27889 0.18741 0.0
C3039 C 0.74537 0.27293 0.2056 0.0
C3040 C 0.74729 0.28564 0.2202 0.0
C3041 C 0.74555 0.30434 0.21646 0.0
C3042 C 0.7431 0.31026 0.19831 0.0
H3043 H 0.7873 0.29243 0.14796 0.0
H3044 H 0.77948 0.29446 0.17195 0.0
H3045 H 0.77141 0.27587 0.15782 0.0
H3046 H 0.74203 0.26895 0.17624 0.0
H3047 H 0.74656 0.25843 0.20808 0.0
H3048 H 0.92913 0.53236 0.2997 0.0
H3049 H 0.94735 0.52748 0.32749 0.0
H3050 H -0.00516 0.50856 0.29381 0.0
H3051 H 0.97631 0.51285 0.2657 0.0
H3052 H 0.98832 0.48615 0.32156 0.0
H3053 H 0.9889 0.55576 0.35055 0.0
H3054 H 0.96499 0.54958 0.34578 0.0
H3055 H 0.98213 0.55111 0.3269 0.0
C3056 C 0.94353 0.5274 0.29811 0.0
C3057 C 0.95129 0.52302 0.28048 0.0
C3058 C 0.95402 0.52477 0.31404 0.0
C3059 C 0.97263 0.5181 0.31271 0.0
C3060 C 0.98056 0.51392 0.29512 0.0
H3061 H 0.01869 0.51138 0.4244 0.0
H3062 H 0.0177 0.51846 0.3912 0.0
C3063 C 0.96996 0.51636 0.2791 0.0
C3064 C 0.98289 0.51402 0.32992 0.0
H3065 H 0.99014 0.5312 0.37332 0.0
C3066 C 0.98917 0.4961 0.33275 0.0
C3067 C 0.98456 0.5271 0.34435 0.0
C3068 C 0.97998 0.547 0.34162 0.0
C3069 C -0.00447 0.49055 0.35017 0.0
C3070 C -0.00508 0.50311 0.36523 0.0
C3071 C 0.99021 0.5214 0.36193 0.0
C3072 C -0.00258 0.49738 0.38474 0.0
C3073 C 0.00248 0.47121 0.35226 0.0
C3074 C 0.98645 0.48314 0.39214 0.0
C3075 C 0.98727 0.47892 0.41099 0.0
C3076 C -0.00138 0.48923 0.42285 0.0
C3077 C 0.00969 0.50338 0.41548 0.0
C3078 C 0.00919 0.50736 0.39656 0.0
H3079 H 0.00926 0.46616 0.3391 0.0
H3080 H 0.01283 0.47003 0.36361 0.0
H3081 H 0.99026 0.46222 0.35539 0.0
H3082 H 0.97672 0.47568 0.3835 0.0
H3083 H 0.97847 0.46809 0.41648 0.0
H3084 H 0.74862 0.6412 0.59556 0.0
H3085 H 0.75244 0.65921 0.62379 0.0
H3086 H 0.76911 0.70561 0.59106 0.0
H3087 H 0.76554 0.68747 0.56242 0.0
H3088 H 0.79239 0.69972 0.62184 0.0
H3089 H 0.71686 0.69883 0.64381 0.0
H3090 H 0.72628 0.67645 0.63925 0.0
H3091 H 0.72472 0.69254 0.62058 0.0
C3092 C 0.75303 0.65526 0.59422 0.0
C3093 C 0.75664 0.66286 0.57657 0.0
C3094 C 0.75511 0.66559 0.61047 0.0
C3095 C 0.76073 0.68389 0.60961 0.0
C3096 C 0.76462 0.69155 0.59208 0.0
H3097 H 0.78021 0.7634 0.69932 0.0
H3098 H 0.77879 0.74804 0.66902 0.0
C3099 C 0.76253 0.68117 0.57571 0.0
C3100 C 0.76279 0.69471 0.62714 0.0
H3101 H 0.73884 0.70791 0.66687 0.0
C3102 C 0.78064 0.7017 0.6316 0.0
C3103 C 0.74747 0.69731 0.63992 0.0
C3104 C 0.72771 0.69105 0.6356 0.0
C3105 C 0.78372 0.71058 0.64874 0.0
C3106 C 0.76849 0.71277 0.66169 0.0
C3107 C 0.75057 0.7061 0.65705 0.0
C3108 C 0.77073 0.72184 0.68018 0.0
C3109 C 0.80339 0.71703 0.6531 0.0
C3110 C 0.7666 0.7123 0.69662 0.0
C3111 C 0.76739 0.72105 0.71401 0.0
C3112 C 0.77218 0.73962 0.71535 0.0
C3113 C 0.77663 0.74906 0.69886 0.0
C3114 C 0.77589 0.74027 0.68148 0.0
H3115 H 0.81428 0.71049 0.64387 0.0
H3116 H 0.80417 0.73199 0.65107 0.0
H3117 H 0.80685 0.71416 0.66779 0.0
H3118 H 0.7625 0.69809 0.69599 0.0
H3119 H 0.76373 0.71336 0.72635 0.0
H3120 H 0.6809 0.63721 0.5128 0.0
H3121 H 0.65146 0.61958 0.51249 0.0
H3122 H 0.68382 0.56962 0.50949 0.0
H3123 H 0.71315 0.58707 0.50945 0.0
H3124 H 0.65506 0.56946 0.48499 0.0
H3125 H 0.62815 0.59052 0.55498 0.0
H3126 H 0.63312 0.60925 0.53976 0.0
H3127 H 0.65213 0.59481 0.54714 0.0
C3128 C 0.68172 0.62247 0.51211 0.0
C3129 C 0.69939 0.61356 0.51122 0.0
C3130 C 0.66489 0.61239 0.51205 0.0
C3131 C 0.6654 0.59323 0.51126 0.0
C3132 C 0.68303 0.58436 0.51018 0.0
H3133 H 0.57061 0.52081 0.53624 0.0
H3134 H 0.60117 0.53646 0.5357 0.0
C3135 C 0.69981 0.59439 0.51018 0.0
C3136 C 0.64767 0.58231 0.51121 0.0
H3137 H 0.6072 0.5734 0.53629 0.0
C3138 C 0.64461 0.57031 0.49623 0.0
C3139 C 0.63416 0.58315 0.52601 0.0
C3140 C 0.63708 0.59498 0.54298 0.0
C3141 C 0.62834 0.55937 0.49551 0.0
C3142 C 0.61452 0.56068 0.51 0.0
C3143 C 0.61771 0.57247 0.52512 0.0
C3144 C 0.59654 0.55018 0.50964 0.0
C3145 C 0.62626 0.54629 0.47937 0.0
C3146 C 0.58379 0.55254 0.49512 0.0
C3147 C 0.56638 0.54353 0.49532 0.0
C3148 C 0.56122 0.53204 0.51016 0.0
C3149 C 0.57415 0.52944 0.52454 0.0
C3150 C 0.5916 0.53846 0.5243 0.0
H3151 H 0.64016 0.54304 0.4726 0.0
H3152 H 0.61954 0.53337 0.4839 0.0
H3153 H 0.61717 0.55262 0.46878 0.0
H3154 H 0.58706 0.56179 0.48386 0.0
H3155 H 0.55672 0.54602 0.48411 0.0
H3156 H 0.17898 0.93086 0.54526 0.0
H3157 H 0.14673 0.94094 0.55198 0.0
H3158 H 0.12715 0.88545 0.54793 0.0
H3159 H 0.15972 0.87512 0.54112 0.0
H3160 H 0.1079 0.91028 0.52577 0.0
H3161 H 0.1116 0.9367 0.59767 0.0
H3162 H 0.13108 0.94469 0.58364 0.0
H3163 H 0.12869 0.92064 0.58798 0.0
C3164 C 0.16788 0.92073 0.54597 0.0
C3165 C 0.17184 0.90221 0.54256 0.0
C3166 C 0.14949 0.92649 0.55006 0.0
C3167 C 0.13466 0.91388 0.55087 0.0
C3168 C 0.13851 0.89532 0.54765 0.0
H3169 H 0.02148 0.96091 0.53588 0.0
H3170 H 0.04374 0.93758 0.54607 0.0
C3171 C 0.15705 0.88948 0.54368 0.0
C3172 C 0.11506 0.92075 0.55275 0.0
H3173 H 0.08876 0.95176 0.57776 0.0
C3174 C 0.10333 0.91888 0.53738 0.0
C3175 C 0.10921 0.93185 0.56798 0.0
C3176 C 0.12075 0.93343 0.58533 0.0
C3177 C 0.08683 0.92938 0.53593 0.0
C3178 C 0.08187 0.94176 0.55047 0.0
C3179 C 0.0927 0.94236 0.56659 0.0
C3180 C 0.06743 0.95604 0.54784 0.0
C3181 C 0.07579 0.92831 0.51818 0.0
C3182 C 0.0732 0.97428 0.54648 0.0
C3183 C 0.06052 0.98766 0.54083 0.0
C3184 C 0.0419 0.98296 0.53639 0.0
C3185 C 0.03583 0.96489 0.53899 0.0
C3186 C 0.0485 0.95154 0.54477 0.0
H3187 H 0.08313 0.9199 0.50728 0.0
H3188 H 0.06177 0.9221 0.52112 0.0
H3189 H 0.07339 0.94216 0.51254 0.0
H3190 H 0.08778 0.97799 0.54883 0.0
H3191 H 0.06559 0.00147 0.53906 0.0
H3192 H 0.3846 0.95923 0.72945 0.0
H3193 H 0.3666 0.93212 0.73827 0.0
H3194 H 0.31728 0.96564 0.74965 0.0
H3195 H 0.33541 -0.0072 0.7416 0.0
H3196 H 0.32396 0.94441 0.7779 0.0
H3197 H 0.32677 0.90256 0.71349 0.0
H3198 H 0.34995 0.9089 0.72082 0.0
H3199 H 0.3335 0.92626 0.71383 0.0
C3200 C 0.36981 0.96073 0.73346 0.0
C3201 C 0.3614 0.97807 0.73492 0.0
C3202 C 0.35951 0.94524 0.73842 0.0
C3203 C 0.34054 0.94685 0.74445 0.0
C3204 C 0.33191 0.9641 0.74506 0.0
H3205 H 0.27095 0.85158 0.76451 0.0
H3206 H 0.28321 0.88071 0.75332 0.0
C3207 C 0.34227 0.97959 0.74043 0.0
C3208 C 0.33017 0.93086 0.75172 0.0
H3209 H 0.31799 0.88705 0.74155 0.0
C3210 C 0.32246 0.93192 0.76987 0.0
C3211 C 0.32804 0.91468 0.74117 0.0
C3212 C 0.33483 0.91308 0.72118 0.0
C3213 C 0.31298 0.91712 0.77789 0.0
C3214 C 0.31175 0.90062 0.76771 0.0
C3215 C 0.31912 0.89967 0.74942 0.0
C3216 C 0.30301 0.88407 0.77568 0.0
C3217 C 0.30418 0.91944 0.79708 0.0
C3218 C 0.30983 0.87648 0.79214 0.0
C3219 C 0.30259 0.86 0.7987 0.0
C3220 C 0.28878 0.85071 0.78863 0.0
C3221 C 0.28169 0.85851 0.77241 0.0
C3222 C 0.28868 0.87509 0.76603 0.0
H3223 H 0.301 0.934 0.80028 0.0
H3224 H 0.29089 0.91152 0.79855 0.0
H3225 H 0.31428 0.91453 0.80757 0.0
H3226 H 0.32122 0.88294 0.79956 0.0
H3227 H 0.30842 0.85404 0.81108 0.0
H3228 H 0.3061 0.08055 0.0354 0.0
H3229 H 0.33728 0.06777 0.02842 0.0
H3230 H 0.34649 0.10829 0.98614 0.0
H3231 H 0.31514 0.12149 -0.00673 0.0
H3232 H 0.35085 0.05297 -0.00463 0.0
H3233 H 0.39428 0.11219 0.01724 0.0
H3234 H 0.36945 0.11034 0.02326 0.0
H3235 H 0.37669 0.11676 0.00016 0.0
C3236 C 0.31471 0.08688 0.02466 0.0
C3237 C 0.30806 0.10212 0.01493 0.0
C3238 C 0.33257 0.07949 0.02066 0.0
C3239 C 0.3443 0.08711 0.00685 0.0
C3240 C 0.3378 0.10234 -0.00294 0.0
H3241 H 0.4471 0.02553 0.97156 0.0
H3242 H 0.41686 0.04202 0.97028 0.0
C3243 C 0.31985 0.10984 0.00111 0.0
C3244 C 0.36316 0.07874 0.00281 0.0
H3245 H 0.41066 0.08615 0.00619 0.0
C3246 C 0.36395 0.06026 -0.00246 0.0
C3247 C 0.38022 0.08826 0.00578 0.0
C3248 C 0.38025 0.10794 0.01206 0.0
C3249 C 0.38128 0.05088 -0.00429 0.0
C3250 C 0.39834 0.06033 -0.0011 0.0
C3251 C 0.39758 0.07895 0.00364 0.0
C3252 C 0.41694 0.05079 -0.00089 0.0
C3253 C 0.3811 0.03073 0.99127 0.0
C3254 C 0.42724 0.05057 0.01559 0.0
C3255 C 0.4445 0.0413 0.01633 0.0
C3256 C 0.45192 0.03201 0.00058 0.0
C3257 C 0.44171 0.0324 0.98398 0.0
C3258 C 0.4244 0.04178 0.98324 0.0
H3259 H 0.36675 0.02479 -0.00695 0.0
H3260 H 0.38576 0.02854 0.97658 0.0
H3261 H 0.39099 0.02323 0.00029 0.0
H3262 H 0.42179 0.05742 0.02801 0.0
H3263 H 0.45198 0.04136 0.02934 0.0
H3264 H 0.68333 0.54208 0.78203 0.0
H3265 H 0.69758 0.57198 0.7863 0.0
H3266 H 0.65439 0.59623 0.7528 0.0
H3267 H 0.63973 0.56632 0.74868 0.0
H3268 H 0.7119 0.59485 0.75934 0.0
H3269 H 0.65335 0.6281 0.79991 0.0
H3270 H 0.65468 0.60375 0.79625 0.0
H3271 H 0.64653 0.6183 0.77807 0.0
C3272 C 0.67677 0.55375 0.7756 0.0
C3273 C 0.66034 0.55182 0.76505 0.0
C3274 C 0.68496 0.57082 0.77806 0.0
C3275 C 0.67689 0.5863 0.77007 0.0
C3276 C 0.66059 0.58447 0.75939 0.0
H3277 H 0.73498 0.68916 0.7554 0.0
H3278 H 0.71842 0.66044 0.75081 0.0
C3279 C 0.65232 0.56737 0.75696 0.0
C3280 C 0.68597 0.60421 0.77254 0.0
H3281 H 0.67902 0.64691 0.79067 0.0
C3282 C 0.70474 0.60625 0.76619 0.0
C3283 C 0.6766 0.61893 0.78168 0.0
C3284 C 0.65674 0.61719 0.78953 0.0
C3285 C 0.71442 0.62268 0.76867 0.0
C3286 C 0.70491 0.63754 0.7774 0.0
C3287 C 0.68618 0.63549 0.78386 0.0
C3288 C 0.71429 0.65525 0.78019 0.0
C3289 C 0.73485 0.62386 0.76228 0.0
C3290 C 0.71694 0.66207 0.79823 0.0
C3291 C 0.72617 0.67864 0.80091 0.0
C3292 C 0.73283 0.6887 0.78558 0.0
C3293 C 0.72988 0.68189 0.76752 0.0
C3294 C 0.72061 0.66537 0.76485 0.0
H3295 H 0.74136 0.61014 0.76034 0.0
H3296 H 0.73565 0.63097 0.74873 0.0
H3297 H 0.74333 0.6317 0.77241 0.0
H3298 H 0.71202 0.65446 0.81023 0.0
H3299 H 0.72794 0.68362 0.81498 0.0
H3300 H 0.76703 0.45556 0.00687 0.0
H3301 H 0.79798 0.46975 0.00214 0.0
H3302 H 0.82538 0.41941 0.01701 0.0
H3303 H 0.79454 0.40535 0.02247 0.0
H3304 H 0.84304 0.44759 0.03163 0.0
H3305 H 0.83115 0.4608 0.95698 0.0
H3306 H 0.81374 0.47157 0.97192 0.0
H3307 H 0.8153 0.44707 0.9709 0.0
C3308 C 0.77966 0.44758 0.0093 0.0
C3309 C 0.77836 0.4293 0.0149 0.0
C3310 C 0.79732 0.45565 0.00642 0.0
C3311 C 0.81396 0.44547 0.00869 0.0
C3312 C 0.8127 0.42746 0.01502 0.0
H3313 H 0.92519 0.47236 0.96292 0.0
H3314 H 0.89357 0.45959 0.96878 0.0
C3315 C 0.79506 0.41947 0.01818 0.0
C3316 C 0.83273 0.45345 0.00433 0.0
H3317 H 0.85871 0.47391 0.96991 0.0
C3318 C 0.84649 0.4533 0.01812 0.0
C3319 C 0.83733 0.46054 0.98655 0.0
C3320 C 0.82367 0.45985 0.97068 0.0
C3321 C 0.86466 0.46025 0.01473 0.0
C3322 C 0.86895 0.46815 -0.00275 0.0
C3323 C 0.85529 0.46807 0.98336 0.0
C3324 C 0.88759 0.47645 -0.0069 0.0
C3325 C 0.87917 0.45864 0.02977 0.0
C3326 C 0.89441 0.49051 0.00446 0.0
C3327 C 0.91244 0.49757 0.00126 0.0
C3328 C 0.92381 0.491 0.9864 0.0
C3329 C 0.91663 0.47762 0.97443 0.0
C3330 C 0.89865 0.47032 0.97781 0.0
H3331 H 0.87561 0.44749 0.03958 0.0
H3332 H 0.89353 0.45603 0.02376 0.0
H3333 H 0.87949 0.47156 0.0379 0.0
H3334 H 0.88587 0.49589 0.01593 0.0
H3335 H 0.91757 0.50816 0.01044 0.0
H3336 H 0.37532 0.09671 0.77778 0.0
H3337 H 0.35818 0.12549 0.78092 0.0
H3338 H 0.30595 0.09813 0.76853 0.0
H3339 H 0.32303 0.06924 0.76513 0.0
H3340 H 0.3165 0.12477 0.74314 0.0
H3341 H 0.3199 0.1517 0.81529 0.0
H3342 H 0.34231 0.14372 0.80618 0.0
H3343 H 0.32328 0.12783 0.80963 0.0
C3344 C 0.36008 0.09668 0.77638 0.0
C3345 C 0.35055 0.08082 0.77086 0.0
C3346 C 0.35029 0.11314 0.7783 0.0
C3347 C 0.33084 0.11389 0.77492 0.0
C3348 C 0.32098 0.09775 0.7712 0.0
H3349 H 0.25997 0.20681 0.74975 0.0
H3350 H 0.27269 0.17604 0.75277 0.0
C3351 C 0.33077 0.08128 0.76927 0.0
C3352 C 0.32174 0.13167 0.77179 0.0
H3353 H 0.31332 0.1734 0.79148 0.0
C3354 C 0.31551 0.13534 0.75377 0.0
C3355 C 0.32078 0.14541 0.78564 0.0
C3356 C 0.32677 0.14195 0.80532 0.0
C3357 C 0.30884 0.15264 0.74906 0.0
C3358 C 0.30814 0.16647 0.76283 0.0
C3359 C 0.31405 0.16273 0.78094 0.0
C3360 C 0.30109 0.1849 0.75885 0.0
C3361 C 0.30317 0.15616 0.72927 0.0
C3362 C 0.31299 0.19998 0.76097 0.0
C3363 C 0.30579 0.2176 0.75928 0.0
C3364 C 0.28652 0.22034 0.7556 0.0
C3365 C 0.27489 0.20514 0.75253 0.0
C3366 C 0.28211 0.18755 0.75424 0.0
H3367 H 0.3089 0.14559 0.7195 0.0
H3368 H 0.2875 0.15598 0.72849 0.0
H3369 H 0.30816 0.16974 0.7246 0.0
H3370 H 0.3277 0.19811 0.76451 0.0
H3371 H 0.31509 0.22903 0.76177 0.0
H3372 H 0.21887 0.96604 0.26929 0.0
H3373 H 0.24158 0.941 0.27218 0.0
H3374 H 0.20372 0.91429 0.31093 0.0
H3375 H 0.18069 0.93899 0.30772 0.0
H3376 H 0.26038 0.92095 0.30088 0.0
H3377 H 0.20544 0.88109 0.26432 0.0
H3378 H 0.2042 0.90554 0.26684 0.0
H3379 H 0.19749 0.89114 0.28597 0.0
C3380 C 0.21558 0.95505 0.27878 0.0
C3381 C 0.19786 0.9542 0.28796 0.0
C3382 C 0.2286 0.94081 0.28046 0.0
C3383 C 0.22409 0.92569 0.29146 0.0
C3384 C 0.20726 0.92575 0.30213 0.0
H3385 H 0.28462 0.82499 0.30899 0.0
H3386 H 0.27423 0.85676 0.31189 0.0
C3387 C 0.19413 0.93983 0.30026 0.0
C3388 C 0.2354 0.90881 0.28949 0.0
H3389 H 0.23249 0.86506 0.27362 0.0
C3390 C 0.25437 0.90869 0.29492 0.0
C3391 C 0.22756 0.89303 0.28131 0.0
C3392 C 0.20762 0.89267 0.2741 0.0
C3393 C 0.26566 0.89296 0.29266 0.0
C3394 C 0.25759 0.87704 0.28498 0.0
C3395 C 0.23867 0.87731 0.27946 0.0
C3396 C 0.26806 0.85965 0.28267 0.0
C3397 C 0.28611 0.89359 0.29819 0.0
C3398 C 0.26842 0.85088 0.26524 0.0
C3399 C 0.27389 0.83266 0.26365 0.0
C3400 C 0.27933 0.82299 0.27943 0.0
C3401 C 0.28056 0.8322 0.29659 0.0
C3402 C 0.27475 0.85039 0.29824 0.0
H3403 H 0.29147 0.90781 0.29864 0.0
H3404 H 0.28745 0.88776 0.31229 0.0
H3405 H 0.29519 0.88546 0.28841 0.0
H3406 H 0.26331 0.8578 0.25305 0.0
H3407 H 0.27296 0.82589 0.25024 0.0
H3408 H 0.51434 0.34364 0.3917 0.0
H3409 H 0.51344 0.37218 0.40918 0.0
H3410 H 0.51093 0.34249 0.46061 0.0
H3411 H 0.51182 0.31346 0.44304 0.0
H3412 H 0.48523 0.3852 0.43542 0.0
H3413 H 0.55623 0.37848 0.46679 0.0
H3414 H 0.54928 0.36497 0.44696 0.0
H3415 H 0.54021 0.35967 0.46975 0.0
C3416 C 0.51361 0.34302 0.40675 0.0
C3417 C 0.51326 0.32608 0.41591 0.0
C3418 C 0.51305 0.35946 0.41674 0.0
C3419 C 0.51233 0.35959 0.43623 0.0
C3420 C 0.51174 0.34277 0.44556 0.0
H3421 H 0.5174 0.45223 0.51383 0.0
H3422 H 0.517 0.42198 0.49937 0.0
C3423 C 0.51213 0.32617 0.4355 0.0
C3424 C 0.51213 0.37746 0.44646 0.0
H3425 H 0.53889 0.40518 0.47392 0.0
C3426 C 0.49692 0.38953 0.44391 0.0
C3427 C 0.52737 0.38318 0.45756 0.0
C3428 C 0.54431 0.37102 0.46041 0.0
C3429 C 0.49648 0.40705 0.45216 0.0
C3430 C 0.51197 0.41301 0.46286 0.0
C3431 C 0.52706 0.40079 0.46565 0.0
C3432 C 0.5127 0.43172 0.47145 0.0
C3433 C 0.47919 0.41883 0.44959 0.0
C3434 C 0.51085 0.44752 0.46062 0.0
C3435 C 0.51096 0.46496 0.46891 0.0
C3436 C 0.51321 0.46705 0.48822 0.0
C3437 C 0.51565 0.45123 0.49893 0.0
C3438 C 0.51541 0.43384 0.49066 0.0
H3439 H 0.46661 0.41052 0.44613 0.0
H3440 H 0.47583 0.42701 0.46231 0.0
H3441 H 0.48185 0.42832 0.4379 0.0
H3442 H 0.50927 0.44639 0.44571 0.0
H3443 H 0.50913 0.47678 0.4602 0.0
H3444 H 0.45058 0.77524 0.13966 0.0
H3445 H 0.41859 0.77417 0.15316 0.0
H3446 H 0.43937 0.74416 0.19989 0.0
H3447 H 0.47144 0.74507 0.18656 0.0
H3448 H 0.40245 0.73223 0.18384 0.0
H3449 H 0.40785 0.80616 0.20157 0.0
H3450 H 0.41299 0.79945 0.17786 0.0
H3451 H 0.42839 0.79231 0.19597 0.0
C3452 C 0.44834 0.76817 0.15268 0.0
C3453 C 0.46359 0.76045 0.16218 0.0
C3454 C 0.43006 0.76759 0.16034 0.0
C3455 C 0.4268 0.75926 0.17755 0.0
C3456 C 0.44174 0.75066 0.18657 0.0
H3457 H 0.34655 0.77033 0.26605 0.0
H3458 H 0.37402 0.76806 0.24496 0.0
C3459 C 0.46003 0.75126 0.17896 0.0
C3460 C 0.40822 0.76086 0.18701 0.0
H3461 H 0.38009 0.79109 0.21112 0.0
C3462 C 0.39738 0.74509 0.18964 0.0
C3463 C 0.40191 0.7777 0.19463 0.0
C3464 C 0.41338 0.7949 0.19253 0.0
C3465 C 0.38039 0.7457 0.20002 0.0
C3466 C 0.37426 0.76249 0.20786 0.0
C3467 C 0.38491 0.77829 0.20494 0.0
C3468 C 0.35753 0.76371 0.2203 0.0
C3469 C 0.36941 0.72837 0.20315 0.0
C3470 C 0.33927 0.76216 0.21325 0.0
C3471 C 0.32353 0.76353 0.22523 0.0
C3472 C 0.32591 0.76644 0.24441 0.0
C3473 C 0.34427 0.76806 0.25136 0.0
C3474 C 0.35996 0.76678 0.23936 0.0
H3475 H 0.37721 0.71613 0.19787 0.0
H3476 H 0.36621 0.72662 0.21822 0.0
H3477 H 0.35572 0.72923 0.1959 0.0
H3478 H 0.33723 0.75995 0.1985 0.0
H3479 H 0.30955 0.76222 0.21948 0.0
H3480 H 0.009 0.72169 0.95382 0.0
H3481 H 0.0079 0.69166 0.96875 0.0
H3482 H 0.00529 0.66562 0.91492 0.0
H3483 H 0.00633 0.6954 0.89994 0.0
H3484 H 0.97987 0.66272 0.96582 0.0
H3485 H 0.05101 0.64067 0.9401 0.0
H3486 H 0.04351 0.66424 0.94028 0.0
H3487 H 0.03554 0.64892 0.92248 0.0
C3488 C 0.00813 0.70957 0.94516 0.0
C3489 C 0.00782 0.71104 0.92564 0.0
C3490 C 0.00749 0.6924 0.95372 0.0
C3491 C 0.00677 0.6763 0.94298 0.0
C3492 C 0.00614 0.67777 0.92353 0.0
H3493 H 0.97905 0.56462 0.97511 0.0
H3494 H 0.97962 0.5953 0.96184 0.0
C3495 C 0.00664 0.69488 0.91498 0.0
C3496 C 0.00672 0.65796 0.95196 0.0
H3497 H 0.03199 0.61816 0.95471 0.0
C3498 C 0.99129 0.653 0.96344 0.0
C3499 C 0.02169 0.64528 0.94902 0.0
C3500 C 0.03898 0.65002 0.93744 0.0
C3501 C 0.99025 0.63563 0.97169 0.0
C3502 C 0.00498 0.62277 0.96832 0.0
C3503 C 0.0206 0.6279 0.95718 0.0
C3504 C 0.00456 0.60402 0.9764 0.0
C3505 C 0.97349 0.63125 0.98415 0.0
C3506 C 0.01859 0.59844 0.98874 0.0
C3507 C 0.01829 0.58089 -0.00362 0.0
C3508 C 0.00406 0.56835 0.9917 0.0
C3509 C 0.99019 0.57388 0.9791 0.0
C3510 C 0.99043 0.59149 0.97157 0.0
H3511 H 0.96578 0.64377 0.98881 0.0
H3512 H 0.9635 0.62254 0.97638 0.0
H3513 H 0.97801 0.62364 -0.00341 0.0
H3514 H 0.02972 0.60776 -0.00738 0.0
H3515 H 0.02927 0.57715 0.00595 0.0
H3516 H 0.03011 0.28145 0.68792 0.0
H3517 H 0.05745 0.27786 0.70782 0.0
H3518 H 0.09405 0.29784 0.6639 0.0
H3519 H 0.06675 0.30151 0.64381 0.0
H3520 H 0.08799 0.254 0.69556 0.0
H3521 H 0.11224 0.32417 0.71223 0.0
H3522 H 0.08834 0.31924 0.70529 0.0
H3523 H 0.10719 0.31969 0.68819 0.0
C3524 C 0.04391 0.28546 0.68261 0.0
C3525 C 0.04634 0.2916 0.66424 0.0
C3526 C 0.05948 0.2834 0.69401 0.0
C3527 C 0.07766 0.28765 0.68731 0.0
C3528 C 0.08004 0.29473 0.66936 0.0
H3529 H 0.192 0.27025 0.72037 0.0
H3530 H 0.16251 0.27902 0.70565 0.0
C3531 C 0.06446 0.29674 0.65789 0.0
C3532 C 0.09429 0.28258 0.69819 0.0
H3533 H 0.13299 0.29982 0.71959 0.0
C3534 C 0.09777 0.26398 0.701 0.0
C3535 C 0.10696 0.2957 0.70507 0.0
C3536 C 0.1035 0.31585 0.70271 0.0
C3537 C 0.11399 0.25807 0.71009 0.0
C3538 C 0.12677 0.27118 0.71692 0.0
C3539 C 0.12311 0.28982 0.71435 0.0
C3540 C 0.14444 0.26582 0.72606 0.0
C3541 C 0.11765 0.23784 0.71164 0.0
C3542 C 0.14399 0.25553 0.74243 0.0
C3543 C 0.16084 0.25039 0.7508 0.0
C3544 C 0.17834 0.25573 0.74306 0.0
C3545 C 0.1787 0.26613 0.72674 0.0
C3546 C 0.16189 0.27112 0.71831 0.0
H3547 H 0.10912 0.22984 0.70167 0.0
H3548 H 0.13285 0.2346 0.70908 0.0
H3549 H 0.11373 0.23335 0.7259 0.0
H3550 H 0.13062 0.25163 0.74883 0.0
H3551 H 0.1602 0.24261 0.76352 0.0
H3552 H 0.52618 0.73831 0.0759 0.0
H3553 H 0.53292 0.7111 0.05693 0.0
H3554 H 0.55211 0.68295 0.10553 0.0
H3555 H 0.54589 0.71012 0.1245 0.0
H3556 H 0.5749 0.67637 0.07445 0.0
H3557 H 0.49874 0.66658 0.05909 0.0
H3558 H 0.50836 0.68817 0.0522 0.0
H3559 H 0.50663 0.68256 0.07646 0.0
C3560 C 0.53192 0.72636 0.08253 0.0
C3561 C 0.5353 0.7263 0.10175 0.0
C3562 C 0.53572 0.71083 0.07168 0.0
C3563 C 0.54271 0.69496 0.07991 0.0
C3564 C 0.54668 0.69507 0.09894 0.0
H3565 H 0.53137 0.58334 0.05125 0.0
H3566 H 0.5311 0.61415 0.06429 0.0
C3567 C 0.54305 0.7106 0.10976 0.0
C3568 C 0.54507 0.67789 0.06905 0.0
H3569 H 0.52022 0.64522 0.04615 0.0
C3570 C 0.563 0.66958 0.06811 0.0
C3571 C 0.52944 0.66907 0.06099 0.0
C3572 C 0.50967 0.67693 0.06232 0.0
C3573 C 0.56565 0.65241 0.05968 0.0
C3574 C 0.54999 0.64357 0.05172 0.0
C3575 C 0.53219 0.65212 0.05222 0.0
C3576 C 0.55126 0.62482 0.04414 0.0
C3577 C 0.58494 0.64354 0.06006 0.0
C3578 C 0.56282 0.62059 0.02859 0.0
C3579 C 0.56305 0.60291 0.02114 0.0
C3580 C 0.5515 0.58934 0.02901 0.0
C3581 C 0.54017 0.5936 0.04473 0.0
C3582 C 0.54006 0.61116 0.05222 0.0
H3583 H 0.59442 0.65045 0.07003 0.0
H3584 H 0.58376 0.62895 0.0639 0.0
H3585 H 0.59165 0.64423 0.046 0.0
H3586 H 0.57132 0.63104 0.02197 0.0
H3587 H 0.57175 0.59999 0.00891 0.0
H3588 H 0.08706 0.76454 0.89579 0.0
H3589 H 0.11837 0.76483 0.88042 0.0
H3590 H 0.09228 0.75932 0.82698 0.0
H3591 H 0.061 0.75917 0.84218 0.0
H3592 H 0.1362 0.73866 0.85673 0.0
H3593 H 0.12599 0.80445 0.82064 0.0
H3594 H 0.11068 0.79712 0.83951 0.0
H3595 H 0.10783 0.78793 0.81648 0.0
C3596 C 0.08799 0.7634 0.88076 0.0
C3597 C 0.07149 0.76195 0.87021 0.0
C3598 C 0.1059 0.76354 0.872 0.0
C3599 C 0.10769 0.76237 0.85252 0.0
C3600 C 0.09126 0.76059 0.842 0.0
H3601 H 0.21002 0.73905 0.78584 0.0
H3602 H 0.17899 0.73774 0.8016 0.0
C3603 C 0.07337 0.76041 0.85073 0.0
C3604 C 0.12669 0.76301 0.8432 0.0
H3605 H 0.15353 0.78744 0.81225 0.0
C3606 C 0.14001 0.74933 0.84702 0.0
C3607 C 0.13175 0.77706 0.8307 0.0
C3608 C 0.11841 0.79258 0.82667 0.0
C3609 C 0.15811 0.74918 0.83846 0.0
C3610 C 0.16298 0.76296 0.82557 0.0
C3611 C 0.14975 0.77678 0.82198 0.0
C3612 C 0.18186 0.76359 0.81599 0.0
C3613 C 0.172 0.73445 0.84355 0.0
C3614 C 0.19368 0.77873 0.81848 0.0
C3615 C 0.21138 0.77956 0.80943 0.0
C3616 C 0.21764 0.76532 0.79754 0.0
C3617 C 0.2057 0.75023 0.79493 0.0
C3618 C 0.18799 0.7494 0.80404 0.0
H3619 H 0.16787 0.72772 0.8568 0.0
H3620 H 0.17244 0.72389 0.8324 0.0
H3621 H 0.18647 0.74009 0.84491 0.0
H3622 H 0.18924 0.78988 0.82756 0.0
H3623 H 0.22015 0.7914 0.81177 0.0
H3624 H 0.9661 0.33897 0.62702 0.0
H3625 H 0.95827 0.36891 0.61446 0.0
H3626 H 0.97923 0.3517 0.56034 0.0
H3627 H 0.98729 0.32177 0.57278 0.0
H3628 H 0.9894 0.38979 0.59725 0.0
H3629 H 0.9283 0.38036 0.55077 0.0
H3630 H 0.93305 0.36534 0.56997 0.0
H3631 H 0.94668 0.36336 0.5487 0.0
C3632 C 0.96866 0.34141 0.61234 0.0
C3633 C 0.97747 0.3281 0.60089 0.0
C3634 C 0.96413 0.35849 0.60522 0.0
C3635 C 0.96802 0.36237 0.58649 0.0
C3636 C 0.97585 0.3488 0.57478 0.0
H3637 H 0.98514 0.44768 0.51085 0.0
H3638 H 0.9765 0.41996 0.52739 0.0
C3639 C 0.98057 0.33178 0.58193 0.0
C3640 C 0.96668 0.38124 0.57978 0.0
H3641 H 0.9462 0.40766 0.54694 0.0
C3642 C 0.97973 0.39389 0.5865 0.0
C3643 C 0.95413 0.38631 0.5657 0.0
C3644 C 0.93961 0.37321 0.55841 0.0
C3645 C 0.98139 0.41125 0.5787 0.0
C3646 C 0.96916 0.41625 0.56421 0.0
C3647 C 0.9555 0.40382 0.55809 0.0
C3648 C 0.97175 0.43349 0.55398 0.0
C3649 C -0.00294 0.42355 0.58525 0.0
C3650 C 0.9713 0.45039 0.5633 0.0
C3651 C 0.97663 0.46623 0.55396 0.0
C3652 C 0.98202 0.46544 0.53504 0.0
C3653 C 0.98114 0.44871 0.52545 0.0
C3654 C 0.97614 0.43286 0.53487 0.0
H3655 H 0.00779 0.416 0.59328 0.0
H3656 H 0.00436 0.43019 0.5733 0.0
H3657 H 0.99096 0.43436 0.59447 0.0
H3658 H 0.96745 0.45123 0.57794 0.0
H3659 H 0.97692 0.47901 0.56162 0.0
H3660 H 0.45062 0.24847 0.3724 0.0
H3661 H 0.41966 0.2439 0.35802 0.0
H3662 H 0.43283 0.28569 0.31807 0.0
H3663 H 0.46355 0.29013 0.33199 0.0
H3664 H 0.38955 0.2679 0.35251 0.0
H3665 H 0.4182 0.24357 0.2845 0.0
H3666 H 0.43255 0.24512 0.30494 0.0
H3667 H 0.42801 0.26507 0.29128 0.0
C3668 C 0.44691 0.25667 0.36055 0.0
C3669 C 0.45973 0.26954 0.35329 0.0
C3670 C 0.42921 0.25403 0.35233 0.0
C3671 C 0.42406 0.26415 0.33665 0.0
C3672 C 0.43663 0.27733 0.32978 0.0
H3673 H 0.3281 0.28348 0.26716 0.0
H3674 H 0.35862 0.28264 0.28271 0.0
C3675 C 0.45422 0.27993 0.33789 0.0
C3676 C 0.40551 0.26136 0.32751 0.0
H3677 H 0.38574 0.25318 0.28518 0.0
C3678 C 0.3887 0.26443 0.33786 0.0
C3679 C 0.40435 0.25681 0.30836 0.0
C3680 C 0.42173 0.25227 0.29666 0.0
C3681 C 0.37088 0.26383 0.32941 0.0
C3682 C 0.36981 0.25986 0.31014 0.0
C3683 C 0.38657 0.25635 0.29991 0.0
C3684 C 0.35147 0.25977 0.30025 0.0
C3685 C 0.35338 0.26812 0.34102 0.0
C3686 C 0.33743 0.24692 0.30461 0.0
C3687 C 0.32 0.24728 0.29565 0.0
C3688 C 0.31621 0.26051 0.28212 0.0
C3689 C 0.3305 0.27309 0.27747 0.0
C3690 C 0.34796 0.27265 0.28637 0.0
H3691 H 0.35687 0.27448 0.3546 0.0
H3692 H 0.34383 0.27744 0.33348 0.0
H3693 H 0.34556 0.25531 0.3438 0.0
H3694 H 0.33992 0.23666 0.31503 0.0
H3695 H 0.30935 0.23738 0.29961 0.0
H3696 H 0.39639 0.54395 0.2999 0.0
H3697 H 0.40743 0.54526 0.33186 0.0
H3698 H 0.46104 0.52207 0.31402 0.0
H3699 H 0.4503 0.52095 0.28194 0.0
H3700 H 0.42023 0.51726 0.35474 0.0
H3701 H 0.4758 0.56908 0.34134 0.0
H3702 H 0.45737 0.56422 0.32502 0.0
H3703 H 0.47755 0.54932 0.32647 0.0
C3704 C 0.41054 0.53912 0.30274 0.0
C3705 C 0.42254 0.53248 0.28835 0.0
C3706 C 0.41678 0.53986 0.32101 0.0
C3707 C 0.43511 0.53401 0.32517 0.0
C3708 C 0.44697 0.52698 0.31096 0.0
H3709 H 0.48195 0.51089 0.43261 0.0
H3710 H 0.46778 0.50891 0.40191 0.0
C3711 C 0.44077 0.52629 0.29267 0.0
C3712 C 0.44185 0.53537 0.3444 0.0
H3713 H 0.47566 0.55507 0.37096 0.0
C3714 C 0.4323 0.52557 0.35835 0.0
C3715 C 0.45741 0.54644 0.34901 0.0
C3716 C 0.46754 0.55801 0.33472 0.0
C3717 C 0.43816 0.52629 0.37685 0.0
C3718 C 0.45415 0.53686 0.38132 0.0
C3719 C 0.46348 0.54688 0.36741 0.0
C3720 C 0.46153 0.53777 0.40035 0.0
C3721 C 0.42707 0.51597 0.39146 0.0
C3722 C 0.46288 0.55467 0.40947 0.0
C3723 C 0.47108 0.55584 0.42691 0.0
C3724 C 0.47807 0.54013 0.43549 0.0
C3725 C 0.47642 0.52317 0.42645 0.0
C3726 C 0.46831 0.52201 0.40894 0.0
H3727 H 0.41255 0.51275 0.3868 0.0
H3728 H 0.4344 0.5029 0.39426 0.0
H3729 H 0.42601 0.52386 0.40469 0.0
H3730 H 0.45774 0.56698 0.40301 0.0
H3731 H 0.47196 0.56904 0.43368 0.0
H3732 H 0.27152 0.69555 0.05072 0.0
H3733 H 0.26569 0.71788 0.07581 0.0
H3734 H 0.24741 0.67474 0.11225 0.0
H3735 H 0.25306 0.65241 0.08745 0.0
H3736 H 0.22323 0.70718 0.11195 0.0
H3737 H 0.29967 0.72159 0.12282 0.0
H3738 H 0.29085 0.72347 0.09959 0.0
H3739 H 0.29191 0.70156 0.11041 0.0
C3740 C 0.26626 0.69083 0.06408 0.0
C3741 C 0.26288 0.67218 0.06712 0.0
C3742 C 0.26294 0.70359 0.07836 0.0
C3743 C 0.2562 0.69788 0.09582 0.0
C3744 C 0.25258 0.67937 0.09881 0.0
H3745 H 0.25705 0.72808 0.20774 0.0
H3746 H 0.25844 0.71522 0.17635 0.0
C3747 C 0.25592 0.66663 0.08463 0.0
C3748 C 0.25344 0.71091 0.1114 0.0
H3749 H 0.27782 0.73465 0.14406 0.0
C3750 C 0.23508 0.71352 0.11881 0.0
C3751 C 0.26901 0.71899 0.12027 0.0
C3752 C 0.28902 0.71627 0.11301 0.0
C3753 C 0.23198 0.72344 0.13537 0.0
C3754 C 0.24764 0.73086 0.14461 0.0
C3755 C 0.26588 0.72894 0.13679 0.0
C3756 C 0.24574 0.73871 0.1635 0.0
C3757 C 0.21219 0.7251 0.14347 0.0
C3758 C 0.23793 0.7561 0.16658 0.0
C3759 C 0.23724 0.76358 0.18456 0.0
C3760 C 0.24442 0.75376 0.19962 0.0
C3761 C 0.25175 0.73614 0.19642 0.0
C3762 C 0.25247 0.72873 0.17852 0.0
H3763 H 0.20166 0.71769 0.13502 0.0
H3764 H 0.21175 0.71964 0.15783 0.0
H3765 H 0.20803 0.73969 0.14431 0.0
H3766 H 0.23276 0.76399 0.15506 0.0
H3767 H 0.23166 0.77724 0.18656 0.0
H3768 H 0.0814 0.5349 0.83906 0.0
H3769 H 0.07583 0.53003 0.87226 0.0
H3770 H 0.12296 0.4925 0.87321 0.0
H3771 H 0.12856 0.49709 0.83997 0.0
H3772 H 0.09029 0.47855 0.88886 0.0
H3773 H 0.10493 0.54701 0.91777 0.0
H3774 H 0.08907 0.5481 0.89863 0.0
H3775 H 0.11291 0.53995 0.89477 0.0
C3776 C 0.09072 0.52578 0.84635 0.0
C3777 C 0.10536 0.51635 0.83687 0.0
C3778 C 0.08762 0.52312 0.86535 0.0
C3779 C 0.09919 0.51113 0.87517 0.0
C3780 C 0.114 0.50192 0.86585 0.0
H3781 H 0.06502 0.50962 0.9923 0.0
H3782 H 0.08743 0.50657 0.9661 0.0
C3783 C 0.11713 0.50455 0.84686 0.0
C3784 C 0.09465 0.50708 0.89478 0.0
H3785 H 0.08382 0.52801 0.93607 0.0
C3786 C 0.08928 0.48925 0.89935 0.0
C3787 C 0.0938 0.52096 0.90851 0.0
C3788 C 0.10069 0.54003 0.90473 0.0
C3789 C 0.08149 0.48529 0.91691 0.0
C3790 C 0.07878 0.49961 0.92996 0.0
C3791 C 0.08571 0.51707 0.92594 0.0
C3792 C 0.06643 0.49761 0.94658 0.0
C3793 C 0.07555 0.466 0.92104 0.0
C3794 C 0.04732 0.49315 0.94431 0.0
C3795 C 0.03449 0.4949 0.95919 0.0
C3796 C 0.04056 0.50131 0.97652 0.0
C3797 C 0.05992 0.5047 0.97907 0.0
C3798 C 0.07275 0.50294 0.96415 0.0
H3799 H 0.0846 0.45603 0.91321 0.0
H3800 H 0.07629 0.46303 0.93613 0.0
H3801 H 0.06075 0.464 0.91658 0.0
H3802 H 0.04207 0.48943 0.93075 0.0
H3803 H 0.01968 0.49216 0.95681 0.0
H3804 H 0.25809 0.32853 0.55967 0.0
H3805 H 0.25871 0.31286 0.58971 0.0
H3806 H 0.26873 0.3641 0.61753 0.0
H3807 H 0.26804 0.37982 0.58771 0.0
H3808 H 0.28717 0.31108 0.61709 0.0
H3809 H 0.22176 0.34415 0.64516 0.0
H3810 H 0.22832 0.34455 0.62077 0.0
H3811 H 0.23935 0.35988 0.63687 0.0
C3812 C 0.2605 0.33645 0.57217 0.0
C3813 C 0.26291 0.35547 0.57124 0.0
C3814 C 0.26085 0.32747 0.58935 0.0
C3815 C 0.26346 0.33733 0.60596 0.0
C3816 C 0.26633 0.35623 0.60499 0.0
H3817 H 0.29266 0.29885 0.71614 0.0
H3818 H 0.29254 0.31175 0.68485 0.0
C3819 C 0.26604 0.36519 0.58787 0.0
C3820 C 0.26309 0.32795 0.62432 0.0
H3821 H 0.23988 0.32721 0.66654 0.0
C3822 C 0.27678 0.31455 0.62788 0.0
C3823 C 0.24939 0.33227 0.63835 0.0
C3824 C 0.23375 0.34587 0.6351 0.0
C3825 C 0.27744 0.30572 0.6452 0.0
C3826 C 0.26416 0.31054 0.65946 0.0
C3827 C 0.25018 0.32361 0.65572 0.0
C3828 C 0.26447 0.30221 0.67835 0.0
C3829 C 0.29221 0.29115 0.64799 0.0
C3830 C 0.24862 0.29281 0.68537 0.0
C3831 C 0.24862 0.28544 0.70331 0.0
C3832 C 0.26444 0.28745 0.71475 0.0
C3833 C 0.28028 0.29692 0.70771 0.0
C3834 C 0.28028 0.30423 0.68974 0.0
H3835 H 0.29782 0.28565 0.63451 0.0
H3836 H 0.30422 0.29708 0.65565 0.0
H3837 H 0.28636 0.2797 0.65629 0.0
H3838 H 0.23621 0.29115 0.67693 0.0
H3839 H 0.23613 0.27833 0.70827 0.0
H3840 H 0.37927 0.55025 0.17026 0.0
H3841 H 0.39799 0.54941 0.14122 0.0
H3842 H 0.44733 0.56669 0.17086 0.0
H3843 H 0.42885 0.56742 0.19995 0.0
H3844 H 0.4244 0.57514 0.12152 0.0
H3845 H 0.45784 0.5132 0.15115 0.0
H3846 H 0.43616 0.52292 0.1606 0.0
H3847 H 0.45844 0.53351 0.16531 0.0
C3848 C 0.39398 0.55431 0.17051 0.0
C3849 C 0.40272 0.55854 0.18739 0.0
C3850 C 0.40462 0.55387 0.15393 0.0
C3851 C 0.42402 0.55772 0.15408 0.0
C3852 C 0.43238 0.5635 0.1706 0.0
H3853 H 0.50452 0.5515 0.06062 0.0
H3854 H 0.48683 0.56149 0.08855 0.0
C3855 C 0.42181 0.56388 0.18717 0.0
C3856 C 0.43597 0.55331 0.13763 0.0
H3857 H 0.4686 0.52232 0.12151 0.0
C3858 C 0.43418 0.5637 0.12148 0.0
C3859 C 0.44845 0.53819 0.13771 0.0
C3860 C 0.45031 0.52618 0.15454 0.0
C3861 C 0.44469 0.5593 0.10528 0.0
C3862 C 0.45724 0.54425 0.10545 0.0
C3863 C 0.45903 0.53393 0.1216 0.0
C3864 C 0.46797 0.53835 0.08871 0.0
C3865 C 0.44201 0.57041 0.08795 0.0
C3866 C 0.4634 0.52185 0.07997 0.0
C3867 C 0.47345 0.51607 0.0641 0.0
C3868 C 0.48834 0.52666 0.05686 0.0
C3869 C 0.49316 0.54302 0.06593 0.0
C3870 C 0.483 0.54883 0.08175 0.0
H3871 H 0.42975 0.5799 0.08933 0.0
H3872 H 0.45493 0.57855 0.08512 0.0
H3873 H 0.43987 0.5613 0.07575 0.0
H3874 H 0.45189 0.51356 0.08531 0.0
H3875 H 0.4694 0.50342 0.05741 0.0
H3876 H 0.29287 0.64574 0.94072 0.0
H3877 H 0.29867 0.65985 0.91047 0.0
H3878 H 0.28844 0.71298 0.93488 0.0
H3879 H 0.28255 0.699 0.96526 0.0
H3880 H 0.27016 0.68259 0.89325 0.0
H3881 H 0.33862 0.71816 0.90288 0.0
H3882 H 0.33117 0.69919 0.9171 0.0
H3883 H 0.3211 0.72141 0.92112 0.0
C3884 C 0.29204 0.66045 0.93971 0.0
C3885 C 0.28716 0.67128 0.95533 0.0
C3886 C 0.29541 0.66845 0.92245 0.0
C3887 C 0.29419 0.68741 0.92057 0.0
C3888 C 0.28975 0.69832 0.93619 0.0
H3889 H 0.28946 0.76583 0.83413 0.0
H3890 H 0.29463 0.749 0.86274 0.0
C3891 C 0.28625 0.69032 0.95347 0.0
C3892 C 0.29574 0.69562 0.90197 0.0
H3893 H 0.32157 0.72537 0.8757 0.0
C3894 C 0.2815 0.69178 0.88927 0.0
C3895 C 0.31052 0.70765 0.89703 0.0
C3896 C 0.32634 0.7118 0.91016 0.0
C3897 C 0.28121 0.7002 0.87188 0.0
C3898 C 0.29592 0.71238 0.86691 0.0
C3899 C 0.3104 0.71594 0.87952 0.0
C3900 C 0.29565 0.72251 0.84925 0.0
C3901 C 0.26467 0.69662 0.85939 0.0
C3902 C 0.2953 0.71322 0.83211 0.0
C3903 C 0.29207 0.72277 0.81576 0.0
C3904 C 0.28951 0.74178 0.81629 0.0
C3905 C 0.2913 0.75117 0.83329 0.0
C3906 C 0.29428 0.74159 0.84965 0.0
H3907 H 0.2525 0.69054 0.86711 0.0
H3908 H 0.2598 0.70939 0.85278 0.0
H3909 H 0.26909 0.68689 0.84821 0.0
H3910 H 0.29681 0.69853 0.83149 0.0
H3911 H 0.291 0.7152 0.80282 0.0
H3912 H 0.12429 0.50266 0.70907 0.0
H3913 H 0.10512 0.50747 0.68159 0.0
H3914 H 0.05443 0.50777 0.71598 0.0
H3915 H 0.07346 0.50294 0.74363 0.0
H3916 H 0.05353 0.48601 0.68121 0.0
H3917 H 0.07762 0.55747 0.67202 0.0
H3918 H 0.09622 0.54095 0.67471 0.0
H3919 H 0.07987 0.5454 0.69367 0.0
C3920 C 0.10906 0.50362 0.71079 0.0
C3921 C 0.10037 0.50258 0.7285 0.0
C3922 C 0.09816 0.50643 0.69512 0.0
C3923 C 0.07846 0.50822 0.69692 0.0
C3924 C 0.06965 0.50652 0.71444 0.0
H3925 H 0.00897 0.54928 0.60717 0.0
H3926 H 0.02158 0.54372 0.6381 0.0
C3927 C 0.08054 0.50378 0.73016 0.0
C3928 C 0.06715 0.51221 0.68048 0.0
H3929 H 0.06062 0.54424 0.64713 0.0
C3930 C 0.0549 0.49878 0.67381 0.0
C3931 C 0.06883 0.52901 0.67114 0.0
C3932 C 0.08121 0.54414 0.6783 0.0
C3933 C 0.04483 0.50146 0.65746 0.0
C3934 C 0.04728 0.5179 0.6476 0.0
C3935 C 0.0589 0.53162 0.65472 0.0
C3936 C 0.03887 0.52071 0.62926 0.0
C3937 C 0.03182 0.48665 0.65074 0.0
C3938 C 0.04467 0.50973 0.61415 0.0
C3939 C 0.03769 0.51297 0.5965 0.0
C3940 C 0.0248 0.5273 0.59364 0.0
C3941 C 0.01901 0.53827 0.60887 0.0
C3942 C 0.02606 0.53504 0.62655 0.0
H3943 H 0.02758 0.47734 0.66218 0.0
H3944 H 0.01888 0.49255 0.64462 0.0
H3945 H 0.03927 0.47843 0.6398 0.0
H3946 H 0.05493 0.4989 0.61593 0.0
H3947 H 0.04279 0.50452 0.58505 0.0
H3948 H 0.22618 0.37586 0.44573 0.0
H3949 H 0.22648 0.35894 0.41639 0.0
H3950 H 0.2795 0.33377 0.4307 0.0
H3951 H 0.27857 0.34999 0.46075 0.0
H3952 H 0.24853 0.36141 0.38851 0.0
H3953 H 0.25382 0.28993 0.41183 0.0
H3954 H 0.24909 0.30851 0.42785 0.0
H3955 H 0.27297 0.30353 0.42005 0.0
C3956 C 0.23774 0.36645 0.44278 0.0
C3957 C 0.25231 0.36419 0.45561 0.0
C3958 C 0.23795 0.35681 0.42592 0.0
C3959 C 0.25292 0.34486 0.42118 0.0
C3960 C 0.26747 0.34245 0.43409 0.0
H3961 H 0.27472 0.31583 0.30378 0.0
H3962 H 0.27437 0.33029 0.33455 0.0
C3963 C 0.26702 0.35181 0.45127 0.0
C3964 C 0.25358 0.33593 0.40232 0.0
H3965 H 0.25902 0.29506 0.37947 0.0
C3966 C 0.2507 0.34686 0.38661 0.0
C3967 C 0.2562 0.3169 0.39963 0.0
C3968 C 0.25799 0.30402 0.41575 0.0
C3969 C 0.25025 0.33942 0.36852 0.0
C3970 C 0.25367 0.32052 0.36575 0.0
C3971 C 0.25657 0.30957 0.38143 0.0
C3972 C 0.25393 0.31176 0.34682 0.0
C3973 C 0.24543 0.35191 0.3527 0.0
C3974 C 0.24311 0.29608 0.34339 0.0
C3975 C 0.24368 0.28749 0.32588 0.0
C3976 C 0.25491 0.29452 0.31126 0.0
C3977 C 0.26562 0.31029 0.31461 0.0
C3978 C 0.26535 0.31863 0.33224 0.0
H3979 H 0.23712 0.36394 0.35771 0.0
H3980 H 0.2587 0.35703 0.34616 0.0
H3981 H 0.23714 0.34473 0.34194 0.0
H3982 H 0.2342 0.2904 0.3543 0.0
H3983 H 0.23536 0.2753 0.3238 0.0
H3984 H 0.30693 0.44635 0.48679 0.0
H3985 H 0.33768 0.46054 0.49092 0.0
H3986 H 0.34862 0.42475 0.53678 0.0
H3987 H 0.31784 0.41012 0.53248 0.0
H3988 H 0.35045 0.47919 0.52078 0.0
H3989 H 0.39714 0.41945 0.50623 0.0
H3990 H 0.37229 0.41945 0.50094 0.0
H3991 H 0.37977 0.41596 0.5244 0.0
C3992 C 0.31589 0.44132 0.49768 0.0
C3993 C 0.30986 0.42701 0.50927 0.0
C3994 C 0.33351 0.44952 0.50005 0.0
C3995 C 0.34561 0.44365 0.51404 0.0
C3996 C 0.33973 0.4293 0.52563 0.0
H3997 H 0.45732 0.48354 0.54548 0.0
H3998 H 0.42627 0.46884 0.54546 0.0
C3999 C 0.32207 0.42098 0.5232 0.0
C4000 C 0.36403 0.45307 0.51671 0.0
H4001 H 0.412 0.44656 0.51627 0.0
C4002 C 0.3639 0.47203 0.5198 0.0
C4003 C 0.38162 0.44376 0.51548 0.0
C4004 C 0.38282 0.42357 0.51142 0.0
C4005 C 0.38079 0.4819 0.52162 0.0
C4006 C 0.39835 0.47263 0.52014 0.0
C4007 C 0.39852 0.45364 0.51742 0.0
C4008 C 0.41671 0.48246 0.52078 0.0
C4009 C 0.37969 0.50217 0.52526 0.0
C4010 C 0.42165 0.49509 0.50696 0.0
C4011 C 0.4394 0.50352 0.5069 0.0
C4012 C 0.45262 0.49949 0.52068 0.0
C4013 C 0.44746 0.48709 0.53473 0.0
C4014 C 0.42975 0.47859 0.5347 0.0
H4015 H 0.36551 0.50638 0.53075 0.0
H4016 H 0.39056 0.5065 0.53532 0.0
H4017 H 0.38238 0.50949 0.51203 0.0
H4018 H 0.41196 0.49808 0.4959 0.0
H4019 H 0.44292 0.51288 0.49579 0.0
H4020 H 0.83118 0.12969 0.47954 0.0
H4021 H 0.86282 0.11886 0.47058 0.0
H4022 H 0.86405 0.08561 0.51978 0.0
H4023 H 0.832 0.09572 0.52836 0.0
H4024 H 0.89644 0.12042 0.48513 0.0
H4025 H 0.87525 0.04821 0.48044 0.0
H4026 H 0.85818 0.06639 0.4834 0.0
H4027 H 0.87005 0.05718 0.50324 0.0
C4028 C 0.83823 0.12012 0.4885 0.0
C4029 C 0.82906 0.11335 0.50454 0.0
C4030 C 0.8563 0.11394 0.48334 0.0
C4031 C 0.86557 0.10106 0.49424 0.0
C4032 C 0.85686 0.09507 0.51082 0.0
H4033 H 0.98007 0.07319 0.50528 0.0
H4034 H 0.95116 0.09054 0.50079 0.0
C4035 C 0.83864 0.10096 0.51579 0.0
C4036 C 0.88425 0.09369 0.4882 0.0
H4037 H 0.90857 0.05382 0.48273 0.0
C4038 C 0.89908 0.10586 0.48432 0.0
C4039 C 0.88752 0.07472 0.48644 0.0
C4040 C 0.87183 0.06091 0.48838 0.0
C4041 C 0.91739 0.0995 0.47985 0.0
C4042 C 0.92105 0.08052 0.47996 0.0
C4043 C 0.90593 0.0684 0.48279 0.0
C4044 C 0.94047 0.07276 0.47918 0.0
C4045 C 0.93252 0.11324 0.47513 0.0
C4046 C 0.94439 0.05709 0.46834 0.0
C4047 C 0.96062 0.04675 0.47144 0.0
C4048 C 0.97341 0.05221 0.48506 0.0
C4049 C 0.97051 0.06883 0.49452 0.0
C4050 C 0.954 0.07886 0.49184 0.0
H4051 H 0.92638 0.12516 0.46792 0.0
H4052 H 0.93882 0.11838 0.48817 0.0
H4053 H 0.94391 0.10723 0.46612 0.0
H4054 H 0.93422 0.05214 0.45844 0.0
H4055 H 0.96263 0.03397 0.46398 0.0
H4056 H 0.68676 0.04206 0.28643 0.0
H4057 H 0.71007 0.06638 0.28983 0.0
H4058 H 0.66976 0.10537 0.26945 0.0
H4059 H 0.64631 0.08135 0.26635 0.0
H4060 H 0.72533 0.08776 0.26311 0.0
H4061 H 0.68835 0.13096 0.31562 0.0
H4062 H 0.68142 0.10772 0.31093 0.0
H4063 H 0.67314 0.12601 0.29658 0.0
C4064 C 0.68281 0.05584 0.2828 0.0
C4065 C 0.66465 0.0598 0.27617 0.0
C4066 C 0.69613 0.0697 0.2848 0.0
C4067 C 0.69148 0.0877 0.28029 0.0
C4068 C 0.67344 0.09164 0.27355 0.0
H4069 H 0.74715 0.17522 0.23301 0.0
H4070 H 0.73442 0.14572 0.24189 0.0
C4071 C 0.6601 0.07786 0.27162 0.0
C4072 C 0.70575 0.1023 0.28129 0.0
H4073 H 0.71095 0.14643 0.29535 0.0
C4074 C 0.72242 0.10046 0.27049 0.0
C4075 C 0.70221 0.11866 0.29133 0.0
C4076 C 0.6854 0.12087 0.30443 0.0
C4077 C 0.73483 0.11515 0.2682 0.0
C4078 C 0.73015 0.13214 0.27657 0.0
C4079 C 0.71437 0.13347 0.28867 0.0
C4080 C 0.73994 0.14912 0.27124 0.0
C4081 C 0.75252 0.11246 0.25637 0.0
C4082 C 0.74696 0.16099 0.28484 0.0
C4083 C 0.75409 0.17802 0.27978 0.0
C4084 C 0.75424 0.18343 0.26106 0.0
C4085 C 0.74755 0.17133 0.24747 0.0
C4086 C 0.74035 0.1544 0.25253 0.0
H4087 H 0.75768 0.09816 0.25709 0.0
H4088 H 0.74926 0.11528 0.24163 0.0
H4089 H 0.76401 0.12173 0.26076 0.0
H4090 H 0.7466 0.15722 0.29937 0.0
H4091 H 0.75934 0.187 0.29051 0.0
H4092 H 0.68229 0.8856 0.01724 0.0
H4093 H 0.65105 0.90005 0.01508 0.0
H4094 H 0.67634 0.95292 0.02273 0.0
H4095 H 0.70756 0.93865 0.02468 0.0
H4096 H 0.63076 0.9225 0.04024 0.0
H4097 H 0.64704 0.95893 0.97459 0.0
H4098 H 0.66179 0.94079 0.98308 0.0
H4099 H 0.66352 0.9634 -0.00725 0.0
C4100 C 0.68119 0.90031 0.01849 0.0
C4101 C 0.69745 0.911 0.02098 0.0
C4102 C 0.66333 0.90853 0.01726 0.0
C4103 C 0.66139 0.92758 0.01841 0.0
C4104 C 0.67753 0.93822 0.0214 0.0
H4105 H 0.55844 0.99146 0.03706 0.0
H4106 H 0.58884 0.97571 0.03982 0.0
C4107 C 0.69537 0.93003 0.02262 0.0
C4108 C 0.64253 0.93637 0.01645 0.0
H4109 H 0.61826 0.96696 0.99029 0.0
C4110 C 0.62799 0.93217 0.02929 0.0
C4111 C 0.63884 0.94881 0.002 0.0
C4112 C 0.65355 0.95315 0.9872 0.0
C4113 C 0.61 0.94036 0.02829 0.0
C4114 C 0.60653 0.95329 0.01423 0.0
C4115 C 0.62096 0.95719 0.00118 0.0
C4116 C 0.58799 0.9628 0.01266 0.0
C4117 C 0.59478 0.93487 0.04213 0.0
C4118 C 0.57758 0.96117 -0.0037 0.0
C4119 C 0.56026 0.97028 -0.00539 0.0
C4120 C 0.55302 0.9813 0.00923 0.0
C4121 C 0.56355 0.98303 0.02555 0.0
C4122 C 0.58089 0.97392 0.02722 0.0
H4123 H 0.59801 0.92154 0.0486 0.0
H4124 H 0.59374 0.94529 0.05339 0.0
H4125 H 0.58079 0.93395 0.03542 0.0
H4126 H 0.58282 0.95275 0.98485 0.0
H4127 H 0.55254 0.96864 0.98184 0.0
H4128 H 0.40077 0.4645 0.21832 0.0
H4129 H 0.3883 0.43342 0.21945 0.0
H4130 H 0.33435 0.45428 0.23927 0.0
H4131 H 0.34664 0.48525 0.23844 0.0
H4132 H 0.34861 0.42499 0.26009 0.0
H4133 H 0.34973 0.41035 0.18393 0.0
H4134 H 0.37157 0.41799 0.19371 0.0
H4135 H 0.35162 0.43319 0.19325 0.0
C4136 C 0.3862 0.46248 0.22278 0.0
C4137 C 0.37469 0.47736 0.22828 0.0
C4138 C 0.37912 0.44473 0.22338 0.0
C4139 C 0.3604 0.44164 0.22934 0.0
C4140 C 0.34885 0.45644 0.23466 0.0
H4141 H 0.28052 0.35739 0.21759 0.0
H4142 H 0.30058 0.38435 0.21679 0.0
C4143 C 0.3559 0.47413 0.23412 0.0
C4144 C 0.35269 0.42301 0.23039 0.0
H4145 H 0.33833 0.38725 0.20364 0.0
C4146 C 0.34651 0.41661 0.2478 0.0
C4147 C 0.34999 0.41226 0.21427 0.0
C4148 C 0.35593 0.41877 0.19518 0.0
C4149 C 0.33708 0.39993 0.24948 0.0
C4150 C 0.33406 0.38932 0.23332 0.0
C4151 C 0.3408 0.39544 0.21598 0.0
C4152 C 0.32237 0.37272 0.23382 0.0
C4153 C 0.32964 0.39419 0.26836 0.0
C4154 C 0.32805 0.35727 0.24366 0.0
C4155 C 0.31656 0.3418 0.24416 0.0
C4156 C 0.29934 0.34156 0.23469 0.0
C4157 C 0.2938 0.35708 0.22481 0.0
C4158 C 0.30522 0.37249 0.22437 0.0
H4159 H 0.33019 0.40546 0.27876 0.0
H4160 H 0.31479 0.38942 0.26746 0.0
H4161 H 0.33835 0.38272 0.27345 0.0
H4162 H 0.34139 0.35713 0.25081 0.0
H4163 H 0.32131 0.32995 0.25164 0.0
H4164 H 0.20369 0.63883 0.00935 0.0
H4165 H 0.17476 0.6223 0.01744 0.0
H4166 H 0.2064 0.57196 0.01915 0.0
H4167 H 0.2355 0.58838 0.01105 0.0
H4168 H 0.17073 0.57078 -0.00057 0.0
H4169 H 0.1641 0.60089 0.07045 0.0
H4170 H 0.16746 0.61716 0.05213 0.0
H4171 H 0.18596 0.60112 0.05698 0.0
C4172 C 0.20449 0.62423 0.01132 0.0
C4173 C 0.22188 0.61491 0.0097 0.0
C4174 C 0.18799 0.61485 0.01604 0.0
C4175 C 0.18861 0.59603 0.01921 0.0
C4176 C 0.20576 0.58654 0.01691 0.0
H4177 H 0.09387 0.53394 0.06686 0.0
H4178 H 0.12565 0.54633 0.06116 0.0
C4179 C 0.22232 0.59592 0.01226 0.0
C4180 C 0.17125 0.58634 0.02494 0.0
H4181 H 0.13731 0.58478 0.05931 0.0
C4182 C 0.16349 0.57367 0.01258 0.0
C4183 C 0.16209 0.59001 0.04224 0.0
C4184 C 0.17038 0.60291 0.05633 0.0
C4185 C 0.14624 0.56513 0.01675 0.0
C4186 C 0.13657 0.56954 0.03361 0.0
C4187 C 0.14475 0.58158 0.04634 0.0
C4188 C 0.11742 0.56261 0.0377 0.0
C4189 C 0.13833 0.55165 0.003 0.0
C4190 C 0.10233 0.56817 0.02674 0.0
C4191 C 0.08425 0.56131 0.03005 0.0
C4192 C 0.08093 0.54871 0.04438 0.0
C4193 C 0.09598 0.54366 0.05578 0.0
C4194 C 0.11412 0.55061 0.05248 0.0
H4195 H 0.14945 0.5464 -0.00682 0.0
H4196 H 0.13169 0.53995 0.01029 0.0
H4197 H 0.12729 0.55848 -0.00525 0.0
H4198 H 0.10458 0.57776 0.01554 0.0
H4199 H 0.07288 0.56583 0.02132 0.0
H4200 H 0.63775 0.93587 0.28899 0.0
H4201 H 0.65268 0.90624 0.29395 0.0
H4202 H 0.70766 0.92998 0.2841 0.0
H4203 H 0.69287 0.95974 0.27909 0.0
H4204 H 0.67657 0.88907 0.26557 0.0
H4205 H 0.71302 0.89921 0.33267 0.0
H4206 H 0.69332 0.91321 0.32571 0.0
H4207 H 0.71646 0.91684 0.31571 0.0
C4208 C 0.65303 0.93484 0.28805 0.0
C4209 C 0.66416 0.95008 0.28355 0.0
C4210 C 0.66151 0.91794 0.29095 0.0
C4211 C 0.68121 0.91608 0.28961 0.0
C4212 C 0.69242 0.9313 0.2855 0.0
H4213 H 0.76284 0.8301 0.28318 0.0
H4214 H 0.74555 0.85874 0.28793 0.0
C4215 C 0.68395 0.94822 0.2825 0.0
C4216 C 0.68992 0.89788 0.29071 0.0
H4217 H 0.7209 0.87235 0.31537 0.0
C4218 C 0.6861 0.88528 0.27655 0.0
C4219 C 0.70239 0.8932 0.30502 0.0
C4220 C 0.70649 0.90624 0.32076 0.0
C4221 C 0.69497 0.8682 0.27592 0.0
C4222 C 0.70757 0.8635 0.29017 0.0
C4223 C 0.71114 0.87601 0.30455 0.0
C4224 C 0.71799 0.84604 0.28969 0.0
C4225 C 0.69135 0.85567 0.25959 0.0
C4226 C 0.70821 0.82945 0.28975 0.0
C4227 C 0.718 0.81311 0.28679 0.0
C4228 C 0.73775 0.81313 0.28405 0.0
C4229 C 0.74761 0.82968 0.28517 0.0
C4230 C 0.73778 0.84603 0.28793 0.0
H4231 H 0.68504 0.86307 0.24778 0.0
H4232 H 0.70466 0.84898 0.25459 0.0
H4233 H 0.68129 0.84488 0.26396 0.0
H4234 H 0.69295 0.8292 0.29151 0.0
H4235 H 0.71006 0.80052 0.28622 0.0
H4236 H 0.85513 0.10323 0.76929 0.0
H4237 H 0.83225 0.12528 0.78122 0.0
H4238 H 0.78927 0.08365 0.78337 0.0
H4239 H 0.81222 0.06141 0.77051 0.0
H4240 H 0.77532 0.11233 0.76842 0.0
H4241 H 0.81038 0.13657 0.83089 0.0
H4242 H 0.82776 0.1375 0.8125 0.0
H4243 H 0.8178 0.11579 0.81917 0.0
C4244 C 0.8409 0.09863 0.77254 0.0
C4245 C 0.83547 0.08059 0.76898 0.0
C4246 C 0.82784 0.11124 0.77962 0.0
C4247 C 0.80914 0.10604 0.78377 0.0
C4248 C 0.80369 0.08791 0.78052 0.0
H4249 H 0.76618 0.21325 0.81101 0.0
H4250 H 0.76729 0.18037 0.81654 0.0
C4251 C 0.81678 0.07525 0.77316 0.0
C4252 C 0.79519 0.12028 0.78938 0.0
H4253 H 0.79446 0.16083 0.81254 0.0
C4254 C 0.7791 0.1227 0.77852 0.0
C4255 C 0.79936 0.13341 0.8032 0.0
C4256 C 0.81465 0.13049 0.81722 0.0
C4257 C 0.76874 0.13906 0.77934 0.0
C4258 C 0.77529 0.15358 0.79059 0.0
C4259 C 0.78969 0.1501 0.80332 0.0
C4260 C 0.76987 0.17289 0.78734 0.0
C4261 C 0.75137 0.14073 0.76763 0.0
C4262 C 0.77025 0.17974 0.7691 0.0
C4263 C 0.76887 0.19843 0.76596 0.0
C4264 C 0.76795 0.21065 0.78102 0.0
C4265 C 0.767 0.20396 0.79922 0.0
C4266 C 0.76762 0.1852 0.80235 0.0
H4267 H 0.74324 0.1278 0.76792 0.0
H4268 H 0.74193 0.15201 0.7725 0.0
H4269 H 0.75572 0.1431 0.75293 0.0
H4270 H 0.77279 0.17082 0.75724 0.0
H4271 H 0.76983 0.20339 0.75182 0.0
loop_
_geom_bond_atom_site_label_1
_geom_bond_atom_site_label_2
_geom_bond_distance
_geom_bond_site_symmetry_2
_ccdc_geom_bond_type
C0 O1 1.306 . S
C0 O3 1.160 . S
O1 C0 1.306 . S
O1 Cd2 2.228 1_655 S
Cd2 O1 2.228 1_455 S
Cd2 O6 2.273 . S
Cd2 O10 2.277 . S
O3 C0 1.160 . S
O3 Cd4 2.203 1_655 S
Cd4 O3 2.203 1_455 S
Cd4 O6 2.411 . S
Cd4 O7 2.333 . S
Cd4 O8 2.352 . S
Cd4 O12 2.277 . S
Cd4 O13 2.356 . S
C5 O10 1.209 . S
C5 O12 1.226 . S
O6 Cd2 2.273 . S
O6 Cd4 2.411 . S
O6 C9 1.320 . S
O7 Cd4 2.333 . S
O7 C9 1.214 . S
O8 Cd4 2.352 . S
O8 C11 1.258 . S
C9 O6 1.320 . S
C9 O7 1.214 . S
O10 Cd2 2.277 . S
O10 C5 1.209 . S
C11 O8 1.258 . S
C11 O13 1.282 . S
O12 Cd4 2.277 . S
O12 C5 1.226 . S
O13 Cd4 2.356 . S
O13 C11 1.282 . S
C14 O15 1.306 . S
C14 O17 1.160 . S
O15 C14 1.306 . S
O15 Cd16 2.228 . S
Cd16 O15 2.228 . S
Cd16 O20 2.273 . S
Cd16 O24 2.277 . S
O17 C14 1.160 . S
O17 Cd18 2.203 . S
Cd18 O17 2.203 . S
Cd18 O20 2.411 . S
Cd18 O21 2.333 . S
Cd18 O22 2.352 . S
Cd18 O26 2.277 . S
Cd18 O27 2.356 . S
C19 O24 1.209 . S
C19 O26 1.226 . S
O20 Cd16 2.273 . S
O20 Cd18 2.411 . S
O20 C23 1.320 . S
O21 Cd18 2.333 . S
O21 C23 1.214 . S
O22 Cd18 2.352 . S
O22 C25 1.258 . S
C23 O20 1.320 . S
C23 O21 1.214 . S
O24 Cd16 2.277 . S
O24 C19 1.209 . S
C25 O22 1.258 . S
C25 O27 1.282 . S
O26 Cd18 2.277 . S
O26 C19 1.226 . S
O27 Cd18 2.356 . S
O27 C25 1.282 . S
C28 O29 1.306 . S
C28 O31 1.160 . S
O29 C28 1.306 . S
O29 Cd30 2.228 . S
Cd30 O29 2.228 . S
Cd30 O34 2.273 . S
Cd30 O38 2.277 . S
O31 C28 1.160 . S
O31 Cd32 2.203 . S
Cd32 O31 2.203 . S
Cd32 O34 2.411 . S
Cd32 O35 2.333 . S
Cd32 O36 2.352 . S
Cd32 O40 2.277 . S
Cd32 O41 2.356 . S
C33 O38 1.209 . S
C33 O40 1.226 . S
O34 Cd30 2.273 . S
O34 Cd32 2.411 . S
O34 C37 1.320 . S
O35 Cd32 2.333 . S
O35 C37 1.214 . S
O36 Cd32 2.352 . S
O36 C39 1.258 . S
C37 O34 1.320 . S
C37 O35 1.214 . S
O38 Cd30 2.277 . S
O38 C33 1.209 . S
C39 O36 1.258 . S
C39 O41 1.282 . S
O40 Cd32 2.277 . S
O40 C33 1.226 . S
O41 Cd32 2.356 . S
O41 C39 1.282 . S
C42 O43 1.306 . S
C42 O45 1.160 . S
O43 C42 1.306 . S
O43 Cd44 2.228 . S
Cd44 O43 2.228 . S
Cd44 O48 2.273 . S
Cd44 O52 2.277 . S
O45 C42 1.160 . S
O45 Cd46 2.203 . S
Cd46 O45 2.203 . S
Cd46 O48 2.411 . S
Cd46 O49 2.333 . S
Cd46 O50 2.352 . S
Cd46 O54 2.277 . S
Cd46 O55 2.356 . S
C47 O52 1.209 . S
C47 O54 1.226 . S
O48 Cd44 2.273 . S
O48 Cd46 2.411 . S
O48 C51 1.320 . S
O49 Cd46 2.333 . S
O49 C51 1.214 . S
O50 Cd46 2.352 . S
O50 C53 1.258 . S
C51 O48 1.320 . S
C51 O49 1.214 . S
O52 Cd44 2.277 . S
O52 C47 1.209 . S
C53 O50 1.258 . S
C53 O55 1.282 . S
O54 Cd46 2.277 . S
O54 C47 1.226 . S
O55 Cd46 2.356 . S
O55 C53 1.282 . S
C56 O57 1.306 . S
C56 O59 1.160 . S
O57 C56 1.306 . S
O57 Cd58 2.228 . S
Cd58 O57 2.228 . S
Cd58 O62 2.273 . S
Cd58 O66 2.277 . S
O59 C56 1.160 . S
O59 Cd60 2.203 . S
Cd60 O59 2.203 . S
Cd60 O62 2.411 . S
Cd60 O63 2.333 . S
Cd60 O64 2.352 1_545 S
Cd60 O68 2.277 . S
Cd60 O69 2.356 1_545 S
C61 O66 1.209 . S
C61 O68 1.226 . S
O62 Cd58 2.273 . S
O62 Cd60 2.411 . S
O62 C65 1.320 . S
O63 Cd60 2.333 . S
O63 C65 1.214 . S
O64 Cd60 2.352 1_565 S
O64 C67 1.258 . S
C65 O62 1.320 . S
C65 O63 1.214 . S
O66 Cd58 2.277 . S
O66 C61 1.209 . S
C67 O64 1.258 . S
C67 O69 1.282 . S
O68 Cd60 2.277 . S
O68 C61 1.226 . S
O69 Cd60 2.356 1_565 S
O69 C67 1.282 . S
C70 O71 1.306 . S
C70 O73 1.160 . S
O71 C70 1.306 . S
O71 Cd72 2.228 . S
Cd72 O71 2.228 . S
Cd72 O76 2.273 . S
Cd72 O80 2.277 . S
O73 C70 1.160 . S
O73 Cd74 2.203 . S
Cd74 O73 2.203 . S
Cd74 O76 2.411 . S
Cd74 O77 2.333 . S
Cd74 O78 2.352 . S
Cd74 O82 2.277 . S
Cd74 O83 2.356 . S
C75 O80 1.209 . S
C75 O82 1.226 . S
O76 Cd72 2.273 . S
O76 Cd74 2.411 . S
O76 C79 1.320 . S
O77 Cd74 2.333 . S
O77 C79 1.214 . S
O78 Cd74 2.352 . S
O78 C81 1.258 . S
C79 O76 1.320 . S
C79 O77 1.214 . S
O80 Cd72 2.277 . S
O80 C75 1.209 . S
C81 O78 1.258 . S
C81 O83 1.282 . S
O82 Cd74 2.277 . S
O82 C75 1.226 . S
O83 Cd74 2.356 . S
O83 C81 1.282 . S
C84 O85 1.306 . S
C84 O87 1.160 . S
O85 C84 1.306 . S
O85 Cd86 2.228 . S
Cd86 O85 2.228 . S
Cd86 O90 2.273 . S
Cd86 O94 2.277 . S
O87 C84 1.160 . S
O87 Cd88 2.203 . S
Cd88 O87 2.203 . S
Cd88 O90 2.411 . S
Cd88 O91 2.333 . S
Cd88 O92 2.352 . S
Cd88 O96 2.277 . S
Cd88 O97 2.356 . S
C89 O94 1.209 . S
C89 O96 1.226 . S
O90 Cd86 2.273 . S
O90 Cd88 2.411 . S
O90 C93 1.320 . S
O91 Cd88 2.333 . S
O91 C93 1.214 . S
O92 Cd88 2.352 . S
O92 C95 1.258 . S
C93 O90 1.320 . S
C93 O91 1.214 . S
O94 Cd86 2.277 . S
O94 C89 1.209 . S
C95 O92 1.258 . S
C95 O97 1.282 . S
O96 Cd88 2.277 . S
O96 C89 1.226 . S
O97 Cd88 2.356 . S
O97 C95 1.282 . S
C98 O99 1.306 . S
C98 O101 1.160 . S
O99 C98 1.306 . S
O99 Cd100 2.228 . S
Cd100 O99 2.228 . S
Cd100 O104 2.273 . S
Cd100 O108 2.277 . S
O101 C98 1.160 . S
O101 Cd102 2.203 . S
Cd102 O101 2.203 . S
Cd102 O104 2.411 . S
Cd102 O105 2.333 . S
Cd102 O106 2.352 1_554 S
Cd102 O110 2.277 . S
Cd102 O111 2.328 1_554 S
C103 O108 1.209 . S
C103 O110 1.226 . S
O104 Cd100 2.273 . S
O104 Cd102 2.411 . S
O104 C107 1.320 . S
O105 Cd102 2.333 . S
O105 C107 1.214 . S
O106 Cd102 2.352 1_556 S
O106 C109 1.258 . S
C107 O104 1.320 . S
C107 O105 1.214 . S
O108 Cd100 2.277 . S
O108 C103 1.209 . S
C109 O106 1.258 . S
C109 O111 1.314 . S
O110 Cd102 2.277 . S
O110 C103 1.226 . S
O111 Cd102 2.328 1_556 S
O111 C109 1.314 . S
C112 O113 1.306 . S
C112 O115 1.160 . S
O113 C112 1.306 . S
O113 Cd114 2.228 . S
Cd114 O113 2.228 . S
Cd114 O118 2.273 . S
Cd114 O122 2.277 . S
O115 C112 1.160 . S
O115 Cd116 2.203 . S
Cd116 O115 2.203 . S
Cd116 O118 2.411 . S
Cd116 O119 2.333 . S
Cd116 O120 2.352 . S
Cd116 O124 2.277 . S
Cd116 O125 2.356 . S
C117 O122 1.209 . S
C117 O124 1.226 . S
O118 Cd114 2.273 . S
O118 Cd116 2.411 . S
O118 C121 1.320 . S
O119 Cd116 2.333 . S
O119 C121 1.214 . S
O120 Cd116 2.352 . S
O120 C123 1.258 . S
C121 O118 1.320 . S
C121 O119 1.214 . S
O122 Cd114 2.277 . S
O122 C117 1.209 . S
C123 O120 1.258 . S
C123 O125 1.282 . S
O124 Cd116 2.277 . S
O124 C117 1.226 . S
O125 Cd116 2.356 . S
O125 C123 1.282 . S
C126 O127 1.306 . S
C126 O129 1.160 . S
O127 C126 1.306 . S
O127 Cd128 2.228 . S
Cd128 O127 2.228 . S
Cd128 O132 2.273 . S
Cd128 O136 2.277 . S
O129 C126 1.160 . S
O129 Cd130 2.203 . S
Cd130 O129 2.203 . S
Cd130 O132 2.411 . S
Cd130 O133 2.333 . S
Cd130 O134 2.352 . S
Cd130 O138 2.277 . S
Cd130 O139 2.356 . S
C131 O136 1.209 . S
C131 O138 1.226 . S
O132 Cd128 2.273 . S
O132 Cd130 2.411 . S
O132 C135 1.320 . S
O133 Cd130 2.333 . S
O133 C135 1.214 . S
O134 Cd130 2.352 . S
O134 C137 1.258 . S
C135 O132 1.320 . S
C135 O133 1.214 . S
O136 Cd128 2.277 . S
O136 C131 1.209 . S
C137 O134 1.258 . S
C137 O139 1.282 . S
O138 Cd130 2.277 . S
O138 C131 1.226 . S
O139 Cd130 2.356 . S
O139 C137 1.282 . S
C140 O141 1.306 . S
C140 O143 1.160 . S
O141 C140 1.306 . S
O141 Cd142 2.228 . S
Cd142 O141 2.228 . S
Cd142 O146 2.273 . S
Cd142 O150 2.277 . S
O143 C140 1.160 . S
O143 Cd144 2.203 . S
Cd144 O143 2.203 . S
Cd144 O146 2.411 . S
Cd144 O147 2.333 . S
Cd144 O148 2.352 . S
Cd144 O152 2.277 . S
Cd144 O153 2.356 . S
C145 O150 1.209 . S
C145 O152 1.226 . S
O146 Cd142 2.273 . S
O146 Cd144 2.411 . S
O146 C149 1.320 . S
O147 Cd144 2.333 . S
O147 C149 1.214 . S
O148 Cd144 2.352 . S
O148 C151 1.258 . S
C149 O146 1.320 . S
C149 O147 1.214 . S
O150 Cd142 2.277 . S
O150 C145 1.209 . S
C151 O148 1.258 . S
C151 O153 1.282 . S
O152 Cd144 2.277 . S
O152 C145 1.226 . S
O153 Cd144 2.356 . S
O153 C151 1.282 . S
C154 O155 1.306 . S
C154 O157 1.160 . S
O155 C154 1.306 . S
O155 Cd156 2.228 . S
Cd156 O155 2.228 . S
Cd156 O160 2.273 . S
Cd156 O164 2.277 . S
O157 C154 1.160 . S
O157 Cd158 2.203 . S
Cd158 O157 2.203 . S
Cd158 O160 2.411 . S
Cd158 O161 2.333 . S
Cd158 O162 2.352 . S
Cd158 O166 2.277 . S
Cd158 O167 2.356 . S
C159 O164 1.209 . S
C159 O166 1.226 . S
O160 Cd156 2.273 . S
O160 Cd158 2.411 . S
O160 C163 1.320 . S
O161 Cd158 2.333 . S
O161 C163 1.214 . S
O162 Cd158 2.352 . S
O162 C165 1.258 . S
C163 O160 1.320 . S
C163 O161 1.214 . S
O164 Cd156 2.277 . S
O164 C159 1.209 . S
C165 O162 1.258 . S
C165 O167 1.282 . S
O166 Cd158 2.277 . S
O166 C159 1.226 . S
O167 Cd158 2.356 . S
O167 C165 1.282 . S
C168 O169 1.306 . S
C168 O171 1.160 . S
O169 C168 1.306 . S
O169 Cd170 2.228 1_655 S
Cd170 O169 2.228 1_455 S
Cd170 O174 2.273 . S
Cd170 O178 2.277 . S
O171 C168 1.160 . S
O171 Cd172 2.203 1_655 S
Cd172 O171 2.203 1_455 S
Cd172 O174 2.411 . S
Cd172 O175 2.333 . S
Cd172 O176 2.352 . S
Cd172 O180 2.277 . S
Cd172 O181 2.356 . S
C173 O178 1.209 . S
C173 O180 1.226 . S
O174 Cd170 2.273 . S
O174 Cd172 2.411 . S
O174 C177 1.320 . S
O175 Cd172 2.333 . S
O175 C177 1.214 . S
O176 Cd172 2.352 . S
O176 C179 1.258 . S
C177 O174 1.320 . S
C177 O175 1.214 . S
O178 Cd170 2.277 . S
O178 C173 1.209 . S
C179 O176 1.258 . S
C179 O181 1.282 . S
O180 Cd172 2.277 . S
O180 C173 1.226 . S
O181 Cd172 2.356 . S
O181 C179 1.282 . S
C182 O183 1.306 . S
C182 O185 1.160 . S
O183 C182 1.306 . S
O183 Cd184 2.228 1_655 S
Cd184 O183 2.228 1_455 S
Cd184 O188 2.273 . S
Cd184 O192 2.277 . S
O185 C182 1.160 . S
O185 Cd186 2.203 1_655 S
Cd186 O185 2.203 1_455 S
Cd186 O188 2.411 . S
Cd186 O189 2.333 . S
Cd186 O190 2.351 1_455 S
Cd186 O194 2.276 1_455 S
Cd186 O195 2.356 . S
C187 O192 1.212 . S
C187 O194 1.225 1_455 S
O188 Cd184 2.273 . S
O188 Cd186 2.411 . S
O188 C191 1.320 . S
O189 Cd186 2.333 . S
O189 C191 1.214 . S
O190 Cd186 2.351 1_655 S
O190 C193 1.256 1_655 S
C191 O188 1.320 . S
C191 O189 1.214 . S
O192 Cd184 2.277 . S
O192 C187 1.212 . S
C193 O190 1.256 1_455 S
C193 O195 1.282 . S
O194 Cd186 2.276 1_655 S
O194 C187 1.225 1_655 S
O195 Cd186 2.356 . S
O195 C193 1.282 . S
C196 O197 1.306 . S
C196 O199 1.160 . S
O197 C196 1.306 . S
O197 Cd198 2.228 . S
Cd198 O197 2.228 . S
Cd198 O202 2.273 . S
Cd198 O206 2.277 . S
O199 C196 1.160 . S
O199 Cd200 2.203 . S
Cd200 O199 2.203 . S
Cd200 O202 2.411 . S
Cd200 O203 2.333 . S
Cd200 O204 2.352 . S
Cd200 O208 2.277 . S
Cd200 O209 2.356 . S
C201 O206 1.209 . S
C201 O208 1.226 . S
O202 Cd198 2.273 . S
O202 Cd200 2.411 . S
O202 C205 1.320 . S
O203 Cd200 2.333 . S
O203 C205 1.214 . S
O204 Cd200 2.352 . S
O204 C207 1.258 . S
C205 O202 1.320 . S
C205 O203 1.214 . S
O206 Cd198 2.277 . S
O206 C201 1.209 . S
C207 O204 1.258 . S
C207 O209 1.282 . S
O208 Cd200 2.277 . S
O208 C201 1.226 . S
O209 Cd200 2.356 . S
O209 C207 1.282 . S
C210 O211 1.306 . S
C210 O213 1.160 . S
O211 C210 1.306 . S
O211 Cd212 2.228 . S
Cd212 O211 2.228 . S
Cd212 O216 2.273 . S
Cd212 O220 2.277 . S
O213 C210 1.160 . S
O213 Cd214 2.203 . S
Cd214 O213 2.203 . S
Cd214 O216 2.411 . S
Cd214 O217 2.333 . S
Cd214 O218 2.352 . S
Cd214 O222 2.277 . S
Cd214 O223 2.356 . S
C215 O220 1.209 . S
C215 O222 1.226 . S
O216 Cd212 2.273 . S
O216 Cd214 2.411 . S
O216 C219 1.320 . S
O217 Cd214 2.333 . S
O217 C219 1.214 . S
O218 Cd214 2.352 . S
O218 C221 1.258 . S
C219 O216 1.320 . S
C219 O217 1.214 . S
O220 Cd212 2.277 . S
O220 C215 1.209 . S
C221 O218 1.258 . S
C221 O223 1.282 . S
O222 Cd214 2.277 . S
O222 C215 1.226 . S
O223 Cd214 2.356 . S
O223 C221 1.282 . S
C224 O225 1.306 . S
C224 O227 1.160 . S
O225 C224 1.306 . S
O225 Cd226 2.228 . S
Cd226 O225 2.228 . S
Cd226 O230 2.273 . S
Cd226 O234 2.277 . S
O227 C224 1.160 . S
O227 Cd228 2.203 . S
Cd228 O227 2.203 . S
Cd228 O230 2.411 . S
Cd228 O231 2.333 . S
Cd228 O232 2.352 . S
Cd228 O236 2.277 . S
Cd228 O237 2.356 . S
C229 O234 1.209 . S
C229 O236 1.226 . S
O230 Cd226 2.273 . S
O230 Cd228 2.411 . S
O230 C233 1.320 . S
O231 Cd228 2.333 . S
O231 C233 1.214 . S
O232 Cd228 2.352 . S
O232 C235 1.258 . S
C233 O230 1.320 . S
C233 O231 1.214 . S
O234 Cd226 2.277 . S
O234 C229 1.209 . S
C235 O232 1.258 . S
C235 O237 1.282 . S
O236 Cd228 2.277 . S
O236 C229 1.226 . S
O237 Cd228 2.356 . S
O237 C235 1.282 . S
C238 O239 1.306 . S
C238 O241 1.160 . S
O239 C238 1.306 . S
O239 Cd240 2.228 . S
Cd240 O239 2.228 . S
Cd240 O244 2.273 . S
Cd240 O248 2.277 . S
O241 C238 1.160 . S
O241 Cd242 2.203 . S
Cd242 O241 2.203 . S
Cd242 O244 2.411 . S
Cd242 O245 2.333 . S
Cd242 O246 2.352 . S
Cd242 O250 2.277 . S
Cd242 O251 2.356 . S
C243 O248 1.209 . S
C243 O250 1.226 . S
O244 Cd240 2.273 . S
O244 Cd242 2.411 . S
O244 C247 1.320 . S
O245 Cd242 2.333 . S
O245 C247 1.214 . S
O246 Cd242 2.352 . S
O246 C249 1.258 . S
C247 O244 1.320 . S
C247 O245 1.214 . S
O248 Cd240 2.277 . S
O248 C243 1.209 . S
C249 O246 1.258 . S
C249 O251 1.282 . S
O250 Cd242 2.277 . S
O250 C243 1.226 . S
O251 Cd242 2.356 . S
O251 C249 1.282 . S
C252 O253 1.306 . S
C252 O255 1.160 . S
O253 C252 1.306 . S
O253 Cd254 2.228 . S
Cd254 O253 2.228 . S
Cd254 O258 2.273 . S
Cd254 O262 2.277 . S
O255 C252 1.160 . S
O255 Cd256 2.203 . S
Cd256 O255 2.203 . S
Cd256 O258 2.411 . S
Cd256 O259 2.333 . S
Cd256 O260 2.352 1_545 S
Cd256 O264 2.277 . S
Cd256 O265 2.356 1_545 S
C257 O262 1.209 . S
C257 O264 1.226 . S
O258 Cd254 2.273 . S
O258 Cd256 2.411 . S
O258 C261 1.320 . S
O259 Cd256 2.333 . S
O259 C261 1.214 . S
O260 Cd256 2.352 1_565 S
O260 C263 1.258 . S
C261 O258 1.320 . S
C261 O259 1.214 . S
O262 Cd254 2.277 . S
O262 C257 1.209 . S
C263 O260 1.258 . S
C263 O265 1.282 . S
O264 Cd256 2.277 . S
O264 C257 1.226 . S
O265 Cd256 2.356 1_565 S
O265 C263 1.282 . S
C266 O267 1.306 . S
C266 O269 1.160 . S
O267 C266 1.306 . S
O267 Cd268 2.228 1_554 S
Cd268 O267 2.228 1_556 S
Cd268 O272 2.273 1_556 S
Cd268 O276 2.277 . S
O269 C266 1.160 . S
O269 Cd270 2.203 . S
Cd270 O269 2.203 . S
Cd270 O272 2.411 . S
Cd270 O273 2.333 . S
Cd270 O274 2.352 . S
Cd270 O278 2.277 1_554 S
Cd270 O279 2.356 . S
C271 O276 1.209 . S
C271 O278 1.226 . S
O272 Cd268 2.273 1_554 S
O272 Cd270 2.411 . S
O272 C275 1.320 . S
O273 Cd270 2.333 . S
O273 C275 1.214 . S
O274 Cd270 2.352 . S
O274 C277 1.258 . S
C275 O272 1.320 . S
C275 O273 1.214 . S
O276 Cd268 2.277 . S
O276 C271 1.209 . S
C277 O274 1.258 . S
C277 O279 1.282 . S
O278 Cd270 2.277 1_556 S
O278 C271 1.226 . S
O279 Cd270 2.356 . S
O279 C277 1.282 . S
C280 O281 1.306 . S
C280 O283 1.160 1_554 S
O281 C280 1.306 . S
O281 Cd282 2.228 . S
Cd282 O281 2.228 . S
Cd282 O286 2.273 . S
Cd282 O290 2.277 . S
O283 C280 1.160 1_556 S
O283 Cd284 2.203 . S
Cd284 O283 2.203 . S
Cd284 O286 2.411 1_556 S
Cd284 O287 2.333 . S
Cd284 O288 2.352 . S
Cd284 O292 2.277 1_556 S
Cd284 O293 2.356 . S
C285 O290 1.209 . S
C285 O292 1.226 . S
O286 Cd282 2.273 . S
O286 Cd284 2.411 1_554 S
O286 C289 1.322 . S
O287 Cd284 2.333 . S
O287 C289 1.212 1_556 S
O288 Cd284 2.352 . S
O288 C291 1.258 . S
C289 O286 1.322 . S
C289 O287 1.212 1_554 S
O290 Cd282 2.277 . S
O290 C285 1.209 . S
C291 O288 1.258 . S
C291 O293 1.282 . S
O292 Cd284 2.277 1_554 S
O292 C285 1.226 . S
O293 Cd284 2.356 . S
O293 C291 1.282 . S
C294 O295 1.306 . S
C294 O297 1.160 . S
O295 C294 1.306 . S
O295 Cd296 2.228 . S
Cd296 O295 2.228 . S
Cd296 O300 2.273 . S
Cd296 O304 2.277 . S
O297 C294 1.160 . S
O297 Cd298 2.203 . S
Cd298 O297 2.203 . S
Cd298 O300 2.411 . S
Cd298 O301 2.333 . S
Cd298 O302 2.352 . S
Cd298 O306 2.277 . S
Cd298 O307 2.356 . S
C299 O304 1.209 . S
C299 O306 1.226 . S
O300 Cd296 2.273 . S
O300 Cd298 2.411 . S
O300 C303 1.320 . S
O301 Cd298 2.333 . S
O301 C303 1.214 . S
O302 Cd298 2.352 . S
O302 C305 1.258 . S
C303 O300 1.320 . S
C303 O301 1.214 . S
O304 Cd296 2.277 . S
O304 C299 1.209 . S
C305 O302 1.258 . S
C305 O307 1.282 . S
O306 Cd298 2.277 . S
O306 C299 1.226 . S
O307 Cd298 2.356 . S
O307 C305 1.282 . S
C308 O309 1.306 . S
C308 O311 1.160 . S
O309 C308 1.306 . S
O309 Cd310 2.228 . S
Cd310 O309 2.228 . S
Cd310 O314 2.273 . S
Cd310 O318 2.277 . S
O311 C308 1.160 . S
O311 Cd312 2.203 . S
Cd312 O311 2.203 . S
Cd312 O314 2.411 . S
Cd312 O315 2.333 . S
Cd312 O316 2.352 . S
Cd312 O320 2.277 . S
Cd312 O321 2.356 . S
C313 O318 1.209 . S
C313 O320 1.226 . S
O314 Cd310 2.273 . S
O314 Cd312 2.411 . S
O314 C317 1.320 . S
O315 Cd312 2.333 . S
O315 C317 1.214 . S
O316 Cd312 2.352 . S
O316 C319 1.258 . S
C317 O314 1.320 . S
C317 O315 1.214 . S
O318 Cd310 2.277 . S
O318 C313 1.209 . S
C319 O316 1.258 . S
C319 O321 1.282 . S
O320 Cd312 2.277 . S
O320 C313 1.226 . S
O321 Cd312 2.356 . S
O321 C319 1.282 . S
C322 O323 1.306 . S
C322 O325 1.160 . S
O323 C322 1.306 . S
O323 Cd324 2.228 . S
Cd324 O323 2.228 . S
Cd324 O328 2.273 . S
Cd324 O332 2.277 . S
O325 C322 1.160 . S
O325 Cd326 2.203 . S
Cd326 O325 2.203 . S
Cd326 O328 2.411 . S
Cd326 O329 2.333 . S
Cd326 O330 2.352 . S
Cd326 O334 2.277 . S
Cd326 O335 2.356 . S
C327 O332 1.209 . S
C327 O334 1.226 . S
O328 Cd324 2.273 . S
O328 Cd326 2.411 . S
O328 C331 1.320 . S
O329 Cd326 2.333 . S
O329 C331 1.214 . S
O330 Cd326 2.352 . S
O330 C333 1.258 . S
C331 O328 1.320 . S
C331 O329 1.214 . S
O332 Cd324 2.277 . S
O332 C327 1.209 . S
C333 O330 1.258 . S
C333 O335 1.282 . S
O334 Cd326 2.277 . S
O334 C327 1.226 . S
O335 Cd326 2.356 . S
O335 C333 1.282 . S
Co336 N341 2.057 1_554 S
Co336 O353 2.021 1_554 S
Co336 O356 2.062 1_455 S
Co336 O360 2.117 . S
Co336 O361 2.020 . S
C337 O357 1.259 . S
C337 O360 1.258 . S
Co338 N347 2.057 . S
Co338 O354 2.117 1_545 S
Co338 O355 2.020 1_455 S
Co338 O357 2.021 . S
Co338 O362 2.062 . S
C339 N341 1.333 . S
C339 N342 1.320 1_455 S
C339 H344 0.943 . S
C340 N341 1.362 1_655 S
C340 C343 1.370 . S
C340 H345 0.923 1_655 S
N341 Co336 2.057 1_556 S
N341 C339 1.333 . S
N341 C340 1.362 1_455 S
N342 C339 1.320 1_655 S
N342 C343 1.373 . S
C343 C340 1.370 . S
C343 N342 1.373 . S
C343 H364 0.931 . S
H344 C339 0.943 . S
H345 C340 0.923 1_455 S
C346 O353 1.259 1_564 S
C346 O354 1.258 . S
N347 Co338 2.057 . S
N347 C348 1.316 . S
N347 C349 1.375 1_545 S
C348 N347 1.316 . S
C348 N350 1.347 . S
C348 H359 0.931 . S
C349 N347 1.375 1_565 S
C349 C351 1.350 . S
C349 H358 0.930 . S
N350 C348 1.347 . S
N350 C351 1.373 1_545 S
C351 C349 1.350 . S
C351 N350 1.373 1_565 S
C351 H365 0.931 . S
C352 O355 1.256 . S
C352 O356 1.255 . S
O353 Co336 2.021 1_556 S
O353 C346 1.259 1_546 S
O354 Co338 2.117 1_565 S
O354 C346 1.258 . S
O355 Co338 2.020 1_655 S
O355 C352 1.256 . S
O356 Co336 2.062 1_655 S
O356 C352 1.255 . S
O357 C337 1.259 . S
O357 Co338 2.021 . S
H358 C349 0.930 . S
H359 C348 0.931 . S
O360 Co336 2.117 . S
O360 C337 1.258 . S
O361 Co336 2.020 . S
O361 C363 1.256 . S
O362 Co338 2.062 . S
O362 C363 1.255 . S
C363 O361 1.256 . S
C363 O362 1.255 . S
H364 C343 0.931 . S
H365 C351 0.931 . S
Co366 N371 2.057 . S
Co366 O383 2.021 . S
Co366 O386 2.062 . S
Co366 O390 2.117 . S
Co366 O391 2.020 . S
C367 O387 1.259 . S
C367 O390 1.258 . S
Co368 N377 2.057 . S
Co368 O384 2.117 . S
Co368 O385 2.020 . S
Co368 O387 2.021 . S
Co368 O392 2.062 . S
C369 N371 1.316 . S
C369 N372 1.347 . S
C369 H374 0.931 . S
C370 N371 1.375 . S
C370 C373 1.350 . S
C370 H375 0.930 . S
N371 Co366 2.057 . S
N371 C369 1.316 . S
N371 C370 1.375 . S
N372 C369 1.347 . S
N372 C373 1.373 . S
C373 C370 1.350 . S
C373 N372 1.373 . S
C373 H394 0.931 . S
H374 C369 0.931 . S
H375 C370 0.930 . S
C376 O383 1.259 . S
C376 O384 1.258 . S
N377 Co368 2.057 . S
N377 C378 1.316 . S
N377 C379 1.375 . S
C378 N377 1.316 . S
C378 N380 1.347 . S
C378 H389 0.931 . S
C379 N377 1.375 . S
C379 C381 1.350 . S
C379 H388 0.930 . S
N380 C378 1.347 . S
N380 C381 1.373 . S
C381 C379 1.350 . S
C381 N380 1.373 . S
C381 H395 0.931 . S
C382 O385 1.256 . S
C382 O386 1.255 . S
O383 Co366 2.021 . S
O383 C376 1.259 . S
O384 Co368 2.117 . S
O384 C376 1.258 . S
O385 Co368 2.020 . S
O385 C382 1.256 . S
O386 Co366 2.062 . S
O386 C382 1.255 . S
O387 C367 1.259 . S
O387 Co368 2.021 . S
H388 C379 0.930 . S
H389 C378 0.931 . S
O390 Co366 2.117 . S
O390 C367 1.258 . S
O391 Co366 2.020 . S
O391 C393 1.256 . S
O392 Co368 2.062 . S
O392 C393 1.255 . S
C393 O391 1.256 . S
C393 O392 1.255 . S
H394 C373 0.931 . S
H395 C381 0.931 . S
Co396 N401 2.057 . S
Co396 O413 2.021 1_545 S
Co396 O416 2.062 . S
Co396 O420 2.117 . S
Co396 O421 2.020 . S
C397 O417 1.259 . S
C397 O420 1.258 . S
Co398 N407 2.057 . S
Co398 O414 2.117 . S
Co398 O415 2.020 . S
Co398 O417 2.021 . S
Co398 O422 2.062 . S
C399 N401 1.269 1_565 S
C399 N402 1.338 1_565 S
C399 H404 0.982 . S
C400 N401 1.375 . S
C400 C403 1.350 . S
C400 H405 0.930 . S
N401 Co396 2.057 . S
N401 C399 1.269 1_545 S
N401 C400 1.375 . S
N402 C399 1.338 1_545 S
N402 C403 1.373 . S
C403 C400 1.350 . S
C403 N402 1.373 . S
C403 H424 0.931 . S
H404 C399 0.982 . S
H405 C400 0.930 . S
C406 O413 1.259 . S
C406 O414 1.258 1_565 S
N407 Co398 2.057 . S
N407 C408 1.316 . S
N407 C409 1.375 . S
C408 N407 1.316 . S
C408 N410 1.347 . S
C408 H419 0.931 . S
C409 N407 1.375 . S
C409 C411 1.350 . S
C409 H418 0.930 . S
N410 C408 1.347 . S
N410 C411 1.373 . S
C411 C409 1.350 . S
C411 N410 1.373 . S
C411 H425 0.931 . S
C412 O415 1.256 . S
C412 O416 1.255 . S
O413 Co396 2.021 1_565 S
O413 C406 1.259 . S
O414 Co398 2.117 . S
O414 C406 1.258 1_545 S
O415 Co398 2.020 . S
O415 C412 1.256 . S
O416 Co396 2.062 . S
O416 C412 1.255 . S
O417 C397 1.259 . S
O417 Co398 2.021 . S
H418 C409 0.930 . S
H419 C408 0.931 . S
O420 Co396 2.117 . S
O420 C397 1.258 . S
O421 Co396 2.020 . S
O421 C423 1.256 . S
O422 Co398 2.062 . S
O422 C423 1.255 . S
C423 O421 1.256 . S
C423 O422 1.255 . S
H424 C403 0.931 . S
H425 C411 0.931 . S
Co426 N431 2.057 . S
Co426 O443 2.021 . S
Co426 O446 2.062 . S
Co426 O450 2.117 . S
Co426 O451 2.020 . S
C427 O447 1.259 . S
C427 O450 1.258 . S
Co428 N437 2.057 . S
Co428 O444 2.117 . S
Co428 O445 2.020 . S
Co428 O447 2.021 . S
Co428 O452 2.062 . S
C429 N431 1.316 . S
C429 N432 1.347 . S
C429 H434 0.931 . S
C430 N431 1.375 . S
C430 C433 1.350 . S
C430 H435 0.930 . S
N431 Co426 2.057 . S
N431 C429 1.316 . S
N431 C430 1.375 . S
N432 C429 1.347 . S
N432 C433 1.373 . S
C433 C430 1.350 . S
C433 N432 1.373 . S
C433 H454 0.931 . S
H434 C429 0.931 . S
H435 C430 0.930 . S
C436 O443 1.259 . S
C436 O444 1.258 . S
N437 Co428 2.057 . S
N437 C438 1.316 . S
N437 C439 1.375 . S
C438 N437 1.316 . S
C438 N440 1.347 . S
C438 H449 0.931 . S
C439 N437 1.375 . S
C439 C441 1.350 . S
C439 H448 0.930 . S
N440 C438 1.347 . S
N440 C441 1.373 . S
C441 C439 1.350 . S
C441 N440 1.373 . S
C441 H455 0.931 . S
C442 O445 1.256 . S
C442 O446 1.255 . S
O443 Co426 2.021 . S
O443 C436 1.259 . S
O444 Co428 2.117 . S
O444 C436 1.258 . S
O445 Co428 2.020 . S
O445 C442 1.256 . S
O446 Co426 2.062 . S
O446 C442 1.255 . S
O447 C427 1.259 . S
O447 Co428 2.021 . S
H448 C439 0.930 . S
H449 C438 0.931 . S
O450 Co426 2.117 . S
O450 C427 1.258 . S
O451 Co426 2.020 . S
O451 C453 1.256 . S
O452 Co428 2.062 . S
O452 C453 1.255 . S
C453 O451 1.256 . S
C453 O452 1.255 . S
H454 C433 0.931 . S
H455 C441 0.931 . S
Co456 N461 2.057 1_545 S
Co456 O473 2.021 . S
Co456 O476 2.061 1_545 S
Co456 O480 2.117 . S
Co456 O481 2.020 1_455 S
C457 O477 1.259 . S
C457 O480 1.258 . S
Co458 N467 2.057 . S
Co458 O474 2.117 . S
Co458 O475 2.020 . S
Co458 O477 2.021 . S
Co458 O482 2.062 1_455 S
C459 N461 1.316 . S
C459 N462 1.347 . S
C459 H464 0.931 . S
C460 N461 1.375 1_655 S
C460 C463 1.350 . S
C460 H465 0.930 . S
N461 Co456 2.057 1_565 S
N461 C459 1.316 . S
N461 C460 1.375 1_455 S
N462 C459 1.347 . S
N462 C463 1.373 1_455 S
C463 C460 1.350 . S
C463 N462 1.373 1_655 S
C463 H484 0.931 . S
H464 C459 0.931 . S
H465 C460 0.930 . S
C466 O473 1.259 . S
C466 O474 1.258 . S
N467 Co458 2.057 . S
N467 C468 1.316 . S
N467 C469 1.375 . S
C468 N467 1.316 . S
C468 N470 1.347 . S
C468 H479 0.931 . S
C469 N467 1.375 . S
C469 C471 1.350 . S
C469 H478 0.930 . S
N470 C468 1.347 . S
N470 C471 1.373 . S
C471 C469 1.350 . S
C471 N470 1.373 . S
C471 H485 0.931 . S
C472 O475 1.256 . S
C472 O476 1.254 1_545 S
O473 Co456 2.021 . S
O473 C466 1.259 . S
O474 Co458 2.117 . S
O474 C466 1.258 . S
O475 Co458 2.020 . S
O475 C472 1.256 . S
O476 Co456 2.061 1_565 S
O476 C472 1.254 1_565 S
O477 C457 1.259 . S
O477 Co458 2.021 . S
H478 C469 0.930 . S
H479 C468 0.931 . S
O480 Co456 2.117 . S
O480 C457 1.258 . S
O481 Co456 2.020 1_655 S
O481 C483 1.256 . S
O482 Co458 2.062 1_655 S
O482 C483 1.255 . S
C483 O481 1.256 . S
C483 O482 1.255 . S
H484 C463 0.931 . S
H485 C471 0.931 . S
Co486 N491 2.057 . S
Co486 O503 2.021 . S
Co486 O506 2.062 . S
Co486 O510 2.117 . S
Co486 O511 2.020 . S
C487 O507 1.259 . S
C487 O510 1.258 . S
Co488 N497 2.057 . S
Co488 O504 2.117 . S
Co488 O505 2.020 . S
Co488 O507 2.021 . S
Co488 O512 2.062 . S
C489 N491 1.316 . S
C489 N492 1.347 . S
C489 H494 0.931 . S
C490 N491 1.375 . S
C490 C493 1.350 . S
C490 H495 0.930 . S
N491 Co486 2.057 . S
N491 C489 1.316 . S
N491 C490 1.375 . S
N492 C489 1.347 . S
N492 C493 1.373 . S
C493 C490 1.350 . S
C493 N492 1.373 . S
C493 H514 0.931 . S
H494 C489 0.931 . S
H495 C490 0.930 . S
C496 O503 1.259 . S
C496 O504 1.258 . S
N497 Co488 2.057 . S
N497 C498 1.316 . S
N497 C499 1.375 . S
C498 N497 1.316 . S
C498 N500 1.347 . S
C498 H509 0.931 . S
C499 N497 1.375 . S
C499 C501 1.350 . S
C499 H508 0.930 . S
N500 C498 1.347 . S
N500 C501 1.373 . S
C501 C499 1.350 . S
C501 N500 1.373 . S
C501 H515 0.931 . S
C502 O505 1.256 . S
C502 O506 1.255 . S
O503 Co486 2.021 . S
O503 C496 1.259 . S
O504 Co488 2.117 . S
O504 C496 1.258 . S
O505 Co488 2.020 . S
O505 C502 1.256 . S
O506 Co486 2.062 . S
O506 C502 1.255 . S
O507 C487 1.259 . S
O507 Co488 2.021 . S
H508 C499 0.930 . S
H509 C498 0.931 . S
O510 Co486 2.117 . S
O510 C487 1.258 . S
O511 Co486 2.020 . S
O511 C513 1.256 . S
O512 Co488 2.062 . S
O512 C513 1.255 . S
C513 O511 1.256 . S
C513 O512 1.255 . S
H514 C493 0.931 . S
H515 C501 0.931 . S
Co516 N521 2.057 1_554 S
Co516 O533 2.021 . S
Co516 O536 2.062 1_554 S
Co516 O540 2.117 . S
Co516 O541 2.020 1_545 S
C517 O537 1.259 . S
C517 O540 1.258 . S
Co518 N527 2.057 . S
Co518 O534 2.117 . S
Co518 O535 2.020 . S
Co518 O537 2.021 . S
Co518 O542 2.062 . S
C519 N521 1.316 . S
C519 N522 1.347 . S
C519 H524 0.931 . S
C520 N521 1.375 . S
C520 C523 1.350 . S
C520 H525 0.930 1_545 S
N521 Co516 2.057 1_556 S
N521 C519 1.316 . S
N521 C520 1.375 . S
N522 C519 1.347 . S
N522 C523 1.373 . S
C523 C520 1.350 . S
C523 N522 1.373 . S
C523 H544 0.931 1_545 S
H524 C519 0.931 . S
H525 C520 0.930 1_565 S
C526 O533 1.259 . S
C526 O534 1.258 . S
N527 Co518 2.057 . S
N527 C528 1.316 . S
N527 C529 1.375 . S
C528 N527 1.316 . S
C528 N530 1.347 . S
C528 H539 0.931 . S
C529 N527 1.375 . S
C529 C531 1.350 . S
C529 H538 0.930 . S
N530 C528 1.347 . S
N530 C531 1.373 . S
C531 C529 1.350 . S
C531 N530 1.373 . S
C531 H545 0.931 . S
C532 O535 1.256 . S
C532 O536 1.255 1_554 S
O533 Co516 2.021 . S
O533 C526 1.259 . S
O534 Co518 2.117 . S
O534 C526 1.258 . S
O535 Co518 2.020 . S
O535 C532 1.256 . S
O536 Co516 2.062 1_556 S
O536 C532 1.255 1_556 S
O537 C517 1.259 . S
O537 Co518 2.021 . S
H538 C529 0.930 . S
H539 C528 0.931 . S
O540 Co516 2.117 . S
O540 C517 1.258 . S
O541 Co516 2.020 1_565 S
O541 C543 1.256 . S
O542 Co518 2.062 . S
O542 C543 1.255 1_545 S
C543 O541 1.256 . S
C543 O542 1.255 1_565 S
H544 C523 0.931 1_565 S
H545 C531 0.931 . S
Co546 N551 2.057 . S
Co546 O563 2.021 . S
Co546 O566 2.062 . S
Co546 O570 2.117 . S
Co546 O571 2.020 . S
C547 O567 1.259 . S
C547 O570 1.258 . S
Co548 N557 2.057 . S
Co548 O564 2.117 . S
Co548 O565 2.020 . S
Co548 O567 2.021 . S
Co548 O572 2.062 . S
C549 N551 1.316 . S
C549 N552 1.347 . S
C549 H554 0.931 . S
C550 N551 1.375 . S
C550 C553 1.350 . S
C550 H555 0.930 . S
N551 Co546 2.057 . S
N551 C549 1.316 . S
N551 C550 1.375 . S
N552 C549 1.347 . S
N552 C553 1.373 . S
C553 C550 1.350 . S
C553 N552 1.373 . S
C553 H574 0.931 . S
H554 C549 0.931 . S
H555 C550 0.930 . S
C556 O563 1.259 . S
C556 O564 1.258 . S
N557 Co548 2.057 . S
N557 C558 1.316 . S
N557 C559 1.375 . S
C558 N557 1.316 . S
C558 N560 1.347 . S
C558 H569 0.931 . S
C559 N557 1.375 . S
C559 C561 1.350 . S
C559 H568 0.930 . S
N560 C558 1.347 . S
N560 C561 1.373 . S
C561 C559 1.350 . S
C561 N560 1.373 . S
C561 H575 0.931 . S
C562 O565 1.256 . S
C562 O566 1.255 . S
O563 Co546 2.021 . S
O563 C556 1.259 . S
O564 Co548 2.117 . S
O564 C556 1.258 . S
O565 Co548 2.020 . S
O565 C562 1.256 . S
O566 Co546 2.062 . S
O566 C562 1.255 . S
O567 C547 1.259 . S
O567 Co548 2.021 . S
H568 C559 0.930 . S
H569 C558 0.931 . S
O570 Co546 2.117 . S
O570 C547 1.258 . S
O571 Co546 2.020 . S
O571 C573 1.256 . S
O572 Co548 2.062 . S
O572 C573 1.255 . S
C573 O571 1.256 . S
C573 O572 1.255 . S
H574 C553 0.931 . S
H575 C561 0.931 . S
Co576 N581 2.057 . S
Co576 O593 2.021 1_554 S
Co576 O596 2.062 . S
Co576 O600 2.117 . S
Co576 O601 2.020 . S
C577 O597 1.259 . S
C577 O600 1.258 . S
Co578 N587 2.057 . S
Co578 O594 2.117 . S
Co578 O595 2.020 . S
Co578 O597 2.021 . S
Co578 O602 2.062 . S
C579 N581 1.316 1_556 S
C579 N582 1.347 1_556 S
C579 H584 0.931 . S
C580 N581 1.375 . S
C580 C583 1.350 . S
C580 H585 0.930 . S
N581 Co576 2.057 . S
N581 C579 1.316 1_554 S
N581 C580 1.375 . S
N582 C579 1.347 1_554 S
N582 C583 1.373 . S
C583 C580 1.350 . S
C583 N582 1.373 . S
C583 H604 0.931 . S
H584 C579 0.931 . S
H585 C580 0.930 . S
C586 O593 1.259 . S
C586 O594 1.258 1_556 S
N587 Co578 2.057 . S
N587 C588 1.316 . S
N587 C589 1.375 . S
C588 N587 1.316 . S
C588 N590 1.347 . S
C588 H599 0.931 . S
C589 N587 1.375 . S
C589 C591 1.350 . S
C589 H598 0.930 . S
N590 C588 1.347 . S
N590 C591 1.373 . S
C591 C589 1.350 . S
C591 N590 1.373 . S
C591 H605 0.931 . S
C592 O595 1.256 . S
C592 O596 1.255 . S
O593 Co576 2.021 1_556 S
O593 C586 1.259 . S
O594 Co578 2.117 . S
O594 C586 1.258 1_554 S
O595 Co578 2.020 . S
O595 C592 1.256 . S
O596 Co576 2.062 . S
O596 C592 1.255 . S
O597 C577 1.259 . S
O597 Co578 2.021 . S
H598 C589 0.930 . S
H599 C588 0.931 . S
O600 Co576 2.117 . S
O600 C577 1.258 . S
O601 Co576 2.020 . S
O601 C603 1.256 . S
O602 Co578 2.062 . S
O602 C603 1.255 . S
C603 O601 1.256 . S
C603 O602 1.255 . S
H604 C583 0.931 . S
H605 C591 0.931 . S
Co606 N611 2.057 . S
Co606 O623 2.021 . S
Co606 O626 2.062 . S
Co606 O630 2.117 . S
Co606 O631 2.020 . S
C607 O627 1.259 . S
C607 O630 1.258 . S
Co608 N617 2.057 . S
Co608 O624 2.117 . S
Co608 O625 2.020 . S
Co608 O627 2.021 . S
Co608 O632 2.062 . S
C609 N611 1.316 . S
C609 N612 1.347 . S
C609 H614 0.931 . S
C610 N611 1.375 . S
C610 C613 1.350 . S
C610 H615 0.930 . S
N611 Co606 2.057 . S
N611 C609 1.316 . S
N611 C610 1.375 . S
N612 C609 1.347 . S
N612 C613 1.373 . S
C613 C610 1.350 . S
C613 N612 1.373 . S
C613 H634 0.931 . S
H614 C609 0.931 . S
H615 C610 0.930 . S
C616 O623 1.259 . S
C616 O624 1.258 . S
N617 Co608 2.057 . S
N617 C618 1.316 . S
N617 C619 1.375 . S
C618 N617 1.316 . S
C618 N620 1.347 . S
C618 H629 0.931 . S
C619 N617 1.375 . S
C619 C621 1.350 . S
C619 H628 0.930 . S
N620 C618 1.347 . S
N620 C621 1.373 . S
C621 C619 1.350 . S
C621 N620 1.373 . S
C621 H635 0.931 . S
C622 O625 1.256 . S
C622 O626 1.255 . S
O623 Co606 2.021 . S
O623 C616 1.259 . S
O624 Co608 2.117 . S
O624 C616 1.258 . S
O625 Co608 2.020 . S
O625 C622 1.256 . S
O626 Co606 2.062 . S
O626 C622 1.255 . S
O627 C607 1.259 . S
O627 Co608 2.021 . S
H628 C619 0.930 . S
H629 C618 0.931 . S
O630 Co606 2.117 . S
O630 C607 1.258 . S
O631 Co606 2.020 . S
O631 C633 1.256 . S
O632 Co608 2.062 . S
O632 C633 1.255 . S
C633 O631 1.256 . S
C633 O632 1.255 . S
H634 C613 0.931 . S
H635 C621 0.931 . S
Co636 N641 2.057 . S
Co636 O653 2.021 1_455 S
Co636 O656 2.062 . S
Co636 O660 2.117 . S
Co636 O661 2.020 . S
C637 O657 1.259 . S
C637 O660 1.258 . S
Co638 N647 2.057 . S
Co638 O654 2.153 . S
Co638 O655 2.020 . S
Co638 O657 2.021 . S
Co638 O662 2.062 . S
C639 N641 1.316 1_655 S
C639 N642 1.355 . S
C639 H644 0.931 . S
C640 N641 1.375 . S
C640 C643 1.350 . S
C640 H645 0.930 . S
N641 Co636 2.057 . S
N641 C639 1.316 1_455 S
N641 C640 1.375 . S
N642 C639 1.355 . S
N642 C643 1.330 1_655 S
C643 C640 1.350 . S
C643 N642 1.330 1_455 S
C643 H664 0.931 . S
H644 C639 0.931 . S
H645 C640 0.930 . S
C646 O653 1.259 . S
C646 O654 1.229 1_655 S
N647 Co638 2.057 . S
N647 C648 1.316 . S
N647 C649 1.375 . S
C648 N647 1.316 . S
C648 N650 1.347 . S
C648 H659 0.931 . S
C649 N647 1.375 . S
C649 C651 1.350 . S
C649 H658 0.930 . S
N650 C648 1.347 . S
N650 C651 1.373 . S
C651 C649 1.350 . S
C651 N650 1.373 . S
C651 H665 0.931 . S
C652 O655 1.256 . S
C652 O656 1.255 . S
O653 Co636 2.021 1_655 S
O653 C646 1.259 . S
O654 Co638 2.153 . S
O654 C646 1.229 1_455 S
O655 Co638 2.020 . S
O655 C652 1.256 . S
O656 Co636 2.062 . S
O656 C652 1.255 . S
O657 C637 1.259 . S
O657 Co638 2.021 . S
H658 C649 0.930 . S
H659 C648 0.931 . S
O660 Co636 2.117 . S
O660 C637 1.258 . S
O661 Co636 2.020 . S
O661 C663 1.256 . S
O662 Co638 2.062 . S
O662 C663 1.255 . S
C663 O661 1.256 . S
C663 O662 1.255 . S
H664 C643 0.931 . S
H665 C651 0.931 . S
Co666 N671 2.057 . S
Co666 O683 2.021 . S
Co666 O686 2.062 . S
Co666 O690 2.117 . S
Co666 O691 2.020 . S
C667 O687 1.259 . S
C667 O690 1.258 . S
Co668 N677 2.057 . S
Co668 O684 2.117 . S
Co668 O685 2.020 . S
Co668 O687 2.021 . S
Co668 O692 2.062 . S
C669 N671 1.316 . S
C669 N672 1.347 . S
C669 H674 0.931 . S
C670 N671 1.375 . S
C670 C673 1.350 . S
C670 H675 0.930 . S
N671 Co666 2.057 . S
N671 C669 1.316 . S
N671 C670 1.375 . S
N672 C669 1.347 . S
N672 C673 1.373 . S
C673 C670 1.350 . S
C673 N672 1.373 . S
C673 H694 0.931 . S
H674 C669 0.931 . S
H675 C670 0.930 . S
C676 O683 1.259 . S
C676 O684 1.258 . S
N677 Co668 2.057 . S
N677 C678 1.316 . S
N677 C679 1.375 . S
C678 N677 1.316 . S
C678 N680 1.347 . S
C678 H689 0.931 . S
C679 N677 1.375 . S
C679 C681 1.350 . S
C679 H688 0.930 . S
N680 C678 1.347 . S
N680 C681 1.373 . S
C681 C679 1.350 . S
C681 N680 1.373 . S
C681 H695 0.931 . S
C682 O685 1.256 . S
C682 O686 1.255 . S
O683 Co666 2.021 . S
O683 C676 1.259 . S
O684 Co668 2.117 . S
O684 C676 1.258 . S
O685 Co668 2.020 . S
O685 C682 1.256 . S
O686 Co666 2.062 . S
O686 C682 1.255 . S
O687 C667 1.259 . S
O687 Co668 2.021 . S
H688 C679 0.930 . S
H689 C678 0.931 . S
O690 Co666 2.117 . S
O690 C667 1.258 . S
O691 Co666 2.020 . S
O691 C693 1.256 . S
O692 Co668 2.062 . S
O692 C693 1.255 . S
C693 O691 1.256 . S
C693 O692 1.255 . S
H694 C673 0.931 . S
H695 C681 0.931 . S
Co696 N701 2.057 . S
Co696 O713 2.021 . S
Co696 O716 2.062 . S
Co696 O720 2.117 . S
Co696 O721 2.020 . S
C697 O717 1.259 . S
C697 O720 1.258 . S
Co698 N707 2.057 . S
Co698 O714 2.117 . S
Co698 O715 2.020 . S
Co698 O717 2.021 . S
Co698 O722 2.062 . S
C699 N701 1.316 . S
C699 N702 1.347 . S
C699 H704 0.931 . S
C700 N701 1.375 . S
C700 C703 1.350 . S
C700 H705 0.930 . S
N701 Co696 2.057 . S
N701 C699 1.316 . S
N701 C700 1.375 . S
N702 C699 1.347 . S
N702 C703 1.373 . S
C703 C700 1.350 . S
C703 N702 1.373 . S
C703 H724 0.931 . S
H704 C699 0.931 . S
H705 C700 0.930 . S
C706 O713 1.259 . S
C706 O714 1.258 . S
N707 Co698 2.057 . S
N707 C708 1.316 . S
N707 C709 1.375 . S
C708 N707 1.316 . S
C708 N710 1.347 . S
C708 H719 0.931 . S
C709 N707 1.375 . S
C709 C711 1.350 . S
C709 H718 0.930 . S
N710 C708 1.347 . S
N710 C711 1.373 . S
C711 C709 1.350 . S
C711 N710 1.373 . S
C711 H725 0.931 . S
C712 O715 1.256 . S
C712 O716 1.255 . S
O713 Co696 2.021 . S
O713 C706 1.259 . S
O714 Co698 2.117 . S
O714 C706 1.258 . S
O715 Co698 2.020 . S
O715 C712 1.256 . S
O716 Co696 2.062 . S
O716 C712 1.255 . S
O717 C697 1.259 . S
O717 Co698 2.021 . S
H718 C709 0.930 . S
H719 C708 0.931 . S
O720 Co696 2.117 . S
O720 C697 1.258 . S
O721 Co696 2.020 . S
O721 C723 1.256 . S
O722 Co698 2.062 . S
O722 C723 1.255 . S
C723 O721 1.256 . S
C723 O722 1.255 . S
H724 C703 0.931 . S
H725 C711 0.931 . S
Co726 N731 2.057 . S
Co726 O743 2.021 . S
Co726 O746 2.062 . S
Co726 O750 2.117 . S
Co726 O751 2.020 . S
C727 O747 1.259 . S
C727 O750 1.258 . S
Co728 N737 2.057 . S
Co728 O744 2.117 . S
Co728 O745 2.020 . S
Co728 O747 2.021 . S
Co728 O752 2.062 . S
C729 N731 1.316 . S
C729 N732 1.347 . S
C729 H734 0.931 . S
C730 N731 1.375 . S
C730 C733 1.350 . S
C730 H735 0.930 . S
N731 Co726 2.057 . S
N731 C729 1.316 . S
N731 C730 1.375 . S
N732 C729 1.347 . S
N732 C733 1.373 . S
C733 C730 1.350 . S
C733 N732 1.373 . S
C733 H754 0.931 . S
H734 C729 0.931 . S
H735 C730 0.930 . S
C736 O743 1.259 . S
C736 O744 1.258 . S
N737 Co728 2.057 . S
N737 C738 1.316 . S
N737 C739 1.375 . S
C738 N737 1.316 . S
C738 N740 1.347 . S
C738 H749 0.931 . S
C739 N737 1.375 . S
C739 C741 1.350 . S
C739 H748 0.930 . S
N740 C738 1.347 . S
N740 C741 1.373 . S
C741 C739 1.350 . S
C741 N740 1.373 . S
C741 H755 0.931 . S
C742 O745 1.256 . S
C742 O746 1.255 . S
O743 Co726 2.021 . S
O743 C736 1.259 . S
O744 Co728 2.117 . S
O744 C736 1.258 . S
O745 Co728 2.020 . S
O745 C742 1.256 . S
O746 Co726 2.062 . S
O746 C742 1.255 . S
O747 C727 1.259 . S
O747 Co728 2.021 . S
H748 C739 0.930 . S
H749 C738 0.931 . S
O750 Co726 2.117 . S
O750 C727 1.258 . S
O751 Co726 2.020 . S
O751 C753 1.256 . S
O752 Co728 2.062 . S
O752 C753 1.255 . S
C753 O751 1.256 . S
C753 O752 1.255 . S
H754 C733 0.931 . S
H755 C741 0.931 . S
Co756 N761 2.057 . S
Co756 O773 2.021 . S
Co756 O776 2.062 . S
Co756 O780 2.117 . S
Co756 O781 2.020 . S
C757 O777 1.259 . S
C757 O780 1.258 . S
Co758 N767 2.057 . S
Co758 O774 2.117 . S
Co758 O775 2.020 . S
Co758 O777 2.021 . S
Co758 O782 2.062 . S
C759 N761 1.316 . S
C759 N762 1.347 . S
C759 H764 0.931 . S
C760 N761 1.375 . S
C760 C763 1.350 . S
C760 H765 0.930 . S
N761 Co756 2.057 . S
N761 C759 1.316 . S
N761 C760 1.375 . S
N762 C759 1.347 . S
N762 C763 1.373 . S
C763 C760 1.350 . S
C763 N762 1.373 . S
C763 H784 0.931 . S
H764 C759 0.931 . S
H765 C760 0.930 . S
C766 O773 1.259 . S
C766 O774 1.258 . S
N767 Co758 2.057 . S
N767 C768 1.316 . S
N767 C769 1.375 . S
C768 N767 1.316 . S
C768 N770 1.347 . S
C768 H779 0.931 . S
C769 N767 1.375 . S
C769 C771 1.350 . S
C769 H778 0.930 . S
N770 C768 1.347 . S
N770 C771 1.373 . S
C771 C769 1.350 . S
C771 N770 1.373 . S
C771 H785 0.931 . S
C772 O775 1.256 . S
C772 O776 1.255 . S
O773 Co756 2.021 . S
O773 C766 1.259 . S
O774 Co758 2.117 . S
O774 C766 1.258 . S
O775 Co758 2.020 . S
O775 C772 1.256 . S
O776 Co756 2.062 . S
O776 C772 1.255 . S
O777 C757 1.259 . S
O777 Co758 2.021 . S
H778 C769 0.930 . S
H779 C768 0.931 . S
O780 Co756 2.117 . S
O780 C757 1.258 . S
O781 Co756 2.020 . S
O781 C783 1.256 . S
O782 Co758 2.062 . S
O782 C783 1.255 . S
C783 O781 1.256 . S
C783 O782 1.255 . S
H784 C763 0.931 . S
H785 C771 0.931 . S
Co786 N791 2.057 1_455 S
Co786 O803 2.021 . S
Co786 O806 2.062 1_455 S
Co786 O810 2.117 . S
Co786 O811 2.020 1_554 S
C787 O807 1.259 . S
C787 O810 1.258 . S
Co788 N797 2.057 . S
Co788 O804 2.117 . S
Co788 O805 2.020 . S
Co788 O807 2.021 . S
Co788 O812 2.049 1_554 S
C789 N791 1.316 . S
C789 N792 1.347 . S
C789 H794 0.931 . S
C790 N791 1.387 . S
C790 C793 1.349 . S
C790 H795 0.921 1_554 S
N791 Co786 2.057 1_655 S
N791 C789 1.316 . S
N791 C790 1.387 . S
N792 C789 1.347 . S
N792 C793 1.373 . S
C793 C790 1.349 . S
C793 N792 1.373 . S
C793 H814 0.931 1_554 S
H794 C789 0.931 . S
H795 C790 0.921 1_556 S
C796 O803 1.259 . S
C796 O804 1.258 . S
N797 Co788 2.057 . S
N797 C798 1.316 . S
N797 C799 1.375 . S
C798 N797 1.316 . S
C798 N800 1.347 . S
C798 H809 0.931 . S
C799 N797 1.375 . S
C799 C801 1.350 . S
C799 H808 0.930 . S
N800 C798 1.347 . S
N800 C801 1.373 . S
C801 C799 1.350 . S
C801 N800 1.373 . S
C801 H815 0.931 . S
C802 O805 1.256 . S
C802 O806 1.255 1_455 S
O803 Co786 2.021 . S
O803 C796 1.259 . S
O804 Co788 2.117 . S
O804 C796 1.258 . S
O805 Co788 2.020 . S
O805 C802 1.256 . S
O806 Co786 2.062 1_655 S
O806 C802 1.255 1_655 S
O807 C787 1.259 . S
O807 Co788 2.021 . S
H808 C799 0.930 . S
H809 C798 0.931 . S
O810 Co786 2.117 . S
O810 C787 1.258 . S
O811 Co786 2.020 1_556 S
O811 C813 1.256 . S
O812 Co788 2.049 1_556 S
O812 C813 1.264 . S
C813 O811 1.256 . S
C813 O812 1.264 . S
H814 C793 0.931 1_556 S
H815 C801 0.931 . S
H816 C824 0.929 . S
H817 C826 0.930 . S
H818 C828 0.936 . S
H819 C831 0.929 . S
H820 C834 0.930 . S
H821 C836 0.960 . S
H822 C836 0.960 . S
H823 C836 0.960 . S
C824 H816 0.929 . S
C824 C825 1.377 . S
C824 C826 1.384 . S
C825 C824 1.377 . S
C825 C831 1.390 . S
C826 H817 0.930 . S
C826 C824 1.384 . S
C826 C827 1.372 . S
C827 C826 1.372 . S
C827 C828 1.400 . S
C827 C832 1.490 . S
C828 H818 0.936 . S
C828 C827 1.400 . S
C828 C831 1.386 . S
H829 C845 0.930 . S
H830 C846 0.931 . S
C831 H819 0.929 . S
C831 C825 1.390 . S
C831 C828 1.386 . S
C832 C827 1.490 . S
C832 C834 1.395 . S
C832 C835 1.403 . S
H833 C839 0.930 . S
C834 H820 0.930 . S
C834 C832 1.395 . S
C834 C837 1.403 . S
C835 C832 1.403 . S
C835 C836 1.524 . S
C835 C839 1.400 . S
C836 H821 0.960 . S
C836 H822 0.960 . S
C836 H823 0.960 . S
C836 C835 1.524 . S
C837 C834 1.403 . S
C837 C838 1.392 . S
C837 C841 1.495 . S
C838 C837 1.392 . S
C838 C839 1.385 . S
C838 C840 1.478 . S
C839 H833 0.930 . S
C839 C835 1.400 . S
C839 C838 1.385 . S
C840 C838 1.478 . S
C840 C842 1.381 . S
C840 C846 1.383 1_455 S
C841 C837 1.495 . S
C841 H847 0.959 . S
C841 H848 0.961 1_455 S
C841 H849 0.960 . S
C842 C840 1.381 . S
C842 C843 1.394 . S
C842 H850 0.930 . S
C843 C842 1.394 . S
C843 C844 1.383 . S
C843 H851 0.929 . S
C844 C843 1.383 . S
C844 C845 1.377 1_455 S
C845 H829 0.930 . S
C845 C844 1.377 1_655 S
C845 C846 1.379 . S
C846 H830 0.931 . S
C846 C840 1.383 1_655 S
C846 C845 1.379 . S
H847 C841 0.959 . S
H848 C841 0.961 1_655 S
H849 C841 0.960 . S
H850 C842 0.930 . S
H851 C843 0.929 . S
H852 C860 0.929 . S
H853 C862 0.930 . S
H854 C864 0.930 . S
H855 C867 0.929 . S
H856 C870 0.930 . S
H857 C872 0.960 . S
H858 C872 0.960 . S
H859 C872 0.960 . S
C860 H852 0.929 . S
C860 C861 1.377 . S
C860 C862 1.384 . S
C861 C860 1.377 . S
C861 C867 1.390 . S
C862 H853 0.930 . S
C862 C860 1.384 . S
C862 C863 1.372 . S
C863 C862 1.372 . S
C863 C864 1.400 . S
C863 C868 1.490 . S
C864 H854 0.930 . S
C864 C863 1.400 . S
C864 C867 1.386 . S
H865 C881 0.930 . S
H866 C882 0.931 . S
C867 H855 0.929 . S
C867 C861 1.390 . S
C867 C864 1.386 . S
C868 C863 1.490 . S
C868 C870 1.395 . S
C868 C871 1.403 . S
H869 C875 0.930 . S
C870 H856 0.930 . S
C870 C868 1.395 . S
C870 C873 1.403 . S
C871 C868 1.403 . S
C871 C872 1.524 . S
C871 C875 1.400 . S
C872 H857 0.960 . S
C872 H858 0.960 . S
C872 H859 0.960 . S
C872 C871 1.524 . S
C873 C870 1.403 . S
C873 C874 1.392 . S
C873 C877 1.495 . S
C874 C873 1.392 . S
C874 C875 1.385 . S
C874 C876 1.478 . S
C875 H869 0.930 . S
C875 C871 1.400 . S
C875 C874 1.385 . S
C876 C874 1.478 . S
C876 C878 1.381 . S
C876 C882 1.383 . S
C877 C873 1.495 . S
C877 H883 0.959 . S
C877 H884 0.961 . S
C877 H885 0.960 . S
C878 C876 1.381 . S
C878 C879 1.394 . S
C878 H886 0.930 . S
C879 C878 1.394 . S
C879 C880 1.383 . S
C879 H887 0.929 . S
C880 C879 1.383 . S
C880 C881 1.377 . S
C881 H865 0.930 . S
C881 C880 1.377 . S
C881 C882 1.379 . S
C882 H866 0.931 . S
C882 C876 1.383 . S
C882 C881 1.379 . S
H883 C877 0.959 . S
H884 C877 0.961 . S
H885 C877 0.960 . S
H886 C878 0.930 . S
H887 C879 0.929 . S
H888 C896 0.929 . S
H889 C898 0.930 . S
H890 C900 0.930 . S
H891 C903 0.929 . S
H892 C906 0.930 . S
H893 C908 0.960 . S
H894 C908 0.960 . S
H895 C908 0.960 . S
C896 H888 0.929 . S
C896 C897 1.377 . S
C896 C898 1.384 . S
C897 C896 1.377 . S
C897 C903 1.390 . S
C898 H889 0.930 . S
C898 C896 1.384 . S
C898 C899 1.372 . S
C899 C898 1.372 . S
C899 C900 1.400 . S
C899 C904 1.490 . S
C900 H890 0.930 . S
C900 C899 1.400 . S
C900 C903 1.386 . S
H901 C917 0.930 . S
H902 C918 0.931 . S
C903 H891 0.929 . S
C903 C897 1.390 . S
C903 C900 1.386 . S
C904 C899 1.490 . S
C904 C906 1.395 . S
C904 C907 1.403 . S
H905 C911 0.930 . S
C906 H892 0.930 . S
C906 C904 1.395 . S
C906 C909 1.403 . S
C907 C904 1.403 . S
C907 C908 1.524 . S
C907 C911 1.400 . S
C908 H893 0.960 . S
C908 H894 0.960 . S
C908 H895 0.960 . S
C908 C907 1.524 . S
C909 C906 1.403 . S
C909 C910 1.392 . S
C909 C913 1.495 . S
C910 C909 1.392 . S
C910 C911 1.385 . S
C910 C912 1.478 . S
C911 H905 0.930 . S
C911 C907 1.400 . S
C911 C910 1.385 . S
C912 C910 1.478 . S
C912 C914 1.381 . S
C912 C918 1.383 . S
C913 C909 1.495 . S
C913 H919 0.959 . S
C913 H920 0.961 . S
C913 H921 0.960 . S
C914 C912 1.381 . S
C914 C915 1.394 . S
C914 H922 0.930 . S
C915 C914 1.394 . S
C915 C916 1.383 . S
C915 H923 0.929 . S
C916 C915 1.383 . S
C916 C917 1.377 . S
C917 H901 0.930 . S
C917 C916 1.377 . S
C917 C918 1.379 . S
C918 H902 0.931 . S
C918 C912 1.383 . S
C918 C917 1.379 . S
H919 C913 0.959 . S
H920 C913 0.961 . S
H921 C913 0.960 . S
H922 C914 0.930 . S
H923 C915 0.929 . S
H924 C932 0.929 . S
H925 C934 0.930 . S
H926 C936 0.930 . S
H927 C939 0.929 . S
H928 C942 0.930 . S
H929 C944 0.960 . S
H930 C944 0.960 . S
H931 C944 0.960 . S
C932 H924 0.929 . S
C932 C933 1.377 . S
C932 C934 1.384 . S
C933 C932 1.377 . S
C933 C939 1.390 . S
C934 H925 0.930 . S
C934 C932 1.384 . S
C934 C935 1.372 . S
C935 C934 1.372 . S
C935 C936 1.400 . S
C935 C940 1.490 . S
C936 H926 0.930 . S
C936 C935 1.400 . S
C936 C939 1.386 . S
H937 C953 0.930 . S
H938 C954 0.931 . S
C939 H927 0.929 . S
C939 C933 1.390 . S
C939 C936 1.386 . S
C940 C935 1.490 . S
C940 C942 1.395 . S
C940 C943 1.403 . S
H941 C947 0.930 . S
C942 H928 0.930 . S
C942 C940 1.395 . S
C942 C945 1.403 . S
C943 C940 1.403 . S
C943 C944 1.524 . S
C943 C947 1.400 . S
C944 H929 0.960 . S
C944 H930 0.960 . S
C944 H931 0.960 . S
C944 C943 1.524 . S
C945 C942 1.403 . S
C945 C946 1.392 . S
C945 C949 1.495 . S
C946 C945 1.392 . S
C946 C947 1.385 . S
C946 C948 1.478 . S
C947 H941 0.930 . S
C947 C943 1.400 . S
C947 C946 1.385 . S
C948 C946 1.478 . S
C948 C950 1.381 . S
C948 C954 1.383 . S
C949 C945 1.495 . S
C949 H955 0.959 . S
C949 H956 0.961 . S
C949 H957 0.960 . S
C950 C948 1.381 . S
C950 C951 1.394 . S
C950 H958 0.930 . S
C951 C950 1.394 . S
C951 C952 1.383 . S
C951 H959 0.929 . S
C952 C951 1.383 . S
C952 C953 1.377 . S
C953 H937 0.930 . S
C953 C952 1.377 . S
C953 C954 1.379 . S
C954 H938 0.931 . S
C954 C948 1.383 . S
C954 C953 1.379 . S
H955 C949 0.959 . S
H956 C949 0.961 . S
H957 C949 0.960 . S
H958 C950 0.930 . S
H959 C951 0.929 . S
H960 C968 0.929 . S
H961 C970 0.930 . S
H962 C972 0.930 . S
H963 C975 0.929 . S
H964 C978 0.930 . S
H965 C980 0.960 . S
H966 C980 0.960 . S
H967 C980 0.960 . S
C968 H960 0.929 . S
C968 C969 1.377 . S
C968 C970 1.384 . S
C969 C968 1.377 . S
C969 C975 1.390 . S
C970 H961 0.930 . S
C970 C968 1.384 . S
C970 C971 1.372 . S
C971 C970 1.372 . S
C971 C972 1.400 . S
C971 C976 1.490 . S
C972 H962 0.930 . S
C972 C971 1.400 . S
C972 C975 1.386 . S
H973 C989 0.930 . S
H974 C990 0.931 . S
C975 H963 0.929 . S
C975 C969 1.390 . S
C975 C972 1.386 . S
C976 C971 1.490 . S
C976 C978 1.395 . S
C976 C979 1.403 . S
H977 C983 0.930 1_655 S
C978 H964 0.930 . S
C978 C976 1.395 . S
C978 C981 1.403 . S
C979 C976 1.403 . S
C979 C980 1.524 1_455 S
C979 C983 1.400 . S
C980 H965 0.960 . S
C980 H966 0.960 . S
C980 H967 0.960 . S
C980 C979 1.524 1_655 S
C981 C978 1.403 . S
C981 C982 1.392 . S
C981 C985 1.495 . S
C982 C981 1.392 . S
C982 C983 1.385 . S
C982 C984 1.478 . S
C983 H977 0.930 1_455 S
C983 C979 1.400 . S
C983 C982 1.385 . S
C984 C982 1.478 . S
C984 C986 1.381 . S
C984 C990 1.383 . S
C985 C981 1.495 . S
C985 H991 0.959 . S
C985 H992 0.961 . S
C985 H993 0.960 . S
C986 C984 1.381 . S
C986 C987 1.394 . S
C986 H994 0.930 . S
C987 C986 1.394 . S
C987 C988 1.383 . S
C987 H995 0.929 . S
C988 C987 1.383 . S
C988 C989 1.377 . S
C989 H973 0.930 . S
C989 C988 1.377 . S
C989 C990 1.379 . S
C990 H974 0.931 . S
C990 C984 1.383 . S
C990 C989 1.379 . S
H991 C985 0.959 . S
H992 C985 0.961 . S
H993 C985 0.960 . S
H994 C986 0.930 . S
H995 C987 0.929 . S
H996 C1004 0.929 . S
H997 C1006 0.930 . S
H998 C1008 0.930 . S
H999 C1011 0.929 . S
H1000 C1014 0.930 . S
H1001 C1016 0.960 . S
H1002 C1016 0.960 . S
H1003 C1016 0.960 . S
C1004 H996 0.929 . S
C1004 C1005 1.377 . S
C1004 C1006 1.384 . S
C1005 C1004 1.377 . S
C1005 C1011 1.390 . S
C1006 H997 0.930 . S
C1006 C1004 1.384 . S
C1006 C1007 1.372 . S
C1007 C1006 1.372 . S
C1007 C1008 1.400 . S
C1007 C1012 1.490 . S
C1008 H998 0.930 . S
C1008 C1007 1.400 . S
C1008 C1011 1.386 . S
H1009 C1025 0.930 . S
H1010 C1026 0.931 . S
C1011 H999 0.929 . S
C1011 C1005 1.390 . S
C1011 C1008 1.386 . S
C1012 C1007 1.490 . S
C1012 C1014 1.395 . S
C1012 C1015 1.403 . S
H1013 C1019 0.930 . S
C1014 H1000 0.930 . S
C1014 C1012 1.395 . S
C1014 C1017 1.403 . S
C1015 C1012 1.403 . S
C1015 C1016 1.524 . S
C1015 C1019 1.400 . S
C1016 H1001 0.960 . S
C1016 H1002 0.960 . S
C1016 H1003 0.960 . S
C1016 C1015 1.524 . S
C1017 C1014 1.403 . S
C1017 C1018 1.392 . S
C1017 C1021 1.495 . S
C1018 C1017 1.392 . S
C1018 C1019 1.385 . S
C1018 C1020 1.478 . S
C1019 H1013 0.930 . S
C1019 C1015 1.400 . S
C1019 C1018 1.385 . S
C1020 C1018 1.478 . S
C1020 C1022 1.381 . S
C1020 C1026 1.383 . S
C1021 C1017 1.495 . S
C1021 H1027 0.959 . S
C1021 H1028 0.961 . S
C1021 H1029 0.960 . S
C1022 C1020 1.381 . S
C1022 C1023 1.394 . S
C1022 H1030 0.930 . S
C1023 C1022 1.394 . S
C1023 C1024 1.383 . S
C1023 H1031 0.929 . S
C1024 C1023 1.383 . S
C1024 C1025 1.377 . S
C1025 H1009 0.930 . S
C1025 C1024 1.377 . S
C1025 C1026 1.379 . S
C1026 H1010 0.931 . S
C1026 C1020 1.383 . S
C1026 C1025 1.379 . S
H1027 C1021 0.959 . S
H1028 C1021 0.961 . S
H1029 C1021 0.960 . S
H1030 C1022 0.930 . S
H1031 C1023 0.929 . S
H1032 C1040 0.929 . S
H1033 C1042 0.930 . S
H1034 C1044 0.930 . S
H1035 C1047 0.929 . S
H1036 C1050 0.930 . S
H1037 C1052 0.960 . S
H1038 C1052 0.960 . S
H1039 C1052 0.960 . S
C1040 H1032 0.929 . S
C1040 C1041 1.377 . S
C1040 C1042 1.384 . S
C1041 C1040 1.377 . S
C1041 C1047 1.390 . S
C1042 H1033 0.930 . S
C1042 C1040 1.384 . S
C1042 C1043 1.372 . S
C1043 C1042 1.372 . S
C1043 C1044 1.400 . S
C1043 C1048 1.490 . S
C1044 H1034 0.930 . S
C1044 C1043 1.400 . S
C1044 C1047 1.386 . S
H1045 C1061 0.930 . S
H1046 C1062 0.931 . S
C1047 H1035 0.929 . S
C1047 C1041 1.390 . S
C1047 C1044 1.386 . S
C1048 C1043 1.490 . S
C1048 C1050 1.395 . S
C1048 C1051 1.403 . S
H1049 C1055 0.930 . S
C1050 H1036 0.930 . S
C1050 C1048 1.395 . S
C1050 C1053 1.403 . S
C1051 C1048 1.403 . S
C1051 C1052 1.524 . S
C1051 C1055 1.400 . S
C1052 H1037 0.960 . S
C1052 H1038 0.960 . S
C1052 H1039 0.960 . S
C1052 C1051 1.524 . S
C1053 C1050 1.403 . S
C1053 C1054 1.392 . S
C1053 C1057 1.495 . S
C1054 C1053 1.392 . S
C1054 C1055 1.385 . S
C1054 C1056 1.478 . S
C1055 H1049 0.930 . S
C1055 C1051 1.400 . S
C1055 C1054 1.385 . S
C1056 C1054 1.478 . S
C1056 C1058 1.381 1_556 S
C1056 C1062 1.383 . S
C1057 C1053 1.495 . S
C1057 H1063 0.959 . S
C1057 H1064 0.961 . S
C1057 H1065 0.960 1_556 S
C1058 C1056 1.381 1_554 S
C1058 C1059 1.394 . S
C1058 H1066 0.930 . S
C1059 C1058 1.394 . S
C1059 C1060 1.383 . S
C1059 H1067 0.929 . S
C1060 C1059 1.383 . S
C1060 C1061 1.377 1_554 S
C1061 H1045 0.930 . S
C1061 C1060 1.377 1_556 S
C1061 C1062 1.379 . S
C1062 H1046 0.931 . S
C1062 C1056 1.383 . S
C1062 C1061 1.379 . S
H1063 C1057 0.959 . S
H1064 C1057 0.961 . S
H1065 C1057 0.960 1_554 S
H1066 C1058 0.930 . S
H1067 C1059 0.929 . S
H1068 C1076 0.929 . S
H1069 C1078 0.930 . S
H1070 C1080 0.930 . S
H1071 C1083 0.929 . S
H1072 C1086 0.930 . S
H1073 C1088 0.960 . S
H1074 C1088 0.960 . S
H1075 C1088 0.960 . S
C1076 H1068 0.929 . S
C1076 C1077 1.377 . S
C1076 C1078 1.384 . S
C1077 C1076 1.377 . S
C1077 C1083 1.390 . S
C1078 H1069 0.930 . S
C1078 C1076 1.384 . S
C1078 C1079 1.372 . S
C1079 C1078 1.372 . S
C1079 C1080 1.400 . S
C1079 C1084 1.490 . S
C1080 H1070 0.930 . S
C1080 C1079 1.400 . S
C1080 C1083 1.386 . S
H1081 C1097 0.930 . S
H1082 C1098 0.931 . S
C1083 H1071 0.929 . S
C1083 C1077 1.390 . S
C1083 C1080 1.386 . S
C1084 C1079 1.490 . S
C1084 C1086 1.395 . S
C1084 C1087 1.403 . S
H1085 C1091 0.930 . S
C1086 H1072 0.930 . S
C1086 C1084 1.395 . S
C1086 C1089 1.403 . S
C1087 C1084 1.403 . S
C1087 C1088 1.524 . S
C1087 C1091 1.400 . S
C1088 H1073 0.960 . S
C1088 H1074 0.960 . S
C1088 H1075 0.960 . S
C1088 C1087 1.524 . S
C1089 C1086 1.403 . S
C1089 C1090 1.392 . S
C1089 C1093 1.495 . S
C1090 C1089 1.392 . S
C1090 C1091 1.385 . S
C1090 C1092 1.478 . S
C1091 H1085 0.930 . S
C1091 C1087 1.400 . S
C1091 C1090 1.385 . S
C1092 C1090 1.478 . S
C1092 C1094 1.381 . S
C1092 C1098 1.383 . S
C1093 C1089 1.495 . S
C1093 H1099 0.959 . S
C1093 H1100 0.961 . S
C1093 H1101 0.960 . S
C1094 C1092 1.381 . S
C1094 C1095 1.394 . S
C1094 H1102 0.930 . S
C1095 C1094 1.394 . S
C1095 C1096 1.383 . S
C1095 H1103 0.929 . S
C1096 C1095 1.383 . S
C1096 C1097 1.377 . S
C1097 H1081 0.930 . S
C1097 C1096 1.377 . S
C1097 C1098 1.379 . S
C1098 H1082 0.931 . S
C1098 C1092 1.383 . S
C1098 C1097 1.379 . S
H1099 C1093 0.959 . S
H1100 C1093 0.961 . S
H1101 C1093 0.960 . S
H1102 C1094 0.930 . S
H1103 C1095 0.929 . S
H1104 C1112 0.929 . S
H1105 C1114 0.930 . S
H1106 C1116 0.930 . S
H1107 C1119 0.929 . S
H1108 C1122 0.930 . S
H1109 C1124 0.960 . S
H1110 C1124 0.960 . S
H1111 C1124 0.960 . S
C1112 H1104 0.929 . S
C1112 C1113 1.377 1_565 S
C1112 C1114 1.384 . S
C1113 C1112 1.377 1_545 S
C1113 C1119 1.390 . S
C1114 H1105 0.930 . S
C1114 C1112 1.384 . S
C1114 C1115 1.372 1_565 S
C1115 C1114 1.372 1_545 S
C1115 C1116 1.400 . S
C1115 C1120 1.490 . S
C1116 H1106 0.930 . S
C1116 C1115 1.400 . S
C1116 C1119 1.386 . S
H1117 C1133 0.930 . S
H1118 C1134 0.931 . S
C1119 H1107 0.929 . S
C1119 C1113 1.390 . S
C1119 C1116 1.386 . S
C1120 C1115 1.490 . S
C1120 C1122 1.395 1_545 S
C1120 C1123 1.403 . S
H1121 C1127 0.930 . S
C1122 H1108 0.930 . S
C1122 C1120 1.395 1_565 S
C1122 C1125 1.403 . S
C1123 C1120 1.403 . S
C1123 C1124 1.524 . S
C1123 C1127 1.400 . S
C1124 H1109 0.960 . S
C1124 H1110 0.960 . S
C1124 H1111 0.960 . S
C1124 C1123 1.524 . S
C1125 C1122 1.403 . S
C1125 C1126 1.392 1_565 S
C1125 C1129 1.495 . S
C1126 C1125 1.392 1_545 S
C1126 C1127 1.385 . S
C1126 C1128 1.478 . S
C1127 H1121 0.930 . S
C1127 C1123 1.400 . S
C1127 C1126 1.385 . S
C1128 C1126 1.478 . S
C1128 C1130 1.381 1_545 S
C1128 C1134 1.383 . S
C1129 C1125 1.495 . S
C1129 H1135 0.959 . S
C1129 H1136 0.961 . S
C1129 H1137 0.960 . S
C1130 C1128 1.381 1_565 S
C1130 C1131 1.394 . S
C1130 H1138 0.930 . S
C1131 C1130 1.394 . S
C1131 C1132 1.383 1_565 S
C1131 H1139 0.929 . S
C1132 C1131 1.383 1_545 S
C1132 C1133 1.377 . S
C1133 H1117 0.930 . S
C1133 C1132 1.377 . S
C1133 C1134 1.379 . S
C1134 H1118 0.931 . S
C1134 C1128 1.383 . S
C1134 C1133 1.379 . S
H1135 C1129 0.959 . S
H1136 C1129 0.961 . S
H1137 C1129 0.960 . S
H1138 C1130 0.930 . S
H1139 C1131 0.929 . S
H1140 C1148 0.929 . S
H1141 C1150 0.930 . S
H1142 C1152 0.930 . S
H1143 C1155 0.929 . S
H1144 C1158 0.930 . S
H1145 C1160 0.960 . S
H1146 C1160 0.960 . S
H1147 C1160 0.960 . S
C1148 H1140 0.929 . S
C1148 C1149 1.377 . S
C1148 C1150 1.384 . S
C1149 C1148 1.377 . S
C1149 C1155 1.390 . S
C1150 H1141 0.930 . S
C1150 C1148 1.384 . S
C1150 C1151 1.372 . S
C1151 C1150 1.372 . S
C1151 C1152 1.400 . S
C1151 C1156 1.490 . S
C1152 H1142 0.930 . S
C1152 C1151 1.400 . S
C1152 C1155 1.386 . S
H1153 C1169 0.930 . S
H1154 C1170 0.931 . S
C1155 H1143 0.929 . S
C1155 C1149 1.390 . S
C1155 C1152 1.386 . S
C1156 C1151 1.490 . S
C1156 C1158 1.395 . S
C1156 C1159 1.403 . S
H1157 C1163 0.930 . S
C1158 H1144 0.930 . S
C1158 C1156 1.395 . S
C1158 C1161 1.403 . S
C1159 C1156 1.403 . S
C1159 C1160 1.524 . S
C1159 C1163 1.400 . S
C1160 H1145 0.960 . S
C1160 H1146 0.960 . S
C1160 H1147 0.960 . S
C1160 C1159 1.524 . S
C1161 C1158 1.403 . S
C1161 C1162 1.392 . S
C1161 C1165 1.495 . S
C1162 C1161 1.392 . S
C1162 C1163 1.385 . S
C1162 C1164 1.478 . S
C1163 H1157 0.930 . S
C1163 C1159 1.400 . S
C1163 C1162 1.385 . S
C1164 C1162 1.478 . S
C1164 C1166 1.381 . S
C1164 C1170 1.383 . S
C1165 C1161 1.495 . S
C1165 H1171 0.959 . S
C1165 H1172 0.961 . S
C1165 H1173 0.960 . S
C1166 C1164 1.381 . S
C1166 C1167 1.394 . S
C1166 H1174 0.930 . S
C1167 C1166 1.394 . S
C1167 C1168 1.383 . S
C1167 H1175 0.929 . S
C1168 C1167 1.383 . S
C1168 C1169 1.377 . S
C1169 H1153 0.930 . S
C1169 C1168 1.377 . S
C1169 C1170 1.379 . S
C1170 H1154 0.931 . S
C1170 C1164 1.383 . S
C1170 C1169 1.379 . S
H1171 C1165 0.959 . S
H1172 C1165 0.961 . S
H1173 C1165 0.960 . S
H1174 C1166 0.930 . S
H1175 C1167 0.929 . S
H1176 C1184 0.929 . S
H1177 C1186 0.930 . S
H1178 C1188 0.930 . S
H1179 C1191 0.929 . S
H1180 C1194 0.930 . S
H1181 C1196 0.960 . S
H1182 C1196 0.960 . S
H1183 C1196 0.960 . S
C1184 H1176 0.929 . S
C1184 C1185 1.377 . S
C1184 C1186 1.384 . S
C1185 C1184 1.377 . S
C1185 C1191 1.390 . S
C1186 H1177 0.930 . S
C1186 C1184 1.384 . S
C1186 C1187 1.372 . S
C1187 C1186 1.372 . S
C1187 C1188 1.400 . S
C1187 C1192 1.490 . S
C1188 H1178 0.930 . S
C1188 C1187 1.400 . S
C1188 C1191 1.386 . S
H1189 C1205 0.930 . S
H1190 C1206 0.931 . S
C1191 H1179 0.929 . S
C1191 C1185 1.390 . S
C1191 C1188 1.386 . S
C1192 C1187 1.490 . S
C1192 C1194 1.395 . S
C1192 C1195 1.403 . S
H1193 C1199 0.930 . S
C1194 H1180 0.930 . S
C1194 C1192 1.395 . S
C1194 C1197 1.403 . S
C1195 C1192 1.403 . S
C1195 C1196 1.524 . S
C1195 C1199 1.400 . S
C1196 H1181 0.960 . S
C1196 H1182 0.960 . S
C1196 H1183 0.960 . S
C1196 C1195 1.524 . S
C1197 C1194 1.403 . S
C1197 C1198 1.392 . S
C1197 C1201 1.495 . S
C1198 C1197 1.392 . S
C1198 C1199 1.385 . S
C1198 C1200 1.478 . S
C1199 H1193 0.930 . S
C1199 C1195 1.400 . S
C1199 C1198 1.385 . S
C1200 C1198 1.478 . S
C1200 C1202 1.381 . S
C1200 C1206 1.383 . S
C1201 C1197 1.495 . S
C1201 H1207 0.959 . S
C1201 H1208 0.961 . S
C1201 H1209 0.960 . S
C1202 C1200 1.381 . S
C1202 C1203 1.394 . S
C1202 H1210 0.930 . S
C1203 C1202 1.394 . S
C1203 C1204 1.383 . S
C1203 H1211 0.929 . S
C1204 C1203 1.383 . S
C1204 C1205 1.377 . S
C1205 H1189 0.930 . S
C1205 C1204 1.377 . S
C1205 C1206 1.379 . S
C1206 H1190 0.931 . S
C1206 C1200 1.383 . S
C1206 C1205 1.379 . S
H1207 C1201 0.959 . S
H1208 C1201 0.961 . S
H1209 C1201 0.960 . S
H1210 C1202 0.930 . S
H1211 C1203 0.929 . S
H1212 C1220 0.929 . S
H1213 C1222 0.930 . S
H1214 C1224 0.930 . S
H1215 C1227 0.929 . S
H1216 C1230 0.930 . S
H1217 C1232 0.960 . S
H1218 C1232 0.960 . S
H1219 C1232 0.960 . S
C1220 H1212 0.929 . S
C1220 C1221 1.377 . S
C1220 C1222 1.384 . S
C1221 C1220 1.377 . S
C1221 C1227 1.390 . S
C1222 H1213 0.930 . S
C1222 C1220 1.384 . S
C1222 C1223 1.372 . S
C1223 C1222 1.372 . S
C1223 C1224 1.400 . S
C1223 C1228 1.490 . S
C1224 H1214 0.930 . S
C1224 C1223 1.400 . S
C1224 C1227 1.386 . S
H1225 C1241 0.930 . S
H1226 C1242 0.931 . S
C1227 H1215 0.929 . S
C1227 C1221 1.390 . S
C1227 C1224 1.386 . S
C1228 C1223 1.490 . S
C1228 C1230 1.395 . S
C1228 C1231 1.403 . S
H1229 C1235 0.930 . S
C1230 H1216 0.930 . S
C1230 C1228 1.395 . S
C1230 C1233 1.403 . S
C1231 C1228 1.403 . S
C1231 C1232 1.524 . S
C1231 C1235 1.400 . S
C1232 H1217 0.960 . S
C1232 H1218 0.960 . S
C1232 H1219 0.960 . S
C1232 C1231 1.524 . S
C1233 C1230 1.403 . S
C1233 C1234 1.392 . S
C1233 C1237 1.495 . S
C1234 C1233 1.392 . S
C1234 C1235 1.385 . S
C1234 C1236 1.478 . S
C1235 H1229 0.930 . S
C1235 C1231 1.400 . S
C1235 C1234 1.385 . S
C1236 C1234 1.478 . S
C1236 C1238 1.381 . S
C1236 C1242 1.383 . S
C1237 C1233 1.495 . S
C1237 H1243 0.959 . S
C1237 H1244 0.961 . S
C1237 H1245 0.960 . S
C1238 C1236 1.381 . S
C1238 C1239 1.394 . S
C1238 H1246 0.930 . S
C1239 C1238 1.394 . S
C1239 C1240 1.383 . S
C1239 H1247 0.929 . S
C1240 C1239 1.383 . S
C1240 C1241 1.377 . S
C1241 H1225 0.930 . S
C1241 C1240 1.377 . S
C1241 C1242 1.379 . S
C1242 H1226 0.931 . S
C1242 C1236 1.383 . S
C1242 C1241 1.379 . S
H1243 C1237 0.959 . S
H1244 C1237 0.961 . S
H1245 C1237 0.960 . S
H1246 C1238 0.930 . S
H1247 C1239 0.929 . S
H1248 C1256 0.929 . S
H1249 C1258 0.930 . S
H1250 C1260 0.930 . S
H1251 C1263 0.929 . S
H1252 C1266 0.930 1_565 S
H1253 C1268 0.960 . S
H1254 C1268 0.960 . S
H1255 C1268 0.960 . S
C1256 H1248 0.929 . S
C1256 C1257 1.377 . S
C1256 C1258 1.384 . S
C1257 C1256 1.377 . S
C1257 C1263 1.390 . S
C1258 H1249 0.930 . S
C1258 C1256 1.384 . S
C1258 C1259 1.372 . S
C1259 C1258 1.372 . S
C1259 C1260 1.400 . S
C1259 C1264 1.490 . S
C1260 H1250 0.930 . S
C1260 C1259 1.400 . S
C1260 C1263 1.386 . S
H1261 C1277 0.930 . S
H1262 C1278 0.931 . S
C1263 H1251 0.929 . S
C1263 C1257 1.390 . S
C1263 C1260 1.386 . S
C1264 C1259 1.490 . S
C1264 C1266 1.395 . S
C1264 C1267 1.403 . S
H1265 C1271 0.930 . S
C1266 H1252 0.930 1_545 S
C1266 C1264 1.395 . S
C1266 C1269 1.403 . S
C1267 C1264 1.403 . S
C1267 C1268 1.524 . S
C1267 C1271 1.400 . S
C1268 H1253 0.960 . S
C1268 H1254 0.960 . S
C1268 H1255 0.960 . S
C1268 C1267 1.524 . S
C1269 C1266 1.403 . S
C1269 C1270 1.392 . S
C1269 C1273 1.495 1_545 S
C1270 C1269 1.392 . S
C1270 C1271 1.385 . S
C1270 C1272 1.478 . S
C1271 H1265 0.930 . S
C1271 C1267 1.400 . S
C1271 C1270 1.385 . S
C1272 C1270 1.478 . S
C1272 C1274 1.381 . S
C1272 C1278 1.383 . S
C1273 C1269 1.495 1_565 S
C1273 H1279 0.959 . S
C1273 H1280 0.961 . S
C1273 H1281 0.960 . S
C1274 C1272 1.381 . S
C1274 C1275 1.394 . S
C1274 H1282 0.930 . S
C1275 C1274 1.394 . S
C1275 C1276 1.383 . S
C1275 H1283 0.929 . S
C1276 C1275 1.383 . S
C1276 C1277 1.377 . S
C1277 H1261 0.930 . S
C1277 C1276 1.377 . S
C1277 C1278 1.379 . S
C1278 H1262 0.931 . S
C1278 C1272 1.383 . S
C1278 C1277 1.379 . S
H1279 C1273 0.959 . S
H1280 C1273 0.961 . S
H1281 C1273 0.960 . S
H1282 C1274 0.930 . S
H1283 C1275 0.929 . S
H1284 C1292 0.929 . S
H1285 C1294 0.930 . S
H1286 C1296 0.930 . S
H1287 C1299 0.929 . S
H1288 C1302 0.930 . S
H1289 C1304 0.960 . S
H1290 C1304 0.960 . S
H1291 C1304 0.960 . S
C1292 H1284 0.929 . S
C1292 C1293 1.377 . S
C1292 C1294 1.384 . S
C1293 C1292 1.377 . S
C1293 C1299 1.390 . S
C1294 H1285 0.930 . S
C1294 C1292 1.384 . S
C1294 C1295 1.372 . S
C1295 C1294 1.372 . S
C1295 C1296 1.400 . S
C1295 C1300 1.490 . S
C1296 H1286 0.930 . S
C1296 C1295 1.400 . S
C1296 C1299 1.386 . S
H1297 C1313 0.930 . S
H1298 C1314 0.931 . S
C1299 H1287 0.929 . S
C1299 C1293 1.390 . S
C1299 C1296 1.386 . S
C1300 C1295 1.490 . S
C1300 C1302 1.395 . S
C1300 C1303 1.403 . S
H1301 C1307 0.930 . S
C1302 H1288 0.930 . S
C1302 C1300 1.395 . S
C1302 C1305 1.403 . S
C1303 C1300 1.403 . S
C1303 C1304 1.524 . S
C1303 C1307 1.400 . S
C1304 H1289 0.960 . S
C1304 H1290 0.960 . S
C1304 H1291 0.960 . S
C1304 C1303 1.524 . S
C1305 C1302 1.403 . S
C1305 C1306 1.392 . S
C1305 C1309 1.495 . S
C1306 C1305 1.392 . S
C1306 C1307 1.385 . S
C1306 C1308 1.478 . S
C1307 H1301 0.930 . S
C1307 C1303 1.400 . S
C1307 C1306 1.385 . S
C1308 C1306 1.478 . S
C1308 C1310 1.381 . S
C1308 C1314 1.383 . S
C1309 C1305 1.495 . S
C1309 H1315 0.959 . S
C1309 H1316 0.961 . S
C1309 H1317 0.960 . S
C1310 C1308 1.381 . S
C1310 C1311 1.394 . S
C1310 H1318 0.930 . S
C1311 C1310 1.394 . S
C1311 C1312 1.383 . S
C1311 H1319 0.929 . S
C1312 C1311 1.383 . S
C1312 C1313 1.377 . S
C1313 H1297 0.930 . S
C1313 C1312 1.377 . S
C1313 C1314 1.379 . S
C1314 H1298 0.931 . S
C1314 C1308 1.383 . S
C1314 C1313 1.379 . S
H1315 C1309 0.959 . S
H1316 C1309 0.961 . S
H1317 C1309 0.960 . S
H1318 C1310 0.930 . S
H1319 C1311 0.929 . S
H1320 C1328 0.929 . S
H1321 C1330 0.930 . S
H1322 C1332 0.930 . S
H1323 C1335 0.929 . S
H1324 C1338 0.930 . S
H1325 C1340 0.960 . S
H1326 C1340 0.960 . S
H1327 C1340 0.960 . S
C1328 H1320 0.929 . S
C1328 C1329 1.377 . S
C1328 C1330 1.384 . S
C1329 C1328 1.377 . S
C1329 C1335 1.390 . S
C1330 H1321 0.930 . S
C1330 C1328 1.384 . S
C1330 C1331 1.372 . S
C1331 C1330 1.372 . S
C1331 C1332 1.400 . S
C1331 C1336 1.490 . S
C1332 H1322 0.930 . S
C1332 C1331 1.400 . S
C1332 C1335 1.386 . S
H1333 C1349 0.930 . S
H1334 C1350 0.931 . S
C1335 H1323 0.929 . S
C1335 C1329 1.390 . S
C1335 C1332 1.386 . S
C1336 C1331 1.490 . S
C1336 C1338 1.395 . S
C1336 C1339 1.403 . S
H1337 C1343 0.930 . S
C1338 H1324 0.930 . S
C1338 C1336 1.395 . S
C1338 C1341 1.403 . S
C1339 C1336 1.403 . S
C1339 C1340 1.524 . S
C1339 C1343 1.400 . S
C1340 H1325 0.960 . S
C1340 H1326 0.960 . S
C1340 H1327 0.960 . S
C1340 C1339 1.524 . S
C1341 C1338 1.403 . S
C1341 C1342 1.392 . S
C1341 C1345 1.495 1_545 S
C1342 C1341 1.392 . S
C1342 C1343 1.385 . S
C1342 C1344 1.478 . S
C1343 H1337 0.930 . S
C1343 C1339 1.400 . S
C1343 C1342 1.385 . S
C1344 C1342 1.478 . S
C1344 C1346 1.395 . S
C1344 C1350 1.383 . S
C1345 C1341 1.495 1_565 S
C1345 H1351 0.959 . S
C1345 H1352 0.938 1_565 S
C1345 H1353 0.960 . S
C1346 C1344 1.395 . S
C1346 C1347 1.392 1_545 S
C1346 H1354 0.918 1_545 S
C1347 C1346 1.392 1_565 S
C1347 C1348 1.383 1_565 S
C1347 H1355 0.929 . S
C1348 C1347 1.383 1_545 S
C1348 C1349 1.377 . S
C1349 H1333 0.930 . S
C1349 C1348 1.377 . S
C1349 C1350 1.379 . S
C1350 H1334 0.931 . S
C1350 C1344 1.383 . S
C1350 C1349 1.379 . S
H1351 C1345 0.959 . S
H1352 C1345 0.938 1_545 S
H1353 C1345 0.960 . S
H1354 C1346 0.918 1_565 S
H1355 C1347 0.929 . S
H1356 C1364 0.929 . S
H1357 C1366 0.930 . S
H1358 C1368 0.930 . S
H1359 C1371 0.929 . S
H1360 C1374 0.930 . S
H1361 C1376 0.960 . S
H1362 C1376 0.960 . S
H1363 C1376 0.960 . S
C1364 H1356 0.929 . S
C1364 C1365 1.377 . S
C1364 C1366 1.384 . S
C1365 C1364 1.377 . S
C1365 C1371 1.390 . S
C1366 H1357 0.930 . S
C1366 C1364 1.384 . S
C1366 C1367 1.372 . S
C1367 C1366 1.372 . S
C1367 C1368 1.400 . S
C1367 C1372 1.490 . S
C1368 H1358 0.930 . S
C1368 C1367 1.400 . S
C1368 C1371 1.386 . S
H1369 C1385 0.930 . S
H1370 C1386 0.931 . S
C1371 H1359 0.929 . S
C1371 C1365 1.390 . S
C1371 C1368 1.386 . S
C1372 C1367 1.490 . S
C1372 C1374 1.395 . S
C1372 C1375 1.403 . S
H1373 C1379 0.930 . S
C1374 H1360 0.930 . S
C1374 C1372 1.395 . S
C1374 C1377 1.403 . S
C1375 C1372 1.403 . S
C1375 C1376 1.524 . S
C1375 C1379 1.400 . S
C1376 H1361 0.960 . S
C1376 H1362 0.960 . S
C1376 H1363 0.960 . S
C1376 C1375 1.524 . S
C1377 C1374 1.403 . S
C1377 C1378 1.392 . S
C1377 C1381 1.495 . S
C1378 C1377 1.392 . S
C1378 C1379 1.385 . S
C1378 C1380 1.478 . S
C1379 H1373 0.930 . S
C1379 C1375 1.400 . S
C1379 C1378 1.385 . S
C1380 C1378 1.478 . S
C1380 C1382 1.381 . S
C1380 C1386 1.383 . S
C1381 C1377 1.495 . S
C1381 H1387 0.959 . S
C1381 H1388 0.961 . S
C1381 H1389 0.960 . S
C1382 C1380 1.381 . S
C1382 C1383 1.394 . S
C1382 H1390 0.930 . S
C1383 C1382 1.394 . S
C1383 C1384 1.383 . S
C1383 H1391 0.929 . S
C1384 C1383 1.383 . S
C1384 C1385 1.377 . S
C1385 H1369 0.930 . S
C1385 C1384 1.377 . S
C1385 C1386 1.379 . S
C1386 H1370 0.931 . S
C1386 C1380 1.383 . S
C1386 C1385 1.379 . S
H1387 C1381 0.959 . S
H1388 C1381 0.961 . S
H1389 C1381 0.960 . S
H1390 C1382 0.930 . S
H1391 C1383 0.929 . S
H1392 C1400 0.929 . S
H1393 C1402 0.930 . S
H1394 C1404 0.930 1_556 S
H1395 C1407 0.929 1_556 S
H1396 C1410 0.930 . S
H1397 C1412 0.960 1_556 S
H1398 C1412 0.960 . S
H1399 C1412 0.960 1_556 S
C1400 H1392 0.929 . S
C1400 C1401 1.377 . S
C1400 C1402 1.384 . S
C1401 C1400 1.377 . S
C1401 C1407 1.390 . S
C1402 H1393 0.930 . S
C1402 C1400 1.384 . S
C1402 C1403 1.372 . S
C1403 C1402 1.372 . S
C1403 C1404 1.400 . S
C1403 C1408 1.490 . S
C1404 H1394 0.930 1_554 S
C1404 C1403 1.400 . S
C1404 C1407 1.386 . S
H1405 C1421 0.931 1_556 S
H1406 C1422 0.931 1_556 S
C1407 H1395 0.929 1_554 S
C1407 C1401 1.390 . S
C1407 C1404 1.386 . S
C1408 C1403 1.490 . S
C1408 C1410 1.395 . S
C1408 C1411 1.403 . S
H1409 C1415 0.930 . S
C1410 H1396 0.930 . S
C1410 C1408 1.395 . S
C1410 C1413 1.403 . S
C1411 C1408 1.403 . S
C1411 C1412 1.524 . S
C1411 C1415 1.400 . S
C1412 H1397 0.960 1_554 S
C1412 H1398 0.960 . S
C1412 H1399 0.960 1_554 S
C1412 C1411 1.524 . S
C1413 C1410 1.403 . S
C1413 C1414 1.392 . S
C1413 C1417 1.495 . S
C1414 C1413 1.392 . S
C1414 C1415 1.385 . S
C1414 C1416 1.478 . S
C1415 H1409 0.930 . S
C1415 C1411 1.400 . S
C1415 C1414 1.385 . S
C1416 C1414 1.478 . S
C1416 C1418 1.381 . S
C1416 C1422 1.383 . S
C1417 C1413 1.495 . S
C1417 H1423 0.959 . S
C1417 H1424 0.961 . S
C1417 H1425 0.960 . S
C1418 C1416 1.381 . S
C1418 C1419 1.394 . S
C1418 H1426 0.930 . S
C1419 C1418 1.394 . S
C1419 C1420 1.383 . S
C1419 H1427 0.929 . S
C1420 C1419 1.383 . S
C1420 C1421 1.375 . S
C1421 H1405 0.931 1_554 S
C1421 C1420 1.375 . S
C1421 C1422 1.379 . S
C1422 H1406 0.931 1_554 S
C1422 C1416 1.383 . S
C1422 C1421 1.379 . S
H1423 C1417 0.959 . S
H1424 C1417 0.961 . S
H1425 C1417 0.960 . S
H1426 C1418 0.930 . S
H1427 C1419 0.929 . S
H1428 C1436 0.929 . S
H1429 C1438 0.930 . S
H1430 C1440 0.930 . S
H1431 C1443 0.929 . S
H1432 C1446 0.930 . S
H1433 C1448 0.960 . S
H1434 C1448 0.960 . S
H1435 C1448 0.960 . S
C1436 H1428 0.929 . S
C1436 C1437 1.377 . S
C1436 C1438 1.384 . S
C1437 C1436 1.377 . S
C1437 C1443 1.390 . S
C1438 H1429 0.930 . S
C1438 C1436 1.384 . S
C1438 C1439 1.372 . S
C1439 C1438 1.372 . S
C1439 C1440 1.400 . S
C1439 C1444 1.490 . S
C1440 H1430 0.930 . S
C1440 C1439 1.400 . S
C1440 C1443 1.386 . S
H1441 C1457 0.930 . S
H1442 C1458 0.931 . S
C1443 H1431 0.929 . S
C1443 C1437 1.390 . S
C1443 C1440 1.386 . S
C1444 C1439 1.490 . S
C1444 C1446 1.395 . S
C1444 C1447 1.403 . S
H1445 C1451 0.930 . S
C1446 H1432 0.930 . S
C1446 C1444 1.395 . S
C1446 C1449 1.403 . S
C1447 C1444 1.403 . S
C1447 C1448 1.524 . S
C1447 C1451 1.400 . S
C1448 H1433 0.960 . S
C1448 H1434 0.960 . S
C1448 H1435 0.960 . S
C1448 C1447 1.524 . S
C1449 C1446 1.403 . S
C1449 C1450 1.392 . S
C1449 C1453 1.495 . S
C1450 C1449 1.392 . S
C1450 C1451 1.385 . S
C1450 C1452 1.478 . S
C1451 H1445 0.930 . S
C1451 C1447 1.400 . S
C1451 C1450 1.385 . S
C1452 C1450 1.478 . S
C1452 C1454 1.381 . S
C1452 C1458 1.383 . S
C1453 C1449 1.495 . S
C1453 H1459 0.959 . S
C1453 H1460 0.961 . S
C1453 H1461 0.960 . S
C1454 C1452 1.381 . S
C1454 C1455 1.394 . S
C1454 H1462 0.930 . S
C1455 C1454 1.394 . S
C1455 C1456 1.383 . S
C1455 H1463 0.929 . S
C1456 C1455 1.383 . S
C1456 C1457 1.377 . S
C1457 H1441 0.930 . S
C1457 C1456 1.377 . S
C1457 C1458 1.379 . S
C1458 H1442 0.931 . S
C1458 C1452 1.383 . S
C1458 C1457 1.379 . S
H1459 C1453 0.959 . S
H1460 C1453 0.961 . S
H1461 C1453 0.960 . S
H1462 C1454 0.930 . S
H1463 C1455 0.929 . S
H1464 C1472 0.929 . S
H1465 C1474 0.930 . S
H1466 C1476 0.930 . S
H1467 C1479 0.929 . S
H1468 C1482 0.930 . S
H1469 C1484 0.960 . S
H1470 C1484 0.960 . S
H1471 C1484 0.960 . S
C1472 H1464 0.929 . S
C1472 C1473 1.377 . S
C1472 C1474 1.384 . S
C1473 C1472 1.377 . S
C1473 C1479 1.390 . S
C1474 H1465 0.930 . S
C1474 C1472 1.384 . S
C1474 C1475 1.372 . S
C1475 C1474 1.372 . S
C1475 C1476 1.400 . S
C1475 C1480 1.490 . S
C1476 H1466 0.930 . S
C1476 C1475 1.400 . S
C1476 C1479 1.386 . S
H1477 C1493 0.930 . S
H1478 C1494 0.931 . S
C1479 H1467 0.929 . S
C1479 C1473 1.390 . S
C1479 C1476 1.386 . S
C1480 C1475 1.490 . S
C1480 C1482 1.395 . S
C1480 C1483 1.403 . S
H1481 C1487 0.930 . S
C1482 H1468 0.930 . S
C1482 C1480 1.395 . S
C1482 C1485 1.403 . S
C1483 C1480 1.403 . S
C1483 C1484 1.524 . S
C1483 C1487 1.400 . S
C1484 H1469 0.960 . S
C1484 H1470 0.960 . S
C1484 H1471 0.960 . S
C1484 C1483 1.524 . S
C1485 C1482 1.403 . S
C1485 C1486 1.392 . S
C1485 C1489 1.495 . S
C1486 C1485 1.392 . S
C1486 C1487 1.385 . S
C1486 C1488 1.478 . S
C1487 H1481 0.930 . S
C1487 C1483 1.400 . S
C1487 C1486 1.385 . S
C1488 C1486 1.478 . S
C1488 C1490 1.381 . S
C1488 C1494 1.383 . S
C1489 C1485 1.495 . S
C1489 H1495 0.959 . S
C1489 H1496 0.961 . S
C1489 H1497 0.960 . S
C1490 C1488 1.381 . S
C1490 C1491 1.394 . S
C1490 H1498 0.930 . S
C1491 C1490 1.394 . S
C1491 C1492 1.383 . S
C1491 H1499 0.929 . S
C1492 C1491 1.383 . S
C1492 C1493 1.377 . S
C1493 H1477 0.930 . S
C1493 C1492 1.377 . S
C1493 C1494 1.379 . S
C1494 H1478 0.931 . S
C1494 C1488 1.383 . S
C1494 C1493 1.379 . S
H1495 C1489 0.959 . S
H1496 C1489 0.961 . S
H1497 C1489 0.960 . S
H1498 C1490 0.930 . S
H1499 C1491 0.929 . S
H1500 C1508 0.929 . S
H1501 C1510 0.930 . S
H1502 C1512 0.930 . S
H1503 C1515 0.929 . S
H1504 C1518 0.930 . S
H1505 C1520 0.960 . S
H1506 C1520 0.960 . S
H1507 C1520 0.960 . S
C1508 H1500 0.929 . S
C1508 C1509 1.377 . S
C1508 C1510 1.384 . S
C1509 C1508 1.377 . S
C1509 C1515 1.390 . S
C1510 H1501 0.930 . S
C1510 C1508 1.384 . S
C1510 C1511 1.372 . S
C1511 C1510 1.372 . S
C1511 C1512 1.400 . S
C1511 C1516 1.490 . S
C1512 H1502 0.930 . S
C1512 C1511 1.400 . S
C1512 C1515 1.386 . S
H1513 C1529 0.930 . S
H1514 C1530 0.931 . S
C1515 H1503 0.929 . S
C1515 C1509 1.390 . S
C1515 C1512 1.386 . S
C1516 C1511 1.490 . S
C1516 C1518 1.395 . S
C1516 C1519 1.403 . S
H1517 C1523 0.930 . S
C1518 H1504 0.930 . S
C1518 C1516 1.395 . S
C1518 C1521 1.403 . S
C1519 C1516 1.403 . S
C1519 C1520 1.524 . S
C1519 C1523 1.400 . S
C1520 H1505 0.960 . S
C1520 H1506 0.960 . S
C1520 H1507 0.960 . S
C1520 C1519 1.524 . S
C1521 C1518 1.403 . S
C1521 C1522 1.392 . S
C1521 C1525 1.495 . S
C1522 C1521 1.392 . S
C1522 C1523 1.385 . S
C1522 C1524 1.478 . S
C1523 H1517 0.930 . S
C1523 C1519 1.400 . S
C1523 C1522 1.385 . S
C1524 C1522 1.478 . S
C1524 C1526 1.381 . S
C1524 C1530 1.383 . S
C1525 C1521 1.495 . S
C1525 H1531 0.959 . S
C1525 H1532 0.961 . S
C1525 H1533 0.960 . S
C1526 C1524 1.381 . S
C1526 C1527 1.394 . S
C1526 H1534 0.930 . S
C1527 C1526 1.394 . S
C1527 C1528 1.383 . S
C1527 H1535 0.929 . S
C1528 C1527 1.383 . S
C1528 C1529 1.377 . S
C1529 H1513 0.930 . S
C1529 C1528 1.377 . S
C1529 C1530 1.379 . S
C1530 H1514 0.931 . S
C1530 C1524 1.383 . S
C1530 C1529 1.379 . S
H1531 C1525 0.959 . S
H1532 C1525 0.961 . S
H1533 C1525 0.960 . S
H1534 C1526 0.930 . S
H1535 C1527 0.929 . S
H1536 C1544 0.929 . S
H1537 C1546 0.930 . S
H1538 C1548 0.930 . S
H1539 C1551 0.929 . S
H1540 C1554 0.930 . S
H1541 C1556 0.960 . S
H1542 C1556 0.960 . S
H1543 C1556 0.960 . S
C1544 H1536 0.929 . S
C1544 C1545 1.377 . S
C1544 C1546 1.384 . S
C1545 C1544 1.377 . S
C1545 C1551 1.390 . S
C1546 H1537 0.930 . S
C1546 C1544 1.384 . S
C1546 C1547 1.372 . S
C1547 C1546 1.372 . S
C1547 C1548 1.400 . S
C1547 C1552 1.490 . S
C1548 H1538 0.930 . S
C1548 C1547 1.400 . S
C1548 C1551 1.386 . S
H1549 C1565 0.930 . S
H1550 C1566 0.931 . S
C1551 H1539 0.929 . S
C1551 C1545 1.390 . S
C1551 C1548 1.386 . S
C1552 C1547 1.490 . S
C1552 C1554 1.395 . S
C1552 C1555 1.403 . S
H1553 C1559 0.930 . S
C1554 H1540 0.930 . S
C1554 C1552 1.395 . S
C1554 C1557 1.403 . S
C1555 C1552 1.403 . S
C1555 C1556 1.524 . S
C1555 C1559 1.400 . S
C1556 H1541 0.960 . S
C1556 H1542 0.960 . S
C1556 H1543 0.960 . S
C1556 C1555 1.524 . S
C1557 C1554 1.403 . S
C1557 C1558 1.392 . S
C1557 C1561 1.495 . S
C1558 C1557 1.392 . S
C1558 C1559 1.385 . S
C1558 C1560 1.478 . S
C1559 H1553 0.930 . S
C1559 C1555 1.400 . S
C1559 C1558 1.385 . S
C1560 C1558 1.478 . S
C1560 C1562 1.381 . S
C1560 C1566 1.383 . S
C1561 C1557 1.495 . S
C1561 H1567 0.959 . S
C1561 H1568 0.961 . S
C1561 H1569 0.960 . S
C1562 C1560 1.381 . S
C1562 C1563 1.394 . S
C1562 H1570 0.930 . S
C1563 C1562 1.394 . S
C1563 C1564 1.383 . S
C1563 H1571 0.929 . S
C1564 C1563 1.383 . S
C1564 C1565 1.377 . S
C1565 H1549 0.930 . S
C1565 C1564 1.377 . S
C1565 C1566 1.379 . S
C1566 H1550 0.931 . S
C1566 C1560 1.383 . S
C1566 C1565 1.379 . S
H1567 C1561 0.959 . S
H1568 C1561 0.961 . S
H1569 C1561 0.960 . S
H1570 C1562 0.930 . S
H1571 C1563 0.929 . S
H1572 C1580 0.929 . S
H1573 C1582 0.930 . S
H1574 C1584 0.930 . S
H1575 C1587 0.929 . S
H1576 C1590 0.930 . S
H1577 C1592 0.960 . S
H1578 C1592 0.960 . S
H1579 C1592 0.960 . S
C1580 H1572 0.929 . S
C1580 C1581 1.377 . S
C1580 C1582 1.384 . S
C1581 C1580 1.377 . S
C1581 C1587 1.390 . S
C1582 H1573 0.930 . S
C1582 C1580 1.384 . S
C1582 C1583 1.372 . S
C1583 C1582 1.372 . S
C1583 C1584 1.400 . S
C1583 C1588 1.490 . S
C1584 H1574 0.930 . S
C1584 C1583 1.400 . S
C1584 C1587 1.386 . S
H1585 C1601 0.930 . S
H1586 C1602 0.931 . S
C1587 H1575 0.929 . S
C1587 C1581 1.390 . S
C1587 C1584 1.386 . S
C1588 C1583 1.490 . S
C1588 C1590 1.395 . S
C1588 C1591 1.403 . S
H1589 C1595 0.930 . S
C1590 H1576 0.930 . S
C1590 C1588 1.395 . S
C1590 C1593 1.403 . S
C1591 C1588 1.403 . S
C1591 C1592 1.524 . S
C1591 C1595 1.400 . S
C1592 H1577 0.960 . S
C1592 H1578 0.960 . S
C1592 H1579 0.960 . S
C1592 C1591 1.524 . S
C1593 C1590 1.403 . S
C1593 C1594 1.392 . S
C1593 C1597 1.495 . S
C1594 C1593 1.392 . S
C1594 C1595 1.385 . S
C1594 C1596 1.478 . S
C1595 H1589 0.930 . S
C1595 C1591 1.400 . S
C1595 C1594 1.385 . S
C1596 C1594 1.478 . S
C1596 C1598 1.381 . S
C1596 C1602 1.383 . S
C1597 C1593 1.495 . S
C1597 H1603 0.959 . S
C1597 H1604 0.961 . S
C1597 H1605 0.960 . S
C1598 C1596 1.381 . S
C1598 C1599 1.394 1_565 S
C1598 H1606 0.930 1_565 S
C1599 C1598 1.394 1_545 S
C1599 C1600 1.383 1_545 S
C1599 H1607 0.929 . S
C1600 C1599 1.383 1_565 S
C1600 C1601 1.377 . S
C1601 H1585 0.930 . S
C1601 C1600 1.377 . S
C1601 C1602 1.379 . S
C1602 H1586 0.931 . S
C1602 C1596 1.383 . S
C1602 C1601 1.379 . S
H1603 C1597 0.959 . S
H1604 C1597 0.961 . S
H1605 C1597 0.960 . S
H1606 C1598 0.930 1_545 S
H1607 C1599 0.929 . S
H1608 C1616 0.929 . S
H1609 C1618 0.930 . S
H1610 C1620 0.930 . S
H1611 C1623 0.929 . S
H1612 C1626 0.930 . S
H1613 C1628 0.960 . S
H1614 C1628 0.960 . S
H1615 C1628 0.960 . S
C1616 H1608 0.929 . S
C1616 C1617 1.377 . S
C1616 C1618 1.384 . S
C1617 C1616 1.377 . S
C1617 C1623 1.390 . S
C1618 H1609 0.930 . S
C1618 C1616 1.384 . S
C1618 C1619 1.372 . S
C1619 C1618 1.372 . S
C1619 C1620 1.400 . S
C1619 C1624 1.490 . S
C1620 H1610 0.930 . S
C1620 C1619 1.400 . S
C1620 C1623 1.386 . S
H1621 C1637 0.930 . S
H1622 C1638 0.931 . S
C1623 H1611 0.929 . S
C1623 C1617 1.390 . S
C1623 C1620 1.386 . S
C1624 C1619 1.490 . S
C1624 C1626 1.395 . S
C1624 C1627 1.403 . S
H1625 C1631 0.930 . S
C1626 H1612 0.930 . S
C1626 C1624 1.395 . S
C1626 C1629 1.403 . S
C1627 C1624 1.403 . S
C1627 C1628 1.524 . S
C1627 C1631 1.400 . S
C1628 H1613 0.960 . S
C1628 H1614 0.960 . S
C1628 H1615 0.960 . S
C1628 C1627 1.524 . S
C1629 C1626 1.403 . S
C1629 C1630 1.392 . S
C1629 C1633 1.495 . S
C1630 C1629 1.392 . S
C1630 C1631 1.385 . S
C1630 C1632 1.478 . S
C1631 H1625 0.930 . S
C1631 C1627 1.400 . S
C1631 C1630 1.385 . S
C1632 C1630 1.478 . S
C1632 C1634 1.381 . S
C1632 C1638 1.383 . S
C1633 C1629 1.495 . S
C1633 H1639 0.959 . S
C1633 H1640 0.961 . S
C1633 H1641 0.960 . S
C1634 C1632 1.381 . S
C1634 C1635 1.394 . S
C1634 H1642 0.930 . S
C1635 C1634 1.394 . S
C1635 C1636 1.383 . S
C1635 H1643 0.929 . S
C1636 C1635 1.383 . S
C1636 C1637 1.377 . S
C1637 H1621 0.930 . S
C1637 C1636 1.377 . S
C1637 C1638 1.379 . S
C1638 H1622 0.931 . S
C1638 C1632 1.383 . S
C1638 C1637 1.379 . S
H1639 C1633 0.959 . S
H1640 C1633 0.961 . S
H1641 C1633 0.960 . S
H1642 C1634 0.930 . S
H1643 C1635 0.929 . S
H1644 C1652 0.929 . S
H1645 C1654 0.930 . S
H1646 C1656 0.930 . S
H1647 C1659 0.929 . S
H1648 C1662 0.930 . S
H1649 C1664 0.960 . S
H1650 C1664 0.960 . S
H1651 C1664 0.960 . S
C1652 H1644 0.929 . S
C1652 C1653 1.377 . S
C1652 C1654 1.384 . S
C1653 C1652 1.377 . S
C1653 C1659 1.390 . S
C1654 H1645 0.930 . S
C1654 C1652 1.384 . S
C1654 C1655 1.372 . S
C1655 C1654 1.372 . S
C1655 C1656 1.400 . S
C1655 C1660 1.490 . S
C1656 H1646 0.930 . S
C1656 C1655 1.400 . S
C1656 C1659 1.386 . S
H1657 C1673 0.930 . S
H1658 C1674 0.931 . S
C1659 H1647 0.929 . S
C1659 C1653 1.390 . S
C1659 C1656 1.386 . S
C1660 C1655 1.490 . S
C1660 C1662 1.395 . S
C1660 C1663 1.403 . S
H1661 C1667 0.930 . S
C1662 H1648 0.930 . S
C1662 C1660 1.395 . S
C1662 C1665 1.403 . S
C1663 C1660 1.403 . S
C1663 C1664 1.524 . S
C1663 C1667 1.400 . S
C1664 H1649 0.960 . S
C1664 H1650 0.960 . S
C1664 H1651 0.960 . S
C1664 C1663 1.524 . S
C1665 C1662 1.403 . S
C1665 C1666 1.392 . S
C1665 C1669 1.495 . S
C1666 C1665 1.392 . S
C1666 C1667 1.385 . S
C1666 C1668 1.478 . S
C1667 H1661 0.930 . S
C1667 C1663 1.400 . S
C1667 C1666 1.385 . S
C1668 C1666 1.478 . S
C1668 C1670 1.381 . S
C1668 C1674 1.383 . S
C1669 C1665 1.495 . S
C1669 H1675 0.959 . S
C1669 H1676 0.961 . S
C1669 H1677 0.960 . S
C1670 C1668 1.381 . S
C1670 C1671 1.394 . S
C1670 H1678 0.930 . S
C1671 C1670 1.394 . S
C1671 C1672 1.383 . S
C1671 H1679 0.929 . S
C1672 C1671 1.383 . S
C1672 C1673 1.377 . S
C1673 H1657 0.930 . S
C1673 C1672 1.377 . S
C1673 C1674 1.379 . S
C1674 H1658 0.931 . S
C1674 C1668 1.383 . S
C1674 C1673 1.379 . S
H1675 C1669 0.959 . S
H1676 C1669 0.961 . S
H1677 C1669 0.960 . S
H1678 C1670 0.930 . S
H1679 C1671 0.929 . S
H1680 C1688 0.929 . S
H1681 C1690 0.930 . S
H1682 C1692 0.930 1_655 S
H1683 C1695 0.929 1_655 S
H1684 C1698 0.930 . S
H1685 C1700 0.960 . S
H1686 C1700 0.960 . S
H1687 C1700 0.960 . S
C1688 H1680 0.929 . S
C1688 C1689 1.377 . S
C1688 C1690 1.384 . S
C1689 C1688 1.377 . S
C1689 C1695 1.390 . S
C1690 H1681 0.930 . S
C1690 C1688 1.384 . S
C1690 C1691 1.372 . S
C1691 C1690 1.372 . S
C1691 C1692 1.400 . S
C1691 C1696 1.490 . S
C1692 H1682 0.930 1_455 S
C1692 C1691 1.400 . S
C1692 C1695 1.386 . S
H1693 C1709 0.930 . S
H1694 C1710 0.931 . S
C1695 H1683 0.929 1_455 S
C1695 C1689 1.390 . S
C1695 C1692 1.386 . S
C1696 C1691 1.490 . S
C1696 C1698 1.395 . S
C1696 C1699 1.403 . S
H1697 C1703 0.930 . S
C1698 H1684 0.930 . S
C1698 C1696 1.395 . S
C1698 C1701 1.403 . S
C1699 C1696 1.403 . S
C1699 C1700 1.524 1_455 S
C1699 C1703 1.400 . S
C1700 H1685 0.960 . S
C1700 H1686 0.960 . S
C1700 H1687 0.960 . S
C1700 C1699 1.524 1_655 S
C1701 C1698 1.403 . S
C1701 C1702 1.392 . S
C1701 C1705 1.495 . S
C1702 C1701 1.392 . S
C1702 C1703 1.385 . S
C1702 C1704 1.478 . S
C1703 H1697 0.930 . S
C1703 C1699 1.400 . S
C1703 C1702 1.385 . S
C1704 C1702 1.478 . S
C1704 C1706 1.381 . S
C1704 C1710 1.383 . S
C1705 C1701 1.495 . S
C1705 H1711 0.959 . S
C1705 H1712 0.961 . S
C1705 H1713 0.960 . S
C1706 C1704 1.381 . S
C1706 C1707 1.394 1_556 S
C1706 H1714 0.930 . S
C1707 C1706 1.394 1_554 S
C1707 C1708 1.383 1_554 S
C1707 H1715 0.929 . S
C1708 C1707 1.383 1_556 S
C1708 C1709 1.377 . S
C1709 H1693 0.930 . S
C1709 C1708 1.377 . S
C1709 C1710 1.379 . S
C1710 H1694 0.931 . S
C1710 C1704 1.383 . S
C1710 C1709 1.379 . S
H1711 C1705 0.959 . S
H1712 C1705 0.961 . S
H1713 C1705 0.960 . S
H1714 C1706 0.930 . S
H1715 C1707 0.929 . S
H1716 C1724 0.929 . S
H1717 C1726 0.930 . S
H1718 C1728 0.930 . S
H1719 C1731 0.929 . S
H1720 C1734 0.930 . S
H1721 C1736 0.960 . S
H1722 C1736 0.960 . S
H1723 C1736 0.960 . S
C1724 H1716 0.929 . S
C1724 C1725 1.377 . S
C1724 C1726 1.384 . S
C1725 C1724 1.377 . S
C1725 C1731 1.390 . S
C1726 H1717 0.930 . S
C1726 C1724 1.384 . S
C1726 C1727 1.372 . S
C1727 C1726 1.372 . S
C1727 C1728 1.400 . S
C1727 C1732 1.490 . S
C1728 H1718 0.930 . S
C1728 C1727 1.400 . S
C1728 C1731 1.386 . S
H1729 C1745 0.930 . S
H1730 C1746 0.931 . S
C1731 H1719 0.929 . S
C1731 C1725 1.390 . S
C1731 C1728 1.386 . S
C1732 C1727 1.490 . S
C1732 C1734 1.395 . S
C1732 C1735 1.403 . S
H1733 C1739 0.930 . S
C1734 H1720 0.930 . S
C1734 C1732 1.395 . S
C1734 C1737 1.403 . S
C1735 C1732 1.403 . S
C1735 C1736 1.524 . S
C1735 C1739 1.400 . S
C1736 H1721 0.960 . S
C1736 H1722 0.960 . S
C1736 H1723 0.960 . S
C1736 C1735 1.524 . S
C1737 C1734 1.403 . S
C1737 C1738 1.392 . S
C1737 C1741 1.495 . S
C1738 C1737 1.392 . S
C1738 C1739 1.385 . S
C1738 C1740 1.478 . S
C1739 H1733 0.930 . S
C1739 C1735 1.400 . S
C1739 C1738 1.385 . S
C1740 C1738 1.478 . S
C1740 C1742 1.381 . S
C1740 C1746 1.383 . S
C1741 C1737 1.495 . S
C1741 H1747 0.959 . S
C1741 H1748 0.961 . S
C1741 H1749 0.960 . S
C1742 C1740 1.381 . S
C1742 C1743 1.394 . S
C1742 H1750 0.930 . S
C1743 C1742 1.394 . S
C1743 C1744 1.383 . S
C1743 H1751 0.929 . S
C1744 C1743 1.383 . S
C1744 C1745 1.377 . S
C1745 H1729 0.930 . S
C1745 C1744 1.377 . S
C1745 C1746 1.379 . S
C1746 H1730 0.931 . S
C1746 C1740 1.383 . S
C1746 C1745 1.379 . S
H1747 C1741 0.959 . S
H1748 C1741 0.961 . S
H1749 C1741 0.960 . S
H1750 C1742 0.930 . S
H1751 C1743 0.929 . S
H1752 C1760 0.929 . S
H1753 C1762 0.930 . S
H1754 C1764 0.930 . S
H1755 C1767 0.929 . S
H1756 C1770 0.930 . S
H1757 C1772 0.960 . S
H1758 C1772 0.960 . S
H1759 C1772 0.960 . S
C1760 H1752 0.929 . S
C1760 C1761 1.377 . S
C1760 C1762 1.384 . S
C1761 C1760 1.377 . S
C1761 C1767 1.390 . S
C1762 H1753 0.930 . S
C1762 C1760 1.384 . S
C1762 C1763 1.372 . S
C1763 C1762 1.372 . S
C1763 C1764 1.400 . S
C1763 C1768 1.490 . S
C1764 H1754 0.930 . S
C1764 C1763 1.400 . S
C1764 C1767 1.386 . S
H1765 C1781 0.930 . S
H1766 C1782 0.931 . S
C1767 H1755 0.929 . S
C1767 C1761 1.390 . S
C1767 C1764 1.386 . S
C1768 C1763 1.490 . S
C1768 C1770 1.395 . S
C1768 C1771 1.403 . S
H1769 C1775 0.930 . S
C1770 H1756 0.930 . S
C1770 C1768 1.395 . S
C1770 C1773 1.403 . S
C1771 C1768 1.403 . S
C1771 C1772 1.524 . S
C1771 C1775 1.400 . S
C1772 H1757 0.960 . S
C1772 H1758 0.960 . S
C1772 H1759 0.960 . S
C1772 C1771 1.524 . S
C1773 C1770 1.403 . S
C1773 C1774 1.392 . S
C1773 C1777 1.495 . S
C1774 C1773 1.392 . S
C1774 C1775 1.385 . S
C1774 C1776 1.478 . S
C1775 H1769 0.930 . S
C1775 C1771 1.400 . S
C1775 C1774 1.385 . S
C1776 C1774 1.478 . S
C1776 C1778 1.381 . S
C1776 C1782 1.383 . S
C1777 C1773 1.495 . S
C1777 H1783 0.959 . S
C1777 H1784 0.961 . S
C1777 H1785 0.960 . S
C1778 C1776 1.381 . S
C1778 C1779 1.394 . S
C1778 H1786 0.930 . S
C1779 C1778 1.394 . S
C1779 C1780 1.383 . S
C1779 H1787 0.929 . S
C1780 C1779 1.383 . S
C1780 C1781 1.377 . S
C1781 H1765 0.930 . S
C1781 C1780 1.377 . S
C1781 C1782 1.379 . S
C1782 H1766 0.931 . S
C1782 C1776 1.383 . S
C1782 C1781 1.379 . S
H1783 C1777 0.959 . S
H1784 C1777 0.961 . S
H1785 C1777 0.960 . S
H1786 C1778 0.930 . S
H1787 C1779 0.929 . S
H1788 C1796 0.929 . S
H1789 C1798 0.930 . S
H1790 C1800 0.930 . S
H1791 C1803 0.929 . S
H1792 C1806 0.930 . S
H1793 C1808 0.960 . S
H1794 C1808 0.960 . S
H1795 C1808 0.960 . S
C1796 H1788 0.929 . S
C1796 C1797 1.377 . S
C1796 C1798 1.384 . S
C1797 C1796 1.377 . S
C1797 C1803 1.390 . S
C1798 H1789 0.930 . S
C1798 C1796 1.384 . S
C1798 C1799 1.372 . S
C1799 C1798 1.372 . S
C1799 C1800 1.400 . S
C1799 C1804 1.490 . S
C1800 H1790 0.930 . S
C1800 C1799 1.400 . S
C1800 C1803 1.386 . S
H1801 C1817 0.930 . S
H1802 C1818 0.931 . S
C1803 H1791 0.929 . S
C1803 C1797 1.390 . S
C1803 C1800 1.386 . S
C1804 C1799 1.490 . S
C1804 C1806 1.395 . S
C1804 C1807 1.403 . S
H1805 C1811 0.930 . S
C1806 H1792 0.930 . S
C1806 C1804 1.395 . S
C1806 C1809 1.403 . S
C1807 C1804 1.403 . S
C1807 C1808 1.524 . S
C1807 C1811 1.400 . S
C1808 H1793 0.960 . S
C1808 H1794 0.960 . S
C1808 H1795 0.960 . S
C1808 C1807 1.524 . S
C1809 C1806 1.403 . S
C1809 C1810 1.392 . S
C1809 C1813 1.495 . S
C1810 C1809 1.392 . S
C1810 C1811 1.385 . S
C1810 C1812 1.478 . S
C1811 H1805 0.930 . S
C1811 C1807 1.400 . S
C1811 C1810 1.385 . S
C1812 C1810 1.478 . S
C1812 C1814 1.381 . S
C1812 C1818 1.383 . S
C1813 C1809 1.495 . S
C1813 H1819 0.959 . S
C1813 H1820 0.961 . S
C1813 H1821 0.960 . S
C1814 C1812 1.381 . S
C1814 C1815 1.394 . S
C1814 H1822 0.930 . S
C1815 C1814 1.394 . S
C1815 C1816 1.383 . S
C1815 H1823 0.929 . S
C1816 C1815 1.383 . S
C1816 C1817 1.377 . S
C1817 H1801 0.930 . S
C1817 C1816 1.377 . S
C1817 C1818 1.379 . S
C1818 H1802 0.931 . S
C1818 C1812 1.383 . S
C1818 C1817 1.379 . S
H1819 C1813 0.959 . S
H1820 C1813 0.961 . S
H1821 C1813 0.960 . S
H1822 C1814 0.930 . S
H1823 C1815 0.929 . S
H1824 C1832 0.929 . S
H1825 C1834 0.930 . S
H1826 C1836 0.930 . S
H1827 C1839 0.929 . S
H1828 C1842 0.928 1_655 S
H1829 C1844 0.960 . S
H1830 C1844 0.960 . S
H1831 C1844 0.960 . S
C1832 H1824 0.929 . S
C1832 C1833 1.336 1_655 S
C1832 C1834 1.384 . S
C1833 C1832 1.336 1_455 S
C1833 C1839 1.442 . S
C1834 H1825 0.930 . S
C1834 C1832 1.384 . S
C1834 C1835 1.372 1_655 S
C1835 C1834 1.372 1_455 S
C1835 C1836 1.400 . S
C1835 C1840 1.490 . S
C1836 H1826 0.930 . S
C1836 C1835 1.400 . S
C1836 C1839 1.386 . S
H1837 C1853 0.930 . S
H1838 C1854 0.931 . S
C1839 H1827 0.929 . S
C1839 C1833 1.442 . S
C1839 C1836 1.386 . S
C1840 C1835 1.490 . S
C1840 C1842 1.396 . S
C1840 C1843 1.403 . S
H1841 C1847 0.930 . S
C1842 H1828 0.928 1_455 S
C1842 C1840 1.396 . S
C1842 C1845 1.404 . S
C1843 C1840 1.403 . S
C1843 C1844 1.524 . S
C1843 C1847 1.400 . S
C1844 H1829 0.960 . S
C1844 H1830 0.960 . S
C1844 H1831 0.960 . S
C1844 C1843 1.524 . S
C1845 C1842 1.404 . S
C1845 C1846 1.392 . S
C1845 C1849 1.495 1_455 S
C1846 C1845 1.392 . S
C1846 C1847 1.385 . S
C1846 C1848 1.478 . S
C1847 H1841 0.930 . S
C1847 C1843 1.400 . S
C1847 C1846 1.385 . S
C1848 C1846 1.478 . S
C1848 C1850 1.381 . S
C1848 C1854 1.383 . S
C1849 C1845 1.495 1_655 S
C1849 H1855 0.959 . S
C1849 H1856 0.961 . S
C1849 H1857 0.960 . S
C1850 C1848 1.381 . S
C1850 C1851 1.394 . S
C1850 H1858 0.930 1_455 S
C1851 C1850 1.394 . S
C1851 C1852 1.383 . S
C1851 H1859 0.929 . S
C1852 C1851 1.383 . S
C1852 C1853 1.377 . S
C1853 H1837 0.930 . S
C1853 C1852 1.377 . S
C1853 C1854 1.379 . S
C1854 H1838 0.931 . S
C1854 C1848 1.383 . S
C1854 C1853 1.379 . S
H1855 C1849 0.959 . S
H1856 C1849 0.961 . S
H1857 C1849 0.960 . S
H1858 C1850 0.930 1_655 S
H1859 C1851 0.929 . S
H1860 C1868 0.929 . S
H1861 C1870 0.930 . S
H1862 C1872 0.930 . S
H1863 C1875 0.929 . S
H1864 C1878 0.930 . S
H1865 C1880 0.960 . S
H1866 C1880 0.960 . S
H1867 C1880 0.960 . S
C1868 H1860 0.929 . S
C1868 C1869 1.377 . S
C1868 C1870 1.384 . S
C1869 C1868 1.377 . S
C1869 C1875 1.390 . S
C1870 H1861 0.930 . S
C1870 C1868 1.384 . S
C1870 C1871 1.372 . S
C1871 C1870 1.372 . S
C1871 C1872 1.400 . S
C1871 C1876 1.490 . S
C1872 H1862 0.930 . S
C1872 C1871 1.400 . S
C1872 C1875 1.386 . S
H1873 C1889 0.930 . S
H1874 C1890 0.931 . S
C1875 H1863 0.929 . S
C1875 C1869 1.390 . S
C1875 C1872 1.386 . S
C1876 C1871 1.490 . S
C1876 C1878 1.395 . S
C1876 C1879 1.403 . S
H1877 C1883 0.930 . S
C1878 H1864 0.930 . S
C1878 C1876 1.395 . S
C1878 C1881 1.403 . S
C1879 C1876 1.403 . S
C1879 C1880 1.524 . S
C1879 C1883 1.400 . S
C1880 H1865 0.960 . S
C1880 H1866 0.960 . S
C1880 H1867 0.960 . S
C1880 C1879 1.524 . S
C1881 C1878 1.403 . S
C1881 C1882 1.392 . S
C1881 C1885 1.495 . S
C1882 C1881 1.392 . S
C1882 C1883 1.385 . S
C1882 C1884 1.478 . S
C1883 H1877 0.930 . S
C1883 C1879 1.400 . S
C1883 C1882 1.385 . S
C1884 C1882 1.478 . S
C1884 C1886 1.381 . S
C1884 C1890 1.383 . S
C1885 C1881 1.495 . S
C1885 H1891 0.959 . S
C1885 H1892 0.961 . S
C1885 H1893 0.960 . S
C1886 C1884 1.381 . S
C1886 C1887 1.394 . S
C1886 H1894 0.930 . S
C1887 C1886 1.394 . S
C1887 C1888 1.383 . S
C1887 H1895 0.929 . S
C1888 C1887 1.383 . S
C1888 C1889 1.377 . S
C1889 H1873 0.930 . S
C1889 C1888 1.377 . S
C1889 C1890 1.379 . S
C1890 H1874 0.931 . S
C1890 C1884 1.383 . S
C1890 C1889 1.379 . S
H1891 C1885 0.959 . S
H1892 C1885 0.961 . S
H1893 C1885 0.960 . S
H1894 C1886 0.930 . S
H1895 C1887 0.929 . S
H1896 C1904 0.929 . S
H1897 C1906 0.930 . S
H1898 C1908 0.930 . S
H1899 C1911 0.929 . S
H1900 C1914 0.930 . S
H1901 C1916 0.960 . S
H1902 C1916 0.960 . S
H1903 C1916 0.960 . S
C1904 H1896 0.929 . S
C1904 C1905 1.377 . S
C1904 C1906 1.384 . S
C1905 C1904 1.377 . S
C1905 C1911 1.390 . S
C1906 H1897 0.930 . S
C1906 C1904 1.384 . S
C1906 C1907 1.372 . S
C1907 C1906 1.372 . S
C1907 C1908 1.400 . S
C1907 C1912 1.490 . S
C1908 H1898 0.930 . S
C1908 C1907 1.400 . S
C1908 C1911 1.386 . S
H1909 C1925 0.930 . S
H1910 C1926 0.931 . S
C1911 H1899 0.929 . S
C1911 C1905 1.390 . S
C1911 C1908 1.386 . S
C1912 C1907 1.490 . S
C1912 C1914 1.395 . S
C1912 C1915 1.403 . S
H1913 C1919 0.930 . S
C1914 H1900 0.930 . S
C1914 C1912 1.395 . S
C1914 C1917 1.403 . S
C1915 C1912 1.403 . S
C1915 C1916 1.524 . S
C1915 C1919 1.400 . S
C1916 H1901 0.960 . S
C1916 H1902 0.960 . S
C1916 H1903 0.960 . S
C1916 C1915 1.524 . S
C1917 C1914 1.403 . S
C1917 C1918 1.392 . S
C1917 C1921 1.495 . S
C1918 C1917 1.392 . S
C1918 C1919 1.385 . S
C1918 C1920 1.478 . S
C1919 H1913 0.930 . S
C1919 C1915 1.400 . S
C1919 C1918 1.385 . S
C1920 C1918 1.478 . S
C1920 C1922 1.381 . S
C1920 C1926 1.383 . S
C1921 C1917 1.495 . S
C1921 H1927 0.959 . S
C1921 H1928 0.961 . S
C1921 H1929 0.960 . S
C1922 C1920 1.381 . S
C1922 C1923 1.394 . S
C1922 H1930 0.930 . S
C1923 C1922 1.394 . S
C1923 C1924 1.383 . S
C1923 H1931 0.929 . S
C1924 C1923 1.383 . S
C1924 C1925 1.377 . S
C1925 H1909 0.930 . S
C1925 C1924 1.377 . S
C1925 C1926 1.379 . S
C1926 H1910 0.931 . S
C1926 C1920 1.383 . S
C1926 C1925 1.379 . S
H1927 C1921 0.959 . S
H1928 C1921 0.961 . S
H1929 C1921 0.960 . S
H1930 C1922 0.930 . S
H1931 C1923 0.929 . S
H1932 C1940 0.929 . S
H1933 C1942 0.930 . S
H1934 C1944 0.930 . S
H1935 C1947 0.929 . S
H1936 C1950 0.930 . S
H1937 C1952 0.960 . S
H1938 C1952 0.960 . S
H1939 C1952 0.960 . S
C1940 H1932 0.929 . S
C1940 C1941 1.377 . S
C1940 C1942 1.384 . S
C1941 C1940 1.377 . S
C1941 C1947 1.390 . S
C1942 H1933 0.930 . S
C1942 C1940 1.384 . S
C1942 C1943 1.372 . S
C1943 C1942 1.372 . S
C1943 C1944 1.400 . S
C1943 C1948 1.490 . S
C1944 H1934 0.930 . S
C1944 C1943 1.400 . S
C1944 C1947 1.386 . S
H1945 C1961 0.930 . S
H1946 C1962 0.931 . S
C1947 H1935 0.929 . S
C1947 C1941 1.390 . S
C1947 C1944 1.386 . S
C1948 C1943 1.490 . S
C1948 C1950 1.395 . S
C1948 C1951 1.403 . S
H1949 C1955 0.930 . S
C1950 H1936 0.930 . S
C1950 C1948 1.395 . S
C1950 C1953 1.403 . S
C1951 C1948 1.403 . S
C1951 C1952 1.524 . S
C1951 C1955 1.400 . S
C1952 H1937 0.960 . S
C1952 H1938 0.960 . S
C1952 H1939 0.960 . S
C1952 C1951 1.524 . S
C1953 C1950 1.403 . S
C1953 C1954 1.392 . S
C1953 C1957 1.495 . S
C1954 C1953 1.392 . S
C1954 C1955 1.385 . S
C1954 C1956 1.478 . S
C1955 H1949 0.930 . S
C1955 C1951 1.400 . S
C1955 C1954 1.385 . S
C1956 C1954 1.478 . S
C1956 C1958 1.381 . S
C1956 C1962 1.383 . S
C1957 C1953 1.495 . S
C1957 H1963 0.959 . S
C1957 H1964 0.961 . S
C1957 H1965 0.960 . S
C1958 C1956 1.381 . S
C1958 C1959 1.394 . S
C1958 H1966 0.930 . S
C1959 C1958 1.394 . S
C1959 C1960 1.383 . S
C1959 H1967 0.929 . S
C1960 C1959 1.383 . S
C1960 C1961 1.377 . S
C1961 H1945 0.930 . S
C1961 C1960 1.377 . S
C1961 C1962 1.379 . S
C1962 H1946 0.931 . S
C1962 C1956 1.383 . S
C1962 C1961 1.379 . S
H1963 C1957 0.959 . S
H1964 C1957 0.961 . S
H1965 C1957 0.960 . S
H1966 C1958 0.930 . S
H1967 C1959 0.929 . S
H1968 C1976 0.929 . S
H1969 C1978 0.930 . S
H1970 C1980 0.930 . S
H1971 C1983 0.929 . S
H1972 C1986 0.930 . S
H1973 C1988 0.960 . S
H1974 C1988 0.960 . S
H1975 C1988 0.960 . S
C1976 H1968 0.929 . S
C1976 C1977 1.377 . S
C1976 C1978 1.384 . S
C1977 C1976 1.377 . S
C1977 C1983 1.390 . S
C1978 H1969 0.930 . S
C1978 C1976 1.384 . S
C1978 C1979 1.372 . S
C1979 C1978 1.372 . S
C1979 C1980 1.400 . S
C1979 C1984 1.490 . S
C1980 H1970 0.930 . S
C1980 C1979 1.400 . S
C1980 C1983 1.386 . S
H1981 C1997 0.930 . S
H1982 C1998 0.931 . S
C1983 H1971 0.929 . S
C1983 C1977 1.390 . S
C1983 C1980 1.386 . S
C1984 C1979 1.490 . S
C1984 C1986 1.395 . S
C1984 C1987 1.403 . S
H1985 C1991 0.930 . S
C1986 H1972 0.930 . S
C1986 C1984 1.395 . S
C1986 C1989 1.403 . S
C1987 C1984 1.403 . S
C1987 C1988 1.524 . S
C1987 C1991 1.400 . S
C1988 H1973 0.960 . S
C1988 H1974 0.960 . S
C1988 H1975 0.960 . S
C1988 C1987 1.524 . S
C1989 C1986 1.403 . S
C1989 C1990 1.392 . S
C1989 C1993 1.495 . S
C1990 C1989 1.392 . S
C1990 C1991 1.385 . S
C1990 C1992 1.478 . S
C1991 H1985 0.930 . S
C1991 C1987 1.400 . S
C1991 C1990 1.385 . S
C1992 C1990 1.478 . S
C1992 C1994 1.381 . S
C1992 C1998 1.383 . S
C1993 C1989 1.495 . S
C1993 H1999 0.959 . S
C1993 H2000 0.961 . S
C1993 H2001 0.960 . S
C1994 C1992 1.381 . S
C1994 C1995 1.394 . S
C1994 H2002 0.930 . S
C1995 C1994 1.394 . S
C1995 C1996 1.383 . S
C1995 H2003 0.929 . S
C1996 C1995 1.383 . S
C1996 C1997 1.377 . S
C1997 H1981 0.930 . S
C1997 C1996 1.377 . S
C1997 C1998 1.379 . S
C1998 H1982 0.931 . S
C1998 C1992 1.383 . S
C1998 C1997 1.379 . S
H1999 C1993 0.959 . S
H2000 C1993 0.961 . S
H2001 C1993 0.960 . S
H2002 C1994 0.930 . S
H2003 C1995 0.929 . S
H2004 C2012 0.929 . S
H2005 C2014 0.930 . S
H2006 C2016 0.930 . S
H2007 C2019 0.929 . S
H2008 C2022 0.930 . S
H2009 C2024 0.960 . S
H2010 C2024 0.960 . S
H2011 C2024 0.960 . S
C2012 H2004 0.929 . S
C2012 C2013 1.377 . S
C2012 C2014 1.384 . S
C2013 C2012 1.377 . S
C2013 C2019 1.390 . S
C2014 H2005 0.930 . S
C2014 C2012 1.384 . S
C2014 C2015 1.372 . S
C2015 C2014 1.372 . S
C2015 C2016 1.400 . S
C2015 C2020 1.490 . S
C2016 H2006 0.930 . S
C2016 C2015 1.400 . S
C2016 C2019 1.386 . S
H2017 C2033 0.930 . S
H2018 C2034 0.931 . S
C2019 H2007 0.929 . S
C2019 C2013 1.390 . S
C2019 C2016 1.386 . S
C2020 C2015 1.490 . S
C2020 C2022 1.395 . S
C2020 C2023 1.403 . S
H2021 C2027 0.930 . S
C2022 H2008 0.930 . S
C2022 C2020 1.395 . S
C2022 C2025 1.403 . S
C2023 C2020 1.403 . S
C2023 C2024 1.524 . S
C2023 C2027 1.400 . S
C2024 H2009 0.960 . S
C2024 H2010 0.960 . S
C2024 H2011 0.960 . S
C2024 C2023 1.524 . S
C2025 C2022 1.403 . S
C2025 C2026 1.392 . S
C2025 C2029 1.495 . S
C2026 C2025 1.392 . S
C2026 C2027 1.385 . S
C2026 C2028 1.478 . S
C2027 H2021 0.930 . S
C2027 C2023 1.400 . S
C2027 C2026 1.385 . S
C2028 C2026 1.478 . S
C2028 C2030 1.381 . S
C2028 C2034 1.383 . S
C2029 C2025 1.495 . S
C2029 H2035 0.959 . S
C2029 H2036 0.961 . S
C2029 H2037 0.960 . S
C2030 C2028 1.381 . S
C2030 C2031 1.394 . S
C2030 H2038 0.930 . S
C2031 C2030 1.394 . S
C2031 C2032 1.383 . S
C2031 H2039 0.929 . S
C2032 C2031 1.383 . S
C2032 C2033 1.377 . S
C2033 H2017 0.930 . S
C2033 C2032 1.377 . S
C2033 C2034 1.379 . S
C2034 H2018 0.931 . S
C2034 C2028 1.383 . S
C2034 C2033 1.379 . S
H2035 C2029 0.959 . S
H2036 C2029 0.961 . S
H2037 C2029 0.960 . S
H2038 C2030 0.930 . S
H2039 C2031 0.929 . S
H2040 C2048 0.929 . S
H2041 C2050 0.930 . S
H2042 C2052 0.916 1_565 S
H2043 C2055 0.929 1_565 S
H2044 C2058 0.945 . S
H2045 C2060 0.960 . S
H2046 C2060 0.960 . S
H2047 C2060 0.960 . S
C2048 H2040 0.929 . S
C2048 C2049 1.377 . S
C2048 C2050 1.384 . S
C2049 C2048 1.377 . S
C2049 C2055 1.390 . S
C2050 H2041 0.930 . S
C2050 C2048 1.384 . S
C2050 C2051 1.372 . S
C2051 C2050 1.372 . S
C2051 C2052 1.400 . S
C2051 C2056 1.490 . S
C2052 H2042 0.916 1_545 S
C2052 C2051 1.400 . S
C2052 C2055 1.386 . S
H2053 C2069 0.927 1_565 S
H2054 C2070 0.931 1_565 S
C2055 H2043 0.929 1_545 S
C2055 C2049 1.390 . S
C2055 C2052 1.386 . S
C2056 C2051 1.490 . S
C2056 C2058 1.379 1_545 S
C2056 C2059 1.403 . S
H2057 C2063 0.930 . S
C2058 H2044 0.945 . S
C2058 C2056 1.379 1_565 S
C2058 C2061 1.403 . S
C2059 C2056 1.403 . S
C2059 C2060 1.524 . S
C2059 C2063 1.400 . S
C2060 H2045 0.960 . S
C2060 H2046 0.960 . S
C2060 H2047 0.960 . S
C2060 C2059 1.524 . S
C2061 C2058 1.403 . S
C2061 C2062 1.365 1_565 S
C2061 C2065 1.526 . S
C2062 C2061 1.365 1_545 S
C2062 C2063 1.385 . S
C2062 C2064 1.478 . S
C2063 H2057 0.930 . S
C2063 C2059 1.400 . S
C2063 C2062 1.385 . S
C2064 C2062 1.478 . S
C2064 C2066 1.381 . S
C2064 C2070 1.383 . S
C2065 C2061 1.526 . S
C2065 H2071 0.959 . S
C2065 H2072 0.961 . S
C2065 H2073 0.960 . S
C2066 C2064 1.381 . S
C2066 C2067 1.394 . S
C2066 H2074 0.930 . S
C2067 C2066 1.394 . S
C2067 C2068 1.383 . S
C2067 H2075 0.929 . S
C2068 C2067 1.383 . S
C2068 C2069 1.377 . S
C2069 H2053 0.927 1_545 S
C2069 C2068 1.377 . S
C2069 C2070 1.379 . S
C2070 H2054 0.931 1_545 S
C2070 C2064 1.383 . S
C2070 C2069 1.379 . S
H2071 C2065 0.959 . S
H2072 C2065 0.961 . S
H2073 C2065 0.960 . S
H2074 C2066 0.930 . S
H2075 C2067 0.929 . S
H2076 C2084 0.929 . S
H2077 C2086 0.930 . S
H2078 C2088 0.930 . S
H2079 C2091 0.929 . S
H2080 C2094 0.930 . S
H2081 C2096 0.960 . S
H2082 C2096 0.960 . S
H2083 C2096 0.960 . S
C2084 H2076 0.929 . S
C2084 C2085 1.377 . S
C2084 C2086 1.384 . S
C2085 C2084 1.377 . S
C2085 C2091 1.390 . S
C2086 H2077 0.930 . S
C2086 C2084 1.384 . S
C2086 C2087 1.372 . S
C2087 C2086 1.372 . S
C2087 C2088 1.400 . S
C2087 C2092 1.490 . S
C2088 H2078 0.930 . S
C2088 C2087 1.400 . S
C2088 C2091 1.386 . S
H2089 C2105 0.930 . S
H2090 C2106 0.931 . S
C2091 H2079 0.929 . S
C2091 C2085 1.390 . S
C2091 C2088 1.386 . S
C2092 C2087 1.490 . S
C2092 C2094 1.395 . S
C2092 C2095 1.403 . S
H2093 C2099 0.930 . S
C2094 H2080 0.930 . S
C2094 C2092 1.395 . S
C2094 C2097 1.403 . S
C2095 C2092 1.403 . S
C2095 C2096 1.524 . S
C2095 C2099 1.400 . S
C2096 H2081 0.960 . S
C2096 H2082 0.960 . S
C2096 H2083 0.960 . S
C2096 C2095 1.524 . S
C2097 C2094 1.403 . S
C2097 C2098 1.392 . S
C2097 C2101 1.495 . S
C2098 C2097 1.392 . S
C2098 C2099 1.385 . S
C2098 C2100 1.478 . S
C2099 H2093 0.930 . S
C2099 C2095 1.400 . S
C2099 C2098 1.385 . S
C2100 C2098 1.478 . S
C2100 C2102 1.381 . S
C2100 C2106 1.383 . S
C2101 C2097 1.495 . S
C2101 H2107 0.959 . S
C2101 H2108 0.961 . S
C2101 H2109 0.960 . S
C2102 C2100 1.381 . S
C2102 C2103 1.394 . S
C2102 H2110 0.930 . S
C2103 C2102 1.394 . S
C2103 C2104 1.383 . S
C2103 H2111 0.929 . S
C2104 C2103 1.383 . S
C2104 C2105 1.377 . S
C2105 H2089 0.930 . S
C2105 C2104 1.377 . S
C2105 C2106 1.379 . S
C2106 H2090 0.931 . S
C2106 C2100 1.383 . S
C2106 C2105 1.379 . S
H2107 C2101 0.959 . S
H2108 C2101 0.961 . S
H2109 C2101 0.960 . S
H2110 C2102 0.930 . S
H2111 C2103 0.929 . S
H2112 C2120 0.929 . S
H2113 C2122 0.930 . S
H2114 C2124 0.930 . S
H2115 C2127 0.929 . S
H2116 C2130 0.930 . S
H2117 C2132 0.960 . S
H2118 C2132 0.960 . S
H2119 C2132 0.960 . S
C2120 H2112 0.929 . S
C2120 C2121 1.377 . S
C2120 C2122 1.384 . S
C2121 C2120 1.377 . S
C2121 C2127 1.390 . S
C2122 H2113 0.930 . S
C2122 C2120 1.384 . S
C2122 C2123 1.372 . S
C2123 C2122 1.372 . S
C2123 C2124 1.400 . S
C2123 C2128 1.490 . S
C2124 H2114 0.930 . S
C2124 C2123 1.400 . S
C2124 C2127 1.386 . S
H2125 C2141 0.930 1_565 S
H2126 C2142 0.931 . S
C2127 H2115 0.929 . S
C2127 C2121 1.390 . S
C2127 C2124 1.386 . S
C2128 C2123 1.490 . S
C2128 C2130 1.395 . S
C2128 C2131 1.403 . S
H2129 C2135 0.930 . S
C2130 H2116 0.930 . S
C2130 C2128 1.395 . S
C2130 C2133 1.403 . S
C2131 C2128 1.403 . S
C2131 C2132 1.524 . S
C2131 C2135 1.400 . S
C2132 H2117 0.960 . S
C2132 H2118 0.960 . S
C2132 H2119 0.960 . S
C2132 C2131 1.524 . S
C2133 C2130 1.403 . S
C2133 C2134 1.392 . S
C2133 C2137 1.495 . S
C2134 C2133 1.392 . S
C2134 C2135 1.385 . S
C2134 C2136 1.478 . S
C2135 H2129 0.930 . S
C2135 C2131 1.400 . S
C2135 C2134 1.385 . S
C2136 C2134 1.478 . S
C2136 C2138 1.381 . S
C2136 C2142 1.383 . S
C2137 C2133 1.495 . S
C2137 H2143 0.959 . S
C2137 H2144 0.932 1_545 S
C2137 H2145 0.960 1_655 S
C2138 C2136 1.381 . S
C2138 C2139 1.394 1_655 S
C2138 H2146 0.921 1_655 S
C2139 C2138 1.394 1_455 S
C2139 C2140 1.383 1_455 S
C2139 H2147 0.929 . S
C2140 C2139 1.383 1_655 S
C2140 C2141 1.377 . S
C2141 H2125 0.930 1_545 S
C2141 C2140 1.377 . S
C2141 C2142 1.379 . S
C2142 H2126 0.931 . S
C2142 C2136 1.383 . S
C2142 C2141 1.379 . S
H2143 C2137 0.959 . S
H2144 C2137 0.932 1_565 S
H2145 C2137 0.960 1_455 S
H2146 C2138 0.921 1_455 S
H2147 C2139 0.929 . S
H2148 C2156 0.929 . S
H2149 C2158 0.930 . S
H2150 C2160 0.930 . S
H2151 C2163 0.929 . S
H2152 C2166 0.930 . S
H2153 C2168 0.960 . S
H2154 C2168 0.960 . S
H2155 C2168 0.960 . S
C2156 H2148 0.929 . S
C2156 C2157 1.377 . S
C2156 C2158 1.384 . S
C2157 C2156 1.377 . S
C2157 C2163 1.390 . S
C2158 H2149 0.930 . S
C2158 C2156 1.384 . S
C2158 C2159 1.372 . S
C2159 C2158 1.372 . S
C2159 C2160 1.400 . S
C2159 C2164 1.490 . S
C2160 H2150 0.930 . S
C2160 C2159 1.400 . S
C2160 C2163 1.386 . S
H2161 C2177 0.930 . S
H2162 C2178 0.931 . S
C2163 H2151 0.929 . S
C2163 C2157 1.390 . S
C2163 C2160 1.386 . S
C2164 C2159 1.490 . S
C2164 C2166 1.395 . S
C2164 C2167 1.403 . S
H2165 C2171 0.930 . S
C2166 H2152 0.930 . S
C2166 C2164 1.395 . S
C2166 C2169 1.403 . S
C2167 C2164 1.403 . S
C2167 C2168 1.524 . S
C2167 C2171 1.400 . S
C2168 H2153 0.960 . S
C2168 H2154 0.960 . S
C2168 H2155 0.960 . S
C2168 C2167 1.524 . S
C2169 C2166 1.403 . S
C2169 C2170 1.392 . S
C2169 C2173 1.495 . S
C2170 C2169 1.392 . S
C2170 C2171 1.385 . S
C2170 C2172 1.478 . S
C2171 H2165 0.930 . S
C2171 C2167 1.400 . S
C2171 C2170 1.385 . S
C2172 C2170 1.478 . S
C2172 C2174 1.381 . S
C2172 C2178 1.383 . S
C2173 C2169 1.495 . S
C2173 H2179 0.959 . S
C2173 H2180 0.961 . S
C2173 H2181 0.960 . S
C2174 C2172 1.381 . S
C2174 C2175 1.394 . S
C2174 H2182 0.930 . S
C2175 C2174 1.394 . S
C2175 C2176 1.383 . S
C2175 H2183 0.929 . S
C2176 C2175 1.383 . S
C2176 C2177 1.377 . S
C2177 H2161 0.930 . S
C2177 C2176 1.377 . S
C2177 C2178 1.379 . S
C2178 H2162 0.931 . S
C2178 C2172 1.383 . S
C2178 C2177 1.379 . S
H2179 C2173 0.959 . S
H2180 C2173 0.961 . S
H2181 C2173 0.960 . S
H2182 C2174 0.930 . S
H2183 C2175 0.929 . S
H2184 C2192 0.929 . S
H2185 C2194 0.930 . S
H2186 C2196 0.917 1_565 S
H2187 C2199 0.929 . S
H2188 C2202 0.930 . S
H2189 C2204 0.960 . S
H2190 C2204 0.960 . S
H2191 C2204 0.960 . S
C2192 H2184 0.929 . S
C2192 C2193 1.377 . S
C2192 C2194 1.384 . S
C2193 C2192 1.377 . S
C2193 C2199 1.390 1_545 S
C2194 H2185 0.930 . S
C2194 C2192 1.384 . S
C2194 C2195 1.372 . S
C2195 C2194 1.372 . S
C2195 C2196 1.417 . S
C2195 C2200 1.490 . S
C2196 H2186 0.917 1_545 S
C2196 C2195 1.417 . S
C2196 C2199 1.381 1_545 S
H2197 C2213 0.930 . S
H2198 C2214 0.931 . S
C2199 H2187 0.929 . S
C2199 C2193 1.390 1_565 S
C2199 C2196 1.381 1_565 S
C2200 C2195 1.490 . S
C2200 C2202 1.395 . S
C2200 C2203 1.403 . S
H2201 C2207 0.972 . S
C2202 H2188 0.930 . S
C2202 C2200 1.395 . S
C2202 C2205 1.403 . S
C2203 C2200 1.403 . S
C2203 C2204 1.524 1_545 S
C2203 C2207 1.400 . S
C2204 H2189 0.960 . S
C2204 H2190 0.960 . S
C2204 H2191 0.960 . S
C2204 C2203 1.524 1_565 S
C2205 C2202 1.403 . S
C2205 C2206 1.392 . S
C2205 C2209 1.495 . S
C2206 C2205 1.392 . S
C2206 C2207 1.385 . S
C2206 C2208 1.478 . S
C2207 H2201 0.972 . S
C2207 C2203 1.400 . S
C2207 C2206 1.385 . S
C2208 C2206 1.478 . S
C2208 C2210 1.381 . S
C2208 C2214 1.383 . S
C2209 C2205 1.495 . S
C2209 H2215 0.959 . S
C2209 H2216 0.961 . S
C2209 H2217 0.960 . S
C2210 C2208 1.381 . S
C2210 C2211 1.394 . S
C2210 H2218 0.930 . S
C2211 C2210 1.394 . S
C2211 C2212 1.383 . S
C2211 H2219 0.929 . S
C2212 C2211 1.383 . S
C2212 C2213 1.377 . S
C2213 H2197 0.930 . S
C2213 C2212 1.377 . S
C2213 C2214 1.379 . S
C2214 H2198 0.931 . S
C2214 C2208 1.383 . S
C2214 C2213 1.379 . S
H2215 C2209 0.959 . S
H2216 C2209 0.961 . S
H2217 C2209 0.960 . S
H2218 C2210 0.930 . S
H2219 C2211 0.929 . S
H2220 C2228 0.929 . S
H2221 C2230 0.930 . S
H2222 C2232 0.930 . S
H2223 C2235 0.929 . S
H2224 C2238 0.930 . S
H2225 C2240 0.960 . S
H2226 C2240 0.960 . S
H2227 C2240 0.960 . S
C2228 H2220 0.929 . S
C2228 C2229 1.377 . S
C2228 C2230 1.384 . S
C2229 C2228 1.377 . S
C2229 C2235 1.390 . S
C2230 H2221 0.930 . S
C2230 C2228 1.384 . S
C2230 C2231 1.372 . S
C2231 C2230 1.372 . S
C2231 C2232 1.400 . S
C2231 C2236 1.490 . S
C2232 H2222 0.930 . S
C2232 C2231 1.400 . S
C2232 C2235 1.386 . S
H2233 C2249 0.930 . S
H2234 C2250 0.931 . S
C2235 H2223 0.929 . S
C2235 C2229 1.390 . S
C2235 C2232 1.386 . S
C2236 C2231 1.490 . S
C2236 C2238 1.395 . S
C2236 C2239 1.403 . S
H2237 C2243 0.930 . S
C2238 H2224 0.930 . S
C2238 C2236 1.395 . S
C2238 C2241 1.403 . S
C2239 C2236 1.403 . S
C2239 C2240 1.524 . S
C2239 C2243 1.400 . S
C2240 H2225 0.960 . S
C2240 H2226 0.960 . S
C2240 H2227 0.960 . S
C2240 C2239 1.524 . S
C2241 C2238 1.403 . S
C2241 C2242 1.392 . S
C2241 C2245 1.495 . S
C2242 C2241 1.392 . S
C2242 C2243 1.385 . S
C2242 C2244 1.478 . S
C2243 H2237 0.930 . S
C2243 C2239 1.400 . S
C2243 C2242 1.385 . S
C2244 C2242 1.478 . S
C2244 C2246 1.381 . S
C2244 C2250 1.383 . S
C2245 C2241 1.495 . S
C2245 H2251 0.959 . S
C2245 H2252 0.961 . S
C2245 H2253 0.960 . S
C2246 C2244 1.381 . S
C2246 C2247 1.394 . S
C2246 H2254 0.930 . S
C2247 C2246 1.394 . S
C2247 C2248 1.383 . S
C2247 H2255 0.929 . S
C2248 C2247 1.383 . S
C2248 C2249 1.377 . S
C2249 H2233 0.930 . S
C2249 C2248 1.377 . S
C2249 C2250 1.379 . S
C2250 H2234 0.931 . S
C2250 C2244 1.383 . S
C2250 C2249 1.379 . S
H2251 C2245 0.959 . S
H2252 C2245 0.961 . S
H2253 C2245 0.960 . S
H2254 C2246 0.930 . S
H2255 C2247 0.929 . S
H2256 C2264 0.873 1_556 S
H2257 C2266 0.930 1_556 S
H2258 C2268 0.930 . S
H2259 C2271 0.929 . S
H2260 C2274 0.930 . S
H2261 C2276 0.960 . S
H2262 C2276 0.960 . S
H2263 C2276 0.960 . S
C2264 H2256 0.873 1_554 S
C2264 C2265 1.429 . S
C2264 C2266 1.390 . S
C2265 C2264 1.429 . S
C2265 C2271 1.390 . S
C2266 H2257 0.930 1_554 S
C2266 C2264 1.390 . S
C2266 C2267 1.372 . S
C2267 C2266 1.372 . S
C2267 C2268 1.400 . S
C2267 C2272 1.490 . S
C2268 H2258 0.930 . S
C2268 C2267 1.400 . S
C2268 C2271 1.386 . S
H2269 C2285 0.930 . S
H2270 C2286 0.931 . S
C2271 H2259 0.929 . S
C2271 C2265 1.390 . S
C2271 C2268 1.386 . S
C2272 C2267 1.490 . S
C2272 C2274 1.395 . S
C2272 C2275 1.403 . S
H2273 C2279 0.930 . S
C2274 H2260 0.930 . S
C2274 C2272 1.395 . S
C2274 C2277 1.403 . S
C2275 C2272 1.403 . S
C2275 C2276 1.524 . S
C2275 C2279 1.400 . S
C2276 H2261 0.960 . S
C2276 H2262 0.960 . S
C2276 H2263 0.960 . S
C2276 C2275 1.524 . S
C2277 C2274 1.403 . S
C2277 C2278 1.392 . S
C2277 C2281 1.495 1_565 S
C2278 C2277 1.392 . S
C2278 C2279 1.385 . S
C2278 C2280 1.478 . S
C2279 H2273 0.930 . S
C2279 C2275 1.400 . S
C2279 C2278 1.385 . S
C2280 C2278 1.478 . S
C2280 C2282 1.381 . S
C2280 C2286 1.383 . S
C2281 C2277 1.495 1_545 S
C2281 H2287 0.959 1_554 S
C2281 H2288 0.961 . S
C2281 H2289 0.960 1_554 S
C2282 C2280 1.381 . S
C2282 C2283 1.419 . S
C2282 H2290 0.930 1_554 S
C2283 C2282 1.419 . S
C2283 C2284 1.368 1_565 S
C2283 H2291 0.898 1_564 S
C2284 C2283 1.368 1_545 S
C2284 C2285 1.377 . S
C2285 H2269 0.930 . S
C2285 C2284 1.377 . S
C2285 C2286 1.379 1_545 S
C2286 H2270 0.931 . S
C2286 C2280 1.383 . S
C2286 C2285 1.379 1_565 S
H2287 C2281 0.959 1_556 S
H2288 C2281 0.961 . S
H2289 C2281 0.960 1_556 S
H2290 C2282 0.930 1_556 S
H2291 C2283 0.898 1_546 S
H2292 C2300 0.929 . S
H2293 C2302 0.930 . S
H2294 C2304 0.930 . S
H2295 C2307 0.929 . S
H2296 C2310 0.930 . S
H2297 C2312 0.960 . S
H2298 C2312 0.960 . S
H2299 C2312 0.960 . S
C2300 H2292 0.929 . S
C2300 C2301 1.377 . S
C2300 C2302 1.384 . S
C2301 C2300 1.377 . S
C2301 C2307 1.390 1_554 S
C2302 H2293 0.930 . S
C2302 C2300 1.384 . S
C2302 C2303 1.372 . S
C2303 C2302 1.372 . S
C2303 C2304 1.400 1_554 S
C2303 C2308 1.490 . S
C2304 H2294 0.930 . S
C2304 C2303 1.400 1_556 S
C2304 C2307 1.386 . S
H2305 C2321 0.920 1_556 S
H2306 C2322 0.917 1_556 S
C2307 H2295 0.929 . S
C2307 C2301 1.390 1_556 S
C2307 C2304 1.386 . S
C2308 C2303 1.490 . S
C2308 C2310 1.395 . S
C2308 C2311 1.403 1_554 S
H2309 C2315 0.930 . S
C2310 H2296 0.930 . S
C2310 C2308 1.395 . S
C2310 C2313 1.403 . S
C2311 C2308 1.403 1_556 S
C2311 C2312 1.524 . S
C2311 C2315 1.400 . S
C2312 H2297 0.960 . S
C2312 H2298 0.960 . S
C2312 H2299 0.960 . S
C2312 C2311 1.524 . S
C2313 C2310 1.403 . S
C2313 C2314 1.392 . S
C2313 C2317 1.495 . S
C2314 C2313 1.392 . S
C2314 C2315 1.385 1_554 S
C2314 C2316 1.478 . S
C2315 H2309 0.930 . S
C2315 C2311 1.400 . S
C2315 C2314 1.385 1_556 S
C2316 C2314 1.478 . S
C2316 C2318 1.381 . S
C2316 C2322 1.396 . S
C2317 C2313 1.495 . S
C2317 H2323 0.959 . S
C2317 H2324 0.961 . S
C2317 H2325 0.960 . S
C2318 C2316 1.381 . S
C2318 C2319 1.394 . S
C2318 H2326 0.930 . S
C2319 C2318 1.394 . S
C2319 C2320 1.383 . S
C2319 H2327 0.929 . S
C2320 C2319 1.383 . S
C2320 C2321 1.386 . S
C2321 H2305 0.920 1_554 S
C2321 C2320 1.386 . S
C2321 C2322 1.380 . S
C2322 H2306 0.917 1_554 S
C2322 C2316 1.396 . S
C2322 C2321 1.380 . S
H2323 C2317 0.959 . S
H2324 C2317 0.961 . S
H2325 C2317 0.960 . S
H2326 C2318 0.930 . S
H2327 C2319 0.929 . S
H2328 C2336 0.929 . S
H2329 C2338 0.930 . S
H2330 C2340 0.930 . S
H2331 C2343 0.929 . S
H2332 C2346 0.930 . S
H2333 C2348 0.960 . S
H2334 C2348 0.960 . S
H2335 C2348 0.960 . S
C2336 H2328 0.929 . S
C2336 C2337 1.377 . S
C2336 C2338 1.384 . S
C2337 C2336 1.377 . S
C2337 C2343 1.390 . S
C2338 H2329 0.930 . S
C2338 C2336 1.384 . S
C2338 C2339 1.372 . S
C2339 C2338 1.372 . S
C2339 C2340 1.400 . S
C2339 C2344 1.490 . S
C2340 H2330 0.930 . S
C2340 C2339 1.400 . S
C2340 C2343 1.386 . S
H2341 C2357 0.930 . S
H2342 C2358 0.931 . S
C2343 H2331 0.929 . S
C2343 C2337 1.390 . S
C2343 C2340 1.386 . S
C2344 C2339 1.490 . S
C2344 C2346 1.395 . S
C2344 C2347 1.403 . S
H2345 C2351 0.930 . S
C2346 H2332 0.930 . S
C2346 C2344 1.395 . S
C2346 C2349 1.403 . S
C2347 C2344 1.403 . S
C2347 C2348 1.524 . S
C2347 C2351 1.400 . S
C2348 H2333 0.960 . S
C2348 H2334 0.960 . S
C2348 H2335 0.960 . S
C2348 C2347 1.524 . S
C2349 C2346 1.403 . S
C2349 C2350 1.392 . S
C2349 C2353 1.495 . S
C2350 C2349 1.392 . S
C2350 C2351 1.385 . S
C2350 C2352 1.478 . S
C2351 H2345 0.930 . S
C2351 C2347 1.400 . S
C2351 C2350 1.385 . S
C2352 C2350 1.478 . S
C2352 C2354 1.381 . S
C2352 C2358 1.383 . S
C2353 C2349 1.495 . S
C2353 H2359 0.959 . S
C2353 H2360 0.961 . S
C2353 H2361 0.960 . S
C2354 C2352 1.381 . S
C2354 C2355 1.394 . S
C2354 H2362 0.930 . S
C2355 C2354 1.394 . S
C2355 C2356 1.383 . S
C2355 H2363 0.929 . S
C2356 C2355 1.383 . S
C2356 C2357 1.377 . S
C2357 H2341 0.930 . S
C2357 C2356 1.377 . S
C2357 C2358 1.379 . S
C2358 H2342 0.931 . S
C2358 C2352 1.383 . S
C2358 C2357 1.379 . S
H2359 C2353 0.959 . S
H2360 C2353 0.961 . S
H2361 C2353 0.960 . S
H2362 C2354 0.930 . S
H2363 C2355 0.929 . S
H2364 C2372 0.929 . S
H2365 C2374 0.930 . S
H2366 C2376 0.930 . S
H2367 C2379 0.929 . S
H2368 C2382 0.930 . S
H2369 C2384 0.960 . S
H2370 C2384 0.960 . S
H2371 C2384 0.960 . S
C2372 H2364 0.929 . S
C2372 C2373 1.377 . S
C2372 C2374 1.384 . S
C2373 C2372 1.377 . S
C2373 C2379 1.390 . S
C2374 H2365 0.930 . S
C2374 C2372 1.384 . S
C2374 C2375 1.372 . S
C2375 C2374 1.372 . S
C2375 C2376 1.400 . S
C2375 C2380 1.490 . S
C2376 H2366 0.930 . S
C2376 C2375 1.400 . S
C2376 C2379 1.386 . S
H2377 C2393 0.930 . S
H2378 C2394 0.931 . S
C2379 H2367 0.929 . S
C2379 C2373 1.390 . S
C2379 C2376 1.386 . S
C2380 C2375 1.490 . S
C2380 C2382 1.395 . S
C2380 C2383 1.403 . S
H2381 C2387 0.930 . S
C2382 H2368 0.930 . S
C2382 C2380 1.395 . S
C2382 C2385 1.403 . S
C2383 C2380 1.403 . S
C2383 C2384 1.524 . S
C2383 C2387 1.400 . S
C2384 H2369 0.960 . S
C2384 H2370 0.960 . S
C2384 H2371 0.960 . S
C2384 C2383 1.524 . S
C2385 C2382 1.403 . S
C2385 C2386 1.392 . S
C2385 C2389 1.495 . S
C2386 C2385 1.392 . S
C2386 C2387 1.385 . S
C2386 C2388 1.478 . S
C2387 H2381 0.930 . S
C2387 C2383 1.400 . S
C2387 C2386 1.385 . S
C2388 C2386 1.478 . S
C2388 C2390 1.381 . S
C2388 C2394 1.383 . S
C2389 C2385 1.495 . S
C2389 H2395 0.959 . S
C2389 H2396 0.961 . S
C2389 H2397 0.960 . S
C2390 C2388 1.381 . S
C2390 C2391 1.394 . S
C2390 H2398 0.930 . S
C2391 C2390 1.394 . S
C2391 C2392 1.383 . S
C2391 H2399 0.929 . S
C2392 C2391 1.383 . S
C2392 C2393 1.377 . S
C2393 H2377 0.930 . S
C2393 C2392 1.377 . S
C2393 C2394 1.379 . S
C2394 H2378 0.931 . S
C2394 C2388 1.383 . S
C2394 C2393 1.379 . S
H2395 C2389 0.959 . S
H2396 C2389 0.961 . S
H2397 C2389 0.960 . S
H2398 C2390 0.930 . S
H2399 C2391 0.929 . S
H2400 C2408 0.929 1_545 S
H2401 C2410 0.930 . S
H2402 C2412 0.930 . S
H2403 C2415 0.929 . S
H2404 C2418 0.930 . S
H2405 C2420 0.960 . S
H2406 C2420 0.960 . S
H2407 C2420 0.960 . S
C2408 H2400 0.929 1_565 S
C2408 C2409 1.377 . S
C2408 C2410 1.384 . S
C2409 C2408 1.377 . S
C2409 C2415 1.390 . S
C2410 H2401 0.930 . S
C2410 C2408 1.384 . S
C2410 C2411 1.372 . S
C2411 C2410 1.372 . S
C2411 C2412 1.400 . S
C2411 C2416 1.490 . S
C2412 H2402 0.930 . S
C2412 C2411 1.400 . S
C2412 C2415 1.386 . S
H2413 C2429 0.930 . S
H2414 C2430 0.931 . S
C2415 H2403 0.929 . S
C2415 C2409 1.390 . S
C2415 C2412 1.386 . S
C2416 C2411 1.490 . S
C2416 C2418 1.395 . S
C2416 C2419 1.403 . S
H2417 C2423 0.930 . S
C2418 H2404 0.930 . S
C2418 C2416 1.395 . S
C2418 C2421 1.403 . S
C2419 C2416 1.403 . S
C2419 C2420 1.524 . S
C2419 C2423 1.400 . S
C2420 H2405 0.960 . S
C2420 H2406 0.960 . S
C2420 H2407 0.960 . S
C2420 C2419 1.524 . S
C2421 C2418 1.403 . S
C2421 C2422 1.392 . S
C2421 C2425 1.495 . S
C2422 C2421 1.392 . S
C2422 C2423 1.385 . S
C2422 C2424 1.478 . S
C2423 H2417 0.930 . S
C2423 C2419 1.400 . S
C2423 C2422 1.385 . S
C2424 C2422 1.478 . S
C2424 C2426 1.381 . S
C2424 C2430 1.383 . S
C2425 C2421 1.495 . S
C2425 H2431 0.959 . S
C2425 H2432 0.961 . S
C2425 H2433 0.960 . S
C2426 C2424 1.381 . S
C2426 C2427 1.394 . S
C2426 H2434 0.930 . S
C2427 C2426 1.394 . S
C2427 C2428 1.383 . S
C2427 H2435 0.929 . S
C2428 C2427 1.383 . S
C2428 C2429 1.377 . S
C2429 H2413 0.930 . S
C2429 C2428 1.377 . S
C2429 C2430 1.379 . S
C2430 H2414 0.931 . S
C2430 C2424 1.383 . S
C2430 C2429 1.379 . S
H2431 C2425 0.959 . S
H2432 C2425 0.961 . S
H2433 C2425 0.960 . S
H2434 C2426 0.930 . S
H2435 C2427 0.929 . S
H2436 C2444 0.929 . S
H2437 C2446 0.930 . S
H2438 C2448 0.930 . S
H2439 C2451 0.929 . S
H2440 C2454 0.930 . S
H2441 C2456 0.960 . S
H2442 C2456 0.960 . S
H2443 C2456 0.960 . S
C2444 H2436 0.929 . S
C2444 C2445 1.377 . S
C2444 C2446 1.384 . S
C2445 C2444 1.377 . S
C2445 C2451 1.390 . S
C2446 H2437 0.930 . S
C2446 C2444 1.384 . S
C2446 C2447 1.372 . S
C2447 C2446 1.372 . S
C2447 C2448 1.400 . S
C2447 C2452 1.490 . S
C2448 H2438 0.930 . S
C2448 C2447 1.400 . S
C2448 C2451 1.386 . S
H2449 C2465 0.930 . S
H2450 C2466 0.931 . S
C2451 H2439 0.929 . S
C2451 C2445 1.390 . S
C2451 C2448 1.386 . S
C2452 C2447 1.490 . S
C2452 C2454 1.395 . S
C2452 C2455 1.403 . S
H2453 C2459 0.930 . S
C2454 H2440 0.930 . S
C2454 C2452 1.395 . S
C2454 C2457 1.403 . S
C2455 C2452 1.403 . S
C2455 C2456 1.524 . S
C2455 C2459 1.400 . S
C2456 H2441 0.960 . S
C2456 H2442 0.960 . S
C2456 H2443 0.960 . S
C2456 C2455 1.524 . S
C2457 C2454 1.403 . S
C2457 C2458 1.392 . S
C2457 C2461 1.495 . S
C2458 C2457 1.392 . S
C2458 C2459 1.385 . S
C2458 C2460 1.478 . S
C2459 H2453 0.930 . S
C2459 C2455 1.400 . S
C2459 C2458 1.385 . S
C2460 C2458 1.478 . S
C2460 C2462 1.381 . S
C2460 C2466 1.383 . S
C2461 C2457 1.495 . S
C2461 H2467 0.959 . S
C2461 H2468 0.961 . S
C2461 H2469 0.960 . S
C2462 C2460 1.381 . S
C2462 C2463 1.394 . S
C2462 H2470 0.930 . S
C2463 C2462 1.394 . S
C2463 C2464 1.383 . S
C2463 H2471 0.929 . S
C2464 C2463 1.383 . S
C2464 C2465 1.377 . S
C2465 H2449 0.930 . S
C2465 C2464 1.377 . S
C2465 C2466 1.379 . S
C2466 H2450 0.931 . S
C2466 C2460 1.383 . S
C2466 C2465 1.379 . S
H2467 C2461 0.959 . S
H2468 C2461 0.961 . S
H2469 C2461 0.960 . S
H2470 C2462 0.930 . S
H2471 C2463 0.929 . S
H2472 C2480 0.929 . S
H2473 C2482 0.930 . S
H2474 C2484 0.930 . S
H2475 C2487 0.929 . S
H2476 C2490 0.930 . S
H2477 C2492 0.960 . S
H2478 C2492 0.960 . S
H2479 C2492 0.960 . S
C2480 H2472 0.929 . S
C2480 C2481 1.377 . S
C2480 C2482 1.384 . S
C2481 C2480 1.377 . S
C2481 C2487 1.390 . S
C2482 H2473 0.930 . S
C2482 C2480 1.384 . S
C2482 C2483 1.372 . S
C2483 C2482 1.372 . S
C2483 C2484 1.400 . S
C2483 C2488 1.490 . S
C2484 H2474 0.930 . S
C2484 C2483 1.400 . S
C2484 C2487 1.386 . S
H2485 C2501 0.930 . S
H2486 C2502 0.931 . S
C2487 H2475 0.929 . S
C2487 C2481 1.390 . S
C2487 C2484 1.386 . S
C2488 C2483 1.490 . S
C2488 C2490 1.395 . S
C2488 C2491 1.403 . S
H2489 C2495 0.930 . S
C2490 H2476 0.930 . S
C2490 C2488 1.395 . S
C2490 C2493 1.403 . S
C2491 C2488 1.403 . S
C2491 C2492 1.524 . S
C2491 C2495 1.400 . S
C2492 H2477 0.960 . S
C2492 H2478 0.960 . S
C2492 H2479 0.960 . S
C2492 C2491 1.524 . S
C2493 C2490 1.403 . S
C2493 C2494 1.392 . S
C2493 C2497 1.495 . S
C2494 C2493 1.392 . S
C2494 C2495 1.385 . S
C2494 C2496 1.478 . S
C2495 H2489 0.930 . S
C2495 C2491 1.400 . S
C2495 C2494 1.385 . S
C2496 C2494 1.478 . S
C2496 C2498 1.381 . S
C2496 C2502 1.383 . S
C2497 C2493 1.495 . S
C2497 H2503 0.959 . S
C2497 H2504 0.961 . S
C2497 H2505 0.960 . S
C2498 C2496 1.381 . S
C2498 C2499 1.394 . S
C2498 H2506 0.930 . S
C2499 C2498 1.394 . S
C2499 C2500 1.383 . S
C2499 H2507 0.929 . S
C2500 C2499 1.383 . S
C2500 C2501 1.377 . S
C2501 H2485 0.930 . S
C2501 C2500 1.377 . S
C2501 C2502 1.379 . S
C2502 H2486 0.931 . S
C2502 C2496 1.383 . S
C2502 C2501 1.379 . S
H2503 C2497 0.959 . S
H2504 C2497 0.961 . S
H2505 C2497 0.960 . S
H2506 C2498 0.930 . S
H2507 C2499 0.929 . S
H2508 C2516 0.929 . S
H2509 C2518 0.930 . S
H2510 C2520 0.930 . S
H2511 C2523 0.929 . S
H2512 C2526 0.930 . S
H2513 C2528 0.960 . S
H2514 C2528 0.960 . S
H2515 C2528 0.960 . S
C2516 H2508 0.929 . S
C2516 C2517 1.377 . S
C2516 C2518 1.384 . S
C2517 C2516 1.377 . S
C2517 C2523 1.390 . S
C2518 H2509 0.930 . S
C2518 C2516 1.384 . S
C2518 C2519 1.372 . S
C2519 C2518 1.372 . S
C2519 C2520 1.400 . S
C2519 C2524 1.490 . S
C2520 H2510 0.930 . S
C2520 C2519 1.400 . S
C2520 C2523 1.386 . S
H2521 C2537 0.930 . S
H2522 C2538 0.931 . S
C2523 H2511 0.929 . S
C2523 C2517 1.390 . S
C2523 C2520 1.386 . S
C2524 C2519 1.490 . S
C2524 C2526 1.395 . S
C2524 C2527 1.403 . S
H2525 C2531 0.930 . S
C2526 H2512 0.930 . S
C2526 C2524 1.395 . S
C2526 C2529 1.403 . S
C2527 C2524 1.403 . S
C2527 C2528 1.524 . S
C2527 C2531 1.400 . S
C2528 H2513 0.960 . S
C2528 H2514 0.960 . S
C2528 H2515 0.960 . S
C2528 C2527 1.524 . S
C2529 C2526 1.403 . S
C2529 C2530 1.392 . S
C2529 C2533 1.495 . S
C2530 C2529 1.392 . S
C2530 C2531 1.385 . S
C2530 C2532 1.478 . S
C2531 H2525 0.930 . S
C2531 C2527 1.400 . S
C2531 C2530 1.385 . S
C2532 C2530 1.478 . S
C2532 C2534 1.381 . S
C2532 C2538 1.383 . S
C2533 C2529 1.495 . S
C2533 H2539 0.959 . S
C2533 H2540 0.961 . S
C2533 H2541 0.960 . S
C2534 C2532 1.381 . S
C2534 C2535 1.394 . S
C2534 H2542 0.930 . S
C2535 C2534 1.394 . S
C2535 C2536 1.383 . S
C2535 H2543 0.929 . S
C2536 C2535 1.383 . S
C2536 C2537 1.377 . S
C2537 H2521 0.930 . S
C2537 C2536 1.377 . S
C2537 C2538 1.379 . S
C2538 H2522 0.931 . S
C2538 C2532 1.383 . S
C2538 C2537 1.379 . S
H2539 C2533 0.959 . S
H2540 C2533 0.961 . S
H2541 C2533 0.960 . S
H2542 C2534 0.930 . S
H2543 C2535 0.929 . S
H2544 C2552 0.929 . S
H2545 C2554 0.930 . S
H2546 C2556 0.930 . S
H2547 C2559 0.929 . S
H2548 C2562 0.930 . S
H2549 C2564 0.960 . S
H2550 C2564 0.960 . S
H2551 C2564 0.960 . S
C2552 H2544 0.929 . S
C2552 C2553 1.377 . S
C2552 C2554 1.384 . S
C2553 C2552 1.377 . S
C2553 C2559 1.390 . S
C2554 H2545 0.930 . S
C2554 C2552 1.384 . S
C2554 C2555 1.372 . S
C2555 C2554 1.372 . S
C2555 C2556 1.400 . S
C2555 C2560 1.490 . S
C2556 H2546 0.930 . S
C2556 C2555 1.400 . S
C2556 C2559 1.386 . S
H2557 C2573 0.930 . S
H2558 C2574 0.931 . S
C2559 H2547 0.929 . S
C2559 C2553 1.390 . S
C2559 C2556 1.386 . S
C2560 C2555 1.490 . S
C2560 C2562 1.395 . S
C2560 C2563 1.403 . S
H2561 C2567 0.930 . S
C2562 H2548 0.930 . S
C2562 C2560 1.395 . S
C2562 C2565 1.403 . S
C2563 C2560 1.403 . S
C2563 C2564 1.524 . S
C2563 C2567 1.400 . S
C2564 H2549 0.960 . S
C2564 H2550 0.960 . S
C2564 H2551 0.960 . S
C2564 C2563 1.524 . S
C2565 C2562 1.403 . S
C2565 C2566 1.392 . S
C2565 C2569 1.495 . S
C2566 C2565 1.392 . S
C2566 C2567 1.385 . S
C2566 C2568 1.478 . S
C2567 H2561 0.930 . S
C2567 C2563 1.400 . S
C2567 C2566 1.385 . S
C2568 C2566 1.478 . S
C2568 C2570 1.381 . S
C2568 C2574 1.383 . S
C2569 C2565 1.495 . S
C2569 H2575 0.959 . S
C2569 H2576 0.961 . S
C2569 H2577 0.960 . S
C2570 C2568 1.381 . S
C2570 C2571 1.394 . S
C2570 H2578 0.930 . S
C2571 C2570 1.394 . S
C2571 C2572 1.383 . S
C2571 H2579 0.929 . S
C2572 C2571 1.383 . S
C2572 C2573 1.377 . S
C2573 H2557 0.930 . S
C2573 C2572 1.377 . S
C2573 C2574 1.379 . S
C2574 H2558 0.931 . S
C2574 C2568 1.383 . S
C2574 C2573 1.379 . S
H2575 C2569 0.959 . S
H2576 C2569 0.961 . S
H2577 C2569 0.960 . S
H2578 C2570 0.930 . S
H2579 C2571 0.929 . S
H2580 C2588 0.929 . S
H2581 C2590 0.930 . S
H2582 C2592 0.930 . S
H2583 C2595 0.929 . S
H2584 C2598 0.930 . S
H2585 C2600 0.960 . S
H2586 C2600 0.960 . S
H2587 C2600 0.960 . S
C2588 H2580 0.929 . S
C2588 C2589 1.377 . S
C2588 C2590 1.384 . S
C2589 C2588 1.377 . S
C2589 C2595 1.390 . S
C2590 H2581 0.930 . S
C2590 C2588 1.384 . S
C2590 C2591 1.372 . S
C2591 C2590 1.372 . S
C2591 C2592 1.400 . S
C2591 C2596 1.490 . S
C2592 H2582 0.930 . S
C2592 C2591 1.400 . S
C2592 C2595 1.386 . S
H2593 C2609 0.930 . S
H2594 C2610 0.931 . S
C2595 H2583 0.929 . S
C2595 C2589 1.390 . S
C2595 C2592 1.386 . S
C2596 C2591 1.490 . S
C2596 C2598 1.395 . S
C2596 C2599 1.403 . S
H2597 C2603 0.930 . S
C2598 H2584 0.930 . S
C2598 C2596 1.395 . S
C2598 C2601 1.403 . S
C2599 C2596 1.403 . S
C2599 C2600 1.524 . S
C2599 C2603 1.400 . S
C2600 H2585 0.960 . S
C2600 H2586 0.960 . S
C2600 H2587 0.960 . S
C2600 C2599 1.524 . S
C2601 C2598 1.403 . S
C2601 C2602 1.392 . S
C2601 C2605 1.495 . S
C2602 C2601 1.392 . S
C2602 C2603 1.385 . S
C2602 C2604 1.478 . S
C2603 H2597 0.930 . S
C2603 C2599 1.400 . S
C2603 C2602 1.385 . S
C2604 C2602 1.478 . S
C2604 C2606 1.381 . S
C2604 C2610 1.383 . S
C2605 C2601 1.495 . S
C2605 H2611 0.959 . S
C2605 H2612 0.961 . S
C2605 H2613 0.960 . S
C2606 C2604 1.381 . S
C2606 C2607 1.394 . S
C2606 H2614 0.930 . S
C2607 C2606 1.394 . S
C2607 C2608 1.383 . S
C2607 H2615 0.929 . S
C2608 C2607 1.383 . S
C2608 C2609 1.377 . S
C2609 H2593 0.930 . S
C2609 C2608 1.377 . S
C2609 C2610 1.379 . S
C2610 H2594 0.931 . S
C2610 C2604 1.383 . S
C2610 C2609 1.379 . S
H2611 C2605 0.959 . S
H2612 C2605 0.961 . S
H2613 C2605 0.960 . S
H2614 C2606 0.930 . S
H2615 C2607 0.929 . S
H2616 C2624 0.929 . S
H2617 C2626 0.930 . S
H2618 C2628 0.930 . S
H2619 C2631 0.929 . S
H2620 C2634 0.930 . S
H2621 C2636 0.960 . S
H2622 C2636 0.960 . S
H2623 C2636 0.960 . S
C2624 H2616 0.929 . S
C2624 C2625 1.377 . S
C2624 C2626 1.384 . S
C2625 C2624 1.377 . S
C2625 C2631 1.390 . S
C2626 H2617 0.930 . S
C2626 C2624 1.384 . S
C2626 C2627 1.372 . S
C2627 C2626 1.372 . S
C2627 C2628 1.400 . S
C2627 C2632 1.490 . S
C2628 H2618 0.930 . S
C2628 C2627 1.400 . S
C2628 C2631 1.386 . S
H2629 C2645 0.930 . S
H2630 C2646 0.931 . S
C2631 H2619 0.929 . S
C2631 C2625 1.390 . S
C2631 C2628 1.386 . S
C2632 C2627 1.490 . S
C2632 C2634 1.395 . S
C2632 C2635 1.403 . S
H2633 C2639 0.930 . S
C2634 H2620 0.930 . S
C2634 C2632 1.395 . S
C2634 C2637 1.403 . S
C2635 C2632 1.403 . S
C2635 C2636 1.524 1_455 S
C2635 C2639 1.400 . S
C2636 H2621 0.960 . S
C2636 H2622 0.960 . S
C2636 H2623 0.960 . S
C2636 C2635 1.524 1_655 S
C2637 C2634 1.403 . S
C2637 C2638 1.392 . S
C2637 C2641 1.495 . S
C2638 C2637 1.392 . S
C2638 C2639 1.385 . S
C2638 C2640 1.478 . S
C2639 H2633 0.930 . S
C2639 C2635 1.400 . S
C2639 C2638 1.385 . S
C2640 C2638 1.478 . S
C2640 C2642 1.381 . S
C2640 C2646 1.383 . S
C2641 C2637 1.495 . S
C2641 H2647 0.959 . S
C2641 H2648 0.961 . S
C2641 H2649 0.960 . S
C2642 C2640 1.381 . S
C2642 C2643 1.394 . S
C2642 H2650 0.930 . S
C2643 C2642 1.394 . S
C2643 C2644 1.383 . S
C2643 H2651 0.929 . S
C2644 C2643 1.383 . S
C2644 C2645 1.377 . S
C2645 H2629 0.930 . S
C2645 C2644 1.377 . S
C2645 C2646 1.379 . S
C2646 H2630 0.931 . S
C2646 C2640 1.383 . S
C2646 C2645 1.379 . S
H2647 C2641 0.959 . S
H2648 C2641 0.961 . S
H2649 C2641 0.960 . S
H2650 C2642 0.930 . S
H2651 C2643 0.929 . S
H2652 C2660 0.929 . S
H2653 C2662 0.930 . S
H2654 C2664 0.930 . S
H2655 C2667 0.929 . S
H2656 C2670 0.930 . S
H2657 C2672 0.960 . S
H2658 C2672 0.960 . S
H2659 C2672 0.960 . S
C2660 H2652 0.929 . S
C2660 C2661 1.377 . S
C2660 C2662 1.384 . S
C2661 C2660 1.377 . S
C2661 C2667 1.390 . S
C2662 H2653 0.930 . S
C2662 C2660 1.384 . S
C2662 C2663 1.372 . S
C2663 C2662 1.372 . S
C2663 C2664 1.400 . S
C2663 C2668 1.490 . S
C2664 H2654 0.930 . S
C2664 C2663 1.400 . S
C2664 C2667 1.386 . S
H2665 C2681 0.930 . S
H2666 C2682 0.931 . S
C2667 H2655 0.929 . S
C2667 C2661 1.390 . S
C2667 C2664 1.386 . S
C2668 C2663 1.490 . S
C2668 C2670 1.395 . S
C2668 C2671 1.403 . S
H2669 C2675 0.930 . S
C2670 H2656 0.930 . S
C2670 C2668 1.395 . S
C2670 C2673 1.403 . S
C2671 C2668 1.403 . S
C2671 C2672 1.524 . S
C2671 C2675 1.400 . S
C2672 H2657 0.960 . S
C2672 H2658 0.960 . S
C2672 H2659 0.960 . S
C2672 C2671 1.524 . S
C2673 C2670 1.403 . S
C2673 C2674 1.392 . S
C2673 C2677 1.495 . S
C2674 C2673 1.392 . S
C2674 C2675 1.385 . S
C2674 C2676 1.478 . S
C2675 H2669 0.930 . S
C2675 C2671 1.400 . S
C2675 C2674 1.385 . S
C2676 C2674 1.478 . S
C2676 C2678 1.381 . S
C2676 C2682 1.383 . S
C2677 C2673 1.495 . S
C2677 H2683 0.959 . S
C2677 H2684 0.961 . S
C2677 H2685 0.960 . S
C2678 C2676 1.381 . S
C2678 C2679 1.394 . S
C2678 H2686 0.930 . S
C2679 C2678 1.394 . S
C2679 C2680 1.383 . S
C2679 H2687 0.929 . S
C2680 C2679 1.383 . S
C2680 C2681 1.377 . S
C2681 H2665 0.930 . S
C2681 C2680 1.377 . S
C2681 C2682 1.379 . S
C2682 H2666 0.931 . S
C2682 C2676 1.383 . S
C2682 C2681 1.379 . S
H2683 C2677 0.959 . S
H2684 C2677 0.961 . S
H2685 C2677 0.960 . S
H2686 C2678 0.930 . S
H2687 C2679 0.929 . S
H2688 C2696 0.929 . S
H2689 C2698 0.930 . S
H2690 C2700 0.930 . S
H2691 C2703 0.929 . S
H2692 C2706 0.930 . S
H2693 C2708 0.960 . S
H2694 C2708 0.960 . S
H2695 C2708 0.960 . S
C2696 H2688 0.929 . S
C2696 C2697 1.377 . S
C2696 C2698 1.384 . S
C2697 C2696 1.377 . S
C2697 C2703 1.390 . S
C2698 H2689 0.930 . S
C2698 C2696 1.384 . S
C2698 C2699 1.372 . S
C2699 C2698 1.372 . S
C2699 C2700 1.400 . S
C2699 C2704 1.490 . S
C2700 H2690 0.930 . S
C2700 C2699 1.400 . S
C2700 C2703 1.386 . S
H2701 C2717 0.930 . S
H2702 C2718 0.947 . S
C2703 H2691 0.929 . S
C2703 C2697 1.390 . S
C2703 C2700 1.386 . S
C2704 C2699 1.490 . S
C2704 C2706 1.395 . S
C2704 C2707 1.403 . S
H2705 C2711 0.930 . S
C2706 H2692 0.930 . S
C2706 C2704 1.395 . S
C2706 C2709 1.403 . S
C2707 C2704 1.403 . S
C2707 C2708 1.524 . S
C2707 C2711 1.400 . S
C2708 H2693 0.960 . S
C2708 H2694 0.960 . S
C2708 H2695 0.960 . S
C2708 C2707 1.524 . S
C2709 C2706 1.403 . S
C2709 C2710 1.392 . S
C2709 C2713 1.495 . S
C2710 C2709 1.392 . S
C2710 C2711 1.385 . S
C2710 C2712 1.478 . S
C2711 H2705 0.930 . S
C2711 C2707 1.400 . S
C2711 C2710 1.385 . S
C2712 C2710 1.478 . S
C2712 C2714 1.381 . S
C2712 C2718 1.383 . S
C2713 C2709 1.495 . S
C2713 H2719 0.959 . S
C2713 H2720 0.961 . S
C2713 H2721 0.960 . S
C2714 C2712 1.381 . S
C2714 C2715 1.394 . S
C2714 H2722 0.930 . S
C2715 C2714 1.394 . S
C2715 C2716 1.383 . S
C2715 H2723 0.929 . S
C2716 C2715 1.383 . S
C2716 C2717 1.377 1_556 S
C2717 H2701 0.930 . S
C2717 C2716 1.377 1_554 S
C2717 C2718 1.379 1_554 S
C2718 H2702 0.947 . S
C2718 C2712 1.383 . S
C2718 C2717 1.379 1_556 S
H2719 C2713 0.959 . S
H2720 C2713 0.961 . S
H2721 C2713 0.960 . S
H2722 C2714 0.930 . S
H2723 C2715 0.929 . S
H2724 C2732 0.929 . S
H2725 C2734 0.930 . S
H2726 C2736 0.930 . S
H2727 C2739 0.929 . S
H2728 C2742 0.930 . S
H2729 C2744 0.960 . S
H2730 C2744 0.960 . S
H2731 C2744 0.960 . S
C2732 H2724 0.929 . S
C2732 C2733 1.377 . S
C2732 C2734 1.384 . S
C2733 C2732 1.377 . S
C2733 C2739 1.390 . S
C2734 H2725 0.930 . S
C2734 C2732 1.384 . S
C2734 C2735 1.372 . S
C2735 C2734 1.372 . S
C2735 C2736 1.400 . S
C2735 C2740 1.490 . S
C2736 H2726 0.930 . S
C2736 C2735 1.400 . S
C2736 C2739 1.386 . S
H2737 C2753 0.930 . S
H2738 C2754 0.931 . S
C2739 H2727 0.929 . S
C2739 C2733 1.390 . S
C2739 C2736 1.386 . S
C2740 C2735 1.490 . S
C2740 C2742 1.395 . S
C2740 C2743 1.403 . S
H2741 C2747 0.930 . S
C2742 H2728 0.930 . S
C2742 C2740 1.395 . S
C2742 C2745 1.403 . S
C2743 C2740 1.403 . S
C2743 C2744 1.524 . S
C2743 C2747 1.400 . S
C2744 H2729 0.960 . S
C2744 H2730 0.960 . S
C2744 H2731 0.960 . S
C2744 C2743 1.524 . S
C2745 C2742 1.403 . S
C2745 C2746 1.392 . S
C2745 C2749 1.495 . S
C2746 C2745 1.392 . S
C2746 C2747 1.385 . S
C2746 C2748 1.478 . S
C2747 H2741 0.930 . S
C2747 C2743 1.400 . S
C2747 C2746 1.385 . S
C2748 C2746 1.478 . S
C2748 C2750 1.381 . S
C2748 C2754 1.383 . S
C2749 C2745 1.495 . S
C2749 H2755 0.959 . S
C2749 H2756 0.961 . S
C2749 H2757 0.960 . S
C2750 C2748 1.381 . S
C2750 C2751 1.394 . S
C2750 H2758 0.930 . S
C2751 C2750 1.394 . S
C2751 C2752 1.383 . S
C2751 H2759 0.929 . S
C2752 C2751 1.383 . S
C2752 C2753 1.377 . S
C2753 H2737 0.930 . S
C2753 C2752 1.377 . S
C2753 C2754 1.379 . S
C2754 H2738 0.931 . S
C2754 C2748 1.383 . S
C2754 C2753 1.379 . S
H2755 C2749 0.959 . S
H2756 C2749 0.961 . S
H2757 C2749 0.960 . S
H2758 C2750 0.930 . S
H2759 C2751 0.929 . S
H2760 C2768 0.929 . S
H2761 C2770 0.930 . S
H2762 C2772 0.930 . S
H2763 C2775 0.929 . S
H2764 C2778 0.930 . S
H2765 C2780 0.960 . S
H2766 C2780 0.960 . S
H2767 C2780 0.960 . S
C2768 H2760 0.929 . S
C2768 C2769 1.377 . S
C2768 C2770 1.384 . S
C2769 C2768 1.377 . S
C2769 C2775 1.390 . S
C2770 H2761 0.930 . S
C2770 C2768 1.384 . S
C2770 C2771 1.372 . S
C2771 C2770 1.372 . S
C2771 C2772 1.400 . S
C2771 C2776 1.490 . S
C2772 H2762 0.930 . S
C2772 C2771 1.400 . S
C2772 C2775 1.386 . S
H2773 C2789 0.930 . S
H2774 C2790 0.931 . S
C2775 H2763 0.929 . S
C2775 C2769 1.390 . S
C2775 C2772 1.386 . S
C2776 C2771 1.490 . S
C2776 C2778 1.395 . S
C2776 C2779 1.403 . S
H2777 C2783 0.930 . S
C2778 H2764 0.930 . S
C2778 C2776 1.395 . S
C2778 C2781 1.403 . S
C2779 C2776 1.403 . S
C2779 C2780 1.524 . S
C2779 C2783 1.400 . S
C2780 H2765 0.960 . S
C2780 H2766 0.960 . S
C2780 H2767 0.960 . S
C2780 C2779 1.524 . S
C2781 C2778 1.403 . S
C2781 C2782 1.392 . S
C2781 C2785 1.495 . S
C2782 C2781 1.392 . S
C2782 C2783 1.385 . S
C2782 C2784 1.478 . S
C2783 H2777 0.930 . S
C2783 C2779 1.400 . S
C2783 C2782 1.385 . S
C2784 C2782 1.478 . S
C2784 C2786 1.381 . S
C2784 C2790 1.383 . S
C2785 C2781 1.495 . S
C2785 H2791 0.959 . S
C2785 H2792 0.961 . S
C2785 H2793 0.960 . S
C2786 C2784 1.381 . S
C2786 C2787 1.394 . S
C2786 H2794 0.930 . S
C2787 C2786 1.394 . S
C2787 C2788 1.383 . S
C2787 H2795 0.929 . S
C2788 C2787 1.383 . S
C2788 C2789 1.377 . S
C2789 H2773 0.930 . S
C2789 C2788 1.377 . S
C2789 C2790 1.379 . S
C2790 H2774 0.931 . S
C2790 C2784 1.383 . S
C2790 C2789 1.379 . S
H2791 C2785 0.959 . S
H2792 C2785 0.961 . S
H2793 C2785 0.960 . S
H2794 C2786 0.930 . S
H2795 C2787 0.929 . S
H2796 C2804 0.929 . S
H2797 C2806 0.930 . S
H2798 C2808 0.930 . S
H2799 C2811 0.929 . S
H2800 C2814 0.930 . S
H2801 C2816 0.960 . S
H2802 C2816 0.960 . S
H2803 C2816 0.960 . S
C2804 H2796 0.929 . S
C2804 C2805 1.377 . S
C2804 C2806 1.384 . S
C2805 C2804 1.377 . S
C2805 C2811 1.390 . S
C2806 H2797 0.930 . S
C2806 C2804 1.384 . S
C2806 C2807 1.372 . S
C2807 C2806 1.372 . S
C2807 C2808 1.400 . S
C2807 C2812 1.490 . S
C2808 H2798 0.930 . S
C2808 C2807 1.400 . S
C2808 C2811 1.386 . S
H2809 C2825 0.930 . S
H2810 C2826 0.931 . S
C2811 H2799 0.929 . S
C2811 C2805 1.390 . S
C2811 C2808 1.386 . S
C2812 C2807 1.490 . S
C2812 C2814 1.395 . S
C2812 C2815 1.403 . S
H2813 C2819 0.930 . S
C2814 H2800 0.930 . S
C2814 C2812 1.395 . S
C2814 C2817 1.403 . S
C2815 C2812 1.403 . S
C2815 C2816 1.524 . S
C2815 C2819 1.400 . S
C2816 H2801 0.960 . S
C2816 H2802 0.960 . S
C2816 H2803 0.960 . S
C2816 C2815 1.524 . S
C2817 C2814 1.403 . S
C2817 C2818 1.392 . S
C2817 C2821 1.495 . S
C2818 C2817 1.392 . S
C2818 C2819 1.385 . S
C2818 C2820 1.478 . S
C2819 H2813 0.930 . S
C2819 C2815 1.400 . S
C2819 C2818 1.385 . S
C2820 C2818 1.478 . S
C2820 C2822 1.381 . S
C2820 C2826 1.383 . S
C2821 C2817 1.495 . S
C2821 H2827 0.959 . S
C2821 H2828 0.961 . S
C2821 H2829 0.960 . S
C2822 C2820 1.381 . S
C2822 C2823 1.394 . S
C2822 H2830 0.930 . S
C2823 C2822 1.394 . S
C2823 C2824 1.383 . S
C2823 H2831 0.929 . S
C2824 C2823 1.383 . S
C2824 C2825 1.377 . S
C2825 H2809 0.930 . S
C2825 C2824 1.377 . S
C2825 C2826 1.379 . S
C2826 H2810 0.931 . S
C2826 C2820 1.383 . S
C2826 C2825 1.379 . S
H2827 C2821 0.959 . S
H2828 C2821 0.961 . S
H2829 C2821 0.960 . S
H2830 C2822 0.930 . S
H2831 C2823 0.929 . S
H2832 C2840 0.929 . S
H2833 C2842 0.930 . S
H2834 C2844 0.930 . S
H2835 C2847 0.929 . S
H2836 C2850 0.930 . S
H2837 C2852 0.960 . S
H2838 C2852 0.960 . S
H2839 C2852 0.960 . S
C2840 H2832 0.929 . S
C2840 C2841 1.377 . S
C2840 C2842 1.384 . S
C2841 C2840 1.377 . S
C2841 C2847 1.390 . S
C2842 H2833 0.930 . S
C2842 C2840 1.384 . S
C2842 C2843 1.372 . S
C2843 C2842 1.372 . S
C2843 C2844 1.400 . S
C2843 C2848 1.490 . S
C2844 H2834 0.930 . S
C2844 C2843 1.400 . S
C2844 C2847 1.386 . S
H2845 C2861 0.930 . S
H2846 C2862 0.931 . S
C2847 H2835 0.929 . S
C2847 C2841 1.390 . S
C2847 C2844 1.386 . S
C2848 C2843 1.490 . S
C2848 C2850 1.395 . S
C2848 C2851 1.403 . S
H2849 C2855 0.930 . S
C2850 H2836 0.930 . S
C2850 C2848 1.395 . S
C2850 C2853 1.403 . S
C2851 C2848 1.403 . S
C2851 C2852 1.524 . S
C2851 C2855 1.400 . S
C2852 H2837 0.960 . S
C2852 H2838 0.960 . S
C2852 H2839 0.960 . S
C2852 C2851 1.524 . S
C2853 C2850 1.403 . S
C2853 C2854 1.392 . S
C2853 C2857 1.495 . S
C2854 C2853 1.392 . S
C2854 C2855 1.385 . S
C2854 C2856 1.478 . S
C2855 H2849 0.930 . S
C2855 C2851 1.400 . S
C2855 C2854 1.385 . S
C2856 C2854 1.478 . S
C2856 C2858 1.381 . S
C2856 C2862 1.383 . S
C2857 C2853 1.495 . S
C2857 H2863 0.959 . S
C2857 H2864 0.961 . S
C2857 H2865 0.960 . S
C2858 C2856 1.381 . S
C2858 C2859 1.394 . S
C2858 H2866 0.930 . S
C2859 C2858 1.394 . S
C2859 C2860 1.383 . S
C2859 H2867 0.929 . S
C2860 C2859 1.383 . S
C2860 C2861 1.377 . S
C2861 H2845 0.930 . S
C2861 C2860 1.377 . S
C2861 C2862 1.379 . S
C2862 H2846 0.931 . S
C2862 C2856 1.383 . S
C2862 C2861 1.379 . S
H2863 C2857 0.959 . S
H2864 C2857 0.961 . S
H2865 C2857 0.960 . S
H2866 C2858 0.930 . S
H2867 C2859 0.929 . S
H2868 C2876 0.929 1_554 S
H2869 C2878 0.930 . S
H2870 C2880 0.930 . S
H2871 C2883 0.929 . S
H2872 C2886 0.930 . S
H2873 C2888 0.960 . S
H2874 C2888 0.960 . S
H2875 C2888 0.960 . S
C2876 H2868 0.929 1_556 S
C2876 C2877 1.377 . S
C2876 C2878 1.384 . S
C2877 C2876 1.377 . S
C2877 C2883 1.390 . S
C2878 H2869 0.930 . S
C2878 C2876 1.384 . S
C2878 C2879 1.372 . S
C2879 C2878 1.372 . S
C2879 C2880 1.400 . S
C2879 C2884 1.490 . S
C2880 H2870 0.930 . S
C2880 C2879 1.400 . S
C2880 C2883 1.386 . S
H2881 C2897 0.930 . S
H2882 C2898 0.931 . S
C2883 H2871 0.929 . S
C2883 C2877 1.390 . S
C2883 C2880 1.386 . S
C2884 C2879 1.490 . S
C2884 C2886 1.395 . S
C2884 C2887 1.403 . S
H2885 C2891 0.930 . S
C2886 H2872 0.930 . S
C2886 C2884 1.395 . S
C2886 C2889 1.403 . S
C2887 C2884 1.403 . S
C2887 C2888 1.524 . S
C2887 C2891 1.400 . S
C2888 H2873 0.960 . S
C2888 H2874 0.960 . S
C2888 H2875 0.960 . S
C2888 C2887 1.524 . S
C2889 C2886 1.403 . S
C2889 C2890 1.392 . S
C2889 C2893 1.495 . S
C2890 C2889 1.392 . S
C2890 C2891 1.385 . S
C2890 C2892 1.478 . S
C2891 H2885 0.930 . S
C2891 C2887 1.400 . S
C2891 C2890 1.385 . S
C2892 C2890 1.478 . S
C2892 C2894 1.381 . S
C2892 C2898 1.383 . S
C2893 C2889 1.495 . S
C2893 H2899 0.959 . S
C2893 H2900 0.961 . S
C2893 H2901 0.960 . S
C2894 C2892 1.381 . S
C2894 C2895 1.394 . S
C2894 H2902 0.930 . S
C2895 C2894 1.394 . S
C2895 C2896 1.383 . S
C2895 H2903 0.929 . S
C2896 C2895 1.383 . S
C2896 C2897 1.377 . S
C2897 H2881 0.930 . S
C2897 C2896 1.377 . S
C2897 C2898 1.379 . S
C2898 H2882 0.931 . S
C2898 C2892 1.383 . S
C2898 C2897 1.379 . S
H2899 C2893 0.959 . S
H2900 C2893 0.961 . S
H2901 C2893 0.960 . S
H2902 C2894 0.930 . S
H2903 C2895 0.929 . S
H2904 C2912 0.929 . S
H2905 C2914 0.930 . S
H2906 C2916 0.930 . S
H2907 C2919 0.929 . S
H2908 C2922 0.930 . S
H2909 C2924 0.960 . S
H2910 C2924 0.960 . S
H2911 C2924 0.960 . S
C2912 H2904 0.929 . S
C2912 C2913 1.377 . S
C2912 C2914 1.384 . S
C2913 C2912 1.377 . S
C2913 C2919 1.390 . S
C2914 H2905 0.930 . S
C2914 C2912 1.384 . S
C2914 C2915 1.372 . S
C2915 C2914 1.372 . S
C2915 C2916 1.400 . S
C2915 C2920 1.490 . S
C2916 H2906 0.930 . S
C2916 C2915 1.400 . S
C2916 C2919 1.386 . S
H2917 C2933 0.930 . S
H2918 C2934 0.931 . S
C2919 H2907 0.929 . S
C2919 C2913 1.390 . S
C2919 C2916 1.386 . S
C2920 C2915 1.490 . S
C2920 C2922 1.395 . S
C2920 C2923 1.403 . S
H2921 C2927 0.930 . S
C2922 H2908 0.930 . S
C2922 C2920 1.395 . S
C2922 C2925 1.403 . S
C2923 C2920 1.403 . S
C2923 C2924 1.524 . S
C2923 C2927 1.400 . S
C2924 H2909 0.960 . S
C2924 H2910 0.960 . S
C2924 H2911 0.960 . S
C2924 C2923 1.524 . S
C2925 C2922 1.403 . S
C2925 C2926 1.392 . S
C2925 C2929 1.495 . S
C2926 C2925 1.392 . S
C2926 C2927 1.385 . S
C2926 C2928 1.478 . S
C2927 H2921 0.930 . S
C2927 C2923 1.400 . S
C2927 C2926 1.385 . S
C2928 C2926 1.478 . S
C2928 C2930 1.381 . S
C2928 C2934 1.383 . S
C2929 C2925 1.495 . S
C2929 H2935 0.959 . S
C2929 H2936 0.961 . S
C2929 H2937 0.960 . S
C2930 C2928 1.381 . S
C2930 C2931 1.394 . S
C2930 H2938 0.930 . S
C2931 C2930 1.394 . S
C2931 C2932 1.351 1_655 S
C2931 H2939 0.929 . S
C2932 C2931 1.351 1_455 S
C2932 C2933 1.387 . S
C2933 H2917 0.930 . S
C2933 C2932 1.387 . S
C2933 C2934 1.379 1_455 S
C2934 H2918 0.931 . S
C2934 C2928 1.383 . S
C2934 C2933 1.379 1_655 S
H2935 C2929 0.959 . S
H2936 C2929 0.961 . S
H2937 C2929 0.960 . S
H2938 C2930 0.930 . S
H2939 C2931 0.929 . S
H2940 C2948 0.929 . S
H2941 C2950 0.930 . S
H2942 C2952 0.930 . S
H2943 C2955 0.929 . S
H2944 C2958 0.930 . S
H2945 C2960 0.960 . S
H2946 C2960 0.960 . S
H2947 C2960 0.960 . S
C2948 H2940 0.929 . S
C2948 C2949 1.377 . S
C2948 C2950 1.384 . S
C2949 C2948 1.377 . S
C2949 C2955 1.390 . S
C2950 H2941 0.930 . S
C2950 C2948 1.384 . S
C2950 C2951 1.372 . S
C2951 C2950 1.372 . S
C2951 C2952 1.400 . S
C2951 C2956 1.490 . S
C2952 H2942 0.930 . S
C2952 C2951 1.400 . S
C2952 C2955 1.386 . S
H2953 C2969 0.930 . S
H2954 C2970 0.931 . S
C2955 H2943 0.929 . S
C2955 C2949 1.390 . S
C2955 C2952 1.386 . S
C2956 C2951 1.490 . S
C2956 C2958 1.395 . S
C2956 C2959 1.403 . S
H2957 C2963 0.930 . S
C2958 H2944 0.930 . S
C2958 C2956 1.395 . S
C2958 C2961 1.403 . S
C2959 C2956 1.403 . S
C2959 C2960 1.524 . S
C2959 C2963 1.400 . S
C2960 H2945 0.960 . S
C2960 H2946 0.960 . S
C2960 H2947 0.960 . S
C2960 C2959 1.524 . S
C2961 C2958 1.403 . S
C2961 C2962 1.392 . S
C2961 C2965 1.495 . S
C2962 C2961 1.392 . S
C2962 C2963 1.385 . S
C2962 C2964 1.478 . S
C2963 H2957 0.930 . S
C2963 C2959 1.400 . S
C2963 C2962 1.385 . S
C2964 C2962 1.478 . S
C2964 C2966 1.381 . S
C2964 C2970 1.383 . S
C2965 C2961 1.495 . S
C2965 H2971 0.959 . S
C2965 H2972 0.961 . S
C2965 H2973 0.960 . S
C2966 C2964 1.381 . S
C2966 C2967 1.394 . S
C2966 H2974 0.930 . S
C2967 C2966 1.394 . S
C2967 C2968 1.383 . S
C2967 H2975 0.929 . S
C2968 C2967 1.383 . S
C2968 C2969 1.377 . S
C2969 H2953 0.930 . S
C2969 C2968 1.377 . S
C2969 C2970 1.379 . S
C2970 H2954 0.931 . S
C2970 C2964 1.383 . S
C2970 C2969 1.379 . S
H2971 C2965 0.959 . S
H2972 C2965 0.961 . S
H2973 C2965 0.960 . S
H2974 C2966 0.930 . S
H2975 C2967 0.929 . S
H2976 C2984 0.929 . S
H2977 C2986 0.930 . S
H2978 C2988 0.930 . S
H2979 C2991 0.929 . S
H2980 C2994 0.930 . S
H2981 C2996 0.960 . S
H2982 C2996 0.960 . S
H2983 C2996 0.960 . S
C2984 H2976 0.929 . S
C2984 C2985 1.377 . S
C2984 C2986 1.384 . S
C2985 C2984 1.377 . S
C2985 C2991 1.390 . S
C2986 H2977 0.930 . S
C2986 C2984 1.384 . S
C2986 C2987 1.372 . S
C2987 C2986 1.372 . S
C2987 C2988 1.400 . S
C2987 C2992 1.490 . S
C2988 H2978 0.930 . S
C2988 C2987 1.400 . S
C2988 C2991 1.386 . S
H2989 C3005 0.930 . S
H2990 C3006 0.931 . S
C2991 H2979 0.929 . S
C2991 C2985 1.390 . S
C2991 C2988 1.386 . S
C2992 C2987 1.490 . S
C2992 C2994 1.395 . S
C2992 C2995 1.403 . S
H2993 C2999 0.930 . S
C2994 H2980 0.930 . S
C2994 C2992 1.395 . S
C2994 C2997 1.403 . S
C2995 C2992 1.403 . S
C2995 C2996 1.524 . S
C2995 C2999 1.400 . S
C2996 H2981 0.960 . S
C2996 H2982 0.960 . S
C2996 H2983 0.960 . S
C2996 C2995 1.524 . S
C2997 C2994 1.403 . S
C2997 C2998 1.392 . S
C2997 C3001 1.495 . S
C2998 C2997 1.392 . S
C2998 C2999 1.385 . S
C2998 C3000 1.478 . S
C2999 H2993 0.930 . S
C2999 C2995 1.400 . S
C2999 C2998 1.385 . S
C3000 C2998 1.478 . S
C3000 C3002 1.381 . S
C3000 C3006 1.383 . S
C3001 C2997 1.495 . S
C3001 H3007 0.959 . S
C3001 H3008 0.961 . S
C3001 H3009 0.960 . S
C3002 C3000 1.381 . S
C3002 C3003 1.394 . S
C3002 H3010 0.930 . S
C3003 C3002 1.394 . S
C3003 C3004 1.383 . S
C3003 H3011 0.929 . S
C3004 C3003 1.383 . S
C3004 C3005 1.377 . S
C3005 H2989 0.930 . S
C3005 C3004 1.377 . S
C3005 C3006 1.379 . S
C3006 H2990 0.931 . S
C3006 C3000 1.383 . S
C3006 C3005 1.379 . S
H3007 C3001 0.959 . S
H3008 C3001 0.961 . S
H3009 C3001 0.960 . S
H3010 C3002 0.930 . S
H3011 C3003 0.929 . S
H3012 C3020 0.929 . S
H3013 C3022 0.930 . S
H3014 C3024 0.930 . S
H3015 C3027 0.929 . S
H3016 C3030 0.930 . S
H3017 C3032 0.960 . S
H3018 C3032 0.960 . S
H3019 C3032 0.960 . S
C3020 H3012 0.929 . S
C3020 C3021 1.377 . S
C3020 C3022 1.384 . S
C3021 C3020 1.377 . S
C3021 C3027 1.390 . S
C3022 H3013 0.930 . S
C3022 C3020 1.384 . S
C3022 C3023 1.372 . S
C3023 C3022 1.372 . S
C3023 C3024 1.400 . S
C3023 C3028 1.490 . S
C3024 H3014 0.930 . S
C3024 C3023 1.400 . S
C3024 C3027 1.386 . S
H3025 C3041 0.930 . S
H3026 C3042 0.931 . S
C3027 H3015 0.929 . S
C3027 C3021 1.390 . S
C3027 C3024 1.386 . S
C3028 C3023 1.490 . S
C3028 C3030 1.395 . S
C3028 C3031 1.403 . S
H3029 C3035 0.930 . S
C3030 H3016 0.930 . S
C3030 C3028 1.395 . S
C3030 C3033 1.403 . S
C3031 C3028 1.403 . S
C3031 C3032 1.524 . S
C3031 C3035 1.400 . S
C3032 H3017 0.960 . S
C3032 H3018 0.960 . S
C3032 H3019 0.960 . S
C3032 C3031 1.524 . S
C3033 C3030 1.403 . S
C3033 C3034 1.392 . S
C3033 C3037 1.495 . S
C3034 C3033 1.392 . S
C3034 C3035 1.385 . S
C3034 C3036 1.478 . S
C3035 H3029 0.930 . S
C3035 C3031 1.400 . S
C3035 C3034 1.385 . S
C3036 C3034 1.478 . S
C3036 C3038 1.381 . S
C3036 C3042 1.383 . S
C3037 C3033 1.495 . S
C3037 H3043 0.959 . S
C3037 H3044 0.961 . S
C3037 H3045 0.960 . S
C3038 C3036 1.381 . S
C3038 C3039 1.394 . S
C3038 H3046 0.930 . S
C3039 C3038 1.394 . S
C3039 C3040 1.383 . S
C3039 H3047 0.929 . S
C3040 C3039 1.383 . S
C3040 C3041 1.377 . S
C3041 H3025 0.930 . S
C3041 C3040 1.377 . S
C3041 C3042 1.379 . S
C3042 H3026 0.931 . S
C3042 C3036 1.383 . S
C3042 C3041 1.379 . S
H3043 C3037 0.959 . S
H3044 C3037 0.961 . S
H3045 C3037 0.960 . S
H3046 C3038 0.930 . S
H3047 C3039 0.929 . S
H3048 C3056 0.929 . S
H3049 C3058 0.930 . S
H3050 C3060 0.930 . S
H3051 C3063 0.929 . S
H3052 C3066 0.930 . S
H3053 C3068 0.960 . S
H3054 C3068 0.960 . S
H3055 C3068 0.960 . S
C3056 H3048 0.929 . S
C3056 C3057 1.377 . S
C3056 C3058 1.384 . S
C3057 C3056 1.377 . S
C3057 C3063 1.390 . S
C3058 H3049 0.930 . S
C3058 C3056 1.384 . S
C3058 C3059 1.372 . S
C3059 C3058 1.372 . S
C3059 C3060 1.400 . S
C3059 C3064 1.490 . S
C3060 H3050 0.930 . S
C3060 C3059 1.400 . S
C3060 C3063 1.386 . S
H3061 C3077 0.930 1_455 S
H3062 C3078 0.931 . S
C3063 H3051 0.929 . S
C3063 C3057 1.390 . S
C3063 C3060 1.386 . S
C3064 C3059 1.490 . S
C3064 C3066 1.395 . S
C3064 C3067 1.403 . S
H3065 C3071 0.930 . S
C3066 H3052 0.930 . S
C3066 C3064 1.395 . S
C3066 C3069 1.403 . S
C3067 C3064 1.403 . S
C3067 C3068 1.524 . S
C3067 C3071 1.400 . S
C3068 H3053 0.960 . S
C3068 H3054 0.960 . S
C3068 H3055 0.960 . S
C3068 C3067 1.524 . S
C3069 C3066 1.403 . S
C3069 C3070 1.392 . S
C3069 C3073 1.495 . S
C3070 C3069 1.392 . S
C3070 C3071 1.385 . S
C3070 C3072 1.478 . S
C3071 H3065 0.930 . S
C3071 C3067 1.400 . S
C3071 C3070 1.385 . S
C3072 C3070 1.478 . S
C3072 C3074 1.381 . S
C3072 C3078 1.383 . S
C3073 C3069 1.495 . S
C3073 H3079 0.959 . S
C3073 H3080 0.961 . S
C3073 H3081 0.960 . S
C3074 C3072 1.381 . S
C3074 C3075 1.394 . S
C3074 H3082 0.930 . S
C3075 C3074 1.394 . S
C3075 C3076 1.383 . S
C3075 H3083 0.929 . S
C3076 C3075 1.383 . S
C3076 C3077 1.377 . S
C3077 H3061 0.930 1_655 S
C3077 C3076 1.377 . S
C3077 C3078 1.379 . S
C3078 H3062 0.931 . S
C3078 C3072 1.383 . S
C3078 C3077 1.379 . S
H3079 C3073 0.959 . S
H3080 C3073 0.961 . S
H3081 C3073 0.960 . S
H3082 C3074 0.930 . S
H3083 C3075 0.929 . S
H3084 C3092 0.929 . S
H3085 C3094 0.930 . S
H3086 C3096 0.930 . S
H3087 C3099 0.929 . S
H3088 C3102 0.930 . S
H3089 C3104 0.960 . S
H3090 C3104 0.960 . S
H3091 C3104 0.960 . S
C3092 H3084 0.929 . S
C3092 C3093 1.377 . S
C3092 C3094 1.384 . S
C3093 C3092 1.377 . S
C3093 C3099 1.390 . S
C3094 H3085 0.930 . S
C3094 C3092 1.384 . S
C3094 C3095 1.372 . S
C3095 C3094 1.372 . S
C3095 C3096 1.400 . S
C3095 C3100 1.490 . S
C3096 H3086 0.930 . S
C3096 C3095 1.400 . S
C3096 C3099 1.386 . S
H3097 C3113 0.930 . S
H3098 C3114 0.931 . S
C3099 H3087 0.929 . S
C3099 C3093 1.390 . S
C3099 C3096 1.386 . S
C3100 C3095 1.490 . S
C3100 C3102 1.395 . S
C3100 C3103 1.403 . S
H3101 C3107 0.930 . S
C3102 H3088 0.930 . S
C3102 C3100 1.395 . S
C3102 C3105 1.403 . S
C3103 C3100 1.403 . S
C3103 C3104 1.524 . S
C3103 C3107 1.400 . S
C3104 H3089 0.960 . S
C3104 H3090 0.960 . S
C3104 H3091 0.960 . S
C3104 C3103 1.524 . S
C3105 C3102 1.403 . S
C3105 C3106 1.392 . S
C3105 C3109 1.495 . S
C3106 C3105 1.392 . S
C3106 C3107 1.385 . S
C3106 C3108 1.478 . S
C3107 H3101 0.930 . S
C3107 C3103 1.400 . S
C3107 C3106 1.385 . S
C3108 C3106 1.478 . S
C3108 C3110 1.381 . S
C3108 C3114 1.383 . S
C3109 C3105 1.495 . S
C3109 H3115 0.959 . S
C3109 H3116 0.961 . S
C3109 H3117 0.960 . S
C3110 C3108 1.381 . S
C3110 C3111 1.394 . S
C3110 H3118 0.930 . S
C3111 C3110 1.394 . S
C3111 C3112 1.383 . S
C3111 H3119 0.929 . S
C3112 C3111 1.383 . S
C3112 C3113 1.377 . S
C3113 H3097 0.930 . S
C3113 C3112 1.377 . S
C3113 C3114 1.379 . S
C3114 H3098 0.931 . S
C3114 C3108 1.383 . S
C3114 C3113 1.379 . S
H3115 C3109 0.959 . S
H3116 C3109 0.961 . S
H3117 C3109 0.960 . S
H3118 C3110 0.930 . S
H3119 C3111 0.929 . S
H3120 C3128 0.929 . S
H3121 C3130 0.930 . S
H3122 C3132 0.930 . S
H3123 C3135 0.929 . S
H3124 C3138 0.930 . S
H3125 C3140 0.960 . S
H3126 C3140 0.960 . S
H3127 C3140 0.960 . S
C3128 H3120 0.929 . S
C3128 C3129 1.377 . S
C3128 C3130 1.384 . S
C3129 C3128 1.377 . S
C3129 C3135 1.390 . S
C3130 H3121 0.930 . S
C3130 C3128 1.384 . S
C3130 C3131 1.372 . S
C3131 C3130 1.372 . S
C3131 C3132 1.400 . S
C3131 C3136 1.490 . S
C3132 H3122 0.930 . S
C3132 C3131 1.400 . S
C3132 C3135 1.386 . S
H3133 C3149 0.930 . S
H3134 C3150 0.931 . S
C3135 H3123 0.929 . S
C3135 C3129 1.390 . S
C3135 C3132 1.386 . S
C3136 C3131 1.490 . S
C3136 C3138 1.395 . S
C3136 C3139 1.403 . S
H3137 C3143 0.930 . S
C3138 H3124 0.930 . S
C3138 C3136 1.395 . S
C3138 C3141 1.403 . S
C3139 C3136 1.403 . S
C3139 C3140 1.524 . S
C3139 C3143 1.400 . S
C3140 H3125 0.960 . S
C3140 H3126 0.960 . S
C3140 H3127 0.960 . S
C3140 C3139 1.524 . S
C3141 C3138 1.403 . S
C3141 C3142 1.392 . S
C3141 C3145 1.495 . S
C3142 C3141 1.392 . S
C3142 C3143 1.385 . S
C3142 C3144 1.478 . S
C3143 H3137 0.930 . S
C3143 C3139 1.400 . S
C3143 C3142 1.385 . S
C3144 C3142 1.478 . S
C3144 C3146 1.381 . S
C3144 C3150 1.383 . S
C3145 C3141 1.495 . S
C3145 H3151 0.959 . S
C3145 H3152 0.961 . S
C3145 H3153 0.960 . S
C3146 C3144 1.381 . S
C3146 C3147 1.394 . S
C3146 H3154 0.930 . S
C3147 C3146 1.394 . S
C3147 C3148 1.383 . S
C3147 H3155 0.929 . S
C3148 C3147 1.383 . S
C3148 C3149 1.377 . S
C3149 H3133 0.930 . S
C3149 C3148 1.377 . S
C3149 C3150 1.379 . S
C3150 H3134 0.931 . S
C3150 C3144 1.383 . S
C3150 C3149 1.379 . S
H3151 C3145 0.959 . S
H3152 C3145 0.961 . S
H3153 C3145 0.960 . S
H3154 C3146 0.930 . S
H3155 C3147 0.929 . S
H3156 C3164 0.929 . S
H3157 C3166 0.930 . S
H3158 C3168 0.930 . S
H3159 C3171 0.929 . S
H3160 C3174 0.930 . S
H3161 C3176 0.960 . S
H3162 C3176 0.960 . S
H3163 C3176 0.960 . S
C3164 H3156 0.929 . S
C3164 C3165 1.377 . S
C3164 C3166 1.384 . S
C3165 C3164 1.377 . S
C3165 C3171 1.390 . S
C3166 H3157 0.930 . S
C3166 C3164 1.384 . S
C3166 C3167 1.372 . S
C3167 C3166 1.372 . S
C3167 C3168 1.400 . S
C3167 C3172 1.490 . S
C3168 H3158 0.930 . S
C3168 C3167 1.400 . S
C3168 C3171 1.386 . S
H3169 C3185 0.930 . S
H3170 C3186 0.931 . S
C3171 H3159 0.929 . S
C3171 C3165 1.390 . S
C3171 C3168 1.386 . S
C3172 C3167 1.490 . S
C3172 C3174 1.395 . S
C3172 C3175 1.403 . S
H3173 C3179 0.930 . S
C3174 H3160 0.930 . S
C3174 C3172 1.395 . S
C3174 C3177 1.403 . S
C3175 C3172 1.403 . S
C3175 C3176 1.524 . S
C3175 C3179 1.400 . S
C3176 H3161 0.960 . S
C3176 H3162 0.960 . S
C3176 H3163 0.960 . S
C3176 C3175 1.524 . S
C3177 C3174 1.403 . S
C3177 C3178 1.392 . S
C3177 C3181 1.495 1_565 S
C3178 C3177 1.392 . S
C3178 C3179 1.385 . S
C3178 C3180 1.478 . S
C3179 H3173 0.930 . S
C3179 C3175 1.400 . S
C3179 C3178 1.385 . S
C3180 C3178 1.478 . S
C3180 C3182 1.381 . S
C3180 C3186 1.383 . S
C3181 C3177 1.495 1_545 S
C3181 H3187 0.959 . S
C3181 H3188 0.961 . S
C3181 H3189 0.960 . S
C3182 C3180 1.381 . S
C3182 C3183 1.394 1_565 S
C3182 H3190 0.937 . S
C3183 C3182 1.394 1_545 S
C3183 C3184 1.383 . S
C3183 H3191 0.929 . S
C3184 C3183 1.383 . S
C3184 C3185 1.377 1_545 S
C3185 H3169 0.930 . S
C3185 C3184 1.377 1_565 S
C3185 C3186 1.379 . S
C3186 H3170 0.931 . S
C3186 C3180 1.383 . S
C3186 C3185 1.379 . S
H3187 C3181 0.959 . S
H3188 C3181 0.961 . S
H3189 C3181 0.960 . S
H3190 C3182 0.937 . S
H3191 C3183 0.929 . S
H3192 C3200 0.929 . S
H3193 C3202 0.930 . S
H3194 C3204 0.930 . S
H3195 C3207 0.929 . S
H3196 C3210 0.930 . S
H3197 C3212 0.960 . S
H3198 C3212 0.960 . S
H3199 C3212 0.960 . S
C3200 H3192 0.929 . S
C3200 C3201 1.377 . S
C3200 C3202 1.384 . S
C3201 C3200 1.377 . S
C3201 C3207 1.390 . S
C3202 H3193 0.930 . S
C3202 C3200 1.384 . S
C3202 C3203 1.372 . S
C3203 C3202 1.372 . S
C3203 C3204 1.400 . S
C3203 C3208 1.490 . S
C3204 H3194 0.930 . S
C3204 C3203 1.400 . S
C3204 C3207 1.386 . S
H3205 C3221 0.930 . S
H3206 C3222 0.931 . S
C3207 H3195 0.929 . S
C3207 C3201 1.390 . S
C3207 C3204 1.386 . S
C3208 C3203 1.490 . S
C3208 C3210 1.395 . S
C3208 C3211 1.403 . S
H3209 C3215 0.930 . S
C3210 H3196 0.930 . S
C3210 C3208 1.395 . S
C3210 C3213 1.403 . S
C3211 C3208 1.403 . S
C3211 C3212 1.524 . S
C3211 C3215 1.400 . S
C3212 H3197 0.960 . S
C3212 H3198 0.960 . S
C3212 H3199 0.960 . S
C3212 C3211 1.524 . S
C3213 C3210 1.403 . S
C3213 C3214 1.392 . S
C3213 C3217 1.495 . S
C3214 C3213 1.392 . S
C3214 C3215 1.385 . S
C3214 C3216 1.478 . S
C3215 H3209 0.930 . S
C3215 C3211 1.400 . S
C3215 C3214 1.385 . S
C3216 C3214 1.478 . S
C3216 C3218 1.381 . S
C3216 C3222 1.383 . S
C3217 C3213 1.495 . S
C3217 H3223 0.959 . S
C3217 H3224 0.961 . S
C3217 H3225 0.960 . S
C3218 C3216 1.381 . S
C3218 C3219 1.394 . S
C3218 H3226 0.930 . S
C3219 C3218 1.394 . S
C3219 C3220 1.383 . S
C3219 H3227 0.929 . S
C3220 C3219 1.383 . S
C3220 C3221 1.377 . S
C3221 H3205 0.930 . S
C3221 C3220 1.377 . S
C3221 C3222 1.379 . S
C3222 H3206 0.931 . S
C3222 C3216 1.383 . S
C3222 C3221 1.379 . S
H3223 C3217 0.959 . S
H3224 C3217 0.961 . S
H3225 C3217 0.960 . S
H3226 C3218 0.930 . S
H3227 C3219 0.929 . S
H3228 C3236 0.929 . S
H3229 C3238 0.930 . S
H3230 C3240 0.930 . S
H3231 C3243 0.929 . S
H3232 C3246 0.930 . S
H3233 C3248 0.960 . S
H3234 C3248 0.960 . S
H3235 C3248 0.960 . S
C3236 H3228 0.929 . S
C3236 C3237 1.377 . S
C3236 C3238 1.384 . S
C3237 C3236 1.377 . S
C3237 C3243 1.390 . S
C3238 H3229 0.930 . S
C3238 C3236 1.384 . S
C3238 C3239 1.372 . S
C3239 C3238 1.372 . S
C3239 C3240 1.400 . S
C3239 C3244 1.490 . S
C3240 H3230 0.930 . S
C3240 C3239 1.400 . S
C3240 C3243 1.386 . S
H3241 C3257 0.930 . S
H3242 C3258 0.931 . S
C3243 H3231 0.929 . S
C3243 C3237 1.390 . S
C3243 C3240 1.386 . S
C3244 C3239 1.490 . S
C3244 C3246 1.395 . S
C3244 C3247 1.403 . S
H3245 C3251 0.930 . S
C3246 H3232 0.930 . S
C3246 C3244 1.395 . S
C3246 C3249 1.403 . S
C3247 C3244 1.403 . S
C3247 C3248 1.524 . S
C3247 C3251 1.400 . S
C3248 H3233 0.960 . S
C3248 H3234 0.960 . S
C3248 H3235 0.960 . S
C3248 C3247 1.524 . S
C3249 C3246 1.403 . S
C3249 C3250 1.392 . S
C3249 C3253 1.495 . S
C3250 C3249 1.392 . S
C3250 C3251 1.385 . S
C3250 C3252 1.478 . S
C3251 H3245 0.930 . S
C3251 C3247 1.400 . S
C3251 C3250 1.385 . S
C3252 C3250 1.478 . S
C3252 C3254 1.381 . S
C3252 C3258 1.383 . S
C3253 C3249 1.495 . S
C3253 H3259 0.959 . S
C3253 H3260 0.921 1_554 S
C3253 H3261 0.960 . S
C3254 C3252 1.381 . S
C3254 C3255 1.394 . S
C3254 H3262 0.930 . S
C3255 C3254 1.394 . S
C3255 C3256 1.383 . S
C3255 H3263 0.929 . S
C3256 C3255 1.383 . S
C3256 C3257 1.377 . S
C3257 H3241 0.930 . S
C3257 C3256 1.377 . S
C3257 C3258 1.379 . S
C3258 H3242 0.931 . S
C3258 C3252 1.383 . S
C3258 C3257 1.379 . S
H3259 C3253 0.959 . S
H3260 C3253 0.921 1_556 S
H3261 C3253 0.960 . S
H3262 C3254 0.930 . S
H3263 C3255 0.929 . S
H3264 C3272 0.929 . S
H3265 C3274 0.930 . S
H3266 C3276 0.930 . S
H3267 C3279 0.929 . S
H3268 C3282 0.930 . S
H3269 C3284 0.960 . S
H3270 C3284 0.960 . S
H3271 C3284 0.960 . S
C3272 H3264 0.929 . S
C3272 C3273 1.377 . S
C3272 C3274 1.384 . S
C3273 C3272 1.377 . S
C3273 C3279 1.390 . S
C3274 H3265 0.930 . S
C3274 C3272 1.384 . S
C3274 C3275 1.372 . S
C3275 C3274 1.372 . S
C3275 C3276 1.400 . S
C3275 C3280 1.490 . S
C3276 H3266 0.930 . S
C3276 C3275 1.400 . S
C3276 C3279 1.386 . S
H3277 C3293 0.930 . S
H3278 C3294 0.931 . S
C3279 H3267 0.929 . S
C3279 C3273 1.390 . S
C3279 C3276 1.386 . S
C3280 C3275 1.490 . S
C3280 C3282 1.395 . S
C3280 C3283 1.403 . S
H3281 C3287 0.930 . S
C3282 H3268 0.930 . S
C3282 C3280 1.395 . S
C3282 C3285 1.403 . S
C3283 C3280 1.403 . S
C3283 C3284 1.524 . S
C3283 C3287 1.400 . S
C3284 H3269 0.960 . S
C3284 H3270 0.960 . S
C3284 H3271 0.960 . S
C3284 C3283 1.524 . S
C3285 C3282 1.403 . S
C3285 C3286 1.392 . S
C3285 C3289 1.495 . S
C3286 C3285 1.392 . S
C3286 C3287 1.385 . S
C3286 C3288 1.478 . S
C3287 H3281 0.930 . S
C3287 C3283 1.400 . S
C3287 C3286 1.385 . S
C3288 C3286 1.478 . S
C3288 C3290 1.381 . S
C3288 C3294 1.383 . S
C3289 C3285 1.495 . S
C3289 H3295 0.959 . S
C3289 H3296 0.961 . S
C3289 H3297 0.960 . S
C3290 C3288 1.381 . S
C3290 C3291 1.394 . S
C3290 H3298 0.930 . S
C3291 C3290 1.394 . S
C3291 C3292 1.383 . S
C3291 H3299 0.929 . S
C3292 C3291 1.383 . S
C3292 C3293 1.377 . S
C3293 H3277 0.930 . S
C3293 C3292 1.377 . S
C3293 C3294 1.379 . S
C3294 H3278 0.931 . S
C3294 C3288 1.383 . S
C3294 C3293 1.379 . S
H3295 C3289 0.959 . S
H3296 C3289 0.961 . S
H3297 C3289 0.960 . S
H3298 C3290 0.930 . S
H3299 C3291 0.929 . S
H3300 C3308 0.929 . S
H3301 C3310 0.930 . S
H3302 C3312 0.930 . S
H3303 C3315 0.929 . S
H3304 C3318 0.930 . S
H3305 C3320 0.960 1_556 S
H3306 C3320 0.960 . S
H3307 C3320 0.960 1_556 S
C3308 H3300 0.929 . S
C3308 C3309 1.377 . S
C3308 C3310 1.384 . S
C3309 C3308 1.377 . S
C3309 C3315 1.390 . S
C3310 H3301 0.930 . S
C3310 C3308 1.384 . S
C3310 C3311 1.372 . S
C3311 C3310 1.372 . S
C3311 C3312 1.400 . S
C3311 C3316 1.490 . S
C3312 H3302 0.930 . S
C3312 C3311 1.400 . S
C3312 C3315 1.386 . S
H3313 C3329 0.905 1_556 S
H3314 C3330 0.931 1_556 S
C3315 H3303 0.929 . S
C3315 C3309 1.390 . S
C3315 C3312 1.386 . S
C3316 C3311 1.490 . S
C3316 C3318 1.395 . S
C3316 C3319 1.403 . S
H3317 C3323 0.930 . S
C3318 H3304 0.930 . S
C3318 C3316 1.395 . S
C3318 C3321 1.403 . S
C3319 C3316 1.403 . S
C3319 C3320 1.524 . S
C3319 C3323 1.400 . S
C3320 H3305 0.960 1_554 S
C3320 H3306 0.960 . S
C3320 H3307 0.960 1_554 S
C3320 C3319 1.524 . S
C3321 C3318 1.403 . S
C3321 C3322 1.392 . S
C3321 C3325 1.495 . S
C3322 C3321 1.392 . S
C3322 C3323 1.385 . S
C3322 C3324 1.478 . S
C3323 H3317 0.930 . S
C3323 C3319 1.400 . S
C3323 C3322 1.385 . S
C3324 C3322 1.478 . S
C3324 C3326 1.381 . S
C3324 C3330 1.383 . S
C3325 C3321 1.495 . S
C3325 H3331 0.959 . S
C3325 H3332 0.961 . S
C3325 H3333 0.960 . S
C3326 C3324 1.381 . S
C3326 C3327 1.394 . S
C3326 H3334 0.930 . S
C3327 C3326 1.394 . S
C3327 C3328 1.383 . S
C3327 H3335 0.929 . S
C3328 C3327 1.383 . S
C3328 C3329 1.395 . S
C3329 H3313 0.905 1_554 S
C3329 C3328 1.395 . S
C3329 C3330 1.386 . S
C3330 H3314 0.931 1_554 S
C3330 C3324 1.383 . S
C3330 C3329 1.386 . S
H3331 C3325 0.959 . S
H3332 C3325 0.961 . S
H3333 C3325 0.960 . S
H3334 C3326 0.930 . S
H3335 C3327 0.929 . S
H3336 C3344 0.929 . S
H3337 C3346 0.930 . S
H3338 C3348 0.930 . S
H3339 C3351 0.929 . S
H3340 C3354 0.930 . S
H3341 C3356 0.960 . S
H3342 C3356 0.960 . S
H3343 C3356 0.960 . S
C3344 H3336 0.929 . S
C3344 C3345 1.377 . S
C3344 C3346 1.384 . S
C3345 C3344 1.377 . S
C3345 C3351 1.390 . S
C3346 H3337 0.930 . S
C3346 C3344 1.384 . S
C3346 C3347 1.372 . S
C3347 C3346 1.372 . S
C3347 C3348 1.400 . S
C3347 C3352 1.490 . S
C3348 H3338 0.930 . S
C3348 C3347 1.400 . S
C3348 C3351 1.386 . S
H3349 C3365 0.930 . S
H3350 C3366 0.931 . S
C3351 H3339 0.929 . S
C3351 C3345 1.390 . S
C3351 C3348 1.386 . S
C3352 C3347 1.490 . S
C3352 C3354 1.395 . S
C3352 C3355 1.403 . S
H3353 C3359 0.930 . S
C3354 H3340 0.930 . S
C3354 C3352 1.395 . S
C3354 C3357 1.403 . S
C3355 C3352 1.403 . S
C3355 C3356 1.524 . S
C3355 C3359 1.400 . S
C3356 H3341 0.960 . S
C3356 H3342 0.960 . S
C3356 H3343 0.960 . S
C3356 C3355 1.524 . S
C3357 C3354 1.403 . S
C3357 C3358 1.392 . S
C3357 C3361 1.495 . S
C3358 C3357 1.392 . S
C3358 C3359 1.385 . S
C3358 C3360 1.478 . S
C3359 H3353 0.930 . S
C3359 C3355 1.400 . S
C3359 C3358 1.385 . S
C3360 C3358 1.478 . S
C3360 C3362 1.381 . S
C3360 C3366 1.383 . S
C3361 C3357 1.495 . S
C3361 H3367 0.959 . S
C3361 H3368 0.961 . S
C3361 H3369 0.960 . S
C3362 C3360 1.381 . S
C3362 C3363 1.394 . S
C3362 H3370 0.930 . S
C3363 C3362 1.394 . S
C3363 C3364 1.383 . S
C3363 H3371 0.929 . S
C3364 C3363 1.383 . S
C3364 C3365 1.377 . S
C3365 H3349 0.930 . S
C3365 C3364 1.377 . S
C3365 C3366 1.379 . S
C3366 H3350 0.931 . S
C3366 C3360 1.383 . S
C3366 C3365 1.379 . S
H3367 C3361 0.959 . S
H3368 C3361 0.961 . S
H3369 C3361 0.960 . S
H3370 C3362 0.930 . S
H3371 C3363 0.929 . S
H3372 C3380 0.929 . S
H3373 C3382 0.930 . S
H3374 C3384 0.930 . S
H3375 C3387 0.929 . S
H3376 C3390 0.930 . S
H3377 C3392 0.960 . S
H3378 C3392 0.960 . S
H3379 C3392 0.960 . S
C3380 H3372 0.929 . S
C3380 C3381 1.377 . S
C3380 C3382 1.384 . S
C3381 C3380 1.377 . S
C3381 C3387 1.390 . S
C3382 H3373 0.930 . S
C3382 C3380 1.384 . S
C3382 C3383 1.372 . S
C3383 C3382 1.372 . S
C3383 C3384 1.400 . S
C3383 C3388 1.490 . S
C3384 H3374 0.930 . S
C3384 C3383 1.400 . S
C3384 C3387 1.386 . S
H3385 C3401 0.930 . S
H3386 C3402 0.931 . S
C3387 H3375 0.929 . S
C3387 C3381 1.390 . S
C3387 C3384 1.386 . S
C3388 C3383 1.490 . S
C3388 C3390 1.395 . S
C3388 C3391 1.403 . S
H3389 C3395 0.930 . S
C3390 H3376 0.930 . S
C3390 C3388 1.395 . S
C3390 C3393 1.403 . S
C3391 C3388 1.403 . S
C3391 C3392 1.524 . S
C3391 C3395 1.400 . S
C3392 H3377 0.960 . S
C3392 H3378 0.960 . S
C3392 H3379 0.960 . S
C3392 C3391 1.524 . S
C3393 C3390 1.403 . S
C3393 C3394 1.392 . S
C3393 C3397 1.495 . S
C3394 C3393 1.392 . S
C3394 C3395 1.385 . S
C3394 C3396 1.478 . S
C3395 H3389 0.930 . S
C3395 C3391 1.400 . S
C3395 C3394 1.385 . S
C3396 C3394 1.478 . S
C3396 C3398 1.381 . S
C3396 C3402 1.383 . S
C3397 C3393 1.495 . S
C3397 H3403 0.959 . S
C3397 H3404 0.961 . S
C3397 H3405 0.960 . S
C3398 C3396 1.381 . S
C3398 C3399 1.394 . S
C3398 H3406 0.930 . S
C3399 C3398 1.394 . S
C3399 C3400 1.383 . S
C3399 H3407 0.929 . S
C3400 C3399 1.383 . S
C3400 C3401 1.377 . S
C3401 H3385 0.930 . S
C3401 C3400 1.377 . S
C3401 C3402 1.379 . S
C3402 H3386 0.931 . S
C3402 C3396 1.383 . S
C3402 C3401 1.379 . S
H3403 C3397 0.959 . S
H3404 C3397 0.961 . S
H3405 C3397 0.960 . S
H3406 C3398 0.930 . S
H3407 C3399 0.929 . S
H3408 C3416 0.929 . S
H3409 C3418 0.930 . S
H3410 C3420 0.930 . S
H3411 C3423 0.929 . S
H3412 C3426 0.930 . S
H3413 C3428 0.960 . S
H3414 C3428 0.960 . S
H3415 C3428 0.960 . S
C3416 H3408 0.929 . S
C3416 C3417 1.377 . S
C3416 C3418 1.384 . S
C3417 C3416 1.377 . S
C3417 C3423 1.390 . S
C3418 H3409 0.930 . S
C3418 C3416 1.384 . S
C3418 C3419 1.372 . S
C3419 C3418 1.372 . S
C3419 C3420 1.400 . S
C3419 C3424 1.490 . S
C3420 H3410 0.930 . S
C3420 C3419 1.400 . S
C3420 C3423 1.386 . S
H3421 C3437 0.930 . S
H3422 C3438 0.931 . S
C3423 H3411 0.929 . S
C3423 C3417 1.390 . S
C3423 C3420 1.386 . S
C3424 C3419 1.490 . S
C3424 C3426 1.395 . S
C3424 C3427 1.403 . S
H3425 C3431 0.930 . S
C3426 H3412 0.930 . S
C3426 C3424 1.395 . S
C3426 C3429 1.403 . S
C3427 C3424 1.403 . S
C3427 C3428 1.524 . S
C3427 C3431 1.400 . S
C3428 H3413 0.960 . S
C3428 H3414 0.960 . S
C3428 H3415 0.960 . S
C3428 C3427 1.524 . S
C3429 C3426 1.403 . S
C3429 C3430 1.392 . S
C3429 C3433 1.495 . S
C3430 C3429 1.392 . S
C3430 C3431 1.385 . S
C3430 C3432 1.478 . S
C3431 H3425 0.930 . S
C3431 C3427 1.400 . S
C3431 C3430 1.385 . S
C3432 C3430 1.478 . S
C3432 C3434 1.381 . S
C3432 C3438 1.383 . S
C3433 C3429 1.495 . S
C3433 H3439 0.959 . S
C3433 H3440 0.961 . S
C3433 H3441 0.960 . S
C3434 C3432 1.381 . S
C3434 C3435 1.394 . S
C3434 H3442 0.930 . S
C3435 C3434 1.394 . S
C3435 C3436 1.383 . S
C3435 H3443 0.929 . S
C3436 C3435 1.383 . S
C3436 C3437 1.377 . S
C3437 H3421 0.930 . S
C3437 C3436 1.377 . S
C3437 C3438 1.379 . S
C3438 H3422 0.931 . S
C3438 C3432 1.383 . S
C3438 C3437 1.379 . S
H3439 C3433 0.959 . S
H3440 C3433 0.961 . S
H3441 C3433 0.960 . S
H3442 C3434 0.930 . S
H3443 C3435 0.929 . S
H3444 C3452 0.929 . S
H3445 C3454 0.930 . S
H3446 C3456 0.930 . S
H3447 C3459 0.929 . S
H3448 C3462 0.930 . S
H3449 C3464 0.960 . S
H3450 C3464 0.960 . S
H3451 C3464 0.960 . S
C3452 H3444 0.929 . S
C3452 C3453 1.377 . S
C3452 C3454 1.384 . S
C3453 C3452 1.377 . S
C3453 C3459 1.390 . S
C3454 H3445 0.930 . S
C3454 C3452 1.384 . S
C3454 C3455 1.372 . S
C3455 C3454 1.372 . S
C3455 C3456 1.400 . S
C3455 C3460 1.490 . S
C3456 H3446 0.930 . S
C3456 C3455 1.400 . S
C3456 C3459 1.386 . S
H3457 C3473 0.930 . S
H3458 C3474 0.931 . S
C3459 H3447 0.929 . S
C3459 C3453 1.390 . S
C3459 C3456 1.386 . S
C3460 C3455 1.490 . S
C3460 C3462 1.395 . S
C3460 C3463 1.403 . S
H3461 C3467 0.930 . S
C3462 H3448 0.930 . S
C3462 C3460 1.395 . S
C3462 C3465 1.403 . S
C3463 C3460 1.403 . S
C3463 C3464 1.524 . S
C3463 C3467 1.400 . S
C3464 H3449 0.960 . S
C3464 H3450 0.960 . S
C3464 H3451 0.960 . S
C3464 C3463 1.524 . S
C3465 C3462 1.403 . S
C3465 C3466 1.392 . S
C3465 C3469 1.495 . S
C3466 C3465 1.392 . S
C3466 C3467 1.385 . S
C3466 C3468 1.478 . S
C3467 H3461 0.930 . S
C3467 C3463 1.400 . S
C3467 C3466 1.385 . S
C3468 C3466 1.478 . S
C3468 C3470 1.381 . S
C3468 C3474 1.383 . S
C3469 C3465 1.495 . S
C3469 H3475 0.959 . S
C3469 H3476 0.961 . S
C3469 H3477 0.960 . S
C3470 C3468 1.381 . S
C3470 C3471 1.394 . S
C3470 H3478 0.930 . S
C3471 C3470 1.394 . S
C3471 C3472 1.383 . S
C3471 H3479 0.929 . S
C3472 C3471 1.383 . S
C3472 C3473 1.377 . S
C3473 H3457 0.930 . S
C3473 C3472 1.377 . S
C3473 C3474 1.379 . S
C3474 H3458 0.931 . S
C3474 C3468 1.383 . S
C3474 C3473 1.379 . S
H3475 C3469 0.959 . S
H3476 C3469 0.961 . S
H3477 C3469 0.960 . S
H3478 C3470 0.930 . S
H3479 C3471 0.929 . S
H3480 C3488 0.929 . S
H3481 C3490 0.930 . S
H3482 C3492 0.930 . S
H3483 C3495 0.929 . S
H3484 C3498 0.930 . S
H3485 C3500 0.960 . S
H3486 C3500 0.960 . S
H3487 C3500 0.960 . S
C3488 H3480 0.929 . S
C3488 C3489 1.377 . S
C3488 C3490 1.384 . S
C3489 C3488 1.377 . S
C3489 C3495 1.390 . S
C3490 H3481 0.930 . S
C3490 C3488 1.384 . S
C3490 C3491 1.372 . S
C3491 C3490 1.372 . S
C3491 C3492 1.400 . S
C3491 C3496 1.490 . S
C3492 H3482 0.930 . S
C3492 C3491 1.400 . S
C3492 C3495 1.386 . S
H3493 C3509 0.930 . S
H3494 C3510 0.931 . S
C3495 H3483 0.929 . S
C3495 C3489 1.390 . S
C3495 C3492 1.386 . S
C3496 C3491 1.490 . S
C3496 C3498 1.395 1_455 S
C3496 C3499 1.403 . S
H3497 C3503 0.930 . S
C3498 H3484 0.930 . S
C3498 C3496 1.395 1_655 S
C3498 C3501 1.403 . S
C3499 C3496 1.403 . S
C3499 C3500 1.524 . S
C3499 C3503 1.400 . S
C3500 H3485 0.960 . S
C3500 H3486 0.960 . S
C3500 H3487 0.960 . S
C3500 C3499 1.524 . S
C3501 C3498 1.403 . S
C3501 C3502 1.392 1_655 S
C3501 C3505 1.495 . S
C3502 C3501 1.392 1_455 S
C3502 C3503 1.385 . S
C3502 C3504 1.478 . S
C3503 H3497 0.930 . S
C3503 C3499 1.400 . S
C3503 C3502 1.385 . S
C3504 C3502 1.478 . S
C3504 C3506 1.381 1_556 S
C3504 C3510 1.383 . S
C3505 C3501 1.495 . S
C3505 H3511 0.959 . S
C3505 H3512 0.961 . S
C3505 H3513 0.960 . S
C3506 C3504 1.381 1_554 S
C3506 C3507 1.394 . S
C3506 H3514 0.930 . S
C3507 C3506 1.394 . S
C3507 C3508 1.374 1_554 S
C3507 H3515 0.929 . S
C3508 C3507 1.374 1_556 S
C3508 C3509 1.393 . S
C3509 H3493 0.930 . S
C3509 C3508 1.393 . S
C3509 C3510 1.379 . S
C3510 H3494 0.931 . S
C3510 C3504 1.383 . S
C3510 C3509 1.379 . S
H3511 C3505 0.959 . S
H3512 C3505 0.961 . S
H3513 C3505 0.960 . S
H3514 C3506 0.930 . S
H3515 C3507 0.929 . S
H3516 C3524 0.929 . S
H3517 C3526 0.930 . S
H3518 C3528 0.930 . S
H3519 C3531 0.929 . S
H3520 C3534 0.930 . S
H3521 C3536 0.960 . S
H3522 C3536 0.960 . S
H3523 C3536 0.960 . S
C3524 H3516 0.929 . S
C3524 C3525 1.377 . S
C3524 C3526 1.384 . S
C3525 C3524 1.377 . S
C3525 C3531 1.390 . S
C3526 H3517 0.930 . S
C3526 C3524 1.384 . S
C3526 C3527 1.372 . S
C3527 C3526 1.372 . S
C3527 C3528 1.400 . S
C3527 C3532 1.490 . S
C3528 H3518 0.930 . S
C3528 C3527 1.400 . S
C3528 C3531 1.386 . S
H3529 C3545 0.930 . S
H3530 C3546 0.931 . S
C3531 H3519 0.929 . S
C3531 C3525 1.390 . S
C3531 C3528 1.386 . S
C3532 C3527 1.490 . S
C3532 C3534 1.395 . S
C3532 C3535 1.403 . S
H3533 C3539 0.930 . S
C3534 H3520 0.930 . S
C3534 C3532 1.395 . S
C3534 C3537 1.403 . S
C3535 C3532 1.403 . S
C3535 C3536 1.524 . S
C3535 C3539 1.400 . S
C3536 H3521 0.960 . S
C3536 H3522 0.960 . S
C3536 H3523 0.960 . S
C3536 C3535 1.524 . S
C3537 C3534 1.403 . S
C3537 C3538 1.392 . S
C3537 C3541 1.495 . S
C3538 C3537 1.392 . S
C3538 C3539 1.385 . S
C3538 C3540 1.478 . S
C3539 H3533 0.930 . S
C3539 C3535 1.400 . S
C3539 C3538 1.385 . S
C3540 C3538 1.478 . S
C3540 C3542 1.381 . S
C3540 C3546 1.383 . S
C3541 C3537 1.495 . S
C3541 H3547 0.959 . S
C3541 H3548 0.961 . S
C3541 H3549 0.960 . S
C3542 C3540 1.381 . S
C3542 C3543 1.394 . S
C3542 H3550 0.930 . S
C3543 C3542 1.394 . S
C3543 C3544 1.383 . S
C3543 H3551 0.929 . S
C3544 C3543 1.383 . S
C3544 C3545 1.377 . S
C3545 H3529 0.930 . S
C3545 C3544 1.377 . S
C3545 C3546 1.379 . S
C3546 H3530 0.931 . S
C3546 C3540 1.383 . S
C3546 C3545 1.379 . S
H3547 C3541 0.959 . S
H3548 C3541 0.961 . S
H3549 C3541 0.960 . S
H3550 C3542 0.930 . S
H3551 C3543 0.929 . S
H3552 C3560 0.929 . S
H3553 C3562 0.930 . S
H3554 C3564 0.930 . S
H3555 C3567 0.929 . S
H3556 C3570 0.930 . S
H3557 C3572 0.960 . S
H3558 C3572 0.960 . S
H3559 C3572 0.960 . S
C3560 H3552 0.929 . S
C3560 C3561 1.377 . S
C3560 C3562 1.384 . S
C3561 C3560 1.377 . S
C3561 C3567 1.390 . S
C3562 H3553 0.930 . S
C3562 C3560 1.384 . S
C3562 C3563 1.372 . S
C3563 C3562 1.372 . S
C3563 C3564 1.400 . S
C3563 C3568 1.490 . S
C3564 H3554 0.930 . S
C3564 C3563 1.400 . S
C3564 C3567 1.386 . S
H3565 C3581 0.930 . S
H3566 C3582 0.931 . S
C3567 H3555 0.929 . S
C3567 C3561 1.390 . S
C3567 C3564 1.386 . S
C3568 C3563 1.490 . S
C3568 C3570 1.395 . S
C3568 C3571 1.403 . S
H3569 C3575 0.930 . S
C3570 H3556 0.930 . S
C3570 C3568 1.395 . S
C3570 C3573 1.403 . S
C3571 C3568 1.403 . S
C3571 C3572 1.524 . S
C3571 C3575 1.400 . S
C3572 H3557 0.960 . S
C3572 H3558 0.960 . S
C3572 H3559 0.960 . S
C3572 C3571 1.524 . S
C3573 C3570 1.403 . S
C3573 C3574 1.392 . S
C3573 C3577 1.495 . S
C3574 C3573 1.392 . S
C3574 C3575 1.385 . S
C3574 C3576 1.478 . S
C3575 H3569 0.930 . S
C3575 C3571 1.400 . S
C3575 C3574 1.385 . S
C3576 C3574 1.478 . S
C3576 C3578 1.381 . S
C3576 C3582 1.383 . S
C3577 C3573 1.495 . S
C3577 H3583 0.959 . S
C3577 H3584 0.961 . S
C3577 H3585 0.960 . S
C3578 C3576 1.381 . S
C3578 C3579 1.394 . S
C3578 H3586 0.930 . S
C3579 C3578 1.394 . S
C3579 C3580 1.383 . S
C3579 H3587 0.929 . S
C3580 C3579 1.383 . S
C3580 C3581 1.377 . S
C3581 H3565 0.930 . S
C3581 C3580 1.377 . S
C3581 C3582 1.379 . S
C3582 H3566 0.931 . S
C3582 C3576 1.383 . S
C3582 C3581 1.379 . S
H3583 C3577 0.959 . S
H3584 C3577 0.961 . S
H3585 C3577 0.960 . S
H3586 C3578 0.930 . S
H3587 C3579 0.929 . S
H3588 C3596 0.929 . S
H3589 C3598 0.930 . S
H3590 C3600 0.930 . S
H3591 C3603 0.929 . S
H3592 C3606 0.930 . S
H3593 C3608 0.960 . S
H3594 C3608 0.960 . S
H3595 C3608 0.960 . S
C3596 H3588 0.929 . S
C3596 C3597 1.377 . S
C3596 C3598 1.384 . S
C3597 C3596 1.377 . S
C3597 C3603 1.390 . S
C3598 H3589 0.930 . S
C3598 C3596 1.384 . S
C3598 C3599 1.372 . S
C3599 C3598 1.372 . S
C3599 C3600 1.400 . S
C3599 C3604 1.490 . S
C3600 H3590 0.930 . S
C3600 C3599 1.400 . S
C3600 C3603 1.386 . S
H3601 C3617 0.930 . S
H3602 C3618 0.931 . S
C3603 H3591 0.929 . S
C3603 C3597 1.390 . S
C3603 C3600 1.386 . S
C3604 C3599 1.490 . S
C3604 C3606 1.395 . S
C3604 C3607 1.403 . S
H3605 C3611 0.930 . S
C3606 H3592 0.930 . S
C3606 C3604 1.395 . S
C3606 C3609 1.403 . S
C3607 C3604 1.403 . S
C3607 C3608 1.524 . S
C3607 C3611 1.400 . S
C3608 H3593 0.960 . S
C3608 H3594 0.960 . S
C3608 H3595 0.960 . S
C3608 C3607 1.524 . S
C3609 C3606 1.403 . S
C3609 C3610 1.392 . S
C3609 C3613 1.495 . S
C3610 C3609 1.392 . S
C3610 C3611 1.385 . S
C3610 C3612 1.478 . S
C3611 H3605 0.930 . S
C3611 C3607 1.400 . S
C3611 C3610 1.385 . S
C3612 C3610 1.478 . S
C3612 C3614 1.381 . S
C3612 C3618 1.383 . S
C3613 C3609 1.495 . S
C3613 H3619 0.959 . S
C3613 H3620 0.961 . S
C3613 H3621 0.960 . S
C3614 C3612 1.381 . S
C3614 C3615 1.394 . S
C3614 H3622 0.930 . S
C3615 C3614 1.394 . S
C3615 C3616 1.383 . S
C3615 H3623 0.929 . S
C3616 C3615 1.383 . S
C3616 C3617 1.377 . S
C3617 H3601 0.930 . S
C3617 C3616 1.377 . S
C3617 C3618 1.379 . S
C3618 H3602 0.931 . S
C3618 C3612 1.383 . S
C3618 C3617 1.379 . S
H3619 C3613 0.959 . S
H3620 C3613 0.961 . S
H3621 C3613 0.960 . S
H3622 C3614 0.930 . S
H3623 C3615 0.929 . S
H3624 C3632 0.929 . S
H3625 C3634 0.930 . S
H3626 C3636 0.930 . S
H3627 C3639 0.929 . S
H3628 C3642 0.930 . S
H3629 C3644 0.960 . S
H3630 C3644 0.960 . S
H3631 C3644 0.960 1_455 S
C3632 H3624 0.929 . S
C3632 C3633 1.377 1_655 S
C3632 C3634 1.384 . S
C3633 C3632 1.377 1_455 S
C3633 C3639 1.390 . S
C3634 H3625 0.930 . S
C3634 C3632 1.384 . S
C3634 C3635 1.372 1_655 S
C3635 C3634 1.372 1_455 S
C3635 C3636 1.400 . S
C3635 C3640 1.490 . S
C3636 H3626 0.930 . S
C3636 C3635 1.400 . S
C3636 C3639 1.386 . S
H3637 C3653 0.930 . S
H3638 C3654 0.931 . S
C3639 H3627 0.929 . S
C3639 C3633 1.390 . S
C3639 C3636 1.386 . S
C3640 C3635 1.490 . S
C3640 C3642 1.395 . S
C3640 C3643 1.403 . S
H3641 C3647 0.930 . S
C3642 H3628 0.930 . S
C3642 C3640 1.395 . S
C3642 C3645 1.403 . S
C3643 C3640 1.403 . S
C3643 C3644 1.524 1_455 S
C3643 C3647 1.400 . S
C3644 H3629 0.960 . S
C3644 H3630 0.960 . S
C3644 H3631 0.960 1_655 S
C3644 C3643 1.524 1_655 S
C3645 C3642 1.403 . S
C3645 C3646 1.392 . S
C3645 C3649 1.495 . S
C3646 C3645 1.392 . S
C3646 C3647 1.385 . S
C3646 C3648 1.478 . S
C3647 H3641 0.930 . S
C3647 C3643 1.400 . S
C3647 C3646 1.385 . S
C3648 C3646 1.478 . S
C3648 C3650 1.381 1_455 S
C3648 C3654 1.383 . S
C3649 C3645 1.495 . S
C3649 H3655 0.959 . S
C3649 H3656 0.961 . S
C3649 H3657 0.960 . S
C3650 C3648 1.381 1_655 S
C3650 C3651 1.394 . S
C3650 H3658 0.930 . S
C3651 C3650 1.394 . S
C3651 C3652 1.383 1_655 S
C3651 H3659 0.929 . S
C3652 C3651 1.383 1_455 S
C3652 C3653 1.377 . S
C3653 H3637 0.930 . S
C3653 C3652 1.377 . S
C3653 C3654 1.379 . S
C3654 H3638 0.931 . S
C3654 C3648 1.383 . S
C3654 C3653 1.379 . S
H3655 C3649 0.959 . S
H3656 C3649 0.961 . S
H3657 C3649 0.960 . S
H3658 C3650 0.930 . S
H3659 C3651 0.929 . S
H3660 C3668 0.929 . S
H3661 C3670 0.930 . S
H3662 C3672 0.930 . S
H3663 C3675 0.929 . S
H3664 C3678 0.930 . S
H3665 C3680 0.960 . S
H3666 C3680 0.960 . S
H3667 C3680 0.960 . S
C3668 H3660 0.929 . S
C3668 C3669 1.377 . S
C3668 C3670 1.384 . S
C3669 C3668 1.377 . S
C3669 C3675 1.390 . S
C3670 H3661 0.930 . S
C3670 C3668 1.384 . S
C3670 C3671 1.372 . S
C3671 C3670 1.372 . S
C3671 C3672 1.400 . S
C3671 C3676 1.490 . S
C3672 H3662 0.930 . S
C3672 C3671 1.400 . S
C3672 C3675 1.386 . S
H3673 C3689 0.930 . S
H3674 C3690 0.931 . S
C3675 H3663 0.929 . S
C3675 C3669 1.390 . S
C3675 C3672 1.386 . S
C3676 C3671 1.490 . S
C3676 C3678 1.395 . S
C3676 C3679 1.403 . S
H3677 C3683 0.930 . S
C3678 H3664 0.930 . S
C3678 C3676 1.395 . S
C3678 C3681 1.403 . S
C3679 C3676 1.403 . S
C3679 C3680 1.524 . S
C3679 C3683 1.400 . S
C3680 H3665 0.960 . S
C3680 H3666 0.960 . S
C3680 H3667 0.960 . S
C3680 C3679 1.524 . S
C3681 C3678 1.403 . S
C3681 C3682 1.392 . S
C3681 C3685 1.495 . S
C3682 C3681 1.392 . S
C3682 C3683 1.385 . S
C3682 C3684 1.478 . S
C3683 H3677 0.930 . S
C3683 C3679 1.400 . S
C3683 C3682 1.385 . S
C3684 C3682 1.478 . S
C3684 C3686 1.381 . S
C3684 C3690 1.383 . S
C3685 C3681 1.495 . S
C3685 H3691 0.959 . S
C3685 H3692 0.961 . S
C3685 H3693 0.960 . S
C3686 C3684 1.381 . S
C3686 C3687 1.394 . S
C3686 H3694 0.930 . S
C3687 C3686 1.394 . S
C3687 C3688 1.383 . S
C3687 H3695 0.929 . S
C3688 C3687 1.383 . S
C3688 C3689 1.377 . S
C3689 H3673 0.930 . S
C3689 C3688 1.377 . S
C3689 C3690 1.379 . S
C3690 H3674 0.931 . S
C3690 C3684 1.383 . S
C3690 C3689 1.379 . S
H3691 C3685 0.959 . S
H3692 C3685 0.961 . S
H3693 C3685 0.960 . S
H3694 C3686 0.930 . S
H3695 C3687 0.929 . S
H3696 C3704 0.929 . S
H3697 C3706 0.930 . S
H3698 C3708 0.930 . S
H3699 C3711 0.929 . S
H3700 C3714 0.930 . S
H3701 C3716 0.960 . S
H3702 C3716 0.960 . S
H3703 C3716 0.960 . S
C3704 H3696 0.929 . S
C3704 C3705 1.377 . S
C3704 C3706 1.384 . S
C3705 C3704 1.377 . S
C3705 C3711 1.390 . S
C3706 H3697 0.930 . S
C3706 C3704 1.384 . S
C3706 C3707 1.372 . S
C3707 C3706 1.372 . S
C3707 C3708 1.400 . S
C3707 C3712 1.490 . S
C3708 H3698 0.930 . S
C3708 C3707 1.400 . S
C3708 C3711 1.386 . S
H3709 C3725 0.930 . S
H3710 C3726 0.931 . S
C3711 H3699 0.929 . S
C3711 C3705 1.390 . S
C3711 C3708 1.386 . S
C3712 C3707 1.490 . S
C3712 C3714 1.395 . S
C3712 C3715 1.403 . S
H3713 C3719 0.930 . S
C3714 H3700 0.930 . S
C3714 C3712 1.395 . S
C3714 C3717 1.403 . S
C3715 C3712 1.403 . S
C3715 C3716 1.524 . S
C3715 C3719 1.400 . S
C3716 H3701 0.960 . S
C3716 H3702 0.960 . S
C3716 H3703 0.960 . S
C3716 C3715 1.524 . S
C3717 C3714 1.403 . S
C3717 C3718 1.392 . S
C3717 C3721 1.495 . S
C3718 C3717 1.392 . S
C3718 C3719 1.385 . S
C3718 C3720 1.478 . S
C3719 H3713 0.930 . S
C3719 C3715 1.400 . S
C3719 C3718 1.385 . S
C3720 C3718 1.478 . S
C3720 C3722 1.381 . S
C3720 C3726 1.383 . S
C3721 C3717 1.495 . S
C3721 H3727 0.959 . S
C3721 H3728 0.961 . S
C3721 H3729 0.960 . S
C3722 C3720 1.381 . S
C3722 C3723 1.394 . S
C3722 H3730 0.930 . S
C3723 C3722 1.394 . S
C3723 C3724 1.383 . S
C3723 H3731 0.929 . S
C3724 C3723 1.383 . S
C3724 C3725 1.377 . S
C3725 H3709 0.930 . S
C3725 C3724 1.377 . S
C3725 C3726 1.379 . S
C3726 H3710 0.931 . S
C3726 C3720 1.383 . S
C3726 C3725 1.379 . S
H3727 C3721 0.959 . S
H3728 C3721 0.961 . S
H3729 C3721 0.960 . S
H3730 C3722 0.930 . S
H3731 C3723 0.929 . S
H3732 C3740 0.929 . S
H3733 C3742 0.930 . S
H3734 C3744 0.930 . S
H3735 C3747 0.929 . S
H3736 C3750 0.930 . S
H3737 C3752 0.960 . S
H3738 C3752 0.960 . S
H3739 C3752 0.960 . S
C3740 H3732 0.929 . S
C3740 C3741 1.377 . S
C3740 C3742 1.384 . S
C3741 C3740 1.377 . S
C3741 C3747 1.390 . S
C3742 H3733 0.930 . S
C3742 C3740 1.384 . S
C3742 C3743 1.372 . S
C3743 C3742 1.372 . S
C3743 C3744 1.400 . S
C3743 C3748 1.490 . S
C3744 H3734 0.930 . S
C3744 C3743 1.400 . S
C3744 C3747 1.386 . S
H3745 C3761 0.930 . S
H3746 C3762 0.931 . S
C3747 H3735 0.929 . S
C3747 C3741 1.390 . S
C3747 C3744 1.386 . S
C3748 C3743 1.490 . S
C3748 C3750 1.395 . S
C3748 C3751 1.403 . S
H3749 C3755 0.930 . S
C3750 H3736 0.930 . S
C3750 C3748 1.395 . S
C3750 C3753 1.403 . S
C3751 C3748 1.403 . S
C3751 C3752 1.524 . S
C3751 C3755 1.400 . S
C3752 H3737 0.960 . S
C3752 H3738 0.960 . S
C3752 H3739 0.960 . S
C3752 C3751 1.524 . S
C3753 C3750 1.403 . S
C3753 C3754 1.392 . S
C3753 C3757 1.495 . S
C3754 C3753 1.392 . S
C3754 C3755 1.385 . S
C3754 C3756 1.478 . S
C3755 H3749 0.930 . S
C3755 C3751 1.400 . S
C3755 C3754 1.385 . S
C3756 C3754 1.478 . S
C3756 C3758 1.381 . S
C3756 C3762 1.383 . S
C3757 C3753 1.495 . S
C3757 H3763 0.959 . S
C3757 H3764 0.961 . S
C3757 H3765 0.960 . S
C3758 C3756 1.381 . S
C3758 C3759 1.394 . S
C3758 H3766 0.930 . S
C3759 C3758 1.394 . S
C3759 C3760 1.383 . S
C3759 H3767 0.929 . S
C3760 C3759 1.383 . S
C3760 C3761 1.377 . S
C3761 H3745 0.930 . S
C3761 C3760 1.377 . S
C3761 C3762 1.379 . S
C3762 H3746 0.931 . S
C3762 C3756 1.383 . S
C3762 C3761 1.379 . S
H3763 C3757 0.959 . S
H3764 C3757 0.961 . S
H3765 C3757 0.960 . S
H3766 C3758 0.930 . S
H3767 C3759 0.929 . S
H3768 C3776 0.929 . S
H3769 C3778 0.930 . S
H3770 C3780 0.930 . S
H3771 C3783 0.929 . S
H3772 C3786 0.930 . S
H3773 C3788 0.960 . S
H3774 C3788 0.960 . S
H3775 C3788 0.960 . S
C3776 H3768 0.929 . S
C3776 C3777 1.377 . S
C3776 C3778 1.384 . S
C3777 C3776 1.377 . S
C3777 C3783 1.390 . S
C3778 H3769 0.930 . S
C3778 C3776 1.384 . S
C3778 C3779 1.372 . S
C3779 C3778 1.372 . S
C3779 C3780 1.400 . S
C3779 C3784 1.490 . S
C3780 H3770 0.930 . S
C3780 C3779 1.400 . S
C3780 C3783 1.386 . S
H3781 C3797 0.930 . S
H3782 C3798 0.931 . S
C3783 H3771 0.929 . S
C3783 C3777 1.390 . S
C3783 C3780 1.386 . S
C3784 C3779 1.490 . S
C3784 C3786 1.395 . S
C3784 C3787 1.403 . S
H3785 C3791 0.930 . S
C3786 H3772 0.930 . S
C3786 C3784 1.395 . S
C3786 C3789 1.403 . S
C3787 C3784 1.403 . S
C3787 C3788 1.524 . S
C3787 C3791 1.400 . S
C3788 H3773 0.960 . S
C3788 H3774 0.960 . S
C3788 H3775 0.960 . S
C3788 C3787 1.524 . S
C3789 C3786 1.403 . S
C3789 C3790 1.392 . S
C3789 C3793 1.495 . S
C3790 C3789 1.392 . S
C3790 C3791 1.385 . S
C3790 C3792 1.478 . S
C3791 H3785 0.930 . S
C3791 C3787 1.400 . S
C3791 C3790 1.385 . S
C3792 C3790 1.478 . S
C3792 C3794 1.381 . S
C3792 C3798 1.383 . S
C3793 C3789 1.495 . S
C3793 H3799 0.959 . S
C3793 H3800 0.961 . S
C3793 H3801 0.960 . S
C3794 C3792 1.381 . S
C3794 C3795 1.394 . S
C3794 H3802 0.930 . S
C3795 C3794 1.394 . S
C3795 C3796 1.383 . S
C3795 H3803 0.929 . S
C3796 C3795 1.383 . S
C3796 C3797 1.377 . S
C3797 H3781 0.930 . S
C3797 C3796 1.377 . S
C3797 C3798 1.379 . S
C3798 H3782 0.931 . S
C3798 C3792 1.383 . S
C3798 C3797 1.379 . S
H3799 C3793 0.959 . S
H3800 C3793 0.961 . S
H3801 C3793 0.960 . S
H3802 C3794 0.930 . S
H3803 C3795 0.929 . S
H3804 C3812 0.929 . S
H3805 C3814 0.930 . S
H3806 C3816 0.930 . S
H3807 C3819 0.929 . S
H3808 C3822 0.930 . S
H3809 C3824 0.960 . S
H3810 C3824 0.960 . S
H3811 C3824 0.960 . S
C3812 H3804 0.929 . S
C3812 C3813 1.377 . S
C3812 C3814 1.384 . S
C3813 C3812 1.377 . S
C3813 C3819 1.390 . S
C3814 H3805 0.930 . S
C3814 C3812 1.384 . S
C3814 C3815 1.372 . S
C3815 C3814 1.372 . S
C3815 C3816 1.400 . S
C3815 C3820 1.490 . S
C3816 H3806 0.930 . S
C3816 C3815 1.400 . S
C3816 C3819 1.386 . S
H3817 C3833 0.930 . S
H3818 C3834 0.931 . S
C3819 H3807 0.929 . S
C3819 C3813 1.390 . S
C3819 C3816 1.386 . S
C3820 C3815 1.490 . S
C3820 C3822 1.395 . S
C3820 C3823 1.403 . S
H3821 C3827 0.930 . S
C3822 H3808 0.930 . S
C3822 C3820 1.395 . S
C3822 C3825 1.403 . S
C3823 C3820 1.403 . S
C3823 C3824 1.524 . S
C3823 C3827 1.400 . S
C3824 H3809 0.960 . S
C3824 H3810 0.960 . S
C3824 H3811 0.960 . S
C3824 C3823 1.524 . S
C3825 C3822 1.403 . S
C3825 C3826 1.392 . S
C3825 C3829 1.495 . S
C3826 C3825 1.392 . S
C3826 C3827 1.385 . S
C3826 C3828 1.478 . S
C3827 H3821 0.930 . S
C3827 C3823 1.400 . S
C3827 C3826 1.385 . S
C3828 C3826 1.478 . S
C3828 C3830 1.381 . S
C3828 C3834 1.383 . S
C3829 C3825 1.495 . S
C3829 H3835 0.959 . S
C3829 H3836 0.961 . S
C3829 H3837 0.960 . S
C3830 C3828 1.381 . S
C3830 C3831 1.394 . S
C3830 H3838 0.930 . S
C3831 C3830 1.394 . S
C3831 C3832 1.383 . S
C3831 H3839 0.929 . S
C3832 C3831 1.383 . S
C3832 C3833 1.377 . S
C3833 H3817 0.930 . S
C3833 C3832 1.377 . S
C3833 C3834 1.379 . S
C3834 H3818 0.931 . S
C3834 C3828 1.383 . S
C3834 C3833 1.379 . S
H3835 C3829 0.959 . S
H3836 C3829 0.961 . S
H3837 C3829 0.960 . S
H3838 C3830 0.930 . S
H3839 C3831 0.929 . S
H3840 C3848 0.929 . S
H3841 C3850 0.930 . S
H3842 C3852 0.930 . S
H3843 C3855 0.929 . S
H3844 C3858 0.930 . S
H3845 C3860 0.960 . S
H3846 C3860 0.960 . S
H3847 C3860 0.960 . S
C3848 H3840 0.929 . S
C3848 C3849 1.377 . S
C3848 C3850 1.384 . S
C3849 C3848 1.377 . S
C3849 C3855 1.390 . S
C3850 H3841 0.930 . S
C3850 C3848 1.384 . S
C3850 C3851 1.372 . S
C3851 C3850 1.372 . S
C3851 C3852 1.400 . S
C3851 C3856 1.490 . S
C3852 H3842 0.930 . S
C3852 C3851 1.400 . S
C3852 C3855 1.386 . S
H3853 C3869 0.930 . S
H3854 C3870 0.931 . S
C3855 H3843 0.929 . S
C3855 C3849 1.390 . S
C3855 C3852 1.386 . S
C3856 C3851 1.490 . S
C3856 C3858 1.395 . S
C3856 C3859 1.403 . S
H3857 C3863 0.930 . S
C3858 H3844 0.930 . S
C3858 C3856 1.395 . S
C3858 C3861 1.403 . S
C3859 C3856 1.403 . S
C3859 C3860 1.524 . S
C3859 C3863 1.400 . S
C3860 H3845 0.960 . S
C3860 H3846 0.960 . S
C3860 H3847 0.960 . S
C3860 C3859 1.524 . S
C3861 C3858 1.403 . S
C3861 C3862 1.392 . S
C3861 C3865 1.495 . S
C3862 C3861 1.392 . S
C3862 C3863 1.385 . S
C3862 C3864 1.478 . S
C3863 H3857 0.930 . S
C3863 C3859 1.400 . S
C3863 C3862 1.385 . S
C3864 C3862 1.478 . S
C3864 C3866 1.381 . S
C3864 C3870 1.383 . S
C3865 C3861 1.495 . S
C3865 H3871 0.959 . S
C3865 H3872 0.961 . S
C3865 H3873 0.960 . S
C3866 C3864 1.381 . S
C3866 C3867 1.394 . S
C3866 H3874 0.930 . S
C3867 C3866 1.394 . S
C3867 C3868 1.383 . S
C3867 H3875 0.929 . S
C3868 C3867 1.383 . S
C3868 C3869 1.377 . S
C3869 H3853 0.930 . S
C3869 C3868 1.377 . S
C3869 C3870 1.379 . S
C3870 H3854 0.931 . S
C3870 C3864 1.383 . S
C3870 C3869 1.379 . S
H3871 C3865 0.959 . S
H3872 C3865 0.961 . S
H3873 C3865 0.960 . S
H3874 C3866 0.930 . S
H3875 C3867 0.929 . S
H3876 C3884 0.929 . S
H3877 C3886 0.930 . S
H3878 C3888 0.930 . S
H3879 C3891 0.929 . S
H3880 C3894 0.930 . S
H3881 C3896 0.960 . S
H3882 C3896 0.960 . S
H3883 C3896 0.960 . S
C3884 H3876 0.929 . S
C3884 C3885 1.377 . S
C3884 C3886 1.384 . S
C3885 C3884 1.377 . S
C3885 C3891 1.390 . S
C3886 H3877 0.930 . S
C3886 C3884 1.384 . S
C3886 C3887 1.372 . S
C3887 C3886 1.372 . S
C3887 C3888 1.400 . S
C3887 C3892 1.490 . S
C3888 H3878 0.930 . S
C3888 C3887 1.400 . S
C3888 C3891 1.386 . S
H3889 C3905 0.930 . S
H3890 C3906 0.931 . S
C3891 H3879 0.929 . S
C3891 C3885 1.390 . S
C3891 C3888 1.386 . S
C3892 C3887 1.490 . S
C3892 C3894 1.395 . S
C3892 C3895 1.403 . S
H3893 C3899 0.930 . S
C3894 H3880 0.930 . S
C3894 C3892 1.395 . S
C3894 C3897 1.403 . S
C3895 C3892 1.403 . S
C3895 C3896 1.524 . S
C3895 C3899 1.400 . S
C3896 H3881 0.960 . S
C3896 H3882 0.960 . S
C3896 H3883 0.960 . S
C3896 C3895 1.524 . S
C3897 C3894 1.403 . S
C3897 C3898 1.392 . S
C3897 C3901 1.495 . S
C3898 C3897 1.392 . S
C3898 C3899 1.385 . S
C3898 C3900 1.478 . S
C3899 H3893 0.930 . S
C3899 C3895 1.400 . S
C3899 C3898 1.385 . S
C3900 C3898 1.478 . S
C3900 C3902 1.381 . S
C3900 C3906 1.383 . S
C3901 C3897 1.495 . S
C3901 H3907 0.959 . S
C3901 H3908 0.961 . S
C3901 H3909 0.960 . S
C3902 C3900 1.381 . S
C3902 C3903 1.394 . S
C3902 H3910 0.930 . S
C3903 C3902 1.394 . S
C3903 C3904 1.383 . S
C3903 H3911 0.929 . S
C3904 C3903 1.383 . S
C3904 C3905 1.377 . S
C3905 H3889 0.930 . S
C3905 C3904 1.377 . S
C3905 C3906 1.379 . S
C3906 H3890 0.931 . S
C3906 C3900 1.383 . S
C3906 C3905 1.379 . S
H3907 C3901 0.959 . S
H3908 C3901 0.961 . S
H3909 C3901 0.960 . S
H3910 C3902 0.930 . S
H3911 C3903 0.929 . S
H3912 C3920 0.929 . S
H3913 C3922 0.930 . S
H3914 C3924 0.930 . S
H3915 C3927 0.929 . S
H3916 C3930 0.930 . S
H3917 C3932 0.960 . S
H3918 C3932 0.960 . S
H3919 C3932 0.960 . S
C3920 H3912 0.929 . S
C3920 C3921 1.377 . S
C3920 C3922 1.384 . S
C3921 C3920 1.377 . S
C3921 C3927 1.390 . S
C3922 H3913 0.930 . S
C3922 C3920 1.384 . S
C3922 C3923 1.372 . S
C3923 C3922 1.372 . S
C3923 C3924 1.400 . S
C3923 C3928 1.490 . S
C3924 H3914 0.930 . S
C3924 C3923 1.400 . S
C3924 C3927 1.386 . S
H3925 C3941 0.930 . S
H3926 C3942 0.931 . S
C3927 H3915 0.929 . S
C3927 C3921 1.390 . S
C3927 C3924 1.386 . S
C3928 C3923 1.490 . S
C3928 C3930 1.395 . S
C3928 C3931 1.403 . S
H3929 C3935 0.930 . S
C3930 H3916 0.930 . S
C3930 C3928 1.395 . S
C3930 C3933 1.403 . S
C3931 C3928 1.403 . S
C3931 C3932 1.524 . S
C3931 C3935 1.400 . S
C3932 H3917 0.960 . S
C3932 H3918 0.960 . S
C3932 H3919 0.960 . S
C3932 C3931 1.524 . S
C3933 C3930 1.403 . S
C3933 C3934 1.392 . S
C3933 C3937 1.495 . S
C3934 C3933 1.392 . S
C3934 C3935 1.385 . S
C3934 C3936 1.478 . S
C3935 H3929 0.930 . S
C3935 C3931 1.400 . S
C3935 C3934 1.385 . S
C3936 C3934 1.478 . S
C3936 C3938 1.381 . S
C3936 C3942 1.383 . S
C3937 C3933 1.495 . S
C3937 H3943 0.959 . S
C3937 H3944 0.961 . S
C3937 H3945 0.960 . S
C3938 C3936 1.381 . S
C3938 C3939 1.394 . S
C3938 H3946 0.930 . S
C3939 C3938 1.394 . S
C3939 C3940 1.383 . S
C3939 H3947 0.929 . S
C3940 C3939 1.383 . S
C3940 C3941 1.377 . S
C3941 H3925 0.930 . S
C3941 C3940 1.377 . S
C3941 C3942 1.379 . S
C3942 H3926 0.931 . S
C3942 C3936 1.383 . S
C3942 C3941 1.379 . S
H3943 C3937 0.959 . S
H3944 C3937 0.961 . S
H3945 C3937 0.960 . S
H3946 C3938 0.930 . S
H3947 C3939 0.929 . S
H3948 C3956 0.929 . S
H3949 C3958 0.930 . S
H3950 C3960 0.930 . S
H3951 C3963 0.929 . S
H3952 C3966 0.930 . S
H3953 C3968 0.960 . S
H3954 C3968 0.960 . S
H3955 C3968 0.960 . S
C3956 H3948 0.929 . S
C3956 C3957 1.377 . S
C3956 C3958 1.384 . S
C3957 C3956 1.377 . S
C3957 C3963 1.390 . S
C3958 H3949 0.930 . S
C3958 C3956 1.384 . S
C3958 C3959 1.372 . S
C3959 C3958 1.372 . S
C3959 C3960 1.400 . S
C3959 C3964 1.490 . S
C3960 H3950 0.930 . S
C3960 C3959 1.400 . S
C3960 C3963 1.386 . S
H3961 C3977 0.930 . S
H3962 C3978 0.931 . S
C3963 H3951 0.929 . S
C3963 C3957 1.390 . S
C3963 C3960 1.386 . S
C3964 C3959 1.490 . S
C3964 C3966 1.395 . S
C3964 C3967 1.403 . S
H3965 C3971 0.930 . S
C3966 H3952 0.930 . S
C3966 C3964 1.395 . S
C3966 C3969 1.403 . S
C3967 C3964 1.403 . S
C3967 C3968 1.524 . S
C3967 C3971 1.400 . S
C3968 H3953 0.960 . S
C3968 H3954 0.960 . S
C3968 H3955 0.960 . S
C3968 C3967 1.524 . S
C3969 C3966 1.403 . S
C3969 C3970 1.392 . S
C3969 C3973 1.495 . S
C3970 C3969 1.392 . S
C3970 C3971 1.385 . S
C3970 C3972 1.478 . S
C3971 H3965 0.930 . S
C3971 C3967 1.400 . S
C3971 C3970 1.385 . S
C3972 C3970 1.478 . S
C3972 C3974 1.381 . S
C3972 C3978 1.383 . S
C3973 C3969 1.495 . S
C3973 H3979 0.959 . S
C3973 H3980 0.961 . S
C3973 H3981 0.960 . S
C3974 C3972 1.381 . S
C3974 C3975 1.394 . S
C3974 H3982 0.930 . S
C3975 C3974 1.394 . S
C3975 C3976 1.383 . S
C3975 H3983 0.929 . S
C3976 C3975 1.383 . S
C3976 C3977 1.377 . S
C3977 H3961 0.930 . S
C3977 C3976 1.377 . S
C3977 C3978 1.379 . S
C3978 H3962 0.931 . S
C3978 C3972 1.383 . S
C3978 C3977 1.379 . S
H3979 C3973 0.959 . S
H3980 C3973 0.961 . S
H3981 C3973 0.960 . S
H3982 C3974 0.930 . S
H3983 C3975 0.929 . S
H3984 C3992 0.929 . S
H3985 C3994 0.930 . S
H3986 C3996 0.930 . S
H3987 C3999 0.929 . S
H3988 C4002 0.930 . S
H3989 C4004 0.960 . S
H3990 C4004 0.960 . S
H3991 C4004 0.960 . S
C3992 H3984 0.929 . S
C3992 C3993 1.377 . S
C3992 C3994 1.384 . S
C3993 C3992 1.377 . S
C3993 C3999 1.390 . S
C3994 H3985 0.930 . S
C3994 C3992 1.384 . S
C3994 C3995 1.372 . S
C3995 C3994 1.372 . S
C3995 C3996 1.400 . S
C3995 C4000 1.490 . S
C3996 H3986 0.930 . S
C3996 C3995 1.400 . S
C3996 C3999 1.386 . S
H3997 C4013 0.930 . S
H3998 C4014 0.931 . S
C3999 H3987 0.929 . S
C3999 C3993 1.390 . S
C3999 C3996 1.386 . S
C4000 C3995 1.490 . S
C4000 C4002 1.395 . S
C4000 C4003 1.403 . S
H4001 C4007 0.930 . S
C4002 H3988 0.930 . S
C4002 C4000 1.395 . S
C4002 C4005 1.403 . S
C4003 C4000 1.403 . S
C4003 C4004 1.524 . S
C4003 C4007 1.400 . S
C4004 H3989 0.960 . S
C4004 H3990 0.960 . S
C4004 H3991 0.960 . S
C4004 C4003 1.524 . S
C4005 C4002 1.403 . S
C4005 C4006 1.392 . S
C4005 C4009 1.495 . S
C4006 C4005 1.392 . S
C4006 C4007 1.385 . S
C4006 C4008 1.478 . S
C4007 H4001 0.930 . S
C4007 C4003 1.400 . S
C4007 C4006 1.385 . S
C4008 C4006 1.478 . S
C4008 C4010 1.381 . S
C4008 C4014 1.383 . S
C4009 C4005 1.495 . S
C4009 H4015 0.959 . S
C4009 H4016 0.961 . S
C4009 H4017 0.960 . S
C4010 C4008 1.381 . S
C4010 C4011 1.394 . S
C4010 H4018 0.930 . S
C4011 C4010 1.394 . S
C4011 C4012 1.383 . S
C4011 H4019 0.929 . S
C4012 C4011 1.383 . S
C4012 C4013 1.377 . S
C4013 H3997 0.930 . S
C4013 C4012 1.377 . S
C4013 C4014 1.379 . S
C4014 H3998 0.931 . S
C4014 C4008 1.383 . S
C4014 C4013 1.379 . S
H4015 C4009 0.959 . S
H4016 C4009 0.961 . S
H4017 C4009 0.960 . S
H4018 C4010 0.930 . S
H4019 C4011 0.929 . S
H4020 C4028 0.929 . S
H4021 C4030 0.930 . S
H4022 C4032 0.930 . S
H4023 C4035 0.929 . S
H4024 C4038 0.930 . S
H4025 C4040 0.960 . S
H4026 C4040 0.960 . S
H4027 C4040 0.960 . S
C4028 H4020 0.929 . S
C4028 C4029 1.377 . S
C4028 C4030 1.384 . S
C4029 C4028 1.377 . S
C4029 C4035 1.390 . S
C4030 H4021 0.930 . S
C4030 C4028 1.384 . S
C4030 C4031 1.372 . S
C4031 C4030 1.372 . S
C4031 C4032 1.400 . S
C4031 C4036 1.490 . S
C4032 H4022 0.930 . S
C4032 C4031 1.400 . S
C4032 C4035 1.386 . S
H4033 C4049 0.930 . S
H4034 C4050 0.931 . S
C4035 H4023 0.929 . S
C4035 C4029 1.390 . S
C4035 C4032 1.386 . S
C4036 C4031 1.490 . S
C4036 C4038 1.395 . S
C4036 C4039 1.403 . S
H4037 C4043 0.930 . S
C4038 H4024 0.930 . S
C4038 C4036 1.395 . S
C4038 C4041 1.403 . S
C4039 C4036 1.403 . S
C4039 C4040 1.524 . S
C4039 C4043 1.400 . S
C4040 H4025 0.960 . S
C4040 H4026 0.960 . S
C4040 H4027 0.960 . S
C4040 C4039 1.524 . S
C4041 C4038 1.403 . S
C4041 C4042 1.392 . S
C4041 C4045 1.495 . S
C4042 C4041 1.392 . S
C4042 C4043 1.385 . S
C4042 C4044 1.478 . S
C4043 H4037 0.930 . S
C4043 C4039 1.400 . S
C4043 C4042 1.385 . S
C4044 C4042 1.478 . S
C4044 C4046 1.381 . S
C4044 C4050 1.383 . S
C4045 C4041 1.495 . S
C4045 H4051 0.959 . S
C4045 H4052 0.961 . S
C4045 H4053 0.960 . S
C4046 C4044 1.381 . S
C4046 C4047 1.394 . S
C4046 H4054 0.930 . S
C4047 C4046 1.394 . S
C4047 C4048 1.383 . S
C4047 H4055 0.929 . S
C4048 C4047 1.383 . S
C4048 C4049 1.377 . S
C4049 H4033 0.930 . S
C4049 C4048 1.377 . S
C4049 C4050 1.379 . S
C4050 H4034 0.931 . S
C4050 C4044 1.383 . S
C4050 C4049 1.379 . S
H4051 C4045 0.959 . S
H4052 C4045 0.961 . S
H4053 C4045 0.960 . S
H4054 C4046 0.930 . S
H4055 C4047 0.929 . S
H4056 C4064 0.929 . S
H4057 C4066 0.930 . S
H4058 C4068 0.930 . S
H4059 C4071 0.929 . S
H4060 C4074 0.930 . S
H4061 C4076 0.960 . S
H4062 C4076 0.960 . S
H4063 C4076 0.960 . S
C4064 H4056 0.929 . S
C4064 C4065 1.377 . S
C4064 C4066 1.384 . S
C4065 C4064 1.377 . S
C4065 C4071 1.390 . S
C4066 H4057 0.930 . S
C4066 C4064 1.384 . S
C4066 C4067 1.372 . S
C4067 C4066 1.372 . S
C4067 C4068 1.400 . S
C4067 C4072 1.490 . S
C4068 H4058 0.930 . S
C4068 C4067 1.400 . S
C4068 C4071 1.386 . S
H4069 C4085 0.930 . S
H4070 C4086 0.931 . S
C4071 H4059 0.929 . S
C4071 C4065 1.390 . S
C4071 C4068 1.386 . S
C4072 C4067 1.490 . S
C4072 C4074 1.395 . S
C4072 C4075 1.403 . S
H4073 C4079 0.930 . S
C4074 H4060 0.930 . S
C4074 C4072 1.395 . S
C4074 C4077 1.403 . S
C4075 C4072 1.403 . S
C4075 C4076 1.524 . S
C4075 C4079 1.400 . S
C4076 H4061 0.960 . S
C4076 H4062 0.960 . S
C4076 H4063 0.960 . S
C4076 C4075 1.524 . S
C4077 C4074 1.403 . S
C4077 C4078 1.392 . S
C4077 C4081 1.495 . S
C4078 C4077 1.392 . S
C4078 C4079 1.385 . S
C4078 C4080 1.478 . S
C4079 H4073 0.930 . S
C4079 C4075 1.400 . S
C4079 C4078 1.385 . S
C4080 C4078 1.478 . S
C4080 C4082 1.381 . S
C4080 C4086 1.383 . S
C4081 C4077 1.495 . S
C4081 H4087 0.959 . S
C4081 H4088 0.961 . S
C4081 H4089 0.960 . S
C4082 C4080 1.381 . S
C4082 C4083 1.394 . S
C4082 H4090 0.930 . S
C4083 C4082 1.394 . S
C4083 C4084 1.383 . S
C4083 H4091 0.929 . S
C4084 C4083 1.383 . S
C4084 C4085 1.377 . S
C4085 H4069 0.930 . S
C4085 C4084 1.377 . S
C4085 C4086 1.379 . S
C4086 H4070 0.931 . S
C4086 C4080 1.383 . S
C4086 C4085 1.379 . S
H4087 C4081 0.959 . S
H4088 C4081 0.961 . S
H4089 C4081 0.960 . S
H4090 C4082 0.930 . S
H4091 C4083 0.929 . S
H4092 C4100 0.929 1_556 S
H4093 C4102 0.930 1_556 S
H4094 C4104 0.930 . S
H4095 C4107 0.929 . S
H4096 C4110 0.930 . S
H4097 C4112 1.019 . S
H4098 C4112 0.960 . S
H4099 C4112 0.960 . S
C4100 H4092 0.929 1_554 S
C4100 C4101 1.377 . S
C4100 C4102 1.384 . S
C4101 C4100 1.377 . S
C4101 C4107 1.390 . S
C4102 H4093 0.930 1_554 S
C4102 C4100 1.384 . S
C4102 C4103 1.372 . S
C4103 C4102 1.372 . S
C4103 C4104 1.400 . S
C4103 C4108 1.490 . S
C4104 H4094 0.930 . S
C4104 C4103 1.400 . S
C4104 C4107 1.386 . S
H4105 C4121 0.943 . S
H4106 C4122 0.931 . S
C4107 H4095 0.929 . S
C4107 C4101 1.390 . S
C4107 C4104 1.386 . S
C4108 C4103 1.490 . S
C4108 C4110 1.395 . S
C4108 C4111 1.403 . S
H4109 C4115 0.930 . S
C4110 H4096 0.930 . S
C4110 C4108 1.395 . S
C4110 C4113 1.403 . S
C4111 C4108 1.403 . S
C4111 C4112 1.524 . S
C4111 C4115 1.400 . S
C4112 H4097 1.019 . S
C4112 H4098 0.960 . S
C4112 H4099 0.960 . S
C4112 C4111 1.524 . S
C4113 C4110 1.403 . S
C4113 C4114 1.392 . S
C4113 C4117 1.495 . S
C4114 C4113 1.392 . S
C4114 C4115 1.385 . S
C4114 C4116 1.478 . S
C4115 H4109 0.930 . S
C4115 C4111 1.400 . S
C4115 C4114 1.385 . S
C4116 C4114 1.478 . S
C4116 C4118 1.381 1_554 S
C4116 C4122 1.383 . S
C4117 C4113 1.495 . S
C4117 H4123 0.959 . S
C4117 H4124 0.961 . S
C4117 H4125 0.960 . S
C4118 C4116 1.381 1_556 S
C4118 C4119 1.394 . S
C4118 H4126 0.930 . S
C4119 C4118 1.394 . S
C4119 C4120 1.396 1_556 S
C4119 H4127 0.929 . S
C4120 C4119 1.396 1_554 S
C4120 C4121 1.375 1_565 S
C4121 H4105 0.943 . S
C4121 C4120 1.375 1_545 S
C4121 C4122 1.367 1_545 S
C4122 H4106 0.931 . S
C4122 C4116 1.383 . S
C4122 C4121 1.367 1_565 S
H4123 C4117 0.959 . S
H4124 C4117 0.961 . S
H4125 C4117 0.960 . S
H4126 C4118 0.930 . S
H4127 C4119 0.929 . S
H4128 C4136 0.929 . S
H4129 C4138 0.930 . S
H4130 C4140 0.930 . S
H4131 C4143 0.929 . S
H4132 C4146 0.930 . S
H4133 C4148 0.960 . S
H4134 C4148 0.960 . S
H4135 C4148 0.960 . S
C4136 H4128 0.929 . S
C4136 C4137 1.377 . S
C4136 C4138 1.384 . S
C4137 C4136 1.377 . S
C4137 C4143 1.390 . S
C4138 H4129 0.930 . S
C4138 C4136 1.384 . S
C4138 C4139 1.372 . S
C4139 C4138 1.372 . S
C4139 C4140 1.400 . S
C4139 C4144 1.490 . S
C4140 H4130 0.930 . S
C4140 C4139 1.400 . S
C4140 C4143 1.386 . S
H4141 C4157 0.930 . S
H4142 C4158 0.931 . S
C4143 H4131 0.929 . S
C4143 C4137 1.390 . S
C4143 C4140 1.386 . S
C4144 C4139 1.490 . S
C4144 C4146 1.395 . S
C4144 C4147 1.403 . S
H4145 C4151 0.930 . S
C4146 H4132 0.930 . S
C4146 C4144 1.395 . S
C4146 C4149 1.403 . S
C4147 C4144 1.403 . S
C4147 C4148 1.524 . S
C4147 C4151 1.400 . S
C4148 H4133 0.960 . S
C4148 H4134 0.960 . S
C4148 H4135 0.960 . S
C4148 C4147 1.524 . S
C4149 C4146 1.403 . S
C4149 C4150 1.392 . S
C4149 C4153 1.495 . S
C4150 C4149 1.392 . S
C4150 C4151 1.385 . S
C4150 C4152 1.478 . S
C4151 H4145 0.930 . S
C4151 C4147 1.400 . S
C4151 C4150 1.385 . S
C4152 C4150 1.478 . S
C4152 C4154 1.381 . S
C4152 C4158 1.383 . S
C4153 C4149 1.495 . S
C4153 H4159 0.959 . S
C4153 H4160 0.961 . S
C4153 H4161 0.960 . S
C4154 C4152 1.381 . S
C4154 C4155 1.394 . S
C4154 H4162 0.930 . S
C4155 C4154 1.394 . S
C4155 C4156 1.383 . S
C4155 H4163 0.929 . S
C4156 C4155 1.383 . S
C4156 C4157 1.377 . S
C4157 H4141 0.930 . S
C4157 C4156 1.377 . S
C4157 C4158 1.379 . S
C4158 H4142 0.931 . S
C4158 C4152 1.383 . S
C4158 C4157 1.379 . S
H4159 C4153 0.959 . S
H4160 C4153 0.961 . S
H4161 C4153 0.960 . S
H4162 C4154 0.930 . S
H4163 C4155 0.929 . S
H4164 C4172 0.929 . S
H4165 C4174 0.930 1_556 S
H4166 C4176 0.930 . S
H4167 C4179 0.929 . S
H4168 C4182 0.930 . S
H4169 C4184 0.960 . S
H4170 C4184 0.960 . S
H4171 C4184 0.960 . S
C4172 H4164 0.929 . S
C4172 C4173 1.377 1_556 S
C4172 C4174 1.384 1_556 S
C4173 C4172 1.377 1_554 S
C4173 C4179 1.390 . S
C4174 H4165 0.930 1_554 S
C4174 C4172 1.384 1_554 S
C4174 C4175 1.372 . S
C4175 C4174 1.372 . S
C4175 C4176 1.400 . S
C4175 C4180 1.490 . S
C4176 H4166 0.930 . S
C4176 C4175 1.400 . S
C4176 C4179 1.386 . S
H4177 C4193 0.930 . S
H4178 C4194 0.931 . S
C4179 H4167 0.929 . S
C4179 C4173 1.390 . S
C4179 C4176 1.386 . S
C4180 C4175 1.490 . S
C4180 C4182 1.395 1_554 S
C4180 C4183 1.403 . S
H4181 C4187 0.930 . S
C4182 H4168 0.930 . S
C4182 C4180 1.395 1_556 S
C4182 C4185 1.408 . S
C4183 C4180 1.403 . S
C4183 C4184 1.524 . S
C4183 C4187 1.400 . S
C4184 H4169 0.960 . S
C4184 H4170 0.960 . S
C4184 H4171 0.960 . S
C4184 C4183 1.524 . S
C4185 C4182 1.408 . S
C4185 C4186 1.353 1_556 S
C4185 C4189 1.531 . S
C4186 C4185 1.353 1_554 S
C4186 C4187 1.385 . S
C4186 C4188 1.478 . S
C4187 H4181 0.930 . S
C4187 C4183 1.400 . S
C4187 C4186 1.385 . S
C4188 C4186 1.478 . S
C4188 C4190 1.381 . S
C4188 C4194 1.383 . S
C4189 C4185 1.531 . S
C4189 H4195 0.959 . S
C4189 H4196 0.961 . S
C4189 H4197 0.960 . S
C4190 C4188 1.381 . S
C4190 C4191 1.394 . S
C4190 H4198 0.930 . S
C4191 C4190 1.394 . S
C4191 C4192 1.383 . S
C4191 H4199 0.929 . S
C4192 C4191 1.383 . S
C4192 C4193 1.377 . S
C4193 H4177 0.930 . S
C4193 C4192 1.377 . S
C4193 C4194 1.379 . S
C4194 H4178 0.931 . S
C4194 C4188 1.383 . S
C4194 C4193 1.379 . S
H4195 C4189 0.959 . S
H4196 C4189 0.961 . S
H4197 C4189 0.960 . S
H4198 C4190 0.930 . S
H4199 C4191 0.929 . S
H4200 C4208 0.929 . S
H4201 C4210 0.930 . S
H4202 C4212 0.930 . S
H4203 C4215 0.929 . S
H4204 C4218 0.930 . S
H4205 C4220 0.960 . S
H4206 C4220 0.960 . S
H4207 C4220 0.960 . S
C4208 H4200 0.929 . S
C4208 C4209 1.377 . S
C4208 C4210 1.384 . S
C4209 C4208 1.377 . S
C4209 C4215 1.390 . S
C4210 H4201 0.930 . S
C4210 C4208 1.384 . S
C4210 C4211 1.372 . S
C4211 C4210 1.372 . S
C4211 C4212 1.400 . S
C4211 C4216 1.490 . S
C4212 H4202 0.930 . S
C4212 C4211 1.400 . S
C4212 C4215 1.386 . S
H4213 C4229 0.930 . S
H4214 C4230 0.931 . S
C4215 H4203 0.929 . S
C4215 C4209 1.390 . S
C4215 C4212 1.386 . S
C4216 C4211 1.490 . S
C4216 C4218 1.395 . S
C4216 C4219 1.403 . S
H4217 C4223 0.930 . S
C4218 H4204 0.930 . S
C4218 C4216 1.395 . S
C4218 C4221 1.403 . S
C4219 C4216 1.403 . S
C4219 C4220 1.524 . S
C4219 C4223 1.400 . S
C4220 H4205 0.960 . S
C4220 H4206 0.960 . S
C4220 H4207 0.960 . S
C4220 C4219 1.524 . S
C4221 C4218 1.403 . S
C4221 C4222 1.392 . S
C4221 C4225 1.495 . S
C4222 C4221 1.392 . S
C4222 C4223 1.385 . S
C4222 C4224 1.478 . S
C4223 H4217 0.930 . S
C4223 C4219 1.400 . S
C4223 C4222 1.385 . S
C4224 C4222 1.478 . S
C4224 C4226 1.381 . S
C4224 C4230 1.383 . S
C4225 C4221 1.495 . S
C4225 H4231 0.959 . S
C4225 H4232 0.961 . S
C4225 H4233 0.960 . S
C4226 C4224 1.381 . S
C4226 C4227 1.394 . S
C4226 H4234 0.930 . S
C4227 C4226 1.394 . S
C4227 C4228 1.383 . S
C4227 H4235 0.929 . S
C4228 C4227 1.383 . S
C4228 C4229 1.377 . S
C4229 H4213 0.930 . S
C4229 C4228 1.377 . S
C4229 C4230 1.379 . S
C4230 H4214 0.931 . S
C4230 C4224 1.383 . S
C4230 C4229 1.379 . S
H4231 C4225 0.959 . S
H4232 C4225 0.961 . S
H4233 C4225 0.960 . S
H4234 C4226 0.930 . S
H4235 C4227 0.929 . S
H4236 C4244 0.929 . S
H4237 C4246 0.930 . S
H4238 C4248 0.930 . S
H4239 C4251 0.929 . S
H4240 C4254 0.930 . S
H4241 C4256 0.960 . S
H4242 C4256 0.960 . S
H4243 C4256 0.960 . S
C4244 H4236 0.929 . S
C4244 C4245 1.377 . S
C4244 C4246 1.384 . S
C4245 C4244 1.377 . S
C4245 C4251 1.390 . S
C4246 H4237 0.930 . S
C4246 C4244 1.384 . S
C4246 C4247 1.372 . S
C4247 C4246 1.372 . S
C4247 C4248 1.400 . S
C4247 C4252 1.490 . S
C4248 H4238 0.930 . S
C4248 C4247 1.400 . S
C4248 C4251 1.386 . S
H4249 C4265 0.930 . S
H4250 C4266 0.931 . S
C4251 H4239 0.929 . S
C4251 C4245 1.390 . S
C4251 C4248 1.386 . S
C4252 C4247 1.490 . S
C4252 C4254 1.395 . S
C4252 C4255 1.403 . S
H4253 C4259 0.930 . S
C4254 H4240 0.930 . S
C4254 C4252 1.395 . S
C4254 C4257 1.403 . S
C4255 C4252 1.403 . S
C4255 C4256 1.524 . S
C4255 C4259 1.400 . S
C4256 H4241 0.960 . S
C4256 H4242 0.960 . S
C4256 H4243 0.960 . S
C4256 C4255 1.524 . S
C4257 C4254 1.403 . S
C4257 C4258 1.392 . S
C4257 C4261 1.495 . S
C4258 C4257 1.392 . S
C4258 C4259 1.385 . S
C4258 C4260 1.478 . S
C4259 H4253 0.930 . S
C4259 C4255 1.400 . S
C4259 C4258 1.385 . S
C4260 C4258 1.478 . S
C4260 C4262 1.381 . S
C4260 C4266 1.383 . S
C4261 C4257 1.495 . S
C4261 H4267 0.959 . S
C4261 H4268 0.961 . S
C4261 H4269 0.960 . S
C4262 C4260 1.381 . S
C4262 C4263 1.394 . S
C4262 H4270 0.930 . S
C4263 C4262 1.394 . S
C4263 C4264 1.383 . S
C4263 H4271 0.929 . S
C4264 C4263 1.383 . S
C4264 C4265 1.377 . S
C4265 H4249 0.930 . S
C4265 C4264 1.377 . S
C4265 C4266 1.379 . S
C4266 H4250 0.931 . S
C4266 C4260 1.383 . S
C4266 C4265 1.379 . S
H4267 C4261 0.959 . S
H4268 C4261 0.961 . S
H4269 C4261 0.960 . S
H4270 C4262 0.930 . S
H4271 C4263 0.929 . S
C844 C337 1.698 . S
C825 C5 1.734 . S
C861 C23 0.917 . S
C880 C382 0.932 . S
C897 C39 1.596 . S
C916 C406 1.579 . S
C952 N432 0.918 . S
C933 C42 0.908 . S
C969 C19 0.997 . S
C988 N462 1.001 . S
C1024 C496 1.513 . S
C1005 C28 1.530 . S
C1060 C532 1.015 . S
C1041 C53 1.027 . S
C1077 C9 1.658 . S
C1096 C556 1.629 . S
C1113 C65 0.893 . S
C1132 N350 0.886 . S
C1149 C75 0.990 . S
C1168 N372 0.991 . S
C1204 C412 0.983 . S
C1185 C93 0.981 . S
C1240 C436 1.644 . S
C1221 C109 1.682 . S
C1257 C56 1.155 . S
C1276 C466 1.124 . S
C1312 C502 0.933 . S
C1293 C81 0.919 . S
C1348 N522 0.984 . S
C1329 C84 0.984 . S
C1384 C562 1.616 . S
C1365 C103 1.623 . S
C1420 C363 1.507 . S
C1401 C107 1.536 . S
C1456 C592 0.944 . S
C1437 C121 0.932 . S
C1473 C131 1.044 . S
C1492 N612 1.049 . S
C1528 C646 1.537 . S
C1509 C140 1.547 . S
C1545 C61 0.854 . S
C1564 N552 0.848 . S
C1600 N402 0.923 1_565 S
C1581 C70 0.910 . S
C1617 C137 0.953 . S
C1636 C682 0.965 . S
C1672 C706 0.879 . S
C1653 C165 0.909 . S
C1689 C173 1.694 . S
C1708 C346 1.670 1_556 S
C1744 C723 0.842 . S
C1725 C182 0.873 . S
C1761 C207 1.561 . S
C1780 C397 1.549 . S
C1797 C219 0.892 . S
C1816 N680 0.896 . S
C1852 N470 0.959 . S
C1833 C187 0.963 . S
C1888 C607 1.482 . S
C1869 C205 1.513 . S
C1924 C543 0.978 . S
C1905 C221 0.999 . S
C1960 C727 1.577 . S
C1941 C168 1.618 . S
C1996 N342 0.855 . S
C1977 C224 0.854 . S
C2013 C243 0.947 . S
C2032 N710 0.948 . S
C2068 C423 0.931 . S
C2049 C252 0.911 . S
C2085 C277 1.640 . S
C2104 C667 1.627 . S
C2121 C233 1.160 . S
C2140 C457 1.148 1_655 S
C2157 C249 0.896 . S
C2176 C633 0.877 . S
C2212 N530 0.973 . S
C2193 C261 0.975 . S
C2229 C271 1.587 . S
C2248 C753 1.573 . S
C2265 C266 1.498 . S
C2284 C352 1.485 . S
C2301 C280 0.880 . S
C2320 C603 0.862 . S
C2337 C299 0.996 . S
C2356 N500 0.987 . S
C2373 C317 1.513 . S
C2392 C637 1.496 . S
C2428 N740 0.809 . S
C2409 C229 0.826 1_565 S
C2464 N410 0.903 . S
C2445 C247 0.913 . S
C2500 C453 0.903 . S
C2481 C305 0.917 . S
C2536 C367 0.901 . S
C2517 C333 0.892 . S
C2553 C33 1.733 . S
C2572 C757 1.717 . S
C2608 C712 0.914 . S
C2589 C51 0.918 . S
C2644 C796 1.585 . S
C2625 C11 1.596 . S
C2661 C14 0.908 1_655 S
C2680 N672 0.918 . S
C2697 C47 1.000 . S
C2716 N582 0.997 1_556 S
C2752 C616 1.509 . S
C2733 C0 1.529 . S
C2788 C652 1.031 . S
C2769 C25 1.030 . S
C2824 C736 1.639 . S
C2805 C37 1.661 . S
C2860 N770 0.905 . S
C2841 C163 0.897 . S
C2877 C117 0.985 1_556 S
C2896 N702 0.990 . S
C2913 C135 0.982 . S
C2932 C802 1.013 . S
C2968 C676 1.674 . S
C2949 C151 1.685 . S
C3004 C586 1.173 . S
C2985 C154 1.162 . S
C3021 C123 0.918 . S
C3040 C622 0.927 . S
C3076 N642 1.007 . S
C3057 C126 0.983 . S
C3093 C145 1.622 . S
C3112 C742 1.616 . S
C3148 C783 1.526 . S
C3129 C149 1.536 . S
C3184 C472 0.935 . S
C3165 C79 0.932 . S
C3220 N492 1.036 . S
C3201 C89 1.042 1_565 S
C3237 C98 1.543 . S
C3256 C526 1.513 . S
C3292 N732 0.834 . S
C3273 C159 0.854 . S
C3309 C112 0.913 . S
C3328 N792 0.928 . S
C3364 C442 0.963 . S
C3345 C95 0.952 . S
C3400 C376 0.882 . S
C3381 C67 0.909 . S
C3417 C201 1.694 . S
C3436 C766 1.650 . S
C3472 C393 0.842 . S
C3453 C210 0.866 . S
C3508 C787 1.545 1_556 S
C3489 C179 1.562 . S
C3525 C191 0.893 . S
C3544 N440 0.880 . S
C3561 C215 0.964 . S
C3580 N590 0.959 . S
C3597 C177 1.514 . S
C3616 C487 1.481 . S
C3633 C193 0.996 . S
C3652 C663 0.979 . S
C3669 C196 1.616 . S
C3688 C547 1.594 . S
C3724 N762 0.849 . S
C3705 C322 0.855 . S
C3741 C285 0.946 . S
C3760 N380 0.945 . S
C3796 C813 0.924 . S
C3777 C294 0.912 . S
C3813 C319 1.641 . S
C3832 C427 1.632 . S
C3849 C331 1.159 . S
C3868 C577 1.118 . S
C3904 C513 0.871 . S
C3885 C291 0.900 . S
C3921 C303 0.971 . S
C3940 N650 0.976 . S
C3976 C573 1.570 . S
C3957 C313 1.587 . S
C4012 C772 1.493 . S
C3993 C308 1.497 . S
C4048 C483 0.872 . S
C4029 C238 0.876 . S
C4065 C257 0.997 . S
C4084 N620 0.986 . S
C4120 C517 1.475 1_565 S
C4101 C275 1.515 . S
C4156 N560 0.841 . S
C4137 C327 0.825 . S
C4173 C289 0.912 . S
C4192 N800 0.912 . S
C4228 C693 0.900 . S
C4209 C263 0.918 . S
C4264 C697 0.862 . S
C4245 C235 0.898 . S
