# Generated by pormake.
# Topology ocu, (6,8)-cn, num edge types: 1
# Building blocks:
#     Node 0, Type 0, BuildingBlock: KUMBUR_clean_sbu_1, # of connection points: 6
#     Node 1, Type 0, BuildingBlock: KUMBUR_clean_sbu_1, # of connection points: 6
#     Node 2, Type 0, BuildingBlock: KUMBUR_clean_sbu_1, # of connection points: 6
#     Node 3, Type 0, BuildingBlock: KUMBUR_clean_sbu_1, # of connection points: 6
#     Node 4, Type 0, BuildingBlock: KUMBUR_clean_sbu_1, # of connection points: 6
#     Node 5, Type 0, BuildingBlock: KUMBUR_clean_sbu_1, # of connection points: 6
#     Node 6, Type 0, BuildingBlock: KUMBUR_clean_sbu_1, # of connection points: 6
#     Node 7, Type 0, BuildingBlock: KUMBUR_clean_sbu_1, # of connection points: 6
#     Node 8, Type 1, BuildingBlock: TAGTUT_clean_sbu_1, # of connection points: 8
#     Node 9, Type 1, BuildingBlock: TAGTUT_clean_sbu_1, # of connection points: 8
#     Node 10, Type 1, BuildingBlock: TAGTUT_clean_sbu_1, # of connection points: 8
#     Node 11, Type 1, BuildingBlock: TAGTUT_clean_sbu_1, # of connection points: 8
#     Node 12, Type 1, BuildingBlock: TAGTUT_clean_sbu_1, # of connection points: 8
#     Node 13, Type 1, BuildingBlock: TAGTUT_clean_sbu_1, # of connection points: 8
#     Edge 14, Type (0, 1), BuildingBlock: UVAHIK_clean_linker_0, # of connection points: 2
#     Edge 15, Type (0, 1), BuildingBlock: UVAHIK_clean_linker_0, # of connection points: 2
#     Edge 16, Type (0, 1), BuildingBlock: UVAHIK_clean_linker_0, # of connection points: 2
#     Edge 17, Type (0, 1), BuildingBlock: UVAHIK_clean_linker_0, # of connection points: 2
#     Edge 18, Type (0, 1), BuildingBlock: UVAHIK_clean_linker_0, # of connection points: 2
#     Edge 19, Type (0, 1), BuildingBlock: UVAHIK_clean_linker_0, # of connection points: 2
#     Edge 20, Type (0, 1), BuildingBlock: UVAHIK_clean_linker_0, # of connection points: 2
#     Edge 21, Type (0, 1), BuildingBlock: UVAHIK_clean_linker_0, # of connection points: 2
#     Edge 22, Type (0, 1), BuildingBlock: UVAHIK_clean_linker_0, # of connection points: 2
#     Edge 23, Type (0, 1), BuildingBlock: UVAHIK_clean_linker_0, # of connection points: 2
#     Edge 24, Type (0, 1), BuildingBlock: UVAHIK_clean_linker_0, # of connection points: 2
#     Edge 25, Type (0, 1), BuildingBlock: UVAHIK_clean_linker_0, # of connection points: 2
#     Edge 26, Type (0, 1), BuildingBlock: UVAHIK_clean_linker_0, # of connection points: 2
#     Edge 27, Type (0, 1), BuildingBlock: UVAHIK_clean_linker_0, # of connection points: 2
#     Edge 28, Type (0, 1), BuildingBlock: UVAHIK_clean_linker_0, # of connection points: 2
#     Edge 29, Type (0, 1), BuildingBlock: UVAHIK_clean_linker_0, # of connection points: 2
#     Edge 30, Type (0, 1), BuildingBlock: UVAHIK_clean_linker_0, # of connection points: 2
#     Edge 31, Type (0, 1), BuildingBlock: UVAHIK_clean_linker_0, # of connection points: 2
#     Edge 32, Type (0, 1), BuildingBlock: UVAHIK_clean_linker_0, # of connection points: 2
#     Edge 33, Type (0, 1), BuildingBlock: UVAHIK_clean_linker_0, # of connection points: 2
#     Edge 34, Type (0, 1), BuildingBlock: UVAHIK_clean_linker_0, # of connection points: 2
#     Edge 35, Type (0, 1), BuildingBlock: UVAHIK_clean_linker_0, # of connection points: 2
#     Edge 36, Type (0, 1), BuildingBlock: UVAHIK_clean_linker_0, # of connection points: 2
#     Edge 37, Type (0, 1), BuildingBlock: UVAHIK_clean_linker_0, # of connection points: 2
#     Edge 38, Type (0, 1), BuildingBlock: UVAHIK_clean_linker_0, # of connection points: 2
#     Edge 39, Type (0, 1), BuildingBlock: UVAHIK_clean_linker_0, # of connection points: 2
#     Edge 40, Type (0, 1), BuildingBlock: UVAHIK_clean_linker_0, # of connection points: 2
#     Edge 41, Type (0, 1), BuildingBlock: UVAHIK_clean_linker_0, # of connection points: 2
#     Edge 42, Type (0, 1), BuildingBlock: UVAHIK_clean_linker_0, # of connection points: 2
#     Edge 43, Type (0, 1), BuildingBlock: UVAHIK_clean_linker_0, # of connection points: 2
#     Edge 44, Type (0, 1), BuildingBlock: UVAHIK_clean_linker_0, # of connection points: 2
#     Edge 45, Type (0, 1), BuildingBlock: UVAHIK_clean_linker_0, # of connection points: 2
#     Edge 46, Type (0, 1), BuildingBlock: UVAHIK_clean_linker_0, # of connection points: 2
#     Edge 47, Type (0, 1), BuildingBlock: UVAHIK_clean_linker_0, # of connection points: 2
#     Edge 48, Type (0, 1), BuildingBlock: UVAHIK_clean_linker_0, # of connection points: 2
#     Edge 49, Type (0, 1), BuildingBlock: UVAHIK_clean_linker_0, # of connection points: 2
#     Edge 50, Type (0, 1), BuildingBlock: UVAHIK_clean_linker_0, # of connection points: 2
#     Edge 51, Type (0, 1), BuildingBlock: UVAHIK_clean_linker_0, # of connection points: 2
#     Edge 52, Type (0, 1), BuildingBlock: UVAHIK_clean_linker_0, # of connection points: 2
#     Edge 53, Type (0, 1), BuildingBlock: UVAHIK_clean_linker_0, # of connection points: 2
#     Edge 54, Type (0, 1), BuildingBlock: UVAHIK_clean_linker_0, # of connection points: 2
#     Edge 55, Type (0, 1), BuildingBlock: UVAHIK_clean_linker_0, # of connection points: 2
#     Edge 56, Type (0, 1), BuildingBlock: UVAHIK_clean_linker_0, # of connection points: 2
#     Edge 57, Type (0, 1), BuildingBlock: UVAHIK_clean_linker_0, # of connection points: 2
#     Edge 58, Type (0, 1), BuildingBlock: UVAHIK_clean_linker_0, # of connection points: 2
#     Edge 59, Type (0, 1), BuildingBlock: UVAHIK_clean_linker_0, # of connection points: 2
#     Edge 60, Type (0, 1), BuildingBlock: UVAHIK_clean_linker_0, # of connection points: 2
#     Edge 61, Type (0, 1), BuildingBlock: UVAHIK_clean_linker_0, # of connection points: 2
# Relax obj value: 0.057
# Max RMSD: 0.173
# Mean RMSD: 0.096
data_MOF--net-ocu--node1-KUMBUR_clean_sbu_1--node2-TAGTUT_clean_sbu_1--edge1-UVAHIK_clean_linker_0
_symmetry_space_group_name_H-M    P1
_symmetry_Int_Tables_number       1
_symmetry_cell_setting            triclinic
loop_
_symmetry_equiv_pos_as_xyz
'x, y, z'
_cell_length_a     50.688726
_cell_length_b     48.494134
_cell_length_c     54.02473
_cell_angle_alpha  98.524022
_cell_angle_beta   83.306571
_cell_angle_gamma 109.72993
loop_
_atom_site_label
_atom_site_type_symbol
_atom_site_fract_x
_atom_site_fract_y
_atom_site_fract_z
_atom_type_partial_charge
Tb0 Tb 0.2352 0.2481 0.2236 0.0
C1 C 0.30042 0.31455 0.31125 0.0
N2 N 0.31025 0.30409 0.28855 0.0
C3 C 0.34484 0.35185 0.28502 0.0
C4 C 0.31146 0.34444 0.32108 0.0
C5 C 0.33356 0.3219 0.27632 0.0
C6 C 0.33335 0.36333 0.30723 0.0
C7 C 0.27142 0.30395 0.34997 0.0
C8 C 0.28072 0.29471 0.32557 0.0
C9 C 0.28124 0.33395 0.35933 0.0
C10 C 0.30117 0.35418 0.34488 0.0
Tb11 Tb 0.28839 0.25478 0.27609 0.0
N12 N 0.27118 0.26602 0.31569 0.0
C13 C 0.25304 0.2826 0.36438 0.0
C14 C 0.2546 0.24485 0.33006 0.0
C15 C 0.24497 0.25285 0.35451 0.0
H16 H 0.34409 0.31322 0.26009 0.0
H17 H 0.23132 0.23611 0.36569 0.0
H18 H 0.1956 0.1784 0.22285 0.0
H19 H 0.29119 0.31139 0.14797 0.0
H20 H 0.24863 0.22192 0.32247 0.0
H21 H 0.24547 0.28877 0.38326 0.0
H22 H 0.26608 0.30423 0.18973 0.0
H23 H 0.36279 0.36593 0.27484 0.0
H24 H 0.27408 0.34161 0.37792 0.0
H25 H 0.30919 0.37712 0.35261 0.0
H26 H 0.18652 0.13271 0.19307 0.0
H27 H 0.34243 0.38644 0.3141 0.0
H28 H 0.29184 0.26801 0.11762 0.0
N29 N 0.22561 0.20482 0.1977 0.0
C30 C 0.23803 0.20633 0.17406 0.0
C31 C 0.20125 0.15324 0.18757 0.0
C32 C 0.23361 0.18096 0.15649 0.0
C33 C 0.20648 0.17906 0.20441 0.0
C34 C 0.21515 0.1541 0.16361 0.0
N35 N 0.25645 0.25766 0.18455 0.0
C36 C 0.26784 0.28529 0.17726 0.0
C37 C 0.26734 0.23649 0.14293 0.0
C38 C 0.2546 0.23366 0.16746 0.0
C39 C 0.28169 0.26483 0.13625 0.0
C40 C 0.28142 0.28937 0.15335 0.0
H41 H 0.21111 0.13407 0.15064 0.0
H42 H 0.24458 0.16409 0.11867 0.0
H43 H 0.27416 0.21278 0.10677 0.0
O44 O 0.21145 0.26261 0.20134 0.0
O45 O 0.25784 0.21521 0.22065 0.0
O46 O 0.30053 0.24002 0.23728 0.0
O47 O 0.19237 0.24057 0.23434 0.0
O48 O 0.27059 0.28948 0.23013 0.0
O49 O 0.30635 0.27574 0.24175 0.0
O50 O 0.29535 0.21812 0.28739 0.0
O51 O 0.24908 0.2656 0.28656 0.0
O52 O 0.24459 0.28626 0.25267 0.0
O53 O 0.32559 0.26117 0.29317 0.0
O54 O 0.25387 0.21292 0.27004 0.0
O55 O 0.21694 0.22295 0.25575 0.0
C56 C 0.28509 0.21993 0.22083 0.0
C57 C 0.16113 0.25522 0.21189 0.0
C58 C 0.13104 0.2731 0.19029 0.0
C59 C 0.10787 0.25816 0.20577 0.0
C60 C 0.13744 0.24056 0.22692 0.0
C61 C 0.11109 0.24209 0.22387 0.0
C62 C 0.15786 0.27172 0.19358 0.0
C63 C 0.29738 0.29208 0.22953 0.0
C64 C 0.18881 0.25298 0.21581 0.0
C65 C 0.24737 0.18338 0.13238 0.0
C66 C 0.26429 0.2111 0.12564 0.0
C67 C 0.24 0.28378 0.27682 0.0
C68 C 0.34292 0.22116 0.28592 0.0
C69 C 0.37461 0.19518 0.29359 0.0
C70 C 0.38712 0.199 0.26908 0.0
C71 C 0.3558 0.22466 0.26168 0.0
C72 C 0.3523 0.20639 0.30182 0.0
C73 C 0.37769 0.21351 0.2533 0.0
C74 C 0.22678 0.20811 0.2689 0.0
C75 C 0.32008 0.23336 0.2949 0.0
H76 H 0.08713 0.25917 0.20409 0.0
H77 H 0.13922 0.2278 0.24112 0.0
H78 H 0.09304 0.23076 0.23564 0.0
H79 H 0.17594 0.28308 0.18182 0.0
H80 H 0.40463 0.19128 0.26219 0.0
H81 H 0.34912 0.23631 0.24937 0.0
H82 H 0.3421 0.20355 0.32048 0.0
H83 H 0.38761 0.21641 0.23457 0.0
Tb84 Tb 0.73183 0.27547 0.24696 0.0
C85 C 0.83305 0.24162 0.2019 0.0
N86 N 0.80719 0.22323 0.20882 0.0
C87 C 0.8065 0.19367 0.16889 0.0
C88 C 0.84603 0.23763 0.17771 0.0
C89 C 0.7948 0.19829 0.19327 0.0
C90 C 0.83197 0.21378 0.16088 0.0
C91 C 0.87491 0.28179 0.21405 0.0
C92 C 0.84731 0.2634 0.2197 0.0
C93 C 0.88746 0.27883 0.18965 0.0
C94 C 0.873 0.25686 0.17148 0.0
Tb95 Tb 0.78967 0.23451 0.24879 0.0
N96 N 0.83412 0.26629 0.24279 0.0
C97 C 0.88901 0.30243 0.23317 0.0
C98 C 0.84819 0.28526 0.26189 0.0
C99 C 0.8757 0.3039 0.25728 0.0
H100 H 0.77612 0.1815 0.19963 0.0
H101 H 0.88662 0.31938 0.2723 0.0
H102 H 0.72689 0.30599 0.30499 0.0
H103 H 0.65171 0.20171 0.18756 0.0
H104 H 0.83794 0.28626 0.28054 0.0
H105 H 0.91025 0.317 0.22961 0.0
H106 H 0.69697 0.2401 0.19616 0.0
H107 H 0.79614 0.1743 0.15646 0.0
H108 H 0.90849 0.29308 0.18477 0.0
H109 H 0.88317 0.25437 0.1529 0.0
H110 H 0.69167 0.29919 0.34143 0.0
H111 H 0.84117 0.20994 0.1421 0.0
H112 H 0.61634 0.18508 0.22257 0.0
N113 N 0.70089 0.27063 0.28144 0.0
C114 C 0.67507 0.25032 0.27858 0.0
C115 C 0.68683 0.28512 0.32391 0.0
C116 C 0.65442 0.24547 0.29874 0.0
C117 C 0.70673 0.28887 0.30334 0.0
C118 C 0.66069 0.26302 0.32172 0.0
N119 N 0.68933 0.24212 0.23591 0.0
C120 C 0.68259 0.23171 0.21174 0.0
C121 C 0.64255 0.21421 0.25103 0.0
C122 C 0.66933 0.23501 0.25509 0.0
C123 C 0.63664 0.20121 0.22652 0.0
C124 C 0.65657 0.21047 0.20673 0.0
H125 H 0.64538 0.26005 0.3377 0.0
H126 H 0.6121 0.21928 0.3105 0.0
H127 H 0.60168 0.19186 0.26865 0.0
O128 O 0.7068 0.29592 0.23212 0.0
O129 O 0.72864 0.24712 0.27619 0.0
O130 O 0.74535 0.20979 0.25774 0.0
O131 O 0.74331 0.32158 0.25277 0.0
O132 O 0.74103 0.24794 0.21307 0.0
O133 O 0.7529 0.2108 0.22683 0.0
O134 O 0.80131 0.22572 0.28215 0.0
O135 O 0.80094 0.27978 0.2389 0.0
O136 O 0.76528 0.28034 0.21686 0.0
O137 O 0.80684 0.2002 0.24733 0.0
O138 O 0.78149 0.26167 0.28307 0.0
O139 O 0.76663 0.29828 0.27136 0.0
C140 C 0.72734 0.21932 0.27315 0.0
C141 C 0.71764 0.34987 0.23864 0.0
C142 C 0.6942 0.37827 0.2205 0.0
C143 C 0.7083 0.40332 0.23658 0.0
C144 C 0.73167 0.37548 0.25399 0.0
C145 C 0.72692 0.40191 0.25299 0.0
C146 C 0.69881 0.35131 0.22187 0.0
C147 C 0.74214 0.22083 0.21039 0.0
C148 C 0.72237 0.32191 0.24115 0.0
C149 C 0.62817 0.22369 0.29516 0.0
C150 C 0.62227 0.20802 0.27134 0.0
C151 C 0.79219 0.28721 0.21979 0.0
C152 C 0.80046 0.17727 0.28427 0.0
C153 C 0.81253 0.1442 0.30772 0.0
C154 C 0.78373 0.12831 0.31129 0.0
C155 C 0.77192 0.16103 0.28794 0.0
C156 C 0.82072 0.16867 0.29398 0.0
C157 C 0.76364 0.13662 0.30136 0.0
C158 C 0.77871 0.28815 0.28678 0.0
C159 C 0.80947 0.20393 0.27131 0.0
H160 H 0.70472 0.42414 0.23678 0.0
H161 H 0.74606 0.37503 0.26714 0.0
H162 H 0.73758 0.4214 0.26517 0.0
H163 H 0.68815 0.33171 0.20979 0.0
H164 H 0.77675 0.10929 0.32162 0.0
H165 H 0.75611 0.16737 0.28061 0.0
H166 H 0.84277 0.18148 0.29139 0.0
H167 H 0.74155 0.1242 0.3042 0.0
Tb168 Tb 0.76285 0.72123 0.27134 0.0
C169 C 0.81634 0.80239 0.18196 0.0
N170 N 0.80429 0.81048 0.20446 0.0
C171 C 0.84031 0.85788 0.20703 0.0
C172 C 0.84147 0.82149 0.17153 0.0
C173 C 0.81526 0.83831 0.21654 0.0
C174 C 0.85368 0.84931 0.18461 0.0
C175 C 0.81395 0.7667 0.14489 0.0
C176 C 0.80278 0.77536 0.16873 0.0
C177 C 0.83947 0.78524 0.13484 0.0
C178 C 0.85319 0.81255 0.14813 0.0
Tb179 Tb 0.76381 0.77588 0.21773 0.0
N180 N 0.77843 0.75759 0.17923 0.0
C181 C 0.7989 0.73986 0.13175 0.0
C182 C 0.76269 0.73242 0.16578 0.0
C183 C 0.77297 0.72286 0.1421 0.0
H184 H 0.8046 0.84571 0.23339 0.0
H185 H 0.76086 0.70245 0.13181 0.0
H186 H 0.72862 0.65074 0.25166 0.0
H187 H 0.7604 0.78309 0.3627 0.0
H188 H 0.74258 0.71949 0.17359 0.0
H189 H 0.80682 0.73239 0.1134 0.0
H190 H 0.78071 0.77185 0.32007 0.0
H191 H 0.84913 0.87971 0.21686 0.0
H192 H 0.84853 0.77888 0.11664 0.0
H193 H 0.8726 0.82685 0.13991 0.0
H194 H 0.68573 0.61186 0.26523 0.0
H195 H 0.87297 0.86462 0.17721 0.0
H196 H 0.71474 0.74928 0.37815 0.0
N197 N 0.72454 0.68262 0.28228 0.0
C198 C 0.71073 0.68755 0.3047 0.0
C199 C 0.69235 0.63316 0.27637 0.0
C200 C 0.6866 0.66566 0.31355 0.0
C201 C 0.71646 0.65538 0.26861 0.0
C202 C 0.67711 0.63845 0.29877 0.0
N203 N 0.7459 0.73387 0.31082 0.0
C204 C 0.76053 0.75759 0.32646 0.0
C205 C 0.70984 0.71887 0.344 0.0
C206 C 0.72203 0.71384 0.31965 0.0
C207 C 0.72344 0.74457 0.35934 0.0
C208 C 0.74918 0.76375 0.35067 0.0
H209 H 0.65863 0.62107 0.30489 0.0
H210 H 0.65469 0.65479 0.34424 0.0
H211 H 0.67513 0.70136 0.37096 0.0
O212 O 0.80153 0.73273 0.28728 0.0
O213 O 0.73894 0.75295 0.28226 0.0
O214 O 0.7487 0.7904 0.25572 0.0
O215 O 0.77431 0.68788 0.28371 0.0
O216 O 0.79582 0.75811 0.2562 0.0
O217 O 0.78757 0.7991 0.25006 0.0
O218 O 0.72766 0.76713 0.19844 0.0
O219 O 0.78896 0.74492 0.20914 0.0
O220 O 0.77384 0.70455 0.2328 0.0
O221 O 0.75577 0.81134 0.20538 0.0
O222 O 0.72886 0.74085 0.23303 0.0
O223 O 0.7373 0.69981 0.23953 0.0
C224 C 0.73704 0.77798 0.27645 0.0
C225 C 0.82299 0.69592 0.28108 0.0
C226 C 0.85988 0.67738 0.2898 0.0
C227 C 0.86869 0.67623 0.26405 0.0
C228 C 0.83248 0.69505 0.25566 0.0
C229 C 0.85514 0.68515 0.2472 0.0
C230 C 0.83684 0.68735 0.29811 0.0
C231 C 0.79904 0.78593 0.26297 0.0
C232 C 0.79872 0.70573 0.2901 0.0
C233 C 0.6734 0.67123 0.33721 0.0
C234 C 0.68504 0.69775 0.35244 0.0
C235 C 0.78803 0.71824 0.21344 0.0
C236 C 0.70767 0.80515 0.20515 0.0
C237 C 0.67372 0.82744 0.19624 0.0
C238 C 0.66301 0.82684 0.22142 0.0
C239 C 0.69611 0.80399 0.23001 0.0
C240 C 0.69614 0.8165 0.18817 0.0
C241 C 0.67404 0.81497 0.23813 0.0
C242 C 0.72474 0.71273 0.22739 0.0
C243 C 0.73182 0.7948 0.1969 0.0
H244 H 0.88583 0.66807 0.25679 0.0
H245 H 0.82241 0.70202 0.24241 0.0
H246 H 0.86216 0.68426 0.22747 0.0
H247 H 0.82977 0.68877 0.31783 0.0
H248 H 0.64573 0.83505 0.22803 0.0
H249 H 0.70406 0.79455 0.24314 0.0
H250 H 0.70478 0.81718 0.16886 0.0
H251 H 0.66541 0.81418 0.25741 0.0
Tb252 Tb 0.25196 0.77767 0.23757 0.0
C253 C 0.2601 0.67933 0.2921 0.0
N254 N 0.27874 0.7069 0.29126 0.0
C255 C 0.28167 0.71239 0.3358 0.0
C256 C 0.25026 0.66767 0.31507 0.0
C257 C 0.29069 0.72301 0.31248 0.0
C258 C 0.26099 0.68481 0.33716 0.0
C259 C 0.234 0.63304 0.26945 0.0
C260 C 0.25212 0.6624 0.26964 0.0
C261 C 0.22256 0.62182 0.29231 0.0
C262 C 0.23071 0.63911 0.31511 0.0
Tb263 Tb 0.29097 0.72285 0.25262 0.0
N264 N 0.26416 0.67391 0.24804 0.0
C265 C 0.22904 0.6155 0.24635 0.0
C266 C 0.26159 0.65598 0.22577 0.0
C267 C 0.24341 0.62684 0.22447 0.0
H268 H 0.3066 0.74434 0.3114 0.0
H269 H 0.2408 0.61305 0.20664 0.0
H270 H 0.20568 0.73841 0.19569 0.0
H271 H 0.33359 0.88254 0.23085 0.0
H272 H 0.27351 0.66405 0.20891 0.0
H273 H 0.21525 0.59281 0.24534 0.0
H274 H 0.29871 0.84264 0.25273 0.0
H275 H 0.29058 0.72551 0.35269 0.0
H276 H 0.20826 0.59944 0.29256 0.0
H277 H 0.22248 0.62987 0.33259 0.0
H278 H 0.20412 0.73064 0.14968 0.0
H279 H 0.25397 0.67667 0.35523 0.0
H280 H 0.33798 0.87811 0.1844 0.0
N281 N 0.24617 0.77114 0.19524 0.0
C282 C 0.26583 0.79034 0.18123 0.0
C283 C 0.22191 0.74721 0.15824 0.0
C284 C 0.26528 0.78776 0.15495 0.0
C285 C 0.2232 0.75121 0.18432 0.0
C286 C 0.24342 0.76515 0.1434 0.0
N287 N 0.2841 0.81598 0.21892 0.0
C288 C 0.30041 0.84079 0.23245 0.0
C289 C 0.30483 0.83594 0.18027 0.0
C290 C 0.28518 0.81403 0.19358 0.0
C291 C 0.32268 0.86067 0.1939 0.0
C292 C 0.3202 0.86328 0.22013 0.0
H293 H 0.24221 0.76231 0.12324 0.0
H294 H 0.28601 0.80673 0.12103 0.0
H295 H 0.3208 0.849 0.14329 0.0
O296 O 0.24353 0.81192 0.26167 0.0
O297 O 0.29695 0.78408 0.22967 0.0
O298 O 0.3005 0.73904 0.21572 0.0
O299 O 0.21634 0.78903 0.23243 0.0
O300 O 0.27051 0.78911 0.27402 0.0
O301 O 0.30659 0.76864 0.27038 0.0
O302 O 0.31581 0.69558 0.25111 0.0
O303 O 0.25898 0.73345 0.27986 0.0
O304 O 0.22593 0.74025 0.25783 0.0
O305 O 0.3347 0.74263 0.25435 0.0
O306 O 0.26992 0.71294 0.21745 0.0
O307 O 0.23223 0.73005 0.22674 0.0
C308 C 0.30769 0.76718 0.21354 0.0
C309 C 0.1964 0.80635 0.27124 0.0
C310 C 0.18006 0.82693 0.31162 0.0
C311 C 0.15509 0.80269 0.31105 0.0
C312 C 0.17144 0.7822 0.27084 0.0
C313 C 0.15079 0.78056 0.29066 0.0
C314 C 0.20034 0.82864 0.29146 0.0
C315 C 0.29441 0.7882 0.28077 0.0
C316 C 0.22001 0.80815 0.25233 0.0
C317 C 0.28581 0.80855 0.14128 0.0
C318 C 0.30554 0.83268 0.15395 0.0
C319 C 0.23275 0.7297 0.27638 0.0
C320 C 0.35797 0.71474 0.22739 0.0
C321 C 0.36385 0.70042 0.18236 0.0
C322 C 0.393 0.70818 0.18453 0.0
C323 C 0.38692 0.72249 0.22921 0.0
C324 C 0.34672 0.70453 0.20396 0.0
C325 C 0.40439 0.7194 0.20775 0.0
C326 C 0.24395 0.71106 0.21451 0.0
C327 C 0.33915 0.71747 0.24963 0.0
H328 H 0.1389 0.80088 0.32627 0.0
H329 H 0.16808 0.76447 0.25556 0.0
H330 H 0.13158 0.76192 0.29039 0.0
H331 H 0.22 0.84683 0.29197 0.0
H332 H 0.407 0.70478 0.16854 0.0
H333 H 0.39592 0.73076 0.24716 0.0
H334 H 0.32438 0.69934 0.20274 0.0
H335 H 0.42678 0.72516 0.20918 0.0
Tb336 Tb 0.23557 0.77527 0.74475 0.0
C337 C 0.33351 0.73628 0.70085 0.0
N338 N 0.30751 0.7187 0.70834 0.0
C339 C 0.3056 0.68774 0.66905 0.0
C340 C 0.34595 0.73122 0.67663 0.0
C341 C 0.29445 0.69342 0.69345 0.0
C342 C 0.3312 0.70708 0.66039 0.0
C343 C 0.37618 0.77592 0.71189 0.0
C344 C 0.34845 0.7583 0.71814 0.0
C345 C 0.3882 0.77194 0.68741 0.0
C346 C 0.37306 0.74968 0.66978 0.0
Tb347 Tb 0.29087 0.73174 0.7482 0.0
N348 N 0.33577 0.76219 0.74131 0.0
C349 C 0.39095 0.79682 0.73052 0.0
C350 C 0.3505 0.78136 0.75998 0.0
C351 C 0.37817 0.79926 0.75477 0.0
H352 H 0.27562 0.67724 0.70036 0.0
H353 H 0.38961 0.81495 0.76941 0.0
H354 H 0.23036 0.80761 0.80204 0.0
H355 H 0.15513 0.70359 0.68466 0.0
H356 H 0.3406 0.78318 0.77871 0.0
H357 H 0.41232 0.81082 0.72649 0.0
H358 H 0.20111 0.74046 0.6936 0.0
H359 H 0.29469 0.66813 0.65712 0.0
H360 H 0.40932 0.78558 0.68207 0.0
H361 H 0.38283 0.74637 0.65115 0.0
H362 H 0.19443 0.80301 0.83787 0.0
H363 H 0.33997 0.70242 0.6416 0.0
H364 H 0.11872 0.68878 0.71932 0.0
N365 N 0.204 0.77234 0.77867 0.0
C366 C 0.17785 0.7528 0.77564 0.0
C367 C 0.18958 0.78857 0.82054 0.0
C368 C 0.15677 0.74921 0.79547 0.0
C369 C 0.20988 0.79107 0.80032 0.0
C370 C 0.16303 0.76722 0.81825 0.0
N371 N 0.19263 0.74331 0.73331 0.0
C372 C 0.18618 0.73283 0.70907 0.0
C373 C 0.14503 0.71737 0.74794 0.0
C374 C 0.17216 0.73722 0.75225 0.0
C375 C 0.13928 0.7042 0.72345 0.0
C376 C 0.15979 0.71245 0.70385 0.0
H377 H 0.14739 0.76522 0.83396 0.0
H378 H 0.11368 0.72488 0.80678 0.0
H379 H 0.10337 0.69692 0.7651 0.0
O380 O 0.21206 0.79703 0.72948 0.0
O381 O 0.23054 0.74741 0.77481 0.0
O382 O 0.24623 0.70873 0.75788 0.0
O383 O 0.24939 0.82151 0.74945 0.0
O384 O 0.24403 0.74627 0.71167 0.0
O385 O 0.25366 0.70859 0.72673 0.0
O386 O 0.30242 0.7234 0.78179 0.0
O387 O 0.30338 0.77692 0.73784 0.0
O388 O 0.26897 0.77822 0.71474 0.0
O389 O 0.30681 0.69663 0.74739 0.0
O390 O 0.28354 0.75983 0.78209 0.0
O391 O 0.26996 0.79707 0.76984 0.0
C392 C 0.22877 0.7195 0.77297 0.0
C393 C 0.22562 0.85122 0.73458 0.0
C394 C 0.20297 0.88047 0.7166 0.0
C395 C 0.21929 0.9058 0.7311 0.0
C396 C 0.24184 0.87708 0.74836 0.0
C397 C 0.23859 0.90408 0.74665 0.0
C398 C 0.20612 0.85298 0.71867 0.0
C399 C 0.24374 0.71874 0.70981 0.0
C400 C 0.22878 0.82273 0.73787 0.0
C401 C 0.13011 0.72832 0.79169 0.0
C402 C 0.12427 0.71235 0.76797 0.0
C403 C 0.29564 0.78411 0.71808 0.0
C404 C 0.30042 0.67481 0.78487 0.0
C405 C 0.31206 0.64209 0.80899 0.0
C406 C 0.28319 0.62655 0.81273 0.0
C407 C 0.27181 0.65896 0.7887 0.0
C408 C 0.32048 0.66622 0.79486 0.0
C409 C 0.26327 0.6349 0.80255 0.0
C410 C 0.28115 0.78647 0.78564 0.0
C411 C 0.30981 0.70099 0.77132 0.0
H412 H 0.21693 0.92711 0.73074 0.0
H413 H 0.25683 0.87642 0.76083 0.0
H414 H 0.25096 0.92379 0.75762 0.0
H415 H 0.19375 0.83317 0.7078 0.0
H416 H 0.27603 0.60778 0.82335 0.0
H417 H 0.25616 0.66532 0.78113 0.0
H418 H 0.34259 0.67877 0.79213 0.0
H419 H 0.24113 0.62275 0.80551 0.0
Tb420 Tb 0.25957 0.22096 0.77099 0.0
C421 C 0.31913 0.3064 0.68482 0.0
N422 N 0.30605 0.31307 0.70719 0.0
C423 C 0.3417 0.36055 0.71247 0.0
C424 C 0.34442 0.32641 0.67561 0.0
C425 C 0.31641 0.34017 0.72064 0.0
C426 C 0.35593 0.35353 0.68999 0.0
C427 C 0.31807 0.27318 0.64635 0.0
C428 C 0.3063 0.28006 0.67045 0.0
C429 C 0.34376 0.29257 0.63745 0.0
C430 C 0.35695 0.31909 0.65208 0.0
Tb431 Tb 0.26532 0.27751 0.71851 0.0
N432 N 0.28162 0.26161 0.67977 0.0
C433 C 0.30336 0.24732 0.63178 0.0
C434 C 0.26617 0.2376 0.66491 0.0
C435 C 0.27708 0.22969 0.64097 0.0
H436 H 0.30509 0.34632 0.7376 0.0
H437 H 0.2651 0.21021 0.62951 0.0
H438 H 0.22257 0.15103 0.75218 0.0
H439 H 0.2534 0.29095 0.85754 0.0
H440 H 0.24555 0.22464 0.6716 0.0
H441 H 0.31171 0.24122 0.61318 0.0
H442 H 0.27529 0.27659 0.81652 0.0
H443 H 0.35001 0.38182 0.72336 0.0
H444 H 0.35332 0.28755 0.61909 0.0
H445 H 0.37648 0.33411 0.64476 0.0
H446 H 0.17816 0.11435 0.76598 0.0
H447 H 0.37535 0.36951 0.68358 0.0
H448 H 0.20732 0.25826 0.87329 0.0
N449 N 0.21955 0.18437 0.78183 0.0
C450 C 0.20548 0.19094 0.80368 0.0
C451 C 0.18547 0.13592 0.77662 0.0
C452 C 0.18036 0.17039 0.81255 0.0
C453 C 0.21046 0.15692 0.7687 0.0
C454 C 0.17018 0.14278 0.79849 0.0
N455 N 0.24138 0.23704 0.80878 0.0
C456 C 0.25518 0.26235 0.82325 0.0
C457 C 0.20376 0.22507 0.84111 0.0
C458 C 0.21696 0.21793 0.8178 0.0
C459 C 0.21683 0.25192 0.8553 0.0
C460 C 0.24284 0.27046 0.84647 0.0
H461 H 0.15094 0.12638 0.80466 0.0
H462 H 0.14715 0.16234 0.84243 0.0
H463 H 0.16764 0.21021 0.86742 0.0
O464 O 0.29287 0.23049 0.79394 0.0
O465 O 0.23292 0.25039 0.77768 0.0
O466 O 0.25248 0.29274 0.75691 0.0
O467 O 0.26911 0.18559 0.78206 0.0
O468 O 0.29588 0.25645 0.75811 0.0
O469 O 0.28834 0.29802 0.75203 0.0
O470 O 0.22707 0.27069 0.70297 0.0
O471 O 0.28956 0.24585 0.70908 0.0
O472 O 0.27599 0.20642 0.73374 0.0
O473 O 0.25837 0.31351 0.70602 0.0
O474 O 0.22945 0.24025 0.72964 0.0
O475 O 0.2376 0.19933 0.73723 0.0
C476 C 0.23564 0.27797 0.77459 0.0
C477 C 0.31762 0.19678 0.78646 0.0
C478 C 0.3557 0.1817 0.79763 0.0
C479 C 0.37008 0.18872 0.77432 0.0
C480 C 0.33245 0.20372 0.76337 0.0
C481 C 0.35842 0.19952 0.7573 0.0
C482 C 0.32921 0.18554 0.8035 0.0
C483 C 0.30005 0.28446 0.76443 0.0
C484 C 0.29103 0.20302 0.79338 0.0
C485 C 0.16657 0.17778 0.83539 0.0
C486 C 0.17826 0.20504 0.84964 0.0
C487 C 0.29001 0.22 0.71426 0.0
C488 C 0.22843 0.30183 0.67276 0.0
C489 C 0.19919 0.31355 0.6457 0.0
C490 C 0.21641 0.30757 0.62472 0.0
C491 C 0.24579 0.29692 0.65158 0.0
C492 C 0.20528 0.31056 0.66977 0.0
C493 C 0.23966 0.2995 0.62771 0.0
C494 C 0.22675 0.21241 0.72353 0.0
C495 C 0.234 0.29777 0.69797 0.0
H496 H 0.39031 0.18567 0.76919 0.0
H497 H 0.32422 0.21291 0.75023 0.0
H498 H 0.36969 0.20493 0.73944 0.0
H499 H 0.31803 0.1806 0.82152 0.0
H500 H 0.21234 0.30996 0.60603 0.0
H501 H 0.26418 0.29132 0.65334 0.0
H502 H 0.19198 0.31487 0.68607 0.0
H503 H 0.25313 0.29549 0.61149 0.0
Tb504 Tb 0.7311 0.28048 0.74422 0.0
C505 C 0.76413 0.2104 0.80627 0.0
N506 N 0.78012 0.23609 0.79722 0.0
C507 C 0.79422 0.25689 0.83874 0.0
C508 C 0.76134 0.20758 0.83213 0.0
C509 C 0.7968 0.25829 0.81286 0.0
C510 C 0.77592 0.23166 0.84851 0.0
C511 C 0.73674 0.15865 0.79762 0.0
C512 C 0.75192 0.18623 0.78933 0.0
C513 C 0.73297 0.15604 0.82343 0.0
C514 C 0.74509 0.1805 0.84067 0.0
Tb515 Tb 0.78123 0.23554 0.7545 0.0
N516 N 0.75519 0.18978 0.76458 0.0
C517 C 0.72603 0.13454 0.77966 0.0
C518 C 0.74593 0.16614 0.74688 0.0
C519 C 0.73097 0.13823 0.75416 0.0
H520 H 0.8129 0.27671 0.80553 0.0
H521 H 0.72333 0.1196 0.74012 0.0
H522 H 0.71781 0.26371 0.68468 0.0
H523 H 0.75882 0.38707 0.80045 0.0
H524 H 0.75009 0.16884 0.72716 0.0
H525 H 0.71431 0.11293 0.78526 0.0
H526 H 0.73648 0.33316 0.79292 0.0
H527 H 0.80694 0.27497 0.85105 0.0
H528 H 0.72112 0.1351 0.83023 0.0
H529 H 0.7425 0.178 0.8605 0.0
H530 H 0.72963 0.28887 0.64616 0.0
H531 H 0.77431 0.23043 0.86851 0.0
H532 H 0.78041 0.41574 0.76473 0.0
N533 N 0.73957 0.30204 0.70809 0.0
C534 C 0.75315 0.33148 0.71002 0.0
C535 C 0.73659 0.30107 0.66398 0.0
C536 C 0.76043 0.34681 0.68872 0.0
C537 C 0.72992 0.28689 0.68575 0.0
C538 C 0.75245 0.33105 0.66538 0.0
N539 N 0.74783 0.33078 0.75361 0.0
C540 C 0.74672 0.34521 0.77726 0.0
C541 C 0.76992 0.37734 0.73697 0.0
C542 C 0.75777 0.3464 0.73372 0.0
C543 C 0.77122 0.39197 0.76138 0.0
C544 C 0.75903 0.37586 0.78158 0.0
H545 H 0.75759 0.34199 0.64852 0.0
H546 H 0.78047 0.38961 0.67548 0.0
H547 H 0.7888 0.41644 0.71782 0.0
O548 O 0.69792 0.29808 0.74911 0.0
O549 O 0.76593 0.27946 0.71595 0.0
O550 O 0.8015 0.27661 0.73736 0.0
O551 O 0.68986 0.25144 0.74052 0.0
O552 O 0.75289 0.29138 0.77911 0.0
O553 O 0.79488 0.28273 0.76848 0.0
O554 O 0.80569 0.21788 0.72701 0.0
O555 O 0.73524 0.21976 0.76161 0.0
O556 O 0.72616 0.26115 0.77919 0.0
O557 O 0.8159 0.22677 0.76543 0.0
O558 O 0.76319 0.22216 0.71779 0.0
O559 O 0.7235 0.23718 0.72201 0.0
C560 C 0.79276 0.28544 0.71889 0.0
C561 C 0.65941 0.26631 0.7709 0.0
C562 C 0.65097 0.27416 0.81635 0.0
C563 C 0.62452 0.2522 0.81464 0.0
C564 C 0.63293 0.24458 0.76939 0.0
C565 C 0.61562 0.23749 0.79124 0.0
C566 C 0.66842 0.28057 0.79441 0.0
C567 C 0.78009 0.29874 0.78088 0.0
C568 C 0.67893 0.27206 0.74851 0.0
C569 C 0.7743 0.37742 0.69163 0.0
C570 C 0.77907 0.39268 0.71575 0.0
C571 C 0.72139 0.23285 0.77857 0.0
C572 C 0.81868 0.18206 0.74271 0.0
C573 C 0.813 0.13453 0.71763 0.0
C574 C 0.80979 0.12125 0.73969 0.0
C575 C 0.81576 0.16858 0.76466 0.0
C576 C 0.81755 0.1649 0.71941 0.0
C577 C 0.81136 0.13832 0.76307 0.0
C578 C 0.73859 0.22074 0.71078 0.0
C579 C 0.81981 0.21301 0.74354 0.0
H580 H 0.61049 0.24687 0.83124 0.0
H581 H 0.62589 0.23284 0.75142 0.0
H582 H 0.59521 0.22065 0.79003 0.0
H583 H 0.6893 0.29654 0.79572 0.0
H584 H 0.8064 0.09787 0.73884 0.0
H585 H 0.81619 0.18116 0.78302 0.0
H586 H 0.81914 0.17514 0.70251 0.0
H587 H 0.80888 0.12801 0.78003 0.0
Tb588 Tb 0.73598 0.74595 0.72286 0.0
C589 C 0.7849 0.79065 0.82576 0.0
N590 N 0.79748 0.79336 0.80225 0.0
C591 C 0.82102 0.84482 0.81393 0.0
C592 C 0.78874 0.81533 0.84404 0.0
C593 C 0.81635 0.81965 0.79636 0.0
C594 C 0.80684 0.84275 0.83776 0.0
C595 C 0.75611 0.75871 0.85593 0.0
C596 C 0.76888 0.76279 0.83154 0.0
C597 C 0.75853 0.78339 0.87393 0.0
C598 C 0.77489 0.81165 0.86801 0.0
Tb599 Tb 0.78877 0.75108 0.77512 0.0
N600 N 0.76766 0.73952 0.81379 0.0
C601 C 0.74236 0.72988 0.86174 0.0
C602 C 0.7568 0.71144 0.82016 0.0
C603 C 0.74322 0.70613 0.84392 0.0
H604 H 0.82737 0.82122 0.77799 0.0
H605 H 0.73387 0.68375 0.84859 0.0
H606 H 0.68134 0.68563 0.73697 0.0
H607 H 0.79563 0.76938 0.63497 0.0
H608 H 0.75886 0.69308 0.80703 0.0
H609 H 0.73219 0.72575 0.88023 0.0
H610 H 0.7765 0.7815 0.67801 0.0
H611 H 0.8355 0.86578 0.80908 0.0
H612 H 0.74861 0.78074 0.8927 0.0
H613 H 0.77723 0.83039 0.88227 0.0
H614 H 0.66405 0.63333 0.72056 0.0
H615 H 0.81044 0.86228 0.85129 0.0
H616 H 0.78281 0.71731 0.61584 0.0
N617 N 0.7154 0.69684 0.70889 0.0
C618 C 0.72587 0.68761 0.686 0.0
C619 C 0.68185 0.64824 0.71089 0.0
C620 C 0.71571 0.65797 0.67529 0.0
C621 C 0.69232 0.67798 0.72052 0.0
C622 C 0.69397 0.63804 0.68844 0.0
N623 N 0.75439 0.73679 0.68325 0.0
C624 C 0.77115 0.7588 0.66978 0.0
C625 C 0.75582 0.70035 0.6481 0.0
C626 C 0.74555 0.70839 0.67247 0.0
C627 C 0.77446 0.72256 0.63467 0.0
C628 C 0.78179 0.75198 0.64541 0.0
H629 H 0.68555 0.61507 0.68088 0.0
H630 H 0.71945 0.62672 0.64303 0.0
H631 H 0.75466 0.66388 0.61924 0.0
O632 O 0.72889 0.78257 0.7117 0.0
O633 O 0.77546 0.73559 0.71236 0.0
O634 O 0.77992 0.71351 0.74536 0.0
O635 O 0.69862 0.73947 0.70603 0.0
O636 O 0.76997 0.78795 0.73044 0.0
O637 O 0.80691 0.77697 0.74348 0.0
O638 O 0.81322 0.73633 0.7965 0.0
O639 O 0.76587 0.78388 0.77912 0.0
O640 O 0.72342 0.75968 0.76182 0.0
O641 O 0.83162 0.75985 0.76412 0.0
O642 O 0.75349 0.70984 0.76769 0.0
O643 O 0.71764 0.72381 0.75659 0.0
C644 C 0.78434 0.71678 0.72134 0.0
C645 C 0.68136 0.77953 0.71321 0.0
C646 C 0.65005 0.80578 0.70535 0.0
C647 C 0.63741 0.80215 0.72983 0.0
C648 C 0.66836 0.77612 0.73742 0.0
C649 C 0.6466 0.78752 0.74571 0.0
C650 C 0.67225 0.79441 0.69726 0.0
C651 C 0.79703 0.7923 0.73092 0.0
C652 C 0.70413 0.76728 0.70427 0.0
C653 C 0.7268 0.64946 0.65144 0.0
C654 C 0.74679 0.67062 0.63785 0.0
C655 C 0.73869 0.77937 0.7786 0.0
C656 C 0.86375 0.74534 0.78544 0.0
C657 C 0.89492 0.72794 0.80604 0.0
C658 C 0.91768 0.74357 0.79052 0.0
C659 C 0.88702 0.76071 0.77034 0.0
C660 C 0.86777 0.72876 0.80327 0.0
C661 C 0.91371 0.75976 0.77288 0.0
C662 C 0.72671 0.70735 0.76859 0.0
C663 C 0.8357 0.74699 0.7821 0.0
H664 H 0.62002 0.81008 0.73662 0.0
H665 H 0.67486 0.76437 0.74976 0.0
H666 H 0.63661 0.78474 0.76442 0.0
H667 H 0.68258 0.7972 0.67864 0.0
H668 H 0.93865 0.74299 0.7918 0.0
H669 H 0.88466 0.77357 0.75648 0.0
H670 H 0.85002 0.71687 0.81508 0.0
H671 H 0.93144 0.77162 0.76107 0.0
C672 C 0.92317 0.03539 0.51058 0.0
C673 C 0.97652 0.04135 0.44403 0.0
C674 C 0.97344 0.93275 0.46456 0.0
Mg675 Mg 0.98823 0.05411 0.50025 0.0
O676 O 0.98044 0.01375 0.50121 0.0
Mg677 Mg 0.95085 0.98484 0.48035 0.0
Mg678 Mg 1.00988 0.9942 0.49563 0.0
O679 O 0.03943 0.97401 0.4914 0.0
Mg680 Mg 0.02011 0.93199 0.49847 0.0
Mg681 Mg 0.07155 0.0076 0.5125 0.0
C682 C 0.03951 0.05485 0.53064 0.0
C683 C 0.06418 0.03598 0.4631 0.0
O684 O 0.92114 0.01017 0.49817 0.0
O685 O 0.94695 0.0553 0.5148 0.0
O686 O 0.96239 0.01473 0.448 0.0
O687 O 0.99062 0.0599 0.46105 0.0
O688 O 0.02483 0.06902 0.52351 0.0
O689 O 0.03537 0.02732 0.52359 0.0
C690 C 0.95626 0.95341 0.52829 0.0
O691 O 0.98307 0.96517 0.52589 0.0
O692 O 0.94035 0.9573 0.5133 0.0
O693 O 0.06109 0.9647 0.48592 0.0
O694 O 0.05417 0.91753 0.4802 0.0
O695 O 0.05921 0.97825 0.5452 0.0
C696 C 0.07169 0.94358 0.48118 0.0
O697 O 0.02464 0.93456 0.53876 0.0
O698 O 0.98278 0.9175 0.47666 0.0
C699 C 0.04289 0.95378 0.55264 0.0
O700 O 0.98309 0.96093 0.46682 0.0
O701 O 0.03732 0.02381 0.46552 0.0
O702 O 0.08031 0.03324 0.47853 0.0
C703 C 0.44626 0.06515 0.04676 0.0
C704 C 0.47412 0.06065 0.96763 0.0
C705 C 0.46235 0.94754 0.97079 0.0
Mg706 Mg 0.50394 0.06837 0.01605 0.0
O707 O 0.49039 0.02738 0.0174 0.0
Mg708 Mg 0.45188 0.00591 0.00523 0.0
Mg709 Mg 0.51183 0.00168 -0.00207 0.0
O710 O 0.53328 0.97614 0.97825 0.0
Mg711 Mg 0.51995 0.93499 0.97775 0.0
Mg712 Mg 0.5718 0.99736 0.99018 0.0
C713 C 0.56139 0.05605 0.02444 0.0
C714 C 0.55633 0.03866 0.95548 0.0
O715 O 0.43526 0.03926 0.03487 0.0
O716 O 0.47252 0.07978 0.04315 0.0
O717 O 0.45735 0.03658 0.97502 0.0
O718 O 0.49565 0.07615 0.97952 0.0
O719 O 0.54722 0.0738 0.02462 0.0
O720 O 0.55112 0.0281 0.01783 0.0
C721 C 0.4668 0.96432 0.04009 0.0
O722 O 0.49177 0.97005 0.02916 0.0
O723 O 0.44919 0.9757 0.03435 0.0
O724 O 0.58857 0.96406 0.96029 0.0
O725 O 0.55123 0.92431 0.95032 0.0
O726 O 0.56597 0.9663 0.02044 0.0
C727 C 0.57763 0.93865 0.94758 0.0
O728 O 0.52872 0.92593 0.01337 0.0
O729 O 0.47656 0.9297 0.96981 0.0
C730 C 0.54926 0.94144 0.02644 0.0
O731 O 0.47271 0.97533 0.97791 0.0
O732 O 0.53164 0.03317 0.96686 0.0
O733 O 0.57426 0.0274 0.96073 0.0
C734 C 0.95133 0.56576 0.0418 0.0
C735 C 0.98137 0.56298 0.96396 0.0
C736 C 0.96453 0.44674 0.96779 0.0
Mg737 Mg 1.00915 0.56721 0.01289 0.0
O738 O 0.99376 0.52633 0.01367 0.0
Mg739 Mg 0.9557 0.50644 0.00015 0.0
Mg740 Mg 0.01462 0.49951 0.99582 0.0
O741 O 0.03511 0.47232 0.97805 0.0
Mg742 Mg 0.01935 0.43154 0.97933 0.0
Mg743 Mg 0.07335 0.49208 0.99088 0.0
C744 C 0.06446 0.55247 0.0239 0.0
C745 C 0.06147 0.53368 0.95404 0.0
O746 O 0.93979 0.54021 0.02959 0.0
O747 O 0.97783 0.57956 0.03894 0.0
O748 O 0.96356 0.53875 0.97021 0.0
O749 O 1.00267 0.57692 0.97663 0.0
O750 O 0.05124 0.57087 0.02315 0.0
O751 O 0.0535 0.52457 0.01729 0.0
C752 C 0.9667 0.463 0.03557 0.0
O753 O 0.99243 0.46905 0.02672 0.0
O754 O 0.94988 0.47457 0.02862 0.0
O755 O 0.08848 0.45745 0.96184 0.0
O756 O 0.05003 0.41839 0.95311 0.0
O757 O 0.06586 0.46068 0.0216 0.0
C758 C 0.07656 0.43184 0.94992 0.0
O759 O 0.02642 0.42266 0.01581 0.0
O760 O 0.97726 0.42799 0.96895 0.0
C761 C 0.04795 0.43666 0.02822 0.0
O762 O 0.976 0.47461 0.97406 0.0
O763 O 0.03662 0.52965 0.9647 0.0
O764 O 0.07824 0.52181 0.96063 0.0
C765 C 0.42231 0.53326 0.01232 0.0
C766 C 0.47703 0.54235 0.94661 0.0
C767 C 0.48268 0.43531 0.96146 0.0
Mg768 Mg 0.48736 0.55409 0.00308 0.0
O769 O 0.48048 0.5139 0.00366 0.0
Mg770 Mg 0.45219 0.48459 0.9816 0.0
Mg771 Mg 0.51141 0.49662 -0.00268 0.0
O772 O 0.54204 0.47876 0.99113 0.0
Mg773 Mg 0.53192 0.43868 0.99542 0.0
Mg774 Mg 0.56975 0.50803 0.01383 0.0
C775 C 0.53908 0.55788 0.03398 0.0
C776 C 0.56461 0.53968 0.96593 0.0
O777 O 0.42046 0.50837 -0.00072 0.0
O778 O 0.44575 0.55323 0.01733 0.0
O779 O 0.46343 0.51545 0.95002 0.0
O780 O 0.49036 0.56083 0.96406 0.0
O781 O 0.52323 0.5708 0.027 0.0
O782 O 0.53598 0.5306 0.02668 0.0
C783 C 0.45877 0.45285 0.02879 0.0
O784 O 0.48551 0.46555 0.02659 0.0
O785 O 0.44254 0.45639 0.0139 0.0
O786 O 0.60051 0.48211 -0.00171 0.0
O787 O 0.57319 0.43574 0.98534 0.0
O788 O 0.55682 0.47867 0.04628 0.0
C789 C 0.59726 0.45535 0.9888 0.0
O790 O 0.52637 0.4342 0.03521 0.0
O791 O 0.49721 0.42188 0.9699 0.0
C792 C 0.54129 0.45302 0.05156 0.0
O793 O 0.48662 0.46291 0.96785 0.0
O794 O 0.53772 0.52782 0.96817 0.0
O795 O 0.58051 0.53541 0.98078 0.0
C796 C 0.95141 0.57114 0.54496 0.0
C797 C 0.98108 0.56719 0.46545 0.0
C798 C 0.96347 0.45189 0.46887 0.0
Mg799 Mg 1.00881 0.57301 0.51494 0.0
O800 O 0.99384 0.53191 0.51465 0.0
Mg801 Mg 0.95535 0.51203 0.50227 0.0
Mg802 Mg 0.01405 0.50469 0.49609 0.0
O803 O 0.03426 0.4775 0.47752 0.0
Mg804 Mg 0.01927 0.43638 0.47679 0.0
Mg805 Mg 0.07259 0.49713 0.49023 0.0
C806 C 0.06444 0.55734 0.52342 0.0
C807 C 0.06118 0.53928 0.4537 0.0
O808 O 0.93984 0.54624 0.53183 0.0
O809 O 0.97799 0.58473 0.54239 0.0
O810 O 0.96351 0.54285 0.47164 0.0
O811 O 1.00148 0.58241 0.47881 0.0
O812 O 0.05139 0.57611 0.52363 0.0
O813 O 0.05311 0.52955 0.51674 0.0
C814 C 0.96732 0.47046 0.53879 0.0
O815 O 0.99221 0.47441 0.52805 0.0
O816 O 0.95065 0.48235 0.53208 0.0
O817 O 0.08824 0.46287 0.46079 0.0
O818 O 0.05011 0.42484 0.4493 0.0
O819 O 0.06416 0.46584 0.5207 0.0
C820 C 0.07676 0.43822 0.44729 0.0
O821 O 0.02637 0.42635 0.51271 0.0
O822 O 0.97667 0.4332 0.46836 0.0
C823 C 0.04657 0.44125 0.52638 0.0
O824 O 0.97479 0.47966 0.47563 0.0
O825 O 0.03612 0.5351 0.46415 0.0
O826 O 0.0777 0.52728 0.46055 0.0
C827 C 0.45588 0.07001 0.54239 0.0
C828 C 0.48224 0.06116 0.46318 0.0
C829 C 0.46477 0.9468 0.47285 0.0
Mg830 Mg 0.51238 0.06977 0.51192 0.0
O831 O 0.49689 0.02918 0.51465 0.0
Mg832 Mg 0.45813 0.00861 0.50295 0.0
Mg833 Mg 0.51635 0.00083 0.49742 0.0
O834 O 0.53579 0.97256 0.47999 0.0
Mg835 Mg 0.5204 0.93192 0.4821 0.0
Mg836 Mg 0.57476 0.99312 0.49099 0.0
C837 C 0.5682 0.05508 0.52144 0.0
C838 C 0.56097 0.03182 0.4529 0.0
O839 O 0.44382 0.04441 0.53059 0.0
O840 O 0.48244 0.08338 0.5391 0.0
O841 O 0.46491 0.03753 0.47094 0.0
O842 O 0.50379 0.07655 0.47512 0.0
O843 O 0.55535 0.07375 0.52039 0.0
O844 O 0.55638 0.02704 0.51657 0.0
C845 C 0.47076 0.96938 0.54136 0.0
O846 O 0.49553 0.97291 0.53059 0.0
O847 O 0.45401 0.98084 0.53414 0.0
O848 O 0.58883 0.95722 0.46305 0.0
O849 O 0.55011 0.91836 0.45472 0.0
O850 O 0.56821 0.96425 0.5231 0.0
C851 C 0.57665 0.93165 0.45125 0.0
O852 O 0.52927 0.92525 0.5187 0.0
O853 O 0.47747 0.92796 0.4737 0.0
C854 C 0.55072 0.94062 0.53076 0.0
O855 O 0.47671 0.97476 0.478 0.0
O856 O 0.53662 0.02847 0.4644 0.0
O857 O 0.57823 0.02054 0.45941 0.0
C858 C 0.21594 0.16855 0.29737 0.0
C859 C 0.20656 0.1864 0.28466 0.0
C860 C 0.19774 0.15034 0.31426 0.0
C861 C 0.13077 0.14084 0.3538 0.0
H862 H 0.14061 0.06727 0.36317 0.0
C863 C 0.06195 0.06173 0.42623 0.0
C864 C 0.07756 0.05254 0.44129 0.0
C865 C 0.07516 0.07693 0.40554 0.0
C866 C 0.13762 0.08779 0.3608 0.0
H867 H 0.17009 0.19801 0.2791 0.0
H868 H 0.13812 0.16561 0.30804 0.0
H869 H 0.16774 0.09478 0.32924 0.0
H870 H 0.11935 0.05201 0.4461 0.0
H871 H 0.14198 0.07795 0.41019 0.0
H872 H 0.10047 0.13352 0.38551 0.0
C873 C 0.15982 0.16626 0.30541 0.0
C874 C 0.15329 0.10368 0.3414 0.0
C875 C 0.17812 0.18465 0.28858 0.0
C876 C 0.10658 0.05881 0.43508 0.0
C877 C 0.1196 0.07351 0.41432 0.0
C878 C 0.11485 0.12472 0.37311 0.0
C879 C 0.16946 0.14912 0.31877 0.0
C880 C 0.15061 0.1308 0.33793 0.0
C881 C 0.10412 0.08271 0.39924 0.0
C882 C 0.11857 0.09835 0.37717 0.0
H883 H 0.23766 0.16921 0.29486 0.0
H884 H 0.20618 0.1379 0.32437 0.0
H885 H 0.12826 0.16172 0.35195 0.0
H886 H 0.0396 0.05725 0.43043 0.0
H887 H 0.06266 0.0837 0.39424 0.0
C888 C 0.82947 0.12906 0.34381 0.0
C889 C 0.83376 0.13556 0.31884 0.0
C890 C 0.84912 0.12064 0.35434 0.0
C891 C 0.90465 0.08683 0.33871 0.0
H892 H 0.92564 0.12041 0.40615 0.0
C893 C 0.97991 0.08322 0.42009 0.0
C894 C 0.97094 0.05266 0.42165 0.0
C895 C 0.96798 0.09478 0.40373 0.0
C896 C 0.92033 0.11104 0.38717 0.0
H897 H 0.86206 0.1381 0.28532 0.0
H898 H 0.89634 0.12297 0.30369 0.0
H899 H 0.89476 0.13806 0.38601 0.0
H900 H 0.94456 0.01017 0.40499 0.0
H901 H 0.92412 0.03034 0.37631 0.0
H902 H 0.92973 0.05924 0.34021 0.0
C903 C 0.87774 0.12453 0.31509 0.0
C904 C 0.90236 0.12096 0.37574 0.0
C905 C 0.85823 0.1334 0.30464 0.0
C906 C 0.95192 0.03382 0.40449 0.0
C907 C 0.94014 0.0454 0.38799 0.0
C908 C 0.9224 0.07661 0.3503 0.0
C909 C 0.87345 0.11815 0.34011 0.0
C910 C 0.89403 0.10877 0.35148 0.0
C911 C 0.94703 0.07608 0.38828 0.0
C912 C 0.93029 0.08845 0.37477 0.0
H913 H 0.81095 0.13072 0.35531 0.0
H914 H 0.84504 0.11564 0.37359 0.0
H915 H 0.89852 0.07689 0.32005 0.0
H916 H 0.99467 0.09848 0.43279 0.0
H917 H 0.97421 0.11849 0.40401 0.0
C918 C 0.80693 0.82415 0.30009 0.0
C919 C 0.81524 0.80232 0.28442 0.0
C920 C 0.82071 0.83777 0.32182 0.0
C921 C 0.8703 0.82916 0.36391 0.0
H922 H 0.8789 0.91098 0.38722 0.0
C923 C 0.93317 0.88859 0.44972 0.0
C924 C 0.95042 0.91784 0.44787 0.0
C925 C 0.91277 0.87432 0.43254 0.0
C926 C 0.87694 0.88817 0.38089 0.0
H927 H 0.84586 0.77945 0.27763 0.0
H928 H 0.87092 0.80419 0.31469 0.0
H929 H 0.85295 0.88723 0.35066 0.0
H930 H 0.95964 0.95518 0.42679 0.0
H931 H 0.92533 0.93019 0.39646 0.0
H932 H 0.89609 0.83074 0.39295 0.0
C933 C 0.85274 0.80964 0.31128 0.0
C934 C 0.86158 0.87434 0.36006 0.0
C935 C 0.83855 0.79559 0.28991 0.0
C936 C 0.94651 0.9327 0.42889 0.0
C937 C 0.92657 0.91835 0.41153 0.0
C938 C 0.88616 0.84317 0.3844 0.0
C939 C 0.84369 0.8305 0.32783 0.0
C940 C 0.85845 0.84477 0.35101 0.0
C941 C 0.90959 0.88885 0.4129 0.0
C942 C 0.89013 0.87303 0.39291 0.0
H943 H 0.78899 0.82973 0.29616 0.0
H944 H 0.81289 0.85346 0.33414 0.0
H945 H 0.86773 0.80613 0.35799 0.0
H946 H 0.93554 0.87669 0.46432 0.0
H947 H 0.89972 0.85181 0.43453 0.0
C948 C 0.19882 0.87994 0.32968 0.0
C949 C 0.18579 0.8501 0.33338 0.0
C950 C 0.20442 0.9018 0.35011 0.0
C951 C 0.2028 0.91378 0.42013 0.0
H952 H 0.16635 0.96997 0.41187 0.0
C953 C 0.11226 0.92565 0.47959 0.0
C954 C 0.10212 0.94887 0.47824 0.0
C955 C 0.13935 0.9273 0.46996 0.0
C956 C 0.17762 0.95543 0.41472 0.0
H957 H 0.16965 0.81969 0.36142 0.0
H958 H 0.1781 0.85788 0.39706 0.0
H959 H 0.18272 0.9438 0.37532 0.0
H960 H 0.11339 0.99382 0.46959 0.0
H961 H 0.1609 0.99664 0.45232 0.0
H962 H 0.19528 0.92373 0.45971 0.0
C963 C 0.18468 0.8644 0.37839 0.0
C964 C 0.18695 0.94017 0.39355 0.0
C965 C 0.1792 0.84252 0.35796 0.0
C966 C 0.12066 0.97539 0.47038 0.0
C967 C 0.14785 0.97701 0.46056 0.0
C968 C 0.19354 0.92918 0.44137 0.0
C969 C 0.19692 0.89434 0.37469 0.0
C970 C 0.19742 0.91744 0.3961 0.0
C971 C 0.15664 0.9521 0.45848 0.0
C972 C 0.17843 0.94804 0.43877 0.0
H973 H 0.2041 0.88651 0.31094 0.0
H974 H 0.21387 0.92464 0.34664 0.0
H975 H 0.21174 0.89708 0.4226 0.0
H976 H 0.09853 0.9052 0.48614 0.0
H977 H 0.14525 0.90765 0.46885 0.0
C978 C 0.18969 0.90888 0.68754 0.0
C979 C 0.18277 0.8834 0.69982 0.0
C980 C 0.17002 0.91377 0.67419 0.0
C981 C 0.10825 0.88015 0.63912 0.0
H982 H 0.09649 0.9558 0.65716 0.0
C983 C 0.03813 0.91614 0.58198 0.0
C984 C 0.04933 0.94541 0.57614 0.0
C985 C 0.04935 0.9068 0.60051 0.0
C986 C 0.09962 0.93466 0.65166 0.0
H987 H 0.14984 0.84225 0.70623 0.0
H988 H 0.11571 0.85041 0.68183 0.0
H989 H 0.12708 0.94202 0.68103 0.0
H990 H 0.07965 0.98829 0.58685 0.0
H991 H 0.09933 0.97211 0.6184 0.0
H992 H 0.08215 0.87338 0.60885 0.0
C993 C 0.13638 0.86679 0.68318 0.0
C994 C 0.11705 0.92673 0.66548 0.0
C995 C 0.15601 0.86207 0.69702 0.0
C996 C 0.0705 0.96553 0.59064 0.0
C997 C 0.08178 0.9562 0.60898 0.0
C998 C 0.09112 0.88829 0.62497 0.0
C999 C 0.14302 0.89307 0.6722 0.0
C1000 C 0.12202 0.89967 0.65907 0.0
C1001 C 0.07203 0.92648 0.61367 0.0
C1002 C 0.08706 0.916 0.63069 0.0
H1003 H 0.21031 0.9254 0.68849 0.0
H1004 H 0.17593 0.93391 0.66543 0.0
H1005 H 0.11181 0.85919 0.63373 0.0
H1006 H 0.02174 0.9 0.57133 0.0
H1007 H 0.04079 0.88392 0.60396 0.0
C1008 C 0.18477 0.20249 0.69945 0.0
C1009 C 0.20769 0.1946 0.70425 0.0
C1010 C 0.16783 0.18685 0.68002 0.0
C1011 C 0.15221 0.11755 0.63498 0.0
H1012 H 0.11555 0.15949 0.60265 0.0
C1013 C 0.06675 0.05578 0.56638 0.0
C1014 C 0.06177 0.07055 0.54789 0.0
C1015 C 0.0862 0.07081 0.5841 0.0
C1016 C 0.12599 0.1474 0.611 0.0
H1017 H 0.23105 0.16429 0.69272 0.0
H1018 H 0.2026 0.13794 0.65786 0.0
H1019 H 0.14661 0.1857 0.63521 0.0
H1020 H 0.07403 0.11223 0.5326 0.0
H1021 H 0.10939 0.1382 0.56244 0.0
H1022 H 0.13321 0.07977 0.60951 0.0
C1023 C 0.1968 0.15541 0.66956 0.0
C1024 C 0.14344 0.16241 0.63027 0.0
C1025 C 0.21323 0.17055 0.68952 0.0
C1026 C 0.07731 0.10043 0.54686 0.0
C1027 C 0.09741 0.11532 0.56418 0.0
C1028 C 0.13539 0.10274 0.61521 0.0
C1029 C 0.17388 0.16342 0.66442 0.0
C1030 C 0.1564 0.14761 0.64293 0.0
C1031 C 0.10179 0.10089 0.5834 0.0
C1032 C 0.12155 0.11727 0.6032 0.0
H1033 H 0.17982 0.22072 0.71081 0.0
H1034 H 0.14994 0.19322 0.67738 0.0
H1035 H 0.16147 0.10512 0.64426 0.0
H1036 H 0.05475 0.03281 0.5678 0.0
H1037 H 0.08825 0.05887 0.59878 0.0
C1038 C 0.79086 0.08959 0.68771 0.0
C1039 C 0.81151 0.11732 0.69251 0.0
C1040 C 0.78874 0.07476 0.66333 0.0
C1041 C 0.81131 0.04471 0.61423 0.0
H1042 H 0.82493 0.09169 0.55894 0.0
C1043 C 0.89757 0.06901 0.53236 0.0
C1044 C 0.89715 0.04057 0.5221 0.0
C1045 C 0.87417 0.0732 0.54656 0.0
C1046 C 0.82049 0.07794 0.57401 0.0
H1047 H 0.84677 0.15057 0.67587 0.0
H1048 H 0.84273 0.12516 0.6337 0.0
H1049 H 0.8059 0.10858 0.59972 0.0
H1050 H 0.87111 0.99448 0.51692 0.0
H1051 H 0.83044 0.00188 0.5423 0.0
H1052 H 0.82845 0.01555 0.5893 0.0
C1053 C 0.82775 0.11517 0.64849 0.0
C1054 C 0.80957 0.08755 0.59727 0.0
C1055 C 0.83016 0.12964 0.67269 0.0
C1056 C 0.87216 0.01669 0.52476 0.0
C1057 C 0.84884 0.02085 0.53923 0.0
C1058 C 0.82222 0.03507 0.59092 0.0
C1059 C 0.80694 0.08775 0.64352 0.0
C1060 C 0.80695 0.07212 0.61796 0.0
C1061 C 0.84999 0.049 0.55094 0.0
C1062 C 0.82885 0.0528 0.57122 0.0
H1063 H 0.77609 0.07968 0.70263 0.0
H1064 H 0.77286 0.05335 0.65991 0.0
H1065 H 0.80943 0.03245 0.62993 0.0
H1066 H 0.91638 0.08788 0.5304 0.0
H1067 H 0.87583 0.09514 0.55563 0.0
C1068 C 0.84101 0.80616 0.70257 0.0
C1069 C 0.8168 0.81222 0.71375 0.0
C1070 C 0.85783 0.82253 0.68384 0.0
C1071 C 0.8545 0.87149 0.638 0.0
H1072 H 0.9344 0.88384 0.6269 0.0
C1073 C 0.91527 0.91592 0.54793 0.0
C1074 C 0.94286 0.93559 0.54926 0.0
C1075 C 0.90146 0.90073 0.56825 0.0
C1076 C 0.91217 0.88092 0.62983 0.0
H1077 H 0.79193 0.84101 0.71494 0.0
H1078 H 0.82191 0.87054 0.68326 0.0
H1079 H 0.90813 0.86015 0.66303 0.0
H1080 H 0.97792 0.95408 0.57283 0.0
H1081 H 0.9535 0.92831 0.60874 0.0
H1082 H 0.85861 0.89335 0.60559 0.0
C1083 C 0.82748 0.85248 0.68817 0.0
C1084 C 0.89695 0.86689 0.65045 0.0
C1085 C 0.81041 0.83577 0.70657 0.0
C1086 C 0.95665 0.93905 0.5712 0.0
C1087 C 0.94263 0.92414 0.59178 0.0
C1088 C 0.86973 0.88582 0.61766 0.0
C1089 C 0.85111 0.84569 0.67607 0.0
C1090 C 0.86781 0.86177 0.65475 0.0
C1091 C 0.91461 0.90512 0.59074 0.0
C1092 C 0.89874 0.89047 0.61304 0.0
H1093 H 0.84626 0.78785 0.70743 0.0
H1094 H 0.87548 0.81621 0.67482 0.0
H1095 H 0.83208 0.86763 0.64026 0.0
H1096 H 0.90418 0.91235 0.53116 0.0
H1097 H 0.8803 0.8856 0.56628 0.0
C1098 C 0.28499 0.17473 0.18987 0.0
C1099 C 0.29958 0.20255 0.20216 0.0
C1100 C 0.29923 0.15885 0.17253 0.0
C1101 C 0.3672 0.16902 0.13285 0.0
H1102 H 0.34728 0.08418 0.1299 0.0
C1103 C 0.44006 0.10731 0.07802 0.0
C1104 C 0.42816 0.0792 0.0648 0.0
C1105 C 0.42339 0.12121 0.09425 0.0
C1106 C 0.353 0.10784 0.13019 0.0
H1107 H 0.34105 0.23486 0.20594 0.0
H1108 H 0.36564 0.20747 0.17652 0.0
H1109 H 0.31999 0.11016 0.15846 0.0
H1110 H 0.38883 0.04378 0.05892 0.0
H1111 H 0.35974 0.06809 0.08706 0.0
H1112 H 0.40013 0.16689 0.10471 0.0
C1113 C 0.34306 0.19798 0.17963 0.0
C1114 C 0.33725 0.12282 0.14666 0.0
C1115 C 0.32886 0.21373 0.19682 0.0
C1116 C 0.39892 0.06534 0.0687 0.0
C1117 C 0.38217 0.07931 0.08501 0.0
C1118 C 0.38288 0.1541 0.11644 0.0
C1119 C 0.32857 0.1703 0.16703 0.0
C1120 C 0.34429 0.15376 0.1485 0.0
C1121 C 0.39409 0.10765 0.09794 0.0
C1122 C 0.37633 0.12327 0.11497 0.0
H1123 H 0.26263 0.16497 0.19396 0.0
H1124 H 0.28716 0.13769 0.1633 0.0
H1125 H 0.37304 0.19269 0.13312 0.0
H1126 H 0.46243 0.11881 0.0758 0.0
H1127 H 0.43366 0.14267 0.10411 0.0
C1128 C 0.80659 0.29919 0.17597 0.0
C1129 C 0.81272 0.30385 0.2012 0.0
C1130 C 0.82584 0.31481 0.15819 0.0
C1131 C 0.89998 0.35739 0.14443 0.0
H1132 H 0.86893 0.39289 0.10038 0.0
C1133 C 0.96685 0.44164 0.07521 0.0
C1134 C 0.95465 0.44043 0.05288 0.0
C1135 C 0.95196 0.42309 0.09339 0.0
C1136 C 0.87797 0.38277 0.1122 0.0
H1137 H 0.84341 0.32875 0.22782 0.0
H1138 H 0.87747 0.35592 0.19655 0.0
H1139 H 0.83822 0.36426 0.13192 0.0
H1140 H 0.91901 0.41739 0.03076 0.0
H1141 H 0.89378 0.38434 0.06163 0.0
H1142 H 0.93985 0.37588 0.12436 0.0
C1143 C 0.8579 0.33991 0.19052 0.0
C1144 C 0.86032 0.36643 0.13037 0.0
C1145 C 0.83847 0.32441 0.20837 0.0
C1146 C 0.92859 0.41903 0.04808 0.0
C1147 C 0.91406 0.40028 0.06587 0.0
C1148 C 0.91775 0.37366 0.12599 0.0
C1149 C 0.85162 0.33546 0.16529 0.0
C1150 C 0.87102 0.35333 0.14652 0.0
C1151 C 0.9249 0.40293 0.08922 0.0
C1152 C 0.90683 0.38622 0.10944 0.0
H1153 H 0.78695 0.28332 0.16994 0.0
H1154 H 0.82055 0.31074 0.13883 0.0
H1155 H 0.90874 0.34746 0.15667 0.0
H1156 H 0.98699 0.45804 0.07922 0.0
H1157 H 0.96096 0.42562 0.11114 0.0
C1158 C 0.65019 0.82179 0.15663 0.0
C1159 C 0.66111 0.83922 0.17859 0.0
C1160 C 0.63628 0.83209 0.14101 0.0
C1161 C 0.60292 0.89032 0.14061 0.0
H1162 H 0.60589 0.86685 0.06883 0.0
C1163 C 0.57343 0.94767 0.06581 0.0
C1164 C 0.55605 0.92906 0.04743 0.0
C1165 C 0.58339 0.93581 0.0834 0.0
C1166 C 0.60468 0.87334 0.08889 0.0
H1167 H 0.66703 0.88137 0.20107 0.0
H1168 H 0.64422 0.90012 0.17329 0.0
H1169 H 0.63068 0.84884 0.09539 0.0
H1170 H 0.53467 0.88342 0.03368 0.0
H1171 H 0.55271 0.86277 0.06408 0.0
H1172 H 0.57797 0.91602 0.1336 0.0
C1173 C 0.6452 0.878 0.16847 0.0
C1174 C 0.6188 0.86293 0.10421 0.0
C1175 C 0.65858 0.86743 0.18431 0.0
C1176 C 0.54793 0.89835 0.04765 0.0
C1177 C 0.55839 0.88651 0.06491 0.0
C1178 C 0.58929 0.90118 0.12519 0.0
C1179 C 0.63344 0.86034 0.14675 0.0
C1180 C 0.61818 0.87127 0.13033 0.0
C1181 C 0.57662 0.90514 0.08263 0.0
C1182 C 0.59002 0.89277 0.09921 0.0
H1183 H 0.65162 0.7998 0.15199 0.0
H1184 H 0.62718 0.81753 0.12478 0.0
H1185 H 0.60126 0.89677 0.16063 0.0
H1186 H 0.58 0.97142 0.06616 0.0
H1187 H 0.59746 0.95065 0.09685 0.0
C1188 C 0.19896 0.67925 0.19643 0.0
C1189 C 0.22843 0.68909 0.19473 0.0
C1190 C 0.18417 0.6613 0.17651 0.0
C1191 C 0.16236 0.64674 0.12481 0.0
H1192 H 0.17628 0.57757 0.0876 0.0
C1193 C 0.10714 0.59427 0.03594 0.0
C1194 C 0.0916 0.56415 0.03569 0.0
C1195 C 0.12832 0.60769 0.05238 0.0
C1196 C 0.17225 0.59688 0.09783 0.0
H1197 H 0.26559 0.68652 0.17143 0.0
H1198 H 0.23959 0.65468 0.13664 0.0
H1199 H 0.20339 0.60351 0.12394 0.0
H1200 H 0.0879 0.52385 0.0507 0.0
H1201 H 0.125 0.5475 0.07973 0.0
H1202 H 0.13127 0.64035 0.09916 0.0
C1203 C 0.22798 0.661 0.15337 0.0
C1204 C 0.18779 0.61175 0.11851 0.0
C1205 C 0.24283 0.67921 0.17328 0.0
C1206 C 0.09954 0.54711 0.05047 0.0
C1207 C 0.12075 0.56067 0.06712 0.0
C1208 C 0.14715 0.63218 0.10412 0.0
C1209 C 0.19852 0.65256 0.15453 0.0
C1210 C 0.18274 0.63666 0.13234 0.0
C1211 C 0.13434 0.59138 0.06909 0.0
C1212 C 0.15183 0.60707 0.09038 0.0
H1213 H 0.18733 0.68616 0.2129 0.0
H1214 H 0.16143 0.65473 0.17809 0.0
H1215 H 0.15824 0.66609 0.13488 0.0
H1216 H 0.10179 0.60789 0.02449 0.0
H1217 H 0.13892 0.63126 0.05301 0.0
C1218 C 0.29406 0.79178 0.82953 0.0
C1219 C 0.29168 0.80513 0.80892 0.0
C1220 C 0.30664 0.80887 0.85073 0.0
C1221 C 0.33267 0.88452 0.88398 0.0
H1222 H 0.38611 0.85362 0.90605 0.0
C1223 C 0.42531 0.9514 0.94603 0.0
C1224 C 0.43419 0.93547 0.96115 0.0
C1225 C 0.40252 0.93704 0.93126 0.0
C1226 C 0.3709 0.86236 0.90057 0.0
H1227 H 0.29916 0.84693 0.79489 0.0
H1228 H 0.322 0.87701 0.83196 0.0
H1229 H 0.35691 0.82587 0.87255 0.0
H1230 H 0.42434 0.89334 0.97526 0.0
H1231 H 0.38398 0.86865 0.95044 0.0
H1232 H 0.34756 0.92158 0.91189 0.0
C1233 C 0.31377 0.85327 0.83174 0.0
C1234 C 0.35414 0.84642 0.88125 0.0
C1235 C 0.30083 0.83607 0.81049 0.0
C1236 C 0.41816 0.90596 0.96342 0.0
C1237 C 0.39519 0.89181 0.94906 0.0
C1238 C 0.34959 0.90062 0.90348 0.0
C1239 C 0.31751 0.83974 0.85178 0.0
C1240 C 0.33474 0.85716 0.87274 0.0
C1241 C 0.38814 0.90669 0.93172 0.0
C1242 C 0.36882 0.88959 0.91204 0.0
H1243 H 0.28665 0.768 0.82913 0.0
H1244 H 0.30851 0.79778 0.86612 0.0
H1245 H 0.31787 0.89334 0.87783 0.0
H1246 H 0.43739 0.97421 0.94396 0.0
H1247 H 0.3976 0.94915 0.91814 0.0
C1248 C 0.19435 0.27838 0.80557 0.0
C1249 C 0.21963 0.29386 0.79281 0.0
C1250 C 0.17936 0.29347 0.82263 0.0
C1251 C 0.1869 0.36437 0.86294 0.0
H1252 H 0.10618 0.3414 0.86048 0.0
C1253 C 0.12136 0.4321 0.92329 0.0
C1254 C 0.09377 0.4168 0.93209 0.0
C1255 C 0.13703 0.4176 0.90631 0.0
C1256 C 0.12865 0.34794 0.86185 0.0
H1257 H 0.24905 0.33751 0.7883 0.0
H1258 H 0.22303 0.36375 0.81806 0.0
H1259 H 0.13257 0.3149 0.83185 0.0
H1260 H 0.06146 0.37383 0.93014 0.0
H1261 H 0.08874 0.34862 0.90154 0.0
H1262 H 0.18304 0.39701 0.89326 0.0
C1263 C 0.21478 0.3399 0.81493 0.0
C1264 C 0.14383 0.33269 0.84525 0.0
C1265 C 0.22959 0.32484 0.79768 0.0
C1266 C 0.08249 0.38655 0.92364 0.0
C1267 C 0.09819 0.37203 0.90696 0.0
C1268 C 0.17168 0.37944 0.87977 0.0
C1269 C 0.18936 0.32447 0.82756 0.0
C1270 C 0.17318 0.34066 0.84552 0.0
C1271 C 0.12569 0.38727 0.8978 0.0
C1272 C 0.14223 0.37148 0.87957 0.0
H1273 H 0.18593 0.25456 0.80218 0.0
H1274 H 0.16001 0.2808 0.83214 0.0
H1275 H 0.20945 0.37098 0.86389 0.0
H1276 H 0.13076 0.45541 0.92925 0.0
H1277 H 0.15791 0.43039 0.89956 0.0
C1278 C 0.69258 0.22765 0.81987 0.0
C1279 C 0.69941 0.21518 0.79583 0.0
C1280 C 0.67394 0.20981 0.83693 0.0
C1281 C 0.651 0.13473 0.8524 0.0
H1282 H 0.58569 0.14955 0.88891 0.0
C1283 C 0.57721 0.04878 0.91259 0.0
C1284 C 0.56513 0.05832 0.93549 0.0
C1285 C 0.59035 0.0684 0.89496 0.0
C1286 C 0.60404 0.14524 0.87916 0.0
H1287 H 0.69063 0.17486 0.7702 0.0
H1288 H 0.65862 0.14382 0.8 0.0
H1289 H 0.61537 0.184 0.86003 0.0
H1290 H 0.55644 0.09557 0.95776 0.0
H1291 H 0.58054 0.13051 0.92739 0.0
H1292 H 0.64101 0.09703 0.87189 0.0
C1293 C 0.66784 0.16721 0.80579 0.0
C1294 C 0.62096 0.16496 0.86255 0.0
C1295 C 0.68621 0.18497 0.78877 0.0
C1296 C 0.56538 0.08766 0.94007 0.0
C1297 C 0.57923 0.10764 0.92261 0.0
C1298 C 0.63454 0.11544 0.86925 0.0
C1299 C 0.66184 0.17931 0.83018 0.0
C1300 C 0.64437 0.1596 0.84875 0.0
C1301 C 0.59269 0.09845 0.90009 0.0
C1302 C 0.61047 0.11999 0.88261 0.0
H1303 H 0.70247 0.25089 0.82582 0.0
H1304 H 0.66993 0.21958 0.85573 0.0
H1305 H 0.66919 0.13032 0.84233 0.0
H1306 H 0.57713 0.02618 0.90859 0.0
H1307 H 0.59934 0.06001 0.87754 0.0
C1308 C 0.88337 0.68156 0.82702 0.0
C1309 C 0.90023 0.71089 0.82468 0.0
C1310 C 0.89083 0.66466 0.84228 0.0
C1311 C 0.937 0.67101 0.89348 0.0
H1312 H 0.93088 0.59026 0.86773 0.0
C1313 C 0.99096 0.60619 0.93955 0.0
C1314 C 0.97476 0.57718 0.94389 0.0
C1315 C 0.98193 0.62146 0.92402 0.0
C1316 C 0.93255 0.61271 0.87529 0.0
H1317 H 0.93726 0.7459 0.83765 0.0
H1318 H 0.95038 0.71666 0.86379 0.0
H1319 H 0.91314 0.61889 0.84428 0.0
H1320 H 0.93711 0.54099 0.93386 0.0
H1321 H 0.92154 0.56754 0.90677 0.0
H1322 H 0.95661 0.66497 0.92435 0.0
C1323 C 0.93136 0.70651 0.85401 0.0
C1324 C 0.92224 0.62911 0.86189 0.0
C1325 C 0.92396 0.72327 0.83879 0.0
C1326 C 0.95016 0.5633 0.93106 0.0
C1327 C 0.9412 0.57854 0.91545 0.0
C1328 C 0.94739 0.65468 0.90679 0.0
C1329 C 0.91521 0.67681 0.85569 0.0
C1330 C 0.92452 0.6586 0.8707 0.0
C1331 C 0.95655 0.6081 0.91227 0.0
C1332 C 0.94551 0.62538 0.89781 0.0
H1333 H 0.86502 0.67132 0.81633 0.0
H1334 H 0.87764 0.642 0.84338 0.0
H1335 H 0.93867 0.69342 0.90116 0.0
H1336 H 1.01008 0.6176 0.94896 0.0
H1337 H 0.99461 0.64399 0.92158 0.0
C1338 C 0.10293 0.27769 0.15672 0.0
C1339 C 0.12644 0.28999 0.17112 0.0
C1340 C 0.09608 0.29436 0.14103 0.0
C1341 C 0.10641 0.37175 0.13187 0.0
H1342 H 0.07232 0.33508 0.06944 0.0
C1343 C 0.07925 0.43668 0.06126 0.0
C1344 C 0.05463 0.42269 0.04846 0.0
C1345 C 0.08815 0.42165 0.07714 0.0
C1346 C 0.08147 0.34562 0.08698 0.0
H1347 H 0.16185 0.32935 0.17946 0.0
H1348 H 0.15021 0.35852 0.15159 0.0
H1349 H 0.08958 0.30683 0.09342 0.0
H1350 H 0.0193 0.38224 0.04366 0.0
H1351 H 0.03463 0.35626 0.07147 0.0
H1352 H 0.09835 0.41064 0.12521 0.0
C1353 C 0.13675 0.33598 0.15283 0.0
C1354 C 0.09147 0.32939 0.10075 0.0
C1355 C 0.14366 0.31916 0.16857 0.0
C1356 C 0.03841 0.39377 0.05304 0.0
C1357 C 0.04738 0.37872 0.06883 0.0
C1358 C 0.09649 0.38806 0.11799 0.0
C1359 C 0.11258 0.32393 0.13912 0.0
C1360 C 0.10382 0.34207 0.12356 0.0
C1361 C 0.07273 0.39218 0.08061 0.0
C1362 C 0.08359 0.3751 0.09548 0.0
H1363 H 0.08934 0.25519 0.15802 0.0
H1364 H 0.0772 0.28427 0.13105 0.0
H1365 H 0.11542 0.38221 0.14947 0.0
H1366 H 0.09233 0.45893 0.05826 0.0
H1367 H 0.10778 0.43275 0.08582 0.0
C1368 C 0.19808 0.71316 0.81284 0.0
C1369 C 0.20854 0.70046 0.79049 0.0
C1370 C 0.17836 0.69562 0.8292 0.0
C1371 C 0.12963 0.6185 0.83392 0.0
H1372 H 0.13273 0.64437 0.90531 0.0
C1373 C 0.08796 0.54307 0.9128 0.0
C1374 C 0.07144 0.55187 0.93309 0.0
C1375 C 0.10014 0.56123 0.89396 0.0
C1376 C 0.13133 0.63711 0.88541 0.0
H1377 H 0.2072 0.65914 0.76814 0.0
H1378 H 0.17428 0.6282 0.79749 0.0
H1379 H 0.16439 0.67564 0.87569 0.0
H1380 H 0.05414 0.5862 0.9494 0.0
H1381 H 0.07647 0.61874 0.91664 0.0
H1382 H 0.09773 0.57897 0.84417 0.0
C1383 C 0.1802 0.65191 0.80191 0.0
C1384 C 0.14945 0.65505 0.86831 0.0
C1385 C 0.19945 0.66962 0.7852 0.0
C1386 C 0.06663 0.57887 0.93386 0.0
C1387 C 0.07947 0.59746 0.91524 0.0
C1388 C 0.11192 0.6003 0.85109 0.0
C1389 C 0.16924 0.66468 0.82413 0.0
C1390 C 0.14906 0.64594 0.84229 0.0
C1391 C 0.09658 0.58887 0.89529 0.0
C1392 C 0.11278 0.60938 0.87698 0.0
H1393 H 0.20532 0.73676 0.8179 0.0
H1394 H 0.17028 0.7065 0.84581 0.0
H1395 H 0.12814 0.6109 0.8141 0.0
H1396 H 0.09188 0.52229 0.91174 0.0
H1397 H 0.1134 0.55421 0.8789 0.0
C1398 C 0.35334 0.14511 0.82697 0.0
C1399 C 0.36868 0.1706 0.81561 0.0
C1400 C 0.36632 0.13356 0.84244 0.0
C1401 C 0.42599 0.15253 0.88172 0.0
H1402 H 0.41535 0.06878 0.87009 0.0
C1403 C 0.48254 0.09934 0.93837 0.0
C1404 C 0.46634 0.07193 0.94635 0.0
C1405 C 0.47286 0.11133 0.92058 0.0
C1406 C 0.41834 0.09216 0.87385 0.0
H1407 H 0.40929 0.20461 0.81233 0.0
H1408 H 0.43183 0.18466 0.83964 0.0
H1409 H 0.39271 0.09017 0.84434 0.0
H1410 H 0.42773 0.03512 0.94096 0.0
H1411 H 0.41077 0.05609 0.91078 0.0
H1412 H 0.45091 0.15449 0.91171 0.0
C1413 C 0.40986 0.17348 0.83641 0.0
C1414 C 0.40535 0.1044 0.85902 0.0
C1415 C 0.39701 0.18479 0.82067 0.0
C1416 C 0.44086 0.0563 0.93534 0.0
C1417 C 0.43114 0.06831 0.91779 0.0
C1418 C 0.43873 0.14023 0.89679 0.0
C1419 C 0.39478 0.14751 0.84719 0.0
C1420 C 0.40886 0.13467 0.86289 0.0
C1421 C 0.44672 0.09621 0.91043 0.0
C1422 C 0.4349 0.10979 0.89321 0.0
H1423 H 0.33153 0.13366 0.82332 0.0
H1424 H 0.35409 0.11366 0.8507 0.0
H1425 H 0.42897 0.17593 0.88522 0.0
H1426 H 0.50234 0.11192 0.94632 0.0
H1427 H 0.48572 0.13261 0.91503 0.0
C1428 C 0.8231 0.33625 0.79758 0.0
C1429 C 0.79401 0.32195 0.8006 0.0
C1430 C 0.83773 0.35375 0.8177 0.0
C1431 C 0.86171 0.36099 0.86779 0.0
H1432 H 0.84713 0.42514 0.91292 0.0
C1433 C 0.92181 0.40522 0.95496 0.0
C1434 C 0.93699 0.43554 0.95665 0.0
C1435 C 0.89951 0.39307 0.93954 0.0
C1436 C 0.8513 0.40718 0.90047 0.0
H1437 H 0.75702 0.31636 0.82648 0.0
H1438 H 0.7828 0.34754 0.86182 0.0
H1439 H 0.81798 0.40229 0.8771 0.0
H1440 H 0.93888 0.47733 0.94542 0.0
H1441 H 0.89981 0.45589 0.91819 0.0
H1442 H 0.89483 0.36554 0.89067 0.0
C1443 C 0.79415 0.34507 0.84381 0.0
C1444 C 0.83464 0.39412 0.8801 0.0
C1445 C 0.77944 0.32733 0.8236 0.0
C1446 C 0.92765 0.45387 0.94444 0.0
C1447 C 0.90526 0.44161 0.92887 0.0
C1448 C 0.87795 0.37364 0.88817 0.0
C1449 C 0.82357 0.35747 0.84124 0.0
C1450 C 0.84003 0.37117 0.86341 0.0
C1451 C 0.89189 0.4109 0.92538 0.0
C1452 C 0.87309 0.39695 0.90469 0.0
H1453 H 0.83478 0.33271 0.77997 0.0
H1454 H 0.86037 0.3634 0.81517 0.0
H1455 H 0.8661 0.3431 0.85538 0.0
H1456 H 0.92814 0.39056 0.96449 0.0
H1457 H 0.88917 0.3694 0.93762 0.0
C1458 C 0.69485 0.78661 0.80159 0.0
C1459 C 0.72424 0.79722 0.79681 0.0
C1460 C 0.6806 0.80326 0.81768 0.0
C1461 C 0.68996 0.86644 0.86873 0.0
H1462 H 0.6172 0.86337 0.85055 0.0
C1463 C 0.62532 0.93788 0.92674 0.0
C1464 C 0.59589 0.92469 0.92963 0.0
C1465 C 0.64207 0.9239 0.91043 0.0
C1466 C 0.63731 0.86432 0.85621 0.0
H1467 H 0.76147 0.8343 0.80539 0.0
H1468 H 0.73677 0.86327 0.83396 0.0
H1469 H 0.64407 0.83649 0.82312 0.0
H1470 H 0.56139 0.88603 0.91721 0.0
H1471 H 0.59021 0.86191 0.88934 0.0
H1472 H 0.683 0.89426 0.90196 0.0
C1473 C 0.7247 0.84175 0.82533 0.0
C1474 C 0.65285 0.84878 0.84035 0.0
C1475 C 0.73898 0.82505 0.80899 0.0
C1476 C 0.58386 0.89717 0.91557 0.0
C1477 C 0.60052 0.88329 0.89931 0.0
C1478 C 0.67434 0.88202 0.88468 0.0
C1479 C 0.69516 0.83126 0.82973 0.0
C1480 C 0.67931 0.84921 0.84642 0.0
C1481 C 0.62995 0.89632 0.89639 0.0
C1482 C 0.64755 0.88096 0.87885 0.0
H1483 H 0.68264 0.76523 0.79289 0.0
H1484 H 0.65801 0.79393 0.82083 0.0
H1485 H 0.71009 0.86727 0.87428 0.0
H1486 H 0.6355 0.95899 0.93719 0.0
H1487 H 0.66455 0.93492 0.90865 0.0
C1488 C 0.82834 0.71777 0.18136 0.0
C1489 C 0.8038 0.70226 0.19505 0.0
C1490 C 0.84372 0.70265 0.16482 0.0
C1491 C 0.83827 0.63084 0.12712 0.0
H1492 H 0.91916 0.65672 0.12948 0.0
C1493 C 0.9062 0.56469 0.06823 0.0
C1494 C 0.93364 0.58044 0.05941 0.0
C1495 C 0.89004 0.57891 0.08492 0.0
C1496 C 0.89666 0.64935 0.12811 0.0
H1497 H 0.77613 0.65855 0.20182 0.0
H1498 H 0.80272 0.63222 0.17274 0.0
H1499 H 0.89184 0.68295 0.15722 0.0
H1500 H 0.96514 0.6239 0.06098 0.0
H1501 H 0.93699 0.64863 0.08896 0.0
H1502 H 0.84298 0.59771 0.09762 0.0
C1503 C 0.81008 0.6561 0.17479 0.0
C1504 C 0.88094 0.66444 0.14422 0.0
C1505 C 0.79491 0.67122 0.19158 0.0
C1506 C 0.94426 0.61084 0.06753 0.0
C1507 C 0.92804 0.62509 0.08386 0.0
C1508 C 0.85403 0.61596 0.11074 0.0
C1509 C 0.83483 0.67159 0.1613 0.0
C1510 C 0.85152 0.65544 0.14396 0.0
C1511 C 0.90068 0.60942 0.09305 0.0
C1512 C 0.88356 0.62496 0.11088 0.0
H1513 H 0.83603 0.74165 0.18382 0.0
H1514 H 0.86256 0.71533 0.15465 0.0
H1515 H 0.81567 0.62342 0.12625 0.0
H1516 H 0.8973 0.54126 0.06252 0.0
H1517 H 0.86931 0.56578 0.09169 0.0
C1518 C 0.33234 0.77248 0.17065 0.0
C1519 C 0.33194 0.78131 0.19659 0.0
C1520 C 0.35222 0.79022 0.15424 0.0
C1521 C 0.39541 0.86886 0.15335 0.0
H1522 H 0.42446 0.84218 0.08799 0.0
C1523 C 0.46999 0.9229 0.06213 0.0
C1524 C 0.45696 0.9437 0.05964 0.0
C1525 C 0.45852 0.90216 0.07944 0.0
C1526 C 0.41682 0.84997 0.10634 0.0
H1527 H 0.35312 0.81383 0.226 0.0
H1528 H 0.38853 0.84383 0.19778 0.0
H1529 H 0.39827 0.80611 0.1169 0.0
H1530 H 0.42208 0.95938 0.07404 0.0
H1531 H 0.4025 0.9238 0.10381 0.0
H1532 H 0.41366 0.91252 0.14294 0.0
C1533 C 0.37303 0.82405 0.18977 0.0
C1534 C 0.40152 0.82928 0.12279 0.0
C1535 C 0.35293 0.80671 0.20601 0.0
C1536 C 0.43274 0.94372 0.07528 0.0
C1537 C 0.42153 0.92334 0.09256 0.0
C1538 C 0.41057 0.88938 0.13699 0.0
C1539 C 0.37223 0.81684 0.16359 0.0
C1540 C 0.39031 0.83846 0.14644 0.0
C1541 C 0.43408 0.90216 0.09483 0.0
C1542 C 0.42102 0.88023 0.11309 0.0
H1543 H 0.31611 0.75309 0.16299 0.0
H1544 H 0.35078 0.78398 0.13423 0.0
H1545 H 0.38693 0.87695 0.17117 0.0
H1546 H 0.48857 0.92219 0.05036 0.0
H1547 H 0.46879 0.88621 0.08084 0.0
C1548 C 0.71828 0.17078 0.18804 0.0
C1549 C 0.73117 0.20131 0.18759 0.0
C1550 C 0.70524 0.15311 0.16703 0.0
C1551 C 0.67064 0.16015 0.1138 0.0
H1552 H 0.67178 0.08142 0.08845 0.0
C1553 C 0.60557 0.09766 0.03225 0.0
C1554 C 0.58913 0.06838 0.03497 0.0
C1555 C 0.62813 0.11212 0.04707 0.0
C1556 C 0.67115 0.10333 0.09539 0.0
H1557 H 0.7424 0.23697 0.1644 0.0
H1558 H 0.71982 0.20627 0.12785 0.0
H1559 H 0.70116 0.10991 0.12254 0.0
H1560 H 0.58457 0.03044 0.05383 0.0
H1561 H 0.62341 0.05599 0.08048 0.0
H1562 H 0.64007 0.15363 0.08773 0.0
C1563 C 0.71923 0.196 0.1445 0.0
C1564 C 0.68798 0.11961 0.11489 0.0
C1565 C 0.73219 0.21357 0.1654 0.0
C1566 C 0.59702 0.05303 0.05132 0.0
C1567 C 0.61931 0.06772 0.06659 0.0
C1568 C 0.65378 0.14393 0.09457 0.0
C1569 C 0.70494 0.16574 0.14528 0.0
C1570 C 0.68789 0.14824 0.12424 0.0
C1571 C 0.63429 0.09787 0.06544 0.0
C1572 C 0.65379 0.11531 0.08501 0.0
H1573 H 0.71726 0.16081 0.20495 0.0
H1574 H 0.69428 0.12987 0.16821 0.0
H1575 H 0.66955 0.18185 0.12099 0.0
H1576 H 0.60012 0.10986 0.01952 0.0
H1577 H 0.63983 0.13501 0.04501 0.0
C1578 C 0.68483 0.69564 0.79933 0.0
C1579 C 0.70619 0.68693 0.78493 0.0
C1580 C 0.66726 0.6781 0.81698 0.0
C1581 C 0.62508 0.63218 0.84727 0.0
H1582 H 0.66028 0.59363 0.88479 0.0
C1583 C 0.5636 0.55705 0.9243 0.0
C1584 C 0.57821 0.5578 0.94513 0.0
C1585 C 0.57761 0.57218 0.90381 0.0
C1586 C 0.6501 0.60445 0.8747 0.0
H1587 H 0.72475 0.65218 0.77634 0.0
H1588 H 0.69357 0.62096 0.80665 0.0
H1589 H 0.68714 0.62045 0.85064 0.0
H1590 H 0.61865 0.57646 0.96127 0.0
H1591 H 0.64261 0.60327 0.92624 0.0
H1592 H 0.58837 0.61716 0.87218 0.0
C1593 C 0.69092 0.64183 0.80499 0.0
C1594 C 0.66544 0.61947 0.85473 0.0
C1595 C 0.70866 0.65956 0.78749 0.0
C1596 C 0.60677 0.57497 0.94541 0.0
C1597 C 0.62064 0.59021 0.92514 0.0
C1598 C 0.60975 0.61728 0.86741 0.0
C1599 C 0.67035 0.65116 0.8204 0.0
C1600 C 0.65326 0.63375 0.8408 0.0
C1601 C 0.60649 0.58856 0.90379 0.0
C1602 C 0.62216 0.60348 0.8816 0.0
H1603 H 0.68252 0.71667 0.79777 0.0
H1604 H 0.65198 0.68628 0.82861 0.0
H1605 H 0.61482 0.64256 0.83681 0.0
H1606 H 0.54158 0.54404 0.92345 0.0
H1607 H 0.56599 0.57028 0.8877 0.0
C1608 C 0.32883 0.62711 0.84526 0.0
C1609 C 0.3332 0.63349 0.82026 0.0
C1610 C 0.34857 0.61904 0.85598 0.0
C1611 C 0.40524 0.58662 0.84074 0.0
H1612 H 0.42487 0.62012 0.90852 0.0
C1613 C 0.47987 0.5844 0.92315 0.0
C1614 C 0.47161 0.5538 0.92425 0.0
C1615 C 0.46791 0.59576 0.90666 0.0
C1616 C 0.41997 0.61081 0.88945 0.0
H1617 H 0.36169 0.63608 0.78685 0.0
H1618 H 0.39617 0.6217 0.80557 0.0
H1619 H 0.3936 0.63692 0.88812 0.0
H1620 H 0.44658 0.51113 0.90674 0.0
H1621 H 0.42603 0.53096 0.87793 0.0
H1622 H 0.43121 0.56002 0.84237 0.0
C1623 C 0.37743 0.62304 0.81686 0.0
C1624 C 0.40175 0.62021 0.87787 0.0
C1625 C 0.3578 0.63149 0.80621 0.0
C1626 C 0.45336 0.53482 0.90659 0.0
C1627 C 0.44152 0.5462 0.89 0.0
C1628 C 0.42328 0.57696 0.85246 0.0
C1629 C 0.3731 0.61685 0.84192 0.0
C1630 C 0.39388 0.608 0.8535 0.0
C1631 C 0.44764 0.57682 0.8907 0.0
C1632 C 0.43068 0.58877 0.87706 0.0
H1633 H 0.31022 0.62867 0.85666 0.0
H1634 H 0.34446 0.61414 0.87526 0.0
H1635 H 0.39948 0.57669 0.82199 0.0
H1636 H 0.49403 0.59977 0.93626 0.0
H1637 H 0.47356 0.61947 0.90726 0.0
C1638 C 0.31842 0.32859 0.79568 0.0
C1639 C 0.31961 0.30123 0.78371 0.0
C1640 C 0.33552 0.34337 0.81527 0.0
C1641 C 0.37326 0.32995 0.86358 0.0
H1642 H 0.41552 0.41333 0.86579 0.0
C1643 C 0.45805 0.38926 0.934 0.0
C1644 C 0.4613 0.41877 0.94337 0.0
C1645 C 0.43961 0.37461 0.91531 0.0
C1646 C 0.4035 0.39014 0.86574 0.0
H1647 H 0.34095 0.2689 0.78162 0.0
H1648 H 0.37028 0.29435 0.81615 0.0
H1649 H 0.38576 0.38897 0.83134 0.0
H1650 H 0.44706 0.45565 0.94065 0.0
H1651 H 0.4143 0.4299 0.90912 0.0
H1652 H 0.39058 0.33107 0.89812 0.0
C1653 C 0.35576 0.30406 0.81075 0.0
C1654 C 0.38655 0.37621 0.84592 0.0
C1655 C 0.33891 0.28947 0.79104 0.0
C1656 C 0.44509 0.43294 0.93411 0.0
C1657 C 0.42648 0.41823 0.91568 0.0
C1658 C 0.38998 0.34394 0.88356 0.0
C1659 C 0.35402 0.33099 0.82323 0.0
C1660 C 0.37143 0.34595 0.84457 0.0
C1661 C 0.42385 0.38906 0.90571 0.0
C1662 C 0.40544 0.37419 0.88483 0.0
H1663 H 0.30374 0.33817 0.79039 0.0
H1664 H 0.33375 0.3641 0.82463 0.0
H1665 H 0.3615 0.30664 0.86314 0.0
H1666 H 0.4703 0.37768 0.94057 0.0
H1667 H 0.43839 0.35225 0.90788 0.0
C1668 C 0.67351 0.32232 0.84147 0.0
C1669 C 0.66012 0.2917 0.84056 0.0
C1670 C 0.68027 0.33959 0.86427 0.0
C1671 C 0.65288 0.33843 0.92952 0.0
H1672 H 0.70588 0.41801 0.93359 0.0
C1673 C 0.6243 0.42421 0.99662 0.0
C1674 C 0.62178 0.44553 0.983 0.0
C1675 C 0.64218 0.40808 0.9873 0.0
C1676 C 0.69127 0.39571 0.93299 0.0
H1677 H 0.64486 0.25495 0.8627 0.0
H1678 H 0.65722 0.28511 0.90271 0.0
H1679 H 0.71343 0.38056 0.90062 0.0
H1680 H 0.63739 0.46897 0.95047 0.0
H1681 H 0.66813 0.44019 0.93355 0.0
H1682 H 0.62991 0.35368 0.96087 0.0
C1683 C 0.66204 0.29583 0.88576 0.0
C1684 C 0.69546 0.37428 0.91405 0.0
C1685 C 0.65492 0.27852 0.86287 0.0
C1686 C 0.63928 0.45267 0.96126 0.0
C1687 C 0.65697 0.43627 0.95172 0.0
C1688 C 0.64891 0.35966 0.94856 0.0
C1689 C 0.67393 0.32673 0.88682 0.0
C1690 C 0.67521 0.34598 0.91108 0.0
C1691 C 0.65723 0.4126 0.96389 0.0
C1692 C 0.66706 0.38898 0.94952 0.0
H1693 H 0.6775 0.33326 0.82468 0.0
H1694 H 0.68877 0.36328 0.86422 0.0
H1695 H 0.63674 0.31701 0.92793 0.0
H1696 H 0.61091 0.41854 0.01353 0.0
H1697 H 0.64228 0.39031 0.99726 0.0
C1698 C 0.68115 0.40723 0.19178 0.0
C1699 C 0.67475 0.38095 0.20281 0.0
C1700 C 0.66188 0.41172 0.17767 0.0
C1701 C 0.60391 0.37757 0.13833 0.0
H1702 H 0.58589 0.44957 0.1592 0.0
C1703 C 0.53561 0.41326 0.07899 0.0
C1704 C 0.54569 0.44327 0.07521 0.0
C1705 C 0.54584 0.40321 0.09775 0.0
C1706 C 0.59079 0.42948 0.1529 0.0
H1707 H 0.64331 0.33803 0.20615 0.0
H1708 H 0.60995 0.34557 0.18042 0.0
H1709 H 0.61591 0.43606 0.18392 0.0
H1710 H 0.57268 0.4865 0.08978 0.0
H1711 H 0.59066 0.46918 0.12176 0.0
H1712 H 0.58026 0.37176 0.10649 0.0
C1713 C 0.62987 0.36286 0.18336 0.0
C1714 C 0.60789 0.42168 0.16721 0.0
C1715 C 0.64906 0.35851 0.19795 0.0
C1716 C 0.56444 0.46321 0.09198 0.0
C1717 C 0.57475 0.45318 0.11054 0.0
C1718 C 0.58714 0.38563 0.12372 0.0
C1719 C 0.63585 0.38985 0.17365 0.0
C1720 C 0.6151 0.39598 0.15982 0.0
C1721 C 0.56639 0.42291 0.11318 0.0
C1722 C 0.58086 0.4121 0.13048 0.0
H1723 H 0.70103 0.42469 0.19431 0.0
H1724 H 0.6673 0.43248 0.16995 0.0
H1725 H 0.60924 0.35768 0.13218 0.0
H1726 H 0.52108 0.39723 0.06655 0.0
H1727 H 0.53832 0.37984 0.09956 0.0
C1728 C 0.68394 0.70606 0.20266 0.0
C1729 C 0.70406 0.69501 0.20933 0.0
C1730 C 0.6662 0.69066 0.18377 0.0
C1731 C 0.66046 0.63364 0.12913 0.0
H1732 H 0.5838 0.63429 0.1328 0.0
C1733 C 0.57743 0.56091 0.06081 0.0
C1734 C 0.5607 0.57467 0.05175 0.0
C1735 C 0.596 0.57593 0.07923 0.0
C1736 C 0.60526 0.63419 0.13144 0.0
H1737 H 0.72042 0.65843 0.20254 0.0
H1738 H 0.68868 0.6309 0.17009 0.0
H1739 H 0.61282 0.65825 0.16781 0.0
H1740 H 0.55095 0.6154 0.05469 0.0
H1741 H 0.58322 0.64144 0.08706 0.0
H1742 H 0.65247 0.60892 0.0929 0.0
C1743 C 0.68723 0.65196 0.17886 0.0
C1744 C 0.62191 0.64792 0.15147 0.0
C1745 C 0.70517 0.66752 0.19766 0.0
C1746 C 0.56347 0.60407 0.0612 0.0
C1747 C 0.58183 0.61897 0.07983 0.0
C1748 C 0.64367 0.61962 0.10921 0.0
C1749 C 0.66784 0.66359 0.17141 0.0
C1750 C 0.64978 0.64798 0.15051 0.0
C1751 C 0.598 0.6049 0.08922 0.0
C1752 C 0.61598 0.61994 0.11013 0.0
H1753 H 0.68209 0.72682 0.21181 0.0
H1754 H 0.65167 0.70041 0.17845 0.0
H1755 H 0.68197 0.63369 0.12756 0.0
H1756 H 0.57569 0.53826 0.0543 0.0
H1757 H 0.60805 0.56449 0.08632 0.0
C1758 C 0.36619 0.69156 0.13516 0.0
C1759 C 0.35103 0.68572 0.15833 0.0
C1760 C 0.35671 0.67349 0.11318 0.0
C1761 C 0.33691 0.63045 0.06815 0.0
H1762 H 0.31758 0.55163 0.0871 0.0
C1763 C 0.37972 0.54631 0.00809 0.0
C1764 C 0.39662 0.53901 0.02308 0.0
C1765 C 0.35869 0.55774 0.01932 0.0
C1766 C 0.3224 0.57335 0.08129 0.0
H1767 H 0.31185 0.6583 0.17575 0.0
H1768 H 0.29463 0.62858 0.13743 0.0
H1769 H 0.30865 0.59009 0.11717 0.0
H1770 H 0.40418 0.53575 0.0609 0.0
H1771 H 0.36752 0.55521 0.08059 0.0
H1772 H 0.35396 0.61409 0.03327 0.0
C1773 C 0.31457 0.64619 0.13636 0.0
C1774 C 0.31708 0.59557 0.09852 0.0
C1775 C 0.32441 0.66369 0.15844 0.0
C1776 C 0.39113 0.54113 0.04911 0.0
C1777 C 0.36996 0.55204 0.06029 0.0
C1778 C 0.34263 0.60824 0.05103 0.0
C1779 C 0.3315 0.64948 0.11377 0.0
C1780 C 0.32647 0.62494 0.09287 0.0
C1781 C 0.35421 0.56155 0.04561 0.0
C1782 C 0.33755 0.58015 0.05831 0.0
H1783 H 0.3862 0.70906 0.13409 0.0
H1784 H 0.37047 0.67702 0.09623 0.0
H1785 H 0.34332 0.65255 0.0628 0.0
H1786 H 0.38396 0.54495 0.9879 0.0
H1787 H 0.34693 0.56497 0.00761 0.0
C1788 C 0.33999 0.30374 0.19963 0.0
C1789 C 0.31802 0.31223 0.21306 0.0
C1790 C 0.35766 0.32078 0.18174 0.0
C1791 C 0.35856 0.37614 0.14107 0.0
H1792 H 0.43647 0.38053 0.12584 0.0
C1793 C 0.41758 0.41643 0.04926 0.0
C1794 C 0.44568 0.43499 0.04979 0.0
C1795 C 0.40388 0.40189 0.06993 0.0
C1796 C 0.41483 0.37979 0.12997 0.0
H1797 H 0.29857 0.34634 0.21981 0.0
H1798 H 0.32984 0.37668 0.18897 0.0
H1799 H 0.41001 0.35681 0.16203 0.0
H1800 H 0.48173 0.45196 0.07231 0.0
H1801 H 0.45764 0.4268 0.10867 0.0
H1802 H 0.36343 0.39964 0.10948 0.0
C1803 C 0.33291 0.35629 0.1916 0.0
C1804 C 0.39953 0.36588 0.15059 0.0
C1805 C 0.3151 0.33907 0.20939 0.0
C1806 C 0.4601 0.43775 0.07124 0.0
C1807 C 0.44626 0.42329 0.09209 0.0
C1808 C 0.37386 0.39014 0.1206 0.0
C1809 C 0.35403 0.34702 0.1771 0.0
C1810 C 0.37108 0.36359 0.15627 0.0
C1811 C 0.41775 0.40566 0.09188 0.0
C1812 C 0.40208 0.3918 0.1145 0.0
H1813 H 0.34277 0.2832 0.20212 0.0
H1814 H 0.37342 0.31269 0.17085 0.0
H1815 H 0.33665 0.37453 0.14457 0.0
H1816 H 0.40592 0.41344 0.03295 0.0
H1817 H 0.38222 0.38782 0.06872 0.0
C1818 C 0.8051 0.67522 0.70996 0.0
C1819 C 0.80166 0.70115 0.70426 0.0
C1820 C 0.82087 0.66045 0.69329 0.0
C1821 C 0.87519 0.67215 0.63874 0.0
H1822 H 0.85265 0.5868 0.62928 0.0
C1823 C 0.94629 0.61147 0.57883 0.0
C1824 C 0.93373 0.58486 0.56377 0.0
C1825 C 0.93009 0.62478 0.59626 0.0
C1826 C 0.85921 0.61066 0.63148 0.0
H1827 H 0.81328 0.7323 0.67682 0.0
H1828 H 0.83968 0.70646 0.64768 0.0
H1829 H 0.82482 0.61135 0.6586 0.0
H1830 H 0.89373 0.55146 0.55578 0.0
H1831 H 0.86546 0.5748 0.58588 0.0
H1832 H 0.90911 0.6716 0.61127 0.0
C1833 C 0.83047 0.69739 0.66504 0.0
C1834 C 0.84336 0.62483 0.64864 0.0
C1835 C 0.81483 0.71209 0.68167 0.0
C1836 C 0.90431 0.57189 0.56695 0.0
C1837 C 0.88804 0.58526 0.58442 0.0
C1838 C 0.89099 0.65802 0.62164 0.0
C1839 C 0.83385 0.67129 0.67049 0.0
C1840 C 0.85101 0.65586 0.65253 0.0
C1841 C 0.90063 0.61207 0.5993 0.0
C1842 C 0.88336 0.62701 0.61766 0.0
H1843 H 0.79539 0.66616 0.72722 0.0
H1844 H 0.82318 0.6407 0.69847 0.0
H1845 H 0.88219 0.69602 0.64127 0.0
H1846 H 0.96883 0.6222 0.57723 0.0
H1847 H 0.94085 0.64501 0.60756 0.0
C1848 C 0.31255 0.79347 0.67398 0.0
C1849 C 0.31703 0.7999 0.69962 0.0
C1850 C 0.33257 0.80857 0.65638 0.0
C1851 C 0.40634 0.85782 0.64673 0.0
H1852 H 0.37485 0.88662 0.59792 0.0
C1853 C 0.43777 0.95565 0.57867 0.0
C1854 C 0.45996 0.95105 0.5623 0.0
C1855 C 0.42372 0.93595 0.59587 0.0
C1856 C 0.38399 0.87868 0.61139 0.0
H1857 H 0.34572 0.82695 0.72713 0.0
H1858 H 0.38071 0.85375 0.69637 0.0
H1859 H 0.34365 0.85339 0.62629 0.0
H1860 H 0.48609 0.92322 0.55246 0.0
H1861 H 0.46129 0.88838 0.58297 0.0
H1862 H 0.44684 0.88414 0.63192 0.0
C1863 C 0.36204 0.83663 0.68978 0.0
C1864 C 0.36611 0.85938 0.6275 0.0
C1865 C 0.34197 0.82145 0.70739 0.0
C1866 C 0.46909 0.9273 0.56479 0.0
C1867 C 0.45487 0.90738 0.58219 0.0
C1868 C 0.42436 0.87712 0.63037 0.0
C1869 C 0.35736 0.83065 0.66408 0.0
C1870 C 0.37697 0.84907 0.64565 0.0
C1871 C 0.43139 0.91103 0.59721 0.0
C1872 C 0.41324 0.88824 0.61295 0.0
H1873 H 0.2936 0.77667 0.66754 0.0
H1874 H 0.3285 0.80316 0.6367 0.0
H1875 H 0.41532 0.85 0.66038 0.0
H1876 H 0.43054 0.97404 0.57761 0.0
H1877 H 0.40615 0.93971 0.60764 0.0
C1878 C 0.15676 0.30911 0.62383 0.0
C1879 C 0.17582 0.32416 0.64212 0.0
C1880 C 0.13729 0.32126 0.61775 0.0
C1881 C 0.1315 0.39275 0.61406 0.0
H1882 H 0.05401 0.34929 0.60053 0.0
C1883 C 0.06904 0.44628 0.56642 0.0
C1884 C 0.0523 0.4282 0.54744 0.0
C1885 C 0.07914 0.43391 0.58351 0.0
C1886 C 0.07566 0.36174 0.60401 0.0
H1887 H 0.18882 0.36312 0.66904 0.0
H1888 H 0.15501 0.3847 0.65808 0.0
H1889 H 0.08105 0.32624 0.62012 0.0
H1890 H 0.03169 0.38291 0.53241 0.0
H1891 H 0.05012 0.36136 0.56139 0.0
H1892 H 0.12713 0.42747 0.59664 0.0
C1893 C 0.15505 0.3634 0.64861 0.0
C1894 C 0.09107 0.34854 0.61539 0.0
C1895 C 0.17424 0.35099 0.65499 0.0
C1896 C 0.04444 0.39745 0.5469 0.0
C1897 C 0.05501 0.38507 0.56366 0.0
C1898 C 0.11631 0.40576 0.60233 0.0
C1899 C 0.13679 0.34893 0.62956 0.0
C1900 C 0.11927 0.36379 0.62021 0.0
C1901 C 0.07331 0.40317 0.58169 0.0
C1902 C 0.08827 0.39031 0.59676 0.0
H1903 H 0.15753 0.28834 0.61369 0.0
H1904 H 0.12364 0.30971 0.60286 0.0
H1905 H 0.15333 0.40488 0.61718 0.0
H1906 H 0.07518 0.47008 0.56751 0.0
H1907 H 0.09236 0.44861 0.59759 0.0
C1908 C 0.69927 0.19607 0.68296 0.0
C1909 C 0.72683 0.20012 0.68857 0.0
C1910 C 0.68828 0.1787 0.6613 0.0
C1911 C 0.67859 0.1607 0.60688 0.0
H1912 H 0.67803 0.08041 0.58674 0.0
C1913 C 0.61435 0.09477 0.52624 0.0
C1914 C 0.59638 0.06671 0.53118 0.0
C1915 C 0.63768 0.10925 0.54019 0.0
C1916 C 0.6781 0.10286 0.59206 0.0
H1917 H 0.76396 0.18765 0.67618 0.0
H1918 H 0.74441 0.15691 0.63788 0.0
H1919 H 0.70374 0.10937 0.62287 0.0
H1920 H 0.58991 0.03064 0.553 0.0
H1921 H 0.62987 0.0564 0.57824 0.0
H1922 H 0.65186 0.15424 0.57753 0.0
C1923 C 0.73157 0.16756 0.65047 0.0
C1924 C 0.69303 0.11949 0.61261 0.0
C1925 C 0.74273 0.18519 0.67233 0.0
C1926 C 0.60349 0.0523 0.54881 0.0
C1927 C 0.6265 0.06711 0.56324 0.0
C1928 C 0.66374 0.14423 0.58655 0.0
C1929 C 0.70443 0.16477 0.6445 0.0
C1930 C 0.69262 0.14827 0.62066 0.0
C1931 C 0.64305 0.09637 0.55994 0.0
C1932 C 0.66266 0.11482 0.57916 0.0
H1933 H 0.68609 0.20667 0.69514 0.0
H1934 H 0.66704 0.17637 0.65757 0.0
H1935 H 0.67825 0.183 0.61241 0.0
H1936 H 0.60954 0.10617 0.51247 0.0
H1937 H 0.65051 0.13133 0.53647 0.0
C1938 C 0.7931 0.29445 0.33031 0.0
C1939 C 0.78994 0.30726 0.30967 0.0
C1940 C 0.80625 0.31203 0.3511 0.0
C1941 C 0.83312 0.38872 0.38269 0.0
H1942 H 0.88606 0.35802 0.4059 0.0
C1943 C 0.91821 0.41162 0.46263 0.0
C1944 C 0.93524 0.44056 0.45935 0.0
C1945 C 0.89515 0.39754 0.44837 0.0
C1946 C 0.87102 0.36675 0.40006 0.0
H1947 H 0.79681 0.34861 0.29508 0.0
H1948 H 0.82072 0.37953 0.3313 0.0
H1949 H 0.85639 0.3294 0.37296 0.0
H1950 H 0.94015 0.47853 0.44038 0.0
H1951 H 0.90004 0.45357 0.41481 0.0
H1952 H 0.84881 0.42671 0.40959 0.0
C1953 C 0.8126 0.35585 0.33152 0.0
C1954 C 0.85395 0.35028 0.38108 0.0
C1955 C 0.79903 0.33816 0.31074 0.0
C1956 C 0.92728 0.45618 0.44326 0.0
C1957 C 0.90432 0.44187 0.42863 0.0
C1958 C 0.85042 0.40539 0.40177 0.0
C1959 C 0.81702 0.34288 0.35164 0.0
C1960 C 0.83466 0.36089 0.3722 0.0
C1961 C 0.88896 0.41191 0.43015 0.0
C1962 C 0.86944 0.39443 0.41074 0.0
H1963 H 0.7858 0.27071 0.33026 0.0
H1964 H 0.80858 0.30133 0.36656 0.0
H1965 H 0.81843 0.3975 0.37629 0.0
H1966 H 0.9237 0.39925 0.47519 0.0
H1967 H 0.88321 0.37471 0.4505 0.0
C1968 C 0.72448 0.8238 0.29327 0.0
C1969 C 0.7212 0.79406 0.29481 0.0
C1970 C 0.70924 0.83881 0.31008 0.0
C1971 C 0.6466 0.82579 0.357 0.0
H1972 H 0.67911 0.90983 0.37614 0.0
C1973 C 0.58044 0.89257 0.41587 0.0
C1974 C 0.59367 0.91679 0.43306 0.0
C1975 C 0.59616 0.8782 0.399 0.0
C1976 C 0.6697 0.88629 0.37133 0.0
H1977 H 0.69823 0.7568 0.31498 0.0
H1978 H 0.67321 0.78313 0.34521 0.0
H1979 H 0.70622 0.88377 0.3481 0.0
H1980 H 0.63416 0.94472 0.4458 0.0
H1981 H 0.66149 0.91919 0.41708 0.0
H1982 H 0.6106 0.82801 0.38108 0.0
C1983 C 0.68718 0.79493 0.33073 0.0
C1984 C 0.6852 0.8713 0.35477 0.0
C1985 C 0.7021 0.77984 0.31364 0.0
C1986 C 0.62318 0.92627 0.43279 0.0
C1987 C 0.63893 0.91163 0.41611 0.0
C1988 C 0.63125 0.8407 0.37376 0.0
C1989 C 0.69037 0.8247 0.32921 0.0
C1990 C 0.6739 0.84077 0.34722 0.0
C1991 C 0.62569 0.88726 0.39893 0.0
C1992 C 0.64242 0.87127 0.38116 0.0
H1993 H 0.73877 0.83559 0.27893 0.0
H1994 H 0.71202 0.86141 0.30773 0.0
H1995 H 0.63677 0.80245 0.35152 0.0
H1996 H 0.5578 0.88474 0.41527 0.0
H1997 H 0.58501 0.86009 0.38581 0.0
C1998 C 0.1846 0.69511 0.28737 0.0
C1999 C 0.21057 0.71483 0.29492 0.0
C2000 C 0.16525 0.67824 0.30465 0.0
C2001 C 0.16468 0.64865 0.36384 0.0
H2002 H 0.08355 0.62691 0.36519 0.0
C2003 C 0.09474 0.55396 0.41675 0.0
C2004 C 0.07239 0.55831 0.43309 0.0
C2005 C 0.10856 0.57349 0.39929 0.0
C2006 C 0.10616 0.63298 0.36514 0.0
H2007 H 0.23569 0.73427 0.32672 0.0
H2008 H 0.20214 0.70518 0.3568 0.0
H2009 H 0.11344 0.66166 0.33647 0.0
H2010 H 0.04598 0.58589 0.44269 0.0
H2011 H 0.07051 0.62056 0.41193 0.0
H2012 H 0.15774 0.62027 0.39232 0.0
C2013 C 0.19686 0.70199 0.33749 0.0
C2014 C 0.12329 0.65266 0.34855 0.0
C2015 C 0.21612 0.71869 0.32027 0.0
C2016 C 0.06314 0.58195 0.43046 0.0
C2017 C 0.0772 0.60179 0.41284 0.0
C2018 C 0.14768 0.62901 0.38021 0.0
C2019 C 0.17149 0.68093 0.32981 0.0
C2020 C 0.1528 0.66067 0.34768 0.0
C2021 C 0.10066 0.59821 0.3976 0.0
C2022 C 0.11821 0.62061 0.38093 0.0
H2023 H 0.17983 0.69172 0.26789 0.0
H2024 H 0.14599 0.66218 0.29805 0.0
H2025 H 0.18724 0.65394 0.36353 0.0
H2026 H 0.10211 0.53566 0.4178 0.0
H2027 H 0.12595 0.56952 0.38739 0.0
C2028 C 0.39452 0.156 0.30058 0.0
C2029 C 0.38528 0.18001 0.3104 0.0
C2030 C 0.40597 0.14274 0.3159 0.0
C2031 C 0.41651 0.10832 0.35404 0.0
H2032 H 0.46193 0.15661 0.40746 0.0
C2033 C 0.44923 0.05763 0.43078 0.0
C2034 C 0.47492 0.07253 0.44168 0.0
C2035 C 0.43994 0.07017 0.41326 0.0
C2036 C 0.44964 0.14279 0.39242 0.0
H2037 H 0.38065 0.20848 0.34442 0.0
H2038 H 0.39961 0.18466 0.37131 0.0
H2039 H 0.44228 0.17958 0.38049 0.0
H2040 H 0.51172 0.11175 0.44143 0.0
H2041 H 0.49586 0.13329 0.4103 0.0
H2042 H 0.4245 0.07167 0.36547 0.0
C2043 C 0.3986 0.1765 0.35155 0.0
C2044 C 0.43792 0.15594 0.37717 0.0
C2045 C 0.38728 0.18991 0.33617 0.0
C2046 C 0.49175 0.09969 0.43358 0.0
C2047 C 0.4825 0.1122 0.41588 0.0
C2048 C 0.42837 0.09522 0.36917 0.0
C2049 C 0.40834 0.15285 0.3416 0.0
C2050 C 0.42102 0.13888 0.35783 0.0
C2051 C 0.45615 0.0979 0.40589 0.0
C2052 C 0.44494 0.1122 0.38873 0.0
H2053 H 0.39295 0.14738 0.28094 0.0
H2054 H 0.41345 0.12483 0.30739 0.0
H2055 H 0.4034 0.09431 0.33958 0.0
H2056 H 0.4356 0.03669 0.4365 0.0
H2057 H 0.41944 0.05854 0.40631 0.0
C2058 C 0.6379 0.81081 0.66258 0.0
C2059 C 0.63967 0.82092 0.68832 0.0
C2060 C 0.62723 0.82439 0.64685 0.0
C2061 C 0.61148 0.89332 0.64303 0.0
H2062 H 0.56635 0.84519 0.58936 0.0
C2063 C 0.58305 0.94374 0.56365 0.0
C2064 C 0.55737 0.92935 0.55262 0.0
C2065 C 0.59136 0.93126 0.58184 0.0
C2066 C 0.57857 0.85898 0.60445 0.0
H2067 H 0.63212 0.85394 0.71744 0.0
H2068 H 0.61272 0.87687 0.69031 0.0
H2069 H 0.58424 0.82188 0.61741 0.0
H2070 H 0.5196 0.89115 0.55325 0.0
H2071 H 0.53374 0.86979 0.58551 0.0
H2072 H 0.60521 0.93033 0.63048 0.0
C2073 C 0.61992 0.85867 0.68213 0.0
C2074 C 0.58927 0.84562 0.62034 0.0
C2075 C 0.63073 0.8452 0.69782 0.0
C2076 C 0.53959 0.9028 0.56118 0.0
C2077 C 0.54785 0.89039 0.57955 0.0
C2078 C 0.60064 0.90666 0.62725 0.0
C2079 C 0.6179 0.8484 0.65643 0.0
C2080 C 0.60606 0.86261 0.63974 0.0
C2081 C 0.57413 0.90413 0.58973 0.0
C2082 C 0.58423 0.88972 0.60758 0.0
H2083 H 0.64427 0.792 0.65459 0.0
H2084 H 0.62644 0.81611 0.62711 0.0
H2085 H 0.62453 0.90724 0.65756 0.0
H2086 H 0.59737 0.96419 0.55756 0.0
H2087 H 0.61186 0.94241 0.58896 0.0
C2088 C 0.69805 0.16828 0.28222 0.0
C2089 C 0.70707 0.19884 0.28953 0.0
C2090 C 0.67889 0.14906 0.29787 0.0
C2091 C 0.62409 0.14457 0.34933 0.0
H2092 H 0.64556 0.08062 0.36636 0.0
C2093 C 0.56921 0.0774 0.43243 0.0
C2094 C 0.56982 0.04852 0.43106 0.0
C2095 C 0.58256 0.09474 0.4131 0.0
C2096 C 0.63872 0.09786 0.36145 0.0
H2097 H 0.70394 0.23304 0.3193 0.0
H2098 H 0.66955 0.19968 0.34605 0.0
H2099 H 0.67507 0.11226 0.33611 0.0
H2100 H 0.58249 0.01412 0.4079 0.0
H2101 H 0.60404 0.04338 0.37358 0.0
H2102 H 0.58752 0.13001 0.37443 0.0
C2103 C 0.67706 0.19064 0.32815 0.0
C2104 C 0.65584 0.11611 0.34416 0.0
C2105 C 0.69663 0.20974 0.31276 0.0
C2106 C 0.58209 0.03652 0.40944 0.0
C2107 C 0.59473 0.05347 0.38992 0.0
C2108 C 0.60663 0.12595 0.36638 0.0
C2109 C 0.66813 0.16009 0.32093 0.0
C2110 C 0.64885 0.13978 0.3381 0.0
C2111 C 0.59627 0.08323 0.3919 0.0
C2112 C 0.61381 0.10242 0.37282 0.0
H2113 H 0.70575 0.15924 0.2644 0.0
H2114 H 0.67234 0.12556 0.29189 0.0
H2115 H 0.61819 0.16265 0.34485 0.0
H2116 H 0.55998 0.08711 0.44907 0.0
H2117 H 0.58333 0.11755 0.41543 0.0
C2118 C 0.90364 0.67302 0.30444 0.0
C2119 C 0.87447 0.66783 0.30773 0.0
C2120 C 0.91713 0.66294 0.32058 0.0
C2121 C 0.90198 0.60894 0.36693 0.0
H2122 H 0.97835 0.65276 0.38381 0.0
C2123 C 0.95917 0.55995 0.42488 0.0
C2124 C 0.97555 0.57908 0.44362 0.0
C2125 C 0.94977 0.57112 0.40649 0.0
C2126 C 0.95694 0.64031 0.37947 0.0
H2127 H 0.8368 0.64816 0.33109 0.0
H2128 H 0.86043 0.63201 0.35985 0.0
H2129 H 0.95526 0.67259 0.35719 0.0
H2130 H 0.99609 0.62495 0.45706 0.0
H2131 H 0.97897 0.64454 0.42551 0.0
H2132 H 0.903 0.57745 0.39015 0.0
C2133 C 0.87285 0.64315 0.34433 0.0
C2134 C 0.94377 0.65152 0.36388 0.0
C2135 C 0.8593 0.6529 0.32802 0.0
C2136 C 0.9836 0.60965 0.44279 0.0
C2137 C 0.97377 0.62087 0.42462 0.0
C2138 C 0.91498 0.59794 0.38272 0.0
C2139 C 0.90191 0.64768 0.34067 0.0
C2140 C 0.91607 0.63599 0.3574 0.0
C2141 C 0.95604 0.60172 0.40664 0.0
C2142 C 0.94269 0.61338 0.38919 0.0
H2143 H 0.91619 0.6849 0.28935 0.0
H2144 H 0.93945 0.66666 0.31694 0.0
H2145 H 0.88084 0.59602 0.36209 0.0
H2146 H 0.95291 0.53626 0.42483 0.0
H2147 H 0.93697 0.55564 0.39251 0.0
C2148 C 0.29244 0.82402 0.31923 0.0
C2149 C 0.30739 0.80836 0.30265 0.0
C2150 C 0.30418 0.84082 0.34112 0.0
C2151 C 0.34221 0.88628 0.37977 0.0
H2152 H 0.3834 0.85014 0.41338 0.0
C2153 C 0.42982 0.95091 0.44591 0.0
C2154 C 0.43674 0.93559 0.46291 0.0
C2155 C 0.40717 0.93668 0.43099 0.0
C2156 C 0.37151 0.86048 0.40473 0.0
H2157 H 0.34698 0.7995 0.29533 0.0
H2158 H 0.36733 0.82879 0.33302 0.0
H2159 H 0.35786 0.82284 0.37759 0.0
H2160 H 0.4235 0.8951 0.48018 0.0
H2161 H 0.38311 0.87084 0.45527 0.0
H2162 H 0.35612 0.9241 0.40708 0.0
C2163 C 0.34631 0.82755 0.32956 0.0
C2164 C 0.35722 0.84491 0.38384 0.0
C2165 C 0.33466 0.81085 0.30785 0.0
C2166 C 0.41883 0.90718 0.46687 0.0
C2167 C 0.39585 0.89323 0.45242 0.0
C2168 C 0.35653 0.90196 0.40087 0.0
C2169 C 0.33101 0.84217 0.34674 0.0
C2170 C 0.34313 0.85789 0.37065 0.0
C2171 C 0.39082 0.9071 0.43319 0.0
C2172 C 0.37191 0.88946 0.41327 0.0
H2173 H 0.27138 0.82261 0.31574 0.0
H2174 H 0.29193 0.8519 0.354 0.0
H2175 H 0.33143 0.89682 0.37001 0.0
H2176 H 0.44334 0.97287 0.44251 0.0
H2177 H 0.404 0.94812 0.41642 0.0
C2178 C 0.2179 0.32446 0.28526 0.0
C2179 C 0.22335 0.3007 0.29332 0.0
C2180 C 0.20273 0.34051 0.30119 0.0
C2181 C 0.1822 0.3584 0.36863 0.0
H2182 H 0.12394 0.37963 0.34351 0.0
C2183 C 0.12408 0.43365 0.42967 0.0
C2184 C 0.09465 0.42446 0.42883 0.0
C2185 C 0.14047 0.41983 0.41281 0.0
C2186 C 0.14012 0.37388 0.35089 0.0
H2187 H 0.21536 0.2744 0.32412 0.0
H2188 H 0.1902 0.30285 0.35206 0.0
H2189 H 0.15089 0.35323 0.31492 0.0
H2190 H 0.05973 0.39359 0.40893 0.0
H2191 H 0.0882 0.37002 0.37954 0.0
H2192 H 0.1714 0.37897 0.40459 0.0
C2193 C 0.19799 0.30946 0.33358 0.0
C2194 C 0.15577 0.35892 0.33439 0.0
C2195 C 0.21267 0.29318 0.31754 0.0
C2196 C 0.08226 0.40136 0.41032 0.0
C2197 C 0.09866 0.38788 0.39327 0.0
C2198 C 0.16683 0.37374 0.38503 0.0
C2199 C 0.1928 0.33345 0.32572 0.0
C2200 C 0.17687 0.35065 0.34305 0.0
C2201 C 0.12802 0.39671 0.39433 0.0
C2202 C 0.14534 0.38149 0.3765 0.0
H2203 H 0.22557 0.33086 0.2667 0.0
H2204 H 0.19923 0.35884 0.29442 0.0
H2205 H 0.1984 0.35269 0.376 0.0
H2206 H 0.13447 0.45128 0.4436 0.0
H2207 H 0.16301 0.42746 0.41413 0.0
C2208 C 0.32849 0.21982 0.68 0.0
C2209 C 0.30696 0.20451 0.69667 0.0
C2210 C 0.34414 0.20517 0.66334 0.0
C2211 C 0.34477 0.12905 0.6363 0.0
H2212 H 0.42165 0.17195 0.61531 0.0
C2213 C 0.40926 0.07604 0.55942 0.0
C2214 C 0.4386 0.0847 0.56038 0.0
C2215 C 0.39322 0.09043 0.57596 0.0
C2216 C 0.40035 0.15932 0.62114 0.0
H2217 H 0.28609 0.1616 0.70955 0.0
H2218 H 0.31413 0.13644 0.68166 0.0
H2219 H 0.39469 0.19674 0.64463 0.0
H2220 H 0.47384 0.11496 0.58017 0.0
H2221 H 0.44603 0.13905 0.60952 0.0
H2222 H 0.35095 0.09121 0.61385 0.0
C2223 C 0.31821 0.15961 0.68047 0.0
C2224 C 0.38455 0.17385 0.63776 0.0
C2225 C 0.30222 0.1742 0.69678 0.0
C2226 C 0.45135 0.10784 0.57863 0.0
C2227 C 0.43529 0.12188 0.59544 0.0
C2228 C 0.36073 0.11439 0.61998 0.0
C2229 C 0.33935 0.17476 0.66327 0.0
C2230 C 0.3564 0.15905 0.64559 0.0
C2231 C 0.40593 0.11364 0.5943 0.0
C2232 C 0.38881 0.12926 0.612 0.0
H2233 H 0.33365 0.24332 0.68006 0.0
H2234 H 0.35991 0.21786 0.65041 0.0
H2235 H 0.32314 0.11675 0.64139 0.0
H2236 H 0.39869 0.05846 0.54553 0.0
H2237 H 0.37086 0.08358 0.57396 0.0
C2238 C 0.80648 0.30085 0.67574 0.0
C2239 C 0.81381 0.30171 0.70017 0.0
C2240 C 0.82563 0.31737 0.65834 0.0
C2241 C 0.86176 0.36986 0.63244 0.0
H2242 H 0.94138 0.37965 0.6254 0.0
C2243 C 0.93741 0.45997 0.57824 0.0
C2244 C 0.95666 0.45236 0.55994 0.0
C2245 C 0.92309 0.44122 0.59612 0.0
C2246 C 0.91918 0.37695 0.62706 0.0
H2247 H 0.84752 0.31965 0.72523 0.0
H2248 H 0.88114 0.34869 0.69478 0.0
H2249 H 0.90989 0.34643 0.65448 0.0
H2250 H 0.97737 0.41987 0.54709 0.0
H2251 H 0.95185 0.3865 0.57861 0.0
H2252 H 0.87069 0.40001 0.60513 0.0
C2253 C 0.8605 0.33514 0.68907 0.0
C2254 C 0.90118 0.35816 0.64387 0.0
C2255 C 0.84122 0.31859 0.70654 0.0
C2256 C 0.96264 0.42629 0.56096 0.0
C2257 C 0.94801 0.40721 0.57896 0.0
C2258 C 0.87965 0.3886 0.61585 0.0
C2259 C 0.85277 0.33511 0.66486 0.0
C2260 C 0.87223 0.35447 0.64679 0.0
C2261 C 0.92733 0.41408 0.59617 0.0
C2262 C 0.90862 0.39269 0.6131 0.0
H2263 H 0.78594 0.28723 0.66996 0.0
H2264 H 0.81912 0.31625 0.63972 0.0
H2265 H 0.83971 0.36789 0.63436 0.0
H2266 H 0.93271 0.48018 0.57828 0.0
H2267 H 0.90798 0.44765 0.60953 0.0
C2268 C 0.21887 0.6688 0.68786 0.0
C2269 C 0.23292 0.6991 0.68705 0.0
C2270 C 0.20624 0.65111 0.66669 0.0
C2271 C 0.17498 0.65883 0.61172 0.0
H2272 H 0.17311 0.57864 0.58855 0.0
C2273 C 0.1101 0.59691 0.53022 0.0
C2274 C 0.09224 0.56835 0.53374 0.0
C2275 C 0.13287 0.61065 0.54492 0.0
C2276 C 0.17337 0.60098 0.59486 0.0
H2277 H 0.24661 0.73425 0.66317 0.0
H2278 H 0.22476 0.70351 0.62635 0.0
H2279 H 0.20212 0.60684 0.62297 0.0
H2280 H 0.08531 0.53073 0.55379 0.0
H2281 H 0.1245 0.55513 0.58028 0.0
H2282 H 0.14561 0.65307 0.58472 0.0
C2283 C 0.22295 0.69346 0.64337 0.0
C2284 C 0.18997 0.61709 0.61454 0.0
C2285 C 0.23547 0.71105 0.66443 0.0
C2286 C 0.09889 0.55279 0.5507 0.0
C2287 C 0.12138 0.56681 0.56586 0.0
C2288 C 0.15836 0.6428 0.5923 0.0
C2289 C 0.20753 0.6635 0.64444 0.0
C2290 C 0.1909 0.6462 0.62314 0.0
C2291 C 0.13778 0.59643 0.56395 0.0
C2292 C 0.15728 0.61366 0.58354 0.0
H2293 H 0.21669 0.65909 0.70511 0.0
H2294 H 0.19437 0.62811 0.6681 0.0
H2295 H 0.17469 0.68096 0.61831 0.0
H2296 H 0.10559 0.6092 0.517 0.0
H2297 H 0.14568 0.6331 0.5423 0.0
loop_
_geom_bond_atom_site_label_1
_geom_bond_atom_site_label_2
_geom_bond_distance
_geom_bond_site_symmetry_2
_ccdc_geom_bond_type
Tb0 N29 2.617 . S
Tb0 N35 2.572 . S
Tb0 O44 2.465 . S
Tb0 O45 2.387 . S
Tb0 O47 2.428 . S
Tb0 O48 2.308 . S
Tb0 O52 2.349 . S
Tb0 O55 2.393 . S
Tb0 C64 2.802 . S
C1 N2 1.379 . S
C1 C4 1.416 . S
C1 C8 1.424 . S
N2 C1 1.379 . S
N2 C5 1.334 . S
N2 Tb11 2.617 . S
C3 C5 1.390 . S
C3 C6 1.339 . S
C3 H23 0.930 . S
C4 C1 1.416 . S
C4 C6 1.416 . S
C4 C10 1.448 . S
C5 N2 1.334 . S
C5 C3 1.390 . S
C5 H16 0.930 . S
C6 C3 1.339 . S
C6 C4 1.416 . S
C6 H27 0.930 . S
C7 C8 1.413 . S
C7 C9 1.427 . S
C7 C13 1.416 . S
C8 C1 1.424 . S
C8 C7 1.413 . S
C8 N12 1.361 . S
C9 C7 1.427 . S
C9 C10 1.328 . S
C9 H24 0.929 . S
C10 C4 1.448 . S
C10 C9 1.328 . S
C10 H25 0.930 . S
Tb11 N2 2.617 . S
Tb11 N12 2.572 . S
Tb11 O46 2.349 . S
Tb11 O49 2.393 . S
Tb11 O50 2.465 . S
Tb11 O51 2.387 . S
Tb11 O53 2.428 . S
Tb11 O54 2.308 . S
Tb11 C75 2.802 . S
N12 C8 1.361 . S
N12 Tb11 2.572 . S
N12 C14 1.340 . S
C13 C7 1.416 . S
C13 C15 1.332 . S
C13 H21 0.931 . S
C14 N12 1.340 . S
C14 C15 1.407 . S
C14 H20 0.930 . S
C15 C13 1.332 . S
C15 C14 1.407 . S
C15 H17 0.929 . S
H16 C5 0.930 . S
H17 C15 0.929 . S
H18 C33 0.930 . S
H19 C40 0.929 . S
H20 C14 0.930 . S
H21 C13 0.931 . S
H22 C36 0.930 . S
H23 C3 0.930 . S
H24 C9 0.929 . S
H25 C10 0.930 . S
H26 C31 0.930 . S
H27 C6 0.930 . S
H28 C39 0.931 . S
N29 Tb0 2.617 . S
N29 C30 1.379 . S
N29 C33 1.334 . S
C30 N29 1.379 . S
C30 C32 1.416 . S
C30 C38 1.424 . S
C31 H26 0.930 . S
C31 C33 1.390 . S
C31 C34 1.339 . S
C32 C30 1.416 . S
C32 C34 1.416 . S
C32 C65 1.448 . S
C33 H18 0.930 . S
C33 N29 1.334 . S
C33 C31 1.390 . S
C34 C31 1.339 . S
C34 C32 1.416 . S
C34 H41 0.930 . S
N35 Tb0 2.572 . S
N35 C36 1.340 . S
N35 C38 1.361 . S
C36 H22 0.930 . S
C36 N35 1.340 . S
C36 C40 1.407 . S
C37 C38 1.413 . S
C37 C39 1.416 . S
C37 C66 1.427 . S
C38 C30 1.424 . S
C38 N35 1.361 . S
C38 C37 1.413 . S
C39 H28 0.931 . S
C39 C37 1.416 . S
C39 C40 1.332 . S
C40 H19 0.929 . S
C40 C36 1.407 . S
C40 C39 1.332 . S
H41 C34 0.930 . S
H42 C65 0.930 . S
H43 C66 0.929 . S
O44 Tb0 2.465 . S
O44 C64 1.264 . S
O45 Tb0 2.387 . S
O45 C56 1.264 . S
O46 Tb11 2.349 . S
O46 C56 1.243 . S
O47 Tb0 2.428 . S
O47 C64 1.256 . S
O48 Tb0 2.308 . S
O48 C63 1.266 . S
O49 Tb11 2.393 . S
O49 C63 1.248 . S
O50 Tb11 2.465 . S
O50 C75 1.264 . S
O51 Tb11 2.387 . S
O51 C67 1.264 . S
O52 Tb0 2.349 . S
O52 C67 1.243 . S
O53 Tb11 2.428 . S
O53 C75 1.256 . S
O54 Tb11 2.308 . S
O54 C74 1.266 . S
O55 Tb0 2.393 . S
O55 C74 1.248 . S
C56 O45 1.264 . S
C56 O46 1.243 . S
C57 C60 1.399 . S
C57 C62 1.383 . S
C57 C64 1.496 . S
C58 C59 1.399 . S
C58 C62 1.389 . S
C59 C58 1.399 . S
C59 C61 1.380 . S
C59 H76 0.929 . S
C60 C57 1.399 . S
C60 C61 1.392 . S
C60 H77 0.929 . S
C61 C59 1.380 . S
C61 C60 1.392 . S
C61 H78 0.929 . S
C62 C57 1.383 . S
C62 C58 1.389 . S
C62 H79 0.931 . S
C63 O48 1.266 . S
C63 O49 1.248 . S
C64 Tb0 2.802 . S
C64 O44 1.264 . S
C64 O47 1.256 . S
C64 C57 1.496 . S
C65 C32 1.448 . S
C65 H42 0.930 . S
C65 C66 1.328 . S
C66 C37 1.427 . S
C66 H43 0.929 . S
C66 C65 1.328 . S
C67 O51 1.264 . S
C67 O52 1.243 . S
C68 C71 1.399 . S
C68 C72 1.383 . S
C68 C75 1.496 . S
C69 C70 1.399 . S
C69 C72 1.389 . S
C70 C69 1.399 . S
C70 C73 1.380 . S
C70 H80 0.929 . S
C71 C68 1.399 . S
C71 C73 1.392 . S
C71 H81 0.929 . S
C72 C68 1.383 . S
C72 C69 1.389 . S
C72 H82 0.931 . S
C73 C70 1.380 . S
C73 C71 1.392 . S
C73 H83 0.929 . S
C74 O54 1.266 . S
C74 O55 1.248 . S
C75 Tb11 2.802 . S
C75 O50 1.264 . S
C75 O53 1.256 . S
C75 C68 1.496 . S
H76 C59 0.929 . S
H77 C60 0.929 . S
H78 C61 0.929 . S
H79 C62 0.931 . S
H80 C70 0.929 . S
H81 C71 0.929 . S
H82 C72 0.931 . S
H83 C73 0.929 . S
Tb84 N113 2.617 . S
Tb84 N119 2.572 . S
Tb84 O128 2.465 . S
Tb84 O129 2.387 . S
Tb84 O131 2.428 . S
Tb84 O132 2.308 . S
Tb84 O136 2.349 . S
Tb84 O139 2.393 . S
Tb84 C148 2.802 . S
C85 N86 1.379 . S
C85 C88 1.416 . S
C85 C92 1.424 . S
N86 C85 1.379 . S
N86 C89 1.334 . S
N86 Tb95 2.617 . S
C87 C89 1.390 . S
C87 C90 1.339 . S
C87 H107 0.930 . S
C88 C85 1.416 . S
C88 C90 1.416 . S
C88 C94 1.448 . S
C89 N86 1.334 . S
C89 C87 1.390 . S
C89 H100 0.930 . S
C90 C87 1.339 . S
C90 C88 1.416 . S
C90 H111 0.930 . S
C91 C92 1.413 . S
C91 C93 1.427 . S
C91 C97 1.416 . S
C92 C85 1.424 . S
C92 C91 1.413 . S
C92 N96 1.361 . S
C93 C91 1.427 . S
C93 C94 1.328 . S
C93 H108 0.929 . S
C94 C88 1.448 . S
C94 C93 1.328 . S
C94 H109 0.930 . S
Tb95 N86 2.617 . S
Tb95 N96 2.572 . S
Tb95 O130 2.349 . S
Tb95 O133 2.393 . S
Tb95 O134 2.465 . S
Tb95 O135 2.387 . S
Tb95 O137 2.428 . S
Tb95 O138 2.308 . S
Tb95 C159 2.802 . S
N96 C92 1.361 . S
N96 Tb95 2.572 . S
N96 C98 1.340 . S
C97 C91 1.416 . S
C97 C99 1.332 . S
C97 H105 0.931 . S
C98 N96 1.340 . S
C98 C99 1.407 . S
C98 H104 0.930 . S
C99 C97 1.332 . S
C99 C98 1.407 . S
C99 H101 0.929 . S
H100 C89 0.930 . S
H101 C99 0.929 . S
H102 C117 0.930 . S
H103 C124 0.929 . S
H104 C98 0.930 . S
H105 C97 0.931 . S
H106 C120 0.930 . S
H107 C87 0.930 . S
H108 C93 0.929 . S
H109 C94 0.930 . S
H110 C115 0.930 . S
H111 C90 0.930 . S
H112 C123 0.931 . S
N113 Tb84 2.617 . S
N113 C114 1.379 . S
N113 C117 1.334 . S
C114 N113 1.379 . S
C114 C116 1.416 . S
C114 C122 1.424 . S
C115 H110 0.930 . S
C115 C117 1.390 . S
C115 C118 1.339 . S
C116 C114 1.416 . S
C116 C118 1.416 . S
C116 C149 1.448 . S
C117 H102 0.930 . S
C117 N113 1.334 . S
C117 C115 1.390 . S
C118 C115 1.339 . S
C118 C116 1.416 . S
C118 H125 0.930 . S
N119 Tb84 2.572 . S
N119 C120 1.340 . S
N119 C122 1.361 . S
C120 H106 0.930 . S
C120 N119 1.340 . S
C120 C124 1.407 . S
C121 C122 1.413 . S
C121 C123 1.416 . S
C121 C150 1.427 . S
C122 C114 1.424 . S
C122 N119 1.361 . S
C122 C121 1.413 . S
C123 H112 0.931 . S
C123 C121 1.416 . S
C123 C124 1.332 . S
C124 H103 0.929 . S
C124 C120 1.407 . S
C124 C123 1.332 . S
H125 C118 0.930 . S
H126 C149 0.930 . S
H127 C150 0.929 . S
O128 Tb84 2.465 . S
O128 C148 1.264 . S
O129 Tb84 2.387 . S
O129 C140 1.264 . S
O130 Tb95 2.349 . S
O130 C140 1.243 . S
O131 Tb84 2.428 . S
O131 C148 1.256 . S
O132 Tb84 2.308 . S
O132 C147 1.266 . S
O133 Tb95 2.393 . S
O133 C147 1.248 . S
O134 Tb95 2.465 . S
O134 C159 1.264 . S
O135 Tb95 2.387 . S
O135 C151 1.264 . S
O136 Tb84 2.349 . S
O136 C151 1.243 . S
O137 Tb95 2.428 . S
O137 C159 1.256 . S
O138 Tb95 2.308 . S
O138 C158 1.266 . S
O139 Tb84 2.393 . S
O139 C158 1.248 . S
C140 O129 1.264 . S
C140 O130 1.243 . S
C141 C144 1.399 . S
C141 C146 1.383 . S
C141 C148 1.496 . S
C142 C143 1.399 . S
C142 C146 1.389 . S
C143 C142 1.399 . S
C143 C145 1.380 . S
C143 H160 0.929 . S
C144 C141 1.399 . S
C144 C145 1.392 . S
C144 H161 0.929 . S
C145 C143 1.380 . S
C145 C144 1.392 . S
C145 H162 0.929 . S
C146 C141 1.383 . S
C146 C142 1.389 . S
C146 H163 0.931 . S
C147 O132 1.266 . S
C147 O133 1.248 . S
C148 Tb84 2.802 . S
C148 O128 1.264 . S
C148 O131 1.256 . S
C148 C141 1.496 . S
C149 C116 1.448 . S
C149 H126 0.930 . S
C149 C150 1.328 . S
C150 C121 1.427 . S
C150 H127 0.929 . S
C150 C149 1.328 . S
C151 O135 1.264 . S
C151 O136 1.243 . S
C152 C155 1.399 . S
C152 C156 1.383 . S
C152 C159 1.496 . S
C153 C154 1.399 . S
C153 C156 1.389 . S
C154 C153 1.399 . S
C154 C157 1.380 . S
C154 H164 0.929 . S
C155 C152 1.399 . S
C155 C157 1.392 . S
C155 H165 0.929 . S
C156 C152 1.383 . S
C156 C153 1.389 . S
C156 H166 0.931 . S
C157 C154 1.380 . S
C157 C155 1.392 . S
C157 H167 0.929 . S
C158 O138 1.266 . S
C158 O139 1.248 . S
C159 Tb95 2.802 . S
C159 O134 1.264 . S
C159 O137 1.256 . S
C159 C152 1.496 . S
H160 C143 0.929 . S
H161 C144 0.929 . S
H162 C145 0.929 . S
H163 C146 0.931 . S
H164 C154 0.929 . S
H165 C155 0.929 . S
H166 C156 0.931 . S
H167 C157 0.929 . S
Tb168 N197 2.617 . S
Tb168 N203 2.572 . S
Tb168 O212 2.465 . S
Tb168 O213 2.387 . S
Tb168 O215 2.428 . S
Tb168 O216 2.308 . S
Tb168 O220 2.349 . S
Tb168 O223 2.393 . S
Tb168 C232 2.802 . S
C169 N170 1.379 . S
C169 C172 1.416 . S
C169 C176 1.424 . S
N170 C169 1.379 . S
N170 C173 1.334 . S
N170 Tb179 2.617 . S
C171 C173 1.390 . S
C171 C174 1.339 . S
C171 H191 0.930 . S
C172 C169 1.416 . S
C172 C174 1.416 . S
C172 C178 1.448 . S
C173 N170 1.334 . S
C173 C171 1.390 . S
C173 H184 0.930 . S
C174 C171 1.339 . S
C174 C172 1.416 . S
C174 H195 0.930 . S
C175 C176 1.413 . S
C175 C177 1.427 . S
C175 C181 1.416 . S
C176 C169 1.424 . S
C176 C175 1.413 . S
C176 N180 1.361 . S
C177 C175 1.427 . S
C177 C178 1.328 . S
C177 H192 0.929 . S
C178 C172 1.448 . S
C178 C177 1.328 . S
C178 H193 0.930 . S
Tb179 N170 2.617 . S
Tb179 N180 2.572 . S
Tb179 O214 2.349 . S
Tb179 O217 2.393 . S
Tb179 O218 2.465 . S
Tb179 O219 2.387 . S
Tb179 O221 2.428 . S
Tb179 O222 2.308 . S
Tb179 C243 2.802 . S
N180 C176 1.361 . S
N180 Tb179 2.572 . S
N180 C182 1.340 . S
C181 C175 1.416 . S
C181 C183 1.332 . S
C181 H189 0.931 . S
C182 N180 1.340 . S
C182 C183 1.407 . S
C182 H188 0.930 . S
C183 C181 1.332 . S
C183 C182 1.407 . S
C183 H185 0.929 . S
H184 C173 0.930 . S
H185 C183 0.929 . S
H186 C201 0.930 . S
H187 C208 0.929 . S
H188 C182 0.930 . S
H189 C181 0.931 . S
H190 C204 0.930 . S
H191 C171 0.930 . S
H192 C177 0.929 . S
H193 C178 0.930 . S
H194 C199 0.930 . S
H195 C174 0.930 . S
H196 C207 0.931 . S
N197 Tb168 2.617 . S
N197 C198 1.379 . S
N197 C201 1.334 . S
C198 N197 1.379 . S
C198 C200 1.416 . S
C198 C206 1.424 . S
C199 H194 0.930 . S
C199 C201 1.390 . S
C199 C202 1.339 . S
C200 C198 1.416 . S
C200 C202 1.416 . S
C200 C233 1.448 . S
C201 H186 0.930 . S
C201 N197 1.334 . S
C201 C199 1.390 . S
C202 C199 1.339 . S
C202 C200 1.416 . S
C202 H209 0.930 . S
N203 Tb168 2.572 . S
N203 C204 1.340 . S
N203 C206 1.361 . S
C204 H190 0.930 . S
C204 N203 1.340 . S
C204 C208 1.407 . S
C205 C206 1.413 . S
C205 C207 1.416 . S
C205 C234 1.427 . S
C206 C198 1.424 . S
C206 N203 1.361 . S
C206 C205 1.413 . S
C207 H196 0.931 . S
C207 C205 1.416 . S
C207 C208 1.332 . S
C208 H187 0.929 . S
C208 C204 1.407 . S
C208 C207 1.332 . S
H209 C202 0.930 . S
H210 C233 0.930 . S
H211 C234 0.929 . S
O212 Tb168 2.465 . S
O212 C232 1.264 . S
O213 Tb168 2.387 . S
O213 C224 1.264 . S
O214 Tb179 2.349 . S
O214 C224 1.243 . S
O215 Tb168 2.428 . S
O215 C232 1.256 . S
O216 Tb168 2.308 . S
O216 C231 1.266 . S
O217 Tb179 2.393 . S
O217 C231 1.248 . S
O218 Tb179 2.465 . S
O218 C243 1.264 . S
O219 Tb179 2.387 . S
O219 C235 1.264 . S
O220 Tb168 2.349 . S
O220 C235 1.243 . S
O221 Tb179 2.428 . S
O221 C243 1.256 . S
O222 Tb179 2.308 . S
O222 C242 1.266 . S
O223 Tb168 2.393 . S
O223 C242 1.248 . S
C224 O213 1.264 . S
C224 O214 1.243 . S
C225 C228 1.399 . S
C225 C230 1.383 . S
C225 C232 1.496 . S
C226 C227 1.399 . S
C226 C230 1.389 . S
C227 C226 1.399 . S
C227 C229 1.380 . S
C227 H244 0.929 . S
C228 C225 1.399 . S
C228 C229 1.392 . S
C228 H245 0.929 . S
C229 C227 1.380 . S
C229 C228 1.392 . S
C229 H246 0.929 . S
C230 C225 1.383 . S
C230 C226 1.389 . S
C230 H247 0.931 . S
C231 O216 1.266 . S
C231 O217 1.248 . S
C232 Tb168 2.802 . S
C232 O212 1.264 . S
C232 O215 1.256 . S
C232 C225 1.496 . S
C233 C200 1.448 . S
C233 H210 0.930 . S
C233 C234 1.328 . S
C234 C205 1.427 . S
C234 H211 0.929 . S
C234 C233 1.328 . S
C235 O219 1.264 . S
C235 O220 1.243 . S
C236 C239 1.399 . S
C236 C240 1.383 . S
C236 C243 1.496 . S
C237 C238 1.399 . S
C237 C240 1.389 . S
C238 C237 1.399 . S
C238 C241 1.380 . S
C238 H248 0.929 . S
C239 C236 1.399 . S
C239 C241 1.392 . S
C239 H249 0.929 . S
C240 C236 1.383 . S
C240 C237 1.389 . S
C240 H250 0.931 . S
C241 C238 1.380 . S
C241 C239 1.392 . S
C241 H251 0.929 . S
C242 O222 1.266 . S
C242 O223 1.248 . S
C243 Tb179 2.802 . S
C243 O218 1.264 . S
C243 O221 1.256 . S
C243 C236 1.496 . S
H244 C227 0.929 . S
H245 C228 0.929 . S
H246 C229 0.929 . S
H247 C230 0.931 . S
H248 C238 0.929 . S
H249 C239 0.929 . S
H250 C240 0.931 . S
H251 C241 0.929 . S
Tb252 N281 2.617 . S
Tb252 N287 2.572 . S
Tb252 O296 2.465 . S
Tb252 O297 2.387 . S
Tb252 O299 2.428 . S
Tb252 O300 2.308 . S
Tb252 O304 2.349 . S
Tb252 O307 2.393 . S
Tb252 C316 2.802 . S
C253 N254 1.379 . S
C253 C256 1.416 . S
C253 C260 1.424 . S
N254 C253 1.379 . S
N254 C257 1.334 . S
N254 Tb263 2.617 . S
C255 C257 1.390 . S
C255 C258 1.339 . S
C255 H275 0.930 . S
C256 C253 1.416 . S
C256 C258 1.416 . S
C256 C262 1.448 . S
C257 N254 1.334 . S
C257 C255 1.390 . S
C257 H268 0.930 . S
C258 C255 1.339 . S
C258 C256 1.416 . S
C258 H279 0.930 . S
C259 C260 1.413 . S
C259 C261 1.427 . S
C259 C265 1.416 . S
C260 C253 1.424 . S
C260 C259 1.413 . S
C260 N264 1.361 . S
C261 C259 1.427 . S
C261 C262 1.328 . S
C261 H276 0.929 . S
C262 C256 1.448 . S
C262 C261 1.328 . S
C262 H277 0.930 . S
Tb263 N254 2.617 . S
Tb263 N264 2.572 . S
Tb263 O298 2.349 . S
Tb263 O301 2.393 . S
Tb263 O302 2.465 . S
Tb263 O303 2.387 . S
Tb263 O305 2.428 . S
Tb263 O306 2.308 . S
Tb263 C327 2.802 . S
N264 C260 1.361 . S
N264 Tb263 2.572 . S
N264 C266 1.340 . S
C265 C259 1.416 . S
C265 C267 1.332 . S
C265 H273 0.931 . S
C266 N264 1.340 . S
C266 C267 1.407 . S
C266 H272 0.930 . S
C267 C265 1.332 . S
C267 C266 1.407 . S
C267 H269 0.929 . S
H268 C257 0.930 . S
H269 C267 0.929 . S
H270 C285 0.930 . S
H271 C292 0.929 . S
H272 C266 0.930 . S
H273 C265 0.931 . S
H274 C288 0.930 . S
H275 C255 0.930 . S
H276 C261 0.929 . S
H277 C262 0.930 . S
H278 C283 0.930 . S
H279 C258 0.930 . S
H280 C291 0.931 . S
N281 Tb252 2.617 . S
N281 C282 1.379 . S
N281 C285 1.334 . S
C282 N281 1.379 . S
C282 C284 1.416 . S
C282 C290 1.424 . S
C283 H278 0.930 . S
C283 C285 1.390 . S
C283 C286 1.339 . S
C284 C282 1.416 . S
C284 C286 1.416 . S
C284 C317 1.448 . S
C285 H270 0.930 . S
C285 N281 1.334 . S
C285 C283 1.390 . S
C286 C283 1.339 . S
C286 C284 1.416 . S
C286 H293 0.930 . S
N287 Tb252 2.572 . S
N287 C288 1.340 . S
N287 C290 1.361 . S
C288 H274 0.930 . S
C288 N287 1.340 . S
C288 C292 1.407 . S
C289 C290 1.413 . S
C289 C291 1.416 . S
C289 C318 1.427 . S
C290 C282 1.424 . S
C290 N287 1.361 . S
C290 C289 1.413 . S
C291 H280 0.931 . S
C291 C289 1.416 . S
C291 C292 1.332 . S
C292 H271 0.929 . S
C292 C288 1.407 . S
C292 C291 1.332 . S
H293 C286 0.930 . S
H294 C317 0.930 . S
H295 C318 0.929 . S
O296 Tb252 2.465 . S
O296 C316 1.264 . S
O297 Tb252 2.387 . S
O297 C308 1.264 . S
O298 Tb263 2.349 . S
O298 C308 1.243 . S
O299 Tb252 2.428 . S
O299 C316 1.256 . S
O300 Tb252 2.308 . S
O300 C315 1.266 . S
O301 Tb263 2.393 . S
O301 C315 1.248 . S
O302 Tb263 2.465 . S
O302 C327 1.264 . S
O303 Tb263 2.387 . S
O303 C319 1.264 . S
O304 Tb252 2.349 . S
O304 C319 1.243 . S
O305 Tb263 2.428 . S
O305 C327 1.256 . S
O306 Tb263 2.308 . S
O306 C326 1.266 . S
O307 Tb252 2.393 . S
O307 C326 1.248 . S
C308 O297 1.264 . S
C308 O298 1.243 . S
C309 C312 1.399 . S
C309 C314 1.383 . S
C309 C316 1.496 . S
C310 C311 1.399 . S
C310 C314 1.389 . S
C311 C310 1.399 . S
C311 C313 1.380 . S
C311 H328 0.929 . S
C312 C309 1.399 . S
C312 C313 1.392 . S
C312 H329 0.929 . S
C313 C311 1.380 . S
C313 C312 1.392 . S
C313 H330 0.929 . S
C314 C309 1.383 . S
C314 C310 1.389 . S
C314 H331 0.931 . S
C315 O300 1.266 . S
C315 O301 1.248 . S
C316 Tb252 2.802 . S
C316 O296 1.264 . S
C316 O299 1.256 . S
C316 C309 1.496 . S
C317 C284 1.448 . S
C317 H294 0.930 . S
C317 C318 1.328 . S
C318 C289 1.427 . S
C318 H295 0.929 . S
C318 C317 1.328 . S
C319 O303 1.264 . S
C319 O304 1.243 . S
C320 C323 1.399 . S
C320 C324 1.383 . S
C320 C327 1.496 . S
C321 C322 1.399 . S
C321 C324 1.389 . S
C322 C321 1.399 . S
C322 C325 1.380 . S
C322 H332 0.929 . S
C323 C320 1.399 . S
C323 C325 1.392 . S
C323 H333 0.929 . S
C324 C320 1.383 . S
C324 C321 1.389 . S
C324 H334 0.931 . S
C325 C322 1.380 . S
C325 C323 1.392 . S
C325 H335 0.929 . S
C326 O306 1.266 . S
C326 O307 1.248 . S
C327 Tb263 2.802 . S
C327 O302 1.264 . S
C327 O305 1.256 . S
C327 C320 1.496 . S
H328 C311 0.929 . S
H329 C312 0.929 . S
H330 C313 0.929 . S
H331 C314 0.931 . S
H332 C322 0.929 . S
H333 C323 0.929 . S
H334 C324 0.931 . S
H335 C325 0.929 . S
Tb336 N365 2.617 . S
Tb336 N371 2.572 . S
Tb336 O380 2.465 . S
Tb336 O381 2.387 . S
Tb336 O383 2.428 . S
Tb336 O384 2.308 . S
Tb336 O388 2.349 . S
Tb336 O391 2.393 . S
Tb336 C400 2.802 . S
C337 N338 1.379 . S
C337 C340 1.416 . S
C337 C344 1.424 . S
N338 C337 1.379 . S
N338 C341 1.334 . S
N338 Tb347 2.617 . S
C339 C341 1.390 . S
C339 C342 1.339 . S
C339 H359 0.930 . S
C340 C337 1.416 . S
C340 C342 1.416 . S
C340 C346 1.448 . S
C341 N338 1.334 . S
C341 C339 1.390 . S
C341 H352 0.930 . S
C342 C339 1.339 . S
C342 C340 1.416 . S
C342 H363 0.930 . S
C343 C344 1.413 . S
C343 C345 1.427 . S
C343 C349 1.416 . S
C344 C337 1.424 . S
C344 C343 1.413 . S
C344 N348 1.361 . S
C345 C343 1.427 . S
C345 C346 1.328 . S
C345 H360 0.929 . S
C346 C340 1.448 . S
C346 C345 1.328 . S
C346 H361 0.930 . S
Tb347 N338 2.617 . S
Tb347 N348 2.572 . S
Tb347 O382 2.349 . S
Tb347 O385 2.393 . S
Tb347 O386 2.465 . S
Tb347 O387 2.387 . S
Tb347 O389 2.428 . S
Tb347 O390 2.308 . S
Tb347 C411 2.802 . S
N348 C344 1.361 . S
N348 Tb347 2.572 . S
N348 C350 1.340 . S
C349 C343 1.416 . S
C349 C351 1.332 . S
C349 H357 0.931 . S
C350 N348 1.340 . S
C350 C351 1.407 . S
C350 H356 0.930 . S
C351 C349 1.332 . S
C351 C350 1.407 . S
C351 H353 0.929 . S
H352 C341 0.930 . S
H353 C351 0.929 . S
H354 C369 0.930 . S
H355 C376 0.929 . S
H356 C350 0.930 . S
H357 C349 0.931 . S
H358 C372 0.930 . S
H359 C339 0.930 . S
H360 C345 0.929 . S
H361 C346 0.930 . S
H362 C367 0.930 . S
H363 C342 0.930 . S
H364 C375 0.931 . S
N365 Tb336 2.617 . S
N365 C366 1.379 . S
N365 C369 1.334 . S
C366 N365 1.379 . S
C366 C368 1.416 . S
C366 C374 1.424 . S
C367 H362 0.930 . S
C367 C369 1.390 . S
C367 C370 1.339 . S
C368 C366 1.416 . S
C368 C370 1.416 . S
C368 C401 1.448 . S
C369 H354 0.930 . S
C369 N365 1.334 . S
C369 C367 1.390 . S
C370 C367 1.339 . S
C370 C368 1.416 . S
C370 H377 0.930 . S
N371 Tb336 2.572 . S
N371 C372 1.340 . S
N371 C374 1.361 . S
C372 H358 0.930 . S
C372 N371 1.340 . S
C372 C376 1.407 . S
C373 C374 1.413 . S
C373 C375 1.416 . S
C373 C402 1.427 . S
C374 C366 1.424 . S
C374 N371 1.361 . S
C374 C373 1.413 . S
C375 H364 0.931 . S
C375 C373 1.416 . S
C375 C376 1.332 . S
C376 H355 0.929 . S
C376 C372 1.407 . S
C376 C375 1.332 . S
H377 C370 0.930 . S
H378 C401 0.930 . S
H379 C402 0.929 . S
O380 Tb336 2.465 . S
O380 C400 1.264 . S
O381 Tb336 2.387 . S
O381 C392 1.264 . S
O382 Tb347 2.349 . S
O382 C392 1.243 . S
O383 Tb336 2.428 . S
O383 C400 1.256 . S
O384 Tb336 2.308 . S
O384 C399 1.266 . S
O385 Tb347 2.393 . S
O385 C399 1.248 . S
O386 Tb347 2.465 . S
O386 C411 1.264 . S
O387 Tb347 2.387 . S
O387 C403 1.264 . S
O388 Tb336 2.349 . S
O388 C403 1.243 . S
O389 Tb347 2.428 . S
O389 C411 1.256 . S
O390 Tb347 2.308 . S
O390 C410 1.266 . S
O391 Tb336 2.393 . S
O391 C410 1.248 . S
C392 O381 1.264 . S
C392 O382 1.243 . S
C393 C396 1.399 . S
C393 C398 1.383 . S
C393 C400 1.496 . S
C394 C395 1.399 . S
C394 C398 1.389 . S
C395 C394 1.399 . S
C395 C397 1.380 . S
C395 H412 0.929 . S
C396 C393 1.399 . S
C396 C397 1.392 . S
C396 H413 0.929 . S
C397 C395 1.380 . S
C397 C396 1.392 . S
C397 H414 0.929 . S
C398 C393 1.383 . S
C398 C394 1.389 . S
C398 H415 0.931 . S
C399 O384 1.266 . S
C399 O385 1.248 . S
C400 Tb336 2.802 . S
C400 O380 1.264 . S
C400 O383 1.256 . S
C400 C393 1.496 . S
C401 C368 1.448 . S
C401 H378 0.930 . S
C401 C402 1.328 . S
C402 C373 1.427 . S
C402 H379 0.929 . S
C402 C401 1.328 . S
C403 O387 1.264 . S
C403 O388 1.243 . S
C404 C407 1.399 . S
C404 C408 1.383 . S
C404 C411 1.496 . S
C405 C406 1.399 . S
C405 C408 1.389 . S
C406 C405 1.399 . S
C406 C409 1.380 . S
C406 H416 0.929 . S
C407 C404 1.399 . S
C407 C409 1.392 . S
C407 H417 0.929 . S
C408 C404 1.383 . S
C408 C405 1.389 . S
C408 H418 0.931 . S
C409 C406 1.380 . S
C409 C407 1.392 . S
C409 H419 0.929 . S
C410 O390 1.266 . S
C410 O391 1.248 . S
C411 Tb347 2.802 . S
C411 O386 1.264 . S
C411 O389 1.256 . S
C411 C404 1.496 . S
H412 C395 0.929 . S
H413 C396 0.929 . S
H414 C397 0.929 . S
H415 C398 0.931 . S
H416 C406 0.929 . S
H417 C407 0.929 . S
H418 C408 0.931 . S
H419 C409 0.929 . S
Tb420 N449 2.617 . S
Tb420 N455 2.572 . S
Tb420 O464 2.465 . S
Tb420 O465 2.387 . S
Tb420 O467 2.428 . S
Tb420 O468 2.308 . S
Tb420 O472 2.349 . S
Tb420 O475 2.393 . S
Tb420 C484 2.802 . S
C421 N422 1.379 . S
C421 C424 1.416 . S
C421 C428 1.424 . S
N422 C421 1.379 . S
N422 C425 1.334 . S
N422 Tb431 2.617 . S
C423 C425 1.390 . S
C423 C426 1.339 . S
C423 H443 0.930 . S
C424 C421 1.416 . S
C424 C426 1.416 . S
C424 C430 1.448 . S
C425 N422 1.334 . S
C425 C423 1.390 . S
C425 H436 0.930 . S
C426 C423 1.339 . S
C426 C424 1.416 . S
C426 H447 0.930 . S
C427 C428 1.413 . S
C427 C429 1.427 . S
C427 C433 1.416 . S
C428 C421 1.424 . S
C428 C427 1.413 . S
C428 N432 1.361 . S
C429 C427 1.427 . S
C429 C430 1.328 . S
C429 H444 0.929 . S
C430 C424 1.448 . S
C430 C429 1.328 . S
C430 H445 0.930 . S
Tb431 N422 2.617 . S
Tb431 N432 2.572 . S
Tb431 O466 2.349 . S
Tb431 O469 2.393 . S
Tb431 O470 2.465 . S
Tb431 O471 2.387 . S
Tb431 O473 2.428 . S
Tb431 O474 2.308 . S
Tb431 C495 2.802 . S
N432 C428 1.361 . S
N432 Tb431 2.572 . S
N432 C434 1.340 . S
C433 C427 1.416 . S
C433 C435 1.332 . S
C433 H441 0.931 . S
C434 N432 1.340 . S
C434 C435 1.407 . S
C434 H440 0.930 . S
C435 C433 1.332 . S
C435 C434 1.407 . S
C435 H437 0.929 . S
H436 C425 0.930 . S
H437 C435 0.929 . S
H438 C453 0.930 . S
H439 C460 0.929 . S
H440 C434 0.930 . S
H441 C433 0.931 . S
H442 C456 0.930 . S
H443 C423 0.930 . S
H444 C429 0.929 . S
H445 C430 0.930 . S
H446 C451 0.930 . S
H447 C426 0.930 . S
H448 C459 0.931 . S
N449 Tb420 2.617 . S
N449 C450 1.379 . S
N449 C453 1.334 . S
C450 N449 1.379 . S
C450 C452 1.416 . S
C450 C458 1.424 . S
C451 H446 0.930 . S
C451 C453 1.390 . S
C451 C454 1.339 . S
C452 C450 1.416 . S
C452 C454 1.416 . S
C452 C485 1.448 . S
C453 H438 0.930 . S
C453 N449 1.334 . S
C453 C451 1.390 . S
C454 C451 1.339 . S
C454 C452 1.416 . S
C454 H461 0.930 . S
N455 Tb420 2.572 . S
N455 C456 1.340 . S
N455 C458 1.361 . S
C456 H442 0.930 . S
C456 N455 1.340 . S
C456 C460 1.407 . S
C457 C458 1.413 . S
C457 C459 1.416 . S
C457 C486 1.427 . S
C458 C450 1.424 . S
C458 N455 1.361 . S
C458 C457 1.413 . S
C459 H448 0.931 . S
C459 C457 1.416 . S
C459 C460 1.332 . S
C460 H439 0.929 . S
C460 C456 1.407 . S
C460 C459 1.332 . S
H461 C454 0.930 . S
H462 C485 0.930 . S
H463 C486 0.929 . S
O464 Tb420 2.465 . S
O464 C484 1.264 . S
O465 Tb420 2.387 . S
O465 C476 1.264 . S
O466 Tb431 2.349 . S
O466 C476 1.243 . S
O467 Tb420 2.428 . S
O467 C484 1.256 . S
O468 Tb420 2.308 . S
O468 C483 1.266 . S
O469 Tb431 2.393 . S
O469 C483 1.248 . S
O470 Tb431 2.465 . S
O470 C495 1.264 . S
O471 Tb431 2.387 . S
O471 C487 1.264 . S
O472 Tb420 2.349 . S
O472 C487 1.243 . S
O473 Tb431 2.428 . S
O473 C495 1.256 . S
O474 Tb431 2.308 . S
O474 C494 1.266 . S
O475 Tb420 2.393 . S
O475 C494 1.248 . S
C476 O465 1.264 . S
C476 O466 1.243 . S
C477 C480 1.399 . S
C477 C482 1.383 . S
C477 C484 1.496 . S
C478 C479 1.399 . S
C478 C482 1.389 . S
C479 C478 1.399 . S
C479 C481 1.380 . S
C479 H496 0.929 . S
C480 C477 1.399 . S
C480 C481 1.392 . S
C480 H497 0.929 . S
C481 C479 1.380 . S
C481 C480 1.392 . S
C481 H498 0.929 . S
C482 C477 1.383 . S
C482 C478 1.389 . S
C482 H499 0.931 . S
C483 O468 1.266 . S
C483 O469 1.248 . S
C484 Tb420 2.802 . S
C484 O464 1.264 . S
C484 O467 1.256 . S
C484 C477 1.496 . S
C485 C452 1.448 . S
C485 H462 0.930 . S
C485 C486 1.328 . S
C486 C457 1.427 . S
C486 H463 0.929 . S
C486 C485 1.328 . S
C487 O471 1.264 . S
C487 O472 1.243 . S
C488 C491 1.399 . S
C488 C492 1.383 . S
C488 C495 1.496 . S
C489 C490 1.399 . S
C489 C492 1.389 . S
C490 C489 1.399 . S
C490 C493 1.380 . S
C490 H500 0.929 . S
C491 C488 1.399 . S
C491 C493 1.392 . S
C491 H501 0.929 . S
C492 C488 1.383 . S
C492 C489 1.389 . S
C492 H502 0.931 . S
C493 C490 1.380 . S
C493 C491 1.392 . S
C493 H503 0.929 . S
C494 O474 1.266 . S
C494 O475 1.248 . S
C495 Tb431 2.802 . S
C495 O470 1.264 . S
C495 O473 1.256 . S
C495 C488 1.496 . S
H496 C479 0.929 . S
H497 C480 0.929 . S
H498 C481 0.929 . S
H499 C482 0.931 . S
H500 C490 0.929 . S
H501 C491 0.929 . S
H502 C492 0.931 . S
H503 C493 0.929 . S
Tb504 N533 2.617 . S
Tb504 N539 2.572 . S
Tb504 O548 2.465 . S
Tb504 O549 2.387 . S
Tb504 O551 2.428 . S
Tb504 O552 2.308 . S
Tb504 O556 2.349 . S
Tb504 O559 2.393 . S
Tb504 C568 2.802 . S
C505 N506 1.379 . S
C505 C508 1.416 . S
C505 C512 1.424 . S
N506 C505 1.379 . S
N506 C509 1.334 . S
N506 Tb515 2.617 . S
C507 C509 1.390 . S
C507 C510 1.339 . S
C507 H527 0.930 . S
C508 C505 1.416 . S
C508 C510 1.416 . S
C508 C514 1.448 . S
C509 N506 1.334 . S
C509 C507 1.390 . S
C509 H520 0.930 . S
C510 C507 1.339 . S
C510 C508 1.416 . S
C510 H531 0.930 . S
C511 C512 1.413 . S
C511 C513 1.427 . S
C511 C517 1.416 . S
C512 C505 1.424 . S
C512 C511 1.413 . S
C512 N516 1.361 . S
C513 C511 1.427 . S
C513 C514 1.328 . S
C513 H528 0.929 . S
C514 C508 1.448 . S
C514 C513 1.328 . S
C514 H529 0.930 . S
Tb515 N506 2.617 . S
Tb515 N516 2.572 . S
Tb515 O550 2.349 . S
Tb515 O553 2.393 . S
Tb515 O554 2.465 . S
Tb515 O555 2.387 . S
Tb515 O557 2.428 . S
Tb515 O558 2.308 . S
Tb515 C579 2.802 . S
N516 C512 1.361 . S
N516 Tb515 2.572 . S
N516 C518 1.340 . S
C517 C511 1.416 . S
C517 C519 1.332 . S
C517 H525 0.931 . S
C518 N516 1.340 . S
C518 C519 1.407 . S
C518 H524 0.930 . S
C519 C517 1.332 . S
C519 C518 1.407 . S
C519 H521 0.929 . S
H520 C509 0.930 . S
H521 C519 0.929 . S
H522 C537 0.930 . S
H523 C544 0.929 . S
H524 C518 0.930 . S
H525 C517 0.931 . S
H526 C540 0.930 . S
H527 C507 0.930 . S
H528 C513 0.929 . S
H529 C514 0.930 . S
H530 C535 0.930 . S
H531 C510 0.930 . S
H532 C543 0.931 . S
N533 Tb504 2.617 . S
N533 C534 1.379 . S
N533 C537 1.334 . S
C534 N533 1.379 . S
C534 C536 1.416 . S
C534 C542 1.424 . S
C535 H530 0.930 . S
C535 C537 1.390 . S
C535 C538 1.339 . S
C536 C534 1.416 . S
C536 C538 1.416 . S
C536 C569 1.448 . S
C537 H522 0.930 . S
C537 N533 1.334 . S
C537 C535 1.390 . S
C538 C535 1.339 . S
C538 C536 1.416 . S
C538 H545 0.930 . S
N539 Tb504 2.572 . S
N539 C540 1.340 . S
N539 C542 1.361 . S
C540 H526 0.930 . S
C540 N539 1.340 . S
C540 C544 1.407 . S
C541 C542 1.413 . S
C541 C543 1.416 . S
C541 C570 1.427 . S
C542 C534 1.424 . S
C542 N539 1.361 . S
C542 C541 1.413 . S
C543 H532 0.931 . S
C543 C541 1.416 . S
C543 C544 1.332 . S
C544 H523 0.929 . S
C544 C540 1.407 . S
C544 C543 1.332 . S
H545 C538 0.930 . S
H546 C569 0.930 . S
H547 C570 0.929 . S
O548 Tb504 2.465 . S
O548 C568 1.264 . S
O549 Tb504 2.387 . S
O549 C560 1.264 . S
O550 Tb515 2.349 . S
O550 C560 1.243 . S
O551 Tb504 2.428 . S
O551 C568 1.256 . S
O552 Tb504 2.308 . S
O552 C567 1.266 . S
O553 Tb515 2.393 . S
O553 C567 1.248 . S
O554 Tb515 2.465 . S
O554 C579 1.264 . S
O555 Tb515 2.387 . S
O555 C571 1.264 . S
O556 Tb504 2.349 . S
O556 C571 1.243 . S
O557 Tb515 2.428 . S
O557 C579 1.256 . S
O558 Tb515 2.308 . S
O558 C578 1.266 . S
O559 Tb504 2.393 . S
O559 C578 1.248 . S
C560 O549 1.264 . S
C560 O550 1.243 . S
C561 C564 1.399 . S
C561 C566 1.383 . S
C561 C568 1.496 . S
C562 C563 1.399 . S
C562 C566 1.389 . S
C563 C562 1.399 . S
C563 C565 1.380 . S
C563 H580 0.929 . S
C564 C561 1.399 . S
C564 C565 1.392 . S
C564 H581 0.929 . S
C565 C563 1.380 . S
C565 C564 1.392 . S
C565 H582 0.929 . S
C566 C561 1.383 . S
C566 C562 1.389 . S
C566 H583 0.931 . S
C567 O552 1.266 . S
C567 O553 1.248 . S
C568 Tb504 2.802 . S
C568 O548 1.264 . S
C568 O551 1.256 . S
C568 C561 1.496 . S
C569 C536 1.448 . S
C569 H546 0.930 . S
C569 C570 1.328 . S
C570 C541 1.427 . S
C570 H547 0.929 . S
C570 C569 1.328 . S
C571 O555 1.264 . S
C571 O556 1.243 . S
C572 C575 1.399 . S
C572 C576 1.383 . S
C572 C579 1.496 . S
C573 C574 1.399 . S
C573 C576 1.389 . S
C574 C573 1.399 . S
C574 C577 1.380 . S
C574 H584 0.929 . S
C575 C572 1.399 . S
C575 C577 1.392 . S
C575 H585 0.929 . S
C576 C572 1.383 . S
C576 C573 1.389 . S
C576 H586 0.931 . S
C577 C574 1.380 . S
C577 C575 1.392 . S
C577 H587 0.929 . S
C578 O558 1.266 . S
C578 O559 1.248 . S
C579 Tb515 2.802 . S
C579 O554 1.264 . S
C579 O557 1.256 . S
C579 C572 1.496 . S
H580 C563 0.929 . S
H581 C564 0.929 . S
H582 C565 0.929 . S
H583 C566 0.931 . S
H584 C574 0.929 . S
H585 C575 0.929 . S
H586 C576 0.931 . S
H587 C577 0.929 . S
Tb588 N617 2.617 . S
Tb588 N623 2.572 . S
Tb588 O632 2.465 . S
Tb588 O633 2.387 . S
Tb588 O635 2.428 . S
Tb588 O636 2.308 . S
Tb588 O640 2.349 . S
Tb588 O643 2.393 . S
Tb588 C652 2.802 . S
C589 N590 1.379 . S
C589 C592 1.416 . S
C589 C596 1.424 . S
N590 C589 1.379 . S
N590 C593 1.334 . S
N590 Tb599 2.617 . S
C591 C593 1.390 . S
C591 C594 1.339 . S
C591 H611 0.930 . S
C592 C589 1.416 . S
C592 C594 1.416 . S
C592 C598 1.448 . S
C593 N590 1.334 . S
C593 C591 1.390 . S
C593 H604 0.930 . S
C594 C591 1.339 . S
C594 C592 1.416 . S
C594 H615 0.930 . S
C595 C596 1.413 . S
C595 C597 1.427 . S
C595 C601 1.416 . S
C596 C589 1.424 . S
C596 C595 1.413 . S
C596 N600 1.361 . S
C597 C595 1.427 . S
C597 C598 1.328 . S
C597 H612 0.929 . S
C598 C592 1.448 . S
C598 C597 1.328 . S
C598 H613 0.930 . S
Tb599 N590 2.617 . S
Tb599 N600 2.572 . S
Tb599 O634 2.349 . S
Tb599 O637 2.393 . S
Tb599 O638 2.465 . S
Tb599 O639 2.387 . S
Tb599 O641 2.428 . S
Tb599 O642 2.308 . S
Tb599 C663 2.802 . S
N600 C596 1.361 . S
N600 Tb599 2.572 . S
N600 C602 1.340 . S
C601 C595 1.416 . S
C601 C603 1.332 . S
C601 H609 0.931 . S
C602 N600 1.340 . S
C602 C603 1.407 . S
C602 H608 0.930 . S
C603 C601 1.332 . S
C603 C602 1.407 . S
C603 H605 0.929 . S
H604 C593 0.930 . S
H605 C603 0.929 . S
H606 C621 0.930 . S
H607 C628 0.929 . S
H608 C602 0.930 . S
H609 C601 0.931 . S
H610 C624 0.930 . S
H611 C591 0.930 . S
H612 C597 0.929 . S
H613 C598 0.930 . S
H614 C619 0.930 . S
H615 C594 0.930 . S
H616 C627 0.931 . S
N617 Tb588 2.617 . S
N617 C618 1.379 . S
N617 C621 1.334 . S
C618 N617 1.379 . S
C618 C620 1.416 . S
C618 C626 1.424 . S
C619 H614 0.930 . S
C619 C621 1.390 . S
C619 C622 1.339 . S
C620 C618 1.416 . S
C620 C622 1.416 . S
C620 C653 1.448 . S
C621 H606 0.930 . S
C621 N617 1.334 . S
C621 C619 1.390 . S
C622 C619 1.339 . S
C622 C620 1.416 . S
C622 H629 0.930 . S
N623 Tb588 2.572 . S
N623 C624 1.340 . S
N623 C626 1.361 . S
C624 H610 0.930 . S
C624 N623 1.340 . S
C624 C628 1.407 . S
C625 C626 1.413 . S
C625 C627 1.416 . S
C625 C654 1.427 . S
C626 C618 1.424 . S
C626 N623 1.361 . S
C626 C625 1.413 . S
C627 H616 0.931 . S
C627 C625 1.416 . S
C627 C628 1.332 . S
C628 H607 0.929 . S
C628 C624 1.407 . S
C628 C627 1.332 . S
H629 C622 0.930 . S
H630 C653 0.930 . S
H631 C654 0.929 . S
O632 Tb588 2.465 . S
O632 C652 1.264 . S
O633 Tb588 2.387 . S
O633 C644 1.264 . S
O634 Tb599 2.349 . S
O634 C644 1.243 . S
O635 Tb588 2.428 . S
O635 C652 1.256 . S
O636 Tb588 2.308 . S
O636 C651 1.266 . S
O637 Tb599 2.393 . S
O637 C651 1.248 . S
O638 Tb599 2.465 . S
O638 C663 1.264 . S
O639 Tb599 2.387 . S
O639 C655 1.264 . S
O640 Tb588 2.349 . S
O640 C655 1.243 . S
O641 Tb599 2.428 . S
O641 C663 1.256 . S
O642 Tb599 2.308 . S
O642 C662 1.266 . S
O643 Tb588 2.393 . S
O643 C662 1.248 . S
C644 O633 1.264 . S
C644 O634 1.243 . S
C645 C648 1.399 . S
C645 C650 1.383 . S
C645 C652 1.496 . S
C646 C647 1.399 . S
C646 C650 1.389 . S
C647 C646 1.399 . S
C647 C649 1.380 . S
C647 H664 0.929 . S
C648 C645 1.399 . S
C648 C649 1.392 . S
C648 H665 0.929 . S
C649 C647 1.380 . S
C649 C648 1.392 . S
C649 H666 0.929 . S
C650 C645 1.383 . S
C650 C646 1.389 . S
C650 H667 0.931 . S
C651 O636 1.266 . S
C651 O637 1.248 . S
C652 Tb588 2.802 . S
C652 O632 1.264 . S
C652 O635 1.256 . S
C652 C645 1.496 . S
C653 C620 1.448 . S
C653 H630 0.930 . S
C653 C654 1.328 . S
C654 C625 1.427 . S
C654 H631 0.929 . S
C654 C653 1.328 . S
C655 O639 1.264 . S
C655 O640 1.243 . S
C656 C659 1.399 . S
C656 C660 1.383 . S
C656 C663 1.496 . S
C657 C658 1.399 . S
C657 C660 1.389 . S
C658 C657 1.399 . S
C658 C661 1.380 . S
C658 H668 0.929 . S
C659 C656 1.399 . S
C659 C661 1.392 . S
C659 H669 0.929 . S
C660 C656 1.383 . S
C660 C657 1.389 . S
C660 H670 0.931 . S
C661 C658 1.380 . S
C661 C659 1.392 . S
C661 H671 0.929 . S
C662 O642 1.266 . S
C662 O643 1.248 . S
C663 Tb599 2.802 . S
C663 O638 1.264 . S
C663 O641 1.256 . S
C663 C656 1.496 . S
H664 C647 0.929 . S
H665 C648 0.929 . S
H666 C649 0.929 . S
H667 C650 0.931 . S
H668 C658 0.929 . S
H669 C659 0.929 . S
H670 C660 0.931 . S
H671 C661 0.929 . S
C672 O684 1.241 . S
C672 O685 1.280 . S
C673 O686 1.277 . S
C673 O687 1.245 . S
C674 O698 1.247 . S
C674 O700 1.289 . S
Mg675 O676 1.926 . S
Mg675 O685 1.984 . S
Mg675 O687 1.988 . S
Mg675 O688 2.061 1_655 S
O676 Mg675 1.926 . S
O676 Mg677 1.986 1_545 S
O676 Mg678 1.917 1_655 S
Mg677 O676 1.986 1_565 S
Mg677 O684 2.041 1_565 S
Mg677 O686 2.040 1_565 S
Mg677 O692 2.040 . S
Mg677 O700 2.239 . S
Mg678 O676 1.917 1_455 S
Mg678 O679 1.917 1_545 S
Mg678 O689 2.106 . S
Mg678 O691 2.079 1_445 S
Mg678 O700 2.106 1_445 S
Mg678 O701 2.079 . S
O679 Mg678 1.917 1_565 S
O679 Mg680 1.926 . S
O679 Mg681 1.984 1_565 S
Mg680 O679 1.926 . S
Mg680 O694 1.984 . S
Mg680 O697 1.988 . S
Mg680 O698 2.061 1_455 S
Mg681 O679 1.984 1_545 S
Mg681 O689 2.245 . S
Mg681 O693 2.035 1_545 S
Mg681 O695 2.033 1_545 S
Mg681 O702 2.047 . S
C682 O688 1.247 . S
C682 O689 1.289 . S
C683 O701 1.245 . S
C683 O702 1.274 . S
O684 C672 1.241 . S
O684 Mg677 2.041 1_545 S
O685 C672 1.280 . S
O685 Mg675 1.984 . S
O686 C673 1.277 . S
O686 Mg677 2.040 1_545 S
O687 C673 1.245 . S
O687 Mg675 1.988 . S
O688 Mg675 2.061 1_455 S
O688 C682 1.247 . S
O689 Mg678 2.106 . S
O689 Mg681 2.245 . S
O689 C682 1.289 . S
C690 O691 1.245 . S
C690 O692 1.274 . S
O691 Mg678 2.079 1_665 S
O691 C690 1.245 . S
O692 Mg677 2.040 . S
O692 C690 1.274 . S
O693 Mg681 2.035 1_565 S
O693 C696 1.241 . S
O694 Mg680 1.984 . S
O694 C696 1.280 . S
O695 Mg681 2.033 1_565 S
O695 C699 1.277 . S
C696 O693 1.241 . S
C696 O694 1.280 . S
O697 Mg680 1.988 . S
O697 C699 1.245 . S
O698 C674 1.247 . S
O698 Mg680 2.061 1_655 S
C699 O695 1.277 . S
C699 O697 1.245 . S
O700 C674 1.289 . S
O700 Mg677 2.239 . S
O700 Mg678 2.106 1_665 S
O701 Mg678 2.079 . S
O701 C683 1.245 . S
O702 Mg681 2.047 . S
O702 C683 1.274 . S
C703 O715 1.241 . S
C703 O716 1.280 . S
C704 O717 1.277 . S
C704 O718 1.245 . S
C705 O729 1.247 . S
C705 O731 1.289 . S
Mg706 O707 1.926 . S
Mg706 O716 1.984 . S
Mg706 O718 1.988 1_554 S
Mg706 O719 2.061 . S
O707 Mg706 1.926 . S
O707 Mg708 1.986 1_545 S
O707 Mg709 1.917 . S
Mg708 O707 1.986 1_565 S
Mg708 O715 2.041 1_565 S
Mg708 O717 2.040 1_564 S
Mg708 O723 2.040 . S
Mg708 O731 2.239 1_554 S
Mg709 O707 1.917 . S
Mg709 O710 1.917 1_544 S
Mg709 O720 2.106 . S
Mg709 O722 2.079 1_545 S
Mg709 O731 2.106 1_544 S
Mg709 O732 2.079 1_554 S
O710 Mg709 1.917 1_566 S
O710 Mg711 1.926 . S
O710 Mg712 1.984 1_565 S
Mg711 O710 1.926 . S
Mg711 O725 1.984 . S
Mg711 O728 1.988 1_556 S
Mg711 O729 2.061 . S
Mg712 O710 1.984 1_545 S
Mg712 O720 2.245 1_556 S
Mg712 O724 2.035 1_545 S
Mg712 O726 2.033 1_546 S
Mg712 O733 2.047 . S
C713 O719 1.247 . S
C713 O720 1.289 . S
C714 O732 1.245 . S
C714 O733 1.274 . S
O715 C703 1.241 . S
O715 Mg708 2.041 1_545 S
O716 C703 1.280 . S
O716 Mg706 1.984 . S
O717 C704 1.277 . S
O717 Mg708 2.040 1_546 S
O718 C704 1.245 . S
O718 Mg706 1.988 1_556 S
O719 Mg706 2.061 . S
O719 C713 1.247 . S
O720 Mg709 2.106 . S
O720 Mg712 2.245 1_554 S
O720 C713 1.289 . S
C721 O722 1.245 . S
C721 O723 1.274 . S
O722 Mg709 2.079 1_565 S
O722 C721 1.245 . S
O723 Mg708 2.040 . S
O723 C721 1.274 . S
O724 Mg712 2.035 1_565 S
O724 C727 1.241 . S
O725 Mg711 1.984 . S
O725 C727 1.280 . S
O726 Mg712 2.033 1_564 S
O726 C730 1.277 . S
C727 O724 1.241 . S
C727 O725 1.280 . S
O728 Mg711 1.988 1_554 S
O728 C730 1.245 . S
O729 C705 1.247 . S
O729 Mg711 2.061 . S
C730 O726 1.277 . S
C730 O728 1.245 . S
O731 C705 1.289 . S
O731 Mg708 2.239 1_556 S
O731 Mg709 2.106 1_566 S
O732 Mg709 2.079 1_556 S
O732 C714 1.245 . S
O733 Mg712 2.047 . S
O733 C714 1.274 . S
C734 O746 1.241 . S
C734 O747 1.280 . S
C735 O748 1.277 . S
C735 O749 1.245 . S
C736 O760 1.247 . S
C736 O762 1.289 . S
Mg737 O738 1.926 . S
Mg737 O747 1.984 . S
Mg737 O749 1.988 1_554 S
Mg737 O750 2.061 1_655 S
O738 Mg737 1.926 . S
O738 Mg739 1.986 . S
O738 Mg740 1.917 1_655 S
Mg739 O738 1.986 . S
Mg739 O746 2.042 . S
Mg739 O748 2.041 1_554 S
Mg739 O754 2.038 . S
Mg739 O762 2.238 1_554 S
Mg740 O738 1.917 1_455 S
Mg740 O741 1.917 1_554 S
Mg740 O751 2.106 . S
Mg740 O753 2.079 1_455 S
Mg740 O762 2.106 1_454 S
Mg740 O763 2.079 1_554 S
O741 Mg740 1.917 1_556 S
O741 Mg742 1.926 . S
O741 Mg743 1.986 . S
Mg742 O741 1.926 . S
Mg742 O756 1.984 . S
Mg742 O759 1.988 1_556 S
Mg742 O760 2.061 1_455 S
Mg743 O741 1.986 . S
Mg743 O751 2.238 1_556 S
Mg743 O755 2.042 . S
Mg743 O757 2.041 1_556 S
Mg743 O764 2.038 . S
C744 O750 1.247 . S
C744 O751 1.289 . S
C745 O763 1.245 . S
C745 O764 1.274 . S
O746 C734 1.241 . S
O746 Mg739 2.042 . S
O747 C734 1.280 . S
O747 Mg737 1.984 . S
O748 C735 1.277 . S
O748 Mg739 2.041 1_556 S
O749 C735 1.245 . S
O749 Mg737 1.988 1_556 S
O750 Mg737 2.061 1_455 S
O750 C744 1.247 . S
O751 Mg740 2.106 . S
O751 Mg743 2.238 1_554 S
O751 C744 1.289 . S
C752 O753 1.245 . S
C752 O754 1.274 . S
O753 Mg740 2.079 1_655 S
O753 C752 1.245 . S
O754 Mg739 2.038 . S
O754 C752 1.274 . S
O755 Mg743 2.042 . S
O755 C758 1.241 . S
O756 Mg742 1.984 . S
O756 C758 1.280 . S
O757 Mg743 2.041 1_554 S
O757 C761 1.277 . S
C758 O755 1.241 . S
C758 O756 1.280 . S
O759 Mg742 1.988 1_554 S
O759 C761 1.245 . S
O760 C736 1.247 . S
O760 Mg742 2.061 1_655 S
C761 O757 1.277 . S
C761 O759 1.245 . S
O762 C736 1.289 . S
O762 Mg739 2.238 1_556 S
O762 Mg740 2.106 1_656 S
O763 Mg740 2.079 1_556 S
O763 C745 1.245 . S
O764 Mg743 2.038 . S
O764 C745 1.274 . S
C765 O777 1.241 . S
C765 O778 1.280 . S
C766 O779 1.277 . S
C766 O780 1.245 . S
C767 O791 1.247 . S
C767 O793 1.289 . S
Mg768 O769 1.926 . S
Mg768 O778 1.984 . S
Mg768 O780 1.988 1_554 S
Mg768 O781 2.061 . S
O769 Mg768 1.926 . S
O769 Mg770 1.986 . S
O769 Mg771 1.917 . S
Mg770 O769 1.986 . S
Mg770 O777 2.042 . S
Mg770 O779 2.041 1_554 S
Mg770 O785 2.038 . S
Mg770 O793 2.238 1_554 S
Mg771 O769 1.917 . S
Mg771 O772 1.917 1_554 S
Mg771 O782 2.106 . S
Mg771 O784 2.079 . S
Mg771 O793 2.106 1_554 S
Mg771 O794 2.079 1_554 S
O772 Mg771 1.917 1_556 S
O772 Mg773 1.926 . S
O772 Mg774 1.986 . S
Mg773 O772 1.926 . S
Mg773 O787 1.984 . S
Mg773 O790 1.988 1_556 S
Mg773 O791 2.061 . S
Mg774 O772 1.986 . S
Mg774 O782 2.238 1_556 S
Mg774 O786 2.042 . S
Mg774 O788 2.041 1_556 S
Mg774 O795 2.038 . S
C775 O781 1.247 . S
C775 O782 1.289 . S
C776 O794 1.245 . S
C776 O795 1.274 . S
O777 C765 1.241 . S
O777 Mg770 2.042 . S
O778 C765 1.280 . S
O778 Mg768 1.984 . S
O779 C766 1.277 . S
O779 Mg770 2.041 1_556 S
O780 C766 1.245 . S
O780 Mg768 1.988 1_556 S
O781 Mg768 2.061 . S
O781 C775 1.247 . S
O782 Mg771 2.106 . S
O782 Mg774 2.238 1_554 S
O782 C775 1.289 . S
C783 O784 1.245 . S
C783 O785 1.274 . S
O784 Mg771 2.079 . S
O784 C783 1.245 . S
O785 Mg770 2.038 . S
O785 C783 1.274 . S
O786 Mg774 2.042 . S
O786 C789 1.241 . S
O787 Mg773 1.984 . S
O787 C789 1.280 . S
O788 Mg774 2.041 1_554 S
O788 C792 1.277 . S
C789 O786 1.241 . S
C789 O787 1.280 . S
O790 Mg773 1.988 1_554 S
O790 C792 1.245 . S
O791 C767 1.247 . S
O791 Mg773 2.061 . S
C792 O788 1.277 . S
C792 O790 1.245 . S
O793 C767 1.289 . S
O793 Mg770 2.238 1_556 S
O793 Mg771 2.106 1_556 S
O794 Mg771 2.079 1_556 S
O794 C776 1.245 . S
O795 Mg774 2.038 . S
O795 C776 1.274 . S
C796 O808 1.241 . S
C796 O809 1.280 . S
C797 O810 1.277 . S
C797 O811 1.245 . S
C798 O822 1.247 . S
C798 O824 1.289 . S
Mg799 O800 1.926 . S
Mg799 O809 1.984 . S
Mg799 O811 1.988 . S
Mg799 O812 2.061 1_655 S
O800 Mg799 1.926 . S
O800 Mg801 1.986 . S
O800 Mg802 1.917 1_655 S
Mg801 O800 1.986 . S
Mg801 O808 2.042 . S
Mg801 O810 2.041 . S
Mg801 O816 2.038 . S
Mg801 O824 2.238 . S
Mg802 O800 1.917 1_455 S
Mg802 O803 1.917 . S
Mg802 O813 2.106 . S
Mg802 O815 2.079 1_455 S
Mg802 O824 2.106 1_455 S
Mg802 O825 2.079 . S
O803 Mg802 1.917 . S
O803 Mg804 1.926 . S
O803 Mg805 1.986 . S
Mg804 O803 1.926 . S
Mg804 O818 1.984 . S
Mg804 O821 1.988 . S
Mg804 O822 2.061 1_455 S
Mg805 O803 1.986 . S
Mg805 O813 2.238 . S
Mg805 O817 2.042 . S
Mg805 O819 2.041 . S
Mg805 O826 2.038 . S
C806 O812 1.247 . S
C806 O813 1.289 . S
C807 O825 1.245 . S
C807 O826 1.274 . S
O808 C796 1.241 . S
O808 Mg801 2.042 . S
O809 C796 1.280 . S
O809 Mg799 1.984 . S
O810 C797 1.277 . S
O810 Mg801 2.041 . S
O811 C797 1.245 . S
O811 Mg799 1.988 . S
O812 Mg799 2.061 1_455 S
O812 C806 1.247 . S
O813 Mg802 2.106 . S
O813 Mg805 2.238 . S
O813 C806 1.289 . S
C814 O815 1.245 . S
C814 O816 1.274 . S
O815 Mg802 2.079 1_655 S
O815 C814 1.245 . S
O816 Mg801 2.038 . S
O816 C814 1.274 . S
O817 Mg805 2.042 . S
O817 C820 1.241 . S
O818 Mg804 1.984 . S
O818 C820 1.280 . S
O819 Mg805 2.041 . S
O819 C823 1.277 . S
C820 O817 1.241 . S
C820 O818 1.280 . S
O821 Mg804 1.988 . S
O821 C823 1.245 . S
O822 C798 1.247 . S
O822 Mg804 2.061 1_655 S
C823 O819 1.277 . S
C823 O821 1.245 . S
O824 C798 1.289 . S
O824 Mg801 2.238 . S
O824 Mg802 2.106 1_655 S
O825 Mg802 2.079 . S
O825 C807 1.245 . S
O826 Mg805 2.038 . S
O826 C807 1.274 . S
C827 O839 1.241 . S
C827 O840 1.280 . S
C828 O841 1.277 . S
C828 O842 1.245 . S
C829 O853 1.247 . S
C829 O855 1.289 . S
Mg830 O831 1.926 . S
Mg830 O840 1.984 . S
Mg830 O842 1.988 . S
Mg830 O843 2.061 . S
O831 Mg830 1.926 . S
O831 Mg832 1.986 1_545 S
O831 Mg833 1.917 . S
Mg832 O831 1.986 1_565 S
Mg832 O839 2.041 1_565 S
Mg832 O841 2.040 1_565 S
Mg832 O847 2.040 . S
Mg832 O855 2.239 . S
Mg833 O831 1.917 . S
Mg833 O834 1.917 1_545 S
Mg833 O844 2.106 . S
Mg833 O846 2.079 1_545 S
Mg833 O855 2.106 1_545 S
Mg833 O856 2.079 . S
O834 Mg833 1.917 1_565 S
O834 Mg835 1.926 . S
O834 Mg836 1.984 1_565 S
Mg835 O834 1.926 . S
Mg835 O849 1.984 . S
Mg835 O852 1.988 . S
Mg835 O853 2.061 . S
Mg836 O834 1.984 1_545 S
Mg836 O844 2.245 . S
Mg836 O848 2.035 1_545 S
Mg836 O850 2.033 1_545 S
Mg836 O857 2.047 . S
C837 O843 1.247 . S
C837 O844 1.289 . S
C838 O856 1.245 . S
C838 O857 1.274 . S
O839 C827 1.241 . S
O839 Mg832 2.041 1_545 S
O840 C827 1.280 . S
O840 Mg830 1.984 . S
O841 C828 1.277 . S
O841 Mg832 2.040 1_545 S
O842 C828 1.245 . S
O842 Mg830 1.988 . S
O843 Mg830 2.061 . S
O843 C837 1.247 . S
O844 Mg833 2.106 . S
O844 Mg836 2.245 . S
O844 C837 1.289 . S
C845 O846 1.245 . S
C845 O847 1.274 . S
O846 Mg833 2.079 1_565 S
O846 C845 1.245 . S
O847 Mg832 2.040 . S
O847 C845 1.274 . S
O848 Mg836 2.035 1_565 S
O848 C851 1.241 . S
O849 Mg835 1.984 . S
O849 C851 1.280 . S
O850 Mg836 2.033 1_565 S
O850 C854 1.277 . S
C851 O848 1.241 . S
C851 O849 1.280 . S
O852 Mg835 1.988 . S
O852 C854 1.245 . S
O853 C829 1.247 . S
O853 Mg835 2.061 . S
C854 O850 1.277 . S
C854 O852 1.245 . S
O855 C829 1.289 . S
O855 Mg832 2.239 . S
O855 Mg833 2.106 1_565 S
O856 Mg833 2.079 . S
O856 C838 1.245 . S
O857 Mg836 2.047 . S
O857 C838 1.274 . S
C858 C859 1.349 . S
C858 C860 1.327 . S
C858 H883 0.950 . S
C859 C858 1.349 . S
C859 C875 1.349 . S
C860 C858 1.327 . S
C860 C879 1.429 . S
C860 H884 0.950 . S
C861 C878 1.574 . S
C861 C880 1.368 . S
C861 H885 0.949 . S
H862 C866 0.949 . S
C863 C864 1.349 . S
C863 C865 1.327 . S
C863 H886 0.950 . S
C864 C863 1.349 . S
C864 C876 1.349 . S
C865 C863 1.327 . S
C865 C881 1.429 . S
C865 H887 0.950 . S
C866 H862 0.949 . S
C866 C874 1.574 . S
C866 C882 1.368 . S
H867 C875 0.950 . S
H868 C873 0.950 . S
H869 C874 0.949 . S
H870 C876 0.950 . S
H871 C877 0.950 . S
H872 C878 0.949 . S
C873 H868 0.950 . S
C873 C875 1.327 . S
C873 C879 1.429 . S
C874 C866 1.574 . S
C874 H869 0.949 . S
C874 C880 1.368 . S
C875 C859 1.349 . S
C875 H867 0.950 . S
C875 C873 1.327 . S
C876 C864 1.349 . S
C876 H870 0.950 . S
C876 C877 1.327 . S
C877 H871 0.950 . S
C877 C876 1.327 . S
C877 C881 1.429 . S
C878 C861 1.574 . S
C878 H872 0.949 . S
C878 C882 1.368 . S
C879 C860 1.429 . S
C879 C873 1.429 . S
C879 C880 1.523 . S
C880 C861 1.368 . S
C880 C874 1.368 . S
C880 C879 1.523 . S
C881 C865 1.429 . S
C881 C877 1.429 . S
C881 C882 1.523 . S
C882 C866 1.368 . S
C882 C878 1.368 . S
C882 C881 1.523 . S
H883 C858 0.950 . S
H884 C860 0.950 . S
H885 C861 0.949 . S
H886 C863 0.950 . S
H887 C865 0.950 . S
C888 C889 1.349 . S
C888 C890 1.327 . S
C888 H913 0.950 . S
C889 C888 1.349 . S
C889 C905 1.349 . S
C890 C888 1.327 . S
C890 C909 1.429 . S
C890 H914 0.950 . S
C891 C908 1.574 . S
C891 C910 1.368 . S
C891 H915 0.949 . S
H892 C896 0.949 . S
C893 C894 1.349 . S
C893 C895 1.327 . S
C893 H916 0.950 . S
C894 C893 1.349 . S
C894 C906 1.349 . S
C895 C893 1.327 . S
C895 C911 1.429 . S
C895 H917 0.950 . S
C896 H892 0.949 . S
C896 C904 1.574 . S
C896 C912 1.368 . S
H897 C905 0.950 . S
H898 C903 0.950 . S
H899 C904 0.949 . S
H900 C906 0.950 . S
H901 C907 0.950 . S
H902 C908 0.949 . S
C903 H898 0.950 . S
C903 C905 1.327 . S
C903 C909 1.429 . S
C904 C896 1.574 . S
C904 H899 0.949 . S
C904 C910 1.368 . S
C905 C889 1.349 . S
C905 H897 0.950 . S
C905 C903 1.327 . S
C906 C894 1.349 . S
C906 H900 0.950 . S
C906 C907 1.327 . S
C907 H901 0.950 . S
C907 C906 1.327 . S
C907 C911 1.429 . S
C908 C891 1.574 . S
C908 H902 0.949 . S
C908 C912 1.368 . S
C909 C890 1.429 . S
C909 C903 1.429 . S
C909 C910 1.523 . S
C910 C891 1.368 . S
C910 C904 1.368 . S
C910 C909 1.523 . S
C911 C895 1.429 . S
C911 C907 1.429 . S
C911 C912 1.523 . S
C912 C896 1.368 . S
C912 C908 1.368 . S
C912 C911 1.523 . S
H913 C888 0.950 . S
H914 C890 0.950 . S
H915 C891 0.949 . S
H916 C893 0.950 . S
H917 C895 0.950 . S
C918 C919 1.349 . S
C918 C920 1.327 . S
C918 H943 0.950 . S
C919 C918 1.349 . S
C919 C935 1.349 . S
C920 C918 1.327 . S
C920 C939 1.429 . S
C920 H944 0.950 . S
C921 C938 1.574 . S
C921 C940 1.368 . S
C921 H945 0.949 . S
H922 C926 0.949 . S
C923 C924 1.349 . S
C923 C925 1.327 . S
C923 H946 0.950 . S
C924 C923 1.349 . S
C924 C936 1.349 . S
C925 C923 1.327 . S
C925 C941 1.429 . S
C925 H947 0.950 . S
C926 H922 0.949 . S
C926 C934 1.574 . S
C926 C942 1.368 . S
H927 C935 0.950 . S
H928 C933 0.950 . S
H929 C934 0.949 . S
H930 C936 0.950 . S
H931 C937 0.950 . S
H932 C938 0.949 . S
C933 H928 0.950 . S
C933 C935 1.327 . S
C933 C939 1.429 . S
C934 C926 1.574 . S
C934 H929 0.949 . S
C934 C940 1.368 . S
C935 C919 1.349 . S
C935 H927 0.950 . S
C935 C933 1.327 . S
C936 C924 1.349 . S
C936 H930 0.950 . S
C936 C937 1.327 . S
C937 H931 0.950 . S
C937 C936 1.327 . S
C937 C941 1.429 . S
C938 C921 1.574 . S
C938 H932 0.949 . S
C938 C942 1.368 . S
C939 C920 1.429 . S
C939 C933 1.429 . S
C939 C940 1.523 . S
C940 C921 1.368 . S
C940 C934 1.368 . S
C940 C939 1.523 . S
C941 C925 1.429 . S
C941 C937 1.429 . S
C941 C942 1.523 . S
C942 C926 1.368 . S
C942 C938 1.368 . S
C942 C941 1.523 . S
H943 C918 0.950 . S
H944 C920 0.950 . S
H945 C921 0.949 . S
H946 C923 0.950 . S
H947 C925 0.950 . S
C948 C949 1.349 . S
C948 C950 1.327 . S
C948 H973 0.950 . S
C949 C948 1.349 . S
C949 C965 1.349 . S
C950 C948 1.327 . S
C950 C969 1.429 . S
C950 H974 0.950 . S
C951 C968 1.574 . S
C951 C970 1.368 . S
C951 H975 0.949 . S
H952 C956 0.949 . S
C953 C954 1.349 . S
C953 C955 1.327 . S
C953 H976 0.950 . S
C954 C953 1.349 . S
C954 C966 1.349 . S
C955 C953 1.327 . S
C955 C971 1.429 . S
C955 H977 0.950 . S
C956 H952 0.949 . S
C956 C964 1.574 . S
C956 C972 1.368 . S
H957 C965 0.950 . S
H958 C963 0.950 . S
H959 C964 0.949 . S
H960 C966 0.950 . S
H961 C967 0.950 . S
H962 C968 0.949 . S
C963 H958 0.950 . S
C963 C965 1.327 . S
C963 C969 1.429 . S
C964 C956 1.574 . S
C964 H959 0.949 . S
C964 C970 1.368 . S
C965 C949 1.349 . S
C965 H957 0.950 . S
C965 C963 1.327 . S
C966 C954 1.349 . S
C966 H960 0.950 . S
C966 C967 1.327 . S
C967 H961 0.950 . S
C967 C966 1.327 . S
C967 C971 1.429 . S
C968 C951 1.574 . S
C968 H962 0.949 . S
C968 C972 1.368 . S
C969 C950 1.429 . S
C969 C963 1.429 . S
C969 C970 1.523 . S
C970 C951 1.368 . S
C970 C964 1.368 . S
C970 C969 1.523 . S
C971 C955 1.429 . S
C971 C967 1.429 . S
C971 C972 1.523 . S
C972 C956 1.368 . S
C972 C968 1.368 . S
C972 C971 1.523 . S
H973 C948 0.950 . S
H974 C950 0.950 . S
H975 C951 0.949 . S
H976 C953 0.950 . S
H977 C955 0.950 . S
C978 C979 1.349 . S
C978 C980 1.327 . S
C978 H1003 0.950 . S
C979 C978 1.349 . S
C979 C995 1.349 . S
C980 C978 1.327 . S
C980 C999 1.429 . S
C980 H1004 0.950 . S
C981 C998 1.574 . S
C981 C1000 1.368 . S
C981 H1005 0.949 . S
H982 C986 0.949 . S
C983 C984 1.349 . S
C983 C985 1.327 . S
C983 H1006 0.950 . S
C984 C983 1.349 . S
C984 C996 1.349 . S
C985 C983 1.327 . S
C985 C1001 1.429 . S
C985 H1007 0.950 . S
C986 H982 0.949 . S
C986 C994 1.574 . S
C986 C1002 1.368 . S
H987 C995 0.950 . S
H988 C993 0.950 . S
H989 C994 0.949 . S
H990 C996 0.950 . S
H991 C997 0.950 . S
H992 C998 0.949 . S
C993 H988 0.950 . S
C993 C995 1.327 . S
C993 C999 1.429 . S
C994 C986 1.574 . S
C994 H989 0.949 . S
C994 C1000 1.368 . S
C995 C979 1.349 . S
C995 H987 0.950 . S
C995 C993 1.327 . S
C996 C984 1.349 . S
C996 H990 0.950 . S
C996 C997 1.327 . S
C997 H991 0.950 . S
C997 C996 1.327 . S
C997 C1001 1.429 . S
C998 C981 1.574 . S
C998 H992 0.949 . S
C998 C1002 1.368 . S
C999 C980 1.429 . S
C999 C993 1.429 . S
C999 C1000 1.523 . S
C1000 C981 1.368 . S
C1000 C994 1.368 . S
C1000 C999 1.523 . S
C1001 C985 1.429 . S
C1001 C997 1.429 . S
C1001 C1002 1.523 . S
C1002 C986 1.368 . S
C1002 C998 1.368 . S
C1002 C1001 1.523 . S
H1003 C978 0.950 . S
H1004 C980 0.950 . S
H1005 C981 0.949 . S
H1006 C983 0.950 . S
H1007 C985 0.950 . S
C1008 C1009 1.349 . S
C1008 C1010 1.327 . S
C1008 H1033 0.950 . S
C1009 C1008 1.349 . S
C1009 C1025 1.349 . S
C1010 C1008 1.327 . S
C1010 C1029 1.429 . S
C1010 H1034 0.950 . S
C1011 C1028 1.574 . S
C1011 C1030 1.368 . S
C1011 H1035 0.949 . S
H1012 C1016 0.949 . S
C1013 C1014 1.349 . S
C1013 C1015 1.327 . S
C1013 H1036 0.950 . S
C1014 C1013 1.349 . S
C1014 C1026 1.349 . S
C1015 C1013 1.327 . S
C1015 C1031 1.429 . S
C1015 H1037 0.950 . S
C1016 H1012 0.949 . S
C1016 C1024 1.574 . S
C1016 C1032 1.368 . S
H1017 C1025 0.950 . S
H1018 C1023 0.950 . S
H1019 C1024 0.949 . S
H1020 C1026 0.950 . S
H1021 C1027 0.950 . S
H1022 C1028 0.949 . S
C1023 H1018 0.950 . S
C1023 C1025 1.327 . S
C1023 C1029 1.429 . S
C1024 C1016 1.574 . S
C1024 H1019 0.949 . S
C1024 C1030 1.368 . S
C1025 C1009 1.349 . S
C1025 H1017 0.950 . S
C1025 C1023 1.327 . S
C1026 C1014 1.349 . S
C1026 H1020 0.950 . S
C1026 C1027 1.327 . S
C1027 H1021 0.950 . S
C1027 C1026 1.327 . S
C1027 C1031 1.429 . S
C1028 C1011 1.574 . S
C1028 H1022 0.949 . S
C1028 C1032 1.368 . S
C1029 C1010 1.429 . S
C1029 C1023 1.429 . S
C1029 C1030 1.523 . S
C1030 C1011 1.368 . S
C1030 C1024 1.368 . S
C1030 C1029 1.523 . S
C1031 C1015 1.429 . S
C1031 C1027 1.429 . S
C1031 C1032 1.523 . S
C1032 C1016 1.368 . S
C1032 C1028 1.368 . S
C1032 C1031 1.523 . S
H1033 C1008 0.950 . S
H1034 C1010 0.950 . S
H1035 C1011 0.949 . S
H1036 C1013 0.950 . S
H1037 C1015 0.950 . S
C1038 C1039 1.349 . S
C1038 C1040 1.327 . S
C1038 H1063 0.950 . S
C1039 C1038 1.349 . S
C1039 C1055 1.349 . S
C1040 C1038 1.327 . S
C1040 C1059 1.429 . S
C1040 H1064 0.950 . S
C1041 C1058 1.574 . S
C1041 C1060 1.368 . S
C1041 H1065 0.949 . S
H1042 C1046 0.949 . S
C1043 C1044 1.349 . S
C1043 C1045 1.327 . S
C1043 H1066 0.950 . S
C1044 C1043 1.349 . S
C1044 C1056 1.349 . S
C1045 C1043 1.327 . S
C1045 C1061 1.429 . S
C1045 H1067 0.950 . S
C1046 H1042 0.949 . S
C1046 C1054 1.574 . S
C1046 C1062 1.368 . S
H1047 C1055 0.950 . S
H1048 C1053 0.950 . S
H1049 C1054 0.949 . S
H1050 C1056 0.950 . S
H1051 C1057 0.950 . S
H1052 C1058 0.949 . S
C1053 H1048 0.950 . S
C1053 C1055 1.327 . S
C1053 C1059 1.429 . S
C1054 C1046 1.574 . S
C1054 H1049 0.949 . S
C1054 C1060 1.368 . S
C1055 C1039 1.349 . S
C1055 H1047 0.950 . S
C1055 C1053 1.327 . S
C1056 C1044 1.349 . S
C1056 H1050 0.950 . S
C1056 C1057 1.327 . S
C1057 H1051 0.950 . S
C1057 C1056 1.327 . S
C1057 C1061 1.429 . S
C1058 C1041 1.574 . S
C1058 H1052 0.949 . S
C1058 C1062 1.368 . S
C1059 C1040 1.429 . S
C1059 C1053 1.429 . S
C1059 C1060 1.523 . S
C1060 C1041 1.368 . S
C1060 C1054 1.368 . S
C1060 C1059 1.523 . S
C1061 C1045 1.429 . S
C1061 C1057 1.429 . S
C1061 C1062 1.523 . S
C1062 C1046 1.368 . S
C1062 C1058 1.368 . S
C1062 C1061 1.523 . S
H1063 C1038 0.950 . S
H1064 C1040 0.950 . S
H1065 C1041 0.949 . S
H1066 C1043 0.950 . S
H1067 C1045 0.950 . S
C1068 C1069 1.349 . S
C1068 C1070 1.327 . S
C1068 H1093 0.950 . S
C1069 C1068 1.349 . S
C1069 C1085 1.349 . S
C1070 C1068 1.327 . S
C1070 C1089 1.429 . S
C1070 H1094 0.950 . S
C1071 C1088 1.574 . S
C1071 C1090 1.368 . S
C1071 H1095 0.949 . S
H1072 C1076 0.949 . S
C1073 C1074 1.349 . S
C1073 C1075 1.327 . S
C1073 H1096 0.950 . S
C1074 C1073 1.349 . S
C1074 C1086 1.349 . S
C1075 C1073 1.327 . S
C1075 C1091 1.429 . S
C1075 H1097 0.950 . S
C1076 H1072 0.949 . S
C1076 C1084 1.574 . S
C1076 C1092 1.368 . S
H1077 C1085 0.950 . S
H1078 C1083 0.950 . S
H1079 C1084 0.949 . S
H1080 C1086 0.950 . S
H1081 C1087 0.950 . S
H1082 C1088 0.949 . S
C1083 H1078 0.950 . S
C1083 C1085 1.327 . S
C1083 C1089 1.429 . S
C1084 C1076 1.574 . S
C1084 H1079 0.949 . S
C1084 C1090 1.368 . S
C1085 C1069 1.349 . S
C1085 H1077 0.950 . S
C1085 C1083 1.327 . S
C1086 C1074 1.349 . S
C1086 H1080 0.950 . S
C1086 C1087 1.327 . S
C1087 H1081 0.950 . S
C1087 C1086 1.327 . S
C1087 C1091 1.429 . S
C1088 C1071 1.574 . S
C1088 H1082 0.949 . S
C1088 C1092 1.368 . S
C1089 C1070 1.429 . S
C1089 C1083 1.429 . S
C1089 C1090 1.523 . S
C1090 C1071 1.368 . S
C1090 C1084 1.368 . S
C1090 C1089 1.523 . S
C1091 C1075 1.429 . S
C1091 C1087 1.429 . S
C1091 C1092 1.523 . S
C1092 C1076 1.368 . S
C1092 C1088 1.368 . S
C1092 C1091 1.523 . S
H1093 C1068 0.950 . S
H1094 C1070 0.950 . S
H1095 C1071 0.949 . S
H1096 C1073 0.950 . S
H1097 C1075 0.950 . S
C1098 C1099 1.349 . S
C1098 C1100 1.327 . S
C1098 H1123 0.950 . S
C1099 C1098 1.349 . S
C1099 C1115 1.349 . S
C1100 C1098 1.327 . S
C1100 C1119 1.429 . S
C1100 H1124 0.950 . S
C1101 C1118 1.574 . S
C1101 C1120 1.368 . S
C1101 H1125 0.949 . S
H1102 C1106 0.949 . S
C1103 C1104 1.349 . S
C1103 C1105 1.327 . S
C1103 H1126 0.950 . S
C1104 C1103 1.349 . S
C1104 C1116 1.349 . S
C1105 C1103 1.327 . S
C1105 C1121 1.429 . S
C1105 H1127 0.950 . S
C1106 H1102 0.949 . S
C1106 C1114 1.574 . S
C1106 C1122 1.368 . S
H1107 C1115 0.950 . S
H1108 C1113 0.950 . S
H1109 C1114 0.949 . S
H1110 C1116 0.950 . S
H1111 C1117 0.950 . S
H1112 C1118 0.949 . S
C1113 H1108 0.950 . S
C1113 C1115 1.327 . S
C1113 C1119 1.429 . S
C1114 C1106 1.574 . S
C1114 H1109 0.949 . S
C1114 C1120 1.368 . S
C1115 C1099 1.349 . S
C1115 H1107 0.950 . S
C1115 C1113 1.327 . S
C1116 C1104 1.349 . S
C1116 H1110 0.950 . S
C1116 C1117 1.327 . S
C1117 H1111 0.950 . S
C1117 C1116 1.327 . S
C1117 C1121 1.429 . S
C1118 C1101 1.574 . S
C1118 H1112 0.949 . S
C1118 C1122 1.368 . S
C1119 C1100 1.429 . S
C1119 C1113 1.429 . S
C1119 C1120 1.523 . S
C1120 C1101 1.368 . S
C1120 C1114 1.368 . S
C1120 C1119 1.523 . S
C1121 C1105 1.429 . S
C1121 C1117 1.429 . S
C1121 C1122 1.523 . S
C1122 C1106 1.368 . S
C1122 C1118 1.368 . S
C1122 C1121 1.523 . S
H1123 C1098 0.950 . S
H1124 C1100 0.950 . S
H1125 C1101 0.949 . S
H1126 C1103 0.950 . S
H1127 C1105 0.950 . S
C1128 C1129 1.349 . S
C1128 C1130 1.327 . S
C1128 H1153 0.950 . S
C1129 C1128 1.349 . S
C1129 C1145 1.349 . S
C1130 C1128 1.327 . S
C1130 C1149 1.429 . S
C1130 H1154 0.950 . S
C1131 C1148 1.574 . S
C1131 C1150 1.368 . S
C1131 H1155 0.949 . S
H1132 C1136 0.949 . S
C1133 C1134 1.349 . S
C1133 C1135 1.327 . S
C1133 H1156 0.950 . S
C1134 C1133 1.349 . S
C1134 C1146 1.349 . S
C1135 C1133 1.327 . S
C1135 C1151 1.429 . S
C1135 H1157 0.950 . S
C1136 H1132 0.949 . S
C1136 C1144 1.574 . S
C1136 C1152 1.368 . S
H1137 C1145 0.950 . S
H1138 C1143 0.950 . S
H1139 C1144 0.949 . S
H1140 C1146 0.950 . S
H1141 C1147 0.950 . S
H1142 C1148 0.949 . S
C1143 H1138 0.950 . S
C1143 C1145 1.327 . S
C1143 C1149 1.429 . S
C1144 C1136 1.574 . S
C1144 H1139 0.949 . S
C1144 C1150 1.368 . S
C1145 C1129 1.349 . S
C1145 H1137 0.950 . S
C1145 C1143 1.327 . S
C1146 C1134 1.349 . S
C1146 H1140 0.950 . S
C1146 C1147 1.327 . S
C1147 H1141 0.950 . S
C1147 C1146 1.327 . S
C1147 C1151 1.429 . S
C1148 C1131 1.574 . S
C1148 H1142 0.949 . S
C1148 C1152 1.368 . S
C1149 C1130 1.429 . S
C1149 C1143 1.429 . S
C1149 C1150 1.523 . S
C1150 C1131 1.368 . S
C1150 C1144 1.368 . S
C1150 C1149 1.523 . S
C1151 C1135 1.429 . S
C1151 C1147 1.429 . S
C1151 C1152 1.523 . S
C1152 C1136 1.368 . S
C1152 C1148 1.368 . S
C1152 C1151 1.523 . S
H1153 C1128 0.950 . S
H1154 C1130 0.950 . S
H1155 C1131 0.949 . S
H1156 C1133 0.950 . S
H1157 C1135 0.950 . S
C1158 C1159 1.349 . S
C1158 C1160 1.327 . S
C1158 H1183 0.950 . S
C1159 C1158 1.349 . S
C1159 C1175 1.349 . S
C1160 C1158 1.327 . S
C1160 C1179 1.429 . S
C1160 H1184 0.950 . S
C1161 C1178 1.574 . S
C1161 C1180 1.368 . S
C1161 H1185 0.949 . S
H1162 C1166 0.949 . S
C1163 C1164 1.349 . S
C1163 C1165 1.327 . S
C1163 H1186 0.950 . S
C1164 C1163 1.349 . S
C1164 C1176 1.349 . S
C1165 C1163 1.327 . S
C1165 C1181 1.429 . S
C1165 H1187 0.950 . S
C1166 H1162 0.949 . S
C1166 C1174 1.574 . S
C1166 C1182 1.368 . S
H1167 C1175 0.950 . S
H1168 C1173 0.950 . S
H1169 C1174 0.949 . S
H1170 C1176 0.950 . S
H1171 C1177 0.950 . S
H1172 C1178 0.949 . S
C1173 H1168 0.950 . S
C1173 C1175 1.327 . S
C1173 C1179 1.429 . S
C1174 C1166 1.574 . S
C1174 H1169 0.949 . S
C1174 C1180 1.368 . S
C1175 C1159 1.349 . S
C1175 H1167 0.950 . S
C1175 C1173 1.327 . S
C1176 C1164 1.349 . S
C1176 H1170 0.950 . S
C1176 C1177 1.327 . S
C1177 H1171 0.950 . S
C1177 C1176 1.327 . S
C1177 C1181 1.429 . S
C1178 C1161 1.574 . S
C1178 H1172 0.949 . S
C1178 C1182 1.368 . S
C1179 C1160 1.429 . S
C1179 C1173 1.429 . S
C1179 C1180 1.523 . S
C1180 C1161 1.368 . S
C1180 C1174 1.368 . S
C1180 C1179 1.523 . S
C1181 C1165 1.429 . S
C1181 C1177 1.429 . S
C1181 C1182 1.523 . S
C1182 C1166 1.368 . S
C1182 C1178 1.368 . S
C1182 C1181 1.523 . S
H1183 C1158 0.950 . S
H1184 C1160 0.950 . S
H1185 C1161 0.949 . S
H1186 C1163 0.950 . S
H1187 C1165 0.950 . S
C1188 C1189 1.349 . S
C1188 C1190 1.327 . S
C1188 H1213 0.950 . S
C1189 C1188 1.349 . S
C1189 C1205 1.349 . S
C1190 C1188 1.327 . S
C1190 C1209 1.429 . S
C1190 H1214 0.950 . S
C1191 C1208 1.574 . S
C1191 C1210 1.368 . S
C1191 H1215 0.949 . S
H1192 C1196 0.949 . S
C1193 C1194 1.349 . S
C1193 C1195 1.327 . S
C1193 H1216 0.950 . S
C1194 C1193 1.349 . S
C1194 C1206 1.349 . S
C1195 C1193 1.327 . S
C1195 C1211 1.429 . S
C1195 H1217 0.950 . S
C1196 H1192 0.949 . S
C1196 C1204 1.574 . S
C1196 C1212 1.368 . S
H1197 C1205 0.950 . S
H1198 C1203 0.950 . S
H1199 C1204 0.949 . S
H1200 C1206 0.950 . S
H1201 C1207 0.950 . S
H1202 C1208 0.949 . S
C1203 H1198 0.950 . S
C1203 C1205 1.327 . S
C1203 C1209 1.429 . S
C1204 C1196 1.574 . S
C1204 H1199 0.949 . S
C1204 C1210 1.368 . S
C1205 C1189 1.349 . S
C1205 H1197 0.950 . S
C1205 C1203 1.327 . S
C1206 C1194 1.349 . S
C1206 H1200 0.950 . S
C1206 C1207 1.327 . S
C1207 H1201 0.950 . S
C1207 C1206 1.327 . S
C1207 C1211 1.429 . S
C1208 C1191 1.574 . S
C1208 H1202 0.949 . S
C1208 C1212 1.368 . S
C1209 C1190 1.429 . S
C1209 C1203 1.429 . S
C1209 C1210 1.523 . S
C1210 C1191 1.368 . S
C1210 C1204 1.368 . S
C1210 C1209 1.523 . S
C1211 C1195 1.429 . S
C1211 C1207 1.429 . S
C1211 C1212 1.523 . S
C1212 C1196 1.368 . S
C1212 C1208 1.368 . S
C1212 C1211 1.523 . S
H1213 C1188 0.950 . S
H1214 C1190 0.950 . S
H1215 C1191 0.949 . S
H1216 C1193 0.950 . S
H1217 C1195 0.950 . S
C1218 C1219 1.349 . S
C1218 C1220 1.327 . S
C1218 H1243 0.950 . S
C1219 C1218 1.349 . S
C1219 C1235 1.349 . S
C1220 C1218 1.327 . S
C1220 C1239 1.429 . S
C1220 H1244 0.950 . S
C1221 C1238 1.574 . S
C1221 C1240 1.368 . S
C1221 H1245 0.949 . S
H1222 C1226 0.949 . S
C1223 C1224 1.349 . S
C1223 C1225 1.327 . S
C1223 H1246 0.950 . S
C1224 C1223 1.349 . S
C1224 C1236 1.349 . S
C1225 C1223 1.327 . S
C1225 C1241 1.429 . S
C1225 H1247 0.950 . S
C1226 H1222 0.949 . S
C1226 C1234 1.574 . S
C1226 C1242 1.368 . S
H1227 C1235 0.950 . S
H1228 C1233 0.950 . S
H1229 C1234 0.949 . S
H1230 C1236 0.950 . S
H1231 C1237 0.950 . S
H1232 C1238 0.949 . S
C1233 H1228 0.950 . S
C1233 C1235 1.327 . S
C1233 C1239 1.429 . S
C1234 C1226 1.574 . S
C1234 H1229 0.949 . S
C1234 C1240 1.368 . S
C1235 C1219 1.349 . S
C1235 H1227 0.950 . S
C1235 C1233 1.327 . S
C1236 C1224 1.349 . S
C1236 H1230 0.950 . S
C1236 C1237 1.327 . S
C1237 H1231 0.950 . S
C1237 C1236 1.327 . S
C1237 C1241 1.429 . S
C1238 C1221 1.574 . S
C1238 H1232 0.949 . S
C1238 C1242 1.368 . S
C1239 C1220 1.429 . S
C1239 C1233 1.429 . S
C1239 C1240 1.523 . S
C1240 C1221 1.368 . S
C1240 C1234 1.368 . S
C1240 C1239 1.523 . S
C1241 C1225 1.429 . S
C1241 C1237 1.429 . S
C1241 C1242 1.523 . S
C1242 C1226 1.368 . S
C1242 C1238 1.368 . S
C1242 C1241 1.523 . S
H1243 C1218 0.950 . S
H1244 C1220 0.950 . S
H1245 C1221 0.949 . S
H1246 C1223 0.950 . S
H1247 C1225 0.950 . S
C1248 C1249 1.349 . S
C1248 C1250 1.327 . S
C1248 H1273 0.950 . S
C1249 C1248 1.349 . S
C1249 C1265 1.349 . S
C1250 C1248 1.327 . S
C1250 C1269 1.429 . S
C1250 H1274 0.950 . S
C1251 C1268 1.574 . S
C1251 C1270 1.368 . S
C1251 H1275 0.949 . S
H1252 C1256 0.949 . S
C1253 C1254 1.349 . S
C1253 C1255 1.327 . S
C1253 H1276 0.950 . S
C1254 C1253 1.349 . S
C1254 C1266 1.349 . S
C1255 C1253 1.327 . S
C1255 C1271 1.429 . S
C1255 H1277 0.950 . S
C1256 H1252 0.949 . S
C1256 C1264 1.574 . S
C1256 C1272 1.368 . S
H1257 C1265 0.950 . S
H1258 C1263 0.950 . S
H1259 C1264 0.949 . S
H1260 C1266 0.950 . S
H1261 C1267 0.950 . S
H1262 C1268 0.949 . S
C1263 H1258 0.950 . S
C1263 C1265 1.327 . S
C1263 C1269 1.429 . S
C1264 C1256 1.574 . S
C1264 H1259 0.949 . S
C1264 C1270 1.368 . S
C1265 C1249 1.349 . S
C1265 H1257 0.950 . S
C1265 C1263 1.327 . S
C1266 C1254 1.349 . S
C1266 H1260 0.950 . S
C1266 C1267 1.327 . S
C1267 H1261 0.950 . S
C1267 C1266 1.327 . S
C1267 C1271 1.429 . S
C1268 C1251 1.574 . S
C1268 H1262 0.949 . S
C1268 C1272 1.368 . S
C1269 C1250 1.429 . S
C1269 C1263 1.429 . S
C1269 C1270 1.523 . S
C1270 C1251 1.368 . S
C1270 C1264 1.368 . S
C1270 C1269 1.523 . S
C1271 C1255 1.429 . S
C1271 C1267 1.429 . S
C1271 C1272 1.523 . S
C1272 C1256 1.368 . S
C1272 C1268 1.368 . S
C1272 C1271 1.523 . S
H1273 C1248 0.950 . S
H1274 C1250 0.950 . S
H1275 C1251 0.949 . S
H1276 C1253 0.950 . S
H1277 C1255 0.950 . S
C1278 C1279 1.349 . S
C1278 C1280 1.327 . S
C1278 H1303 0.950 . S
C1279 C1278 1.349 . S
C1279 C1295 1.349 . S
C1280 C1278 1.327 . S
C1280 C1299 1.429 . S
C1280 H1304 0.950 . S
C1281 C1298 1.574 . S
C1281 C1300 1.368 . S
C1281 H1305 0.949 . S
H1282 C1286 0.949 . S
C1283 C1284 1.349 . S
C1283 C1285 1.327 . S
C1283 H1306 0.950 . S
C1284 C1283 1.349 . S
C1284 C1296 1.349 . S
C1285 C1283 1.327 . S
C1285 C1301 1.429 . S
C1285 H1307 0.950 . S
C1286 H1282 0.949 . S
C1286 C1294 1.574 . S
C1286 C1302 1.368 . S
H1287 C1295 0.950 . S
H1288 C1293 0.950 . S
H1289 C1294 0.949 . S
H1290 C1296 0.950 . S
H1291 C1297 0.950 . S
H1292 C1298 0.949 . S
C1293 H1288 0.950 . S
C1293 C1295 1.327 . S
C1293 C1299 1.429 . S
C1294 C1286 1.574 . S
C1294 H1289 0.949 . S
C1294 C1300 1.368 . S
C1295 C1279 1.349 . S
C1295 H1287 0.950 . S
C1295 C1293 1.327 . S
C1296 C1284 1.349 . S
C1296 H1290 0.950 . S
C1296 C1297 1.327 . S
C1297 H1291 0.950 . S
C1297 C1296 1.327 . S
C1297 C1301 1.429 . S
C1298 C1281 1.574 . S
C1298 H1292 0.949 . S
C1298 C1302 1.368 . S
C1299 C1280 1.429 . S
C1299 C1293 1.429 . S
C1299 C1300 1.523 . S
C1300 C1281 1.368 . S
C1300 C1294 1.368 . S
C1300 C1299 1.523 . S
C1301 C1285 1.429 . S
C1301 C1297 1.429 . S
C1301 C1302 1.523 . S
C1302 C1286 1.368 . S
C1302 C1298 1.368 . S
C1302 C1301 1.523 . S
H1303 C1278 0.950 . S
H1304 C1280 0.950 . S
H1305 C1281 0.949 . S
H1306 C1283 0.950 . S
H1307 C1285 0.950 . S
C1308 C1309 1.349 . S
C1308 C1310 1.327 . S
C1308 H1333 0.950 . S
C1309 C1308 1.349 . S
C1309 C1325 1.349 . S
C1310 C1308 1.327 . S
C1310 C1329 1.429 . S
C1310 H1334 0.950 . S
C1311 C1328 1.574 . S
C1311 C1330 1.368 . S
C1311 H1335 0.949 . S
H1312 C1316 0.949 . S
C1313 C1314 1.349 . S
C1313 C1315 1.327 . S
C1313 H1336 0.950 . S
C1314 C1313 1.349 . S
C1314 C1326 1.349 . S
C1315 C1313 1.327 . S
C1315 C1331 1.429 . S
C1315 H1337 0.950 . S
C1316 H1312 0.949 . S
C1316 C1324 1.574 . S
C1316 C1332 1.368 . S
H1317 C1325 0.950 . S
H1318 C1323 0.950 . S
H1319 C1324 0.949 . S
H1320 C1326 0.950 . S
H1321 C1327 0.950 . S
H1322 C1328 0.949 . S
C1323 H1318 0.950 . S
C1323 C1325 1.327 . S
C1323 C1329 1.429 . S
C1324 C1316 1.574 . S
C1324 H1319 0.949 . S
C1324 C1330 1.368 . S
C1325 C1309 1.349 . S
C1325 H1317 0.950 . S
C1325 C1323 1.327 . S
C1326 C1314 1.349 . S
C1326 H1320 0.950 . S
C1326 C1327 1.327 . S
C1327 H1321 0.950 . S
C1327 C1326 1.327 . S
C1327 C1331 1.429 . S
C1328 C1311 1.574 . S
C1328 H1322 0.949 . S
C1328 C1332 1.368 . S
C1329 C1310 1.429 . S
C1329 C1323 1.429 . S
C1329 C1330 1.523 . S
C1330 C1311 1.368 . S
C1330 C1324 1.368 . S
C1330 C1329 1.523 . S
C1331 C1315 1.429 . S
C1331 C1327 1.429 . S
C1331 C1332 1.523 . S
C1332 C1316 1.368 . S
C1332 C1328 1.368 . S
C1332 C1331 1.523 . S
H1333 C1308 0.950 . S
H1334 C1310 0.950 . S
H1335 C1311 0.949 . S
H1336 C1313 0.950 . S
H1337 C1315 0.950 . S
C1338 C1339 1.349 . S
C1338 C1340 1.327 . S
C1338 H1363 0.950 . S
C1339 C1338 1.349 . S
C1339 C1355 1.349 . S
C1340 C1338 1.327 . S
C1340 C1359 1.429 . S
C1340 H1364 0.950 . S
C1341 C1358 1.574 . S
C1341 C1360 1.368 . S
C1341 H1365 0.949 . S
H1342 C1346 0.949 . S
C1343 C1344 1.349 . S
C1343 C1345 1.327 . S
C1343 H1366 0.950 . S
C1344 C1343 1.349 . S
C1344 C1356 1.349 . S
C1345 C1343 1.327 . S
C1345 C1361 1.429 . S
C1345 H1367 0.950 . S
C1346 H1342 0.949 . S
C1346 C1354 1.574 . S
C1346 C1362 1.368 . S
H1347 C1355 0.950 . S
H1348 C1353 0.950 . S
H1349 C1354 0.949 . S
H1350 C1356 0.950 . S
H1351 C1357 0.950 . S
H1352 C1358 0.949 . S
C1353 H1348 0.950 . S
C1353 C1355 1.327 . S
C1353 C1359 1.429 . S
C1354 C1346 1.574 . S
C1354 H1349 0.949 . S
C1354 C1360 1.368 . S
C1355 C1339 1.349 . S
C1355 H1347 0.950 . S
C1355 C1353 1.327 . S
C1356 C1344 1.349 . S
C1356 H1350 0.950 . S
C1356 C1357 1.327 . S
C1357 H1351 0.950 . S
C1357 C1356 1.327 . S
C1357 C1361 1.429 . S
C1358 C1341 1.574 . S
C1358 H1352 0.949 . S
C1358 C1362 1.368 . S
C1359 C1340 1.429 . S
C1359 C1353 1.429 . S
C1359 C1360 1.523 . S
C1360 C1341 1.368 . S
C1360 C1354 1.368 . S
C1360 C1359 1.523 . S
C1361 C1345 1.429 . S
C1361 C1357 1.429 . S
C1361 C1362 1.523 . S
C1362 C1346 1.368 . S
C1362 C1358 1.368 . S
C1362 C1361 1.523 . S
H1363 C1338 0.950 . S
H1364 C1340 0.950 . S
H1365 C1341 0.949 . S
H1366 C1343 0.950 . S
H1367 C1345 0.950 . S
C1368 C1369 1.349 . S
C1368 C1370 1.327 . S
C1368 H1393 0.950 . S
C1369 C1368 1.349 . S
C1369 C1385 1.349 . S
C1370 C1368 1.327 . S
C1370 C1389 1.429 . S
C1370 H1394 0.950 . S
C1371 C1388 1.574 . S
C1371 C1390 1.368 . S
C1371 H1395 0.949 . S
H1372 C1376 0.949 . S
C1373 C1374 1.349 . S
C1373 C1375 1.327 . S
C1373 H1396 0.950 . S
C1374 C1373 1.349 . S
C1374 C1386 1.349 . S
C1375 C1373 1.327 . S
C1375 C1391 1.429 . S
C1375 H1397 0.950 . S
C1376 H1372 0.949 . S
C1376 C1384 1.574 . S
C1376 C1392 1.368 . S
H1377 C1385 0.950 . S
H1378 C1383 0.950 . S
H1379 C1384 0.949 . S
H1380 C1386 0.950 . S
H1381 C1387 0.950 . S
H1382 C1388 0.949 . S
C1383 H1378 0.950 . S
C1383 C1385 1.327 . S
C1383 C1389 1.429 . S
C1384 C1376 1.574 . S
C1384 H1379 0.949 . S
C1384 C1390 1.368 . S
C1385 C1369 1.349 . S
C1385 H1377 0.950 . S
C1385 C1383 1.327 . S
C1386 C1374 1.349 . S
C1386 H1380 0.950 . S
C1386 C1387 1.327 . S
C1387 H1381 0.950 . S
C1387 C1386 1.327 . S
C1387 C1391 1.429 . S
C1388 C1371 1.574 . S
C1388 H1382 0.949 . S
C1388 C1392 1.368 . S
C1389 C1370 1.429 . S
C1389 C1383 1.429 . S
C1389 C1390 1.523 . S
C1390 C1371 1.368 . S
C1390 C1384 1.368 . S
C1390 C1389 1.523 . S
C1391 C1375 1.429 . S
C1391 C1387 1.429 . S
C1391 C1392 1.523 . S
C1392 C1376 1.368 . S
C1392 C1388 1.368 . S
C1392 C1391 1.523 . S
H1393 C1368 0.950 . S
H1394 C1370 0.950 . S
H1395 C1371 0.949 . S
H1396 C1373 0.950 . S
H1397 C1375 0.950 . S
C1398 C1399 1.349 . S
C1398 C1400 1.327 . S
C1398 H1423 0.950 . S
C1399 C1398 1.349 . S
C1399 C1415 1.349 . S
C1400 C1398 1.327 . S
C1400 C1419 1.429 . S
C1400 H1424 0.950 . S
C1401 C1418 1.574 . S
C1401 C1420 1.368 . S
C1401 H1425 0.949 . S
H1402 C1406 0.949 . S
C1403 C1404 1.349 . S
C1403 C1405 1.327 . S
C1403 H1426 0.950 . S
C1404 C1403 1.349 . S
C1404 C1416 1.349 . S
C1405 C1403 1.327 . S
C1405 C1421 1.429 . S
C1405 H1427 0.950 . S
C1406 H1402 0.949 . S
C1406 C1414 1.574 . S
C1406 C1422 1.368 . S
H1407 C1415 0.950 . S
H1408 C1413 0.950 . S
H1409 C1414 0.949 . S
H1410 C1416 0.950 . S
H1411 C1417 0.950 . S
H1412 C1418 0.949 . S
C1413 H1408 0.950 . S
C1413 C1415 1.327 . S
C1413 C1419 1.429 . S
C1414 C1406 1.574 . S
C1414 H1409 0.949 . S
C1414 C1420 1.368 . S
C1415 C1399 1.349 . S
C1415 H1407 0.950 . S
C1415 C1413 1.327 . S
C1416 C1404 1.349 . S
C1416 H1410 0.950 . S
C1416 C1417 1.327 . S
C1417 H1411 0.950 . S
C1417 C1416 1.327 . S
C1417 C1421 1.429 . S
C1418 C1401 1.574 . S
C1418 H1412 0.949 . S
C1418 C1422 1.368 . S
C1419 C1400 1.429 . S
C1419 C1413 1.429 . S
C1419 C1420 1.523 . S
C1420 C1401 1.368 . S
C1420 C1414 1.368 . S
C1420 C1419 1.523 . S
C1421 C1405 1.429 . S
C1421 C1417 1.429 . S
C1421 C1422 1.523 . S
C1422 C1406 1.368 . S
C1422 C1418 1.368 . S
C1422 C1421 1.523 . S
H1423 C1398 0.950 . S
H1424 C1400 0.950 . S
H1425 C1401 0.949 . S
H1426 C1403 0.950 . S
H1427 C1405 0.950 . S
C1428 C1429 1.349 . S
C1428 C1430 1.327 . S
C1428 H1453 0.950 . S
C1429 C1428 1.349 . S
C1429 C1445 1.349 . S
C1430 C1428 1.327 . S
C1430 C1449 1.429 . S
C1430 H1454 0.950 . S
C1431 C1448 1.574 . S
C1431 C1450 1.368 . S
C1431 H1455 0.949 . S
H1432 C1436 0.949 . S
C1433 C1434 1.349 . S
C1433 C1435 1.327 . S
C1433 H1456 0.950 . S
C1434 C1433 1.349 . S
C1434 C1446 1.349 . S
C1435 C1433 1.327 . S
C1435 C1451 1.429 . S
C1435 H1457 0.950 . S
C1436 H1432 0.949 . S
C1436 C1444 1.574 . S
C1436 C1452 1.368 . S
H1437 C1445 0.950 . S
H1438 C1443 0.950 . S
H1439 C1444 0.949 . S
H1440 C1446 0.950 . S
H1441 C1447 0.950 . S
H1442 C1448 0.949 . S
C1443 H1438 0.950 . S
C1443 C1445 1.327 . S
C1443 C1449 1.429 . S
C1444 C1436 1.574 . S
C1444 H1439 0.949 . S
C1444 C1450 1.368 . S
C1445 C1429 1.349 . S
C1445 H1437 0.950 . S
C1445 C1443 1.327 . S
C1446 C1434 1.349 . S
C1446 H1440 0.950 . S
C1446 C1447 1.327 . S
C1447 H1441 0.950 . S
C1447 C1446 1.327 . S
C1447 C1451 1.429 . S
C1448 C1431 1.574 . S
C1448 H1442 0.949 . S
C1448 C1452 1.368 . S
C1449 C1430 1.429 . S
C1449 C1443 1.429 . S
C1449 C1450 1.523 . S
C1450 C1431 1.368 . S
C1450 C1444 1.368 . S
C1450 C1449 1.523 . S
C1451 C1435 1.429 . S
C1451 C1447 1.429 . S
C1451 C1452 1.523 . S
C1452 C1436 1.368 . S
C1452 C1448 1.368 . S
C1452 C1451 1.523 . S
H1453 C1428 0.950 . S
H1454 C1430 0.950 . S
H1455 C1431 0.949 . S
H1456 C1433 0.950 . S
H1457 C1435 0.950 . S
C1458 C1459 1.349 . S
C1458 C1460 1.327 . S
C1458 H1483 0.950 . S
C1459 C1458 1.349 . S
C1459 C1475 1.349 . S
C1460 C1458 1.327 . S
C1460 C1479 1.429 . S
C1460 H1484 0.950 . S
C1461 C1478 1.574 . S
C1461 C1480 1.368 . S
C1461 H1485 0.949 . S
H1462 C1466 0.949 . S
C1463 C1464 1.349 . S
C1463 C1465 1.327 . S
C1463 H1486 0.950 . S
C1464 C1463 1.349 . S
C1464 C1476 1.349 . S
C1465 C1463 1.327 . S
C1465 C1481 1.429 . S
C1465 H1487 0.950 . S
C1466 H1462 0.949 . S
C1466 C1474 1.574 . S
C1466 C1482 1.368 . S
H1467 C1475 0.950 . S
H1468 C1473 0.950 . S
H1469 C1474 0.949 . S
H1470 C1476 0.950 . S
H1471 C1477 0.950 . S
H1472 C1478 0.949 . S
C1473 H1468 0.950 . S
C1473 C1475 1.327 . S
C1473 C1479 1.429 . S
C1474 C1466 1.574 . S
C1474 H1469 0.949 . S
C1474 C1480 1.368 . S
C1475 C1459 1.349 . S
C1475 H1467 0.950 . S
C1475 C1473 1.327 . S
C1476 C1464 1.349 . S
C1476 H1470 0.950 . S
C1476 C1477 1.327 . S
C1477 H1471 0.950 . S
C1477 C1476 1.327 . S
C1477 C1481 1.429 . S
C1478 C1461 1.574 . S
C1478 H1472 0.949 . S
C1478 C1482 1.368 . S
C1479 C1460 1.429 . S
C1479 C1473 1.429 . S
C1479 C1480 1.523 . S
C1480 C1461 1.368 . S
C1480 C1474 1.368 . S
C1480 C1479 1.523 . S
C1481 C1465 1.429 . S
C1481 C1477 1.429 . S
C1481 C1482 1.523 . S
C1482 C1466 1.368 . S
C1482 C1478 1.368 . S
C1482 C1481 1.523 . S
H1483 C1458 0.950 . S
H1484 C1460 0.950 . S
H1485 C1461 0.949 . S
H1486 C1463 0.950 . S
H1487 C1465 0.950 . S
C1488 C1489 1.349 . S
C1488 C1490 1.327 . S
C1488 H1513 0.950 . S
C1489 C1488 1.349 . S
C1489 C1505 1.349 . S
C1490 C1488 1.327 . S
C1490 C1509 1.429 . S
C1490 H1514 0.950 . S
C1491 C1508 1.574 . S
C1491 C1510 1.368 . S
C1491 H1515 0.949 . S
H1492 C1496 0.949 . S
C1493 C1494 1.349 . S
C1493 C1495 1.327 . S
C1493 H1516 0.950 . S
C1494 C1493 1.349 . S
C1494 C1506 1.349 . S
C1495 C1493 1.327 . S
C1495 C1511 1.429 . S
C1495 H1517 0.950 . S
C1496 H1492 0.949 . S
C1496 C1504 1.574 . S
C1496 C1512 1.368 . S
H1497 C1505 0.950 . S
H1498 C1503 0.950 . S
H1499 C1504 0.949 . S
H1500 C1506 0.950 . S
H1501 C1507 0.950 . S
H1502 C1508 0.949 . S
C1503 H1498 0.950 . S
C1503 C1505 1.327 . S
C1503 C1509 1.429 . S
C1504 C1496 1.574 . S
C1504 H1499 0.949 . S
C1504 C1510 1.368 . S
C1505 C1489 1.349 . S
C1505 H1497 0.950 . S
C1505 C1503 1.327 . S
C1506 C1494 1.349 . S
C1506 H1500 0.950 . S
C1506 C1507 1.327 . S
C1507 H1501 0.950 . S
C1507 C1506 1.327 . S
C1507 C1511 1.429 . S
C1508 C1491 1.574 . S
C1508 H1502 0.949 . S
C1508 C1512 1.368 . S
C1509 C1490 1.429 . S
C1509 C1503 1.429 . S
C1509 C1510 1.523 . S
C1510 C1491 1.368 . S
C1510 C1504 1.368 . S
C1510 C1509 1.523 . S
C1511 C1495 1.429 . S
C1511 C1507 1.429 . S
C1511 C1512 1.523 . S
C1512 C1496 1.368 . S
C1512 C1508 1.368 . S
C1512 C1511 1.523 . S
H1513 C1488 0.950 . S
H1514 C1490 0.950 . S
H1515 C1491 0.949 . S
H1516 C1493 0.950 . S
H1517 C1495 0.950 . S
C1518 C1519 1.349 . S
C1518 C1520 1.327 . S
C1518 H1543 0.950 . S
C1519 C1518 1.349 . S
C1519 C1535 1.349 . S
C1520 C1518 1.327 . S
C1520 C1539 1.429 . S
C1520 H1544 0.950 . S
C1521 C1538 1.574 . S
C1521 C1540 1.368 . S
C1521 H1545 0.949 . S
H1522 C1526 0.949 . S
C1523 C1524 1.349 . S
C1523 C1525 1.327 . S
C1523 H1546 0.950 . S
C1524 C1523 1.349 . S
C1524 C1536 1.349 . S
C1525 C1523 1.327 . S
C1525 C1541 1.429 . S
C1525 H1547 0.950 . S
C1526 H1522 0.949 . S
C1526 C1534 1.574 . S
C1526 C1542 1.368 . S
H1527 C1535 0.950 . S
H1528 C1533 0.950 . S
H1529 C1534 0.949 . S
H1530 C1536 0.950 . S
H1531 C1537 0.950 . S
H1532 C1538 0.949 . S
C1533 H1528 0.950 . S
C1533 C1535 1.327 . S
C1533 C1539 1.429 . S
C1534 C1526 1.574 . S
C1534 H1529 0.949 . S
C1534 C1540 1.368 . S
C1535 C1519 1.349 . S
C1535 H1527 0.950 . S
C1535 C1533 1.327 . S
C1536 C1524 1.349 . S
C1536 H1530 0.950 . S
C1536 C1537 1.327 . S
C1537 H1531 0.950 . S
C1537 C1536 1.327 . S
C1537 C1541 1.429 . S
C1538 C1521 1.574 . S
C1538 H1532 0.949 . S
C1538 C1542 1.368 . S
C1539 C1520 1.429 . S
C1539 C1533 1.429 . S
C1539 C1540 1.523 . S
C1540 C1521 1.368 . S
C1540 C1534 1.368 . S
C1540 C1539 1.523 . S
C1541 C1525 1.429 . S
C1541 C1537 1.429 . S
C1541 C1542 1.523 . S
C1542 C1526 1.368 . S
C1542 C1538 1.368 . S
C1542 C1541 1.523 . S
H1543 C1518 0.950 . S
H1544 C1520 0.950 . S
H1545 C1521 0.949 . S
H1546 C1523 0.950 . S
H1547 C1525 0.950 . S
C1548 C1549 1.349 . S
C1548 C1550 1.327 . S
C1548 H1573 0.950 . S
C1549 C1548 1.349 . S
C1549 C1565 1.349 . S
C1550 C1548 1.327 . S
C1550 C1569 1.429 . S
C1550 H1574 0.950 . S
C1551 C1568 1.574 . S
C1551 C1570 1.368 . S
C1551 H1575 0.949 . S
H1552 C1556 0.949 . S
C1553 C1554 1.349 . S
C1553 C1555 1.327 . S
C1553 H1576 0.950 . S
C1554 C1553 1.349 . S
C1554 C1566 1.349 . S
C1555 C1553 1.327 . S
C1555 C1571 1.429 . S
C1555 H1577 0.950 . S
C1556 H1552 0.949 . S
C1556 C1564 1.574 . S
C1556 C1572 1.368 . S
H1557 C1565 0.950 . S
H1558 C1563 0.950 . S
H1559 C1564 0.949 . S
H1560 C1566 0.950 . S
H1561 C1567 0.950 . S
H1562 C1568 0.949 . S
C1563 H1558 0.950 . S
C1563 C1565 1.327 . S
C1563 C1569 1.429 . S
C1564 C1556 1.574 . S
C1564 H1559 0.949 . S
C1564 C1570 1.368 . S
C1565 C1549 1.349 . S
C1565 H1557 0.950 . S
C1565 C1563 1.327 . S
C1566 C1554 1.349 . S
C1566 H1560 0.950 . S
C1566 C1567 1.327 . S
C1567 H1561 0.950 . S
C1567 C1566 1.327 . S
C1567 C1571 1.429 . S
C1568 C1551 1.574 . S
C1568 H1562 0.949 . S
C1568 C1572 1.368 . S
C1569 C1550 1.429 . S
C1569 C1563 1.429 . S
C1569 C1570 1.523 . S
C1570 C1551 1.368 . S
C1570 C1564 1.368 . S
C1570 C1569 1.523 . S
C1571 C1555 1.429 . S
C1571 C1567 1.429 . S
C1571 C1572 1.523 . S
C1572 C1556 1.368 . S
C1572 C1568 1.368 . S
C1572 C1571 1.523 . S
H1573 C1548 0.950 . S
H1574 C1550 0.950 . S
H1575 C1551 0.949 . S
H1576 C1553 0.950 . S
H1577 C1555 0.950 . S
C1578 C1579 1.349 . S
C1578 C1580 1.327 . S
C1578 H1603 0.950 . S
C1579 C1578 1.349 . S
C1579 C1595 1.349 . S
C1580 C1578 1.327 . S
C1580 C1599 1.429 . S
C1580 H1604 0.950 . S
C1581 C1598 1.574 . S
C1581 C1600 1.368 . S
C1581 H1605 0.949 . S
H1582 C1586 0.949 . S
C1583 C1584 1.349 . S
C1583 C1585 1.327 . S
C1583 H1606 0.950 . S
C1584 C1583 1.349 . S
C1584 C1596 1.349 . S
C1585 C1583 1.327 . S
C1585 C1601 1.429 . S
C1585 H1607 0.950 . S
C1586 H1582 0.949 . S
C1586 C1594 1.574 . S
C1586 C1602 1.368 . S
H1587 C1595 0.950 . S
H1588 C1593 0.950 . S
H1589 C1594 0.949 . S
H1590 C1596 0.950 . S
H1591 C1597 0.950 . S
H1592 C1598 0.949 . S
C1593 H1588 0.950 . S
C1593 C1595 1.327 . S
C1593 C1599 1.429 . S
C1594 C1586 1.574 . S
C1594 H1589 0.949 . S
C1594 C1600 1.368 . S
C1595 C1579 1.349 . S
C1595 H1587 0.950 . S
C1595 C1593 1.327 . S
C1596 C1584 1.349 . S
C1596 H1590 0.950 . S
C1596 C1597 1.327 . S
C1597 H1591 0.950 . S
C1597 C1596 1.327 . S
C1597 C1601 1.429 . S
C1598 C1581 1.574 . S
C1598 H1592 0.949 . S
C1598 C1602 1.368 . S
C1599 C1580 1.429 . S
C1599 C1593 1.429 . S
C1599 C1600 1.523 . S
C1600 C1581 1.368 . S
C1600 C1594 1.368 . S
C1600 C1599 1.523 . S
C1601 C1585 1.429 . S
C1601 C1597 1.429 . S
C1601 C1602 1.523 . S
C1602 C1586 1.368 . S
C1602 C1598 1.368 . S
C1602 C1601 1.523 . S
H1603 C1578 0.950 . S
H1604 C1580 0.950 . S
H1605 C1581 0.949 . S
H1606 C1583 0.950 . S
H1607 C1585 0.950 . S
C1608 C1609 1.349 . S
C1608 C1610 1.327 . S
C1608 H1633 0.950 . S
C1609 C1608 1.349 . S
C1609 C1625 1.349 . S
C1610 C1608 1.327 . S
C1610 C1629 1.429 . S
C1610 H1634 0.950 . S
C1611 C1628 1.574 . S
C1611 C1630 1.368 . S
C1611 H1635 0.949 . S
H1612 C1616 0.949 . S
C1613 C1614 1.349 . S
C1613 C1615 1.327 . S
C1613 H1636 0.950 . S
C1614 C1613 1.349 . S
C1614 C1626 1.349 . S
C1615 C1613 1.327 . S
C1615 C1631 1.429 . S
C1615 H1637 0.950 . S
C1616 H1612 0.949 . S
C1616 C1624 1.574 . S
C1616 C1632 1.368 . S
H1617 C1625 0.950 . S
H1618 C1623 0.950 . S
H1619 C1624 0.949 . S
H1620 C1626 0.950 . S
H1621 C1627 0.950 . S
H1622 C1628 0.949 . S
C1623 H1618 0.950 . S
C1623 C1625 1.327 . S
C1623 C1629 1.429 . S
C1624 C1616 1.574 . S
C1624 H1619 0.949 . S
C1624 C1630 1.368 . S
C1625 C1609 1.349 . S
C1625 H1617 0.950 . S
C1625 C1623 1.327 . S
C1626 C1614 1.349 . S
C1626 H1620 0.950 . S
C1626 C1627 1.327 . S
C1627 H1621 0.950 . S
C1627 C1626 1.327 . S
C1627 C1631 1.429 . S
C1628 C1611 1.574 . S
C1628 H1622 0.949 . S
C1628 C1632 1.368 . S
C1629 C1610 1.429 . S
C1629 C1623 1.429 . S
C1629 C1630 1.523 . S
C1630 C1611 1.368 . S
C1630 C1624 1.368 . S
C1630 C1629 1.523 . S
C1631 C1615 1.429 . S
C1631 C1627 1.429 . S
C1631 C1632 1.523 . S
C1632 C1616 1.368 . S
C1632 C1628 1.368 . S
C1632 C1631 1.523 . S
H1633 C1608 0.950 . S
H1634 C1610 0.950 . S
H1635 C1611 0.949 . S
H1636 C1613 0.950 . S
H1637 C1615 0.950 . S
C1638 C1639 1.349 . S
C1638 C1640 1.327 . S
C1638 H1663 0.950 . S
C1639 C1638 1.349 . S
C1639 C1655 1.349 . S
C1640 C1638 1.327 . S
C1640 C1659 1.429 . S
C1640 H1664 0.950 . S
C1641 C1658 1.574 . S
C1641 C1660 1.368 . S
C1641 H1665 0.949 . S
H1642 C1646 0.949 . S
C1643 C1644 1.349 . S
C1643 C1645 1.327 . S
C1643 H1666 0.950 . S
C1644 C1643 1.349 . S
C1644 C1656 1.349 . S
C1645 C1643 1.327 . S
C1645 C1661 1.429 . S
C1645 H1667 0.950 . S
C1646 H1642 0.949 . S
C1646 C1654 1.574 . S
C1646 C1662 1.368 . S
H1647 C1655 0.950 . S
H1648 C1653 0.950 . S
H1649 C1654 0.949 . S
H1650 C1656 0.950 . S
H1651 C1657 0.950 . S
H1652 C1658 0.949 . S
C1653 H1648 0.950 . S
C1653 C1655 1.327 . S
C1653 C1659 1.429 . S
C1654 C1646 1.574 . S
C1654 H1649 0.949 . S
C1654 C1660 1.368 . S
C1655 C1639 1.349 . S
C1655 H1647 0.950 . S
C1655 C1653 1.327 . S
C1656 C1644 1.349 . S
C1656 H1650 0.950 . S
C1656 C1657 1.327 . S
C1657 H1651 0.950 . S
C1657 C1656 1.327 . S
C1657 C1661 1.429 . S
C1658 C1641 1.574 . S
C1658 H1652 0.949 . S
C1658 C1662 1.368 . S
C1659 C1640 1.429 . S
C1659 C1653 1.429 . S
C1659 C1660 1.523 . S
C1660 C1641 1.368 . S
C1660 C1654 1.368 . S
C1660 C1659 1.523 . S
C1661 C1645 1.429 . S
C1661 C1657 1.429 . S
C1661 C1662 1.523 . S
C1662 C1646 1.368 . S
C1662 C1658 1.368 . S
C1662 C1661 1.523 . S
H1663 C1638 0.950 . S
H1664 C1640 0.950 . S
H1665 C1641 0.949 . S
H1666 C1643 0.950 . S
H1667 C1645 0.950 . S
C1668 C1669 1.349 . S
C1668 C1670 1.327 . S
C1668 H1693 0.950 . S
C1669 C1668 1.349 . S
C1669 C1685 1.349 . S
C1670 C1668 1.327 . S
C1670 C1689 1.429 . S
C1670 H1694 0.950 . S
C1671 C1688 1.574 . S
C1671 C1690 1.368 . S
C1671 H1695 0.949 . S
H1672 C1676 0.949 . S
C1673 C1674 1.349 . S
C1673 C1675 1.327 . S
C1673 H1696 0.950 . S
C1674 C1673 1.349 . S
C1674 C1686 1.349 . S
C1675 C1673 1.327 . S
C1675 C1691 1.429 . S
C1675 H1697 0.950 . S
C1676 H1672 0.949 . S
C1676 C1684 1.574 . S
C1676 C1692 1.368 . S
H1677 C1685 0.950 . S
H1678 C1683 0.950 . S
H1679 C1684 0.949 . S
H1680 C1686 0.950 . S
H1681 C1687 0.950 . S
H1682 C1688 0.949 . S
C1683 H1678 0.950 . S
C1683 C1685 1.327 . S
C1683 C1689 1.429 . S
C1684 C1676 1.574 . S
C1684 H1679 0.949 . S
C1684 C1690 1.368 . S
C1685 C1669 1.349 . S
C1685 H1677 0.950 . S
C1685 C1683 1.327 . S
C1686 C1674 1.349 . S
C1686 H1680 0.950 . S
C1686 C1687 1.327 . S
C1687 H1681 0.950 . S
C1687 C1686 1.327 . S
C1687 C1691 1.429 . S
C1688 C1671 1.574 . S
C1688 H1682 0.949 . S
C1688 C1692 1.368 . S
C1689 C1670 1.429 . S
C1689 C1683 1.429 . S
C1689 C1690 1.523 . S
C1690 C1671 1.368 . S
C1690 C1684 1.368 . S
C1690 C1689 1.523 . S
C1691 C1675 1.429 . S
C1691 C1687 1.429 . S
C1691 C1692 1.523 . S
C1692 C1676 1.368 . S
C1692 C1688 1.368 . S
C1692 C1691 1.523 . S
H1693 C1668 0.950 . S
H1694 C1670 0.950 . S
H1695 C1671 0.949 . S
H1696 C1673 0.950 . S
H1697 C1675 0.950 . S
C1698 C1699 1.349 . S
C1698 C1700 1.327 . S
C1698 H1723 0.950 . S
C1699 C1698 1.349 . S
C1699 C1715 1.349 . S
C1700 C1698 1.327 . S
C1700 C1719 1.429 . S
C1700 H1724 0.950 . S
C1701 C1718 1.574 . S
C1701 C1720 1.368 . S
C1701 H1725 0.949 . S
H1702 C1706 0.949 . S
C1703 C1704 1.349 . S
C1703 C1705 1.327 . S
C1703 H1726 0.950 . S
C1704 C1703 1.349 . S
C1704 C1716 1.349 . S
C1705 C1703 1.327 . S
C1705 C1721 1.429 . S
C1705 H1727 0.950 . S
C1706 H1702 0.949 . S
C1706 C1714 1.574 . S
C1706 C1722 1.368 . S
H1707 C1715 0.950 . S
H1708 C1713 0.950 . S
H1709 C1714 0.949 . S
H1710 C1716 0.950 . S
H1711 C1717 0.950 . S
H1712 C1718 0.949 . S
C1713 H1708 0.950 . S
C1713 C1715 1.327 . S
C1713 C1719 1.429 . S
C1714 C1706 1.574 . S
C1714 H1709 0.949 . S
C1714 C1720 1.368 . S
C1715 C1699 1.349 . S
C1715 H1707 0.950 . S
C1715 C1713 1.327 . S
C1716 C1704 1.349 . S
C1716 H1710 0.950 . S
C1716 C1717 1.327 . S
C1717 H1711 0.950 . S
C1717 C1716 1.327 . S
C1717 C1721 1.429 . S
C1718 C1701 1.574 . S
C1718 H1712 0.949 . S
C1718 C1722 1.368 . S
C1719 C1700 1.429 . S
C1719 C1713 1.429 . S
C1719 C1720 1.523 . S
C1720 C1701 1.368 . S
C1720 C1714 1.368 . S
C1720 C1719 1.523 . S
C1721 C1705 1.429 . S
C1721 C1717 1.429 . S
C1721 C1722 1.523 . S
C1722 C1706 1.368 . S
C1722 C1718 1.368 . S
C1722 C1721 1.523 . S
H1723 C1698 0.950 . S
H1724 C1700 0.950 . S
H1725 C1701 0.949 . S
H1726 C1703 0.950 . S
H1727 C1705 0.950 . S
C1728 C1729 1.349 . S
C1728 C1730 1.327 . S
C1728 H1753 0.950 . S
C1729 C1728 1.349 . S
C1729 C1745 1.349 . S
C1730 C1728 1.327 . S
C1730 C1749 1.429 . S
C1730 H1754 0.950 . S
C1731 C1748 1.574 . S
C1731 C1750 1.368 . S
C1731 H1755 0.949 . S
H1732 C1736 0.949 . S
C1733 C1734 1.349 . S
C1733 C1735 1.327 . S
C1733 H1756 0.950 . S
C1734 C1733 1.349 . S
C1734 C1746 1.349 . S
C1735 C1733 1.327 . S
C1735 C1751 1.429 . S
C1735 H1757 0.950 . S
C1736 H1732 0.949 . S
C1736 C1744 1.574 . S
C1736 C1752 1.368 . S
H1737 C1745 0.950 . S
H1738 C1743 0.950 . S
H1739 C1744 0.949 . S
H1740 C1746 0.950 . S
H1741 C1747 0.950 . S
H1742 C1748 0.949 . S
C1743 H1738 0.950 . S
C1743 C1745 1.327 . S
C1743 C1749 1.429 . S
C1744 C1736 1.574 . S
C1744 H1739 0.949 . S
C1744 C1750 1.368 . S
C1745 C1729 1.349 . S
C1745 H1737 0.950 . S
C1745 C1743 1.327 . S
C1746 C1734 1.349 . S
C1746 H1740 0.950 . S
C1746 C1747 1.327 . S
C1747 H1741 0.950 . S
C1747 C1746 1.327 . S
C1747 C1751 1.429 . S
C1748 C1731 1.574 . S
C1748 H1742 0.949 . S
C1748 C1752 1.368 . S
C1749 C1730 1.429 . S
C1749 C1743 1.429 . S
C1749 C1750 1.523 . S
C1750 C1731 1.368 . S
C1750 C1744 1.368 . S
C1750 C1749 1.523 . S
C1751 C1735 1.429 . S
C1751 C1747 1.429 . S
C1751 C1752 1.523 . S
C1752 C1736 1.368 . S
C1752 C1748 1.368 . S
C1752 C1751 1.523 . S
H1753 C1728 0.950 . S
H1754 C1730 0.950 . S
H1755 C1731 0.949 . S
H1756 C1733 0.950 . S
H1757 C1735 0.950 . S
C1758 C1759 1.349 . S
C1758 C1760 1.327 . S
C1758 H1783 0.950 . S
C1759 C1758 1.349 . S
C1759 C1775 1.349 . S
C1760 C1758 1.327 . S
C1760 C1779 1.429 . S
C1760 H1784 0.950 . S
C1761 C1778 1.574 . S
C1761 C1780 1.368 . S
C1761 H1785 0.949 . S
H1762 C1766 0.949 . S
C1763 C1764 1.349 . S
C1763 C1765 1.327 . S
C1763 H1786 0.950 . S
C1764 C1763 1.349 . S
C1764 C1776 1.349 . S
C1765 C1763 1.327 . S
C1765 C1781 1.429 . S
C1765 H1787 0.950 . S
C1766 H1762 0.949 . S
C1766 C1774 1.574 . S
C1766 C1782 1.368 . S
H1767 C1775 0.950 . S
H1768 C1773 0.950 . S
H1769 C1774 0.949 . S
H1770 C1776 0.950 . S
H1771 C1777 0.950 . S
H1772 C1778 0.949 . S
C1773 H1768 0.950 . S
C1773 C1775 1.327 . S
C1773 C1779 1.429 . S
C1774 C1766 1.574 . S
C1774 H1769 0.949 . S
C1774 C1780 1.368 . S
C1775 C1759 1.349 . S
C1775 H1767 0.950 . S
C1775 C1773 1.327 . S
C1776 C1764 1.349 . S
C1776 H1770 0.950 . S
C1776 C1777 1.327 . S
C1777 H1771 0.950 . S
C1777 C1776 1.327 . S
C1777 C1781 1.429 . S
C1778 C1761 1.574 . S
C1778 H1772 0.949 . S
C1778 C1782 1.368 . S
C1779 C1760 1.429 . S
C1779 C1773 1.429 . S
C1779 C1780 1.523 . S
C1780 C1761 1.368 . S
C1780 C1774 1.368 . S
C1780 C1779 1.523 . S
C1781 C1765 1.429 . S
C1781 C1777 1.429 . S
C1781 C1782 1.523 . S
C1782 C1766 1.368 . S
C1782 C1778 1.368 . S
C1782 C1781 1.523 . S
H1783 C1758 0.950 . S
H1784 C1760 0.950 . S
H1785 C1761 0.949 . S
H1786 C1763 0.950 . S
H1787 C1765 0.950 . S
C1788 C1789 1.349 . S
C1788 C1790 1.327 . S
C1788 H1813 0.950 . S
C1789 C1788 1.349 . S
C1789 C1805 1.349 . S
C1790 C1788 1.327 . S
C1790 C1809 1.429 . S
C1790 H1814 0.950 . S
C1791 C1808 1.574 . S
C1791 C1810 1.368 . S
C1791 H1815 0.949 . S
H1792 C1796 0.949 . S
C1793 C1794 1.349 . S
C1793 C1795 1.327 . S
C1793 H1816 0.950 . S
C1794 C1793 1.349 . S
C1794 C1806 1.349 . S
C1795 C1793 1.327 . S
C1795 C1811 1.429 . S
C1795 H1817 0.950 . S
C1796 H1792 0.949 . S
C1796 C1804 1.574 . S
C1796 C1812 1.368 . S
H1797 C1805 0.950 . S
H1798 C1803 0.950 . S
H1799 C1804 0.949 . S
H1800 C1806 0.950 . S
H1801 C1807 0.950 . S
H1802 C1808 0.949 . S
C1803 H1798 0.950 . S
C1803 C1805 1.327 . S
C1803 C1809 1.429 . S
C1804 C1796 1.574 . S
C1804 H1799 0.949 . S
C1804 C1810 1.368 . S
C1805 C1789 1.349 . S
C1805 H1797 0.950 . S
C1805 C1803 1.327 . S
C1806 C1794 1.349 . S
C1806 H1800 0.950 . S
C1806 C1807 1.327 . S
C1807 H1801 0.950 . S
C1807 C1806 1.327 . S
C1807 C1811 1.429 . S
C1808 C1791 1.574 . S
C1808 H1802 0.949 . S
C1808 C1812 1.368 . S
C1809 C1790 1.429 . S
C1809 C1803 1.429 . S
C1809 C1810 1.523 . S
C1810 C1791 1.368 . S
C1810 C1804 1.368 . S
C1810 C1809 1.523 . S
C1811 C1795 1.429 . S
C1811 C1807 1.429 . S
C1811 C1812 1.523 . S
C1812 C1796 1.368 . S
C1812 C1808 1.368 . S
C1812 C1811 1.523 . S
H1813 C1788 0.950 . S
H1814 C1790 0.950 . S
H1815 C1791 0.949 . S
H1816 C1793 0.950 . S
H1817 C1795 0.950 . S
C1818 C1819 1.349 . S
C1818 C1820 1.327 . S
C1818 H1843 0.950 . S
C1819 C1818 1.349 . S
C1819 C1835 1.349 . S
C1820 C1818 1.327 . S
C1820 C1839 1.429 . S
C1820 H1844 0.950 . S
C1821 C1838 1.574 . S
C1821 C1840 1.368 . S
C1821 H1845 0.949 . S
H1822 C1826 0.949 . S
C1823 C1824 1.349 . S
C1823 C1825 1.327 . S
C1823 H1846 0.950 . S
C1824 C1823 1.349 . S
C1824 C1836 1.349 . S
C1825 C1823 1.327 . S
C1825 C1841 1.429 . S
C1825 H1847 0.950 . S
C1826 H1822 0.949 . S
C1826 C1834 1.574 . S
C1826 C1842 1.368 . S
H1827 C1835 0.950 . S
H1828 C1833 0.950 . S
H1829 C1834 0.949 . S
H1830 C1836 0.950 . S
H1831 C1837 0.950 . S
H1832 C1838 0.949 . S
C1833 H1828 0.950 . S
C1833 C1835 1.327 . S
C1833 C1839 1.429 . S
C1834 C1826 1.574 . S
C1834 H1829 0.949 . S
C1834 C1840 1.368 . S
C1835 C1819 1.349 . S
C1835 H1827 0.950 . S
C1835 C1833 1.327 . S
C1836 C1824 1.349 . S
C1836 H1830 0.950 . S
C1836 C1837 1.327 . S
C1837 H1831 0.950 . S
C1837 C1836 1.327 . S
C1837 C1841 1.429 . S
C1838 C1821 1.574 . S
C1838 H1832 0.949 . S
C1838 C1842 1.368 . S
C1839 C1820 1.429 . S
C1839 C1833 1.429 . S
C1839 C1840 1.523 . S
C1840 C1821 1.368 . S
C1840 C1834 1.368 . S
C1840 C1839 1.523 . S
C1841 C1825 1.429 . S
C1841 C1837 1.429 . S
C1841 C1842 1.523 . S
C1842 C1826 1.368 . S
C1842 C1838 1.368 . S
C1842 C1841 1.523 . S
H1843 C1818 0.950 . S
H1844 C1820 0.950 . S
H1845 C1821 0.949 . S
H1846 C1823 0.950 . S
H1847 C1825 0.950 . S
C1848 C1849 1.349 . S
C1848 C1850 1.327 . S
C1848 H1873 0.950 . S
C1849 C1848 1.349 . S
C1849 C1865 1.349 . S
C1850 C1848 1.327 . S
C1850 C1869 1.429 . S
C1850 H1874 0.950 . S
C1851 C1868 1.574 . S
C1851 C1870 1.368 . S
C1851 H1875 0.949 . S
H1852 C1856 0.949 . S
C1853 C1854 1.349 . S
C1853 C1855 1.327 . S
C1853 H1876 0.950 . S
C1854 C1853 1.349 . S
C1854 C1866 1.349 . S
C1855 C1853 1.327 . S
C1855 C1871 1.429 . S
C1855 H1877 0.950 . S
C1856 H1852 0.949 . S
C1856 C1864 1.574 . S
C1856 C1872 1.368 . S
H1857 C1865 0.950 . S
H1858 C1863 0.950 . S
H1859 C1864 0.949 . S
H1860 C1866 0.950 . S
H1861 C1867 0.950 . S
H1862 C1868 0.949 . S
C1863 H1858 0.950 . S
C1863 C1865 1.327 . S
C1863 C1869 1.429 . S
C1864 C1856 1.574 . S
C1864 H1859 0.949 . S
C1864 C1870 1.368 . S
C1865 C1849 1.349 . S
C1865 H1857 0.950 . S
C1865 C1863 1.327 . S
C1866 C1854 1.349 . S
C1866 H1860 0.950 . S
C1866 C1867 1.327 . S
C1867 H1861 0.950 . S
C1867 C1866 1.327 . S
C1867 C1871 1.429 . S
C1868 C1851 1.574 . S
C1868 H1862 0.949 . S
C1868 C1872 1.368 . S
C1869 C1850 1.429 . S
C1869 C1863 1.429 . S
C1869 C1870 1.523 . S
C1870 C1851 1.368 . S
C1870 C1864 1.368 . S
C1870 C1869 1.523 . S
C1871 C1855 1.429 . S
C1871 C1867 1.429 . S
C1871 C1872 1.523 . S
C1872 C1856 1.368 . S
C1872 C1868 1.368 . S
C1872 C1871 1.523 . S
H1873 C1848 0.950 . S
H1874 C1850 0.950 . S
H1875 C1851 0.949 . S
H1876 C1853 0.950 . S
H1877 C1855 0.950 . S
C1878 C1879 1.349 . S
C1878 C1880 1.327 . S
C1878 H1903 0.950 . S
C1879 C1878 1.349 . S
C1879 C1895 1.349 . S
C1880 C1878 1.327 . S
C1880 C1899 1.429 . S
C1880 H1904 0.950 . S
C1881 C1898 1.574 . S
C1881 C1900 1.368 . S
C1881 H1905 0.949 . S
H1882 C1886 0.949 . S
C1883 C1884 1.349 . S
C1883 C1885 1.327 . S
C1883 H1906 0.950 . S
C1884 C1883 1.349 . S
C1884 C1896 1.349 . S
C1885 C1883 1.327 . S
C1885 C1901 1.429 . S
C1885 H1907 0.950 . S
C1886 H1882 0.949 . S
C1886 C1894 1.574 . S
C1886 C1902 1.368 . S
H1887 C1895 0.950 . S
H1888 C1893 0.950 . S
H1889 C1894 0.949 . S
H1890 C1896 0.950 . S
H1891 C1897 0.950 . S
H1892 C1898 0.949 . S
C1893 H1888 0.950 . S
C1893 C1895 1.327 . S
C1893 C1899 1.429 . S
C1894 C1886 1.574 . S
C1894 H1889 0.949 . S
C1894 C1900 1.368 . S
C1895 C1879 1.349 . S
C1895 H1887 0.950 . S
C1895 C1893 1.327 . S
C1896 C1884 1.349 . S
C1896 H1890 0.950 . S
C1896 C1897 1.327 . S
C1897 H1891 0.950 . S
C1897 C1896 1.327 . S
C1897 C1901 1.429 . S
C1898 C1881 1.574 . S
C1898 H1892 0.949 . S
C1898 C1902 1.368 . S
C1899 C1880 1.429 . S
C1899 C1893 1.429 . S
C1899 C1900 1.523 . S
C1900 C1881 1.368 . S
C1900 C1894 1.368 . S
C1900 C1899 1.523 . S
C1901 C1885 1.429 . S
C1901 C1897 1.429 . S
C1901 C1902 1.523 . S
C1902 C1886 1.368 . S
C1902 C1898 1.368 . S
C1902 C1901 1.523 . S
H1903 C1878 0.950 . S
H1904 C1880 0.950 . S
H1905 C1881 0.949 . S
H1906 C1883 0.950 . S
H1907 C1885 0.950 . S
C1908 C1909 1.349 . S
C1908 C1910 1.327 . S
C1908 H1933 0.950 . S
C1909 C1908 1.349 . S
C1909 C1925 1.349 . S
C1910 C1908 1.327 . S
C1910 C1929 1.429 . S
C1910 H1934 0.950 . S
C1911 C1928 1.574 . S
C1911 C1930 1.368 . S
C1911 H1935 0.949 . S
H1912 C1916 0.949 . S
C1913 C1914 1.349 . S
C1913 C1915 1.327 . S
C1913 H1936 0.950 . S
C1914 C1913 1.349 . S
C1914 C1926 1.349 . S
C1915 C1913 1.327 . S
C1915 C1931 1.429 . S
C1915 H1937 0.950 . S
C1916 H1912 0.949 . S
C1916 C1924 1.574 . S
C1916 C1932 1.368 . S
H1917 C1925 0.950 . S
H1918 C1923 0.950 . S
H1919 C1924 0.949 . S
H1920 C1926 0.950 . S
H1921 C1927 0.950 . S
H1922 C1928 0.949 . S
C1923 H1918 0.950 . S
C1923 C1925 1.327 . S
C1923 C1929 1.429 . S
C1924 C1916 1.574 . S
C1924 H1919 0.949 . S
C1924 C1930 1.368 . S
C1925 C1909 1.349 . S
C1925 H1917 0.950 . S
C1925 C1923 1.327 . S
C1926 C1914 1.349 . S
C1926 H1920 0.950 . S
C1926 C1927 1.327 . S
C1927 H1921 0.950 . S
C1927 C1926 1.327 . S
C1927 C1931 1.429 . S
C1928 C1911 1.574 . S
C1928 H1922 0.949 . S
C1928 C1932 1.368 . S
C1929 C1910 1.429 . S
C1929 C1923 1.429 . S
C1929 C1930 1.523 . S
C1930 C1911 1.368 . S
C1930 C1924 1.368 . S
C1930 C1929 1.523 . S
C1931 C1915 1.429 . S
C1931 C1927 1.429 . S
C1931 C1932 1.523 . S
C1932 C1916 1.368 . S
C1932 C1928 1.368 . S
C1932 C1931 1.523 . S
H1933 C1908 0.950 . S
H1934 C1910 0.950 . S
H1935 C1911 0.949 . S
H1936 C1913 0.950 . S
H1937 C1915 0.950 . S
C1938 C1939 1.349 . S
C1938 C1940 1.327 . S
C1938 H1963 0.950 . S
C1939 C1938 1.349 . S
C1939 C1955 1.349 . S
C1940 C1938 1.327 . S
C1940 C1959 1.429 . S
C1940 H1964 0.950 . S
C1941 C1958 1.574 . S
C1941 C1960 1.368 . S
C1941 H1965 0.949 . S
H1942 C1946 0.949 . S
C1943 C1944 1.349 . S
C1943 C1945 1.327 . S
C1943 H1966 0.950 . S
C1944 C1943 1.349 . S
C1944 C1956 1.349 . S
C1945 C1943 1.327 . S
C1945 C1961 1.429 . S
C1945 H1967 0.950 . S
C1946 H1942 0.949 . S
C1946 C1954 1.574 . S
C1946 C1962 1.368 . S
H1947 C1955 0.950 . S
H1948 C1953 0.950 . S
H1949 C1954 0.949 . S
H1950 C1956 0.950 . S
H1951 C1957 0.950 . S
H1952 C1958 0.949 . S
C1953 H1948 0.950 . S
C1953 C1955 1.327 . S
C1953 C1959 1.429 . S
C1954 C1946 1.574 . S
C1954 H1949 0.949 . S
C1954 C1960 1.368 . S
C1955 C1939 1.349 . S
C1955 H1947 0.950 . S
C1955 C1953 1.327 . S
C1956 C1944 1.349 . S
C1956 H1950 0.950 . S
C1956 C1957 1.327 . S
C1957 H1951 0.950 . S
C1957 C1956 1.327 . S
C1957 C1961 1.429 . S
C1958 C1941 1.574 . S
C1958 H1952 0.949 . S
C1958 C1962 1.368 . S
C1959 C1940 1.429 . S
C1959 C1953 1.429 . S
C1959 C1960 1.523 . S
C1960 C1941 1.368 . S
C1960 C1954 1.368 . S
C1960 C1959 1.523 . S
C1961 C1945 1.429 . S
C1961 C1957 1.429 . S
C1961 C1962 1.523 . S
C1962 C1946 1.368 . S
C1962 C1958 1.368 . S
C1962 C1961 1.523 . S
H1963 C1938 0.950 . S
H1964 C1940 0.950 . S
H1965 C1941 0.949 . S
H1966 C1943 0.950 . S
H1967 C1945 0.950 . S
C1968 C1969 1.349 . S
C1968 C1970 1.327 . S
C1968 H1993 0.950 . S
C1969 C1968 1.349 . S
C1969 C1985 1.349 . S
C1970 C1968 1.327 . S
C1970 C1989 1.429 . S
C1970 H1994 0.950 . S
C1971 C1988 1.574 . S
C1971 C1990 1.368 . S
C1971 H1995 0.949 . S
H1972 C1976 0.949 . S
C1973 C1974 1.349 . S
C1973 C1975 1.327 . S
C1973 H1996 0.950 . S
C1974 C1973 1.349 . S
C1974 C1986 1.349 . S
C1975 C1973 1.327 . S
C1975 C1991 1.429 . S
C1975 H1997 0.950 . S
C1976 H1972 0.949 . S
C1976 C1984 1.574 . S
C1976 C1992 1.368 . S
H1977 C1985 0.950 . S
H1978 C1983 0.950 . S
H1979 C1984 0.949 . S
H1980 C1986 0.950 . S
H1981 C1987 0.950 . S
H1982 C1988 0.949 . S
C1983 H1978 0.950 . S
C1983 C1985 1.327 . S
C1983 C1989 1.429 . S
C1984 C1976 1.574 . S
C1984 H1979 0.949 . S
C1984 C1990 1.368 . S
C1985 C1969 1.349 . S
C1985 H1977 0.950 . S
C1985 C1983 1.327 . S
C1986 C1974 1.349 . S
C1986 H1980 0.950 . S
C1986 C1987 1.327 . S
C1987 H1981 0.950 . S
C1987 C1986 1.327 . S
C1987 C1991 1.429 . S
C1988 C1971 1.574 . S
C1988 H1982 0.949 . S
C1988 C1992 1.368 . S
C1989 C1970 1.429 . S
C1989 C1983 1.429 . S
C1989 C1990 1.523 . S
C1990 C1971 1.368 . S
C1990 C1984 1.368 . S
C1990 C1989 1.523 . S
C1991 C1975 1.429 . S
C1991 C1987 1.429 . S
C1991 C1992 1.523 . S
C1992 C1976 1.368 . S
C1992 C1988 1.368 . S
C1992 C1991 1.523 . S
H1993 C1968 0.950 . S
H1994 C1970 0.950 . S
H1995 C1971 0.949 . S
H1996 C1973 0.950 . S
H1997 C1975 0.950 . S
C1998 C1999 1.349 . S
C1998 C2000 1.327 . S
C1998 H2023 0.950 . S
C1999 C1998 1.349 . S
C1999 C2015 1.349 . S
C2000 C1998 1.327 . S
C2000 C2019 1.429 . S
C2000 H2024 0.950 . S
C2001 C2018 1.574 . S
C2001 C2020 1.368 . S
C2001 H2025 0.949 . S
H2002 C2006 0.949 . S
C2003 C2004 1.349 . S
C2003 C2005 1.327 . S
C2003 H2026 0.950 . S
C2004 C2003 1.349 . S
C2004 C2016 1.349 . S
C2005 C2003 1.327 . S
C2005 C2021 1.429 . S
C2005 H2027 0.950 . S
C2006 H2002 0.949 . S
C2006 C2014 1.574 . S
C2006 C2022 1.368 . S
H2007 C2015 0.950 . S
H2008 C2013 0.950 . S
H2009 C2014 0.949 . S
H2010 C2016 0.950 . S
H2011 C2017 0.950 . S
H2012 C2018 0.949 . S
C2013 H2008 0.950 . S
C2013 C2015 1.327 . S
C2013 C2019 1.429 . S
C2014 C2006 1.574 . S
C2014 H2009 0.949 . S
C2014 C2020 1.368 . S
C2015 C1999 1.349 . S
C2015 H2007 0.950 . S
C2015 C2013 1.327 . S
C2016 C2004 1.349 . S
C2016 H2010 0.950 . S
C2016 C2017 1.327 . S
C2017 H2011 0.950 . S
C2017 C2016 1.327 . S
C2017 C2021 1.429 . S
C2018 C2001 1.574 . S
C2018 H2012 0.949 . S
C2018 C2022 1.368 . S
C2019 C2000 1.429 . S
C2019 C2013 1.429 . S
C2019 C2020 1.523 . S
C2020 C2001 1.368 . S
C2020 C2014 1.368 . S
C2020 C2019 1.523 . S
C2021 C2005 1.429 . S
C2021 C2017 1.429 . S
C2021 C2022 1.523 . S
C2022 C2006 1.368 . S
C2022 C2018 1.368 . S
C2022 C2021 1.523 . S
H2023 C1998 0.950 . S
H2024 C2000 0.950 . S
H2025 C2001 0.949 . S
H2026 C2003 0.950 . S
H2027 C2005 0.950 . S
C2028 C2029 1.349 . S
C2028 C2030 1.327 . S
C2028 H2053 0.950 . S
C2029 C2028 1.349 . S
C2029 C2045 1.349 . S
C2030 C2028 1.327 . S
C2030 C2049 1.429 . S
C2030 H2054 0.950 . S
C2031 C2048 1.574 . S
C2031 C2050 1.368 . S
C2031 H2055 0.949 . S
H2032 C2036 0.949 . S
C2033 C2034 1.349 . S
C2033 C2035 1.327 . S
C2033 H2056 0.950 . S
C2034 C2033 1.349 . S
C2034 C2046 1.349 . S
C2035 C2033 1.327 . S
C2035 C2051 1.429 . S
C2035 H2057 0.950 . S
C2036 H2032 0.949 . S
C2036 C2044 1.574 . S
C2036 C2052 1.368 . S
H2037 C2045 0.950 . S
H2038 C2043 0.950 . S
H2039 C2044 0.949 . S
H2040 C2046 0.950 . S
H2041 C2047 0.950 . S
H2042 C2048 0.949 . S
C2043 H2038 0.950 . S
C2043 C2045 1.327 . S
C2043 C2049 1.429 . S
C2044 C2036 1.574 . S
C2044 H2039 0.949 . S
C2044 C2050 1.368 . S
C2045 C2029 1.349 . S
C2045 H2037 0.950 . S
C2045 C2043 1.327 . S
C2046 C2034 1.349 . S
C2046 H2040 0.950 . S
C2046 C2047 1.327 . S
C2047 H2041 0.950 . S
C2047 C2046 1.327 . S
C2047 C2051 1.429 . S
C2048 C2031 1.574 . S
C2048 H2042 0.949 . S
C2048 C2052 1.368 . S
C2049 C2030 1.429 . S
C2049 C2043 1.429 . S
C2049 C2050 1.523 . S
C2050 C2031 1.368 . S
C2050 C2044 1.368 . S
C2050 C2049 1.523 . S
C2051 C2035 1.429 . S
C2051 C2047 1.429 . S
C2051 C2052 1.523 . S
C2052 C2036 1.368 . S
C2052 C2048 1.368 . S
C2052 C2051 1.523 . S
H2053 C2028 0.950 . S
H2054 C2030 0.950 . S
H2055 C2031 0.949 . S
H2056 C2033 0.950 . S
H2057 C2035 0.950 . S
C2058 C2059 1.349 . S
C2058 C2060 1.327 . S
C2058 H2083 0.950 . S
C2059 C2058 1.349 . S
C2059 C2075 1.349 . S
C2060 C2058 1.327 . S
C2060 C2079 1.429 . S
C2060 H2084 0.950 . S
C2061 C2078 1.574 . S
C2061 C2080 1.368 . S
C2061 H2085 0.949 . S
H2062 C2066 0.949 . S
C2063 C2064 1.349 . S
C2063 C2065 1.327 . S
C2063 H2086 0.950 . S
C2064 C2063 1.349 . S
C2064 C2076 1.349 . S
C2065 C2063 1.327 . S
C2065 C2081 1.429 . S
C2065 H2087 0.950 . S
C2066 H2062 0.949 . S
C2066 C2074 1.574 . S
C2066 C2082 1.368 . S
H2067 C2075 0.950 . S
H2068 C2073 0.950 . S
H2069 C2074 0.949 . S
H2070 C2076 0.950 . S
H2071 C2077 0.950 . S
H2072 C2078 0.949 . S
C2073 H2068 0.950 . S
C2073 C2075 1.327 . S
C2073 C2079 1.429 . S
C2074 C2066 1.574 . S
C2074 H2069 0.949 . S
C2074 C2080 1.368 . S
C2075 C2059 1.349 . S
C2075 H2067 0.950 . S
C2075 C2073 1.327 . S
C2076 C2064 1.349 . S
C2076 H2070 0.950 . S
C2076 C2077 1.327 . S
C2077 H2071 0.950 . S
C2077 C2076 1.327 . S
C2077 C2081 1.429 . S
C2078 C2061 1.574 . S
C2078 H2072 0.949 . S
C2078 C2082 1.368 . S
C2079 C2060 1.429 . S
C2079 C2073 1.429 . S
C2079 C2080 1.523 . S
C2080 C2061 1.368 . S
C2080 C2074 1.368 . S
C2080 C2079 1.523 . S
C2081 C2065 1.429 . S
C2081 C2077 1.429 . S
C2081 C2082 1.523 . S
C2082 C2066 1.368 . S
C2082 C2078 1.368 . S
C2082 C2081 1.523 . S
H2083 C2058 0.950 . S
H2084 C2060 0.950 . S
H2085 C2061 0.949 . S
H2086 C2063 0.950 . S
H2087 C2065 0.950 . S
C2088 C2089 1.349 . S
C2088 C2090 1.327 . S
C2088 H2113 0.950 . S
C2089 C2088 1.349 . S
C2089 C2105 1.349 . S
C2090 C2088 1.327 . S
C2090 C2109 1.429 . S
C2090 H2114 0.950 . S
C2091 C2108 1.574 . S
C2091 C2110 1.368 . S
C2091 H2115 0.949 . S
H2092 C2096 0.949 . S
C2093 C2094 1.349 . S
C2093 C2095 1.327 . S
C2093 H2116 0.950 . S
C2094 C2093 1.349 . S
C2094 C2106 1.349 . S
C2095 C2093 1.327 . S
C2095 C2111 1.429 . S
C2095 H2117 0.950 . S
C2096 H2092 0.949 . S
C2096 C2104 1.574 . S
C2096 C2112 1.368 . S
H2097 C2105 0.950 . S
H2098 C2103 0.950 . S
H2099 C2104 0.949 . S
H2100 C2106 0.950 . S
H2101 C2107 0.950 . S
H2102 C2108 0.949 . S
C2103 H2098 0.950 . S
C2103 C2105 1.327 . S
C2103 C2109 1.429 . S
C2104 C2096 1.574 . S
C2104 H2099 0.949 . S
C2104 C2110 1.368 . S
C2105 C2089 1.349 . S
C2105 H2097 0.950 . S
C2105 C2103 1.327 . S
C2106 C2094 1.349 . S
C2106 H2100 0.950 . S
C2106 C2107 1.327 . S
C2107 H2101 0.950 . S
C2107 C2106 1.327 . S
C2107 C2111 1.429 . S
C2108 C2091 1.574 . S
C2108 H2102 0.949 . S
C2108 C2112 1.368 . S
C2109 C2090 1.429 . S
C2109 C2103 1.429 . S
C2109 C2110 1.523 . S
C2110 C2091 1.368 . S
C2110 C2104 1.368 . S
C2110 C2109 1.523 . S
C2111 C2095 1.429 . S
C2111 C2107 1.429 . S
C2111 C2112 1.523 . S
C2112 C2096 1.368 . S
C2112 C2108 1.368 . S
C2112 C2111 1.523 . S
H2113 C2088 0.950 . S
H2114 C2090 0.950 . S
H2115 C2091 0.949 . S
H2116 C2093 0.950 . S
H2117 C2095 0.950 . S
C2118 C2119 1.349 . S
C2118 C2120 1.327 . S
C2118 H2143 0.950 . S
C2119 C2118 1.349 . S
C2119 C2135 1.349 . S
C2120 C2118 1.327 . S
C2120 C2139 1.429 . S
C2120 H2144 0.950 . S
C2121 C2138 1.574 . S
C2121 C2140 1.368 . S
C2121 H2145 0.949 . S
H2122 C2126 0.949 . S
C2123 C2124 1.349 . S
C2123 C2125 1.327 . S
C2123 H2146 0.950 . S
C2124 C2123 1.349 . S
C2124 C2136 1.349 . S
C2125 C2123 1.327 . S
C2125 C2141 1.429 . S
C2125 H2147 0.950 . S
C2126 H2122 0.949 . S
C2126 C2134 1.574 . S
C2126 C2142 1.368 . S
H2127 C2135 0.950 . S
H2128 C2133 0.950 . S
H2129 C2134 0.949 . S
H2130 C2136 0.950 . S
H2131 C2137 0.950 . S
H2132 C2138 0.949 . S
C2133 H2128 0.950 . S
C2133 C2135 1.327 . S
C2133 C2139 1.429 . S
C2134 C2126 1.574 . S
C2134 H2129 0.949 . S
C2134 C2140 1.368 . S
C2135 C2119 1.349 . S
C2135 H2127 0.950 . S
C2135 C2133 1.327 . S
C2136 C2124 1.349 . S
C2136 H2130 0.950 . S
C2136 C2137 1.327 . S
C2137 H2131 0.950 . S
C2137 C2136 1.327 . S
C2137 C2141 1.429 . S
C2138 C2121 1.574 . S
C2138 H2132 0.949 . S
C2138 C2142 1.368 . S
C2139 C2120 1.429 . S
C2139 C2133 1.429 . S
C2139 C2140 1.523 . S
C2140 C2121 1.368 . S
C2140 C2134 1.368 . S
C2140 C2139 1.523 . S
C2141 C2125 1.429 . S
C2141 C2137 1.429 . S
C2141 C2142 1.523 . S
C2142 C2126 1.368 . S
C2142 C2138 1.368 . S
C2142 C2141 1.523 . S
H2143 C2118 0.950 . S
H2144 C2120 0.950 . S
H2145 C2121 0.949 . S
H2146 C2123 0.950 . S
H2147 C2125 0.950 . S
C2148 C2149 1.349 . S
C2148 C2150 1.327 . S
C2148 H2173 0.950 . S
C2149 C2148 1.349 . S
C2149 C2165 1.349 . S
C2150 C2148 1.327 . S
C2150 C2169 1.429 . S
C2150 H2174 0.950 . S
C2151 C2168 1.574 . S
C2151 C2170 1.368 . S
C2151 H2175 0.949 . S
H2152 C2156 0.949 . S
C2153 C2154 1.349 . S
C2153 C2155 1.327 . S
C2153 H2176 0.950 . S
C2154 C2153 1.349 . S
C2154 C2166 1.349 . S
C2155 C2153 1.327 . S
C2155 C2171 1.429 . S
C2155 H2177 0.950 . S
C2156 H2152 0.949 . S
C2156 C2164 1.574 . S
C2156 C2172 1.368 . S
H2157 C2165 0.950 . S
H2158 C2163 0.950 . S
H2159 C2164 0.949 . S
H2160 C2166 0.950 . S
H2161 C2167 0.950 . S
H2162 C2168 0.949 . S
C2163 H2158 0.950 . S
C2163 C2165 1.327 . S
C2163 C2169 1.429 . S
C2164 C2156 1.574 . S
C2164 H2159 0.949 . S
C2164 C2170 1.368 . S
C2165 C2149 1.349 . S
C2165 H2157 0.950 . S
C2165 C2163 1.327 . S
C2166 C2154 1.349 . S
C2166 H2160 0.950 . S
C2166 C2167 1.327 . S
C2167 H2161 0.950 . S
C2167 C2166 1.327 . S
C2167 C2171 1.429 . S
C2168 C2151 1.574 . S
C2168 H2162 0.949 . S
C2168 C2172 1.368 . S
C2169 C2150 1.429 . S
C2169 C2163 1.429 . S
C2169 C2170 1.523 . S
C2170 C2151 1.368 . S
C2170 C2164 1.368 . S
C2170 C2169 1.523 . S
C2171 C2155 1.429 . S
C2171 C2167 1.429 . S
C2171 C2172 1.523 . S
C2172 C2156 1.368 . S
C2172 C2168 1.368 . S
C2172 C2171 1.523 . S
H2173 C2148 0.950 . S
H2174 C2150 0.950 . S
H2175 C2151 0.949 . S
H2176 C2153 0.950 . S
H2177 C2155 0.950 . S
C2178 C2179 1.349 . S
C2178 C2180 1.327 . S
C2178 H2203 0.950 . S
C2179 C2178 1.349 . S
C2179 C2195 1.349 . S
C2180 C2178 1.327 . S
C2180 C2199 1.429 . S
C2180 H2204 0.950 . S
C2181 C2198 1.574 . S
C2181 C2200 1.368 . S
C2181 H2205 0.949 . S
H2182 C2186 0.949 . S
C2183 C2184 1.349 . S
C2183 C2185 1.327 . S
C2183 H2206 0.950 . S
C2184 C2183 1.349 . S
C2184 C2196 1.349 . S
C2185 C2183 1.327 . S
C2185 C2201 1.429 . S
C2185 H2207 0.950 . S
C2186 H2182 0.949 . S
C2186 C2194 1.574 . S
C2186 C2202 1.368 . S
H2187 C2195 0.950 . S
H2188 C2193 0.950 . S
H2189 C2194 0.949 . S
H2190 C2196 0.950 . S
H2191 C2197 0.950 . S
H2192 C2198 0.949 . S
C2193 H2188 0.950 . S
C2193 C2195 1.327 . S
C2193 C2199 1.429 . S
C2194 C2186 1.574 . S
C2194 H2189 0.949 . S
C2194 C2200 1.368 . S
C2195 C2179 1.349 . S
C2195 H2187 0.950 . S
C2195 C2193 1.327 . S
C2196 C2184 1.349 . S
C2196 H2190 0.950 . S
C2196 C2197 1.327 . S
C2197 H2191 0.950 . S
C2197 C2196 1.327 . S
C2197 C2201 1.429 . S
C2198 C2181 1.574 . S
C2198 H2192 0.949 . S
C2198 C2202 1.368 . S
C2199 C2180 1.429 . S
C2199 C2193 1.429 . S
C2199 C2200 1.523 . S
C2200 C2181 1.368 . S
C2200 C2194 1.368 . S
C2200 C2199 1.523 . S
C2201 C2185 1.429 . S
C2201 C2197 1.429 . S
C2201 C2202 1.523 . S
C2202 C2186 1.368 . S
C2202 C2198 1.368 . S
C2202 C2201 1.523 . S
H2203 C2178 0.950 . S
H2204 C2180 0.950 . S
H2205 C2181 0.949 . S
H2206 C2183 0.950 . S
H2207 C2185 0.950 . S
C2208 C2209 1.349 . S
C2208 C2210 1.327 . S
C2208 H2233 0.950 . S
C2209 C2208 1.349 . S
C2209 C2225 1.349 . S
C2210 C2208 1.327 . S
C2210 C2229 1.429 . S
C2210 H2234 0.950 . S
C2211 C2228 1.574 . S
C2211 C2230 1.368 . S
C2211 H2235 0.949 . S
H2212 C2216 0.949 . S
C2213 C2214 1.349 . S
C2213 C2215 1.327 . S
C2213 H2236 0.950 . S
C2214 C2213 1.349 . S
C2214 C2226 1.349 . S
C2215 C2213 1.327 . S
C2215 C2231 1.429 . S
C2215 H2237 0.950 . S
C2216 H2212 0.949 . S
C2216 C2224 1.574 . S
C2216 C2232 1.368 . S
H2217 C2225 0.950 . S
H2218 C2223 0.950 . S
H2219 C2224 0.949 . S
H2220 C2226 0.950 . S
H2221 C2227 0.950 . S
H2222 C2228 0.949 . S
C2223 H2218 0.950 . S
C2223 C2225 1.327 . S
C2223 C2229 1.429 . S
C2224 C2216 1.574 . S
C2224 H2219 0.949 . S
C2224 C2230 1.368 . S
C2225 C2209 1.349 . S
C2225 H2217 0.950 . S
C2225 C2223 1.327 . S
C2226 C2214 1.349 . S
C2226 H2220 0.950 . S
C2226 C2227 1.327 . S
C2227 H2221 0.950 . S
C2227 C2226 1.327 . S
C2227 C2231 1.429 . S
C2228 C2211 1.574 . S
C2228 H2222 0.949 . S
C2228 C2232 1.368 . S
C2229 C2210 1.429 . S
C2229 C2223 1.429 . S
C2229 C2230 1.523 . S
C2230 C2211 1.368 . S
C2230 C2224 1.368 . S
C2230 C2229 1.523 . S
C2231 C2215 1.429 . S
C2231 C2227 1.429 . S
C2231 C2232 1.523 . S
C2232 C2216 1.368 . S
C2232 C2228 1.368 . S
C2232 C2231 1.523 . S
H2233 C2208 0.950 . S
H2234 C2210 0.950 . S
H2235 C2211 0.949 . S
H2236 C2213 0.950 . S
H2237 C2215 0.950 . S
C2238 C2239 1.349 . S
C2238 C2240 1.327 . S
C2238 H2263 0.950 . S
C2239 C2238 1.349 . S
C2239 C2255 1.349 . S
C2240 C2238 1.327 . S
C2240 C2259 1.429 . S
C2240 H2264 0.950 . S
C2241 C2258 1.574 . S
C2241 C2260 1.368 . S
C2241 H2265 0.949 . S
H2242 C2246 0.949 . S
C2243 C2244 1.349 . S
C2243 C2245 1.327 . S
C2243 H2266 0.950 . S
C2244 C2243 1.349 . S
C2244 C2256 1.349 . S
C2245 C2243 1.327 . S
C2245 C2261 1.429 . S
C2245 H2267 0.950 . S
C2246 H2242 0.949 . S
C2246 C2254 1.574 . S
C2246 C2262 1.368 . S
H2247 C2255 0.950 . S
H2248 C2253 0.950 . S
H2249 C2254 0.949 . S
H2250 C2256 0.950 . S
H2251 C2257 0.950 . S
H2252 C2258 0.949 . S
C2253 H2248 0.950 . S
C2253 C2255 1.327 . S
C2253 C2259 1.429 . S
C2254 C2246 1.574 . S
C2254 H2249 0.949 . S
C2254 C2260 1.368 . S
C2255 C2239 1.349 . S
C2255 H2247 0.950 . S
C2255 C2253 1.327 . S
C2256 C2244 1.349 . S
C2256 H2250 0.950 . S
C2256 C2257 1.327 . S
C2257 H2251 0.950 . S
C2257 C2256 1.327 . S
C2257 C2261 1.429 . S
C2258 C2241 1.574 . S
C2258 H2252 0.949 . S
C2258 C2262 1.368 . S
C2259 C2240 1.429 . S
C2259 C2253 1.429 . S
C2259 C2260 1.523 . S
C2260 C2241 1.368 . S
C2260 C2254 1.368 . S
C2260 C2259 1.523 . S
C2261 C2245 1.429 . S
C2261 C2257 1.429 . S
C2261 C2262 1.523 . S
C2262 C2246 1.368 . S
C2262 C2258 1.368 . S
C2262 C2261 1.523 . S
H2263 C2238 0.950 . S
H2264 C2240 0.950 . S
H2265 C2241 0.949 . S
H2266 C2243 0.950 . S
H2267 C2245 0.950 . S
C2268 C2269 1.349 . S
C2268 C2270 1.327 . S
C2268 H2293 0.950 . S
C2269 C2268 1.349 . S
C2269 C2285 1.349 . S
C2270 C2268 1.327 . S
C2270 C2289 1.429 . S
C2270 H2294 0.950 . S
C2271 C2288 1.574 . S
C2271 C2290 1.368 . S
C2271 H2295 0.949 . S
H2272 C2276 0.949 . S
C2273 C2274 1.349 . S
C2273 C2275 1.327 . S
C2273 H2296 0.950 . S
C2274 C2273 1.349 . S
C2274 C2286 1.349 . S
C2275 C2273 1.327 . S
C2275 C2291 1.429 . S
C2275 H2297 0.950 . S
C2276 H2272 0.949 . S
C2276 C2284 1.574 . S
C2276 C2292 1.368 . S
H2277 C2285 0.950 . S
H2278 C2283 0.950 . S
H2279 C2284 0.949 . S
H2280 C2286 0.950 . S
H2281 C2287 0.950 . S
H2282 C2288 0.949 . S
C2283 H2278 0.950 . S
C2283 C2285 1.327 . S
C2283 C2289 1.429 . S
C2284 C2276 1.574 . S
C2284 H2279 0.949 . S
C2284 C2290 1.368 . S
C2285 C2269 1.349 . S
C2285 H2277 0.950 . S
C2285 C2283 1.327 . S
C2286 C2274 1.349 . S
C2286 H2280 0.950 . S
C2286 C2287 1.327 . S
C2287 H2281 0.950 . S
C2287 C2286 1.327 . S
C2287 C2291 1.429 . S
C2288 C2271 1.574 . S
C2288 H2282 0.949 . S
C2288 C2292 1.368 . S
C2289 C2270 1.429 . S
C2289 C2283 1.429 . S
C2289 C2290 1.523 . S
C2290 C2271 1.368 . S
C2290 C2284 1.368 . S
C2290 C2289 1.523 . S
C2291 C2275 1.429 . S
C2291 C2287 1.429 . S
C2291 C2292 1.523 . S
C2292 C2276 1.368 . S
C2292 C2288 1.368 . S
C2292 C2291 1.523 . S
H2293 C2268 0.950 . S
H2294 C2270 0.950 . S
H2295 C2271 0.949 . S
H2296 C2273 0.950 . S
H2297 C2275 0.950 . S
C864 C683 1.575 . S
C859 C74 1.572 . S
C894 C673 1.489 . S
C889 C153 1.405 . S
C924 C674 1.083 . S
C919 C231 1.085 . S
C949 C310 0.725 . S
C954 C696 0.490 . S
C979 C394 1.405 . S
C984 C699 1.489 . S
C1014 C682 1.082 . S
C1009 C494 1.083 . S
C1039 C573 0.725 . S
C1044 C672 0.491 . S
C1069 C651 1.573 . S
C1074 C690 1.576 . S
C1104 C703 2.492 . S
C1099 C56 2.568 . S
C1129 C151 1.542 . S
C1134 C752 1.494 . S
C1164 C730 1.504 . S
C1159 C237 1.443 . S
C1194 C744 1.067 . S
C1189 C326 1.065 . S
C1219 C410 1.070 . S
C1224 C705 1.062 . S
C1254 C758 2.485 . S
C1249 C476 2.574 . S
C1279 C571 1.543 . S
C1284 C714 1.503 . S
C1309 C657 1.412 . S
C1314 C735 1.495 . S
C1339 C58 1.411 . S
C1344 C761 1.486 . S
C1369 C392 1.542 . S
C1374 C745 1.499 . S
C1404 C704 1.504 . S
C1399 C478 1.445 . S
C1434 C736 1.067 . S
C1429 C567 1.071 . S
C1459 C655 2.571 . S
C1464 C727 2.495 . S
C1489 C235 2.574 . S
C1494 C734 2.485 . S
C1524 C721 1.502 . S
C1519 C308 1.541 . S
C1549 C147 1.070 . S
C1554 C713 1.056 . S
C1579 C662 1.573 . S
C1584 C776 1.578 . S
C1609 C405 1.405 . S
C1614 C766 1.491 . S
C1644 C767 1.083 . S
C1639 C483 1.086 . S
C1674 C789 0.491 . S
C1669 C562 0.726 . S
C1699 C142 1.405 . S
C1704 C792 1.486 . S
C1734 C775 1.083 . S
C1729 C242 1.082 . S
C1759 C321 0.725 . S
C1764 C765 0.488 . S
C1789 C63 1.573 . S
C1794 C783 1.572 . S
C1819 C644 2.571 . S
C1824 C796 2.493 . S
C1854 C845 1.497 . S
C1849 C403 1.543 . S
C1879 C489 1.444 . S
C1884 C823 1.503 . S
C1909 C578 1.068 . S
C1914 C837 1.067 . S
C1944 C798 1.059 . S
C1939 C158 1.071 . S
C1969 C224 2.574 . S
C1974 C851 2.487 . S
C2004 C807 1.502 . S
C1999 C319 1.542 . S
C2034 C828 1.491 . S
C2029 C69 1.410 . S
C2064 C854 1.491 . S
C2059 C646 1.413 . S
C2089 C140 1.542 . S
C2094 C838 1.496 . S
C2119 C226 1.444 . S
C2124 C797 1.505 . S
C2154 C829 1.067 . S
C2149 C315 1.069 . S
C2179 C67 2.571 . S
C2184 C820 2.490 . S
C2209 C487 2.574 . S
C2214 C827 2.484 . S
C2244 C814 1.501 . S
C2239 C560 1.544 . S
C2274 C806 1.059 . S
C2269 C399 1.069 . S
