# Generated by pormake.
# Topology gar, (4,6)-cn, num edge types: 1
# Building blocks:
#     Node 0, Type 0, BuildingBlock: UXUYUI_clean_sbu_0, # of connection points: 4
#     Node 1, Type 0, BuildingBlock: UXUYUI_clean_sbu_0, # of connection points: 4
#     Node 2, Type 0, BuildingBlock: UXUYUI_clean_sbu_0, # of connection points: 4
#     Node 3, Type 0, BuildingBlock: UXUYUI_clean_sbu_0, # of connection points: 4
#     Node 4, Type 0, BuildingBlock: UXUYUI_clean_sbu_0, # of connection points: 4
#     Node 5, Type 0, BuildingBlock: UXUYUI_clean_sbu_0, # of connection points: 4
#     Node 6, Type 0, BuildingBlock: UXUYUI_clean_sbu_0, # of connection points: 4
#     Node 7, Type 0, BuildingBlock: UXUYUI_clean_sbu_0, # of connection points: 4
#     Node 8, Type 0, BuildingBlock: UXUYUI_clean_sbu_0, # of connection points: 4
#     Node 9, Type 0, BuildingBlock: UXUYUI_clean_sbu_0, # of connection points: 4
#     Node 10, Type 0, BuildingBlock: UXUYUI_clean_sbu_0, # of connection points: 4
#     Node 11, Type 0, BuildingBlock: UXUYUI_clean_sbu_0, # of connection points: 4
#     Node 12, Type 0, BuildingBlock: UXUYUI_clean_sbu_0, # of connection points: 4
#     Node 13, Type 0, BuildingBlock: UXUYUI_clean_sbu_0, # of connection points: 4
#     Node 14, Type 0, BuildingBlock: UXUYUI_clean_sbu_0, # of connection points: 4
#     Node 15, Type 0, BuildingBlock: UXUYUI_clean_sbu_0, # of connection points: 4
#     Node 16, Type 0, BuildingBlock: UXUYUI_clean_sbu_0, # of connection points: 4
#     Node 17, Type 0, BuildingBlock: UXUYUI_clean_sbu_0, # of connection points: 4
#     Node 18, Type 0, BuildingBlock: UXUYUI_clean_sbu_0, # of connection points: 4
#     Node 19, Type 0, BuildingBlock: UXUYUI_clean_sbu_0, # of connection points: 4
#     Node 20, Type 0, BuildingBlock: UXUYUI_clean_sbu_0, # of connection points: 4
#     Node 21, Type 0, BuildingBlock: UXUYUI_clean_sbu_0, # of connection points: 4
#     Node 22, Type 0, BuildingBlock: UXUYUI_clean_sbu_0, # of connection points: 4
#     Node 23, Type 0, BuildingBlock: UXUYUI_clean_sbu_0, # of connection points: 4
#     Node 24, Type 1, BuildingBlock: KUMBOL_clean_sbu_1, # of connection points: 6
#     Node 25, Type 1, BuildingBlock: KUMBOL_clean_sbu_1, # of connection points: 6
#     Node 26, Type 1, BuildingBlock: KUMBOL_clean_sbu_1, # of connection points: 6
#     Node 27, Type 1, BuildingBlock: KUMBOL_clean_sbu_1, # of connection points: 6
#     Node 28, Type 1, BuildingBlock: KUMBOL_clean_sbu_1, # of connection points: 6
#     Node 29, Type 1, BuildingBlock: KUMBOL_clean_sbu_1, # of connection points: 6
#     Node 30, Type 1, BuildingBlock: KUMBOL_clean_sbu_1, # of connection points: 6
#     Node 31, Type 1, BuildingBlock: KUMBOL_clean_sbu_1, # of connection points: 6
#     Node 32, Type 1, BuildingBlock: KUMBOL_clean_sbu_1, # of connection points: 6
#     Node 33, Type 1, BuildingBlock: KUMBOL_clean_sbu_1, # of connection points: 6
#     Node 34, Type 1, BuildingBlock: KUMBOL_clean_sbu_1, # of connection points: 6
#     Node 35, Type 1, BuildingBlock: KUMBOL_clean_sbu_1, # of connection points: 6
#     Node 36, Type 1, BuildingBlock: KUMBOL_clean_sbu_1, # of connection points: 6
#     Node 37, Type 1, BuildingBlock: KUMBOL_clean_sbu_1, # of connection points: 6
#     Node 38, Type 1, BuildingBlock: KUMBOL_clean_sbu_1, # of connection points: 6
#     Node 39, Type 1, BuildingBlock: KUMBOL_clean_sbu_1, # of connection points: 6
#     Edge 40, Type (0, 1), BuildingBlock: MIFKUJ_clean_linker_0, # of connection points: 2
#     Edge 41, Type (0, 1), BuildingBlock: MIFKUJ_clean_linker_0, # of connection points: 2
#     Edge 42, Type (0, 1), BuildingBlock: MIFKUJ_clean_linker_0, # of connection points: 2
#     Edge 43, Type (0, 1), BuildingBlock: MIFKUJ_clean_linker_0, # of connection points: 2
#     Edge 44, Type (0, 1), BuildingBlock: MIFKUJ_clean_linker_0, # of connection points: 2
#     Edge 45, Type (0, 1), BuildingBlock: MIFKUJ_clean_linker_0, # of connection points: 2
#     Edge 46, Type (0, 1), BuildingBlock: MIFKUJ_clean_linker_0, # of connection points: 2
#     Edge 47, Type (0, 1), BuildingBlock: MIFKUJ_clean_linker_0, # of connection points: 2
#     Edge 48, Type (0, 1), BuildingBlock: MIFKUJ_clean_linker_0, # of connection points: 2
#     Edge 49, Type (0, 1), BuildingBlock: MIFKUJ_clean_linker_0, # of connection points: 2
#     Edge 50, Type (0, 1), BuildingBlock: MIFKUJ_clean_linker_0, # of connection points: 2
#     Edge 51, Type (0, 1), BuildingBlock: MIFKUJ_clean_linker_0, # of connection points: 2
#     Edge 52, Type (0, 1), BuildingBlock: MIFKUJ_clean_linker_0, # of connection points: 2
#     Edge 53, Type (0, 1), BuildingBlock: MIFKUJ_clean_linker_0, # of connection points: 2
#     Edge 54, Type (0, 1), BuildingBlock: MIFKUJ_clean_linker_0, # of connection points: 2
#     Edge 55, Type (0, 1), BuildingBlock: MIFKUJ_clean_linker_0, # of connection points: 2
#     Edge 56, Type (0, 1), BuildingBlock: MIFKUJ_clean_linker_0, # of connection points: 2
#     Edge 57, Type (0, 1), BuildingBlock: MIFKUJ_clean_linker_0, # of connection points: 2
#     Edge 58, Type (0, 1), BuildingBlock: MIFKUJ_clean_linker_0, # of connection points: 2
#     Edge 59, Type (0, 1), BuildingBlock: MIFKUJ_clean_linker_0, # of connection points: 2
#     Edge 60, Type (0, 1), BuildingBlock: MIFKUJ_clean_linker_0, # of connection points: 2
#     Edge 61, Type (0, 1), BuildingBlock: MIFKUJ_clean_linker_0, # of connection points: 2
#     Edge 62, Type (0, 1), BuildingBlock: MIFKUJ_clean_linker_0, # of connection points: 2
#     Edge 63, Type (0, 1), BuildingBlock: MIFKUJ_clean_linker_0, # of connection points: 2
#     Edge 64, Type (0, 1), BuildingBlock: MIFKUJ_clean_linker_0, # of connection points: 2
#     Edge 65, Type (0, 1), BuildingBlock: MIFKUJ_clean_linker_0, # of connection points: 2
#     Edge 66, Type (0, 1), BuildingBlock: MIFKUJ_clean_linker_0, # of connection points: 2
#     Edge 67, Type (0, 1), BuildingBlock: MIFKUJ_clean_linker_0, # of connection points: 2
#     Edge 68, Type (0, 1), BuildingBlock: MIFKUJ_clean_linker_0, # of connection points: 2
#     Edge 69, Type (0, 1), BuildingBlock: MIFKUJ_clean_linker_0, # of connection points: 2
#     Edge 70, Type (0, 1), BuildingBlock: MIFKUJ_clean_linker_0, # of connection points: 2
#     Edge 71, Type (0, 1), BuildingBlock: MIFKUJ_clean_linker_0, # of connection points: 2
#     Edge 72, Type (0, 1), BuildingBlock: MIFKUJ_clean_linker_0, # of connection points: 2
#     Edge 73, Type (0, 1), BuildingBlock: MIFKUJ_clean_linker_0, # of connection points: 2
#     Edge 74, Type (0, 1), BuildingBlock: MIFKUJ_clean_linker_0, # of connection points: 2
#     Edge 75, Type (0, 1), BuildingBlock: MIFKUJ_clean_linker_0, # of connection points: 2
#     Edge 76, Type (0, 1), BuildingBlock: MIFKUJ_clean_linker_0, # of connection points: 2
#     Edge 77, Type (0, 1), BuildingBlock: MIFKUJ_clean_linker_0, # of connection points: 2
#     Edge 78, Type (0, 1), BuildingBlock: MIFKUJ_clean_linker_0, # of connection points: 2
#     Edge 79, Type (0, 1), BuildingBlock: MIFKUJ_clean_linker_0, # of connection points: 2
#     Edge 80, Type (0, 1), BuildingBlock: MIFKUJ_clean_linker_0, # of connection points: 2
#     Edge 81, Type (0, 1), BuildingBlock: MIFKUJ_clean_linker_0, # of connection points: 2
#     Edge 82, Type (0, 1), BuildingBlock: MIFKUJ_clean_linker_0, # of connection points: 2
#     Edge 83, Type (0, 1), BuildingBlock: MIFKUJ_clean_linker_0, # of connection points: 2
#     Edge 84, Type (0, 1), BuildingBlock: MIFKUJ_clean_linker_0, # of connection points: 2
#     Edge 85, Type (0, 1), BuildingBlock: MIFKUJ_clean_linker_0, # of connection points: 2
#     Edge 86, Type (0, 1), BuildingBlock: MIFKUJ_clean_linker_0, # of connection points: 2
#     Edge 87, Type (0, 1), BuildingBlock: MIFKUJ_clean_linker_0, # of connection points: 2
#     Edge 88, Type (0, 1), BuildingBlock: MIFKUJ_clean_linker_0, # of connection points: 2
#     Edge 89, Type (0, 1), BuildingBlock: MIFKUJ_clean_linker_0, # of connection points: 2
#     Edge 90, Type (0, 1), BuildingBlock: MIFKUJ_clean_linker_0, # of connection points: 2
#     Edge 91, Type (0, 1), BuildingBlock: MIFKUJ_clean_linker_0, # of connection points: 2
#     Edge 92, Type (0, 1), BuildingBlock: MIFKUJ_clean_linker_0, # of connection points: 2
#     Edge 93, Type (0, 1), BuildingBlock: MIFKUJ_clean_linker_0, # of connection points: 2
#     Edge 94, Type (0, 1), BuildingBlock: MIFKUJ_clean_linker_0, # of connection points: 2
#     Edge 95, Type (0, 1), BuildingBlock: MIFKUJ_clean_linker_0, # of connection points: 2
#     Edge 96, Type (0, 1), BuildingBlock: MIFKUJ_clean_linker_0, # of connection points: 2
#     Edge 97, Type (0, 1), BuildingBlock: MIFKUJ_clean_linker_0, # of connection points: 2
#     Edge 98, Type (0, 1), BuildingBlock: MIFKUJ_clean_linker_0, # of connection points: 2
#     Edge 99, Type (0, 1), BuildingBlock: MIFKUJ_clean_linker_0, # of connection points: 2
#     Edge 100, Type (0, 1), BuildingBlock: MIFKUJ_clean_linker_0, # of connection points: 2
#     Edge 101, Type (0, 1), BuildingBlock: MIFKUJ_clean_linker_0, # of connection points: 2
#     Edge 102, Type (0, 1), BuildingBlock: MIFKUJ_clean_linker_0, # of connection points: 2
#     Edge 103, Type (0, 1), BuildingBlock: MIFKUJ_clean_linker_0, # of connection points: 2
#     Edge 104, Type (0, 1), BuildingBlock: MIFKUJ_clean_linker_0, # of connection points: 2
#     Edge 105, Type (0, 1), BuildingBlock: MIFKUJ_clean_linker_0, # of connection points: 2
#     Edge 106, Type (0, 1), BuildingBlock: MIFKUJ_clean_linker_0, # of connection points: 2
#     Edge 107, Type (0, 1), BuildingBlock: MIFKUJ_clean_linker_0, # of connection points: 2
#     Edge 108, Type (0, 1), BuildingBlock: MIFKUJ_clean_linker_0, # of connection points: 2
#     Edge 109, Type (0, 1), BuildingBlock: MIFKUJ_clean_linker_0, # of connection points: 2
#     Edge 110, Type (0, 1), BuildingBlock: MIFKUJ_clean_linker_0, # of connection points: 2
#     Edge 111, Type (0, 1), BuildingBlock: MIFKUJ_clean_linker_0, # of connection points: 2
#     Edge 112, Type (0, 1), BuildingBlock: MIFKUJ_clean_linker_0, # of connection points: 2
#     Edge 113, Type (0, 1), BuildingBlock: MIFKUJ_clean_linker_0, # of connection points: 2
#     Edge 114, Type (0, 1), BuildingBlock: MIFKUJ_clean_linker_0, # of connection points: 2
#     Edge 115, Type (0, 1), BuildingBlock: MIFKUJ_clean_linker_0, # of connection points: 2
#     Edge 116, Type (0, 1), BuildingBlock: MIFKUJ_clean_linker_0, # of connection points: 2
#     Edge 117, Type (0, 1), BuildingBlock: MIFKUJ_clean_linker_0, # of connection points: 2
#     Edge 118, Type (0, 1), BuildingBlock: MIFKUJ_clean_linker_0, # of connection points: 2
#     Edge 119, Type (0, 1), BuildingBlock: MIFKUJ_clean_linker_0, # of connection points: 2
#     Edge 120, Type (0, 1), BuildingBlock: MIFKUJ_clean_linker_0, # of connection points: 2
#     Edge 121, Type (0, 1), BuildingBlock: MIFKUJ_clean_linker_0, # of connection points: 2
#     Edge 122, Type (0, 1), BuildingBlock: MIFKUJ_clean_linker_0, # of connection points: 2
#     Edge 123, Type (0, 1), BuildingBlock: MIFKUJ_clean_linker_0, # of connection points: 2
#     Edge 124, Type (0, 1), BuildingBlock: MIFKUJ_clean_linker_0, # of connection points: 2
#     Edge 125, Type (0, 1), BuildingBlock: MIFKUJ_clean_linker_0, # of connection points: 2
#     Edge 126, Type (0, 1), BuildingBlock: MIFKUJ_clean_linker_0, # of connection points: 2
#     Edge 127, Type (0, 1), BuildingBlock: MIFKUJ_clean_linker_0, # of connection points: 2
#     Edge 128, Type (0, 1), BuildingBlock: MIFKUJ_clean_linker_0, # of connection points: 2
#     Edge 129, Type (0, 1), BuildingBlock: MIFKUJ_clean_linker_0, # of connection points: 2
#     Edge 130, Type (0, 1), BuildingBlock: MIFKUJ_clean_linker_0, # of connection points: 2
#     Edge 131, Type (0, 1), BuildingBlock: MIFKUJ_clean_linker_0, # of connection points: 2
#     Edge 132, Type (0, 1), BuildingBlock: MIFKUJ_clean_linker_0, # of connection points: 2
#     Edge 133, Type (0, 1), BuildingBlock: MIFKUJ_clean_linker_0, # of connection points: 2
#     Edge 134, Type (0, 1), BuildingBlock: MIFKUJ_clean_linker_0, # of connection points: 2
#     Edge 135, Type (0, 1), BuildingBlock: MIFKUJ_clean_linker_0, # of connection points: 2
# Relax obj value: 0.080
# Max RMSD: 0.194
# Mean RMSD: 0.154
data_MOF--net-gar--node1-UXUYUI_clean_sbu_0--node2-KUMBOL_clean_sbu_1--edge1-MIFKUJ_clean_linker_0
_symmetry_space_group_name_H-M    P1
_symmetry_Int_Tables_number       1
_symmetry_cell_setting            triclinic
loop_
_symmetry_equiv_pos_as_xyz
'x, y, z'
_cell_length_a     89.136081
_cell_length_b     89.134255
_cell_length_c     84.641964
_cell_angle_alpha  95.399573
_cell_angle_beta   95.38799
_cell_angle_gamma 100.21735
loop_
_atom_site_label
_atom_site_type_symbol
_atom_site_fract_x
_atom_site_fract_y
_atom_site_fract_z
_atom_type_partial_charge
Li0 Li 0.01879 0.28991 0.34359 0.0
Li1 Li 0.03599 0.30727 0.36698 0.0
Li2 Li 0.04839 0.29167 0.34479 0.0
Li3 Li 0.03362 0.27782 0.36591 0.0
C4 C 0.0342 0.31898 0.33277 0.0
N5 N 0.03196 0.34077 0.312 0.0
C6 C 0.03034 0.33297 0.33811 0.0
C7 C 0.03693 0.31604 0.3169 0.0
C8 C 0.02927 0.34385 0.32742 0.0
C9 C 0.03571 0.32722 0.30656 0.0
C10 C 0.00668 0.29118 0.37745 0.0
C11 C 0.9985 0.28838 0.40353 0.0
N12 N 0.98444 0.291 0.39809 0.0
C13 C 0.9922 0.29394 0.37214 0.0
C14 C 0.00992 0.28846 0.39329 0.0
C15 C 0.9811 0.29378 0.38275 0.0
C16 C 0.98808 0.27448 0.3317 0.0
N17 N 0.99854 0.28737 0.33053 0.0
C18 C 0.97929 0.29716 0.31468 0.0
C19 C 0.99441 0.29855 0.32202 0.0
C20 C 0.96809 0.28428 0.3163 0.0
C21 C 0.97281 0.27275 0.32477 0.0
H22 H 0.99144 0.26575 0.33858 0.0
H23 H 1.00268 0.30884 0.32131 0.0
C24 C 0.05094 0.33559 0.38781 0.0
N25 N 0.03728 0.32667 0.38136 0.0
C26 C 0.0514 0.34933 0.39778 0.0
C27 C 0.0238 0.34461 0.3944 0.0
C28 C 0.02386 0.33102 0.38455 0.0
C29 C 0.03768 0.35415 0.40121 0.0
H30 H 0.06154 0.33212 0.38515 0.0
H31 H 0.01309 0.32397 0.37932 0.0
C32 C 0.03 0.26078 0.33091 0.0
N33 N 0.02707 0.23557 0.30846 0.0
C34 C 0.03326 0.24695 0.33551 0.0
C35 C 0.02523 0.26182 0.31492 0.0
C36 C 0.03172 0.23433 0.32398 0.0
C37 C 0.02382 0.24893 0.30374 0.0
C38 C 0.06442 0.29479 0.38031 0.0
C39 C 0.07816 0.29102 0.37599 0.0
C40 C 0.06307 0.29925 0.3963 0.0
C41 C 0.0904 0.29181 0.38781 0.0
C42 C 0.07559 0.2999 0.40776 0.0
N43 N 0.08887 0.2962 0.40331 0.0
C44 C 0.0761 0.3038 0.3295 0.0
C45 C 0.07039 0.27686 0.32887 0.0
C46 C 0.08971 0.30293 0.32237 0.0
N47 N 0.06675 0.29087 0.33279 0.0
C48 C 0.08385 0.27548 0.32181 0.0
C49 C 0.09399 0.28861 0.31862 0.0
H50 H 0.07324 0.3149 0.33275 0.0
H51 H 0.06304 0.26665 0.33159 0.0
C52 C 0.01893 0.2524 0.38179 0.0
N53 N 0.03275 0.26015 0.37864 0.0
C54 C 0.01807 0.23964 0.39053 0.0
C55 C 0.04559 0.24267 0.39235 0.0
C56 C 0.04597 0.25549 0.38378 0.0
C57 C 0.03152 0.23456 0.39588 0.0
H58 H 0.00851 0.25605 0.37745 0.0
H59 H 0.05685 0.26161 0.38108 0.0
O60 O 0.03573 0.3084 0.34319 0.0
O61 O 0.01751 0.29079 0.36709 0.0
O62 O 0.03121 0.27314 0.3421 0.0
O63 O 0.05252 0.29452 0.36883 0.0
H64 H 0.02826 0.33542 0.35039 0.0
H65 H 0.03999 0.30527 0.31263 0.0
H66 H 0.02635 0.35475 0.33139 0.0
H67 H 0.03779 0.32513 0.29423 0.0
H68 H 1.00079 0.2862 0.4158 0.0
H69 H 0.98956 0.29622 0.35997 0.0
H70 H 0.02109 0.28631 0.39756 0.0
H71 H 0.96983 0.29585 0.37878 0.0
H72 H 0.97622 0.30642 0.3084 0.0
H73 H 0.96468 0.26254 0.32626 0.0
H74 H 0.06243 0.35625 0.40251 0.0
H75 H 0.01288 0.34754 0.39676 0.0
H76 H 0.03694 0.24598 0.34786 0.0
H77 H 0.0226 0.27246 0.31121 0.0
H78 H 0.03421 0.22355 0.32737 0.0
H79 H 0.02012 0.24953 0.29131 0.0
H80 H 0.07938 0.28759 0.36365 0.0
H81 H 0.05251 0.30226 0.39978 0.0
H82 H 0.10111 0.28896 0.38464 0.0
H83 H 0.07475 0.30338 0.42019 0.0
H84 H 0.09706 0.31345 0.32034 0.0
H85 H 0.08633 0.26414 0.31899 0.0
H86 H 0.00697 0.23364 0.39287 0.0
H87 H 0.05623 0.23916 0.39626 0.0
Li88 Li 0.01346 0.76377 0.66614 0.0
Li89 Li 0.02795 0.75201 0.68847 0.0
Li90 Li 0.01042 0.73426 0.66503 0.0
Li91 Li 0.99826 0.74939 0.6872 0.0
C92 C 0.04025 0.75186 0.65478 0.0
N93 N 0.06272 0.75455 0.63434 0.0
C94 C 0.05543 0.75833 0.66065 0.0
C95 C 0.03646 0.74684 0.63852 0.0
C96 C 0.06663 0.75957 0.65012 0.0
C97 C 0.048 0.74828 0.62838 0.0
C98 C 0.01851 0.78083 0.70128 0.0
C99 C 0.01903 0.79238 0.72829 0.0
N100 N 0.02498 0.80626 0.7238 0.0
C101 C 0.02467 0.79518 0.69693 0.0
C102 C 0.0157 0.77936 0.71708 0.0
C103 C 0.02786 0.80791 0.70849 0.0
C104 C 1.00239 0.78921 0.65308 0.0
N105 N 0.01421 0.78138 0.65335 0.0
C106 C 0.02701 0.79856 0.63639 0.0
C107 C 0.0264 0.78589 0.6452 0.0
C108 C 0.01505 0.80704 0.63598 0.0
C109 C 1.00259 0.80205 0.64454 0.0
H110 H 0.99281 0.78559 0.65968 0.0
H111 H 0.0358 0.77975 0.64554 0.0
C112 C 0.05537 0.74174 0.69999 0.0
N113 N 0.04806 0.7539 0.70156 0.0
C114 C 0.07041 0.74271 0.70732 0.0
C115 C 0.07018 0.76855 0.71831 0.0
C116 C 0.05517 0.76713 0.71067 0.0
C117 C 0.07827 0.75633 0.71654 0.0
H118 H 0.0497 0.73138 0.69255 0.0
H119 H 0.04936 0.77678 0.71176 0.0
C120 C 0.98215 0.74456 0.65154 0.0
N121 N 0.95738 0.73936 0.62827 0.0
C122 C 0.96743 0.739 0.65536 0.0
C123 C 0.98432 0.74745 0.6359 0.0
C124 C 0.95504 0.73645 0.64343 0.0
C125 C 0.97163 0.74474 0.6243 0.0
C126 C 0.01072 0.72228 0.69905 0.0
C127 C 0.00502 0.70692 0.69327 0.0
C128 C 0.01588 0.7263 0.71525 0.0
C129 C 0.00459 0.69577 0.70385 0.0
C130 C 0.01526 0.71481 0.72545 0.0
N131 N 0.00968 0.69991 0.71958 0.0
C132 C 0.02268 0.71052 0.64793 0.0
C133 C 0.99563 0.70596 0.64405 0.0
C134 C 0.02294 0.69706 0.63794 0.0
N135 N 0.00918 0.71486 0.65077 0.0
C136 C 0.99535 0.69222 0.63416 0.0
C137 C 0.00916 0.68744 0.63085 0.0
H138 H 0.03338 0.71759 0.6534 0.0
H139 H 0.98496 0.70943 0.64645 0.0
C140 C 0.97601 0.76344 0.70373 0.0
N141 N 0.97985 0.74964 0.69916 0.0
C142 C 0.96258 0.76426 0.71109 0.0
C143 C 0.95694 0.73668 0.70888 0.0
C144 C 0.97065 0.73638 0.70184 0.0
C145 C 0.95262 0.75076 0.71357 0.0
H146 H 0.98321 0.7739 0.70135 0.0
H147 H 0.97372 0.72548 0.69813 0.0
O148 O 0.02921 0.75028 0.66497 0.0
O149 O 0.01484 0.76837 0.69 0.0
O150 O 0.9943 0.74756 0.66319 0.0
O151 O 0.0116 0.73324 0.68876 0.0
H152 H 0.05853 0.76237 0.67318 0.0
H153 H 0.02473 0.74185 0.63381 0.0
H154 H 0.07844 0.76452 0.6545 0.0
H155 H 0.04527 0.74439 0.61577 0.0
H156 H 0.01686 0.79145 0.74056 0.0
H157 H 0.02688 0.79648 0.68473 0.0
H158 H 0.01088 0.76831 0.7206 0.0
H159 H 0.03258 0.81911 0.70529 0.0
H160 H 0.03679 0.80155 0.62989 0.0
H161 H 0.99316 0.80817 0.64497 0.0
H162 H 0.07597 0.73297 0.70522 0.0
H163 H 0.07541 0.77924 0.72544 0.0
H164 H 0.96557 0.73675 0.66743 0.0
H165 H 0.99566 0.75182 0.6328 0.0
H166 H 0.94357 0.73219 0.64623 0.0
H167 H 0.9731 0.74697 0.61214 0.0
H168 H 1.00104 0.70364 0.68073 0.0
H169 H 0.0204 0.73816 0.71985 0.0
H170 H 1.00023 0.68383 0.69954 0.0
H171 H 0.01925 0.71772 0.73802 0.0
H172 H 0.03398 0.6944 0.63573 0.0
H173 H 0.98433 0.68534 0.62939 0.0
H174 H 0.95972 0.77538 0.71429 0.0
H175 H 0.94972 0.72596 0.71058 0.0
Li176 Li 0.51886 0.78963 0.84379 0.0
Li177 Li 0.53601 0.80709 0.86711 0.0
Li178 Li 0.54841 0.79161 0.84492 0.0
Li179 Li 0.53383 0.77775 0.86604 0.0
C180 C 0.53391 0.81867 0.83282 0.0
N181 N 0.53147 0.84028 0.81187 0.0
C182 C 0.53017 0.83273 0.83811 0.0
C183 C 0.53641 0.81557 0.8169 0.0
C184 C 0.52899 0.84351 0.82733 0.0
C185 C 0.53511 0.82666 0.80648 0.0
C186 C 0.50686 0.79083 0.87767 0.0
C187 C 0.49894 0.78812 0.90386 0.0
N188 N 0.48481 0.79063 0.89852 0.0
C189 C 0.49228 0.79339 0.87243 0.0
C190 C 0.51026 0.78818 0.8935 0.0
C191 C 0.48129 0.79325 0.88316 0.0
C192 C 0.48992 0.77288 0.82693 0.0
N193 N 0.49868 0.78716 0.83077 0.0
C194 C 0.47777 0.7983 0.81991 0.0
C195 C 0.4929 0.79976 0.82718 0.0
C196 C 0.46824 0.78372 0.81615 0.0
C197 C 0.47476 0.7709 0.81955 0.0
H198 H 0.49455 0.76297 0.82999 0.0
H199 H 0.49982 0.81106 0.83056 0.0
C200 C 0.55084 0.83467 0.88891 0.0
N201 N 0.53724 0.82639 0.88148 0.0
C202 C 0.5513 0.84828 0.89906 0.0
C203 C 0.52384 0.84494 0.89354 0.0
C204 C 0.52388 0.8313 0.88372 0.0
C205 C 0.53767 0.85369 0.90142 0.0
H206 H 0.56141 0.83079 0.88693 0.0
H207 H 0.51316 0.82471 0.87773 0.0
C208 C 0.53005 0.76056 0.83107 0.0
N209 N 0.52702 0.73532 0.80865 0.0
C210 C 0.5336 0.74682 0.83562 0.0
C211 C 0.52497 0.7615 0.81513 0.0
C212 C 0.53199 0.73418 0.8241 0.0
C213 C 0.52352 0.7486 0.80396 0.0
C214 C 0.5647 0.79507 0.88033 0.0
C215 C 0.57821 0.79075 0.87604 0.0
C216 C 0.56365 0.80013 0.89625 0.0
C217 C 0.59056 0.79169 0.88776 0.0
C218 C 0.57625 0.8009 0.90763 0.0
N219 N 0.58934 0.79672 0.90319 0.0
C220 C 0.57865 0.8036 0.83557 0.0
C221 C 0.56816 0.77851 0.82346 0.0
C222 C 0.59248 0.80311 0.82886 0.0
N223 N 0.56682 0.79131 0.83303 0.0
C224 C 0.58171 0.77762 0.81637 0.0
C225 C 0.59431 0.78991 0.81922 0.0
H226 H 0.57755 0.81367 0.84323 0.0
H227 H 0.55888 0.76872 0.82161 0.0
C228 C 0.51972 0.74935 0.87686 0.0
N229 N 0.53282 0.76019 0.87876 0.0
C230 C 0.51864 0.73639 0.88527 0.0
C231 C 0.5444 0.74599 0.89781 0.0
C232 C 0.54507 0.75864 0.889 0.0
C233 C 0.53109 0.73456 0.89598 0.0
H234 H 0.5101 0.7507 0.86867 0.0
H235 H 0.55549 0.7671 0.89028 0.0
O236 O 0.53564 0.80823 0.84335 0.0
O237 O 0.51762 0.79055 0.86723 0.0
O238 O 0.53139 0.77297 0.84223 0.0
O239 O 0.55263 0.79452 0.86895 0.0
H240 H 0.5283 0.83532 0.85043 0.0
H241 H 0.53942 0.80476 0.81267 0.0
H242 H 0.52615 0.85446 0.83127 0.0
H243 H 0.53704 0.82446 0.79411 0.0
H244 H 0.50137 0.78605 0.91614 0.0
H245 H 0.48947 0.79545 0.86023 0.0
H246 H 0.52149 0.78613 0.89769 0.0
H247 H 0.46995 0.79519 0.87926 0.0
H248 H 0.47344 0.80864 0.81787 0.0
H249 H 0.4682 0.75936 0.81671 0.0
H250 H 0.56226 0.85468 0.90473 0.0
H251 H 0.51303 0.84854 0.89504 0.0
H252 H 0.53758 0.74594 0.84792 0.0
H253 H 0.52219 0.77209 0.81144 0.0
H254 H 0.53468 0.72346 0.82746 0.0
H255 H 0.5196 0.74913 0.79157 0.0
H256 H 0.57915 0.78668 0.86379 0.0
H257 H 0.55321 0.80342 0.89976 0.0
H258 H 0.60111 0.78843 0.8846 0.0
H259 H 0.57564 0.80483 0.92 0.0
H260 H 0.60173 0.81298 0.83133 0.0
H261 H 0.5825 0.76713 0.8092 0.0
H262 H 0.50811 0.72794 0.88351 0.0
H263 H 0.55436 0.74501 0.90574 0.0
Li264 Li 0.51393 0.26408 0.16573 0.0
Li265 Li 0.52811 0.25238 0.18833 0.0
Li266 Li 0.51064 0.23458 0.16491 0.0
Li267 Li 0.4984 0.2499 0.18676 0.0
C268 C 0.54058 0.25164 0.15463 0.0
N269 N 0.56292 0.25388 0.13404 0.0
C270 C 0.55578 0.25815 0.16035 0.0
C271 C 0.5367 0.24626 0.13846 0.0
C272 C 0.56691 0.25917 0.14974 0.0
C273 C 0.54818 0.24751 0.12823 0.0
C274 C 0.51856 0.28111 0.20097 0.0
C275 C 0.51897 0.29222 0.22812 0.0
N276 N 0.52477 0.30625 0.22385 0.0
C277 C 0.52455 0.29561 0.19684 0.0
C278 C 0.51575 0.27935 0.21671 0.0
C279 C 0.52761 0.30818 0.20859 0.0
C280 C 0.50356 0.29009 0.1534 0.0
N281 N 0.51493 0.28169 0.15294 0.0
C282 C 0.52741 0.29835 0.1353 0.0
C283 C 0.52679 0.28569 0.14414 0.0
C284 C 0.51591 0.30727 0.1357 0.0
C285 C 0.5039 0.303 0.14496 0.0
H286 H 0.49424 0.28682 0.16044 0.0
H287 H 0.53588 0.27915 0.144 0.0
C288 C 0.55438 0.24194 0.20352 0.0
N289 N 0.54812 0.25465 0.2017 0.0
C290 C 0.56936 0.24321 0.21117 0.0
C291 C 0.57128 0.27061 0.21528 0.0
C292 C 0.55625 0.26882 0.20762 0.0
C293 C 0.57825 0.25774 0.21697 0.0
H294 H 0.54792 0.23078 0.19856 0.0
H295 H 0.55127 0.27885 0.20596 0.0
C296 C 0.48238 0.24485 0.15125 0.0
N297 N 0.45731 0.2393 0.12832 0.0
C298 C 0.46781 0.23897 0.15527 0.0
C299 C 0.48425 0.24788 0.13559 0.0
C300 C 0.45527 0.23625 0.1435 0.0
C301 C 0.47141 0.24499 0.12416 0.0
C302 C 0.51057 0.22266 0.19886 0.0
C303 C 0.5047 0.20736 0.19296 0.0
C304 C 0.51575 0.22653 0.21507 0.0
C305 C 0.50412 0.19612 0.20344 0.0
C306 C 0.51498 0.21494 0.22517 0.0
N307 N 0.50923 0.20011 0.21919 0.0
C308 C 0.52252 0.20938 0.15022 0.0
C309 C 0.49615 0.20758 0.14194 0.0
C310 C 0.52278 0.19577 0.14046 0.0
N311 N 0.50937 0.21512 0.15081 0.0
C312 C 0.49589 0.19387 0.13203 0.0
C313 C 0.50936 0.1877 0.13106 0.0
H314 H 0.53291 0.21541 0.15737 0.0
H315 H 0.48576 0.2122 0.14248 0.0
C316 C 0.47525 0.26417 0.20114 0.0
N317 N 0.47992 0.25046 0.19854 0.0
C318 C 0.46177 0.26525 0.20832 0.0
C319 C 0.45791 0.23813 0.21026 0.0
C320 C 0.47154 0.23756 0.20312 0.0
C321 C 0.45265 0.25211 0.2129 0.0
H322 H 0.48185 0.27432 0.19734 0.0
H323 H 0.47526 0.22671 0.20098 0.0
O324 O 0.52957 0.25043 0.16487 0.0
O325 O 0.51507 0.26879 0.18952 0.0
O326 O 0.49467 0.24802 0.16273 0.0
O327 O 0.51165 0.2337 0.18867 0.0
H328 H 0.55895 0.26239 0.17283 0.0
H329 H 0.52496 0.24122 0.13387 0.0
H330 H 0.57873 0.26418 0.154 0.0
H331 H 0.54538 0.24341 0.11567 0.0
H332 H 0.51681 0.29107 0.24035 0.0
H333 H 0.52676 0.29713 0.18468 0.0
H334 H 0.51105 0.26819 0.22004 0.0
H335 H 0.53221 0.31949 0.20556 0.0
H336 H 0.53695 0.3013 0.12843 0.0
H337 H 0.49476 0.30952 0.14556 0.0
H338 H 0.57414 0.23292 0.21192 0.0
H339 H 0.57746 0.28205 0.21967 0.0
H340 H 0.4662 0.2366 0.16736 0.0
H341 H 0.49547 0.25249 0.13234 0.0
H342 H 0.44391 0.23175 0.14645 0.0
H343 H 0.47265 0.24731 0.11198 0.0
H344 H 0.50071 0.2042 0.18041 0.0
H345 H 0.52041 0.23833 0.21977 0.0
H346 H 0.49963 0.18422 0.19905 0.0
H347 H 0.51898 0.21774 0.23775 0.0
H348 H 0.53343 0.19152 0.14048 0.0
H349 H 0.48526 0.18831 0.12499 0.0
H350 H 0.4583 0.27629 0.20979 0.0
H351 H 0.45155 0.22764 0.21368 0.0
Li352 Li 0.04485 0.79486 0.09497 0.0
Li353 Li 0.06013 0.78275 0.11698 0.0
Li354 Li 0.04229 0.76508 0.09341 0.0
Li355 Li 0.0306 0.77954 0.11582 0.0
C356 C 0.07201 0.78307 0.08286 0.0
N357 N 0.09434 0.78538 0.06226 0.0
C358 C 0.08725 0.78935 0.08863 0.0
C359 C 0.06809 0.77796 0.06663 0.0
C360 C 0.09838 0.79043 0.07802 0.0
C361 C 0.07956 0.77924 0.0564 0.0
C362 C 0.04963 0.81107 0.13029 0.0
C363 C 0.04896 0.82225 0.1572 0.0
N364 N 0.05459 0.83633 0.15295 0.0
C365 C 0.05545 0.82562 0.12618 0.0
C366 C 0.04637 0.80932 0.1459 0.0
C367 C 0.05787 0.83826 0.13782 0.0
C368 C 0.03184 0.82045 0.0854 0.0
N369 N 0.04405 0.81344 0.08342 0.0
C370 C 0.05419 0.83317 0.06745 0.0
C371 C 0.05513 0.81957 0.07455 0.0
C372 C 0.04177 0.84084 0.06945 0.0
C373 C 0.03051 0.83406 0.07863 0.0
H374 H 0.02317 0.81559 0.09257 0.0
H375 H 0.06483 0.81401 0.07305 0.0
C376 C 0.08396 0.77093 0.13478 0.0
N377 N 0.07955 0.78428 0.13143 0.0
C378 C 0.09738 0.77102 0.14501 0.0
C379 C 0.10202 0.79862 0.14797 0.0
C380 C 0.08834 0.79801 0.13785 0.0
C381 C 0.10674 0.78498 0.15181 0.0
H382 H 0.07704 0.7601 0.12947 0.0
H383 H 0.08478 0.80856 0.13512 0.0
C384 C 0.01352 0.77523 0.08077 0.0
N385 N 0.98817 0.76997 0.05821 0.0
C386 C 0.99905 0.76926 0.08496 0.0
C387 C 0.01515 0.77853 0.06514 0.0
C388 C 0.98635 0.76669 0.07337 0.0
C389 C 1.00217 0.77577 0.0539 0.0
C390 C 0.04234 0.75292 0.12728 0.0
C391 C 0.03589 0.73771 0.1215 0.0
C392 C 0.04713 0.75686 0.14356 0.0
C393 C 0.03447 0.72662 0.13214 0.0
C394 C 0.04551 0.74542 0.15382 0.0
N395 N 0.03928 0.73066 0.14794 0.0
C396 C 0.052 0.73719 0.08244 0.0
C397 C 0.02692 0.73786 0.07103 0.0
C398 C 0.05072 0.72195 0.07557 0.0
N399 N 0.04011 0.74481 0.08037 0.0
C400 C 0.02526 0.72266 0.0637 0.0
C401 C 0.03715 0.71436 0.06619 0.0
H402 H 0.06234 0.74275 0.08998 0.0
H403 H 0.01744 0.74387 0.06965 0.0
C404 C 0.00595 0.79112 0.12972 0.0
N405 N 0.01296 0.77873 0.12844 0.0
C406 C 0.9931 0.791 0.13821 0.0
C407 C 0.9948 0.76539 0.14407 0.0
C408 C 0.00754 0.76596 0.13538 0.0
C409 C 0.98729 0.778 0.14561 0.0
H410 H 0.01033 0.80116 0.12409 0.0
H411 H 0.01298 0.75608 0.13408 0.0
O412 O 0.06109 0.78153 0.09317 0.0
O413 O 0.0467 0.79868 0.11892 0.0
O414 O 0.02598 0.77818 0.09206 0.0
O415 O 0.04417 0.76384 0.11697 0.0
H416 H 0.09045 0.79329 0.10119 0.0
H417 H 0.05633 0.77299 0.06204 0.0
H418 H 0.11024 0.79523 0.08231 0.0
H419 H 0.07673 0.77531 0.04381 0.0
H420 H 0.04645 0.8211 0.16934 0.0
H421 H 0.05802 0.82715 0.11413 0.0
H422 H 0.0418 0.79811 0.14922 0.0
H423 H 0.06232 0.8496 0.1348 0.0
H424 H 0.06316 0.83753 0.06039 0.0
H425 H 0.02083 0.83938 0.081 0.0
H426 H 0.10054 0.76018 0.14735 0.0
H427 H 0.10873 0.80969 0.15293 0.0
H428 H 0.99762 0.7667 0.09704 0.0
H429 H 0.0263 0.78321 0.06177 0.0
H430 H 0.97506 0.76211 0.07644 0.0
H431 H 0.00322 0.77827 0.04175 0.0
H432 H 0.03202 0.7345 0.10894 0.0
H433 H 0.05211 0.7686 0.1482 0.0
H434 H 0.02955 0.71479 0.12783 0.0
H435 H 0.04923 0.74827 0.16646 0.0
H436 H 0.06018 0.71602 0.07781 0.0
H437 H 0.01454 0.71723 0.05672 0.0
H438 H 0.98789 0.80108 0.13911 0.0
H439 H 0.9907 0.755 0.14927 0.0
Li440 Li 0.50473 0.77532 0.43865 0.0
Li441 Li 0.48722 0.75815 0.4153 0.0
Li442 Li 0.50265 0.74559 0.43746 0.0
Li443 Li 0.51666 0.76029 0.4164 0.0
C444 C 0.47541 0.7601 0.44935 0.0
N445 N 0.45331 0.76237 0.46976 0.0
C446 C 0.46157 0.76417 0.44385 0.0
C447 C 0.47805 0.75719 0.4652 0.0
C448 C 0.45053 0.76524 0.45436 0.0
C449 C 0.46673 0.75843 0.47535 0.0
C450 C 0.50405 0.78758 0.40501 0.0
C451 C 0.50719 0.79598 0.37907 0.0
N452 N 0.50427 0.80992 0.38449 0.0
C453 C 0.50101 0.80195 0.41031 0.0
C454 C 0.50712 0.78452 0.38927 0.0
C455 C 0.50121 0.81311 0.39976 0.0
C456 C 0.52088 0.80568 0.45126 0.0
N457 N 0.50744 0.79572 0.45153 0.0
C458 C 0.49743 0.81569 0.46603 0.0
C459 C 0.49585 0.80044 0.45893 0.0
C460 C 0.51099 0.82641 0.4654 0.0
C461 C 0.52289 0.82103 0.45808 0.0
H462 H 0.52994 0.80186 0.44523 0.0
H463 H 0.48513 0.79257 0.45889 0.0
C464 C 0.4562 0.74412 0.40018 0.0
N465 N 0.46777 0.75654 0.40094 0.0
C466 C 0.44226 0.74326 0.39043 0.0
C467 C 0.45238 0.76772 0.38201 0.0
C468 C 0.46594 0.76825 0.3921 0.0
C469 C 0.44021 0.75516 0.38108 0.0
H470 H 0.4577 0.7349 0.40728 0.0
H471 H 0.47492 0.77819 0.39291 0.0
C472 C 0.53372 0.76393 0.45135 0.0
N473 N 0.55902 0.76705 0.4737 0.0
C474 C 0.54751 0.76059 0.44672 0.0
C475 C 0.53276 0.76887 0.46732 0.0
C476 C 0.56018 0.76222 0.4582 0.0
C477 C 0.5457 0.77037 0.47845 0.0
C478 C 0.49938 0.72965 0.40191 0.0
C479 C 0.50331 0.71593 0.40606 0.0
C480 C 0.49464 0.73103 0.38599 0.0
C481 C 0.50243 0.70374 0.39416 0.0
C482 C 0.49392 0.71857 0.37443 0.0
N483 N 0.49779 0.7053 0.37872 0.0
C484 C 0.48983 0.71721 0.45101 0.0
C485 C 0.5169 0.72348 0.4542 0.0
C486 C 0.49026 0.70338 0.45781 0.0
N487 N 0.50305 0.72698 0.44918 0.0
C488 C 0.51783 0.70976 0.46096 0.0
C489 C 0.50441 0.69938 0.46275 0.0
H490 H 0.47889 0.71993 0.44681 0.0
H491 H 0.52733 0.73113 0.45255 0.0
C492 C 0.54253 0.77495 0.40138 0.0
N493 N 0.53427 0.76108 0.40364 0.0
C494 C 0.5553 0.77593 0.39267 0.0
C495 C 0.55109 0.74833 0.38879 0.0
C496 C 0.53837 0.74789 0.39752 0.0
C497 C 0.55989 0.7625 0.3862 0.0
H498 H 0.53924 0.78535 0.40638 0.0
H499 H 0.5319 0.73694 0.39959 0.0
O500 O 0.48611 0.7585 0.43909 0.0
O501 O 0.50387 0.77652 0.41516 0.0
O502 O 0.52132 0.76264 0.44021 0.0
O503 O 0.49981 0.74153 0.41346 0.0
H504 H 0.45936 0.76641 0.43159 0.0
H505 H 0.4887 0.75396 0.46958 0.0
H506 H 0.43974 0.76832 0.45026 0.0
H507 H 0.46858 0.7562 0.48766 0.0
H508 H 0.50954 0.79379 0.36685 0.0
H509 H 0.49841 0.80445 0.42239 0.0
H510 H 0.50935 0.77339 0.38496 0.0
H511 H 0.49889 0.82429 0.4037 0.0
H512 H 0.48784 0.81918 0.47137 0.0
H513 H 0.53365 0.82867 0.45742 0.0
H514 H 0.43323 0.73331 0.39008 0.0
H515 H 0.45129 0.77727 0.37523 0.0
H516 H 0.54841 0.75677 0.43438 0.0
H517 H 0.52216 0.77156 0.47105 0.0
H518 H 0.57093 0.75968 0.45479 0.0
H519 H 0.54517 0.77421 0.49086 0.0
H520 H 0.50697 0.71469 0.41834 0.0
H521 H 0.4915 0.74158 0.38264 0.0
H522 H 0.50542 0.69304 0.3972 0.0
H523 H 0.49026 0.71944 0.36206 0.0
H524 H 0.47962 0.69568 0.45881 0.0
H525 H 0.52899 0.70716 0.46453 0.0
H526 H 0.56141 0.78716 0.39093 0.0
H527 H 0.55415 0.7376 0.38441 0.0
Li528 Li 0.54443 0.29594 0.595 0.0
Li529 Li 0.55947 0.28385 0.61709 0.0
Li530 Li 0.54194 0.26626 0.59359 0.0
Li531 Li 0.52999 0.28053 0.61589 0.0
C532 C 0.57165 0.28363 0.58313 0.0
N533 N 0.59406 0.28468 0.56266 0.0
C534 C 0.58697 0.28954 0.5889 0.0
C535 C 0.56769 0.27827 0.56697 0.0
C536 C 0.59814 0.28997 0.57836 0.0
C537 C 0.57921 0.27891 0.5568 0.0
C538 C 0.549 0.31208 0.63043 0.0
C539 C 0.54867 0.32305 0.65749 0.0
N540 N 0.55442 0.33714 0.65336 0.0
C541 C 0.55493 0.32665 0.62644 0.0
C542 C 0.54583 0.31022 0.64605 0.0
C543 C 0.55757 0.33919 0.63821 0.0
C544 C 0.53115 0.32073 0.58383 0.0
N545 N 0.54403 0.31452 0.58344 0.0
C546 C 0.55547 0.33535 0.56946 0.0
C547 C 0.55606 0.32152 0.57625 0.0
C548 C 0.54244 0.34228 0.57012 0.0
C549 C 0.53011 0.3345 0.57729 0.0
H550 H 0.52167 0.3151 0.58954 0.0
H551 H 0.56631 0.31659 0.57607 0.0
C552 C 0.58675 0.27368 0.62908 0.0
N553 N 0.57881 0.2853 0.63134 0.0
C554 C 0.60052 0.27369 0.63867 0.0
C555 C 0.59774 0.29743 0.65316 0.0
C556 C 0.58411 0.2971 0.64312 0.0
C557 C 0.60623 0.28564 0.651 0.0
H558 H 0.58238 0.26434 0.61976 0.0
H559 H 0.5778 0.3063 0.6448 0.0
C560 C 0.51313 0.27576 0.5807 0.0
N561 N 0.48788 0.26937 0.55796 0.0
C562 C 0.49874 0.26947 0.58487 0.0
C563 C 0.51472 0.27881 0.56499 0.0
C564 C 0.4861 0.26632 0.5732 0.0
C565 C 0.5018 0.27547 0.55365 0.0
C566 C 0.54223 0.2539 0.62725 0.0
C567 C 0.53553 0.23876 0.62147 0.0
C568 C 0.54771 0.25765 0.64341 0.0
C569 C 0.53446 0.22755 0.63199 0.0
C570 C 0.54642 0.2461 0.65355 0.0
N571 N 0.53989 0.23142 0.64767 0.0
C572 C 0.55238 0.23901 0.58161 0.0
C573 C 0.52668 0.23886 0.57176 0.0
C574 C 0.55143 0.224 0.57421 0.0
N575 N 0.54007 0.24614 0.58047 0.0
C576 C 0.52525 0.22385 0.56411 0.0
C577 C 0.53765 0.21597 0.56542 0.0
H578 H 0.56288 0.24481 0.58873 0.0
H579 H 0.51691 0.24452 0.57103 0.0
C580 C 0.50609 0.29236 0.63121 0.0
N581 N 0.51235 0.27957 0.62861 0.0
C582 C 0.49333 0.29213 0.63986 0.0
C583 C 0.49349 0.26558 0.64308 0.0
C584 C 0.50626 0.2663 0.63438 0.0
C585 C 0.48685 0.2786 0.64591 0.0
H586 H 0.51096 0.30277 0.62647 0.0
H587 H 0.5112 0.25619 0.63213 0.0
O588 O 0.56066 0.28273 0.59339 0.0
O589 O 0.54601 0.29977 0.61898 0.0
O590 O 0.52552 0.27928 0.59207 0.0
O591 O 0.54365 0.26494 0.61707 0.0
H592 H 0.59019 0.29371 0.60141 0.0
H593 H 0.55586 0.27359 0.56237 0.0
H594 H 0.61005 0.29448 0.58266 0.0
H595 H 0.57635 0.27477 0.54426 0.0
H596 H 0.54628 0.3218 0.66964 0.0
H597 H 0.55741 0.32826 0.61438 0.0
H598 H 0.54122 0.29899 0.64928 0.0
H599 H 0.56212 0.35055 0.63529 0.0
H600 H 0.56535 0.3408 0.56421 0.0
H601 H 0.51967 0.33904 0.57791 0.0
H602 H 0.60655 0.26427 0.63662 0.0
H603 H 0.60171 0.30695 0.66239 0.0
H604 H 0.49735 0.26711 0.59701 0.0
H605 H 0.5258 0.28374 0.56162 0.0
H606 H 0.47488 0.26149 0.57626 0.0
H607 H 0.50282 0.27778 0.54144 0.0
H608 H 0.53119 0.2357 0.60899 0.0
H609 H 0.55294 0.26933 0.64804 0.0
H610 H 0.52933 0.21577 0.62767 0.0
H611 H 0.55064 0.2488 0.66609 0.0
H612 H 0.56131 0.21858 0.57594 0.0
H613 H 0.51442 0.21846 0.55733 0.0
H614 H 0.48851 0.3024 0.64173 0.0
H615 H 0.48881 0.25492 0.6475 0.0
Li616 Li 0.00445 0.27535 0.93825 0.0
Li617 Li 0.98683 0.25813 0.91496 0.0
Li618 Li 1.00241 0.2457 0.93711 0.0
Li619 Li 0.01618 0.26036 0.9159 0.0
C620 C 0.97523 0.25991 0.94917 0.0
N621 N 0.95337 0.26192 0.96992 0.0
C622 C 0.96123 0.26376 0.94386 0.0
C623 C 0.97814 0.25707 0.96501 0.0
C624 C 0.95032 0.26471 0.95453 0.0
C625 C 0.96694 0.25817 0.97533 0.0
C626 C 0.00304 0.28737 0.90439 0.0
C627 C 0.00615 0.29558 0.87838 0.0
N628 N 0.0034 0.30961 0.88375 0.0
C629 C 1.00019 0.30183 0.90965 0.0
C630 C 0.00601 0.28417 0.88864 0.0
C631 C 1.00045 0.31293 0.89904 0.0
C632 C 0.02019 0.30608 0.95048 0.0
N633 N 0.00727 0.29557 0.9514 0.0
C634 C 0.99756 0.31447 0.96777 0.0
C635 C 0.99612 0.29951 0.96003 0.0
C636 C 0.01052 0.32581 0.96657 0.0
C637 C 0.02203 0.32121 0.95791 0.0
H638 H 0.0289 0.30288 0.94346 0.0
H639 H 0.98586 0.29117 0.96066 0.0
C640 C 0.95911 0.24305 0.89348 0.0
N641 N 0.9674 0.25676 0.90064 0.0
C642 C 0.9454 0.2424 0.88341 0.0
C643 C 0.94866 0.26989 0.88845 0.0
C644 C 0.96241 0.27005 0.89818 0.0
C645 C 0.93991 0.25595 0.88085 0.0
H646 H 0.96308 0.23255 0.89559 0.0
H647 H 0.96902 0.28086 0.90393 0.0
C648 C 0.03353 0.26434 0.95076 0.0
N649 N 0.05888 0.2677 0.97309 0.0
C650 C 0.04734 0.26105 0.94614 0.0
C651 C 0.03258 0.26936 0.96672 0.0
C652 C 0.06004 0.2628 0.95761 0.0
C653 C 0.04555 0.27098 0.97784 0.0
C654 C 0.99913 0.22953 0.90166 0.0
C655 C 0.0032 0.21594 0.90602 0.0
C656 C 0.99451 0.23074 0.88567 0.0
C657 C 1.00251 0.20367 0.89426 0.0
C658 C 0.99396 0.2182 0.87426 0.0
N659 N 0.99793 0.20504 0.87876 0.0
C660 C 0.99005 0.21648 0.94923 0.0
C661 C 0.01659 0.22526 0.95643 0.0
C662 C 0.99074 0.20287 0.95638 0.0
N663 N 1.00291 0.22736 0.94917 0.0
C664 C 0.01777 0.2119 0.96375 0.0
C665 C 0.00481 0.20019 0.96363 0.0
H666 H 0.97926 0.21813 0.94333 0.0
H667 H 0.02678 0.23381 0.95629 0.0
C668 C 0.04313 0.27516 0.90286 0.0
N669 N 0.03373 0.26137 0.90313 0.0
C670 C 0.05602 0.27631 0.89434 0.0
C671 C 0.04941 0.24909 0.88631 0.0
C672 C 0.03671 0.24845 0.89507 0.0
C673 C 0.0594 0.26315 0.88586 0.0
H674 H 0.04066 0.28532 0.90936 0.0
H675 H 0.02938 0.23752 0.89556 0.0
O676 O 0.98585 0.25855 0.93877 0.0
O677 O 0.00334 0.27655 0.91477 0.0
O678 O 0.02104 0.26274 0.93967 0.0
O679 O 0.99942 0.2415 0.91307 0.0
H680 H 0.9588 0.26593 0.93161 0.0
H681 H 0.98892 0.25402 0.96926 0.0
H682 H 0.93941 0.26763 0.95058 0.0
H683 H 0.969 0.25601 0.98764 0.0
H684 H 0.00848 0.29331 0.86616 0.0
H685 H 0.99781 0.30445 0.92179 0.0
H686 H 0.00826 0.27302 0.88442 0.0
H687 H 0.9983 0.32418 0.90296 0.0
H688 H 0.98843 0.31708 0.9745 0.0
H689 H 0.03218 0.32933 0.9563 0.0
H690 H 0.939 0.23137 0.87793 0.0
H691 H 0.94498 0.28063 0.88677 0.0
H692 H 0.04823 0.25713 0.93382 0.0
H693 H 0.02195 0.27197 0.97045 0.0
H694 H 0.0708 0.26028 0.95422 0.0
H695 H 0.04501 0.27486 0.99024 0.0
H696 H 0.00684 0.21486 0.91836 0.0
H697 H 0.99134 0.24122 0.88214 0.0
H698 H 0.0056 0.19306 0.89746 0.0
H699 H 0.99035 0.21892 0.86184 0.0
H700 H 0.98037 0.19431 0.95571 0.0
H701 H 0.02887 0.21077 0.96937 0.0
H702 H 0.0632 0.28745 0.89429 0.0
H703 H 0.05156 0.23856 0.88025 0.0
Li704 Li 0.38901 0.01117 0.29778 0.0
Li705 Li 0.36675 0.9963 0.28114 0.0
Li706 Li 0.38835 0.01055 0.26943 0.0
Li707 Li 0.36999 0.02319 0.28342 0.0
C708 C 0.39764 0.98297 0.28215 0.0
N709 N 0.41728 0.96228 0.28295 0.0
C710 C 0.39209 0.96768 0.28419 0.0
C711 C 0.41315 0.98777 0.28049 0.0
C712 C 0.40221 0.95739 0.28458 0.0
C713 C 0.4229 0.97711 0.28091 0.0
C714 C 0.35807 0.00985 0.31238 0.0
C715 C 0.33321 0.01044 0.32118 0.0
N716 N 0.33868 0.00782 0.33602 0.0
C717 C 0.36345 0.00714 0.32772 0.0
C718 C 0.34283 0.0115 0.30905 0.0
C719 C 0.35347 0.00617 0.33951 0.0
C720 C 0.40391 0.02688 0.32497 0.0
N721 N 0.40167 0.01307 0.31602 0.0
C722 C 0.41842 0.00352 0.33421 0.0
C723 C 0.4084 1.00137 0.32035 0.0
C724 C 0.42105 0.01772 0.34356 0.0
C725 C 0.41371 0.0295 0.33903 0.0
H726 H 0.39805 0.03577 0.32114 0.0
H727 H 0.40589 0.99037 0.31323 0.0
C728 C 0.34931 0.97097 0.26416 0.0
N729 N 0.35214 0.97927 0.27873 0.0
C730 C 0.33899 0.95721 0.26202 0.0
C731 C 0.33437 0.96136 0.28979 0.0
C732 C 0.34491 0.9749 0.29142 0.0
C733 C 0.33188 0.95227 0.27514 0.0
H734 H 0.35565 0.97471 0.2545 0.0
H735 H 0.34799 0.9813 0.30302 0.0
C736 C 0.40325 0.0418 0.28773 0.0
N737 N 0.42529 0.06826 0.29155 0.0
C738 C 0.39929 0.05565 0.28405 0.0
C739 C 0.4184 0.04138 0.29338 0.0
C740 C 0.4106 0.06891 0.28606 0.0
C741 C 0.42938 0.0549 0.29523 0.0
C742 C 0.35537 0.00636 0.25077 0.0
C743 C 0.35965 0.00788 0.23545 0.0
C744 C 0.33987 1.00232 0.25286 0.0
C745 C 0.34834 0.00511 0.2224 0.0
C746 C 0.3289 0.99957 0.23949 0.0
N747 N 0.33332 1.00101 0.22467 0.0
C748 C 0.39735 0.99804 0.24191 0.0
C749 C 0.4115 0.02271 0.25223 0.0
C750 C 0.40564 0.99787 0.22882 0.0
N751 N 0.40025 0.01049 0.253 0.0
C752 C 0.42031 0.02288 0.23964 0.0
C753 C 0.41715 0.01055 0.22751 0.0
H754 H 0.3883 0.98849 0.24305 0.0
H755 H 0.41355 0.0324 0.26121 0.0
C756 C 0.35888 0.04615 0.29886 0.0
N757 N 0.3591 0.03831 0.28439 0.0
C758 C 0.35029 0.05762 0.30014 0.0
C759 C 0.34204 0.05212 0.27167 0.0
C760 C 0.35097 0.04096 0.27092 0.0
C761 C 0.34194 0.06063 0.28636 0.0
H762 H 0.36557 0.04359 0.30927 0.0
H763 H 0.35172 0.03472 0.25958 0.0
O764 O 0.38787 0.99316 0.28197 0.0
O765 O 0.36758 0.01028 0.30058 0.0
O766 O 0.39235 0.02868 0.28548 0.0
O767 O 0.36638 0.0092 0.26363 0.0
H768 H 0.3801 0.96384 0.28554 0.0
H769 H 0.41761 0.9996 0.279 0.0
H770 H 0.3981 0.94553 0.28621 0.0
H771 H 0.43494 0.98063 0.27967 0.0
H772 H 0.32138 0.01163 0.31878 0.0
H773 H 0.37514 0.00561 0.33045 0.0
H774 H 0.33845 0.01339 0.29718 0.0
H775 H 0.35746 0.00403 0.35141 0.0
H776 H 0.42376 0.99417 0.3378 0.0
H777 H 0.41554 0.0405 0.34627 0.0
H778 H 0.33757 0.94993 0.25078 0.0
H779 H 0.32946 0.95729 0.3002 0.0
H780 H 0.38763 0.05613 0.27957 0.0
H781 H 0.42166 0.0307 0.29611 0.0
H782 H 0.40772 0.07971 0.28321 0.0
H783 H 0.44116 0.05475 0.29952 0.0
H784 H 0.37157 0.01133 0.23366 0.0
H785 H 0.33636 1.00131 0.26468 0.0
H786 H 0.3515 0.00627 0.21048 0.0
H787 H 0.31686 0.99632 0.24089 0.0
H788 H 0.40275 0.98818 0.21965 0.0
H789 H 0.42935 0.03269 0.23931 0.0
H790 H 0.35056 0.06441 0.31151 0.0
H791 H 0.33601 0.0547 0.26082 0.0
Li792 Li 0.26872 0.17465 0.52028 0.0
Li793 Li 0.27955 0.1539 0.50465 0.0
Li794 Li 0.26729 0.17329 0.49024 0.0
Li795 Li 0.25083 0.152 0.50233 0.0
C796 C 0.2986 0.18765 0.50807 0.0
N797 N 0.32488 0.20983 0.51079 0.0
C798 C 0.31288 0.18397 0.51256 0.0
C799 C 0.29765 0.20259 0.50497 0.0
C800 C 0.32604 0.19535 0.51388 0.0
C801 C 0.31109 0.21365 0.50641 0.0
C802 C 0.26607 0.1423 0.533 0.0
C803 C 0.2609 0.11681 0.54096 0.0
N804 N 0.26748 0.12245 0.556 0.0
C805 C 0.27279 0.14786 0.54851 0.0
C806 C 0.26006 0.12667 0.52915 0.0
C807 C 0.27338 0.13764 0.55998 0.0
C808 C 0.2584 0.18456 0.54914 0.0
N809 N 0.27045 0.18739 0.54046 0.0
C810 C 0.28398 0.2064 0.56138 0.0
C811 C 0.28312 0.1981 0.54626 0.0
C812 C 0.27179 0.20355 0.57086 0.0
C813 C 0.25886 0.19238 0.56437 0.0
H814 H 0.24851 0.17588 0.54436 0.0
H815 H 0.29266 0.20015 0.53925 0.0
C816 C 0.30419 0.14271 0.49184 0.0
N817 N 0.29599 0.14255 0.50463 0.0
C818 C 0.31663 0.1351 0.49149 0.0
C819 C 0.31177 0.127 0.51727 0.0
C820 C 0.29962 0.13498 0.51727 0.0
C821 C 0.32046 0.12708 0.50431 0.0
H822 H 0.30113 0.14889 0.48198 0.0
H823 H 0.29326 0.13522 0.52746 0.0
C824 C 0.24065 0.18419 0.50263 0.0
N825 N 0.22015 0.20385 0.49955 0.0
C826 C 0.22546 0.17848 0.49621 0.0
C827 C 0.24545 0.19985 0.5075 0.0
C828 C 0.21526 0.18862 0.49474 0.0
C829 C 0.2349 0.20962 0.50583 0.0
C830 C 0.26231 0.14012 0.47196 0.0
C831 C 0.25805 0.14431 0.45692 0.0
C832 C 0.26464 0.12519 0.47341 0.0
C833 C 0.25622 0.13346 0.44351 0.0
C834 C 0.26269 0.11468 0.45971 0.0
N835 N 0.25857 0.119 0.44518 0.0
C836 C 0.28201 0.18731 0.46565 0.0
C837 C 0.256 0.18982 0.46558 0.0
C838 C 0.28327 0.19488 0.45194 0.0
N839 N 0.26852 0.18491 0.47217 0.0
C840 C 0.25675 0.19744 0.45187 0.0
C841 C 0.27049 0.19998 0.44475 0.0
H842 H 0.29173 0.18306 0.47094 0.0
H843 H 0.24533 0.1876 0.47077 0.0
C844 C 0.22406 0.13828 0.51441 0.0
N845 N 0.23119 0.13845 0.5009 0.0
C846 C 0.20964 0.12904 0.51449 0.0
C847 C 0.21006 0.1202 0.48672 0.0
C848 C 0.2245 0.12967 0.48717 0.0
C849 C 0.20237 0.11977 0.50052 0.0
H850 H 0.22957 0.14545 0.52514 0.0
H851 H 0.23032 0.13003 0.47653 0.0
O852 O 0.28567 0.17656 0.50639 0.0
O853 O 0.26537 0.15215 0.52166 0.0
O854 O 0.25066 0.17438 0.50444 0.0
O855 O 0.26455 0.15071 0.48513 0.0
H856 H 0.31378 0.17244 0.515 0.0
H857 H 0.28666 0.20558 0.50144 0.0
H858 H 0.33717 0.19267 0.51733 0.0
H859 H 0.31056 0.22527 0.50402 0.0
H860 H 0.25633 0.10467 0.53817 0.0
H861 H 0.27758 0.15993 0.55163 0.0
H862 H 0.25487 0.12222 0.51716 0.0
H863 H 0.27855 0.14177 0.57204 0.0
H864 H 0.29414 0.21497 0.5655 0.0
H865 H 0.24925 0.1893 0.57107 0.0
H866 H 0.32313 0.13537 0.48129 0.0
H867 H 0.31454 0.12105 0.52743 0.0
H868 H 0.2216 0.16636 0.49242 0.0
H869 H 0.25718 0.20438 0.51254 0.0
H870 H 0.20346 0.18439 0.48981 0.0
H871 H 0.23842 0.22179 0.50955 0.0
H872 H 0.25622 0.15582 0.45559 0.0
H873 H 0.26798 0.12181 0.48499 0.0
H874 H 0.25297 0.13655 0.43179 0.0
H875 H 0.26449 0.10309 0.46063 0.0
H876 H 0.29402 0.19633 0.44676 0.0
H877 H 0.24663 0.20126 0.44688 0.0
H878 H 0.20416 0.1294 0.52536 0.0
H879 H 0.20507 0.11319 0.4757 0.0
Li880 Li 0.14171 0.04368 0.7791 0.0
Li881 Li 0.12042 0.02738 0.7912 0.0
Li882 Li 0.13989 0.01497 0.7772 0.0
Li883 Li 0.11908 0.02553 0.76124 0.0
C884 C 0.15353 0.0321 0.80957 0.0
N885 N 0.17468 0.03516 0.83624 0.0
C886 C 0.14941 0.0361 0.82471 0.0
C887 C 0.16841 0.0297 0.80796 0.0
C888 C 0.16027 0.03759 0.83805 0.0
C889 C 0.17893 0.03129 0.8216 0.0
C890 C 0.10959 0.05391 0.77881 0.0
C891 C 0.08425 0.05993 0.77583 0.0
N892 N 0.09012 0.07454 0.78247 0.0
C893 C 0.1154 0.06897 0.7856 0.0
C894 C 0.09392 0.04931 0.77385 0.0
C895 C 0.10536 0.07924 0.78735 0.0
C896 C 0.15661 0.07009 0.7671 0.0
N897 N 0.15538 0.06328 0.78074 0.0
C898 C 0.17253 0.08484 0.79567 0.0
C899 C 0.16316 0.0703 0.79489 0.0
C900 C 0.17385 0.09229 0.78177 0.0
C901 C 0.16582 0.08457 0.76733 0.0
H902 H 0.15032 0.06429 0.75601 0.0
H903 H 0.16194 0.06473 0.80563 0.0
C904 C 0.10813 0.01315 0.81654 0.0
N905 N 0.10892 0.02618 0.80925 0.0
C906 C 0.10095 0.01176 0.83046 0.0
C907 C 0.09526 0.03714 0.82903 0.0
C908 C 0.10265 0.03808 0.81518 0.0
C909 C 0.0945 0.02391 0.83697 0.0
H910 H 0.11334 0.00392 0.81166 0.0
H911 H 0.10367 0.04846 0.80943 0.0
C912 C 0.15142 0.0284 0.7485 0.0
N913 N 0.17115 0.02733 0.72535 0.0
C914 C 0.14586 0.0215 0.73305 0.0
C915 C 0.16698 0.03478 0.7522 0.0
C916 C 0.15603 0.0211 0.7215 0.0
C917 C 0.17679 0.03409 0.74032 0.0
C918 C 0.10623 0.99581 0.77386 0.0
C919 C 0.10991 0.98159 0.76912 0.0
C920 C 0.09137 0.99665 0.77734 0.0
C921 C 0.09863 0.96837 0.76799 0.0
C922 C 0.0804 0.98315 0.77608 0.0
N923 N 0.08423 0.96941 0.77148 0.0
C924 C 0.14985 0.9894 0.78959 0.0
C925 C 0.16062 0.9962 0.76617 0.0
C926 C 0.15752 0.97698 0.79001 0.0
N927 N 0.1514 0.99863 0.77769 0.0
C928 C 0.16867 0.98413 0.76627 0.0
C929 C 0.16704 0.9741 0.77814 0.0
H930 H 0.1424 0.99152 0.79861 0.0
H931 H 0.1617 0.00352 0.75678 0.0
C932 C 0.10806 0.03554 0.73253 0.0
N933 N 0.10619 0.02329 0.74108 0.0
C934 C 0.10025 0.0346 0.71722 0.0
C935 C 0.08811 0.00867 0.71992 0.0
C936 C 0.09634 0.01003 0.73515 0.0
C937 C 0.09024 0.02098 0.71064 0.0
H938 H 0.11594 0.04595 0.73748 0.0
H939 H 0.09511 1.00036 0.74204 0.0
O940 O 0.14293 0.03022 0.79644 0.0
O941 O 0.11929 0.04383 0.77674 0.0
O942 O 0.14164 0.02889 0.75993 0.0
O943 O 0.11725 0.00879 0.7754 0.0
H944 H 0.13794 0.03801 0.82615 0.0
H945 H 0.17174 0.02656 0.7963 0.0
H946 H 0.15723 0.04065 0.84985 0.0
H947 H 0.19048 0.02943 0.82056 0.0
H948 H 0.07208 0.05656 0.77205 0.0
H949 H 0.12753 0.07268 0.78945 0.0
H950 H 0.0893 0.03769 0.76853 0.0
H951 H 0.10968 0.09094 0.79257 0.0
H952 H 0.17836 0.09034 0.8071 0.0
H953 H 0.16665 0.08965 0.75624 0.0
H954 H 0.10051 1.00131 0.8361 0.0
H955 H 0.09063 0.04685 0.83375 0.0
H956 H 0.13384 0.01647 0.73003 0.0
H957 H 0.17144 0.04009 0.76415 0.0
H958 H 0.1519 0.0158 0.70948 0.0
H959 H 0.18888 0.03892 0.74301 0.0
H960 H 0.12136 0.98077 0.76634 0.0
H961 H 0.08837 0.0076 0.78104 0.0
H962 H 0.10132 0.95727 0.76437 0.0
H963 H 0.06886 0.9836 0.77878 0.0
H964 H 0.15568 0.96955 0.79932 0.0
H965 H 0.1761 0.98275 0.75705 0.0
H966 H 0.10214 0.04439 0.7105 0.0
H967 H 0.08059 0.99793 0.71522 0.0
Li968 Li 0.27131 0.9244 0.99828 0.0
Li969 Li 0.28378 0.90606 0.01215 0.0
Li970 Li 0.29839 0.92721 0.00022 0.0
Li971 Li 0.2829 0.90483 0.9838 0.0
C972 C 0.2882 0.93883 0.0309 0.0
N973 N 0.29306 0.96036 0.05743 0.0
C974 C 0.28673 0.93417 0.04608 0.0
C975 C 0.29206 0.95443 0.02918 0.0
C976 C 0.28921 0.94523 0.05935 0.0
C977 C 0.29454 0.96514 0.04276 0.0
C978 C 0.2529 0.89065 0.99523 0.0
C979 C 0.24101 0.86394 0.99023 0.0
N980 N 0.22732 0.86771 0.99319 0.0
C981 C 0.23874 0.89428 0.9982 0.0
C982 C 0.2541 0.87538 0.99122 0.0
C983 C 0.22593 0.88252 0.99713 0.0
C984 C 0.24795 0.93499 0.98282 0.0
N985 N 0.25604 0.93527 0.99727 0.0
C986 C 0.24169 0.95197 0.00978 0.0
C987 C 0.25325 0.94348 0.01063 0.0
C988 C 0.23294 0.95159 0.99511 0.0
C989 C 0.2361 0.94313 0.98145 0.0
H990 H 0.25059 0.92824 0.9725 0.0
H991 H 0.25971 0.94313 0.02197 0.0
C992 C 0.29741 0.89363 0.03671 0.0
N993 N 0.2837 0.89438 0.02866 0.0
C994 C 0.29785 0.88491 0.04942 0.0
C995 C 0.27007 0.87802 0.04511 0.0
C996 C 0.27016 0.88694 0.03258 0.0
C997 C 0.28402 0.8771 0.05358 0.0
H998 H 0.30791 0.89998 0.03335 0.0
H999 H 0.25947 0.88818 0.02624 0.0
C1000 C 0.28463 0.93605 0.96933 0.0
N1001 N 0.28641 0.95567 0.94593 0.0
C1002 C 0.28663 0.93066 0.95376 0.0
C1003 C 0.28356 0.9514 0.97303 0.0
C1004 C 0.28751 0.94077 0.94209 0.0
C1005 C 0.28446 0.96114 0.96101 0.0
C1006 C 0.31121 0.89617 -0.00085 0.0
C1007 C 0.32657 0.90185 0.99751 0.0
C1008 C 0.3064 0.88058 0.00042 0.0
C1009 C 0.33692 0.89179 0.99716 0.0
C1010 C 0.31713 0.8709 8e-05 0.0
N1011 N 0.33203 0.87665 0.99845 0.0
C1012 C 0.32389 0.94586 0.01657 0.0
C1013 C 0.32065 0.94661 0.98843 0.0
C1014 C 0.33781 0.95594 0.01787 0.0
N1015 N 0.3158 0.94143 0.00199 0.0
C1016 C 0.33443 0.95669 0.98917 0.0
C1017 C 0.34319 0.96103 0.00396 0.0
H1018 H 0.31986 0.94103 0.02698 0.0
H1019 H 0.31431 0.94228 0.97698 0.0
C1020 C 0.26689 0.88914 0.95671 0.0
N1021 N 0.28082 0.892 0.96549 0.0
C1022 C 0.26462 0.87976 0.94235 0.0
C1023 C 0.29109 0.87645 0.94669 0.0
C1024 C 0.29288 0.88606 0.96081 0.0
C1025 C 0.27687 0.87339 0.93724 0.0
H1026 H 0.25768 0.89438 0.9608 0.0
H1027 H 0.30391 0.88894 0.96787 0.0
O1028 O 0.28566 0.9281 0.01783 0.0
O1029 O 0.2655 0.90208 0.99628 0.0
O1030 O 0.28414 0.92635 0.98094 0.0
O1031 O 0.30098 0.90591 -0.00059 0.0
H1032 H 0.28361 0.92213 0.0476 0.0
H1033 H 0.29315 0.95821 0.01748 0.0
H1034 H 0.28806 0.94179 0.07116 0.0
H1035 H 0.29761 0.97726 0.04164 0.0
H1036 H 0.24173 0.85206 0.98712 0.0
H1037 H 0.23767 0.90607 0.00137 0.0
H1038 H 0.26502 0.87241 0.98891 0.0
H1039 H 0.2149 0.88515 -0.00056 0.0
H1040 H 0.23912 0.95813 0.02055 0.0
H1041 H 0.22925 0.94256 0.97006 0.0
H1042 H 0.30872 0.88451 0.05613 0.0
H1043 H 0.25926 0.87228 0.04847 0.0
H1044 H 0.28765 0.91885 0.95074 0.0
H1045 H 0.28214 0.95574 0.98507 0.0
H1046 H 0.2891 0.93678 0.93001 0.0
H1047 H 0.28366 0.97306 0.96368 0.0
H1048 H 0.33043 0.9139 0.99646 0.0
H1049 H 0.29453 0.87603 0.00165 0.0
H1050 H 0.34884 0.89601 0.99585 0.0
H1051 H 0.31361 0.8588 0.00108 0.0
H1052 H 0.34478 0.95879 0.02933 0.0
H1053 H 0.33874 0.96017 0.97826 0.0
H1054 H 0.25359 0.87782 0.93518 0.0
H1055 H 0.30073 0.87158 0.94315 0.0
Li1056 Li 0.26718 0.38694 0.02745 0.0
Li1057 Li 0.27908 0.36742 0.04109 0.0
Li1058 Li 0.29575 0.38878 0.02867 0.0
Li1059 Li 0.27811 0.36622 0.0111 0.0
C1060 C 0.28291 0.40063 0.05931 0.0
N1061 N 0.28377 0.4219 0.08548 0.0
C1062 C 0.27808 0.39587 0.07358 0.0
C1063 C 0.2882 0.4162 0.05833 0.0
C1064 C 0.27859 0.4068 0.08668 0.0
C1065 C 0.28854 0.42678 0.07171 0.0
C1066 C 0.24819 0.35331 0.025 0.0
C1067 C 0.2352 0.32691 0.02064 0.0
N1068 N 0.22226 0.33124 0.02532 0.0
C1069 C 0.23477 0.35752 0.02974 0.0
C1070 C 0.24844 0.33791 0.02039 0.0
C1071 C 0.22178 0.34619 0.02984 0.0
C1072 C 0.24429 0.40168 0.01343 0.0
N1073 N 0.25081 0.39838 0.02756 0.0
C1074 C 0.23321 0.4103 0.04177 0.0
C1075 C 0.24552 0.4025 0.0416 0.0
C1076 C 0.22642 0.41402 0.02737 0.0
C1077 C 0.23213 0.40969 0.01308 0.0
H1078 H 0.24843 0.39796 0.00239 0.0
H1079 H 0.25067 0.39952 0.05265 0.0
C1080 C 0.2906 0.35219 0.06672 0.0
N1081 N 0.27776 0.35565 0.05901 0.0
C1082 C 0.28968 0.34455 0.08043 0.0
C1083 C 0.26244 0.34439 0.07815 0.0
C1084 C 0.26383 0.35184 0.06441 0.0
C1085 C 0.27548 0.34075 0.08639 0.0
H1086 H 0.30161 0.35567 0.06245 0.0
H1087 H 0.25386 0.35503 0.05837 0.0
C1088 C 0.28149 0.39897 -0.00121 0.0
N1089 N 0.28268 0.41944 0.97621 0.0
C1090 C 0.28337 0.39416 0.98302 0.0
C1091 C 0.28036 0.4142 0.00314 0.0
C1092 C 0.28394 0.40468 0.97177 0.0
C1093 C 0.28092 0.42437 0.99152 0.0
C1094 C 0.30622 0.35669 0.02724 0.0
C1095 C 0.32147 0.36223 0.02507 0.0
C1096 C 0.30159 0.34131 0.02953 0.0
C1097 C 0.33191 0.35225 0.02526 0.0
C1098 C 0.31239 0.33171 0.02971 0.0
N1099 N 0.32719 0.33733 0.02758 0.0
C1100 C 0.32414 0.40645 0.04455 0.0
C1101 C 0.32026 0.40768 0.01668 0.0
C1102 C 0.33858 0.41603 0.04557 0.0
N1103 N 0.31531 0.40248 0.03024 0.0
C1104 C 0.33452 0.41734 0.01717 0.0
C1105 C 0.34397 0.42164 0.03174 0.0
H1106 H 0.32001 0.4021 0.05516 0.0
H1107 H 0.31324 0.40416 0.00539 0.0
C1108 C 0.26313 0.35357 0.98039 0.0
N1109 N 0.27563 0.35339 0.99087 0.0
C1110 C 0.26147 0.34575 0.96497 0.0
C1111 C 0.28518 0.33704 0.9716 0.0
C1112 C 0.28651 0.34523 0.98681 0.0
C1113 C 0.27267 0.33746 0.96034 0.0
H1114 H 0.25465 0.36017 0.98385 0.0
H1115 H 0.29646 0.34536 0.99519 0.0
O1116 O 0.28289 0.39003 0.04653 0.0
O1117 O 0.26089 0.3643 0.02453 0.0
O1118 O 0.28051 0.3887 0.00982 0.0
O1119 O 0.29596 0.36638 0.02734 0.0
H1120 H 0.27402 0.38387 0.07458 0.0
H1121 H 0.29206 0.42004 0.04739 0.0
H1122 H 0.2749 0.40326 0.0978 0.0
H1123 H 0.29263 0.43887 0.07115 0.0
H1124 H 0.2352 0.31493 0.01709 0.0
H1125 H 0.23438 0.36941 0.0333 0.0
H1126 H 0.25875 0.33451 0.01661 0.0
H1127 H 0.21132 0.34928 0.03349 0.0
H1128 H 0.22908 0.41346 0.05301 0.0
H1129 H 0.22703 0.41219 0.00174 0.0
H1130 H 0.30003 0.34212 0.08662 0.0
H1131 H 0.2513 0.34167 0.08242 0.0
H1132 H 0.28441 0.38244 0.97951 0.0
H1133 H 0.27892 0.41808 0.01532 0.0
H1134 H 0.28536 0.40112 0.95952 0.0
H1135 H 0.27994 0.43617 0.99465 0.0
H1136 H 0.32521 0.37411 0.02326 0.0
H1137 H 0.2898 0.33689 0.03124 0.0
H1138 H 0.34375 0.35637 0.02359 0.0
H1139 H 0.30901 0.31979 0.03155 0.0
H1140 H 0.34539 0.41909 0.05708 0.0
H1141 H 0.33826 0.4211 0.00614 0.0
H1142 H 0.25159 0.34629 0.9567 0.0
H1143 H 0.29415 0.33093 0.96849 0.0
Li1144 Li 0.76494 0.13663 0.04788 0.0
Li1145 Li 0.77614 0.11738 0.03309 0.0
Li1146 Li 0.76271 0.13537 0.01949 0.0
Li1147 Li 0.74917 0.11415 0.03173 0.0
C1148 C 0.79433 0.15096 0.03562 0.0
N1149 N 0.82013 0.17378 0.0388 0.0
C1150 C 0.80879 0.14758 0.03985 0.0
C1151 C 0.79295 0.16593 0.033 0.0
C1152 C 0.8217 0.15928 0.04141 0.0
C1153 C 0.80615 0.17731 0.03466 0.0
C1154 C 0.7631 0.10518 0.06212 0.0
C1155 C 0.75833 0.07949 0.06963 0.0
N1156 N 0.76142 0.08529 0.08528 0.0
C1157 C 0.76628 0.11089 0.07827 0.0
C1158 C 0.7592 0.08936 0.05772 0.0
C1159 C 0.76537 0.10065 0.08981 0.0
C1160 C 0.75413 0.14834 0.07418 0.0
N1161 N 0.76667 0.14927 0.06617 0.0
C1162 C 0.78125 0.16843 0.0856 0.0
C1163 C 0.78011 0.15885 0.07157 0.0
C1164 C 0.76855 0.16768 0.09426 0.0
C1165 C 0.75484 0.15748 0.08849 0.0
H1166 H 0.74372 0.14033 0.0695 0.0
H1167 H 0.78996 0.15901 0.06512 0.0
C1168 C 0.79629 0.10252 0.01902 0.0
N1169 N 0.79146 0.10675 0.03319 0.0
C1170 C 0.80775 0.09391 0.01866 0.0
C1171 C 0.80906 0.09461 0.04753 0.0
C1172 C 0.79746 0.10307 0.0473 0.0
C1173 C 0.81424 0.09009 0.03308 0.0
H1174 H 0.79135 0.106 0.00812 0.0
H1175 H 0.79346 0.10696 0.05834 0.0
C1176 C 0.736 0.14512 0.03351 0.0
N1177 N 0.7152 0.16465 0.03367 0.0
C1178 C 0.72038 0.13931 0.02925 0.0
C1179 C 0.74108 0.16084 0.03788 0.0
C1180 C 0.71004 0.14938 0.02937 0.0
C1181 C 0.73036 0.17053 0.03791 0.0
C1182 C 0.75878 0.10259 0.00088 0.0
C1183 C 0.7545 0.10664 0.98577 0.0
C1184 C 0.76009 0.08743 0.00266 0.0
C1185 C 0.75162 0.09541 0.97264 0.0
C1186 C 0.75711 0.07654 0.98921 0.0
N1187 N 0.75298 0.08072 0.97461 0.0
C1188 C 0.77602 0.14864 0.99581 0.0
C1189 C 0.75052 0.1527 0.99762 0.0
C1190 C 0.77722 0.15697 0.98285 0.0
N1191 N 0.76285 0.14677 0.00283 0.0
C1192 C 0.75127 0.16126 0.98476 0.0
C1193 C 0.76473 0.1633 0.97736 0.0
H1194 H 0.78547 0.14351 0.00026 0.0
H1195 H 0.7401 0.15064 0.00325 0.0
C1196 C 0.72582 0.09812 0.04468 0.0
N1197 N 0.73203 0.09974 0.03078 0.0
C1198 C 0.71204 0.08815 0.04468 0.0
C1199 C 0.71185 0.08141 0.01617 0.0
C1200 C 0.7255 0.09166 0.0167 0.0
C1201 C 0.70489 0.08008 0.03019 0.0
H1202 H 0.73121 0.10514 0.05554 0.0
H1203 H 0.73033 0.09377 0.00576 0.0
O1204 O 0.7816 0.13965 0.03423 0.0
O1205 O 0.7637 0.11513 0.05074 0.0
O1206 O 0.7462 0.13535 0.03336 0.0
O1207 O 0.76159 0.11347 0.01383 0.0
H1208 H 0.81003 0.13607 0.04199 0.0
H1209 H 0.7818 0.16872 0.0298 0.0
H1210 H 0.83297 0.15684 0.04471 0.0
H1211 H 0.80529 0.18896 0.03269 0.0
H1212 H 0.7552 0.06722 0.06642 0.0
H1213 H 0.76946 0.1231 0.08188 0.0
H1214 H 0.75674 0.08478 0.04525 0.0
H1215 H 0.7678 0.10491 0.10235 0.0
H1216 H 0.79194 0.17632 0.08959 0.0
H1217 H 0.74491 0.15641 0.09504 0.0
H1218 H 0.81194 0.09083 0.00742 0.0
H1219 H 0.81418 0.09194 0.0588 0.0
H1220 H 0.71631 0.12714 0.02583 0.0
H1221 H 0.75316 0.16549 0.04118 0.0
H1222 H 0.69791 0.14506 0.02605 0.0
H1223 H 0.73409 0.18273 0.04127 0.0
H1224 H 0.75335 0.1183 0.98421 0.0
H1225 H 0.76329 0.08413 0.0143 0.0
H1226 H 0.7483 0.09837 0.96088 0.0
H1227 H 0.75807 0.06476 0.99039 0.0
H1228 H 0.78768 0.15842 0.97711 0.0
H1229 H 0.74145 0.16598 0.98047 0.0
H1230 H 0.70648 0.08759 0.05551 0.0
H1231 H 0.7061 0.07571 0.00476 0.0
Li1232 Li 0.17962 0.54615 0.25025 0.0
Li1233 Li 0.15876 0.53151 0.26241 0.0
Li1234 Li 0.17765 0.51912 0.24854 0.0
Li1235 Li 0.15785 0.52956 0.23399 0.0
C1236 C 0.19213 0.53751 0.28062 0.0
N1237 N 0.21448 0.54449 0.30644 0.0
C1238 C 0.18834 0.54225 0.29571 0.0
C1239 C 0.20729 0.53643 0.27861 0.0
C1240 C 0.1998 0.54569 0.30862 0.0
C1241 C 0.21843 0.53999 0.29183 0.0
C1242 C 0.14867 0.55857 0.24805 0.0
C1243 C 0.12384 0.56511 0.24183 0.0
N1244 N 0.12991 0.58008 0.24687 0.0
C1245 C 0.15468 0.57402 0.25312 0.0
C1246 C 0.13313 0.55404 0.24233 0.0
C1247 C 0.145 0.58472 0.25246 0.0
C1248 C 0.19725 0.56862 0.23728 0.0
N1249 N 0.19345 0.56383 0.25135 0.0
C1250 C 0.20989 0.58532 0.26618 0.0
C1251 C 0.19946 0.57174 0.26566 0.0
C1252 C 0.21393 0.59063 0.25179 0.0
C1253 C 0.20778 0.58201 0.23721 0.0
H1254 H 0.19182 0.56223 0.22612 0.0
H1255 H 0.19575 0.56781 0.27659 0.0
C1256 C 0.14955 0.52009 0.28918 0.0
N1257 N 0.14709 0.53052 0.27906 0.0
C1258 C 0.14149 0.5188 0.30238 0.0
C1259 C 0.12796 0.53846 0.29382 0.0
C1260 C 0.13657 0.53962 0.28103 0.0
C1261 C 0.13055 0.52811 0.30484 0.0
H1262 H 0.15803 0.51303 0.28711 0.0
H1263 H 0.13485 0.54778 0.27278 0.0
C1264 C 0.18917 0.53114 0.21966 0.0
N1265 N 0.2087 0.53032 0.19625 0.0
C1266 C 0.18322 0.52728 0.20362 0.0
C1267 C 0.20504 0.53451 0.22382 0.0
C1268 C 0.19329 0.52692 0.19196 0.0
C1269 C 0.21473 0.53407 0.21179 0.0
C1270 C 0.14388 0.5003 0.24611 0.0
C1271 C 0.14702 0.48563 0.24245 0.0
C1272 C 0.12891 0.50211 0.24817 0.0
C1273 C 0.13506 0.47295 0.24087 0.0
C1274 C 0.11727 0.48912 0.24652 0.0
N1275 N 0.12056 0.47494 0.24293 0.0
C1276 C 0.19217 0.49894 0.26272 0.0
C1277 C 0.19241 0.4974 0.23453 0.0
C1278 C 0.19992 0.48684 0.26347 0.0
N1279 N 0.1886 0.50383 0.24842 0.0
C1280 C 0.20025 0.48529 0.23472 0.0
C1281 C 0.20376 0.47979 0.24929 0.0
H1282 H 0.18865 0.50423 0.27344 0.0
H1283 H 0.18893 0.50131 0.22332 0.0
C1284 C 0.14379 0.53991 0.20862 0.0
N1285 N 0.14523 0.52716 0.21575 0.0
C1286 C 0.13409 0.53859 0.19461 0.0
C1287 C 0.12814 0.51102 0.19552 0.0
C1288 C 0.13795 0.51288 0.20948 0.0
C1289 C 0.12624 0.52401 0.18818 0.0
H1290 H 0.15021 0.551 0.21383 0.0
H1291 H 0.13993 0.50296 0.21514 0.0
O1292 O 0.18091 0.5335 0.26803 0.0
O1293 O 0.15804 0.54798 0.24866 0.0
O1294 O 0.17943 0.53198 0.23114 0.0
O1295 O 0.15547 0.51278 0.24747 0.0
H1296 H 0.17666 0.54324 0.29744 0.0
H1297 H 0.21037 0.53277 0.26699 0.0
H1298 H 0.19701 0.5493 0.32039 0.0
H1299 H 0.2302 0.53914 0.29049 0.0
H1300 H 0.11178 0.56178 0.23747 0.0
H1301 H 0.16669 0.5777 0.25757 0.0
H1302 H 0.12828 0.5421 0.23845 0.0
H1303 H 0.14949 0.59672 0.25639 0.0
H1304 H 0.21409 0.59198 0.27761 0.0
H1305 H 0.2106 0.5859 0.22592 0.0
H1306 H 0.14407 0.51085 0.31069 0.0
H1307 H 0.11942 0.54561 0.29501 0.0
H1308 H 0.17096 0.52464 0.20018 0.0
H1309 H 0.2098 0.53756 0.23619 0.0
H1310 H 0.18884 0.52399 0.1795 0.0
H1311 H 0.22704 0.53673 0.21481 0.0
H1312 H 0.15855 0.48408 0.24076 0.0
H1313 H 0.12632 0.51341 0.25093 0.0
H1314 H 0.13731 0.46153 0.23798 0.0
H1315 H 0.10562 0.49031 0.24807 0.0
H1316 H 0.20249 0.48274 0.27488 0.0
H1317 H 0.20286 0.47983 0.22359 0.0
H1318 H 0.13286 0.54869 0.18877 0.0
H1319 H 0.12229 0.49965 0.19039 0.0
Li1320 Li 0.76754 0.88679 0.52792 0.0
Li1321 Li 0.77986 0.86766 0.54156 0.0
Li1322 Li 0.79627 0.88919 0.52895 0.0
Li1323 Li 0.77864 0.86624 0.51156 0.0
C1324 C 0.78378 0.90074 0.55983 0.0
N1325 N 0.78464 0.92181 0.58616 0.0
C1326 C 0.77843 0.89591 0.57388 0.0
C1327 C 0.78959 0.91626 0.55917 0.0
C1328 C 0.77896 0.90675 0.58706 0.0
C1329 C 0.78991 0.92674 0.57262 0.0
C1330 C 0.74872 0.85328 0.52551 0.0
C1331 C 0.73526 0.82705 0.5206 0.0
N1332 N 0.72247 0.83153 0.52551 0.0
C1333 C 0.73545 0.85764 0.53051 0.0
C1334 C 0.74866 0.83788 0.52051 0.0
C1335 C 0.7223 0.84647 0.53043 0.0
C1336 C 0.74162 0.89685 0.51401 0.0
N1337 N 0.75089 0.89785 0.52791 0.0
C1338 C 0.73569 0.91359 0.54123 0.0
C1339 C 0.74807 0.90591 0.54143 0.0
C1340 C 0.72593 0.91287 0.52701 0.0
C1341 C 0.72903 0.90425 0.51329 0.0
H1342 H 0.74396 0.89018 0.50348 0.0
H1343 H 0.75535 0.90637 0.55244 0.0
C1344 C 0.792 0.85348 0.56756 0.0
N1345 N 0.7789 0.85608 0.55956 0.0
C1346 C 0.7914 0.84613 0.58146 0.0
C1347 C 0.7639 0.84431 0.57865 0.0
C1348 C 0.76501 0.85159 0.56479 0.0
C1349 C 0.77722 0.84162 0.58728 0.0
H1350 H 0.80294 0.85744 0.56335 0.0
H1351 H 0.7548 0.85409 0.5585 0.0
C1352 C 0.78065 0.89863 0.49888 0.0
N1353 N 0.78069 0.91872 0.47598 0.0
C1354 C 0.78264 0.8938 0.48315 0.0
C1355 C 0.77868 0.91364 0.503 0.0
C1356 C 0.78264 0.90414 0.47174 0.0
C1357 C 0.77872 0.92363 0.49123 0.0
C1358 C 0.80677 0.85693 0.5276 0.0
C1359 C 0.8221 0.86228 0.5256 0.0
C1360 C 0.80184 0.84154 0.52965 0.0
C1361 C 0.83232 0.85209 0.52571 0.0
C1362 C 0.81244 0.83172 0.52975 0.0
N1363 N 0.82733 0.83716 0.52779 0.0
C1364 C 0.82602 0.90483 0.54373 0.0
C1365 C 0.81934 0.91073 0.51763 0.0
C1366 C 0.84054 0.91425 0.54445 0.0
N1367 N 0.81581 0.90313 0.53038 0.0
C1368 C 0.83359 0.92036 0.5179 0.0
C1369 C 0.84461 0.92209 0.53132 0.0
H1370 H 0.82301 0.89862 0.55371 0.0
H1371 H 0.81119 0.9092 0.50709 0.0
C1372 C 0.76298 0.84957 0.482 0.0
N1373 N 0.77663 0.85319 0.49146 0.0
C1374 C 0.76187 0.84129 0.46683 0.0
C1375 C 0.78875 0.84023 0.47159 0.0
C1376 C 0.78935 0.84854 0.4866 0.0
C1377 C 0.77497 0.83672 0.46127 0.0
H1378 H 0.75302 0.85348 0.48604 0.0
H1379 H 0.80011 0.85161 0.49419 0.0
O1380 O 0.78347 0.89027 0.54686 0.0
O1381 O 0.76156 0.86411 0.52513 0.0
O1382 O 0.78073 0.88867 0.51017 0.0
O1383 O 0.79671 0.86683 0.52772 0.0
H1384 H 0.77389 0.88395 0.5746 0.0
H1385 H 0.79379 0.92015 0.54838 0.0
H1386 H 0.77486 0.90318 0.59801 0.0
H1387 H 0.79435 0.9388 0.57229 0.0
H1388 H 0.73502 0.81508 0.51674 0.0
H1389 H 0.73532 0.86952 0.53443 0.0
H1390 H 0.75884 0.83436 0.51654 0.0
H1391 H 0.71194 0.84968 0.53426 0.0
H1392 H 0.73393 0.92019 0.55208 0.0
H1393 H 0.7217 0.90304 0.50212 0.0
H1394 H 0.80197 0.84445 0.58787 0.0
H1395 H 0.75273 0.84094 0.58266 0.0
H1396 H 0.78425 0.88222 0.47981 0.0
H1397 H 0.77717 0.91752 0.51516 0.0
H1398 H 0.78421 0.90059 0.45952 0.0
H1399 H 0.7772 0.93529 0.49421 0.0
H1400 H 0.82605 0.87417 0.52394 0.0
H1401 H 0.78998 0.83727 0.53123 0.0
H1402 H 0.84423 0.85606 0.52416 0.0
H1403 H 0.80883 0.81979 0.5314 0.0
H1404 H 0.8486 0.915 0.55501 0.0
H1405 H 0.83591 0.92634 0.50759 0.0
H1406 H 0.75102 0.83901 0.45932 0.0
H1407 H 0.79911 0.83678 0.46803 0.0
Li1408 Li 0.92754 0.01519 0.27009 0.0
Li1409 Li 0.90485 0.99756 0.25259 0.0
Li1410 Li 0.92659 0.01396 0.24011 0.0
Li1411 Li 0.90706 0.02624 0.25361 0.0
C1412 C 0.93722 0.98722 0.25461 0.0
N1413 N 0.95718 0.96684 0.25496 0.0
C1414 C 0.93186 0.97183 0.25638 0.0
C1415 C 0.95272 0.99231 0.25317 0.0
C1416 C 0.94215 0.9617 0.25655 0.0
C1417 C 0.96262 0.9818 0.25327 0.0
C1418 C 0.89517 0.01299 0.28267 0.0
C1419 C 0.87024 0.01495 0.29052 0.0
N1420 N 0.87524 0.01295 0.30573 0.0
C1421 C 0.90008 0.01096 0.29836 0.0
C1422 C 0.88015 0.01499 0.27867 0.0
C1423 C 0.88981 0.01096 0.30985 0.0
C1424 C 0.94303 0.03104 0.29974 0.0
N1425 N 0.94041 0.01742 0.29026 0.0
C1426 C 0.95426 0.00624 0.31031 0.0
C1427 C 0.94592 0.00516 0.29523 0.0
C1428 C 0.95683 0.02002 0.32057 0.0
C1429 C 0.9512 0.03259 0.31499 0.0
H1430 H 0.93847 0.04062 0.29559 0.0
H1431 H 0.94352 0.99436 0.28768 0.0
C1432 C 0.88896 0.96816 0.23747 0.0
N1433 N 0.89099 0.97801 0.25112 0.0
C1434 C 0.87949 0.95366 0.2365 0.0
C1435 C 0.8741 0.95981 0.26352 0.0
C1436 C 0.88378 0.97408 0.26402 0.0
C1437 C 0.8719 0.9493 0.24967 0.0
H1438 H 0.89485 0.9715 0.22737 0.0
H1439 H 0.8857 0.98191 0.27485 0.0
C1440 C 0.94061 0.04504 0.25597 0.0
N1441 N 0.96237 0.07125 0.25588 0.0
C1442 C 0.93626 0.05827 0.25087 0.0
C1443 C 0.95599 0.0451 0.26102 0.0
C1444 C 0.94744 0.07141 0.25092 0.0
C1445 C 0.96684 0.05848 0.26087 0.0
C1446 C 0.89325 0.01005 0.22176 0.0
C1447 C 0.89779 0.01558 0.20769 0.0
C1448 C 0.8778 0.00407 0.22262 0.0
C1449 C 0.88676 0.01508 0.1947 0.0
C1450 C 0.86711 0.00377 0.20936 0.0
N1451 N 0.87177 0.00924 0.19579 0.0
C1452 C 0.94349 0.00246 0.2156 0.0
C1453 C 0.94154 0.02863 0.21606 0.0
C1454 C 0.95122 0.00325 0.20194 0.0
N1455 N 0.93874 0.01504 0.22232 0.0
C1456 C 0.94906 0.02988 0.20233 0.0
C1457 C 0.9539 0.01705 0.19493 0.0
H1458 H 0.941 0.9917 0.22061 0.0
H1459 H 0.93741 0.0384 0.22139 0.0
C1460 C 0.89746 0.05255 0.26755 0.0
N1461 N 0.89583 0.04289 0.25382 0.0
C1462 C 0.89001 0.06513 0.26838 0.0
C1463 C 0.87919 0.05755 0.24098 0.0
C1464 C 0.88696 0.04523 0.24063 0.0
C1465 C 0.88066 0.0678 0.25497 0.0
H1466 H 0.9047 0.05056 0.27784 0.0
H1467 H 0.88591 0.0376 0.22976 0.0
O1468 O 0.92722 0.99715 0.25404 0.0
O1469 O 0.90509 0.01303 0.27131 0.0
O1470 O 0.92974 0.03226 0.25652 0.0
O1471 O 0.90392 0.01034 0.23455 0.0
H1472 H 0.91989 0.96776 0.25759 0.0
H1473 H 0.95699 0.00421 0.25179 0.0
H1474 H 0.93817 0.94975 0.2579 0.0
H1475 H 0.97463 0.98552 0.25199 0.0
H1476 H 0.85857 0.01651 0.28763 0.0
H1477 H 0.91166 0.00932 0.30162 0.0
H1478 H 0.8762 0.01656 0.26654 0.0
H1479 H 0.89344 0.00938 0.32205 0.0
H1480 H 0.95814 0.99617 0.31411 0.0
H1481 H 0.95301 0.0435 0.32236 0.0
H1482 H 0.87806 0.94598 0.22554 0.0
H1483 H 0.86871 0.95689 0.27405 0.0
H1484 H 0.92438 0.0584 0.24695 0.0
H1485 H 0.95948 0.03495 0.26508 0.0
H1486 H 0.94425 0.08175 0.24705 0.0
H1487 H 0.9788 0.05872 0.26476 0.0
H1488 H 0.90969 0.02023 0.20681 0.0
H1489 H 0.87412 0.99973 0.23343 0.0
H1490 H 0.89012 0.01933 0.18374 0.0
H1491 H 0.8551 0.9992 0.20984 0.0
H1492 H 0.95493 0.9931 0.19687 0.0
H1493 H 0.95058 0.0407 0.1973 0.0
H1494 H 0.89179 0.07278 0.27938 0.0
H1495 H 0.87196 0.05889 0.23038 0.0
Li1496 Li 0.26482 0.63695 0.54785 0.0
Li1497 Li 0.27618 0.61758 0.53338 0.0
Li1498 Li 0.26287 0.6356 0.51947 0.0
Li1499 Li 0.24914 0.61452 0.53179 0.0
C1500 C 0.29424 0.65133 0.53609 0.0
N1501 N 0.31983 0.67442 0.53972 0.0
C1502 C 0.30877 0.64805 0.54018 0.0
C1503 C 0.29268 0.66633 0.53385 0.0
C1504 C 0.32157 0.65989 0.54197 0.0
C1505 C 0.30578 0.67785 0.53573 0.0
C1506 C 0.26268 0.6056 0.56237 0.0
C1507 C 0.25822 0.57994 0.57 0.0
N1508 N 0.26095 0.58582 0.58564 0.0
C1509 C 0.26547 0.61139 0.57851 0.0
C1510 C 0.25911 0.58975 0.55803 0.0
C1511 C 0.26457 0.60121 0.5901 0.0
C1512 C 0.2536 0.65016 0.57318 0.0
N1513 N 0.26652 0.64974 0.56601 0.0
C1514 C 0.28171 0.66762 0.58627 0.0
C1515 C 0.28044 0.65799 0.57224 0.0
C1516 C 0.26858 0.66823 0.59389 0.0
C1517 C 0.25438 0.65945 0.5874 0.0
H1518 H 0.24281 0.64312 0.56791 0.0
H1519 H 0.29055 0.65688 0.56654 0.0
C1520 C 0.29736 0.60376 0.51972 0.0
N1521 N 0.29158 0.60694 0.53362 0.0
C1522 C 0.30893 0.59526 0.51946 0.0
C1523 C 0.30801 0.59344 0.54781 0.0
C1524 C 0.29662 0.60213 0.54753 0.0
C1525 C 0.31438 0.59012 0.53368 0.0
H1526 H 0.29305 0.60798 0.50895 0.0
H1527 H 0.29194 0.60519 0.55842 0.0
C1528 C 0.23595 0.64539 0.53319 0.0
N1529 N 0.21497 0.66475 0.53326 0.0
C1530 C 0.22031 0.63943 0.52926 0.0
C1531 C 0.24095 0.66118 0.53717 0.0
C1532 C 0.20988 0.64942 0.52934 0.0
C1533 C 0.23015 0.67078 0.53716 0.0
C1534 C 0.25901 0.60273 0.50114 0.0
C1535 C 0.25477 0.60669 0.48598 0.0
C1536 C 0.26037 0.58761 0.50302 0.0
C1537 C 0.25198 0.5954 0.4729 0.0
C1538 C 0.25748 0.57666 0.48963 0.0
N1539 N 0.25338 0.58075 0.47498 0.0
C1540 C 0.27634 0.64906 0.49589 0.0
C1541 C 0.25061 0.65254 0.49731 0.0
C1542 C 0.27751 0.65738 0.4829 0.0
N1543 N 0.26308 0.64691 0.50272 0.0
C1544 C 0.25132 0.66108 0.48444 0.0
C1545 C 0.26488 0.66342 0.47722 0.0
H1546 H 0.28591 0.64417 0.5005 0.0
H1547 H 0.24013 0.65024 0.50279 0.0
C1548 C 0.22582 0.59764 0.54437 0.0
N1549 N 0.23188 0.60028 0.53056 0.0
C1550 C 0.21203 0.58758 0.54394 0.0
C1551 C 0.21126 0.58325 0.51508 0.0
C1552 C 0.22506 0.59335 0.51609 0.0
C1553 C 0.2046 0.58068 0.5291 0.0
H1554 H 0.23134 0.60389 0.55558 0.0
H1555 H 0.22982 0.59629 0.50531 0.0
O1556 O 0.28164 0.63985 0.53437 0.0
O1557 O 0.26351 0.61548 0.55092 0.0
O1558 O 0.24624 0.63571 0.53312 0.0
O1559 O 0.26176 0.61366 0.51403 0.0
H1560 H 0.31014 0.63649 0.54202 0.0
H1561 H 0.28148 0.66902 0.53072 0.0
H1562 H 0.33289 0.65752 0.54516 0.0
H1563 H 0.30478 0.68952 0.53403 0.0
H1564 H 0.25535 0.56765 0.56684 0.0
H1565 H 0.26838 0.62363 0.58207 0.0
H1566 H 0.25696 0.5851 0.54558 0.0
H1567 H 0.26673 0.60553 0.60264 0.0
H1568 H 0.29282 0.67415 0.59138 0.0
H1569 H 0.24415 0.65975 0.59332 0.0
H1570 H 0.31386 0.59314 0.50843 0.0
H1571 H 0.31197 0.58959 0.55895 0.0
H1572 H 0.21629 0.62722 0.52614 0.0
H1573 H 0.25304 0.66594 0.54022 0.0
H1574 H 0.19774 0.64498 0.52627 0.0
H1575 H 0.23382 0.68302 0.54024 0.0
H1576 H 0.25359 0.61833 0.48434 0.0
H1577 H 0.26358 0.58439 0.51471 0.0
H1578 H 0.24868 0.59829 0.4611 0.0
H1579 H 0.25848 0.5649 0.49088 0.0
H1580 H 0.28804 0.65906 0.47732 0.0
H1581 H 0.24141 0.66558 0.48001 0.0
H1582 H 0.20666 0.58612 0.5548 0.0
H1583 H 0.2053 0.57838 0.50347 0.0
Li1584 Li 0.40467 0.49822 0.75343 0.0
Li1585 Li 0.42743 0.51581 0.77101 0.0
Li1586 Li 0.40675 0.52688 0.75483 0.0
Li1587 Li 0.42608 0.5149 0.74113 0.0
C1588 C 0.39507 0.51363 0.78373 0.0
N1589 N 0.37507 0.51372 0.80672 0.0
C1590 C 0.39978 0.51118 0.79934 0.0
C1591 C 0.3802 0.5161 0.77977 0.0
C1592 C 0.3895 0.51128 0.8108 0.0
C1593 C 0.37025 0.5161 0.79158 0.0
C1594 C 0.4369 0.48782 0.75455 0.0
C1595 C 0.46192 0.48202 0.75152 0.0
N1596 N 0.45661 0.46721 0.75386 0.0
C1597 C 0.43167 0.47257 0.75695 0.0
C1598 C 0.45213 0.49264 0.75185 0.0
C1599 C 0.44182 0.46231 0.75656 0.0
C1600 C 0.39034 0.4681 0.73886 0.0
N1601 N 0.39084 0.47871 0.75166 0.0
C1602 C 0.37242 0.46133 0.76319 0.0
C1603 C 0.38203 0.47559 0.76363 0.0
C1604 C 0.37198 0.44988 0.75042 0.0
C1605 C 0.381 0.45355 0.73802 0.0
H1606 H 0.39748 0.47082 0.72948 0.0
H1607 H 0.38256 0.48408 0.77371 0.0
C1608 C 0.44055 0.53068 0.80162 0.0
N1609 N 0.44041 0.51813 0.79109 0.0
C1610 C 0.44861 0.53227 0.8169 0.0
C1611 C 0.45689 0.50837 0.81004 0.0
C1612 C 0.44849 0.50713 0.79496 0.0
C1613 C 0.45679 0.52093 0.82136 0.0
H1614 H 0.43402 0.53926 0.79829 0.0
H1615 H 0.44813 0.49716 0.78654 0.0
C1616 C 0.39327 0.51057 0.72252 0.0
N1617 N 0.37259 0.50922 0.69576 0.0
C1618 C 0.39826 0.5161 0.70862 0.0
C1619 C 0.37778 0.50432 0.72283 0.0
C1620 C 0.38762 0.5153 0.69521 0.0
C1621 C 0.3675 0.50378 0.70917 0.0
C1622 C 0.4403 0.54585 0.75729 0.0
C1623 C 0.43605 0.55911 0.75218 0.0
C1624 C 0.4557 0.54575 0.76211 0.0
C1625 C 0.44734 0.5721 0.75192 0.0
C1626 C 0.46665 0.55898 0.76167 0.0
N1627 N 0.46228 0.57177 0.75663 0.0
C1628 C 0.39733 0.55327 0.76856 0.0
C1629 C 0.38621 0.5452 0.74189 0.0
C1630 C 0.38987 0.56582 0.7692 0.0
N1631 N 0.39543 0.54329 0.75502 0.0
C1632 C 0.37835 0.55744 0.7421 0.0
C1633 C 0.38022 0.56798 0.75584 0.0
H1634 H 0.40479 0.55154 0.7788 0.0
H1635 H 0.38504 0.53738 0.73116 0.0
C1636 C 0.43869 0.50261 0.71439 0.0
N1637 N 0.43777 0.51589 0.72323 0.0
C1638 C 0.44622 0.50295 0.70061 0.0
C1639 C 0.45185 0.53062 0.70537 0.0
C1640 C 0.44413 0.52975 0.71896 0.0
C1641 C 0.45287 0.51712 0.6959 0.0
H1642 H 0.43334 0.49174 0.7179 0.0
H1643 H 0.44287 0.54018 0.7258 0.0
O1644 O 0.40497 0.51347 0.77237 0.0
O1645 O 0.42705 0.49793 0.75473 0.0
O1646 O 0.40352 0.5112 0.73574 0.0
O1647 O 0.42939 0.53308 0.75772 0.0
H1648 H 0.41122 0.50911 0.80254 0.0
H1649 H 0.37637 0.51791 0.76769 0.0
H1650 H 0.39298 0.50938 0.82293 0.0
H1651 H 0.3587 0.51798 0.78871 0.0
H1652 H 0.47374 0.48554 0.7494 0.0
H1653 H 0.41992 0.46871 0.75913 0.0
H1654 H 0.45631 0.50444 0.74999 0.0
H1655 H 0.43795 0.45047 0.7584 0.0
H1656 H 0.36546 0.45934 0.77286 0.0
H1657 H 0.38124 0.44515 0.72798 0.0
H1658 H 0.4483 0.54218 0.82523 0.0
H1659 H 0.46291 0.4993 0.81303 0.0
H1660 H 0.41019 0.52099 0.7082 0.0
H1661 H 0.37376 0.50002 0.73352 0.0
H1662 H 0.39132 0.51952 0.68436 0.0
H1663 H 0.35546 0.49903 0.70923 0.0
H1664 H 0.42417 0.55934 0.74837 0.0
H1665 H 0.45914 0.53555 0.76612 0.0
H1666 H 0.44422 0.58245 0.74797 0.0
H1667 H 0.47863 0.5591 0.76535 0.0
H1668 H 0.39153 0.57371 0.78003 0.0
H1669 H 0.37113 0.55886 0.73151 0.0
H1670 H 0.4468 0.49225 0.6937 0.0
H1671 H 0.45652 0.54179 0.70202 0.0
Li1672 Li 0.65798 0.03091 0.76211 0.0
Li1673 Li 0.67927 0.04481 0.75032 0.0
Li1674 Li 0.65697 0.02911 0.73394 0.0
Li1675 Li 0.67605 0.01777 0.74847 0.0
C1676 C 0.64823 0.05784 0.74943 0.0
N1677 N 0.62865 0.0786 0.75049 0.0
C1678 C 0.6541 0.07348 0.75348 0.0
C1679 C 0.63241 0.05272 0.74593 0.0
C1680 C 0.64401 0.0838 0.75398 0.0
C1681 C 0.6227 0.06342 0.74651 0.0
C1682 C 0.6905 0.03371 0.781 0.0
C1683 C 0.71631 0.03416 0.79273 0.0
N1684 N 0.71216 0.03813 0.80739 0.0
C1685 C 0.68648 0.03777 0.79617 0.0
C1686 C 0.70553 0.03187 0.77923 0.0
C1687 C 0.6976 0.03996 0.80937 0.0
C1688 C 0.64213 0.017 0.78405 0.0
N1689 N 0.64661 0.03077 0.7787 0.0
C1690 C 0.63548 0.04371 0.79897 0.0
C1691 C 0.64356 0.04402 0.78576 0.0
C1692 C 0.63076 0.02963 0.80481 0.0
C1693 C 0.63399 0.01613 0.79717 0.0
H1694 H 0.64514 0.00678 0.77828 0.0
H1695 H 0.64777 0.05482 0.78143 0.0
C1696 C 0.69463 0.06947 0.73857 0.0
N1697 N 0.69376 0.06189 0.75169 0.0
C1698 C 0.70505 0.08308 0.73923 0.0
C1699 C 0.71406 0.07991 0.76646 0.0
C1700 C 0.70314 0.06673 0.76544 0.0
C1701 C 0.71455 0.08856 0.75352 0.0
H1702 H 0.6868 0.06522 0.7279 0.0
H1703 H 0.70179 0.06088 0.77585 0.0
C1704 C 0.64229 0.9996 0.74455 0.0
N1705 N 0.61917 0.97399 0.73979 0.0
C1706 C 0.64575 0.98505 0.74104 0.0
C1707 C 0.62709 1.00117 0.74561 0.0
C1708 C 0.6339 0.97224 0.73866 0.0
C1709 C 0.61556 0.98806 0.74318 0.0
C1710 C 0.68846 0.03186 0.71983 0.0
C1711 C 0.68283 0.02891 0.70364 0.0
C1712 C 0.70425 0.03596 0.72431 0.0
C1713 C 0.69312 0.03014 0.69217 0.0
C1714 C 0.71418 0.03718 0.71246 0.0
N1715 N 0.70846 0.03425 0.69678 0.0
C1716 C 0.64214 0.04003 0.70936 0.0
C1717 C 0.63858 0.01283 0.70827 0.0
C1718 C 0.63294 0.03886 0.69504 0.0
N1719 N 0.64454 0.02711 0.71561 0.0
C1720 C 0.62923 0.01109 0.694 0.0
C1721 C 0.62644 0.02423 0.68734 0.0
H1722 H 0.64751 0.05118 0.71542 0.0
H1723 H 0.64135 0.00286 0.71331 0.0
C1724 C 0.69011 0.99704 0.76216 0.0
N1725 N 0.68667 0.00252 0.74814 0.0
C1726 C 0.69893 0.98578 0.76256 0.0
C1727 C 0.69989 0.98585 0.73396 0.0
C1728 C 0.69123 0.99726 0.73417 0.0
C1729 C 0.70372 0.98012 0.74829 0.0
H1730 H 0.6859 1.00137 0.77292 0.0
H1731 H 0.6879 1.00173 0.72322 0.0
O1732 O 0.65805 0.04772 0.74859 0.0
O1733 O 0.67985 0.03206 0.76793 0.0
O1734 O 0.65384 0.01217 0.74722 0.0
O1735 O 0.67847 0.03056 0.73116 0.0
H1736 H 0.66634 0.07759 0.75619 0.0
H1737 H 0.62772 0.04065 0.74271 0.0
H1738 H 0.6484 0.09594 0.7571 0.0
H1739 H 0.61043 0.05966 0.74377 0.0
H1740 H 0.728 0.03286 0.79155 0.0
H1741 H 0.67494 0.03936 0.79774 0.0
H1742 H 0.70886 0.02894 0.76753 0.0
H1743 H 0.69467 0.04316 0.82117 0.0
H1744 H 0.63336 0.05435 0.80483 0.0
H1745 H 0.6304 0.00509 0.80138 0.0
H1746 H 0.70494 0.08967 0.72912 0.0
H1747 H 0.72127 0.08387 0.77763 0.0
H1748 H 0.65747 0.98365 0.74019 0.0
H1749 H 0.62426 0.01237 0.74837 0.0
H1750 H 0.63641 0.9609 0.73595 0.0
H1751 H 0.60373 0.98907 0.74401 0.0
H1752 H 0.67064 0.0256 0.69996 0.0
H1753 H 0.70878 0.03822 0.7368 0.0
H1754 H 0.68893 0.02783 0.6796 0.0
H1755 H 0.72643 0.04043 0.71574 0.0
H1756 H 0.63093 0.04917 0.69003 0.0
H1757 H 0.62455 0.9997 0.68804 0.0
H1758 H 0.70145 0.98111 0.77366 0.0
H1759 H 0.70328 0.9813 0.72279 0.0
Li1760 Li 0.76797 0.67445 0.02066 0.0
Li1761 Li 0.77876 0.65377 0.00502 0.0
Li1762 Li 0.76646 0.67311 0.99073 0.0
Li1763 Li 0.75002 0.65178 0.00277 0.0
C1764 C 0.79781 0.68739 0.00816 0.0
N1765 N 0.82416 0.70943 0.01032 0.0
C1766 C 0.81211 0.68367 0.01249 0.0
C1767 C 0.79688 0.70232 0.00498 0.0
C1768 C 0.8253 0.69498 0.01352 0.0
C1769 C 0.81035 0.7133 0.00612 0.0
C1770 C 0.76572 0.64214 0.03343 0.0
C1771 C 0.76143 0.61661 0.04135 0.0
N1772 N 0.76789 0.62238 0.0564 0.0
C1773 C 0.77232 0.64784 0.04895 0.0
C1774 C 0.76022 0.62642 0.02955 0.0
C1775 C 0.77331 0.63765 0.0604 0.0
C1776 C 0.75734 0.68721 0.04836 0.0
N1777 N 0.77009 0.6874 0.04069 0.0
C1778 C 0.78524 0.70423 0.06244 0.0
C1779 C 0.78389 0.69576 0.04737 0.0
C1780 C 0.7723 0.70408 0.07083 0.0
C1781 C 0.75818 0.69545 0.06344 0.0
H1782 H 0.74653 0.68036 0.04288 0.0
H1783 H 0.79392 0.69567 0.04114 0.0
C1784 C 0.80345 0.64289 0.99204 0.0
N1785 N 0.79528 0.64256 0.00485 0.0
C1786 C 0.81597 0.63539 0.99158 0.0
C1787 C 0.81125 0.62709 0.01731 0.0
C1788 C 0.79904 0.63497 0.01742 0.0
C1789 C 0.8199 0.6273 0.00431 0.0
H1790 H 0.80032 0.64912 0.98225 0.0
H1791 H 0.79274 0.63512 0.02766 0.0
C1792 C 0.73996 0.68415 0.00292 0.0
N1793 N 0.71985 0.70413 -0.00065 0.0
C1794 C 0.72482 0.67862 0.99624 0.0
C1795 C 0.74491 0.6998 0.0078 0.0
C1796 C 0.71482 0.68892 0.99454 0.0
C1797 C 0.73455 0.70973 0.00588 0.0
C1798 C 0.76174 0.64009 0.97235 0.0
C1799 C 0.75774 0.6444 0.95729 0.0
C1800 C 0.76418 0.62519 0.97374 0.0
C1801 C 0.75629 0.6337 0.94381 0.0
C1802 C 0.76261 0.61482 0.95997 0.0
N1803 N 0.75875 0.61926 0.94542 0.0
C1804 C 0.78112 0.68546 0.96561 0.0
C1805 C 0.75619 0.69102 0.96662 0.0
C1806 C 0.78277 0.69275 0.95177 0.0
N1807 N 0.76797 0.68466 0.97269 0.0
C1808 C 0.75739 0.69851 0.95285 0.0
C1809 C 0.77075 0.6993 0.94513 0.0
H1810 H 0.79027 0.6802 0.97059 0.0
H1811 H 0.74572 0.69001 0.97221 0.0
C1812 C 0.72456 0.63495 0.01494 0.0
N1813 N 0.73048 0.63798 0.0011 0.0
C1814 C 0.71034 0.62524 0.01467 0.0
C1815 C 0.70832 0.62207 0.98587 0.0
C1816 C 0.72269 0.63175 0.98669 0.0
C1817 C 0.70195 0.61866 0.0 0.0
H1818 H 0.73086 0.64018 0.02624 0.0
H1819 H 0.72758 0.63438 0.97583 0.0
O1820 O 0.78485 0.67636 0.00677 0.0
O1821 O 0.76464 0.65195 0.02211 0.0
O1822 O 0.74978 0.67419 0.00494 0.0
O1823 O 0.7637 0.65057 0.98559 0.0
H1824 H 0.81301 0.67217 0.01504 0.0
H1825 H 0.78588 0.70534 0.00158 0.0
H1826 H 0.83645 0.69226 0.01683 0.0
H1827 H 0.80983 0.72489 0.00363 0.0
H1828 H 0.75724 0.6044 0.03855 0.0
H1829 H 0.77667 0.65999 0.0521 0.0
H1830 H 0.75514 0.62186 0.01756 0.0
H1831 H 0.77839 0.64189 0.07246 0.0
H1832 H 0.79635 0.71081 0.06744 0.0
H1833 H 0.7479 0.69466 0.06943 0.0
H1834 H 0.82242 0.63578 0.98134 0.0
H1835 H 0.8141 0.62113 0.02744 0.0
H1836 H 0.72085 0.66651 0.99246 0.0
H1837 H 0.75661 0.70419 0.01304 0.0
H1838 H 0.70306 0.68482 0.98941 0.0
H1839 H 0.73819 0.72188 0.00961 0.0
H1840 H 0.75581 0.65589 0.956 0.0
H1841 H 0.76734 0.62172 0.98532 0.0
H1842 H 0.75324 0.63688 0.93208 0.0
H1843 H 0.76451 0.60326 0.96084 0.0
H1844 H 0.79332 0.6932 0.94631 0.0
H1845 H 0.74775 0.70321 0.94803 0.0
H1846 H 0.70581 0.62317 0.02587 0.0
H1847 H 0.70233 0.6172 0.97429 0.0
Li1848 Li 0.86678 0.49552 0.78148 0.0
Li1849 Li 0.88931 0.51109 0.7976 0.0
Li1850 Li 0.8699 0.52258 0.78327 0.0
Li1851 Li 0.88807 0.50983 0.76917 0.0
C1852 C 0.8579 0.50907 0.81222 0.0
N1853 N 0.83799 0.50701 0.8354 0.0
C1854 C 0.86284 0.50595 0.82755 0.0
C1855 C 0.84276 0.51092 0.80863 0.0
C1856 C 0.85263 0.50502 0.83911 0.0
C1857 C 0.83288 0.50989 0.82053 0.0
C1858 C 0.89726 0.48204 0.78134 0.0
C1859 C 0.92142 0.47471 0.7769 0.0
N1860 N 0.91574 0.46025 0.78012 0.0
C1861 C 0.89162 0.46711 0.78451 0.0
C1862 C 0.91224 0.48588 0.7774 0.0
C1863 C 0.90115 0.45626 0.78386 0.0
C1864 C 0.84837 0.47 0.76495 0.0
N1865 N 0.85229 0.47819 0.77954 0.0
C1866 C 0.83599 0.45992 0.7918 0.0
C1867 C 0.84631 0.47357 0.79282 0.0
C1868 C 0.83231 0.45098 0.77707 0.0
C1869 C 0.83818 0.45613 0.76339 0.0
H1870 H 0.85373 0.47392 0.75475 0.0
H1871 H 0.8502 0.47991 0.80434 0.0
C1872 C 0.90054 0.52476 0.82702 0.0
N1873 N 0.90232 0.51364 0.81568 0.0
C1874 C 0.90955 0.52695 0.84157 0.0
C1875 C 0.92283 0.50707 0.83168 0.0
C1876 C 0.91323 0.50496 0.81756 0.0
C1877 C 0.92071 0.51785 0.84405 0.0
H1878 H 0.89177 0.53153 0.82485 0.0
H1879 H 0.91447 0.49639 0.80821 0.0
C1880 C 0.85495 0.50616 0.75099 0.0
N1881 N 0.83288 0.50195 0.72498 0.0
C1882 C 0.85922 0.50836 0.73578 0.0
C1883 C 0.83944 0.50204 0.75303 0.0
C1884 C 0.8479 0.50615 0.72278 0.0
C1885 C 0.82846 0.49988 0.7397 0.0
C1886 C 0.90294 0.54143 0.78782 0.0
C1887 C 0.89908 0.55529 0.78405 0.0
C1888 C 0.91794 0.54106 0.79406 0.0
C1889 C 0.91033 0.56861 0.78657 0.0
C1890 C 0.92886 0.55464 0.79643 0.0
N1891 N 0.92486 0.56801 0.79265 0.0
C1892 C 0.8581 0.54526 0.79857 0.0
C1893 C 0.85258 0.54159 0.77026 0.0
C1894 C 0.84969 0.55691 0.79959 0.0
N1895 N 0.85928 0.53798 0.78406 0.0
C1896 C 0.84403 0.55309 0.7707 0.0
C1897 C 0.84269 0.5609 0.78549 0.0
H1898 H 0.86378 0.54206 0.80925 0.0
H1899 H 0.85414 0.53579 0.75893 0.0
C1900 C 0.89644 0.49787 0.74094 0.0
N1901 N 0.89973 0.50987 0.75258 0.0
C1902 C 0.90465 0.49807 0.72779 0.0
C1903 C 0.91999 0.52248 0.73962 0.0
C1904 C 0.91131 0.52192 0.75232 0.0
C1905 C 0.91642 0.51066 0.72697 0.0
H1906 H 0.88716 0.48843 0.74173 0.0
H1907 H 0.91375 0.53117 0.76183 0.0
O1908 O 0.8678 0.50998 0.80077 0.0
O1909 O 0.88812 0.49282 0.78219 0.0
O1910 O 0.86598 0.50806 0.76375 0.0
O1911 O 0.89218 0.52821 0.78478 0.0
H1912 H 0.87438 0.50405 0.83044 0.0
H1913 H 0.83868 0.5131 0.79676 0.0
H1914 H 0.85633 0.50265 0.85101 0.0
H1915 H 0.82115 0.51135 0.81794 0.0
H1916 H 0.93308 0.47754 0.77401 0.0
H1917 H 0.88003 0.46396 0.78755 0.0
H1918 H 0.91683 0.49744 0.77508 0.0
H1919 H 0.89697 0.44466 0.78636 0.0
H1920 H 0.83197 0.45576 0.80257 0.0
H1921 H 0.83584 0.449 0.75202 0.0
H1922 H 0.90746 0.53528 0.85086 0.0
H1923 H 0.93162 0.50017 0.83295 0.0
H1924 H 0.87114 0.51186 0.73404 0.0
H1925 H 0.83595 0.50043 0.76476 0.0
H1926 H 0.85106 0.50778 0.71094 0.0
H1927 H 0.81642 0.49656 0.74106 0.0
H1928 H 0.88756 0.55573 0.77903 0.0
H1929 H 0.92119 0.53037 0.79675 0.0
H1930 H 0.90752 0.57941 0.78362 0.0
H1931 H 0.94053 0.55453 0.80117 0.0
H1932 H 0.84891 0.56292 0.81112 0.0
H1933 H 0.83909 0.55628 0.7596 0.0
H1934 H 0.90152 0.48877 0.71821 0.0
H1935 H 0.92925 0.53215 0.73962 0.0
Li1936 Li 0.78403 0.40591 0.51233 0.0
Li1937 Li 0.77168 0.42442 0.49812 0.0
Li1938 Li 0.78286 0.40455 0.48391 0.0
Li1939 Li 0.79859 0.42677 0.49991 0.0
C1940 C 0.75283 0.39085 0.49464 0.0
N1941 N 0.72699 0.36809 0.49142 0.0
C1942 C 0.73861 0.39455 0.49729 0.0
C1943 C 0.75394 0.3756 0.49035 0.0
C1944 C 0.72568 0.38287 0.49563 0.0
C1945 C 0.74072 0.36425 0.48874 0.0
C1946 C 0.78893 0.43878 0.53063 0.0
C1947 C 0.79558 0.46514 0.5423 0.0
N1948 N 0.79431 0.46046 0.55705 0.0
C1949 C 0.78764 0.43423 0.54588 0.0
C1950 C 0.79282 0.45435 0.52877 0.0
C1951 C 0.7904 0.44537 0.55909 0.0
C1952 C 0.79731 0.39463 0.53825 0.0
N1953 N 0.7839 0.39454 0.52917 0.0
C1954 C 0.76982 0.37808 0.54519 0.0
C1955 C 0.77032 0.38656 0.53232 0.0
C1956 C 0.7834 0.37818 0.55503 0.0
C1957 C 0.79734 0.3864 0.5514 0.0
H1958 H 0.80788 0.4013 0.53538 0.0
H1959 H 0.75985 0.38697 0.52504 0.0
C1960 C 0.74922 0.43774 0.48369 0.0
N1961 N 0.75674 0.43571 0.49778 0.0
C1962 C 0.73768 0.44634 0.48366 0.0
C1963 C 0.7425 0.45083 0.51259 0.0
C1964 C 0.75374 0.44204 0.51204 0.0
C1965 C 0.73409 0.45263 0.49831 0.0
H1966 H 0.75195 0.43238 0.47259 0.0
H1967 H 0.75973 0.43987 0.52301 0.0
C1968 C 0.81158 0.3961 0.49988 0.0
N1969 N 0.83301 0.37722 0.50025 0.0
C1970 C 0.82675 0.40188 0.49755 0.0
C1971 C 0.8073 0.38074 0.50244 0.0
C1972 C 0.83741 0.39214 0.49777 0.0
C1973 C 0.81832 0.37138 0.50258 0.0
C1974 C 0.78536 0.43594 0.46919 0.0
C1975 C 0.78757 0.43066 0.45365 0.0
C1976 C 0.78428 0.45128 0.47294 0.0
C1977 C 0.78857 0.44085 0.44205 0.0
C1978 C 0.78533 0.46111 0.46099 0.0
N1979 N 0.78742 0.45573 0.44593 0.0
C1980 C 0.76745 0.39098 0.45586 0.0
C1981 C 0.79131 0.38333 0.46233 0.0
C1982 C 0.76515 0.38191 0.44132 0.0
N1983 N 0.78042 0.39156 0.4658 0.0
C1984 C 0.78935 0.37385 0.44814 0.0
C1985 C 0.7763 0.37335 0.43734 0.0
H1986 H 0.75916 0.3979 0.45912 0.0
H1987 H 0.80161 0.38429 0.47035 0.0
C1988 C 0.82378 0.4435 0.51707 0.0
N1989 N 0.81603 0.44079 0.50222 0.0
C1990 C 0.83764 0.45362 0.51977 0.0
C1991 C 0.83508 0.45785 0.49178 0.0
C1992 C 0.82122 0.44769 0.48965 0.0
C1993 C 0.84337 0.46054 0.50691 0.0
H1994 H 0.81943 0.43734 0.5266 0.0
H1995 H 0.81506 0.44477 0.47788 0.0
O1996 O 0.7656 0.40214 0.49666 0.0
O1997 O 0.78607 0.42796 0.5176 0.0
O1998 O 0.80099 0.40544 0.49938 0.0
O1999 O 0.78435 0.42607 0.48064 0.0
H2000 H 0.73762 0.40631 0.50073 0.0
H2001 H 0.76491 0.37257 0.48837 0.0
H2002 H 0.71461 0.38555 0.49772 0.0
H2003 H 0.74137 0.35238 0.48543 0.0
H2004 H 0.79871 0.47723 0.54108 0.0
H2005 H 0.78441 0.42225 0.5475 0.0
H2006 H 0.79374 0.45804 0.51702 0.0
H2007 H 0.7894 0.44202 0.57096 0.0
H2008 H 0.7589 0.37166 0.54752 0.0
H2009 H 0.808 0.3868 0.55886 0.0
H2010 H 0.73113 0.44737 0.4725 0.0
H2011 H 0.73987 0.45555 0.52405 0.0
H2012 H 0.83021 0.41374 0.49549 0.0
H2013 H 0.79556 0.37609 0.50413 0.0
H2014 H 0.84918 0.39644 0.49592 0.0
H2015 H 0.81518 0.35945 0.5045 0.0
H2016 H 0.78859 0.41886 0.45058 0.0
H2017 H 0.78269 0.45555 0.48495 0.0
H2018 H 0.79028 0.43692 0.42998 0.0
H2019 H 0.78449 0.47301 0.4637 0.0
H2020 H 0.75505 0.38193 0.43315 0.0
H2021 H 0.79805 0.36719 0.44556 0.0
H2022 H 0.8443 0.45519 0.53139 0.0
H2023 H 0.83976 0.46271 0.48162 0.0
Li2024 Li 0.62084 0.52693 0.29147 0.0
Li2025 Li 0.64207 0.54332 0.27929 0.0
Li2026 Li 0.61951 0.52547 0.26139 0.0
Li2027 Li 0.64027 0.51464 0.27701 0.0
C2028 C 0.60998 0.55367 0.27906 0.0
N2029 N 0.59051 0.57436 0.28218 0.0
C2030 C 0.61577 0.56879 0.28564 0.0
C2031 C 0.59431 0.54903 0.27407 0.0
C2032 C 0.60573 0.57909 0.28711 0.0
C2033 C 0.58464 0.55968 0.27575 0.0
C2034 C 0.6541 0.53212 0.30964 0.0
C2035 C 0.67942 0.53137 0.32197 0.0
N2036 N 0.67521 0.53591 0.33644 0.0
C2037 C 0.65004 0.53685 0.32461 0.0
C2038 C 0.6689 0.52939 0.30826 0.0
C2039 C 0.66087 0.53868 0.33802 0.0
C2040 C 0.61108 0.51392 0.31871 0.0
N2041 N 0.60925 0.52537 0.30959 0.0
C2042 C 0.59222 0.53423 0.32707 0.0
C2043 C 0.60004 0.53546 0.31353 0.0
C2044 C 0.59408 0.52268 0.33696 0.0
C2045 C 0.60369 0.51242 0.33251 0.0
H2046 H 0.61857 0.50612 0.31542 0.0
H2047 H 0.5988 0.54458 0.3063 0.0
C2048 C 0.65871 0.56861 0.26688 0.0
N2049 N 0.6557 0.56289 0.28082 0.0
C2050 C 0.66825 0.58288 0.26696 0.0
C2051 C 0.6712 0.58541 0.29579 0.0
C2052 C 0.66173 0.57095 0.29515 0.0
C2053 C 0.67461 0.59154 0.28154 0.0
H2054 H 0.65359 0.56211 0.25564 0.0
H2055 H 0.65908 0.56623 0.3061 0.0
C2056 C 0.60649 0.49569 0.27358 0.0
N2057 N 0.58427 0.46946 0.27099 0.0
C2058 C 0.61007 0.48142 0.26886 0.0
C2059 C 0.59164 0.49667 0.27697 0.0
C2060 C 0.59867 0.46828 0.26762 0.0
C2061 C 0.58055 0.48326 0.27559 0.0
C2062 C 0.65197 0.528 0.2487 0.0
C2063 C 0.64647 0.52181 0.23302 0.0
C2064 C 0.66767 0.53345 0.25284 0.0
C2065 C 0.65681 0.52116 0.22167 0.0
C2066 C 0.67764 0.53262 0.24113 0.0
N2067 N 0.67205 0.52654 0.22593 0.0
C2068 C 0.60298 0.53646 0.23602 0.0
C2069 C 0.60208 0.50968 0.23218 0.0
C2070 C 0.59474 0.53599 0.22101 0.0
N2071 N 0.60657 0.52346 0.2413 0.0
C2072 C 0.59409 0.50873 0.2169 0.0
C2073 C 0.59044 0.52206 0.21091 0.0
H2074 H 0.60679 0.54732 0.24336 0.0
H2075 H 0.6052 0.49949 0.23654 0.0
C2076 C 0.65125 0.48986 0.28981 0.0
N2077 N 0.65156 0.49813 0.27708 0.0
C2078 C 0.65888 0.47742 0.29022 0.0
C2079 C 0.66728 0.48245 0.26459 0.0
C2080 C 0.65927 0.49456 0.26454 0.0
C2081 C 0.66709 0.47368 0.27751 0.0
H2082 H 0.64496 0.49285 0.2996 0.0
H2083 H 0.65912 0.50095 0.25436 0.0
O2084 O 0.61968 0.54355 0.27725 0.0
O2085 O 0.64344 0.52965 0.2965 0.0
O2086 O 0.61764 0.50857 0.27533 0.0
O2087 O 0.64199 0.52875 0.25992 0.0
H2088 H 0.62788 0.57254 0.28953 0.0
H2089 H 0.58969 0.53734 0.26896 0.0
H2090 H 0.61004 0.59085 0.29215 0.0
H2091 H 0.57248 0.55628 0.27195 0.0
H2092 H 0.6909 0.52924 0.32111 0.0
H2093 H 0.63863 0.53903 0.32587 0.0
H2094 H 0.67219 0.52567 0.29675 0.0
H2095 H 0.65786 0.54226 0.3497 0.0
H2096 H 0.58479 0.54229 0.32968 0.0
H2097 H 0.60584 0.5035 0.33978 0.0
H2098 H 0.67036 0.58725 0.2557 0.0
H2099 H 0.67591 0.59166 0.30729 0.0
H2100 H 0.62154 0.4805 0.26623 0.0
H2101 H 0.58874 0.50766 0.28072 0.0
H2102 H 0.60127 0.45715 0.264 0.0
H2103 H 0.569 0.4838 0.27821 0.0
H2104 H 0.63436 0.51751 0.22964 0.0
H2105 H 0.67209 0.53824 0.26497 0.0
H2106 H 0.65271 0.51638 0.20948 0.0
H2107 H 0.68983 0.53679 0.24414 0.0
H2108 H 0.59195 0.54657 0.21738 0.0
H2109 H 0.59132 0.49771 0.20971 0.0
H2110 H 0.65851 0.47089 0.30039 0.0
H2111 H 0.67333 0.47975 0.25449 0.0
C2112 C 0.99035 0.97837 0.99144 0.0
C2113 C 0.97494 0.96582 0.01043 0.0
C2114 C 0.98434 0.97891 0.00608 0.0
C2115 C 0.97143 0.95227 -0.00017 0.0
C2116 C 0.98645 0.96483 0.98063 0.0
C2117 C 0.97705 0.95183 0.98494 0.0
N2118 N 0.99934 0.99119 0.98745 0.0
C2119 C 0.00342 0.99154 0.97231 0.0
C2120 C 0.99164 0.9649 0.96555 0.0
C2121 C 0.99999 0.97838 0.9613 0.0
Gd2122 Gd 0.0448 0.0282 0.02503 0.0
Gd2123 Gd 1.00165 0.01316 0.00591 0.0
N2124 N 0.98775 0.99221 0.01613 0.0
C2125 C 0.9693 0.96675 0.02532 0.0
C2126 C 0.98182 0.99336 0.03037 0.0
C2127 C 0.97275 0.98058 0.03532 0.0
H2128 H 0.98373 0.00423 0.03769 0.0
H2129 H 0.96817 0.98149 0.0467 0.0
H2130 H 0.0609 0.03849 0.99256 0.0
H2131 H 0.00845 1.00209 0.9682 0.0
H2132 H 0.07623 0.06162 0.98408 0.0
H2133 H 0.96211 0.95691 0.02911 0.0
H2134 H 0.96418 0.94213 0.00295 0.0
H2135 H 0.03854 0.03794 0.06327 0.0
H2136 H 0.98876 0.95479 0.95688 0.0
H2137 H 0.00336 0.9788 0.94937 0.0
H2138 H 0.08133 0.09951 0.02931 0.0
H2139 H 0.97388 0.94143 0.97672 0.0
H2140 H 0.05833 0.08514 0.07574 0.0
H2141 H 0.04411 0.06077 0.08282 0.0
N2142 N 0.0469 0.04963 0.04409 0.0
C2143 C 0.05549 0.06274 0.04018 0.0
C2144 C 0.04332 0.04874 0.05937 0.0
C2145 C 0.05515 0.0753 0.06674 0.0
C2146 C 0.04703 0.0616 0.07076 0.0
C2147 C 0.05974 0.07593 0.05143 0.0
H2148 H 0.07239 0.09932 0.05587 0.0
N2149 N 0.05742 0.04975 0.01477 0.0
C2150 C 0.06095 0.06278 0.02522 0.0
C2151 C 0.07553 0.07566 0.00606 0.0
C2152 C 0.0702 0.07608 0.02112 0.0
C2153 C 0.06302 0.04911 0.00031 0.0
C2154 C 0.07191 0.06212 0.99562 0.0
O2155 O 0.0127 0.99532 0.0184 0.0
O2156 O 0.03916 1.00222 0.01988 0.0
O2157 O 0.06834 0.02595 0.02257 0.0
O2158 O 0.06037 0.02727 0.0459 0.0
O2159 O 0.00449 0.02603 0.03051 0.0
O2160 O 0.0269 0.0194 0.04093 0.0
O2161 O 0.03338 0.04494 0.01123 0.0
O2162 O 0.00768 0.03885 0.01409 0.0
O2163 O 0.97753 0.01379 0.00592 0.0
O2164 O 0.98845 0.01729 0.98444 0.0
O2165 O 0.04176 0.01486 0.00072 0.0
O2166 O 0.01957 0.02144 0.98993 0.0
C2167 C 0.0266 0.99202 0.02049 0.0
C2168 C 0.01373 0.02368 0.04265 0.0
C2169 C 0.08037 0.0136 0.04241 0.0
C2170 C 0.09995 0.99865 0.03722 0.0
C2171 C 0.08827 0.99731 0.06187 0.0
C2172 C 0.07921 0.00774 0.05721 0.0
C2173 C 0.09859 0.99271 0.05189 0.0
C2174 C 0.0909 0.00908 0.03253 0.0
C2175 C 0.07165 0.02531 0.03777 0.0
C2176 C 0.07411 0.08925 0.03222 0.0
C2177 C 0.06896 0.08916 0.04733 0.0
H2178 H 0.08264 0.08566 0.00249 0.0
C2179 C 0.01973 0.04874 0.01124 0.0
C2180 C 0.03289 0.01744 0.98841 0.0
C2181 C 0.9666 0.0285 0.98769 0.0
C2182 C 0.94643 0.04214 0.99428 0.0
C2183 C 0.95675 0.04447 0.969 0.0
C2184 C 0.96666 0.03456 0.97294 0.0
C2185 C 0.94663 0.04827 0.97964 0.0
C2186 C 0.95636 0.03233 0.99831 0.0
C2187 C 0.9759 0.01693 0.99123 0.0
H2188 H 0.08745 0.99297 0.07333 0.0
H2189 H 0.07148 0.01135 0.0653 0.0
H2190 H 0.10582 0.98488 0.05579 0.0
H2191 H 0.09225 0.01383 0.02129 0.0
H2192 H 0.95671 0.04898 0.95756 0.0
H2193 H 0.97414 0.03142 0.96433 0.0
H2194 H 0.93872 0.05568 0.97634 0.0
H2195 H 0.95576 0.02739 0.00953 0.0
C2196 C 0.29294 0.7372 0.22544 0.0
C2197 C 0.27033 0.72357 0.2083 0.0
C2198 C 0.27774 0.7362 0.21929 0.0
C2199 C 0.27847 0.71216 0.2034 0.0
C2200 C 0.30119 0.72583 0.2204 0.0
C2201 C 0.29387 0.71333 0.20937 0.0
N2202 N 0.29958 0.74911 0.23658 0.0
C2203 C 0.31461 0.75076 0.24247 0.0
C2204 C 0.31654 0.72732 0.22668 0.0
C2205 C 0.32331 0.73992 0.23767 0.0
Gd2206 Gd 0.26249 0.77299 0.28722 0.0
Gd2207 Gd 0.28426 0.7669 0.24392 0.0
N2208 N 0.27 0.74718 0.22472 0.0
C2209 C 0.25489 0.72265 0.20272 0.0
C2210 C 0.25508 0.74658 0.21874 0.0
C2211 C 0.24729 0.73426 0.20789 0.0
H2212 H 0.24899 0.75549 0.22209 0.0
H2213 H 0.23539 0.73376 0.2035 0.0
H2214 H 0.29818 0.7873 0.30747 0.0
H2215 H 0.32004 0.76069 0.25051 0.0
H2216 H 0.3105 0.80918 0.32648 0.0
H2217 H 0.24877 0.71308 0.19437 0.0
H2218 H 0.27294 0.70237 0.19502 0.0
H2219 H 0.22709 0.77862 0.27775 0.0
H2220 H 0.32328 0.71888 0.22305 0.0
H2221 H 0.33526 0.74133 0.24238 0.0
H2222 H 0.27105 0.83845 0.33398 0.0
H2223 H 0.3 0.70445 0.20545 0.0
H2224 H 0.22172 0.82034 0.30412 0.0
H2225 H 0.21099 0.79758 0.28469 0.0
N2226 N 0.24687 0.79088 0.29251 0.0
C2227 C 0.25296 0.80318 0.3033 0.0
C2228 C 0.23199 0.78869 0.28593 0.0
C2229 C 0.22888 0.81214 0.30096 0.0
C2230 C 0.2228 0.79933 0.28996 0.0
C2231 C 0.24413 0.81419 0.30781 0.0
H2232 H 0.24412 0.83539 0.32263 0.0
N2233 N 0.27638 0.7941 0.3049 0.0
C2234 C 0.26815 0.80486 0.30969 0.0
C2235 C 0.29026 0.81919 0.32686 0.0
C2236 C 0.27488 0.81768 0.32078 0.0
C2237 C 0.29143 0.79561 0.31086 0.0
C2238 C 0.29857 0.80813 0.32183 0.0
O2239 O 0.27422 0.74369 0.24987 0.0
O2240 O 0.26975 0.76011 0.26775 0.0
O2241 O 0.26312 0.7624 0.30897 0.0
O2242 O 0.24178 0.75806 0.29245 0.0
O2243 O 0.26077 0.77482 0.2426 0.0
O2244 O 0.24657 0.76707 0.26364 0.0
O2245 O 0.26747 0.7941 0.27555 0.0
O2246 O 0.28643 0.78454 0.26519 0.0
O2247 O 0.28222 0.78058 0.22427 0.0
O2248 O 0.30495 0.77841 0.23528 0.0
O2249 O 0.28619 0.76563 0.29034 0.0
O2250 O 0.29996 0.76811 0.26763 0.0
C2251 C 0.26797 0.74584 0.26262 0.0
C2252 C 0.24773 0.77226 0.24943 0.0
C2253 C 0.24133 0.74622 0.31713 0.0
C2254 C 0.24405 0.73419 0.34132 0.0
C2255 C 0.21888 0.7372 0.33015 0.0
C2256 C 0.2254 0.74413 0.31764 0.0
C2257 C 0.22821 0.73241 0.34211 0.0
C2258 C 0.25056 0.74092 0.32881 0.0
C2259 C 0.24868 0.75597 0.30611 0.0
C2260 C 0.26608 0.82859 0.32543 0.0
C2261 C 0.25074 0.82685 0.31897 0.0
H2262 H 0.29584 0.82885 0.3354 0.0
C2263 C 0.27811 0.79516 0.26596 0.0
C2264 C 0.29895 0.76591 0.28299 0.0
C2265 C 0.30433 0.79346 0.21302 0.0
C2266 C 0.30165 0.80589 0.18909 0.0
C2267 C 0.32687 0.80314 0.20038 0.0
C2268 C 0.32031 0.79585 0.21264 0.0
C2269 C 0.31755 0.80801 0.1885 0.0
C2270 C 0.29509 0.79885 0.20141 0.0
C2271 C 0.29706 0.78383 0.22422 0.0
H2272 H 0.20664 0.73582 0.33074 0.0
H2273 H 0.21814 0.7484 0.30881 0.0
H2274 H 0.22312 0.72727 0.35191 0.0
H2275 H 0.26289 0.74254 0.32857 0.0
H2276 H 0.33915 0.80481 0.19996 0.0
H2277 H 0.32765 0.79168 0.22148 0.0
H2278 H 0.32269 0.81341 0.17886 0.0
H2279 H 0.28274 0.797 0.20149 0.0
C2280 C 0.55898 0.05356 0.49302 0.0
C2281 C 0.57785 0.06906 0.5135 0.0
C2282 C 0.5665 0.05588 0.50847 0.0
C2283 C 0.58087 0.08037 0.50315 0.0
C2284 C 0.56254 0.06461 0.48238 0.0
C2285 C 0.57318 0.07819 0.48766 0.0
N2286 N 0.54913 0.04004 0.48806 0.0
C2287 C 0.54384 0.03632 0.47226 0.0
C2288 C 0.55584 0.06139 0.46652 0.0
C2289 C 0.54669 0.04706 0.46138 0.0
Gd2290 Gd 0.50151 0.01774 0.52484 0.0
Gd2291 Gd 0.54512 0.0233 0.50786 0.0
N2292 N 0.56317 0.04491 0.5184 0.0
C2293 C 0.58608 0.07028 0.52865 0.0
C2294 C 0.57204 0.04534 0.53246 0.0
C2295 C 0.58336 0.05821 0.53805 0.0
H2296 H 0.5706 0.03553 0.53908 0.0
H2297 H 0.59016 0.05867 0.54943 0.0
H2298 H 0.48361 1.00114 0.48921 0.0
H2299 H 0.53795 0.02492 0.46782 0.0
H2300 H 0.46494 0.97769 0.47874 0.0
H2301 H 0.59492 0.0802 0.53295 0.0
H2302 H 0.5894 0.09067 0.50687 0.0
H2303 H 0.50943 0.01595 0.5648 0.0
H2304 H 0.55828 0.06958 0.45798 0.0
H2305 H 0.54217 0.04412 0.44893 0.0
H2306 H 0.45778 0.9505 0.5245 0.0
H2307 H 0.57595 0.08683 0.47967 0.0
H2308 H 0.48561 0.97258 0.57466 0.0
H2309 H 0.50283 0.9974 0.58383 0.0
N2310 N 0.4978 1.00104 0.54443 0.0
C2311 C 0.48787 0.98762 0.53915 0.0
C2312 C 0.50275 0.00481 0.56033 0.0
C2313 C 0.48895 0.98046 0.56606 0.0
C2314 C 0.49872 0.99443 0.57128 0.0
C2315 C 0.48316 0.97702 0.54992 0.0
H2316 H 0.46863 0.95541 0.55259 0.0
N2317 N 0.48657 0.99483 0.51259 0.0
C2318 C 0.48191 0.98459 0.52297 0.0
C2319 C 0.46494 0.96867 0.50147 0.0
C2320 C 0.47105 0.97112 0.51756 0.0
C2321 C 0.48056 0.99258 0.49699 0.0
C2322 C 0.46979 0.97939 0.49113 0.0
O2323 O 0.53851 0.04566 0.51886 0.0
O2324 O 0.51382 0.0426 0.52734 0.0
O2325 O 0.48054 0.02561 0.51591 0.0
O2326 O 0.48493 0.02195 0.54066 0.0
O2327 O 0.53729 0.0152 0.53044 0.0
O2328 O 0.52092 0.02703 0.54349 0.0
O2329 O 0.51157 0.99622 0.51781 0.0
O2330 O 0.52973 1.00007 0.49958 0.0
O2331 O 0.5619 0.01028 0.51748 0.0
O2332 O 0.56362 0.01897 0.49455 0.0
O2333 O 0.50871 0.02808 0.50308 0.0
O2334 O 0.52489 0.01622 0.48943 0.0
C2335 C 0.52692 0.05115 0.52463 0.0
C2336 C 0.53469 0.02419 0.54251 0.0
C2337 C 0.46898 0.03986 0.53568 0.0
C2338 C 0.44964 0.05601 0.53228 0.0
C2339 C 0.46518 0.05789 0.55777 0.0
C2340 C 0.47285 0.04675 0.55158 0.0
C2341 C 0.45368 0.06251 0.5482 0.0
C2342 C 0.45719 0.0445 0.52605 0.0
C2343 C 0.47582 0.02658 0.53006 0.0
C2344 C 0.46633 0.96072 0.52838 0.0
C2345 C 0.47247 0.96357 0.54443 0.0
H2346 H 0.45625 0.95871 0.497 0.0
C2347 C 0.52029 0.99104 0.50743 0.0
C2348 C 0.51162 0.02047 0.4902 0.0
C2349 C 0.57464 0.99731 0.49824 0.0
C2350 C 0.5951 0.98236 0.49696 0.0
C2351 C 0.5733 0.97726 0.47637 0.0
C2352 C 0.56697 0.98878 0.48407 0.0
C2353 C 0.58731 0.97414 0.48267 0.0
C2354 C 0.58861 0.9939 0.50479 0.0
C2355 C 0.56937 0.01108 0.50495 0.0
H2356 H 0.46806 0.06286 0.57009 0.0
H2357 H 0.48157 0.04329 0.55949 0.0
H2358 H 0.44775 0.07108 0.55332 0.0
H2359 H 0.45382 0.03914 0.5139 0.0
H2360 H 0.56744 0.97088 0.46534 0.0
H2361 H 0.55633 0.99134 0.47871 0.0
H2362 H 0.59201 0.96518 0.47642 0.0
H2363 H 0.59472 1.00065 0.51555 0.0
C2364 C 0.24021 0.28649 0.73062 0.0
C2365 C 0.22167 0.26473 0.71703 0.0
C2366 C 0.23226 0.2716 0.73027 0.0
C2367 C 0.21963 0.27287 0.70383 0.0
C2368 C 0.23762 0.29495 0.71769 0.0
C2369 C 0.22753 0.28799 0.70421 0.0
N2370 N 0.24944 0.29307 0.74413 0.0
C2371 C 0.25504 0.30852 0.74598 0.0
C2372 C 0.24465 0.3104 0.719 0.0
C2373 C 0.25318 0.31726 0.73332 0.0
Gd2374 Gd 0.29498 0.26517 0.76695 0.0
Gd2375 Gd 0.25205 0.27687 0.76442 0.0
N2376 N 0.2344 0.26405 0.74324 0.0
C2377 C 0.21311 0.25006 0.71773 0.0
C2378 C 0.22528 0.25036 0.74454 0.0
C2379 C 0.21475 0.24295 0.73167 0.0
H2380 H 0.22615 0.24529 0.7556 0.0
H2381 H 0.20779 0.23188 0.73258 0.0
H2382 H 0.31298 0.30164 0.77954 0.0
H2383 H 0.26061 0.31437 0.75731 0.0
H2384 H 0.32957 0.31566 0.80308 0.0
H2385 H 0.20486 0.24437 0.70782 0.0
H2386 H 0.21162 0.26777 0.6935 0.0
H2387 H 0.29033 0.22795 0.7725 0.0
H2388 H 0.24298 0.31731 0.70934 0.0
H2389 H 0.258 0.32936 0.73478 0.0
H2390 H 0.33776 0.27656 0.83636 0.0
H2391 H 0.22533 0.2944 0.69428 0.0
H2392 H 0.3134 0.22471 0.81835 0.0
H2393 H 0.2975 0.21227 0.79345 0.0
N2394 N 0.30099 0.24916 0.78595 0.0
C2395 C 0.31025 0.25622 0.79923 0.0
C2396 C 0.29683 0.23357 0.78353 0.0
C2397 C 0.31004 0.23169 0.80931 0.0
C2398 C 0.30105 0.22462 0.79529 0.0
C2399 C 0.31497 0.24764 0.81132 0.0
H2400 H 0.32852 0.24873 0.83417 0.0
N2401 N 0.31052 0.2801 0.78876 0.0
C2402 C 0.31519 0.27208 0.80065 0.0
C2403 C 0.33008 0.29548 0.8151 0.0
C2404 C 0.32507 0.2796 0.81416 0.0
C2405 C 0.3158 0.29548 0.78937 0.0
C2406 C 0.32547 0.30343 0.80262 0.0
O2407 O 0.25754 0.26131 0.74346 0.0
O2408 O 0.28284 0.27149 0.74469 0.0
O2409 O 0.31886 0.2706 0.76095 0.0
O2410 O 0.30416 0.24838 0.75244 0.0
O2411 O 0.25444 0.25429 0.77394 0.0
O2412 O 0.27443 0.2454 0.76215 0.0
O2413 O 0.28351 0.26797 0.79003 0.0
O2414 O 0.27024 0.28698 0.78475 0.0
O2415 O 0.23511 0.27069 0.78184 0.0
O2416 O 0.23521 0.29064 0.76886 0.0
O2417 O 0.29338 0.28798 0.75771 0.0
O2418 O 0.27313 0.29637 0.7691 0.0
C2419 C 0.27039 0.26318 0.73677 0.0
C2420 C 0.26162 0.24319 0.7691 0.0
C2421 C 0.33024 0.25156 0.74506 0.0
C2422 C 0.35347 0.25495 0.73097 0.0
C2423 C 0.34257 0.22992 0.73832 0.0
C2424 C 0.33093 0.23595 0.74504 0.0
C2425 C 0.35369 0.23929 0.73134 0.0
C2426 C 0.34172 0.2612 0.73805 0.0
C2427 C 0.31757 0.25723 0.75276 0.0
C2428 C 0.32986 0.27104 0.82613 0.0
C2429 C 0.3247 0.25515 0.82481 0.0
H2430 H 0.33771 0.30167 0.82526 0.0
C2431 C 0.27637 0.27901 0.79497 0.0
C2432 C 0.28575 0.29884 0.76186 0.0
C2433 C 0.21599 0.28761 0.78715 0.0
C2434 C 0.19355 0.28407 0.80239 0.0
C2435 C 0.20238 0.3086 0.79281 0.0
C2436 C 0.21415 0.30287 0.78609 0.0
C2437 C 0.1922 0.29932 0.80085 0.0
C2438 C 0.20552 0.27808 0.79542 0.0
C2439 C 0.22874 0.28241 0.77909 0.0
H2440 H 0.34296 0.21787 0.7385 0.0
H2441 H 0.32249 0.22835 0.75043 0.0
H2442 H 0.36257 0.23426 0.72612 0.0
H2443 H 0.3414 0.27328 0.73791 0.0
H2444 H 0.20116 0.32035 0.79179 0.0
H2445 H 0.22185 0.31055 0.77999 0.0
H2446 H 0.18316 0.30413 0.80599 0.0
H2447 H 0.20668 0.26631 0.79644 0.0
C2448 C 0.00834 0.05777 0.54989 0.0
C2449 C 0.032 0.07284 0.56399 0.0
C2450 C 0.02411 0.06292 0.55069 0.0
C2451 C 0.02391 0.07723 0.57658 0.0
C2452 C 1.00021 0.06207 0.56254 0.0
C2453 C 0.00808 0.07181 0.57588 0.0
N2454 N 1.00105 0.0482 0.53691 0.0
C2455 C 0.98563 0.04277 0.53565 0.0
C2456 C 0.98442 0.05637 0.56143 0.0
C2457 C 0.97711 0.0467 0.54792 0.0
Gd2458 Gd 0.03015 1.00056 0.51578 0.0
Gd2459 Gd 0.01645 0.04206 0.51726 0.0
N2460 N 0.03175 0.05801 0.53859 0.0
C2461 C 0.04777 0.07812 0.56419 0.0
C2462 C 0.04702 0.06348 0.53852 0.0
C2463 C 0.05529 0.07346 0.55138 0.0
H2464 H 0.05279 0.06058 0.52841 0.0
H2465 H 0.06743 0.07774 0.55128 0.0
H2466 H 0.99451 0.98093 0.50428 0.0
H2467 H 0.97983 0.03555 0.5251 0.0
H2468 H 0.98032 0.96383 0.48102 0.0
H2469 H 0.0542 0.08603 0.57399 0.0
H2470 H 0.0298 0.08479 0.58693 0.0
H2471 H 0.06719 0.00659 0.50943 0.0
H2472 H 0.97776 0.05938 0.57092 0.0
H2473 H 0.96491 0.04234 0.54691 0.0
H2474 H 0.01886 0.95772 0.44613 0.0
H2475 H 1.00202 0.07524 0.58572 0.0
H2476 H 0.07053 0.98352 0.46355 0.0
H2477 H 0.08273 1.00035 0.48794 0.0
N2478 N 0.04627 0.99389 0.49701 0.0
C2479 C 0.03937 0.9844 0.48383 0.0
C2480 C 0.06169 0.99939 0.49874 0.0
C2481 C 0.06362 0.98626 0.4729 0.0
C2482 C 0.07056 0.99578 0.48666 0.0
C2483 C 0.04785 0.98036 0.47138 0.0
H2484 H 0.04665 0.96757 0.44807 0.0
N2485 N 0.01573 0.98379 0.49451 0.0
C2486 C 0.02365 0.97905 0.48261 0.0
C2487 C 1.00027 0.9639 0.46846 0.0
C2488 C 0.01608 0.96926 0.46909 0.0
C2489 C 1.00047 0.9781 0.49429 0.0
C2490 C 0.99247 0.9682 0.48121 0.0
O2491 O 0.02056 0.03197 0.54099 0.0
O2492 O 0.03982 0.01928 0.53567 0.0
O2493 O 0.02207 0.98103 0.52897 0.0
O2494 O 0.04618 0.98825 0.52725 0.0
O2495 O 0.03865 0.03995 0.50652 0.0
O2496 O 0.0488 0.02188 0.51985 0.0
O2497 O 0.02505 0.00983 0.49162 0.0
O2498 O 0.00667 0.02406 0.49672 0.0
O2499 O 0.02402 0.06161 0.50341 0.0
O2500 O 1.00057 0.05613 0.50941 0.0
O2501 O 0.00767 0.00281 0.52587 0.0
O2502 O 0.99761 0.02085 0.51233 0.0
C2503 C 0.03165 0.02496 0.54592 0.0
C2504 C 0.05031 0.03358 0.51128 0.0
C2505 C 0.03843 0.96233 0.53268 0.0
C2506 C 0.03718 0.93836 0.54553 0.0
C2507 C 0.05328 0.94324 0.52414 0.0
C2508 C 0.04869 0.95725 0.5227 0.0
C2509 C 0.04768 0.93396 0.53544 0.0
C2510 C 0.03246 0.95265 0.54402 0.0
C2511 C 0.03583 0.97846 0.53271 0.0
C2512 C 0.02449 0.96516 0.45667 0.0
C2513 C 0.04033 0.97075 0.45778 0.0
H2514 H 0.99403 0.9563 0.45831 0.0
C2515 C 0.01445 0.01751 0.48661 0.0
C2516 C 0.996 0.00891 0.52055 0.0
C2517 C 0.00538 0.07758 0.4937 0.0
C2518 C 0.00972 0.10167 0.48103 0.0
C2519 C 0.98379 0.08824 0.4828 0.0
C2520 C 0.98949 0.07696 0.49045 0.0
C2521 C 0.99375 0.10048 0.47824 0.0
C2522 C 0.01563 0.08999 0.48868 0.0
C2523 C 0.01037 0.06506 0.50238 0.0
H2524 H 0.06143 0.93965 0.51658 0.0
H2525 H 0.05358 0.96433 0.51405 0.0
H2526 H 0.05162 0.92321 0.53633 0.0
H2527 H 0.02477 0.95649 0.55203 0.0
H2528 H 0.97152 0.08752 0.48044 0.0
H2529 H 0.9813 0.06765 0.49385 0.0
H2530 H 0.98892 0.10909 0.47229 0.0
H2531 H 0.02791 0.09072 0.49094 0.0
C2532 C 0.24072 0.73587 0.79017 0.0
C2533 C 0.22448 0.71743 0.76967 0.0
C2534 C 0.23772 0.72881 0.77438 0.0
C2535 C 0.21417 0.71338 0.78077 0.0
C2536 C 0.23032 0.73167 0.8013 0.0
C2537 C 0.21704 0.72052 0.79649 0.0
N2538 N 0.25399 0.74629 0.7948 0.0
C2539 C 0.25773 0.75226 0.81046 0.0
C2540 C 0.23375 0.73848 0.81712 0.0
C2541 C 0.24752 0.74876 0.82171 0.0
Gd2542 Gd 0.2762 0.79257 0.75785 0.0
Gd2543 Gd 0.27039 0.74898 0.77468 0.0
N2544 N 0.2477 0.73304 0.76362 0.0
C2545 C 0.22203 0.71038 0.75389 0.0
C2546 C 0.24558 0.726 0.74839 0.0
C2547 C 0.23265 0.71466 0.74324 0.0
H2548 H 0.25405 0.72886 0.74038 0.0
H2549 H 0.23102 0.70905 0.73116 0.0
H2550 H 0.28918 0.81389 0.79228 0.0
H2551 H 0.26876 0.75928 0.81467 0.0
H2552 H 0.31222 0.8329 0.80387 0.0
H2553 H 0.21204 0.70153 0.74985 0.0
H2554 H 0.20395 0.70467 0.77734 0.0
H2555 H 0.27949 0.78523 0.71822 0.0
H2556 H 0.22603 0.73555 0.82598 0.0
H2557 H 0.25049 0.75367 0.83403 0.0
H2558 H 0.34295 0.83834 0.7604 0.0
H2559 H 0.209 0.71714 0.80493 0.0
H2560 H 0.32301 0.80987 0.70977 0.0
H2561 H 0.29868 0.79209 0.69988 0.0
N2562 N 0.29342 0.79741 0.73885 0.0
C2563 C 0.30644 0.80781 0.74443 0.0
C2564 C 0.29038 0.79216 0.72298 0.0
C2565 C 0.31481 0.80648 0.71805 0.0
C2566 C 0.30112 0.79638 0.71243 0.0
C2567 C 0.31751 0.81254 0.73414 0.0
H2568 H 0.33933 0.82714 0.73234 0.0
N2569 N 0.29781 0.8095 0.77024 0.0
C2570 C 0.30854 0.81421 0.76042 0.0
C2571 C 0.32313 0.83186 0.78221 0.0
C2572 C 0.32166 0.82537 0.76628 0.0
C2573 C 0.29866 0.81645 0.78538 0.0
C2574 C 0.31148 0.82751 0.79175 0.0
O2575 O 0.24849 0.7575 0.76538 0.0
O2576 O 0.25201 0.77914 0.75126 0.0
O2577 O 0.26493 0.81097 0.76729 0.0
O2578 O 0.27228 0.8105 0.74358 0.0
O2579 O 0.27996 0.75622 0.75253 0.0
O2580 O 0.26843 0.77272 0.73914 0.0
O2581 O 0.29843 0.78435 0.76664 0.0
O2582 O 0.29517 0.76155 0.77894 0.0
O2583 O 0.27951 0.72886 0.76553 0.0
O2584 O 0.27385 0.73162 0.7898 0.0
O2585 O 0.2674 0.78456 0.78003 0.0
O2586 O 0.27997 0.76868 0.79294 0.0
C2587 C 0.24323 0.76773 0.75693 0.0
C2588 C 0.27201 0.75916 0.73986 0.0
C2589 C 0.25164 0.8231 0.74756 0.0
C2590 C 0.23673 0.84362 0.74751 0.0
C2591 C 0.23254 0.82351 0.72521 0.0
C2592 C 0.24366 0.81654 0.73268 0.0
C2593 C 0.22917 0.83703 0.73248 0.0
C2594 C 0.24791 0.83652 0.75509 0.0
C2595 C 0.26529 0.81742 0.75406 0.0
C2596 C 0.33278 0.82982 0.75608 0.0
C2597 C 0.33072 0.82341 0.74009 0.0
H2598 H 0.33302 0.8405 0.78714 0.0
C2599 C 0.30386 0.77357 0.7741 0.0
C2600 C 0.27631 0.78214 0.79223 0.0
C2601 C 0.29232 0.71619 0.78534 0.0
C2602 C 0.30825 0.69665 0.7823 0.0
C2603 C 0.30913 0.71153 0.80802 0.0
C2604 C 0.29846 0.71957 0.80152 0.0
C2605 C 0.31402 0.70017 0.7985 0.0
C2606 C 0.29724 0.70457 0.77575 0.0
C2607 C 0.2794 0.72325 0.77924 0.0
H2608 H 0.22668 0.81856 0.71361 0.0
H2609 H 0.24636 0.80628 0.72657 0.0
H2610 H 0.22056 0.8423 0.72639 0.0
H2611 H 0.25415 0.8418 0.76644 0.0
H2612 H 0.31353 0.71403 0.82053 0.0
H2613 H 0.29476 0.72818 0.80935 0.0
H2614 H 0.32227 0.69399 0.80382 0.0
H2615 H 0.29246 0.70162 0.76336 0.0
C2616 C 0.55058 1.00014 0.05749 0.0
C2617 C 0.5631 0.02238 0.07562 0.0
C2618 C 0.55124 0.01521 0.06361 0.0
C2619 C 0.57449 0.01434 0.08085 0.0
C2620 C 0.5618 0.99189 0.06293 0.0
C2621 C 0.57389 0.99916 0.07445 0.0
N2622 N 0.53874 0.99342 0.04643 0.0
C2623 C 0.53701 0.97831 0.04079 0.0
C2624 C 0.56039 0.97651 0.05677 0.0
C2625 C 0.54784 0.96965 0.04577 0.0
Gd2626 Gd 0.52025 0.03228 0.99425 0.0
Gd2627 Gd 0.52206 0.00891 0.03693 0.0
N2628 N 0.54002 0.02264 0.05823 0.0
C2629 C 0.56299 0.03731 0.08225 0.0
C2630 C 0.53958 0.037 0.06526 0.0
C2631 C 0.55111 0.04458 0.07714 0.0
H2632 H 0.53032 0.04276 0.06223 0.0
H2633 H 0.55071 0.056 0.0825 0.0
H2634 H 0.50318 0.99667 0.97586 0.0
H2635 H 0.52721 0.97289 0.03247 0.0
H2636 H 0.48276 0.98553 0.9545 0.0
H2637 H 0.57181 0.04318 0.09157 0.0
H2638 H 0.5837 0.01968 0.09001 0.0
H2639 H 0.51454 0.06773 0.0051 0.0
H2640 H 0.56878 0.96979 0.06062 0.0
H2641 H 0.54647 0.95769 0.04113 0.0
H2642 H 0.4587 0.02767 0.94244 0.0
H2643 H 0.58267 0.99305 0.0787 0.0
H2644 H 0.47611 0.07565 0.97495 0.0
H2645 H 0.49677 0.08464 0.99711 0.0
N2646 N 0.50376 0.04911 0.98785 0.0
C2647 C 0.49247 0.0439 0.9756 0.0
C2648 C 0.5054 0.06355 0.99556 0.0
C2649 C 0.48384 0.06812 0.97839 0.0
C2650 C 0.49547 0.07324 0.99096 0.0
C2651 C 0.48215 0.05327 0.97059 0.0
H2652 H 0.46222 0.05447 0.95433 0.0
N2653 N 0.49974 0.0196 0.97508 0.0
C2654 C 0.49051 0.02875 0.96884 0.0
C2655 C 0.47564 0.00702 0.95149 0.0
C2656 C 0.47814 0.02265 0.957 0.0
C2657 C 0.49683 0.0042 0.97023 0.0
C2658 C 0.48493 0.99774 0.95827 0.0
O2659 O 0.54472 0.0145 0.02807 0.0
O2660 O 0.53638 0.03339 0.0165 0.0
O2661 O 0.53508 0.03011 0.97567 0.0
O2662 O 0.53197 0.0529 0.98565 0.0
O2663 O 0.51459 0.03262 0.03909 0.0
O2664 O 0.5236 0.047 0.01869 0.0
O2665 O 0.49649 0.02427 -0.00023 0.0
O2666 O 0.51196 0.01496 0.01511 0.0
O2667 O 0.50414 0.00932 0.05222 0.0
O2668 O 0.50685 0.98768 0.03992 0.0
O2669 O 0.52679 0.00811 0.99136 0.0
O2670 O 0.52238 0.99363 0.01335 0.0
C2671 C 0.54672 0.02487 0.01824 0.0
C2672 C 0.51738 0.0457 0.03238 0.0
C2673 C 0.54853 0.05207 0.9647 0.0
C2674 C 0.56031 0.04983 0.9403 0.0
C2675 C 0.56233 0.07482 0.95517 0.0
C2676 C 0.55378 0.06803 0.96649 0.0
C2677 C 0.56547 0.06577 0.94198 0.0
C2678 C 0.55209 0.04299 0.95174 0.0
C2679 C 0.53828 0.04494 0.97544 0.0
C2680 C 0.46823 0.03215 0.95155 0.0
C2681 C 0.47022 0.04741 0.95835 0.0
H2682 H 0.46625 1.00192 0.94243 0.0
C2683 C 0.49798 0.01595 0.01103 0.0
C2684 C 0.52605 0.9952 0.99848 0.0
C2685 C 0.49964 0.98801 0.06619 0.0
C2686 C 0.49116 0.98945 0.09249 0.0
C2687 C 0.50671 0.97081 0.08499 0.0
C2688 C 0.50722 0.97603 0.06996 0.0
C2689 C 0.49861 0.97743 0.09624 0.0
C2690 C 0.49174 0.99472 0.07756 0.0
C2691 C 0.50032 0.99443 0.05095 0.0
H2692 H 0.5663 0.08712 0.95648 0.0
H2693 H 0.55108 0.07524 0.97646 0.0
H2694 H 0.57189 0.07115 0.93309 0.0
H2695 H 0.54792 0.03068 0.95011 0.0
H2696 H 0.51256 0.96162 0.08792 0.0
H2697 H 0.51357 0.97077 0.06141 0.0
H2698 H 0.49819 0.97326 0.10783 0.0
H2699 H 0.48582 0.00394 0.07472 0.0
C2700 C 0.31496 0.30448 0.29284 0.0
C2701 C 0.32905 0.31769 0.27336 0.0
C2702 C 0.31545 0.30895 0.27748 0.0
C2703 C 0.3419 0.32218 0.28484 0.0
C2704 C 0.32789 0.30903 0.30436 0.0
C2705 C 0.3413 0.31792 0.30029 0.0
N2706 N 0.30186 0.29579 0.29652 0.0
C2707 C 0.30069 0.29205 0.31171 0.0
C2708 C 0.32691 0.3047 0.31976 0.0
C2709 C 0.31323 0.29623 0.32346 0.0
Gd2710 Gd 0.26576 0.24987 0.25674 0.0
Gd2711 Gd 0.2809 0.2924 0.27682 0.0
N2712 N 0.30278 0.30462 0.26656 0.0
C2713 C 0.32936 0.32169 0.2578 0.0
C2714 C 0.30292 0.30894 0.25154 0.0
C2715 C 0.31625 0.31725 0.24686 0.0
H2716 H 0.29275 0.30651 0.24323 0.0
H2717 H 0.31629 0.32049 0.23491 0.0
H2718 H 0.25549 0.23258 0.28795 0.0
H2719 H 0.28992 0.28652 0.31513 0.0
H2720 H 0.23236 0.21717 0.29641 0.0
H2721 H 0.3396 0.32833 0.25415 0.0
H2722 H 0.35237 0.32901 0.28189 0.0
H2723 H 0.25668 0.25449 0.21778 0.0
H2724 H 0.33656 0.30808 0.32896 0.0
H2725 H 0.3122 0.29325 0.33547 0.0
H2726 H 0.19417 0.21333 0.25162 0.0
H2727 H 0.35129 0.32159 0.30903 0.0
H2728 H 0.20934 0.23554 0.20499 0.0
H2729 H 0.23408 0.24899 0.19796 0.0
N2730 N 0.24465 0.24668 0.23693 0.0
C2731 C 0.23126 0.23868 0.24086 0.0
C2732 C 0.24581 0.24991 0.22157 0.0
C2733 C 0.21911 0.23866 0.21407 0.0
C2734 C 0.23303 0.24631 0.21007 0.0
C2735 C 0.21816 0.23444 0.22949 0.0
H2736 H 0.19465 0.22212 0.22498 0.0
N2737 N 0.24392 0.23712 0.26637 0.0
C2738 C 0.23094 0.23362 0.25592 0.0
C2739 C 0.21807 0.21873 0.27485 0.0
C2740 C 0.21761 0.22436 0.25994 0.0
C2741 C 0.24472 0.2309 0.28047 0.0
C2742 C 0.23173 0.22192 0.28511 0.0
O2743 O 0.29931 0.2776 0.27266 0.0
O2744 O 0.28925 0.26054 0.2505 0.0
O2745 O 0.27507 0.23019 0.26322 0.0
O2746 O 0.26321 0.22984 0.23954 0.0
O2747 O 0.26995 0.29071 0.25133 0.0
O2748 O 0.27371 0.26722 0.24 0.0
O2749 O 0.2491 0.261 0.27073 0.0
O2750 O 0.25532 0.28651 0.26752 0.0
O2751 O 0.28162 0.31693 0.27726 0.0
O2752 O 0.2756 0.30525 0.2978 0.0
O2753 O 0.27888 0.25367 0.28145 0.0
O2754 O 0.27102 0.27501 0.29245 0.0
C2755 C 0.30113 0.26815 0.26025 0.0
C2756 C 0.27118 0.2812 0.23884 0.0
C2757 C 0.28185 0.21425 0.24237 0.0
C2758 C 0.29649 0.19412 0.24515 0.0
C2759 C 0.29563 0.20618 0.22067 0.0
C2760 C 0.28608 0.21557 0.2269 0.0
C2761 C 0.30084 0.19545 0.22976 0.0
C2762 C 0.28717 0.20363 0.2514 0.0
C2763 C 0.27086 0.22263 0.2491 0.0
C2764 C 0.20449 0.2205 0.24877 0.0
C2765 C 0.20476 0.22553 0.23361 0.0
H2766 H 0.20808 0.21152 0.27833 0.0
C2767 C 0.24526 0.27455 0.27026 0.0
C2768 C 0.27524 0.26181 0.29375 0.0
C2769 C 0.2672 0.32863 0.29565 0.0
C2770 C 0.25228 0.34789 0.28884 0.0
C2771 C 0.25558 0.34191 0.31622 0.0
C2772 C 0.26441 0.33119 0.31164 0.0
C2773 C 0.24957 0.35026 0.30492 0.0
C2774 C 0.26113 0.33704 0.28423 0.0
C2775 C 0.27767 0.31823 0.2917 0.0
H2776 H 0.29875 0.20703 0.20869 0.0
H2777 H 0.28188 0.22361 0.21959 0.0
H2778 H 0.30785 0.18791 0.22465 0.0
H2779 H 0.2837 0.20246 0.26326 0.0
H2780 H 0.25364 0.34395 0.3286 0.0
H2781 H 0.26932 0.32508 0.32069 0.0
H2782 H 0.24316 0.35891 0.30884 0.0
H2783 H 0.26343 0.33536 0.2719 0.0
C2784 C 0.50832 0.55525 0.05115 0.0
C2785 C 0.53105 0.57251 0.0647 0.0
C2786 C 0.52366 0.56207 0.05155 0.0
C2787 C 0.52291 0.57574 0.07763 0.0
C2788 C 0.50002 0.55886 0.06393 0.0
C2789 C 0.50743 0.56897 0.07721 0.0
N2790 N 0.50131 0.54586 0.03791 0.0
C2791 C 0.48577 0.54086 0.03621 0.0
C2792 C 0.48435 0.55266 0.06276 0.0
C2793 C 0.47716 0.54379 0.04874 0.0
Gd2794 Gd 0.52922 0.49922 0.01475 0.0
Gd2795 Gd 0.51714 0.54183 0.01771 0.0
N2796 N 0.53132 0.55866 0.03893 0.0
C2797 C 0.54635 0.57954 0.06436 0.0
C2798 C 0.54595 0.56609 0.0381 0.0
C2799 C 0.55379 0.57637 0.05096 0.0
H2800 H 0.55157 0.56392 0.0276 0.0
H2801 H 0.56555 0.58186 0.05053 0.0
H2802 H 0.49297 0.48048 0.00228 0.0
H2803 H 0.47978 0.53505 0.02507 0.0
H2804 H 0.47908 0.46403 0.97858 0.0
H2805 H 0.55245 0.58757 0.07426 0.0
H2806 H 0.52841 0.58367 0.08788 0.0
H2807 H 0.56634 0.50561 0.00838 0.0
H2808 H 0.47759 0.55513 0.07233 0.0
H2809 H 0.4649 0.53952 0.0474 0.0
H2810 H 0.51788 0.45855 0.94401 0.0
H2811 H 0.50116 0.57193 0.08705 0.0
H2812 H 0.56957 0.48364 0.96203 0.0
H2813 H 0.58192 0.49959 0.98692 0.0
N2814 N 0.54521 0.49419 0.99531 0.0
C2815 C 0.53824 0.48491 0.98199 0.0
C2816 C 0.56072 0.49912 0.99736 0.0
C2817 C 0.56262 0.48646 0.97131 0.0
C2818 C 0.56963 0.49552 0.98532 0.0
C2819 C 0.54678 0.48091 0.96956 0.0
H2820 H 0.54568 0.46824 0.94621 0.0
N2821 N 0.51448 0.48353 0.99291 0.0
C2822 C 0.52248 0.47941 0.98077 0.0
C2823 C 0.49918 0.4644 0.96624 0.0
C2824 C 0.51498 0.46983 0.96705 0.0
C2825 C 0.49915 0.47793 0.99236 0.0
C2826 C 0.49126 0.4684 0.97899 0.0
O2827 O 0.53226 0.53582 0.03873 0.0
O2828 O 0.52253 0.51037 0.03732 0.0
O2829 O 0.524 0.47543 0.02074 0.0
O2830 O 0.54644 0.48991 0.02871 0.0
O2831 O 0.53867 0.53836 0.00678 0.0
O2832 O 0.54864 0.52015 0.02016 0.0
O2833 O 0.52524 0.51059 0.99183 0.0
O2834 O 0.50623 0.5239 0.99739 0.0
O2835 O 0.52369 0.55863 0.00019 0.0
O2836 O 0.50433 0.55951 0.01379 0.0
O2837 O 0.5063 0.50032 0.02378 0.0
O2838 O 0.49723 0.52115 0.01421 0.0
C2839 C 0.5303 0.52298 0.04543 0.0
C2840 C 0.5504 0.53282 0.01293 0.0
C2841 C 0.54281 0.46383 0.03649 0.0
C2842 C 0.53885 0.44061 0.05059 0.0
C2843 C 0.56421 0.45144 0.04401 0.0
C2844 C 0.55845 0.46309 0.03704 0.0
C2845 C 0.55455 0.44034 0.05074 0.0
C2846 C 0.53287 0.45239 0.04327 0.0
C2847 C 0.53747 0.4766 0.02866 0.0
C2848 C 0.52346 0.46591 0.95462 0.0
C2849 C 0.5393 0.47143 0.95587 0.0
H2850 H 0.49301 0.45698 0.95592 0.0
C2851 C 0.51382 0.51732 0.98706 0.0
C2852 C 0.49515 0.50783 0.02029 0.0
C2853 C 0.50674 0.5776 0.99446 0.0
C2854 C 0.5102 0.60078 0.98036 0.0
C2855 C 0.48511 0.58998 0.98753 0.0
C2856 C 0.49105 0.57826 0.99416 0.0
C2857 C 0.49458 0.60116 0.98078 0.0
C2858 C 0.5164 0.58897 0.98736 0.0
C2859 C 0.51265 0.56581 0.00355 0.0
H2860 H 0.57629 0.45101 0.04423 0.0
H2861 H 0.56628 0.47152 0.03188 0.0
H2862 H 0.55939 0.43145 0.05614 0.0
H2863 H 0.52077 0.45275 0.04301 0.0
H2864 H 0.47306 0.59038 0.98761 0.0
H2865 H 0.4833 0.56984 -0.00061 0.0
H2866 H 0.48962 0.6101 0.97561 0.0
H2867 H 0.52852 0.58875 0.98745 0.0
C2868 C 0.74103 0.23461 0.28816 0.0
C2869 C 0.7253 0.21697 0.26668 0.0
C2870 C 0.73853 0.2281 0.2722 0.0
C2871 C 0.71446 0.21265 0.27722 0.0
C2872 C 0.73017 0.23013 0.29873 0.0
C2873 C 0.71686 0.21924 0.29315 0.0
N2874 N 0.75417 0.24498 0.29341 0.0
C2875 C 0.75739 0.25068 0.30916 0.0
C2876 C 0.73309 0.23655 0.31471 0.0
C2877 C 0.74679 0.24678 0.31994 0.0
Gd2878 Gd 0.77624 0.29254 0.25715 0.0
Gd2879 Gd 0.77089 0.24955 0.27388 0.0
N2880 N 0.74894 0.23276 0.26203 0.0
C2881 C 0.72342 0.21039 0.25075 0.0
C2882 C 0.74766 0.22579 0.24682 0.0
C2883 C 0.73474 0.21469 0.24084 0.0
H2884 H 0.75683 0.22837 0.23954 0.0
H2885 H 0.73368 0.20926 0.22869 0.0
H2886 H 0.79082 0.3124 0.29215 0.0
H2887 H 0.76824 0.25794 0.3137 0.0
H2888 H 0.81455 0.33054 0.30342 0.0
H2889 H 0.71344 0.20174 0.2461 0.0
H2890 H 0.70421 0.20413 0.27318 0.0
H2891 H 0.77988 0.28284 0.21777 0.0
H2892 H 0.72501 0.23342 0.32318 0.0
H2893 H 0.74931 0.25145 0.33236 0.0
H2894 H 0.84456 0.33507 0.25933 0.0
H2895 H 0.70842 0.21568 0.30113 0.0
H2896 H 0.82379 0.30635 0.20906 0.0
H2897 H 0.79929 0.28873 0.1995 0.0
N2898 N 0.79376 0.29574 0.23821 0.0
C2899 C 0.80707 0.30578 0.24369 0.0
C2900 C 0.79078 0.28988 0.22249 0.0
C2901 C 0.81547 0.30346 0.21736 0.0
C2902 C 0.80167 0.29346 0.21192 0.0
C2903 C 0.81825 0.30988 0.23334 0.0
H2904 H 0.84041 0.32374 0.23131 0.0
N2905 N 0.79869 0.30804 0.26966 0.0
C2906 C 0.80951 0.31221 0.25971 0.0
C2907 C 0.82494 0.32926 0.28146 0.0
C2908 C 0.82304 0.32283 0.26547 0.0
C2909 C 0.80012 0.31474 0.28497 0.0
C2910 C 0.81338 0.32527 0.29121 0.0
O2911 O 0.74847 0.25748 0.26533 0.0
O2912 O 0.75154 0.27989 0.25252 0.0
O2913 O 0.76753 0.31296 0.26596 0.0
O2914 O 0.77273 0.3096 0.24156 0.0
O2915 O 0.77948 0.25767 0.25183 0.0
O2916 O 0.76672 0.27306 0.23857 0.0
O2917 O 0.79804 0.28285 0.26437 0.0
O2918 O 0.79445 0.26422 0.28213 0.0
O2919 O 0.78311 0.23215 0.26392 0.0
O2920 O 0.77436 0.23069 0.28688 0.0
O2921 O 0.7668 0.28607 0.2797 0.0
O2922 O 0.77904 0.26937 0.29235 0.0
C2923 C 0.74293 0.26802 0.25765 0.0
C2924 C 0.77058 0.25971 0.23952 0.0
C2925 C 0.75407 0.32488 0.24611 0.0
C2926 C 0.73794 0.34426 0.2491 0.0
C2927 C 0.73576 0.32801 0.224 0.0
C2928 C 0.74702 0.32053 0.23033 0.0
C2929 C 0.73121 0.33976 0.23331 0.0
C2930 C 0.74952 0.3369 0.25545 0.0
C2931 C 0.76732 0.31819 0.25205 0.0
C2932 C 0.83412 0.32687 0.25512 0.0
C2933 C 0.83175 0.32041 0.23914 0.0
H2934 H 0.83514 0.33754 0.28629 0.0
C2935 C 0.80335 0.27405 0.27457 0.0
C2936 C 0.77478 0.28265 0.29212 0.0
C2937 C 0.79562 0.21915 0.28335 0.0
C2938 C 0.80976 0.19809 0.2847 0.0
C2939 C 0.81325 0.21843 0.30679 0.0
C2940 C 0.80309 0.22581 0.2984 0.0
C2941 C 0.81623 0.20449 0.3002 0.0
C2942 C 0.79935 0.20552 0.2763 0.0
C2943 C 0.78211 0.22472 0.27648 0.0
H2944 H 0.73063 0.32477 0.21178 0.0
H2945 H 0.75041 0.31157 0.2227 0.0
H2946 H 0.72254 0.34551 0.2281 0.0
H2947 H 0.75502 0.3406 0.2675 0.0
H2948 H 0.81857 0.22333 0.31861 0.0
H2949 H 0.80047 0.23632 0.30404 0.0
H2950 H 0.82381 0.1988 0.30722 0.0
H2951 H 0.79354 0.20029 0.26474 0.0
C2952 C 0.05104 0.49892 0.55584 0.0
C2953 C 0.06373 0.52066 0.57458 0.0
C2954 C 0.05138 0.51354 0.56311 0.0
C2955 C 0.07596 0.51305 0.57809 0.0
C2956 C 0.06301 0.491 0.55967 0.0
C2957 C 0.07558 0.49823 0.57067 0.0
N2958 N 0.03905 0.49253 0.54479 0.0
C2959 C 0.03784 0.47792 0.5377 0.0
C2960 C 0.06201 0.47609 0.55223 0.0
C2961 C 0.04927 0.46946 0.54133 0.0
Gd2962 Gd 0.0236 0.53299 0.49426 0.0
Gd2963 Gd 0.02173 0.50821 0.53712 0.0
N2964 N 0.03949 0.52067 0.55915 0.0
C2965 C 0.06332 0.53512 0.58231 0.0
C2966 C 0.0385 0.53421 0.56766 0.0
C2967 C 0.05049 0.54176 0.57909 0.0
H2968 H 0.02847 0.53929 0.56599 0.0
H2969 H 0.04977 0.55267 0.58547 0.0
H2970 H 0.01878 0.50372 0.4645 0.0
H2971 H 0.02816 0.4728 0.52906 0.0
H2972 H 0.99955 0.4922 0.44188 0.0
H2973 H 0.07261 0.54101 0.59114 0.0
H2974 H 0.08564 0.51843 0.58669 0.0
H2975 H 0.01683 0.5685 0.50437 0.0
H2976 H 0.07095 0.4696 0.55486 0.0
H2977 H 0.04833 0.45791 0.53557 0.0
H2978 H 0.96589 0.52844 0.43776 0.0
H2979 H 0.085 0.49242 0.57361 0.0
H2980 H 0.97723 0.57424 0.47463 0.0
H2981 H 0.99759 0.58403 0.49699 0.0
N2982 N 0.00726 0.54976 0.48669 0.0
C2983 C 0.99658 0.5445 0.47392 0.0
C2984 C 0.00793 0.56394 0.49471 0.0
C2985 C 0.98565 0.56733 0.47782 0.0
C2986 C 0.9971 0.57287 0.49047 0.0
C2987 C 0.98536 0.55305 0.46926 0.0
H2988 H 0.96547 0.55344 0.45259 0.0
N2989 N 0.00784 0.52253 0.47039 0.0
C2990 C 0.99686 0.53045 0.46552 0.0
C2991 C 0.98662 0.5104 0.44401 0.0
C2992 C 0.98585 0.52452 0.45232 0.0
C2993 C 0.0093 0.50933 0.46162 0.0
C2994 C 0.99856 0.5029 0.44853 0.0
O2995 O 0.04475 0.51322 0.52896 0.0
O2996 O 0.037 0.53247 0.51777 0.0
O2997 O 0.04266 0.53226 0.48024 0.0
O2998 O 0.03772 0.55409 0.48974 0.0
O2999 O 0.01665 0.5328 0.54013 0.0
O3000 O 0.0213 0.54697 0.51805 0.0
O3001 O 0.99918 0.52322 0.4965 0.0
O3002 O 0.01261 0.51552 0.51529 0.0
O3003 O 0.00328 0.50862 0.55183 0.0
O3004 O 0.00688 0.48694 0.5405 0.0
O3005 O 0.02779 0.50779 0.49205 0.0
O3006 O 0.02007 0.49321 0.51316 0.0
C3007 C 0.04731 0.52401 0.51974 0.0
C3008 C 0.01766 0.54558 0.53288 0.0
C3009 C 0.05032 0.55405 0.46654 0.0
C3010 C 0.05738 0.55175 0.43954 0.0
C3011 C 0.05941 0.57694 0.45417 0.0
C3012 C 0.05413 0.5701 0.46723 0.0
C3013 C 0.06109 0.56783 0.44039 0.0
C3014 C 0.05195 0.5449 0.45264 0.0
C3015 C 0.04619 0.54717 0.48095 0.0
C3016 C 0.97451 0.53287 0.4478 0.0
C3017 C 0.97426 0.5471 0.45625 0.0
H3018 H 0.9783 0.50538 0.4339 0.0
C3019 C 0.9991 0.51582 0.50875 0.0
C3020 C 0.02491 0.49469 0.4988 0.0
C3021 C 0.99954 0.48775 0.56667 0.0
C3022 C 0.99169 0.48989 0.59325 0.0
C3023 C 0.00712 0.47111 0.58589 0.0
C3024 C 0.00732 0.47595 0.57067 0.0
C3025 C 0.99927 0.47802 0.59718 0.0
C3026 C 0.99178 0.49466 0.57806 0.0
C3027 C 0.99999 0.49374 0.55115 0.0
H3028 H 0.06251 0.5893 0.45484 0.0
H3029 H 0.0533 0.57736 0.478 0.0
H3030 H 0.0657 0.57337 0.43056 0.0
H3031 H 0.04928 0.53249 0.45206 0.0
H3032 H 0.0131 0.46204 0.58896 0.0
H3033 H 0.01361 0.47057 0.56214 0.0
H3034 H 0.99919 0.47421 0.60896 0.0
H3035 H 0.98579 0.50381 0.57512 0.0
C3036 C 0.73603 0.78522 0.23296 0.0
C3037 C 0.72075 0.76191 0.21831 0.0
C3038 C 0.73055 0.76949 0.23187 0.0
C3039 C 0.71675 0.77028 0.20582 0.0
C3040 C 0.73194 0.79365 0.22045 0.0
C3041 C 0.72238 0.78608 0.20685 0.0
N3042 N 0.74538 0.79227 0.2462 0.0
C3043 C 0.75002 0.80782 0.24821 0.0
C3044 C 0.73751 0.80948 0.22203 0.0
C3045 C 0.74644 0.81662 0.23605 0.0
Gd3046 Gd 0.79531 0.7659 0.2681 0.0
Gd3047 Gd 0.75168 0.77615 0.26514 0.0
N3048 N 0.73514 0.76154 0.24382 0.0
C3049 C 0.71549 0.74609 0.21758 0.0
C3050 C 0.7298 0.74617 0.24331 0.0
C3051 C 0.71997 0.73821 0.23018 0.0
H3052 H 0.7329 0.74 0.25307 0.0
H3053 H 0.71581 0.726 0.2298 0.0
H3054 H 0.81646 0.80046 0.27946 0.0
H3055 H 0.75629 0.81355 0.25926 0.0
H3056 H 0.8338 0.8141 0.30305 0.0
H3057 H 0.70795 0.73985 0.20738 0.0
H3058 H 0.70934 0.76462 0.19527 0.0
H3059 H 0.79118 0.72797 0.27311 0.0
H3060 H 0.73472 0.81634 0.21264 0.0
H3061 H 0.75044 0.82891 0.23758 0.0
H3062 H 0.83445 0.7761 0.33957 0.0
H3063 H 0.7192 0.79237 0.1971 0.0
H3064 H 0.80932 0.72466 0.32084 0.0
H3065 H 0.79597 0.71234 0.29469 0.0
N3066 N 0.79965 0.74935 0.28745 0.0
C3067 C 0.80798 0.7563 0.30136 0.0
C3068 C 0.79604 0.73369 0.28474 0.0
C3069 C 0.8067 0.73171 0.31158 0.0
C3070 C 0.7991 0.7247 0.29687 0.0
C3071 C 0.81168 0.74764 0.31381 0.0
H3072 H 0.82375 0.74851 0.33743 0.0
N3073 N 0.81081 0.77996 0.29026 0.0
C3074 C 0.81399 0.77195 0.30267 0.0
C3075 C 0.83076 0.79463 0.31652 0.0
C3076 C 0.82386 0.7792 0.3163 0.0
C3077 C 0.81831 0.79467 0.28992 0.0
C3078 C 0.82815 0.80233 0.30318 0.0
O3079 O 0.76213 0.77095 0.24173 0.0
O3080 O 0.77837 0.75407 0.24734 0.0
O3081 O 0.81105 0.77357 0.25058 0.0
O3082 O 0.8159 0.75657 0.26566 0.0
O3083 O 0.75399 0.75329 0.27344 0.0
O3084 O 0.77548 0.74493 0.26455 0.0
O3085 O 0.78852 0.78116 0.28846 0.0
O3086 O 0.7638 0.76946 0.28718 0.0
O3087 O 0.72855 0.76978 0.27219 0.0
O3088 O 0.7425 0.79199 0.28109 0.0
O3089 O 0.78996 0.78639 0.25642 0.0
O3090 O 0.77187 0.79642 0.26967 0.0
C3091 C 0.77064 0.7609 0.23709 0.0
C3092 C 0.7618 0.7424 0.26993 0.0
C3093 C 0.82874 0.75745 0.24236 0.0
C3094 C 0.85142 0.75781 0.22771 0.0
C3095 C 0.83319 0.73404 0.22796 0.0
C3096 C 0.82426 0.74168 0.23741 0.0
C3097 C 0.84669 0.74198 0.22325 0.0
C3098 C 0.84234 0.76558 0.2373 0.0
C3099 C 0.82067 0.76483 0.25466 0.0
C3100 C 0.82697 0.77071 0.32896 0.0
C3101 C 0.82086 0.75499 0.32775 0.0
H3102 H 0.83847 0.80057 0.32674 0.0
C3103 C 0.77588 0.77818 0.29528 0.0
C3104 C 0.78471 0.79818 0.26276 0.0
C3105 C 0.71559 0.78843 0.28497 0.0
C3106 C 0.69228 0.78702 0.29886 0.0
C3107 C 0.7014 0.8093 0.28536 0.0
C3108 C 0.71368 0.80284 0.28067 0.0
C3109 C 0.69088 0.80156 0.29444 0.0
C3110 C 0.70467 0.7804 0.29395 0.0
C3111 C 0.72967 0.78241 0.28164 0.0
H3112 H 0.82978 0.72181 0.22448 0.0
H3113 H 0.81409 0.73514 0.24128 0.0
H3114 H 0.85352 0.73572 0.21611 0.0
H3115 H 0.84612 0.7777 0.24128 0.0
H3116 H 0.70013 0.82052 0.28213 0.0
H3117 H 0.72186 0.80926 0.27395 0.0
H3118 H 0.68159 0.80697 0.29809 0.0
H3119 H 0.70614 0.76937 0.29758 0.0
C3120 C 0.79571 0.24429 0.72402 0.0
C3121 C 0.7737 0.22949 0.70701 0.0
C3122 C 0.78042 0.24231 0.71815 0.0
C3123 C 0.78252 0.21866 0.70221 0.0
C3124 C 0.80474 0.23364 0.71896 0.0
C3125 C 0.79802 0.22073 0.70818 0.0
N3126 N 0.80179 0.25665 0.73471 0.0
C3127 C 0.81702 0.25955 0.74018 0.0
C3128 C 0.82027 0.23626 0.72494 0.0
C3129 C 0.82647 0.24939 0.73545 0.0
Gd3130 Gd 0.7619 0.27336 0.78759 0.0
Gd3131 Gd 0.78495 0.27177 0.7445 0.0
N3132 N 0.77207 0.25272 0.72355 0.0
C3133 C 0.75824 0.22779 0.70119 0.0
C3134 C 0.757 0.25116 0.71749 0.0
C3135 C 0.74992 0.23877 0.70634 0.0
H3136 H 0.75007 0.2592 0.72104 0.0
H3137 H 0.73795 0.23764 0.70181 0.0
H3138 H 0.79828 0.29026 0.80442 0.0
H3139 H 0.82188 0.26961 0.74841 0.0
H3140 H 0.81064 0.31137 0.82433 0.0
H3141 H 0.75265 0.21811 0.69269 0.0
H3142 H 0.77748 0.20867 0.69386 0.0
H3143 H 0.72535 0.27715 0.78202 0.0
H3144 H 0.82757 0.22833 0.7214 0.0
H3145 H 0.8385 0.25162 0.74004 0.0
H3146 H 0.76978 0.33629 0.83861 0.0
H3147 H 0.80472 0.21232 0.70433 0.0
H3148 H 0.71959 0.31701 0.81135 0.0
H3149 H 0.70883 0.29493 0.79111 0.0
N3150 N 0.74526 0.28912 0.79667 0.0
C3151 C 0.75134 0.30099 0.80805 0.0
C3152 C 0.73018 0.28682 0.7907 0.0
C3153 C 0.72686 0.3092 0.80743 0.0
C3154 C 0.72077 0.29679 0.79595 0.0
C3155 C 0.74231 0.31145 0.81363 0.0
H3156 H 0.74228 0.33218 0.82921 0.0
N3157 N 0.77551 0.29377 0.80662 0.0
C3158 C 0.76687 0.30328 0.81338 0.0
C3159 C 0.78958 0.3188 0.82862 0.0
C3160 C 0.77372 0.31615 0.82436 0.0
C3161 C 0.7911 0.2968 0.81035 0.0
C3162 C 0.79829 0.30913 0.8215 0.0
O3163 O 0.77968 0.24942 0.75389 0.0
O3164 O 0.76012 0.25698 0.76525 0.0
O3165 O 0.76435 0.25845 0.80596 0.0
O3166 O 0.74171 0.25929 0.79445 0.0
O3167 O 0.76059 0.27746 0.74174 0.0
O3168 O 0.74657 0.27318 0.76396 0.0
O3169 O 0.76911 0.2971 0.78177 0.0
O3170 O 0.77834 0.28173 0.76613 0.0
O3171 O 0.78366 0.2892 0.72875 0.0
O3172 O 0.80523 0.28877 0.74269 0.0
O3173 O 0.78607 0.2668 0.78972 0.0
O3174 O 0.80048 0.27142 0.76777 0.0
C3175 C 0.76873 0.24673 0.76303 0.0
C3176 C 0.74774 0.27641 0.74892 0.0
C3177 C 0.74316 0.25104 0.82031 0.0
C3178 C 0.7453 0.24006 0.84522 0.0
C3179 C 0.72142 0.2473 0.83573 0.0
C3180 C 0.72788 0.25219 0.82225 0.0
C3181 C 0.7301 0.24118 0.84721 0.0
C3182 C 0.7518 0.24501 0.8319 0.0
C3183 C 0.74958 0.25366 0.80534 0.0
C3184 C 0.76469 0.32634 0.83022 0.0
C3185 C 0.74903 0.32402 0.82484 0.0
H3186 H 0.79525 0.32856 0.83699 0.0
C3187 C 0.77715 0.2957 0.77023 0.0
C3188 C 0.79897 0.26765 0.78258 0.0
C3189 C 0.80623 0.29765 0.71721 0.0
C3190 C 0.80522 0.30462 0.6901 0.0
C3191 C 0.82946 0.3018 0.7042 0.0
C3192 C 0.82209 0.29816 0.71753 0.0
C3193 C 0.82116 0.30518 0.69062 0.0
C3194 C 0.79788 0.30073 0.70342 0.0
C3195 C 0.79832 0.29481 0.73136 0.0
H3196 H 0.70961 0.24797 0.83713 0.0
H3197 H 0.72083 0.25644 0.81321 0.0
H3198 H 0.72493 0.23713 0.85747 0.0
H3199 H 0.76344 0.24361 0.83032 0.0
H3200 H 0.84172 0.30236 0.70453 0.0
H3201 H 0.82882 0.29596 0.7281 0.0
H3202 H 0.82731 0.30859 0.68071 0.0
H3203 H 0.78562 0.3002 0.70312 0.0
C3204 C 0.8158 0.80416 0.79138 0.0
C3205 C 0.82965 0.8159 0.7709 0.0
C3206 C 0.81623 0.80734 0.77558 0.0
C3207 C 0.84254 0.82115 0.78217 0.0
C3208 C 0.82879 0.8094 0.80269 0.0
C3209 C 0.84212 0.81791 0.79801 0.0
N3210 N 0.80263 0.7962 0.79576 0.0
C3211 C 0.80169 0.79319 0.81119 0.0
C3212 C 0.82794 0.80615 0.81848 0.0
C3213 C 0.81434 0.79799 0.82273 0.0
Gd3214 Gd 0.76551 0.74962 0.75563 0.0
Gd3215 Gd 0.78159 0.79126 0.77599 0.0
N3216 N 0.80348 0.80232 0.76489 0.0
C3217 C 0.82961 0.81927 0.75508 0.0
C3218 C 0.80318 0.80632 0.74972 0.0
C3219 C 0.81629 0.81452 0.74448 0.0
H3220 H 0.79276 0.8039 0.7418 0.0
H3221 H 0.81597 0.81756 0.73239 0.0
H3222 H 0.75475 0.7357 0.78917 0.0
H3223 H 0.79101 0.78779 0.81486 0.0
H3224 H 0.73186 0.72117 0.79822 0.0
H3225 H 0.83967 0.82586 0.75105 0.0
H3226 H 0.85288 0.82786 0.77879 0.0
H3227 H 0.75615 0.75353 0.71691 0.0
H3228 H 0.83765 0.81005 0.82752 0.0
H3229 H 0.81347 0.7957 0.83498 0.0
H3230 H 0.69408 0.71348 0.75267 0.0
H3231 H 0.85214 0.82215 0.80658 0.0
H3232 H 0.70924 0.73217 0.70429 0.0
H3233 H 0.73363 0.74608 0.69688 0.0
N3234 N 0.7444 0.74525 0.736 0.0
C3235 C 0.73117 0.73738 0.74033 0.0
C3236 C 0.74539 0.74834 0.7206 0.0
C3237 C 0.71898 0.73587 0.71333 0.0
C3238 C 0.73269 0.74381 0.7091 0.0
C3239 C 0.71811 0.73246 0.72906 0.0
H3240 H 0.69465 0.71999 0.72514 0.0
N3241 N 0.74368 0.73837 0.7666 0.0
C3242 C 0.73081 0.73381 0.75601 0.0
C3243 C 0.71771 0.72092 0.77612 0.0
C3244 C 0.71743 0.72508 0.76058 0.0
C3245 C 0.7442 0.73367 0.78146 0.0
C3246 C 0.73123 0.72507 0.78652 0.0
O3247 O 0.79983 0.77649 0.77201 0.0
O3248 O 0.78964 0.7592 0.75008 0.0
O3249 O 0.77145 0.72817 0.76165 0.0
O3250 O 0.76415 0.73092 0.73708 0.0
O3251 O 0.76916 0.78826 0.75082 0.0
O3252 O 0.77523 0.76616 0.73934 0.0
O3253 O 0.74742 0.76458 0.75975 0.0
O3254 O 0.75766 0.78145 0.78197 0.0
O3255 O 0.7748 0.81228 0.76953 0.0
O3256 O 0.78333 0.81039 0.79402 0.0
O3257 O 0.77778 0.7525 0.7809 0.0
O3258 O 0.77213 0.77479 0.79253 0.0
C3259 C 0.80156 0.76698 0.75969 0.0
C3260 C 0.77142 0.77955 0.73817 0.0
C3261 C 0.78123 0.71403 0.74144 0.0
C3262 C 0.7957 0.69399 0.74545 0.0
C3263 C 0.7982 0.70755 0.72209 0.0
C3264 C 0.78774 0.71643 0.72715 0.0
C3265 C 0.8022 0.6963 0.73122 0.0
C3266 C 0.78529 0.70281 0.7505 0.0
C3267 C 0.76944 0.72217 0.74677 0.0
C3268 C 0.7044 0.72028 0.74938 0.0
C3269 C 0.70474 0.72397 0.73368 0.0
H3270 H 0.70774 0.71405 0.78001 0.0
C3271 C 0.7457 0.77376 0.77235 0.0
C3272 C 0.7755 0.76119 0.79358 0.0
C3273 C 0.76664 0.82774 0.79015 0.0
C3274 C 0.75421 0.84935 0.78694 0.0
C3275 C 0.755 0.83872 0.81221 0.0
C3276 C 0.76283 0.8277 0.80592 0.0
C3277 C 0.7511 0.84983 0.80287 0.0
C3278 C 0.76185 0.83829 0.78057 0.0
C3279 C 0.7776 0.8188 0.78424 0.0
H3280 H 0.80304 0.70923 0.71099 0.0
H3281 H 0.78462 0.72497 0.71981 0.0
H3282 H 0.81004 0.6892 0.72706 0.0
H3283 H 0.78007 0.70067 0.76137 0.0
H3284 H 0.75245 0.83898 0.82447 0.0
H3285 H 0.76645 0.81964 0.8136 0.0
H3286 H 0.74582 0.85887 0.80806 0.0
H3287 H 0.76492 0.83857 0.76847 0.0
C3288 C 0.49038 0.47877 0.48642 0.0
C3289 C 0.47528 0.46429 0.5043 0.0
C3290 C 0.48482 0.47784 0.50119 0.0
C3291 C 0.47186 0.45155 0.49261 0.0
C3292 C 0.48688 0.46599 0.47464 0.0
C3293 C 0.47778 0.45234 0.4779 0.0
N3294 N 0.49852 0.49239 0.48329 0.0
C3295 C 0.50298 0.4941 0.46846 0.0
C3296 C 0.4921 0.4675 0.45968 0.0
C3297 C 0.5001 0.48165 0.45656 0.0
Gd3298 Gd 0.54291 0.52698 0.52674 0.0
Gd3299 Gd 0.5015 0.51273 0.50378 0.0
N3300 N 0.48779 0.49056 0.51203 0.0
C3301 C 0.46874 0.46424 0.51871 0.0
C3302 C 0.48013 0.49102 0.52517 0.0
C3303 C 0.47097 0.47777 0.52908 0.0
H3304 H 0.48038 0.50182 0.53212 0.0
H3305 H 0.46517 0.47817 0.53975 0.0
H3306 H 0.55851 0.53684 0.4934 0.0
H3307 H 0.5082 0.50519 0.46551 0.0
H3308 H 0.57157 0.5598 0.4832 0.0
H3309 H 0.4613 0.45408 0.52153 0.0
H3310 H 0.4642 0.4412 0.49458 0.0
H3311 H 0.54141 0.53658 0.56575 0.0
H3312 H 0.48959 0.45796 0.45032 0.0
H3313 H 0.50371 0.48307 0.44485 0.0
H3314 H 0.58287 0.59711 0.5291 0.0
H3315 H 0.47482 0.44247 0.46893 0.0
H3316 H 0.56487 0.58297 0.57811 0.0
H3317 H 0.55035 0.55901 0.58589 0.0
N3318 N 0.54961 0.54807 0.54648 0.0
C3319 C 0.55775 0.56105 0.54198 0.0
C3320 C 0.54704 0.54721 0.56205 0.0
C3321 C 0.56057 0.57329 0.56912 0.0
C3322 C 0.55235 0.55981 0.57355 0.0
C3323 C 0.56348 0.57401 0.55322 0.0
H3324 H 0.57697 0.59706 0.55688 0.0
N3325 N 0.55581 0.54828 0.51579 0.0
C3326 C 0.56085 0.56119 0.52619 0.0
C3327 C 0.57318 0.57396 0.50554 0.0
C3328 C 0.5698 0.57432 0.52135 0.0
C3329 C 0.56033 0.54751 0.50083 0.0
C3330 C 0.56848 0.56044 0.49526 0.0
O3331 O 0.51568 0.49407 0.50843 0.0
O3332 O 0.53051 0.50373 0.532 0.0
O3333 O 0.56365 0.51843 0.52136 0.0
O3334 O 0.55966 0.52491 0.54605 0.0
O3335 O 0.50238 0.52263 0.52983 0.0
O3336 O 0.52536 0.51942 0.54301 0.0
O3337 O 0.5289 0.54604 0.52333 0.0
O3338 O 0.51285 0.53697 0.50014 0.0
O3339 O 0.48044 0.5201 0.50879 0.0
O3340 O 0.48383 0.5127 0.48441 0.0
O3341 O 0.54017 0.51493 0.50129 0.0
O3342 O 0.5195 0.52318 0.4894 0.0
C3343 C 0.52388 0.49204 0.52157 0.0
C3344 C 0.51137 0.52209 0.54298 0.0
C3345 C 0.58313 0.51595 0.54282 0.0
C3346 C 0.60498 0.50393 0.5388 0.0
C3347 C 0.60152 0.51445 0.5654 0.0
C3348 C 0.58817 0.51897 0.55925 0.0
C3349 C 0.60989 0.50688 0.55524 0.0
C3350 C 0.59166 0.50857 0.53261 0.0
C3351 C 0.56861 0.51978 0.53653 0.0
C3352 C 0.57557 0.58717 0.53253 0.0
C3353 C 0.57233 0.58708 0.54838 0.0
H3354 H 0.57989 0.58385 0.50132 0.0
C3355 C 0.5201 0.54841 0.51069 0.0
C3356 C 0.53244 0.51838 0.48855 0.0
C3357 C 0.46713 0.5303 0.48828 0.0
C3358 C 0.4466 0.5444 0.49144 0.0
C3359 C 0.46023 0.54624 0.46805 0.0
C3360 C 0.46941 0.53625 0.4737 0.0
C3361 C 0.44869 0.55017 0.4768 0.0
C3362 C 0.4559 0.53466 0.4972 0.0
C3363 C 0.47495 0.51832 0.49376 0.0
H3364 H 0.60537 0.51678 0.57805 0.0
H3365 H 0.58175 0.5247 0.56738 0.0
H3366 H 0.6203 0.50353 0.56017 0.0
H3367 H 0.5878 0.50611 0.51994 0.0
H3368 H 0.46182 0.55064 0.45672 0.0
H3369 H 0.47798 0.53295 0.46652 0.0
H3370 H 0.44133 0.55755 0.47212 0.0
H3371 H 0.45382 0.52983 0.50828 0.0
C3372 C 0.05952 0.55232 0.99218 0.0
C3373 C 0.07678 0.56852 0.01357 0.0
C3374 C 0.066 0.55501 0.00813 0.0
C3375 C 0.08097 0.57926 0.0029 0.0
C3376 C 0.06375 0.56312 0.98148 0.0
C3377 C 0.07447 0.57658 0.98692 0.0
N3378 N 0.04911 0.53921 0.98715 0.0
C3379 C 0.04298 0.53591 0.97157 0.0
C3380 C 0.05717 0.56001 0.96555 0.0
C3381 C 0.04682 0.54631 0.96058 0.0
Gd3382 Gd 1.0028 0.51938 0.02476 0.0
Gd3383 Gd 0.04489 0.52242 0.00648 0.0
N3384 N 0.06168 0.54449 0.01834 0.0
C3385 C 0.08313 0.57077 0.02958 0.0
C3386 C 0.0681 0.54641 0.03378 0.0
C3387 C 0.07881 0.55964 0.03968 0.0
H3388 H 0.0653 0.53763 0.04141 0.0
H3389 H 0.08386 0.56111 0.05194 0.0
H3390 H 0.98093 0.50687 0.99019 0.0
H3391 H 0.03548 0.5251 0.96742 0.0
H3392 H 0.96087 0.48463 0.97887 0.0
H3393 H 0.0915 0.58097 0.0342 0.0
H3394 H 0.08927 0.58968 0.00687 0.0
H3395 H 0.01126 0.51482 0.06361 0.0
H3396 H 0.06017 0.56799 0.95695 0.0
H3397 H 0.042 0.54362 0.94824 0.0
H3398 H 0.9538 0.4543 0.02252 0.0
H3399 H 0.07788 0.58497 0.97884 0.0
H3400 H 0.9843 0.47253 0.07256 0.0
H3401 H 0.00384 0.49577 0.08203 0.0
N3402 N 0.99714 0.50198 0.04348 0.0
C3403 C 0.98587 0.4896 0.03819 0.0
C3404 C 0.0033 0.50444 0.05909 0.0
C3405 C 0.98776 0.48072 0.0643 0.0
C3406 C 0.99886 0.49378 0.06967 0.0
C3407 C 0.981 0.47856 0.04845 0.0
H3408 H 0.96562 0.45722 0.05035 0.0
N3409 N 0.98418 0.49863 0.01271 0.0
C3410 C 0.97905 0.48799 0.02247 0.0
C3411 C 0.96096 0.474 0.00072 0.0
C3412 C 0.96739 0.47528 0.01665 0.0
C3413 C 0.97754 0.49781 0.99741 0.0
C3414 C 0.96599 0.48537 0.9911 0.0
O3415 O 0.03509 0.54458 0.01105 0.0
O3416 O 0.02048 0.54131 0.0321 0.0
O3417 O 0.98448 0.53194 0.01714 0.0
O3418 O 0.98897 0.52722 0.04193 0.0
O3419 O 0.04066 0.51327 0.02964 0.0
O3420 O 0.02386 0.52585 0.0421 0.0
O3421 O 0.00816 0.49601 0.01532 0.0
O3422 O 0.03245 0.49821 0.0066 0.0
O3423 O 0.06697 0.51532 0.01273 0.0
O3424 O 0.05614 0.51237 0.98793 0.0
O3425 O 0.00812 0.52763 0.00157 0.0
O3426 O 0.02389 0.51349 0.98968 0.0
C3427 C 0.02816 0.55021 0.02281 0.0
C3428 C 0.03652 0.5203 0.04225 0.0
C3429 C 0.96871 0.5414 0.03719 0.0
C3430 C 0.94693 0.5542 0.03243 0.0
C3431 C 0.95661 0.55136 0.05951 0.0
C3432 C 0.96774 0.54387 0.05372 0.0
C3433 C 0.94625 0.5565 0.04895 0.0
C3434 C 0.9582 0.54664 0.02647 0.0
C3435 C 0.98082 0.53339 0.03172 0.0
C3436 C 0.96268 0.46419 0.0268 0.0
C3437 C 0.96945 0.46583 0.04265 0.0
H3438 H 0.95202 0.46436 0.99578 0.0
C3439 C 0.01948 0.49005 0.00974 0.0
C3440 C 0.01136 0.51919 0.98939 0.0
C3441 C 0.08 0.5031 0.99194 0.0
C3442 C 0.1017 0.48996 0.99599 0.0
C3443 C 0.09137 0.49298 0.96916 0.0
C3444 C 0.08053 0.50066 0.97535 0.0
C3445 C 0.10188 0.48767 0.97938 0.0
C3446 C 0.09068 0.49765 0.00233 0.0
C3447 C 0.06743 0.51014 0.99784 0.0
H3448 H 0.95599 0.55318 0.07224 0.0
H3449 H 0.97564 0.54005 0.06229 0.0
H3450 H 0.93762 0.56226 0.05368 0.0
H3451 H 0.95871 0.54483 0.01371 0.0
H3452 H 0.09157 0.49108 0.95637 0.0
H3453 H 0.07243 0.50454 0.96706 0.0
H3454 H 0.1102 0.48168 0.97431 0.0
H3455 H 0.09036 0.49925 0.01514 0.0
H3456 H 0.98359 0.18103 0.97853 0.0
H3457 H 0.98566 0.15623 0.98798 0.0
H3458 H 0.03132 0.16042 0.97396 0.0
H3459 H 0.02914 0.18475 0.96397 0.0
H3460 H 0.01718 0.1332 0.96428 0.0
H3461 H 0.02222 0.16403 0.01455 0.0
H3462 H 0.01536 0.18118 0.03618 0.0
H3463 H 0.9748 0.1482 0.03993 0.0
H3464 H 0.98127 0.13095 0.01813 0.0
H3465 H 0.04062 0.07086 0.00011 0.0
H3466 H 0.0378 0.09637 0.99364 0.0
H3467 H 0.99142 0.08824 0.00587 0.0
H3468 H 0.99437 0.0627 0.01284 0.0
H3469 H 0.00498 0.1172 0.01682 0.0
H3470 H 1.00034 0.08653 0.96637 0.0
H3471 H 0.00759 0.06957 0.94481 0.0
H3472 H 0.04807 0.1029 0.94168 0.0
H3473 H 0.04121 0.11994 0.96343 0.0
C3474 C 0.99409 0.1767 0.97737 0.0
C3475 C 0.00617 0.18518 0.97035 0.0
C3476 C 0.99534 0.16249 0.98302 0.0
C3477 C 0.00872 0.15623 0.9819 0.0
C3478 C 0.02083 0.16478 0.97508 0.0
C3479 C 0.0196 0.17893 0.96945 0.0
C3480 C 0.00994 0.1405 0.98681 0.0
C3481 C 0.01472 0.12988 0.97591 0.0
C3482 C 0.00631 0.13568 0.00179 0.0
C3483 C 1.00212 0.14629 0.01451 0.0
C3484 C 0.01172 0.16052 0.01981 0.0
C3485 C 0.00793 0.17024 0.03215 0.0
C3486 C 0.99462 0.16581 0.03938 0.0
C3487 C 0.98508 0.15164 0.03428 0.0
C3488 C 0.9888 0.1419 0.02193 0.0
C3489 C 0.02987 0.07447 0.00169 0.0
C3490 C 0.01783 0.06455 0.00725 0.0
C3491 C 0.02818 0.08914 0.99775 0.0
C3492 C 0.01431 0.09444 -0.00097 0.0
C3493 C 1.00228 0.08462 0.00473 0.0
C3494 C 0.00398 0.06991 0.00868 0.0
C3495 C 0.01239 0.11006 0.99432 0.0
C3496 C 0.00744 0.12059 0.00522 0.0
C3497 C 0.01594 0.1149 0.97935 0.0
C3498 C 0.02035 0.10442 0.96668 0.0
C3499 C 0.01089 0.09015 0.96124 0.0
C3500 C 0.01491 0.08054 0.94895 0.0
C3501 C 0.0283 0.08513 0.94191 0.0
C3502 C 0.03772 0.09934 0.94717 0.0
C3503 C 0.03378 0.10896 0.95948 0.0
H3504 H 0.03136 0.0777 0.93236 0.0
H3505 H 0.99174 0.17333 0.04897 0.0
H3506 H 0.11129 0.76718 0.17614 0.0
H3507 H 0.13503 0.76684 0.19317 0.0
H3508 H 0.15916 0.80268 0.16918 0.0
H3509 H 0.13536 0.8032 0.15222 0.0
H3510 H 0.17528 0.77891 0.17221 0.0
H3511 H 0.15196 0.81101 0.20653 0.0
H3512 H 0.13181 0.81893 0.22167 0.0
H3513 H 0.13145 0.78018 0.24826 0.0
H3514 H 0.15147 0.7719 0.23312 0.0
H3515 H 0.2451 0.78956 0.22434 0.0
H3516 H 0.22188 0.79327 0.20862 0.0
H3517 H 0.19421 0.76382 0.23669 0.0
H3518 H 0.21745 0.76043 0.25274 0.0
H3519 H 0.18008 0.78577 0.23139 0.0
H3520 H 0.20276 0.75302 0.19597 0.0
H3521 H 0.22292 0.74534 0.18064 0.0
H3522 H 0.22441 0.78539 0.1559 0.0
H3523 H 0.20435 0.79338 0.17118 0.0
C3524 C 0.12162 0.77503 0.17447 0.0
C3525 C 0.12128 0.7852 0.16269 0.0
C3526 C 0.13524 0.77489 0.18434 0.0
C3527 C 0.14905 0.78476 0.18262 0.0
C3528 C 0.14876 0.79493 0.17086 0.0
C3529 C 0.13506 0.79528 0.16118 0.0
C3530 C 0.1638 0.78407 0.1927 0.0
C3531 C 0.17637 0.78063 0.18515 0.0
C3532 C 0.16533 0.78599 0.20965 0.0
C3533 C 0.15307 0.79073 0.21855 0.0
C3534 C 0.14745 0.80407 0.21547 0.0
C3535 C 0.13609 0.80865 0.22409 0.0
C3536 C 0.13032 0.80003 0.23588 0.0
C3537 C 0.13591 0.78682 0.2391 0.0
C3538 C 0.14727 0.78219 0.23051 0.0
C3539 C 0.23409 0.78382 0.2272 0.0
C3540 C 0.23331 0.77463 0.2399 0.0
C3541 C 0.2207 0.78589 0.21806 0.0
C3542 C 0.20603 0.7786 0.22106 0.0
C3543 C 0.20524 0.76961 0.23393 0.0
C3544 C 0.21863 0.76766 0.24318 0.0
C3545 C 0.19157 0.78033 0.21092 0.0
C3546 C 0.17903 0.78401 0.21845 0.0
C3547 C 0.19006 0.7786 0.19393 0.0
C3548 C 0.20219 0.77388 0.18485 0.0
C3549 C 0.20749 0.76025 0.18736 0.0
C3550 C 0.21888 0.75584 0.17867 0.0
C3551 C 0.22499 0.76491 0.16737 0.0
C3552 C 0.21969 0.77839 0.16469 0.0
C3553 C 0.2083 0.78287 0.17335 0.0
H3554 H 0.2338 0.76146 0.16065 0.0
H3555 H 0.12154 0.80361 0.24256 0.0
H3556 H 0.52411 0.85175 0.45192 0.0
H3557 H 0.52601 0.87881 0.46113 0.0
H3558 H 0.50321 0.86665 0.50212 0.0
H3559 H 0.50095 0.83937 0.49267 0.0
H3560 H 0.49246 0.88914 0.49224 0.0
H3561 H 0.54397 0.88316 0.50436 0.0
H3562 H 0.56847 0.87524 0.49966 0.0
H3563 H 0.57365 0.90433 0.4621 0.0
H3564 H 0.54911 0.91232 0.4665 0.0
H3565 H 0.50779 0.96845 0.52512 0.0
H3566 H 0.50637 0.9408 0.52031 0.0
H3567 H 0.52871 0.9468 0.47768 0.0
H3568 H 0.5304 0.97454 0.48265 0.0
H3569 H 0.54038 0.92697 0.49176 0.0
H3570 H 0.48658 0.93008 0.47844 0.0
H3571 H 0.46111 0.93576 0.48272 0.0
H3572 H 0.46085 0.91192 0.52453 0.0
H3573 H 0.48621 0.90577 0.52022 0.0
C3574 C 0.51967 0.85475 0.46303 0.0
C3575 C 0.51248 0.84317 0.47155 0.0
C3576 C 0.52081 0.87037 0.46836 0.0
C3577 C 0.51508 0.87508 0.4826 0.0
C3578 C 0.50782 0.86354 0.49113 0.0
C3579 C 0.50651 0.84784 0.48568 0.0
C3580 C 0.5162 0.89195 0.48813 0.0
C3581 C 0.50305 0.89732 0.49238 0.0
C3582 C 0.52989 0.90295 0.48832 0.0
C3583 C 0.54466 0.89824 0.48567 0.0
C3584 C 0.5503 0.8878 0.49504 0.0
C3585 C 0.5642 0.88331 0.49244 0.0
C3586 C 0.57259 0.88925 0.48056 0.0
C3587 C 0.56713 0.89973 0.47129 0.0
C3588 C 0.55325 0.90427 0.47385 0.0
C3589 C 0.51221 0.96393 0.51457 0.0
C3590 C 0.51905 0.97392 0.50419 0.0
C3591 C 0.51135 0.94795 0.51178 0.0
C3592 C 0.51715 0.94136 0.4984 0.0
C3593 C 0.52407 0.95136 0.48809 0.0
C3594 C 0.52502 0.96735 0.49093 0.0
C3595 C 0.51648 0.92421 0.4953 0.0
C3596 C 0.5298 0.91877 0.49166 0.0
C3597 C 0.50301 0.91315 0.49592 0.0
C3598 C 0.48829 0.9176 0.49909 0.0
C3599 C 0.48114 0.92619 0.48862 0.0
C3600 C 0.4667 0.92941 0.49101 0.0
C3601 C 0.45937 0.92424 0.50391 0.0
C3602 C 0.46652 0.91589 0.51452 0.0
C3603 C 0.48088 0.91246 0.51206 0.0
H3604 H 0.44815 0.92669 0.50568 0.0
H3605 H 0.58334 0.88575 0.47855 0.0
H3606 H 0.45659 0.26951 0.63427 0.0
H3607 H 0.43401 0.26846 0.649 0.0
H3608 H 0.46358 0.28538 0.69268 0.0
H3609 H 0.48615 0.28626 0.67789 0.0
H3610 H 0.44164 0.26285 0.69827 0.0
H3611 H 0.44198 0.30839 0.67231 0.0
H3612 H 0.44266 0.32351 0.64936 0.0
H3613 H 0.40046 0.29527 0.62717 0.0
H3614 H 0.39963 0.27984 0.6499 0.0
H3615 H 0.38115 0.27211 0.74427 0.0
H3616 H 0.40383 0.27969 0.73037 0.0
H3617 H 0.37663 0.26361 0.68512 0.0
H3618 H 0.35398 0.25638 0.69904 0.0
H3619 H 0.39791 0.28728 0.681 0.0
H3620 H 0.39803 0.24106 0.70571 0.0
H3621 H 0.39704 0.22532 0.72815 0.0
H3622 H 0.43836 0.25395 0.75197 0.0
H3623 H 0.4394 0.27008 0.7298 0.0
C3624 C 0.45823 0.27303 0.64701 0.0
C3625 C 0.47312 0.27802 0.65492 0.0
C3626 C 0.4453 0.27251 0.65545 0.0
C3627 C 0.44691 0.27703 0.67204 0.0
C3628 C 0.46188 0.28186 0.67994 0.0
C3629 C 0.47481 0.28241 0.67148 0.0
C3630 C 0.43307 0.27654 0.68114 0.0
C3631 C 0.43223 0.26844 0.69461 0.0
C3632 C 0.42047 0.28348 0.67631 0.0
C3633 C 0.4208 0.29289 0.66275 0.0
C3634 C 0.43288 0.30535 0.6625 0.0
C3635 C 0.4333 0.31398 0.64953 0.0
C3636 C 0.42163 0.31033 0.6368 0.0
C3637 C 0.40949 0.29808 0.63704 0.0
C3638 C 0.40904 0.2894 0.64997 0.0
C3639 C 0.37989 0.27082 0.73134 0.0
C3640 C 0.36567 0.26392 0.72276 0.0
C3641 C 0.39294 0.27492 0.72336 0.0
C3642 C 0.39218 0.27193 0.70659 0.0
C3643 C 0.3777 0.26605 0.698 0.0
C3644 C 0.36466 0.262 0.70597 0.0
C3645 C 0.4065 0.27359 0.69814 0.0
C3646 C 0.4074 0.28183 0.68475 0.0
C3647 C 0.41914 0.2667 0.70297 0.0
C3648 C 0.4187 0.25687 0.71618 0.0
C3649 C 0.40685 0.24406 0.71578 0.0
C3650 C 0.40628 0.23507 0.72846 0.0
C3651 C 0.41761 0.23865 0.7415 0.0
C3652 C 0.42957 0.25121 0.74188 0.0
C3653 C 0.43015 0.26029 0.72926 0.0
H3654 H 0.41716 0.23168 0.7513 0.0
H3655 H 0.42197 0.31702 0.62676 0.0
H3656 H 0.0406 0.82766 0.6302 0.0
H3657 H 0.04174 0.85005 0.61572 0.0
H3658 H 0.99237 0.84172 0.60742 0.0
H3659 H 0.99112 0.81855 0.62093 0.0
H3660 H 0.00306 0.85123 0.58185 0.0
H3661 H 0.01537 0.87038 0.6376 0.0
H3662 H 0.02979 0.87277 0.66435 0.0
H3663 H 0.0716 0.88981 0.64514 0.0
H3664 H 0.05749 0.8873 0.61825 0.0
H3665 H 0.00785 0.92403 0.55008 0.0
H3666 H 1.00096 0.90314 0.56668 0.0
H3667 H 0.04879 0.90721 0.58402 0.0
H3668 H 0.05539 0.92835 0.56823 0.0
H3669 H 0.0352 0.90045 0.60665 0.0
H3670 H 0.02439 0.87864 0.55084 0.0
H3671 H 0.01105 0.87453 0.52346 0.0
H3672 H 0.96786 0.86148 0.54174 0.0
H3673 H 0.98092 0.86574 0.56925 0.0
C3674 C 0.02991 0.83031 0.62513 0.0
C3675 C 0.01574 0.82104 0.62698 0.0
C3676 C 0.03059 0.84342 0.61699 0.0
C3677 C 0.01714 0.84803 0.61072 0.0
C3678 C 1.00298 0.83867 0.61223 0.0
C3679 C 1.00228 0.82541 0.6202 0.0
C3680 C 0.01791 0.86255 0.60266 0.0
C3681 C 0.00995 0.86204 0.58738 0.0
C3682 C 0.02698 0.87678 0.60963 0.0
C3683 C 0.03537 0.87858 0.62589 0.0
C3684 C 0.02764 0.87459 0.63908 0.0
C3685 C 0.03577 0.87596 0.65426 0.0
C3686 C 0.0516 0.88142 0.65644 0.0
C3687 C 0.05934 0.88558 0.64344 0.0
C3688 C 0.05128 0.8842 0.62823 0.0
C3689 C 0.01679 0.92072 0.55781 0.0
C3690 C 0.03219 0.9279 0.55779 0.0
C3691 C 0.0129 0.90851 0.56711 0.0
C3692 C 0.02435 0.90302 0.57644 0.0
C3693 C 0.0396 0.91089 0.577 0.0
C3694 C 0.04342 0.92308 0.5679 0.0
C3695 C 0.02095 0.88906 0.58541 0.0
C3696 C 0.02828 0.88969 0.60103 0.0
C3697 C 0.01147 0.87491 0.57862 0.0
C3698 C 0.00361 0.87274 0.56212 0.0
C3699 C 0.01203 0.87505 0.54903 0.0
C3700 C 0.00452 0.87267 0.53349 0.0
C3701 C 0.98861 0.86781 0.53087 0.0
C3702 C 0.98017 0.86531 0.54379 0.0
C3703 C 0.98762 0.86772 0.55935 0.0
H3704 H 0.98282 0.86593 0.51882 0.0
H3705 H 0.05787 0.88246 0.6682 0.0
H3706 H 0.4547 0.80174 0.79612 0.0
H3707 H 0.4275 0.79987 0.78706 0.0
H3708 H 0.41634 0.75971 0.81136 0.0
H3709 H 0.44339 0.76169 0.82089 0.0
H3710 H 0.39909 0.75625 0.78213 0.0
H3711 H 0.41194 0.79463 0.82765 0.0
H3712 H 0.42663 0.81838 0.8431 0.0
H3713 H 0.41301 0.84465 0.8061 0.0
H3714 H 0.39846 0.821 0.79028 0.0
H3715 H 0.31981 0.75448 0.7898 0.0
H3716 H 0.3475 0.75592 0.79442 0.0
H3717 H 0.3549 0.79655 0.7702 0.0
H3718 H 0.32726 0.79487 0.76509 0.0
H3719 H 0.37436 0.80031 0.7974 0.0
H3720 H 0.35985 0.76254 0.75265 0.0
H3721 H 0.34545 0.73898 0.73665 0.0
H3722 H 0.36241 0.71169 0.77094 0.0
H3723 H 0.37651 0.7351 0.78742 0.0
C3724 C 0.44653 0.79254 0.7997 0.0
C3725 C 0.45154 0.78198 0.80948 0.0
C3726 C 0.43088 0.79144 0.79438 0.0
C3727 C 0.41968 0.77973 0.79862 0.0
C3728 C 0.42464 0.76885 0.80785 0.0
C3729 C 0.44027 0.76999 0.81326 0.0
C3730 C 0.40279 0.7792 0.79411 0.0
C3731 C 0.39367 0.76582 0.78563 0.0
C3732 C 0.39562 0.79181 0.79819 0.0
C3733 C 0.40426 0.80604 0.80771 0.0
C3734 C 0.41218 0.80546 0.82275 0.0
C3735 C 0.42048 0.8189 0.83158 0.0
C3736 C 0.42079 0.83301 0.82557 0.0
C3737 C 0.41279 0.83371 0.81073 0.0
C3738 C 0.40452 0.82029 0.80182 0.0
C3739 C 0.32724 0.7638 0.78545 0.0
C3740 C 0.321 0.7748 0.7773 0.0
C3741 C 0.34319 0.76455 0.78806 0.0
C3742 C 0.35348 0.77634 0.78267 0.0
C3743 C 0.34734 0.78737 0.77461 0.0
C3744 C 0.33138 0.78649 0.77181 0.0
C3745 C 0.37057 0.77725 0.78564 0.0
C3746 C 0.37975 0.79072 0.79381 0.0
C3747 C 0.37777 0.76475 0.78119 0.0
C3748 C 0.36911 0.75062 0.77139 0.0
C3749 C 0.36034 0.75153 0.75691 0.0
C3750 C 0.35222 0.73819 0.74774 0.0
C3751 C 0.35291 0.72384 0.75283 0.0
C3752 C 0.36176 0.72281 0.76707 0.0
C3753 C 0.36981 0.73612 0.77634 0.0
H3754 H 0.34665 0.71352 0.74571 0.0
H3755 H 0.42721 0.84341 0.83243 0.0
H3756 H 0.4866 0.16166 0.12374 0.0
H3757 H 0.48713 0.13804 0.1067 0.0
H3758 H 0.53307 0.15648 0.09734 0.0
H3759 H 0.53243 0.1803 0.11384 0.0
H3760 H 0.51773 0.14226 0.0707 0.0
H3761 H 0.52389 0.12868 0.12435 0.0
H3762 H 0.51688 0.1253 0.15147 0.0
H3763 H 0.47507 0.09482 0.13174 0.0
H3764 H 0.48171 0.09822 0.10449 0.0
H3765 H 0.5369 0.07349 0.03553 0.0
H3766 H 0.53538 0.09712 0.05185 0.0
H3767 H 0.49278 0.07494 0.06682 0.0
H3768 H 0.49512 0.05087 0.05152 0.0
H3769 H 0.50572 0.09136 0.09041 0.0
H3770 H 0.49852 0.10557 0.03673 0.0
H3771 H 0.5048 0.1097 0.00948 0.0
H3772 H 0.54761 0.13861 0.0287 0.0
H3773 H 0.54149 0.13491 0.05606 0.0
C3774 C 0.4968 0.16081 0.11797 0.0
C3775 C 0.50951 0.17307 0.12041 0.0
C3776 C 0.49715 0.14712 0.1083 0.0
C3777 C 0.51025 0.14516 0.10079 0.0
C3778 C 0.52282 0.15748 0.10298 0.0
C3779 C 0.52249 0.17115 0.11262 0.0
C3780 C 0.51092 0.13044 0.09063 0.0
C3781 C 0.51522 0.13114 0.0751 0.0
C3782 C 0.50729 0.11574 0.096 0.0
C3783 C 0.50322 0.11385 0.11238 0.0
C3784 C 0.51313 0.12138 0.12579 0.0
C3785 C 0.50923 0.11944 0.14119 0.0
C3786 C 0.49552 0.10989 0.14332 0.0
C3787 C 0.48567 0.10225 0.13007 0.0
C3788 C 0.4895 0.10418 0.11465 0.0
C3789 C 0.52717 0.07367 0.04226 0.0
C3790 C 0.51605 0.06027 0.04207 0.0
C3791 C 0.52618 0.08735 0.05152 0.0
C3792 C 0.51367 0.08831 0.06039 0.0
C3793 C 0.50257 0.07481 0.06018 0.0
C3794 C 0.50385 0.06098 0.05133 0.0
C3795 C 0.51242 0.10307 0.0703 0.0
C3796 C 0.50807 0.10241 0.08585 0.0
C3797 C 0.51586 0.11781 0.06488 0.0
C3798 C 0.51961 0.11984 0.04843 0.0
C3799 C 0.50931 0.11272 0.03513 0.0
C3800 C 0.51284 0.11499 0.01968 0.0
C3801 C 0.52666 0.12424 0.01736 0.0
C3802 C 0.53693 0.13139 0.0305 0.0
C3803 C 0.53341 0.12928 0.04598 0.0
H3804 H 0.52936 0.12595 0.00537 0.0
H3805 H 0.49254 0.10838 0.15525 0.0
H3806 H 0.10909 0.30531 0.29662 0.0
H3807 H 0.13388 0.30322 0.28692 0.0
H3808 H 0.13818 0.26694 0.31627 0.0
H3809 H 0.11363 0.26901 0.32603 0.0
H3810 H 0.16447 0.28724 0.31967 0.0
H3811 H 0.1296 0.26056 0.27536 0.0
H3812 H 0.109 0.25656 0.25299 0.0
H3813 H 0.13457 0.29239 0.2304 0.0
H3814 H 0.1552 0.29684 0.25281 0.0
H3815 H 0.22591 0.25664 0.28747 0.0
H3816 H 0.20052 0.25977 0.29454 0.0
H3817 H 0.20289 0.29957 0.26906 0.0
H3818 H 0.22861 0.29676 0.26231 0.0
H3819 H 0.17342 0.27871 0.26289 0.0
H3820 H 0.20804 0.3055 0.30677 0.0
H3821 H 0.22867 0.31005 0.32914 0.0
H3822 H 0.20339 0.27463 0.35249 0.0
H3823 H 0.18275 0.2696 0.33006 0.0
C3824 C 0.11529 0.29687 0.30104 0.0
C3825 C 0.10911 0.2873 0.31217 0.0
C3826 C 0.12949 0.29559 0.29534 0.0
C3827 C 0.13809 0.28483 0.30071 0.0
C3828 C 0.13193 0.27533 0.31182 0.0
C3829 C 0.11772 0.27647 0.31735 0.0
C3830 C 0.15373 0.28378 0.29545 0.0
C3831 C 0.1663 0.28516 0.30723 0.0
C3832 C 0.15649 0.28156 0.27918 0.0
C3833 C 0.14386 0.27921 0.26594 0.0
C3834 C 0.13074 0.26776 0.26577 0.0
C3835 C 0.11907 0.26538 0.25304 0.0
C3836 C 0.12044 0.27426 0.24032 0.0
C3837 C 0.13349 0.28555 0.2403 0.0
C3838 C 0.14517 0.28803 0.25302 0.0
C3839 C 0.22108 0.26607 0.2833 0.0
C3840 C 0.22948 0.27645 0.27428 0.0
C3841 C 0.20648 0.26787 0.28742 0.0
C3842 C 0.1996 0.27994 0.28242 0.0
C3843 C 0.20781 0.29015 0.27312 0.0
C3844 C 0.2226 0.28856 0.2693 0.0
C3845 C 0.18403 0.28198 0.28715 0.0
C3846 C 0.17153 0.2808 0.27531 0.0
C3847 C 0.18128 0.28443 0.30336 0.0
C3848 C 0.19395 0.28699 0.31658 0.0
C3849 C 0.20699 0.29849 0.31653 0.0
C3850 C 0.21867 0.3012 0.32926 0.0
C3851 C 0.21737 0.29259 0.3422 0.0
C3852 C 0.20441 0.28124 0.34243 0.0
C3853 C 0.19272 0.27844 0.32969 0.0
H3854 H 0.2264 0.29475 0.35208 0.0
H3855 H 0.11142 0.27235 0.23045 0.0
H3856 H 0.95038 0.99504 0.16908 0.0
H3857 H 0.96208 0.99682 0.14415 0.0
H3858 H 0.98507 0.04305 0.16093 0.0
H3859 H 0.97399 0.04123 0.1862 0.0
H3860 H 0.96756 0.03801 0.12877 0.0
H3861 H 0.00644 0.01875 0.16067 0.0
H3862 H 0.01634 1.00067 0.17742 0.0
H3863 H 1.0003 0.96378 0.13993 0.0
H3864 H 0.99013 0.9816 0.12304 0.0
H3865 H 0.00939 0.04821 0.0621 0.0
H3866 H 1.00131 0.04825 0.08893 0.0
H3867 H 0.99577 0.99878 0.08454 0.0
H3868 H 0.00605 0.99918 0.0588 0.0
H3869 H 0.00519 0.00668 0.11186 0.0
H3870 H 0.96449 0.02345 0.08022 0.0
H3871 H 0.95327 0.0401 0.06258 0.0
H3872 H 0.96945 0.07902 0.09773 0.0
H3873 H 0.98089 0.06264 0.11549 0.0
C3874 C 0.95816 0.0055 0.16766 0.0
C3875 C 0.96125 0.01797 0.17978 0.0
C3876 C 0.96476 0.00652 0.15333 0.0
C3877 C 0.97446 0.02005 0.15074 0.0
C3878 C 0.97757 0.03252 0.16271 0.0
C3879 C 0.97113 0.03147 0.17712 0.0
C3880 C 0.98101 0.02132 0.13533 0.0
C3881 C 0.9759 0.03128 0.12506 0.0
C3882 C 0.99153 0.01223 0.13037 0.0
C3883 C 0.99738 1.00148 0.14067 0.0
C3884 C 0.00486 0.00675 0.15607 0.0
C3885 C 0.01057 0.99656 0.16557 0.0
C3886 C 0.00892 0.98108 0.15976 0.0
C3887 C 1.00156 0.97576 0.14443 0.0
C3888 C 0.99583 0.98591 0.13489 0.0
C3889 C 0.00649 0.03741 0.06701 0.0
C3890 C 0.00813 0.02367 0.05844 0.0
C3891 C 1.00165 0.03737 0.08227 0.0
C3892 C 0.99733 0.02346 0.08877 0.0
C3893 C 0.99897 0.00972 0.07999 0.0
C3894 C 0.0047 0.00989 0.06519 0.0
C3895 C 0.99143 0.02308 0.10476 0.0
C3896 C 0.99674 0.01337 0.1153 0.0
C3897 C 0.98069 0.03206 0.10974 0.0
C3898 C 0.97365 0.04185 0.09912 0.0
C3899 C 0.9657 0.03557 0.08415 0.0
C3900 C 0.95931 0.04496 0.07413 0.0
C3901 C 0.96068 0.06061 0.07902 0.0
C3902 C 0.96841 0.0669 0.09395 0.0
C3903 C 0.97483 0.05757 0.104 0.0
H3904 H 0.95574 0.06786 0.07124 0.0
H3905 H 0.01338 0.97322 0.16711 0.0
H3906 H 0.2618 0.6512 0.44663 0.0
H3907 H 0.26329 0.66523 0.42308 0.0
H3908 H 0.27173 0.70818 0.45371 0.0
H3909 H 0.26972 0.69405 0.4772 0.0
H3910 H 0.24982 0.70669 0.42897 0.0
H3911 H 0.30101 0.69535 0.4367 0.0
H3912 H 0.31843 0.6771 0.44082 0.0
H3913 H 0.29989 0.65154 0.39554 0.0
H3914 H 0.2822 0.66954 0.39125 0.0
H3915 H 0.25755 0.75127 0.36868 0.0
H3916 H 0.26915 0.74155 0.39212 0.0
H3917 H 0.26357 0.6968 0.36538 0.0
H3918 H 0.253 0.70692 0.34174 0.0
H3919 H 0.28635 0.70029 0.3891 0.0
H3920 H 0.2339 0.70733 0.38219 0.0
H3921 H 0.21277 0.72156 0.37809 0.0
H3922 H 0.23014 0.75123 0.42131 0.0
H3923 H 0.25148 0.73729 0.42556 0.0
C3924 C 0.26399 0.66363 0.44817 0.0
C3925 C 0.26572 0.67175 0.46339 0.0
C3926 C 0.26494 0.67159 0.43487 0.0
C3927 C 0.26794 0.68767 0.43683 0.0
C3928 C 0.26955 0.69575 0.45211 0.0
C3929 C 0.2684 0.68778 0.4654 0.0
C3930 C 0.26872 0.69612 0.42286 0.0
C3931 C 0.25805 0.70563 0.42044 0.0
C3932 C 0.27906 0.69407 0.41154 0.0
C3933 C 0.29031 0.6838 0.41365 0.0
C3934 C 0.30068 0.68586 0.4276 0.0
C3935 C 0.31057 0.67554 0.42999 0.0
C3936 C 0.31027 0.66317 0.41844 0.0
C3937 C 0.30013 0.66115 0.40445 0.0
C3938 C 0.2902 0.67143 0.40202 0.0
C3939 C 0.25935 0.73953 0.36777 0.0
C3940 C 0.25389 0.72949 0.3539 0.0
C3941 C 0.26601 0.73402 0.38103 0.0
C3942 C 0.26664 0.71836 0.38054 0.0
C3943 C 0.26296 0.70887 0.36601 0.0
C3944 C 0.25666 0.71451 0.35266 0.0
C3945 C 0.26771 0.71126 0.39544 0.0
C3946 C 0.27847 0.70176 0.39789 0.0
C3947 C 0.25716 0.71297 0.4067 0.0
C3948 C 0.24442 0.72144 0.40405 0.0
C3949 C 0.2333 0.71699 0.39072 0.0
C3950 C 0.22128 0.72499 0.38838 0.0
C3951 C 0.22018 0.73736 0.39937 0.0
C3952 C 0.23105 0.74171 0.41276 0.0
C3953 C 0.24311 0.73377 0.41514 0.0
H3954 H 0.21085 0.74353 0.39755 0.0
H3955 H 0.3179 0.65516 0.42034 0.0
H3956 H 0.5982 0.00684 0.67917 0.0
H3957 H 0.5822 0.00506 0.65362 0.0
H3958 H 0.61799 0.03634 0.63613 0.0
H3959 H 0.63403 0.03811 0.66154 0.0
H3960 H 0.58815 0.04432 0.63478 0.0
H3961 H 0.6134 1.00083 0.62253 0.0
H3962 H 0.62019 0.9761 0.6283 0.0
H3963 H 0.57243 0.95569 0.62489 0.0
H3964 H 0.56536 0.98036 0.6193 0.0
H3965 H 0.55629 0.04694 0.55792 0.0
H3966 H 0.57428 0.04464 0.58059 0.0
H3967 H 0.54721 1.00031 0.58592 0.0
H3968 H 0.53265 1.00074 0.5602 0.0
H3969 H 0.57238 0.99838 0.59489 0.0
H3970 H 0.54575 0.04057 0.60824 0.0
H3971 H 0.53774 0.06484 0.60256 0.0
H3972 H 0.58493 0.08726 0.6061 0.0
H3973 H 0.5932 0.06312 0.61167 0.0
C3974 C 0.60263 0.01314 0.66974 0.0
C3975 C 0.61713 0.02269 0.67209 0.0
C3976 C 0.59359 0.01211 0.6553 0.0
C3977 C 0.59913 0.02055 0.64327 0.0
C3978 C 0.61371 0.02982 0.64548 0.0
C3979 C 0.62274 0.03088 0.65989 0.0
C3980 C 0.58933 0.02061 0.62866 0.0
C3981 C 0.58462 0.03434 0.62596 0.0
C3982 C 0.58456 0.00737 0.61771 0.0
C3983 C 0.58886 0.99246 0.62062 0.0
C3984 C 0.60435 0.99108 0.62309 0.0
C3985 C 0.60825 0.97708 0.62632 0.0
C3986 C 0.59675 0.96434 0.62699 0.0
C3987 C 0.58133 0.96556 0.62437 0.0
C3988 C 0.57737 0.97955 0.62115 0.0
C3989 C 0.55476 0.03652 0.56367 0.0
C3990 C 0.54353 0.02392 0.55746 0.0
C3991 C 0.5646 0.0354 0.57695 0.0
C3992 C 0.56164 0.02267 0.58556 0.0
C3993 C 0.54978 0.01029 0.57958 0.0
C3994 C 0.5412 0.01067 0.56519 0.0
C3995 C 0.5708 0.02221 0.60077 0.0
C3996 C 0.57549 0.00838 0.6037 0.0
C3997 C 0.57512 0.03528 0.61227 0.0
C3998 C 0.57007 0.05006 0.61037 0.0
C3999 C 0.55439 0.05073 0.60796 0.0
C4000 C 0.54982 0.06443 0.60468 0.0
C4001 C 0.56082 0.07757 0.60396 0.0
C4002 C 0.57642 0.07709 0.60669 0.0
C4003 C 0.58106 0.06342 0.60998 0.0
H4004 H 0.55725 0.08813 0.60128 0.0
H4005 H 0.5998 0.95351 0.62952 0.0
H4006 H 0.26756 0.35009 0.93264 0.0
H4007 H 0.26746 0.33864 0.90526 0.0
H4008 H 0.27523 0.29637 0.92268 0.0
H4009 H 0.27612 0.30818 0.95023 0.0
H4010 H 0.29205 0.30136 0.90048 0.0
H4011 H 0.23854 0.3017 0.90254 0.0
H4012 H 0.21636 0.31354 0.90832 0.0
H4013 H 0.22778 0.34598 0.87488 0.0
H4014 H 0.2501 0.3344 0.869 0.0
H4015 H 0.28122 0.26267 0.8206 0.0
H4016 H 0.27938 0.27042 0.84885 0.0
H4017 H 0.27037 0.31427 0.83698 0.0
H4018 H 0.27143 0.3063 0.80889 0.0
H4019 H 0.25242 0.306 0.85698 0.0
H4020 H 0.30746 0.30773 0.8577 0.0
H4021 H 0.33099 0.29755 0.85392 0.0
H4022 H 0.31666 0.2614 0.8825 0.0
H4023 H 0.29316 0.2716 0.88669 0.0
C4024 C 0.26909 0.3383 0.93062 0.0
C4025 C 0.27176 0.33002 0.94361 0.0
C4026 C 0.26894 0.33168 0.9149 0.0
C4027 C 0.27097 0.31643 0.91167 0.0
C4028 C 0.27357 0.30812 0.9247 0.0
C4029 C 0.27406 0.31486 0.94047 0.0
C4030 C 0.27103 0.30942 0.89481 0.0
C4031 C 0.28319 0.30215 0.89105 0.0
C4032 C 0.2597 0.31058 0.88226 0.0
C4033 C 0.24601 0.31722 0.88538 0.0
C4034 C 0.23632 0.31137 0.89643 0.0
C4035 C 0.22373 0.31804 0.89973 0.0
C4036 C 0.22068 0.33052 0.89199 0.0
C4037 C 0.23016 0.3363 0.88086 0.0
C4038 C 0.24275 0.32967 0.8775 0.0
C4039 C 0.27892 0.27398 0.82405 0.0
C4040 C 0.27642 0.2838 0.81239 0.0
C4041 C 0.27795 0.27849 0.84028 0.0
C4042 C 0.27487 0.29309 0.84532 0.0
C4043 C 0.27264 0.30292 0.83362 0.0
C4044 C 0.27332 0.29834 0.81745 0.0
C4045 C 0.27366 0.2982 0.86257 0.0
C4046 C 0.26121 0.30508 0.86642 0.0
C4047 C 0.2847 0.29666 0.87522 0.0
C4048 C 0.29853 0.2903 0.87234 0.0
C4049 C 0.3093 0.29755 0.86307 0.0
C4050 C 0.32264 0.29181 0.86091 0.0
C4051 C 0.32527 0.27875 0.86786 0.0
C4052 C 0.31459 0.27148 0.87709 0.0
C4053 C 0.3013 0.27728 0.87943 0.0
H4054 H 0.33561 0.27431 0.86616 0.0
H4055 H 0.21096 0.3357 0.8946 0.0
H4056 H 0.98205 0.00809 0.33082 0.0
H4057 H 0.99362 0.00832 0.35826 0.0
H4058 H 0.96065 0.03405 0.37555 0.0
H4059 H 0.94922 0.03405 0.34818 0.0
H4060 H 0.98649 0.04463 0.39205 0.0
H4061 H 0.95765 0.99451 0.37696 0.0
H4062 H 0.94937 0.96981 0.36004 0.0
H4063 H 0.99452 0.9596 0.36873 0.0
H4064 H 0.00317 0.98442 0.38546 0.0
H4065 H 0.99115 0.02991 0.47301 0.0
H4066 H 0.98323 0.03083 0.44495 0.0
H4067 H 0.01916 0.00703 0.43199 0.0
H4068 H 0.02696 0.00564 0.46039 0.0
H4069 H 0.99374 0.99588 0.41271 0.0
H4070 H 0.01961 0.04846 0.43196 0.0
H4071 H 0.02362 0.07355 0.44838 0.0
H4072 H 0.97783 0.07864 0.43243 0.0
H4073 H 0.97336 0.05347 0.4163 0.0
C4074 C 0.97725 0.0138 0.34047 0.0
C4075 C 0.9646 0.02097 0.33722 0.0
C4076 C 0.98388 0.0139 0.35621 0.0
C4077 C 0.9779 0.02096 0.36916 0.0
C4078 C 0.96555 0.0285 0.36588 0.0
C4079 C 0.95901 0.02852 0.35015 0.0
C4080 C 0.98423 0.02032 0.38613 0.0
C4081 C 0.98794 0.03393 0.39658 0.0
C4082 C 0.9863 0.00642 0.39215 0.0
C4083 C 0.98111 0.99139 0.38232 0.0
C4084 C 0.96585 0.98705 0.37517 0.0
C4085 C 0.96109 0.97303 0.36562 0.0
C4086 C 0.97142 0.96316 0.36328 0.0
C4087 C 0.98654 0.96728 0.37053 0.0
C4088 C 0.99139 0.98132 0.38005 0.0
C4089 C 0.99745 0.02482 0.46428 0.0
C4090 C 0.00978 0.01769 0.46914 0.0
C4091 C 0.99295 0.02551 0.4481 0.0
C4092 C 1.00078 0.01937 0.43615 0.0
C4093 C 0.01297 0.01202 0.4409 0.0
C4094 C 0.01744 0.01121 0.45718 0.0
C4095 C 0.99588 0.02024 0.41878 0.0
C4096 C 0.99246 0.00662 0.40819 0.0
C4097 C 0.99343 0.0341 0.41278 0.0
C4098 C 0.99613 0.04901 0.42299 0.0
C4099 C 0.01034 0.05484 0.4321 0.0
C4100 C 0.01269 0.06909 0.44135 0.0
C4101 C 1.00096 0.07764 0.4414 0.0
C4102 C 0.98686 0.07197 0.43236 0.0
C4103 C 0.98442 0.05772 0.42321 0.0
H4104 H 1.00272 0.08868 0.44836 0.0
H4105 H 0.96771 0.95231 0.35588 0.0
H4106 H 0.27563 0.69901 0.59928 0.0
H4107 H 0.27827 0.71452 0.62522 0.0
H4108 H 0.26812 0.67315 0.64821 0.0
H4109 H 0.26488 0.65773 0.62217 0.0
H4110 H 0.25134 0.69326 0.657 0.0
H4111 H 0.30445 0.69388 0.65137 0.0
H4112 H 0.32783 0.6977 0.63767 0.0
H4113 H 0.32601 0.74547 0.63715 0.0
H4114 H 0.30247 0.74189 0.65061 0.0
H4115 H 0.28412 0.73333 0.7357 0.0
H4116 H 0.28458 0.71776 0.7106 0.0
H4117 H 0.26257 0.74905 0.68502 0.0
H4118 H 0.26035 0.76377 0.71015 0.0
H4119 H 0.29648 0.73347 0.6787 0.0
H4120 H 0.23971 0.73011 0.67874 0.0
H4121 H 0.21635 0.72568 0.69237 0.0
H4122 H 0.22543 0.68172 0.70285 0.0
H4123 H 0.2493 0.68627 0.68992 0.0
C4124 C 0.27398 0.69338 0.60996 0.0
C4125 C 0.26996 0.67741 0.60909 0.0
C4126 C 0.27563 0.70213 0.62465 0.0
C4127 C 0.27361 0.69485 0.63847 0.0
C4128 C 0.26975 0.67884 0.63756 0.0
C4129 C 0.26784 0.67012 0.62284 0.0
C4130 C 0.27438 0.70401 0.65377 0.0
C4131 C 0.26129 0.70193 0.66182 0.0
C4132 C 0.28733 0.71537 0.6598 0.0
C4133 C 0.30162 0.71758 0.6519 0.0
C4134 C 0.30897 0.70518 0.64824 0.0
C4135 C 0.32226 0.70731 0.64053 0.0
C4136 C 0.32839 0.72182 0.63652 0.0
C4137 C 0.32125 0.73424 0.64025 0.0
C4138 C 0.30795 0.73217 0.64794 0.0
C4139 C 0.27915 0.7368 0.72478 0.0
C4140 C 0.27222 0.74979 0.72486 0.0
C4141 C 0.27956 0.72798 0.71054 0.0
C4142 C 0.27347 0.73236 0.69629 0.0
C4143 C 0.26706 0.74554 0.69614 0.0
C4144 C 0.26598 0.75398 0.71044 0.0
C4145 C 0.27339 0.7228 0.68152 0.0
C4146 C 0.28663 0.72474 0.67374 0.0
C4147 C 0.26061 0.7113 0.67568 0.0
C4148 C 0.24651 0.70874 0.6838 0.0
C4149 C 0.23697 0.7197 0.68434 0.0
C4150 C 0.22359 0.71713 0.69185 0.0
C4151 C 0.21942 0.70344 0.6985 0.0
C4152 C 0.2287 0.69234 0.69774 0.0
C4153 C 0.24221 0.69497 0.69043 0.0
H4154 H 0.20901 0.70142 0.70423 0.0
H4155 H 0.33867 0.72344 0.63054 0.0
H4156 H 0.60722 0.04368 0.81183 0.0
H4157 H 0.59455 0.04293 0.83621 0.0
H4158 H 0.62419 0.01355 0.85435 0.0
H4159 H 0.6371 0.01445 0.83012 0.0
H4160 H 0.59265 0.00341 0.85635 0.0
H4161 H 0.63165 0.04831 0.86938 0.0
H4162 H 0.64683 0.07327 0.8652 0.0
H4163 H 0.60636 0.09323 0.86442 0.0
H4164 H 0.59087 0.06832 0.86827 0.0
H4165 H 0.57854 0.02853 0.93929 0.0
H4166 H 0.58755 0.01732 0.91514 0.0
H4167 H 0.55674 0.03847 0.88601 0.0
H4168 H 0.54801 0.04993 0.91006 0.0
H4169 H 0.59109 0.05088 0.89125 0.0
H4170 H 0.55179 0.00579 0.87488 0.0
H4171 H 0.53597 0.98027 0.87571 0.0
H4172 H 0.57662 0.96088 0.88209 0.0
H4173 H 0.59269 0.98631 0.88133 0.0
C4174 C 0.61108 0.03718 0.8211 0.0
C4175 C 0.62303 0.02909 0.81923 0.0
C4176 C 0.60386 0.03674 0.83491 0.0
C4177 C 0.60861 0.02825 0.84691 0.0
C4178 C 0.62047 0.02009 0.84507 0.0
C4179 C 0.62772 0.02057 0.83128 0.0
C4180 C 0.60094 0.02777 0.86134 0.0
C4181 C 0.59248 0.0137 0.86424 0.0
C4182 C 0.60073 0.04133 0.87125 0.0
C4183 C 0.61006 0.05638 0.86898 0.0
C4184 C 0.62595 0.05798 0.86817 0.0
C4185 C 0.63462 0.07213 0.86587 0.0
C4186 C 0.62756 0.08482 0.86451 0.0
C4187 C 0.61182 0.08339 0.86546 0.0
C4188 C 0.60308 0.06925 0.8677 0.0
C4189 C 0.57338 0.03028 0.92766 0.0
C4190 C 0.56303 0.04036 0.92625 0.0
C4191 C 0.57831 0.02372 0.91396 0.0
C4192 C 0.57274 0.02714 0.89896 0.0
C4193 C 0.561 0.03567 0.89758 0.0
C4194 C 0.55623 0.04238 0.91122 0.0
C4195 C 0.58231 0.02658 0.88596 0.0
C4196 C 0.59136 0.04053 0.8835 0.0
C4197 C 0.58301 0.01293 0.87649 0.0
C4198 C 0.57344 0.99799 0.87833 0.0
C4199 C 0.55736 0.99614 0.87676 0.0
C4200 C 0.54834 0.98166 0.87704 0.0
C4201 C 0.55528 0.96896 0.87892 0.0
C4202 C 0.57126 0.97072 0.88062 0.0
C4203 C 0.58032 0.98516 0.88026 0.0
H4204 H 0.54828 0.95776 0.87913 0.0
H4205 H 0.6343 0.09577 0.86275 0.0
H4206 H 0.28495 0.31461 0.09449 0.0
H4207 H 0.28311 0.30352 0.11995 0.0
H4208 H 0.26195 0.34055 0.13806 0.0
H4209 H 0.26351 0.35145 0.1126 0.0
H4210 H 0.28652 0.33544 0.15874 0.0
H4211 H 0.24058 0.30718 0.12839 0.0
H4212 H 0.22461 0.29042 0.10594 0.0
H4213 H 0.24863 0.25394 0.11538 0.0
H4214 H 0.26497 0.2706 0.13771 0.0
H4215 H 0.26145 0.30689 0.2296 0.0
H4216 H 0.26228 0.31661 0.20352 0.0
H4217 H 0.28197 0.27836 0.1859 0.0
H4218 H 0.28154 0.26876 0.212 0.0
H4219 H 0.25793 0.28361 0.16479 0.0
H4220 H 0.30709 0.31313 0.19 0.0
H4221 H 0.32496 0.33013 0.21097 0.0
H4222 H 0.29499 0.36292 0.2112 0.0
H4223 H 0.27726 0.34634 0.18973 0.0
C4224 C 0.27987 0.3203 0.10392 0.0
C4225 C 0.27433 0.33384 0.10161 0.0
C4226 C 0.27874 0.31394 0.11839 0.0
C4227 C 0.27231 0.32117 0.13086 0.0
C4228 C 0.26689 0.33475 0.12857 0.0
C4229 C 0.26774 0.34094 0.11404 0.0
C4230 C 0.27181 0.31502 0.14656 0.0
C4231 C 0.28007 0.32419 0.16006 0.0
C4232 C 0.26376 0.30017 0.14824 0.0
C4233 C 0.25416 0.29023 0.1346 0.0
C4234 C 0.24262 0.29567 0.12555 0.0
C4235 C 0.23346 0.28616 0.11287 0.0
C4236 C 0.23564 0.27115 0.1092 0.0
C4237 C 0.24698 0.2656 0.11821 0.0
C4238 C 0.2562 0.27507 0.13087 0.0
C4239 C 0.26598 0.30055 0.2202 0.0
C4240 C 0.27127 0.28695 0.22289 0.0
C4241 C 0.2665 0.30615 0.2053 0.0
C4242 C 0.27224 0.29824 0.19277 0.0
C4243 C 0.27744 0.28462 0.19538 0.0
C4244 C 0.27711 0.27912 0.21031 0.0
C4245 C 0.27261 0.30406 0.1769 0.0
C4246 C 0.26433 0.29486 0.1634 0.0
C4247 C 0.2807 0.31882 0.17511 0.0
C4248 C 0.29082 0.32847 0.18847 0.0
C4249 C 0.30429 0.32392 0.19463 0.0
C4250 C 0.31443 0.33352 0.2065 0.0
C4251 C 0.31102 0.34751 0.21256 0.0
C4252 C 0.29757 0.35204 0.20656 0.0
C4253 C 0.28755 0.34262 0.19444 0.0
H4254 H 0.31885 0.35488 0.22184 0.0
H4255 H 0.22851 0.26379 0.09941 0.0
H4256 H 0.20422 0.93595 0.98854 0.0
H4257 H 0.18077 0.94581 0.99202 0.0
H4258 H 0.20744 0.99156 0.00466 0.0
H4259 H 0.23109 0.98144 0.00197 0.0
H4260 H 0.18751 0.98396 0.02533 0.0
H4261 H 0.18545 0.98109 0.96802 0.0
H4262 H 0.18768 0.96714 0.94203 0.0
H4263 H 0.14936 0.93242 0.94835 0.0
H4264 H 0.14703 0.94606 0.9745 0.0
H4265 H 0.12351 0.01846 0.02848 0.0
H4266 H 0.14551 0.01184 0.01594 0.0
H4267 H 0.1246 0.96388 0.0113 0.0
H4268 H 0.10268 0.97045 0.02415 0.0
H4269 H 0.14177 0.9741 0.98484 0.0
H4270 H 0.14488 0.97484 0.04195 0.0
H4271 H 0.14415 0.98572 0.06964 0.0
H4272 H 0.18187 0.02182 0.06517 0.0
H4273 H 0.18248 0.01144 0.03721 0.0
C4274 C 0.20495 0.94816 0.99168 0.0
C4275 C 0.21916 0.9581 0.99473 0.0
C4276 C 0.19165 0.95376 0.99366 0.0
C4277 C 0.19245 0.96943 0.99822 0.0
C4278 C 0.20669 0.97945 0.00096 0.0
C4279 C 0.22007 0.97376 -0.00066 0.0
C4280 C 0.17843 0.97511 0.00109 0.0
C4281 C 0.17764 0.98221 0.01637 0.0
C4282 C 0.16548 0.97218 0.98949 0.0
C4283 C 0.16603 0.96463 0.97319 0.0
C4284 C 0.17744 0.97053 0.96382 0.0
C4285 C 0.17876 0.96264 0.94909 0.0
C4286 C 0.16866 0.94891 0.94353 0.0
C4287 C 0.15715 0.94309 0.95265 0.0
C4288 C 0.15579 0.95092 0.96741 0.0
C4289 C 0.12349 0.00656 0.0244 0.0
C4290 C 0.11169 0.99487 0.02738 0.0
C4291 C 0.13595 0.00283 0.01723 0.0
C4292 C 0.13656 0.98742 0.01287 0.0
C4293 C 0.12417 0.97583 0.0146 0.0
C4294 C 0.11182 0.97954 0.02203 0.0
C4295 C 0.15102 0.98328 0.00896 0.0
C4296 C 0.15181 0.97627 0.99362 0.0
C4297 C 0.16399 0.98616 0.02056 0.0
C4298 C 0.16347 0.99256 0.03732 0.0
C4299 C 0.15281 0.98527 0.04673 0.0
C4300 C 0.15246 0.99132 0.06251 0.0
C4301 C 0.1629 0.00451 0.06913 0.0
C4302 C 0.17372 0.01166 0.05999 0.0
C4303 C 0.17404 0.00573 0.04416 0.0
H4304 H 0.16265 0.00914 0.08138 0.0
H4305 H 0.16976 0.94278 0.93217 0.0
H4306 H 0.69327 0.59605 0.01896 0.0
H4307 H 0.66769 0.58077 0.01949 0.0
H4308 H 0.65008 0.60313 0.98071 0.0
H4309 H 0.67566 0.61858 0.98021 0.0
H4310 H 0.63201 0.60265 0.00478 0.0
H4311 H 0.65365 0.56633 0.97413 0.0
H4312 H 0.67253 0.55038 0.96719 0.0
H4313 H 0.66613 0.52768 0.00928 0.0
H4314 H 0.64736 0.54367 0.0166 0.0
H4315 H 0.55824 0.55475 0.99311 0.0
H4316 H 0.58364 0.56874 0.98998 0.0
H4317 H 0.60375 0.54422 0.02542 0.0
H4318 H 0.57822 0.52984 0.02837 0.0
H4319 H 0.6205 0.54588 0.00181 0.0
H4320 H 0.59943 0.58408 0.03281 0.0
H4321 H 0.58136 0.6012 0.03923 0.0
H4322 H 0.5865 0.62044 0.99501 0.0
H4323 H 0.60473 0.60361 0.9884 0.0
C4324 C 0.68397 0.59771 0.01051 0.0
C4325 C 0.68655 0.60861 -0.00042 0.0
C4326 C 0.66935 0.58886 0.01074 0.0
C4327 C 0.65691 0.59071 9e-05 0.0
C4328 C 0.65947 0.60146 0.98903 0.0
C4329 C 0.67414 0.61022 0.98869 0.0
C4330 C 0.64114 0.58199 0.00107 0.0
C4331 C 0.62944 0.59021 0.00389 0.0
C4332 C 0.63779 0.56578 0.00022 0.0
C4333 C 0.64923 0.55632 0.99601 0.0
C4334 C 0.65639 0.55806 0.982 0.0
C4335 C 0.66704 0.54898 0.97798 0.0
C4336 C 0.67056 0.53806 0.98781 0.0
C4337 C 0.66342 0.53617 0.00169 0.0
C4338 C 0.65277 0.54523 0.00578 0.0
C4339 C 0.56803 0.55229 0.0003 0.0
C4340 C 0.56611 0.54109 0.01101 0.0
C4341 C 0.58262 0.56044 -0.00144 0.0
C4342 C 0.59572 0.55783 0.00767 0.0
C4343 C 0.59387 0.54654 0.01827 0.0
C4344 C 0.57924 0.53828 0.01994 0.0
C4345 C 0.61134 0.56654 0.00579 0.0
C4346 C 0.62304 0.55831 0.00274 0.0
C4347 C 0.61467 0.58277 0.00631 0.0
C4348 C 0.60328 0.59245 0.01002 0.0
C4349 C 0.59657 0.59185 0.02438 0.0
C4350 C 0.58633 0.60152 0.02807 0.0
C4351 C 0.58266 0.61177 0.01747 0.0
C4352 C 0.58929 0.61245 0.00319 0.0
C4353 C 0.59962 0.60289 -0.00051 0.0
H4354 H 0.57474 0.61924 0.02037 0.0
H4355 H 0.6788 0.53102 0.98466 0.0
H4356 H 0.69726 0.47418 0.27437 0.0
H4357 H 0.71072 0.45252 0.2733 0.0
H4358 H 0.6686 0.42191 0.27857 0.0
H4359 H 0.65537 0.44379 0.28055 0.0
H4360 H 0.69019 0.41309 0.29469 0.0
H4361 H 0.6843 0.42607 0.24118 0.0
H4362 H 0.68636 0.44255 0.21935 0.0
H4363 H 0.73546 0.45183 0.22938 0.0
H4364 H 0.73367 0.43556 0.2514 0.0
H4365 H 0.70959 0.3445 0.25795 0.0
H4366 H 0.69919 0.36694 0.26731 0.0
H4367 H 0.74403 0.39537 0.26938 0.0
H4368 H 0.75446 0.37278 0.26 0.0
H4369 H 0.72222 0.40561 0.25082 0.0
H4370 H 0.72686 0.39029 0.30388 0.0
H4371 H 0.72327 0.37247 0.3244 0.0
H4372 H 0.6744 0.36558 0.31294 0.0
H4373 H 0.6777 0.38328 0.29227 0.0
C4374 C 0.69094 0.46282 0.27539 0.0
C4375 C 0.6753 0.46061 0.27749 0.0
C4376 C 0.69859 0.45041 0.27466 0.0
C4377 C 0.69064 0.43544 0.27547 0.0
C4378 C 0.67503 0.43329 0.27788 0.0
C4379 C 0.66746 0.44578 0.27899 0.0
C4380 C 0.69856 0.42206 0.27373 0.0
C4381 C 0.69706 0.4114 0.28498 0.0
C4382 C 0.70776 0.41986 0.26122 0.0
C4383 C 0.70884 0.42974 0.24806 0.0
C4384 C 0.69553 0.43173 0.23881 0.0
C4385 C 0.69665 0.44102 0.22639 0.0
C4386 C 0.71103 0.44827 0.22301 0.0
C4387 C 0.72432 0.44623 0.23203 0.0
C4388 C 0.72326 0.43697 0.24447 0.0
C4389 C 0.7173 0.35547 0.26093 0.0
C4390 C 0.73281 0.35696 0.25836 0.0
C4391 C 0.71137 0.36828 0.26629 0.0
C4392 C 0.72083 0.38286 0.2691 0.0
C4393 C 0.73654 0.38422 0.26735 0.0
C4394 C 0.74252 0.37133 0.26212 0.0
C4395 C 0.71391 0.39677 0.27181 0.0
C4396 C 0.7155 0.40744 0.26063 0.0
C4397 C 0.70454 0.39877 0.28415 0.0
C4398 C 0.70254 0.38802 0.29646 0.0
C4399 C 0.71535 0.38488 0.30566 0.0
C4400 C 0.71337 0.37483 0.31734 0.0
C4401 C 0.69862 0.36788 0.31995 0.0
C4402 C 0.68582 0.37098 0.31091 0.0
C4403 C 0.68774 0.38104 0.29923 0.0
H4404 H 0.69711 0.3601 0.32901 0.0
H4405 H 0.71187 0.45544 0.21338 0.0
H4406 H 0.86541 0.445 0.50161 0.0
H4407 H 0.89301 0.455 0.5053 0.0
H4408 H 0.88453 0.50038 0.51931 0.0
H4409 H 0.85669 0.49027 0.51551 0.0
H4410 H 0.90468 0.49783 0.4956 0.0
H4411 H 0.89653 0.48152 0.54754 0.0
H4412 H 0.8867 0.46282 0.56555 0.0
H4413 H 0.91435 0.43181 0.54723 0.0
H4414 H 0.92419 0.45026 0.52895 0.0
H4415 H 0.9796 0.53249 0.51961 0.0
H4416 H 0.9526 0.52262 0.52187 0.0
H4417 H 0.96029 0.47624 0.51244 0.0
H4418 H 0.98745 0.4862 0.51046 0.0
H4419 H 0.94036 0.47907 0.53443 0.0
H4420 H 0.94564 0.49102 0.48087 0.0
H4421 H 0.95153 0.50497 0.45769 0.0
H4422 H 0.92816 0.54029 0.47506 0.0
H4423 H 0.92212 0.52653 0.49831 0.0
C4424 C 0.86957 0.45711 0.50542 0.0
C4425 C 0.85941 0.46705 0.50834 0.0
C4426 C 0.88514 0.46272 0.50764 0.0
C4427 C 0.8905 0.47824 0.51288 0.0
C4428 C 0.88032 0.4883 0.51546 0.0
C4429 C 0.86465 0.48264 0.51326 0.0
C4430 C 0.90684 0.48402 0.5149 0.0
C4431 C 0.91255 0.49411 0.50434 0.0
C4432 C 0.91679 0.47825 0.52572 0.0
C4433 C 0.91104 0.46724 0.53685 0.0
C4434 C 0.90044 0.47068 0.5473 0.0
C4435 C 0.89488 0.46013 0.55756 0.0
C4436 C 0.89989 0.44613 0.55753 0.0
C4437 C 0.91049 0.44266 0.54725 0.0
C4438 C 0.91608 0.45317 0.53696 0.0
C4439 C 0.97554 0.5202 0.51869 0.0
C4440 C 0.9852 0.50995 0.51502 0.0
C4441 C 0.96024 0.51462 0.51974 0.0
C4442 C 0.95464 0.49882 0.51685 0.0
C4443 C 0.9646 0.48849 0.51456 0.0
C4444 C 0.97999 0.49411 0.51362 0.0
C4445 C 0.93824 0.49326 0.51537 0.0
C4446 C 0.93253 0.48305 0.52589 0.0
C4447 C 0.92824 0.4986 0.50419 0.0
C4448 C 0.93361 0.50785 0.49143 0.0
C4449 C 0.94205 0.50192 0.47992 0.0
C4450 C 0.9453 0.50973 0.46669 0.0
C4451 C 0.94019 0.52349 0.4649 0.0
C4452 C 0.93209 0.52962 0.47646 0.0
C4453 C 0.92875 0.52183 0.48965 0.0
H4454 H 0.94239 0.52935 0.4545 0.0
H4455 H 0.89557 0.43798 0.56548 0.0
H4456 H 0.31198 0.06299 0.28287 0.0
H4457 H 0.30212 0.08673 0.27964 0.0
H4458 H 0.34868 0.11227 0.28498 0.0
H4459 H 0.35833 0.08881 0.28895 0.0
H4460 H 0.33183 0.127 0.3012 0.0
H4461 H 0.32836 0.10139 0.24835 0.0
H4462 H 0.32061 0.08045 0.22633 0.0
H4463 H 0.27318 0.08188 0.23015 0.0
H4464 H 0.28065 0.10272 0.25234 0.0
H4465 H 0.32492 0.18816 0.25305 0.0
H4466 H 0.33106 0.1665 0.26665 0.0
H4467 H 0.2831 0.15162 0.27152 0.0
H4468 H 0.27692 0.17319 0.25802 0.0
H4469 H 0.29791 0.13123 0.25257 0.0
H4470 H 0.30478 0.1601 0.30556 0.0
H4471 H 0.3157 0.18135 0.32661 0.0
H4472 H 0.36123 0.17485 0.3192 0.0
H4473 H 0.35057 0.15358 0.29812 0.0
C4474 C 0.31992 0.07383 0.28372 0.0
C4475 C 0.33574 0.07449 0.28646 0.0
C4476 C 0.31438 0.08722 0.28171 0.0
C4477 C 0.32474 0.10109 0.28201 0.0
C4478 C 0.34057 0.10164 0.2849 0.0
C4479 C 0.34605 0.08838 0.28723 0.0
C4480 C 0.31927 0.11517 0.27921 0.0
C4481 C 0.32445 0.12797 0.29053 0.0
C4482 C 0.30959 0.11621 0.26533 0.0
C4483 C 0.30506 0.10347 0.25218 0.0
C4484 C 0.31627 0.09712 0.24462 0.0
C4485 C 0.31193 0.0853 0.23208 0.0
C4486 C 0.29641 0.07979 0.22689 0.0
C4487 C 0.2852 0.08613 0.23421 0.0
C4488 C 0.28948 0.09795 0.24677 0.0
C4489 C 0.3158 0.18034 0.25725 0.0
C4490 C 0.3005 0.18205 0.25437 0.0
C4491 C 0.3193 0.16822 0.26519 0.0
C4492 C 0.30749 0.15772 0.27012 0.0
C4493 C 0.2923 0.15983 0.26793 0.0
C4494 C 0.28881 0.17201 0.26015 0.0
C4495 C 0.3106 0.14307 0.2745 0.0
C4496 C 0.30503 0.13015 0.26338 0.0
C4497 C 0.32047 0.14206 0.28819 0.0
C4498 C 0.32688 0.1554 0.30017 0.0
C4499 C 0.31712 0.16336 0.30828 0.0
C4500 C 0.32326 0.17534 0.32028 0.0
C4501 C 0.33915 0.17948 0.32421 0.0
C4502 C 0.34893 0.17165 0.31614 0.0
C4503 C 0.34285 0.15962 0.30419 0.0
H4504 H 0.34387 0.18872 0.33353 0.0
H4505 H 0.29307 0.07066 0.21716 0.0
H4506 H 0.31968 0.09653 0.50487 0.0
H4507 H 0.34139 0.08308 0.50582 0.0
H4508 H 0.37251 0.12617 0.5059 0.0
H4509 H 0.35063 0.13943 0.504 0.0
H4510 H 0.38216 0.10602 0.48842 0.0
H4511 H 0.36612 0.10692 0.54085 0.0
H4512 H 0.34825 0.10265 0.56123 0.0
H4513 H 0.33967 0.05416 0.54661 0.0
H4514 H 0.35733 0.05817 0.526 0.0
H4515 H 0.44942 0.08482 0.52496 0.0
H4516 H 0.42707 0.09538 0.51585 0.0
H4517 H 0.3991 0.05003 0.51006 0.0
H4518 H 0.4216 0.03944 0.51939 0.0
H4519 H 0.38742 0.07005 0.52899 0.0
H4520 H 0.40516 0.07027 0.47686 0.0
H4521 H 0.42421 0.07577 0.45785 0.0
H4522 H 0.43145 0.12383 0.47438 0.0
H4523 H 0.41239 0.1186 0.49347 0.0
C4524 C 0.33117 0.10305 0.50499 0.0
C4525 C 0.33356 0.11896 0.50438 0.0
C4526 C 0.34359 0.09541 0.50567 0.0
C4527 C 0.3587 0.10361 0.50629 0.0
C4528 C 0.36102 0.11954 0.50545 0.0
C4529 C 0.34855 0.12712 0.50439 0.0
C4530 C 0.37204 0.09563 0.50787 0.0
C4531 C 0.38334 0.09827 0.49741 0.0
C4532 C 0.37359 0.08529 0.51941 0.0
C4533 C 0.36292 0.08287 0.53176 0.0
C4534 C 0.36033 0.09536 0.5419 0.0
C4535 C 0.35025 0.09298 0.55351 0.0
C4536 C 0.34279 0.07814 0.55518 0.0
C4537 C 0.34543 0.06565 0.54528 0.0
C4538 C 0.35547 0.06797 0.53364 0.0
C4539 C 0.4386 0.07706 0.52121 0.0
C4540 C 0.4372 0.06134 0.52279 0.0
C4541 C 0.42582 0.08309 0.51599 0.0
C4542 C 0.41137 0.07351 0.51221 0.0
C4543 C 0.41014 0.05763 0.51287 0.0
C4544 C 0.423 0.05156 0.51805 0.0
C4545 C 0.39742 0.08038 0.50951 0.0
C4546 C 0.38608 0.07764 0.51987 0.0
C4547 C 0.396 0.09083 0.49811 0.0
C4548 C 0.40743 0.09402 0.48664 0.0
C4549 C 0.41087 0.08199 0.47649 0.0
C4550 C 0.42165 0.08507 0.46569 0.0
C4551 C 0.42909 0.10013 0.46495 0.0
C4552 C 0.42569 0.11216 0.47496 0.0
C4553 C 0.41485 0.10916 0.48573 0.0
H4554 H 0.43746 0.10248 0.4566 0.0
H4555 H 0.335 0.07632 0.56418 0.0
H4556 H 0.67364 0.61827 0.30006 0.0
H4557 H 0.68904 0.64383 0.29916 0.0
H4558 H 0.71325 0.6252 0.26254 0.0
H4559 H 0.69795 0.59966 0.26339 0.0
H4560 H 0.73273 0.6457 0.28627 0.0
H4561 H 0.68557 0.64358 0.25214 0.0
H4562 H 0.65744 0.63957 0.24619 0.0
H4563 H 0.65581 0.67577 0.28287 0.0
H4564 H 0.68394 0.67985 0.2892 0.0
H4565 H 0.76697 0.71452 0.25647 0.0
H4566 H 0.75265 0.68888 0.25932 0.0
H4567 H 0.72478 0.70909 0.29113 0.0
H4568 H 0.73889 0.73449 0.2884 0.0
H4569 H 0.70695 0.6879 0.27059 0.0
H4570 H 0.75238 0.69016 0.30588 0.0
H4571 H 0.78028 0.69465 0.31388 0.0
H4572 H 0.78488 0.65917 0.27765 0.0
H4573 H 0.75698 0.65452 0.26939 0.0
C4574 C 0.68236 0.6196 0.29194 0.0
C4575 C 0.68451 0.60693 0.28174 0.0
C4576 C 0.69109 0.63423 0.29137 0.0
C4577 C 0.70223 0.63647 0.28069 0.0
C4578 C 0.70471 0.62377 0.27085 0.0
C4579 C 0.69589 0.60919 0.27128 0.0
C4580 C 0.71105 0.65208 0.27941 0.0
C4581 C 0.7271 0.65487 0.28265 0.0
C4582 C 0.70371 0.66421 0.27517 0.0
C4583 C 0.68684 0.66191 0.27125 0.0
C4584 C 0.6792 0.65061 0.25902 0.0
C4585 C 0.66326 0.64833 0.25556 0.0
C4586 C 0.65484 0.65738 0.26417 0.0
C4587 C 0.66235 0.66876 0.27622 0.0
C4588 C 0.67829 0.67106 0.27974 0.0
C4589 C 0.75797 0.71346 0.26426 0.0
C4590 C 0.75421 0.7266 0.27226 0.0
C4591 C 0.74972 0.69881 0.26584 0.0
C4592 C 0.73762 0.697 0.27551 0.0
C4593 C 0.73396 0.71011 0.28355 0.0
C4594 C 0.74215 0.72468 0.28199 0.0
C4595 C 0.72869 0.68151 0.27728 0.0
C4596 C 0.7126 0.67874 0.27419 0.0
C4597 C 0.73595 0.66947 0.28193 0.0
C4598 C 0.75265 0.67207 0.28695 0.0
C4599 C 0.75937 0.68336 0.29958 0.0
C4600 C 0.77516 0.68591 0.30418 0.0
C4601 C 0.78435 0.67723 0.29625 0.0
C4602 C 0.77774 0.6659 0.28377 0.0
C4603 C 0.76194 0.66327 0.27916 0.0
H4604 H 0.79659 0.67926 0.29979 0.0
H4605 H 0.6425 0.6556 0.26148 0.0
H4606 H 0.80327 0.4359 0.76707 0.0
H4607 H 0.7942 0.40803 0.76604 0.0
H4608 H 0.83926 0.40288 0.78583 0.0
H4609 H 0.84823 0.43054 0.78685 0.0
H4610 H 0.82828 0.38488 0.75744 0.0
H4611 H 0.81325 0.39796 0.80831 0.0
H4612 H 0.80125 0.41299 0.82773 0.0
H4613 H 0.75693 0.39536 0.80173 0.0
H4614 H 0.76871 0.38047 0.78191 0.0
H4615 H 0.80701 0.30689 0.77225 0.0
H4616 H 0.81751 0.33399 0.77152 0.0
H4617 H 0.77274 0.34132 0.75341 0.0
H4618 H 0.76222 0.31415 0.75436 0.0
H4619 H 0.78457 0.35812 0.78261 0.0
H4620 H 0.80144 0.34728 0.73026 0.0
H4621 H 0.81485 0.33374 0.71093 0.0
H4622 H 0.85701 0.34708 0.74206 0.0
H4623 H 0.84386 0.36087 0.76152 0.0
C4624 C 0.81103 0.42869 0.7713 0.0
C4625 C 0.82628 0.4349 0.77701 0.0
C4626 C 0.80592 0.41299 0.77082 0.0
C4627 C 0.81616 0.40371 0.77597 0.0
C4628 C 0.83132 0.41006 0.78193 0.0
C4629 C 0.83637 0.42567 0.78248 0.0
C4630 C 0.81144 0.38718 0.77379 0.0
C4631 C 0.81884 0.37895 0.76307 0.0
C4632 C 0.79915 0.37978 0.78121 0.0
C4633 C 0.7919 0.38819 0.7935 0.0
C4634 C 0.80095 0.39735 0.80665 0.0
C4635 C 0.79419 0.40585 0.81774 0.0
C4636 C 0.77834 0.40517 0.81594 0.0
C4637 C 0.76921 0.3959 0.8031 0.0
C4638 C 0.77593 0.38741 0.79193 0.0
C4639 C 0.79971 0.31416 0.7672 0.0
C4640 C 0.78401 0.30875 0.76307 0.0
C4641 C 0.80562 0.32957 0.76696 0.0
C4642 C 0.79577 0.33945 0.76251 0.0
C4643 C 0.78037 0.3337 0.75687 0.0
C4644 C 0.77446 0.31829 0.75719 0.0
C4645 C 0.80107 0.35593 0.76578 0.0
C4646 C 0.79394 0.3641 0.77693 0.0
C4647 C 0.81378 0.36331 0.75898 0.0
C4648 C 0.82168 0.35504 0.74732 0.0
C4649 C 0.81356 0.34726 0.733 0.0
C4650 C 0.82111 0.33956 0.72202 0.0
C4651 C 0.83676 0.33948 0.72529 0.0
C4652 C 0.8449 0.34715 0.73954 0.0
C4653 C 0.83742 0.35498 0.7505 0.0
H4654 H 0.84262 0.33356 0.71676 0.0
H4655 H 0.77312 0.41179 0.82452 0.0
H4656 H 0.06515 0.86368 0.06234 0.0
H4657 H 0.06317 0.88788 0.05189 0.0
H4658 H 0.01399 0.87728 0.05087 0.0
H4659 H 0.01573 0.8525 0.06 0.0
H4660 H 0.01899 0.89153 0.02702 0.0
H4661 H 0.0419 0.90332 0.08196 0.0
H4662 H 0.06139 0.90329 0.10467 0.0
H4663 H 0.09639 0.9264 0.07921 0.0
H4664 H 0.07715 0.92634 0.05625 0.0
H4665 H 0.00439 0.96808 0.0269 0.0
H4666 H 0.00721 0.94243 0.03296 0.0
H4667 H 0.0558 0.95402 0.02987 0.0
H4668 H 0.05296 0.97967 0.02355 0.0
H4669 H 0.0519 0.93927 0.05453 0.0
H4670 H 0.029 0.92923 0.00043 0.0
H4671 H 0.00979 0.92939 0.97752 0.0
H4672 H 0.97501 0.90324 0.00093 0.0
H4673 H 0.99392 0.9032 0.02414 0.0
C4674 C 0.05382 0.86624 0.05969 0.0
C4675 C 0.04064 0.85583 0.06243 0.0
C4676 C 0.05272 0.88041 0.05389 0.0
C4677 C 0.03843 0.88498 0.05096 0.0
C4678 C 0.02524 0.8744 0.05315 0.0
C4679 C 0.0263 0.86014 0.05868 0.0
C4680 C 0.03714 0.90071 0.04591 0.0
C4681 C 0.02609 0.90194 0.03325 0.0
C4682 C 0.0466 0.91456 0.05349 0.0
C4683 C 0.05812 0.91468 0.06734 0.0
C4684 C 0.05377 0.90831 0.08118 0.0
C4685 C 0.06477 0.90831 0.09409 0.0
C4686 C 0.08012 0.9148 0.09336 0.0
C4687 C 0.0845 0.92134 0.07974 0.0
C4688 C 0.07356 0.92133 0.06678 0.0
C4689 C 0.01562 0.96515 0.02709 0.0
C4690 C 0.02831 0.97608 0.02425 0.0
C4691 C 0.01727 0.95034 0.03068 0.0
C4692 C 0.03171 0.9459 0.03166 0.0
C4693 C 0.04446 0.9569 0.02912 0.0
C4694 C 0.0428 0.97168 0.02544 0.0
C4695 C 0.03362 0.93009 0.03584 0.0
C4696 C 0.0448 0.92885 0.04831 0.0
C4697 C 0.02428 0.91627 0.02806 0.0
C4698 C 0.01287 0.91634 0.01412 0.0
C4699 C 0.01722 0.92364 0.00077 0.0
C4700 C 0.00639 0.92369 0.98772 0.0
C4701 C 0.9912 0.91632 0.98777 0.0
C4702 C 0.98679 0.90894 0.00091 0.0
C4703 C 0.99756 0.90891 0.01402 0.0
H4704 H 0.98286 0.91628 0.97761 0.0
H4705 H 0.08862 0.91479 0.10337 0.0
H4706 H 0.91503 0.26817 0.88857 0.0
H4707 H 0.89109 0.26828 0.87166 0.0
H4708 H 0.90744 0.2436 0.8326 0.0
H4709 H 0.93125 0.24311 0.84968 0.0
H4710 H 0.89498 0.26905 0.82348 0.0
H4711 H 0.87985 0.22491 0.8503 0.0
H4712 H 0.8763 0.21008 0.87326 0.0
H4713 H 0.84786 0.24019 0.89171 0.0
H4714 H 0.85139 0.25533 0.86894 0.0
H4715 H 0.82504 0.2591 0.77219 0.0
H4716 H 0.84819 0.25548 0.78777 0.0
H4717 H 0.82879 0.26662 0.83118 0.0
H4718 H 0.8051 0.26897 0.81552 0.0
H4719 H 0.84355 0.24698 0.83756 0.0
H4720 H 0.85973 0.29222 0.81159 0.0
H4721 H 0.86365 0.30738 0.78888 0.0
H4722 H 0.89059 0.27625 0.76937 0.0
H4723 H 0.88668 0.26082 0.79186 0.0
C4724 C 0.9135 0.26271 0.8764 0.0
C4725 C 0.92511 0.25563 0.87052 0.0
C4726 C 0.89975 0.26272 0.86672 0.0
C4727 C 0.89729 0.25593 0.85076 0.0
C4728 C 0.90893 0.24892 0.84483 0.0
C4729 C 0.92255 0.24859 0.85463 0.0
C4730 C 0.88277 0.25647 0.84025 0.0
C4731 C 0.88373 0.26406 0.82646 0.0
C4732 C 0.86799 0.25028 0.84417 0.0
C4733 C 0.86602 0.24135 0.858 0.0
C4734 C 0.87297 0.22847 0.85934 0.0
C4735 C 0.87093 0.21998 0.8723 0.0
C4736 C 0.8619 0.22421 0.88396 0.0
C4737 C 0.85487 0.23694 0.88268 0.0
C4738 C 0.85688 0.24547 0.86974 0.0
C4739 C 0.82568 0.26098 0.78501 0.0
C4740 C 0.81317 0.26496 0.79236 0.0
C4741 C 0.83913 0.25897 0.79406 0.0
C4742 C 0.84085 0.26136 0.81089 0.0
C4743 C 0.82814 0.26486 0.81829 0.0
C4744 C 0.8145 0.26638 0.80922 0.0
C4745 C 0.85559 0.25993 0.82079 0.0
C4746 C 0.85472 0.2521 0.83451 0.0
C4747 C 0.87049 0.26605 0.81686 0.0
C4748 C 0.87278 0.27529 0.80332 0.0
C4749 C 0.8664 0.28856 0.8024 0.0
C4750 C 0.86863 0.29721 0.78957 0.0
C4751 C 0.87733 0.29276 0.77767 0.0
C4752 C 0.88384 0.27967 0.77858 0.0
C4753 C 0.88163 0.27098 0.79137 0.0
H4754 H 0.87905 0.29947 0.76776 0.0
H4755 H 0.86031 0.21761 0.89398 0.0
H4756 H 0.55973 0.20103 0.55337 0.0
H4757 H 0.55767 0.17381 0.54453 0.0
H4758 H 0.5098 0.16575 0.55172 0.0
H4759 H 0.51196 0.19274 0.56144 0.0
H4760 H 0.52112 0.14495 0.56374 0.0
H4761 H 0.52442 0.16334 0.51277 0.0
H4762 H 0.53476 0.17859 0.49204 0.0
H4763 H 0.57642 0.16077 0.49757 0.0
H4764 H 0.5664 0.14553 0.51845 0.0
H4765 H 0.5038 0.06734 0.52881 0.0
H4766 H 0.50544 0.09502 0.5336 0.0
H4767 H 0.55444 0.10195 0.5328 0.0
H4768 H 0.55285 0.07413 0.5283 0.0
H4769 H 0.54236 0.12307 0.5166 0.0
H4770 H 0.5384 0.10522 0.56838 0.0
H4771 H 0.52675 0.08911 0.58782 0.0
H4772 H 0.48471 0.10577 0.57917 0.0
H4773 H 0.49608 0.12187 0.55957 0.0
C4774 C 0.54874 0.19353 0.55318 0.0
C4775 C 0.53608 0.19938 0.55839 0.0
C4776 C 0.54751 0.17785 0.54782 0.0
C4777 C 0.53353 0.16745 0.54727 0.0
C4778 C 0.52077 0.17334 0.55199 0.0
C4779 C 0.52201 0.18897 0.55745 0.0
C4780 C 0.53241 0.15037 0.54301 0.0
C4781 C 0.52557 0.14027 0.55324 0.0
C4782 C 0.53848 0.14393 0.52954 0.0
C4783 C 0.54473 0.15345 0.51734 0.0
C4784 C 0.53586 0.16281 0.50971 0.0
C4785 C 0.54164 0.17141 0.49789 0.0
C4786 C 0.55626 0.17069 0.49353 0.0
C4787 C 0.56511 0.16135 0.50098 0.0
C4788 C 0.55938 0.15272 0.5128 0.0
C4789 C 0.51499 0.07466 0.52973 0.0
C4790 C 0.52823 0.06827 0.528 0.0
C4791 C 0.5159 0.09061 0.53247 0.0
C4792 C 0.53008 0.10078 0.53371 0.0
C4793 C 0.54331 0.09449 0.53184 0.0
C4794 C 0.5424 0.07848 0.52915 0.0
C4795 C 0.53108 0.11786 0.53733 0.0
C4796 C 0.53791 0.12788 0.52704 0.0
C4797 C 0.52487 0.12428 0.55064 0.0
C4798 C 0.51804 0.11464 0.56243 0.0
C4799 C 0.52664 0.10537 0.57056 0.0
C4800 C 0.52009 0.09625 0.58162 0.0
C4801 C 0.50498 0.09639 0.5847 0.0
C4802 C 0.4964 0.10567 0.57676 0.0
C4803 C 0.5029 0.1148 0.5657 0.0
H4804 H 0.49993 0.08933 0.59327 0.0
H4805 H 0.5607 0.17734 0.48436 0.0
H4806 H 0.56483 0.74263 0.36074 0.0
H4807 H 0.58741 0.74385 0.34626 0.0
H4808 H 0.60914 0.78542 0.37587 0.0
H4809 H 0.58682 0.78413 0.39067 0.0
H4810 H 0.61296 0.78842 0.34524 0.0
H4811 H 0.61996 0.75067 0.38069 0.0
H4812 H 0.61224 0.7269 0.39299 0.0
H4813 H 0.60792 0.70036 0.3472 0.0
H4814 H 0.61541 0.72402 0.33457 0.0
H4815 H 0.68893 0.79672 0.32951 0.0
H4816 H 0.66703 0.789 0.34431 0.0
H4817 H 0.64721 0.75371 0.30601 0.0
H4818 H 0.66933 0.76144 0.29113 0.0
H4819 H 0.64178 0.74576 0.33942 0.0
H4820 H 0.63483 0.78355 0.30407 0.0
H4821 H 0.64342 0.8073 0.29208 0.0
H4822 H 0.64754 0.8336 0.33799 0.0
H4823 H 0.63929 0.80992 0.35032 0.0
C4824 C 0.57445 0.75195 0.36439 0.0
C4825 C 0.57378 0.76326 0.37705 0.0
C4826 C 0.58743 0.75266 0.35599 0.0
C4827 C 0.60019 0.76467 0.35995 0.0
C4828 C 0.59952 0.77603 0.37245 0.0
C4829 C 0.5866 0.7753 0.3809 0.0
C4830 C 0.61415 0.76561 0.35101 0.0
C4831 C 0.61926 0.77909 0.34415 0.0
C4832 C 0.62236 0.75338 0.34909 0.0
C4833 C 0.61811 0.73912 0.35666 0.0
C4834 C 0.61727 0.73977 0.37322 0.0
C4835 C 0.61295 0.72632 0.38026 0.0
C4836 C 0.60956 0.71213 0.37088 0.0
C4837 C 0.61054 0.71136 0.35445 0.0
C4838 C 0.61483 0.72479 0.34734 0.0
C4839 C 0.68015 0.78699 0.32445 0.0
C4840 C 0.68094 0.77966 0.30917 0.0
C4841 C 0.66758 0.7826 0.33291 0.0
C4842 C 0.65531 0.77082 0.3263 0.0
C4843 C 0.65652 0.76275 0.31148 0.0
C4844 C 0.6692 0.76716 0.30297 0.0
C4845 C 0.64057 0.76863 0.33391 0.0
C4846 C 0.63534 0.75499 0.34047 0.0
C4847 C 0.63215 0.78066 0.33555 0.0
C4848 C 0.63654 0.79497 0.32812 0.0
C4849 C 0.63764 0.79439 0.31162 0.0
C4850 C 0.64246 0.80784 0.30476 0.0
C4851 C 0.64605 0.82195 0.31427 0.0
C4852 C 0.64477 0.82265 0.33065 0.0
C4853 C 0.64001 0.80923 0.33757 0.0
H4854 H 0.64979 0.83235 0.30895 0.0
H4855 H 0.6062 0.70173 0.37634 0.0
H4856 H 0.02348 0.23151 0.42606 0.0
H4857 H 0.02298 0.20912 0.44105 0.0
H4858 H 0.03734 0.18402 0.40091 0.0
H4859 H 0.03813 0.20654 0.38607 0.0
H4860 H 0.01416 0.16614 0.41351 0.0
H4861 H 0.06233 0.19818 0.43368 0.0
H4862 H 0.08017 0.2216 0.44601 0.0
H4863 H 0.05714 0.2207 0.48834 0.0
H4864 H 0.03898 0.19741 0.47616 0.0
H4865 H 0.02732 0.10317 0.45579 0.0
H4866 H 0.0336 0.12567 0.44126 0.0
H4867 H 0.01926 0.15396 0.47896 0.0
H4868 H 0.01245 0.13144 0.49311 0.0
H4869 H 0.04374 0.16975 0.46681 0.0
H4870 H 0.99532 0.13824 0.44681 0.0
H4871 H 0.97759 0.11456 0.43507 0.0
H4872 H 1.00033 0.11464 0.39255 0.0
H4873 H 0.01856 0.13808 0.40425 0.0
C4874 C 0.02654 0.22121 0.42047 0.0
C4875 C 0.0309 0.22082 0.40491 0.0
C4876 C 0.02631 0.2084 0.42906 0.0
C4877 C 0.03025 0.19478 0.42225 0.0
C4878 C 0.0343 0.19431 0.40654 0.0
C4879 C 0.0348 0.20722 0.39806 0.0
C4880 C 0.03008 0.18106 0.43144 0.0
C4881 C 0.02085 0.1669 0.42504 0.0
C4882 C 0.03849 0.18195 0.44671 0.0
C4883 C 0.04918 0.19615 0.45392 0.0
C4884 C 0.06095 0.20308 0.44554 0.0
C4885 C 0.07115 0.21631 0.45252 0.0
C4886 C 0.06976 0.22266 0.46793 0.0
C4887 C 0.05818 0.21579 0.47639 0.0
C4888 C 0.04793 0.20257 0.46946 0.0
C4889 C 0.02588 0.11424 0.46118 0.0
C4890 C 0.01924 0.11543 0.47559 0.0
C4891 C 0.02938 0.12713 0.45278 0.0
C4892 C 0.02658 0.14156 0.45876 0.0
C4893 C 0.02144 0.14302 0.47394 0.0
C4894 C 0.0177 0.13013 0.48215 0.0
C4895 C 0.02783 0.15486 0.4489 0.0
C4896 C 0.03718 0.16895 0.45521 0.0
C4897 C 0.01945 0.15391 0.43359 0.0
C4898 C 0.0085 0.13979 0.42654 0.0
C4899 C 0.9967 0.1331 0.43505 0.0
C4900 C 0.98654 0.11972 0.42839 0.0
C4901 C 0.98787 0.11306 0.4131 0.0
C4902 C 0.99936 0.11978 0.40443 0.0
C4903 C 0.00964 0.13309 0.41109 0.0
H4904 H 0.97997 0.10272 0.40795 0.0
H4905 H 0.0777 0.23288 0.47332 0.0
H4906 H 0.59184 0.23917 0.23625 0.0
H4907 H 0.61916 0.2412 0.24541 0.0
H4908 H 0.62982 0.2823 0.22243 0.0
H4909 H 0.6027 0.28025 0.21309 0.0
H4910 H 0.64774 0.26263 0.21416 0.0
H4911 H 0.63303 0.28307 0.26359 0.0
H4912 H 0.61921 0.28396 0.28746 0.0
H4913 H 0.63536 0.24401 0.30138 0.0
H4914 H 0.64913 0.24275 0.27748 0.0
H4915 H 0.72685 0.28545 0.23976 0.0
H4916 H 0.69923 0.28392 0.23502 0.0
H4917 H 0.69195 0.24594 0.26317 0.0
H4918 H 0.71965 0.24813 0.26882 0.0
H4919 H 0.67201 0.2629 0.26936 0.0
H4920 H 0.68611 0.2419 0.21995 0.0
H4921 H 0.70048 0.24111 0.19646 0.0
H4922 H 0.68521 0.28154 0.1826 0.0
H4923 H 0.67092 0.28268 0.20613 0.0
C4924 C 0.59997 0.24869 0.23317 0.0
C4925 C 0.59486 0.2595 0.2238 0.0
C4926 C 0.61565 0.24993 0.23859 0.0
C4927 C 0.62673 0.26195 0.23471 0.0
C4928 C 0.62162 0.27291 0.22566 0.0
C4929 C 0.60598 0.27176 0.22038 0.0
C4930 C 0.64369 0.26252 0.2388 0.0
C4931 C 0.65302 0.2629 0.2263 0.0
C4932 C 0.65071 0.26233 0.25455 0.0
C4933 C 0.64192 0.26268 0.26858 0.0
C4934 C 0.63345 0.27433 0.2716 0.0
C4935 C 0.62568 0.27494 0.28518 0.0
C4936 C 0.62635 0.26401 0.29589 0.0
C4937 C 0.63481 0.25244 0.29305 0.0
C4938 C 0.6426 0.25178 0.27948 0.0
C4939 C 0.71946 0.27668 0.24494 0.0
C4940 C 0.72577 0.26659 0.25436 0.0
C4941 C 0.70351 0.27575 0.2421 0.0
C4942 C 0.69321 0.26452 0.24831 0.0
C4943 C 0.69945 0.25463 0.258 0.0
C4944 C 0.71545 0.25571 0.26103 0.0
C4945 C 0.67606 0.26318 0.24469 0.0
C4946 C 0.6667 0.26259 0.25724 0.0
C4947 C 0.66891 0.26306 0.22896 0.0
C4948 C 0.67756 0.26244 0.21487 0.0
C4949 C 0.68591 0.25068 0.21195 0.0
C4950 C 0.69403 0.25016 0.19862 0.0
C4951 C 0.69378 0.26128 0.18806 0.0
C4952 C 0.68541 0.27294 0.1908 0.0
C4953 C 0.67729 0.27352 0.20412 0.0
H4954 H 0.70006 0.26085 0.17774 0.0
H4955 H 0.62037 0.26453 0.30643 0.0
H4956 H 0.55196 0.86334 0.93201 0.0
H4957 H 0.55133 0.88719 0.94894 0.0
H4958 H 0.5233 0.90151 0.91103 0.0
H4959 H 0.52364 0.87761 0.89425 0.0
H4960 H 0.54736 0.92527 0.92551 0.0
H4961 H 0.50729 0.88782 0.94152 0.0
H4962 H 0.49651 0.86371 0.95181 0.0
H4963 H 0.52667 0.8771 0.99541 0.0
H4964 H 0.53783 0.90119 0.98525 0.0
H4965 H 0.52322 0.98856 0.96549 0.0
H4966 H 0.52534 0.96489 0.94993 0.0
H4967 H 0.53992 0.9467 0.99304 0.0
H4968 H 0.53626 0.96984 0.00871 0.0
H4969 H 0.52412 0.92444 0.97646 0.0
H4970 H 0.56574 0.96059 0.96101 0.0
H4971 H 0.57707 0.98511 0.95174 0.0
H4972 H 0.54538 0.97475 0.90906 0.0
H4973 H 0.53425 0.94997 0.91778 0.0
C4974 C 0.5457 0.87159 0.92726 0.0
C4975 C 0.53779 0.86846 0.91174 0.0
C4976 C 0.54529 0.88523 0.937 0.0
C4977 C 0.5372 0.89626 0.93137 0.0
C4978 C 0.52961 0.89328 0.91574 0.0
C4979 C 0.52975 0.87953 0.90615 0.0
C4980 C 0.53645 0.9108 0.9417 0.0
C4981 C 0.54219 0.92506 0.93661 0.0
C4982 C 0.53014 0.91074 0.95647 0.0
C4983 C 0.52353 0.89621 0.96253 0.0
C4984 C 0.51175 0.88554 0.95322 0.0
C4985 C 0.50555 0.8719 0.95905 0.0
C4986 C 0.51094 0.86885 0.97423 0.0
C4987 C 0.52253 0.87946 0.98363 0.0
C4988 C 0.5288 0.89311 0.97784 0.0
C4989 C 0.52656 0.97947 0.97181 0.0
C4990 C 0.52885 0.9811 0.98864 0.0
C4991 C 0.52817 0.96588 0.96274 0.0
C4992 C 0.53312 0.95374 0.97005 0.0
C4993 C 0.53592 0.95559 0.98685 0.0
C4994 C 0.53374 0.96895 0.99594 0.0
C4995 C 0.53503 0.9391 0.96033 0.0
C4996 C 0.5295 0.92476 0.9655 0.0
C4997 C 0.54185 0.93907 0.94579 0.0
C4998 C 0.54916 0.95348 0.94006 0.0
C4999 C 0.56132 0.96349 0.94956 0.0
C5000 C 0.56775 0.9774 0.94436 0.0
C5001 C 0.56206 0.98142 0.92971 0.0
C5002 C 0.54999 0.9715 0.92021 0.0
C5003 C 0.54369 0.95748 0.92522 0.0
H5004 H 0.56693 0.99224 0.92576 0.0
H5005 H 0.5061 0.85829 0.97873 0.0
H5006 H 0.94713 0.76776 0.74078 0.0
H5007 H 0.92229 0.76977 0.75052 0.0
H5008 H 0.89902 0.7378 0.71073 0.0
H5009 H 0.92379 0.73542 0.70126 0.0
H5010 H 0.88693 0.76484 0.71439 0.0
H5011 H 0.89988 0.72668 0.74669 0.0
H5012 H 0.9148 0.715 0.76653 0.0
H5013 H 0.91232 0.75153 0.8025 0.0
H5014 H 0.89756 0.76356 0.7828 0.0
H5015 H 0.81008 0.75125 0.73342 0.0
H5016 H 0.83583 0.74875 0.72723 0.0
H5017 H 0.85535 0.77659 0.77123 0.0
H5018 H 0.82954 0.77899 0.77761 0.0
H5019 H 0.87008 0.75273 0.76667 0.0
H5020 H 0.85752 0.79107 0.73525 0.0
H5021 H 0.84257 0.80328 0.71594 0.0
H5022 H 0.84497 0.76763 0.67894 0.0
H5023 H 0.85973 0.75505 0.69811 0.0
C5024 C 0.93672 0.76104 0.73419 0.0
C5025 C 0.93754 0.75141 0.72019 0.0
C5026 C 0.92248 0.76214 0.73983 0.0
C5027 C 0.9086 0.75394 0.73143 0.0
C5028 C 0.90945 0.74425 0.71752 0.0
C5029 C 0.92368 0.74285 0.71211 0.0
C5030 C 0.8932 0.75615 0.73641 0.0
C5031 C 0.88321 0.76197 0.72575 0.0
C5032 C 0.88838 0.75301 0.75149 0.0
C5033 C 0.89783 0.74617 0.76318 0.0
C5034 C 0.90273 0.73237 0.75875 0.0
C5035 C 0.9111 0.72564 0.77 0.0
C5036 C 0.91456 0.73255 0.78575 0.0
C5037 C 0.90967 0.74621 0.79029 0.0
C5038 C 0.90131 0.753 0.77908 0.0
C5039 C 0.8198 0.75688 0.74184 0.0
C5040 C 0.81752 0.76543 0.75602 0.0
C5041 C 0.83464 0.75549 0.73822 0.0
C5042 C 0.84778 0.76259 0.74862 0.0
C5043 C 0.84555 0.77097 0.7629 0.0
C5044 C 0.83068 0.77242 0.76651 0.0
C5045 C 0.86372 0.76121 0.74451 0.0
C5046 C 0.87382 0.75563 0.75532 0.0
C5047 C 0.86877 0.76472 0.72963 0.0
C5048 C 0.85957 0.77202 0.71816 0.0
C5049 C 0.85471 0.78573 0.72304 0.0
C5050 C 0.8463 0.79274 0.71211 0.0
C5051 C 0.84279 0.78622 0.69623 0.0
C5052 C 0.84767 0.77266 0.69125 0.0
C5053 C 0.85605 0.76558 0.70214 0.0
H5054 H 0.83632 0.79169 0.68777 0.0
H5055 H 0.92099 0.72729 0.79445 0.0
H5056 H 0.06769 0.03253 0.8444 0.0
H5057 H 0.05644 0.03109 0.86965 0.0
H5058 H 0.09442 0.01209 0.88936 0.0
H5059 H 0.10556 0.01328 0.86412 0.0
H5060 H 0.06884 0.9968 0.89699 0.0
H5061 H 0.09051 0.05067 0.89836 0.0
H5062 H 0.09421 0.07653 0.88952 0.0
H5063 H 0.04643 0.07747 0.89158 0.0
H5064 H 0.04239 0.05152 0.90016 0.0
H5065 H 0.05809 0.00673 0.97916 0.0
H5066 H 0.06787 0.00738 0.95316 0.0
H5067 H 0.03025 0.0281 0.93564 0.0
H5068 H 0.02097 0.02833 0.96179 0.0
H5069 H 0.05473 0.04207 0.92645 0.0
H5070 H 0.0327 0.98878 0.92544 0.0
H5071 H 0.02877 0.96345 0.93549 0.0
H5072 H 0.07631 0.96148 0.93314 0.0
H5073 H 0.08058 0.98691 0.92331 0.0
C5074 C 0.07367 0.02812 0.85415 0.0
C5075 C 0.08751 0.023 0.85224 0.0
C5076 C 0.06724 0.02733 0.8686 0.0
C5077 C 0.07466 0.02164 0.88152 0.0
C5078 C 0.08844 0.01648 0.87958 0.0
C5079 C 0.09479 0.01713 0.86512 0.0
C5080 C 0.06804 0.02083 0.89701 0.0
C5081 C 0.0659 0.00676 0.9035 0.0
C5082 C 0.06376 0.03367 0.90535 0.0
C5083 C 0.06612 0.04906 0.89968 0.0
C5084 C 0.08076 0.0563 0.89672 0.0
C5085 C 0.08292 0.071 0.8918 0.0
C5086 C 0.07055 0.07861 0.88993 0.0
C5087 C 0.05599 0.07154 0.89297 0.0
C5088 C 0.05376 0.05684 0.89785 0.0
C5089 C 0.05191 0.01143 0.96976 0.0
C5090 C 0.03868 0.01736 0.97254 0.0
C5091 C 0.05743 0.01166 0.95484 0.0
C5092 C 0.04965 0.01753 0.94229 0.0
C5093 C 0.03645 0.02346 0.94507 0.0
C5094 C 0.03109 0.0235 0.96004 0.0
C5095 C 0.05554 0.01807 0.92643 0.0
C5096 C 0.05756 0.03209 0.91988 0.0
C5097 C 0.05958 0.00516 0.91799 0.0
C5098 C 0.05698 0.9898 0.92374 0.0
C5099 C 0.04233 0.98298 0.92715 0.0
C5100 C 0.04004 0.9686 0.93281 0.0
C5101 C 0.05229 0.96087 0.93498 0.0
C5102 C 0.06684 0.96748 0.93146 0.0
C5103 C 0.0692 0.98187 0.92584 0.0
H5104 H 0.05049 0.94974 0.93935 0.0
H5105 H 0.07227 0.09001 0.88617 0.0
H5106 H 0.80283 0.36007 0.56599 0.0
H5107 H 0.80065 0.34576 0.58924 0.0
H5108 H 0.76001 0.36353 0.5989 0.0
H5109 H 0.76258 0.37844 0.57629 0.0
H5110 H 0.77954 0.36453 0.62531 0.0
H5111 H 0.75762 0.32694 0.57933 0.0
H5112 H 0.75949 0.31331 0.55302 0.0
H5113 H 0.79855 0.29639 0.5728 0.0
H5114 H 0.79703 0.31004 0.59913 0.0
H5115 H 0.7808 0.31988 0.68912 0.0
H5116 H 0.7684 0.32872 0.66581 0.0
H5117 H 0.79857 0.30891 0.63631 0.0
H5118 H 0.80931 0.29824 0.65892 0.0
H5119 H 0.77557 0.30807 0.61906 0.0
H5120 H 0.80414 0.34873 0.66036 0.0
H5121 H 0.80854 0.36564 0.68583 0.0
H5122 H 0.76554 0.37992 0.67501 0.0
H5123 H 0.76069 0.36278 0.6497 0.0
C5124 C 0.79357 0.36103 0.57322 0.0
C5125 C 0.78273 0.37011 0.5693 0.0
C5126 C 0.79222 0.35276 0.58632 0.0
C5127 C 0.77991 0.35335 0.5954 0.0
C5128 C 0.76942 0.36281 0.59182 0.0
C5129 C 0.77084 0.37119 0.57888 0.0
C5130 C 0.77805 0.34428 0.60886 0.0
C5131 C 0.7785 0.35214 0.62404 0.0
C5132 C 0.77678 0.32821 0.60695 0.0
C5133 C 0.77716 0.31947 0.59122 0.0
C5134 C 0.76658 0.32028 0.57806 0.0
C5135 C 0.76761 0.31258 0.56314 0.0
C5136 C 0.77912 0.30397 0.56124 0.0
C5137 C 0.78961 0.30302 0.57428 0.0
C5138 C 0.78864 0.3107 0.58921 0.0
C5139 C 0.78438 0.31688 0.67755 0.0
C5140 C 0.79642 0.30869 0.67595 0.0
C5141 C 0.77741 0.32218 0.66426 0.0
C5142 C 0.78294 0.32006 0.64939 0.0
C5143 C 0.79413 0.31091 0.64764 0.0
C5144 C 0.80058 0.30507 0.6607 0.0
C5145 C 0.77862 0.32842 0.63592 0.0
C5146 C 0.77645 0.32043 0.6205 0.0
C5147 C 0.77923 0.34453 0.6377 0.0
C5148 C 0.78188 0.35418 0.65333 0.0
C5149 C 0.79551 0.35528 0.66354 0.0
C5150 C 0.79809 0.36493 0.67794 0.0
C5151 C 0.78729 0.37377 0.68208 0.0
C5152 C 0.77385 0.37296 0.67186 0.0
C5153 C 0.77114 0.36323 0.65754 0.0
H5154 H 0.78936 0.38131 0.69317 0.0
H5155 H 0.77992 0.29805 0.54967 0.0
H5156 H 0.45077 0.01509 0.34779 0.0
H5157 H 0.46647 0.01653 0.37345 0.0
H5158 H 0.42821 0.02562 0.39822 0.0
H5159 H 0.41269 0.02462 0.37259 0.0
H5160 H 0.45504 0.04416 0.41027 0.0
H5161 H 0.43606 0.98964 0.39388 0.0
H5162 H 0.43246 0.96547 0.37597 0.0
H5163 H 0.48129 0.9695 0.37715 0.0
H5164 H 0.48517 0.99375 0.39492 0.0
H5165 H 0.48544 0.03199 0.48657 0.0
H5166 H 0.46918 0.0317 0.46195 0.0
H5167 H 0.50142 0.01162 0.43557 0.0
H5168 H 0.51581 0.0088 0.4604 0.0
H5169 H 0.4763 0.99877 0.42438 0.0
H5170 H 0.49639 0.05365 0.43926 0.0
H5171 H 0.50079 0.07777 0.45738 0.0
H5172 H 0.45223 0.07406 0.45851 0.0
H5173 H 0.44754 0.04989 0.44047 0.0
C5174 C 0.4459 0.01755 0.35878 0.0
C5175 C 0.43074 0.0198 0.35855 0.0
C5176 C 0.45474 0.01828 0.37329 0.0
C5177 C 0.44828 0.02095 0.3875 0.0
C5178 C 0.43324 0.02355 0.38724 0.0
C5179 C 0.42448 0.02303 0.37274 0.0
C5180 C 0.45716 0.02093 0.40274 0.0
C5181 C 0.45973 0.03428 0.41348 0.0
C5182 C 0.4633 0.00803 0.40654 0.0
C5183 C 0.46088 0.99358 0.39561 0.0
C5184 C 0.44601 0.98544 0.3902 0.0
C5185 C 0.44393 0.9717 0.3801 0.0
C5186 C 0.45664 0.96597 0.3754 0.0
C5187 C 0.47146 0.97395 0.38078 0.0
C5188 C 0.4736 0.98768 0.39087 0.0
C5189 C 0.48897 0.02738 0.47552 0.0
C5190 C 0.50218 0.02086 0.47533 0.0
C5191 C 0.47982 0.02752 0.46142 0.0
C5192 C 0.48443 0.02225 0.44688 0.0
C5193 C 0.49773 0.01591 0.44668 0.0
C5194 C 0.50618 0.01464 0.46086 0.0
C5195 C 0.47496 0.02233 0.43184 0.0
C5196 C 0.47197 0.00885 0.42119 0.0
C5197 C 0.46877 0.03526 0.42799 0.0
C5198 C 0.47163 0.04994 0.43859 0.0
C5199 C 0.48666 0.05798 0.4434 0.0
C5200 C 0.4892 0.07165 0.45365 0.0
C5201 C 0.47679 0.07743 0.4591 0.0
C5202 C 0.46182 0.06958 0.45426 0.0
C5203 C 0.45921 0.05592 0.444 0.0
H5204 H 0.47878 0.088 0.46706 0.0
H5205 H 0.455 0.95532 0.36761 0.0
H5206 H 0.79626 0.70817 0.09494 0.0
H5207 H 0.79744 0.72006 0.12232 0.0
H5208 H 0.75211 0.72992 0.11212 0.0
H5209 H 0.75118 0.71884 0.08446 0.0
H5210 H 0.76916 0.75292 0.13135 0.0
H5211 H 0.7593 0.69784 0.1309 0.0
H5212 H 0.76499 0.67197 0.12481 0.0
H5213 H 0.80816 0.68533 0.15424 0.0
H5214 H 0.80283 0.71137 0.16029 0.0
H5215 H 0.75091 0.76451 0.21108 0.0
H5216 H 0.7517 0.75601 0.18303 0.0
H5217 H 0.7943 0.74089 0.19522 0.0
H5218 H 0.79267 0.74808 0.22343 0.0
H5219 H 0.77943 0.72101 0.1746 0.0
H5220 H 0.78927 0.77607 0.17575 0.0
H5221 H 0.78395 0.80218 0.18129 0.0
H5222 H 0.74159 0.78942 0.15042 0.0
H5223 H 0.74655 0.76318 0.14489 0.0
C5224 C 0.78663 0.71312 0.09836 0.0
C5225 C 0.77352 0.7123 0.08737 0.0
C5226 C 0.78725 0.71978 0.11417 0.0
C5227 C 0.77471 0.7256 0.11952 0.0
C5228 C 0.7619 0.7254 0.10842 0.0
C5229 C 0.76132 0.71887 0.09258 0.0
C5230 C 0.77462 0.73128 0.13677 0.0
C5231 C 0.77129 0.74589 0.14081 0.0
C5232 C 0.7777 0.72232 0.14925 0.0
C5233 C 0.78072 0.70657 0.14594 0.0
C5234 C 0.77003 0.69527 0.13602 0.0
C5235 C 0.7732 0.68058 0.13257 0.0
C5236 C 0.78694 0.67701 0.13911 0.0
C5237 C 0.79753 0.68811 0.14917 0.0
C5238 C 0.79444 0.70284 0.15262 0.0
C5239 C 0.76032 0.75922 0.20786 0.0
C5240 C 0.7715 0.75674 0.21969 0.0
C5241 C 0.76095 0.75456 0.19165 0.0
C5242 C 0.77323 0.74796 0.18668 0.0
C5243 C 0.78461 0.74583 0.19851 0.0
C5244 C 0.78369 0.75001 0.21474 0.0
C5245 C 0.77402 0.74279 0.16935 0.0
C5246 C 0.77743 0.72819 0.16525 0.0
C5247 C 0.7711 0.75182 0.15683 0.0
C5248 C 0.76822 0.76764 0.16002 0.0
C5249 C 0.77879 0.77882 0.17021 0.0
C5250 C 0.77584 0.79364 0.17334 0.0
C5251 C 0.76243 0.79745 0.16623 0.0
C5252 C 0.75196 0.78646 0.15593 0.0
C5253 C 0.75484 0.77162 0.15279 0.0
H5254 H 0.76017 0.80892 0.16868 0.0
H5255 H 0.78938 0.66564 0.13641 0.0
H5256 H 0.05955 0.01305 0.69938 0.0
H5257 H 0.04775 0.01269 0.67187 0.0
H5258 H 0.09279 0.0245 0.65654 0.0
H5259 H 0.10439 0.02564 0.68402 0.0
H5260 H 0.07679 0.04133 0.64414 0.0
H5261 H 0.06693 0.98724 0.64826 0.0
H5262 H 0.05674 0.96339 0.65937 0.0
H5263 H 0.01091 0.97175 0.65026 0.0
H5264 H 0.02084 0.9958 0.63936 0.0
H5265 H 0.05992 0.02325 0.56015 0.0
H5266 H 0.06783 0.02199 0.58834 0.0
H5267 H 0.02213 0.02477 0.59944 0.0
H5268 H 0.01415 0.02642 0.57104 0.0
H5269 H 0.03609 1.00076 0.61415 0.0
H5270 H 0.04698 0.05519 0.61055 0.0
H5271 H 0.05793 0.07916 0.60021 0.0
H5272 H 0.10306 0.06859 0.60766 0.0
H5273 H 0.09237 0.04463 0.61834 0.0
C5274 C 0.06687 0.01546 0.69006 0.0
C5275 C 0.08289 0.01951 0.69386 0.0
C5276 C 0.06013 0.01516 0.67428 0.0
C5277 C 0.0693 0.01849 0.66189 0.0
C5278 C 0.08534 0.02202 0.66574 0.0
C5279 C 0.09201 0.02265 0.68149 0.0
C5280 C 0.06245 0.01934 0.64514 0.0
C5281 C 0.06805 0.03227 0.63761 0.0
C5282 C 0.05063 0.00786 0.63653 0.0
C5283 C 0.04466 0.99344 0.64318 0.0
C5284 C 0.0547 0.98408 0.64877 0.0
C5285 C 0.04896 0.97051 0.65501 0.0
C5286 C 0.03319 0.96608 0.65557 0.0
C5287 C 0.02312 0.97521 0.64986 0.0
C5288 C 0.0288 0.98881 0.64366 0.0
C5289 C 0.05151 0.02365 0.56855 0.0
C5290 C 0.03638 0.02495 0.5633 0.0
C5291 C 0.05607 0.02292 0.58471 0.0
C5292 C 0.04559 0.02323 0.59607 0.0
C5293 C 0.03042 0.02446 0.5909 0.0
C5294 C 0.0259 0.02551 0.5747 0.0
C5295 C 0.05075 0.02254 0.6133 0.0
C5296 C 0.04483 0.00972 0.62084 0.0
C5297 C 0.06246 0.03396 0.62193 0.0
C5298 C 0.06886 0.04805 0.61504 0.0
C5299 C 0.05922 0.05789 0.60981 0.0
C5300 C 0.06539 0.0715 0.60391 0.0
C5301 C 0.08116 0.07532 0.60305 0.0
C5302 C 0.09083 0.06559 0.60824 0.0
C5303 C 0.08473 0.05203 0.61429 0.0
H5304 H 0.08591 0.08586 0.59847 0.0
H5305 H 0.02878 0.95556 0.66039 0.0
H5306 H 0.79885 0.37084 0.41846 0.0
H5307 H 0.79674 0.35486 0.39327 0.0
H5308 H 0.748 0.34095 0.39495 0.0
H5309 H 0.75027 0.35585 0.42108 0.0
H5310 H 0.76055 0.31739 0.38764 0.0
H5311 H 0.76308 0.36724 0.36974 0.0
H5312 H 0.77378 0.39469 0.36946 0.0
H5313 H 0.81603 0.38337 0.35598 0.0
H5314 H 0.80569 0.35589 0.35644 0.0
H5315 H 0.74965 0.29057 0.30315 0.0
H5316 H 0.74864 0.30502 0.32901 0.0
H5317 H 0.79726 0.30728 0.34074 0.0
H5318 H 0.7982 0.29225 0.31511 0.0
H5319 H 0.7829 0.33667 0.34019 0.0
H5320 H 0.78173 0.28783 0.36064 0.0
H5321 H 0.77196 0.26031 0.36157 0.0
H5322 H 0.72775 0.26996 0.37027 0.0
H5323 H 0.7372 0.29754 0.36908 0.0
C5324 C 0.78771 0.36422 0.41359 0.0
C5325 C 0.77473 0.36442 0.42172 0.0
C5326 C 0.78648 0.35536 0.39907 0.0
C5327 C 0.77216 0.3471 0.39221 0.0
C5328 C 0.7591 0.34745 0.40012 0.0
C5329 C 0.76039 0.35601 0.4149 0.0
C5330 C 0.77111 0.33731 0.37724 0.0
C5331 C 0.76513 0.32165 0.37713 0.0
C5332 C 0.7775 0.34295 0.36381 0.0
C5333 C 0.78361 0.35949 0.3632 0.0
C5334 C 0.77467 0.37061 0.36679 0.0
C5335 C 0.78068 0.38618 0.3666 0.0
C5336 C 0.79558 0.39077 0.36272 0.0
C5337 C 0.80449 0.3798 0.35898 0.0
C5338 C 0.79855 0.36422 0.35918 0.0
C5339 C 0.76004 0.29412 0.31137 0.0
C5340 C 0.77405 0.29071 0.30743 0.0
C5341 C 0.75943 0.30216 0.32601 0.0
C5342 C 0.77287 0.30698 0.33646 0.0
C5343 C 0.78684 0.3034 0.33263 0.0
C5344 C 0.78737 0.29496 0.31818 0.0
C5345 C 0.77254 0.31695 0.35082 0.0
C5346 C 0.77818 0.33257 0.3507 0.0
C5347 C 0.76587 0.3113 0.364 0.0
C5348 C 0.76011 0.29472 0.36453 0.0
C5349 C 0.76987 0.28407 0.36252 0.0
C5350 C 0.76441 0.26847 0.36318 0.0
C5351 C 0.74924 0.26339 0.36596 0.0
C5352 C 0.73949 0.27391 0.3681 0.0
C5353 C 0.74489 0.28953 0.36743 0.0
H5354 H 0.74503 0.2513 0.36646 0.0
H5355 H 0.80022 0.40283 0.36261 0.0
H5356 H 0.42655 0.98708 0.21033 0.0
H5357 H 0.43932 0.98845 0.18621 0.0
H5358 H 0.44028 0.03727 0.18927 0.0
H5359 H 0.42603 0.03573 0.21233 0.0
H5360 H 0.43284 0.02571 0.16036 0.0
H5361 H 0.47289 0.02111 0.20081 0.0
H5362 H 0.48439 0.00943 0.22312 0.0
H5363 H 0.48029 0.96712 0.19284 0.0
H5364 H 0.46857 0.97845 0.17043 0.0
H5365 H 0.49662 0.01878 0.10681 0.0
H5366 H 0.48289 0.02903 0.12806 0.0
H5367 H 0.45176 0.98552 0.12406 0.0
H5368 H 0.46552 0.97524 0.10313 0.0
H5369 H 0.47788 1.0009 0.15439 0.0
H5370 H 0.43334 0.00451 0.11615 0.0
H5371 H 0.41991 0.01572 0.09473 0.0
H5372 H 0.43242 0.06025 0.12163 0.0
H5373 H 0.44618 0.04934 0.14309 0.0
C5374 C 0.42928 0.99806 0.20574 0.0
C5375 C 0.42541 0.01132 0.2133 0.0
C5376 C 0.43682 0.99889 0.19214 0.0
C5377 C 0.44111 0.01306 0.18629 0.0
C5378 C 0.43721 0.02628 0.19376 0.0
C5379 C 0.42927 0.02539 0.20706 0.0
C5380 C 0.44922 0.01397 0.17201 0.0
C5381 C 0.44289 0.02056 0.15915 0.0
C5382 C 0.46233 0.0073 0.17055 0.0
C5383 C 0.46984 1.00065 0.18393 0.0
C5384 C 0.47443 0.00931 0.19891 0.0
C5385 C 0.48097 0.00274 0.21159 0.0
C5386 C 0.48307 0.98755 0.2094 0.0
C5387 C 0.47868 0.9789 0.19452 0.0
C5388 C 0.47212 0.9854 0.18182 0.0
C5389 C 0.48663 0.01161 0.11033 0.0
C5390 C 0.4822 0.99619 0.10385 0.0
C5391 C 0.47873 0.0175 0.12219 0.0
C5392 C 0.46626 0.00804 0.12728 0.0
C5393 C 0.46123 0.99299 0.11997 0.0
C5394 C 0.46919 0.98707 0.1083 0.0
C5395 C 0.46108 0.01202 0.14269 0.0
C5396 C 0.4681 0.00644 0.15582 0.0
C5397 C 0.44864 0.01958 0.14437 0.0
C5398 C 0.44113 0.02617 0.13103 0.0
C5399 C 0.43356 0.01675 0.11733 0.0
C5400 C 0.42578 0.02303 0.10523 0.0
C5401 C 0.4254 0.03871 0.10676 0.0
C5402 C 0.4328 0.04813 0.12041 0.0
C5403 C 0.44061 0.04191 0.13252 0.0
H5404 H 0.41931 0.04353 0.09743 0.0
H5405 H 0.48811 0.98248 0.21924 0.0
H5406 H 0.78194 0.68853 0.91816 0.0
H5407 H 0.78333 0.69976 0.89299 0.0
H5408 H 0.7636 0.73735 0.91238 0.0
H5409 H 0.76201 0.72603 0.93759 0.0
H5410 H 0.75056 0.72767 0.88321 0.0
H5411 H 0.80247 0.74176 0.90724 0.0
H5412 H 0.82711 0.73774 0.92037 0.0
H5413 H 0.83216 0.70723 0.87964 0.0
H5414 H 0.80745 0.71091 0.86636 0.0
H5415 H 0.76572 0.77337 0.82074 0.0
H5416 H 0.7658 0.76366 0.84665 0.0
H5417 H 0.78517 0.72544 0.82822 0.0
H5418 H 0.78587 0.73557 0.80231 0.0
H5419 H 0.79851 0.73614 0.85723 0.0
H5420 H 0.74528 0.72184 0.83384 0.0
H5421 H 0.72074 0.72694 0.82138 0.0
H5422 H 0.719 0.75972 0.86132 0.0
H5423 H 0.74334 0.75467 0.87417 0.0
C5424 C 0.77806 0.69929 0.91715 0.0
C5425 C 0.77194 0.70642 0.92994 0.0
C5426 C 0.77887 0.70571 0.90272 0.0
C5427 C 0.77377 0.71954 0.9008 0.0
C5428 C 0.76761 0.72668 0.91354 0.0
C5429 C 0.76669 0.72019 0.92795 0.0
C5430 C 0.77454 0.7263 0.88538 0.0
C5431 C 0.7611 0.7297 0.87765 0.0
C5432 C 0.78821 0.72876 0.87791 0.0
C5433 C 0.80305 0.7265 0.88587 0.0
C5434 C 0.80878 0.7341 0.90114 0.0
C5435 C 0.82277 0.7319 0.9086 0.0
C5436 C 0.83118 0.72221 0.90086 0.0
C5437 C 0.82563 0.71472 0.88563 0.0
C5438 C 0.81165 0.71687 0.87812 0.0
C5439 C 0.77018 0.76298 0.82219 0.0
C5440 C 0.77586 0.75528 0.80942 0.0
C5441 C 0.77003 0.75733 0.83701 0.0
C5442 C 0.77517 0.74362 0.83935 0.0
C5443 C 0.78105 0.736 0.8267 0.0
C5444 C 0.78141 0.74178 0.81188 0.0
C5445 C 0.7745 0.73732 0.855 0.0
C5446 C 0.78797 0.73405 0.86278 0.0
C5447 C 0.76089 0.73509 0.86258 0.0
C5448 C 0.74616 0.73795 0.85491 0.0
C5449 C 0.73968 0.73017 0.83994 0.0
C5450 C 0.72582 0.73304 0.8328 0.0
C5451 C 0.71842 0.74373 0.84046 0.0
C5452 C 0.72476 0.75146 0.85537 0.0
C5453 C 0.73853 0.74854 0.86263 0.0
H5454 H 0.70774 0.74598 0.83487 0.0
H5455 H 0.84201 0.72052 0.90665 0.0
H5456 H 0.84215 0.1029 0.04747 0.0
H5457 H 0.86592 0.09322 0.04483 0.0
H5458 H 0.84033 0.05261 0.01591 0.0
H5459 H 0.81646 0.06245 0.01832 0.0
H5460 H 0.86356 0.0483 0.04112 0.0
H5461 H 0.85574 0.0763 0.99653 0.0
H5462 H 0.85033 0.0984 0.98305 0.0
H5463 H 0.89104 0.12666 0.00854 0.0
H5464 H 0.89654 0.10478 0.02244 0.0
H5465 H 0.9198 0.02331 0.99669 0.0
H5466 H 0.89834 0.02999 0.01004 0.0
H5467 H 0.92615 0.07393 0.02898 0.0
H5468 H 0.94743 0.06738 0.01503 0.0
H5469 H 0.9019 0.07715 0.01088 0.0
H5470 H 0.91 0.047 0.05436 0.0
H5471 H 0.91352 0.02432 0.06789 0.0
H5472 H 0.87106 0.99893 0.04299 0.0
H5473 H 0.86737 0.02139 0.02923 0.0
C5474 C 0.84166 0.09178 0.04085 0.0
C5475 C 0.82776 0.08324 0.03316 0.0
C5476 C 0.85511 0.08636 0.03928 0.0
C5477 C 0.85464 0.07234 0.03014 0.0
C5478 C 0.84068 0.06346 0.023 0.0
C5479 C 0.82721 0.06901 0.02436 0.0
C5480 C 0.86892 0.06733 0.02752 0.0
C5481 C 0.87199 0.05443 0.0344 0.0
C5482 C 0.87974 0.07572 0.01902 0.0
C5483 C 0.87644 0.08894 0.0107 0.0
C5484 C 0.86344 0.08727 -0.00058 0.0
C5485 C 0.86037 0.09975 0.99167 0.0
C5486 C 0.87031 0.11394 0.99497 0.0
C5487 C 0.88334 0.11567 0.00602 0.0
C5488 C 0.88643 0.10323 0.01384 0.0
C5489 C 0.92135 0.0342 0.00408 0.0
C5490 C 0.93494 0.04501 0.00477 0.0
C5491 C 0.90922 0.03794 0.01185 0.0
C5492 C 0.91073 0.05242 0.02054 0.0
C5493 C 0.92484 0.06268 0.02234 0.0
C5494 C 0.9369 0.05902 0.01436 0.0
C5495 C 0.89689 0.05799 0.02465 0.0
C5496 C 0.89373 0.07104 0.01787 0.0
C5497 C 0.88588 0.04956 0.03303 0.0
C5498 C 0.88852 0.03583 0.04066 0.0
C5499 C 0.90154 0.03652 0.05162 0.0
C5500 C 0.90351 0.02372 0.05938 0.0
C5501 C 0.89254 0.01019 0.05627 0.0
C5502 C 0.87957 0.00941 0.04538 0.0
C5503 C 0.87752 0.02217 0.03761 0.0
H5504 H 0.89407 1.00031 0.06233 0.0
H5505 H 0.86793 0.12359 0.98894 0.0
H5506 H 0.35192 0.44677 0.01582 0.0
H5507 H 0.37743 0.462 0.01516 0.0
H5508 H 0.39662 0.43458 0.04821 0.0
H5509 H 0.37106 0.41923 0.04892 0.0
H5510 H 0.40972 0.46435 0.05539 0.0
H5511 H 0.39935 0.42845 0.0084 0.0
H5512 H 0.38474 0.41476 0.98345 0.0
H5513 H 0.38775 0.45721 0.96274 0.0
H5514 H 0.40215 0.4712 0.98768 0.0
H5515 H 0.48717 0.48546 0.03944 0.0
H5516 H 0.46159 0.47171 0.0424 0.0
H5517 H 0.44178 0.49887 0.00948 0.0
H5518 H 0.46752 0.51242 0.00605 0.0
H5519 H 0.42917 0.46914 0.00271 0.0
H5520 H 0.44062 0.50487 0.05032 0.0
H5521 H 0.45612 0.51767 0.07516 0.0
H5522 H 0.45198 0.4746 0.09478 0.0
H5523 H 0.43671 0.46147 0.06992 0.0
C5524 C 0.36155 0.44392 0.02293 0.0
C5525 C 0.35941 0.43162 0.03228 0.0
C5526 C 0.37616 0.45268 0.02256 0.0
C5527 C 0.38904 0.4493 0.03142 0.0
C5528 C 0.38689 0.43741 0.04124 0.0
C5529 C 0.37224 0.42865 0.04166 0.0
C5530 C 0.40474 0.45791 0.03002 0.0
C5531 C 0.41404 0.46526 0.04389 0.0
C5532 C 0.41036 0.45929 0.015 0.0
C5533 C 0.40168 0.4509 -2e-05 0.0
C5534 C 0.39678 0.43489 -0.00142 0.0
C5535 C 0.38855 0.42707 0.98443 0.0
C5536 C 0.38528 0.43511 0.97154 0.0
C5537 C 0.39026 0.451 0.97275 0.0
C5538 C 0.39846 0.45888 0.98689 0.0
C5539 C 0.47739 0.48859 0.03285 0.0
C5540 C 0.47941 0.5002 0.02262 0.0
C5541 C 0.46272 0.48075 0.03465 0.0
C5542 C 0.44969 0.48438 0.02637 0.0
C5543 C 0.45165 0.49593 0.0161 0.0
C5544 C 0.46636 0.50377 0.01425 0.0
C5545 C 0.43407 0.47579 0.02804 0.0
C5546 C 0.42482 0.46834 0.01421 0.0
C5547 C 0.42859 0.47423 0.04311 0.0
C5548 C 0.43761 0.48216 0.05818 0.0
C5549 C 0.4431 0.4981 0.05988 0.0
C5550 C 0.45184 0.50542 0.07397 0.0
C5551 C 0.45505 0.49695 0.08653 0.0
C5552 C 0.4495 0.48114 0.08503 0.0
C5553 C 0.44079 0.47376 0.07094 0.0
H5554 H 0.46182 0.50264 0.09744 0.0
H5555 H 0.37892 0.42904 0.96059 0.0
H5556 H 0.3931 0.59817 0.76316 0.0
H5557 H 0.38017 0.62019 0.76376 0.0
H5558 H 0.33653 0.58968 0.75037 0.0
H5559 H 0.34965 0.5677 0.7489 0.0
H5560 H 0.33617 0.61358 0.73593 0.0
H5561 H 0.35014 0.60663 0.79048 0.0
H5562 H 0.3674 0.60372 0.81407 0.0
H5563 H 0.39443 0.64812 0.81118 0.0
H5564 H 0.37744 0.65121 0.78743 0.0
H5565 H 0.29245 0.6685 0.76869 0.0
H5566 H 0.3039 0.64644 0.75976 0.0
H5567 H 0.34868 0.67559 0.76651 0.0
H5568 H 0.33727 0.69739 0.77565 0.0
H5569 H 0.34754 0.65195 0.78387 0.0
H5570 H 0.33203 0.65876 0.72929 0.0
H5571 H 0.31383 0.66106 0.70624 0.0
H5572 H 0.28811 0.61633 0.71031 0.0
H5573 H 0.30605 0.61383 0.73352 0.0
C5574 C 0.38075 0.59621 0.76035 0.0
C5575 C 0.37233 0.58127 0.75616 0.0
C5576 C 0.37334 0.60878 0.76075 0.0
C5577 C 0.35728 0.60663 0.7575 0.0
C5578 C 0.3489 0.59169 0.75299 0.0
C5579 C 0.35637 0.57913 0.75221 0.0
C5580 C 0.34926 0.61993 0.75908 0.0
C5581 C 0.33852 0.62186 0.74651 0.0
C5582 C 0.35239 0.6309 0.77278 0.0
C5583 C 0.3626 0.62908 0.78709 0.0
C5584 C 0.35982 0.61572 0.79481 0.0
C5585 C 0.36955 0.61405 0.80822 0.0
C5586 C 0.38202 0.62571 0.81409 0.0
C5587 C 0.38477 0.63909 0.8066 0.0
C5588 C 0.3751 0.64081 0.79318 0.0
C5589 C 0.30464 0.67023 0.76766 0.0
C5590 C 0.31404 0.68458 0.77278 0.0
C5591 C 0.31119 0.65765 0.7626 0.0
C5592 C 0.32718 0.65934 0.76254 0.0
C5593 C 0.33634 0.67398 0.7665 0.0
C5594 C 0.32984 0.68645 0.77161 0.0
C5595 C 0.33467 0.64574 0.76062 0.0
C5596 C 0.34523 0.64369 0.77325 0.0
C5597 C 0.33117 0.63461 0.7471 0.0
C5598 C 0.32029 0.63618 0.73326 0.0
C5599 C 0.3224 0.64948 0.72538 0.0
C5600 C 0.31215 0.6508 0.71225 0.0
C5601 C 0.29979 0.63887 0.70684 0.0
C5602 C 0.29767 0.62557 0.71453 0.0
C5603 C 0.30788 0.62419 0.72766 0.0
H5604 H 0.29188 0.63991 0.69667 0.0
H5605 H 0.38954 0.62439 0.82447 0.0
H5606 H 0.18221 0.59433 0.5184 0.0
H5607 H 0.15468 0.58436 0.51638 0.0
H5608 H 0.16368 0.54303 0.53525 0.0
H5609 H 0.19148 0.55315 0.53739 0.0
H5610 H 0.14342 0.53969 0.50547 0.0
H5611 H 0.15182 0.56604 0.55888 0.0
H5612 H 0.16186 0.58826 0.579 0.0
H5613 H 0.13355 0.61511 0.55469 0.0
H5614 H 0.12352 0.59313 0.53423 0.0
H5615 H 0.06999 0.50779 0.5204 0.0
H5616 H 0.0971 0.51816 0.52053 0.0
H5617 H 0.0865 0.56221 0.51124 0.0
H5618 H 0.05948 0.55233 0.51281 0.0
H5619 H 0.1077 0.56489 0.53559 0.0
H5620 H 0.09921 0.53961 0.48226 0.0
H5621 H 0.08844 0.5177 0.46196 0.0
H5622 H 0.11652 0.4899 0.48511 0.0
H5623 H 0.12731 0.51158 0.50568 0.0
C5624 C 0.1782 0.5831 0.52205 0.0
C5625 C 0.18853 0.57426 0.52786 0.0
C5626 C 0.16266 0.57753 0.52101 0.0
C5627 C 0.15748 0.56313 0.5258 0.0
C5628 C 0.16778 0.55423 0.53161 0.0
C5629 C 0.18342 0.5599 0.53279 0.0
C5630 C 0.14119 0.55723 0.52399 0.0
C5631 C 0.13554 0.54498 0.51217 0.0
C5632 C 0.13124 0.56479 0.53239 0.0
C5633 C 0.137 0.57794 0.54493 0.0
C5634 C 0.14781 0.57671 0.55774 0.0
C5635 C 0.15349 0.58927 0.56922 0.0
C5636 C 0.14837 0.6031 0.5681 0.0
C5637 C 0.13751 0.60439 0.55553 0.0
C5638 C 0.13181 0.59188 0.544 0.0
C5639 C 0.07344 0.51959 0.51807 0.0
C5640 C 0.06277 0.52924 0.51625 0.0
C5641 C 0.08885 0.52546 0.51805 0.0
C5642 C 0.09357 0.54081 0.51559 0.0
C5643 C 0.08287 0.55028 0.51299 0.0
C5644 C 0.06749 0.54455 0.51355 0.0
C5645 C 0.10985 0.5472 0.5171 0.0
C5646 C 0.11553 0.55962 0.52881 0.0
C5647 C 0.11984 0.53997 0.50842 0.0
C5648 C 0.11408 0.52722 0.4955 0.0
C5649 C 0.10311 0.52883 0.483 0.0
C5650 C 0.09698 0.51644 0.47147 0.0
C5651 C 0.10179 0.50242 0.47224 0.0
C5652 C 0.11283 0.50078 0.4845 0.0
C5653 C 0.119 0.51313 0.49607 0.0
H5654 H 0.09698 0.49282 0.46335 0.0
H5655 H 0.1528 0.61281 0.57699 0.0
H5656 H 0.69139 0.9524 0.73329 0.0
H5657 H 0.70115 0.92868 0.736 0.0
H5658 H 0.7411 0.95428 0.76599 0.0
H5659 H 0.73116 0.97808 0.76352 0.0
H5660 H 0.74615 0.93171 0.74069 0.0
H5661 H 0.71712 0.9383 0.78458 0.0
H5662 H 0.69472 0.94313 0.79787 0.0
H5663 H 0.66721 0.90237 0.77166 0.0
H5664 H 0.68939 0.89746 0.75795 0.0
H5665 H 0.76992 0.87822 0.78937 0.0
H5666 H 0.76275 0.89925 0.77553 0.0
H5667 H 0.72387 0.86804 0.74929 0.0
H5668 H 0.73146 0.84684 0.76273 0.0
H5669 H 0.71711 0.89236 0.76971 0.0
H5670 H 0.74846 0.8856 0.72725 0.0
H5671 H 0.77172 0.88244 0.71461 0.0
H5672 H 0.79621 0.92471 0.74069 0.0
H5673 H 0.77313 0.92807 0.75352 0.0
C5674 C 0.7024 0.95289 0.74015 0.0
C5675 C 0.71074 0.96675 0.74811 0.0
C5676 C 0.70785 0.93947 0.74178 0.0
C5677 C 0.72168 0.93998 0.75124 0.0
C5678 C 0.73038 0.95392 0.75866 0.0
C5679 C 0.72479 0.96735 0.75724 0.0
C5680 C 0.72679 0.92577 0.75374 0.0
C5681 C 0.73995 0.92308 0.74713 0.0
C5682 C 0.71829 0.91467 0.76187 0.0
C5683 C 0.70487 0.91764 0.77003 0.0
C5684 C 0.70625 0.93048 0.78147 0.0
C5685 C 0.6936 0.93321 0.78913 0.0
C5686 C 0.67954 0.9231 0.78557 0.0
C5687 C 0.6781 0.91022 0.77437 0.0
C5688 C 0.69071 0.90746 0.76665 0.0
C5689 C 0.76004 0.8759 0.7804 0.0
C5690 C 0.75085 0.86128 0.77735 0.0
C5691 C 0.75609 0.88776 0.77239 0.0
C5692 C 0.74285 0.88504 0.76144 0.0
C5693 C 0.73419 0.87019 0.75767 0.0
C5694 C 0.73834 0.85824 0.76547 0.0
C5695 C 0.7366 0.89815 0.75662 0.0
C5696 C 0.72319 0.90078 0.76296 0.0
C5697 C 0.74505 0.90934 0.74855 0.0
C5698 C 0.75912 0.90699 0.74143 0.0
C5699 C 0.75887 0.89411 0.73043 0.0
C5700 C 0.77199 0.89233 0.72317 0.0
C5701 C 0.78544 0.90335 0.72688 0.0
C5702 C 0.7858 0.91618 0.73784 0.0
C5703 C 0.77269 0.91804 0.74508 0.0
H5704 H 0.79558 0.90196 0.72122 0.0
H5705 H 0.66976 0.92522 0.79152 0.0
H5706 H 0.70698 0.91747 0.5503 0.0
H5707 H 0.68594 0.93172 0.5493 0.0
H5708 H 0.69349 0.94074 0.5012 0.0
H5709 H 0.71504 0.92738 0.50244 0.0
H5710 H 0.68923 0.96559 0.51711 0.0
H5711 H 0.66318 0.91234 0.51107 0.0
H5712 H 0.6566 0.88636 0.51927 0.0
H5713 H 0.64118 0.90502 0.56216 0.0
H5714 H 0.64784 0.93114 0.55428 0.0
H5715 H 0.61964 0.97949 0.48078 0.0
H5716 H 0.64292 0.9706 0.49015 0.0
H5717 H 0.6278 0.96841 0.53697 0.0
H5718 H 0.60424 0.97713 0.52748 0.0
H5719 H 0.6366 0.94245 0.52699 0.0
H5720 H 0.65971 0.99544 0.53101 0.0
H5721 H 0.66599 0.02125 0.52232 0.0
H5722 H 0.68664 0.00292 0.4828 0.0
H5723 H 0.68039 0.977 0.49118 0.0
C5724 C 0.7043 0.92263 0.53956 0.0
C5725 C 0.71277 0.92119 0.52642 0.0
C5726 C 0.6921 0.93063 0.53894 0.0
C5727 C 0.68796 0.93718 0.5251 0.0
C5728 C 0.69641 0.93578 0.51202 0.0
C5729 C 0.70866 0.92794 0.51268 0.0
C5730 C 0.67501 0.9457 0.52409 0.0
C5731 C 0.6777 0.96046 0.51916 0.0
C5732 C 0.66006 0.93935 0.5274 0.0
C5733 C 0.65619 0.92368 0.53219 0.0
C5734 C 0.65852 0.91091 0.52232 0.0
C5735 C 0.65474 0.89616 0.52689 0.0
C5736 C 0.64853 0.89405 0.54125 0.0
C5737 C 0.64603 0.90668 0.55105 0.0
C5738 C 0.6498 0.92145 0.54654 0.0
C5739 C 0.62135 0.97726 0.49312 0.0
C5740 C 0.61007 0.97888 0.50336 0.0
C5741 C 0.63474 0.97231 0.49852 0.0
C5742 C 0.63722 0.96893 0.51433 0.0
C5743 C 0.62618 0.97099 0.52475 0.0
C5744 C 0.61277 0.97605 0.51935 0.0
C5745 C 0.65072 0.96207 0.51939 0.0
C5746 C 0.64817 0.94768 0.52517 0.0
C5747 C 0.6658 0.96872 0.5168 0.0
C5748 C 0.6695 0.98427 0.51167 0.0
C5749 C 0.6655 0.99691 0.5204 0.0
C5750 C 0.66908 0.01156 0.51555 0.0
C5751 C 0.67668 0.01372 0.502 0.0
C5752 C 0.68076 1.00124 0.49329 0.0
C5753 C 0.67723 0.98657 0.49811 0.0
H5754 H 0.67944 0.02507 0.49826 0.0
H5755 H 0.6456 0.88262 0.54477 0.0
H5756 H 0.36601 0.43421 0.77627 0.0
H5757 H 0.35057 0.409 0.7767 0.0
H5758 H 0.3421 0.40367 0.72529 0.0
H5759 H 0.35662 0.42961 0.72479 0.0
H5760 H 0.31705 0.3921 0.73655 0.0
H5761 H 0.36877 0.3856 0.74632 0.0
H5762 H 0.39541 0.39186 0.75928 0.0
H5763 H 0.37961 0.38293 0.80447 0.0
H5764 H 0.35284 0.37682 0.79182 0.0
H5765 H 0.29456 0.30958 0.73459 0.0
H5766 H 0.30837 0.33536 0.73139 0.0
H5767 H 0.30778 0.34919 0.7815 0.0
H5768 H 0.2934 0.32356 0.78457 0.0
H5769 H 0.33793 0.35542 0.76911 0.0
H5770 H 0.28599 0.36435 0.75874 0.0
H5771 H 0.25955 0.35897 0.74524 0.0
H5772 H 0.27682 0.36224 0.69976 0.0
H5773 H 0.30339 0.36776 0.71304 0.0
C5774 C 0.36067 0.42791 0.765 0.0
C5775 C 0.36262 0.43415 0.75048 0.0
C5776 C 0.35201 0.41327 0.76527 0.0
C5777 C 0.34541 0.40417 0.75102 0.0
C5778 C 0.34716 0.41036 0.73647 0.0
C5779 C 0.35564 0.42518 0.7362 0.0
C5780 C 0.33669 0.38828 0.75146 0.0
C5781 C 0.32177 0.38402 0.74346 0.0
C5782 C 0.34268 0.37765 0.76056 0.0
C5783 C 0.35879 0.38084 0.76813 0.0
C5784 C 0.37098 0.38501 0.75903 0.0
C5785 C 0.3861 0.38854 0.76632 0.0
C5786 C 0.3892 0.38782 0.7827 0.0
C5787 C 0.37718 0.38349 0.79179 0.0
C5788 C 0.36203 0.37996 0.78456 0.0
C5789 C 0.29722 0.31823 0.74485 0.0
C5790 C 0.29287 0.31471 0.75979 0.0
C5791 C 0.30509 0.33291 0.74302 0.0
C5792 C 0.30912 0.34418 0.75621 0.0
C5793 C 0.30474 0.34067 0.77117 0.0
C5794 C 0.29646 0.32611 0.77289 0.0
C5795 C 0.3183 0.35948 0.75449 0.0
C5796 C 0.33333 0.36353 0.76215 0.0
C5797 C 0.31253 0.36979 0.74489 0.0
C5798 C 0.29664 0.36631 0.73685 0.0
C5799 C 0.28414 0.36383 0.74585 0.0
C5800 C 0.26914 0.36085 0.73826 0.0
C5801 C 0.2665 0.36021 0.72165 0.0
C5802 C 0.27887 0.3627 0.71262 0.0
C5803 C 0.29391 0.36583 0.72018 0.0
H5804 H 0.25487 0.35779 0.71578 0.0
H5805 H 0.40091 0.3906 0.78833 0.0
H5806 H 0.20679 0.61191 0.23326 0.0
H5807 H 0.21789 0.63908 0.23673 0.0
H5808 H 0.25063 0.63192 0.2749 0.0
H5809 H 0.23969 0.60441 0.27131 0.0
H5810 H 0.2314 0.6539 0.28222 0.0
H5811 H 0.26423 0.64103 0.24301 0.0
H5812 H 0.26753 0.62681 0.21755 0.0
H5813 H 0.23882 0.6525 0.19202 0.0
H5814 H 0.23513 0.66672 0.21738 0.0
H5815 H 0.27626 0.73054 0.2868 0.0
H5816 H 0.26683 0.70291 0.28637 0.0
H5817 H 0.2309 0.705 0.24916 0.0
H5818 H 0.23999 0.7326 0.24999 0.0
H5819 H 0.25334 0.68534 0.24159 0.0
H5820 H 0.2198 0.69781 0.27873 0.0
H5821 H 0.21168 0.70949 0.30319 0.0
H5822 H 0.23659 0.68237 0.33131 0.0
H5823 H 0.24583 0.67134 0.30712 0.0
C5824 C 0.21672 0.61599 0.24198 0.0
C5825 C 0.22251 0.60617 0.25199 0.0
C5826 C 0.22294 0.63148 0.24401 0.0
C5827 C 0.23501 0.63724 0.25601 0.0
C5828 C 0.24129 0.62745 0.26559 0.0
C5829 C 0.23509 0.61187 0.26352 0.0
C5830 C 0.24007 0.65374 0.25931 0.0
C5831 C 0.23663 0.66085 0.27362 0.0
C5832 C 0.24609 0.66246 0.24753 0.0
C5833 C 0.24942 0.65497 0.23212 0.0
C5834 C 0.25868 0.64371 0.23196 0.0
C5835 C 0.26057 0.63561 0.21755 0.0
C5836 C 0.25339 0.63875 0.20317 0.0
C5837 C 0.2444 0.65011 0.20317 0.0
C5838 C 0.24244 0.65823 0.21757 0.0
C5839 C 0.26572 0.72521 0.27941 0.0
C5840 C 0.25856 0.7334 0.26864 0.0
C5841 C 0.26059 0.70949 0.27889 0.0
C5842 C 0.24844 0.70216 0.26751 0.0
C5843 C 0.24038 0.71065 0.25789 0.0
C5844 C 0.24531 0.72634 0.25864 0.0
C5845 C 0.24495 0.68552 0.26474 0.0
C5846 C 0.24853 0.67841 0.25042 0.0
C5847 C 0.23878 0.67677 0.2764 0.0
C5848 C 0.23377 0.68393 0.29108 0.0
C5849 C 0.22396 0.69466 0.29015 0.0
C5850 C 0.21915 0.70119 0.304 0.0
C5851 C 0.22368 0.69674 0.31881 0.0
C5852 C 0.23319 0.68591 0.31983 0.0
C5853 C 0.23834 0.67961 0.30607 0.0
H5854 H 0.21968 0.70151 0.3295 0.0
H5855 H 0.25479 0.6324 0.19204 0.0
H5856 H 0.51091 0.67376 0.44654 0.0
H5857 H 0.51286 0.64894 0.45614 0.0
H5858 H 0.50224 0.66571 0.50243 0.0
H5859 H 0.50017 0.69058 0.49269 0.0
H5860 H 0.52552 0.64956 0.50572 0.0
H5861 H 0.47522 0.63937 0.47777 0.0
H5862 H 0.45568 0.63945 0.45515 0.0
H5863 H 0.47875 0.61184 0.42488 0.0
H5864 H 0.4985 0.61169 0.44732 0.0
H5865 H 0.52056 0.57419 0.53188 0.0
H5866 H 0.51676 0.59968 0.52578 0.0
H5867 H 0.5149 0.58498 0.47543 0.0
H5868 H 0.51722 0.55926 0.48158 0.0
H5869 H 0.49604 0.60105 0.47617 0.0
H5870 H 0.54834 0.61418 0.50404 0.0
H5871 H 0.56838 0.61611 0.52665 0.0
H5872 H 0.54138 0.63824 0.55753 0.0
H5873 H 0.5214 0.637 0.53491 0.0
C5874 C 0.50892 0.67213 0.45874 0.0
C5875 C 0.5053 0.68415 0.46879 0.0
C5876 C 0.50999 0.65787 0.46426 0.0
C5877 C 0.50759 0.65517 0.48007 0.0
C5878 C 0.50415 0.66731 0.4902 0.0
C5879 C 0.50289 0.68155 0.4846 0.0
C5880 C 0.50872 0.63976 0.48585 0.0
C5881 C 0.51894 0.63896 0.49933 0.0
C5882 C 0.50031 0.62574 0.47765 0.0
C5883 C 0.48838 0.62561 0.46418 0.0
C5884 C 0.47616 0.63337 0.46627 0.0
C5885 C 0.46504 0.63342 0.45349 0.0
C5886 C 0.46599 0.62568 0.43858 0.0
C5887 C 0.47803 0.61783 0.43644 0.0
C5888 C 0.48917 0.61773 0.44919 0.0
C5889 C 0.51939 0.57645 0.51952 0.0
C5890 C 0.51917 0.56454 0.50726 0.0
C5891 C 0.51739 0.59122 0.51596 0.0
C5892 C 0.51579 0.59483 0.50002 0.0
C5893 C 0.51594 0.58288 0.48785 0.0
C5894 C 0.51739 0.56804 0.49138 0.0
C5895 C 0.51346 0.61061 0.49574 0.0
C5896 C 0.50281 0.61155 0.48257 0.0
C5897 C 0.52149 0.62475 0.50427 0.0
C5898 C 0.53333 0.6253 0.51787 0.0
C5899 C 0.54665 0.61937 0.51568 0.0
C5900 C 0.55799 0.62034 0.5285 0.0
C5901 C 0.55605 0.62701 0.5436 0.0
C5902 C 0.54283 0.63298 0.54585 0.0
C5903 C 0.53155 0.63226 0.53302 0.0
H5904 H 0.56483 0.62766 0.55351 0.0
H5905 H 0.45738 0.62575 0.42869 0.0
H5906 H 0.61179 0.29019 0.68385 0.0
H5907 H 0.63532 0.28899 0.70072 0.0
H5908 H 0.65779 0.28091 0.65857 0.0
H5909 H 0.63397 0.28117 0.64179 0.0
H5910 H 0.66658 0.26386 0.67704 0.0
H5911 H 0.66412 0.31749 0.68739 0.0
H5912 H 0.65343 0.34025 0.69597 0.0
H5913 H 0.6498 0.32525 0.74244 0.0
H5914 H 0.6603 0.30232 0.73408 0.0
H5915 H 0.74419 0.28555 0.71859 0.0
H5916 H 0.72031 0.28683 0.70224 0.0
H5917 H 0.69431 0.27236 0.74027 0.0
H5918 H 0.71785 0.26989 0.75615 0.0
H5919 H 0.68774 0.30077 0.72476 0.0
H5920 H 0.69053 0.24753 0.71418 0.0
H5921 H 0.7025 0.22557 0.70599 0.0
H5922 H 0.7064 0.24095 0.6597 0.0
H5923 H 0.69473 0.26319 0.66775 0.0
C5924 C 0.62179 0.28825 0.67819 0.0
C5925 C 0.62092 0.28576 0.66141 0.0
C5926 C 0.63538 0.28768 0.68789 0.0
C5927 C 0.64873 0.28512 0.68112 0.0
C5928 C 0.64784 0.28285 0.66431 0.0
C5929 C 0.63415 0.28303 0.65465 0.0
C5930 C 0.66336 0.28415 0.69135 0.0
C5931 C 0.67124 0.27219 0.68727 0.0
C5932 C 0.66955 0.29458 0.70518 0.0
C5933 C 0.66281 0.30811 0.71004 0.0
C5934 C 0.66088 0.31897 0.69938 0.0
C5935 C 0.6549 0.33192 0.70422 0.0
C5936 C 0.65089 0.33417 0.71972 0.0
C5937 C 0.65287 0.32347 0.73043 0.0
C5938 C 0.65883 0.31051 0.72564 0.0
C5939 C 0.73342 0.28255 0.72352 0.0
C5940 C 0.73319 0.27783 0.73898 0.0
C5941 C 0.71973 0.28332 0.71411 0.0
C5942 C 0.70545 0.27978 0.72001 0.0
C5943 C 0.70515 0.27528 0.73545 0.0
C5944 C 0.71876 0.27407 0.74466 0.0
C5945 C 0.69082 0.28078 0.71015 0.0
C5946 C 0.683 0.29264 0.71438 0.0
C5947 C 0.68475 0.27037 0.69644 0.0
C5948 C 0.692 0.25716 0.69166 0.0
C5949 C 0.69416 0.24637 0.70234 0.0
C5950 C 0.70083 0.23383 0.6977 0.0
C5951 C 0.70526 0.2319 0.68235 0.0
C5952 C 0.70301 0.24249 0.67161 0.0
C5953 C 0.69638 0.25506 0.67621 0.0
H5954 H 0.71041 0.22217 0.67877 0.0
H5955 H 0.64629 0.34421 0.72346 0.0
H5956 H 0.03652 0.34783 0.97809 0.0
H5957 H 0.03813 0.37497 0.98698 0.0
H5958 H 0.98877 0.36872 0.98084 0.0
H5959 H 0.98708 0.34195 0.97087 0.0
H5960 H 0.99843 0.39267 0.969 0.0
H5961 H 0.01389 0.37622 0.01979 0.0
H5962 H 0.02936 0.365 0.03962 0.0
H5963 H 0.06982 0.39632 0.03191 0.0
H5964 H 0.05462 0.40763 0.01195 0.0
H5965 H 0.99333 0.46721 0.0053 0.0
H5966 H 0.99166 0.43942 -0.00016 0.0
H5967 H 0.04087 0.4462 0.00102 0.0
H5968 H 0.04258 0.47377 0.00684 0.0
H5969 H 0.03145 0.42224 0.01606 0.0
H5970 H 0.01663 0.43817 0.96531 0.0
H5971 H 1.00161 0.45 0.94566 0.0
H5972 H 0.96043 0.41972 0.95335 0.0
H5973 H 0.9752 0.40785 0.9732 0.0
C5974 C 0.02595 0.35216 0.97849 0.0
C5975 C 0.01165 0.34236 0.97354 0.0
C5976 C 0.0269 0.36779 0.98391 0.0
C5977 C 0.01358 0.37416 0.98483 0.0
C5978 C 0.99931 0.36432 0.98031 0.0
C5979 C 0.99835 0.34878 0.97472 0.0
C5980 C 0.01434 0.39114 0.98933 0.0
C5981 C 0.00545 0.39897 0.97952 0.0
C5982 C 0.0239 0.39983 0.00269 0.0
C5983 C 0.03314 0.39263 0.01422 0.0
C5984 C 0.02612 0.38058 0.02218 0.0
C5985 C 0.03483 0.37425 0.03349 0.0
C5986 C 0.05057 0.37991 0.03698 0.0
C5987 C 0.05764 0.39192 0.02917 0.0
C5988 C 0.04898 0.3983 0.01787 0.0
C5989 C 0.00378 0.46281 0.00465 0.0
C5990 C 0.01804 0.47292 0.00666 0.0
C5991 C 1.00284 0.44684 0.00131 0.0
C5992 C 0.01614 0.44053 -0.00016 0.0
C5993 C 0.03039 0.45061 0.00207 0.0
C5994 C 0.03133 0.4665 0.00534 0.0
C5995 C 0.01535 0.42353 0.99588 0.0
C5996 C 0.02431 0.41579 0.00568 0.0
C5997 C 0.00591 0.4149 0.98251 0.0
C5998 C 0.99698 0.42226 0.97087 0.0
C5999 C 0.00435 0.43416 0.96294 0.0
C6000 C 0.99589 0.44084 0.95173 0.0
C6001 C 0.98007 0.43565 0.9483 0.0
C6002 C 0.97268 0.42376 0.95605 0.0
C6003 C 0.98108 0.41705 0.96727 0.0
H6004 H 0.97355 0.44082 0.93959 0.0
H6005 H 0.05729 0.37501 0.04577 0.0
H6006 H 0.9822 0.76542 0.17362 0.0
H6007 H 0.95985 0.76446 0.18836 0.0
H6008 H 0.93852 0.78849 0.15329 0.0
H6009 H 0.961 0.78966 0.13859 0.0
H6010 H 0.93275 0.79926 0.18098 0.0
H6011 H 0.92777 0.74819 0.15574 0.0
H6012 H 0.93489 0.72321 0.14818 0.0
H6013 H 0.94053 0.71556 0.19755 0.0
H6014 H 0.93368 0.74062 0.20542 0.0
H6015 H 0.85563 0.77541 0.20304 0.0
H6016 H 0.87937 0.78207 0.19046 0.0
H6017 H 0.90408 0.76296 0.22744 0.0
H6018 H 0.88038 0.75623 0.23985 0.0
H6019 H 0.9078 0.75033 0.19849 0.0
H6020 H 0.91168 0.80182 0.22321 0.0
H6021 H 0.90372 0.82657 0.2298 0.0
H6022 H 0.8986 0.83289 0.18004 0.0
H6023 H 0.90634 0.80808 0.17314 0.0
C6024 C 0.97273 0.7704 0.16892 0.0
C6025 C 0.97351 0.77755 0.15477 0.0
C6026 C 0.95985 0.76983 0.17741 0.0
C6027 C 0.94719 0.77616 0.17191 0.0
C6028 C 0.94803 0.78349 0.1579 0.0
C6029 C 0.96097 0.78418 0.14947 0.0
C6030 C 0.93317 0.77516 0.18077 0.0
C6031 C 0.9272 0.78849 0.1846 0.0
C6032 C 0.92588 0.76123 0.18584 0.0
C6033 C 0.9304 0.74636 0.18117 0.0
C6034 C 0.93071 0.74126 0.16499 0.0
C6035 C 0.93465 0.72707 0.16065 0.0
C6036 C 0.93821 0.71782 0.17238 0.0
C6037 C 0.93782 0.72275 0.18848 0.0
C6038 C 0.93391 0.73694 0.19289 0.0
C6039 C 0.86626 0.77317 0.20878 0.0
C6040 C 0.86618 0.76548 0.22255 0.0
C6041 C 0.87985 0.77693 0.20155 0.0
C6042 C 0.89365 0.77302 0.20792 0.0
C6043 C 0.89367 0.76609 0.22219 0.0
C6044 C 0.88013 0.76235 0.22939 0.0
C6045 C 0.90752 0.77444 0.19889 0.0
C6046 C 0.9134 0.76112 0.19493 0.0
C6047 C 0.91454 0.78832 0.19356 0.0
C6048 C 0.90941 0.80299 0.19765 0.0
C6049 C 0.90866 0.80839 0.21366 0.0
C6050 C 0.90424 0.82246 0.21745 0.0
C6051 C 0.90061 0.83127 0.20534 0.0
C6052 C 0.90138 0.82604 0.18941 0.0
C6053 C 0.90579 0.81197 0.18555 0.0
H6054 H 0.89723 0.84218 0.20831 0.0
H6055 H 0.94122 0.70682 0.169 0.0
H6056 H 0.51497 0.30814 0.10334 0.0
H6057 H 0.51548 0.33044 0.08841 0.0
H6058 H 0.51968 0.3599 0.13272 0.0
H6059 H 0.51808 0.33737 0.14749 0.0
H6060 H 0.50272 0.3706 0.11362 0.0
H6061 H 0.55101 0.35544 0.10702 0.0
H6062 H 0.56872 0.33833 0.09948 0.0
H6063 H 0.54747 0.33168 0.05103 0.0
H6064 H 0.52951 0.34859 0.05833 0.0
H6065 H 0.53419 0.44067 0.08203 0.0
H6066 H 0.52678 0.41813 0.09609 0.0
H6067 H 0.51681 0.38952 0.05099 0.0
H6068 H 0.5244 0.41209 0.03701 0.0
H6069 H 0.53561 0.37827 0.06993 0.0
H6070 H 0.48817 0.39515 0.07712 0.0
H6071 H 0.47106 0.41262 0.08542 0.0
H6072 H 0.49215 0.4171 0.1338 0.0
H6073 H 0.50949 0.39979 0.12575 0.0
C6074 C 0.516 0.31939 0.10986 0.0
C6075 C 0.51652 0.32098 0.1266 0.0
C6076 C 0.51644 0.33225 0.10132 0.0
C6077 C 0.518 0.34717 0.10929 0.0
C6078 C 0.51848 0.34867 0.12609 0.0
C6079 C 0.51762 0.33576 0.13459 0.0
C6080 C 0.51893 0.36114 0.10024 0.0
C6081 C 0.51012 0.37232 0.10423 0.0
C6082 C 0.52821 0.3635 0.0876 0.0
C6083 C 0.53882 0.35313 0.08327 0.0
C6084 C 0.55004 0.35021 0.09479 0.0
C6085 C 0.56013 0.34057 0.09055 0.0
C6086 C 0.55919 0.33388 0.07479 0.0
C6087 C 0.54817 0.33684 0.06323 0.0
C6088 C 0.53803 0.34645 0.06742 0.0
C6089 C 0.52973 0.42967 0.07508 0.0
C6090 C 0.52952 0.42828 0.05835 0.0
C6091 C 0.52557 0.4167 0.08315 0.0
C6092 C 0.52116 0.40192 0.07472 0.0
C6093 C 0.52013 0.40068 0.0579 0.0
C6094 C 0.52428 0.41366 0.04984 0.0
C6095 C 0.51946 0.38771 0.08334 0.0
C6096 C 0.52817 0.37651 0.07929 0.0
C6097 C 0.51028 0.38548 0.09605 0.0
C6098 C 0.50025 0.39632 0.10079 0.0
C6099 C 0.48929 0.40002 0.08949 0.0
C6100 C 0.47951 0.40984 0.09416 0.0
C6101 C 0.48055 0.41601 0.11012 0.0
C6102 C 0.49137 0.41235 0.12144 0.0
C6103 C 0.50117 0.40252 0.11683 0.0
H6104 H 0.47294 0.42358 0.11372 0.0
H6105 H 0.56704 0.32645 0.07153 0.0
H6106 H 0.95536 0.2897 0.28667 0.0
H6107 H 0.92811 0.28771 0.27714 0.0
H6108 H 0.91602 0.27553 0.32308 0.0
H6109 H 0.943 0.27665 0.33217 0.0
H6110 H 0.89711 0.25868 0.303 0.0
H6111 H 0.91673 0.31375 0.30578 0.0
H6112 H 0.93327 0.3365 0.29804 0.0
H6113 H 0.91451 0.32383 0.249 0.0
H6114 H 0.89804 0.30088 0.25643 0.0
H6115 H 0.82003 0.26807 0.30148 0.0
H6116 H 0.84774 0.26997 0.3067 0.0
H6117 H 0.8532 0.28409 0.25985 0.0
H6118 H 0.82552 0.28308 0.25505 0.0
H6119 H 0.87579 0.2989 0.2768 0.0
H6120 H 0.85634 0.24464 0.2731 0.0
H6121 H 0.84366 0.21898 0.27857 0.0
H6122 H 0.86321 0.22878 0.32759 0.0
H6123 H 0.87583 0.25449 0.32248 0.0
C6124 C 0.94686 0.2866 0.29472 0.0
C6125 C 0.95146 0.28329 0.31021 0.0
C6126 C 0.9312 0.28559 0.28929 0.0
C6127 C 0.9197 0.28173 0.2994 0.0
C6128 C 0.92441 0.27849 0.31488 0.0
C6129 C 0.93995 0.27913 0.32013 0.0
C6130 C 0.90275 0.28051 0.29408 0.0
C6131 C 0.8925 0.26768 0.29755 0.0
C6132 C 0.89647 0.29168 0.28604 0.0
C6133 C 0.90628 0.30553 0.28165 0.0
C6134 C 0.9162 0.31578 0.29334 0.0
C6135 C 0.92556 0.32871 0.28901 0.0
C6136 C 0.92497 0.33159 0.27303 0.0
C6137 C 0.91498 0.32157 0.26136 0.0
C6138 C 0.90564 0.3086 0.26563 0.0
C6139 C 0.82712 0.27159 0.29228 0.0
C6140 C 0.82042 0.2754 0.27783 0.0
C6141 C 0.84309 0.27251 0.29519 0.0
C6142 C 0.85289 0.27676 0.28354 0.0
C6143 C 0.84616 0.28074 0.26914 0.0
C6144 C 0.83022 0.28016 0.26637 0.0
C6145 C 0.87006 0.27737 0.28653 0.0
C6146 C 0.88035 0.28996 0.2824 0.0
C6147 C 0.87646 0.26591 0.2939 0.0
C6148 C 0.86705 0.25144 0.29739 0.0
C6149 C 0.85768 0.24142 0.2851 0.0
C6150 C 0.85059 0.22684 0.28812 0.0
C6151 C 0.85288 0.22222 0.30335 0.0
C6152 C 0.86161 0.23235 0.31577 0.0
C6153 C 0.8687 0.2469 0.31283 0.0
H6154 H 0.84813 0.2107 0.30552 0.0
H6155 H 0.93222 0.34161 0.26971 0.0
H6156 H 0.03107 0.66872 0.63136 0.0
H6157 H 0.03172 0.64562 0.61387 0.0
H6158 H 0.98795 0.64819 0.58918 0.0
H6159 H 0.98749 0.67193 0.606 0.0
H6160 H 0.99028 0.61781 0.59698 0.0
H6161 H 0.01742 0.65726 0.57035 0.0
H6162 H 0.03677 0.68018 0.568 0.0
H6163 H 0.07283 0.65644 0.58233 0.0
H6164 H 0.05366 0.63343 0.58497 0.0
H6165 H 0.9929 0.55994 0.53266 0.0
H6166 H 0.99068 0.58394 0.54841 0.0
H6167 H 0.0371 0.58807 0.57039 0.0
H6168 H 0.03931 0.56422 0.55447 0.0
H6169 H 0.03251 0.61549 0.56313 0.0
H6170 H 0.00562 0.57636 0.59059 0.0
H6171 H 0.98645 0.55333 0.59311 0.0
H6172 H 0.95015 0.57627 0.57755 0.0
H6173 H 0.96913 0.59939 0.57475 0.0
C6174 C 0.02163 0.66473 0.62207 0.0
C6175 C 0.00928 0.67267 0.62027 0.0
C6176 C 0.02199 0.65127 0.61209 0.0
C6177 C 0.00992 0.64504 0.60007 0.0
C6178 C 0.99741 0.65264 0.59837 0.0
C6179 C 0.99715 0.66629 0.60817 0.0
C6180 C 0.01053 0.63072 0.5893 0.0
C6181 C 0.99939 0.6174 0.5894 0.0
C6182 C 0.02254 0.62989 0.57956 0.0
C6183 C 0.0341 0.64369 0.57802 0.0
C6184 C 0.02947 0.65698 0.57314 0.0
C6185 C 0.0404 0.66997 0.57172 0.0
C6186 C 0.05602 0.66978 0.57506 0.0
C6187 C 0.06073 0.65658 0.57978 0.0
C6188 C 0.04983 0.64355 0.58122 0.0
C6189 C 1.00256 0.56593 0.54096 0.0
C6190 C 0.01615 0.55999 0.54261 0.0
C6191 C 1.0013 0.57968 0.55 0.0
C6192 C 0.01364 0.58789 0.5609 0.0
C6193 C 0.02734 0.58206 0.56222 0.0
C6194 C 0.02857 0.56831 0.55321 0.0
C6195 C 0.01232 0.60248 0.57089 0.0
C6196 C 0.02335 0.61587 0.57066 0.0
C6197 C 1.00023 0.60335 0.58054 0.0
C6198 C 0.98879 0.58954 0.58232 0.0
C6199 C 0.99355 0.57645 0.58761 0.0
C6200 C 0.98272 0.56339 0.5891 0.0
C6201 C 0.96709 0.56333 0.58545 0.0
C6202 C 0.96226 0.57634 0.58035 0.0
C6203 C 0.97304 0.58942 0.57882 0.0
H6204 H 0.95873 0.55321 0.58661 0.0
H6205 H 0.06447 0.67985 0.57395 0.0
H6206 H 0.59958 0.77782 0.78928 0.0
H6207 H 0.62414 0.77536 0.77948 0.0
H6208 H 0.64789 0.79601 0.82524 0.0
H6209 H 0.6235 0.79915 0.83471 0.0
H6210 H 0.66402 0.80633 0.80511 0.0
H6211 H 0.63945 0.75391 0.80882 0.0
H6212 H 0.61838 0.73152 0.80221 0.0
H6213 H 0.62468 0.73111 0.7525 0.0
H6214 H 0.64563 0.75366 0.7588 0.0
H6215 H 0.73707 0.78641 0.80024 0.0
H6216 H 0.71144 0.78879 0.80672 0.0
H6217 H 0.69224 0.76724 0.75965 0.0
H6218 H 0.7179 0.76424 0.75339 0.0
H6219 H 0.67299 0.75758 0.77787 0.0
H6220 H 0.69814 0.80916 0.77428 0.0
H6221 H 0.71602 0.83397 0.77985 0.0
H6222 H 0.7075 0.83691 0.82899 0.0
H6223 H 0.68976 0.81198 0.82383 0.0
C6224 C 0.61005 0.78184 0.79727 0.0
C6225 C 0.60941 0.78866 0.81288 0.0
C6226 C 0.62419 0.78031 0.79167 0.0
C6227 C 0.63818 0.7851 0.80164 0.0
C6228 C 0.63749 0.79211 0.81715 0.0
C6229 C 0.62341 0.79394 0.82261 0.0
C6230 C 0.65355 0.78314 0.79616 0.0
C6231 C 0.66597 0.79553 0.79944 0.0
C6232 C 0.65627 0.76934 0.78799 0.0
C6233 C 0.64401 0.75553 0.78427 0.0
C6234 C 0.63631 0.74906 0.79648 0.0
C6235 C 0.62438 0.73636 0.79278 0.0
C6236 C 0.62018 0.72992 0.77694 0.0
C6237 C 0.62794 0.73613 0.76476 0.0
C6238 C 0.63984 0.74886 0.76839 0.0
C6239 C 0.72743 0.78219 0.7912 0.0
C6240 C 0.72977 0.77522 0.7762 0.0
C6241 C 0.71264 0.78368 0.79489 0.0
C6242 C 0.69959 0.77862 0.78361 0.0
C6243 C 0.70189 0.7714 0.76868 0.0
C6244 C 0.7167 0.7697 0.76506 0.0
C6245 C 0.68368 0.78068 0.78745 0.0
C6246 C 0.67111 0.76835 0.7837 0.0
C6247 C 0.68079 0.79455 0.79526 0.0
C6248 C 0.69266 0.80868 0.79867 0.0
C6249 C 0.70029 0.81496 0.78633 0.0
C6250 C 0.71036 0.82908 0.78941 0.0
C6251 C 0.71277 0.83706 0.80472 0.0
C6252 C 0.70554 0.83074 0.81712 0.0
C6253 C 0.69551 0.81661 0.81414 0.0
H6254 H 0.72005 0.84825 0.80695 0.0
H6255 H 0.61092 0.7201 0.7741 0.0
H6256 H 0.47959 0.53569 0.69077 0.0
H6257 H 0.49107 0.5375 0.66566 0.0
H6258 H 0.4542 0.50227 0.64195 0.0
H6259 H 0.44269 0.5004 0.66694 0.0
H6260 H 0.48176 0.49743 0.63407 0.0
H6261 H 0.45534 0.54091 0.63827 0.0
H6262 H 0.45032 0.56523 0.65122 0.0
H6263 H 0.49745 0.58633 0.65057 0.0
H6264 H 0.50277 0.56208 0.63778 0.0
H6265 H 0.49262 0.49937 0.55482 0.0
H6266 H 0.4814 0.50056 0.57957 0.0
H6267 H 0.51021 0.54503 0.59419 0.0
H6268 H 0.51717 0.54577 0.56698 0.0
H6269 H 0.48933 0.5458 0.60883 0.0
H6270 H 0.51662 0.50324 0.60411 0.0
H6271 H 0.52181 0.47957 0.58981 0.0
H6272 H 0.47551 0.4569 0.59228 0.0
H6273 H 0.47002 0.48044 0.60646 0.0
C6274 C 0.47391 0.52837 0.68018 0.0
C6275 C 0.46023 0.51789 0.68086 0.0
C6276 C 0.48048 0.52942 0.66585 0.0
C6277 C 0.47342 0.52011 0.65188 0.0
C6278 C 0.45988 0.50953 0.65258 0.0
C6279 C 0.45334 0.50843 0.6669 0.0
C6280 C 0.48002 0.52127 0.63646 0.0
C6281 C 0.48343 0.50799 0.6285 0.0
C6282 C 0.48269 0.53515 0.62945 0.0
C6283 C 0.47948 0.54966 0.63723 0.0
C6284 C 0.46465 0.55071 0.64102 0.0
C6285 C 0.46175 0.56448 0.6483 0.0
C6286 C 0.47357 0.57731 0.65175 0.0
C6287 C 0.48831 0.57639 0.64791 0.0
C6288 C 0.49127 0.56264 0.64064 0.0
C6289 C 0.49546 0.50993 0.56266 0.0
C6290 C 0.50509 0.52276 0.55849 0.0
C6291 C 0.48985 0.51024 0.57747 0.0
C6292 C 0.49558 0.52246 0.58948 0.0
C6293 C 0.50557 0.53529 0.58541 0.0
C6294 C 0.50985 0.53561 0.5699 0.0
C6295 C 0.49111 0.52185 0.6061 0.0
C6296 C 0.48809 0.53524 0.61439 0.0
C6297 C 0.48918 0.5081 0.61362 0.0
C6298 C 0.49292 0.49361 0.60633 0.0
C6299 C 0.5076 0.49316 0.60172 0.0
C6300 C 0.51057 0.47979 0.59358 0.0
C6301 C 0.499 0.46675 0.59013 0.0
C6302 C 0.48448 0.46699 0.59498 0.0
C6303 C 0.48144 0.48032 0.60312 0.0
H6304 H 0.50128 0.45646 0.5837 0.0
H6305 H 0.47129 0.58796 0.65738 0.0
H6306 H 0.76128 0.15085 0.94684 0.0
H6307 H 0.76278 0.16468 0.92316 0.0
H6308 H 0.77199 0.20783 0.95349 0.0
H6309 H 0.76999 0.19392 0.97713 0.0
H6310 H 0.74981 0.20641 0.92914 0.0
H6311 H 0.80073 0.19469 0.93612 0.0
H6312 H 0.81816 0.17644 0.94019 0.0
H6313 H 0.79916 0.15059 0.89518 0.0
H6314 H 0.78146 0.16859 0.89095 0.0
H6315 H 0.76203 0.25404 0.87246 0.0
H6316 H 0.7729 0.2413 0.89402 0.0
H6317 H 0.75929 0.19765 0.86492 0.0
H6318 H 0.7487 0.21048 0.84322 0.0
H6319 H 0.78557 0.19939 0.88856 0.0
H6320 H 0.73326 0.20746 0.88285 0.0
H6321 H 0.71274 0.22249 0.87913 0.0
H6322 H 0.73183 0.25224 0.92185 0.0
H6323 H 0.75259 0.23748 0.9257 0.0
C6324 C 0.76364 0.16329 0.94829 0.0
C6325 C 0.76557 0.17152 0.96346 0.0
C6326 C 0.7646 0.17112 0.93491 0.0
C6327 C 0.7678 0.1872 0.93675 0.0
C6328 C 0.76965 0.1954 0.95199 0.0
C6329 C 0.7685 0.18755 0.96536 0.0
C6330 C 0.76842 0.19551 0.92269 0.0
C6331 C 0.75787 0.20517 0.92046 0.0
C6332 C 0.77853 0.19326 0.91116 0.0
C6333 C 0.78978 0.18298 0.91322 0.0
C6334 C 0.8003 0.18513 0.92708 0.0
C6335 C 0.81019 0.17481 0.92943 0.0
C6336 C 0.80977 0.16236 0.91795 0.0
C6337 C 0.7995 0.16026 0.90405 0.0
C6338 C 0.78955 0.17053 0.90164 0.0
C6339 C 0.76184 0.24181 0.8706 0.0
C6340 C 0.75423 0.23301 0.85667 0.0
C6341 C 0.76818 0.23461 0.88273 0.0
C6342 C 0.76658 0.21858 0.88102 0.0
C6343 C 0.76057 0.21003 0.86635 0.0
C6344 C 0.75434 0.21728 0.85415 0.0
C6345 C 0.76729 0.21068 0.89537 0.0
C6346 C 0.77783 0.20091 0.89748 0.0
C6347 C 0.75697 0.21257 0.90678 0.0
C6348 C 0.7446 0.22155 0.90441 0.0
C6349 C 0.73319 0.21733 0.89133 0.0
C6350 C 0.72149 0.22577 0.88922 0.0
C6351 C 0.72105 0.23838 0.90018 0.0
C6352 C 0.73224 0.24253 0.91332 0.0
C6353 C 0.74397 0.23413 0.91548 0.0
H6354 H 0.71198 0.2449 0.89853 0.0
H6355 H 0.8174 0.15435 0.91983 0.0
H6356 H 0.0963 0.52526 0.18413 0.0
H6357 H 0.08032 0.52286 0.15844 0.0
H6358 H 0.11928 0.51618 0.13364 0.0
H6359 H 0.13525 0.51876 0.15932 0.0
H6360 H 0.10499 0.53911 0.12385 0.0
H6361 H 0.09209 0.48681 0.13451 0.0
H6362 H 0.0835 0.46596 0.15064 0.0
H6363 H 0.03979 0.47975 0.15162 0.0
H6364 H 0.04822 0.50088 0.13575 0.0
H6365 H 0.06099 0.50659 0.04802 0.0
H6366 H 0.07651 0.50773 0.07351 0.0
H6367 H 0.04768 0.53525 0.0963 0.0
H6368 H 0.03271 0.53524 0.07069 0.0
H6369 H 0.05669 0.50154 0.10667 0.0
H6370 H 0.07129 0.556 0.0997 0.0
H6371 H 0.08069 0.57792 0.08527 0.0
H6372 H 0.12152 0.56005 0.07809 0.0
H6373 H 0.11216 0.53781 0.09219 0.0
C6374 C 0.10126 0.52318 0.17311 0.0
C6375 C 0.11673 0.5222 0.17324 0.0
C6376 C 0.09223 0.52171 0.15862 0.0
C6377 C 0.09876 0.5192 0.14442 0.0
C6378 C 0.11422 0.51803 0.14464 0.0
C6379 C 0.12323 0.51952 0.15911 0.0
C6380 C 0.08974 0.51907 0.12927 0.0
C6381 C 0.09453 0.53078 0.11995 0.0
C6382 C 0.07601 0.50836 0.12466 0.0
C6383 C 0.07085 0.49554 0.13407 0.0
C6384 C 0.08069 0.48549 0.13828 0.0
C6385 C 0.07584 0.4736 0.14737 0.0
C6386 C 0.06112 0.47156 0.15219 0.0
C6387 C 0.0512 0.48137 0.1479 0.0
C6388 C 0.05601 0.49329 0.13885 0.0
C6389 C 0.05798 0.51296 0.05842 0.0
C6390 C 0.04553 0.52064 0.0575 0.0
C6391 C 0.06685 0.51361 0.07285 0.0
C6392 C 0.06308 0.52165 0.08639 0.0
C6393 C 0.05062 0.52914 0.08569 0.0
C6394 C 0.04203 0.52894 0.07116 0.0
C6395 C 0.07194 0.52162 0.10148 0.0
C6396 C 0.06716 0.50982 0.11067 0.0
C6397 C 0.08567 0.53225 0.10602 0.0
C6398 C 0.09088 0.54509 0.09671 0.0
C6399 C 0.0821 0.55656 0.09474 0.0
C6400 C 0.08749 0.56911 0.08675 0.0
C6401 C 0.10172 0.5704 0.08081 0.0
C6402 C 0.11051 0.55905 0.08271 0.0
C6403 C 0.10515 0.54645 0.09067 0.0
H6404 H 0.10589 0.58016 0.07467 0.0
H6405 H 0.05739 0.46235 0.15922 0.0
H6406 H 0.75215 0.81472 0.44359 0.0
H6407 H 0.75155 0.80351 0.41584 0.0
H6408 H 0.79633 0.83044 0.4134 0.0
H6409 H 0.79686 0.84187 0.44078 0.0
H6410 H 0.77725 0.83262 0.38796 0.0
H6411 H 0.79043 0.79164 0.41624 0.0
H6412 H 0.78707 0.77182 0.43472 0.0
H6413 H 0.74479 0.74964 0.40702 0.0
H6414 H 0.74775 0.76949 0.38852 0.0
H6415 H 0.79759 0.79891 0.31546 0.0
H6416 H 0.79673 0.80766 0.3436 0.0
H6417 H 0.75209 0.77909 0.34216 0.0
H6418 H 0.753 0.77013 0.31411 0.0
H6419 H 0.76949 0.77706 0.36946 0.0
H6420 H 0.75598 0.81748 0.34136 0.0
H6421 H 0.75824 0.83769 0.32328 0.0
H6422 H 0.80007 0.86115 0.35099 0.0
H6423 H 0.79821 0.84093 0.36907 0.0
C6424 C 0.76187 0.81827 0.43714 0.0
C6425 C 0.77459 0.82921 0.44456 0.0
C6426 C 0.76157 0.81173 0.42129 0.0
C6427 C 0.77395 0.81602 0.41245 0.0
C6428 C 0.78664 0.82687 0.41988 0.0
C6429 C 0.78698 0.83333 0.43567 0.0
C6430 C 0.77358 0.80991 0.39526 0.0
C6431 C 0.77578 0.82046 0.38399 0.0
C6432 C 0.7711 0.79402 0.38987 0.0
C6433 C 0.76922 0.78218 0.4011 0.0
C6434 C 0.78032 0.78264 0.41419 0.0
C6435 C 0.77851 0.77138 0.42465 0.0
C6436 C 0.7657 0.75951 0.42208 0.0
C6437 C 0.75469 0.75886 0.40902 0.0
C6438 C 0.75643 0.77012 0.39855 0.0
C6439 C 0.78765 0.79438 0.32113 0.0
C6440 C 0.77544 0.78372 0.31244 0.0
C6441 C 0.7871 0.79949 0.33725 0.0
C6442 C 0.77429 0.79414 0.34511 0.0
C6443 C 0.76213 0.7834 0.33648 0.0
C6444 C 0.76265 0.77833 0.32036 0.0
C6445 C 0.77351 0.79983 0.36223 0.0
C6446 C 0.77101 0.78922 0.37346 0.0
C6447 C 0.77563 0.81569 0.36763 0.0
C6448 C 0.77706 0.82758 0.35645 0.0
C6449 C 0.76578 0.82684 0.34347 0.0
C6450 C 0.76696 0.83832 0.33325 0.0
C6451 C 0.77932 0.85068 0.33595 0.0
C6452 C 0.79053 0.85156 0.34888 0.0
C6453 C 0.78942 0.84008 0.35911 0.0
H6454 H 0.78018 0.85959 0.32806 0.0
H6455 H 0.76433 0.75078 0.43017 0.0
H6456 H 0.48604 0.51709 0.83121 0.0
H6457 H 0.49788 0.51761 0.85867 0.0
H6458 H 0.45597 0.52609 0.87646 0.0
H6459 H 0.44451 0.52637 0.84916 0.0
H6460 H 0.47781 0.54233 0.89476 0.0
H6461 H 0.46908 0.48896 0.87256 0.0
H6462 H 0.47219 0.46763 0.8531 0.0
H6463 H 0.52101 0.47826 0.86569 0.0
H6464 H 0.51819 0.4998 0.88505 0.0
H6465 H 0.48647 0.52218 0.97315 0.0
H6466 H 0.47858 0.52326 0.94503 0.0
H6467 H 0.5225 0.51441 0.93325 0.0
H6468 H 0.53016 0.51249 0.96151 0.0
H6469 H 0.50246 0.4998 0.91137 0.0
H6470 H 0.51027 0.55187 0.93584 0.0
H6471 H 0.5068 0.57398 0.95395 0.0
H6472 H 0.45898 0.56623 0.93639 0.0
H6473 H 0.46201 0.54373 0.91858 0.0
C6474 C 0.47941 0.51911 0.84103 0.0
C6475 C 0.46432 0.52167 0.83801 0.0
C6476 C 0.48615 0.5193 0.85675 0.0
C6477 C 0.47778 0.52156 0.86982 0.0
C6478 C 0.46277 0.52432 0.86673 0.0
C6479 C 0.45618 0.52448 0.85107 0.0
C6480 C 0.48443 0.52111 0.88673 0.0
C6481 C 0.483 0.53289 0.8984 0.0
C6482 C 0.4918 0.50915 0.89157 0.0
C6483 C 0.49344 0.49605 0.88014 0.0
C6484 C 0.48048 0.48678 0.87112 0.0
C6485 C 0.48219 0.47466 0.8601 0.0
C6486 C 0.49679 0.47162 0.85813 0.0
C6487 C 0.50971 0.48065 0.86721 0.0
C6488 C 0.50806 0.49281 0.8782 0.0
C6489 C 0.49449 0.52044 0.96461 0.0
C6490 C 0.50903 0.51738 0.96968 0.0
C6491 C 0.48999 0.52121 0.94844 0.0
C6492 C 0.50005 0.51941 0.93684 0.0
C6493 C 0.51449 0.51599 0.94185 0.0
C6494 C 0.5189 0.5149 0.95806 0.0
C6495 C 0.49535 0.52079 0.91956 0.0
C6496 C 0.49726 0.50924 0.90779 0.0
C6497 C 0.48828 0.53293 0.91462 0.0
C6498 C 0.48637 0.54606 0.92591 0.0
C6499 C 0.49897 0.55475 0.93599 0.0
C6500 C 0.49708 0.56738 0.94619 0.0
C6501 C 0.4827 0.57157 0.94622 0.0
C6502 C 0.47011 0.56299 0.9363 0.0
C6503 C 0.4719 0.55027 0.9262 0.0
H6504 H 0.48126 0.58151 0.95383 0.0
H6505 H 0.49809 0.46223 0.8496 0.0
H6506 H 0.74683 0.18258 0.10516 0.0
H6507 H 0.74872 0.19853 0.13047 0.0
H6508 H 0.79514 0.19175 0.14195 0.0
H6509 H 0.79286 0.17464 0.11731 0.0
H6510 H 0.7797 0.18863 0.16641 0.0
H6511 H 0.7874 0.22568 0.12868 0.0
H6512 H 0.78139 0.23775 0.10438 0.0
H6513 H 0.73879 0.24527 0.12055 0.0
H6514 H 0.74445 0.23307 0.14482 0.0
H6515 H 0.79465 0.24794 0.23061 0.0
H6516 H 0.7955 0.23205 0.20581 0.0
H6517 H 0.74833 0.23455 0.19097 0.0
H6518 H 0.74768 0.25114 0.21562 0.0
H6519 H 0.76659 0.24056 0.16843 0.0
H6520 H 0.75881 0.20306 0.20613 0.0
H6521 H 0.76528 0.19175 0.23078 0.0
H6522 H 0.80835 0.18534 0.21503 0.0
H6523 H 0.80229 0.19692 0.19042 0.0
C6524 C 0.75734 0.1843 0.11319 0.0
C6525 C 0.76972 0.17746 0.10933 0.0
C6526 C 0.75849 0.19359 0.12747 0.0
C6527 C 0.77219 0.1965 0.13774 0.0
C6528 C 0.78455 0.18967 0.13398 0.0
C6529 C 0.78328 0.18007 0.11988 0.0
C6530 C 0.77337 0.20626 0.15274 0.0
C6531 C 0.77708 0.20009 0.16691 0.0
C6532 C 0.76971 0.22105 0.15317 0.0
C6533 C 0.76632 0.22837 0.13852 0.0
C6534 C 0.77671 0.22981 0.12699 0.0
C6535 C 0.77337 0.23669 0.11324 0.0
C6536 C 0.75971 0.24225 0.11091 0.0
C6537 C 0.74937 0.24096 0.12235 0.0
C6538 C 0.75265 0.23408 0.13612 0.0
C6539 C 0.78448 0.24504 0.22202 0.0
C6540 C 0.77105 0.25053 0.22474 0.0
C6541 C 0.78496 0.23596 0.20801 0.0
C6542 C 0.77189 0.23203 0.19691 0.0
C6543 C 0.75847 0.23754 0.1996 0.0
C6544 C 0.7581 0.24696 0.21348 0.0
C6545 C 0.77245 0.22275 0.18203 0.0
C6546 C 0.76925 0.2291 0.16791 0.0
C6547 C 0.7766 0.20817 0.1817 0.0
C6548 C 0.78013 0.20099 0.19645 0.0
C6549 C 0.76971 0.19935 0.20796 0.0
C6550 C 0.77331 0.19288 0.22193 0.0
C6551 C 0.78722 0.18784 0.22447 0.0
C6552 C 0.79758 0.18926 0.21304 0.0
C6553 C 0.79406 0.19577 0.19908 0.0
H6554 H 0.78996 0.1828 0.23527 0.0
H6555 H 0.75715 0.24758 0.10026 0.0
H6556 H 0.12143 0.55172 0.3221 0.0
H6557 H 0.10752 0.55043 0.34531 0.0
H6558 H 0.10859 0.50209 0.34434 0.0
H6559 H 0.12072 0.50283 0.31979 0.0
H6560 H 0.0827 0.50613 0.35085 0.0
H6561 H 0.13387 0.53243 0.37123 0.0
H6562 H 0.15705 0.5524 0.37207 0.0
H6563 H 0.1308 0.58743 0.38224 0.0
H6564 H 0.10742 0.56773 0.3812 0.0
H6565 H 0.07211 0.52738 0.43894 0.0
H6566 H 0.08227 0.51585 0.41578 0.0
H6567 H 0.06034 0.54384 0.38555 0.0
H6568 H 0.04983 0.5551 0.40845 0.0
H6569 H 0.09887 0.54547 0.39766 0.0
H6570 H 0.0476 0.51914 0.37009 0.0
H6571 H 0.02415 0.49929 0.36739 0.0
H6572 H 0.05149 0.46434 0.37062 0.0
H6573 H 0.07512 0.48409 0.37368 0.0
C6574 C 0.11841 0.54071 0.32655 0.0
C6575 C 0.12224 0.52737 0.31908 0.0
C6576 C 0.11078 0.54008 0.34008 0.0
C6577 C 0.10754 0.52628 0.34688 0.0
C6578 C 0.11121 0.51291 0.3394 0.0
C6579 C 0.11832 0.5134 0.32549 0.0
C6580 C 0.09977 0.5257 0.36144 0.0
C6581 C 0.08644 0.51456 0.36122 0.0
C6582 C 0.10465 0.53672 0.37494 0.0
C6583 C 0.11887 0.54856 0.37611 0.0
C6584 C 0.13303 0.54439 0.37363 0.0
C6585 C 0.14621 0.55567 0.37411 0.0
C6586 C 0.1454 0.57117 0.3772 0.0
C6587 C 0.13142 0.57542 0.37986 0.0
C6588 C 0.11821 0.5642 0.37936 0.0
C6589 C 0.06888 0.53053 0.42722 0.0
C6590 C 0.06039 0.54226 0.42542 0.0
C6591 C 0.07463 0.5239 0.41405 0.0
C6592 C 0.07178 0.52887 0.39905 0.0
C6593 C 0.06228 0.53963 0.39703 0.0
C6594 C 0.0565 0.54621 0.41012 0.0
C6595 C 0.08171 0.52628 0.38669 0.0
C6596 C 0.09549 0.53682 0.38743 0.0
C6597 C 0.07727 0.5148 0.37369 0.0
C6598 C 0.06309 0.50311 0.37258 0.0
C6599 C 0.04861 0.50727 0.37062 0.0
C6600 C 0.03528 0.49603 0.3689 0.0
C6601 C 0.03633 0.48057 0.36896 0.0
C6602 C 0.0507 0.47632 0.3707 0.0
C6603 C 0.06405 0.48754 0.37246 0.0
H6604 H 0.026 0.47187 0.36756 0.0
H6605 H 0.1556 0.57989 0.37753 0.0
H6606 H 0.76084 0.84885 0.61166 0.0
H6607 H 0.75945 0.83783 0.637 0.0
H6608 H 0.79021 0.80798 0.62306 0.0
H6609 H 0.79162 0.81896 0.59757 0.0
H6610 H 0.76449 0.79295 0.6362 0.0
H6611 H 0.8039 0.83776 0.64896 0.0
H6612 H 0.81556 0.86517 0.65064 0.0
H6613 H 0.78125 0.87677 0.67952 0.0
H6614 H 0.76922 0.84943 0.67777 0.0
H6615 H 0.78373 0.76929 0.71186 0.0
H6616 H 0.7835 0.77919 0.68599 0.0
H6617 H 0.75739 0.81275 0.70252 0.0
H6618 H 0.75778 0.80298 0.72867 0.0
H6619 H 0.78043 0.82574 0.68785 0.0
H6620 H 0.73963 0.78201 0.67344 0.0
H6621 H 0.72692 0.75486 0.67141 0.0
H6622 H 0.76319 0.74152 0.64662 0.0
H6623 H 0.77592 0.76867 0.64816 0.0
C6624 C 0.76723 0.83987 0.61393 0.0
C6625 C 0.77634 0.83476 0.60261 0.0
C6626 C 0.76651 0.83366 0.62846 0.0
C6627 C 0.77481 0.82218 0.63196 0.0
C6628 C 0.78374 0.81687 0.6206 0.0
C6629 C 0.78461 0.82321 0.60611 0.0
C6630 C 0.77412 0.81573 0.64748 0.0
C6631 C 0.76817 0.80007 0.64749 0.0
C6632 C 0.7785 0.82511 0.66222 0.0
C6633 C 0.78555 0.84157 0.66306 0.0
C6634 C 0.79873 0.84617 0.6555 0.0
C6635 C 0.80543 0.86169 0.6565 0.0
C6636 C 0.79912 0.87271 0.66513 0.0
C6637 C 0.7861 0.86823 0.67279 0.0
C6638 C 0.77934 0.85272 0.6718 0.0
C6639 C 0.77776 0.77866 0.70996 0.0
C6640 C 0.77066 0.78528 0.72229 0.0
C6641 C 0.77759 0.78427 0.69511 0.0
C6642 C 0.77021 0.79656 0.69218 0.0
C6643 C 0.76309 0.80321 0.70447 0.0
C6644 C 0.76331 0.79762 0.7194 0.0
C6645 C 0.7707 0.80296 0.6766 0.0
C6646 C 0.77668 0.81861 0.67657 0.0
C6647 C 0.76624 0.79362 0.66185 0.0
C6648 C 0.75877 0.77731 0.66105 0.0
C6649 C 0.74492 0.77327 0.66764 0.0
C6650 C 0.7377 0.75789 0.66653 0.0
C6651 C 0.74432 0.74645 0.65905 0.0
C6652 C 0.7581 0.75038 0.65246 0.0
C6653 C 0.76527 0.76577 0.65334 0.0
H6654 H 0.73875 0.73454 0.65828 0.0
H6655 H 0.80434 0.88472 0.66591 0.0
H6656 H 0.72494 0.47464 0.48141 0.0
H6657 H 0.70038 0.48357 0.48205 0.0
H6658 H 0.68765 0.45294 0.51721 0.0
H6659 H 0.71181 0.44398 0.51651 0.0
H6660 H 0.6653 0.45085 0.49193 0.0
H6661 H 0.69908 0.48739 0.53008 0.0
H6662 H 0.72243 0.50666 0.53943 0.0
H6663 H 0.70914 0.53589 0.50524 0.0
H6664 H 0.6858 0.51662 0.49548 0.0
H6665 H 0.61531 0.4775 0.54224 0.0
H6666 H 0.63426 0.46757 0.52737 0.0
H6667 H 0.63379 0.50328 0.4963 0.0
H6668 H 0.615 0.51348 0.51144 0.0
H6669 H 0.66178 0.50389 0.51269 0.0
H6670 H 0.62333 0.46452 0.47971 0.0
H6671 H 0.60092 0.44328 0.47531 0.0
H6672 H 0.62396 0.41778 0.5072 0.0
H6673 H 0.64648 0.43882 0.51175 0.0
C6674 C 0.71683 0.46994 0.48926 0.0
C6675 C 0.72012 0.45882 0.49903 0.0
C6676 C 0.70295 0.47498 0.48961 0.0
C6677 C 0.69239 0.46875 0.49959 0.0
C6678 C 0.69574 0.45771 0.50937 0.0
C6679 C 0.70954 0.45278 0.5091 0.0
C6680 C 0.67772 0.47367 0.50016 0.0
C6681 C 0.66441 0.46248 0.49628 0.0
C6682 C 0.67688 0.48879 0.50594 0.0
C6683 C 0.69082 0.50046 0.51186 0.0
C6684 C 0.70122 0.49785 0.52443 0.0
C6685 C 0.71443 0.50878 0.52983 0.0
C6686 C 0.7173 0.52246 0.52288 0.0
C6687 C 0.70692 0.52526 0.51057 0.0
C6688 C 0.6937 0.51434 0.50509 0.0
C6689 C 0.61904 0.483 0.53203 0.0
C6690 C 0.61403 0.49635 0.52808 0.0
C6691 C 0.62965 0.47721 0.5234 0.0
C6692 C 0.63526 0.48467 0.51069 0.0
C6693 C 0.62942 0.49735 0.50601 0.0
C6694 C 0.61876 0.50315 0.51464 0.0
C6695 C 0.64916 0.48101 0.50457 0.0
C6696 C 0.66248 0.49243 0.50758 0.0
C6697 C 0.6501 0.46587 0.49876 0.0
C6698 C 0.63654 0.45325 0.49606 0.0
C6699 C 0.62357 0.4544 0.48582 0.0
C6700 C 0.61087 0.44238 0.48327 0.0
C6701 C 0.61101 0.42919 0.49098 0.0
C6702 C 0.62387 0.42797 0.50121 0.0
C6703 C 0.63662 0.43991 0.50372 0.0
H6704 H 0.60116 0.41992 0.48901 0.0
H6705 H 0.72754 0.53092 0.52707 0.0
H6706 H 0.17839 0.11293 0.47628 0.0
H6707 H 0.15296 0.09734 0.47663 0.0
H6708 H 0.1654 0.08913 0.52511 0.0
H6709 H 0.19106 0.10394 0.52455 0.0
H6710 H 0.1498 0.0639 0.5095 0.0
H6711 H 0.14275 0.1165 0.51442 0.0
H6712 H 0.14428 0.14242 0.50597 0.0
H6713 H 0.11589 0.12355 0.46233 0.0
H6714 H 0.1144 0.09748 0.47041 0.0
H6715 H 0.07627 0.03707 0.53209 0.0
H6716 H 0.10178 0.05133 0.5295 0.0
H6717 H 0.08552 0.06168 0.48282 0.0
H6718 H 0.05964 0.04835 0.48601 0.0
H6719 H 0.10315 0.08535 0.49609 0.0
H6720 H 0.11003 0.03262 0.49113 0.0
H6721 H 0.10906 0.00666 0.49939 0.0
H6722 H 0.13766 0.02561 0.54283 0.0
H6723 H 0.13888 0.05166 0.53483 0.0
C6724 C 0.17583 0.10765 0.48696 0.0
C6725 C 0.18687 0.10989 0.50045 0.0
C6726 C 0.16116 0.09886 0.48721 0.0
C6727 C 0.15705 0.09225 0.50102 0.0
C6728 C 0.16816 0.09416 0.51433 0.0
C6729 C 0.18285 0.10282 0.51405 0.0
C6730 C 0.14124 0.08341 0.50174 0.0
C6731 C 0.13961 0.06866 0.5067 0.0
C6732 C 0.12783 0.08937 0.49771 0.0
C6733 C 0.12859 0.10504 0.49295 0.0
C6734 C 0.13692 0.11788 0.50297 0.0
C6735 C 0.13777 0.13259 0.49826 0.0
C6736 C 0.13022 0.13462 0.4836 0.0
C6737 C 0.12176 0.12195 0.47366 0.0
C6738 C 0.1209 0.10721 0.4783 0.0
C6739 C 0.07818 0.04228 0.52122 0.0
C6740 C 0.066 0.04145 0.50917 0.0
C6741 C 0.09285 0.05038 0.51968 0.0
C6742 C 0.09588 0.05731 0.50574 0.0
C6743 C 0.08364 0.05644 0.49368 0.0
C6744 C 0.06884 0.04875 0.49546 0.0
C6745 C 0.11165 0.06578 0.50391 0.0
C6746 C 0.11329 0.08048 0.49877 0.0
C6747 C 0.1251 0.05976 0.50771 0.0
C6748 C 0.12445 0.04408 0.51243 0.0
C6749 C 0.11606 0.03124 0.50247 0.0
C6750 C 0.11546 0.01652 0.50711 0.0
C6751 C 0.12319 0.0145 0.52166 0.0
C6752 C 0.13165 0.02719 0.53158 0.0
C6753 C 0.13235 0.04193 0.52697 0.0
H6754 H 0.12268 0.00309 0.52523 0.0
H6755 H 0.1309 0.14602 0.47997 0.0
H6756 H 0.17841 0.96026 0.80348 0.0
H6757 H 0.19062 0.93779 0.80235 0.0
H6758 H 0.1868 0.93548 0.75094 0.0
H6759 H 0.17335 0.95681 0.75185 0.0
H6760 H 0.17994 0.90881 0.75746 0.0
H6761 H 0.22208 0.95024 0.77851 0.0
H6762 H 0.23579 0.97197 0.79773 0.0
H6763 H 0.23397 0.94285 0.83541 0.0
H6764 H 0.2201 0.92098 0.81642 0.0
H6765 H 0.23709 0.87028 0.73428 0.0
H6766 H 0.22659 0.89249 0.74419 0.0
H6767 H 0.21691 0.87171 0.78699 0.0
H6768 H 0.22746 0.84932 0.77706 0.0
H6769 H 0.22959 0.90782 0.78883 0.0
H6770 H 0.18858 0.86579 0.76521 0.0
H6771 H 0.17704 0.84483 0.74409 0.0
H6772 H 0.17888 0.8769 0.70919 0.0
H6773 H 0.19065 0.89801 0.73007 0.0
C6774 C 0.17994 0.95485 0.7919 0.0
C6775 C 0.17491 0.96057 0.77776 0.0
C6776 C 0.1872 0.9421 0.7913 0.0
C6777 C 0.18993 0.93499 0.77657 0.0
C6778 C 0.18491 0.9407 0.76249 0.0
C6779 C 0.17738 0.95315 0.76306 0.0
C6780 C 0.1976 0.92138 0.77547 0.0
C6781 C 0.19083 0.90874 0.76433 0.0
C6782 C 0.21164 0.9209 0.78468 0.0
C6783 C 0.2199 0.93404 0.7961 0.0
C6784 C 0.2245 0.94851 0.79092 0.0
C6785 C 0.23232 0.96084 0.80176 0.0
C6786 C 0.23571 0.95881 0.81779 0.0
C6787 C 0.23131 0.94442 0.823 0.0
C6788 C 0.22349 0.93205 0.8122 0.0
C6789 C 0.23298 0.87057 0.74593 0.0
C6790 C 0.23293 0.85805 0.75486 0.0
C6791 C 0.22705 0.88327 0.7516 0.0
C6792 C 0.22092 0.88367 0.76626 0.0
C6793 C 0.22171 0.87163 0.7757 0.0
C6794 C 0.22771 0.85888 0.77002 0.0
C6795 C 0.21209 0.89577 0.77053 0.0
C6796 C 0.21859 0.90798 0.78223 0.0
C6797 C 0.19793 0.89606 0.76167 0.0
C6798 C 0.19058 0.88344 0.74917 0.0
C6799 C 0.18662 0.86834 0.75301 0.0
C6800 C 0.18002 0.85644 0.74109 0.0
C6801 C 0.17725 0.85952 0.7253 0.0
C6802 C 0.18103 0.87452 0.72142 0.0
C6803 C 0.18765 0.88646 0.73329 0.0
H6804 H 0.17216 0.8503 0.71609 0.0
H6805 H 0.24177 0.96837 0.82616 0.0
H6806 H 0.35789 0.98941 0.01686 0.0
H6807 H 0.38579 0.99879 0.01936 0.0
H6808 H 0.39175 0.95579 0.99497 0.0
H6809 H 0.36403 0.94656 0.99229 0.0
H6810 H 0.40929 0.96489 0.02504 0.0
H6811 H 0.39662 0.98284 0.97543 0.0
H6812 H 0.38183 0.99587 0.95682 0.0
H6813 H 0.39878 0.03895 0.98553 0.0
H6814 H 0.4134 0.0261 0.00457 0.0
H6815 H 0.48659 0.98622 0.00948 0.0
H6816 H 0.45965 0.97608 0.01129 0.0
H6817 H 0.45352 0.02104 0.03039 0.0
H6818 H 0.48038 0.03129 0.02773 0.0
H6819 H 0.43594 0.01038 0.00245 0.0
H6820 H 0.44792 0.9903 0.05292 0.0
H6821 H 0.46282 0.97582 0.06982 0.0
H6822 H 0.44823 0.93546 0.03627 0.0
H6823 H 0.43298 0.94963 0.01928 0.0
C6824 C 0.36526 0.98221 0.01186 0.0
C6825 C 0.35922 0.96748 0.00428 0.0
C6826 C 0.38099 0.98747 0.01326 0.0
C6827 C 0.3905 0.97786 0.00728 0.0
C6828 C 0.38438 0.96323 -0.00046 0.0
C6829 C 0.36872 0.95807 0.99796 0.0
C6830 C 0.40698 0.98275 0.00995 0.0
C6831 C 0.4152 0.97478 0.02007 0.0
C6832 C 0.41434 0.99557 0.00329 0.0
C6833 C 0.40597 0.00346 0.99157 0.0
C6834 C 0.3971 0.99507 0.97788 0.0
C6835 C 0.38874 0.00242 0.96724 0.0
C6836 C 0.38932 0.01822 0.97002 0.0
C6837 C 0.39832 0.0267 0.98342 0.0
C6838 C 0.40665 0.01939 0.99414 0.0
C6839 C 0.47962 0.99364 0.0149 0.0
C6840 C 0.48519 0.00934 0.01867 0.0
C6841 C 0.4643 0.98792 0.01586 0.0
C6842 C 0.45477 0.9979 0.02096 0.0
C6843 C 0.46085 0.01328 0.02644 0.0
C6844 C 0.4761 0.01906 0.02514 0.0
C6845 C 0.43822 0.9929 0.01812 0.0
C6846 C 0.43 1.00067 0.00767 0.0
C6847 C 0.43087 0.97973 0.02423 0.0
C6848 C 0.43934 0.97101 0.03485 0.0
C6849 C 0.44786 0.97833 0.04918 0.0
C6850 C 0.45641 0.97019 0.05875 0.0
C6851 C 0.45662 0.95479 0.05405 0.0
C6852 C 0.44808 0.94741 0.03988 0.0
C6853 C 0.43939 0.95544 0.03034 0.0
H6854 H 0.46335 0.94856 0.06143 0.0
H6855 H 0.38283 0.0239 0.96179 0.0
H6856 H 0.81484 0.56301 0.77104 0.0
H6857 H 0.80535 0.58678 0.76762 0.0
H6858 H 0.84587 0.61273 0.79646 0.0
H6859 H 0.85527 0.58905 0.80004 0.0
H6860 H 0.82071 0.62282 0.8034 0.0
H6861 H 0.84422 0.60993 0.75697 0.0
H6862 H 0.84934 0.5943 0.73318 0.0
H6863 H 0.80308 0.59162 0.71211 0.0
H6864 H 0.79758 0.60701 0.73591 0.0
H6865 H 0.82115 0.69312 0.76523 0.0
H6866 H 0.82668 0.67092 0.77839 0.0
H6867 H 0.78206 0.64512 0.75894 0.0
H6868 H 0.77647 0.66729 0.746 0.0
H6869 H 0.80941 0.63534 0.7482 0.0
H6870 H 0.78696 0.64902 0.79629 0.0
H6871 H 0.78337 0.66442 0.82095 0.0
H6872 H 0.83057 0.6668 0.83873 0.0
H6873 H 0.83446 0.65153 0.81412 0.0
C6874 C 0.82149 0.5738 0.77687 0.0
C6875 C 0.83567 0.57441 0.78581 0.0
C6876 C 0.81618 0.58727 0.77483 0.0
C6877 C 0.82512 0.60134 0.78159 0.0
C6878 C 0.83891 0.60188 0.79119 0.0
C6879 C 0.84417 0.58842 0.79332 0.0
C6880 C 0.82028 0.61561 0.77833 0.0
C6881 C 0.81837 0.6257 0.79135 0.0
C6882 C 0.81725 0.61908 0.76255 0.0
C6883 C 0.82043 0.60947 0.74836 0.0
C6884 C 0.83507 0.60584 0.74737 0.0
C6885 C 0.83806 0.59706 0.73385 0.0
C6886 C 0.82653 0.59192 0.72117 0.0
C6887 C 0.81199 0.59557 0.72197 0.0
C6888 C 0.80893 0.60432 0.73547 0.0
C6889 C 0.81252 0.68274 0.76408 0.0
C6890 C 0.79861 0.6815 0.75445 0.0
C6891 C 0.81554 0.67027 0.77175 0.0
C6892 C 0.80468 0.6566 0.76963 0.0
C6893 C 0.79041 0.65574 0.76079 0.0
C6894 C 0.78734 0.66822 0.75329 0.0
C6895 C 0.80948 0.6424 0.77328 0.0
C6896 C 0.81162 0.6324 0.76025 0.0
C6897 C 0.81308 0.63922 0.78903 0.0
C6898 C 0.81105 0.64937 0.80324 0.0
C6899 C 0.79664 0.65308 0.80532 0.0
C6900 C 0.79453 0.6617 0.81934 0.0
C6901 C 0.80675 0.66665 0.83137 0.0
C6902 C 0.82112 0.66301 0.82939 0.0
C6903 C 0.82328 0.65438 0.81541 0.0
H6904 H 0.80507 0.67325 0.84224 0.0
H6905 H 0.82887 0.58516 0.7107 0.0
H6906 H 0.81967 0.59724 0.0077 0.0
H6907 H 0.84144 0.58395 0.00864 0.0
H6908 H 0.87167 0.6261 0.00267 0.0
H6909 H 0.84965 0.63916 0.00083 0.0
H6910 H 0.88049 0.60441 0.98662 0.0
H6911 H 0.86812 0.61088 0.0403 0.0
H6912 H 0.85203 0.6091 0.06247 0.0
H6913 H 0.84282 0.55996 0.05316 0.0
H6914 H 0.85868 0.56145 0.03079 0.0
H6915 H 0.94894 0.58246 0.0225 0.0
H6916 H 0.92725 0.59409 0.0132 0.0
H6917 H 0.89683 0.55037 0.01133 0.0
H6918 H 0.91856 0.5388 0.02068 0.0
H6919 H 0.88838 0.57268 0.03066 0.0
H6920 H 0.90261 0.56738 0.97711 0.0
H6921 H 0.92045 0.57055 0.95657 0.0
H6922 H 0.92829 0.61948 0.96799 0.0
H6923 H 0.91061 0.61659 0.98871 0.0
C6924 C 0.83097 0.6036 0.0065 0.0
C6925 C 0.83304 0.6192 0.00425 0.0
C6926 C 0.84344 0.59605 0.00716 0.0
C6927 C 0.85833 0.60407 0.00612 0.0
C6928 C 0.86034 0.61963 0.00355 0.0
C6929 C 0.84778 0.6271 0.00251 0.0
C6930 C 0.87178 0.59626 0.00781 0.0
C6931 C 0.88228 0.59762 0.99637 0.0
C6932 C 0.87413 0.58721 0.0204 0.0
C6933 C 0.86445 0.58629 0.03376 0.0
C6934 C 0.86255 0.5997 0.04289 0.0
C6935 C 0.85349 0.59874 0.05551 0.0
C6936 C 0.84637 0.58443 0.0592 0.0
C6937 C 0.84832 0.57104 0.05028 0.0
C6938 C 0.85735 0.57194 0.03764 0.0
C6939 C 0.93774 0.57523 0.01934 0.0
C6940 C 0.93539 0.55971 0.02197 0.0
C6941 C 0.92533 0.58188 0.01413 0.0
C6942 C 0.9104 0.5731 0.01158 0.0
C6943 C 0.90825 0.55734 0.0132 0.0
C6944 C 0.92066 0.5507 0.01836 0.0
C6945 C 0.89689 0.58068 0.00939 0.0
C6946 C 0.88647 0.57937 0.02084 0.0
C6947 C 0.89482 0.59 0.99704 0.0
C6948 C 0.90538 0.59175 0.98454 0.0
C6949 C 0.90822 0.57881 0.97531 0.0
C6950 C 0.91829 0.58056 0.96362 0.0
C6951 C 0.92553 0.5952 0.961 0.0
C6952 C 0.92268 0.60814 0.97004 0.0
C6953 C 0.91262 0.60645 0.98173 0.0
H6954 H 0.93332 0.59653 0.95195 0.0
H6955 H 0.83938 0.58371 0.06898 0.0
H6956 H 0.20185 0.10475 0.79915 0.0
H6957 H 0.21741 0.1303 0.79867 0.0
H6958 H 0.1826 0.14111 0.765 0.0
H6959 H 0.16701 0.11581 0.76552 0.0
H6960 H 0.21003 0.14796 0.75503 0.0
H6961 H 0.18886 0.15637 0.80485 0.0
H6962 H 0.18388 0.15145 0.83224 0.0
H6963 H 0.23229 0.16078 0.84729 0.0
H6964 H 0.23758 0.16552 0.81992 0.0
H6965 H 0.23837 0.22543 0.74902 0.0
H6966 H 0.22291 0.20116 0.75331 0.0
H6967 H 0.25391 0.19919 0.7952 0.0
H6968 H 0.26729 0.22519 0.79262 0.0
H6969 H 0.22958 0.1867 0.80166 0.0
H6970 H 0.25113 0.17753 0.75175 0.0
H6971 H 0.25615 0.18218 0.72427 0.0
H6972 H 0.20772 0.17327 0.70927 0.0
H6973 H 0.20242 0.16875 0.73667 0.0
C6974 C 0.19741 0.11264 0.79181 0.0
C6975 C 0.1832 0.10808 0.78224 0.0
C6976 C 0.20634 0.12727 0.79155 0.0
C6977 C 0.20121 0.13771 0.78181 0.0
C6978 C 0.1869 0.13327 0.77253 0.0
C6979 C 0.17802 0.11871 0.77278 0.0
C6980 C 0.2109 0.15296 0.78047 0.0
C6981 C 0.21423 0.15649 0.76523 0.0
C6982 C 0.21682 0.16394 0.7938 0.0
C6983 C 0.21362 0.16112 0.81027 0.0
C6984 C 0.19845 0.15723 0.81396 0.0
C6985 C 0.19557 0.1545 0.82949 0.0
C6986 C 0.20776 0.15575 0.84149 0.0
C6987 C 0.22286 0.15978 0.83798 0.0
C6988 C 0.22581 0.16249 0.82246 0.0
C6989 C 0.24158 0.22002 0.75939 0.0
C6990 C 0.25397 0.22728 0.77051 0.0
C6991 C 0.23303 0.20576 0.76159 0.0
C6992 C 0.23746 0.19765 0.77421 0.0
C6993 C 0.25014 0.2049 0.78523 0.0
C6994 C 0.25806 0.21967 0.78359 0.0
C6995 C 0.22878 0.18188 0.77607 0.0
C6996 C 0.22563 0.17819 0.79142 0.0
C6997 C 0.22314 0.17059 0.76283 0.0
C6998 C 0.22639 0.17289 0.74627 0.0
C6999 C 0.24157 0.17657 0.74258 0.0
C7000 C 0.24446 0.17921 0.72703 0.0
C7001 C 0.23227 0.17804 0.71504 0.0
C7002 C 0.21716 0.17417 0.71856 0.0
C7003 C 0.2142 0.17155 0.73409 0.0
H7004 H 0.23453 0.18013 0.70302 0.0
H7005 H 0.20551 0.15364 0.8535 0.0
H7006 H 0.30231 0.93749 0.27313 0.0
H7007 H 0.29393 0.9097 0.27362 0.0
H7008 H 0.34133 0.90427 0.27931 0.0
H7009 H 0.34957 0.93171 0.27827 0.0
H7010 H 0.32507 0.8867 0.25439 0.0
H7011 H 0.32127 0.89942 0.30921 0.0
H7012 H 0.3136 0.91387 0.3324 0.0
H7013 H 0.26615 0.8959 0.31616 0.0
H7014 H 0.27352 0.88155 0.29267 0.0
H7015 H 0.3079 0.80746 0.26529 0.0
H7016 H 0.31816 0.83488 0.26765 0.0
H7017 H 0.27213 0.84409 0.2608 0.0
H7018 H 0.26175 0.81663 0.25898 0.0
H7019 H 0.28925 0.85952 0.28835 0.0
H7020 H 0.29575 0.84643 0.23255 0.0
H7021 H 0.30602 0.83263 0.2108 0.0
H7022 H 0.35199 0.85211 0.23107 0.0
H7023 H 0.34211 0.86548 0.25355 0.0
C7024 C 0.31076 0.93019 0.27442 0.0
C7025 C 0.3264 0.93617 0.27523 0.0
C7026 C 0.30607 0.91457 0.27495 0.0
C7027 C 0.31713 0.90525 0.27658 0.0
C7028 C 0.33278 0.91147 0.27804 0.0
C7029 C 0.33741 0.92693 0.27728 0.0
C7030 C 0.31244 0.88876 0.27477 0.0
C7031 C 0.31744 0.88065 0.26196 0.0
C7032 C 0.30247 0.88125 0.2847 0.0
C7033 C 0.29796 0.8895 0.29907 0.0
C7034 C 0.30919 0.89862 0.31051 0.0
C7035 C 0.3049 0.90679 0.32372 0.0
C7036 C 0.2894 0.90584 0.32574 0.0
C7037 C 0.27816 0.89664 0.31458 0.0
C7038 C 0.28239 0.88846 0.30131 0.0
C7039 C 0.30003 0.81532 0.26371 0.0
C7040 C 0.28412 0.81023 0.26206 0.0
C7041 C 0.30587 0.83089 0.26522 0.0
C7042 C 0.29579 0.84124 0.26455 0.0
C7043 C 0.27994 0.83607 0.2615 0.0
C7044 C 0.27409 0.82053 0.26025 0.0
C7045 C 0.30171 0.85754 0.26777 0.0
C7046 C 0.29697 0.86559 0.28089 0.0
C7047 C 0.31231 0.865 0.25839 0.0
C7048 C 0.31817 0.85688 0.24483 0.0
C7049 C 0.30806 0.84765 0.23252 0.0
C7050 C 0.31381 0.8399 0.22003 0.0
C7051 C 0.32961 0.84157 0.21944 0.0
C7052 C 0.33974 0.85084 0.23152 0.0
C7053 C 0.33408 0.85845 0.24419 0.0
H7054 H 0.33402 0.83576 0.20961 0.0
H7055 H 0.28609 0.9122 0.33596 0.0
H7056 H 0.55363 0.35396 0.54317 0.0
H7057 H 0.55148 0.37859 0.53323 0.0
H7058 H 0.52791 0.39042 0.57348 0.0
H7059 H 0.52975 0.3659 0.58319 0.0
H7060 H 0.51357 0.39801 0.54968 0.0
H7061 H 0.56791 0.40607 0.56659 0.0
H7062 H 0.59443 0.40157 0.56685 0.0
H7063 H 0.5939 0.40845 0.51728 0.0
H7064 H 0.56725 0.41268 0.51663 0.0
H7065 H 0.52074 0.47937 0.54963 0.0
H7066 H 0.52419 0.45371 0.55578 0.0
H7067 H 0.53503 0.44323 0.50791 0.0
H7068 H 0.5309 0.46873 0.50152 0.0
H7069 H 0.55602 0.43454 0.53258 0.0
H7070 H 0.50241 0.42514 0.51508 0.0
H7071 H 0.47552 0.42847 0.51362 0.0
H7072 H 0.47532 0.42442 0.5637 0.0
H7073 H 0.50219 0.4207 0.56543 0.0
C7074 C 0.54808 0.36185 0.54999 0.0
C7075 C 0.54175 0.35766 0.56401 0.0
C7076 C 0.5469 0.37608 0.54429 0.0
C7077 C 0.53961 0.38674 0.55256 0.0
C7078 C 0.53351 0.38258 0.56665 0.0
C7079 C 0.53454 0.36838 0.57223 0.0
C7080 C 0.5376 0.40189 0.54652 0.0
C7081 C 0.52303 0.406 0.54623 0.0
C7082 C 0.54959 0.41237 0.54121 0.0
C7083 C 0.56548 0.40946 0.54151 0.0
C7084 C 0.57337 0.40643 0.5557 0.0
C7085 C 0.58844 0.40396 0.55592 0.0
C7086 C 0.59582 0.40466 0.54208 0.0
C7087 C 0.58815 0.40785 0.52798 0.0
C7088 C 0.57305 0.41026 0.52768 0.0
C7089 C 0.52377 0.47157 0.54037 0.0
C7090 C 0.52548 0.47614 0.52505 0.0
C7091 C 0.52576 0.45685 0.5439 0.0
C7092 C 0.52996 0.44636 0.53237 0.0
C7093 C 0.53183 0.45098 0.51708 0.0
C7094 C 0.52937 0.46556 0.5134 0.0
C7095 C 0.5322 0.43064 0.53636 0.0
C7096 C 0.54669 0.42646 0.53615 0.0
C7097 C 0.52021 0.42002 0.54121 0.0
C7098 C 0.50434 0.42288 0.54043 0.0
C7099 C 0.49669 0.42516 0.52582 0.0
C7100 C 0.48144 0.42707 0.52493 0.0
C7101 C 0.47376 0.42689 0.53858 0.0
C7102 C 0.4813 0.42465 0.55315 0.0
C7103 C 0.49652 0.42256 0.55409 0.0
H7104 H 0.46193 0.42837 0.53782 0.0
H7105 H 0.60751 0.4028 0.54229 0.0
H7106 H 0.41066 0.74976 0.38901 0.0
H7107 H 0.38694 0.75112 0.37255 0.0
H7108 H 0.41267 0.76045 0.33271 0.0
H7109 H 0.43645 0.76003 0.34952 0.0
H7110 H 0.39373 0.77757 0.33209 0.0
H7111 H 0.38609 0.72353 0.33746 0.0
H7112 H 0.38397 0.70042 0.35163 0.0
H7113 H 0.34742 0.7141 0.3757 0.0
H7114 H 0.34943 0.73737 0.3618 0.0
H7115 H 0.32867 0.77049 0.27506 0.0
H7116 H 0.35186 0.76697 0.29039 0.0
H7117 H 0.32641 0.75716 0.3303 0.0
H7118 H 0.30268 0.75881 0.31411 0.0
H7119 H 0.34535 0.73995 0.3305 0.0
H7120 H 0.35357 0.79448 0.32485 0.0
H7121 H 0.35575 0.8171 0.3099 0.0
H7122 H 0.39147 0.80195 0.28555 0.0
H7123 H 0.3894 0.77918 0.30024 0.0
C7124 C 0.41122 0.75196 0.37669 0.0
C7125 C 0.4255 0.75475 0.37062 0.0
C7126 C 0.39757 0.75264 0.36717 0.0
C7127 C 0.39769 0.75563 0.35109 0.0
C7128 C 0.41201 0.75817 0.34499 0.0
C7129 C 0.42568 0.75787 0.35463 0.0
C7130 C 0.38315 0.75679 0.34083 0.0
C7131 C 0.38325 0.76917 0.33163 0.0
C7132 C 0.36914 0.74616 0.34028 0.0
C7133 C 0.36802 0.73225 0.34871 0.0
C7134 C 0.37768 0.72166 0.34586 0.0
C7135 C 0.37648 0.70852 0.35383 0.0
C7136 C 0.3656 0.70581 0.36459 0.0
C7137 C 0.35586 0.71622 0.36738 0.0
C7138 C 0.35702 0.72937 0.35945 0.0
C7139 C 0.32777 0.76705 0.28685 0.0
C7140 C 0.31347 0.76446 0.29296 0.0
C7141 C 0.34132 0.76549 0.29594 0.0
C7142 C 0.34128 0.76213 0.31186 0.0
C7143 C 0.32701 0.75975 0.31811 0.0
C7144 C 0.31335 0.76079 0.3088 0.0
C7145 C 0.3559 0.7608 0.32188 0.0
C7146 C 0.35583 0.74837 0.331 0.0
C7147 C 0.36997 0.77135 0.3223 0.0
C7148 C 0.37124 0.78508 0.31355 0.0
C7149 C 0.36184 0.79595 0.31626 0.0
C7150 C 0.36306 0.8088 0.30783 0.0
C7151 C 0.37372 0.81095 0.29676 0.0
C7152 C 0.38321 0.80027 0.29412 0.0
C7153 C 0.38203 0.78741 0.3025 0.0
H7154 H 0.37464 0.8209 0.29025 0.0
H7155 H 0.36469 0.69563 0.37073 0.0
H7156 H 0.03761 0.69042 0.08384 0.0
H7157 H 0.03501 0.66314 0.07473 0.0
H7158 H 0.03022 0.67292 0.02576 0.0
H7159 H 0.03193 0.70031 0.03503 0.0
H7160 H 0.01258 0.64635 0.02717 0.0
H7161 H 0.06537 0.66526 0.04515 0.0
H7162 H 0.08716 0.67965 0.06387 0.0
H7163 H 0.07462 0.6501 0.09963 0.0
H7164 H 0.05267 0.6356 0.08114 0.0
H7165 H 0.03338 0.57227 0.00205 0.0
H7166 H 0.03393 0.60002 0.00729 0.0
H7167 H 0.02615 0.5947 0.05608 0.0
H7168 H 0.0251 0.56701 0.05082 0.0
H7169 H 0.05105 0.61931 0.05227 0.0
H7170 H 0.99789 0.60021 0.03264 0.0
H7171 H 0.97621 0.58682 0.01323 0.0
H7172 H 0.99044 0.61727 0.97879 0.0
H7173 H 0.01241 0.63068 0.99791 0.0
C7174 C 0.03596 0.68676 0.07112 0.0
C7175 C 0.03515 0.69761 0.0602 0.0
C7176 C 0.03456 0.67109 0.06586 0.0
C7177 C 0.03285 0.66573 0.04945 0.0
C7178 C 0.03162 0.67655 0.03847 0.0
C7179 C 0.03266 0.69227 0.04378 0.0
C7180 C 0.0328 0.649 0.04403 0.0
C7181 C 0.02117 0.64055 0.03249 0.0
C7182 C 0.04389 0.64111 0.05085 0.0
C7183 C 0.05737 0.6494 0.0618 0.0
C7184 C 0.06727 0.66184 0.05701 0.0
C7185 C 0.07963 0.67002 0.06758 0.0
C7186 C 0.08226 0.6658 0.08294 0.0
C7187 C 0.07258 0.65334 0.08772 0.0
C7188 C 0.0602 0.64511 0.07719 0.0
C7189 C 0.03178 0.577 0.0139 0.0
C7190 C 0.02918 0.56728 0.02599 0.0
C7191 C 0.03202 0.59291 0.01687 0.0
C7192 C 0.03001 0.5996 0.0321 0.0
C7193 C 0.02769 0.58993 0.04422 0.0
C7194 C 0.02708 0.57403 0.04117 0.0
C7195 C 0.03071 0.61663 0.03568 0.0
C7196 C 0.04254 0.62514 0.04685 0.0
C7197 C 0.01997 0.62455 0.02827 0.0
C7198 C 0.00693 0.61632 0.01665 0.0
C7199 C 0.99653 0.60393 0.02086 0.0
C7200 C 0.98415 0.59637 0.00993 0.0
C7201 C 0.98196 0.60117 0.99478 0.0
C7202 C 0.99217 0.61354 0.99052 0.0
C7203 C 0.00459 0.62112 0.00141 0.0
H7204 H 0.97234 0.59533 0.98635 0.0
H7205 H 0.09181 0.67218 0.09113 0.0
H7206 H 0.08832 0.28063 0.89441 0.0
H7207 H 0.11095 0.28169 0.88008 0.0
H7208 H 0.08493 0.24873 0.84246 0.0
H7209 H 0.06226 0.24748 0.85686 0.0
H7210 H 0.11169 0.24168 0.84752 0.0
H7211 H 0.09561 0.28862 0.83865 0.0
H7212 H 0.08796 0.31355 0.8451 0.0
H7213 H 0.13155 0.33067 0.87282 0.0
H7214 H 0.13938 0.30577 0.86672 0.0
H7215 H 0.16791 0.26233 0.79114 0.0
H7216 H 0.14517 0.25563 0.80533 0.0
H7217 H 0.16997 0.2814 0.84842 0.0
H7218 H 0.1926 0.28789 0.83435 0.0
H7219 H 0.14316 0.29138 0.83913 0.0
H7220 H 0.15886 0.2435 0.847 0.0
H7221 H 0.16596 0.21859 0.83912 0.0
H7222 H 0.12224 0.2034 0.81108 0.0
H7223 H 0.11497 0.22833 0.8186 0.0
C7224 C 0.0873 0.27371 0.883 0.0
C7225 C 0.0733 0.26401 0.87685 0.0
C7226 C 0.10034 0.27433 0.87476 0.0
C7227 C 0.09978 0.26546 0.85995 0.0
C7228 C 0.08583 0.2557 0.85382 0.0
C7229 C 0.0728 0.25499 0.86213 0.0
C7230 C 0.11374 0.26625 0.85104 0.0
C7231 C 0.11841 0.25258 0.84551 0.0
C7232 C 0.1228 0.28039 0.84842 0.0
C7233 C 0.11801 0.29527 0.85238 0.0
C7234 C 0.1035 0.29765 0.84626 0.0
C7235 C 0.09915 0.31179 0.84982 0.0
C7236 C 0.10925 0.32367 0.8594 0.0
C7237 C 0.12373 0.32145 0.86543 0.0
C7238 C 0.12813 0.30733 0.86192 0.0
C7239 C 0.16873 0.26588 0.80384 0.0
C7240 C 0.1822 0.27537 0.8117 0.0
C7241 C 0.15565 0.2622 0.81192 0.0
C7242 C 0.15574 0.26809 0.82799 0.0
C7243 C 0.16952 0.27672 0.83606 0.0
C7244 C 0.18256 0.28026 0.82806 0.0
C7245 C 0.14123 0.26687 0.83592 0.0
C7246 C 0.13642 0.28049 0.84117 0.0
C7247 C 0.13197 0.2527 0.83803 0.0
C7248 C 0.13646 0.23786 0.83319 0.0
C7249 C 0.15084 0.23493 0.83898 0.0
C7250 C 0.15487 0.22078 0.83462 0.0
C7251 C 0.14458 0.20944 0.82456 0.0
C7252 C 0.13022 0.21221 0.81884 0.0
C7253 C 0.12614 0.22635 0.82315 0.0
H7254 H 0.14771 0.19848 0.82123 0.0
H7255 H 0.10586 0.33462 0.86212 0.0
H7256 H 0.53975 0.73357 0.92786 0.0
H7257 H 0.53851 0.7111 0.94255 0.0
H7258 H 0.52016 0.68168 0.89907 0.0
H7259 H 0.52065 0.70424 0.88459 0.0
H7260 H 0.50591 0.67078 0.92066 0.0
H7261 H 0.56026 0.68772 0.9193 0.0
H7262 H 0.58479 0.70619 0.92396 0.0
H7263 H 0.58093 0.71123 0.97429 0.0
H7264 H 0.55628 0.69294 0.9699 0.0
H7265 H 0.51351 0.60074 0.9487 0.0
H7266 H 0.51995 0.62332 0.93454 0.0
H7267 H 0.53141 0.65191 0.97958 0.0
H7268 H 0.52518 0.62917 0.99375 0.0
H7269 H 0.54969 0.66323 0.9578 0.0
H7270 H 0.49578 0.64633 0.95922 0.0
H7271 H 0.47141 0.62765 0.9549 0.0
H7272 H 0.47452 0.62271 0.90442 0.0
H7273 H 0.4991 0.64113 0.90847 0.0
C7274 C 0.53549 0.7223 0.92142 0.0
C7275 C 0.53034 0.72076 0.905 0.0
C7276 C 0.53488 0.70936 0.92984 0.0
C7277 C 0.52958 0.69443 0.92198 0.0
C7278 C 0.52434 0.69294 0.90556 0.0
C7279 C 0.52463 0.70589 0.89723 0.0
C7280 C 0.52909 0.68041 0.9308 0.0
C7281 C 0.51565 0.66909 0.92852 0.0
C7282 C 0.54151 0.67815 0.9416 0.0
C7283 C 0.55637 0.68907 0.94425 0.0
C7284 C 0.56461 0.69284 0.93134 0.0
C7285 C 0.57853 0.70327 0.93394 0.0
C7286 C 0.5844 0.70991 0.94941 0.0
C7287 C 0.57637 0.70609 0.96232 0.0
C7288 C 0.56243 0.69569 0.95978 0.0
C7289 C 0.51811 0.61171 0.9556 0.0
C7290 C 0.51918 0.61307 0.97238 0.0
C7291 C 0.52155 0.62472 0.94748 0.0
C7292 C 0.52587 0.63949 0.95592 0.0
C7293 C 0.52807 0.64072 0.97272 0.0
C7294 C 0.52466 0.62768 0.98084 0.0
C7295 C 0.52668 0.6536 0.94732 0.0
C7296 C 0.54008 0.66493 0.94977 0.0
C7297 C 0.51424 0.65589 0.93665 0.0
C7298 C 0.49936 0.64498 0.93417 0.0
C7299 C 0.49132 0.64117 0.94721 0.0
C7300 C 0.47747 0.63063 0.94481 0.0
C7301 C 0.47144 0.62397 0.9294 0.0
C7302 C 0.47923 0.62786 0.91635 0.0
C7303 C 0.49312 0.63834 0.91869 0.0
H7304 H 0.46071 0.61582 0.92757 0.0
H7305 H 0.59518 0.71798 0.95139 0.0
H7306 H 0.09369 0.73402 0.72727 0.0
H7307 H 0.12093 0.73631 0.736 0.0
H7308 H 0.12808 0.78476 0.73148 0.0
H7309 H 0.1011 0.78239 0.72174 0.0
H7310 H 0.14933 0.77489 0.71915 0.0
H7311 H 0.1305 0.76771 0.76954 0.0
H7312 H 0.11511 0.75539 0.78916 0.0
H7313 H 0.13389 0.71461 0.7805 0.0
H7314 H 0.1493 0.72664 0.76073 0.0
H7315 H 0.22746 0.79105 0.75256 0.0
H7316 H 0.19975 0.78978 0.74826 0.0
H7317 H 0.19235 0.74079 0.74955 0.0
H7318 H 0.22004 0.74219 0.75406 0.0
H7319 H 0.17136 0.75139 0.76454 0.0
H7320 H 0.18928 0.759 0.71309 0.0
H7321 H 0.2056 0.77247 0.69487 0.0
H7322 H 0.18868 0.81377 0.70713 0.0
H7323 H 0.17232 0.80055 0.7255 0.0
C7324 C 0.10099 0.74519 0.728 0.0
C7325 C 0.09488 0.75797 0.72353 0.0
C7326 C 0.11669 0.74654 0.73332 0.0
C7327 C 0.12685 0.76076 0.73462 0.0
C7328 C 0.12069 0.7736 0.73063 0.0
C7329 C 0.10505 0.77224 0.72517 0.0
C7330 C 0.14395 0.76213 0.73893 0.0
C7331 C 0.15404 0.76994 0.72928 0.0
C7332 C 0.15045 0.75543 0.75191 0.0
C7333 C 0.14091 0.74802 0.7635 0.0
C7334 C 0.13122 0.75606 0.77169 0.0
C7335 C 0.12253 0.74914 0.78288 0.0
C7336 C 0.12348 0.73421 0.78603 0.0
C7337 C 0.13314 0.72617 0.77803 0.0
C7338 C 0.14187 0.73304 0.76684 0.0
C7339 C 0.21997 0.77996 0.75184 0.0
C7340 C 0.22616 0.76667 0.75375 0.0
C7341 C 0.20401 0.77923 0.74935 0.0
C7342 C 0.19369 0.76513 0.74828 0.0
C7343 C 0.19987 0.75187 0.75033 0.0
C7344 C 0.21583 0.75265 0.753 0.0
C7345 C 0.17657 0.76413 0.74475 0.0
C7346 C 0.16654 0.75637 0.75448 0.0
C7347 C 0.17007 0.77097 0.73195 0.0
C7348 C 0.17967 0.77882 0.72071 0.0
C7349 C 0.18907 0.77096 0.71191 0.0
C7350 C 0.19832 0.77855 0.70156 0.0
C7351 C 0.19818 0.79397 0.69984 0.0
C7352 C 0.18876 0.80182 0.70845 0.0
C7353 C 0.17948 0.79428 0.7188 0.0
H7354 H 0.20536 0.79983 0.69184 0.0
H7355 H 0.11675 0.72888 0.79471 0.0
H7356 H 0.0182 0.37478 0.39778 0.0
H7357 H 0.01764 0.39832 0.41477 0.0
H7358 H 0.05673 0.39133 0.44521 0.0
H7359 H 0.05722 0.36749 0.42834 0.0
H7360 H 0.03577 0.40045 0.46328 0.0
H7361 H 0.06049 0.41903 0.41996 0.0
H7362 H 0.06495 0.42249 0.39212 0.0
H7363 H 0.0234 0.4403 0.38521 0.0
H7364 H 0.01853 0.43669 0.41295 0.0
H7365 H 0.04662 0.47714 0.50477 0.0
H7366 H 0.05001 0.45342 0.48934 0.0
H7367 H 0.01095 0.45574 0.45614 0.0
H7368 H 0.00738 0.4792 0.4718 0.0
H7369 H 0.03418 0.44932 0.44017 0.0
H7370 H 0.00961 0.42959 0.48427 0.0
H7371 H 0.00669 0.42696 0.51262 0.0
H7372 H 0.04996 0.41216 0.51853 0.0
H7373 H 0.05325 0.41491 0.49026 0.0
C7374 C 0.02666 0.37811 0.40813 0.0
C7375 C 0.03772 0.36899 0.41158 0.0
C7376 C 0.02641 0.39176 0.41782 0.0
C7377 C 0.03719 0.39686 0.43135 0.0
C7378 C 0.04825 0.38779 0.4349 0.0
C7379 C 0.04858 0.37415 0.42511 0.0
C7380 C 0.03672 0.4115 0.44175 0.0
C7381 C 0.03566 0.41117 0.45822 0.0
C7382 C 0.03642 0.42562 0.43533 0.0
C7383 C 0.03906 0.42742 0.4185 0.0
C7384 C 0.05219 0.4235 0.41245 0.0
C7385 C 0.05482 0.42553 0.3967 0.0
C7386 C 0.04444 0.43156 0.38689 0.0
C7387 C 0.03141 0.43559 0.39281 0.0
C7388 C 0.02871 0.43355 0.40855 0.0
C7389 C 0.03872 0.47252 0.49422 0.0
C7390 C 0.02691 0.48025 0.48935 0.0
C7391 C 0.04065 0.45891 0.48538 0.0
C7392 C 0.03076 0.4526 0.47144 0.0
C7393 C 0.01888 0.46032 0.46668 0.0
C7394 C 0.01691 0.47386 0.47558 0.0
C7395 C 0.03286 0.4382 0.46161 0.0
C7396 C 0.0343 0.43859 0.44523 0.0
C7397 C 0.03368 0.42422 0.46817 0.0
C7398 C 0.03176 0.42263 0.48519 0.0
C7399 C 0.01858 0.42592 0.49165 0.0
C7400 C 0.01684 0.42437 0.5077 0.0
C7401 C 0.02815 0.41944 0.51738 0.0
C7402 C 0.04122 0.41601 0.51103 0.0
C7403 C 0.04302 0.41755 0.49499 0.0
H7404 H 0.02678 0.41824 0.5298 0.0
H7405 H 0.04651 0.43317 0.37471 0.0
H7406 H 0.42545 0.2308 0.20831 0.0
H7407 H 0.40086 0.23283 0.21813 0.0
H7408 H 0.42061 0.27741 0.24289 0.0
H7409 H 0.44539 0.27535 0.23338 0.0
H7410 H 0.40058 0.26122 0.26099 0.0
H7411 H 0.39886 0.27377 0.20705 0.0
H7412 H 0.40181 0.26898 0.17844 0.0
H7413 H 0.36711 0.22823 0.17398 0.0
H7414 H 0.36415 0.23264 0.20265 0.0
H7415 H 0.32958 0.28474 0.27387 0.0
H7416 H 0.355 0.2823 0.26698 0.0
H7417 H 0.33493 0.24292 0.23323 0.0
H7418 H 0.30935 0.24635 0.23904 0.0
H7419 H 0.35586 0.25653 0.22013 0.0
H7420 H 0.35711 0.2438 0.27413 0.0
H7421 H 0.35518 0.24764 0.30306 0.0
H7422 H 0.39097 0.28752 0.30805 0.0
H7423 H 0.39296 0.28406 0.27911 0.0
C7424 C 0.42473 0.24099 0.21602 0.0
C7425 C 0.43763 0.25296 0.21981 0.0
C7426 C 0.4105 0.24219 0.22158 0.0
C7427 C 0.40858 0.2554 0.23115 0.0
C7428 C 0.42157 0.26711 0.23549 0.0
C7429 C 0.4358 0.26596 0.22986 0.0
C7430 C 0.39293 0.2573 0.23584 0.0
C7431 C 0.39083 0.26034 0.25204 0.0
C7432 C 0.37997 0.2559 0.22434 0.0
C7433 C 0.38136 0.25348 0.20701 0.0
C7434 C 0.3919 0.26376 0.19998 0.0
C7435 C 0.39359 0.2611 0.18376 0.0
C7436 C 0.38467 0.24829 0.1744 0.0
C7437 C 0.37401 0.23814 0.18124 0.0
C7438 C 0.37232 0.24072 0.19748 0.0
C7439 C 0.33045 0.27573 0.26478 0.0
C7440 C 0.3171 0.26604 0.25684 0.0
C7441 C 0.34522 0.27409 0.26102 0.0
C7442 C 0.34734 0.2622 0.24967 0.0
C7443 C 0.33398 0.25229 0.24196 0.0
C7444 C 0.31919 0.25424 0.24538 0.0
C7445 C 0.36323 0.26028 0.24543 0.0
C7446 C 0.36546 0.25731 0.22922 0.0
C7447 C 0.37627 0.26165 0.25699 0.0
C7448 C 0.37506 0.26376 0.2744 0.0
C7449 C 0.36449 0.25346 0.28137 0.0
C7450 C 0.3634 0.25556 0.29777 0.0
C7451 C 0.37292 0.26784 0.30737 0.0
C7452 C 0.38358 0.27803 0.30059 0.0
C7453 C 0.3847 0.276 0.28419 0.0
H7454 H 0.37206 0.26945 0.32007 0.0
H7455 H 0.38601 0.24625 0.16185 0.0
H7456 H 0.58375 0.49685 0.35145 0.0
H7457 H 0.57322 0.49552 0.37686 0.0
H7458 H 0.57514 0.54446 0.38155 0.0
H7459 H 0.58708 0.54613 0.35697 0.0
H7460 H 0.5845 0.53792 0.40827 0.0
H7461 H 0.53995 0.5151 0.37174 0.0
H7462 H 0.52456 0.49699 0.34988 0.0
H7463 H 0.53146 0.45908 0.37567 0.0
H7464 H 0.54702 0.47695 0.39761 0.0
H7465 H 0.53162 0.53905 0.46717 0.0
H7466 H 0.54221 0.53906 0.44149 0.0
H7467 H 0.55769 0.49684 0.44896 0.0
H7468 H 0.54757 0.49711 0.47509 0.0
H7469 H 0.53942 0.49934 0.41678 0.0
H7470 H 0.5838 0.52307 0.45342 0.0
H7471 H 0.59857 0.54172 0.47516 0.0
H7472 H 0.59055 0.57886 0.44866 0.0
H7473 H 0.57552 0.56041 0.42685 0.0
C7474 C 0.58216 0.50741 0.35792 0.0
C7475 C 0.58644 0.52163 0.35199 0.0
C7476 C 0.5758 0.50657 0.3724 0.0
C7477 C 0.57309 0.51985 0.38115 0.0
C7478 C 0.57705 0.534 0.37511 0.0
C7479 C 0.58373 0.53491 0.36083 0.0
C7480 C 0.56691 0.51916 0.39695 0.0
C7481 C 0.57449 0.52961 0.40997 0.0
C7482 C 0.55404 0.50811 0.39948 0.0
C7483 C 0.54477 0.49736 0.38624 0.0
C7484 C 0.53828 0.50289 0.37269 0.0
C7485 C 0.5295 0.49267 0.3603 0.0
C7486 C 0.52707 0.47689 0.36137 0.0
C7487 C 0.53337 0.4713 0.37485 0.0
C7488 C 0.54215 0.48147 0.38727 0.0
C7489 C 0.53729 0.52978 0.46332 0.0
C7490 C 0.53884 0.51809 0.47306 0.0
C7491 C 0.54335 0.52982 0.44871 0.0
C7492 C 0.55073 0.51797 0.44337 0.0
C7493 C 0.55206 0.5061 0.45293 0.0
C7494 C 0.54636 0.50629 0.46782 0.0
C7495 C 0.55701 0.51808 0.42777 0.0
C7496 C 0.54941 0.50761 0.41489 0.0
C7497 C 0.5697 0.52922 0.42529 0.0
C7498 C 0.57841 0.54036 0.43857 0.0
C7499 C 0.58502 0.53521 0.45231 0.0
C7500 C 0.59352 0.54575 0.4646 0.0
C7501 C 0.59554 0.56147 0.46326 0.0
C7502 C 0.58901 0.56668 0.44966 0.0
C7503 C 0.5805 0.55619 0.43732 0.0
H7504 H 0.60212 0.56961 0.4728 0.0
H7505 H 0.52027 0.469 0.35176 0.0
H7506 H 0.28464 0.84715 0.05555 0.0
H7507 H 0.28245 0.83395 0.07971 0.0
H7508 H 0.28008 0.87677 0.10706 0.0
H7509 H 0.28263 0.88992 0.08305 0.0
H7510 H 0.29998 0.86158 0.1213 0.0
H7511 H 0.24792 0.85011 0.09565 0.0
H7512 H 0.2281 0.84048 0.07289 0.0
H7513 H 0.23977 0.79572 0.07224 0.0
H7514 H 0.25981 0.80515 0.09487 0.0
H7515 H 0.28702 0.83019 0.19076 0.0
H7516 H 0.27682 0.84153 0.16785 0.0
H7517 H 0.28331 0.80278 0.13635 0.0
H7518 H 0.29409 0.79173 0.15922 0.0
H7519 H 0.2588 0.81693 0.12498 0.0
H7520 H 0.31232 0.82832 0.14706 0.0
H7521 H 0.33422 0.83741 0.16779 0.0
H7522 H 0.32199 0.88192 0.17304 0.0
H7523 H 0.29975 0.87298 0.15261 0.0
C7524 C 0.28378 0.85362 0.06683 0.0
C7525 C 0.28387 0.86937 0.06782 0.0
C7526 C 0.28238 0.84614 0.08046 0.0
C7527 C 0.28085 0.85444 0.09495 0.0
C7528 C 0.28117 0.87026 0.09589 0.0
C7529 C 0.28268 0.87772 0.08232 0.0
C7530 C 0.27948 0.8468 0.1094 0.0
C7531 C 0.29078 0.85204 0.12228 0.0
C7532 C 0.26769 0.83413 0.11028 0.0
C7533 C 0.2554 0.82836 0.09691 0.0
C7534 C 0.2463 0.83823 0.09061 0.0
C7535 C 0.23503 0.83281 0.07773 0.0
C7536 C 0.23269 0.8175 0.07111 0.0
C7537 C 0.24159 0.80757 0.07739 0.0
C7538 C 0.25289 0.81295 0.09026 0.0
C7539 C 0.28595 0.82399 0.17899 0.0
C7540 C 0.29187 0.81052 0.17642 0.0
C7541 C 0.27991 0.83032 0.166 0.0
C7542 C 0.27968 0.82305 0.15054 0.0
C7543 C 0.28354 0.80851 0.14827 0.0
C7544 C 0.28983 0.80233 0.16121 0.0
C7545 C 0.27916 0.83191 0.13693 0.0
C7546 C 0.26769 0.82677 0.12415 0.0
C7547 C 0.29095 0.84461 0.13599 0.0
C7548 C 0.30411 0.84985 0.14859 0.0
C7549 C 0.31409 0.83995 0.15286 0.0
C7550 C 0.3266 0.84508 0.16453 0.0
C7551 C 0.3294 0.86018 0.17185 0.0
C7552 C 0.31973 0.87019 0.16747 0.0
C7553 C 0.30714 0.86508 0.15588 0.0
H7554 H 0.33913 0.86414 0.18083 0.0
H7555 H 0.22396 0.81332 0.06114 0.0
H7556 H 0.92968 0.49454 0.8587 0.0
H7557 H 0.9453 0.49647 0.88398 0.0
H7558 H 0.94561 0.54519 0.89115 0.0
H7559 H 0.93171 0.54373 0.86473 0.0
H7560 H 0.97222 0.54052 0.89821 0.0
H7561 H 0.92294 0.51707 0.91141 0.0
H7562 H 0.89876 0.49812 0.90805 0.0
H7563 H 0.92399 0.46186 0.91405 0.0
H7564 H 0.94832 0.48051 0.91716 0.0
H7565 H 0.99938 0.5432 0.98045 0.0
H7566 H 0.9847 0.54437 0.95498 0.0
H7567 H 0.99161 0.49908 0.93822 0.0
H7568 H 0.00637 0.49778 0.96385 0.0
H7569 H 0.96052 0.5036 0.93775 0.0
H7570 H 0.00876 0.52612 0.91855 0.0
H7571 H 0.0332 0.54457 0.92035 0.0
H7572 H 0.00931 0.58209 0.92704 0.0
H7573 H 0.98467 0.56384 0.92477 0.0
C7574 C 0.93333 0.50574 0.86546 0.0
C7575 C 0.92959 0.51902 0.85968 0.0
C7576 C 0.9419 0.50674 0.88011 0.0
C7577 C 0.94612 0.52088 0.88957 0.0
C7578 C 0.94222 0.53415 0.88401 0.0
C7579 C 0.93418 0.53326 0.86902 0.0
C7580 C 0.95567 0.52194 0.90472 0.0
C7581 C 0.96946 0.53266 0.90701 0.0
C7582 C 0.95218 0.51141 0.91595 0.0
C7583 C 0.93748 0.50021 0.91445 0.0
C7584 C 0.92334 0.50505 0.91195 0.0
C7585 C 0.9096 0.49435 0.91008 0.0
C7586 C 0.90984 0.4788 0.91082 0.0
C7587 C 0.92382 0.47391 0.91348 0.0
C7588 C 0.93758 0.48454 0.91532 0.0
C7589 C 0.99784 0.53355 0.97127 0.0
C7590 C 0.00371 0.52031 0.9739 0.0
C7591 C 0.98966 0.53432 0.95678 0.0
C7592 C 0.98732 0.52185 0.94497 0.0
C7593 C 0.99355 0.50878 0.94737 0.0
C7594 C 1.00187 0.50805 0.96185 0.0
C7595 C 0.97695 0.52185 0.9308 0.0
C7596 C 0.96302 0.51148 0.9289 0.0
C7597 C 0.9802 0.5327 0.92 0.0
C7598 C 0.99495 0.54366 0.9216 0.0
C7599 C 0.00876 0.53831 0.92046 0.0
C7600 C 0.02262 0.54872 0.9215 0.0
C7601 C 0.02283 0.56449 0.92397 0.0
C7602 C 0.00914 0.56988 0.92518 0.0
C7603 C 0.99521 0.55952 0.92389 0.0
H7604 H 0.0336 0.57252 0.92487 0.0
H7605 H 0.89919 0.47053 0.90934 0.0
H7606 H 0.29745 0.21602 0.59251 0.0
H7607 H 0.29835 0.2283 0.61956 0.0
H7608 H 0.24891 0.2208 0.61494 0.0
H7609 H 0.24794 0.21028 0.58733 0.0
H7610 H 0.25756 0.24546 0.6316 0.0
H7611 H 0.27482 0.19704 0.63501 0.0
H7612 H 0.29186 0.17863 0.62952 0.0
H7613 H 0.33071 0.21159 0.65246 0.0
H7614 H 0.31393 0.23027 0.65787 0.0
H7615 H 0.24645 0.24797 0.71457 0.0
H7616 H 0.24741 0.23963 0.6863 0.0
H7617 H 0.29628 0.25628 0.69201 0.0
H7618 H 0.29535 0.2649 0.72007 0.0
H7619 H 0.28942 0.22844 0.67514 0.0
H7620 H 0.27163 0.27594 0.67335 0.0
H7621 H 0.25487 0.29487 0.67752 0.0
H7622 H 0.21672 0.26324 0.65132 0.0
H7623 H 0.23316 0.24401 0.64726 0.0
C7624 C 0.28671 0.21724 0.597 0.0
C7625 C 0.27257 0.21173 0.58747 0.0
C7626 C 0.28725 0.22405 0.61277 0.0
C7627 C 0.27368 0.22503 0.61977 0.0
C7628 C 0.25962 0.22006 0.61011 0.0
C7629 C 0.25908 0.21371 0.59423 0.0
C7630 C 0.27391 0.23104 0.63707 0.0
C7631 C 0.26436 0.24147 0.64108 0.0
C7632 C 0.28314 0.22642 0.64966 0.0
C7633 C 0.29315 0.21508 0.64671 0.0
C7634 C 0.28701 0.20037 0.63883 0.0
C7635 C 0.29662 0.1899 0.63572 0.0
C7636 C 0.31236 0.19395 0.6406 0.0
C7637 C 0.31852 0.20847 0.64866 0.0
C7638 C 0.30896 0.219 0.65176 0.0
C7639 C 0.25736 0.25004 0.70979 0.0
C7640 C 0.27074 0.25741 0.71964 0.0
C7641 C 0.25792 0.24523 0.69358 0.0
C7642 C 0.27191 0.24747 0.68685 0.0
C7643 C 0.28532 0.25446 0.69679 0.0
C7644 C 0.28474 0.25943 0.7129 0.0
C7645 C 0.27267 0.24238 0.66958 0.0
C7646 C 0.28252 0.23226 0.66562 0.0
C7647 C 0.26362 0.24717 0.65705 0.0
C7648 C 0.2536 0.25849 0.66011 0.0
C7649 C 0.25962 0.27294 0.66866 0.0
C7650 C 0.25019 0.28375 0.67095 0.0
C7651 C 0.23477 0.28028 0.6646 0.0
C7652 C 0.22868 0.26592 0.65617 0.0
C7653 C 0.23804 0.25507 0.65389 0.0
H7654 H 0.22753 0.28872 0.66617 0.0
H7655 H 0.31978 0.18584 0.63817 0.0
H7656 H 0.57019 0.4982 0.19224 0.0
H7657 H 0.55913 0.4975 0.16456 0.0
H7658 H 0.58161 0.54431 0.16375 0.0
H7659 H 0.59346 0.54494 0.19089 0.0
H7660 H 0.55056 0.53838 0.15045 0.0
H7661 H 0.59625 0.51714 0.14709 0.0
H7662 H 0.61347 0.49903 0.15265 0.0
H7663 H 0.57868 0.46143 0.13033 0.0
H7664 H 0.56109 0.4793 0.12497 0.0
H7665 H 0.54633 0.54678 0.06719 0.0
H7666 H 0.55481 0.54606 0.09542 0.0
H7667 H 0.53628 0.49756 0.09069 0.0
H7668 H 0.52756 0.49829 0.06261 0.0
H7669 H 0.56378 0.50312 0.10725 0.0
H7670 H 0.51835 0.524 0.10942 0.0
H7671 H 0.50038 0.54163 0.10483 0.0
H7672 H 0.53367 0.57924 0.12966 0.0
H7673 H 0.55199 0.56192 0.13409 0.0
C7674 C 0.57301 0.50833 0.18621 0.0
C7675 C 0.58286 0.52164 0.19412 0.0
C7676 C 0.56652 0.50793 0.17034 0.0
C7677 C 0.56953 0.52086 0.16201 0.0
C7678 C 0.57901 0.53422 0.16992 0.0
C7679 C 0.58571 0.53456 0.18563 0.0
C7680 C 0.56319 0.5205 0.14495 0.0
C7681 C 0.55356 0.53078 0.14097 0.0
C7682 C 0.56674 0.51029 0.13259 0.0
C7683 C 0.57727 0.49954 0.13584 0.0
C7684 C 0.59219 0.50499 0.14354 0.0
C7685 C 0.60203 0.49477 0.14664 0.0
C7686 C 0.59715 0.47908 0.1419 0.0
C7687 C 0.58242 0.47358 0.13404 0.0
C7688 C 0.57251 0.48375 0.13099 0.0
C7689 C 0.54384 0.53603 0.07218 0.0
C7690 C 0.53595 0.5227 0.06259 0.0
C7691 C 0.54875 0.53559 0.08838 0.0
C7692 C 0.54603 0.52178 0.09537 0.0
C7693 C 0.53848 0.50839 0.0857 0.0
C7694 C 0.53345 0.50886 0.06958 0.0
C7695 C 0.55126 0.52119 0.11263 0.0
C7696 C 0.56067 0.5107 0.11668 0.0
C7697 C 0.54743 0.53116 0.12507 0.0
C7698 C 0.53661 0.54168 0.12196 0.0
C7699 C 0.52192 0.53607 0.11373 0.0
C7700 C 0.51165 0.546 0.1112 0.0
C7701 C 0.51587 0.56153 0.11701 0.0
C7702 C 0.53042 0.5672 0.1252 0.0
C7703 C 0.54075 0.55734 0.1277 0.0
H7704 H 0.50785 0.56917 0.11522 0.0
H7705 H 0.6048 0.47119 0.14427 0.0
H7706 H 0.29718 0.87463 0.91533 0.0
H7707 H 0.29485 0.85839 0.89019 0.0
H7708 H 0.24986 0.83556 0.89871 0.0
H7709 H 0.25255 0.85118 0.92454 0.0
H7710 H 0.26718 0.81569 0.88942 0.0
H7711 H 0.25397 0.86152 0.87168 0.0
H7712 H 0.25712 0.88934 0.86996 0.0
H7713 H 0.29944 0.88894 0.84967 0.0
H7714 H 0.2967 0.86117 0.85153 0.0
H7715 H 0.25082 0.78735 0.80453 0.0
H7716 H 0.24959 0.80211 0.83015 0.0
H7717 H 0.29904 0.81106 0.83886 0.0
H7718 H 0.30028 0.7954 0.81365 0.0
H7719 H 0.27682 0.83734 0.83857 0.0
H7720 H 0.29148 0.7924 0.85979 0.0
H7721 H 0.2883 0.76455 0.86105 0.0
H7722 H 0.24302 0.76356 0.87483 0.0
H7723 H 0.24574 0.79139 0.87308 0.0
C7724 C 0.28686 0.86605 0.91193 0.0
C7725 C 0.27507 0.86403 0.92183 0.0
C7726 C 0.28545 0.85697 0.89749 0.0
C7727 C 0.27207 0.84608 0.89261 0.0
C7728 C 0.26019 0.84408 0.90236 0.0
C7729 C 0.26169 0.85302 0.91697 0.0
C7730 C 0.27096 0.83627 0.87761 0.0
C7731 C 0.269 0.82039 0.87823 0.0
C7732 C 0.27361 0.84257 0.86319 0.0
C7733 C 0.27516 0.85926 0.86183 0.0
C7734 C 0.264 0.86738 0.86694 0.0
C7735 C 0.26571 0.88314 0.86594 0.0
C7736 C 0.27848 0.89091 0.85973 0.0
C7737 C 0.28956 0.88291 0.85448 0.0
C7738 C 0.28792 0.86716 0.85549 0.0
C7739 C 0.26137 0.79243 0.81204 0.0
C7740 C 0.27566 0.79063 0.80738 0.0
C7741 C 0.26064 0.80069 0.82653 0.0
C7742 C 0.27423 0.80743 0.8361 0.0
C7743 C 0.28853 0.80567 0.83146 0.0
C7744 C 0.28923 0.79686 0.81725 0.0
C7745 C 0.27343 0.81701 0.85063 0.0
C7746 C 0.27488 0.83276 0.8498 0.0
C7747 C 0.27032 0.81062 0.86481 0.0
C7748 C 0.26869 0.79392 0.86595 0.0
C7749 C 0.28073 0.78621 0.86277 0.0
C7750 C 0.27904 0.77043 0.86363 0.0
C7751 C 0.26544 0.76227 0.86796 0.0
C7752 C 0.25352 0.76989 0.87143 0.0
C7753 C 0.25512 0.78566 0.87045 0.0
H7754 H 0.26416 0.75006 0.86866 0.0
H7755 H 0.27979 0.90312 0.85898 0.0
H7756 H 0.92517 0.53633 0.71257 0.0
H7757 H 0.93936 0.53854 0.68944 0.0
H7758 H 0.93905 0.48981 0.68538 0.0
H7759 H 0.92598 0.48771 0.70932 0.0
H7760 H 0.96603 0.50473 0.68208 0.0
H7761 H 0.91396 0.50596 0.66094 0.0
H7762 H 0.89001 0.51623 0.66073 0.0
H7763 H 0.91439 0.56042 0.65268 0.0
H7764 H 0.93852 0.55042 0.653 0.0
H7765 H 0.96579 0.47682 0.60426 0.0
H7766 H 0.95289 0.48787 0.62555 0.0
H7767 H 0.98586 0.53017 0.62934 0.0
H7768 H 0.9987 0.51915 0.60774 0.0
H7769 H 0.94575 0.52511 0.63345 0.0
H7770 H 0.9991 0.51984 0.65489 0.0
H7771 H 0.02031 0.50542 0.65432 0.0
H7772 H 0.98941 0.46411 0.66048 0.0
H7773 H 0.96801 0.47829 0.6609 0.0
C7774 C 0.92838 0.52613 0.70692 0.0
C7775 C 0.92459 0.51185 0.71277 0.0
C7776 C 0.93627 0.52739 0.6936 0.0
C7777 C 0.94005 0.51432 0.68569 0.0
C7778 C 0.93619 0.50003 0.69141 0.0
C7779 C 0.92859 0.49881 0.70494 0.0
C7780 C 0.94825 0.51544 0.67152 0.0
C7781 C 0.96168 0.50938 0.67154 0.0
C7782 C 0.9426 0.52162 0.65787 0.0
C7783 C 0.92803 0.52749 0.6571 0.0
C7784 C 0.9142 0.51787 0.65915 0.0
C7785 C 0.9006 0.52364 0.65902 0.0
C7786 C 0.90068 0.53898 0.65672 0.0
C7787 C 0.91435 0.54854 0.65446 0.0
C7788 C 0.92798 0.54283 0.65459 0.0
C7789 C 0.97006 0.48855 0.60949 0.0
C7790 C 0.98329 0.49711 0.60484 0.0
C7791 C 0.96262 0.4949 0.62138 0.0
C7792 C 0.9685 0.50977 0.62881 0.0
C7793 C 0.98116 0.51874 0.62349 0.0
C7794 C 0.98853 0.51241 0.61141 0.0
C7795 C 0.9633 0.51422 0.6441 0.0
C7796 C 0.9504 0.52116 0.64428 0.0
C7797 C 0.96914 0.5085 0.6579 0.0
C7798 C 0.98202 0.50008 0.65783 0.0
C7799 C 0.99685 0.50767 0.65603 0.0
C7800 C 0.00889 0.49954 0.65575 0.0
C7801 C 0.0062 0.48385 0.65734 0.0
C7802 C 0.99148 0.47625 0.65924 0.0
C7803 C 0.9794 0.48433 0.65952 0.0
H7804 H 0.01554 0.47758 0.65712 0.0
H7805 H 0.89015 0.54344 0.65667 0.0
H7806 H 0.24867 0.19577 0.41884 0.0
H7807 H 0.25019 0.20725 0.39384 0.0
H7808 H 0.29577 0.23202 0.41099 0.0
H7809 H 0.29416 0.2209 0.43632 0.0
H7810 H 0.27922 0.25011 0.39548 0.0
H7811 H 0.2907 0.20005 0.38497 0.0
H7812 H 0.28691 0.17189 0.38406 0.0
H7813 H 0.24502 0.16737 0.353 0.0
H7814 H 0.24842 0.19553 0.35395 0.0
H7815 H 0.29938 0.25518 0.31214 0.0
H7816 H 0.29919 0.24612 0.33877 0.0
H7817 H 0.25047 0.24506 0.33635 0.0
H7818 H 0.25086 0.25518 0.31035 0.0
H7819 H 0.27015 0.21578 0.34446 0.0
H7820 H 0.25805 0.26688 0.35797 0.0
H7821 H 0.26349 0.29493 0.35775 0.0
H7822 H 0.30812 0.29731 0.38296 0.0
H7823 H 0.30312 0.26914 0.38279 0.0
C7824 C 0.25896 0.20382 0.41743 0.0
C7825 C 0.27131 0.20736 0.42964 0.0
C7826 C 0.25987 0.21027 0.40303 0.0
C7827 C 0.27317 0.22036 0.40042 0.0
C7828 C 0.2854 0.22422 0.41269 0.0
C7829 C 0.28451 0.21774 0.42712 0.0
C7830 C 0.27435 0.22659 0.38476 0.0
C7831 C 0.27735 0.24257 0.38436 0.0
C7832 C 0.27188 0.21683 0.37016 0.0
C7833 C 0.26973 0.1999 0.36969 0.0
C7834 C 0.2806 0.19306 0.37808 0.0
C7835 C 0.27853 0.1771 0.37753 0.0
C7836 C 0.26571 0.16785 0.36851 0.0
C7837 C 0.25493 0.17455 0.36001 0.0
C7838 C 0.25692 0.19051 0.36055 0.0
C7839 C 0.28868 0.25302 0.31739 0.0
C7840 C 0.27512 0.25573 0.3093 0.0
C7841 C 0.28859 0.24795 0.33255 0.0
C7842 C 0.27485 0.24513 0.33956 0.0
C7843 C 0.26122 0.24745 0.33125 0.0
C7844 C 0.26144 0.25313 0.31642 0.0
C7845 C 0.27458 0.23915 0.35528 0.0
C7846 C 0.27193 0.22325 0.35564 0.0
C7847 C 0.27738 0.24896 0.36978 0.0
C7848 C 0.28035 0.26587 0.37001 0.0
C7849 C 0.26915 0.27334 0.36316 0.0
C7850 C 0.27212 0.28927 0.36316 0.0
C7851 C 0.28619 0.29789 0.37024 0.0
C7852 C 0.29727 0.2906 0.37738 0.0
C7853 C 0.29438 0.27465 0.3773 0.0
H7854 H 0.28846 0.31024 0.37027 0.0
H7855 H 0.26414 0.15549 0.36809 0.0
H7856 H 0.31942 0.5675 0.5121 0.0
H7857 H 0.34306 0.55734 0.51113 0.0
H7858 H 0.36244 0.58533 0.55524 0.0
H7859 H 0.33915 0.59604 0.55592 0.0
H7860 H 0.38016 0.58892 0.53057 0.0
H7861 H 0.35274 0.54756 0.55521 0.0
H7862 H 0.32931 0.52857 0.55667 0.0
H7863 H 0.33381 0.50631 0.51059 0.0
H7864 H 0.35711 0.52534 0.5087 0.0
H7865 H 0.44807 0.56048 0.52059 0.0
H7866 H 0.42625 0.56535 0.53478 0.0
H7867 H 0.39494 0.53857 0.49608 0.0
H7868 H 0.41667 0.53378 0.48199 0.0
H7869 H 0.38466 0.53402 0.52445 0.0
H7870 H 0.40614 0.57545 0.49618 0.0
H7871 H 0.42571 0.59621 0.48924 0.0
H7872 H 0.42876 0.61976 0.53641 0.0
H7873 H 0.40956 0.59884 0.54382 0.0
C7874 C 0.32869 0.57134 0.52164 0.0
C7875 C 0.32757 0.58249 0.53408 0.0
C7876 C 0.34205 0.56545 0.52117 0.0
C7877 C 0.35426 0.57051 0.53326 0.0
C7878 C 0.35298 0.58125 0.54595 0.0
C7879 C 0.33968 0.58724 0.54636 0.0
C7880 C 0.36891 0.56567 0.53178 0.0
C7881 C 0.38139 0.57697 0.52976 0.0
C7882 C 0.37003 0.55004 0.53017 0.0
C7883 C 0.35673 0.53786 0.53185 0.0
C7884 C 0.34878 0.53858 0.54541 0.0
C7885 C 0.33548 0.52784 0.54629 0.0
C7886 C 0.33009 0.51623 0.53374 0.0
C7887 C 0.33803 0.51528 0.52032 0.0
C7888 C 0.35131 0.52602 0.51936 0.0
C7889 C 0.43648 0.55565 0.51526 0.0
C7890 C 0.43379 0.54721 0.5001 0.0
C7891 C 0.42413 0.55828 0.52337 0.0
C7892 C 0.40909 0.55238 0.51635 0.0
C7893 C 0.4065 0.54318 0.50163 0.0
C7894 C 0.41881 0.54069 0.4935 0.0
C7895 C 0.39598 0.5573 0.52312 0.0
C7896 C 0.38371 0.54602 0.526 0.0
C7897 C 0.39484 0.57298 0.52503 0.0
C7898 C 0.40671 0.58536 0.5207 0.0
C7899 C 0.41121 0.58489 0.50519 0.0
C7900 C 0.4222 0.59671 0.50115 0.0
C7901 C 0.42856 0.60925 0.51241 0.0
C7902 C 0.42392 0.60998 0.52774 0.0
C7903 C 0.41303 0.59811 0.53189 0.0
H7904 H 0.43701 0.61843 0.50923 0.0
H7905 H 0.31975 0.50796 0.5344 0.0
H7906 H 0.8615 0.92583 0.50593 0.0
H7907 H 0.88675 0.94129 0.5055 0.0
H7908 H 0.88956 0.95461 0.55616 0.0
H7909 H 0.86365 0.9399 0.55653 0.0
H7910 H 0.90142 0.97848 0.54229 0.0
H7911 H 0.90911 0.92687 0.54035 0.0
H7912 H 0.90378 0.8993 0.53056 0.0
H7913 H 0.91478 0.90986 0.48405 0.0
H7914 H 0.91999 0.93753 0.49352 0.0
H7915 H 0.98468 1.00121 0.54812 0.0
H7916 H 0.95887 0.98722 0.55117 0.0
H7917 H 0.94666 0.98395 0.50029 0.0
H7918 H 0.97217 0.99859 0.49734 0.0
H7919 H 0.94041 0.95476 0.51611 0.0
H7920 H 0.93151 0.00672 0.51861 0.0
H7921 H 0.93633 0.03413 0.52894 0.0
H7922 H 0.9281 0.02233 0.57581 0.0
H7923 H 0.92342 0.9948 0.56578 0.0
C7924 C 0.86727 0.93222 0.51699 0.0
C7925 C 0.86033 0.93154 0.53127 0.0
C7926 C 0.88192 0.94093 0.51676 0.0
C7927 C 0.89031 0.94893 0.53085 0.0
C7928 C 0.88341 0.94848 0.54512 0.0
C7929 C 0.86862 0.93989 0.54534 0.0
C7930 C 0.90626 0.95764 0.53054 0.0
C7931 C 0.90999 0.97318 0.53681 0.0
C7932 C 0.91754 0.95089 0.52326 0.0
C7933 C 0.91485 0.93426 0.51762 0.0
C7934 C 0.91035 0.92331 0.52802 0.0
C7935 C 0.90734 0.90767 0.52253 0.0
C7936 C 0.90892 0.90284 0.50669 0.0
C7937 C 0.91357 0.91363 0.49632 0.0
C7938 C 0.91658 0.92929 0.50175 0.0
C7939 C 0.9764 0.9976 0.53764 0.0
C7940 C 0.98033 1.00099 0.52251 0.0
C7941 C 0.9617 0.98962 0.53938 0.0
C7942 C 0.95085 0.98451 0.52595 0.0
C7943 C 0.95483 0.98781 0.51081 0.0
C7944 C 0.96934 0.99622 0.50914 0.0
C7945 C 0.9354 0.97556 0.52764 0.0
C7946 C 0.93183 0.95997 0.52169 0.0
C7947 C 0.92437 0.98221 0.53539 0.0
C7948 C 0.92732 0.99871 0.54149 0.0
C7949 C 0.9309 0.00996 0.53116 0.0
C7950 C 0.93354 0.02552 0.53694 0.0
C7951 C 0.93256 0.02997 0.55303 0.0
C7952 C 0.92889 0.01886 0.56336 0.0
C7953 C 0.92622 0.00328 0.55763 0.0
H7954 H 0.93463 0.04202 0.55749 0.0
H7955 H 0.90656 0.89072 0.50245 0.0
H7956 H 0.86826 0.08047 0.28044 0.0
H7957 H 0.8549 0.10201 0.28147 0.0
H7958 H 0.85994 0.10636 0.23185 0.0
H7959 H 0.87436 0.08547 0.23098 0.0
H7960 H 0.86468 0.13382 0.24805 0.0
H7961 H 0.82489 0.08872 0.24516 0.0
H7962 H 0.81253 0.06426 0.25374 0.0
H7963 H 0.81048 0.08701 0.30031 0.0
H7964 H 0.82298 0.11154 0.29207 0.0
H7965 H 0.81653 0.19043 0.25419 0.0
H7966 H 0.82598 0.16744 0.24426 0.0
H7967 H 0.82247 0.15059 0.29023 0.0
H7968 H 0.81207 0.17271 0.29963 0.0
H7969 H 0.81453 0.12809 0.26985 0.0
H7970 H 0.85714 0.17158 0.2756 0.0
H7971 H 0.87123 0.19629 0.26925 0.0
H7972 H 0.86994 0.17749 0.22042 0.0
H7973 H 0.85558 0.15275 0.22642 0.0
C7974 C 0.86679 0.08609 0.26976 0.0
C7975 C 0.8724 0.08105 0.25559 0.0
C7976 C 0.85888 0.09832 0.27031 0.0
C7977 C 0.85602 0.10561 0.25662 0.0
C7978 C 0.86183 0.10083 0.24253 0.0
C7979 C 0.86994 0.08872 0.24202 0.0
C7980 C 0.84708 0.11826 0.25715 0.0
C7981 C 0.8536 0.13252 0.25259 0.0
C7982 C 0.83267 0.11667 0.2632 0.0
C7983 C 0.82491 0.10194 0.26801 0.0
C7984 C 0.82184 0.08848 0.25724 0.0
C7985 C 0.81481 0.07461 0.26205 0.0
C7986 C 0.81073 0.07408 0.27756 0.0
C7987 C 0.81363 0.08743 0.28829 0.0
C7988 C 0.82066 0.10132 0.28355 0.0
C7989 C 0.81746 0.18161 0.262 0.0
C7990 C 0.81378 0.18352 0.2778 0.0
C7991 C 0.82309 0.16857 0.2564 0.0
C7992 C 0.82535 0.15736 0.26659 0.0
C7993 C 0.82098 0.15902 0.28209 0.0
C7994 C 0.81516 0.17181 0.28755 0.0
C7995 C 0.83253 0.14397 0.26169 0.0
C7996 C 0.82555 0.12944 0.26517 0.0
C7997 C 0.84667 0.14545 0.25501 0.0
C7998 C 0.85508 0.1604 0.2514 0.0
C7999 C 0.85972 0.17277 0.26347 0.0
C8000 C 0.86778 0.18677 0.25994 0.0
C8001 C 0.87143 0.18847 0.24443 0.0
C8002 C 0.86705 0.17617 0.23242 0.0
C8003 C 0.85893 0.16217 0.23587 0.0
H8004 H 0.87771 0.19931 0.24174 0.0
H8005 H 0.80531 0.06332 0.28126 0.0
H8006 H 0.69069 0.0504 0.02259 0.0
H8007 H 0.66276 0.04121 0.01777 0.0
H8008 H 0.65565 0.08773 0.02796 0.0
H8009 H 0.68327 0.09669 0.03339 0.0
H8010 H 0.63911 0.06869 0.04411 0.0
H8011 H 0.65045 0.07042 0.9898 0.0
H8012 H 0.66306 0.06452 0.96586 0.0
H8013 H 0.64576 0.01643 0.96621 0.0
H8014 H 0.6332 0.02203 0.99026 0.0
H8015 H 0.55958 0.05457 0.01705 0.0
H8016 H 0.58705 0.06466 0.01818 0.0
H8017 H 0.59609 0.01851 0.01503 0.0
H8018 H 0.56864 0.0083 0.01403 0.0
H8019 H 0.61125 0.0381 0.99466 0.0
H8020 H 0.60536 0.03655 0.05196 0.0
H8021 H 0.59589 0.04246 0.07784 0.0
H8022 H 0.60319 0.09032 0.07156 0.0
H8023 H 0.61331 0.08475 0.04589 0.0
C8024 C 0.683 0.05845 0.02399 0.0
C8025 C 0.68869 0.07403 0.02872 0.0
C8026 C 0.66725 0.05333 0.02102 0.0
C8027 C 0.6574 0.06391 0.02238 0.0
C8028 C 0.66322 0.0795 0.02692 0.0
C8029 C 0.67883 0.08454 0.03017 0.0
C8030 C 0.64092 0.05872 0.02028 0.0
C8031 C 0.63296 0.06224 0.03318 0.0
C8032 C 0.63318 0.05003 0.00616 0.0
C8033 C 0.64103 0.04663 0.99192 0.0
C8034 C 0.64948 0.05858 0.98488 0.0
C8035 C 0.65658 0.05529 0.97126 0.0
C8036 C 0.65525 0.04011 0.96454 0.0
C8037 C 0.6468 0.02818 0.97143 0.0
C8038 C 0.63969 0.0314 0.98505 0.0
C8039 C 0.56742 0.0466 0.01621 0.0
C8040 C 0.56226 0.03072 0.01546 0.0
C8041 C 0.583 0.05237 0.01708 0.0
C8042 C 0.59329 0.04223 0.01697 0.0
C8043 C 0.58809 0.02636 0.01528 0.0
C8044 C 0.57256 0.02059 0.01459 0.0
C8045 C 0.60958 0.04814 0.01844 0.0
C8046 C 0.61747 0.04473 0.00546 0.0
C8047 C 0.61729 0.05701 0.03244 0.0
C8048 C 0.60972 0.06019 0.04688 0.0
C8049 C 0.60466 0.04829 0.05597 0.0
C8050 C 0.59929 0.05159 0.07065 0.0
C8051 C 0.59865 0.0667 0.07622 0.0
C8052 C 0.60355 0.0786 0.06717 0.0
C8053 C 0.60918 0.07539 0.0526 0.0
H8054 H 0.59451 0.06921 0.08762 0.0
H8055 H 0.66073 0.0376 0.95398 0.0
H8056 H 0.2288 0.473 0.23605 0.0
H8057 H 0.23895 0.44914 0.23739 0.0
H8058 H 0.20206 0.43139 0.26411 0.0
H8059 H 0.19199 0.45496 0.26282 0.0
H8060 H 0.23129 0.4309 0.27839 0.0
H8061 H 0.19996 0.41788 0.22741 0.0
H8062 H 0.19236 0.42303 0.19997 0.0
H8063 H 0.2375 0.42032 0.18756 0.0
H8064 H 0.24544 0.41539 0.21505 0.0
H8065 H 0.22384 0.35477 0.28455 0.0
H8066 H 0.21696 0.37622 0.27141 0.0
H8067 H 0.26141 0.38476 0.25428 0.0
H8068 H 0.26851 0.36338 0.26763 0.0
H8069 H 0.23311 0.39155 0.23333 0.0
H8070 H 0.26266 0.40231 0.2862 0.0
H8071 H 0.26853 0.39885 0.31454 0.0
H8072 H 0.22392 0.40681 0.32398 0.0
H8073 H 0.21768 0.40998 0.29563 0.0
C8074 C 0.22291 0.46389 0.24209 0.0
C8075 C 0.20985 0.4657 0.24958 0.0
C8076 C 0.22863 0.45038 0.2428 0.0
C8077 C 0.2212 0.43872 0.25087 0.0
C8078 C 0.20794 0.44042 0.25795 0.0
C8079 C 0.20229 0.45384 0.2573 0.0
C8080 C 0.2275 0.42492 0.25292 0.0
C8081 C 0.23174 0.42229 0.26856 0.0
C8082 C 0.22824 0.41401 0.23996 0.0
C8083 C 0.22333 0.41637 0.2233 0.0
C8084 C 0.20829 0.41844 0.21885 0.0
C8085 C 0.20391 0.42133 0.2033 0.0
C8086 C 0.21445 0.42203 0.19204 0.0
C8087 C 0.22935 0.41978 0.1963 0.0
C8088 C 0.23379 0.41692 0.21186 0.0
C8089 C 0.23197 0.36094 0.27759 0.0
C8090 C 0.2468 0.35772 0.27739 0.0
C8091 C 0.22799 0.37306 0.27 0.0
C8092 C 0.2388 0.38205 0.26214 0.0
C8093 C 0.25298 0.37782 0.26032 0.0
C8094 C 0.257 0.36566 0.26796 0.0
C8095 C 0.23637 0.39733 0.25891 0.0
C8096 C 0.23296 0.40029 0.24311 0.0
C8097 C 0.23605 0.40856 0.27177 0.0
C8098 C 0.23964 0.40616 0.28874 0.0
C8099 C 0.25402 0.40307 0.29426 0.0
C8100 C 0.25743 0.40122 0.31035 0.0
C8101 C 0.24659 0.40255 0.32104 0.0
C8102 C 0.2323 0.40572 0.31568 0.0
C8103 C 0.22882 0.40753 0.2996 0.0
H8104 H 0.24928 0.40118 0.3335 0.0
H8105 H 0.21105 0.42429 0.18001 0.0
H8106 H 0.22415 0.44094 0.01533 0.0
H8107 H 0.20218 0.45415 0.01467 0.0
H8108 H 0.17694 0.4183 0.0379 0.0
H8109 H 0.19904 0.40525 0.03891 0.0
H8110 H 0.16055 0.42608 0.01003 0.0
H8111 H 0.18969 0.45082 0.05918 0.0
H8112 H 0.21267 0.46499 0.07634 0.0
H8113 H 0.21464 0.50234 0.04759 0.0
H8114 H 0.1918 0.48829 0.0301 0.0
H8115 H 0.09781 0.46487 0.01255 0.0
H8116 H 0.11821 0.45183 0.0228 0.0
H8117 H 0.1523 0.48847 0.01071 0.0
H8118 H 0.13201 0.50155 0.00096 0.0
H8119 H 0.16326 0.47886 0.0361 0.0
H8120 H 0.13703 0.45447 0.98545 0.0
H8121 H 0.11514 0.44085 0.96642 0.0
H8122 H 0.10904 0.40345 0.99512 0.0
H8123 H 0.13071 0.417 0.01451 0.0
C8124 C 0.21392 0.43595 0.02035 0.0
C8125 C 0.21326 0.42213 0.02721 0.0
C8126 C 0.20143 0.44351 0.02003 0.0
C8127 C 0.18796 0.43724 0.02632 0.0
C8128 C 0.18724 0.42336 0.03305 0.0
C8129 C 0.19985 0.41596 0.03366 0.0
C8130 C 0.1745 0.44499 0.02542 0.0
C8131 C 0.161 0.43751 0.01597 0.0
C8132 C 0.17528 0.46005 0.03283 0.0
C8133 C 0.18911 0.46843 0.04325 0.0
C8134 C 0.19511 0.46198 0.05642 0.0
C8135 C 0.20809 0.47001 0.06623 0.0
C8136 C 0.21513 0.48454 0.06304 0.0
C8137 C 0.20919 0.49108 0.05004 0.0
C8138 C 0.19622 0.48309 0.04018 0.0
C8139 C 0.10969 0.47035 0.0127 0.0
C8140 C 0.11342 0.48425 0.00612 0.0
C8141 C 0.12134 0.46282 0.01833 0.0
C8142 C 0.13684 0.46897 0.01719 0.0
C8143 C 0.14049 0.48342 0.01169 0.0
C8144 C 0.1289 0.49094 0.00617 0.0
C8145 C 0.14927 0.46007 0.02047 0.0
C8146 C 0.16265 0.46734 0.03033 0.0
C8147 C 0.14849 0.44492 0.01313 0.0
C8148 C 0.13533 0.43687 0.00158 0.0
C8149 C 0.13091 0.44342 0.9878 0.0
C8150 C 0.11855 0.4357 0.97693 0.0
C8151 C 0.11066 0.42132 0.97959 0.0
C8152 C 0.11512 0.41462 0.99311 0.0
C8153 C 0.12742 0.42233 0.00406 0.0
H8154 H 0.10112 0.41535 0.97114 0.0
H8155 H 0.22516 0.49075 0.07066 0.0
H8156 H 0.84385 0.94204 0.26066 0.0
H8157 H 0.82852 0.91658 0.26155 0.0
H8158 H 0.86245 0.8959 0.23892 0.0
H8159 H 0.87767 0.92142 0.23769 0.0
H8160 H 0.83514 0.88079 0.22742 0.0
H8161 H 0.85993 0.89817 0.28043 0.0
H8162 H 0.86708 0.91594 0.30521 0.0
H8163 H 0.8196 0.91187 0.31268 0.0
H8164 H 0.81215 0.89426 0.2878 0.0
H8165 H 0.81013 0.80553 0.24723 0.0
H8166 H 0.82442 0.83073 0.24423 0.0
H8167 H 0.79264 0.85182 0.27007 0.0
H8168 H 0.77899 0.82646 0.27432 0.0
H8169 H 0.81899 0.86678 0.27941 0.0
H8170 H 0.79438 0.84853 0.22593 0.0
H8171 H 0.78795 0.83081 0.20103 0.0
H8172 H 0.83568 0.8362 0.19434 0.0
H8173 H 0.84243 0.85375 0.21931 0.0
C8174 C 0.84805 0.93207 0.25587 0.0
C8175 C 0.86208 0.93379 0.24925 0.0
C8176 C 0.83928 0.91749 0.25641 0.0
C8177 C 0.84444 0.9042 0.25064 0.0
C8178 C 0.8582 0.90591 0.24353 0.0
C8179 C 0.8669 0.92053 0.24281 0.0
C8180 C 0.83569 0.88858 0.25235 0.0
C8181 C 0.83174 0.87767 0.23882 0.0
C8182 C 0.83098 0.88449 0.26715 0.0
C8183 C 0.83547 0.89501 0.28217 0.0
C8184 C 0.85101 0.90115 0.2873 0.0
C8185 C 0.85512 0.91119 0.30137 0.0
C8186 C 0.8438 0.91507 0.31049 0.0
C8187 C 0.82835 0.90888 0.30559 0.0
C8188 C 0.82418 0.89887 0.2915 0.0
C8189 C 0.80608 0.81548 0.25229 0.0
C8190 C 0.79311 0.81383 0.26077 0.0
C8191 C 0.81424 0.83 0.25038 0.0
C8192 C 0.80942 0.84336 0.25643 0.0
C8193 C 0.79656 0.84176 0.26506 0.0
C8194 C 0.78861 0.8272 0.26734 0.0
C8195 C 0.81814 0.85895 0.25441 0.0
C8196 C 0.82222 0.86987 0.26794 0.0
C8197 C 0.82301 0.86298 0.23959 0.0
C8198 C 0.81891 0.85237 0.22458 0.0
C8199 C 0.80351 0.84585 0.21921 0.0
C8200 C 0.79981 0.83584 0.20507 0.0
C8201 C 0.8114 0.83236 0.19613 0.0
C8202 C 0.82672 0.83889 0.20129 0.0
C8203 C 0.83048 0.84887 0.21543 0.0
H8204 H 0.80851 0.82463 0.18518 0.0
H8205 H 0.847 0.92284 0.32138 0.0
H8206 H 0.73115 0.10426 0.73288 0.0
H8207 H 0.74001 0.13205 0.73549 0.0
H8208 H 0.72469 0.13604 0.78237 0.0
H8209 H 0.71495 0.10867 0.7795 0.0
H8210 H 0.71416 0.15537 0.76321 0.0
H8211 H 0.76215 0.13956 0.77882 0.0
H8212 H 0.78215 0.12412 0.77484 0.0
H8213 H 0.79088 0.14387 0.73147 0.0
H8214 H 0.77077 0.15927 0.73509 0.0
H8215 H 0.75817 0.23227 0.78762 0.0
H8216 H 0.74643 0.20514 0.78661 0.0
H8217 H 0.75281 0.19851 0.73666 0.0
H8218 H 0.76364 0.22553 0.73754 0.0
H8219 H 0.76753 0.18084 0.75855 0.0
H8220 H 0.71987 0.19603 0.742 0.0
H8221 H 0.69946 0.21117 0.74461 0.0
H8222 H 0.68971 0.19261 0.78834 0.0
H8223 H 0.7103 0.17757 0.78615 0.0
C8224 C 0.72986 0.11111 0.74377 0.0
C8225 C 0.72253 0.10443 0.75602 0.0
C8226 C 0.73493 0.12684 0.74527 0.0
C8227 C 0.73294 0.1358 0.75914 0.0
C8228 C 0.72623 0.12911 0.77163 0.0
C8229 C 0.72096 0.11349 0.77006 0.0
C8230 C 0.73732 0.15232 0.76044 0.0
C8231 C 0.72586 0.16103 0.76245 0.0
C8232 C 0.7525 0.15936 0.75908 0.0
C8233 C 0.76493 0.1505 0.75719 0.0
C8234 C 0.76831 0.14057 0.76842 0.0
C8235 C 0.77966 0.13183 0.76622 0.0
C8236 C 0.78777 0.133 0.7529 0.0
C8237 C 0.78459 0.14298 0.74178 0.0
C8238 C 0.77324 0.15173 0.74391 0.0
C8239 C 0.75651 0.22512 0.77641 0.0
C8240 C 0.76166 0.23084 0.76269 0.0
C8241 C 0.74997 0.20973 0.77584 0.0
C8242 C 0.74883 0.20019 0.76154 0.0
C8243 C 0.75364 0.20595 0.74773 0.0
C8244 C 0.75996 0.22126 0.7483 0.0
C8245 C 0.74439 0.18384 0.76128 0.0
C8246 C 0.75587 0.17518 0.75949 0.0
C8247 C 0.72923 0.17689 0.76275 0.0
C8248 C 0.71678 0.18584 0.76404 0.0
C8249 C 0.7135 0.19531 0.75228 0.0
C8250 C 0.70187 0.20385 0.75366 0.0
C8251 C 0.69333 0.2029 0.76667 0.0
C8252 C 0.69637 0.19337 0.7783 0.0
C8253 C 0.70802 0.18483 0.77699 0.0
H8254 H 0.68432 0.20952 0.76771 0.0
H8255 H 0.79653 0.12619 0.7512 0.0
loop_
_geom_bond_atom_site_label_1
_geom_bond_atom_site_label_2
_geom_bond_distance
_geom_bond_site_symmetry_2
_ccdc_geom_bond_type
Li0 N17 1.990 1_455 S
Li0 O60 1.956 . S
Li0 O61 1.970 . S
Li0 O62 1.961 . S
Li1 N25 1.990 . S
Li1 O60 1.970 . S
Li1 O61 1.956 . S
Li1 O63 1.961 . S
Li2 N47 1.990 . S
Li2 O60 1.961 . S
Li2 O62 1.956 . S
Li2 O63 1.970 . S
Li3 N53 1.990 . S
Li3 O61 1.961 . S
Li3 O62 1.970 . S
Li3 O63 1.956 . S
C4 C6 1.348 . S
C4 C7 1.356 . S
C4 O60 1.325 . S
N5 C8 1.314 . S
N5 C9 1.279 . S
C6 C4 1.348 . S
C6 C8 1.353 . S
C6 H64 0.929 . S
C7 C4 1.356 . S
C7 C9 1.358 . S
C7 H65 0.930 . S
C8 N5 1.314 . S
C8 C6 1.353 . S
C8 H66 0.930 . S
C9 N5 1.279 . S
C9 C7 1.358 . S
C9 H67 0.930 . S
C10 C13 1.348 1_455 S
C10 C14 1.356 . S
C10 O61 1.325 . S
C11 N12 1.279 . S
C11 C14 1.358 1_655 S
C11 H68 0.930 . S
N12 C11 1.279 . S
N12 C15 1.314 . S
C13 C10 1.348 1_655 S
C13 C15 1.353 . S
C13 H69 0.929 . S
C14 C10 1.356 . S
C14 C11 1.358 1_455 S
C14 H70 0.930 . S
C15 N12 1.314 . S
C15 C13 1.353 . S
C15 H71 0.930 . S
C16 N17 1.314 . S
C16 C21 1.353 . S
C16 H22 0.930 . S
N17 Li0 1.990 1_655 S
N17 C16 1.314 . S
N17 C19 1.279 . S
C18 C19 1.358 . S
C18 C20 1.356 . S
C18 H72 0.930 . S
C19 N17 1.279 . S
C19 C18 1.358 . S
C19 H23 0.930 . S
C20 C18 1.356 . S
C20 C21 1.348 . S
C21 C16 1.353 . S
C21 C20 1.348 . S
C21 H73 0.929 . S
H22 C16 0.930 . S
H23 C19 0.930 . S
C24 N25 1.314 . S
C24 C26 1.353 . S
C24 H30 0.930 . S
N25 Li1 1.990 . S
N25 C24 1.314 . S
N25 C28 1.279 . S
C26 C24 1.353 . S
C26 C29 1.348 . S
C26 H74 0.929 . S
C27 C28 1.358 . S
C27 C29 1.356 . S
C27 H75 0.930 . S
C28 N25 1.279 . S
C28 C27 1.358 . S
C28 H31 0.930 . S
C29 C26 1.348 . S
C29 C27 1.356 . S
H30 C24 0.930 . S
H31 C28 0.930 . S
C32 C34 1.348 . S
C32 C35 1.356 . S
C32 O62 1.325 . S
N33 C36 1.314 . S
N33 C37 1.279 . S
C34 C32 1.348 . S
C34 C36 1.353 . S
C34 H76 0.929 . S
C35 C32 1.356 . S
C35 C37 1.358 . S
C35 H77 0.930 . S
C36 N33 1.314 . S
C36 C34 1.353 . S
C36 H78 0.930 . S
C37 N33 1.279 . S
C37 C35 1.358 . S
C37 H79 0.930 . S
C38 C39 1.348 . S
C38 C40 1.356 . S
C38 O63 1.325 . S
C39 C38 1.348 . S
C39 C41 1.353 . S
C39 H80 0.929 . S
C40 C38 1.356 . S
C40 C42 1.358 . S
C40 H81 0.930 . S
C41 C39 1.353 . S
C41 N43 1.314 . S
C41 H82 0.930 . S
C42 C40 1.358 . S
C42 N43 1.279 . S
C42 H83 0.930 . S
N43 C41 1.314 . S
N43 C42 1.279 . S
C44 C46 1.353 . S
C44 N47 1.314 . S
C44 H50 0.930 . S
C45 N47 1.279 . S
C45 C48 1.358 . S
C45 H51 0.930 . S
C46 C44 1.353 . S
C46 C49 1.348 . S
C46 H84 0.929 . S
N47 Li2 1.990 . S
N47 C44 1.314 . S
N47 C45 1.279 . S
C48 C45 1.358 . S
C48 C49 1.356 . S
C48 H85 0.930 . S
C49 C46 1.348 . S
C49 C48 1.356 . S
H50 C44 0.930 . S
H51 C45 0.930 . S
C52 N53 1.314 . S
C52 C54 1.353 . S
C52 H58 0.930 . S
N53 Li3 1.990 . S
N53 C52 1.314 . S
N53 C56 1.279 . S
C54 C52 1.353 . S
C54 C57 1.348 . S
C54 H86 0.929 . S
C55 C56 1.358 . S
C55 C57 1.356 . S
C55 H87 0.930 . S
C56 N53 1.279 . S
C56 C55 1.358 . S
C56 H59 0.930 . S
C57 C54 1.348 . S
C57 C55 1.356 . S
H58 C52 0.930 . S
H59 C56 0.930 . S
O60 Li0 1.956 . S
O60 Li1 1.970 . S
O60 Li2 1.961 . S
O60 C4 1.325 . S
O61 Li0 1.970 . S
O61 Li1 1.956 . S
O61 Li3 1.961 . S
O61 C10 1.325 . S
O62 Li0 1.961 . S
O62 Li2 1.956 . S
O62 Li3 1.970 . S
O62 C32 1.325 . S
O63 Li1 1.961 . S
O63 Li2 1.970 . S
O63 Li3 1.956 . S
O63 C38 1.325 . S
H64 C6 0.929 . S
H65 C7 0.930 . S
H66 C8 0.930 . S
H67 C9 0.930 . S
H68 C11 0.930 . S
H69 C13 0.929 . S
H70 C14 0.930 . S
H71 C15 0.930 . S
H72 C18 0.930 . S
H73 C21 0.929 . S
H74 C26 0.929 . S
H75 C27 0.930 . S
H76 C34 0.929 . S
H77 C35 0.930 . S
H78 C36 0.930 . S
H79 C37 0.930 . S
H80 C39 0.929 . S
H81 C40 0.930 . S
H82 C41 0.930 . S
H83 C42 0.930 . S
H84 C46 0.929 . S
H85 C48 0.930 . S
H86 C54 0.929 . S
H87 C55 0.930 . S
Li88 N105 1.990 . S
Li88 O148 1.956 . S
Li88 O149 1.970 . S
Li88 O150 1.961 1_455 S
Li89 N113 1.990 . S
Li89 O148 1.970 . S
Li89 O149 1.956 . S
Li89 O151 1.961 . S
Li90 N135 1.990 . S
Li90 O148 1.961 . S
Li90 O150 1.956 1_455 S
Li90 O151 1.970 . S
Li91 N141 1.990 . S
Li91 O149 1.961 1_655 S
Li91 O150 1.970 . S
Li91 O151 1.956 1_655 S
C92 C94 1.348 . S
C92 C95 1.356 . S
C92 O148 1.325 . S
N93 C96 1.314 . S
N93 C97 1.279 . S
C94 C92 1.348 . S
C94 C96 1.353 . S
C94 H152 0.929 . S
C95 C92 1.356 . S
C95 C97 1.358 . S
C95 H153 0.930 . S
C96 N93 1.314 . S
C96 C94 1.353 . S
C96 H154 0.930 . S
C97 N93 1.279 . S
C97 C95 1.358 . S
C97 H155 0.930 . S
C98 C101 1.348 . S
C98 C102 1.356 . S
C98 O149 1.325 . S
C99 N100 1.279 . S
C99 C102 1.358 . S
C99 H156 0.930 . S
N100 C99 1.279 . S
N100 C103 1.314 . S
C101 C98 1.348 . S
C101 C103 1.353 . S
C101 H157 0.929 . S
C102 C98 1.356 . S
C102 C99 1.358 . S
C102 H158 0.930 . S
C103 N100 1.314 . S
C103 C101 1.353 . S
C103 H159 0.930 . S
C104 N105 1.314 . S
C104 C109 1.360 . S
C104 H110 0.930 1_455 S
N105 Li88 1.990 . S
N105 C104 1.314 . S
N105 C107 1.279 . S
C106 C107 1.358 . S
C106 C108 1.356 . S
C106 H160 0.930 . S
C107 N105 1.279 . S
C107 C106 1.358 . S
C107 H111 0.930 . S
C108 C106 1.356 . S
C108 C109 1.388 . S
C109 C104 1.360 . S
C109 C108 1.388 . S
C109 H161 0.883 1_455 S
H110 C104 0.930 1_655 S
H111 C107 0.930 . S
C112 N113 1.314 . S
C112 C114 1.353 . S
C112 H118 0.930 . S
N113 Li89 1.990 . S
N113 C112 1.314 . S
N113 C116 1.279 . S
C114 C112 1.353 . S
C114 C117 1.348 . S
C114 H162 0.929 . S
C115 C116 1.358 . S
C115 C117 1.356 . S
C115 H163 0.930 . S
C116 N113 1.279 . S
C116 C115 1.358 . S
C116 H119 0.930 . S
C117 C114 1.348 . S
C117 C115 1.356 . S
H118 C112 0.930 . S
H119 C116 0.930 . S
C120 C122 1.348 . S
C120 C123 1.356 . S
C120 O150 1.325 . S
N121 C124 1.314 . S
N121 C125 1.279 . S
C122 C120 1.348 . S
C122 C124 1.353 . S
C122 H164 0.929 . S
C123 C120 1.356 . S
C123 C125 1.358 . S
C123 H165 0.930 . S
C124 N121 1.314 . S
C124 C122 1.353 . S
C124 H166 0.930 . S
C125 N121 1.279 . S
C125 C123 1.358 . S
C125 H167 0.930 . S
C126 C127 1.348 . S
C126 C128 1.356 . S
C126 O151 1.325 . S
C127 C126 1.348 . S
C127 C129 1.353 . S
C127 H168 0.921 1_455 S
C128 C126 1.356 . S
C128 C130 1.358 . S
C128 H169 0.930 . S
C129 C127 1.353 . S
C129 N131 1.314 . S
C129 H170 0.922 1_455 S
C130 C128 1.358 . S
C130 N131 1.279 . S
C130 H171 0.930 . S
N131 C129 1.314 . S
N131 C130 1.279 . S
C132 C134 1.353 . S
C132 N135 1.314 . S
C132 H138 0.930 . S
C133 N135 1.279 1_655 S
C133 C136 1.358 . S
C133 H139 0.930 . S
C134 C132 1.353 . S
C134 C137 1.348 . S
C134 H172 0.929 . S
N135 Li90 1.990 . S
N135 C132 1.314 . S
N135 C133 1.279 1_455 S
C136 C133 1.358 . S
C136 C137 1.356 1_655 S
C136 H173 0.930 . S
C137 C134 1.348 . S
C137 C136 1.356 1_455 S
H138 C132 0.930 . S
H139 C133 0.930 . S
C140 N141 1.314 . S
C140 C142 1.353 . S
C140 H146 0.930 . S
N141 Li91 1.990 . S
N141 C140 1.314 . S
N141 C144 1.279 . S
C142 C140 1.353 . S
C142 C145 1.348 . S
C142 H174 0.929 . S
C143 C144 1.358 . S
C143 C145 1.356 . S
C143 H175 0.930 . S
C144 N141 1.279 . S
C144 C143 1.358 . S
C144 H147 0.930 . S
C145 C142 1.348 . S
C145 C143 1.356 . S
H146 C140 0.930 . S
H147 C144 0.930 . S
O148 Li88 1.956 . S
O148 Li89 1.970 . S
O148 Li90 1.961 . S
O148 C92 1.325 . S
O149 Li88 1.970 . S
O149 Li89 1.956 . S
O149 Li91 1.961 1_455 S
O149 C98 1.325 . S
O150 Li88 1.961 1_655 S
O150 Li90 1.956 1_655 S
O150 Li91 1.970 . S
O150 C120 1.325 . S
O151 Li89 1.961 . S
O151 Li90 1.970 . S
O151 Li91 1.956 1_455 S
O151 C126 1.325 . S
H152 C94 0.929 . S
H153 C95 0.930 . S
H154 C96 0.930 . S
H155 C97 0.930 . S
H156 C99 0.930 . S
H157 C101 0.929 . S
H158 C102 0.930 . S
H159 C103 0.930 . S
H160 C106 0.930 . S
H161 C109 0.883 1_655 S
H162 C114 0.929 . S
H163 C115 0.930 . S
H164 C122 0.929 . S
H165 C123 0.930 . S
H166 C124 0.930 . S
H167 C125 0.930 . S
H168 C127 0.921 1_655 S
H169 C128 0.930 . S
H170 C129 0.922 1_655 S
H171 C130 0.930 . S
H172 C134 0.929 . S
H173 C136 0.930 . S
H174 C142 0.929 . S
H175 C143 0.930 . S
Li176 N193 1.990 . S
Li176 O236 1.956 . S
Li176 O237 1.970 . S
Li176 O238 1.961 . S
Li177 N201 1.990 . S
Li177 O236 1.970 . S
Li177 O237 1.956 . S
Li177 O239 1.961 . S
Li178 N223 1.990 . S
Li178 O236 1.961 . S
Li178 O238 1.956 . S
Li178 O239 1.970 . S
Li179 N229 1.990 . S
Li179 O237 1.961 . S
Li179 O238 1.970 . S
Li179 O239 1.956 . S
C180 C182 1.348 . S
C180 C183 1.356 . S
C180 O236 1.325 . S
N181 C184 1.314 . S
N181 C185 1.279 . S
C182 C180 1.348 . S
C182 C184 1.353 . S
C182 H240 0.929 . S
C183 C180 1.356 . S
C183 C185 1.358 . S
C183 H241 0.930 . S
C184 N181 1.314 . S
C184 C182 1.353 . S
C184 H242 0.930 . S
C185 N181 1.279 . S
C185 C183 1.358 . S
C185 H243 0.930 . S
C186 C189 1.348 . S
C186 C190 1.356 . S
C186 O237 1.325 . S
C187 N188 1.279 . S
C187 C190 1.358 . S
C187 H244 0.930 . S
N188 C187 1.279 . S
N188 C191 1.314 . S
C189 C186 1.348 . S
C189 C191 1.353 . S
C189 H245 0.929 . S
C190 C186 1.356 . S
C190 C187 1.358 . S
C190 H246 0.930 . S
C191 N188 1.314 . S
C191 C189 1.353 . S
C191 H247 0.930 . S
C192 N193 1.314 . S
C192 C197 1.353 . S
C192 H198 0.930 . S
N193 Li176 1.990 . S
N193 C192 1.314 . S
N193 C195 1.279 . S
C194 C195 1.358 . S
C194 C196 1.356 . S
C194 H248 0.930 . S
C195 N193 1.279 . S
C195 C194 1.358 . S
C195 H199 0.930 . S
C196 C194 1.356 . S
C196 C197 1.348 . S
C197 C192 1.353 . S
C197 C196 1.348 . S
C197 H249 0.929 . S
H198 C192 0.930 . S
H199 C195 0.930 . S
C200 N201 1.314 . S
C200 C202 1.353 . S
C200 H206 0.930 . S
N201 Li177 1.990 . S
N201 C200 1.314 . S
N201 C204 1.279 . S
C202 C200 1.353 . S
C202 C205 1.348 . S
C202 H250 0.929 . S
C203 C204 1.358 . S
C203 C205 1.356 . S
C203 H251 0.930 . S
C204 N201 1.279 . S
C204 C203 1.358 . S
C204 H207 0.930 . S
C205 C202 1.348 . S
C205 C203 1.356 . S
H206 C200 0.930 . S
H207 C204 0.930 . S
C208 C210 1.348 . S
C208 C211 1.356 . S
C208 O238 1.325 . S
N209 C212 1.314 . S
N209 C213 1.279 . S
C210 C208 1.348 . S
C210 C212 1.353 . S
C210 H252 0.929 . S
C211 C208 1.356 . S
C211 C213 1.358 . S
C211 H253 0.930 . S
C212 N209 1.314 . S
C212 C210 1.353 . S
C212 H254 0.930 . S
C213 N209 1.279 . S
C213 C211 1.358 . S
C213 H255 0.930 . S
C214 C215 1.348 . S
C214 C216 1.356 . S
C214 O239 1.325 . S
C215 C214 1.348 . S
C215 C217 1.353 . S
C215 H256 0.929 . S
C216 C214 1.356 . S
C216 C218 1.358 . S
C216 H257 0.930 . S
C217 C215 1.353 . S
C217 N219 1.314 . S
C217 H258 0.930 . S
C218 C216 1.358 . S
C218 N219 1.279 . S
C218 H259 0.930 . S
N219 C217 1.314 . S
N219 C218 1.279 . S
C220 C222 1.353 . S
C220 N223 1.314 . S
C220 H226 0.930 . S
C221 N223 1.279 . S
C221 C224 1.358 . S
C221 H227 0.930 . S
C222 C220 1.353 . S
C222 C225 1.348 . S
C222 H260 0.929 . S
N223 Li178 1.990 . S
N223 C220 1.314 . S
N223 C221 1.279 . S
C224 C221 1.358 . S
C224 C225 1.356 . S
C224 H261 0.930 . S
C225 C222 1.348 . S
C225 C224 1.356 . S
H226 C220 0.930 . S
H227 C221 0.930 . S
C228 N229 1.314 . S
C228 C230 1.353 . S
C228 H234 0.930 . S
N229 Li179 1.990 . S
N229 C228 1.314 . S
N229 C232 1.279 . S
C230 C228 1.353 . S
C230 C233 1.348 . S
C230 H262 0.929 . S
C231 C232 1.358 . S
C231 C233 1.356 . S
C231 H263 0.930 . S
C232 N229 1.279 . S
C232 C231 1.358 . S
C232 H235 0.930 . S
C233 C230 1.348 . S
C233 C231 1.356 . S
H234 C228 0.930 . S
H235 C232 0.930 . S
O236 Li176 1.956 . S
O236 Li177 1.970 . S
O236 Li178 1.961 . S
O236 C180 1.325 . S
O237 Li176 1.970 . S
O237 Li177 1.956 . S
O237 Li179 1.961 . S
O237 C186 1.325 . S
O238 Li176 1.961 . S
O238 Li178 1.956 . S
O238 Li179 1.970 . S
O238 C208 1.325 . S
O239 Li177 1.961 . S
O239 Li178 1.970 . S
O239 Li179 1.956 . S
O239 C214 1.325 . S
H240 C182 0.929 . S
H241 C183 0.930 . S
H242 C184 0.930 . S
H243 C185 0.930 . S
H244 C187 0.930 . S
H245 C189 0.929 . S
H246 C190 0.930 . S
H247 C191 0.930 . S
H248 C194 0.930 . S
H249 C197 0.929 . S
H250 C202 0.929 . S
H251 C203 0.930 . S
H252 C210 0.929 . S
H253 C211 0.930 . S
H254 C212 0.930 . S
H255 C213 0.930 . S
H256 C215 0.929 . S
H257 C216 0.930 . S
H258 C217 0.930 . S
H259 C218 0.930 . S
H260 C222 0.929 . S
H261 C224 0.930 . S
H262 C230 0.929 . S
H263 C231 0.930 . S
Li264 N281 1.990 . S
Li264 O324 1.956 . S
Li264 O325 1.970 . S
Li264 O326 1.961 . S
Li265 N289 1.990 . S
Li265 O324 1.970 . S
Li265 O325 1.956 . S
Li265 O327 1.961 . S
Li266 N311 1.990 . S
Li266 O324 1.961 . S
Li266 O326 1.956 . S
Li266 O327 1.970 . S
Li267 N317 1.990 . S
Li267 O325 1.961 . S
Li267 O326 1.970 . S
Li267 O327 1.956 . S
C268 C270 1.348 . S
C268 C271 1.356 . S
C268 O324 1.325 . S
N269 C272 1.314 . S
N269 C273 1.279 . S
C270 C268 1.348 . S
C270 C272 1.353 . S
C270 H328 0.929 . S
C271 C268 1.356 . S
C271 C273 1.358 . S
C271 H329 0.930 . S
C272 N269 1.314 . S
C272 C270 1.353 . S
C272 H330 0.930 . S
C273 N269 1.279 . S
C273 C271 1.358 . S
C273 H331 0.930 . S
C274 C277 1.348 . S
C274 C278 1.356 . S
C274 O325 1.325 . S
C275 N276 1.279 . S
C275 C278 1.358 . S
C275 H332 0.930 . S
N276 C275 1.279 . S
N276 C279 1.314 . S
C277 C274 1.348 . S
C277 C279 1.353 . S
C277 H333 0.929 . S
C278 C274 1.356 . S
C278 C275 1.358 . S
C278 H334 0.930 . S
C279 N276 1.314 . S
C279 C277 1.353 . S
C279 H335 0.930 . S
C280 N281 1.314 . S
C280 C285 1.353 . S
C280 H286 0.930 . S
N281 Li264 1.990 . S
N281 C280 1.314 . S
N281 C283 1.279 . S
C282 C283 1.358 . S
C282 C284 1.356 . S
C282 H336 0.930 . S
C283 N281 1.279 . S
C283 C282 1.358 . S
C283 H287 0.930 . S
C284 C282 1.356 . S
C284 C285 1.348 . S
C285 C280 1.353 . S
C285 C284 1.348 . S
C285 H337 0.929 . S
H286 C280 0.930 . S
H287 C283 0.930 . S
C288 N289 1.314 . S
C288 C290 1.353 . S
C288 H294 0.930 . S
N289 Li265 1.990 . S
N289 C288 1.314 . S
N289 C292 1.279 . S
C290 C288 1.353 . S
C290 C293 1.348 . S
C290 H338 0.929 . S
C291 C292 1.358 . S
C291 C293 1.356 . S
C291 H339 0.930 . S
C292 N289 1.279 . S
C292 C291 1.358 . S
C292 H295 0.930 . S
C293 C290 1.348 . S
C293 C291 1.356 . S
H294 C288 0.930 . S
H295 C292 0.930 . S
C296 C298 1.348 . S
C296 C299 1.356 . S
C296 O326 1.325 . S
N297 C300 1.314 . S
N297 C301 1.279 . S
C298 C296 1.348 . S
C298 C300 1.353 . S
C298 H340 0.929 . S
C299 C296 1.356 . S
C299 C301 1.358 . S
C299 H341 0.930 . S
C300 N297 1.314 . S
C300 C298 1.353 . S
C300 H342 0.930 . S
C301 N297 1.279 . S
C301 C299 1.358 . S
C301 H343 0.930 . S
C302 C303 1.348 . S
C302 C304 1.356 . S
C302 O327 1.325 . S
C303 C302 1.348 . S
C303 C305 1.353 . S
C303 H344 0.929 . S
C304 C302 1.356 . S
C304 C306 1.358 . S
C304 H345 0.930 . S
C305 C303 1.353 . S
C305 N307 1.314 . S
C305 H346 0.930 . S
C306 C304 1.358 . S
C306 N307 1.279 . S
C306 H347 0.930 . S
N307 C305 1.314 . S
N307 C306 1.279 . S
C308 C310 1.353 . S
C308 N311 1.314 . S
C308 H314 0.930 . S
C309 N311 1.279 . S
C309 C312 1.358 . S
C309 H315 0.930 . S
C310 C308 1.353 . S
C310 C313 1.348 . S
C310 H348 0.929 . S
N311 Li266 1.990 . S
N311 C308 1.314 . S
N311 C309 1.279 . S
C312 C309 1.358 . S
C312 C313 1.356 . S
C312 H349 0.930 . S
C313 C310 1.348 . S
C313 C312 1.356 . S
H314 C308 0.930 . S
H315 C309 0.930 . S
C316 N317 1.314 . S
C316 C318 1.353 . S
C316 H322 0.930 . S
N317 Li267 1.990 . S
N317 C316 1.314 . S
N317 C320 1.279 . S
C318 C316 1.353 . S
C318 C321 1.348 . S
C318 H350 0.929 . S
C319 C320 1.358 . S
C319 C321 1.356 . S
C319 H351 0.930 . S
C320 N317 1.279 . S
C320 C319 1.358 . S
C320 H323 0.930 . S
C321 C318 1.348 . S
C321 C319 1.356 . S
H322 C316 0.930 . S
H323 C320 0.930 . S
O324 Li264 1.956 . S
O324 Li265 1.970 . S
O324 Li266 1.961 . S
O324 C268 1.325 . S
O325 Li264 1.970 . S
O325 Li265 1.956 . S
O325 Li267 1.961 . S
O325 C274 1.325 . S
O326 Li264 1.961 . S
O326 Li266 1.956 . S
O326 Li267 1.970 . S
O326 C296 1.325 . S
O327 Li265 1.961 . S
O327 Li266 1.970 . S
O327 Li267 1.956 . S
O327 C302 1.325 . S
H328 C270 0.929 . S
H329 C271 0.930 . S
H330 C272 0.930 . S
H331 C273 0.930 . S
H332 C275 0.930 . S
H333 C277 0.929 . S
H334 C278 0.930 . S
H335 C279 0.930 . S
H336 C282 0.930 . S
H337 C285 0.929 . S
H338 C290 0.929 . S
H339 C291 0.930 . S
H340 C298 0.929 . S
H341 C299 0.930 . S
H342 C300 0.930 . S
H343 C301 0.930 . S
H344 C303 0.929 . S
H345 C304 0.930 . S
H346 C305 0.930 . S
H347 C306 0.930 . S
H348 C310 0.929 . S
H349 C312 0.930 . S
H350 C318 0.929 . S
H351 C319 0.930 . S
Li352 N369 1.990 . S
Li352 O412 1.956 . S
Li352 O413 1.970 . S
Li352 O414 1.961 . S
Li353 N377 1.990 . S
Li353 O412 1.970 . S
Li353 O413 1.956 . S
Li353 O415 1.961 . S
Li354 N399 1.990 . S
Li354 O412 1.961 . S
Li354 O414 1.956 . S
Li354 O415 1.970 . S
Li355 N405 1.990 . S
Li355 O413 1.961 . S
Li355 O414 1.970 . S
Li355 O415 1.956 . S
C356 C358 1.348 . S
C356 C359 1.356 . S
C356 O412 1.325 . S
N357 C360 1.314 . S
N357 C361 1.279 . S
C358 C356 1.348 . S
C358 C360 1.353 . S
C358 H416 0.929 . S
C359 C356 1.356 . S
C359 C361 1.358 . S
C359 H417 0.930 . S
C360 N357 1.314 . S
C360 C358 1.353 . S
C360 H418 0.930 . S
C361 N357 1.279 . S
C361 C359 1.358 . S
C361 H419 0.930 . S
C362 C365 1.348 . S
C362 C366 1.356 . S
C362 O413 1.325 . S
C363 N364 1.279 . S
C363 C366 1.358 . S
C363 H420 0.930 . S
N364 C363 1.279 . S
N364 C367 1.314 . S
C365 C362 1.348 . S
C365 C367 1.353 . S
C365 H421 0.929 . S
C366 C362 1.356 . S
C366 C363 1.358 . S
C366 H422 0.930 . S
C367 N364 1.314 . S
C367 C365 1.353 . S
C367 H423 0.930 . S
C368 N369 1.314 . S
C368 C373 1.353 . S
C368 H374 0.930 . S
N369 Li352 1.990 . S
N369 C368 1.314 . S
N369 C371 1.279 . S
C370 C371 1.358 . S
C370 C372 1.356 . S
C370 H424 0.930 . S
C371 N369 1.279 . S
C371 C370 1.358 . S
C371 H375 0.930 . S
C372 C370 1.356 . S
C372 C373 1.348 . S
C373 C368 1.353 . S
C373 C372 1.348 . S
C373 H425 0.929 . S
H374 C368 0.930 . S
H375 C371 0.930 . S
C376 N377 1.314 . S
C376 C378 1.353 . S
C376 H382 0.930 . S
N377 Li353 1.990 . S
N377 C376 1.314 . S
N377 C380 1.279 . S
C378 C376 1.353 . S
C378 C381 1.348 . S
C378 H426 0.929 . S
C379 C380 1.358 . S
C379 C381 1.356 . S
C379 H427 0.930 . S
C380 N377 1.279 . S
C380 C379 1.358 . S
C380 H383 0.930 . S
C381 C378 1.348 . S
C381 C379 1.356 . S
H382 C376 0.930 . S
H383 C380 0.930 . S
C384 C386 1.348 1_455 S
C384 C387 1.356 . S
C384 O414 1.325 . S
N385 C388 1.314 . S
N385 C389 1.279 . S
C386 C384 1.348 1_655 S
C386 C388 1.353 . S
C386 H428 0.929 . S
C387 C384 1.356 . S
C387 C389 1.358 1_455 S
C387 H429 0.930 . S
C388 N385 1.314 . S
C388 C386 1.353 . S
C388 H430 0.930 . S
C389 N385 1.279 . S
C389 C387 1.358 1_655 S
C389 H431 0.930 . S
C390 C391 1.348 . S
C390 C392 1.356 . S
C390 O415 1.325 . S
C391 C390 1.348 . S
C391 C393 1.353 . S
C391 H432 0.929 . S
C392 C390 1.356 . S
C392 C394 1.358 . S
C392 H433 0.930 . S
C393 C391 1.353 . S
C393 N395 1.314 . S
C393 H434 0.930 . S
C394 C392 1.358 . S
C394 N395 1.279 . S
C394 H435 0.930 . S
N395 C393 1.314 . S
N395 C394 1.279 . S
C396 C398 1.353 . S
C396 N399 1.314 . S
C396 H402 0.930 . S
C397 N399 1.279 . S
C397 C400 1.358 . S
C397 H403 0.930 . S
C398 C396 1.353 . S
C398 C401 1.348 . S
C398 H436 0.929 . S
N399 Li354 1.990 . S
N399 C396 1.314 . S
N399 C397 1.279 . S
C400 C397 1.358 . S
C400 C401 1.356 . S
C400 H437 0.930 . S
C401 C398 1.348 . S
C401 C400 1.356 . S
H402 C396 0.930 . S
H403 C397 0.930 . S
C404 N405 1.314 . S
C404 C406 1.353 1_455 S
C404 H410 0.930 . S
N405 Li355 1.990 . S
N405 C404 1.314 . S
N405 C408 1.279 . S
C406 C404 1.353 1_655 S
C406 C409 1.348 . S
C406 H438 0.929 . S
C407 C408 1.358 1_655 S
C407 C409 1.356 . S
C407 H439 0.930 . S
C408 N405 1.279 . S
C408 C407 1.358 1_455 S
C408 H411 0.930 . S
C409 C406 1.348 . S
C409 C407 1.356 . S
H410 C404 0.930 . S
H411 C408 0.930 . S
O412 Li352 1.956 . S
O412 Li353 1.970 . S
O412 Li354 1.961 . S
O412 C356 1.325 . S
O413 Li352 1.970 . S
O413 Li353 1.956 . S
O413 Li355 1.961 . S
O413 C362 1.325 . S
O414 Li352 1.961 . S
O414 Li354 1.956 . S
O414 Li355 1.970 . S
O414 C384 1.325 . S
O415 Li353 1.961 . S
O415 Li354 1.970 . S
O415 Li355 1.956 . S
O415 C390 1.325 . S
H416 C358 0.929 . S
H417 C359 0.930 . S
H418 C360 0.930 . S
H419 C361 0.930 . S
H420 C363 0.930 . S
H421 C365 0.929 . S
H422 C366 0.930 . S
H423 C367 0.930 . S
H424 C370 0.930 . S
H425 C373 0.929 . S
H426 C378 0.929 . S
H427 C379 0.930 . S
H428 C386 0.929 . S
H429 C387 0.930 . S
H430 C388 0.930 . S
H431 C389 0.930 . S
H432 C391 0.929 . S
H433 C392 0.930 . S
H434 C393 0.930 . S
H435 C394 0.930 . S
H436 C398 0.929 . S
H437 C400 0.930 . S
H438 C406 0.929 . S
H439 C407 0.930 . S
Li440 N457 1.990 . S
Li440 O500 1.956 . S
Li440 O501 1.970 . S
Li440 O502 1.961 . S
Li441 N465 1.990 . S
Li441 O500 1.970 . S
Li441 O501 1.956 . S
Li441 O503 1.961 . S
Li442 N487 1.990 . S
Li442 O500 1.961 . S
Li442 O502 1.956 . S
Li442 O503 1.970 . S
Li443 N493 1.990 . S
Li443 O501 1.961 . S
Li443 O502 1.970 . S
Li443 O503 1.956 . S
C444 C446 1.348 . S
C444 C447 1.356 . S
C444 O500 1.325 . S
N445 C448 1.314 . S
N445 C449 1.279 . S
C446 C444 1.348 . S
C446 C448 1.353 . S
C446 H504 0.929 . S
C447 C444 1.356 . S
C447 C449 1.358 . S
C447 H505 0.930 . S
C448 N445 1.314 . S
C448 C446 1.353 . S
C448 H506 0.930 . S
C449 N445 1.279 . S
C449 C447 1.358 . S
C449 H507 0.930 . S
C450 C453 1.348 . S
C450 C454 1.356 . S
C450 O501 1.325 . S
C451 N452 1.279 . S
C451 C454 1.358 . S
C451 H508 0.930 . S
N452 C451 1.279 . S
N452 C455 1.314 . S
C453 C450 1.348 . S
C453 C455 1.353 . S
C453 H509 0.929 . S
C454 C450 1.356 . S
C454 C451 1.358 . S
C454 H510 0.930 . S
C455 N452 1.314 . S
C455 C453 1.353 . S
C455 H511 0.930 . S
C456 N457 1.314 . S
C456 C461 1.353 . S
C456 H462 0.930 . S
N457 Li440 1.990 . S
N457 C456 1.314 . S
N457 C459 1.279 . S
C458 C459 1.358 . S
C458 C460 1.356 . S
C458 H512 0.930 . S
C459 N457 1.279 . S
C459 C458 1.358 . S
C459 H463 0.930 . S
C460 C458 1.356 . S
C460 C461 1.348 . S
C461 C456 1.353 . S
C461 C460 1.348 . S
C461 H513 0.929 . S
H462 C456 0.930 . S
H463 C459 0.930 . S
C464 N465 1.314 . S
C464 C466 1.353 . S
C464 H470 0.930 . S
N465 Li441 1.990 . S
N465 C464 1.314 . S
N465 C468 1.279 . S
C466 C464 1.353 . S
C466 C469 1.348 . S
C466 H514 0.929 . S
C467 C468 1.358 . S
C467 C469 1.356 . S
C467 H515 0.930 . S
C468 N465 1.279 . S
C468 C467 1.358 . S
C468 H471 0.930 . S
C469 C466 1.348 . S
C469 C467 1.356 . S
H470 C464 0.930 . S
H471 C468 0.930 . S
C472 C474 1.348 . S
C472 C475 1.356 . S
C472 O502 1.325 . S
N473 C476 1.314 . S
N473 C477 1.279 . S
C474 C472 1.348 . S
C474 C476 1.353 . S
C474 H516 0.929 . S
C475 C472 1.356 . S
C475 C477 1.358 . S
C475 H517 0.930 . S
C476 N473 1.314 . S
C476 C474 1.353 . S
C476 H518 0.930 . S
C477 N473 1.279 . S
C477 C475 1.358 . S
C477 H519 0.930 . S
C478 C479 1.348 . S
C478 C480 1.356 . S
C478 O503 1.325 . S
C479 C478 1.348 . S
C479 C481 1.353 . S
C479 H520 0.929 . S
C480 C478 1.356 . S
C480 C482 1.358 . S
C480 H521 0.930 . S
C481 C479 1.353 . S
C481 N483 1.314 . S
C481 H522 0.930 . S
C482 C480 1.358 . S
C482 N483 1.279 . S
C482 H523 0.930 . S
N483 C481 1.314 . S
N483 C482 1.279 . S
C484 C486 1.353 . S
C484 N487 1.314 . S
C484 H490 0.930 . S
C485 N487 1.279 . S
C485 C488 1.358 . S
C485 H491 0.930 . S
C486 C484 1.353 . S
C486 C489 1.348 . S
C486 H524 0.929 . S
N487 Li442 1.990 . S
N487 C484 1.314 . S
N487 C485 1.279 . S
C488 C485 1.358 . S
C488 C489 1.356 . S
C488 H525 0.930 . S
C489 C486 1.348 . S
C489 C488 1.356 . S
H490 C484 0.930 . S
H491 C485 0.930 . S
C492 N493 1.314 . S
C492 C494 1.353 . S
C492 H498 0.930 . S
N493 Li443 1.990 . S
N493 C492 1.314 . S
N493 C496 1.279 . S
C494 C492 1.353 . S
C494 C497 1.348 . S
C494 H526 0.929 . S
C495 C496 1.358 . S
C495 C497 1.356 . S
C495 H527 0.930 . S
C496 N493 1.279 . S
C496 C495 1.358 . S
C496 H499 0.930 . S
C497 C494 1.348 . S
C497 C495 1.356 . S
H498 C492 0.930 . S
H499 C496 0.930 . S
O500 Li440 1.956 . S
O500 Li441 1.970 . S
O500 Li442 1.961 . S
O500 C444 1.325 . S
O501 Li440 1.970 . S
O501 Li441 1.956 . S
O501 Li443 1.961 . S
O501 C450 1.325 . S
O502 Li440 1.961 . S
O502 Li442 1.956 . S
O502 Li443 1.970 . S
O502 C472 1.325 . S
O503 Li441 1.961 . S
O503 Li442 1.970 . S
O503 Li443 1.956 . S
O503 C478 1.325 . S
H504 C446 0.929 . S
H505 C447 0.930 . S
H506 C448 0.930 . S
H507 C449 0.930 . S
H508 C451 0.930 . S
H509 C453 0.929 . S
H510 C454 0.930 . S
H511 C455 0.930 . S
H512 C458 0.930 . S
H513 C461 0.929 . S
H514 C466 0.929 . S
H515 C467 0.930 . S
H516 C474 0.929 . S
H517 C475 0.930 . S
H518 C476 0.930 . S
H519 C477 0.930 . S
H520 C479 0.929 . S
H521 C480 0.930 . S
H522 C481 0.930 . S
H523 C482 0.930 . S
H524 C486 0.929 . S
H525 C488 0.930 . S
H526 C494 0.929 . S
H527 C495 0.930 . S
Li528 N545 1.990 . S
Li528 O588 1.956 . S
Li528 O589 1.970 . S
Li528 O590 1.961 . S
Li529 N553 1.990 . S
Li529 O588 1.970 . S
Li529 O589 1.956 . S
Li529 O591 1.961 . S
Li530 N575 1.990 . S
Li530 O588 1.961 . S
Li530 O590 1.956 . S
Li530 O591 1.970 . S
Li531 N581 1.990 . S
Li531 O589 1.961 . S
Li531 O590 1.970 . S
Li531 O591 1.956 . S
C532 C534 1.348 . S
C532 C535 1.356 . S
C532 O588 1.325 . S
N533 C536 1.314 . S
N533 C537 1.279 . S
C534 C532 1.348 . S
C534 C536 1.353 . S
C534 H592 0.929 . S
C535 C532 1.356 . S
C535 C537 1.358 . S
C535 H593 0.930 . S
C536 N533 1.314 . S
C536 C534 1.353 . S
C536 H594 0.930 . S
C537 N533 1.279 . S
C537 C535 1.358 . S
C537 H595 0.930 . S
C538 C541 1.348 . S
C538 C542 1.356 . S
C538 O589 1.325 . S
C539 N540 1.279 . S
C539 C542 1.358 . S
C539 H596 0.930 . S
N540 C539 1.279 . S
N540 C543 1.314 . S
C541 C538 1.348 . S
C541 C543 1.353 . S
C541 H597 0.929 . S
C542 C538 1.356 . S
C542 C539 1.358 . S
C542 H598 0.930 . S
C543 N540 1.314 . S
C543 C541 1.353 . S
C543 H599 0.930 . S
C544 N545 1.314 . S
C544 C549 1.353 . S
C544 H550 0.930 . S
N545 Li528 1.990 . S
N545 C544 1.314 . S
N545 C547 1.279 . S
C546 C547 1.358 . S
C546 C548 1.356 . S
C546 H600 0.930 . S
C547 N545 1.279 . S
C547 C546 1.358 . S
C547 H551 0.930 . S
C548 C546 1.356 . S
C548 C549 1.348 . S
C549 C544 1.353 . S
C549 C548 1.348 . S
C549 H601 0.929 . S
H550 C544 0.930 . S
H551 C547 0.930 . S
C552 N553 1.314 . S
C552 C554 1.353 . S
C552 H558 0.930 . S
N553 Li529 1.990 . S
N553 C552 1.314 . S
N553 C556 1.279 . S
C554 C552 1.353 . S
C554 C557 1.348 . S
C554 H602 0.929 . S
C555 C556 1.358 . S
C555 C557 1.356 . S
C555 H603 0.930 . S
C556 N553 1.279 . S
C556 C555 1.358 . S
C556 H559 0.930 . S
C557 C554 1.348 . S
C557 C555 1.356 . S
H558 C552 0.930 . S
H559 C556 0.930 . S
C560 C562 1.348 . S
C560 C563 1.356 . S
C560 O590 1.325 . S
N561 C564 1.314 . S
N561 C565 1.279 . S
C562 C560 1.348 . S
C562 C564 1.353 . S
C562 H604 0.929 . S
C563 C560 1.356 . S
C563 C565 1.358 . S
C563 H605 0.930 . S
C564 N561 1.314 . S
C564 C562 1.353 . S
C564 H606 0.930 . S
C565 N561 1.279 . S
C565 C563 1.358 . S
C565 H607 0.930 . S
C566 C567 1.348 . S
C566 C568 1.356 . S
C566 O591 1.325 . S
C567 C566 1.348 . S
C567 C569 1.353 . S
C567 H608 0.929 . S
C568 C566 1.356 . S
C568 C570 1.358 . S
C568 H609 0.930 . S
C569 C567 1.353 . S
C569 N571 1.314 . S
C569 H610 0.930 . S
C570 C568 1.358 . S
C570 N571 1.279 . S
C570 H611 0.930 . S
N571 C569 1.314 . S
N571 C570 1.279 . S
C572 C574 1.353 . S
C572 N575 1.314 . S
C572 H578 0.930 . S
C573 N575 1.279 . S
C573 C576 1.358 . S
C573 H579 0.930 . S
C574 C572 1.353 . S
C574 C577 1.348 . S
C574 H612 0.929 . S
N575 Li530 1.990 . S
N575 C572 1.314 . S
N575 C573 1.279 . S
C576 C573 1.358 . S
C576 C577 1.356 . S
C576 H613 0.930 . S
C577 C574 1.348 . S
C577 C576 1.356 . S
H578 C572 0.930 . S
H579 C573 0.930 . S
C580 N581 1.314 . S
C580 C582 1.353 . S
C580 H586 0.930 . S
N581 Li531 1.990 . S
N581 C580 1.314 . S
N581 C584 1.279 . S
C582 C580 1.353 . S
C582 C585 1.348 . S
C582 H614 0.929 . S
C583 C584 1.358 . S
C583 C585 1.356 . S
C583 H615 0.930 . S
C584 N581 1.279 . S
C584 C583 1.358 . S
C584 H587 0.930 . S
C585 C582 1.348 . S
C585 C583 1.356 . S
H586 C580 0.930 . S
H587 C584 0.930 . S
O588 Li528 1.956 . S
O588 Li529 1.970 . S
O588 Li530 1.961 . S
O588 C532 1.325 . S
O589 Li528 1.970 . S
O589 Li529 1.956 . S
O589 Li531 1.961 . S
O589 C538 1.325 . S
O590 Li528 1.961 . S
O590 Li530 1.956 . S
O590 Li531 1.970 . S
O590 C560 1.325 . S
O591 Li529 1.961 . S
O591 Li530 1.970 . S
O591 Li531 1.956 . S
O591 C566 1.325 . S
H592 C534 0.929 . S
H593 C535 0.930 . S
H594 C536 0.930 . S
H595 C537 0.930 . S
H596 C539 0.930 . S
H597 C541 0.929 . S
H598 C542 0.930 . S
H599 C543 0.930 . S
H600 C546 0.930 . S
H601 C549 0.929 . S
H602 C554 0.929 . S
H603 C555 0.930 . S
H604 C562 0.929 . S
H605 C563 0.930 . S
H606 C564 0.930 . S
H607 C565 0.930 . S
H608 C567 0.929 . S
H609 C568 0.930 . S
H610 C569 0.930 . S
H611 C570 0.930 . S
H612 C574 0.929 . S
H613 C576 0.930 . S
H614 C582 0.929 . S
H615 C583 0.930 . S
Li616 N633 1.990 . S
Li616 O676 1.956 1_455 S
Li616 O677 1.970 . S
Li616 O678 1.961 . S
Li617 N641 1.990 . S
Li617 O676 1.970 . S
Li617 O677 1.956 1_655 S
Li617 O679 1.961 . S
Li618 N663 1.993 . S
Li618 O676 1.959 . S
Li618 O678 1.957 1_655 S
Li618 O679 1.970 . S
Li619 N669 1.990 . S
Li619 O677 1.961 . S
Li619 O678 1.970 . S
Li619 O679 1.956 1_455 S
C620 C622 1.348 . S
C620 C623 1.356 . S
C620 O676 1.325 . S
N621 C624 1.314 . S
N621 C625 1.279 . S
C622 C620 1.348 . S
C622 C624 1.353 . S
C622 H680 0.929 . S
C623 C620 1.356 . S
C623 C625 1.358 . S
C623 H681 0.930 . S
C624 N621 1.314 . S
C624 C622 1.353 . S
C624 H682 0.930 . S
C625 N621 1.279 . S
C625 C623 1.358 . S
C625 H683 0.930 . S
C626 C629 1.348 1_455 S
C626 C630 1.356 . S
C626 O677 1.325 . S
C627 N628 1.279 . S
C627 C630 1.358 . S
C627 H684 0.930 . S
N628 C627 1.279 . S
N628 C631 1.297 1_455 S
C629 C626 1.348 1_655 S
C629 C631 1.352 . S
C629 H685 0.929 . S
C630 C626 1.356 . S
C630 C627 1.358 . S
C630 H686 0.930 . S
C631 N628 1.297 1_655 S
C631 C629 1.352 . S
C631 H687 0.959 . S
C632 N633 1.314 . S
C632 C637 1.353 . S
C632 H638 0.930 . S
N633 Li616 1.990 . S
N633 C632 1.314 . S
N633 C635 1.279 1_455 S
C634 C635 1.358 . S
C634 C636 1.356 1_655 S
C634 H688 0.930 . S
C635 N633 1.279 1_655 S
C635 C634 1.358 . S
C635 H639 0.930 . S
C636 C634 1.356 1_455 S
C636 C637 1.348 . S
C637 C632 1.353 . S
C637 C636 1.348 . S
C637 H689 0.929 . S
H638 C632 0.930 . S
H639 C635 0.930 . S
C640 N641 1.314 . S
C640 C642 1.353 . S
C640 H646 0.930 . S
N641 Li617 1.990 . S
N641 C640 1.314 . S
N641 C644 1.279 . S
C642 C640 1.353 . S
C642 C645 1.348 . S
C642 H690 0.929 . S
C643 C644 1.358 . S
C643 C645 1.356 . S
C643 H691 0.930 . S
C644 N641 1.279 . S
C644 C643 1.358 . S
C644 H647 0.930 . S
C645 C642 1.348 . S
C645 C643 1.356 . S
H646 C640 0.930 . S
H647 C644 0.930 . S
C648 C650 1.348 . S
C648 C651 1.356 . S
C648 O678 1.325 . S
N649 C652 1.314 . S
N649 C653 1.279 . S
C650 C648 1.348 . S
C650 C652 1.353 . S
C650 H692 0.929 . S
C651 C648 1.356 . S
C651 C653 1.358 . S
C651 H693 0.930 . S
C652 N649 1.314 . S
C652 C650 1.353 . S
C652 H694 0.930 . S
C653 N649 1.279 . S
C653 C651 1.358 . S
C653 H695 0.930 . S
C654 C655 1.365 . S
C654 C656 1.356 . S
C654 O679 1.325 . S
C655 C654 1.365 . S
C655 C657 1.350 . S
C655 H696 0.918 1_655 S
C656 C654 1.356 . S
C656 C658 1.358 . S
C656 H697 0.930 . S
C657 C655 1.350 . S
C657 N659 1.314 . S
C657 H698 0.939 . S
C658 C656 1.358 . S
C658 N659 1.279 . S
C658 H699 0.930 . S
N659 C657 1.314 . S
N659 C658 1.279 . S
C660 C662 1.353 . S
C660 N663 1.342 . S
C660 H666 0.930 . S
C661 N663 1.250 1_455 S
C661 C664 1.358 . S
C661 H667 0.930 . S
C662 C660 1.353 . S
C662 C665 1.348 . S
C662 H700 0.929 . S
N663 Li618 1.993 . S
N663 C660 1.342 . S
N663 C661 1.250 1_655 S
C664 C661 1.358 . S
C664 C665 1.356 1_455 S
C664 H701 0.930 . S
C665 C662 1.348 . S
C665 C664 1.356 1_655 S
H666 C660 0.930 . S
H667 C661 0.930 . S
C668 N669 1.314 . S
C668 C670 1.353 . S
C668 H674 0.930 . S
N669 Li619 1.990 . S
N669 C668 1.314 . S
N669 C672 1.279 . S
C670 C668 1.353 . S
C670 C673 1.348 . S
C670 H702 0.929 . S
C671 C672 1.358 . S
C671 C673 1.356 . S
C671 H703 0.930 . S
C672 N669 1.279 . S
C672 C671 1.358 . S
C672 H675 0.930 . S
C673 C670 1.348 . S
C673 C671 1.356 . S
H674 C668 0.930 . S
H675 C672 0.930 . S
O676 Li616 1.956 1_655 S
O676 Li617 1.970 . S
O676 Li618 1.959 . S
O676 C620 1.325 . S
O677 Li616 1.970 . S
O677 Li617 1.956 1_455 S
O677 Li619 1.961 . S
O677 C626 1.325 . S
O678 Li616 1.961 . S
O678 Li618 1.957 1_455 S
O678 Li619 1.970 . S
O678 C648 1.325 . S
O679 Li617 1.961 . S
O679 Li618 1.970 . S
O679 Li619 1.956 1_655 S
O679 C654 1.325 . S
H680 C622 0.929 . S
H681 C623 0.930 . S
H682 C624 0.930 . S
H683 C625 0.930 . S
H684 C627 0.930 . S
H685 C629 0.929 . S
H686 C630 0.930 . S
H687 C631 0.959 . S
H688 C634 0.930 . S
H689 C637 0.929 . S
H690 C642 0.929 . S
H691 C643 0.930 . S
H692 C650 0.929 . S
H693 C651 0.930 . S
H694 C652 0.930 . S
H695 C653 0.930 . S
H696 C655 0.918 1_455 S
H697 C656 0.930 . S
H698 C657 0.939 . S
H699 C658 0.930 . S
H700 C662 0.929 . S
H701 C664 0.930 . S
H702 C670 0.929 . S
H703 C671 0.930 . S
Li704 N721 1.990 . S
Li704 O764 1.956 1_545 S
Li704 O765 1.970 . S
Li704 O766 1.961 . S
Li705 N729 1.990 . S
Li705 O764 1.970 . S
Li705 O765 1.956 1_565 S
Li705 O767 1.961 1_565 S
Li706 N751 1.990 . S
Li706 O764 1.961 1_545 S
Li706 O766 1.956 . S
Li706 O767 1.970 . S
Li707 N757 1.990 . S
Li707 O765 1.961 . S
Li707 O766 1.970 . S
Li707 O767 1.956 . S
C708 C710 1.348 . S
C708 C711 1.356 . S
C708 O764 1.325 . S
N709 C712 1.314 . S
N709 C713 1.279 . S
C710 C708 1.348 . S
C710 C712 1.353 . S
C710 H768 0.929 . S
C711 C708 1.356 . S
C711 C713 1.358 . S
C711 H769 0.930 . S
C712 N709 1.314 . S
C712 C710 1.353 . S
C712 H770 0.930 . S
C713 N709 1.279 . S
C713 C711 1.358 . S
C713 H771 0.930 . S
C714 C717 1.348 . S
C714 C718 1.356 . S
C714 O765 1.325 . S
C715 N716 1.279 . S
C715 C718 1.358 . S
C715 H772 0.930 . S
N716 C715 1.279 . S
N716 C719 1.314 . S
C717 C714 1.348 . S
C717 C719 1.353 . S
C717 H773 0.929 . S
C718 C714 1.356 . S
C718 C715 1.358 . S
C718 H774 0.930 . S
C719 N716 1.314 . S
C719 C717 1.353 . S
C719 H775 0.946 . S
C720 N721 1.314 . S
C720 C725 1.353 . S
C720 H726 0.930 . S
N721 Li704 1.990 . S
N721 C720 1.314 . S
N721 C723 1.301 . S
C722 C723 1.356 . S
C722 C724 1.356 . S
C722 H776 0.930 1_545 S
C723 N721 1.301 . S
C723 C722 1.356 . S
C723 H727 0.909 1_545 S
C724 C722 1.356 . S
C724 C725 1.348 . S
C725 C720 1.353 . S
C725 C724 1.348 . S
C725 H777 0.929 . S
H726 C720 0.930 . S
H727 C723 0.909 1_565 S
C728 N729 1.314 . S
C728 C730 1.353 . S
C728 H734 0.930 . S
N729 Li705 1.990 . S
N729 C728 1.314 . S
N729 C732 1.279 . S
C730 C728 1.353 . S
C730 C733 1.348 . S
C730 H778 0.929 . S
C731 C732 1.358 . S
C731 C733 1.356 . S
C731 H779 0.930 . S
C732 N729 1.279 . S
C732 C731 1.358 . S
C732 H735 0.930 . S
C733 C730 1.348 . S
C733 C731 1.356 . S
H734 C728 0.930 . S
H735 C732 0.930 . S
C736 C738 1.348 . S
C736 C739 1.356 . S
C736 O766 1.325 . S
N737 C740 1.314 . S
N737 C741 1.279 . S
C738 C736 1.348 . S
C738 C740 1.353 . S
C738 H780 0.929 . S
C739 C736 1.356 . S
C739 C741 1.358 . S
C739 H781 0.930 . S
C740 N737 1.314 . S
C740 C738 1.353 . S
C740 H782 0.930 . S
C741 N737 1.279 . S
C741 C739 1.358 . S
C741 H783 0.930 . S
C742 C743 1.348 . S
C742 C744 1.356 1_545 S
C742 O767 1.325 . S
C743 C742 1.348 . S
C743 C745 1.353 . S
C743 H784 0.929 . S
C744 C742 1.356 1_565 S
C744 C746 1.358 . S
C744 H785 0.930 . S
C745 C743 1.353 . S
C745 N747 1.315 . S
C745 H786 0.930 . S
C746 C744 1.358 . S
C746 N747 1.279 1_565 S
C746 H787 0.930 . S
N747 C745 1.315 . S
N747 C746 1.279 1_545 S
C748 C750 1.353 . S
C748 N751 1.314 1_565 S
C748 H754 0.930 . S
C749 N751 1.279 . S
C749 C752 1.358 . S
C749 H755 0.930 . S
C750 C748 1.353 . S
C750 C753 1.348 1_565 S
C750 H788 0.929 . S
N751 Li706 1.990 . S
N751 C748 1.314 1_545 S
N751 C749 1.279 . S
C752 C749 1.358 . S
C752 C753 1.356 . S
C752 H789 0.930 . S
C753 C750 1.348 1_545 S
C753 C752 1.356 . S
H754 C748 0.930 . S
H755 C749 0.930 . S
C756 N757 1.314 . S
C756 C758 1.353 . S
C756 H762 0.930 . S
N757 Li707 1.990 . S
N757 C756 1.314 . S
N757 C760 1.279 . S
C758 C756 1.353 . S
C758 C761 1.348 . S
C758 H790 0.929 . S
C759 C760 1.358 . S
C759 C761 1.356 . S
C759 H791 0.930 . S
C760 N757 1.279 . S
C760 C759 1.358 . S
C760 H763 0.930 . S
C761 C758 1.348 . S
C761 C759 1.356 . S
H762 C756 0.930 . S
H763 C760 0.930 . S
O764 Li704 1.956 1_565 S
O764 Li705 1.970 . S
O764 Li706 1.961 1_565 S
O764 C708 1.325 . S
O765 Li704 1.970 . S
O765 Li705 1.956 1_545 S
O765 Li707 1.961 . S
O765 C714 1.325 . S
O766 Li704 1.961 . S
O766 Li706 1.956 . S
O766 Li707 1.970 . S
O766 C736 1.325 . S
O767 Li705 1.961 1_545 S
O767 Li706 1.970 . S
O767 Li707 1.956 . S
O767 C742 1.325 . S
H768 C710 0.929 . S
H769 C711 0.930 . S
H770 C712 0.930 . S
H771 C713 0.930 . S
H772 C715 0.930 . S
H773 C717 0.929 . S
H774 C718 0.930 . S
H775 C719 0.946 . S
H776 C722 0.930 1_565 S
H777 C725 0.929 . S
H778 C730 0.929 . S
H779 C731 0.930 . S
H780 C738 0.929 . S
H781 C739 0.930 . S
H782 C740 0.930 . S
H783 C741 0.930 . S
H784 C743 0.929 . S
H785 C744 0.930 . S
H786 C745 0.930 . S
H787 C746 0.930 . S
H788 C750 0.929 . S
H789 C752 0.930 . S
H790 C758 0.929 . S
H791 C759 0.930 . S
Li792 N809 1.990 . S
Li792 O852 1.956 . S
Li792 O853 1.970 . S
Li792 O854 1.961 . S
Li793 N817 1.990 . S
Li793 O852 1.970 . S
Li793 O853 1.956 . S
Li793 O855 1.961 . S
Li794 N839 1.990 . S
Li794 O852 1.961 . S
Li794 O854 1.956 . S
Li794 O855 1.970 . S
Li795 N845 1.990 . S
Li795 O853 1.961 . S
Li795 O854 1.970 . S
Li795 O855 1.956 . S
C796 C798 1.348 . S
C796 C799 1.356 . S
C796 O852 1.325 . S
N797 C800 1.314 . S
N797 C801 1.279 . S
C798 C796 1.348 . S
C798 C800 1.353 . S
C798 H856 0.929 . S
C799 C796 1.356 . S
C799 C801 1.358 . S
C799 H857 0.930 . S
C800 N797 1.314 . S
C800 C798 1.353 . S
C800 H858 0.930 . S
C801 N797 1.279 . S
C801 C799 1.358 . S
C801 H859 0.930 . S
C802 C805 1.348 . S
C802 C806 1.356 . S
C802 O853 1.325 . S
C803 N804 1.279 . S
C803 C806 1.358 . S
C803 H860 0.930 . S
N804 C803 1.279 . S
N804 C807 1.314 . S
C805 C802 1.348 . S
C805 C807 1.353 . S
C805 H861 0.929 . S
C806 C802 1.356 . S
C806 C803 1.358 . S
C806 H862 0.930 . S
C807 N804 1.314 . S
C807 C805 1.353 . S
C807 H863 0.930 . S
C808 N809 1.314 . S
C808 C813 1.353 . S
C808 H814 0.930 . S
N809 Li792 1.990 . S
N809 C808 1.314 . S
N809 C811 1.279 . S
C810 C811 1.358 . S
C810 C812 1.356 . S
C810 H864 0.930 . S
C811 N809 1.279 . S
C811 C810 1.358 . S
C811 H815 0.930 . S
C812 C810 1.356 . S
C812 C813 1.348 . S
C813 C808 1.353 . S
C813 C812 1.348 . S
C813 H865 0.929 . S
H814 C808 0.930 . S
H815 C811 0.930 . S
C816 N817 1.314 . S
C816 C818 1.353 . S
C816 H822 0.930 . S
N817 Li793 1.990 . S
N817 C816 1.314 . S
N817 C820 1.279 . S
C818 C816 1.353 . S
C818 C821 1.348 . S
C818 H866 0.929 . S
C819 C820 1.358 . S
C819 C821 1.356 . S
C819 H867 0.930 . S
C820 N817 1.279 . S
C820 C819 1.358 . S
C820 H823 0.930 . S
C821 C818 1.348 . S
C821 C819 1.356 . S
H822 C816 0.930 . S
H823 C820 0.930 . S
C824 C826 1.348 . S
C824 C827 1.356 . S
C824 O854 1.325 . S
N825 C828 1.314 . S
N825 C829 1.279 . S
C826 C824 1.348 . S
C826 C828 1.353 . S
C826 H868 0.929 . S
C827 C824 1.356 . S
C827 C829 1.358 . S
C827 H869 0.930 . S
C828 N825 1.314 . S
C828 C826 1.353 . S
C828 H870 0.930 . S
C829 N825 1.279 . S
C829 C827 1.358 . S
C829 H871 0.930 . S
C830 C831 1.348 . S
C830 C832 1.356 . S
C830 O855 1.325 . S
C831 C830 1.348 . S
C831 C833 1.353 . S
C831 H872 0.929 . S
C832 C830 1.356 . S
C832 C834 1.358 . S
C832 H873 0.930 . S
C833 C831 1.353 . S
C833 N835 1.314 . S
C833 H874 0.930 . S
C834 C832 1.358 . S
C834 N835 1.279 . S
C834 H875 0.930 . S
N835 C833 1.314 . S
N835 C834 1.279 . S
C836 C838 1.353 . S
C836 N839 1.314 . S
C836 H842 0.930 . S
C837 N839 1.279 . S
C837 C840 1.358 . S
C837 H843 0.930 . S
C838 C836 1.353 . S
C838 C841 1.348 . S
C838 H876 0.929 . S
N839 Li794 1.990 . S
N839 C836 1.314 . S
N839 C837 1.279 . S
C840 C837 1.358 . S
C840 C841 1.356 . S
C840 H877 0.930 . S
C841 C838 1.348 . S
C841 C840 1.356 . S
H842 C836 0.930 . S
H843 C837 0.930 . S
C844 N845 1.314 . S
C844 C846 1.353 . S
C844 H850 0.930 . S
N845 Li795 1.990 . S
N845 C844 1.314 . S
N845 C848 1.279 . S
C846 C844 1.353 . S
C846 C849 1.348 . S
C846 H878 0.929 . S
C847 C848 1.358 . S
C847 C849 1.356 . S
C847 H879 0.930 . S
C848 N845 1.279 . S
C848 C847 1.358 . S
C848 H851 0.930 . S
C849 C846 1.348 . S
C849 C847 1.356 . S
H850 C844 0.930 . S
H851 C848 0.930 . S
O852 Li792 1.956 . S
O852 Li793 1.970 . S
O852 Li794 1.961 . S
O852 C796 1.325 . S
O853 Li792 1.970 . S
O853 Li793 1.956 . S
O853 Li795 1.961 . S
O853 C802 1.325 . S
O854 Li792 1.961 . S
O854 Li794 1.956 . S
O854 Li795 1.970 . S
O854 C824 1.325 . S
O855 Li793 1.961 . S
O855 Li794 1.970 . S
O855 Li795 1.956 . S
O855 C830 1.325 . S
H856 C798 0.929 . S
H857 C799 0.930 . S
H858 C800 0.930 . S
H859 C801 0.930 . S
H860 C803 0.930 . S
H861 C805 0.929 . S
H862 C806 0.930 . S
H863 C807 0.930 . S
H864 C810 0.930 . S
H865 C813 0.929 . S
H866 C818 0.929 . S
H867 C819 0.930 . S
H868 C826 0.929 . S
H869 C827 0.930 . S
H870 C828 0.930 . S
H871 C829 0.930 . S
H872 C831 0.929 . S
H873 C832 0.930 . S
H874 C833 0.930 . S
H875 C834 0.930 . S
H876 C838 0.929 . S
H877 C840 0.930 . S
H878 C846 0.929 . S
H879 C847 0.930 . S
Li880 N897 1.990 . S
Li880 O940 1.956 . S
Li880 O941 1.970 . S
Li880 O942 1.961 . S
Li881 N905 1.990 . S
Li881 O940 1.970 . S
Li881 O941 1.956 . S
Li881 O943 1.961 . S
Li882 N927 1.990 1_545 S
Li882 O940 1.961 . S
Li882 O942 1.956 . S
Li882 O943 1.970 . S
Li883 N933 1.990 . S
Li883 O941 1.961 . S
Li883 O942 1.970 . S
Li883 O943 1.956 . S
C884 C886 1.348 . S
C884 C887 1.356 . S
C884 O940 1.325 . S
N885 C888 1.314 . S
N885 C889 1.279 . S
C886 C884 1.348 . S
C886 C888 1.353 . S
C886 H944 0.929 . S
C887 C884 1.356 . S
C887 C889 1.358 . S
C887 H945 0.930 . S
C888 N885 1.314 . S
C888 C886 1.353 . S
C888 H946 0.930 . S
C889 N885 1.279 . S
C889 C887 1.358 . S
C889 H947 0.930 . S
C890 C893 1.348 . S
C890 C894 1.356 . S
C890 O941 1.325 . S
C891 N892 1.279 . S
C891 C894 1.358 . S
C891 H948 0.930 . S
N892 C891 1.279 . S
N892 C895 1.314 . S
C893 C890 1.348 . S
C893 C895 1.353 . S
C893 H949 0.929 . S
C894 C890 1.356 . S
C894 C891 1.358 . S
C894 H950 0.930 . S
C895 N892 1.314 . S
C895 C893 1.353 . S
C895 H951 0.930 . S
C896 N897 1.314 . S
C896 C901 1.353 . S
C896 H902 0.930 . S
N897 Li880 1.990 . S
N897 C896 1.314 . S
N897 C899 1.279 . S
C898 C899 1.358 . S
C898 C900 1.356 . S
C898 H952 0.930 . S
C899 N897 1.279 . S
C899 C898 1.358 . S
C899 H903 0.930 . S
C900 C898 1.356 . S
C900 C901 1.348 . S
C901 C896 1.353 . S
C901 C900 1.348 . S
C901 H953 0.929 . S
H902 C896 0.930 . S
H903 C899 0.930 . S
C904 N905 1.314 . S
C904 C906 1.353 . S
C904 H910 0.930 . S
N905 Li881 1.990 . S
N905 C904 1.314 . S
N905 C908 1.279 . S
C906 C904 1.353 . S
C906 C909 1.348 . S
C906 H954 0.964 . S
C907 C908 1.358 . S
C907 C909 1.356 . S
C907 H955 0.930 . S
C908 N905 1.279 . S
C908 C907 1.358 . S
C908 H911 0.930 . S
C909 C906 1.348 . S
C909 C907 1.356 . S
H910 C904 0.930 . S
H911 C908 0.930 . S
C912 C914 1.348 . S
C912 C915 1.356 . S
C912 O942 1.325 . S
N913 C916 1.314 . S
N913 C917 1.279 . S
C914 C912 1.348 . S
C914 C916 1.353 . S
C914 H956 0.929 . S
C915 C912 1.356 . S
C915 C917 1.358 . S
C915 H957 0.930 . S
C916 N913 1.314 . S
C916 C914 1.353 . S
C916 H958 0.930 . S
C917 N913 1.279 . S
C917 C915 1.358 . S
C917 H959 0.930 . S
C918 C919 1.348 . S
C918 C920 1.356 . S
C918 O943 1.325 1_565 S
C919 C918 1.348 . S
C919 C921 1.353 . S
C919 H960 0.929 . S
C920 C918 1.356 . S
C920 C922 1.358 . S
C920 H961 0.890 1_565 S
C921 C919 1.353 . S
C921 N923 1.314 . S
C921 H962 0.930 . S
C922 C920 1.358 . S
C922 N923 1.279 . S
C922 H963 0.930 . S
N923 C921 1.314 . S
N923 C922 1.279 . S
C924 C926 1.353 . S
C924 N927 1.314 . S
C924 H930 0.930 . S
C925 N927 1.279 . S
C925 C928 1.358 . S
C925 H931 0.930 . S
C926 C924 1.353 . S
C926 C929 1.348 . S
C926 H964 0.929 . S
N927 Li882 1.990 1_565 S
N927 C924 1.314 . S
N927 C925 1.279 . S
C928 C925 1.358 . S
C928 C929 1.356 . S
C928 H965 0.930 . S
C929 C926 1.348 . S
C929 C928 1.356 . S
H930 C924 0.930 . S
H931 C925 0.930 . S
C932 N933 1.314 . S
C932 C934 1.353 . S
C932 H938 0.930 . S
N933 Li883 1.990 . S
N933 C932 1.314 . S
N933 C936 1.279 . S
C934 C932 1.353 . S
C934 C937 1.348 . S
C934 H966 0.929 . S
C935 C936 1.358 . S
C935 C937 1.356 . S
C935 H967 0.930 1_545 S
C936 N933 1.279 . S
C936 C935 1.358 . S
C936 H939 0.930 1_545 S
C937 C934 1.348 . S
C937 C935 1.356 . S
H938 C932 0.930 . S
H939 C936 0.930 1_565 S
O940 Li880 1.956 . S
O940 Li881 1.970 . S
O940 Li882 1.961 . S
O940 C884 1.325 . S
O941 Li880 1.970 . S
O941 Li881 1.956 . S
O941 Li883 1.961 . S
O941 C890 1.325 . S
O942 Li880 1.961 . S
O942 Li882 1.956 . S
O942 Li883 1.970 . S
O942 C912 1.325 . S
O943 Li881 1.961 . S
O943 Li882 1.970 . S
O943 Li883 1.956 . S
O943 C918 1.325 1_545 S
H944 C886 0.929 . S
H945 C887 0.930 . S
H946 C888 0.930 . S
H947 C889 0.930 . S
H948 C891 0.930 . S
H949 C893 0.929 . S
H950 C894 0.930 . S
H951 C895 0.930 . S
H952 C898 0.930 . S
H953 C901 0.929 . S
H954 C906 0.964 . S
H955 C907 0.930 . S
H956 C914 0.929 . S
H957 C915 0.930 . S
H958 C916 0.930 . S
H959 C917 0.930 . S
H960 C919 0.929 . S
H961 C920 0.890 1_545 S
H962 C921 0.930 . S
H963 C922 0.930 . S
H964 C926 0.929 . S
H965 C928 0.930 . S
H966 C934 0.929 . S
H967 C935 0.930 1_565 S
Li968 N985 1.990 . S
Li968 O1028 1.980 . S
Li968 O1029 1.971 1_554 S
Li968 O1030 1.934 1_554 S
Li969 N993 1.990 . S
Li969 O1028 1.970 . S
Li969 O1029 1.956 1_554 S
Li969 O1031 1.995 . S
Li970 N1015 1.990 . S
Li970 O1028 1.961 . S
Li970 O1030 1.956 1_554 S
Li970 O1031 1.967 . S
Li971 N1021 1.990 . S
Li971 O1029 1.961 . S
Li971 O1030 1.970 . S
Li971 O1031 1.924 1_556 S
C972 C974 1.348 . S
C972 C975 1.356 . S
C972 O1028 1.325 . S
N973 C976 1.314 . S
N973 C977 1.279 . S
C974 C972 1.348 . S
C974 C976 1.353 . S
C974 H1032 0.929 . S
C975 C972 1.356 . S
C975 C977 1.358 . S
C975 H1033 0.930 . S
C976 N973 1.314 . S
C976 C974 1.353 . S
C976 H1034 0.930 . S
C977 N973 1.279 . S
C977 C975 1.358 . S
C977 H1035 0.930 . S
C978 C981 1.348 1_556 S
C978 C982 1.356 . S
C978 O1029 1.325 . S
C979 N980 1.279 . S
C979 C982 1.358 . S
C979 H1036 0.930 . S
N980 C979 1.279 . S
N980 C983 1.315 . S
C981 C978 1.348 1_554 S
C981 C983 1.353 1_554 S
C981 H1037 0.929 . S
C982 C978 1.356 . S
C982 C979 1.358 . S
C982 H1038 0.930 . S
C983 N980 1.315 . S
C983 C981 1.353 1_556 S
C983 H1039 0.928 1_556 S
C984 N985 1.271 1_556 S
C984 C989 1.353 . S
C984 H990 0.930 . S
N985 Li968 1.990 . S
N985 C984 1.271 1_554 S
N985 C987 1.324 . S
C986 C987 1.358 . S
C986 C988 1.348 1_554 S
C986 H1040 0.930 . S
C987 N985 1.324 . S
C987 C986 1.358 . S
C987 H991 0.930 . S
C988 C986 1.348 1_556 S
C988 C989 1.356 . S
C989 C984 1.353 . S
C989 C988 1.356 . S
C989 H1041 0.929 . S
H990 C984 0.930 . S
H991 C987 0.930 . S
C992 N993 1.314 . S
C992 C994 1.353 . S
C992 H998 0.930 . S
N993 Li969 1.990 . S
N993 C992 1.314 . S
N993 C996 1.279 . S
C994 C992 1.353 . S
C994 C997 1.348 . S
C994 H1042 0.929 . S
C995 C996 1.358 . S
C995 C997 1.356 . S
C995 H1043 0.930 . S
C996 N993 1.279 . S
C996 C995 1.358 . S
C996 H999 0.930 . S
C997 C994 1.348 . S
C997 C995 1.356 . S
H998 C992 0.930 . S
H999 C996 0.930 . S
C1000 C1002 1.348 . S
C1000 C1003 1.356 . S
C1000 O1030 1.325 . S
N1001 C1004 1.314 . S
N1001 C1005 1.279 . S
C1002 C1000 1.348 . S
C1002 C1004 1.353 . S
C1002 H1044 0.929 . S
C1003 C1000 1.356 . S
C1003 C1005 1.358 . S
C1003 H1045 0.930 . S
C1004 N1001 1.314 . S
C1004 C1002 1.353 . S
C1004 H1046 0.930 . S
C1005 N1001 1.279 . S
C1005 C1003 1.358 . S
C1005 H1047 0.930 . S
C1006 C1007 1.341 1_554 S
C1006 C1008 1.360 . S
C1006 O1031 1.324 . S
C1007 C1006 1.341 1_556 S
C1007 C1009 1.353 . S
C1007 H1048 0.929 . S
C1008 C1006 1.360 . S
C1008 C1010 1.358 . S
C1008 H1049 0.930 . S
C1009 C1007 1.353 . S
C1009 N1011 1.333 . S
C1009 H1050 0.930 . S
C1010 C1008 1.358 . S
C1010 N1011 1.261 1_554 S
C1010 H1051 0.930 . S
N1011 C1009 1.333 . S
N1011 C1010 1.261 1_556 S
C1012 C1014 1.353 . S
C1012 N1015 1.314 . S
C1012 H1018 0.930 . S
C1013 N1015 1.279 1_556 S
C1013 C1016 1.358 . S
C1013 H1019 0.930 . S
C1014 C1012 1.353 . S
C1014 C1017 1.348 . S
C1014 H1052 0.929 . S
N1015 Li970 1.990 . S
N1015 C1012 1.314 . S
N1015 C1013 1.279 1_554 S
C1016 C1013 1.358 . S
C1016 C1017 1.356 1_556 S
C1016 H1053 0.930 . S
C1017 C1014 1.348 . S
C1017 C1016 1.356 1_554 S
H1018 C1012 0.930 . S
H1019 C1013 0.930 . S
C1020 N1021 1.314 . S
C1020 C1022 1.353 . S
C1020 H1026 0.930 . S
N1021 Li971 1.990 . S
N1021 C1020 1.314 . S
N1021 C1024 1.279 . S
C1022 C1020 1.353 . S
C1022 C1025 1.348 . S
C1022 H1054 0.929 . S
C1023 C1024 1.358 . S
C1023 C1025 1.356 . S
C1023 H1055 0.930 . S
C1024 N1021 1.279 . S
C1024 C1023 1.358 . S
C1024 H1027 0.930 . S
C1025 C1022 1.348 . S
C1025 C1023 1.356 . S
H1026 C1020 0.930 . S
H1027 C1024 0.930 . S
O1028 Li968 1.980 . S
O1028 Li969 1.970 . S
O1028 Li970 1.961 . S
O1028 C972 1.325 . S
O1029 Li968 1.971 1_556 S
O1029 Li969 1.956 1_556 S
O1029 Li971 1.961 . S
O1029 C978 1.325 . S
O1030 Li968 1.934 1_556 S
O1030 Li970 1.956 1_556 S
O1030 Li971 1.970 . S
O1030 C1000 1.325 . S
O1031 Li969 1.995 . S
O1031 Li970 1.967 . S
O1031 Li971 1.924 1_554 S
O1031 C1006 1.324 . S
H1032 C974 0.929 . S
H1033 C975 0.930 . S
H1034 C976 0.930 . S
H1035 C977 0.930 . S
H1036 C979 0.930 . S
H1037 C981 0.929 . S
H1038 C982 0.930 . S
H1039 C983 0.928 1_554 S
H1040 C986 0.930 . S
H1041 C989 0.929 . S
H1042 C994 0.929 . S
H1043 C995 0.930 . S
H1044 C1002 0.929 . S
H1045 C1003 0.930 . S
H1046 C1004 0.930 . S
H1047 C1005 0.930 . S
H1048 C1007 0.929 . S
H1049 C1008 0.930 . S
H1050 C1009 0.930 . S
H1051 C1010 0.930 . S
H1052 C1014 0.929 . S
H1053 C1016 0.930 . S
H1054 C1022 0.929 . S
H1055 C1023 0.930 . S
Li1056 N1073 1.990 . S
Li1056 O1116 1.956 . S
Li1056 O1117 1.970 . S
Li1056 O1118 1.961 . S
Li1057 N1081 1.990 . S
Li1057 O1116 1.970 . S
Li1057 O1117 1.956 . S
Li1057 O1119 1.961 . S
Li1058 N1103 1.990 . S
Li1058 O1116 1.961 . S
Li1058 O1118 1.956 . S
Li1058 O1119 1.970 . S
Li1059 N1109 1.990 1_554 S
Li1059 O1117 1.961 . S
Li1059 O1118 1.970 . S
Li1059 O1119 1.956 . S
C1060 C1062 1.348 . S
C1060 C1063 1.356 . S
C1060 O1116 1.325 . S
N1061 C1064 1.314 . S
N1061 C1065 1.279 . S
C1062 C1060 1.348 . S
C1062 C1064 1.353 . S
C1062 H1120 0.929 . S
C1063 C1060 1.356 . S
C1063 C1065 1.358 . S
C1063 H1121 0.930 . S
C1064 N1061 1.314 . S
C1064 C1062 1.353 . S
C1064 H1122 0.930 . S
C1065 N1061 1.279 . S
C1065 C1063 1.358 . S
C1065 H1123 0.930 . S
C1066 C1069 1.348 . S
C1066 C1070 1.356 . S
C1066 O1117 1.325 . S
C1067 N1068 1.279 . S
C1067 C1070 1.358 . S
C1067 H1124 0.930 . S
N1068 C1067 1.279 . S
N1068 C1071 1.314 . S
C1069 C1066 1.348 . S
C1069 C1071 1.353 . S
C1069 H1125 0.929 . S
C1070 C1066 1.356 . S
C1070 C1067 1.358 . S
C1070 H1126 0.930 . S
C1071 N1068 1.314 . S
C1071 C1069 1.353 . S
C1071 H1127 0.930 . S
C1072 N1073 1.314 . S
C1072 C1077 1.353 . S
C1072 H1078 0.930 . S
N1073 Li1056 1.990 . S
N1073 C1072 1.314 . S
N1073 C1075 1.279 . S
C1074 C1075 1.358 . S
C1074 C1076 1.356 . S
C1074 H1128 0.930 . S
C1075 N1073 1.279 . S
C1075 C1074 1.358 . S
C1075 H1079 0.930 . S
C1076 C1074 1.356 . S
C1076 C1077 1.348 . S
C1077 C1072 1.353 . S
C1077 C1076 1.348 . S
C1077 H1129 0.929 . S
H1078 C1072 0.930 . S
H1079 C1075 0.930 . S
C1080 N1081 1.314 . S
C1080 C1082 1.353 . S
C1080 H1086 0.930 . S
N1081 Li1057 1.990 . S
N1081 C1080 1.314 . S
N1081 C1084 1.279 . S
C1082 C1080 1.353 . S
C1082 C1085 1.348 . S
C1082 H1130 0.929 . S
C1083 C1084 1.358 . S
C1083 C1085 1.356 . S
C1083 H1131 0.930 . S
C1084 N1081 1.279 . S
C1084 C1083 1.358 . S
C1084 H1087 0.930 . S
C1085 C1082 1.348 . S
C1085 C1083 1.356 . S
H1086 C1080 0.930 . S
H1087 C1084 0.930 . S
C1088 C1090 1.348 1_554 S
C1088 C1091 1.356 . S
C1088 O1118 1.325 . S
N1089 C1092 1.314 . S
N1089 C1093 1.279 . S
C1090 C1088 1.348 1_556 S
C1090 C1092 1.353 . S
C1090 H1132 0.929 . S
C1091 C1088 1.356 . S
C1091 C1093 1.358 1_554 S
C1091 H1133 0.930 . S
C1092 N1089 1.314 . S
C1092 C1090 1.353 . S
C1092 H1134 0.930 . S
C1093 N1089 1.279 . S
C1093 C1091 1.358 1_556 S
C1093 H1135 0.930 . S
C1094 C1095 1.348 . S
C1094 C1096 1.356 . S
C1094 O1119 1.325 . S
C1095 C1094 1.348 . S
C1095 C1097 1.353 . S
C1095 H1136 0.929 . S
C1096 C1094 1.356 . S
C1096 C1098 1.358 . S
C1096 H1137 0.930 . S
C1097 C1095 1.353 . S
C1097 N1099 1.314 . S
C1097 H1138 0.930 . S
C1098 C1096 1.358 . S
C1098 N1099 1.279 . S
C1098 H1139 0.930 . S
N1099 C1097 1.314 . S
N1099 C1098 1.279 . S
C1100 C1102 1.353 . S
C1100 N1103 1.314 . S
C1100 H1106 0.930 . S
C1101 N1103 1.279 . S
C1101 C1104 1.358 . S
C1101 H1107 0.930 . S
C1102 C1100 1.353 . S
C1102 C1105 1.348 . S
C1102 H1140 0.929 . S
N1103 Li1058 1.990 . S
N1103 C1100 1.314 . S
N1103 C1101 1.279 . S
C1104 C1101 1.358 . S
C1104 C1105 1.356 . S
C1104 H1141 0.930 . S
C1105 C1102 1.348 . S
C1105 C1104 1.356 . S
H1106 C1100 0.930 . S
H1107 C1101 0.930 . S
C1108 N1109 1.314 . S
C1108 C1110 1.353 . S
C1108 H1114 0.930 . S
N1109 Li1059 1.990 1_556 S
N1109 C1108 1.314 . S
N1109 C1112 1.279 . S
C1110 C1108 1.353 . S
C1110 C1113 1.348 . S
C1110 H1142 0.929 . S
C1111 C1112 1.358 . S
C1111 C1113 1.356 . S
C1111 H1143 0.930 . S
C1112 N1109 1.279 . S
C1112 C1111 1.358 . S
C1112 H1115 0.930 . S
C1113 C1110 1.348 . S
C1113 C1111 1.356 . S
H1114 C1108 0.930 . S
H1115 C1112 0.930 . S
O1116 Li1056 1.956 . S
O1116 Li1057 1.970 . S
O1116 Li1058 1.961 . S
O1116 C1060 1.325 . S
O1117 Li1056 1.970 . S
O1117 Li1057 1.956 . S
O1117 Li1059 1.961 . S
O1117 C1066 1.325 . S
O1118 Li1056 1.961 . S
O1118 Li1058 1.956 . S
O1118 Li1059 1.970 . S
O1118 C1088 1.325 . S
O1119 Li1057 1.961 . S
O1119 Li1058 1.970 . S
O1119 Li1059 1.956 . S
O1119 C1094 1.325 . S
H1120 C1062 0.929 . S
H1121 C1063 0.930 . S
H1122 C1064 0.930 . S
H1123 C1065 0.930 . S
H1124 C1067 0.930 . S
H1125 C1069 0.929 . S
H1126 C1070 0.930 . S
H1127 C1071 0.930 . S
H1128 C1074 0.930 . S
H1129 C1077 0.929 . S
H1130 C1082 0.929 . S
H1131 C1083 0.930 . S
H1132 C1090 0.929 . S
H1133 C1091 0.930 . S
H1134 C1092 0.930 . S
H1135 C1093 0.930 . S
H1136 C1095 0.929 . S
H1137 C1096 0.930 . S
H1138 C1097 0.930 . S
H1139 C1098 0.930 . S
H1140 C1102 0.929 . S
H1141 C1104 0.930 . S
H1142 C1110 0.929 . S
H1143 C1111 0.930 . S
Li1144 N1161 1.990 . S
Li1144 O1204 1.956 . S
Li1144 O1205 1.970 . S
Li1144 O1206 1.961 . S
Li1145 N1169 1.990 . S
Li1145 O1204 1.970 . S
Li1145 O1205 1.956 . S
Li1145 O1207 1.961 . S
Li1146 N1191 1.990 . S
Li1146 O1204 1.961 . S
Li1146 O1206 1.956 . S
Li1146 O1207 1.970 . S
Li1147 N1197 1.990 . S
Li1147 O1205 1.961 . S
Li1147 O1206 1.970 . S
Li1147 O1207 1.956 . S
C1148 C1150 1.348 . S
C1148 C1151 1.356 . S
C1148 O1204 1.325 . S
N1149 C1152 1.314 . S
N1149 C1153 1.279 . S
C1150 C1148 1.348 . S
C1150 C1152 1.353 . S
C1150 H1208 0.929 . S
C1151 C1148 1.356 . S
C1151 C1153 1.358 . S
C1151 H1209 0.930 . S
C1152 N1149 1.314 . S
C1152 C1150 1.353 . S
C1152 H1210 0.930 . S
C1153 N1149 1.279 . S
C1153 C1151 1.358 . S
C1153 H1211 0.930 . S
C1154 C1157 1.348 . S
C1154 C1158 1.356 . S
C1154 O1205 1.325 . S
C1155 N1156 1.279 . S
C1155 C1158 1.358 . S
C1155 H1212 0.930 . S
N1156 C1155 1.279 . S
N1156 C1159 1.314 . S
C1157 C1154 1.348 . S
C1157 C1159 1.353 . S
C1157 H1213 0.929 . S
C1158 C1154 1.356 . S
C1158 C1155 1.358 . S
C1158 H1214 0.930 . S
C1159 N1156 1.314 . S
C1159 C1157 1.353 . S
C1159 H1215 0.930 . S
C1160 N1161 1.314 . S
C1160 C1165 1.353 . S
C1160 H1166 0.930 . S
N1161 Li1144 1.990 . S
N1161 C1160 1.314 . S
N1161 C1163 1.279 . S
C1162 C1163 1.358 . S
C1162 C1164 1.356 . S
C1162 H1216 0.930 . S
C1163 N1161 1.279 . S
C1163 C1162 1.358 . S
C1163 H1167 0.930 . S
C1164 C1162 1.356 . S
C1164 C1165 1.348 . S
C1165 C1160 1.353 . S
C1165 C1164 1.348 . S
C1165 H1217 0.929 . S
H1166 C1160 0.930 . S
H1167 C1163 0.930 . S
C1168 N1169 1.314 . S
C1168 C1170 1.353 . S
C1168 H1174 0.930 . S
N1169 Li1145 1.990 . S
N1169 C1168 1.314 . S
N1169 C1172 1.279 . S
C1170 C1168 1.353 . S
C1170 C1173 1.348 . S
C1170 H1218 0.929 . S
C1171 C1172 1.358 . S
C1171 C1173 1.356 . S
C1171 H1219 0.930 . S
C1172 N1169 1.279 . S
C1172 C1171 1.358 . S
C1172 H1175 0.930 . S
C1173 C1170 1.348 . S
C1173 C1171 1.356 . S
H1174 C1168 0.930 . S
H1175 C1172 0.930 . S
C1176 C1178 1.348 . S
C1176 C1179 1.356 . S
C1176 O1206 1.325 . S
N1177 C1180 1.314 . S
N1177 C1181 1.279 . S
C1178 C1176 1.348 . S
C1178 C1180 1.353 . S
C1178 H1220 0.929 . S
C1179 C1176 1.356 . S
C1179 C1181 1.358 . S
C1179 H1221 0.930 . S
C1180 N1177 1.314 . S
C1180 C1178 1.353 . S
C1180 H1222 0.930 . S
C1181 N1177 1.279 . S
C1181 C1179 1.358 . S
C1181 H1223 0.930 . S
C1182 C1183 1.348 1_554 S
C1182 C1184 1.356 . S
C1182 O1207 1.325 . S
C1183 C1182 1.348 1_556 S
C1183 C1185 1.353 . S
C1183 H1224 0.929 . S
C1184 C1182 1.356 . S
C1184 C1186 1.358 1_554 S
C1184 H1225 0.930 . S
C1185 C1183 1.353 . S
C1185 N1187 1.314 . S
C1185 H1226 0.930 . S
C1186 C1184 1.358 1_556 S
C1186 N1187 1.279 . S
C1186 H1227 0.930 . S
N1187 C1185 1.314 . S
N1187 C1186 1.279 . S
C1188 C1190 1.353 . S
C1188 N1191 1.314 1_556 S
C1188 H1194 0.930 . S
C1189 N1191 1.279 1_556 S
C1189 C1192 1.358 . S
C1189 H1195 0.930 1_556 S
C1190 C1188 1.353 . S
C1190 C1193 1.348 . S
C1190 H1228 0.929 . S
N1191 Li1146 1.990 . S
N1191 C1188 1.314 1_554 S
N1191 C1189 1.279 1_554 S
C1192 C1189 1.358 . S
C1192 C1193 1.356 . S
C1192 H1229 0.930 . S
C1193 C1190 1.348 . S
C1193 C1192 1.356 . S
H1194 C1188 0.930 . S
H1195 C1189 0.930 1_554 S
C1196 N1197 1.314 . S
C1196 C1198 1.353 . S
C1196 H1202 0.930 . S
N1197 Li1147 1.990 . S
N1197 C1196 1.314 . S
N1197 C1200 1.279 . S
C1198 C1196 1.353 . S
C1198 C1201 1.348 . S
C1198 H1230 0.929 . S
C1199 C1200 1.358 . S
C1199 C1201 1.356 . S
C1199 H1231 0.930 . S
C1200 N1197 1.279 . S
C1200 C1199 1.358 . S
C1200 H1203 0.930 . S
C1201 C1198 1.348 . S
C1201 C1199 1.356 . S
H1202 C1196 0.930 . S
H1203 C1200 0.930 . S
O1204 Li1144 1.956 . S
O1204 Li1145 1.970 . S
O1204 Li1146 1.961 . S
O1204 C1148 1.325 . S
O1205 Li1144 1.970 . S
O1205 Li1145 1.956 . S
O1205 Li1147 1.961 . S
O1205 C1154 1.325 . S
O1206 Li1144 1.961 . S
O1206 Li1146 1.956 . S
O1206 Li1147 1.970 . S
O1206 C1176 1.325 . S
O1207 Li1145 1.961 . S
O1207 Li1146 1.970 . S
O1207 Li1147 1.956 . S
O1207 C1182 1.325 . S
H1208 C1150 0.929 . S
H1209 C1151 0.930 . S
H1210 C1152 0.930 . S
H1211 C1153 0.930 . S
H1212 C1155 0.930 . S
H1213 C1157 0.929 . S
H1214 C1158 0.930 . S
H1215 C1159 0.930 . S
H1216 C1162 0.930 . S
H1217 C1165 0.929 . S
H1218 C1170 0.929 . S
H1219 C1171 0.930 . S
H1220 C1178 0.929 . S
H1221 C1179 0.930 . S
H1222 C1180 0.930 . S
H1223 C1181 0.930 . S
H1224 C1183 0.929 . S
H1225 C1184 0.930 . S
H1226 C1185 0.930 . S
H1227 C1186 0.930 . S
H1228 C1190 0.929 . S
H1229 C1192 0.930 . S
H1230 C1198 0.929 . S
H1231 C1199 0.930 . S
Li1232 N1249 1.990 . S
Li1232 O1292 1.956 . S
Li1232 O1293 1.970 . S
Li1232 O1294 1.961 . S
Li1233 N1257 1.990 . S
Li1233 O1292 1.970 . S
Li1233 O1293 1.956 . S
Li1233 O1295 1.961 . S
Li1234 N1279 1.990 . S
Li1234 O1292 1.961 . S
Li1234 O1294 1.956 . S
Li1234 O1295 1.970 . S
Li1235 N1285 1.990 . S
Li1235 O1293 1.961 . S
Li1235 O1294 1.970 . S
Li1235 O1295 1.956 . S
C1236 C1238 1.348 . S
C1236 C1239 1.356 . S
C1236 O1292 1.325 . S
N1237 C1240 1.314 . S
N1237 C1241 1.279 . S
C1238 C1236 1.348 . S
C1238 C1240 1.353 . S
C1238 H1296 0.929 . S
C1239 C1236 1.356 . S
C1239 C1241 1.358 . S
C1239 H1297 0.930 . S
C1240 N1237 1.314 . S
C1240 C1238 1.353 . S
C1240 H1298 0.930 . S
C1241 N1237 1.279 . S
C1241 C1239 1.358 . S
C1241 H1299 0.930 . S
C1242 C1245 1.348 . S
C1242 C1246 1.356 . S
C1242 O1293 1.325 . S
C1243 N1244 1.279 . S
C1243 C1246 1.358 . S
C1243 H1300 0.930 . S
N1244 C1243 1.279 . S
N1244 C1247 1.314 . S
C1245 C1242 1.348 . S
C1245 C1247 1.353 . S
C1245 H1301 0.929 . S
C1246 C1242 1.356 . S
C1246 C1243 1.358 . S
C1246 H1302 0.930 . S
C1247 N1244 1.314 . S
C1247 C1245 1.353 . S
C1247 H1303 0.930 . S
C1248 N1249 1.314 . S
C1248 C1253 1.353 . S
C1248 H1254 0.930 . S
N1249 Li1232 1.990 . S
N1249 C1248 1.314 . S
N1249 C1251 1.279 . S
C1250 C1251 1.358 . S
C1250 C1252 1.356 . S
C1250 H1304 0.930 . S
C1251 N1249 1.279 . S
C1251 C1250 1.358 . S
C1251 H1255 0.930 . S
C1252 C1250 1.356 . S
C1252 C1253 1.348 . S
C1253 C1248 1.353 . S
C1253 C1252 1.348 . S
C1253 H1305 0.929 . S
H1254 C1248 0.930 . S
H1255 C1251 0.930 . S
C1256 N1257 1.314 . S
C1256 C1258 1.353 . S
C1256 H1262 0.930 . S
N1257 Li1233 1.990 . S
N1257 C1256 1.314 . S
N1257 C1260 1.279 . S
C1258 C1256 1.353 . S
C1258 C1261 1.348 . S
C1258 H1306 0.929 . S
C1259 C1260 1.358 . S
C1259 C1261 1.356 . S
C1259 H1307 0.930 . S
C1260 N1257 1.279 . S
C1260 C1259 1.358 . S
C1260 H1263 0.930 . S
C1261 C1258 1.348 . S
C1261 C1259 1.356 . S
H1262 C1256 0.930 . S
H1263 C1260 0.930 . S
C1264 C1266 1.348 . S
C1264 C1267 1.356 . S
C1264 O1294 1.325 . S
N1265 C1268 1.314 . S
N1265 C1269 1.279 . S
C1266 C1264 1.348 . S
C1266 C1268 1.353 . S
C1266 H1308 0.929 . S
C1267 C1264 1.356 . S
C1267 C1269 1.358 . S
C1267 H1309 0.930 . S
C1268 N1265 1.314 . S
C1268 C1266 1.353 . S
C1268 H1310 0.930 . S
C1269 N1265 1.279 . S
C1269 C1267 1.358 . S
C1269 H1311 0.930 . S
C1270 C1271 1.348 . S
C1270 C1272 1.356 . S
C1270 O1295 1.325 . S
C1271 C1270 1.348 . S
C1271 C1273 1.353 . S
C1271 H1312 0.929 . S
C1272 C1270 1.356 . S
C1272 C1274 1.358 . S
C1272 H1313 0.930 . S
C1273 C1271 1.353 . S
C1273 N1275 1.314 . S
C1273 H1314 0.930 . S
C1274 C1272 1.358 . S
C1274 N1275 1.279 . S
C1274 H1315 0.930 . S
N1275 C1273 1.314 . S
N1275 C1274 1.279 . S
C1276 C1278 1.353 . S
C1276 N1279 1.314 . S
C1276 H1282 0.930 . S
C1277 N1279 1.279 . S
C1277 C1280 1.358 . S
C1277 H1283 0.930 . S
C1278 C1276 1.353 . S
C1278 C1281 1.348 . S
C1278 H1316 0.929 . S
N1279 Li1234 1.990 . S
N1279 C1276 1.314 . S
N1279 C1277 1.279 . S
C1280 C1277 1.358 . S
C1280 C1281 1.356 . S
C1280 H1317 0.930 . S
C1281 C1278 1.348 . S
C1281 C1280 1.356 . S
H1282 C1276 0.930 . S
H1283 C1277 0.930 . S
C1284 N1285 1.314 . S
C1284 C1286 1.353 . S
C1284 H1290 0.930 . S
N1285 Li1235 1.990 . S
N1285 C1284 1.314 . S
N1285 C1288 1.279 . S
C1286 C1284 1.353 . S
C1286 C1289 1.348 . S
C1286 H1318 0.929 . S
C1287 C1288 1.358 . S
C1287 C1289 1.356 . S
C1287 H1319 0.930 . S
C1288 N1285 1.279 . S
C1288 C1287 1.358 . S
C1288 H1291 0.930 . S
C1289 C1286 1.348 . S
C1289 C1287 1.356 . S
H1290 C1284 0.930 . S
H1291 C1288 0.930 . S
O1292 Li1232 1.956 . S
O1292 Li1233 1.970 . S
O1292 Li1234 1.961 . S
O1292 C1236 1.325 . S
O1293 Li1232 1.970 . S
O1293 Li1233 1.956 . S
O1293 Li1235 1.961 . S
O1293 C1242 1.325 . S
O1294 Li1232 1.961 . S
O1294 Li1234 1.956 . S
O1294 Li1235 1.970 . S
O1294 C1264 1.325 . S
O1295 Li1233 1.961 . S
O1295 Li1234 1.970 . S
O1295 Li1235 1.956 . S
O1295 C1270 1.325 . S
H1296 C1238 0.929 . S
H1297 C1239 0.930 . S
H1298 C1240 0.930 . S
H1299 C1241 0.930 . S
H1300 C1243 0.930 . S
H1301 C1245 0.929 . S
H1302 C1246 0.930 . S
H1303 C1247 0.930 . S
H1304 C1250 0.930 . S
H1305 C1253 0.929 . S
H1306 C1258 0.929 . S
H1307 C1259 0.930 . S
H1308 C1266 0.929 . S
H1309 C1267 0.930 . S
H1310 C1268 0.930 . S
H1311 C1269 0.930 . S
H1312 C1271 0.929 . S
H1313 C1272 0.930 . S
H1314 C1273 0.930 . S
H1315 C1274 0.930 . S
H1316 C1278 0.929 . S
H1317 C1280 0.930 . S
H1318 C1286 0.929 . S
H1319 C1287 0.930 . S
Li1320 N1337 1.990 . S
Li1320 O1380 1.956 . S
Li1320 O1381 1.970 . S
Li1320 O1382 1.961 . S
Li1321 N1345 1.990 . S
Li1321 O1380 1.970 . S
Li1321 O1381 1.956 . S
Li1321 O1383 1.961 . S
Li1322 N1367 1.990 . S
Li1322 O1380 1.961 . S
Li1322 O1382 1.956 . S
Li1322 O1383 1.970 . S
Li1323 N1373 1.990 . S
Li1323 O1381 1.961 . S
Li1323 O1382 1.970 . S
Li1323 O1383 1.956 . S
C1324 C1326 1.348 . S
C1324 C1327 1.356 . S
C1324 O1380 1.325 . S
N1325 C1328 1.314 . S
N1325 C1329 1.279 . S
C1326 C1324 1.348 . S
C1326 C1328 1.353 . S
C1326 H1384 0.929 . S
C1327 C1324 1.356 . S
C1327 C1329 1.358 . S
C1327 H1385 0.930 . S
C1328 N1325 1.314 . S
C1328 C1326 1.353 . S
C1328 H1386 0.930 . S
C1329 N1325 1.279 . S
C1329 C1327 1.358 . S
C1329 H1387 0.930 . S
C1330 C1333 1.348 . S
C1330 C1334 1.356 . S
C1330 O1381 1.325 . S
C1331 N1332 1.279 . S
C1331 C1334 1.358 . S
C1331 H1388 0.930 . S
N1332 C1331 1.279 . S
N1332 C1335 1.314 . S
C1333 C1330 1.348 . S
C1333 C1335 1.353 . S
C1333 H1389 0.929 . S
C1334 C1330 1.356 . S
C1334 C1331 1.358 . S
C1334 H1390 0.930 . S
C1335 N1332 1.314 . S
C1335 C1333 1.353 . S
C1335 H1391 0.930 . S
C1336 N1337 1.314 . S
C1336 C1341 1.353 . S
C1336 H1342 0.930 . S
N1337 Li1320 1.990 . S
N1337 C1336 1.314 . S
N1337 C1339 1.279 . S
C1338 C1339 1.358 . S
C1338 C1340 1.356 . S
C1338 H1392 0.930 . S
C1339 N1337 1.279 . S
C1339 C1338 1.358 . S
C1339 H1343 0.930 . S
C1340 C1338 1.356 . S
C1340 C1341 1.348 . S
C1341 C1336 1.353 . S
C1341 C1340 1.348 . S
C1341 H1393 0.929 . S
H1342 C1336 0.930 . S
H1343 C1339 0.930 . S
C1344 N1345 1.314 . S
C1344 C1346 1.353 . S
C1344 H1350 0.930 . S
N1345 Li1321 1.990 . S
N1345 C1344 1.314 . S
N1345 C1348 1.279 . S
C1346 C1344 1.353 . S
C1346 C1349 1.348 . S
C1346 H1394 0.929 . S
C1347 C1348 1.358 . S
C1347 C1349 1.356 . S
C1347 H1395 0.930 . S
C1348 N1345 1.279 . S
C1348 C1347 1.358 . S
C1348 H1351 0.930 . S
C1349 C1346 1.348 . S
C1349 C1347 1.356 . S
H1350 C1344 0.930 . S
H1351 C1348 0.930 . S
C1352 C1354 1.348 . S
C1352 C1355 1.356 . S
C1352 O1382 1.325 . S
N1353 C1356 1.314 . S
N1353 C1357 1.279 . S
C1354 C1352 1.348 . S
C1354 C1356 1.353 . S
C1354 H1396 0.929 . S
C1355 C1352 1.356 . S
C1355 C1357 1.358 . S
C1355 H1397 0.930 . S
C1356 N1353 1.314 . S
C1356 C1354 1.353 . S
C1356 H1398 0.930 . S
C1357 N1353 1.279 . S
C1357 C1355 1.358 . S
C1357 H1399 0.930 . S
C1358 C1359 1.348 . S
C1358 C1360 1.356 . S
C1358 O1383 1.325 . S
C1359 C1358 1.348 . S
C1359 C1361 1.353 . S
C1359 H1400 0.929 . S
C1360 C1358 1.356 . S
C1360 C1362 1.358 . S
C1360 H1401 0.930 . S
C1361 C1359 1.353 . S
C1361 N1363 1.314 . S
C1361 H1402 0.930 . S
C1362 C1360 1.358 . S
C1362 N1363 1.279 . S
C1362 H1403 0.930 . S
N1363 C1361 1.314 . S
N1363 C1362 1.279 . S
C1364 C1366 1.353 . S
C1364 N1367 1.314 . S
C1364 H1370 0.930 . S
C1365 N1367 1.279 . S
C1365 C1368 1.358 . S
C1365 H1371 0.930 . S
C1366 C1364 1.353 . S
C1366 C1369 1.348 . S
C1366 H1404 0.929 . S
N1367 Li1322 1.990 . S
N1367 C1364 1.314 . S
N1367 C1365 1.279 . S
C1368 C1365 1.358 . S
C1368 C1369 1.356 . S
C1368 H1405 0.930 . S
C1369 C1366 1.348 . S
C1369 C1368 1.356 . S
H1370 C1364 0.930 . S
H1371 C1365 0.930 . S
C1372 N1373 1.314 . S
C1372 C1374 1.353 . S
C1372 H1378 0.930 . S
N1373 Li1323 1.990 . S
N1373 C1372 1.314 . S
N1373 C1376 1.279 . S
C1374 C1372 1.353 . S
C1374 C1377 1.348 . S
C1374 H1406 0.929 . S
C1375 C1376 1.358 . S
C1375 C1377 1.356 . S
C1375 H1407 0.930 . S
C1376 N1373 1.279 . S
C1376 C1375 1.358 . S
C1376 H1379 0.930 . S
C1377 C1374 1.348 . S
C1377 C1375 1.356 . S
H1378 C1372 0.930 . S
H1379 C1376 0.930 . S
O1380 Li1320 1.956 . S
O1380 Li1321 1.970 . S
O1380 Li1322 1.961 . S
O1380 C1324 1.325 . S
O1381 Li1320 1.970 . S
O1381 Li1321 1.956 . S
O1381 Li1323 1.961 . S
O1381 C1330 1.325 . S
O1382 Li1320 1.961 . S
O1382 Li1322 1.956 . S
O1382 Li1323 1.970 . S
O1382 C1352 1.325 . S
O1383 Li1321 1.961 . S
O1383 Li1322 1.970 . S
O1383 Li1323 1.956 . S
O1383 C1358 1.325 . S
H1384 C1326 0.929 . S
H1385 C1327 0.930 . S
H1386 C1328 0.930 . S
H1387 C1329 0.930 . S
H1388 C1331 0.930 . S
H1389 C1333 0.929 . S
H1390 C1334 0.930 . S
H1391 C1335 0.930 . S
H1392 C1338 0.930 . S
H1393 C1341 0.929 . S
H1394 C1346 0.929 . S
H1395 C1347 0.930 . S
H1396 C1354 0.929 . S
H1397 C1355 0.930 . S
H1398 C1356 0.930 . S
H1399 C1357 0.930 . S
H1400 C1359 0.929 . S
H1401 C1360 0.930 . S
H1402 C1361 0.930 . S
H1403 C1362 0.930 . S
H1404 C1366 0.929 . S
H1405 C1368 0.930 . S
H1406 C1374 0.929 . S
H1407 C1375 0.930 . S
Li1408 N1425 1.990 . S
Li1408 O1468 1.956 1_545 S
Li1408 O1469 1.970 . S
Li1408 O1470 1.961 . S
Li1409 N1433 1.990 . S
Li1409 O1468 1.970 . S
Li1409 O1469 1.956 1_565 S
Li1409 O1471 1.961 1_565 S
Li1410 N1455 1.990 . S
Li1410 O1468 1.961 1_545 S
Li1410 O1470 1.956 . S
Li1410 O1471 1.970 . S
Li1411 N1461 1.990 . S
Li1411 O1469 1.961 . S
Li1411 O1470 1.970 . S
Li1411 O1471 1.956 . S
C1412 C1414 1.348 . S
C1412 C1415 1.356 . S
C1412 O1468 1.325 . S
N1413 C1416 1.314 . S
N1413 C1417 1.279 . S
C1414 C1412 1.348 . S
C1414 C1416 1.353 . S
C1414 H1472 0.929 . S
C1415 C1412 1.356 . S
C1415 C1417 1.358 . S
C1415 H1473 0.980 . S
C1416 N1413 1.314 . S
C1416 C1414 1.353 . S
C1416 H1474 0.930 . S
C1417 N1413 1.279 . S
C1417 C1415 1.358 . S
C1417 H1475 0.930 . S
C1418 C1421 1.348 . S
C1418 C1422 1.356 . S
C1418 O1469 1.325 . S
C1419 N1420 1.279 . S
C1419 C1422 1.358 . S
C1419 H1476 0.930 . S
N1420 C1419 1.279 . S
N1420 C1423 1.314 . S
C1421 C1418 1.348 . S
C1421 C1423 1.353 . S
C1421 H1477 0.929 . S
C1422 C1418 1.356 . S
C1422 C1419 1.358 . S
C1422 H1478 0.930 . S
C1423 N1420 1.314 . S
C1423 C1421 1.353 . S
C1423 H1479 0.930 . S
C1424 N1425 1.314 . S
C1424 C1429 1.353 . S
C1424 H1430 0.930 . S
N1425 Li1408 1.990 . S
N1425 C1424 1.314 . S
N1425 C1427 1.279 . S
C1426 C1427 1.358 . S
C1426 C1428 1.356 . S
C1426 H1480 0.939 . S
C1427 N1425 1.279 . S
C1427 C1426 1.358 . S
C1427 H1431 0.930 1_545 S
C1428 C1426 1.356 . S
C1428 C1429 1.348 . S
C1429 C1424 1.353 . S
C1429 C1428 1.348 . S
C1429 H1481 0.929 . S
H1430 C1424 0.930 . S
H1431 C1427 0.930 1_565 S
C1432 N1433 1.314 . S
C1432 C1434 1.353 . S
C1432 H1438 0.930 . S
N1433 Li1409 1.990 . S
N1433 C1432 1.314 . S
N1433 C1436 1.279 . S
C1434 C1432 1.353 . S
C1434 C1437 1.348 . S
C1434 H1482 0.929 . S
C1435 C1436 1.358 . S
C1435 C1437 1.356 . S
C1435 H1483 0.930 . S
C1436 N1433 1.279 . S
C1436 C1435 1.358 . S
C1436 H1439 0.930 . S
C1437 C1434 1.348 . S
C1437 C1435 1.356 . S
H1438 C1432 0.930 . S
H1439 C1436 0.930 . S
C1440 C1442 1.348 . S
C1440 C1443 1.356 . S
C1440 O1470 1.325 . S
N1441 C1444 1.314 . S
N1441 C1445 1.279 . S
C1442 C1440 1.348 . S
C1442 C1444 1.353 . S
C1442 H1484 0.929 . S
C1443 C1440 1.356 . S
C1443 C1445 1.358 . S
C1443 H1485 0.930 . S
C1444 N1441 1.314 . S
C1444 C1442 1.353 . S
C1444 H1486 0.930 . S
C1445 N1441 1.279 . S
C1445 C1443 1.358 . S
C1445 H1487 0.930 . S
C1446 C1447 1.348 . S
C1446 C1448 1.356 . S
C1446 O1471 1.325 . S
C1447 C1446 1.348 . S
C1447 C1449 1.353 . S
C1447 H1488 0.929 . S
C1448 C1446 1.356 . S
C1448 C1450 1.358 . S
C1448 H1489 0.930 . S
C1449 C1447 1.353 . S
C1449 N1451 1.314 . S
C1449 H1490 0.930 . S
C1450 C1448 1.358 . S
C1450 N1451 1.279 . S
C1450 H1491 0.929 1_545 S
N1451 C1449 1.314 . S
N1451 C1450 1.279 . S
C1452 C1454 1.353 . S
C1452 N1455 1.314 . S
C1452 H1458 0.930 1_545 S
C1453 N1455 1.279 . S
C1453 C1456 1.358 . S
C1453 H1459 0.930 . S
C1454 C1452 1.353 . S
C1454 C1457 1.348 . S
C1454 H1492 0.929 1_545 S
N1455 Li1410 1.990 . S
N1455 C1452 1.314 . S
N1455 C1453 1.279 . S
C1456 C1453 1.358 . S
C1456 C1457 1.356 . S
C1456 H1493 0.930 . S
C1457 C1454 1.348 . S
C1457 C1456 1.356 . S
H1458 C1452 0.930 1_565 S
H1459 C1453 0.930 . S
C1460 N1461 1.314 . S
C1460 C1462 1.353 . S
C1460 H1466 0.930 . S
N1461 Li1411 1.990 . S
N1461 C1460 1.314 . S
N1461 C1464 1.279 . S
C1462 C1460 1.353 . S
C1462 C1465 1.348 . S
C1462 H1494 0.929 . S
C1463 C1464 1.358 . S
C1463 C1465 1.356 . S
C1463 H1495 0.930 . S
C1464 N1461 1.279 . S
C1464 C1463 1.358 . S
C1464 H1467 0.930 . S
C1465 C1462 1.348 . S
C1465 C1463 1.356 . S
H1466 C1460 0.930 . S
H1467 C1464 0.930 . S
O1468 Li1408 1.956 1_565 S
O1468 Li1409 1.970 . S
O1468 Li1410 1.961 1_565 S
O1468 C1412 1.325 . S
O1469 Li1408 1.970 . S
O1469 Li1409 1.956 1_545 S
O1469 Li1411 1.961 . S
O1469 C1418 1.325 . S
O1470 Li1408 1.961 . S
O1470 Li1410 1.956 . S
O1470 Li1411 1.970 . S
O1470 C1440 1.325 . S
O1471 Li1409 1.961 1_545 S
O1471 Li1410 1.970 . S
O1471 Li1411 1.956 . S
O1471 C1446 1.325 . S
H1472 C1414 0.929 . S
H1473 C1415 0.980 . S
H1474 C1416 0.930 . S
H1475 C1417 0.930 . S
H1476 C1419 0.930 . S
H1477 C1421 0.929 . S
H1478 C1422 0.930 . S
H1479 C1423 0.930 . S
H1480 C1426 0.939 . S
H1481 C1429 0.929 . S
H1482 C1434 0.929 . S
H1483 C1435 0.930 . S
H1484 C1442 0.929 . S
H1485 C1443 0.930 . S
H1486 C1444 0.930 . S
H1487 C1445 0.930 . S
H1488 C1447 0.929 . S
H1489 C1448 0.930 . S
H1490 C1449 0.930 . S
H1491 C1450 0.929 1_565 S
H1492 C1454 0.929 1_565 S
H1493 C1456 0.930 . S
H1494 C1462 0.929 . S
H1495 C1463 0.930 . S
Li1496 N1513 1.990 . S
Li1496 O1556 1.956 . S
Li1496 O1557 1.970 . S
Li1496 O1558 1.961 . S
Li1497 N1521 1.990 . S
Li1497 O1556 1.970 . S
Li1497 O1557 1.956 . S
Li1497 O1559 1.961 . S
Li1498 N1543 1.990 . S
Li1498 O1556 1.961 . S
Li1498 O1558 1.956 . S
Li1498 O1559 1.970 . S
Li1499 N1549 1.990 . S
Li1499 O1557 1.961 . S
Li1499 O1558 1.970 . S
Li1499 O1559 1.956 . S
C1500 C1502 1.348 . S
C1500 C1503 1.356 . S
C1500 O1556 1.325 . S
N1501 C1504 1.314 . S
N1501 C1505 1.279 . S
C1502 C1500 1.348 . S
C1502 C1504 1.353 . S
C1502 H1560 0.929 . S
C1503 C1500 1.356 . S
C1503 C1505 1.358 . S
C1503 H1561 0.930 . S
C1504 N1501 1.314 . S
C1504 C1502 1.353 . S
C1504 H1562 0.930 . S
C1505 N1501 1.279 . S
C1505 C1503 1.358 . S
C1505 H1563 0.930 . S
C1506 C1509 1.348 . S
C1506 C1510 1.356 . S
C1506 O1557 1.325 . S
C1507 N1508 1.279 . S
C1507 C1510 1.358 . S
C1507 H1564 0.930 . S
N1508 C1507 1.279 . S
N1508 C1511 1.314 . S
C1509 C1506 1.348 . S
C1509 C1511 1.353 . S
C1509 H1565 0.929 . S
C1510 C1506 1.356 . S
C1510 C1507 1.358 . S
C1510 H1566 0.930 . S
C1511 N1508 1.314 . S
C1511 C1509 1.353 . S
C1511 H1567 0.930 . S
C1512 N1513 1.314 . S
C1512 C1517 1.353 . S
C1512 H1518 0.930 . S
N1513 Li1496 1.990 . S
N1513 C1512 1.314 . S
N1513 C1515 1.279 . S
C1514 C1515 1.358 . S
C1514 C1516 1.356 . S
C1514 H1568 0.930 . S
C1515 N1513 1.279 . S
C1515 C1514 1.358 . S
C1515 H1519 0.930 . S
C1516 C1514 1.356 . S
C1516 C1517 1.348 . S
C1517 C1512 1.353 . S
C1517 C1516 1.348 . S
C1517 H1569 0.929 . S
H1518 C1512 0.930 . S
H1519 C1515 0.930 . S
C1520 N1521 1.314 . S
C1520 C1522 1.353 . S
C1520 H1526 0.930 . S
N1521 Li1497 1.990 . S
N1521 C1520 1.314 . S
N1521 C1524 1.279 . S
C1522 C1520 1.353 . S
C1522 C1525 1.348 . S
C1522 H1570 0.929 . S
C1523 C1524 1.358 . S
C1523 C1525 1.356 . S
C1523 H1571 0.930 . S
C1524 N1521 1.279 . S
C1524 C1523 1.358 . S
C1524 H1527 0.930 . S
C1525 C1522 1.348 . S
C1525 C1523 1.356 . S
H1526 C1520 0.930 . S
H1527 C1524 0.930 . S
C1528 C1530 1.348 . S
C1528 C1531 1.356 . S
C1528 O1558 1.325 . S
N1529 C1532 1.314 . S
N1529 C1533 1.279 . S
C1530 C1528 1.348 . S
C1530 C1532 1.353 . S
C1530 H1572 0.929 . S
C1531 C1528 1.356 . S
C1531 C1533 1.358 . S
C1531 H1573 0.930 . S
C1532 N1529 1.314 . S
C1532 C1530 1.353 . S
C1532 H1574 0.930 . S
C1533 N1529 1.279 . S
C1533 C1531 1.358 . S
C1533 H1575 0.930 . S
C1534 C1535 1.348 . S
C1534 C1536 1.356 . S
C1534 O1559 1.325 . S
C1535 C1534 1.348 . S
C1535 C1537 1.353 . S
C1535 H1576 0.929 . S
C1536 C1534 1.356 . S
C1536 C1538 1.358 . S
C1536 H1577 0.930 . S
C1537 C1535 1.353 . S
C1537 N1539 1.314 . S
C1537 H1578 0.930 . S
C1538 C1536 1.358 . S
C1538 N1539 1.279 . S
C1538 H1579 0.930 . S
N1539 C1537 1.314 . S
N1539 C1538 1.279 . S
C1540 C1542 1.353 . S
C1540 N1543 1.314 . S
C1540 H1546 0.930 . S
C1541 N1543 1.279 . S
C1541 C1544 1.358 . S
C1541 H1547 0.930 . S
C1542 C1540 1.353 . S
C1542 C1545 1.348 . S
C1542 H1580 0.929 . S
N1543 Li1498 1.990 . S
N1543 C1540 1.314 . S
N1543 C1541 1.279 . S
C1544 C1541 1.358 . S
C1544 C1545 1.356 . S
C1544 H1581 0.930 . S
C1545 C1542 1.348 . S
C1545 C1544 1.356 . S
H1546 C1540 0.930 . S
H1547 C1541 0.930 . S
C1548 N1549 1.314 . S
C1548 C1550 1.353 . S
C1548 H1554 0.930 . S
N1549 Li1499 1.990 . S
N1549 C1548 1.314 . S
N1549 C1552 1.279 . S
C1550 C1548 1.353 . S
C1550 C1553 1.348 . S
C1550 H1582 0.929 . S
C1551 C1552 1.358 . S
C1551 C1553 1.356 . S
C1551 H1583 0.930 . S
C1552 N1549 1.279 . S
C1552 C1551 1.358 . S
C1552 H1555 0.930 . S
C1553 C1550 1.348 . S
C1553 C1551 1.356 . S
H1554 C1548 0.930 . S
H1555 C1552 0.930 . S
O1556 Li1496 1.956 . S
O1556 Li1497 1.970 . S
O1556 Li1498 1.961 . S
O1556 C1500 1.325 . S
O1557 Li1496 1.970 . S
O1557 Li1497 1.956 . S
O1557 Li1499 1.961 . S
O1557 C1506 1.325 . S
O1558 Li1496 1.961 . S
O1558 Li1498 1.956 . S
O1558 Li1499 1.970 . S
O1558 C1528 1.325 . S
O1559 Li1497 1.961 . S
O1559 Li1498 1.970 . S
O1559 Li1499 1.956 . S
O1559 C1534 1.325 . S
H1560 C1502 0.929 . S
H1561 C1503 0.930 . S
H1562 C1504 0.930 . S
H1563 C1505 0.930 . S
H1564 C1507 0.930 . S
H1565 C1509 0.929 . S
H1566 C1510 0.930 . S
H1567 C1511 0.930 . S
H1568 C1514 0.930 . S
H1569 C1517 0.929 . S
H1570 C1522 0.929 . S
H1571 C1523 0.930 . S
H1572 C1530 0.929 . S
H1573 C1531 0.930 . S
H1574 C1532 0.930 . S
H1575 C1533 0.930 . S
H1576 C1535 0.929 . S
H1577 C1536 0.930 . S
H1578 C1537 0.930 . S
H1579 C1538 0.930 . S
H1580 C1542 0.929 . S
H1581 C1544 0.930 . S
H1582 C1550 0.929 . S
H1583 C1551 0.930 . S
Li1584 N1601 1.990 . S
Li1584 O1644 1.956 . S
Li1584 O1645 1.970 . S
Li1584 O1646 1.961 . S
Li1585 N1609 1.990 . S
Li1585 O1644 1.970 . S
Li1585 O1645 1.956 . S
Li1585 O1647 1.961 . S
Li1586 N1631 1.990 . S
Li1586 O1644 1.961 . S
Li1586 O1646 1.956 . S
Li1586 O1647 1.970 . S
Li1587 N1637 1.990 . S
Li1587 O1645 1.961 . S
Li1587 O1646 1.970 . S
Li1587 O1647 1.956 . S
C1588 C1590 1.348 . S
C1588 C1591 1.356 . S
C1588 O1644 1.325 . S
N1589 C1592 1.314 . S
N1589 C1593 1.279 . S
C1590 C1588 1.348 . S
C1590 C1592 1.353 . S
C1590 H1648 0.929 . S
C1591 C1588 1.356 . S
C1591 C1593 1.358 . S
C1591 H1649 0.930 . S
C1592 N1589 1.314 . S
C1592 C1590 1.353 . S
C1592 H1650 0.930 . S
C1593 N1589 1.279 . S
C1593 C1591 1.358 . S
C1593 H1651 0.930 . S
C1594 C1597 1.348 . S
C1594 C1598 1.356 . S
C1594 O1645 1.325 . S
C1595 N1596 1.279 . S
C1595 C1598 1.358 . S
C1595 H1652 0.930 . S
N1596 C1595 1.279 . S
N1596 C1599 1.314 . S
C1597 C1594 1.348 . S
C1597 C1599 1.353 . S
C1597 H1653 0.929 . S
C1598 C1594 1.356 . S
C1598 C1595 1.358 . S
C1598 H1654 0.930 . S
C1599 N1596 1.314 . S
C1599 C1597 1.353 . S
C1599 H1655 0.930 . S
C1600 N1601 1.314 . S
C1600 C1605 1.353 . S
C1600 H1606 0.930 . S
N1601 Li1584 1.990 . S
N1601 C1600 1.314 . S
N1601 C1603 1.279 . S
C1602 C1603 1.358 . S
C1602 C1604 1.356 . S
C1602 H1656 0.930 . S
C1603 N1601 1.279 . S
C1603 C1602 1.358 . S
C1603 H1607 0.930 . S
C1604 C1602 1.356 . S
C1604 C1605 1.348 . S
C1605 C1600 1.353 . S
C1605 C1604 1.348 . S
C1605 H1657 0.929 . S
H1606 C1600 0.930 . S
H1607 C1603 0.930 . S
C1608 N1609 1.314 . S
C1608 C1610 1.353 . S
C1608 H1614 0.930 . S
N1609 Li1585 1.990 . S
N1609 C1608 1.314 . S
N1609 C1612 1.279 . S
C1610 C1608 1.353 . S
C1610 C1613 1.348 . S
C1610 H1658 0.929 . S
C1611 C1612 1.358 . S
C1611 C1613 1.356 . S
C1611 H1659 0.930 . S
C1612 N1609 1.279 . S
C1612 C1611 1.358 . S
C1612 H1615 0.930 . S
C1613 C1610 1.348 . S
C1613 C1611 1.356 . S
H1614 C1608 0.930 . S
H1615 C1612 0.930 . S
C1616 C1618 1.348 . S
C1616 C1619 1.356 . S
C1616 O1646 1.325 . S
N1617 C1620 1.314 . S
N1617 C1621 1.279 . S
C1618 C1616 1.348 . S
C1618 C1620 1.353 . S
C1618 H1660 0.929 . S
C1619 C1616 1.356 . S
C1619 C1621 1.358 . S
C1619 H1661 0.930 . S
C1620 N1617 1.314 . S
C1620 C1618 1.353 . S
C1620 H1662 0.930 . S
C1621 N1617 1.279 . S
C1621 C1619 1.358 . S
C1621 H1663 0.930 . S
C1622 C1623 1.348 . S
C1622 C1624 1.356 . S
C1622 O1647 1.325 . S
C1623 C1622 1.348 . S
C1623 C1625 1.353 . S
C1623 H1664 0.929 . S
C1624 C1622 1.356 . S
C1624 C1626 1.358 . S
C1624 H1665 0.930 . S
C1625 C1623 1.353 . S
C1625 N1627 1.314 . S
C1625 H1666 0.930 . S
C1626 C1624 1.358 . S
C1626 N1627 1.279 . S
C1626 H1667 0.930 . S
N1627 C1625 1.314 . S
N1627 C1626 1.279 . S
C1628 C1630 1.353 . S
C1628 N1631 1.314 . S
C1628 H1634 0.930 . S
C1629 N1631 1.279 . S
C1629 C1632 1.358 . S
C1629 H1635 0.930 . S
C1630 C1628 1.353 . S
C1630 C1633 1.348 . S
C1630 H1668 0.929 . S
N1631 Li1586 1.990 . S
N1631 C1628 1.314 . S
N1631 C1629 1.279 . S
C1632 C1629 1.358 . S
C1632 C1633 1.356 . S
C1632 H1669 0.930 . S
C1633 C1630 1.348 . S
C1633 C1632 1.356 . S
H1634 C1628 0.930 . S
H1635 C1629 0.930 . S
C1636 N1637 1.314 . S
C1636 C1638 1.353 . S
C1636 H1642 0.930 . S
N1637 Li1587 1.990 . S
N1637 C1636 1.314 . S
N1637 C1640 1.279 . S
C1638 C1636 1.353 . S
C1638 C1641 1.348 . S
C1638 H1670 0.929 . S
C1639 C1640 1.358 . S
C1639 C1641 1.356 . S
C1639 H1671 0.930 . S
C1640 N1637 1.279 . S
C1640 C1639 1.358 . S
C1640 H1643 0.930 . S
C1641 C1638 1.348 . S
C1641 C1639 1.356 . S
H1642 C1636 0.930 . S
H1643 C1640 0.930 . S
O1644 Li1584 1.956 . S
O1644 Li1585 1.970 . S
O1644 Li1586 1.961 . S
O1644 C1588 1.325 . S
O1645 Li1584 1.970 . S
O1645 Li1585 1.956 . S
O1645 Li1587 1.961 . S
O1645 C1594 1.325 . S
O1646 Li1584 1.961 . S
O1646 Li1586 1.956 . S
O1646 Li1587 1.970 . S
O1646 C1616 1.325 . S
O1647 Li1585 1.961 . S
O1647 Li1586 1.970 . S
O1647 Li1587 1.956 . S
O1647 C1622 1.325 . S
H1648 C1590 0.929 . S
H1649 C1591 0.930 . S
H1650 C1592 0.930 . S
H1651 C1593 0.930 . S
H1652 C1595 0.930 . S
H1653 C1597 0.929 . S
H1654 C1598 0.930 . S
H1655 C1599 0.930 . S
H1656 C1602 0.930 . S
H1657 C1605 0.929 . S
H1658 C1610 0.929 . S
H1659 C1611 0.930 . S
H1660 C1618 0.929 . S
H1661 C1619 0.930 . S
H1662 C1620 0.930 . S
H1663 C1621 0.930 . S
H1664 C1623 0.929 . S
H1665 C1624 0.930 . S
H1666 C1625 0.930 . S
H1667 C1626 0.930 . S
H1668 C1630 0.929 . S
H1669 C1632 0.930 . S
H1670 C1638 0.929 . S
H1671 C1639 0.930 . S
Li1672 N1689 1.990 . S
Li1672 O1732 1.956 . S
Li1672 O1733 1.970 . S
Li1672 O1734 1.961 . S
Li1673 N1697 1.990 . S
Li1673 O1732 1.970 . S
Li1673 O1733 1.956 . S
Li1673 O1735 1.961 . S
Li1674 N1719 1.990 . S
Li1674 O1732 1.961 . S
Li1674 O1734 1.956 . S
Li1674 O1735 1.970 . S
Li1675 N1725 2.014 . S
Li1675 O1733 1.961 . S
Li1675 O1734 1.970 . S
Li1675 O1735 1.956 . S
C1676 C1678 1.348 . S
C1676 C1679 1.356 . S
C1676 O1732 1.325 . S
N1677 C1680 1.314 . S
N1677 C1681 1.279 . S
C1678 C1676 1.348 . S
C1678 C1680 1.353 . S
C1678 H1736 0.929 . S
C1679 C1676 1.356 . S
C1679 C1681 1.358 . S
C1679 H1737 0.930 . S
C1680 N1677 1.314 . S
C1680 C1678 1.353 . S
C1680 H1738 0.930 . S
C1681 N1677 1.279 . S
C1681 C1679 1.358 . S
C1681 H1739 0.930 . S
C1682 C1685 1.348 . S
C1682 C1686 1.356 . S
C1682 O1733 1.325 . S
C1683 N1684 1.279 . S
C1683 C1686 1.358 . S
C1683 H1740 0.930 . S
N1684 C1683 1.279 . S
N1684 C1687 1.314 . S
C1685 C1682 1.348 . S
C1685 C1687 1.353 . S
C1685 H1741 0.929 . S
C1686 C1682 1.356 . S
C1686 C1683 1.358 . S
C1686 H1742 0.930 . S
C1687 N1684 1.314 . S
C1687 C1685 1.353 . S
C1687 H1743 0.930 . S
C1688 N1689 1.314 . S
C1688 C1693 1.353 . S
C1688 H1694 0.930 . S
N1689 Li1672 1.990 . S
N1689 C1688 1.314 . S
N1689 C1691 1.279 . S
C1690 C1691 1.358 . S
C1690 C1692 1.356 . S
C1690 H1744 0.930 . S
C1691 N1689 1.279 . S
C1691 C1690 1.358 . S
C1691 H1695 0.930 . S
C1692 C1690 1.356 . S
C1692 C1693 1.348 . S
C1693 C1688 1.353 . S
C1693 C1692 1.348 . S
C1693 H1745 0.929 . S
H1694 C1688 0.930 . S
H1695 C1691 0.930 . S
C1696 N1697 1.314 . S
C1696 C1698 1.353 . S
C1696 H1702 0.930 . S
N1697 Li1673 1.990 . S
N1697 C1696 1.314 . S
N1697 C1700 1.279 . S
C1698 C1696 1.353 . S
C1698 C1701 1.348 . S
C1698 H1746 0.929 . S
C1699 C1700 1.358 . S
C1699 C1701 1.356 . S
C1699 H1747 0.930 . S
C1700 N1697 1.279 . S
C1700 C1699 1.358 . S
C1700 H1703 0.930 . S
C1701 C1698 1.348 . S
C1701 C1699 1.356 . S
H1702 C1696 0.930 . S
H1703 C1700 0.930 . S
C1704 C1706 1.415 . S
C1704 C1707 1.350 . S
C1704 O1734 1.270 1_565 S
N1705 C1708 1.314 . S
N1705 C1709 1.279 . S
C1706 C1704 1.415 . S
C1706 C1708 1.353 . S
C1706 H1748 0.929 . S
C1707 C1704 1.350 . S
C1707 C1709 1.358 . S
C1707 H1749 0.930 1_565 S
C1708 N1705 1.314 . S
C1708 C1706 1.353 . S
C1708 H1750 0.930 . S
C1709 N1705 1.279 . S
C1709 C1707 1.358 . S
C1709 H1751 0.930 . S
C1710 C1711 1.348 . S
C1710 C1712 1.356 . S
C1710 O1735 1.325 . S
C1711 C1710 1.348 . S
C1711 C1713 1.353 . S
C1711 H1752 0.929 . S
C1712 C1710 1.356 . S
C1712 C1714 1.358 . S
C1712 H1753 0.930 . S
C1713 C1711 1.353 . S
C1713 N1715 1.314 . S
C1713 H1754 0.930 . S
C1714 C1712 1.358 . S
C1714 N1715 1.279 . S
C1714 H1755 0.930 . S
N1715 C1713 1.314 . S
N1715 C1714 1.279 . S
C1716 C1718 1.353 . S
C1716 N1719 1.314 . S
C1716 H1722 0.930 . S
C1717 N1719 1.279 . S
C1717 C1720 1.358 . S
C1717 H1723 0.930 . S
C1718 C1716 1.353 . S
C1718 C1721 1.348 . S
C1718 H1756 0.929 . S
N1719 Li1674 1.990 . S
N1719 C1716 1.314 . S
N1719 C1717 1.279 . S
C1720 C1717 1.358 . S
C1720 C1721 1.356 . S
C1720 H1757 0.944 . S
C1721 C1718 1.348 . S
C1721 C1720 1.356 . S
H1722 C1716 0.930 . S
H1723 C1717 0.930 . S
C1724 N1725 1.297 1_565 S
C1724 C1726 1.353 . S
C1724 H1730 0.930 . S
N1725 Li1675 2.014 . S
N1725 C1724 1.297 1_545 S
N1725 C1728 1.269 1_545 S
C1726 C1724 1.353 . S
C1726 C1729 1.348 . S
C1726 H1758 0.929 . S
C1727 C1728 1.358 . S
C1727 C1729 1.356 . S
C1727 H1759 0.930 . S
C1728 N1725 1.269 1_565 S
C1728 C1727 1.358 . S
C1728 H1731 0.935 1_565 S
C1729 C1726 1.348 . S
C1729 C1727 1.356 . S
H1730 C1724 0.930 . S
H1731 C1728 0.935 1_545 S
O1732 Li1672 1.956 . S
O1732 Li1673 1.970 . S
O1732 Li1674 1.961 . S
O1732 C1676 1.325 . S
O1733 Li1672 1.970 . S
O1733 Li1673 1.956 . S
O1733 Li1675 1.961 . S
O1733 C1682 1.325 . S
O1734 Li1672 1.961 . S
O1734 Li1674 1.956 . S
O1734 Li1675 1.970 . S
O1734 C1704 1.270 1_545 S
O1735 Li1673 1.961 . S
O1735 Li1674 1.970 . S
O1735 Li1675 1.956 . S
O1735 C1710 1.325 . S
H1736 C1678 0.929 . S
H1737 C1679 0.930 . S
H1738 C1680 0.930 . S
H1739 C1681 0.930 . S
H1740 C1683 0.930 . S
H1741 C1685 0.929 . S
H1742 C1686 0.930 . S
H1743 C1687 0.930 . S
H1744 C1690 0.930 . S
H1745 C1693 0.929 . S
H1746 C1698 0.929 . S
H1747 C1699 0.930 . S
H1748 C1706 0.929 . S
H1749 C1707 0.930 1_545 S
H1750 C1708 0.930 . S
H1751 C1709 0.930 . S
H1752 C1711 0.929 . S
H1753 C1712 0.930 . S
H1754 C1713 0.930 . S
H1755 C1714 0.930 . S
H1756 C1718 0.929 . S
H1757 C1720 0.944 . S
H1758 C1726 0.929 . S
H1759 C1727 0.930 . S
Li1760 N1777 1.990 . S
Li1760 O1820 1.956 . S
Li1760 O1821 1.970 . S
Li1760 O1822 1.961 . S
Li1761 N1785 1.990 . S
Li1761 O1820 1.970 . S
Li1761 O1821 1.956 . S
Li1761 O1823 1.961 1_554 S
Li1762 N1807 1.990 . S
Li1762 O1820 1.961 1_556 S
Li1762 O1822 1.956 1_556 S
Li1762 O1823 1.970 . S
Li1763 N1813 1.991 1_554 S
Li1763 O1821 1.961 . S
Li1763 O1822 1.970 . S
Li1763 O1823 1.956 1_554 S
C1764 C1766 1.348 . S
C1764 C1767 1.356 . S
C1764 O1820 1.325 . S
N1765 C1768 1.314 . S
N1765 C1769 1.279 . S
C1766 C1764 1.348 . S
C1766 C1768 1.353 . S
C1766 H1824 0.929 . S
C1767 C1764 1.356 . S
C1767 C1769 1.358 . S
C1767 H1825 0.930 . S
C1768 N1765 1.314 . S
C1768 C1766 1.353 . S
C1768 H1826 0.930 . S
C1769 N1765 1.279 . S
C1769 C1767 1.358 . S
C1769 H1827 0.930 . S
C1770 C1773 1.348 . S
C1770 C1774 1.356 . S
C1770 O1821 1.325 . S
C1771 N1772 1.279 . S
C1771 C1774 1.358 . S
C1771 H1828 0.930 . S
N1772 C1771 1.279 . S
N1772 C1775 1.314 . S
C1773 C1770 1.348 . S
C1773 C1775 1.353 . S
C1773 H1829 0.929 . S
C1774 C1770 1.356 . S
C1774 C1771 1.358 . S
C1774 H1830 0.930 . S
C1775 N1772 1.314 . S
C1775 C1773 1.353 . S
C1775 H1831 0.930 . S
C1776 N1777 1.314 . S
C1776 C1781 1.353 . S
C1776 H1782 0.930 . S
N1777 Li1760 1.990 . S
N1777 C1776 1.314 . S
N1777 C1779 1.279 . S
C1778 C1779 1.358 . S
C1778 C1780 1.356 . S
C1778 H1832 0.930 . S
C1779 N1777 1.279 . S
C1779 C1778 1.358 . S
C1779 H1783 0.930 . S
C1780 C1778 1.356 . S
C1780 C1781 1.348 . S
C1781 C1776 1.353 . S
C1781 C1780 1.348 . S
C1781 H1833 0.929 . S
H1782 C1776 0.930 . S
H1783 C1779 0.930 . S
C1784 N1785 1.314 1_556 S
C1784 C1786 1.353 . S
C1784 H1790 0.930 . S
N1785 Li1761 1.990 . S
N1785 C1784 1.314 1_554 S
N1785 C1788 1.279 . S
C1786 C1784 1.353 . S
C1786 C1789 1.348 1_556 S
C1786 H1834 0.929 . S
C1787 C1788 1.358 . S
C1787 C1789 1.356 . S
C1787 H1835 0.930 . S
C1788 N1785 1.279 . S
C1788 C1787 1.358 . S
C1788 H1791 0.930 . S
C1789 C1786 1.348 1_554 S
C1789 C1787 1.356 . S
H1790 C1784 0.930 . S
H1791 C1788 0.930 . S
C1792 C1794 1.348 1_554 S
C1792 C1795 1.356 . S
C1792 O1822 1.325 . S
N1793 C1796 1.314 1_554 S
N1793 C1797 1.279 . S
C1794 C1792 1.348 1_556 S
C1794 C1796 1.353 . S
C1794 H1836 0.929 . S
C1795 C1792 1.356 . S
C1795 C1797 1.358 . S
C1795 H1837 0.930 . S
C1796 N1793 1.314 1_556 S
C1796 C1794 1.353 . S
C1796 H1838 0.930 . S
C1797 N1793 1.279 . S
C1797 C1795 1.358 . S
C1797 H1839 0.930 . S
C1798 C1799 1.348 . S
C1798 C1800 1.356 . S
C1798 O1823 1.325 . S
C1799 C1798 1.348 . S
C1799 C1801 1.353 . S
C1799 H1840 0.929 . S
C1800 C1798 1.356 . S
C1800 C1802 1.358 . S
C1800 H1841 0.930 . S
C1801 C1799 1.353 . S
C1801 N1803 1.314 . S
C1801 H1842 0.930 . S
C1802 C1800 1.358 . S
C1802 N1803 1.279 . S
C1802 H1843 0.930 . S
N1803 C1801 1.314 . S
N1803 C1802 1.279 . S
C1804 C1806 1.353 . S
C1804 N1807 1.314 . S
C1804 H1810 0.930 . S
C1805 N1807 1.279 . S
C1805 C1808 1.358 . S
C1805 H1811 0.930 . S
C1806 C1804 1.353 . S
C1806 C1809 1.348 . S
C1806 H1844 0.929 . S
N1807 Li1762 1.990 . S
N1807 C1804 1.314 . S
N1807 C1805 1.279 . S
C1808 C1805 1.358 . S
C1808 C1809 1.356 . S
C1808 H1845 0.930 . S
C1809 C1806 1.348 . S
C1809 C1808 1.356 . S
H1810 C1804 0.930 . S
H1811 C1805 0.930 . S
C1812 N1813 1.297 1_554 S
C1812 C1814 1.353 . S
C1812 H1818 0.930 . S
N1813 Li1763 1.991 1_556 S
N1813 C1812 1.297 1_556 S
N1813 C1816 1.295 . S
C1814 C1812 1.353 . S
C1814 C1817 1.348 1_554 S
C1814 H1846 0.929 . S
C1815 C1816 1.358 . S
C1815 C1817 1.356 . S
C1815 H1847 0.930 . S
C1816 N1813 1.295 . S
C1816 C1815 1.358 . S
C1816 H1819 0.930 . S
C1817 C1814 1.348 1_556 S
C1817 C1815 1.356 . S
H1818 C1812 0.930 . S
H1819 C1816 0.930 . S
O1820 Li1760 1.956 . S
O1820 Li1761 1.970 . S
O1820 Li1762 1.961 1_554 S
O1820 C1764 1.325 . S
O1821 Li1760 1.970 . S
O1821 Li1761 1.956 . S
O1821 Li1763 1.961 . S
O1821 C1770 1.325 . S
O1822 Li1760 1.961 . S
O1822 Li1762 1.956 1_554 S
O1822 Li1763 1.970 . S
O1822 C1792 1.325 . S
O1823 Li1761 1.961 1_556 S
O1823 Li1762 1.970 . S
O1823 Li1763 1.956 1_556 S
O1823 C1798 1.325 . S
H1824 C1766 0.929 . S
H1825 C1767 0.930 . S
H1826 C1768 0.930 . S
H1827 C1769 0.930 . S
H1828 C1771 0.930 . S
H1829 C1773 0.929 . S
H1830 C1774 0.930 . S
H1831 C1775 0.930 . S
H1832 C1778 0.930 . S
H1833 C1781 0.929 . S
H1834 C1786 0.929 . S
H1835 C1787 0.930 . S
H1836 C1794 0.929 . S
H1837 C1795 0.930 . S
H1838 C1796 0.930 . S
H1839 C1797 0.930 . S
H1840 C1799 0.929 . S
H1841 C1800 0.930 . S
H1842 C1801 0.930 . S
H1843 C1802 0.930 . S
H1844 C1806 0.929 . S
H1845 C1808 0.930 . S
H1846 C1814 0.929 . S
H1847 C1815 0.930 . S
Li1848 N1865 1.990 . S
Li1848 O1908 1.956 . S
Li1848 O1909 1.970 . S
Li1848 O1910 1.961 . S
Li1849 N1873 1.990 . S
Li1849 O1908 1.970 . S
Li1849 O1909 1.956 . S
Li1849 O1911 1.961 . S
Li1850 N1895 1.990 . S
Li1850 O1908 1.961 . S
Li1850 O1910 1.956 . S
Li1850 O1911 1.970 . S
Li1851 N1901 1.990 . S
Li1851 O1909 1.961 . S
Li1851 O1910 1.970 . S
Li1851 O1911 1.956 . S
C1852 C1854 1.348 . S
C1852 C1855 1.356 . S
C1852 O1908 1.325 . S
N1853 C1856 1.314 . S
N1853 C1857 1.279 . S
C1854 C1852 1.348 . S
C1854 C1856 1.353 . S
C1854 H1912 0.929 . S
C1855 C1852 1.356 . S
C1855 C1857 1.358 . S
C1855 H1913 0.930 . S
C1856 N1853 1.314 . S
C1856 C1854 1.353 . S
C1856 H1914 0.930 . S
C1857 N1853 1.279 . S
C1857 C1855 1.358 . S
C1857 H1915 0.930 . S
C1858 C1861 1.348 . S
C1858 C1862 1.356 . S
C1858 O1909 1.325 . S
C1859 N1860 1.279 . S
C1859 C1862 1.358 . S
C1859 H1916 0.930 . S
N1860 C1859 1.279 . S
N1860 C1863 1.314 . S
C1861 C1858 1.348 . S
C1861 C1863 1.353 . S
C1861 H1917 0.929 . S
C1862 C1858 1.356 . S
C1862 C1859 1.358 . S
C1862 H1918 0.930 . S
C1863 N1860 1.314 . S
C1863 C1861 1.353 . S
C1863 H1919 0.930 . S
C1864 N1865 1.314 . S
C1864 C1869 1.353 . S
C1864 H1870 0.930 . S
N1865 Li1848 1.990 . S
N1865 C1864 1.314 . S
N1865 C1867 1.279 . S
C1866 C1867 1.358 . S
C1866 C1868 1.356 . S
C1866 H1920 0.930 . S
C1867 N1865 1.279 . S
C1867 C1866 1.358 . S
C1867 H1871 0.930 . S
C1868 C1866 1.356 . S
C1868 C1869 1.348 . S
C1869 C1864 1.353 . S
C1869 C1868 1.348 . S
C1869 H1921 0.929 . S
H1870 C1864 0.930 . S
H1871 C1867 0.930 . S
C1872 N1873 1.314 . S
C1872 C1874 1.353 . S
C1872 H1878 0.930 . S
N1873 Li1849 1.990 . S
N1873 C1872 1.314 . S
N1873 C1876 1.279 . S
C1874 C1872 1.353 . S
C1874 C1877 1.348 . S
C1874 H1922 0.929 . S
C1875 C1876 1.358 . S
C1875 C1877 1.356 . S
C1875 H1923 0.930 . S
C1876 N1873 1.279 . S
C1876 C1875 1.358 . S
C1876 H1879 0.930 . S
C1877 C1874 1.348 . S
C1877 C1875 1.356 . S
H1878 C1872 0.930 . S
H1879 C1876 0.930 . S
C1880 C1882 1.348 . S
C1880 C1883 1.356 . S
C1880 O1910 1.325 . S
N1881 C1884 1.314 . S
N1881 C1885 1.279 . S
C1882 C1880 1.348 . S
C1882 C1884 1.353 . S
C1882 H1924 0.929 . S
C1883 C1880 1.356 . S
C1883 C1885 1.358 . S
C1883 H1925 0.930 . S
C1884 N1881 1.314 . S
C1884 C1882 1.353 . S
C1884 H1926 0.930 . S
C1885 N1881 1.279 . S
C1885 C1883 1.358 . S
C1885 H1927 0.930 . S
C1886 C1887 1.348 . S
C1886 C1888 1.356 . S
C1886 O1911 1.325 . S
C1887 C1886 1.348 . S
C1887 C1889 1.353 . S
C1887 H1928 0.929 . S
C1888 C1886 1.356 . S
C1888 C1890 1.358 . S
C1888 H1929 0.930 . S
C1889 C1887 1.353 . S
C1889 N1891 1.314 . S
C1889 H1930 0.930 . S
C1890 C1888 1.358 . S
C1890 N1891 1.279 . S
C1890 H1931 0.930 . S
N1891 C1889 1.314 . S
N1891 C1890 1.279 . S
C1892 C1894 1.353 . S
C1892 N1895 1.314 . S
C1892 H1898 0.930 . S
C1893 N1895 1.279 . S
C1893 C1896 1.358 . S
C1893 H1899 0.930 . S
C1894 C1892 1.353 . S
C1894 C1897 1.348 . S
C1894 H1932 0.929 . S
N1895 Li1850 1.990 . S
N1895 C1892 1.314 . S
N1895 C1893 1.279 . S
C1896 C1893 1.358 . S
C1896 C1897 1.356 . S
C1896 H1933 0.930 . S
C1897 C1894 1.348 . S
C1897 C1896 1.356 . S
H1898 C1892 0.930 . S
H1899 C1893 0.930 . S
C1900 N1901 1.314 . S
C1900 C1902 1.353 . S
C1900 H1906 0.930 . S
N1901 Li1851 1.990 . S
N1901 C1900 1.314 . S
N1901 C1904 1.279 . S
C1902 C1900 1.353 . S
C1902 C1905 1.348 . S
C1902 H1934 0.929 . S
C1903 C1904 1.358 . S
C1903 C1905 1.356 . S
C1903 H1935 0.930 . S
C1904 N1901 1.279 . S
C1904 C1903 1.358 . S
C1904 H1907 0.930 . S
C1905 C1902 1.348 . S
C1905 C1903 1.356 . S
H1906 C1900 0.930 . S
H1907 C1904 0.930 . S
O1908 Li1848 1.956 . S
O1908 Li1849 1.970 . S
O1908 Li1850 1.961 . S
O1908 C1852 1.325 . S
O1909 Li1848 1.970 . S
O1909 Li1849 1.956 . S
O1909 Li1851 1.961 . S
O1909 C1858 1.325 . S
O1910 Li1848 1.961 . S
O1910 Li1850 1.956 . S
O1910 Li1851 1.970 . S
O1910 C1880 1.325 . S
O1911 Li1849 1.961 . S
O1911 Li1850 1.970 . S
O1911 Li1851 1.956 . S
O1911 C1886 1.325 . S
H1912 C1854 0.929 . S
H1913 C1855 0.930 . S
H1914 C1856 0.930 . S
H1915 C1857 0.930 . S
H1916 C1859 0.930 . S
H1917 C1861 0.929 . S
H1918 C1862 0.930 . S
H1919 C1863 0.930 . S
H1920 C1866 0.930 . S
H1921 C1869 0.929 . S
H1922 C1874 0.929 . S
H1923 C1875 0.930 . S
H1924 C1882 0.929 . S
H1925 C1883 0.930 . S
H1926 C1884 0.930 . S
H1927 C1885 0.930 . S
H1928 C1887 0.929 . S
H1929 C1888 0.930 . S
H1930 C1889 0.930 . S
H1931 C1890 0.930 . S
H1932 C1894 0.929 . S
H1933 C1896 0.930 . S
H1934 C1902 0.929 . S
H1935 C1903 0.930 . S
Li1936 N1953 1.990 . S
Li1936 O1996 1.956 . S
Li1936 O1997 1.970 . S
Li1936 O1998 1.961 . S
Li1937 N1961 1.990 . S
Li1937 O1996 1.970 . S
Li1937 O1997 1.956 . S
Li1937 O1999 1.961 . S
Li1938 N1983 1.990 . S
Li1938 O1996 1.961 . S
Li1938 O1998 1.956 . S
Li1938 O1999 1.970 . S
Li1939 N1989 1.990 . S
Li1939 O1997 1.961 . S
Li1939 O1998 1.970 . S
Li1939 O1999 1.956 . S
C1940 C1942 1.348 . S
C1940 C1943 1.356 . S
C1940 O1996 1.325 . S
N1941 C1944 1.314 . S
N1941 C1945 1.279 . S
C1942 C1940 1.348 . S
C1942 C1944 1.353 . S
C1942 H2000 0.929 . S
C1943 C1940 1.356 . S
C1943 C1945 1.358 . S
C1943 H2001 0.930 . S
C1944 N1941 1.314 . S
C1944 C1942 1.353 . S
C1944 H2002 0.930 . S
C1945 N1941 1.279 . S
C1945 C1943 1.358 . S
C1945 H2003 0.930 . S
C1946 C1949 1.348 . S
C1946 C1950 1.356 . S
C1946 O1997 1.325 . S
C1947 N1948 1.279 . S
C1947 C1950 1.358 . S
C1947 H2004 0.930 . S
N1948 C1947 1.279 . S
N1948 C1951 1.314 . S
C1949 C1946 1.348 . S
C1949 C1951 1.353 . S
C1949 H2005 0.929 . S
C1950 C1946 1.356 . S
C1950 C1947 1.358 . S
C1950 H2006 0.930 . S
C1951 N1948 1.314 . S
C1951 C1949 1.353 . S
C1951 H2007 0.930 . S
C1952 N1953 1.314 . S
C1952 C1957 1.353 . S
C1952 H1958 0.930 . S
N1953 Li1936 1.990 . S
N1953 C1952 1.314 . S
N1953 C1955 1.279 . S
C1954 C1955 1.358 . S
C1954 C1956 1.356 . S
C1954 H2008 0.930 . S
C1955 N1953 1.279 . S
C1955 C1954 1.358 . S
C1955 H1959 0.930 . S
C1956 C1954 1.356 . S
C1956 C1957 1.348 . S
C1957 C1952 1.353 . S
C1957 C1956 1.348 . S
C1957 H2009 0.929 . S
H1958 C1952 0.930 . S
H1959 C1955 0.930 . S
C1960 N1961 1.314 . S
C1960 C1962 1.353 . S
C1960 H1966 0.930 . S
N1961 Li1937 1.990 . S
N1961 C1960 1.314 . S
N1961 C1964 1.279 . S
C1962 C1960 1.353 . S
C1962 C1965 1.348 . S
C1962 H2010 0.929 . S
C1963 C1964 1.358 . S
C1963 C1965 1.356 . S
C1963 H2011 0.930 . S
C1964 N1961 1.279 . S
C1964 C1963 1.358 . S
C1964 H1967 0.930 . S
C1965 C1962 1.348 . S
C1965 C1963 1.356 . S
H1966 C1960 0.930 . S
H1967 C1964 0.930 . S
C1968 C1970 1.348 . S
C1968 C1971 1.356 . S
C1968 O1998 1.325 . S
N1969 C1972 1.314 . S
N1969 C1973 1.279 . S
C1970 C1968 1.348 . S
C1970 C1972 1.353 . S
C1970 H2012 0.929 . S
C1971 C1968 1.356 . S
C1971 C1973 1.358 . S
C1971 H2013 0.930 . S
C1972 N1969 1.314 . S
C1972 C1970 1.353 . S
C1972 H2014 0.930 . S
C1973 N1969 1.279 . S
C1973 C1971 1.358 . S
C1973 H2015 0.930 . S
C1974 C1975 1.348 . S
C1974 C1976 1.356 . S
C1974 O1999 1.325 . S
C1975 C1974 1.348 . S
C1975 C1977 1.353 . S
C1975 H2016 0.929 . S
C1976 C1974 1.356 . S
C1976 C1978 1.358 . S
C1976 H2017 0.930 . S
C1977 C1975 1.353 . S
C1977 N1979 1.314 . S
C1977 H2018 0.930 . S
C1978 C1976 1.358 . S
C1978 N1979 1.279 . S
C1978 H2019 0.930 . S
N1979 C1977 1.314 . S
N1979 C1978 1.279 . S
C1980 C1982 1.353 . S
C1980 N1983 1.314 . S
C1980 H1986 0.930 . S
C1981 N1983 1.279 . S
C1981 C1984 1.358 . S
C1981 H1987 0.930 . S
C1982 C1980 1.353 . S
C1982 C1985 1.348 . S
C1982 H2020 0.929 . S
N1983 Li1938 1.990 . S
N1983 C1980 1.314 . S
N1983 C1981 1.279 . S
C1984 C1981 1.358 . S
C1984 C1985 1.356 . S
C1984 H2021 0.930 . S
C1985 C1982 1.348 . S
C1985 C1984 1.356 . S
H1986 C1980 0.930 . S
H1987 C1981 0.930 . S
C1988 N1989 1.314 . S
C1988 C1990 1.353 . S
C1988 H1994 0.930 . S
N1989 Li1939 1.990 . S
N1989 C1988 1.314 . S
N1989 C1992 1.279 . S
C1990 C1988 1.353 . S
C1990 C1993 1.348 . S
C1990 H2022 0.929 . S
C1991 C1992 1.358 . S
C1991 C1993 1.356 . S
C1991 H2023 0.930 . S
C1992 N1989 1.279 . S
C1992 C1991 1.358 . S
C1992 H1995 0.930 . S
C1993 C1990 1.348 . S
C1993 C1991 1.356 . S
H1994 C1988 0.930 . S
H1995 C1992 0.930 . S
O1996 Li1936 1.956 . S
O1996 Li1937 1.970 . S
O1996 Li1938 1.961 . S
O1996 C1940 1.325 . S
O1997 Li1936 1.970 . S
O1997 Li1937 1.956 . S
O1997 Li1939 1.961 . S
O1997 C1946 1.325 . S
O1998 Li1936 1.961 . S
O1998 Li1938 1.956 . S
O1998 Li1939 1.970 . S
O1998 C1968 1.325 . S
O1999 Li1937 1.961 . S
O1999 Li1938 1.970 . S
O1999 Li1939 1.956 . S
O1999 C1974 1.325 . S
H2000 C1942 0.929 . S
H2001 C1943 0.930 . S
H2002 C1944 0.930 . S
H2003 C1945 0.930 . S
H2004 C1947 0.930 . S
H2005 C1949 0.929 . S
H2006 C1950 0.930 . S
H2007 C1951 0.930 . S
H2008 C1954 0.930 . S
H2009 C1957 0.929 . S
H2010 C1962 0.929 . S
H2011 C1963 0.930 . S
H2012 C1970 0.929 . S
H2013 C1971 0.930 . S
H2014 C1972 0.930 . S
H2015 C1973 0.930 . S
H2016 C1975 0.929 . S
H2017 C1976 0.930 . S
H2018 C1977 0.930 . S
H2019 C1978 0.930 . S
H2020 C1982 0.929 . S
H2021 C1984 0.930 . S
H2022 C1990 0.929 . S
H2023 C1991 0.930 . S
Li2024 N2041 1.990 . S
Li2024 O2084 1.956 . S
Li2024 O2085 1.970 . S
Li2024 O2086 1.961 . S
Li2025 N2049 1.990 . S
Li2025 O2084 1.970 . S
Li2025 O2085 1.956 . S
Li2025 O2087 1.961 . S
Li2026 N2071 1.990 . S
Li2026 O2084 1.961 . S
Li2026 O2086 1.956 . S
Li2026 O2087 1.970 . S
Li2027 N2077 1.990 . S
Li2027 O2085 1.961 . S
Li2027 O2086 1.970 . S
Li2027 O2087 1.956 . S
C2028 C2030 1.348 . S
C2028 C2031 1.356 . S
C2028 O2084 1.325 . S
N2029 C2032 1.314 . S
N2029 C2033 1.279 . S
C2030 C2028 1.348 . S
C2030 C2032 1.353 . S
C2030 H2088 0.929 . S
C2031 C2028 1.356 . S
C2031 C2033 1.358 . S
C2031 H2089 0.930 . S
C2032 N2029 1.314 . S
C2032 C2030 1.353 . S
C2032 H2090 0.930 . S
C2033 N2029 1.279 . S
C2033 C2031 1.358 . S
C2033 H2091 0.930 . S
C2034 C2037 1.348 . S
C2034 C2038 1.356 . S
C2034 O2085 1.325 . S
C2035 N2036 1.279 . S
C2035 C2038 1.358 . S
C2035 H2092 0.930 . S
N2036 C2035 1.279 . S
N2036 C2039 1.314 . S
C2037 C2034 1.348 . S
C2037 C2039 1.353 . S
C2037 H2093 0.929 . S
C2038 C2034 1.356 . S
C2038 C2035 1.358 . S
C2038 H2094 0.930 . S
C2039 N2036 1.314 . S
C2039 C2037 1.353 . S
C2039 H2095 0.930 . S
C2040 N2041 1.314 . S
C2040 C2045 1.353 . S
C2040 H2046 0.930 . S
N2041 Li2024 1.990 . S
N2041 C2040 1.314 . S
N2041 C2043 1.279 . S
C2042 C2043 1.358 . S
C2042 C2044 1.356 . S
C2042 H2096 0.930 . S
C2043 N2041 1.279 . S
C2043 C2042 1.358 . S
C2043 H2047 0.930 . S
C2044 C2042 1.356 . S
C2044 C2045 1.348 . S
C2045 C2040 1.353 . S
C2045 C2044 1.348 . S
C2045 H2097 0.929 . S
H2046 C2040 0.930 . S
H2047 C2043 0.930 . S
C2048 N2049 1.314 . S
C2048 C2050 1.353 . S
C2048 H2054 0.930 . S
N2049 Li2025 1.990 . S
N2049 C2048 1.314 . S
N2049 C2052 1.279 . S
C2050 C2048 1.353 . S
C2050 C2053 1.348 . S
C2050 H2098 0.929 . S
C2051 C2052 1.358 . S
C2051 C2053 1.356 . S
C2051 H2099 0.930 . S
C2052 N2049 1.279 . S
C2052 C2051 1.358 . S
C2052 H2055 0.930 . S
C2053 C2050 1.348 . S
C2053 C2051 1.356 . S
H2054 C2048 0.930 . S
H2055 C2052 0.930 . S
C2056 C2058 1.348 . S
C2056 C2059 1.356 . S
C2056 O2086 1.325 . S
N2057 C2060 1.314 . S
N2057 C2061 1.279 . S
C2058 C2056 1.348 . S
C2058 C2060 1.353 . S
C2058 H2100 0.929 . S
C2059 C2056 1.356 . S
C2059 C2061 1.358 . S
C2059 H2101 0.930 . S
C2060 N2057 1.314 . S
C2060 C2058 1.353 . S
C2060 H2102 0.930 . S
C2061 N2057 1.279 . S
C2061 C2059 1.358 . S
C2061 H2103 0.930 . S
C2062 C2063 1.348 . S
C2062 C2064 1.356 . S
C2062 O2087 1.325 . S
C2063 C2062 1.348 . S
C2063 C2065 1.353 . S
C2063 H2104 0.929 . S
C2064 C2062 1.356 . S
C2064 C2066 1.358 . S
C2064 H2105 0.930 . S
C2065 C2063 1.353 . S
C2065 N2067 1.314 . S
C2065 H2106 0.930 . S
C2066 C2064 1.358 . S
C2066 N2067 1.279 . S
C2066 H2107 0.930 . S
N2067 C2065 1.314 . S
N2067 C2066 1.279 . S
C2068 C2070 1.353 . S
C2068 N2071 1.314 . S
C2068 H2074 0.930 . S
C2069 N2071 1.279 . S
C2069 C2072 1.358 . S
C2069 H2075 0.930 . S
C2070 C2068 1.353 . S
C2070 C2073 1.348 . S
C2070 H2108 0.929 . S
N2071 Li2026 1.990 . S
N2071 C2068 1.314 . S
N2071 C2069 1.279 . S
C2072 C2069 1.358 . S
C2072 C2073 1.356 . S
C2072 H2109 0.930 . S
C2073 C2070 1.348 . S
C2073 C2072 1.356 . S
H2074 C2068 0.930 . S
H2075 C2069 0.930 . S
C2076 N2077 1.314 . S
C2076 C2078 1.353 . S
C2076 H2082 0.930 . S
N2077 Li2027 1.990 . S
N2077 C2076 1.314 . S
N2077 C2080 1.279 . S
C2078 C2076 1.353 . S
C2078 C2081 1.348 . S
C2078 H2110 0.929 . S
C2079 C2080 1.358 . S
C2079 C2081 1.356 . S
C2079 H2111 0.930 . S
C2080 N2077 1.279 . S
C2080 C2079 1.358 . S
C2080 H2083 0.930 . S
C2081 C2078 1.348 . S
C2081 C2079 1.356 . S
H2082 C2076 0.930 . S
H2083 C2080 0.930 . S
O2084 Li2024 1.956 . S
O2084 Li2025 1.970 . S
O2084 Li2026 1.961 . S
O2084 C2028 1.325 . S
O2085 Li2024 1.970 . S
O2085 Li2025 1.956 . S
O2085 Li2027 1.961 . S
O2085 C2034 1.325 . S
O2086 Li2024 1.961 . S
O2086 Li2026 1.956 . S
O2086 Li2027 1.970 . S
O2086 C2056 1.325 . S
O2087 Li2025 1.961 . S
O2087 Li2026 1.970 . S
O2087 Li2027 1.956 . S
O2087 C2062 1.325 . S
H2088 C2030 0.929 . S
H2089 C2031 0.930 . S
H2090 C2032 0.930 . S
H2091 C2033 0.930 . S
H2092 C2035 0.930 . S
H2093 C2037 0.929 . S
H2094 C2038 0.930 . S
H2095 C2039 0.930 . S
H2096 C2042 0.930 . S
H2097 C2045 0.929 . S
H2098 C2050 0.929 . S
H2099 C2051 0.930 . S
H2100 C2058 0.929 . S
H2101 C2059 0.930 . S
H2102 C2060 0.930 . S
H2103 C2061 0.930 . S
H2104 C2063 0.929 . S
H2105 C2064 0.930 . S
H2106 C2065 0.930 . S
H2107 C2066 0.930 . S
H2108 C2070 0.929 . S
H2109 C2072 0.930 . S
H2110 C2078 0.929 . S
H2111 C2079 0.930 . S
C2112 C2114 1.422 1_556 S
C2112 C2116 1.415 . S
C2112 N2118 1.369 . S
C2113 C2114 1.421 . S
C2113 C2115 1.417 1_554 S
C2113 C2125 1.422 . S
C2114 C2112 1.422 1_554 S
C2114 C2113 1.421 . S
C2114 N2124 1.359 . S
C2115 C2113 1.417 1_556 S
C2115 C2117 1.329 . S
C2115 H2134 0.944 . S
C2116 C2112 1.415 . S
C2116 C2117 1.437 . S
C2116 C2120 1.413 . S
C2117 C2115 1.329 . S
C2117 C2116 1.437 . S
C2117 H2139 0.929 . S
N2118 C2112 1.369 . S
N2118 C2119 1.338 . S
N2118 Gd2123 2.622 1_566 S
C2119 N2118 1.338 . S
C2119 C2121 1.378 . S
C2119 H2131 0.929 . S
C2120 C2116 1.413 . S
C2120 C2121 1.348 . S
C2120 H2136 0.931 . S
C2121 C2119 1.378 . S
C2121 C2120 1.348 . S
C2121 H2137 0.930 . S
Gd2122 N2142 2.622 . S
Gd2122 N2149 2.570 . S
Gd2122 O2156 2.353 1_545 S
Gd2122 O2157 2.468 . S
Gd2122 O2158 2.427 . S
Gd2122 O2160 2.388 . S
Gd2122 O2161 2.386 . S
Gd2122 O2165 2.307 . S
Gd2122 C2175 2.805 . S
Gd2123 N2118 2.622 1_544 S
Gd2123 N2124 2.570 1_545 S
Gd2123 O2155 2.386 1_645 S
Gd2123 O2159 2.307 1_655 S
Gd2123 O2162 2.353 1_655 S
Gd2123 O2163 2.468 . S
Gd2123 O2164 2.427 1_554 S
Gd2123 O2166 2.388 1_654 S
Gd2123 C2187 2.806 . S
N2124 C2114 1.359 . S
N2124 Gd2123 2.570 1_565 S
N2124 C2126 1.343 . S
C2125 C2113 1.422 . S
C2125 C2127 1.321 . S
C2125 H2133 0.931 . S
C2126 N2124 1.343 . S
C2126 C2127 1.390 . S
C2126 H2128 0.931 . S
C2127 C2125 1.321 . S
C2127 C2126 1.390 . S
C2127 H2129 0.930 . S
H2128 C2126 0.931 . S
H2129 C2127 0.930 . S
H2130 C2153 0.931 1_556 S
H2131 C2119 0.929 . S
H2132 C2154 0.901 1_556 S
H2133 C2125 0.931 . S
H2134 C2115 0.944 . S
H2135 C2144 0.929 . S
H2136 C2120 0.931 . S
H2137 C2121 0.930 . S
H2138 C2176 0.930 . S
H2139 C2117 0.929 . S
H2140 C2145 0.931 . S
H2141 C2146 0.930 . S
N2142 Gd2122 2.622 . S
N2142 C2143 1.369 . S
N2142 C2144 1.338 . S
C2143 N2142 1.369 . S
C2143 C2147 1.415 . S
C2143 C2150 1.422 . S
C2144 H2135 0.929 . S
C2144 N2142 1.338 . S
C2144 C2146 1.378 . S
C2145 H2140 0.931 . S
C2145 C2146 1.348 . S
C2145 C2147 1.413 . S
C2146 H2141 0.930 . S
C2146 C2144 1.378 . S
C2146 C2145 1.348 . S
C2147 C2143 1.415 . S
C2147 C2145 1.413 . S
C2147 C2177 1.437 . S
H2148 C2177 0.929 . S
N2149 Gd2122 2.570 . S
N2149 C2150 1.359 . S
N2149 C2153 1.343 . S
C2150 C2143 1.422 . S
C2150 N2149 1.359 . S
C2150 C2152 1.421 . S
C2151 C2152 1.422 . S
C2151 C2154 1.336 . S
C2151 H2178 0.931 . S
C2152 C2150 1.421 . S
C2152 C2151 1.422 . S
C2152 C2176 1.417 . S
C2153 H2130 0.931 1_554 S
C2153 N2149 1.343 . S
C2153 C2154 1.404 . S
C2154 H2132 0.901 1_554 S
C2154 C2151 1.336 . S
C2154 C2153 1.404 . S
O2155 Gd2123 2.386 1_465 S
O2155 C2167 1.265 . S
O2156 Gd2122 2.353 1_565 S
O2156 C2167 1.242 . S
O2157 Gd2122 2.468 . S
O2157 C2175 1.263 . S
O2158 Gd2122 2.427 . S
O2158 C2175 1.252 . S
O2159 Gd2123 2.307 1_455 S
O2159 C2168 1.261 . S
O2160 Gd2122 2.388 . S
O2160 C2168 1.252 . S
O2161 Gd2122 2.386 . S
O2161 C2179 1.265 . S
O2162 Gd2123 2.353 1_455 S
O2162 C2179 1.242 . S
O2163 Gd2123 2.468 . S
O2163 C2187 1.272 . S
O2164 Gd2123 2.427 1_556 S
O2164 C2187 1.245 1_556 S
O2165 Gd2122 2.307 . S
O2165 C2180 1.261 1_554 S
O2166 Gd2123 2.388 1_456 S
O2166 C2180 1.252 . S
C2167 O2155 1.265 . S
C2167 O2156 1.242 . S
C2168 O2159 1.261 . S
C2168 O2160 1.252 . S
C2169 C2172 1.394 . S
C2169 C2174 1.370 . S
C2169 C2175 1.500 . S
C2170 C2173 1.383 . S
C2170 C2174 1.395 1_565 S
C2171 C2172 1.396 . S
C2171 C2173 1.365 1_545 S
C2171 H2188 0.929 . S
C2172 C2169 1.394 . S
C2172 C2171 1.396 . S
C2172 H2189 0.930 . S
C2173 C2170 1.383 . S
C2173 C2171 1.365 1_565 S
C2173 H2190 0.931 . S
C2174 C2169 1.370 . S
C2174 C2170 1.395 1_545 S
C2174 H2191 0.930 . S
C2175 Gd2122 2.805 . S
C2175 O2157 1.263 . S
C2175 O2158 1.252 . S
C2175 C2169 1.500 . S
C2176 H2138 0.930 . S
C2176 C2152 1.417 . S
C2176 C2177 1.329 . S
C2177 C2147 1.437 . S
C2177 H2148 0.929 . S
C2177 C2176 1.329 . S
H2178 C2151 0.931 . S
C2179 O2161 1.265 . S
C2179 O2162 1.242 . S
C2180 O2165 1.261 1_556 S
C2180 O2166 1.252 . S
C2181 C2184 1.394 . S
C2181 C2186 1.370 1_556 S
C2181 C2187 1.499 1_556 S
C2182 C2185 1.383 1_554 S
C2182 C2186 1.395 . S
C2183 C2184 1.396 . S
C2183 C2185 1.365 . S
C2183 H2192 0.929 . S
C2184 C2181 1.394 . S
C2184 C2183 1.396 . S
C2184 H2193 0.930 . S
C2185 C2182 1.383 1_556 S
C2185 C2183 1.365 . S
C2185 H2194 0.931 . S
C2186 C2181 1.370 1_554 S
C2186 C2182 1.395 . S
C2186 H2195 0.930 . S
C2187 Gd2123 2.806 . S
C2187 O2163 1.272 . S
C2187 O2164 1.245 1_554 S
C2187 C2181 1.499 1_554 S
H2188 C2171 0.929 . S
H2189 C2172 0.930 . S
H2190 C2173 0.931 . S
H2191 C2174 0.930 . S
H2192 C2183 0.929 . S
H2193 C2184 0.930 . S
H2194 C2185 0.931 . S
H2195 C2186 0.930 . S
C2196 C2198 1.422 . S
C2196 C2200 1.415 . S
C2196 N2202 1.369 . S
C2197 C2198 1.421 . S
C2197 C2199 1.417 . S
C2197 C2209 1.422 . S
C2198 C2196 1.422 . S
C2198 C2197 1.421 . S
C2198 N2208 1.359 . S
C2199 C2197 1.417 . S
C2199 C2201 1.329 . S
C2199 H2218 0.930 . S
C2200 C2196 1.415 . S
C2200 C2201 1.437 . S
C2200 C2204 1.413 . S
C2201 C2199 1.329 . S
C2201 C2200 1.437 . S
C2201 H2223 0.929 . S
N2202 C2196 1.369 . S
N2202 C2203 1.338 . S
N2202 Gd2207 2.622 . S
C2203 N2202 1.338 . S
C2203 C2205 1.378 . S
C2203 H2215 0.929 . S
C2204 C2200 1.413 . S
C2204 C2205 1.348 . S
C2204 H2220 0.931 . S
C2205 C2203 1.378 . S
C2205 C2204 1.348 . S
C2205 H2221 0.930 . S
Gd2206 N2226 2.622 . S
Gd2206 N2233 2.570 . S
Gd2206 O2240 2.353 . S
Gd2206 O2241 2.468 . S
Gd2206 O2242 2.427 . S
Gd2206 O2244 2.388 . S
Gd2206 O2245 2.386 . S
Gd2206 O2249 2.307 . S
Gd2206 C2259 2.805 . S
Gd2207 N2202 2.622 . S
Gd2207 N2208 2.570 . S
Gd2207 O2239 2.386 . S
Gd2207 O2243 2.307 . S
Gd2207 O2246 2.353 . S
Gd2207 O2247 2.468 . S
Gd2207 O2248 2.427 . S
Gd2207 O2250 2.388 . S
Gd2207 C2271 2.805 . S
N2208 C2198 1.359 . S
N2208 Gd2207 2.570 . S
N2208 C2210 1.343 . S
C2209 C2197 1.422 . S
C2209 C2211 1.321 . S
C2209 H2217 0.931 . S
C2210 N2208 1.343 . S
C2210 C2211 1.390 . S
C2210 H2212 0.931 . S
C2211 C2209 1.321 . S
C2211 C2210 1.390 . S
C2211 H2213 0.930 . S
H2212 C2210 0.931 . S
H2213 C2211 0.930 . S
H2214 C2237 0.931 . S
H2215 C2203 0.929 . S
H2216 C2238 0.930 . S
H2217 C2209 0.931 . S
H2218 C2199 0.930 . S
H2219 C2228 0.929 . S
H2220 C2204 0.931 . S
H2221 C2205 0.930 . S
H2222 C2260 0.930 . S
H2223 C2201 0.929 . S
H2224 C2229 0.931 . S
H2225 C2230 0.930 . S
N2226 Gd2206 2.622 . S
N2226 C2227 1.369 . S
N2226 C2228 1.338 . S
C2227 N2226 1.369 . S
C2227 C2231 1.415 . S
C2227 C2234 1.422 . S
C2228 H2219 0.929 . S
C2228 N2226 1.338 . S
C2228 C2230 1.378 . S
C2229 H2224 0.931 . S
C2229 C2230 1.348 . S
C2229 C2231 1.413 . S
C2230 H2225 0.930 . S
C2230 C2228 1.378 . S
C2230 C2229 1.348 . S
C2231 C2227 1.415 . S
C2231 C2229 1.413 . S
C2231 C2261 1.437 . S
H2232 C2261 0.929 . S
N2233 Gd2206 2.570 . S
N2233 C2234 1.359 . S
N2233 C2237 1.343 . S
C2234 C2227 1.422 . S
C2234 N2233 1.359 . S
C2234 C2236 1.421 . S
C2235 C2236 1.422 . S
C2235 C2238 1.321 . S
C2235 H2262 0.931 . S
C2236 C2234 1.421 . S
C2236 C2235 1.422 . S
C2236 C2260 1.417 . S
C2237 H2214 0.931 . S
C2237 N2233 1.343 . S
C2237 C2238 1.390 . S
C2238 H2216 0.930 . S
C2238 C2235 1.321 . S
C2238 C2237 1.390 . S
O2239 Gd2207 2.386 . S
O2239 C2251 1.265 . S
O2240 Gd2206 2.353 . S
O2240 C2251 1.242 . S
O2241 Gd2206 2.468 . S
O2241 C2259 1.263 . S
O2242 Gd2206 2.427 . S
O2242 C2259 1.252 . S
O2243 Gd2207 2.307 . S
O2243 C2252 1.261 . S
O2244 Gd2206 2.388 . S
O2244 C2252 1.252 . S
O2245 Gd2206 2.386 . S
O2245 C2263 1.265 . S
O2246 Gd2207 2.353 . S
O2246 C2263 1.242 . S
O2247 Gd2207 2.468 . S
O2247 C2271 1.263 . S
O2248 Gd2207 2.427 . S
O2248 C2271 1.252 . S
O2249 Gd2206 2.307 . S
O2249 C2264 1.261 . S
O2250 Gd2207 2.388 . S
O2250 C2264 1.252 . S
C2251 O2239 1.265 . S
C2251 O2240 1.242 . S
C2252 O2243 1.261 . S
C2252 O2244 1.252 . S
C2253 C2256 1.394 . S
C2253 C2258 1.370 . S
C2253 C2259 1.500 . S
C2254 C2257 1.383 . S
C2254 C2258 1.395 . S
C2255 C2256 1.396 . S
C2255 C2257 1.365 . S
C2255 H2272 0.929 . S
C2256 C2253 1.394 . S
C2256 C2255 1.396 . S
C2256 H2273 0.930 . S
C2257 C2254 1.383 . S
C2257 C2255 1.365 . S
C2257 H2274 0.931 . S
C2258 C2253 1.370 . S
C2258 C2254 1.395 . S
C2258 H2275 0.930 . S
C2259 Gd2206 2.805 . S
C2259 O2241 1.263 . S
C2259 O2242 1.252 . S
C2259 C2253 1.500 . S
C2260 H2222 0.930 . S
C2260 C2236 1.417 . S
C2260 C2261 1.329 . S
C2261 C2231 1.437 . S
C2261 H2232 0.929 . S
C2261 C2260 1.329 . S
H2262 C2235 0.931 . S
C2263 O2245 1.265 . S
C2263 O2246 1.242 . S
C2264 O2249 1.261 . S
C2264 O2250 1.252 . S
C2265 C2268 1.394 . S
C2265 C2270 1.370 . S
C2265 C2271 1.500 . S
C2266 C2269 1.383 . S
C2266 C2270 1.395 . S
C2267 C2268 1.396 . S
C2267 C2269 1.365 . S
C2267 H2276 0.929 . S
C2268 C2265 1.394 . S
C2268 C2267 1.396 . S
C2268 H2277 0.930 . S
C2269 C2266 1.383 . S
C2269 C2267 1.365 . S
C2269 H2278 0.931 . S
C2270 C2265 1.370 . S
C2270 C2266 1.395 . S
C2270 H2279 0.930 . S
C2271 Gd2207 2.805 . S
C2271 O2247 1.263 . S
C2271 O2248 1.252 . S
C2271 C2265 1.500 . S
H2272 C2255 0.929 . S
H2273 C2256 0.930 . S
H2274 C2257 0.931 . S
H2275 C2258 0.930 . S
H2276 C2267 0.929 . S
H2277 C2268 0.930 . S
H2278 C2269 0.931 . S
H2279 C2270 0.930 . S
C2280 C2282 1.422 . S
C2280 C2284 1.415 . S
C2280 N2286 1.369 . S
C2281 C2282 1.421 . S
C2281 C2283 1.417 . S
C2281 C2293 1.422 . S
C2282 C2280 1.422 . S
C2282 C2281 1.421 . S
C2282 N2292 1.359 . S
C2283 C2281 1.417 . S
C2283 C2285 1.329 . S
C2283 H2302 0.930 . S
C2284 C2280 1.415 . S
C2284 C2285 1.437 . S
C2284 C2288 1.413 . S
C2285 C2283 1.329 . S
C2285 C2284 1.437 . S
C2285 H2307 0.929 . S
N2286 C2280 1.369 . S
N2286 C2287 1.338 . S
N2286 Gd2291 2.622 . S
C2287 N2286 1.338 . S
C2287 C2289 1.378 . S
C2287 H2299 0.929 . S
C2288 C2284 1.413 . S
C2288 C2289 1.348 . S
C2288 H2304 0.931 . S
C2289 C2287 1.378 . S
C2289 C2288 1.348 . S
C2289 H2305 0.930 . S
Gd2290 N2310 2.622 1_545 S
Gd2290 N2317 2.570 1_545 S
Gd2290 O2324 2.353 . S
Gd2290 O2325 2.468 . S
Gd2290 O2326 2.427 . S
Gd2290 O2328 2.388 . S
Gd2290 O2329 2.386 1_545 S
Gd2290 O2333 2.307 . S
Gd2290 C2343 2.805 . S
Gd2291 N2286 2.622 . S
Gd2291 N2292 2.570 . S
Gd2291 O2323 2.386 . S
Gd2291 O2327 2.307 . S
Gd2291 O2330 2.353 1_545 S
Gd2291 O2331 2.468 . S
Gd2291 O2332 2.427 . S
Gd2291 O2334 2.388 . S
Gd2291 C2355 2.805 . S
N2292 C2282 1.359 . S
N2292 Gd2291 2.570 . S
N2292 C2294 1.343 . S
C2293 C2281 1.422 . S
C2293 C2295 1.321 . S
C2293 H2301 0.931 . S
C2294 N2292 1.343 . S
C2294 C2295 1.390 . S
C2294 H2296 0.931 . S
C2295 C2293 1.321 . S
C2295 C2294 1.390 . S
C2295 H2297 0.930 . S
H2296 C2294 0.931 . S
H2297 C2295 0.930 . S
H2298 C2321 0.981 . S
H2299 C2287 0.929 . S
H2300 C2322 0.930 . S
H2301 C2293 0.931 . S
H2302 C2283 0.930 . S
H2303 C2312 0.929 1_545 S
H2304 C2288 0.931 . S
H2305 C2289 0.930 . S
H2306 C2344 0.930 . S
H2307 C2285 0.929 . S
H2308 C2313 0.931 . S
H2309 C2314 0.930 . S
N2310 Gd2290 2.622 1_565 S
N2310 C2311 1.369 . S
N2310 C2312 1.338 . S
C2311 N2310 1.369 . S
C2311 C2315 1.415 . S
C2311 C2318 1.422 . S
C2312 H2303 0.929 1_565 S
C2312 N2310 1.338 . S
C2312 C2314 1.378 . S
C2313 H2308 0.931 . S
C2313 C2314 1.348 . S
C2313 C2315 1.413 . S
C2314 H2309 0.930 . S
C2314 C2312 1.378 . S
C2314 C2313 1.348 . S
C2315 C2311 1.415 . S
C2315 C2313 1.413 . S
C2315 C2345 1.437 . S
H2316 C2345 0.929 . S
N2317 Gd2290 2.570 1_565 S
N2317 C2318 1.359 . S
N2317 C2321 1.343 . S
C2318 C2311 1.422 . S
C2318 N2317 1.359 . S
C2318 C2320 1.421 . S
C2319 C2320 1.422 . S
C2319 C2322 1.321 . S
C2319 H2346 0.931 . S
C2320 C2318 1.421 . S
C2320 C2319 1.422 . S
C2320 C2344 1.417 . S
C2321 H2298 0.981 . S
C2321 N2317 1.343 . S
C2321 C2322 1.390 . S
C2322 H2300 0.930 . S
C2322 C2319 1.321 . S
C2322 C2321 1.390 . S
O2323 Gd2291 2.386 . S
O2323 C2335 1.265 . S
O2324 Gd2290 2.353 . S
O2324 C2335 1.242 . S
O2325 Gd2290 2.468 . S
O2325 C2343 1.263 . S
O2326 Gd2290 2.427 . S
O2326 C2343 1.252 . S
O2327 Gd2291 2.307 . S
O2327 C2336 1.261 . S
O2328 Gd2290 2.388 . S
O2328 C2336 1.252 . S
O2329 Gd2290 2.386 1_565 S
O2329 C2347 1.265 . S
O2330 Gd2291 2.353 1_565 S
O2330 C2347 1.242 . S
O2331 Gd2291 2.468 . S
O2331 C2355 1.263 . S
O2332 Gd2291 2.427 . S
O2332 C2355 1.252 . S
O2333 Gd2290 2.307 . S
O2333 C2348 1.261 . S
O2334 Gd2291 2.388 . S
O2334 C2348 1.252 . S
C2335 O2323 1.265 . S
C2335 O2324 1.242 . S
C2336 O2327 1.261 . S
C2336 O2328 1.252 . S
C2337 C2340 1.394 . S
C2337 C2342 1.370 . S
C2337 C2343 1.500 . S
C2338 C2341 1.383 . S
C2338 C2342 1.395 . S
C2339 C2340 1.396 . S
C2339 C2341 1.365 . S
C2339 H2356 0.929 . S
C2340 C2337 1.394 . S
C2340 C2339 1.396 . S
C2340 H2357 0.930 . S
C2341 C2338 1.383 . S
C2341 C2339 1.365 . S
C2341 H2358 0.931 . S
C2342 C2337 1.370 . S
C2342 C2338 1.395 . S
C2342 H2359 0.930 . S
C2343 Gd2290 2.805 . S
C2343 O2325 1.263 . S
C2343 O2326 1.252 . S
C2343 C2337 1.500 . S
C2344 H2306 0.930 . S
C2344 C2320 1.417 . S
C2344 C2345 1.329 . S
C2345 C2315 1.437 . S
C2345 H2316 0.929 . S
C2345 C2344 1.329 . S
H2346 C2319 0.931 . S
C2347 O2329 1.265 . S
C2347 O2330 1.242 . S
C2348 O2333 1.261 . S
C2348 O2334 1.252 . S
C2349 C2352 1.394 . S
C2349 C2354 1.370 . S
C2349 C2355 1.500 1_565 S
C2350 C2353 1.383 . S
C2350 C2354 1.395 . S
C2351 C2352 1.396 . S
C2351 C2353 1.365 . S
C2351 H2360 0.929 . S
C2352 C2349 1.394 . S
C2352 C2351 1.396 . S
C2352 H2361 0.930 . S
C2353 C2350 1.383 . S
C2353 C2351 1.365 . S
C2353 H2362 0.931 . S
C2354 C2349 1.370 . S
C2354 C2350 1.395 . S
C2354 H2363 0.930 . S
C2355 Gd2291 2.805 . S
C2355 O2331 1.263 . S
C2355 O2332 1.252 . S
C2355 C2349 1.500 1_545 S
H2356 C2339 0.929 . S
H2357 C2340 0.930 . S
H2358 C2341 0.931 . S
H2359 C2342 0.930 . S
H2360 C2351 0.929 . S
H2361 C2352 0.930 . S
H2362 C2353 0.931 . S
H2363 C2354 0.930 . S
C2364 C2366 1.422 . S
C2364 C2368 1.415 . S
C2364 N2370 1.369 . S
C2365 C2366 1.421 . S
C2365 C2367 1.417 . S
C2365 C2377 1.422 . S
C2366 C2364 1.422 . S
C2366 C2365 1.421 . S
C2366 N2376 1.359 . S
C2367 C2365 1.417 . S
C2367 C2369 1.329 . S
C2367 H2386 0.930 . S
C2368 C2364 1.415 . S
C2368 C2369 1.437 . S
C2368 C2372 1.413 . S
C2369 C2367 1.329 . S
C2369 C2368 1.437 . S
C2369 H2391 0.929 . S
N2370 C2364 1.369 . S
N2370 C2371 1.338 . S
N2370 Gd2375 2.622 . S
C2371 N2370 1.338 . S
C2371 C2373 1.378 . S
C2371 H2383 0.929 . S
C2372 C2368 1.413 . S
C2372 C2373 1.348 . S
C2372 H2388 0.931 . S
C2373 C2371 1.378 . S
C2373 C2372 1.348 . S
C2373 H2389 0.930 . S
Gd2374 N2394 2.622 . S
Gd2374 N2401 2.570 . S
Gd2374 O2408 2.353 . S
Gd2374 O2409 2.468 . S
Gd2374 O2410 2.427 . S
Gd2374 O2412 2.388 . S
Gd2374 O2413 2.386 . S
Gd2374 O2417 2.307 . S
Gd2374 C2427 2.805 . S
Gd2375 N2370 2.622 . S
Gd2375 N2376 2.570 . S
Gd2375 O2407 2.386 . S
Gd2375 O2411 2.307 . S
Gd2375 O2414 2.353 . S
Gd2375 O2415 2.468 . S
Gd2375 O2416 2.427 . S
Gd2375 O2418 2.388 . S
Gd2375 C2439 2.805 . S
N2376 C2366 1.359 . S
N2376 Gd2375 2.570 . S
N2376 C2378 1.343 . S
C2377 C2365 1.422 . S
C2377 C2379 1.321 . S
C2377 H2385 0.931 . S
C2378 N2376 1.343 . S
C2378 C2379 1.390 . S
C2378 H2380 0.931 . S
C2379 C2377 1.321 . S
C2379 C2378 1.390 . S
C2379 H2381 0.930 . S
H2380 C2378 0.931 . S
H2381 C2379 0.930 . S
H2382 C2405 0.931 . S
H2383 C2371 0.929 . S
H2384 C2406 0.930 . S
H2385 C2377 0.931 . S
H2386 C2367 0.930 . S
H2387 C2396 0.929 . S
H2388 C2372 0.931 . S
H2389 C2373 0.930 . S
H2390 C2428 0.930 . S
H2391 C2369 0.929 . S
H2392 C2397 0.931 . S
H2393 C2398 0.930 . S
N2394 Gd2374 2.622 . S
N2394 C2395 1.369 . S
N2394 C2396 1.338 . S
C2395 N2394 1.369 . S
C2395 C2399 1.415 . S
C2395 C2402 1.422 . S
C2396 H2387 0.929 . S
C2396 N2394 1.338 . S
C2396 C2398 1.378 . S
C2397 H2392 0.931 . S
C2397 C2398 1.348 . S
C2397 C2399 1.413 . S
C2398 H2393 0.930 . S
C2398 C2396 1.378 . S
C2398 C2397 1.348 . S
C2399 C2395 1.415 . S
C2399 C2397 1.413 . S
C2399 C2429 1.437 . S
H2400 C2429 0.929 . S
N2401 Gd2374 2.570 . S
N2401 C2402 1.359 . S
N2401 C2405 1.343 . S
C2402 C2395 1.422 . S
C2402 N2401 1.359 . S
C2402 C2404 1.421 . S
C2403 C2404 1.422 . S
C2403 C2406 1.321 . S
C2403 H2430 0.931 . S
C2404 C2402 1.421 . S
C2404 C2403 1.422 . S
C2404 C2428 1.417 . S
C2405 H2382 0.931 . S
C2405 N2401 1.343 . S
C2405 C2406 1.390 . S
C2406 H2384 0.930 . S
C2406 C2403 1.321 . S
C2406 C2405 1.390 . S
O2407 Gd2375 2.386 . S
O2407 C2419 1.265 . S
O2408 Gd2374 2.353 . S
O2408 C2419 1.242 . S
O2409 Gd2374 2.468 . S
O2409 C2427 1.263 . S
O2410 Gd2374 2.427 . S
O2410 C2427 1.252 . S
O2411 Gd2375 2.307 . S
O2411 C2420 1.261 . S
O2412 Gd2374 2.388 . S
O2412 C2420 1.252 . S
O2413 Gd2374 2.386 . S
O2413 C2431 1.265 . S
O2414 Gd2375 2.353 . S
O2414 C2431 1.242 . S
O2415 Gd2375 2.468 . S
O2415 C2439 1.263 . S
O2416 Gd2375 2.427 . S
O2416 C2439 1.252 . S
O2417 Gd2374 2.307 . S
O2417 C2432 1.261 . S
O2418 Gd2375 2.388 . S
O2418 C2432 1.252 . S
C2419 O2407 1.265 . S
C2419 O2408 1.242 . S
C2420 O2411 1.261 . S
C2420 O2412 1.252 . S
C2421 C2424 1.394 . S
C2421 C2426 1.370 . S
C2421 C2427 1.500 . S
C2422 C2425 1.383 . S
C2422 C2426 1.395 . S
C2423 C2424 1.396 . S
C2423 C2425 1.365 . S
C2423 H2440 0.929 . S
C2424 C2421 1.394 . S
C2424 C2423 1.396 . S
C2424 H2441 0.930 . S
C2425 C2422 1.383 . S
C2425 C2423 1.365 . S
C2425 H2442 0.931 . S
C2426 C2421 1.370 . S
C2426 C2422 1.395 . S
C2426 H2443 0.930 . S
C2427 Gd2374 2.805 . S
C2427 O2409 1.263 . S
C2427 O2410 1.252 . S
C2427 C2421 1.500 . S
C2428 H2390 0.930 . S
C2428 C2404 1.417 . S
C2428 C2429 1.329 . S
C2429 C2399 1.437 . S
C2429 H2400 0.929 . S
C2429 C2428 1.329 . S
H2430 C2403 0.931 . S
C2431 O2413 1.265 . S
C2431 O2414 1.242 . S
C2432 O2417 1.261 . S
C2432 O2418 1.252 . S
C2433 C2436 1.394 . S
C2433 C2438 1.370 . S
C2433 C2439 1.500 . S
C2434 C2437 1.383 . S
C2434 C2438 1.395 . S
C2435 C2436 1.396 . S
C2435 C2437 1.365 . S
C2435 H2444 0.929 . S
C2436 C2433 1.394 . S
C2436 C2435 1.396 . S
C2436 H2445 0.930 . S
C2437 C2434 1.383 . S
C2437 C2435 1.365 . S
C2437 H2446 0.931 . S
C2438 C2433 1.370 . S
C2438 C2434 1.395 . S
C2438 H2447 0.930 . S
C2439 Gd2375 2.805 . S
C2439 O2415 1.263 . S
C2439 O2416 1.252 . S
C2439 C2433 1.500 . S
H2440 C2423 0.929 . S
H2441 C2424 0.930 . S
H2442 C2425 0.931 . S
H2443 C2426 0.930 . S
H2444 C2435 0.929 . S
H2445 C2436 0.930 . S
H2446 C2437 0.931 . S
H2447 C2438 0.930 . S
C2448 C2450 1.422 . S
C2448 C2452 1.415 1_455 S
C2448 N2454 1.369 1_455 S
C2449 C2450 1.421 . S
C2449 C2451 1.417 . S
C2449 C2461 1.422 . S
C2450 C2448 1.422 . S
C2450 C2449 1.421 . S
C2450 N2460 1.359 . S
C2451 C2449 1.417 . S
C2451 C2453 1.329 . S
C2451 H2470 0.930 . S
C2452 C2448 1.415 1_655 S
C2452 C2453 1.437 1_655 S
C2452 C2456 1.413 . S
C2453 C2451 1.329 . S
C2453 C2452 1.437 1_455 S
C2453 H2475 0.929 1_455 S
N2454 C2448 1.369 1_655 S
N2454 C2455 1.338 . S
N2454 Gd2459 2.622 1_655 S
C2455 N2454 1.338 . S
C2455 C2457 1.378 . S
C2455 H2467 0.929 . S
C2456 C2452 1.413 . S
C2456 C2457 1.348 . S
C2456 H2472 0.931 . S
C2457 C2455 1.378 . S
C2457 C2456 1.348 . S
C2457 H2473 0.930 . S
Gd2458 N2478 2.622 . S
Gd2458 N2485 2.570 . S
Gd2458 O2492 2.353 1_565 S
Gd2458 O2493 2.468 . S
Gd2458 O2494 2.427 . S
Gd2458 O2496 2.388 1_565 S
Gd2458 O2497 2.386 1_565 S
Gd2458 O2501 2.288 1_565 S
Gd2458 C2511 2.805 . S
Gd2459 N2454 2.622 1_455 S
Gd2459 N2460 2.570 . S
Gd2459 O2491 2.386 . S
Gd2459 O2495 2.307 . S
Gd2459 O2498 2.353 . S
Gd2459 O2499 2.468 . S
Gd2459 O2500 2.427 1_455 S
Gd2459 O2502 2.388 1_455 S
Gd2459 C2523 2.805 . S
N2460 C2450 1.359 . S
N2460 Gd2459 2.570 . S
N2460 C2462 1.343 . S
C2461 C2449 1.422 . S
C2461 C2463 1.321 . S
C2461 H2469 0.931 . S
C2462 N2460 1.343 . S
C2462 C2463 1.390 . S
C2462 H2464 0.931 . S
C2463 C2461 1.321 . S
C2463 C2462 1.390 . S
C2463 H2465 0.930 . S
H2464 C2462 0.931 . S
H2465 C2463 0.930 . S
H2466 C2489 0.920 1_655 S
H2467 C2455 0.929 . S
H2468 C2490 0.930 . S
H2469 C2461 0.931 . S
H2470 C2451 0.930 . S
H2471 C2480 0.929 1_545 S
H2472 C2456 0.931 . S
H2473 C2457 0.930 . S
H2474 C2512 0.930 . S
H2475 C2453 0.929 1_655 S
H2476 C2481 0.931 . S
H2477 C2482 0.930 . S
N2478 Gd2458 2.622 . S
N2478 C2479 1.369 . S
N2478 C2480 1.338 . S
C2479 N2478 1.369 . S
C2479 C2483 1.415 . S
C2479 C2486 1.422 . S
C2480 H2471 0.929 1_565 S
C2480 N2478 1.338 . S
C2480 C2482 1.378 . S
C2481 H2476 0.931 . S
C2481 C2482 1.348 . S
C2481 C2483 1.413 . S
C2482 H2477 0.930 . S
C2482 C2480 1.378 . S
C2482 C2481 1.348 . S
C2483 C2479 1.415 . S
C2483 C2481 1.413 . S
C2483 C2513 1.437 . S
H2484 C2513 0.929 . S
N2485 Gd2458 2.570 . S
N2485 C2486 1.359 . S
N2485 C2489 1.359 . S
C2486 C2479 1.422 . S
C2486 N2485 1.359 . S
C2486 C2488 1.421 . S
C2487 C2488 1.362 1_655 S
C2487 C2490 1.360 . S
C2487 H2514 0.955 . S
C2488 C2486 1.421 . S
C2488 C2487 1.362 1_455 S
C2488 C2512 1.417 . S
C2489 H2466 0.920 1_455 S
C2489 N2485 1.359 . S
C2489 C2490 1.385 1_455 S
C2490 H2468 0.930 . S
C2490 C2487 1.360 . S
C2490 C2489 1.385 1_655 S
O2491 Gd2459 2.386 . S
O2491 C2503 1.265 . S
O2492 Gd2458 2.353 1_545 S
O2492 C2503 1.242 . S
O2493 Gd2458 2.468 . S
O2493 C2511 1.263 . S
O2494 Gd2458 2.427 . S
O2494 C2511 1.252 . S
O2495 Gd2459 2.307 . S
O2495 C2504 1.261 . S
O2496 Gd2458 2.388 1_545 S
O2496 C2504 1.252 . S
O2497 Gd2458 2.386 1_545 S
O2497 C2515 1.265 . S
O2498 Gd2459 2.353 . S
O2498 C2515 1.242 . S
O2499 Gd2459 2.468 . S
O2499 C2523 1.263 . S
O2500 Gd2459 2.427 1_655 S
O2500 C2523 1.252 1_655 S
O2501 Gd2458 2.288 1_545 S
O2501 C2516 1.293 1_455 S
O2502 Gd2459 2.388 1_655 S
O2502 C2516 1.252 . S
C2503 O2491 1.265 . S
C2503 O2492 1.242 . S
C2504 O2495 1.261 . S
C2504 O2496 1.252 . S
C2505 C2508 1.394 . S
C2505 C2510 1.370 . S
C2505 C2511 1.500 . S
C2506 C2509 1.383 . S
C2506 C2510 1.395 . S
C2507 C2508 1.396 . S
C2507 C2509 1.365 . S
C2507 H2524 0.929 . S
C2508 C2505 1.394 . S
C2508 C2507 1.396 . S
C2508 H2525 0.930 . S
C2509 C2506 1.383 . S
C2509 C2507 1.365 . S
C2509 H2526 0.931 . S
C2510 C2505 1.370 . S
C2510 C2506 1.395 . S
C2510 H2527 0.930 . S
C2511 Gd2458 2.805 . S
C2511 O2493 1.263 . S
C2511 O2494 1.252 . S
C2511 C2505 1.500 . S
C2512 H2474 0.930 . S
C2512 C2488 1.417 . S
C2512 C2513 1.329 . S
C2513 C2483 1.437 . S
C2513 H2484 0.929 . S
C2513 C2512 1.329 . S
H2514 C2487 0.955 . S
C2515 O2497 1.265 . S
C2515 O2498 1.242 . S
C2516 O2501 1.293 1_655 S
C2516 O2502 1.252 . S
C2517 C2520 1.394 1_455 S
C2517 C2522 1.370 . S
C2517 C2523 1.500 . S
C2518 C2521 1.344 1_455 S
C2518 C2522 1.395 . S
C2519 C2520 1.396 . S
C2519 C2521 1.394 . S
C2519 H2528 0.929 . S
C2520 C2517 1.394 1_655 S
C2520 C2519 1.396 . S
C2520 H2529 0.930 . S
C2521 C2518 1.344 1_655 S
C2521 C2519 1.394 . S
C2521 H2530 0.943 . S
C2522 C2517 1.370 . S
C2522 C2518 1.395 . S
C2522 H2531 0.930 . S
C2523 Gd2459 2.805 . S
C2523 O2499 1.263 . S
C2523 O2500 1.252 1_455 S
C2523 C2517 1.500 . S
H2524 C2507 0.929 . S
H2525 C2508 0.930 . S
H2526 C2509 0.931 . S
H2527 C2510 0.930 . S
H2528 C2519 0.929 . S
H2529 C2520 0.930 . S
H2530 C2521 0.943 . S
H2531 C2522 0.930 . S
C2532 C2534 1.422 . S
C2532 C2536 1.415 . S
C2532 N2538 1.369 . S
C2533 C2534 1.421 . S
C2533 C2535 1.417 . S
C2533 C2545 1.422 . S
C2534 C2532 1.422 . S
C2534 C2533 1.421 . S
C2534 N2544 1.359 . S
C2535 C2533 1.417 . S
C2535 C2537 1.329 . S
C2535 H2554 0.930 . S
C2536 C2532 1.415 . S
C2536 C2537 1.437 . S
C2536 C2540 1.413 . S
C2537 C2535 1.329 . S
C2537 C2536 1.437 . S
C2537 H2559 0.929 . S
N2538 C2532 1.369 . S
N2538 C2539 1.338 . S
N2538 Gd2543 2.622 . S
C2539 N2538 1.338 . S
C2539 C2541 1.378 . S
C2539 H2551 0.929 . S
C2540 C2536 1.413 . S
C2540 C2541 1.348 . S
C2540 H2556 0.931 . S
C2541 C2539 1.378 . S
C2541 C2540 1.348 . S
C2541 H2557 0.930 . S
Gd2542 N2562 2.622 . S
Gd2542 N2569 2.570 . S
Gd2542 O2576 2.353 . S
Gd2542 O2577 2.468 . S
Gd2542 O2578 2.427 . S
Gd2542 O2580 2.388 . S
Gd2542 O2581 2.386 . S
Gd2542 O2585 2.307 . S
Gd2542 C2595 2.805 . S
Gd2543 N2538 2.622 . S
Gd2543 N2544 2.570 . S
Gd2543 O2575 2.386 . S
Gd2543 O2579 2.307 . S
Gd2543 O2582 2.353 . S
Gd2543 O2583 2.468 . S
Gd2543 O2584 2.427 . S
Gd2543 O2586 2.388 . S
Gd2543 C2607 2.805 . S
N2544 C2534 1.359 . S
N2544 Gd2543 2.570 . S
N2544 C2546 1.343 . S
C2545 C2533 1.422 . S
C2545 C2547 1.321 . S
C2545 H2553 0.931 . S
C2546 N2544 1.343 . S
C2546 C2547 1.390 . S
C2546 H2548 0.931 . S
C2547 C2545 1.321 . S
C2547 C2546 1.390 . S
C2547 H2549 0.930 . S
H2548 C2546 0.931 . S
H2549 C2547 0.930 . S
H2550 C2573 0.931 . S
H2551 C2539 0.929 . S
H2552 C2574 0.930 . S
H2553 C2545 0.931 . S
H2554 C2535 0.930 . S
H2555 C2564 0.929 . S
H2556 C2540 0.931 . S
H2557 C2541 0.930 . S
H2558 C2596 0.930 . S
H2559 C2537 0.929 . S
H2560 C2565 0.931 . S
H2561 C2566 0.930 . S
N2562 Gd2542 2.622 . S
N2562 C2563 1.369 . S
N2562 C2564 1.338 . S
C2563 N2562 1.369 . S
C2563 C2567 1.415 . S
C2563 C2570 1.422 . S
C2564 H2555 0.929 . S
C2564 N2562 1.338 . S
C2564 C2566 1.378 . S
C2565 H2560 0.931 . S
C2565 C2566 1.348 . S
C2565 C2567 1.413 . S
C2566 H2561 0.930 . S
C2566 C2564 1.378 . S
C2566 C2565 1.348 . S
C2567 C2563 1.415 . S
C2567 C2565 1.413 . S
C2567 C2597 1.437 . S
H2568 C2597 0.929 . S
N2569 Gd2542 2.570 . S
N2569 C2570 1.359 . S
N2569 C2573 1.343 . S
C2570 C2563 1.422 . S
C2570 N2569 1.359 . S
C2570 C2572 1.421 . S
C2571 C2572 1.422 . S
C2571 C2574 1.321 . S
C2571 H2598 0.931 . S
C2572 C2570 1.421 . S
C2572 C2571 1.422 . S
C2572 C2596 1.417 . S
C2573 H2550 0.931 . S
C2573 N2569 1.343 . S
C2573 C2574 1.390 . S
C2574 H2552 0.930 . S
C2574 C2571 1.321 . S
C2574 C2573 1.390 . S
O2575 Gd2543 2.386 . S
O2575 C2587 1.265 . S
O2576 Gd2542 2.353 . S
O2576 C2587 1.242 . S
O2577 Gd2542 2.468 . S
O2577 C2595 1.263 . S
O2578 Gd2542 2.427 . S
O2578 C2595 1.252 . S
O2579 Gd2543 2.307 . S
O2579 C2588 1.261 . S
O2580 Gd2542 2.388 . S
O2580 C2588 1.252 . S
O2581 Gd2542 2.386 . S
O2581 C2599 1.265 . S
O2582 Gd2543 2.353 . S
O2582 C2599 1.242 . S
O2583 Gd2543 2.468 . S
O2583 C2607 1.263 . S
O2584 Gd2543 2.427 . S
O2584 C2607 1.252 . S
O2585 Gd2542 2.307 . S
O2585 C2600 1.261 . S
O2586 Gd2543 2.388 . S
O2586 C2600 1.252 . S
C2587 O2575 1.265 . S
C2587 O2576 1.242 . S
C2588 O2579 1.261 . S
C2588 O2580 1.252 . S
C2589 C2592 1.394 . S
C2589 C2594 1.370 . S
C2589 C2595 1.500 . S
C2590 C2593 1.383 . S
C2590 C2594 1.395 . S
C2591 C2592 1.396 . S
C2591 C2593 1.365 . S
C2591 H2608 0.929 . S
C2592 C2589 1.394 . S
C2592 C2591 1.396 . S
C2592 H2609 0.930 . S
C2593 C2590 1.383 . S
C2593 C2591 1.365 . S
C2593 H2610 0.931 . S
C2594 C2589 1.370 . S
C2594 C2590 1.395 . S
C2594 H2611 0.930 . S
C2595 Gd2542 2.805 . S
C2595 O2577 1.263 . S
C2595 O2578 1.252 . S
C2595 C2589 1.500 . S
C2596 H2558 0.930 . S
C2596 C2572 1.417 . S
C2596 C2597 1.329 . S
C2597 C2567 1.437 . S
C2597 H2568 0.929 . S
C2597 C2596 1.329 . S
H2598 C2571 0.931 . S
C2599 O2581 1.265 . S
C2599 O2582 1.242 . S
C2600 O2585 1.261 . S
C2600 O2586 1.252 . S
C2601 C2604 1.394 . S
C2601 C2606 1.370 . S
C2601 C2607 1.500 . S
C2602 C2605 1.383 . S
C2602 C2606 1.395 . S
C2603 C2604 1.396 . S
C2603 C2605 1.365 . S
C2603 H2612 0.929 . S
C2604 C2601 1.394 . S
C2604 C2603 1.396 . S
C2604 H2613 0.930 . S
C2605 C2602 1.383 . S
C2605 C2603 1.365 . S
C2605 H2614 0.931 . S
C2606 C2601 1.370 . S
C2606 C2602 1.395 . S
C2606 H2615 0.930 . S
C2607 Gd2543 2.805 . S
C2607 O2583 1.263 . S
C2607 O2584 1.252 . S
C2607 C2601 1.500 . S
H2608 C2591 0.929 . S
H2609 C2592 0.930 . S
H2610 C2593 0.931 . S
H2611 C2594 0.930 . S
H2612 C2603 0.929 . S
H2613 C2604 0.930 . S
H2614 C2605 0.931 . S
H2615 C2606 0.930 . S
C2616 C2618 1.422 1_565 S
C2616 C2620 1.415 . S
C2616 N2622 1.369 . S
C2617 C2618 1.421 . S
C2617 C2619 1.417 . S
C2617 C2629 1.422 . S
C2618 C2616 1.422 1_545 S
C2618 C2617 1.421 . S
C2618 N2628 1.359 . S
C2619 C2617 1.417 . S
C2619 C2621 1.329 1_545 S
C2619 H2638 0.930 . S
C2620 C2616 1.415 . S
C2620 C2621 1.437 . S
C2620 C2624 1.413 . S
C2621 C2619 1.329 1_565 S
C2621 C2620 1.437 . S
C2621 H2643 0.929 . S
N2622 C2616 1.369 . S
N2622 C2623 1.338 . S
N2622 Gd2627 2.622 1_565 S
C2623 N2622 1.338 . S
C2623 C2625 1.378 . S
C2623 H2635 0.929 . S
C2624 C2620 1.413 . S
C2624 C2625 1.348 . S
C2624 H2640 0.931 . S
C2625 C2623 1.378 . S
C2625 C2624 1.348 . S
C2625 H2641 0.930 . S
Gd2626 N2646 2.622 . S
Gd2626 N2653 2.570 . S
Gd2626 O2660 2.353 1_556 S
Gd2626 O2661 2.468 . S
Gd2626 O2662 2.427 . S
Gd2626 O2664 2.388 1_556 S
Gd2626 O2665 2.386 1_556 S
Gd2626 O2669 2.307 . S
Gd2626 C2679 2.805 . S
Gd2627 N2622 2.622 1_545 S
Gd2627 N2628 2.570 . S
Gd2627 O2659 2.386 . S
Gd2627 O2663 2.307 . S
Gd2627 O2666 2.353 . S
Gd2627 O2667 2.468 . S
Gd2627 O2668 2.427 1_545 S
Gd2627 O2670 2.388 1_545 S
Gd2627 C2691 2.805 . S
N2628 C2618 1.359 . S
N2628 Gd2627 2.570 . S
N2628 C2630 1.343 . S
C2629 C2617 1.422 . S
C2629 C2631 1.321 . S
C2629 H2637 0.931 . S
C2630 N2628 1.343 . S
C2630 C2631 1.390 . S
C2630 H2632 0.931 . S
C2631 C2629 1.321 . S
C2631 C2630 1.390 . S
C2631 H2633 0.930 . S
H2632 C2630 0.931 . S
H2633 C2631 0.930 . S
H2634 C2657 0.931 1_565 S
H2635 C2623 0.929 . S
H2636 C2658 0.930 . S
H2637 C2629 0.931 . S
H2638 C2619 0.930 . S
H2639 C2648 0.917 1_554 S
H2640 C2624 0.931 . S
H2641 C2625 0.930 . S
H2642 C2680 0.930 . S
H2643 C2621 0.929 . S
H2644 C2649 0.931 . S
H2645 C2650 0.930 . S
N2646 Gd2626 2.622 . S
N2646 C2647 1.369 . S
N2646 C2648 1.338 . S
C2647 N2646 1.369 . S
C2647 C2651 1.415 . S
C2647 C2654 1.422 . S
C2648 H2639 0.917 1_556 S
C2648 N2646 1.338 . S
C2648 C2650 1.378 . S
C2649 H2644 0.931 . S
C2649 C2650 1.348 . S
C2649 C2651 1.413 . S
C2650 H2645 0.930 . S
C2650 C2648 1.378 . S
C2650 C2649 1.348 . S
C2651 C2647 1.415 . S
C2651 C2649 1.413 . S
C2651 C2681 1.437 . S
H2652 C2681 0.929 . S
N2653 Gd2626 2.570 . S
N2653 C2654 1.359 . S
N2653 C2657 1.343 . S
C2654 C2647 1.422 . S
C2654 N2653 1.359 . S
C2654 C2656 1.421 . S
C2655 C2656 1.422 . S
C2655 C2658 1.321 1_545 S
C2655 H2682 0.931 1_545 S
C2656 C2654 1.421 . S
C2656 C2655 1.422 . S
C2656 C2680 1.417 . S
C2657 H2634 0.931 1_545 S
C2657 N2653 1.343 . S
C2657 C2658 1.390 1_545 S
C2658 H2636 0.930 . S
C2658 C2655 1.321 1_565 S
C2658 C2657 1.390 1_565 S
O2659 Gd2627 2.386 . S
O2659 C2671 1.265 . S
O2660 Gd2626 2.353 1_554 S
O2660 C2671 1.242 . S
O2661 Gd2626 2.468 . S
O2661 C2679 1.263 . S
O2662 Gd2626 2.427 . S
O2662 C2679 1.252 . S
O2663 Gd2627 2.307 . S
O2663 C2672 1.261 . S
O2664 Gd2626 2.388 1_554 S
O2664 C2672 1.252 . S
O2665 Gd2626 2.386 1_554 S
O2665 C2683 1.265 . S
O2666 Gd2627 2.353 . S
O2666 C2683 1.242 . S
O2667 Gd2627 2.468 . S
O2667 C2691 1.263 . S
O2668 Gd2627 2.427 1_565 S
O2668 C2691 1.253 1_565 S
O2669 Gd2626 2.307 . S
O2669 C2684 1.261 1_546 S
O2670 Gd2627 2.388 1_565 S
O2670 C2684 1.252 . S
C2671 O2659 1.265 . S
C2671 O2660 1.242 . S
C2672 O2663 1.261 . S
C2672 O2664 1.252 . S
C2673 C2676 1.394 . S
C2673 C2678 1.370 . S
C2673 C2679 1.500 . S
C2674 C2677 1.383 . S
C2674 C2678 1.395 . S
C2675 C2676 1.396 . S
C2675 C2677 1.365 . S
C2675 H2692 0.929 . S
C2676 C2673 1.394 . S
C2676 C2675 1.396 . S
C2676 H2693 0.930 . S
C2677 C2674 1.383 . S
C2677 C2675 1.365 . S
C2677 H2694 0.931 . S
C2678 C2673 1.370 . S
C2678 C2674 1.395 . S
C2678 H2695 0.930 . S
C2679 Gd2626 2.805 . S
C2679 O2661 1.263 . S
C2679 O2662 1.252 . S
C2679 C2673 1.500 . S
C2680 H2642 0.930 . S
C2680 C2656 1.417 . S
C2680 C2681 1.329 . S
C2681 C2651 1.437 . S
C2681 H2652 0.929 . S
C2681 C2680 1.329 . S
H2682 C2655 0.931 1_565 S
C2683 O2665 1.265 . S
C2683 O2666 1.242 . S
C2684 O2669 1.261 1_564 S
C2684 O2670 1.252 . S
C2685 C2688 1.394 . S
C2685 C2690 1.370 1_565 S
C2685 C2691 1.500 1_565 S
C2686 C2689 1.383 1_545 S
C2686 C2690 1.395 . S
C2687 C2688 1.396 . S
C2687 C2689 1.365 . S
C2687 H2696 0.929 . S
C2688 C2685 1.394 . S
C2688 C2687 1.396 . S
C2688 H2697 0.930 . S
C2689 C2686 1.383 1_565 S
C2689 C2687 1.365 . S
C2689 H2698 0.931 . S
C2690 C2685 1.370 1_545 S
C2690 C2686 1.395 . S
C2690 H2699 0.930 . S
C2691 Gd2627 2.805 . S
C2691 O2667 1.263 . S
C2691 O2668 1.253 1_545 S
C2691 C2685 1.500 1_545 S
H2692 C2675 0.929 . S
H2693 C2676 0.930 . S
H2694 C2677 0.931 . S
H2695 C2678 0.930 . S
H2696 C2687 0.929 . S
H2697 C2688 0.930 . S
H2698 C2689 0.931 . S
H2699 C2690 0.930 . S
C2700 C2702 1.422 . S
C2700 C2704 1.415 . S
C2700 N2706 1.369 . S
C2701 C2702 1.421 . S
C2701 C2703 1.417 . S
C2701 C2713 1.422 . S
C2702 C2700 1.422 . S
C2702 C2701 1.421 . S
C2702 N2712 1.359 . S
C2703 C2701 1.417 . S
C2703 C2705 1.329 . S
C2703 H2722 0.930 . S
C2704 C2700 1.415 . S
C2704 C2705 1.437 . S
C2704 C2708 1.413 . S
C2705 C2703 1.329 . S
C2705 C2704 1.437 . S
C2705 H2727 0.929 . S
N2706 C2700 1.369 . S
N2706 C2707 1.338 . S
N2706 Gd2711 2.622 . S
C2707 N2706 1.338 . S
C2707 C2709 1.378 . S
C2707 H2719 0.929 . S
C2708 C2704 1.413 . S
C2708 C2709 1.348 . S
C2708 H2724 0.931 . S
C2709 C2707 1.378 . S
C2709 C2708 1.348 . S
C2709 H2725 0.930 . S
Gd2710 N2730 2.622 . S
Gd2710 N2737 2.570 . S
Gd2710 O2744 2.353 . S
Gd2710 O2745 2.468 . S
Gd2710 O2746 2.427 . S
Gd2710 O2748 2.388 . S
Gd2710 O2749 2.386 . S
Gd2710 O2753 2.307 . S
Gd2710 C2763 2.805 . S
Gd2711 N2706 2.622 . S
Gd2711 N2712 2.570 . S
Gd2711 O2743 2.386 . S
Gd2711 O2747 2.307 . S
Gd2711 O2750 2.353 . S
Gd2711 O2751 2.468 . S
Gd2711 O2752 2.427 . S
Gd2711 O2754 2.388 . S
Gd2711 C2775 2.805 . S
N2712 C2702 1.359 . S
N2712 Gd2711 2.570 . S
N2712 C2714 1.343 . S
C2713 C2701 1.422 . S
C2713 C2715 1.321 . S
C2713 H2721 0.931 . S
C2714 N2712 1.343 . S
C2714 C2715 1.390 . S
C2714 H2716 0.931 . S
C2715 C2713 1.321 . S
C2715 C2714 1.390 . S
C2715 H2717 0.930 . S
H2716 C2714 0.931 . S
H2717 C2715 0.930 . S
H2718 C2741 0.931 . S
H2719 C2707 0.929 . S
H2720 C2742 0.930 . S
H2721 C2713 0.931 . S
H2722 C2703 0.930 . S
H2723 C2732 0.929 . S
H2724 C2708 0.931 . S
H2725 C2709 0.930 . S
H2726 C2764 0.930 . S
H2727 C2705 0.929 . S
H2728 C2733 0.931 . S
H2729 C2734 0.930 . S
N2730 Gd2710 2.622 . S
N2730 C2731 1.369 . S
N2730 C2732 1.338 . S
C2731 N2730 1.369 . S
C2731 C2735 1.415 . S
C2731 C2738 1.422 . S
C2732 H2723 0.929 . S
C2732 N2730 1.338 . S
C2732 C2734 1.378 . S
C2733 H2728 0.931 . S
C2733 C2734 1.348 . S
C2733 C2735 1.413 . S
C2734 H2729 0.930 . S
C2734 C2732 1.378 . S
C2734 C2733 1.348 . S
C2735 C2731 1.415 . S
C2735 C2733 1.413 . S
C2735 C2765 1.437 . S
H2736 C2765 0.929 . S
N2737 Gd2710 2.570 . S
N2737 C2738 1.359 . S
N2737 C2741 1.343 . S
C2738 C2731 1.422 . S
C2738 N2737 1.359 . S
C2738 C2740 1.421 . S
C2739 C2740 1.422 . S
C2739 C2742 1.321 . S
C2739 H2766 0.931 . S
C2740 C2738 1.421 . S
C2740 C2739 1.422 . S
C2740 C2764 1.417 . S
C2741 H2718 0.931 . S
C2741 N2737 1.343 . S
C2741 C2742 1.390 . S
C2742 H2720 0.930 . S
C2742 C2739 1.321 . S
C2742 C2741 1.390 . S
O2743 Gd2711 2.386 . S
O2743 C2755 1.265 . S
O2744 Gd2710 2.353 . S
O2744 C2755 1.242 . S
O2745 Gd2710 2.468 . S
O2745 C2763 1.263 . S
O2746 Gd2710 2.427 . S
O2746 C2763 1.252 . S
O2747 Gd2711 2.307 . S
O2747 C2756 1.261 . S
O2748 Gd2710 2.388 . S
O2748 C2756 1.252 . S
O2749 Gd2710 2.386 . S
O2749 C2767 1.265 . S
O2750 Gd2711 2.353 . S
O2750 C2767 1.242 . S
O2751 Gd2711 2.468 . S
O2751 C2775 1.263 . S
O2752 Gd2711 2.427 . S
O2752 C2775 1.252 . S
O2753 Gd2710 2.307 . S
O2753 C2768 1.261 . S
O2754 Gd2711 2.388 . S
O2754 C2768 1.252 . S
C2755 O2743 1.265 . S
C2755 O2744 1.242 . S
C2756 O2747 1.261 . S
C2756 O2748 1.252 . S
C2757 C2760 1.394 . S
C2757 C2762 1.370 . S
C2757 C2763 1.500 . S
C2758 C2761 1.383 . S
C2758 C2762 1.395 . S
C2759 C2760 1.396 . S
C2759 C2761 1.365 . S
C2759 H2776 0.929 . S
C2760 C2757 1.394 . S
C2760 C2759 1.396 . S
C2760 H2777 0.930 . S
C2761 C2758 1.383 . S
C2761 C2759 1.365 . S
C2761 H2778 0.931 . S
C2762 C2757 1.370 . S
C2762 C2758 1.395 . S
C2762 H2779 0.930 . S
C2763 Gd2710 2.805 . S
C2763 O2745 1.263 . S
C2763 O2746 1.252 . S
C2763 C2757 1.500 . S
C2764 H2726 0.930 . S
C2764 C2740 1.417 . S
C2764 C2765 1.329 . S
C2765 C2735 1.437 . S
C2765 H2736 0.929 . S
C2765 C2764 1.329 . S
H2766 C2739 0.931 . S
C2767 O2749 1.265 . S
C2767 O2750 1.242 . S
C2768 O2753 1.261 . S
C2768 O2754 1.252 . S
C2769 C2772 1.394 . S
C2769 C2774 1.370 . S
C2769 C2775 1.500 . S
C2770 C2773 1.383 . S
C2770 C2774 1.395 . S
C2771 C2772 1.396 . S
C2771 C2773 1.365 . S
C2771 H2780 0.929 . S
C2772 C2769 1.394 . S
C2772 C2771 1.396 . S
C2772 H2781 0.930 . S
C2773 C2770 1.383 . S
C2773 C2771 1.365 . S
C2773 H2782 0.931 . S
C2774 C2769 1.370 . S
C2774 C2770 1.395 . S
C2774 H2783 0.930 . S
C2775 Gd2711 2.805 . S
C2775 O2751 1.263 . S
C2775 O2752 1.252 . S
C2775 C2769 1.500 . S
H2776 C2759 0.929 . S
H2777 C2760 0.930 . S
H2778 C2761 0.931 . S
H2779 C2762 0.930 . S
H2780 C2771 0.929 . S
H2781 C2772 0.930 . S
H2782 C2773 0.931 . S
H2783 C2774 0.930 . S
C2784 C2786 1.422 . S
C2784 C2788 1.415 . S
C2784 N2790 1.369 . S
C2785 C2786 1.421 . S
C2785 C2787 1.417 . S
C2785 C2797 1.422 . S
C2786 C2784 1.422 . S
C2786 C2785 1.421 . S
C2786 N2796 1.359 . S
C2787 C2785 1.417 . S
C2787 C2789 1.329 . S
C2787 H2806 0.930 . S
C2788 C2784 1.415 . S
C2788 C2789 1.437 . S
C2788 C2792 1.413 . S
C2789 C2787 1.329 . S
C2789 C2788 1.437 . S
C2789 H2811 0.929 . S
N2790 C2784 1.369 . S
N2790 C2791 1.338 . S
N2790 Gd2795 2.622 . S
C2791 N2790 1.338 . S
C2791 C2793 1.378 . S
C2791 H2803 0.929 . S
C2792 C2788 1.413 . S
C2792 C2793 1.348 . S
C2792 H2808 0.931 . S
C2793 C2791 1.378 . S
C2793 C2792 1.348 . S
C2793 H2809 0.930 . S
Gd2794 N2814 2.622 1_554 S
Gd2794 N2821 2.570 1_554 S
Gd2794 O2828 2.353 . S
Gd2794 O2829 2.468 . S
Gd2794 O2830 2.427 . S
Gd2794 O2832 2.388 . S
Gd2794 O2833 2.386 1_554 S
Gd2794 O2837 2.307 . S
Gd2794 C2847 2.805 . S
Gd2795 N2790 2.622 . S
Gd2795 N2796 2.570 . S
Gd2795 O2827 2.386 . S
Gd2795 O2831 2.307 . S
Gd2795 O2834 2.353 1_554 S
Gd2795 O2835 2.468 . S
Gd2795 O2836 2.427 . S
Gd2795 O2838 2.388 . S
Gd2795 C2859 2.805 . S
N2796 C2786 1.359 . S
N2796 Gd2795 2.570 . S
N2796 C2798 1.343 . S
C2797 C2785 1.422 . S
C2797 C2799 1.321 . S
C2797 H2805 0.931 . S
C2798 N2796 1.343 . S
C2798 C2799 1.390 . S
C2798 H2800 0.931 . S
C2799 C2797 1.321 . S
C2799 C2798 1.390 . S
C2799 H2801 0.930 . S
H2800 C2798 0.931 . S
H2801 C2799 0.930 . S
H2802 C2825 0.936 1_554 S
H2803 C2791 0.929 . S
H2804 C2826 0.930 . S
H2805 C2797 0.931 . S
H2806 C2787 0.930 . S
H2807 C2816 0.889 1_554 S
H2808 C2792 0.931 . S
H2809 C2793 0.930 . S
H2810 C2848 0.930 . S
H2811 C2789 0.929 . S
H2812 C2817 0.931 . S
H2813 C2818 0.930 . S
N2814 Gd2794 2.622 1_556 S
N2814 C2815 1.369 . S
N2814 C2816 1.338 . S
C2815 N2814 1.369 . S
C2815 C2819 1.415 . S
C2815 C2822 1.422 . S
C2816 H2807 0.889 1_556 S
C2816 N2814 1.338 . S
C2816 C2818 1.378 . S
C2817 H2812 0.931 . S
C2817 C2818 1.348 . S
C2817 C2819 1.413 . S
C2818 H2813 0.930 . S
C2818 C2816 1.378 . S
C2818 C2817 1.348 . S
C2819 C2815 1.415 . S
C2819 C2817 1.413 . S
C2819 C2849 1.437 . S
H2820 C2849 0.929 . S
N2821 Gd2794 2.570 1_556 S
N2821 C2822 1.359 . S
N2821 C2825 1.343 . S
C2822 C2815 1.422 . S
C2822 N2821 1.359 . S
C2822 C2824 1.421 . S
C2823 C2824 1.422 . S
C2823 C2826 1.321 . S
C2823 H2850 0.931 . S
C2824 C2822 1.421 . S
C2824 C2823 1.422 . S
C2824 C2848 1.417 . S
C2825 H2802 0.936 1_556 S
C2825 N2821 1.343 . S
C2825 C2826 1.390 . S
C2826 H2804 0.930 . S
C2826 C2823 1.321 . S
C2826 C2825 1.390 . S
O2827 Gd2795 2.386 . S
O2827 C2839 1.265 . S
O2828 Gd2794 2.353 . S
O2828 C2839 1.242 . S
O2829 Gd2794 2.468 . S
O2829 C2847 1.263 . S
O2830 Gd2794 2.427 . S
O2830 C2847 1.252 . S
O2831 Gd2795 2.307 . S
O2831 C2840 1.261 . S
O2832 Gd2794 2.388 . S
O2832 C2840 1.252 . S
O2833 Gd2794 2.386 1_556 S
O2833 C2851 1.265 . S
O2834 Gd2795 2.353 1_556 S
O2834 C2851 1.242 . S
O2835 Gd2795 2.468 . S
O2835 C2859 1.263 . S
O2836 Gd2795 2.427 . S
O2836 C2859 1.252 . S
O2837 Gd2794 2.307 . S
O2837 C2852 1.261 . S
O2838 Gd2795 2.388 . S
O2838 C2852 1.252 . S
C2839 O2827 1.265 . S
C2839 O2828 1.242 . S
C2840 O2831 1.261 . S
C2840 O2832 1.252 . S
C2841 C2844 1.394 . S
C2841 C2846 1.370 . S
C2841 C2847 1.500 . S
C2842 C2845 1.383 . S
C2842 C2846 1.395 . S
C2843 C2844 1.396 . S
C2843 C2845 1.365 . S
C2843 H2860 0.929 . S
C2844 C2841 1.394 . S
C2844 C2843 1.396 . S
C2844 H2861 0.930 . S
C2845 C2842 1.383 . S
C2845 C2843 1.365 . S
C2845 H2862 0.931 . S
C2846 C2841 1.370 . S
C2846 C2842 1.395 . S
C2846 H2863 0.930 . S
C2847 Gd2794 2.805 . S
C2847 O2829 1.263 . S
C2847 O2830 1.252 . S
C2847 C2841 1.500 . S
C2848 H2810 0.930 . S
C2848 C2824 1.417 . S
C2848 C2849 1.329 . S
C2849 C2819 1.437 . S
C2849 H2820 0.929 . S
C2849 C2848 1.329 . S
H2850 C2823 0.931 . S
C2851 O2833 1.265 . S
C2851 O2834 1.242 . S
C2852 O2837 1.261 . S
C2852 O2838 1.252 . S
C2853 C2856 1.394 . S
C2853 C2858 1.370 . S
C2853 C2859 1.500 1_556 S
C2854 C2857 1.383 . S
C2854 C2858 1.395 . S
C2855 C2856 1.396 . S
C2855 C2857 1.365 . S
C2855 H2864 0.929 . S
C2856 C2853 1.394 . S
C2856 C2855 1.396 . S
C2856 H2865 0.930 . S
C2857 C2854 1.383 . S
C2857 C2855 1.365 . S
C2857 H2866 0.931 . S
C2858 C2853 1.370 . S
C2858 C2854 1.395 . S
C2858 H2867 0.930 . S
C2859 Gd2795 2.805 . S
C2859 O2835 1.263 . S
C2859 O2836 1.252 . S
C2859 C2853 1.500 1_554 S
H2860 C2843 0.929 . S
H2861 C2844 0.930 . S
H2862 C2845 0.931 . S
H2863 C2846 0.930 . S
H2864 C2855 0.929 . S
H2865 C2856 0.930 . S
H2866 C2857 0.931 . S
H2867 C2858 0.930 . S
C2868 C2870 1.422 . S
C2868 C2872 1.415 . S
C2868 N2874 1.369 . S
C2869 C2870 1.421 . S
C2869 C2871 1.417 . S
C2869 C2881 1.422 . S
C2870 C2868 1.422 . S
C2870 C2869 1.421 . S
C2870 N2880 1.359 . S
C2871 C2869 1.417 . S
C2871 C2873 1.329 . S
C2871 H2890 0.930 . S
C2872 C2868 1.415 . S
C2872 C2873 1.437 . S
C2872 C2876 1.413 . S
C2873 C2871 1.329 . S
C2873 C2872 1.437 . S
C2873 H2895 0.929 . S
N2874 C2868 1.369 . S
N2874 C2875 1.338 . S
N2874 Gd2879 2.622 . S
C2875 N2874 1.338 . S
C2875 C2877 1.378 . S
C2875 H2887 0.929 . S
C2876 C2872 1.413 . S
C2876 C2877 1.348 . S
C2876 H2892 0.931 . S
C2877 C2875 1.378 . S
C2877 C2876 1.348 . S
C2877 H2893 0.930 . S
Gd2878 N2898 2.622 . S
Gd2878 N2905 2.570 . S
Gd2878 O2912 2.353 . S
Gd2878 O2913 2.468 . S
Gd2878 O2914 2.427 . S
Gd2878 O2916 2.388 . S
Gd2878 O2917 2.386 . S
Gd2878 O2921 2.307 . S
Gd2878 C2931 2.805 . S
Gd2879 N2874 2.622 . S
Gd2879 N2880 2.570 . S
Gd2879 O2911 2.386 . S
Gd2879 O2915 2.307 . S
Gd2879 O2918 2.353 . S
Gd2879 O2919 2.468 . S
Gd2879 O2920 2.427 . S
Gd2879 O2922 2.388 . S
Gd2879 C2943 2.805 . S
N2880 C2870 1.359 . S
N2880 Gd2879 2.570 . S
N2880 C2882 1.343 . S
C2881 C2869 1.422 . S
C2881 C2883 1.321 . S
C2881 H2889 0.931 . S
C2882 N2880 1.343 . S
C2882 C2883 1.390 . S
C2882 H2884 0.931 . S
C2883 C2881 1.321 . S
C2883 C2882 1.390 . S
C2883 H2885 0.930 . S
H2884 C2882 0.931 . S
H2885 C2883 0.930 . S
H2886 C2909 0.931 . S
H2887 C2875 0.929 . S
H2888 C2910 0.930 . S
H2889 C2881 0.931 . S
H2890 C2871 0.930 . S
H2891 C2900 0.929 . S
H2892 C2876 0.931 . S
H2893 C2877 0.930 . S
H2894 C2932 0.930 . S
H2895 C2873 0.929 . S
H2896 C2901 0.931 . S
H2897 C2902 0.930 . S
N2898 Gd2878 2.622 . S
N2898 C2899 1.369 . S
N2898 C2900 1.338 . S
C2899 N2898 1.369 . S
C2899 C2903 1.415 . S
C2899 C2906 1.422 . S
C2900 H2891 0.929 . S
C2900 N2898 1.338 . S
C2900 C2902 1.378 . S
C2901 H2896 0.931 . S
C2901 C2902 1.348 . S
C2901 C2903 1.413 . S
C2902 H2897 0.930 . S
C2902 C2900 1.378 . S
C2902 C2901 1.348 . S
C2903 C2899 1.415 . S
C2903 C2901 1.413 . S
C2903 C2933 1.437 . S
H2904 C2933 0.929 . S
N2905 Gd2878 2.570 . S
N2905 C2906 1.359 . S
N2905 C2909 1.343 . S
C2906 C2899 1.422 . S
C2906 N2905 1.359 . S
C2906 C2908 1.421 . S
C2907 C2908 1.422 . S
C2907 C2910 1.321 . S
C2907 H2934 0.931 . S
C2908 C2906 1.421 . S
C2908 C2907 1.422 . S
C2908 C2932 1.417 . S
C2909 H2886 0.931 . S
C2909 N2905 1.343 . S
C2909 C2910 1.390 . S
C2910 H2888 0.930 . S
C2910 C2907 1.321 . S
C2910 C2909 1.390 . S
O2911 Gd2879 2.386 . S
O2911 C2923 1.265 . S
O2912 Gd2878 2.353 . S
O2912 C2923 1.242 . S
O2913 Gd2878 2.468 . S
O2913 C2931 1.263 . S
O2914 Gd2878 2.427 . S
O2914 C2931 1.252 . S
O2915 Gd2879 2.307 . S
O2915 C2924 1.261 . S
O2916 Gd2878 2.388 . S
O2916 C2924 1.252 . S
O2917 Gd2878 2.386 . S
O2917 C2935 1.265 . S
O2918 Gd2879 2.353 . S
O2918 C2935 1.242 . S
O2919 Gd2879 2.468 . S
O2919 C2943 1.263 . S
O2920 Gd2879 2.427 . S
O2920 C2943 1.252 . S
O2921 Gd2878 2.307 . S
O2921 C2936 1.261 . S
O2922 Gd2879 2.388 . S
O2922 C2936 1.252 . S
C2923 O2911 1.265 . S
C2923 O2912 1.242 . S
C2924 O2915 1.261 . S
C2924 O2916 1.252 . S
C2925 C2928 1.394 . S
C2925 C2930 1.370 . S
C2925 C2931 1.500 . S
C2926 C2929 1.383 . S
C2926 C2930 1.395 . S
C2927 C2928 1.396 . S
C2927 C2929 1.365 . S
C2927 H2944 0.929 . S
C2928 C2925 1.394 . S
C2928 C2927 1.396 . S
C2928 H2945 0.930 . S
C2929 C2926 1.383 . S
C2929 C2927 1.365 . S
C2929 H2946 0.931 . S
C2930 C2925 1.370 . S
C2930 C2926 1.395 . S
C2930 H2947 0.930 . S
C2931 Gd2878 2.805 . S
C2931 O2913 1.263 . S
C2931 O2914 1.252 . S
C2931 C2925 1.500 . S
C2932 H2894 0.930 . S
C2932 C2908 1.417 . S
C2932 C2933 1.329 . S
C2933 C2903 1.437 . S
C2933 H2904 0.929 . S
C2933 C2932 1.329 . S
H2934 C2907 0.931 . S
C2935 O2917 1.265 . S
C2935 O2918 1.242 . S
C2936 O2921 1.261 . S
C2936 O2922 1.252 . S
C2937 C2940 1.394 . S
C2937 C2942 1.370 . S
C2937 C2943 1.500 . S
C2938 C2941 1.383 . S
C2938 C2942 1.395 . S
C2939 C2940 1.396 . S
C2939 C2941 1.365 . S
C2939 H2948 0.929 . S
C2940 C2937 1.394 . S
C2940 C2939 1.396 . S
C2940 H2949 0.930 . S
C2941 C2938 1.383 . S
C2941 C2939 1.365 . S
C2941 H2950 0.931 . S
C2942 C2937 1.370 . S
C2942 C2938 1.395 . S
C2942 H2951 0.930 . S
C2943 Gd2879 2.805 . S
C2943 O2919 1.263 . S
C2943 O2920 1.252 . S
C2943 C2937 1.500 . S
H2944 C2927 0.929 . S
H2945 C2928 0.930 . S
H2946 C2929 0.931 . S
H2947 C2930 0.930 . S
H2948 C2939 0.929 . S
H2949 C2940 0.930 . S
H2950 C2941 0.931 . S
H2951 C2942 0.930 . S
C2952 C2954 1.422 . S
C2952 C2956 1.415 . S
C2952 N2958 1.369 . S
C2953 C2954 1.421 . S
C2953 C2955 1.417 . S
C2953 C2965 1.422 . S
C2954 C2952 1.422 . S
C2954 C2953 1.421 . S
C2954 N2964 1.359 . S
C2955 C2953 1.417 . S
C2955 C2957 1.329 . S
C2955 H2974 0.930 . S
C2956 C2952 1.415 . S
C2956 C2957 1.437 . S
C2956 C2960 1.413 . S
C2957 C2955 1.329 . S
C2957 C2956 1.437 . S
C2957 H2979 0.929 . S
N2958 C2952 1.369 . S
N2958 C2959 1.338 . S
N2958 Gd2963 2.622 . S
C2959 N2958 1.338 . S
C2959 C2961 1.378 . S
C2959 H2971 0.929 . S
C2960 C2956 1.413 . S
C2960 C2961 1.348 . S
C2960 H2976 0.931 . S
C2961 C2959 1.378 . S
C2961 C2960 1.348 . S
C2961 H2977 0.930 . S
Gd2962 N2982 2.622 1_455 S
Gd2962 N2989 2.570 1_455 S
Gd2962 O2996 2.353 . S
Gd2962 O2997 2.468 . S
Gd2962 O2998 2.427 . S
Gd2962 O3000 2.388 . S
Gd2962 O3001 2.386 1_455 S
Gd2962 O3005 2.307 . S
Gd2962 C3015 2.805 . S
Gd2963 N2958 2.622 . S
Gd2963 N2964 2.570 . S
Gd2963 O2995 2.386 . S
Gd2963 O2999 2.307 . S
Gd2963 O3002 2.353 1_455 S
Gd2963 O3003 2.468 . S
Gd2963 O3004 2.427 . S
Gd2963 O3006 2.388 . S
Gd2963 C3027 2.805 . S
N2964 C2954 1.359 . S
N2964 Gd2963 2.570 . S
N2964 C2966 1.343 . S
C2965 C2953 1.422 . S
C2965 C2967 1.321 . S
C2965 H2973 0.931 . S
C2966 N2964 1.343 . S
C2966 C2967 1.390 . S
C2966 H2968 0.931 . S
C2967 C2965 1.321 . S
C2967 C2966 1.390 . S
C2967 H2969 0.930 . S
H2968 C2966 0.931 . S
H2969 C2967 0.930 . S
H2970 C2993 0.931 1_455 S
H2971 C2959 0.929 . S
H2972 C2994 0.930 . S
H2973 C2965 0.931 . S
H2974 C2955 0.930 . S
H2975 C2984 0.903 1_455 S
H2976 C2960 0.931 . S
H2977 C2961 0.930 . S
H2978 C3016 0.930 . S
H2979 C2957 0.929 . S
H2980 C2985 0.931 . S
H2981 C2986 0.930 . S
N2982 Gd2962 2.622 1_655 S
N2982 C2983 1.369 . S
N2982 C2984 1.332 . S
C2983 N2982 1.369 . S
C2983 C2987 1.415 . S
C2983 C2990 1.422 . S
C2984 H2975 0.903 1_655 S
C2984 N2982 1.332 . S
C2984 C2986 1.411 . S
C2985 H2980 0.931 . S
C2985 C2986 1.348 . S
C2985 C2987 1.413 . S
C2986 H2981 0.930 . S
C2986 C2984 1.411 . S
C2986 C2985 1.348 . S
C2987 C2983 1.415 . S
C2987 C2985 1.413 . S
C2987 C3017 1.437 . S
H2988 C3017 0.929 . S
N2989 Gd2962 2.570 1_655 S
N2989 C2990 1.359 . S
N2989 C2993 1.343 . S
C2990 C2983 1.422 . S
C2990 N2989 1.359 . S
C2990 C2992 1.421 . S
C2991 C2992 1.422 . S
C2991 C2994 1.321 . S
C2991 H3018 0.931 . S
C2992 C2990 1.421 . S
C2992 C2991 1.422 . S
C2992 C3016 1.417 . S
C2993 H2970 0.931 1_655 S
C2993 N2989 1.343 . S
C2993 C2994 1.390 . S
C2994 H2972 0.930 . S
C2994 C2991 1.321 . S
C2994 C2993 1.390 . S
O2995 Gd2963 2.386 . S
O2995 C3007 1.265 . S
O2996 Gd2962 2.353 . S
O2996 C3007 1.242 . S
O2997 Gd2962 2.468 . S
O2997 C3015 1.263 . S
O2998 Gd2962 2.427 . S
O2998 C3015 1.252 . S
O2999 Gd2963 2.307 . S
O2999 C3008 1.261 . S
O3000 Gd2962 2.388 . S
O3000 C3008 1.252 . S
O3001 Gd2962 2.386 1_655 S
O3001 C3019 1.265 . S
O3002 Gd2963 2.353 1_655 S
O3002 C3019 1.242 . S
O3003 Gd2963 2.468 . S
O3003 C3027 1.263 . S
O3004 Gd2963 2.427 . S
O3004 C3027 1.252 . S
O3005 Gd2962 2.307 . S
O3005 C3020 1.261 . S
O3006 Gd2963 2.388 . S
O3006 C3020 1.252 . S
C3007 O2995 1.265 . S
C3007 O2996 1.242 . S
C3008 O2999 1.261 . S
C3008 O3000 1.252 . S
C3009 C3012 1.394 . S
C3009 C3014 1.370 . S
C3009 C3015 1.500 . S
C3010 C3013 1.383 . S
C3010 C3014 1.395 . S
C3011 C3012 1.396 . S
C3011 C3013 1.365 . S
C3011 H3028 0.929 . S
C3012 C3009 1.394 . S
C3012 C3011 1.396 . S
C3012 H3029 0.930 . S
C3013 C3010 1.383 . S
C3013 C3011 1.365 . S
C3013 H3030 0.931 . S
C3014 C3009 1.370 . S
C3014 C3010 1.395 . S
C3014 H3031 0.930 . S
C3015 Gd2962 2.805 . S
C3015 O2997 1.263 . S
C3015 O2998 1.252 . S
C3015 C3009 1.500 . S
C3016 H2978 0.930 . S
C3016 C2992 1.417 . S
C3016 C3017 1.329 . S
C3017 C2987 1.437 . S
C3017 H2988 0.929 . S
C3017 C3016 1.329 . S
H3018 C2991 0.931 . S
C3019 O3001 1.265 . S
C3019 O3002 1.242 . S
C3020 O3005 1.261 . S
C3020 O3006 1.252 . S
C3021 C3024 1.394 . S
C3021 C3026 1.370 . S
C3021 C3027 1.500 1_655 S
C3022 C3025 1.383 . S
C3022 C3026 1.395 . S
C3023 C3024 1.396 . S
C3023 C3025 1.365 . S
C3023 H3032 0.929 . S
C3024 C3021 1.394 . S
C3024 C3023 1.396 . S
C3024 H3033 0.930 . S
C3025 C3022 1.383 . S
C3025 C3023 1.365 . S
C3025 H3034 0.931 . S
C3026 C3021 1.370 . S
C3026 C3022 1.395 . S
C3026 H3035 0.930 . S
C3027 Gd2963 2.805 . S
C3027 O3003 1.263 . S
C3027 O3004 1.252 . S
C3027 C3021 1.500 1_455 S
H3028 C3011 0.929 . S
H3029 C3012 0.930 . S
H3030 C3013 0.931 . S
H3031 C3014 0.930 . S
H3032 C3023 0.929 . S
H3033 C3024 0.930 . S
H3034 C3025 0.931 . S
H3035 C3026 0.930 . S
C3036 C3038 1.422 . S
C3036 C3040 1.415 . S
C3036 N3042 1.369 . S
C3037 C3038 1.421 . S
C3037 C3039 1.417 . S
C3037 C3049 1.422 . S
C3038 C3036 1.422 . S
C3038 C3037 1.421 . S
C3038 N3048 1.359 . S
C3039 C3037 1.417 . S
C3039 C3041 1.329 . S
C3039 H3058 0.930 . S
C3040 C3036 1.415 . S
C3040 C3041 1.437 . S
C3040 C3044 1.413 . S
C3041 C3039 1.329 . S
C3041 C3040 1.437 . S
C3041 H3063 0.929 . S
N3042 C3036 1.369 . S
N3042 C3043 1.338 . S
N3042 Gd3047 2.622 . S
C3043 N3042 1.338 . S
C3043 C3045 1.378 . S
C3043 H3055 0.929 . S
C3044 C3040 1.413 . S
C3044 C3045 1.348 . S
C3044 H3060 0.931 . S
C3045 C3043 1.378 . S
C3045 C3044 1.348 . S
C3045 H3061 0.930 . S
Gd3046 N3066 2.622 . S
Gd3046 N3073 2.570 . S
Gd3046 O3080 2.353 . S
Gd3046 O3081 2.468 . S
Gd3046 O3082 2.427 . S
Gd3046 O3084 2.388 . S
Gd3046 O3085 2.386 . S
Gd3046 O3089 2.307 . S
Gd3046 C3099 2.805 . S
Gd3047 N3042 2.622 . S
Gd3047 N3048 2.570 . S
Gd3047 O3079 2.386 . S
Gd3047 O3083 2.307 . S
Gd3047 O3086 2.353 . S
Gd3047 O3087 2.468 . S
Gd3047 O3088 2.427 . S
Gd3047 O3090 2.388 . S
Gd3047 C3111 2.805 . S
N3048 C3038 1.359 . S
N3048 Gd3047 2.570 . S
N3048 C3050 1.343 . S
C3049 C3037 1.422 . S
C3049 C3051 1.321 . S
C3049 H3057 0.931 . S
C3050 N3048 1.343 . S
C3050 C3051 1.390 . S
C3050 H3052 0.931 . S
C3051 C3049 1.321 . S
C3051 C3050 1.390 . S
C3051 H3053 0.930 . S
H3052 C3050 0.931 . S
H3053 C3051 0.930 . S
H3054 C3077 0.931 . S
H3055 C3043 0.929 . S
H3056 C3078 0.930 . S
H3057 C3049 0.931 . S
H3058 C3039 0.930 . S
H3059 C3068 0.929 . S
H3060 C3044 0.931 . S
H3061 C3045 0.930 . S
H3062 C3100 0.930 . S
H3063 C3041 0.929 . S
H3064 C3069 0.931 . S
H3065 C3070 0.930 . S
N3066 Gd3046 2.622 . S
N3066 C3067 1.369 . S
N3066 C3068 1.338 . S
C3067 N3066 1.369 . S
C3067 C3071 1.415 . S
C3067 C3074 1.422 . S
C3068 H3059 0.929 . S
C3068 N3066 1.338 . S
C3068 C3070 1.378 . S
C3069 H3064 0.931 . S
C3069 C3070 1.348 . S
C3069 C3071 1.413 . S
C3070 H3065 0.930 . S
C3070 C3068 1.378 . S
C3070 C3069 1.348 . S
C3071 C3067 1.415 . S
C3071 C3069 1.413 . S
C3071 C3101 1.437 . S
H3072 C3101 0.929 . S
N3073 Gd3046 2.570 . S
N3073 C3074 1.359 . S
N3073 C3077 1.343 . S
C3074 C3067 1.422 . S
C3074 N3073 1.359 . S
C3074 C3076 1.421 . S
C3075 C3076 1.422 . S
C3075 C3078 1.321 . S
C3075 H3102 0.931 . S
C3076 C3074 1.421 . S
C3076 C3075 1.422 . S
C3076 C3100 1.417 . S
C3077 H3054 0.931 . S
C3077 N3073 1.343 . S
C3077 C3078 1.390 . S
C3078 H3056 0.930 . S
C3078 C3075 1.321 . S
C3078 C3077 1.390 . S
O3079 Gd3047 2.386 . S
O3079 C3091 1.265 . S
O3080 Gd3046 2.353 . S
O3080 C3091 1.242 . S
O3081 Gd3046 2.468 . S
O3081 C3099 1.263 . S
O3082 Gd3046 2.427 . S
O3082 C3099 1.252 . S
O3083 Gd3047 2.307 . S
O3083 C3092 1.261 . S
O3084 Gd3046 2.388 . S
O3084 C3092 1.252 . S
O3085 Gd3046 2.386 . S
O3085 C3103 1.265 . S
O3086 Gd3047 2.353 . S
O3086 C3103 1.242 . S
O3087 Gd3047 2.468 . S
O3087 C3111 1.263 . S
O3088 Gd3047 2.427 . S
O3088 C3111 1.252 . S
O3089 Gd3046 2.307 . S
O3089 C3104 1.261 . S
O3090 Gd3047 2.388 . S
O3090 C3104 1.252 . S
C3091 O3079 1.265 . S
C3091 O3080 1.242 . S
C3092 O3083 1.261 . S
C3092 O3084 1.252 . S
C3093 C3096 1.394 . S
C3093 C3098 1.370 . S
C3093 C3099 1.500 . S
C3094 C3097 1.383 . S
C3094 C3098 1.395 . S
C3095 C3096 1.396 . S
C3095 C3097 1.365 . S
C3095 H3112 0.929 . S
C3096 C3093 1.394 . S
C3096 C3095 1.396 . S
C3096 H3113 0.930 . S
C3097 C3094 1.383 . S
C3097 C3095 1.365 . S
C3097 H3114 0.931 . S
C3098 C3093 1.370 . S
C3098 C3094 1.395 . S
C3098 H3115 0.930 . S
C3099 Gd3046 2.805 . S
C3099 O3081 1.263 . S
C3099 O3082 1.252 . S
C3099 C3093 1.500 . S
C3100 H3062 0.930 . S
C3100 C3076 1.417 . S
C3100 C3101 1.329 . S
C3101 C3071 1.437 . S
C3101 H3072 0.929 . S
C3101 C3100 1.329 . S
H3102 C3075 0.931 . S
C3103 O3085 1.265 . S
C3103 O3086 1.242 . S
C3104 O3089 1.261 . S
C3104 O3090 1.252 . S
C3105 C3108 1.394 . S
C3105 C3110 1.370 . S
C3105 C3111 1.500 . S
C3106 C3109 1.383 . S
C3106 C3110 1.395 . S
C3107 C3108 1.396 . S
C3107 C3109 1.365 . S
C3107 H3116 0.929 . S
C3108 C3105 1.394 . S
C3108 C3107 1.396 . S
C3108 H3117 0.930 . S
C3109 C3106 1.383 . S
C3109 C3107 1.365 . S
C3109 H3118 0.931 . S
C3110 C3105 1.370 . S
C3110 C3106 1.395 . S
C3110 H3119 0.930 . S
C3111 Gd3047 2.805 . S
C3111 O3087 1.263 . S
C3111 O3088 1.252 . S
C3111 C3105 1.500 . S
H3112 C3095 0.929 . S
H3113 C3096 0.930 . S
H3114 C3097 0.931 . S
H3115 C3098 0.930 . S
H3116 C3107 0.929 . S
H3117 C3108 0.930 . S
H3118 C3109 0.931 . S
H3119 C3110 0.930 . S
C3120 C3122 1.422 . S
C3120 C3124 1.415 . S
C3120 N3126 1.369 . S
C3121 C3122 1.421 . S
C3121 C3123 1.417 . S
C3121 C3133 1.422 . S
C3122 C3120 1.422 . S
C3122 C3121 1.421 . S
C3122 N3132 1.359 . S
C3123 C3121 1.417 . S
C3123 C3125 1.329 . S
C3123 H3142 0.930 . S
C3124 C3120 1.415 . S
C3124 C3125 1.437 . S
C3124 C3128 1.413 . S
C3125 C3123 1.329 . S
C3125 C3124 1.437 . S
C3125 H3147 0.929 . S
N3126 C3120 1.369 . S
N3126 C3127 1.338 . S
N3126 Gd3131 2.622 . S
C3127 N3126 1.338 . S
C3127 C3129 1.378 . S
C3127 H3139 0.929 . S
C3128 C3124 1.413 . S
C3128 C3129 1.348 . S
C3128 H3144 0.931 . S
C3129 C3127 1.378 . S
C3129 C3128 1.348 . S
C3129 H3145 0.930 . S
Gd3130 N3150 2.622 . S
Gd3130 N3157 2.570 . S
Gd3130 O3164 2.353 . S
Gd3130 O3165 2.468 . S
Gd3130 O3166 2.427 . S
Gd3130 O3168 2.388 . S
Gd3130 O3169 2.386 . S
Gd3130 O3173 2.307 . S
Gd3130 C3183 2.805 . S
Gd3131 N3126 2.622 . S
Gd3131 N3132 2.570 . S
Gd3131 O3163 2.386 . S
Gd3131 O3167 2.307 . S
Gd3131 O3170 2.353 . S
Gd3131 O3171 2.468 . S
Gd3131 O3172 2.427 . S
Gd3131 O3174 2.388 . S
Gd3131 C3195 2.805 . S
N3132 C3122 1.359 . S
N3132 Gd3131 2.570 . S
N3132 C3134 1.343 . S
C3133 C3121 1.422 . S
C3133 C3135 1.321 . S
C3133 H3141 0.931 . S
C3134 N3132 1.343 . S
C3134 C3135 1.390 . S
C3134 H3136 0.931 . S
C3135 C3133 1.321 . S
C3135 C3134 1.390 . S
C3135 H3137 0.930 . S
H3136 C3134 0.931 . S
H3137 C3135 0.930 . S
H3138 C3161 0.931 . S
H3139 C3127 0.929 . S
H3140 C3162 0.930 . S
H3141 C3133 0.931 . S
H3142 C3123 0.930 . S
H3143 C3152 0.929 . S
H3144 C3128 0.931 . S
H3145 C3129 0.930 . S
H3146 C3184 0.930 . S
H3147 C3125 0.929 . S
H3148 C3153 0.931 . S
H3149 C3154 0.930 . S
N3150 Gd3130 2.622 . S
N3150 C3151 1.369 . S
N3150 C3152 1.338 . S
C3151 N3150 1.369 . S
C3151 C3155 1.415 . S
C3151 C3158 1.422 . S
C3152 H3143 0.929 . S
C3152 N3150 1.338 . S
C3152 C3154 1.378 . S
C3153 H3148 0.931 . S
C3153 C3154 1.348 . S
C3153 C3155 1.413 . S
C3154 H3149 0.930 . S
C3154 C3152 1.378 . S
C3154 C3153 1.348 . S
C3155 C3151 1.415 . S
C3155 C3153 1.413 . S
C3155 C3185 1.437 . S
H3156 C3185 0.929 . S
N3157 Gd3130 2.570 . S
N3157 C3158 1.359 . S
N3157 C3161 1.343 . S
C3158 C3151 1.422 . S
C3158 N3157 1.359 . S
C3158 C3160 1.421 . S
C3159 C3160 1.422 . S
C3159 C3162 1.321 . S
C3159 H3186 0.931 . S
C3160 C3158 1.421 . S
C3160 C3159 1.422 . S
C3160 C3184 1.417 . S
C3161 H3138 0.931 . S
C3161 N3157 1.343 . S
C3161 C3162 1.390 . S
C3162 H3140 0.930 . S
C3162 C3159 1.321 . S
C3162 C3161 1.390 . S
O3163 Gd3131 2.386 . S
O3163 C3175 1.265 . S
O3164 Gd3130 2.353 . S
O3164 C3175 1.242 . S
O3165 Gd3130 2.468 . S
O3165 C3183 1.263 . S
O3166 Gd3130 2.427 . S
O3166 C3183 1.252 . S
O3167 Gd3131 2.307 . S
O3167 C3176 1.261 . S
O3168 Gd3130 2.388 . S
O3168 C3176 1.252 . S
O3169 Gd3130 2.386 . S
O3169 C3187 1.265 . S
O3170 Gd3131 2.353 . S
O3170 C3187 1.242 . S
O3171 Gd3131 2.468 . S
O3171 C3195 1.263 . S
O3172 Gd3131 2.427 . S
O3172 C3195 1.252 . S
O3173 Gd3130 2.307 . S
O3173 C3188 1.261 . S
O3174 Gd3131 2.388 . S
O3174 C3188 1.252 . S
C3175 O3163 1.265 . S
C3175 O3164 1.242 . S
C3176 O3167 1.261 . S
C3176 O3168 1.252 . S
C3177 C3180 1.394 . S
C3177 C3182 1.370 . S
C3177 C3183 1.500 . S
C3178 C3181 1.383 . S
C3178 C3182 1.395 . S
C3179 C3180 1.396 . S
C3179 C3181 1.365 . S
C3179 H3196 0.929 . S
C3180 C3177 1.394 . S
C3180 C3179 1.396 . S
C3180 H3197 0.930 . S
C3181 C3178 1.383 . S
C3181 C3179 1.365 . S
C3181 H3198 0.931 . S
C3182 C3177 1.370 . S
C3182 C3178 1.395 . S
C3182 H3199 0.930 . S
C3183 Gd3130 2.805 . S
C3183 O3165 1.263 . S
C3183 O3166 1.252 . S
C3183 C3177 1.500 . S
C3184 H3146 0.930 . S
C3184 C3160 1.417 . S
C3184 C3185 1.329 . S
C3185 C3155 1.437 . S
C3185 H3156 0.929 . S
C3185 C3184 1.329 . S
H3186 C3159 0.931 . S
C3187 O3169 1.265 . S
C3187 O3170 1.242 . S
C3188 O3173 1.261 . S
C3188 O3174 1.252 . S
C3189 C3192 1.394 . S
C3189 C3194 1.370 . S
C3189 C3195 1.500 . S
C3190 C3193 1.383 . S
C3190 C3194 1.395 . S
C3191 C3192 1.396 . S
C3191 C3193 1.365 . S
C3191 H3200 0.929 . S
C3192 C3189 1.394 . S
C3192 C3191 1.396 . S
C3192 H3201 0.930 . S
C3193 C3190 1.383 . S
C3193 C3191 1.365 . S
C3193 H3202 0.931 . S
C3194 C3189 1.370 . S
C3194 C3190 1.395 . S
C3194 H3203 0.930 . S
C3195 Gd3131 2.805 . S
C3195 O3171 1.263 . S
C3195 O3172 1.252 . S
C3195 C3189 1.500 . S
H3196 C3179 0.929 . S
H3197 C3180 0.930 . S
H3198 C3181 0.931 . S
H3199 C3182 0.930 . S
H3200 C3191 0.929 . S
H3201 C3192 0.930 . S
H3202 C3193 0.931 . S
H3203 C3194 0.930 . S
C3204 C3206 1.422 . S
C3204 C3208 1.415 . S
C3204 N3210 1.369 . S
C3205 C3206 1.421 . S
C3205 C3207 1.417 . S
C3205 C3217 1.422 . S
C3206 C3204 1.422 . S
C3206 C3205 1.421 . S
C3206 N3216 1.359 . S
C3207 C3205 1.417 . S
C3207 C3209 1.329 . S
C3207 H3226 0.930 . S
C3208 C3204 1.415 . S
C3208 C3209 1.437 . S
C3208 C3212 1.413 . S
C3209 C3207 1.329 . S
C3209 C3208 1.437 . S
C3209 H3231 0.929 . S
N3210 C3204 1.369 . S
N3210 C3211 1.338 . S
N3210 Gd3215 2.622 . S
C3211 N3210 1.338 . S
C3211 C3213 1.378 . S
C3211 H3223 0.929 . S
C3212 C3208 1.413 . S
C3212 C3213 1.348 . S
C3212 H3228 0.931 . S
C3213 C3211 1.378 . S
C3213 C3212 1.348 . S
C3213 H3229 0.930 . S
Gd3214 N3234 2.622 . S
Gd3214 N3241 2.570 . S
Gd3214 O3248 2.353 . S
Gd3214 O3249 2.468 . S
Gd3214 O3250 2.427 . S
Gd3214 O3252 2.388 . S
Gd3214 O3253 2.386 . S
Gd3214 O3257 2.307 . S
Gd3214 C3267 2.805 . S
Gd3215 N3210 2.622 . S
Gd3215 N3216 2.570 . S
Gd3215 O3247 2.386 . S
Gd3215 O3251 2.307 . S
Gd3215 O3254 2.353 . S
Gd3215 O3255 2.468 . S
Gd3215 O3256 2.427 . S
Gd3215 O3258 2.388 . S
Gd3215 C3279 2.805 . S
N3216 C3206 1.359 . S
N3216 Gd3215 2.570 . S
N3216 C3218 1.343 . S
C3217 C3205 1.422 . S
C3217 C3219 1.321 . S
C3217 H3225 0.931 . S
C3218 N3216 1.343 . S
C3218 C3219 1.390 . S
C3218 H3220 0.931 . S
C3219 C3217 1.321 . S
C3219 C3218 1.390 . S
C3219 H3221 0.930 . S
H3220 C3218 0.931 . S
H3221 C3219 0.930 . S
H3222 C3245 0.931 . S
H3223 C3211 0.929 . S
H3224 C3246 0.930 . S
H3225 C3217 0.931 . S
H3226 C3207 0.930 . S
H3227 C3236 0.929 . S
H3228 C3212 0.931 . S
H3229 C3213 0.930 . S
H3230 C3268 0.930 . S
H3231 C3209 0.929 . S
H3232 C3237 0.931 . S
H3233 C3238 0.930 . S
N3234 Gd3214 2.622 . S
N3234 C3235 1.369 . S
N3234 C3236 1.338 . S
C3235 N3234 1.369 . S
C3235 C3239 1.415 . S
C3235 C3242 1.422 . S
C3236 H3227 0.929 . S
C3236 N3234 1.338 . S
C3236 C3238 1.378 . S
C3237 H3232 0.931 . S
C3237 C3238 1.348 . S
C3237 C3239 1.413 . S
C3238 H3233 0.930 . S
C3238 C3236 1.378 . S
C3238 C3237 1.348 . S
C3239 C3235 1.415 . S
C3239 C3237 1.413 . S
C3239 C3269 1.437 . S
H3240 C3269 0.929 . S
N3241 Gd3214 2.570 . S
N3241 C3242 1.359 . S
N3241 C3245 1.343 . S
C3242 C3235 1.422 . S
C3242 N3241 1.359 . S
C3242 C3244 1.421 . S
C3243 C3244 1.422 . S
C3243 C3246 1.321 . S
C3243 H3270 0.931 . S
C3244 C3242 1.421 . S
C3244 C3243 1.422 . S
C3244 C3268 1.417 . S
C3245 H3222 0.931 . S
C3245 N3241 1.343 . S
C3245 C3246 1.390 . S
C3246 H3224 0.930 . S
C3246 C3243 1.321 . S
C3246 C3245 1.390 . S
O3247 Gd3215 2.386 . S
O3247 C3259 1.265 . S
O3248 Gd3214 2.353 . S
O3248 C3259 1.242 . S
O3249 Gd3214 2.468 . S
O3249 C3267 1.263 . S
O3250 Gd3214 2.427 . S
O3250 C3267 1.252 . S
O3251 Gd3215 2.307 . S
O3251 C3260 1.261 . S
O3252 Gd3214 2.388 . S
O3252 C3260 1.252 . S
O3253 Gd3214 2.386 . S
O3253 C3271 1.265 . S
O3254 Gd3215 2.353 . S
O3254 C3271 1.242 . S
O3255 Gd3215 2.468 . S
O3255 C3279 1.263 . S
O3256 Gd3215 2.427 . S
O3256 C3279 1.252 . S
O3257 Gd3214 2.307 . S
O3257 C3272 1.261 . S
O3258 Gd3215 2.388 . S
O3258 C3272 1.252 . S
C3259 O3247 1.265 . S
C3259 O3248 1.242 . S
C3260 O3251 1.261 . S
C3260 O3252 1.252 . S
C3261 C3264 1.394 . S
C3261 C3266 1.370 . S
C3261 C3267 1.500 . S
C3262 C3265 1.383 . S
C3262 C3266 1.395 . S
C3263 C3264 1.396 . S
C3263 C3265 1.365 . S
C3263 H3280 0.929 . S
C3264 C3261 1.394 . S
C3264 C3263 1.396 . S
C3264 H3281 0.930 . S
C3265 C3262 1.383 . S
C3265 C3263 1.365 . S
C3265 H3282 0.931 . S
C3266 C3261 1.370 . S
C3266 C3262 1.395 . S
C3266 H3283 0.930 . S
C3267 Gd3214 2.805 . S
C3267 O3249 1.263 . S
C3267 O3250 1.252 . S
C3267 C3261 1.500 . S
C3268 H3230 0.930 . S
C3268 C3244 1.417 . S
C3268 C3269 1.329 . S
C3269 C3239 1.437 . S
C3269 H3240 0.929 . S
C3269 C3268 1.329 . S
H3270 C3243 0.931 . S
C3271 O3253 1.265 . S
C3271 O3254 1.242 . S
C3272 O3257 1.261 . S
C3272 O3258 1.252 . S
C3273 C3276 1.394 . S
C3273 C3278 1.370 . S
C3273 C3279 1.500 . S
C3274 C3277 1.383 . S
C3274 C3278 1.395 . S
C3275 C3276 1.396 . S
C3275 C3277 1.365 . S
C3275 H3284 0.929 . S
C3276 C3273 1.394 . S
C3276 C3275 1.396 . S
C3276 H3285 0.930 . S
C3277 C3274 1.383 . S
C3277 C3275 1.365 . S
C3277 H3286 0.931 . S
C3278 C3273 1.370 . S
C3278 C3274 1.395 . S
C3278 H3287 0.930 . S
C3279 Gd3215 2.805 . S
C3279 O3255 1.263 . S
C3279 O3256 1.252 . S
C3279 C3273 1.500 . S
H3280 C3263 0.929 . S
H3281 C3264 0.930 . S
H3282 C3265 0.931 . S
H3283 C3266 0.930 . S
H3284 C3275 0.929 . S
H3285 C3276 0.930 . S
H3286 C3277 0.931 . S
H3287 C3278 0.930 . S
C3288 C3290 1.422 . S
C3288 C3292 1.415 . S
C3288 N3294 1.369 . S
C3289 C3290 1.421 . S
C3289 C3291 1.417 . S
C3289 C3301 1.422 . S
C3290 C3288 1.422 . S
C3290 C3289 1.421 . S
C3290 N3300 1.359 . S
C3291 C3289 1.417 . S
C3291 C3293 1.329 . S
C3291 H3310 0.930 . S
C3292 C3288 1.415 . S
C3292 C3293 1.437 . S
C3292 C3296 1.413 . S
C3293 C3291 1.329 . S
C3293 C3292 1.437 . S
C3293 H3315 0.929 . S
N3294 C3288 1.369 . S
N3294 C3295 1.338 . S
N3294 Gd3299 2.622 . S
C3295 N3294 1.338 . S
C3295 C3297 1.378 . S
C3295 H3307 0.929 . S
C3296 C3292 1.413 . S
C3296 C3297 1.348 . S
C3296 H3312 0.931 . S
C3297 C3295 1.378 . S
C3297 C3296 1.348 . S
C3297 H3313 0.930 . S
Gd3298 N3318 2.622 . S
Gd3298 N3325 2.570 . S
Gd3298 O3332 2.353 . S
Gd3298 O3333 2.468 . S
Gd3298 O3334 2.427 . S
Gd3298 O3336 2.388 . S
Gd3298 O3337 2.386 . S
Gd3298 O3341 2.307 . S
Gd3298 C3351 2.805 . S
Gd3299 N3294 2.622 . S
Gd3299 N3300 2.570 . S
Gd3299 O3331 2.386 . S
Gd3299 O3335 2.307 . S
Gd3299 O3338 2.353 . S
Gd3299 O3339 2.468 . S
Gd3299 O3340 2.427 . S
Gd3299 O3342 2.388 . S
Gd3299 C3363 2.805 . S
N3300 C3290 1.359 . S
N3300 Gd3299 2.570 . S
N3300 C3302 1.343 . S
C3301 C3289 1.422 . S
C3301 C3303 1.321 . S
C3301 H3309 0.931 . S
C3302 N3300 1.343 . S
C3302 C3303 1.390 . S
C3302 H3304 0.931 . S
C3303 C3301 1.321 . S
C3303 C3302 1.390 . S
C3303 H3305 0.930 . S
H3304 C3302 0.931 . S
H3305 C3303 0.930 . S
H3306 C3329 0.931 . S
H3307 C3295 0.929 . S
H3308 C3330 0.930 . S
H3309 C3301 0.931 . S
H3310 C3291 0.930 . S
H3311 C3320 0.929 . S
H3312 C3296 0.931 . S
H3313 C3297 0.930 . S
H3314 C3352 0.930 . S
H3315 C3293 0.929 . S
H3316 C3321 0.931 . S
H3317 C3322 0.930 . S
N3318 Gd3298 2.622 . S
N3318 C3319 1.369 . S
N3318 C3320 1.338 . S
C3319 N3318 1.369 . S
C3319 C3323 1.415 . S
C3319 C3326 1.422 . S
C3320 H3311 0.929 . S
C3320 N3318 1.338 . S
C3320 C3322 1.378 . S
C3321 H3316 0.931 . S
C3321 C3322 1.348 . S
C3321 C3323 1.413 . S
C3322 H3317 0.930 . S
C3322 C3320 1.378 . S
C3322 C3321 1.348 . S
C3323 C3319 1.415 . S
C3323 C3321 1.413 . S
C3323 C3353 1.437 . S
H3324 C3353 0.929 . S
N3325 Gd3298 2.570 . S
N3325 C3326 1.359 . S
N3325 C3329 1.343 . S
C3326 C3319 1.422 . S
C3326 N3325 1.359 . S
C3326 C3328 1.421 . S
C3327 C3328 1.422 . S
C3327 C3330 1.321 . S
C3327 H3354 0.931 . S
C3328 C3326 1.421 . S
C3328 C3327 1.422 . S
C3328 C3352 1.417 . S
C3329 H3306 0.931 . S
C3329 N3325 1.343 . S
C3329 C3330 1.390 . S
C3330 H3308 0.930 . S
C3330 C3327 1.321 . S
C3330 C3329 1.390 . S
O3331 Gd3299 2.386 . S
O3331 C3343 1.265 . S
O3332 Gd3298 2.353 . S
O3332 C3343 1.242 . S
O3333 Gd3298 2.468 . S
O3333 C3351 1.263 . S
O3334 Gd3298 2.427 . S
O3334 C3351 1.252 . S
O3335 Gd3299 2.307 . S
O3335 C3344 1.261 . S
O3336 Gd3298 2.388 . S
O3336 C3344 1.252 . S
O3337 Gd3298 2.386 . S
O3337 C3355 1.265 . S
O3338 Gd3299 2.353 . S
O3338 C3355 1.242 . S
O3339 Gd3299 2.468 . S
O3339 C3363 1.263 . S
O3340 Gd3299 2.427 . S
O3340 C3363 1.252 . S
O3341 Gd3298 2.307 . S
O3341 C3356 1.261 . S
O3342 Gd3299 2.388 . S
O3342 C3356 1.252 . S
C3343 O3331 1.265 . S
C3343 O3332 1.242 . S
C3344 O3335 1.261 . S
C3344 O3336 1.252 . S
C3345 C3348 1.394 . S
C3345 C3350 1.370 . S
C3345 C3351 1.500 . S
C3346 C3349 1.383 . S
C3346 C3350 1.395 . S
C3347 C3348 1.396 . S
C3347 C3349 1.365 . S
C3347 H3364 0.929 . S
C3348 C3345 1.394 . S
C3348 C3347 1.396 . S
C3348 H3365 0.930 . S
C3349 C3346 1.383 . S
C3349 C3347 1.365 . S
C3349 H3366 0.931 . S
C3350 C3345 1.370 . S
C3350 C3346 1.395 . S
C3350 H3367 0.930 . S
C3351 Gd3298 2.805 . S
C3351 O3333 1.263 . S
C3351 O3334 1.252 . S
C3351 C3345 1.500 . S
C3352 H3314 0.930 . S
C3352 C3328 1.417 . S
C3352 C3353 1.329 . S
C3353 C3323 1.437 . S
C3353 H3324 0.929 . S
C3353 C3352 1.329 . S
H3354 C3327 0.931 . S
C3355 O3337 1.265 . S
C3355 O3338 1.242 . S
C3356 O3341 1.261 . S
C3356 O3342 1.252 . S
C3357 C3360 1.394 . S
C3357 C3362 1.370 . S
C3357 C3363 1.500 . S
C3358 C3361 1.383 . S
C3358 C3362 1.395 . S
C3359 C3360 1.396 . S
C3359 C3361 1.365 . S
C3359 H3368 0.929 . S
C3360 C3357 1.394 . S
C3360 C3359 1.396 . S
C3360 H3369 0.930 . S
C3361 C3358 1.383 . S
C3361 C3359 1.365 . S
C3361 H3370 0.931 . S
C3362 C3357 1.370 . S
C3362 C3358 1.395 . S
C3362 H3371 0.930 . S
C3363 Gd3299 2.805 . S
C3363 O3339 1.263 . S
C3363 O3340 1.252 . S
C3363 C3357 1.500 . S
H3364 C3347 0.929 . S
H3365 C3348 0.930 . S
H3366 C3349 0.931 . S
H3367 C3350 0.930 . S
H3368 C3359 0.929 . S
H3369 C3360 0.930 . S
H3370 C3361 0.931 . S
H3371 C3362 0.930 . S
C3372 C3374 1.422 1_556 S
C3372 C3376 1.415 . S
C3372 N3378 1.369 . S
C3373 C3374 1.421 . S
C3373 C3375 1.417 . S
C3373 C3385 1.422 . S
C3374 C3372 1.422 1_554 S
C3374 C3373 1.421 . S
C3374 N3384 1.359 . S
C3375 C3373 1.417 . S
C3375 C3377 1.329 1_554 S
C3375 H3394 0.930 . S
C3376 C3372 1.415 . S
C3376 C3377 1.437 . S
C3376 C3380 1.413 . S
C3377 C3375 1.329 1_556 S
C3377 C3376 1.437 . S
C3377 H3399 0.929 . S
N3378 C3372 1.369 . S
N3378 C3379 1.338 . S
N3378 Gd3383 2.622 1_556 S
C3379 N3378 1.338 . S
C3379 C3381 1.378 . S
C3379 H3391 0.929 . S
C3380 C3376 1.413 . S
C3380 C3381 1.348 . S
C3380 H3396 0.931 . S
C3381 C3379 1.378 . S
C3381 C3380 1.348 . S
C3381 H3397 0.930 . S
Gd3382 N3402 2.625 . S
Gd3382 N3409 2.578 . S
Gd3382 O3416 2.349 1_655 S
Gd3382 O3417 2.479 . S
Gd3382 O3418 2.436 . S
Gd3382 O3420 2.379 1_655 S
Gd3382 O3421 2.379 1_655 S
Gd3382 O3425 2.304 1_655 S
Gd3382 C3435 2.816 . S
Gd3383 N3378 2.622 1_554 S
Gd3383 N3384 2.570 . S
Gd3383 O3415 2.386 . S
Gd3383 O3419 2.307 . S
Gd3383 O3422 2.353 . S
Gd3383 O3423 2.468 . S
Gd3383 O3424 2.427 1_554 S
Gd3383 O3426 2.388 1_554 S
Gd3383 C3447 2.816 . S
N3384 C3374 1.359 . S
N3384 Gd3383 2.570 . S
N3384 C3386 1.343 . S
C3385 C3373 1.422 . S
C3385 C3387 1.321 . S
C3385 H3393 0.931 . S
C3386 N3384 1.343 . S
C3386 C3387 1.390 . S
C3386 H3388 0.931 . S
C3387 C3385 1.321 . S
C3387 C3386 1.390 . S
C3387 H3389 0.930 . S
H3388 C3386 0.931 . S
H3389 C3387 0.930 . S
H3390 C3413 0.931 1_556 S
H3391 C3379 0.929 . S
H3392 C3414 0.930 . S
H3393 C3385 0.931 . S
H3394 C3375 0.930 . S
H3395 C3404 0.929 1_455 S
H3396 C3380 0.931 . S
H3397 C3381 0.930 . S
H3398 C3436 0.930 . S
H3399 C3377 0.929 . S
H3400 C3405 0.931 . S
H3401 C3406 0.930 . S
N3402 Gd3382 2.625 . S
N3402 C3403 1.369 . S
N3402 C3404 1.338 . S
C3403 N3402 1.369 . S
C3403 C3407 1.415 . S
C3403 C3410 1.422 . S
C3404 H3395 0.929 1_655 S
C3404 N3402 1.338 . S
C3404 C3406 1.378 . S
C3405 H3400 0.931 . S
C3405 C3406 1.348 . S
C3405 C3407 1.413 . S
C3406 H3401 0.930 . S
C3406 C3404 1.378 . S
C3406 C3405 1.348 . S
C3407 C3403 1.415 . S
C3407 C3405 1.413 . S
C3407 C3437 1.437 . S
H3408 C3437 0.929 . S
N3409 Gd3382 2.578 . S
N3409 C3410 1.359 . S
N3409 C3413 1.343 . S
C3410 C3403 1.422 . S
C3410 N3409 1.359 . S
C3410 C3412 1.421 . S
C3411 C3412 1.422 . S
C3411 C3414 1.321 1_554 S
C3411 H3438 0.931 . S
C3412 C3410 1.421 . S
C3412 C3411 1.422 . S
C3412 C3436 1.417 . S
C3413 H3390 0.931 1_554 S
C3413 N3409 1.343 . S
C3413 C3414 1.390 1_554 S
C3414 H3392 0.930 . S
C3414 C3411 1.321 1_556 S
C3414 C3413 1.390 1_556 S
O3415 Gd3383 2.386 . S
O3415 C3427 1.265 . S
O3416 Gd3382 2.349 1_455 S
O3416 C3427 1.242 . S
O3417 Gd3382 2.479 . S
O3417 C3435 1.263 . S
O3418 Gd3382 2.436 . S
O3418 C3435 1.252 . S
O3419 Gd3383 2.307 . S
O3419 C3428 1.261 . S
O3420 Gd3382 2.379 1_455 S
O3420 C3428 1.252 . S
O3421 Gd3382 2.379 1_455 S
O3421 C3439 1.265 . S
O3422 Gd3383 2.353 . S
O3422 C3439 1.242 . S
O3423 Gd3383 2.468 . S
O3423 C3447 1.313 . S
O3424 Gd3383 2.427 1_556 S
O3424 C3447 1.215 1_556 S
O3425 Gd3382 2.304 1_455 S
O3425 C3440 1.261 1_554 S
O3426 Gd3383 2.388 1_556 S
O3426 C3440 1.252 . S
C3427 O3415 1.265 . S
C3427 O3416 1.242 . S
C3428 O3419 1.261 . S
C3428 O3420 1.252 . S
C3429 C3432 1.394 . S
C3429 C3434 1.370 . S
C3429 C3435 1.500 . S
C3430 C3433 1.383 . S
C3430 C3434 1.395 . S
C3431 C3432 1.396 . S
C3431 C3433 1.365 . S
C3431 H3448 0.929 . S
C3432 C3429 1.394 . S
C3432 C3431 1.396 . S
C3432 H3449 0.930 . S
C3433 C3430 1.383 . S
C3433 C3431 1.365 . S
C3433 H3450 0.931 . S
C3434 C3429 1.370 . S
C3434 C3430 1.395 . S
C3434 H3451 0.930 . S
C3435 Gd3382 2.816 . S
C3435 O3417 1.263 . S
C3435 O3418 1.252 . S
C3435 C3429 1.500 . S
C3436 H3398 0.930 . S
C3436 C3412 1.417 . S
C3436 C3437 1.329 . S
C3437 C3407 1.437 . S
C3437 H3408 0.929 . S
C3437 C3436 1.329 . S
H3438 C3411 0.931 . S
C3439 O3421 1.265 . S
C3439 O3422 1.242 . S
C3440 O3425 1.261 1_556 S
C3440 O3426 1.252 . S
C3441 C3444 1.394 . S
C3441 C3446 1.370 1_556 S
C3441 C3447 1.491 1_556 S
C3442 C3445 1.383 1_554 S
C3442 C3446 1.395 . S
C3443 C3444 1.396 . S
C3443 C3445 1.365 . S
C3443 H3452 0.929 . S
C3444 C3441 1.394 . S
C3444 C3443 1.396 . S
C3444 H3453 0.930 . S
C3445 C3442 1.383 1_556 S
C3445 C3443 1.365 . S
C3445 H3454 0.931 . S
C3446 C3441 1.370 1_554 S
C3446 C3442 1.395 . S
C3446 H3455 0.930 . S
C3447 Gd3383 2.816 . S
C3447 O3423 1.313 . S
C3447 O3424 1.215 1_554 S
C3447 C3441 1.491 1_554 S
H3448 C3431 0.929 . S
H3449 C3432 0.930 . S
H3450 C3433 0.931 . S
H3451 C3434 0.930 . S
H3452 C3443 0.929 . S
H3453 C3444 0.930 . S
H3454 C3445 0.931 . S
H3455 C3446 0.930 . S
H3456 C3474 0.951 . S
H3457 C3476 0.951 . S
H3458 C3478 0.950 . S
H3459 C3479 0.950 . S
H3460 C3481 0.950 . S
H3461 C3484 0.950 . S
H3462 C3485 0.950 . S
H3463 C3487 0.950 . S
H3464 C3488 0.950 . S
H3465 C3489 0.951 . S
H3466 C3491 0.951 . S
H3467 C3493 0.903 1_655 S
H3468 C3494 0.950 1_655 S
H3469 C3496 0.950 . S
H3470 C3499 0.950 1_655 S
H3471 C3500 0.950 . S
H3472 C3502 0.950 . S
H3473 C3503 0.950 . S
C3474 H3456 0.951 . S
C3474 C3475 1.366 . S
C3474 C3476 1.388 . S
C3475 C3474 1.366 . S
C3475 C3479 1.385 1_655 S
C3476 H3457 0.951 . S
C3476 C3474 1.388 . S
C3476 C3477 1.366 1_655 S
C3477 C3476 1.366 1_455 S
C3477 C3478 1.414 . S
C3477 C3480 1.499 . S
C3478 H3458 0.950 . S
C3478 C3477 1.414 . S
C3478 C3479 1.374 . S
C3479 H3459 0.950 . S
C3479 C3475 1.385 1_455 S
C3479 C3478 1.374 . S
C3480 C3477 1.499 . S
C3480 C3481 1.373 . S
C3480 C3482 1.389 1_556 S
C3481 H3460 0.950 . S
C3481 C3480 1.373 . S
C3481 C3497 1.377 . S
C3482 C3480 1.389 1_554 S
C3482 C3483 1.524 1_455 S
C3482 C3496 1.377 . S
C3483 C3482 1.524 1_655 S
C3483 C3484 1.397 1_655 S
C3483 C3488 1.363 . S
C3484 H3461 0.950 . S
C3484 C3483 1.397 1_455 S
C3484 C3485 1.334 . S
C3485 H3462 0.950 . S
C3485 C3484 1.334 . S
C3485 C3486 1.287 1_455 S
C3486 C3485 1.287 1_655 S
C3486 C3487 1.524 . S
C3486 H3505 0.913 . S
C3487 H3463 0.950 . S
C3487 C3486 1.524 . S
C3487 C3488 1.415 . S
C3488 H3464 0.950 . S
C3488 C3483 1.363 . S
C3488 C3487 1.415 . S
C3489 H3465 0.951 . S
C3489 C3490 1.366 . S
C3489 C3491 1.388 1_554 S
C3490 C3489 1.366 . S
C3490 C3494 1.385 . S
C3491 H3466 0.951 . S
C3491 C3489 1.388 1_556 S
C3491 C3492 1.365 1_556 S
C3492 C3491 1.365 1_554 S
C3492 C3493 1.450 . S
C3492 C3495 1.497 1_554 S
C3493 H3467 0.903 1_455 S
C3493 C3492 1.450 . S
C3493 C3494 1.389 . S
C3494 H3468 0.950 1_455 S
C3494 C3490 1.385 . S
C3494 C3493 1.389 . S
C3495 C3492 1.497 1_556 S
C3495 C3496 1.373 1_556 S
C3495 C3497 1.389 . S
C3496 H3469 0.950 . S
C3496 C3482 1.377 . S
C3496 C3495 1.373 1_554 S
C3497 C3481 1.377 . S
C3497 C3495 1.389 . S
C3497 C3498 1.524 . S
C3498 C3497 1.524 . S
C3498 C3499 1.397 . S
C3498 C3503 1.363 . S
C3499 H3470 0.950 1_455 S
C3499 C3498 1.397 . S
C3499 C3500 1.334 . S
C3500 H3471 0.950 . S
C3500 C3499 1.334 . S
C3500 C3501 1.287 . S
C3501 C3500 1.287 . S
C3501 C3502 1.524 . S
C3501 H3504 0.999 . S
C3502 H3472 0.950 . S
C3502 C3501 1.524 . S
C3502 C3503 1.415 . S
C3503 H3473 0.950 . S
C3503 C3498 1.363 . S
C3503 C3502 1.415 . S
H3504 C3501 0.999 . S
H3505 C3486 0.913 . S
H3506 C3524 0.951 . S
H3507 C3526 0.951 . S
H3508 C3528 0.950 . S
H3509 C3529 0.950 . S
H3510 C3531 0.950 . S
H3511 C3534 0.950 . S
H3512 C3535 0.950 . S
H3513 C3537 0.950 . S
H3514 C3538 0.950 . S
H3515 C3539 0.951 . S
H3516 C3541 0.951 . S
H3517 C3543 0.950 . S
H3518 C3544 0.950 . S
H3519 C3546 0.950 . S
H3520 C3549 0.950 . S
H3521 C3550 0.950 . S
H3522 C3552 0.950 . S
H3523 C3553 0.950 . S
C3524 H3506 0.951 . S
C3524 C3525 1.366 . S
C3524 C3526 1.388 . S
C3525 C3524 1.366 . S
C3525 C3529 1.385 . S
C3526 H3507 0.951 . S
C3526 C3524 1.388 . S
C3526 C3527 1.366 . S
C3527 C3526 1.366 . S
C3527 C3528 1.414 . S
C3527 C3530 1.499 . S
C3528 H3508 0.950 . S
C3528 C3527 1.414 . S
C3528 C3529 1.374 . S
C3529 H3509 0.950 . S
C3529 C3525 1.385 . S
C3529 C3528 1.374 . S
C3530 C3527 1.499 . S
C3530 C3531 1.373 . S
C3530 C3532 1.389 . S
C3531 H3510 0.950 . S
C3531 C3530 1.373 . S
C3531 C3547 1.377 . S
C3532 C3530 1.389 . S
C3532 C3533 1.524 . S
C3532 C3546 1.377 . S
C3533 C3532 1.524 . S
C3533 C3534 1.397 . S
C3533 C3538 1.363 . S
C3534 H3511 0.950 . S
C3534 C3533 1.397 . S
C3534 C3535 1.334 . S
C3535 H3512 0.950 . S
C3535 C3534 1.334 . S
C3535 C3536 1.287 . S
C3536 C3535 1.287 . S
C3536 C3537 1.524 . S
C3536 H3555 0.913 . S
C3537 H3513 0.950 . S
C3537 C3536 1.524 . S
C3537 C3538 1.415 . S
C3538 H3514 0.950 . S
C3538 C3533 1.363 . S
C3538 C3537 1.415 . S
C3539 H3515 0.951 . S
C3539 C3540 1.366 . S
C3539 C3541 1.388 . S
C3540 C3539 1.366 . S
C3540 C3544 1.385 . S
C3541 H3516 0.951 . S
C3541 C3539 1.388 . S
C3541 C3542 1.366 . S
C3542 C3541 1.366 . S
C3542 C3543 1.414 . S
C3542 C3545 1.499 . S
C3543 H3517 0.950 . S
C3543 C3542 1.414 . S
C3543 C3544 1.374 . S
C3544 H3518 0.950 . S
C3544 C3540 1.385 . S
C3544 C3543 1.374 . S
C3545 C3542 1.499 . S
C3545 C3546 1.373 . S
C3545 C3547 1.389 . S
C3546 H3519 0.950 . S
C3546 C3532 1.377 . S
C3546 C3545 1.373 . S
C3547 C3531 1.377 . S
C3547 C3545 1.389 . S
C3547 C3548 1.524 . S
C3548 C3547 1.524 . S
C3548 C3549 1.397 . S
C3548 C3553 1.363 . S
C3549 H3520 0.950 . S
C3549 C3548 1.397 . S
C3549 C3550 1.334 . S
C3550 H3521 0.950 . S
C3550 C3549 1.334 . S
C3550 C3551 1.287 . S
C3551 C3550 1.287 . S
C3551 C3552 1.524 . S
C3551 H3554 0.999 . S
C3552 H3522 0.950 . S
C3552 C3551 1.524 . S
C3552 C3553 1.415 . S
C3553 H3523 0.950 . S
C3553 C3548 1.363 . S
C3553 C3552 1.415 . S
H3554 C3551 0.999 . S
H3555 C3536 0.913 . S
H3556 C3574 0.951 . S
H3557 C3576 0.951 . S
H3558 C3578 0.950 . S
H3559 C3579 0.950 . S
H3560 C3581 0.950 . S
H3561 C3584 0.950 . S
H3562 C3585 0.950 . S
H3563 C3587 0.950 . S
H3564 C3588 0.950 . S
H3565 C3589 0.951 . S
H3566 C3591 0.951 . S
H3567 C3593 0.950 . S
H3568 C3594 0.950 . S
H3569 C3596 0.950 . S
H3570 C3599 0.950 . S
H3571 C3600 0.950 . S
H3572 C3602 0.950 . S
H3573 C3603 0.950 . S
C3574 H3556 0.951 . S
C3574 C3575 1.366 . S
C3574 C3576 1.388 . S
C3575 C3574 1.366 . S
C3575 C3579 1.385 . S
C3576 H3557 0.951 . S
C3576 C3574 1.388 . S
C3576 C3577 1.366 . S
C3577 C3576 1.366 . S
C3577 C3578 1.414 . S
C3577 C3580 1.499 . S
C3578 H3558 0.950 . S
C3578 C3577 1.414 . S
C3578 C3579 1.374 . S
C3579 H3559 0.950 . S
C3579 C3575 1.385 . S
C3579 C3578 1.374 . S
C3580 C3577 1.499 . S
C3580 C3581 1.373 . S
C3580 C3582 1.389 . S
C3581 H3560 0.950 . S
C3581 C3580 1.373 . S
C3581 C3597 1.377 . S
C3582 C3580 1.389 . S
C3582 C3583 1.524 . S
C3582 C3596 1.377 . S
C3583 C3582 1.524 . S
C3583 C3584 1.397 . S
C3583 C3588 1.363 . S
C3584 H3561 0.950 . S
C3584 C3583 1.397 . S
C3584 C3585 1.334 . S
C3585 H3562 0.950 . S
C3585 C3584 1.334 . S
C3585 C3586 1.287 . S
C3586 C3585 1.287 . S
C3586 C3587 1.524 . S
C3586 H3605 0.913 . S
C3587 H3563 0.950 . S
C3587 C3586 1.524 . S
C3587 C3588 1.415 . S
C3588 H3564 0.950 . S
C3588 C3583 1.363 . S
C3588 C3587 1.415 . S
C3589 H3565 0.951 . S
C3589 C3590 1.366 . S
C3589 C3591 1.388 . S
C3590 C3589 1.366 . S
C3590 C3594 1.385 . S
C3591 H3566 0.951 . S
C3591 C3589 1.388 . S
C3591 C3592 1.366 . S
C3592 C3591 1.366 . S
C3592 C3593 1.414 . S
C3592 C3595 1.499 . S
C3593 H3567 0.950 . S
C3593 C3592 1.414 . S
C3593 C3594 1.374 . S
C3594 H3568 0.950 . S
C3594 C3590 1.385 . S
C3594 C3593 1.374 . S
C3595 C3592 1.499 . S
C3595 C3596 1.373 . S
C3595 C3597 1.389 . S
C3596 H3569 0.950 . S
C3596 C3582 1.377 . S
C3596 C3595 1.373 . S
C3597 C3581 1.377 . S
C3597 C3595 1.389 . S
C3597 C3598 1.524 . S
C3598 C3597 1.524 . S
C3598 C3599 1.397 . S
C3598 C3603 1.363 . S
C3599 H3570 0.950 . S
C3599 C3598 1.397 . S
C3599 C3600 1.334 . S
C3600 H3571 0.950 . S
C3600 C3599 1.334 . S
C3600 C3601 1.287 . S
C3601 C3600 1.287 . S
C3601 C3602 1.524 . S
C3601 H3604 0.999 . S
C3602 H3572 0.950 . S
C3602 C3601 1.524 . S
C3602 C3603 1.415 . S
C3603 H3573 0.950 . S
C3603 C3598 1.363 . S
C3603 C3602 1.415 . S
H3604 C3601 0.999 . S
H3605 C3586 0.913 . S
H3606 C3624 0.951 . S
H3607 C3626 0.951 . S
H3608 C3628 0.950 . S
H3609 C3629 0.950 . S
H3610 C3631 0.950 . S
H3611 C3634 0.950 . S
H3612 C3635 0.950 . S
H3613 C3637 0.950 . S
H3614 C3638 0.950 . S
H3615 C3639 0.951 . S
H3616 C3641 0.951 . S
H3617 C3643 0.950 . S
H3618 C3644 0.950 . S
H3619 C3646 0.950 . S
H3620 C3649 0.950 . S
H3621 C3650 0.950 . S
H3622 C3652 0.950 . S
H3623 C3653 0.950 . S
C3624 H3606 0.951 . S
C3624 C3625 1.366 . S
C3624 C3626 1.388 . S
C3625 C3624 1.366 . S
C3625 C3629 1.385 . S
C3626 H3607 0.951 . S
C3626 C3624 1.388 . S
C3626 C3627 1.366 . S
C3627 C3626 1.366 . S
C3627 C3628 1.414 . S
C3627 C3630 1.499 . S
C3628 H3608 0.950 . S
C3628 C3627 1.414 . S
C3628 C3629 1.374 . S
C3629 H3609 0.950 . S
C3629 C3625 1.385 . S
C3629 C3628 1.374 . S
C3630 C3627 1.499 . S
C3630 C3631 1.373 . S
C3630 C3632 1.389 . S
C3631 H3610 0.950 . S
C3631 C3630 1.373 . S
C3631 C3647 1.377 . S
C3632 C3630 1.389 . S
C3632 C3633 1.524 . S
C3632 C3646 1.377 . S
C3633 C3632 1.524 . S
C3633 C3634 1.397 . S
C3633 C3638 1.363 . S
C3634 H3611 0.950 . S
C3634 C3633 1.397 . S
C3634 C3635 1.334 . S
C3635 H3612 0.950 . S
C3635 C3634 1.334 . S
C3635 C3636 1.287 . S
C3636 C3635 1.287 . S
C3636 C3637 1.524 . S
C3636 H3655 0.913 . S
C3637 H3613 0.950 . S
C3637 C3636 1.524 . S
C3637 C3638 1.415 . S
C3638 H3614 0.950 . S
C3638 C3633 1.363 . S
C3638 C3637 1.415 . S
C3639 H3615 0.951 . S
C3639 C3640 1.366 . S
C3639 C3641 1.388 . S
C3640 C3639 1.366 . S
C3640 C3644 1.385 . S
C3641 H3616 0.951 . S
C3641 C3639 1.388 . S
C3641 C3642 1.366 . S
C3642 C3641 1.366 . S
C3642 C3643 1.414 . S
C3642 C3645 1.499 . S
C3643 H3617 0.950 . S
C3643 C3642 1.414 . S
C3643 C3644 1.374 . S
C3644 H3618 0.950 . S
C3644 C3640 1.385 . S
C3644 C3643 1.374 . S
C3645 C3642 1.499 . S
C3645 C3646 1.373 . S
C3645 C3647 1.389 . S
C3646 H3619 0.950 . S
C3646 C3632 1.377 . S
C3646 C3645 1.373 . S
C3647 C3631 1.377 . S
C3647 C3645 1.389 . S
C3647 C3648 1.524 . S
C3648 C3647 1.524 . S
C3648 C3649 1.397 . S
C3648 C3653 1.363 . S
C3649 H3620 0.950 . S
C3649 C3648 1.397 . S
C3649 C3650 1.334 . S
C3650 H3621 0.950 . S
C3650 C3649 1.334 . S
C3650 C3651 1.287 . S
C3651 C3650 1.287 . S
C3651 C3652 1.524 . S
C3651 H3654 0.999 . S
C3652 H3622 0.950 . S
C3652 C3651 1.524 . S
C3652 C3653 1.415 . S
C3653 H3623 0.950 . S
C3653 C3648 1.363 . S
C3653 C3652 1.415 . S
H3654 C3651 0.999 . S
H3655 C3636 0.913 . S
H3656 C3674 0.951 . S
H3657 C3676 0.951 . S
H3658 C3678 0.950 1_655 S
H3659 C3679 0.913 1_655 S
H3660 C3681 0.945 1_655 S
H3661 C3684 0.950 . S
H3662 C3685 0.950 . S
H3663 C3687 0.950 . S
H3664 C3688 0.950 . S
H3665 C3689 0.951 1_655 S
H3666 C3691 0.951 1_655 S
H3667 C3693 0.950 . S
H3668 C3694 0.950 . S
H3669 C3696 0.950 . S
H3670 C3699 0.950 . S
H3671 C3700 0.925 1_455 S
H3672 C3702 0.950 . S
H3673 C3703 0.950 . S
C3674 H3656 0.951 . S
C3674 C3675 1.366 . S
C3674 C3676 1.388 . S
C3675 C3674 1.366 . S
C3675 C3679 1.425 . S
C3676 H3657 0.951 . S
C3676 C3674 1.388 . S
C3676 C3677 1.366 . S
C3677 C3676 1.366 . S
C3677 C3678 1.414 . S
C3677 C3680 1.499 . S
C3678 H3658 0.950 1_455 S
C3678 C3677 1.414 . S
C3678 C3679 1.371 . S
C3679 H3659 0.913 1_455 S
C3679 C3675 1.425 . S
C3679 C3678 1.371 . S
C3680 C3677 1.499 . S
C3680 C3681 1.373 . S
C3680 C3682 1.389 . S
C3681 H3660 0.945 1_455 S
C3681 C3680 1.373 . S
C3681 C3697 1.377 . S
C3682 C3680 1.389 . S
C3682 C3683 1.524 . S
C3682 C3696 1.377 . S
C3683 C3682 1.524 . S
C3683 C3684 1.397 . S
C3683 C3688 1.363 . S
C3684 H3661 0.950 . S
C3684 C3683 1.397 . S
C3684 C3685 1.334 . S
C3685 H3662 0.950 . S
C3685 C3684 1.334 . S
C3685 C3686 1.287 . S
C3686 C3685 1.287 . S
C3686 C3687 1.524 . S
C3686 H3705 0.913 . S
C3687 H3663 0.950 . S
C3687 C3686 1.524 . S
C3687 C3688 1.415 . S
C3688 H3664 0.950 . S
C3688 C3683 1.363 . S
C3688 C3687 1.415 . S
C3689 H3665 0.951 1_455 S
C3689 C3690 1.366 . S
C3689 C3691 1.388 . S
C3690 C3689 1.366 . S
C3690 C3694 1.385 . S
C3691 H3666 0.951 1_455 S
C3691 C3689 1.388 . S
C3691 C3692 1.366 . S
C3692 C3691 1.366 . S
C3692 C3693 1.414 . S
C3692 C3695 1.499 . S
C3693 H3667 0.950 . S
C3693 C3692 1.414 . S
C3693 C3694 1.374 . S
C3694 H3668 0.950 . S
C3694 C3690 1.385 . S
C3694 C3693 1.374 . S
C3695 C3692 1.499 . S
C3695 C3696 1.373 . S
C3695 C3697 1.389 . S
C3696 H3669 0.950 . S
C3696 C3682 1.377 . S
C3696 C3695 1.373 . S
C3697 C3681 1.377 . S
C3697 C3695 1.389 . S
C3697 C3698 1.524 1_455 S
C3698 C3697 1.524 1_655 S
C3698 C3699 1.397 1_655 S
C3698 C3703 1.363 . S
C3699 H3670 0.950 . S
C3699 C3698 1.397 1_455 S
C3699 C3700 1.317 1_455 S
C3700 H3671 0.925 1_655 S
C3700 C3699 1.317 1_655 S
C3700 C3701 1.331 . S
C3701 C3700 1.331 . S
C3701 C3702 1.524 . S
C3701 H3704 0.999 . S
C3702 H3672 0.950 . S
C3702 C3701 1.524 . S
C3702 C3703 1.415 . S
C3703 H3673 0.950 . S
C3703 C3698 1.363 . S
C3703 C3702 1.415 . S
H3704 C3701 0.999 . S
H3705 C3686 0.913 . S
H3706 C3724 0.951 . S
H3707 C3726 0.951 . S
H3708 C3728 0.950 . S
H3709 C3729 0.950 . S
H3710 C3731 0.950 . S
H3711 C3734 0.950 . S
H3712 C3735 0.950 . S
H3713 C3737 0.950 . S
H3714 C3738 0.950 . S
H3715 C3739 0.951 . S
H3716 C3741 0.951 . S
H3717 C3743 0.950 . S
H3718 C3744 0.950 . S
H3719 C3746 0.950 . S
H3720 C3749 0.950 . S
H3721 C3750 0.950 . S
H3722 C3752 0.950 . S
H3723 C3753 0.950 . S
C3724 H3706 0.951 . S
C3724 C3725 1.366 . S
C3724 C3726 1.388 . S
C3725 C3724 1.366 . S
C3725 C3729 1.385 . S
C3726 H3707 0.951 . S
C3726 C3724 1.388 . S
C3726 C3727 1.366 . S
C3727 C3726 1.366 . S
C3727 C3728 1.414 . S
C3727 C3730 1.499 . S
C3728 H3708 0.950 . S
C3728 C3727 1.414 . S
C3728 C3729 1.374 . S
C3729 H3709 0.950 . S
C3729 C3725 1.385 . S
C3729 C3728 1.374 . S
C3730 C3727 1.499 . S
C3730 C3731 1.373 . S
C3730 C3732 1.389 . S
C3731 H3710 0.950 . S
C3731 C3730 1.373 . S
C3731 C3747 1.377 . S
C3732 C3730 1.389 . S
C3732 C3733 1.524 . S
C3732 C3746 1.377 . S
C3733 C3732 1.524 . S
C3733 C3734 1.397 . S
C3733 C3738 1.363 . S
C3734 H3711 0.950 . S
C3734 C3733 1.397 . S
C3734 C3735 1.334 . S
C3735 H3712 0.950 . S
C3735 C3734 1.334 . S
C3735 C3736 1.287 . S
C3736 C3735 1.287 . S
C3736 C3737 1.524 . S
C3736 H3755 0.913 . S
C3737 H3713 0.950 . S
C3737 C3736 1.524 . S
C3737 C3738 1.415 . S
C3738 H3714 0.950 . S
C3738 C3733 1.363 . S
C3738 C3737 1.415 . S
C3739 H3715 0.951 . S
C3739 C3740 1.366 . S
C3739 C3741 1.388 . S
C3740 C3739 1.366 . S
C3740 C3744 1.385 . S
C3741 H3716 0.951 . S
C3741 C3739 1.388 . S
C3741 C3742 1.366 . S
C3742 C3741 1.366 . S
C3742 C3743 1.414 . S
C3742 C3745 1.499 . S
C3743 H3717 0.950 . S
C3743 C3742 1.414 . S
C3743 C3744 1.374 . S
C3744 H3718 0.950 . S
C3744 C3740 1.385 . S
C3744 C3743 1.374 . S
C3745 C3742 1.499 . S
C3745 C3746 1.373 . S
C3745 C3747 1.389 . S
C3746 H3719 0.950 . S
C3746 C3732 1.377 . S
C3746 C3745 1.373 . S
C3747 C3731 1.377 . S
C3747 C3745 1.389 . S
C3747 C3748 1.524 . S
C3748 C3747 1.524 . S
C3748 C3749 1.397 . S
C3748 C3753 1.363 . S
C3749 H3720 0.950 . S
C3749 C3748 1.397 . S
C3749 C3750 1.334 . S
C3750 H3721 0.950 . S
C3750 C3749 1.334 . S
C3750 C3751 1.287 . S
C3751 C3750 1.287 . S
C3751 C3752 1.524 . S
C3751 H3754 0.999 . S
C3752 H3722 0.950 . S
C3752 C3751 1.524 . S
C3752 C3753 1.415 . S
C3753 H3723 0.950 . S
C3753 C3748 1.363 . S
C3753 C3752 1.415 . S
H3754 C3751 0.999 . S
H3755 C3736 0.913 . S
H3756 C3774 0.951 . S
H3757 C3776 0.951 . S
H3758 C3778 0.950 . S
H3759 C3779 0.950 . S
H3760 C3781 0.950 . S
H3761 C3784 0.950 . S
H3762 C3785 0.950 . S
H3763 C3787 0.950 . S
H3764 C3788 0.950 . S
H3765 C3789 0.951 . S
H3766 C3791 0.951 . S
H3767 C3793 0.950 . S
H3768 C3794 0.950 . S
H3769 C3796 0.950 . S
H3770 C3799 0.950 . S
H3771 C3800 0.950 . S
H3772 C3802 0.950 . S
H3773 C3803 0.950 . S
C3774 H3756 0.951 . S
C3774 C3775 1.366 . S
C3774 C3776 1.388 . S
C3775 C3774 1.366 . S
C3775 C3779 1.385 . S
C3776 H3757 0.951 . S
C3776 C3774 1.388 . S
C3776 C3777 1.366 . S
C3777 C3776 1.366 . S
C3777 C3778 1.414 . S
C3777 C3780 1.499 . S
C3778 H3758 0.950 . S
C3778 C3777 1.414 . S
C3778 C3779 1.374 . S
C3779 H3759 0.950 . S
C3779 C3775 1.385 . S
C3779 C3778 1.374 . S
C3780 C3777 1.499 . S
C3780 C3781 1.373 . S
C3780 C3782 1.389 . S
C3781 H3760 0.950 . S
C3781 C3780 1.373 . S
C3781 C3797 1.377 . S
C3782 C3780 1.389 . S
C3782 C3783 1.524 . S
C3782 C3796 1.377 . S
C3783 C3782 1.524 . S
C3783 C3784 1.397 . S
C3783 C3788 1.363 . S
C3784 H3761 0.950 . S
C3784 C3783 1.397 . S
C3784 C3785 1.334 . S
C3785 H3762 0.950 . S
C3785 C3784 1.334 . S
C3785 C3786 1.287 . S
C3786 C3785 1.287 . S
C3786 C3787 1.524 . S
C3786 H3805 0.913 . S
C3787 H3763 0.950 . S
C3787 C3786 1.524 . S
C3787 C3788 1.415 . S
C3788 H3764 0.950 . S
C3788 C3783 1.363 . S
C3788 C3787 1.415 . S
C3789 H3765 0.951 . S
C3789 C3790 1.366 . S
C3789 C3791 1.388 . S
C3790 C3789 1.366 . S
C3790 C3794 1.385 . S
C3791 H3766 0.951 . S
C3791 C3789 1.388 . S
C3791 C3792 1.366 . S
C3792 C3791 1.366 . S
C3792 C3793 1.414 . S
C3792 C3795 1.499 . S
C3793 H3767 0.950 . S
C3793 C3792 1.414 . S
C3793 C3794 1.374 . S
C3794 H3768 0.950 . S
C3794 C3790 1.385 . S
C3794 C3793 1.374 . S
C3795 C3792 1.499 . S
C3795 C3796 1.373 . S
C3795 C3797 1.389 . S
C3796 H3769 0.950 . S
C3796 C3782 1.377 . S
C3796 C3795 1.373 . S
C3797 C3781 1.377 . S
C3797 C3795 1.389 . S
C3797 C3798 1.524 . S
C3798 C3797 1.524 . S
C3798 C3799 1.397 . S
C3798 C3803 1.363 . S
C3799 H3770 0.950 . S
C3799 C3798 1.397 . S
C3799 C3800 1.334 . S
C3800 H3771 0.950 . S
C3800 C3799 1.334 . S
C3800 C3801 1.287 . S
C3801 C3800 1.287 . S
C3801 C3802 1.524 . S
C3801 H3804 0.999 . S
C3802 H3772 0.950 . S
C3802 C3801 1.524 . S
C3802 C3803 1.415 . S
C3803 H3773 0.950 . S
C3803 C3798 1.363 . S
C3803 C3802 1.415 . S
H3804 C3801 0.999 . S
H3805 C3786 0.913 . S
H3806 C3824 0.951 . S
H3807 C3826 0.951 . S
H3808 C3828 0.950 . S
H3809 C3829 0.950 . S
H3810 C3831 0.950 . S
H3811 C3834 0.950 . S
H3812 C3835 0.950 . S
H3813 C3837 0.950 . S
H3814 C3838 0.950 . S
H3815 C3839 0.951 . S
H3816 C3841 0.951 . S
H3817 C3843 0.950 . S
H3818 C3844 0.950 . S
H3819 C3846 0.950 . S
H3820 C3849 0.950 . S
H3821 C3850 0.950 . S
H3822 C3852 0.950 . S
H3823 C3853 0.950 . S
C3824 H3806 0.951 . S
C3824 C3825 1.366 . S
C3824 C3826 1.388 . S
C3825 C3824 1.366 . S
C3825 C3829 1.385 . S
C3826 H3807 0.951 . S
C3826 C3824 1.388 . S
C3826 C3827 1.366 . S
C3827 C3826 1.366 . S
C3827 C3828 1.414 . S
C3827 C3830 1.499 . S
C3828 H3808 0.950 . S
C3828 C3827 1.414 . S
C3828 C3829 1.374 . S
C3829 H3809 0.950 . S
C3829 C3825 1.385 . S
C3829 C3828 1.374 . S
C3830 C3827 1.499 . S
C3830 C3831 1.373 . S
C3830 C3832 1.389 . S
C3831 H3810 0.950 . S
C3831 C3830 1.373 . S
C3831 C3847 1.377 . S
C3832 C3830 1.389 . S
C3832 C3833 1.524 . S
C3832 C3846 1.377 . S
C3833 C3832 1.524 . S
C3833 C3834 1.397 . S
C3833 C3838 1.363 . S
C3834 H3811 0.950 . S
C3834 C3833 1.397 . S
C3834 C3835 1.334 . S
C3835 H3812 0.950 . S
C3835 C3834 1.334 . S
C3835 C3836 1.287 . S
C3836 C3835 1.287 . S
C3836 C3837 1.524 . S
C3836 H3855 0.913 . S
C3837 H3813 0.950 . S
C3837 C3836 1.524 . S
C3837 C3838 1.415 . S
C3838 H3814 0.950 . S
C3838 C3833 1.363 . S
C3838 C3837 1.415 . S
C3839 H3815 0.951 . S
C3839 C3840 1.366 . S
C3839 C3841 1.388 . S
C3840 C3839 1.366 . S
C3840 C3844 1.385 . S
C3841 H3816 0.951 . S
C3841 C3839 1.388 . S
C3841 C3842 1.366 . S
C3842 C3841 1.366 . S
C3842 C3843 1.414 . S
C3842 C3845 1.499 . S
C3843 H3817 0.950 . S
C3843 C3842 1.414 . S
C3843 C3844 1.374 . S
C3844 H3818 0.950 . S
C3844 C3840 1.385 . S
C3844 C3843 1.374 . S
C3845 C3842 1.499 . S
C3845 C3846 1.373 . S
C3845 C3847 1.389 . S
C3846 H3819 0.950 . S
C3846 C3832 1.377 . S
C3846 C3845 1.373 . S
C3847 C3831 1.377 . S
C3847 C3845 1.389 . S
C3847 C3848 1.524 . S
C3848 C3847 1.524 . S
C3848 C3849 1.397 . S
C3848 C3853 1.363 . S
C3849 H3820 0.950 . S
C3849 C3848 1.397 . S
C3849 C3850 1.334 . S
C3850 H3821 0.950 . S
C3850 C3849 1.334 . S
C3850 C3851 1.287 . S
C3851 C3850 1.287 . S
C3851 C3852 1.524 . S
C3851 H3854 0.999 . S
C3852 H3822 0.950 . S
C3852 C3851 1.524 . S
C3852 C3853 1.415 . S
C3853 H3823 0.950 . S
C3853 C3848 1.363 . S
C3853 C3852 1.415 . S
H3854 C3851 0.999 . S
H3855 C3836 0.913 . S
H3856 C3874 0.951 1_565 S
H3857 C3876 0.951 1_565 S
H3858 C3878 0.950 . S
H3859 C3879 0.950 . S
H3860 C3881 0.950 . S
H3861 C3884 0.950 . S
H3862 C3885 0.950 . S
H3863 C3887 0.950 . S
H3864 C3888 0.950 . S
H3865 C3889 0.951 . S
H3866 C3891 0.947 . S
H3867 C3893 0.950 1_565 S
H3868 C3894 0.991 . S
H3869 C3896 0.950 . S
H3870 C3899 0.950 . S
H3871 C3900 0.950 . S
H3872 C3902 0.950 . S
H3873 C3903 0.950 . S
C3874 H3856 0.951 1_545 S
C3874 C3875 1.366 . S
C3874 C3876 1.388 . S
C3875 C3874 1.366 . S
C3875 C3879 1.385 . S
C3876 H3857 0.951 1_545 S
C3876 C3874 1.388 . S
C3876 C3877 1.366 . S
C3877 C3876 1.366 . S
C3877 C3878 1.414 . S
C3877 C3880 1.499 . S
C3878 H3858 0.950 . S
C3878 C3877 1.414 . S
C3878 C3879 1.374 . S
C3879 H3859 0.950 . S
C3879 C3875 1.385 . S
C3879 C3878 1.374 . S
C3880 C3877 1.499 . S
C3880 C3881 1.373 . S
C3880 C3882 1.389 . S
C3881 H3860 0.950 . S
C3881 C3880 1.373 . S
C3881 C3897 1.377 . S
C3882 C3880 1.389 . S
C3882 C3883 1.524 1_545 S
C3882 C3896 1.377 . S
C3883 C3882 1.524 1_565 S
C3883 C3884 1.397 1_665 S
C3883 C3888 1.363 . S
C3884 H3861 0.950 . S
C3884 C3883 1.397 1_445 S
C3884 C3885 1.334 1_545 S
C3885 H3862 0.950 . S
C3885 C3884 1.334 1_565 S
C3885 C3886 1.287 . S
C3886 C3885 1.287 . S
C3886 C3887 1.524 1_455 S
C3886 H3905 0.913 . S
C3887 H3863 0.950 . S
C3887 C3886 1.524 1_655 S
C3887 C3888 1.415 . S
C3888 H3864 0.950 . S
C3888 C3883 1.363 . S
C3888 C3887 1.415 . S
C3889 H3865 0.951 . S
C3889 C3890 1.366 . S
C3889 C3891 1.403 . S
C3890 C3889 1.366 . S
C3890 C3894 1.385 1_455 S
C3891 H3866 0.947 . S
C3891 C3889 1.403 . S
C3891 C3892 1.355 1_455 S
C3892 C3891 1.355 1_655 S
C3892 C3893 1.414 . S
C3892 C3895 1.499 . S
C3893 H3867 0.950 1_545 S
C3893 C3892 1.414 . S
C3893 C3894 1.374 . S
C3894 H3868 0.991 . S
C3894 C3890 1.385 1_655 S
C3894 C3893 1.374 . S
C3895 C3892 1.499 . S
C3895 C3896 1.373 . S
C3895 C3897 1.389 . S
C3896 H3869 0.950 . S
C3896 C3882 1.377 . S
C3896 C3895 1.373 . S
C3897 C3881 1.377 . S
C3897 C3895 1.389 . S
C3897 C3898 1.524 . S
C3898 C3897 1.524 . S
C3898 C3899 1.397 . S
C3898 C3903 1.363 . S
C3899 H3870 0.950 . S
C3899 C3898 1.397 . S
C3899 C3900 1.334 . S
C3900 H3871 0.950 . S
C3900 C3899 1.334 . S
C3900 C3901 1.287 . S
C3901 C3900 1.287 . S
C3901 C3902 1.524 . S
C3901 H3904 0.999 . S
C3902 H3872 0.950 . S
C3902 C3901 1.524 . S
C3902 C3903 1.415 . S
C3903 H3873 0.950 . S
C3903 C3898 1.363 . S
C3903 C3902 1.415 . S
H3904 C3901 0.999 . S
H3905 C3886 0.913 . S
H3906 C3924 0.951 . S
H3907 C3926 0.951 . S
H3908 C3928 0.950 . S
H3909 C3929 0.950 . S
H3910 C3931 0.950 . S
H3911 C3934 0.950 . S
H3912 C3935 0.950 . S
H3913 C3937 0.950 . S
H3914 C3938 0.950 . S
H3915 C3939 0.951 . S
H3916 C3941 0.951 . S
H3917 C3943 0.950 . S
H3918 C3944 0.950 . S
H3919 C3946 0.950 . S
H3920 C3949 0.950 . S
H3921 C3950 0.950 . S
H3922 C3952 0.950 . S
H3923 C3953 0.950 . S
C3924 H3906 0.951 . S
C3924 C3925 1.366 . S
C3924 C3926 1.388 . S
C3925 C3924 1.366 . S
C3925 C3929 1.385 . S
C3926 H3907 0.951 . S
C3926 C3924 1.388 . S
C3926 C3927 1.366 . S
C3927 C3926 1.366 . S
C3927 C3928 1.414 . S
C3927 C3930 1.499 . S
C3928 H3908 0.950 . S
C3928 C3927 1.414 . S
C3928 C3929 1.374 . S
C3929 H3909 0.950 . S
C3929 C3925 1.385 . S
C3929 C3928 1.374 . S
C3930 C3927 1.499 . S
C3930 C3931 1.373 . S
C3930 C3932 1.389 . S
C3931 H3910 0.950 . S
C3931 C3930 1.373 . S
C3931 C3947 1.377 . S
C3932 C3930 1.389 . S
C3932 C3933 1.524 . S
C3932 C3946 1.377 . S
C3933 C3932 1.524 . S
C3933 C3934 1.397 . S
C3933 C3938 1.363 . S
C3934 H3911 0.950 . S
C3934 C3933 1.397 . S
C3934 C3935 1.334 . S
C3935 H3912 0.950 . S
C3935 C3934 1.334 . S
C3935 C3936 1.287 . S
C3936 C3935 1.287 . S
C3936 C3937 1.524 . S
C3936 H3955 0.913 . S
C3937 H3913 0.950 . S
C3937 C3936 1.524 . S
C3937 C3938 1.415 . S
C3938 H3914 0.950 . S
C3938 C3933 1.363 . S
C3938 C3937 1.415 . S
C3939 H3915 0.951 . S
C3939 C3940 1.366 . S
C3939 C3941 1.388 . S
C3940 C3939 1.366 . S
C3940 C3944 1.385 . S
C3941 H3916 0.951 . S
C3941 C3939 1.388 . S
C3941 C3942 1.366 . S
C3942 C3941 1.366 . S
C3942 C3943 1.414 . S
C3942 C3945 1.499 . S
C3943 H3917 0.950 . S
C3943 C3942 1.414 . S
C3943 C3944 1.374 . S
C3944 H3918 0.950 . S
C3944 C3940 1.385 . S
C3944 C3943 1.374 . S
C3945 C3942 1.499 . S
C3945 C3946 1.373 . S
C3945 C3947 1.389 . S
C3946 H3919 0.950 . S
C3946 C3932 1.377 . S
C3946 C3945 1.373 . S
C3947 C3931 1.377 . S
C3947 C3945 1.389 . S
C3947 C3948 1.524 . S
C3948 C3947 1.524 . S
C3948 C3949 1.397 . S
C3948 C3953 1.363 . S
C3949 H3920 0.950 . S
C3949 C3948 1.397 . S
C3949 C3950 1.334 . S
C3950 H3921 0.950 . S
C3950 C3949 1.334 . S
C3950 C3951 1.287 . S
C3951 C3950 1.287 . S
C3951 C3952 1.524 . S
C3951 H3954 0.999 . S
C3952 H3922 0.950 . S
C3952 C3951 1.524 . S
C3952 C3953 1.415 . S
C3953 H3923 0.950 . S
C3953 C3948 1.363 . S
C3953 C3952 1.415 . S
H3954 C3951 0.999 . S
H3955 C3936 0.913 . S
H3956 C3974 0.951 . S
H3957 C3976 0.951 . S
H3958 C3978 0.950 . S
H3959 C3979 0.950 . S
H3960 C3981 0.950 . S
H3961 C3984 0.950 . S
H3962 C3985 0.950 . S
H3963 C3987 0.950 . S
H3964 C3988 0.950 . S
H3965 C3989 0.951 . S
H3966 C3991 0.951 . S
H3967 C3993 0.984 . S
H3968 C3994 0.949 1_565 S
H3969 C3996 0.950 1_565 S
H3970 C3999 0.950 . S
H3971 C4000 0.950 . S
H3972 C4002 0.950 . S
H3973 C4003 0.950 . S
C3974 H3956 0.951 . S
C3974 C3975 1.366 . S
C3974 C3976 1.388 . S
C3975 C3974 1.366 . S
C3975 C3979 1.385 . S
C3976 H3957 0.951 . S
C3976 C3974 1.388 . S
C3976 C3977 1.366 . S
C3977 C3976 1.366 . S
C3977 C3978 1.414 . S
C3977 C3980 1.499 . S
C3978 H3958 0.950 . S
C3978 C3977 1.414 . S
C3978 C3979 1.374 . S
C3979 H3959 0.950 . S
C3979 C3975 1.385 . S
C3979 C3978 1.374 . S
C3980 C3977 1.499 . S
C3980 C3981 1.373 . S
C3980 C3982 1.389 . S
C3981 H3960 0.950 . S
C3981 C3980 1.373 . S
C3981 C3997 1.377 . S
C3982 C3980 1.389 . S
C3982 C3983 1.524 1_545 S
C3982 C3996 1.377 . S
C3983 C3982 1.524 1_565 S
C3983 C3984 1.397 . S
C3983 C3988 1.363 . S
C3984 H3961 0.950 . S
C3984 C3983 1.397 . S
C3984 C3985 1.334 . S
C3985 H3962 0.950 . S
C3985 C3984 1.334 . S
C3985 C3986 1.287 . S
C3986 C3985 1.287 . S
C3986 C3987 1.524 . S
C3986 H4005 0.913 . S
C3987 H3963 0.950 . S
C3987 C3986 1.524 . S
C3987 C3988 1.415 . S
C3988 H3964 0.950 . S
C3988 C3983 1.363 . S
C3988 C3987 1.415 . S
C3989 H3965 0.951 . S
C3989 C3990 1.366 . S
C3989 C3991 1.388 . S
C3990 C3989 1.366 . S
C3990 C3994 1.385 . S
C3991 H3966 0.951 . S
C3991 C3989 1.388 . S
C3991 C3992 1.366 . S
C3992 C3991 1.366 . S
C3992 C3993 1.414 . S
C3992 C3995 1.499 . S
C3993 H3967 0.984 . S
C3993 C3992 1.414 . S
C3993 C3994 1.374 . S
C3994 H3968 0.949 1_545 S
C3994 C3990 1.385 . S
C3994 C3993 1.374 . S
C3995 C3992 1.499 . S
C3995 C3996 1.373 . S
C3995 C3997 1.389 . S
C3996 H3969 0.950 1_545 S
C3996 C3982 1.377 . S
C3996 C3995 1.373 . S
C3997 C3981 1.377 . S
C3997 C3995 1.389 . S
C3997 C3998 1.524 . S
C3998 C3997 1.524 . S
C3998 C3999 1.397 . S
C3998 C4003 1.363 . S
C3999 H3970 0.950 . S
C3999 C3998 1.397 . S
C3999 C4000 1.334 . S
C4000 H3971 0.950 . S
C4000 C3999 1.334 . S
C4000 C4001 1.287 . S
C4001 C4000 1.287 . S
C4001 C4002 1.524 . S
C4001 H4004 0.999 . S
C4002 H3972 0.950 . S
C4002 C4001 1.524 . S
C4002 C4003 1.415 . S
C4003 H3973 0.950 . S
C4003 C3998 1.363 . S
C4003 C4002 1.415 . S
H4004 C4001 0.999 . S
H4005 C3986 0.913 . S
H4006 C4024 0.951 . S
H4007 C4026 0.951 . S
H4008 C4028 0.950 . S
H4009 C4029 0.950 . S
H4010 C4031 0.950 . S
H4011 C4034 0.950 . S
H4012 C4035 0.950 . S
H4013 C4037 0.950 . S
H4014 C4038 0.950 . S
H4015 C4039 0.951 . S
H4016 C4041 0.951 . S
H4017 C4043 0.950 . S
H4018 C4044 0.950 . S
H4019 C4046 0.950 . S
H4020 C4049 0.950 . S
H4021 C4050 0.950 . S
H4022 C4052 0.950 . S
H4023 C4053 0.950 . S
C4024 H4006 0.951 . S
C4024 C4025 1.366 . S
C4024 C4026 1.388 . S
C4025 C4024 1.366 . S
C4025 C4029 1.385 . S
C4026 H4007 0.951 . S
C4026 C4024 1.388 . S
C4026 C4027 1.366 . S
C4027 C4026 1.366 . S
C4027 C4028 1.414 . S
C4027 C4030 1.499 . S
C4028 H4008 0.950 . S
C4028 C4027 1.414 . S
C4028 C4029 1.374 . S
C4029 H4009 0.950 . S
C4029 C4025 1.385 . S
C4029 C4028 1.374 . S
C4030 C4027 1.499 . S
C4030 C4031 1.373 . S
C4030 C4032 1.389 . S
C4031 H4010 0.950 . S
C4031 C4030 1.373 . S
C4031 C4047 1.377 . S
C4032 C4030 1.389 . S
C4032 C4033 1.524 . S
C4032 C4046 1.377 . S
C4033 C4032 1.524 . S
C4033 C4034 1.397 . S
C4033 C4038 1.363 . S
C4034 H4011 0.950 . S
C4034 C4033 1.397 . S
C4034 C4035 1.334 . S
C4035 H4012 0.950 . S
C4035 C4034 1.334 . S
C4035 C4036 1.287 . S
C4036 C4035 1.287 . S
C4036 C4037 1.524 . S
C4036 H4055 0.913 . S
C4037 H4013 0.950 . S
C4037 C4036 1.524 . S
C4037 C4038 1.415 . S
C4038 H4014 0.950 . S
C4038 C4033 1.363 . S
C4038 C4037 1.415 . S
C4039 H4015 0.951 . S
C4039 C4040 1.366 . S
C4039 C4041 1.388 . S
C4040 C4039 1.366 . S
C4040 C4044 1.385 . S
C4041 H4016 0.951 . S
C4041 C4039 1.388 . S
C4041 C4042 1.366 . S
C4042 C4041 1.366 . S
C4042 C4043 1.414 . S
C4042 C4045 1.499 . S
C4043 H4017 0.950 . S
C4043 C4042 1.414 . S
C4043 C4044 1.374 . S
C4044 H4018 0.950 . S
C4044 C4040 1.385 . S
C4044 C4043 1.374 . S
C4045 C4042 1.499 . S
C4045 C4046 1.373 . S
C4045 C4047 1.389 . S
C4046 H4019 0.950 . S
C4046 C4032 1.377 . S
C4046 C4045 1.373 . S
C4047 C4031 1.377 . S
C4047 C4045 1.389 . S
C4047 C4048 1.524 . S
C4048 C4047 1.524 . S
C4048 C4049 1.397 . S
C4048 C4053 1.363 . S
C4049 H4020 0.950 . S
C4049 C4048 1.397 . S
C4049 C4050 1.334 . S
C4050 H4021 0.950 . S
C4050 C4049 1.334 . S
C4050 C4051 1.287 . S
C4051 C4050 1.287 . S
C4051 C4052 1.524 . S
C4051 H4054 0.999 . S
C4052 H4022 0.950 . S
C4052 C4051 1.524 . S
C4052 C4053 1.415 . S
C4053 H4023 0.950 . S
C4053 C4048 1.363 . S
C4053 C4052 1.415 . S
H4054 C4051 0.999 . S
H4055 C4036 0.913 . S
H4056 C4074 0.951 . S
H4057 C4076 0.951 . S
H4058 C4078 0.950 . S
H4059 C4079 0.950 . S
H4060 C4081 0.950 . S
H4061 C4084 0.950 . S
H4062 C4085 0.950 . S
H4063 C4087 0.950 . S
H4064 C4088 0.950 . S
H4065 C4089 0.951 . S
H4066 C4091 0.951 . S
H4067 C4093 0.950 . S
H4068 C4094 0.950 . S
H4069 C4096 0.950 1_565 S
H4070 C4099 0.950 . S
H4071 C4100 0.950 . S
H4072 C4102 0.950 . S
H4073 C4103 0.950 . S
C4074 H4056 0.951 . S
C4074 C4075 1.366 . S
C4074 C4076 1.388 . S
C4075 C4074 1.366 . S
C4075 C4079 1.385 . S
C4076 H4057 0.951 . S
C4076 C4074 1.388 . S
C4076 C4077 1.366 . S
C4077 C4076 1.366 . S
C4077 C4078 1.414 . S
C4077 C4080 1.499 . S
C4078 H4058 0.950 . S
C4078 C4077 1.414 . S
C4078 C4079 1.374 . S
C4079 H4059 0.950 . S
C4079 C4075 1.385 . S
C4079 C4078 1.374 . S
C4080 C4077 1.499 . S
C4080 C4081 1.373 . S
C4080 C4082 1.389 . S
C4081 H4060 0.950 . S
C4081 C4080 1.373 . S
C4081 C4097 1.377 . S
C4082 C4080 1.389 . S
C4082 C4083 1.524 1_545 S
C4082 C4096 1.377 . S
C4083 C4082 1.524 1_565 S
C4083 C4084 1.397 . S
C4083 C4088 1.363 . S
C4084 H4061 0.950 . S
C4084 C4083 1.397 . S
C4084 C4085 1.334 . S
C4085 H4062 0.950 . S
C4085 C4084 1.334 . S
C4085 C4086 1.287 . S
C4086 C4085 1.287 . S
C4086 C4087 1.524 . S
C4086 H4105 0.913 . S
C4087 H4063 0.950 . S
C4087 C4086 1.524 . S
C4087 C4088 1.415 . S
C4088 H4064 0.950 . S
C4088 C4083 1.363 . S
C4088 C4087 1.415 . S
C4089 H4065 0.951 . S
C4089 C4090 1.366 1_655 S
C4089 C4091 1.388 . S
C4090 C4089 1.366 1_455 S
C4090 C4094 1.385 . S
C4091 H4066 0.951 . S
C4091 C4089 1.388 . S
C4091 C4092 1.366 . S
C4092 C4091 1.366 . S
C4092 C4093 1.414 1_655 S
C4092 C4095 1.499 . S
C4093 H4067 0.950 . S
C4093 C4092 1.414 1_455 S
C4093 C4094 1.374 . S
C4094 H4068 0.950 . S
C4094 C4090 1.385 . S
C4094 C4093 1.374 . S
C4095 C4092 1.499 . S
C4095 C4096 1.373 . S
C4095 C4097 1.389 . S
C4096 H4069 0.950 1_545 S
C4096 C4082 1.377 . S
C4096 C4095 1.373 . S
C4097 C4081 1.377 . S
C4097 C4095 1.389 . S
C4097 C4098 1.524 . S
C4098 C4097 1.524 . S
C4098 C4099 1.397 1_655 S
C4098 C4103 1.363 . S
C4099 H4070 0.950 . S
C4099 C4098 1.397 1_455 S
C4099 C4100 1.334 . S
C4100 H4071 0.950 . S
C4100 C4099 1.334 . S
C4100 C4101 1.287 . S
C4101 C4100 1.287 . S
C4101 C4102 1.524 1_455 S
C4101 H4104 0.999 . S
C4102 H4072 0.950 . S
C4102 C4101 1.524 1_655 S
C4102 C4103 1.415 . S
C4103 H4073 0.950 . S
C4103 C4098 1.363 . S
C4103 C4102 1.415 . S
H4104 C4101 0.999 . S
H4105 C4086 0.913 . S
H4106 C4124 0.951 . S
H4107 C4126 0.951 . S
H4108 C4128 0.950 . S
H4109 C4129 0.950 . S
H4110 C4131 0.950 . S
H4111 C4134 0.950 . S
H4112 C4135 0.950 . S
H4113 C4137 0.950 . S
H4114 C4138 0.950 . S
H4115 C4139 0.951 . S
H4116 C4141 0.951 . S
H4117 C4143 0.950 . S
H4118 C4144 0.950 . S
H4119 C4146 0.950 . S
H4120 C4149 0.950 . S
H4121 C4150 0.950 . S
H4122 C4152 0.950 . S
H4123 C4153 0.950 . S
C4124 H4106 0.951 . S
C4124 C4125 1.366 . S
C4124 C4126 1.388 . S
C4125 C4124 1.366 . S
C4125 C4129 1.385 . S
C4126 H4107 0.951 . S
C4126 C4124 1.388 . S
C4126 C4127 1.366 . S
C4127 C4126 1.366 . S
C4127 C4128 1.414 . S
C4127 C4130 1.499 . S
C4128 H4108 0.950 . S
C4128 C4127 1.414 . S
C4128 C4129 1.374 . S
C4129 H4109 0.950 . S
C4129 C4125 1.385 . S
C4129 C4128 1.374 . S
C4130 C4127 1.499 . S
C4130 C4131 1.373 . S
C4130 C4132 1.389 . S
C4131 H4110 0.950 . S
C4131 C4130 1.373 . S
C4131 C4147 1.377 . S
C4132 C4130 1.389 . S
C4132 C4133 1.524 . S
C4132 C4146 1.377 . S
C4133 C4132 1.524 . S
C4133 C4134 1.397 . S
C4133 C4138 1.363 . S
C4134 H4111 0.950 . S
C4134 C4133 1.397 . S
C4134 C4135 1.334 . S
C4135 H4112 0.950 . S
C4135 C4134 1.334 . S
C4135 C4136 1.287 . S
C4136 C4135 1.287 . S
C4136 C4137 1.524 . S
C4136 H4155 0.913 . S
C4137 H4113 0.950 . S
C4137 C4136 1.524 . S
C4137 C4138 1.415 . S
C4138 H4114 0.950 . S
C4138 C4133 1.363 . S
C4138 C4137 1.415 . S
C4139 H4115 0.951 . S
C4139 C4140 1.366 . S
C4139 C4141 1.388 . S
C4140 C4139 1.366 . S
C4140 C4144 1.385 . S
C4141 H4116 0.951 . S
C4141 C4139 1.388 . S
C4141 C4142 1.366 . S
C4142 C4141 1.366 . S
C4142 C4143 1.414 . S
C4142 C4145 1.499 . S
C4143 H4117 0.950 . S
C4143 C4142 1.414 . S
C4143 C4144 1.374 . S
C4144 H4118 0.950 . S
C4144 C4140 1.385 . S
C4144 C4143 1.374 . S
C4145 C4142 1.499 . S
C4145 C4146 1.373 . S
C4145 C4147 1.389 . S
C4146 H4119 0.950 . S
C4146 C4132 1.377 . S
C4146 C4145 1.373 . S
C4147 C4131 1.377 . S
C4147 C4145 1.389 . S
C4147 C4148 1.524 . S
C4148 C4147 1.524 . S
C4148 C4149 1.397 . S
C4148 C4153 1.363 . S
C4149 H4120 0.950 . S
C4149 C4148 1.397 . S
C4149 C4150 1.334 . S
C4150 H4121 0.950 . S
C4150 C4149 1.334 . S
C4150 C4151 1.287 . S
C4151 C4150 1.287 . S
C4151 C4152 1.524 . S
C4151 H4154 0.999 . S
C4152 H4122 0.950 . S
C4152 C4151 1.524 . S
C4152 C4153 1.415 . S
C4153 H4123 0.950 . S
C4153 C4148 1.363 . S
C4153 C4152 1.415 . S
H4154 C4151 0.999 . S
H4155 C4136 0.913 . S
H4156 C4174 0.951 . S
H4157 C4176 0.951 . S
H4158 C4178 0.950 . S
H4159 C4179 0.950 . S
H4160 C4181 0.950 . S
H4161 C4184 0.950 . S
H4162 C4185 0.950 . S
H4163 C4187 0.950 . S
H4164 C4188 0.950 . S
H4165 C4189 0.951 . S
H4166 C4191 0.951 . S
H4167 C4193 0.950 . S
H4168 C4194 0.950 . S
H4169 C4196 0.950 . S
H4170 C4199 0.950 1_545 S
H4171 C4200 0.950 . S
H4172 C4202 0.950 . S
H4173 C4203 0.950 . S
C4174 H4156 0.951 . S
C4174 C4175 1.366 . S
C4174 C4176 1.388 . S
C4175 C4174 1.366 . S
C4175 C4179 1.385 . S
C4176 H4157 0.951 . S
C4176 C4174 1.388 . S
C4176 C4177 1.366 . S
C4177 C4176 1.366 . S
C4177 C4178 1.414 . S
C4177 C4180 1.499 . S
C4178 H4158 0.950 . S
C4178 C4177 1.414 . S
C4178 C4179 1.374 . S
C4179 H4159 0.950 . S
C4179 C4175 1.385 . S
C4179 C4178 1.374 . S
C4180 C4177 1.499 . S
C4180 C4181 1.373 . S
C4180 C4182 1.389 . S
C4181 H4160 0.950 . S
C4181 C4180 1.373 . S
C4181 C4197 1.377 . S
C4182 C4180 1.389 . S
C4182 C4183 1.524 . S
C4182 C4196 1.377 . S
C4183 C4182 1.524 . S
C4183 C4184 1.397 . S
C4183 C4188 1.363 . S
C4184 H4161 0.950 . S
C4184 C4183 1.397 . S
C4184 C4185 1.334 . S
C4185 H4162 0.950 . S
C4185 C4184 1.334 . S
C4185 C4186 1.287 . S
C4186 C4185 1.287 . S
C4186 C4187 1.524 . S
C4186 H4205 0.913 . S
C4187 H4163 0.950 . S
C4187 C4186 1.524 . S
C4187 C4188 1.415 . S
C4188 H4164 0.950 . S
C4188 C4183 1.363 . S
C4188 C4187 1.415 . S
C4189 H4165 0.951 . S
C4189 C4190 1.366 . S
C4189 C4191 1.388 . S
C4190 C4189 1.366 . S
C4190 C4194 1.385 . S
C4191 H4166 0.951 . S
C4191 C4189 1.388 . S
C4191 C4192 1.366 . S
C4192 C4191 1.366 . S
C4192 C4193 1.414 . S
C4192 C4195 1.499 . S
C4193 H4167 0.950 . S
C4193 C4192 1.414 . S
C4193 C4194 1.374 . S
C4194 H4168 0.950 . S
C4194 C4190 1.385 . S
C4194 C4193 1.374 . S
C4195 C4192 1.499 . S
C4195 C4196 1.373 . S
C4195 C4197 1.389 . S
C4196 H4169 0.950 . S
C4196 C4182 1.377 . S
C4196 C4195 1.373 . S
C4197 C4181 1.377 . S
C4197 C4195 1.389 . S
C4197 C4198 1.477 1_545 S
C4198 C4197 1.477 1_565 S
C4198 C4199 1.390 . S
C4198 C4203 1.416 . S
C4199 H4170 0.950 1_565 S
C4199 C4198 1.390 . S
C4199 C4200 1.334 . S
C4200 H4171 0.950 . S
C4200 C4199 1.334 . S
C4200 C4201 1.287 . S
C4201 C4200 1.287 . S
C4201 C4202 1.524 . S
C4201 H4204 0.999 . S
C4202 H4172 0.950 . S
C4202 C4201 1.524 . S
C4202 C4203 1.415 . S
C4203 H4173 0.950 . S
C4203 C4198 1.416 . S
C4203 C4202 1.415 . S
H4204 C4201 0.999 . S
H4205 C4186 0.913 . S
H4206 C4224 0.951 . S
H4207 C4226 0.951 . S
H4208 C4228 0.950 . S
H4209 C4229 0.950 . S
H4210 C4231 0.950 . S
H4211 C4234 0.950 . S
H4212 C4235 0.950 . S
H4213 C4237 0.950 . S
H4214 C4238 0.950 . S
H4215 C4239 0.951 . S
H4216 C4241 0.951 . S
H4217 C4243 0.950 . S
H4218 C4244 0.950 . S
H4219 C4246 0.950 . S
H4220 C4249 0.950 . S
H4221 C4250 0.950 . S
H4222 C4252 0.950 . S
H4223 C4253 0.950 . S
C4224 H4206 0.951 . S
C4224 C4225 1.366 . S
C4224 C4226 1.388 . S
C4225 C4224 1.366 . S
C4225 C4229 1.385 . S
C4226 H4207 0.951 . S
C4226 C4224 1.388 . S
C4226 C4227 1.366 . S
C4227 C4226 1.366 . S
C4227 C4228 1.414 . S
C4227 C4230 1.499 . S
C4228 H4208 0.950 . S
C4228 C4227 1.414 . S
C4228 C4229 1.374 . S
C4229 H4209 0.950 . S
C4229 C4225 1.385 . S
C4229 C4228 1.374 . S
C4230 C4227 1.499 . S
C4230 C4231 1.373 . S
C4230 C4232 1.389 . S
C4231 H4210 0.950 . S
C4231 C4230 1.373 . S
C4231 C4247 1.377 . S
C4232 C4230 1.389 . S
C4232 C4233 1.524 . S
C4232 C4246 1.377 . S
C4233 C4232 1.524 . S
C4233 C4234 1.397 . S
C4233 C4238 1.363 . S
C4234 H4211 0.950 . S
C4234 C4233 1.397 . S
C4234 C4235 1.334 . S
C4235 H4212 0.950 . S
C4235 C4234 1.334 . S
C4235 C4236 1.287 . S
C4236 C4235 1.287 . S
C4236 C4237 1.524 . S
C4236 H4255 0.913 . S
C4237 H4213 0.950 . S
C4237 C4236 1.524 . S
C4237 C4238 1.415 . S
C4238 H4214 0.950 . S
C4238 C4233 1.363 . S
C4238 C4237 1.415 . S
C4239 H4215 0.951 . S
C4239 C4240 1.366 . S
C4239 C4241 1.388 . S
C4240 C4239 1.366 . S
C4240 C4244 1.385 . S
C4241 H4216 0.951 . S
C4241 C4239 1.388 . S
C4241 C4242 1.366 . S
C4242 C4241 1.366 . S
C4242 C4243 1.414 . S
C4242 C4245 1.499 . S
C4243 H4217 0.950 . S
C4243 C4242 1.414 . S
C4243 C4244 1.374 . S
C4244 H4218 0.950 . S
C4244 C4240 1.385 . S
C4244 C4243 1.374 . S
C4245 C4242 1.499 . S
C4245 C4246 1.373 . S
C4245 C4247 1.389 . S
C4246 H4219 0.950 . S
C4246 C4232 1.377 . S
C4246 C4245 1.373 . S
C4247 C4231 1.377 . S
C4247 C4245 1.389 . S
C4247 C4248 1.524 . S
C4248 C4247 1.524 . S
C4248 C4249 1.397 . S
C4248 C4253 1.363 . S
C4249 H4220 0.950 . S
C4249 C4248 1.397 . S
C4249 C4250 1.334 . S
C4250 H4221 0.950 . S
C4250 C4249 1.334 . S
C4250 C4251 1.287 . S
C4251 C4250 1.287 . S
C4251 C4252 1.524 . S
C4251 H4254 0.999 . S
C4252 H4222 0.950 . S
C4252 C4251 1.524 . S
C4252 C4253 1.415 . S
C4253 H4223 0.950 . S
C4253 C4248 1.363 . S
C4253 C4252 1.415 . S
H4254 C4251 0.999 . S
H4255 C4236 0.913 . S
H4256 C4274 0.951 . S
H4257 C4276 0.956 . S
H4258 C4278 0.950 . S
H4259 C4279 0.950 . S
H4260 C4281 0.950 . S
H4261 C4284 0.950 . S
H4262 C4285 0.950 . S
H4263 C4287 0.950 . S
H4264 C4288 0.950 . S
H4265 C4289 0.951 . S
H4266 C4291 0.951 1_545 S
H4267 C4293 0.950 . S
H4268 C4294 0.950 . S
H4269 C4296 0.983 . S
H4270 C4299 0.950 . S
H4271 C4300 0.950 . S
H4272 C4302 0.950 . S
H4273 C4303 0.950 . S
C4274 H4256 0.951 . S
C4274 C4275 1.367 . S
C4274 C4276 1.404 . S
C4275 C4274 1.367 . S
C4275 C4279 1.379 1_556 S
C4276 H4257 0.956 . S
C4276 C4274 1.404 . S
C4276 C4277 1.351 1_556 S
C4277 C4276 1.351 1_554 S
C4277 C4278 1.414 . S
C4277 C4280 1.499 . S
C4278 H4258 0.950 . S
C4278 C4277 1.414 . S
C4278 C4279 1.374 . S
C4279 H4259 0.950 . S
C4279 C4275 1.379 1_554 S
C4279 C4278 1.374 . S
C4280 C4277 1.499 . S
C4280 C4281 1.373 . S
C4280 C4282 1.389 1_554 S
C4281 H4260 0.950 . S
C4281 C4280 1.373 . S
C4281 C4297 1.377 . S
C4282 C4280 1.389 1_556 S
C4282 C4283 1.524 . S
C4282 C4296 1.392 . S
C4283 C4282 1.524 . S
C4283 C4284 1.397 . S
C4283 C4288 1.363 . S
C4284 H4261 0.950 . S
C4284 C4283 1.397 . S
C4284 C4285 1.334 . S
C4285 H4262 0.950 . S
C4285 C4284 1.334 . S
C4285 C4286 1.287 . S
C4286 C4285 1.287 . S
C4286 C4287 1.524 . S
C4286 H4305 0.913 . S
C4287 H4263 0.950 . S
C4287 C4286 1.524 . S
C4287 C4288 1.415 . S
C4288 H4264 0.950 . S
C4288 C4283 1.363 . S
C4288 C4287 1.415 . S
C4289 H4265 0.951 . S
C4289 C4290 1.366 1_545 S
C4289 C4291 1.388 1_545 S
C4290 C4289 1.366 1_565 S
C4290 C4294 1.385 . S
C4291 H4266 0.951 1_565 S
C4291 C4289 1.388 1_565 S
C4291 C4292 1.366 . S
C4292 C4291 1.366 . S
C4292 C4293 1.414 . S
C4292 C4295 1.499 . S
C4293 H4267 0.950 . S
C4293 C4292 1.414 . S
C4293 C4294 1.374 . S
C4294 H4268 0.950 . S
C4294 C4290 1.385 . S
C4294 C4293 1.374 . S
C4295 C4292 1.499 . S
C4295 C4296 1.328 1_554 S
C4295 C4297 1.389 . S
C4296 H4269 0.983 . S
C4296 C4282 1.392 . S
C4296 C4295 1.328 1_556 S
C4297 C4281 1.377 . S
C4297 C4295 1.389 . S
C4297 C4298 1.524 . S
C4298 C4297 1.524 . S
C4298 C4299 1.397 . S
C4298 C4303 1.363 1_565 S
C4299 H4270 0.950 . S
C4299 C4298 1.397 . S
C4299 C4300 1.334 . S
C4300 H4271 0.950 . S
C4300 C4299 1.334 . S
C4300 C4301 1.292 1_565 S
C4301 C4300 1.292 1_545 S
C4301 C4302 1.520 . S
C4301 H4304 0.996 . S
C4302 H4272 0.950 . S
C4302 C4301 1.520 . S
C4302 C4303 1.415 . S
C4303 H4273 0.950 . S
C4303 C4298 1.363 1_545 S
C4303 C4302 1.415 . S
H4304 C4301 0.996 . S
H4305 C4286 0.913 . S
H4306 C4324 0.951 . S
H4307 C4326 0.951 . S
H4308 C4328 0.950 . S
H4309 C4329 0.950 . S
H4310 C4331 0.950 . S
H4311 C4334 0.950 . S
H4312 C4335 0.950 . S
H4313 C4337 0.950 . S
H4314 C4338 0.950 . S
H4315 C4339 0.971 . S
H4316 C4341 0.951 . S
H4317 C4343 0.950 . S
H4318 C4344 0.950 . S
H4319 C4346 0.950 . S
H4320 C4349 0.950 . S
H4321 C4350 0.950 . S
H4322 C4352 0.950 1_556 S
H4323 C4353 0.922 1_556 S
C4324 H4306 0.951 . S
C4324 C4325 1.366 1_554 S
C4324 C4326 1.388 . S
C4325 C4324 1.366 1_556 S
C4325 C4329 1.385 . S
C4326 H4307 0.951 . S
C4326 C4324 1.388 . S
C4326 C4327 1.372 . S
C4327 C4326 1.372 . S
C4327 C4328 1.405 1_554 S
C4327 C4330 1.501 . S
C4328 H4308 0.950 . S
C4328 C4327 1.405 1_556 S
C4328 C4329 1.374 . S
C4329 H4309 0.950 . S
C4329 C4325 1.385 . S
C4329 C4328 1.374 . S
C4330 C4327 1.501 . S
C4330 C4331 1.373 . S
C4330 C4332 1.389 . S
C4331 H4310 0.950 . S
C4331 C4330 1.373 . S
C4331 C4347 1.377 . S
C4332 C4330 1.389 . S
C4332 C4333 1.524 1_554 S
C4332 C4346 1.377 . S
C4333 C4332 1.524 1_556 S
C4333 C4334 1.397 . S
C4333 C4338 1.363 1_556 S
C4334 H4311 0.950 . S
C4334 C4333 1.397 . S
C4334 C4335 1.334 . S
C4335 H4312 0.950 . S
C4335 C4334 1.334 . S
C4335 C4336 1.287 . S
C4336 C4335 1.287 . S
C4336 C4337 1.524 1_556 S
C4336 H4355 0.913 . S
C4337 H4313 0.950 . S
C4337 C4336 1.524 1_554 S
C4337 C4338 1.415 . S
C4338 H4314 0.950 . S
C4338 C4333 1.363 1_554 S
C4338 C4337 1.415 . S
C4339 H4315 0.971 . S
C4339 C4340 1.338 1_556 S
C4339 C4341 1.396 . S
C4340 C4339 1.338 1_554 S
C4340 C4344 1.385 . S
C4341 H4316 0.951 . S
C4341 C4339 1.396 . S
C4341 C4342 1.366 1_556 S
C4342 C4341 1.366 1_554 S
C4342 C4343 1.414 . S
C4342 C4345 1.499 . S
C4343 H4317 0.950 . S
C4343 C4342 1.414 . S
C4343 C4344 1.374 . S
C4344 H4318 0.950 . S
C4344 C4340 1.385 . S
C4344 C4343 1.374 . S
C4345 C4342 1.499 . S
C4345 C4346 1.373 . S
C4345 C4347 1.389 . S
C4346 H4319 0.950 . S
C4346 C4332 1.377 . S
C4346 C4345 1.373 . S
C4347 C4331 1.377 . S
C4347 C4345 1.389 . S
C4347 C4348 1.524 . S
C4348 C4347 1.524 . S
C4348 C4349 1.397 . S
C4348 C4353 1.384 . S
C4349 H4320 0.950 . S
C4349 C4348 1.397 . S
C4349 C4350 1.334 . S
C4350 H4321 0.950 . S
C4350 C4349 1.334 . S
C4350 C4351 1.287 . S
C4351 C4350 1.287 . S
C4351 C4352 1.524 . S
C4351 H4354 0.999 . S
C4352 H4322 0.950 1_554 S
C4352 C4351 1.524 . S
C4352 C4353 1.423 . S
C4353 H4323 0.922 1_554 S
C4353 C4348 1.384 . S
C4353 C4352 1.423 . S
H4354 C4351 0.999 . S
H4355 C4336 0.913 . S
H4356 C4374 0.951 . S
H4357 C4376 0.951 . S
H4358 C4378 0.950 . S
H4359 C4379 0.950 . S
H4360 C4381 0.950 . S
H4361 C4384 0.950 . S
H4362 C4385 0.950 . S
H4363 C4387 0.950 . S
H4364 C4388 0.950 . S
H4365 C4389 0.951 . S
H4366 C4391 0.951 . S
H4367 C4393 0.950 . S
H4368 C4394 0.950 . S
H4369 C4396 0.950 . S
H4370 C4399 0.950 . S
H4371 C4400 0.950 . S
H4372 C4402 0.950 . S
H4373 C4403 0.950 . S
C4374 H4356 0.951 . S
C4374 C4375 1.366 . S
C4374 C4376 1.388 . S
C4375 C4374 1.366 . S
C4375 C4379 1.385 . S
C4376 H4357 0.951 . S
C4376 C4374 1.388 . S
C4376 C4377 1.366 . S
C4377 C4376 1.366 . S
C4377 C4378 1.414 . S
C4377 C4380 1.499 . S
C4378 H4358 0.950 . S
C4378 C4377 1.414 . S
C4378 C4379 1.374 . S
C4379 H4359 0.950 . S
C4379 C4375 1.385 . S
C4379 C4378 1.374 . S
C4380 C4377 1.499 . S
C4380 C4381 1.373 . S
C4380 C4382 1.389 . S
C4381 H4360 0.950 . S
C4381 C4380 1.373 . S
C4381 C4397 1.377 . S
C4382 C4380 1.389 . S
C4382 C4383 1.524 . S
C4382 C4396 1.377 . S
C4383 C4382 1.524 . S
C4383 C4384 1.397 . S
C4383 C4388 1.363 . S
C4384 H4361 0.950 . S
C4384 C4383 1.397 . S
C4384 C4385 1.334 . S
C4385 H4362 0.950 . S
C4385 C4384 1.334 . S
C4385 C4386 1.287 . S
C4386 C4385 1.287 . S
C4386 C4387 1.524 . S
C4386 H4405 0.913 . S
C4387 H4363 0.950 . S
C4387 C4386 1.524 . S
C4387 C4388 1.415 . S
C4388 H4364 0.950 . S
C4388 C4383 1.363 . S
C4388 C4387 1.415 . S
C4389 H4365 0.951 . S
C4389 C4390 1.366 . S
C4389 C4391 1.388 . S
C4390 C4389 1.366 . S
C4390 C4394 1.385 . S
C4391 H4366 0.951 . S
C4391 C4389 1.388 . S
C4391 C4392 1.366 . S
C4392 C4391 1.366 . S
C4392 C4393 1.414 . S
C4392 C4395 1.499 . S
C4393 H4367 0.950 . S
C4393 C4392 1.414 . S
C4393 C4394 1.374 . S
C4394 H4368 0.950 . S
C4394 C4390 1.385 . S
C4394 C4393 1.374 . S
C4395 C4392 1.499 . S
C4395 C4396 1.373 . S
C4395 C4397 1.389 . S
C4396 H4369 0.950 . S
C4396 C4382 1.377 . S
C4396 C4395 1.373 . S
C4397 C4381 1.377 . S
C4397 C4395 1.389 . S
C4397 C4398 1.524 . S
C4398 C4397 1.524 . S
C4398 C4399 1.397 . S
C4398 C4403 1.363 . S
C4399 H4370 0.950 . S
C4399 C4398 1.397 . S
C4399 C4400 1.334 . S
C4400 H4371 0.950 . S
C4400 C4399 1.334 . S
C4400 C4401 1.287 . S
C4401 C4400 1.287 . S
C4401 C4402 1.524 . S
C4401 H4404 0.999 . S
C4402 H4372 0.950 . S
C4402 C4401 1.524 . S
C4402 C4403 1.415 . S
C4403 H4373 0.950 . S
C4403 C4398 1.363 . S
C4403 C4402 1.415 . S
H4404 C4401 0.999 . S
H4405 C4386 0.913 . S
H4406 C4424 0.951 . S
H4407 C4426 0.951 . S
H4408 C4428 0.950 . S
H4409 C4429 0.950 . S
H4410 C4431 0.950 . S
H4411 C4434 0.950 . S
H4412 C4435 0.950 . S
H4413 C4437 0.950 . S
H4414 C4438 0.950 . S
H4415 C4439 0.951 . S
H4416 C4441 0.951 . S
H4417 C4443 0.950 . S
H4418 C4444 0.950 . S
H4419 C4446 0.950 . S
H4420 C4449 0.950 . S
H4421 C4450 0.950 . S
H4422 C4452 0.950 . S
H4423 C4453 0.950 . S
C4424 H4406 0.951 . S
C4424 C4425 1.366 . S
C4424 C4426 1.388 . S
C4425 C4424 1.366 . S
C4425 C4429 1.385 . S
C4426 H4407 0.951 . S
C4426 C4424 1.388 . S
C4426 C4427 1.366 . S
C4427 C4426 1.366 . S
C4427 C4428 1.414 . S
C4427 C4430 1.499 . S
C4428 H4408 0.950 . S
C4428 C4427 1.414 . S
C4428 C4429 1.374 . S
C4429 H4409 0.950 . S
C4429 C4425 1.385 . S
C4429 C4428 1.374 . S
C4430 C4427 1.499 . S
C4430 C4431 1.373 . S
C4430 C4432 1.389 . S
C4431 H4410 0.950 . S
C4431 C4430 1.373 . S
C4431 C4447 1.377 . S
C4432 C4430 1.389 . S
C4432 C4433 1.524 . S
C4432 C4446 1.377 . S
C4433 C4432 1.524 . S
C4433 C4434 1.397 . S
C4433 C4438 1.363 . S
C4434 H4411 0.950 . S
C4434 C4433 1.397 . S
C4434 C4435 1.334 . S
C4435 H4412 0.950 . S
C4435 C4434 1.334 . S
C4435 C4436 1.287 . S
C4436 C4435 1.287 . S
C4436 C4437 1.524 . S
C4436 H4455 0.913 . S
C4437 H4413 0.950 . S
C4437 C4436 1.524 . S
C4437 C4438 1.415 . S
C4438 H4414 0.950 . S
C4438 C4433 1.363 . S
C4438 C4437 1.415 . S
C4439 H4415 0.951 . S
C4439 C4440 1.366 . S
C4439 C4441 1.388 . S
C4440 C4439 1.366 . S
C4440 C4444 1.385 . S
C4441 H4416 0.951 . S
C4441 C4439 1.388 . S
C4441 C4442 1.366 . S
C4442 C4441 1.366 . S
C4442 C4443 1.414 . S
C4442 C4445 1.499 . S
C4443 H4417 0.950 . S
C4443 C4442 1.414 . S
C4443 C4444 1.374 . S
C4444 H4418 0.950 . S
C4444 C4440 1.385 . S
C4444 C4443 1.374 . S
C4445 C4442 1.499 . S
C4445 C4446 1.373 . S
C4445 C4447 1.389 . S
C4446 H4419 0.950 . S
C4446 C4432 1.377 . S
C4446 C4445 1.373 . S
C4447 C4431 1.377 . S
C4447 C4445 1.389 . S
C4447 C4448 1.524 . S
C4448 C4447 1.524 . S
C4448 C4449 1.397 . S
C4448 C4453 1.363 . S
C4449 H4420 0.950 . S
C4449 C4448 1.397 . S
C4449 C4450 1.334 . S
C4450 H4421 0.950 . S
C4450 C4449 1.334 . S
C4450 C4451 1.287 . S
C4451 C4450 1.287 . S
C4451 C4452 1.524 . S
C4451 H4454 0.999 . S
C4452 H4422 0.950 . S
C4452 C4451 1.524 . S
C4452 C4453 1.415 . S
C4453 H4423 0.950 . S
C4453 C4448 1.363 . S
C4453 C4452 1.415 . S
H4454 C4451 0.999 . S
H4455 C4436 0.913 . S
H4456 C4474 0.951 . S
H4457 C4476 0.951 . S
H4458 C4478 0.950 . S
H4459 C4479 0.950 . S
H4460 C4481 0.950 . S
H4461 C4484 0.950 . S
H4462 C4485 0.950 . S
H4463 C4487 0.950 . S
H4464 C4488 0.950 . S
H4465 C4489 0.951 . S
H4466 C4491 0.951 . S
H4467 C4493 0.950 . S
H4468 C4494 0.950 . S
H4469 C4496 0.950 . S
H4470 C4499 0.950 . S
H4471 C4500 0.950 . S
H4472 C4502 0.950 . S
H4473 C4503 0.950 . S
C4474 H4456 0.951 . S
C4474 C4475 1.366 . S
C4474 C4476 1.388 . S
C4475 C4474 1.366 . S
C4475 C4479 1.385 . S
C4476 H4457 0.951 . S
C4476 C4474 1.388 . S
C4476 C4477 1.366 . S
C4477 C4476 1.366 . S
C4477 C4478 1.414 . S
C4477 C4480 1.499 . S
C4478 H4458 0.950 . S
C4478 C4477 1.414 . S
C4478 C4479 1.374 . S
C4479 H4459 0.950 . S
C4479 C4475 1.385 . S
C4479 C4478 1.374 . S
C4480 C4477 1.499 . S
C4480 C4481 1.373 . S
C4480 C4482 1.389 . S
C4481 H4460 0.950 . S
C4481 C4480 1.373 . S
C4481 C4497 1.377 . S
C4482 C4480 1.389 . S
C4482 C4483 1.524 . S
C4482 C4496 1.377 . S
C4483 C4482 1.524 . S
C4483 C4484 1.397 . S
C4483 C4488 1.363 . S
C4484 H4461 0.950 . S
C4484 C4483 1.397 . S
C4484 C4485 1.334 . S
C4485 H4462 0.950 . S
C4485 C4484 1.334 . S
C4485 C4486 1.287 . S
C4486 C4485 1.287 . S
C4486 C4487 1.524 . S
C4486 H4505 0.913 . S
C4487 H4463 0.950 . S
C4487 C4486 1.524 . S
C4487 C4488 1.415 . S
C4488 H4464 0.950 . S
C4488 C4483 1.363 . S
C4488 C4487 1.415 . S
C4489 H4465 0.951 . S
C4489 C4490 1.366 . S
C4489 C4491 1.388 . S
C4490 C4489 1.366 . S
C4490 C4494 1.385 . S
C4491 H4466 0.951 . S
C4491 C4489 1.388 . S
C4491 C4492 1.366 . S
C4492 C4491 1.366 . S
C4492 C4493 1.414 . S
C4492 C4495 1.499 . S
C4493 H4467 0.950 . S
C4493 C4492 1.414 . S
C4493 C4494 1.374 . S
C4494 H4468 0.950 . S
C4494 C4490 1.385 . S
C4494 C4493 1.374 . S
C4495 C4492 1.499 . S
C4495 C4496 1.373 . S
C4495 C4497 1.389 . S
C4496 H4469 0.950 . S
C4496 C4482 1.377 . S
C4496 C4495 1.373 . S
C4497 C4481 1.377 . S
C4497 C4495 1.389 . S
C4497 C4498 1.524 . S
C4498 C4497 1.524 . S
C4498 C4499 1.397 . S
C4498 C4503 1.363 . S
C4499 H4470 0.950 . S
C4499 C4498 1.397 . S
C4499 C4500 1.334 . S
C4500 H4471 0.950 . S
C4500 C4499 1.334 . S
C4500 C4501 1.287 . S
C4501 C4500 1.287 . S
C4501 C4502 1.524 . S
C4501 H4504 0.999 . S
C4502 H4472 0.950 . S
C4502 C4501 1.524 . S
C4502 C4503 1.415 . S
C4503 H4473 0.950 . S
C4503 C4498 1.363 . S
C4503 C4502 1.415 . S
H4504 C4501 0.999 . S
H4505 C4486 0.913 . S
H4506 C4524 0.951 . S
H4507 C4526 0.951 . S
H4508 C4528 0.950 . S
H4509 C4529 0.950 . S
H4510 C4531 0.950 . S
H4511 C4534 0.950 . S
H4512 C4535 0.950 . S
H4513 C4537 0.950 . S
H4514 C4538 0.950 . S
H4515 C4539 0.951 . S
H4516 C4541 0.951 . S
H4517 C4543 0.950 . S
H4518 C4544 0.950 . S
H4519 C4546 0.950 . S
H4520 C4549 0.950 . S
H4521 C4550 0.950 . S
H4522 C4552 0.950 . S
H4523 C4553 0.950 . S
C4524 H4506 0.951 . S
C4524 C4525 1.366 . S
C4524 C4526 1.388 . S
C4525 C4524 1.366 . S
C4525 C4529 1.385 . S
C4526 H4507 0.951 . S
C4526 C4524 1.388 . S
C4526 C4527 1.366 . S
C4527 C4526 1.366 . S
C4527 C4528 1.414 . S
C4527 C4530 1.499 . S
C4528 H4508 0.950 . S
C4528 C4527 1.414 . S
C4528 C4529 1.374 . S
C4529 H4509 0.950 . S
C4529 C4525 1.385 . S
C4529 C4528 1.374 . S
C4530 C4527 1.499 . S
C4530 C4531 1.373 . S
C4530 C4532 1.389 . S
C4531 H4510 0.950 . S
C4531 C4530 1.373 . S
C4531 C4547 1.377 . S
C4532 C4530 1.389 . S
C4532 C4533 1.524 . S
C4532 C4546 1.377 . S
C4533 C4532 1.524 . S
C4533 C4534 1.397 . S
C4533 C4538 1.363 . S
C4534 H4511 0.950 . S
C4534 C4533 1.397 . S
C4534 C4535 1.334 . S
C4535 H4512 0.950 . S
C4535 C4534 1.334 . S
C4535 C4536 1.287 . S
C4536 C4535 1.287 . S
C4536 C4537 1.524 . S
C4536 H4555 0.913 . S
C4537 H4513 0.950 . S
C4537 C4536 1.524 . S
C4537 C4538 1.415 . S
C4538 H4514 0.950 . S
C4538 C4533 1.363 . S
C4538 C4537 1.415 . S
C4539 H4515 0.951 . S
C4539 C4540 1.366 . S
C4539 C4541 1.388 . S
C4540 C4539 1.366 . S
C4540 C4544 1.385 . S
C4541 H4516 0.951 . S
C4541 C4539 1.388 . S
C4541 C4542 1.366 . S
C4542 C4541 1.366 . S
C4542 C4543 1.414 . S
C4542 C4545 1.499 . S
C4543 H4517 0.950 . S
C4543 C4542 1.414 . S
C4543 C4544 1.374 . S
C4544 H4518 0.950 . S
C4544 C4540 1.385 . S
C4544 C4543 1.374 . S
C4545 C4542 1.499 . S
C4545 C4546 1.373 . S
C4545 C4547 1.389 . S
C4546 H4519 0.950 . S
C4546 C4532 1.377 . S
C4546 C4545 1.373 . S
C4547 C4531 1.377 . S
C4547 C4545 1.389 . S
C4547 C4548 1.524 . S
C4548 C4547 1.524 . S
C4548 C4549 1.397 . S
C4548 C4553 1.363 . S
C4549 H4520 0.950 . S
C4549 C4548 1.397 . S
C4549 C4550 1.334 . S
C4550 H4521 0.950 . S
C4550 C4549 1.334 . S
C4550 C4551 1.287 . S
C4551 C4550 1.287 . S
C4551 C4552 1.524 . S
C4551 H4554 0.999 . S
C4552 H4522 0.950 . S
C4552 C4551 1.524 . S
C4552 C4553 1.415 . S
C4553 H4523 0.950 . S
C4553 C4548 1.363 . S
C4553 C4552 1.415 . S
H4554 C4551 0.999 . S
H4555 C4536 0.913 . S
H4556 C4574 0.951 . S
H4557 C4576 0.951 . S
H4558 C4578 0.950 . S
H4559 C4579 0.950 . S
H4560 C4581 0.950 . S
H4561 C4584 0.950 . S
H4562 C4585 0.950 . S
H4563 C4587 0.950 . S
H4564 C4588 0.950 . S
H4565 C4589 0.951 . S
H4566 C4591 0.951 . S
H4567 C4593 0.950 . S
H4568 C4594 0.950 . S
H4569 C4596 0.950 . S
H4570 C4599 0.950 . S
H4571 C4600 0.950 . S
H4572 C4602 0.950 . S
H4573 C4603 0.950 . S
C4574 H4556 0.951 . S
C4574 C4575 1.366 . S
C4574 C4576 1.388 . S
C4575 C4574 1.366 . S
C4575 C4579 1.385 . S
C4576 H4557 0.951 . S
C4576 C4574 1.388 . S
C4576 C4577 1.366 . S
C4577 C4576 1.366 . S
C4577 C4578 1.414 . S
C4577 C4580 1.499 . S
C4578 H4558 0.950 . S
C4578 C4577 1.414 . S
C4578 C4579 1.374 . S
C4579 H4559 0.950 . S
C4579 C4575 1.385 . S
C4579 C4578 1.374 . S
C4580 C4577 1.499 . S
C4580 C4581 1.373 . S
C4580 C4582 1.389 . S
C4581 H4560 0.950 . S
C4581 C4580 1.373 . S
C4581 C4597 1.377 . S
C4582 C4580 1.389 . S
C4582 C4583 1.524 . S
C4582 C4596 1.377 . S
C4583 C4582 1.524 . S
C4583 C4584 1.397 . S
C4583 C4588 1.363 . S
C4584 H4561 0.950 . S
C4584 C4583 1.397 . S
C4584 C4585 1.334 . S
C4585 H4562 0.950 . S
C4585 C4584 1.334 . S
C4585 C4586 1.287 . S
C4586 C4585 1.287 . S
C4586 C4587 1.524 . S
C4586 H4605 0.913 . S
C4587 H4563 0.950 . S
C4587 C4586 1.524 . S
C4587 C4588 1.415 . S
C4588 H4564 0.950 . S
C4588 C4583 1.363 . S
C4588 C4587 1.415 . S
C4589 H4565 0.951 . S
C4589 C4590 1.366 . S
C4589 C4591 1.388 . S
C4590 C4589 1.366 . S
C4590 C4594 1.385 . S
C4591 H4566 0.951 . S
C4591 C4589 1.388 . S
C4591 C4592 1.366 . S
C4592 C4591 1.366 . S
C4592 C4593 1.414 . S
C4592 C4595 1.499 . S
C4593 H4567 0.950 . S
C4593 C4592 1.414 . S
C4593 C4594 1.374 . S
C4594 H4568 0.950 . S
C4594 C4590 1.385 . S
C4594 C4593 1.374 . S
C4595 C4592 1.499 . S
C4595 C4596 1.373 . S
C4595 C4597 1.389 . S
C4596 H4569 0.950 . S
C4596 C4582 1.377 . S
C4596 C4595 1.373 . S
C4597 C4581 1.377 . S
C4597 C4595 1.389 . S
C4597 C4598 1.524 . S
C4598 C4597 1.524 . S
C4598 C4599 1.397 . S
C4598 C4603 1.363 . S
C4599 H4570 0.950 . S
C4599 C4598 1.397 . S
C4599 C4600 1.334 . S
C4600 H4571 0.950 . S
C4600 C4599 1.334 . S
C4600 C4601 1.287 . S
C4601 C4600 1.287 . S
C4601 C4602 1.524 . S
C4601 H4604 0.999 . S
C4602 H4572 0.950 . S
C4602 C4601 1.524 . S
C4602 C4603 1.415 . S
C4603 H4573 0.950 . S
C4603 C4598 1.363 . S
C4603 C4602 1.415 . S
H4604 C4601 0.999 . S
H4605 C4586 0.913 . S
H4606 C4624 0.951 . S
H4607 C4626 0.951 . S
H4608 C4628 0.950 . S
H4609 C4629 0.950 . S
H4610 C4631 0.950 . S
H4611 C4634 0.950 . S
H4612 C4635 0.950 . S
H4613 C4637 0.950 . S
H4614 C4638 0.950 . S
H4615 C4639 0.951 . S
H4616 C4641 0.951 . S
H4617 C4643 0.950 . S
H4618 C4644 0.950 . S
H4619 C4646 0.950 . S
H4620 C4649 0.950 . S
H4621 C4650 0.950 . S
H4622 C4652 0.950 . S
H4623 C4653 0.950 . S
C4624 H4606 0.951 . S
C4624 C4625 1.366 . S
C4624 C4626 1.388 . S
C4625 C4624 1.366 . S
C4625 C4629 1.385 . S
C4626 H4607 0.951 . S
C4626 C4624 1.388 . S
C4626 C4627 1.366 . S
C4627 C4626 1.366 . S
C4627 C4628 1.414 . S
C4627 C4630 1.499 . S
C4628 H4608 0.950 . S
C4628 C4627 1.414 . S
C4628 C4629 1.374 . S
C4629 H4609 0.950 . S
C4629 C4625 1.385 . S
C4629 C4628 1.374 . S
C4630 C4627 1.499 . S
C4630 C4631 1.373 . S
C4630 C4632 1.389 . S
C4631 H4610 0.950 . S
C4631 C4630 1.373 . S
C4631 C4647 1.377 . S
C4632 C4630 1.389 . S
C4632 C4633 1.524 . S
C4632 C4646 1.377 . S
C4633 C4632 1.524 . S
C4633 C4634 1.397 . S
C4633 C4638 1.363 . S
C4634 H4611 0.950 . S
C4634 C4633 1.397 . S
C4634 C4635 1.334 . S
C4635 H4612 0.950 . S
C4635 C4634 1.334 . S
C4635 C4636 1.287 . S
C4636 C4635 1.287 . S
C4636 C4637 1.524 . S
C4636 H4655 0.913 . S
C4637 H4613 0.950 . S
C4637 C4636 1.524 . S
C4637 C4638 1.415 . S
C4638 H4614 0.950 . S
C4638 C4633 1.363 . S
C4638 C4637 1.415 . S
C4639 H4615 0.951 . S
C4639 C4640 1.366 . S
C4639 C4641 1.388 . S
C4640 C4639 1.366 . S
C4640 C4644 1.385 . S
C4641 H4616 0.951 . S
C4641 C4639 1.388 . S
C4641 C4642 1.366 . S
C4642 C4641 1.366 . S
C4642 C4643 1.414 . S
C4642 C4645 1.499 . S
C4643 H4617 0.950 . S
C4643 C4642 1.414 . S
C4643 C4644 1.374 . S
C4644 H4618 0.950 . S
C4644 C4640 1.385 . S
C4644 C4643 1.374 . S
C4645 C4642 1.499 . S
C4645 C4646 1.373 . S
C4645 C4647 1.389 . S
C4646 H4619 0.950 . S
C4646 C4632 1.377 . S
C4646 C4645 1.373 . S
C4647 C4631 1.377 . S
C4647 C4645 1.389 . S
C4647 C4648 1.524 . S
C4648 C4647 1.524 . S
C4648 C4649 1.397 . S
C4648 C4653 1.363 . S
C4649 H4620 0.950 . S
C4649 C4648 1.397 . S
C4649 C4650 1.334 . S
C4650 H4621 0.950 . S
C4650 C4649 1.334 . S
C4650 C4651 1.287 . S
C4651 C4650 1.287 . S
C4651 C4652 1.524 . S
C4651 H4654 0.999 . S
C4652 H4622 0.950 . S
C4652 C4651 1.524 . S
C4652 C4653 1.415 . S
C4653 H4623 0.950 . S
C4653 C4648 1.363 . S
C4653 C4652 1.415 . S
H4654 C4651 0.999 . S
H4655 C4636 0.913 . S
H4656 C4674 0.951 . S
H4657 C4676 0.951 . S
H4658 C4678 0.950 . S
H4659 C4679 0.950 . S
H4660 C4681 0.950 . S
H4661 C4684 0.950 . S
H4662 C4685 0.950 . S
H4663 C4687 0.950 . S
H4664 C4688 0.950 . S
H4665 C4689 0.951 . S
H4666 C4691 0.951 . S
H4667 C4693 0.950 . S
H4668 C4694 0.950 . S
H4669 C4696 0.950 . S
H4670 C4699 0.950 . S
H4671 C4700 0.950 . S
H4672 C4702 0.950 . S
H4673 C4703 0.950 . S
C4674 H4656 0.951 . S
C4674 C4675 1.366 . S
C4674 C4676 1.388 . S
C4675 C4674 1.366 . S
C4675 C4679 1.385 . S
C4676 H4657 0.951 . S
C4676 C4674 1.388 . S
C4676 C4677 1.366 . S
C4677 C4676 1.366 . S
C4677 C4678 1.414 . S
C4677 C4680 1.499 . S
C4678 H4658 0.950 . S
C4678 C4677 1.414 . S
C4678 C4679 1.374 . S
C4679 H4659 0.950 . S
C4679 C4675 1.385 . S
C4679 C4678 1.374 . S
C4680 C4677 1.499 . S
C4680 C4681 1.373 . S
C4680 C4682 1.389 . S
C4681 H4660 0.950 . S
C4681 C4680 1.373 . S
C4681 C4697 1.377 . S
C4682 C4680 1.389 . S
C4682 C4683 1.524 . S
C4682 C4696 1.377 . S
C4683 C4682 1.524 . S
C4683 C4684 1.397 . S
C4683 C4688 1.363 . S
C4684 H4661 0.950 . S
C4684 C4683 1.397 . S
C4684 C4685 1.334 . S
C4685 H4662 0.950 . S
C4685 C4684 1.334 . S
C4685 C4686 1.287 . S
C4686 C4685 1.287 . S
C4686 C4687 1.524 . S
C4686 H4705 0.913 . S
C4687 H4663 0.950 . S
C4687 C4686 1.524 . S
C4687 C4688 1.415 . S
C4688 H4664 0.950 . S
C4688 C4683 1.363 . S
C4688 C4687 1.415 . S
C4689 H4665 0.951 . S
C4689 C4690 1.366 . S
C4689 C4691 1.388 . S
C4690 C4689 1.366 . S
C4690 C4694 1.385 . S
C4691 H4666 0.951 . S
C4691 C4689 1.388 . S
C4691 C4692 1.366 . S
C4692 C4691 1.366 . S
C4692 C4693 1.414 . S
C4692 C4695 1.499 . S
C4693 H4667 0.950 . S
C4693 C4692 1.414 . S
C4693 C4694 1.374 . S
C4694 H4668 0.950 . S
C4694 C4690 1.385 . S
C4694 C4693 1.374 . S
C4695 C4692 1.499 . S
C4695 C4696 1.373 . S
C4695 C4697 1.389 . S
C4696 H4669 0.950 . S
C4696 C4682 1.377 . S
C4696 C4695 1.373 . S
C4697 C4681 1.377 . S
C4697 C4695 1.389 . S
C4697 C4698 1.524 . S
C4698 C4697 1.524 . S
C4698 C4699 1.397 . S
C4698 C4703 1.363 1_455 S
C4699 H4670 0.950 . S
C4699 C4698 1.397 . S
C4699 C4700 1.334 1_554 S
C4700 H4671 0.950 . S
C4700 C4699 1.334 1_556 S
C4700 C4701 1.287 1_455 S
C4701 C4700 1.287 1_655 S
C4701 C4702 1.524 1_556 S
C4701 H4704 0.999 . S
C4702 H4672 0.950 . S
C4702 C4701 1.524 1_554 S
C4702 C4703 1.415 . S
C4703 H4673 0.950 . S
C4703 C4698 1.363 1_655 S
C4703 C4702 1.415 . S
H4704 C4701 0.999 . S
H4705 C4686 0.913 . S
H4706 C4724 0.951 . S
H4707 C4726 0.951 . S
H4708 C4728 0.950 . S
H4709 C4729 0.950 . S
H4710 C4731 0.950 . S
H4711 C4734 0.950 . S
H4712 C4735 0.950 . S
H4713 C4737 0.950 . S
H4714 C4738 0.950 . S
H4715 C4739 0.951 . S
H4716 C4741 0.951 . S
H4717 C4743 0.950 . S
H4718 C4744 0.950 . S
H4719 C4746 0.950 . S
H4720 C4749 0.950 . S
H4721 C4750 0.950 . S
H4722 C4752 0.950 . S
H4723 C4753 0.950 . S
C4724 H4706 0.951 . S
C4724 C4725 1.366 . S
C4724 C4726 1.388 . S
C4725 C4724 1.366 . S
C4725 C4729 1.385 . S
C4726 H4707 0.951 . S
C4726 C4724 1.388 . S
C4726 C4727 1.366 . S
C4727 C4726 1.366 . S
C4727 C4728 1.414 . S
C4727 C4730 1.499 . S
C4728 H4708 0.950 . S
C4728 C4727 1.414 . S
C4728 C4729 1.374 . S
C4729 H4709 0.950 . S
C4729 C4725 1.385 . S
C4729 C4728 1.374 . S
C4730 C4727 1.499 . S
C4730 C4731 1.373 . S
C4730 C4732 1.389 . S
C4731 H4710 0.950 . S
C4731 C4730 1.373 . S
C4731 C4747 1.377 . S
C4732 C4730 1.389 . S
C4732 C4733 1.524 . S
C4732 C4746 1.377 . S
C4733 C4732 1.524 . S
C4733 C4734 1.397 . S
C4733 C4738 1.363 . S
C4734 H4711 0.950 . S
C4734 C4733 1.397 . S
C4734 C4735 1.334 . S
C4735 H4712 0.950 . S
C4735 C4734 1.334 . S
C4735 C4736 1.287 . S
C4736 C4735 1.287 . S
C4736 C4737 1.524 . S
C4736 H4755 0.913 . S
C4737 H4713 0.950 . S
C4737 C4736 1.524 . S
C4737 C4738 1.415 . S
C4738 H4714 0.950 . S
C4738 C4733 1.363 . S
C4738 C4737 1.415 . S
C4739 H4715 0.951 . S
C4739 C4740 1.366 . S
C4739 C4741 1.388 . S
C4740 C4739 1.366 . S
C4740 C4744 1.385 . S
C4741 H4716 0.951 . S
C4741 C4739 1.388 . S
C4741 C4742 1.366 . S
C4742 C4741 1.366 . S
C4742 C4743 1.414 . S
C4742 C4745 1.499 . S
C4743 H4717 0.950 . S
C4743 C4742 1.414 . S
C4743 C4744 1.374 . S
C4744 H4718 0.950 . S
C4744 C4740 1.385 . S
C4744 C4743 1.374 . S
C4745 C4742 1.499 . S
C4745 C4746 1.373 . S
C4745 C4747 1.389 . S
C4746 H4719 0.950 . S
C4746 C4732 1.377 . S
C4746 C4745 1.373 . S
C4747 C4731 1.377 . S
C4747 C4745 1.389 . S
C4747 C4748 1.524 . S
C4748 C4747 1.524 . S
C4748 C4749 1.397 . S
C4748 C4753 1.363 . S
C4749 H4720 0.950 . S
C4749 C4748 1.397 . S
C4749 C4750 1.334 . S
C4750 H4721 0.950 . S
C4750 C4749 1.334 . S
C4750 C4751 1.287 . S
C4751 C4750 1.287 . S
C4751 C4752 1.524 . S
C4751 H4754 0.999 . S
C4752 H4722 0.950 . S
C4752 C4751 1.524 . S
C4752 C4753 1.415 . S
C4753 H4723 0.950 . S
C4753 C4748 1.363 . S
C4753 C4752 1.415 . S
H4754 C4751 0.999 . S
H4755 C4736 0.913 . S
H4756 C4774 0.951 . S
H4757 C4776 0.951 . S
H4758 C4778 0.950 . S
H4759 C4779 0.950 . S
H4760 C4781 0.950 . S
H4761 C4784 0.950 . S
H4762 C4785 0.950 . S
H4763 C4787 0.950 . S
H4764 C4788 0.950 . S
H4765 C4789 0.951 . S
H4766 C4791 0.951 . S
H4767 C4793 0.950 . S
H4768 C4794 0.950 . S
H4769 C4796 0.950 . S
H4770 C4799 0.950 . S
H4771 C4800 0.950 . S
H4772 C4802 0.950 . S
H4773 C4803 0.950 . S
C4774 H4756 0.951 . S
C4774 C4775 1.366 . S
C4774 C4776 1.388 . S
C4775 C4774 1.366 . S
C4775 C4779 1.385 . S
C4776 H4757 0.951 . S
C4776 C4774 1.388 . S
C4776 C4777 1.366 . S
C4777 C4776 1.366 . S
C4777 C4778 1.414 . S
C4777 C4780 1.499 . S
C4778 H4758 0.950 . S
C4778 C4777 1.414 . S
C4778 C4779 1.374 . S
C4779 H4759 0.950 . S
C4779 C4775 1.385 . S
C4779 C4778 1.374 . S
C4780 C4777 1.499 . S
C4780 C4781 1.373 . S
C4780 C4782 1.389 . S
C4781 H4760 0.950 . S
C4781 C4780 1.373 . S
C4781 C4797 1.377 . S
C4782 C4780 1.389 . S
C4782 C4783 1.524 . S
C4782 C4796 1.377 . S
C4783 C4782 1.524 . S
C4783 C4784 1.397 . S
C4783 C4788 1.363 . S
C4784 H4761 0.950 . S
C4784 C4783 1.397 . S
C4784 C4785 1.334 . S
C4785 H4762 0.950 . S
C4785 C4784 1.334 . S
C4785 C4786 1.287 . S
C4786 C4785 1.287 . S
C4786 C4787 1.524 . S
C4786 H4805 0.913 . S
C4787 H4763 0.950 . S
C4787 C4786 1.524 . S
C4787 C4788 1.415 . S
C4788 H4764 0.950 . S
C4788 C4783 1.363 . S
C4788 C4787 1.415 . S
C4789 H4765 0.951 . S
C4789 C4790 1.366 . S
C4789 C4791 1.388 . S
C4790 C4789 1.366 . S
C4790 C4794 1.385 . S
C4791 H4766 0.951 . S
C4791 C4789 1.388 . S
C4791 C4792 1.366 . S
C4792 C4791 1.366 . S
C4792 C4793 1.414 . S
C4792 C4795 1.499 . S
C4793 H4767 0.950 . S
C4793 C4792 1.414 . S
C4793 C4794 1.374 . S
C4794 H4768 0.950 . S
C4794 C4790 1.385 . S
C4794 C4793 1.374 . S
C4795 C4792 1.499 . S
C4795 C4796 1.373 . S
C4795 C4797 1.389 . S
C4796 H4769 0.950 . S
C4796 C4782 1.377 . S
C4796 C4795 1.373 . S
C4797 C4781 1.377 . S
C4797 C4795 1.389 . S
C4797 C4798 1.524 . S
C4798 C4797 1.524 . S
C4798 C4799 1.397 . S
C4798 C4803 1.363 . S
C4799 H4770 0.950 . S
C4799 C4798 1.397 . S
C4799 C4800 1.334 . S
C4800 H4771 0.950 . S
C4800 C4799 1.334 . S
C4800 C4801 1.287 . S
C4801 C4800 1.287 . S
C4801 C4802 1.524 . S
C4801 H4804 0.999 . S
C4802 H4772 0.950 . S
C4802 C4801 1.524 . S
C4802 C4803 1.415 . S
C4803 H4773 0.950 . S
C4803 C4798 1.363 . S
C4803 C4802 1.415 . S
H4804 C4801 0.999 . S
H4805 C4786 0.913 . S
H4806 C4824 0.951 . S
H4807 C4826 0.951 . S
H4808 C4828 0.950 . S
H4809 C4829 0.950 . S
H4810 C4831 0.950 . S
H4811 C4834 0.950 . S
H4812 C4835 0.950 . S
H4813 C4837 0.950 . S
H4814 C4838 0.950 . S
H4815 C4839 0.951 . S
H4816 C4841 0.951 . S
H4817 C4843 0.950 . S
H4818 C4844 0.950 . S
H4819 C4846 0.950 . S
H4820 C4849 0.950 . S
H4821 C4850 0.950 . S
H4822 C4852 0.950 . S
H4823 C4853 0.950 . S
C4824 H4806 0.951 . S
C4824 C4825 1.366 . S
C4824 C4826 1.388 . S
C4825 C4824 1.366 . S
C4825 C4829 1.385 . S
C4826 H4807 0.951 . S
C4826 C4824 1.388 . S
C4826 C4827 1.366 . S
C4827 C4826 1.366 . S
C4827 C4828 1.414 . S
C4827 C4830 1.499 . S
C4828 H4808 0.950 . S
C4828 C4827 1.414 . S
C4828 C4829 1.374 . S
C4829 H4809 0.950 . S
C4829 C4825 1.385 . S
C4829 C4828 1.374 . S
C4830 C4827 1.499 . S
C4830 C4831 1.373 . S
C4830 C4832 1.389 . S
C4831 H4810 0.950 . S
C4831 C4830 1.373 . S
C4831 C4847 1.377 . S
C4832 C4830 1.389 . S
C4832 C4833 1.524 . S
C4832 C4846 1.377 . S
C4833 C4832 1.524 . S
C4833 C4834 1.397 . S
C4833 C4838 1.363 . S
C4834 H4811 0.950 . S
C4834 C4833 1.397 . S
C4834 C4835 1.334 . S
C4835 H4812 0.950 . S
C4835 C4834 1.334 . S
C4835 C4836 1.287 . S
C4836 C4835 1.287 . S
C4836 C4837 1.524 . S
C4836 H4855 0.913 . S
C4837 H4813 0.950 . S
C4837 C4836 1.524 . S
C4837 C4838 1.415 . S
C4838 H4814 0.950 . S
C4838 C4833 1.363 . S
C4838 C4837 1.415 . S
C4839 H4815 0.951 . S
C4839 C4840 1.366 . S
C4839 C4841 1.388 . S
C4840 C4839 1.366 . S
C4840 C4844 1.385 . S
C4841 H4816 0.951 . S
C4841 C4839 1.388 . S
C4841 C4842 1.366 . S
C4842 C4841 1.366 . S
C4842 C4843 1.414 . S
C4842 C4845 1.499 . S
C4843 H4817 0.950 . S
C4843 C4842 1.414 . S
C4843 C4844 1.374 . S
C4844 H4818 0.950 . S
C4844 C4840 1.385 . S
C4844 C4843 1.374 . S
C4845 C4842 1.499 . S
C4845 C4846 1.373 . S
C4845 C4847 1.389 . S
C4846 H4819 0.950 . S
C4846 C4832 1.377 . S
C4846 C4845 1.373 . S
C4847 C4831 1.377 . S
C4847 C4845 1.389 . S
C4847 C4848 1.524 . S
C4848 C4847 1.524 . S
C4848 C4849 1.397 . S
C4848 C4853 1.363 . S
C4849 H4820 0.950 . S
C4849 C4848 1.397 . S
C4849 C4850 1.334 . S
C4850 H4821 0.950 . S
C4850 C4849 1.334 . S
C4850 C4851 1.287 . S
C4851 C4850 1.287 . S
C4851 C4852 1.524 . S
C4851 H4854 0.999 . S
C4852 H4822 0.950 . S
C4852 C4851 1.524 . S
C4852 C4853 1.415 . S
C4853 H4823 0.950 . S
C4853 C4848 1.363 . S
C4853 C4852 1.415 . S
H4854 C4851 0.999 . S
H4855 C4836 0.913 . S
H4856 C4874 0.951 . S
H4857 C4876 0.951 . S
H4858 C4878 0.950 . S
H4859 C4879 0.950 . S
H4860 C4881 0.950 . S
H4861 C4884 0.950 . S
H4862 C4885 0.950 . S
H4863 C4887 0.950 . S
H4864 C4888 0.950 . S
H4865 C4889 0.951 . S
H4866 C4891 0.951 . S
H4867 C4893 0.950 . S
H4868 C4894 0.950 . S
H4869 C4896 0.950 . S
H4870 C4899 0.950 . S
H4871 C4900 0.950 . S
H4872 C4902 0.950 . S
H4873 C4903 0.950 . S
C4874 H4856 0.951 . S
C4874 C4875 1.366 . S
C4874 C4876 1.388 . S
C4875 C4874 1.366 . S
C4875 C4879 1.385 . S
C4876 H4857 0.951 . S
C4876 C4874 1.388 . S
C4876 C4877 1.366 . S
C4877 C4876 1.366 . S
C4877 C4878 1.414 . S
C4877 C4880 1.499 . S
C4878 H4858 0.950 . S
C4878 C4877 1.414 . S
C4878 C4879 1.374 . S
C4879 H4859 0.950 . S
C4879 C4875 1.385 . S
C4879 C4878 1.374 . S
C4880 C4877 1.499 . S
C4880 C4881 1.373 . S
C4880 C4882 1.389 . S
C4881 H4860 0.950 . S
C4881 C4880 1.373 . S
C4881 C4897 1.377 . S
C4882 C4880 1.389 . S
C4882 C4883 1.524 . S
C4882 C4896 1.377 . S
C4883 C4882 1.524 . S
C4883 C4884 1.397 . S
C4883 C4888 1.363 . S
C4884 H4861 0.950 . S
C4884 C4883 1.397 . S
C4884 C4885 1.334 . S
C4885 H4862 0.950 . S
C4885 C4884 1.334 . S
C4885 C4886 1.287 . S
C4886 C4885 1.287 . S
C4886 C4887 1.524 . S
C4886 H4905 0.913 . S
C4887 H4863 0.950 . S
C4887 C4886 1.524 . S
C4887 C4888 1.415 . S
C4888 H4864 0.950 . S
C4888 C4883 1.363 . S
C4888 C4887 1.415 . S
C4889 H4865 0.951 . S
C4889 C4890 1.366 . S
C4889 C4891 1.388 . S
C4890 C4889 1.366 . S
C4890 C4894 1.385 . S
C4891 H4866 0.951 . S
C4891 C4889 1.388 . S
C4891 C4892 1.366 . S
C4892 C4891 1.366 . S
C4892 C4893 1.414 . S
C4892 C4895 1.499 . S
C4893 H4867 0.950 . S
C4893 C4892 1.414 . S
C4893 C4894 1.374 . S
C4894 H4868 0.950 . S
C4894 C4890 1.385 . S
C4894 C4893 1.374 . S
C4895 C4892 1.499 . S
C4895 C4896 1.373 . S
C4895 C4897 1.389 . S
C4896 H4869 0.950 . S
C4896 C4882 1.377 . S
C4896 C4895 1.373 . S
C4897 C4881 1.377 . S
C4897 C4895 1.389 . S
C4897 C4898 1.524 . S
C4898 C4897 1.524 . S
C4898 C4899 1.397 1_455 S
C4898 C4903 1.363 . S
C4899 H4870 0.950 . S
C4899 C4898 1.397 1_655 S
C4899 C4900 1.334 . S
C4900 H4871 0.950 . S
C4900 C4899 1.334 . S
C4900 C4901 1.287 . S
C4901 C4900 1.287 . S
C4901 C4902 1.524 . S
C4901 H4904 0.999 . S
C4902 H4872 0.950 . S
C4902 C4901 1.524 . S
C4902 C4903 1.415 1_655 S
C4903 H4873 0.950 . S
C4903 C4898 1.363 . S
C4903 C4902 1.415 1_455 S
H4904 C4901 0.999 . S
H4905 C4886 0.913 . S
H4906 C4924 0.951 . S
H4907 C4926 0.951 . S
H4908 C4928 0.950 . S
H4909 C4929 0.950 . S
H4910 C4931 0.950 . S
H4911 C4934 0.950 . S
H4912 C4935 0.950 . S
H4913 C4937 0.950 . S
H4914 C4938 0.950 . S
H4915 C4939 0.951 . S
H4916 C4941 0.951 . S
H4917 C4943 0.950 . S
H4918 C4944 0.950 . S
H4919 C4946 0.950 . S
H4920 C4949 0.950 . S
H4921 C4950 0.950 . S
H4922 C4952 0.950 . S
H4923 C4953 0.950 . S
C4924 H4906 0.951 . S
C4924 C4925 1.366 . S
C4924 C4926 1.388 . S
C4925 C4924 1.366 . S
C4925 C4929 1.385 . S
C4926 H4907 0.951 . S
C4926 C4924 1.388 . S
C4926 C4927 1.366 . S
C4927 C4926 1.366 . S
C4927 C4928 1.414 . S
C4927 C4930 1.499 . S
C4928 H4908 0.950 . S
C4928 C4927 1.414 . S
C4928 C4929 1.374 . S
C4929 H4909 0.950 . S
C4929 C4925 1.385 . S
C4929 C4928 1.374 . S
C4930 C4927 1.499 . S
C4930 C4931 1.373 . S
C4930 C4932 1.389 . S
C4931 H4910 0.950 . S
C4931 C4930 1.373 . S
C4931 C4947 1.377 . S
C4932 C4930 1.389 . S
C4932 C4933 1.524 . S
C4932 C4946 1.377 . S
C4933 C4932 1.524 . S
C4933 C4934 1.397 . S
C4933 C4938 1.363 . S
C4934 H4911 0.950 . S
C4934 C4933 1.397 . S
C4934 C4935 1.334 . S
C4935 H4912 0.950 . S
C4935 C4934 1.334 . S
C4935 C4936 1.287 . S
C4936 C4935 1.287 . S
C4936 C4937 1.524 . S
C4936 H4955 0.913 . S
C4937 H4913 0.950 . S
C4937 C4936 1.524 . S
C4937 C4938 1.415 . S
C4938 H4914 0.950 . S
C4938 C4933 1.363 . S
C4938 C4937 1.415 . S
C4939 H4915 0.951 . S
C4939 C4940 1.366 . S
C4939 C4941 1.388 . S
C4940 C4939 1.366 . S
C4940 C4944 1.385 . S
C4941 H4916 0.951 . S
C4941 C4939 1.388 . S
C4941 C4942 1.366 . S
C4942 C4941 1.366 . S
C4942 C4943 1.414 . S
C4942 C4945 1.499 . S
C4943 H4917 0.950 . S
C4943 C4942 1.414 . S
C4943 C4944 1.374 . S
C4944 H4918 0.950 . S
C4944 C4940 1.385 . S
C4944 C4943 1.374 . S
C4945 C4942 1.499 . S
C4945 C4946 1.373 . S
C4945 C4947 1.389 . S
C4946 H4919 0.950 . S
C4946 C4932 1.377 . S
C4946 C4945 1.373 . S
C4947 C4931 1.377 . S
C4947 C4945 1.389 . S
C4947 C4948 1.524 . S
C4948 C4947 1.524 . S
C4948 C4949 1.397 . S
C4948 C4953 1.363 . S
C4949 H4920 0.950 . S
C4949 C4948 1.397 . S
C4949 C4950 1.334 . S
C4950 H4921 0.950 . S
C4950 C4949 1.334 . S
C4950 C4951 1.287 . S
C4951 C4950 1.287 . S
C4951 C4952 1.524 . S
C4951 H4954 0.999 . S
C4952 H4922 0.950 . S
C4952 C4951 1.524 . S
C4952 C4953 1.415 . S
C4953 H4923 0.950 . S
C4953 C4948 1.363 . S
C4953 C4952 1.415 . S
H4954 C4951 0.999 . S
H4955 C4936 0.913 . S
H4956 C4974 0.951 . S
H4957 C4976 0.951 . S
H4958 C4978 0.950 . S
H4959 C4979 0.950 . S
H4960 C4981 0.950 . S
H4961 C4984 0.950 . S
H4962 C4985 0.950 . S
H4963 C4987 0.950 . S
H4964 C4988 0.950 . S
H4965 C4989 0.951 . S
H4966 C4991 0.951 . S
H4967 C4993 0.950 . S
H4968 C4994 0.950 1_554 S
H4969 C4996 0.950 . S
H4970 C4999 0.950 . S
H4971 C5000 0.950 . S
H4972 C5002 0.950 . S
H4973 C5003 0.950 . S
C4974 H4956 0.951 . S
C4974 C4975 1.366 . S
C4974 C4976 1.388 . S
C4975 C4974 1.366 . S
C4975 C4979 1.385 . S
C4976 H4957 0.951 . S
C4976 C4974 1.388 . S
C4976 C4977 1.366 . S
C4977 C4976 1.366 . S
C4977 C4978 1.414 . S
C4977 C4980 1.499 . S
C4978 H4958 0.950 . S
C4978 C4977 1.414 . S
C4978 C4979 1.374 . S
C4979 H4959 0.950 . S
C4979 C4975 1.385 . S
C4979 C4978 1.374 . S
C4980 C4977 1.499 . S
C4980 C4981 1.373 . S
C4980 C4982 1.389 . S
C4981 H4960 0.950 . S
C4981 C4980 1.373 . S
C4981 C4997 1.377 . S
C4982 C4980 1.389 . S
C4982 C4983 1.524 . S
C4982 C4996 1.377 . S
C4983 C4982 1.524 . S
C4983 C4984 1.397 . S
C4983 C4988 1.363 . S
C4984 H4961 0.950 . S
C4984 C4983 1.397 . S
C4984 C4985 1.334 . S
C4985 H4962 0.950 . S
C4985 C4984 1.334 . S
C4985 C4986 1.287 . S
C4986 C4985 1.287 . S
C4986 C4987 1.524 . S
C4986 H5005 0.913 . S
C4987 H4963 0.950 . S
C4987 C4986 1.524 . S
C4987 C4988 1.415 . S
C4988 H4964 0.950 . S
C4988 C4983 1.363 . S
C4988 C4987 1.415 . S
C4989 H4965 0.951 . S
C4989 C4990 1.366 . S
C4989 C4991 1.388 . S
C4990 C4989 1.366 . S
C4990 C4994 1.385 . S
C4991 H4966 0.951 . S
C4991 C4989 1.388 . S
C4991 C4992 1.366 . S
C4992 C4991 1.366 . S
C4992 C4993 1.414 . S
C4992 C4995 1.499 . S
C4993 H4967 0.950 . S
C4993 C4992 1.414 . S
C4993 C4994 1.374 . S
C4994 H4968 0.950 1_556 S
C4994 C4990 1.385 . S
C4994 C4993 1.374 . S
C4995 C4992 1.499 . S
C4995 C4996 1.373 . S
C4995 C4997 1.389 . S
C4996 H4969 0.950 . S
C4996 C4982 1.377 . S
C4996 C4995 1.373 . S
C4997 C4981 1.377 . S
C4997 C4995 1.389 . S
C4997 C4998 1.524 . S
C4998 C4997 1.524 . S
C4998 C4999 1.397 . S
C4998 C5003 1.363 . S
C4999 H4970 0.950 . S
C4999 C4998 1.397 . S
C4999 C5000 1.334 . S
C5000 H4971 0.950 . S
C5000 C4999 1.334 . S
C5000 C5001 1.287 . S
C5001 C5000 1.287 . S
C5001 C5002 1.524 . S
C5001 H5004 0.999 . S
C5002 H4972 0.950 . S
C5002 C5001 1.524 . S
C5002 C5003 1.415 . S
C5003 H4973 0.950 . S
C5003 C4998 1.363 . S
C5003 C5002 1.415 . S
H5004 C5001 0.999 . S
H5005 C4986 0.913 . S
H5006 C5024 0.951 . S
H5007 C5026 0.951 . S
H5008 C5028 0.950 . S
H5009 C5029 0.950 . S
H5010 C5031 0.950 . S
H5011 C5034 0.950 . S
H5012 C5035 0.950 . S
H5013 C5037 0.950 . S
H5014 C5038 0.950 . S
H5015 C5039 0.951 . S
H5016 C5041 0.951 . S
H5017 C5043 0.950 . S
H5018 C5044 0.950 . S
H5019 C5046 0.950 . S
H5020 C5049 0.950 . S
H5021 C5050 0.950 . S
H5022 C5052 0.950 . S
H5023 C5053 0.950 . S
C5024 H5006 0.951 . S
C5024 C5025 1.366 . S
C5024 C5026 1.388 . S
C5025 C5024 1.366 . S
C5025 C5029 1.385 . S
C5026 H5007 0.951 . S
C5026 C5024 1.388 . S
C5026 C5027 1.366 . S
C5027 C5026 1.366 . S
C5027 C5028 1.414 . S
C5027 C5030 1.499 . S
C5028 H5008 0.950 . S
C5028 C5027 1.414 . S
C5028 C5029 1.374 . S
C5029 H5009 0.950 . S
C5029 C5025 1.385 . S
C5029 C5028 1.374 . S
C5030 C5027 1.499 . S
C5030 C5031 1.373 . S
C5030 C5032 1.389 . S
C5031 H5010 0.950 . S
C5031 C5030 1.373 . S
C5031 C5047 1.377 . S
C5032 C5030 1.389 . S
C5032 C5033 1.524 . S
C5032 C5046 1.377 . S
C5033 C5032 1.524 . S
C5033 C5034 1.397 . S
C5033 C5038 1.363 . S
C5034 H5011 0.950 . S
C5034 C5033 1.397 . S
C5034 C5035 1.334 . S
C5035 H5012 0.950 . S
C5035 C5034 1.334 . S
C5035 C5036 1.287 . S
C5036 C5035 1.287 . S
C5036 C5037 1.524 . S
C5036 H5055 0.913 . S
C5037 H5013 0.950 . S
C5037 C5036 1.524 . S
C5037 C5038 1.415 . S
C5038 H5014 0.950 . S
C5038 C5033 1.363 . S
C5038 C5037 1.415 . S
C5039 H5015 0.951 . S
C5039 C5040 1.366 . S
C5039 C5041 1.388 . S
C5040 C5039 1.366 . S
C5040 C5044 1.385 . S
C5041 H5016 0.951 . S
C5041 C5039 1.388 . S
C5041 C5042 1.366 . S
C5042 C5041 1.366 . S
C5042 C5043 1.414 . S
C5042 C5045 1.499 . S
C5043 H5017 0.950 . S
C5043 C5042 1.414 . S
C5043 C5044 1.374 . S
C5044 H5018 0.950 . S
C5044 C5040 1.385 . S
C5044 C5043 1.374 . S
C5045 C5042 1.499 . S
C5045 C5046 1.373 . S
C5045 C5047 1.389 . S
C5046 H5019 0.950 . S
C5046 C5032 1.377 . S
C5046 C5045 1.373 . S
C5047 C5031 1.377 . S
C5047 C5045 1.389 . S
C5047 C5048 1.524 . S
C5048 C5047 1.524 . S
C5048 C5049 1.397 . S
C5048 C5053 1.363 . S
C5049 H5020 0.950 . S
C5049 C5048 1.397 . S
C5049 C5050 1.334 . S
C5050 H5021 0.950 . S
C5050 C5049 1.334 . S
C5050 C5051 1.287 . S
C5051 C5050 1.287 . S
C5051 C5052 1.524 . S
C5051 H5054 0.999 . S
C5052 H5022 0.950 . S
C5052 C5051 1.524 . S
C5052 C5053 1.415 . S
C5053 H5023 0.950 . S
C5053 C5048 1.363 . S
C5053 C5052 1.415 . S
H5054 C5051 0.999 . S
H5055 C5036 0.913 . S
H5056 C5074 0.951 . S
H5057 C5076 0.951 . S
H5058 C5078 0.950 . S
H5059 C5079 0.950 . S
H5060 C5081 0.950 1_565 S
H5061 C5084 0.950 . S
H5062 C5085 0.950 . S
H5063 C5087 0.950 . S
H5064 C5088 0.950 . S
H5065 C5089 0.951 . S
H5066 C5091 0.951 . S
H5067 C5093 0.950 . S
H5068 C5094 0.950 . S
H5069 C5096 0.950 . S
H5070 C5099 0.950 . S
H5071 C5100 0.950 . S
H5072 C5102 0.950 . S
H5073 C5103 0.950 . S
C5074 H5056 0.951 . S
C5074 C5075 1.366 . S
C5074 C5076 1.388 . S
C5075 C5074 1.366 . S
C5075 C5079 1.385 . S
C5076 H5057 0.951 . S
C5076 C5074 1.388 . S
C5076 C5077 1.366 . S
C5077 C5076 1.366 . S
C5077 C5078 1.414 . S
C5077 C5080 1.499 . S
C5078 H5058 0.950 . S
C5078 C5077 1.414 . S
C5078 C5079 1.374 . S
C5079 H5059 0.950 . S
C5079 C5075 1.385 . S
C5079 C5078 1.374 . S
C5080 C5077 1.499 . S
C5080 C5081 1.373 . S
C5080 C5082 1.389 . S
C5081 H5060 0.950 1_545 S
C5081 C5080 1.373 . S
C5081 C5097 1.377 . S
C5082 C5080 1.389 . S
C5082 C5083 1.524 . S
C5082 C5096 1.377 . S
C5083 C5082 1.524 . S
C5083 C5084 1.397 . S
C5083 C5088 1.363 . S
C5084 H5061 0.950 . S
C5084 C5083 1.397 . S
C5084 C5085 1.334 . S
C5085 H5062 0.950 . S
C5085 C5084 1.334 . S
C5085 C5086 1.287 . S
C5086 C5085 1.287 . S
C5086 C5087 1.524 . S
C5086 H5105 0.913 . S
C5087 H5063 0.950 . S
C5087 C5086 1.524 . S
C5087 C5088 1.415 . S
C5088 H5064 0.950 . S
C5088 C5083 1.363 . S
C5088 C5087 1.415 . S
C5089 H5065 0.951 . S
C5089 C5090 1.366 . S
C5089 C5091 1.388 . S
C5090 C5089 1.366 . S
C5090 C5094 1.385 . S
C5091 H5066 0.951 . S
C5091 C5089 1.388 . S
C5091 C5092 1.366 . S
C5092 C5091 1.366 . S
C5092 C5093 1.414 . S
C5092 C5095 1.499 . S
C5093 H5067 0.950 . S
C5093 C5092 1.414 . S
C5093 C5094 1.374 . S
C5094 H5068 0.950 . S
C5094 C5090 1.385 . S
C5094 C5093 1.374 . S
C5095 C5092 1.499 . S
C5095 C5096 1.373 . S
C5095 C5097 1.389 . S
C5096 H5069 0.950 . S
C5096 C5082 1.377 . S
C5096 C5095 1.373 . S
C5097 C5081 1.377 . S
C5097 C5095 1.389 . S
C5097 C5098 1.524 1_545 S
C5098 C5097 1.524 1_565 S
C5098 C5099 1.397 . S
C5098 C5103 1.363 . S
C5099 H5070 0.950 . S
C5099 C5098 1.397 . S
C5099 C5100 1.334 . S
C5100 H5071 0.950 . S
C5100 C5099 1.334 . S
C5100 C5101 1.287 . S
C5101 C5100 1.287 . S
C5101 C5102 1.524 . S
C5101 H5104 0.999 . S
C5102 H5072 0.950 . S
C5102 C5101 1.524 . S
C5102 C5103 1.415 . S
C5103 H5073 0.950 . S
C5103 C5098 1.363 . S
C5103 C5102 1.415 . S
H5104 C5101 0.999 . S
H5105 C5086 0.913 . S
H5106 C5124 0.951 . S
H5107 C5126 0.951 . S
H5108 C5128 0.950 . S
H5109 C5129 0.950 . S
H5110 C5131 0.950 . S
H5111 C5134 0.950 . S
H5112 C5135 0.950 . S
H5113 C5137 0.950 . S
H5114 C5138 0.950 . S
H5115 C5139 0.951 . S
H5116 C5141 0.951 . S
H5117 C5143 0.950 . S
H5118 C5144 0.950 . S
H5119 C5146 0.950 . S
H5120 C5149 0.950 . S
H5121 C5150 0.950 . S
H5122 C5152 0.950 . S
H5123 C5153 0.950 . S
C5124 H5106 0.951 . S
C5124 C5125 1.366 . S
C5124 C5126 1.388 . S
C5125 C5124 1.366 . S
C5125 C5129 1.385 . S
C5126 H5107 0.951 . S
C5126 C5124 1.388 . S
C5126 C5127 1.366 . S
C5127 C5126 1.366 . S
C5127 C5128 1.414 . S
C5127 C5130 1.499 . S
C5128 H5108 0.950 . S
C5128 C5127 1.414 . S
C5128 C5129 1.374 . S
C5129 H5109 0.950 . S
C5129 C5125 1.385 . S
C5129 C5128 1.374 . S
C5130 C5127 1.499 . S
C5130 C5131 1.373 . S
C5130 C5132 1.389 . S
C5131 H5110 0.950 . S
C5131 C5130 1.373 . S
C5131 C5147 1.377 . S
C5132 C5130 1.389 . S
C5132 C5133 1.524 . S
C5132 C5146 1.377 . S
C5133 C5132 1.524 . S
C5133 C5134 1.397 . S
C5133 C5138 1.363 . S
C5134 H5111 0.950 . S
C5134 C5133 1.397 . S
C5134 C5135 1.334 . S
C5135 H5112 0.950 . S
C5135 C5134 1.334 . S
C5135 C5136 1.287 . S
C5136 C5135 1.287 . S
C5136 C5137 1.524 . S
C5136 H5155 0.913 . S
C5137 H5113 0.950 . S
C5137 C5136 1.524 . S
C5137 C5138 1.415 . S
C5138 H5114 0.950 . S
C5138 C5133 1.363 . S
C5138 C5137 1.415 . S
C5139 H5115 0.951 . S
C5139 C5140 1.366 . S
C5139 C5141 1.388 . S
C5140 C5139 1.366 . S
C5140 C5144 1.385 . S
C5141 H5116 0.951 . S
C5141 C5139 1.388 . S
C5141 C5142 1.366 . S
C5142 C5141 1.366 . S
C5142 C5143 1.414 . S
C5142 C5145 1.499 . S
C5143 H5117 0.950 . S
C5143 C5142 1.414 . S
C5143 C5144 1.374 . S
C5144 H5118 0.950 . S
C5144 C5140 1.385 . S
C5144 C5143 1.374 . S
C5145 C5142 1.499 . S
C5145 C5146 1.373 . S
C5145 C5147 1.389 . S
C5146 H5119 0.950 . S
C5146 C5132 1.377 . S
C5146 C5145 1.373 . S
C5147 C5131 1.377 . S
C5147 C5145 1.389 . S
C5147 C5148 1.524 . S
C5148 C5147 1.524 . S
C5148 C5149 1.397 . S
C5148 C5153 1.363 . S
C5149 H5120 0.950 . S
C5149 C5148 1.397 . S
C5149 C5150 1.334 . S
C5150 H5121 0.950 . S
C5150 C5149 1.334 . S
C5150 C5151 1.287 . S
C5151 C5150 1.287 . S
C5151 C5152 1.524 . S
C5151 H5154 0.999 . S
C5152 H5122 0.950 . S
C5152 C5151 1.524 . S
C5152 C5153 1.415 . S
C5153 H5123 0.950 . S
C5153 C5148 1.363 . S
C5153 C5152 1.415 . S
H5154 C5151 0.999 . S
H5155 C5136 0.913 . S
H5156 C5174 0.951 . S
H5157 C5176 0.951 . S
H5158 C5178 0.950 . S
H5159 C5179 0.950 . S
H5160 C5181 0.950 . S
H5161 C5184 0.950 . S
H5162 C5185 0.950 . S
H5163 C5187 0.950 . S
H5164 C5188 0.950 . S
H5165 C5189 0.951 . S
H5166 C5191 0.951 . S
H5167 C5193 0.950 . S
H5168 C5194 0.950 . S
H5169 C5196 0.925 1_565 S
H5170 C5199 0.950 . S
H5171 C5200 0.950 . S
H5172 C5202 0.950 . S
H5173 C5203 0.950 . S
C5174 H5156 0.951 . S
C5174 C5175 1.366 . S
C5174 C5176 1.388 . S
C5175 C5174 1.366 . S
C5175 C5179 1.385 . S
C5176 H5157 0.951 . S
C5176 C5174 1.388 . S
C5176 C5177 1.366 . S
C5177 C5176 1.366 . S
C5177 C5178 1.414 . S
C5177 C5180 1.499 . S
C5178 H5158 0.950 . S
C5178 C5177 1.414 . S
C5178 C5179 1.374 . S
C5179 H5159 0.950 . S
C5179 C5175 1.385 . S
C5179 C5178 1.374 . S
C5180 C5177 1.499 . S
C5180 C5181 1.373 . S
C5180 C5182 1.389 . S
C5181 H5160 0.950 . S
C5181 C5180 1.373 . S
C5181 C5197 1.377 . S
C5182 C5180 1.389 . S
C5182 C5183 1.524 1_545 S
C5182 C5196 1.377 . S
C5183 C5182 1.524 1_565 S
C5183 C5184 1.397 . S
C5183 C5188 1.363 . S
C5184 H5161 0.950 . S
C5184 C5183 1.397 . S
C5184 C5185 1.334 . S
C5185 H5162 0.950 . S
C5185 C5184 1.334 . S
C5185 C5186 1.287 . S
C5186 C5185 1.287 . S
C5186 C5187 1.524 . S
C5186 H5205 0.913 . S
C5187 H5163 0.950 . S
C5187 C5186 1.524 . S
C5187 C5188 1.415 . S
C5188 H5164 0.950 . S
C5188 C5183 1.363 . S
C5188 C5187 1.415 . S
C5189 H5165 0.951 . S
C5189 C5190 1.366 . S
C5189 C5191 1.388 . S
C5190 C5189 1.366 . S
C5190 C5194 1.385 . S
C5191 H5166 0.951 . S
C5191 C5189 1.388 . S
C5191 C5192 1.366 . S
C5192 C5191 1.366 . S
C5192 C5193 1.414 . S
C5192 C5195 1.499 . S
C5193 H5167 0.950 . S
C5193 C5192 1.414 . S
C5193 C5194 1.374 . S
C5194 H5168 0.950 . S
C5194 C5190 1.385 . S
C5194 C5193 1.374 . S
C5195 C5192 1.499 . S
C5195 C5196 1.373 . S
C5195 C5197 1.389 . S
C5196 H5169 0.925 1_545 S
C5196 C5182 1.377 . S
C5196 C5195 1.373 . S
C5197 C5181 1.377 . S
C5197 C5195 1.389 . S
C5197 C5198 1.524 . S
C5198 C5197 1.524 . S
C5198 C5199 1.397 . S
C5198 C5203 1.363 . S
C5199 H5170 0.950 . S
C5199 C5198 1.397 . S
C5199 C5200 1.334 . S
C5200 H5171 0.950 . S
C5200 C5199 1.334 . S
C5200 C5201 1.287 . S
C5201 C5200 1.287 . S
C5201 C5202 1.524 . S
C5201 H5204 0.999 . S
C5202 H5172 0.950 . S
C5202 C5201 1.524 . S
C5202 C5203 1.415 . S
C5203 H5173 0.950 . S
C5203 C5198 1.363 . S
C5203 C5202 1.415 . S
H5204 C5201 0.999 . S
H5205 C5186 0.913 . S
H5206 C5224 0.951 . S
H5207 C5226 0.951 . S
H5208 C5228 0.950 . S
H5209 C5229 0.950 . S
H5210 C5231 0.950 . S
H5211 C5234 0.950 . S
H5212 C5235 0.950 . S
H5213 C5237 0.950 . S
H5214 C5238 0.950 . S
H5215 C5239 0.951 . S
H5216 C5241 0.951 . S
H5217 C5243 0.950 . S
H5218 C5244 0.950 . S
H5219 C5246 0.950 . S
H5220 C5249 0.950 . S
H5221 C5250 0.950 . S
H5222 C5252 0.950 . S
H5223 C5253 0.950 . S
C5224 H5206 0.951 . S
C5224 C5225 1.366 . S
C5224 C5226 1.388 . S
C5225 C5224 1.366 . S
C5225 C5229 1.385 . S
C5226 H5207 0.951 . S
C5226 C5224 1.388 . S
C5226 C5227 1.366 . S
C5227 C5226 1.366 . S
C5227 C5228 1.414 . S
C5227 C5230 1.499 . S
C5228 H5208 0.950 . S
C5228 C5227 1.414 . S
C5228 C5229 1.374 . S
C5229 H5209 0.950 . S
C5229 C5225 1.385 . S
C5229 C5228 1.374 . S
C5230 C5227 1.499 . S
C5230 C5231 1.373 . S
C5230 C5232 1.389 . S
C5231 H5210 0.950 . S
C5231 C5230 1.373 . S
C5231 C5247 1.377 . S
C5232 C5230 1.389 . S
C5232 C5233 1.524 . S
C5232 C5246 1.377 . S
C5233 C5232 1.524 . S
C5233 C5234 1.397 . S
C5233 C5238 1.363 . S
C5234 H5211 0.950 . S
C5234 C5233 1.397 . S
C5234 C5235 1.334 . S
C5235 H5212 0.950 . S
C5235 C5234 1.334 . S
C5235 C5236 1.287 . S
C5236 C5235 1.287 . S
C5236 C5237 1.524 . S
C5236 H5255 0.913 . S
C5237 H5213 0.950 . S
C5237 C5236 1.524 . S
C5237 C5238 1.415 . S
C5238 H5214 0.950 . S
C5238 C5233 1.363 . S
C5238 C5237 1.415 . S
C5239 H5215 0.951 . S
C5239 C5240 1.366 . S
C5239 C5241 1.388 . S
C5240 C5239 1.366 . S
C5240 C5244 1.385 . S
C5241 H5216 0.951 . S
C5241 C5239 1.388 . S
C5241 C5242 1.366 . S
C5242 C5241 1.366 . S
C5242 C5243 1.414 . S
C5242 C5245 1.499 . S
C5243 H5217 0.950 . S
C5243 C5242 1.414 . S
C5243 C5244 1.374 . S
C5244 H5218 0.950 . S
C5244 C5240 1.385 . S
C5244 C5243 1.374 . S
C5245 C5242 1.499 . S
C5245 C5246 1.373 . S
C5245 C5247 1.389 . S
C5246 H5219 0.950 . S
C5246 C5232 1.377 . S
C5246 C5245 1.373 . S
C5247 C5231 1.377 . S
C5247 C5245 1.389 . S
C5247 C5248 1.524 . S
C5248 C5247 1.524 . S
C5248 C5249 1.397 . S
C5248 C5253 1.363 . S
C5249 H5220 0.950 . S
C5249 C5248 1.397 . S
C5249 C5250 1.334 . S
C5250 H5221 0.950 . S
C5250 C5249 1.334 . S
C5250 C5251 1.287 . S
C5251 C5250 1.287 . S
C5251 C5252 1.524 . S
C5251 H5254 0.999 . S
C5252 H5222 0.950 . S
C5252 C5251 1.524 . S
C5252 C5253 1.415 . S
C5253 H5223 0.950 . S
C5253 C5248 1.363 . S
C5253 C5252 1.415 . S
H5254 C5251 0.999 . S
H5255 C5236 0.913 . S
H5256 C5274 0.951 . S
H5257 C5276 0.951 . S
H5258 C5278 0.950 . S
H5259 C5279 0.950 . S
H5260 C5281 0.950 . S
H5261 C5284 0.950 . S
H5262 C5285 0.950 . S
H5263 C5287 0.950 . S
H5264 C5288 0.950 . S
H5265 C5289 0.951 . S
H5266 C5291 0.951 . S
H5267 C5293 0.950 . S
H5268 C5294 0.950 . S
H5269 C5296 0.921 1_565 S
H5270 C5299 0.950 . S
H5271 C5300 0.950 . S
H5272 C5302 0.950 . S
H5273 C5303 0.950 . S
C5274 H5256 0.951 . S
C5274 C5275 1.366 . S
C5274 C5276 1.388 . S
C5275 C5274 1.366 . S
C5275 C5279 1.385 . S
C5276 H5257 0.951 . S
C5276 C5274 1.388 . S
C5276 C5277 1.366 . S
C5277 C5276 1.366 . S
C5277 C5278 1.414 . S
C5277 C5280 1.499 . S
C5278 H5258 0.950 . S
C5278 C5277 1.414 . S
C5278 C5279 1.374 . S
C5279 H5259 0.950 . S
C5279 C5275 1.385 . S
C5279 C5278 1.374 . S
C5280 C5277 1.499 . S
C5280 C5281 1.373 . S
C5280 C5282 1.389 . S
C5281 H5260 0.950 . S
C5281 C5280 1.373 . S
C5281 C5297 1.377 . S
C5282 C5280 1.389 . S
C5282 C5283 1.524 1_545 S
C5282 C5296 1.377 . S
C5283 C5282 1.524 1_565 S
C5283 C5284 1.397 . S
C5283 C5288 1.363 . S
C5284 H5261 0.950 . S
C5284 C5283 1.397 . S
C5284 C5285 1.334 . S
C5285 H5262 0.950 . S
C5285 C5284 1.334 . S
C5285 C5286 1.287 . S
C5286 C5285 1.287 . S
C5286 C5287 1.524 . S
C5286 H5305 0.913 . S
C5287 H5263 0.950 . S
C5287 C5286 1.524 . S
C5287 C5288 1.415 . S
C5288 H5264 0.950 . S
C5288 C5283 1.363 . S
C5288 C5287 1.415 . S
C5289 H5265 0.951 . S
C5289 C5290 1.366 . S
C5289 C5291 1.388 . S
C5290 C5289 1.366 . S
C5290 C5294 1.385 . S
C5291 H5266 0.951 . S
C5291 C5289 1.388 . S
C5291 C5292 1.366 . S
C5292 C5291 1.366 . S
C5292 C5293 1.414 . S
C5292 C5295 1.499 . S
C5293 H5267 0.950 . S
C5293 C5292 1.414 . S
C5293 C5294 1.374 . S
C5294 H5268 0.950 . S
C5294 C5290 1.385 . S
C5294 C5293 1.374 . S
C5295 C5292 1.499 . S
C5295 C5296 1.373 . S
C5295 C5297 1.389 . S
C5296 H5269 0.921 1_545 S
C5296 C5282 1.377 . S
C5296 C5295 1.373 . S
C5297 C5281 1.377 . S
C5297 C5295 1.389 . S
C5297 C5298 1.524 . S
C5298 C5297 1.524 . S
C5298 C5299 1.397 . S
C5298 C5303 1.363 . S
C5299 H5270 0.950 . S
C5299 C5298 1.397 . S
C5299 C5300 1.334 . S
C5300 H5271 0.950 . S
C5300 C5299 1.334 . S
C5300 C5301 1.287 . S
C5301 C5300 1.287 . S
C5301 C5302 1.524 . S
C5301 H5304 0.999 . S
C5302 H5272 0.950 . S
C5302 C5301 1.524 . S
C5302 C5303 1.415 . S
C5303 H5273 0.950 . S
C5303 C5298 1.363 . S
C5303 C5302 1.415 . S
H5304 C5301 0.999 . S
H5305 C5286 0.913 . S
H5306 C5324 0.951 . S
H5307 C5326 0.951 . S
H5308 C5328 0.950 . S
H5309 C5329 0.950 . S
H5310 C5331 0.950 . S
H5311 C5334 0.950 . S
H5312 C5335 0.950 . S
H5313 C5337 0.950 . S
H5314 C5338 0.950 . S
H5315 C5339 0.951 . S
H5316 C5341 0.951 . S
H5317 C5343 0.950 . S
H5318 C5344 0.950 . S
H5319 C5346 0.950 . S
H5320 C5349 0.950 . S
H5321 C5350 0.950 . S
H5322 C5352 0.950 . S
H5323 C5353 0.950 . S
C5324 H5306 0.951 . S
C5324 C5325 1.366 . S
C5324 C5326 1.388 . S
C5325 C5324 1.366 . S
C5325 C5329 1.385 . S
C5326 H5307 0.951 . S
C5326 C5324 1.388 . S
C5326 C5327 1.366 . S
C5327 C5326 1.366 . S
C5327 C5328 1.414 . S
C5327 C5330 1.499 . S
C5328 H5308 0.950 . S
C5328 C5327 1.414 . S
C5328 C5329 1.374 . S
C5329 H5309 0.950 . S
C5329 C5325 1.385 . S
C5329 C5328 1.374 . S
C5330 C5327 1.499 . S
C5330 C5331 1.373 . S
C5330 C5332 1.389 . S
C5331 H5310 0.950 . S
C5331 C5330 1.373 . S
C5331 C5347 1.377 . S
C5332 C5330 1.389 . S
C5332 C5333 1.524 . S
C5332 C5346 1.377 . S
C5333 C5332 1.524 . S
C5333 C5334 1.397 . S
C5333 C5338 1.363 . S
C5334 H5311 0.950 . S
C5334 C5333 1.397 . S
C5334 C5335 1.334 . S
C5335 H5312 0.950 . S
C5335 C5334 1.334 . S
C5335 C5336 1.287 . S
C5336 C5335 1.287 . S
C5336 C5337 1.524 . S
C5336 H5355 0.913 . S
C5337 H5313 0.950 . S
C5337 C5336 1.524 . S
C5337 C5338 1.415 . S
C5338 H5314 0.950 . S
C5338 C5333 1.363 . S
C5338 C5337 1.415 . S
C5339 H5315 0.951 . S
C5339 C5340 1.366 . S
C5339 C5341 1.388 . S
C5340 C5339 1.366 . S
C5340 C5344 1.385 . S
C5341 H5316 0.951 . S
C5341 C5339 1.388 . S
C5341 C5342 1.366 . S
C5342 C5341 1.366 . S
C5342 C5343 1.414 . S
C5342 C5345 1.499 . S
C5343 H5317 0.950 . S
C5343 C5342 1.414 . S
C5343 C5344 1.374 . S
C5344 H5318 0.950 . S
C5344 C5340 1.385 . S
C5344 C5343 1.374 . S
C5345 C5342 1.499 . S
C5345 C5346 1.373 . S
C5345 C5347 1.389 . S
C5346 H5319 0.950 . S
C5346 C5332 1.377 . S
C5346 C5345 1.373 . S
C5347 C5331 1.377 . S
C5347 C5345 1.389 . S
C5347 C5348 1.524 . S
C5348 C5347 1.524 . S
C5348 C5349 1.397 . S
C5348 C5353 1.363 . S
C5349 H5320 0.950 . S
C5349 C5348 1.397 . S
C5349 C5350 1.334 . S
C5350 H5321 0.950 . S
C5350 C5349 1.334 . S
C5350 C5351 1.287 . S
C5351 C5350 1.287 . S
C5351 C5352 1.524 . S
C5351 H5354 0.999 . S
C5352 H5322 0.950 . S
C5352 C5351 1.524 . S
C5352 C5353 1.415 . S
C5353 H5323 0.950 . S
C5353 C5348 1.363 . S
C5353 C5352 1.415 . S
H5354 C5351 0.999 . S
H5355 C5336 0.913 . S
H5356 C5374 0.951 . S
H5357 C5376 0.951 . S
H5358 C5378 0.950 . S
H5359 C5379 0.950 . S
H5360 C5381 0.950 . S
H5361 C5384 0.950 . S
H5362 C5385 0.950 1_545 S
H5363 C5387 0.950 . S
H5364 C5388 0.950 . S
H5365 C5389 0.951 . S
H5366 C5391 0.951 . S
H5367 C5393 0.950 . S
H5368 C5394 0.950 . S
H5369 C5396 0.939 1_565 S
H5370 C5399 0.950 . S
H5371 C5400 0.950 . S
H5372 C5402 0.950 . S
H5373 C5403 0.950 . S
C5374 H5356 0.951 . S
C5374 C5375 1.366 1_565 S
C5374 C5376 1.388 . S
C5375 C5374 1.366 1_545 S
C5375 C5379 1.385 . S
C5376 H5357 0.951 . S
C5376 C5374 1.388 . S
C5376 C5377 1.366 1_565 S
C5377 C5376 1.366 1_545 S
C5377 C5378 1.414 . S
C5377 C5380 1.499 . S
C5378 H5358 0.950 . S
C5378 C5377 1.414 . S
C5378 C5379 1.374 . S
C5379 H5359 0.950 . S
C5379 C5375 1.385 . S
C5379 C5378 1.374 . S
C5380 C5377 1.499 . S
C5380 C5381 1.373 . S
C5380 C5382 1.389 . S
C5381 H5360 0.950 . S
C5381 C5380 1.373 . S
C5381 C5397 1.377 . S
C5382 C5380 1.389 . S
C5382 C5383 1.524 1_545 S
C5382 C5396 1.377 . S
C5383 C5382 1.524 1_565 S
C5383 C5384 1.397 1_565 S
C5383 C5388 1.363 . S
C5384 H5361 0.950 . S
C5384 C5383 1.397 1_545 S
C5384 C5385 1.334 1_545 S
C5385 H5362 0.950 1_565 S
C5385 C5384 1.334 1_565 S
C5385 C5386 1.287 . S
C5386 C5385 1.287 . S
C5386 C5387 1.524 . S
C5386 H5405 0.913 . S
C5387 H5363 0.950 . S
C5387 C5386 1.524 . S
C5387 C5388 1.415 . S
C5388 H5364 0.950 . S
C5388 C5383 1.363 . S
C5388 C5387 1.415 . S
C5389 H5365 0.951 . S
C5389 C5390 1.366 . S
C5389 C5391 1.388 . S
C5390 C5389 1.366 . S
C5390 C5394 1.385 1_545 S
C5391 H5366 0.951 . S
C5391 C5389 1.388 . S
C5391 C5392 1.366 . S
C5392 C5391 1.366 . S
C5392 C5393 1.414 1_545 S
C5392 C5395 1.499 . S
C5393 H5367 0.950 . S
C5393 C5392 1.414 1_565 S
C5393 C5394 1.374 . S
C5394 H5368 0.950 . S
C5394 C5390 1.385 1_565 S
C5394 C5393 1.374 . S
C5395 C5392 1.499 . S
C5395 C5396 1.384 . S
C5395 C5397 1.389 . S
C5396 H5369 0.939 1_545 S
C5396 C5382 1.377 . S
C5396 C5395 1.384 . S
C5397 C5381 1.377 . S
C5397 C5395 1.389 . S
C5397 C5398 1.524 . S
C5398 C5397 1.524 . S
C5398 C5399 1.397 . S
C5398 C5403 1.363 . S
C5399 H5370 0.950 . S
C5399 C5398 1.397 . S
C5399 C5400 1.334 . S
C5400 H5371 0.950 . S
C5400 C5399 1.334 . S
C5400 C5401 1.287 . S
C5401 C5400 1.287 . S
C5401 C5402 1.524 . S
C5401 H5404 0.999 . S
C5402 H5372 0.950 . S
C5402 C5401 1.524 . S
C5402 C5403 1.415 . S
C5403 H5373 0.950 . S
C5403 C5398 1.363 . S
C5403 C5402 1.415 . S
H5404 C5401 0.999 . S
H5405 C5386 0.913 . S
H5406 C5424 0.951 . S
H5407 C5426 0.951 . S
H5408 C5428 0.950 . S
H5409 C5429 0.950 . S
H5410 C5431 0.950 . S
H5411 C5434 0.950 . S
H5412 C5435 0.950 . S
H5413 C5437 0.950 . S
H5414 C5438 0.950 . S
H5415 C5439 0.951 . S
H5416 C5441 0.951 . S
H5417 C5443 0.950 . S
H5418 C5444 0.950 . S
H5419 C5446 0.950 . S
H5420 C5449 0.950 . S
H5421 C5450 0.950 . S
H5422 C5452 0.950 . S
H5423 C5453 0.950 . S
C5424 H5406 0.951 . S
C5424 C5425 1.366 . S
C5424 C5426 1.388 . S
C5425 C5424 1.366 . S
C5425 C5429 1.385 . S
C5426 H5407 0.951 . S
C5426 C5424 1.388 . S
C5426 C5427 1.366 . S
C5427 C5426 1.366 . S
C5427 C5428 1.414 . S
C5427 C5430 1.499 . S
C5428 H5408 0.950 . S
C5428 C5427 1.414 . S
C5428 C5429 1.374 . S
C5429 H5409 0.950 . S
C5429 C5425 1.385 . S
C5429 C5428 1.374 . S
C5430 C5427 1.499 . S
C5430 C5431 1.373 . S
C5430 C5432 1.389 . S
C5431 H5410 0.950 . S
C5431 C5430 1.373 . S
C5431 C5447 1.377 . S
C5432 C5430 1.389 . S
C5432 C5433 1.524 . S
C5432 C5446 1.377 . S
C5433 C5432 1.524 . S
C5433 C5434 1.397 . S
C5433 C5438 1.363 . S
C5434 H5411 0.950 . S
C5434 C5433 1.397 . S
C5434 C5435 1.334 . S
C5435 H5412 0.950 . S
C5435 C5434 1.334 . S
C5435 C5436 1.287 . S
C5436 C5435 1.287 . S
C5436 C5437 1.524 . S
C5436 H5455 0.913 . S
C5437 H5413 0.950 . S
C5437 C5436 1.524 . S
C5437 C5438 1.415 . S
C5438 H5414 0.950 . S
C5438 C5433 1.363 . S
C5438 C5437 1.415 . S
C5439 H5415 0.951 . S
C5439 C5440 1.366 . S
C5439 C5441 1.388 . S
C5440 C5439 1.366 . S
C5440 C5444 1.385 . S
C5441 H5416 0.951 . S
C5441 C5439 1.388 . S
C5441 C5442 1.366 . S
C5442 C5441 1.366 . S
C5442 C5443 1.414 . S
C5442 C5445 1.499 . S
C5443 H5417 0.950 . S
C5443 C5442 1.414 . S
C5443 C5444 1.374 . S
C5444 H5418 0.950 . S
C5444 C5440 1.385 . S
C5444 C5443 1.374 . S
C5445 C5442 1.499 . S
C5445 C5446 1.373 . S
C5445 C5447 1.389 . S
C5446 H5419 0.950 . S
C5446 C5432 1.377 . S
C5446 C5445 1.373 . S
C5447 C5431 1.377 . S
C5447 C5445 1.389 . S
C5447 C5448 1.524 . S
C5448 C5447 1.524 . S
C5448 C5449 1.397 . S
C5448 C5453 1.363 . S
C5449 H5420 0.950 . S
C5449 C5448 1.397 . S
C5449 C5450 1.334 . S
C5450 H5421 0.950 . S
C5450 C5449 1.334 . S
C5450 C5451 1.287 . S
C5451 C5450 1.287 . S
C5451 C5452 1.524 . S
C5451 H5454 0.999 . S
C5452 H5422 0.950 . S
C5452 C5451 1.524 . S
C5452 C5453 1.415 . S
C5453 H5423 0.950 . S
C5453 C5448 1.363 . S
C5453 C5452 1.415 . S
H5454 C5451 0.999 . S
H5455 C5436 0.913 . S
H5456 C5474 0.951 . S
H5457 C5476 0.951 . S
H5458 C5478 0.950 . S
H5459 C5479 0.950 . S
H5460 C5481 0.950 . S
H5461 C5484 0.952 . S
H5462 C5485 0.950 . S
H5463 C5487 0.950 . S
H5464 C5488 0.950 . S
H5465 C5489 0.951 . S
H5466 C5491 0.951 . S
H5467 C5493 0.950 . S
H5468 C5494 0.950 . S
H5469 C5496 0.950 . S
H5470 C5499 0.950 . S
H5471 C5500 0.950 . S
H5472 C5502 0.905 1_565 S
H5473 C5503 0.950 . S
C5474 H5456 0.951 . S
C5474 C5475 1.366 . S
C5474 C5476 1.388 . S
C5475 C5474 1.366 . S
C5475 C5479 1.385 . S
C5476 H5457 0.951 . S
C5476 C5474 1.388 . S
C5476 C5477 1.366 . S
C5477 C5476 1.366 . S
C5477 C5478 1.414 . S
C5477 C5480 1.499 . S
C5478 H5458 0.950 . S
C5478 C5477 1.414 . S
C5478 C5479 1.374 . S
C5479 H5459 0.950 . S
C5479 C5475 1.385 . S
C5479 C5478 1.374 . S
C5480 C5477 1.499 . S
C5480 C5481 1.373 . S
C5480 C5482 1.389 . S
C5481 H5460 0.950 . S
C5481 C5480 1.373 . S
C5481 C5497 1.377 . S
C5482 C5480 1.389 . S
C5482 C5483 1.524 . S
C5482 C5496 1.377 . S
C5483 C5482 1.524 . S
C5483 C5484 1.372 1_554 S
C5483 C5488 1.363 . S
C5484 H5461 0.952 . S
C5484 C5483 1.372 1_556 S
C5484 C5485 1.358 . S
C5485 H5462 0.950 . S
C5485 C5484 1.358 . S
C5485 C5486 1.287 . S
C5486 C5485 1.287 . S
C5486 C5487 1.524 1_556 S
C5486 H5505 0.913 . S
C5487 H5463 0.950 . S
C5487 C5486 1.524 1_554 S
C5487 C5488 1.415 . S
C5488 H5464 0.950 . S
C5488 C5483 1.363 . S
C5488 C5487 1.415 . S
C5489 H5465 0.951 . S
C5489 C5490 1.366 . S
C5489 C5491 1.388 . S
C5490 C5489 1.366 . S
C5490 C5494 1.385 . S
C5491 H5466 0.951 . S
C5491 C5489 1.388 . S
C5491 C5492 1.366 . S
C5492 C5491 1.366 . S
C5492 C5493 1.414 . S
C5492 C5495 1.499 . S
C5493 H5467 0.950 . S
C5493 C5492 1.414 . S
C5493 C5494 1.374 . S
C5494 H5468 0.950 . S
C5494 C5490 1.385 . S
C5494 C5493 1.374 . S
C5495 C5492 1.499 . S
C5495 C5496 1.373 . S
C5495 C5497 1.389 . S
C5496 H5469 0.950 . S
C5496 C5482 1.377 . S
C5496 C5495 1.373 . S
C5497 C5481 1.377 . S
C5497 C5495 1.389 . S
C5497 C5498 1.524 . S
C5498 C5497 1.524 . S
C5498 C5499 1.397 . S
C5498 C5503 1.363 . S
C5499 H5470 0.950 . S
C5499 C5498 1.397 . S
C5499 C5500 1.334 . S
C5500 H5471 0.950 . S
C5500 C5499 1.334 . S
C5500 C5501 1.287 . S
C5501 C5500 1.287 . S
C5501 C5502 1.524 . S
C5501 H5504 0.999 . S
C5502 H5472 0.905 1_545 S
C5502 C5501 1.524 . S
C5502 C5503 1.415 . S
C5503 H5473 0.950 . S
C5503 C5498 1.363 . S
C5503 C5502 1.415 . S
H5504 C5501 0.999 . S
H5505 C5486 0.913 . S
H5506 C5524 0.951 . S
H5507 C5526 0.951 . S
H5508 C5528 0.950 . S
H5509 C5529 0.950 . S
H5510 C5531 0.950 . S
H5511 C5534 0.966 . S
H5512 C5535 0.950 . S
H5513 C5537 0.950 . S
H5514 C5538 0.950 . S
H5515 C5539 0.951 . S
H5516 C5541 0.951 . S
H5517 C5543 0.950 . S
H5518 C5544 0.950 . S
H5519 C5546 0.950 . S
H5520 C5549 0.950 . S
H5521 C5550 0.950 . S
H5522 C5552 0.950 . S
H5523 C5553 0.950 . S
C5524 H5506 0.951 . S
C5524 C5525 1.366 . S
C5524 C5526 1.388 . S
C5525 C5524 1.366 . S
C5525 C5529 1.385 . S
C5526 H5507 0.951 . S
C5526 C5524 1.388 . S
C5526 C5527 1.366 . S
C5527 C5526 1.366 . S
C5527 C5528 1.414 . S
C5527 C5530 1.499 . S
C5528 H5508 0.950 . S
C5528 C5527 1.414 . S
C5528 C5529 1.374 . S
C5529 H5509 0.950 . S
C5529 C5525 1.385 . S
C5529 C5528 1.374 . S
C5530 C5527 1.499 . S
C5530 C5531 1.373 . S
C5530 C5532 1.389 . S
C5531 H5510 0.950 . S
C5531 C5530 1.373 . S
C5531 C5547 1.377 . S
C5532 C5530 1.389 . S
C5532 C5533 1.524 . S
C5532 C5546 1.377 . S
C5533 C5532 1.524 . S
C5533 C5534 1.396 . S
C5533 C5538 1.363 1_554 S
C5534 H5511 0.966 . S
C5534 C5533 1.396 . S
C5534 C5535 1.319 1_554 S
C5535 H5512 0.950 . S
C5535 C5534 1.319 1_556 S
C5535 C5536 1.287 . S
C5536 C5535 1.287 . S
C5536 C5537 1.524 . S
C5536 H5555 0.913 . S
C5537 H5513 0.950 . S
C5537 C5536 1.524 . S
C5537 C5538 1.415 . S
C5538 H5514 0.950 . S
C5538 C5533 1.363 1_556 S
C5538 C5537 1.415 . S
C5539 H5515 0.951 . S
C5539 C5540 1.366 . S
C5539 C5541 1.388 . S
C5540 C5539 1.366 . S
C5540 C5544 1.385 . S
C5541 H5516 0.951 . S
C5541 C5539 1.388 . S
C5541 C5542 1.366 . S
C5542 C5541 1.366 . S
C5542 C5543 1.414 . S
C5542 C5545 1.499 . S
C5543 H5517 0.950 . S
C5543 C5542 1.414 . S
C5543 C5544 1.374 . S
C5544 H5518 0.950 . S
C5544 C5540 1.385 . S
C5544 C5543 1.374 . S
C5545 C5542 1.499 . S
C5545 C5546 1.373 . S
C5545 C5547 1.389 . S
C5546 H5519 0.950 . S
C5546 C5532 1.377 . S
C5546 C5545 1.373 . S
C5547 C5531 1.377 . S
C5547 C5545 1.389 . S
C5547 C5548 1.524 . S
C5548 C5547 1.524 . S
C5548 C5549 1.397 . S
C5548 C5553 1.363 . S
C5549 H5520 0.950 . S
C5549 C5548 1.397 . S
C5549 C5550 1.334 . S
C5550 H5521 0.950 . S
C5550 C5549 1.334 . S
C5550 C5551 1.287 . S
C5551 C5550 1.287 . S
C5551 C5552 1.524 . S
C5551 H5554 0.999 . S
C5552 H5522 0.950 . S
C5552 C5551 1.524 . S
C5552 C5553 1.415 . S
C5553 H5523 0.950 . S
C5553 C5548 1.363 . S
C5553 C5552 1.415 . S
H5554 C5551 0.999 . S
H5555 C5536 0.913 . S
H5556 C5574 0.951 . S
H5557 C5576 0.951 . S
H5558 C5578 0.950 . S
H5559 C5579 0.950 . S
H5560 C5581 0.950 . S
H5561 C5584 0.950 . S
H5562 C5585 0.950 . S
H5563 C5587 0.950 . S
H5564 C5588 0.950 . S
H5565 C5589 0.951 . S
H5566 C5591 0.951 . S
H5567 C5593 0.950 . S
H5568 C5594 0.950 . S
H5569 C5596 0.950 . S
H5570 C5599 0.950 . S
H5571 C5600 0.950 . S
H5572 C5602 0.950 . S
H5573 C5603 0.950 . S
C5574 H5556 0.951 . S
C5574 C5575 1.366 . S
C5574 C5576 1.388 . S
C5575 C5574 1.366 . S
C5575 C5579 1.385 . S
C5576 H5557 0.951 . S
C5576 C5574 1.388 . S
C5576 C5577 1.366 . S
C5577 C5576 1.366 . S
C5577 C5578 1.414 . S
C5577 C5580 1.499 . S
C5578 H5558 0.950 . S
C5578 C5577 1.414 . S
C5578 C5579 1.374 . S
C5579 H5559 0.950 . S
C5579 C5575 1.385 . S
C5579 C5578 1.374 . S
C5580 C5577 1.499 . S
C5580 C5581 1.373 . S
C5580 C5582 1.389 . S
C5581 H5560 0.950 . S
C5581 C5580 1.373 . S
C5581 C5597 1.377 . S
C5582 C5580 1.389 . S
C5582 C5583 1.524 . S
C5582 C5596 1.377 . S
C5583 C5582 1.524 . S
C5583 C5584 1.397 . S
C5583 C5588 1.363 . S
C5584 H5561 0.950 . S
C5584 C5583 1.397 . S
C5584 C5585 1.334 . S
C5585 H5562 0.950 . S
C5585 C5584 1.334 . S
C5585 C5586 1.287 . S
C5586 C5585 1.287 . S
C5586 C5587 1.524 . S
C5586 H5605 0.913 . S
C5587 H5563 0.950 . S
C5587 C5586 1.524 . S
C5587 C5588 1.415 . S
C5588 H5564 0.950 . S
C5588 C5583 1.363 . S
C5588 C5587 1.415 . S
C5589 H5565 0.951 . S
C5589 C5590 1.366 . S
C5589 C5591 1.388 . S
C5590 C5589 1.366 . S
C5590 C5594 1.385 . S
C5591 H5566 0.951 . S
C5591 C5589 1.388 . S
C5591 C5592 1.366 . S
C5592 C5591 1.366 . S
C5592 C5593 1.414 . S
C5592 C5595 1.499 . S
C5593 H5567 0.950 . S
C5593 C5592 1.414 . S
C5593 C5594 1.374 . S
C5594 H5568 0.950 . S
C5594 C5590 1.385 . S
C5594 C5593 1.374 . S
C5595 C5592 1.499 . S
C5595 C5596 1.373 . S
C5595 C5597 1.389 . S
C5596 H5569 0.950 . S
C5596 C5582 1.377 . S
C5596 C5595 1.373 . S
C5597 C5581 1.377 . S
C5597 C5595 1.389 . S
C5597 C5598 1.524 . S
C5598 C5597 1.524 . S
C5598 C5599 1.397 . S
C5598 C5603 1.363 . S
C5599 H5570 0.950 . S
C5599 C5598 1.397 . S
C5599 C5600 1.334 . S
C5600 H5571 0.950 . S
C5600 C5599 1.334 . S
C5600 C5601 1.287 . S
C5601 C5600 1.287 . S
C5601 C5602 1.524 . S
C5601 H5604 0.999 . S
C5602 H5572 0.950 . S
C5602 C5601 1.524 . S
C5602 C5603 1.415 . S
C5603 H5573 0.950 . S
C5603 C5598 1.363 . S
C5603 C5602 1.415 . S
H5604 C5601 0.999 . S
H5605 C5586 0.913 . S
H5606 C5624 0.951 . S
H5607 C5626 0.951 . S
H5608 C5628 0.950 . S
H5609 C5629 0.950 . S
H5610 C5631 0.950 . S
H5611 C5634 0.950 . S
H5612 C5635 0.950 . S
H5613 C5637 0.950 . S
H5614 C5638 0.950 . S
H5615 C5639 0.951 . S
H5616 C5641 0.951 . S
H5617 C5643 0.950 . S
H5618 C5644 0.950 . S
H5619 C5646 0.950 . S
H5620 C5649 0.950 . S
H5621 C5650 0.950 . S
H5622 C5652 0.950 . S
H5623 C5653 0.950 . S
C5624 H5606 0.951 . S
C5624 C5625 1.366 . S
C5624 C5626 1.388 . S
C5625 C5624 1.366 . S
C5625 C5629 1.385 . S
C5626 H5607 0.951 . S
C5626 C5624 1.388 . S
C5626 C5627 1.366 . S
C5627 C5626 1.366 . S
C5627 C5628 1.414 . S
C5627 C5630 1.499 . S
C5628 H5608 0.950 . S
C5628 C5627 1.414 . S
C5628 C5629 1.374 . S
C5629 H5609 0.950 . S
C5629 C5625 1.385 . S
C5629 C5628 1.374 . S
C5630 C5627 1.499 . S
C5630 C5631 1.373 . S
C5630 C5632 1.389 . S
C5631 H5610 0.950 . S
C5631 C5630 1.373 . S
C5631 C5647 1.377 . S
C5632 C5630 1.389 . S
C5632 C5633 1.524 . S
C5632 C5646 1.377 . S
C5633 C5632 1.524 . S
C5633 C5634 1.397 . S
C5633 C5638 1.363 . S
C5634 H5611 0.950 . S
C5634 C5633 1.397 . S
C5634 C5635 1.334 . S
C5635 H5612 0.950 . S
C5635 C5634 1.334 . S
C5635 C5636 1.287 . S
C5636 C5635 1.287 . S
C5636 C5637 1.524 . S
C5636 H5655 0.913 . S
C5637 H5613 0.950 . S
C5637 C5636 1.524 . S
C5637 C5638 1.415 . S
C5638 H5614 0.950 . S
C5638 C5633 1.363 . S
C5638 C5637 1.415 . S
C5639 H5615 0.951 . S
C5639 C5640 1.366 . S
C5639 C5641 1.388 . S
C5640 C5639 1.366 . S
C5640 C5644 1.385 . S
C5641 H5616 0.951 . S
C5641 C5639 1.388 . S
C5641 C5642 1.366 . S
C5642 C5641 1.366 . S
C5642 C5643 1.414 . S
C5642 C5645 1.499 . S
C5643 H5617 0.950 . S
C5643 C5642 1.414 . S
C5643 C5644 1.374 . S
C5644 H5618 0.950 . S
C5644 C5640 1.385 . S
C5644 C5643 1.374 . S
C5645 C5642 1.499 . S
C5645 C5646 1.373 . S
C5645 C5647 1.389 . S
C5646 H5619 0.950 . S
C5646 C5632 1.377 . S
C5646 C5645 1.373 . S
C5647 C5631 1.377 . S
C5647 C5645 1.389 . S
C5647 C5648 1.524 . S
C5648 C5647 1.524 . S
C5648 C5649 1.397 . S
C5648 C5653 1.363 . S
C5649 H5620 0.950 . S
C5649 C5648 1.397 . S
C5649 C5650 1.334 . S
C5650 H5621 0.950 . S
C5650 C5649 1.334 . S
C5650 C5651 1.287 . S
C5651 C5650 1.287 . S
C5651 C5652 1.524 . S
C5651 H5654 0.999 . S
C5652 H5622 0.950 . S
C5652 C5651 1.524 . S
C5652 C5653 1.415 . S
C5653 H5623 0.950 . S
C5653 C5648 1.363 . S
C5653 C5652 1.415 . S
H5654 C5651 0.999 . S
H5655 C5636 0.913 . S
H5656 C5674 0.951 . S
H5657 C5676 0.951 . S
H5658 C5678 0.950 . S
H5659 C5679 0.950 . S
H5660 C5681 0.950 . S
H5661 C5684 0.950 . S
H5662 C5685 0.950 . S
H5663 C5687 0.950 . S
H5664 C5688 0.950 . S
H5665 C5689 0.951 . S
H5666 C5691 0.951 . S
H5667 C5693 0.950 . S
H5668 C5694 0.950 . S
H5669 C5696 0.950 . S
H5670 C5699 0.950 . S
H5671 C5700 0.950 . S
H5672 C5702 0.950 . S
H5673 C5703 0.950 . S
C5674 H5656 0.951 . S
C5674 C5675 1.366 . S
C5674 C5676 1.388 . S
C5675 C5674 1.366 . S
C5675 C5679 1.385 . S
C5676 H5657 0.951 . S
C5676 C5674 1.388 . S
C5676 C5677 1.366 . S
C5677 C5676 1.366 . S
C5677 C5678 1.414 . S
C5677 C5680 1.499 . S
C5678 H5658 0.950 . S
C5678 C5677 1.414 . S
C5678 C5679 1.374 . S
C5679 H5659 0.950 . S
C5679 C5675 1.385 . S
C5679 C5678 1.374 . S
C5680 C5677 1.499 . S
C5680 C5681 1.373 . S
C5680 C5682 1.389 . S
C5681 H5660 0.950 . S
C5681 C5680 1.373 . S
C5681 C5697 1.377 . S
C5682 C5680 1.389 . S
C5682 C5683 1.524 . S
C5682 C5696 1.377 . S
C5683 C5682 1.524 . S
C5683 C5684 1.397 . S
C5683 C5688 1.363 . S
C5684 H5661 0.950 . S
C5684 C5683 1.397 . S
C5684 C5685 1.334 . S
C5685 H5662 0.950 . S
C5685 C5684 1.334 . S
C5685 C5686 1.287 . S
C5686 C5685 1.287 . S
C5686 C5687 1.524 . S
C5686 H5705 0.913 . S
C5687 H5663 0.950 . S
C5687 C5686 1.524 . S
C5687 C5688 1.415 . S
C5688 H5664 0.950 . S
C5688 C5683 1.363 . S
C5688 C5687 1.415 . S
C5689 H5665 0.951 . S
C5689 C5690 1.366 . S
C5689 C5691 1.388 . S
C5690 C5689 1.366 . S
C5690 C5694 1.385 . S
C5691 H5666 0.951 . S
C5691 C5689 1.388 . S
C5691 C5692 1.366 . S
C5692 C5691 1.366 . S
C5692 C5693 1.414 . S
C5692 C5695 1.499 . S
C5693 H5667 0.950 . S
C5693 C5692 1.414 . S
C5693 C5694 1.374 . S
C5694 H5668 0.950 . S
C5694 C5690 1.385 . S
C5694 C5693 1.374 . S
C5695 C5692 1.499 . S
C5695 C5696 1.373 . S
C5695 C5697 1.389 . S
C5696 H5669 0.950 . S
C5696 C5682 1.377 . S
C5696 C5695 1.373 . S
C5697 C5681 1.377 . S
C5697 C5695 1.389 . S
C5697 C5698 1.524 . S
C5698 C5697 1.524 . S
C5698 C5699 1.397 . S
C5698 C5703 1.363 . S
C5699 H5670 0.950 . S
C5699 C5698 1.397 . S
C5699 C5700 1.334 . S
C5700 H5671 0.950 . S
C5700 C5699 1.334 . S
C5700 C5701 1.287 . S
C5701 C5700 1.287 . S
C5701 C5702 1.524 . S
C5701 H5704 0.999 . S
C5702 H5672 0.950 . S
C5702 C5701 1.524 . S
C5702 C5703 1.415 . S
C5703 H5673 0.950 . S
C5703 C5698 1.363 . S
C5703 C5702 1.415 . S
H5704 C5701 0.999 . S
H5705 C5686 0.913 . S
H5706 C5724 0.951 . S
H5707 C5726 0.951 . S
H5708 C5728 0.950 . S
H5709 C5729 0.950 . S
H5710 C5731 0.950 . S
H5711 C5734 0.950 . S
H5712 C5735 0.950 . S
H5713 C5737 0.950 . S
H5714 C5738 0.950 . S
H5715 C5739 0.951 . S
H5716 C5741 0.951 . S
H5717 C5743 0.950 . S
H5718 C5744 0.950 . S
H5719 C5746 0.950 . S
H5720 C5749 0.950 . S
H5721 C5750 0.950 . S
H5722 C5752 0.950 . S
H5723 C5753 0.950 . S
C5724 H5706 0.951 . S
C5724 C5725 1.366 . S
C5724 C5726 1.388 . S
C5725 C5724 1.366 . S
C5725 C5729 1.385 . S
C5726 H5707 0.951 . S
C5726 C5724 1.388 . S
C5726 C5727 1.366 . S
C5727 C5726 1.366 . S
C5727 C5728 1.414 . S
C5727 C5730 1.499 . S
C5728 H5708 0.950 . S
C5728 C5727 1.414 . S
C5728 C5729 1.374 . S
C5729 H5709 0.950 . S
C5729 C5725 1.385 . S
C5729 C5728 1.374 . S
C5730 C5727 1.499 . S
C5730 C5731 1.373 . S
C5730 C5732 1.389 . S
C5731 H5710 0.950 . S
C5731 C5730 1.373 . S
C5731 C5747 1.377 . S
C5732 C5730 1.389 . S
C5732 C5733 1.524 . S
C5732 C5746 1.377 . S
C5733 C5732 1.524 . S
C5733 C5734 1.397 . S
C5733 C5738 1.363 . S
C5734 H5711 0.950 . S
C5734 C5733 1.397 . S
C5734 C5735 1.334 . S
C5735 H5712 0.950 . S
C5735 C5734 1.334 . S
C5735 C5736 1.287 . S
C5736 C5735 1.287 . S
C5736 C5737 1.524 . S
C5736 H5755 0.913 . S
C5737 H5713 0.950 . S
C5737 C5736 1.524 . S
C5737 C5738 1.415 . S
C5738 H5714 0.950 . S
C5738 C5733 1.363 . S
C5738 C5737 1.415 . S
C5739 H5715 0.951 . S
C5739 C5740 1.366 . S
C5739 C5741 1.388 . S
C5740 C5739 1.366 . S
C5740 C5744 1.385 . S
C5741 H5716 0.951 . S
C5741 C5739 1.388 . S
C5741 C5742 1.366 . S
C5742 C5741 1.366 . S
C5742 C5743 1.414 . S
C5742 C5745 1.499 . S
C5743 H5717 0.950 . S
C5743 C5742 1.414 . S
C5743 C5744 1.374 . S
C5744 H5718 0.950 . S
C5744 C5740 1.385 . S
C5744 C5743 1.374 . S
C5745 C5742 1.499 . S
C5745 C5746 1.373 . S
C5745 C5747 1.389 . S
C5746 H5719 0.950 . S
C5746 C5732 1.377 . S
C5746 C5745 1.373 . S
C5747 C5731 1.377 . S
C5747 C5745 1.389 . S
C5747 C5748 1.524 . S
C5748 C5747 1.524 . S
C5748 C5749 1.397 . S
C5748 C5753 1.363 . S
C5749 H5720 0.950 . S
C5749 C5748 1.397 . S
C5749 C5750 1.334 1_565 S
C5750 H5721 0.950 . S
C5750 C5749 1.334 1_545 S
C5750 C5751 1.287 . S
C5751 C5750 1.287 . S
C5751 C5752 1.524 1_545 S
C5751 H5754 0.999 . S
C5752 H5722 0.950 . S
C5752 C5751 1.524 1_565 S
C5752 C5753 1.415 . S
C5753 H5723 0.950 . S
C5753 C5748 1.363 . S
C5753 C5752 1.415 . S
H5754 C5751 0.999 . S
H5755 C5736 0.913 . S
H5756 C5774 0.951 . S
H5757 C5776 0.951 . S
H5758 C5778 0.950 . S
H5759 C5779 0.950 . S
H5760 C5781 0.950 . S
H5761 C5784 0.950 . S
H5762 C5785 0.950 . S
H5763 C5787 0.950 . S
H5764 C5788 0.950 . S
H5765 C5789 0.951 . S
H5766 C5791 0.951 . S
H5767 C5793 0.950 . S
H5768 C5794 0.950 . S
H5769 C5796 0.950 . S
H5770 C5799 0.950 . S
H5771 C5800 0.950 . S
H5772 C5802 0.950 . S
H5773 C5803 0.950 . S
C5774 H5756 0.951 . S
C5774 C5775 1.366 . S
C5774 C5776 1.388 . S
C5775 C5774 1.366 . S
C5775 C5779 1.385 . S
C5776 H5757 0.951 . S
C5776 C5774 1.388 . S
C5776 C5777 1.366 . S
C5777 C5776 1.366 . S
C5777 C5778 1.414 . S
C5777 C5780 1.499 . S
C5778 H5758 0.950 . S
C5778 C5777 1.414 . S
C5778 C5779 1.374 . S
C5779 H5759 0.950 . S
C5779 C5775 1.385 . S
C5779 C5778 1.374 . S
C5780 C5777 1.499 . S
C5780 C5781 1.373 . S
C5780 C5782 1.389 . S
C5781 H5760 0.950 . S
C5781 C5780 1.373 . S
C5781 C5797 1.377 . S
C5782 C5780 1.389 . S
C5782 C5783 1.524 . S
C5782 C5796 1.377 . S
C5783 C5782 1.524 . S
C5783 C5784 1.397 . S
C5783 C5788 1.363 . S
C5784 H5761 0.950 . S
C5784 C5783 1.397 . S
C5784 C5785 1.334 . S
C5785 H5762 0.950 . S
C5785 C5784 1.334 . S
C5785 C5786 1.287 . S
C5786 C5785 1.287 . S
C5786 C5787 1.524 . S
C5786 H5805 0.913 . S
C5787 H5763 0.950 . S
C5787 C5786 1.524 . S
C5787 C5788 1.415 . S
C5788 H5764 0.950 . S
C5788 C5783 1.363 . S
C5788 C5787 1.415 . S
C5789 H5765 0.951 . S
C5789 C5790 1.366 . S
C5789 C5791 1.388 . S
C5790 C5789 1.366 . S
C5790 C5794 1.385 . S
C5791 H5766 0.951 . S
C5791 C5789 1.388 . S
C5791 C5792 1.366 . S
C5792 C5791 1.366 . S
C5792 C5793 1.414 . S
C5792 C5795 1.499 . S
C5793 H5767 0.950 . S
C5793 C5792 1.414 . S
C5793 C5794 1.374 . S
C5794 H5768 0.950 . S
C5794 C5790 1.385 . S
C5794 C5793 1.374 . S
C5795 C5792 1.499 . S
C5795 C5796 1.373 . S
C5795 C5797 1.389 . S
C5796 H5769 0.950 . S
C5796 C5782 1.377 . S
C5796 C5795 1.373 . S
C5797 C5781 1.377 . S
C5797 C5795 1.389 . S
C5797 C5798 1.524 . S
C5798 C5797 1.524 . S
C5798 C5799 1.397 . S
C5798 C5803 1.363 . S
C5799 H5770 0.950 . S
C5799 C5798 1.397 . S
C5799 C5800 1.334 . S
C5800 H5771 0.950 . S
C5800 C5799 1.334 . S
C5800 C5801 1.287 . S
C5801 C5800 1.287 . S
C5801 C5802 1.524 . S
C5801 H5804 0.999 . S
C5802 H5772 0.950 . S
C5802 C5801 1.524 . S
C5802 C5803 1.415 . S
C5803 H5773 0.950 . S
C5803 C5798 1.363 . S
C5803 C5802 1.415 . S
H5804 C5801 0.999 . S
H5805 C5786 0.913 . S
H5806 C5824 0.951 . S
H5807 C5826 0.951 . S
H5808 C5828 0.950 . S
H5809 C5829 0.950 . S
H5810 C5831 0.950 . S
H5811 C5834 0.950 . S
H5812 C5835 0.950 . S
H5813 C5837 0.950 . S
H5814 C5838 0.950 . S
H5815 C5839 0.951 . S
H5816 C5841 0.951 . S
H5817 C5843 0.950 . S
H5818 C5844 0.950 . S
H5819 C5846 0.950 . S
H5820 C5849 0.950 . S
H5821 C5850 0.950 . S
H5822 C5852 0.950 . S
H5823 C5853 0.950 . S
C5824 H5806 0.951 . S
C5824 C5825 1.366 . S
C5824 C5826 1.388 . S
C5825 C5824 1.366 . S
C5825 C5829 1.385 . S
C5826 H5807 0.951 . S
C5826 C5824 1.388 . S
C5826 C5827 1.366 . S
C5827 C5826 1.366 . S
C5827 C5828 1.414 . S
C5827 C5830 1.499 . S
C5828 H5808 0.950 . S
C5828 C5827 1.414 . S
C5828 C5829 1.374 . S
C5829 H5809 0.950 . S
C5829 C5825 1.385 . S
C5829 C5828 1.374 . S
C5830 C5827 1.499 . S
C5830 C5831 1.373 . S
C5830 C5832 1.389 . S
C5831 H5810 0.950 . S
C5831 C5830 1.373 . S
C5831 C5847 1.377 . S
C5832 C5830 1.389 . S
C5832 C5833 1.524 . S
C5832 C5846 1.377 . S
C5833 C5832 1.524 . S
C5833 C5834 1.397 . S
C5833 C5838 1.363 . S
C5834 H5811 0.950 . S
C5834 C5833 1.397 . S
C5834 C5835 1.334 . S
C5835 H5812 0.950 . S
C5835 C5834 1.334 . S
C5835 C5836 1.287 . S
C5836 C5835 1.287 . S
C5836 C5837 1.524 . S
C5836 H5855 0.913 . S
C5837 H5813 0.950 . S
C5837 C5836 1.524 . S
C5837 C5838 1.415 . S
C5838 H5814 0.950 . S
C5838 C5833 1.363 . S
C5838 C5837 1.415 . S
C5839 H5815 0.951 . S
C5839 C5840 1.366 . S
C5839 C5841 1.388 . S
C5840 C5839 1.366 . S
C5840 C5844 1.385 . S
C5841 H5816 0.951 . S
C5841 C5839 1.388 . S
C5841 C5842 1.366 . S
C5842 C5841 1.366 . S
C5842 C5843 1.414 . S
C5842 C5845 1.499 . S
C5843 H5817 0.950 . S
C5843 C5842 1.414 . S
C5843 C5844 1.374 . S
C5844 H5818 0.950 . S
C5844 C5840 1.385 . S
C5844 C5843 1.374 . S
C5845 C5842 1.499 . S
C5845 C5846 1.373 . S
C5845 C5847 1.389 . S
C5846 H5819 0.950 . S
C5846 C5832 1.377 . S
C5846 C5845 1.373 . S
C5847 C5831 1.377 . S
C5847 C5845 1.389 . S
C5847 C5848 1.524 . S
C5848 C5847 1.524 . S
C5848 C5849 1.397 . S
C5848 C5853 1.363 . S
C5849 H5820 0.950 . S
C5849 C5848 1.397 . S
C5849 C5850 1.334 . S
C5850 H5821 0.950 . S
C5850 C5849 1.334 . S
C5850 C5851 1.287 . S
C5851 C5850 1.287 . S
C5851 C5852 1.524 . S
C5851 H5854 0.999 . S
C5852 H5822 0.950 . S
C5852 C5851 1.524 . S
C5852 C5853 1.415 . S
C5853 H5823 0.950 . S
C5853 C5848 1.363 . S
C5853 C5852 1.415 . S
H5854 C5851 0.999 . S
H5855 C5836 0.913 . S
H5856 C5874 0.951 . S
H5857 C5876 0.951 . S
H5858 C5878 0.950 . S
H5859 C5879 0.950 . S
H5860 C5881 0.950 . S
H5861 C5884 0.950 . S
H5862 C5885 0.950 . S
H5863 C5887 0.950 . S
H5864 C5888 0.950 . S
H5865 C5889 0.951 . S
H5866 C5891 0.951 . S
H5867 C5893 0.950 . S
H5868 C5894 0.950 . S
H5869 C5896 0.950 . S
H5870 C5899 0.950 . S
H5871 C5900 0.950 . S
H5872 C5902 0.950 . S
H5873 C5903 0.950 . S
C5874 H5856 0.951 . S
C5874 C5875 1.366 . S
C5874 C5876 1.388 . S
C5875 C5874 1.366 . S
C5875 C5879 1.385 . S
C5876 H5857 0.951 . S
C5876 C5874 1.388 . S
C5876 C5877 1.366 . S
C5877 C5876 1.366 . S
C5877 C5878 1.414 . S
C5877 C5880 1.499 . S
C5878 H5858 0.950 . S
C5878 C5877 1.414 . S
C5878 C5879 1.374 . S
C5879 H5859 0.950 . S
C5879 C5875 1.385 . S
C5879 C5878 1.374 . S
C5880 C5877 1.499 . S
C5880 C5881 1.373 . S
C5880 C5882 1.389 . S
C5881 H5860 0.950 . S
C5881 C5880 1.373 . S
C5881 C5897 1.377 . S
C5882 C5880 1.389 . S
C5882 C5883 1.524 . S
C5882 C5896 1.377 . S
C5883 C5882 1.524 . S
C5883 C5884 1.397 . S
C5883 C5888 1.363 . S
C5884 H5861 0.950 . S
C5884 C5883 1.397 . S
C5884 C5885 1.334 . S
C5885 H5862 0.950 . S
C5885 C5884 1.334 . S
C5885 C5886 1.287 . S
C5886 C5885 1.287 . S
C5886 C5887 1.524 . S
C5886 H5905 0.913 . S
C5887 H5863 0.950 . S
C5887 C5886 1.524 . S
C5887 C5888 1.415 . S
C5888 H5864 0.950 . S
C5888 C5883 1.363 . S
C5888 C5887 1.415 . S
C5889 H5865 0.951 . S
C5889 C5890 1.366 . S
C5889 C5891 1.388 . S
C5890 C5889 1.366 . S
C5890 C5894 1.385 . S
C5891 H5866 0.951 . S
C5891 C5889 1.388 . S
C5891 C5892 1.366 . S
C5892 C5891 1.366 . S
C5892 C5893 1.414 . S
C5892 C5895 1.499 . S
C5893 H5867 0.950 . S
C5893 C5892 1.414 . S
C5893 C5894 1.374 . S
C5894 H5868 0.950 . S
C5894 C5890 1.385 . S
C5894 C5893 1.374 . S
C5895 C5892 1.499 . S
C5895 C5896 1.373 . S
C5895 C5897 1.389 . S
C5896 H5869 0.950 . S
C5896 C5882 1.377 . S
C5896 C5895 1.373 . S
C5897 C5881 1.377 . S
C5897 C5895 1.389 . S
C5897 C5898 1.524 . S
C5898 C5897 1.524 . S
C5898 C5899 1.397 . S
C5898 C5903 1.363 . S
C5899 H5870 0.950 . S
C5899 C5898 1.397 . S
C5899 C5900 1.334 . S
C5900 H5871 0.950 . S
C5900 C5899 1.334 . S
C5900 C5901 1.287 . S
C5901 C5900 1.287 . S
C5901 C5902 1.524 . S
C5901 H5904 0.999 . S
C5902 H5872 0.950 . S
C5902 C5901 1.524 . S
C5902 C5903 1.415 . S
C5903 H5873 0.950 . S
C5903 C5898 1.363 . S
C5903 C5902 1.415 . S
H5904 C5901 0.999 . S
H5905 C5886 0.913 . S
H5906 C5924 0.951 . S
H5907 C5926 0.951 . S
H5908 C5928 0.950 . S
H5909 C5929 0.950 . S
H5910 C5931 0.950 . S
H5911 C5934 0.950 . S
H5912 C5935 0.950 . S
H5913 C5937 0.950 . S
H5914 C5938 0.950 . S
H5915 C5939 0.951 . S
H5916 C5941 0.951 . S
H5917 C5943 0.950 . S
H5918 C5944 0.950 . S
H5919 C5946 0.950 . S
H5920 C5949 0.950 . S
H5921 C5950 0.950 . S
H5922 C5952 0.950 . S
H5923 C5953 0.950 . S
C5924 H5906 0.951 . S
C5924 C5925 1.366 . S
C5924 C5926 1.388 . S
C5925 C5924 1.366 . S
C5925 C5929 1.385 . S
C5926 H5907 0.951 . S
C5926 C5924 1.388 . S
C5926 C5927 1.366 . S
C5927 C5926 1.366 . S
C5927 C5928 1.414 . S
C5927 C5930 1.499 . S
C5928 H5908 0.950 . S
C5928 C5927 1.414 . S
C5928 C5929 1.374 . S
C5929 H5909 0.950 . S
C5929 C5925 1.385 . S
C5929 C5928 1.374 . S
C5930 C5927 1.499 . S
C5930 C5931 1.373 . S
C5930 C5932 1.389 . S
C5931 H5910 0.950 . S
C5931 C5930 1.373 . S
C5931 C5947 1.377 . S
C5932 C5930 1.389 . S
C5932 C5933 1.524 . S
C5932 C5946 1.377 . S
C5933 C5932 1.524 . S
C5933 C5934 1.397 . S
C5933 C5938 1.363 . S
C5934 H5911 0.950 . S
C5934 C5933 1.397 . S
C5934 C5935 1.334 . S
C5935 H5912 0.950 . S
C5935 C5934 1.334 . S
C5935 C5936 1.287 . S
C5936 C5935 1.287 . S
C5936 C5937 1.524 . S
C5936 H5955 0.913 . S
C5937 H5913 0.950 . S
C5937 C5936 1.524 . S
C5937 C5938 1.415 . S
C5938 H5914 0.950 . S
C5938 C5933 1.363 . S
C5938 C5937 1.415 . S
C5939 H5915 0.951 . S
C5939 C5940 1.366 . S
C5939 C5941 1.388 . S
C5940 C5939 1.366 . S
C5940 C5944 1.385 . S
C5941 H5916 0.951 . S
C5941 C5939 1.388 . S
C5941 C5942 1.366 . S
C5942 C5941 1.366 . S
C5942 C5943 1.414 . S
C5942 C5945 1.499 . S
C5943 H5917 0.950 . S
C5943 C5942 1.414 . S
C5943 C5944 1.374 . S
C5944 H5918 0.950 . S
C5944 C5940 1.385 . S
C5944 C5943 1.374 . S
C5945 C5942 1.499 . S
C5945 C5946 1.373 . S
C5945 C5947 1.389 . S
C5946 H5919 0.950 . S
C5946 C5932 1.377 . S
C5946 C5945 1.373 . S
C5947 C5931 1.377 . S
C5947 C5945 1.389 . S
C5947 C5948 1.524 . S
C5948 C5947 1.524 . S
C5948 C5949 1.397 . S
C5948 C5953 1.363 . S
C5949 H5920 0.950 . S
C5949 C5948 1.397 . S
C5949 C5950 1.334 . S
C5950 H5921 0.950 . S
C5950 C5949 1.334 . S
C5950 C5951 1.287 . S
C5951 C5950 1.287 . S
C5951 C5952 1.524 . S
C5951 H5954 0.999 . S
C5952 H5922 0.950 . S
C5952 C5951 1.524 . S
C5952 C5953 1.415 . S
C5953 H5923 0.950 . S
C5953 C5948 1.363 . S
C5953 C5952 1.415 . S
H5954 C5951 0.999 . S
H5955 C5936 0.913 . S
H5956 C5974 0.951 . S
H5957 C5976 0.951 . S
H5958 C5978 0.950 . S
H5959 C5979 0.950 . S
H5960 C5981 0.950 1_655 S
H5961 C5984 0.950 . S
H5962 C5985 0.950 . S
H5963 C5987 0.950 . S
H5964 C5988 0.950 . S
H5965 C5989 0.951 1_655 S
H5966 C5991 0.950 1_655 S
H5967 C5993 0.950 . S
H5968 C5994 0.950 . S
H5969 C5996 0.950 . S
H5970 C5999 0.950 . S
H5971 C6000 0.980 . S
H5972 C6002 0.950 . S
H5973 C6003 0.950 . S
C5974 H5956 0.951 . S
C5974 C5975 1.366 . S
C5974 C5976 1.388 . S
C5975 C5974 1.366 . S
C5975 C5979 1.385 1_455 S
C5976 H5957 0.951 . S
C5976 C5974 1.388 . S
C5976 C5977 1.366 . S
C5977 C5976 1.366 . S
C5977 C5978 1.414 1_455 S
C5977 C5980 1.499 . S
C5978 H5958 0.950 . S
C5978 C5977 1.414 1_655 S
C5978 C5979 1.374 . S
C5979 H5959 0.950 . S
C5979 C5975 1.385 1_655 S
C5979 C5978 1.374 . S
C5980 C5977 1.499 . S
C5980 C5981 1.373 . S
C5980 C5982 1.389 1_556 S
C5981 H5960 0.950 1_455 S
C5981 C5980 1.373 . S
C5981 C5997 1.377 . S
C5982 C5980 1.389 1_554 S
C5982 C5983 1.524 . S
C5982 C5996 1.377 . S
C5983 C5982 1.524 . S
C5983 C5984 1.397 . S
C5983 C5988 1.363 . S
C5984 H5961 0.950 . S
C5984 C5983 1.397 . S
C5984 C5985 1.334 . S
C5985 H5962 0.950 . S
C5985 C5984 1.334 . S
C5985 C5986 1.287 . S
C5986 C5985 1.287 . S
C5986 C5987 1.524 . S
C5986 H6005 0.913 . S
C5987 H5963 0.950 . S
C5987 C5986 1.524 . S
C5987 C5988 1.415 . S
C5988 H5964 0.950 . S
C5988 C5983 1.363 . S
C5988 C5987 1.415 . S
C5989 H5965 0.951 1_455 S
C5989 C5990 1.366 . S
C5989 C5991 1.388 . S
C5990 C5989 1.366 . S
C5990 C5994 1.385 . S
C5991 H5966 0.950 1_455 S
C5991 C5989 1.388 . S
C5991 C5992 1.366 . S
C5992 C5991 1.366 . S
C5992 C5993 1.414 . S
C5992 C5995 1.499 1_554 S
C5993 H5967 0.950 . S
C5993 C5992 1.414 . S
C5993 C5994 1.374 . S
C5994 H5968 0.950 . S
C5994 C5990 1.385 . S
C5994 C5993 1.374 . S
C5995 C5992 1.499 1_556 S
C5995 C5996 1.373 1_556 S
C5995 C5997 1.389 . S
C5996 H5969 0.950 . S
C5996 C5982 1.377 . S
C5996 C5995 1.373 1_554 S
C5997 C5981 1.377 . S
C5997 C5995 1.389 . S
C5997 C5998 1.524 1_455 S
C5998 C5997 1.524 1_655 S
C5998 C5999 1.397 1_655 S
C5998 C6003 1.363 . S
C5999 H5970 0.950 . S
C5999 C5998 1.397 1_455 S
C5999 C6000 1.334 1_455 S
C6000 H5971 0.980 . S
C6000 C5999 1.334 1_655 S
C6000 C6001 1.287 . S
C6001 C6000 1.287 . S
C6001 C6002 1.524 . S
C6001 H6004 0.999 . S
C6002 H5972 0.950 . S
C6002 C6001 1.524 . S
C6002 C6003 1.415 . S
C6003 H5973 0.950 . S
C6003 C5998 1.363 . S
C6003 C6002 1.415 . S
H6004 C6001 0.999 . S
H6005 C5986 0.913 . S
H6006 C6024 0.951 . S
H6007 C6026 0.951 . S
H6008 C6028 0.950 . S
H6009 C6029 0.950 . S
H6010 C6031 0.950 . S
H6011 C6034 0.950 . S
H6012 C6035 0.950 . S
H6013 C6037 0.950 . S
H6014 C6038 0.950 . S
H6015 C6039 0.951 . S
H6016 C6041 0.951 . S
H6017 C6043 0.950 . S
H6018 C6044 0.950 . S
H6019 C6046 0.950 . S
H6020 C6049 0.950 . S
H6021 C6050 0.950 . S
H6022 C6052 0.950 . S
H6023 C6053 0.950 . S
C6024 H6006 0.951 . S
C6024 C6025 1.366 . S
C6024 C6026 1.388 . S
C6025 C6024 1.366 . S
C6025 C6029 1.385 . S
C6026 H6007 0.951 . S
C6026 C6024 1.388 . S
C6026 C6027 1.366 . S
C6027 C6026 1.366 . S
C6027 C6028 1.414 . S
C6027 C6030 1.499 . S
C6028 H6008 0.950 . S
C6028 C6027 1.414 . S
C6028 C6029 1.374 . S
C6029 H6009 0.950 . S
C6029 C6025 1.385 . S
C6029 C6028 1.374 . S
C6030 C6027 1.499 . S
C6030 C6031 1.373 . S
C6030 C6032 1.389 . S
C6031 H6010 0.950 . S
C6031 C6030 1.373 . S
C6031 C6047 1.377 . S
C6032 C6030 1.389 . S
C6032 C6033 1.524 . S
C6032 C6046 1.377 . S
C6033 C6032 1.524 . S
C6033 C6034 1.397 . S
C6033 C6038 1.363 . S
C6034 H6011 0.950 . S
C6034 C6033 1.397 . S
C6034 C6035 1.334 . S
C6035 H6012 0.950 . S
C6035 C6034 1.334 . S
C6035 C6036 1.287 . S
C6036 C6035 1.287 . S
C6036 C6037 1.524 . S
C6036 H6055 0.913 . S
C6037 H6013 0.950 . S
C6037 C6036 1.524 . S
C6037 C6038 1.415 . S
C6038 H6014 0.950 . S
C6038 C6033 1.363 . S
C6038 C6037 1.415 . S
C6039 H6015 0.951 . S
C6039 C6040 1.366 . S
C6039 C6041 1.388 . S
C6040 C6039 1.366 . S
C6040 C6044 1.385 . S
C6041 H6016 0.951 . S
C6041 C6039 1.388 . S
C6041 C6042 1.366 . S
C6042 C6041 1.366 . S
C6042 C6043 1.414 . S
C6042 C6045 1.499 . S
C6043 H6017 0.950 . S
C6043 C6042 1.414 . S
C6043 C6044 1.374 . S
C6044 H6018 0.950 . S
C6044 C6040 1.385 . S
C6044 C6043 1.374 . S
C6045 C6042 1.499 . S
C6045 C6046 1.373 . S
C6045 C6047 1.389 . S
C6046 H6019 0.950 . S
C6046 C6032 1.377 . S
C6046 C6045 1.373 . S
C6047 C6031 1.377 . S
C6047 C6045 1.389 . S
C6047 C6048 1.524 . S
C6048 C6047 1.524 . S
C6048 C6049 1.397 . S
C6048 C6053 1.363 . S
C6049 H6020 0.950 . S
C6049 C6048 1.397 . S
C6049 C6050 1.334 . S
C6050 H6021 0.950 . S
C6050 C6049 1.334 . S
C6050 C6051 1.287 . S
C6051 C6050 1.287 . S
C6051 C6052 1.524 . S
C6051 H6054 0.999 . S
C6052 H6022 0.950 . S
C6052 C6051 1.524 . S
C6052 C6053 1.415 . S
C6053 H6023 0.950 . S
C6053 C6048 1.363 . S
C6053 C6052 1.415 . S
H6054 C6051 0.999 . S
H6055 C6036 0.913 . S
H6056 C6074 0.951 . S
H6057 C6076 0.951 . S
H6058 C6078 0.950 . S
H6059 C6079 0.950 . S
H6060 C6081 0.950 . S
H6061 C6084 0.950 . S
H6062 C6085 0.950 . S
H6063 C6087 0.950 . S
H6064 C6088 0.950 . S
H6065 C6089 0.951 . S
H6066 C6091 0.951 . S
H6067 C6093 0.950 . S
H6068 C6094 0.950 . S
H6069 C6096 0.950 . S
H6070 C6099 0.950 . S
H6071 C6100 0.950 . S
H6072 C6102 0.950 . S
H6073 C6103 0.950 . S
C6074 H6056 0.951 . S
C6074 C6075 1.366 . S
C6074 C6076 1.388 . S
C6075 C6074 1.366 . S
C6075 C6079 1.385 . S
C6076 H6057 0.951 . S
C6076 C6074 1.388 . S
C6076 C6077 1.366 . S
C6077 C6076 1.366 . S
C6077 C6078 1.414 . S
C6077 C6080 1.499 . S
C6078 H6058 0.950 . S
C6078 C6077 1.414 . S
C6078 C6079 1.374 . S
C6079 H6059 0.950 . S
C6079 C6075 1.385 . S
C6079 C6078 1.374 . S
C6080 C6077 1.499 . S
C6080 C6081 1.373 . S
C6080 C6082 1.389 . S
C6081 H6060 0.950 . S
C6081 C6080 1.373 . S
C6081 C6097 1.377 . S
C6082 C6080 1.389 . S
C6082 C6083 1.524 . S
C6082 C6096 1.377 . S
C6083 C6082 1.524 . S
C6083 C6084 1.397 . S
C6083 C6088 1.363 . S
C6084 H6061 0.950 . S
C6084 C6083 1.397 . S
C6084 C6085 1.334 . S
C6085 H6062 0.950 . S
C6085 C6084 1.334 . S
C6085 C6086 1.287 . S
C6086 C6085 1.287 . S
C6086 C6087 1.524 . S
C6086 H6105 0.913 . S
C6087 H6063 0.950 . S
C6087 C6086 1.524 . S
C6087 C6088 1.415 . S
C6088 H6064 0.950 . S
C6088 C6083 1.363 . S
C6088 C6087 1.415 . S
C6089 H6065 0.951 . S
C6089 C6090 1.366 . S
C6089 C6091 1.388 . S
C6090 C6089 1.366 . S
C6090 C6094 1.385 . S
C6091 H6066 0.951 . S
C6091 C6089 1.388 . S
C6091 C6092 1.366 . S
C6092 C6091 1.366 . S
C6092 C6093 1.414 . S
C6092 C6095 1.499 . S
C6093 H6067 0.950 . S
C6093 C6092 1.414 . S
C6093 C6094 1.374 . S
C6094 H6068 0.950 . S
C6094 C6090 1.385 . S
C6094 C6093 1.374 . S
C6095 C6092 1.499 . S
C6095 C6096 1.373 . S
C6095 C6097 1.389 . S
C6096 H6069 0.950 . S
C6096 C6082 1.377 . S
C6096 C6095 1.373 . S
C6097 C6081 1.377 . S
C6097 C6095 1.389 . S
C6097 C6098 1.524 . S
C6098 C6097 1.524 . S
C6098 C6099 1.397 . S
C6098 C6103 1.363 . S
C6099 H6070 0.950 . S
C6099 C6098 1.397 . S
C6099 C6100 1.334 . S
C6100 H6071 0.950 . S
C6100 C6099 1.334 . S
C6100 C6101 1.287 . S
C6101 C6100 1.287 . S
C6101 C6102 1.524 . S
C6101 H6104 0.999 . S
C6102 H6072 0.950 . S
C6102 C6101 1.524 . S
C6102 C6103 1.415 . S
C6103 H6073 0.950 . S
C6103 C6098 1.363 . S
C6103 C6102 1.415 . S
H6104 C6101 0.999 . S
H6105 C6086 0.913 . S
H6106 C6124 0.951 . S
H6107 C6126 0.951 . S
H6108 C6128 0.950 . S
H6109 C6129 0.950 . S
H6110 C6131 0.950 . S
H6111 C6134 0.950 . S
H6112 C6135 0.950 . S
H6113 C6137 0.950 . S
H6114 C6138 0.950 . S
H6115 C6139 0.951 . S
H6116 C6141 0.951 . S
H6117 C6143 0.950 . S
H6118 C6144 0.950 . S
H6119 C6146 0.950 . S
H6120 C6149 0.950 . S
H6121 C6150 0.950 . S
H6122 C6152 0.950 . S
H6123 C6153 0.950 . S
C6124 H6106 0.951 . S
C6124 C6125 1.366 . S
C6124 C6126 1.388 . S
C6125 C6124 1.366 . S
C6125 C6129 1.385 . S
C6126 H6107 0.951 . S
C6126 C6124 1.388 . S
C6126 C6127 1.366 . S
C6127 C6126 1.366 . S
C6127 C6128 1.414 . S
C6127 C6130 1.499 . S
C6128 H6108 0.950 . S
C6128 C6127 1.414 . S
C6128 C6129 1.374 . S
C6129 H6109 0.950 . S
C6129 C6125 1.385 . S
C6129 C6128 1.374 . S
C6130 C6127 1.499 . S
C6130 C6131 1.373 . S
C6130 C6132 1.389 . S
C6131 H6110 0.950 . S
C6131 C6130 1.373 . S
C6131 C6147 1.377 . S
C6132 C6130 1.389 . S
C6132 C6133 1.524 . S
C6132 C6146 1.377 . S
C6133 C6132 1.524 . S
C6133 C6134 1.397 . S
C6133 C6138 1.363 . S
C6134 H6111 0.950 . S
C6134 C6133 1.397 . S
C6134 C6135 1.334 . S
C6135 H6112 0.950 . S
C6135 C6134 1.334 . S
C6135 C6136 1.287 . S
C6136 C6135 1.287 . S
C6136 C6137 1.524 . S
C6136 H6155 0.913 . S
C6137 H6113 0.950 . S
C6137 C6136 1.524 . S
C6137 C6138 1.415 . S
C6138 H6114 0.950 . S
C6138 C6133 1.363 . S
C6138 C6137 1.415 . S
C6139 H6115 0.951 . S
C6139 C6140 1.366 . S
C6139 C6141 1.388 . S
C6140 C6139 1.366 . S
C6140 C6144 1.385 . S
C6141 H6116 0.951 . S
C6141 C6139 1.388 . S
C6141 C6142 1.366 . S
C6142 C6141 1.366 . S
C6142 C6143 1.414 . S
C6142 C6145 1.499 . S
C6143 H6117 0.950 . S
C6143 C6142 1.414 . S
C6143 C6144 1.374 . S
C6144 H6118 0.950 . S
C6144 C6140 1.385 . S
C6144 C6143 1.374 . S
C6145 C6142 1.499 . S
C6145 C6146 1.373 . S
C6145 C6147 1.389 . S
C6146 H6119 0.950 . S
C6146 C6132 1.377 . S
C6146 C6145 1.373 . S
C6147 C6131 1.377 . S
C6147 C6145 1.389 . S
C6147 C6148 1.524 . S
C6148 C6147 1.524 . S
C6148 C6149 1.397 . S
C6148 C6153 1.363 . S
C6149 H6120 0.950 . S
C6149 C6148 1.397 . S
C6149 C6150 1.334 . S
C6150 H6121 0.950 . S
C6150 C6149 1.334 . S
C6150 C6151 1.287 . S
C6151 C6150 1.287 . S
C6151 C6152 1.524 . S
C6151 H6154 0.999 . S
C6152 H6122 0.950 . S
C6152 C6151 1.524 . S
C6152 C6153 1.415 . S
C6153 H6123 0.950 . S
C6153 C6148 1.363 . S
C6153 C6152 1.415 . S
H6154 C6151 0.999 . S
H6155 C6136 0.913 . S
H6156 C6174 0.951 . S
H6157 C6176 0.951 . S
H6158 C6178 0.950 . S
H6159 C6179 0.950 . S
H6160 C6181 0.950 . S
H6161 C6184 0.950 . S
H6162 C6185 0.950 . S
H6163 C6187 0.950 . S
H6164 C6188 0.950 . S
H6165 C6189 0.951 1_655 S
H6166 C6191 0.980 . S
H6167 C6193 0.950 . S
H6168 C6194 0.950 . S
H6169 C6196 0.950 . S
H6170 C6199 0.950 1_455 S
H6171 C6200 0.950 . S
H6172 C6202 0.950 . S
H6173 C6203 0.950 . S
C6174 H6156 0.951 . S
C6174 C6175 1.366 . S
C6174 C6176 1.388 . S
C6175 C6174 1.366 . S
C6175 C6179 1.385 1_455 S
C6176 H6157 0.951 . S
C6176 C6174 1.388 . S
C6176 C6177 1.366 . S
C6177 C6176 1.366 . S
C6177 C6178 1.414 1_455 S
C6177 C6180 1.499 . S
C6178 H6158 0.950 . S
C6178 C6177 1.414 1_655 S
C6178 C6179 1.374 . S
C6179 H6159 0.950 . S
C6179 C6175 1.385 1_655 S
C6179 C6178 1.374 . S
C6180 C6177 1.499 . S
C6180 C6181 1.373 1_455 S
C6180 C6182 1.389 . S
C6181 H6160 0.950 . S
C6181 C6180 1.373 1_655 S
C6181 C6197 1.377 . S
C6182 C6180 1.389 . S
C6182 C6183 1.524 . S
C6182 C6196 1.377 . S
C6183 C6182 1.524 . S
C6183 C6184 1.397 . S
C6183 C6188 1.363 . S
C6184 H6161 0.950 . S
C6184 C6183 1.397 . S
C6184 C6185 1.334 . S
C6185 H6162 0.950 . S
C6185 C6184 1.334 . S
C6185 C6186 1.287 . S
C6186 C6185 1.287 . S
C6186 C6187 1.524 . S
C6186 H6205 0.913 . S
C6187 H6163 0.950 . S
C6187 C6186 1.524 . S
C6187 C6188 1.415 . S
C6188 H6164 0.950 . S
C6188 C6183 1.363 . S
C6188 C6187 1.415 . S
C6189 H6165 0.951 1_455 S
C6189 C6190 1.366 . S
C6189 C6191 1.378 1_455 S
C6190 C6189 1.366 . S
C6190 C6194 1.385 . S
C6191 H6166 0.980 . S
C6191 C6189 1.378 1_655 S
C6191 C6192 1.346 1_655 S
C6192 C6191 1.346 1_455 S
C6192 C6193 1.414 . S
C6192 C6195 1.499 . S
C6193 H6167 0.950 . S
C6193 C6192 1.414 . S
C6193 C6194 1.374 . S
C6194 H6168 0.950 . S
C6194 C6190 1.385 . S
C6194 C6193 1.374 . S
C6195 C6192 1.499 . S
C6195 C6196 1.373 . S
C6195 C6197 1.389 1_455 S
C6196 H6169 0.950 . S
C6196 C6182 1.377 . S
C6196 C6195 1.373 . S
C6197 C6181 1.377 . S
C6197 C6195 1.389 1_655 S
C6197 C6198 1.524 . S
C6198 C6197 1.524 . S
C6198 C6199 1.397 . S
C6198 C6203 1.363 . S
C6199 H6170 0.950 1_655 S
C6199 C6198 1.397 . S
C6199 C6200 1.334 . S
C6200 H6171 0.950 . S
C6200 C6199 1.334 . S
C6200 C6201 1.287 . S
C6201 C6200 1.287 . S
C6201 C6202 1.524 . S
C6201 H6204 0.999 . S
C6202 H6172 0.950 . S
C6202 C6201 1.524 . S
C6202 C6203 1.415 . S
C6203 H6173 0.950 . S
C6203 C6198 1.363 . S
C6203 C6202 1.415 . S
H6204 C6201 0.999 . S
H6205 C6186 0.913 . S
H6206 C6224 0.951 . S
H6207 C6226 0.951 . S
H6208 C6228 0.950 . S
H6209 C6229 0.950 . S
H6210 C6231 0.950 . S
H6211 C6234 0.950 . S
H6212 C6235 0.950 . S
H6213 C6237 0.950 . S
H6214 C6238 0.950 . S
H6215 C6239 0.951 . S
H6216 C6241 0.951 . S
H6217 C6243 0.950 . S
H6218 C6244 0.950 . S
H6219 C6246 0.950 . S
H6220 C6249 0.950 . S
H6221 C6250 0.950 . S
H6222 C6252 0.950 . S
H6223 C6253 0.950 . S
C6224 H6206 0.951 . S
C6224 C6225 1.366 . S
C6224 C6226 1.388 . S
C6225 C6224 1.366 . S
C6225 C6229 1.385 . S
C6226 H6207 0.951 . S
C6226 C6224 1.388 . S
C6226 C6227 1.366 . S
C6227 C6226 1.366 . S
C6227 C6228 1.414 . S
C6227 C6230 1.499 . S
C6228 H6208 0.950 . S
C6228 C6227 1.414 . S
C6228 C6229 1.374 . S
C6229 H6209 0.950 . S
C6229 C6225 1.385 . S
C6229 C6228 1.374 . S
C6230 C6227 1.499 . S
C6230 C6231 1.373 . S
C6230 C6232 1.389 . S
C6231 H6210 0.950 . S
C6231 C6230 1.373 . S
C6231 C6247 1.377 . S
C6232 C6230 1.389 . S
C6232 C6233 1.524 . S
C6232 C6246 1.377 . S
C6233 C6232 1.524 . S
C6233 C6234 1.397 . S
C6233 C6238 1.363 . S
C6234 H6211 0.950 . S
C6234 C6233 1.397 . S
C6234 C6235 1.334 . S
C6235 H6212 0.950 . S
C6235 C6234 1.334 . S
C6235 C6236 1.287 . S
C6236 C6235 1.287 . S
C6236 C6237 1.524 . S
C6236 H6255 0.913 . S
C6237 H6213 0.950 . S
C6237 C6236 1.524 . S
C6237 C6238 1.415 . S
C6238 H6214 0.950 . S
C6238 C6233 1.363 . S
C6238 C6237 1.415 . S
C6239 H6215 0.951 . S
C6239 C6240 1.366 . S
C6239 C6241 1.388 . S
C6240 C6239 1.366 . S
C6240 C6244 1.385 . S
C6241 H6216 0.951 . S
C6241 C6239 1.388 . S
C6241 C6242 1.366 . S
C6242 C6241 1.366 . S
C6242 C6243 1.414 . S
C6242 C6245 1.499 . S
C6243 H6217 0.950 . S
C6243 C6242 1.414 . S
C6243 C6244 1.374 . S
C6244 H6218 0.950 . S
C6244 C6240 1.385 . S
C6244 C6243 1.374 . S
C6245 C6242 1.499 . S
C6245 C6246 1.373 . S
C6245 C6247 1.389 . S
C6246 H6219 0.950 . S
C6246 C6232 1.377 . S
C6246 C6245 1.373 . S
C6247 C6231 1.377 . S
C6247 C6245 1.389 . S
C6247 C6248 1.524 . S
C6248 C6247 1.524 . S
C6248 C6249 1.397 . S
C6248 C6253 1.363 . S
C6249 H6220 0.950 . S
C6249 C6248 1.397 . S
C6249 C6250 1.334 . S
C6250 H6221 0.950 . S
C6250 C6249 1.334 . S
C6250 C6251 1.287 . S
C6251 C6250 1.287 . S
C6251 C6252 1.524 . S
C6251 H6254 0.999 . S
C6252 H6222 0.950 . S
C6252 C6251 1.524 . S
C6252 C6253 1.415 . S
C6253 H6223 0.950 . S
C6253 C6248 1.363 . S
C6253 C6252 1.415 . S
H6254 C6251 0.999 . S
H6255 C6236 0.913 . S
H6256 C6274 0.951 . S
H6257 C6276 0.951 . S
H6258 C6278 0.950 . S
H6259 C6279 0.950 . S
H6260 C6281 0.950 . S
H6261 C6284 0.950 . S
H6262 C6285 0.950 . S
H6263 C6287 0.950 . S
H6264 C6288 0.950 . S
H6265 C6289 0.951 . S
H6266 C6291 0.951 . S
H6267 C6293 0.950 . S
H6268 C6294 0.950 . S
H6269 C6296 0.950 . S
H6270 C6299 0.950 . S
H6271 C6300 0.950 . S
H6272 C6302 0.950 . S
H6273 C6303 0.950 . S
C6274 H6256 0.951 . S
C6274 C6275 1.366 . S
C6274 C6276 1.388 . S
C6275 C6274 1.366 . S
C6275 C6279 1.385 . S
C6276 H6257 0.951 . S
C6276 C6274 1.388 . S
C6276 C6277 1.366 . S
C6277 C6276 1.366 . S
C6277 C6278 1.414 . S
C6277 C6280 1.499 . S
C6278 H6258 0.950 . S
C6278 C6277 1.414 . S
C6278 C6279 1.374 . S
C6279 H6259 0.950 . S
C6279 C6275 1.385 . S
C6279 C6278 1.374 . S
C6280 C6277 1.499 . S
C6280 C6281 1.373 . S
C6280 C6282 1.389 . S
C6281 H6260 0.950 . S
C6281 C6280 1.373 . S
C6281 C6297 1.377 . S
C6282 C6280 1.389 . S
C6282 C6283 1.524 . S
C6282 C6296 1.377 . S
C6283 C6282 1.524 . S
C6283 C6284 1.397 . S
C6283 C6288 1.363 . S
C6284 H6261 0.950 . S
C6284 C6283 1.397 . S
C6284 C6285 1.334 . S
C6285 H6262 0.950 . S
C6285 C6284 1.334 . S
C6285 C6286 1.287 . S
C6286 C6285 1.287 . S
C6286 C6287 1.524 . S
C6286 H6305 0.913 . S
C6287 H6263 0.950 . S
C6287 C6286 1.524 . S
C6287 C6288 1.415 . S
C6288 H6264 0.950 . S
C6288 C6283 1.363 . S
C6288 C6287 1.415 . S
C6289 H6265 0.951 . S
C6289 C6290 1.366 . S
C6289 C6291 1.388 . S
C6290 C6289 1.366 . S
C6290 C6294 1.385 . S
C6291 H6266 0.951 . S
C6291 C6289 1.388 . S
C6291 C6292 1.366 . S
C6292 C6291 1.366 . S
C6292 C6293 1.414 . S
C6292 C6295 1.499 . S
C6293 H6267 0.950 . S
C6293 C6292 1.414 . S
C6293 C6294 1.374 . S
C6294 H6268 0.950 . S
C6294 C6290 1.385 . S
C6294 C6293 1.374 . S
C6295 C6292 1.499 . S
C6295 C6296 1.373 . S
C6295 C6297 1.389 . S
C6296 H6269 0.950 . S
C6296 C6282 1.377 . S
C6296 C6295 1.373 . S
C6297 C6281 1.377 . S
C6297 C6295 1.389 . S
C6297 C6298 1.524 . S
C6298 C6297 1.524 . S
C6298 C6299 1.397 . S
C6298 C6303 1.363 . S
C6299 H6270 0.950 . S
C6299 C6298 1.397 . S
C6299 C6300 1.334 . S
C6300 H6271 0.950 . S
C6300 C6299 1.334 . S
C6300 C6301 1.287 . S
C6301 C6300 1.287 . S
C6301 C6302 1.524 . S
C6301 H6304 0.999 . S
C6302 H6272 0.950 . S
C6302 C6301 1.524 . S
C6302 C6303 1.415 . S
C6303 H6273 0.950 . S
C6303 C6298 1.363 . S
C6303 C6302 1.415 . S
H6304 C6301 0.999 . S
H6305 C6286 0.913 . S
H6306 C6324 0.951 . S
H6307 C6326 0.951 . S
H6308 C6328 0.950 . S
H6309 C6329 0.950 . S
H6310 C6331 0.950 . S
H6311 C6334 0.950 . S
H6312 C6335 0.950 . S
H6313 C6337 0.950 . S
H6314 C6338 0.950 . S
H6315 C6339 0.951 . S
H6316 C6341 0.951 . S
H6317 C6343 0.950 . S
H6318 C6344 0.950 . S
H6319 C6346 0.950 . S
H6320 C6349 0.950 . S
H6321 C6350 0.950 . S
H6322 C6352 0.950 . S
H6323 C6353 0.950 . S
C6324 H6306 0.951 . S
C6324 C6325 1.366 . S
C6324 C6326 1.388 . S
C6325 C6324 1.366 . S
C6325 C6329 1.385 . S
C6326 H6307 0.951 . S
C6326 C6324 1.388 . S
C6326 C6327 1.366 . S
C6327 C6326 1.366 . S
C6327 C6328 1.414 . S
C6327 C6330 1.499 . S
C6328 H6308 0.950 . S
C6328 C6327 1.414 . S
C6328 C6329 1.374 . S
C6329 H6309 0.950 . S
C6329 C6325 1.385 . S
C6329 C6328 1.374 . S
C6330 C6327 1.499 . S
C6330 C6331 1.373 . S
C6330 C6332 1.389 . S
C6331 H6310 0.950 . S
C6331 C6330 1.373 . S
C6331 C6347 1.377 . S
C6332 C6330 1.389 . S
C6332 C6333 1.524 . S
C6332 C6346 1.377 . S
C6333 C6332 1.524 . S
C6333 C6334 1.397 . S
C6333 C6338 1.363 . S
C6334 H6311 0.950 . S
C6334 C6333 1.397 . S
C6334 C6335 1.334 . S
C6335 H6312 0.950 . S
C6335 C6334 1.334 . S
C6335 C6336 1.287 . S
C6336 C6335 1.287 . S
C6336 C6337 1.524 . S
C6336 H6355 0.913 . S
C6337 H6313 0.950 . S
C6337 C6336 1.524 . S
C6337 C6338 1.415 . S
C6338 H6314 0.950 . S
C6338 C6333 1.363 . S
C6338 C6337 1.415 . S
C6339 H6315 0.951 . S
C6339 C6340 1.366 . S
C6339 C6341 1.388 . S
C6340 C6339 1.366 . S
C6340 C6344 1.385 . S
C6341 H6316 0.951 . S
C6341 C6339 1.388 . S
C6341 C6342 1.366 . S
C6342 C6341 1.366 . S
C6342 C6343 1.414 . S
C6342 C6345 1.499 . S
C6343 H6317 0.950 . S
C6343 C6342 1.414 . S
C6343 C6344 1.374 . S
C6344 H6318 0.950 . S
C6344 C6340 1.385 . S
C6344 C6343 1.374 . S
C6345 C6342 1.499 . S
C6345 C6346 1.373 . S
C6345 C6347 1.389 . S
C6346 H6319 0.950 . S
C6346 C6332 1.377 . S
C6346 C6345 1.373 . S
C6347 C6331 1.377 . S
C6347 C6345 1.389 . S
C6347 C6348 1.524 . S
C6348 C6347 1.524 . S
C6348 C6349 1.397 . S
C6348 C6353 1.363 . S
C6349 H6320 0.950 . S
C6349 C6348 1.397 . S
C6349 C6350 1.334 . S
C6350 H6321 0.950 . S
C6350 C6349 1.334 . S
C6350 C6351 1.287 . S
C6351 C6350 1.287 . S
C6351 C6352 1.524 . S
C6351 H6354 0.999 . S
C6352 H6322 0.950 . S
C6352 C6351 1.524 . S
C6352 C6353 1.415 . S
C6353 H6323 0.950 . S
C6353 C6348 1.363 . S
C6353 C6352 1.415 . S
H6354 C6351 0.999 . S
H6355 C6336 0.913 . S
H6356 C6374 0.951 . S
H6357 C6376 0.951 . S
H6358 C6378 0.950 . S
H6359 C6379 0.950 . S
H6360 C6381 0.950 . S
H6361 C6384 0.950 . S
H6362 C6385 0.950 . S
H6363 C6387 0.950 . S
H6364 C6388 0.950 . S
H6365 C6389 0.951 . S
H6366 C6391 0.951 . S
H6367 C6393 0.950 . S
H6368 C6394 0.950 . S
H6369 C6396 0.950 . S
H6370 C6399 0.950 . S
H6371 C6400 0.950 . S
H6372 C6402 0.950 . S
H6373 C6403 0.950 . S
C6374 H6356 0.951 . S
C6374 C6375 1.366 . S
C6374 C6376 1.388 . S
C6375 C6374 1.366 . S
C6375 C6379 1.385 . S
C6376 H6357 0.951 . S
C6376 C6374 1.388 . S
C6376 C6377 1.366 . S
C6377 C6376 1.366 . S
C6377 C6378 1.414 . S
C6377 C6380 1.499 . S
C6378 H6358 0.950 . S
C6378 C6377 1.414 . S
C6378 C6379 1.374 . S
C6379 H6359 0.950 . S
C6379 C6375 1.385 . S
C6379 C6378 1.374 . S
C6380 C6377 1.499 . S
C6380 C6381 1.373 . S
C6380 C6382 1.389 . S
C6381 H6360 0.950 . S
C6381 C6380 1.373 . S
C6381 C6397 1.377 . S
C6382 C6380 1.389 . S
C6382 C6383 1.524 . S
C6382 C6396 1.377 . S
C6383 C6382 1.524 . S
C6383 C6384 1.397 . S
C6383 C6388 1.363 . S
C6384 H6361 0.950 . S
C6384 C6383 1.397 . S
C6384 C6385 1.334 . S
C6385 H6362 0.950 . S
C6385 C6384 1.334 . S
C6385 C6386 1.287 . S
C6386 C6385 1.287 . S
C6386 C6387 1.524 . S
C6386 H6405 0.913 . S
C6387 H6363 0.950 . S
C6387 C6386 1.524 . S
C6387 C6388 1.415 . S
C6388 H6364 0.950 . S
C6388 C6383 1.363 . S
C6388 C6387 1.415 . S
C6389 H6365 0.951 . S
C6389 C6390 1.366 . S
C6389 C6391 1.388 . S
C6390 C6389 1.366 . S
C6390 C6394 1.385 . S
C6391 H6366 0.951 . S
C6391 C6389 1.388 . S
C6391 C6392 1.366 . S
C6392 C6391 1.366 . S
C6392 C6393 1.414 . S
C6392 C6395 1.499 . S
C6393 H6367 0.950 . S
C6393 C6392 1.414 . S
C6393 C6394 1.374 . S
C6394 H6368 0.950 . S
C6394 C6390 1.385 . S
C6394 C6393 1.374 . S
C6395 C6392 1.499 . S
C6395 C6396 1.373 . S
C6395 C6397 1.389 . S
C6396 H6369 0.950 . S
C6396 C6382 1.377 . S
C6396 C6395 1.373 . S
C6397 C6381 1.377 . S
C6397 C6395 1.389 . S
C6397 C6398 1.524 . S
C6398 C6397 1.524 . S
C6398 C6399 1.397 . S
C6398 C6403 1.363 . S
C6399 H6370 0.950 . S
C6399 C6398 1.397 . S
C6399 C6400 1.334 . S
C6400 H6371 0.950 . S
C6400 C6399 1.334 . S
C6400 C6401 1.287 . S
C6401 C6400 1.287 . S
C6401 C6402 1.524 . S
C6401 H6404 0.999 . S
C6402 H6372 0.950 . S
C6402 C6401 1.524 . S
C6402 C6403 1.415 . S
C6403 H6373 0.950 . S
C6403 C6398 1.363 . S
C6403 C6402 1.415 . S
H6404 C6401 0.999 . S
H6405 C6386 0.913 . S
H6406 C6424 0.951 . S
H6407 C6426 0.951 . S
H6408 C6428 0.950 . S
H6409 C6429 0.950 . S
H6410 C6431 0.950 . S
H6411 C6434 0.950 . S
H6412 C6435 0.950 . S
H6413 C6437 0.950 . S
H6414 C6438 0.950 . S
H6415 C6439 0.951 . S
H6416 C6441 0.951 . S
H6417 C6443 0.950 . S
H6418 C6444 0.950 . S
H6419 C6446 0.950 . S
H6420 C6449 0.950 . S
H6421 C6450 0.950 . S
H6422 C6452 0.950 . S
H6423 C6453 0.950 . S
C6424 H6406 0.951 . S
C6424 C6425 1.366 . S
C6424 C6426 1.388 . S
C6425 C6424 1.366 . S
C6425 C6429 1.385 . S
C6426 H6407 0.951 . S
C6426 C6424 1.388 . S
C6426 C6427 1.366 . S
C6427 C6426 1.366 . S
C6427 C6428 1.414 . S
C6427 C6430 1.499 . S
C6428 H6408 0.950 . S
C6428 C6427 1.414 . S
C6428 C6429 1.374 . S
C6429 H6409 0.950 . S
C6429 C6425 1.385 . S
C6429 C6428 1.374 . S
C6430 C6427 1.499 . S
C6430 C6431 1.373 . S
C6430 C6432 1.389 . S
C6431 H6410 0.950 . S
C6431 C6430 1.373 . S
C6431 C6447 1.377 . S
C6432 C6430 1.389 . S
C6432 C6433 1.524 . S
C6432 C6446 1.377 . S
C6433 C6432 1.524 . S
C6433 C6434 1.397 . S
C6433 C6438 1.363 . S
C6434 H6411 0.950 . S
C6434 C6433 1.397 . S
C6434 C6435 1.334 . S
C6435 H6412 0.950 . S
C6435 C6434 1.334 . S
C6435 C6436 1.287 . S
C6436 C6435 1.287 . S
C6436 C6437 1.524 . S
C6436 H6455 0.913 . S
C6437 H6413 0.950 . S
C6437 C6436 1.524 . S
C6437 C6438 1.415 . S
C6438 H6414 0.950 . S
C6438 C6433 1.363 . S
C6438 C6437 1.415 . S
C6439 H6415 0.951 . S
C6439 C6440 1.366 . S
C6439 C6441 1.388 . S
C6440 C6439 1.366 . S
C6440 C6444 1.385 . S
C6441 H6416 0.951 . S
C6441 C6439 1.388 . S
C6441 C6442 1.366 . S
C6442 C6441 1.366 . S
C6442 C6443 1.414 . S
C6442 C6445 1.499 . S
C6443 H6417 0.950 . S
C6443 C6442 1.414 . S
C6443 C6444 1.374 . S
C6444 H6418 0.950 . S
C6444 C6440 1.385 . S
C6444 C6443 1.374 . S
C6445 C6442 1.499 . S
C6445 C6446 1.373 . S
C6445 C6447 1.389 . S
C6446 H6419 0.950 . S
C6446 C6432 1.377 . S
C6446 C6445 1.373 . S
C6447 C6431 1.377 . S
C6447 C6445 1.389 . S
C6447 C6448 1.524 . S
C6448 C6447 1.524 . S
C6448 C6449 1.397 . S
C6448 C6453 1.363 . S
C6449 H6420 0.950 . S
C6449 C6448 1.397 . S
C6449 C6450 1.334 . S
C6450 H6421 0.950 . S
C6450 C6449 1.334 . S
C6450 C6451 1.287 . S
C6451 C6450 1.287 . S
C6451 C6452 1.524 . S
C6451 H6454 0.999 . S
C6452 H6422 0.950 . S
C6452 C6451 1.524 . S
C6452 C6453 1.415 . S
C6453 H6423 0.950 . S
C6453 C6448 1.363 . S
C6453 C6452 1.415 . S
H6454 C6451 0.999 . S
H6455 C6436 0.913 . S
H6456 C6474 0.951 . S
H6457 C6476 0.951 . S
H6458 C6478 0.950 . S
H6459 C6479 0.950 . S
H6460 C6481 0.950 . S
H6461 C6484 0.950 . S
H6462 C6485 0.950 . S
H6463 C6487 0.950 . S
H6464 C6488 0.950 . S
H6465 C6489 0.951 . S
H6466 C6491 0.951 . S
H6467 C6493 0.950 . S
H6468 C6494 0.950 . S
H6469 C6496 0.950 . S
H6470 C6499 0.950 . S
H6471 C6500 0.950 . S
H6472 C6502 0.950 . S
H6473 C6503 0.950 . S
C6474 H6456 0.951 . S
C6474 C6475 1.366 . S
C6474 C6476 1.388 . S
C6475 C6474 1.366 . S
C6475 C6479 1.385 . S
C6476 H6457 0.951 . S
C6476 C6474 1.388 . S
C6476 C6477 1.366 . S
C6477 C6476 1.366 . S
C6477 C6478 1.414 . S
C6477 C6480 1.499 . S
C6478 H6458 0.950 . S
C6478 C6477 1.414 . S
C6478 C6479 1.374 . S
C6479 H6459 0.950 . S
C6479 C6475 1.385 . S
C6479 C6478 1.374 . S
C6480 C6477 1.499 . S
C6480 C6481 1.373 . S
C6480 C6482 1.389 . S
C6481 H6460 0.950 . S
C6481 C6480 1.373 . S
C6481 C6497 1.377 . S
C6482 C6480 1.389 . S
C6482 C6483 1.524 . S
C6482 C6496 1.377 . S
C6483 C6482 1.524 . S
C6483 C6484 1.397 . S
C6483 C6488 1.363 . S
C6484 H6461 0.950 . S
C6484 C6483 1.397 . S
C6484 C6485 1.334 . S
C6485 H6462 0.950 . S
C6485 C6484 1.334 . S
C6485 C6486 1.287 . S
C6486 C6485 1.287 . S
C6486 C6487 1.524 . S
C6486 H6505 0.913 . S
C6487 H6463 0.950 . S
C6487 C6486 1.524 . S
C6487 C6488 1.415 . S
C6488 H6464 0.950 . S
C6488 C6483 1.363 . S
C6488 C6487 1.415 . S
C6489 H6465 0.951 . S
C6489 C6490 1.366 . S
C6489 C6491 1.388 . S
C6490 C6489 1.366 . S
C6490 C6494 1.385 . S
C6491 H6466 0.951 . S
C6491 C6489 1.388 . S
C6491 C6492 1.366 . S
C6492 C6491 1.366 . S
C6492 C6493 1.414 . S
C6492 C6495 1.499 . S
C6493 H6467 0.950 . S
C6493 C6492 1.414 . S
C6493 C6494 1.374 . S
C6494 H6468 0.950 . S
C6494 C6490 1.385 . S
C6494 C6493 1.374 . S
C6495 C6492 1.499 . S
C6495 C6496 1.373 . S
C6495 C6497 1.389 . S
C6496 H6469 0.950 . S
C6496 C6482 1.377 . S
C6496 C6495 1.373 . S
C6497 C6481 1.377 . S
C6497 C6495 1.389 . S
C6497 C6498 1.524 . S
C6498 C6497 1.524 . S
C6498 C6499 1.397 . S
C6498 C6503 1.363 . S
C6499 H6470 0.950 . S
C6499 C6498 1.397 . S
C6499 C6500 1.334 . S
C6500 H6471 0.950 . S
C6500 C6499 1.334 . S
C6500 C6501 1.287 . S
C6501 C6500 1.287 . S
C6501 C6502 1.524 . S
C6501 H6504 0.999 . S
C6502 H6472 0.950 . S
C6502 C6501 1.524 . S
C6502 C6503 1.415 . S
C6503 H6473 0.950 . S
C6503 C6498 1.363 . S
C6503 C6502 1.415 . S
H6504 C6501 0.999 . S
H6505 C6486 0.913 . S
H6506 C6524 0.951 . S
H6507 C6526 0.951 . S
H6508 C6528 0.950 . S
H6509 C6529 0.950 . S
H6510 C6531 0.950 . S
H6511 C6534 0.950 . S
H6512 C6535 0.950 . S
H6513 C6537 0.950 . S
H6514 C6538 0.950 . S
H6515 C6539 0.951 . S
H6516 C6541 0.951 . S
H6517 C6543 0.950 . S
H6518 C6544 0.950 . S
H6519 C6546 0.950 . S
H6520 C6549 0.950 . S
H6521 C6550 0.950 . S
H6522 C6552 0.950 . S
H6523 C6553 0.950 . S
C6524 H6506 0.951 . S
C6524 C6525 1.366 . S
C6524 C6526 1.388 . S
C6525 C6524 1.366 . S
C6525 C6529 1.385 . S
C6526 H6507 0.951 . S
C6526 C6524 1.388 . S
C6526 C6527 1.366 . S
C6527 C6526 1.366 . S
C6527 C6528 1.414 . S
C6527 C6530 1.499 . S
C6528 H6508 0.950 . S
C6528 C6527 1.414 . S
C6528 C6529 1.374 . S
C6529 H6509 0.950 . S
C6529 C6525 1.385 . S
C6529 C6528 1.374 . S
C6530 C6527 1.499 . S
C6530 C6531 1.373 . S
C6530 C6532 1.389 . S
C6531 H6510 0.950 . S
C6531 C6530 1.373 . S
C6531 C6547 1.377 . S
C6532 C6530 1.389 . S
C6532 C6533 1.524 . S
C6532 C6546 1.377 . S
C6533 C6532 1.524 . S
C6533 C6534 1.397 . S
C6533 C6538 1.363 . S
C6534 H6511 0.950 . S
C6534 C6533 1.397 . S
C6534 C6535 1.334 . S
C6535 H6512 0.950 . S
C6535 C6534 1.334 . S
C6535 C6536 1.287 . S
C6536 C6535 1.287 . S
C6536 C6537 1.524 . S
C6536 H6555 0.913 . S
C6537 H6513 0.950 . S
C6537 C6536 1.524 . S
C6537 C6538 1.415 . S
C6538 H6514 0.950 . S
C6538 C6533 1.363 . S
C6538 C6537 1.415 . S
C6539 H6515 0.951 . S
C6539 C6540 1.366 . S
C6539 C6541 1.388 . S
C6540 C6539 1.366 . S
C6540 C6544 1.385 . S
C6541 H6516 0.951 . S
C6541 C6539 1.388 . S
C6541 C6542 1.366 . S
C6542 C6541 1.366 . S
C6542 C6543 1.414 . S
C6542 C6545 1.499 . S
C6543 H6517 0.950 . S
C6543 C6542 1.414 . S
C6543 C6544 1.374 . S
C6544 H6518 0.950 . S
C6544 C6540 1.385 . S
C6544 C6543 1.374 . S
C6545 C6542 1.499 . S
C6545 C6546 1.373 . S
C6545 C6547 1.389 . S
C6546 H6519 0.950 . S
C6546 C6532 1.377 . S
C6546 C6545 1.373 . S
C6547 C6531 1.377 . S
C6547 C6545 1.389 . S
C6547 C6548 1.524 . S
C6548 C6547 1.524 . S
C6548 C6549 1.397 . S
C6548 C6553 1.363 . S
C6549 H6520 0.950 . S
C6549 C6548 1.397 . S
C6549 C6550 1.334 . S
C6550 H6521 0.950 . S
C6550 C6549 1.334 . S
C6550 C6551 1.287 . S
C6551 C6550 1.287 . S
C6551 C6552 1.524 . S
C6551 H6554 0.999 . S
C6552 H6522 0.950 . S
C6552 C6551 1.524 . S
C6552 C6553 1.415 . S
C6553 H6523 0.950 . S
C6553 C6548 1.363 . S
C6553 C6552 1.415 . S
H6554 C6551 0.999 . S
H6555 C6536 0.913 . S
H6556 C6574 0.951 . S
H6557 C6576 0.951 . S
H6558 C6578 0.950 . S
H6559 C6579 0.950 . S
H6560 C6581 0.950 . S
H6561 C6584 0.950 . S
H6562 C6585 0.950 . S
H6563 C6587 0.950 . S
H6564 C6588 0.950 . S
H6565 C6589 0.951 . S
H6566 C6591 0.951 . S
H6567 C6593 0.950 . S
H6568 C6594 0.950 . S
H6569 C6596 0.950 . S
H6570 C6599 0.950 . S
H6571 C6600 0.950 . S
H6572 C6602 0.950 . S
H6573 C6603 0.950 . S
C6574 H6556 0.951 . S
C6574 C6575 1.366 . S
C6574 C6576 1.388 . S
C6575 C6574 1.366 . S
C6575 C6579 1.385 . S
C6576 H6557 0.951 . S
C6576 C6574 1.388 . S
C6576 C6577 1.366 . S
C6577 C6576 1.366 . S
C6577 C6578 1.414 . S
C6577 C6580 1.499 . S
C6578 H6558 0.950 . S
C6578 C6577 1.414 . S
C6578 C6579 1.374 . S
C6579 H6559 0.950 . S
C6579 C6575 1.385 . S
C6579 C6578 1.374 . S
C6580 C6577 1.499 . S
C6580 C6581 1.373 . S
C6580 C6582 1.389 . S
C6581 H6560 0.950 . S
C6581 C6580 1.373 . S
C6581 C6597 1.377 . S
C6582 C6580 1.389 . S
C6582 C6583 1.524 . S
C6582 C6596 1.377 . S
C6583 C6582 1.524 . S
C6583 C6584 1.397 . S
C6583 C6588 1.363 . S
C6584 H6561 0.950 . S
C6584 C6583 1.397 . S
C6584 C6585 1.334 . S
C6585 H6562 0.950 . S
C6585 C6584 1.334 . S
C6585 C6586 1.287 . S
C6586 C6585 1.287 . S
C6586 C6587 1.524 . S
C6586 H6605 0.913 . S
C6587 H6563 0.950 . S
C6587 C6586 1.524 . S
C6587 C6588 1.415 . S
C6588 H6564 0.950 . S
C6588 C6583 1.363 . S
C6588 C6587 1.415 . S
C6589 H6565 0.951 . S
C6589 C6590 1.366 . S
C6589 C6591 1.388 . S
C6590 C6589 1.366 . S
C6590 C6594 1.385 . S
C6591 H6566 0.951 . S
C6591 C6589 1.388 . S
C6591 C6592 1.366 . S
C6592 C6591 1.366 . S
C6592 C6593 1.414 . S
C6592 C6595 1.499 . S
C6593 H6567 0.950 . S
C6593 C6592 1.414 . S
C6593 C6594 1.374 . S
C6594 H6568 0.950 . S
C6594 C6590 1.385 . S
C6594 C6593 1.374 . S
C6595 C6592 1.499 . S
C6595 C6596 1.373 . S
C6595 C6597 1.389 . S
C6596 H6569 0.950 . S
C6596 C6582 1.377 . S
C6596 C6595 1.373 . S
C6597 C6581 1.377 . S
C6597 C6595 1.389 . S
C6597 C6598 1.524 . S
C6598 C6597 1.524 . S
C6598 C6599 1.397 . S
C6598 C6603 1.363 . S
C6599 H6570 0.950 . S
C6599 C6598 1.397 . S
C6599 C6600 1.334 . S
C6600 H6571 0.950 . S
C6600 C6599 1.334 . S
C6600 C6601 1.287 . S
C6601 C6600 1.287 . S
C6601 C6602 1.524 . S
C6601 H6604 0.999 . S
C6602 H6572 0.950 . S
C6602 C6601 1.524 . S
C6602 C6603 1.415 . S
C6603 H6573 0.950 . S
C6603 C6598 1.363 . S
C6603 C6602 1.415 . S
H6604 C6601 0.999 . S
H6605 C6586 0.913 . S
H6606 C6624 0.951 . S
H6607 C6626 0.951 . S
H6608 C6628 0.950 . S
H6609 C6629 0.950 . S
H6610 C6631 0.950 . S
H6611 C6634 0.950 . S
H6612 C6635 0.950 . S
H6613 C6637 0.950 . S
H6614 C6638 0.950 . S
H6615 C6639 0.951 . S
H6616 C6641 0.951 . S
H6617 C6643 0.950 . S
H6618 C6644 0.950 . S
H6619 C6646 0.950 . S
H6620 C6649 0.950 . S
H6621 C6650 0.950 . S
H6622 C6652 0.950 . S
H6623 C6653 0.950 . S
C6624 H6606 0.951 . S
C6624 C6625 1.366 . S
C6624 C6626 1.388 . S
C6625 C6624 1.366 . S
C6625 C6629 1.385 . S
C6626 H6607 0.951 . S
C6626 C6624 1.388 . S
C6626 C6627 1.366 . S
C6627 C6626 1.366 . S
C6627 C6628 1.414 . S
C6627 C6630 1.499 . S
C6628 H6608 0.950 . S
C6628 C6627 1.414 . S
C6628 C6629 1.374 . S
C6629 H6609 0.950 . S
C6629 C6625 1.385 . S
C6629 C6628 1.374 . S
C6630 C6627 1.499 . S
C6630 C6631 1.373 . S
C6630 C6632 1.389 . S
C6631 H6610 0.950 . S
C6631 C6630 1.373 . S
C6631 C6647 1.377 . S
C6632 C6630 1.389 . S
C6632 C6633 1.524 . S
C6632 C6646 1.377 . S
C6633 C6632 1.524 . S
C6633 C6634 1.397 . S
C6633 C6638 1.363 . S
C6634 H6611 0.950 . S
C6634 C6633 1.397 . S
C6634 C6635 1.334 . S
C6635 H6612 0.950 . S
C6635 C6634 1.334 . S
C6635 C6636 1.287 . S
C6636 C6635 1.287 . S
C6636 C6637 1.524 . S
C6636 H6655 0.913 . S
C6637 H6613 0.950 . S
C6637 C6636 1.524 . S
C6637 C6638 1.415 . S
C6638 H6614 0.950 . S
C6638 C6633 1.363 . S
C6638 C6637 1.415 . S
C6639 H6615 0.951 . S
C6639 C6640 1.366 . S
C6639 C6641 1.388 . S
C6640 C6639 1.366 . S
C6640 C6644 1.385 . S
C6641 H6616 0.951 . S
C6641 C6639 1.388 . S
C6641 C6642 1.366 . S
C6642 C6641 1.366 . S
C6642 C6643 1.414 . S
C6642 C6645 1.499 . S
C6643 H6617 0.950 . S
C6643 C6642 1.414 . S
C6643 C6644 1.374 . S
C6644 H6618 0.950 . S
C6644 C6640 1.385 . S
C6644 C6643 1.374 . S
C6645 C6642 1.499 . S
C6645 C6646 1.373 . S
C6645 C6647 1.389 . S
C6646 H6619 0.950 . S
C6646 C6632 1.377 . S
C6646 C6645 1.373 . S
C6647 C6631 1.377 . S
C6647 C6645 1.389 . S
C6647 C6648 1.524 . S
C6648 C6647 1.524 . S
C6648 C6649 1.397 . S
C6648 C6653 1.363 . S
C6649 H6620 0.950 . S
C6649 C6648 1.397 . S
C6649 C6650 1.334 . S
C6650 H6621 0.950 . S
C6650 C6649 1.334 . S
C6650 C6651 1.287 . S
C6651 C6650 1.287 . S
C6651 C6652 1.524 . S
C6651 H6654 0.999 . S
C6652 H6622 0.950 . S
C6652 C6651 1.524 . S
C6652 C6653 1.415 . S
C6653 H6623 0.950 . S
C6653 C6648 1.363 . S
C6653 C6652 1.415 . S
H6654 C6651 0.999 . S
H6655 C6636 0.913 . S
H6656 C6674 0.951 . S
H6657 C6676 0.951 . S
H6658 C6678 0.950 . S
H6659 C6679 0.950 . S
H6660 C6681 0.950 . S
H6661 C6684 0.950 . S
H6662 C6685 0.950 . S
H6663 C6687 0.950 . S
H6664 C6688 0.950 . S
H6665 C6689 0.951 . S
H6666 C6691 0.951 . S
H6667 C6693 0.950 . S
H6668 C6694 0.950 . S
H6669 C6696 0.950 . S
H6670 C6699 0.950 . S
H6671 C6700 0.950 . S
H6672 C6702 0.950 . S
H6673 C6703 0.950 . S
C6674 H6656 0.951 . S
C6674 C6675 1.366 . S
C6674 C6676 1.388 . S
C6675 C6674 1.366 . S
C6675 C6679 1.385 . S
C6676 H6657 0.951 . S
C6676 C6674 1.388 . S
C6676 C6677 1.366 . S
C6677 C6676 1.366 . S
C6677 C6678 1.414 . S
C6677 C6680 1.499 . S
C6678 H6658 0.950 . S
C6678 C6677 1.414 . S
C6678 C6679 1.374 . S
C6679 H6659 0.950 . S
C6679 C6675 1.385 . S
C6679 C6678 1.374 . S
C6680 C6677 1.499 . S
C6680 C6681 1.373 . S
C6680 C6682 1.389 . S
C6681 H6660 0.950 . S
C6681 C6680 1.373 . S
C6681 C6697 1.377 . S
C6682 C6680 1.389 . S
C6682 C6683 1.524 . S
C6682 C6696 1.377 . S
C6683 C6682 1.524 . S
C6683 C6684 1.397 . S
C6683 C6688 1.363 . S
C6684 H6661 0.950 . S
C6684 C6683 1.397 . S
C6684 C6685 1.334 . S
C6685 H6662 0.950 . S
C6685 C6684 1.334 . S
C6685 C6686 1.287 . S
C6686 C6685 1.287 . S
C6686 C6687 1.524 . S
C6686 H6705 0.913 . S
C6687 H6663 0.950 . S
C6687 C6686 1.524 . S
C6687 C6688 1.415 . S
C6688 H6664 0.950 . S
C6688 C6683 1.363 . S
C6688 C6687 1.415 . S
C6689 H6665 0.951 . S
C6689 C6690 1.366 . S
C6689 C6691 1.388 . S
C6690 C6689 1.366 . S
C6690 C6694 1.385 . S
C6691 H6666 0.951 . S
C6691 C6689 1.388 . S
C6691 C6692 1.366 . S
C6692 C6691 1.366 . S
C6692 C6693 1.414 . S
C6692 C6695 1.499 . S
C6693 H6667 0.950 . S
C6693 C6692 1.414 . S
C6693 C6694 1.374 . S
C6694 H6668 0.950 . S
C6694 C6690 1.385 . S
C6694 C6693 1.374 . S
C6695 C6692 1.499 . S
C6695 C6696 1.373 . S
C6695 C6697 1.389 . S
C6696 H6669 0.950 . S
C6696 C6682 1.377 . S
C6696 C6695 1.373 . S
C6697 C6681 1.377 . S
C6697 C6695 1.389 . S
C6697 C6698 1.524 . S
C6698 C6697 1.524 . S
C6698 C6699 1.397 . S
C6698 C6703 1.363 . S
C6699 H6670 0.950 . S
C6699 C6698 1.397 . S
C6699 C6700 1.334 . S
C6700 H6671 0.950 . S
C6700 C6699 1.334 . S
C6700 C6701 1.287 . S
C6701 C6700 1.287 . S
C6701 C6702 1.524 . S
C6701 H6704 0.999 . S
C6702 H6672 0.950 . S
C6702 C6701 1.524 . S
C6702 C6703 1.415 . S
C6703 H6673 0.950 . S
C6703 C6698 1.363 . S
C6703 C6702 1.415 . S
H6704 C6701 0.999 . S
H6705 C6686 0.913 . S
H6706 C6724 0.951 . S
H6707 C6726 0.951 . S
H6708 C6728 0.950 . S
H6709 C6729 0.950 . S
H6710 C6731 0.950 . S
H6711 C6734 0.950 . S
H6712 C6735 0.950 . S
H6713 C6737 0.950 . S
H6714 C6738 0.950 . S
H6715 C6739 0.951 . S
H6716 C6741 0.951 . S
H6717 C6743 0.950 . S
H6718 C6744 0.950 . S
H6719 C6746 0.950 . S
H6720 C6749 0.950 . S
H6721 C6750 0.950 . S
H6722 C6752 0.950 . S
H6723 C6753 0.950 . S
C6724 H6706 0.951 . S
C6724 C6725 1.366 . S
C6724 C6726 1.388 . S
C6725 C6724 1.366 . S
C6725 C6729 1.385 . S
C6726 H6707 0.951 . S
C6726 C6724 1.388 . S
C6726 C6727 1.366 . S
C6727 C6726 1.366 . S
C6727 C6728 1.414 . S
C6727 C6730 1.499 . S
C6728 H6708 0.950 . S
C6728 C6727 1.414 . S
C6728 C6729 1.374 . S
C6729 H6709 0.950 . S
C6729 C6725 1.385 . S
C6729 C6728 1.374 . S
C6730 C6727 1.499 . S
C6730 C6731 1.373 . S
C6730 C6732 1.389 . S
C6731 H6710 0.950 . S
C6731 C6730 1.373 . S
C6731 C6747 1.377 . S
C6732 C6730 1.389 . S
C6732 C6733 1.524 . S
C6732 C6746 1.377 . S
C6733 C6732 1.524 . S
C6733 C6734 1.397 . S
C6733 C6738 1.363 . S
C6734 H6711 0.950 . S
C6734 C6733 1.397 . S
C6734 C6735 1.334 . S
C6735 H6712 0.950 . S
C6735 C6734 1.334 . S
C6735 C6736 1.287 . S
C6736 C6735 1.287 . S
C6736 C6737 1.524 . S
C6736 H6755 0.913 . S
C6737 H6713 0.950 . S
C6737 C6736 1.524 . S
C6737 C6738 1.415 . S
C6738 H6714 0.950 . S
C6738 C6733 1.363 . S
C6738 C6737 1.415 . S
C6739 H6715 0.951 . S
C6739 C6740 1.366 . S
C6739 C6741 1.388 . S
C6740 C6739 1.366 . S
C6740 C6744 1.385 . S
C6741 H6716 0.951 . S
C6741 C6739 1.388 . S
C6741 C6742 1.366 . S
C6742 C6741 1.366 . S
C6742 C6743 1.414 . S
C6742 C6745 1.499 . S
C6743 H6717 0.950 . S
C6743 C6742 1.414 . S
C6743 C6744 1.374 . S
C6744 H6718 0.950 . S
C6744 C6740 1.385 . S
C6744 C6743 1.374 . S
C6745 C6742 1.499 . S
C6745 C6746 1.373 . S
C6745 C6747 1.389 . S
C6746 H6719 0.950 . S
C6746 C6732 1.377 . S
C6746 C6745 1.373 . S
C6747 C6731 1.377 . S
C6747 C6745 1.389 . S
C6747 C6748 1.524 . S
C6748 C6747 1.524 . S
C6748 C6749 1.397 . S
C6748 C6753 1.363 . S
C6749 H6720 0.950 . S
C6749 C6748 1.397 . S
C6749 C6750 1.334 . S
C6750 H6721 0.950 . S
C6750 C6749 1.334 . S
C6750 C6751 1.287 . S
C6751 C6750 1.287 . S
C6751 C6752 1.524 . S
C6751 H6754 0.999 . S
C6752 H6722 0.950 . S
C6752 C6751 1.524 . S
C6752 C6753 1.415 . S
C6753 H6723 0.950 . S
C6753 C6748 1.363 . S
C6753 C6752 1.415 . S
H6754 C6751 0.999 . S
H6755 C6736 0.913 . S
H6756 C6774 0.951 . S
H6757 C6776 0.951 . S
H6758 C6778 0.950 . S
H6759 C6779 0.950 . S
H6760 C6781 0.950 . S
H6761 C6784 0.950 . S
H6762 C6785 0.950 . S
H6763 C6787 0.950 . S
H6764 C6788 0.950 . S
H6765 C6789 0.951 . S
H6766 C6791 0.951 . S
H6767 C6793 0.950 . S
H6768 C6794 0.950 . S
H6769 C6796 0.950 . S
H6770 C6799 0.950 . S
H6771 C6800 0.950 . S
H6772 C6802 0.950 . S
H6773 C6803 0.950 . S
C6774 H6756 0.951 . S
C6774 C6775 1.366 . S
C6774 C6776 1.388 . S
C6775 C6774 1.366 . S
C6775 C6779 1.385 . S
C6776 H6757 0.951 . S
C6776 C6774 1.388 . S
C6776 C6777 1.366 . S
C6777 C6776 1.366 . S
C6777 C6778 1.414 . S
C6777 C6780 1.499 . S
C6778 H6758 0.950 . S
C6778 C6777 1.414 . S
C6778 C6779 1.374 . S
C6779 H6759 0.950 . S
C6779 C6775 1.385 . S
C6779 C6778 1.374 . S
C6780 C6777 1.499 . S
C6780 C6781 1.373 . S
C6780 C6782 1.389 . S
C6781 H6760 0.950 . S
C6781 C6780 1.373 . S
C6781 C6797 1.377 . S
C6782 C6780 1.389 . S
C6782 C6783 1.524 . S
C6782 C6796 1.377 . S
C6783 C6782 1.524 . S
C6783 C6784 1.397 . S
C6783 C6788 1.363 . S
C6784 H6761 0.950 . S
C6784 C6783 1.397 . S
C6784 C6785 1.334 . S
C6785 H6762 0.950 . S
C6785 C6784 1.334 . S
C6785 C6786 1.287 . S
C6786 C6785 1.287 . S
C6786 C6787 1.524 . S
C6786 H6805 0.913 . S
C6787 H6763 0.950 . S
C6787 C6786 1.524 . S
C6787 C6788 1.415 . S
C6788 H6764 0.950 . S
C6788 C6783 1.363 . S
C6788 C6787 1.415 . S
C6789 H6765 0.951 . S
C6789 C6790 1.366 . S
C6789 C6791 1.388 . S
C6790 C6789 1.366 . S
C6790 C6794 1.385 . S
C6791 H6766 0.951 . S
C6791 C6789 1.388 . S
C6791 C6792 1.366 . S
C6792 C6791 1.366 . S
C6792 C6793 1.414 . S
C6792 C6795 1.499 . S
C6793 H6767 0.950 . S
C6793 C6792 1.414 . S
C6793 C6794 1.374 . S
C6794 H6768 0.950 . S
C6794 C6790 1.385 . S
C6794 C6793 1.374 . S
C6795 C6792 1.499 . S
C6795 C6796 1.373 . S
C6795 C6797 1.389 . S
C6796 H6769 0.950 . S
C6796 C6782 1.377 . S
C6796 C6795 1.373 . S
C6797 C6781 1.377 . S
C6797 C6795 1.389 . S
C6797 C6798 1.524 . S
C6798 C6797 1.524 . S
C6798 C6799 1.397 . S
C6798 C6803 1.363 . S
C6799 H6770 0.950 . S
C6799 C6798 1.397 . S
C6799 C6800 1.334 . S
C6800 H6771 0.950 . S
C6800 C6799 1.334 . S
C6800 C6801 1.287 . S
C6801 C6800 1.287 . S
C6801 C6802 1.524 . S
C6801 H6804 0.999 . S
C6802 H6772 0.950 . S
C6802 C6801 1.524 . S
C6802 C6803 1.415 . S
C6803 H6773 0.950 . S
C6803 C6798 1.363 . S
C6803 C6802 1.415 . S
H6804 C6801 0.999 . S
H6805 C6786 0.913 . S
H6806 C6824 0.951 . S
H6807 C6826 0.951 . S
H6808 C6828 0.950 . S
H6809 C6829 0.949 1_556 S
H6810 C6831 0.950 . S
H6811 C6834 0.950 . S
H6812 C6835 0.950 . S
H6813 C6837 0.950 . S
H6814 C6838 0.950 1_554 S
H6815 C6839 0.951 . S
H6816 C6841 0.951 . S
H6817 C6843 0.950 . S
H6818 C6844 0.950 . S
H6819 C6846 0.951 1_546 S
H6820 C6849 0.950 . S
H6821 C6850 0.950 . S
H6822 C6852 0.950 . S
H6823 C6853 0.950 . S
C6824 H6806 0.951 . S
C6824 C6825 1.366 . S
C6824 C6826 1.388 . S
C6825 C6824 1.366 . S
C6825 C6829 1.385 . S
C6826 H6807 0.951 . S
C6826 C6824 1.388 . S
C6826 C6827 1.366 . S
C6827 C6826 1.366 . S
C6827 C6828 1.414 . S
C6827 C6830 1.499 . S
C6828 H6808 0.950 . S
C6828 C6827 1.414 . S
C6828 C6829 1.374 . S
C6829 H6809 0.949 1_554 S
C6829 C6825 1.385 . S
C6829 C6828 1.374 . S
C6830 C6827 1.499 . S
C6830 C6831 1.373 . S
C6830 C6832 1.389 . S
C6831 H6810 0.950 . S
C6831 C6830 1.373 . S
C6831 C6847 1.377 . S
C6832 C6830 1.389 . S
C6832 C6833 1.476 1_564 S
C6832 C6846 1.377 . S
C6833 C6832 1.476 1_546 S
C6833 C6834 1.370 1_545 S
C6833 C6838 1.437 . S
C6834 H6811 0.950 . S
C6834 C6833 1.370 1_565 S
C6834 C6835 1.334 . S
C6835 H6812 0.950 . S
C6835 C6834 1.334 . S
C6835 C6836 1.287 1_565 S
C6836 C6835 1.287 1_545 S
C6836 C6837 1.524 . S
C6836 H6855 0.913 . S
C6837 H6813 0.950 . S
C6837 C6836 1.524 . S
C6837 C6838 1.415 . S
C6838 H6814 0.950 1_556 S
C6838 C6833 1.437 . S
C6838 C6837 1.415 . S
C6839 H6815 0.951 . S
C6839 C6840 1.366 1_565 S
C6839 C6841 1.388 . S
C6840 C6839 1.366 1_545 S
C6840 C6844 1.385 . S
C6841 H6816 0.951 . S
C6841 C6839 1.388 . S
C6841 C6842 1.366 . S
C6842 C6841 1.366 . S
C6842 C6843 1.414 1_565 S
C6842 C6845 1.499 . S
C6843 H6817 0.950 . S
C6843 C6842 1.414 1_545 S
C6843 C6844 1.374 . S
C6844 H6818 0.950 . S
C6844 C6840 1.385 . S
C6844 C6843 1.374 . S
C6845 C6842 1.499 . S
C6845 C6846 1.373 . S
C6845 C6847 1.389 . S
C6846 H6819 0.951 1_564 S
C6846 C6832 1.377 . S
C6846 C6845 1.373 . S
C6847 C6831 1.377 . S
C6847 C6845 1.389 . S
C6847 C6848 1.524 . S
C6848 C6847 1.524 . S
C6848 C6849 1.397 . S
C6848 C6853 1.363 . S
C6849 H6820 0.950 . S
C6849 C6848 1.397 . S
C6849 C6850 1.334 . S
C6850 H6821 0.950 . S
C6850 C6849 1.334 . S
C6850 C6851 1.287 . S
C6851 C6850 1.287 . S
C6851 C6852 1.524 . S
C6851 H6854 0.999 . S
C6852 H6822 0.950 . S
C6852 C6851 1.524 . S
C6852 C6853 1.415 . S
C6853 H6823 0.950 . S
C6853 C6848 1.363 . S
C6853 C6852 1.415 . S
H6854 C6851 0.999 . S
H6855 C6836 0.913 . S
H6856 C6874 0.951 . S
H6857 C6876 0.951 . S
H6858 C6878 0.950 . S
H6859 C6879 0.950 . S
H6860 C6881 0.950 . S
H6861 C6884 0.950 . S
H6862 C6885 0.950 . S
H6863 C6887 0.950 . S
H6864 C6888 0.950 . S
H6865 C6889 0.951 . S
H6866 C6891 0.951 . S
H6867 C6893 0.950 . S
H6868 C6894 0.950 . S
H6869 C6896 0.950 . S
H6870 C6899 0.950 . S
H6871 C6900 0.950 . S
H6872 C6902 0.950 . S
H6873 C6903 0.950 . S
C6874 H6856 0.951 . S
C6874 C6875 1.366 . S
C6874 C6876 1.388 . S
C6875 C6874 1.366 . S
C6875 C6879 1.385 . S
C6876 H6857 0.951 . S
C6876 C6874 1.388 . S
C6876 C6877 1.366 . S
C6877 C6876 1.366 . S
C6877 C6878 1.414 . S
C6877 C6880 1.499 . S
C6878 H6858 0.950 . S
C6878 C6877 1.414 . S
C6878 C6879 1.374 . S
C6879 H6859 0.950 . S
C6879 C6875 1.385 . S
C6879 C6878 1.374 . S
C6880 C6877 1.499 . S
C6880 C6881 1.373 . S
C6880 C6882 1.389 . S
C6881 H6860 0.950 . S
C6881 C6880 1.373 . S
C6881 C6897 1.377 . S
C6882 C6880 1.389 . S
C6882 C6883 1.524 . S
C6882 C6896 1.377 . S
C6883 C6882 1.524 . S
C6883 C6884 1.397 . S
C6883 C6888 1.363 . S
C6884 H6861 0.950 . S
C6884 C6883 1.397 . S
C6884 C6885 1.334 . S
C6885 H6862 0.950 . S
C6885 C6884 1.334 . S
C6885 C6886 1.287 . S
C6886 C6885 1.287 . S
C6886 C6887 1.524 . S
C6886 H6905 0.913 . S
C6887 H6863 0.950 . S
C6887 C6886 1.524 . S
C6887 C6888 1.415 . S
C6888 H6864 0.950 . S
C6888 C6883 1.363 . S
C6888 C6887 1.415 . S
C6889 H6865 0.951 . S
C6889 C6890 1.366 . S
C6889 C6891 1.388 . S
C6890 C6889 1.366 . S
C6890 C6894 1.385 . S
C6891 H6866 0.951 . S
C6891 C6889 1.388 . S
C6891 C6892 1.366 . S
C6892 C6891 1.366 . S
C6892 C6893 1.414 . S
C6892 C6895 1.499 . S
C6893 H6867 0.950 . S
C6893 C6892 1.414 . S
C6893 C6894 1.374 . S
C6894 H6868 0.950 . S
C6894 C6890 1.385 . S
C6894 C6893 1.374 . S
C6895 C6892 1.499 . S
C6895 C6896 1.373 . S
C6895 C6897 1.389 . S
C6896 H6869 0.950 . S
C6896 C6882 1.377 . S
C6896 C6895 1.373 . S
C6897 C6881 1.377 . S
C6897 C6895 1.389 . S
C6897 C6898 1.524 . S
C6898 C6897 1.524 . S
C6898 C6899 1.397 . S
C6898 C6903 1.363 . S
C6899 H6870 0.950 . S
C6899 C6898 1.397 . S
C6899 C6900 1.334 . S
C6900 H6871 0.950 . S
C6900 C6899 1.334 . S
C6900 C6901 1.287 . S
C6901 C6900 1.287 . S
C6901 C6902 1.524 . S
C6901 H6904 0.999 . S
C6902 H6872 0.950 . S
C6902 C6901 1.524 . S
C6902 C6903 1.415 . S
C6903 H6873 0.950 . S
C6903 C6898 1.363 . S
C6903 C6902 1.415 . S
H6904 C6901 0.999 . S
H6905 C6886 0.913 . S
H6906 C6924 0.951 . S
H6907 C6926 0.951 . S
H6908 C6928 0.950 . S
H6909 C6929 0.950 . S
H6910 C6931 0.950 1_556 S
H6911 C6934 0.950 . S
H6912 C6935 0.950 . S
H6913 C6937 0.950 . S
H6914 C6938 0.950 . S
H6915 C6939 0.951 . S
H6916 C6941 0.951 . S
H6917 C6943 0.950 . S
H6918 C6944 0.950 . S
H6919 C6946 0.950 . S
H6920 C6949 0.950 . S
H6921 C6950 0.950 . S
H6922 C6952 0.950 . S
H6923 C6953 0.950 . S
C6924 H6906 0.951 . S
C6924 C6925 1.366 . S
C6924 C6926 1.388 . S
C6925 C6924 1.366 . S
C6925 C6929 1.385 . S
C6926 H6907 0.951 . S
C6926 C6924 1.388 . S
C6926 C6927 1.366 . S
C6927 C6926 1.366 . S
C6927 C6928 1.414 . S
C6927 C6930 1.499 . S
C6928 H6908 0.950 . S
C6928 C6927 1.414 . S
C6928 C6929 1.374 . S
C6929 H6909 0.950 . S
C6929 C6925 1.385 . S
C6929 C6928 1.374 . S
C6930 C6927 1.499 . S
C6930 C6931 1.373 . S
C6930 C6932 1.389 . S
C6931 H6910 0.950 1_554 S
C6931 C6930 1.373 . S
C6931 C6947 1.377 . S
C6932 C6930 1.389 . S
C6932 C6933 1.524 . S
C6932 C6946 1.377 . S
C6933 C6932 1.524 . S
C6933 C6934 1.397 . S
C6933 C6938 1.363 . S
C6934 H6911 0.950 . S
C6934 C6933 1.397 . S
C6934 C6935 1.334 . S
C6935 H6912 0.950 . S
C6935 C6934 1.334 . S
C6935 C6936 1.287 . S
C6936 C6935 1.287 . S
C6936 C6937 1.524 . S
C6936 H6955 0.913 . S
C6937 H6913 0.950 . S
C6937 C6936 1.524 . S
C6937 C6938 1.415 . S
C6938 H6914 0.950 . S
C6938 C6933 1.363 . S
C6938 C6937 1.415 . S
C6939 H6915 0.951 . S
C6939 C6940 1.366 . S
C6939 C6941 1.388 . S
C6940 C6939 1.366 . S
C6940 C6944 1.385 . S
C6941 H6916 0.951 . S
C6941 C6939 1.388 . S
C6941 C6942 1.366 . S
C6942 C6941 1.366 . S
C6942 C6943 1.414 . S
C6942 C6945 1.499 . S
C6943 H6917 0.950 . S
C6943 C6942 1.414 . S
C6943 C6944 1.374 . S
C6944 H6918 0.950 . S
C6944 C6940 1.385 . S
C6944 C6943 1.374 . S
C6945 C6942 1.499 . S
C6945 C6946 1.373 . S
C6945 C6947 1.389 . S
C6946 H6919 0.950 . S
C6946 C6932 1.377 . S
C6946 C6945 1.373 . S
C6947 C6931 1.377 . S
C6947 C6945 1.389 . S
C6947 C6948 1.524 1_554 S
C6948 C6947 1.524 1_556 S
C6948 C6949 1.397 . S
C6948 C6953 1.363 . S
C6949 H6920 0.950 . S
C6949 C6948 1.397 . S
C6949 C6950 1.334 . S
C6950 H6921 0.950 . S
C6950 C6949 1.334 . S
C6950 C6951 1.287 . S
C6951 C6950 1.287 . S
C6951 C6952 1.524 . S
C6951 H6954 0.999 . S
C6952 H6922 0.950 . S
C6952 C6951 1.524 . S
C6952 C6953 1.415 . S
C6953 H6923 0.950 . S
C6953 C6948 1.363 . S
C6953 C6952 1.415 . S
H6954 C6951 0.999 . S
H6955 C6936 0.913 . S
H6956 C6974 0.951 . S
H6957 C6976 0.951 . S
H6958 C6978 0.950 . S
H6959 C6979 0.950 . S
H6960 C6981 0.950 . S
H6961 C6984 0.950 . S
H6962 C6985 0.950 . S
H6963 C6987 0.950 . S
H6964 C6988 0.950 . S
H6965 C6989 0.951 . S
H6966 C6991 0.951 . S
H6967 C6993 0.950 . S
H6968 C6994 0.950 . S
H6969 C6996 0.950 . S
H6970 C6999 0.950 . S
H6971 C7000 0.950 . S
H6972 C7002 0.950 . S
H6973 C7003 0.950 . S
C6974 H6956 0.951 . S
C6974 C6975 1.366 . S
C6974 C6976 1.388 . S
C6975 C6974 1.366 . S
C6975 C6979 1.385 . S
C6976 H6957 0.951 . S
C6976 C6974 1.388 . S
C6976 C6977 1.366 . S
C6977 C6976 1.366 . S
C6977 C6978 1.414 . S
C6977 C6980 1.499 . S
C6978 H6958 0.950 . S
C6978 C6977 1.414 . S
C6978 C6979 1.374 . S
C6979 H6959 0.950 . S
C6979 C6975 1.385 . S
C6979 C6978 1.374 . S
C6980 C6977 1.499 . S
C6980 C6981 1.373 . S
C6980 C6982 1.389 . S
C6981 H6960 0.950 . S
C6981 C6980 1.373 . S
C6981 C6997 1.377 . S
C6982 C6980 1.389 . S
C6982 C6983 1.524 . S
C6982 C6996 1.377 . S
C6983 C6982 1.524 . S
C6983 C6984 1.397 . S
C6983 C6988 1.363 . S
C6984 H6961 0.950 . S
C6984 C6983 1.397 . S
C6984 C6985 1.334 . S
C6985 H6962 0.950 . S
C6985 C6984 1.334 . S
C6985 C6986 1.287 . S
C6986 C6985 1.287 . S
C6986 C6987 1.524 . S
C6986 H7005 0.913 . S
C6987 H6963 0.950 . S
C6987 C6986 1.524 . S
C6987 C6988 1.415 . S
C6988 H6964 0.950 . S
C6988 C6983 1.363 . S
C6988 C6987 1.415 . S
C6989 H6965 0.951 . S
C6989 C6990 1.366 . S
C6989 C6991 1.388 . S
C6990 C6989 1.366 . S
C6990 C6994 1.385 . S
C6991 H6966 0.951 . S
C6991 C6989 1.388 . S
C6991 C6992 1.366 . S
C6992 C6991 1.366 . S
C6992 C6993 1.414 . S
C6992 C6995 1.499 . S
C6993 H6967 0.950 . S
C6993 C6992 1.414 . S
C6993 C6994 1.374 . S
C6994 H6968 0.950 . S
C6994 C6990 1.385 . S
C6994 C6993 1.374 . S
C6995 C6992 1.499 . S
C6995 C6996 1.373 . S
C6995 C6997 1.389 . S
C6996 H6969 0.950 . S
C6996 C6982 1.377 . S
C6996 C6995 1.373 . S
C6997 C6981 1.377 . S
C6997 C6995 1.389 . S
C6997 C6998 1.524 . S
C6998 C6997 1.524 . S
C6998 C6999 1.397 . S
C6998 C7003 1.363 . S
C6999 H6970 0.950 . S
C6999 C6998 1.397 . S
C6999 C7000 1.334 . S
C7000 H6971 0.950 . S
C7000 C6999 1.334 . S
C7000 C7001 1.287 . S
C7001 C7000 1.287 . S
C7001 C7002 1.524 . S
C7001 H7004 0.999 . S
C7002 H6972 0.950 . S
C7002 C7001 1.524 . S
C7002 C7003 1.415 . S
C7003 H6973 0.950 . S
C7003 C6998 1.363 . S
C7003 C7002 1.415 . S
H7004 C7001 0.999 . S
H7005 C6986 0.913 . S
H7006 C7024 0.951 . S
H7007 C7026 0.951 . S
H7008 C7028 0.950 . S
H7009 C7029 0.950 . S
H7010 C7031 0.950 . S
H7011 C7034 0.950 . S
H7012 C7035 0.950 . S
H7013 C7037 0.950 . S
H7014 C7038 0.950 . S
H7015 C7039 0.951 . S
H7016 C7041 0.951 . S
H7017 C7043 0.950 . S
H7018 C7044 0.950 . S
H7019 C7046 0.950 . S
H7020 C7049 0.950 . S
H7021 C7050 0.950 . S
H7022 C7052 0.950 . S
H7023 C7053 0.950 . S
C7024 H7006 0.951 . S
C7024 C7025 1.366 . S
C7024 C7026 1.388 . S
C7025 C7024 1.366 . S
C7025 C7029 1.385 . S
C7026 H7007 0.951 . S
C7026 C7024 1.388 . S
C7026 C7027 1.366 . S
C7027 C7026 1.366 . S
C7027 C7028 1.414 . S
C7027 C7030 1.499 . S
C7028 H7008 0.950 . S
C7028 C7027 1.414 . S
C7028 C7029 1.374 . S
C7029 H7009 0.950 . S
C7029 C7025 1.385 . S
C7029 C7028 1.374 . S
C7030 C7027 1.499 . S
C7030 C7031 1.373 . S
C7030 C7032 1.389 . S
C7031 H7010 0.950 . S
C7031 C7030 1.373 . S
C7031 C7047 1.377 . S
C7032 C7030 1.389 . S
C7032 C7033 1.524 . S
C7032 C7046 1.377 . S
C7033 C7032 1.524 . S
C7033 C7034 1.397 . S
C7033 C7038 1.363 . S
C7034 H7011 0.950 . S
C7034 C7033 1.397 . S
C7034 C7035 1.334 . S
C7035 H7012 0.950 . S
C7035 C7034 1.334 . S
C7035 C7036 1.287 . S
C7036 C7035 1.287 . S
C7036 C7037 1.524 . S
C7036 H7055 0.913 . S
C7037 H7013 0.950 . S
C7037 C7036 1.524 . S
C7037 C7038 1.415 . S
C7038 H7014 0.950 . S
C7038 C7033 1.363 . S
C7038 C7037 1.415 . S
C7039 H7015 0.951 . S
C7039 C7040 1.366 . S
C7039 C7041 1.388 . S
C7040 C7039 1.366 . S
C7040 C7044 1.385 . S
C7041 H7016 0.951 . S
C7041 C7039 1.388 . S
C7041 C7042 1.366 . S
C7042 C7041 1.366 . S
C7042 C7043 1.414 . S
C7042 C7045 1.499 . S
C7043 H7017 0.950 . S
C7043 C7042 1.414 . S
C7043 C7044 1.374 . S
C7044 H7018 0.950 . S
C7044 C7040 1.385 . S
C7044 C7043 1.374 . S
C7045 C7042 1.499 . S
C7045 C7046 1.373 . S
C7045 C7047 1.389 . S
C7046 H7019 0.950 . S
C7046 C7032 1.377 . S
C7046 C7045 1.373 . S
C7047 C7031 1.377 . S
C7047 C7045 1.389 . S
C7047 C7048 1.524 . S
C7048 C7047 1.524 . S
C7048 C7049 1.397 . S
C7048 C7053 1.363 . S
C7049 H7020 0.950 . S
C7049 C7048 1.397 . S
C7049 C7050 1.334 . S
C7050 H7021 0.950 . S
C7050 C7049 1.334 . S
C7050 C7051 1.287 . S
C7051 C7050 1.287 . S
C7051 C7052 1.524 . S
C7051 H7054 0.999 . S
C7052 H7022 0.950 . S
C7052 C7051 1.524 . S
C7052 C7053 1.415 . S
C7053 H7023 0.950 . S
C7053 C7048 1.363 . S
C7053 C7052 1.415 . S
H7054 C7051 0.999 . S
H7055 C7036 0.913 . S
H7056 C7074 0.951 . S
H7057 C7076 0.951 . S
H7058 C7078 0.950 . S
H7059 C7079 0.950 . S
H7060 C7081 0.950 . S
H7061 C7084 0.950 . S
H7062 C7085 0.950 . S
H7063 C7087 0.950 . S
H7064 C7088 0.950 . S
H7065 C7089 0.951 . S
H7066 C7091 0.951 . S
H7067 C7093 0.950 . S
H7068 C7094 0.950 . S
H7069 C7096 0.950 . S
H7070 C7099 0.950 . S
H7071 C7100 0.950 . S
H7072 C7102 0.950 . S
H7073 C7103 0.950 . S
C7074 H7056 0.951 . S
C7074 C7075 1.366 . S
C7074 C7076 1.388 . S
C7075 C7074 1.366 . S
C7075 C7079 1.385 . S
C7076 H7057 0.951 . S
C7076 C7074 1.388 . S
C7076 C7077 1.366 . S
C7077 C7076 1.366 . S
C7077 C7078 1.414 . S
C7077 C7080 1.499 . S
C7078 H7058 0.950 . S
C7078 C7077 1.414 . S
C7078 C7079 1.374 . S
C7079 H7059 0.950 . S
C7079 C7075 1.385 . S
C7079 C7078 1.374 . S
C7080 C7077 1.499 . S
C7080 C7081 1.373 . S
C7080 C7082 1.389 . S
C7081 H7060 0.950 . S
C7081 C7080 1.373 . S
C7081 C7097 1.377 . S
C7082 C7080 1.389 . S
C7082 C7083 1.524 . S
C7082 C7096 1.377 . S
C7083 C7082 1.524 . S
C7083 C7084 1.397 . S
C7083 C7088 1.363 . S
C7084 H7061 0.950 . S
C7084 C7083 1.397 . S
C7084 C7085 1.334 . S
C7085 H7062 0.950 . S
C7085 C7084 1.334 . S
C7085 C7086 1.287 . S
C7086 C7085 1.287 . S
C7086 C7087 1.524 . S
C7086 H7105 0.913 . S
C7087 H7063 0.950 . S
C7087 C7086 1.524 . S
C7087 C7088 1.415 . S
C7088 H7064 0.950 . S
C7088 C7083 1.363 . S
C7088 C7087 1.415 . S
C7089 H7065 0.951 . S
C7089 C7090 1.366 . S
C7089 C7091 1.388 . S
C7090 C7089 1.366 . S
C7090 C7094 1.385 . S
C7091 H7066 0.951 . S
C7091 C7089 1.388 . S
C7091 C7092 1.366 . S
C7092 C7091 1.366 . S
C7092 C7093 1.414 . S
C7092 C7095 1.499 . S
C7093 H7067 0.950 . S
C7093 C7092 1.414 . S
C7093 C7094 1.374 . S
C7094 H7068 0.950 . S
C7094 C7090 1.385 . S
C7094 C7093 1.374 . S
C7095 C7092 1.499 . S
C7095 C7096 1.373 . S
C7095 C7097 1.389 . S
C7096 H7069 0.950 . S
C7096 C7082 1.377 . S
C7096 C7095 1.373 . S
C7097 C7081 1.377 . S
C7097 C7095 1.389 . S
C7097 C7098 1.524 . S
C7098 C7097 1.524 . S
C7098 C7099 1.397 . S
C7098 C7103 1.363 . S
C7099 H7070 0.950 . S
C7099 C7098 1.397 . S
C7099 C7100 1.334 . S
C7100 H7071 0.950 . S
C7100 C7099 1.334 . S
C7100 C7101 1.287 . S
C7101 C7100 1.287 . S
C7101 C7102 1.524 . S
C7101 H7104 0.999 . S
C7102 H7072 0.950 . S
C7102 C7101 1.524 . S
C7102 C7103 1.415 . S
C7103 H7073 0.950 . S
C7103 C7098 1.363 . S
C7103 C7102 1.415 . S
H7104 C7101 0.999 . S
H7105 C7086 0.913 . S
H7106 C7124 0.951 . S
H7107 C7126 0.951 . S
H7108 C7128 0.950 . S
H7109 C7129 0.950 . S
H7110 C7131 0.950 . S
H7111 C7134 0.950 . S
H7112 C7135 0.950 . S
H7113 C7137 0.950 . S
H7114 C7138 0.950 . S
H7115 C7139 0.951 . S
H7116 C7141 0.951 . S
H7117 C7143 0.950 . S
H7118 C7144 0.950 . S
H7119 C7146 0.950 . S
H7120 C7149 0.950 . S
H7121 C7150 0.950 . S
H7122 C7152 0.950 . S
H7123 C7153 0.950 . S
C7124 H7106 0.951 . S
C7124 C7125 1.366 . S
C7124 C7126 1.388 . S
C7125 C7124 1.366 . S
C7125 C7129 1.385 . S
C7126 H7107 0.951 . S
C7126 C7124 1.388 . S
C7126 C7127 1.366 . S
C7127 C7126 1.366 . S
C7127 C7128 1.414 . S
C7127 C7130 1.499 . S
C7128 H7108 0.950 . S
C7128 C7127 1.414 . S
C7128 C7129 1.374 . S
C7129 H7109 0.950 . S
C7129 C7125 1.385 . S
C7129 C7128 1.374 . S
C7130 C7127 1.499 . S
C7130 C7131 1.373 . S
C7130 C7132 1.389 . S
C7131 H7110 0.950 . S
C7131 C7130 1.373 . S
C7131 C7147 1.377 . S
C7132 C7130 1.389 . S
C7132 C7133 1.524 . S
C7132 C7146 1.377 . S
C7133 C7132 1.524 . S
C7133 C7134 1.397 . S
C7133 C7138 1.363 . S
C7134 H7111 0.950 . S
C7134 C7133 1.397 . S
C7134 C7135 1.334 . S
C7135 H7112 0.950 . S
C7135 C7134 1.334 . S
C7135 C7136 1.287 . S
C7136 C7135 1.287 . S
C7136 C7137 1.524 . S
C7136 H7155 0.913 . S
C7137 H7113 0.950 . S
C7137 C7136 1.524 . S
C7137 C7138 1.415 . S
C7138 H7114 0.950 . S
C7138 C7133 1.363 . S
C7138 C7137 1.415 . S
C7139 H7115 0.951 . S
C7139 C7140 1.366 . S
C7139 C7141 1.388 . S
C7140 C7139 1.366 . S
C7140 C7144 1.385 . S
C7141 H7116 0.951 . S
C7141 C7139 1.388 . S
C7141 C7142 1.366 . S
C7142 C7141 1.366 . S
C7142 C7143 1.414 . S
C7142 C7145 1.499 . S
C7143 H7117 0.950 . S
C7143 C7142 1.414 . S
C7143 C7144 1.374 . S
C7144 H7118 0.950 . S
C7144 C7140 1.385 . S
C7144 C7143 1.374 . S
C7145 C7142 1.499 . S
C7145 C7146 1.373 . S
C7145 C7147 1.389 . S
C7146 H7119 0.950 . S
C7146 C7132 1.377 . S
C7146 C7145 1.373 . S
C7147 C7131 1.377 . S
C7147 C7145 1.389 . S
C7147 C7148 1.524 . S
C7148 C7147 1.524 . S
C7148 C7149 1.397 . S
C7148 C7153 1.363 . S
C7149 H7120 0.950 . S
C7149 C7148 1.397 . S
C7149 C7150 1.334 . S
C7150 H7121 0.950 . S
C7150 C7149 1.334 . S
C7150 C7151 1.287 . S
C7151 C7150 1.287 . S
C7151 C7152 1.524 . S
C7151 H7154 0.999 . S
C7152 H7122 0.950 . S
C7152 C7151 1.524 . S
C7152 C7153 1.415 . S
C7153 H7123 0.950 . S
C7153 C7148 1.363 . S
C7153 C7152 1.415 . S
H7154 C7151 0.999 . S
H7155 C7136 0.913 . S
H7156 C7174 0.951 . S
H7157 C7176 0.951 . S
H7158 C7178 0.950 . S
H7159 C7179 0.950 . S
H7160 C7181 0.950 . S
H7161 C7184 0.950 . S
H7162 C7185 0.950 . S
H7163 C7187 0.950 . S
H7164 C7188 0.950 . S
H7165 C7189 0.951 . S
H7166 C7191 0.951 . S
H7167 C7193 0.950 . S
H7168 C7194 0.950 . S
H7169 C7196 0.950 . S
H7170 C7199 0.950 . S
H7171 C7200 0.950 . S
H7172 C7202 0.950 . S
H7173 C7203 0.950 1_556 S
C7174 H7156 0.951 . S
C7174 C7175 1.366 . S
C7174 C7176 1.388 . S
C7175 C7174 1.366 . S
C7175 C7179 1.385 . S
C7176 H7157 0.951 . S
C7176 C7174 1.388 . S
C7176 C7177 1.366 . S
C7177 C7176 1.366 . S
C7177 C7178 1.414 . S
C7177 C7180 1.499 . S
C7178 H7158 0.950 . S
C7178 C7177 1.414 . S
C7178 C7179 1.374 . S
C7179 H7159 0.950 . S
C7179 C7175 1.385 . S
C7179 C7178 1.374 . S
C7180 C7177 1.499 . S
C7180 C7181 1.373 . S
C7180 C7182 1.389 . S
C7181 H7160 0.950 . S
C7181 C7180 1.373 . S
C7181 C7197 1.377 . S
C7182 C7180 1.389 . S
C7182 C7183 1.524 . S
C7182 C7196 1.377 . S
C7183 C7182 1.524 . S
C7183 C7184 1.397 . S
C7183 C7188 1.363 . S
C7184 H7161 0.950 . S
C7184 C7183 1.397 . S
C7184 C7185 1.334 . S
C7185 H7162 0.950 . S
C7185 C7184 1.334 . S
C7185 C7186 1.287 . S
C7186 C7185 1.287 . S
C7186 C7187 1.524 . S
C7186 H7205 0.913 . S
C7187 H7163 0.950 . S
C7187 C7186 1.524 . S
C7187 C7188 1.415 . S
C7188 H7164 0.950 . S
C7188 C7183 1.363 . S
C7188 C7187 1.415 . S
C7189 H7165 0.951 . S
C7189 C7190 1.366 . S
C7189 C7191 1.388 . S
C7190 C7189 1.366 . S
C7190 C7194 1.385 . S
C7191 H7166 0.951 . S
C7191 C7189 1.388 . S
C7191 C7192 1.366 . S
C7192 C7191 1.366 . S
C7192 C7193 1.414 . S
C7192 C7195 1.499 . S
C7193 H7167 0.950 . S
C7193 C7192 1.414 . S
C7193 C7194 1.374 . S
C7194 H7168 0.950 . S
C7194 C7190 1.385 . S
C7194 C7193 1.374 . S
C7195 C7192 1.499 . S
C7195 C7196 1.373 . S
C7195 C7197 1.389 . S
C7196 H7169 0.950 . S
C7196 C7182 1.377 . S
C7196 C7195 1.373 . S
C7197 C7181 1.377 . S
C7197 C7195 1.389 . S
C7197 C7198 1.524 . S
C7198 C7197 1.524 . S
C7198 C7199 1.397 1_455 S
C7198 C7203 1.363 . S
C7199 H7170 0.950 . S
C7199 C7198 1.397 1_655 S
C7199 C7200 1.334 . S
C7200 H7171 0.950 . S
C7200 C7199 1.334 . S
C7200 C7201 1.287 1_554 S
C7201 C7200 1.287 1_556 S
C7201 C7202 1.524 . S
C7201 H7204 0.999 . S
C7202 H7172 0.950 . S
C7202 C7201 1.524 . S
C7202 C7203 1.415 1_656 S
C7203 H7173 0.950 1_554 S
C7203 C7198 1.363 . S
C7203 C7202 1.415 1_454 S
H7204 C7201 0.999 . S
H7205 C7186 0.913 . S
H7206 C7224 0.951 . S
H7207 C7226 0.951 . S
H7208 C7228 0.950 . S
H7209 C7229 0.950 . S
H7210 C7231 0.950 . S
H7211 C7234 0.950 . S
H7212 C7235 0.950 . S
H7213 C7237 0.950 . S
H7214 C7238 0.950 . S
H7215 C7239 0.951 . S
H7216 C7241 0.951 . S
H7217 C7243 0.950 . S
H7218 C7244 0.950 . S
H7219 C7246 0.950 . S
H7220 C7249 0.950 . S
H7221 C7250 0.950 . S
H7222 C7252 0.950 . S
H7223 C7253 0.950 . S
C7224 H7206 0.951 . S
C7224 C7225 1.366 . S
C7224 C7226 1.388 . S
C7225 C7224 1.366 . S
C7225 C7229 1.385 . S
C7226 H7207 0.951 . S
C7226 C7224 1.388 . S
C7226 C7227 1.366 . S
C7227 C7226 1.366 . S
C7227 C7228 1.414 . S
C7227 C7230 1.499 . S
C7228 H7208 0.950 . S
C7228 C7227 1.414 . S
C7228 C7229 1.374 . S
C7229 H7209 0.950 . S
C7229 C7225 1.385 . S
C7229 C7228 1.374 . S
C7230 C7227 1.499 . S
C7230 C7231 1.373 . S
C7230 C7232 1.389 . S
C7231 H7210 0.950 . S
C7231 C7230 1.373 . S
C7231 C7247 1.377 . S
C7232 C7230 1.389 . S
C7232 C7233 1.524 . S
C7232 C7246 1.377 . S
C7233 C7232 1.524 . S
C7233 C7234 1.397 . S
C7233 C7238 1.363 . S
C7234 H7211 0.950 . S
C7234 C7233 1.397 . S
C7234 C7235 1.334 . S
C7235 H7212 0.950 . S
C7235 C7234 1.334 . S
C7235 C7236 1.287 . S
C7236 C7235 1.287 . S
C7236 C7237 1.524 . S
C7236 H7255 0.913 . S
C7237 H7213 0.950 . S
C7237 C7236 1.524 . S
C7237 C7238 1.415 . S
C7238 H7214 0.950 . S
C7238 C7233 1.363 . S
C7238 C7237 1.415 . S
C7239 H7215 0.951 . S
C7239 C7240 1.366 . S
C7239 C7241 1.388 . S
C7240 C7239 1.366 . S
C7240 C7244 1.385 . S
C7241 H7216 0.951 . S
C7241 C7239 1.388 . S
C7241 C7242 1.366 . S
C7242 C7241 1.366 . S
C7242 C7243 1.414 . S
C7242 C7245 1.499 . S
C7243 H7217 0.950 . S
C7243 C7242 1.414 . S
C7243 C7244 1.374 . S
C7244 H7218 0.950 . S
C7244 C7240 1.385 . S
C7244 C7243 1.374 . S
C7245 C7242 1.499 . S
C7245 C7246 1.373 . S
C7245 C7247 1.389 . S
C7246 H7219 0.950 . S
C7246 C7232 1.377 . S
C7246 C7245 1.373 . S
C7247 C7231 1.377 . S
C7247 C7245 1.389 . S
C7247 C7248 1.524 . S
C7248 C7247 1.524 . S
C7248 C7249 1.397 . S
C7248 C7253 1.363 . S
C7249 H7220 0.950 . S
C7249 C7248 1.397 . S
C7249 C7250 1.334 . S
C7250 H7221 0.950 . S
C7250 C7249 1.334 . S
C7250 C7251 1.287 . S
C7251 C7250 1.287 . S
C7251 C7252 1.524 . S
C7251 H7254 0.999 . S
C7252 H7222 0.950 . S
C7252 C7251 1.524 . S
C7252 C7253 1.415 . S
C7253 H7223 0.950 . S
C7253 C7248 1.363 . S
C7253 C7252 1.415 . S
H7254 C7251 0.999 . S
H7255 C7236 0.913 . S
H7256 C7274 0.951 . S
H7257 C7276 0.951 . S
H7258 C7278 0.950 . S
H7259 C7279 0.950 . S
H7260 C7281 0.950 . S
H7261 C7284 0.950 . S
H7262 C7285 0.950 . S
H7263 C7287 0.950 . S
H7264 C7288 0.950 . S
H7265 C7289 0.951 . S
H7266 C7291 0.951 . S
H7267 C7293 0.950 . S
H7268 C7294 0.950 . S
H7269 C7296 0.950 . S
H7270 C7299 0.950 . S
H7271 C7300 0.950 . S
H7272 C7302 0.950 . S
H7273 C7303 0.950 . S
C7274 H7256 0.951 . S
C7274 C7275 1.366 . S
C7274 C7276 1.388 . S
C7275 C7274 1.366 . S
C7275 C7279 1.385 . S
C7276 H7257 0.951 . S
C7276 C7274 1.388 . S
C7276 C7277 1.366 . S
C7277 C7276 1.366 . S
C7277 C7278 1.414 . S
C7277 C7280 1.499 . S
C7278 H7258 0.950 . S
C7278 C7277 1.414 . S
C7278 C7279 1.374 . S
C7279 H7259 0.950 . S
C7279 C7275 1.385 . S
C7279 C7278 1.374 . S
C7280 C7277 1.499 . S
C7280 C7281 1.373 . S
C7280 C7282 1.389 . S
C7281 H7260 0.950 . S
C7281 C7280 1.373 . S
C7281 C7297 1.377 . S
C7282 C7280 1.389 . S
C7282 C7283 1.524 . S
C7282 C7296 1.377 . S
C7283 C7282 1.524 . S
C7283 C7284 1.397 . S
C7283 C7288 1.363 . S
C7284 H7261 0.950 . S
C7284 C7283 1.397 . S
C7284 C7285 1.334 . S
C7285 H7262 0.950 . S
C7285 C7284 1.334 . S
C7285 C7286 1.287 . S
C7286 C7285 1.287 . S
C7286 C7287 1.524 . S
C7286 H7305 0.913 . S
C7287 H7263 0.950 . S
C7287 C7286 1.524 . S
C7287 C7288 1.415 . S
C7288 H7264 0.950 . S
C7288 C7283 1.363 . S
C7288 C7287 1.415 . S
C7289 H7265 0.951 . S
C7289 C7290 1.366 . S
C7289 C7291 1.388 . S
C7290 C7289 1.366 . S
C7290 C7294 1.385 . S
C7291 H7266 0.951 . S
C7291 C7289 1.388 . S
C7291 C7292 1.366 . S
C7292 C7291 1.366 . S
C7292 C7293 1.414 . S
C7292 C7295 1.499 . S
C7293 H7267 0.950 . S
C7293 C7292 1.414 . S
C7293 C7294 1.374 . S
C7294 H7268 0.950 . S
C7294 C7290 1.385 . S
C7294 C7293 1.374 . S
C7295 C7292 1.499 . S
C7295 C7296 1.373 . S
C7295 C7297 1.389 . S
C7296 H7269 0.950 . S
C7296 C7282 1.377 . S
C7296 C7295 1.373 . S
C7297 C7281 1.377 . S
C7297 C7295 1.389 . S
C7297 C7298 1.524 . S
C7298 C7297 1.524 . S
C7298 C7299 1.397 . S
C7298 C7303 1.363 . S
C7299 H7270 0.950 . S
C7299 C7298 1.397 . S
C7299 C7300 1.334 . S
C7300 H7271 0.950 . S
C7300 C7299 1.334 . S
C7300 C7301 1.287 . S
C7301 C7300 1.287 . S
C7301 C7302 1.524 . S
C7301 H7304 0.999 . S
C7302 H7272 0.950 . S
C7302 C7301 1.524 . S
C7302 C7303 1.415 . S
C7303 H7273 0.950 . S
C7303 C7298 1.363 . S
C7303 C7302 1.415 . S
H7304 C7301 0.999 . S
H7305 C7286 0.913 . S
H7306 C7324 0.951 . S
H7307 C7326 0.951 . S
H7308 C7328 0.950 . S
H7309 C7329 0.950 . S
H7310 C7331 0.950 . S
H7311 C7334 0.950 . S
H7312 C7335 0.950 . S
H7313 C7337 0.950 . S
H7314 C7338 0.950 . S
H7315 C7339 0.951 . S
H7316 C7341 0.951 . S
H7317 C7343 0.950 . S
H7318 C7344 0.950 . S
H7319 C7346 0.950 . S
H7320 C7349 0.950 . S
H7321 C7350 0.950 . S
H7322 C7352 0.950 . S
H7323 C7353 0.950 . S
C7324 H7306 0.951 . S
C7324 C7325 1.366 . S
C7324 C7326 1.388 . S
C7325 C7324 1.366 . S
C7325 C7329 1.385 . S
C7326 H7307 0.951 . S
C7326 C7324 1.388 . S
C7326 C7327 1.366 . S
C7327 C7326 1.366 . S
C7327 C7328 1.414 . S
C7327 C7330 1.499 . S
C7328 H7308 0.950 . S
C7328 C7327 1.414 . S
C7328 C7329 1.374 . S
C7329 H7309 0.950 . S
C7329 C7325 1.385 . S
C7329 C7328 1.374 . S
C7330 C7327 1.499 . S
C7330 C7331 1.373 . S
C7330 C7332 1.389 . S
C7331 H7310 0.950 . S
C7331 C7330 1.373 . S
C7331 C7347 1.377 . S
C7332 C7330 1.389 . S
C7332 C7333 1.524 . S
C7332 C7346 1.377 . S
C7333 C7332 1.524 . S
C7333 C7334 1.397 . S
C7333 C7338 1.363 . S
C7334 H7311 0.950 . S
C7334 C7333 1.397 . S
C7334 C7335 1.334 . S
C7335 H7312 0.950 . S
C7335 C7334 1.334 . S
C7335 C7336 1.287 . S
C7336 C7335 1.287 . S
C7336 C7337 1.524 . S
C7336 H7355 0.913 . S
C7337 H7313 0.950 . S
C7337 C7336 1.524 . S
C7337 C7338 1.415 . S
C7338 H7314 0.950 . S
C7338 C7333 1.363 . S
C7338 C7337 1.415 . S
C7339 H7315 0.951 . S
C7339 C7340 1.366 . S
C7339 C7341 1.388 . S
C7340 C7339 1.366 . S
C7340 C7344 1.385 . S
C7341 H7316 0.951 . S
C7341 C7339 1.388 . S
C7341 C7342 1.366 . S
C7342 C7341 1.366 . S
C7342 C7343 1.414 . S
C7342 C7345 1.499 . S
C7343 H7317 0.950 . S
C7343 C7342 1.414 . S
C7343 C7344 1.374 . S
C7344 H7318 0.950 . S
C7344 C7340 1.385 . S
C7344 C7343 1.374 . S
C7345 C7342 1.499 . S
C7345 C7346 1.373 . S
C7345 C7347 1.389 . S
C7346 H7319 0.950 . S
C7346 C7332 1.377 . S
C7346 C7345 1.373 . S
C7347 C7331 1.377 . S
C7347 C7345 1.389 . S
C7347 C7348 1.524 . S
C7348 C7347 1.524 . S
C7348 C7349 1.397 . S
C7348 C7353 1.363 . S
C7349 H7320 0.950 . S
C7349 C7348 1.397 . S
C7349 C7350 1.334 . S
C7350 H7321 0.950 . S
C7350 C7349 1.334 . S
C7350 C7351 1.287 . S
C7351 C7350 1.287 . S
C7351 C7352 1.524 . S
C7351 H7354 0.999 . S
C7352 H7322 0.950 . S
C7352 C7351 1.524 . S
C7352 C7353 1.415 . S
C7353 H7323 0.950 . S
C7353 C7348 1.363 . S
C7353 C7352 1.415 . S
H7354 C7351 0.999 . S
H7355 C7336 0.913 . S
H7356 C7374 0.951 . S
H7357 C7376 0.951 . S
H7358 C7378 0.950 . S
H7359 C7379 0.950 . S
H7360 C7381 0.950 . S
H7361 C7384 0.950 . S
H7362 C7385 0.950 . S
H7363 C7387 0.950 . S
H7364 C7388 0.950 . S
H7365 C7389 0.951 . S
H7366 C7391 0.951 . S
H7367 C7393 0.950 . S
H7368 C7394 0.950 . S
H7369 C7396 0.950 . S
H7370 C7399 0.950 . S
H7371 C7400 0.950 . S
H7372 C7402 0.950 . S
H7373 C7403 0.950 . S
C7374 H7356 0.951 . S
C7374 C7375 1.366 . S
C7374 C7376 1.388 . S
C7375 C7374 1.366 . S
C7375 C7379 1.385 . S
C7376 H7357 0.951 . S
C7376 C7374 1.388 . S
C7376 C7377 1.366 . S
C7377 C7376 1.366 . S
C7377 C7378 1.414 . S
C7377 C7380 1.499 . S
C7378 H7358 0.950 . S
C7378 C7377 1.414 . S
C7378 C7379 1.374 . S
C7379 H7359 0.950 . S
C7379 C7375 1.385 . S
C7379 C7378 1.374 . S
C7380 C7377 1.499 . S
C7380 C7381 1.373 . S
C7380 C7382 1.389 . S
C7381 H7360 0.950 . S
C7381 C7380 1.373 . S
C7381 C7397 1.377 . S
C7382 C7380 1.389 . S
C7382 C7383 1.524 . S
C7382 C7396 1.377 . S
C7383 C7382 1.524 . S
C7383 C7384 1.397 . S
C7383 C7388 1.363 . S
C7384 H7361 0.950 . S
C7384 C7383 1.397 . S
C7384 C7385 1.334 . S
C7385 H7362 0.950 . S
C7385 C7384 1.334 . S
C7385 C7386 1.287 . S
C7386 C7385 1.287 . S
C7386 C7387 1.524 . S
C7386 H7405 0.913 . S
C7387 H7363 0.950 . S
C7387 C7386 1.524 . S
C7387 C7388 1.415 . S
C7388 H7364 0.950 . S
C7388 C7383 1.363 . S
C7388 C7387 1.415 . S
C7389 H7365 0.951 . S
C7389 C7390 1.366 . S
C7389 C7391 1.388 . S
C7390 C7389 1.366 . S
C7390 C7394 1.385 . S
C7391 H7366 0.951 . S
C7391 C7389 1.388 . S
C7391 C7392 1.366 . S
C7392 C7391 1.366 . S
C7392 C7393 1.414 . S
C7392 C7395 1.499 . S
C7393 H7367 0.950 . S
C7393 C7392 1.414 . S
C7393 C7394 1.374 . S
C7394 H7368 0.950 . S
C7394 C7390 1.385 . S
C7394 C7393 1.374 . S
C7395 C7392 1.499 . S
C7395 C7396 1.373 . S
C7395 C7397 1.389 . S
C7396 H7369 0.950 . S
C7396 C7382 1.377 . S
C7396 C7395 1.373 . S
C7397 C7381 1.377 . S
C7397 C7395 1.389 . S
C7397 C7398 1.524 . S
C7398 C7397 1.524 . S
C7398 C7399 1.397 . S
C7398 C7403 1.363 . S
C7399 H7370 0.950 . S
C7399 C7398 1.397 . S
C7399 C7400 1.334 . S
C7400 H7371 0.950 . S
C7400 C7399 1.334 . S
C7400 C7401 1.287 . S
C7401 C7400 1.287 . S
C7401 C7402 1.524 . S
C7401 H7404 0.999 . S
C7402 H7372 0.950 . S
C7402 C7401 1.524 . S
C7402 C7403 1.415 . S
C7403 H7373 0.950 . S
C7403 C7398 1.363 . S
C7403 C7402 1.415 . S
H7404 C7401 0.999 . S
H7405 C7386 0.913 . S
H7406 C7424 0.951 . S
H7407 C7426 0.951 . S
H7408 C7428 0.950 . S
H7409 C7429 0.950 . S
H7410 C7431 0.950 . S
H7411 C7434 0.950 . S
H7412 C7435 0.950 . S
H7413 C7437 0.950 . S
H7414 C7438 0.950 . S
H7415 C7439 0.951 . S
H7416 C7441 0.951 . S
H7417 C7443 0.950 . S
H7418 C7444 0.950 . S
H7419 C7446 0.950 . S
H7420 C7449 0.950 . S
H7421 C7450 0.950 . S
H7422 C7452 0.950 . S
H7423 C7453 0.950 . S
C7424 H7406 0.951 . S
C7424 C7425 1.366 . S
C7424 C7426 1.388 . S
C7425 C7424 1.366 . S
C7425 C7429 1.385 . S
C7426 H7407 0.951 . S
C7426 C7424 1.388 . S
C7426 C7427 1.366 . S
C7427 C7426 1.366 . S
C7427 C7428 1.414 . S
C7427 C7430 1.499 . S
C7428 H7408 0.950 . S
C7428 C7427 1.414 . S
C7428 C7429 1.374 . S
C7429 H7409 0.950 . S
C7429 C7425 1.385 . S
C7429 C7428 1.374 . S
C7430 C7427 1.499 . S
C7430 C7431 1.373 . S
C7430 C7432 1.389 . S
C7431 H7410 0.950 . S
C7431 C7430 1.373 . S
C7431 C7447 1.377 . S
C7432 C7430 1.389 . S
C7432 C7433 1.524 . S
C7432 C7446 1.377 . S
C7433 C7432 1.524 . S
C7433 C7434 1.397 . S
C7433 C7438 1.363 . S
C7434 H7411 0.950 . S
C7434 C7433 1.397 . S
C7434 C7435 1.334 . S
C7435 H7412 0.950 . S
C7435 C7434 1.334 . S
C7435 C7436 1.287 . S
C7436 C7435 1.287 . S
C7436 C7437 1.524 . S
C7436 H7455 0.913 . S
C7437 H7413 0.950 . S
C7437 C7436 1.524 . S
C7437 C7438 1.415 . S
C7438 H7414 0.950 . S
C7438 C7433 1.363 . S
C7438 C7437 1.415 . S
C7439 H7415 0.951 . S
C7439 C7440 1.366 . S
C7439 C7441 1.388 . S
C7440 C7439 1.366 . S
C7440 C7444 1.385 . S
C7441 H7416 0.951 . S
C7441 C7439 1.388 . S
C7441 C7442 1.366 . S
C7442 C7441 1.366 . S
C7442 C7443 1.414 . S
C7442 C7445 1.499 . S
C7443 H7417 0.950 . S
C7443 C7442 1.414 . S
C7443 C7444 1.374 . S
C7444 H7418 0.950 . S
C7444 C7440 1.385 . S
C7444 C7443 1.374 . S
C7445 C7442 1.499 . S
C7445 C7446 1.373 . S
C7445 C7447 1.389 . S
C7446 H7419 0.950 . S
C7446 C7432 1.377 . S
C7446 C7445 1.373 . S
C7447 C7431 1.377 . S
C7447 C7445 1.389 . S
C7447 C7448 1.524 . S
C7448 C7447 1.524 . S
C7448 C7449 1.397 . S
C7448 C7453 1.363 . S
C7449 H7420 0.950 . S
C7449 C7448 1.397 . S
C7449 C7450 1.334 . S
C7450 H7421 0.950 . S
C7450 C7449 1.334 . S
C7450 C7451 1.287 . S
C7451 C7450 1.287 . S
C7451 C7452 1.524 . S
C7451 H7454 0.999 . S
C7452 H7422 0.950 . S
C7452 C7451 1.524 . S
C7452 C7453 1.415 . S
C7453 H7423 0.950 . S
C7453 C7448 1.363 . S
C7453 C7452 1.415 . S
H7454 C7451 0.999 . S
H7455 C7436 0.913 . S
H7456 C7474 0.951 . S
H7457 C7476 0.951 . S
H7458 C7478 0.950 . S
H7459 C7479 0.950 . S
H7460 C7481 0.950 . S
H7461 C7484 0.950 . S
H7462 C7485 0.950 . S
H7463 C7487 0.950 . S
H7464 C7488 0.950 . S
H7465 C7489 0.951 . S
H7466 C7491 0.951 . S
H7467 C7493 0.950 . S
H7468 C7494 0.950 . S
H7469 C7496 0.950 . S
H7470 C7499 0.950 . S
H7471 C7500 0.950 . S
H7472 C7502 0.950 . S
H7473 C7503 0.950 . S
C7474 H7456 0.951 . S
C7474 C7475 1.366 . S
C7474 C7476 1.388 . S
C7475 C7474 1.366 . S
C7475 C7479 1.385 . S
C7476 H7457 0.951 . S
C7476 C7474 1.388 . S
C7476 C7477 1.366 . S
C7477 C7476 1.366 . S
C7477 C7478 1.414 . S
C7477 C7480 1.499 . S
C7478 H7458 0.950 . S
C7478 C7477 1.414 . S
C7478 C7479 1.374 . S
C7479 H7459 0.950 . S
C7479 C7475 1.385 . S
C7479 C7478 1.374 . S
C7480 C7477 1.499 . S
C7480 C7481 1.373 . S
C7480 C7482 1.389 . S
C7481 H7460 0.950 . S
C7481 C7480 1.373 . S
C7481 C7497 1.377 . S
C7482 C7480 1.389 . S
C7482 C7483 1.524 . S
C7482 C7496 1.377 . S
C7483 C7482 1.524 . S
C7483 C7484 1.397 . S
C7483 C7488 1.363 . S
C7484 H7461 0.950 . S
C7484 C7483 1.397 . S
C7484 C7485 1.334 . S
C7485 H7462 0.950 . S
C7485 C7484 1.334 . S
C7485 C7486 1.287 . S
C7486 C7485 1.287 . S
C7486 C7487 1.524 . S
C7486 H7505 0.913 . S
C7487 H7463 0.950 . S
C7487 C7486 1.524 . S
C7487 C7488 1.415 . S
C7488 H7464 0.950 . S
C7488 C7483 1.363 . S
C7488 C7487 1.415 . S
C7489 H7465 0.951 . S
C7489 C7490 1.366 . S
C7489 C7491 1.388 . S
C7490 C7489 1.366 . S
C7490 C7494 1.385 . S
C7491 H7466 0.951 . S
C7491 C7489 1.388 . S
C7491 C7492 1.366 . S
C7492 C7491 1.366 . S
C7492 C7493 1.414 . S
C7492 C7495 1.499 . S
C7493 H7467 0.950 . S
C7493 C7492 1.414 . S
C7493 C7494 1.374 . S
C7494 H7468 0.950 . S
C7494 C7490 1.385 . S
C7494 C7493 1.374 . S
C7495 C7492 1.499 . S
C7495 C7496 1.373 . S
C7495 C7497 1.389 . S
C7496 H7469 0.950 . S
C7496 C7482 1.377 . S
C7496 C7495 1.373 . S
C7497 C7481 1.377 . S
C7497 C7495 1.389 . S
C7497 C7498 1.524 . S
C7498 C7497 1.524 . S
C7498 C7499 1.397 . S
C7498 C7503 1.363 . S
C7499 H7470 0.950 . S
C7499 C7498 1.397 . S
C7499 C7500 1.334 . S
C7500 H7471 0.950 . S
C7500 C7499 1.334 . S
C7500 C7501 1.287 . S
C7501 C7500 1.287 . S
C7501 C7502 1.524 . S
C7501 H7504 0.999 . S
C7502 H7472 0.950 . S
C7502 C7501 1.524 . S
C7502 C7503 1.415 . S
C7503 H7473 0.950 . S
C7503 C7498 1.363 . S
C7503 C7502 1.415 . S
H7504 C7501 0.999 . S
H7505 C7486 0.913 . S
H7506 C7524 0.951 . S
H7507 C7526 0.951 . S
H7508 C7528 0.950 . S
H7509 C7529 0.950 . S
H7510 C7531 0.950 . S
H7511 C7534 0.950 . S
H7512 C7535 0.950 . S
H7513 C7537 0.950 . S
H7514 C7538 0.950 . S
H7515 C7539 0.951 . S
H7516 C7541 0.951 . S
H7517 C7543 0.950 . S
H7518 C7544 0.950 . S
H7519 C7546 0.950 . S
H7520 C7549 0.950 . S
H7521 C7550 0.950 . S
H7522 C7552 0.950 . S
H7523 C7553 0.950 . S
C7524 H7506 0.951 . S
C7524 C7525 1.366 . S
C7524 C7526 1.388 . S
C7525 C7524 1.366 . S
C7525 C7529 1.385 . S
C7526 H7507 0.951 . S
C7526 C7524 1.388 . S
C7526 C7527 1.366 . S
C7527 C7526 1.366 . S
C7527 C7528 1.414 . S
C7527 C7530 1.499 . S
C7528 H7508 0.950 . S
C7528 C7527 1.414 . S
C7528 C7529 1.374 . S
C7529 H7509 0.950 . S
C7529 C7525 1.385 . S
C7529 C7528 1.374 . S
C7530 C7527 1.499 . S
C7530 C7531 1.373 . S
C7530 C7532 1.389 . S
C7531 H7510 0.950 . S
C7531 C7530 1.373 . S
C7531 C7547 1.377 . S
C7532 C7530 1.389 . S
C7532 C7533 1.524 . S
C7532 C7546 1.377 . S
C7533 C7532 1.524 . S
C7533 C7534 1.397 . S
C7533 C7538 1.363 . S
C7534 H7511 0.950 . S
C7534 C7533 1.397 . S
C7534 C7535 1.334 . S
C7535 H7512 0.950 . S
C7535 C7534 1.334 . S
C7535 C7536 1.287 . S
C7536 C7535 1.287 . S
C7536 C7537 1.524 . S
C7536 H7555 0.913 . S
C7537 H7513 0.950 . S
C7537 C7536 1.524 . S
C7537 C7538 1.415 . S
C7538 H7514 0.950 . S
C7538 C7533 1.363 . S
C7538 C7537 1.415 . S
C7539 H7515 0.951 . S
C7539 C7540 1.366 . S
C7539 C7541 1.388 . S
C7540 C7539 1.366 . S
C7540 C7544 1.385 . S
C7541 H7516 0.951 . S
C7541 C7539 1.388 . S
C7541 C7542 1.366 . S
C7542 C7541 1.366 . S
C7542 C7543 1.414 . S
C7542 C7545 1.499 . S
C7543 H7517 0.950 . S
C7543 C7542 1.414 . S
C7543 C7544 1.374 . S
C7544 H7518 0.950 . S
C7544 C7540 1.385 . S
C7544 C7543 1.374 . S
C7545 C7542 1.499 . S
C7545 C7546 1.373 . S
C7545 C7547 1.389 . S
C7546 H7519 0.950 . S
C7546 C7532 1.377 . S
C7546 C7545 1.373 . S
C7547 C7531 1.377 . S
C7547 C7545 1.389 . S
C7547 C7548 1.524 . S
C7548 C7547 1.524 . S
C7548 C7549 1.397 . S
C7548 C7553 1.363 . S
C7549 H7520 0.950 . S
C7549 C7548 1.397 . S
C7549 C7550 1.334 . S
C7550 H7521 0.950 . S
C7550 C7549 1.334 . S
C7550 C7551 1.287 . S
C7551 C7550 1.287 . S
C7551 C7552 1.524 . S
C7551 H7554 0.999 . S
C7552 H7522 0.950 . S
C7552 C7551 1.524 . S
C7552 C7553 1.415 . S
C7553 H7523 0.950 . S
C7553 C7548 1.363 . S
C7553 C7552 1.415 . S
H7554 C7551 0.999 . S
H7555 C7536 0.913 . S
H7556 C7574 0.951 . S
H7557 C7576 0.951 . S
H7558 C7578 0.950 . S
H7559 C7579 0.950 . S
H7560 C7581 0.950 . S
H7561 C7584 0.950 . S
H7562 C7585 0.950 . S
H7563 C7587 0.950 . S
H7564 C7588 0.950 . S
H7565 C7589 0.951 . S
H7566 C7591 0.951 . S
H7567 C7593 0.950 . S
H7568 C7594 0.949 . S
H7569 C7596 0.950 . S
H7570 C7599 0.950 . S
H7571 C7600 0.950 . S
H7572 C7602 0.950 . S
H7573 C7603 0.950 . S
C7574 H7556 0.951 . S
C7574 C7575 1.366 . S
C7574 C7576 1.388 . S
C7575 C7574 1.366 . S
C7575 C7579 1.385 . S
C7576 H7557 0.951 . S
C7576 C7574 1.388 . S
C7576 C7577 1.366 . S
C7577 C7576 1.366 . S
C7577 C7578 1.414 . S
C7577 C7580 1.499 . S
C7578 H7558 0.950 . S
C7578 C7577 1.414 . S
C7578 C7579 1.374 . S
C7579 H7559 0.950 . S
C7579 C7575 1.385 . S
C7579 C7578 1.374 . S
C7580 C7577 1.499 . S
C7580 C7581 1.373 . S
C7580 C7582 1.389 . S
C7581 H7560 0.950 . S
C7581 C7580 1.373 . S
C7581 C7597 1.377 . S
C7582 C7580 1.389 . S
C7582 C7583 1.524 . S
C7582 C7596 1.377 . S
C7583 C7582 1.524 . S
C7583 C7584 1.397 . S
C7583 C7588 1.363 . S
C7584 H7561 0.950 . S
C7584 C7583 1.397 . S
C7584 C7585 1.334 . S
C7585 H7562 0.950 . S
C7585 C7584 1.334 . S
C7585 C7586 1.287 . S
C7586 C7585 1.287 . S
C7586 C7587 1.524 . S
C7586 H7605 0.913 . S
C7587 H7563 0.950 . S
C7587 C7586 1.524 . S
C7587 C7588 1.415 . S
C7588 H7564 0.950 . S
C7588 C7583 1.363 . S
C7588 C7587 1.415 . S
C7589 H7565 0.951 . S
C7589 C7590 1.346 1_655 S
C7589 C7591 1.388 . S
C7590 C7589 1.346 1_455 S
C7590 C7594 1.383 1_455 S
C7591 H7566 0.951 . S
C7591 C7589 1.388 . S
C7591 C7592 1.366 . S
C7592 C7591 1.366 . S
C7592 C7593 1.414 . S
C7592 C7595 1.499 . S
C7593 H7567 0.950 . S
C7593 C7592 1.414 . S
C7593 C7594 1.374 . S
C7594 H7568 0.949 . S
C7594 C7590 1.383 1_655 S
C7594 C7593 1.374 . S
C7595 C7592 1.499 . S
C7595 C7596 1.373 . S
C7595 C7597 1.389 . S
C7596 H7569 0.950 . S
C7596 C7582 1.377 . S
C7596 C7595 1.373 . S
C7597 C7581 1.377 . S
C7597 C7595 1.389 . S
C7597 C7598 1.524 . S
C7598 C7597 1.524 . S
C7598 C7599 1.397 1_655 S
C7598 C7603 1.363 . S
C7599 H7570 0.950 . S
C7599 C7598 1.397 1_455 S
C7599 C7600 1.334 . S
C7600 H7571 0.950 . S
C7600 C7599 1.334 . S
C7600 C7601 1.287 . S
C7601 C7600 1.287 . S
C7601 C7602 1.524 . S
C7601 H7604 0.999 . S
C7602 H7572 0.950 . S
C7602 C7601 1.524 . S
C7602 C7603 1.415 1_455 S
C7603 H7573 0.950 . S
C7603 C7598 1.363 . S
C7603 C7602 1.415 1_655 S
H7604 C7601 0.999 . S
H7605 C7586 0.913 . S
H7606 C7624 0.951 . S
H7607 C7626 0.951 . S
H7608 C7628 0.950 . S
H7609 C7629 0.950 . S
H7610 C7631 0.950 . S
H7611 C7634 0.950 . S
H7612 C7635 0.950 . S
H7613 C7637 0.950 . S
H7614 C7638 0.950 . S
H7615 C7639 0.951 . S
H7616 C7641 0.951 . S
H7617 C7643 0.950 . S
H7618 C7644 0.950 . S
H7619 C7646 0.950 . S
H7620 C7649 0.950 . S
H7621 C7650 0.950 . S
H7622 C7652 0.950 . S
H7623 C7653 0.950 . S
C7624 H7606 0.951 . S
C7624 C7625 1.366 . S
C7624 C7626 1.388 . S
C7625 C7624 1.366 . S
C7625 C7629 1.385 . S
C7626 H7607 0.951 . S
C7626 C7624 1.388 . S
C7626 C7627 1.366 . S
C7627 C7626 1.366 . S
C7627 C7628 1.414 . S
C7627 C7630 1.499 . S
C7628 H7608 0.950 . S
C7628 C7627 1.414 . S
C7628 C7629 1.374 . S
C7629 H7609 0.950 . S
C7629 C7625 1.385 . S
C7629 C7628 1.374 . S
C7630 C7627 1.499 . S
C7630 C7631 1.373 . S
C7630 C7632 1.389 . S
C7631 H7610 0.950 . S
C7631 C7630 1.373 . S
C7631 C7647 1.377 . S
C7632 C7630 1.389 . S
C7632 C7633 1.524 . S
C7632 C7646 1.377 . S
C7633 C7632 1.524 . S
C7633 C7634 1.397 . S
C7633 C7638 1.363 . S
C7634 H7611 0.950 . S
C7634 C7633 1.397 . S
C7634 C7635 1.334 . S
C7635 H7612 0.950 . S
C7635 C7634 1.334 . S
C7635 C7636 1.287 . S
C7636 C7635 1.287 . S
C7636 C7637 1.524 . S
C7636 H7655 0.913 . S
C7637 H7613 0.950 . S
C7637 C7636 1.524 . S
C7637 C7638 1.415 . S
C7638 H7614 0.950 . S
C7638 C7633 1.363 . S
C7638 C7637 1.415 . S
C7639 H7615 0.951 . S
C7639 C7640 1.366 . S
C7639 C7641 1.388 . S
C7640 C7639 1.366 . S
C7640 C7644 1.385 . S
C7641 H7616 0.951 . S
C7641 C7639 1.388 . S
C7641 C7642 1.366 . S
C7642 C7641 1.366 . S
C7642 C7643 1.414 . S
C7642 C7645 1.499 . S
C7643 H7617 0.950 . S
C7643 C7642 1.414 . S
C7643 C7644 1.374 . S
C7644 H7618 0.950 . S
C7644 C7640 1.385 . S
C7644 C7643 1.374 . S
C7645 C7642 1.499 . S
C7645 C7646 1.373 . S
C7645 C7647 1.389 . S
C7646 H7619 0.950 . S
C7646 C7632 1.377 . S
C7646 C7645 1.373 . S
C7647 C7631 1.377 . S
C7647 C7645 1.389 . S
C7647 C7648 1.524 . S
C7648 C7647 1.524 . S
C7648 C7649 1.397 . S
C7648 C7653 1.363 . S
C7649 H7620 0.950 . S
C7649 C7648 1.397 . S
C7649 C7650 1.334 . S
C7650 H7621 0.950 . S
C7650 C7649 1.334 . S
C7650 C7651 1.287 . S
C7651 C7650 1.287 . S
C7651 C7652 1.524 . S
C7651 H7654 0.999 . S
C7652 H7622 0.950 . S
C7652 C7651 1.524 . S
C7652 C7653 1.415 . S
C7653 H7623 0.950 . S
C7653 C7648 1.363 . S
C7653 C7652 1.415 . S
H7654 C7651 0.999 . S
H7655 C7636 0.913 . S
H7656 C7674 0.951 . S
H7657 C7676 0.951 . S
H7658 C7678 0.950 . S
H7659 C7679 0.950 . S
H7660 C7681 0.950 . S
H7661 C7684 0.950 . S
H7662 C7685 0.950 . S
H7663 C7687 0.950 . S
H7664 C7688 0.950 . S
H7665 C7689 0.951 . S
H7666 C7691 0.951 . S
H7667 C7693 0.950 . S
H7668 C7694 0.950 . S
H7669 C7696 0.950 . S
H7670 C7699 0.950 . S
H7671 C7700 0.950 . S
H7672 C7702 0.950 . S
H7673 C7703 0.950 . S
C7674 H7656 0.951 . S
C7674 C7675 1.366 . S
C7674 C7676 1.388 . S
C7675 C7674 1.366 . S
C7675 C7679 1.385 . S
C7676 H7657 0.951 . S
C7676 C7674 1.388 . S
C7676 C7677 1.366 . S
C7677 C7676 1.366 . S
C7677 C7678 1.414 . S
C7677 C7680 1.499 . S
C7678 H7658 0.950 . S
C7678 C7677 1.414 . S
C7678 C7679 1.374 . S
C7679 H7659 0.950 . S
C7679 C7675 1.385 . S
C7679 C7678 1.374 . S
C7680 C7677 1.499 . S
C7680 C7681 1.373 . S
C7680 C7682 1.389 . S
C7681 H7660 0.950 . S
C7681 C7680 1.373 . S
C7681 C7697 1.377 . S
C7682 C7680 1.389 . S
C7682 C7683 1.524 . S
C7682 C7696 1.377 . S
C7683 C7682 1.524 . S
C7683 C7684 1.397 . S
C7683 C7688 1.363 . S
C7684 H7661 0.950 . S
C7684 C7683 1.397 . S
C7684 C7685 1.334 . S
C7685 H7662 0.950 . S
C7685 C7684 1.334 . S
C7685 C7686 1.287 . S
C7686 C7685 1.287 . S
C7686 C7687 1.524 . S
C7686 H7705 0.913 . S
C7687 H7663 0.950 . S
C7687 C7686 1.524 . S
C7687 C7688 1.415 . S
C7688 H7664 0.950 . S
C7688 C7683 1.363 . S
C7688 C7687 1.415 . S
C7689 H7665 0.951 . S
C7689 C7690 1.366 . S
C7689 C7691 1.388 . S
C7690 C7689 1.366 . S
C7690 C7694 1.385 . S
C7691 H7666 0.951 . S
C7691 C7689 1.388 . S
C7691 C7692 1.366 . S
C7692 C7691 1.366 . S
C7692 C7693 1.414 . S
C7692 C7695 1.499 . S
C7693 H7667 0.950 . S
C7693 C7692 1.414 . S
C7693 C7694 1.374 . S
C7694 H7668 0.950 . S
C7694 C7690 1.385 . S
C7694 C7693 1.374 . S
C7695 C7692 1.499 . S
C7695 C7696 1.373 . S
C7695 C7697 1.389 . S
C7696 H7669 0.950 . S
C7696 C7682 1.377 . S
C7696 C7695 1.373 . S
C7697 C7681 1.377 . S
C7697 C7695 1.389 . S
C7697 C7698 1.524 . S
C7698 C7697 1.524 . S
C7698 C7699 1.397 . S
C7698 C7703 1.363 . S
C7699 H7670 0.950 . S
C7699 C7698 1.397 . S
C7699 C7700 1.334 . S
C7700 H7671 0.950 . S
C7700 C7699 1.334 . S
C7700 C7701 1.287 . S
C7701 C7700 1.287 . S
C7701 C7702 1.524 . S
C7701 H7704 0.999 . S
C7702 H7672 0.950 . S
C7702 C7701 1.524 . S
C7702 C7703 1.415 . S
C7703 H7673 0.950 . S
C7703 C7698 1.363 . S
C7703 C7702 1.415 . S
H7704 C7701 0.999 . S
H7705 C7686 0.913 . S
H7706 C7724 0.951 . S
H7707 C7726 0.951 . S
H7708 C7728 0.950 . S
H7709 C7729 0.950 . S
H7710 C7731 0.950 . S
H7711 C7734 0.950 . S
H7712 C7735 0.950 . S
H7713 C7737 0.950 . S
H7714 C7738 0.950 . S
H7715 C7739 0.951 . S
H7716 C7741 0.951 . S
H7717 C7743 0.950 . S
H7718 C7744 0.950 . S
H7719 C7746 0.950 . S
H7720 C7749 0.950 . S
H7721 C7750 0.950 . S
H7722 C7752 0.950 . S
H7723 C7753 0.950 . S
C7724 H7706 0.951 . S
C7724 C7725 1.366 . S
C7724 C7726 1.388 . S
C7725 C7724 1.366 . S
C7725 C7729 1.385 . S
C7726 H7707 0.951 . S
C7726 C7724 1.388 . S
C7726 C7727 1.366 . S
C7727 C7726 1.366 . S
C7727 C7728 1.414 . S
C7727 C7730 1.499 . S
C7728 H7708 0.950 . S
C7728 C7727 1.414 . S
C7728 C7729 1.374 . S
C7729 H7709 0.950 . S
C7729 C7725 1.385 . S
C7729 C7728 1.374 . S
C7730 C7727 1.499 . S
C7730 C7731 1.373 . S
C7730 C7732 1.389 . S
C7731 H7710 0.950 . S
C7731 C7730 1.373 . S
C7731 C7747 1.377 . S
C7732 C7730 1.389 . S
C7732 C7733 1.524 . S
C7732 C7746 1.377 . S
C7733 C7732 1.524 . S
C7733 C7734 1.397 . S
C7733 C7738 1.363 . S
C7734 H7711 0.950 . S
C7734 C7733 1.397 . S
C7734 C7735 1.334 . S
C7735 H7712 0.950 . S
C7735 C7734 1.334 . S
C7735 C7736 1.287 . S
C7736 C7735 1.287 . S
C7736 C7737 1.524 . S
C7736 H7755 0.913 . S
C7737 H7713 0.950 . S
C7737 C7736 1.524 . S
C7737 C7738 1.415 . S
C7738 H7714 0.950 . S
C7738 C7733 1.363 . S
C7738 C7737 1.415 . S
C7739 H7715 0.951 . S
C7739 C7740 1.366 . S
C7739 C7741 1.388 . S
C7740 C7739 1.366 . S
C7740 C7744 1.385 . S
C7741 H7716 0.951 . S
C7741 C7739 1.388 . S
C7741 C7742 1.366 . S
C7742 C7741 1.366 . S
C7742 C7743 1.414 . S
C7742 C7745 1.499 . S
C7743 H7717 0.950 . S
C7743 C7742 1.414 . S
C7743 C7744 1.374 . S
C7744 H7718 0.950 . S
C7744 C7740 1.385 . S
C7744 C7743 1.374 . S
C7745 C7742 1.499 . S
C7745 C7746 1.373 . S
C7745 C7747 1.389 . S
C7746 H7719 0.950 . S
C7746 C7732 1.377 . S
C7746 C7745 1.373 . S
C7747 C7731 1.377 . S
C7747 C7745 1.389 . S
C7747 C7748 1.524 . S
C7748 C7747 1.524 . S
C7748 C7749 1.397 . S
C7748 C7753 1.363 . S
C7749 H7720 0.950 . S
C7749 C7748 1.397 . S
C7749 C7750 1.334 . S
C7750 H7721 0.950 . S
C7750 C7749 1.334 . S
C7750 C7751 1.287 . S
C7751 C7750 1.287 . S
C7751 C7752 1.524 . S
C7751 H7754 0.999 . S
C7752 H7722 0.950 . S
C7752 C7751 1.524 . S
C7752 C7753 1.415 . S
C7753 H7723 0.950 . S
C7753 C7748 1.363 . S
C7753 C7752 1.415 . S
H7754 C7751 0.999 . S
H7755 C7736 0.913 . S
H7756 C7774 0.951 . S
H7757 C7776 0.951 . S
H7758 C7778 0.950 . S
H7759 C7779 0.950 . S
H7760 C7781 0.950 . S
H7761 C7784 0.950 . S
H7762 C7785 0.950 . S
H7763 C7787 0.950 . S
H7764 C7788 0.950 . S
H7765 C7789 0.951 . S
H7766 C7791 0.951 . S
H7767 C7793 0.950 . S
H7768 C7794 0.950 . S
H7769 C7796 0.950 . S
H7770 C7799 0.950 . S
H7771 C7800 0.950 . S
H7772 C7802 0.950 . S
H7773 C7803 0.950 . S
C7774 H7756 0.951 . S
C7774 C7775 1.366 . S
C7774 C7776 1.388 . S
C7775 C7774 1.366 . S
C7775 C7779 1.385 . S
C7776 H7757 0.951 . S
C7776 C7774 1.388 . S
C7776 C7777 1.366 . S
C7777 C7776 1.366 . S
C7777 C7778 1.414 . S
C7777 C7780 1.499 . S
C7778 H7758 0.950 . S
C7778 C7777 1.414 . S
C7778 C7779 1.374 . S
C7779 H7759 0.950 . S
C7779 C7775 1.385 . S
C7779 C7778 1.374 . S
C7780 C7777 1.499 . S
C7780 C7781 1.373 . S
C7780 C7782 1.389 . S
C7781 H7760 0.950 . S
C7781 C7780 1.373 . S
C7781 C7797 1.377 . S
C7782 C7780 1.389 . S
C7782 C7783 1.524 . S
C7782 C7796 1.377 . S
C7783 C7782 1.524 . S
C7783 C7784 1.397 . S
C7783 C7788 1.363 . S
C7784 H7761 0.950 . S
C7784 C7783 1.397 . S
C7784 C7785 1.334 . S
C7785 H7762 0.950 . S
C7785 C7784 1.334 . S
C7785 C7786 1.287 . S
C7786 C7785 1.287 . S
C7786 C7787 1.524 . S
C7786 H7805 0.913 . S
C7787 H7763 0.950 . S
C7787 C7786 1.524 . S
C7787 C7788 1.415 . S
C7788 H7764 0.950 . S
C7788 C7783 1.363 . S
C7788 C7787 1.415 . S
C7789 H7765 0.951 . S
C7789 C7790 1.366 . S
C7789 C7791 1.388 . S
C7790 C7789 1.366 . S
C7790 C7794 1.385 . S
C7791 H7766 0.951 . S
C7791 C7789 1.388 . S
C7791 C7792 1.366 . S
C7792 C7791 1.366 . S
C7792 C7793 1.414 . S
C7792 C7795 1.499 . S
C7793 H7767 0.950 . S
C7793 C7792 1.414 . S
C7793 C7794 1.374 . S
C7794 H7768 0.950 . S
C7794 C7790 1.385 . S
C7794 C7793 1.374 . S
C7795 C7792 1.499 . S
C7795 C7796 1.373 . S
C7795 C7797 1.389 . S
C7796 H7769 0.950 . S
C7796 C7782 1.377 . S
C7796 C7795 1.373 . S
C7797 C7781 1.377 . S
C7797 C7795 1.389 . S
C7797 C7798 1.524 . S
C7798 C7797 1.524 . S
C7798 C7799 1.397 . S
C7798 C7803 1.363 . S
C7799 H7770 0.950 . S
C7799 C7798 1.397 . S
C7799 C7800 1.334 1_655 S
C7800 H7771 0.950 . S
C7800 C7799 1.334 1_455 S
C7800 C7801 1.287 . S
C7801 C7800 1.287 . S
C7801 C7802 1.524 1_455 S
C7801 H7804 0.999 . S
C7802 H7772 0.950 . S
C7802 C7801 1.524 1_655 S
C7802 C7803 1.415 . S
C7803 H7773 0.950 . S
C7803 C7798 1.363 . S
C7803 C7802 1.415 . S
H7804 C7801 0.999 . S
H7805 C7786 0.913 . S
H7806 C7824 0.951 . S
H7807 C7826 0.951 . S
H7808 C7828 0.950 . S
H7809 C7829 0.950 . S
H7810 C7831 0.950 . S
H7811 C7834 0.950 . S
H7812 C7835 0.950 . S
H7813 C7837 0.950 . S
H7814 C7838 0.950 . S
H7815 C7839 0.951 . S
H7816 C7841 0.951 . S
H7817 C7843 0.950 . S
H7818 C7844 0.950 . S
H7819 C7846 0.950 . S
H7820 C7849 0.950 . S
H7821 C7850 0.950 . S
H7822 C7852 0.950 . S
H7823 C7853 0.950 . S
C7824 H7806 0.951 . S
C7824 C7825 1.366 . S
C7824 C7826 1.388 . S
C7825 C7824 1.366 . S
C7825 C7829 1.385 . S
C7826 H7807 0.951 . S
C7826 C7824 1.388 . S
C7826 C7827 1.366 . S
C7827 C7826 1.366 . S
C7827 C7828 1.414 . S
C7827 C7830 1.499 . S
C7828 H7808 0.950 . S
C7828 C7827 1.414 . S
C7828 C7829 1.374 . S
C7829 H7809 0.950 . S
C7829 C7825 1.385 . S
C7829 C7828 1.374 . S
C7830 C7827 1.499 . S
C7830 C7831 1.373 . S
C7830 C7832 1.389 . S
C7831 H7810 0.950 . S
C7831 C7830 1.373 . S
C7831 C7847 1.377 . S
C7832 C7830 1.389 . S
C7832 C7833 1.524 . S
C7832 C7846 1.377 . S
C7833 C7832 1.524 . S
C7833 C7834 1.397 . S
C7833 C7838 1.363 . S
C7834 H7811 0.950 . S
C7834 C7833 1.397 . S
C7834 C7835 1.334 . S
C7835 H7812 0.950 . S
C7835 C7834 1.334 . S
C7835 C7836 1.287 . S
C7836 C7835 1.287 . S
C7836 C7837 1.524 . S
C7836 H7855 0.913 . S
C7837 H7813 0.950 . S
C7837 C7836 1.524 . S
C7837 C7838 1.415 . S
C7838 H7814 0.950 . S
C7838 C7833 1.363 . S
C7838 C7837 1.415 . S
C7839 H7815 0.951 . S
C7839 C7840 1.366 . S
C7839 C7841 1.388 . S
C7840 C7839 1.366 . S
C7840 C7844 1.385 . S
C7841 H7816 0.951 . S
C7841 C7839 1.388 . S
C7841 C7842 1.366 . S
C7842 C7841 1.366 . S
C7842 C7843 1.414 . S
C7842 C7845 1.499 . S
C7843 H7817 0.950 . S
C7843 C7842 1.414 . S
C7843 C7844 1.374 . S
C7844 H7818 0.950 . S
C7844 C7840 1.385 . S
C7844 C7843 1.374 . S
C7845 C7842 1.499 . S
C7845 C7846 1.373 . S
C7845 C7847 1.389 . S
C7846 H7819 0.950 . S
C7846 C7832 1.377 . S
C7846 C7845 1.373 . S
C7847 C7831 1.377 . S
C7847 C7845 1.389 . S
C7847 C7848 1.524 . S
C7848 C7847 1.524 . S
C7848 C7849 1.397 . S
C7848 C7853 1.363 . S
C7849 H7820 0.950 . S
C7849 C7848 1.397 . S
C7849 C7850 1.334 . S
C7850 H7821 0.950 . S
C7850 C7849 1.334 . S
C7850 C7851 1.287 . S
C7851 C7850 1.287 . S
C7851 C7852 1.524 . S
C7851 H7854 0.999 . S
C7852 H7822 0.950 . S
C7852 C7851 1.524 . S
C7852 C7853 1.415 . S
C7853 H7823 0.950 . S
C7853 C7848 1.363 . S
C7853 C7852 1.415 . S
H7854 C7851 0.999 . S
H7855 C7836 0.913 . S
H7856 C7874 0.951 . S
H7857 C7876 0.951 . S
H7858 C7878 0.950 . S
H7859 C7879 0.950 . S
H7860 C7881 0.950 . S
H7861 C7884 0.950 . S
H7862 C7885 0.950 . S
H7863 C7887 0.950 . S
H7864 C7888 0.950 . S
H7865 C7889 0.951 . S
H7866 C7891 0.951 . S
H7867 C7893 0.950 . S
H7868 C7894 0.950 . S
H7869 C7896 0.950 . S
H7870 C7899 0.950 . S
H7871 C7900 0.950 . S
H7872 C7902 0.950 . S
H7873 C7903 0.950 . S
C7874 H7856 0.951 . S
C7874 C7875 1.366 . S
C7874 C7876 1.388 . S
C7875 C7874 1.366 . S
C7875 C7879 1.385 . S
C7876 H7857 0.951 . S
C7876 C7874 1.388 . S
C7876 C7877 1.366 . S
C7877 C7876 1.366 . S
C7877 C7878 1.414 . S
C7877 C7880 1.499 . S
C7878 H7858 0.950 . S
C7878 C7877 1.414 . S
C7878 C7879 1.374 . S
C7879 H7859 0.950 . S
C7879 C7875 1.385 . S
C7879 C7878 1.374 . S
C7880 C7877 1.499 . S
C7880 C7881 1.373 . S
C7880 C7882 1.389 . S
C7881 H7860 0.950 . S
C7881 C7880 1.373 . S
C7881 C7897 1.377 . S
C7882 C7880 1.389 . S
C7882 C7883 1.524 . S
C7882 C7896 1.377 . S
C7883 C7882 1.524 . S
C7883 C7884 1.397 . S
C7883 C7888 1.363 . S
C7884 H7861 0.950 . S
C7884 C7883 1.397 . S
C7884 C7885 1.334 . S
C7885 H7862 0.950 . S
C7885 C7884 1.334 . S
C7885 C7886 1.287 . S
C7886 C7885 1.287 . S
C7886 C7887 1.524 . S
C7886 H7905 0.913 . S
C7887 H7863 0.950 . S
C7887 C7886 1.524 . S
C7887 C7888 1.415 . S
C7888 H7864 0.950 . S
C7888 C7883 1.363 . S
C7888 C7887 1.415 . S
C7889 H7865 0.951 . S
C7889 C7890 1.366 . S
C7889 C7891 1.388 . S
C7890 C7889 1.366 . S
C7890 C7894 1.385 . S
C7891 H7866 0.951 . S
C7891 C7889 1.388 . S
C7891 C7892 1.366 . S
C7892 C7891 1.366 . S
C7892 C7893 1.414 . S
C7892 C7895 1.499 . S
C7893 H7867 0.950 . S
C7893 C7892 1.414 . S
C7893 C7894 1.374 . S
C7894 H7868 0.950 . S
C7894 C7890 1.385 . S
C7894 C7893 1.374 . S
C7895 C7892 1.499 . S
C7895 C7896 1.373 . S
C7895 C7897 1.389 . S
C7896 H7869 0.950 . S
C7896 C7882 1.377 . S
C7896 C7895 1.373 . S
C7897 C7881 1.377 . S
C7897 C7895 1.389 . S
C7897 C7898 1.524 . S
C7898 C7897 1.524 . S
C7898 C7899 1.397 . S
C7898 C7903 1.363 . S
C7899 H7870 0.950 . S
C7899 C7898 1.397 . S
C7899 C7900 1.334 . S
C7900 H7871 0.950 . S
C7900 C7899 1.334 . S
C7900 C7901 1.287 . S
C7901 C7900 1.287 . S
C7901 C7902 1.524 . S
C7901 H7904 0.999 . S
C7902 H7872 0.950 . S
C7902 C7901 1.524 . S
C7902 C7903 1.415 . S
C7903 H7873 0.950 . S
C7903 C7898 1.363 . S
C7903 C7902 1.415 . S
H7904 C7901 0.999 . S
H7905 C7886 0.913 . S
H7906 C7924 0.951 . S
H7907 C7926 0.951 . S
H7908 C7928 0.950 . S
H7909 C7929 0.950 . S
H7910 C7931 0.950 . S
H7911 C7934 0.950 . S
H7912 C7935 0.950 . S
H7913 C7937 0.950 . S
H7914 C7938 0.950 . S
H7915 C7939 0.944 1_545 S
H7916 C7941 0.951 . S
H7917 C7943 0.950 . S
H7918 C7944 0.950 . S
H7919 C7946 0.950 . S
H7920 C7949 0.950 . S
H7921 C7950 0.950 . S
H7922 C7952 0.950 . S
H7923 C7953 0.966 . S
C7924 H7906 0.951 . S
C7924 C7925 1.366 . S
C7924 C7926 1.388 . S
C7925 C7924 1.366 . S
C7925 C7929 1.385 . S
C7926 H7907 0.951 . S
C7926 C7924 1.388 . S
C7926 C7927 1.366 . S
C7927 C7926 1.366 . S
C7927 C7928 1.414 . S
C7927 C7930 1.499 . S
C7928 H7908 0.950 . S
C7928 C7927 1.414 . S
C7928 C7929 1.374 . S
C7929 H7909 0.950 . S
C7929 C7925 1.385 . S
C7929 C7928 1.374 . S
C7930 C7927 1.499 . S
C7930 C7931 1.373 . S
C7930 C7932 1.389 . S
C7931 H7910 0.950 . S
C7931 C7930 1.373 . S
C7931 C7947 1.377 . S
C7932 C7930 1.389 . S
C7932 C7933 1.524 . S
C7932 C7946 1.377 . S
C7933 C7932 1.524 . S
C7933 C7934 1.397 . S
C7933 C7938 1.363 . S
C7934 H7911 0.950 . S
C7934 C7933 1.397 . S
C7934 C7935 1.334 . S
C7935 H7912 0.950 . S
C7935 C7934 1.334 . S
C7935 C7936 1.287 . S
C7936 C7935 1.287 . S
C7936 C7937 1.524 . S
C7936 H7955 0.913 . S
C7937 H7913 0.950 . S
C7937 C7936 1.524 . S
C7937 C7938 1.415 . S
C7938 H7914 0.950 . S
C7938 C7933 1.363 . S
C7938 C7937 1.415 . S
C7939 H7915 0.944 1_565 S
C7939 C7940 1.366 . S
C7939 C7941 1.388 . S
C7940 C7939 1.366 . S
C7940 C7944 1.385 . S
C7941 H7916 0.951 . S
C7941 C7939 1.388 . S
C7941 C7942 1.366 . S
C7942 C7941 1.366 . S
C7942 C7943 1.414 . S
C7942 C7945 1.499 . S
C7943 H7917 0.950 . S
C7943 C7942 1.414 . S
C7943 C7944 1.374 . S
C7944 H7918 0.950 . S
C7944 C7940 1.385 . S
C7944 C7943 1.374 . S
C7945 C7942 1.499 . S
C7945 C7946 1.373 . S
C7945 C7947 1.389 . S
C7946 H7919 0.950 . S
C7946 C7932 1.377 . S
C7946 C7945 1.373 . S
C7947 C7931 1.377 . S
C7947 C7945 1.389 . S
C7947 C7948 1.524 . S
C7948 C7947 1.524 . S
C7948 C7949 1.397 1_565 S
C7948 C7953 1.368 . S
C7949 H7920 0.950 . S
C7949 C7948 1.397 1_545 S
C7949 C7950 1.334 . S
C7950 H7921 0.950 . S
C7950 C7949 1.334 . S
C7950 C7951 1.287 . S
C7951 C7950 1.287 . S
C7951 C7952 1.524 . S
C7951 H7954 0.999 . S
C7952 H7922 0.950 . S
C7952 C7951 1.524 . S
C7952 C7953 1.395 1_545 S
C7953 H7923 0.966 . S
C7953 C7948 1.368 . S
C7953 C7952 1.395 1_565 S
H7954 C7951 0.999 . S
H7955 C7936 0.913 . S
H7956 C7974 0.951 . S
H7957 C7976 0.951 . S
H7958 C7978 0.950 . S
H7959 C7979 0.950 . S
H7960 C7981 0.950 . S
H7961 C7984 0.950 . S
H7962 C7985 0.950 . S
H7963 C7987 0.950 . S
H7964 C7988 0.950 . S
H7965 C7989 0.951 . S
H7966 C7991 0.951 . S
H7967 C7993 0.950 . S
H7968 C7994 0.950 . S
H7969 C7996 0.950 . S
H7970 C7999 0.950 . S
H7971 C8000 0.950 . S
H7972 C8002 0.950 . S
H7973 C8003 0.950 . S
C7974 H7956 0.951 . S
C7974 C7975 1.366 . S
C7974 C7976 1.388 . S
C7975 C7974 1.366 . S
C7975 C7979 1.385 . S
C7976 H7957 0.951 . S
C7976 C7974 1.388 . S
C7976 C7977 1.366 . S
C7977 C7976 1.366 . S
C7977 C7978 1.414 . S
C7977 C7980 1.499 . S
C7978 H7958 0.950 . S
C7978 C7977 1.414 . S
C7978 C7979 1.374 . S
C7979 H7959 0.950 . S
C7979 C7975 1.385 . S
C7979 C7978 1.374 . S
C7980 C7977 1.499 . S
C7980 C7981 1.373 . S
C7980 C7982 1.389 . S
C7981 H7960 0.950 . S
C7981 C7980 1.373 . S
C7981 C7997 1.377 . S
C7982 C7980 1.389 . S
C7982 C7983 1.524 . S
C7982 C7996 1.377 . S
C7983 C7982 1.524 . S
C7983 C7984 1.397 . S
C7983 C7988 1.363 . S
C7984 H7961 0.950 . S
C7984 C7983 1.397 . S
C7984 C7985 1.334 . S
C7985 H7962 0.950 . S
C7985 C7984 1.334 . S
C7985 C7986 1.287 . S
C7986 C7985 1.287 . S
C7986 C7987 1.524 . S
C7986 H8005 0.913 . S
C7987 H7963 0.950 . S
C7987 C7986 1.524 . S
C7987 C7988 1.415 . S
C7988 H7964 0.950 . S
C7988 C7983 1.363 . S
C7988 C7987 1.415 . S
C7989 H7965 0.951 . S
C7989 C7990 1.366 . S
C7989 C7991 1.388 . S
C7990 C7989 1.366 . S
C7990 C7994 1.385 . S
C7991 H7966 0.951 . S
C7991 C7989 1.388 . S
C7991 C7992 1.366 . S
C7992 C7991 1.366 . S
C7992 C7993 1.414 . S
C7992 C7995 1.499 . S
C7993 H7967 0.950 . S
C7993 C7992 1.414 . S
C7993 C7994 1.374 . S
C7994 H7968 0.950 . S
C7994 C7990 1.385 . S
C7994 C7993 1.374 . S
C7995 C7992 1.499 . S
C7995 C7996 1.373 . S
C7995 C7997 1.389 . S
C7996 H7969 0.950 . S
C7996 C7982 1.377 . S
C7996 C7995 1.373 . S
C7997 C7981 1.377 . S
C7997 C7995 1.389 . S
C7997 C7998 1.524 . S
C7998 C7997 1.524 . S
C7998 C7999 1.397 . S
C7998 C8003 1.363 . S
C7999 H7970 0.950 . S
C7999 C7998 1.397 . S
C7999 C8000 1.334 . S
C8000 H7971 0.950 . S
C8000 C7999 1.334 . S
C8000 C8001 1.287 . S
C8001 C8000 1.287 . S
C8001 C8002 1.524 . S
C8001 H8004 0.999 . S
C8002 H7972 0.950 . S
C8002 C8001 1.524 . S
C8002 C8003 1.415 . S
C8003 H7973 0.950 . S
C8003 C7998 1.363 . S
C8003 C8002 1.415 . S
H8004 C8001 0.999 . S
H8005 C7986 0.913 . S
H8006 C8024 0.951 . S
H8007 C8026 0.951 . S
H8008 C8028 0.950 . S
H8009 C8029 0.950 . S
H8010 C8031 0.950 . S
H8011 C8034 0.950 . S
H8012 C8035 0.950 . S
H8013 C8037 0.950 . S
H8014 C8038 0.950 . S
H8015 C8039 0.951 . S
H8016 C8041 0.951 . S
H8017 C8043 0.950 . S
H8018 C8044 0.950 . S
H8019 C8046 0.950 . S
H8020 C8049 0.950 . S
H8021 C8050 0.950 . S
H8022 C8052 0.950 . S
H8023 C8053 0.950 . S
C8024 H8006 0.951 . S
C8024 C8025 1.366 . S
C8024 C8026 1.388 . S
C8025 C8024 1.366 . S
C8025 C8029 1.385 . S
C8026 H8007 0.951 . S
C8026 C8024 1.388 . S
C8026 C8027 1.366 . S
C8027 C8026 1.366 . S
C8027 C8028 1.414 . S
C8027 C8030 1.499 . S
C8028 H8008 0.950 . S
C8028 C8027 1.414 . S
C8028 C8029 1.374 . S
C8029 H8009 0.950 . S
C8029 C8025 1.385 . S
C8029 C8028 1.374 . S
C8030 C8027 1.499 . S
C8030 C8031 1.373 . S
C8030 C8032 1.389 . S
C8031 H8010 0.950 . S
C8031 C8030 1.373 . S
C8031 C8047 1.377 . S
C8032 C8030 1.389 . S
C8032 C8033 1.524 1_554 S
C8032 C8046 1.377 . S
C8033 C8032 1.524 1_556 S
C8033 C8034 1.397 . S
C8033 C8038 1.363 . S
C8034 H8011 0.950 . S
C8034 C8033 1.397 . S
C8034 C8035 1.334 . S
C8035 H8012 0.950 . S
C8035 C8034 1.334 . S
C8035 C8036 1.287 . S
C8036 C8035 1.287 . S
C8036 C8037 1.524 . S
C8036 H8055 0.913 . S
C8037 H8013 0.950 . S
C8037 C8036 1.524 . S
C8037 C8038 1.415 . S
C8038 H8014 0.950 . S
C8038 C8033 1.363 . S
C8038 C8037 1.415 . S
C8039 H8015 0.951 . S
C8039 C8040 1.366 . S
C8039 C8041 1.388 . S
C8040 C8039 1.366 . S
C8040 C8044 1.385 . S
C8041 H8016 0.951 . S
C8041 C8039 1.388 . S
C8041 C8042 1.366 . S
C8042 C8041 1.366 . S
C8042 C8043 1.414 . S
C8042 C8045 1.499 . S
C8043 H8017 0.950 . S
C8043 C8042 1.414 . S
C8043 C8044 1.374 . S
C8044 H8018 0.950 . S
C8044 C8040 1.385 . S
C8044 C8043 1.374 . S
C8045 C8042 1.499 . S
C8045 C8046 1.373 . S
C8045 C8047 1.389 . S
C8046 H8019 0.950 . S
C8046 C8032 1.377 . S
C8046 C8045 1.373 . S
C8047 C8031 1.377 . S
C8047 C8045 1.389 . S
C8047 C8048 1.524 . S
C8048 C8047 1.524 . S
C8048 C8049 1.397 . S
C8048 C8053 1.363 . S
C8049 H8020 0.950 . S
C8049 C8048 1.397 . S
C8049 C8050 1.334 . S
C8050 H8021 0.950 . S
C8050 C8049 1.334 . S
C8050 C8051 1.287 . S
C8051 C8050 1.287 . S
C8051 C8052 1.524 . S
C8051 H8054 0.999 . S
C8052 H8022 0.950 . S
C8052 C8051 1.524 . S
C8052 C8053 1.415 . S
C8053 H8023 0.950 . S
C8053 C8048 1.363 . S
C8053 C8052 1.415 . S
H8054 C8051 0.999 . S
H8055 C8036 0.913 . S
H8056 C8074 0.951 . S
H8057 C8076 0.951 . S
H8058 C8078 0.950 . S
H8059 C8079 0.950 . S
H8060 C8081 0.950 . S
H8061 C8084 0.950 . S
H8062 C8085 0.950 . S
H8063 C8087 0.950 . S
H8064 C8088 0.950 . S
H8065 C8089 0.951 . S
H8066 C8091 0.951 . S
H8067 C8093 0.950 . S
H8068 C8094 0.950 . S
H8069 C8096 0.950 . S
H8070 C8099 0.950 . S
H8071 C8100 0.950 . S
H8072 C8102 0.950 . S
H8073 C8103 0.950 . S
C8074 H8056 0.951 . S
C8074 C8075 1.366 . S
C8074 C8076 1.388 . S
C8075 C8074 1.366 . S
C8075 C8079 1.385 . S
C8076 H8057 0.951 . S
C8076 C8074 1.388 . S
C8076 C8077 1.366 . S
C8077 C8076 1.366 . S
C8077 C8078 1.414 . S
C8077 C8080 1.499 . S
C8078 H8058 0.950 . S
C8078 C8077 1.414 . S
C8078 C8079 1.374 . S
C8079 H8059 0.950 . S
C8079 C8075 1.385 . S
C8079 C8078 1.374 . S
C8080 C8077 1.499 . S
C8080 C8081 1.373 . S
C8080 C8082 1.389 . S
C8081 H8060 0.950 . S
C8081 C8080 1.373 . S
C8081 C8097 1.377 . S
C8082 C8080 1.389 . S
C8082 C8083 1.524 . S
C8082 C8096 1.377 . S
C8083 C8082 1.524 . S
C8083 C8084 1.397 . S
C8083 C8088 1.363 . S
C8084 H8061 0.950 . S
C8084 C8083 1.397 . S
C8084 C8085 1.334 . S
C8085 H8062 0.950 . S
C8085 C8084 1.334 . S
C8085 C8086 1.287 . S
C8086 C8085 1.287 . S
C8086 C8087 1.524 . S
C8086 H8105 0.913 . S
C8087 H8063 0.950 . S
C8087 C8086 1.524 . S
C8087 C8088 1.415 . S
C8088 H8064 0.950 . S
C8088 C8083 1.363 . S
C8088 C8087 1.415 . S
C8089 H8065 0.951 . S
C8089 C8090 1.366 . S
C8089 C8091 1.388 . S
C8090 C8089 1.366 . S
C8090 C8094 1.385 . S
C8091 H8066 0.951 . S
C8091 C8089 1.388 . S
C8091 C8092 1.366 . S
C8092 C8091 1.366 . S
C8092 C8093 1.414 . S
C8092 C8095 1.499 . S
C8093 H8067 0.950 . S
C8093 C8092 1.414 . S
C8093 C8094 1.374 . S
C8094 H8068 0.950 . S
C8094 C8090 1.385 . S
C8094 C8093 1.374 . S
C8095 C8092 1.499 . S
C8095 C8096 1.373 . S
C8095 C8097 1.389 . S
C8096 H8069 0.950 . S
C8096 C8082 1.377 . S
C8096 C8095 1.373 . S
C8097 C8081 1.377 . S
C8097 C8095 1.389 . S
C8097 C8098 1.524 . S
C8098 C8097 1.524 . S
C8098 C8099 1.397 . S
C8098 C8103 1.363 . S
C8099 H8070 0.950 . S
C8099 C8098 1.397 . S
C8099 C8100 1.334 . S
C8100 H8071 0.950 . S
C8100 C8099 1.334 . S
C8100 C8101 1.287 . S
C8101 C8100 1.287 . S
C8101 C8102 1.524 . S
C8101 H8104 0.999 . S
C8102 H8072 0.950 . S
C8102 C8101 1.524 . S
C8102 C8103 1.415 . S
C8103 H8073 0.950 . S
C8103 C8098 1.363 . S
C8103 C8102 1.415 . S
H8104 C8101 0.999 . S
H8105 C8086 0.913 . S
H8106 C8124 0.951 . S
H8107 C8126 0.951 . S
H8108 C8128 0.950 . S
H8109 C8129 0.950 . S
H8110 C8131 0.950 . S
H8111 C8134 0.950 . S
H8112 C8135 0.950 . S
H8113 C8137 0.950 . S
H8114 C8138 0.950 . S
H8115 C8139 0.951 . S
H8116 C8141 0.951 . S
H8117 C8143 0.950 . S
H8118 C8144 0.950 . S
H8119 C8146 0.950 . S
H8120 C8149 0.950 . S
H8121 C8150 0.950 . S
H8122 C8152 0.950 . S
H8123 C8153 0.950 . S
C8124 H8106 0.951 . S
C8124 C8125 1.366 . S
C8124 C8126 1.388 . S
C8125 C8124 1.366 . S
C8125 C8129 1.385 . S
C8126 H8107 0.951 . S
C8126 C8124 1.388 . S
C8126 C8127 1.366 . S
C8127 C8126 1.366 . S
C8127 C8128 1.414 . S
C8127 C8130 1.499 . S
C8128 H8108 0.950 . S
C8128 C8127 1.414 . S
C8128 C8129 1.374 . S
C8129 H8109 0.950 . S
C8129 C8125 1.385 . S
C8129 C8128 1.374 . S
C8130 C8127 1.499 . S
C8130 C8131 1.373 . S
C8130 C8132 1.389 . S
C8131 H8110 0.950 . S
C8131 C8130 1.373 . S
C8131 C8147 1.377 . S
C8132 C8130 1.389 . S
C8132 C8133 1.524 . S
C8132 C8146 1.377 . S
C8133 C8132 1.524 . S
C8133 C8134 1.397 . S
C8133 C8138 1.363 . S
C8134 H8111 0.950 . S
C8134 C8133 1.397 . S
C8134 C8135 1.334 . S
C8135 H8112 0.950 . S
C8135 C8134 1.334 . S
C8135 C8136 1.287 . S
C8136 C8135 1.287 . S
C8136 C8137 1.524 . S
C8136 H8155 0.913 . S
C8137 H8113 0.950 . S
C8137 C8136 1.524 . S
C8137 C8138 1.415 . S
C8138 H8114 0.950 . S
C8138 C8133 1.363 . S
C8138 C8137 1.415 . S
C8139 H8115 0.951 . S
C8139 C8140 1.366 . S
C8139 C8141 1.388 . S
C8140 C8139 1.366 . S
C8140 C8144 1.385 . S
C8141 H8116 0.951 . S
C8141 C8139 1.388 . S
C8141 C8142 1.366 . S
C8142 C8141 1.366 . S
C8142 C8143 1.414 . S
C8142 C8145 1.499 . S
C8143 H8117 0.950 . S
C8143 C8142 1.414 . S
C8143 C8144 1.374 . S
C8144 H8118 0.950 . S
C8144 C8140 1.385 . S
C8144 C8143 1.374 . S
C8145 C8142 1.499 . S
C8145 C8146 1.373 . S
C8145 C8147 1.389 . S
C8146 H8119 0.950 . S
C8146 C8132 1.377 . S
C8146 C8145 1.373 . S
C8147 C8131 1.377 . S
C8147 C8145 1.389 . S
C8147 C8148 1.524 . S
C8148 C8147 1.524 . S
C8148 C8149 1.397 1_554 S
C8148 C8153 1.363 . S
C8149 H8120 0.950 . S
C8149 C8148 1.397 1_556 S
C8149 C8150 1.334 . S
C8150 H8121 0.950 . S
C8150 C8149 1.334 . S
C8150 C8151 1.287 . S
C8151 C8150 1.287 . S
C8151 C8152 1.524 . S
C8151 H8154 0.999 . S
C8152 H8122 0.950 . S
C8152 C8151 1.524 . S
C8152 C8153 1.415 1_556 S
C8153 H8123 0.950 . S
C8153 C8148 1.363 . S
C8153 C8152 1.415 1_554 S
H8154 C8151 0.999 . S
H8155 C8136 0.913 . S
H8156 C8174 0.951 . S
H8157 C8176 0.951 . S
H8158 C8178 0.950 . S
H8159 C8179 0.950 . S
H8160 C8181 0.950 . S
H8161 C8184 0.950 . S
H8162 C8185 0.950 . S
H8163 C8187 0.950 . S
H8164 C8188 0.950 . S
H8165 C8189 0.951 . S
H8166 C8191 0.951 . S
H8167 C8193 0.950 . S
H8168 C8194 0.950 . S
H8169 C8196 0.950 . S
H8170 C8199 0.950 . S
H8171 C8200 0.950 . S
H8172 C8202 0.950 . S
H8173 C8203 0.950 . S
C8174 H8156 0.951 . S
C8174 C8175 1.366 . S
C8174 C8176 1.388 . S
C8175 C8174 1.366 . S
C8175 C8179 1.385 . S
C8176 H8157 0.951 . S
C8176 C8174 1.388 . S
C8176 C8177 1.366 . S
C8177 C8176 1.366 . S
C8177 C8178 1.414 . S
C8177 C8180 1.499 . S
C8178 H8158 0.950 . S
C8178 C8177 1.414 . S
C8178 C8179 1.374 . S
C8179 H8159 0.950 . S
C8179 C8175 1.385 . S
C8179 C8178 1.374 . S
C8180 C8177 1.499 . S
C8180 C8181 1.373 . S
C8180 C8182 1.389 . S
C8181 H8160 0.950 . S
C8181 C8180 1.373 . S
C8181 C8197 1.377 . S
C8182 C8180 1.389 . S
C8182 C8183 1.524 . S
C8182 C8196 1.377 . S
C8183 C8182 1.524 . S
C8183 C8184 1.397 . S
C8183 C8188 1.363 . S
C8184 H8161 0.950 . S
C8184 C8183 1.397 . S
C8184 C8185 1.334 . S
C8185 H8162 0.950 . S
C8185 C8184 1.334 . S
C8185 C8186 1.287 . S
C8186 C8185 1.287 . S
C8186 C8187 1.524 . S
C8186 H8205 0.913 . S
C8187 H8163 0.950 . S
C8187 C8186 1.524 . S
C8187 C8188 1.415 . S
C8188 H8164 0.950 . S
C8188 C8183 1.363 . S
C8188 C8187 1.415 . S
C8189 H8165 0.951 . S
C8189 C8190 1.366 . S
C8189 C8191 1.388 . S
C8190 C8189 1.366 . S
C8190 C8194 1.385 . S
C8191 H8166 0.951 . S
C8191 C8189 1.388 . S
C8191 C8192 1.366 . S
C8192 C8191 1.366 . S
C8192 C8193 1.414 . S
C8192 C8195 1.499 . S
C8193 H8167 0.950 . S
C8193 C8192 1.414 . S
C8193 C8194 1.374 . S
C8194 H8168 0.950 . S
C8194 C8190 1.385 . S
C8194 C8193 1.374 . S
C8195 C8192 1.499 . S
C8195 C8196 1.373 . S
C8195 C8197 1.389 . S
C8196 H8169 0.950 . S
C8196 C8182 1.377 . S
C8196 C8195 1.373 . S
C8197 C8181 1.377 . S
C8197 C8195 1.389 . S
C8197 C8198 1.524 . S
C8198 C8197 1.524 . S
C8198 C8199 1.397 . S
C8198 C8203 1.363 . S
C8199 H8170 0.950 . S
C8199 C8198 1.397 . S
C8199 C8200 1.334 . S
C8200 H8171 0.950 . S
C8200 C8199 1.334 . S
C8200 C8201 1.287 . S
C8201 C8200 1.287 . S
C8201 C8202 1.524 . S
C8201 H8204 0.999 . S
C8202 H8172 0.950 . S
C8202 C8201 1.524 . S
C8202 C8203 1.415 . S
C8203 H8173 0.950 . S
C8203 C8198 1.363 . S
C8203 C8202 1.415 . S
H8204 C8201 0.999 . S
H8205 C8186 0.913 . S
H8206 C8224 0.951 . S
H8207 C8226 0.951 . S
H8208 C8228 0.950 . S
H8209 C8229 0.950 . S
H8210 C8231 0.950 . S
H8211 C8234 0.950 . S
H8212 C8235 0.950 . S
H8213 C8237 0.950 . S
H8214 C8238 0.950 . S
H8215 C8239 0.951 . S
H8216 C8241 0.951 . S
H8217 C8243 0.950 . S
H8218 C8244 0.950 . S
H8219 C8246 0.950 . S
H8220 C8249 0.950 . S
H8221 C8250 0.950 . S
H8222 C8252 0.950 . S
H8223 C8253 0.950 . S
C8224 H8206 0.951 . S
C8224 C8225 1.366 . S
C8224 C8226 1.388 . S
C8225 C8224 1.366 . S
C8225 C8229 1.385 . S
C8226 H8207 0.951 . S
C8226 C8224 1.388 . S
C8226 C8227 1.366 . S
C8227 C8226 1.366 . S
C8227 C8228 1.414 . S
C8227 C8230 1.499 . S
C8228 H8208 0.950 . S
C8228 C8227 1.414 . S
C8228 C8229 1.374 . S
C8229 H8209 0.950 . S
C8229 C8225 1.385 . S
C8229 C8228 1.374 . S
C8230 C8227 1.499 . S
C8230 C8231 1.373 . S
C8230 C8232 1.389 . S
C8231 H8210 0.950 . S
C8231 C8230 1.373 . S
C8231 C8247 1.377 . S
C8232 C8230 1.389 . S
C8232 C8233 1.524 . S
C8232 C8246 1.377 . S
C8233 C8232 1.524 . S
C8233 C8234 1.397 . S
C8233 C8238 1.363 . S
C8234 H8211 0.950 . S
C8234 C8233 1.397 . S
C8234 C8235 1.334 . S
C8235 H8212 0.950 . S
C8235 C8234 1.334 . S
C8235 C8236 1.287 . S
C8236 C8235 1.287 . S
C8236 C8237 1.524 . S
C8236 H8255 0.913 . S
C8237 H8213 0.950 . S
C8237 C8236 1.524 . S
C8237 C8238 1.415 . S
C8238 H8214 0.950 . S
C8238 C8233 1.363 . S
C8238 C8237 1.415 . S
C8239 H8215 0.951 . S
C8239 C8240 1.366 . S
C8239 C8241 1.388 . S
C8240 C8239 1.366 . S
C8240 C8244 1.385 . S
C8241 H8216 0.951 . S
C8241 C8239 1.388 . S
C8241 C8242 1.366 . S
C8242 C8241 1.366 . S
C8242 C8243 1.414 . S
C8242 C8245 1.499 . S
C8243 H8217 0.950 . S
C8243 C8242 1.414 . S
C8243 C8244 1.374 . S
C8244 H8218 0.950 . S
C8244 C8240 1.385 . S
C8244 C8243 1.374 . S
C8245 C8242 1.499 . S
C8245 C8246 1.373 . S
C8245 C8247 1.389 . S
C8246 H8219 0.950 . S
C8246 C8232 1.377 . S
C8246 C8245 1.373 . S
C8247 C8231 1.377 . S
C8247 C8245 1.389 . S
C8247 C8248 1.524 . S
C8248 C8247 1.524 . S
C8248 C8249 1.397 . S
C8248 C8253 1.363 . S
C8249 H8220 0.950 . S
C8249 C8248 1.397 . S
C8249 C8250 1.334 . S
C8250 H8221 0.950 . S
C8250 C8249 1.334 . S
C8250 C8251 1.287 . S
C8251 C8250 1.287 . S
C8251 C8252 1.524 . S
C8251 H8254 0.999 . S
C8252 H8222 0.950 . S
C8252 C8251 1.524 . S
C8252 C8253 1.415 . S
C8253 H8223 0.950 . S
C8253 C8248 1.363 . S
C8253 C8252 1.415 . S
H8254 C8251 0.999 . S
H8255 C8236 0.913 . S
C3475 C665 1.855 . S
C3490 C2179 1.880 . S
C3525 C381 1.750 . S
C3540 C2252 1.739 . S
C3575 C460 1.742 . S
C3590 C2347 1.775 . S
C3640 C2422 1.487 . S
C3625 C585 1.616 . S
C3675 C108 1.616 . S
C3690 C2506 1.486 . S
C3740 C2599 1.775 . S
C3725 C196 1.742 . S
C3790 C2672 1.738 . S
C3775 C313 1.750 . S
C3825 C49 1.854 . S
C3840 C2767 1.881 . S
C3890 C2168 1.351 . S
C3875 C1457 1.387 . S
C3925 C1545 0.752 . S
C3940 C2254 0.753 . S
C3990 C2336 0.970 . S
C3975 C1721 0.980 . S
C4040 C2431 1.566 . S
C4025 C1113 1.553 . S
C4075 C1428 1.554 . S
C4090 C2515 1.567 . S
C4140 C2588 0.971 . S
C4125 C1516 0.981 . S
C4190 C2674 0.750 . S
C4175 C1692 0.752 . S
C4240 C2756 1.352 . S
C4225 C1085 1.387 . S
C4290 C2170 0.796 . S
C4275 C988 0.804 . S
C4325 C1817 1.650 . S
C4340 C2840 1.628 . S
C4390 C2926 1.230 . S
C4375 C2081 1.311 . S
C4440 C3019 0.727 . S
C4425 C1993 0.729 . S
C4475 C761 0.805 . S
C4490 C2758 0.794 . S
C4525 C821 1.311 . S
C4540 C2338 1.230 . S
C4575 C2053 1.651 . S
C4590 C3092 1.629 . S
C4640 C3187 0.728 . S
C4625 C1868 0.728 . S
C4690 C2167 1.875 . S
C4675 C372 1.852 . S
C4740 C3188 1.735 . S
C4725 C645 1.748 . S
C4775 C577 1.736 . S
C4790 C2335 1.768 . S
C4825 C497 1.612 . S
C4840 C3106 1.484 . S
C4890 C2518 1.485 . S
C4875 C57 1.613 . S
C4925 C293 1.736 . S
C4940 C2923 1.768 . S
C4990 C2684 1.734 1_556 S
C4975 C205 1.744 . S
C5040 C3259 1.875 . S
C5025 C145 1.852 . S
C5090 C2180 1.346 . S
C5075 C909 1.382 . S
C5140 C3190 0.748 . S
C5125 C1956 0.748 . S
C5175 C724 0.976 . S
C5190 C2348 0.965 . S
C5225 C1780 1.550 . S
C5240 C3091 1.561 . S
C5275 C937 1.549 . S
C5290 C2503 1.560 . S
C5340 C2936 0.966 . S
C5325 C1985 0.976 . S
C5375 C753 0.748 . S
C5390 C2686 0.748 . S
C5425 C1809 1.382 . S
C5440 C3272 1.347 . S
C5475 C1173 0.802 . S
C5490 C2182 0.791 . S
C5525 C1105 1.646 . S
C5540 C2852 1.625 . S
C5575 C1633 1.310 . S
C5590 C2602 1.228 . S
C5625 C1553 0.723 . S
C5640 C3007 0.722 . S
C5690 C3274 0.791 . S
C5675 C1729 0.802 . S
C5725 C1340 1.309 . S
C5740 C2350 1.229 . S
C5790 C2432 1.625 . S
C5775 C1604 1.645 . S
C5840 C2251 0.722 . S
C5825 C1252 0.722 . S
C5875 C489 1.854 . S
C5890 C3355 1.881 . S
C5940 C3176 1.738 . S
C5925 C557 1.750 . S
C5975 C636 1.742 . S
C5990 C3439 1.775 . S
C6025 C409 1.616 . S
C6040 C3094 1.486 . S
C6075 C284 1.616 . S
C6090 C2842 1.486 . S
C6140 C2935 1.775 . S
C6125 C20 1.742 . S
C6190 C3008 1.738 . S
C6175 C137 1.750 . S
C6240 C3271 1.881 . S
C6225 C225 1.855 . S
C6290 C3344 1.352 . S
C6275 C1641 1.387 . S
C6325 C1193 0.752 . S
C6340 C3178 0.753 . S
C6390 C3428 0.970 . S
C6375 C1289 0.981 . S
C6440 C3103 1.566 . S
C6425 C1377 1.553 . S
C6490 C2851 1.566 . S
C6475 C1613 1.553 . S
C6525 C1164 0.980 . S
C6540 C2924 0.969 . S
C6590 C3010 0.751 . S
C6575 C1261 0.752 . S
C6625 C1349 1.387 . S
C6640 C3260 1.352 . S
C6690 C3346 0.794 . S
C6675 C1965 0.805 . S
C6725 C849 1.651 . S
C6740 C2504 1.629 . S
C6790 C2590 1.231 . S
C6775 C929 1.311 . S
C6840 C2683 0.728 . S
C6825 C1017 0.728 . S
C6890 C3262 0.794 . S
C6875 C1897 0.806 . S
C6925 C1789 1.311 . S
C6940 C3430 1.230 . S
C6990 C2420 1.629 . S
C6975 C900 1.651 . S
C7040 C2263 0.728 . S
C7025 C733 0.728 . S
C7075 C548 1.852 . S
C7090 C3343 1.876 . S
C7140 C2264 1.735 . S
C7125 C469 1.743 . S
C7175 C401 1.737 . S
C7190 C3427 1.768 . S
C7225 C673 1.613 . S
C7240 C2434 1.478 . S
C7275 C233 1.612 . S
C7290 C2854 1.484 . S
C7340 C2587 1.768 . S
C7325 C117 1.736 . S
C7375 C29 1.743 . S
C7390 C3020 1.734 . S
C7425 C321 1.852 . S
C7440 C2755 1.876 . S
C7490 C3356 1.347 . S
C7475 C2044 1.382 . S
C7525 C997 0.747 . S
C7540 C2266 0.745 . S
C7590 C3440 0.995 . S
C7575 C1877 0.976 . S
C7625 C812 1.549 . S
C7640 C2419 1.560 . S
C7675 C2073 1.549 . S
C7690 C2839 1.561 . S
C7740 C2600 0.967 . S
C7725 C1025 0.984 . S
C7775 C1905 0.748 . S
C7790 C3022 0.749 . S
C7840 C2768 1.347 . S
C7825 C841 1.382 . S
C7890 C3358 0.792 . S
C7875 C1525 0.801 . S
C7940 C2516 1.625 1_565 S
C7925 C1369 1.645 . S
C7975 C1465 1.309 . S
C7990 C2938 1.228 . S
C8040 C2671 0.721 . S
C8025 C1201 0.722 . S
C8075 C1281 0.801 . S
C8090 C2770 0.793 . S
C8125 C1076 1.310 . S
C8140 C3442 1.230 . S
C8190 C3104 1.625 . S
C8175 C1437 1.646 . S
C8240 C3175 0.722 . S
C8225 C1701 0.722 . S
