# Generated by pormake.
# Topology nia, (6,6)-cn, num edge types: 1
# Building blocks:
#     Node 0, Type 0, BuildingBlock: CUKXOW_clean_sbu_0, # of connection points: 6
#     Node 1, Type 0, BuildingBlock: CUKXOW_clean_sbu_0, # of connection points: 6
#     Node 2, Type 1, BuildingBlock: MIDCAF_clean_sbu_0, # of connection points: 6
#     Node 3, Type 1, BuildingBlock: MIDCAF_clean_sbu_0, # of connection points: 6
#     Edge 4, Type (0, 1), BuildingBlock: CIFDUS_clean_linker_0, # of connection points: 2
#     Edge 5, Type (0, 1), BuildingBlock: CIFDUS_clean_linker_0, # of connection points: 2
#     Edge 6, Type (0, 1), BuildingBlock: CIFDUS_clean_linker_0, # of connection points: 2
#     Edge 7, Type (0, 1), BuildingBlock: CIFDUS_clean_linker_0, # of connection points: 2
#     Edge 8, Type (0, 1), BuildingBlock: CIFDUS_clean_linker_0, # of connection points: 2
#     Edge 9, Type (0, 1), BuildingBlock: CIFDUS_clean_linker_0, # of connection points: 2
#     Edge 10, Type (0, 1), BuildingBlock: CIFDUS_clean_linker_0, # of connection points: 2
#     Edge 11, Type (0, 1), BuildingBlock: CIFDUS_clean_linker_0, # of connection points: 2
#     Edge 12, Type (0, 1), BuildingBlock: CIFDUS_clean_linker_0, # of connection points: 2
#     Edge 13, Type (0, 1), BuildingBlock: CIFDUS_clean_linker_0, # of connection points: 2
#     Edge 14, Type (0, 1), BuildingBlock: CIFDUS_clean_linker_0, # of connection points: 2
#     Edge 15, Type (0, 1), BuildingBlock: CIFDUS_clean_linker_0, # of connection points: 2
# Relax obj value: 0.200
# Max RMSD: 0.253
# Mean RMSD: 0.210
data_MOF--net-nia--node1-CUKXOW_clean_sbu_0--node2-MIDCAF_clean_sbu_0--edge1-CIFDUS_clean_linker_0
_symmetry_space_group_name_H-M    P1
_symmetry_Int_Tables_number       1
_symmetry_cell_setting            triclinic
loop_
_symmetry_equiv_pos_as_xyz
'x, y, z'
_cell_length_a     22.148471
_cell_length_b     22.126535
_cell_length_c     24.765814
_cell_angle_alpha  84.857086
_cell_angle_beta   87.098484
_cell_angle_gamma 124.63545
loop_
_atom_site_label
_atom_site_type_symbol
_atom_site_fract_x
_atom_site_fract_y
_atom_site_fract_z
_atom_type_partial_charge
Tb0 Tb -0.01109 0.05779 0.09193 0.0
C1 C 0.11546 0.07874 1.01062 0.0
Tb2 Tb 0.95235 0.93246 1.01996 0.0
O3 O 0.05322 0.03307 0.14011 0.0
O4 O -0.03446 0.94928 0.10339 0.0
O5 O 0.09161 0.11279 1.03694 0.0
C6 C 0.93345 0.81824 0.97693 0.0
O7 O 0.07249 0.00723 1.00499 0.0
C8 C 0.94787 0.0401 0.96842 0.0
C9 C 0.82445 0.91317 0.10104 0.0
O10 O -0.01262 0.86018 1.00451 0.0
O11 O 0.88963 0.83942 0.97506 0.0
O12 O 0.93174 -0.01796 0.94702 0.0
O13 O -0.03401 0.03282 1.01402 0.0
O14 O 0.84662 0.87993 0.07166 0.0
O15 O 0.86954 -0.01751 0.11105 0.0
C16 C -0.00284 0.16678 0.13577 0.0
O17 O 0.00371 0.11725 0.16107 0.0
O18 O -0.01352 0.1554 0.0855 0.0
C19 C 0.01923 0.96527 0.12973 0.0
Tb20 Tb 0.90926 0.96145 0.53422 0.0
C21 C 0.90573 0.8512 0.6289 0.0
Tb22 Tb 0.03985 0.01907 0.60565 0.0
O23 O 0.94274 0.91398 0.47531 0.0
O24 O 0.00485 0.96491 0.53688 0.0
O25 O 0.86636 0.86488 0.59747 0.0
C26 C 0.16134 0.06928 0.65363 0.0
O27 O -0.02383 0.90153 0.63351 0.0
C28 C 0.92904 0.02587 0.64108 0.0
C29 C 0.05506 0.12479 0.50285 0.0
O30 O 0.12783 0.10175 0.64847 0.0
O31 O 0.12784 0.00989 0.63028 0.0
O32 O -0.03231 0.01465 0.67272 0.0
O33 O 0.95591 0.03458 0.59289 0.0
O34 O 0.09053 0.10817 0.5363 0.0
O35 O -0.01701 0.07849 0.4995 0.0
C36 C 0.78645 0.93269 0.49748 0.0
O37 O 0.84416 0.94754 0.46729 0.0
O38 O 0.79752 0.93358 0.5486 0.0
C39 C 0.00218 0.93244 0.49697 0.0
Zn40 Zn 0.27041 0.69896 0.20231 0.0
Zn41 Zn 0.2573 0.676 0.41439 0.0
Zn42 Zn 0.26888 0.6904 0.30855 0.0
C43 C 0.4076 0.76263 0.37713 0.0
C44 C 0.18946 0.5343 0.39136 0.0
O45 O 0.21984 0.75065 0.28072 0.0
O46 O 0.23039 0.75779 0.19048 0.0
C47 C 0.4164 0.7648 0.22335 0.0
O48 O 0.38348 0.74884 0.33033 0.0
O49 O 0.36298 0.73881 0.42011 0.0
O50 O 0.20733 0.56807 0.43239 0.0
O51 O 0.20585 0.57041 0.34289 0.0
O52 O 0.37729 0.74482 0.18458 0.0
O53 O 0.38641 0.75225 0.27279 0.0
O54 O 0.20604 0.57684 0.28621 0.0
O55 O 0.20223 0.59343 0.19728 0.0
C56 C 0.18422 0.55052 0.24126 0.0
O57 O 0.21342 0.74177 0.3383 0.0
O58 O 0.20381 0.72025 0.42849 0.0
C59 C 0.21028 0.77156 0.23346 0.0
C60 C 0.19303 0.74746 0.38627 0.0
Zn61 Zn 0.66955 0.29605 0.91753 0.0
Zn62 Zn 0.67767 0.27884 0.72154 0.0
Zn63 Zn 0.67473 0.28753 0.81875 0.0
C64 C 0.72273 0.42115 0.72319 0.0
C65 C 0.53409 0.18031 0.75935 0.0
O66 O 0.7297 0.23859 0.85758 0.0
O67 O 0.69239 0.2266 0.94472 0.0
C68 C 0.76468 0.43897 0.86976 0.0
O69 O 0.72749 0.40157 0.77266 0.0
O70 O 0.69533 0.3738 0.69077 0.0
O71 O 0.57747 0.18906 0.71968 0.0
O72 O 0.56001 0.21731 0.79951 0.0
O73 O 0.74999 0.40099 0.91567 0.0
O74 O 0.73703 0.4067 0.82787 0.0
O75 O 0.55724 0.22934 0.85367 0.0
O76 O 0.56771 0.26734 0.9343 0.0
C77 C 0.52776 0.233 0.89838 0.0
O78 O 0.73081 0.23217 0.7997 0.0
O79 O 0.75675 0.2652 0.71041 0.0
C80 C 0.72642 0.21643 0.90839 0.0
C81 C 0.7611 0.23332 0.75333 0.0
H82 H 0.11977 -0.00735 0.19833 0.0
H83 H 0.96111 0.82379 0.10867 0.0
H84 H 0.00486 0.74689 0.13531 0.0
H85 H 0.09422 0.73229 0.17926 0.0
H86 H 0.24734 0.89766 0.27348 0.0
H87 H 0.19846 -0.02878 0.25121 0.0
C88 C 0.09441 0.93877 0.18488 0.0
C89 C 0.03914 0.91481 0.14992 0.0
C90 C 0.1185 0.89441 0.20162 0.0
C91 C 0.00548 0.8443 0.13395 0.0
C92 C 0.03008 0.80021 0.14959 0.0
C93 C 0.11597 0.78402 0.19543 0.0
C94 C 0.17418 0.81014 0.22771 0.0
C95 C 0.08751 0.82545 0.18252 0.0
C96 C 0.20225 0.87679 0.24876 0.0
C97 C 0.17462 0.9188 0.23576 0.0
H98 H 0.23193 0.00333 0.66759 0.0
H99 H 0.23222 0.18924 0.70752 0.0
H100 H 0.34208 0.23295 0.75403 0.0
H101 H 0.44562 0.22564 0.77366 0.0
H102 H 0.44963 0.04462 0.72764 0.0
H103 H 0.32924 -0.0099 0.69438 0.0
C104 C 0.25591 0.05316 0.68678 0.0
C105 C 0.22526 0.09384 0.68355 0.0
C106 C 0.31929 0.07826 0.71268 0.0
C107 C 0.25589 0.15776 0.70898 0.0
C108 C 0.31836 0.18254 0.7357 0.0
C109 C 0.41873 0.17304 0.75793 0.0
C110 C 0.45529 0.13844 0.75338 0.0
C111 C 0.35147 0.14415 0.73667 0.0
C112 C 0.4215 0.0714 0.73182 0.0
C113 C 0.35327 0.04078 0.71239 0.0
H114 H 0.06792 0.22204 0.22287 0.0
H115 H 0.95852 0.25749 0.09756 0.0
H116 H -0.00226 0.37635 0.12644 0.0
H117 H 0.07613 0.47609 0.17906 0.0
H118 H 0.20054 0.44846 0.29464 0.0
H119 H 0.14093 0.31955 0.27942 0.0
C120 C 0.0516 0.25531 0.20269 0.0
C121 C 0.011 0.23199 0.15811 0.0
C122 C 0.07707 0.32471 0.21793 0.0
C123 C -0.00969 0.27517 0.13179 0.0
C124 C 0.01278 0.34293 0.1482 0.0
C125 C 0.08908 0.44121 0.20153 0.0
C126 C 0.14099 0.47055 0.23893 0.0
C127 C 0.0582 0.36922 0.18993 0.0
C128 C 0.15845 0.42578 0.26735 0.0
C129 C 0.12539 0.35265 0.25786 0.0
H130 H 0.84722 0.00633 0.73639 0.0
H131 H 0.94957 0.14431 0.57954 0.0
H132 H 0.91556 0.22544 0.6046 0.0
H133 H 0.85638 0.25736 0.66922 0.0
H134 H 0.73322 0.11067 0.81948 0.0
H135 H 0.77817 0.03477 0.80031 0.0
C136 C 0.86129 0.05385 0.70779 0.0
C137 C 0.90059 0.06905 0.65619 0.0
C138 C 0.83949 0.09977 0.72186 0.0
C139 C 0.91862 0.13071 0.61929 0.0
C140 C 0.89979 0.17771 0.63371 0.0
C141 C 0.83966 0.2091 0.69819 0.0
C142 C 0.79393 0.19146 0.74681 0.0
C143 C 0.8604 0.16284 0.68474 0.0
C144 C 0.77151 0.12769 0.7831 0.0
C145 C 0.79587 0.08337 0.77151 0.0
H146 H 0.76322 0.95477 0.17399 0.0
H147 H 0.70777 0.77935 0.07859 0.0
H148 H 0.57675 0.71701 0.11021 0.0
H149 H 0.4777 0.71554 0.1611 0.0
H150 H 0.5322 0.89048 0.25591 0.0
H151 H 0.66451 0.95007 0.22851 0.0
C152 C 0.72268 0.90268 0.16022 0.0
C153 C 0.74551 0.87208 0.12357 0.0
C154 C 0.64745 0.86731 0.17838 0.0
C155 C 0.69198 0.80422 0.10671 0.0
C156 C 0.61697 0.76865 0.12463 0.0
C157 C 0.5188 0.76655 0.17593 0.0
C158 C 0.49593 0.79867 0.21064 0.0
C159 C 0.59413 0.80021 0.15982 0.0
C160 C 0.54904 0.86468 0.2296 0.0
C161 C 0.62439 0.89869 0.21377 0.0
H162 H 0.78176 0.7203 0.60979 0.0
H163 H 0.95742 0.81129 0.71228 0.0
H164 H 0.91642 0.6869 0.75101 0.0
H165 H 0.83706 0.55184 0.75037 0.0
H166 H 0.65906 0.46023 0.65061 0.0
H167 H 0.69581 0.58465 0.61516 0.0
C168 C 0.81028 0.71291 0.64122 0.0
C169 C 0.87295 0.77526 0.65755 0.0
C170 C 0.78692 0.64087 0.66315 0.0
C171 C 0.90942 0.76444 0.69831 0.0
C172 C 0.88623 0.6932 0.7205 0.0
C173 C 0.80525 0.55922 0.72207 0.0
C174 C 0.74485 0.49706 0.70393 0.0
C175 C 0.82603 0.63099 0.70242 0.0
C176 C 0.70589 0.50741 0.66533 0.0
C177 C 0.72659 0.57851 0.64519 0.0
H178 H -0.0069 0.8633 0.41078 0.0
H179 H 0.12231 0.95595 0.54284 0.0
H180 H 0.19695 0.91117 0.51689 0.0
H181 H 0.21905 0.83816 0.46048 0.0
H182 H 0.08622 0.7408 0.33098 0.0
H183 H 0.02 0.79652 0.35097 0.0
C184 C 0.03804 0.87422 0.4336 0.0
C185 C 0.05196 0.9121 0.47912 0.0
C186 C 0.07993 0.84777 0.41858 0.0
C187 C 0.11044 0.92642 0.50808 0.0
C188 C 0.15294 0.90079 0.49318 0.0
C189 C 0.176 0.82984 0.43636 0.0
C190 C 0.15798 0.78654 0.39379 0.0
C191 C 0.13719 0.86025 0.44917 0.0
C192 C 0.10215 0.77564 0.36289 0.0
C193 C 0.0638 0.80667 0.37483 0.0
H194 H 0.18057 0.03553 0.94308 0.0
H195 H 0.2279 0.21783 1.02756 0.0
H196 H 0.35951 0.28325 0.9971 0.0
H197 H 0.46158 0.2851 0.95175 0.0
H198 H 0.41538 0.10211 0.86948 0.0
H199 H 0.28237 0.0408 0.89303 0.0
C200 C 0.21951 0.08976 0.95465 0.0
C201 C 0.19433 0.12133 0.9881 0.0
C202 C 0.29517 0.1269 0.93729 0.0
C203 C 0.24562 0.19206 1.00203 0.0
C204 C 0.32098 0.22947 0.98477 0.0
C205 C 0.42222 0.23195 0.93875 0.0
C206 C 0.44776 0.19822 0.90857 0.0
C207 C 0.34636 0.1968 0.95327 0.0
C208 C 0.39666 0.12965 0.89173 0.0
C209 C 0.3208 0.09436 0.90571 0.0
H210 H -0.00076 0.18619 0.44071 0.0
H211 H 0.20076 0.23782 0.50151 0.0
H212 H 0.26098 0.36896 0.4687 0.0
H213 H 0.25289 0.47029 0.4314 0.0
H214 H 0.05278 0.42092 0.37103 0.0
H215 H -0.00481 0.28723 0.39497 0.0
C216 C 0.05671 0.22583 0.44604 0.0
C217 C 0.09499 0.20192 0.47426 0.0
C218 C 0.09089 0.30161 0.42774 0.0
C219 C 0.16959 0.25436 0.4804 0.0
C220 C 0.20412 0.32958 0.46183 0.0
C221 C 0.19692 0.42993 0.42303 0.0
C222 C 0.15665 0.45445 0.39984 0.0
C223 C 0.16468 0.35393 0.43694 0.0
C224 C 0.08438 0.40256 0.38892 0.0
C225 C 0.05168 0.32646 0.40265 0.0
H226 H 0.84767 0.04839 1.02504 0.0
H227 H -0.01165 0.13028 0.87199 0.0
H228 H 0.93496 0.19666 0.83988 0.0
H229 H 0.84532 0.22847 0.85577 0.0
H230 H 0.69226 0.12801 1.00402 0.0
H231 H 0.75441 0.07342 1.03846 0.0
C232 C 0.86742 0.08195 0.98512 0.0
C233 C 0.92275 0.0865 0.95129 0.0
C234 C 0.83381 0.1161 0.96612 0.0
C235 C 0.9465 0.12762 0.89885 0.0
C236 C 0.91576 0.16503 0.88051 0.0
C237 C 0.82437 0.19285 0.89481 0.0
C238 C 0.76303 0.18073 0.92646 0.0
C239 C 0.85853 0.15878 0.91359 0.0
C240 C 0.73884 0.13757 0.97839 0.0
C241 C 0.77433 0.1063 0.99827 0.0
H242 H 0.73514 0.87586 0.40472 0.0
H243 H 0.68488 0.94896 0.54509 0.0
H244 H 0.56704 0.91286 0.51419 0.0
H245 H 0.47486 0.85148 0.45206 0.0
H246 H 0.51508 0.75991 0.31988 0.0
H247 H 0.64171 0.81459 0.34115 0.0
C248 C 0.69849 0.88446 0.42805 0.0
C249 C 0.71791 0.91471 0.47703 0.0
C250 C 0.62973 0.86094 0.4111 0.0
C251 C 0.67032 0.9252 0.50746 0.0
C252 C 0.60326 0.90478 0.48976 0.0
C253 C 0.51177 0.84438 0.42742 0.0
C254 C 0.48674 0.8037 0.38344 0.0
C255 C 0.5819 0.8713 0.44233 0.0
C256 C 0.53443 0.79387 0.35231 0.0
C257 C 0.60617 0.82381 0.36525 0.0
H258 H 0.84009 0.74804 0.90361 0.0
H259 H 0.00264 0.7496 0.99348 0.0
H260 H -0.02675 0.63664 0.95876 0.0
H261 H 0.88944 0.52931 0.91311 0.0
H262 H 0.72216 0.52466 0.82818 0.0
H263 H 0.76688 0.64864 0.84885 0.0
C264 C 0.86958 0.72398 0.91505 0.0
C265 C 0.92228 0.75567 0.95171 0.0
C266 C 0.85198 0.65915 0.89533 0.0
C267 C 0.96124 0.72526 0.96567 0.0
C268 C 0.94448 0.66089 0.94586 0.0
C269 C 0.86455 0.55678 0.89778 0.0
C270 C 0.80378 0.51922 0.86837 0.0
C271 C 0.88841 0.62626 0.91201 0.0
C272 C 0.77045 0.55387 0.84953 0.0
C273 C 0.79519 0.62403 0.86216 0.0
loop_
_geom_bond_atom_site_label_1
_geom_bond_atom_site_label_2
_geom_bond_distance
_geom_bond_site_symmetry_2
_ccdc_geom_bond_type
Tb0 O3 2.453 1_545 S
Tb0 O4 2.596 1_545 S
Tb0 O5 2.374 1_554 S
Tb0 O13 2.343 1_454 S
Tb0 O15 2.353 1_455 S
Tb0 O17 2.427 . S
Tb0 O18 2.513 . S
C1 O5 1.251 . S
C1 O7 1.263 . S
Tb2 O4 2.343 1_656 S
Tb2 O7 2.353 1_665 S
Tb2 O10 2.427 . S
Tb2 O11 2.513 . S
Tb2 O12 2.453 1_565 S
Tb2 O13 2.596 1_565 S
Tb2 O14 2.374 1_556 S
O3 Tb0 2.453 1_565 S
O3 C19 1.245 . S
O4 Tb0 2.596 1_565 S
O4 Tb2 2.343 1_454 S
O4 C19 1.259 . S
O5 Tb0 2.374 1_556 S
O5 C1 1.251 . S
C6 O10 1.275 . S
C6 O11 1.246 . S
O7 C1 1.263 . S
O7 Tb2 2.353 1_445 S
C8 O12 1.245 . S
C8 O13 1.259 . S
C9 O14 1.250 . S
C9 O15 1.263 1_565 S
O10 Tb2 2.427 . S
O10 C6 1.275 . S
O11 Tb2 2.513 . S
O11 C6 1.246 . S
O12 Tb2 2.453 1_545 S
O12 C8 1.245 . S
O13 Tb0 2.343 1_656 S
O13 Tb2 2.596 1_545 S
O13 C8 1.259 . S
O14 Tb2 2.374 1_554 S
O14 C9 1.250 . S
O15 Tb0 2.353 1_655 S
O15 C9 1.263 1_545 S
C16 O17 1.275 . S
C16 O18 1.246 . S
O17 Tb0 2.427 . S
O17 C16 1.275 . S
O18 Tb0 2.513 . S
O18 C16 1.246 . S
C19 O3 1.245 . S
C19 O4 1.259 . S
Tb20 O23 2.453 1_655 S
Tb20 O24 2.596 1_665 S
Tb20 O25 2.374 . S
Tb20 O33 2.343 1_565 S
Tb20 O35 2.353 1_665 S
Tb20 O37 2.427 1_565 S
Tb20 O38 2.513 . S
C21 O25 1.251 . S
C21 O27 1.263 . S
Tb22 O24 2.343 . S
Tb22 O27 2.353 1_445 S
Tb22 O30 2.427 . S
Tb22 O31 2.513 . S
Tb22 O32 2.453 1_455 S
Tb22 O33 2.596 1_455 S
Tb22 O34 2.374 . S
O23 Tb20 2.453 1_455 S
O23 C39 1.245 . S
O24 Tb20 2.596 1_445 S
O24 Tb22 2.343 . S
O24 C39 1.259 1_545 S
O25 Tb20 2.374 . S
O25 C21 1.251 . S
C26 O30 1.275 . S
C26 O31 1.246 . S
O27 C21 1.263 . S
O27 Tb22 2.353 1_665 S
C28 O32 1.245 . S
C28 O33 1.259 . S
C29 O34 1.250 . S
C29 O35 1.263 . S
O30 Tb22 2.427 . S
O30 C26 1.275 . S
O31 Tb22 2.513 . S
O31 C26 1.246 . S
O32 Tb22 2.453 1_655 S
O32 C28 1.245 . S
O33 Tb20 2.343 1_545 S
O33 Tb22 2.596 1_655 S
O33 C28 1.259 . S
O34 Tb22 2.374 . S
O34 C29 1.250 . S
O35 Tb20 2.353 1_445 S
O35 C29 1.263 . S
C36 O37 1.275 1_565 S
C36 O38 1.246 . S
O37 Tb20 2.427 1_545 S
O37 C36 1.275 1_545 S
O38 Tb20 2.513 . S
O38 C36 1.246 . S
C39 O23 1.245 . S
C39 O24 1.259 1_565 S
Zn40 O46 1.920 . S
Zn40 O52 1.898 . S
Zn40 O55 1.905 . S
Zn41 O49 1.905 . S
Zn41 O50 1.898 . S
Zn41 O58 1.920 . S
Zn42 O45 2.080 . S
Zn42 O48 2.114 . S
Zn42 O51 2.120 . S
Zn42 O53 2.120 . S
Zn42 O54 2.114 . S
Zn42 O57 2.080 . S
C43 O48 1.166 . S
C43 O49 1.182 . S
C44 O50 1.167 . S
C44 O51 1.299 . S
O45 Zn42 2.080 . S
O45 C59 1.305 . S
O46 Zn40 1.920 . S
O46 C59 1.234 . S
C47 O52 1.167 . S
C47 O53 1.299 . S
O48 Zn42 2.114 . S
O48 C43 1.166 . S
O49 Zn41 1.905 . S
O49 C43 1.182 . S
O50 Zn41 1.898 . S
O50 C44 1.167 . S
O51 Zn42 2.120 . S
O51 C44 1.299 . S
O52 Zn40 1.898 . S
O52 C47 1.167 . S
O53 Zn42 2.120 . S
O53 C47 1.299 . S
O54 Zn42 2.114 . S
O54 C56 1.166 . S
O55 Zn40 1.905 . S
O55 C56 1.182 . S
C56 O54 1.166 . S
C56 O55 1.182 . S
O57 Zn42 2.080 . S
O57 C60 1.305 . S
O58 Zn41 1.920 . S
O58 C60 1.234 . S
C59 O45 1.305 . S
C59 O46 1.234 . S
C60 O57 1.305 . S
C60 O58 1.234 . S
Zn61 O67 1.920 . S
Zn61 O73 1.898 . S
Zn61 O76 1.905 . S
Zn62 O70 1.905 . S
Zn62 O71 1.898 . S
Zn62 O79 1.920 . S
Zn63 O66 2.080 . S
Zn63 O69 2.114 . S
Zn63 O72 2.120 . S
Zn63 O74 2.120 . S
Zn63 O75 2.114 . S
Zn63 O78 2.080 . S
C64 O69 1.166 . S
C64 O70 1.182 . S
C65 O71 1.167 . S
C65 O72 1.299 . S
O66 Zn63 2.080 . S
O66 C80 1.305 . S
O67 Zn61 1.920 . S
O67 C80 1.234 . S
C68 O73 1.167 . S
C68 O74 1.299 . S
O69 Zn63 2.114 . S
O69 C64 1.166 . S
O70 Zn62 1.905 . S
O70 C64 1.182 . S
O71 Zn62 1.898 . S
O71 C65 1.167 . S
O72 Zn63 2.120 . S
O72 C65 1.299 . S
O73 Zn61 1.898 . S
O73 C68 1.167 . S
O74 Zn63 2.120 . S
O74 C68 1.299 . S
O75 Zn63 2.114 . S
O75 C77 1.166 . S
O76 Zn61 1.905 . S
O76 C77 1.182 . S
C77 O75 1.166 . S
C77 O76 1.182 . S
O78 Zn63 2.080 . S
O78 C81 1.305 . S
O79 Zn62 1.920 . S
O79 C81 1.234 . S
C80 O66 1.305 . S
C80 O67 1.234 . S
C81 O78 1.305 . S
C81 O79 1.234 . S
H82 C88 0.930 . S
H83 C91 0.930 . S
H84 C92 0.930 . S
H85 C93 0.930 . S
H86 C96 0.930 . S
H87 C97 0.930 . S
C88 H82 0.930 . S
C88 C89 1.355 . S
C88 C90 1.415 . S
C89 C88 1.355 . S
C89 C91 1.419 . S
C90 C88 1.415 . S
C90 C95 1.425 . S
C90 C97 1.409 . S
C91 H83 0.930 . S
C91 C89 1.419 . S
C91 C92 1.362 . S
C92 H84 0.930 . S
C92 C91 1.362 . S
C92 C95 1.409 . S
C93 H85 0.930 . S
C93 C94 1.355 . S
C93 C95 1.415 . S
C94 C93 1.355 . S
C94 C96 1.419 . S
C95 C90 1.425 . S
C95 C92 1.409 . S
C95 C93 1.415 . S
C96 H86 0.930 . S
C96 C94 1.419 . S
C96 C97 1.362 . S
C97 H87 0.930 . S
C97 C90 1.409 . S
C97 C96 1.362 . S
H98 C104 0.930 . S
H99 C107 0.930 . S
H100 C108 0.930 . S
H101 C109 0.930 . S
H102 C112 0.930 . S
H103 C113 0.930 . S
C104 H98 0.930 . S
C104 C105 1.355 . S
C104 C106 1.415 . S
C105 C104 1.355 . S
C105 C107 1.419 . S
C106 C104 1.415 . S
C106 C111 1.425 . S
C106 C113 1.409 . S
C107 H99 0.930 . S
C107 C105 1.419 . S
C107 C108 1.362 . S
C108 H100 0.930 . S
C108 C107 1.362 . S
C108 C111 1.409 . S
C109 H101 0.930 . S
C109 C110 1.355 . S
C109 C111 1.415 . S
C110 C109 1.355 . S
C110 C112 1.419 . S
C111 C106 1.425 . S
C111 C108 1.409 . S
C111 C109 1.415 . S
C112 H102 0.930 . S
C112 C110 1.419 . S
C112 C113 1.362 . S
C113 H103 0.930 . S
C113 C106 1.409 . S
C113 C112 1.362 . S
H114 C120 0.930 . S
H115 C123 0.930 . S
H116 C124 0.930 . S
H117 C125 0.930 . S
H118 C128 0.930 . S
H119 C129 0.930 . S
C120 H114 0.930 . S
C120 C121 1.355 . S
C120 C122 1.415 . S
C121 C120 1.355 . S
C121 C123 1.419 . S
C122 C120 1.415 . S
C122 C127 1.425 . S
C122 C129 1.409 . S
C123 H115 0.930 . S
C123 C121 1.419 . S
C123 C124 1.362 . S
C124 H116 0.930 . S
C124 C123 1.362 . S
C124 C127 1.409 . S
C125 H117 0.930 . S
C125 C126 1.355 . S
C125 C127 1.415 . S
C126 C125 1.355 . S
C126 C128 1.419 . S
C127 C122 1.425 . S
C127 C124 1.409 . S
C127 C125 1.415 . S
C128 H118 0.930 . S
C128 C126 1.419 . S
C128 C129 1.362 . S
C129 H119 0.930 . S
C129 C122 1.409 . S
C129 C128 1.362 . S
H130 C136 0.930 . S
H131 C139 0.930 1_455 S
H132 C140 0.930 1_455 S
H133 C141 0.930 . S
H134 C144 0.930 . S
H135 C145 0.930 . S
C136 H130 0.930 . S
C136 C137 1.355 . S
C136 C138 1.415 . S
C137 C136 1.355 . S
C137 C139 1.419 . S
C138 C136 1.415 . S
C138 C143 1.425 . S
C138 C145 1.409 . S
C139 H131 0.930 1_655 S
C139 C137 1.419 . S
C139 C140 1.362 . S
C140 H132 0.930 1_655 S
C140 C139 1.362 . S
C140 C143 1.409 . S
C141 H133 0.930 . S
C141 C142 1.355 . S
C141 C143 1.415 . S
C142 C141 1.355 . S
C142 C144 1.419 . S
C143 C138 1.425 . S
C143 C140 1.409 . S
C143 C141 1.415 . S
C144 H134 0.930 . S
C144 C142 1.419 . S
C144 C145 1.362 . S
C145 H135 0.930 . S
C145 C138 1.409 . S
C145 C144 1.362 . S
H146 C152 0.930 1_545 S
H147 C155 0.930 . S
H148 C156 0.930 . S
H149 C157 0.930 . S
H150 C160 0.930 . S
H151 C161 0.930 1_545 S
C152 H146 0.930 1_565 S
C152 C153 1.355 . S
C152 C154 1.415 . S
C153 C152 1.355 . S
C153 C155 1.419 . S
C154 C152 1.415 . S
C154 C159 1.425 . S
C154 C161 1.409 . S
C155 H147 0.930 . S
C155 C153 1.419 . S
C155 C156 1.362 . S
C156 H148 0.930 . S
C156 C155 1.362 . S
C156 C159 1.409 . S
C157 H149 0.930 . S
C157 C158 1.355 . S
C157 C159 1.415 . S
C158 C157 1.355 . S
C158 C160 1.419 . S
C159 C154 1.425 . S
C159 C156 1.409 . S
C159 C157 1.415 . S
C160 H150 0.930 . S
C160 C158 1.419 . S
C160 C161 1.362 . S
C161 H151 0.930 1_565 S
C161 C154 1.409 . S
C161 C160 1.362 . S
H162 C168 0.930 . S
H163 C171 0.930 1_455 S
H164 C172 0.930 . S
H165 C173 0.930 . S
H166 C176 0.930 . S
H167 C177 0.930 . S
C168 H162 0.930 . S
C168 C169 1.355 . S
C168 C170 1.415 . S
C169 C168 1.355 . S
C169 C171 1.419 . S
C170 C168 1.415 . S
C170 C175 1.425 . S
C170 C177 1.409 . S
C171 H163 0.930 1_655 S
C171 C169 1.419 . S
C171 C172 1.362 . S
C172 H164 0.930 . S
C172 C171 1.362 . S
C172 C175 1.409 . S
C173 H165 0.930 . S
C173 C174 1.355 . S
C173 C175 1.415 . S
C174 C173 1.355 . S
C174 C176 1.419 . S
C175 C170 1.425 . S
C175 C172 1.409 . S
C175 C173 1.415 . S
C176 H166 0.930 . S
C176 C174 1.419 . S
C176 C177 1.362 . S
C177 H167 0.930 . S
C177 C170 1.409 . S
C177 C176 1.362 . S
H178 C184 0.930 . S
H179 C187 0.930 . S
H180 C188 0.930 . S
H181 C189 0.930 . S
H182 C192 0.930 . S
H183 C193 0.930 . S
C184 H178 0.930 . S
C184 C185 1.355 . S
C184 C186 1.415 . S
C185 C184 1.355 . S
C185 C187 1.419 . S
C186 C184 1.415 . S
C186 C191 1.425 . S
C186 C193 1.409 . S
C187 H179 0.930 . S
C187 C185 1.419 . S
C187 C188 1.362 . S
C188 H180 0.930 . S
C188 C187 1.362 . S
C188 C191 1.409 . S
C189 H181 0.930 . S
C189 C190 1.355 . S
C189 C191 1.415 . S
C190 C189 1.355 . S
C190 C192 1.419 . S
C191 C186 1.425 . S
C191 C188 1.409 . S
C191 C189 1.415 . S
C192 H182 0.930 . S
C192 C190 1.419 . S
C192 C193 1.362 . S
C193 H183 0.930 . S
C193 C186 1.409 . S
C193 C192 1.362 . S
H194 C200 0.930 . S
H195 C203 0.930 . S
H196 C204 0.930 . S
H197 C205 0.930 . S
H198 C208 0.930 . S
H199 C209 0.930 . S
C200 H194 0.930 . S
C200 C201 1.355 . S
C200 C202 1.415 . S
C201 C200 1.355 . S
C201 C203 1.419 . S
C202 C200 1.415 . S
C202 C207 1.425 . S
C202 C209 1.409 . S
C203 H195 0.930 . S
C203 C201 1.419 . S
C203 C204 1.362 . S
C204 H196 0.930 . S
C204 C203 1.362 . S
C204 C207 1.409 . S
C205 H197 0.930 . S
C205 C206 1.355 . S
C205 C207 1.415 . S
C206 C205 1.355 . S
C206 C208 1.419 . S
C207 C202 1.425 . S
C207 C204 1.409 . S
C207 C205 1.415 . S
C208 H198 0.930 . S
C208 C206 1.419 . S
C208 C209 1.362 . S
C209 H199 0.930 . S
C209 C202 1.409 . S
C209 C208 1.362 . S
H210 C216 0.930 . S
H211 C219 0.930 . S
H212 C220 0.930 . S
H213 C221 0.930 . S
H214 C224 0.930 . S
H215 C225 0.930 1_655 S
C216 H210 0.930 . S
C216 C217 1.355 . S
C216 C218 1.415 . S
C217 C216 1.355 . S
C217 C219 1.419 . S
C218 C216 1.415 . S
C218 C223 1.425 . S
C218 C225 1.409 . S
C219 H211 0.930 . S
C219 C217 1.419 . S
C219 C220 1.362 . S
C220 H212 0.930 . S
C220 C219 1.362 . S
C220 C223 1.409 . S
C221 H213 0.930 . S
C221 C222 1.355 . S
C221 C223 1.415 . S
C222 C221 1.355 . S
C222 C224 1.419 . S
C223 C218 1.425 . S
C223 C220 1.409 . S
C223 C221 1.415 . S
C224 H214 0.930 . S
C224 C222 1.419 . S
C224 C225 1.362 . S
C225 H215 0.930 1_455 S
C225 C218 1.409 . S
C225 C224 1.362 . S
H226 C232 0.930 . S
H227 C235 0.930 . S
H228 C236 0.930 . S
H229 C237 0.930 . S
H230 C240 0.930 . S
H231 C241 0.930 . S
C232 H226 0.930 . S
C232 C233 1.355 . S
C232 C234 1.415 . S
C233 C232 1.355 . S
C233 C235 1.419 . S
C234 C232 1.415 . S
C234 C239 1.425 . S
C234 C241 1.409 . S
C235 H227 0.930 . S
C235 C233 1.419 . S
C235 C236 1.362 . S
C236 H228 0.930 . S
C236 C235 1.362 . S
C236 C239 1.409 . S
C237 H229 0.930 . S
C237 C238 1.355 . S
C237 C239 1.415 . S
C238 C237 1.355 . S
C238 C240 1.419 . S
C239 C234 1.425 . S
C239 C236 1.409 . S
C239 C237 1.415 . S
C240 H230 0.930 . S
C240 C238 1.419 . S
C240 C241 1.362 . S
C241 H231 0.930 . S
C241 C234 1.409 . S
C241 C240 1.362 . S
H242 C248 0.930 . S
H243 C251 0.930 . S
H244 C252 0.930 . S
H245 C253 0.930 . S
H246 C256 0.930 . S
H247 C257 0.930 . S
C248 H242 0.930 . S
C248 C249 1.355 . S
C248 C250 1.415 . S
C249 C248 1.355 . S
C249 C251 1.419 . S
C250 C248 1.415 . S
C250 C255 1.425 . S
C250 C257 1.409 . S
C251 H243 0.930 . S
C251 C249 1.419 . S
C251 C252 1.362 . S
C252 H244 0.930 . S
C252 C251 1.362 . S
C252 C255 1.409 . S
C253 H245 0.930 . S
C253 C254 1.355 . S
C253 C255 1.415 . S
C254 C253 1.355 . S
C254 C256 1.419 . S
C255 C250 1.425 . S
C255 C252 1.409 . S
C255 C253 1.415 . S
C256 H246 0.930 . S
C256 C254 1.419 . S
C256 C257 1.362 . S
C257 H247 0.930 . S
C257 C250 1.409 . S
C257 C256 1.362 . S
H258 C264 0.930 . S
H259 C267 0.930 1_455 S
H260 C268 0.930 . S
H261 C269 0.930 . S
H262 C272 0.930 . S
H263 C273 0.930 . S
C264 H258 0.930 . S
C264 C265 1.355 . S
C264 C266 1.415 . S
C265 C264 1.355 . S
C265 C267 1.419 . S
C266 C264 1.415 . S
C266 C271 1.425 . S
C266 C273 1.409 . S
C267 H259 0.930 1_655 S
C267 C265 1.419 . S
C267 C268 1.362 . S
C268 H260 0.930 . S
C268 C267 1.362 . S
C268 C271 1.409 . S
C269 H261 0.930 . S
C269 C270 1.355 . S
C269 C271 1.415 . S
C270 C269 1.355 . S
C270 C272 1.419 . S
C271 C266 1.425 . S
C271 C268 1.409 . S
C271 C269 1.415 . S
C272 H262 0.930 . S
C272 C270 1.419 . S
C272 C273 1.362 . S
C273 H263 0.930 . S
C273 C266 1.409 . S
C273 C272 1.362 . S
C89 C19 1.455 . S
C94 C59 1.392 . S
C105 C26 1.245 . S
C110 C65 1.170 . S
C121 C16 1.241 . S
C126 C56 1.246 . S
C137 C28 1.513 . S
C142 C81 1.493 . S
C153 C9 1.823 . S
C158 C47 1.685 . S
C174 C64 1.568 . S
C169 C21 1.668 . S
C185 C39 1.530 . S
C190 C60 1.488 . S
C206 C77 1.549 . S
C201 C1 1.632 . S
C222 C44 1.694 . S
C217 C29 1.823 . S
C238 C80 1.469 . S
C233 C8 1.499 . S
C254 C43 1.243 . S
C249 C36 1.282 . S
C270 C68 1.230 . S
C265 C6 1.327 . S
