# Generated by pormake.
# Topology anh, (6,3)-cn, num edge types: 1
# Building blocks:
#     Node 0, Type 0, BuildingBlock: CUKXOW_clean_sbu_0, # of connection points: 6
#     Node 1, Type 0, BuildingBlock: CUKXOW_clean_sbu_0, # of connection points: 6
#     Node 2, Type 0, BuildingBlock: CUKXOW_clean_sbu_0, # of connection points: 6
#     Node 3, Type 1, BuildingBlock: OLANEW_clean_sbu_2, # of connection points: 3
#     Node 4, Type 1, BuildingBlock: OLANEW_clean_sbu_2, # of connection points: 3
#     Node 5, Type 1, BuildingBlock: OLANEW_clean_sbu_2, # of connection points: 3
#     Node 6, Type 1, BuildingBlock: OLANEW_clean_sbu_2, # of connection points: 3
#     Node 7, Type 1, BuildingBlock: OLANEW_clean_sbu_2, # of connection points: 3
#     Node 8, Type 1, BuildingBlock: OLANEW_clean_sbu_2, # of connection points: 3
#     Edge 9, Type (0, 1), BuildingBlock: AJUNOK_clean_linker_0, # of connection points: 2
#     Edge 10, Type (0, 1), BuildingBlock: AJUNOK_clean_linker_0, # of connection points: 2
#     Edge 11, Type (0, 1), BuildingBlock: AJUNOK_clean_linker_0, # of connection points: 2
#     Edge 12, Type (0, 1), BuildingBlock: AJUNOK_clean_linker_0, # of connection points: 2
#     Edge 13, Type (0, 1), BuildingBlock: AJUNOK_clean_linker_0, # of connection points: 2
#     Edge 14, Type (0, 1), BuildingBlock: AJUNOK_clean_linker_0, # of connection points: 2
#     Edge 15, Type (0, 1), BuildingBlock: AJUNOK_clean_linker_0, # of connection points: 2
#     Edge 16, Type (0, 1), BuildingBlock: AJUNOK_clean_linker_0, # of connection points: 2
#     Edge 17, Type (0, 1), BuildingBlock: AJUNOK_clean_linker_0, # of connection points: 2
#     Edge 18, Type (0, 1), BuildingBlock: AJUNOK_clean_linker_0, # of connection points: 2
#     Edge 19, Type (0, 1), BuildingBlock: AJUNOK_clean_linker_0, # of connection points: 2
#     Edge 20, Type (0, 1), BuildingBlock: AJUNOK_clean_linker_0, # of connection points: 2
#     Edge 21, Type (0, 1), BuildingBlock: AJUNOK_clean_linker_0, # of connection points: 2
#     Edge 22, Type (0, 1), BuildingBlock: AJUNOK_clean_linker_0, # of connection points: 2
#     Edge 23, Type (0, 1), BuildingBlock: AJUNOK_clean_linker_0, # of connection points: 2
#     Edge 24, Type (0, 1), BuildingBlock: AJUNOK_clean_linker_0, # of connection points: 2
#     Edge 25, Type (0, 1), BuildingBlock: AJUNOK_clean_linker_0, # of connection points: 2
#     Edge 26, Type (0, 1), BuildingBlock: AJUNOK_clean_linker_0, # of connection points: 2
# Relax obj value: 0.085
# Max RMSD: 0.151
# Mean RMSD: 0.111
data_MOF--net-anh--node1-CUKXOW_clean_sbu_0--node2-OLANEW_clean_sbu_2--edge1-AJUNOK_clean_linker_0
_symmetry_space_group_name_H-M    P1
_symmetry_Int_Tables_number       1
_symmetry_cell_setting            triclinic
loop_
_symmetry_equiv_pos_as_xyz
'x, y, z'
_cell_length_a     25.12374
_cell_length_b     23.829301
_cell_length_c     36.80369
_cell_angle_alpha  95.087287
_cell_angle_beta   89.964691
_cell_angle_gamma 114.97636
loop_
_atom_site_label
_atom_site_type_symbol
_atom_site_fract_x
_atom_site_fract_y
_atom_site_fract_z
_atom_type_partial_charge
Tb0 Tb 0.07487 0.56812 0.16656 0.0
C1 C 0.03114 0.51228 0.24169 0.0
Tb2 Tb 0.98167 0.43469 0.16633 0.0
O3 O 0.00943 0.59946 0.14912 0.0
O4 O 0.9853 0.5242 0.1802 0.0
O5 O 0.07424 0.55428 0.22467 0.0
C6 C 0.87835 0.33499 0.15845 0.0
O7 O 0.98507 0.46664 0.22394 0.0
C8 C 0.09134 0.44855 0.1691 0.0
C9 C 0.02586 0.49125 0.09063 0.0
O10 O 0.9252 0.33773 0.17495 0.0
O11 O 0.89018 0.38799 0.146 0.0
O12 O 0.04816 0.40289 0.18224 0.0
O13 O 0.07033 0.47856 0.15215 0.0
O14 O 0.98528 0.44664 0.10777 0.0
O15 O 0.06902 0.54018 0.10841 0.0
C16 C 0.17768 0.66835 0.17228 0.0
O17 O 0.12701 0.66858 0.16575 0.0
O18 O 0.17008 0.61208 0.17634 0.0
C19 C 0.96563 0.55457 0.16231 0.0
Tb20 Tb 0.46063 0.98478 0.49816 0.0
C21 C 0.51213 0.03171 0.4241 0.0
Tb22 Tb 0.58685 0.08711 0.49873 0.0
O23 O 0.42557 0.04883 0.48104 0.0
O24 O 0.50351 0.08196 0.51277 0.0
O25 O 0.47447 0.9834 0.44 0.0
C26 C 0.68427 0.1898 0.49109 0.0
O27 O 0.55334 0.08122 0.44286 0.0
C28 C 0.57743 0.97407 0.50185 0.0
C29 C 0.53697 0.03829 0.57295 0.0
O30 O 0.67182 0.13515 0.4745 0.0
O31 O 0.64198 0.18654 0.51225 0.0
O32 O 0.62227 0.02344 0.51564 0.0
O33 O 0.54406 0.99023 0.48439 0.0
O34 O 0.57599 0.08589 0.55714 0.0
O35 O 0.49191 0.99199 0.55466 0.0
C36 C 0.36484 0.87958 0.5043 0.0
O37 O 0.36865 0.93535 0.51217 0.0
O38 O 0.41485 0.88319 0.49276 0.0
C39 C 0.47012 0.09815 0.49527 0.0
Tb40 Tb 0.47826 0.52168 0.82799 0.0
C41 C 0.54482 0.52953 0.90074 0.0
Tb42 Tb 0.60512 0.54098 0.82374 0.0
O43 O 0.45338 0.43017 0.84751 0.0
O44 O 0.52247 0.4656 0.81231 0.0
O45 O 0.50154 0.53904 0.8859 0.0
C46 C 0.70681 0.53142 0.82588 0.0
O47 O 0.58608 0.52229 0.88083 0.0
C48 C 0.58872 0.64205 0.82117 0.0
C49 C 0.53717 0.53029 0.75084 0.0
O50 O 0.69778 0.57772 0.84103 0.0
O51 O 0.65849 0.49041 0.80979 0.0
O52 O 0.63105 0.6331 0.80533 0.0
O53 O 0.56125 0.59763 0.84001 0.0
O54 O 0.58192 0.52375 0.76579 0.0
O55 O 0.49573 0.53713 0.77063 0.0
C56 C 0.3749 0.52741 0.82288 0.0
O57 O 0.38406 0.47847 0.81404 0.0
O58 O 0.42391 0.57304 0.83491 0.0
C59 C 0.49592 0.42172 0.83164 0.0
O60 O 0.51386 0.06346 0.24897 0.0
Cd61 Cd 0.52583 0.06492 0.18308 0.0
O62 O 0.53782 0.98468 0.24951 0.0
Cd63 Cd 0.52856 0.96241 0.19073 0.0
O64 O 0.44962 0.88237 0.16993 0.0
C65 C 0.40138 0.88543 0.17702 0.0
O66 O 0.40262 0.93825 0.19182 0.0
C67 C 0.52456 0.0255 0.26651 0.0
C68 C 0.6405 0.14674 0.16957 0.0
O69 O 0.59883 0.16438 0.17039 0.0
O70 O 0.62763 0.08993 0.17441 0.0
O71 O 0.53293 0.50084 0.57114 0.0
Cd72 Cd 0.52556 0.47981 0.50488 0.0
O73 O 0.48748 0.5618 0.58167 0.0
Cd74 Cd 0.4825 0.58536 0.52625 0.0
O75 O 0.49936 0.67513 0.50662 0.0
C76 C 0.52282 0.72008 0.53136 0.0
O77 O 0.53354 0.70748 0.56386 0.0
C78 C 0.51309 0.53055 0.59336 0.0
C79 C 0.50778 0.3557 0.49251 0.0
O80 O 0.55946 0.39965 0.49832 0.0
O81 O 0.46435 0.37038 0.4909 0.0
O82 O 0.04045 0.52794 0.91806 0.0
Cd83 Cd 0.04488 0.5409 0.85293 0.0
O84 O 0.00852 0.42602 0.91188 0.0
Cd85 Cd 0.98727 0.42276 0.85427 0.0
O86 O 0.92304 0.44643 0.82803 0.0
C87 C 0.9096 0.48307 0.84925 0.0
O88 O 0.93461 0.50064 0.8821 0.0
C89 C 0.02648 0.47702 0.93223 0.0
C90 C 0.14945 0.5383 0.83134 0.0
O91 O 0.1473 0.58973 0.84262 0.0
O92 O 0.1014 0.48865 0.82883 0.0
O93 O 0.05308 0.51831 0.41865 0.0
Cd94 Cd 0.05952 0.53315 0.48512 0.0
O95 O 0.99193 0.56194 0.4142 0.0
Cd96 Cd 0.96791 0.54973 0.47071 0.0
O97 O 0.89988 0.46777 0.49105 0.0
C98 C 0.88497 0.42031 0.46792 0.0
O99 O 0.91234 0.42649 0.43708 0.0
C100 C 0.02527 0.5395 0.39926 0.0
C101 C 0.15689 0.64579 0.50231 0.0
O102 O 0.16201 0.59433 0.49849 0.0
O103 O 0.10516 0.64352 0.49958 0.0
O104 O 0.5425 0.99195 0.74678 0.0
Cd105 Cd 0.55868 0.98698 0.81164 0.0
O106 O 0.5949 0.09311 0.74794 0.0
Cd107 Cd 0.60049 0.11964 0.80643 0.0
O108 O 0.59262 0.20616 0.82268 0.0
C109 C 0.54884 0.20794 0.83917 0.0
O110 O 0.509 0.15657 0.8504 0.0
C111 C 0.56624 0.04052 0.73007 0.0
C112 C 0.56767 0.87565 0.81957 0.0
O113 O 0.51937 0.88026 0.82563 0.0
O114 O 0.61165 0.9237 0.81055 0.0
O115 O 0.5831 0.51295 0.07646 0.0
Cd116 Cd 0.60856 0.51627 0.14131 0.0
O117 O 0.49329 0.5094 0.07361 0.0
Cd118 Cd 0.45382 0.50456 0.12718 0.0
O119 O 0.36906 0.505 0.14276 0.0
C120 C 0.32987 0.46527 0.16063 0.0
O121 O 0.3409 0.4217 0.1739 0.0
C122 C 0.53949 0.51165 0.05814 0.0
C123 C 0.72382 0.52646 0.15046 0.0
O124 O 0.67933 0.47386 0.15101 0.0
O125 O 0.71405 0.57396 0.14575 0.0
C126 C 0.17298 0.42337 0.19003 0.0
C127 C 0.15295 0.45563 0.16742 0.0
C128 C 0.2305 0.42772 0.18818 0.0
C129 C 0.27046 0.46478 0.16375 0.0
H130 H 0.14388 0.39415 0.2092 0.0
H131 H 0.24353 0.40141 0.20593 0.0
S132 S 0.23893 0.55716 0.09763 0.0
N133 N 0.17713 0.52444 0.11899 0.0
N134 N 0.28515 0.534 0.1161 0.0
C135 C 0.25102 0.49782 0.14121 0.0
C136 C 0.19233 0.49285 0.14287 0.0
C137 C 0.74993 0.30153 0.509 0.0
C138 C 0.73678 0.24712 0.48556 0.0
C139 C 0.7987 0.35704 0.50363 0.0
C140 C 0.83567 0.36026 0.47434 0.0
H141 H 0.72223 0.30137 0.53161 0.0
H142 H 0.80678 0.39791 0.52222 0.0
S143 S 0.81976 0.22998 0.40522 0.0
N144 N 0.76448 0.19932 0.43226 0.0
N145 N 0.8557 0.30336 0.4218 0.0
C146 C 0.82301 0.30578 0.45086 0.0
C147 C 0.77368 0.24926 0.45655 0.0
C148 C 0.61379 0.74461 0.7977 0.0
C149 C 0.58188 0.70085 0.82186 0.0
C150 C 0.6094 0.80127 0.79758 0.0
C151 C 0.57216 0.81597 0.8212 0.0
H152 H 0.64246 0.73506 0.77861 0.0
H153 H 0.63468 0.83336 0.77836 0.0
S154 S 0.48255 0.71967 0.89171 0.0
N155 N 0.51517 0.67825 0.87199 0.0
N156 N 0.50447 0.78343 0.87042 0.0
C157 C 0.54015 0.77288 0.84566 0.0
C158 C 0.54565 0.71565 0.84634 0.0
C159 C 0.88814 0.58324 0.13868 0.0
C160 C 0.90359 0.54619 0.16035 0.0
C161 C 0.83009 0.57687 0.13598 0.0
C162 C 0.78485 0.53235 0.15428 0.0
H163 H 0.92119 0.61758 0.12359 0.0
H164 H 0.82043 0.60646 0.11891 0.0
S165 S 0.80243 0.42687 0.21676 0.0
N166 N 0.86927 0.46644 0.20266 0.0
N167 N 0.75973 0.45224 0.19603 0.0
C168 C 0.79958 0.49513 0.1762 0.0
C169 C 0.85904 0.50266 0.17966 0.0
C170 C 0.31549 0.76391 0.49993 0.0
C171 C 0.31184 0.8211 0.5068 0.0
C172 C 0.26545 0.7075 0.50001 0.0
C173 C 0.20971 0.70608 0.50667 0.0
H174 H 0.35719 0.76262 0.49386 0.0
H175 H 0.27041 0.66472 0.49368 0.0
S176 S 0.17754 0.84349 0.52867 0.0
N177 N 0.24893 0.87328 0.52245 0.0
N178 N 0.15462 0.76728 0.52233 0.0
C179 C 0.20584 0.7631 0.51472 0.0
C180 C 0.25698 0.8206 0.51487 0.0
C181 C 0.549 0.35736 0.81109 0.0
C182 C 0.51077 0.36869 0.83541 0.0
C183 C 0.56288 0.30668 0.81352 0.0
C184 C 0.53817 0.26466 0.84 0.0
H185 H 0.56726 0.38692 0.78937 0.0
H186 H 0.59161 0.29925 0.79361 0.0
S187 S 0.43839 0.27606 0.9117 0.0
N188 N 0.4509 0.33595 0.88814 0.0
N189 N 0.47577 0.23965 0.89217 0.0
C190 C 0.50063 0.27611 0.86492 0.0
C191 C 0.48712 0.32829 0.86272 0.0
C192 C 0.52837 0.85914 0.4851 0.0
C193 C 0.56414 0.90993 0.50959 0.0
C194 C 0.51554 0.79786 0.49212 0.0
C195 C 0.53747 0.78526 0.52415 0.0
H196 H 0.51063 0.86683 0.46015 0.0
H197 H 0.48787 0.76017 0.47244 0.0
S198 S 0.63175 0.90294 0.59758 0.0
N199 N 0.62055 0.94418 0.56721 0.0
N200 N 0.59614 0.82957 0.58088 0.0
C201 C 0.57292 0.83603 0.54901 0.0
C202 C 0.58643 0.89824 0.54158 0.0
C203 C 0.76537 0.47101 0.81093 0.0
C204 C 0.76177 0.52395 0.82873 0.0
C205 C 0.81506 0.45966 0.816 0.0
C206 C 0.86227 0.50053 0.83938 0.0
H207 H 0.72892 0.4372 0.79379 0.0
H208 H 0.81521 0.41715 0.80292 0.0
S209 S 0.87703 0.64923 0.88897 0.0
N210 N 0.8116 0.62032 0.86797 0.0
N211 N 0.90476 0.59867 0.87784 0.0
C212 C 0.86036 0.55513 0.85589 0.0
C213 C 0.81008 0.56693 0.85047 0.0
C214 C 0.23768 0.78232 0.17078 0.0
C215 C 0.23511 0.72264 0.17282 0.0
C216 C 0.29176 0.8346 0.17135 0.0
C217 C 0.34518 0.8289 0.17336 0.0
H218 H 0.19765 0.78886 0.16914 0.0
H219 H 0.29168 0.87987 0.17036 0.0
S220 S 0.36206 0.68235 0.17899 0.0
N221 N 0.29036 0.66056 0.177 0.0
N222 N 0.39196 0.75846 0.17731 0.0
C223 C 0.34313 0.76919 0.17479 0.0
C224 C 0.28807 0.71614 0.17477 0.0
C225 C 0.525 0.21171 0.514 0.0
C226 C 0.47903 0.16324 0.49316 0.0
C227 C 0.53511 0.27391 0.51251 0.0
C228 C 0.49837 0.28993 0.49098 0.0
H229 H 0.55277 0.20156 0.53228 0.0
H230 H 0.5708 0.30954 0.52934 0.0
S231 S 0.37146 0.18063 0.43136 0.0
N232 N 0.39678 0.13551 0.4498 0.0
N233 N 0.41418 0.25246 0.44826 0.0
C234 C 0.4518 0.24198 0.47024 0.0
C235 C 0.44239 0.1786 0.47108 0.0
C236 C 0.31362 0.58603 0.83281 0.0
C237 C 0.3175 0.53013 0.82136 0.0
C238 C 0.25915 0.58885 0.83435 0.0
C239 C 0.20654 0.53579 0.82463 0.0
H240 H 0.3528 0.62762 0.84149 0.0
H241 H 0.25832 0.63259 0.84443 0.0
S242 S 0.19387 0.37938 0.78959 0.0
N243 N 0.265 0.42157 0.79771 0.0
N244 N 0.16242 0.4266 0.80064 0.0
C245 C 0.21017 0.48017 0.81162 0.0
C246 C 0.26574 0.47742 0.81 0.0
C247 C 0.77018 0.29338 0.14724 0.0
C248 C 0.81893 0.28373 0.15838 0.0
C249 C 0.71274 0.24834 0.15037 0.0
C250 C 0.70183 0.19149 0.16427 0.0
H251 H 0.77627 0.3369 0.13705 0.0
H252 H 0.67662 0.25856 0.1422 0.0
S253 S 0.81481 0.14231 0.19542 0.0
N254 N 0.85299 0.21258 0.18268 0.0
N255 N 0.74504 0.12725 0.18804 0.0
C256 C 0.75038 0.18041 0.17433 0.0
C257 C 0.80893 0.2267 0.17153 0.0
C258 C 0.05919 0.53753 0.03206 0.0
C259 C 0.02571 0.48505 0.05027 0.0
C260 C 0.06003 0.53397 0.99398 0.0
C261 C 0.02794 0.47767 0.97246 0.0
H262 H 0.08444 0.5822 0.04725 0.0
H263 H 0.08589 0.57601 0.98134 0.0
S264 S 0.93479 0.32589 0.00662 0.0
N265 N 0.96071 0.37441 0.04387 0.0
N266 N 0.96252 0.36768 0.97214 0.0
C267 C 0.99513 0.42438 0.99024 0.0
C268 C 0.99385 0.42815 0.02915 0.0
C269 C 0.5316 0.08418 0.36646 0.0
C270 C 0.51117 0.02895 0.38383 0.0
C271 C 0.53469 0.08283 0.32834 0.0
C272 C 0.51892 0.02636 0.30646 0.0
H273 H 0.54545 0.12879 0.38242 0.0
H274 H 0.55093 0.12638 0.31602 0.0
S275 S 0.46081 0.86868 0.33836 0.0
N276 N 0.47305 0.91609 0.37605 0.0
N277 N 0.47996 0.91373 0.30463 0.0
C278 C 0.49768 0.97079 0.32344 0.0
C279 C 0.49346 0.97205 0.36208 0.0
C280 C 0.49392 0.55104 0.69528 0.0
C281 C 0.53252 0.52981 0.71063 0.0
C282 C 0.48806 0.55106 0.65747 0.0
C283 C 0.52016 0.52934 0.6333 0.0
H284 H 0.4681 0.5683 0.71257 0.0
H285 H 0.45778 0.56804 0.64718 0.0
S286 S 0.62733 0.46856 0.6594 0.0
N287 N 0.60352 0.48636 0.69859 0.0
N288 N 0.59242 0.48622 0.62751 0.0
C289 C 0.55893 0.5078 0.64822 0.0
C290 C 0.5652 0.50818 0.68684 0.0
C291 C 0.57543 0.09249 0.6348 0.0
C292 C 0.5442 0.03677 0.61268 0.0
C293 C 0.58262 0.09284 0.6725 0.0
C294 C 0.55926 0.03735 0.68974 0.0
H295 H 0.59383 0.13657 0.62303 0.0
H296 H 0.60638 0.13732 0.68822 0.0
S297 S 0.47785 0.87805 0.64336 0.0
N298 N 0.49225 0.92405 0.6102 0.0
N299 N 0.50605 0.92449 0.68115 0.0
C300 C 0.52903 0.98096 0.66775 0.0
C301 C 0.52136 0.98069 0.62925 0.0
C302 C 0.5038 0.53591 0.96212 0.0
C303 C 0.54573 0.52517 0.94082 0.0
C304 C 0.50218 0.531 -0.00026 0.0
C305 C 0.54257 0.51538 0.01799 0.0
H306 H 0.47163 0.54829 0.94976 0.0
H307 H 0.46903 0.54015 0.01465 0.0
S308 S 0.6605 0.48078 0.97493 0.0
N309 N 0.62826 0.49682 0.94084 0.0
N310 N 0.62534 0.48802 0.01168 0.0
C311 C 0.58483 0.50438 0.99713 0.0
C312 C 0.58636 0.50914 0.95859 0.0
C313 C 0.97961 0.51423 0.29907 0.0
C314 C 0.0313 0.52019 0.28174 0.0
C315 C 0.97859 0.5222 0.33717 0.0
C316 C 0.02877 0.53463 0.35919 0.0
H317 H 0.93987 0.50408 0.28305 0.0
H318 H 0.93782 0.51721 0.34947 0.0
S319 S 0.17468 0.55347 0.32681 0.0
N320 N 0.13386 0.53967 0.28903 0.0
N321 N 0.13149 0.55233 0.36089 0.0
C322 C 0.08063 0.54015 0.34213 0.0
C323 C 0.08202 0.53362 0.30329 0.0
loop_
_geom_bond_atom_site_label_1
_geom_bond_atom_site_label_2
_geom_bond_distance
_geom_bond_site_symmetry_2
_ccdc_geom_bond_type
Tb0 O3 2.453 1_455 S
Tb0 O4 2.596 1_455 S
Tb0 O5 2.374 . S
Tb0 O13 2.343 . S
Tb0 O15 2.353 . S
Tb0 O17 2.427 . S
Tb0 O18 2.513 . S
C1 O5 1.251 . S
C1 O7 1.263 . S
Tb2 O4 2.343 1_455 S
Tb2 O7 2.353 . S
Tb2 O10 2.427 1_455 S
Tb2 O11 2.513 1_455 S
Tb2 O12 2.453 . S
Tb2 O13 2.596 . S
Tb2 O14 2.374 . S
O3 Tb0 2.453 1_655 S
O3 C19 1.245 . S
O4 Tb0 2.596 1_655 S
O4 Tb2 2.343 1_655 S
O4 C19 1.259 . S
O5 Tb0 2.374 . S
O5 C1 1.251 . S
C6 O10 1.275 . S
C6 O11 1.246 . S
O7 C1 1.263 . S
O7 Tb2 2.353 . S
C8 O12 1.245 . S
C8 O13 1.259 . S
C9 O14 1.250 . S
C9 O15 1.263 . S
O10 Tb2 2.427 1_655 S
O10 C6 1.275 . S
O11 Tb2 2.513 1_655 S
O11 C6 1.246 . S
O12 Tb2 2.453 . S
O12 C8 1.245 . S
O13 Tb0 2.343 . S
O13 Tb2 2.596 . S
O13 C8 1.259 . S
O14 Tb2 2.374 . S
O14 C9 1.250 . S
O15 Tb0 2.353 . S
O15 C9 1.263 . S
C16 O17 1.275 . S
C16 O18 1.246 . S
O17 Tb0 2.427 . S
O17 C16 1.275 . S
O18 Tb0 2.513 . S
O18 C16 1.246 . S
C19 O3 1.245 . S
C19 O4 1.259 . S
Tb20 O23 2.453 . S
Tb20 O24 2.596 . S
Tb20 O25 2.374 . S
Tb20 O33 2.343 1_545 S
Tb20 O35 2.353 . S
Tb20 O37 2.427 1_545 S
Tb20 O38 2.513 1_545 S
C21 O25 1.251 . S
C21 O27 1.263 . S
Tb22 O24 2.343 . S
Tb22 O27 2.353 . S
Tb22 O30 2.427 . S
Tb22 O31 2.513 . S
Tb22 O32 2.453 1_545 S
Tb22 O33 2.596 1_545 S
Tb22 O34 2.374 . S
O23 Tb20 2.453 . S
O23 C39 1.245 . S
O24 Tb20 2.596 . S
O24 Tb22 2.343 . S
O24 C39 1.259 . S
O25 Tb20 2.374 . S
O25 C21 1.251 . S
C26 O30 1.275 . S
C26 O31 1.246 . S
O27 C21 1.263 . S
O27 Tb22 2.353 . S
C28 O32 1.245 . S
C28 O33 1.259 . S
C29 O34 1.250 . S
C29 O35 1.263 . S
O30 Tb22 2.427 . S
O30 C26 1.275 . S
O31 Tb22 2.513 . S
O31 C26 1.246 . S
O32 Tb22 2.453 1_565 S
O32 C28 1.245 . S
O33 Tb20 2.343 1_565 S
O33 Tb22 2.596 1_565 S
O33 C28 1.259 . S
O34 Tb22 2.374 . S
O34 C29 1.250 . S
O35 Tb20 2.353 . S
O35 C29 1.263 . S
C36 O37 1.275 . S
C36 O38 1.246 . S
O37 Tb20 2.427 1_565 S
O37 C36 1.275 . S
O38 Tb20 2.513 1_565 S
O38 C36 1.246 . S
C39 O23 1.245 . S
C39 O24 1.259 . S
Tb40 O43 2.453 . S
Tb40 O44 2.596 . S
Tb40 O45 2.374 . S
Tb40 O53 2.343 . S
Tb40 O55 2.353 . S
Tb40 O57 2.427 . S
Tb40 O58 2.513 . S
C41 O45 1.251 . S
C41 O47 1.263 . S
Tb42 O44 2.343 . S
Tb42 O47 2.353 . S
Tb42 O50 2.427 . S
Tb42 O51 2.513 . S
Tb42 O52 2.453 . S
Tb42 O53 2.596 . S
Tb42 O54 2.374 . S
O43 Tb40 2.453 . S
O43 C59 1.245 . S
O44 Tb40 2.596 . S
O44 Tb42 2.343 . S
O44 C59 1.259 . S
O45 Tb40 2.374 . S
O45 C41 1.251 . S
C46 O50 1.275 . S
C46 O51 1.246 . S
O47 C41 1.263 . S
O47 Tb42 2.353 . S
C48 O52 1.245 . S
C48 O53 1.259 . S
C49 O54 1.250 . S
C49 O55 1.263 . S
O50 Tb42 2.427 . S
O50 C46 1.275 . S
O51 Tb42 2.513 . S
O51 C46 1.246 . S
O52 Tb42 2.453 . S
O52 C48 1.245 . S
O53 Tb40 2.343 . S
O53 Tb42 2.596 . S
O53 C48 1.259 . S
O54 Tb42 2.374 . S
O54 C49 1.250 . S
O55 Tb40 2.353 . S
O55 C49 1.263 . S
C56 O57 1.275 . S
C56 O58 1.246 . S
O57 Tb40 2.427 . S
O57 C56 1.275 . S
O58 Tb40 2.513 . S
O58 C56 1.246 . S
C59 O43 1.245 . S
C59 O44 1.259 . S
O60 Cd61 2.300 . S
O60 C67 1.275 . S
Cd61 O60 2.300 . S
Cd61 O69 2.381 . S
Cd61 O70 2.378 . S
O62 Cd63 2.385 . S
O62 C67 1.255 1_565 S
Cd63 O62 2.385 . S
Cd63 O64 2.317 . S
O64 Cd63 2.317 . S
O64 C65 1.232 . S
C65 O64 1.232 . S
C65 O66 1.218 . S
O66 C65 1.218 . S
C67 O60 1.275 . S
C67 O62 1.255 1_545 S
C68 O69 1.258 . S
C68 O70 1.256 . S
O69 Cd61 2.381 . S
O69 C68 1.258 . S
O70 Cd61 2.378 . S
O70 C68 1.256 . S
O71 Cd72 2.300 . S
O71 C78 1.275 . S
Cd72 O71 2.300 . S
Cd72 O80 2.381 . S
Cd72 O81 2.378 . S
O73 Cd74 2.385 . S
O73 C78 1.255 . S
Cd74 O73 2.385 . S
Cd74 O75 2.317 . S
O75 Cd74 2.317 . S
O75 C76 1.232 . S
C76 O75 1.232 . S
C76 O77 1.218 . S
O77 C76 1.218 . S
C78 O71 1.275 . S
C78 O73 1.255 . S
C79 O80 1.258 . S
C79 O81 1.256 . S
O80 Cd72 2.381 . S
O80 C79 1.258 . S
O81 Cd72 2.378 . S
O81 C79 1.256 . S
O82 Cd83 2.300 . S
O82 C89 1.275 . S
Cd83 O82 2.300 . S
Cd83 O91 2.381 . S
Cd83 O92 2.378 . S
O84 Cd85 2.385 1_455 S
O84 C89 1.255 . S
Cd85 O84 2.385 1_655 S
Cd85 O86 2.317 . S
O86 Cd85 2.317 . S
O86 C87 1.232 . S
C87 O86 1.232 . S
C87 O88 1.218 . S
O88 C87 1.218 . S
C89 O82 1.275 . S
C89 O84 1.255 . S
C90 O91 1.258 . S
C90 O92 1.256 . S
O91 Cd83 2.381 . S
O91 C90 1.258 . S
O92 Cd83 2.378 . S
O92 C90 1.256 . S
O93 Cd94 2.300 . S
O93 C100 1.275 1_455 S
Cd94 O93 2.300 . S
Cd94 O102 2.381 . S
Cd94 O103 2.378 . S
O95 Cd96 2.385 . S
O95 C100 1.255 . S
Cd96 O95 2.385 . S
Cd96 O97 2.317 . S
O97 Cd96 2.317 . S
O97 C98 1.232 . S
C98 O97 1.232 . S
C98 O99 1.218 . S
O99 C98 1.218 . S
C100 O93 1.275 1_655 S
C100 O95 1.255 . S
C101 O102 1.258 . S
C101 O103 1.256 . S
O102 Cd94 2.381 . S
O102 C101 1.258 . S
O103 Cd94 2.378 . S
O103 C101 1.256 . S
O104 Cd105 2.300 . S
O104 C111 1.275 1_565 S
Cd105 O104 2.300 . S
Cd105 O113 2.381 . S
Cd105 O114 2.378 . S
O106 Cd107 2.385 . S
O106 C111 1.255 . S
Cd107 O106 2.385 . S
Cd107 O108 2.317 . S
O108 Cd107 2.317 . S
O108 C109 1.232 . S
C109 O108 1.232 . S
C109 O110 1.218 . S
O110 C109 1.218 . S
C111 O104 1.275 1_545 S
C111 O106 1.255 . S
C112 O113 1.258 . S
C112 O114 1.256 . S
O113 Cd105 2.381 . S
O113 C112 1.258 . S
O114 Cd105 2.378 . S
O114 C112 1.256 . S
O115 Cd116 2.300 . S
O115 C122 1.275 . S
Cd116 O115 2.300 . S
Cd116 O124 2.381 . S
Cd116 O125 2.378 . S
O117 Cd118 2.385 . S
O117 C122 1.255 . S
Cd118 O117 2.385 . S
Cd118 O119 2.317 . S
O119 Cd118 2.317 . S
O119 C120 1.232 . S
C120 O119 1.232 . S
C120 O121 1.218 . S
O121 C120 1.218 . S
C122 O115 1.275 . S
C122 O117 1.255 . S
C123 O124 1.258 . S
C123 O125 1.256 . S
O124 Cd116 2.381 . S
O124 C123 1.258 . S
O125 Cd116 2.378 . S
O125 C123 1.256 . S
C126 C127 1.369 . S
C126 C128 1.419 . S
C126 H130 0.930 . S
C127 C126 1.369 . S
C127 C136 1.429 . S
C128 C126 1.419 . S
C128 C129 1.363 . S
C128 H131 0.929 . S
C129 C128 1.363 . S
C129 C135 1.428 . S
H130 C126 0.930 . S
H131 C128 0.929 . S
S132 N133 1.613 . S
S132 N134 1.610 . S
N133 S132 1.613 . S
N133 C136 1.350 . S
N134 S132 1.610 . S
N134 C135 1.351 . S
C135 C129 1.428 . S
C135 N134 1.351 . S
C135 C136 1.434 . S
C136 C127 1.429 . S
C136 N133 1.350 . S
C136 C135 1.434 . S
C137 C138 1.369 . S
C137 C139 1.419 . S
C137 H141 0.930 . S
C138 C137 1.369 . S
C138 C147 1.429 . S
C139 C137 1.419 . S
C139 C140 1.363 . S
C139 H142 0.929 . S
C140 C139 1.363 . S
C140 C146 1.428 . S
H141 C137 0.930 . S
H142 C139 0.929 . S
S143 N144 1.613 . S
S143 N145 1.610 . S
N144 S143 1.613 . S
N144 C147 1.350 . S
N145 S143 1.610 . S
N145 C146 1.351 . S
C146 C140 1.428 . S
C146 N145 1.351 . S
C146 C147 1.434 . S
C147 C138 1.429 . S
C147 N144 1.350 . S
C147 C146 1.434 . S
C148 C149 1.369 . S
C148 C150 1.419 . S
C148 H152 0.930 . S
C149 C148 1.369 . S
C149 C158 1.429 . S
C150 C148 1.419 . S
C150 C151 1.363 . S
C150 H153 0.929 . S
C151 C150 1.363 . S
C151 C157 1.428 . S
H152 C148 0.930 . S
H153 C150 0.929 . S
S154 N155 1.613 . S
S154 N156 1.610 . S
N155 S154 1.613 . S
N155 C158 1.350 . S
N156 S154 1.610 . S
N156 C157 1.351 . S
C157 C151 1.428 . S
C157 N156 1.351 . S
C157 C158 1.434 . S
C158 C149 1.429 . S
C158 N155 1.350 . S
C158 C157 1.434 . S
C159 C160 1.369 . S
C159 C161 1.419 . S
C159 H163 0.930 . S
C160 C159 1.369 . S
C160 C169 1.429 . S
C161 C159 1.419 . S
C161 C162 1.363 . S
C161 H164 0.929 . S
C162 C161 1.363 . S
C162 C168 1.428 . S
H163 C159 0.930 . S
H164 C161 0.929 . S
S165 N166 1.613 . S
S165 N167 1.610 . S
N166 S165 1.613 . S
N166 C169 1.350 . S
N167 S165 1.610 . S
N167 C168 1.351 . S
C168 C162 1.428 . S
C168 N167 1.351 . S
C168 C169 1.434 . S
C169 C160 1.429 . S
C169 N166 1.350 . S
C169 C168 1.434 . S
C170 C171 1.369 . S
C170 C172 1.419 . S
C170 H174 0.930 . S
C171 C170 1.369 . S
C171 C180 1.429 . S
C172 C170 1.419 . S
C172 C173 1.363 . S
C172 H175 0.929 . S
C173 C172 1.363 . S
C173 C179 1.428 . S
H174 C170 0.930 . S
H175 C172 0.929 . S
S176 N177 1.613 . S
S176 N178 1.610 . S
N177 S176 1.613 . S
N177 C180 1.350 . S
N178 S176 1.610 . S
N178 C179 1.351 . S
C179 C173 1.428 . S
C179 N178 1.351 . S
C179 C180 1.434 . S
C180 C171 1.429 . S
C180 N177 1.350 . S
C180 C179 1.434 . S
C181 C182 1.369 . S
C181 C183 1.419 . S
C181 H185 0.930 . S
C182 C181 1.369 . S
C182 C191 1.429 . S
C183 C181 1.419 . S
C183 C184 1.363 . S
C183 H186 0.929 . S
C184 C183 1.363 . S
C184 C190 1.428 . S
H185 C181 0.930 . S
H186 C183 0.929 . S
S187 N188 1.613 . S
S187 N189 1.610 . S
N188 S187 1.613 . S
N188 C191 1.350 . S
N189 S187 1.610 . S
N189 C190 1.351 . S
C190 C184 1.428 . S
C190 N189 1.351 . S
C190 C191 1.434 . S
C191 C182 1.429 . S
C191 N188 1.350 . S
C191 C190 1.434 . S
C192 C193 1.369 . S
C192 C194 1.419 . S
C192 H196 0.930 . S
C193 C192 1.369 . S
C193 C202 1.429 . S
C194 C192 1.419 . S
C194 C195 1.363 . S
C194 H197 0.929 . S
C195 C194 1.363 . S
C195 C201 1.428 . S
H196 C192 0.930 . S
H197 C194 0.929 . S
S198 N199 1.613 . S
S198 N200 1.610 . S
N199 S198 1.613 . S
N199 C202 1.350 . S
N200 S198 1.610 . S
N200 C201 1.351 . S
C201 C195 1.428 . S
C201 N200 1.351 . S
C201 C202 1.434 . S
C202 C193 1.429 . S
C202 N199 1.350 . S
C202 C201 1.434 . S
C203 C204 1.369 . S
C203 C205 1.419 . S
C203 H207 0.930 . S
C204 C203 1.369 . S
C204 C213 1.429 . S
C205 C203 1.419 . S
C205 C206 1.363 . S
C205 H208 0.929 . S
C206 C205 1.363 . S
C206 C212 1.428 . S
H207 C203 0.930 . S
H208 C205 0.929 . S
S209 N210 1.613 . S
S209 N211 1.610 . S
N210 S209 1.613 . S
N210 C213 1.350 . S
N211 S209 1.610 . S
N211 C212 1.351 . S
C212 C206 1.428 . S
C212 N211 1.351 . S
C212 C213 1.434 . S
C213 C204 1.429 . S
C213 N210 1.350 . S
C213 C212 1.434 . S
C214 C215 1.369 . S
C214 C216 1.419 . S
C214 H218 0.930 . S
C215 C214 1.369 . S
C215 C224 1.429 . S
C216 C214 1.419 . S
C216 C217 1.363 . S
C216 H219 0.929 . S
C217 C216 1.363 . S
C217 C223 1.428 . S
H218 C214 0.930 . S
H219 C216 0.929 . S
S220 N221 1.613 . S
S220 N222 1.610 . S
N221 S220 1.613 . S
N221 C224 1.350 . S
N222 S220 1.610 . S
N222 C223 1.351 . S
C223 C217 1.428 . S
C223 N222 1.351 . S
C223 C224 1.434 . S
C224 C215 1.429 . S
C224 N221 1.350 . S
C224 C223 1.434 . S
C225 C226 1.369 . S
C225 C227 1.419 . S
C225 H229 0.930 . S
C226 C225 1.369 . S
C226 C235 1.429 . S
C227 C225 1.419 . S
C227 C228 1.363 . S
C227 H230 0.929 . S
C228 C227 1.363 . S
C228 C234 1.428 . S
H229 C225 0.930 . S
H230 C227 0.929 . S
S231 N232 1.613 . S
S231 N233 1.610 . S
N232 S231 1.613 . S
N232 C235 1.350 . S
N233 S231 1.610 . S
N233 C234 1.351 . S
C234 C228 1.428 . S
C234 N233 1.351 . S
C234 C235 1.434 . S
C235 C226 1.429 . S
C235 N232 1.350 . S
C235 C234 1.434 . S
C236 C237 1.369 . S
C236 C238 1.419 . S
C236 H240 0.930 . S
C237 C236 1.369 . S
C237 C246 1.429 . S
C238 C236 1.419 . S
C238 C239 1.363 . S
C238 H241 0.929 . S
C239 C238 1.363 . S
C239 C245 1.428 . S
H240 C236 0.930 . S
H241 C238 0.929 . S
S242 N243 1.613 . S
S242 N244 1.610 . S
N243 S242 1.613 . S
N243 C246 1.350 . S
N244 S242 1.610 . S
N244 C245 1.351 . S
C245 C239 1.428 . S
C245 N244 1.351 . S
C245 C246 1.434 . S
C246 C237 1.429 . S
C246 N243 1.350 . S
C246 C245 1.434 . S
C247 C248 1.369 . S
C247 C249 1.419 . S
C247 H251 0.930 . S
C248 C247 1.369 . S
C248 C257 1.429 . S
C249 C247 1.419 . S
C249 C250 1.363 . S
C249 H252 0.929 . S
C250 C249 1.363 . S
C250 C256 1.428 . S
H251 C247 0.930 . S
H252 C249 0.929 . S
S253 N254 1.613 . S
S253 N255 1.610 . S
N254 S253 1.613 . S
N254 C257 1.350 . S
N255 S253 1.610 . S
N255 C256 1.351 . S
C256 C250 1.428 . S
C256 N255 1.351 . S
C256 C257 1.434 . S
C257 C248 1.429 . S
C257 N254 1.350 . S
C257 C256 1.434 . S
C258 C259 1.369 . S
C258 C260 1.419 1_554 S
C258 H262 0.930 . S
C259 C258 1.369 . S
C259 C268 1.434 . S
C260 C258 1.419 1_556 S
C260 C261 1.363 . S
C260 H263 0.929 . S
C261 C260 1.363 . S
C261 C267 1.428 1_455 S
H262 C258 0.930 . S
H263 C260 0.929 . S
S264 N265 1.613 1_556 S
S264 N266 1.610 . S
N265 S264 1.613 1_554 S
N265 C268 1.346 1_655 S
N266 S264 1.610 . S
N266 C267 1.351 . S
C267 C261 1.428 1_655 S
C267 N266 1.351 . S
C267 C268 1.433 1_656 S
C268 C259 1.434 . S
C268 N265 1.346 1_455 S
C268 C267 1.433 1_454 S
C269 C270 1.369 . S
C269 C271 1.419 . S
C269 H273 0.930 . S
C270 C269 1.369 . S
C270 C279 1.429 1_545 S
C271 C269 1.419 . S
C271 C272 1.363 . S
C271 H274 0.929 . S
C272 C271 1.363 . S
C272 C278 1.428 1_545 S
H273 C269 0.930 . S
H274 C271 0.929 . S
S275 N276 1.613 . S
S275 N277 1.610 . S
N276 S275 1.613 . S
N276 C279 1.350 . S
N277 S275 1.610 . S
N277 C278 1.351 . S
C278 C272 1.428 1_565 S
C278 N277 1.351 . S
C278 C279 1.434 . S
C279 C270 1.429 1_565 S
C279 N276 1.350 . S
C279 C278 1.434 . S
C280 C281 1.369 . S
C280 C282 1.419 . S
C280 H284 0.930 . S
C281 C280 1.369 . S
C281 C290 1.429 . S
C282 C280 1.419 . S
C282 C283 1.363 . S
C282 H285 0.929 . S
C283 C282 1.363 . S
C283 C289 1.428 . S
H284 C280 0.930 . S
H285 C282 0.929 . S
S286 N287 1.613 . S
S286 N288 1.610 . S
N287 S286 1.613 . S
N287 C290 1.350 . S
N288 S286 1.610 . S
N288 C289 1.351 . S
C289 C283 1.428 . S
C289 N288 1.351 . S
C289 C290 1.434 . S
C290 C281 1.429 . S
C290 N287 1.350 . S
C290 C289 1.434 . S
C291 C292 1.369 . S
C291 C293 1.419 . S
C291 H295 0.930 . S
C292 C291 1.369 . S
C292 C301 1.429 1_545 S
C293 C291 1.419 . S
C293 C294 1.363 . S
C293 H296 0.929 . S
C294 C293 1.363 . S
C294 C300 1.428 1_545 S
H295 C291 0.930 . S
H296 C293 0.929 . S
S297 N298 1.613 . S
S297 N299 1.610 . S
N298 S297 1.613 . S
N298 C301 1.350 . S
N299 S297 1.610 . S
N299 C300 1.351 . S
C300 C294 1.428 1_565 S
C300 N299 1.351 . S
C300 C301 1.434 . S
C301 C292 1.429 1_565 S
C301 N298 1.350 . S
C301 C300 1.434 . S
C302 C303 1.369 . S
C302 C304 1.419 1_556 S
C302 H306 0.930 . S
C303 C302 1.369 . S
C303 C312 1.429 . S
C304 C302 1.419 1_554 S
C304 C305 1.363 . S
C304 H307 0.929 . S
C305 C304 1.363 . S
C305 C311 1.433 . S
H306 C302 0.930 . S
H307 C304 0.929 . S
S308 N309 1.613 . S
S308 N310 1.610 1_556 S
N309 S308 1.613 . S
N309 C312 1.350 . S
N310 S308 1.610 1_554 S
N310 C311 1.354 . S
C311 C305 1.433 . S
C311 N310 1.354 . S
C311 C312 1.426 1_554 S
C312 C303 1.429 . S
C312 N309 1.350 . S
C312 C311 1.426 1_556 S
C313 C314 1.369 1_655 S
C313 C315 1.419 . S
C313 H317 0.930 . S
C314 C313 1.369 1_455 S
C314 C323 1.429 . S
C315 C313 1.419 . S
C315 C316 1.363 . S
C315 H318 0.929 . S
C316 C315 1.363 . S
C316 C322 1.428 1_655 S
H317 C313 0.930 . S
H318 C315 0.929 . S
S319 N320 1.613 . S
S319 N321 1.610 . S
N320 S319 1.613 . S
N320 C323 1.350 . S
N321 S319 1.610 . S
N321 C322 1.351 . S
C322 C316 1.428 1_455 S
C322 N321 1.351 . S
C322 C323 1.434 . S
C323 C314 1.429 . S
C323 N320 1.350 . S
C323 C322 1.434 . S
C127 C8 2.068 . S
C129 C120 1.802 . S
C138 C26 1.479 . S
C140 C98 1.311 . S
C149 C48 1.457 . S
C151 C112 1.479 . S
C160 C19 1.794 . S
C162 C123 1.755 . S
C173 C101 1.381 . S
C171 C36 1.382 . S
C184 C109 1.488 . S
C182 C59 1.688 . S
C193 C28 1.638 . S
C195 C76 1.459 . S
C204 C46 1.265 . S
C206 C87 1.081 . S
C215 C16 1.576 . S
C217 C65 1.280 . S
C228 C79 1.566 . S
C226 C39 1.579 . S
C239 C90 0.968 . S
C237 C56 0.966 . S
C248 C6 1.349 . S
C250 C68 1.285 . S
C261 C89 1.403 . S
C259 C9 1.452 . S
C270 C21 1.492 . S
C272 C67 1.446 . S
C281 C49 1.547 . S
C283 C78 1.465 . S
C294 C111 1.417 . S
C292 C29 1.463 . S
C305 C122 1.505 . S
C303 C41 1.585 . S
C314 C1 1.542 . S
C316 C100 1.471 . S
