# Generated by pormake.
# Topology iac, (4,6)-cn, num edge types: 1
# Building blocks:
#     Node 0, Type 0, BuildingBlock: KUFVIS_clean_sbu_0, # of connection points: 4
#     Node 1, Type 0, BuildingBlock: KUFVIS_clean_sbu_0, # of connection points: 4
#     Node 2, Type 0, BuildingBlock: KUFVIS_clean_sbu_0, # of connection points: 4
#     Node 3, Type 0, BuildingBlock: KUFVIS_clean_sbu_0, # of connection points: 4
#     Node 4, Type 0, BuildingBlock: KUFVIS_clean_sbu_0, # of connection points: 4
#     Node 5, Type 0, BuildingBlock: KUFVIS_clean_sbu_0, # of connection points: 4
#     Node 6, Type 0, BuildingBlock: KUFVIS_clean_sbu_0, # of connection points: 4
#     Node 7, Type 0, BuildingBlock: KUFVIS_clean_sbu_0, # of connection points: 4
#     Node 8, Type 0, BuildingBlock: KUFVIS_clean_sbu_0, # of connection points: 4
#     Node 9, Type 0, BuildingBlock: KUFVIS_clean_sbu_0, # of connection points: 4
#     Node 10, Type 0, BuildingBlock: KUFVIS_clean_sbu_0, # of connection points: 4
#     Node 11, Type 0, BuildingBlock: KUFVIS_clean_sbu_0, # of connection points: 4
#     Node 12, Type 0, BuildingBlock: KUFVIS_clean_sbu_0, # of connection points: 4
#     Node 13, Type 0, BuildingBlock: KUFVIS_clean_sbu_0, # of connection points: 4
#     Node 14, Type 0, BuildingBlock: KUFVIS_clean_sbu_0, # of connection points: 4
#     Node 15, Type 0, BuildingBlock: KUFVIS_clean_sbu_0, # of connection points: 4
#     Node 16, Type 0, BuildingBlock: KUFVIS_clean_sbu_0, # of connection points: 4
#     Node 17, Type 0, BuildingBlock: KUFVIS_clean_sbu_0, # of connection points: 4
#     Node 18, Type 0, BuildingBlock: KUFVIS_clean_sbu_0, # of connection points: 4
#     Node 19, Type 0, BuildingBlock: KUFVIS_clean_sbu_0, # of connection points: 4
#     Node 20, Type 0, BuildingBlock: KUFVIS_clean_sbu_0, # of connection points: 4
#     Node 21, Type 0, BuildingBlock: KUFVIS_clean_sbu_0, # of connection points: 4
#     Node 22, Type 0, BuildingBlock: KUFVIS_clean_sbu_0, # of connection points: 4
#     Node 23, Type 0, BuildingBlock: KUFVIS_clean_sbu_0, # of connection points: 4
#     Node 24, Type 1, BuildingBlock: CIFDUS_clean_sbu_1, # of connection points: 6
#     Node 25, Type 1, BuildingBlock: CIFDUS_clean_sbu_1, # of connection points: 6
#     Node 26, Type 1, BuildingBlock: CIFDUS_clean_sbu_1, # of connection points: 6
#     Node 27, Type 1, BuildingBlock: CIFDUS_clean_sbu_1, # of connection points: 6
#     Node 28, Type 1, BuildingBlock: CIFDUS_clean_sbu_1, # of connection points: 6
#     Node 29, Type 1, BuildingBlock: CIFDUS_clean_sbu_1, # of connection points: 6
#     Node 30, Type 1, BuildingBlock: CIFDUS_clean_sbu_1, # of connection points: 6
#     Node 31, Type 1, BuildingBlock: CIFDUS_clean_sbu_1, # of connection points: 6
#     Node 32, Type 1, BuildingBlock: CIFDUS_clean_sbu_1, # of connection points: 6
#     Node 33, Type 1, BuildingBlock: CIFDUS_clean_sbu_1, # of connection points: 6
#     Node 34, Type 1, BuildingBlock: CIFDUS_clean_sbu_1, # of connection points: 6
#     Node 35, Type 1, BuildingBlock: CIFDUS_clean_sbu_1, # of connection points: 6
#     Node 36, Type 1, BuildingBlock: CIFDUS_clean_sbu_1, # of connection points: 6
#     Node 37, Type 1, BuildingBlock: CIFDUS_clean_sbu_1, # of connection points: 6
#     Node 38, Type 1, BuildingBlock: CIFDUS_clean_sbu_1, # of connection points: 6
#     Node 39, Type 1, BuildingBlock: CIFDUS_clean_sbu_1, # of connection points: 6
#     Edge 40, Type (0, 1), BuildingBlock: UVAHIK_clean_linker_0, # of connection points: 2
#     Edge 41, Type (0, 1), BuildingBlock: UVAHIK_clean_linker_0, # of connection points: 2
#     Edge 42, Type (0, 1), BuildingBlock: UVAHIK_clean_linker_0, # of connection points: 2
#     Edge 43, Type (0, 1), BuildingBlock: UVAHIK_clean_linker_0, # of connection points: 2
#     Edge 44, Type (0, 1), BuildingBlock: UVAHIK_clean_linker_0, # of connection points: 2
#     Edge 45, Type (0, 1), BuildingBlock: UVAHIK_clean_linker_0, # of connection points: 2
#     Edge 46, Type (0, 1), BuildingBlock: UVAHIK_clean_linker_0, # of connection points: 2
#     Edge 47, Type (0, 1), BuildingBlock: UVAHIK_clean_linker_0, # of connection points: 2
#     Edge 48, Type (0, 1), BuildingBlock: UVAHIK_clean_linker_0, # of connection points: 2
#     Edge 49, Type (0, 1), BuildingBlock: UVAHIK_clean_linker_0, # of connection points: 2
#     Edge 50, Type (0, 1), BuildingBlock: UVAHIK_clean_linker_0, # of connection points: 2
#     Edge 51, Type (0, 1), BuildingBlock: UVAHIK_clean_linker_0, # of connection points: 2
#     Edge 52, Type (0, 1), BuildingBlock: UVAHIK_clean_linker_0, # of connection points: 2
#     Edge 53, Type (0, 1), BuildingBlock: UVAHIK_clean_linker_0, # of connection points: 2
#     Edge 54, Type (0, 1), BuildingBlock: UVAHIK_clean_linker_0, # of connection points: 2
#     Edge 55, Type (0, 1), BuildingBlock: UVAHIK_clean_linker_0, # of connection points: 2
#     Edge 56, Type (0, 1), BuildingBlock: UVAHIK_clean_linker_0, # of connection points: 2
#     Edge 57, Type (0, 1), BuildingBlock: UVAHIK_clean_linker_0, # of connection points: 2
#     Edge 58, Type (0, 1), BuildingBlock: UVAHIK_clean_linker_0, # of connection points: 2
#     Edge 59, Type (0, 1), BuildingBlock: UVAHIK_clean_linker_0, # of connection points: 2
#     Edge 60, Type (0, 1), BuildingBlock: UVAHIK_clean_linker_0, # of connection points: 2
#     Edge 61, Type (0, 1), BuildingBlock: UVAHIK_clean_linker_0, # of connection points: 2
#     Edge 62, Type (0, 1), BuildingBlock: UVAHIK_clean_linker_0, # of connection points: 2
#     Edge 63, Type (0, 1), BuildingBlock: UVAHIK_clean_linker_0, # of connection points: 2
#     Edge 64, Type (0, 1), BuildingBlock: UVAHIK_clean_linker_0, # of connection points: 2
#     Edge 65, Type (0, 1), BuildingBlock: UVAHIK_clean_linker_0, # of connection points: 2
#     Edge 66, Type (0, 1), BuildingBlock: UVAHIK_clean_linker_0, # of connection points: 2
#     Edge 67, Type (0, 1), BuildingBlock: UVAHIK_clean_linker_0, # of connection points: 2
#     Edge 68, Type (0, 1), BuildingBlock: UVAHIK_clean_linker_0, # of connection points: 2
#     Edge 69, Type (0, 1), BuildingBlock: UVAHIK_clean_linker_0, # of connection points: 2
#     Edge 70, Type (0, 1), BuildingBlock: UVAHIK_clean_linker_0, # of connection points: 2
#     Edge 71, Type (0, 1), BuildingBlock: UVAHIK_clean_linker_0, # of connection points: 2
#     Edge 72, Type (0, 1), BuildingBlock: UVAHIK_clean_linker_0, # of connection points: 2
#     Edge 73, Type (0, 1), BuildingBlock: UVAHIK_clean_linker_0, # of connection points: 2
#     Edge 74, Type (0, 1), BuildingBlock: UVAHIK_clean_linker_0, # of connection points: 2
#     Edge 75, Type (0, 1), BuildingBlock: UVAHIK_clean_linker_0, # of connection points: 2
#     Edge 76, Type (0, 1), BuildingBlock: UVAHIK_clean_linker_0, # of connection points: 2
#     Edge 77, Type (0, 1), BuildingBlock: UVAHIK_clean_linker_0, # of connection points: 2
#     Edge 78, Type (0, 1), BuildingBlock: UVAHIK_clean_linker_0, # of connection points: 2
#     Edge 79, Type (0, 1), BuildingBlock: UVAHIK_clean_linker_0, # of connection points: 2
#     Edge 80, Type (0, 1), BuildingBlock: UVAHIK_clean_linker_0, # of connection points: 2
#     Edge 81, Type (0, 1), BuildingBlock: UVAHIK_clean_linker_0, # of connection points: 2
#     Edge 82, Type (0, 1), BuildingBlock: UVAHIK_clean_linker_0, # of connection points: 2
#     Edge 83, Type (0, 1), BuildingBlock: UVAHIK_clean_linker_0, # of connection points: 2
#     Edge 84, Type (0, 1), BuildingBlock: UVAHIK_clean_linker_0, # of connection points: 2
#     Edge 85, Type (0, 1), BuildingBlock: UVAHIK_clean_linker_0, # of connection points: 2
#     Edge 86, Type (0, 1), BuildingBlock: UVAHIK_clean_linker_0, # of connection points: 2
#     Edge 87, Type (0, 1), BuildingBlock: UVAHIK_clean_linker_0, # of connection points: 2
#     Edge 88, Type (0, 1), BuildingBlock: UVAHIK_clean_linker_0, # of connection points: 2
#     Edge 89, Type (0, 1), BuildingBlock: UVAHIK_clean_linker_0, # of connection points: 2
#     Edge 90, Type (0, 1), BuildingBlock: UVAHIK_clean_linker_0, # of connection points: 2
#     Edge 91, Type (0, 1), BuildingBlock: UVAHIK_clean_linker_0, # of connection points: 2
#     Edge 92, Type (0, 1), BuildingBlock: UVAHIK_clean_linker_0, # of connection points: 2
#     Edge 93, Type (0, 1), BuildingBlock: UVAHIK_clean_linker_0, # of connection points: 2
#     Edge 94, Type (0, 1), BuildingBlock: UVAHIK_clean_linker_0, # of connection points: 2
#     Edge 95, Type (0, 1), BuildingBlock: UVAHIK_clean_linker_0, # of connection points: 2
#     Edge 96, Type (0, 1), BuildingBlock: UVAHIK_clean_linker_0, # of connection points: 2
#     Edge 97, Type (0, 1), BuildingBlock: UVAHIK_clean_linker_0, # of connection points: 2
#     Edge 98, Type (0, 1), BuildingBlock: UVAHIK_clean_linker_0, # of connection points: 2
#     Edge 99, Type (0, 1), BuildingBlock: UVAHIK_clean_linker_0, # of connection points: 2
#     Edge 100, Type (0, 1), BuildingBlock: UVAHIK_clean_linker_0, # of connection points: 2
#     Edge 101, Type (0, 1), BuildingBlock: UVAHIK_clean_linker_0, # of connection points: 2
#     Edge 102, Type (0, 1), BuildingBlock: UVAHIK_clean_linker_0, # of connection points: 2
#     Edge 103, Type (0, 1), BuildingBlock: UVAHIK_clean_linker_0, # of connection points: 2
#     Edge 104, Type (0, 1), BuildingBlock: UVAHIK_clean_linker_0, # of connection points: 2
#     Edge 105, Type (0, 1), BuildingBlock: UVAHIK_clean_linker_0, # of connection points: 2
#     Edge 106, Type (0, 1), BuildingBlock: UVAHIK_clean_linker_0, # of connection points: 2
#     Edge 107, Type (0, 1), BuildingBlock: UVAHIK_clean_linker_0, # of connection points: 2
#     Edge 108, Type (0, 1), BuildingBlock: UVAHIK_clean_linker_0, # of connection points: 2
#     Edge 109, Type (0, 1), BuildingBlock: UVAHIK_clean_linker_0, # of connection points: 2
#     Edge 110, Type (0, 1), BuildingBlock: UVAHIK_clean_linker_0, # of connection points: 2
#     Edge 111, Type (0, 1), BuildingBlock: UVAHIK_clean_linker_0, # of connection points: 2
#     Edge 112, Type (0, 1), BuildingBlock: UVAHIK_clean_linker_0, # of connection points: 2
#     Edge 113, Type (0, 1), BuildingBlock: UVAHIK_clean_linker_0, # of connection points: 2
#     Edge 114, Type (0, 1), BuildingBlock: UVAHIK_clean_linker_0, # of connection points: 2
#     Edge 115, Type (0, 1), BuildingBlock: UVAHIK_clean_linker_0, # of connection points: 2
#     Edge 116, Type (0, 1), BuildingBlock: UVAHIK_clean_linker_0, # of connection points: 2
#     Edge 117, Type (0, 1), BuildingBlock: UVAHIK_clean_linker_0, # of connection points: 2
#     Edge 118, Type (0, 1), BuildingBlock: UVAHIK_clean_linker_0, # of connection points: 2
#     Edge 119, Type (0, 1), BuildingBlock: UVAHIK_clean_linker_0, # of connection points: 2
#     Edge 120, Type (0, 1), BuildingBlock: UVAHIK_clean_linker_0, # of connection points: 2
#     Edge 121, Type (0, 1), BuildingBlock: UVAHIK_clean_linker_0, # of connection points: 2
#     Edge 122, Type (0, 1), BuildingBlock: UVAHIK_clean_linker_0, # of connection points: 2
#     Edge 123, Type (0, 1), BuildingBlock: UVAHIK_clean_linker_0, # of connection points: 2
#     Edge 124, Type (0, 1), BuildingBlock: UVAHIK_clean_linker_0, # of connection points: 2
#     Edge 125, Type (0, 1), BuildingBlock: UVAHIK_clean_linker_0, # of connection points: 2
#     Edge 126, Type (0, 1), BuildingBlock: UVAHIK_clean_linker_0, # of connection points: 2
#     Edge 127, Type (0, 1), BuildingBlock: UVAHIK_clean_linker_0, # of connection points: 2
#     Edge 128, Type (0, 1), BuildingBlock: UVAHIK_clean_linker_0, # of connection points: 2
#     Edge 129, Type (0, 1), BuildingBlock: UVAHIK_clean_linker_0, # of connection points: 2
#     Edge 130, Type (0, 1), BuildingBlock: UVAHIK_clean_linker_0, # of connection points: 2
#     Edge 131, Type (0, 1), BuildingBlock: UVAHIK_clean_linker_0, # of connection points: 2
#     Edge 132, Type (0, 1), BuildingBlock: UVAHIK_clean_linker_0, # of connection points: 2
#     Edge 133, Type (0, 1), BuildingBlock: UVAHIK_clean_linker_0, # of connection points: 2
#     Edge 134, Type (0, 1), BuildingBlock: UVAHIK_clean_linker_0, # of connection points: 2
#     Edge 135, Type (0, 1), BuildingBlock: UVAHIK_clean_linker_0, # of connection points: 2
# Relax obj value: 0.091
# Max RMSD: 0.168
# Mean RMSD: 0.083
data_MOF--net-iac--node1-KUFVIS_clean_sbu_0--node2-CIFDUS_clean_sbu_1--edge1-UVAHIK_clean_linker_0
_symmetry_space_group_name_H-M    P1
_symmetry_Int_Tables_number       1
_symmetry_cell_setting            triclinic
loop_
_symmetry_equiv_pos_as_xyz
'x, y, z'
_cell_length_a     69.221018
_cell_length_b     68.084177
_cell_length_c     70.514597
_cell_angle_alpha  90.186905
_cell_angle_beta   89.950856
_cell_angle_gamma 90.346093
loop_
_atom_site_label
_atom_site_type_symbol
_atom_site_fract_x
_atom_site_fract_y
_atom_site_fract_z
_atom_type_partial_charge
Mn0 Mn -0.00152 0.24929 0.12918 0.0
Mn1 Mn 0.9733 0.2387 0.08938 0.0
C2 C 0.99544 0.21708 0.11893 0.0
C3 C 0.02704 0.25685 0.14527 0.0
C4 C 0.95411 0.2484 0.12674 0.0
O5 O 0.99715 0.27598 0.11607 0.0
O6 O 0.97994 0.2672 0.0902 0.0
C7 C 0.00467 0.24594 0.06168 0.0
N8 N 0.99111 0.23369 0.06924 0.0
C9 C -0.00033 0.20778 0.04757 0.0
C10 C 0.01365 0.22017 0.03946 0.0
C11 C 0.01618 0.23932 0.04657 0.0
C12 C 0.98858 0.21523 0.06253 0.0
H13 H 0.00669 0.26064 0.06715 0.0
C14 C 0.98859 0.28006 0.10053 0.0
O15 O 0.01027 0.26107 0.1524 0.0
O16 O 0.02725 0.24922 0.12839 0.0
N17 N 0.96586 0.21172 0.08664 0.0
C18 C 0.9524 0.20136 0.09663 0.0
C19 C 0.94843 0.18177 0.0916 0.0
C20 C 0.95821 0.17311 0.07628 0.0
C21 C 0.97183 0.18414 0.06607 0.0
C22 C 0.97508 0.20365 0.07164 0.0
H23 H 0.94484 0.20796 0.10842 0.0
O24 O -0.00102 0.22098 0.13661 0.0
O25 O 0.99354 0.23214 0.10779 0.0
O26 O 0.96972 0.2512 0.136 0.0
O27 O 0.95379 0.24327 0.1093 0.0
C28 C 0.98261 0.17644 0.05083 0.0
C29 C 0.99655 0.18824 0.04162 0.0
H30 H 0.02263 0.21508 0.02787 0.0
H31 H 0.027 0.24893 0.04045 0.0
H32 H 0.93791 0.17334 0.09956 0.0
H33 H 0.95525 0.15794 0.07256 0.0
H34 H 0.9805 0.16136 0.04628 0.0
H35 H 0.00492 0.18207 0.03009 0.0
Mn36 Mn 0.99767 0.75881 0.37278 0.0
Mn37 Mn 0.98094 0.7696 0.41659 0.0
C38 C 0.99339 0.79111 0.38176 0.0
C39 C 0.02328 0.75245 0.35222 0.0
C40 C 0.95493 0.75645 0.38443 0.0
O41 O 0.00144 0.73311 0.38691 0.0
O42 O 0.99011 0.74199 0.41556 0.0
C43 C 0.01846 0.76731 0.43657 0.0
N44 N 0.00238 0.77764 0.43187 0.0
C45 C 0.01296 0.80543 0.45039 0.0
C46 C 0.02959 0.79505 0.45551 0.0
C47 C 0.03238 0.77594 0.4485 0.0
C48 C -0.00032 0.79614 0.43832 0.0
H49 H 0.02065 0.7526 0.43126 0.0
C50 C 0.99747 0.72936 0.4042 0.0
O51 O 0.00587 0.74643 0.34836 0.0
O52 O 0.02585 0.76151 0.36823 0.0
N53 N 0.97164 0.79579 0.42014 0.0
C54 C 0.95476 0.80377 0.41399 0.0
C55 C 0.94974 0.82281 0.41981 0.0
C56 C 0.96195 0.83335 0.43212 0.0
C57 C 0.97903 0.82468 0.43859 0.0
C58 C 0.98328 0.80565 0.43232 0.0
H59 H 0.94526 0.79573 0.40461 0.0
O60 O 0.99406 0.78637 0.36395 0.0
O61 O 0.99557 0.77688 0.39382 0.0
O62 O 0.96836 0.75414 0.37218 0.0
O63 O 0.95802 0.76211 0.40148 0.0
C64 C 0.99199 0.83416 0.45105 0.0
C65 C 0.00903 0.82462 0.45681 0.0
H66 H 0.04031 0.80162 0.46478 0.0
H67 H 0.0452 0.76785 0.45234 0.0
H68 H 0.93649 0.82936 0.41482 0.0
H69 H 0.95808 0.84807 0.43651 0.0
H70 H 0.98906 0.84886 0.45618 0.0
H71 H 0.01898 0.83215 0.46623 0.0
Mn72 Mn 0.49682 0.75033 0.62932 0.0
Mn73 Mn 0.4725 0.74126 0.58863 0.0
C74 C 0.49409 0.71846 0.61785 0.0
C75 C 0.52524 0.75757 0.64598 0.0
C76 C 0.45251 0.74988 0.6259 0.0
O77 O 0.49547 0.77756 0.61719 0.0
O78 O 0.4795 0.76959 0.5903 0.0
C79 C 0.50453 0.74872 0.56174 0.0
N80 N 0.49063 0.7365 0.56873 0.0
C81 C 0.49916 0.71107 0.54652 0.0
C82 C 0.51349 0.72343 0.53899 0.0
C83 C 0.51621 0.74233 0.54666 0.0
C84 C 0.48792 0.71828 0.56148 0.0
H85 H 0.50668 0.76322 0.56764 0.0
C86 C 0.48762 0.78212 0.60139 0.0
O87 O 0.50834 0.76113 0.65316 0.0
O88 O 0.52563 0.75069 0.62881 0.0
N89 N 0.46472 0.71448 0.5851 0.0
C90 C 0.45091 0.70408 0.59458 0.0
C91 C 0.44672 0.6847 0.58898 0.0
C92 C 0.45663 0.67631 0.57359 0.0
C93 C 0.4706 0.68739 0.5639 0.0
C94 C 0.47407 0.70668 0.57005 0.0
H95 H 0.44325 0.71048 0.60641 0.0
O96 O 0.49746 0.72172 0.63567 0.0
O97 O 0.49228 0.73396 0.60725 0.0
O98 O 0.46787 0.75174 0.63579 0.0
O99 O 0.45263 0.7457 0.60823 0.0
C100 C 0.48152 0.67994 0.54865 0.0
C101 C 0.49581 0.69176 0.53999 0.0
H102 H 0.52259 0.71853 0.52743 0.0
H103 H 0.5273 0.75192 0.54099 0.0
H104 H 0.43592 0.67624 0.59654 0.0
H105 H 0.45349 0.66129 0.56943 0.0
H106 H 0.47925 0.66504 0.54366 0.0
H107 H 0.5043 0.68577 0.52844 0.0
Mn108 Mn 0.50067 0.25859 0.8695 0.0
Mn109 Mn 0.48393 0.26969 0.91326 0.0
C110 C 0.49477 0.2908 0.87759 0.0
C111 C 0.52643 0.25326 0.84885 0.0
C112 C 0.45833 0.25414 0.88176 0.0
O113 O 0.50588 0.23354 0.88421 0.0
O114 O 0.49484 0.24275 0.91288 0.0
C115 C 0.52175 0.27057 0.93285 0.0
N116 N 0.50491 0.27957 0.92818 0.0
C117 C 0.51362 0.30841 0.94613 0.0
C118 C 0.53102 0.2994 0.95122 0.0
C119 C 0.53513 0.28043 0.9445 0.0
C120 C 0.50089 0.29789 0.93443 0.0
H121 H 0.52496 0.25599 0.92771 0.0
C122 C 0.50257 0.23017 0.9017 0.0
O123 O 0.50936 0.24613 0.84526 0.0
O124 O 0.52861 0.26269 0.8647 0.0
N125 N 0.47298 0.29527 0.9162 0.0
C126 C 0.45577 0.30207 0.90963 0.0
C127 C 0.44944 0.32079 0.91516 0.0
C128 C 0.46076 0.33224 0.92752 0.0
C129 C 0.47838 0.32493 0.93415 0.0
C130 C 0.48384 0.30608 0.92833 0.0
H131 H 0.44694 0.2933 0.90022 0.0
O132 O 0.49553 0.28555 0.85992 0.0
O133 O 0.49784 0.27713 0.89008 0.0
O134 O 0.47163 0.25237 0.86929 0.0
O135 O 0.46141 0.26027 0.89864 0.0
C136 C 0.49083 0.33569 0.94615 0.0
C137 C 0.50849 0.32747 0.95205 0.0
H138 H 0.54138 0.30695 0.96021 0.0
H139 H 0.54856 0.27341 0.94831 0.0
H140 H 0.43584 0.32636 0.90994 0.0
H141 H 0.45581 0.34665 0.93181 0.0
H142 H 0.48707 0.35037 0.95075 0.0
H143 H 0.51805 0.33596 0.96111 0.0
Mn144 Mn 0.11817 0.00467 0.25066 0.0
Mn145 Mn 0.16001 0.01058 0.27462 0.0
C146 C 0.13201 0.0357 0.25353 0.0
C147 C 0.10121 -0.00165 0.22263 0.0
C148 C 0.12138 0.0038 0.29394 0.0
O149 O 0.12865 0.97662 0.25227 0.0
O150 O 0.15723 0.98272 0.26653 0.0
C151 C 0.1875 0.00342 0.24324 0.0
N152 N 0.18064 0.01535 0.2572 0.0
C153 C 0.20455 0.0401 0.25026 0.0
C154 C 0.21195 0.02804 0.23586 0.0
C155 C 0.20335 0.00965 0.2323 0.0
C156 C 0.18875 0.0331 0.26069 0.0
H157 H 0.18092 0.98927 0.24049 0.0
C158 C 0.14486 0.97096 0.259 0.0
O159 O 0.09345 0.99523 0.23912 0.0
O160 O 0.11904 0.00435 0.22242 0.0
N161 N 0.16451 0.03688 0.28327 0.0
C162 C 0.15499 0.04713 0.29698 0.0
C163 C 0.16141 0.06608 0.30188 0.0
C164 C 0.17764 0.0742 0.29278 0.0
C165 C 0.18731 0.06328 0.27885 0.0
C166 C 0.18027 0.04446 0.27458 0.0
H167 H 0.14254 0.04092 0.30405 0.0
O168 O 0.11373 0.03374 0.24992 0.0
O169 O 0.14159 0.01944 0.25538 0.0
O170 O 0.11113 0.00378 0.27892 0.0
O171 O 0.13972 0.006 0.29388 0.0
C172 C 0.20351 0.07042 0.26886 0.0
C173 C 0.21207 0.05888 0.25452 0.0
H174 H 0.22414 0.03281 0.22736 0.0
H175 H 0.20893 0.00029 0.22116 0.0
H176 H 0.15385 0.07442 0.31264 0.0
H177 H 0.18248 0.08887 0.29652 0.0
H178 H 0.20932 0.0849 0.2719 0.0
H179 H 0.22432 0.06468 0.24672 0.0
Mn180 Mn 0.25982 0.86972 0.506 0.0
Mn181 Mn 0.27189 0.9112 0.48249 0.0
C182 C 0.29189 0.87703 0.50053 0.0
C183 C 0.25232 0.85331 0.53398 0.0
C184 C 0.2573 0.87427 0.46296 0.0
O185 O 0.23496 0.88551 0.50666 0.0
O186 O 0.24517 0.91343 0.4927 0.0
C187 C 0.27262 0.93819 0.51551 0.0
N188 N 0.28163 0.93011 0.50021 0.0
C189 C 0.31041 0.94919 0.50602 0.0
C190 C 0.30138 0.95785 0.52174 0.0
C191 C 0.28243 0.95226 0.52654 0.0
C192 C 0.29994 0.93522 0.49559 0.0
H193 H 0.25809 0.93387 0.51928 0.0
C194 C 0.23222 0.90306 0.50104 0.0
O195 O 0.24673 0.84659 0.51761 0.0
O196 O 0.26162 0.86992 0.5341 0.0
N197 N 0.29734 0.91153 0.47184 0.0
C198 C 0.30412 0.90152 0.45647 0.0
C199 C 0.32284 0.90548 0.44974 0.0
C200 C 0.3343 0.9198 0.45874 0.0
C201 C 0.327 0.92998 0.47447 0.0
C202 C 0.30815 0.92559 0.4804 0.0
H203 H 0.29532 0.89063 0.44936 0.0
O204 O 0.28658 0.8592 0.50443 0.0
O205 O 0.27834 0.89022 0.50043 0.0
O206 O 0.25572 0.86396 0.47794 0.0
O207 O 0.26264 0.89229 0.46306 0.0
C208 C 0.33772 0.94421 0.48457 0.0
C209 C 0.32947 0.95373 0.5004 0.0
H210 H 0.30889 0.9687 0.53029 0.0
H211 H 0.27539 0.95879 0.53872 0.0
H212 H 0.32838 0.89756 0.43759 0.0
H213 H 0.34868 0.9229 0.45344 0.0
H214 H 0.35239 0.94779 0.48041 0.0
H215 H 0.33793 0.96449 0.50819 0.0
Mn216 Mn 0.39252 -0.00093 0.75218 0.0
Mn217 Mn 0.34825 0.98883 0.76973 0.0
C218 C 0.38309 0.96681 0.7568 0.0
C219 C 0.41187 0.00501 0.72565 0.0
C220 C 0.38183 0.00286 0.79413 0.0
O221 O 0.37825 0.02498 0.74919 0.0
O222 O 0.34853 0.01569 0.7588 0.0
C223 C 0.32677 0.98804 0.73344 0.0
N224 N 0.33217 0.97901 0.74979 0.0
C225 C 0.3128 0.95056 0.7424 0.0
C226 C 0.30691 0.9596 0.72555 0.0
C227 C 0.31402 0.97837 0.72099 0.0
C228 C 0.32574 0.96079 0.7541 0.0
H229 H 0.33216 0.00249 0.72993 0.0
C230 C 0.36036 0.02836 0.75199 0.0
O231 O 0.41712 0.0111 0.74238 0.0
O232 O 0.39529 0.99623 0.72437 0.0
N233 N 0.34556 0.96326 0.78066 0.0
C234 C 0.35282 0.95647 0.79735 0.0
C235 C 0.34731 0.93778 0.80384 0.0
C236 C 0.33412 0.92641 0.79331 0.0
C237 C 0.32655 0.93386 0.77638 0.0
C238 C 0.33267 0.95253 0.77055 0.0
H239 H 0.36277 0.96522 0.80564 0.0
O240 O 0.40126 0.97126 0.75528 0.0
O241 O 0.37108 0.98127 0.75522 0.0
O242 O 0.3945 0.00369 0.78093 0.0
O243 O 0.36414 0.9982 0.79124 0.0
C244 C 0.3131 0.92353 0.7651 0.0
C245 C 0.30634 0.93181 0.74805 0.0
H246 H 0.29697 0.95225 0.71598 0.0
H247 H 0.30961 0.98542 0.70798 0.0
H248 H 0.35315 0.93218 0.81697 0.0
H249 H 0.32989 0.912 0.79836 0.0
H250 H 0.30801 0.90911 0.76931 0.0
H251 H 0.29621 0.92359 0.73937 0.0
Mn252 Mn 0.2528 0.12963 0.00067 0.0
Mn253 Mn 0.24455 0.08926 0.97385 0.0
C254 C 0.22136 0.11899 0.99532 0.0
C255 C 0.25957 0.14361 0.03038 0.0
C256 C 0.25568 0.12897 0.95736 0.0
O257 O 0.2793 0.11666 -0.00082 0.0
O258 O 0.2714 0.08873 0.98372 0.0
C259 C 0.24641 0.05933 0.00412 0.0
N260 N 0.23657 0.06803 0.98974 0.0
C261 C 0.20949 0.04613 0.99387 0.0
C262 C 0.21938 0.03685 0.00867 0.0
C263 C 0.2379 0.04353 0.01385 0.0
C264 C 0.21869 0.06184 0.98474 0.0
H265 H 0.26064 0.06445 0.00813 0.0
C266 C 0.28363 0.09989 0.99221 0.0
O267 O 0.26367 0.15275 0.01473 0.0
O268 O 0.25196 0.12624 0.02873 0.0
N269 N 0.21916 0.08768 0.96323 0.0
C270 C 0.21146 0.09845 0.94887 0.0
C271 C 0.19303 0.09361 0.94191 0.0
C272 C 0.1828 0.07766 0.94965 0.0
C273 C 0.19106 0.06672 0.96433 0.0
C274 C 0.20957 0.07209 0.97053 0.0
H275 H 0.21933 0.1106 0.94273 0.0
O276 O 0.22476 0.13689 0.00077 0.0
O277 O 0.23641 0.1078 0.99354 0.0
O278 O 0.25563 0.13858 0.97297 0.0
O279 O 0.25223 0.11052 0.95634 0.0
C280 C 0.18163 0.05077 0.97313 0.0
C281 C 0.19079 0.04055 0.98796 0.0
H282 H 0.21285 0.02467 0.01622 0.0
H283 H 0.24558 0.03649 0.0253 0.0
H284 H 0.18676 0.10211 0.93056 0.0
H285 H 0.16863 0.07393 0.94417 0.0
H286 H 0.16724 0.04638 0.96873 0.0
H287 H 0.18331 0.02846 0.99476 0.0
Mn288 Mn 0.76006 0.37187 0.00838 0.0
Mn289 Mn 0.77363 0.41029 0.98116 0.0
C290 C 0.79241 0.3779 0.0034 0.0
C291 C 0.75073 0.35946 0.03768 0.0
C292 C 0.75893 0.37161 0.96519 0.0
O293 O 0.73552 0.38795 0.0061 0.0
O294 O 0.74689 0.41453 0.99066 0.0
C295 C 0.77485 0.44073 0.01122 0.0
N296 N 0.78377 0.43073 0.99697 0.0
C297 C 0.81306 0.44945 0.00118 0.0
C298 C 0.80413 0.46007 0.0158 0.0
C299 C 0.78497 0.45563 0.02089 0.0
C300 C 0.80227 0.43472 0.99211 0.0
H301 H 0.76015 0.43731 0.01521 0.0
C302 C 0.7334 0.40508 -0.00082 0.0
O303 O 0.74583 0.35069 0.02201 0.0
O304 O 0.76058 0.37567 0.03626 0.0
N305 N 0.79919 0.40859 0.97094 0.0
C306 C 0.80585 0.39667 0.95684 0.0
C307 C 0.82477 0.39923 0.95004 0.0
C308 C 0.83657 0.41413 0.95766 0.0
C309 C 0.82939 0.42628 0.97208 0.0
C310 C 0.81034 0.42319 0.97813 0.0
H311 H 0.79679 0.38533 0.95077 0.0
O312 O 0.78662 0.36081 0.00926 0.0
O313 O 0.77916 0.39121 0.00128 0.0
O314 O 0.75726 0.36274 0.981 0.0
O315 O 0.76393 0.38965 0.96364 0.0
C316 C 0.84044 0.44123 0.98079 0.0
C317 C 0.83231 0.45273 0.99541 0.0
H318 H 0.81189 0.47156 0.0233 0.0
H319 H 0.77802 0.46369 0.03223 0.0
H320 H 0.83022 0.38979 0.93891 0.0
H321 H 0.85112 0.41612 0.95231 0.0
H322 H 0.85526 0.44384 0.97652 0.0
H323 H 0.84101 0.46402 0.00217 0.0
Mn324 Mn 0.88356 0.49767 0.25021 0.0
Mn325 Mn 0.8423 0.4835 0.27193 0.0
C326 C 0.87758 0.46473 0.25489 0.0
C327 C 0.89898 0.50623 0.22188 0.0
C328 C 0.87725 0.49946 0.29316 0.0
O329 O 0.86709 0.52226 0.24953 0.0
O330 O 0.83938 0.51072 0.26204 0.0
C331 C 0.817 0.48203 0.23813 0.0
N332 N 0.82479 0.47302 0.25352 0.0
C333 C 0.80737 0.4431 0.24682 0.0
C334 C 0.79905 0.4521 0.23096 0.0
C335 C 0.80394 0.47163 0.22657 0.0
C336 C 0.8203 0.4542 0.2578 0.0
H337 H 0.82074 0.49703 0.23471 0.0
C338 C 0.84948 0.5244 0.25439 0.0
O339 O 0.90588 0.51195 0.23816 0.0
O340 O 0.88317 0.49601 0.22222 0.0
N341 N 0.84265 0.45753 0.28224 0.0
C342 C 0.85246 0.45078 0.29763 0.0
C343 C 0.84937 0.43142 0.3038 0.0
C344 C 0.83607 0.41929 0.29424 0.0
C345 C 0.826 0.42661 0.27857 0.0
C346 C 0.82957 0.44608 0.27316 0.0
H347 H 0.86261 0.46006 0.30512 0.0
O348 O 0.89497 0.47092 0.25146 0.0
O349 O 0.86406 0.47795 0.25494 0.0
O350 O 0.88841 0.50167 0.27881 0.0
O351 O 0.85975 0.49348 0.29186 0.0
C352 C 0.8128 0.41526 0.26791 0.0
C353 C 0.80355 0.42348 0.252 0.0
H354 H 0.789 0.44412 0.22199 0.0
H355 H 0.79764 0.47865 0.21431 0.0
H356 H 0.8572 0.42587 0.31591 0.0
H357 H 0.83376 0.40435 0.29901 0.0
H358 H 0.80987 0.40012 0.27167 0.0
H359 H 0.79363 0.41453 0.24377 0.0
Mn360 Mn 0.75354 0.62997 0.4994 0.0
Mn361 Mn 0.74467 0.59073 0.47121 0.0
C362 C 0.72193 0.62011 0.49361 0.0
C363 C 0.7604 0.64282 0.52959 0.0
C364 C 0.75665 0.63076 0.45609 0.0
O365 O 0.7798 0.61651 0.49759 0.0
O366 O 0.77147 0.58934 0.48112 0.0
C367 C 0.74588 0.55969 0.50045 0.0
N368 N 0.73624 0.5691 0.48636 0.0
C369 C 0.70873 0.54761 0.48973 0.0
C370 C 0.7184 0.53761 0.50422 0.0
C371 C 0.73703 0.54371 0.50963 0.0
C372 C 0.71826 0.56344 0.48113 0.0
H373 H 0.76019 0.56437 0.50465 0.0
C374 C 0.78387 0.59994 0.49004 0.0
O375 O 0.7648 0.65237 0.51425 0.0
O376 O 0.75246 0.62567 0.52736 0.0
N377 N 0.71928 0.59004 0.46051 0.0
C378 C 0.71179 0.60154 0.44658 0.0
C379 C 0.69324 0.5974 0.43951 0.0
C380 C 0.68268 0.58139 0.44671 0.0
C381 C 0.69074 0.56969 0.46094 0.0
C382 C 0.70937 0.57439 0.46727 0.0
H383 H 0.71991 0.61376 0.44088 0.0
O384 O 0.72564 0.63776 0.49962 0.0
O385 O 0.73678 0.60871 0.4915 0.0
O386 O 0.75667 0.63982 0.472 0.0
O387 O 0.75285 0.61243 0.45442 0.0
C388 C 0.68097 0.55363 0.46919 0.0
C389 C 0.68993 0.54266 0.48364 0.0
H390 H 0.71162 0.5253 0.51135 0.0
H391 H 0.74456 0.53612 0.52085 0.0
H392 H 0.68712 0.60649 0.42851 0.0
H393 H 0.6684 0.57823 0.44119 0.0
H394 H 0.66649 0.54973 0.46468 0.0
H395 H 0.68218 0.53049 0.49004 0.0
Mn396 Mn 0.61937 0.50433 0.7494 0.0
Mn397 Mn 0.6609 0.5098 0.77407 0.0
C398 C 0.63375 0.53504 0.75201 0.0
C399 C 0.60252 0.49797 0.72129 0.0
C400 C 0.62192 0.50485 0.79288 0.0
O401 O 0.62917 0.47613 0.7514 0.0
O402 O 0.65696 0.48163 0.76742 0.0
C403 C 0.68828 0.4998 0.74332 0.0
N404 N 0.68187 0.51272 0.75666 0.0
C405 C 0.70679 0.53605 0.74866 0.0
C406 C 0.71374 0.52295 0.7349 0.0
C407 C 0.7044 0.50477 0.73219 0.0
C408 C 0.69068 0.53028 0.75933 0.0
H409 H 0.68111 0.48583 0.7412 0.0
C410 C 0.64466 0.47021 0.75936 0.0
O411 O 0.59453 0.49542 0.73777 0.0
O412 O 0.62051 0.50345 0.72118 0.0
N413 N 0.66653 0.53626 0.78154 0.0
C414 C 0.65742 0.54757 0.79472 0.0
C415 C 0.66461 0.56646 0.79877 0.0
C416 C 0.68119 0.57341 0.78937 0.0
C417 C 0.69045 0.56139 0.77603 0.0
C418 C 0.68264 0.54269 0.77261 0.0
H419 H 0.6447 0.54227 0.802 0.0
O420 O 0.61548 0.53337 0.74823 0.0
O421 O 0.64309 0.51865 0.75419 0.0
O422 O 0.61202 0.50403 0.77764 0.0
O423 O 0.64024 0.50711 0.79319 0.0
C424 C 0.70694 0.56732 0.76578 0.0
C425 C 0.71505 0.55471 0.75204 0.0
H426 H 0.72614 0.52675 0.72625 0.0
H427 H 0.70963 0.49462 0.72154 0.0
H428 H 0.65738 0.57565 0.80908 0.0
H429 H 0.68661 0.58804 0.79243 0.0
H430 H 0.71336 0.58167 0.76818 0.0
H431 H 0.72756 0.55957 0.74404 0.0
Mn432 Mn 0.00875 0.75819 0.87318 0.0
Mn433 Mn 0.97682 0.76506 0.90872 0.0
C434 C 0.00187 0.78983 0.88348 0.0
C435 C 0.04015 0.75108 0.86324 0.0
C436 C 0.96509 0.75512 0.86817 0.0
O437 O 0.00581 0.73087 0.88478 0.0
O438 O 0.98787 0.73817 0.91051 0.0
C439 C 0.00412 0.76413 0.94101 0.0
N440 N 0.99005 0.77351 0.93112 0.0
C441 C 0.99075 0.80091 0.95277 0.0
C442 C 0.00502 0.79139 0.96336 0.0
C443 C 0.0118 0.77297 0.9574 0.0
C444 C 0.98363 0.79137 0.93657 0.0
H445 H 0.00953 0.75009 0.93636 0.0
C446 C 0.99792 0.72622 0.90053 0.0
O447 O 0.02531 0.74751 0.8525 0.0
O448 O 0.03672 0.75871 0.87979 0.0
N449 N 0.96512 0.79049 0.90904 0.0
C450 C 0.95183 0.79806 0.89687 0.0
C451 C 0.94376 0.81653 0.90067 0.0
C452 C 0.94931 0.82697 0.917 0.0
C453 C 0.9629 0.81885 0.92939 0.0
C454 C 0.97027 0.80027 0.92499 0.0
H455 H 0.9474 0.79009 0.88434 0.0
O456 O 0.00976 0.78696 0.86701 0.0
O457 O -0.00117 0.77419 0.89358 0.0
O458 O 0.98203 0.75584 0.86108 0.0
O459 O 0.96174 0.75712 0.88594 0.0
C460 C 0.96956 0.82854 0.94584 0.0
C461 C 0.98354 0.81962 0.95747 0.0
H462 H 0.01103 0.79819 0.97597 0.0
H463 H 0.02296 0.76562 0.96538 0.0
H464 H 0.93328 0.8227 0.89103 0.0
H465 H 0.94307 0.84122 0.91985 0.0
H466 H 0.9642 0.84298 0.94954 0.0
H467 H 0.98877 0.82735 0.96992 0.0
Mn468 Mn 0.00598 0.24608 0.63439 0.0
Mn469 Mn 0.9733 0.23024 0.60233 0.0
C470 C 0.00262 0.21298 0.62835 0.0
C471 C 0.0371 0.25698 0.64133 0.0
C472 C 0.96266 0.24283 0.64237 0.0
O473 O -0.00057 0.27091 0.62003 0.0
O474 O 0.97902 0.25871 0.598 0.0
C475 C 0.99766 0.23408 0.56798 0.0
N476 N 0.98659 0.22277 0.57966 0.0
C477 C 0.99214 0.19407 0.56043 0.0
C478 C 0.00345 0.20546 0.5481 0.0
C479 C 0.00624 0.22554 0.55192 0.0
C480 C 0.98387 0.20341 0.57617 0.0
H481 H 1e-05 0.24948 0.57093 0.0
C482 C 0.98869 0.27288 0.60548 0.0
O483 O 0.0227 0.26084 0.65257 0.0
O484 O 0.0332 0.24758 0.62579 0.0
N485 N 0.96667 0.20298 0.60454 0.0
C486 C 0.95603 0.19386 0.61822 0.0
C487 C 0.95206 0.17367 0.61662 0.0
C488 C 0.95905 0.16307 0.60096 0.0
C489 C 0.96992 0.17277 0.58702 0.0
C490 C 0.97317 0.19297 0.58924 0.0
H491 H 0.95076 0.20186 0.63037 0.0
O492 O 0.01053 0.21899 0.644 0.0
O493 O 0.99721 0.22655 0.61659 0.0
O494 O 0.9798 0.24688 0.64785 0.0
O495 O 0.95857 0.23695 0.62558 0.0
C496 C 0.97788 0.16312 0.57116 0.0
C497 C 0.98903 0.17376 0.5579 0.0
H498 H 0.01018 0.19891 0.53575 0.0
H499 H 0.01506 0.2344 0.54254 0.0
H500 H 0.94372 0.16628 0.62748 0.0
H501 H 0.95607 0.14748 0.59985 0.0
H502 H 0.97571 0.14748 0.56914 0.0
H503 H 0.99526 0.16613 0.54588 0.0
Mn504 Mn 0.50109 0.24546 0.37203 0.0
Mn505 Mn 0.50116 0.27482 0.33356 0.0
C506 C 0.47252 0.25077 0.35571 0.0
C507 C 0.5066 0.21433 0.38497 0.0
C508 C 0.50267 0.29025 0.37413 0.0
O509 O 0.52969 0.24831 0.36541 0.0
O510 O 0.5274 0.2638 0.33734 0.0
C511 C 0.50821 0.24462 0.30408 0.0
N512 N 0.49723 0.25949 0.31112 0.0
C513 C 0.47499 0.25687 0.28501 0.0
C514 C 0.48619 0.24169 0.27736 0.0
C515 C 0.50282 0.23548 0.28698 0.0
C516 C 0.48104 0.26538 0.30212 0.0
H517 H 0.52091 0.23971 0.3115 0.0
C518 C 0.53711 0.25477 0.35004 0.0
O519 O 0.50756 0.23013 0.39531 0.0
O520 O 0.50241 0.21665 0.36719 0.0
N521 N 0.47667 0.28635 0.32789 0.0
C522 C 0.46715 0.30082 0.3374 0.0
C523 C 0.45005 0.3085 0.32979 0.0
C524 C 0.44304 0.30141 0.31237 0.0
C525 C 0.45326 0.28677 0.30266 0.0
C526 C 0.47028 0.27976 0.31089 0.0
H527 H 0.47251 0.30649 0.35072 0.0
O528 O 0.47213 0.24399 0.37289 0.0
O529 O 0.48955 0.25361 0.34847 0.0
O530 O 0.50046 0.27368 0.38235 0.0
O531 O 0.50457 0.292 0.35614 0.0
C532 C 0.44712 0.27873 0.28523 0.0
C533 C 0.45791 0.2637 0.27647 0.0
H534 H 0.48207 0.23459 0.26418 0.0
H535 H 0.51146 0.22367 0.28125 0.0
H536 H 0.44228 0.31985 0.33734 0.0
H537 H 0.42977 0.30725 0.30661 0.0
H538 H 0.43398 0.2838 0.27857 0.0
H539 H 0.45288 0.25742 0.26322 0.0
Mn540 Mn 0.50278 0.74824 0.1345 0.0
Mn541 Mn 0.469 0.73674 0.10191 0.0
C542 C 0.49788 0.71592 0.12575 0.0
C543 C 0.53443 0.75717 0.14176 0.0
C544 C 0.45958 0.74747 0.14276 0.0
O545 O 0.49707 0.77453 0.12205 0.0
O546 O 0.47687 0.76469 0.09873 0.0
C547 C 0.49275 0.74017 0.06713 0.0
N548 N 0.48116 0.72924 0.07867 0.0
C549 C 0.48327 0.70134 0.05776 0.0
C550 C 0.49508 0.71235 0.04557 0.0
C551 C 0.4999 0.73183 0.05031 0.0
C552 C 0.47657 0.71044 0.07432 0.0
H553 H 0.49655 0.75512 0.07075 0.0
C554 C 0.48697 0.77787 0.10725 0.0
O555 O 0.52034 0.7607 0.15345 0.0
O556 O 0.52996 0.74925 0.1256 0.0
N557 N 0.46045 0.70998 0.10329 0.0
C558 C 0.44975 0.70104 0.11705 0.0
C559 C 0.44426 0.68128 0.11479 0.0
C560 C 0.44968 0.67097 0.09836 0.0
C561 C 0.46054 0.68053 0.08432 0.0
C562 C 0.46555 0.70026 0.08733 0.0
H563 H 0.44551 0.70889 0.1297 0.0
O564 O 0.50627 0.72008 0.14171 0.0
O565 O 0.49283 0.7308 0.11545 0.0
O566 O 0.47697 0.74904 0.14856 0.0
O567 O 0.4551 0.74374 0.12552 0.0
C568 C 0.46678 0.6712 0.06756 0.0
C569 C 0.47812 0.6816 0.05429 0.0
H570 H 0.50067 0.70594 0.03261 0.0
H571 H 0.50911 0.74038 0.04103 0.0
H572 H 0.43588 0.67401 0.12569 0.0
H573 H 0.44551 0.6557 0.09671 0.0
H574 H 0.46314 0.65595 0.06485 0.0
H575 H 0.48305 0.67419 0.04157 0.0
Mn576 Mn 0.88496 -0.00038 0.74222 0.0
Mn577 Mn 0.84767 0.99433 0.77269 0.0
C578 C 0.87299 0.9684 0.74889 0.0
C579 C 0.89639 0.00629 0.71169 0.0
C580 C 0.88901 0.00264 0.7852 0.0
O581 O 0.87421 0.02745 0.74464 0.0
O582 O 0.84735 0.02125 0.7617 0.0
C583 C 0.81555 0.99665 0.74509 0.0
N584 N 0.82487 0.98684 0.75914 0.0
C585 C 0.80163 0.96042 0.75802 0.0
C586 C 0.79164 0.97037 0.74371 0.0
C587 C 0.79869 0.98852 0.73717 0.0
C588 C 0.81836 0.96924 0.76537 0.0
H589 H 0.82101 0.01051 0.73991 0.0
C590 C 0.85823 0.03279 0.75203 0.0
O591 O 0.90698 0.00936 0.7266 0.0
O592 O 0.87911 -0.00064 0.7145 0.0
N593 N 0.84588 0.96899 0.7843 0.0
C594 C 0.8575 0.96101 0.7978 0.0
C595 C 0.85254 0.9428 0.80579 0.0
C596 C 0.83562 0.93306 0.79994 0.0
C597 C 0.82381 0.9416 0.78613 0.0
C598 C 0.82936 0.9599 0.77886 0.0
H599 H 0.87046 0.96845 0.80247 0.0
O600 O 0.89006 0.9706 0.74156 0.0
O601 O 0.86324 0.98444 0.7515 0.0
O602 O 0.89663 0.00157 0.76877 0.0
O603 O 0.87078 0.00133 0.78805 0.0
C604 C 0.80684 0.93261 0.7792 0.0
C605 C 0.79581 0.94197 0.76508 0.0
H606 H 0.77866 0.96413 0.73753 0.0
H607 H 0.79115 0.99621 0.72602 0.0
H608 H 0.86172 0.9363 0.81645 0.0
H609 H 0.83185 0.91902 0.80615 0.0
H610 H 0.80226 0.91839 0.78447 0.0
H611 H 0.78293 0.93479 0.75968 0.0
Mn612 Mn 0.74789 0.12688 0.50628 0.0
Mn613 Mn 0.73418 0.09094 0.4762 0.0
C614 C 0.71562 0.12021 0.5022 0.0
C615 C 0.7575 0.13713 0.53617 0.0
C616 C 0.74812 0.13114 0.46344 0.0
O617 O 0.77256 0.11164 0.50171 0.0
O618 O 0.76137 0.08614 0.4843 0.0
C619 C 0.73435 0.05725 0.50262 0.0
N620 N 0.7247 0.06891 0.49021 0.0
C621 C 0.69525 0.05053 0.49475 0.0
C622 C 0.70492 0.03823 0.50747 0.0
C623 C 0.72455 0.04163 0.51143 0.0
C624 C 0.70581 0.06577 0.48629 0.0
H625 H 0.7494 0.0599 0.50582 0.0
C626 C 0.77489 0.09525 0.49321 0.0
O627 O 0.76181 0.14722 0.52114 0.0
O628 O 0.74839 0.12061 0.53371 0.0
N629 N 0.70813 0.09374 0.46752 0.0
C630 C 0.70068 0.10751 0.45565 0.0
C631 C 0.68107 0.10651 0.45063 0.0
C632 C 0.66935 0.09134 0.45779 0.0
C633 C 0.67737 0.07724 0.46984 0.0
C634 C 0.69706 0.07886 0.4742 0.0
H635 H 0.70959 0.11925 0.45015 0.0
O636 O 0.72113 0.13703 0.50905 0.0
O637 O 0.72921 0.10769 0.49832 0.0
O638 O 0.7497 0.13864 0.47991 0.0
O639 O 0.74327 0.11324 0.46042 0.0
C640 C 0.66652 0.06185 0.47799 0.0
C641 C 0.67545 0.04852 0.49045 0.0
H642 H 0.69738 0.02626 0.5144 0.0
H643 H 0.73209 0.03227 0.52131 0.0
H644 H 0.67498 0.11747 0.44133 0.0
H645 H 0.65418 0.09075 0.45405 0.0
H646 H 0.65125 0.0603 0.47498 0.0
H647 H 0.66691 0.0369 0.49681 0.0
Mn648 Mn 0.61941 0.01188 0.24244 0.0
Mn649 Mn 0.65098 0.02639 0.27614 0.0
C650 C 0.62546 0.04486 0.24698 0.0
C651 C 0.61454 0.00179 0.21114 0.0
C652 C 0.60978 0.01329 0.28476 0.0
O653 O 0.6337 0.98684 0.24874 0.0
O654 O 0.65581 -0.00169 0.26946 0.0
C655 C 0.68698 0.02418 0.25356 0.0
N656 N 0.67454 0.03477 0.26446 0.0
C657 C 0.6944 0.06376 0.2617 0.0
C658 C 0.70749 0.05312 0.25057 0.0
C659 C 0.70374 0.03325 0.24646 0.0
C660 C 0.67799 0.0539 0.26848 0.0
H661 H 0.6841 0.00894 0.25028 0.0
C662 C 0.64838 0.98448 0.25939 0.0
O663 O 0.60199 0.99761 0.2243 0.0
O664 O 0.62987 0.01133 0.21633 0.0
N665 N 0.64822 0.05324 0.28383 0.0
C666 C 0.63363 0.06171 0.29388 0.0
C667 C 0.6349 0.0817 0.29874 0.0
C668 C 0.65118 0.09274 0.29332 0.0
C669 C 0.6661 0.08366 0.28316 0.0
C670 C 0.66412 0.06365 0.27887 0.0
H671 H 0.62103 0.05335 0.298 0.0
O672 O 0.60991 0.03913 0.23829 0.0
O673 O 0.63716 0.0311 0.25242 0.0
O674 O 0.6044 0.01022 0.26764 0.0
O675 O 0.62692 0.01866 0.28926 0.0
C676 C 0.68266 0.09379 0.27675 0.0
C677 C 0.69678 0.08386 0.26601 0.0
H678 H 0.72038 0.06009 0.24496 0.0
H679 H 0.71373 0.02497 0.23778 0.0
H680 H 0.62331 0.0886 0.30655 0.0
H681 H 0.65201 0.1082 0.29691 0.0
H682 H 0.68452 0.10931 0.27976 0.0
H683 H 0.70931 0.09187 0.26094 0.0
Mn684 Mn 0.75015 0.87048 0.01099 0.0
Mn685 Mn 0.7574 0.91156 0.98526 0.0
C686 C 0.78134 0.8819 0.0059 0.0
C687 C 0.74325 0.85633 0.04046 0.0
C688 C 0.74721 0.8719 0.96769 0.0
O689 O 0.72352 0.88299 0.01015 0.0
O690 O 0.73066 0.91164 0.99581 0.0
C691 C 0.75554 0.94094 0.01625 0.0
N692 N 0.76532 0.9326 0.00154 0.0
C693 C 0.79224 0.95468 0.00594 0.0
C694 C 0.7824 0.96359 0.02105 0.0
C695 C 0.76399 0.95665 0.02625 0.0
C696 C 0.78308 0.93909 0.99649 0.0
H697 H 0.74142 0.9356 0.02033 0.0
C698 C 0.71888 0.90007 0.00438 0.0
O699 O 0.73949 0.84708 0.02472 0.0
O700 O 0.75092 0.87366 0.03899 0.0
N701 N 0.7827 0.91361 0.97441 0.0
C702 C 0.79057 0.90294 0.95999 0.0
C703 C 0.80902 0.90789 0.95318 0.0
C704 C 0.81914 0.92383 0.96116 0.0
C705 C 0.81074 0.93464 0.97594 0.0
C706 C 0.79221 0.92915 0.982 0.0
H707 H 0.78285 0.89073 0.95372 0.0
O708 O 0.77833 0.8638 0.01086 0.0
O709 O 0.76604 0.89275 0.00436 0.0
O710 O 0.74748 0.862 0.98307 0.0
O711 O 0.74989 0.8905 0.96718 0.0
C712 C 0.8201 0.9505 0.98503 0.0
C713 C 0.81089 0.96047 7e-05 0.0
H714 H 0.78889 0.97567 0.02884 0.0
H715 H 0.75635 0.96338 0.03796 0.0
H716 H 0.81543 0.89946 0.94179 0.0
H717 H 0.83337 0.92759 0.95586 0.0
H718 H 0.83448 0.955 0.98073 0.0
H719 H 0.81834 0.97247 0.00712 0.0
Mn720 Mn 0.24672 0.62756 0.00558 0.0
Mn721 Mn 0.23425 0.59414 0.97235 0.0
C722 C 0.21464 0.62083 -0.0002 0.0
C723 C 0.25512 0.63555 0.03652 0.0
C724 C 0.24757 0.63546 0.96293 0.0
O725 O 0.27163 0.61255 0.00141 0.0
O726 O 0.2616 0.58998 0.98004 0.0
C727 C 0.23605 0.55849 0.99619 0.0
N728 N 0.22585 0.57062 0.98465 0.0
C729 C 0.19744 0.55027 0.98733 0.0
C730 C 0.20768 0.53749 -0.00085 0.0
C731 C 0.22705 0.54165 0.00363 0.0
C732 C 0.20717 0.56681 0.98034 0.0
H733 H 0.25093 0.56165 -0.00029 0.0
C734 C 0.27455 0.59762 0.99083 0.0
O735 O 0.25989 0.6468 0.02241 0.0
O736 O 0.24597 0.61937 0.03257 0.0
N737 N 0.20811 0.59633 0.9638 0.0
C738 C 0.20009 0.61049 0.95276 0.0
C739 C 0.18065 0.60873 0.94729 0.0
C740 C 0.16972 0.59236 0.95309 0.0
C741 C 0.17837 0.57786 0.96425 0.0
C742 C 0.19782 0.58036 0.96918 0.0
H743 H 0.20842 0.62309 0.94823 0.0
O744 O 0.21965 0.63728 0.00778 0.0
O745 O 0.22855 0.60884 0.9956 0.0
O746 O 0.24978 0.64124 0.98 0.0
O747 O 0.24218 0.61805 0.95848 0.0
C748 C 0.16839 0.56112 0.97083 0.0
C749 C 0.1779 0.54736 0.98241 0.0
H750 H 0.20077 0.52451 0.00495 0.0
H751 H 0.23502 0.53191 0.01281 0.0
H752 H 0.17409 0.61998 0.93866 0.0
H753 H 0.1547 0.59112 0.94895 0.0
H754 H 0.15333 0.55881 0.96727 0.0
H755 H 0.17 0.53469 0.9876 0.0
Mn756 Mn 0.12068 0.50978 0.74312 0.0
Mn757 Mn 0.15345 0.52444 0.77559 0.0
C758 C 0.12612 0.54282 0.74811 0.0
C759 C 0.11474 0.5003 0.7118 0.0
C760 C 0.11313 0.50991 0.78588 0.0
O761 O 0.13585 0.48498 0.74823 0.0
O762 O 0.15855 0.49666 0.7682 0.0
C763 C 0.18818 0.5236 0.75107 0.0
N764 N 0.17614 0.53364 0.76286 0.0
C765 C 0.19529 0.56309 0.75989 0.0
C766 C 0.20797 0.55303 0.74782 0.0
C767 C 0.20436 0.53322 0.74335 0.0
C768 C 0.1794 0.55274 0.76715 0.0
H769 H 0.18542 0.50839 0.74756 0.0
C770 C 0.15099 0.4828 0.75827 0.0
O771 O 0.10285 0.49546 0.72534 0.0
O772 O 0.13 0.51016 0.71662 0.0
N773 N 0.15053 0.55103 0.784 0.0
C774 C 0.13652 0.55883 0.79528 0.0
C775 C 0.13798 0.57852 0.8011 0.0
C776 C 0.15385 0.58997 0.79532 0.0
C777 C 0.16805 0.58167 0.78365 0.0
C778 C 0.16596 0.56188 0.77853 0.0
H779 H 0.12429 0.55012 0.79976 0.0
O780 O 0.11032 0.5369 0.74001 0.0
O781 O 0.13834 0.52923 0.75272 0.0
O782 O 0.10698 0.50704 0.76896 0.0
O783 O 0.13028 0.51583 0.78969 0.0
C784 C 0.1841 0.5923 0.77677 0.0
C785 C 0.19766 0.58304 0.76482 0.0
H786 H 0.22045 0.5604 0.7418 0.0
H787 H 0.21403 0.52538 0.73397 0.0
H788 H 0.12691 0.58485 0.81003 0.0
H789 H 0.15496 0.60513 0.7999 0.0
H790 H 0.18603 0.60767 0.78038 0.0
H791 H 0.20981 0.59143 0.75941 0.0
Mn792 Mn 0.25149 0.36989 0.51189 0.0
Mn793 Mn 0.25898 0.4104 0.48544 0.0
C794 C 0.28275 0.38099 0.50671 0.0
C795 C 0.24427 0.35626 0.54146 0.0
C796 C 0.24865 0.37044 0.46861 0.0
O797 O 0.22493 0.38248 0.51066 0.0
O798 O 0.2322 0.41089 0.49596 0.0
C799 C 0.25728 0.44043 0.51585 0.0
N800 N 0.26703 0.43172 0.50133 0.0
C801 C 0.29416 0.4536 0.50543 0.0
C802 C 0.28435 0.4629 0.52034 0.0
C803 C 0.26586 0.45625 0.5256 0.0
C804 C 0.28487 0.43793 0.49623 0.0
H805 H 0.2431 0.43532 0.51998 0.0
C806 C 0.22035 0.39948 0.50464 0.0
O807 O 0.2406 0.3468 0.52582 0.0
O808 O 0.25208 0.37353 0.53984 0.0
N809 N 0.2843 0.41205 0.47459 0.0
C810 C 0.29211 0.40102 0.46039 0.0
C811 C 0.31066 0.40562 0.45359 0.0
C812 C 0.32093 0.42157 0.46136 0.0
C813 C 0.31257 0.43277 0.47588 0.0
C814 C 0.29395 0.42762 0.48194 0.0
H815 H 0.28428 0.38879 0.45429 0.0
O816 O 0.2796 0.36303 0.51203 0.0
O817 O 0.26753 0.39194 0.50493 0.0
O818 O 0.24897 0.36088 0.48417 0.0
O819 O 0.25132 0.38904 0.46773 0.0
C820 C 0.32206 0.4487 0.48474 0.0
C821 C 0.31289 0.45906 0.49955 0.0
H822 H 0.29094 0.47505 0.52794 0.0
H823 H 0.25824 0.46328 0.53715 0.0
H824 H 0.31703 0.39689 0.44239 0.0
H825 H 0.33525 0.42505 0.4561 0.0
H826 H 0.33652 0.45294 0.48044 0.0
H827 H 0.32044 0.47111 0.50642 0.0
Mn828 Mn 0.38329 0.49812 0.24217 0.0
Mn829 Mn 0.34602 0.49279 0.27263 0.0
C830 C 0.37167 0.46686 0.24918 0.0
C831 C 0.39462 0.50454 0.21158 0.0
C832 C 0.38724 0.5018 0.28511 0.0
O833 O 0.37223 0.52581 0.24425 0.0
O834 O 0.34539 0.51958 0.26134 0.0
C835 C 0.31389 0.49439 0.24498 0.0
N836 N 0.32332 0.48485 0.25913 0.0
C837 C 0.30043 0.45812 0.25825 0.0
C838 C 0.29033 0.46778 0.24383 0.0
C839 C 0.29715 0.48595 0.23711 0.0
C840 C 0.31704 0.46724 0.26552 0.0
H841 H 0.31918 0.50827 0.23967 0.0
C842 C 0.35618 0.53109 0.25155 0.0
O843 O 0.40518 0.50795 0.22644 0.0
O844 O 0.37743 0.49741 0.21448 0.0
N845 N 0.34453 0.46756 0.2845 0.0
C846 C 0.35626 0.45985 0.29806 0.0
C847 C 0.35153 0.44166 0.3062 0.0
C848 C 0.33474 0.43164 0.30045 0.0
C849 C 0.32282 0.43989 0.28656 0.0
C850 C 0.32814 0.45819 0.27912 0.0
H851 H 0.36913 0.4675 0.30265 0.0
O852 O 0.38874 0.46917 0.24186 0.0
O853 O 0.36174 0.48282 0.25159 0.0
O854 O 0.3949 0.50059 0.2687 0.0
O855 O 0.36902 0.50026 0.28794 0.0
C856 C 0.30597 0.4306 0.27969 0.0
C857 C 0.29484 0.43966 0.26547 0.0
H858 H 0.27744 0.4613 0.23769 0.0
H859 H 0.28953 0.49342 0.22588 0.0
H860 H 0.3608 0.43538 0.31692 0.0
H861 H 0.33115 0.41761 0.30678 0.0
H862 H 0.30158 0.41637 0.28508 0.0
H863 H 0.28206 0.43225 0.26012 0.0
O864 O 0.02596 0.01853 0.99797 0.0
Mn865 Mn -0.00063 0.00407 0.00104 0.0
O866 O 0.04915 0.99562 0.00094 0.0
Mn867 Mn 0.03304 0.97527 0.00887 0.0
O868 O 0.97262 0.98979 0.00406 0.0
O869 O 0.98712 0.03003 0.00639 0.0
Mn870 Mn 0.96634 0.03341 0.99254 0.0
O871 O 0.99426 0.00676 0.97172 0.0
O872 O 0.94988 0.0128 -0.00106 0.0
O873 O 0.00453 0.00134 0.03031 0.0
O874 O 0.02536 0.97632 0.03404 0.0
O875 O 0.96897 0.05574 0.00746 0.0
O876 O 0.9749 0.03284 0.9677 0.0
C877 C 0.01494 0.96117 0.98811 0.0
C878 C 0.04377 0.01321 0.99774 0.0
C879 C 0.95486 0.99518 0.00269 0.0
C880 C 0.98411 0.04698 0.01391 0.0
C881 C 0.98543 0.01915 0.96106 0.0
C882 C 0.01413 0.98938 0.04077 0.0
O883 O 0.01166 0.97806 0.9957 0.0
O884 O 0.03034 0.95272 0.99437 0.0
O885 O 0.27442 0.75068 0.24914 0.0
Mn886 Mn 0.24433 0.74775 0.25228 0.0
O887 O 0.27962 0.77788 0.23175 0.0
Mn888 Mn 0.25488 0.7789 0.22199 0.0
O889 O 0.21432 0.74498 0.25536 0.0
O890 O 0.24865 0.7208 0.26304 0.0
Mn891 Mn 0.23385 0.71717 0.28308 0.0
O892 O 0.24625 0.76044 0.27914 0.0
O893 O 0.20867 0.71915 0.27445 0.0
O894 O 0.24279 0.73512 0.2254 0.0
O895 O 0.249 0.75932 0.2045 0.0
O896 O 0.24742 0.69414 0.27978 0.0
O897 O 0.24145 0.7363 0.3004 0.0
C898 C 0.23246 0.79172 0.23883 0.0
C899 C 0.28572 0.76372 0.24184 0.0
C900 C 0.20282 0.73278 0.26358 0.0
C901 C 0.25488 0.70314 0.26538 0.0
C902 C 0.24536 0.75415 0.29629 0.0
C903 C 0.245 0.74142 0.20836 0.0
O904 O 0.23968 0.77453 0.24148 0.0
O905 O 0.23991 0.80113 0.22467 0.0
O906 O 0.47856 0.98311 0.49577 0.0
Mn907 Mn 0.5014 0.00267 0.5 0.0
O908 O 0.45113 0.00032 0.49933 0.0
Mn909 Mn 0.4628 0.0236 0.5071 0.0
O910 O 0.52457 0.02208 0.50469 0.0
O911 O 0.51793 0.97938 0.50568 0.0
Mn912 Mn 0.54074 0.9814 0.49499 0.0
O913 O 0.50838 0.00084 0.47114 0.0
O914 O 0.55137 0.00349 0.50629 0.0
O915 O 0.49487 0.00439 0.52908 0.0
O916 O 0.46995 0.02515 0.53233 0.0
O917 O 0.53999 0.95713 0.50683 0.0
O918 O 0.53579 0.98319 0.46918 0.0
C919 C 0.47693 0.04145 0.48629 0.0
C920 C 0.46009 0.98445 0.49562 0.0
C921 C 0.54269 0.01987 0.50814 0.0
C922 C 0.52263 0.96215 0.51147 0.0
C923 C 0.5218 0.99239 0.46151 0.0
C924 C 0.48334 0.01471 0.53932 0.0
O925 O 0.48433 0.02581 0.49373 0.0
O926 O 0.46 0.04585 0.4928 0.0
O927 O 0.27441 0.25907 0.77386 0.0
Mn928 Mn 0.25315 0.25368 0.7535 0.0
O929 O 0.30108 0.26987 0.7588 0.0
Mn930 Mn 0.29346 0.26108 0.73501 0.0
O931 O 0.23159 0.24826 0.73323 0.0
O932 O 0.23754 0.24078 0.77391 0.0
Mn933 Mn 0.21301 0.24694 0.77239 0.0
O934 O 0.24041 0.28063 0.75959 0.0
O935 O 0.20534 0.23731 0.74901 0.0
O936 O 0.26622 0.22684 0.7473 0.0
O937 O 0.29398 0.23392 0.73176 0.0
O938 O 0.21551 0.23117 0.79361 0.0
O939 O 0.21241 0.27417 0.77474 0.0
C940 C 0.27267 0.27711 0.71853 0.0
C941 C 0.2917 0.26604 0.77393 0.0
C942 C 0.21438 0.241 0.73366 0.0
C943 C 0.23362 0.23114 0.78912 0.0
C944 C 0.22485 0.2862 0.76795 0.0
C945 C 0.28173 0.22167 0.73854 0.0
O946 O 0.26883 0.26681 0.73333 0.0
O947 O 0.29086 0.2778 0.7144 0.0
O948 O 0.00056 0.9852 0.48131 0.0
Mn949 Mn 0.00656 0.00638 0.50207 0.0
O950 O 0.99248 0.95722 0.49654 0.0
Mn951 Mn 0.00241 0.96468 0.51992 0.0
O952 O 0.0127 0.02725 0.52318 0.0
O953 O 0.0178 0.02363 0.48172 0.0
Mn954 Mn 0.01059 0.04812 0.48522 0.0
O955 O 0.97921 0.01856 0.49803 0.0
O956 O 0.02055 0.05545 0.50848 0.0
O957 O 0.03378 0.99405 0.50598 0.0
O958 O 0.02927 0.96541 0.52145 0.0
O959 O 0.02616 0.04825 0.46396 0.0
O960 O 0.98384 0.04776 0.48372 0.0
C961 C 0.98641 0.98467 0.53765 0.0
C962 C 0.99437 0.96734 0.48145 0.0
C963 C 0.01891 0.04508 0.5234 0.0
C964 C 0.02742 0.02959 0.46712 0.0
C965 C 0.97278 0.03444 0.49053 0.0
C966 C 0.04022 0.97851 0.51408 0.0
O967 O 0.99542 0.98929 0.52234 0.0
O968 O 0.98735 0.9662 0.54171 0.0
O969 O 0.27103 0.77864 0.75769 0.0
Mn970 Mn 0.25256 0.75429 0.7551 0.0
O971 O 0.25174 0.80517 0.75987 0.0
Mn972 Mn 0.22906 0.79317 0.75192 0.0
O973 O 0.23403 0.73033 0.75283 0.0
O974 O 0.27488 0.73748 0.7468 0.0
Mn975 Mn 0.27574 0.71647 0.76137 0.0
O976 O 0.25712 0.74814 0.78393 0.0
O977 O 0.25212 0.7036 0.75855 0.0
O978 O 0.2477 0.76101 0.72661 0.0
O979 O 0.22785 0.78719 0.72623 0.0
O980 O 0.29518 0.71349 0.7438 0.0
O981 O 0.28073 0.72582 0.78545 0.0
C982 C 0.21402 0.77402 0.77137 0.0
C983 C 0.26838 0.79715 0.76045 0.0
C984 C 0.23594 0.71175 0.75506 0.0
C985 C 0.28925 0.73022 0.73745 0.0
C986 C 0.26963 0.73824 0.79331 0.0
C987 C 0.23734 0.77368 0.71779 0.0
O988 O 0.22997 0.77023 0.76291 0.0
O989 O 0.20732 0.7912 0.76745 0.0
O990 O 0.4818 -0.00018 0.98239 0.0
Mn991 Mn 0.50434 0.00387 0.00204 0.0
O992 O 0.49469 0.98527 0.95656 0.0
Mn993 Mn 0.51979 0.99315 0.96164 0.0
O994 O 0.52734 0.00763 0.02115 0.0
O995 O 0.48619 0.01957 0.01829 0.0
Mn996 Mn 0.49087 0.01518 0.04241 0.0
O997 O 0.49642 0.97835 0.01638 0.0
O998 O 0.5159 0.02353 0.04662 0.0
O999 O 0.51231 0.02937 0.98788 0.0
O1000 O 0.52412 0.02016 0.95939 0.0
O1001 O 0.47059 0.03268 0.04179 0.0
O1002 O 0.48692 0.98827 0.0455 0.0
C1003 C 0.53694 0.97759 0.98231 0.0
C1004 C 0.48023 0.99147 0.96602 0.0
C1005 C 0.52986 0.01656 0.03704 0.0
C1006 C 0.47232 0.03092 0.0236 0.0
C1007 C 0.49034 0.97478 0.03329 0.0
C1008 C 0.51966 0.03337 0.97158 0.0
O1009 O 0.52229 0.98842 0.98592 0.0
O1010 O 0.54044 0.97591 0.96438 0.0
O1011 O 0.27944 0.25287 0.25614 0.0
Mn1012 Mn 0.24958 0.25346 0.25095 0.0
O1013 O 0.28559 0.22564 0.27298 0.0
Mn1014 Mn 0.26024 0.22194 0.28056 0.0
O1015 O 0.21965 0.25422 0.24578 0.0
O1016 O 0.2532 0.28105 0.24163 0.0
Mn1017 Mn 0.23909 0.28525 0.22133 0.0
O1018 O 0.25411 0.24244 0.22349 0.0
O1019 O 0.21381 0.2817 0.22912 0.0
O1020 O 0.24514 0.2646 0.27842 0.0
O1021 O 0.25132 0.23976 0.29853 0.0
O1022 O 0.25248 0.30836 0.22603 0.0
O1023 O 0.24799 0.26732 0.20338 0.0
C1024 C 0.2398 0.20794 0.2621 0.0
C1025 C 0.29122 0.24078 0.26392 0.0
C1026 C 0.20803 0.26664 0.23822 0.0
C1027 C 0.25986 0.29869 0.23998 0.0
C1028 C 0.25323 0.24967 0.20665 0.0
C1029 C 0.24615 0.25742 0.29528 0.0
O1030 O 0.246 0.22577 0.26024 0.0
O1031 O 0.24727 0.1986 0.27622 0.0
O1032 O 0.49833 0.47794 0.98385 0.0
Mn1033 Mn 0.50448 0.50126 0.0022 0.0
O1034 O 0.49443 0.45077 0.00176 0.0
Mn1035 Mn 0.50514 0.46124 0.02375 0.0
O1036 O 0.51057 0.52433 0.02086 0.0
O1037 O 0.51293 0.51736 0.97972 0.0
Mn1038 Mn 0.50313 0.54109 0.98109 0.0
O1039 O 0.47598 0.51098 -0.00044 0.0
O1040 O 0.513 0.55178 0.00324 0.0
O1041 O 0.53282 0.49134 0.00489 0.0
O1042 O 0.53185 0.46439 0.02344 0.0
O1043 O 0.51779 0.54067 0.95924 0.0
O1044 O 0.4766 0.53737 0.98034 0.0
C1045 C 0.48842 0.48152 0.04057 0.0
C1046 C 0.49393 0.45967 0.98584 0.0
C1047 C 0.51426 0.54273 0.01899 0.0
C1048 C 0.5212 0.52274 0.96414 0.0
C1049 C 0.46753 0.52442 0.98994 0.0
C1050 C 0.54111 0.47739 0.014 0.0
O1051 O 0.49626 0.48532 0.02449 0.0
O1052 O 0.4912 0.46372 0.04621 0.0
O1053 O 0.77453 0.27643 0.26065 0.0
Mn1054 Mn 0.7521 0.25607 0.25657 0.0
O1055 O 0.76055 0.30464 0.27039 0.0
Mn1056 Mn 0.73544 0.29811 0.26365 0.0
O1057 O 0.72938 0.2362 0.25273 0.0
O1058 O 0.77045 0.23853 0.24275 0.0
Mn1059 Mn 0.76729 0.21382 0.24929 0.0
O1060 O 0.759 0.24277 0.28225 0.0
O1061 O 0.74206 0.20758 0.24276 0.0
O1062 O 0.74521 0.26929 0.231 0.0
O1063 O 0.7305 0.29797 0.23762 0.0
O1064 O 0.78711 0.21434 0.23158 0.0
O1065 O 0.77238 0.21354 0.27513 0.0
C1066 C 0.71968 0.27747 0.28126 0.0
C1067 C 0.77544 0.29419 0.26697 0.0
C1068 C 0.7277 0.21856 0.2465 0.0
C1069 C 0.78417 0.23307 0.23166 0.0
C1070 C 0.76716 0.22662 0.2871 0.0
C1071 C 0.73648 0.285 0.22586 0.0
O1072 O 0.73369 0.27335 0.27013 0.0
O1073 O 0.71561 0.29596 0.28155 0.0
O1074 O 0.98198 0.49574 0.4804 0.0
Mn1075 Mn 0.00353 0.50021 0.501 0.0
O1076 O 0.99652 0.48256 0.45475 0.0
Mn1077 Mn 0.02097 0.4916 0.46096 0.0
O1078 O 0.02553 0.5045 0.52111 0.0
O1079 O 0.98404 0.5145 0.51698 0.0
Mn1080 Mn 0.98757 0.509 0.54107 0.0
O1081 O 0.99628 0.47371 0.51417 0.0
O1082 O 0.01207 0.51788 0.547 0.0
O1083 O 0.01072 0.5266 0.48788 0.0
O1084 O 0.02391 0.51885 0.45957 0.0
O1085 O 0.96692 0.52601 0.54026 0.0
O1086 O 0.98423 0.48191 0.54285 0.0
C1087 C 0.0382 0.47634 0.48174 0.0
C1088 C 0.98143 0.4878 0.46378 0.0
C1089 C 0.02681 0.51251 0.53759 0.0
C1090 C 0.96971 0.52534 0.52213 0.0
C1091 C 0.98916 0.46912 0.53045 0.0
C1092 C 0.01835 0.53145 0.47191 0.0
O1093 O 0.02288 0.48623 0.48517 0.0
O1094 O 0.0424 0.47546 0.4639 0.0
O1095 O 0.77169 0.76024 0.27432 0.0
Mn1096 Mn 0.75042 0.75454 0.25394 0.0
O1097 O 0.79832 0.77089 0.25918 0.0
Mn1098 Mn 0.79087 0.76103 0.23577 0.0
O1099 O 0.72883 0.74874 0.23378 0.0
O1100 O 0.73475 0.74232 0.27456 0.0
Mn1101 Mn 0.71019 0.74819 0.27288 0.0
O1102 O 0.73786 0.78177 0.25944 0.0
O1103 O 0.70286 0.73749 0.24982 0.0
O1104 O 0.76304 0.72735 0.2483 0.0
O1105 O 0.79144 0.73373 0.23377 0.0
O1106 O 0.71315 0.73369 0.29496 0.0
O1107 O 0.70952 0.77551 0.27411 0.0
C1108 C 0.77054 0.77658 0.21834 0.0
C1109 C 0.78891 0.76737 0.27436 0.0
C1110 C 0.71179 0.74106 0.23437 0.0
C1111 C 0.73123 0.73369 0.29038 0.0
C1112 C 0.72211 0.78744 0.26741 0.0
C1113 C 0.7788 0.72172 0.24029 0.0
O1114 O 0.76629 0.7669 0.23343 0.0
O1115 O 0.7888 0.77685 0.21447 0.0
O1116 O 0.77807 0.24781 0.75109 0.0
Mn1117 Mn 0.74781 0.24899 0.75275 0.0
O1118 O 0.78805 0.27468 0.7353 0.0
Mn1119 Mn 0.76406 0.28031 0.72527 0.0
O1120 O 0.71747 0.25007 0.75413 0.0
O1121 O 0.74828 0.22098 0.76171 0.0
Mn1122 Mn 0.73093 0.21742 0.77967 0.0
O1123 O 0.74952 0.25907 0.78055 0.0
O1124 O 0.70742 0.22233 0.76835 0.0
O1125 O 0.74606 0.23878 0.72501 0.0
O1126 O 0.75583 0.2635 0.70609 0.0
O1127 O 0.74283 0.19346 0.7762 0.0
O1128 O 0.73765 0.23481 0.79901 0.0
C1129 C 0.7433 0.29548 0.74222 0.0
C1130 C 0.79147 0.25921 0.74478 0.0
C1131 C 0.70406 0.23805 0.75927 0.0
C1132 C 0.75271 0.20268 0.76342 0.0
C1133 C 0.74486 0.25198 0.7968 0.0
C1134 C 0.74935 0.24608 0.70855 0.0
O1135 O 0.74741 0.27708 0.74389 0.0
O1136 O 0.75299 0.30453 0.72917 0.0
O1137 O 0.77914 0.75127 0.75672 0.0
Mn1138 Mn 0.7497 0.75417 0.74978 0.0
O1139 O 0.7817 0.72505 0.77582 0.0
Mn1140 Mn 0.75562 0.72343 0.78121 0.0
O1141 O 0.72018 0.75717 0.74294 0.0
O1142 O 0.75609 0.78117 0.73986 0.0
Mn1143 Mn 0.74364 0.78509 0.71844 0.0
O1144 O 0.75498 0.74161 0.72294 0.0
O1145 O 0.71765 0.78368 0.7242 0.0
O1146 O 0.7445 0.76683 0.77664 0.0
O1147 O 0.74642 0.74229 0.79785 0.0
O1148 O 0.75783 0.80764 0.72274 0.0
O1149 O 0.7526 0.76612 0.7017 0.0
C1150 C 0.73623 0.70959 0.76184 0.0
C1151 C 0.78927 0.7389 0.7662 0.0
C1152 C 0.71004 0.7698 0.73376 0.0
C1153 C 0.7637 0.79841 0.73765 0.0
C1154 C 0.75604 0.74824 0.70585 0.0
C1155 C 0.74329 0.76022 0.79372 0.0
O1156 O 0.74336 0.72706 0.75964 0.0
O1157 O 0.74191 0.70065 0.77699 0.0
O1158 O 0.52693 0.51902 0.49577 0.0
Mn1159 Mn 0.50108 0.50311 0.49937 0.0
O1160 O 0.55112 0.49714 0.49426 0.0
Mn1161 Mn 0.53669 0.47617 0.50336 0.0
O1162 O 0.47498 0.48758 0.50279 0.0
O1163 O 0.48816 0.52849 0.50654 0.0
Mn1164 Mn 0.46694 0.53133 0.49311 0.0
O1165 O 0.49469 0.5069 0.47042 0.0
O1166 O 0.45135 0.50989 0.49882 0.0
O1167 O 0.50772 0.499 0.52818 0.0
O1168 O 0.53154 0.47658 0.52916 0.0
O1169 O 0.46838 0.55307 0.50872 0.0
O1170 O 0.47465 0.53256 0.46806 0.0
C1171 C 0.51743 0.46074 0.48476 0.0
C1172 C 0.5448 0.51465 0.49315 0.0
C1173 C 0.45701 0.49235 0.50188 0.0
C1174 C 0.48415 0.54504 0.51461 0.0
C1175 C 0.48525 0.51947 0.46052 0.0
C1176 C 0.51941 0.48784 0.53734 0.0
O1177 O 0.51398 0.4777 0.49224 0.0
O1178 O 0.53394 0.45337 0.48939 0.0
O1179 O 0.97765 0.48197 0.99434 0.0
Mn1180 Mn -0.001 0.50301 -0.00036 0.0
O1181 O 0.95029 0.49791 0.98703 0.0
Mn1182 Mn 0.95853 0.52222 0.9959 0.0
O1183 O 0.02056 0.52402 0.00512 0.0
O1184 O 0.01523 0.48125 0.0101 0.0
Mn1185 Mn 0.03935 0.48362 0.00256 0.0
O1186 O 0.01029 0.49828 0.9726 0.0
O1187 O 0.04734 0.50724 0.01296 0.0
O1188 O 0.98746 0.50816 0.02669 0.0
O1189 O 0.9598 0.52493 0.02213 0.0
O1190 O 0.03798 0.46068 0.01653 0.0
O1191 O 0.03857 0.48258 0.97615 0.0
C1192 C 0.97818 0.53985 0.97936 0.0
C1193 C 0.95999 0.48215 0.9888 0.0
C1194 C 0.03797 0.52322 0.0114 0.0
C1195 C 0.01987 0.46494 0.01808 0.0
C1196 C 0.02541 0.49 0.96575 0.0
C1197 C 0.97265 0.51756 0.03297 0.0
O1198 O 0.98275 0.52435 0.98869 0.0
O1199 O 0.96002 0.54405 0.98024 0.0
C1200 C 0.01098 0.19356 0.09659 0.0
C1201 C -0.00176 0.19695 0.1117 0.0
C1202 C 0.01364 0.17457 0.08951 0.0
C1203 C 0.98872 0.12628 0.08792 0.0
H1204 H 0.03617 0.10981 0.06344 0.0
C1205 C 0.99054 0.05357 0.04779 0.0
C1206 C 0.99587 0.05623 0.02879 0.0
C1207 C 0.99542 0.06775 0.06142 0.0
C1208 C 0.02286 0.11415 0.07034 0.0
H1209 H 0.97991 0.18316 0.13269 0.0
H1210 H 0.98457 0.14981 0.12049 0.0
H1211 H 0.03539 0.14085 0.08092 0.0
H1212 H 0.01157 0.07476 0.00922 0.0
H1213 H 0.02054 0.09931 0.03299 0.0
H1214 H 0.97612 0.0998 0.07709 0.0
C1215 C 0.99196 0.16186 0.11354 0.0
C1216 C 0.02235 0.13202 0.08025 0.0
C1217 C 0.98932 0.18091 0.12059 0.0
C1218 C 0.0077 0.07222 0.02391 0.0
C1219 C 0.01272 0.08633 0.03753 0.0
C1220 C 0.9893 0.10837 0.0782 0.0
C1221 C 0.00384 0.15847 0.09762 0.0
C1222 C 0.00513 0.13853 0.08883 0.0
C1223 C 0.00567 0.08482 0.05619 0.0
C1224 C 0.00626 0.10226 0.06897 0.0
H1225 H 0.01862 0.20569 0.09001 0.0
H1226 H 0.02281 0.17267 0.07721 0.0
H1227 H 0.9751 0.13088 0.09399 0.0
H1228 H 0.98109 0.04152 0.05177 0.0
H1229 H 0.99001 0.06606 0.07574 0.0
C1230 C 0.03892 0.73567 0.32445 0.0
C1231 C 0.03939 0.75018 0.33866 0.0
C1232 C 0.05442 0.7337 0.31179 0.0
C1233 C 0.09445 0.7601 0.28974 0.0
H1234 H 0.12241 0.71103 0.29106 0.0
C1235 C 0.17418 0.75436 0.26718 0.0
C1236 C 0.18182 0.73588 0.26274 0.0
C1237 C 0.1546 0.75625 0.27172 0.0
C1238 C 0.1146 0.7247 0.28994 0.0
H1239 H 0.05609 0.77436 0.35044 0.0
H1240 H 0.08283 0.77122 0.32805 0.0
H1241 H 0.09196 0.71387 0.30792 0.0
H1242 H 0.1749 0.7053 0.25764 0.0
H1243 H 0.14051 0.70875 0.26407 0.0
H1244 H 0.11686 0.77101 0.27166 0.0
C1245 C 0.07061 0.76128 0.32683 0.0
C1246 C 0.09716 0.7263 0.29978 0.0
C1247 C 0.0554 0.76294 0.33972 0.0
C1248 C 0.1693 0.7197 0.26114 0.0
C1249 C 0.14964 0.72166 0.26513 0.0
C1250 C 0.1117 0.75839 0.27951 0.0
C1251 C 0.07034 0.74657 0.31285 0.0
C1252 C 0.08722 0.74415 0.30019 0.0
C1253 C 0.14218 0.73973 0.27151 0.0
C1254 C 0.12235 0.74082 0.2799 0.0
H1255 H 0.02675 0.72566 0.32332 0.0
H1256 H 0.05396 0.7222 0.30115 0.0
H1257 H 0.08691 0.774 0.28975 0.0
H1258 H 0.18364 0.767 0.26876 0.0
H1259 H 0.14962 0.7704 0.27667 0.0
C1260 C 0.47107 0.80975 0.58513 0.0
C1261 C 0.487 0.80298 0.59551 0.0
C1262 C 0.47053 0.82899 0.57841 0.0
C1263 C 0.47813 0.86438 0.5542 0.0
H1264 H 0.50533 0.90778 0.57803 0.0
C1265 C 0.50739 0.92944 0.51209 0.0
C1266 C 0.50961 0.94793 0.52061 0.0
C1267 C 0.49978 0.9137 0.52229 0.0
C1268 C 0.4973 0.89596 0.57132 0.0
H1269 H 0.51467 0.81126 0.60745 0.0
H1270 H 0.51429 0.84472 0.59488 0.0
H1271 H 0.50185 0.87676 0.59489 0.0
H1272 H 0.50519 0.96482 0.5462 0.0
H1273 H 0.49139 0.93722 0.56425 0.0
H1274 H 0.47333 0.88359 0.53078 0.0
C1275 C 0.50187 0.83533 0.59237 0.0
C1276 C 0.49561 0.87799 0.58088 0.0
C1277 C 0.5022 0.81609 0.59949 0.0
C1278 C 0.5031 0.95077 0.53924 0.0
C1279 C 0.49555 0.93488 0.54961 0.0
C1280 C 0.47961 0.88235 0.54479 0.0
C1281 C 0.48614 0.84196 0.58144 0.0
C1282 C 0.48642 0.86177 0.57225 0.0
C1283 C 0.49441 0.91598 0.54141 0.0
C1284 C 0.48973 0.89821 0.55294 0.0
H1285 H 0.45893 0.8001 0.58216 0.0
H1286 H 0.45787 0.8336 0.57063 0.0
H1287 H 0.47111 0.85231 0.54686 0.0
H1288 H 0.51263 0.92688 0.49781 0.0
H1289 H 0.49944 0.89941 0.5155 0.0
C1290 C 0.42273 0.25695 0.88769 0.0
C1291 C 0.43799 0.25079 0.87591 0.0
C1292 C 0.40371 0.25672 0.8811 0.0
C1293 C 0.37052 0.27051 0.85592 0.0
H1294 H 0.34792 0.22826 0.82616 0.0
C1295 C 0.31734 0.28068 0.79444 0.0
C1296 C 0.30245 0.26684 0.79194 0.0
C1297 C 0.33039 0.27879 0.80939 0.0
C1298 C 0.35387 0.24007 0.83472 0.0
H1299 H 0.44496 0.23819 0.84845 0.0
H1300 H 0.41169 0.23752 0.8371 0.0
H1301 H 0.37808 0.22275 0.84333 0.0
H1302 H 0.28903 0.24065 0.80344 0.0
H1303 H 0.31192 0.23726 0.8296 0.0
H1304 H 0.34686 0.28814 0.84647 0.0
C1305 C 0.41454 0.24268 0.85138 0.0
C1306 C 0.37118 0.23696 0.84439 0.0
C1307 C 0.43361 0.24316 0.85786 0.0
C1308 C 0.30012 0.25174 0.80529 0.0
C1309 C 0.31335 0.24967 0.82011 0.0
C1310 C 0.35335 0.2737 0.84603 0.0
C1311 C 0.3995 0.24999 0.86274 0.0
C1312 C 0.37989 0.25228 0.85472 0.0
C1313 C 0.32896 0.26283 0.82191 0.0
C1314 C 0.34511 0.25864 0.835 0.0
H1315 H 0.4255 0.26279 0.90174 0.0
H1316 H 0.39234 0.26226 0.89019 0.0
H1317 H 0.37701 0.28262 0.86367 0.0
H1318 H 0.31948 0.29239 0.78427 0.0
H1319 H 0.34237 0.28905 0.81036 0.0
C1320 C 0.0106 0.81868 0.39739 0.0
C1321 C 0.9945 0.81182 0.38734 0.0
C1322 C 0.01189 0.83835 0.40282 0.0
C1323 C 0.98672 0.88732 0.39846 0.0
H1324 H 0.01235 0.89617 0.44662 0.0
C1325 C 0.97573 0.94519 0.46007 0.0
C1326 C 0.99229 0.95666 0.46346 0.0
C1327 C 0.97583 0.93084 0.44584 0.0
C1328 C 0.0053 0.8939 0.43306 0.0
H1329 H 0.96782 0.82001 0.3737 0.0
H1330 H 0.96895 0.85399 0.38461 0.0
H1331 H 0.01389 0.86412 0.43196 0.0
H1332 H 0.02173 0.96245 0.45471 0.0
H1333 H 0.02194 0.93727 0.42989 0.0
H1334 H 0.97726 0.91731 0.40069 0.0
C1335 C 0.98103 0.84461 0.3879 0.0
C1336 C 0.00624 0.8755 0.42448 0.0
C1337 C 0.98017 0.82505 0.38185 0.0
C1338 C 0.00854 0.95438 0.45178 0.0
C1339 C 0.00874 0.93987 0.43775 0.0
C1340 C 0.98549 0.90572 0.40732 0.0
C1341 C 0.99676 0.85151 0.39883 0.0
C1342 C 0.99682 0.87177 0.40712 0.0
C1343 C 0.99261 0.9276 0.43515 0.0
C1344 C 0.99474 0.90902 0.4247 0.0
H1345 H 0.02219 0.80877 0.40109 0.0
H1346 H 0.02468 0.84306 0.4104 0.0
H1347 H 0.97965 0.88535 0.38491 0.0
H1348 H 0.96321 0.94647 0.4692 0.0
H1349 H 0.9634 0.92122 0.44427 0.0
C1350 C 0.43164 0.75331 0.65499 0.0
C1351 C 0.43348 0.75307 0.63514 0.0
C1352 C 0.41356 0.75598 0.66352 0.0
C1353 C 0.36136 0.75058 0.653 0.0
H1354 H 0.35601 0.77439 0.70273 0.0
C1355 C 0.30272 0.75883 0.7191 0.0
C1356 C 0.29821 0.73877 0.72038 0.0
C1357 C 0.31606 0.76545 0.70546 0.0
C1358 C 0.35711 0.7681 0.68865 0.0
H1359 H 0.41775 0.75628 0.60871 0.0
H1360 H 0.38647 0.76134 0.62352 0.0
H1361 H 0.3867 0.77701 0.68585 0.0
H1362 H 0.30218 0.71027 0.70728 0.0
H1363 H 0.32475 0.72163 0.68346 0.0
H1364 H 0.33188 0.74146 0.6559 0.0
C1365 C 0.39886 0.75895 0.63256 0.0
C1366 C 0.37483 0.76929 0.67909 0.0
C1367 C 0.41687 0.75607 0.62405 0.0
C1368 C 0.30554 0.72582 0.70667 0.0
C1369 C 0.31845 0.73239 0.69293 0.0
C1370 C 0.34366 0.7495 0.66248 0.0
C1371 C 0.39688 0.75868 0.65241 0.0
C1372 C 0.37739 0.75994 0.66143 0.0
C1373 C 0.32458 0.75209 0.69266 0.0
C1374 C 0.34153 0.75755 0.68074 0.0
H1375 H 0.44411 0.75104 0.66397 0.0
H1376 H 0.41261 0.75534 0.67883 0.0
H1377 H 0.36269 0.74311 0.63949 0.0
H1378 H 0.29706 0.76907 0.7294 0.0
H1379 H 0.32033 0.78078 0.70544 0.0
C1380 C 0.5043 0.2068 0.929 0.0
C1381 C 0.50741 0.21065 0.90964 0.0
C1382 C 0.50776 0.1882 0.93646 0.0
C1383 C 0.53304 0.14145 0.92777 0.0
H1384 H 0.4935 0.12013 0.96097 0.0
C1385 C 0.52843 0.05929 0.94779 0.0
C1386 C 0.52191 0.05428 0.96607 0.0
C1387 C 0.52863 0.07884 0.94185 0.0
C1388 C 0.50487 0.12595 0.952 0.0
H1389 H 0.5172 0.19794 0.88307 0.0
H1390 H 0.52316 0.16536 0.89615 0.0
H1391 H 0.49015 0.15323 0.9486 0.0
H1392 H 0.51133 0.06615 0.99272 0.0
H1393 H 0.51202 0.10026 0.98244 0.0
H1394 H 0.5477 0.11406 0.9311 0.0
C1395 C 0.51811 0.17686 0.90554 0.0
C1396 C 0.50291 0.14493 0.94486 0.0
C1397 C 0.5146 0.19551 0.89803 0.0
C1398 C 0.51634 0.06941 0.97851 0.0
C1399 C 0.5166 0.08898 0.97257 0.0
C1400 C 0.53504 0.12245 0.93497 0.0
C1401 C 0.51446 0.17295 0.92479 0.0
C1402 C 0.51692 0.15288 0.93261 0.0
C1403 C 0.52239 0.09389 0.95404 0.0
C1404 C 0.52092 0.11444 0.94711 0.0
H1405 H 0.49895 0.2181 0.93846 0.0
H1406 H 0.50513 0.18575 0.95142 0.0
H1407 H 0.54419 0.14726 0.91854 0.0
H1408 H 0.53283 0.04806 0.9378 0.0
H1409 H 0.53299 0.08205 0.92743 0.0
C1410 C 0.06111 0.2472 0.15211 0.0
C1411 C 0.04492 0.25867 0.15665 0.0
C1412 C 0.07736 0.24729 0.16387 0.0
C1413 C 0.1048 0.27684 0.19677 0.0
H1414 H 0.12452 0.22764 0.21617 0.0
C1415 C 0.17395 0.27744 0.24091 0.0
C1416 C 0.18718 0.26237 0.23732 0.0
C1417 C 0.15479 0.2757 0.23491 0.0
C1418 C 0.1194 0.24152 0.21075 0.0
H1419 H 0.03324 0.2796 0.17678 0.0
H1420 H 0.06211 0.28036 0.19695 0.0
H1421 H 0.09528 0.22773 0.19681 0.0
H1422 H 0.1907 0.23322 0.22559 0.0
H1423 H 0.15757 0.2304 0.21425 0.0
H1424 H 0.12929 0.29068 0.20943 0.0
C1425 C 0.06199 0.27107 0.18445 0.0
C1426 C 0.10257 0.24153 0.19973 0.0
C1427 C 0.04553 0.27065 0.17291 0.0
C1428 C 0.18065 0.24494 0.22876 0.0
C1429 C 0.16159 0.24339 0.22223 0.0
C1430 C 0.12183 0.27681 0.2074 0.0
C1431 C 0.07792 0.25915 0.18018 0.0
C1432 C 0.09521 0.25918 0.19256 0.0
C1433 C 0.14859 0.25912 0.2245 0.0
C1434 C 0.1295 0.25914 0.21449 0.0
H1435 H 0.06101 0.2377 0.13976 0.0
H1436 H 0.08955 0.23812 0.16018 0.0
H1437 H 0.0995 0.29063 0.19125 0.0
H1438 H 0.17871 0.29104 0.2475 0.0
H1439 H 0.14513 0.28782 0.23765 0.0
C1440 C 0.09524 0.00759 0.18886 0.0
C1441 C 0.08983 0.99669 0.20493 0.0
C1442 C 0.08384 0.00722 0.1725 0.0
C1443 C 0.05353 0.97751 0.14385 0.0
H1444 H 0.02952 0.02512 0.1255 0.0
C1445 C 0.0125 0.97567 0.07336 0.0
C1446 C 0.01449 0.99204 0.06151 0.0
C1447 C 0.01774 0.97684 0.09248 0.0
C1448 C 0.03628 0.0117 0.13021 0.0
H1449 H 0.06845 0.97655 0.21634 0.0
H1450 H 0.04895 0.9752 0.18725 0.0
H1451 H 0.04765 0.02572 0.15521 0.0
H1452 H 0.02276 0.02268 0.06031 0.0
H1453 H 0.03287 0.02464 0.09331 0.0
H1454 H 0.04364 0.96362 0.11853 0.0
C1455 C 0.06183 0.98432 0.18759 0.0
C1456 C 0.04653 0.01207 0.14733 0.0
C1457 C 0.07298 0.98508 0.20416 0.0
C1458 C 0.02079 0.00994 0.06929 0.0
C1459 C 0.02661 0.01099 0.0883 0.0
C1460 C 0.04372 0.97721 0.12652 0.0
C1461 C 0.06706 0.99559 0.17173 0.0
C1462 C 0.05531 0.995 0.15421 0.0
C1463 C 0.02585 0.99423 0.10003 0.0
C1464 C 0.03501 0.99434 0.11931 0.0
H1465 H 0.10806 0.01679 0.18908 0.0
H1466 H 0.0882 0.01591 0.16036 0.0
H1467 H 0.06036 0.96421 0.14883 0.0
H1468 H 0.00767 0.9617 0.06763 0.0
H1469 H 0.01615 0.9638 0.10108 0.0
C1470 C 0.24969 0.84415 0.44395 0.0
C1471 C 0.25431 0.86429 0.44448 0.0
C1472 C 0.24921 0.83399 0.42678 0.0
C1473 C 0.24467 0.83844 0.3754 0.0
H1474 H 0.27267 0.78925 0.37545 0.0
C1475 C 0.2514 0.78834 0.30876 0.0
C1476 C 0.24836 0.76819 0.31212 0.0
C1477 C 0.25342 0.80151 0.32393 0.0
C1478 C 0.26469 0.80288 0.37522 0.0
H1479 H 0.26106 0.88972 0.42711 0.0
H1480 H 0.26 0.87182 0.39698 0.0
H1481 H 0.2726 0.80975 0.40377 0.0
H1482 H 0.24517 0.74615 0.33414 0.0
H1483 H 0.24847 0.76898 0.36033 0.0
H1484 H 0.23633 0.83124 0.34693 0.0
C1485 C 0.25688 0.86401 0.40999 0.0
C1486 C 0.26467 0.81461 0.39143 0.0
C1487 C 0.2575 0.87421 0.42725 0.0
C1488 C 0.24757 0.76152 0.33095 0.0
C1489 C 0.2496 0.77462 0.34603 0.0
C1490 C 0.24458 0.82659 0.35914 0.0
C1491 C 0.25322 0.8437 0.40969 0.0
C1492 C 0.25433 0.83228 0.39184 0.0
C1493 C 0.25253 0.79476 0.34273 0.0
C1494 C 0.25425 0.80847 0.35905 0.0
H1495 H 0.24699 0.83601 0.45686 0.0
H1496 H 0.24597 0.8184 0.4269 0.0
H1497 H 0.2366 0.85202 0.37538 0.0
H1498 H 0.25209 0.79397 0.29443 0.0
H1499 H 0.25578 0.81693 0.32095 0.0
C1500 C 0.43815 0.02192 0.70697 0.0
C1501 C 0.42439 0.00678 0.70875 0.0
C1502 C 0.44922 0.0236 0.69036 0.0
C1503 C 0.46821 0.99587 0.65015 0.0
H1504 H 0.4604 0.0424 0.61973 0.0
C1505 C 0.48063 0.99591 0.56942 0.0
C1506 C 0.48443 0.01366 0.56012 0.0
C1507 C 0.47775 0.99562 0.58906 0.0
C1508 C 0.46328 0.02948 0.62812 0.0
H1509 H 0.41192 0.98114 0.69498 0.0
H1510 H 0.4316 0.98374 0.66642 0.0
H1511 H 0.44767 0.04117 0.65187 0.0
H1512 H 0.4892 0.04484 0.56384 0.0
H1513 H 0.48539 0.04431 0.59825 0.0
H1514 H 0.48385 0.98406 0.62662 0.0
C1515 C 0.43367 0.99443 0.67767 0.0
C1516 C 0.45587 0.0288 0.64657 0.0
C1517 C 0.42232 0.99306 0.69396 0.0
C1518 C 0.48635 0.03096 0.5708 0.0
C1519 C 0.4839 0.03064 0.59049 0.0
C1520 C 0.47599 0.99667 0.63185 0.0
C1521 C 0.44707 0.0098 0.67561 0.0
C1522 C 0.45779 0.01178 0.65753 0.0
C1523 C 0.47887 0.01309 0.59985 0.0
C1524 C 0.47312 0.01325 0.62032 0.0
H1525 H 0.43999 0.03269 0.71818 0.0
H1526 H 0.45944 0.03563 0.68901 0.0
H1527 H 0.46996 0.98261 0.65842 0.0
H1528 H 0.47857 0.98249 0.56136 0.0
H1529 H 0.47357 0.98185 0.59554 0.0
C1530 C 0.26208 0.12889 0.92236 0.0
C1531 C 0.25963 0.13953 0.93933 0.0
C1532 C 0.26482 0.13857 0.90515 0.0
C1533 C 0.27678 0.1868 0.88329 0.0
H1534 H 0.24601 0.16625 0.84175 0.0
C1535 C 0.25199 0.23221 0.81901 0.0
C1536 C 0.24783 0.22247 0.80194 0.0
C1537 C 0.25944 0.22189 0.83445 0.0
C1538 C 0.25512 0.17198 0.85297 0.0
H1539 H 0.25877 0.16884 0.95144 0.0
H1540 H 0.2632 0.18579 0.92124 0.0
H1541 H 0.24671 0.14881 0.87159 0.0
H1542 H 0.2487 0.19465 0.7872 0.0
H1543 H 0.2626 0.17664 0.8138 0.0
H1544 H 0.28468 0.21038 0.86464 0.0
C1545 C 0.26324 0.16989 0.92136 0.0
C1546 C 0.25545 0.16198 0.8702 0.0
C1547 C 0.26057 0.16016 0.93867 0.0
C1548 C 0.25248 0.20258 0.80002 0.0
C1549 C 0.26004 0.19223 0.81541 0.0
C1550 C 0.27648 0.19685 0.86596 0.0
C1551 C 0.26509 0.15919 0.90434 0.0
C1552 C 0.26604 0.16937 0.88568 0.0
C1553 C 0.2626 0.20153 0.83312 0.0
C1554 C 0.2654 0.18971 0.85066 0.0
H1555 H 0.26169 0.11298 0.92228 0.0
H1556 H 0.26656 0.12985 0.89239 0.0
H1557 H 0.2853 0.19276 0.89485 0.0
H1558 H 0.24802 0.24747 0.82091 0.0
H1559 H 0.26106 0.22954 0.84784 0.0
C1560 C 0.12149 0.99148 0.3273 0.0
C1561 C 0.1117 0.00081 0.31244 0.0
C1562 C 0.11257 0.98877 0.3449 0.0
C1563 C 0.06471 0.99287 0.36994 0.0
H1564 H 0.09748 0.99818 0.41419 0.0
C1565 C 0.05791 0.02369 0.45015 0.0
C1566 C 0.03924 0.0172 0.45466 0.0
C1567 C 0.06766 0.01602 0.43453 0.0
C1568 C 0.08805 0.99671 0.40202 0.0
H1569 H 0.08486 0.01457 0.3043 0.0
H1570 H 0.06964 0.01096 0.33525 0.0
H1571 H 0.11197 0.99729 0.38299 0.0
H1572 H 0.01618 0.9973 0.44686 0.0
H1573 H 0.03354 0.98295 0.41987 0.0
H1574 H 0.0407 0.99404 0.38898 0.0
C1575 C 0.08394 0.00497 0.33324 0.0
C1576 C 0.09642 0.9959 0.38399 0.0
C1577 C 0.09272 0.00725 0.31548 0.0
C1578 C 0.03085 0.00201 0.44399 0.0
C1579 C 0.04066 0.99417 0.42829 0.0
C1580 C 0.05631 0.99409 0.38797 0.0
C1581 C 0.09377 0.99578 0.34829 0.0
C1582 C 0.08487 0.99447 0.36761 0.0
C1583 C 0.05891 0.00166 0.42291 0.0
C1584 C 0.06785 0.99661 0.40423 0.0
H1585 H 0.13604 0.98607 0.32527 0.0
H1586 H 0.12051 0.98117 0.35584 0.0
H1587 H 0.05529 0.99119 0.35779 0.0
H1588 H 0.06449 0.0357 0.45801 0.0
H1589 H 0.08147 0.02249 0.43082 0.0
C1590 C 0.24016 0.82352 0.55122 0.0
C1591 C 0.2495 0.84192 0.55159 0.0
C1592 C 0.2388 0.81219 0.5677 0.0
C1593 C 0.26167 0.80589 0.61462 0.0
H1594 H 0.21309 0.78141 0.62883 0.0
C1595 C 0.22217 0.7832 0.68717 0.0
C1596 C 0.2373 0.77389 0.69683 0.0
C1597 C 0.22341 0.78662 0.66773 0.0
C1598 C 0.22679 0.78804 0.62498 0.0
H1599 H 0.26442 0.86299 0.56957 0.0
H1600 H 0.26186 0.84337 0.59826 0.0
H1601 H 0.21586 0.79814 0.59835 0.0
H1602 H 0.26507 0.75972 0.69348 0.0
H1603 H 0.26728 0.76579 0.65932 0.0
H1604 H 0.27236 0.79663 0.64156 0.0
C1605 C 0.25587 0.83754 0.58521 0.0
C1606 C 0.22841 0.79752 0.60748 0.0
C1607 C 0.25716 0.84888 0.56879 0.0
C1608 C 0.25319 0.76694 0.68641 0.0
C1609 C 0.25451 0.77053 0.6669 0.0
C1610 C 0.26007 0.79638 0.63207 0.0
C1611 C 0.24685 0.81899 0.58482 0.0
C1612 C 0.24571 0.80702 0.60236 0.0
C1613 C 0.23986 0.78091 0.65747 0.0
C1614 C 0.24246 0.78781 0.63767 0.0
H1615 H 0.23417 0.81773 0.53815 0.0
H1616 H 0.23181 0.79793 0.56694 0.0
H1617 H 0.2753 0.81278 0.61091 0.0
H1618 H 0.20967 0.7886 0.69478 0.0
H1619 H 0.21195 0.79479 0.66098 0.0
C1620 C 0.40733 0.01067 0.81853 0.0
C1621 C 0.38805 0.00591 0.81411 0.0
C1622 C 0.41349 0.0114 0.83742 0.0
C1623 C 0.40205 0.99017 0.88374 0.0
H1624 H 0.43905 0.0286 0.90233 0.0
C1625 C 0.45249 0.01046 0.95359 0.0
C1626 C 0.4618 0.99233 0.95564 0.0
C1627 C 0.43892 0.01316 0.93916 0.0
C1628 C 0.42845 0.01793 0.89751 0.0
H1629 H 0.35997 -0.00101 0.82631 0.0
H1630 H 0.3708 0.00022 0.8591 0.0
H1631 H 0.4249 0.0326 0.87091 0.0
H1632 H 0.46346 0.96251 0.94511 0.0
H1633 H 0.43958 0.96705 0.9201 0.0
H1634 H 0.40608 0.97517 0.91012 0.0
C1635 C 0.38115 0.00321 0.84793 0.0
C1636 C 0.42054 0.02011 0.87941 0.0
C1637 C 0.37495 0.00262 0.82909 0.0
C1638 C 0.45624 0.97653 0.94399 0.0
C1639 C 0.44257 0.97917 0.92967 0.0
C1640 C 0.41009 0.9879 0.90179 0.0
C1641 C 0.40055 0.00728 0.8523 0.0
C1642 C 0.40753 0.00607 0.87219 0.0
C1643 C 0.43444 0.99776 0.92654 0.0
C1644 C 0.42365 0.00157 0.90873 0.0
H1645 H 0.41781 0.0133 0.8074 0.0
H1646 H 0.42858 0.01443 0.84033 0.0
H1647 H 0.39215 0.97902 0.87853 0.0
H1648 H 0.45701 0.02305 0.96192 0.0
H1649 H 0.43279 0.02761 0.93717 0.0
C1650 C 0.26783 0.17273 0.05088 0.0
C1651 C 0.26245 0.15286 0.04928 0.0
C1652 C 0.26918 0.18177 0.06871 0.0
C1653 C 0.25199 0.17628 0.11842 0.0
H1654 H 0.28954 0.21754 0.1282 0.0
C1655 C 0.2571 0.21645 0.19115 0.0
C1656 C 0.25781 0.23706 0.18999 0.0
C1657 C 0.2597 0.20484 0.17486 0.0
C1658 C 0.27893 0.20607 0.12568 0.0
H1659 H 0.25487 0.12675 0.06522 0.0
H1660 H 0.25765 0.14233 0.09626 0.0
H1661 H 0.29039 0.19977 0.09813 0.0
H1662 H 0.26257 0.26156 0.17089 0.0
H1663 H 0.26723 0.24144 0.14274 0.0
H1664 H 0.24051 0.18271 0.14598 0.0
C1665 C 0.26041 0.15111 0.08376 0.0
C1666 C 0.27936 0.19592 0.10839 0.0
C1667 C 0.25895 0.14212 0.06593 0.0
C1668 C 0.26184 0.24574 0.17233 0.0
C1669 C 0.26466 0.23418 0.15617 0.0
C1670 C 0.25165 0.18636 0.13576 0.0
C1671 C 0.2653 0.17114 0.08542 0.0
C1672 C 0.2657 0.18108 0.10437 0.0
C1673 C 0.26335 0.21361 0.15714 0.0
C1674 C 0.26492 0.2016 0.13949 0.0
H1675 H 0.27054 0.18146 0.03833 0.0
H1676 H 0.27272 0.19727 0.06933 0.0
H1677 H 0.24105 0.16517 0.1158 0.0
H1678 H 0.25398 0.2093 0.2045 0.0
H1679 H 0.25874 0.18902 0.17611 0.0
C1680 C 0.19629 0.09592 0.00741 0.0
C1681 C 0.20144 0.1113 0.99521 0.0
C1682 C 0.17738 0.08859 0.00759 0.0
C1683 C 0.13364 0.08299 0.01152 0.0
H1684 H 0.11197 0.06791 0.96285 0.0
C1685 C 0.05772 0.04691 0.00276 0.0
C1686 C 0.05906 0.0281 0.99461 0.0
C1687 C 0.07349 0.05991 0.00204 0.0
C1688 C 0.11777 0.07226 0.97651 0.0
H1689 H 0.19087 0.1321 0.97463 0.0
H1690 H 0.15774 0.11886 0.97443 0.0
H1691 H 0.14263 0.08598 0.96408 0.0
H1692 H 0.07744 0.00849 0.97853 0.0
H1693 H 0.10465 0.03148 0.97662 0.0
H1694 H 0.1087 0.06924 0.02393 0.0
C1695 C 0.16836 0.11235 0.98374 0.0
C1696 C 0.13529 0.08258 0.97722 0.0
C1697 C 0.18723 0.11991 0.98383 0.0
C1698 C 0.07604 0.0229 0.98493 0.0
C1699 C 0.09156 0.03605 0.98379 0.0
C1700 C 0.11589 0.07308 0.01079 0.0
C1701 C 0.16329 0.09651 0.99553 0.0
C1702 C 0.14366 0.08761 0.99475 0.0
C1703 C 0.09061 0.05448 0.9927 0.0
C1704 C 0.10801 0.06724 0.99329 0.0
H1705 H 0.20695 0.08943 0.01668 0.0
H1706 H 0.17394 0.07631 0.01675 0.0
H1707 H 0.13968 0.08682 0.02522 0.0
H1708 H 0.04487 0.05119 0.01047 0.0
H1709 H 0.07245 0.07406 0.00903 0.0
C1710 C 0.69738 0.4032 0.0022 0.0
C1711 C 0.71432 0.41459 0.00085 0.0
C1712 C 0.6793 0.41222 0.00299 0.0
C1713 C 0.65467 0.45613 0.01799 0.0
H1714 H 0.61493 0.44116 0.98184 0.0
C1715 C 0.57253 0.46727 0.02805 0.0
C1716 C 0.56228 0.47533 0.01278 0.0
C1717 C 0.59211 0.4629 0.02623 0.0
C1718 C 0.62597 0.4456 0.99189 0.0
H1719 H 0.72564 0.44436 -0.00028 0.0
H1720 H 0.694 0.46009 0.00176 0.0
H1721 H 0.64715 0.42658 0.97952 0.0
H1722 H 0.56451 0.4856 0.98379 0.0
H1723 H 0.59882 0.4773 0.98042 0.0
H1724 H 0.63321 0.47451 0.03086 0.0
C1725 C 0.69478 0.4442 0.0019 0.0
C1726 C 0.64428 0.43717 0.99066 0.0
C1727 C 0.71283 0.43519 0.00068 0.0
C1728 C 0.57212 0.47952 0.99582 0.0
C1729 C 0.59166 0.4747 0.99385 0.0
C1730 C 0.63621 0.46426 0.01947 0.0
C1731 C 0.67787 0.43278 0.00287 0.0
C1732 C 0.65873 0.44227 0.00377 0.0
C1733 C 0.60171 0.4661 0.00898 0.0
C1734 C 0.6217 0.45898 0.00648 0.0
H1735 H 0.69806 0.38731 0.00227 0.0
H1736 H 0.66643 0.40314 0.00386 0.0
H1737 H 0.66559 0.46023 0.02828 0.0
H1738 H 0.56527 0.46393 0.04129 0.0
H1739 H 0.59954 0.45616 0.03805 0.0
C1740 C 0.86036 0.43524 0.24268 0.0
C1741 C 0.87368 0.44355 0.25533 0.0
C1742 C 0.85644 0.41512 0.24318 0.0
C1743 C 0.85313 0.37104 0.24303 0.0
H1744 H 0.84682 0.35075 0.29397 0.0
C1745 C 0.80903 0.30098 0.25552 0.0
C1746 C 0.79434 0.30407 0.26891 0.0
C1747 C 0.82496 0.31372 0.25474 0.0
C1748 C 0.84866 0.3561 0.27963 0.0
H1749 H 0.89513 0.43748 0.27676 0.0
H1750 H 0.88836 0.40216 0.27776 0.0
H1751 H 0.86291 0.38215 0.28926 0.0
H1752 H 0.78545 0.32173 0.29295 0.0
H1753 H 0.81292 0.34394 0.29158 0.0
H1754 H 0.83752 0.3457 0.23356 0.0
C1755 C 0.88038 0.41118 0.26791 0.0
C1756 C 0.85806 0.37407 0.27688 0.0
C1757 C 0.88427 0.43134 0.26737 0.0
C1758 C 0.79657 0.31906 0.28244 0.0
C1759 C 0.81244 0.3317 0.28173 0.0
C1760 C 0.84362 0.35313 0.24579 0.0
C1761 C 0.86603 0.4029 0.25616 0.0
C1762 C 0.85967 0.38216 0.25862 0.0
C1763 C 0.82643 0.3297 0.2674 0.0
C1764 C 0.84055 0.34587 0.2642 0.0
H1765 H 0.85263 0.44439 0.23272 0.0
H1766 H 0.8452 0.40939 0.234 0.0
H1767 H 0.85456 0.37659 0.22872 0.0
H1768 H 0.80749 0.28973 0.24477 0.0
H1769 H 0.8356 0.31168 0.24364 0.0
C1770 C 0.81903 0.60408 0.49875 0.0
C1771 C 0.80408 0.59267 0.49077 0.0
C1772 C 0.83815 0.5974 0.49845 0.0
C1773 C 0.86676 0.5519 0.4938 0.0
H1774 H 0.90941 0.58785 0.48474 0.0
C1775 C 0.94435 0.52388 0.49723 0.0
C1776 C 0.95612 0.5351 0.50932 0.0
C1777 C 0.9272 0.53178 0.49008 0.0
C1778 C 0.89765 0.57761 0.48727 0.0
H1779 H 0.79769 0.56518 0.47625 0.0
H1780 H 0.8308 0.55376 0.47564 0.0
H1781 H 0.87623 0.59984 0.48331 0.0
H1782 H 0.96001 0.56349 0.52264 0.0
H1783 H 0.93031 0.57735 0.51018 0.0
H1784 H 0.88805 0.5298 0.49825 0.0
C1785 C 0.82778 0.56776 0.48232 0.0
C1786 C 0.87865 0.58451 0.48656 0.0
C1787 C 0.80874 0.57439 0.48262 0.0
C1788 C 0.9513 0.55471 0.51302 0.0
C1789 C 0.93424 0.56263 0.50587 0.0
C1790 C 0.88572 0.54502 0.49451 0.0
C1791 C 0.84275 0.57916 0.49019 0.0
C1792 C 0.86297 0.57179 0.49009 0.0
C1793 C 0.92151 0.55095 0.49507 0.0
C1794 C 0.90144 0.55783 0.49153 0.0
H1795 H 0.81602 0.61823 0.50512 0.0
H1796 H 0.84929 0.60643 0.50489 0.0
H1797 H 0.85509 0.54172 0.49684 0.0
H1798 H 0.9475 0.50854 0.49466 0.0
H1799 H 0.91784 0.52247 0.48158 0.0
C1800 C 0.1566 0.05692 0.23768 0.0
C1801 C 0.14154 0.05495 0.25087 0.0
C1802 C 0.1653 0.07522 0.2345 0.0
C1803 C 0.15878 0.12915 0.24213 0.0
H1804 H 0.21455 0.13015 0.2377 0.0
C1805 C 0.22983 0.18518 0.23654 0.0
C1806 C 0.22453 0.19851 0.25077 0.0
C1807 C 0.21737 0.16977 0.23142 0.0
C1808 C 0.19893 0.13026 0.23844 0.0
H1809 H 0.12281 0.07061 0.27015 0.0
H1810 H 0.13838 0.10259 0.26518 0.0
H1811 H 0.19776 0.09896 0.23924 0.0
H1812 H 0.20173 0.20714 0.26994 0.0
H1813 H 0.18 0.18035 0.26124 0.0
H1814 H 0.16008 0.16061 0.24145 0.0
C1815 C 0.1435 0.09007 0.25717 0.0
C1816 C 0.18925 0.11223 0.2395 0.0
C1817 C 0.13469 0.07175 0.2602 0.0
C1818 C 0.20592 0.1973 0.25857 0.0
C1819 C 0.19351 0.18179 0.25363 0.0
C1820 C 0.16848 0.14725 0.24093 0.0
C1821 C 0.15904 0.09204 0.24437 0.0
C1822 C 0.16908 0.11137 0.24177 0.0
C1823 C 0.19954 0.16716 0.24079 0.0
C1824 C 0.18875 0.14808 0.23941 0.0
H1825 H 0.16162 0.04427 0.22977 0.0
H1826 H 0.17691 0.07615 0.22424 0.0
H1827 H 0.14319 0.1291 0.24342 0.0
H1828 H 0.24429 0.18555 0.23066 0.0
H1829 H 0.22232 0.15912 0.2211 0.0
C1830 C 0.32011 0.89592 0.51244 0.0
C1831 C 0.31251 0.88197 0.49983 0.0
C1832 C 0.33971 0.90075 0.51187 0.0
C1833 C 0.38328 0.90396 0.51244 0.0
H1834 H 0.40142 0.91756 0.46209 0.0
C1835 C 0.45314 0.94877 0.50051 0.0
C1836 C 0.44836 0.96674 0.49203 0.0
C1837 C 0.4401 0.93299 0.49989 0.0
C1838 C 0.3967 0.91348 0.4762 0.0
H1839 H 0.31931 0.8607 0.47802 0.0
H1840 H 0.35374 0.86944 0.47663 0.0
H1841 H 0.37144 0.89889 0.46573 0.0
H1842 H 0.42709 0.98203 0.4752 0.0
H1843 H 0.40462 0.95434 0.47359 0.0
H1844 H 0.4083 0.91915 0.52289 0.0
C1845 C 0.34453 0.87689 0.48674 0.0
C1846 C 0.37954 0.90282 0.47831 0.0
C1847 C 0.32491 0.87192 0.48749 0.0
C1848 C 0.43105 0.9683 0.48185 0.0
C1849 C 0.41828 0.95244 0.48084 0.0
C1850 C 0.40063 0.9143 0.51032 0.0
C1851 C 0.35206 0.8916 0.49873 0.0
C1852 C 0.37218 0.89881 0.49648 0.0
C1853 C 0.4224 0.93487 0.49034 0.0
C1854 C 0.40703 0.91987 0.49221 0.0
H1855 H 0.31081 0.90336 0.5225 0.0
H1856 H 0.34499 0.91229 0.52115 0.0
H1857 H 0.37812 0.90076 0.52661 0.0
H1858 H 0.46635 0.94733 0.5086 0.0
H1859 H 0.44352 0.91959 0.50738 0.0
C1860 C 0.82123 0.54724 0.25751 0.0
C1861 C 0.84022 0.54376 0.25124 0.0
C1862 C 0.81269 0.56562 0.25501 0.0
C1863 C 0.8166 0.61139 0.22709 0.0
H1864 H 0.78908 0.63477 0.26936 0.0
C1865 C 0.80068 0.69403 0.2312 0.0
C1866 C 0.78319 0.7004 0.23926 0.0
C1867 C 0.80567 0.67421 0.23135 0.0
C1868 C 0.79642 0.62833 0.25729 0.0
H1869 H 0.86498 0.55695 0.23716 0.0
H1870 H 0.85012 0.58895 0.23291 0.0
H1871 H 0.80164 0.6015 0.27216 0.0
H1872 H 0.75691 0.6906 0.25321 0.0
H1873 H 0.76567 0.65588 0.25345 0.0
H1874 H 0.8116 0.63827 0.2123 0.0
C1875 C 0.84177 0.5774 0.23962 0.0
C1876 C 0.80365 0.60927 0.25891 0.0
C1877 C 0.85035 0.55905 0.24218 0.0
C1878 C 0.77057 0.68628 0.24704 0.0
C1879 C 0.77562 0.66638 0.24723 0.0
C1880 C 0.80933 0.63041 0.22545 0.0
C1881 C 0.82289 0.58094 0.2461 0.0
C1882 C 0.81409 0.60069 0.24393 0.0
C1883 C 0.79333 0.66015 0.23953 0.0
C1884 C 0.79943 0.63925 0.24065 0.0
H1885 H 0.81293 0.53582 0.26449 0.0
H1886 H 0.79805 0.56781 0.25997 0.0
H1887 H 0.82425 0.60506 0.21516 0.0
H1888 H 0.81081 0.70441 0.22507 0.0
H1889 H 0.81954 0.67001 0.22553 0.0
C1890 C 0.65017 0.43732 0.74421 0.0
C1891 C 0.64843 0.44896 0.76054 0.0
C1892 C 0.65628 0.41776 0.74561 0.0
C1893 C 0.66498 0.37448 0.75148 0.0
H1894 H 0.70254 0.36468 0.791 0.0
C1895 C 0.70925 0.30302 0.75104 0.0
C1896 C 0.72909 0.30632 0.75359 0.0
C1897 C 0.69589 0.31756 0.75621 0.0
C1898 C 0.6921 0.3671 0.77984 0.0
H1899 H 0.65036 0.4492 0.79115 0.0
H1900 H 0.6597 0.41494 0.79382 0.0
H1901 H 0.68625 0.39593 0.78999 0.0
H1902 H 0.75059 0.32662 0.7643 0.0
H1903 H 0.72773 0.35177 0.77327 0.0
H1904 H 0.67222 0.34614 0.74043 0.0
C1905 C 0.65739 0.42088 0.7798 0.0
C1906 C 0.68243 0.38505 0.7794 0.0
C1907 C 0.65182 0.44051 0.77833 0.0
C1908 C 0.7353 0.3236 0.76259 0.0
C1909 C 0.72209 0.33806 0.76771 0.0
C1910 C 0.67494 0.35661 0.75173 0.0
C1911 C 0.66036 0.40933 0.76345 0.0
C1912 C 0.66903 0.38925 0.76496 0.0
C1913 C 0.70226 0.33566 0.76384 0.0
C1914 C 0.68906 0.35289 0.76561 0.0
H1915 H 0.64774 0.44362 0.73033 0.0
H1916 H 0.65859 0.40959 0.73263 0.0
H1917 H 0.65446 0.37685 0.74039 0.0
H1918 H 0.7042 0.29002 0.74363 0.0
H1919 H 0.68073 0.31502 0.75328 0.0
C1920 C 0.01093 0.81491 0.90758 0.0
C1921 C 0.00038 0.80984 0.89131 0.0
C1922 C 0.01 0.83393 0.91501 0.0
C1923 C 0.97947 0.87675 0.9192 0.0
H1924 H 0.02715 0.90401 0.93166 0.0
C1925 C 0.01225 0.95335 0.95417 0.0
C1926 C 0.0041 0.95233 0.97235 0.0
C1927 C 0.00806 0.93891 0.94064 0.0
C1928 C 0.01368 0.89675 0.92804 0.0
H1929 H 0.98144 0.82066 0.86937 0.0
H1930 H 0.97922 0.85401 0.88281 0.0
H1931 H 0.02835 0.87233 0.91549 0.0
H1932 H 0.98414 0.93646 0.99033 0.0
H1933 H 0.97644 0.9113 0.96654 0.0
H1934 H 0.96484 0.90085 0.93268 0.0
C1935 C 0.9881 0.84321 0.88984 0.0
C1936 C 0.0144 0.87853 0.91893 0.0
C1937 C 0.98938 0.82423 0.88216 0.0
C1938 C 0.99022 0.93779 0.97622 0.0
C1939 C 0.98593 0.92333 0.96264 0.0
C1940 C 0.97874 0.89487 0.92871 0.0
C1941 C -0.00159 0.84821 0.90634 0.0
C1942 C 0.99734 0.86823 0.91462 0.0
C1943 C 0.99572 0.92311 0.94514 0.0
C1944 C 0.99588 0.905 0.93332 0.0
H1945 H 0.01986 0.80412 0.91459 0.0
H1946 H 0.01807 0.83739 0.92776 0.0
H1947 H 0.96611 0.86908 0.91605 0.0
H1948 H 0.02328 0.96423 0.95103 0.0
H1949 H 0.01565 0.93922 0.9272 0.0
C1950 C 0.92924 0.23402 0.65334 0.0
C1951 C 0.94681 0.24399 0.6565 0.0
C1952 C 0.91475 0.23399 0.66715 0.0
C1953 C 0.89431 0.26273 0.70483 0.0
H1954 H 0.87082 0.21392 0.72161 0.0
C1955 C 0.82634 0.26577 0.7503 0.0
C1956 C 0.81165 0.25267 0.74486 0.0
C1957 C 0.84542 0.26254 0.74461 0.0
C1958 C 0.87708 0.22771 0.71702 0.0
H1959 H 0.96266 0.26222 0.67653 0.0
H1960 H 0.93691 0.26278 0.70035 0.0
H1961 H 0.89867 0.21313 0.70034 0.0
H1962 H 0.80527 0.22561 0.72996 0.0
H1963 H 0.83821 0.22014 0.71956 0.0
H1964 H 0.87217 0.27748 0.72015 0.0
C1965 C 0.93465 0.25465 0.68729 0.0
C1966 C 0.89309 0.22722 0.7049 0.0
C1967 C 0.94934 0.25433 0.67365 0.0
C1968 C 0.81648 0.23559 0.73483 0.0
C1969 C 0.83545 0.23256 0.72876 0.0
C1970 C 0.87808 0.26326 0.71661 0.0
C1971 C 0.91733 0.24429 0.68423 0.0
C1972 C 0.90162 0.24473 0.69847 0.0
C1973 C 0.85003 0.24651 0.73279 0.0
C1974 C 0.86897 0.24576 0.72261 0.0
H1975 H 0.92672 0.22595 0.64031 0.0
H1976 H 0.90139 0.22613 0.66436 0.0
H1977 H 0.90057 0.27643 0.69994 0.0
H1978 H 0.82287 0.27915 0.7579 0.0
H1979 H 0.8563 0.27329 0.74855 0.0
C1980 C 0.51103 0.19171 0.41272 0.0
C1981 C 0.50976 0.1945 0.39302 0.0
C1982 C 0.51271 0.17279 0.42028 0.0
C1983 C 0.52242 0.1314 0.43343 0.0
H1984 H 0.4889 0.09249 0.41007 0.0
C1985 C 0.50557 0.05554 0.46838 0.0
C1986 C 0.48555 0.05344 0.47095 0.0
C1987 C 0.5129 0.07002 0.45603 0.0
C1988 C 0.49855 0.10308 0.41663 0.0
H1989 H 0.51029 0.17967 0.36578 0.0
H1990 H 0.5136 0.1468 0.37887 0.0
H1991 H 0.49355 0.1241 0.39483 0.0
H1992 H 0.45753 0.06337 0.46128 0.0
H1993 H 0.47006 0.08781 0.4397 0.0
H1994 H 0.52628 0.11058 0.45591 0.0
C1995 C 0.51282 0.15914 0.38856 0.0
C1996 C 0.50134 0.12123 0.40783 0.0
C1997 C 0.51098 0.17802 0.38103 0.0
C1998 C 0.47306 0.06479 0.45984 0.0
C1999 C 0.48026 0.07877 0.44732 0.0
C2000 C 0.5196 0.11317 0.44227 0.0
C2001 C 0.51331 0.15619 0.40831 0.0
C2002 C 0.5128 0.13591 0.4164 0.0
C2003 C 0.50021 0.08202 0.44564 0.0
C2004 C 0.50705 0.0991 0.43429 0.0
H2005 H 0.51014 0.2041 0.42235 0.0
H2006 H 0.51277 0.17115 0.43554 0.0
H2007 H 0.53165 0.14218 0.44026 0.0
H2008 H 0.51546 0.04666 0.47646 0.0
H2009 H 0.52838 0.07209 0.45488 0.0
C2010 C 0.56977 0.75427 0.13493 0.0
C2011 C 0.55485 0.75974 0.1474 0.0
C2012 C 0.58888 0.75338 0.14127 0.0
C2013 C 0.61474 0.74404 0.18523 0.0
H2014 H 0.66078 0.75933 0.15742 0.0
C2015 C 0.69813 0.75604 0.20531 0.0
C2016 C 0.70026 0.73949 0.21693 0.0
C2017 C 0.68255 0.75725 0.19275 0.0
C2018 C 0.64803 0.75493 0.16528 0.0
H2019 H 0.54843 0.76994 0.17586 0.0
H2020 H 0.58178 0.7685 0.18688 0.0
H2021 H 0.62876 0.76662 0.14435 0.0
H2022 H 0.68905 0.71055 0.22342 0.0
H2023 H 0.66217 0.71237 0.20113 0.0
H2024 H 0.63368 0.73268 0.20628 0.0
C2025 C 0.57865 0.76459 0.17229 0.0
C2026 C 0.62974 0.75907 0.15781 0.0
C2027 C 0.55957 0.76553 0.16595 0.0
C2028 C 0.68773 0.72342 0.21452 0.0
C2029 C 0.67226 0.72457 0.20192 0.0
C2030 C 0.63289 0.73981 0.19259 0.0
C2031 C 0.59339 0.75787 0.1602 0.0
C2032 C 0.61292 0.75383 0.16785 0.0
C2033 C 0.66886 0.74194 0.19175 0.0
C2034 C 0.64977 0.74523 0.18276 0.0
H2035 H 0.5666 0.74978 0.12051 0.0
H2036 H 0.59991 0.74811 0.13164 0.0
H2037 H 0.60207 0.73951 0.19316 0.0
H2038 H 0.70724 0.76885 0.20737 0.0
H2039 H 0.68029 0.77087 0.1852 0.0
C2040 C 0.0159 0.18813 0.60637 0.0
C2041 C 0.00499 0.19245 0.62258 0.0
C2042 C 0.01943 0.16869 0.60131 0.0
C2043 C -0.00063 0.1205 0.60225 0.0
H2044 H 0.05128 0.10409 0.58918 0.0
C2045 C 0.01086 0.0513 0.5575 0.0
C2046 C 0.02252 0.05511 0.54162 0.0
C2047 C 0.0112 0.06405 0.57312 0.0
C2048 C 0.03669 0.10838 0.59282 0.0
H2049 H 0.99005 0.18025 0.64684 0.0
H2050 H 0.99551 0.14583 0.63744 0.0
H2051 H 0.04633 0.1355 0.60519 0.0
H2052 H 0.04484 0.07412 0.53019 0.0
H2053 H 0.04534 0.09636 0.55703 0.0
H2054 H 0.98948 0.09431 0.58849 0.0
C2055 C 0.00129 0.15755 0.62873 0.0
C2056 C 0.03391 0.1263 0.60203 0.0
C2057 C -0.00187 0.1771 0.63403 0.0
C2058 C 0.03564 0.07088 0.54224 0.0
C2059 C 0.03601 0.08356 0.55776 0.0
C2060 C 0.00211 0.1027 0.59272 0.0
C2061 C 0.01206 0.15325 0.61237 0.0
C2062 C 0.01518 0.1328 0.60619 0.0
C2063 C 0.02325 0.08079 0.57306 0.0
C2064 C 0.02077 0.09683 0.58719 0.0
H2065 H 0.02177 0.19983 0.59768 0.0
H2066 H 0.02763 0.16569 0.58855 0.0
H2067 H 0.9848 0.12527 0.60532 0.0
H2068 H 0.00045 0.0394 0.55724 0.0
H2069 H 0.00134 0.06136 0.58477 0.0
C2070 C 0.56443 0.25063 0.32722 0.0
C2071 C 0.55778 0.25091 0.34607 0.0
C2072 C 0.5838 0.24695 0.32314 0.0
C2073 C 0.6314 0.25468 0.34148 0.0
H2074 H 0.6473 0.2192 0.30133 0.0
C2075 C 0.70687 0.26306 0.3109 0.0
C2076 C 0.70748 0.26306 0.29106 0.0
C2077 C 0.69117 0.25466 0.32043 0.0
C2078 C 0.64316 0.22924 0.31253 0.0
H2079 H 0.56631 0.24741 0.37544 0.0
H2080 H 0.60057 0.24175 0.36826 0.0
H2081 H 0.61392 0.21857 0.31259 0.0
H2082 H 0.69309 0.25334 0.26549 0.0
H2083 H 0.66536 0.23933 0.28183 0.0
H2084 H 0.65986 0.26663 0.34054 0.0
C2085 C 0.59055 0.24404 0.35669 0.0
C2086 C 0.62406 0.22876 0.31905 0.0
C2087 C 0.57099 0.24731 0.36078 0.0
C2088 C 0.69302 0.25319 0.28086 0.0
C2089 C 0.67708 0.24516 0.29033 0.0
C2090 C 0.65037 0.25545 0.33474 0.0
C2091 C 0.59709 0.24381 0.33782 0.0
C2092 C 0.61789 0.24185 0.33322 0.0
C2093 C 0.67542 0.24675 0.31022 0.0
C2094 C 0.65642 0.24315 0.31975 0.0
H2095 H 0.55466 0.25324 0.31552 0.0
H2096 H 0.58852 0.24713 0.30848 0.0
H2097 H 0.62696 0.26505 0.35231 0.0
H2098 H 0.7179 0.27071 0.319 0.0
H2099 H 0.69081 0.25556 0.33576 0.0
C2100 C 0.48207 0.8008 0.08002 0.0
C2101 C 0.48721 0.79788 0.09909 0.0
C2102 C 0.48255 0.81958 0.0721 0.0
C2103 C 0.50216 0.86998 0.0805 0.0
H2104 H 0.46399 0.88445 0.04286 0.0
C2105 C 0.48769 0.94985 0.0591 0.0
C2106 C 0.48851 0.9541 0.03959 0.0
C2107 C 0.48756 0.93048 0.06543 0.0
C2108 C 0.47482 0.88051 0.05323 0.0
H2109 H 0.49656 0.81247 0.12489 0.0
H2110 H 0.49664 0.84533 0.11135 0.0
H2111 H 0.46347 0.85142 0.05624 0.0
H2112 H 0.48934 0.94119 0.01143 0.0
H2113 H 0.48854 0.9071 0.02264 0.0
H2114 H 0.51293 0.89942 0.07796 0.0
C2115 C 0.49284 0.83305 0.10227 0.0
C2116 C 0.47461 0.86157 0.06088 0.0
C2117 C 0.49267 0.8142 0.11011 0.0
C2118 C 0.48868 0.93843 0.02654 0.0
C2119 C 0.4882 0.91895 0.03292 0.0
C2120 C 0.50214 0.88897 0.07309 0.0
C2121 C 0.48788 0.83599 0.08312 0.0
C2122 C 0.48824 0.85606 0.07469 0.0
C2123 C 0.48795 0.91487 0.05244 0.0
C2124 C 0.48843 0.89443 0.05947 0.0
H2125 H 0.47796 0.78852 0.07106 0.0
H2126 H 0.479 0.82112 0.05723 0.0
H2127 H 0.51318 0.86622 0.09072 0.0
H2128 H 0.48766 0.96151 0.06959 0.0
H2129 H 0.48718 0.92769 0.08055 0.0
C2130 C 0.95126 0.75077 0.83539 0.0
C2131 C 0.94837 0.75311 0.85504 0.0
C2132 C 0.93557 0.75028 0.82289 0.0
C2133 C 0.88436 0.7651 0.81915 0.0
H2134 H 0.88213 0.72688 0.77831 0.0
C2135 C 0.82212 0.72571 0.77258 0.0
C2136 C 0.81035 0.74187 0.76841 0.0
C2137 C 0.8409 0.72847 0.77931 0.0
C2138 C 0.88258 0.73772 0.78959 0.0
H2139 H 0.92647 0.75643 0.87686 0.0
H2140 H 0.89919 0.75538 0.85511 0.0
H2141 H 0.91054 0.72838 0.79879 0.0
H2142 H 0.80944 0.77361 0.76694 0.0
H2143 H 0.84246 0.77852 0.77856 0.0
H2144 H 0.85613 0.77395 0.81045 0.0
C2145 C 0.91365 0.75421 0.84935 0.0
C2146 C 0.89891 0.73865 0.80126 0.0
C2147 C 0.92932 0.75462 0.86186 0.0
C2148 C 0.81825 0.76088 0.76982 0.0
C2149 C 0.83706 0.76368 0.77673 0.0
C2150 C 0.86807 0.76421 0.80745 0.0
C2151 C 0.91658 0.7522 0.8297 0.0
C2152 C 0.89983 0.75209 0.81643 0.0
C2153 C 0.84835 0.7475 0.78219 0.0
C2154 C 0.86681 0.75026 0.79275 0.0
H2155 H 0.9657 0.7496 0.82958 0.0
H2156 H 0.93834 0.74882 0.80784 0.0
H2157 H 0.88473 0.77584 0.83051 0.0
H2158 H 0.81642 0.71088 0.77164 0.0
H2159 H 0.84909 0.71568 0.78347 0.0
C2160 C 0.92213 0.0064 0.79959 0.0
C2161 C 0.90201 0.00437 0.80193 0.0
C2162 C 0.93445 0.00681 0.81533 0.0
C2163 C 0.93666 0.99225 0.86577 0.0
H2164 H 0.97824 0.03052 0.86911 0.0
C2165 C 0.98114 0.03219 0.92837 0.0
C2166 C 0.98474 0.01612 0.94028 0.0
C2167 C 0.97537 0.02927 0.9096 0.0
C2168 C 0.96677 0.01966 0.86834 0.0
H2169 H 0.87915 0.00148 0.82287 0.0
H2170 H 0.90059 0.00234 0.8502 0.0
H2171 H 0.95841 0.02882 0.84049 0.0
H2172 H 0.98638 0.9844 0.94149 0.0
H2173 H 0.97645 0.97922 0.90853 0.0
H2174 H 0.94449 0.98357 0.89385 0.0
C2175 C 0.90686 0.00335 0.83616 0.0
C2176 C 0.95547 0.01861 0.8519 0.0
C2177 C 0.89453 0.00305 0.82045 0.0
C2178 C 0.98392 0.99707 0.9326 0.0
C2179 C 0.97796 0.99411 0.9138 0.0
C2180 C 0.948 0.99322 0.88215 0.0
C2181 C 0.92697 0.00508 0.83379 0.0
C2182 C 0.94 0.00518 0.85059 0.0
C2183 C 0.97291 0.01018 0.90232 0.0
C2184 C 0.96294 0.00722 0.88381 0.0
H2185 H 0.92844 0.00743 0.78557 0.0
H2186 H 0.94987 0.00807 0.81301 0.0
H2187 H 0.92506 0.98152 0.8651 0.0
H2188 H 0.98165 0.04705 0.93391 0.0
H2189 H 0.97151 0.04197 0.90125 0.0
C2190 C 0.75473 0.13468 0.57144 0.0
C2191 C 0.76032 0.14541 0.55531 0.0
C2192 C 0.75383 0.14385 0.58918 0.0
C2193 C 0.74362 0.19185 0.60835 0.0
H2194 H 0.76469 0.17331 0.65593 0.0
C2195 C 0.74935 0.24143 0.67345 0.0
C2196 C 0.74693 0.23343 0.69163 0.0
C2197 C 0.74929 0.22936 0.65749 0.0
C2198 C 0.75839 0.17846 0.64281 0.0
H2199 H 0.77072 0.17367 0.5453 0.0
H2200 H 0.76902 0.18964 0.57623 0.0
H2201 H 0.76977 0.15422 0.62686 0.0
H2202 H 0.74186 0.20644 0.70726 0.0
H2203 H 0.74141 0.18532 0.67918 0.0
H2204 H 0.73204 0.2159 0.62405 0.0
C2205 C 0.76517 0.17423 0.57509 0.0
C2206 C 0.76144 0.16762 0.62621 0.0
C2207 C 0.76625 0.16505 0.55743 0.0
C2208 C 0.74373 0.21309 0.69344 0.0
C2209 C 0.74365 0.20096 0.67739 0.0
C2210 C 0.74039 0.20253 0.6249 0.0
C2211 C 0.75835 0.16389 0.59095 0.0
C2212 C 0.75445 0.17451 0.6088 0.0
C2213 C 0.7467 0.20897 0.65927 0.0
C2214 C 0.74813 0.19624 0.64224 0.0
H2215 H 0.75014 0.11949 0.57022 0.0
H2216 H 0.74857 0.1356 0.60125 0.0
H2217 H 0.73768 0.19719 0.59513 0.0
H2218 H 0.75184 0.25702 0.6715 0.0
H2219 H 0.75198 0.23599 0.64379 0.0
C2220 C 0.57686 0.00364 0.29744 0.0
C2221 C 0.59547 0.01153 0.30041 0.0
C2222 C 0.56356 0.00249 0.31245 0.0
C2223 C 0.55331 0.02355 0.35991 0.0
H2224 H 0.52898 0.97347 0.37098 0.0
C2225 C 0.53129 0.97928 0.42986 0.0
C2226 C 0.52197 0.99385 0.44057 0.0
C2227 C 0.53438 0.98173 0.41047 0.0
C2228 C 0.5355 0.98763 0.36797 0.0
H2229 H 0.61451 0.02447 0.32162 0.0
H2230 H 0.59151 0.02249 0.34741 0.0
H2231 H 0.54639 0.97786 0.34109 0.0
H2232 H 0.50754 0.02197 0.43915 0.0
H2233 H 0.51319 0.02643 0.40506 0.0
H2234 H 0.54341 0.03301 0.38717 0.0
C2235 C 0.58708 0.01735 0.33351 0.0
C2236 C 0.54535 0.99018 0.3508 0.0
C2237 C 0.60037 0.01829 0.31868 0.0
C2238 C 0.51478 0.01049 0.43125 0.0
C2239 C 0.5181 0.01308 0.41178 0.0
C2240 C 0.5434 0.02104 0.37701 0.0
C2241 C 0.56853 0.00948 0.33061 0.0
C2242 C 0.555 0.00792 0.34693 0.0
C2243 C 0.52838 -0.00108 0.40129 0.0
C2244 C 0.53501 0.00281 0.38157 0.0
H2245 H 0.57259 -0.0017 0.28357 0.0
H2246 H 0.54936 0.9963 0.30983 0.0
H2247 H 0.56037 0.03751 0.35718 0.0
H2248 H 0.53687 0.96622 0.43662 0.0
H2249 H 0.54252 0.97063 0.40293 0.0
C2250 C 0.74353 0.8584 0.07586 0.0
C2251 C 0.73934 0.8476 0.05933 0.0
C2252 C 0.74071 0.85015 0.09377 0.0
C2253 C 0.73814 0.80232 0.1178 0.0
H2254 H 0.72367 0.83457 0.16092 0.0
C2255 C 0.74541 0.7726 0.19351 0.0
C2256 C 0.75656 0.78504 0.20507 0.0
C2257 C 0.73704 0.77976 0.17684 0.0
C2258 C 0.72763 0.82533 0.14902 0.0
H2259 H 0.72841 0.81978 0.04869 0.0
H2260 H 0.72338 0.80534 0.08007 0.0
H2261 H 0.72117 0.84783 0.1289 0.0
H2262 H 0.76711 0.81471 0.20894 0.0
H2263 H 0.75229 0.8274 0.18016 0.0
H2264 H 0.74521 0.78006 0.13794 0.0
C2265 C 0.72905 0.82016 0.07913 0.0
C2266 C 0.72629 0.83295 0.13066 0.0
C2267 C 0.73186 0.82846 0.06115 0.0
C2268 C 0.75817 0.80498 0.20044 0.0
C2269 C 0.74969 0.8122 0.18392 0.0
C2270 C 0.73942 0.79468 0.13615 0.0
C2271 C 0.73359 0.83087 0.09568 0.0
C2272 C 0.73213 0.82177 0.11486 0.0
C2273 C 0.73975 0.7995 0.17147 0.0
C2274 C 0.73476 0.8063 0.15203 0.0
H2275 H 0.74932 0.87319 0.075 0.0
H2276 H 0.74471 0.85874 0.10612 0.0
H2277 H 0.74292 0.79332 0.10602 0.0
H2278 H 0.7444 0.75704 0.19658 0.0
H2279 H 0.72931 0.76965 0.16765 0.0
C2280 C 0.89157 0.00926 0.67653 0.0
C2281 C 0.90387 0.01018 0.69235 0.0
C2282 C 0.89885 0.01222 0.65822 0.0
C2283 C 0.94258 0.02992 0.63169 0.0
H2284 H 0.92347 0.99456 0.59272 0.0
C2285 C 0.98682 0.00261 0.56802 0.0
C2286 C 0.9774 -0.00147 0.55086 0.0
C2287 C 0.97657 0.01021 0.58344 0.0
C2288 C 0.92871 0.00488 0.60328 0.0
H2289 H 0.93342 0.01522 0.70138 0.0
H2290 H 0.94623 0.01972 0.66955 0.0
H2291 H 0.90786 0.99514 0.62357 0.0
H2292 H 0.95018 -0.00032 0.53591 0.0
H2293 H 0.93204 0.0129 0.56299 0.0
H2294 H 0.96417 0.03875 0.61154 0.0
C2295 C 0.93086 0.01722 0.67119 0.0
C2296 C 0.91974 0.00521 0.62105 0.0
C2297 C 0.92354 0.01446 0.6895 0.0
C2298 C 0.9578 0.00317 0.54893 0.0
C2299 C 0.94743 0.01051 0.56446 0.0
C2300 C 0.95167 0.02943 0.61395 0.0
C2301 C 0.91866 0.01597 0.65526 0.0
C2302 C 0.92682 0.01739 0.63568 0.0
C2303 C 0.95657 0.01335 0.58211 0.0
C2304 C 0.94509 0.01658 0.59968 0.0
H2305 H 0.87631 0.00617 0.67827 0.0
H2306 H 0.88893 0.01146 0.64637 0.0
H2307 H 0.94818 0.03983 0.64242 0.0
H2308 H 0.00185 -0.0013 0.5699 0.0
H2309 H 0.98402 0.01204 0.59683 0.0
C2310 C 0.74914 0.16436 0.44852 0.0
C2311 C 0.75197 0.14397 0.44704 0.0
C2312 C 0.75272 0.17659 0.43304 0.0
C2313 C 0.78105 0.18085 0.39006 0.0
H2314 H 0.739 0.21159 0.36958 0.0
C2315 C 0.77953 0.20511 0.3129 0.0
C2316 C 0.76958 0.22212 0.30748 0.0
C2317 C 0.77983 0.19919 0.33176 0.0
C2318 C 0.75108 0.20355 0.37534 0.0
H2319 H 0.76097 0.12041 0.42832 0.0
H2320 H 0.76772 0.14193 0.40134 0.0
H2321 H 0.73454 0.19396 0.39936 0.0
H2322 H 0.7531 0.24694 0.31792 0.0
H2323 H 0.75398 0.23676 0.3511 0.0
H2324 H 0.79768 0.19035 0.36624 0.0
C2325 C 0.76259 0.14834 0.41448 0.0
C2326 C 0.74845 0.19335 0.39232 0.0
C2327 C 0.75861 0.13605 0.42983 0.0
C2328 C 0.76083 0.2337 0.32159 0.0
C2329 C 0.76121 0.22778 0.34059 0.0
C2330 C 0.78382 0.19131 0.37329 0.0
C2331 C 0.7596 0.16868 0.41596 0.0
C2332 C 0.76321 0.18144 0.39945 0.0
C2333 C 0.77034 0.21019 0.34581 0.0
C2334 C 0.76864 0.20221 0.36535 0.0
H2335 H 0.74391 0.17085 0.46159 0.0
H2336 H 0.7503 0.19223 0.43443 0.0
H2337 H 0.79273 0.17198 0.39552 0.0
H2338 H 0.78655 0.19587 0.30246 0.0
H2339 H 0.78675 0.18541 0.33511 0.0
C2340 C 0.62583 0.00136 0.17754 0.0
C2341 C 0.61115 0.99747 0.19084 0.0
C2342 C 0.62212 8e-05 0.15812 0.0
C2343 C 0.58678 0.98256 0.12218 0.0
H2344 H 0.6034 0.02887 0.09454 0.0
C2345 C 0.55797 0.99688 0.04767 0.0
C2346 C 0.5485 0.01506 0.04697 0.0
C2347 C 0.57146 0.99314 0.06196 0.0
C2348 C 0.59886 0.01573 0.10198 0.0
H2349 H 0.58138 0.98812 0.19422 0.0
H2350 H 0.5748 0.98605 0.16022 0.0
H2351 H 0.61459 0.02381 0.12691 0.0
H2352 H 0.54697 0.04414 0.05932 0.0
H2353 H 0.57065 0.03781 0.08401 0.0
H2354 H 0.57017 0.97509 0.09759 0.0
C2355 C 0.58925 0.98994 0.16483 0.0
C2356 C 0.60535 0.01275 0.1205 0.0
C2357 C 0.59297 0.9912 0.18432 0.0
C2358 C 0.55417 0.03005 0.0595 0.0
C2359 C 0.56776 0.02639 0.07365 0.0
C2360 C 0.58036 0.98551 0.10361 0.0
C2361 C 0.60365 0.9949 0.15152 0.0
C2362 C 0.59892 0.99643 0.13102 0.0
C2363 C 0.57576 0.00758 0.07566 0.0
C2364 C 0.58585 0.00245 0.09353 0.0
H2365 H 0.64007 0.00603 0.1821 0.0
H2366 H 0.63361 0.00365 0.14826 0.0
H2367 H 0.58177 0.96973 0.12982 0.0
H2368 H 0.55356 0.98492 0.03845 0.0
H2369 H 0.57756 0.97856 0.06305 0.0
C2370 C 0.73994 0.84118 0.94884 0.0
C2371 C 0.74442 0.86135 0.94932 0.0
C2372 C 0.7382 0.83118 0.93152 0.0
C2373 C 0.73225 0.8387 0.87934 0.0
H2374 H 0.75277 0.78593 0.87676 0.0
C2375 C 0.74353 0.79396 0.80891 0.0
C2376 C 0.73935 0.77373 0.80987 0.0
C2377 C 0.74264 0.80573 0.82532 0.0
C2378 C 0.74678 0.80059 0.87726 0.0
H2379 H 0.75035 0.8868 0.9317 0.0
H2380 H 0.74769 0.86933 0.90168 0.0
H2381 H 0.7542 0.804 0.90649 0.0
H2382 H 0.72959 0.7504 0.82856 0.0
H2383 H 0.72786 0.77079 0.85677 0.0
H2384 H 0.72515 0.8352 0.84985 0.0
C2385 C 0.74518 0.86127 0.91467 0.0
C2386 C 0.74754 0.81096 0.89437 0.0
C2387 C 0.74681 0.87128 0.93197 0.0
C2388 C 0.73321 0.76585 0.8273 0.0
C2389 C 0.73231 0.77752 0.84356 0.0
C2390 C 0.73158 0.82831 0.86212 0.0
C2391 C 0.74101 0.84103 0.91418 0.0
C2392 C 0.74016 0.83011 0.89575 0.0
C2393 C 0.73757 0.79746 0.84295 0.0
C2394 C 0.73867 0.80904 0.86093 0.0
H2395 H 0.73785 0.83303 0.96186 0.0
H2396 H 0.73461 0.81568 0.93175 0.0
H2397 H 0.72627 0.85334 0.87986 0.0
H2398 H 0.74837 0.80048 0.79573 0.0
H2399 H 0.74677 0.82106 0.82437 0.0
C2400 C 0.81581 0.88212 0.99529 0.0
C2401 C 0.80103 0.89015 0.00644 0.0
C2402 C 0.83445 0.89022 0.99586 0.0
C2403 C 0.86656 0.92077 0.99017 0.0
H2404 H 0.89108 0.93731 0.0371 0.0
C2405 C 0.9214 0.9839 0.99516 0.0
C2406 C 0.93917 0.98031 0.00415 0.0
C2407 C 0.90648 0.97009 0.9958 0.0
C2408 C 0.8845 0.93255 0.02391 0.0
H2409 H 0.79431 0.91147 0.02824 0.0
H2410 H 0.82686 0.92564 0.02934 0.0
H2411 H 0.86115 0.91784 0.03814 0.0
H2412 H 0.95514 0.95931 0.02093 0.0
H2413 H 0.92846 0.93524 0.02264 0.0
H2414 H 0.88935 0.93629 0.97596 0.0
C2415 C 0.82408 0.91335 0.01991 0.0
C2416 C 0.86733 0.92156 0.02449 0.0
C2417 C 0.80542 0.90545 0.01911 0.0
C2418 C 0.94161 0.96251 0.01392 0.0
C2419 C 0.9264 0.94878 0.01491 0.0
C2420 C 0.88348 0.93204 0.9896 0.0
C2421 C 0.83874 0.90607 0.00805 0.0
C2422 C 0.85799 0.91585 0.0076 0.0
C2423 C 0.90877 0.95244 0.0057 0.0
C2424 C 0.89243 0.9383 0.00646 0.0
H2425 H 0.81278 0.86998 0.98576 0.0
H2426 H 0.84549 0.88416 0.9867 0.0
H2427 H 0.85973 0.91663 0.97693 0.0
H2428 H 0.91905 0.99734 0.98733 0.0
H2429 H 0.89299 0.97332 0.98872 0.0
C2430 C 0.30582 0.59012 0.00713 0.0
C2431 C 0.29381 0.58835 0.99114 0.0
C2432 C 0.32385 0.58095 0.00749 0.0
C2433 C 0.36267 0.56556 0.9769 0.0
H2434 H 0.37776 0.53015 0.01717 0.0
C2435 C 0.43607 0.52785 0.97356 0.0
C2436 C 0.44638 0.52594 0.99052 0.0
C2437 C 0.41653 0.5327 0.97386 0.0
C2438 C 0.37391 0.54019 0.00593 0.0
H2439 H 0.29131 0.57571 0.96295 0.0
H2440 H 0.32309 0.56026 0.96339 0.0
H2441 H 0.34568 0.54502 0.01767 0.0
H2442 H 0.44456 0.52712 0.02111 0.0
H2443 H 0.41056 0.53647 0.02179 0.0
H2444 H 0.39092 0.56178 0.96554 0.0
C2445 C 0.31839 0.56852 0.97571 0.0
C2446 C 0.35551 0.54861 0.00621 0.0
C2447 C 0.30023 0.57732 0.97549 0.0
C2448 C 0.43673 0.52821 0.00787 0.0
C2449 C 0.41724 0.53358 0.0082 0.0
C2450 C 0.38115 0.55749 0.9768 0.0
C2451 C 0.33032 0.57021 0.99172 0.0
C2452 C 0.34974 0.56129 0.99164 0.0
C2453 C 0.40701 0.53643 0.99115 0.0
C2454 C 0.38703 0.54458 0.99124 0.0
H2455 H 0.3012 0.59841 0.01945 0.0
H2456 H 0.33289 0.58255 0.01994 0.0
H2457 H 0.35862 0.57551 0.96564 0.0
H2458 H 0.44329 0.52608 0.96002 0.0
H2459 H 0.40906 0.53407 0.96045 0.0
C2460 C 0.14821 0.5691 0.73722 0.0
C2461 C 0.13155 0.5636 0.7472 0.0
C2462 C 0.15358 0.5888 0.73605 0.0
C2463 C 0.15825 0.63243 0.72954 0.0
H2464 H 0.16331 0.65752 0.77875 0.0
C2465 C 0.2029 0.70375 0.7425 0.0
C2466 C 0.21863 0.6991 0.75422 0.0
C2467 C 0.18713 0.69086 0.74108 0.0
C2468 C 0.16159 0.65089 0.76487 0.0
H2469 H 0.10647 0.57408 0.76239 0.0
H2470 H 0.1162 0.60885 0.76089 0.0
H2471 H 0.14403 0.62752 0.77562 0.0
H2472 H 0.22973 0.67811 0.7745 0.0
H2473 H 0.20206 0.65595 0.77234 0.0
H2474 H 0.17647 0.65549 0.71897 0.0
C2475 C 0.12517 0.59789 0.75412 0.0
C2476 C 0.1506 0.63374 0.76306 0.0
C2477 C 0.11966 0.57811 0.75505 0.0
C2478 C 0.21792 0.68192 0.76516 0.0
C2479 C 0.20202 0.66936 0.7641 0.0
C2480 C 0.16893 0.64981 0.73128 0.0
C2481 C 0.14232 0.60337 0.74478 0.0
C2482 C 0.14967 0.62381 0.74559 0.0
C2483 C 0.18667 0.67354 0.75182 0.0
C2484 C 0.17139 0.65863 0.74912 0.0
H2485 H 0.15725 0.55809 0.73058 0.0
H2486 H 0.167 0.59254 0.72897 0.0
H2487 H 0.15753 0.62519 0.71586 0.0
H2488 H 0.20311 0.71696 0.73398 0.0
H2489 H 0.17543 0.69425 0.73145 0.0
C2490 C 0.18567 0.39356 0.51392 0.0
C2491 C 0.20039 0.40657 0.5081 0.0
C2492 C 0.16682 0.40027 0.51686 0.0
C2493 C 0.13802 0.44512 0.52533 0.0
H2494 H 0.09715 0.41657 0.49952 0.0
C2495 C 0.06855 0.48119 0.4993 0.0
C2496 C 0.05204 0.46969 0.49603 0.0
C2497 C 0.08507 0.47287 0.50721 0.0
C2498 C 0.10819 0.42452 0.5073 0.0
H2499 H 0.2068 0.43701 0.50134 0.0
H2500 H 0.17399 0.44863 0.50649 0.0
H2501 H 0.1295 0.40298 0.50042 0.0
H2502 H 0.03908 0.44099 0.49955 0.0
H2503 H 0.06777 0.42641 0.51404 0.0
H2504 H 0.1168 0.46688 0.53191 0.0
C2505 C 0.17706 0.43325 0.50883 0.0
C2506 C 0.12683 0.41673 0.5077 0.0
C2507 C 0.19584 0.42652 0.50569 0.0
C2508 C 0.05163 0.45017 0.50222 0.0
C2509 C 0.06816 0.4418 0.51024 0.0
C2510 C 0.11932 0.45284 0.5251 0.0
C2511 C 0.16229 0.42018 0.51429 0.0
C2512 C 0.14207 0.42722 0.51621 0.0
C2513 C 0.08542 0.45278 0.51188 0.0
C2514 C 0.10427 0.44295 0.51554 0.0
H2515 H 0.18864 0.37811 0.51597 0.0
H2516 H 0.15576 0.38986 0.52115 0.0
H2517 H 0.14942 0.45338 0.53229 0.0
H2518 H 0.06922 0.49622 0.49428 0.0
H2519 H 0.09801 0.48183 0.50807 0.0
C2520 C 0.8731 0.93424 0.76195 0.0
C2521 C 0.86437 0.94863 0.75067 0.0
C2522 C 0.86478 0.91548 0.76349 0.0
C2523 C 0.83401 0.88273 0.77224 0.0
H2524 H 0.82171 0.85444 0.72595 0.0
C2525 C 0.77516 0.82215 0.76178 0.0
C2526 C 0.77944 0.80692 0.74902 0.0
C2527 C 0.78903 0.83663 0.76594 0.0
C2528 C 0.82527 0.86202 0.73903 0.0
H2529 H 0.84117 0.95446 0.731 0.0
H2530 H 0.82688 0.92153 0.73324 0.0
H2531 H 0.83863 0.88595 0.72421 0.0
H2532 H 0.80178 0.79398 0.73168 0.0
H2533 H 0.82605 0.81912 0.73898 0.0
H2534 H 0.81968 0.85916 0.78697 0.0
C2535 C 0.8398 0.92487 0.74133 0.0
C2536 C 0.8348 0.88014 0.73801 0.0
C2537 C 0.84786 0.9437 0.74014 0.0
C2538 C 0.7983 0.80533 0.74191 0.0
C2539 C 0.81209 0.81987 0.74588 0.0
C2540 C 0.82404 0.86475 0.77325 0.0
C2541 C 0.84804 0.91062 0.75318 0.0
C2542 C 0.8391 0.89078 0.75456 0.0
C2543 C 0.80723 0.83625 0.75707 0.0
C2544 C 0.8195 0.85425 0.75662 0.0
H2545 H 0.88608 0.93767 0.7699 0.0
H2546 H 0.87151 0.9047 0.77258 0.0
H2547 H 0.83716 0.89064 0.78521 0.0
H2548 H 0.76055 0.824 0.76698 0.0
H2549 H 0.78484 0.84912 0.77452 0.0
C2550 C 0.68071 0.12602 0.49603 0.0
C2551 C 0.69531 0.11444 0.50393 0.0
C2552 C 0.66129 0.12094 0.49871 0.0
C2553 C 0.62366 0.09669 0.49657 0.0
H2554 H 0.60657 0.07869 0.54601 0.0
C2555 C 0.57133 0.03395 0.52445 0.0
C2556 C 0.55475 0.03695 0.51341 0.0
C2557 C 0.58513 0.04874 0.52643 0.0
C2558 C 0.61105 0.08387 0.53217 0.0
H2559 H 0.70146 0.08963 0.52198 0.0
H2560 H 0.6676 0.08061 0.52663 0.0
H2561 H 0.6382 0.09437 0.54271 0.0
H2562 H 0.53882 0.05837 0.49713 0.0
H2563 H 0.56333 0.08428 0.50022 0.0
H2564 H 0.59697 0.08519 0.48584 0.0
C2565 C 0.67102 0.09342 0.51817 0.0
C2566 C 0.62915 0.09276 0.53027 0.0
C2567 C 0.69035 0.09836 0.51529 0.0
C2568 C 0.55151 0.05559 0.50558 0.0
C2569 C 0.56556 0.07038 0.5073 0.0
C2570 C 0.60554 0.08775 0.49846 0.0
C2571 C 0.6563 0.1046 0.50985 0.0
C2572 C 0.63591 0.09855 0.51234 0.0
C2573 C 0.58277 0.06684 0.51726 0.0
C2574 C 0.59941 0.08056 0.51616 0.0
H2575 H 0.68435 0.13881 0.48762 0.0
H2576 H 0.6502 0.12984 0.49224 0.0
H2577 H 0.62858 0.10095 0.48258 0.0
H2578 H 0.5741 0.01978 0.53082 0.0
H2579 H 0.59829 0.04547 0.53407 0.0
C2580 C 0.1525 0.44751 0.74798 0.0
C2581 C 0.16024 0.4632 0.75861 0.0
C2582 C 0.16083 0.4289 0.74874 0.0
C2583 C 0.20538 0.40244 0.76201 0.0
H2584 H 0.17042 0.35792 0.76586 0.0
C2585 C 0.22985 0.32095 0.75694 0.0
C2586 C 0.22031 0.30742 0.76879 0.0
C2587 C 0.22383 0.34053 0.7562 0.0
C2588 C 0.1804 0.37019 0.76495 0.0
H2589 H 0.18319 0.4716 0.77806 0.0
H2590 H 0.19754 0.43906 0.77953 0.0
H2591 H 0.15737 0.39086 0.76324 0.0
H2592 H 0.19773 0.30416 0.78995 0.0
H2593 H 0.18752 0.33821 0.78886 0.0
H2594 H 0.22842 0.38164 0.76408 0.0
C2595 C 0.18511 0.44124 0.77048 0.0
C2596 C 0.17291 0.38907 0.76319 0.0
C2597 C 0.17678 0.45988 0.76972 0.0
C2598 C 0.20525 0.31411 0.78049 0.0
C2599 C 0.19931 0.33363 0.77979 0.0
C2600 C 0.21289 0.38348 0.76375 0.0
C2601 C 0.17712 0.42549 0.76014 0.0
C2602 C 0.18528 0.40543 0.76172 0.0
C2603 C 0.20819 0.34696 0.76732 0.0
C2604 C 0.20047 0.36716 0.76534 0.0
H2605 H 0.13988 0.44952 0.73914 0.0
H2606 H 0.15451 0.41716 0.74037 0.0
H2607 H 0.21529 0.41473 0.76074 0.0
H2608 H 0.24146 0.31627 0.74769 0.0
H2609 H 0.23092 0.35043 0.74637 0.0
C2610 C 0.36208 0.56698 0.24466 0.0
C2611 C 0.34916 0.55133 0.24808 0.0
C2612 C 0.35515 0.58608 0.2418 0.0
C2613 C 0.31364 0.61372 0.22536 0.0
H2614 H 0.32589 0.65328 0.26316 0.0
C2615 C 0.26193 0.67598 0.24343 0.0
C2616 C 0.26852 0.69282 0.25293 0.0
C2617 C 0.2749 0.66158 0.23747 0.0
C2618 C 0.32265 0.64274 0.25208 0.0
H2619 H 0.31885 0.54347 0.25071 0.0
H2620 H 0.30687 0.57654 0.24507 0.0
H2621 H 0.34301 0.62212 0.26327 0.0
H2622 H 0.29379 0.70846 0.26289 0.0
H2623 H 0.31678 0.68388 0.25152 0.0
H2624 H 0.29331 0.63408 0.21408 0.0
C2625 C 0.32232 0.57406 0.24484 0.0
C2626 C 0.33244 0.62479 0.25227 0.0
C2627 C 0.32921 0.55515 0.24818 0.0
C2628 C 0.28844 0.69584 0.25507 0.0
C2629 C 0.30154 0.68149 0.24893 0.0
C2630 C 0.30414 0.6318 0.22489 0.0
C2631 C 0.33519 0.58974 0.24176 0.0
C2632 C 0.32751 0.60987 0.23935 0.0
C2633 C 0.29486 0.66366 0.24095 0.0
C2634 C 0.30789 0.6463 0.23875 0.0
H2635 H 0.37752 0.56452 0.24455 0.0
H2636 H 0.36535 0.59798 0.23952 0.0
H2637 H 0.30974 0.60249 0.21512 0.0
H2638 H 0.24657 0.67313 0.24205 0.0
H2639 H 0.26897 0.64812 0.23165 0.0
C2640 C 0.48714 0.68242 0.61838 0.0
C2641 C 0.49655 0.6985 0.61005 0.0
C2642 C 0.48954 0.66349 0.61096 0.0
C2643 C 0.5203 0.6335 0.57821 0.0
H2644 H 0.47385 0.60172 0.57424 0.0
C2645 C 0.50809 0.57015 0.52429 0.0
C2646 C 0.49558 0.55478 0.52947 0.0
C2647 C 0.51245 0.58523 0.53719 0.0
C2648 C 0.48709 0.61018 0.57556 0.0
H2649 H 0.51751 0.70732 0.58892 0.0
H2650 H 0.52134 0.67446 0.57548 0.0
H2651 H 0.47263 0.63317 0.59044 0.0
H2652 H 0.47891 0.54226 0.55241 0.0
H2653 H 0.48691 0.56822 0.57517 0.0
H2654 H 0.53448 0.61068 0.56247 0.0
C2655 C 0.51193 0.67629 0.58762 0.0
C2656 C 0.48638 0.6283 0.58487 0.0
C2657 C 0.50949 0.69519 0.59507 0.0
C2658 C 0.48893 0.55375 0.54823 0.0
C2659 C 0.49326 0.5688 0.56113 0.0
C2660 C 0.52097 0.61537 0.56872 0.0
C2661 C 0.50168 0.6602 0.59521 0.0
C2662 C 0.50292 0.64033 0.58622 0.0
C2663 C 0.50414 0.58528 0.55542 0.0
C2664 C 0.50432 0.60355 0.56717 0.0
H2665 H 0.47757 0.68456 0.63037 0.0
H2666 H 0.4818 0.65144 0.61754 0.0
H2667 H 0.53341 0.64219 0.57917 0.0
H2668 H 0.51292 0.57154 0.50973 0.0
H2669 H 0.52082 0.5977 0.53228 0.0
C2670 C 0.54168 0.23909 0.81949 0.0
C2671 C 0.54248 0.25203 0.83505 0.0
C2672 C 0.55687 0.23853 0.80635 0.0
C2673 C 0.59753 0.26765 0.78762 0.0
H2674 H 0.62246 0.21766 0.77891 0.0
C2675 C 0.67723 0.261 0.76612 0.0
C2676 C 0.68364 0.2436 0.75758 0.0
C2677 C 0.65762 0.26349 0.77023 0.0
C2678 C 0.61547 0.23173 0.78064 0.0
H2679 H 0.5596 0.27471 0.84887 0.0
H2680 H 0.58586 0.27386 0.82589 0.0
H2681 H 0.59238 0.21875 0.79662 0.0
H2682 H 0.67472 0.21598 0.74505 0.0
H2683 H 0.64036 0.22075 0.75112 0.0
H2684 H 0.62065 0.28073 0.77184 0.0
C2685 C 0.57356 0.26417 0.82384 0.0
C2686 C 0.59823 0.23231 0.79093 0.0
C2687 C 0.5586 0.26449 0.8371 0.0
C2688 C 0.67003 0.22956 0.7516 0.0
C2689 C 0.6504 0.2322 0.75536 0.0
C2690 C 0.61464 0.26706 0.77707 0.0
C2691 C 0.57289 0.25117 0.80836 0.0
C2692 C 0.58942 0.25032 0.79501 0.0
C2693 C 0.64405 0.24867 0.76569 0.0
C2694 C 0.62419 0.24915 0.77394 0.0
H2695 H 0.52941 0.22936 0.81754 0.0
H2696 H 0.55605 0.22834 0.79454 0.0
H2697 H 0.59085 0.28173 0.79038 0.0
H2698 H 0.68752 0.27178 0.77132 0.0
H2699 H 0.65344 0.2763 0.77835 0.0
C2700 C 0.97221 0.30712 0.08306 0.0
C2701 C 0.98787 0.30076 0.09408 0.0
C2702 C 0.97141 0.32639 0.0764 0.0
C2703 C 0.99461 0.37611 0.08128 0.0
H2704 H 0.97272 0.3834 0.03123 0.0
C2705 C 0.00022 0.45131 0.04458 0.0
C2706 C 0.00627 0.45032 0.02564 0.0
C2707 C 0.99296 0.4345 0.05366 0.0
C2708 C 0.97895 0.38168 0.0452 0.0
H2709 H 0.01491 0.30975 0.10694 0.0
H2710 H 0.01409 0.3432 0.09454 0.0
H2711 H 0.97173 0.3512 0.0457 0.0
H2712 H 0.00896 0.4315 0.00106 0.0
H2713 H 0.99651 0.40232 0.01661 0.0
H2714 H 0.00312 0.40632 0.08009 0.0
C2715 C 0.00204 0.33349 0.0915 0.0
C2716 C 0.97814 0.36316 0.05369 0.0
C2717 C 0.00263 0.31424 0.09852 0.0
C2718 C 0.00392 0.43269 0.01557 0.0
C2719 C 0.99677 0.41593 0.02458 0.0
C2720 C 0.99568 0.39459 0.07264 0.0
C2721 C 0.98646 0.33982 0.08019 0.0
C2722 C 0.98623 0.35998 0.07175 0.0
C2723 C 0.99195 0.41635 0.04398 0.0
C2724 C 0.98821 0.39755 0.05431 0.0
H2725 H 0.96041 0.29719 0.07967 0.0
H2726 H 0.95889 0.33071 0.06825 0.0
H2727 H 0.00063 0.37446 0.09534 0.0
H2728 H 0.00251 0.46459 0.05276 0.0
H2729 H 0.98911 0.43551 0.06851 0.0
C2730 C 0.91935 0.76119 0.38944 0.0
C2731 C 0.9346 0.75403 0.37818 0.0
C2732 C 0.90045 0.76134 0.38251 0.0
C2733 C 0.86765 0.7746 0.35638 0.0
H2734 H 0.84459 0.73128 0.32844 0.0
C2735 C 0.81468 0.78255 0.29436 0.0
C2736 C 0.79959 0.76883 0.29241 0.0
C2737 C 0.82769 0.78117 0.3094 0.0
C2738 C 0.85066 0.74341 0.33649 0.0
H2739 H 0.9416 0.74025 0.35125 0.0
H2740 H 0.90853 0.74023 0.33935 0.0
H2741 H 0.87463 0.72621 0.34595 0.0
H2742 H 0.78566 0.74352 0.30514 0.0
H2743 H 0.80858 0.74094 0.3314 0.0
H2744 H 0.84423 0.79206 0.34607 0.0
C2745 C 0.91131 0.74587 0.35348 0.0
C2746 C 0.86792 0.74054 0.34635 0.0
C2747 C 0.93027 0.74598 0.36027 0.0
C2748 C 0.79699 0.75445 0.30645 0.0
C2749 C 0.81021 0.75285 0.32135 0.0
C2750 C 0.85054 0.77754 0.34629 0.0
C2751 C 0.8963 0.754 0.36434 0.0
C2752 C 0.87679 0.75622 0.35604 0.0
C2753 C 0.82603 0.76583 0.3226 0.0
C2754 C 0.84212 0.76207 0.33592 0.0
H2755 H 0.92208 0.76738 0.40335 0.0
H2756 H 0.8891 0.76755 0.39122 0.0
H2757 H 0.87425 0.78698 0.36363 0.0
H2758 H 0.81702 0.79374 0.2837 0.0
H2759 H 0.83981 0.79128 0.30994 0.0
C2760 C 0.47997 0.32392 0.87512 0.0
C2761 C 0.49431 0.31169 0.88251 0.0
C2762 C 0.47927 0.34369 0.8805 0.0
C2763 C 0.50742 0.38307 0.90514 0.0
H2764 H 0.45711 0.39938 0.92334 0.0
C2765 C 0.5 0.45129 0.95197 0.0
C2766 C 0.48984 0.44775 0.96883 0.0
C2767 C 0.49846 0.43833 0.93668 0.0
C2768 C 0.47123 0.3951 0.9182 0.0
H2769 H 0.52048 0.31057 0.89916 0.0
H2770 H 0.51916 0.34485 0.90899 0.0
H2771 H 0.45986 0.3697 0.90419 0.0
H2772 H 0.46955 0.42826 0.98283 0.0
H2773 H 0.46701 0.40535 0.95628 0.0
H2774 H 0.51893 0.40787 0.91999 0.0
C2775 C 0.50831 0.33942 0.89921 0.0
C2776 C 0.47281 0.37817 0.90709 0.0
C2777 C 0.5089 0.3197 0.89391 0.0
C2778 C 0.47747 0.43139 0.96992 0.0
C2779 C 0.4759 0.41838 0.95464 0.0
C2780 C 0.50584 0.40001 0.91618 0.0
C2781 C 0.49318 0.35152 0.893 0.0
C2782 C 0.49104 0.37151 0.90114 0.0
C2783 C 0.4868 0.42143 0.93805 0.0
C2784 C 0.48782 0.40579 0.92342 0.0
H2785 H 0.46892 0.31802 0.8658 0.0
H2786 H 0.46765 0.35271 0.8752 0.0
H2787 H 0.52162 0.37857 0.90042 0.0
H2788 H 0.51016 0.46332 0.9511 0.0
H2789 H 0.50702 0.44109 0.92409 0.0
C2790 C 0.91788 0.24991 0.12646 0.0
C2791 C 0.93535 0.25144 0.13655 0.0
C2792 C 0.90019 0.25271 0.13559 0.0
C2793 C 0.87767 0.27264 0.17952 0.0
H2794 H 0.83703 0.23533 0.16724 0.0
C2795 C 0.81403 0.25277 0.22891 0.0
C2796 C 0.79672 0.24621 0.22073 0.0
C2797 C 0.82939 0.25893 0.21744 0.0
C2798 C 0.848 0.24621 0.17058 0.0
H2799 H 0.9478 0.25738 0.16425 0.0
H2800 H 0.9169 0.26182 0.18025 0.0
H2801 H 0.86716 0.23449 0.14974 0.0
H2802 H 0.78133 0.24163 0.19443 0.0
H2803 H 0.80783 0.25306 0.17428 0.0
H2804 H 0.85856 0.28388 0.20088 0.0
C2805 C 0.91692 0.25879 0.16516 0.0
C2806 C 0.86537 0.24567 0.16054 0.0
C2807 C 0.93465 0.25606 0.156 0.0
C2808 C 0.79441 0.24717 0.20103 0.0
C2809 C 0.8097 0.25339 0.18953 0.0
C2810 C 0.86024 0.27317 0.18962 0.0
C2811 C 0.89946 0.25701 0.1551 0.0
C2812 C 0.88054 0.25868 0.16504 0.0
C2813 C 0.82772 0.25833 0.19755 0.0
C2814 C 0.84528 0.25977 0.18543 0.0
H2815 H 0.9178 0.24655 0.11143 0.0
H2816 H 0.88705 0.25151 0.12733 0.0
H2817 H 0.88895 0.28308 0.18315 0.0
H2818 H 0.81626 0.25159 0.24408 0.0
H2819 H 0.84306 0.26248 0.22412 0.0
C2820 C 0.99646 0.70476 0.43057 0.0
C2821 C 0.0014 0.70943 0.41174 0.0
C2822 C -0.00032 0.68598 0.43774 0.0
C2823 C 0.02797 0.64089 0.4303 0.0
H2824 H 0.98716 0.61661 0.45995 0.0
C2825 C 0.02722 0.55837 0.44922 0.0
C2826 C 0.01955 0.55259 0.46685 0.0
C2827 C 0.0265 0.57796 0.44346 0.0
C2828 C -0.00115 0.62327 0.45198 0.0
H2829 H 0.01395 0.6979 0.3858 0.0
H2830 H 0.01953 0.66502 0.39838 0.0
H2831 H 0.98286 0.64967 0.4477 0.0
H2832 H 0.0058 0.56319 0.49256 0.0
H2833 H 0.00487 0.59743 0.48263 0.0
H2834 H 0.04395 0.61444 0.43456 0.0
C2835 C 0.01323 0.67603 0.40758 0.0
C2836 C 0.99635 0.64222 0.4449 0.0
C2837 C 0.00993 0.69485 0.40035 0.0
C2838 C 0.0118 0.56706 0.47887 0.0
C2839 C 0.01111 0.58669 0.47311 0.0
C2840 C 0.03051 0.62193 0.43745 0.0
C2841 C 0.008 0.67135 0.42632 0.0
C2842 C 0.01084 0.65124 0.43392 0.0
C2843 C 0.01814 0.59232 0.45518 0.0
C2844 C 0.01594 0.61285 0.44832 0.0
H2845 H 0.98997 0.71558 0.43984 0.0
H2846 H 0.99575 0.68294 0.45231 0.0
H2847 H 0.03951 0.64754 0.42211 0.0
H2848 H 0.0333 0.54767 0.43955 0.0
H2849 H 0.03186 0.58169 0.42949 0.0
C2850 C 0.54232 0.76464 0.67672 0.0
C2851 C 0.54316 0.75959 0.65738 0.0
C2852 C 0.55908 0.76484 0.68784 0.0
C2853 C 0.60921 0.74541 0.68887 0.0
H2854 H 0.61777 0.78652 0.72613 0.0
C2855 C 0.67992 0.74891 0.73233 0.0
C2856 C 0.68877 0.76754 0.7323 0.0
C2857 C 0.66056 0.74674 0.72673 0.0
C2858 C 0.6156 0.77489 0.71582 0.0
H2859 H 0.56239 0.75124 0.63449 0.0
H2860 H 0.59161 0.75199 0.65371 0.0
H2861 H 0.5877 0.78572 0.70818 0.0
H2862 H 0.68388 0.79861 0.72781 0.0
H2863 H 0.65045 0.79488 0.71817 0.0
H2864 H 0.63746 0.7351 0.6959 0.0
C2865 C 0.57796 0.75538 0.66043 0.0
C2866 C 0.59826 0.77434 0.70561 0.0
C2867 C 0.56121 0.75516 0.64934 0.0
C2868 C 0.67751 0.78403 0.72791 0.0
C2869 C 0.65824 0.78189 0.72247 0.0
C2870 C 0.62655 0.74597 0.69906 0.0
C2871 C 0.57711 0.76 0.67989 0.0
C2872 C 0.59499 0.75982 0.69173 0.0
C2873 C 0.64966 0.76318 0.72119 0.0
C2874 C 0.63015 0.76096 0.7124 0.0
H2875 H 0.52863 0.76802 0.68339 0.0
H2876 H 0.55783 0.76833 0.70278 0.0
H2877 H 0.60705 0.73378 0.67857 0.0
H2878 H 0.68825 0.73592 0.73555 0.0
H2879 H 0.65431 0.73212 0.72615 0.0
C2880 C 0.57173 0.49041 0.7038 0.0
C2881 C 0.59128 0.49614 0.70347 0.0
C2882 C 0.56082 0.49004 0.68708 0.0
C2883 C 0.55972 0.51077 0.63862 0.0
H2884 H 0.52592 0.46669 0.62722 0.0
C2885 C 0.51756 0.50659 0.56806 0.0
C2886 C 0.52033 0.4888 0.5583 0.0
C2887 C 0.52243 0.50819 0.58732 0.0
C2888 C 0.53522 0.47917 0.63025 0.0
H2889 H 0.61476 0.5057 0.68526 0.0
H2890 H 0.59582 0.50491 0.65615 0.0
H2891 H 0.54299 0.46788 0.65751 0.0
H2892 H 0.52899 0.45842 0.56133 0.0
H2893 H 0.53722 0.46113 0.59473 0.0
H2894 H 0.55251 0.52171 0.61111 0.0
C2895 C 0.58882 0.50095 0.66935 0.0
C2896 C 0.54491 0.4799 0.64765 0.0
C2897 C 0.59974 0.50122 0.68603 0.0
C2898 C 0.52675 0.47235 0.56846 0.0
C2899 C 0.53138 0.47388 0.58766 0.0
C2900 C 0.54995 0.51009 0.62127 0.0
C2901 C 0.56919 0.49552 0.66968 0.0
C2902 C 0.55762 0.4955 0.65187 0.0
C2903 C 0.52989 0.49196 0.5972 0.0
C2904 C 0.5379 0.49407 0.6167 0.0
H2905 H 0.56476 0.48648 0.71702 0.0
H2906 H 0.54572 0.48587 0.68784 0.0
H2907 H 0.56917 0.52315 0.64156 0.0
H2908 H 0.51278 0.51953 0.56056 0.0
H2909 H 0.52094 0.52229 0.59432 0.0
C2910 C 0.75089 0.36877 0.9306 0.0
C2911 C 0.75639 0.35992 0.94771 0.0
C2912 C 0.74927 0.35756 0.91401 0.0
C2913 C 0.74631 0.30545 0.89751 0.0
H2914 H 0.75894 0.32833 0.84878 0.0
C2915 C 0.73381 0.26205 0.82893 0.0
C2916 C 0.74664 0.26466 0.81372 0.0
C2917 C 0.73473 0.27429 0.84476 0.0
C2918 C 0.75562 0.3216 0.86229 0.0
H2919 H 0.76511 0.33259 0.96078 0.0
H2920 H 0.7632 0.31333 0.93192 0.0
H2921 H 0.7615 0.3483 0.87732 0.0
H2922 H 0.77052 0.28212 0.80307 0.0
H2923 H 0.77294 0.30292 0.83128 0.0
H2924 H 0.74165 0.27849 0.88282 0.0
C2925 C 0.75926 0.32867 0.93128 0.0
C2926 C 0.75674 0.33319 0.87868 0.0
C2927 C 0.76045 0.33975 0.94788 0.0
C2928 C 0.76048 0.27978 0.81465 0.0
C2929 C 0.76172 0.2918 0.83075 0.0
C2930 C 0.7456 0.2938 0.88125 0.0
C2931 C 0.75352 0.33735 0.91412 0.0
C2932 C 0.75208 0.32526 0.89652 0.0
C2933 C 0.74884 0.28919 0.84604 0.0
C2934 C 0.7501 0.30171 0.86337 0.0
H2935 H 0.74769 0.38431 0.93009 0.0
H2936 H 0.74452 0.36473 0.90117 0.0
H2937 H 0.74223 0.29884 0.91088 0.0
H2938 H 0.7227 0.25078 0.82843 0.0
H2939 H 0.72416 0.27215 0.8559 0.0
C2940 C 0.92706 0.51923 0.20267 0.0
C2941 C 0.90865 0.51044 0.20357 0.0
C2942 C 0.93614 0.52222 0.18508 0.0
C2943 C 0.95556 0.51493 0.14607 0.0
H2944 H 0.92336 0.53161 0.10423 0.0
C2945 C 0.97678 0.50591 0.06659 0.0
C2946 C 0.96974 0.51982 0.05369 0.0
C2947 C 0.97173 0.50699 0.08584 0.0
C2948 C 0.93272 0.52723 0.11574 0.0
H2949 H 0.88534 0.49798 0.18674 0.0
H2950 H 0.90101 0.5031 0.15643 0.0
H2951 H 0.90989 0.53011 0.13591 0.0
H2952 H 0.95328 0.54668 0.05109 0.0
H2953 H 0.94505 0.54892 0.0845 0.0
H2954 H 0.97846 0.51212 0.1257 0.0
C2955 C 0.90844 0.50791 0.16916 0.0
C2956 C 0.92488 0.52613 0.13392 0.0
C2957 C 0.89948 0.50487 0.1866 0.0
C2958 C 0.95862 0.53549 0.0606 0.0
C2959 C 0.95382 0.53673 0.07978 0.0
C2960 C 0.96347 0.51605 0.12777 0.0
C2961 C 0.92685 0.51663 0.16812 0.0
C2962 C 0.93606 0.51963 0.14926 0.0
C2963 C 0.95974 0.52215 0.09256 0.0
C2964 C 0.95206 0.52202 0.11233 0.0
H2965 H 0.93452 0.5236 0.21552 0.0
H2966 H 0.9503 0.52906 0.18472 0.0
H2967 H 0.96452 0.50977 0.15759 0.0
H2968 H 0.98539 0.49371 0.06168 0.0
H2969 H 0.97648 0.49545 0.09524 0.0
C2970 C 0.76559 0.63173 0.42165 0.0
C2971 C 0.76101 0.64186 0.43847 0.0
C2972 C 0.76874 0.64189 0.40473 0.0
C2973 C 0.77684 0.69193 0.3844 0.0
H2974 H 0.75265 0.66867 0.34006 0.0
C2975 C 0.74657 0.73534 0.32181 0.0
C2976 C 0.74582 0.72665 0.30378 0.0
C2977 C 0.75531 0.72562 0.33691 0.0
C2978 C 0.75994 0.67522 0.35214 0.0
H2979 H 0.75666 0.67075 0.45071 0.0
H2980 H 0.76158 0.68847 0.42106 0.0
H2981 H 0.75367 0.65033 0.36945 0.0
H2982 H 0.75454 0.70171 0.28688 0.0
H2983 H 0.76992 0.68447 0.31335 0.0
H2984 H 0.78216 0.71727 0.36711 0.0
C2985 C 0.76314 0.67265 0.42102 0.0
C2986 C 0.76048 0.66468 0.36909 0.0
C2987 C 0.76018 0.66248 0.43804 0.0
C2988 C 0.75524 0.70878 0.30063 0.0
C2989 C 0.76383 0.69887 0.31583 0.0
C2990 C 0.7762 0.70253 0.36741 0.0
C2991 C 0.7672 0.66246 0.40407 0.0
C2992 C 0.76855 0.67304 0.38559 0.0
C2993 C 0.76313 0.70679 0.33432 0.0
C2994 C 0.76732 0.69446 0.3512 0.0
H2995 H 0.76664 0.61587 0.42147 0.0
H2996 H 0.77224 0.63354 0.3921 0.0
H2997 H 0.78352 0.69869 0.39669 0.0
H2998 H 0.73915 0.74903 0.32455 0.0
H2999 H 0.75436 0.73211 0.35092 0.0
C3000 C 0.62088 0.4923 0.8261 0.0
C3001 C 0.61186 0.50237 0.81122 0.0
C3002 C 0.61141 0.4896 0.84342 0.0
C3003 C 0.56279 0.49463 0.86672 0.0
H3004 H 0.59356 0.49399 0.91257 0.0
C3005 C 0.55298 0.5153 0.95025 0.0
C3006 C 0.53341 0.51036 0.95214 0.0
C3007 C 0.56345 0.50911 0.93439 0.0
C3008 C 0.58466 0.4943 0.89997 0.0
H3009 H 0.58599 0.5177 0.80279 0.0
H3010 H 0.5699 0.51422 0.83331 0.0
H3011 H 0.60947 0.49547 0.88207 0.0
H3012 H 0.5094 0.49501 0.93931 0.0
H3013 H 0.52799 0.48233 0.91258 0.0
H3014 H 0.53799 0.49533 0.88458 0.0
C3015 C 0.58393 0.50756 0.83151 0.0
C3016 C 0.59386 0.49481 0.8823 0.0
C3017 C 0.59322 0.50978 0.814 0.0
C3018 C 0.52475 0.49812 0.9386 0.0
C3019 C 0.53532 0.49144 0.92295 0.0
C3020 C 0.5536 0.49465 0.88438 0.0
C3021 C 0.59285 0.49737 0.84651 0.0
C3022 C 0.58307 0.49534 0.86537 0.0
C3023 C 0.55454 0.49775 0.92006 0.0
C3024 C 0.56437 0.49486 0.90133 0.0
H3025 H 0.63517 0.48617 0.82422 0.0
H3026 H 0.61868 0.48126 0.8543 0.0
H3027 H 0.55387 0.49443 0.85413 0.0
H3028 H 0.55975 0.52532 0.96024 0.0
H3029 H 0.57804 0.51464 0.93277 0.0
C3030 C 0.75575 0.35811 0.07265 0.0
C3031 C 0.74644 0.35078 0.05639 0.0
C3032 C 0.75303 0.34906 0.09018 0.0
C3033 C 0.72038 0.31877 0.11807 0.0
H3034 H 0.76655 0.30622 0.14665 0.0
C3035 C 0.74535 0.27829 0.19202 0.0
C3036 C 0.73437 0.28888 0.20532 0.0
C3037 C 0.74511 0.28342 0.17286 0.0
C3038 C 0.75353 0.30943 0.13876 0.0
H3039 H 0.7265 0.32864 0.0458 0.0
H3040 H 0.72144 0.31303 0.07671 0.0
H3041 H 0.76955 0.3205 0.11508 0.0
H3042 H 0.71361 0.31241 0.20871 0.0
H3043 H 0.71307 0.32121 0.17518 0.0
H3044 H 0.70438 0.30818 0.14207 0.0
C3045 C 0.73094 0.32568 0.07575 0.0
C3046 C 0.75525 0.31776 0.12078 0.0
C3047 C 0.73388 0.33458 0.0581 0.0
C3048 C 0.72235 0.30404 0.19886 0.0
C3049 C 0.72193 0.309 0.17965 0.0
C3050 C 0.71865 0.31069 0.13621 0.0
C3051 C 0.74077 0.33266 0.09186 0.0
C3052 C 0.73872 0.32272 0.11037 0.0
C3053 C 0.73367 0.29906 0.16656 0.0
C3054 C 0.73523 0.30611 0.14677 0.0
H3055 H 0.76553 0.37055 0.0718 0.0
H3056 H 0.76059 0.35485 0.10245 0.0
H3057 H 0.70743 0.32251 0.1103 0.0
H3058 H 0.7547 0.2665 0.19648 0.0
H3059 H 0.75418 0.27542 0.16302 0.0
C3060 C 0.87309 0.49895 0.32845 0.0
C3061 C 0.88506 0.50235 0.31261 0.0
C3062 C 0.88065 0.49918 0.34678 0.0
C3063 C 0.90379 0.48512 0.38067 0.0
H3064 H 0.94074 0.5239 0.39864 0.0
C3065 C 0.95885 0.47241 0.44064 0.0
C3066 C 0.96342 0.48819 0.45272 0.0
C3067 C 0.94549 0.47477 0.42599 0.0
C3068 C 0.93022 0.51311 0.39394 0.0
H3069 H 0.9143 0.50962 0.30388 0.0
H3070 H 0.92748 0.51018 0.33607 0.0
H3071 H 0.92564 0.52801 0.36758 0.0
H3072 H 0.9573 0.51858 0.45933 0.0
H3073 H 0.93369 0.52266 0.4339 0.0
H3074 H 0.90878 0.46992 0.40677 0.0
C3075 C 0.9122 0.50729 0.33414 0.0
C3076 C 0.92176 0.51535 0.37607 0.0
C3077 C 0.90465 0.50693 0.3157 0.0
C3078 C 0.95353 0.50599 0.45065 0.0
C3079 C 0.94032 0.50844 0.43585 0.0
C3080 C 0.9124 0.48276 0.39843 0.0
C3081 C 0.90034 0.50296 0.34982 0.0
C3082 C 0.9086 0.50128 0.36917 0.0
C3083 C 0.93673 0.49306 0.42295 0.0
C3084 C 0.92585 0.49662 0.40517 0.0
H3085 H 0.8579 0.4955 0.32674 0.0
H3086 H 0.8711 0.49609 0.3586 0.0
H3087 H 0.89381 0.47393 0.37567 0.0
H3088 H 0.96655 0.45866 0.44176 0.0
H3089 H 0.94314 0.4627 0.4162 0.0
C3090 C 0.77036 0.67069 0.551 0.0
C3091 C 0.76332 0.65142 0.54878 0.0
C3092 C 0.7719 0.6792 0.56906 0.0
C3093 C 0.75236 0.67476 0.6179 0.0
H3094 H 0.79384 0.71117 0.62999 0.0
C3095 C 0.75728 0.71445 0.69095 0.0
C3096 C 0.7607 0.73479 0.68984 0.0
C3097 C 0.75968 0.7024 0.67491 0.0
C3098 C 0.78212 0.70107 0.62683 0.0
H3099 H 0.75285 0.62579 0.56391 0.0
H3100 H 0.7558 0.64049 0.59537 0.0
H3101 H 0.79406 0.6938 0.5997 0.0
H3102 H 0.77017 0.75823 0.67116 0.0
H3103 H 0.77439 0.73741 0.64349 0.0
H3104 H 0.7403 0.68228 0.64497 0.0
C3105 C 0.75983 0.64919 0.58315 0.0
C3106 C 0.78221 0.69115 0.60941 0.0
C3107 C 0.75826 0.64071 0.56509 0.0
C3108 C 0.76731 0.74264 0.67256 0.0
C3109 C 0.76988 0.73065 0.65666 0.0
C3110 C 0.7523 0.68466 0.63536 0.0
C3111 C 0.76648 0.66863 0.58539 0.0
C3112 C 0.76715 0.67811 0.60455 0.0
C3113 C 0.7658 0.71043 0.6575 0.0
C3114 C 0.767 0.69822 0.63991 0.0
H3115 H 0.77432 0.67939 0.53874 0.0
H3116 H 0.77684 0.69428 0.57015 0.0
H3117 H 0.74039 0.66502 0.61461 0.0
H3118 H 0.75211 0.70796 0.704 0.0
H3119 H 0.75655 0.68685 0.67608 0.0
C3120 C 0.69649 0.59702 0.50493 0.0
C3121 C 0.70188 0.61279 0.49328 0.0
C3122 C 0.67747 0.59001 0.5049 0.0
C3123 C 0.63379 0.58454 0.50873 0.0
H3124 H 0.61132 0.57292 0.45955 0.0
C3125 C 0.55826 0.54817 0.50025 0.0
C3126 C 0.55923 0.53043 0.49006 0.0
C3127 C 0.57378 0.56151 0.49982 0.0
C3128 C 0.61733 0.57628 0.47337 0.0
H3129 H 0.69158 0.6346 0.47356 0.0
H3130 H 0.65824 0.62197 0.47302 0.0
H3131 H 0.64224 0.59042 0.46145 0.0
H3132 H 0.57657 0.51323 0.47063 0.0
H3133 H 0.60329 0.53677 0.46937 0.0
H3134 H 0.60893 0.57022 0.52064 0.0
C3135 C 0.66877 0.61489 0.48201 0.0
C3136 C 0.63501 0.58631 0.47447 0.0
C3137 C 0.68777 0.62211 0.48231 0.0
C3138 C 0.57544 0.52681 0.4786 0.0
C3139 C 0.5907 0.5403 0.47783 0.0
C3140 C 0.61593 0.57486 0.50764 0.0
C3141 C 0.66346 0.59865 0.4932 0.0
C3142 C 0.64367 0.5901 0.49214 0.0
C3143 C 0.59028 0.55752 0.48883 0.0
C3144 C 0.60774 0.57023 0.48995 0.0
H3145 H 0.70707 0.58998 0.5139 0.0
H3146 H 0.67387 0.57741 0.51358 0.0
H3147 H 0.64003 0.58742 0.52255 0.0
H3148 H 0.54603 0.55121 0.50937 0.0
H3149 H 0.57309 0.57471 0.50841 0.0
C3150 C 0.21118 0.93249 0.50543 0.0
C3151 C 0.213 0.91198 0.50386 0.0
C3152 C 0.19298 0.94107 0.50728 0.0
C3153 C 0.1432 0.93482 0.494 0.0
H3154 H 0.13029 0.96858 0.53657 0.0
C3155 C 0.07262 0.98013 0.49836 0.0
C3156 C 0.06121 0.97481 0.51404 0.0
C3157 C 0.09193 0.97421 0.49728 0.0
C3158 C 0.13381 0.95929 0.52456 0.0
H3159 H 0.19719 0.8844 0.50297 0.0
H3160 H 0.16526 0.89955 0.50561 0.0
H3161 H 0.16263 0.95405 0.53448 0.0
H3162 H 0.06118 0.96007 0.54124 0.0
H3163 H 0.09513 0.95041 0.53963 0.0
H3164 H 0.11449 0.94024 0.48395 0.0
C3165 C 0.178 0.90887 0.50565 0.0
C3166 C 0.15222 0.95102 0.52337 0.0
C3167 C 0.19624 0.90023 0.50426 0.0
C3168 C 0.06967 0.96433 0.52899 0.0
C3169 C 0.08906 0.95886 0.52811 0.0
C3170 C 0.12495 0.94345 0.49497 0.0
C3171 C 0.17625 0.92935 0.50715 0.0
C3172 C 0.15696 0.93853 0.5082 0.0
C3173 C 0.10021 0.96335 0.51207 0.0
C3174 C 0.12004 0.95558 0.51035 0.0
H3175 H 0.22383 0.94193 0.50523 0.0
H3176 H 0.19194 0.95691 0.50837 0.0
H3177 H 0.14661 0.92532 0.48213 0.0
H3178 H 0.0664 0.98807 0.48658 0.0
H3179 H 0.10031 0.97785 0.48478 0.0
C3180 C 0.38146 0.93246 0.76895 0.0
C3181 C 0.37684 0.9463 0.75507 0.0
C3182 C 0.37424 0.91327 0.76756 0.0
C3183 C 0.33434 0.88668 0.7427 0.0
H3184 H 0.35255 0.84307 0.77293 0.0
C3185 C 0.28193 0.82999 0.76872 0.0
C3186 C 0.28518 0.81048 0.76299 0.0
C3187 C 0.29663 0.84392 0.76766 0.0
C3188 C 0.34746 0.85511 0.7643 0.0
H3189 H 0.36369 0.95074 0.72765 0.0
H3190 H 0.35252 0.91707 0.72426 0.0
H3191 H 0.37324 0.87204 0.76863 0.0
H3192 H 0.30713 0.78987 0.75387 0.0
H3193 H 0.33299 0.81464 0.75171 0.0
H3194 H 0.30857 0.8699 0.73857 0.0
C3195 C 0.36021 0.92104 0.73706 0.0
C3196 C 0.35917 0.87182 0.76198 0.0
C3197 C 0.36672 0.94036 0.73887 0.0
C3198 C 0.30404 0.80486 0.75791 0.0
C3199 C 0.31886 0.81896 0.75679 0.0
C3200 C 0.32275 0.87015 0.74507 0.0
C3201 C 0.36301 0.90741 0.75181 0.0
C3202 C 0.35244 0.88819 0.75172 0.0
C3203 C 0.31495 0.83873 0.7609 0.0
C3204 C 0.32888 0.85455 0.75642 0.0
H3205 H 0.38971 0.93678 0.78135 0.0
H3206 H 0.37669 0.90346 0.77934 0.0
H3207 H 0.32838 0.89866 0.73464 0.0
H3208 H 0.26775 0.83479 0.7732 0.0
H3209 H 0.29342 0.85903 0.77132 0.0
C3210 C 0.31878 0.10518 0.00032 0.0
C3211 C 0.30397 0.09305 0.99312 0.0
C3212 C 0.33802 0.09887 0.00014 0.0
C3213 C 0.36749 0.05382 0.99758 0.0
H3214 H 0.4092 0.08993 0.98548 0.0
C3215 C 0.4457 0.02747 0.0002 0.0
C3216 C 0.4578 0.03963 0.01106 0.0
C3217 C 0.42811 0.0346 0.99334 0.0
C3218 C 0.39771 0.07966 0.98888 0.0
H3219 H 0.29793 0.06464 0.98019 0.0
H3220 H 0.33125 0.05385 0.9798 0.0
H3221 H 0.37576 0.10117 0.98412 0.0
H3222 H 0.46167 0.06883 0.02264 0.0
H3223 H 0.43115 0.08135 0.01071 0.0
H3224 H 0.3893 0.03246 0.00283 0.0
C3225 C 0.32803 0.06815 0.98575 0.0
C3226 C 0.37856 0.08614 0.9882 0.0
C3227 C 0.30887 0.07442 0.98592 0.0
C3228 C 0.45271 0.05932 0.01392 0.0
C3229 C 0.43519 0.06647 0.00708 0.0
C3230 C 0.38659 0.04737 0.99827 0.0
C3231 C 0.34287 0.08028 0.9928 0.0
C3232 C 0.36323 0.07335 0.99278 0.0
C3233 C 0.42227 0.05394 0.99745 0.0
C3234 C 0.40198 0.06026 0.99418 0.0
H3235 H 0.31558 0.11961 0.00595 0.0
H3236 H 0.34907 0.10848 0.00593 0.0
H3237 H 0.35608 0.04363 0.00145 0.0
H3238 H 0.44901 0.01206 0.99836 0.0
H3239 H 0.4186 0.02463 0.98575 0.0
C3240 C 0.63608 0.57115 0.75809 0.0
C3241 C 0.64346 0.55421 0.74942 0.0
C3242 C 0.6447 0.58951 0.75484 0.0
C3243 C 0.69047 0.61223 0.73853 0.0
H3244 H 0.65976 0.65961 0.73649 0.0
C3245 C 0.70303 0.69828 0.7557 0.0
C3246 C 0.72217 0.69985 0.74933 0.0
C3247 C 0.69149 0.68228 0.75026 0.0
C3248 C 0.66859 0.64655 0.73708 0.0
H3249 H 0.66439 0.54326 0.72927 0.0
H3250 H 0.67954 0.57524 0.72355 0.0
H3251 H 0.64375 0.62766 0.7388 0.0
H3252 H 0.74384 0.6869 0.73123 0.0
H3253 H 0.72342 0.65961 0.72071 0.0
H3254 H 0.71529 0.63092 0.73759 0.0
C3255 C 0.66756 0.57437 0.7334 0.0
C3256 C 0.65939 0.6282 0.73846 0.0
C3257 C 0.65898 0.55603 0.73673 0.0
C3258 C 0.72894 0.68633 0.73589 0.0
C3259 C 0.71735 0.67041 0.73027 0.0
C3260 C 0.69966 0.63053 0.7373 0.0
C3261 C 0.66062 0.59136 0.74251 0.0
C3262 C 0.67023 0.61081 0.73957 0.0
C3263 C 0.69893 0.66748 0.73836 0.0
C3264 C 0.68888 0.64801 0.73688 0.0
H3265 H 0.62383 0.57013 0.76762 0.0
H3266 H 0.63906 0.60219 0.76226 0.0
H3267 H 0.69933 0.59923 0.7394 0.0
H3268 H 0.69768 0.70825 0.76648 0.0
H3269 H 0.67747 0.68062 0.75689 0.0
C3270 C 0.82535 0.37037 0.99139 0.0
C3271 C 0.81314 0.38218 0.00238 0.0
C3272 C 0.8451 0.37466 0.99032 0.0
C3273 C 0.88102 0.39802 0.97935 0.0
H3274 H 0.90925 0.42028 0.02183 0.0
C3275 C 0.93364 0.46226 0.97413 0.0
C3276 C 0.94955 0.46339 0.98642 0.0
C3277 C 0.9212 0.4461 0.97468 0.0
C3278 C 0.90178 0.41373 0.00986 0.0
H3279 H 0.81186 0.40615 0.02252 0.0
H3280 H 0.84625 0.41397 0.0205 0.0
H3281 H 0.87882 0.40307 0.02744 0.0
H3282 H 0.9656 0.44806 0.00812 0.0
H3283 H 0.94366 0.41976 0.00924 0.0
H3284 H 0.90351 0.40966 0.96169 0.0
C3285 C 0.84075 0.40152 0.01253 0.0
C3286 C 0.88424 0.40408 0.01306 0.0
C3287 C 0.82103 0.39732 0.01345 0.0
C3288 C 0.95356 0.44744 0.99835 0.0
C3289 C 0.94094 0.43135 -0.0009 0.0
C3290 C 0.89845 0.40788 0.97613 0.0
C3291 C 0.85294 0.39052 0.00062 0.0
C3292 C 0.87327 0.39688 0.99776 0.0
C3293 C 0.92429 0.43087 0.98771 0.0
C3294 C 0.90861 0.41648 0.99129 0.0
H3295 H 0.81951 0.35824 0.98319 0.0
H3296 H 0.85416 0.36576 0.98123 0.0
H3297 H 0.87303 0.39246 0.96727 0.0
H3298 H 0.93026 0.47435 0.96477 0.0
H3299 H 0.90838 0.44625 0.96588 0.0
C3300 C 0.33296 0.05022 0.74314 0.0
C3301 C 0.35263 0.04803 0.74758 0.0
C3302 C 0.32517 0.06884 0.74026 0.0
C3303 C 0.33047 0.11911 0.7554 0.0
H3304 H 0.29922 0.13236 0.71164 0.0
C3305 C 0.28258 0.18813 0.75272 0.0
C3306 C 0.28668 0.20064 0.73744 0.0
C3307 C 0.28983 0.16901 0.753 0.0
C3308 C 0.30789 0.1288 0.72393 0.0
H3309 H 0.37962 0.06362 0.75223 0.0
H3310 H 0.36578 0.09636 0.74771 0.0
H3311 H 0.31457 0.1 0.71342 0.0
H3312 H 0.30081 0.20278 0.71008 0.0
H3313 H 0.31296 0.16907 0.71028 0.0
H3314 H 0.32347 0.14769 0.76612 0.0
C3315 C 0.35653 0.08355 0.74627 0.0
C3316 C 0.31663 0.11036 0.72495 0.0
C3317 C 0.36444 0.06486 0.74875 0.0
C3318 C 0.29741 0.1934 0.72202 0.0
C3319 C 0.30432 0.17416 0.72212 0.0
C3320 C 0.32142 0.13737 0.75456 0.0
C3321 C 0.33679 0.08568 0.74213 0.0
C3322 C 0.32805 0.1054 0.74066 0.0
C3323 C 0.30099 0.16197 0.73781 0.0
C3324 C 0.31008 0.14238 0.73881 0.0
H3325 H 0.3235 0.03753 0.74207 0.0
H3326 H 0.30989 0.07012 0.73719 0.0
H3327 H 0.33907 0.11554 0.76773 0.0
H3328 H 0.27464 0.19346 0.76489 0.0
H3329 H 0.28703 0.15984 0.76524 0.0
C3330 C 0.16633 0.94313 0.26845 0.0
C3331 C 0.14962 0.94964 0.25903 0.0
C3332 C 0.17075 0.92319 0.26936 0.0
C3333 C 0.16322 0.87623 0.245 0.0
H3334 H 0.18571 0.85512 0.29095 0.0
C3335 C 0.19818 0.80052 0.24316 0.0
C3336 C 0.21713 0.80082 0.25017 0.0
C3337 C 0.18522 0.8154 0.24814 0.0
C3338 C 0.17942 0.86074 0.27801 0.0
H3339 H 0.12452 0.93996 0.24305 0.0
H3340 H 0.13248 0.90495 0.24444 0.0
H3341 H 0.17231 0.88819 0.2911 0.0
H3342 H 0.23713 0.81597 0.2687 0.0
H3343 H 0.21468 0.84177 0.27761 0.0
H3344 H 0.17111 0.84922 0.23163 0.0
C3345 C 0.14207 0.91547 0.25117 0.0
C3346 C 0.17176 0.87972 0.27809 0.0
C3347 C 0.13752 0.93554 0.25038 0.0
C3348 C 0.2224 0.81513 0.26356 0.0
C3349 C 0.2095 0.83002 0.26853 0.0
C3350 C 0.17095 0.85727 0.24489 0.0
C3351 C 0.15869 0.90908 0.2608 0.0
C3352 C 0.16411 0.88792 0.26143 0.0
C3353 C 0.19112 0.83098 0.26003 0.0
C3354 C 0.17968 0.84948 0.26125 0.0
H3355 H 0.17606 0.95344 0.2753 0.0
H3356 H 0.18387 0.91886 0.27654 0.0
H3357 H 0.15756 0.88213 0.23189 0.0
H3358 H 0.19395 0.78983 0.23251 0.0
H3359 H 0.17106 0.81545 0.24162 0.0
C3360 C 0.49502 0.3081 0.40456 0.0
C3361 C 0.50172 0.30855 0.38572 0.0
C3362 C 0.49272 0.32552 0.41494 0.0
C3363 C 0.48904 0.38001 0.40909 0.0
H3364 H 0.50187 0.38059 0.46256 0.0
C3365 C 0.50878 0.4495 0.45258 0.0
C3366 C 0.50453 0.44972 0.47203 0.0
C3367 C 0.50329 0.43348 0.44126 0.0
C3368 C 0.49783 0.38065 0.44772 0.0
H3369 H 0.5116 0.32785 0.36323 0.0
H3370 H 0.50824 0.35801 0.38147 0.0
H3371 H 0.50393 0.35005 0.4448 0.0
H3372 H 0.49015 0.43416 0.49473 0.0
H3373 H 0.48018 0.40628 0.47497 0.0
H3374 H 0.48373 0.41091 0.412 0.0
C3375 C 0.50422 0.34426 0.3881 0.0
C3376 C 0.49905 0.36306 0.43748 0.0
C3377 C 0.50636 0.32688 0.37768 0.0
C3378 C 0.49322 0.43452 0.47966 0.0
C3379 C 0.48782 0.41842 0.4684 0.0
C3380 C 0.48797 0.39766 0.41933 0.0
C3381 C 0.49722 0.34388 0.40685 0.0
C3382 C 0.49491 0.3625 0.41795 0.0
C3383 C 0.49372 0.41722 0.44932 0.0
C3384 C 0.49253 0.39823 0.43874 0.0
H3385 H 0.49108 0.29432 0.41118 0.0
H3386 H 0.48705 0.32457 0.42923 0.0
H3387 H 0.48533 0.38013 0.39418 0.0
H3388 H 0.51796 0.4608 0.44651 0.0
H3389 H 0.50816 0.43304 0.42667 0.0
C3390 C 0.42472 0.75294 0.15051 0.0
C3391 C 0.44372 0.74968 0.15671 0.0
C3392 C 0.40967 0.7548 0.16356 0.0
C3393 C 0.39394 0.74136 0.21112 0.0
H3394 H 0.35783 0.78406 0.20422 0.0
C3395 C 0.3189 0.77771 0.24288 0.0
C3396 C 0.30682 0.76108 0.24237 0.0
C3397 C 0.33823 0.77633 0.23744 0.0
C3398 C 0.36793 0.77222 0.2066 0.0
H3399 H 0.46173 0.74552 0.18156 0.0
H3400 H 0.43522 0.74855 0.20438 0.0
H3401 H 0.38621 0.78194 0.18399 0.0
H3402 H 0.30573 0.72978 0.23707 0.0
H3403 H 0.33957 0.72727 0.22763 0.0
H3404 H 0.37519 0.73134 0.23342 0.0
C3405 C 0.43212 0.74976 0.18938 0.0
C3406 C 0.38406 0.7709 0.19484 0.0
C3407 C 0.44728 0.74816 0.17631 0.0
C3408 C 0.31484 0.74271 0.23804 0.0
C3409 C 0.33421 0.74133 0.23248 0.0
C3410 C 0.3776 0.74256 0.22282 0.0
C3411 C 0.41321 0.75322 0.18311 0.0
C3412 C 0.39706 0.75531 0.19676 0.0
C3413 C 0.34579 0.75833 0.23117 0.0
C3414 C 0.36431 0.75792 0.22053 0.0
H3415 H 0.42145 0.75416 0.13554 0.0
H3416 H 0.39518 0.75726 0.15833 0.0
H3417 H 0.40373 0.72915 0.21284 0.0
H3418 H 0.31304 0.79204 0.2462 0.0
H3419 H 0.34691 0.78961 0.23694 0.0
C3420 C 0.00122 0.70321 0.92786 0.0
C3421 C 0.00096 0.7062 0.90817 0.0
C3422 C 0.00383 0.68446 0.93535 0.0
C3423 C 0.01672 0.63242 0.92235 0.0
H3424 H 0.98962 0.62156 0.96932 0.0
C3425 C 0.99033 0.55659 0.95061 0.0
C3426 C 0.99182 0.55342 0.9702 0.0
C3427 C 0.99723 0.57406 0.94259 0.0
C3428 C 0.99756 0.62443 0.95637 0.0
H3429 H 0.00335 0.69181 0.88085 0.0
H3430 H 0.00666 0.6588 0.89383 0.0
H3431 H 0.98874 0.6543 0.95614 0.0
H3432 H 0.00247 0.56531 0.99668 0.0
H3433 H 0.01445 0.59598 0.98275 0.0
H3434 H 0.02418 0.60178 0.92218 0.0
C3435 C 0.0056 0.67103 0.9036 0.0
C3436 C 0.99714 0.64332 0.94876 0.0
C3437 C 0.00353 0.68996 0.8961 0.0
C3438 C 0.00159 0.56726 0.98146 0.0
C3439 C 0.00824 0.58487 0.97352 0.0
C3440 C 0.01674 0.61333 0.9298 0.0
C3441 C 0.00562 0.66795 0.92338 0.0
C3442 C 0.00669 0.64769 0.93161 0.0
C3443 C 0.00527 0.58882 0.95418 0.0
C3444 C 0.00715 0.60918 0.9469 0.0
H3445 H -0.00043 0.71543 0.93757 0.0
H3446 H 0.0044 0.683 0.95061 0.0
H3447 H 0.02452 0.63514 0.90931 0.0
H3448 H 0.9824 0.5463 0.94176 0.0
H3449 H 0.99461 0.57678 0.92769 0.0
C3450 C 0.06176 0.26682 0.66551 0.0
C3451 C 0.05735 0.2607 0.64698 0.0
C3452 C 0.08083 0.26654 0.67197 0.0
C3453 C 0.13218 0.26196 0.6579 0.0
H3454 H 0.1361 0.23453 0.70584 0.0
C3455 C 0.19024 0.22428 0.71319 0.0
C3456 C 0.2028 0.24021 0.71623 0.0
C3457 C 0.17468 0.22604 0.70076 0.0
C3458 C 0.1353 0.24198 0.69232 0.0
H3459 H 0.06958 0.25106 0.62019 0.0
H3460 H 0.10285 0.25059 0.63151 0.0
H3461 H 0.10447 0.24165 0.69284 0.0
H3462 H 0.20956 0.27009 0.70812 0.0
H3463 H 0.18259 0.27311 0.6861 0.0
H3464 H 0.16323 0.26224 0.65756 0.0
C3465 C 0.0916 0.25555 0.64104 0.0
C3466 C 0.11715 0.24638 0.68504 0.0
C3467 C 0.07252 0.25575 0.6346 0.0
C3468 C 0.20054 0.25734 0.70545 0.0
C3469 C 0.18492 0.25914 0.69302 0.0
C3470 C 0.15046 0.25769 0.66532 0.0
C3471 C 0.09584 0.26021 0.65999 0.0
C3472 C 0.11536 0.25645 0.6678 0.0
C3473 C 0.17126 0.24388 0.69138 0.0
C3474 C 0.15217 0.24756 0.68257 0.0
H3475 H 0.05041 0.27082 0.67534 0.0
H3476 H 0.08375 0.27054 0.68657 0.0
H3477 H 0.1312 0.26973 0.64456 0.0
H3478 H 0.19162 0.211 0.72151 0.0
H3479 H 0.16456 0.21391 0.69951 0.0
C3480 C 0.51079 0.69434 0.10076 0.0
C3481 C 0.50014 0.69631 0.11752 0.0
C3482 C 0.51381 0.67588 0.09285 0.0
C3483 C 0.51157 0.62225 0.10252 0.0
H3484 H 0.5107 0.62025 0.04758 0.0
C3485 C 0.50693 0.55323 0.05215 0.0
C3486 C 0.51846 0.55478 0.03581 0.0
C3487 C 0.50698 0.5684 0.06563 0.0
C3488 C 0.51116 0.6206 0.06294 0.0
H3489 H 0.48528 0.6808 0.13997 0.0
H3490 H 0.48968 0.64821 0.12559 0.0
H3491 H 0.50504 0.65109 0.06356 0.0
H3492 H 0.54068 0.57187 0.02172 0.0
H3493 H 0.54103 0.59808 0.04533 0.0
H3494 H 0.51737 0.59122 0.10146 0.0
C3495 C 0.49589 0.66091 0.11863 0.0
C3496 C 0.5079 0.63831 0.07215 0.0
C3497 C 0.49319 0.6795 0.12676 0.0
C3498 C 0.53154 0.57048 0.03414 0.0
C3499 C 0.53171 0.58546 0.0476 0.0
C3500 C 0.51468 0.6043 0.0932 0.0
C3501 C 0.50607 0.65894 0.10143 0.0
C3502 C 0.5084 0.63952 0.09204 0.0
C3503 C 0.51863 0.58511 0.06282 0.0
C3504 C 0.51489 0.6035 0.07331 0.0
H3505 H 0.51687 0.70713 0.09379 0.0
H3506 H 0.52228 0.67495 0.07997 0.0
H3507 H 0.51214 0.62266 0.11786 0.0
H3508 H 0.49661 0.54131 0.0536 0.0
H3509 H 0.49675 0.56786 0.07725 0.0
C3510 C 0.07594 0.75124 0.86859 0.0
C3511 C 0.06011 0.74715 0.85673 0.0
C3512 C 0.09485 0.74874 0.86203 0.0
C3513 C 0.1244 0.72651 0.82339 0.0
H3514 H 0.1585 0.77059 0.83372 0.0
C3515 C 0.18817 0.74927 0.77563 0.0
C3516 C 0.20325 0.76041 0.78353 0.0
C3517 C 0.17329 0.74207 0.78715 0.0
C3518 C 0.14946 0.75785 0.83103 0.0
H3519 H 0.05172 0.73655 0.82888 0.0
H3520 H 0.08468 0.73248 0.81733 0.0
H3521 H 0.12714 0.76908 0.84888 0.0
H3522 H 0.21565 0.77156 0.80955 0.0
H3523 H 0.19021 0.75822 0.82992 0.0
H3524 H 0.14663 0.71565 0.80501 0.0
C3525 C 0.08251 0.73739 0.83179 0.0
C3526 C 0.13135 0.75704 0.83973 0.0
C3527 C 0.0636 0.73988 0.83837 0.0
C3528 C 0.20425 0.76274 0.80324 0.0
C3529 C 0.18951 0.75536 0.81481 0.0
C3530 C 0.14261 0.7273 0.8147 0.0
C3531 C 0.09838 0.74211 0.84344 0.0
C3532 C 0.11842 0.74159 0.83573 0.0
C3533 C 0.17325 0.74599 0.80678 0.0
C3534 C 0.15522 0.74321 0.81811 0.0
H3535 H 0.07376 0.75671 0.88287 0.0
H3536 H 0.10672 0.75225 0.87147 0.0
H3537 H 0.11489 0.71425 0.82022 0.0
H3538 H 0.18699 0.74765 0.76038 0.0
H3539 H 0.16103 0.735 0.7804 0.0
C3540 C 0.993 0.30941 0.60677 0.0
C3541 C 0.98784 0.2925 0.59646 0.0
C3542 C 0.99291 0.32786 0.59817 0.0
C3543 C 0.97507 0.35488 0.55571 0.0
H3544 H 0.01326 0.39307 0.57242 0.0
C3545 C 0.98925 0.43293 0.52241 0.0
C3546 C 0.9878 0.44812 0.53592 0.0
C3547 C 0.98903 0.4132 0.52815 0.0
C3548 C 0.00256 0.38251 0.56759 0.0
H3549 H 0.97848 0.28175 0.56895 0.0
H3550 H 0.97898 0.31385 0.55374 0.0
H3551 H 0.01367 0.36002 0.58545 0.0
H3552 H 0.98494 0.45439 0.56604 0.0
H3553 H 0.98502 0.42022 0.57588 0.0
H3554 H 0.96434 0.37763 0.53752 0.0
C3555 C 0.98264 0.31296 0.56863 0.0
C3556 C 0.00264 0.3636 0.57518 0.0
C3557 C 0.98243 0.29451 0.57734 0.0
C3558 C 0.98598 0.44314 0.5552 0.0
C3559 C 0.98613 0.42356 0.5609 0.0
C3560 C 0.97522 0.37377 0.54787 0.0
C3561 C 0.98801 0.3299 0.5789 0.0
C3562 C 0.98863 0.34963 0.56969 0.0
C3563 C 0.98779 0.40843 0.54749 0.0
C3564 C 0.98873 0.38783 0.55405 0.0
H3565 H 0.99702 0.30843 0.62158 0.0
H3566 H 0.9966 0.34055 0.60675 0.0
H3567 H 0.96394 0.34464 0.55123 0.0
H3568 H 0.99069 0.43626 0.50747 0.0
H3569 H 0.99035 0.40172 0.51757 0.0
C3570 C 0.43952 0.26399 0.35014 0.0
C3571 C 0.45469 0.25179 0.34449 0.0
C3572 C 0.42272 0.26512 0.3392 0.0
C3573 C 0.40281 0.25054 0.29139 0.0
H3574 H 0.35403 0.26264 0.31565 0.0
C3575 C 0.3174 0.26468 0.27175 0.0
C3576 C 0.31188 0.24589 0.26541 0.0
C3577 C 0.33612 0.26804 0.27856 0.0
C3578 C 0.36762 0.25955 0.30865 0.0
H3579 H 0.46378 0.22981 0.32424 0.0
H3580 H 0.43411 0.2307 0.30574 0.0
H3581 H 0.38333 0.2619 0.33453 0.0
H3582 H 0.32183 0.21635 0.25979 0.0
H3583 H 0.35483 0.22247 0.27089 0.0
H3584 H 0.38644 0.24681 0.26575 0.0
C3585 C 0.43541 0.24046 0.31782 0.0
C3586 C 0.38453 0.25918 0.31945 0.0
C3587 C 0.4524 0.23977 0.32849 0.0
C3588 C 0.32581 0.23101 0.26445 0.0
C3589 C 0.34464 0.23449 0.27081 0.0
C3590 C 0.38578 0.25047 0.28069 0.0
C3591 C 0.4204 0.25342 0.32278 0.0
C3592 C 0.40242 0.25454 0.31105 0.0
C3593 C 0.3497 0.25278 0.27868 0.0
C3594 C 0.36805 0.25489 0.28926 0.0
H3595 H 0.44096 0.27316 0.36265 0.0
H3596 H 0.41178 0.27552 0.34347 0.0
H3597 H 0.41621 0.24733 0.28417 0.0
H3598 H 0.30682 0.27628 0.273 0.0
H3599 H 0.33972 0.28225 0.28459 0.0
C3600 C 0.42019 0.50706 0.29942 0.0
C3601 C 0.40019 0.50403 0.30181 0.0
C3602 C 0.43253 0.50798 0.31513 0.0
C3603 C 0.43582 0.49282 0.36522 0.0
H3604 H 0.4751 0.53348 0.36919 0.0
C3605 C 0.47881 0.53339 0.42848 0.0
C3606 C 0.4839 0.51718 0.43968 0.0
C3607 C 0.47274 0.53077 0.40976 0.0
C3608 C 0.46428 0.52196 0.36823 0.0
H3609 H 0.37756 0.49988 0.32278 0.0
H3610 H 0.39905 0.50152 0.35007 0.0
H3611 H 0.45515 0.53126 0.34065 0.0
H3612 H 0.48788 0.48565 0.4396 0.0
H3613 H 0.47731 0.48103 0.40676 0.0
H3614 H 0.44447 0.4839 0.393 0.0
C3615 C 0.4052 0.50298 0.33601 0.0
C3616 C 0.45292 0.52063 0.35185 0.0
C3617 C 0.39285 0.50221 0.32034 0.0
C3618 C 0.48419 0.49843 0.43129 0.0
C3619 C 0.47791 0.49577 0.41256 0.0
C3620 C 0.44726 0.49406 0.38152 0.0
C3621 C 0.4252 0.50574 0.33359 0.0
C3622 C 0.43828 0.50629 0.35033 0.0
C3623 C 0.47146 0.51185 0.40182 0.0
C3624 C 0.46137 0.50888 0.38339 0.0
H3625 H 0.4264 0.50853 0.28539 0.0
H3626 H 0.44787 0.51004 0.31278 0.0
H3627 H 0.42486 0.48143 0.36437 0.0
H3628 H 0.47847 0.54803 0.43454 0.0
H3629 H 0.4678 0.54346 0.40196 0.0
C3630 C 0.25206 0.62995 0.07146 0.0
C3631 C 0.25843 0.64173 0.05633 0.0
C3632 C 0.25293 0.63697 0.0901 0.0
C3633 C 0.27361 0.67711 0.11993 0.0
H3634 H 0.22629 0.67109 0.14896 0.0
C3635 C 0.2492 0.73364 0.17402 0.0
C3636 C 0.24486 0.72715 0.19246 0.0
C3637 C 0.25182 0.72024 0.15933 0.0
C3638 C 0.2397 0.67259 0.14115 0.0
H3639 H 0.27152 0.66968 0.0489 0.0
H3640 H 0.27275 0.68203 0.0812 0.0
H3641 H 0.23053 0.65245 0.11956 0.0
H3642 H 0.23896 0.70138 0.20967 0.0
H3643 H 0.24306 0.67786 0.18354 0.0
H3644 H 0.2822 0.69814 0.14096 0.0
C3645 C 0.26733 0.66728 0.07883 0.0
C3646 C 0.2422 0.6619 0.12436 0.0
C3647 C 0.26651 0.66025 0.06025 0.0
C3648 C 0.24228 0.70689 0.19563 0.0
C3649 C 0.24467 0.69342 0.18076 0.0
C3650 C 0.27101 0.68792 0.13655 0.0
C3651 C 0.26018 0.6559 0.09394 0.0
C3652 C 0.25893 0.66454 0.11326 0.0
C3653 C 0.24994 0.70003 0.16263 0.0
C3654 C 0.2538 0.68619 0.14696 0.0
H3655 H 0.24585 0.61556 0.06888 0.0
H3656 H 0.24756 0.62775 0.10144 0.0
H3657 H 0.28685 0.67914 0.11196 0.0
H3658 H 0.25122 0.7491 0.17096 0.0
H3659 H 0.25553 0.72567 0.14536 0.0
C3660 C 0.10471 0.51493 0.82002 0.0
C3661 C 0.09978 0.50708 0.80216 0.0
C3662 C 0.09234 0.51285 0.83548 0.0
C3663 C 0.05633 0.48132 0.8564 0.0
H3664 H 0.04654 0.52659 0.88851 0.0
C3665 C 0.04164 0.47685 0.93664 0.0
C3666 C 0.02833 0.48984 0.94491 0.0
C3667 C 0.04593 0.47791 0.91731 0.0
C3668 C 0.04883 0.51384 0.87958 0.0
H3669 H 0.07794 0.49054 0.78676 0.0
H3670 H 0.05643 0.48637 0.81424 0.0
H3671 H 0.06239 0.53103 0.85788 0.0
H3672 H 0.00853 0.51368 0.93917 0.0
H3673 H 0.01629 0.51571 0.90537 0.0
H3674 H 0.04356 0.46402 0.87855 0.0
C3675 C 0.06986 0.49442 0.81596 0.0
C3676 C 0.05802 0.51637 0.86211 0.0
C3677 C 0.08215 0.49683 0.80027 0.0
C3678 C 0.01885 0.50345 0.93324 0.0
C3679 C 0.02334 0.50467 0.91391 0.0
C3680 C 0.04733 0.47874 0.87403 0.0
C3681 C 0.07481 0.50258 0.83366 0.0
C3682 C 0.0623 0.5001 0.85057 0.0
C3683 C 0.03717 0.49211 0.90581 0.0
C3684 C 0.04391 0.49494 0.88599 0.0
H3685 H 0.11815 0.52285 0.82214 0.0
H3686 H 0.09667 0.51902 0.84902 0.0
H3687 H 0.05954 0.46853 0.84781 0.0
H3688 H 0.04912 0.46612 0.9452 0.0
H3689 H 0.05679 0.46817 0.91155 0.0
C3690 C 0.24432 0.35867 0.57684 0.0
C3691 C 0.24014 0.34778 0.56037 0.0
C3692 C 0.24136 0.35056 0.59478 0.0
C3693 C 0.23884 0.30282 0.61881 0.0
H3694 H 0.22447 0.33499 0.66201 0.0
C3695 C 0.24727 0.27297 0.69409 0.0
C3696 C 0.25834 0.2855 0.70563 0.0
C3697 C 0.23853 0.28015 0.67763 0.0
C3698 C 0.22841 0.32578 0.65009 0.0
H3699 H 0.22902 0.31999 0.54983 0.0
H3700 H 0.22376 0.30578 0.58126 0.0
H3701 H 0.22178 0.34827 0.63001 0.0
H3702 H 0.2684 0.31531 0.70969 0.0
H3703 H 0.253 0.32802 0.68122 0.0
H3704 H 0.24616 0.2806 0.63886 0.0
C3705 C 0.22953 0.32057 0.58026 0.0
C3706 C 0.22694 0.3334 0.63175 0.0
C3707 C 0.23248 0.32872 0.56226 0.0
C3708 C 0.25952 0.30551 0.70121 0.0
C3709 C 0.2507 0.31274 0.68486 0.0
C3710 C 0.24027 0.29519 0.63713 0.0
C3711 C 0.23413 0.33133 0.59675 0.0
C3712 C 0.23274 0.32224 0.61592 0.0
C3713 C 0.24083 0.29997 0.67242 0.0
C3714 C 0.23565 0.30678 0.65304 0.0
H3715 H 0.25023 0.37341 0.57591 0.0
H3716 H 0.24539 0.35917 0.60711 0.0
H3717 H 0.24361 0.29386 0.60701 0.0
H3718 H 0.24662 0.25736 0.69698 0.0
H3719 H 0.23086 0.26998 0.66845 0.0
C3720 C 0.42139 0.51376 0.18932 0.0
C3721 C 0.402 0.50832 0.19219 0.0
C3722 C 0.42865 0.5164 0.17098 0.0
C3723 C 0.41901 0.50148 0.12145 0.0
H3724 H 0.46052 0.53828 0.1106 0.0
C3725 C 0.45803 0.49781 0.05021 0.0
C3726 C 0.478 0.49561 0.05248 0.0
C3727 C 0.44683 0.50538 0.06505 0.0
C3728 C 0.44885 0.52801 0.11338 0.0
H3729 H 0.37482 0.5021 0.17807 0.0
H3730 H 0.38737 0.50705 0.14609 0.0
H3731 H 0.44422 0.53946 0.14133 0.0
H3732 H 0.50223 0.50048 0.07125 0.0
H3733 H 0.48288 0.51396 0.09705 0.0
H3734 H 0.42397 0.48967 0.09377 0.0
C3735 C 0.39711 0.50889 0.15798 0.0
C3736 C 0.43958 0.52859 0.13103 0.0
C3737 C 0.38988 0.50612 0.17633 0.0
C3738 C 0.48686 0.50245 0.06911 0.0
C3739 C 0.47574 0.51013 0.08388 0.0
C3740 C 0.42819 0.50098 0.1038 0.0
C3741 C 0.41667 0.5138 0.15504 0.0
C3742 C 0.42489 0.51496 0.13549 0.0
C3743 C 0.45548 0.51074 0.0824 0.0
C3744 C 0.44357 0.51388 0.09972 0.0
H3745 H 0.43112 0.51555 0.20123 0.0
H3746 H 0.44385 0.51986 0.16932 0.0
H3747 H 0.40797 0.49057 0.12439 0.0
H3748 H 0.4509 0.49222 0.0376 0.0
H3749 H 0.43128 0.50588 0.06339 0.0
C3750 C 0.25195 0.64325 0.9285 0.0
C3751 C 0.25115 0.64969 0.94745 0.0
C3752 C 0.25524 0.6566 0.91387 0.0
C3753 C 0.25099 0.70825 0.90059 0.0
H3754 H 0.28735 0.69342 0.86131 0.0
C3755 C 0.28637 0.73458 0.82421 0.0
C3756 C 0.26929 0.73841 0.8142 0.0
C3757 C 0.28561 0.72887 0.84317 0.0
C3758 C 0.2774 0.69803 0.8723 0.0
H3759 H 0.25289 0.67534 0.96578 0.0
H3760 H 0.25856 0.69866 0.94006 0.0
H3761 H 0.28322 0.67251 0.88885 0.0
H3762 H 0.23823 0.74101 0.81648 0.0
H3763 H 0.2368 0.73072 0.84959 0.0
H3764 H 0.2449 0.73364 0.88368 0.0
C3765 C 0.25666 0.68325 0.93665 0.0
C3766 C 0.27485 0.68587 0.88796 0.0
C3767 C 0.25354 0.66985 0.95136 0.0
C3768 C 0.25161 0.73833 0.82395 0.0
C3769 C 0.25081 0.73237 0.84292 0.0
C3770 C 0.25345 0.72042 0.88478 0.0
C3771 C 0.25767 0.67671 0.91778 0.0
C3772 C 0.26139 0.69064 0.90209 0.0
C3773 C 0.26773 0.72657 0.85238 0.0
C3774 C 0.26652 0.71529 0.87034 0.0
H3775 H 0.25011 0.62787 0.92494 0.0
H3776 H 0.25571 0.65118 0.89941 0.0
H3777 H 0.24046 0.71224 0.91128 0.0
H3778 H 0.30021 0.73473 0.81702 0.0
H3779 H 0.29894 0.72499 0.85023 0.0
C3780 C 0.12481 0.50098 0.67786 0.0
C3781 C 0.11074 0.49629 0.69154 0.0
C3782 C 0.12052 0.49991 0.65856 0.0
C3783 C 0.08517 0.48131 0.62329 0.0
H3784 H 0.0988 0.52881 0.59598 0.0
C3785 C 0.05602 0.49468 0.54847 0.0
C3786 C 0.04522 0.51208 0.548 0.0
C3787 C 0.06946 0.49162 0.56298 0.0
C3788 C 0.09511 0.51535 0.60333 0.0
H3789 H 0.08146 0.48574 0.69569 0.0
H3790 H 0.07385 0.48397 0.66184 0.0
H3791 H 0.11073 0.52402 0.62814 0.0
H3792 H 0.0412 0.54059 0.56102 0.0
H3793 H 0.06491 0.53552 0.58599 0.0
H3794 H 0.06875 0.47313 0.59875 0.0
C3795 C 0.08828 0.48837 0.66609 0.0
C3796 C 0.10201 0.51254 0.62172 0.0
C3797 C 0.09259 0.48945 0.68548 0.0
C3798 C 0.04945 0.52711 0.56103 0.0
C3799 C 0.06304 0.52418 0.57533 0.0
C3800 C 0.07838 0.48407 0.60482 0.0
C3801 C 0.10205 0.49412 0.65245 0.0
C3802 C 0.09668 0.49573 0.63211 0.0
C3803 C 0.07244 0.50603 0.57704 0.0
C3804 C 0.08283 0.50139 0.59485 0.0
H3805 H 0.13903 0.50611 0.68205 0.0
H3806 H 0.13154 0.5041 0.6484 0.0
H3807 H 0.081 0.46813 0.63086 0.0
H3808 H 0.05277 0.48272 0.5388 0.0
H3809 H 0.07664 0.47756 0.56387 0.0
C3810 C 0.24689 0.36921 0.43294 0.0
C3811 C 0.24581 0.35945 0.4505 0.0
C3812 C 0.24525 0.35879 0.41586 0.0
C3813 C 0.25101 0.30873 0.39617 0.0
H3814 H 0.22389 0.32962 0.35262 0.0
C3815 C 0.23895 0.2615 0.32982 0.0
C3816 C 0.24233 0.27015 0.31203 0.0
C3817 C 0.23779 0.27298 0.34621 0.0
C3818 C 0.23167 0.32367 0.3646 0.0
H3819 H 0.24166 0.33098 0.46368 0.0
H3820 H 0.23858 0.31289 0.43396 0.0
H3821 H 0.22477 0.34835 0.38229 0.0
H3822 H 0.24634 0.29788 0.29748 0.0
H3823 H 0.24443 0.31805 0.32627 0.0
H3824 H 0.25803 0.28416 0.37859 0.0
C3825 C 0.24102 0.3286 0.4334 0.0
C3826 C 0.23218 0.3344 0.38162 0.0
C3827 C 0.24267 0.33902 0.45048 0.0
C3828 C 0.24365 0.29075 0.31094 0.0
C3829 C 0.24256 0.3023 0.32745 0.0
C3830 C 0.2505 0.29804 0.37922 0.0
C3831 C 0.2425 0.33831 0.41585 0.0
C3832 C 0.24179 0.32701 0.39766 0.0
C3833 C 0.24008 0.29348 0.34535 0.0
C3834 C 0.24072 0.30528 0.36323 0.0
H3835 H 0.24935 0.38492 0.43232 0.0
H3836 H 0.24667 0.36673 0.40265 0.0
H3837 H 0.25894 0.30276 0.40804 0.0
H3838 H 0.2376 0.24571 0.3312 0.0
H3839 H 0.23536 0.26571 0.35965 0.0
C3840 C 0.31714 0.38036 0.49595 0.0
C3841 C 0.30256 0.38899 0.50692 0.0
C3842 C 0.33596 0.38804 0.49631 0.0
C3843 C 0.36888 0.41745 0.48989 0.0
H3844 H 0.39359 0.43502 0.53639 0.0
C3845 C 0.42431 0.47996 0.49321 0.0
C3846 C 0.44178 0.47698 0.50294 0.0
C3847 C 0.40951 0.46604 0.49391 0.0
C3848 C 0.38699 0.42992 0.52333 0.0
H3849 H 0.29634 0.41101 0.52821 0.0
H3850 H 0.32918 0.4245 0.52891 0.0
H3851 H 0.36323 0.41631 0.53791 0.0
H3852 H 0.45746 0.45686 0.52092 0.0
H3853 H 0.43094 0.43255 0.52273 0.0
H3854 H 0.39211 0.43188 0.4753 0.0
C3855 C 0.32613 0.41204 0.51978 0.0
C3856 C 0.36954 0.4194 0.52417 0.0
C3857 C 0.30729 0.40454 0.5192 0.0
C3858 C 0.44415 0.45956 0.51333 0.0
C3859 C 0.42902 0.44572 0.51439 0.0
C3860 C 0.38611 0.42823 0.48905 0.0
C3861 C 0.34061 0.4041 0.5081 0.0
C3862 C 0.36012 0.41337 0.50744 0.0
C3863 C 0.4116 0.44887 0.5046 0.0
C3864 C 0.39514 0.43488 0.50573 0.0
H3865 H 0.31386 0.36802 0.48675 0.0
H3866 H 0.34685 0.38147 0.48731 0.0
H3867 H 0.362 0.41307 0.47676 0.0
H3868 H 0.42206 0.49309 0.48487 0.0
H3869 H 0.39619 0.46891 0.48636 0.0
C3870 C 0.81076 0.09872 0.49553 0.0
C3871 C 0.79444 0.08658 0.49318 0.0
C3872 C 0.8293 0.09085 0.49459 0.0
C3873 C 0.85819 0.04795 0.50219 0.0
H3874 H 0.89307 0.07119 0.46541 0.0
C3875 C 0.93817 0.02303 0.4937 0.0
C3876 C 0.95169 0.03809 0.4902 0.0
C3877 C 0.9183 0.02694 0.49321 0.0
C3878 C 0.88363 0.06465 0.47592 0.0
H3879 H 0.78475 0.05657 0.48858 0.0
H3880 H 0.81741 0.04273 0.48748 0.0
H3881 H 0.85965 0.082 0.46689 0.0
H3882 H 0.95489 0.06919 0.48411 0.0
H3883 H 0.92073 0.07604 0.48387 0.0
H3884 H 0.88238 0.03128 0.51191 0.0
C3885 C 0.81568 0.05836 0.4898 0.0
C3886 C 0.86446 0.07078 0.47665 0.0
C3887 C 0.79707 0.0663 0.49035 0.0
C3888 C 0.94494 0.05712 0.48654 0.0
C3889 C 0.92523 0.06105 0.48627 0.0
C3890 C 0.87753 0.04202 0.50171 0.0
C3891 C 0.83192 0.07065 0.49164 0.0
C3892 C 0.85168 0.06274 0.48998 0.0
C3893 C 0.9116 0.04602 0.48937 0.0
C3894 C 0.89059 0.05062 0.48881 0.0
H3895 H 0.80924 0.1144 0.49766 0.0
H3896 H 0.84165 0.10058 0.49615 0.0
H3897 H 0.84852 0.04158 0.51262 0.0
H3898 H 0.94291 0.00821 0.4966 0.0
H3899 H 0.90821 0.01498 0.49558 0.0
C3900 C 0.61865 0.08037 0.25223 0.0
C3901 C 0.63121 0.06557 0.24609 0.0
C3902 C 0.62412 0.10012 0.25078 0.0
C3903 C 0.64545 0.13894 0.25729 0.0
H3904 H 0.67715 0.15537 0.21483 0.0
C3905 C 0.7015 0.20062 0.26267 0.0
C3906 C 0.70861 0.2093 0.24608 0.0
C3907 C 0.68645 0.18693 0.26173 0.0
C3908 C 0.66792 0.1514 0.22662 0.0
H3909 H 0.65828 0.05946 0.23201 0.0
H3910 H 0.6682 0.09374 0.22991 0.0
H3911 H 0.66157 0.12355 0.21406 0.0
H3912 H 0.7048 0.21221 0.21583 0.0
H3913 H 0.67759 0.1892 0.21416 0.0
H3914 H 0.65162 0.16696 0.26976 0.0
C3915 C 0.65419 0.09035 0.23596 0.0
C3916 C 0.65927 0.13287 0.22631 0.0
C3917 C 0.64872 0.0707 0.23746 0.0
C3918 C 0.69941 0.20561 0.22877 0.0
C3919 C 0.68403 0.19224 0.22785 0.0
C3920 C 0.65389 0.15766 0.25748 0.0
C3921 C 0.64205 0.10532 0.24274 0.0
C3922 C 0.64856 0.12612 0.24193 0.0
C3923 C 0.67813 0.18184 0.24414 0.0
C3924 C 0.66584 0.16386 0.24245 0.0
H3925 H 0.60479 0.07662 0.25843 0.0
H3926 H 0.61431 0.1113 0.25586 0.0
H3927 H 0.63728 0.1342 0.26957 0.0
H3928 H 0.70863 0.20322 0.27614 0.0
H3929 H 0.68254 0.17923 0.27459 0.0
C3930 C 0.68426 0.89408 0.01387 0.0
C3931 C 0.69894 0.90713 0.00805 0.0
C3932 C 0.66543 0.9008 0.01697 0.0
C3933 C 0.63676 0.94574 0.0257 0.0
H3934 H 0.59578 0.91744 -0.00019 0.0
C3935 C 0.5676 0.9822 -0.0006 0.0
C3936 C 0.55096 0.97083 0.99635 0.0
C3937 C 0.58409 0.97378 0.00727 0.0
C3938 C 0.60685 0.92532 0.00761 0.0
H3939 H 0.70536 0.93762 0.00149 0.0
H3940 H 0.67262 0.94924 0.00689 0.0
H3941 H 0.62805 0.90366 0.00075 0.0
H3942 H 0.5378 0.94225 8e-05 0.0
H3943 H 0.56645 0.92751 0.01448 0.0
H3944 H 0.61565 0.96764 0.03221 0.0
C3945 C 0.67568 0.93384 0.00912 0.0
C3946 C 0.62544 0.91741 0.00805 0.0
C3947 C 0.69442 0.92711 0.00583 0.0
C3948 C 0.55045 0.95133 0.00261 0.0
C3949 C 0.56695 0.94287 0.01058 0.0
C3950 C 0.61811 0.95358 0.02543 0.0
C3951 C 0.66092 0.92075 0.01456 0.0
C3952 C 0.64073 0.92782 0.01657 0.0
C3953 C 0.58428 0.95373 0.0121 0.0
C3954 C 0.60304 0.94378 0.01583 0.0
H3955 H 0.68722 0.87861 0.01578 0.0
H3956 H 0.65438 0.89039 0.02123 0.0
H3957 H 0.64819 0.95393 0.03268 0.0
H3958 H 0.56835 0.9972 0.99432 0.0
H3959 H 0.59712 0.98263 0.00803 0.0
C3960 C 0.37199 0.43275 0.26236 0.0
C3961 C 0.36321 0.44703 0.25099 0.0
C3962 C 0.3638 0.41394 0.26393 0.0
C3963 C 0.33305 0.38128 0.27286 0.0
H3964 H 0.32026 0.35274 0.22684 0.0
C3965 C 0.27253 0.32275 0.2632 0.0
C3966 C 0.27612 0.30715 0.25066 0.0
C3967 C 0.28698 0.33668 0.26709 0.0
C3968 C 0.32398 0.36037 0.23985 0.0
H3969 H 0.34006 0.45262 0.23119 0.0
H3970 H 0.32599 0.4196 0.2335 0.0
H3971 H 0.33769 0.38396 0.22481 0.0
H3972 H 0.29778 0.29299 0.23337 0.0
H3973 H 0.32307 0.31732 0.2401 0.0
H3974 H 0.31831 0.35813 0.28781 0.0
C3975 C 0.33886 0.42305 0.24161 0.0
C3976 C 0.3338 0.37832 0.23866 0.0
C3977 C 0.34679 0.44194 0.24039 0.0
C3978 C 0.29482 0.30467 0.24342 0.0
C3979 C 0.3092 0.31873 0.24708 0.0
C3980 C 0.3228 0.36348 0.27404 0.0
C3981 C 0.34714 0.40892 0.25356 0.0
C3982 C 0.33821 0.38909 0.25511 0.0
C3983 C 0.30508 0.33542 0.25813 0.0
C3984 C 0.31802 0.35293 0.25751 0.0
H3985 H 0.38491 0.43631 0.27036 0.0
H3986 H 0.37055 0.40326 0.27311 0.0
H3987 H 0.33629 0.38929 0.28576 0.0
H3988 H 0.25806 0.32521 0.26855 0.0
H3989 H 0.28334 0.34943 0.27557 0.0
C3990 C 0.19053 0.59717 0.01181 0.0
C3991 C 0.19457 0.61408 0.00129 0.0
C3992 C 0.17156 0.59075 0.01412 0.0
C3993 C 0.12008 0.60572 0.00918 0.0
H3994 H 0.11262 0.54925 0.0102 0.0
C3995 C 0.06193 0.54189 0.03024 0.0
C3996 C 0.04893 0.54139 0.01499 0.0
C3997 C 0.07708 0.55542 0.03043 0.0
C3998 C 0.11452 0.56507 0.01004 0.0
H3999 H 0.18226 0.63836 0.98586 0.0
H4000 H 0.14884 0.62655 0.9889 0.0
H4001 H 0.14475 0.56256 0.0056 0.0
H4002 H 0.04041 0.5556 0.98892 0.0
H4003 H 0.06703 0.57954 0.98934 0.0
H4004 H 0.08928 0.60776 0.0131 0.0
C4005 C 0.16027 0.61834 0.99563 0.0
C4006 C 0.13297 0.57275 0.00746 0.0
C4007 C 0.17935 0.625 0.99369 0.0
C4008 C 0.05002 0.55601 0.00102 0.0
C4009 C 0.06529 0.5696 0.0012 0.0
C4010 C 0.10142 0.59793 0.0115 0.0
C4011 C 0.15617 0.60098 0.00573 0.0
C4012 C 0.13612 0.59316 0.00735 0.0
C4013 C 0.07949 0.56858 0.01535 0.0
C4014 C 0.09866 0.57754 0.01231 0.0
H4015 H 0.20208 0.58895 0.01838 0.0
H4016 H 0.16901 0.57774 0.02256 0.0
H4017 H 0.12196 0.62152 0.00927 0.0
H4018 H 0.06135 0.53072 0.04115 0.0
H4019 H 0.0879 0.55444 0.04148 0.0
C4020 C 0.6497 0.94915 0.24918 0.0
C4021 C 0.65741 0.96475 0.25996 0.0
C4022 C 0.65803 0.93053 0.24978 0.0
C4023 C 0.70263 0.90392 0.2626 0.0
H4024 H 0.66774 0.85927 0.26556 0.0
C4025 C 0.72711 0.82227 0.25637 0.0
C4026 C 0.71757 0.80869 0.26817 0.0
C4027 C 0.72112 0.8419 0.25575 0.0
C4028 C 0.67771 0.87157 0.26488 0.0
H4029 H 0.68025 0.97293 0.2796 0.0
H4030 H 0.69461 0.94032 0.2808 0.0
H4031 H 0.65465 0.89223 0.26364 0.0
H4032 H 0.69502 0.8054 0.28937 0.0
H4033 H 0.68487 0.83943 0.28847 0.0
H4034 H 0.72571 0.88308 0.26418 0.0
C4035 C 0.6822 0.94261 0.27174 0.0
C4036 C 0.67019 0.89048 0.26353 0.0
C4037 C 0.67386 0.96127 0.27116 0.0
C4038 C 0.70254 0.81536 0.27991 0.0
C4039 C 0.69663 0.83489 0.27934 0.0
C4040 C 0.71018 0.88492 0.2639 0.0
C4041 C 0.67429 0.92698 0.26117 0.0
C4042 C 0.68252 0.90689 0.26241 0.0
C4043 C 0.70551 0.84829 0.26694 0.0
C4044 C 0.69778 0.86854 0.26519 0.0
H4045 H 0.63715 0.95125 0.24026 0.0
H4046 H 0.65175 0.9189 0.24123 0.0
H4047 H 0.71252 0.91625 0.26158 0.0
H4048 H 0.73871 0.8176 0.2471 0.0
H4049 H 0.72822 0.85186 0.246 0.0
C4050 C 0.86417 0.06871 0.74511 0.0
C4051 C 0.85127 0.05309 0.74872 0.0
C4052 C 0.85724 0.08783 0.74228 0.0
C4053 C 0.81593 0.11509 0.72543 0.0
H4054 H 0.82609 0.15485 0.76366 0.0
C4055 C 0.76155 0.17461 0.74322 0.0
C4056 C 0.76725 0.19211 0.75216 0.0
C4057 C 0.77522 0.16078 0.73766 0.0
C4058 C 0.82347 0.14423 0.75248 0.0
H4059 H 0.82097 0.04533 0.7518 0.0
H4060 H 0.80899 0.07838 0.7462 0.0
H4061 H 0.84408 0.12409 0.7641 0.0
H4062 H 0.79169 0.20944 0.76157 0.0
H4063 H 0.81595 0.18551 0.7512 0.0
H4064 H 0.79524 0.13487 0.71382 0.0
C4065 C 0.82444 0.07588 0.74581 0.0
C4066 C 0.83374 0.12655 0.75284 0.0
C4067 C 0.83134 0.05697 0.74911 0.0
C4068 C 0.787 0.19623 0.75426 0.0
C4069 C 0.80082 0.18233 0.74865 0.0
C4070 C 0.80594 0.13287 0.72483 0.0
C4071 C 0.83728 0.0915 0.74246 0.0
C4072 C 0.8295 0.11155 0.73978 0.0
C4073 C 0.79504 0.16403 0.74101 0.0
C4074 C 0.80889 0.14735 0.73888 0.0
H4075 H 0.87961 0.06621 0.74478 0.0
H4076 H 0.8674 0.0997 0.73979 0.0
H4077 H 0.81255 0.10379 0.71509 0.0
H4078 H 0.74635 0.17097 0.74179 0.0
H4079 H 0.77 0.14688 0.73214 0.0
loop_
_geom_bond_atom_site_label_1
_geom_bond_atom_site_label_2
_geom_bond_distance
_geom_bond_site_symmetry_2
_ccdc_geom_bond_type
Mn0 O5 2.095 . S
Mn0 O15 2.162 . S
Mn0 O16 2.297 . S
Mn0 O24 2.385 . S
Mn0 O25 2.208 . S
Mn0 O26 2.094 1_455 S
Mn1 O6 2.121 . S
Mn1 N8 2.257 . S
Mn1 N17 2.282 . S
Mn1 O25 2.218 1_655 S
Mn1 O27 2.117 . S
C2 O24 1.234 . S
C2 O25 1.283 . S
C3 O15 1.281 . S
C3 O16 1.236 . S
C4 O26 1.240 . S
C4 O27 1.264 . S
O5 Mn0 2.095 . S
O5 C14 1.250 1_455 S
O6 Mn1 2.121 . S
O6 C14 1.258 . S
C7 N8 1.326 . S
C7 C11 1.460 . S
C7 H13 0.929 . S
N8 Mn1 2.257 . S
N8 C7 1.326 . S
N8 C12 1.362 . S
C9 C10 1.258 . S
C9 C12 1.431 . S
C9 C29 1.449 . S
C10 C9 1.258 . S
C10 C11 1.477 . S
C10 H30 0.931 . S
C11 C7 1.460 . S
C11 C10 1.477 . S
C11 H31 0.930 . S
C12 N8 1.362 . S
C12 C9 1.431 . S
C12 C22 1.476 . S
H13 C7 0.929 . S
C14 O5 1.250 1_655 S
C14 O6 1.258 . S
O15 Mn0 2.162 . S
O15 C3 1.281 . S
O16 Mn0 2.297 . S
O16 C3 1.236 . S
N17 Mn1 2.282 . S
N17 C18 1.328 . S
N17 C22 1.318 . S
C18 N17 1.328 . S
C18 C19 1.457 . S
C18 H23 0.929 . S
C19 C18 1.457 . S
C19 C20 1.291 . S
C19 H32 0.931 . S
C20 C19 1.291 . S
C20 C21 1.373 . S
C20 H33 0.929 . S
C21 C20 1.373 . S
C21 C22 1.396 . S
C21 C28 1.403 . S
C22 C12 1.476 . S
C22 N17 1.318 . S
C22 C21 1.396 . S
H23 C18 0.929 . S
O24 Mn0 2.385 . S
O24 C2 1.234 . S
O25 Mn0 2.208 . S
O25 Mn1 2.218 1_455 S
O25 C2 1.283 . S
O26 Mn0 2.094 1_655 S
O26 C4 1.240 . S
O27 Mn1 2.117 . S
O27 C4 1.264 . S
C28 C21 1.403 . S
C28 C29 1.399 . S
C28 H34 0.929 . S
C29 C9 1.449 . S
C29 C28 1.399 . S
C29 H35 0.930 . S
H30 C10 0.931 . S
H31 C11 0.930 . S
H32 C19 0.931 . S
H33 C20 0.929 . S
H34 C28 0.929 . S
H35 C29 0.930 . S
Mn36 O41 2.095 . S
Mn36 O51 2.162 . S
Mn36 O52 2.297 . S
Mn36 O60 2.385 . S
Mn36 O61 2.209 . S
Mn36 O62 2.094 1_455 S
Mn37 O42 2.121 . S
Mn37 N44 2.257 . S
Mn37 N53 2.282 . S
Mn37 O61 2.215 1_655 S
Mn37 O63 2.117 . S
C38 O60 1.234 . S
C38 O61 1.283 . S
C39 O51 1.281 . S
C39 O52 1.236 . S
C40 O62 1.240 . S
C40 O63 1.264 . S
O41 Mn36 2.095 . S
O41 C50 1.247 1_455 S
O42 Mn37 2.121 . S
O42 C50 1.274 . S
C43 N44 1.326 . S
C43 C47 1.460 . S
C43 H49 0.929 . S
N44 Mn37 2.257 . S
N44 C43 1.326 . S
N44 C48 1.362 . S
C45 C46 1.258 . S
C45 C48 1.431 . S
C45 C65 1.449 . S
C46 C45 1.258 . S
C46 C47 1.477 . S
C46 H66 0.931 . S
C47 C43 1.460 . S
C47 C46 1.477 . S
C47 H67 0.930 . S
C48 N44 1.362 . S
C48 C45 1.431 . S
C48 C58 1.476 . S
H49 C43 0.929 . S
C50 O41 1.247 1_655 S
C50 O42 1.274 . S
O51 Mn36 2.162 . S
O51 C39 1.281 . S
O52 Mn36 2.297 . S
O52 C39 1.236 . S
N53 Mn37 2.282 . S
N53 C54 1.328 . S
N53 C58 1.318 . S
C54 N53 1.328 . S
C54 C55 1.457 . S
C54 H59 0.929 . S
C55 C54 1.457 . S
C55 C56 1.291 . S
C55 H68 0.931 . S
C56 C55 1.291 . S
C56 C57 1.373 . S
C56 H69 0.929 . S
C57 C56 1.373 . S
C57 C58 1.396 . S
C57 C64 1.403 . S
C58 C48 1.476 . S
C58 N53 1.318 . S
C58 C57 1.396 . S
H59 C54 0.929 . S
O60 Mn36 2.385 . S
O60 C38 1.234 . S
O61 Mn36 2.209 . S
O61 Mn37 2.215 1_455 S
O61 C38 1.283 . S
O62 Mn36 2.094 1_655 S
O62 C40 1.240 . S
O63 Mn37 2.117 . S
O63 C40 1.264 . S
C64 C57 1.403 . S
C64 C65 1.399 . S
C64 H70 0.929 . S
C65 C45 1.449 . S
C65 C64 1.399 . S
C65 H71 0.930 . S
H66 C46 0.931 . S
H67 C47 0.930 . S
H68 C55 0.931 . S
H69 C56 0.929 . S
H70 C64 0.929 . S
H71 C65 0.930 . S
Mn72 O77 2.095 . S
Mn72 O87 2.162 . S
Mn72 O88 2.297 . S
Mn72 O96 2.385 . S
Mn72 O97 2.209 . S
Mn72 O98 2.094 . S
Mn73 O78 2.121 . S
Mn73 N80 2.257 . S
Mn73 N89 2.282 . S
Mn73 O97 2.215 . S
Mn73 O99 2.117 . S
C74 O96 1.234 . S
C74 O97 1.283 . S
C75 O87 1.281 . S
C75 O88 1.236 . S
C76 O98 1.240 . S
C76 O99 1.264 . S
O77 Mn72 2.095 . S
O77 C86 1.250 . S
O78 Mn73 2.121 . S
O78 C86 1.258 . S
C79 N80 1.326 . S
C79 C83 1.460 . S
C79 H85 0.929 . S
N80 Mn73 2.257 . S
N80 C79 1.326 . S
N80 C84 1.362 . S
C81 C82 1.258 . S
C81 C84 1.431 . S
C81 C101 1.449 . S
C82 C81 1.258 . S
C82 C83 1.477 . S
C82 H102 0.931 . S
C83 C79 1.460 . S
C83 C82 1.477 . S
C83 H103 0.930 . S
C84 N80 1.362 . S
C84 C81 1.431 . S
C84 C94 1.476 . S
H85 C79 0.929 . S
C86 O77 1.250 . S
C86 O78 1.258 . S
O87 Mn72 2.162 . S
O87 C75 1.281 . S
O88 Mn72 2.297 . S
O88 C75 1.236 . S
N89 Mn73 2.282 . S
N89 C90 1.328 . S
N89 C94 1.318 . S
C90 N89 1.328 . S
C90 C91 1.457 . S
C90 H95 0.929 . S
C91 C90 1.457 . S
C91 C92 1.291 . S
C91 H104 0.931 . S
C92 C91 1.291 . S
C92 C93 1.373 . S
C92 H105 0.929 . S
C93 C92 1.373 . S
C93 C94 1.396 . S
C93 C100 1.403 . S
C94 C84 1.476 . S
C94 N89 1.318 . S
C94 C93 1.396 . S
H95 C90 0.929 . S
O96 Mn72 2.385 . S
O96 C74 1.234 . S
O97 Mn72 2.209 . S
O97 Mn73 2.215 . S
O97 C74 1.283 . S
O98 Mn72 2.094 . S
O98 C76 1.240 . S
O99 Mn73 2.117 . S
O99 C76 1.264 . S
C100 C93 1.403 . S
C100 C101 1.399 . S
C100 H106 0.929 . S
C101 C81 1.449 . S
C101 C100 1.399 . S
C101 H107 0.930 . S
H102 C82 0.931 . S
H103 C83 0.930 . S
H104 C91 0.931 . S
H105 C92 0.929 . S
H106 C100 0.929 . S
H107 C101 0.930 . S
Mn108 O113 2.095 . S
Mn108 O123 2.162 . S
Mn108 O124 2.297 . S
Mn108 O132 2.385 . S
Mn108 O133 2.209 . S
Mn108 O134 2.094 . S
Mn109 O114 2.121 . S
Mn109 N116 2.257 . S
Mn109 N125 2.282 . S
Mn109 O133 2.215 . S
Mn109 O135 2.117 . S
C110 O132 1.234 . S
C110 O133 1.283 . S
C111 O123 1.281 . S
C111 O124 1.236 . S
C112 O134 1.240 . S
C112 O135 1.264 . S
O113 Mn108 2.095 . S
O113 C122 1.250 . S
O114 Mn109 2.121 . S
O114 C122 1.258 . S
C115 N116 1.326 . S
C115 C119 1.460 . S
C115 H121 0.929 . S
N116 Mn109 2.257 . S
N116 C115 1.326 . S
N116 C120 1.362 . S
C117 C118 1.258 . S
C117 C120 1.431 . S
C117 C137 1.449 . S
C118 C117 1.258 . S
C118 C119 1.477 . S
C118 H138 0.931 . S
C119 C115 1.460 . S
C119 C118 1.477 . S
C119 H139 0.930 . S
C120 N116 1.362 . S
C120 C117 1.431 . S
C120 C130 1.476 . S
H121 C115 0.929 . S
C122 O113 1.250 . S
C122 O114 1.258 . S
O123 Mn108 2.162 . S
O123 C111 1.281 . S
O124 Mn108 2.297 . S
O124 C111 1.236 . S
N125 Mn109 2.282 . S
N125 C126 1.328 . S
N125 C130 1.318 . S
C126 N125 1.328 . S
C126 C127 1.457 . S
C126 H131 0.929 . S
C127 C126 1.457 . S
C127 C128 1.291 . S
C127 H140 0.931 . S
C128 C127 1.291 . S
C128 C129 1.373 . S
C128 H141 0.929 . S
C129 C128 1.373 . S
C129 C130 1.396 . S
C129 C136 1.403 . S
C130 C120 1.476 . S
C130 N125 1.318 . S
C130 C129 1.396 . S
H131 C126 0.929 . S
O132 Mn108 2.385 . S
O132 C110 1.234 . S
O133 Mn108 2.209 . S
O133 Mn109 2.215 . S
O133 C110 1.283 . S
O134 Mn108 2.094 . S
O134 C112 1.240 . S
O135 Mn109 2.117 . S
O135 C112 1.264 . S
C136 C129 1.403 . S
C136 C137 1.399 . S
C136 H142 0.929 . S
C137 C117 1.449 . S
C137 C136 1.399 . S
C137 H143 0.930 . S
H138 C118 0.931 . S
H139 C119 0.930 . S
H140 C127 0.931 . S
H141 C128 0.929 . S
H142 C136 0.929 . S
H143 C137 0.930 . S
Mn144 O149 2.095 1_545 S
Mn144 O159 2.164 . S
Mn144 O160 2.297 . S
Mn144 O168 2.385 . S
Mn144 O169 2.209 . S
Mn144 O170 2.094 . S
Mn145 O150 2.121 1_545 S
Mn145 N152 2.257 . S
Mn145 N161 2.282 . S
Mn145 O169 2.215 . S
Mn145 O171 2.117 . S
C146 O168 1.234 . S
C146 O169 1.283 . S
C147 O159 1.284 . S
C147 O160 1.236 . S
C148 O170 1.240 . S
C148 O171 1.264 . S
O149 Mn144 2.095 1_565 S
O149 C158 1.250 . S
O150 Mn145 2.121 1_565 S
O150 C158 1.258 . S
C151 N152 1.337 . S
C151 C155 1.465 . S
C151 H157 0.914 1_545 S
N152 Mn145 2.257 . S
N152 C151 1.337 . S
N152 C156 1.362 . S
C153 C154 1.258 . S
C153 C156 1.431 . S
C153 C173 1.449 . S
C154 C153 1.258 . S
C154 C155 1.477 . S
C154 H174 0.931 . S
C155 C151 1.465 . S
C155 C154 1.477 . S
C155 H175 0.930 1_545 S
C156 N152 1.362 . S
C156 C153 1.431 . S
C156 C166 1.476 . S
H157 C151 0.914 1_565 S
C158 O149 1.250 . S
C158 O150 1.258 . S
O159 Mn144 2.164 . S
O159 C147 1.284 . S
O160 Mn144 2.297 . S
O160 C147 1.236 . S
N161 Mn145 2.282 . S
N161 C162 1.328 . S
N161 C166 1.318 . S
C162 N161 1.328 . S
C162 C163 1.457 . S
C162 H167 0.929 . S
C163 C162 1.457 . S
C163 C164 1.291 . S
C163 H176 0.931 . S
C164 C163 1.291 . S
C164 C165 1.373 . S
C164 H177 0.929 . S
C165 C164 1.373 . S
C165 C166 1.396 . S
C165 C172 1.403 . S
C166 C156 1.476 . S
C166 N161 1.318 . S
C166 C165 1.396 . S
H167 C162 0.929 . S
O168 Mn144 2.385 . S
O168 C146 1.234 . S
O169 Mn144 2.209 . S
O169 Mn145 2.215 . S
O169 C146 1.283 . S
O170 Mn144 2.094 . S
O170 C148 1.240 . S
O171 Mn145 2.117 . S
O171 C148 1.264 . S
C172 C165 1.403 . S
C172 C173 1.399 . S
C172 H178 0.929 . S
C173 C153 1.449 . S
C173 C172 1.399 . S
C173 H179 0.930 . S
H174 C154 0.931 . S
H175 C155 0.930 1_565 S
H176 C163 0.931 . S
H177 C164 0.929 . S
H178 C172 0.929 . S
H179 C173 0.930 . S
Mn180 O185 2.095 . S
Mn180 O195 2.162 . S
Mn180 O196 2.297 . S
Mn180 O204 2.385 . S
Mn180 O205 2.209 . S
Mn180 O206 2.094 . S
Mn181 O186 2.121 . S
Mn181 N188 2.257 . S
Mn181 N197 2.282 . S
Mn181 O205 2.215 . S
Mn181 O207 2.117 . S
C182 O204 1.234 . S
C182 O205 1.283 . S
C183 O195 1.281 . S
C183 O196 1.236 . S
C184 O206 1.240 . S
C184 O207 1.264 . S
O185 Mn180 2.095 . S
O185 C194 1.250 . S
O186 Mn181 2.121 . S
O186 C194 1.258 . S
C187 N188 1.326 . S
C187 C191 1.460 . S
C187 H193 0.929 . S
N188 Mn181 2.257 . S
N188 C187 1.326 . S
N188 C192 1.362 . S
C189 C190 1.258 . S
C189 C192 1.431 . S
C189 C209 1.449 . S
C190 C189 1.258 . S
C190 C191 1.477 . S
C190 H210 0.931 . S
C191 C187 1.460 . S
C191 C190 1.477 . S
C191 H211 0.930 . S
C192 N188 1.362 . S
C192 C189 1.431 . S
C192 C202 1.476 . S
H193 C187 0.929 . S
C194 O185 1.250 . S
C194 O186 1.258 . S
O195 Mn180 2.162 . S
O195 C183 1.281 . S
O196 Mn180 2.297 . S
O196 C183 1.236 . S
N197 Mn181 2.282 . S
N197 C198 1.328 . S
N197 C202 1.318 . S
C198 N197 1.328 . S
C198 C199 1.457 . S
C198 H203 0.929 . S
C199 C198 1.457 . S
C199 C200 1.291 . S
C199 H212 0.931 . S
C200 C199 1.291 . S
C200 C201 1.373 . S
C200 H213 0.929 . S
C201 C200 1.373 . S
C201 C202 1.396 . S
C201 C208 1.403 . S
C202 C192 1.476 . S
C202 N197 1.318 . S
C202 C201 1.396 . S
H203 C198 0.929 . S
O204 Mn180 2.385 . S
O204 C182 1.234 . S
O205 Mn180 2.209 . S
O205 Mn181 2.215 . S
O205 C182 1.283 . S
O206 Mn180 2.094 . S
O206 C184 1.240 . S
O207 Mn181 2.117 . S
O207 C184 1.264 . S
C208 C201 1.403 . S
C208 C209 1.399 . S
C208 H214 0.929 . S
C209 C189 1.449 . S
C209 C208 1.399 . S
C209 H215 0.930 . S
H210 C190 0.931 . S
H211 C191 0.930 . S
H212 C199 0.931 . S
H213 C200 0.929 . S
H214 C208 0.929 . S
H215 C209 0.930 . S
Mn216 O221 2.095 . S
Mn216 O231 2.162 . S
Mn216 O232 2.297 . S
Mn216 O240 2.385 1_545 S
Mn216 O241 2.209 1_545 S
Mn216 O242 2.094 . S
Mn217 O222 2.121 . S
Mn217 N224 2.257 1_545 S
Mn217 N233 2.282 1_545 S
Mn217 O241 2.215 1_545 S
Mn217 O243 2.117 . S
C218 O240 1.234 . S
C218 O241 1.283 . S
C219 O231 1.281 . S
C219 O232 1.236 . S
C220 O242 1.240 . S
C220 O243 1.264 . S
O221 Mn216 2.095 . S
O221 C230 1.250 . S
O222 Mn217 2.121 . S
O222 C230 1.258 . S
C223 N224 1.326 1_545 S
C223 C227 1.467 . S
C223 H229 0.929 . S
N224 Mn217 2.257 1_565 S
N224 C223 1.326 1_565 S
N224 C228 1.362 . S
C225 C226 1.258 . S
C225 C228 1.431 . S
C225 C245 1.449 . S
C226 C225 1.258 . S
C226 C227 1.455 1_565 S
C226 H246 0.931 . S
C227 C223 1.467 . S
C227 C226 1.455 1_545 S
C227 H247 0.945 . S
C228 N224 1.362 . S
C228 C225 1.431 . S
C228 C238 1.476 . S
H229 C223 0.929 . S
C230 O221 1.250 . S
C230 O222 1.258 . S
O231 Mn216 2.162 . S
O231 C219 1.281 . S
O232 Mn216 2.297 . S
O232 C219 1.236 . S
N233 Mn217 2.282 1_565 S
N233 C234 1.328 . S
N233 C238 1.318 . S
C234 N233 1.328 . S
C234 C235 1.457 . S
C234 H239 0.929 . S
C235 C234 1.457 . S
C235 C236 1.291 . S
C235 H248 0.931 . S
C236 C235 1.291 . S
C236 C237 1.373 . S
C236 H249 0.929 . S
C237 C236 1.373 . S
C237 C238 1.396 . S
C237 C244 1.403 . S
C238 C228 1.476 . S
C238 N233 1.318 . S
C238 C237 1.396 . S
H239 C234 0.929 . S
O240 Mn216 2.385 1_565 S
O240 C218 1.234 . S
O241 Mn216 2.209 1_565 S
O241 Mn217 2.215 1_565 S
O241 C218 1.283 . S
O242 Mn216 2.094 . S
O242 C220 1.240 . S
O243 Mn217 2.117 . S
O243 C220 1.264 . S
C244 C237 1.403 . S
C244 C245 1.399 . S
C244 H250 0.929 . S
C245 C225 1.449 . S
C245 C244 1.399 . S
C245 H251 0.930 . S
H246 C226 0.931 . S
H247 C227 0.945 . S
H248 C235 0.931 . S
H249 C236 0.929 . S
H250 C244 0.929 . S
H251 C245 0.930 . S
Mn252 O257 2.099 . S
Mn252 O267 2.162 . S
Mn252 O268 2.297 . S
Mn252 O276 2.385 . S
Mn252 O277 2.216 . S
Mn252 O278 2.094 1_554 S
Mn253 O258 2.121 . S
Mn253 N260 2.257 . S
Mn253 N269 2.282 . S
Mn253 O277 2.177 1_556 S
Mn253 O279 2.117 . S
C254 O276 1.234 . S
C254 O277 1.292 . S
C255 O267 1.281 . S
C255 O268 1.236 . S
C256 O278 1.240 . S
C256 O279 1.264 . S
O257 Mn252 2.099 . S
O257 C266 1.248 1_554 S
O258 Mn253 2.121 . S
O258 C266 1.258 . S
C259 N260 1.326 . S
C259 C263 1.460 . S
C259 H265 0.929 . S
N260 Mn253 2.257 . S
N260 C259 1.326 . S
N260 C264 1.362 . S
C261 C262 1.258 . S
C261 C264 1.431 . S
C261 C281 1.449 . S
C262 C261 1.258 . S
C262 C263 1.477 . S
C262 H282 0.931 . S
C263 C259 1.460 . S
C263 C262 1.477 . S
C263 H283 0.930 . S
C264 N260 1.362 . S
C264 C261 1.431 . S
C264 C274 1.476 . S
H265 C259 0.929 . S
C266 O257 1.248 1_556 S
C266 O258 1.258 . S
O267 Mn252 2.162 . S
O267 C255 1.281 . S
O268 Mn252 2.297 . S
O268 C255 1.236 . S
N269 Mn253 2.282 . S
N269 C270 1.328 . S
N269 C274 1.318 . S
C270 N269 1.328 . S
C270 C271 1.457 . S
C270 H275 0.929 . S
C271 C270 1.457 . S
C271 C272 1.291 . S
C271 H284 0.931 . S
C272 C271 1.291 . S
C272 C273 1.373 . S
C272 H285 0.929 . S
C273 C272 1.373 . S
C273 C274 1.396 . S
C273 C280 1.403 . S
C274 C264 1.476 . S
C274 N269 1.318 . S
C274 C273 1.396 . S
H275 C270 0.929 . S
O276 Mn252 2.385 . S
O276 C254 1.234 . S
O277 Mn252 2.216 . S
O277 Mn253 2.177 1_554 S
O277 C254 1.292 . S
O278 Mn252 2.094 1_556 S
O278 C256 1.240 . S
O279 Mn253 2.117 . S
O279 C256 1.264 . S
C280 C273 1.403 . S
C280 C281 1.399 . S
C280 H286 0.929 . S
C281 C261 1.449 . S
C281 C280 1.399 . S
C281 H287 0.930 . S
H282 C262 0.931 . S
H283 C263 0.930 . S
H284 C271 0.931 . S
H285 C272 0.929 . S
H286 C280 0.929 . S
H287 C281 0.930 . S
Mn288 O293 2.093 1_554 S
Mn288 O303 2.162 . S
Mn288 O304 2.297 . S
Mn288 O312 2.385 . S
Mn288 O313 2.208 . S
Mn288 O314 2.094 1_554 S
Mn289 O294 2.121 . S
Mn289 N296 2.257 . S
Mn289 N305 2.282 . S
Mn289 O313 2.216 1_556 S
Mn289 O315 2.117 . S
C290 O312 1.234 . S
C290 O313 1.283 . S
C291 O303 1.281 . S
C291 O304 1.236 . S
C292 O314 1.240 . S
C292 O315 1.264 . S
O293 Mn288 2.093 1_556 S
O293 C302 1.252 . S
O294 Mn289 2.121 . S
O294 C302 1.258 . S
C295 N296 1.326 . S
C295 C299 1.460 . S
C295 H301 0.929 . S
N296 Mn289 2.257 . S
N296 C295 1.326 . S
N296 C300 1.362 . S
C297 C298 1.258 . S
C297 C300 1.431 . S
C297 C317 1.449 . S
C298 C297 1.258 . S
C298 C299 1.477 . S
C298 H318 0.931 . S
C299 C295 1.460 . S
C299 C298 1.477 . S
C299 H319 0.930 . S
C300 N296 1.362 . S
C300 C297 1.431 . S
C300 C310 1.476 . S
H301 C295 0.929 . S
C302 O293 1.252 . S
C302 O294 1.258 . S
O303 Mn288 2.162 . S
O303 C291 1.281 . S
O304 Mn288 2.297 . S
O304 C291 1.236 . S
N305 Mn289 2.282 . S
N305 C306 1.328 . S
N305 C310 1.318 . S
C306 N305 1.328 . S
C306 C307 1.457 . S
C306 H311 0.929 . S
C307 C306 1.457 . S
C307 C308 1.291 . S
C307 H320 0.931 . S
C308 C307 1.291 . S
C308 C309 1.373 . S
C308 H321 0.929 . S
C309 C308 1.373 . S
C309 C310 1.396 . S
C309 C316 1.403 . S
C310 C300 1.476 . S
C310 N305 1.318 . S
C310 C309 1.396 . S
H311 C306 0.929 . S
O312 Mn288 2.385 . S
O312 C290 1.234 . S
O313 Mn288 2.208 . S
O313 Mn289 2.216 1_554 S
O313 C290 1.283 . S
O314 Mn288 2.094 1_556 S
O314 C292 1.240 . S
O315 Mn289 2.117 . S
O315 C292 1.264 . S
C316 C309 1.403 . S
C316 C317 1.399 . S
C316 H322 0.929 . S
C317 C297 1.449 . S
C317 C316 1.399 . S
C317 H323 0.930 . S
H318 C298 0.931 . S
H319 C299 0.930 . S
H320 C307 0.931 . S
H321 C308 0.929 . S
H322 C316 0.929 . S
H323 C317 0.930 . S
Mn324 O329 2.095 . S
Mn324 O339 2.162 . S
Mn324 O340 2.297 . S
Mn324 O348 2.385 . S
Mn324 O349 2.209 . S
Mn324 O350 2.094 . S
Mn325 O330 2.121 . S
Mn325 N332 2.257 . S
Mn325 N341 2.282 . S
Mn325 O349 2.215 . S
Mn325 O351 2.117 . S
C326 O348 1.234 . S
C326 O349 1.283 . S
C327 O339 1.281 . S
C327 O340 1.236 . S
C328 O350 1.240 . S
C328 O351 1.264 . S
O329 Mn324 2.095 . S
O329 C338 1.250 . S
O330 Mn325 2.121 . S
O330 C338 1.258 . S
C331 N332 1.326 . S
C331 C335 1.460 . S
C331 H337 0.929 . S
N332 Mn325 2.257 . S
N332 C331 1.326 . S
N332 C336 1.362 . S
C333 C334 1.258 . S
C333 C336 1.431 . S
C333 C353 1.449 . S
C334 C333 1.258 . S
C334 C335 1.477 . S
C334 H354 0.931 . S
C335 C331 1.460 . S
C335 C334 1.477 . S
C335 H355 0.930 . S
C336 N332 1.362 . S
C336 C333 1.431 . S
C336 C346 1.476 . S
H337 C331 0.929 . S
C338 O329 1.250 . S
C338 O330 1.258 . S
O339 Mn324 2.162 . S
O339 C327 1.281 . S
O340 Mn324 2.297 . S
O340 C327 1.236 . S
N341 Mn325 2.282 . S
N341 C342 1.328 . S
N341 C346 1.318 . S
C342 N341 1.328 . S
C342 C343 1.457 . S
C342 H347 0.929 . S
C343 C342 1.457 . S
C343 C344 1.291 . S
C343 H356 0.931 . S
C344 C343 1.291 . S
C344 C345 1.373 . S
C344 H357 0.929 . S
C345 C344 1.373 . S
C345 C346 1.396 . S
C345 C352 1.403 . S
C346 C336 1.476 . S
C346 N341 1.318 . S
C346 C345 1.396 . S
H347 C342 0.929 . S
O348 Mn324 2.385 . S
O348 C326 1.234 . S
O349 Mn324 2.209 . S
O349 Mn325 2.215 . S
O349 C326 1.283 . S
O350 Mn324 2.094 . S
O350 C328 1.240 . S
O351 Mn325 2.117 . S
O351 C328 1.264 . S
C352 C345 1.403 . S
C352 C353 1.399 . S
C352 H358 0.929 . S
C353 C333 1.449 . S
C353 C352 1.399 . S
C353 H359 0.930 . S
H354 C334 0.931 . S
H355 C335 0.930 . S
H356 C343 0.931 . S
H357 C344 0.929 . S
H358 C352 0.929 . S
H359 C353 0.930 . S
Mn360 O365 2.095 . S
Mn360 O375 2.162 . S
Mn360 O376 2.297 . S
Mn360 O384 2.385 . S
Mn360 O385 2.209 . S
Mn360 O386 2.094 . S
Mn361 O366 2.121 . S
Mn361 N368 2.257 . S
Mn361 N377 2.282 . S
Mn361 O385 2.215 . S
Mn361 O387 2.117 . S
C362 O384 1.234 . S
C362 O385 1.283 . S
C363 O375 1.281 . S
C363 O376 1.236 . S
C364 O386 1.240 . S
C364 O387 1.264 . S
O365 Mn360 2.095 . S
O365 C374 1.250 . S
O366 Mn361 2.121 . S
O366 C374 1.258 . S
C367 N368 1.326 . S
C367 C371 1.460 . S
C367 H373 0.929 . S
N368 Mn361 2.257 . S
N368 C367 1.326 . S
N368 C372 1.362 . S
C369 C370 1.258 . S
C369 C372 1.431 . S
C369 C389 1.449 . S
C370 C369 1.258 . S
C370 C371 1.477 . S
C370 H390 0.931 . S
C371 C367 1.460 . S
C371 C370 1.477 . S
C371 H391 0.930 . S
C372 N368 1.362 . S
C372 C369 1.431 . S
C372 C382 1.476 . S
H373 C367 0.929 . S
C374 O365 1.250 . S
C374 O366 1.258 . S
O375 Mn360 2.162 . S
O375 C363 1.281 . S
O376 Mn360 2.297 . S
O376 C363 1.236 . S
N377 Mn361 2.282 . S
N377 C378 1.328 . S
N377 C382 1.318 . S
C378 N377 1.328 . S
C378 C379 1.457 . S
C378 H383 0.929 . S
C379 C378 1.457 . S
C379 C380 1.291 . S
C379 H392 0.931 . S
C380 C379 1.291 . S
C380 C381 1.373 . S
C380 H393 0.929 . S
C381 C380 1.373 . S
C381 C382 1.396 . S
C381 C388 1.403 . S
C382 C372 1.476 . S
C382 N377 1.318 . S
C382 C381 1.396 . S
H383 C378 0.929 . S
O384 Mn360 2.385 . S
O384 C362 1.234 . S
O385 Mn360 2.209 . S
O385 Mn361 2.215 . S
O385 C362 1.283 . S
O386 Mn360 2.094 . S
O386 C364 1.240 . S
O387 Mn361 2.117 . S
O387 C364 1.264 . S
C388 C381 1.403 . S
C388 C389 1.399 . S
C388 H394 0.929 . S
C389 C369 1.449 . S
C389 C388 1.399 . S
C389 H395 0.930 . S
H390 C370 0.931 . S
H391 C371 0.930 . S
H392 C379 0.931 . S
H393 C380 0.929 . S
H394 C388 0.929 . S
H395 C389 0.930 . S
Mn396 O401 2.095 . S
Mn396 O411 2.162 . S
Mn396 O412 2.297 . S
Mn396 O420 2.385 . S
Mn396 O421 2.209 . S
Mn396 O422 2.094 . S
Mn397 O402 2.121 . S
Mn397 N404 2.257 . S
Mn397 N413 2.282 . S
Mn397 O421 2.215 . S
Mn397 O423 2.117 . S
C398 O420 1.234 . S
C398 O421 1.283 . S
C399 O411 1.281 . S
C399 O412 1.236 . S
C400 O422 1.240 . S
C400 O423 1.264 . S
O401 Mn396 2.095 . S
O401 C410 1.250 . S
O402 Mn397 2.121 . S
O402 C410 1.258 . S
C403 N404 1.326 . S
C403 C407 1.460 . S
C403 H409 0.929 . S
N404 Mn397 2.257 . S
N404 C403 1.326 . S
N404 C408 1.362 . S
C405 C406 1.258 . S
C405 C408 1.431 . S
C405 C425 1.449 . S
C406 C405 1.258 . S
C406 C407 1.477 . S
C406 H426 0.931 . S
C407 C403 1.460 . S
C407 C406 1.477 . S
C407 H427 0.930 . S
C408 N404 1.362 . S
C408 C405 1.431 . S
C408 C418 1.476 . S
H409 C403 0.929 . S
C410 O401 1.250 . S
C410 O402 1.258 . S
O411 Mn396 2.162 . S
O411 C399 1.281 . S
O412 Mn396 2.297 . S
O412 C399 1.236 . S
N413 Mn397 2.282 . S
N413 C414 1.328 . S
N413 C418 1.318 . S
C414 N413 1.328 . S
C414 C415 1.457 . S
C414 H419 0.929 . S
C415 C414 1.457 . S
C415 C416 1.291 . S
C415 H428 0.931 . S
C416 C415 1.291 . S
C416 C417 1.373 . S
C416 H429 0.929 . S
C417 C416 1.373 . S
C417 C418 1.396 . S
C417 C424 1.403 . S
C418 C408 1.476 . S
C418 N413 1.318 . S
C418 C417 1.396 . S
H419 C414 0.929 . S
O420 Mn396 2.385 . S
O420 C398 1.234 . S
O421 Mn396 2.209 . S
O421 Mn397 2.215 . S
O421 C398 1.283 . S
O422 Mn396 2.094 . S
O422 C400 1.240 . S
O423 Mn397 2.117 . S
O423 C400 1.264 . S
C424 C417 1.403 . S
C424 C425 1.399 . S
C424 H430 0.929 . S
C425 C405 1.449 . S
C425 C424 1.399 . S
C425 H431 0.930 . S
H426 C406 0.931 . S
H427 C407 0.930 . S
H428 C415 0.931 . S
H429 C416 0.929 . S
H430 C424 0.929 . S
H431 C425 0.930 . S
Mn432 O437 2.095 . S
Mn432 O447 2.162 . S
Mn432 O448 2.297 . S
Mn432 O456 2.385 . S
Mn432 O457 2.209 . S
Mn432 O458 2.094 1_455 S
Mn433 O438 2.121 . S
Mn433 N440 2.257 . S
Mn433 N449 2.282 . S
Mn433 O457 2.215 1_655 S
Mn433 O459 2.117 . S
C434 O456 1.234 . S
C434 O457 1.283 . S
C435 O447 1.281 . S
C435 O448 1.236 . S
C436 O458 1.240 . S
C436 O459 1.264 . S
O437 Mn432 2.095 . S
O437 C446 1.250 . S
O438 Mn433 2.121 . S
O438 C446 1.259 1_655 S
C439 N440 1.326 . S
C439 C443 1.460 . S
C439 H445 0.929 . S
N440 Mn433 2.257 . S
N440 C439 1.326 . S
N440 C444 1.362 . S
C441 C442 1.258 . S
C441 C444 1.431 . S
C441 C461 1.449 . S
C442 C441 1.258 . S
C442 C443 1.477 . S
C442 H462 0.931 . S
C443 C439 1.460 . S
C443 C442 1.477 . S
C443 H463 0.930 . S
C444 N440 1.362 . S
C444 C441 1.431 . S
C444 C454 1.476 . S
H445 C439 0.929 . S
C446 O437 1.250 . S
C446 O438 1.259 1_455 S
O447 Mn432 2.162 . S
O447 C435 1.281 . S
O448 Mn432 2.297 . S
O448 C435 1.236 . S
N449 Mn433 2.282 . S
N449 C450 1.328 . S
N449 C454 1.318 . S
C450 N449 1.328 . S
C450 C451 1.457 . S
C450 H455 0.929 . S
C451 C450 1.457 . S
C451 C452 1.291 . S
C451 H464 0.931 . S
C452 C451 1.291 . S
C452 C453 1.373 . S
C452 H465 0.929 . S
C453 C452 1.373 . S
C453 C454 1.396 . S
C453 C460 1.403 . S
C454 C444 1.476 . S
C454 N449 1.318 . S
C454 C453 1.396 . S
H455 C450 0.929 . S
O456 Mn432 2.385 . S
O456 C434 1.234 . S
O457 Mn432 2.209 . S
O457 Mn433 2.215 1_455 S
O457 C434 1.283 . S
O458 Mn432 2.094 1_655 S
O458 C436 1.240 . S
O459 Mn433 2.117 . S
O459 C436 1.264 . S
C460 C453 1.403 . S
C460 C461 1.399 . S
C460 H466 0.929 . S
C461 C441 1.449 . S
C461 C460 1.399 . S
C461 H467 0.930 . S
H462 C442 0.931 . S
H463 C443 0.930 . S
H464 C451 0.931 . S
H465 C452 0.929 . S
H466 C460 0.929 . S
H467 C461 0.930 . S
Mn468 O473 2.101 . S
Mn468 O483 2.162 . S
Mn468 O484 2.297 . S
Mn468 O492 2.385 . S
Mn468 O493 2.216 . S
Mn468 O494 2.094 1_455 S
Mn469 O474 2.121 . S
Mn469 N476 2.257 . S
Mn469 N485 2.282 . S
Mn469 O493 2.176 1_655 S
Mn469 O495 2.117 . S
C470 O492 1.234 . S
C470 O493 1.292 . S
C471 O483 1.281 . S
C471 O484 1.236 . S
C472 O494 1.240 . S
C472 O495 1.264 . S
O473 Mn468 2.101 . S
O473 C482 1.247 1_455 S
O474 Mn469 2.121 . S
O474 C482 1.258 . S
C475 N476 1.326 . S
C475 C479 1.460 . S
C475 H481 0.929 . S
N476 Mn469 2.257 . S
N476 C475 1.326 . S
N476 C480 1.362 . S
C477 C478 1.258 . S
C477 C480 1.431 . S
C477 C497 1.449 . S
C478 C477 1.258 . S
C478 C479 1.477 . S
C478 H498 0.931 . S
C479 C475 1.460 . S
C479 C478 1.477 . S
C479 H499 0.930 . S
C480 N476 1.362 . S
C480 C477 1.431 . S
C480 C490 1.476 . S
H481 C475 0.929 . S
C482 O473 1.247 1_655 S
C482 O474 1.258 . S
O483 Mn468 2.162 . S
O483 C471 1.281 . S
O484 Mn468 2.297 . S
O484 C471 1.236 . S
N485 Mn469 2.282 . S
N485 C486 1.328 . S
N485 C490 1.318 . S
C486 N485 1.328 . S
C486 C487 1.457 . S
C486 H491 0.929 . S
C487 C486 1.457 . S
C487 C488 1.291 . S
C487 H500 0.931 . S
C488 C487 1.291 . S
C488 C489 1.373 . S
C488 H501 0.929 . S
C489 C488 1.373 . S
C489 C490 1.396 . S
C489 C496 1.403 . S
C490 C480 1.476 . S
C490 N485 1.318 . S
C490 C489 1.396 . S
H491 C486 0.929 . S
O492 Mn468 2.385 . S
O492 C470 1.234 . S
O493 Mn468 2.216 . S
O493 Mn469 2.176 1_455 S
O493 C470 1.292 . S
O494 Mn468 2.094 1_655 S
O494 C472 1.240 . S
O495 Mn469 2.117 . S
O495 C472 1.264 . S
C496 C489 1.403 . S
C496 C497 1.399 . S
C496 H502 0.929 . S
C497 C477 1.449 . S
C497 C496 1.399 . S
C497 H503 0.930 . S
H498 C478 0.931 . S
H499 C479 0.930 . S
H500 C487 0.931 . S
H501 C488 0.929 . S
H502 C496 0.929 . S
H503 C497 0.930 . S
Mn504 O509 2.095 . S
Mn504 O519 2.162 . S
Mn504 O520 2.297 . S
Mn504 O528 2.385 . S
Mn504 O529 2.209 . S
Mn504 O530 2.094 . S
Mn505 O510 2.121 . S
Mn505 N512 2.257 . S
Mn505 N521 2.282 . S
Mn505 O529 2.215 . S
Mn505 O531 2.117 . S
C506 O528 1.234 . S
C506 O529 1.283 . S
C507 O519 1.281 . S
C507 O520 1.236 . S
C508 O530 1.240 . S
C508 O531 1.264 . S
O509 Mn504 2.095 . S
O509 C518 1.250 . S
O510 Mn505 2.121 . S
O510 C518 1.258 . S
C511 N512 1.326 . S
C511 C515 1.460 . S
C511 H517 0.929 . S
N512 Mn505 2.257 . S
N512 C511 1.326 . S
N512 C516 1.362 . S
C513 C514 1.258 . S
C513 C516 1.431 . S
C513 C533 1.449 . S
C514 C513 1.258 . S
C514 C515 1.477 . S
C514 H534 0.931 . S
C515 C511 1.460 . S
C515 C514 1.477 . S
C515 H535 0.930 . S
C516 N512 1.362 . S
C516 C513 1.431 . S
C516 C526 1.476 . S
H517 C511 0.929 . S
C518 O509 1.250 . S
C518 O510 1.258 . S
O519 Mn504 2.162 . S
O519 C507 1.281 . S
O520 Mn504 2.297 . S
O520 C507 1.236 . S
N521 Mn505 2.282 . S
N521 C522 1.328 . S
N521 C526 1.318 . S
C522 N521 1.328 . S
C522 C523 1.457 . S
C522 H527 0.929 . S
C523 C522 1.457 . S
C523 C524 1.291 . S
C523 H536 0.931 . S
C524 C523 1.291 . S
C524 C525 1.373 . S
C524 H537 0.929 . S
C525 C524 1.373 . S
C525 C526 1.396 . S
C525 C532 1.403 . S
C526 C516 1.476 . S
C526 N521 1.318 . S
C526 C525 1.396 . S
H527 C522 0.929 . S
O528 Mn504 2.385 . S
O528 C506 1.234 . S
O529 Mn504 2.209 . S
O529 Mn505 2.215 . S
O529 C506 1.283 . S
O530 Mn504 2.094 . S
O530 C508 1.240 . S
O531 Mn505 2.117 . S
O531 C508 1.264 . S
C532 C525 1.403 . S
C532 C533 1.399 . S
C532 H538 0.929 . S
C533 C513 1.449 . S
C533 C532 1.399 . S
C533 H539 0.930 . S
H534 C514 0.931 . S
H535 C515 0.930 . S
H536 C523 0.931 . S
H537 C524 0.929 . S
H538 C532 0.929 . S
H539 C533 0.930 . S
Mn540 O545 2.095 . S
Mn540 O555 2.162 . S
Mn540 O556 2.297 . S
Mn540 O564 2.385 . S
Mn540 O565 2.209 . S
Mn540 O566 2.094 . S
Mn541 O546 2.121 . S
Mn541 N548 2.257 . S
Mn541 N557 2.282 . S
Mn541 O565 2.215 . S
Mn541 O567 2.117 . S
C542 O564 1.234 . S
C542 O565 1.283 . S
C543 O555 1.281 . S
C543 O556 1.236 . S
C544 O566 1.240 . S
C544 O567 1.264 . S
O545 Mn540 2.095 . S
O545 C554 1.250 . S
O546 Mn541 2.121 . S
O546 C554 1.258 . S
C547 N548 1.326 . S
C547 C551 1.460 . S
C547 H553 0.929 . S
N548 Mn541 2.257 . S
N548 C547 1.326 . S
N548 C552 1.362 . S
C549 C550 1.258 . S
C549 C552 1.431 . S
C549 C569 1.449 . S
C550 C549 1.258 . S
C550 C551 1.477 . S
C550 H570 0.931 . S
C551 C547 1.460 . S
C551 C550 1.477 . S
C551 H571 0.930 . S
C552 N548 1.362 . S
C552 C549 1.431 . S
C552 C562 1.476 . S
H553 C547 0.929 . S
C554 O545 1.250 . S
C554 O546 1.258 . S
O555 Mn540 2.162 . S
O555 C543 1.281 . S
O556 Mn540 2.297 . S
O556 C543 1.236 . S
N557 Mn541 2.282 . S
N557 C558 1.328 . S
N557 C562 1.318 . S
C558 N557 1.328 . S
C558 C559 1.457 . S
C558 H563 0.929 . S
C559 C558 1.457 . S
C559 C560 1.291 . S
C559 H572 0.931 . S
C560 C559 1.291 . S
C560 C561 1.373 . S
C560 H573 0.929 . S
C561 C560 1.373 . S
C561 C562 1.396 . S
C561 C568 1.403 . S
C562 C552 1.476 . S
C562 N557 1.318 . S
C562 C561 1.396 . S
H563 C558 0.929 . S
O564 Mn540 2.385 . S
O564 C542 1.234 . S
O565 Mn540 2.209 . S
O565 Mn541 2.215 . S
O565 C542 1.283 . S
O566 Mn540 2.094 . S
O566 C544 1.240 . S
O567 Mn541 2.117 . S
O567 C544 1.264 . S
C568 C561 1.403 . S
C568 C569 1.399 . S
C568 H574 0.929 . S
C569 C549 1.449 . S
C569 C568 1.399 . S
C569 H575 0.930 . S
H570 C550 0.931 . S
H571 C551 0.930 . S
H572 C559 0.931 . S
H573 C560 0.929 . S
H574 C568 0.929 . S
H575 C569 0.930 . S
Mn576 O581 2.150 . S
Mn576 O591 2.165 . S
Mn576 O592 2.297 . S
Mn576 O600 2.326 1_545 S
Mn576 O601 2.183 1_545 S
Mn576 O602 2.094 . S
Mn577 O582 2.127 1_565 S
Mn577 N584 2.255 . S
Mn577 N593 2.276 . S
Mn577 O601 2.212 . S
Mn577 O603 2.117 1_565 S
C578 O600 1.234 . S
C578 O601 1.283 . S
C579 O591 1.281 . S
C579 O592 1.237 . S
C580 O602 1.240 . S
C580 O603 1.265 . S
O581 Mn576 2.150 . S
O581 C590 1.250 . S
O582 Mn577 2.127 1_545 S
O582 C590 1.258 . S
C583 N584 1.326 1_545 S
C583 C587 1.460 1_545 S
C583 H589 0.929 . S
N584 Mn577 2.255 . S
N584 C583 1.326 1_565 S
N584 C588 1.362 . S
C585 C586 1.258 . S
C585 C588 1.431 . S
C585 C605 1.449 . S
C586 C585 1.258 . S
C586 C587 1.477 . S
C586 H606 0.931 . S
C587 C583 1.460 1_565 S
C587 C586 1.477 . S
C587 H607 0.930 1_565 S
C588 N584 1.362 . S
C588 C585 1.431 . S
C588 C598 1.476 . S
H589 C583 0.929 . S
C590 O581 1.250 . S
C590 O582 1.258 . S
O591 Mn576 2.165 . S
O591 C579 1.281 . S
O592 Mn576 2.297 . S
O592 C579 1.237 . S
N593 Mn577 2.276 . S
N593 C594 1.328 . S
N593 C598 1.318 . S
C594 N593 1.328 . S
C594 C595 1.457 . S
C594 H599 0.929 . S
C595 C594 1.457 . S
C595 C596 1.291 . S
C595 H608 0.931 . S
C596 C595 1.291 . S
C596 C597 1.373 . S
C596 H609 0.929 . S
C597 C596 1.373 . S
C597 C598 1.396 . S
C597 C604 1.403 . S
C598 C588 1.476 . S
C598 N593 1.318 . S
C598 C597 1.396 . S
H599 C594 0.929 . S
O600 Mn576 2.326 1_565 S
O600 C578 1.234 . S
O601 Mn576 2.183 1_565 S
O601 Mn577 2.212 . S
O601 C578 1.283 . S
O602 Mn576 2.094 . S
O602 C580 1.240 . S
O603 Mn577 2.117 1_545 S
O603 C580 1.265 . S
C604 C597 1.403 . S
C604 C605 1.399 . S
C604 H610 0.929 . S
C605 C585 1.449 . S
C605 C604 1.399 . S
C605 H611 0.930 . S
H606 C586 0.931 . S
H607 C587 0.930 1_545 S
H608 C595 0.931 . S
H609 C596 0.929 . S
H610 C604 0.929 . S
H611 C605 0.930 . S
Mn612 O617 2.095 . S
Mn612 O627 2.162 . S
Mn612 O628 2.297 . S
Mn612 O636 2.385 . S
Mn612 O637 2.209 . S
Mn612 O638 2.094 . S
Mn613 O618 2.121 . S
Mn613 N620 2.257 . S
Mn613 N629 2.282 . S
Mn613 O637 2.215 . S
Mn613 O639 2.117 . S
C614 O636 1.234 . S
C614 O637 1.283 . S
C615 O627 1.281 . S
C615 O628 1.236 . S
C616 O638 1.240 . S
C616 O639 1.264 . S
O617 Mn612 2.095 . S
O617 C626 1.250 . S
O618 Mn613 2.121 . S
O618 C626 1.258 . S
C619 N620 1.326 . S
C619 C623 1.460 . S
C619 H625 0.929 . S
N620 Mn613 2.257 . S
N620 C619 1.326 . S
N620 C624 1.362 . S
C621 C622 1.258 . S
C621 C624 1.431 . S
C621 C641 1.449 . S
C622 C621 1.258 . S
C622 C623 1.477 . S
C622 H642 0.931 . S
C623 C619 1.460 . S
C623 C622 1.477 . S
C623 H643 0.930 . S
C624 N620 1.362 . S
C624 C621 1.431 . S
C624 C634 1.476 . S
H625 C619 0.929 . S
C626 O617 1.250 . S
C626 O618 1.258 . S
O627 Mn612 2.162 . S
O627 C615 1.281 . S
O628 Mn612 2.297 . S
O628 C615 1.236 . S
N629 Mn613 2.282 . S
N629 C630 1.328 . S
N629 C634 1.318 . S
C630 N629 1.328 . S
C630 C631 1.457 . S
C630 H635 0.929 . S
C631 C630 1.457 . S
C631 C632 1.291 . S
C631 H644 0.931 . S
C632 C631 1.291 . S
C632 C633 1.373 . S
C632 H645 0.929 . S
C633 C632 1.373 . S
C633 C634 1.396 . S
C633 C640 1.403 . S
C634 C624 1.476 . S
C634 N629 1.318 . S
C634 C633 1.396 . S
H635 C630 0.929 . S
O636 Mn612 2.385 . S
O636 C614 1.234 . S
O637 Mn612 2.209 . S
O637 Mn613 2.215 . S
O637 C614 1.283 . S
O638 Mn612 2.094 . S
O638 C616 1.240 . S
O639 Mn613 2.117 . S
O639 C616 1.264 . S
C640 C633 1.403 . S
C640 C641 1.399 . S
C640 H646 0.929 . S
C641 C621 1.449 . S
C641 C640 1.399 . S
C641 H647 0.930 . S
H642 C622 0.931 . S
H643 C623 0.930 . S
H644 C631 0.931 . S
H645 C632 0.929 . S
H646 C640 0.929 . S
H647 C641 0.930 . S
Mn648 O653 2.095 1_545 S
Mn648 O663 2.162 . S
Mn648 O664 2.297 . S
Mn648 O672 2.385 . S
Mn648 O673 2.209 . S
Mn648 O674 2.094 . S
Mn649 O654 2.121 1_545 S
Mn649 N656 2.257 . S
Mn649 N665 2.282 . S
Mn649 O673 2.215 . S
Mn649 O675 2.117 . S
C650 O672 1.234 . S
C650 O673 1.283 . S
C651 O663 1.281 . S
C651 O664 1.236 . S
C652 O674 1.240 . S
C652 O675 1.264 . S
O653 Mn648 2.095 1_565 S
O653 C662 1.250 . S
O654 Mn649 2.121 1_565 S
O654 C662 1.258 . S
C655 N656 1.326 . S
C655 C659 1.460 . S
C655 H661 0.929 1_545 S
N656 Mn649 2.257 . S
N656 C655 1.326 . S
N656 C660 1.362 . S
C657 C658 1.258 . S
C657 C660 1.431 . S
C657 C677 1.449 . S
C658 C657 1.258 . S
C658 C659 1.477 . S
C658 H678 0.931 . S
C659 C655 1.460 . S
C659 C658 1.477 . S
C659 H679 0.930 . S
C660 N656 1.362 . S
C660 C657 1.431 . S
C660 C670 1.476 . S
H661 C655 0.929 1_565 S
C662 O653 1.250 . S
C662 O654 1.258 . S
O663 Mn648 2.162 . S
O663 C651 1.281 . S
O664 Mn648 2.297 . S
O664 C651 1.236 . S
N665 Mn649 2.282 . S
N665 C666 1.328 . S
N665 C670 1.318 . S
C666 N665 1.328 . S
C666 C667 1.457 . S
C666 H671 0.929 . S
C667 C666 1.457 . S
C667 C668 1.291 . S
C667 H680 0.931 . S
C668 C667 1.291 . S
C668 C669 1.373 . S
C668 H681 0.929 . S
C669 C668 1.373 . S
C669 C670 1.396 . S
C669 C676 1.403 . S
C670 C660 1.476 . S
C670 N665 1.318 . S
C670 C669 1.396 . S
H671 C666 0.929 . S
O672 Mn648 2.385 . S
O672 C650 1.234 . S
O673 Mn648 2.209 . S
O673 Mn649 2.215 . S
O673 C650 1.283 . S
O674 Mn648 2.094 . S
O674 C652 1.240 . S
O675 Mn649 2.117 . S
O675 C652 1.264 . S
C676 C669 1.403 . S
C676 C677 1.399 . S
C676 H682 0.929 . S
C677 C657 1.449 . S
C677 C676 1.399 . S
C677 H683 0.930 . S
H678 C658 0.931 . S
H679 C659 0.930 . S
H680 C667 0.931 . S
H681 C668 0.929 . S
H682 C676 0.929 . S
H683 C677 0.930 . S
Mn684 O689 2.095 . S
Mn684 O699 2.162 . S
Mn684 O700 2.297 . S
Mn684 O708 2.385 . S
Mn684 O709 2.209 . S
Mn684 O710 2.094 1_554 S
Mn685 O690 2.121 . S
Mn685 N692 2.257 . S
Mn685 N701 2.282 . S
Mn685 O709 2.215 1_556 S
Mn685 O711 2.117 . S
C686 O708 1.234 . S
C686 O709 1.283 . S
C687 O699 1.281 . S
C687 O700 1.236 . S
C688 O710 1.240 . S
C688 O711 1.264 . S
O689 Mn684 2.095 . S
O689 C698 1.250 . S
O690 Mn685 2.121 . S
O690 C698 1.258 1_556 S
C691 N692 1.326 . S
C691 C695 1.460 . S
C691 H697 0.929 . S
N692 Mn685 2.257 . S
N692 C691 1.326 . S
N692 C696 1.362 . S
C693 C694 1.258 . S
C693 C696 1.431 . S
C693 C713 1.449 . S
C694 C693 1.258 . S
C694 C695 1.477 . S
C694 H714 0.931 . S
C695 C691 1.460 . S
C695 C694 1.477 . S
C695 H715 0.930 . S
C696 N692 1.362 . S
C696 C693 1.431 . S
C696 C706 1.476 . S
H697 C691 0.929 . S
C698 O689 1.250 . S
C698 O690 1.258 1_554 S
O699 Mn684 2.162 . S
O699 C687 1.281 . S
O700 Mn684 2.297 . S
O700 C687 1.236 . S
N701 Mn685 2.282 . S
N701 C702 1.328 . S
N701 C706 1.318 . S
C702 N701 1.328 . S
C702 C703 1.457 . S
C702 H707 0.929 . S
C703 C702 1.457 . S
C703 C704 1.291 . S
C703 H716 0.931 . S
C704 C703 1.291 . S
C704 C705 1.373 . S
C704 H717 0.929 . S
C705 C704 1.373 . S
C705 C706 1.396 . S
C705 C712 1.403 . S
C706 C696 1.476 . S
C706 N701 1.318 . S
C706 C705 1.396 . S
H707 C702 0.929 . S
O708 Mn684 2.385 . S
O708 C686 1.234 . S
O709 Mn684 2.209 . S
O709 Mn685 2.215 1_554 S
O709 C686 1.283 . S
O710 Mn684 2.094 1_556 S
O710 C688 1.240 . S
O711 Mn685 2.117 . S
O711 C688 1.264 . S
C712 C705 1.403 . S
C712 C713 1.399 . S
C712 H718 0.929 . S
C713 C693 1.449 . S
C713 C712 1.399 . S
C713 H719 0.930 . S
H714 C694 0.931 . S
H715 C695 0.930 . S
H716 C703 0.931 . S
H717 C704 0.929 . S
H718 C712 0.929 . S
H719 C713 0.930 . S
Mn720 O725 2.095 1_554 S
Mn720 O735 2.162 . S
Mn720 O736 2.297 . S
Mn720 O744 2.385 . S
Mn720 O745 2.209 1_554 S
Mn720 O746 2.094 1_554 S
Mn721 O726 2.121 . S
Mn721 N728 2.257 . S
Mn721 N737 2.282 . S
Mn721 O745 2.215 . S
Mn721 O747 2.117 . S
C722 O744 1.234 . S
C722 O745 1.283 1_554 S
C723 O735 1.281 . S
C723 O736 1.236 . S
C724 O746 1.240 . S
C724 O747 1.264 . S
O725 Mn720 2.095 1_556 S
O725 C734 1.250 . S
O726 Mn721 2.121 . S
O726 C734 1.258 . S
C727 N728 1.326 . S
C727 C731 1.460 . S
C727 H733 0.929 . S
N728 Mn721 2.257 . S
N728 C727 1.326 . S
N728 C732 1.362 . S
C729 C730 1.258 . S
C729 C732 1.431 . S
C729 C749 1.449 . S
C730 C729 1.258 . S
C730 C731 1.477 . S
C730 H750 0.931 . S
C731 C727 1.460 . S
C731 C730 1.477 . S
C731 H751 0.930 . S
C732 N728 1.362 . S
C732 C729 1.431 . S
C732 C742 1.476 . S
H733 C727 0.929 . S
C734 O725 1.250 . S
C734 O726 1.258 . S
O735 Mn720 2.162 . S
O735 C723 1.281 . S
O736 Mn720 2.297 . S
O736 C723 1.236 . S
N737 Mn721 2.282 . S
N737 C738 1.328 . S
N737 C742 1.318 . S
C738 N737 1.328 . S
C738 C739 1.457 . S
C738 H743 0.929 . S
C739 C738 1.457 . S
C739 C740 1.291 . S
C739 H752 0.931 . S
C740 C739 1.291 . S
C740 C741 1.373 . S
C740 H753 0.929 . S
C741 C740 1.373 . S
C741 C742 1.396 . S
C741 C748 1.403 . S
C742 C732 1.476 . S
C742 N737 1.318 . S
C742 C741 1.396 . S
H743 C738 0.929 . S
O744 Mn720 2.385 . S
O744 C722 1.234 . S
O745 Mn720 2.209 1_556 S
O745 Mn721 2.215 . S
O745 C722 1.283 1_556 S
O746 Mn720 2.094 1_556 S
O746 C724 1.240 . S
O747 Mn721 2.117 . S
O747 C724 1.264 . S
C748 C741 1.403 . S
C748 C749 1.399 . S
C748 H754 0.929 . S
C749 C729 1.449 . S
C749 C748 1.399 . S
C749 H755 0.930 . S
H750 C730 0.931 . S
H751 C731 0.930 . S
H752 C739 0.931 . S
H753 C740 0.929 . S
H754 C748 0.929 . S
H755 C749 0.930 . S
Mn756 O761 2.095 . S
Mn756 O771 2.162 . S
Mn756 O772 2.297 . S
Mn756 O780 2.385 . S
Mn756 O781 2.209 . S
Mn756 O782 2.094 . S
Mn757 O762 2.121 . S
Mn757 N764 2.257 . S
Mn757 N773 2.282 . S
Mn757 O781 2.215 . S
Mn757 O783 2.117 . S
C758 O780 1.234 . S
C758 O781 1.283 . S
C759 O771 1.281 . S
C759 O772 1.236 . S
C760 O782 1.240 . S
C760 O783 1.264 . S
O761 Mn756 2.095 . S
O761 C770 1.250 . S
O762 Mn757 2.121 . S
O762 C770 1.258 . S
C763 N764 1.326 . S
C763 C767 1.460 . S
C763 H769 0.929 . S
N764 Mn757 2.257 . S
N764 C763 1.326 . S
N764 C768 1.362 . S
C765 C766 1.258 . S
C765 C768 1.431 . S
C765 C785 1.449 . S
C766 C765 1.258 . S
C766 C767 1.477 . S
C766 H786 0.931 . S
C767 C763 1.460 . S
C767 C766 1.477 . S
C767 H787 0.930 . S
C768 N764 1.362 . S
C768 C765 1.431 . S
C768 C778 1.476 . S
H769 C763 0.929 . S
C770 O761 1.250 . S
C770 O762 1.258 . S
O771 Mn756 2.162 . S
O771 C759 1.281 . S
O772 Mn756 2.297 . S
O772 C759 1.236 . S
N773 Mn757 2.282 . S
N773 C774 1.328 . S
N773 C778 1.318 . S
C774 N773 1.328 . S
C774 C775 1.457 . S
C774 H779 0.929 . S
C775 C774 1.457 . S
C775 C776 1.291 . S
C775 H788 0.931 . S
C776 C775 1.291 . S
C776 C777 1.373 . S
C776 H789 0.929 . S
C777 C776 1.373 . S
C777 C778 1.396 . S
C777 C784 1.403 . S
C778 C768 1.476 . S
C778 N773 1.318 . S
C778 C777 1.396 . S
H779 C774 0.929 . S
O780 Mn756 2.385 . S
O780 C758 1.234 . S
O781 Mn756 2.209 . S
O781 Mn757 2.215 . S
O781 C758 1.283 . S
O782 Mn756 2.094 . S
O782 C760 1.240 . S
O783 Mn757 2.117 . S
O783 C760 1.264 . S
C784 C777 1.403 . S
C784 C785 1.399 . S
C784 H790 0.929 . S
C785 C765 1.449 . S
C785 C784 1.399 . S
C785 H791 0.930 . S
H786 C766 0.931 . S
H787 C767 0.930 . S
H788 C775 0.931 . S
H789 C776 0.929 . S
H790 C784 0.929 . S
H791 C785 0.930 . S
Mn792 O797 2.095 . S
Mn792 O807 2.162 . S
Mn792 O808 2.297 . S
Mn792 O816 2.385 . S
Mn792 O817 2.209 . S
Mn792 O818 2.094 . S
Mn793 O798 2.121 . S
Mn793 N800 2.257 . S
Mn793 N809 2.282 . S
Mn793 O817 2.215 . S
Mn793 O819 2.117 . S
C794 O816 1.234 . S
C794 O817 1.283 . S
C795 O807 1.281 . S
C795 O808 1.236 . S
C796 O818 1.240 . S
C796 O819 1.264 . S
O797 Mn792 2.095 . S
O797 C806 1.250 . S
O798 Mn793 2.121 . S
O798 C806 1.258 . S
C799 N800 1.326 . S
C799 C803 1.460 . S
C799 H805 0.929 . S
N800 Mn793 2.257 . S
N800 C799 1.326 . S
N800 C804 1.362 . S
C801 C802 1.258 . S
C801 C804 1.431 . S
C801 C821 1.449 . S
C802 C801 1.258 . S
C802 C803 1.477 . S
C802 H822 0.931 . S
C803 C799 1.460 . S
C803 C802 1.477 . S
C803 H823 0.930 . S
C804 N800 1.362 . S
C804 C801 1.431 . S
C804 C814 1.476 . S
H805 C799 0.929 . S
C806 O797 1.250 . S
C806 O798 1.258 . S
O807 Mn792 2.162 . S
O807 C795 1.281 . S
O808 Mn792 2.297 . S
O808 C795 1.236 . S
N809 Mn793 2.282 . S
N809 C810 1.328 . S
N809 C814 1.318 . S
C810 N809 1.328 . S
C810 C811 1.457 . S
C810 H815 0.929 . S
C811 C810 1.457 . S
C811 C812 1.291 . S
C811 H824 0.931 . S
C812 C811 1.291 . S
C812 C813 1.373 . S
C812 H825 0.929 . S
C813 C812 1.373 . S
C813 C814 1.396 . S
C813 C820 1.403 . S
C814 C804 1.476 . S
C814 N809 1.318 . S
C814 C813 1.396 . S
H815 C810 0.929 . S
O816 Mn792 2.385 . S
O816 C794 1.234 . S
O817 Mn792 2.209 . S
O817 Mn793 2.215 . S
O817 C794 1.283 . S
O818 Mn792 2.094 . S
O818 C796 1.240 . S
O819 Mn793 2.117 . S
O819 C796 1.264 . S
C820 C813 1.403 . S
C820 C821 1.399 . S
C820 H826 0.929 . S
C821 C801 1.449 . S
C821 C820 1.399 . S
C821 H827 0.930 . S
H822 C802 0.931 . S
H823 C803 0.930 . S
H824 C811 0.931 . S
H825 C812 0.929 . S
H826 C820 0.929 . S
H827 C821 0.930 . S
Mn828 O833 2.095 . S
Mn828 O843 2.162 . S
Mn828 O844 2.297 . S
Mn828 O852 2.385 . S
Mn828 O853 2.209 . S
Mn828 O854 2.094 . S
Mn829 O834 2.121 . S
Mn829 N836 2.257 . S
Mn829 N845 2.282 . S
Mn829 O853 2.215 . S
Mn829 O855 2.117 . S
C830 O852 1.234 . S
C830 O853 1.283 . S
C831 O843 1.281 . S
C831 O844 1.236 . S
C832 O854 1.240 . S
C832 O855 1.264 . S
O833 Mn828 2.095 . S
O833 C842 1.250 . S
O834 Mn829 2.121 . S
O834 C842 1.258 . S
C835 N836 1.326 . S
C835 C839 1.460 . S
C835 H841 0.929 . S
N836 Mn829 2.257 . S
N836 C835 1.326 . S
N836 C840 1.362 . S
C837 C838 1.258 . S
C837 C840 1.431 . S
C837 C857 1.449 . S
C838 C837 1.258 . S
C838 C839 1.477 . S
C838 H858 0.931 . S
C839 C835 1.460 . S
C839 C838 1.477 . S
C839 H859 0.930 . S
C840 N836 1.362 . S
C840 C837 1.431 . S
C840 C850 1.476 . S
H841 C835 0.929 . S
C842 O833 1.250 . S
C842 O834 1.258 . S
O843 Mn828 2.162 . S
O843 C831 1.281 . S
O844 Mn828 2.297 . S
O844 C831 1.236 . S
N845 Mn829 2.282 . S
N845 C846 1.328 . S
N845 C850 1.318 . S
C846 N845 1.328 . S
C846 C847 1.457 . S
C846 H851 0.929 . S
C847 C846 1.457 . S
C847 C848 1.291 . S
C847 H860 0.931 . S
C848 C847 1.291 . S
C848 C849 1.373 . S
C848 H861 0.929 . S
C849 C848 1.373 . S
C849 C850 1.396 . S
C849 C856 1.403 . S
C850 C840 1.476 . S
C850 N845 1.318 . S
C850 C849 1.396 . S
H851 C846 0.929 . S
O852 Mn828 2.385 . S
O852 C830 1.234 . S
O853 Mn828 2.209 . S
O853 Mn829 2.215 . S
O853 C830 1.283 . S
O854 Mn828 2.094 . S
O854 C832 1.240 . S
O855 Mn829 2.117 . S
O855 C832 1.264 . S
C856 C849 1.403 . S
C856 C857 1.399 . S
C856 H862 0.929 . S
C857 C837 1.449 . S
C857 C856 1.399 . S
C857 H863 0.930 . S
H858 C838 0.931 . S
H859 C839 0.930 . S
H860 C847 0.931 . S
H861 C848 0.929 . S
H862 C856 0.929 . S
H863 C857 0.930 . S
O864 Mn865 2.163 . S
O864 C878 1.244 . S
Mn865 O864 2.163 . S
Mn865 O868 2.160 1_445 S
Mn865 O869 2.221 1_455 S
Mn865 O871 2.163 1_454 S
Mn865 O873 2.160 1_545 S
Mn865 O883 2.233 1_545 S
O866 Mn867 2.044 1_546 S
O866 C878 1.272 1_556 S
Mn867 O866 2.044 1_564 S
Mn867 O874 2.089 . S
Mn867 O883 2.310 . S
Mn867 O884 2.251 1_554 S
O868 Mn865 2.160 1_665 S
O868 C879 1.239 . S
O869 Mn865 2.221 1_655 S
O869 Mn870 2.264 1_554 S
O869 C880 1.278 . S
Mn870 O869 2.264 1_556 S
Mn870 O872 2.083 1_556 S
Mn870 O875 2.243 1_556 S
Mn870 O876 2.133 . S
O871 Mn865 2.163 1_656 S
O871 C881 1.244 . S
O872 Mn870 2.083 1_554 S
O872 C879 1.256 1_545 S
O873 Mn865 2.160 1_565 S
O873 C882 1.239 . S
O874 Mn867 2.089 . S
O874 C882 1.256 . S
O875 Mn870 2.243 1_554 S
O875 C880 1.241 . S
O876 Mn870 2.133 . S
O876 C881 1.256 . S
C877 O883 1.236 1_556 S
C877 O884 1.241 . S
C878 O864 1.244 . S
C878 O866 1.272 1_554 S
C879 O868 1.239 . S
C879 O872 1.256 1_565 S
C880 O869 1.278 . S
C880 O875 1.241 . S
C881 O871 1.244 . S
C881 O876 1.256 . S
C882 O873 1.239 . S
C882 O874 1.256 . S
O883 Mn865 2.233 1_565 S
O883 Mn867 2.310 . S
O883 C877 1.236 1_554 S
O884 Mn867 2.251 1_556 S
O884 C877 1.241 . S
O885 Mn886 2.163 . S
O885 C899 1.244 . S
Mn886 O885 2.163 . S
Mn886 O889 2.160 . S
Mn886 O890 2.221 . S
Mn886 O892 2.163 . S
Mn886 O894 2.160 . S
Mn886 O904 2.221 . S
O887 Mn888 2.087 . S
O887 C899 1.256 . S
Mn888 O887 2.087 . S
Mn888 O895 2.089 . S
Mn888 O904 2.290 . S
Mn888 O905 2.251 . S
O889 Mn886 2.160 . S
O889 C900 1.239 . S
O890 Mn886 2.221 . S
O890 Mn891 2.290 . S
O890 C901 1.278 . S
Mn891 O890 2.290 . S
Mn891 O893 2.089 . S
Mn891 O896 2.251 . S
Mn891 O897 2.087 . S
O892 Mn886 2.163 . S
O892 C902 1.244 . S
O893 Mn891 2.089 . S
O893 C900 1.256 . S
O894 Mn886 2.160 . S
O894 C903 1.239 . S
O895 Mn888 2.089 . S
O895 C903 1.256 . S
O896 Mn891 2.251 . S
O896 C901 1.241 . S
O897 Mn891 2.087 . S
O897 C902 1.256 . S
C898 O904 1.278 . S
C898 O905 1.241 . S
C899 O885 1.244 . S
C899 O887 1.256 . S
C900 O889 1.239 . S
C900 O893 1.256 . S
C901 O890 1.278 . S
C901 O896 1.241 . S
C902 O892 1.244 . S
C902 O897 1.256 . S
C903 O894 1.239 . S
C903 O895 1.256 . S
O904 Mn886 2.221 . S
O904 Mn888 2.290 . S
O904 C898 1.278 . S
O905 Mn888 2.251 . S
O905 C898 1.241 . S
O906 Mn907 2.163 1_565 S
O906 C920 1.244 . S
Mn907 O906 2.163 1_545 S
Mn907 O910 2.160 . S
Mn907 O911 2.221 1_545 S
Mn907 O913 2.163 . S
Mn907 O915 2.160 . S
Mn907 O925 2.221 . S
O908 Mn909 2.087 . S
O908 C920 1.256 1_545 S
Mn909 O908 2.087 . S
Mn909 O916 2.089 . S
Mn909 O925 2.290 . S
Mn909 O926 2.251 . S
O910 Mn907 2.160 . S
O910 C921 1.239 . S
O911 Mn907 2.221 1_565 S
O911 Mn912 2.290 . S
O911 C922 1.278 . S
Mn912 O911 2.290 . S
Mn912 O914 2.089 1_565 S
Mn912 O917 2.251 . S
Mn912 O918 2.087 . S
O913 Mn907 2.163 . S
O913 C923 1.244 1_545 S
O914 Mn912 2.089 1_545 S
O914 C921 1.256 . S
O915 Mn907 2.160 . S
O915 C924 1.239 . S
O916 Mn909 2.089 . S
O916 C924 1.256 . S
O917 Mn912 2.251 . S
O917 C922 1.241 . S
O918 Mn912 2.087 . S
O918 C923 1.256 . S
C919 O925 1.278 . S
C919 O926 1.241 . S
C920 O906 1.244 . S
C920 O908 1.256 1_565 S
C921 O910 1.239 . S
C921 O914 1.256 . S
C922 O911 1.278 . S
C922 O917 1.241 . S
C923 O913 1.244 1_565 S
C923 O918 1.256 . S
C924 O915 1.239 . S
C924 O916 1.256 . S
O925 Mn907 2.221 . S
O925 Mn909 2.290 . S
O925 C919 1.278 . S
O926 Mn909 2.251 . S
O926 C919 1.241 . S
O927 Mn928 2.163 . S
O927 C941 1.244 . S
Mn928 O927 2.163 . S
Mn928 O931 2.160 . S
Mn928 O932 2.221 . S
Mn928 O934 2.163 . S
Mn928 O936 2.160 . S
Mn928 O946 2.221 . S
O929 Mn930 2.087 . S
O929 C941 1.256 . S
Mn930 O929 2.087 . S
Mn930 O937 2.089 . S
Mn930 O946 2.290 . S
Mn930 O947 2.251 . S
O931 Mn928 2.160 . S
O931 C942 1.239 . S
O932 Mn928 2.221 . S
O932 Mn933 2.290 . S
O932 C943 1.278 . S
Mn933 O932 2.290 . S
Mn933 O935 2.089 . S
Mn933 O938 2.251 . S
Mn933 O939 2.087 . S
O934 Mn928 2.163 . S
O934 C944 1.244 . S
O935 Mn933 2.089 . S
O935 C942 1.256 . S
O936 Mn928 2.160 . S
O936 C945 1.239 . S
O937 Mn930 2.089 . S
O937 C945 1.256 . S
O938 Mn933 2.251 . S
O938 C943 1.241 . S
O939 Mn933 2.087 . S
O939 C944 1.256 . S
C940 O946 1.278 . S
C940 O947 1.241 . S
C941 O927 1.244 . S
C941 O929 1.256 . S
C942 O931 1.239 . S
C942 O935 1.256 . S
C943 O932 1.278 . S
C943 O938 1.241 . S
C944 O934 1.244 . S
C944 O939 1.256 . S
C945 O936 1.239 . S
C945 O937 1.256 . S
O946 Mn928 2.221 . S
O946 Mn930 2.290 . S
O946 C940 1.278 . S
O947 Mn930 2.251 . S
O947 C940 1.241 . S
O948 Mn949 2.163 1_565 S
O948 C962 1.250 . S
Mn949 O948 2.163 1_545 S
Mn949 O952 2.160 . S
Mn949 O953 2.221 . S
Mn949 O955 2.163 1_455 S
Mn949 O957 2.160 1_545 S
Mn949 O967 2.221 1_545 S
O950 Mn951 2.080 1_655 S
O950 C962 1.254 1_655 S
Mn951 O950 2.080 1_455 S
Mn951 O958 2.089 . S
Mn951 O967 2.290 . S
Mn951 O968 2.251 1_455 S
O952 Mn949 2.160 . S
O952 C963 1.239 . S
O953 Mn949 2.221 . S
O953 Mn954 2.294 . S
O953 C964 1.278 . S
Mn954 O953 2.294 . S
Mn954 O956 2.090 . S
Mn954 O959 2.253 . S
Mn954 O960 2.080 1_455 S
O955 Mn949 2.163 1_655 S
O955 C965 1.244 . S
O956 Mn954 2.090 . S
O956 C963 1.256 . S
O957 Mn949 2.160 1_565 S
O957 C966 1.239 . S
O958 Mn951 2.089 . S
O958 C966 1.256 . S
O959 Mn954 2.253 . S
O959 C964 1.241 . S
O960 Mn954 2.080 1_655 S
O960 C965 1.256 . S
C961 O967 1.278 1_655 S
C961 O968 1.241 . S
C962 O948 1.250 . S
C962 O950 1.254 1_455 S
C963 O952 1.239 . S
C963 O956 1.256 . S
C964 O953 1.278 . S
C964 O959 1.241 . S
C965 O955 1.244 . S
C965 O960 1.256 . S
C966 O957 1.239 . S
C966 O958 1.256 . S
O967 Mn949 2.221 1_565 S
O967 Mn951 2.290 . S
O967 C961 1.278 1_455 S
O968 Mn951 2.251 1_655 S
O968 C961 1.241 . S
O969 Mn970 2.163 . S
O969 C983 1.244 . S
Mn970 O969 2.163 . S
Mn970 O973 2.160 . S
Mn970 O974 2.221 . S
Mn970 O976 2.163 . S
Mn970 O978 2.160 . S
Mn970 O988 2.221 . S
O971 Mn972 2.087 . S
O971 C983 1.256 . S
Mn972 O971 2.087 . S
Mn972 O979 2.089 . S
Mn972 O988 2.290 . S
Mn972 O989 2.251 . S
O973 Mn970 2.160 . S
O973 C984 1.239 . S
O974 Mn970 2.221 . S
O974 Mn975 2.290 . S
O974 C985 1.278 . S
Mn975 O974 2.290 . S
Mn975 O977 2.089 . S
Mn975 O980 2.251 . S
Mn975 O981 2.087 . S
O976 Mn970 2.163 . S
O976 C986 1.244 . S
O977 Mn975 2.089 . S
O977 C984 1.256 . S
O978 Mn970 2.160 . S
O978 C987 1.239 . S
O979 Mn972 2.089 . S
O979 C987 1.256 . S
O980 Mn975 2.251 . S
O980 C985 1.241 . S
O981 Mn975 2.087 . S
O981 C986 1.256 . S
C982 O988 1.278 . S
C982 O989 1.241 . S
C983 O969 1.244 . S
C983 O971 1.256 . S
C984 O973 1.239 . S
C984 O977 1.256 . S
C985 O974 1.278 . S
C985 O980 1.241 . S
C986 O976 1.244 . S
C986 O981 1.256 . S
C987 O978 1.239 . S
C987 O979 1.256 . S
O988 Mn970 2.221 . S
O988 Mn972 2.290 . S
O988 C982 1.278 . S
O989 Mn972 2.251 . S
O989 C982 1.241 . S
O990 Mn991 2.174 1_556 S
O990 C1004 1.238 1_545 S
Mn991 O990 2.174 1_554 S
Mn991 O994 2.160 . S
Mn991 O995 2.221 . S
Mn991 O997 2.163 1_545 S
Mn991 O999 2.160 1_554 S
Mn991 O1009 2.223 1_554 S
O992 Mn993 2.087 1_565 S
O992 C1004 1.256 . S
Mn993 O992 2.087 1_545 S
Mn993 O1000 2.089 . S
Mn993 O1009 2.293 . S
Mn993 O1010 2.251 1_545 S
O994 Mn991 2.160 . S
O994 C1005 1.239 . S
O995 Mn991 2.221 . S
O995 Mn996 2.290 1_545 S
O995 C1006 1.278 . S
Mn996 O995 2.290 1_565 S
Mn996 O998 2.089 1_565 S
Mn996 O1001 2.251 1_565 S
Mn996 O1002 2.087 . S
O997 Mn991 2.163 1_565 S
O997 C1007 1.244 . S
O998 Mn996 2.089 1_545 S
O998 C1005 1.256 . S
O999 Mn991 2.160 1_556 S
O999 C1008 1.239 . S
O1000 Mn993 2.089 . S
O1000 C1008 1.256 . S
O1001 Mn996 2.251 1_545 S
O1001 C1006 1.241 . S
O1002 Mn996 2.087 . S
O1002 C1007 1.256 . S
C1003 O1009 1.271 1_565 S
C1003 O1010 1.241 . S
C1004 O990 1.238 1_565 S
C1004 O992 1.256 . S
C1005 O994 1.239 . S
C1005 O998 1.256 . S
C1006 O995 1.278 . S
C1006 O1001 1.241 . S
C1007 O997 1.244 . S
C1007 O1002 1.256 . S
C1008 O999 1.239 . S
C1008 O1000 1.256 . S
O1009 Mn991 2.223 1_556 S
O1009 Mn993 2.293 . S
O1009 C1003 1.271 1_545 S
O1010 Mn993 2.251 1_565 S
O1010 C1003 1.241 . S
O1011 Mn1012 2.163 . S
O1011 C1025 1.244 . S
Mn1012 O1011 2.163 . S
Mn1012 O1015 2.160 . S
Mn1012 O1016 2.221 . S
Mn1012 O1018 2.163 . S
Mn1012 O1020 2.160 . S
Mn1012 O1030 2.221 . S
O1013 Mn1014 2.087 . S
O1013 C1025 1.256 . S
Mn1014 O1013 2.087 . S
Mn1014 O1021 2.089 . S
Mn1014 O1030 2.290 . S
Mn1014 O1031 2.251 . S
O1015 Mn1012 2.160 . S
O1015 C1026 1.239 . S
O1016 Mn1012 2.221 . S
O1016 Mn1017 2.290 . S
O1016 C1027 1.278 . S
Mn1017 O1016 2.290 . S
Mn1017 O1019 2.089 . S
Mn1017 O1022 2.251 . S
Mn1017 O1023 2.087 . S
O1018 Mn1012 2.163 . S
O1018 C1028 1.244 . S
O1019 Mn1017 2.089 . S
O1019 C1026 1.256 . S
O1020 Mn1012 2.160 . S
O1020 C1029 1.239 . S
O1021 Mn1014 2.089 . S
O1021 C1029 1.256 . S
O1022 Mn1017 2.251 . S
O1022 C1027 1.241 . S
O1023 Mn1017 2.087 . S
O1023 C1028 1.256 . S
C1024 O1030 1.278 . S
C1024 O1031 1.241 . S
C1025 O1011 1.244 . S
C1025 O1013 1.256 . S
C1026 O1015 1.239 . S
C1026 O1019 1.256 . S
C1027 O1016 1.278 . S
C1027 O1022 1.241 . S
C1028 O1018 1.244 . S
C1028 O1023 1.256 . S
C1029 O1020 1.239 . S
C1029 O1021 1.256 . S
O1030 Mn1012 2.221 . S
O1030 Mn1014 2.290 . S
O1030 C1024 1.278 . S
O1031 Mn1014 2.251 . S
O1031 C1024 1.241 . S
O1032 Mn1033 2.163 1_556 S
O1032 C1046 1.244 . S
Mn1033 O1032 2.163 1_554 S
Mn1033 O1036 2.160 . S
Mn1033 O1037 2.221 1_554 S
Mn1033 O1039 2.163 . S
Mn1033 O1041 2.160 . S
Mn1033 O1051 2.221 . S
O1034 Mn1035 2.087 . S
O1034 C1046 1.256 1_554 S
Mn1035 O1034 2.087 . S
Mn1035 O1042 2.089 . S
Mn1035 O1051 2.290 . S
Mn1035 O1052 2.251 . S
O1036 Mn1033 2.160 . S
O1036 C1047 1.239 . S
O1037 Mn1033 2.221 1_556 S
O1037 Mn1038 2.290 . S
O1037 C1048 1.278 . S
Mn1038 O1037 2.290 . S
Mn1038 O1040 2.089 1_556 S
Mn1038 O1043 2.251 . S
Mn1038 O1044 2.087 . S
O1039 Mn1033 2.163 . S
O1039 C1049 1.244 1_554 S
O1040 Mn1038 2.089 1_554 S
O1040 C1047 1.256 . S
O1041 Mn1033 2.160 . S
O1041 C1050 1.239 . S
O1042 Mn1035 2.089 . S
O1042 C1050 1.256 . S
O1043 Mn1038 2.251 . S
O1043 C1048 1.241 . S
O1044 Mn1038 2.087 . S
O1044 C1049 1.256 . S
C1045 O1051 1.278 . S
C1045 O1052 1.241 . S
C1046 O1032 1.244 . S
C1046 O1034 1.256 1_556 S
C1047 O1036 1.239 . S
C1047 O1040 1.256 . S
C1048 O1037 1.278 . S
C1048 O1043 1.241 . S
C1049 O1039 1.244 1_556 S
C1049 O1044 1.256 . S
C1050 O1041 1.239 . S
C1050 O1042 1.256 . S
O1051 Mn1033 2.221 . S
O1051 Mn1035 2.290 . S
O1051 C1045 1.278 . S
O1052 Mn1035 2.251 . S
O1052 C1045 1.241 . S
O1053 Mn1054 2.163 . S
O1053 C1067 1.244 . S
Mn1054 O1053 2.163 . S
Mn1054 O1057 2.160 . S
Mn1054 O1058 2.221 . S
Mn1054 O1060 2.163 . S
Mn1054 O1062 2.160 . S
Mn1054 O1072 2.221 . S
O1055 Mn1056 2.087 . S
O1055 C1067 1.256 . S
Mn1056 O1055 2.087 . S
Mn1056 O1063 2.089 . S
Mn1056 O1072 2.290 . S
Mn1056 O1073 2.251 . S
O1057 Mn1054 2.160 . S
O1057 C1068 1.239 . S
O1058 Mn1054 2.221 . S
O1058 Mn1059 2.290 . S
O1058 C1069 1.278 . S
Mn1059 O1058 2.290 . S
Mn1059 O1061 2.089 . S
Mn1059 O1064 2.251 . S
Mn1059 O1065 2.087 . S
O1060 Mn1054 2.163 . S
O1060 C1070 1.244 . S
O1061 Mn1059 2.089 . S
O1061 C1068 1.256 . S
O1062 Mn1054 2.160 . S
O1062 C1071 1.239 . S
O1063 Mn1056 2.089 . S
O1063 C1071 1.256 . S
O1064 Mn1059 2.251 . S
O1064 C1069 1.241 . S
O1065 Mn1059 2.087 . S
O1065 C1070 1.256 . S
C1066 O1072 1.278 . S
C1066 O1073 1.241 . S
C1067 O1053 1.244 . S
C1067 O1055 1.256 . S
C1068 O1057 1.239 . S
C1068 O1061 1.256 . S
C1069 O1058 1.278 . S
C1069 O1064 1.241 . S
C1070 O1060 1.244 . S
C1070 O1065 1.256 . S
C1071 O1062 1.239 . S
C1071 O1063 1.256 . S
O1072 Mn1054 2.221 . S
O1072 Mn1056 2.290 . S
O1072 C1066 1.278 . S
O1073 Mn1056 2.251 . S
O1073 C1066 1.241 . S
O1074 Mn1075 2.163 1_655 S
O1074 C1088 1.244 . S
Mn1075 O1074 2.163 1_455 S
Mn1075 O1078 2.160 . S
Mn1075 O1079 2.221 1_455 S
Mn1075 O1081 2.163 . S
Mn1075 O1083 2.160 . S
Mn1075 O1093 2.221 . S
O1076 Mn1077 2.087 . S
O1076 C1088 1.256 1_455 S
Mn1077 O1076 2.087 . S
Mn1077 O1084 2.089 . S
Mn1077 O1093 2.290 . S
Mn1077 O1094 2.251 . S
O1078 Mn1075 2.160 . S
O1078 C1089 1.239 . S
O1079 Mn1075 2.221 1_655 S
O1079 Mn1080 2.290 . S
O1079 C1090 1.278 . S
Mn1080 O1079 2.290 . S
Mn1080 O1082 2.069 1_655 S
Mn1080 O1085 2.251 . S
Mn1080 O1086 2.087 . S
O1081 Mn1075 2.163 . S
O1081 C1091 1.244 1_455 S
O1082 Mn1080 2.069 1_455 S
O1082 C1089 1.273 . S
O1083 Mn1075 2.160 . S
O1083 C1092 1.239 . S
O1084 Mn1077 2.089 . S
O1084 C1092 1.256 . S
O1085 Mn1080 2.251 . S
O1085 C1090 1.241 . S
O1086 Mn1080 2.087 . S
O1086 C1091 1.256 . S
C1087 O1093 1.278 . S
C1087 O1094 1.241 . S
C1088 O1074 1.244 . S
C1088 O1076 1.256 1_655 S
C1089 O1078 1.239 . S
C1089 O1082 1.273 . S
C1090 O1079 1.278 . S
C1090 O1085 1.241 . S
C1091 O1081 1.244 1_655 S
C1091 O1086 1.256 . S
C1092 O1083 1.239 . S
C1092 O1084 1.256 . S
O1093 Mn1075 2.221 . S
O1093 Mn1077 2.290 . S
O1093 C1087 1.278 . S
O1094 Mn1077 2.251 . S
O1094 C1087 1.241 . S
O1095 Mn1096 2.163 . S
O1095 C1109 1.244 . S
Mn1096 O1095 2.163 . S
Mn1096 O1099 2.160 . S
Mn1096 O1100 2.221 . S
Mn1096 O1102 2.163 . S
Mn1096 O1104 2.160 . S
Mn1096 O1114 2.221 . S
O1097 Mn1098 2.087 . S
O1097 C1109 1.256 . S
Mn1098 O1097 2.087 . S
Mn1098 O1105 2.089 . S
Mn1098 O1114 2.290 . S
Mn1098 O1115 2.251 . S
O1099 Mn1096 2.160 . S
O1099 C1110 1.239 . S
O1100 Mn1096 2.221 . S
O1100 Mn1101 2.290 . S
O1100 C1111 1.278 . S
Mn1101 O1100 2.290 . S
Mn1101 O1103 2.089 . S
Mn1101 O1106 2.251 . S
Mn1101 O1107 2.087 . S
O1102 Mn1096 2.163 . S
O1102 C1112 1.244 . S
O1103 Mn1101 2.089 . S
O1103 C1110 1.256 . S
O1104 Mn1096 2.160 . S
O1104 C1113 1.239 . S
O1105 Mn1098 2.089 . S
O1105 C1113 1.256 . S
O1106 Mn1101 2.251 . S
O1106 C1111 1.241 . S
O1107 Mn1101 2.087 . S
O1107 C1112 1.256 . S
C1108 O1114 1.278 . S
C1108 O1115 1.241 . S
C1109 O1095 1.244 . S
C1109 O1097 1.256 . S
C1110 O1099 1.239 . S
C1110 O1103 1.256 . S
C1111 O1100 1.278 . S
C1111 O1106 1.241 . S
C1112 O1102 1.244 . S
C1112 O1107 1.256 . S
C1113 O1104 1.239 . S
C1113 O1105 1.256 . S
O1114 Mn1096 2.221 . S
O1114 Mn1098 2.290 . S
O1114 C1108 1.278 . S
O1115 Mn1098 2.251 . S
O1115 C1108 1.241 . S
O1116 Mn1117 2.163 . S
O1116 C1130 1.244 . S
Mn1117 O1116 2.163 . S
Mn1117 O1120 2.160 . S
Mn1117 O1121 2.221 . S
Mn1117 O1123 2.163 . S
Mn1117 O1125 2.160 . S
Mn1117 O1135 2.221 . S
O1118 Mn1119 2.087 . S
O1118 C1130 1.256 . S
Mn1119 O1118 2.087 . S
Mn1119 O1126 2.089 . S
Mn1119 O1135 2.290 . S
Mn1119 O1136 2.251 . S
O1120 Mn1117 2.160 . S
O1120 C1131 1.239 . S
O1121 Mn1117 2.221 . S
O1121 Mn1122 2.290 . S
O1121 C1132 1.278 . S
Mn1122 O1121 2.290 . S
Mn1122 O1124 2.089 . S
Mn1122 O1127 2.251 . S
Mn1122 O1128 2.087 . S
O1123 Mn1117 2.163 . S
O1123 C1133 1.244 . S
O1124 Mn1122 2.089 . S
O1124 C1131 1.256 . S
O1125 Mn1117 2.160 . S
O1125 C1134 1.239 . S
O1126 Mn1119 2.089 . S
O1126 C1134 1.256 . S
O1127 Mn1122 2.251 . S
O1127 C1132 1.241 . S
O1128 Mn1122 2.087 . S
O1128 C1133 1.256 . S
C1129 O1135 1.278 . S
C1129 O1136 1.241 . S
C1130 O1116 1.244 . S
C1130 O1118 1.256 . S
C1131 O1120 1.239 . S
C1131 O1124 1.256 . S
C1132 O1121 1.278 . S
C1132 O1127 1.241 . S
C1133 O1123 1.244 . S
C1133 O1128 1.256 . S
C1134 O1125 1.239 . S
C1134 O1126 1.256 . S
O1135 Mn1117 2.221 . S
O1135 Mn1119 2.290 . S
O1135 C1129 1.278 . S
O1136 Mn1119 2.251 . S
O1136 C1129 1.241 . S
O1137 Mn1138 2.163 . S
O1137 C1151 1.244 . S
Mn1138 O1137 2.163 . S
Mn1138 O1141 2.160 . S
Mn1138 O1142 2.221 . S
Mn1138 O1144 2.163 . S
Mn1138 O1146 2.160 . S
Mn1138 O1156 2.221 . S
O1139 Mn1140 2.087 . S
O1139 C1151 1.256 . S
Mn1140 O1139 2.087 . S
Mn1140 O1147 2.089 . S
Mn1140 O1156 2.290 . S
Mn1140 O1157 2.251 . S
O1141 Mn1138 2.160 . S
O1141 C1152 1.239 . S
O1142 Mn1138 2.221 . S
O1142 Mn1143 2.290 . S
O1142 C1153 1.278 . S
Mn1143 O1142 2.290 . S
Mn1143 O1145 2.089 . S
Mn1143 O1148 2.251 . S
Mn1143 O1149 2.087 . S
O1144 Mn1138 2.163 . S
O1144 C1154 1.244 . S
O1145 Mn1143 2.089 . S
O1145 C1152 1.256 . S
O1146 Mn1138 2.160 . S
O1146 C1155 1.239 . S
O1147 Mn1140 2.089 . S
O1147 C1155 1.256 . S
O1148 Mn1143 2.251 . S
O1148 C1153 1.241 . S
O1149 Mn1143 2.087 . S
O1149 C1154 1.256 . S
C1150 O1156 1.278 . S
C1150 O1157 1.241 . S
C1151 O1137 1.244 . S
C1151 O1139 1.256 . S
C1152 O1141 1.239 . S
C1152 O1145 1.256 . S
C1153 O1142 1.278 . S
C1153 O1148 1.241 . S
C1154 O1144 1.244 . S
C1154 O1149 1.256 . S
C1155 O1146 1.239 . S
C1155 O1147 1.256 . S
O1156 Mn1138 2.221 . S
O1156 Mn1140 2.290 . S
O1156 C1150 1.278 . S
O1157 Mn1140 2.251 . S
O1157 C1150 1.241 . S
O1158 Mn1159 2.163 . S
O1158 C1172 1.244 . S
Mn1159 O1158 2.163 . S
Mn1159 O1162 2.160 . S
Mn1159 O1163 2.221 . S
Mn1159 O1165 2.163 . S
Mn1159 O1167 2.160 . S
Mn1159 O1177 2.221 . S
O1160 Mn1161 2.087 . S
O1160 C1172 1.256 . S
Mn1161 O1160 2.087 . S
Mn1161 O1168 2.089 . S
Mn1161 O1177 2.290 . S
Mn1161 O1178 2.251 . S
O1162 Mn1159 2.160 . S
O1162 C1173 1.239 . S
O1163 Mn1159 2.221 . S
O1163 Mn1164 2.290 . S
O1163 C1174 1.278 . S
Mn1164 O1163 2.290 . S
Mn1164 O1166 2.089 . S
Mn1164 O1169 2.251 . S
Mn1164 O1170 2.087 . S
O1165 Mn1159 2.163 . S
O1165 C1175 1.244 . S
O1166 Mn1164 2.089 . S
O1166 C1173 1.256 . S
O1167 Mn1159 2.160 . S
O1167 C1176 1.239 . S
O1168 Mn1161 2.089 . S
O1168 C1176 1.256 . S
O1169 Mn1164 2.251 . S
O1169 C1174 1.241 . S
O1170 Mn1164 2.087 . S
O1170 C1175 1.256 . S
C1171 O1177 1.278 . S
C1171 O1178 1.241 . S
C1172 O1158 1.244 . S
C1172 O1160 1.256 . S
C1173 O1162 1.239 . S
C1173 O1166 1.256 . S
C1174 O1163 1.278 . S
C1174 O1169 1.241 . S
C1175 O1165 1.244 . S
C1175 O1170 1.256 . S
C1176 O1167 1.239 . S
C1176 O1168 1.256 . S
O1177 Mn1159 2.221 . S
O1177 Mn1161 2.290 . S
O1177 C1171 1.278 . S
O1178 Mn1161 2.251 . S
O1178 C1171 1.241 . S
O1179 Mn1180 2.168 1_655 S
O1179 C1193 1.241 1_554 S
Mn1180 O1179 2.168 1_455 S
Mn1180 O1183 2.160 . S
Mn1180 O1184 2.221 . S
Mn1180 O1186 2.163 1_554 S
Mn1180 O1188 2.160 1_455 S
Mn1180 O1198 2.214 1_454 S
O1181 Mn1182 2.087 1_556 S
O1181 C1193 1.256 . S
Mn1182 O1181 2.087 1_554 S
Mn1182 O1189 2.089 . S
Mn1182 O1198 2.277 1_554 S
Mn1182 O1199 2.251 1_554 S
O1183 Mn1180 2.160 . S
O1183 C1194 1.239 . S
O1184 Mn1180 2.221 . S
O1184 Mn1185 2.290 1_554 S
O1184 C1195 1.278 . S
Mn1185 O1184 2.290 1_556 S
Mn1185 O1187 2.084 1_556 S
Mn1185 O1190 2.251 1_556 S
Mn1185 O1191 2.087 . S
O1186 Mn1180 2.163 1_556 S
O1186 C1196 1.244 . S
O1187 Mn1185 2.084 1_554 S
O1187 C1194 1.276 . S
O1188 Mn1180 2.160 1_655 S
O1188 C1197 1.239 . S
O1189 Mn1182 2.089 . S
O1189 C1197 1.256 . S
O1190 Mn1185 2.251 1_554 S
O1190 C1195 1.241 . S
O1191 Mn1185 2.087 . S
O1191 C1196 1.256 . S
C1192 O1198 1.307 . S
C1192 O1199 1.241 . S
C1193 O1179 1.241 1_556 S
C1193 O1181 1.256 . S
C1194 O1183 1.239 . S
C1194 O1187 1.276 . S
C1195 O1184 1.278 . S
C1195 O1190 1.241 . S
C1196 O1186 1.244 . S
C1196 O1191 1.256 . S
C1197 O1188 1.239 . S
C1197 O1189 1.256 . S
O1198 Mn1180 2.214 1_656 S
O1198 Mn1182 2.277 1_556 S
O1198 C1192 1.307 . S
O1199 Mn1182 2.251 1_556 S
O1199 C1192 1.241 . S
C1200 C1201 1.349 . S
C1200 C1202 1.327 . S
C1200 H1225 0.950 . S
C1201 C1200 1.349 . S
C1201 C1217 1.349 1_455 S
C1202 C1200 1.327 . S
C1202 C1221 1.429 . S
C1202 H1226 0.950 . S
C1203 C1220 1.574 . S
C1203 C1222 1.368 1_655 S
C1203 H1227 0.949 . S
H1204 C1208 0.949 . S
C1205 C1206 1.349 . S
C1205 C1207 1.327 . S
C1205 H1228 0.950 . S
C1206 C1205 1.349 . S
C1206 C1218 1.349 1_655 S
C1207 C1205 1.327 . S
C1207 C1223 1.432 1_655 S
C1207 H1229 0.950 . S
C1208 H1204 0.949 . S
C1208 C1216 1.574 . S
C1208 C1224 1.395 . S
H1209 C1217 0.950 . S
H1210 C1215 0.950 . S
H1211 C1216 0.949 . S
H1212 C1218 0.950 . S
H1213 C1219 0.950 . S
H1214 C1220 0.949 . S
C1215 H1210 0.950 . S
C1215 C1217 1.327 . S
C1215 C1221 1.429 1_655 S
C1216 C1208 1.574 . S
C1216 H1211 0.949 . S
C1216 C1222 1.368 . S
C1217 C1201 1.349 1_655 S
C1217 H1209 0.950 . S
C1217 C1215 1.327 . S
C1218 C1206 1.349 1_455 S
C1218 H1212 0.950 . S
C1218 C1219 1.327 . S
C1219 H1213 0.950 . S
C1219 C1218 1.327 . S
C1219 C1223 1.425 . S
C1220 C1203 1.574 . S
C1220 H1214 0.949 . S
C1220 C1224 1.342 1_655 S
C1221 C1202 1.429 . S
C1221 C1215 1.429 1_455 S
C1221 C1222 1.523 . S
C1222 C1203 1.368 1_455 S
C1222 C1216 1.368 . S
C1222 C1221 1.523 . S
C1223 C1207 1.432 1_455 S
C1223 C1219 1.425 . S
C1223 C1224 1.523 . S
C1224 C1208 1.395 . S
C1224 C1220 1.342 1_455 S
C1224 C1223 1.523 . S
H1225 C1200 0.950 . S
H1226 C1202 0.950 . S
H1227 C1203 0.949 . S
H1228 C1205 0.950 . S
H1229 C1207 0.950 . S
C1230 C1231 1.349 . S
C1230 C1232 1.327 . S
C1230 H1255 0.950 . S
C1231 C1230 1.349 . S
C1231 C1247 1.349 . S
C1232 C1230 1.327 . S
C1232 C1251 1.429 . S
C1232 H1256 0.950 . S
C1233 C1250 1.574 . S
C1233 C1252 1.368 . S
C1233 H1257 0.949 . S
H1234 C1238 0.949 . S
C1235 C1236 1.349 . S
C1235 C1237 1.327 . S
C1235 H1258 0.950 . S
C1236 C1235 1.349 . S
C1236 C1248 1.349 . S
C1237 C1235 1.327 . S
C1237 C1253 1.429 . S
C1237 H1259 0.950 . S
C1238 H1234 0.949 . S
C1238 C1246 1.574 . S
C1238 C1254 1.368 . S
H1239 C1247 0.950 . S
H1240 C1245 0.950 . S
H1241 C1246 0.949 . S
H1242 C1248 0.950 . S
H1243 C1249 0.950 . S
H1244 C1250 0.949 . S
C1245 H1240 0.950 . S
C1245 C1247 1.327 . S
C1245 C1251 1.429 . S
C1246 C1238 1.574 . S
C1246 H1241 0.949 . S
C1246 C1252 1.368 . S
C1247 C1231 1.349 . S
C1247 H1239 0.950 . S
C1247 C1245 1.327 . S
C1248 C1236 1.349 . S
C1248 H1242 0.950 . S
C1248 C1249 1.327 . S
C1249 H1243 0.950 . S
C1249 C1248 1.327 . S
C1249 C1253 1.429 . S
C1250 C1233 1.574 . S
C1250 H1244 0.949 . S
C1250 C1254 1.368 . S
C1251 C1232 1.429 . S
C1251 C1245 1.429 . S
C1251 C1252 1.523 . S
C1252 C1233 1.368 . S
C1252 C1246 1.368 . S
C1252 C1251 1.523 . S
C1253 C1237 1.429 . S
C1253 C1249 1.429 . S
C1253 C1254 1.523 . S
C1254 C1238 1.368 . S
C1254 C1250 1.368 . S
C1254 C1253 1.523 . S
H1255 C1230 0.950 . S
H1256 C1232 0.950 . S
H1257 C1233 0.949 . S
H1258 C1235 0.950 . S
H1259 C1237 0.950 . S
C1260 C1261 1.349 . S
C1260 C1262 1.327 . S
C1260 H1285 0.950 . S
C1261 C1260 1.349 . S
C1261 C1277 1.349 . S
C1262 C1260 1.327 . S
C1262 C1281 1.429 . S
C1262 H1286 0.950 . S
C1263 C1280 1.574 . S
C1263 C1282 1.368 . S
C1263 H1287 0.949 . S
H1264 C1268 0.949 . S
C1265 C1266 1.349 . S
C1265 C1267 1.327 . S
C1265 H1288 0.950 . S
C1266 C1265 1.349 . S
C1266 C1278 1.349 . S
C1267 C1265 1.327 . S
C1267 C1283 1.429 . S
C1267 H1289 0.950 . S
C1268 H1264 0.949 . S
C1268 C1276 1.574 . S
C1268 C1284 1.368 . S
H1269 C1277 0.950 . S
H1270 C1275 0.950 . S
H1271 C1276 0.949 . S
H1272 C1278 0.950 . S
H1273 C1279 0.950 . S
H1274 C1280 0.949 . S
C1275 H1270 0.950 . S
C1275 C1277 1.327 . S
C1275 C1281 1.429 . S
C1276 C1268 1.574 . S
C1276 H1271 0.949 . S
C1276 C1282 1.368 . S
C1277 C1261 1.349 . S
C1277 H1269 0.950 . S
C1277 C1275 1.327 . S
C1278 C1266 1.349 . S
C1278 H1272 0.950 . S
C1278 C1279 1.327 . S
C1279 H1273 0.950 . S
C1279 C1278 1.327 . S
C1279 C1283 1.429 . S
C1280 C1263 1.574 . S
C1280 H1274 0.949 . S
C1280 C1284 1.368 . S
C1281 C1262 1.429 . S
C1281 C1275 1.429 . S
C1281 C1282 1.523 . S
C1282 C1263 1.368 . S
C1282 C1276 1.368 . S
C1282 C1281 1.523 . S
C1283 C1267 1.429 . S
C1283 C1279 1.429 . S
C1283 C1284 1.523 . S
C1284 C1268 1.368 . S
C1284 C1280 1.368 . S
C1284 C1283 1.523 . S
H1285 C1260 0.950 . S
H1286 C1262 0.950 . S
H1287 C1263 0.949 . S
H1288 C1265 0.950 . S
H1289 C1267 0.950 . S
C1290 C1291 1.349 . S
C1290 C1292 1.327 . S
C1290 H1315 0.950 . S
C1291 C1290 1.349 . S
C1291 C1307 1.349 . S
C1292 C1290 1.327 . S
C1292 C1311 1.429 . S
C1292 H1316 0.950 . S
C1293 C1310 1.574 . S
C1293 C1312 1.368 . S
C1293 H1317 0.949 . S
H1294 C1298 0.949 . S
C1295 C1296 1.349 . S
C1295 C1297 1.327 . S
C1295 H1318 0.950 . S
C1296 C1295 1.349 . S
C1296 C1308 1.349 . S
C1297 C1295 1.327 . S
C1297 C1313 1.429 . S
C1297 H1319 0.950 . S
C1298 H1294 0.949 . S
C1298 C1306 1.574 . S
C1298 C1314 1.368 . S
H1299 C1307 0.950 . S
H1300 C1305 0.950 . S
H1301 C1306 0.949 . S
H1302 C1308 0.950 . S
H1303 C1309 0.950 . S
H1304 C1310 0.949 . S
C1305 H1300 0.950 . S
C1305 C1307 1.327 . S
C1305 C1311 1.429 . S
C1306 C1298 1.574 . S
C1306 H1301 0.949 . S
C1306 C1312 1.368 . S
C1307 C1291 1.349 . S
C1307 H1299 0.950 . S
C1307 C1305 1.327 . S
C1308 C1296 1.349 . S
C1308 H1302 0.950 . S
C1308 C1309 1.327 . S
C1309 H1303 0.950 . S
C1309 C1308 1.327 . S
C1309 C1313 1.429 . S
C1310 C1293 1.574 . S
C1310 H1304 0.949 . S
C1310 C1314 1.368 . S
C1311 C1292 1.429 . S
C1311 C1305 1.429 . S
C1311 C1312 1.523 . S
C1312 C1293 1.368 . S
C1312 C1306 1.368 . S
C1312 C1311 1.523 . S
C1313 C1297 1.429 . S
C1313 C1309 1.429 . S
C1313 C1314 1.523 . S
C1314 C1298 1.368 . S
C1314 C1310 1.368 . S
C1314 C1313 1.523 . S
H1315 C1290 0.950 . S
H1316 C1292 0.950 . S
H1317 C1293 0.949 . S
H1318 C1295 0.950 . S
H1319 C1297 0.950 . S
C1320 C1321 1.349 . S
C1320 C1322 1.327 . S
C1320 H1345 0.950 . S
C1321 C1320 1.349 . S
C1321 C1337 1.350 1_455 S
C1322 C1320 1.327 . S
C1322 C1341 1.429 . S
C1322 H1346 0.950 . S
C1323 C1340 1.574 . S
C1323 C1342 1.368 1_655 S
C1323 H1347 0.949 . S
H1324 C1328 0.949 . S
C1325 C1326 1.346 1_655 S
C1325 C1327 1.327 . S
C1325 H1348 0.950 . S
C1326 C1325 1.346 1_455 S
C1326 C1338 1.352 . S
C1327 C1325 1.327 . S
C1327 C1343 1.429 1_655 S
C1327 H1349 0.950 . S
C1328 H1324 0.949 . S
C1328 C1336 1.574 . S
C1328 C1344 1.368 . S
H1329 C1337 0.949 . S
H1330 C1335 0.967 . S
H1331 C1336 0.949 . S
H1332 C1338 0.950 . S
H1333 C1339 0.950 . S
H1334 C1340 0.949 . S
C1335 H1330 0.967 . S
C1335 C1337 1.325 . S
C1335 C1341 1.417 1_655 S
C1336 C1328 1.574 . S
C1336 H1331 0.949 . S
C1336 C1342 1.368 . S
C1337 C1321 1.350 1_655 S
C1337 H1329 0.949 . S
C1337 C1335 1.325 . S
C1338 C1326 1.352 . S
C1338 H1332 0.950 . S
C1338 C1339 1.327 . S
C1339 H1333 0.950 . S
C1339 C1338 1.327 . S
C1339 C1343 1.429 . S
C1340 C1323 1.574 . S
C1340 H1334 0.949 . S
C1340 C1344 1.368 1_655 S
C1341 C1322 1.429 . S
C1341 C1335 1.417 1_455 S
C1341 C1342 1.523 . S
C1342 C1323 1.368 1_455 S
C1342 C1336 1.368 . S
C1342 C1341 1.523 . S
C1343 C1327 1.429 1_455 S
C1343 C1339 1.429 . S
C1343 C1344 1.523 . S
C1344 C1328 1.368 . S
C1344 C1340 1.368 1_455 S
C1344 C1343 1.523 . S
H1345 C1320 0.950 . S
H1346 C1322 0.950 . S
H1347 C1323 0.949 . S
H1348 C1325 0.950 . S
H1349 C1327 0.950 . S
C1350 C1351 1.349 . S
C1350 C1352 1.327 . S
C1350 H1375 0.950 . S
C1351 C1350 1.349 . S
C1351 C1367 1.349 . S
C1352 C1350 1.327 . S
C1352 C1371 1.429 . S
C1352 H1376 0.950 . S
C1353 C1370 1.574 . S
C1353 C1372 1.368 . S
C1353 H1377 0.949 . S
H1354 C1358 0.949 . S
C1355 C1356 1.349 . S
C1355 C1357 1.327 . S
C1355 H1378 0.950 . S
C1356 C1355 1.349 . S
C1356 C1368 1.349 . S
C1357 C1355 1.327 . S
C1357 C1373 1.429 . S
C1357 H1379 0.950 . S
C1358 H1354 0.949 . S
C1358 C1366 1.574 . S
C1358 C1374 1.368 . S
H1359 C1367 0.950 . S
H1360 C1365 0.950 . S
H1361 C1366 0.949 . S
H1362 C1368 0.950 . S
H1363 C1369 0.950 . S
H1364 C1370 0.949 . S
C1365 H1360 0.950 . S
C1365 C1367 1.327 . S
C1365 C1371 1.429 . S
C1366 C1358 1.574 . S
C1366 H1361 0.949 . S
C1366 C1372 1.368 . S
C1367 C1351 1.349 . S
C1367 H1359 0.950 . S
C1367 C1365 1.327 . S
C1368 C1356 1.349 . S
C1368 H1362 0.950 . S
C1368 C1369 1.327 . S
C1369 H1363 0.950 . S
C1369 C1368 1.327 . S
C1369 C1373 1.429 . S
C1370 C1353 1.574 . S
C1370 H1364 0.949 . S
C1370 C1374 1.368 . S
C1371 C1352 1.429 . S
C1371 C1365 1.429 . S
C1371 C1372 1.523 . S
C1372 C1353 1.368 . S
C1372 C1366 1.368 . S
C1372 C1371 1.523 . S
C1373 C1357 1.429 . S
C1373 C1369 1.429 . S
C1373 C1374 1.523 . S
C1374 C1358 1.368 . S
C1374 C1370 1.368 . S
C1374 C1373 1.523 . S
H1375 C1350 0.950 . S
H1376 C1352 0.950 . S
H1377 C1353 0.949 . S
H1378 C1355 0.950 . S
H1379 C1357 0.950 . S
C1380 C1381 1.349 . S
C1380 C1382 1.327 . S
C1380 H1405 0.950 . S
C1381 C1380 1.349 . S
C1381 C1397 1.349 . S
C1382 C1380 1.327 . S
C1382 C1401 1.429 . S
C1382 H1406 0.950 . S
C1383 C1400 1.574 . S
C1383 C1402 1.368 . S
C1383 H1407 0.949 . S
H1384 C1388 0.949 . S
C1385 C1386 1.349 . S
C1385 C1387 1.327 . S
C1385 H1408 0.950 . S
C1386 C1385 1.349 . S
C1386 C1398 1.349 . S
C1387 C1385 1.327 . S
C1387 C1403 1.429 . S
C1387 H1409 0.950 . S
C1388 H1384 0.949 . S
C1388 C1396 1.574 . S
C1388 C1404 1.368 . S
H1389 C1397 0.950 . S
H1390 C1395 0.950 . S
H1391 C1396 0.949 . S
H1392 C1398 0.950 1_554 S
H1393 C1399 0.950 . S
H1394 C1400 0.949 . S
C1395 H1390 0.950 . S
C1395 C1397 1.327 . S
C1395 C1401 1.429 . S
C1396 C1388 1.574 . S
C1396 H1391 0.949 . S
C1396 C1402 1.368 . S
C1397 C1381 1.349 . S
C1397 H1389 0.950 . S
C1397 C1395 1.327 . S
C1398 C1386 1.349 . S
C1398 H1392 0.950 1_556 S
C1398 C1399 1.327 . S
C1399 H1393 0.950 . S
C1399 C1398 1.327 . S
C1399 C1403 1.429 . S
C1400 C1383 1.574 . S
C1400 H1394 0.949 . S
C1400 C1404 1.368 . S
C1401 C1382 1.429 . S
C1401 C1395 1.429 . S
C1401 C1402 1.523 . S
C1402 C1383 1.368 . S
C1402 C1396 1.368 . S
C1402 C1401 1.523 . S
C1403 C1387 1.429 . S
C1403 C1399 1.429 . S
C1403 C1404 1.523 . S
C1404 C1388 1.368 . S
C1404 C1400 1.368 . S
C1404 C1403 1.523 . S
H1405 C1380 0.950 . S
H1406 C1382 0.950 . S
H1407 C1383 0.949 . S
H1408 C1385 0.950 . S
H1409 C1387 0.950 . S
C1410 C1411 1.349 . S
C1410 C1412 1.327 . S
C1410 H1435 0.950 . S
C1411 C1410 1.349 . S
C1411 C1427 1.349 . S
C1412 C1410 1.327 . S
C1412 C1431 1.429 . S
C1412 H1436 0.950 . S
C1413 C1430 1.574 . S
C1413 C1432 1.368 . S
C1413 H1437 0.949 . S
H1414 C1418 0.949 . S
C1415 C1416 1.349 . S
C1415 C1417 1.327 . S
C1415 H1438 0.950 . S
C1416 C1415 1.349 . S
C1416 C1428 1.349 . S
C1417 C1415 1.327 . S
C1417 C1433 1.429 . S
C1417 H1439 0.950 . S
C1418 H1414 0.949 . S
C1418 C1426 1.574 . S
C1418 C1434 1.368 . S
H1419 C1427 0.950 . S
H1420 C1425 0.950 . S
H1421 C1426 0.949 . S
H1422 C1428 0.950 . S
H1423 C1429 0.950 . S
H1424 C1430 0.949 . S
C1425 H1420 0.950 . S
C1425 C1427 1.327 . S
C1425 C1431 1.429 . S
C1426 C1418 1.574 . S
C1426 H1421 0.949 . S
C1426 C1432 1.368 . S
C1427 C1411 1.349 . S
C1427 H1419 0.950 . S
C1427 C1425 1.327 . S
C1428 C1416 1.349 . S
C1428 H1422 0.950 . S
C1428 C1429 1.327 . S
C1429 H1423 0.950 . S
C1429 C1428 1.327 . S
C1429 C1433 1.429 . S
C1430 C1413 1.574 . S
C1430 H1424 0.949 . S
C1430 C1434 1.368 . S
C1431 C1412 1.429 . S
C1431 C1425 1.429 . S
C1431 C1432 1.523 . S
C1432 C1413 1.368 . S
C1432 C1426 1.368 . S
C1432 C1431 1.523 . S
C1433 C1417 1.429 . S
C1433 C1429 1.429 . S
C1433 C1434 1.523 . S
C1434 C1418 1.368 . S
C1434 C1430 1.368 . S
C1434 C1433 1.523 . S
H1435 C1410 0.950 . S
H1436 C1412 0.950 . S
H1437 C1413 0.949 . S
H1438 C1415 0.950 . S
H1439 C1417 0.950 . S
C1440 C1441 1.349 . S
C1440 C1442 1.327 . S
C1440 H1465 0.950 . S
C1441 C1440 1.349 . S
C1441 C1457 1.349 1_545 S
C1442 C1440 1.327 . S
C1442 C1461 1.471 . S
C1442 H1466 0.950 . S
C1443 C1460 1.574 . S
C1443 C1462 1.372 1_565 S
C1443 H1467 0.949 . S
H1444 C1448 0.949 . S
C1445 C1446 1.349 . S
C1445 C1447 1.327 . S
C1445 H1468 0.950 . S
C1446 C1445 1.349 . S
C1446 C1458 1.349 1_565 S
C1447 C1445 1.327 . S
C1447 C1463 1.429 . S
C1447 H1469 0.950 . S
C1448 H1444 0.949 . S
C1448 C1456 1.574 . S
C1448 C1464 1.368 1_545 S
H1449 C1457 0.950 . S
H1450 C1455 0.950 . S
H1451 C1456 0.949 . S
H1452 C1458 0.950 . S
H1453 C1459 0.950 . S
H1454 C1460 0.949 . S
C1455 H1450 0.950 . S
C1455 C1457 1.327 . S
C1455 C1461 1.389 1_565 S
C1456 C1448 1.574 . S
C1456 H1451 0.949 . S
C1456 C1462 1.365 . S
C1457 C1441 1.349 1_565 S
C1457 H1449 0.950 . S
C1457 C1455 1.327 . S
C1458 C1446 1.349 1_545 S
C1458 H1452 0.950 . S
C1458 C1459 1.327 . S
C1459 H1453 0.950 . S
C1459 C1458 1.327 . S
C1459 C1463 1.429 1_545 S
C1460 C1443 1.574 . S
C1460 H1454 0.949 . S
C1460 C1464 1.368 . S
C1461 C1442 1.471 . S
C1461 C1455 1.389 1_545 S
C1461 C1462 1.522 . S
C1462 C1443 1.372 1_545 S
C1462 C1456 1.365 . S
C1462 C1461 1.522 . S
C1463 C1447 1.429 . S
C1463 C1459 1.429 1_565 S
C1463 C1464 1.523 . S
C1464 C1448 1.368 1_565 S
C1464 C1460 1.368 . S
C1464 C1463 1.523 . S
H1465 C1440 0.950 . S
H1466 C1442 0.950 . S
H1467 C1443 0.949 . S
H1468 C1445 0.950 . S
H1469 C1447 0.950 . S
C1470 C1471 1.349 . S
C1470 C1472 1.327 . S
C1470 H1495 0.950 . S
C1471 C1470 1.349 . S
C1471 C1487 1.349 . S
C1472 C1470 1.327 . S
C1472 C1491 1.429 . S
C1472 H1496 0.950 . S
C1473 C1490 1.574 . S
C1473 C1492 1.368 . S
C1473 H1497 0.949 . S
H1474 C1478 0.949 . S
C1475 C1476 1.349 . S
C1475 C1477 1.327 . S
C1475 H1498 0.950 . S
C1476 C1475 1.349 . S
C1476 C1488 1.349 . S
C1477 C1475 1.327 . S
C1477 C1493 1.429 . S
C1477 H1499 0.950 . S
C1478 H1474 0.949 . S
C1478 C1486 1.574 . S
C1478 C1494 1.368 . S
H1479 C1487 0.950 . S
H1480 C1485 0.950 . S
H1481 C1486 0.949 . S
H1482 C1488 0.950 . S
H1483 C1489 0.950 . S
H1484 C1490 0.949 . S
C1485 H1480 0.950 . S
C1485 C1487 1.327 . S
C1485 C1491 1.429 . S
C1486 C1478 1.574 . S
C1486 H1481 0.949 . S
C1486 C1492 1.368 . S
C1487 C1471 1.349 . S
C1487 H1479 0.950 . S
C1487 C1485 1.327 . S
C1488 C1476 1.349 . S
C1488 H1482 0.950 . S
C1488 C1489 1.327 . S
C1489 H1483 0.950 . S
C1489 C1488 1.327 . S
C1489 C1493 1.429 . S
C1490 C1473 1.574 . S
C1490 H1484 0.949 . S
C1490 C1494 1.368 . S
C1491 C1472 1.429 . S
C1491 C1485 1.429 . S
C1491 C1492 1.523 . S
C1492 C1473 1.368 . S
C1492 C1486 1.368 . S
C1492 C1491 1.523 . S
C1493 C1477 1.429 . S
C1493 C1489 1.429 . S
C1493 C1494 1.523 . S
C1494 C1478 1.368 . S
C1494 C1490 1.368 . S
C1494 C1493 1.523 . S
H1495 C1470 0.950 . S
H1496 C1472 0.950 . S
H1497 C1473 0.949 . S
H1498 C1475 0.950 . S
H1499 C1477 0.950 . S
C1500 C1501 1.349 . S
C1500 C1502 1.327 . S
C1500 H1525 0.950 . S
C1501 C1500 1.349 . S
C1501 C1517 1.349 1_545 S
C1502 C1500 1.327 . S
C1502 C1521 1.429 . S
C1502 H1526 0.950 . S
C1503 C1520 1.574 . S
C1503 C1522 1.368 1_565 S
C1503 H1527 0.949 . S
H1504 C1508 0.949 . S
C1505 C1506 1.349 1_565 S
C1505 C1507 1.327 . S
C1505 H1528 0.950 . S
C1506 C1505 1.349 1_545 S
C1506 C1518 1.349 . S
C1507 C1505 1.327 . S
C1507 C1523 1.429 1_565 S
C1507 H1529 0.950 . S
C1508 H1504 0.949 . S
C1508 C1516 1.574 . S
C1508 C1524 1.368 . S
H1509 C1517 0.950 . S
H1510 C1515 0.950 . S
H1511 C1516 0.949 . S
H1512 C1518 0.950 . S
H1513 C1519 0.950 . S
H1514 C1520 0.949 . S
C1515 H1510 0.950 . S
C1515 C1517 1.327 . S
C1515 C1521 1.429 1_565 S
C1516 C1508 1.574 . S
C1516 H1511 0.949 . S
C1516 C1522 1.368 . S
C1517 C1501 1.349 1_565 S
C1517 H1509 0.950 . S
C1517 C1515 1.327 . S
C1518 C1506 1.349 . S
C1518 H1512 0.950 . S
C1518 C1519 1.327 . S
C1519 H1513 0.950 . S
C1519 C1518 1.327 . S
C1519 C1523 1.429 . S
C1520 C1503 1.574 . S
C1520 H1514 0.949 . S
C1520 C1524 1.368 1_565 S
C1521 C1502 1.429 . S
C1521 C1515 1.429 1_545 S
C1521 C1522 1.523 . S
C1522 C1503 1.368 1_545 S
C1522 C1516 1.368 . S
C1522 C1521 1.523 . S
C1523 C1507 1.429 1_545 S
C1523 C1519 1.429 . S
C1523 C1524 1.523 . S
C1524 C1508 1.368 . S
C1524 C1520 1.368 1_545 S
C1524 C1523 1.523 . S
H1525 C1500 0.950 . S
H1526 C1502 0.950 . S
H1527 C1503 0.949 . S
H1528 C1505 0.950 . S
H1529 C1507 0.950 . S
C1530 C1531 1.349 . S
C1530 C1532 1.327 . S
C1530 H1555 0.950 . S
C1531 C1530 1.349 . S
C1531 C1547 1.349 . S
C1532 C1530 1.327 . S
C1532 C1551 1.429 . S
C1532 H1556 0.950 . S
C1533 C1550 1.574 . S
C1533 C1552 1.368 . S
C1533 H1557 0.949 . S
H1534 C1538 0.949 . S
C1535 C1536 1.349 . S
C1535 C1537 1.327 . S
C1535 H1558 0.950 . S
C1536 C1535 1.349 . S
C1536 C1548 1.349 . S
C1537 C1535 1.327 . S
C1537 C1553 1.429 . S
C1537 H1559 0.950 . S
C1538 H1534 0.949 . S
C1538 C1546 1.574 . S
C1538 C1554 1.368 . S
H1539 C1547 0.950 . S
H1540 C1545 0.950 . S
H1541 C1546 0.949 . S
H1542 C1548 0.950 . S
H1543 C1549 0.950 . S
H1544 C1550 0.949 . S
C1545 H1540 0.950 . S
C1545 C1547 1.327 . S
C1545 C1551 1.429 . S
C1546 C1538 1.574 . S
C1546 H1541 0.949 . S
C1546 C1552 1.368 . S
C1547 C1531 1.349 . S
C1547 H1539 0.950 . S
C1547 C1545 1.327 . S
C1548 C1536 1.349 . S
C1548 H1542 0.950 . S
C1548 C1549 1.327 . S
C1549 H1543 0.950 . S
C1549 C1548 1.327 . S
C1549 C1553 1.429 . S
C1550 C1533 1.574 . S
C1550 H1544 0.949 . S
C1550 C1554 1.368 . S
C1551 C1532 1.429 . S
C1551 C1545 1.429 . S
C1551 C1552 1.523 . S
C1552 C1533 1.368 . S
C1552 C1546 1.368 . S
C1552 C1551 1.523 . S
C1553 C1537 1.429 . S
C1553 C1549 1.429 . S
C1553 C1554 1.523 . S
C1554 C1538 1.368 . S
C1554 C1550 1.368 . S
C1554 C1553 1.523 . S
H1555 C1530 0.950 . S
H1556 C1532 0.950 . S
H1557 C1533 0.949 . S
H1558 C1535 0.950 . S
H1559 C1537 0.950 . S
C1560 C1561 1.349 1_565 S
C1560 C1562 1.327 . S
C1560 H1585 0.950 . S
C1561 C1560 1.349 1_545 S
C1561 C1577 1.349 . S
C1562 C1560 1.327 . S
C1562 C1581 1.429 1_565 S
C1562 H1586 0.950 . S
C1563 C1580 1.574 . S
C1563 C1582 1.368 . S
C1563 H1587 0.949 . S
H1564 C1568 0.949 . S
C1565 C1566 1.349 . S
C1565 C1567 1.327 . S
C1565 H1588 0.950 . S
C1566 C1565 1.349 . S
C1566 C1578 1.349 1_545 S
C1567 C1565 1.327 . S
C1567 C1583 1.429 . S
C1567 H1589 0.950 . S
C1568 H1564 0.949 . S
C1568 C1576 1.574 . S
C1568 C1584 1.368 1_565 S
H1569 C1577 0.950 . S
H1570 C1575 0.950 . S
H1571 C1576 0.949 . S
H1572 C1578 0.950 . S
H1573 C1579 0.950 . S
H1574 C1580 0.949 . S
C1575 H1570 0.950 . S
C1575 C1577 1.327 . S
C1575 C1581 1.429 . S
C1576 C1568 1.574 . S
C1576 H1571 0.949 . S
C1576 C1582 1.368 1_565 S
C1577 C1561 1.349 . S
C1577 H1569 0.950 . S
C1577 C1575 1.327 . S
C1578 C1566 1.349 1_565 S
C1578 H1572 0.950 . S
C1578 C1579 1.327 . S
C1579 H1573 0.950 . S
C1579 C1578 1.327 . S
C1579 C1583 1.429 1_565 S
C1580 C1563 1.574 . S
C1580 H1574 0.949 . S
C1580 C1584 1.368 . S
C1581 C1562 1.429 1_545 S
C1581 C1575 1.429 . S
C1581 C1582 1.523 . S
C1582 C1563 1.368 . S
C1582 C1576 1.368 1_545 S
C1582 C1581 1.523 . S
C1583 C1567 1.429 . S
C1583 C1579 1.429 1_545 S
C1583 C1584 1.523 . S
C1584 C1568 1.368 1_545 S
C1584 C1580 1.368 . S
C1584 C1583 1.523 . S
H1585 C1560 0.950 . S
H1586 C1562 0.950 . S
H1587 C1563 0.949 . S
H1588 C1565 0.950 . S
H1589 C1567 0.950 . S
C1590 C1591 1.349 . S
C1590 C1592 1.327 . S
C1590 H1615 0.950 . S
C1591 C1590 1.349 . S
C1591 C1607 1.349 . S
C1592 C1590 1.327 . S
C1592 C1611 1.429 . S
C1592 H1616 0.950 . S
C1593 C1610 1.574 . S
C1593 C1612 1.368 . S
C1593 H1617 0.949 . S
H1594 C1598 0.949 . S
C1595 C1596 1.349 . S
C1595 C1597 1.327 . S
C1595 H1618 0.950 . S
C1596 C1595 1.349 . S
C1596 C1608 1.349 . S
C1597 C1595 1.327 . S
C1597 C1613 1.429 . S
C1597 H1619 0.950 . S
C1598 H1594 0.949 . S
C1598 C1606 1.574 . S
C1598 C1614 1.368 . S
H1599 C1607 0.950 . S
H1600 C1605 0.950 . S
H1601 C1606 0.949 . S
H1602 C1608 0.950 . S
H1603 C1609 0.950 . S
H1604 C1610 0.949 . S
C1605 H1600 0.950 . S
C1605 C1607 1.327 . S
C1605 C1611 1.429 . S
C1606 C1598 1.574 . S
C1606 H1601 0.949 . S
C1606 C1612 1.368 . S
C1607 C1591 1.349 . S
C1607 H1599 0.950 . S
C1607 C1605 1.327 . S
C1608 C1596 1.349 . S
C1608 H1602 0.950 . S
C1608 C1609 1.327 . S
C1609 H1603 0.950 . S
C1609 C1608 1.327 . S
C1609 C1613 1.429 . S
C1610 C1593 1.574 . S
C1610 H1604 0.949 . S
C1610 C1614 1.368 . S
C1611 C1592 1.429 . S
C1611 C1605 1.429 . S
C1611 C1612 1.523 . S
C1612 C1593 1.368 . S
C1612 C1606 1.368 . S
C1612 C1611 1.523 . S
C1613 C1597 1.429 . S
C1613 C1609 1.429 . S
C1613 C1614 1.523 . S
C1614 C1598 1.368 . S
C1614 C1610 1.368 . S
C1614 C1613 1.523 . S
H1615 C1590 0.950 . S
H1616 C1592 0.950 . S
H1617 C1593 0.949 . S
H1618 C1595 0.950 . S
H1619 C1597 0.950 . S
C1620 C1621 1.349 1_565 S
C1620 C1622 1.327 . S
C1620 H1645 0.950 . S
C1621 C1620 1.349 1_545 S
C1621 C1637 1.349 . S
C1622 C1620 1.327 . S
C1622 C1641 1.429 1_565 S
C1622 H1646 0.950 . S
C1623 C1640 1.574 . S
C1623 C1642 1.368 . S
C1623 H1647 0.949 . S
H1624 C1628 0.949 . S
C1625 C1626 1.349 1_545 S
C1625 C1627 1.327 . S
C1625 H1648 0.950 . S
C1626 C1625 1.349 1_565 S
C1626 C1638 1.349 . S
C1627 C1625 1.327 . S
C1627 C1643 1.430 1_545 S
C1627 H1649 0.950 . S
C1628 H1624 0.949 . S
C1628 C1636 1.574 . S
C1628 C1644 1.328 1_565 S
H1629 C1637 0.950 . S
H1630 C1635 0.950 . S
H1631 C1636 0.949 . S
H1632 C1638 0.950 . S
H1633 C1639 0.950 . S
H1634 C1640 0.949 . S
C1635 H1630 0.950 . S
C1635 C1637 1.327 . S
C1635 C1641 1.429 . S
C1636 C1628 1.574 . S
C1636 H1631 0.949 . S
C1636 C1642 1.368 1_565 S
C1637 C1621 1.349 . S
C1637 H1629 0.950 . S
C1637 C1635 1.327 . S
C1638 C1626 1.349 . S
C1638 H1632 0.950 . S
C1638 C1639 1.327 . S
C1639 H1633 0.950 . S
C1639 C1638 1.327 . S
C1639 C1643 1.427 . S
C1640 C1623 1.574 . S
C1640 H1634 0.949 . S
C1640 C1644 1.412 . S
C1641 C1622 1.429 1_545 S
C1641 C1635 1.429 . S
C1641 C1642 1.523 . S
C1642 C1623 1.368 . S
C1642 C1636 1.368 1_545 S
C1642 C1641 1.523 . S
C1643 C1627 1.430 1_565 S
C1643 C1639 1.427 . S
C1643 C1644 1.521 1_565 S
C1644 C1628 1.328 1_545 S
C1644 C1640 1.412 . S
C1644 C1643 1.521 1_545 S
H1645 C1620 0.950 . S
H1646 C1622 0.950 . S
H1647 C1623 0.949 . S
H1648 C1625 0.950 . S
H1649 C1627 0.950 . S
C1650 C1651 1.349 . S
C1650 C1652 1.327 . S
C1650 H1675 0.950 . S
C1651 C1650 1.349 . S
C1651 C1667 1.349 . S
C1652 C1650 1.327 . S
C1652 C1671 1.429 . S
C1652 H1676 0.950 . S
C1653 C1670 1.574 . S
C1653 C1672 1.368 . S
C1653 H1677 0.949 . S
H1654 C1658 0.949 . S
C1655 C1656 1.349 . S
C1655 C1657 1.327 . S
C1655 H1678 0.950 . S
C1656 C1655 1.349 . S
C1656 C1668 1.349 . S
C1657 C1655 1.327 . S
C1657 C1673 1.429 . S
C1657 H1679 0.950 . S
C1658 H1654 0.949 . S
C1658 C1666 1.574 . S
C1658 C1674 1.368 . S
H1659 C1667 0.950 . S
H1660 C1665 0.950 . S
H1661 C1666 0.949 . S
H1662 C1668 0.950 . S
H1663 C1669 0.950 . S
H1664 C1670 0.949 . S
C1665 H1660 0.950 . S
C1665 C1667 1.327 . S
C1665 C1671 1.429 . S
C1666 C1658 1.574 . S
C1666 H1661 0.949 . S
C1666 C1672 1.368 . S
C1667 C1651 1.349 . S
C1667 H1659 0.950 . S
C1667 C1665 1.327 . S
C1668 C1656 1.349 . S
C1668 H1662 0.950 . S
C1668 C1669 1.327 . S
C1669 H1663 0.950 . S
C1669 C1668 1.327 . S
C1669 C1673 1.429 . S
C1670 C1653 1.574 . S
C1670 H1664 0.949 . S
C1670 C1674 1.368 . S
C1671 C1652 1.429 . S
C1671 C1665 1.429 . S
C1671 C1672 1.523 . S
C1672 C1653 1.368 . S
C1672 C1666 1.368 . S
C1672 C1671 1.523 . S
C1673 C1657 1.429 . S
C1673 C1669 1.429 . S
C1673 C1674 1.523 . S
C1674 C1658 1.368 . S
C1674 C1670 1.368 . S
C1674 C1673 1.523 . S
H1675 C1650 0.950 . S
H1676 C1652 0.950 . S
H1677 C1653 0.949 . S
H1678 C1655 0.950 . S
H1679 C1657 0.950 . S
C1680 C1681 1.349 1_556 S
C1680 C1682 1.327 . S
C1680 H1705 0.950 . S
C1681 C1680 1.349 1_554 S
C1681 C1697 1.349 . S
C1682 C1680 1.327 . S
C1682 C1701 1.429 1_556 S
C1682 H1706 0.950 . S
C1683 C1700 1.574 . S
C1683 C1702 1.368 . S
C1683 H1707 0.949 . S
H1684 C1688 0.949 . S
C1685 C1686 1.338 1_554 S
C1685 C1687 1.327 . S
C1685 H1708 0.950 . S
C1686 C1685 1.338 1_556 S
C1686 C1698 1.360 . S
C1687 C1685 1.327 . S
C1687 C1703 1.463 . S
C1687 H1709 0.950 . S
C1688 H1684 0.949 . S
C1688 C1696 1.574 . S
C1688 C1704 1.368 1_556 S
H1689 C1697 0.950 . S
H1690 C1695 0.950 . S
H1691 C1696 0.949 . S
H1692 C1698 0.950 . S
H1693 C1699 0.950 . S
H1694 C1700 0.949 . S
C1695 H1690 0.950 . S
C1695 C1697 1.327 . S
C1695 C1701 1.429 . S
C1696 C1688 1.574 . S
C1696 H1691 0.949 . S
C1696 C1702 1.368 1_556 S
C1697 C1681 1.349 . S
C1697 H1689 0.950 . S
C1697 C1695 1.327 . S
C1698 C1686 1.360 . S
C1698 H1692 0.950 . S
C1698 C1699 1.327 . S
C1699 H1693 0.950 . S
C1699 C1698 1.327 . S
C1699 C1703 1.394 1_556 S
C1700 C1683 1.574 . S
C1700 H1694 0.949 . S
C1700 C1704 1.368 . S
C1701 C1682 1.429 1_554 S
C1701 C1695 1.429 . S
C1701 C1702 1.523 . S
C1702 C1683 1.368 . S
C1702 C1696 1.368 1_554 S
C1702 C1701 1.523 . S
C1703 C1687 1.463 . S
C1703 C1699 1.394 1_554 S
C1703 C1704 1.525 . S
C1704 C1688 1.368 1_554 S
C1704 C1700 1.368 . S
C1704 C1703 1.525 . S
H1705 C1680 0.950 . S
H1706 C1682 0.950 . S
H1707 C1683 0.949 . S
H1708 C1685 0.950 . S
H1709 C1687 0.950 . S
C1710 C1711 1.349 1_556 S
C1710 C1712 1.327 . S
C1710 H1735 0.950 . S
C1711 C1710 1.349 1_554 S
C1711 C1727 1.349 . S
C1712 C1710 1.327 . S
C1712 C1731 1.429 1_556 S
C1712 H1736 0.950 . S
C1713 C1730 1.574 . S
C1713 C1732 1.368 . S
C1713 H1737 0.949 . S
H1714 C1718 0.949 . S
C1715 C1716 1.349 . S
C1715 C1717 1.327 . S
C1715 H1738 0.950 . S
C1716 C1715 1.349 . S
C1716 C1728 1.349 1_554 S
C1717 C1715 1.327 . S
C1717 C1733 1.429 . S
C1717 H1739 0.950 . S
C1718 H1714 0.949 . S
C1718 C1726 1.574 . S
C1718 C1734 1.368 1_556 S
H1719 C1727 0.950 . S
H1720 C1725 0.950 . S
H1721 C1726 0.949 . S
H1722 C1728 0.950 . S
H1723 C1729 0.950 . S
H1724 C1730 0.949 . S
C1725 H1720 0.950 . S
C1725 C1727 1.327 . S
C1725 C1731 1.429 . S
C1726 C1718 1.574 . S
C1726 H1721 0.949 . S
C1726 C1732 1.368 1_556 S
C1727 C1711 1.349 . S
C1727 H1719 0.950 . S
C1727 C1725 1.327 . S
C1728 C1716 1.349 1_556 S
C1728 H1722 0.950 . S
C1728 C1729 1.327 . S
C1729 H1723 0.950 . S
C1729 C1728 1.327 . S
C1729 C1733 1.429 1_556 S
C1730 C1713 1.574 . S
C1730 H1724 0.949 . S
C1730 C1734 1.368 . S
C1731 C1712 1.429 1_554 S
C1731 C1725 1.429 . S
C1731 C1732 1.523 . S
C1732 C1713 1.368 . S
C1732 C1726 1.368 1_554 S
C1732 C1731 1.523 . S
C1733 C1717 1.429 . S
C1733 C1729 1.429 1_554 S
C1733 C1734 1.523 . S
C1734 C1718 1.368 1_554 S
C1734 C1730 1.368 . S
C1734 C1733 1.523 . S
H1735 C1710 0.950 . S
H1736 C1712 0.950 . S
H1737 C1713 0.949 . S
H1738 C1715 0.950 . S
H1739 C1717 0.950 . S
C1740 C1741 1.349 . S
C1740 C1742 1.327 . S
C1740 H1765 0.950 . S
C1741 C1740 1.349 . S
C1741 C1757 1.349 . S
C1742 C1740 1.327 . S
C1742 C1761 1.429 . S
C1742 H1766 0.950 . S
C1743 C1760 1.574 . S
C1743 C1762 1.368 . S
C1743 H1767 0.949 . S
H1744 C1748 0.949 . S
C1745 C1746 1.349 . S
C1745 C1747 1.327 . S
C1745 H1768 0.950 . S
C1746 C1745 1.349 . S
C1746 C1758 1.349 . S
C1747 C1745 1.327 . S
C1747 C1763 1.429 . S
C1747 H1769 0.950 . S
C1748 H1744 0.949 . S
C1748 C1756 1.574 . S
C1748 C1764 1.368 . S
H1749 C1757 0.950 . S
H1750 C1755 0.950 . S
H1751 C1756 0.949 . S
H1752 C1758 0.950 . S
H1753 C1759 0.950 . S
H1754 C1760 0.949 . S
C1755 H1750 0.950 . S
C1755 C1757 1.327 . S
C1755 C1761 1.429 . S
C1756 C1748 1.574 . S
C1756 H1751 0.949 . S
C1756 C1762 1.368 . S
C1757 C1741 1.349 . S
C1757 H1749 0.950 . S
C1757 C1755 1.327 . S
C1758 C1746 1.349 . S
C1758 H1752 0.950 . S
C1758 C1759 1.327 . S
C1759 H1753 0.950 . S
C1759 C1758 1.327 . S
C1759 C1763 1.429 . S
C1760 C1743 1.574 . S
C1760 H1754 0.949 . S
C1760 C1764 1.368 . S
C1761 C1742 1.429 . S
C1761 C1755 1.429 . S
C1761 C1762 1.523 . S
C1762 C1743 1.368 . S
C1762 C1756 1.368 . S
C1762 C1761 1.523 . S
C1763 C1747 1.429 . S
C1763 C1759 1.429 . S
C1763 C1764 1.523 . S
C1764 C1748 1.368 . S
C1764 C1760 1.368 . S
C1764 C1763 1.523 . S
H1765 C1740 0.950 . S
H1766 C1742 0.950 . S
H1767 C1743 0.949 . S
H1768 C1745 0.950 . S
H1769 C1747 0.950 . S
C1770 C1771 1.349 . S
C1770 C1772 1.327 . S
C1770 H1795 0.950 . S
C1771 C1770 1.349 . S
C1771 C1787 1.349 . S
C1772 C1770 1.327 . S
C1772 C1791 1.429 . S
C1772 H1796 0.950 . S
C1773 C1790 1.574 . S
C1773 C1792 1.368 . S
C1773 H1797 0.949 . S
H1774 C1778 0.949 . S
C1775 C1776 1.349 . S
C1775 C1777 1.327 . S
C1775 H1798 0.950 . S
C1776 C1775 1.349 . S
C1776 C1788 1.349 . S
C1777 C1775 1.327 . S
C1777 C1793 1.429 . S
C1777 H1799 0.950 . S
C1778 H1774 0.949 . S
C1778 C1786 1.574 . S
C1778 C1794 1.368 . S
H1779 C1787 0.950 . S
H1780 C1785 0.950 . S
H1781 C1786 0.949 . S
H1782 C1788 0.950 . S
H1783 C1789 0.950 . S
H1784 C1790 0.949 . S
C1785 H1780 0.950 . S
C1785 C1787 1.327 . S
C1785 C1791 1.429 . S
C1786 C1778 1.574 . S
C1786 H1781 0.949 . S
C1786 C1792 1.368 . S
C1787 C1771 1.349 . S
C1787 H1779 0.950 . S
C1787 C1785 1.327 . S
C1788 C1776 1.349 . S
C1788 H1782 0.950 . S
C1788 C1789 1.327 . S
C1789 H1783 0.950 . S
C1789 C1788 1.327 . S
C1789 C1793 1.429 . S
C1790 C1773 1.574 . S
C1790 H1784 0.949 . S
C1790 C1794 1.368 . S
C1791 C1772 1.429 . S
C1791 C1785 1.429 . S
C1791 C1792 1.523 . S
C1792 C1773 1.368 . S
C1792 C1786 1.368 . S
C1792 C1791 1.523 . S
C1793 C1777 1.429 . S
C1793 C1789 1.429 . S
C1793 C1794 1.523 . S
C1794 C1778 1.368 . S
C1794 C1790 1.368 . S
C1794 C1793 1.523 . S
H1795 C1770 0.950 . S
H1796 C1772 0.950 . S
H1797 C1773 0.949 . S
H1798 C1775 0.950 . S
H1799 C1777 0.950 . S
C1800 C1801 1.349 . S
C1800 C1802 1.327 . S
C1800 H1825 0.950 . S
C1801 C1800 1.349 . S
C1801 C1817 1.349 . S
C1802 C1800 1.327 . S
C1802 C1821 1.429 . S
C1802 H1826 0.950 . S
C1803 C1820 1.574 . S
C1803 C1822 1.368 . S
C1803 H1827 0.949 . S
H1804 C1808 0.949 . S
C1805 C1806 1.349 . S
C1805 C1807 1.327 . S
C1805 H1828 0.950 . S
C1806 C1805 1.349 . S
C1806 C1818 1.349 . S
C1807 C1805 1.327 . S
C1807 C1823 1.429 . S
C1807 H1829 0.950 . S
C1808 H1804 0.949 . S
C1808 C1816 1.574 . S
C1808 C1824 1.368 . S
H1809 C1817 0.950 . S
H1810 C1815 0.950 . S
H1811 C1816 0.949 . S
H1812 C1818 0.950 . S
H1813 C1819 0.950 . S
H1814 C1820 0.949 . S
C1815 H1810 0.950 . S
C1815 C1817 1.327 . S
C1815 C1821 1.429 . S
C1816 C1808 1.574 . S
C1816 H1811 0.949 . S
C1816 C1822 1.368 . S
C1817 C1801 1.349 . S
C1817 H1809 0.950 . S
C1817 C1815 1.327 . S
C1818 C1806 1.349 . S
C1818 H1812 0.950 . S
C1818 C1819 1.327 . S
C1819 H1813 0.950 . S
C1819 C1818 1.327 . S
C1819 C1823 1.429 . S
C1820 C1803 1.574 . S
C1820 H1814 0.949 . S
C1820 C1824 1.368 . S
C1821 C1802 1.429 . S
C1821 C1815 1.429 . S
C1821 C1822 1.523 . S
C1822 C1803 1.368 . S
C1822 C1816 1.368 . S
C1822 C1821 1.523 . S
C1823 C1807 1.429 . S
C1823 C1819 1.429 . S
C1823 C1824 1.523 . S
C1824 C1808 1.368 . S
C1824 C1820 1.368 . S
C1824 C1823 1.523 . S
H1825 C1800 0.950 . S
H1826 C1802 0.950 . S
H1827 C1803 0.949 . S
H1828 C1805 0.950 . S
H1829 C1807 0.950 . S
C1830 C1831 1.349 . S
C1830 C1832 1.327 . S
C1830 H1855 0.950 . S
C1831 C1830 1.349 . S
C1831 C1847 1.349 . S
C1832 C1830 1.327 . S
C1832 C1851 1.429 . S
C1832 H1856 0.950 . S
C1833 C1850 1.574 . S
C1833 C1852 1.368 . S
C1833 H1857 0.949 . S
H1834 C1838 0.949 . S
C1835 C1836 1.349 . S
C1835 C1837 1.327 . S
C1835 H1858 0.950 . S
C1836 C1835 1.349 . S
C1836 C1848 1.349 . S
C1837 C1835 1.327 . S
C1837 C1853 1.429 . S
C1837 H1859 0.950 . S
C1838 H1834 0.949 . S
C1838 C1846 1.574 . S
C1838 C1854 1.368 . S
H1839 C1847 0.950 . S
H1840 C1845 0.950 . S
H1841 C1846 0.949 . S
H1842 C1848 0.950 . S
H1843 C1849 0.950 . S
H1844 C1850 0.949 . S
C1845 H1840 0.950 . S
C1845 C1847 1.327 . S
C1845 C1851 1.429 . S
C1846 C1838 1.574 . S
C1846 H1841 0.949 . S
C1846 C1852 1.368 . S
C1847 C1831 1.349 . S
C1847 H1839 0.950 . S
C1847 C1845 1.327 . S
C1848 C1836 1.349 . S
C1848 H1842 0.950 . S
C1848 C1849 1.327 . S
C1849 H1843 0.950 . S
C1849 C1848 1.327 . S
C1849 C1853 1.429 . S
C1850 C1833 1.574 . S
C1850 H1844 0.949 . S
C1850 C1854 1.368 . S
C1851 C1832 1.429 . S
C1851 C1845 1.429 . S
C1851 C1852 1.523 . S
C1852 C1833 1.368 . S
C1852 C1846 1.368 . S
C1852 C1851 1.523 . S
C1853 C1837 1.429 . S
C1853 C1849 1.429 . S
C1853 C1854 1.523 . S
C1854 C1838 1.368 . S
C1854 C1850 1.368 . S
C1854 C1853 1.523 . S
H1855 C1830 0.950 . S
H1856 C1832 0.950 . S
H1857 C1833 0.949 . S
H1858 C1835 0.950 . S
H1859 C1837 0.950 . S
C1860 C1861 1.349 . S
C1860 C1862 1.327 . S
C1860 H1885 0.950 . S
C1861 C1860 1.349 . S
C1861 C1877 1.349 . S
C1862 C1860 1.327 . S
C1862 C1881 1.429 . S
C1862 H1886 0.950 . S
C1863 C1880 1.574 . S
C1863 C1882 1.368 . S
C1863 H1887 0.949 . S
H1864 C1868 0.949 . S
C1865 C1866 1.349 . S
C1865 C1867 1.327 . S
C1865 H1888 0.950 . S
C1866 C1865 1.349 . S
C1866 C1878 1.349 . S
C1867 C1865 1.327 . S
C1867 C1883 1.429 . S
C1867 H1889 0.950 . S
C1868 H1864 0.949 . S
C1868 C1876 1.574 . S
C1868 C1884 1.368 . S
H1869 C1877 0.950 . S
H1870 C1875 0.950 . S
H1871 C1876 0.949 . S
H1872 C1878 0.950 . S
H1873 C1879 0.950 . S
H1874 C1880 0.949 . S
C1875 H1870 0.950 . S
C1875 C1877 1.327 . S
C1875 C1881 1.429 . S
C1876 C1868 1.574 . S
C1876 H1871 0.949 . S
C1876 C1882 1.368 . S
C1877 C1861 1.349 . S
C1877 H1869 0.950 . S
C1877 C1875 1.327 . S
C1878 C1866 1.349 . S
C1878 H1872 0.950 . S
C1878 C1879 1.327 . S
C1879 H1873 0.950 . S
C1879 C1878 1.327 . S
C1879 C1883 1.429 . S
C1880 C1863 1.574 . S
C1880 H1874 0.949 . S
C1880 C1884 1.368 . S
C1881 C1862 1.429 . S
C1881 C1875 1.429 . S
C1881 C1882 1.523 . S
C1882 C1863 1.368 . S
C1882 C1876 1.368 . S
C1882 C1881 1.523 . S
C1883 C1867 1.429 . S
C1883 C1879 1.429 . S
C1883 C1884 1.523 . S
C1884 C1868 1.368 . S
C1884 C1880 1.368 . S
C1884 C1883 1.523 . S
H1885 C1860 0.950 . S
H1886 C1862 0.950 . S
H1887 C1863 0.949 . S
H1888 C1865 0.950 . S
H1889 C1867 0.950 . S
C1890 C1891 1.349 . S
C1890 C1892 1.327 . S
C1890 H1915 0.950 . S
C1891 C1890 1.349 . S
C1891 C1907 1.349 . S
C1892 C1890 1.327 . S
C1892 C1911 1.429 . S
C1892 H1916 0.950 . S
C1893 C1910 1.574 . S
C1893 C1912 1.368 . S
C1893 H1917 0.949 . S
H1894 C1898 0.949 . S
C1895 C1896 1.349 . S
C1895 C1897 1.327 . S
C1895 H1918 0.950 . S
C1896 C1895 1.349 . S
C1896 C1908 1.349 . S
C1897 C1895 1.327 . S
C1897 C1913 1.429 . S
C1897 H1919 0.950 . S
C1898 H1894 0.949 . S
C1898 C1906 1.574 . S
C1898 C1914 1.368 . S
H1899 C1907 0.950 . S
H1900 C1905 0.950 . S
H1901 C1906 0.949 . S
H1902 C1908 0.950 . S
H1903 C1909 0.950 . S
H1904 C1910 0.949 . S
C1905 H1900 0.950 . S
C1905 C1907 1.327 . S
C1905 C1911 1.429 . S
C1906 C1898 1.574 . S
C1906 H1901 0.949 . S
C1906 C1912 1.368 . S
C1907 C1891 1.349 . S
C1907 H1899 0.950 . S
C1907 C1905 1.327 . S
C1908 C1896 1.349 . S
C1908 H1902 0.950 . S
C1908 C1909 1.327 . S
C1909 H1903 0.950 . S
C1909 C1908 1.327 . S
C1909 C1913 1.429 . S
C1910 C1893 1.574 . S
C1910 H1904 0.949 . S
C1910 C1914 1.368 . S
C1911 C1892 1.429 . S
C1911 C1905 1.429 . S
C1911 C1912 1.523 . S
C1912 C1893 1.368 . S
C1912 C1906 1.368 . S
C1912 C1911 1.523 . S
C1913 C1897 1.429 . S
C1913 C1909 1.429 . S
C1913 C1914 1.523 . S
C1914 C1898 1.368 . S
C1914 C1910 1.368 . S
C1914 C1913 1.523 . S
H1915 C1890 0.950 . S
H1916 C1892 0.950 . S
H1917 C1893 0.949 . S
H1918 C1895 0.950 . S
H1919 C1897 0.950 . S
C1920 C1921 1.349 . S
C1920 C1922 1.327 . S
C1920 H1945 0.950 . S
C1921 C1920 1.349 . S
C1921 C1937 1.349 1_455 S
C1922 C1920 1.327 . S
C1922 C1941 1.429 . S
C1922 H1946 0.950 . S
C1923 C1940 1.574 . S
C1923 C1942 1.368 1_655 S
C1923 H1947 0.949 . S
H1924 C1928 0.949 . S
C1925 C1926 1.346 . S
C1925 C1927 1.327 1_455 S
C1925 H1948 0.953 1_455 S
C1926 C1925 1.346 . S
C1926 C1938 1.349 . S
C1927 C1925 1.327 1_655 S
C1927 C1943 1.429 1_655 S
C1927 H1949 0.950 . S
C1928 H1924 0.949 . S
C1928 C1936 1.574 . S
C1928 C1944 1.368 . S
H1929 C1937 0.950 . S
H1930 C1935 0.950 . S
H1931 C1936 0.949 . S
H1932 C1938 0.950 . S
H1933 C1939 0.950 . S
H1934 C1940 0.949 . S
C1935 H1930 0.950 . S
C1935 C1937 1.327 . S
C1935 C1941 1.429 1_655 S
C1936 C1928 1.574 . S
C1936 H1931 0.949 . S
C1936 C1942 1.368 . S
C1937 C1921 1.349 1_655 S
C1937 H1929 0.950 . S
C1937 C1935 1.327 . S
C1938 C1926 1.349 . S
C1938 H1932 0.950 . S
C1938 C1939 1.327 . S
C1939 H1933 0.950 . S
C1939 C1938 1.327 . S
C1939 C1943 1.429 . S
C1940 C1923 1.574 . S
C1940 H1934 0.949 . S
C1940 C1944 1.368 1_655 S
C1941 C1922 1.429 . S
C1941 C1935 1.429 1_455 S
C1941 C1942 1.523 . S
C1942 C1923 1.368 1_455 S
C1942 C1936 1.368 . S
C1942 C1941 1.523 . S
C1943 C1927 1.429 1_455 S
C1943 C1939 1.429 . S
C1943 C1944 1.523 . S
C1944 C1928 1.368 . S
C1944 C1940 1.368 1_455 S
C1944 C1943 1.523 . S
H1945 C1920 0.950 . S
H1946 C1922 0.950 . S
H1947 C1923 0.949 . S
H1948 C1925 0.953 1_655 S
H1949 C1927 0.950 . S
C1950 C1951 1.349 . S
C1950 C1952 1.327 . S
C1950 H1975 0.950 . S
C1951 C1950 1.349 . S
C1951 C1967 1.349 . S
C1952 C1950 1.327 . S
C1952 C1971 1.429 . S
C1952 H1976 0.950 . S
C1953 C1970 1.574 . S
C1953 C1972 1.368 . S
C1953 H1977 0.949 . S
H1954 C1958 0.949 . S
C1955 C1956 1.349 . S
C1955 C1957 1.327 . S
C1955 H1978 0.950 . S
C1956 C1955 1.349 . S
C1956 C1968 1.349 . S
C1957 C1955 1.327 . S
C1957 C1973 1.429 . S
C1957 H1979 0.950 . S
C1958 H1954 0.949 . S
C1958 C1966 1.574 . S
C1958 C1974 1.368 . S
H1959 C1967 0.950 . S
H1960 C1965 0.950 . S
H1961 C1966 0.949 . S
H1962 C1968 0.950 . S
H1963 C1969 0.950 . S
H1964 C1970 0.949 . S
C1965 H1960 0.950 . S
C1965 C1967 1.327 . S
C1965 C1971 1.429 . S
C1966 C1958 1.574 . S
C1966 H1961 0.949 . S
C1966 C1972 1.368 . S
C1967 C1951 1.349 . S
C1967 H1959 0.950 . S
C1967 C1965 1.327 . S
C1968 C1956 1.349 . S
C1968 H1962 0.950 . S
C1968 C1969 1.327 . S
C1969 H1963 0.950 . S
C1969 C1968 1.327 . S
C1969 C1973 1.429 . S
C1970 C1953 1.574 . S
C1970 H1964 0.949 . S
C1970 C1974 1.368 . S
C1971 C1952 1.429 . S
C1971 C1965 1.429 . S
C1971 C1972 1.523 . S
C1972 C1953 1.368 . S
C1972 C1966 1.368 . S
C1972 C1971 1.523 . S
C1973 C1957 1.429 . S
C1973 C1969 1.429 . S
C1973 C1974 1.523 . S
C1974 C1958 1.368 . S
C1974 C1970 1.368 . S
C1974 C1973 1.523 . S
H1975 C1950 0.950 . S
H1976 C1952 0.950 . S
H1977 C1953 0.949 . S
H1978 C1955 0.950 . S
H1979 C1957 0.950 . S
C1980 C1981 1.349 . S
C1980 C1982 1.327 . S
C1980 H2005 0.950 . S
C1981 C1980 1.349 . S
C1981 C1997 1.349 . S
C1982 C1980 1.327 . S
C1982 C2001 1.429 . S
C1982 H2006 0.950 . S
C1983 C2000 1.574 . S
C1983 C2002 1.368 . S
C1983 H2007 0.949 . S
H1984 C1988 0.949 . S
C1985 C1986 1.349 . S
C1985 C1987 1.327 . S
C1985 H2008 0.950 . S
C1986 C1985 1.349 . S
C1986 C1998 1.349 . S
C1987 C1985 1.327 . S
C1987 C2003 1.429 . S
C1987 H2009 0.950 . S
C1988 H1984 0.949 . S
C1988 C1996 1.574 . S
C1988 C2004 1.368 . S
H1989 C1997 0.950 . S
H1990 C1995 0.950 . S
H1991 C1996 0.949 . S
H1992 C1998 0.950 . S
H1993 C1999 0.950 . S
H1994 C2000 0.949 . S
C1995 H1990 0.950 . S
C1995 C1997 1.327 . S
C1995 C2001 1.429 . S
C1996 C1988 1.574 . S
C1996 H1991 0.949 . S
C1996 C2002 1.368 . S
C1997 C1981 1.349 . S
C1997 H1989 0.950 . S
C1997 C1995 1.327 . S
C1998 C1986 1.349 . S
C1998 H1992 0.950 . S
C1998 C1999 1.327 . S
C1999 H1993 0.950 . S
C1999 C1998 1.327 . S
C1999 C2003 1.429 . S
C2000 C1983 1.574 . S
C2000 H1994 0.949 . S
C2000 C2004 1.368 . S
C2001 C1982 1.429 . S
C2001 C1995 1.429 . S
C2001 C2002 1.523 . S
C2002 C1983 1.368 . S
C2002 C1996 1.368 . S
C2002 C2001 1.523 . S
C2003 C1987 1.429 . S
C2003 C1999 1.429 . S
C2003 C2004 1.523 . S
C2004 C1988 1.368 . S
C2004 C2000 1.368 . S
C2004 C2003 1.523 . S
H2005 C1980 0.950 . S
H2006 C1982 0.950 . S
H2007 C1983 0.949 . S
H2008 C1985 0.950 . S
H2009 C1987 0.950 . S
C2010 C2011 1.349 . S
C2010 C2012 1.327 . S
C2010 H2035 0.950 . S
C2011 C2010 1.349 . S
C2011 C2027 1.349 . S
C2012 C2010 1.327 . S
C2012 C2031 1.429 . S
C2012 H2036 0.950 . S
C2013 C2030 1.574 . S
C2013 C2032 1.368 . S
C2013 H2037 0.949 . S
H2014 C2018 0.949 . S
C2015 C2016 1.349 . S
C2015 C2017 1.327 . S
C2015 H2038 0.950 . S
C2016 C2015 1.349 . S
C2016 C2028 1.349 . S
C2017 C2015 1.327 . S
C2017 C2033 1.429 . S
C2017 H2039 0.950 . S
C2018 H2014 0.949 . S
C2018 C2026 1.574 . S
C2018 C2034 1.368 . S
H2019 C2027 0.950 . S
H2020 C2025 0.950 . S
H2021 C2026 0.949 . S
H2022 C2028 0.950 . S
H2023 C2029 0.950 . S
H2024 C2030 0.949 . S
C2025 H2020 0.950 . S
C2025 C2027 1.327 . S
C2025 C2031 1.429 . S
C2026 C2018 1.574 . S
C2026 H2021 0.949 . S
C2026 C2032 1.368 . S
C2027 C2011 1.349 . S
C2027 H2019 0.950 . S
C2027 C2025 1.327 . S
C2028 C2016 1.349 . S
C2028 H2022 0.950 . S
C2028 C2029 1.327 . S
C2029 H2023 0.950 . S
C2029 C2028 1.327 . S
C2029 C2033 1.429 . S
C2030 C2013 1.574 . S
C2030 H2024 0.949 . S
C2030 C2034 1.368 . S
C2031 C2012 1.429 . S
C2031 C2025 1.429 . S
C2031 C2032 1.523 . S
C2032 C2013 1.368 . S
C2032 C2026 1.368 . S
C2032 C2031 1.523 . S
C2033 C2017 1.429 . S
C2033 C2029 1.429 . S
C2033 C2034 1.523 . S
C2034 C2018 1.368 . S
C2034 C2030 1.368 . S
C2034 C2033 1.523 . S
H2035 C2010 0.950 . S
H2036 C2012 0.950 . S
H2037 C2013 0.949 . S
H2038 C2015 0.950 . S
H2039 C2017 0.950 . S
C2040 C2041 1.349 . S
C2040 C2042 1.327 . S
C2040 H2065 0.950 . S
C2041 C2040 1.349 . S
C2041 C2057 1.349 1_455 S
C2042 C2040 1.327 . S
C2042 C2061 1.429 . S
C2042 H2066 0.950 . S
C2043 C2060 1.574 . S
C2043 C2062 1.368 1_655 S
C2043 H2067 0.949 . S
H2044 C2048 0.949 . S
C2045 C2046 1.349 . S
C2045 C2047 1.326 1_455 S
C2045 H2068 0.950 1_455 S
C2046 C2045 1.349 . S
C2046 C2058 1.349 . S
C2047 C2045 1.326 1_655 S
C2047 C2063 1.419 1_655 S
C2047 H2069 0.961 . S
C2048 H2044 0.949 . S
C2048 C2056 1.574 . S
C2048 C2064 1.368 . S
H2049 C2057 0.950 . S
H2050 C2055 0.950 . S
H2051 C2056 0.949 . S
H2052 C2058 0.950 . S
H2053 C2059 0.950 . S
H2054 C2060 0.949 . S
C2055 H2050 0.950 . S
C2055 C2057 1.327 . S
C2055 C2061 1.429 1_655 S
C2056 C2048 1.574 . S
C2056 H2051 0.949 . S
C2056 C2062 1.368 . S
C2057 C2041 1.349 1_655 S
C2057 H2049 0.950 . S
C2057 C2055 1.327 . S
C2058 C2046 1.349 . S
C2058 H2052 0.950 . S
C2058 C2059 1.327 . S
C2059 H2053 0.950 . S
C2059 C2058 1.327 . S
C2059 C2063 1.429 . S
C2060 C2043 1.574 . S
C2060 H2054 0.949 . S
C2060 C2064 1.368 1_655 S
C2061 C2042 1.429 . S
C2061 C2055 1.429 1_455 S
C2061 C2062 1.523 . S
C2062 C2043 1.368 1_455 S
C2062 C2056 1.368 . S
C2062 C2061 1.523 . S
C2063 C2047 1.419 1_455 S
C2063 C2059 1.429 . S
C2063 C2064 1.523 . S
C2064 C2048 1.368 . S
C2064 C2060 1.368 1_455 S
C2064 C2063 1.523 . S
H2065 C2040 0.950 . S
H2066 C2042 0.950 . S
H2067 C2043 0.949 . S
H2068 C2045 0.950 1_655 S
H2069 C2047 0.961 . S
C2070 C2071 1.349 . S
C2070 C2072 1.327 . S
C2070 H2095 0.950 . S
C2071 C2070 1.349 . S
C2071 C2087 1.349 . S
C2072 C2070 1.327 . S
C2072 C2091 1.429 . S
C2072 H2096 0.950 . S
C2073 C2090 1.574 . S
C2073 C2092 1.368 . S
C2073 H2097 0.949 . S
H2074 C2078 0.949 . S
C2075 C2076 1.349 . S
C2075 C2077 1.327 . S
C2075 H2098 0.950 . S
C2076 C2075 1.349 . S
C2076 C2088 1.349 . S
C2077 C2075 1.327 . S
C2077 C2093 1.429 . S
C2077 H2099 0.950 . S
C2078 H2074 0.949 . S
C2078 C2086 1.574 . S
C2078 C2094 1.368 . S
H2079 C2087 0.950 . S
H2080 C2085 0.950 . S
H2081 C2086 0.949 . S
H2082 C2088 0.950 . S
H2083 C2089 0.950 . S
H2084 C2090 0.949 . S
C2085 H2080 0.950 . S
C2085 C2087 1.327 . S
C2085 C2091 1.429 . S
C2086 C2078 1.574 . S
C2086 H2081 0.949 . S
C2086 C2092 1.368 . S
C2087 C2071 1.349 . S
C2087 H2079 0.950 . S
C2087 C2085 1.327 . S
C2088 C2076 1.349 . S
C2088 H2082 0.950 . S
C2088 C2089 1.327 . S
C2089 H2083 0.950 . S
C2089 C2088 1.327 . S
C2089 C2093 1.429 . S
C2090 C2073 1.574 . S
C2090 H2084 0.949 . S
C2090 C2094 1.368 . S
C2091 C2072 1.429 . S
C2091 C2085 1.429 . S
C2091 C2092 1.523 . S
C2092 C2073 1.368 . S
C2092 C2086 1.368 . S
C2092 C2091 1.523 . S
C2093 C2077 1.429 . S
C2093 C2089 1.429 . S
C2093 C2094 1.523 . S
C2094 C2078 1.368 . S
C2094 C2090 1.368 . S
C2094 C2093 1.523 . S
H2095 C2070 0.950 . S
H2096 C2072 0.950 . S
H2097 C2073 0.949 . S
H2098 C2075 0.950 . S
H2099 C2077 0.950 . S
C2100 C2101 1.349 . S
C2100 C2102 1.327 . S
C2100 H2125 0.950 . S
C2101 C2100 1.349 . S
C2101 C2117 1.349 . S
C2102 C2100 1.327 . S
C2102 C2121 1.429 . S
C2102 H2126 0.950 . S
C2103 C2120 1.574 . S
C2103 C2122 1.368 . S
C2103 H2127 0.949 . S
H2104 C2108 0.949 . S
C2105 C2106 1.349 . S
C2105 C2107 1.327 . S
C2105 H2128 0.950 . S
C2106 C2105 1.349 . S
C2106 C2118 1.349 . S
C2107 C2105 1.327 . S
C2107 C2123 1.429 . S
C2107 H2129 0.950 . S
C2108 H2104 0.949 . S
C2108 C2116 1.574 . S
C2108 C2124 1.368 . S
H2109 C2117 0.950 . S
H2110 C2115 0.950 . S
H2111 C2116 0.949 . S
H2112 C2118 0.950 . S
H2113 C2119 0.950 . S
H2114 C2120 0.949 . S
C2115 H2110 0.950 . S
C2115 C2117 1.327 . S
C2115 C2121 1.429 . S
C2116 C2108 1.574 . S
C2116 H2111 0.949 . S
C2116 C2122 1.368 . S
C2117 C2101 1.349 . S
C2117 H2109 0.950 . S
C2117 C2115 1.327 . S
C2118 C2106 1.349 . S
C2118 H2112 0.950 . S
C2118 C2119 1.327 . S
C2119 H2113 0.950 . S
C2119 C2118 1.327 . S
C2119 C2123 1.429 . S
C2120 C2103 1.574 . S
C2120 H2114 0.949 . S
C2120 C2124 1.368 . S
C2121 C2102 1.429 . S
C2121 C2115 1.429 . S
C2121 C2122 1.523 . S
C2122 C2103 1.368 . S
C2122 C2116 1.368 . S
C2122 C2121 1.523 . S
C2123 C2107 1.429 . S
C2123 C2119 1.429 . S
C2123 C2124 1.523 . S
C2124 C2108 1.368 . S
C2124 C2120 1.368 . S
C2124 C2123 1.523 . S
H2125 C2100 0.950 . S
H2126 C2102 0.950 . S
H2127 C2103 0.949 . S
H2128 C2105 0.950 . S
H2129 C2107 0.950 . S
C2130 C2131 1.349 . S
C2130 C2132 1.327 . S
C2130 H2155 0.950 . S
C2131 C2130 1.349 . S
C2131 C2147 1.349 . S
C2132 C2130 1.327 . S
C2132 C2151 1.429 . S
C2132 H2156 0.950 . S
C2133 C2150 1.574 . S
C2133 C2152 1.368 . S
C2133 H2157 0.949 . S
H2134 C2138 0.949 . S
C2135 C2136 1.349 . S
C2135 C2137 1.327 . S
C2135 H2158 0.950 . S
C2136 C2135 1.349 . S
C2136 C2148 1.349 . S
C2137 C2135 1.327 . S
C2137 C2153 1.429 . S
C2137 H2159 0.950 . S
C2138 H2134 0.949 . S
C2138 C2146 1.574 . S
C2138 C2154 1.368 . S
H2139 C2147 0.950 . S
H2140 C2145 0.950 . S
H2141 C2146 0.949 . S
H2142 C2148 0.950 . S
H2143 C2149 0.950 . S
H2144 C2150 0.949 . S
C2145 H2140 0.950 . S
C2145 C2147 1.327 . S
C2145 C2151 1.429 . S
C2146 C2138 1.574 . S
C2146 H2141 0.949 . S
C2146 C2152 1.368 . S
C2147 C2131 1.349 . S
C2147 H2139 0.950 . S
C2147 C2145 1.327 . S
C2148 C2136 1.349 . S
C2148 H2142 0.950 . S
C2148 C2149 1.327 . S
C2149 H2143 0.950 . S
C2149 C2148 1.327 . S
C2149 C2153 1.429 . S
C2150 C2133 1.574 . S
C2150 H2144 0.949 . S
C2150 C2154 1.368 . S
C2151 C2132 1.429 . S
C2151 C2145 1.429 . S
C2151 C2152 1.523 . S
C2152 C2133 1.368 . S
C2152 C2146 1.368 . S
C2152 C2151 1.523 . S
C2153 C2137 1.429 . S
C2153 C2149 1.429 . S
C2153 C2154 1.523 . S
C2154 C2138 1.368 . S
C2154 C2150 1.368 . S
C2154 C2153 1.523 . S
H2155 C2130 0.950 . S
H2156 C2132 0.950 . S
H2157 C2133 0.949 . S
H2158 C2135 0.950 . S
H2159 C2137 0.950 . S
C2160 C2161 1.349 1_565 S
C2160 C2162 1.327 . S
C2160 H2185 0.950 . S
C2161 C2160 1.349 1_545 S
C2161 C2177 1.349 . S
C2162 C2160 1.327 . S
C2162 C2181 1.429 1_565 S
C2162 H2186 0.950 . S
C2163 C2180 1.574 . S
C2163 C2182 1.368 . S
C2163 H2187 0.949 . S
H2164 C2168 0.949 . S
C2165 C2166 1.349 . S
C2165 C2167 1.327 . S
C2165 H2188 0.950 . S
C2166 C2165 1.349 . S
C2166 C2178 1.349 1_545 S
C2167 C2165 1.327 . S
C2167 C2183 1.429 . S
C2167 H2189 0.950 . S
C2168 H2164 0.949 . S
C2168 C2176 1.574 . S
C2168 C2184 1.368 1_565 S
H2169 C2177 0.950 . S
H2170 C2175 0.950 . S
H2171 C2176 0.949 . S
H2172 C2178 0.950 . S
H2173 C2179 0.950 . S
H2174 C2180 0.949 . S
C2175 H2170 0.950 . S
C2175 C2177 1.327 . S
C2175 C2181 1.429 . S
C2176 C2168 1.574 . S
C2176 H2171 0.949 . S
C2176 C2182 1.368 1_565 S
C2177 C2161 1.349 . S
C2177 H2169 0.950 . S
C2177 C2175 1.327 . S
C2178 C2166 1.349 1_565 S
C2178 H2172 0.950 . S
C2178 C2179 1.327 . S
C2179 H2173 0.950 . S
C2179 C2178 1.327 . S
C2179 C2183 1.429 1_565 S
C2180 C2163 1.574 . S
C2180 H2174 0.949 . S
C2180 C2184 1.368 . S
C2181 C2162 1.429 1_545 S
C2181 C2175 1.429 . S
C2181 C2182 1.523 . S
C2182 C2163 1.368 . S
C2182 C2176 1.368 1_545 S
C2182 C2181 1.523 . S
C2183 C2167 1.429 . S
C2183 C2179 1.429 1_545 S
C2183 C2184 1.523 . S
C2184 C2168 1.368 1_545 S
C2184 C2180 1.368 . S
C2184 C2183 1.523 . S
H2185 C2160 0.950 . S
H2186 C2162 0.950 . S
H2187 C2163 0.949 . S
H2188 C2165 0.950 . S
H2189 C2167 0.950 . S
C2190 C2191 1.349 . S
C2190 C2192 1.327 . S
C2190 H2215 0.950 . S
C2191 C2190 1.349 . S
C2191 C2207 1.349 . S
C2192 C2190 1.327 . S
C2192 C2211 1.429 . S
C2192 H2216 0.950 . S
C2193 C2210 1.574 . S
C2193 C2212 1.368 . S
C2193 H2217 0.949 . S
H2194 C2198 0.949 . S
C2195 C2196 1.349 . S
C2195 C2197 1.327 . S
C2195 H2218 0.950 . S
C2196 C2195 1.349 . S
C2196 C2208 1.349 . S
C2197 C2195 1.327 . S
C2197 C2213 1.429 . S
C2197 H2219 0.950 . S
C2198 H2194 0.949 . S
C2198 C2206 1.574 . S
C2198 C2214 1.368 . S
H2199 C2207 0.950 . S
H2200 C2205 0.950 . S
H2201 C2206 0.949 . S
H2202 C2208 0.950 . S
H2203 C2209 0.950 . S
H2204 C2210 0.949 . S
C2205 H2200 0.950 . S
C2205 C2207 1.327 . S
C2205 C2211 1.429 . S
C2206 C2198 1.574 . S
C2206 H2201 0.949 . S
C2206 C2212 1.368 . S
C2207 C2191 1.349 . S
C2207 H2199 0.950 . S
C2207 C2205 1.327 . S
C2208 C2196 1.349 . S
C2208 H2202 0.950 . S
C2208 C2209 1.327 . S
C2209 H2203 0.950 . S
C2209 C2208 1.327 . S
C2209 C2213 1.429 . S
C2210 C2193 1.574 . S
C2210 H2204 0.949 . S
C2210 C2214 1.368 . S
C2211 C2192 1.429 . S
C2211 C2205 1.429 . S
C2211 C2212 1.523 . S
C2212 C2193 1.368 . S
C2212 C2206 1.368 . S
C2212 C2211 1.523 . S
C2213 C2197 1.429 . S
C2213 C2209 1.429 . S
C2213 C2214 1.523 . S
C2214 C2198 1.368 . S
C2214 C2210 1.368 . S
C2214 C2213 1.523 . S
H2215 C2190 0.950 . S
H2216 C2192 0.950 . S
H2217 C2193 0.949 . S
H2218 C2195 0.950 . S
H2219 C2197 0.950 . S
C2220 C2221 1.349 . S
C2220 C2222 1.327 . S
C2220 H2245 0.950 . S
C2221 C2220 1.349 . S
C2221 C2237 1.349 1_545 S
C2222 C2220 1.327 . S
C2222 C2241 1.429 . S
C2222 H2246 0.950 . S
C2223 C2240 1.574 . S
C2223 C2242 1.363 1_565 S
C2223 H2247 0.949 . S
H2224 C2228 0.949 . S
C2225 C2226 1.349 . S
C2225 C2227 1.327 . S
C2225 H2248 0.950 . S
C2226 C2225 1.349 . S
C2226 C2238 1.349 1_565 S
C2227 C2225 1.327 . S
C2227 C2243 1.429 . S
C2227 H2249 0.950 . S
C2228 H2224 0.949 . S
C2228 C2236 1.574 . S
C2228 C2244 1.368 1_545 S
H2229 C2237 0.950 . S
H2230 C2235 0.950 . S
H2231 C2236 0.949 . S
H2232 C2238 0.950 . S
H2233 C2239 0.950 . S
H2234 C2240 0.949 . S
C2235 H2230 0.950 . S
C2235 C2237 1.327 . S
C2235 C2241 1.429 1_565 S
C2236 C2228 1.574 . S
C2236 H2231 0.949 . S
C2236 C2242 1.373 . S
C2237 C2221 1.349 1_565 S
C2237 H2229 0.950 . S
C2237 C2235 1.327 . S
C2238 C2226 1.349 1_545 S
C2238 H2232 0.950 . S
C2238 C2239 1.327 . S
C2239 H2233 0.950 . S
C2239 C2238 1.327 . S
C2239 C2243 1.429 1_545 S
C2240 C2223 1.574 . S
C2240 H2234 0.949 . S
C2240 C2244 1.368 . S
C2241 C2222 1.429 . S
C2241 C2235 1.429 1_545 S
C2241 C2242 1.523 . S
C2242 C2223 1.363 1_545 S
C2242 C2236 1.373 . S
C2242 C2241 1.523 . S
C2243 C2227 1.429 . S
C2243 C2239 1.429 1_565 S
C2243 C2244 1.523 . S
C2244 C2228 1.368 1_565 S
C2244 C2240 1.368 . S
C2244 C2243 1.523 . S
H2245 C2220 0.950 . S
H2246 C2222 0.950 . S
H2247 C2223 0.949 . S
H2248 C2225 0.950 . S
H2249 C2227 0.950 . S
C2250 C2251 1.349 . S
C2250 C2252 1.327 . S
C2250 H2275 0.950 . S
C2251 C2250 1.349 . S
C2251 C2267 1.349 . S
C2252 C2250 1.327 . S
C2252 C2271 1.429 . S
C2252 H2276 0.950 . S
C2253 C2270 1.574 . S
C2253 C2272 1.368 . S
C2253 H2277 0.949 . S
H2254 C2258 0.949 . S
C2255 C2256 1.349 . S
C2255 C2257 1.327 . S
C2255 H2278 0.950 . S
C2256 C2255 1.349 . S
C2256 C2268 1.349 . S
C2257 C2255 1.327 . S
C2257 C2273 1.429 . S
C2257 H2279 0.950 . S
C2258 H2254 0.949 . S
C2258 C2266 1.574 . S
C2258 C2274 1.368 . S
H2259 C2267 0.950 . S
H2260 C2265 0.950 . S
H2261 C2266 0.949 . S
H2262 C2268 0.950 . S
H2263 C2269 0.950 . S
H2264 C2270 0.949 . S
C2265 H2260 0.950 . S
C2265 C2267 1.327 . S
C2265 C2271 1.429 . S
C2266 C2258 1.574 . S
C2266 H2261 0.949 . S
C2266 C2272 1.368 . S
C2267 C2251 1.349 . S
C2267 H2259 0.950 . S
C2267 C2265 1.327 . S
C2268 C2256 1.349 . S
C2268 H2262 0.950 . S
C2268 C2269 1.327 . S
C2269 H2263 0.950 . S
C2269 C2268 1.327 . S
C2269 C2273 1.429 . S
C2270 C2253 1.574 . S
C2270 H2264 0.949 . S
C2270 C2274 1.368 . S
C2271 C2252 1.429 . S
C2271 C2265 1.429 . S
C2271 C2272 1.523 . S
C2272 C2253 1.368 . S
C2272 C2266 1.368 . S
C2272 C2271 1.523 . S
C2273 C2257 1.429 . S
C2273 C2269 1.429 . S
C2273 C2274 1.523 . S
C2274 C2258 1.368 . S
C2274 C2270 1.368 . S
C2274 C2273 1.523 . S
H2275 C2250 0.950 . S
H2276 C2252 0.950 . S
H2277 C2253 0.949 . S
H2278 C2255 0.950 . S
H2279 C2257 0.950 . S
C2280 C2281 1.346 . S
C2280 C2282 1.327 . S
C2280 H2305 0.950 . S
C2281 C2280 1.346 . S
C2281 C2297 1.352 1_565 S
C2282 C2280 1.327 . S
C2282 C2301 1.429 . S
C2282 H2306 0.950 . S
C2283 C2300 1.574 . S
C2283 C2302 1.368 1_545 S
C2283 H2307 0.949 . S
H2284 C2288 0.949 . S
C2285 C2286 1.349 1_545 S
C2285 C2287 1.327 . S
C2285 H2308 0.950 . S
C2286 C2285 1.349 1_565 S
C2286 C2298 1.349 . S
C2287 C2285 1.327 . S
C2287 C2303 1.429 1_545 S
C2287 H2309 0.950 . S
C2288 H2284 0.949 . S
C2288 C2296 1.574 . S
C2288 C2304 1.368 . S
H2289 C2297 0.950 . S
H2290 C2295 0.950 . S
H2291 C2296 0.949 . S
H2292 C2298 0.950 . S
H2293 C2299 0.950 . S
H2294 C2300 0.949 . S
C2295 H2290 0.950 . S
C2295 C2297 1.327 . S
C2295 C2301 1.429 1_545 S
C2296 C2288 1.574 . S
C2296 H2291 0.949 . S
C2296 C2302 1.368 . S
C2297 C2281 1.352 1_545 S
C2297 H2289 0.950 . S
C2297 C2295 1.327 . S
C2298 C2286 1.349 . S
C2298 H2292 0.950 . S
C2298 C2299 1.327 . S
C2299 H2293 0.950 . S
C2299 C2298 1.327 . S
C2299 C2303 1.429 . S
C2300 C2283 1.574 . S
C2300 H2294 0.949 . S
C2300 C2304 1.368 1_545 S
C2301 C2282 1.429 . S
C2301 C2295 1.429 1_565 S
C2301 C2302 1.523 . S
C2302 C2283 1.368 1_565 S
C2302 C2296 1.368 . S
C2302 C2301 1.523 . S
C2303 C2287 1.429 1_565 S
C2303 C2299 1.429 . S
C2303 C2304 1.523 . S
C2304 C2288 1.368 . S
C2304 C2300 1.368 1_565 S
C2304 C2303 1.523 . S
H2305 C2280 0.950 . S
H2306 C2282 0.950 . S
H2307 C2283 0.949 . S
H2308 C2285 0.950 . S
H2309 C2287 0.950 . S
C2310 C2311 1.349 . S
C2310 C2312 1.327 . S
C2310 H2335 0.950 . S
C2311 C2310 1.349 . S
C2311 C2327 1.349 . S
C2312 C2310 1.327 . S
C2312 C2331 1.429 . S
C2312 H2336 0.950 . S
C2313 C2330 1.574 . S
C2313 C2332 1.368 . S
C2313 H2337 0.949 . S
H2314 C2318 0.949 . S
C2315 C2316 1.349 . S
C2315 C2317 1.327 . S
C2315 H2338 0.950 . S
C2316 C2315 1.349 . S
C2316 C2328 1.349 . S
C2317 C2315 1.327 . S
C2317 C2333 1.429 . S
C2317 H2339 0.950 . S
C2318 H2314 0.949 . S
C2318 C2326 1.574 . S
C2318 C2334 1.368 . S
H2319 C2327 0.950 . S
H2320 C2325 0.950 . S
H2321 C2326 0.949 . S
H2322 C2328 0.950 . S
H2323 C2329 0.950 . S
H2324 C2330 0.949 . S
C2325 H2320 0.950 . S
C2325 C2327 1.327 . S
C2325 C2331 1.429 . S
C2326 C2318 1.574 . S
C2326 H2321 0.949 . S
C2326 C2332 1.368 . S
C2327 C2311 1.349 . S
C2327 H2319 0.950 . S
C2327 C2325 1.327 . S
C2328 C2316 1.349 . S
C2328 H2322 0.950 . S
C2328 C2329 1.327 . S
C2329 H2323 0.950 . S
C2329 C2328 1.327 . S
C2329 C2333 1.429 . S
C2330 C2313 1.574 . S
C2330 H2324 0.949 . S
C2330 C2334 1.368 . S
C2331 C2312 1.429 . S
C2331 C2325 1.429 . S
C2331 C2332 1.523 . S
C2332 C2313 1.368 . S
C2332 C2326 1.368 . S
C2332 C2331 1.523 . S
C2333 C2317 1.429 . S
C2333 C2329 1.429 . S
C2333 C2334 1.523 . S
C2334 C2318 1.368 . S
C2334 C2330 1.368 . S
C2334 C2333 1.523 . S
H2335 C2310 0.950 . S
H2336 C2312 0.950 . S
H2337 C2313 0.949 . S
H2338 C2315 0.950 . S
H2339 C2317 0.950 . S
C2340 C2341 1.349 . S
C2340 C2342 1.327 . S
C2340 H2365 0.950 . S
C2341 C2340 1.349 . S
C2341 C2357 1.349 1_545 S
C2342 C2340 1.327 . S
C2342 C2361 1.429 . S
C2342 H2366 0.950 . S
C2343 C2360 1.574 . S
C2343 C2362 1.368 1_565 S
C2343 H2367 0.949 . S
H2344 C2348 0.949 . S
C2345 C2346 1.349 1_565 S
C2345 C2347 1.327 . S
C2345 H2368 0.950 . S
C2346 C2345 1.349 1_545 S
C2346 C2358 1.349 . S
C2347 C2345 1.327 . S
C2347 C2363 1.429 1_565 S
C2347 H2369 0.950 . S
C2348 H2344 0.949 . S
C2348 C2356 1.574 . S
C2348 C2364 1.368 . S
H2349 C2357 0.950 . S
H2350 C2355 0.950 . S
H2351 C2356 0.949 . S
H2352 C2358 0.950 . S
H2353 C2359 0.950 . S
H2354 C2360 0.949 . S
C2355 H2350 0.950 . S
C2355 C2357 1.327 . S
C2355 C2361 1.429 1_565 S
C2356 C2348 1.574 . S
C2356 H2351 0.949 . S
C2356 C2362 1.368 . S
C2357 C2341 1.349 1_565 S
C2357 H2349 0.950 . S
C2357 C2355 1.327 . S
C2358 C2346 1.349 . S
C2358 H2352 0.950 . S
C2358 C2359 1.327 . S
C2359 H2353 0.950 . S
C2359 C2358 1.327 . S
C2359 C2363 1.429 . S
C2360 C2343 1.574 . S
C2360 H2354 0.949 . S
C2360 C2364 1.368 1_565 S
C2361 C2342 1.429 . S
C2361 C2355 1.429 1_545 S
C2361 C2362 1.523 . S
C2362 C2343 1.368 1_545 S
C2362 C2356 1.368 . S
C2362 C2361 1.523 . S
C2363 C2347 1.429 1_545 S
C2363 C2359 1.429 . S
C2363 C2364 1.523 . S
C2364 C2348 1.368 . S
C2364 C2360 1.368 1_545 S
C2364 C2363 1.523 . S
H2365 C2340 0.950 . S
H2366 C2342 0.950 . S
H2367 C2343 0.949 . S
H2368 C2345 0.950 . S
H2369 C2347 0.950 . S
C2370 C2371 1.349 . S
C2370 C2372 1.327 . S
C2370 H2395 0.950 . S
C2371 C2370 1.349 . S
C2371 C2387 1.349 . S
C2372 C2370 1.327 . S
C2372 C2391 1.429 . S
C2372 H2396 0.950 . S
C2373 C2390 1.574 . S
C2373 C2392 1.368 . S
C2373 H2397 0.949 . S
H2374 C2378 0.949 . S
C2375 C2376 1.349 . S
C2375 C2377 1.327 . S
C2375 H2398 0.950 . S
C2376 C2375 1.349 . S
C2376 C2388 1.349 . S
C2377 C2375 1.327 . S
C2377 C2393 1.429 . S
C2377 H2399 0.950 . S
C2378 H2374 0.949 . S
C2378 C2386 1.574 . S
C2378 C2394 1.368 . S
H2379 C2387 0.950 . S
H2380 C2385 0.950 . S
H2381 C2386 0.949 . S
H2382 C2388 0.950 . S
H2383 C2389 0.950 . S
H2384 C2390 0.949 . S
C2385 H2380 0.950 . S
C2385 C2387 1.327 . S
C2385 C2391 1.429 . S
C2386 C2378 1.574 . S
C2386 H2381 0.949 . S
C2386 C2392 1.368 . S
C2387 C2371 1.349 . S
C2387 H2379 0.950 . S
C2387 C2385 1.327 . S
C2388 C2376 1.349 . S
C2388 H2382 0.950 . S
C2388 C2389 1.327 . S
C2389 H2383 0.950 . S
C2389 C2388 1.327 . S
C2389 C2393 1.429 . S
C2390 C2373 1.574 . S
C2390 H2384 0.949 . S
C2390 C2394 1.368 . S
C2391 C2372 1.429 . S
C2391 C2385 1.429 . S
C2391 C2392 1.523 . S
C2392 C2373 1.368 . S
C2392 C2386 1.368 . S
C2392 C2391 1.523 . S
C2393 C2377 1.429 . S
C2393 C2389 1.429 . S
C2393 C2394 1.523 . S
C2394 C2378 1.368 . S
C2394 C2390 1.368 . S
C2394 C2393 1.523 . S
H2395 C2370 0.950 . S
H2396 C2372 0.950 . S
H2397 C2373 0.949 . S
H2398 C2375 0.950 . S
H2399 C2377 0.950 . S
C2400 C2401 1.349 . S
C2400 C2402 1.327 . S
C2400 H2425 0.950 . S
C2401 C2400 1.349 . S
C2401 C2417 1.349 1_554 S
C2402 C2400 1.327 . S
C2402 C2421 1.429 . S
C2402 H2426 0.950 . S
C2403 C2420 1.574 . S
C2403 C2422 1.368 1_556 S
C2403 H2427 0.949 . S
H2404 C2408 0.949 . S
C2405 C2406 1.349 1_556 S
C2405 C2407 1.327 . S
C2405 H2428 0.950 . S
C2406 C2405 1.349 1_554 S
C2406 C2418 1.349 . S
C2407 C2405 1.327 . S
C2407 C2423 1.429 1_556 S
C2407 H2429 0.950 . S
C2408 H2404 0.949 . S
C2408 C2416 1.574 . S
C2408 C2424 1.368 . S
H2409 C2417 0.950 . S
H2410 C2415 0.950 . S
H2411 C2416 0.949 . S
H2412 C2418 0.950 . S
H2413 C2419 0.950 . S
H2414 C2420 0.949 . S
C2415 H2410 0.950 . S
C2415 C2417 1.327 . S
C2415 C2421 1.429 1_556 S
C2416 C2408 1.574 . S
C2416 H2411 0.949 . S
C2416 C2422 1.368 . S
C2417 C2401 1.349 1_556 S
C2417 H2409 0.950 . S
C2417 C2415 1.327 . S
C2418 C2406 1.349 . S
C2418 H2412 0.950 . S
C2418 C2419 1.327 . S
C2419 H2413 0.950 . S
C2419 C2418 1.327 . S
C2419 C2423 1.429 . S
C2420 C2403 1.574 . S
C2420 H2414 0.949 . S
C2420 C2424 1.368 1_556 S
C2421 C2402 1.429 . S
C2421 C2415 1.429 1_554 S
C2421 C2422 1.523 . S
C2422 C2403 1.368 1_554 S
C2422 C2416 1.368 . S
C2422 C2421 1.523 . S
C2423 C2407 1.429 1_554 S
C2423 C2419 1.429 . S
C2423 C2424 1.523 . S
C2424 C2408 1.368 . S
C2424 C2420 1.368 1_554 S
C2424 C2423 1.523 . S
H2425 C2400 0.950 . S
H2426 C2402 0.950 . S
H2427 C2403 0.949 . S
H2428 C2405 0.950 . S
H2429 C2407 0.950 . S
C2430 C2431 1.347 1_554 S
C2430 C2432 1.327 . S
C2430 H2455 0.950 . S
C2431 C2430 1.347 1_556 S
C2431 C2447 1.351 . S
C2432 C2430 1.327 . S
C2432 C2451 1.429 1_554 S
C2432 H2456 0.950 . S
C2433 C2450 1.574 . S
C2433 C2452 1.368 . S
C2433 H2457 0.949 . S
H2434 C2438 0.949 . S
C2435 C2436 1.349 . S
C2435 C2437 1.327 . S
C2435 H2458 0.950 . S
C2436 C2435 1.349 . S
C2436 C2448 1.349 1_556 S
C2437 C2435 1.327 . S
C2437 C2453 1.429 . S
C2437 H2459 0.950 . S
C2438 H2434 0.949 . S
C2438 C2446 1.574 . S
C2438 C2454 1.368 1_554 S
H2439 C2447 0.950 . S
H2440 C2445 0.950 . S
H2441 C2446 0.949 . S
H2442 C2448 0.950 . S
H2443 C2449 0.950 . S
H2444 C2450 0.949 . S
C2445 H2440 0.950 . S
C2445 C2447 1.327 . S
C2445 C2451 1.429 . S
C2446 C2438 1.574 . S
C2446 H2441 0.949 . S
C2446 C2452 1.368 1_554 S
C2447 C2431 1.351 . S
C2447 H2439 0.950 . S
C2447 C2445 1.327 . S
C2448 C2436 1.349 1_554 S
C2448 H2442 0.950 . S
C2448 C2449 1.327 . S
C2449 H2443 0.950 . S
C2449 C2448 1.327 . S
C2449 C2453 1.429 1_554 S
C2450 C2433 1.574 . S
C2450 H2444 0.949 . S
C2450 C2454 1.368 . S
C2451 C2432 1.429 1_556 S
C2451 C2445 1.429 . S
C2451 C2452 1.523 . S
C2452 C2433 1.368 . S
C2452 C2446 1.368 1_556 S
C2452 C2451 1.523 . S
C2453 C2437 1.429 . S
C2453 C2449 1.429 1_556 S
C2453 C2454 1.523 . S
C2454 C2438 1.368 1_556 S
C2454 C2450 1.368 . S
C2454 C2453 1.523 . S
H2455 C2430 0.950 . S
H2456 C2432 0.950 . S
H2457 C2433 0.949 . S
H2458 C2435 0.950 . S
H2459 C2437 0.950 . S
C2460 C2461 1.349 . S
C2460 C2462 1.327 . S
C2460 H2485 0.950 . S
C2461 C2460 1.349 . S
C2461 C2477 1.349 . S
C2462 C2460 1.327 . S
C2462 C2481 1.429 . S
C2462 H2486 0.950 . S
C2463 C2480 1.574 . S
C2463 C2482 1.368 . S
C2463 H2487 0.949 . S
H2464 C2468 0.949 . S
C2465 C2466 1.349 . S
C2465 C2467 1.327 . S
C2465 H2488 0.950 . S
C2466 C2465 1.349 . S
C2466 C2478 1.349 . S
C2467 C2465 1.327 . S
C2467 C2483 1.429 . S
C2467 H2489 0.950 . S
C2468 H2464 0.949 . S
C2468 C2476 1.574 . S
C2468 C2484 1.368 . S
H2469 C2477 0.950 . S
H2470 C2475 0.950 . S
H2471 C2476 0.949 . S
H2472 C2478 0.950 . S
H2473 C2479 0.950 . S
H2474 C2480 0.949 . S
C2475 H2470 0.950 . S
C2475 C2477 1.327 . S
C2475 C2481 1.429 . S
C2476 C2468 1.574 . S
C2476 H2471 0.949 . S
C2476 C2482 1.368 . S
C2477 C2461 1.349 . S
C2477 H2469 0.950 . S
C2477 C2475 1.327 . S
C2478 C2466 1.349 . S
C2478 H2472 0.950 . S
C2478 C2479 1.327 . S
C2479 H2473 0.950 . S
C2479 C2478 1.327 . S
C2479 C2483 1.429 . S
C2480 C2463 1.574 . S
C2480 H2474 0.949 . S
C2480 C2484 1.368 . S
C2481 C2462 1.429 . S
C2481 C2475 1.429 . S
C2481 C2482 1.523 . S
C2482 C2463 1.368 . S
C2482 C2476 1.368 . S
C2482 C2481 1.523 . S
C2483 C2467 1.429 . S
C2483 C2479 1.429 . S
C2483 C2484 1.523 . S
C2484 C2468 1.368 . S
C2484 C2480 1.368 . S
C2484 C2483 1.523 . S
H2485 C2460 0.950 . S
H2486 C2462 0.950 . S
H2487 C2463 0.949 . S
H2488 C2465 0.950 . S
H2489 C2467 0.950 . S
C2490 C2491 1.349 . S
C2490 C2492 1.327 . S
C2490 H2515 0.950 . S
C2491 C2490 1.349 . S
C2491 C2507 1.349 . S
C2492 C2490 1.327 . S
C2492 C2511 1.429 . S
C2492 H2516 0.950 . S
C2493 C2510 1.574 . S
C2493 C2512 1.368 . S
C2493 H2517 0.949 . S
H2494 C2498 0.949 . S
C2495 C2496 1.349 . S
C2495 C2497 1.327 . S
C2495 H2518 0.950 . S
C2496 C2495 1.349 . S
C2496 C2508 1.349 . S
C2497 C2495 1.327 . S
C2497 C2513 1.429 . S
C2497 H2519 0.950 . S
C2498 H2494 0.949 . S
C2498 C2506 1.574 . S
C2498 C2514 1.368 . S
H2499 C2507 0.950 . S
H2500 C2505 0.950 . S
H2501 C2506 0.949 . S
H2502 C2508 0.950 . S
H2503 C2509 0.950 . S
H2504 C2510 0.949 . S
C2505 H2500 0.950 . S
C2505 C2507 1.327 . S
C2505 C2511 1.429 . S
C2506 C2498 1.574 . S
C2506 H2501 0.949 . S
C2506 C2512 1.368 . S
C2507 C2491 1.349 . S
C2507 H2499 0.950 . S
C2507 C2505 1.327 . S
C2508 C2496 1.349 . S
C2508 H2502 0.950 . S
C2508 C2509 1.327 . S
C2509 H2503 0.950 . S
C2509 C2508 1.327 . S
C2509 C2513 1.429 . S
C2510 C2493 1.574 . S
C2510 H2504 0.949 . S
C2510 C2514 1.368 . S
C2511 C2492 1.429 . S
C2511 C2505 1.429 . S
C2511 C2512 1.523 . S
C2512 C2493 1.368 . S
C2512 C2506 1.368 . S
C2512 C2511 1.523 . S
C2513 C2497 1.429 . S
C2513 C2509 1.429 . S
C2513 C2514 1.523 . S
C2514 C2498 1.368 . S
C2514 C2510 1.368 . S
C2514 C2513 1.523 . S
H2515 C2490 0.950 . S
H2516 C2492 0.950 . S
H2517 C2493 0.949 . S
H2518 C2495 0.950 . S
H2519 C2497 0.950 . S
C2520 C2521 1.349 . S
C2520 C2522 1.327 . S
C2520 H2545 0.950 . S
C2521 C2520 1.349 . S
C2521 C2537 1.349 . S
C2522 C2520 1.327 . S
C2522 C2541 1.429 . S
C2522 H2546 0.950 . S
C2523 C2540 1.574 . S
C2523 C2542 1.368 . S
C2523 H2547 0.949 . S
H2524 C2528 0.949 . S
C2525 C2526 1.349 . S
C2525 C2527 1.327 . S
C2525 H2548 0.950 . S
C2526 C2525 1.349 . S
C2526 C2538 1.349 . S
C2527 C2525 1.327 . S
C2527 C2543 1.429 . S
C2527 H2549 0.950 . S
C2528 H2524 0.949 . S
C2528 C2536 1.574 . S
C2528 C2544 1.368 . S
H2529 C2537 0.950 . S
H2530 C2535 0.950 . S
H2531 C2536 0.949 . S
H2532 C2538 0.950 . S
H2533 C2539 0.950 . S
H2534 C2540 0.949 . S
C2535 H2530 0.950 . S
C2535 C2537 1.327 . S
C2535 C2541 1.429 . S
C2536 C2528 1.574 . S
C2536 H2531 0.949 . S
C2536 C2542 1.368 . S
C2537 C2521 1.349 . S
C2537 H2529 0.950 . S
C2537 C2535 1.327 . S
C2538 C2526 1.349 . S
C2538 H2532 0.950 . S
C2538 C2539 1.327 . S
C2539 H2533 0.950 . S
C2539 C2538 1.327 . S
C2539 C2543 1.429 . S
C2540 C2523 1.574 . S
C2540 H2534 0.949 . S
C2540 C2544 1.368 . S
C2541 C2522 1.429 . S
C2541 C2535 1.429 . S
C2541 C2542 1.523 . S
C2542 C2523 1.368 . S
C2542 C2536 1.368 . S
C2542 C2541 1.523 . S
C2543 C2527 1.429 . S
C2543 C2539 1.429 . S
C2543 C2544 1.523 . S
C2544 C2528 1.368 . S
C2544 C2540 1.368 . S
C2544 C2543 1.523 . S
H2545 C2520 0.950 . S
H2546 C2522 0.950 . S
H2547 C2523 0.949 . S
H2548 C2525 0.950 . S
H2549 C2527 0.950 . S
C2550 C2551 1.349 . S
C2550 C2552 1.327 . S
C2550 H2575 0.950 . S
C2551 C2550 1.349 . S
C2551 C2567 1.349 . S
C2552 C2550 1.327 . S
C2552 C2571 1.429 . S
C2552 H2576 0.950 . S
C2553 C2570 1.574 . S
C2553 C2572 1.368 . S
C2553 H2577 0.949 . S
H2554 C2558 0.949 . S
C2555 C2556 1.349 . S
C2555 C2557 1.327 . S
C2555 H2578 0.950 . S
C2556 C2555 1.349 . S
C2556 C2568 1.349 . S
C2557 C2555 1.327 . S
C2557 C2573 1.429 . S
C2557 H2579 0.950 . S
C2558 H2554 0.949 . S
C2558 C2566 1.574 . S
C2558 C2574 1.368 . S
H2559 C2567 0.950 . S
H2560 C2565 0.950 . S
H2561 C2566 0.949 . S
H2562 C2568 0.950 . S
H2563 C2569 0.950 . S
H2564 C2570 0.949 . S
C2565 H2560 0.950 . S
C2565 C2567 1.327 . S
C2565 C2571 1.429 . S
C2566 C2558 1.574 . S
C2566 H2561 0.949 . S
C2566 C2572 1.368 . S
C2567 C2551 1.349 . S
C2567 H2559 0.950 . S
C2567 C2565 1.327 . S
C2568 C2556 1.349 . S
C2568 H2562 0.950 . S
C2568 C2569 1.327 . S
C2569 H2563 0.950 . S
C2569 C2568 1.327 . S
C2569 C2573 1.429 . S
C2570 C2553 1.574 . S
C2570 H2564 0.949 . S
C2570 C2574 1.368 . S
C2571 C2552 1.429 . S
C2571 C2565 1.429 . S
C2571 C2572 1.523 . S
C2572 C2553 1.368 . S
C2572 C2566 1.368 . S
C2572 C2571 1.523 . S
C2573 C2557 1.429 . S
C2573 C2569 1.429 . S
C2573 C2574 1.523 . S
C2574 C2558 1.368 . S
C2574 C2570 1.368 . S
C2574 C2573 1.523 . S
H2575 C2550 0.950 . S
H2576 C2552 0.950 . S
H2577 C2553 0.949 . S
H2578 C2555 0.950 . S
H2579 C2557 0.950 . S
C2580 C2581 1.349 . S
C2580 C2582 1.327 . S
C2580 H2605 0.950 . S
C2581 C2580 1.349 . S
C2581 C2597 1.349 . S
C2582 C2580 1.327 . S
C2582 C2601 1.429 . S
C2582 H2606 0.950 . S
C2583 C2600 1.574 . S
C2583 C2602 1.368 . S
C2583 H2607 0.949 . S
H2584 C2588 0.949 . S
C2585 C2586 1.349 . S
C2585 C2587 1.327 . S
C2585 H2608 0.950 . S
C2586 C2585 1.349 . S
C2586 C2598 1.349 . S
C2587 C2585 1.327 . S
C2587 C2603 1.429 . S
C2587 H2609 0.950 . S
C2588 H2584 0.949 . S
C2588 C2596 1.574 . S
C2588 C2604 1.368 . S
H2589 C2597 0.950 . S
H2590 C2595 0.950 . S
H2591 C2596 0.949 . S
H2592 C2598 0.950 . S
H2593 C2599 0.950 . S
H2594 C2600 0.949 . S
C2595 H2590 0.950 . S
C2595 C2597 1.327 . S
C2595 C2601 1.429 . S
C2596 C2588 1.574 . S
C2596 H2591 0.949 . S
C2596 C2602 1.368 . S
C2597 C2581 1.349 . S
C2597 H2589 0.950 . S
C2597 C2595 1.327 . S
C2598 C2586 1.349 . S
C2598 H2592 0.950 . S
C2598 C2599 1.327 . S
C2599 H2593 0.950 . S
C2599 C2598 1.327 . S
C2599 C2603 1.429 . S
C2600 C2583 1.574 . S
C2600 H2594 0.949 . S
C2600 C2604 1.368 . S
C2601 C2582 1.429 . S
C2601 C2595 1.429 . S
C2601 C2602 1.523 . S
C2602 C2583 1.368 . S
C2602 C2596 1.368 . S
C2602 C2601 1.523 . S
C2603 C2587 1.429 . S
C2603 C2599 1.429 . S
C2603 C2604 1.523 . S
C2604 C2588 1.368 . S
C2604 C2600 1.368 . S
C2604 C2603 1.523 . S
H2605 C2580 0.950 . S
H2606 C2582 0.950 . S
H2607 C2583 0.949 . S
H2608 C2585 0.950 . S
H2609 C2587 0.950 . S
C2610 C2611 1.349 . S
C2610 C2612 1.327 . S
C2610 H2635 0.950 . S
C2611 C2610 1.349 . S
C2611 C2627 1.349 . S
C2612 C2610 1.327 . S
C2612 C2631 1.429 . S
C2612 H2636 0.950 . S
C2613 C2630 1.574 . S
C2613 C2632 1.368 . S
C2613 H2637 0.949 . S
H2614 C2618 0.949 . S
C2615 C2616 1.349 . S
C2615 C2617 1.327 . S
C2615 H2638 0.950 . S
C2616 C2615 1.349 . S
C2616 C2628 1.349 . S
C2617 C2615 1.327 . S
C2617 C2633 1.429 . S
C2617 H2639 0.950 . S
C2618 H2614 0.949 . S
C2618 C2626 1.574 . S
C2618 C2634 1.368 . S
H2619 C2627 0.950 . S
H2620 C2625 0.950 . S
H2621 C2626 0.949 . S
H2622 C2628 0.950 . S
H2623 C2629 0.950 . S
H2624 C2630 0.949 . S
C2625 H2620 0.950 . S
C2625 C2627 1.327 . S
C2625 C2631 1.429 . S
C2626 C2618 1.574 . S
C2626 H2621 0.949 . S
C2626 C2632 1.368 . S
C2627 C2611 1.349 . S
C2627 H2619 0.950 . S
C2627 C2625 1.327 . S
C2628 C2616 1.349 . S
C2628 H2622 0.950 . S
C2628 C2629 1.327 . S
C2629 H2623 0.950 . S
C2629 C2628 1.327 . S
C2629 C2633 1.429 . S
C2630 C2613 1.574 . S
C2630 H2624 0.949 . S
C2630 C2634 1.368 . S
C2631 C2612 1.429 . S
C2631 C2625 1.429 . S
C2631 C2632 1.523 . S
C2632 C2613 1.368 . S
C2632 C2626 1.368 . S
C2632 C2631 1.523 . S
C2633 C2617 1.429 . S
C2633 C2629 1.429 . S
C2633 C2634 1.523 . S
C2634 C2618 1.368 . S
C2634 C2630 1.368 . S
C2634 C2633 1.523 . S
H2635 C2610 0.950 . S
H2636 C2612 0.950 . S
H2637 C2613 0.949 . S
H2638 C2615 0.950 . S
H2639 C2617 0.950 . S
C2640 C2641 1.349 . S
C2640 C2642 1.327 . S
C2640 H2665 0.950 . S
C2641 C2640 1.349 . S
C2641 C2657 1.349 . S
C2642 C2640 1.327 . S
C2642 C2661 1.429 . S
C2642 H2666 0.950 . S
C2643 C2660 1.574 . S
C2643 C2662 1.368 . S
C2643 H2667 0.949 . S
H2644 C2648 0.949 . S
C2645 C2646 1.349 . S
C2645 C2647 1.327 . S
C2645 H2668 0.950 . S
C2646 C2645 1.349 . S
C2646 C2658 1.349 . S
C2647 C2645 1.327 . S
C2647 C2663 1.429 . S
C2647 H2669 0.950 . S
C2648 H2644 0.949 . S
C2648 C2656 1.574 . S
C2648 C2664 1.368 . S
H2649 C2657 0.950 . S
H2650 C2655 0.950 . S
H2651 C2656 0.949 . S
H2652 C2658 0.950 . S
H2653 C2659 0.950 . S
H2654 C2660 0.949 . S
C2655 H2650 0.950 . S
C2655 C2657 1.327 . S
C2655 C2661 1.429 . S
C2656 C2648 1.574 . S
C2656 H2651 0.949 . S
C2656 C2662 1.368 . S
C2657 C2641 1.349 . S
C2657 H2649 0.950 . S
C2657 C2655 1.327 . S
C2658 C2646 1.349 . S
C2658 H2652 0.950 . S
C2658 C2659 1.327 . S
C2659 H2653 0.950 . S
C2659 C2658 1.327 . S
C2659 C2663 1.429 . S
C2660 C2643 1.574 . S
C2660 H2654 0.949 . S
C2660 C2664 1.368 . S
C2661 C2642 1.429 . S
C2661 C2655 1.429 . S
C2661 C2662 1.523 . S
C2662 C2643 1.368 . S
C2662 C2656 1.368 . S
C2662 C2661 1.523 . S
C2663 C2647 1.429 . S
C2663 C2659 1.429 . S
C2663 C2664 1.523 . S
C2664 C2648 1.368 . S
C2664 C2660 1.368 . S
C2664 C2663 1.523 . S
H2665 C2640 0.950 . S
H2666 C2642 0.950 . S
H2667 C2643 0.949 . S
H2668 C2645 0.950 . S
H2669 C2647 0.950 . S
C2670 C2671 1.349 . S
C2670 C2672 1.327 . S
C2670 H2695 0.950 . S
C2671 C2670 1.349 . S
C2671 C2687 1.349 . S
C2672 C2670 1.327 . S
C2672 C2691 1.429 . S
C2672 H2696 0.950 . S
C2673 C2690 1.574 . S
C2673 C2692 1.368 . S
C2673 H2697 0.949 . S
H2674 C2678 0.949 . S
C2675 C2676 1.349 . S
C2675 C2677 1.327 . S
C2675 H2698 0.950 . S
C2676 C2675 1.349 . S
C2676 C2688 1.349 . S
C2677 C2675 1.327 . S
C2677 C2693 1.429 . S
C2677 H2699 0.950 . S
C2678 H2674 0.949 . S
C2678 C2686 1.574 . S
C2678 C2694 1.368 . S
H2679 C2687 0.950 . S
H2680 C2685 0.950 . S
H2681 C2686 0.949 . S
H2682 C2688 0.950 . S
H2683 C2689 0.950 . S
H2684 C2690 0.949 . S
C2685 H2680 0.950 . S
C2685 C2687 1.327 . S
C2685 C2691 1.429 . S
C2686 C2678 1.574 . S
C2686 H2681 0.949 . S
C2686 C2692 1.368 . S
C2687 C2671 1.349 . S
C2687 H2679 0.950 . S
C2687 C2685 1.327 . S
C2688 C2676 1.349 . S
C2688 H2682 0.950 . S
C2688 C2689 1.327 . S
C2689 H2683 0.950 . S
C2689 C2688 1.327 . S
C2689 C2693 1.429 . S
C2690 C2673 1.574 . S
C2690 H2684 0.949 . S
C2690 C2694 1.368 . S
C2691 C2672 1.429 . S
C2691 C2685 1.429 . S
C2691 C2692 1.523 . S
C2692 C2673 1.368 . S
C2692 C2686 1.368 . S
C2692 C2691 1.523 . S
C2693 C2677 1.429 . S
C2693 C2689 1.429 . S
C2693 C2694 1.523 . S
C2694 C2678 1.368 . S
C2694 C2690 1.368 . S
C2694 C2693 1.523 . S
H2695 C2670 0.950 . S
H2696 C2672 0.950 . S
H2697 C2673 0.949 . S
H2698 C2675 0.950 . S
H2699 C2677 0.950 . S
C2700 C2701 1.349 1_655 S
C2700 C2702 1.327 . S
C2700 H2725 0.950 . S
C2701 C2700 1.349 1_455 S
C2701 C2717 1.349 . S
C2702 C2700 1.327 . S
C2702 C2721 1.429 1_655 S
C2702 H2726 0.950 . S
C2703 C2720 1.574 . S
C2703 C2722 1.368 . S
C2703 H2727 0.949 . S
H2704 C2708 0.949 . S
C2705 C2706 1.349 . S
C2705 C2707 1.327 . S
C2705 H2728 0.950 . S
C2706 C2705 1.349 . S
C2706 C2718 1.349 1_455 S
C2707 C2705 1.327 . S
C2707 C2723 1.429 . S
C2707 H2729 0.950 . S
C2708 H2704 0.949 . S
C2708 C2716 1.574 . S
C2708 C2724 1.368 1_655 S
H2709 C2717 0.950 . S
H2710 C2715 0.950 . S
H2711 C2716 0.949 . S
H2712 C2718 0.950 . S
H2713 C2719 0.950 . S
H2714 C2720 0.949 . S
C2715 H2710 0.950 . S
C2715 C2717 1.327 . S
C2715 C2721 1.429 . S
C2716 C2708 1.574 . S
C2716 H2711 0.949 . S
C2716 C2722 1.368 1_655 S
C2717 C2701 1.349 . S
C2717 H2709 0.950 . S
C2717 C2715 1.327 . S
C2718 C2706 1.349 1_655 S
C2718 H2712 0.950 . S
C2718 C2719 1.327 . S
C2719 H2713 0.950 . S
C2719 C2718 1.327 . S
C2719 C2723 1.429 1_655 S
C2720 C2703 1.574 . S
C2720 H2714 0.949 . S
C2720 C2724 1.368 . S
C2721 C2702 1.429 1_455 S
C2721 C2715 1.429 . S
C2721 C2722 1.523 . S
C2722 C2703 1.368 . S
C2722 C2716 1.368 1_455 S
C2722 C2721 1.523 . S
C2723 C2707 1.429 . S
C2723 C2719 1.429 1_455 S
C2723 C2724 1.523 . S
C2724 C2708 1.368 1_455 S
C2724 C2720 1.368 . S
C2724 C2723 1.523 . S
H2725 C2700 0.950 . S
H2726 C2702 0.950 . S
H2727 C2703 0.949 . S
H2728 C2705 0.950 . S
H2729 C2707 0.950 . S
C2730 C2731 1.349 . S
C2730 C2732 1.327 . S
C2730 H2755 0.950 . S
C2731 C2730 1.349 . S
C2731 C2747 1.349 . S
C2732 C2730 1.327 . S
C2732 C2751 1.429 . S
C2732 H2756 0.950 . S
C2733 C2750 1.574 . S
C2733 C2752 1.368 . S
C2733 H2757 0.949 . S
H2734 C2738 0.949 . S
C2735 C2736 1.349 . S
C2735 C2737 1.327 . S
C2735 H2758 0.950 . S
C2736 C2735 1.349 . S
C2736 C2748 1.349 . S
C2737 C2735 1.327 . S
C2737 C2753 1.429 . S
C2737 H2759 0.950 . S
C2738 H2734 0.949 . S
C2738 C2746 1.574 . S
C2738 C2754 1.368 . S
H2739 C2747 0.950 . S
H2740 C2745 0.950 . S
H2741 C2746 0.949 . S
H2742 C2748 0.950 . S
H2743 C2749 0.950 . S
H2744 C2750 0.949 . S
C2745 H2740 0.950 . S
C2745 C2747 1.327 . S
C2745 C2751 1.429 . S
C2746 C2738 1.574 . S
C2746 H2741 0.949 . S
C2746 C2752 1.368 . S
C2747 C2731 1.349 . S
C2747 H2739 0.950 . S
C2747 C2745 1.327 . S
C2748 C2736 1.349 . S
C2748 H2742 0.950 . S
C2748 C2749 1.327 . S
C2749 H2743 0.950 . S
C2749 C2748 1.327 . S
C2749 C2753 1.429 . S
C2750 C2733 1.574 . S
C2750 H2744 0.949 . S
C2750 C2754 1.368 . S
C2751 C2732 1.429 . S
C2751 C2745 1.429 . S
C2751 C2752 1.523 . S
C2752 C2733 1.368 . S
C2752 C2746 1.368 . S
C2752 C2751 1.523 . S
C2753 C2737 1.429 . S
C2753 C2749 1.429 . S
C2753 C2754 1.523 . S
C2754 C2738 1.368 . S
C2754 C2750 1.368 . S
C2754 C2753 1.523 . S
H2755 C2730 0.950 . S
H2756 C2732 0.950 . S
H2757 C2733 0.949 . S
H2758 C2735 0.950 . S
H2759 C2737 0.950 . S
C2760 C2761 1.349 . S
C2760 C2762 1.327 . S
C2760 H2785 0.950 . S
C2761 C2760 1.349 . S
C2761 C2777 1.349 . S
C2762 C2760 1.327 . S
C2762 C2781 1.429 . S
C2762 H2786 0.950 . S
C2763 C2780 1.574 . S
C2763 C2782 1.368 . S
C2763 H2787 0.949 . S
H2764 C2768 0.949 . S
C2765 C2766 1.349 . S
C2765 C2767 1.327 . S
C2765 H2788 0.950 . S
C2766 C2765 1.349 . S
C2766 C2778 1.349 . S
C2767 C2765 1.327 . S
C2767 C2783 1.429 . S
C2767 H2789 0.950 . S
C2768 H2764 0.949 . S
C2768 C2776 1.574 . S
C2768 C2784 1.368 . S
H2769 C2777 0.950 . S
H2770 C2775 0.950 . S
H2771 C2776 0.949 . S
H2772 C2778 0.950 . S
H2773 C2779 0.950 . S
H2774 C2780 0.949 . S
C2775 H2770 0.950 . S
C2775 C2777 1.327 . S
C2775 C2781 1.429 . S
C2776 C2768 1.574 . S
C2776 H2771 0.949 . S
C2776 C2782 1.368 . S
C2777 C2761 1.349 . S
C2777 H2769 0.950 . S
C2777 C2775 1.327 . S
C2778 C2766 1.349 . S
C2778 H2772 0.950 . S
C2778 C2779 1.327 . S
C2779 H2773 0.950 . S
C2779 C2778 1.327 . S
C2779 C2783 1.429 . S
C2780 C2763 1.574 . S
C2780 H2774 0.949 . S
C2780 C2784 1.368 . S
C2781 C2762 1.429 . S
C2781 C2775 1.429 . S
C2781 C2782 1.523 . S
C2782 C2763 1.368 . S
C2782 C2776 1.368 . S
C2782 C2781 1.523 . S
C2783 C2767 1.429 . S
C2783 C2779 1.429 . S
C2783 C2784 1.523 . S
C2784 C2768 1.368 . S
C2784 C2780 1.368 . S
C2784 C2783 1.523 . S
H2785 C2760 0.950 . S
H2786 C2762 0.950 . S
H2787 C2763 0.949 . S
H2788 C2765 0.950 . S
H2789 C2767 0.950 . S
C2790 C2791 1.349 . S
C2790 C2792 1.327 . S
C2790 H2815 0.950 . S
C2791 C2790 1.349 . S
C2791 C2807 1.349 . S
C2792 C2790 1.327 . S
C2792 C2811 1.429 . S
C2792 H2816 0.950 . S
C2793 C2810 1.574 . S
C2793 C2812 1.368 . S
C2793 H2817 0.949 . S
H2794 C2798 0.949 . S
C2795 C2796 1.349 . S
C2795 C2797 1.327 . S
C2795 H2818 0.950 . S
C2796 C2795 1.349 . S
C2796 C2808 1.349 . S
C2797 C2795 1.327 . S
C2797 C2813 1.429 . S
C2797 H2819 0.950 . S
C2798 H2794 0.949 . S
C2798 C2806 1.574 . S
C2798 C2814 1.368 . S
H2799 C2807 0.950 . S
H2800 C2805 0.950 . S
H2801 C2806 0.949 . S
H2802 C2808 0.950 . S
H2803 C2809 0.950 . S
H2804 C2810 0.949 . S
C2805 H2800 0.950 . S
C2805 C2807 1.327 . S
C2805 C2811 1.429 . S
C2806 C2798 1.574 . S
C2806 H2801 0.949 . S
C2806 C2812 1.368 . S
C2807 C2791 1.349 . S
C2807 H2799 0.950 . S
C2807 C2805 1.327 . S
C2808 C2796 1.349 . S
C2808 H2802 0.950 . S
C2808 C2809 1.327 . S
C2809 H2803 0.950 . S
C2809 C2808 1.327 . S
C2809 C2813 1.429 . S
C2810 C2793 1.574 . S
C2810 H2804 0.949 . S
C2810 C2814 1.368 . S
C2811 C2792 1.429 . S
C2811 C2805 1.429 . S
C2811 C2812 1.523 . S
C2812 C2793 1.368 . S
C2812 C2806 1.368 . S
C2812 C2811 1.523 . S
C2813 C2797 1.429 . S
C2813 C2809 1.429 . S
C2813 C2814 1.523 . S
C2814 C2798 1.368 . S
C2814 C2810 1.368 . S
C2814 C2813 1.523 . S
H2815 C2790 0.950 . S
H2816 C2792 0.950 . S
H2817 C2793 0.949 . S
H2818 C2795 0.950 . S
H2819 C2797 0.950 . S
C2820 C2821 1.349 1_655 S
C2820 C2822 1.329 . S
C2820 H2845 0.950 . S
C2821 C2820 1.349 1_455 S
C2821 C2837 1.349 . S
C2822 C2820 1.329 . S
C2822 C2841 1.417 1_655 S
C2822 H2846 0.961 . S
C2823 C2840 1.574 . S
C2823 C2842 1.368 . S
C2823 H2847 0.949 . S
H2824 C2828 0.949 1_655 S
C2825 C2826 1.349 . S
C2825 C2827 1.327 . S
C2825 H2848 0.950 . S
C2826 C2825 1.349 . S
C2826 C2838 1.349 . S
C2827 C2825 1.327 . S
C2827 C2843 1.429 . S
C2827 H2849 0.950 . S
C2828 H2824 0.949 1_455 S
C2828 C2836 1.577 . S
C2828 C2844 1.368 . S
H2829 C2837 0.950 . S
H2830 C2835 0.950 . S
H2831 C2836 0.935 1_655 S
H2832 C2838 0.968 . S
H2833 C2839 0.936 1_655 S
H2834 C2840 0.949 . S
C2835 H2830 0.950 . S
C2835 C2837 1.327 . S
C2835 C2841 1.429 . S
C2836 C2828 1.577 . S
C2836 H2831 0.935 1_455 S
C2836 C2842 1.384 . S
C2837 C2821 1.349 . S
C2837 H2829 0.950 . S
C2837 C2835 1.327 . S
C2838 C2826 1.349 . S
C2838 H2832 0.968 . S
C2838 C2839 1.327 . S
C2839 H2833 0.936 1_455 S
C2839 C2838 1.327 . S
C2839 C2843 1.429 . S
C2840 C2823 1.574 . S
C2840 H2834 0.949 . S
C2840 C2844 1.368 . S
C2841 C2822 1.417 1_455 S
C2841 C2835 1.429 . S
C2841 C2842 1.523 . S
C2842 C2823 1.368 . S
C2842 C2836 1.384 . S
C2842 C2841 1.523 . S
C2843 C2827 1.429 . S
C2843 C2839 1.429 . S
C2843 C2844 1.523 . S
C2844 C2828 1.368 . S
C2844 C2840 1.368 . S
C2844 C2843 1.523 . S
H2845 C2820 0.950 . S
H2846 C2822 0.961 . S
H2847 C2823 0.949 . S
H2848 C2825 0.950 . S
H2849 C2827 0.950 . S
C2850 C2851 1.349 . S
C2850 C2852 1.327 . S
C2850 H2875 0.950 . S
C2851 C2850 1.349 . S
C2851 C2867 1.349 . S
C2852 C2850 1.327 . S
C2852 C2871 1.429 . S
C2852 H2876 0.950 . S
C2853 C2870 1.574 . S
C2853 C2872 1.368 . S
C2853 H2877 0.949 . S
H2854 C2858 0.949 . S
C2855 C2856 1.349 . S
C2855 C2857 1.327 . S
C2855 H2878 0.950 . S
C2856 C2855 1.349 . S
C2856 C2868 1.349 . S
C2857 C2855 1.327 . S
C2857 C2873 1.429 . S
C2857 H2879 0.950 . S
C2858 H2854 0.949 . S
C2858 C2866 1.574 . S
C2858 C2874 1.368 . S
H2859 C2867 0.950 . S
H2860 C2865 0.950 . S
H2861 C2866 0.949 . S
H2862 C2868 0.950 . S
H2863 C2869 0.950 . S
H2864 C2870 0.949 . S
C2865 H2860 0.950 . S
C2865 C2867 1.327 . S
C2865 C2871 1.429 . S
C2866 C2858 1.574 . S
C2866 H2861 0.949 . S
C2866 C2872 1.368 . S
C2867 C2851 1.349 . S
C2867 H2859 0.950 . S
C2867 C2865 1.327 . S
C2868 C2856 1.349 . S
C2868 H2862 0.950 . S
C2868 C2869 1.327 . S
C2869 H2863 0.950 . S
C2869 C2868 1.327 . S
C2869 C2873 1.429 . S
C2870 C2853 1.574 . S
C2870 H2864 0.949 . S
C2870 C2874 1.368 . S
C2871 C2852 1.429 . S
C2871 C2865 1.429 . S
C2871 C2872 1.523 . S
C2872 C2853 1.368 . S
C2872 C2866 1.368 . S
C2872 C2871 1.523 . S
C2873 C2857 1.429 . S
C2873 C2869 1.429 . S
C2873 C2874 1.523 . S
C2874 C2858 1.368 . S
C2874 C2870 1.368 . S
C2874 C2873 1.523 . S
H2875 C2850 0.950 . S
H2876 C2852 0.950 . S
H2877 C2853 0.949 . S
H2878 C2855 0.950 . S
H2879 C2857 0.950 . S
C2880 C2881 1.349 . S
C2880 C2882 1.327 . S
C2880 H2905 0.950 . S
C2881 C2880 1.349 . S
C2881 C2897 1.349 . S
C2882 C2880 1.327 . S
C2882 C2901 1.429 . S
C2882 H2906 0.950 . S
C2883 C2900 1.574 . S
C2883 C2902 1.368 . S
C2883 H2907 0.949 . S
H2884 C2888 0.949 . S
C2885 C2886 1.349 . S
C2885 C2887 1.327 . S
C2885 H2908 0.950 . S
C2886 C2885 1.349 . S
C2886 C2898 1.349 . S
C2887 C2885 1.327 . S
C2887 C2903 1.429 . S
C2887 H2909 0.950 . S
C2888 H2884 0.949 . S
C2888 C2896 1.574 . S
C2888 C2904 1.368 . S
H2889 C2897 0.950 . S
H2890 C2895 0.950 . S
H2891 C2896 0.949 . S
H2892 C2898 0.950 . S
H2893 C2899 0.950 . S
H2894 C2900 0.949 . S
C2895 H2890 0.950 . S
C2895 C2897 1.327 . S
C2895 C2901 1.429 . S
C2896 C2888 1.574 . S
C2896 H2891 0.949 . S
C2896 C2902 1.368 . S
C2897 C2881 1.349 . S
C2897 H2889 0.950 . S
C2897 C2895 1.327 . S
C2898 C2886 1.349 . S
C2898 H2892 0.950 . S
C2898 C2899 1.327 . S
C2899 H2893 0.950 . S
C2899 C2898 1.327 . S
C2899 C2903 1.429 . S
C2900 C2883 1.574 . S
C2900 H2894 0.949 . S
C2900 C2904 1.368 . S
C2901 C2882 1.429 . S
C2901 C2895 1.429 . S
C2901 C2902 1.523 . S
C2902 C2883 1.368 . S
C2902 C2896 1.368 . S
C2902 C2901 1.523 . S
C2903 C2887 1.429 . S
C2903 C2899 1.429 . S
C2903 C2904 1.523 . S
C2904 C2888 1.368 . S
C2904 C2900 1.368 . S
C2904 C2903 1.523 . S
H2905 C2880 0.950 . S
H2906 C2882 0.950 . S
H2907 C2883 0.949 . S
H2908 C2885 0.950 . S
H2909 C2887 0.950 . S
C2910 C2911 1.349 . S
C2910 C2912 1.327 . S
C2910 H2935 0.950 . S
C2911 C2910 1.349 . S
C2911 C2927 1.349 . S
C2912 C2910 1.327 . S
C2912 C2931 1.429 . S
C2912 H2936 0.950 . S
C2913 C2930 1.574 . S
C2913 C2932 1.368 . S
C2913 H2937 0.949 . S
H2914 C2918 0.949 . S
C2915 C2916 1.349 . S
C2915 C2917 1.327 . S
C2915 H2938 0.950 . S
C2916 C2915 1.349 . S
C2916 C2928 1.349 . S
C2917 C2915 1.327 . S
C2917 C2933 1.429 . S
C2917 H2939 0.950 . S
C2918 H2914 0.949 . S
C2918 C2926 1.574 . S
C2918 C2934 1.368 . S
H2919 C2927 0.950 . S
H2920 C2925 0.950 . S
H2921 C2926 0.949 . S
H2922 C2928 0.950 . S
H2923 C2929 0.950 . S
H2924 C2930 0.949 . S
C2925 H2920 0.950 . S
C2925 C2927 1.327 . S
C2925 C2931 1.429 . S
C2926 C2918 1.574 . S
C2926 H2921 0.949 . S
C2926 C2932 1.368 . S
C2927 C2911 1.349 . S
C2927 H2919 0.950 . S
C2927 C2925 1.327 . S
C2928 C2916 1.349 . S
C2928 H2922 0.950 . S
C2928 C2929 1.327 . S
C2929 H2923 0.950 . S
C2929 C2928 1.327 . S
C2929 C2933 1.429 . S
C2930 C2913 1.574 . S
C2930 H2924 0.949 . S
C2930 C2934 1.368 . S
C2931 C2912 1.429 . S
C2931 C2925 1.429 . S
C2931 C2932 1.523 . S
C2932 C2913 1.368 . S
C2932 C2926 1.368 . S
C2932 C2931 1.523 . S
C2933 C2917 1.429 . S
C2933 C2929 1.429 . S
C2933 C2934 1.523 . S
C2934 C2918 1.368 . S
C2934 C2930 1.368 . S
C2934 C2933 1.523 . S
H2935 C2910 0.950 . S
H2936 C2912 0.950 . S
H2937 C2913 0.949 . S
H2938 C2915 0.950 . S
H2939 C2917 0.950 . S
C2940 C2941 1.349 . S
C2940 C2942 1.327 . S
C2940 H2965 0.950 . S
C2941 C2940 1.349 . S
C2941 C2957 1.349 . S
C2942 C2940 1.327 . S
C2942 C2961 1.429 . S
C2942 H2966 0.950 . S
C2943 C2960 1.574 . S
C2943 C2962 1.368 . S
C2943 H2967 0.949 . S
H2944 C2948 0.949 . S
C2945 C2946 1.349 . S
C2945 C2947 1.327 . S
C2945 H2968 0.950 . S
C2946 C2945 1.349 . S
C2946 C2958 1.349 . S
C2947 C2945 1.327 . S
C2947 C2963 1.429 . S
C2947 H2969 0.950 . S
C2948 H2944 0.949 . S
C2948 C2956 1.574 . S
C2948 C2964 1.368 . S
H2949 C2957 0.950 . S
H2950 C2955 0.950 . S
H2951 C2956 0.949 . S
H2952 C2958 0.950 . S
H2953 C2959 0.950 . S
H2954 C2960 0.949 . S
C2955 H2950 0.950 . S
C2955 C2957 1.327 . S
C2955 C2961 1.429 . S
C2956 C2948 1.574 . S
C2956 H2951 0.949 . S
C2956 C2962 1.368 . S
C2957 C2941 1.349 . S
C2957 H2949 0.950 . S
C2957 C2955 1.327 . S
C2958 C2946 1.349 . S
C2958 H2952 0.950 . S
C2958 C2959 1.327 . S
C2959 H2953 0.950 . S
C2959 C2958 1.327 . S
C2959 C2963 1.429 . S
C2960 C2943 1.574 . S
C2960 H2954 0.949 . S
C2960 C2964 1.368 . S
C2961 C2942 1.429 . S
C2961 C2955 1.429 . S
C2961 C2962 1.523 . S
C2962 C2943 1.368 . S
C2962 C2956 1.368 . S
C2962 C2961 1.523 . S
C2963 C2947 1.429 . S
C2963 C2959 1.429 . S
C2963 C2964 1.523 . S
C2964 C2948 1.368 . S
C2964 C2960 1.368 . S
C2964 C2963 1.523 . S
H2965 C2940 0.950 . S
H2966 C2942 0.950 . S
H2967 C2943 0.949 . S
H2968 C2945 0.950 . S
H2969 C2947 0.950 . S
C2970 C2971 1.349 . S
C2970 C2972 1.327 . S
C2970 H2995 0.950 . S
C2971 C2970 1.349 . S
C2971 C2987 1.349 . S
C2972 C2970 1.327 . S
C2972 C2991 1.429 . S
C2972 H2996 0.950 . S
C2973 C2990 1.574 . S
C2973 C2992 1.368 . S
C2973 H2997 0.949 . S
H2974 C2978 0.949 . S
C2975 C2976 1.349 . S
C2975 C2977 1.327 . S
C2975 H2998 0.950 . S
C2976 C2975 1.349 . S
C2976 C2988 1.349 . S
C2977 C2975 1.327 . S
C2977 C2993 1.429 . S
C2977 H2999 0.950 . S
C2978 H2974 0.949 . S
C2978 C2986 1.574 . S
C2978 C2994 1.368 . S
H2979 C2987 0.950 . S
H2980 C2985 0.950 . S
H2981 C2986 0.949 . S
H2982 C2988 0.950 . S
H2983 C2989 0.950 . S
H2984 C2990 0.949 . S
C2985 H2980 0.950 . S
C2985 C2987 1.327 . S
C2985 C2991 1.429 . S
C2986 C2978 1.574 . S
C2986 H2981 0.949 . S
C2986 C2992 1.368 . S
C2987 C2971 1.349 . S
C2987 H2979 0.950 . S
C2987 C2985 1.327 . S
C2988 C2976 1.349 . S
C2988 H2982 0.950 . S
C2988 C2989 1.327 . S
C2989 H2983 0.950 . S
C2989 C2988 1.327 . S
C2989 C2993 1.429 . S
C2990 C2973 1.574 . S
C2990 H2984 0.949 . S
C2990 C2994 1.368 . S
C2991 C2972 1.429 . S
C2991 C2985 1.429 . S
C2991 C2992 1.523 . S
C2992 C2973 1.368 . S
C2992 C2986 1.368 . S
C2992 C2991 1.523 . S
C2993 C2977 1.429 . S
C2993 C2989 1.429 . S
C2993 C2994 1.523 . S
C2994 C2978 1.368 . S
C2994 C2990 1.368 . S
C2994 C2993 1.523 . S
H2995 C2970 0.950 . S
H2996 C2972 0.950 . S
H2997 C2973 0.949 . S
H2998 C2975 0.950 . S
H2999 C2977 0.950 . S
C3000 C3001 1.349 . S
C3000 C3002 1.327 . S
C3000 H3025 0.950 . S
C3001 C3000 1.349 . S
C3001 C3017 1.349 . S
C3002 C3000 1.327 . S
C3002 C3021 1.429 . S
C3002 H3026 0.950 . S
C3003 C3020 1.574 . S
C3003 C3022 1.368 . S
C3003 H3027 0.949 . S
H3004 C3008 0.949 . S
C3005 C3006 1.349 . S
C3005 C3007 1.327 . S
C3005 H3028 0.950 . S
C3006 C3005 1.349 . S
C3006 C3018 1.349 . S
C3007 C3005 1.327 . S
C3007 C3023 1.429 . S
C3007 H3029 0.950 . S
C3008 H3004 0.949 . S
C3008 C3016 1.574 . S
C3008 C3024 1.368 . S
H3009 C3017 0.950 . S
H3010 C3015 0.950 . S
H3011 C3016 0.949 . S
H3012 C3018 0.950 . S
H3013 C3019 0.950 . S
H3014 C3020 0.949 . S
C3015 H3010 0.950 . S
C3015 C3017 1.327 . S
C3015 C3021 1.429 . S
C3016 C3008 1.574 . S
C3016 H3011 0.949 . S
C3016 C3022 1.368 . S
C3017 C3001 1.349 . S
C3017 H3009 0.950 . S
C3017 C3015 1.327 . S
C3018 C3006 1.349 . S
C3018 H3012 0.950 . S
C3018 C3019 1.327 . S
C3019 H3013 0.950 . S
C3019 C3018 1.327 . S
C3019 C3023 1.429 . S
C3020 C3003 1.574 . S
C3020 H3014 0.949 . S
C3020 C3024 1.368 . S
C3021 C3002 1.429 . S
C3021 C3015 1.429 . S
C3021 C3022 1.523 . S
C3022 C3003 1.368 . S
C3022 C3016 1.368 . S
C3022 C3021 1.523 . S
C3023 C3007 1.429 . S
C3023 C3019 1.429 . S
C3023 C3024 1.523 . S
C3024 C3008 1.368 . S
C3024 C3020 1.368 . S
C3024 C3023 1.523 . S
H3025 C3000 0.950 . S
H3026 C3002 0.950 . S
H3027 C3003 0.949 . S
H3028 C3005 0.950 . S
H3029 C3007 0.950 . S
C3030 C3031 1.349 . S
C3030 C3032 1.327 . S
C3030 H3055 0.950 . S
C3031 C3030 1.349 . S
C3031 C3047 1.349 . S
C3032 C3030 1.327 . S
C3032 C3051 1.429 . S
C3032 H3056 0.950 . S
C3033 C3050 1.574 . S
C3033 C3052 1.368 . S
C3033 H3057 0.949 . S
H3034 C3038 0.949 . S
C3035 C3036 1.349 . S
C3035 C3037 1.327 . S
C3035 H3058 0.950 . S
C3036 C3035 1.349 . S
C3036 C3048 1.349 . S
C3037 C3035 1.327 . S
C3037 C3053 1.429 . S
C3037 H3059 0.950 . S
C3038 H3034 0.949 . S
C3038 C3046 1.574 . S
C3038 C3054 1.368 . S
H3039 C3047 0.950 . S
H3040 C3045 0.950 . S
H3041 C3046 0.949 . S
H3042 C3048 0.950 . S
H3043 C3049 0.950 . S
H3044 C3050 0.949 . S
C3045 H3040 0.950 . S
C3045 C3047 1.327 . S
C3045 C3051 1.429 . S
C3046 C3038 1.574 . S
C3046 H3041 0.949 . S
C3046 C3052 1.368 . S
C3047 C3031 1.349 . S
C3047 H3039 0.950 . S
C3047 C3045 1.327 . S
C3048 C3036 1.349 . S
C3048 H3042 0.950 . S
C3048 C3049 1.327 . S
C3049 H3043 0.950 . S
C3049 C3048 1.327 . S
C3049 C3053 1.429 . S
C3050 C3033 1.574 . S
C3050 H3044 0.949 . S
C3050 C3054 1.368 . S
C3051 C3032 1.429 . S
C3051 C3045 1.429 . S
C3051 C3052 1.523 . S
C3052 C3033 1.368 . S
C3052 C3046 1.368 . S
C3052 C3051 1.523 . S
C3053 C3037 1.429 . S
C3053 C3049 1.429 . S
C3053 C3054 1.523 . S
C3054 C3038 1.368 . S
C3054 C3050 1.368 . S
C3054 C3053 1.523 . S
H3055 C3030 0.950 . S
H3056 C3032 0.950 . S
H3057 C3033 0.949 . S
H3058 C3035 0.950 . S
H3059 C3037 0.950 . S
C3060 C3061 1.349 . S
C3060 C3062 1.327 . S
C3060 H3085 0.950 . S
C3061 C3060 1.349 . S
C3061 C3077 1.349 . S
C3062 C3060 1.327 . S
C3062 C3081 1.429 . S
C3062 H3086 0.950 . S
C3063 C3080 1.574 . S
C3063 C3082 1.368 . S
C3063 H3087 0.949 . S
H3064 C3068 0.949 . S
C3065 C3066 1.349 . S
C3065 C3067 1.327 . S
C3065 H3088 0.950 . S
C3066 C3065 1.349 . S
C3066 C3078 1.349 . S
C3067 C3065 1.327 . S
C3067 C3083 1.429 . S
C3067 H3089 0.950 . S
C3068 H3064 0.949 . S
C3068 C3076 1.574 . S
C3068 C3084 1.368 . S
H3069 C3077 0.950 . S
H3070 C3075 0.950 . S
H3071 C3076 0.949 . S
H3072 C3078 0.950 . S
H3073 C3079 0.950 . S
H3074 C3080 0.949 . S
C3075 H3070 0.950 . S
C3075 C3077 1.327 . S
C3075 C3081 1.429 . S
C3076 C3068 1.574 . S
C3076 H3071 0.949 . S
C3076 C3082 1.368 . S
C3077 C3061 1.349 . S
C3077 H3069 0.950 . S
C3077 C3075 1.327 . S
C3078 C3066 1.349 . S
C3078 H3072 0.950 . S
C3078 C3079 1.327 . S
C3079 H3073 0.950 . S
C3079 C3078 1.327 . S
C3079 C3083 1.429 . S
C3080 C3063 1.574 . S
C3080 H3074 0.949 . S
C3080 C3084 1.368 . S
C3081 C3062 1.429 . S
C3081 C3075 1.429 . S
C3081 C3082 1.523 . S
C3082 C3063 1.368 . S
C3082 C3076 1.368 . S
C3082 C3081 1.523 . S
C3083 C3067 1.429 . S
C3083 C3079 1.429 . S
C3083 C3084 1.523 . S
C3084 C3068 1.368 . S
C3084 C3080 1.368 . S
C3084 C3083 1.523 . S
H3085 C3060 0.950 . S
H3086 C3062 0.950 . S
H3087 C3063 0.949 . S
H3088 C3065 0.950 . S
H3089 C3067 0.950 . S
C3090 C3091 1.349 . S
C3090 C3092 1.327 . S
C3090 H3115 0.950 . S
C3091 C3090 1.349 . S
C3091 C3107 1.349 . S
C3092 C3090 1.327 . S
C3092 C3111 1.429 . S
C3092 H3116 0.950 . S
C3093 C3110 1.574 . S
C3093 C3112 1.368 . S
C3093 H3117 0.949 . S
H3094 C3098 0.949 . S
C3095 C3096 1.349 . S
C3095 C3097 1.327 . S
C3095 H3118 0.950 . S
C3096 C3095 1.349 . S
C3096 C3108 1.349 . S
C3097 C3095 1.327 . S
C3097 C3113 1.429 . S
C3097 H3119 0.950 . S
C3098 H3094 0.949 . S
C3098 C3106 1.574 . S
C3098 C3114 1.368 . S
H3099 C3107 0.950 . S
H3100 C3105 0.950 . S
H3101 C3106 0.949 . S
H3102 C3108 0.950 . S
H3103 C3109 0.950 . S
H3104 C3110 0.949 . S
C3105 H3100 0.950 . S
C3105 C3107 1.327 . S
C3105 C3111 1.429 . S
C3106 C3098 1.574 . S
C3106 H3101 0.949 . S
C3106 C3112 1.368 . S
C3107 C3091 1.349 . S
C3107 H3099 0.950 . S
C3107 C3105 1.327 . S
C3108 C3096 1.349 . S
C3108 H3102 0.950 . S
C3108 C3109 1.327 . S
C3109 H3103 0.950 . S
C3109 C3108 1.327 . S
C3109 C3113 1.429 . S
C3110 C3093 1.574 . S
C3110 H3104 0.949 . S
C3110 C3114 1.368 . S
C3111 C3092 1.429 . S
C3111 C3105 1.429 . S
C3111 C3112 1.523 . S
C3112 C3093 1.368 . S
C3112 C3106 1.368 . S
C3112 C3111 1.523 . S
C3113 C3097 1.429 . S
C3113 C3109 1.429 . S
C3113 C3114 1.523 . S
C3114 C3098 1.368 . S
C3114 C3110 1.368 . S
C3114 C3113 1.523 . S
H3115 C3090 0.950 . S
H3116 C3092 0.950 . S
H3117 C3093 0.949 . S
H3118 C3095 0.950 . S
H3119 C3097 0.950 . S
C3120 C3121 1.349 . S
C3120 C3122 1.327 . S
C3120 H3145 0.950 . S
C3121 C3120 1.349 . S
C3121 C3137 1.349 . S
C3122 C3120 1.327 . S
C3122 C3141 1.429 . S
C3122 H3146 0.950 . S
C3123 C3140 1.574 . S
C3123 C3142 1.368 . S
C3123 H3147 0.949 . S
H3124 C3128 0.949 . S
C3125 C3126 1.349 . S
C3125 C3127 1.327 . S
C3125 H3148 0.950 . S
C3126 C3125 1.349 . S
C3126 C3138 1.349 . S
C3127 C3125 1.327 . S
C3127 C3143 1.429 . S
C3127 H3149 0.950 . S
C3128 H3124 0.949 . S
C3128 C3136 1.574 . S
C3128 C3144 1.368 . S
H3129 C3137 0.950 . S
H3130 C3135 0.950 . S
H3131 C3136 0.949 . S
H3132 C3138 0.950 . S
H3133 C3139 0.950 . S
H3134 C3140 0.949 . S
C3135 H3130 0.950 . S
C3135 C3137 1.327 . S
C3135 C3141 1.429 . S
C3136 C3128 1.574 . S
C3136 H3131 0.949 . S
C3136 C3142 1.368 . S
C3137 C3121 1.349 . S
C3137 H3129 0.950 . S
C3137 C3135 1.327 . S
C3138 C3126 1.349 . S
C3138 H3132 0.950 . S
C3138 C3139 1.327 . S
C3139 H3133 0.950 . S
C3139 C3138 1.327 . S
C3139 C3143 1.429 . S
C3140 C3123 1.574 . S
C3140 H3134 0.949 . S
C3140 C3144 1.368 . S
C3141 C3122 1.429 . S
C3141 C3135 1.429 . S
C3141 C3142 1.523 . S
C3142 C3123 1.368 . S
C3142 C3136 1.368 . S
C3142 C3141 1.523 . S
C3143 C3127 1.429 . S
C3143 C3139 1.429 . S
C3143 C3144 1.523 . S
C3144 C3128 1.368 . S
C3144 C3140 1.368 . S
C3144 C3143 1.523 . S
H3145 C3120 0.950 . S
H3146 C3122 0.950 . S
H3147 C3123 0.949 . S
H3148 C3125 0.950 . S
H3149 C3127 0.950 . S
C3150 C3151 1.349 . S
C3150 C3152 1.327 . S
C3150 H3175 0.950 . S
C3151 C3150 1.349 . S
C3151 C3167 1.349 . S
C3152 C3150 1.327 . S
C3152 C3171 1.429 . S
C3152 H3176 0.950 . S
C3153 C3170 1.574 . S
C3153 C3172 1.368 . S
C3153 H3177 0.949 . S
H3154 C3158 0.949 . S
C3155 C3156 1.349 . S
C3155 C3157 1.327 . S
C3155 H3178 0.950 . S
C3156 C3155 1.349 . S
C3156 C3168 1.349 . S
C3157 C3155 1.327 . S
C3157 C3173 1.429 . S
C3157 H3179 0.950 . S
C3158 H3154 0.949 . S
C3158 C3166 1.574 . S
C3158 C3174 1.368 . S
H3159 C3167 0.950 . S
H3160 C3165 0.950 . S
H3161 C3166 0.949 . S
H3162 C3168 0.950 . S
H3163 C3169 0.950 . S
H3164 C3170 0.949 . S
C3165 H3160 0.950 . S
C3165 C3167 1.327 . S
C3165 C3171 1.429 . S
C3166 C3158 1.574 . S
C3166 H3161 0.949 . S
C3166 C3172 1.368 . S
C3167 C3151 1.349 . S
C3167 H3159 0.950 . S
C3167 C3165 1.327 . S
C3168 C3156 1.349 . S
C3168 H3162 0.950 . S
C3168 C3169 1.327 . S
C3169 H3163 0.950 . S
C3169 C3168 1.327 . S
C3169 C3173 1.429 . S
C3170 C3153 1.574 . S
C3170 H3164 0.949 . S
C3170 C3174 1.368 . S
C3171 C3152 1.429 . S
C3171 C3165 1.429 . S
C3171 C3172 1.523 . S
C3172 C3153 1.368 . S
C3172 C3166 1.368 . S
C3172 C3171 1.523 . S
C3173 C3157 1.429 . S
C3173 C3169 1.429 . S
C3173 C3174 1.523 . S
C3174 C3158 1.368 . S
C3174 C3170 1.368 . S
C3174 C3173 1.523 . S
H3175 C3150 0.950 . S
H3176 C3152 0.950 . S
H3177 C3153 0.949 . S
H3178 C3155 0.950 . S
H3179 C3157 0.950 . S
C3180 C3181 1.349 . S
C3180 C3182 1.327 . S
C3180 H3205 0.950 . S
C3181 C3180 1.349 . S
C3181 C3197 1.349 . S
C3182 C3180 1.327 . S
C3182 C3201 1.429 . S
C3182 H3206 0.950 . S
C3183 C3200 1.574 . S
C3183 C3202 1.368 . S
C3183 H3207 0.949 . S
H3184 C3188 0.949 . S
C3185 C3186 1.349 . S
C3185 C3187 1.327 . S
C3185 H3208 0.950 . S
C3186 C3185 1.349 . S
C3186 C3198 1.349 . S
C3187 C3185 1.327 . S
C3187 C3203 1.429 . S
C3187 H3209 0.950 . S
C3188 H3184 0.949 . S
C3188 C3196 1.574 . S
C3188 C3204 1.368 . S
H3189 C3197 0.950 . S
H3190 C3195 0.950 . S
H3191 C3196 0.949 . S
H3192 C3198 0.950 . S
H3193 C3199 0.950 . S
H3194 C3200 0.949 . S
C3195 H3190 0.950 . S
C3195 C3197 1.327 . S
C3195 C3201 1.429 . S
C3196 C3188 1.574 . S
C3196 H3191 0.949 . S
C3196 C3202 1.368 . S
C3197 C3181 1.349 . S
C3197 H3189 0.950 . S
C3197 C3195 1.327 . S
C3198 C3186 1.349 . S
C3198 H3192 0.950 . S
C3198 C3199 1.327 . S
C3199 H3193 0.950 . S
C3199 C3198 1.327 . S
C3199 C3203 1.429 . S
C3200 C3183 1.574 . S
C3200 H3194 0.949 . S
C3200 C3204 1.368 . S
C3201 C3182 1.429 . S
C3201 C3195 1.429 . S
C3201 C3202 1.523 . S
C3202 C3183 1.368 . S
C3202 C3196 1.368 . S
C3202 C3201 1.523 . S
C3203 C3187 1.429 . S
C3203 C3199 1.429 . S
C3203 C3204 1.523 . S
C3204 C3188 1.368 . S
C3204 C3200 1.368 . S
C3204 C3203 1.523 . S
H3205 C3180 0.950 . S
H3206 C3182 0.950 . S
H3207 C3183 0.949 . S
H3208 C3185 0.950 . S
H3209 C3187 0.950 . S
C3210 C3211 1.349 1_556 S
C3210 C3212 1.327 . S
C3210 H3235 0.950 . S
C3211 C3210 1.349 1_554 S
C3211 C3227 1.349 . S
C3212 C3210 1.327 . S
C3212 C3231 1.429 1_556 S
C3212 H3236 0.950 . S
C3213 C3230 1.574 . S
C3213 C3232 1.368 . S
C3213 H3237 0.949 . S
H3214 C3218 0.949 . S
C3215 C3216 1.349 . S
C3215 C3217 1.327 . S
C3215 H3238 0.950 . S
C3216 C3215 1.349 . S
C3216 C3228 1.349 1_554 S
C3217 C3215 1.327 . S
C3217 C3233 1.429 . S
C3217 H3239 0.950 . S
C3218 H3214 0.949 . S
C3218 C3226 1.574 . S
C3218 C3234 1.368 1_556 S
H3219 C3227 0.950 . S
H3220 C3225 0.950 . S
H3221 C3226 0.949 . S
H3222 C3228 0.950 . S
H3223 C3229 0.950 . S
H3224 C3230 0.949 . S
C3225 H3220 0.950 . S
C3225 C3227 1.327 . S
C3225 C3231 1.429 . S
C3226 C3218 1.574 . S
C3226 H3221 0.949 . S
C3226 C3232 1.368 1_556 S
C3227 C3211 1.349 . S
C3227 H3219 0.950 . S
C3227 C3225 1.327 . S
C3228 C3216 1.349 1_556 S
C3228 H3222 0.950 . S
C3228 C3229 1.327 . S
C3229 H3223 0.950 . S
C3229 C3228 1.327 . S
C3229 C3233 1.429 1_556 S
C3230 C3213 1.574 . S
C3230 H3224 0.949 . S
C3230 C3234 1.368 . S
C3231 C3212 1.429 1_554 S
C3231 C3225 1.429 . S
C3231 C3232 1.523 . S
C3232 C3213 1.368 . S
C3232 C3226 1.368 1_554 S
C3232 C3231 1.523 . S
C3233 C3217 1.429 . S
C3233 C3229 1.429 1_554 S
C3233 C3234 1.523 . S
C3234 C3218 1.368 1_554 S
C3234 C3230 1.368 . S
C3234 C3233 1.523 . S
H3235 C3210 0.950 . S
H3236 C3212 0.950 . S
H3237 C3213 0.949 . S
H3238 C3215 0.950 . S
H3239 C3217 0.950 . S
C3240 C3241 1.349 . S
C3240 C3242 1.327 . S
C3240 H3265 0.950 . S
C3241 C3240 1.349 . S
C3241 C3257 1.349 . S
C3242 C3240 1.327 . S
C3242 C3261 1.429 . S
C3242 H3266 0.950 . S
C3243 C3260 1.574 . S
C3243 C3262 1.368 . S
C3243 H3267 0.949 . S
H3244 C3248 0.949 . S
C3245 C3246 1.349 . S
C3245 C3247 1.327 . S
C3245 H3268 0.950 . S
C3246 C3245 1.349 . S
C3246 C3258 1.349 . S
C3247 C3245 1.327 . S
C3247 C3263 1.429 . S
C3247 H3269 0.950 . S
C3248 H3244 0.949 . S
C3248 C3256 1.574 . S
C3248 C3264 1.368 . S
H3249 C3257 0.950 . S
H3250 C3255 0.950 . S
H3251 C3256 0.949 . S
H3252 C3258 0.950 . S
H3253 C3259 0.950 . S
H3254 C3260 0.949 . S
C3255 H3250 0.950 . S
C3255 C3257 1.327 . S
C3255 C3261 1.429 . S
C3256 C3248 1.574 . S
C3256 H3251 0.949 . S
C3256 C3262 1.368 . S
C3257 C3241 1.349 . S
C3257 H3249 0.950 . S
C3257 C3255 1.327 . S
C3258 C3246 1.349 . S
C3258 H3252 0.950 . S
C3258 C3259 1.327 . S
C3259 H3253 0.950 . S
C3259 C3258 1.327 . S
C3259 C3263 1.429 . S
C3260 C3243 1.574 . S
C3260 H3254 0.949 . S
C3260 C3264 1.368 . S
C3261 C3242 1.429 . S
C3261 C3255 1.429 . S
C3261 C3262 1.523 . S
C3262 C3243 1.368 . S
C3262 C3256 1.368 . S
C3262 C3261 1.523 . S
C3263 C3247 1.429 . S
C3263 C3259 1.429 . S
C3263 C3264 1.523 . S
C3264 C3248 1.368 . S
C3264 C3260 1.368 . S
C3264 C3263 1.523 . S
H3265 C3240 0.950 . S
H3266 C3242 0.950 . S
H3267 C3243 0.949 . S
H3268 C3245 0.950 . S
H3269 C3247 0.950 . S
C3270 C3271 1.349 . S
C3270 C3272 1.327 . S
C3270 H3295 0.950 . S
C3271 C3270 1.349 . S
C3271 C3287 1.349 1_554 S
C3272 C3270 1.327 . S
C3272 C3291 1.429 . S
C3272 H3296 0.950 . S
C3273 C3290 1.574 . S
C3273 C3292 1.368 1_556 S
C3273 H3297 0.949 . S
H3274 C3278 0.949 . S
C3275 C3276 1.349 . S
C3275 C3277 1.327 . S
C3275 H3298 0.950 . S
C3276 C3275 1.349 . S
C3276 C3288 1.349 1_556 S
C3277 C3275 1.327 . S
C3277 C3293 1.452 . S
C3277 H3299 0.950 . S
C3278 H3274 0.949 . S
C3278 C3286 1.574 . S
C3278 C3294 1.372 . S
H3279 C3287 0.950 . S
H3280 C3285 0.950 . S
H3281 C3286 0.949 . S
H3282 C3288 0.950 . S
H3283 C3289 0.950 . S
H3284 C3290 0.949 . S
C3285 H3280 0.950 . S
C3285 C3287 1.327 . S
C3285 C3291 1.429 1_556 S
C3286 C3278 1.574 . S
C3286 H3281 0.949 . S
C3286 C3292 1.368 . S
C3287 C3271 1.349 1_556 S
C3287 H3279 0.950 . S
C3287 C3285 1.327 . S
C3288 C3276 1.349 1_554 S
C3288 H3282 0.950 . S
C3288 C3289 1.327 . S
C3289 H3283 0.950 . S
C3289 C3288 1.327 . S
C3289 C3293 1.406 1_554 S
C3290 C3273 1.574 . S
C3290 H3284 0.949 . S
C3290 C3294 1.364 1_556 S
C3291 C3272 1.429 . S
C3291 C3285 1.429 1_554 S
C3291 C3292 1.523 . S
C3292 C3273 1.368 1_554 S
C3292 C3286 1.368 . S
C3292 C3291 1.523 . S
C3293 C3277 1.452 . S
C3293 C3289 1.406 1_556 S
C3293 C3294 1.522 1_556 S
C3294 C3278 1.372 . S
C3294 C3290 1.364 1_554 S
C3294 C3293 1.522 1_554 S
H3295 C3270 0.950 . S
H3296 C3272 0.950 . S
H3297 C3273 0.949 . S
H3298 C3275 0.950 . S
H3299 C3277 0.950 . S
C3300 C3301 1.349 . S
C3300 C3302 1.327 . S
C3300 H3325 0.950 . S
C3301 C3300 1.349 . S
C3301 C3317 1.349 . S
C3302 C3300 1.327 . S
C3302 C3321 1.429 . S
C3302 H3326 0.950 . S
C3303 C3320 1.574 . S
C3303 C3322 1.368 . S
C3303 H3327 0.949 . S
H3304 C3308 0.949 . S
C3305 C3306 1.349 . S
C3305 C3307 1.327 . S
C3305 H3328 0.950 . S
C3306 C3305 1.349 . S
C3306 C3318 1.349 . S
C3307 C3305 1.327 . S
C3307 C3323 1.429 . S
C3307 H3329 0.950 . S
C3308 H3304 0.949 . S
C3308 C3316 1.574 . S
C3308 C3324 1.368 . S
H3309 C3317 0.950 . S
H3310 C3315 0.950 . S
H3311 C3316 0.949 . S
H3312 C3318 0.950 . S
H3313 C3319 0.950 . S
H3314 C3320 0.949 . S
C3315 H3310 0.950 . S
C3315 C3317 1.327 . S
C3315 C3321 1.429 . S
C3316 C3308 1.574 . S
C3316 H3311 0.949 . S
C3316 C3322 1.368 . S
C3317 C3301 1.349 . S
C3317 H3309 0.950 . S
C3317 C3315 1.327 . S
C3318 C3306 1.349 . S
C3318 H3312 0.950 . S
C3318 C3319 1.327 . S
C3319 H3313 0.950 . S
C3319 C3318 1.327 . S
C3319 C3323 1.429 . S
C3320 C3303 1.574 . S
C3320 H3314 0.949 . S
C3320 C3324 1.368 . S
C3321 C3302 1.429 . S
C3321 C3315 1.429 . S
C3321 C3322 1.523 . S
C3322 C3303 1.368 . S
C3322 C3316 1.368 . S
C3322 C3321 1.523 . S
C3323 C3307 1.429 . S
C3323 C3319 1.429 . S
C3323 C3324 1.523 . S
C3324 C3308 1.368 . S
C3324 C3320 1.368 . S
C3324 C3323 1.523 . S
H3325 C3300 0.950 . S
H3326 C3302 0.950 . S
H3327 C3303 0.949 . S
H3328 C3305 0.950 . S
H3329 C3307 0.950 . S
C3330 C3331 1.349 . S
C3330 C3332 1.327 . S
C3330 H3355 0.950 . S
C3331 C3330 1.349 . S
C3331 C3347 1.349 . S
C3332 C3330 1.327 . S
C3332 C3351 1.429 . S
C3332 H3356 0.950 . S
C3333 C3350 1.574 . S
C3333 C3352 1.368 . S
C3333 H3357 0.949 . S
H3334 C3338 0.949 . S
C3335 C3336 1.349 . S
C3335 C3337 1.327 . S
C3335 H3358 0.950 . S
C3336 C3335 1.349 . S
C3336 C3348 1.349 . S
C3337 C3335 1.327 . S
C3337 C3353 1.429 . S
C3337 H3359 0.950 . S
C3338 H3334 0.949 . S
C3338 C3346 1.574 . S
C3338 C3354 1.368 . S
H3339 C3347 0.950 . S
H3340 C3345 0.950 . S
H3341 C3346 0.949 . S
H3342 C3348 0.950 . S
H3343 C3349 0.950 . S
H3344 C3350 0.949 . S
C3345 H3340 0.950 . S
C3345 C3347 1.327 . S
C3345 C3351 1.429 . S
C3346 C3338 1.574 . S
C3346 H3341 0.949 . S
C3346 C3352 1.368 . S
C3347 C3331 1.349 . S
C3347 H3339 0.950 . S
C3347 C3345 1.327 . S
C3348 C3336 1.349 . S
C3348 H3342 0.950 . S
C3348 C3349 1.327 . S
C3349 H3343 0.950 . S
C3349 C3348 1.327 . S
C3349 C3353 1.429 . S
C3350 C3333 1.574 . S
C3350 H3344 0.949 . S
C3350 C3354 1.368 . S
C3351 C3332 1.429 . S
C3351 C3345 1.429 . S
C3351 C3352 1.523 . S
C3352 C3333 1.368 . S
C3352 C3346 1.368 . S
C3352 C3351 1.523 . S
C3353 C3337 1.429 . S
C3353 C3349 1.429 . S
C3353 C3354 1.523 . S
C3354 C3338 1.368 . S
C3354 C3350 1.368 . S
C3354 C3353 1.523 . S
H3355 C3330 0.950 . S
H3356 C3332 0.950 . S
H3357 C3333 0.949 . S
H3358 C3335 0.950 . S
H3359 C3337 0.950 . S
C3360 C3361 1.349 . S
C3360 C3362 1.327 . S
C3360 H3385 0.950 . S
C3361 C3360 1.349 . S
C3361 C3377 1.349 . S
C3362 C3360 1.327 . S
C3362 C3381 1.429 . S
C3362 H3386 0.950 . S
C3363 C3380 1.574 . S
C3363 C3382 1.368 . S
C3363 H3387 0.949 . S
H3364 C3368 0.949 . S
C3365 C3366 1.349 . S
C3365 C3367 1.327 . S
C3365 H3388 0.950 . S
C3366 C3365 1.349 . S
C3366 C3378 1.349 . S
C3367 C3365 1.327 . S
C3367 C3383 1.429 . S
C3367 H3389 0.950 . S
C3368 H3364 0.949 . S
C3368 C3376 1.574 . S
C3368 C3384 1.368 . S
H3369 C3377 0.950 . S
H3370 C3375 0.950 . S
H3371 C3376 0.949 . S
H3372 C3378 0.950 . S
H3373 C3379 0.950 . S
H3374 C3380 0.949 . S
C3375 H3370 0.950 . S
C3375 C3377 1.327 . S
C3375 C3381 1.429 . S
C3376 C3368 1.574 . S
C3376 H3371 0.949 . S
C3376 C3382 1.368 . S
C3377 C3361 1.349 . S
C3377 H3369 0.950 . S
C3377 C3375 1.327 . S
C3378 C3366 1.349 . S
C3378 H3372 0.950 . S
C3378 C3379 1.327 . S
C3379 H3373 0.950 . S
C3379 C3378 1.327 . S
C3379 C3383 1.429 . S
C3380 C3363 1.574 . S
C3380 H3374 0.949 . S
C3380 C3384 1.368 . S
C3381 C3362 1.429 . S
C3381 C3375 1.429 . S
C3381 C3382 1.523 . S
C3382 C3363 1.368 . S
C3382 C3376 1.368 . S
C3382 C3381 1.523 . S
C3383 C3367 1.429 . S
C3383 C3379 1.429 . S
C3383 C3384 1.523 . S
C3384 C3368 1.368 . S
C3384 C3380 1.368 . S
C3384 C3383 1.523 . S
H3385 C3360 0.950 . S
H3386 C3362 0.950 . S
H3387 C3363 0.949 . S
H3388 C3365 0.950 . S
H3389 C3367 0.950 . S
C3390 C3391 1.349 . S
C3390 C3392 1.327 . S
C3390 H3415 0.950 . S
C3391 C3390 1.349 . S
C3391 C3407 1.349 . S
C3392 C3390 1.327 . S
C3392 C3411 1.429 . S
C3392 H3416 0.950 . S
C3393 C3410 1.574 . S
C3393 C3412 1.368 . S
C3393 H3417 0.949 . S
H3394 C3398 0.949 . S
C3395 C3396 1.349 . S
C3395 C3397 1.327 . S
C3395 H3418 0.950 . S
C3396 C3395 1.349 . S
C3396 C3408 1.349 . S
C3397 C3395 1.327 . S
C3397 C3413 1.429 . S
C3397 H3419 0.950 . S
C3398 H3394 0.949 . S
C3398 C3406 1.574 . S
C3398 C3414 1.368 . S
H3399 C3407 0.950 . S
H3400 C3405 0.950 . S
H3401 C3406 0.949 . S
H3402 C3408 0.950 . S
H3403 C3409 0.950 . S
H3404 C3410 0.949 . S
C3405 H3400 0.950 . S
C3405 C3407 1.327 . S
C3405 C3411 1.429 . S
C3406 C3398 1.574 . S
C3406 H3401 0.949 . S
C3406 C3412 1.368 . S
C3407 C3391 1.349 . S
C3407 H3399 0.950 . S
C3407 C3405 1.327 . S
C3408 C3396 1.349 . S
C3408 H3402 0.950 . S
C3408 C3409 1.327 . S
C3409 H3403 0.950 . S
C3409 C3408 1.327 . S
C3409 C3413 1.429 . S
C3410 C3393 1.574 . S
C3410 H3404 0.949 . S
C3410 C3414 1.368 . S
C3411 C3392 1.429 . S
C3411 C3405 1.429 . S
C3411 C3412 1.523 . S
C3412 C3393 1.368 . S
C3412 C3406 1.368 . S
C3412 C3411 1.523 . S
C3413 C3397 1.429 . S
C3413 C3409 1.429 . S
C3413 C3414 1.523 . S
C3414 C3398 1.368 . S
C3414 C3410 1.368 . S
C3414 C3413 1.523 . S
H3415 C3390 0.950 . S
H3416 C3392 0.950 . S
H3417 C3393 0.949 . S
H3418 C3395 0.950 . S
H3419 C3397 0.950 . S
C3420 C3421 1.349 1_655 S
C3420 C3422 1.327 . S
C3420 H3445 0.950 . S
C3421 C3420 1.349 1_455 S
C3421 C3437 1.349 . S
C3422 C3420 1.327 . S
C3422 C3441 1.429 1_655 S
C3422 H3446 0.950 . S
C3423 C3440 1.574 . S
C3423 C3442 1.383 . S
C3423 H3447 0.949 . S
H3424 C3428 0.949 . S
C3425 C3426 1.349 1_455 S
C3425 C3427 1.327 . S
C3425 H3448 0.950 . S
C3426 C3425 1.349 1_655 S
C3426 C3438 1.349 . S
C3427 C3425 1.327 . S
C3427 C3443 1.429 1_455 S
C3427 H3449 0.950 . S
C3428 H3424 0.949 . S
C3428 C3436 1.574 . S
C3428 C3444 1.368 . S
H3429 C3437 0.950 . S
H3430 C3435 0.950 . S
H3431 C3436 0.949 . S
H3432 C3438 0.950 . S
H3433 C3439 0.950 . S
H3434 C3440 0.949 . S
C3435 H3430 0.950 . S
C3435 C3437 1.327 . S
C3435 C3441 1.429 . S
C3436 C3428 1.574 . S
C3436 H3431 0.949 . S
C3436 C3442 1.353 1_655 S
C3437 C3421 1.349 . S
C3437 H3429 0.950 . S
C3437 C3435 1.327 . S
C3438 C3426 1.349 . S
C3438 H3432 0.950 . S
C3438 C3439 1.327 . S
C3439 H3433 0.950 . S
C3439 C3438 1.327 . S
C3439 C3443 1.429 . S
C3440 C3423 1.574 . S
C3440 H3434 0.949 . S
C3440 C3444 1.368 1_455 S
C3441 C3422 1.429 1_455 S
C3441 C3435 1.429 . S
C3441 C3442 1.525 . S
C3442 C3423 1.383 . S
C3442 C3436 1.353 1_455 S
C3442 C3441 1.525 . S
C3443 C3427 1.429 1_655 S
C3443 C3439 1.429 . S
C3443 C3444 1.523 . S
C3444 C3428 1.368 . S
C3444 C3440 1.368 1_655 S
C3444 C3443 1.523 . S
H3445 C3420 0.950 . S
H3446 C3422 0.950 . S
H3447 C3423 0.949 . S
H3448 C3425 0.950 . S
H3449 C3427 0.950 . S
C3450 C3451 1.349 . S
C3450 C3452 1.327 . S
C3450 H3475 0.950 . S
C3451 C3450 1.349 . S
C3451 C3467 1.349 . S
C3452 C3450 1.327 . S
C3452 C3471 1.429 . S
C3452 H3476 0.950 . S
C3453 C3470 1.574 . S
C3453 C3472 1.368 . S
C3453 H3477 0.949 . S
H3454 C3458 0.949 . S
C3455 C3456 1.349 . S
C3455 C3457 1.327 . S
C3455 H3478 0.950 . S
C3456 C3455 1.349 . S
C3456 C3468 1.349 . S
C3457 C3455 1.327 . S
C3457 C3473 1.429 . S
C3457 H3479 0.950 . S
C3458 H3454 0.949 . S
C3458 C3466 1.574 . S
C3458 C3474 1.368 . S
H3459 C3467 0.950 . S
H3460 C3465 0.950 . S
H3461 C3466 0.949 . S
H3462 C3468 0.950 . S
H3463 C3469 0.950 . S
H3464 C3470 0.949 . S
C3465 H3460 0.950 . S
C3465 C3467 1.327 . S
C3465 C3471 1.429 . S
C3466 C3458 1.574 . S
C3466 H3461 0.949 . S
C3466 C3472 1.368 . S
C3467 C3451 1.349 . S
C3467 H3459 0.950 . S
C3467 C3465 1.327 . S
C3468 C3456 1.349 . S
C3468 H3462 0.950 . S
C3468 C3469 1.327 . S
C3469 H3463 0.950 . S
C3469 C3468 1.327 . S
C3469 C3473 1.429 . S
C3470 C3453 1.574 . S
C3470 H3464 0.949 . S
C3470 C3474 1.368 . S
C3471 C3452 1.429 . S
C3471 C3465 1.429 . S
C3471 C3472 1.523 . S
C3472 C3453 1.368 . S
C3472 C3466 1.368 . S
C3472 C3471 1.523 . S
C3473 C3457 1.429 . S
C3473 C3469 1.429 . S
C3473 C3474 1.523 . S
C3474 C3458 1.368 . S
C3474 C3470 1.368 . S
C3474 C3473 1.523 . S
H3475 C3450 0.950 . S
H3476 C3452 0.950 . S
H3477 C3453 0.949 . S
H3478 C3455 0.950 . S
H3479 C3457 0.950 . S
C3480 C3481 1.349 . S
C3480 C3482 1.327 . S
C3480 H3505 0.950 . S
C3481 C3480 1.349 . S
C3481 C3497 1.349 . S
C3482 C3480 1.327 . S
C3482 C3501 1.429 . S
C3482 H3506 0.950 . S
C3483 C3500 1.574 . S
C3483 C3502 1.368 . S
C3483 H3507 0.949 . S
H3484 C3488 0.949 . S
C3485 C3486 1.349 . S
C3485 C3487 1.327 . S
C3485 H3508 0.950 . S
C3486 C3485 1.349 . S
C3486 C3498 1.349 . S
C3487 C3485 1.327 . S
C3487 C3503 1.429 . S
C3487 H3509 0.950 . S
C3488 H3484 0.949 . S
C3488 C3496 1.574 . S
C3488 C3504 1.368 . S
H3489 C3497 0.950 . S
H3490 C3495 0.950 . S
H3491 C3496 0.949 . S
H3492 C3498 0.950 . S
H3493 C3499 0.950 . S
H3494 C3500 0.949 . S
C3495 H3490 0.950 . S
C3495 C3497 1.327 . S
C3495 C3501 1.429 . S
C3496 C3488 1.574 . S
C3496 H3491 0.949 . S
C3496 C3502 1.368 . S
C3497 C3481 1.349 . S
C3497 H3489 0.950 . S
C3497 C3495 1.327 . S
C3498 C3486 1.349 . S
C3498 H3492 0.950 . S
C3498 C3499 1.327 . S
C3499 H3493 0.950 . S
C3499 C3498 1.327 . S
C3499 C3503 1.429 . S
C3500 C3483 1.574 . S
C3500 H3494 0.949 . S
C3500 C3504 1.368 . S
C3501 C3482 1.429 . S
C3501 C3495 1.429 . S
C3501 C3502 1.523 . S
C3502 C3483 1.368 . S
C3502 C3496 1.368 . S
C3502 C3501 1.523 . S
C3503 C3487 1.429 . S
C3503 C3499 1.429 . S
C3503 C3504 1.523 . S
C3504 C3488 1.368 . S
C3504 C3500 1.368 . S
C3504 C3503 1.523 . S
H3505 C3480 0.950 . S
H3506 C3482 0.950 . S
H3507 C3483 0.949 . S
H3508 C3485 0.950 . S
H3509 C3487 0.950 . S
C3510 C3511 1.349 . S
C3510 C3512 1.327 . S
C3510 H3535 0.950 . S
C3511 C3510 1.349 . S
C3511 C3527 1.349 . S
C3512 C3510 1.327 . S
C3512 C3531 1.429 . S
C3512 H3536 0.950 . S
C3513 C3530 1.574 . S
C3513 C3532 1.368 . S
C3513 H3537 0.949 . S
H3514 C3518 0.949 . S
C3515 C3516 1.349 . S
C3515 C3517 1.327 . S
C3515 H3538 0.950 . S
C3516 C3515 1.349 . S
C3516 C3528 1.349 . S
C3517 C3515 1.327 . S
C3517 C3533 1.429 . S
C3517 H3539 0.950 . S
C3518 H3514 0.949 . S
C3518 C3526 1.574 . S
C3518 C3534 1.368 . S
H3519 C3527 0.950 . S
H3520 C3525 0.950 . S
H3521 C3526 0.949 . S
H3522 C3528 0.950 . S
H3523 C3529 0.950 . S
H3524 C3530 0.949 . S
C3525 H3520 0.950 . S
C3525 C3527 1.327 . S
C3525 C3531 1.429 . S
C3526 C3518 1.574 . S
C3526 H3521 0.949 . S
C3526 C3532 1.368 . S
C3527 C3511 1.349 . S
C3527 H3519 0.950 . S
C3527 C3525 1.327 . S
C3528 C3516 1.349 . S
C3528 H3522 0.950 . S
C3528 C3529 1.327 . S
C3529 H3523 0.950 . S
C3529 C3528 1.327 . S
C3529 C3533 1.429 . S
C3530 C3513 1.574 . S
C3530 H3524 0.949 . S
C3530 C3534 1.368 . S
C3531 C3512 1.429 . S
C3531 C3525 1.429 . S
C3531 C3532 1.523 . S
C3532 C3513 1.368 . S
C3532 C3526 1.368 . S
C3532 C3531 1.523 . S
C3533 C3517 1.429 . S
C3533 C3529 1.429 . S
C3533 C3534 1.523 . S
C3534 C3518 1.368 . S
C3534 C3530 1.368 . S
C3534 C3533 1.523 . S
H3535 C3510 0.950 . S
H3536 C3512 0.950 . S
H3537 C3513 0.949 . S
H3538 C3515 0.950 . S
H3539 C3517 0.950 . S
C3540 C3541 1.349 . S
C3540 C3542 1.327 . S
C3540 H3565 0.950 . S
C3541 C3540 1.349 . S
C3541 C3557 1.349 1_455 S
C3542 C3540 1.327 . S
C3542 C3561 1.429 . S
C3542 H3566 0.950 . S
C3543 C3560 1.574 . S
C3543 C3562 1.372 1_655 S
C3543 H3567 0.949 . S
H3544 C3548 0.949 . S
C3545 C3546 1.349 . S
C3545 C3547 1.327 . S
C3545 H3568 0.950 . S
C3546 C3545 1.349 . S
C3546 C3558 1.349 1_655 S
C3547 C3545 1.327 . S
C3547 C3563 1.429 . S
C3547 H3569 0.950 . S
C3548 H3544 0.949 . S
C3548 C3556 1.574 . S
C3548 C3564 1.368 1_455 S
H3549 C3557 0.950 . S
H3550 C3555 0.950 . S
H3551 C3556 0.949 . S
H3552 C3558 0.950 . S
H3553 C3559 0.950 . S
H3554 C3560 0.949 . S
C3555 H3550 0.950 . S
C3555 C3557 1.327 . S
C3555 C3561 1.429 1_655 S
C3556 C3548 1.574 . S
C3556 H3551 0.949 . S
C3556 C3562 1.365 . S
C3557 C3541 1.349 1_655 S
C3557 H3549 0.950 . S
C3557 C3555 1.327 . S
C3558 C3546 1.349 1_455 S
C3558 H3552 0.950 . S
C3558 C3559 1.327 . S
C3559 H3553 0.950 . S
C3559 C3558 1.327 . S
C3559 C3563 1.429 1_455 S
C3560 C3543 1.574 . S
C3560 H3554 0.949 . S
C3560 C3564 1.368 . S
C3561 C3542 1.429 . S
C3561 C3555 1.429 1_455 S
C3561 C3562 1.523 . S
C3562 C3543 1.372 1_455 S
C3562 C3556 1.365 . S
C3562 C3561 1.523 . S
C3563 C3547 1.429 . S
C3563 C3559 1.429 1_655 S
C3563 C3564 1.523 . S
C3564 C3548 1.368 1_655 S
C3564 C3560 1.368 . S
C3564 C3563 1.523 . S
H3565 C3540 0.950 . S
H3566 C3542 0.950 . S
H3567 C3543 0.949 . S
H3568 C3545 0.950 . S
H3569 C3547 0.950 . S
C3570 C3571 1.349 . S
C3570 C3572 1.327 . S
C3570 H3595 0.950 . S
C3571 C3570 1.349 . S
C3571 C3587 1.349 . S
C3572 C3570 1.327 . S
C3572 C3591 1.429 . S
C3572 H3596 0.950 . S
C3573 C3590 1.574 . S
C3573 C3592 1.368 . S
C3573 H3597 0.949 . S
H3574 C3578 0.949 . S
C3575 C3576 1.349 . S
C3575 C3577 1.327 . S
C3575 H3598 0.950 . S
C3576 C3575 1.349 . S
C3576 C3588 1.349 . S
C3577 C3575 1.327 . S
C3577 C3593 1.429 . S
C3577 H3599 0.950 . S
C3578 H3574 0.949 . S
C3578 C3586 1.574 . S
C3578 C3594 1.368 . S
H3579 C3587 0.950 . S
H3580 C3585 0.950 . S
H3581 C3586 0.949 . S
H3582 C3588 0.950 . S
H3583 C3589 0.950 . S
H3584 C3590 0.949 . S
C3585 H3580 0.950 . S
C3585 C3587 1.327 . S
C3585 C3591 1.429 . S
C3586 C3578 1.574 . S
C3586 H3581 0.949 . S
C3586 C3592 1.368 . S
C3587 C3571 1.349 . S
C3587 H3579 0.950 . S
C3587 C3585 1.327 . S
C3588 C3576 1.349 . S
C3588 H3582 0.950 . S
C3588 C3589 1.327 . S
C3589 H3583 0.950 . S
C3589 C3588 1.327 . S
C3589 C3593 1.429 . S
C3590 C3573 1.574 . S
C3590 H3584 0.949 . S
C3590 C3594 1.368 . S
C3591 C3572 1.429 . S
C3591 C3585 1.429 . S
C3591 C3592 1.523 . S
C3592 C3573 1.368 . S
C3592 C3586 1.368 . S
C3592 C3591 1.523 . S
C3593 C3577 1.429 . S
C3593 C3589 1.429 . S
C3593 C3594 1.523 . S
C3594 C3578 1.368 . S
C3594 C3590 1.368 . S
C3594 C3593 1.523 . S
H3595 C3570 0.950 . S
H3596 C3572 0.950 . S
H3597 C3573 0.949 . S
H3598 C3575 0.950 . S
H3599 C3577 0.950 . S
C3600 C3601 1.349 . S
C3600 C3602 1.327 . S
C3600 H3625 0.950 . S
C3601 C3600 1.349 . S
C3601 C3617 1.349 . S
C3602 C3600 1.327 . S
C3602 C3621 1.429 . S
C3602 H3626 0.950 . S
C3603 C3620 1.574 . S
C3603 C3622 1.368 . S
C3603 H3627 0.949 . S
H3604 C3608 0.949 . S
C3605 C3606 1.349 . S
C3605 C3607 1.327 . S
C3605 H3628 0.950 . S
C3606 C3605 1.349 . S
C3606 C3618 1.349 . S
C3607 C3605 1.327 . S
C3607 C3623 1.429 . S
C3607 H3629 0.950 . S
C3608 H3604 0.949 . S
C3608 C3616 1.574 . S
C3608 C3624 1.368 . S
H3609 C3617 0.950 . S
H3610 C3615 0.950 . S
H3611 C3616 0.949 . S
H3612 C3618 0.950 . S
H3613 C3619 0.950 . S
H3614 C3620 0.949 . S
C3615 H3610 0.950 . S
C3615 C3617 1.327 . S
C3615 C3621 1.429 . S
C3616 C3608 1.574 . S
C3616 H3611 0.949 . S
C3616 C3622 1.368 . S
C3617 C3601 1.349 . S
C3617 H3609 0.950 . S
C3617 C3615 1.327 . S
C3618 C3606 1.349 . S
C3618 H3612 0.950 . S
C3618 C3619 1.327 . S
C3619 H3613 0.950 . S
C3619 C3618 1.327 . S
C3619 C3623 1.429 . S
C3620 C3603 1.574 . S
C3620 H3614 0.949 . S
C3620 C3624 1.368 . S
C3621 C3602 1.429 . S
C3621 C3615 1.429 . S
C3621 C3622 1.523 . S
C3622 C3603 1.368 . S
C3622 C3616 1.368 . S
C3622 C3621 1.523 . S
C3623 C3607 1.429 . S
C3623 C3619 1.429 . S
C3623 C3624 1.523 . S
C3624 C3608 1.368 . S
C3624 C3620 1.368 . S
C3624 C3623 1.523 . S
H3625 C3600 0.950 . S
H3626 C3602 0.950 . S
H3627 C3603 0.949 . S
H3628 C3605 0.950 . S
H3629 C3607 0.950 . S
C3630 C3631 1.349 . S
C3630 C3632 1.327 . S
C3630 H3655 0.950 . S
C3631 C3630 1.349 . S
C3631 C3647 1.349 . S
C3632 C3630 1.327 . S
C3632 C3651 1.429 . S
C3632 H3656 0.950 . S
C3633 C3650 1.574 . S
C3633 C3652 1.368 . S
C3633 H3657 0.949 . S
H3634 C3638 0.949 . S
C3635 C3636 1.349 . S
C3635 C3637 1.327 . S
C3635 H3658 0.950 . S
C3636 C3635 1.349 . S
C3636 C3648 1.349 . S
C3637 C3635 1.327 . S
C3637 C3653 1.429 . S
C3637 H3659 0.950 . S
C3638 H3634 0.949 . S
C3638 C3646 1.574 . S
C3638 C3654 1.368 . S
H3639 C3647 0.950 . S
H3640 C3645 0.950 . S
H3641 C3646 0.949 . S
H3642 C3648 0.950 . S
H3643 C3649 0.950 . S
H3644 C3650 0.949 . S
C3645 H3640 0.950 . S
C3645 C3647 1.327 . S
C3645 C3651 1.429 . S
C3646 C3638 1.574 . S
C3646 H3641 0.949 . S
C3646 C3652 1.368 . S
C3647 C3631 1.349 . S
C3647 H3639 0.950 . S
C3647 C3645 1.327 . S
C3648 C3636 1.349 . S
C3648 H3642 0.950 . S
C3648 C3649 1.327 . S
C3649 H3643 0.950 . S
C3649 C3648 1.327 . S
C3649 C3653 1.429 . S
C3650 C3633 1.574 . S
C3650 H3644 0.949 . S
C3650 C3654 1.368 . S
C3651 C3632 1.429 . S
C3651 C3645 1.429 . S
C3651 C3652 1.523 . S
C3652 C3633 1.368 . S
C3652 C3646 1.368 . S
C3652 C3651 1.523 . S
C3653 C3637 1.429 . S
C3653 C3649 1.429 . S
C3653 C3654 1.523 . S
C3654 C3638 1.368 . S
C3654 C3650 1.368 . S
C3654 C3653 1.523 . S
H3655 C3630 0.950 . S
H3656 C3632 0.950 . S
H3657 C3633 0.949 . S
H3658 C3635 0.950 . S
H3659 C3637 0.950 . S
C3660 C3661 1.349 . S
C3660 C3662 1.327 . S
C3660 H3685 0.950 . S
C3661 C3660 1.349 . S
C3661 C3677 1.349 . S
C3662 C3660 1.327 . S
C3662 C3681 1.429 . S
C3662 H3686 0.950 . S
C3663 C3680 1.574 . S
C3663 C3682 1.368 . S
C3663 H3687 0.949 . S
H3664 C3668 0.949 . S
C3665 C3666 1.349 . S
C3665 C3667 1.327 . S
C3665 H3688 0.950 . S
C3666 C3665 1.349 . S
C3666 C3678 1.349 . S
C3667 C3665 1.327 . S
C3667 C3683 1.429 . S
C3667 H3689 0.950 . S
C3668 H3664 0.949 . S
C3668 C3676 1.574 . S
C3668 C3684 1.368 . S
H3669 C3677 0.950 . S
H3670 C3675 0.950 . S
H3671 C3676 0.949 . S
H3672 C3678 0.950 . S
H3673 C3679 0.950 . S
H3674 C3680 0.949 . S
C3675 H3670 0.950 . S
C3675 C3677 1.327 . S
C3675 C3681 1.429 . S
C3676 C3668 1.574 . S
C3676 H3671 0.949 . S
C3676 C3682 1.368 . S
C3677 C3661 1.349 . S
C3677 H3669 0.950 . S
C3677 C3675 1.327 . S
C3678 C3666 1.349 . S
C3678 H3672 0.950 . S
C3678 C3679 1.327 . S
C3679 H3673 0.950 . S
C3679 C3678 1.327 . S
C3679 C3683 1.429 . S
C3680 C3663 1.574 . S
C3680 H3674 0.949 . S
C3680 C3684 1.368 . S
C3681 C3662 1.429 . S
C3681 C3675 1.429 . S
C3681 C3682 1.523 . S
C3682 C3663 1.368 . S
C3682 C3676 1.368 . S
C3682 C3681 1.523 . S
C3683 C3667 1.429 . S
C3683 C3679 1.429 . S
C3683 C3684 1.523 . S
C3684 C3668 1.368 . S
C3684 C3680 1.368 . S
C3684 C3683 1.523 . S
H3685 C3660 0.950 . S
H3686 C3662 0.950 . S
H3687 C3663 0.949 . S
H3688 C3665 0.950 . S
H3689 C3667 0.950 . S
C3690 C3691 1.349 . S
C3690 C3692 1.327 . S
C3690 H3715 0.950 . S
C3691 C3690 1.349 . S
C3691 C3707 1.349 . S
C3692 C3690 1.327 . S
C3692 C3711 1.429 . S
C3692 H3716 0.950 . S
C3693 C3710 1.574 . S
C3693 C3712 1.368 . S
C3693 H3717 0.949 . S
H3694 C3698 0.949 . S
C3695 C3696 1.349 . S
C3695 C3697 1.327 . S
C3695 H3718 0.950 . S
C3696 C3695 1.349 . S
C3696 C3708 1.349 . S
C3697 C3695 1.327 . S
C3697 C3713 1.429 . S
C3697 H3719 0.950 . S
C3698 H3694 0.949 . S
C3698 C3706 1.574 . S
C3698 C3714 1.368 . S
H3699 C3707 0.950 . S
H3700 C3705 0.950 . S
H3701 C3706 0.949 . S
H3702 C3708 0.950 . S
H3703 C3709 0.950 . S
H3704 C3710 0.949 . S
C3705 H3700 0.950 . S
C3705 C3707 1.327 . S
C3705 C3711 1.429 . S
C3706 C3698 1.574 . S
C3706 H3701 0.949 . S
C3706 C3712 1.368 . S
C3707 C3691 1.349 . S
C3707 H3699 0.950 . S
C3707 C3705 1.327 . S
C3708 C3696 1.349 . S
C3708 H3702 0.950 . S
C3708 C3709 1.327 . S
C3709 H3703 0.950 . S
C3709 C3708 1.327 . S
C3709 C3713 1.429 . S
C3710 C3693 1.574 . S
C3710 H3704 0.949 . S
C3710 C3714 1.368 . S
C3711 C3692 1.429 . S
C3711 C3705 1.429 . S
C3711 C3712 1.523 . S
C3712 C3693 1.368 . S
C3712 C3706 1.368 . S
C3712 C3711 1.523 . S
C3713 C3697 1.429 . S
C3713 C3709 1.429 . S
C3713 C3714 1.523 . S
C3714 C3698 1.368 . S
C3714 C3710 1.368 . S
C3714 C3713 1.523 . S
H3715 C3690 0.950 . S
H3716 C3692 0.950 . S
H3717 C3693 0.949 . S
H3718 C3695 0.950 . S
H3719 C3697 0.950 . S
C3720 C3721 1.349 . S
C3720 C3722 1.327 . S
C3720 H3745 0.950 . S
C3721 C3720 1.349 . S
C3721 C3737 1.349 . S
C3722 C3720 1.327 . S
C3722 C3741 1.429 . S
C3722 H3746 0.950 . S
C3723 C3740 1.574 . S
C3723 C3742 1.368 . S
C3723 H3747 0.949 . S
H3724 C3728 0.949 . S
C3725 C3726 1.349 . S
C3725 C3727 1.327 . S
C3725 H3748 0.950 . S
C3726 C3725 1.349 . S
C3726 C3738 1.349 . S
C3727 C3725 1.327 . S
C3727 C3743 1.429 . S
C3727 H3749 0.950 . S
C3728 H3724 0.949 . S
C3728 C3736 1.574 . S
C3728 C3744 1.368 . S
H3729 C3737 0.950 . S
H3730 C3735 0.950 . S
H3731 C3736 0.949 . S
H3732 C3738 0.950 . S
H3733 C3739 0.950 . S
H3734 C3740 0.949 . S
C3735 H3730 0.950 . S
C3735 C3737 1.327 . S
C3735 C3741 1.429 . S
C3736 C3728 1.574 . S
C3736 H3731 0.949 . S
C3736 C3742 1.368 . S
C3737 C3721 1.349 . S
C3737 H3729 0.950 . S
C3737 C3735 1.327 . S
C3738 C3726 1.349 . S
C3738 H3732 0.950 . S
C3738 C3739 1.327 . S
C3739 H3733 0.950 . S
C3739 C3738 1.327 . S
C3739 C3743 1.429 . S
C3740 C3723 1.574 . S
C3740 H3734 0.949 . S
C3740 C3744 1.368 . S
C3741 C3722 1.429 . S
C3741 C3735 1.429 . S
C3741 C3742 1.523 . S
C3742 C3723 1.368 . S
C3742 C3736 1.368 . S
C3742 C3741 1.523 . S
C3743 C3727 1.429 . S
C3743 C3739 1.429 . S
C3743 C3744 1.523 . S
C3744 C3728 1.368 . S
C3744 C3740 1.368 . S
C3744 C3743 1.523 . S
H3745 C3720 0.950 . S
H3746 C3722 0.950 . S
H3747 C3723 0.949 . S
H3748 C3725 0.950 . S
H3749 C3727 0.950 . S
C3750 C3751 1.349 . S
C3750 C3752 1.327 . S
C3750 H3775 0.950 . S
C3751 C3750 1.349 . S
C3751 C3767 1.349 . S
C3752 C3750 1.327 . S
C3752 C3771 1.429 . S
C3752 H3776 0.950 . S
C3753 C3770 1.574 . S
C3753 C3772 1.368 . S
C3753 H3777 0.949 . S
H3754 C3758 0.949 . S
C3755 C3756 1.349 . S
C3755 C3757 1.327 . S
C3755 H3778 0.950 . S
C3756 C3755 1.349 . S
C3756 C3768 1.349 . S
C3757 C3755 1.327 . S
C3757 C3773 1.429 . S
C3757 H3779 0.950 . S
C3758 H3754 0.949 . S
C3758 C3766 1.574 . S
C3758 C3774 1.368 . S
H3759 C3767 0.950 . S
H3760 C3765 0.950 . S
H3761 C3766 0.949 . S
H3762 C3768 0.950 . S
H3763 C3769 0.950 . S
H3764 C3770 0.949 . S
C3765 H3760 0.950 . S
C3765 C3767 1.327 . S
C3765 C3771 1.429 . S
C3766 C3758 1.574 . S
C3766 H3761 0.949 . S
C3766 C3772 1.368 . S
C3767 C3751 1.349 . S
C3767 H3759 0.950 . S
C3767 C3765 1.327 . S
C3768 C3756 1.349 . S
C3768 H3762 0.950 . S
C3768 C3769 1.327 . S
C3769 H3763 0.950 . S
C3769 C3768 1.327 . S
C3769 C3773 1.429 . S
C3770 C3753 1.574 . S
C3770 H3764 0.949 . S
C3770 C3774 1.368 . S
C3771 C3752 1.429 . S
C3771 C3765 1.429 . S
C3771 C3772 1.523 . S
C3772 C3753 1.368 . S
C3772 C3766 1.368 . S
C3772 C3771 1.523 . S
C3773 C3757 1.429 . S
C3773 C3769 1.429 . S
C3773 C3774 1.523 . S
C3774 C3758 1.368 . S
C3774 C3770 1.368 . S
C3774 C3773 1.523 . S
H3775 C3750 0.950 . S
H3776 C3752 0.950 . S
H3777 C3753 0.949 . S
H3778 C3755 0.950 . S
H3779 C3757 0.950 . S
C3780 C3781 1.349 . S
C3780 C3782 1.327 . S
C3780 H3805 0.950 . S
C3781 C3780 1.349 . S
C3781 C3797 1.349 . S
C3782 C3780 1.327 . S
C3782 C3801 1.429 . S
C3782 H3806 0.950 . S
C3783 C3800 1.574 . S
C3783 C3802 1.368 . S
C3783 H3807 0.949 . S
H3784 C3788 0.949 . S
C3785 C3786 1.349 . S
C3785 C3787 1.327 . S
C3785 H3808 0.950 . S
C3786 C3785 1.349 . S
C3786 C3798 1.349 . S
C3787 C3785 1.327 . S
C3787 C3803 1.429 . S
C3787 H3809 0.950 . S
C3788 H3784 0.949 . S
C3788 C3796 1.574 . S
C3788 C3804 1.368 . S
H3789 C3797 0.950 . S
H3790 C3795 0.950 . S
H3791 C3796 0.949 . S
H3792 C3798 0.950 . S
H3793 C3799 0.950 . S
H3794 C3800 0.949 . S
C3795 H3790 0.950 . S
C3795 C3797 1.327 . S
C3795 C3801 1.429 . S
C3796 C3788 1.574 . S
C3796 H3791 0.949 . S
C3796 C3802 1.368 . S
C3797 C3781 1.349 . S
C3797 H3789 0.950 . S
C3797 C3795 1.327 . S
C3798 C3786 1.349 . S
C3798 H3792 0.950 . S
C3798 C3799 1.327 . S
C3799 H3793 0.950 . S
C3799 C3798 1.327 . S
C3799 C3803 1.429 . S
C3800 C3783 1.574 . S
C3800 H3794 0.949 . S
C3800 C3804 1.368 . S
C3801 C3782 1.429 . S
C3801 C3795 1.429 . S
C3801 C3802 1.523 . S
C3802 C3783 1.368 . S
C3802 C3796 1.368 . S
C3802 C3801 1.523 . S
C3803 C3787 1.429 . S
C3803 C3799 1.429 . S
C3803 C3804 1.523 . S
C3804 C3788 1.368 . S
C3804 C3800 1.368 . S
C3804 C3803 1.523 . S
H3805 C3780 0.950 . S
H3806 C3782 0.950 . S
H3807 C3783 0.949 . S
H3808 C3785 0.950 . S
H3809 C3787 0.950 . S
C3810 C3811 1.349 . S
C3810 C3812 1.327 . S
C3810 H3835 0.950 . S
C3811 C3810 1.349 . S
C3811 C3827 1.349 . S
C3812 C3810 1.327 . S
C3812 C3831 1.429 . S
C3812 H3836 0.950 . S
C3813 C3830 1.574 . S
C3813 C3832 1.368 . S
C3813 H3837 0.949 . S
H3814 C3818 0.949 . S
C3815 C3816 1.349 . S
C3815 C3817 1.327 . S
C3815 H3838 0.950 . S
C3816 C3815 1.349 . S
C3816 C3828 1.349 . S
C3817 C3815 1.327 . S
C3817 C3833 1.429 . S
C3817 H3839 0.950 . S
C3818 H3814 0.949 . S
C3818 C3826 1.574 . S
C3818 C3834 1.368 . S
H3819 C3827 0.950 . S
H3820 C3825 0.950 . S
H3821 C3826 0.949 . S
H3822 C3828 0.950 . S
H3823 C3829 0.950 . S
H3824 C3830 0.949 . S
C3825 H3820 0.950 . S
C3825 C3827 1.327 . S
C3825 C3831 1.429 . S
C3826 C3818 1.574 . S
C3826 H3821 0.949 . S
C3826 C3832 1.368 . S
C3827 C3811 1.349 . S
C3827 H3819 0.950 . S
C3827 C3825 1.327 . S
C3828 C3816 1.349 . S
C3828 H3822 0.950 . S
C3828 C3829 1.327 . S
C3829 H3823 0.950 . S
C3829 C3828 1.327 . S
C3829 C3833 1.429 . S
C3830 C3813 1.574 . S
C3830 H3824 0.949 . S
C3830 C3834 1.368 . S
C3831 C3812 1.429 . S
C3831 C3825 1.429 . S
C3831 C3832 1.523 . S
C3832 C3813 1.368 . S
C3832 C3826 1.368 . S
C3832 C3831 1.523 . S
C3833 C3817 1.429 . S
C3833 C3829 1.429 . S
C3833 C3834 1.523 . S
C3834 C3818 1.368 . S
C3834 C3830 1.368 . S
C3834 C3833 1.523 . S
H3835 C3810 0.950 . S
H3836 C3812 0.950 . S
H3837 C3813 0.949 . S
H3838 C3815 0.950 . S
H3839 C3817 0.950 . S
C3840 C3841 1.349 . S
C3840 C3842 1.327 . S
C3840 H3865 0.950 . S
C3841 C3840 1.349 . S
C3841 C3857 1.349 . S
C3842 C3840 1.327 . S
C3842 C3861 1.429 . S
C3842 H3866 0.950 . S
C3843 C3860 1.574 . S
C3843 C3862 1.368 . S
C3843 H3867 0.949 . S
H3844 C3848 0.949 . S
C3845 C3846 1.349 . S
C3845 C3847 1.327 . S
C3845 H3868 0.950 . S
C3846 C3845 1.349 . S
C3846 C3858 1.349 . S
C3847 C3845 1.327 . S
C3847 C3863 1.429 . S
C3847 H3869 0.950 . S
C3848 H3844 0.949 . S
C3848 C3856 1.574 . S
C3848 C3864 1.368 . S
H3849 C3857 0.950 . S
H3850 C3855 0.950 . S
H3851 C3856 0.949 . S
H3852 C3858 0.950 . S
H3853 C3859 0.950 . S
H3854 C3860 0.949 . S
C3855 H3850 0.950 . S
C3855 C3857 1.327 . S
C3855 C3861 1.429 . S
C3856 C3848 1.574 . S
C3856 H3851 0.949 . S
C3856 C3862 1.368 . S
C3857 C3841 1.349 . S
C3857 H3849 0.950 . S
C3857 C3855 1.327 . S
C3858 C3846 1.349 . S
C3858 H3852 0.950 . S
C3858 C3859 1.327 . S
C3859 H3853 0.950 . S
C3859 C3858 1.327 . S
C3859 C3863 1.429 . S
C3860 C3843 1.574 . S
C3860 H3854 0.949 . S
C3860 C3864 1.368 . S
C3861 C3842 1.429 . S
C3861 C3855 1.429 . S
C3861 C3862 1.523 . S
C3862 C3843 1.368 . S
C3862 C3856 1.368 . S
C3862 C3861 1.523 . S
C3863 C3847 1.429 . S
C3863 C3859 1.429 . S
C3863 C3864 1.523 . S
C3864 C3848 1.368 . S
C3864 C3860 1.368 . S
C3864 C3863 1.523 . S
H3865 C3840 0.950 . S
H3866 C3842 0.950 . S
H3867 C3843 0.949 . S
H3868 C3845 0.950 . S
H3869 C3847 0.950 . S
C3870 C3871 1.349 . S
C3870 C3872 1.327 . S
C3870 H3895 0.950 . S
C3871 C3870 1.349 . S
C3871 C3887 1.349 . S
C3872 C3870 1.327 . S
C3872 C3891 1.429 . S
C3872 H3896 0.950 . S
C3873 C3890 1.574 . S
C3873 C3892 1.368 . S
C3873 H3897 0.949 . S
H3874 C3878 0.949 . S
C3875 C3876 1.349 . S
C3875 C3877 1.327 . S
C3875 H3898 0.950 . S
C3876 C3875 1.349 . S
C3876 C3888 1.349 . S
C3877 C3875 1.327 . S
C3877 C3893 1.429 . S
C3877 H3899 0.950 . S
C3878 H3874 0.949 . S
C3878 C3886 1.574 . S
C3878 C3894 1.368 . S
H3879 C3887 0.950 . S
H3880 C3885 0.950 . S
H3881 C3886 0.949 . S
H3882 C3888 0.950 . S
H3883 C3889 0.950 . S
H3884 C3890 0.949 . S
C3885 H3880 0.950 . S
C3885 C3887 1.327 . S
C3885 C3891 1.429 . S
C3886 C3878 1.574 . S
C3886 H3881 0.949 . S
C3886 C3892 1.368 . S
C3887 C3871 1.349 . S
C3887 H3879 0.950 . S
C3887 C3885 1.327 . S
C3888 C3876 1.349 . S
C3888 H3882 0.950 . S
C3888 C3889 1.327 . S
C3889 H3883 0.950 . S
C3889 C3888 1.327 . S
C3889 C3893 1.429 . S
C3890 C3873 1.574 . S
C3890 H3884 0.949 . S
C3890 C3894 1.368 . S
C3891 C3872 1.429 . S
C3891 C3885 1.429 . S
C3891 C3892 1.523 . S
C3892 C3873 1.368 . S
C3892 C3886 1.368 . S
C3892 C3891 1.523 . S
C3893 C3877 1.429 . S
C3893 C3889 1.429 . S
C3893 C3894 1.523 . S
C3894 C3878 1.368 . S
C3894 C3890 1.368 . S
C3894 C3893 1.523 . S
H3895 C3870 0.950 . S
H3896 C3872 0.950 . S
H3897 C3873 0.949 . S
H3898 C3875 0.950 . S
H3899 C3877 0.950 . S
C3900 C3901 1.349 . S
C3900 C3902 1.327 . S
C3900 H3925 0.950 . S
C3901 C3900 1.349 . S
C3901 C3917 1.349 . S
C3902 C3900 1.327 . S
C3902 C3921 1.429 . S
C3902 H3926 0.950 . S
C3903 C3920 1.574 . S
C3903 C3922 1.368 . S
C3903 H3927 0.949 . S
H3904 C3908 0.949 . S
C3905 C3906 1.349 . S
C3905 C3907 1.327 . S
C3905 H3928 0.950 . S
C3906 C3905 1.349 . S
C3906 C3918 1.349 . S
C3907 C3905 1.327 . S
C3907 C3923 1.429 . S
C3907 H3929 0.950 . S
C3908 H3904 0.949 . S
C3908 C3916 1.574 . S
C3908 C3924 1.368 . S
H3909 C3917 0.950 . S
H3910 C3915 0.950 . S
H3911 C3916 0.949 . S
H3912 C3918 0.950 . S
H3913 C3919 0.950 . S
H3914 C3920 0.949 . S
C3915 H3910 0.950 . S
C3915 C3917 1.327 . S
C3915 C3921 1.429 . S
C3916 C3908 1.574 . S
C3916 H3911 0.949 . S
C3916 C3922 1.368 . S
C3917 C3901 1.349 . S
C3917 H3909 0.950 . S
C3917 C3915 1.327 . S
C3918 C3906 1.349 . S
C3918 H3912 0.950 . S
C3918 C3919 1.327 . S
C3919 H3913 0.950 . S
C3919 C3918 1.327 . S
C3919 C3923 1.429 . S
C3920 C3903 1.574 . S
C3920 H3914 0.949 . S
C3920 C3924 1.368 . S
C3921 C3902 1.429 . S
C3921 C3915 1.429 . S
C3921 C3922 1.523 . S
C3922 C3903 1.368 . S
C3922 C3916 1.368 . S
C3922 C3921 1.523 . S
C3923 C3907 1.429 . S
C3923 C3919 1.429 . S
C3923 C3924 1.523 . S
C3924 C3908 1.368 . S
C3924 C3920 1.368 . S
C3924 C3923 1.523 . S
H3925 C3900 0.950 . S
H3926 C3902 0.950 . S
H3927 C3903 0.949 . S
H3928 C3905 0.950 . S
H3929 C3907 0.950 . S
C3930 C3931 1.349 1_556 S
C3930 C3932 1.327 . S
C3930 H3955 0.950 . S
C3931 C3930 1.349 1_554 S
C3931 C3947 1.349 . S
C3932 C3930 1.327 . S
C3932 C3951 1.429 1_556 S
C3932 H3956 0.950 . S
C3933 C3950 1.574 . S
C3933 C3952 1.368 . S
C3933 H3957 0.949 . S
H3934 C3938 0.949 . S
C3935 C3936 1.349 1_554 S
C3935 C3937 1.327 . S
C3935 H3958 0.950 . S
C3936 C3935 1.349 1_556 S
C3936 C3948 1.349 . S
C3937 C3935 1.327 . S
C3937 C3953 1.429 1_554 S
C3937 H3959 0.950 . S
C3938 H3934 0.949 . S
C3938 C3946 1.574 . S
C3938 C3954 1.368 . S
H3939 C3947 0.950 . S
H3940 C3945 0.950 . S
H3941 C3946 0.949 . S
H3942 C3948 0.950 . S
H3943 C3949 0.950 . S
H3944 C3950 0.949 . S
C3945 H3940 0.950 . S
C3945 C3947 1.327 . S
C3945 C3951 1.429 . S
C3946 C3938 1.574 . S
C3946 H3941 0.949 . S
C3946 C3952 1.368 1_556 S
C3947 C3931 1.349 . S
C3947 H3939 0.950 . S
C3947 C3945 1.327 . S
C3948 C3936 1.349 . S
C3948 H3942 0.950 . S
C3948 C3949 1.327 . S
C3949 H3943 0.950 . S
C3949 C3948 1.327 . S
C3949 C3953 1.429 . S
C3950 C3933 1.574 . S
C3950 H3944 0.949 . S
C3950 C3954 1.368 1_554 S
C3951 C3932 1.429 1_554 S
C3951 C3945 1.429 . S
C3951 C3952 1.523 . S
C3952 C3933 1.368 . S
C3952 C3946 1.368 1_554 S
C3952 C3951 1.523 . S
C3953 C3937 1.429 1_556 S
C3953 C3949 1.429 . S
C3953 C3954 1.523 . S
C3954 C3938 1.368 . S
C3954 C3950 1.368 1_556 S
C3954 C3953 1.523 . S
H3955 C3930 0.950 . S
H3956 C3932 0.950 . S
H3957 C3933 0.949 . S
H3958 C3935 0.950 . S
H3959 C3937 0.950 . S
C3960 C3961 1.349 . S
C3960 C3962 1.327 . S
C3960 H3985 0.950 . S
C3961 C3960 1.349 . S
C3961 C3977 1.349 . S
C3962 C3960 1.327 . S
C3962 C3981 1.429 . S
C3962 H3986 0.950 . S
C3963 C3980 1.574 . S
C3963 C3982 1.368 . S
C3963 H3987 0.949 . S
H3964 C3968 0.949 . S
C3965 C3966 1.349 . S
C3965 C3967 1.327 . S
C3965 H3988 0.950 . S
C3966 C3965 1.349 . S
C3966 C3978 1.349 . S
C3967 C3965 1.327 . S
C3967 C3983 1.429 . S
C3967 H3989 0.950 . S
C3968 H3964 0.949 . S
C3968 C3976 1.574 . S
C3968 C3984 1.368 . S
H3969 C3977 0.950 . S
H3970 C3975 0.950 . S
H3971 C3976 0.949 . S
H3972 C3978 0.950 . S
H3973 C3979 0.950 . S
H3974 C3980 0.949 . S
C3975 H3970 0.950 . S
C3975 C3977 1.327 . S
C3975 C3981 1.429 . S
C3976 C3968 1.574 . S
C3976 H3971 0.949 . S
C3976 C3982 1.368 . S
C3977 C3961 1.349 . S
C3977 H3969 0.950 . S
C3977 C3975 1.327 . S
C3978 C3966 1.349 . S
C3978 H3972 0.950 . S
C3978 C3979 1.327 . S
C3979 H3973 0.950 . S
C3979 C3978 1.327 . S
C3979 C3983 1.429 . S
C3980 C3963 1.574 . S
C3980 H3974 0.949 . S
C3980 C3984 1.368 . S
C3981 C3962 1.429 . S
C3981 C3975 1.429 . S
C3981 C3982 1.523 . S
C3982 C3963 1.368 . S
C3982 C3976 1.368 . S
C3982 C3981 1.523 . S
C3983 C3967 1.429 . S
C3983 C3979 1.429 . S
C3983 C3984 1.523 . S
C3984 C3968 1.368 . S
C3984 C3980 1.368 . S
C3984 C3983 1.523 . S
H3985 C3960 0.950 . S
H3986 C3962 0.950 . S
H3987 C3963 0.949 . S
H3988 C3965 0.950 . S
H3989 C3967 0.950 . S
C3990 C3991 1.349 1_556 S
C3990 C3992 1.327 . S
C3990 H4015 0.950 . S
C3991 C3990 1.349 1_554 S
C3991 C4007 1.349 . S
C3992 C3990 1.327 . S
C3992 C4011 1.429 1_556 S
C3992 H4016 0.950 . S
C3993 C4010 1.574 . S
C3993 C4012 1.368 . S
C3993 H4017 0.949 . S
H3994 C3998 0.949 . S
C3995 C3996 1.349 . S
C3995 C3997 1.327 . S
C3995 H4018 0.950 . S
C3996 C3995 1.349 . S
C3996 C4008 1.349 1_554 S
C3997 C3995 1.327 . S
C3997 C4013 1.429 . S
C3997 H4019 0.950 . S
C3998 H3994 0.949 . S
C3998 C4006 1.574 . S
C3998 C4014 1.368 1_556 S
H3999 C4007 0.950 . S
H4000 C4005 0.950 . S
H4001 C4006 0.949 . S
H4002 C4008 0.950 . S
H4003 C4009 0.950 . S
H4004 C4010 0.949 . S
C4005 H4000 0.950 . S
C4005 C4007 1.327 . S
C4005 C4011 1.429 . S
C4006 C3998 1.574 . S
C4006 H4001 0.949 . S
C4006 C4012 1.368 1_556 S
C4007 C3991 1.349 . S
C4007 H3999 0.950 . S
C4007 C4005 1.327 . S
C4008 C3996 1.349 1_556 S
C4008 H4002 0.950 . S
C4008 C4009 1.327 . S
C4009 H4003 0.950 . S
C4009 C4008 1.327 . S
C4009 C4013 1.429 1_556 S
C4010 C3993 1.574 . S
C4010 H4004 0.949 . S
C4010 C4014 1.368 . S
C4011 C3992 1.429 1_554 S
C4011 C4005 1.429 . S
C4011 C4012 1.523 . S
C4012 C3993 1.368 . S
C4012 C4006 1.368 1_554 S
C4012 C4011 1.523 . S
C4013 C3997 1.429 . S
C4013 C4009 1.429 1_554 S
C4013 C4014 1.523 . S
C4014 C3998 1.368 1_554 S
C4014 C4010 1.368 . S
C4014 C4013 1.523 . S
H4015 C3990 0.950 . S
H4016 C3992 0.950 . S
H4017 C3993 0.949 . S
H4018 C3995 0.950 . S
H4019 C3997 0.950 . S
C4020 C4021 1.349 . S
C4020 C4022 1.327 . S
C4020 H4045 0.950 . S
C4021 C4020 1.349 . S
C4021 C4037 1.349 . S
C4022 C4020 1.327 . S
C4022 C4041 1.429 . S
C4022 H4046 0.950 . S
C4023 C4040 1.574 . S
C4023 C4042 1.368 . S
C4023 H4047 0.949 . S
H4024 C4028 0.949 . S
C4025 C4026 1.349 . S
C4025 C4027 1.327 . S
C4025 H4048 0.950 . S
C4026 C4025 1.349 . S
C4026 C4038 1.349 . S
C4027 C4025 1.327 . S
C4027 C4043 1.429 . S
C4027 H4049 0.950 . S
C4028 H4024 0.949 . S
C4028 C4036 1.574 . S
C4028 C4044 1.368 . S
H4029 C4037 0.950 . S
H4030 C4035 0.950 . S
H4031 C4036 0.949 . S
H4032 C4038 0.950 . S
H4033 C4039 0.950 . S
H4034 C4040 0.949 . S
C4035 H4030 0.950 . S
C4035 C4037 1.327 . S
C4035 C4041 1.429 . S
C4036 C4028 1.574 . S
C4036 H4031 0.949 . S
C4036 C4042 1.368 . S
C4037 C4021 1.349 . S
C4037 H4029 0.950 . S
C4037 C4035 1.327 . S
C4038 C4026 1.349 . S
C4038 H4032 0.950 . S
C4038 C4039 1.327 . S
C4039 H4033 0.950 . S
C4039 C4038 1.327 . S
C4039 C4043 1.429 . S
C4040 C4023 1.574 . S
C4040 H4034 0.949 . S
C4040 C4044 1.368 . S
C4041 C4022 1.429 . S
C4041 C4035 1.429 . S
C4041 C4042 1.523 . S
C4042 C4023 1.368 . S
C4042 C4036 1.368 . S
C4042 C4041 1.523 . S
C4043 C4027 1.429 . S
C4043 C4039 1.429 . S
C4043 C4044 1.523 . S
C4044 C4028 1.368 . S
C4044 C4040 1.368 . S
C4044 C4043 1.523 . S
H4045 C4020 0.950 . S
H4046 C4022 0.950 . S
H4047 C4023 0.949 . S
H4048 C4025 0.950 . S
H4049 C4027 0.950 . S
C4050 C4051 1.349 . S
C4050 C4052 1.327 . S
C4050 H4075 0.950 . S
C4051 C4050 1.349 . S
C4051 C4067 1.349 . S
C4052 C4050 1.327 . S
C4052 C4071 1.429 . S
C4052 H4076 0.950 . S
C4053 C4070 1.574 . S
C4053 C4072 1.368 . S
C4053 H4077 0.949 . S
H4054 C4058 0.949 . S
C4055 C4056 1.349 . S
C4055 C4057 1.327 . S
C4055 H4078 0.950 . S
C4056 C4055 1.349 . S
C4056 C4068 1.349 . S
C4057 C4055 1.327 . S
C4057 C4073 1.429 . S
C4057 H4079 0.950 . S
C4058 H4054 0.949 . S
C4058 C4066 1.574 . S
C4058 C4074 1.368 . S
H4059 C4067 0.950 . S
H4060 C4065 0.950 . S
H4061 C4066 0.949 . S
H4062 C4068 0.950 . S
H4063 C4069 0.950 . S
H4064 C4070 0.949 . S
C4065 H4060 0.950 . S
C4065 C4067 1.327 . S
C4065 C4071 1.429 . S
C4066 C4058 1.574 . S
C4066 H4061 0.949 . S
C4066 C4072 1.368 . S
C4067 C4051 1.349 . S
C4067 H4059 0.950 . S
C4067 C4065 1.327 . S
C4068 C4056 1.349 . S
C4068 H4062 0.950 . S
C4068 C4069 1.327 . S
C4069 H4063 0.950 . S
C4069 C4068 1.327 . S
C4069 C4073 1.429 . S
C4070 C4053 1.574 . S
C4070 H4064 0.949 . S
C4070 C4074 1.368 . S
C4071 C4052 1.429 . S
C4071 C4065 1.429 . S
C4071 C4072 1.523 . S
C4072 C4053 1.368 . S
C4072 C4066 1.368 . S
C4072 C4071 1.523 . S
C4073 C4057 1.429 . S
C4073 C4069 1.429 . S
C4073 C4074 1.523 . S
C4074 C4058 1.368 . S
C4074 C4070 1.368 . S
C4074 C4073 1.523 . S
H4075 C4050 0.950 . S
H4076 C4052 0.950 . S
H4077 C4053 0.949 . S
H4078 C4055 0.950 . S
H4079 C4057 0.950 . S
C1206 C880 1.164 . S
C1201 C2 1.262 . S
C1231 C39 1.020 . S
C1236 C900 0.996 . S
C1261 C86 1.097 . S
C1266 C922 1.044 . S
C1296 C941 1.161 . S
C1291 C112 1.182 . S
C1321 C38 1.275 . S
C1326 C962 1.255 . S
C1356 C985 1.111 . S
C1351 C76 1.196 . S
C1386 C1008 1.028 . S
C1381 C122 1.034 . S
C1411 C3 1.206 . S
C1416 C1026 1.171 . S
C1441 C147 1.212 . S
C1446 C882 1.178 . S
C1471 C184 1.256 . S
C1476 C902 1.233 . S
C1506 C924 1.074 . S
C1501 C219 1.100 . S
C1536 C943 1.189 . S
C1531 C256 1.290 . S
C1561 C148 1.291 . S
C1566 C964 1.194 . S
C1596 C987 1.033 . S
C1591 C183 1.056 . S
C1626 C1004 1.241 . S
C1621 C220 1.266 . S
C1656 C1028 1.171 . S
C1651 C255 1.197 . S
C1686 C878 1.254 1_556 S
C1681 C254 1.275 . S
C1716 C1050 1.048 . S
C1711 C302 1.053 1_554 S
C1741 C326 1.280 . S
C1746 C1067 1.261 . S
C1776 C1090 1.223 . S
C1771 C374 1.299 . S
C1801 C146 1.259 . S
C1806 C1024 1.161 . S
C1836 C920 1.295 . S
C1831 C182 1.315 . S
C1861 C338 1.036 . S
C1866 C1113 1.031 . S
C1896 C1129 1.111 . S
C1891 C410 1.175 . S
C1921 C434 1.263 . S
C1926 C877 1.168 . S
C1956 C1130 1.145 . S
C1951 C472 1.168 . S
C1981 C507 1.253 . S
C1986 C919 1.156 . S
C2011 C543 1.081 . S
C2016 C1110 1.056 . S
C2046 C963 1.154 . S
C2041 C470 1.181 . S
C2076 C1066 1.190 . S
C2071 C518 1.254 . S
C2106 C1007 1.223 . S
C2101 C554 1.208 . S
C2136 C1151 1.220 . S
C2131 C436 1.244 . S
C2166 C881 1.310 . S
C2161 C580 1.332 . S
C2191 C615 1.165 . S
C2196 C1134 1.131 . S
C2226 C923 1.200 . S
C2221 C652 1.221 . S
C2251 C687 1.271 . S
C2256 C1108 1.172 . S
C2281 C579 1.319 1_565 S
C2286 C961 1.209 . S
C2311 C616 1.299 . S
C2316 C1070 1.273 . S
C2346 C1005 1.110 . S
C2341 C651 1.142 . S
C2371 C688 1.199 . S
C2376 C1155 1.167 . S
C2401 C686 1.282 . S
C2406 C879 1.252 . S
C2431 C734 1.282 . S
C2436 C1049 1.293 . S
C2461 C758 1.172 . S
C2466 C984 1.145 . S
C2491 C806 1.276 . S
C2496 C1087 1.215 . S
C2526 C1153 1.147 . S
C2521 C578 1.242 . S
C2556 C921 1.202 . S
C2551 C614 1.230 . S
C2586 C944 1.229 . S
C2581 C770 1.215 . S
C2616 C901 1.202 . S
C2611 C842 1.262 . S
C2641 C74 1.186 . S
C2646 C1174 1.099 . S
C2676 C1131 0.995 . S
C2671 C111 1.018 . S
C2706 C1195 1.107 . S
C2701 C14 1.168 1_455 S
C2731 C40 1.184 . S
C2736 C1109 1.162 . S
C2761 C110 1.276 . S
C2766 C1046 1.257 . S
C2796 C1069 1.172 . S
C2791 C4 1.268 . S
C2826 C1092 1.027 . S
C2821 C50 1.023 1_455 S
C2856 C1152 1.103 . S
C2851 C75 1.134 . S
C2886 C1176 1.176 . S
C2881 C399 1.211 . S
C2911 C292 1.259 . S
C2916 C1133 1.236 . S
C2941 C327 1.092 . S
C2946 C1197 1.066 . S
C2976 C1111 1.185 . S
C2971 C364 1.285 . S
C3006 C1048 1.189 . S
C3001 C400 1.286 . S
C3031 C291 1.048 . S
C3036 C1071 1.026 . S
C3066 C1088 1.243 . S
C3061 C328 1.269 . S
C3091 C363 1.196 . S
C3096 C1154 1.170 . S
C3126 C1172 1.235 . S
C3121 C362 1.256 . S
C3156 C966 1.055 . S
C3151 C194 1.060 . S
C3186 C983 1.230 . S
C3181 C218 1.248 . S
C3211 C266 1.280 1_554 S
C3216 C1006 1.205 . S
C3246 C1150 1.141 . S
C3241 C398 1.237 . S
C3271 C290 1.345 . S
C3276 C1193 1.325 . S
C3306 C945 1.038 . S
C3301 C230 1.044 . S
C3336 C898 1.093 . S
C3331 C158 1.155 . S
C3361 C508 1.161 . S
C3366 C1171 1.075 . S
C3396 C899 1.148 . S
C3391 C544 1.172 . S
C3426 C1192 1.221 . S
C3421 C446 1.281 . S
C3451 C471 1.087 . S
C3456 C942 1.062 . S
C3481 C542 1.175 . S
C3486 C1047 1.148 . S
C3511 C435 1.220 . S
C3516 C982 1.126 . S
C3541 C482 1.204 1_455 S
C3546 C1091 1.220 . S
C3571 C506 1.346 . S
C3576 C1025 1.328 . S
C3606 C1175 1.291 . S
C3601 C832 1.309 . S
C3631 C723 1.145 . S
C3636 C903 1.111 . S
C3666 C1196 1.219 . S
C3661 C760 1.241 . S
C3691 C795 1.280 . S
C3696 C940 1.180 . S
C3721 C831 1.309 . S
C3726 C1045 1.202 . S
C3756 C986 1.255 . S
C3751 C724 1.279 . S
C3781 C759 1.162 . S
C3786 C1089 1.130 . S
C3816 C1029 1.194 . S
C3811 C796 1.226 . S
C3846 C1173 1.252 . S
C3841 C794 1.279 . S
C3876 C965 1.306 . S
C3871 C626 1.295 . S
C3901 C650 1.160 . S
C3906 C1068 1.133 . S
C3936 C1003 1.202 . S
C3931 C698 1.260 . S
C3966 C1027 1.147 . S
C3961 C830 1.242 . S
C3991 C722 1.218 . S
C3996 C1194 1.190 . S
C4026 C1112 1.216 . S
C4021 C662 1.202 . S
C4056 C1132 1.216 . S
C4051 C590 1.278 . S
