# Generated by pormake.
# Topology zzz, (3,6)-cn, num edge types: 1
# Building blocks:
#     Node 0, Type 0, BuildingBlock: OLANEW_clean_sbu_2, # of connection points: 3
#     Node 1, Type 0, BuildingBlock: OLANEW_clean_sbu_2, # of connection points: 3
#     Node 2, Type 0, BuildingBlock: OLANEW_clean_sbu_2, # of connection points: 3
#     Node 3, Type 0, BuildingBlock: OLANEW_clean_sbu_2, # of connection points: 3
#     Node 4, Type 0, BuildingBlock: OLANEW_clean_sbu_2, # of connection points: 3
#     Node 5, Type 0, BuildingBlock: OLANEW_clean_sbu_2, # of connection points: 3
#     Node 6, Type 0, BuildingBlock: OLANEW_clean_sbu_2, # of connection points: 3
#     Node 7, Type 0, BuildingBlock: OLANEW_clean_sbu_2, # of connection points: 3
#     Node 8, Type 1, BuildingBlock: VOLQOD_clean_sbu_1, # of connection points: 6
#     Node 9, Type 1, BuildingBlock: VOLQOD_clean_sbu_1, # of connection points: 6
#     Node 10, Type 1, BuildingBlock: VOLQOD_clean_sbu_1, # of connection points: 6
#     Node 11, Type 1, BuildingBlock: VOLQOD_clean_sbu_1, # of connection points: 6
#     Edge 12, Type (0, 1), BuildingBlock: TEMPAE_clean_linker_10, # of connection points: 2
#     Edge 13, Type (0, 1), BuildingBlock: TEMPAE_clean_linker_10, # of connection points: 2
#     Edge 14, Type (0, 1), BuildingBlock: TEMPAE_clean_linker_10, # of connection points: 2
#     Edge 15, Type (0, 1), BuildingBlock: TEMPAE_clean_linker_10, # of connection points: 2
#     Edge 16, Type (0, 1), BuildingBlock: TEMPAE_clean_linker_10, # of connection points: 2
#     Edge 17, Type (0, 1), BuildingBlock: TEMPAE_clean_linker_10, # of connection points: 2
#     Edge 18, Type (0, 1), BuildingBlock: TEMPAE_clean_linker_10, # of connection points: 2
#     Edge 19, Type (0, 1), BuildingBlock: TEMPAE_clean_linker_10, # of connection points: 2
#     Edge 20, Type (0, 1), BuildingBlock: TEMPAE_clean_linker_10, # of connection points: 2
#     Edge 21, Type (0, 1), BuildingBlock: TEMPAE_clean_linker_10, # of connection points: 2
#     Edge 22, Type (0, 1), BuildingBlock: TEMPAE_clean_linker_10, # of connection points: 2
#     Edge 23, Type (0, 1), BuildingBlock: TEMPAE_clean_linker_10, # of connection points: 2
#     Edge 24, Type (0, 1), BuildingBlock: TEMPAE_clean_linker_10, # of connection points: 2
#     Edge 25, Type (0, 1), BuildingBlock: TEMPAE_clean_linker_10, # of connection points: 2
#     Edge 26, Type (0, 1), BuildingBlock: TEMPAE_clean_linker_10, # of connection points: 2
#     Edge 27, Type (0, 1), BuildingBlock: TEMPAE_clean_linker_10, # of connection points: 2
#     Edge 28, Type (0, 1), BuildingBlock: TEMPAE_clean_linker_10, # of connection points: 2
#     Edge 29, Type (0, 1), BuildingBlock: TEMPAE_clean_linker_10, # of connection points: 2
#     Edge 30, Type (0, 1), BuildingBlock: TEMPAE_clean_linker_10, # of connection points: 2
#     Edge 31, Type (0, 1), BuildingBlock: TEMPAE_clean_linker_10, # of connection points: 2
#     Edge 32, Type (0, 1), BuildingBlock: TEMPAE_clean_linker_10, # of connection points: 2
#     Edge 33, Type (0, 1), BuildingBlock: TEMPAE_clean_linker_10, # of connection points: 2
#     Edge 34, Type (0, 1), BuildingBlock: TEMPAE_clean_linker_10, # of connection points: 2
#     Edge 35, Type (0, 1), BuildingBlock: TEMPAE_clean_linker_10, # of connection points: 2
# Relax obj value: 0.182
# Max RMSD: 0.232
# Mean RMSD: 0.108
data_MOF--net-zzz--node1-OLANEW_clean_sbu_2--node2-VOLQOD_clean_sbu_1--edge1-TEMPAE_clean_linker_10
_symmetry_space_group_name_H-M    P1
_symmetry_Int_Tables_number       1
_symmetry_cell_setting            triclinic
loop_
_symmetry_equiv_pos_as_xyz
'x, y, z'
_cell_length_a     54.410824
_cell_length_b     53.970783
_cell_length_c     19.249068
_cell_angle_alpha  90.123701
_cell_angle_beta   89.889296
_cell_angle_gamma 91.135864
loop_
_atom_site_label
_atom_site_type_symbol
_atom_site_fract_x
_atom_site_fract_y
_atom_site_fract_z
_atom_type_partial_charge
O0 O 0.79488 0.52641 0.06834 0.0
Cd1 Cd 0.76468 0.55018 0.132 0.0
O2 O 0.7847 0.49073 0.11598 0.0
Cd3 Cd 0.76934 0.51129 0.20296 0.0
O4 O 0.79094 0.52756 0.28758 0.0
C5 C 0.81021 0.53947 0.26865 0.0
O6 O 0.81379 0.54334 0.20202 0.0
C7 C 0.79664 0.50297 0.07029 0.0
C8 C 0.72009 0.54066 0.06636 0.0
O9 O 0.72568 0.52911 0.12206 0.0
O10 O 0.73515 0.55727 0.04345 0.0
O11 O 0.94794 0.78658 0.04764 0.0
Cd12 Cd 0.92635 0.75462 0.11415 0.0
O13 O 0.98201 0.77474 0.09717 0.0
Cd14 Cd 0.01966 0.78308 0.13041 0.0
O15 O 0.04044 0.81172 0.18602 0.0
C16 C 0.03193 0.8332 0.17657 0.0
O17 O 0.01342 0.83561 0.13373 0.0
C18 C 0.97103 0.78907 0.05556 0.0
C19 C 0.93834 0.70886 0.05944 0.0
O20 O 0.91906 0.72005 0.03929 0.0
O21 O 0.95161 0.71912 0.10678 0.0
O22 O 0.7153 0.96705 0.83924 0.0
Cd23 Cd 0.74736 0.93658 0.83237 0.0
O24 O 0.71821 0.96684 0.9526 0.0
Cd25 Cd 0.70379 0.9727 0.05676 0.0
O26 O 0.68278 0.97174 0.15279 0.0
C27 C 0.67768 0.9915 0.18518 0.0
O28 O 0.68582 0.01286 0.16082 0.0
C29 C 0.7078 0.97458 0.89794 0.0
C30 C 0.79363 0.95858 0.82113 0.0
O31 O 0.78044 0.95428 0.76717 0.0
O32 O 0.78478 0.95259 0.88068 0.0
O33 O 0.5775 0.72204 0.05814 0.0
Cd34 Cd 0.5917 0.75719 0.12772 0.0
O35 O 0.54484 0.72547 0.1237 0.0
Cd36 Cd 0.51195 0.70842 0.16906 0.0
O37 O 0.50058 0.67439 0.22086 0.0
C38 C 0.51449 0.65615 0.20966 0.0
O39 O 0.53312 0.65909 0.16682 0.0
C40 C 0.55603 0.71451 0.07475 0.0
C41 C 0.57295 0.79975 0.06974 0.0
O42 O 0.55956 0.78575 0.10862 0.0
O43 O 0.59541 0.79399 0.05964 0.0
O44 O 0.21664 0.60894 0.44294 0.0
Cd45 Cd 0.25861 0.61669 0.40429 0.0
O46 O 0.21591 0.57945 0.36464 0.0
Cd47 Cd 0.19991 0.54741 0.30994 0.0
O48 O 0.17765 0.52448 0.23982 0.0
C49 C 0.16689 0.53626 0.19201 0.0
O50 O 0.1702 0.56042 0.18867 0.0
C51 C 0.20511 0.59132 0.41265 0.0
C52 C 0.29113 0.59155 0.48893 0.0
O53 O 0.28729 0.61467 0.4983 0.0
O54 O 0.27973 0.5804 0.43938 0.0
O55 O 0.97653 0.2097 0.30449 0.0
Cd56 Cd 0.97167 0.24647 0.23409 0.0
O57 O 0.01655 0.21476 0.29535 0.0
Cd58 Cd 0.05277 0.19825 0.30465 0.0
O59 O 0.06868 0.16331 0.27297 0.0
C60 C 0.08275 0.1628 0.22033 0.0
O61 O 0.08983 0.1839 0.19199 0.0
C62 C 0.99805 0.20286 0.31963 0.0
C63 C 0.98516 0.28647 0.31704 0.0
O64 O 0.96339 0.27702 0.31922 0.0
O65 O 0.00054 0.27748 0.27372 0.0
O66 O 0.30082 0.95725 0.26736 0.0
Cd67 Cd 0.26324 0.97041 0.21224 0.0
O68 O 0.30024 0.99362 0.3191 0.0
Cd69 Cd 0.28287 0.01295 0.23333 0.0
O70 O 0.30335 0.03462 0.1567 0.0
C71 C 0.30186 0.0308 0.09175 0.0
O72 O 0.28511 0.01504 0.06832 0.0
C73 C 0.30829 0.97167 0.31556 0.0
C74 C 0.23158 0.97458 0.32485 0.0
O75 O 0.23052 0.95531 0.28588 0.0
O76 O 0.24635 0.99231 0.3081 0.0
O77 O 0.4982 0.2875 0.31337 0.0
Cd78 Cd 0.48631 0.25659 0.22676 0.0
O79 O 0.46467 0.27917 0.37327 0.0
Cd80 Cd 0.44608 0.27032 0.27611 0.0
O81 O 0.44096 0.29933 0.19907 0.0
C82 C 0.44156 0.32103 0.22502 0.0
O83 O 0.4435 0.32342 0.29276 0.0
C84 C 0.48592 0.28932 0.3694 0.0
C85 C 0.48613 0.21162 0.29722 0.0
O86 O 0.50554 0.21976 0.26632 0.0
O87 O 0.46652 0.22422 0.29206 0.0
O88 O 0.09884 0.98575 0.73329 0.0
Zn89 Zn 0.06513 0.98586 0.78089 0.0
O90 O 0.03975 0.99553 0.71405 0.0
Zn91 Zn 0.02029 0.02297 0.74742 0.0
Zn92 Zn 0.05545 0.00534 0.62856 0.0
Zn93 Zn 0.01826 0.9678 0.69347 0.0
O94 O 0.98505 0.01218 0.76507 0.0
O95 O 0.9832 0.97574 0.71133 0.0
O96 O 0.06655 0.0113 0.85871 0.0
O97 O 0.03553 0.03624 0.83513 0.0
O98 O 0.01895 0.05064 0.67642 0.0
O99 O 0.04237 0.03673 0.59108 0.0
O100 O 0.05206 0.97922 0.55466 0.0
O101 O 0.05723 0.95162 0.82212 0.0
O102 O 0.02276 0.95464 0.59753 0.0
O103 O 0.02569 0.93997 0.75582 0.0
C104 C 0.10614 0.99862 0.68132 0.0
C105 C 0.97283 0.99327 0.74374 0.0
C106 C 0.02833 0.05306 0.61604 0.0
C107 C 0.0536 0.03011 0.87315 0.0
C108 C 0.03778 0.9604 0.54927 0.0
C109 C 0.0409 0.93558 0.80395 0.0
O110 O 0.09105 0.00982 0.64277 0.0
O111 O 0.50021 0.06227 0.66714 0.0
Zn112 Zn 0.50209 0.03599 0.74233 0.0
O113 O 0.50365 0.00261 0.70029 0.0
Zn114 Zn 0.47849 0.98063 0.73958 0.0
Zn115 Zn 0.49959 0.00468 0.60088 0.0
Zn116 Zn 0.53508 0.98779 0.71681 0.0
O117 O 0.49311 0.95281 0.79436 0.0
O118 O 0.53178 0.95367 0.75692 0.0
O119 O 0.47095 0.0387 0.8003 0.0
O120 O 0.45672 -0.00023 0.80241 0.0
O121 O 0.4567 0.96587 0.66454 0.0
O122 O 0.47181 0.98308 0.56858 0.0
O123 O 0.53005 0.99565 0.54893 0.0
O124 O 0.5319 0.04275 0.80505 0.0
O125 O 0.55658 0.98668 0.63173 0.0
O126 O 0.55242 0.00792 0.78782 0.0
C127 C 0.49519 0.06046 0.60256 0.0
C128 C 0.51435 0.94342 0.79111 0.0
C129 C 0.45637 0.96874 0.59886 0.0
C130 C 0.45524 0.02238 0.8205 0.0
C131 C 0.55152 0.98975 0.56788 0.0
C132 C 0.54989 0.02868 0.81795 0.0
O133 O 0.49307 0.03945 0.5729 0.0
O134 O 0.44071 0.51356 0.76933 0.0
Zn135 Zn 0.47318 0.50848 0.81916 0.0
O136 O 0.49854 0.49954 0.75131 0.0
Zn137 Zn 0.51771 0.4718 0.78393 0.0
Zn138 Zn 0.48373 0.49086 0.66334 0.0
Zn139 Zn 0.52004 0.52778 0.73666 0.0
O140 O 0.55204 0.48281 0.81295 0.0
O141 O 0.5529 0.52206 0.77829 0.0
O142 O 0.46874 0.48079 0.88993 0.0
O143 O 0.5008 0.45712 0.86694 0.0
O144 O 0.51868 0.44416 0.71253 0.0
O145 O 0.48969 0.45563 0.6388 0.0
O146 O 0.49719 0.51152 0.58516 0.0
O147 O 0.48233 0.54131 0.86707 0.0
O148 O 0.5234 0.53742 0.63678 0.0
O149 O 0.50784 0.55698 0.78752 0.0
C150 C 0.43362 0.50806 0.70796 0.0
C151 C 0.56302 0.50381 0.80757 0.0
C152 C 0.50507 0.43984 0.65984 0.0
C153 C 0.4817 0.46185 0.90254 0.0
C154 C 0.51269 0.52942 0.58229 0.0
C155 C 0.49491 0.55943 0.84202 0.0
O156 O 0.44801 0.49806 0.66444 0.0
O157 O 0.9685 0.53175 0.60588 0.0
Zn158 Zn 0.99669 0.528 0.67368 0.0
O159 O 0.99683 0.49468 0.71519 0.0
Zn160 Zn 0.99177 0.49693 0.81483 0.0
Zn161 Zn 0.97011 0.47485 0.67611 0.0
Zn162 Zn 0.02819 0.47843 0.69777 0.0
O163 O 0.02142 0.48659 0.86744 0.0
O164 O 0.04744 0.47372 0.78688 0.0
O165 O 0.99185 0.55411 0.74715 0.0
O166 O 0.98564 0.53198 0.84282 0.0
O167 O 0.96231 0.47729 0.84635 0.0
O168 O 0.9458 0.46308 0.74866 0.0
O169 O 0.98322 0.44599 0.62495 0.0
O170 O 0.0287 0.53521 0.62346 0.0
O171 O 0.02341 0.44584 0.64595 0.0
O172 O 0.04941 0.50052 0.6378 0.0
C173 C 0.95199 0.5164 0.58521 0.0
C174 C 0.04222 0.47811 0.85027 0.0
C175 C 0.94533 0.46542 0.81446 0.0
C176 C 0.98681 0.55273 0.81168 0.0
C177 C 0.00421 0.43635 0.61785 0.0
C178 C 0.04775 0.52231 0.61316 0.0
O179 O 0.951 0.49428 0.6077 0.0
C180 C 0.22702 0.98748 0.44805 0.0
C181 C 0.2169 0.97615 0.3888 0.0
C182 C 0.21314 0.98992 0.50901 0.0
C183 C 0.18828 0.98178 0.50941 0.0
C184 C 0.17821 0.96965 0.45016 0.0
C185 C 0.19285 0.96658 0.39084 0.0
C186 C 0.2248 0.00199 0.57198 0.0
C187 C 0.15159 0.96115 0.44796 0.0
C188 C 0.14538 0.97601 0.66388 0.0
C189 C 0.13163 0.99748 0.65549 0.0
C190 C 0.16564 0.9715 0.62049 0.0
C191 C 0.17179 0.98872 0.56745 0.0
C192 C 0.15959 0.01158 0.56414 0.0
C193 C 0.1399 0.0158 0.60897 0.0
C194 C 0.179 0.94742 0.62753 0.0
C195 C 0.16548 0.03047 0.50838 0.0
H196 H 0.24586 0.99442 0.44671 0.0
H197 H 0.18515 0.95772 0.34496 0.0
H198 H 0.21807 0.02114 0.57773 0.0
H199 H 0.21966 0.99171 0.6199 0.0
H200 H 0.24517 0.0029 0.56777 0.0
H201 H 0.1469 0.95124 0.39896 0.0
H202 H 0.14739 0.94868 0.49229 0.0
H203 H 0.13952 0.97741 0.45286 0.0
H204 H 0.13916 0.96184 0.70007 0.0
H205 H 0.12955 0.03265 0.6033 0.0
H206 H 0.19903 0.95022 0.61877 0.0
H207 H 0.17209 0.9341 0.58782 0.0
H208 H 0.17605 0.93901 0.67959 0.0
H209 H 0.18549 0.03465 0.50649 0.0
H210 H 0.15566 0.0481 0.51666 0.0
H211 H 0.16006 0.02282 0.45694 0.0
C212 C 0.46555 0.18101 0.37672 0.0
C213 C 0.48665 0.18902 0.34054 0.0
C214 C 0.46613 0.16041 0.42099 0.0
C215 C 0.48834 0.14754 0.42922 0.0
C216 C 0.50965 0.15541 0.39249 0.0
C217 C 0.50855 0.17606 0.34855 0.0
C218 C 0.44301 0.15246 0.4591 0.0
C219 C 0.53365 0.14206 0.39977 0.0
C220 C 0.49706 0.1067 0.58757 0.0
C221 C 0.49244 0.08303 0.55972 0.0
C222 C 0.49552 0.12795 0.54589 0.0
C223 C 0.48917 0.12542 0.47486 0.0
C224 C 0.48407 0.10165 0.44679 0.0
C225 C 0.48577 0.08078 0.48948 0.0
C226 C 0.50105 0.15307 0.57751 0.0
C227 C 0.47717 0.09821 0.37134 0.0
H228 H 0.44857 0.19097 0.37099 0.0
H229 H 0.52495 0.18218 0.32096 0.0
H230 H 0.43786 0.13313 0.44476 0.0
H231 H 0.4463 0.15278 0.51596 0.0
H232 H 0.42728 0.16457 0.44738 0.0
H233 H 0.5486 0.15068 0.3681 0.0
H234 H 0.53946 0.14205 0.45499 0.0
H235 H 0.53121 0.12243 0.38351 0.0
H236 H 0.50222 0.10863 0.6417 0.0
H237 H 0.48205 0.06261 0.46735 0.0
H238 H 0.48526 0.16544 0.56983 0.0
H239 H 0.51714 0.16179 0.55102 0.0
H240 H 0.50504 0.15194 0.63398 0.0
H241 H 0.46077 0.10925 0.35898 0.0
H242 H 0.47313 0.07851 0.35808 0.0
H243 H 0.49238 0.10506 0.33759 0.0
C244 C 0.30672 0.55251 0.54068 0.0
C245 C 0.30888 0.57826 0.53229 0.0
C246 C 0.3245 0.53943 0.57758 0.0
C247 C 0.34527 0.55235 0.60462 0.0
C248 C 0.3471 0.57846 0.59816 0.0
C249 C 0.32867 0.59115 0.56287 0.0
C250 C 0.32154 0.5117 0.58518 0.0
C251 C 0.36925 0.59286 0.62477 0.0
C252 C 0.39102 0.52381 0.72888 0.0
C253 C 0.40948 0.51646 0.6827 0.0
C254 C 0.36933 0.53445 0.70415 0.0
C255 C 0.36647 0.53843 0.63191 0.0
C256 C 0.38475 0.5304 0.58511 0.0
C257 C 0.40582 0.51924 0.61099 0.0
C258 C 0.34984 0.5421 0.75534 0.0
C259 C 0.38267 0.5347 0.50777 0.0
H260 H 0.29123 0.54255 0.51783 0.0
H261 H 0.33038 0.61106 0.55632 0.0
H262 H 0.33503 0.50233 0.55133 0.0
H263 H 0.32529 0.50604 0.63946 0.0
H264 H 0.3028 0.50503 0.57058 0.0
H265 H 0.36713 0.6132 0.61952 0.0
H266 H 0.37255 0.5885 0.68019 0.0
H267 H 0.38582 0.58736 0.59526 0.0
H268 H 0.39368 0.5216 0.7843 0.0
H269 H 0.42002 0.51379 0.5748 0.0
H270 H 0.33146 0.53528 0.73811 0.0
H271 H 0.34921 0.56261 0.75789 0.0
H272 H 0.3534 0.53496 0.80838 0.0
H273 H 0.3654 0.52616 0.48765 0.0
H274 H 0.39835 0.52695 0.47837 0.0
H275 H 0.38198 0.55488 0.49721 0.0
C276 C 0.9791 0.31066 0.42555 0.0
C277 C 0.99221 0.30708 0.36377 0.0
C278 C 0.9846 0.33077 0.46924 0.0
C279 C 0.00328 0.34803 0.44978 0.0
C280 C 0.01717 0.34406 0.38862 0.0
C281 C 0.01161 0.32341 0.34656 0.0
C282 C 0.96966 0.33412 0.53471 0.0
C283 C 0.03692 0.3623 0.36563 0.0
C284 C 0.9904 0.41246 0.51482 0.0
C285 C 0.00603 0.41449 0.57237 0.0
C286 C 0.99036 0.39141 0.47243 0.0
C287 C 0.00595 0.37162 0.48897 0.0
C288 C 0.02235 0.37382 0.54586 0.0
C289 C 0.02242 0.39548 0.58662 0.0
C290 C 0.97297 0.39005 0.41133 0.0
C291 C 0.03895 0.3529 0.56552 0.0
H292 H 0.96435 0.29781 0.43955 0.0
H293 H 0.02181 0.32061 0.29884 0.0
H294 H 0.98193 0.33788 0.57964 0.0
H295 H 0.95762 0.35033 0.52886 0.0
H296 H 0.95792 0.31759 0.54657 0.0
H297 H 0.04788 0.35512 0.32145 0.0
H298 H 0.0283 0.37981 0.34927 0.0
H299 H 0.04952 0.36687 0.40923 0.0
H300 H 0.97801 0.42737 0.50308 0.0
H301 H 0.03451 0.39712 0.63117 0.0
H302 H 0.95858 0.37561 0.42094 0.0
H303 H 0.983 0.38471 0.36352 0.0
H304 H 0.9638 0.40793 0.40184 0.0
H305 H 0.02763 0.33697 0.58451 0.0
H306 H 0.05222 0.3584 0.60682 0.0
H307 H 0.04933 0.34641 0.51952 0.0
C308 C 0.82727 0.97794 0.75016 0.0
C309 C 0.81886 0.96889 0.81435 0.0
C310 C 0.85192 0.9852 0.74084 0.0
C311 C 0.86855 0.98309 0.79684 0.0
C312 C 0.8599 0.97522 0.86274 0.0
C313 C 0.83508 0.96832 0.8708 0.0
C314 C 0.86043 0.99381 0.67 0.0
C315 C 0.87713 0.97261 0.92358 0.0
C316 C 0.93398 0.96815 0.74851 0.0
C317 C 0.94616 0.99105 0.75792 0.0
C318 C 0.9088 0.96537 0.76166 0.0
C319 C 0.89534 0.98607 0.78419 0.0
C320 C 0.90743 0.00928 0.79382 0.0
C321 C 0.9328 0.01148 0.7809 0.0
C322 C 0.8966 0.94023 0.75139 0.0
C323 C 0.89353 0.03176 0.81721 0.0
H324 H 0.81474 0.97871 0.70654 0.0
H325 H 0.82866 0.96145 0.92064 0.0
H326 H 0.87189 0.01096 0.67452 0.0
H327 H 0.87201 0.97941 0.64597 0.0
H328 H 0.84479 0.99741 0.63468 0.0
H329 H 0.8671 0.969 0.97297 0.0
H330 H 0.88964 0.95698 0.91377 0.0
H331 H 0.88873 0.98959 0.92988 0.0
H332 H 0.94418 0.95221 0.73129 0.0
H333 H 0.94209 0.02925 0.78811 0.0
H334 H 0.88202 0.9414 0.71137 0.0
H335 H 0.88764 0.93405 0.80038 0.0
H336 H 0.90982 0.92592 0.73494 0.0
H337 H 0.87882 0.03583 0.77931 0.0
H338 H 0.90567 0.04844 0.82261 0.0
H339 H 0.88445 0.02803 0.86787 0.0
C340 C 0.53847 0.81972 0.00836 0.0
C341 C 0.56244 0.82122 0.03456 0.0
C342 C 0.52889 0.83916 0.96923 0.0
C343 C 0.54339 0.86088 0.95849 0.0
C344 C 0.56725 0.86287 0.98755 0.0
C345 C 0.5767 0.84275 0.02411 0.0
C346 C 0.50372 0.83605 0.9371 0.0
C347 C 0.58291 0.8861 0.97923 0.0
C348 C 0.53369 0.90237 0.80291 0.0
C349 C 0.51962 0.9212 0.83186 0.0
C350 C 0.54061 0.88201 0.84294 0.0
C351 C 0.53413 0.88112 0.9142 0.0
C352 C 0.51973 0.90006 0.94349 0.0
C353 C 0.51224 0.91971 0.90145 0.0
C354 C 0.55523 0.86172 0.8093 0.0
C355 C 0.5132 0.90017 0.01977 0.0
H356 H 0.52758 0.80289 0.01599 0.0
H357 H 0.5952 0.84388 0.04489 0.0
H358 H 0.49175 0.85144 0.95321 0.0
H359 H 0.50532 0.8368 0.87965 0.0
H360 H 0.4946 0.81821 0.95178 0.0
H361 H 0.60005 0.8855 0.0104 0.0
H362 H 0.588 0.88859 0.92383 0.0
H363 H 0.5724 0.90258 0.99522 0.0
H364 H 0.5393 0.90361 0.74891 0.0
H365 H 0.50163 0.93455 0.92382 0.0
H366 H 0.54657 0.84336 0.82036 0.0
H367 H 0.57405 0.86166 0.8313 0.0
H368 H 0.5567 0.86405 0.7521 0.0
H369 H 0.50366 0.88258 0.03428 0.0
H370 H 0.50124 0.91586 0.03389 0.0
H371 H 0.53026 0.90154 0.05117 0.0
C372 C 0.69617 0.53851 0.95629 0.0
C373 C 0.69734 0.53441 0.02806 0.0
C374 C 0.67496 0.53213 0.91852 0.0
C375 C 0.65423 0.52208 0.9538 0.0
C376 C 0.65528 0.51799 0.02638 0.0
C377 C 0.677 0.52389 0.06255 0.0
C378 C 0.6747 0.53626 0.84094 0.0
C379 C 0.63329 0.50796 0.06605 0.0
C380 C 0.59245 0.53184 0.86912 0.0
C381 C 0.58684 0.50819 0.84247 0.0
C382 C 0.61415 0.53646 0.90625 0.0
C383 C 0.63101 0.51713 0.9153 0.0
C384 C 0.6257 0.49329 0.88745 0.0
C385 C 0.60341 0.48899 0.85219 0.0
C386 C 0.61882 0.56196 0.93668 0.0
C387 C 0.64358 0.47243 0.89466 0.0
H388 H 0.71201 0.54635 0.92938 0.0
H389 H 0.67789 0.52076 0.11809 0.0
H390 H 0.6692 0.51887 0.81377 0.0
H391 H 0.66094 0.55037 0.82771 0.0
H392 H 0.6929 0.54261 0.82075 0.0
H393 H 0.63722 0.5056 0.12223 0.0
H394 H 0.61769 0.52074 0.0605 0.0
H395 H 0.62728 0.4898 0.04427 0.0
H396 H 0.57948 0.54666 0.86267 0.0
H397 H 0.59908 0.47071 0.83157 0.0
H398 H 0.63582 0.5703 0.91406 0.0
H399 H 0.62169 0.56058 0.99359 0.0
H400 H 0.60339 0.57468 0.92703 0.0
H401 H 0.66166 0.47807 0.87242 0.0
H402 H 0.63703 0.45523 0.86816 0.0
H403 H 0.64654 0.46827 0.95038 0.0
C404 C 0.96886 0.67558 0.03967 0.0
C405 C 0.94553 0.68522 0.02719 0.0
C406 C 0.97642 0.65388 0.00641 0.0
C407 C 0.96017 0.64144 0.96019 0.0
C408 C 0.93642 0.6508 0.94844 0.0
C409 C 0.92943 0.67267 0.98185 0.0
C410 C 0.00194 0.64448 0.01981 0.0
C411 C 0.91849 0.63784 0.90008 0.0
C412 C 0.98547 0.59895 0.82134 0.0
C413 C 0.98115 0.57553 0.85088 0.0
C414 C 0.97916 0.62061 0.857 0.0
C415 C 0.96804 0.61876 0.92338 0.0
C416 C 0.96389 0.59522 0.95384 0.0
C417 C 0.9706 0.57389 0.91737 0.0
C418 C 0.98408 0.64546 0.82327 0.0
C419 C 0.95188 0.59254 0.02433 0.0
H420 H 0.98143 0.68526 0.07446 0.0
H421 H 0.91134 0.67998 0.9722 0.0
H422 H 0.00087 0.62521 0.03967 0.0
H423 H 0.01252 0.64409 0.97049 0.0
H424 H 0.01223 0.65616 0.05793 0.0
H425 H 0.90047 0.64715 0.89816 0.0
H426 H 0.92624 0.63729 0.84677 0.0
H427 H 0.91538 0.61837 0.9169 0.0
H428 H 0.99371 0.60038 0.77016 0.0
H429 H 0.96709 0.55588 0.94052 0.0
H430 H 0.99541 0.65743 0.85812 0.0
H431 H 0.96648 0.65501 0.81461 0.0
H432 H 0.99373 0.64375 0.77262 0.0
H433 H 0.9625 0.60324 0.06375 0.0
H434 H 0.95044 0.57291 0.04138 0.0
H435 H 0.93314 0.60026 0.0229 0.0
C436 C 0.98538 0.16044 0.35887 0.0
C437 C 0.0015 0.18093 0.36371 0.0
C438 C 0.98868 0.13947 0.40056 0.0
C439 C 0.00838 0.13921 0.44851 0.0
C440 C 0.02434 0.16012 0.4546 0.0
C441 C 0.0206 0.18079 0.41233 0.0
C442 C 0.97133 0.11746 0.39263 0.0
C443 C 0.04548 0.16058 0.50536 0.0
C444 C 0.00712 0.09341 0.59802 0.0
C445 C 0.02284 0.07507 0.57331 0.0
C446 C 0.00197 0.11428 0.55757 0.0
C447 C 0.01282 0.11684 0.491 0.0
C448 C 0.02856 0.09835 0.46558 0.0
C449 C 0.03337 0.07771 0.50698 0.0
C450 C 0.9851 0.13371 0.58627 0.0
C451 C 0.04054 0.10049 0.39486 0.0
H452 H 0.97045 0.16068 0.32167 0.0
H453 H 0.0325 0.19701 0.41791 0.0
H454 H 0.98169 0.10106 0.37527 0.0
H455 H 0.96283 0.11275 0.44346 0.0
H456 H 0.95649 0.12093 0.35452 0.0
H457 H 0.05591 0.17849 0.50455 0.0
H458 H 0.03855 0.15727 0.55885 0.0
H459 H 0.05832 0.14548 0.49287 0.0
H460 H -0.00114 0.09151 0.64906 0.0
H461 H 0.04552 0.06365 0.48724 0.0
H462 H 0.96949 0.13644 0.5503 0.0
H463 H 0.99517 0.15172 0.59061 0.0
H464 H 0.97767 0.12866 0.63825 0.0
H465 H 0.02627 0.10207 0.35408 0.0
H466 H 0.05212 0.08434 0.38246 0.0
H467 H 0.05222 0.11755 0.39244 0.0
C468 C 0.33683 0.98127 0.41306 0.0
C469 C 0.32759 0.96405 0.36465 0.0
C470 C 0.35717 0.97595 0.45415 0.0
C471 C 0.36841 0.95263 0.44756 0.0
C472 C 0.35813 0.93443 0.4026 0.0
C473 C 0.33789 0.94044 0.36102 0.0
C474 C 0.36754 0.99597 0.50146 0.0
C475 C 0.36917 0.90912 0.39566 0.0
C476 C 0.43557 0.96157 0.48529 0.0
C477 C 0.43591 0.95796 0.55742 0.0
C478 C 0.41407 0.95735 0.44699 0.0
C479 C 0.3925 0.94903 0.48162 0.0
C480 C 0.39356 0.94236 0.55259 0.0
C481 C 0.41529 0.94706 0.58999 0.0
C482 C 0.41382 0.96449 0.37116 0.0
C483 C 0.37115 0.93253 0.59056 0.0
H484 H 0.32881 -0.00055 0.41696 0.0
H485 H 0.33066 0.9269 0.32433 0.0
H486 H 0.36936 0.98884 0.55513 0.0
H487 H 0.38618 0.0017 0.48335 0.0
H488 H 0.35589 0.01263 0.50296 0.0
H489 H 0.35578 0.89544 0.37363 0.0
H490 H 0.38527 0.91025 0.36031 0.0
H491 H 0.37564 0.90226 0.44661 0.0
H492 H 0.4516 0.96941 0.45929 0.0
H493 H 0.41552 0.94372 0.64549 0.0
H494 H 0.40356 0.98193 0.36492 0.0
H495 H 0.40431 0.95001 0.33972 0.0
H496 H 0.43266 0.96747 0.35003 0.0
H497 H 0.35913 0.94817 0.60439 0.0
H498 H 0.37621 0.92287 0.63925 0.0
H499 H 0.36033 0.91955 0.55724 0.0
C500 C 0.47992 0.30989 0.48435 0.0
C501 C 0.49458 0.30614 0.42539 0.0
C502 C 0.48508 0.32946 0.53035 0.0
C503 C 0.50535 0.3456 0.51693 0.0
C504 C 0.52155 0.34044 0.46142 0.0
C505 C 0.51597 0.32072 0.41621 0.0
C506 C 0.46749 0.3342 0.58945 0.0
C507 C 0.54351 0.35706 0.44586 0.0
C508 C 0.49399 0.41277 0.55931 0.0
C509 C 0.50661 0.41597 0.62227 0.0
C510 C 0.49396 0.39009 0.5241 0.0
C511 C 0.50685 0.36999 0.5525 0.0
C512 C 0.52016 0.37314 0.6151 0.0
C513 C 0.5199 0.39617 0.64936 0.0
C514 C 0.47966 0.38755 0.45706 0.0
C515 C 0.53417 0.35209 0.64657 0.0
H516 H 0.46356 0.29848 0.49245 0.0
H517 H 0.5276 0.31776 0.37128 0.0
H518 H 0.47764 0.33887 0.63778 0.0
H519 H 0.45596 0.35027 0.57643 0.0
H520 H 0.45514 0.31796 0.5996 0.0
H521 H 0.55664 0.34808 0.40989 0.0
H522 H 0.53717 0.37437 0.42125 0.0
H523 H 0.55333 0.36232 0.49429 0.0
H524 H 0.48385 0.42799 0.53755 0.0
H525 H 0.52972 0.3985 0.69795 0.0
H526 H 0.46485 0.37327 0.46302 0.0
H527 H 0.49192 0.38134 0.41458 0.0
H528 H 0.47118 0.4052 0.44111 0.0
H529 H 0.5211 0.33721 0.66316 0.0
H530 H 0.5452 0.35812 0.6923 0.0
H531 H 0.54663 0.34393 0.60741 0.0
C532 C 0.16272 0.57452 0.38916 0.0
C533 C 0.18021 0.58388 0.43619 0.0
C534 C 0.13976 0.56554 0.41234 0.0
C535 C 0.13416 0.56625 0.48417 0.0
C536 C 0.15134 0.57681 0.53141 0.0
C537 C 0.17415 0.58558 0.50675 0.0
C538 C 0.12183 0.55462 0.3603 0.0
C539 C 0.14602 0.57798 0.60838 0.0
C540 C 0.06891 0.55785 0.55197 0.0
C541 C 0.069 0.53314 0.57461 0.0
C542 C 0.08973 0.56871 0.52019 0.0
C543 C 0.1111 0.55453 0.51096 0.0
C544 C 0.11101 0.52937 0.53147 0.0
C545 C 0.08999 0.51899 0.56297 0.0
C546 C 0.08914 0.59557 0.49859 0.0
C547 C 0.13343 0.51361 0.52231 0.0
H548 H 0.16695 0.57425 0.33421 0.0
H549 H 0.1876 0.593 0.54314 0.0
H550 H 0.11943 0.53445 0.36978 0.0
H551 H 0.10354 0.56308 0.36651 0.0
H552 H 0.12814 0.55734 0.30587 0.0
H553 H 0.1607 0.58811 0.63752 0.0
H554 H 0.1283 0.58722 0.61785 0.0
H555 H 0.14427 0.55891 0.62955 0.0
H556 H 0.05277 0.56892 0.56044 0.0
H557 H 0.09024 0.49985 0.5798 0.0
H558 H 0.0952 0.59761 0.44381 0.0
H559 H 0.10212 0.60665 0.53106 0.0
H560 H 0.07052 0.60344 0.50407 0.0
H561 H 0.13965 0.51405 0.4674 0.0
H562 H 0.12992 0.49401 0.53748 0.0
H563 H 0.14873 0.5212 0.55448 0.0
C564 C 0.97318 0.8324 0.01151 0.0
C565 C 0.9845 0.80958 0.02088 0.0
C566 C 0.9858 0.8523 0.97991 0.0
C567 C 0.0102 0.84916 0.95614 0.0
C568 C 0.02176 0.82616 0.96571 0.0
C569 C 0.0087 0.80655 0.99758 0.0
C570 C 0.9729 0.87661 0.97118 0.0
C571 C 0.04781 0.82224 0.94165 0.0
C572 C 0.02602 0.89184 0.80694 0.0
C573 C 0.03788 0.91174 0.84093 0.0
C574 C 0.01833 0.87065 0.8433 0.0
C575 C 0.02254 0.86929 0.91564 0.0
C576 C 0.03621 0.88847 0.94931 0.0
C577 C 0.04376 0.90955 0.9114 0.0
C578 C 0.00417 0.85051 0.80501 0.0
C579 C 0.04121 0.88789 0.02625 0.0
H580 H 0.9545 0.83478 0.02973 0.0
H581 H 0.01731 0.78875 0.00354 0.0
H582 H 0.98401 0.89184 0.99501 0.0
H583 H 0.97099 0.88088 0.91511 0.0
H584 H 0.95432 0.87636 0.99527 0.0
H585 H 0.05463 0.80372 0.95642 0.0
H586 H 0.04889 0.82409 0.88432 0.0
H587 H 0.0602 0.83669 0.96432 0.0
H588 H 0.02177 0.89328 0.75209 0.0
H589 H 0.05289 0.92489 0.93793 0.0
H590 H 0.98469 0.85037 0.82223 0.0
H591 H 0.01169 0.83207 0.8171 0.0
H592 H 0.00466 0.8532 0.74781 0.0
H593 H 0.02551 0.89634 0.05374 0.0
H594 H 0.05804 0.89887 0.03952 0.0
H595 H 0.04326 0.86871 0.04562 0.0
C596 C 0.68219 0.00741 0.95415 0.0
C597 C 0.68552 0.98973 0.90159 0.0
C598 C 0.66052 0.0212 0.95763 0.0
C599 C 0.64174 0.01679 0.90802 0.0
C600 C 0.64537 -0.00074 0.85408 0.0
C601 C 0.66727 0.98619 0.8513 0.0
C602 C 0.65771 0.03994 0.01521 0.0
C603 C 0.62587 0.99371 0.79998 0.0
C604 C 0.57386 0.01969 0.92181 0.0
C605 C 0.56939 0.03589 0.86676 0.0
C606 C 0.59785 0.01608 0.94543 0.0
C607 C 0.61753 0.02901 0.91268 0.0
C608 C 0.61243 0.04881 0.86706 0.0
C609 C 0.58822 0.05191 0.84385 0.0
C610 C 0.60234 0.99541 0.99624 0.0
C611 C 0.63287 0.06402 0.83432 0.0
H612 H 0.69659 0.01071 0.99203 0.0
H613 H 0.66982 0.97257 0.81055 0.0
H614 H 0.64634 0.05574 0.99889 0.0
H615 H 0.64856 0.03088 0.06028 0.0
H616 H 0.67589 0.04721 0.03295 0.0
H617 H 0.63162 0.97938 0.76209 0.0
H618 H 0.60866 0.98709 0.82556 0.0
H619 H 0.6216 0.01078 0.7708 0.0
H620 H 0.55915 0.00739 0.93965 0.0
H621 H 0.58473 0.06451 0.80133 0.0
H622 H 0.61732 0.00058 0.03276 0.0
H623 H 0.60803 0.97865 0.96728 0.0
H624 H 0.58552 0.99061 0.02658 0.0
H625 H 0.64808 0.06737 0.87175 0.0
H626 H 0.62614 0.0821 0.81549 0.0
H627 H 0.64038 0.05377 0.7892 0.0
C628 C 0.55945 0.67249 0.02151 0.0
C629 C 0.54485 0.69239 0.0413 0.0
C630 C 0.5488 0.65091 0.99272 0.0
C631 C 0.523 0.64939 0.98281 0.0
C632 C 0.50824 0.66957 0.002 0.0
C633 C 0.51939 0.69093 0.03044 0.0
C634 C 0.56517 0.62977 0.97262 0.0
C635 C 0.48074 0.66872 0.99176 0.0
C636 C 0.50333 0.60475 0.84099 0.0
C637 C 0.49708 0.58338 0.87898 0.0
C638 C 0.51062 0.62672 0.87441 0.0
C639 C 0.51182 0.62734 0.94776 0.0
C640 C 0.50402 0.60633 0.98667 0.0
C641 C 0.49661 0.58452 0.95169 0.0
C642 C 0.51846 0.64879 0.83095 0.0
C643 C 0.505 0.60637 0.06498 0.0
H644 H 0.57914 0.67363 0.02978 0.0
H645 H 0.50817 0.70663 0.04365 0.0
H646 H 0.559 0.61254 -0.00066 0.0
H647 H 0.56383 0.62629 0.91591 0.0
H648 H 0.58475 0.63355 0.98589 0.0
H649 H 0.47176 0.68549 0.01261 0.0
H650 H 0.47644 0.66708 0.9356 0.0
H651 H 0.47262 0.65215 0.01776 0.0
H652 H 0.50349 0.60399 0.78468 0.0
H653 H 0.49195 0.56799 0.98118 0.0
H654 H 0.53854 0.65217 0.83672 0.0
H655 H 0.50913 0.66572 0.84905 0.0
H656 H 0.51435 0.64601 0.77493 0.0
H657 H 0.52448 0.60687 0.08189 0.0
H658 H 0.49583 0.58969 0.08772 0.0
H659 H 0.49621 0.62314 0.0862 0.0
C660 C 0.81904 0.4652 0.03042 0.0
C661 C 0.81443 0.4906 0.02412 0.0
C662 C 0.83842 0.45434 0.99362 0.0
C663 C 0.85363 0.46936 0.95059 0.0
C664 C 0.84807 0.49464 0.94087 0.0
C665 C 0.82847 0.50488 0.97738 0.0
C666 C 0.84336 0.42719 0.00396 0.0
C667 C 0.86376 0.51138 0.89521 0.0
C668 C 0.92159 0.46278 0.92515 0.0
C669 C 0.92271 0.45845 0.85334 0.0
C670 C 0.89895 0.46374 0.95966 0.0
C671 C 0.87698 0.45998 0.92149 0.0
C672 C 0.87816 0.45227 0.8513 0.0
C673 C 0.90108 0.45167 0.81778 0.0
C674 C 0.89855 0.47166 0.03495 0.0
C675 C 0.85515 0.44717 0.80962 0.0
H676 H 0.80812 0.45396 0.06597 0.0
H677 H 0.82489 0.52444 0.97149 0.0
H678 H 0.84956 0.41841 0.95495 0.0
H679 H 0.85819 0.42516 0.04287 0.0
H680 H 0.82678 0.417 0.02332 0.0
H681 H 0.85617 0.53025 0.89047 0.0
H682 H 0.88257 0.51309 0.91715 0.0
H683 H 0.86541 0.50332 0.84241 0.0
H684 H 0.93824 0.46745 0.95351 0.0
H685 H 0.90177 0.4478 0.76253 0.0
H686 H 0.88524 0.46011 0.06499 0.0
H687 H 0.89257 0.49117 0.03846 0.0
H688 H 0.91693 0.47039 0.05957 0.0
H689 H 0.84102 0.43732 0.84141 0.0
H690 H 0.85903 0.43596 0.76252 0.0
H691 H 0.84733 0.465 0.79274 0.0
C692 C 0.09775 0.13922 0.11735 0.0
C693 C 0.08601 0.1392 0.18226 0.0
C694 C 0.09586 0.11861 0.07304 0.0
C695 C 0.08199 0.09749 0.09438 0.0
C696 C 0.07229 0.09641 0.1626 0.0
C697 C 0.07441 0.11731 0.20582 0.0
C698 C 0.10675 0.12041 0.00097 0.0
C699 C 0.0577 0.0741 0.18783 0.0
C700 C 0.04571 0.06647 0.94981 0.0
C701 C 0.06017 0.04602 0.93354 0.0
C702 C 0.05237 0.0829 0.0032 0.0
C703 C 0.07405 0.07881 0.04174 0.0
C704 C 0.08835 0.05778 0.0274 0.0
C705 C 0.08127 0.04162 0.97328 0.0
C706 C 0.03651 0.10506 0.01702 0.0
C707 C 0.11144 0.05274 0.06786 0.0
H708 H 0.10708 0.15592 0.09909 0.0
H709 H 0.06558 0.11698 0.25633 0.0
H710 H 0.11623 0.1031 0.98699 0.0
H711 H 0.09177 0.12299 0.96274 0.0
H712 H 0.12001 0.13623 0.99612 0.0
H713 H 0.05572 0.07408 0.24528 0.0
H714 H 0.03905 0.07427 0.16466 0.0
H715 H 0.06648 0.05666 0.17142 0.0
H716 H 0.02929 0.07 0.9199 0.0
H717 H 0.09254 0.02583 0.96129 0.0
H718 H 0.04725 0.1224 0.00723 0.0
H719 H 0.03065 0.10531 0.07224 0.0
H720 H 0.01982 0.10511 0.98384 0.0
H721 H 0.12562 0.06715 0.0558 0.0
H722 H 0.11904 0.03429 0.05539 0.0
H723 H 0.10776 0.0537 0.12451 0.0
C724 C 0.32254 0.03288 0.97561 0.0
C725 C 0.32233 0.03929 0.04621 0.0
C726 C 0.3441 0.03553 0.93593 0.0
C727 C 0.36593 0.04456 0.96795 0.0
C728 C 0.36514 0.05341 0.03711 0.0
C729 C 0.34328 0.0508 0.07534 0.0
C730 C 0.34405 0.02649 0.86168 0.0
C731 C 0.38795 0.06327 0.07312 0.0
C732 C 0.423 0.01193 0.9075 0.0
C733 C 0.43402 0.02954 0.86348 0.0
C734 C 0.4013 0.01703 0.94336 0.0
C735 C 0.39005 0.04023 0.93413 0.0
C736 C 0.40146 0.05844 0.89137 0.0
C737 C 0.4235 0.05293 0.8568 0.0
C738 C 0.39006 0.99724 0.98968 0.0
C739 C 0.38988 0.08327 0.8798 0.0
H740 H 0.30632 0.02439 0.95231 0.0
H741 H 0.34323 0.05619 0.12962 0.0
H742 H 0.35453 0.03953 0.8278 0.0
H743 H 0.35314 0.00829 0.8589 0.0
H744 H 0.32509 0.02421 0.84096 0.0
H745 H 0.38345 0.07351 0.12149 0.0
H746 H 0.39981 0.04754 0.08702 0.0
H747 H 0.39876 0.07573 0.03838 0.0
H748 H 0.43122 0.99391 0.91325 0.0
H749 H 0.43191 0.06651 0.8223 0.0
H750 H 0.37193 0.99117 0.96873 0.0
H751 H 0.38692 0.00479 0.04255 0.0
H752 H 0.40184 0.98075 0.99407 0.0
H753 H 0.37301 0.0807 0.84807 0.0
H754 H 0.40249 0.09643 0.85242 0.0
H755 H 0.38428 0.09163 0.92993 0.0
C756 C 0.44056 0.34117 0.10785 0.0
C757 C 0.44288 0.34328 0.18015 0.0
C758 C 0.44436 0.36184 0.06468 0.0
C759 C 0.45085 0.38508 0.09455 0.0
C760 C 0.45215 0.38753 0.16763 0.0
C761 C 0.44805 0.36663 0.20955 0.0
C762 C 0.44257 0.35855 0.98692 0.0
C763 C 0.45918 0.41193 0.20148 0.0
C764 C 0.49092 0.42694 0.98223 0.0
C765 C 0.47395 0.4439 0.95676 0.0
C766 C 0.48368 0.40813 0.02837 0.0
C767 C 0.45878 0.40604 0.04922 0.0
C768 C 0.44163 0.42348 0.02532 0.0
C769 C 0.44947 0.44234 0.97957 0.0
C770 C 0.50263 0.39014 0.05348 0.0
C771 C 0.41491 0.42173 0.04627 0.0
H772 H 0.43639 0.32324 0.08479 0.0
H773 H 0.44983 0.36847 0.26541 0.0
H774 H 0.43085 0.37302 0.96416 0.0
H775 H 0.46112 0.36072 0.96336 0.0
H776 H 0.4349 0.34004 0.9723 0.0
H777 H 0.4571 0.41133 0.25889 0.0
H778 H 0.47862 0.41671 0.18901 0.0
H779 H 0.44775 0.42703 0.18088 0.0
H780 H 0.50992 0.42814 0.96533 0.0
H781 H 0.43624 0.45531 0.95979 0.0
H782 H 0.4978 0.37117 0.03506 0.0
H783 H 0.50282 0.38965 0.1111 0.0
H784 H 0.52144 0.39502 0.03483 0.0
H785 H 0.40661 0.40424 0.02592 0.0
H786 H 0.40421 0.43751 0.02634 0.0
H787 H 0.4132 0.42119 0.10368 0.0
C788 C 0.14691 0.49752 0.14377 0.0
C789 C 0.1504 0.52336 0.14191 0.0
C790 C 0.13068 0.48546 0.09741 0.0
C791 C 0.11758 0.49961 0.04854 0.0
C792 C 0.12136 0.52562 0.0458 0.0
C793 C 0.13773 0.53714 0.09234 0.0
C794 C 0.12721 0.45768 0.10149 0.0
C795 C 0.10769 0.54144 0.99461 0.0
C796 C 0.08652 0.47578 0.88506 0.0
C797 C 0.06167 0.47722 0.90406 0.0
C798 C 0.10523 0.48099 0.93344 0.0
C799 C 0.09889 0.4878 0.00218 0.0
C800 C 0.07395 0.48693 0.02318 0.0
C801 C 0.05566 0.48159 0.97392 0.0
C802 C 0.13164 0.48131 0.90933 0.0
C803 C 0.06637 0.49388 0.09608 0.0
H804 H 0.1567 0.48673 0.1818 0.0
H805 H 0.14033 0.55709 0.09037 0.0
H806 H 0.10814 0.45305 0.11805 0.0
H807 H 0.12991 0.44921 0.04953 0.0
H808 H 0.14012 0.44917 0.13872 0.0
H809 H 0.11323 0.56133 0.99798 0.0
H810 H 0.11106 0.53489 0.94082 0.0
H811 H 0.08762 0.53977 0.00439 0.0
H812 H 0.09139 0.47223 0.83137 0.0
H813 H 0.03653 0.48237 0.98946 0.0
H814 H 0.14368 0.47276 0.94868 0.0
H815 H 0.13807 0.50079 0.90227 0.0
H816 H 0.13386 0.47138 0.85915 0.0
H817 H 0.07808 0.48467 0.13496 0.0
H818 H 0.04683 0.48886 0.10682 0.0
H819 H 0.06884 0.51419 0.10327 0.0
C820 C 0.0553 0.85114 0.27736 0.0
C821 C 0.03963 0.8544 0.22054 0.0
C822 C 0.05879 0.87009 0.32661 0.0
C823 C 0.04648 0.89276 0.3181 0.0
C824 C 0.03249 0.89688 0.25759 0.0
C825 C 0.02903 0.87755 0.20992 0.0
C826 C 0.07393 0.86507 0.39049 0.0
C827 C 0.01934 0.9209 0.24605 0.0
C828 C 0.02289 0.92408 0.48006 0.0
C829 C 0.03968 0.9439 0.4882 0.0
C830 C 0.02514 0.90727 0.42518 0.0
C831 C 0.04467 0.91033 0.37707 0.0
C832 C 0.06166 0.93033 0.38452 0.0
C833 C 0.05893 0.94696 0.44007 0.0
C834 C 0.00657 0.88618 0.41882 0.0
C835 C 0.08267 0.93409 0.33408 0.0
H836 H 0.06366 0.83332 0.28568 0.0
H837 H 0.01685 0.88022 0.16628 0.0
H838 H 0.08601 0.88124 0.40318 0.0
H839 H 0.06148 0.86192 0.43549 0.0
H840 H 0.08546 0.84847 0.38396 0.0
H841 H 0.01284 0.92271 0.19163 0.0
H842 H 0.00315 0.92167 0.28109 0.0
H843 H 0.0315 0.93703 0.25852 0.0
H844 H 0.00798 0.92156 0.51696 0.0
H845 H 0.0721 0.96213 0.4463 0.0
H846 H 0.01607 0.86818 0.41948 0.0
H847 H 0.99674 0.88743 0.36854 0.0
H848 H 0.99276 0.8862 0.4614 0.0
H849 H 0.09412 0.91732 0.33248 0.0
H850 H 0.09459 0.95029 0.34805 0.0
H851 H 0.0754 0.93688 0.28092 0.0
C852 C 0.65234 0.96756 0.27138 0.0
C853 C 0.66154 0.99044 0.24713 0.0
C854 C 0.6357 0.96632 0.327 0.0
C855 C 0.62807 0.98847 0.35914 0.0
C856 C 0.6379 0.01157 0.33649 0.0
C857 C 0.65452 0.01228 0.28067 0.0
C858 C 0.62562 0.94134 0.34978 0.0
C859 C 0.63023 0.03559 0.36972 0.0
C860 C 0.56522 0.9893 0.44397 0.0
C861 C 0.57112 0.98783 0.51475 0.0
C862 C 0.5836 0.98919 0.39291 0.0
C863 C 0.60852 0.98764 0.41304 0.0
C864 C 0.61463 0.98569 0.48423 0.0
C865 C 0.59583 0.98575 0.53432 0.0
C866 C 0.57635 0.99113 0.31741 0.0
C867 C 0.64102 0.98402 0.50752 0.0
H868 H 0.65776 0.95057 0.24599 0.0
H869 H 0.6616 0.03003 0.26244 0.0
H870 H 0.62797 0.93904 0.40661 0.0
H871 H 0.60562 0.94012 0.33886 0.0
H872 H 0.63472 0.92579 0.32277 0.0
H873 H 0.64083 0.05181 0.34932 0.0
H874 H 0.61041 0.03853 0.35995 0.0
H875 H 0.63275 0.03475 0.42684 0.0
H876 H 0.54619 0.99082 0.42827 0.0
H877 H 0.60057 0.98468 0.58889 0.0
H878 H 0.58353 0.97518 0.28773 0.0
H879 H 0.5846 0.00822 0.29449 0.0
H880 H 0.5561 0.99159 0.31039 0.0
H881 H 0.64992 0.9681 0.48183 0.0
H882 H 0.64264 0.98184 0.5647 0.0
H883 H 0.6514 0.00101 0.49176 0.0
C884 C 0.52868 0.61398 0.24137 0.0
C885 C 0.51206 0.63325 0.25114 0.0
C886 C 0.52897 0.5937 0.28666 0.0
C887 C 0.51246 0.5929 0.34343 0.0
C888 C 0.49464 0.61149 0.35103 0.0
C889 C 0.49459 0.63142 0.30452 0.0
C890 C 0.54792 0.57398 0.27613 0.0
C891 C 0.47662 0.61117 0.41083 0.0
C892 C 0.50197 0.53658 0.45757 0.0
C893 C 0.51592 0.54315 0.51636 0.0
C894 C 0.50165 0.55195 0.39891 0.0
C895 C 0.5155 0.57439 0.39939 0.0
C896 C 0.53084 0.5803 0.45663 0.0
C897 C 0.53093 0.56456 0.51432 0.0
C898 C 0.48541 0.54486 0.33825 0.0
C899 C 0.54605 0.60402 0.45879 0.0
H900 H 0.54216 0.61517 0.19993 0.0
H901 H 0.48157 0.64614 0.31203 0.0
H902 H 0.56261 0.57626 0.31565 0.0
H903 H 0.53957 0.55522 0.28299 0.0
H904 H 0.55651 0.57508 0.22378 0.0
H905 H 0.46262 0.62576 0.4059 0.0
H906 H 0.46705 0.59287 0.4142 0.0
H907 H 0.48669 0.61414 0.46034 0.0
H908 H 0.49045 0.51997 0.45839 0.0
H909 H 0.54193 0.5697 0.55917 0.0
H910 H 0.49533 0.54768 0.28839 0.0
H911 H 0.46914 0.55692 0.33757 0.0
H912 H 0.47886 0.52526 0.34125 0.0
H913 H 0.55751 0.60577 0.41128 0.0
H914 H 0.55828 0.60501 0.50489 0.0
H915 H 0.5337 0.62014 0.4602 0.0
C916 C 0.82727 0.53958 0.38942 0.0
C917 C 0.83052 0.54422 0.31833 0.0
C918 C 0.84747 0.53944 0.43467 0.0
C919 C 0.87145 0.54371 0.40789 0.0
C920 C 0.8746 0.55029 0.33729 0.0
C921 C 0.85406 0.55063 0.29345 0.0
C922 C 0.84332 0.53288 0.51004 0.0
C923 C 0.89984 0.55486 0.30656 0.0
C924 C 0.92538 0.54893 0.53328 0.0
C925 C 0.93287 0.52424 0.53597 0.0
C926 C 0.90547 0.55576 0.4914 0.0
C927 C 0.89319 0.5375 0.45062 0.0
C928 C 0.90134 0.51275 0.45136 0.0
C929 C 0.92091 0.5064 0.49442 0.0
C930 C 0.89709 0.58224 0.49249 0.0
C931 C 0.88908 0.49279 0.40757 0.0
H932 H 0.8091 0.53493 0.40923 0.0
H933 H 0.85675 0.55444 0.23866 0.0
H934 H 0.84948 0.5137 0.5195 0.0
H935 H 0.85426 0.54541 0.5443 0.0
H936 H 0.82363 0.53394 0.52495 0.0
H937 H 0.89894 0.56336 0.25413 0.0
H938 H 0.9111 0.56711 0.34075 0.0
H939 H 0.90944 0.53697 0.302 0.0
H940 H 0.93448 0.56272 0.56578 0.0
H941 H 0.92679 0.48733 0.4959 0.0
H942 H 0.87835 0.58299 0.51516 0.0
H943 H 0.89599 0.5896 0.43886 0.0
H944 H 0.90955 0.59451 0.5234 0.0
H945 H 0.86967 0.49014 0.42408 0.0
H946 H 0.89842 0.47473 0.4117 0.0
H947 H 0.88898 0.49845 0.35219 0.0
loop_
_geom_bond_atom_site_label_1
_geom_bond_atom_site_label_2
_geom_bond_distance
_geom_bond_site_symmetry_2
_ccdc_geom_bond_type
O0 Cd1 2.300 . S
O0 C7 1.275 . S
Cd1 O0 2.300 . S
Cd1 O9 2.381 . S
Cd1 O10 2.378 1_556 S
O2 Cd3 2.385 . S
O2 C7 1.255 1_554 S
Cd3 O2 2.385 . S
Cd3 O4 2.317 . S
O4 Cd3 2.317 . S
O4 C5 1.232 . S
C5 O4 1.232 . S
C5 O6 1.218 . S
O6 C5 1.218 . S
C7 O0 1.275 . S
C7 O2 1.255 1_556 S
C8 O9 1.258 . S
C8 O10 1.256 1_556 S
O9 Cd1 2.381 . S
O9 C8 1.258 . S
O10 Cd1 2.378 1_554 S
O10 C8 1.256 1_554 S
O11 Cd12 2.300 1_655 S
O11 C18 1.275 1_655 S
Cd12 O11 2.300 1_455 S
Cd12 O20 2.381 1_455 S
Cd12 O21 2.378 . S
O13 Cd14 2.385 . S
O13 C18 1.255 . S
Cd14 O13 2.385 . S
Cd14 O15 2.317 . S
O15 Cd14 2.317 . S
O15 C16 1.232 . S
C16 O15 1.232 . S
C16 O17 1.218 . S
O17 C16 1.218 . S
C18 O11 1.275 1_455 S
C18 O13 1.255 . S
C19 O20 1.254 1_455 S
C19 O21 1.262 . S
O20 Cd12 2.381 1_655 S
O20 C19 1.254 1_655 S
O21 Cd12 2.378 . S
O21 C19 1.262 . S
O22 Cd23 2.300 1_566 S
O22 C29 1.273 1_566 S
Cd23 O22 2.300 1_544 S
Cd23 O31 2.381 1_544 S
Cd23 O32 2.378 . S
O24 Cd25 2.385 . S
O24 C29 1.260 . S
Cd25 O24 2.385 . S
Cd25 O26 2.317 . S
O26 Cd25 2.317 . S
O26 C27 1.232 . S
C27 O26 1.232 . S
C27 O28 1.218 . S
O28 C27 1.218 . S
C29 O22 1.273 1_544 S
C29 O24 1.260 . S
C30 O31 1.258 1_544 S
C30 O32 1.256 . S
O31 Cd23 2.381 1_566 S
O31 C30 1.258 1_566 S
O32 Cd23 2.378 . S
O32 C30 1.256 . S
O33 Cd34 2.300 1_556 S
O33 C40 1.275 . S
Cd34 O33 2.300 1_554 S
Cd34 O42 2.381 1_554 S
Cd34 O43 2.378 . S
O35 Cd36 2.385 . S
O35 C40 1.255 1_554 S
Cd36 O35 2.385 . S
Cd36 O37 2.317 . S
O37 Cd36 2.317 . S
O37 C38 1.232 . S
C38 O37 1.232 . S
C38 O39 1.218 . S
O39 C38 1.218 . S
C40 O33 1.275 . S
C40 O35 1.255 1_556 S
C41 O42 1.258 . S
C41 O43 1.256 1_556 S
O42 Cd34 2.381 1_556 S
O42 C41 1.258 . S
O43 Cd34 2.378 . S
O43 C41 1.256 1_554 S
O44 Cd45 2.300 . S
O44 C51 1.275 . S
Cd45 O44 2.300 . S
Cd45 O53 2.381 . S
Cd45 O54 2.378 . S
O46 Cd47 2.385 . S
O46 C51 1.255 . S
Cd47 O46 2.385 . S
Cd47 O48 2.317 . S
O48 Cd47 2.317 . S
O48 C49 1.232 . S
C49 O48 1.232 . S
C49 O50 1.218 . S
O50 C49 1.218 . S
C51 O44 1.275 . S
C51 O46 1.255 . S
C52 O53 1.258 . S
C52 O54 1.256 . S
O53 Cd45 2.381 . S
O53 C52 1.258 . S
O54 Cd45 2.378 . S
O54 C52 1.256 . S
O55 Cd56 2.300 . S
O55 C62 1.275 . S
Cd56 O55 2.300 . S
Cd56 O64 2.381 . S
Cd56 O65 2.378 . S
O57 Cd58 2.385 . S
O57 C62 1.255 . S
Cd58 O57 2.385 . S
Cd58 O59 2.317 . S
O59 Cd58 2.317 . S
O59 C60 1.232 . S
C60 O59 1.232 . S
C60 O61 1.218 . S
O61 C60 1.218 . S
C62 O55 1.275 . S
C62 O57 1.255 . S
C63 O64 1.258 . S
C63 O65 1.256 . S
O64 Cd56 2.381 . S
O64 C63 1.258 . S
O65 Cd56 2.378 . S
O65 C63 1.256 . S
O66 Cd67 2.300 . S
O66 C73 1.275 . S
Cd67 O66 2.300 . S
Cd67 O75 2.381 1_545 S
Cd67 O76 2.378 . S
O68 Cd69 2.385 . S
O68 C73 1.255 . S
Cd69 O68 2.385 . S
Cd69 O70 2.317 . S
O70 Cd69 2.317 . S
O70 C71 1.232 . S
C71 O70 1.232 . S
C71 O72 1.218 . S
O72 C71 1.218 . S
C73 O66 1.275 . S
C73 O68 1.255 . S
C74 O75 1.258 1_545 S
C74 O76 1.256 . S
O75 Cd67 2.381 1_565 S
O75 C74 1.258 1_565 S
O76 Cd67 2.378 . S
O76 C74 1.256 . S
O77 Cd78 2.300 . S
O77 C84 1.275 . S
Cd78 O77 2.300 . S
Cd78 O86 2.381 . S
Cd78 O87 2.378 . S
O79 Cd80 2.385 . S
O79 C84 1.255 . S
Cd80 O79 2.385 . S
Cd80 O81 2.317 . S
O81 Cd80 2.317 . S
O81 C82 1.232 . S
C82 O81 1.232 . S
C82 O83 1.218 . S
O83 C82 1.218 . S
C84 O77 1.275 . S
C84 O79 1.255 . S
C85 O86 1.258 . S
C85 O87 1.256 . S
O86 Cd78 2.381 . S
O86 C85 1.258 . S
O87 Cd78 2.378 . S
O87 C85 1.256 . S
O88 Zn89 1.954 . S
O88 C104 1.225 1_545 S
Zn89 O88 1.954 . S
Zn89 O90 1.949 1_545 S
Zn89 O96 1.924 . S
Zn89 O101 1.918 1_545 S
O90 Zn89 1.949 1_565 S
O90 Zn91 1.885 1_465 S
O90 Zn92 1.952 . S
O90 Zn93 1.965 1_455 S
Zn91 O90 1.885 1_645 S
Zn91 O94 1.963 . S
Zn91 O97 1.931 1_655 S
Zn91 O98 1.962 1_655 S
Zn92 O90 1.952 . S
Zn92 O99 1.938 1_565 S
Zn92 O100 1.906 . S
Zn92 O110 1.953 . S
Zn93 O90 1.965 1_655 S
Zn93 O95 1.932 . S
Zn93 O102 1.977 . S
Zn93 O103 1.910 1_655 S
O94 Zn91 1.963 . S
O94 C105 1.226 . S
O95 Zn93 1.932 . S
O95 C105 1.307 1_565 S
O96 Zn89 1.924 . S
O96 C107 1.253 . S
O97 Zn91 1.931 1_455 S
O97 C107 1.283 . S
O98 Zn91 1.962 1_455 S
O98 C106 1.303 . S
O99 Zn92 1.938 1_545 S
O99 C106 1.247 . S
O100 Zn92 1.906 . S
O100 C108 1.304 1_455 S
O101 Zn89 1.918 1_565 S
O101 C109 1.311 . S
O102 Zn93 1.977 . S
O102 C108 1.272 . S
O103 Zn93 1.910 1_455 S
O103 C109 1.231 . S
C104 O88 1.225 1_565 S
C104 O110 1.298 . S
C105 O94 1.226 . S
C105 O95 1.307 1_545 S
C106 O98 1.303 . S
C106 O99 1.247 . S
C107 O96 1.253 . S
C107 O97 1.283 . S
C108 O100 1.304 1_655 S
C108 O102 1.272 . S
C109 O101 1.311 . S
C109 O103 1.231 . S
O110 Zn92 1.953 . S
O110 C104 1.298 . S
O111 Zn112 1.953 . S
O111 C127 1.225 . S
Zn112 O111 1.953 . S
Zn112 O113 1.949 . S
Zn112 O119 1.919 . S
Zn112 O124 1.924 . S
O113 Zn112 1.949 . S
O113 Zn114 1.923 1_545 S
O113 Zn115 1.950 . S
O113 Zn116 1.945 1_545 S
Zn114 O113 1.923 1_565 S
Zn114 O117 1.933 . S
Zn114 O120 1.941 . S
Zn114 O121 1.965 . S
Zn115 O113 1.950 . S
Zn115 O122 1.938 . S
Zn115 O123 1.906 . S
Zn115 O133 1.953 . S
Zn116 O113 1.945 1_565 S
Zn116 O118 1.932 . S
Zn116 O125 1.977 . S
Zn116 O126 1.910 1_565 S
O117 Zn114 1.933 . S
O117 C128 1.226 . S
O118 Zn116 1.932 . S
O118 C128 1.307 . S
O119 Zn112 1.919 . S
O119 C130 1.253 . S
O120 Zn114 1.941 . S
O120 C130 1.283 1_565 S
O121 Zn114 1.965 . S
O121 C129 1.303 1_565 S
O122 Zn115 1.938 . S
O122 C129 1.247 . S
O123 Zn115 1.906 . S
O123 C131 1.304 1_545 S
O124 Zn112 1.924 . S
O124 C132 1.311 . S
O125 Zn116 1.977 . S
O125 C131 1.272 . S
O126 Zn116 1.910 1_545 S
O126 C132 1.231 . S
C127 O111 1.225 . S
C127 O133 1.298 . S
C128 O117 1.226 . S
C128 O118 1.307 . S
C129 O121 1.303 1_545 S
C129 O122 1.247 . S
C130 O119 1.253 . S
C130 O120 1.283 1_545 S
C131 O123 1.304 1_565 S
C131 O125 1.272 . S
C132 O124 1.311 . S
C132 O126 1.231 . S
O133 Zn115 1.953 . S
O133 C127 1.298 . S
O134 Zn135 1.953 . S
O134 C150 1.225 . S
Zn135 O134 1.953 . S
Zn135 O136 1.949 . S
Zn135 O142 1.919 . S
Zn135 O147 1.924 . S
O136 Zn135 1.949 . S
O136 Zn137 1.923 . S
O136 Zn138 1.950 . S
O136 Zn139 1.945 . S
Zn137 O136 1.923 . S
Zn137 O140 1.933 . S
Zn137 O143 1.941 . S
Zn137 O144 1.965 . S
Zn138 O136 1.950 . S
Zn138 O145 1.938 . S
Zn138 O146 1.906 . S
Zn138 O156 1.953 . S
Zn139 O136 1.945 . S
Zn139 O141 1.932 . S
Zn139 O148 1.977 . S
Zn139 O149 1.910 . S
O140 Zn137 1.933 . S
O140 C151 1.226 . S
O141 Zn139 1.932 . S
O141 C151 1.307 . S
O142 Zn135 1.919 . S
O142 C153 1.253 . S
O143 Zn137 1.941 . S
O143 C153 1.283 . S
O144 Zn137 1.965 . S
O144 C152 1.303 . S
O145 Zn138 1.938 . S
O145 C152 1.247 . S
O146 Zn138 1.906 . S
O146 C154 1.304 . S
O147 Zn135 1.924 . S
O147 C155 1.311 . S
O148 Zn139 1.977 . S
O148 C154 1.272 . S
O149 Zn139 1.910 . S
O149 C155 1.231 . S
C150 O134 1.225 . S
C150 O156 1.298 . S
C151 O140 1.226 . S
C151 O141 1.307 . S
C152 O144 1.303 . S
C152 O145 1.247 . S
C153 O142 1.253 . S
C153 O143 1.283 . S
C154 O146 1.304 . S
C154 O148 1.272 . S
C155 O147 1.311 . S
C155 O149 1.231 . S
O156 Zn138 1.953 . S
O156 C150 1.298 . S
O157 Zn158 1.953 1_655 S
O157 C173 1.225 . S
Zn158 O157 1.953 1_455 S
Zn158 O159 1.949 . S
Zn158 O165 1.919 . S
Zn158 O170 1.924 . S
O159 Zn158 1.949 . S
O159 Zn160 1.917 1_455 S
O159 Zn161 1.929 1_455 S
O159 Zn162 1.973 . S
Zn160 O159 1.917 1_655 S
Zn160 O163 1.933 1_655 S
Zn160 O166 1.941 . S
Zn160 O167 1.965 . S
Zn161 O159 1.929 1_655 S
Zn161 O168 1.938 . S
Zn161 O169 1.906 . S
Zn161 O179 1.953 . S
Zn162 O159 1.973 . S
Zn162 O164 1.932 . S
Zn162 O171 1.977 . S
Zn162 O172 1.910 . S
O163 Zn160 1.933 1_455 S
O163 C174 1.226 . S
O164 Zn162 1.932 . S
O164 C174 1.307 . S
O165 Zn158 1.919 . S
O165 C176 1.252 1_455 S
O166 Zn160 1.941 . S
O166 C176 1.287 . S
O167 Zn160 1.965 . S
O167 C175 1.303 . S
O168 Zn161 1.938 . S
O168 C175 1.247 . S
O169 Zn161 1.906 . S
O169 C177 1.304 1_655 S
O170 Zn158 1.924 . S
O170 C178 1.311 . S
O171 Zn162 1.977 . S
O171 C177 1.272 . S
O172 Zn162 1.910 . S
O172 C178 1.231 . S
C173 O157 1.225 . S
C173 O179 1.298 . S
C174 O163 1.226 . S
C174 O164 1.307 . S
C175 O167 1.303 . S
C175 O168 1.247 . S
C176 O165 1.252 1_655 S
C176 O166 1.287 . S
C177 O169 1.304 1_455 S
C177 O171 1.272 . S
C178 O170 1.311 . S
C178 O172 1.231 . S
O179 Zn161 1.953 . S
O179 C173 1.298 . S
C180 C181 1.391 . S
C180 C182 1.394 . S
C180 H196 0.931 . S
C181 C180 1.391 . S
C181 C185 1.376 . S
C182 C180 1.394 . S
C182 C183 1.369 . S
C182 C186 1.531 . S
C183 C182 1.369 . S
C183 C184 1.410 . S
C183 C191 1.503 . S
C184 C183 1.410 . S
C184 C185 1.392 . S
C184 C187 1.511 . S
C185 C181 1.376 . S
C185 C184 1.392 . S
C185 H197 0.929 . S
C186 C182 1.531 . S
C186 H198 0.960 . S
C186 H199 0.939 1_545 S
C186 H200 0.960 . S
C187 C184 1.511 . S
C187 H201 0.961 1_545 S
C187 H202 0.961 1_545 S
C187 H203 0.961 . S
C188 C189 1.370 . S
C188 C190 1.363 . S
C188 H204 0.931 . S
C189 C188 1.370 . S
C189 C193 1.408 1_565 S
C190 C188 1.363 . S
C190 C191 1.370 1_565 S
C190 C194 1.524 . S
C191 C183 1.503 . S
C191 C190 1.370 1_545 S
C191 C192 1.403 . S
C192 C191 1.403 . S
C192 C193 1.404 . S
C192 C195 1.539 . S
C193 C189 1.408 1_545 S
C193 C192 1.404 . S
C193 H205 0.930 . S
C194 C190 1.524 . S
C194 H206 0.956 . S
C194 H207 0.961 . S
C194 H208 0.961 . S
C195 C192 1.539 . S
C195 H209 0.958 . S
C195 H210 0.961 . S
C195 H211 0.960 . S
H196 C180 0.931 . S
H197 C185 0.929 . S
H198 C186 0.960 . S
H199 C186 0.939 1_565 S
H200 C186 0.960 . S
H201 C187 0.961 1_565 S
H202 C187 0.961 1_565 S
H203 C187 0.961 . S
H204 C188 0.931 . S
H205 C193 0.930 . S
H206 C194 0.956 . S
H207 C194 0.961 . S
H208 C194 0.961 . S
H209 C195 0.958 . S
H210 C195 0.961 . S
H211 C195 0.960 . S
C212 C213 1.391 . S
C212 C214 1.394 . S
C212 H228 0.931 . S
C213 C212 1.391 . S
C213 C217 1.376 . S
C214 C212 1.394 . S
C214 C215 1.369 . S
C214 C218 1.531 . S
C215 C214 1.369 . S
C215 C216 1.410 . S
C215 C223 1.503 . S
C216 C215 1.410 . S
C216 C217 1.392 . S
C216 C219 1.511 . S
C217 C213 1.376 . S
C217 C216 1.392 . S
C217 H229 0.929 . S
C218 C214 1.531 . S
C218 H230 0.960 . S
C218 H231 0.962 . S
C218 H232 0.960 . S
C219 C216 1.511 . S
C219 H233 0.961 . S
C219 H234 0.961 . S
C219 H235 0.961 . S
C220 C221 1.370 . S
C220 C222 1.363 . S
C220 H236 0.931 . S
C221 C220 1.370 . S
C221 C225 1.408 . S
C222 C220 1.363 . S
C222 C223 1.370 . S
C222 C226 1.524 . S
C223 C215 1.503 . S
C223 C222 1.370 . S
C223 C224 1.403 . S
C224 C223 1.403 . S
C224 C225 1.404 . S
C224 C227 1.539 . S
C225 C221 1.408 . S
C225 C224 1.404 . S
C225 H237 0.930 . S
C226 C222 1.524 . S
C226 H238 0.956 . S
C226 H239 0.961 . S
C226 H240 0.961 . S
C227 C224 1.539 . S
C227 H241 0.958 . S
C227 H242 0.961 . S
C227 H243 0.960 . S
H228 C212 0.931 . S
H229 C217 0.929 . S
H230 C218 0.960 . S
H231 C218 0.962 . S
H232 C218 0.960 . S
H233 C219 0.961 . S
H234 C219 0.961 . S
H235 C219 0.961 . S
H236 C220 0.931 . S
H237 C225 0.930 . S
H238 C226 0.956 . S
H239 C226 0.961 . S
H240 C226 0.961 . S
H241 C227 0.958 . S
H242 C227 0.961 . S
H243 C227 0.960 . S
C244 C245 1.391 . S
C244 C246 1.394 . S
C244 H260 0.931 . S
C245 C244 1.391 . S
C245 C249 1.376 . S
C246 C244 1.394 . S
C246 C247 1.369 . S
C246 C250 1.531 . S
C247 C246 1.369 . S
C247 C248 1.410 . S
C247 C255 1.503 . S
C248 C247 1.410 . S
C248 C249 1.392 . S
C248 C251 1.511 . S
C249 C245 1.376 . S
C249 C248 1.392 . S
C249 H261 0.929 . S
C250 C246 1.531 . S
C250 H262 0.960 . S
C250 H263 0.962 . S
C250 H264 0.960 . S
C251 C248 1.511 . S
C251 H265 0.961 . S
C251 H266 0.961 . S
C251 H267 0.961 . S
C252 C253 1.370 . S
C252 C254 1.363 . S
C252 H268 0.931 . S
C253 C252 1.370 . S
C253 C257 1.408 . S
C254 C252 1.363 . S
C254 C255 1.370 . S
C254 C258 1.524 . S
C255 C247 1.503 . S
C255 C254 1.370 . S
C255 C256 1.403 . S
C256 C255 1.403 . S
C256 C257 1.404 . S
C256 C259 1.539 . S
C257 C253 1.408 . S
C257 C256 1.404 . S
C257 H269 0.930 . S
C258 C254 1.524 . S
C258 H270 0.956 . S
C258 H271 0.961 . S
C258 H272 0.961 . S
C259 C256 1.539 . S
C259 H273 0.958 . S
C259 H274 0.961 . S
C259 H275 0.960 . S
H260 C244 0.931 . S
H261 C249 0.929 . S
H262 C250 0.960 . S
H263 C250 0.962 . S
H264 C250 0.960 . S
H265 C251 0.961 . S
H266 C251 0.961 . S
H267 C251 0.961 . S
H268 C252 0.931 . S
H269 C257 0.930 . S
H270 C258 0.956 . S
H271 C258 0.961 . S
H272 C258 0.961 . S
H273 C259 0.958 . S
H274 C259 0.961 . S
H275 C259 0.960 . S
C276 C277 1.391 . S
C276 C278 1.394 . S
C276 H292 0.931 . S
C277 C276 1.391 . S
C277 C281 1.376 . S
C278 C276 1.394 . S
C278 C279 1.369 . S
C278 C282 1.531 1_455 S
C279 C278 1.369 . S
C279 C280 1.410 . S
C279 C287 1.503 . S
C280 C279 1.410 . S
C280 C281 1.392 . S
C280 C283 1.511 . S
C281 C277 1.376 . S
C281 C280 1.392 . S
C281 H293 0.929 . S
C282 C278 1.531 1_655 S
C282 H294 0.960 1_655 S
C282 H295 0.961 . S
C282 H296 0.960 . S
C283 C280 1.511 . S
C283 H297 0.961 . S
C283 H298 0.961 . S
C283 H299 0.961 . S
C284 C285 1.370 . S
C284 C286 1.363 . S
C284 H300 0.931 1_455 S
C285 C284 1.370 . S
C285 C289 1.408 . S
C286 C284 1.363 . S
C286 C287 1.370 . S
C286 C290 1.520 1_455 S
C287 C279 1.503 . S
C287 C286 1.370 . S
C287 C288 1.403 . S
C288 C287 1.403 . S
C288 C289 1.404 . S
C288 C291 1.539 . S
C289 C285 1.408 . S
C289 C288 1.404 . S
C289 H301 0.930 . S
C290 C286 1.520 1_655 S
C290 H302 0.961 . S
C290 H303 0.953 1_655 S
C290 H304 0.966 . S
C291 C288 1.539 . S
C291 H305 0.958 . S
C291 H306 0.961 . S
C291 H307 0.960 . S
H292 C276 0.931 . S
H293 C281 0.929 . S
H294 C282 0.960 1_455 S
H295 C282 0.961 . S
H296 C282 0.960 . S
H297 C283 0.961 . S
H298 C283 0.961 . S
H299 C283 0.961 . S
H300 C284 0.931 1_655 S
H301 C289 0.930 . S
H302 C290 0.961 . S
H303 C290 0.953 1_455 S
H304 C290 0.966 . S
H305 C291 0.958 . S
H306 C291 0.961 . S
H307 C291 0.960 . S
C308 C309 1.391 . S
C308 C310 1.394 . S
C308 H324 0.931 . S
C309 C308 1.391 . S
C309 C313 1.376 1_546 S
C310 C308 1.394 . S
C310 C311 1.369 . S
C310 C314 1.531 . S
C311 C310 1.369 . S
C311 C312 1.410 1_545 S
C311 C319 1.503 . S
C312 C311 1.410 1_565 S
C312 C313 1.392 1_556 S
C312 C315 1.511 1_556 S
C313 C309 1.376 1_564 S
C313 C312 1.392 1_554 S
C313 H325 0.929 . S
C314 C310 1.531 . S
C314 H326 0.960 . S
C314 H327 0.962 . S
C314 H328 0.960 . S
C315 C312 1.511 1_554 S
C315 H329 0.961 . S
C315 H330 0.961 . S
C315 H331 0.961 1_565 S
C316 C317 1.370 1_565 S
C316 C318 1.363 . S
C316 H332 0.931 . S
C317 C316 1.370 1_545 S
C317 C321 1.408 . S
C318 C316 1.363 . S
C318 C319 1.370 1_565 S
C318 C322 1.524 . S
C319 C311 1.503 . S
C319 C318 1.370 1_545 S
C319 C320 1.403 . S
C320 C319 1.403 . S
C320 C321 1.404 . S
C320 C323 1.539 . S
C321 C317 1.408 . S
C321 C320 1.404 . S
C321 H333 0.930 . S
C322 C318 1.524 . S
C322 H334 0.956 . S
C322 H335 0.961 . S
C322 H336 0.961 . S
C323 C320 1.539 . S
C323 H337 0.958 . S
C323 H338 0.961 . S
C323 H339 0.960 . S
H324 C308 0.931 . S
H325 C313 0.929 . S
H326 C314 0.960 . S
H327 C314 0.962 . S
H328 C314 0.960 . S
H329 C315 0.961 . S
H330 C315 0.961 . S
H331 C315 0.961 1_545 S
H332 C316 0.931 . S
H333 C321 0.930 . S
H334 C322 0.956 . S
H335 C322 0.961 . S
H336 C322 0.961 . S
H337 C323 0.958 . S
H338 C323 0.961 . S
H339 C323 0.960 . S
C340 C341 1.391 . S
C340 C342 1.394 . S
C340 H356 0.931 . S
C341 C340 1.391 . S
C341 C345 1.376 . S
C342 C340 1.394 . S
C342 C343 1.369 . S
C342 C346 1.531 . S
C343 C342 1.369 . S
C343 C344 1.410 . S
C343 C351 1.503 . S
C344 C343 1.410 . S
C344 C345 1.392 . S
C344 C347 1.511 . S
C345 C341 1.376 . S
C345 C344 1.392 . S
C345 H357 0.929 . S
C346 C342 1.531 . S
C346 H358 0.960 . S
C346 H359 0.962 . S
C346 H360 0.960 . S
C347 C344 1.511 . S
C347 H361 0.961 . S
C347 H362 0.961 . S
C347 H363 0.961 . S
C348 C349 1.370 . S
C348 C350 1.363 . S
C348 H364 0.931 . S
C349 C348 1.370 . S
C349 C353 1.408 . S
C350 C348 1.363 . S
C350 C351 1.370 . S
C350 C354 1.524 . S
C351 C343 1.503 . S
C351 C350 1.370 . S
C351 C352 1.403 . S
C352 C351 1.403 . S
C352 C353 1.404 . S
C352 C355 1.539 . S
C353 C349 1.408 . S
C353 C352 1.404 . S
C353 H365 0.930 . S
C354 C350 1.524 . S
C354 H366 0.956 . S
C354 H367 0.961 . S
C354 H368 0.961 . S
C355 C352 1.539 . S
C355 H369 0.958 . S
C355 H370 0.961 . S
C355 H371 0.960 . S
H356 C340 0.931 . S
H357 C345 0.929 . S
H358 C346 0.960 . S
H359 C346 0.962 . S
H360 C346 0.960 . S
H361 C347 0.961 . S
H362 C347 0.961 . S
H363 C347 0.961 . S
H364 C348 0.931 . S
H365 C353 0.930 . S
H366 C354 0.956 . S
H367 C354 0.961 . S
H368 C354 0.961 . S
H369 C355 0.958 . S
H370 C355 0.961 . S
H371 C355 0.960 . S
C372 C373 1.391 . S
C372 C374 1.394 . S
C372 H388 0.931 . S
C373 C372 1.391 . S
C373 C377 1.376 . S
C374 C372 1.394 . S
C374 C375 1.369 . S
C374 C378 1.531 . S
C375 C374 1.369 . S
C375 C376 1.410 . S
C375 C383 1.503 . S
C376 C375 1.410 . S
C376 C377 1.392 . S
C376 C379 1.511 . S
C377 C373 1.376 . S
C377 C376 1.392 . S
C377 H389 0.929 1_556 S
C378 C374 1.531 . S
C378 H390 0.960 . S
C378 H391 0.962 . S
C378 H392 0.960 . S
C379 C376 1.511 . S
C379 H393 0.961 1_556 S
C379 H394 0.961 . S
C379 H395 0.961 . S
C380 C381 1.370 . S
C380 C382 1.363 . S
C380 H396 0.931 . S
C381 C380 1.370 . S
C381 C385 1.408 . S
C382 C380 1.363 . S
C382 C383 1.370 . S
C382 C386 1.524 . S
C383 C375 1.503 . S
C383 C382 1.370 . S
C383 C384 1.403 . S
C384 C383 1.403 . S
C384 C385 1.404 . S
C384 C387 1.539 . S
C385 C381 1.408 . S
C385 C384 1.404 . S
C385 H397 0.930 . S
C386 C382 1.524 . S
C386 H398 0.956 . S
C386 H399 0.961 . S
C386 H400 0.961 . S
C387 C384 1.539 . S
C387 H401 0.958 . S
C387 H402 0.961 . S
C387 H403 0.960 . S
H388 C372 0.931 . S
H389 C377 0.929 1_554 S
H390 C378 0.960 . S
H391 C378 0.962 . S
H392 C378 0.960 . S
H393 C379 0.961 1_554 S
H394 C379 0.961 . S
H395 C379 0.961 . S
H396 C380 0.931 . S
H397 C385 0.930 . S
H398 C386 0.956 . S
H399 C386 0.961 . S
H400 C386 0.961 . S
H401 C387 0.958 . S
H402 C387 0.961 . S
H403 C387 0.960 . S
C404 C405 1.391 1_455 S
C404 C406 1.394 1_554 S
C404 H420 0.931 . S
C405 C404 1.391 1_655 S
C405 C409 1.376 1_554 S
C406 C404 1.394 1_556 S
C406 C407 1.369 1_455 S
C406 C410 1.531 . S
C407 C406 1.369 1_655 S
C407 C408 1.410 . S
C407 C415 1.505 . S
C408 C407 1.410 . S
C408 C409 1.392 . S
C408 C411 1.511 . S
C409 C405 1.376 1_556 S
C409 C408 1.392 . S
C409 H421 0.929 . S
C410 C406 1.531 . S
C410 H422 0.960 . S
C410 H423 0.962 . S
C410 H424 0.960 1_556 S
C411 C408 1.511 . S
C411 H425 0.961 . S
C411 H426 0.961 . S
C411 H427 0.961 . S
C412 C413 1.370 . S
C412 C414 1.363 . S
C412 H428 0.931 . S
C413 C412 1.370 . S
C413 C417 1.408 1_455 S
C414 C412 1.363 . S
C414 C415 1.361 1_455 S
C414 C418 1.524 . S
C415 C407 1.505 . S
C415 C414 1.361 1_655 S
C415 C416 1.410 . S
C416 C415 1.410 . S
C416 C417 1.404 . S
C416 C419 1.539 . S
C417 C413 1.408 1_655 S
C417 C416 1.404 . S
C417 H429 0.930 . S
C418 C414 1.524 . S
C418 H430 0.956 . S
C418 H431 0.961 . S
C418 H432 0.961 . S
C419 C416 1.539 . S
C419 H433 0.958 1_556 S
C419 H434 0.961 . S
C419 H435 0.960 . S
H420 C404 0.931 . S
H421 C409 0.929 . S
H422 C410 0.960 . S
H423 C410 0.962 . S
H424 C410 0.960 1_554 S
H425 C411 0.961 . S
H426 C411 0.961 . S
H427 C411 0.961 . S
H428 C412 0.931 . S
H429 C417 0.930 . S
H430 C418 0.956 . S
H431 C418 0.961 . S
H432 C418 0.961 . S
H433 C419 0.958 1_554 S
H434 C419 0.961 . S
H435 C419 0.960 . S
C436 C437 1.391 . S
C436 C438 1.394 . S
C436 H452 0.931 . S
C437 C436 1.391 . S
C437 C441 1.376 . S
C438 C436 1.394 . S
C438 C439 1.369 . S
C438 C442 1.531 1_455 S
C439 C438 1.369 . S
C439 C440 1.410 . S
C439 C447 1.503 . S
C440 C439 1.410 . S
C440 C441 1.392 . S
C440 C443 1.511 . S
C441 C437 1.376 . S
C441 C440 1.392 . S
C441 H453 0.929 . S
C442 C438 1.531 1_655 S
C442 H454 0.960 . S
C442 H455 0.962 . S
C442 H456 0.960 . S
C443 C440 1.511 . S
C443 H457 0.961 . S
C443 H458 0.961 . S
C443 H459 0.961 . S
C444 C445 1.370 . S
C444 C446 1.363 . S
C444 H460 0.931 . S
C445 C444 1.370 . S
C445 C449 1.408 . S
C446 C444 1.363 . S
C446 C447 1.370 . S
C446 C450 1.524 . S
C447 C439 1.503 . S
C447 C446 1.370 . S
C447 C448 1.403 . S
C448 C447 1.403 . S
C448 C449 1.404 . S
C448 C451 1.539 . S
C449 C445 1.408 . S
C449 C448 1.404 . S
C449 H461 0.930 . S
C450 C446 1.524 . S
C450 H462 0.956 . S
C450 H463 0.961 . S
C450 H464 0.961 . S
C451 C448 1.539 . S
C451 H465 0.958 . S
C451 H466 0.961 . S
C451 H467 0.960 . S
H452 C436 0.931 . S
H453 C441 0.929 . S
H454 C442 0.960 . S
H455 C442 0.962 . S
H456 C442 0.960 . S
H457 C443 0.961 . S
H458 C443 0.961 . S
H459 C443 0.961 . S
H460 C444 0.931 . S
H461 C449 0.930 . S
H462 C450 0.956 . S
H463 C450 0.961 . S
H464 C450 0.961 . S
H465 C451 0.958 . S
H466 C451 0.961 . S
H467 C451 0.960 . S
C468 C469 1.391 . S
C468 C470 1.394 . S
C468 H484 0.931 . S
C469 C468 1.391 . S
C469 C473 1.376 . S
C470 C468 1.394 . S
C470 C471 1.369 . S
C470 C474 1.531 1_545 S
C471 C470 1.369 . S
C471 C472 1.410 . S
C471 C479 1.503 . S
C472 C471 1.410 . S
C472 C473 1.392 . S
C472 C475 1.511 . S
C473 C469 1.376 . S
C473 C472 1.392 . S
C473 H485 0.929 . S
C474 C470 1.531 1_565 S
C474 H486 0.960 . S
C474 H487 0.962 1_565 S
C474 H488 0.960 . S
C475 C472 1.511 . S
C475 H489 0.961 . S
C475 H490 0.961 . S
C475 H491 0.961 1_545 S
C476 C477 1.370 . S
C476 C478 1.363 . S
C476 H492 0.931 . S
C477 C476 1.370 . S
C477 C481 1.408 1_545 S
C478 C476 1.363 . S
C478 C479 1.370 . S
C478 C482 1.524 . S
C479 C471 1.503 . S
C479 C478 1.370 . S
C479 C480 1.403 1_545 S
C480 C479 1.403 1_565 S
C480 C481 1.404 . S
C480 C483 1.539 . S
C481 C477 1.408 1_565 S
C481 C480 1.404 . S
C481 H493 0.930 . S
C482 C478 1.524 . S
C482 H494 0.956 . S
C482 H495 0.961 . S
C482 H496 0.961 . S
C483 C480 1.539 . S
C483 H497 0.958 . S
C483 H498 0.961 . S
C483 H499 0.960 . S
H484 C468 0.931 . S
H485 C473 0.929 . S
H486 C474 0.960 . S
H487 C474 0.962 1_545 S
H488 C474 0.960 . S
H489 C475 0.961 . S
H490 C475 0.961 . S
H491 C475 0.961 1_565 S
H492 C476 0.931 . S
H493 C481 0.930 . S
H494 C482 0.956 . S
H495 C482 0.961 . S
H496 C482 0.961 . S
H497 C483 0.958 . S
H498 C483 0.961 . S
H499 C483 0.960 . S
C500 C501 1.391 . S
C500 C502 1.394 . S
C500 H516 0.931 . S
C501 C500 1.391 . S
C501 C505 1.376 . S
C502 C500 1.394 . S
C502 C503 1.369 . S
C502 C506 1.531 . S
C503 C502 1.369 . S
C503 C504 1.410 . S
C503 C511 1.503 . S
C504 C503 1.410 . S
C504 C505 1.392 . S
C504 C507 1.511 . S
C505 C501 1.376 . S
C505 C504 1.392 . S
C505 H517 0.929 . S
C506 C502 1.531 . S
C506 H518 0.960 . S
C506 H519 0.962 . S
C506 H520 0.960 . S
C507 C504 1.511 . S
C507 H521 0.961 . S
C507 H522 0.961 . S
C507 H523 0.961 . S
C508 C509 1.370 . S
C508 C510 1.363 . S
C508 H524 0.931 . S
C509 C508 1.370 . S
C509 C513 1.408 . S
C510 C508 1.363 . S
C510 C511 1.370 . S
C510 C514 1.524 . S
C511 C503 1.503 . S
C511 C510 1.370 . S
C511 C512 1.403 . S
C512 C511 1.403 . S
C512 C513 1.404 . S
C512 C515 1.539 . S
C513 C509 1.408 . S
C513 C512 1.404 . S
C513 H525 0.930 . S
C514 C510 1.524 . S
C514 H526 0.956 . S
C514 H527 0.961 . S
C514 H528 0.961 . S
C515 C512 1.539 . S
C515 H529 0.958 . S
C515 H530 0.961 . S
C515 H531 0.960 . S
H516 C500 0.931 . S
H517 C505 0.929 . S
H518 C506 0.960 . S
H519 C506 0.962 . S
H520 C506 0.960 . S
H521 C507 0.961 . S
H522 C507 0.961 . S
H523 C507 0.961 . S
H524 C508 0.931 . S
H525 C513 0.930 . S
H526 C514 0.956 . S
H527 C514 0.961 . S
H528 C514 0.961 . S
H529 C515 0.958 . S
H530 C515 0.961 . S
H531 C515 0.960 . S
C532 C533 1.391 . S
C532 C534 1.394 . S
C532 H548 0.931 . S
C533 C532 1.391 . S
C533 C537 1.376 . S
C534 C532 1.394 . S
C534 C535 1.369 . S
C534 C538 1.531 . S
C535 C534 1.369 . S
C535 C536 1.410 . S
C535 C543 1.503 . S
C536 C535 1.410 . S
C536 C537 1.392 . S
C536 C539 1.511 . S
C537 C533 1.376 . S
C537 C536 1.392 . S
C537 H549 0.929 . S
C538 C534 1.531 . S
C538 H550 0.960 . S
C538 H551 0.962 . S
C538 H552 0.960 . S
C539 C536 1.511 . S
C539 H553 0.961 . S
C539 H554 0.961 . S
C539 H555 0.961 . S
C540 C541 1.370 . S
C540 C542 1.363 . S
C540 H556 0.931 . S
C541 C540 1.370 . S
C541 C545 1.408 . S
C542 C540 1.363 . S
C542 C543 1.370 . S
C542 C546 1.524 . S
C543 C535 1.503 . S
C543 C542 1.370 . S
C543 C544 1.403 . S
C544 C543 1.403 . S
C544 C545 1.404 . S
C544 C547 1.539 . S
C545 C541 1.408 . S
C545 C544 1.404 . S
C545 H557 0.930 . S
C546 C542 1.524 . S
C546 H558 0.956 . S
C546 H559 0.961 . S
C546 H560 0.961 . S
C547 C544 1.539 . S
C547 H561 0.958 . S
C547 H562 0.961 . S
C547 H563 0.960 . S
H548 C532 0.931 . S
H549 C537 0.929 . S
H550 C538 0.960 . S
H551 C538 0.962 . S
H552 C538 0.960 . S
H553 C539 0.961 . S
H554 C539 0.961 . S
H555 C539 0.961 . S
H556 C540 0.931 . S
H557 C545 0.930 . S
H558 C546 0.956 . S
H559 C546 0.961 . S
H560 C546 0.961 . S
H561 C547 0.958 . S
H562 C547 0.961 . S
H563 C547 0.960 . S
C564 C565 1.391 1_655 S
C564 C566 1.394 . S
C564 H580 0.931 . S
C565 C564 1.391 1_455 S
C565 C569 1.376 . S
C566 C564 1.394 . S
C566 C567 1.369 1_654 S
C566 C570 1.531 . S
C567 C566 1.369 1_456 S
C567 C568 1.410 . S
C567 C575 1.503 . S
C568 C567 1.410 . S
C568 C569 1.392 1_556 S
C568 C571 1.511 . S
C569 C565 1.376 . S
C569 C568 1.392 1_554 S
C569 H581 0.929 1_554 S
C570 C566 1.531 . S
C570 H582 0.960 . S
C570 H583 0.962 1_554 S
C570 H584 0.960 . S
C571 C568 1.511 . S
C571 H585 0.961 . S
C571 H586 0.961 . S
C571 H587 0.961 . S
C572 C573 1.370 . S
C572 C574 1.363 . S
C572 H588 0.931 . S
C573 C572 1.370 . S
C573 C577 1.408 . S
C574 C572 1.363 . S
C574 C575 1.370 . S
C574 C578 1.520 1_455 S
C575 C567 1.503 . S
C575 C574 1.370 . S
C575 C576 1.403 . S
C576 C575 1.403 . S
C576 C577 1.404 . S
C576 C579 1.539 1_556 S
C577 C573 1.408 . S
C577 C576 1.404 . S
C577 H589 0.930 . S
C578 C574 1.520 1_655 S
C578 H590 0.962 . S
C578 H591 0.958 1_655 S
C578 H592 0.962 . S
C579 C576 1.539 1_554 S
C579 H593 0.958 . S
C579 H594 0.961 . S
C579 H595 0.960 . S
H580 C564 0.931 . S
H581 C569 0.929 1_556 S
H582 C570 0.960 . S
H583 C570 0.962 1_556 S
H584 C570 0.960 . S
H585 C571 0.961 . S
H586 C571 0.961 . S
H587 C571 0.961 . S
H588 C572 0.931 . S
H589 C577 0.930 . S
H590 C578 0.962 . S
H591 C578 0.958 1_455 S
H592 C578 0.962 . S
H593 C579 0.958 . S
H594 C579 0.961 . S
H595 C579 0.960 . S
C596 C597 1.391 1_554 S
C596 C598 1.394 1_554 S
C596 H612 0.931 . S
C597 C596 1.391 1_556 S
C597 C601 1.376 . S
C598 C596 1.394 1_556 S
C598 C599 1.369 . S
C598 C602 1.531 1_556 S
C599 C598 1.369 . S
C599 C600 1.410 . S
C599 C607 1.503 . S
C600 C599 1.410 . S
C600 C601 1.392 . S
C600 C603 1.511 . S
C601 C597 1.376 . S
C601 C600 1.392 . S
C601 H613 0.929 1_545 S
C602 C598 1.531 1_554 S
C602 H614 0.960 . S
C602 H615 0.962 . S
C602 H616 0.960 . S
C603 C600 1.511 . S
C603 H617 0.961 1_545 S
C603 H618 0.961 . S
C603 H619 0.961 . S
C604 C605 1.370 . S
C604 C606 1.363 . S
C604 H620 0.931 1_545 S
C605 C604 1.370 . S
C605 C609 1.408 . S
C606 C604 1.363 . S
C606 C607 1.370 . S
C606 C610 1.524 1_545 S
C607 C599 1.503 . S
C607 C606 1.370 . S
C607 C608 1.403 . S
C608 C607 1.403 . S
C608 C609 1.404 . S
C608 C611 1.539 . S
C609 C605 1.408 . S
C609 C608 1.404 . S
C609 H621 0.930 . S
C610 C606 1.524 1_565 S
C610 H622 0.956 . S
C610 H623 0.961 . S
C610 H624 0.961 . S
C611 C608 1.539 . S
C611 H625 0.958 . S
C611 H626 0.961 . S
C611 H627 0.960 . S
H612 C596 0.931 . S
H613 C601 0.929 1_565 S
H614 C602 0.960 . S
H615 C602 0.962 . S
H616 C602 0.960 . S
H617 C603 0.961 1_565 S
H618 C603 0.961 . S
H619 C603 0.961 . S
H620 C604 0.931 1_565 S
H621 C609 0.930 . S
H622 C610 0.956 . S
H623 C610 0.961 . S
H624 C610 0.961 . S
H625 C611 0.958 . S
H626 C611 0.961 . S
H627 C611 0.960 . S
C628 C629 1.391 . S
C628 C630 1.394 . S
C628 H644 0.931 1_556 S
C629 C628 1.391 . S
C629 C633 1.376 . S
C630 C628 1.394 . S
C630 C631 1.369 . S
C630 C634 1.531 . S
C631 C630 1.369 . S
C631 C632 1.410 . S
C631 C639 1.503 . S
C632 C631 1.410 . S
C632 C633 1.392 . S
C632 C635 1.511 . S
C633 C629 1.376 . S
C633 C632 1.392 . S
C633 H645 0.929 . S
C634 C630 1.531 . S
C634 H646 0.960 . S
C634 H647 0.962 . S
C634 H648 0.960 1_556 S
C635 C632 1.511 . S
C635 H649 0.961 . S
C635 H650 0.961 . S
C635 H651 0.961 . S
C636 C637 1.370 . S
C636 C638 1.363 . S
C636 H652 0.931 . S
C637 C636 1.370 . S
C637 C641 1.408 . S
C638 C636 1.363 . S
C638 C639 1.370 . S
C638 C642 1.524 . S
C639 C631 1.503 . S
C639 C638 1.370 . S
C639 C640 1.403 . S
C640 C639 1.403 . S
C640 C641 1.404 . S
C640 C643 1.539 . S
C641 C637 1.408 . S
C641 C640 1.404 . S
C641 H653 0.930 . S
C642 C638 1.524 . S
C642 H654 0.956 . S
C642 H655 0.961 . S
C642 H656 0.961 . S
C643 C640 1.539 . S
C643 H657 0.958 . S
C643 H658 0.961 . S
C643 H659 0.960 . S
H644 C628 0.931 1_554 S
H645 C633 0.929 . S
H646 C634 0.960 . S
H647 C634 0.962 . S
H648 C634 0.960 1_554 S
H649 C635 0.961 . S
H650 C635 0.961 . S
H651 C635 0.961 . S
H652 C636 0.931 . S
H653 C641 0.930 . S
H654 C642 0.956 . S
H655 C642 0.961 . S
H656 C642 0.961 . S
H657 C643 0.958 . S
H658 C643 0.961 . S
H659 C643 0.960 . S
C660 C661 1.391 . S
C660 C662 1.394 . S
C660 H676 0.931 . S
C661 C660 1.391 . S
C661 C665 1.376 . S
C662 C660 1.394 . S
C662 C663 1.369 . S
C662 C666 1.531 . S
C663 C662 1.369 . S
C663 C664 1.410 . S
C663 C671 1.503 . S
C664 C663 1.410 . S
C664 C665 1.392 . S
C664 C667 1.511 . S
C665 C661 1.376 . S
C665 C664 1.392 . S
C665 H677 0.929 1_556 S
C666 C662 1.531 . S
C666 H678 0.960 . S
C666 H679 0.962 . S
C666 H680 0.960 . S
C667 C664 1.511 . S
C667 H681 0.961 1_556 S
C667 H682 0.961 . S
C667 H683 0.961 . S
C668 C669 1.370 . S
C668 C670 1.363 . S
C668 H684 0.931 . S
C669 C668 1.370 . S
C669 C673 1.408 . S
C670 C668 1.363 . S
C670 C671 1.370 . S
C670 C674 1.524 . S
C671 C663 1.503 . S
C671 C670 1.370 . S
C671 C672 1.403 . S
C672 C671 1.403 . S
C672 C673 1.404 . S
C672 C675 1.539 . S
C673 C669 1.408 . S
C673 C672 1.404 . S
C673 H685 0.930 . S
C674 C670 1.524 . S
C674 H686 0.956 . S
C674 H687 0.961 . S
C674 H688 0.961 . S
C675 C672 1.539 . S
C675 H689 0.958 . S
C675 H690 0.961 . S
C675 H691 0.960 . S
H676 C660 0.931 . S
H677 C665 0.929 1_554 S
H678 C666 0.960 . S
H679 C666 0.962 . S
H680 C666 0.960 . S
H681 C667 0.961 1_554 S
H682 C667 0.961 . S
H683 C667 0.961 . S
H684 C668 0.931 . S
H685 C673 0.930 . S
H686 C674 0.956 . S
H687 C674 0.961 . S
H688 C674 0.961 . S
H689 C675 0.958 . S
H690 C675 0.961 . S
H691 C675 0.960 . S
C692 C693 1.391 . S
C692 C694 1.394 . S
C692 H708 0.931 . S
C693 C692 1.391 . S
C693 C697 1.376 . S
C694 C692 1.394 . S
C694 C695 1.369 . S
C694 C698 1.531 . S
C695 C694 1.369 . S
C695 C696 1.410 . S
C695 C703 1.503 . S
C696 C695 1.410 . S
C696 C697 1.392 . S
C696 C699 1.511 . S
C697 C693 1.376 . S
C697 C696 1.392 . S
C697 H709 0.929 . S
C698 C694 1.531 . S
C698 H710 0.960 1_554 S
C698 H711 0.962 1_455 S
C698 H712 0.960 . S
C699 C696 1.511 . S
C699 H713 0.961 . S
C699 H714 0.961 . S
C699 H715 0.961 . S
C700 C701 1.370 1_554 S
C700 C702 1.363 . S
C700 H716 0.961 . S
C701 C700 1.370 1_556 S
C701 C705 1.408 . S
C702 C700 1.363 . S
C702 C703 1.370 . S
C702 C706 1.524 . S
C703 C695 1.503 . S
C703 C702 1.370 . S
C703 C704 1.403 1_554 S
C704 C703 1.403 1_556 S
C704 C705 1.404 . S
C704 C707 1.539 . S
C705 C701 1.408 . S
C705 C704 1.404 . S
C705 H717 0.930 . S
C706 C702 1.524 . S
C706 H718 0.956 1_455 S
C706 H719 0.961 . S
C706 H720 0.961 1_455 S
C707 C704 1.539 . S
C707 H721 0.958 . S
C707 H722 0.961 . S
C707 H723 0.960 . S
H708 C692 0.931 . S
H709 C697 0.929 . S
H710 C698 0.960 1_556 S
H711 C698 0.962 1_655 S
H712 C698 0.960 . S
H713 C699 0.961 . S
H714 C699 0.961 . S
H715 C699 0.961 . S
H716 C700 0.961 . S
H717 C705 0.930 . S
H718 C706 0.956 1_655 S
H719 C706 0.961 . S
H720 C706 0.961 1_655 S
H721 C707 0.958 . S
H722 C707 0.961 . S
H723 C707 0.960 . S
C724 C725 1.391 1_565 S
C724 C726 1.394 . S
C724 H740 0.931 . S
C725 C724 1.391 1_545 S
C725 C729 1.376 . S
C726 C724 1.394 . S
C726 C727 1.369 1_565 S
C726 C730 1.531 1_554 S
C727 C726 1.369 1_545 S
C727 C728 1.410 . S
C727 C735 1.503 1_554 S
C728 C727 1.410 . S
C728 C729 1.392 . S
C728 C731 1.511 . S
C729 C725 1.376 . S
C729 C728 1.392 . S
C729 H741 0.929 . S
C730 C726 1.531 1_556 S
C730 H742 0.960 . S
C730 H743 0.962 . S
C730 H744 0.960 . S
C731 C728 1.511 . S
C731 H745 0.961 . S
C731 H746 0.961 . S
C731 H747 0.961 . S
C732 C733 1.370 1_565 S
C732 C734 1.363 1_556 S
C732 H748 0.931 . S
C733 C732 1.370 1_545 S
C733 C737 1.408 . S
C734 C732 1.363 1_554 S
C734 C735 1.370 1_564 S
C734 C738 1.524 . S
C735 C727 1.503 1_556 S
C735 C734 1.370 1_546 S
C735 C736 1.403 . S
C736 C735 1.403 . S
C736 C737 1.404 . S
C736 C739 1.539 . S
C737 C733 1.408 . S
C737 C736 1.404 . S
C737 H749 0.930 . S
C738 C734 1.524 . S
C738 H750 0.956 . S
C738 H751 0.961 . S
C738 H752 0.961 . S
C739 C736 1.539 . S
C739 H753 0.958 . S
C739 H754 0.961 . S
C739 H755 0.960 . S
H740 C724 0.931 . S
H741 C729 0.929 . S
H742 C730 0.960 . S
H743 C730 0.962 . S
H744 C730 0.960 . S
H745 C731 0.961 . S
H746 C731 0.961 . S
H747 C731 0.961 . S
H748 C732 0.931 . S
H749 C737 0.930 . S
H750 C738 0.956 . S
H751 C738 0.961 . S
H752 C738 0.961 . S
H753 C739 0.958 . S
H754 C739 0.961 . S
H755 C739 0.960 . S
C756 C757 1.391 . S
C756 C758 1.394 1_554 S
C756 H772 0.931 . S
C757 C756 1.391 . S
C757 C761 1.376 . S
C758 C756 1.394 1_556 S
C758 C759 1.369 1_556 S
C758 C762 1.531 . S
C759 C758 1.369 1_554 S
C759 C760 1.410 . S
C759 C767 1.503 1_554 S
C760 C759 1.410 . S
C760 C761 1.392 . S
C760 C763 1.511 . S
C761 C757 1.376 . S
C761 C760 1.392 . S
C761 H773 0.929 . S
C762 C758 1.531 . S
C762 H774 0.960 . S
C762 H775 0.962 . S
C762 H776 0.960 . S
C763 C760 1.511 . S
C763 H777 0.961 . S
C763 H778 0.961 . S
C763 H779 0.961 . S
C764 C765 1.370 . S
C764 C766 1.363 . S
C764 H780 0.931 . S
C765 C764 1.370 . S
C765 C769 1.408 . S
C766 C764 1.363 . S
C766 C767 1.370 . S
C766 C770 1.524 1_556 S
C767 C759 1.503 1_556 S
C767 C766 1.370 . S
C767 C768 1.403 . S
C768 C767 1.403 . S
C768 C769 1.404 . S
C768 C771 1.539 . S
C769 C765 1.408 . S
C769 C768 1.404 . S
C769 H781 0.930 . S
C770 C766 1.524 1_554 S
C770 H782 0.956 1_554 S
C770 H783 0.961 . S
C770 H784 0.961 1_554 S
C771 C768 1.539 . S
C771 H785 0.958 . S
C771 H786 0.961 . S
C771 H787 0.960 . S
H772 C756 0.931 . S
H773 C761 0.929 . S
H774 C762 0.960 . S
H775 C762 0.962 . S
H776 C762 0.960 . S
H777 C763 0.961 . S
H778 C763 0.961 . S
H779 C763 0.961 . S
H780 C764 0.931 . S
H781 C769 0.930 . S
H782 C770 0.956 1_556 S
H783 C770 0.961 . S
H784 C770 0.961 1_556 S
H785 C771 0.958 . S
H786 C771 0.961 . S
H787 C771 0.960 . S
C788 C789 1.391 . S
C788 C790 1.394 . S
C788 H804 0.931 . S
C789 C788 1.391 . S
C789 C793 1.376 . S
C790 C788 1.394 . S
C790 C791 1.369 . S
C790 C794 1.531 . S
C791 C790 1.369 . S
C791 C792 1.404 1_554 S
C791 C799 1.503 1_554 S
C792 C791 1.404 1_556 S
C792 C793 1.383 1_556 S
C792 C795 1.526 . S
C793 C789 1.376 . S
C793 C792 1.383 1_554 S
C793 H805 0.929 . S
C794 C790 1.531 . S
C794 H806 0.960 . S
C794 H807 0.962 . S
C794 H808 0.960 . S
C795 C792 1.526 . S
C795 H809 0.961 . S
C795 H810 0.961 . S
C795 H811 0.961 . S
C796 C797 1.370 . S
C796 C798 1.363 . S
C796 H812 0.931 . S
C797 C796 1.370 . S
C797 C801 1.408 . S
C798 C796 1.363 . S
C798 C799 1.370 . S
C798 C802 1.524 . S
C799 C791 1.503 1_556 S
C799 C798 1.370 . S
C799 C800 1.403 . S
C800 C799 1.403 . S
C800 C801 1.404 . S
C800 C803 1.539 . S
C801 C797 1.408 . S
C801 C800 1.404 . S
C801 H813 0.930 . S
C802 C798 1.524 . S
C802 H814 0.956 1_556 S
C802 H815 0.961 . S
C802 H816 0.961 . S
C803 C800 1.539 . S
C803 H817 0.958 1_556 S
C803 H818 0.961 . S
C803 H819 0.960 . S
H804 C788 0.931 . S
H805 C793 0.929 . S
H806 C794 0.960 . S
H807 C794 0.962 . S
H808 C794 0.960 . S
H809 C795 0.961 . S
H810 C795 0.961 . S
H811 C795 0.961 . S
H812 C796 0.931 . S
H813 C801 0.930 . S
H814 C802 0.956 1_554 S
H815 C802 0.961 . S
H816 C802 0.961 . S
H817 C803 0.958 1_554 S
H818 C803 0.961 . S
H819 C803 0.960 . S
C820 C821 1.391 . S
C820 C822 1.394 . S
C820 H836 0.931 . S
C821 C820 1.391 . S
C821 C825 1.376 1_455 S
C822 C820 1.394 . S
C822 C823 1.369 . S
C822 C826 1.531 . S
C823 C822 1.369 . S
C823 C824 1.410 1_455 S
C823 C831 1.503 1_455 S
C824 C823 1.410 1_655 S
C824 C825 1.392 . S
C824 C827 1.511 . S
C825 C821 1.376 1_655 S
C825 C824 1.392 . S
C825 H837 0.929 . S
C826 C822 1.531 . S
C826 H838 0.960 . S
C826 H839 0.962 . S
C826 H840 0.960 . S
C827 C824 1.511 . S
C827 H841 0.961 . S
C827 H842 0.961 . S
C827 H843 0.961 . S
C828 C829 1.370 . S
C828 C830 1.363 . S
C828 H844 0.931 . S
C829 C828 1.370 . S
C829 C833 1.408 1_655 S
C830 C828 1.363 . S
C830 C831 1.370 . S
C830 C834 1.524 . S
C831 C823 1.503 1_655 S
C831 C830 1.370 . S
C831 C832 1.403 1_655 S
C832 C831 1.403 1_455 S
C832 C833 1.404 . S
C832 C835 1.539 . S
C833 C829 1.408 1_455 S
C833 C832 1.404 . S
C833 H845 0.930 . S
C834 C830 1.524 . S
C834 H846 0.956 . S
C834 H847 0.961 . S
C834 H848 0.961 . S
C835 C832 1.539 . S
C835 H849 0.958 . S
C835 H850 0.961 . S
C835 H851 0.960 . S
H836 C820 0.931 . S
H837 C825 0.929 . S
H838 C826 0.960 . S
H839 C826 0.962 . S
H840 C826 0.960 . S
H841 C827 0.961 . S
H842 C827 0.961 . S
H843 C827 0.961 . S
H844 C828 0.931 . S
H845 C833 0.930 . S
H846 C834 0.956 . S
H847 C834 0.961 . S
H848 C834 0.961 . S
H849 C835 0.958 . S
H850 C835 0.961 . S
H851 C835 0.960 . S
C852 C853 1.391 . S
C852 C854 1.394 . S
C852 H868 0.931 . S
C853 C852 1.391 . S
C853 C857 1.369 1_565 S
C854 C852 1.394 . S
C854 C855 1.369 . S
C854 C858 1.531 . S
C855 C854 1.369 . S
C855 C856 1.410 . S
C855 C863 1.503 . S
C856 C855 1.410 . S
C856 C857 1.385 1_565 S
C856 C859 1.511 1_565 S
C857 C853 1.369 1_545 S
C857 C856 1.385 1_545 S
C857 H869 0.945 . S
C858 C854 1.531 . S
C858 H870 0.960 . S
C858 H871 0.962 . S
C858 H872 0.960 . S
C859 C856 1.511 1_545 S
C859 H873 0.961 . S
C859 H874 0.961 . S
C859 H875 0.961 1_545 S
C860 C861 1.370 1_545 S
C860 C862 1.363 . S
C860 H876 0.931 . S
C861 C860 1.370 1_565 S
C861 C865 1.408 . S
C862 C860 1.363 . S
C862 C863 1.370 1_545 S
C862 C866 1.524 . S
C863 C855 1.503 . S
C863 C862 1.370 1_565 S
C863 C864 1.403 . S
C864 C863 1.403 . S
C864 C865 1.404 . S
C864 C867 1.539 . S
C865 C861 1.408 . S
C865 C864 1.404 . S
C865 H877 0.930 . S
C866 C862 1.524 . S
C866 H878 0.956 . S
C866 H879 0.961 . S
C866 H880 0.961 . S
C867 C864 1.539 . S
C867 H881 0.958 . S
C867 H882 0.961 . S
C867 H883 0.960 . S
H868 C852 0.931 . S
H869 C857 0.945 . S
H870 C858 0.960 . S
H871 C858 0.962 . S
H872 C858 0.960 . S
H873 C859 0.961 . S
H874 C859 0.961 . S
H875 C859 0.961 1_565 S
H876 C860 0.931 . S
H877 C865 0.930 . S
H878 C866 0.956 . S
H879 C866 0.961 . S
H880 C866 0.961 . S
H881 C867 0.958 . S
H882 C867 0.961 . S
H883 C867 0.960 . S
C884 C885 1.391 . S
C884 C886 1.394 . S
C884 H900 0.931 . S
C885 C884 1.391 . S
C885 C889 1.376 . S
C886 C884 1.394 . S
C886 C887 1.369 . S
C886 C890 1.531 . S
C887 C886 1.369 . S
C887 C888 1.410 . S
C887 C895 1.503 . S
C888 C887 1.410 . S
C888 C889 1.392 . S
C888 C891 1.511 . S
C889 C885 1.376 . S
C889 C888 1.392 . S
C889 H901 0.929 . S
C890 C886 1.531 . S
C890 H902 0.960 . S
C890 H903 0.962 . S
C890 H904 0.960 . S
C891 C888 1.511 . S
C891 H905 0.961 . S
C891 H906 0.961 . S
C891 H907 0.961 . S
C892 C893 1.370 . S
C892 C894 1.363 . S
C892 H908 0.931 . S
C893 C892 1.370 . S
C893 C897 1.408 . S
C894 C892 1.363 . S
C894 C895 1.370 . S
C894 C898 1.524 . S
C895 C887 1.503 . S
C895 C894 1.370 . S
C895 C896 1.403 . S
C896 C895 1.403 . S
C896 C897 1.404 . S
C896 C899 1.539 . S
C897 C893 1.408 . S
C897 C896 1.404 . S
C897 H909 0.930 . S
C898 C894 1.524 . S
C898 H910 0.956 . S
C898 H911 0.961 . S
C898 H912 0.961 . S
C899 C896 1.539 . S
C899 H913 0.958 . S
C899 H914 0.961 . S
C899 H915 0.960 . S
H900 C884 0.931 . S
H901 C889 0.929 . S
H902 C890 0.960 . S
H903 C890 0.962 . S
H904 C890 0.960 . S
H905 C891 0.961 . S
H906 C891 0.961 . S
H907 C891 0.961 . S
H908 C892 0.931 . S
H909 C897 0.930 . S
H910 C898 0.956 . S
H911 C898 0.961 . S
H912 C898 0.961 . S
H913 C899 0.958 . S
H914 C899 0.961 . S
H915 C899 0.960 . S
C916 C917 1.391 . S
C916 C918 1.394 . S
C916 H932 0.931 . S
C917 C916 1.391 . S
C917 C921 1.376 . S
C918 C916 1.394 . S
C918 C919 1.369 . S
C918 C922 1.531 . S
C919 C918 1.369 . S
C919 C920 1.410 . S
C919 C927 1.503 . S
C920 C919 1.410 . S
C920 C921 1.392 . S
C920 C923 1.511 . S
C921 C917 1.376 . S
C921 C920 1.392 . S
C921 H933 0.929 . S
C922 C918 1.531 . S
C922 H934 0.960 . S
C922 H935 0.962 . S
C922 H936 0.960 . S
C923 C920 1.511 . S
C923 H937 0.961 . S
C923 H938 0.961 . S
C923 H939 0.961 . S
C924 C925 1.370 . S
C924 C926 1.363 . S
C924 H940 0.931 . S
C925 C924 1.370 . S
C925 C929 1.408 . S
C926 C924 1.363 . S
C926 C927 1.370 . S
C926 C930 1.524 . S
C927 C919 1.503 . S
C927 C926 1.370 . S
C927 C928 1.403 . S
C928 C927 1.403 . S
C928 C929 1.404 . S
C928 C931 1.539 . S
C929 C925 1.408 . S
C929 C928 1.404 . S
C929 H941 0.930 . S
C930 C926 1.524 . S
C930 H942 0.956 . S
C930 H943 0.961 . S
C930 H944 0.961 . S
C931 C928 1.539 . S
C931 H945 0.958 . S
C931 H946 0.961 . S
C931 H947 0.960 . S
H932 C916 0.931 . S
H933 C921 0.929 . S
H934 C922 0.960 . S
H935 C922 0.962 . S
H936 C922 0.960 . S
H937 C923 0.961 . S
H938 C923 0.961 . S
H939 C923 0.961 . S
H940 C924 0.931 . S
H941 C929 0.930 . S
H942 C930 0.956 . S
H943 C930 0.961 . S
H944 C930 0.961 . S
H945 C931 0.958 . S
H946 C931 0.961 . S
H947 C931 0.960 . S
C181 C74 1.523 . S
C189 C104 1.529 . S
C221 C127 1.589 . S
C213 C85 1.609 . S
C253 C150 1.596 . S
C245 C52 1.580 . S
C285 C177 1.503 . S
C277 C63 1.556 . S
C317 C105 1.528 . S
C309 C30 1.499 1_556 S
C341 C41 1.457 . S
C349 C128 1.467 . S
C373 C8 1.401 . S
C381 C151 1.446 . S
C405 C19 1.556 1_655 S
C413 C176 1.531 1_455 S
C445 C106 0.412 . S
C437 C62 0.425 . S
C477 C129 0.370 . S
C469 C73 0.480 . S
C509 C152 0.436 . S
C501 C84 0.432 . S
C533 C51 0.523 . S
C541 C178 0.565 . S
C565 C18 0.693 . S
C573 C109 0.737 . S
C605 C132 0.736 . S
C597 C29 0.612 1_556 S
C637 C155 0.714 . S
C629 C40 0.610 . S
C661 C7 0.543 . S
C669 C175 0.422 . S
C693 C60 1.409 . S
C701 C107 1.539 . S
C725 C71 1.291 . S
C733 C130 1.500 . S
C765 C153 1.526 . S
C757 C82 1.315 . S
C797 C174 1.351 . S
C789 C49 1.169 . S
C821 C16 1.325 . S
C829 C108 1.511 . S
C861 C131 1.481 . S
C853 C27 1.412 1_565 S
C893 C154 1.455 . S
C885 C38 1.351 . S
C917 C5 1.386 . S
C925 C173 1.706 . S
