# Generated by pormake.
# Topology pth, (4,4)-cn, num edge types: 1
# Building blocks:
#     Node 0, Type 0, BuildingBlock: QUQFOY_clean_sbu_3, # of connection points: 4
#     Node 1, Type 0, BuildingBlock: QUQFOY_clean_sbu_3, # of connection points: 4
#     Node 2, Type 0, BuildingBlock: QUQFOY_clean_sbu_3, # of connection points: 4
#     Node 3, Type 1, BuildingBlock: NAWXER_clean_sbu_0, # of connection points: 4
#     Node 4, Type 1, BuildingBlock: NAWXER_clean_sbu_0, # of connection points: 4
#     Node 5, Type 1, BuildingBlock: NAWXER_clean_sbu_0, # of connection points: 4
#     Edge 6, Type (0, 1), BuildingBlock: EZIPEK_clean_linker_0, # of connection points: 2
#     Edge 7, Type (0, 1), BuildingBlock: EZIPEK_clean_linker_0, # of connection points: 2
#     Edge 8, Type (0, 1), BuildingBlock: EZIPEK_clean_linker_0, # of connection points: 2
#     Edge 9, Type (0, 1), BuildingBlock: EZIPEK_clean_linker_0, # of connection points: 2
#     Edge 10, Type (0, 1), BuildingBlock: EZIPEK_clean_linker_0, # of connection points: 2
#     Edge 11, Type (0, 1), BuildingBlock: EZIPEK_clean_linker_0, # of connection points: 2
#     Edge 12, Type (0, 1), BuildingBlock: EZIPEK_clean_linker_0, # of connection points: 2
#     Edge 13, Type (0, 1), BuildingBlock: EZIPEK_clean_linker_0, # of connection points: 2
#     Edge 14, Type (0, 1), BuildingBlock: EZIPEK_clean_linker_0, # of connection points: 2
#     Edge 15, Type (0, 1), BuildingBlock: EZIPEK_clean_linker_0, # of connection points: 2
#     Edge 16, Type (0, 1), BuildingBlock: EZIPEK_clean_linker_0, # of connection points: 2
#     Edge 17, Type (0, 1), BuildingBlock: EZIPEK_clean_linker_0, # of connection points: 2
# Relax obj value: 0.004
# Max RMSD: 0.054
# Mean RMSD: 0.030
data_MOF--net-pth--node1-QUQFOY_clean_sbu_3--node2-NAWXER_clean_sbu_0--edge1-EZIPEK_clean_linker_0
_symmetry_space_group_name_H-M    P1
_symmetry_Int_Tables_number       1
_symmetry_cell_setting            triclinic
loop_
_symmetry_equiv_pos_as_xyz
'x, y, z'
_cell_length_a     17.031188
_cell_length_b     16.860773
_cell_length_c     43.300842
_cell_angle_alpha  89.995251
_cell_angle_beta   91.13423
_cell_angle_gamma 121.00895
loop_
_atom_site_label
_atom_site_type_symbol
_atom_site_fract_x
_atom_site_fract_y
_atom_site_fract_z
_atom_type_partial_charge
C0 C 0.99041 0.26582 0.08122 0.0
O1 O 0.9562 0.27198 0.05567 0.0
Cd2 Cd 0.94425 0.18479 0.01005 0.0
O3 O 0.0231 0.21331 0.08421 0.0
Cd4 Cd 0.04235 0.10329 0.05287 0.0
C5 C 0.16929 0.25434 0.99814 0.0
O6 O 0.89317 0.0309 0.02638 0.0
O7 O 0.98863 0.992 0.01044 0.0
O8 O 0.00502 0.00701 0.09808 0.0
C9 C 0.90965 0.98177 0.00863 0.0
O10 O 0.09636 0.25076 0.98863 0.0
C11 C 0.07783 0.00388 0.09832 0.0
O12 O 0.17147 0.2135 0.02256 0.0
O13 O 0.13529 0.04728 0.0774 0.0
C14 C 0.21415 0.08704 0.4064 0.0
O15 O 0.24864 0.10999 0.37984 0.0
Cd16 Cd 0.18805 0.16059 0.33934 0.0
O17 O 0.14277 0.08942 0.41289 0.0
Cd18 Cd 0.03708 0.1251 0.38396 0.0
C19 C 0.98804 0.95685 0.33116 0.0
O20 O 0.1515 0.27083 0.35948 0.0
O21 O 0.01037 0.21039 0.34395 0.0
O22 O 0.01437 0.17526 0.43484 0.0
C23 C 0.09174 0.2786 0.34408 0.0
O24 O 0.06259 0.01614 0.31885 0.0
C25 C 0.9286 0.13927 0.43062 0.0
O26 O 0.96236 0.97533 0.35616 0.0
O27 O 0.89453 0.09598 0.40529 0.0
C28 C 0.83544 0.06641 0.69578 0.0
O29 O 0.82276 0.0854 0.72291 0.0
Cd30 Cd 0.93564 0.137 0.76364 0.0
O31 O 0.91055 0.07197 0.689 0.0
Cd32 Cd 0.05249 0.10826 0.7184 0.0
C33 C 0.93556 0.93761 0.7699 0.0
O34 O 0.08215 0.2526 0.74395 0.0
O35 O 0.1668 0.19765 0.75853 0.0
O36 O 0.12675 0.16053 0.66803 0.0
C37 C 0.15192 0.26382 0.75892 0.0
O38 O 0.9196 0.99498 0.7831 0.0
C39 C 0.17737 0.12635 0.672 0.0
O40 O 0.97886 0.95776 0.74474 0.0
O41 O 0.16778 0.08281 0.69689 0.0
C42 C 0.93242 0.65785 0.26114 0.0
C43 C 0.99332 0.48868 0.1831 0.0
O44 O 0.01788 0.69226 0.25626 0.0
Zn45 Zn 0.10325 0.66316 0.22866 0.0
O46 O 0.8727 0.58397 0.24728 0.0
Zn47 Zn 0.95902 0.56897 0.22314 0.0
O48 O 0.0275 0.52978 0.25645 0.0
O49 O 0.17398 0.64029 0.25889 0.0
O50 O 0.91569 0.47276 0.1919 0.0
O51 O 0.06635 0.55442 0.1959 0.0
O52 O 0.16271 0.77103 0.20239 0.0
O53 O 0.01289 0.68783 0.19471 0.0
C54 C 0.10879 0.56239 0.26767 0.0
C55 C 0.09067 0.75835 0.18838 0.0
C56 C 0.5822 0.01313 0.59599 0.0
C57 C 0.40603 0.01976 0.50477 0.0
O58 O 0.51555 0.94062 0.5833 0.0
Zn59 Zn 0.48761 0.00372 0.55023 0.0
O60 O 0.60498 0.09263 0.58538 0.0
Zn61 Zn 0.56559 0.15591 0.55197 0.0
O62 O 0.51832 0.21446 0.5793 0.0
O63 O 0.42735 0.06337 0.5759 0.0
O64 O 0.46392 0.09759 0.51718 0.0
O65 O 0.39744 0.94547 0.51576 0.0
O66 O 0.61037 0.06637 0.52588 0.0
O67 O 0.67426 0.21772 0.52591 0.0
C68 C 0.44417 0.14119 0.58664 0.0
C69 C 0.67377 0.14539 0.51686 0.0
C70 C 0.46589 0.46767 0.91591 0.0
C71 C 0.69973 0.63697 0.83893 0.0
O72 O 0.46466 0.53719 0.90476 0.0
Zn73 Zn 0.54061 0.64697 0.87399 0.0
O74 O 0.52463 0.4483 0.90662 0.0
Zn75 Zn 0.58377 0.54757 0.87685 0.0
O76 O 0.65658 0.66384 0.90689 0.0
O77 O 0.59587 0.75163 0.90236 0.0
O78 O 0.68273 0.56136 0.85126 0.0
O79 O 0.65208 0.67335 0.84554 0.0
O80 O 0.44626 0.62949 0.84441 0.0
O81 O 0.47522 0.51554 0.84411 0.0
C82 C 0.65371 0.735 0.91518 0.0
C83 C 0.4289 0.55118 0.8342 0.0
C84 C 0.93086 0.28061 0.13185 0.0
C85 C 0.99443 0.32213 0.10787 0.0
C86 C 0.06185 0.47343 0.13343 0.0
C87 C -0.00036 0.43142 0.1582 0.0
N88 N 0.89621 0.29115 0.18505 0.0
N89 N 0.13331 0.45163 0.08892 0.0
C90 C 0.94004 0.33377 0.15857 0.0
C91 C 0.06381 0.41662 0.10961 0.0
N92 N 0.86054 0.19081 0.12885 0.0
N93 N 0.11668 0.56749 0.13161 0.0
H94 H 0.13617 0.41254 0.07077 0.0
H95 H 0.19224 0.5168 0.09128 0.0
H96 H 0.12394 0.61381 0.14879 0.0
H97 H 0.15169 0.60101 0.11179 0.0
H98 H 0.80614 0.16014 0.14398 0.0
H99 H 0.85266 0.14906 0.10985 0.0
H100 H 0.85878 0.21955 0.18752 0.0
H101 H 0.906 0.32693 0.20578 0.0
C102 C 0.89266 0.22566 0.47075 0.0
C103 C 0.86879 0.14273 0.45445 0.0
C104 C 0.71491 0.07029 0.47469 0.0
C105 C 0.74167 0.14797 0.49474 0.0
N106 N 0.8685 0.28929 0.5171 0.0
N107 N 0.76651 0.97719 0.45049 0.0
C108 C 0.83419 0.22307 0.49434 0.0
C109 C 0.78297 0.06227 0.45945 0.0
N110 N 0.96867 0.30754 0.46319 0.0
N111 N 0.62489 0.00566 0.4686 0.0
H112 H 0.81666 0.96715 0.44104 0.0
H113 H 0.70683 0.9159 0.45614 0.0
H114 H 0.57007 0.00982 0.47662 0.0
H115 H 0.60476 0.95336 0.45204 0.0
H116 H 0.98345 0.3708 0.47262 0.0
H117 H 0.01142 0.31373 0.4453 0.0
H118 H 0.93764 0.34054 0.51882 0.0
H119 H 0.8315 0.28662 0.53632 0.0
C120 C 0.81964 0.76695 0.76912 0.0
C121 C 0.89653 0.84458 0.78359 0.0
C122 C 0.86108 0.76378 0.83291 0.0
C123 C 0.77951 0.69067 0.81919 0.0
N124 N 0.69512 0.607 0.77372 0.0
N125 N 0.00679 0.90605 0.82558 0.0
C126 C 0.7643 0.68677 0.78691 0.0
C127 C 0.923 0.83875 0.81431 0.0
N128 N 0.79538 0.77259 0.73928 0.0
N129 N 0.87575 0.76408 0.86406 0.0
H130 H 0.05296 0.96105 0.812 0.0
H131 H 0.03364 0.90325 0.84708 0.0
H132 H 0.83324 0.70784 0.87786 0.0
H133 H 0.92756 0.82052 0.87635 0.0
H134 H 0.73404 0.723 0.72866 0.0
H135 H 0.83504 0.82921 0.72532 0.0
H136 H 0.68358 0.59621 0.74998 0.0
H137 H 0.65421 0.5483 0.7868 0.0
C138 C 0.14342 0.98053 0.14732 0.0
C139 C 0.08939 0.94313 0.11999 0.0
C140 C 0.04836 0.78706 0.13536 0.0
C141 C 0.09439 0.82309 0.16438 0.0
N142 N 0.17075 0.95247 0.20016 0.0
N143 N 0.98324 0.81138 0.08865 0.0
C144 C 0.13888 0.91961 0.1709 0.0
C145 C 0.04003 0.84659 0.11417 0.0
N146 N 0.19856 0.07427 0.15082 0.0
N147 N 0.01471 0.69642 0.1275 0.0
H148 H 0.97929 0.8527 0.07149 0.0
H149 H 0.93559 0.74123 0.08536 0.0
H150 H 0.01509 0.64844 0.14242 0.0
H151 H 0.99229 0.66978 0.10525 0.0
H152 H 0.24691 0.10551 0.16873 0.0
H153 H 0.20132 0.12079 0.13436 0.0
H154 H 0.19474 0.02052 0.20703 0.0
H155 H 0.16495 0.91008 0.21856 0.0
C156 C 0.21306 0.98122 0.44811 0.0
C157 C 0.26154 0.06329 0.43053 0.0
C158 C 0.40468 0.0945 0.4553 0.0
C159 C 0.35524 0.02234 0.47674 0.0
N160 N 0.20834 0.90433 0.49588 0.0
N161 N 0.40175 0.20957 0.42321 0.0
C162 C 0.25821 0.96683 0.47369 0.0
C163 C 0.35696 0.12291 0.43558 0.0
N164 N 0.12491 0.91594 0.43998 0.0
N165 N 0.49769 0.13625 0.45358 0.0
H166 H 0.36882 0.23655 0.41025 0.0
H167 H 0.46965 0.25876 0.42892 0.0
H168 H 0.53617 0.11773 0.46738 0.0
H169 H 0.53518 0.18246 0.4362 0.0
H170 H 0.0896 0.851 0.45014 0.0
H171 H 0.09034 0.92304 0.42105 0.0
H172 H 0.13707 0.86999 0.49637 0.0
H173 H 0.23781 0.89229 0.51523 0.0
C174 C 0.19369 0.37073 0.80458 0.0
C175 C 0.21616 0.35138 0.77527 0.0
C176 C 0.37426 0.48061 0.78174 0.0
C177 C 0.35314 0.497 0.81171 0.0
N178 N 0.24083 0.47366 0.84928 0.0
N179 N 0.3186 0.39877 0.73257 0.0
C180 C 0.26178 0.44776 0.8222 0.0
C181 C 0.30372 0.4102 0.76274 0.0
N182 N 0.10905 0.31217 0.81625 0.0
N183 N 0.4626 0.53071 0.77201 0.0
H184 H 0.26779 0.34784 0.71815 0.0
H185 H 0.37826 0.44361 0.72103 0.0
H186 H 0.51418 0.58683 0.78462 0.0
H187 H 0.48579 0.51538 0.75213 0.0
H188 H 0.09126 0.31529 0.83887 0.0
H189 H 0.05705 0.25655 0.80364 0.0
H190 H 0.17435 0.44651 0.85694 0.0
H191 H 0.28962 0.52799 0.86314 0.0
C192 C 0.73108 0.96619 0.65185 0.0
C193 C 0.76498 0.0456 0.67132 0.0
C194 C 0.65591 0.08063 0.6472 0.0
C195 C 0.63328 0.01157 0.62411 0.0
N196 N 0.66058 0.89589 0.60238 0.0
N197 N 0.77373 0.19076 0.68204 0.0
C198 C 0.67311 0.9554 0.62595 0.0
C199 C 0.73094 0.10597 0.66764 0.0
N200 N 0.75233 0.90008 0.65843 0.0
N201 N 0.6057 0.12245 0.64978 0.0
H202 H 0.83306 0.21576 0.69571 0.0
H203 H 0.75668 0.24082 0.67742 0.0
H204 H 0.54973 0.10641 0.63542 0.0
H205 H 0.61396 0.16605 0.66822 0.0
H206 H 0.72229 0.83667 0.64678 0.0
H207 H 0.79301 0.90478 0.67749 0.0
H208 H 0.69658 0.8614 0.60113 0.0
H209 H 0.62021 0.88656 0.58278 0.0
C210 C 0.84727 0.95278 0.9544 0.0
C211 C 0.84244 0.92062 0.98496 0.0
C212 C 0.72316 0.76483 0.96897 0.0
C213 C 0.72017 0.79857 0.93903 0.0
N214 N 0.7793 0.92468 0.90284 0.0
N215 N 0.76742 0.80188 0.02295 0.0
C216 C 0.78185 0.89287 0.93169 0.0
C217 C 0.77764 0.82849 0.99273 0.0
N218 N 0.91631 0.03963 0.94695 0.0
N219 N 0.67738 0.67198 0.97467 0.0
H220 H 0.80809 0.84593 0.04097 0.0
H221 H 0.71356 0.73885 0.0305 0.0
H222 H 0.63812 0.62122 0.95825 0.0
H223 H 0.68589 0.64411 0.99504 0.0
H224 H 0.93074 0.06406 0.92447 0.0
H225 H 0.9636 0.08614 0.96322 0.0
H226 H 0.81356 0.99447 0.89721 0.0
H227 H 0.74031 0.88147 0.88446 0.0
C228 C 0.90679 0.85685 0.28547 0.0
C229 C 0.93609 0.86358 0.31669 0.0
C230 C 0.914 0.70827 0.31292 0.0
C231 C 0.90609 0.712 0.28051 0.0
N232 N 0.88697 0.78387 0.23529 0.0
N233 N 0.9626 0.79392 0.36138 0.0
C234 C 0.89765 0.78344 0.26665 0.0
C235 C 0.93557 0.78753 0.3311 0.0
N236 N 0.88935 0.92185 0.27399 0.0
N237 N 0.90277 0.62942 0.32595 0.0
H238 H 0.97659 0.84958 0.37567 0.0
H239 H 0.97491 0.746 0.3721 0.0
H240 H 0.88685 0.57113 0.31264 0.0
H241 H 0.90081 0.61867 0.34967 0.0
H242 H 0.86143 0.91795 0.25204 0.0
H243 H 0.89528 0.97567 0.28773 0.0
H244 H 0.89197 0.83957 0.22319 0.0
H245 H 0.87621 0.72882 0.22117 0.0
C246 C 0.2465 0.05222 0.64217 0.0
C247 C 0.24193 0.13195 0.64832 0.0
C248 C 0.36068 0.21591 0.61002 0.0
C249 C 0.37716 0.14126 0.60854 0.0
N250 N 0.34737 0.9966 0.63204 0.0
N251 N 0.30903 0.297 0.64206 0.0
C252 C 0.32359 0.06174 0.62714 0.0
C253 C 0.30303 0.21616 0.63339 0.0
N254 N 0.17609 0.96644 0.64983 0.0
N255 N 0.39514 0.28393 0.5884 0.0
H256 H 0.27071 0.3013 0.65973 0.0
H257 H 0.35901 0.36116 0.63376 0.0
H258 H 0.43097 0.28311 0.56933 0.0
H259 H 0.378 0.33499 0.58733 0.0
H260 H 0.17363 0.90568 0.64324 0.0
H261 H 0.11533 0.95547 0.65918 0.0
H262 H 0.31362 0.94303 0.64773 0.0
H263 H 0.40643 0.00107 0.62393 0.0
C264 C 0.31636 0.39868 0.98704 0.0
C265 C 0.2522 0.30519 0.97965 0.0
C266 C 0.33333 0.31474 0.93235 0.0
C267 C 0.39645 0.40997 0.939 0.0
N268 N 0.44144 0.54625 0.97064 0.0
N269 N 0.20744 0.1675 0.94976 0.0
C270 C 0.38671 0.45281 0.96596 0.0
C271 C 0.26323 0.26116 0.95365 0.0
N272 N 0.31092 0.43492 0.01466 0.0
N273 N 0.33521 0.27759 0.90446 0.0
H274 H 0.15456 0.1266 0.96472 0.0
H275 H 0.21776 0.12881 0.93338 0.0
H276 H 0.38308 0.31463 0.88762 0.0
H277 H 0.28475 0.21218 0.89662 0.0
H278 H 0.36138 0.49903 0.02346 0.0
H279 H 0.25882 0.39758 0.03027 0.0
H280 H 0.43027 0.58342 0.98736 0.0
H281 H 0.49516 0.58926 0.9565 0.0
C282 C 0.15551 0.38001 0.29784 0.0
C283 C 0.11446 0.36366 0.32714 0.0
C284 C 0.08685 0.49151 0.31982 0.0
C285 C 0.12501 0.50587 0.29007 0.0
N286 N 0.21258 0.47878 0.25295 0.0
N287 N 0.05962 0.41399 0.3692 0.0
C288 C 0.16565 0.45541 0.27993 0.0
C289 C 0.08611 0.42295 0.33916 0.0
N290 N 0.17977 0.32016 0.28643 0.0
N291 N 0.04923 0.54203 0.3291 0.0
H292 H 0.05867 0.36441 0.38388 0.0
H293 H 0.04543 0.45961 0.38042 0.0
H294 H 0.05459 0.59706 0.31634 0.0
H295 H 0.01018 0.52795 0.34875 0.0
H296 H 0.19975 0.32098 0.26383 0.0
H297 H 0.1751 0.26552 0.2992 0.0
H298 H 0.25151 0.45113 0.24569 0.0
H299 H 0.21853 0.53139 0.23872 0.0
loop_
_geom_bond_atom_site_label_1
_geom_bond_atom_site_label_2
_geom_bond_distance
_geom_bond_site_symmetry_2
_ccdc_geom_bond_type
C0 O1 1.306 1_455 S
C0 O3 1.160 . S
O1 C0 1.306 1_655 S
O1 Cd2 2.228 . S
Cd2 O1 2.228 . S
Cd2 O6 2.273 . S
Cd2 O10 2.277 1_655 S
O3 C0 1.160 . S
O3 Cd4 2.203 . S
Cd4 O3 2.203 . S
Cd4 O6 2.411 1_455 S
Cd4 O7 2.333 1_445 S
Cd4 O8 2.352 1_445 S
Cd4 O12 2.277 . S
Cd4 O13 2.356 . S
C5 O10 1.209 . S
C5 O12 1.226 . S
O6 Cd2 2.273 . S
O6 Cd4 2.411 1_655 S
O6 C9 1.320 1_545 S
O7 Cd4 2.333 1_665 S
O7 C9 1.214 . S
O8 Cd4 2.352 1_665 S
O8 C11 1.258 1_655 S
C9 O6 1.320 1_565 S
C9 O7 1.214 . S
O10 Cd2 2.277 1_455 S
O10 C5 1.209 . S
C11 O8 1.258 1_455 S
C11 O13 1.282 1_565 S
O12 Cd4 2.277 . S
O12 C5 1.226 . S
O13 Cd4 2.356 . S
O13 C11 1.282 1_545 S
C14 O15 1.306 . S
C14 O17 1.160 . S
O15 C14 1.306 . S
O15 Cd16 2.228 . S
Cd16 O15 2.228 . S
Cd16 O20 2.273 . S
Cd16 O24 2.277 . S
O17 C14 1.160 . S
O17 Cd18 2.203 . S
Cd18 O17 2.203 . S
Cd18 O20 2.411 . S
Cd18 O21 2.333 1_455 S
Cd18 O22 2.352 1_455 S
Cd18 O26 2.277 1_445 S
Cd18 O27 2.356 1_455 S
C19 O24 1.209 1_565 S
C19 O26 1.226 1_455 S
O20 Cd16 2.273 . S
O20 Cd18 2.411 . S
O20 C23 1.320 . S
O21 Cd18 2.333 1_655 S
O21 C23 1.214 1_655 S
O22 Cd18 2.352 1_655 S
O22 C25 1.258 . S
C23 O20 1.320 . S
C23 O21 1.214 1_455 S
O24 Cd16 2.277 . S
O24 C19 1.209 1_545 S
C25 O22 1.258 . S
C25 O27 1.282 . S
O26 Cd18 2.277 1_665 S
O26 C19 1.226 1_655 S
O27 Cd18 2.356 1_655 S
O27 C25 1.282 . S
C28 O29 1.306 . S
C28 O31 1.160 . S
O29 C28 1.306 . S
O29 Cd30 2.228 . S
Cd30 O29 2.228 . S
Cd30 O34 2.273 1_655 S
Cd30 O38 2.277 . S
O31 C28 1.160 . S
O31 Cd32 2.203 1_655 S
Cd32 O31 2.203 1_455 S
Cd32 O34 2.411 . S
Cd32 O35 2.333 . S
Cd32 O36 2.352 . S
Cd32 O40 2.277 1_445 S
Cd32 O41 2.356 . S
C33 O38 1.209 1_565 S
C33 O40 1.226 . S
O34 Cd30 2.273 1_455 S
O34 Cd32 2.411 . S
O34 C37 1.320 . S
O35 Cd32 2.333 . S
O35 C37 1.214 . S
O36 Cd32 2.352 . S
O36 C39 1.258 . S
C37 O34 1.320 . S
C37 O35 1.214 . S
O38 Cd30 2.277 . S
O38 C33 1.209 1_545 S
C39 O36 1.258 . S
C39 O41 1.282 . S
O40 Cd32 2.277 1_665 S
O40 C33 1.226 . S
O41 Cd32 2.356 . S
O41 C39 1.282 . S
C42 O44 1.247 . S
C42 O46 1.258 1_455 S
C43 O50 1.247 1_455 S
C43 O51 1.258 . S
O44 C42 1.247 . S
O44 Zn45 2.028 . S
Zn45 O44 2.028 . S
Zn45 O49 2.035 . S
Zn45 O51 2.035 . S
Zn45 O52 2.028 . S
O46 C42 1.258 1_655 S
O46 Zn47 2.035 . S
Zn47 O46 2.035 . S
Zn47 O48 2.028 . S
Zn47 O50 2.028 . S
Zn47 O53 2.035 . S
O48 Zn47 2.028 . S
O48 C54 1.247 1_655 S
O49 Zn45 2.035 . S
O49 C54 1.258 . S
O50 C43 1.247 1_655 S
O50 Zn47 2.028 . S
O51 C43 1.258 . S
O51 Zn45 2.035 . S
O52 Zn45 2.028 . S
O52 C55 1.247 . S
O53 Zn47 2.035 . S
O53 C55 1.258 1_655 S
C54 O48 1.247 1_455 S
C54 O49 1.258 . S
C55 O52 1.247 . S
C55 O53 1.258 1_455 S
C56 O58 1.247 . S
C56 O60 1.258 . S
C57 O64 1.247 . S
C57 O65 1.258 . S
O58 C56 1.247 . S
O58 Zn59 2.028 1_545 S
Zn59 O58 2.028 1_565 S
Zn59 O63 2.035 1_565 S
Zn59 O65 2.035 1_565 S
Zn59 O66 2.028 1_565 S
O60 C56 1.258 . S
O60 Zn61 2.035 . S
Zn61 O60 2.035 . S
Zn61 O62 2.028 . S
Zn61 O64 2.028 . S
Zn61 O67 2.035 . S
O62 Zn61 2.028 . S
O62 C68 1.247 . S
O63 Zn59 2.035 1_545 S
O63 C68 1.258 . S
O64 C57 1.247 . S
O64 Zn61 2.028 . S
O65 C57 1.258 . S
O65 Zn59 2.035 1_545 S
O66 Zn59 2.028 1_545 S
O66 C69 1.247 . S
O67 Zn61 2.035 . S
O67 C69 1.258 . S
C68 O62 1.247 . S
C68 O63 1.258 . S
C69 O66 1.247 . S
C69 O67 1.258 . S
C70 O72 1.247 . S
C70 O74 1.258 . S
C71 O78 1.247 . S
C71 O79 1.258 . S
O72 C70 1.247 . S
O72 Zn73 2.028 . S
Zn73 O72 2.028 . S
Zn73 O77 2.035 . S
Zn73 O79 2.035 . S
Zn73 O80 2.028 . S
O74 C70 1.258 . S
O74 Zn75 2.035 . S
Zn75 O74 2.035 . S
Zn75 O76 2.028 . S
Zn75 O78 2.028 . S
Zn75 O81 2.035 . S
O76 Zn75 2.028 . S
O76 C82 1.247 . S
O77 Zn73 2.035 . S
O77 C82 1.258 . S
O78 C71 1.247 . S
O78 Zn75 2.028 . S
O79 C71 1.258 . S
O79 Zn73 2.035 . S
O80 Zn73 2.028 . S
O80 C83 1.247 . S
O81 Zn75 2.035 . S
O81 C83 1.258 . S
C82 O76 1.247 . S
C82 O77 1.258 . S
C83 O80 1.247 . S
C83 O81 1.258 . S
C84 C85 1.363 1_655 S
C84 C90 1.379 . S
C84 N92 1.356 . S
C85 C84 1.363 1_455 S
C85 C91 1.363 . S
C86 C87 1.363 . S
C86 C91 1.379 . S
C86 N93 1.356 . S
C87 C86 1.363 . S
C87 C90 1.363 1_455 S
N88 C90 1.356 . S
N88 H100 0.984 . S
N88 H101 0.985 . S
N89 C91 1.356 . S
N89 H94 0.984 . S
N89 H95 0.985 . S
C90 C84 1.379 . S
C90 C87 1.363 1_655 S
C90 N88 1.356 . S
C91 C85 1.363 . S
C91 C86 1.379 . S
C91 N89 1.356 . S
N92 C84 1.356 . S
N92 H98 0.984 . S
N92 H99 0.984 . S
N93 C86 1.356 . S
N93 H96 0.984 . S
N93 H97 0.985 . S
H94 N89 0.984 . S
H95 N89 0.985 . S
H96 N93 0.984 . S
H97 N93 0.985 . S
H98 N92 0.984 . S
H99 N92 0.984 . S
H100 N88 0.984 . S
H101 N88 0.985 . S
C102 C103 1.363 . S
C102 C108 1.379 . S
C102 N110 1.356 . S
C103 C102 1.363 . S
C103 C109 1.363 . S
C104 C105 1.363 . S
C104 C109 1.379 . S
C104 N111 1.356 1_545 S
C105 C104 1.363 . S
C105 C108 1.363 . S
N106 C108 1.356 . S
N106 H118 0.984 . S
N106 H119 0.985 . S
N107 C109 1.356 1_565 S
N107 H112 0.984 . S
N107 H113 0.985 . S
C108 C102 1.379 . S
C108 C105 1.363 . S
C108 N106 1.356 . S
C109 C103 1.363 . S
C109 C104 1.379 . S
C109 N107 1.356 1_545 S
N110 C102 1.356 . S
N110 H116 0.984 . S
N110 H117 0.984 . S
N111 C104 1.356 1_565 S
N111 H114 0.984 . S
N111 H115 0.985 . S
H112 N107 0.984 . S
H113 N107 0.985 . S
H114 N111 0.984 . S
H115 N111 0.985 . S
H116 N110 0.984 . S
H117 N110 0.984 . S
H118 N106 0.984 . S
H119 N106 0.985 . S
C120 C121 1.363 . S
C120 C126 1.379 . S
C120 N128 1.356 . S
C121 C120 1.363 . S
C121 C127 1.363 . S
C122 C123 1.363 . S
C122 C127 1.379 . S
C122 N129 1.356 . S
C123 C122 1.363 . S
C123 C126 1.363 . S
N124 C126 1.356 . S
N124 H136 0.984 . S
N124 H137 0.985 . S
N125 C127 1.356 1_545 S
N125 H130 0.984 . S
N125 H131 0.985 . S
C126 C120 1.379 . S
C126 C123 1.363 . S
C126 N124 1.356 . S
C127 C121 1.363 . S
C127 C122 1.379 . S
C127 N125 1.356 1_565 S
N128 C120 1.356 . S
N128 H134 0.984 . S
N128 H135 0.984 . S
N129 C122 1.356 . S
N129 H132 0.984 . S
N129 H133 0.985 . S
H130 N125 0.984 . S
H131 N125 0.985 . S
H132 N129 0.984 . S
H133 N129 0.985 . S
H134 N128 0.984 . S
H135 N128 0.984 . S
H136 N124 0.984 . S
H137 N124 0.985 . S
C138 C139 1.363 . S
C138 C144 1.379 . S
C138 N146 1.356 1_565 S
C139 C138 1.363 . S
C139 C145 1.363 1_455 S
C140 C141 1.363 1_655 S
C140 C145 1.379 . S
C140 N147 1.356 . S
C141 C140 1.363 1_455 S
C141 C144 1.363 . S
N142 C144 1.356 . S
N142 H154 0.984 . S
N142 H155 0.985 . S
N143 C145 1.356 . S
N143 H148 0.984 . S
N143 H149 0.985 . S
C144 C138 1.379 . S
C144 C141 1.363 . S
C144 N142 1.356 . S
C145 C139 1.363 1_655 S
C145 C140 1.379 . S
C145 N143 1.356 . S
N146 C138 1.356 1_545 S
N146 H152 0.984 . S
N146 H153 0.984 . S
N147 C140 1.356 . S
N147 H150 0.984 . S
N147 H151 0.985 . S
H148 N143 0.984 . S
H149 N143 0.985 . S
H150 N147 0.984 . S
H151 N147 0.985 . S
H152 N146 0.984 . S
H153 N146 0.984 . S
H154 N142 0.984 . S
H155 N142 0.985 . S
C156 C157 1.363 . S
C156 C162 1.379 . S
C156 N164 1.356 1_545 S
C157 C156 1.363 . S
C157 C163 1.363 . S
C158 C159 1.363 . S
C158 C163 1.379 . S
C158 N165 1.356 . S
C159 C158 1.363 . S
C159 C162 1.363 . S
N160 C162 1.356 1_565 S
N160 H172 0.984 . S
N160 H173 0.985 . S
N161 C163 1.356 . S
N161 H166 0.984 . S
N161 H167 0.985 . S
C162 C156 1.379 . S
C162 C159 1.363 . S
C162 N160 1.356 1_545 S
C163 C157 1.363 . S
C163 C158 1.379 . S
C163 N161 1.356 . S
N164 C156 1.356 1_565 S
N164 H170 0.984 . S
N164 H171 0.984 . S
N165 C158 1.356 . S
N165 H168 0.984 . S
N165 H169 0.985 . S
H166 N161 0.984 . S
H167 N161 0.985 . S
H168 N165 0.984 . S
H169 N165 0.985 . S
H170 N164 0.984 . S
H171 N164 0.984 . S
H172 N160 0.984 . S
H173 N160 0.985 . S
C174 C175 1.363 . S
C174 C180 1.379 . S
C174 N182 1.356 . S
C175 C174 1.363 . S
C175 C181 1.363 . S
C176 C177 1.363 . S
C176 C181 1.379 . S
C176 N183 1.356 . S
C177 C176 1.363 . S
C177 C180 1.363 . S
N178 C180 1.356 . S
N178 H190 0.984 . S
N178 H191 0.985 . S
N179 C181 1.356 . S
N179 H184 0.984 . S
N179 H185 0.985 . S
C180 C174 1.379 . S
C180 C177 1.363 . S
C180 N178 1.356 . S
C181 C175 1.363 . S
C181 C176 1.379 . S
C181 N179 1.356 . S
N182 C174 1.356 . S
N182 H188 0.984 . S
N182 H189 0.984 . S
N183 C176 1.356 . S
N183 H186 0.984 . S
N183 H187 0.985 . S
H184 N179 0.984 . S
H185 N179 0.985 . S
H186 N183 0.984 . S
H187 N183 0.985 . S
H188 N182 0.984 . S
H189 N182 0.984 . S
H190 N178 0.984 . S
H191 N178 0.985 . S
C192 C193 1.363 . S
C192 C198 1.379 . S
C192 N200 1.356 1_545 S
C193 C192 1.363 . S
C193 C199 1.363 . S
C194 C195 1.363 . S
C194 C199 1.379 . S
C194 N201 1.356 . S
C195 C194 1.363 . S
C195 C198 1.363 . S
N196 C198 1.356 1_565 S
N196 H208 0.984 . S
N196 H209 0.985 . S
N197 C199 1.356 . S
N197 H202 0.984 . S
N197 H203 0.985 . S
C198 C192 1.379 . S
C198 C195 1.363 . S
C198 N196 1.356 1_545 S
C199 C193 1.363 . S
C199 C194 1.379 . S
C199 N197 1.356 . S
N200 C192 1.356 1_565 S
N200 H206 0.984 . S
N200 H207 0.984 1_565 S
N201 C194 1.356 . S
N201 H204 0.984 . S
N201 H205 0.985 . S
H202 N197 0.984 . S
H203 N197 0.985 . S
H204 N201 0.984 . S
H205 N201 0.985 . S
H206 N200 0.984 . S
H207 N200 0.984 1_545 S
H208 N196 0.984 . S
H209 N196 0.985 . S
C210 C211 1.363 . S
C210 C216 1.379 . S
C210 N218 1.356 1_565 S
C211 C210 1.363 . S
C211 C217 1.363 . S
C212 C213 1.363 . S
C212 C217 1.379 . S
C212 N219 1.356 . S
C213 C212 1.363 . S
C213 C216 1.363 . S
N214 C216 1.356 . S
N214 H226 0.984 . S
N214 H227 0.985 . S
N215 C217 1.356 1_554 S
N215 H220 0.984 . S
N215 H221 0.985 . S
C216 C210 1.379 . S
C216 C213 1.363 . S
C216 N214 1.356 . S
C217 C211 1.363 . S
C217 C212 1.379 . S
C217 N215 1.356 1_556 S
N218 C210 1.356 1_545 S
N218 H224 0.984 . S
N218 H225 0.984 . S
N219 C212 1.356 . S
N219 H222 0.984 . S
N219 H223 0.985 . S
H220 N215 0.984 . S
H221 N215 0.985 . S
H222 N219 0.984 . S
H223 N219 0.985 . S
H224 N218 0.984 . S
H225 N218 0.984 . S
H226 N214 0.984 . S
H227 N214 0.985 . S
C228 C229 1.363 1_655 S
C228 C234 1.379 . S
C228 N236 1.356 . S
C229 C228 1.363 1_455 S
C229 C235 1.363 . S
C230 C231 1.363 . S
C230 C235 1.379 . S
C230 N237 1.356 . S
C231 C230 1.363 . S
C231 C234 1.363 1_455 S
N232 C234 1.356 . S
N232 H244 0.984 . S
N232 H245 0.985 . S
N233 C235 1.356 . S
N233 H238 0.984 . S
N233 H239 0.985 . S
C234 C228 1.379 . S
C234 C231 1.363 1_655 S
C234 N232 1.356 . S
C235 C229 1.363 . S
C235 C230 1.379 . S
C235 N233 1.356 . S
N236 C228 1.356 . S
N236 H242 0.984 . S
N236 H243 0.984 . S
N237 C230 1.356 . S
N237 H240 0.984 . S
N237 H241 0.985 . S
H238 N233 0.984 . S
H239 N233 0.985 . S
H240 N237 0.984 . S
H241 N237 0.985 . S
H242 N236 0.984 . S
H243 N236 0.984 . S
H244 N232 0.984 . S
H245 N232 0.985 . S
C246 C247 1.363 . S
C246 C252 1.379 . S
C246 N254 1.356 1_545 S
C247 C246 1.363 . S
C247 C253 1.363 . S
C248 C249 1.363 . S
C248 C253 1.379 . S
C248 N255 1.356 . S
C249 C248 1.363 . S
C249 C252 1.363 . S
N250 C252 1.356 1_565 S
N250 H262 0.984 . S
N250 H263 0.985 . S
N251 C253 1.356 . S
N251 H256 0.984 . S
N251 H257 0.985 . S
C252 C246 1.379 . S
C252 C249 1.363 . S
C252 N250 1.356 1_545 S
C253 C247 1.363 . S
C253 C248 1.379 . S
C253 N251 1.356 . S
N254 C246 1.356 1_565 S
N254 H260 0.984 . S
N254 H261 0.984 . S
N255 C248 1.356 . S
N255 H258 0.984 . S
N255 H259 0.985 . S
H256 N251 0.984 . S
H257 N251 0.985 . S
H258 N255 0.984 . S
H259 N255 0.985 . S
H260 N254 0.984 . S
H261 N254 0.984 . S
H262 N250 0.984 . S
H263 N250 0.985 . S
C264 C265 1.363 . S
C264 C270 1.379 . S
C264 N272 1.356 1_556 S
C265 C264 1.363 . S
C265 C271 1.363 . S
C266 C267 1.363 . S
C266 C271 1.379 . S
C266 N273 1.356 . S
C267 C266 1.363 . S
C267 C270 1.363 . S
N268 C270 1.356 . S
N268 H280 0.984 . S
N268 H281 0.985 . S
N269 C271 1.356 . S
N269 H274 0.984 . S
N269 H275 0.985 . S
C270 C264 1.379 . S
C270 C267 1.363 . S
C270 N268 1.356 . S
C271 C265 1.363 . S
C271 C266 1.379 . S
C271 N269 1.356 . S
N272 C264 1.356 1_554 S
N272 H278 0.984 . S
N272 H279 0.984 . S
N273 C266 1.356 . S
N273 H276 0.984 . S
N273 H277 0.985 . S
H274 N269 0.984 . S
H275 N269 0.985 . S
H276 N273 0.984 . S
H277 N273 0.985 . S
H278 N272 0.984 . S
H279 N272 0.984 . S
H280 N268 0.984 . S
H281 N268 0.985 . S
C282 C283 1.363 . S
C282 C288 1.379 . S
C282 N290 1.356 . S
C283 C282 1.363 . S
C283 C289 1.363 1_455 S
C284 C285 1.363 1_655 S
C284 C289 1.379 . S
C284 N291 1.356 . S
C285 C284 1.363 1_455 S
C285 C288 1.363 . S
N286 C288 1.356 . S
N286 H298 0.984 . S
N286 H299 0.985 . S
N287 C289 1.356 . S
N287 H292 0.984 . S
N287 H293 0.985 . S
C288 C282 1.379 . S
C288 C285 1.363 . S
C288 N286 1.356 . S
C289 C283 1.363 1_655 S
C289 C284 1.379 . S
C289 N287 1.356 . S
N290 C282 1.356 . S
N290 H296 0.984 . S
N290 H297 0.984 . S
N291 C284 1.356 . S
N291 H294 0.984 . S
N291 H295 0.985 . S
H292 N287 0.984 . S
H293 N287 0.985 . S
H294 N291 0.984 . S
H295 N291 0.985 . S
H296 N290 0.984 . S
H297 N290 0.984 . S
H298 N286 0.984 . S
H299 N286 0.985 . S
C87 C43 1.457 . S
C85 C0 1.458 . S
C103 C25 1.478 . S
C105 C69 1.476 . S
C121 C33 1.491 . S
C123 C71 1.491 . S
C139 C11 1.436 . S
C141 C55 1.434 . S
C159 C57 1.476 . S
C157 C14 1.474 . S
C175 C37 1.482 . S
C177 C83 1.488 . S
C195 C56 1.474 . S
C193 C28 1.472 . S
C211 C9 1.482 1_556 S
C213 C82 1.486 . S
C231 C42 1.509 . S
C229 C19 1.506 . S
C249 C68 1.474 . S
C247 C39 1.476 . S
C267 C70 1.490 . S
C265 C5 1.489 1_556 S
C283 C23 1.518 . S
C285 C54 1.526 . S
