# Generated by pormake.
# Topology gar, (4,6)-cn, num edge types: 1
# Building blocks:
#     Node 0, Type 0, BuildingBlock: UXUYUI_clean_sbu_0, # of connection points: 4
#     Node 1, Type 0, BuildingBlock: UXUYUI_clean_sbu_0, # of connection points: 4
#     Node 2, Type 0, BuildingBlock: UXUYUI_clean_sbu_0, # of connection points: 4
#     Node 3, Type 0, BuildingBlock: UXUYUI_clean_sbu_0, # of connection points: 4
#     Node 4, Type 0, BuildingBlock: UXUYUI_clean_sbu_0, # of connection points: 4
#     Node 5, Type 0, BuildingBlock: UXUYUI_clean_sbu_0, # of connection points: 4
#     Node 6, Type 0, BuildingBlock: UXUYUI_clean_sbu_0, # of connection points: 4
#     Node 7, Type 0, BuildingBlock: UXUYUI_clean_sbu_0, # of connection points: 4
#     Node 8, Type 0, BuildingBlock: UXUYUI_clean_sbu_0, # of connection points: 4
#     Node 9, Type 0, BuildingBlock: UXUYUI_clean_sbu_0, # of connection points: 4
#     Node 10, Type 0, BuildingBlock: UXUYUI_clean_sbu_0, # of connection points: 4
#     Node 11, Type 0, BuildingBlock: UXUYUI_clean_sbu_0, # of connection points: 4
#     Node 12, Type 0, BuildingBlock: UXUYUI_clean_sbu_0, # of connection points: 4
#     Node 13, Type 0, BuildingBlock: UXUYUI_clean_sbu_0, # of connection points: 4
#     Node 14, Type 0, BuildingBlock: UXUYUI_clean_sbu_0, # of connection points: 4
#     Node 15, Type 0, BuildingBlock: UXUYUI_clean_sbu_0, # of connection points: 4
#     Node 16, Type 0, BuildingBlock: UXUYUI_clean_sbu_0, # of connection points: 4
#     Node 17, Type 0, BuildingBlock: UXUYUI_clean_sbu_0, # of connection points: 4
#     Node 18, Type 0, BuildingBlock: UXUYUI_clean_sbu_0, # of connection points: 4
#     Node 19, Type 0, BuildingBlock: UXUYUI_clean_sbu_0, # of connection points: 4
#     Node 20, Type 0, BuildingBlock: UXUYUI_clean_sbu_0, # of connection points: 4
#     Node 21, Type 0, BuildingBlock: UXUYUI_clean_sbu_0, # of connection points: 4
#     Node 22, Type 0, BuildingBlock: UXUYUI_clean_sbu_0, # of connection points: 4
#     Node 23, Type 0, BuildingBlock: UXUYUI_clean_sbu_0, # of connection points: 4
#     Node 24, Type 1, BuildingBlock: BETDIP_clean_sbu_0, # of connection points: 6
#     Node 25, Type 1, BuildingBlock: BETDIP_clean_sbu_0, # of connection points: 6
#     Node 26, Type 1, BuildingBlock: BETDIP_clean_sbu_0, # of connection points: 6
#     Node 27, Type 1, BuildingBlock: BETDIP_clean_sbu_0, # of connection points: 6
#     Node 28, Type 1, BuildingBlock: BETDIP_clean_sbu_0, # of connection points: 6
#     Node 29, Type 1, BuildingBlock: BETDIP_clean_sbu_0, # of connection points: 6
#     Node 30, Type 1, BuildingBlock: BETDIP_clean_sbu_0, # of connection points: 6
#     Node 31, Type 1, BuildingBlock: BETDIP_clean_sbu_0, # of connection points: 6
#     Node 32, Type 1, BuildingBlock: BETDIP_clean_sbu_0, # of connection points: 6
#     Node 33, Type 1, BuildingBlock: BETDIP_clean_sbu_0, # of connection points: 6
#     Node 34, Type 1, BuildingBlock: BETDIP_clean_sbu_0, # of connection points: 6
#     Node 35, Type 1, BuildingBlock: BETDIP_clean_sbu_0, # of connection points: 6
#     Node 36, Type 1, BuildingBlock: BETDIP_clean_sbu_0, # of connection points: 6
#     Node 37, Type 1, BuildingBlock: BETDIP_clean_sbu_0, # of connection points: 6
#     Node 38, Type 1, BuildingBlock: BETDIP_clean_sbu_0, # of connection points: 6
#     Node 39, Type 1, BuildingBlock: BETDIP_clean_sbu_0, # of connection points: 6
#     Edge 40, Type (0, 1), BuildingBlock: MIFKUJ_clean_linker_0, # of connection points: 2
#     Edge 41, Type (0, 1), BuildingBlock: MIFKUJ_clean_linker_0, # of connection points: 2
#     Edge 42, Type (0, 1), BuildingBlock: MIFKUJ_clean_linker_0, # of connection points: 2
#     Edge 43, Type (0, 1), BuildingBlock: MIFKUJ_clean_linker_0, # of connection points: 2
#     Edge 44, Type (0, 1), BuildingBlock: MIFKUJ_clean_linker_0, # of connection points: 2
#     Edge 45, Type (0, 1), BuildingBlock: MIFKUJ_clean_linker_0, # of connection points: 2
#     Edge 46, Type (0, 1), BuildingBlock: MIFKUJ_clean_linker_0, # of connection points: 2
#     Edge 47, Type (0, 1), BuildingBlock: MIFKUJ_clean_linker_0, # of connection points: 2
#     Edge 48, Type (0, 1), BuildingBlock: MIFKUJ_clean_linker_0, # of connection points: 2
#     Edge 49, Type (0, 1), BuildingBlock: MIFKUJ_clean_linker_0, # of connection points: 2
#     Edge 50, Type (0, 1), BuildingBlock: MIFKUJ_clean_linker_0, # of connection points: 2
#     Edge 51, Type (0, 1), BuildingBlock: MIFKUJ_clean_linker_0, # of connection points: 2
#     Edge 52, Type (0, 1), BuildingBlock: MIFKUJ_clean_linker_0, # of connection points: 2
#     Edge 53, Type (0, 1), BuildingBlock: MIFKUJ_clean_linker_0, # of connection points: 2
#     Edge 54, Type (0, 1), BuildingBlock: MIFKUJ_clean_linker_0, # of connection points: 2
#     Edge 55, Type (0, 1), BuildingBlock: MIFKUJ_clean_linker_0, # of connection points: 2
#     Edge 56, Type (0, 1), BuildingBlock: MIFKUJ_clean_linker_0, # of connection points: 2
#     Edge 57, Type (0, 1), BuildingBlock: MIFKUJ_clean_linker_0, # of connection points: 2
#     Edge 58, Type (0, 1), BuildingBlock: MIFKUJ_clean_linker_0, # of connection points: 2
#     Edge 59, Type (0, 1), BuildingBlock: MIFKUJ_clean_linker_0, # of connection points: 2
#     Edge 60, Type (0, 1), BuildingBlock: MIFKUJ_clean_linker_0, # of connection points: 2
#     Edge 61, Type (0, 1), BuildingBlock: MIFKUJ_clean_linker_0, # of connection points: 2
#     Edge 62, Type (0, 1), BuildingBlock: MIFKUJ_clean_linker_0, # of connection points: 2
#     Edge 63, Type (0, 1), BuildingBlock: MIFKUJ_clean_linker_0, # of connection points: 2
#     Edge 64, Type (0, 1), BuildingBlock: MIFKUJ_clean_linker_0, # of connection points: 2
#     Edge 65, Type (0, 1), BuildingBlock: MIFKUJ_clean_linker_0, # of connection points: 2
#     Edge 66, Type (0, 1), BuildingBlock: MIFKUJ_clean_linker_0, # of connection points: 2
#     Edge 67, Type (0, 1), BuildingBlock: MIFKUJ_clean_linker_0, # of connection points: 2
#     Edge 68, Type (0, 1), BuildingBlock: MIFKUJ_clean_linker_0, # of connection points: 2
#     Edge 69, Type (0, 1), BuildingBlock: MIFKUJ_clean_linker_0, # of connection points: 2
#     Edge 70, Type (0, 1), BuildingBlock: MIFKUJ_clean_linker_0, # of connection points: 2
#     Edge 71, Type (0, 1), BuildingBlock: MIFKUJ_clean_linker_0, # of connection points: 2
#     Edge 72, Type (0, 1), BuildingBlock: MIFKUJ_clean_linker_0, # of connection points: 2
#     Edge 73, Type (0, 1), BuildingBlock: MIFKUJ_clean_linker_0, # of connection points: 2
#     Edge 74, Type (0, 1), BuildingBlock: MIFKUJ_clean_linker_0, # of connection points: 2
#     Edge 75, Type (0, 1), BuildingBlock: MIFKUJ_clean_linker_0, # of connection points: 2
#     Edge 76, Type (0, 1), BuildingBlock: MIFKUJ_clean_linker_0, # of connection points: 2
#     Edge 77, Type (0, 1), BuildingBlock: MIFKUJ_clean_linker_0, # of connection points: 2
#     Edge 78, Type (0, 1), BuildingBlock: MIFKUJ_clean_linker_0, # of connection points: 2
#     Edge 79, Type (0, 1), BuildingBlock: MIFKUJ_clean_linker_0, # of connection points: 2
#     Edge 80, Type (0, 1), BuildingBlock: MIFKUJ_clean_linker_0, # of connection points: 2
#     Edge 81, Type (0, 1), BuildingBlock: MIFKUJ_clean_linker_0, # of connection points: 2
#     Edge 82, Type (0, 1), BuildingBlock: MIFKUJ_clean_linker_0, # of connection points: 2
#     Edge 83, Type (0, 1), BuildingBlock: MIFKUJ_clean_linker_0, # of connection points: 2
#     Edge 84, Type (0, 1), BuildingBlock: MIFKUJ_clean_linker_0, # of connection points: 2
#     Edge 85, Type (0, 1), BuildingBlock: MIFKUJ_clean_linker_0, # of connection points: 2
#     Edge 86, Type (0, 1), BuildingBlock: MIFKUJ_clean_linker_0, # of connection points: 2
#     Edge 87, Type (0, 1), BuildingBlock: MIFKUJ_clean_linker_0, # of connection points: 2
#     Edge 88, Type (0, 1), BuildingBlock: MIFKUJ_clean_linker_0, # of connection points: 2
#     Edge 89, Type (0, 1), BuildingBlock: MIFKUJ_clean_linker_0, # of connection points: 2
#     Edge 90, Type (0, 1), BuildingBlock: MIFKUJ_clean_linker_0, # of connection points: 2
#     Edge 91, Type (0, 1), BuildingBlock: MIFKUJ_clean_linker_0, # of connection points: 2
#     Edge 92, Type (0, 1), BuildingBlock: MIFKUJ_clean_linker_0, # of connection points: 2
#     Edge 93, Type (0, 1), BuildingBlock: MIFKUJ_clean_linker_0, # of connection points: 2
#     Edge 94, Type (0, 1), BuildingBlock: MIFKUJ_clean_linker_0, # of connection points: 2
#     Edge 95, Type (0, 1), BuildingBlock: MIFKUJ_clean_linker_0, # of connection points: 2
#     Edge 96, Type (0, 1), BuildingBlock: MIFKUJ_clean_linker_0, # of connection points: 2
#     Edge 97, Type (0, 1), BuildingBlock: MIFKUJ_clean_linker_0, # of connection points: 2
#     Edge 98, Type (0, 1), BuildingBlock: MIFKUJ_clean_linker_0, # of connection points: 2
#     Edge 99, Type (0, 1), BuildingBlock: MIFKUJ_clean_linker_0, # of connection points: 2
#     Edge 100, Type (0, 1), BuildingBlock: MIFKUJ_clean_linker_0, # of connection points: 2
#     Edge 101, Type (0, 1), BuildingBlock: MIFKUJ_clean_linker_0, # of connection points: 2
#     Edge 102, Type (0, 1), BuildingBlock: MIFKUJ_clean_linker_0, # of connection points: 2
#     Edge 103, Type (0, 1), BuildingBlock: MIFKUJ_clean_linker_0, # of connection points: 2
#     Edge 104, Type (0, 1), BuildingBlock: MIFKUJ_clean_linker_0, # of connection points: 2
#     Edge 105, Type (0, 1), BuildingBlock: MIFKUJ_clean_linker_0, # of connection points: 2
#     Edge 106, Type (0, 1), BuildingBlock: MIFKUJ_clean_linker_0, # of connection points: 2
#     Edge 107, Type (0, 1), BuildingBlock: MIFKUJ_clean_linker_0, # of connection points: 2
#     Edge 108, Type (0, 1), BuildingBlock: MIFKUJ_clean_linker_0, # of connection points: 2
#     Edge 109, Type (0, 1), BuildingBlock: MIFKUJ_clean_linker_0, # of connection points: 2
#     Edge 110, Type (0, 1), BuildingBlock: MIFKUJ_clean_linker_0, # of connection points: 2
#     Edge 111, Type (0, 1), BuildingBlock: MIFKUJ_clean_linker_0, # of connection points: 2
#     Edge 112, Type (0, 1), BuildingBlock: MIFKUJ_clean_linker_0, # of connection points: 2
#     Edge 113, Type (0, 1), BuildingBlock: MIFKUJ_clean_linker_0, # of connection points: 2
#     Edge 114, Type (0, 1), BuildingBlock: MIFKUJ_clean_linker_0, # of connection points: 2
#     Edge 115, Type (0, 1), BuildingBlock: MIFKUJ_clean_linker_0, # of connection points: 2
#     Edge 116, Type (0, 1), BuildingBlock: MIFKUJ_clean_linker_0, # of connection points: 2
#     Edge 117, Type (0, 1), BuildingBlock: MIFKUJ_clean_linker_0, # of connection points: 2
#     Edge 118, Type (0, 1), BuildingBlock: MIFKUJ_clean_linker_0, # of connection points: 2
#     Edge 119, Type (0, 1), BuildingBlock: MIFKUJ_clean_linker_0, # of connection points: 2
#     Edge 120, Type (0, 1), BuildingBlock: MIFKUJ_clean_linker_0, # of connection points: 2
#     Edge 121, Type (0, 1), BuildingBlock: MIFKUJ_clean_linker_0, # of connection points: 2
#     Edge 122, Type (0, 1), BuildingBlock: MIFKUJ_clean_linker_0, # of connection points: 2
#     Edge 123, Type (0, 1), BuildingBlock: MIFKUJ_clean_linker_0, # of connection points: 2
#     Edge 124, Type (0, 1), BuildingBlock: MIFKUJ_clean_linker_0, # of connection points: 2
#     Edge 125, Type (0, 1), BuildingBlock: MIFKUJ_clean_linker_0, # of connection points: 2
#     Edge 126, Type (0, 1), BuildingBlock: MIFKUJ_clean_linker_0, # of connection points: 2
#     Edge 127, Type (0, 1), BuildingBlock: MIFKUJ_clean_linker_0, # of connection points: 2
#     Edge 128, Type (0, 1), BuildingBlock: MIFKUJ_clean_linker_0, # of connection points: 2
#     Edge 129, Type (0, 1), BuildingBlock: MIFKUJ_clean_linker_0, # of connection points: 2
#     Edge 130, Type (0, 1), BuildingBlock: MIFKUJ_clean_linker_0, # of connection points: 2
#     Edge 131, Type (0, 1), BuildingBlock: MIFKUJ_clean_linker_0, # of connection points: 2
#     Edge 132, Type (0, 1), BuildingBlock: MIFKUJ_clean_linker_0, # of connection points: 2
#     Edge 133, Type (0, 1), BuildingBlock: MIFKUJ_clean_linker_0, # of connection points: 2
#     Edge 134, Type (0, 1), BuildingBlock: MIFKUJ_clean_linker_0, # of connection points: 2
#     Edge 135, Type (0, 1), BuildingBlock: MIFKUJ_clean_linker_0, # of connection points: 2
# Relax obj value: 0.167
# Max RMSD: 0.255
# Mean RMSD: 0.182
data_MOF--net-gar--node1-UXUYUI_clean_sbu_0--node2-BETDIP_clean_sbu_0--edge1-MIFKUJ_clean_linker_0
_symmetry_space_group_name_H-M    P1
_symmetry_Int_Tables_number       1
_symmetry_cell_setting            triclinic
loop_
_symmetry_equiv_pos_as_xyz
'x, y, z'
_cell_length_a     92.033145
_cell_length_b     86.265925
_cell_length_c     83.792168
_cell_angle_alpha  96.742738
_cell_angle_beta   97.580091
_cell_angle_gamma 100.07874
loop_
_atom_site_label
_atom_site_type_symbol
_atom_site_fract_x
_atom_site_fract_y
_atom_site_fract_z
_atom_type_partial_charge
Li0 Li 0.01282 0.27979 0.36109 0.0
Li1 Li 0.02597 0.29715 0.38564 0.0
Li2 Li 0.03876 0.29039 0.36292 0.0
Li3 Li 0.03066 0.27073 0.38002 0.0
C4 C 0.02814 0.31497 0.3562 0.0
N5 N 0.04142 0.34003 0.34206 0.0
C6 C 0.0357 0.3291 0.36591 0.0
C7 C 0.0273 0.31359 0.3393 0.0
C8 C 0.04234 0.34164 0.35852 0.0
C9 C 0.0341 0.32639 0.33238 0.0
C10 C 1.0025 0.28049 0.39471 0.0
C11 C 0.99825 0.28723 0.42227 0.0
N12 N 0.98433 0.28937 0.41651 0.0
C13 C 0.98814 0.28275 0.38907 0.0
C14 C 0.00759 0.28271 0.41146 0.0
C15 C 0.97912 0.28723 0.40028 0.0
C16 C 0.98546 0.25932 0.3483 0.0
N17 N 0.99412 0.27359 0.34747 0.0
C18 C 0.975 0.28006 0.3288 0.0
C19 C 0.98927 0.28387 0.33789 0.0
C20 C 0.96563 0.26555 0.32967 0.0
C21 C 0.9711 0.25499 0.33939 0.0
H22 H 0.98956 0.25151 0.35625 0.0
H23 H 0.9963 0.29526 0.33773 0.0
C24 C 0.03579 0.31957 0.41416 0.0
N25 N 0.02433 0.31381 0.40177 0.0
C26 C 0.03478 0.33211 0.42582 0.0
C27 C 0.01017 0.33249 0.41175 0.0
C28 C 0.01174 0.32007 0.40025 0.0
C29 C 0.02184 0.33871 0.42466 0.0
H30 H 0.0458 0.31459 0.41486 0.0
H31 H 1.00297 0.31549 0.39002 0.0
C32 C 0.02093 0.25667 0.34378 0.0
N33 N 1.00399 0.23384 0.31933 0.0
C34 C 0.01628 0.24113 0.34683 0.0
C35 C 0.01696 0.26059 0.32828 0.0
C36 C 0.00774 0.22976 0.33431 0.0
C37 C 0.00838 0.24888 0.31609 0.0
C38 C 0.05652 0.28552 0.39538 0.0
C39 C 0.06822 0.28098 0.38807 0.0
C40 C 0.05578 0.28367 0.41162 0.0
C41 C 0.07901 0.27465 0.39716 0.0
C42 C 0.06676 0.27725 0.42028 0.0
N43 N 0.07806 0.27292 0.41293 0.0
C44 C 0.06583 0.30988 0.36001 0.0
C45 C 0.05516 0.29099 0.33668 0.0
C46 C 0.07866 0.31441 0.35314 0.0
N47 N 0.0546 0.29811 0.35187 0.0
C48 C 0.06767 0.29528 0.32927 0.0
C49 C 0.07979 0.30681 0.33772 0.0
H50 H 0.06508 0.31524 0.37213 0.0
H51 H 0.04618 0.28153 0.3306 0.0
C52 C 0.02963 0.24875 0.40247 0.0
N53 N 0.03559 0.25294 0.38926 0.0
C54 C 0.03349 0.23599 0.4097 0.0
C55 C 0.04925 0.23181 0.38928 0.0
C56 C 0.04521 0.24479 0.38256 0.0
C57 C 0.04342 0.22737 0.40309 0.0
H58 H 0.02189 0.25532 0.40742 0.0
H59 H 0.04974 0.24842 0.37201 0.0
O60 O 0.02189 0.30241 0.36322 0.0
O61 O 0.01157 0.27627 0.38392 0.0
O62 O 0.02914 0.26804 0.35595 0.0
O63 O 0.04561 0.29131 0.38655 0.0
H64 H 0.03657 0.33034 0.37901 0.0
H65 H 0.02165 0.30266 0.33162 0.0
H66 H 0.04827 0.35263 0.36589 0.0
H67 H 0.03362 0.32545 0.31933 0.0
H68 H 1.0021 0.28912 0.43524 0.0
H69 H 0.98401 0.28123 0.3762 0.0
H70 H 0.01875 0.2813 0.41606 0.0
H71 H 0.96801 0.28907 0.39608 0.0
H72 H 0.9711 0.2887 0.32176 0.0
H73 H 0.96424 0.24369 0.34037 0.0
H74 H 0.04402 0.33664 0.43561 0.0
H75 H 1.00014 0.33747 0.41029 0.0
H76 H 0.01906 0.2379 0.35878 0.0
H77 H 0.02019 0.27261 0.32576 0.0
H78 H 1.00402 0.2177 0.33653 0.0
H79 H 0.00514 0.25178 0.30408 0.0
H80 H 0.06886 0.28209 0.37545 0.0
H81 H 0.04668 0.28689 0.41741 0.0
H82 H 0.08809 0.27102 0.39164 0.0
H83 H 0.06627 0.27565 0.43283 0.0
H84 H 0.0878 0.32333 0.36002 0.0
H85 H 0.06823 0.28895 0.31748 0.0
H86 H 0.02859 0.23275 0.42019 0.0
H87 H 0.05696 0.22544 0.38389 0.0
Li88 Li 0.03036 0.76088 0.66093 0.0
Li89 Li 0.04783 0.75258 0.68101 0.0
Li90 Li 0.03191 0.73338 0.65892 0.0
Li91 Li 0.02144 0.74534 0.68165 0.0
C92 C 0.05624 0.74448 0.64738 0.0
N93 N 0.0726 0.72893 0.6276 0.0
C94 C 0.06988 0.74099 0.65392 0.0
C95 C 0.05096 0.74006 0.63074 0.0
C96 C 0.07799 0.73315 0.64373 0.0
C97 C 0.05937 0.73219 0.62096 0.0
C98 C 0.0414 0.77824 0.69716 0.0
C99 C 0.05185 0.78634 0.72548 0.0
N100 N 0.05807 0.80081 0.72199 0.0
C101 C 0.04783 0.79321 0.69387 0.0
C102 C 0.04335 0.77479 0.7131 0.0
C103 C 0.05624 0.80445 0.70659 0.0
C104 C 0.0222 0.79039 0.65568 0.0
N105 N 0.02785 0.77797 0.64914 0.0
C106 C 0.03211 0.79055 0.62585 0.0
C107 C 0.03267 0.77779 0.6345 0.0
C108 C 0.02682 0.80375 0.63252 0.0
C109 C 0.02173 0.80361 0.64758 0.0
H110 H 0.01845 0.79019 0.66737 0.0
H111 H 0.03722 0.76788 0.62967 0.0
C112 C 0.073 0.74882 0.70265 0.0
N113 N 0.06718 0.75872 0.69325 0.0
C114 C 0.08806 0.75251 0.70959 0.0
C115 C 0.09055 0.77686 0.69766 0.0
C116 C 0.07556 0.77257 0.69074 0.0
C117 C 0.09714 0.76654 0.7068 0.0
H118 H 0.06617 0.73768 0.70406 0.0
H119 H 0.07074 0.77994 0.68277 0.0
C120 C 1.00288 0.74873 0.64964 0.0
N121 N 0.98234 0.76338 0.63314 0.0
C122 C 0.99287 0.75569 0.65791 0.0
C123 C 1.00242 0.7492 0.63295 0.0
C124 C 0.98256 0.76302 0.64935 0.0
C125 C 0.99197 0.75668 0.62484 0.0
C126 C 0.03245 0.72043 0.6921 0.0
C127 C 0.02517 0.70499 0.68534 0.0
C128 C 0.03531 0.72462 0.709 0.0
C129 C 0.0207 0.69404 0.69562 0.0
C130 C 0.03064 0.71334 0.71887 0.0
N131 N 0.02349 0.69842 0.71203 0.0
C132 C 0.04194 0.70581 0.64745 0.0
C133 C 0.02057 0.7105 0.63102 0.0
C134 C 0.04258 0.69267 0.63635 0.0
N135 N 0.03116 0.7145 0.64449 0.0
C136 C 0.02083 0.6975 0.61953 0.0
C137 C 0.03203 0.68847 0.62205 0.0
H138 H 0.05019 0.7093 0.65832 0.0
H139 H 0.01212 0.7176 0.62901 0.0
C140 C 1.00438 0.75421 0.70553 0.0
N141 N 0.0066 0.74173 0.69528 0.0
C142 C 0.99315 0.75211 0.71519 0.0
C143 C 0.98685 0.72429 0.70376 0.0
C144 C 0.99799 0.72702 0.69407 0.0
C145 C 0.98416 0.73697 0.71442 0.0
H146 H 0.01104 0.7659 0.70588 0.0
H147 H 0.99963 0.71743 0.6854 0.0
O148 O 0.048 0.75195 0.65723 0.0
O149 O 0.03326 0.767 0.68484 0.0
O150 O 0.01333 0.74189 0.6579 0.0
O151 O 0.03687 0.73133 0.68223 0.0
H152 H 0.07418 0.74417 0.66673 0.0
H153 H 0.04026 0.74222 0.62547 0.0
H154 H 0.08853 0.73036 0.64866 0.0
H155 H 0.05532 0.72855 0.60811 0.0
H156 H 0.05349 0.78381 0.73786 0.0
H157 H 0.04656 0.79606 0.6816 0.0
H158 H 0.03839 0.76331 0.71587 0.0
H159 H 0.06137 0.81605 0.7042 0.0
H160 H 0.03627 0.79035 0.61433 0.0
H161 H 0.01756 0.81363 0.65303 0.0
H162 H 0.09269 0.74403 0.71626 0.0
H163 H 0.09703 0.78788 0.69535 0.0
H164 H 0.99312 0.75554 0.67082 0.0
H165 H 0.01026 0.74417 0.6264 0.0
H166 H 0.97478 0.76849 0.65562 0.0
H167 H 0.99157 0.75725 0.61197 0.0
H168 H 0.02282 0.70153 0.67229 0.0
H169 H 0.04105 0.73646 0.71444 0.0
H170 H 0.01498 0.68208 0.69056 0.0
H171 H 0.03271 0.71645 0.73197 0.0
H172 H 0.05123 0.68588 0.63895 0.0
H173 H 0.01256 0.6948 0.60864 0.0
H174 H 0.99127 0.76239 0.72278 0.0
H175 H 0.98034 0.71239 0.70275 0.0
Li176 Li 0.51107 0.78127 0.85897 0.0
Li177 Li 0.52771 0.79775 0.88166 0.0
Li178 Li 0.53738 0.78876 0.85714 0.0
Li179 Li 0.52977 0.77092 0.8758 0.0
C180 C 0.51937 0.80851 0.84508 0.0
N181 N 0.51266 0.82005 0.81616 0.0
C182 C 0.51913 0.82466 0.84511 0.0
C183 C 0.51616 0.79821 0.83035 0.0
C184 C 0.51572 0.83027 0.83036 0.0
C185 C 0.51281 0.80428 0.81586 0.0
C186 C 0.50641 0.78335 0.89585 0.0
C187 C 0.50946 0.79166 0.92482 0.0
N188 N 0.49498 0.79347 0.92331 0.0
C189 C 0.4915 0.78508 0.89463 0.0
C190 C 0.5154 0.78645 0.91111 0.0
C191 C 0.48595 0.79027 0.90863 0.0
C192 C 0.4849 0.76639 0.83537 0.0
N193 N 0.49139 0.77854 0.84744 0.0
C194 C 0.46919 0.78937 0.84557 0.0
C195 C 0.48401 0.79014 0.85227 0.0
C196 C 0.46195 0.77658 0.83363 0.0
C197 C 0.47003 0.7651 0.82835 0.0
H198 H 0.49112 0.75765 0.83117 0.0
H199 H 0.48959 0.79983 0.86165 0.0
C200 C 0.54051 0.82069 0.90957 0.0
N201 N 0.52867 0.81559 0.89746 0.0
C202 C 0.54071 0.8339 0.92102 0.0
C203 C 0.51659 0.8363 0.9072 0.0
C204 C 0.51686 0.82308 0.89605 0.0
C205 C 0.52866 0.84192 0.91985 0.0
H206 H 0.5498 0.81454 0.91029 0.0
H207 H 0.50761 0.81869 0.88627 0.0
C208 C 0.51733 0.75196 0.84622 0.0
N209 N 0.50254 0.72093 0.83583 0.0
C210 C 0.5068 0.74466 0.85499 0.0
C211 C 0.52039 0.74342 0.83224 0.0
C212 C 0.49944 0.72898 0.84952 0.0
C213 C 0.51277 0.72776 0.82716 0.0
C214 C 0.55769 0.78302 0.8867 0.0
C215 C 0.56694 0.77685 0.87668 0.0
C216 C 0.55983 0.78177 0.90329 0.0
C217 C 0.57813 0.76943 0.88343 0.0
C218 C 0.57112 0.77423 0.90957 0.0
N219 N 0.57996 0.76827 0.89959 0.0
C220 C 0.56298 0.80667 0.84895 0.0
C221 C 0.54969 0.78614 0.82813 0.0
C222 C 0.57432 0.81022 0.83967 0.0
N223 N 0.5512 0.79458 0.84319 0.0
C224 C 0.5607 0.78937 0.81838 0.0
C225 C 0.57338 0.80128 0.82432 0.0
H226 H 0.56382 0.81313 0.86102 0.0
H227 H 0.54019 0.77658 0.82392 0.0
C228 C 0.52799 0.74874 0.89809 0.0
N229 N 0.53376 0.75246 0.88461 0.0
C230 C 0.53063 0.73523 0.9047 0.0
C231 C 0.54485 0.72936 0.88323 0.0
C232 C 0.54194 0.74303 0.87704 0.0
C233 C 0.53923 0.72538 0.89731 0.0
H234 H 0.52122 0.75617 0.90363 0.0
H235 H 0.54621 0.74616 0.86618 0.0
O236 O 0.52267 0.80289 0.85947 0.0
O237 O 0.51212 0.77852 0.88222 0.0
O238 O 0.52499 0.76719 0.85148 0.0
O239 O 0.54645 0.79001 0.88024 0.0
H240 H 0.52155 0.83277 0.85643 0.0
H241 H 0.51622 0.78566 0.83009 0.0
H242 H 0.5155 0.84275 0.8302 0.0
H243 H 0.51031 0.79644 0.80438 0.0
H244 H 0.51637 0.79429 0.93666 0.0
H245 H 0.48422 0.78231 0.88305 0.0
H246 H 0.52694 0.78512 0.91231 0.0
H247 H 0.47445 0.79173 0.90783 0.0
H248 H 0.46334 0.79842 0.85006 0.0
H249 H 0.46491 0.75524 0.81892 0.0
H250 H 0.55031 0.83797 0.93048 0.0
H251 H 0.50698 0.842 0.90597 0.0
H252 H 0.50427 0.75098 0.86587 0.0
H253 H 0.52861 0.7488 0.82539 0.0
H254 H 0.49125 0.72321 0.85617 0.0
H255 H 0.51502 0.72103 0.81634 0.0
H256 H 0.56537 0.77753 0.86379 0.0
H257 H 0.55279 0.78646 0.91123 0.0
H258 H 0.58531 0.76452 0.8758 0.0
H259 H 0.57284 0.7731 0.92237 0.0
H260 H 0.58392 0.81951 0.84464 0.0
H261 H 0.55969 0.78205 0.80671 0.0
H262 H 0.52582 0.73242 0.91538 0.0
H263 H 0.55157 0.72211 0.8772 0.0
Li264 Li 0.54613 0.26582 0.1538 0.0
Li265 Li 0.5549 0.25137 0.17565 0.0
Li266 Li 0.54006 0.23677 0.15064 0.0
Li267 Li 0.52971 0.25309 0.17036 0.0
C268 C 0.57461 0.25757 0.1535 0.0
N269 N 0.60424 0.27166 0.15487 0.0
C270 C 0.58082 0.27154 0.16424 0.0
C271 C 0.58349 0.25082 0.14341 0.0
C272 C 0.59581 0.27846 0.16478 0.0
C273 C 0.59843 0.25812 0.14427 0.0
C274 C 0.54121 0.28004 0.18888 0.0
C275 C 0.53441 0.28459 0.21564 0.0
N276 N 0.52858 0.29724 0.21141 0.0
C277 C 0.53533 0.29321 0.18488 0.0
C278 C 0.54091 0.2758 0.20445 0.0
C279 C 0.52893 0.30171 0.19641 0.0
C280 C 0.5372 0.29061 0.13953 0.0
N281 N 0.54915 0.28338 0.14188 0.0
C282 C 0.56267 0.30077 0.12637 0.0
C283 C 0.56167 0.28804 0.13529 0.0
C284 C 0.55051 0.30846 0.12387 0.0
C285 C 0.53763 0.30322 0.13051 0.0
H286 H 0.52723 0.28641 0.14454 0.0
H287 H 0.57082 0.2818 0.13659 0.0
C288 C 0.57842 0.23817 0.18946 0.0
N289 N 0.57168 0.25092 0.19122 0.0
C290 C 0.59189 0.23816 0.19921 0.0
C291 C 0.59142 0.2646 0.21214 0.0
C292 C 0.57772 0.2639 0.20245 0.0
C293 C 0.59887 0.25172 0.21037 0.0
H294 H 0.5736 0.22821 0.18009 0.0
H295 H 0.57236 0.27409 0.20321 0.0
C296 C 0.52262 0.25117 0.12985 0.0
N297 N 0.5151 0.25004 0.09665 0.0
C298 C 0.50802 0.25171 0.12313 0.0
C299 C 0.53341 0.25009 0.11969 0.0
C300 C 0.50444 0.25111 0.10631 0.0
C301 C 0.52938 0.24952 0.10294 0.0
C302 C 0.5422 0.22311 0.18281 0.0
C303 C 0.54464 0.20845 0.1758 0.0
C304 C 0.54459 0.22697 0.19975 0.0
C305 C 0.54973 0.19804 0.18583 0.0
C306 C 0.5497 0.21625 0.20937 0.0
N307 N 0.55215 0.20214 0.20227 0.0
C308 C 0.54912 0.21246 0.13173 0.0
C309 C 0.52288 0.21093 0.12812 0.0
C310 C 0.5475 0.19889 0.12035 0.0
N311 N 0.53691 0.21818 0.13531 0.0
C312 C 0.52073 0.19729 0.11665 0.0
C313 C 0.53316 0.19113 0.11264 0.0
H314 H 0.56009 0.21835 0.13791 0.0
H315 H 0.51339 0.21578 0.13125 0.0
C316 C 0.50372 0.26491 0.17405 0.0
N317 N 0.51253 0.25508 0.17984 0.0
C318 C 0.49171 0.26785 0.18169 0.0
C319 C 0.4979 0.25019 0.20083 0.0
C320 C 0.50976 0.24757 0.19279 0.0
C321 C 0.48877 0.26058 0.19539 0.0
H322 H 0.50627 0.27072 0.16371 0.0
H323 H 0.51699 0.23985 0.19713 0.0
O324 O 0.56009 0.25023 0.15317 0.0
O325 O 0.54711 0.27125 0.17759 0.0
O326 O 0.52625 0.25189 0.14634 0.0
O327 O 0.53721 0.23345 0.17315 0.0
H328 H 0.57415 0.27709 0.17202 0.0
H329 H 0.57891 0.24006 0.13498 0.0
H330 H 0.60074 0.28924 0.17305 0.0
H331 H 0.60541 0.25301 0.13654 0.0
H332 H 0.53397 0.28133 0.22767 0.0
H333 H 0.53562 0.2968 0.173 0.0
H334 H 0.5455 0.26573 0.2078 0.0
H335 H 0.52424 0.31185 0.19342 0.0
H336 H 0.57267 0.3043 0.12113 0.0
H337 H 0.52801 0.30886 0.1288 0.0
H338 H 0.597 0.22781 0.19758 0.0
H339 H 0.59645 0.27547 0.22026 0.0
H340 H 0.49956 0.2526 0.13084 0.0
H341 H 0.54478 0.24973 0.12464 0.0
H342 H 0.49318 0.25151 0.10094 0.0
H343 H 0.53761 0.24869 0.09494 0.0
H344 H 0.54264 0.2051 0.16275 0.0
H345 H 0.54272 0.23819 0.20544 0.0
H346 H 0.55173 0.1867 0.18055 0.0
H347 H 0.55172 0.21917 0.22249 0.0
H348 H 0.55735 0.19437 0.11785 0.0
H349 H 0.5095 0.19171 0.11089 0.0
H350 H 0.48482 0.27575 0.17694 0.0
H351 H 0.49614 0.24447 0.21144 0.0
Li352 Li 0.04643 0.79532 0.12175 0.0
Li353 Li 0.06147 0.78219 0.14357 0.0
Li354 Li 0.0445 0.76596 0.12027 0.0
Li355 Li 0.03384 0.77984 0.14089 0.0
C356 C 0.07001 0.77495 0.10915 0.0
N357 N 0.08435 0.75888 0.08751 0.0
C358 C 0.07938 0.7649 0.11458 0.0
C359 C 0.06808 0.77699 0.09276 0.0
C360 C 0.08649 0.75683 0.10344 0.0
C361 C 0.07539 0.76872 0.082 0.0
C362 C 0.04457 0.80673 0.15931 0.0
C363 C 0.04237 0.80942 0.18781 0.0
N364 N 0.03275 0.81952 0.1853 0.0
C365 C 0.03471 0.81717 0.15701 0.0
C366 C 0.04847 0.80283 0.17482 0.0
C367 C 0.02884 0.8235 0.17031 0.0
C368 C 0.03332 0.8199 0.10933 0.0
N369 N 0.04622 0.81415 0.11092 0.0
C370 C 0.05819 0.83552 0.09834 0.0
C371 C 0.05854 0.82164 0.10554 0.0
C372 C 0.04503 0.84185 0.09662 0.0
C373 C 0.03249 0.83372 0.10224 0.0
H374 H 0.02367 0.8138 0.11373 0.0
H375 H 0.06869 0.81688 0.1069 0.0
C376 C 0.08123 0.77573 0.17042 0.0
N377 N 0.08054 0.78351 0.15721 0.0
C378 C 0.09507 0.77501 0.17931 0.0
C379 C 0.10731 0.79054 0.16102 0.0
C380 C 0.09324 0.79099 0.15252 0.0
C381 C 0.10843 0.7823 0.17455 0.0
H382 H 0.07102 0.76974 0.17386 0.0
H383 H 0.09245 0.79699 0.14189 0.0
C384 C 0.01956 0.77477 0.10221 0.0
N385 N 1.00194 0.76751 0.07196 0.0
C386 C 0.00503 0.76595 0.10045 0.0
C387 C 0.02506 0.78004 0.08863 0.0
C388 C 0.99632 0.76235 0.08504 0.0
C389 C 0.016 0.77622 0.07343 0.0
C390 C 0.03719 0.74931 0.14588 0.0
C391 C 0.023 0.74417 0.13662 0.0
C392 C 0.04238 0.74013 0.15725 0.0
C393 C 0.01419 0.72994 0.13895 0.0
C394 C 0.03324 0.72597 0.15923 0.0
N395 N 0.01945 0.72121 0.15011 0.0
C396 C 0.05129 0.73556 0.11369 0.0
C397 C 0.03441 0.74045 0.0919 0.0
C398 C 0.05095 0.72022 0.10588 0.0
N399 N 0.04307 0.74538 0.10673 0.0
C400 C 0.03368 0.72511 0.08366 0.0
C401 C 0.042 0.71469 0.09067 0.0
H402 H 0.05808 0.7396 0.12548 0.0
H403 H 0.02795 0.74827 0.08642 0.0
C404 C 0.00503 0.78516 0.14551 0.0
N405 N 0.01669 0.77917 0.15235 0.0
C406 C 0.99206 0.78467 0.15266 0.0
C407 C 1.00326 0.77189 0.17389 0.0
C408 C 0.01607 0.7727 0.16636 0.0
C409 C 0.99092 0.77784 0.16701 0.0
H410 H 0.00579 0.79033 0.13443 0.0
H411 H 0.02547 0.76801 0.17163 0.0
O412 O 0.06273 0.78269 0.11984 0.0
O413 O 0.04998 0.79991 0.14636 0.0
O414 O 0.02817 0.77854 0.11724 0.0
O415 O 0.04606 0.76316 0.14374 0.0
H416 H 0.08097 0.76315 0.12722 0.0
H417 H 0.06106 0.78491 0.08839 0.0
H418 H 0.09366 0.7489 0.10745 0.0
H419 H 0.07396 0.77015 0.06926 0.0
H420 H 0.04522 0.80645 0.19987 0.0
H421 H 0.03151 0.82021 0.14505 0.0
H422 H 0.056 0.79465 0.17674 0.0
H423 H 0.02113 0.83153 0.1687 0.0
H424 H 0.06811 0.84114 0.09404 0.0
H425 H 0.02215 0.83814 0.10148 0.0
H426 H 0.09528 0.76837 0.1895 0.0
H427 H 0.11722 0.79654 0.15698 0.0
H428 H 1.0005 0.76197 0.11088 0.0
H429 H 0.03621 0.78697 0.08978 0.0
H430 H 0.98507 0.75549 0.08348 0.0
H431 H 0.02014 0.78018 0.0628 0.0
H432 H 0.01884 0.75106 0.12772 0.0
H433 H 0.05337 0.74389 0.16445 0.0
H434 H 1.00319 0.72584 0.13187 0.0
H435 H 0.03711 0.71875 0.16799 0.0
H436 H 0.0574 0.71264 0.11194 0.0
H437 H 0.02674 0.72149 0.07188 0.0
H438 H 0.98305 0.78972 0.14701 0.0
H439 H 1.00296 0.76635 0.18481 0.0
Li440 Li 0.50842 0.76661 0.41683 0.0
Li441 Li 0.4912 0.7499 0.39427 0.0
Li442 Li 0.50654 0.73705 0.41546 0.0
Li443 Li 0.51841 0.75156 0.3953 0.0
C444 C 0.48648 0.75554 0.43236 0.0
N445 N 0.47881 0.76777 0.46135 0.0
C446 C 0.47402 0.76276 0.43231 0.0
C447 C 0.495 0.75445 0.44713 0.0
C448 C 0.47034 0.76889 0.4471 0.0
C449 C 0.49095 0.76073 0.46167 0.0
C450 C 0.50183 0.77549 0.38041 0.0
C451 C 0.49278 0.77333 0.35172 0.0
N452 N 0.49078 0.78864 0.35395 0.0
C453 C 0.49979 0.79124 0.38239 0.0
C454 C 0.49839 0.76649 0.36494 0.0
C455 C 0.49416 0.79766 0.36887 0.0
C456 C 0.52156 0.7934 0.44274 0.0
N457 N 0.51001 0.78693 0.43055 0.0
C458 C 0.49923 0.81021 0.43472 0.0
C459 C 0.49886 0.79495 0.42666 0.0
C460 C 0.51126 0.81747 0.44694 0.0
C461 C 0.52246 0.80875 0.45103 0.0
H462 H 0.5302 0.78682 0.44594 0.0
H463 H 0.48975 0.78959 0.41701 0.0
C464 C 0.46445 0.73662 0.37031 0.0
N465 N 0.47181 0.74928 0.38141 0.0
C466 C 0.45047 0.737 0.36144 0.0
C467 C 0.45193 0.7634 0.37552 0.0
C468 C 0.46579 0.76249 0.38411 0.0
C469 C 0.44394 0.75053 0.364 0.0
H470 H 0.46938 0.72618 0.36838 0.0
H471 H 0.47184 0.77244 0.39295 0.0
C472 C 0.53845 0.76406 0.42408 0.0
N473 N 0.56593 0.78423 0.43306 0.0
C474 C 0.54204 0.77734 0.41622 0.0
C475 C 0.54884 0.76106 0.4365 0.0
C476 C 0.55599 0.78738 0.42093 0.0
C477 C 0.56267 0.7714 0.44087 0.0
C478 C 0.50761 0.72161 0.38063 0.0
C479 C 0.51777 0.7127 0.38684 0.0
C480 C 0.50303 0.71996 0.36384 0.0
C481 C 0.5234 0.70248 0.3761 0.0
C482 C 0.50891 0.7096 0.3535 0.0
N483 N 0.5189 0.70116 0.3598 0.0
C484 C 0.49395 0.70794 0.42676 0.0
C485 C 0.52005 0.7163 0.43465 0.0
C486 C 0.49421 0.69416 0.43416 0.0
N487 N 0.50677 0.71867 0.42706 0.0
C488 C 0.52082 0.70272 0.44221 0.0
C489 C 0.5078 0.69129 0.44199 0.0
H490 H 0.48351 0.70998 0.4206 0.0
H491 H 0.53015 0.72479 0.43451 0.0
C492 C 0.53718 0.76096 0.37128 0.0
N493 N 0.53532 0.7519 0.38338 0.0
C494 C 0.55001 0.76186 0.36379 0.0
C495 C 0.55889 0.74412 0.38132 0.0
C496 C 0.54592 0.74361 0.38848 0.0
C497 C 0.56119 0.75343 0.36883 0.0
H498 H 0.52891 0.76785 0.36766 0.0
H499 H 0.54444 0.73675 0.39835 0.0
O500 O 0.49055 0.74986 0.41803 0.0
O501 O 0.50692 0.76883 0.39357 0.0
O502 O 0.52492 0.75392 0.41957 0.0
O503 O 0.50215 0.73184 0.39096 0.0
H504 H 0.46734 0.76371 0.42096 0.0
H505 H 0.50474 0.74897 0.44734 0.0
H506 H 0.46077 0.77458 0.44726 0.0
H507 H 0.49748 0.76004 0.47319 0.0
H508 H 0.49 0.76646 0.3397 0.0
H509 H 0.50256 0.79846 0.39422 0.0
H510 H 0.49998 0.75434 0.36321 0.0
H511 H 0.49248 0.80982 0.37024 0.0
H512 H 0.49039 0.81644 0.43102 0.0
H513 H 0.53183 0.81374 0.46054 0.0
H514 H 0.44475 0.72668 0.35287 0.0
H515 H 0.44762 0.77422 0.37778 0.0
H516 H 0.53419 0.77991 0.40659 0.0
H517 H 0.54626 0.75087 0.44275 0.0
H518 H 0.55891 0.79768 0.41495 0.0
H519 H 0.57081 0.76922 0.45048 0.0
H520 H 0.52143 0.71383 0.39979 0.0
H521 H 0.49497 0.72653 0.35882 0.0
H522 H 0.53137 0.69562 0.38074 0.0
H523 H 0.5055 0.70825 0.34048 0.0
H524 H 0.48383 0.68588 0.43377 0.0
H525 H 0.53161 0.70102 0.4478 0.0
H526 H 0.55133 0.76945 0.35447 0.0
H527 H 0.56703 0.73727 0.38557 0.0
Li528 Li 0.54839 0.29629 0.62055 0.0
Li529 Li 0.56386 0.28301 0.64219 0.0
Li530 Li 0.54602 0.26694 0.61967 0.0
Li531 Li 0.53556 0.28121 0.64043 0.0
C532 C 0.56973 0.27785 0.60476 0.0
N533 N 0.5806 0.26697 0.57723 0.0
C534 C 0.58304 0.27206 0.6062 0.0
C535 C 0.56203 0.27826 0.58934 0.0
C536 C 0.58833 0.26656 0.59213 0.0
C537 C 0.56769 0.27267 0.57556 0.0
C538 C 0.54776 0.3083 0.65848 0.0
C539 C 0.54675 0.31148 0.68726 0.0
N540 N 0.53743 0.32195 0.68517 0.0
C541 C 0.5382 0.3191 0.65661 0.0
C542 C 0.5521 0.30445 0.67391 0.0
C543 C 0.53309 0.32587 0.67026 0.0
C544 C 0.5359 0.3215 0.60864 0.0
N545 N 0.54821 0.31473 0.60912 0.0
C546 C 0.55986 0.3346 0.59453 0.0
C547 C 0.56007 0.32097 0.6022 0.0
C548 C 0.54735 0.34203 0.594 0.0
C549 C 0.53526 0.33517 0.60122 0.0
H550 H 0.52658 0.31636 0.61422 0.0
H551 H 0.56976 0.31542 0.60268 0.0
C552 C 0.58402 0.27696 0.66903 0.0
N553 N 0.58313 0.28423 0.65546 0.0
C554 C 0.59796 0.27637 0.67777 0.0
C555 C 0.60989 0.29088 0.65857 0.0
C556 C 0.59573 0.29129 0.65027 0.0
C557 C 0.61121 0.28322 0.67248 0.0
H558 H 0.57388 0.27126 0.67286 0.0
H559 H 0.59478 0.29696 0.63943 0.0
C560 C 0.5178 0.27438 0.60526 0.0
N561 N 0.49271 0.26373 0.58195 0.0
C562 C 0.50529 0.26453 0.60895 0.0
C563 C 0.51746 0.279 0.5898 0.0
C564 C 0.49274 0.25922 0.59698 0.0
C565 C 0.5047 0.27343 0.57816 0.0
C566 C 0.54457 0.24877 0.64329 0.0
C567 C 0.52972 0.24071 0.63997 0.0
C568 C 0.55604 0.24026 0.64608 0.0
C569 C 0.52657 0.22418 0.63924 0.0
C570 C 0.55243 0.22374 0.64526 0.0
N571 N 0.5379 0.21611 0.64186 0.0
C572 C 0.55608 0.23928 0.60712 0.0
C573 C 0.53065 0.23817 0.59714 0.0
C574 C 0.55532 0.2238 0.59942 0.0
N575 N 0.54385 0.24621 0.60599 0.0
C576 C 0.52934 0.22257 0.58934 0.0
C577 C 0.54175 0.21502 0.59054 0.0
H578 H 0.56637 0.24556 0.61458 0.0
H579 H 0.52092 0.24354 0.5965 0.0
C580 C 0.50727 0.28769 0.64626 0.0
N581 N 0.51882 0.28113 0.65242 0.0
C582 C 0.49447 0.28713 0.65372 0.0
C583 C 0.50582 0.2736 0.67418 0.0
C584 C 0.51836 0.27427 0.6662 0.0
C585 C 0.49348 0.27992 0.66788 0.0
H586 H 0.50788 0.29312 0.6353 0.0
H587 H 0.52769 0.26919 0.67095 0.0
O588 O 0.56429 0.28317 0.61837 0.0
O589 O 0.5524 0.30105 0.64521 0.0
O590 O 0.53011 0.27992 0.61687 0.0
O591 O 0.54788 0.26489 0.64358 0.0
H592 H 0.58912 0.27161 0.61805 0.0
H593 H 0.55179 0.28282 0.58803 0.0
H594 H 0.59855 0.26195 0.59306 0.0
H595 H 0.56181 0.27286 0.56354 0.0
H596 H 0.54997 0.30857 0.69927 0.0
H597 H 0.53465 0.3221 0.64472 0.0
H598 H 0.55939 0.29599 0.67552 0.0
H599 H 0.52563 0.3342 0.66899 0.0
H600 H 0.5694 0.33916 0.58898 0.0
H601 H 0.52544 0.34045 0.60145 0.0
H602 H 0.59834 0.27019 0.6883 0.0
H603 H 0.61973 0.29652 0.65412 0.0
H604 H 0.50531 0.26093 0.62088 0.0
H605 H 0.5269 0.28689 0.58684 0.0
H606 H 0.48302 0.25152 0.59963 0.0
H607 H 0.5043 0.27687 0.56613 0.0
H608 H 0.52073 0.24715 0.63784 0.0
H609 H 0.5676 0.24633 0.6486 0.0
H610 H 0.51513 0.21777 0.63656 0.0
H611 H 0.56119 0.21697 0.64724 0.0
H612 H 0.56531 0.21874 0.6006 0.0
H613 H 0.51854 0.21633 0.58289 0.0
H614 H 0.4853 0.29197 0.64813 0.0
H615 H 0.50585 0.26819 0.6852 0.0
Li616 Li 0.0104 0.26568 0.91607 0.0
Li617 Li 0.99286 0.24989 0.89311 0.0
Li618 Li 0.00764 0.23624 0.91506 0.0
Li619 Li 0.02123 0.25146 0.89566 0.0
C620 C 0.98619 0.2537 0.93062 0.0
N621 N 0.97477 0.262 0.9586 0.0
C622 C 0.97274 0.25923 0.92965 0.0
C623 C 0.99373 0.25223 0.94579 0.0
C624 C 0.96718 0.26342 0.94395 0.0
C625 C 0.9878 0.25652 0.95981 0.0
C626 C 0.01155 0.28409 0.89283 0.0
C627 C 0.02829 0.30957 0.89758 0.0
N628 N 0.01639 0.31683 0.8949 0.0
C629 C 0.99948 0.29177 0.89001 0.0
C630 C 0.02608 0.29302 0.89654 0.0
C631 C 1.00216 0.30834 0.89115 0.0
C632 C 0.02531 0.29531 0.93782 0.0
N633 N 0.01209 0.2865 0.9297 0.0
C634 C 0.99973 0.30815 0.93677 0.0
C635 C 0.99943 0.29273 0.9291 0.0
C636 C 0.01324 0.31751 0.94518 0.0
C637 C 0.02611 0.31075 0.94574 0.0
H638 H 0.03544 0.29075 0.93776 0.0
H639 H 0.98917 0.28603 0.92194 0.0
C640 C 0.96103 0.24236 0.88443 0.0
N641 N 0.97389 0.24881 0.87931 0.0
C642 C 0.94708 0.24299 0.87575 0.0
C643 C 0.95974 0.25641 0.85632 0.0
C644 C 0.97347 0.2556 0.86543 0.0
C645 C 0.94625 0.25025 0.86155 0.0
H646 H 0.96161 0.237 0.89548 0.0
H647 H 0.98381 0.26081 0.86166 0.0
C648 C 0.03878 0.26093 0.92991 0.0
N649 N 0.06394 0.27748 0.95083 0.0
C650 C 0.05085 0.26912 0.92377 0.0
C651 C 0.03954 0.26124 0.94673 0.0
C652 C 0.06346 0.27738 0.93453 0.0
C653 C 0.05234 0.26966 0.95709 0.0
C654 C 0.00881 0.22362 0.87782 0.0
C655 C 0.01672 0.21151 0.88053 0.0
C656 C 0.00597 0.22756 0.86216 0.0
C657 C 0.02173 0.20354 0.86746 0.0
C658 C 0.01117 0.21931 0.84941 0.0
N659 N 0.01889 0.20758 0.85231 0.0
C660 C 0.9981 0.20313 0.91778 0.0
C661 C 0.01538 0.2174 0.94029 0.0
C662 C 0.99796 0.18891 0.92445 0.0
N663 N 0.00679 0.21704 0.92567 0.0
C664 C 0.01549 0.20351 0.94746 0.0
C665 C 0.00683 0.18886 0.93951 0.0
H666 H 0.99147 0.203 0.90607 0.0
H667 H 0.02232 0.22842 0.94637 0.0
C668 C 0.04025 0.26099 0.87225 0.0
N669 N 0.03789 0.25112 0.88357 0.0
C670 C 0.05296 0.26163 0.86457 0.0
C671 C 0.06041 0.24161 0.87997 0.0
C672 C 0.04762 0.24143 0.8874 0.0
C673 C 0.06341 0.25197 0.86849 0.0
H674 H 0.03243 0.26865 0.86943 0.0
H675 H 0.04558 0.23373 0.8965 0.0
O676 O 0.99188 0.24961 0.91679 0.0
O677 O 0.00912 0.26792 0.89222 0.0
O678 O 0.02643 0.25252 0.91952 0.0
O679 O 1.00421 0.23189 0.89051 0.0
H680 H 0.96676 0.26047 0.918 0.0
H681 H 1.00404 0.24782 0.94672 0.0
H682 H 0.95684 0.26782 0.94339 0.0
H683 H 0.99356 0.25549 0.97164 0.0
H684 H 0.03947 0.31665 0.90058 0.0
H685 H 0.98816 0.28504 0.88724 0.0
H686 H 0.03553 0.28725 0.89878 0.0
H687 H 0.99293 0.31447 0.88913 0.0
H688 H 0.98955 0.31286 0.93557 0.0
H689 H 0.0368 0.31736 0.9521 0.0
H690 H 0.93704 0.23786 0.88017 0.0
H691 H 0.95974 0.26226 0.84558 0.0
H692 H 0.05051 0.26924 0.91087 0.0
H693 H 0.03028 0.25532 0.95182 0.0
H694 H 0.07285 0.28376 0.92992 0.0
H695 H 0.05303 0.27004 0.97012 0.0
H696 H 0.01911 0.20843 0.89263 0.0
H697 H 0.99994 0.23699 0.85992 0.0
H698 H 0.02793 0.19418 0.86938 0.0
H699 H 0.00912 0.22227 0.83723 0.0
H700 H 0.99125 0.178 0.91763 0.0
H701 H 0.02233 0.20432 0.95918 0.0
H702 H 0.05477 0.26995 0.85599 0.0
H703 H 0.06789 0.23372 0.88325 0.0
Li704 Li 0.41282 0.03727 0.27299 0.0
Li705 Li 0.39095 0.019 0.25446 0.0
Li706 Li 0.41072 0.03538 0.24069 0.0
Li707 Li 0.39189 0.05065 0.25535 0.0
C708 C 0.42599 0.01362 0.25852 0.0
N709 N 0.45281 1.00347 0.26434 0.0
C710 C 0.4266 0.99964 0.26526 0.0
C711 C 0.43901 0.02243 0.25473 0.0
C712 C 0.44027 0.99472 0.26814 0.0
C713 C 0.45245 0.01709 0.25773 0.0
C714 C 0.37819 0.02955 0.27939 0.0
C715 C 0.35152 0.02484 0.27895 0.0
N716 N 0.35299 0.01528 0.29063 0.0
C717 C 0.37944 0.01968 0.29138 0.0
C718 C 0.36413 0.03215 0.27309 0.0
C719 C 0.36657 0.01257 0.29691 0.0
C720 C 0.41851 0.04034 0.30923 0.0
N721 N 0.42537 0.03841 0.2958 0.0
C722 C 0.44762 0.03559 0.31357 0.0
C723 C 0.43984 0.03626 0.29793 0.0
C724 C 0.44069 0.03709 0.32762 0.0
C725 C 0.42585 0.03964 0.32505 0.0
H726 H 0.40716 0.04229 0.30774 0.0
H727 H 0.44546 0.03483 0.2875 0.0
C728 C 0.36644 0.98948 0.24257 0.0
N729 N 0.37837 0.99663 0.25416 0.0
C730 C 0.3589 0.97366 0.24277 0.0
C731 C 0.37566 0.97263 0.26692 0.0
C732 C 0.38293 0.98834 0.2662 0.0
C733 C 0.36341 0.96479 0.25508 0.0
H734 H 0.36272 0.99594 0.23301 0.0
H735 H 0.3924 0.99389 0.27535 0.0
C736 C 0.42578 0.06653 0.25488 0.0
N737 N 0.44768 0.08944 0.24724 0.0
C738 C 0.42191 0.07737 0.24472 0.0
C739 C 0.44076 0.06739 0.26127 0.0
C740 C 0.43316 0.08886 0.24097 0.0
C741 C 0.45168 0.07904 0.25723 0.0
C742 C 0.3819 0.02438 0.22106 0.0
C743 C 0.38662 0.01041 0.21566 0.0
C744 C 0.37113 0.02988 0.21104 0.0
C745 C 0.38043 1.00212 0.20024 0.0
C746 C 0.3652 0.02123 0.1957 0.0
N747 N 0.36994 0.00765 0.19067 0.0
C748 C 0.42643 0.02069 0.21471 0.0
C749 C 0.42353 0.04655 0.2109 0.0
C750 C 0.43348 0.01917 0.20063 0.0
N751 N 0.42161 0.03429 0.2199 0.0
C752 C 0.43047 0.04549 0.19667 0.0
C753 C 0.43571 0.03163 0.19104 0.0
H754 H 0.42478 0.01075 0.22147 0.0
H755 H 0.4195 0.05726 0.21455 0.0
C756 C 0.38841 0.08509 0.26381 0.0
N757 N 0.38098 0.07053 0.25575 0.0
C758 C 0.38165 0.09878 0.26444 0.0
C759 C 0.35942 0.08282 0.2486 0.0
C760 C 0.36662 0.06943 0.24817 0.0
C761 C 0.36679 0.09806 0.2568 0.0
H762 H 0.39974 0.08622 0.2699 0.0
H763 H 0.36057 0.05807 0.24166 0.0
O764 O 0.41271 0.01865 0.2556 0.0
O765 O 0.39058 0.0363 0.27346 0.0
O766 O 0.41494 0.05516 0.2586 0.0
O767 O 0.38786 0.03266 0.23608 0.0
H768 H 0.41664 0.99263 0.26823 0.0
H769 H 0.43875 0.03331 0.24957 0.0
H770 H 0.44092 0.98394 0.27338 0.0
H771 H 0.46261 0.0238 0.25485 0.0
H772 H 0.34056 0.02673 0.27417 0.0
H773 H 0.39021 0.01733 0.29621 0.0
H774 H 0.36297 0.03963 0.26369 0.0
H775 H 0.36736 1.00485 0.30613 0.0
H776 H 0.45894 0.03349 0.31449 0.0
H777 H 0.41986 0.04124 0.33522 0.0
H778 H 0.34949 0.96852 0.23338 0.0
H779 H 0.37992 0.96657 0.2766 0.0
H780 H 0.41035 0.07684 0.23969 0.0
H781 H 0.4439 0.05914 0.26928 0.0
H782 H 0.43034 0.09729 0.23305 0.0
H783 H 0.46332 0.07983 0.26204 0.0
H784 H 0.39493 0.00601 0.22332 0.0
H785 H 0.36739 0.04069 0.21508 0.0
H786 H 0.38396 0.99128 0.1959 0.0
H787 H 0.35683 0.02531 0.18781 0.0
H788 H 0.43725 0.00819 0.19747 0.0
H789 H 0.4314 0.05552 0.18999 0.0
H790 H 0.38809 0.10985 0.27118 0.0
H791 H 0.34812 0.08117 0.24222 0.0
Li792 Li 0.26651 0.1605 0.51611 0.0
Li793 Li 0.27621 0.14118 0.50024 0.0
Li794 Li 0.26419 0.16098 0.48617 0.0
Li795 Li 0.24842 0.13801 0.49907 0.0
C796 C 0.29109 0.1788 0.51067 0.0
N797 N 0.30799 0.20723 0.52719 0.0
C798 C 0.30004 0.17913 0.52561 0.0
C799 C 0.29067 0.19298 0.50422 0.0
C800 C 0.30851 0.19361 0.53375 0.0
C801 C 0.29932 0.20721 0.51273 0.0
C802 C 0.27068 0.12626 0.52392 0.0
C803 C 0.27369 0.09897 0.52296 0.0
N804 N 0.28547 0.10353 0.53525 0.0
C805 C 0.28281 0.13068 0.53652 0.0
C806 C 0.26608 0.11029 0.51704 0.0
C807 C 0.29014 0.11901 0.54208 0.0
C808 C 0.26489 0.16473 0.54979 0.0
N809 N 0.26817 0.17321 0.53757 0.0
C810 C 0.27273 0.19758 0.55619 0.0
C811 C 0.27176 0.18941 0.54046 0.0
C812 C 0.26958 0.18906 0.56904 0.0
C813 C 0.2655 0.17241 0.5656 0.0
H814 H 0.26169 0.15192 0.54728 0.0
H815 H 0.27385 0.19606 0.53059 0.0
C816 C 0.29165 0.11466 0.49156 0.0
N817 N 0.293 0.1296 0.4997 0.0
C818 C 0.30402 0.10712 0.49176 0.0
C819 C 0.3189 0.13006 0.5093 0.0
C820 C 0.30637 0.13728 0.50841 0.0
C821 C 0.31802 0.11475 0.50077 0.0
H822 H 0.28097 0.10843 0.48497 0.0
H823 H 0.30734 0.14903 0.51491 0.0
C824 C 0.24256 0.17287 0.50872 0.0
N825 N 0.23185 0.19604 0.52673 0.0
C826 C 0.23346 0.16874 0.52025 0.0
C827 C 0.24614 0.18873 0.50624 0.0
C828 C 0.22818 0.18065 0.52928 0.0
C829 C 0.24062 0.20029 0.51549 0.0
C830 C 0.26265 0.12603 0.46876 0.0
C831 C 0.27386 0.13016 0.45944 0.0
C832 C 0.25406 0.11064 0.46589 0.0
C833 C 0.27639 0.11872 0.44741 0.0
C834 C 0.25693 0.09955 0.45375 0.0
N835 N 0.26795 0.10378 0.44485 0.0
C836 C 0.27716 0.17608 0.46134 0.0
C837 C 0.25135 0.17615 0.4599 0.0
C838 C 0.27774 0.18376 0.44752 0.0
N839 N 0.26412 0.17244 0.46731 0.0
C840 C 0.2514 0.18375 0.44594 0.0
C841 C 0.26472 0.18765 0.43942 0.0
H842 H 0.2872 0.17303 0.46736 0.0
H843 H 0.24105 0.17303 0.46471 0.0
C844 C 0.22669 0.11581 0.51041 0.0
N845 N 0.22881 0.12477 0.49827 0.0
C846 C 0.21249 0.10721 0.51131 0.0
C847 C 0.20267 0.11735 0.48737 0.0
C848 C 0.21713 0.12564 0.48682 0.0
C849 C 0.20015 0.10798 0.49979 0.0
H850 H 0.23597 0.11566 0.51971 0.0
H851 H 0.21898 0.13305 0.47744 0.0
O852 O 0.28286 0.16471 0.50236 0.0
O853 O 0.2637 0.13759 0.51792 0.0
O854 O 0.24817 0.16147 0.50011 0.0
O855 O 0.25996 0.13702 0.48056 0.0
H856 H 0.30018 0.16842 0.53109 0.0
H857 H 0.28366 0.19305 0.49283 0.0
H858 H 0.31541 0.19403 0.54535 0.0
H859 H 0.29909 0.21825 0.50786 0.0
H860 H 0.2703 0.08658 0.51771 0.0
H861 H 0.28664 0.14303 0.54182 0.0
H862 H 0.2569 0.10672 0.50705 0.0
H863 H 0.29958 0.12226 0.55179 0.0
H864 H 0.27567 0.21045 0.55821 0.0
H865 H 0.263 0.16534 0.57511 0.0
H866 H 0.30254 0.09545 0.48475 0.0
H867 H 0.32911 0.13647 0.51686 0.0
H868 H 0.23065 0.15649 0.52232 0.0
H869 H 0.25324 0.19209 0.4974 0.0
H870 H 0.22121 0.17766 0.53833 0.0
H871 H 0.24336 0.21263 0.51378 0.0
H872 H 0.28061 0.14203 0.46156 0.0
H873 H 0.24532 0.1073 0.47302 0.0
H874 H 0.28507 0.12171 0.44014 0.0
H875 H 0.25041 0.08757 0.45141 0.0
H876 H 0.28838 0.18671 0.44333 0.0
H877 H 0.241 0.18625 0.44015 0.0
H878 H 0.21112 0.10041 0.52126 0.0
H879 H 0.19355 0.11828 0.47817 0.0
Li880 Li 0.14543 0.04977 0.79383 0.0
Li881 Li 0.12593 0.03213 0.80707 0.0
Li882 Li 0.14351 0.02075 0.79191 0.0
Li883 Li 0.12413 0.0311 0.77749 0.0
C884 C 0.16074 0.03232 0.81931 0.0
N885 N 0.18553 0.02173 0.8329 0.0
C886 C 0.15923 0.02097 0.82989 0.0
C887 C 0.17485 0.03836 0.81569 0.0
C888 C 0.17191 0.01575 0.83661 0.0
C889 C 0.18725 0.03284 0.82269 0.0
C890 C 0.11401 0.05783 0.78583 0.0
C891 C 0.08912 0.0596 0.77391 0.0
N892 N 0.09471 0.07352 0.76882 0.0
C893 C 0.11948 0.07224 0.78063 0.0
C894 C 0.09868 0.05154 0.78259 0.0
C895 C 0.10955 0.07996 0.772 0.0
C896 C 0.16131 0.07441 0.78044 0.0
N897 N 0.15839 0.06993 0.79489 0.0
C898 C 0.17353 0.09425 0.80929 0.0
C899 C 0.16429 0.07946 0.8092 0.0
C900 C 0.17671 0.09925 0.79451 0.0
C901 C 0.17048 0.08902 0.77996 0.0
H902 H 0.15638 0.06666 0.76924 0.0
H903 H 0.16175 0.07563 0.82053 0.0
C904 C 0.11539 0.01628 0.83196 0.0
N905 N 0.11633 0.03034 0.82596 0.0
C906 C 0.10901 0.01416 0.84599 0.0
C907 C 0.10461 0.04105 0.84749 0.0
C908 C 0.11107 0.04264 0.83337 0.0
C909 C 0.10352 0.02665 0.85403 0.0
H910 H 0.11971 0.0067 0.82586 0.0
H911 H 0.11196 0.05371 0.82836 0.0
C912 C 0.14747 0.02567 0.76053 0.0
N913 N 0.15148 0.00821 0.73216 0.0
C914 C 0.13901 0.01037 0.75534 0.0
C915 C 0.15802 0.03206 0.75132 0.0
C916 C 0.14118 1.00174 0.74096 0.0
C917 C 0.15987 0.02305 0.737 0.0
C918 C 0.10876 1.00249 0.78717 0.0
C919 C 0.10813 0.98715 0.77918 0.0
C920 C 0.09585 0.00669 0.79202 0.0
C921 C 0.0945 0.97639 0.7759 0.0
C922 C 0.08244 0.99559 0.78852 0.0
N923 N 0.08204 0.9808 0.78059 0.0
C924 C 0.14863 0.99038 0.79702 0.0
C925 C 0.16785 1.0054 0.78578 0.0
C926 C 0.15591 0.97745 0.79659 0.0
N927 N 0.1546 1.00393 0.79153 0.0
C928 C 0.17555 0.99279 0.78521 0.0
C929 C 0.16953 0.97851 0.79055 0.0
H930 H 0.13818 0.98961 0.80172 0.0
H931 H 0.17238 0.01634 0.78155 0.0
C932 C 0.11536 0.04137 0.74797 0.0
N933 N 0.11173 0.02912 0.75646 0.0
C934 C 0.10846 0.0408 0.73198 0.0
C935 C 0.09437 0.01478 0.73338 0.0
C936 C 0.10133 0.01601 0.74952 0.0
C937 C 0.098 0.02722 0.72424 0.0
H938 H 0.12395 0.05148 0.75351 0.0
H939 H 0.09877 0.00621 0.75619 0.0
O940 O 0.14842 0.03717 0.81214 0.0
O941 O 0.12362 0.05002 0.79411 0.0
O942 O 0.14553 0.03436 0.77457 0.0
O943 O 0.12205 0.01312 0.79057 0.0
H944 H 0.14837 0.01612 0.83272 0.0
H945 H 0.17616 0.04705 0.80741 0.0
H946 H 0.17091 0.00689 0.84475 0.0
H947 H 0.19823 0.03734 0.81993 0.0
H948 H 0.07726 0.05479 0.7712 0.0
H949 H 0.13125 0.07741 0.78317 0.0
H950 H 0.09421 0.04049 0.78658 0.0
H951 H 0.11366 0.09107 0.76782 0.0
H952 H 0.17794 0.10176 0.8208 0.0
H953 H 0.17276 0.09218 0.76829 0.0
H954 H 0.10864 1.00293 0.85064 0.0
H955 H 0.10038 0.05094 0.85311 0.0
H956 H 0.13084 1.00521 0.76232 0.0
H957 H 0.16475 0.04384 0.7552 0.0
H958 H 0.13467 0.9899 0.73681 0.0
H959 H 0.16799 0.02786 0.72975 0.0
H960 H 0.11803 0.98362 0.77547 0.0
H961 H 0.09618 0.01834 0.79854 0.0
H962 H 0.09384 0.96452 0.76963 0.0
H963 H 0.07236 0.99871 0.79218 0.0
H964 H 0.15098 0.96679 0.80107 0.0
H965 H 0.18596 0.99408 0.78034 0.0
H966 H 0.1115 0.05089 0.72573 0.0
H967 H 0.08663 1.00392 0.72802 0.0
Li968 Li 0.23334 0.87012 0.00423 0.0
Li969 Li 0.25495 0.85457 0.00791 0.0
Li970 Li 0.25548 0.87668 0.99176 0.0
Li971 Li 0.23918 0.85256 0.98209 0.0
C972 C 0.26495 0.89017 0.02241 0.0
N973 N 0.28693 0.91644 0.03524 0.0
C974 C 0.27987 0.88859 0.02558 0.0
C975 C 0.26118 0.90508 0.02586 0.0
C976 C 0.29083 0.90203 0.03202 0.0
C977 C 0.27246 0.91822 0.03235 0.0
C978 C 0.22329 0.8325 0.99942 0.0
C979 C 0.21736 0.80433 1.00052 0.0
N980 N 0.20358 0.80366 0.99197 0.0
C981 C 0.20904 0.83157 0.99076 0.0
C982 C 0.22749 0.81881 0.00443 0.0
C983 C 0.19925 0.81686 0.98706 0.0
C984 C 0.20463 0.87598 0.00525 0.0
N985 N 0.21839 0.87787 0.01425 0.0
C986 C 0.21158 0.89491 0.03538 0.0
C987 C 0.22186 0.8866 0.0293 0.0
C988 C 0.19765 0.89412 0.02583 0.0
C989 C 0.194 0.884 0.01088 0.0
H990 H 0.20227 0.86906 0.99327 0.0
H991 H 0.23288 0.88777 0.0362 0.0
C992 C 0.27999 0.8422 0.01925 0.0
N993 N 0.26662 0.84516 0.02267 0.0
C994 C 0.28933 0.83628 0.03054 0.0
C995 C 0.27097 0.83678 0.04869 0.0
C996 C 0.26193 0.84253 0.03698 0.0
C997 C 0.2849 0.8337 0.04554 0.0
H998 H 0.28357 0.84481 0.00791 0.0
H999 H 0.25129 0.84518 0.03937 0.0
C1000 C 0.23406 0.88737 0.97445 0.0
N1001 N 0.23366 0.91453 0.95996 0.0
C1002 C 0.24047 0.88909 0.96037 0.0
C1003 C 0.22741 0.8995 0.98112 0.0
C1004 C 0.24018 0.90291 0.95325 0.0
C1005 C 0.22732 0.91311 0.97361 0.0
C1006 C 0.26442 0.84662 0.97388 0.0
C1007 C 0.26573 0.85242 0.95914 0.0
C1008 C 0.26599 0.83098 0.97526 0.0
C1009 C 0.26833 0.84239 0.94593 0.0
C1010 C 0.26864 0.82133 0.96176 0.0
N1011 N 0.26971 0.82718 0.94749 0.0
C1012 C 0.28329 0.89053 0.98526 0.0
C1013 C 0.26777 0.9094 0.98935 0.0
C1014 C 0.29541 0.90262 0.985 0.0
N1015 N 0.26985 0.89409 0.98764 0.0
C1016 C 0.27958 0.92189 0.98897 0.0
C1017 C 0.29368 0.91852 0.9872 0.0
H1018 H 0.28482 0.87835 0.9844 0.0
H1019 H 0.25723 0.91206 0.99196 0.0
C1020 C 0.22693 0.84427 0.94915 0.0
N1021 N 0.23075 0.8379 0.9628 0.0
C1022 C 0.22445 0.83498 0.93392 0.0
C1023 C 0.22802 0.81226 0.94722 0.0
C1024 C 0.2308 0.82209 0.96217 0.0
C1025 C 0.22562 0.81887 0.93276 0.0
H1026 H 0.22682 0.85681 0.94997 0.0
H1027 H 0.23409 0.81728 0.9731 0.0
O1028 O 0.25414 0.87724 0.01561 0.0
O1029 O 0.23305 0.84675 1.00319 0.0
O1030 O 0.23407 0.87382 0.9815 0.0
O1031 O 0.26149 0.85617 0.98682 0.0
H1032 H 0.28299 0.87717 0.02285 0.0
H1033 H 0.24972 0.90657 0.02325 0.0
H1034 H 0.30244 0.90101 0.0344 0.0
H1035 H 0.26973 0.92986 0.03497 0.0
H1036 H 0.22047 0.79362 0.00425 0.0
H1037 H 0.20566 0.84205 0.98674 0.0
H1038 H 0.23848 0.81935 0.01118 0.0
H1039 H 0.18821 0.81594 0.98026 0.0
H1040 H 0.21486 0.90264 0.04693 0.0
H1041 H 0.1833 0.88289 1.00326 0.0
H1042 H 0.30005 0.83419 0.02777 0.0
H1043 H 0.26713 0.83479 0.06009 0.0
H1044 H 0.24576 0.87994 0.95506 0.0
H1045 H 0.22253 0.89855 0.99208 0.0
H1046 H 0.24517 0.9044 0.9424 0.0
H1047 H 0.22225 0.92259 0.97869 0.0
H1048 H 0.26465 0.86451 0.9579 0.0
H1049 H 0.26485 0.82623 0.98652 0.0
H1050 H 0.26924 0.84671 0.93444 0.0
H1051 H 0.26973 0.80916 0.9626 0.0
H1052 H 0.30616 0.89961 0.9836 0.0
H1053 H 0.27793 0.93405 0.99097 0.0
H1054 H 0.22276 0.84074 0.92321 0.0
H1055 H 0.22868 0.79984 0.947 0.0
Li1056 Li 0.28285 0.39665 0.03931 0.0
Li1057 Li 0.29377 0.37661 0.05355 0.0
Li1058 Li 0.3105 0.3979 0.04088 0.0
Li1059 Li 0.29237 0.37631 0.02376 0.0
C1060 C 0.29509 0.40914 0.07236 0.0
N1061 N 0.2882 0.42642 0.0993 0.0
C1062 C 0.28469 0.40199 0.08133 0.0
C1063 C 0.30216 0.42503 0.07725 0.0
C1064 C 0.2813 0.41094 0.09486 0.0
C1065 C 0.29847 0.43358 0.09086 0.0
C1066 C 0.26209 0.36934 0.02654 0.0
C1067 C 0.23639 0.35562 0.02023 0.0
N1068 N 0.23484 0.36223 0.00629 0.0
C1069 C 0.26023 0.37602 0.01216 0.0
C1070 C 0.25007 0.35908 0.03063 0.0
C1071 C 0.24637 0.37227 1.00209 0.0
C1072 C 0.26299 0.41693 0.02686 0.0
N1073 N 0.26626 0.40839 0.03909 0.0
C1074 C 0.24458 0.41368 0.05033 0.0
C1075 C 0.25715 0.40651 0.05058 0.0
C1076 C 0.24101 0.42268 0.03793 0.0
C1077 C 0.25049 0.42423 0.0261 0.0
H1078 H 0.26979 0.41781 0.01735 0.0
H1079 H 0.25934 0.39901 0.0597 0.0
C1080 C 0.30483 0.36809 0.08446 0.0
N1081 N 0.29307 0.36482 0.07209 0.0
C1082 C 0.30429 0.36047 0.09835 0.0
C1083 C 0.27955 0.34616 0.08661 0.0
C1084 C 0.2806 0.354 0.07291 0.0
C1085 C 0.29146 0.34938 0.09969 0.0
H1086 H 0.31458 0.37684 0.08365 0.0
H1087 H 0.27136 0.35157 0.063 0.0
C1088 C 0.29818 0.41411 0.01759 0.0
N1089 N 0.30351 0.44432 0.00902 0.0
C1090 C 0.29789 0.41612 1.00125 0.0
C1091 C 0.3012 0.42745 0.02956 0.0
C1092 C 0.30061 0.4315 0.99716 0.0
C1093 C 0.30386 0.44262 0.025 0.0
C1094 C 0.3139 0.36159 0.03208 0.0
C1095 C 0.32509 0.36359 0.02232 0.0
C1096 C 0.30635 0.3463 0.03312 0.0
C1097 C 0.32848 0.35019 0.01362 0.0
C1098 C 0.31007 0.3332 0.02424 0.0
N1099 N 0.32095 0.33541 0.01475 0.0
C1100 C 0.33875 0.41851 0.05607 0.0
C1101 C 0.33558 0.4113 0.02752 0.0
C1102 C 0.35318 0.4272 0.0561 0.0
N1103 N 0.33028 0.41074 0.0419 0.0
C1104 C 0.34989 0.41981 0.02699 0.0
C1105 C 0.35902 0.42789 0.04141 0.0
H1106 H 0.33438 0.41782 0.06739 0.0
H1107 H 0.32867 0.40503 0.0164 0.0
C1108 C 0.28087 0.34919 0.99788 0.0
N1109 N 0.2904 0.36344 1.0026 0.0
C1110 C 0.27996 0.34088 0.9822 0.0
C1111 C 0.29881 0.3619 0.97667 0.0
C1112 C 0.29929 0.36981 0.99234 0.0
C1113 C 0.28902 0.34722 0.97131 0.0
H1114 H 0.27395 0.34428 0.00625 0.0
H1115 H 0.30682 0.38112 0.99637 0.0
O1116 O 0.29871 0.40051 0.0592 0.0
O1117 O 0.2755 0.373 0.03674 0.0
O1118 O 0.29574 0.39914 0.02178 0.0
O1119 O 0.31001 0.37455 0.0402 0.0
H1120 H 0.27915 0.3897 0.07777 0.0
H1121 H 0.31047 0.43069 0.07068 0.0
H1122 H 0.27319 0.40557 0.10183 0.0
H1123 H 0.30382 0.44589 0.09475 0.0
H1124 H 0.22699 0.3477 0.02325 0.0
H1125 H 0.26934 0.38404 0.00878 0.0
H1126 H 0.25127 0.35388 0.04175 0.0
H1127 H 0.24479 0.37736 0.99093 0.0
H1128 H 0.23745 0.41176 0.0595 0.0
H1129 H 0.24827 0.43101 0.01627 0.0
H1130 H 0.31369 0.36354 0.10812 0.0
H1131 H 0.26951 0.3376 0.08689 0.0
H1132 H 0.29558 0.40591 0.99183 0.0
H1133 H 0.30143 0.42608 0.04222 0.0
H1134 H 0.30041 0.43324 0.98457 0.0
H1135 H 0.3062 0.45305 0.03415 0.0
H1136 H 0.33097 0.37536 0.02134 0.0
H1137 H 0.29759 0.34459 0.04055 0.0
H1138 H 0.33705 0.35154 0.00594 0.0
H1139 H 0.30427 0.3213 0.02485 0.0
H1140 H 0.35978 0.43306 0.06756 0.0
H1141 H 0.35369 0.42016 0.01533 0.0
H1142 H 0.27235 0.32954 0.97872 0.0
H1143 H 0.30587 0.36742 0.96872 0.0
Li1144 Li 0.82322 0.17654 0.0486 0.0
Li1145 Li 0.82669 0.1593 0.025 0.0
Li1146 Li 0.80936 0.17715 0.02317 0.0
Li1147 Li 0.80393 0.15384 0.03693 0.0
C1148 C 0.83441 0.19644 0.0221 0.0
N1149 N 0.8398 0.2236 0.00753 0.0
C1150 C 0.84416 0.19754 0.01065 0.0
C1151 C 0.8277 0.20933 0.02642 0.0
C1152 C 0.84667 0.21132 1.00335 0.0
C1153 C 0.83046 0.22289 0.01884 0.0
C1154 C 0.8377 0.15174 0.05553 0.0
C1155 C 0.85187 0.13848 0.07402 0.0
N1156 N 0.86464 0.14835 0.07229 0.0
C1157 C 0.85096 0.16178 0.05396 0.0
C1158 C 0.83815 0.14001 0.06565 0.0
C1159 C 0.86446 0.15987 0.06252 0.0
C1160 C 0.8302 0.18159 0.08239 0.0
N1161 N 0.8321 0.1887 0.06898 0.0
C1162 C 0.8412 0.21398 0.08534 0.0
C1163 C 0.83802 0.20444 0.07018 0.0
C1164 C 0.83827 0.20716 0.09929 0.0
C1165 C 0.83323 0.19064 0.09775 0.0
H1166 H 0.82529 0.16907 0.08103 0.0
H1167 H 0.83947 0.20977 0.05933 0.0
C1168 C 0.84204 0.15337 0.99868 0.0
N1169 N 0.8392 0.14873 0.01312 0.0
C1170 C 0.85031 0.14515 0.98903 0.0
C1171 C 0.85189 0.12709 0.00892 0.0
C1172 C 0.84382 0.13577 0.01827 0.0
C1173 C 0.8552 0.13182 0.99418 0.0
H1174 H 0.83751 0.16316 0.99445 0.0
H1175 H 0.84086 0.13183 0.02938 0.0
C1176 C 0.79818 0.18208 0.0582 0.0
N1177 N 0.79289 0.19484 0.08825 0.0
C1178 C 0.79366 0.1721 0.06936 0.0
C1179 C 0.79985 0.19856 0.06229 0.0
C1180 C 0.79104 0.17878 0.08448 0.0
C1181 C 0.79719 0.20477 0.07756 0.0
C1182 C 0.80291 0.13968 0.00499 0.0
C1183 C 0.79646 0.13744 0.98863 0.0
C1184 C 0.80627 0.12665 0.0122 0.0
C1185 C 0.7935 0.12219 0.97972 0.0
C1186 C 0.80314 0.1116 1.00289 0.0
N1187 N 0.79688 0.10969 0.98698 0.0
C1188 C 0.80007 0.18445 0.99264 0.0
C1189 C 0.78971 0.19746 0.0137 0.0
C1190 C 0.79074 0.18974 0.98087 0.0
N1191 N 0.79919 0.18814 0.00863 0.0
C1192 C 0.78034 0.20326 1.00234 0.0
C1193 C 0.78055 0.19901 0.98571 0.0
H1194 H 0.80762 0.17686 0.98904 0.0
H1195 H 0.78904 0.19987 0.0265 0.0
C1196 C 0.78851 0.12662 0.04907 0.0
N1197 N 0.78773 0.13823 0.03951 0.0
C1198 C 0.77551 0.11597 0.05035 0.0
C1199 C 0.76149 0.12938 0.0317 0.0
C1200 C 0.77466 0.13969 0.03081 0.0
C1201 C 0.76175 0.11746 0.04174 0.0
H1202 H 0.79913 0.12579 0.05583 0.0
H1203 H 0.77451 0.14902 0.02324 0.0
O1204 O 0.83179 0.18301 0.02936 0.0
O1205 O 0.82428 0.15336 0.04735 0.0
O1206 O 0.80124 0.17578 0.04351 0.0
O1207 O 0.80603 0.15459 0.01378 0.0
H1208 H 0.84992 0.18797 0.00759 0.0
H1209 H 0.82028 0.20877 0.03539 0.0
H1210 H 0.85415 0.21229 0.99443 0.0
H1211 H 0.82518 0.23286 0.02194 0.0
H1212 H 0.85238 0.12944 0.08189 0.0
H1213 H 0.85088 0.17094 0.04621 0.0
H1214 H 0.82798 0.13217 0.06703 0.0
H1215 H 0.8748 0.16753 0.0614 0.0
H1216 H 0.84526 0.22664 0.08605 0.0
H1217 H 0.8306 0.18491 0.10812 0.0
H1218 H 0.85254 0.14889 0.97755 0.0
H1219 H 0.85543 0.1167 0.01308 0.0
H1220 H 0.79243 0.15936 0.06653 0.0
H1221 H 0.80337 0.20652 0.05389 0.0
H1222 H 0.78765 0.17119 0.09326 0.0
H1223 H 0.79861 0.21751 0.08094 0.0
H1224 H 0.79378 0.1474 0.98285 0.0
H1225 H 0.81131 0.12814 0.02483 0.0
H1226 H 0.78852 0.12029 0.96704 0.0
H1227 H 0.80573 0.10143 0.00831 0.0
H1228 H 0.79128 0.18642 0.96811 0.0
H1229 H 0.77257 0.21037 0.00642 0.0
H1230 H 0.77614 0.10697 0.05827 0.0
H1231 H 0.75118 0.13074 0.02462 0.0
Li1232 Li 0.16559 0.51534 0.28065 0.0
Li1233 Li 0.14591 0.49968 0.29367 0.0
Li1234 Li 0.16438 0.48413 0.27901 0.0
Li1235 Li 0.14315 0.49774 0.26136 0.0
C1236 C 0.18057 0.50944 0.30926 0.0
N1237 N 0.20553 0.52588 0.3304 0.0
C1238 C 0.17937 0.52209 0.32073 0.0
C1239 C 0.19442 0.50508 0.30855 0.0
C1240 C 0.19214 0.53028 0.33131 0.0
C1241 C 0.20692 0.51356 0.31935 0.0
C1242 C 0.13585 0.52629 0.28491 0.0
C1243 C 0.11244 0.53505 0.28559 0.0
N1244 N 0.11909 0.54657 0.29822 0.0
C1245 C 0.14248 0.53822 0.29785 0.0
C1246 C 0.12073 0.52468 0.27868 0.0
C1247 C 0.13381 0.54835 0.30443 0.0
C1248 C 0.17103 0.54742 0.27187 0.0
N1249 N 0.17801 0.53785 0.28089 0.0
C1250 C 0.19947 0.55957 0.28859 0.0
C1251 C 0.19212 0.54375 0.28911 0.0
C1252 C 0.1925 0.56975 0.27937 0.0
C1253 C 0.178 0.56319 0.27092 0.0
H1254 H 0.15989 0.54281 0.2653 0.0
H1255 H 0.19785 0.53624 0.29609 0.0
C1256 C 0.14203 0.50008 0.32906 0.0
N1257 N 0.13452 0.50059 0.31396 0.0
C1258 C 0.13508 0.50122 0.34324 0.0
C1259 C 0.11248 0.50326 0.3266 0.0
C1260 C 0.11985 0.50205 0.31271 0.0
C1261 C 0.11997 0.50295 0.34245 0.0
H1262 H 0.15359 0.49881 0.33025 0.0
H1263 H 0.1137 0.50239 0.30088 0.0
C1264 C 0.17628 0.50734 0.25417 0.0
N1265 N 0.19796 0.52643 0.24155 0.0
C1266 C 0.1722 0.51567 0.24151 0.0
C1267 C 0.19137 0.50873 0.26045 0.0
C1268 C 0.18333 0.52526 0.23528 0.0
C1269 C 0.20216 0.51843 0.25388 0.0
C1270 C 0.12804 0.47252 0.28042 0.0
C1271 C 0.12864 0.46394 0.29355 0.0
C1272 C 0.11423 0.47448 0.27262 0.0
C1273 C 0.11534 0.45734 0.29863 0.0
C1274 C 0.10118 0.46768 0.27805 0.0
N1275 N 0.10201 0.45934 0.29084 0.0
C1276 C 0.16986 0.45124 0.28577 0.0
C1277 C 0.18742 0.4634 0.27094 0.0
C1278 C 0.1766 0.43752 0.2855 0.0
N1279 N 0.17519 0.46408 0.27855 0.0
C1280 C 0.19452 0.44993 0.27045 0.0
C1281 C 0.18926 0.43642 0.27774 0.0
H1282 H 0.16025 0.45149 0.29187 0.0
H1283 H 0.19177 0.47331 0.26503 0.0
C1284 C 0.12716 0.5118 0.23532 0.0
N1285 N 0.13061 0.49771 0.23898 0.0
C1286 C 0.11955 0.51309 0.21983 0.0
C1287 C 0.11895 0.48538 0.21162 0.0
C1288 C 0.12656 0.4846 0.22733 0.0
C1289 C 0.11526 0.49981 0.20743 0.0
H1290 H 0.13061 0.52231 0.24437 0.0
H1291 H 0.12938 0.47344 0.23007 0.0
O1292 O 0.16825 0.50132 0.29877 0.0
O1293 O 0.14407 0.51609 0.2785 0.0
O1294 O 0.16553 0.49851 0.26095 0.0
O1295 O 0.14092 0.47965 0.27569 0.0
H1296 H 0.1687 0.52556 0.32145 0.0
H1297 H 0.1955 0.49527 0.29975 0.0
H1298 H 0.1914 0.54012 0.34024 0.0
H1299 H 0.21773 0.51035 0.31894 0.0
H1300 H 0.10071 0.53391 0.28095 0.0
H1301 H 0.15419 0.53962 0.30276 0.0
H1302 H 0.11543 0.51541 0.26873 0.0
H1303 H 0.13878 0.55763 0.31447 0.0
H1304 H 0.21068 0.56366 0.2952 0.0
H1305 H 0.17184 0.57027 0.26377 0.0
H1306 H 0.14161 0.50053 0.35475 0.0
H1307 H 0.10097 0.50472 0.32481 0.0
H1308 H 0.16056 0.51487 0.23666 0.0
H1309 H 0.19468 0.50259 0.27046 0.0
H1310 H 0.18034 0.53182 0.22551 0.0
H1311 H 0.21388 0.51969 0.25867 0.0
H1312 H 0.13926 0.46261 0.29992 0.0
H1313 H 0.11361 0.48129 0.26258 0.0
H1314 H 0.11563 0.45072 0.30882 0.0
H1315 H 0.09041 0.46911 0.27215 0.0
H1316 H 0.1719 0.42791 0.2916 0.0
H1317 H 0.204 0.4501 0.26404 0.0
H1318 H 0.1174 0.52462 0.21753 0.0
H1319 H 0.11592 0.47463 0.20288 0.0
Li1320 Li 0.78113 0.89606 0.5384 0.0
Li1321 Li 0.79389 0.87628 0.55298 0.0
Li1322 Li 0.80914 0.89843 0.53962 0.0
Li1323 Li 0.79151 0.87621 0.52336 0.0
C1324 C 0.79601 0.90907 0.57219 0.0
N1325 N 0.79357 0.92657 0.60119 0.0
C1326 C 0.7869 0.90231 0.58265 0.0
C1327 C 0.80402 0.92467 0.57657 0.0
C1328 C 0.78578 0.91137 0.59723 0.0
C1329 C 0.80259 0.93334 0.59125 0.0
C1330 C 0.7659 0.86055 0.52641 0.0
C1331 C 0.7585 0.83275 0.51538 0.0
N1332 N 0.74806 0.83636 0.50408 0.0
C1333 C 0.75509 0.86399 0.51473 0.0
C1334 C 0.76764 0.84481 0.52678 0.0
C1335 C 0.74618 0.85159 0.50352 0.0
C1336 C 0.75858 0.91175 0.52417 0.0
N1337 N 0.76432 0.90723 0.53834 0.0
C1338 C 0.74526 0.91667 0.55161 0.0
C1339 C 0.75783 0.90949 0.5519 0.0
C1340 C 0.73908 0.92149 0.53715 0.0
C1341 C 0.74603 0.91897 0.52333 0.0
H1342 H 0.7636 0.90954 0.51338 0.0
H1343 H 0.76215 0.90541 0.56291 0.0
C1344 C 0.80619 0.86812 0.58359 0.0
N1345 N 0.79403 0.86485 0.5717 0.0
C1346 C 0.80614 0.86065 0.5976 0.0
C1347 C 0.78114 0.84643 0.58689 0.0
C1348 C 0.78163 0.85424 0.57314 0.0
C1349 C 0.79346 0.84962 0.5995 0.0
H1350 H 0.81586 0.87677 0.58232 0.0
H1351 H 0.77201 0.85194 0.56369 0.0
C1352 C 0.79518 0.91432 0.51732 0.0
N1353 N 0.79859 0.94524 0.51058 0.0
C1354 C 0.7963 0.91749 0.5015 0.0
C1355 C 0.79583 0.92688 0.52971 0.0
C1356 C 0.79802 0.9332 0.49834 0.0
C1357 C 0.79754 0.94242 0.52606 0.0
C1358 C 0.81763 0.86529 0.53208 0.0
C1359 C 0.82513 0.86943 0.51928 0.0
C1360 C 0.81836 0.8508 0.53773 0.0
C1361 C 0.83315 0.85886 0.51221 0.0
C1362 C 0.82653 0.84057 0.53035 0.0
N1363 N 0.83368 0.84477 0.51784 0.0
C1364 C 0.83801 0.91736 0.5549 0.0
C1365 C 0.83302 0.91489 0.5262 0.0
C1366 C 0.85247 0.92601 0.555 0.0
N1367 N 0.82863 0.91193 0.54061 0.0
C1368 C 0.84732 0.92344 0.52573 0.0
C1369 C 0.85741 0.92903 0.54023 0.0
H1370 H 0.8344 0.91469 0.56622 0.0
H1371 H 0.8255 0.91031 0.51495 0.0
C1372 C 0.78307 0.8695 0.48922 0.0
N1373 N 0.7885 0.8629 0.50217 0.0
C1374 C 0.78147 0.86156 0.47334 0.0
C1375 C 0.79079 0.8399 0.48425 0.0
C1376 C 0.792 0.84816 0.49996 0.0
C1377 C 0.7856 0.84666 0.47064 0.0
H1378 H 0.78013 0.88109 0.49122 0.0
H1379 H 0.79586 0.84283 0.51034 0.0
O1380 O 0.7975 0.90029 0.55802 0.0
O1381 O 0.77503 0.87258 0.53713 0.0
O1382 O 0.79364 0.89898 0.52059 0.0
O1383 O 0.80969 0.87542 0.53915 0.0
H1384 H 0.78064 0.89025 0.57946 0.0
H1385 H 0.81129 0.93002 0.56873 0.0
H1386 H 0.7787 0.90631 0.60539 0.0
H1387 H 0.80868 0.94544 0.59477 0.0
H1388 H 0.75978 0.82052 0.51545 0.0
H1389 H 0.7537 0.87613 0.51422 0.0
H1390 H 0.77613 0.84199 0.5356 0.0
H1391 H 0.73781 0.85408 0.49436 0.0
H1392 H 0.74019 0.91802 0.56251 0.0
H1393 H 0.74184 0.92255 0.51192 0.0
H1394 H 0.81585 0.86378 0.607 0.0
H1395 H 0.77117 0.83791 0.58754 0.0
H1396 H 0.79594 0.90792 0.49178 0.0
H1397 H 0.7949 0.92467 0.54197 0.0
H1398 H 0.79892 0.93582 0.48616 0.0
H1399 H 0.79801 0.95224 0.53554 0.0
H1400 H 0.82459 0.88057 0.51473 0.0
H1401 H 0.81262 0.84747 0.54766 0.0
H1402 H 0.83893 0.86184 0.50222 0.0
H1403 H 0.82716 0.82928 0.53455 0.0
H1404 H 0.85984 0.92988 0.56649 0.0
H1405 H 0.85042 0.92563 0.51406 0.0
H1406 H 0.77743 0.86724 0.46325 0.0
H1407 H 0.79386 0.82831 0.48276 0.0
Li1408 Li 0.93024 0.00729 0.26874 0.0
Li1409 Li 0.90944 0.98909 0.25243 0.0
Li1410 Li 0.92942 1.00453 0.23932 0.0
Li1411 Li 0.91155 0.01845 0.25349 0.0
C1412 C 0.93371 0.97551 0.26193 0.0
N1413 N 0.93862 0.95047 0.27832 0.0
C1414 C 0.92788 0.97358 0.27631 0.0
C1415 C 0.94203 0.96472 0.25588 0.0
C1416 C 0.93049 0.96085 0.28442 0.0
C1417 C 0.94439 0.95213 0.26435 0.0
C1418 C 0.89491 1.00427 0.27522 0.0
C1419 C 0.86836 1.00174 0.26717 0.0
N1420 N 0.86642 1.00189 0.283 0.0
C1421 C 0.89266 1.00445 0.29141 0.0
C1422 C 0.88267 1.00294 0.263 0.0
C1423 C 0.87817 1.00321 0.29509 0.0
C1424 C 0.93832 0.01907 0.30202 0.0
N1425 N 0.94304 0.01089 0.28946 0.0
C1426 C 0.9641 0.00675 0.30735 0.0
C1427 C 0.95578 1.00494 0.29177 0.0
C1428 C 0.95933 0.01491 0.32063 0.0
C1429 C 0.94635 0.0213 0.31774 0.0
H1430 H 0.92814 0.02367 0.29985 0.0
H1431 H 0.95934 0.99853 0.28157 0.0
C1432 C 0.89326 0.95853 0.23655 0.0
N1433 N 0.89606 0.96883 0.2507 0.0
C1434 C 0.88379 0.94367 0.2353 0.0
C1435 C 0.88025 0.95032 0.26314 0.0
C1436 C 0.88996 0.96485 0.26395 0.0
C1437 C 0.87704 0.93951 0.24869 0.0
H1438 H 0.89842 0.96184 0.22625 0.0
H1439 H 0.89274 0.97284 0.27528 0.0
C1440 C 0.94537 0.03432 0.26447 0.0
N1441 N 0.9695 0.05318 0.28506 0.0
C1442 C 0.94317 0.04647 0.27594 0.0
C1443 C 0.95981 0.0318 0.26338 0.0
C1444 C 0.95553 0.05587 0.28626 0.0
C1445 C 0.97188 0.04146 0.27392 0.0
C1446 C 0.89822 1.00168 0.21992 0.0
C1447 C 0.90348 0.01108 0.20861 0.0
C1448 C 0.88386 0.99232 0.21637 0.0
C1449 C 0.8942 0.01113 0.19402 0.0
C1450 C 0.87492 0.99268 0.20164 0.0
N1451 N 0.88023 1.00201 0.19086 0.0
C1452 C 0.94065 0.99112 0.21152 0.0
C1453 C 0.94554 0.01925 0.21701 0.0
C1454 C 0.94735 0.99167 0.19745 0.0
N1455 N 0.9398 1.00481 0.22089 0.0
C1456 C 0.9522 0.02036 0.20302 0.0
C1457 C 0.95315 0.00645 0.1929 0.0
H1458 H 0.93595 0.97977 0.21485 0.0
H1459 H 0.94457 0.02997 0.22457 0.0
C1460 C 0.8974 0.04214 0.26759 0.0
N1461 N 0.90122 0.03601 0.25337 0.0
C1462 C 0.89 0.05497 0.26817 0.0
C1463 C 0.89118 0.05552 0.23962 0.0
C1464 C 0.89842 0.04254 0.23955 0.0
C1465 C 0.88678 0.06183 0.25405 0.0
H1466 H 0.90021 0.03717 0.27858 0.0
H1467 H 0.90192 0.03783 0.22851 0.0
O1468 O 0.93126 0.98783 0.2537 0.0
O1469 O 0.90906 1.00544 0.27149 0.0
O1470 O 0.9334 0.02469 0.25461 0.0
O1471 O 0.90723 1.00125 0.23417 0.0
H1472 H 0.92145 0.98183 0.28121 0.0
H1473 H 0.9466 0.96605 0.24475 0.0
H1474 H 0.92605 0.95921 0.29557 0.0
H1475 H 0.95081 0.94368 0.25981 0.0
H1476 H 0.8588 1.00072 0.25783 0.0
H1477 H 0.90203 1.00546 0.30101 0.0
H1478 H 0.88421 1.00296 0.25046 0.0
H1479 H 0.87627 1.00329 0.30756 0.0
H1480 H 0.97412 1.00177 0.309 0.0
H1481 H 0.94217 0.02752 0.32761 0.0
H1482 H 0.88162 0.93561 0.22396 0.0
H1483 H 0.87552 0.94742 0.27385 0.0
H1484 H 0.93203 0.0485 0.27696 0.0
H1485 H 0.96165 0.02236 0.2546 0.0
H1486 H 0.954 0.06526 0.29527 0.0
H1487 H 0.98312 0.03959 0.27329 0.0
H1488 H 0.91454 0.01842 0.21115 0.0
H1489 H 0.87965 0.98482 0.22488 0.0
H1490 H 0.89811 0.01842 0.18521 0.0
H1491 H 0.86377 0.98553 0.19876 0.0
H1492 H 0.94797 0.9806 0.19024 0.0
H1493 H 0.95619 0.03204 0.19997 0.0
H1494 H 0.88707 0.05967 0.27962 0.0
H1495 H 0.88892 0.06046 0.22845 0.0
Li1496 Li 0.32069 0.67366 0.54918 0.0
Li1497 Li 0.32842 0.65959 0.52601 0.0
Li1498 Li 0.30819 0.67413 0.52352 0.0
Li1499 Li 0.30432 0.64955 0.53608 0.0
C1500 C 0.33102 0.69551 0.52299 0.0
N1501 N 0.33232 0.72062 0.50519 0.0
C1502 C 0.33737 0.6949 0.50873 0.0
C1503 C 0.32556 0.70903 0.52833 0.0
C1504 C 0.33787 0.70767 0.49986 0.0
C1505 C 0.32625 0.72156 0.51913 0.0
C1506 C 0.33538 0.65244 0.56058 0.0
C1507 C 0.34297 0.64437 0.5865 0.0
N1508 N 0.35591 0.65527 0.58849 0.0
C1509 C 0.34882 0.66348 0.56282 0.0
C1510 C 0.33247 0.64273 0.57246 0.0
C1511 C 0.35903 0.66477 0.57704 0.0
C1512 C 0.32317 0.67935 0.58331 0.0
N1513 N 0.3276 0.6857 0.57025 0.0
C1514 C 0.34038 0.7097 0.58722 0.0
C1515 C 0.33629 0.70044 0.57192 0.0
C1516 C 0.33554 0.70362 0.60086 0.0
C1517 C 0.32701 0.68814 0.59879 0.0
H1518 H 0.31627 0.66761 0.58163 0.0
H1519 H 0.33984 0.7051 0.56134 0.0
C1520 C 0.34239 0.65217 0.49894 0.0
N1521 N 0.34338 0.6522 0.51528 0.0
C1522 C 0.352 0.645 0.49026 0.0
C1523 C 0.36361 0.63826 0.51545 0.0
C1524 C 0.35375 0.64549 0.5236 0.0
C1525 C 0.36267 0.63775 0.49852 0.0
H1526 H 0.33376 0.65722 0.49254 0.0
H1527 H 0.35398 0.6451 0.53644 0.0
C1528 C 0.2937 0.67629 0.55611 0.0
N1529 N 0.28394 0.68879 0.58379 0.0
C1530 C 0.28622 0.6662 0.56555 0.0
C1531 C 0.296 0.69277 0.56064 0.0
C1532 C 0.28141 0.67273 0.57951 0.0
C1533 C 0.29106 0.69885 0.57471 0.0
C1534 C 0.30739 0.63784 0.50417 0.0
C1535 C 0.30124 0.6353 0.4877 0.0
C1536 C 0.31287 0.62563 0.51113 0.0
C1537 C 0.30073 0.6206 0.47843 0.0
C1538 C 0.31216 0.61111 0.50146 0.0
N1539 N 0.30617 0.60892 0.48544 0.0
C1540 C 0.29823 0.68108 0.49295 0.0
C1541 C 0.28792 0.69396 0.51412 0.0
C1542 C 0.28883 0.68638 0.48125 0.0
N1543 N 0.29741 0.6847 0.50897 0.0
C1544 C 0.27848 0.69977 0.50282 0.0
C1545 C 0.27865 0.6956 0.48618 0.0
H1546 H 0.3059 0.67368 0.48927 0.0
H1547 H 0.28734 0.69643 0.52692 0.0
C1548 C 0.28806 0.62354 0.54942 0.0
N1549 N 0.28914 0.6317 0.53656 0.0
C1550 C 0.27524 0.61212 0.54955 0.0
C1551 C 0.2655 0.6171 0.5228 0.0
C1552 C 0.27826 0.62859 0.52336 0.0
C1553 C 0.26358 0.60906 0.53624 0.0
H1554 H 0.29671 0.62649 0.55993 0.0
H1555 H 0.27924 0.63547 0.51344 0.0
O1556 O 0.33008 0.68294 0.53162 0.0
O1557 O 0.32511 0.65126 0.54688 0.0
O1558 O 0.29863 0.67006 0.54247 0.0
O1559 O 0.30817 0.65229 0.51332 0.0
H1560 H 0.34187 0.68469 0.50454 0.0
H1561 H 0.32071 0.70979 0.53938 0.0
H1562 H 0.34268 0.7073 0.48875 0.0
H1563 H 0.32194 0.73202 0.52306 0.0
H1564 H 0.34082 0.63698 0.59583 0.0
H1565 H 0.35124 0.67113 0.55376 0.0
H1566 H 0.32219 0.63407 0.57091 0.0
H1567 H 0.36941 0.67335 0.57898 0.0
H1568 H 0.34707 0.72153 0.58834 0.0
H1569 H 0.32282 0.68308 0.60891 0.0
H1570 H 0.35088 0.64483 0.47721 0.0
H1571 H 0.37138 0.63245 0.52223 0.0
H1572 H 0.2842 0.65345 0.5622 0.0
H1573 H 0.30176 0.7008 0.55354 0.0
H1574 H 0.27569 0.66504 0.58697 0.0
H1575 H 0.29293 0.71157 0.57844 0.0
H1576 H 0.29691 0.64459 0.48211 0.0
H1577 H 0.31767 0.62733 0.52385 0.0
H1578 H 0.29602 0.61849 0.46566 0.0
H1579 H 0.3164 0.60159 0.50668 0.0
H1580 H 0.28937 0.68317 0.46847 0.0
H1581 H 0.27075 0.70689 0.50698 0.0
H1582 H 0.27419 0.60637 0.56026 0.0
H1583 H 0.257 0.61493 0.51212 0.0
Li1584 Li 0.41256 0.49123 0.75257 0.0
Li1585 Li 0.43339 0.51044 0.76831 0.0
Li1586 Li 0.41388 0.52053 0.75366 0.0
Li1587 Li 0.43221 0.50794 0.73886 0.0
C1588 C 0.39829 0.5047 0.77589 0.0
N1589 N 0.37009 0.49888 0.78452 0.0
C1590 C 0.39661 0.50369 0.79209 0.0
C1591 C 0.38563 0.50266 0.76407 0.0
C1592 C 0.38226 0.50076 0.79622 0.0
C1593 C 0.37147 0.49977 0.76868 0.0
C1594 C 0.44448 0.4834 0.75993 0.0
C1595 C 0.46847 0.47558 0.76171 0.0
N1596 N 0.46524 0.46771 0.77434 0.0
C1597 C 0.44134 0.47516 0.77285 0.0
C1598 C 0.4581 0.48358 0.75423 0.0
C1599 C 0.45202 0.46734 0.78002 0.0
C1600 C 0.39321 0.46197 0.73706 0.0
N1601 N 0.39983 0.47083 0.75153 0.0
C1602 C 0.38834 0.45096 0.76604 0.0
C1603 C 0.39764 0.46556 0.76586 0.0
C1604 C 0.38128 0.44148 0.75132 0.0
C1605 C 0.38385 0.4472 0.73667 0.0
H1606 H 0.39522 0.46635 0.72582 0.0
H1607 H 0.40308 0.47275 0.77721 0.0
C1608 C 0.4403 0.52178 0.80148 0.0
N1609 N 0.44631 0.51478 0.78922 0.0
C1610 C 0.44808 0.52517 0.81734 0.0
C1611 C 0.46839 0.51443 0.80778 0.0
C1612 C 0.46026 0.51142 0.79202 0.0
C1613 C 0.46224 0.52123 0.8208 0.0
H1614 H 0.42939 0.5248 0.79892 0.0
H1615 H 0.46512 0.50638 0.78209 0.0
C1616 C 0.40089 0.5064 0.7207 0.0
N1617 N 0.38332 0.51187 0.69332 0.0
C1618 C 0.40693 0.5168 0.71062 0.0
C1619 C 0.38596 0.49859 0.7167 0.0
C1620 C 0.39785 0.51947 0.69689 0.0
C1621 C 0.37725 0.50157 0.70286 0.0
C1622 C 0.44622 0.53871 0.76494 0.0
C1623 C 0.44199 0.55046 0.7753 0.0
C1624 C 0.4613 0.53774 0.76581 0.0
C1625 C 0.45295 0.56105 0.78643 0.0
C1626 C 0.47192 0.54855 0.77711 0.0
N1627 N 0.46756 0.55988 0.7871 0.0
C1628 C 0.39574 0.54171 0.76618 0.0
C1629 C 0.4036 0.54656 0.74115 0.0
C1630 C 0.38817 0.55441 0.76617 0.0
N1631 N 0.40297 0.53775 0.75357 0.0
C1632 C 0.39627 0.55943 0.7407 0.0
C1633 C 0.38831 0.56343 0.75327 0.0
H1634 H 0.39604 0.53527 0.77646 0.0
H1635 H 0.41003 0.54379 0.7317 0.0
C1636 C 0.43678 0.49669 0.70696 0.0
N1637 N 0.44199 0.50825 0.71996 0.0
C1638 C 0.44274 0.49744 0.69246 0.0
C1639 C 0.45959 0.52173 0.70511 0.0
C1640 C 0.4532 0.52061 0.71929 0.0
C1641 C 0.45426 0.51016 0.6913 0.0
H1642 H 0.42768 0.48713 0.70771 0.0
H1643 H 0.457 0.52979 0.72966 0.0
O1644 O 0.41228 0.50717 0.77162 0.0
O1645 O 0.4342 0.4911 0.75272 0.0
O1646 O 0.40968 0.50344 0.73407 0.0
O1647 O 0.43559 0.52795 0.75431 0.0
H1648 H 0.40629 0.50504 0.80137 0.0
H1649 H 0.38673 0.50344 0.75153 0.0
H1650 H 0.3808 0.49995 0.80871 0.0
H1651 H 0.36158 0.49822 0.75965 0.0
H1652 H 0.47909 0.47565 0.75748 0.0
H1653 H 0.43086 0.47496 0.7774 0.0
H1654 H 0.46064 0.48988 0.74419 0.0
H1655 H 0.4498 0.46099 0.7901 0.0
H1656 H 0.38656 0.44727 0.77766 0.0
H1657 H 0.37885 0.44026 0.72501 0.0
H1658 H 0.44301 0.53087 0.82678 0.0
H1659 H 0.47923 0.51113 0.80975 0.0
H1660 H 0.41846 0.52291 0.71347 0.0
H1661 H 0.38115 0.49026 0.72416 0.0
H1662 H 0.40236 0.52758 0.68906 0.0
H1663 H 0.36567 0.49565 0.69966 0.0
H1664 H 0.43035 0.55129 0.77486 0.0
H1665 H 0.46473 0.52852 0.7581 0.0
H1666 H 0.44984 0.57017 0.79457 0.0
H1667 H 0.48362 0.54787 0.77801 0.0
H1668 H 0.38252 0.55734 0.77634 0.0
H1669 H 0.39676 0.56612 0.73056 0.0
H1670 H 0.43804 0.48835 0.68215 0.0
H1671 H 0.46858 0.53164 0.705 0.0
Li1672 Li 0.64582 0.99919 0.79321 0.0
Li1673 Li 0.66549 0.01502 0.78029 0.0
Li1674 Li 0.64307 0.9973 0.76093 0.0
Li1675 Li 0.66454 0.98385 0.77857 0.0
C1676 C 0.63494 0.02506 0.78434 0.0
N1677 N 0.61666 0.04366 0.7974 0.0
C1678 C 0.64093 0.03747 0.79703 0.0
C1679 C 0.61969 0.02213 0.77823 0.0
C1680 C 0.63149 0.04673 0.80349 0.0
C1681 C 0.61063 0.03167 0.78501 0.0
C1682 C 0.68025 0.00952 0.80906 0.0
C1683 C 0.70644 0.01418 0.82011 0.0
N1684 N 0.70463 0.02678 0.83054 0.0
C1685 C 0.67863 0.02248 0.81989 0.0
C1686 C 0.69424 1.0053 0.80914 0.0
C1687 C 0.6911 0.03106 0.83066 0.0
C1688 C 0.61921 0.99986 0.81184 0.0
N1689 N 0.63422 0.99991 0.81342 0.0
C1690 C 0.63478 1.00192 0.84283 0.0
C1691 C 0.6419 1.00082 0.82876 0.0
C1692 C 0.6193 1.00207 0.84167 0.0
C1693 C 0.61164 1.00091 0.82561 0.0
H1694 H 0.61292 0.99908 0.79984 0.0
H1695 H 0.65373 1.00071 0.83025 0.0
C1696 C 0.671 0.04725 0.77177 0.0
N1697 N 0.67794 0.03754 0.78063 0.0
C1698 C 0.67808 0.06299 0.77086 0.0
C1699 C 0.69959 0.05905 0.78825 0.0
C1700 C 0.69213 0.04327 0.78872 0.0
C1701 C 0.69266 0.06937 0.7792 0.0
H1702 H 0.6598 0.04277 0.76529 0.0
H1703 H 0.69784 0.03564 0.79553 0.0
C1704 C 0.62866 0.97133 0.78018 0.0
N1705 N 0.60348 0.95649 0.79101 0.0
C1706 C 0.63007 0.96287 0.79335 0.0
C1707 C 0.61447 0.97231 0.77254 0.0
C1708 C 0.61719 0.95543 0.79864 0.0
C1709 C 0.60187 0.96469 0.77818 0.0
C1710 C 0.67605 0.00727 0.75363 0.0
C1711 C 0.6717 0.0152 0.74073 0.0
C1712 C 0.69118 0.00921 0.75998 0.0
C1713 C 0.68261 0.02493 0.73434 0.0
C1714 C 0.70175 0.01905 0.75326 0.0
N1715 N 0.69728 0.02664 0.74069 0.0
C1716 C 0.62664 0.01117 0.73501 0.0
C1717 C 0.62672 0.98416 0.72677 0.0
C1718 C 0.61897 0.01242 0.71954 0.0
N1719 N 0.63045 0.99719 0.73855 0.0
C1720 C 0.61907 0.98492 0.71108 0.0
C1721 C 0.61501 0.99924 0.70702 0.0
H1722 H 0.62983 0.02161 0.74415 0.0
H1723 H 0.62983 0.9731 0.72941 0.0
C1724 C 0.66804 0.94932 0.78031 0.0
N1725 N 0.67551 0.96389 0.778 0.0
C1726 C 0.67487 0.93567 0.77992 0.0
C1727 C 0.69723 0.95163 0.77474 0.0
C1728 C 0.68999 0.965 0.77523 0.0
C1729 C 0.68983 0.93638 0.77708 0.0
H1730 H 0.6566 0.94811 0.78248 0.0
H1731 H 0.69612 0.97632 0.77329 0.0
O1732 O 0.64393 0.01567 0.77808 0.0
O1733 O 0.66821 1.00099 0.7984 0.0
O1734 O 0.6411 0.97919 0.7752 0.0
O1735 O 0.6655 0.99829 0.76054 0.0
H1736 H 0.65273 0.03989 0.80184 0.0
H1737 H 0.6149 0.01249 0.76847 0.0
H1738 H 0.63595 0.05636 0.81334 0.0
H1739 H 0.59879 0.0295 0.78047 0.0
H1740 H 0.71734 0.01108 0.82031 0.0
H1741 H 0.66786 0.02587 0.81996 0.0
H1742 H 0.69566 0.99529 0.80082 0.0
H1743 H 0.69002 0.04114 0.83909 0.0
H1744 H 0.64148 1.00245 0.85457 0.0
H1745 H 0.59983 1.0011 0.82354 0.0
H1746 H 0.67197 0.07019 0.76381 0.0
H1747 H 0.71084 0.06302 0.79477 0.0
H1748 H 0.64099 0.96225 0.79956 0.0
H1749 H 0.61323 0.97898 0.76244 0.0
H1750 H 0.61809 0.94889 0.80887 0.0
H1751 H 0.59081 0.96535 0.77241 0.0
H1752 H 0.66002 0.01397 0.7358 0.0
H1753 H 0.69469 1.00345 0.77021 0.0
H1754 H 0.67941 0.03118 0.72438 0.0
H1755 H 0.7135 0.02074 0.75812 0.0
H1756 H 0.61653 0.02388 0.71735 0.0
H1757 H 0.6163 0.97424 0.70223 0.0
H1758 H 0.66835 0.92463 0.78208 0.0
H1759 H 0.70859 0.95335 0.77226 0.0
Li1760 Li 0.76728 0.65856 0.01658 0.0
Li1761 Li 0.77709 0.63864 1.00063 0.0
Li1762 Li 0.76524 0.65705 0.9862 0.0
Li1763 Li 0.74954 0.63564 0.99869 0.0
C1764 C 0.78974 0.67811 0.00521 0.0
N1765 N 0.80196 0.71018 0.0087 0.0
C1766 C 0.805 0.6835 0.01072 0.0
C1767 C 0.78069 0.68904 1.00146 0.0
C1768 C 0.81096 0.69977 0.01244 0.0
C1769 C 0.78709 0.7052 1.00327 0.0
C1770 C 0.7723 0.62621 0.02642 0.0
C1771 C 0.77852 0.60058 0.02946 0.0
N1772 N 0.78925 0.60753 0.04227 0.0
C1773 C 0.78343 0.63311 0.03958 0.0
C1774 C 0.76984 0.60983 0.02127 0.0
C1775 C 0.79185 0.62345 0.04746 0.0
C1776 C 0.77575 0.68674 0.04216 0.0
N1777 N 0.76877 0.67122 0.038 0.0
C1778 C 0.76269 0.67069 0.06498 0.0
C1779 C 0.76227 0.66323 0.04912 0.0
C1780 C 0.76983 0.68669 0.06966 0.0
C1781 C 0.77638 0.69471 0.0579 0.0
H1782 H 0.78089 0.69307 0.0334 0.0
H1783 H 0.7568 0.6509 0.0457 0.0
C1784 C 0.79276 0.61272 0.99267 0.0
N1785 N 0.79383 0.62736 1.00134 0.0
C1786 C 0.80507 0.60508 0.99352 0.0
C1787 C 0.81933 0.62758 0.0123 0.0
C1788 C 0.8068 0.6348 0.01104 0.0
C1789 C 0.81868 0.61251 1.00342 0.0
H1790 H 0.78235 0.60695 0.98506 0.0
H1791 H 0.80738 0.64634 0.01797 0.0
C1792 C 0.73968 0.66621 0.00777 0.0
N1793 N 0.72038 0.68098 0.0239 0.0
C1794 C 0.73256 0.65894 0.01946 0.0
C1795 C 0.73695 0.68096 0.00422 0.0
C1796 C 0.72286 0.66661 0.0275 0.0
C1797 C 0.72715 0.68825 0.01252 0.0
C1798 C 0.76761 0.62942 0.96688 0.0
C1799 C 0.78207 0.63688 0.96555 0.0
C1800 C 0.75924 0.61826 0.95407 0.0
C1801 C 0.78793 0.63304 0.95138 0.0
C1802 C 0.76551 0.61474 0.9401 0.0
N1803 N 0.7796 0.62214 0.93905 0.0
C1804 C 0.77863 0.67536 0.96319 0.0
C1805 C 0.75228 0.66832 0.95734 0.0
C1806 C 0.77907 0.68315 0.94943 0.0
N1807 N 0.76537 0.66825 0.96703 0.0
C1808 C 0.75222 0.67578 0.94328 0.0
C1809 C 0.76575 0.68343 0.93919 0.0
H1810 H 0.78897 0.67491 0.97075 0.0
H1811 H 0.74185 0.66249 0.96046 0.0
C1812 C 0.72765 0.61064 0.0067 0.0
N1813 N 0.72974 0.62249 0.99736 0.0
C1814 C 0.71324 0.60226 0.00719 0.0
C1815 C 0.70325 0.6185 0.98862 0.0
C1816 C 0.71787 0.62644 0.98832 0.0
C1817 C 0.70073 0.60625 0.99822 0.0
H1818 H 0.73711 0.60798 0.01419 0.0
H1819 H 0.71973 0.63608 0.9812 0.0
O1820 O 0.78386 0.66216 1.00309 0.0
O1821 O 0.76426 0.63555 0.01822 0.0
O1822 O 0.74939 0.65899 0.99993 0.0
O1823 O 0.76158 0.63306 0.98059 0.0
H1824 H 0.81218 0.6752 0.01358 0.0
H1825 H 0.76887 0.68514 0.99724 0.0
H1826 H 0.82276 0.7041 0.0167 0.0
H1827 H 0.78022 0.71377 1.0004 0.0
H1828 H 0.7768 0.58791 0.02554 0.0
H1829 H 0.78569 0.64581 0.04353 0.0
H1830 H 0.76155 0.60435 0.01083 0.0
H1831 H 0.80053 0.62863 0.05763 0.0
H1832 H 0.75768 0.66383 0.07356 0.0
H1833 H 0.78183 0.7071 0.06075 0.0
H1834 H 0.80396 0.59357 0.98628 0.0
H1835 H 0.82938 0.63372 0.02036 0.0
H1836 H 0.73462 0.64756 0.02242 0.0
H1837 H 0.74231 0.68671 0.99513 0.0
H1838 H 0.71732 0.66115 0.03663 0.0
H1839 H 0.72494 0.69967 0.00992 0.0
H1840 H 0.7887 0.64555 0.97535 0.0
H1841 H 0.74802 0.6124 0.95493 0.0
H1842 H 0.7991 0.63873 0.95018 0.0
H1843 H 0.75916 0.60612 0.93007 0.0
H1844 H 0.78978 0.68865 0.94667 0.0
H1845 H 0.74167 0.67572 0.93581 0.0
H1846 H 0.71189 0.59311 0.01498 0.0
H1847 H 0.694 0.62196 0.98143 0.0
Li1848 Li 0.8912 0.51876 0.75394 0.0
Li1849 Li 0.91436 0.53713 0.77325 0.0
Li1850 Li 0.89307 0.55066 0.75579 0.0
Li1851 Li 0.91121 0.53499 0.74107 0.0
C1852 C 0.8813 0.53333 0.78308 0.0
N1853 N 0.85956 0.52775 0.80261 0.0
C1854 C 0.88525 0.53121 0.79925 0.0
C1855 C 0.86632 0.53261 0.77683 0.0
C1856 C 0.87408 0.5284 0.80893 0.0
C1857 C 0.85548 0.52978 0.7869 0.0
C1858 C 0.92279 0.50986 0.74975 0.0
C1859 C 0.94762 0.50438 0.74991 0.0
N1860 N 0.94252 0.49337 0.73643 0.0
C1861 C 0.91781 0.49853 0.73588 0.0
C1862 C 0.93783 0.51289 0.75679 0.0
C1863 C 0.92795 0.49031 0.72933 0.0
C1864 C 0.87586 0.48499 0.73999 0.0
N1865 N 0.87824 0.49631 0.75344 0.0
C1866 C 0.86586 0.47631 0.76795 0.0
C1867 C 0.8733 0.49201 0.76728 0.0
C1868 C 0.86345 0.46425 0.75436 0.0
C1869 C 0.86858 0.4691 0.74018 0.0
H1870 H 0.87998 0.48805 0.72907 0.0
H1871 H 0.87539 0.50064 0.77813 0.0
C1872 C 0.92911 0.55028 0.80784 0.0
N1873 N 0.92673 0.53752 0.79582 0.0
C1874 C 0.93663 0.5498 0.82366 0.0
C1875 C 0.93949 0.5232 0.8148 0.0
C1876 C 0.93173 0.52408 0.79926 0.0
C1877 C 0.94206 0.53612 0.82752 0.0
H1878 H 0.92497 0.56087 0.80529 0.0
H1879 H 0.92948 0.51376 0.79 0.0
C1880 C 0.87637 0.52604 0.72527 0.0
N1881 N 0.85116 0.51144 0.70347 0.0
C1882 C 0.87726 0.51411 0.71283 0.0
C1883 C 0.86271 0.53065 0.72656 0.0
C1884 C 0.86437 0.50684 0.70195 0.0
C1885 C 0.85007 0.5231 0.71543 0.0
C1886 C 0.92858 0.56287 0.7535 0.0
C1887 C 0.9268 0.57202 0.74095 0.0
C1888 C 0.94288 0.56112 0.76002 0.0
C1889 C 0.93942 0.5793 0.73509 0.0
C1890 C 0.95522 0.56861 0.75385 0.0
N1891 N 0.95325 0.57746 0.74161 0.0
C1892 C 0.8747 0.5745 0.7691 0.0
C1893 C 0.88276 0.58012 0.74461 0.0
C1894 C 0.86764 0.58799 0.76986 0.0
N1895 N 0.88218 0.57057 0.75657 0.0
C1896 C 0.87595 0.59379 0.74499 0.0
C1897 C 0.8681 0.59818 0.75775 0.0
H1898 H 0.87423 0.56725 0.77877 0.0
H1899 H 0.88858 0.57724 0.7346 0.0
C1900 C 0.93728 0.53326 0.72185 0.0
N1901 N 0.92252 0.53433 0.72066 0.0
C1902 C 0.94458 0.53202 0.70792 0.0
C1903 C 0.92179 0.53353 0.69133 0.0
C1904 C 0.91489 0.53463 0.70556 0.0
C1905 C 0.93696 0.53203 0.69205 0.0
H1906 H 0.94358 0.53326 0.73367 0.0
H1907 H 0.90329 0.53574 0.7044 0.0
O1908 O 0.89204 0.53595 0.77337 0.0
O1909 O 0.91308 0.51822 0.75616 0.0
O1910 O 0.88882 0.53323 0.7361 0.0
O1911 O 0.91636 0.55512 0.75896 0.0
H1912 H 0.8968 0.53166 0.80425 0.0
H1913 H 0.8631 0.53419 0.76432 0.0
H1914 H 0.87696 0.52671 0.82147 0.0
H1915 H 0.84384 0.52918 0.78223 0.0
H1916 H 0.95929 0.50662 0.75521 0.0
H1917 H 0.90627 0.49625 0.73013 0.0
H1918 H 0.94196 0.52188 0.76731 0.0
H1919 H 0.92425 0.48154 0.71857 0.0
H1920 H 0.8621 0.47376 0.77923 0.0
H1921 H 0.86745 0.46061 0.72931 0.0
H1922 H 0.93825 0.56019 0.83279 0.0
H1923 H 0.94308 0.51222 0.81692 0.0
H1924 H 0.88777 0.51042 0.71169 0.0
H1925 H 0.86189 0.53999 0.73603 0.0
H1926 H 0.86487 0.49753 0.69231 0.0
H1927 H 0.83941 0.52652 0.71629 0.0
H1928 H 0.91577 0.57332 0.73566 0.0
H1929 H 0.94439 0.55393 0.76965 0.0
H1930 H 0.93822 0.58637 0.72533 0.0
H1931 H 0.96636 0.56733 0.75874 0.0
H1932 H 0.86207 0.59053 0.78019 0.0
H1933 H 0.87672 0.60074 0.73509 0.0
H1934 H 0.95615 0.53079 0.70972 0.0
H1935 H 0.91513 0.53404 0.67984 0.0
Li1936 Li 0.76425 0.36726 0.51769 0.0
Li1937 Li 0.74032 0.37879 0.51094 0.0
Li1938 Li 0.75032 0.3628 0.4906 0.0
Li1939 Li 0.76299 0.38844 0.50069 0.0
C1940 C 0.73301 0.34239 0.50617 0.0
N1941 N 0.71256 0.31426 0.49643 0.0
C1942 C 0.71964 0.34218 0.49599 0.0
C1943 C 0.73597 0.32832 0.51144 0.0
C1944 C 0.70945 0.32782 0.49119 0.0
C1945 C 0.72549 0.31421 0.50638 0.0
C1946 C 0.76839 0.40287 0.53193 0.0
C1947 C 0.77055 0.42994 0.54458 0.0
N1948 N 0.78567 0.43153 0.54727 0.0
C1949 C 0.78394 0.40472 0.53494 0.0
C1950 C 0.76161 0.41554 0.53685 0.0
C1951 C 0.79249 0.41933 0.54265 0.0
C1952 C 0.79094 0.36167 0.53451 0.0
N1953 N 0.77587 0.3594 0.53385 0.0
C1954 C 0.77705 0.3452 0.55655 0.0
C1955 C 0.76884 0.35146 0.54458 0.0
C1956 C 0.79267 0.34727 0.55756 0.0
C1957 C 0.79963 0.35564 0.54634 0.0
H1958 H 0.7962 0.36807 0.52577 0.0
H1959 H 0.75683 0.34991 0.54373 0.0
C1960 C 0.7105 0.38263 0.50854 0.0
N1961 N 0.72322 0.38352 0.51915 0.0
C1962 C 0.69802 0.38718 0.51403 0.0
C1963 C 0.71181 0.39305 0.54137 0.0
C1964 C 0.72403 0.3883 0.53534 0.0
C1965 C 0.69866 0.39273 0.53061 0.0
H1966 H 0.71025 0.3789 0.49571 0.0
H1967 H 0.7343 0.38879 0.54349 0.0
C1968 C 0.77761 0.35998 0.48648 0.0
N1969 N 0.78757 0.33985 0.464 0.0
C1970 C 0.77801 0.36342 0.47062 0.0
C1971 C 0.78244 0.34638 0.49094 0.0
C1972 C 0.78301 0.35306 0.45942 0.0
C1973 C 0.78742 0.33635 0.47939 0.0
C1974 C 0.74195 0.3955 0.48075 0.0
C1975 C 0.74887 0.3971 0.46699 0.0
C1976 C 0.73484 0.4075 0.48676 0.0
C1977 C 0.74864 0.41072 0.45952 0.0
C1978 C 0.73482 0.42093 0.47892 0.0
N1979 N 0.74167 0.42225 0.46559 0.0
C1980 C 0.73993 0.35059 0.45741 0.0
C1981 C 0.74796 0.33199 0.47359 0.0
C1982 C 0.73896 0.33993 0.44326 0.0
N1983 N 0.74492 0.34667 0.47211 0.0
C1984 C 0.74707 0.32095 0.4598 0.0
C1985 C 0.74311 0.32511 0.44435 0.0
H1986 H 0.73755 0.36231 0.45659 0.0
H1987 H 0.75205 0.32922 0.48539 0.0
C1988 C 0.78869 0.40562 0.49197 0.0
N1989 N 0.77555 0.40745 0.49695 0.0
C1990 C 0.7996 0.41886 0.49144 0.0
C1991 C 0.78325 0.43578 0.50094 0.0
C1992 C 0.77252 0.42217 0.50104 0.0
C1993 C 0.79709 0.43416 0.49635 0.0
H1994 H 0.79103 0.39387 0.48918 0.0
H1995 H 0.7621 0.42336 0.50518 0.0
O1996 O 0.74318 0.3563 0.51087 0.0
O1997 O 0.75985 0.38879 0.52405 0.0
O1998 O 0.77241 0.36979 0.49753 0.0
O1999 O 0.74211 0.38227 0.48828 0.0
H2000 H 0.71727 0.35293 0.49165 0.0
H2001 H 0.74631 0.32827 0.51924 0.0
H2002 H 0.69909 0.32746 0.48324 0.0
H2003 H 0.72765 0.30322 0.51031 0.0
H2004 H 0.76546 0.43988 0.54836 0.0
H2005 H 0.78935 0.39508 0.53109 0.0
H2006 H 0.74959 0.41433 0.53451 0.0
H2007 H 0.80455 0.42098 0.54491 0.0
H2008 H 0.77119 0.33857 0.56476 0.0
H2009 H 0.81163 0.3576 0.54677 0.0
H2010 H 0.6882 0.38703 0.50527 0.0
H2011 H 0.71271 0.39716 0.55425 0.0
H2012 H 0.77433 0.37388 0.46695 0.0
H2013 H 0.78207 0.3434 0.50307 0.0
H2014 H 0.78323 0.3555 0.44707 0.0
H2015 H 0.79106 0.32572 0.48264 0.0
H2016 H 0.75447 0.38798 0.46219 0.0
H2017 H 0.72959 0.40662 0.49751 0.0
H2018 H 0.75402 0.41213 0.44892 0.0
H2019 H 0.72942 0.43034 0.48349 0.0
H2020 H 0.73598 0.34369 0.43158 0.0
H2021 H 0.7502 0.30959 0.46118 0.0
H2022 H 0.81024 0.41709 0.48811 0.0
H2023 H 0.78093 0.4474 0.50483 0.0
Li2024 Li 0.62628 0.52886 0.30414 0.0
Li2025 Li 0.64619 0.54517 0.29046 0.0
Li2026 Li 0.62432 0.52727 0.27453 0.0
Li2027 Li 0.64313 0.51629 0.28901 0.0
C2028 C 0.61595 0.555 0.2821 0.0
N2029 N 0.59838 0.57168 0.26412 0.0
C2030 C 0.62246 0.56628 0.27315 0.0
C2031 C 0.60053 0.55237 0.28209 0.0
C2032 C 0.61338 0.57455 0.26409 0.0
C2033 C 0.59183 0.56088 0.27287 0.0
C2034 C 0.66073 0.52768 0.31631 0.0
C2035 C 0.68701 0.52693 0.31948 0.0
N2036 N 0.68497 0.51637 0.33022 0.0
C2037 C 0.6589 0.5169 0.32744 0.0
C2038 C 0.67489 0.5328 0.31233 0.0
C2039 C 0.67129 0.51129 0.33431 0.0
C2040 C 0.61545 0.51383 0.32924 0.0
N2041 N 0.61674 0.52783 0.32311 0.0
C2042 C 0.60512 0.53912 0.34441 0.0
C2043 C 0.61173 0.54039 0.33034 0.0
C2044 C 0.60365 0.52477 0.35106 0.0
C2045 C 0.60894 0.51203 0.34322 0.0
H2046 H 0.61956 0.50403 0.32326 0.0
H2047 H 0.61287 0.55139 0.3252 0.0
C2048 C 0.67007 0.56572 0.28141 0.0
N2049 N 0.65991 0.56488 0.29181 0.0
C2050 C 0.6798 0.58004 0.28117 0.0
C2051 C 0.66869 0.59238 0.30265 0.0
C2052 C 0.65909 0.5778 0.3024 0.0
C2053 C 0.67919 0.5937 0.29185 0.0
H2054 H 0.6705 0.55528 0.27315 0.0
H2055 H 0.65088 0.57681 0.31054 0.0
C2056 C 0.60751 0.50034 0.28528 0.0
N2057 N 0.5793 0.48151 0.28028 0.0
C2058 C 0.60526 0.48442 0.27828 0.0
C2059 C 0.59544 0.50665 0.28985 0.0
C2060 C 0.5909 0.4751 0.27581 0.0
C2061 C 0.58126 0.49695 0.28721 0.0
C2062 C 0.64634 0.51976 0.25715 0.0
C2063 C 0.63796 0.50426 0.25362 0.0
C2064 C 0.65526 0.52559 0.24607 0.0
C2065 C 0.63873 0.49483 0.23914 0.0
C2066 C 0.65572 0.51579 0.23171 0.0
N2067 N 0.64752 0.50074 0.22857 0.0
C2068 C 0.61721 0.53554 0.24371 0.0
C2069 C 0.59894 0.51427 0.24832 0.0
C2070 C 0.61001 0.53482 0.22782 0.0
N2071 N 0.61164 0.52539 0.25366 0.0
C2072 C 0.59145 0.51301 0.23239 0.0
C2073 C 0.59701 0.52336 0.2219 0.0
H2074 H 0.62753 0.54399 0.248 0.0
H2075 H 0.5947 0.50612 0.25616 0.0
C2076 C 0.6475 0.4861 0.29568 0.0
N2077 N 0.65354 0.49896 0.28916 0.0
C2078 C 0.65454 0.47302 0.29608 0.0
C2079 C 0.6739 0.4867 0.28304 0.0
C2080 C 0.66652 0.49954 0.28296 0.0
C2081 C 0.6679 0.47318 0.28964 0.0
H2082 H 0.63719 0.48601 0.30059 0.0
H2083 H 0.67114 0.51 0.27797 0.0
O2084 O 0.62465 0.5466 0.29083 0.0
O2085 O 0.64867 0.53287 0.309 0.0
O2086 O 0.62154 0.50955 0.2879 0.0
O2087 O 0.64563 0.52934 0.27118 0.0
H2088 H 0.63437 0.56846 0.27298 0.0
H2089 H 0.59531 0.5439 0.28914 0.0
H2090 H 0.61826 0.5832 0.25699 0.0
H2091 H 0.57987 0.55891 0.27269 0.0
H2092 H 0.69802 0.53071 0.31644 0.0
H2093 H 0.648 0.51277 0.33058 0.0
H2094 H 0.67647 0.54105 0.30365 0.0
H2095 H 0.67003 0.50286 0.34286 0.0
H2096 H 0.60106 0.5492 0.34989 0.0
H2097 H 0.60827 0.50083 0.34798 0.0
H2098 H 0.6875 0.58045 0.27244 0.0
H2099 H 0.66791 0.60247 0.31126 0.0
H2100 H 0.61451 0.4793 0.27477 0.0
H2101 H 0.597 0.51889 0.29538 0.0
H2102 H 0.58899 0.46277 0.27036 0.0
H2103 H 0.57182 0.5017 0.29066 0.0
H2104 H 0.63091 0.49953 0.26191 0.0
H2105 H 0.66169 0.5376 0.24846 0.0
H2106 H 0.6323 0.48282 0.23629 0.0
H2107 H 0.66258 0.52016 0.22305 0.0
H2108 H 0.61487 0.54285 0.22008 0.0
H2109 H 0.58143 0.50402 0.22832 0.0
H2110 H 0.64944 0.46281 0.30115 0.0
H2111 H 0.68428 0.48742 0.27815 0.0
Tb2112 Tb 0.00989 0.00812 0.01267 0.0
Tb2113 Tb 0.0398 0.02484 0.02958 0.0
C2114 C 0.98232 1.00091 1.00285 0.0
C2115 C 0.97172 0.01032 0.99614 0.0
C2116 C 0.97185 0.02577 1.00371 0.0
C2117 C 0.96242 0.035 0.99682 0.0
C2118 C 0.95271 0.02906 0.98215 0.0
C2119 C 0.95255 0.01357 0.97459 0.0
C2120 C 0.962 1.00428 0.98154 0.0
C2121 C 0.03159 0.00665 0.99522 0.0
C2122 C 0.02028 0.04587 0.01222 0.0
C2123 C 0.06747 0.03268 0.03884 0.0
C2124 C 0.07941 0.02343 0.04006 0.0
C2125 C 0.07867 0.00987 0.0287 0.0
C2126 C 0.08982 1.00086 0.03015 0.0
C2127 C 0.10183 1.00515 0.04304 0.0
C2128 C 0.10249 0.01866 0.05446 0.0
C2129 C 0.09136 0.02776 0.05295 0.0
C2130 C 0.01813 0.02624 0.04714 0.0
C2131 C 0.02945 0.98717 0.02953 0.0
O2132 O 0.98815 1.00523 0.0182 0.0
O2133 O 0.99228 0.9979 0.99375 0.0
O2134 O 0.03002 0.01845 0.00475 0.0
O2135 O 0.02027 0.99516 0.9947 0.0
O2136 O 0.00929 0.03322 0.00983 0.0
O2137 O 0.03387 0.04521 0.01914 0.0
O2138 O 0.06103 0.03315 0.02406 0.0
O2139 O 0.05781 0.03016 0.04883 0.0
O2140 O 0.01971 0.01449 0.03754 0.0
O2141 O 0.02947 0.03769 0.04767 0.0
O2142 O 0.0407 0.99935 0.03021 0.0
O2143 O 0.01555 0.98844 0.02447 0.0
H2144 H 0.9793 0.03081 0.01494 0.0
H2145 H 0.96262 0.04675 1.00315 0.0
H2146 H 0.94524 0.00868 0.96324 0.0
H2147 H 0.96185 0.99245 0.97543 0.0
H2148 H 0.06943 0.00618 0.01876 0.0
H2149 H 0.08891 0.99038 0.02131 0.0
H2150 H 0.11168 0.02225 0.06446 0.0
H2151 H 0.09203 0.03814 0.06186 0.0
Tb2152 Tb 0.27896 0.76154 0.24897 0.0
Tb2153 Tb 0.27696 0.77233 0.28472 0.0
C2154 C 0.2771 0.75815 0.21858 0.0
C2155 C 0.28613 0.76466 0.20676 0.0
C2156 C 0.27992 0.77359 0.19568 0.0
C2157 C 0.28811 0.77981 0.18426 0.0
C2158 C 0.30266 0.77713 0.1836 0.0
C2159 C 0.3089 0.76813 0.19463 0.0
C2160 C 0.30073 0.76201 0.20619 0.0
C2161 C 0.30172 0.75829 0.27046 0.0
C2162 C 0.2914 0.79869 0.26416 0.0
C2163 C 0.28206 0.77717 0.31509 0.0
C2164 C 0.27305 0.7723 0.3274 0.0
C2165 C 0.27906 0.77624 0.34389 0.0
C2166 C 0.27084 0.77074 0.35563 0.0
C2167 C 0.25647 0.76121 0.35103 0.0
C2168 C 0.25033 0.75769 0.33445 0.0
C2169 C 0.25858 0.76318 0.32271 0.0
C2170 C 0.2507 0.77119 0.26608 0.0
C2171 C 0.26363 0.73594 0.26885 0.0
O2172 O 0.27073 0.76821 0.22679 0.0
O2173 O 0.28273 0.74864 0.22766 0.0
O2174 O 0.29457 0.76949 0.27108 0.0
O2175 O 0.29696 0.74917 0.25669 0.0
O2176 O 0.28858 0.78746 0.25114 0.0
O2177 O 0.28838 0.79519 0.2786 0.0
O2178 O 0.28615 0.76549 0.30634 0.0
O2179 O 0.27706 0.78728 0.30628 0.0
O2180 O 0.26262 0.76789 0.26216 0.0
O2181 O 0.25338 0.77547 0.28167 0.0
O2182 O 0.27001 0.746 0.28226 0.0
O2183 O 0.26373 0.7406 0.25425 0.0
H2184 H 0.26865 0.77569 0.1958 0.0
H2185 H 0.28291 0.78643 0.17568 0.0
H2186 H 0.32009 0.7659 0.19434 0.0
H2187 H 0.30583 0.75517 0.2146 0.0
H2188 H 0.29024 0.78323 0.34765 0.0
H2189 H 0.27603 0.77339 0.36827 0.0
H2190 H 0.23928 0.75046 0.33053 0.0
H2191 H 0.25381 0.76005 0.30997 0.0
Tb2192 Tb 0.54401 0.01897 0.51369 0.0
Tb2193 Tb 0.51182 0.01554 0.52112 0.0
C2194 C 0.57183 0.02 0.51616 0.0
C2195 C 0.58347 0.0102 0.51902 0.0
C2196 C 0.58688 1.00449 0.53387 0.0
C2197 C 0.59858 0.99604 0.5362 0.0
C2198 C 0.6072 0.99322 0.52382 0.0
C2199 C 0.60366 0.9989 0.50901 0.0
C2200 C 0.592 0.00725 0.50667 0.0
C2201 C 0.52543 0.02423 0.48754 0.0
C2202 C 0.52364 0.98435 0.50811 0.0
C2203 C 0.48382 0.01255 0.51968 0.0
C2204 C 0.47215 0.02238 0.5167 0.0
C2205 C 0.4613 0.01818 0.50265 0.0
C2206 C 0.4495 0.02642 0.50023 0.0
C2207 C 0.44816 0.03909 0.51185 0.0
C2208 C 0.45926 0.04356 0.52571 0.0
C2209 C 0.47108 0.03532 0.52812 0.0
C2210 C 0.53299 0.01638 0.54696 0.0
C2211 C 0.53139 0.04953 0.52485 0.0
O2212 O 0.56525 0.02481 0.5283 0.0
O2213 O 0.56252 0.01582 0.50249 0.0
O2214 O 0.52265 0.02096 0.50129 0.0
O2215 O 0.53974 0.02524 0.48861 0.0
O2216 O 0.53702 0.99319 0.50844 0.0
O2217 O 0.51227 0.99049 0.51261 0.0
O2218 O 0.49031 0.00823 0.50736 0.0
O2219 O 0.49331 0.01647 0.53323 0.0
O2220 O 0.5325 0.00962 0.53249 0.0
O2221 O 0.52091 0.02216 0.54717 0.0
O2222 O 0.51776 0.04096 0.52022 0.0
O2223 O 0.54339 0.04292 0.52546 0.0
H2224 H 0.58062 0.00664 0.5437 0.0
H2225 H 0.60084 0.99164 0.54767 0.0
H2226 H 0.61015 0.99724 0.49928 0.0
H2227 H 0.5898 0.01168 0.49519 0.0
H2228 H 0.46178 0.0083 0.4936 0.0
H2229 H 0.44136 0.02278 0.48926 0.0
H2230 H 0.45858 0.05312 0.53502 0.0
H2231 H 0.47918 0.03892 0.53912 0.0
Tb2232 Tb 0.2635 0.26958 0.76723 0.0
Tb2233 Tb 0.29655 0.26749 0.77294 0.0
C2234 C 0.2357 0.26629 0.76772 0.0
C2235 C 0.22412 0.26639 0.77858 0.0
C2236 C 0.22102 0.25443 0.78842 0.0
C2237 C 0.20867 0.25358 0.79676 0.0
C2238 C 0.19908 0.26459 0.79541 0.0
C2239 C 0.2025 0.27679 0.78594 0.0
C2240 C 0.2148 0.27764 0.77762 0.0
C2241 C 0.28238 0.29447 0.76192 0.0
C2242 C 0.28252 0.27861 0.80326 0.0
C2243 C 0.32435 0.27074 0.77253 0.0
C2244 C 0.33565 0.26859 0.7618 0.0
C2245 C 0.33344 0.27047 0.74526 0.0
C2246 C 0.34498 0.26964 0.73592 0.0
C2247 C 0.35897 0.267 0.74294 0.0
C2248 C 0.36092 0.26472 0.75938 0.0
C2249 C 0.34942 0.26553 0.76867 0.0
C2250 C 0.27764 0.24262 0.77823 0.0
C2251 C 0.27745 0.25833 0.73685 0.0
O2252 O 0.24296 0.25452 0.76728 0.0
O2253 O 0.24432 0.27986 0.76682 0.0
O2254 O 0.28428 0.28617 0.77313 0.0
O2255 O 0.26905 0.28954 0.75371 0.0
O2256 O 0.26924 0.27361 0.79401 0.0
O2257 O 0.29511 0.27918 0.79706 0.0
O2258 O 0.31668 0.28193 0.77021 0.0
O2259 O 0.31613 0.25791 0.77588 0.0
O2260 O 0.27583 0.25096 0.76705 0.0
O2261 O 0.29097 0.24746 0.78642 0.0
O2262 O 0.29076 0.26268 0.74617 0.0
O2263 O 0.26486 0.2584 0.74291 0.0
H2264 H 0.22784 0.24544 0.78931 0.0
H2265 H 0.20631 0.24392 0.80377 0.0
H2266 H 0.19554 0.28562 0.78477 0.0
H2267 H 0.21679 0.28689 0.77003 0.0
H2268 H 0.32293 0.27289 0.73968 0.0
H2269 H 0.34303 0.27131 0.72326 0.0
H2270 H 0.37155 0.26286 0.76528 0.0
H2271 H 0.35143 0.26413 0.78141 0.0
Tb2272 Tb 0.02837 0.0373 0.52553 0.0
Tb2273 Tb 0.02872 1.00095 0.51823 0.0
C2274 C 0.03185 0.06688 0.52641 0.0
C2275 C 0.03627 0.07822 0.51541 0.0
C2276 C 0.04187 0.07341 0.50125 0.0
C2277 C 0.04587 0.08435 0.4908 0.0
C2278 C 0.04418 0.10023 0.49428 0.0
C2279 C 0.03851 0.10493 0.50851 0.0
C2280 C 0.03464 0.09401 0.519 0.0
C2281 C 1.00477 0.01737 0.53089 0.0
C2282 C 0.02101 0.01928 0.48894 0.0
C2283 C 0.02082 0.97142 0.51606 0.0
C2284 C 0.02587 0.95891 0.52459 0.0
C2285 C 0.03006 0.96139 0.54156 0.0
C2286 C 0.03359 0.94899 0.54967 0.0
C2287 C 0.03317 0.93391 0.54096 0.0
C2288 C 0.02961 0.9317 0.52388 0.0
C2289 C 0.02592 0.94409 0.51578 0.0
C2290 C 0.0555 0.01883 0.51757 0.0
C2291 C 0.03982 0.01979 0.55405 0.0
O2292 O 0.04231 0.05966 0.53237 0.0
O2293 O 0.01896 0.05719 0.52154 0.0
O2294 O 0.0122 0.01552 0.51943 0.0
O2295 O 0.01005 0.03126 0.53936 0.0
O2296 O 0.02569 0.03294 0.49886 0.0
O2297 O 0.01977 1.00528 0.49421 0.0
O2298 O 0.01489 0.98164 0.52471 0.0
O2299 O 0.02986 0.97821 0.50693 0.0
O2300 O 0.04347 0.02283 0.5201 0.0
O2301 O 0.05276 1.00338 0.51558 0.0
O2302 O 0.03415 0.00591 0.54481 0.0
O2303 O 0.0404 0.0336 0.54847 0.0
H2304 H 0.04311 0.06122 0.49823 0.0
H2305 H 0.05033 0.08037 0.48004 0.0
H2306 H 0.03676 0.11696 0.5114 0.0
H2307 H 0.03022 0.09786 0.52984 0.0
H2308 H 0.03021 0.97278 0.54864 0.0
H2309 H 0.03607 0.95109 0.56283 0.0
H2310 H 0.02945 0.92033 0.51676 0.0
H2311 H 0.02284 0.942 0.50267 0.0
Tb2312 Tb 0.2794 0.75424 0.75592 0.0
Tb2313 Tb 0.28418 0.79064 0.76499 0.0
C2314 C 0.27855 0.72672 0.74185 0.0
C2315 C 0.28791 0.71451 0.74394 0.0
C2316 C 0.30015 0.71426 0.73557 0.0
C2317 C 0.30872 0.7025 0.73693 0.0
C2318 C 0.30551 0.6908 0.74702 0.0
C2319 C 0.29345 0.6913 0.75571 0.0
C2320 C 0.28467 0.70291 0.75407 0.0
C2321 C 0.27228 0.7644 0.78403 0.0
C2322 C 0.3076 0.77222 0.78038 0.0
C2323 C 0.28245 0.81883 0.77452 0.0
C2324 C 0.27164 0.82953 0.77551 0.0
C2325 C 0.25758 0.82492 0.78018 0.0
C2326 C 0.24804 0.83588 0.78168 0.0
C2327 C 0.25243 0.85157 0.77853 0.0
C2328 C 0.26636 0.85589 0.77345 0.0
C2329 C 0.27585 0.84501 0.77202 0.0
C2330 C 0.30003 0.78021 0.7437 0.0
C2331 C 0.25413 0.77197 0.74238 0.0
O2332 O 0.28487 0.73968 0.7368 0.0
O2333 O 0.2705 0.72975 0.75324 0.0
O2334 O 0.27046 0.77045 0.77117 0.0
O2335 O 0.27754 0.75148 0.78125 0.0
O2336 O 0.30205 0.75997 0.76888 0.0
O2337 O 0.30114 0.78471 0.78272 0.0
O2338 O 0.28203 0.80773 0.78404 0.0
O2339 O 0.28485 0.81389 0.75986 0.0
O2340 O 0.2868 0.77445 0.74494 0.0
O2341 O 0.30447 0.7934 0.75355 0.0
O2342 O 0.26237 0.78577 0.74968 0.0
O2343 O 0.2585 0.75821 0.74324 0.0
H2344 H 0.30299 0.72303 0.72769 0.0
H2345 H 0.31767 0.70244 0.72976 0.0
H2346 H 0.29077 0.68277 0.76389 0.0
H2347 H 0.27536 0.70278 0.76076 0.0
H2348 H 0.25405 0.81299 0.78286 0.0
H2349 H 0.23741 0.83219 0.78567 0.0
H2350 H 0.26997 0.86772 0.77055 0.0
H2351 H 0.2866 0.84877 0.76829 0.0
Tb2352 Tb 0.51141 0.0118 1.00392 0.0
Tb2353 Tb 0.54024 0.01897 0.02664 0.0
C2354 C 0.48598 0.99847 0.98923 0.0
C2355 C 0.47035 0.99774 0.99172 0.0
C2356 C 0.46132 0.98285 0.99162 0.0
C2357 C 0.44638 0.98169 0.99362 0.0
C2358 C 0.44015 0.99541 0.99564 0.0
C2359 C 0.44919 0.01035 0.99577 0.0
C2360 C 0.46421 0.01153 0.99392 0.0
C2361 C 0.52257 0.04233 0.01276 0.0
C2362 C 0.51093 0.01639 0.04344 0.0
C2363 C 0.56561 0.03195 0.04175 0.0
C2364 C 0.58123 0.03406 0.03888 0.0
C2365 C 0.58587 0.04135 0.02578 0.0
C2366 C 0.60098 0.04445 0.02421 0.0
C2367 C 0.61165 0.04017 0.0356 0.0
C2368 C 0.60691 0.03226 0.04826 0.0
C2369 C 0.59182 0.02931 0.04993 0.0
C2370 C 0.52879 0.98852 0.01776 0.0
C2371 C 0.54093 0.01463 0.98734 0.0
O2372 O 0.49413 0.99173 0.99934 0.0
O2373 O 0.49322 0.01201 0.98618 0.0
O2374 O 0.5227 0.0314 0.02138 0.0
O2375 O 0.51466 0.03632 0.99873 0.0
O2376 O 0.50335 0.0117 0.02833 0.0
O2377 O 0.52571 0.02102 0.04555 0.0
O2378 O 0.55677 0.03952 0.0334 0.0
O2379 O 0.55913 0.01744 0.04291 0.0
O2380 O 0.52886 0.99946 0.00917 0.0
O2381 O 0.53659 0.99435 0.0319 0.0
O2382 O 0.54834 0.02001 1.00239 0.0
O2383 O 0.52623 0.00922 0.98527 0.0
H2384 H 0.4658 0.97207 0.98986 0.0
H2385 H 0.43961 0.96999 0.99322 0.0
H2386 H 0.44465 0.0211 0.99738 0.0
H2387 H 0.47095 0.0232 0.99413 0.0
H2388 H 0.57791 0.045 0.01697 0.0
H2389 H 0.60438 0.05047 0.01427 0.0
H2390 H 0.61493 0.02899 0.0573 0.0
H2391 H 0.58848 0.02367 0.06012 0.0
Tb2392 Tb 0.26372 0.25713 0.26657 0.0
Tb2393 Tb 0.29306 0.27781 0.27148 0.0
C2394 C 0.24074 0.23823 0.27 0.0
C2395 C 0.22696 0.24159 0.27571 0.0
C2396 C 0.22754 0.24998 0.29129 0.0
C2397 C 0.21517 0.25579 0.29555 0.0
C2398 C 0.20192 0.25332 0.28435 0.0
C2399 C 0.20103 0.24405 0.26915 0.0
C2400 C 0.21345 0.23823 0.26488 0.0
C2401 C 0.27053 0.26904 0.24031 0.0
C2402 C 0.26364 0.29407 0.27298 0.0
C2403 C 0.31632 0.29743 0.27004 0.0
C2404 C 0.33135 0.29533 0.26745 0.0
C2405 C 0.33338 0.28108 0.25892 0.0
C2406 C 0.34764 0.27893 0.2566 0.0
C2407 C 0.36017 0.29097 0.26283 0.0
C2408 C 0.35811 0.30524 0.27143 0.0
C2409 C 0.34377 0.30738 0.27375 0.0
C2410 C 0.28589 0.26573 0.29753 0.0
C2411 C 0.293 0.24074 0.26429 0.0
O2412 O 0.25291 0.24178 0.2808 0.0
O2413 O 0.24303 0.2428 0.25604 0.0
O2414 O 0.27937 0.264 0.25047 0.0
O2415 O 0.25723 0.26631 0.2441 0.0
O2416 O 0.25596 0.27961 0.27348 0.0
O2417 O 0.27806 0.2958 0.2714 0.0
O2418 O 0.30573 0.29189 0.25764 0.0
O2419 O 0.31238 0.29362 0.28371 0.0
O2420 O 0.27733 0.2712 0.28749 0.0
O2421 O 0.2991 0.26761 0.29347 0.0
O2422 O 0.30094 0.25531 0.26484 0.0
O2423 O 0.27843 0.23892 0.26519 0.0
H2424 H 0.23774 0.25271 0.3 0.0
H2425 H 0.21628 0.26293 0.30733 0.0
H2426 H 0.19087 0.24167 0.26038 0.0
H2427 H 0.2127 0.23171 0.25283 0.0
H2428 H 0.32393 0.27162 0.25393 0.0
H2429 H 0.3488 0.26793 0.24965 0.0
H2430 H 0.36757 0.31468 0.27646 0.0
H2431 H 0.34238 0.31841 0.28046 0.0
Tb2432 Tb 0.52817 0.53988 0.02544 0.0
Tb2433 Tb 0.52746 0.50365 0.01619 0.0
C2434 C 0.53137 0.56943 0.02661 0.0
C2435 C 0.53536 0.58049 0.01516 0.0
C2436 C 0.54292 0.57619 1.00234 0.0
C2437 C 0.54587 0.58647 0.99097 0.0
C2438 C 0.54119 0.60118 0.99218 0.0
C2439 C 0.5336 0.60539 0.00508 0.0
C2440 C 0.53075 0.59513 0.01648 0.0
C2441 C 0.50424 0.5201 0.03029 0.0
C2442 C 0.52074 0.5237 0.98834 0.0
C2443 C 0.51832 0.47421 0.0128 0.0
C2444 C 0.52362 0.46058 0.01878 0.0
C2445 C 0.51314 0.44783 0.02172 0.0
C2446 C 0.51786 0.43521 0.02852 0.0
C2447 C 0.53319 0.43508 0.03242 0.0
C2448 C 0.54367 0.44781 0.02916 0.0
C2449 C 0.53892 0.46052 0.02248 0.0
C2450 C 0.55455 0.52069 0.01551 0.0
C2451 C 0.53973 0.52104 0.05263 0.0
O2452 O 0.54195 0.56233 0.03253 0.0
O2453 O 0.51847 0.55969 0.02212 0.0
O2454 O 0.51142 0.51859 0.01856 0.0
O2455 O 0.50997 0.53358 0.03935 0.0
O2456 O 0.52636 0.53675 0.99887 0.0
O2457 O 0.51821 0.50943 0.9929 0.0
O2458 O 0.51478 0.48424 0.02397 0.0
O2459 O 0.52587 0.48132 1.00256 0.0
O2460 O 0.54295 0.5252 0.01896 0.0
O2461 O 0.55109 0.50527 0.0124 0.0
O2462 O 0.5341 0.50752 0.0427 0.0
O2463 O 0.54007 0.53523 0.04794 0.0
H2464 H 0.5464 0.56482 1.00099 0.0
H2465 H 0.55183 0.58292 0.98129 0.0
H2466 H 0.52956 0.61646 0.0062 0.0
H2467 H 0.52471 0.59852 0.02617 0.0
H2468 H 0.50129 0.4478 0.01908 0.0
H2469 H 0.50946 0.42579 0.03113 0.0
H2470 H 0.55554 0.44801 0.03183 0.0
H2471 H 0.54719 0.47036 0.0204 0.0
Tb2472 Tb 0.78345 0.25677 0.26253 0.0
Tb2473 Tb 0.78874 0.29331 0.26968 0.0
C2474 C 0.78082 0.22847 0.24969 0.0
C2475 C 0.78987 0.21595 0.25144 0.0
C2476 C 0.79963 0.21327 0.24031 0.0
C2477 C 0.80801 0.20131 0.2415 0.0
C2478 C 0.80704 0.19183 0.25403 0.0
C2479 C 0.79746 0.19473 0.26537 0.0
C2480 C 0.78889 0.20656 0.26402 0.0
C2481 C 0.78323 0.26861 0.29289 0.0
C2482 C 0.81477 0.27612 0.27954 0.0
C2483 C 0.78807 0.32215 0.27736 0.0
C2484 C 0.77709 0.33219 0.28049 0.0
C2485 C 0.76372 0.32635 0.28604 0.0
C2486 C 0.75314 0.33605 0.28787 0.0
C2487 C 0.75572 0.35161 0.28394 0.0
C2488 C 0.7692 0.3574 0.27857 0.0
C2489 C 0.77978 0.34779 0.2769 0.0
C2490 C 0.79847 0.28122 0.24377 0.0
C2491 C 0.75589 0.27352 0.25598 0.0
O2492 O 0.78686 0.24074 0.24333 0.0
O2493 O 0.77404 0.23264 0.2619 0.0
O2494 O 0.77838 0.27394 0.28033 0.0
O2495 O 0.78746 0.25535 0.28864 0.0
O2496 O 0.80747 0.26338 0.26949 0.0
O2497 O 0.8088 0.28863 0.28359 0.0
O2498 O 0.79115 0.31274 0.28807 0.0
O2499 O 0.78665 0.31523 0.26231 0.0
O2500 O 0.78662 0.27588 0.24883 0.0
O2501 O 0.80493 0.29452 0.25261 0.0
O2502 O 0.76454 0.2874 0.26232 0.0
O2503 O 0.761 0.2601 0.25413 0.0
H2504 H 0.80075 0.2204 0.23057 0.0
H2505 H 0.81507 0.19938 0.23239 0.0
H2506 H 0.79662 0.18793 0.27539 0.0
H2507 H 0.78155 0.20835 0.27287 0.0
H2508 H 0.76135 0.31426 0.28867 0.0
H2509 H 0.7428 0.33125 0.29193 0.0
H2510 H 0.77156 0.3694 0.27564 0.0
H2511 H 0.79 0.35248 0.27254 0.0
Tb2512 Tb 0.01455 0.51515 0.50633 0.0
Tb2513 Tb 0.04296 0.51728 0.52897 0.0
C2514 C 0.98867 0.50551 0.49081 0.0
C2515 C 0.97338 0.50474 0.49423 0.0
C2516 C 0.96186 0.49338 0.48464 0.0
C2517 C 0.94731 0.49189 0.48806 0.0
C2518 C 0.94402 0.50177 0.50113 0.0
C2519 C 0.95557 0.51333 0.51062 0.0
C2520 C 0.9702 0.51475 0.50725 0.0
C2521 C 0.02889 0.5443 0.51793 0.0
C2522 C 0.01352 0.51673 0.54547 0.0
C2523 C 0.06866 0.52614 0.54532 0.0
C2524 C 0.08427 0.52668 0.54314 0.0
C2525 C 0.09537 0.52998 0.55687 0.0
C2526 C 0.11041 0.53174 0.5551 0.0
C2527 C 0.11458 0.53029 0.53952 0.0
C2528 C 0.10337 0.52645 0.52578 0.0
C2529 C 0.08831 0.52459 0.52759 0.0
C2530 C 0.02812 0.4883 0.51802 0.0
C2531 C 0.04383 0.51588 0.48969 0.0
O2532 O 0.99633 0.49637 0.49838 0.0
O2533 O 0.99652 0.51973 0.49081 0.0
O2534 O 0.02754 0.53241 0.5253 0.0
O2535 O 0.0209 0.54033 0.50359 0.0
O2536 O 0.00603 0.51343 0.53027 0.0
O2537 O 0.02841 0.52018 0.54781 0.0
O2538 O 0.06156 0.5355 0.53737 0.0
O2539 O 0.06051 0.51198 0.54472 0.0
O2540 O 0.02989 0.49986 0.5102 0.0
O2541 O 0.03588 0.49249 0.53244 0.0
O2542 O 0.05137 0.51898 0.5049 0.0
O2543 O 0.02896 0.51266 0.48737 0.0
H2544 H 0.96416 0.48556 0.47458 0.0
H2545 H 0.93858 0.483 0.48044 0.0
H2546 H 0.95334 0.521 0.52084 0.0
H2547 H 0.97902 0.52351 0.51488 0.0
H2548 H 0.09241 0.53161 0.56897 0.0
H2549 H 0.1188 0.53491 0.5659 0.0
H2550 H 0.10627 0.52516 0.51363 0.0
H2551 H 0.07986 0.52188 0.51688 0.0
Tb2552 Tb 0.76074 0.76793 0.267 0.0
Tb2553 Tb 0.79396 0.76646 0.27282 0.0
C2554 C 0.73294 0.76376 0.26761 0.0
C2555 C 0.72145 0.76524 0.27838 0.0
C2556 C 0.71957 0.75579 0.29084 0.0
C2557 C 0.70733 0.75577 0.29925 0.0
C2558 C 0.69661 0.76514 0.29538 0.0
C2559 C 0.69884 0.77498 0.28329 0.0
C2560 C 0.71105 0.77498 0.27489 0.0
C2561 C 0.77927 0.79314 0.26191 0.0
C2562 C 0.77983 0.77768 0.30311 0.0
C2563 C 0.82173 0.77002 0.27218 0.0
C2564 C 0.8331 0.76882 0.26126 0.0
C2565 C 0.83361 0.77681 0.24756 0.0
C2566 C 0.84558 0.77685 0.2387 0.0
C2567 C 0.85734 0.76901 0.2434 0.0
C2568 C 0.85646 0.76062 0.25678 0.0
C2569 C 0.84453 0.76055 0.26558 0.0
C2570 C 0.77539 0.74132 0.27805 0.0
C2571 C 0.77499 0.7571 0.23678 0.0
O2572 O 0.74096 0.7528 0.26953 0.0
O2573 O 0.74077 0.77685 0.26428 0.0
O2574 O 0.78128 0.78477 0.27301 0.0
O2575 O 0.76596 0.78813 0.25367 0.0
O2576 O 0.76655 0.77324 0.29374 0.0
O2577 O 0.79247 0.7776 0.29713 0.0
O2578 O 0.81413 0.78145 0.27117 0.0
O2579 O 0.8135 0.75677 0.2746 0.0
O2580 O 0.77342 0.74959 0.26684 0.0
O2581 O 0.7887 0.74639 0.28626 0.0
O2582 O 0.78824 0.76217 0.24604 0.0
O2583 O 0.76236 0.75641 0.24289 0.0
H2584 H 0.72728 0.74801 0.29377 0.0
H2585 H 0.70597 0.74794 0.30836 0.0
H2586 H 0.69102 0.78258 0.28013 0.0
H2587 H 0.71211 0.7823 0.26529 0.0
H2588 H 0.82499 0.78336 0.24394 0.0
H2589 H 0.84589 0.7835 0.22852 0.0
H2590 H 0.86511 0.75419 0.2606 0.0
H2591 H 0.84445 0.75433 0.27608 0.0
Tb2592 Tb 0.77985 0.26081 0.74736 0.0
Tb2593 Tb 0.77817 0.27161 0.78478 0.0
C2594 C 0.77465 0.25443 0.71706 0.0
C2595 C 0.7837 0.25667 0.70407 0.0
C2596 C 0.79584 0.26945 0.70599 0.0
C2597 C 0.80386 0.27195 0.6932 0.0
C2598 C 0.79997 0.26163 0.67836 0.0
C2599 C 0.78829 0.24836 0.67685 0.0
C2600 C 0.78019 0.24594 0.68961 0.0
C2601 C 0.80546 0.26092 0.76694 0.0
C2602 C 0.79274 0.29733 0.76327 0.0
C2603 C 0.78314 0.27709 0.81512 0.0
C2604 C 0.77367 0.27337 0.82739 0.0
C2605 C 0.77956 0.27734 0.8439 0.0
C2606 C 0.77097 0.27247 0.8556 0.0
C2607 C 0.75635 0.26354 0.85092 0.0
C2608 C 0.7503 0.26015 0.83431 0.0
C2609 C 0.75892 0.26501 0.82263 0.0
C2610 C 0.75255 0.27152 0.76524 0.0
C2611 C 0.76517 0.23517 0.76895 0.0
O2612 O 0.77214 0.26748 0.72509 0.0
O2613 O 0.77819 0.24418 0.72657 0.0
O2614 O 0.79345 0.26445 0.77027 0.0
O2615 O 0.80326 0.25695 0.75127 0.0
O2616 O 0.78778 0.28693 0.74969 0.0
O2617 O 0.79149 0.29323 0.778 0.0
O2618 O 0.78636 0.26465 0.80673 0.0
O2619 O 0.77922 0.28748 0.80598 0.0
O2620 O 0.76452 0.26793 0.76185 0.0
O2621 O 0.7548 0.27548 0.7809 0.0
O2622 O 0.77023 0.24555 0.78249 0.0
O2623 O 0.76635 0.23929 0.75421 0.0
H2624 H 0.79885 0.27774 0.71719 0.0
H2625 H 0.81263 0.28241 0.6947 0.0
H2626 H 0.78515 0.2401 0.66564 0.0
H2627 H 0.771 0.23588 0.68806 0.0
H2628 H 0.79096 0.28373 0.84772 0.0
H2629 H 0.77608 0.27502 0.86826 0.0
H2630 H 0.73907 0.25337 0.83033 0.0
H2631 H 0.75423 0.26185 0.80986 0.0
Tb2632 Tb 0.76453 0.75634 0.76267 0.0
Tb2633 Tb 0.79289 0.77743 0.77602 0.0
C2634 C 0.73793 0.74172 0.75909 0.0
C2635 C 0.72386 0.747 0.76102 0.0
C2636 C 0.72356 0.75938 0.77337 0.0
C2637 C 0.71023 0.76433 0.77532 0.0
C2638 C 0.69692 0.75701 0.76498 0.0
C2639 C 0.69724 0.74482 0.7524 0.0
C2640 C 0.71065 0.73982 0.75047 0.0
C2641 C 0.77915 0.76809 0.74032 0.0
C2642 C 0.76501 0.79446 0.77328 0.0
C2643 C 0.81984 0.79072 0.7799 0.0
C2644 C 0.83317 0.78369 0.7782 0.0
C2645 C 0.8341 0.77431 0.76361 0.0
C2646 C 0.846 0.76646 0.76248 0.0
C2647 C 0.85722 0.76767 0.77593 0.0
C2648 C 0.85643 0.77725 0.79047 0.0
C2649 C 0.84449 0.78519 0.79158 0.0
C2650 C 0.77832 0.76548 0.7984 0.0
C2651 C 0.79249 0.73956 0.76493 0.0
O2652 O 0.74745 0.74323 0.77249 0.0
O2653 O 0.74438 0.74642 0.74703 0.0
O2654 O 0.77797 0.77531 0.75394 0.0
O2655 O 0.77152 0.75368 0.73866 0.0
O2656 O 0.75714 0.77955 0.7698 0.0
O2657 O 0.77987 0.79676 0.77535 0.0
O2658 O 0.81051 0.79007 0.7665 0.0
O2659 O 0.81292 0.78693 0.79197 0.0
O2660 O 0.77953 0.75837 0.78474 0.0
O2661 O 0.7859 0.77991 0.80004 0.0
O2662 O 0.80029 0.75447 0.76802 0.0
O2663 O 0.77769 0.73717 0.76347 0.0
H2664 H 0.73361 0.7652 0.78162 0.0
H2665 H 0.71036 0.77397 0.78491 0.0
H2666 H 0.68711 0.73899 0.7443 0.0
H2667 H 0.71071 0.73031 0.74082 0.0
H2668 H 0.82553 0.77279 0.75306 0.0
H2669 H 0.84644 0.7595 0.75098 0.0
H2670 H 0.86488 0.77839 0.80105 0.0
H2671 H 0.84394 0.79224 0.80299 0.0
Tb2672 Tb 0.511 0.50831 0.51146 0.0
Tb2673 Tb 0.54156 0.52459 0.52696 0.0
C2674 C 0.48306 0.50082 0.50424 0.0
C2675 C 0.47145 0.50809 0.49607 0.0
C2676 C 0.45669 0.50379 0.49873 0.0
C2677 C 0.44582 0.51188 0.49253 0.0
C2678 C 0.44961 0.52452 0.48371 0.0
C2679 C 0.46436 0.52839 0.48057 0.0
C2680 C 0.47518 0.52019 0.48667 0.0
C2681 C 0.53146 0.50683 0.49242 0.0
C2682 C 0.52195 0.54614 0.51068 0.0
C2683 C 0.56936 0.53057 0.53486 0.0
C2684 C 0.57984 0.51949 0.53612 0.0
C2685 C 0.57996 0.50783 0.52294 0.0
C2686 C 0.5883 0.49597 0.5249 0.0
C2687 C 0.59662 0.49544 0.54007 0.0
C2688 C 0.5969 0.50741 0.55309 0.0
C2689 C 0.58858 0.51934 0.55112 0.0
C2690 C 0.5209 0.52566 0.54586 0.0
C2691 C 0.53116 0.48698 0.52681 0.0
O2692 O 0.48997 0.50874 0.51827 0.0
O2693 O 0.49227 0.49569 0.49518 0.0
O2694 O 0.53057 0.51855 0.50248 0.0
O2695 O 0.51998 0.49559 0.49206 0.0
O2696 O 0.51094 0.53342 0.50784 0.0
O2697 O 0.53554 0.54545 0.51764 0.0
O2698 O 0.56265 0.53112 0.5202 0.0
O2699 O 0.56014 0.53009 0.54551 0.0
O2700 O 0.5221 0.51404 0.53587 0.0
O2701 O 0.53209 0.53722 0.54607 0.0
O2702 O 0.54235 0.49901 0.52681 0.0
O2703 O 0.51717 0.48862 0.52303 0.0
H2704 H 0.45364 0.49445 0.50596 0.0
H2705 H 0.43451 0.50845 0.49494 0.0
H2706 H 0.4677 0.53818 0.47401 0.0
H2707 H 0.48654 0.52356 0.48444 0.0
H2708 H 0.57329 0.50754 0.51121 0.0
H2709 H 0.58811 0.48711 0.51453 0.0
H2710 H 0.60316 0.50728 0.56495 0.0
H2711 H 0.58856 0.52813 0.56148 0.0
Tb2712 Tb 0.04509 0.5187 0.01369 0.0
Tb2713 Tb 0.01273 0.51495 0.02107 0.0
C2714 C 0.07306 0.5206 0.01663 0.0
C2715 C 0.08506 0.51121 0.01945 0.0
C2716 C 0.08747 0.50378 0.03339 0.0
C2717 C 0.09936 0.49556 0.03565 0.0
C2718 C 0.10915 0.49466 0.0241 0.0
C2719 C 0.10665 0.50217 0.01023 0.0
C2720 C 0.09481 0.51029 0.00796 0.0
C2721 C 0.0262 0.52296 0.98731 0.0
C2722 C 0.02516 0.484 0.00814 0.0
C2723 C 0.98463 0.51069 0.01942 0.0
C2724 C 0.97259 0.52014 0.01918 0.0
C2725 C 0.97332 0.53403 0.01181 0.0
C2726 C 0.96126 0.54206 0.01079 0.0
C2727 C 0.94818 0.53642 0.01713 0.0
C2728 C 0.94773 0.52271 0.02485 0.0
C2729 C 0.95974 0.51469 0.02581 0.0
C2730 C 0.03396 0.51648 0.04691 0.0
C2731 C 0.0319 0.5493 0.02485 0.0
O2732 O 0.06613 0.52478 0.0287 0.0
O2733 O 0.06399 0.51646 1.00279 0.0
O2734 O 0.0237 0.52038 1.00135 0.0
O2735 O 0.04044 0.52348 0.98807 0.0
O2736 O 0.03857 0.49289 0.00879 0.0
O2737 O 0.01362 0.49007 0.01226 0.0
O2738 O 0.99153 0.51004 0.00673 0.0
O2739 O 0.99386 0.51222 0.03304 0.0
O2740 O 0.03354 0.50947 0.03254 0.0
O2741 O 0.02186 0.52229 0.04699 0.0
O2742 O 0.01826 0.54052 0.02126 0.0
O2743 O 0.04403 0.54293 0.02452 0.0
H2744 H 0.08025 0.50436 0.04256 0.0
H2745 H 0.10081 0.48981 0.04641 0.0
H2746 H 0.11405 0.50208 1.0012 0.0
H2747 H 0.09337 0.51607 0.99721 0.0
H2748 H 0.98311 0.53854 0.00661 0.0
H2749 H 0.96206 0.55247 0.00465 0.0
H2750 H 0.93806 0.51813 0.0302 0.0
H2751 H 0.95892 0.50404 0.0316 0.0
H2752 H 0.98413 0.16266 0.93781 0.0
H2753 H 0.98524 0.13805 0.94928 0.0
H2754 H 0.03147 0.15608 0.96968 0.0
H2755 H 0.03072 0.18028 0.95752 0.0
H2756 H 0.02869 0.1265 0.9578 0.0
H2757 H 1.00091 0.1546 0.99232 0.0
H2758 H 0.98039 0.16798 0.9988 0.0
H2759 H 0.94844 0.12516 0.9797 0.0
H2760 H 0.96873 0.11161 0.9727 0.0
H2761 H 0.03992 0.07429 0.01494 0.0
H2762 H 0.03634 0.09779 1.00244 0.0
H2763 H 0.99125 0.07475 0.9817 0.0
H2764 H 0.9947 0.05119 0.99435 0.0
H2765 H 0.99216 0.10554 0.99232 0.0
H2766 H 0.01953 0.0771 0.95866 0.0
H2767 H 0.03984 0.06319 0.95263 0.0
H2768 H 0.07217 0.10613 0.97006 0.0
H2769 H 0.05207 0.12024 0.97645 0.0
C2770 C 0.99461 0.16139 0.94458 0.0
C2771 C 0.00731 0.17371 0.94673 0.0
C2772 C 0.99517 0.1473 0.95135 0.0
C2773 C 0.00838 0.14515 0.96065 0.0
C2774 C 0.02109 0.15734 0.96266 0.0
C2775 C 0.02058 0.17136 0.95581 0.0
C2776 C 0.00914 0.13025 0.96816 0.0
C2777 C 0.02078 0.12209 0.96551 0.0
C2778 C 0.99858 0.12399 0.97783 0.0
C2779 C 0.98634 0.13216 0.98181 0.0
C2780 C 0.9895 0.14809 0.98932 0.0
C2781 C 0.9779 0.1557 0.99309 0.0
C2782 C 0.96311 0.14744 0.98957 0.0
C2783 C 0.95989 0.13155 0.9823 0.0
C2784 C 0.97143 0.12391 0.97842 0.0
C2785 C 0.02918 0.0742 0.00783 0.0
C2786 C 0.01762 0.06071 0.00567 0.0
C2787 C 0.02717 0.08768 1.00058 0.0
C2788 C 0.0136 0.08804 0.99082 0.0
C2789 C 1.00186 0.07482 0.98909 0.0
C2790 C 1.00385 0.06131 0.99637 0.0
C2791 C 0.01186 0.10208 0.98221 0.0
C2792 C 1.00003 0.10999 0.98458 0.0
C2793 C 0.02219 0.10808 0.97222 0.0
C2794 C 0.0343 0.0997 0.96817 0.0
C2795 C 0.03098 0.08356 0.96131 0.0
C2796 C 0.04245 0.07563 0.95781 0.0
C2797 C 0.05729 0.08376 0.96099 0.0
C2798 C 0.06068 0.09984 0.96762 0.0
C2799 C 0.04925 0.10782 0.97117 0.0
H2800 H 0.06616 0.0776 0.95829 0.0
H2801 H 0.95416 0.15334 0.99254 0.0
H2802 H 0.11705 0.78325 0.20747 0.0
H2803 H 0.1413 0.78084 0.22174 0.0
H2804 H 0.1582 0.77637 0.17617 0.0
H2805 H 0.13381 0.77828 0.16172 0.0
H2806 H 0.1673 0.75533 0.19477 0.0
H2807 H 0.16743 0.81139 0.20276 0.0
H2808 H 0.15761 0.83549 0.21077 0.0
H2809 H 0.15919 0.82481 0.25968 0.0
H2810 H 0.16884 0.80052 0.2519 0.0
H2811 H 0.24399 0.76627 0.23246 0.0
H2812 H 0.22049 0.76813 0.21581 0.0
H2813 H 0.20134 0.77742 0.25944 0.0
H2814 H 0.22491 0.77628 0.27594 0.0
H2815 H 0.19396 0.79663 0.24037 0.0
H2816 H 0.19277 0.74017 0.23257 0.0
H2817 H 0.20242 0.71587 0.2249 0.0
H2818 H 0.20255 0.72683 0.17623 0.0
H2819 H 0.19309 0.75133 0.18369 0.0
C2820 C 0.12586 0.78163 0.20042 0.0
C2821 C 0.12338 0.78105 0.18339 0.0
C2822 C 0.13981 0.78039 0.20865 0.0
C2823 C 0.15173 0.77861 0.2001 0.0
C2824 C 0.14926 0.7778 0.18309 0.0
C2825 C 0.1353 0.77906 0.17485 0.0
C2826 C 0.16675 0.77767 0.20893 0.0
C2827 C 0.17322 0.76448 0.2046 0.0
C2828 C 0.17445 0.78941 0.22198 0.0
C2829 C 0.16874 0.80407 0.2267 0.0
C2830 C 0.16559 0.81412 0.21519 0.0
C2831 C 0.16006 0.82783 0.2197 0.0
C2832 C 0.15774 0.83166 0.23572 0.0
C2833 C 0.16098 0.82182 0.24727 0.0
C2834 C 0.16649 0.80809 0.24282 0.0
C2835 C 0.23478 0.76872 0.23845 0.0
C2836 C 0.23638 0.77123 0.25551 0.0
C2837 C 0.22125 0.76967 0.22892 0.0
C2838 C 0.20894 0.77281 0.23629 0.0
C2839 C 0.21057 0.77507 0.25336 0.0
C2840 C 0.22409 0.77434 0.26282 0.0
C2841 C 0.19445 0.77413 0.22645 0.0
C2842 C 0.18808 0.78746 0.23054 0.0
C2843 C 0.18682 0.76245 0.21327 0.0
C2844 C 0.19237 0.74766 0.20873 0.0
C2845 C 0.19494 0.73745 0.22026 0.0
C2846 C 0.20037 0.72363 0.21595 0.0
C2847 C 0.20313 0.71983 0.2001 0.0
C2848 C 0.20042 0.72981 0.18851 0.0
C2849 C 0.19502 0.74365 0.19277 0.0
H2850 H 0.20733 0.70913 0.19678 0.0
H2851 H 0.15346 0.84227 0.23918 0.0
H2852 H 0.48883 0.83134 0.4574 0.0
H2853 H 0.49025 0.85902 0.46907 0.0
H2854 H 0.5373 0.86926 0.46599 0.0
H2855 H 0.53598 0.84153 0.45455 0.0
H2856 H 0.53294 0.88405 0.49347 0.0
H2857 H 0.50975 0.8796 0.43788 0.0
H2858 H 0.49102 0.86836 0.41358 0.0
H2859 H 0.45608 0.88011 0.43924 0.0
H2860 H 0.47459 0.89124 0.46377 0.0
H2861 H 0.54458 0.96776 0.49863 0.0
H2862 H 0.54162 0.93936 0.48968 0.0
H2863 H 0.49548 0.93245 0.49669 0.0
H2864 H 0.49828 0.96112 0.50549 0.0
H2865 H 0.49838 0.91571 0.46841 0.0
H2866 H 0.52242 0.92168 0.52372 0.0
H2867 H 0.54168 0.9335 0.5474 0.0
H2868 H 0.57565 0.91938 0.52158 0.0
H2869 H 0.55661 0.90766 0.49766 0.0
C2870 C 0.49949 0.83949 0.45918 0.0
C2871 C 0.51228 0.83417 0.45492 0.0
C2872 C 0.50028 0.85536 0.46584 0.0
C2873 C 0.51383 0.86643 0.46819 0.0
C2874 C 0.52669 0.86105 0.46433 0.0
C2875 C 0.52593 0.84513 0.4578 0.0
C2876 C 0.51461 0.8836 0.47447 0.0
C2877 C 0.52547 0.89098 0.48785 0.0
C2878 C 0.50467 0.8927 0.46746 0.0
C2879 C 0.49354 0.88609 0.45271 0.0
C2880 C 0.49806 0.87968 0.43837 0.0
C2881 C 0.48748 0.87335 0.42456 0.0
C2882 C 0.47236 0.87348 0.42488 0.0
C2883 C 0.46779 0.87999 0.43901 0.0
C2884 C 0.47832 0.88632 0.45287 0.0
C2885 C 0.53377 0.96027 0.49836 0.0
C2886 C 0.52168 0.96685 0.5029 0.0
C2887 C 0.53213 0.94393 0.49327 0.0
C2888 C 0.51839 0.93362 0.49271 0.0
C2889 C 0.50622 0.94012 0.49707 0.0
C2890 C 0.50785 0.95653 0.50216 0.0
C2891 C 0.51678 0.91615 0.48731 0.0
C2892 C 0.50577 0.90873 0.47409 0.0
C2893 C 0.52665 0.90704 0.49439 0.0
C2894 C 0.5381 0.91389 0.50885 0.0
C2895 C 0.53401 0.92117 0.52306 0.0
C2896 C 0.54488 0.92785 0.53653 0.0
C2897 C 0.55988 0.92722 0.53598 0.0
C2898 C 0.56403 0.91986 0.52198 0.0
C2899 C 0.5532 0.91318 0.50847 0.0
H2900 H 0.56828 0.9324 0.54642 0.0
H2901 H 0.46419 0.86857 0.41417 0.0
H2902 H 0.48098 0.25603 0.68405 0.0
H2903 H 0.4583 0.25399 0.69638 0.0
H2904 H 0.45101 0.2984 0.68112 0.0
H2905 H 0.47424 0.30113 0.66976 0.0
H2906 H 0.44394 0.29792 0.7096 0.0
H2907 H 0.43108 0.26011 0.66102 0.0
H2908 H 0.43356 0.23738 0.64147 0.0
H2909 H 0.42843 0.20654 0.67785 0.0
H2910 H 0.4261 0.22914 0.69769 0.0
H2911 H 0.36784 0.28788 0.7221 0.0
H2912 H 0.38999 0.28981 0.70855 0.0
H2913 H 0.40154 0.24934 0.72932 0.0
H2914 H 0.37931 0.24719 0.74268 0.0
H2915 H 0.4059 0.24797 0.69748 0.0
H2916 H 0.41879 0.28681 0.74596 0.0
H2917 H 0.41522 0.30978 0.76448 0.0
H2918 H 0.41924 0.3391 0.72666 0.0
H2919 H 0.4226 0.31623 0.70783 0.0
C2920 C 0.47475 0.26555 0.6835 0.0
C2921 C 0.47959 0.27873 0.67573 0.0
C2922 C 0.46156 0.26422 0.69038 0.0
C2923 C 0.45261 0.27585 0.68943 0.0
C2924 C 0.45755 0.28916 0.68196 0.0
C2925 C 0.47083 0.2906 0.67526 0.0
C2926 C 0.43821 0.2742 0.69624 0.0
C2927 C 0.43556 0.28705 0.70672 0.0
C2928 C 0.42722 0.25997 0.69279 0.0
C2929 C 0.42856 0.24635 0.68088 0.0
C2930 C 0.43058 0.2485 0.66488 0.0
C2931 C 0.43195 0.23564 0.65375 0.0
C2932 C 0.43119 0.22053 0.65843 0.0
C2933 C 0.42903 0.21825 0.67425 0.0
C2934 C 0.42767 0.23108 0.68544 0.0
C2935 C 0.37496 0.27923 0.72359 0.0
C2936 C 0.37179 0.26741 0.73357 0.0
C2937 C 0.38772 0.28044 0.71594 0.0
C2938 C 0.39761 0.26985 0.71805 0.0
C2939 C 0.39417 0.2577 0.72753 0.0
C2940 C 0.38148 0.25655 0.73526 0.0
C2941 C 0.41172 0.27165 0.71079 0.0
C2942 C 0.41429 0.25883 0.70027 0.0
C2943 C 0.42256 0.28595 0.71405 0.0
C2944 C 0.42081 0.29977 0.72544 0.0
C2945 C 0.41882 0.29813 0.74156 0.0
C2946 C 0.41684 0.31114 0.75212 0.0
C2947 C 0.41696 0.32588 0.74674 0.0
C2948 C 0.41912 0.32767 0.7308 0.0
C2949 C 0.42108 0.31469 0.72019 0.0
H2950 H 0.41542 0.33593 0.75492 0.0
H2951 H 0.43225 0.21059 0.64979 0.0
H2952 H 0.01525 0.80474 0.60118 0.0
H2953 H 0.01831 0.82758 0.58635 0.0
H2954 H 0.04365 0.8571 0.62974 0.0
H2955 H 0.04002 0.83434 0.64475 0.0
H2956 H 0.02691 0.87348 0.61498 0.0
H2957 H 0.06074 0.84169 0.59808 0.0
H2958 H 0.06926 0.81739 0.58783 0.0
H2959 H 0.0398 0.81319 0.54266 0.0
H2960 H 0.03092 0.83734 0.55273 0.0
H2961 H 0.05304 0.93404 0.56854 0.0
H2962 H 0.05429 0.91237 0.58478 0.0
H2963 H 0.01994 0.88139 0.54953 0.0
H2964 H 0.01818 0.90303 0.53353 0.0
H2965 H 0.04444 0.86707 0.56148 0.0
H2966 H 0.00983 0.89905 0.58139 0.0
H2967 H 1.00365 0.92447 0.59241 0.0
H2968 H 0.03838 0.92948 0.63334 0.0
H2969 H 0.04489 0.90418 0.62243 0.0
C2970 C 0.02133 0.81616 0.60754 0.0
C2971 C 0.02743 0.81785 0.62404 0.0
C2972 C 0.02319 0.82917 0.59906 0.0
C2973 C 0.03156 0.84397 0.60682 0.0
C2974 C 0.03723 0.84578 0.62347 0.0
C2975 C 0.03513 0.83282 0.63205 0.0
C2976 C 0.03439 0.85749 0.59747 0.0
C2977 C 0.03099 0.87212 0.60343 0.0
C2978 C 0.03975 0.85579 0.58238 0.0
C2979 C 0.04507 0.84126 0.57622 0.0
C2980 C 0.05599 0.83552 0.58601 0.0
C2981 C 0.0609 0.82178 0.58022 0.0
C2982 C 0.05505 0.81373 0.56461 0.0
C2983 C 0.04431 0.81943 0.55475 0.0
C2984 C 0.03934 0.83315 0.56049 0.0
C2985 C 0.04575 0.92262 0.56422 0.0
C2986 C 0.03541 0.92033 0.54978 0.0
C2987 C 0.04656 0.91025 0.57347 0.0
C2988 C 0.03712 0.89538 0.56837 0.0
C2989 C 0.02735 0.8928 0.5536 0.0
C2990 C 0.02642 0.90518 0.54443 0.0
C2991 C 0.03664 0.88276 0.57888 0.0
C2992 C 0.04052 0.86837 0.57314 0.0
C2993 C 0.03207 0.88478 0.59432 0.0
C2994 C 0.02794 0.89981 0.60102 0.0
C2995 C 0.0162 0.90562 0.59269 0.0
C2996 C 0.01264 0.92 0.59892 0.0
C2997 C 0.02065 0.92861 0.61354 0.0
C2998 C 0.0322 0.92282 0.622 0.0
C2999 C 0.03583 0.90845 0.61581 0.0
H3000 H 0.01788 0.93975 0.61834 0.0
H3001 H 0.05886 0.80309 0.56016 0.0
H3002 H 0.44734 0.79986 0.82458 0.0
H3003 H 0.42043 0.79773 0.81689 0.0
H3004 H 0.41337 0.74765 0.82085 0.0
H3005 H 0.44031 0.74969 0.82859 0.0
H3006 H 0.39583 0.75384 0.79434 0.0
H3007 H 0.40768 0.77324 0.85138 0.0
H3008 H 0.42155 0.79103 0.87587 0.0
H3009 H 0.40703 0.83102 0.85728 0.0
H3010 H 0.39326 0.8135 0.83255 0.0
H3011 H 0.31831 0.74679 0.78971 0.0
H3012 H 0.34395 0.7463 0.80145 0.0
H3013 H 0.35567 0.79722 0.80302 0.0
H3014 H 0.3298 0.79783 0.79207 0.0
H3015 H 0.37059 0.78871 0.82816 0.0
H3016 H 0.3604 0.76963 0.7702 0.0
H3017 H 0.34635 0.75189 0.74576 0.0
H3018 H 0.3577 0.71129 0.76602 0.0
H3019 H 0.37167 0.72879 0.79067 0.0
C3020 C 0.44005 0.78839 0.82377 0.0
C3021 C 0.44589 0.77497 0.82732 0.0
C3022 C 0.42471 0.78719 0.81938 0.0
C3023 C 0.41493 0.77259 0.81861 0.0
C3024 C 0.42076 0.75902 0.82144 0.0
C3025 C 0.43613 0.7602 0.8258 0.0
C3026 C 0.3986 0.77167 0.81536 0.0
C3027 C 0.39025 0.76129 0.80185 0.0
C3028 C 0.39142 0.78152 0.82509 0.0
C3029 C 0.39954 0.79207 0.84005 0.0
C3030 C 0.40753 0.78584 0.85247 0.0
C3031 C 0.41536 0.79588 0.8664 0.0
C3032 C 0.4152 0.81215 0.86812 0.0
C3033 C 0.40716 0.81842 0.85593 0.0
C3034 C 0.39933 0.80844 0.84196 0.0
C3035 C 0.32631 0.7579 0.7929 0.0
C3036 C 0.3222 0.77233 0.78989 0.0
C3037 C 0.34096 0.7576 0.7995 0.0
C3038 C 0.35182 0.77165 0.80263 0.0
C3039 C 0.34748 0.78622 0.80058 0.0
C3040 C 0.33273 0.78657 0.79435 0.0
C3041 C 0.36783 0.77112 0.80694 0.0
C3042 C 0.37613 0.78119 0.82069 0.0
C3043 C 0.37498 0.761 0.79739 0.0
C3044 C 0.36697 0.75051 0.78234 0.0
C3045 C 0.35986 0.75692 0.76946 0.0
C3046 C 0.35189 0.7469 0.75557 0.0
C3047 C 0.35107 0.73047 0.75435 0.0
C3048 C 0.3583 0.72402 0.76698 0.0
C3049 C 0.36627 0.73398 0.78091 0.0
H3050 H 0.34487 0.72275 0.7436 0.0
H3051 H 0.42127 0.8199 0.87891 0.0
H3052 H 0.5497 0.18543 0.08854 0.0
H3053 H 0.54735 0.16077 0.06991 0.0
H3054 H 0.50985 0.13928 0.09101 0.0
H3055 H 0.51237 0.16377 0.10997 0.0
H3056 H 0.53003 0.1201 0.08831 0.0
H3057 H 0.50453 0.15101 0.05393 0.0
H3058 H 0.50178 0.17447 0.04044 0.0
H3059 H 0.53895 0.16852 0.01585 0.0
H3060 H 0.54205 0.14514 0.02937 0.0
H3061 H 0.50416 0.05089 0.033 0.0
H3062 H 0.50527 0.07727 0.04795 0.0
H3063 H 0.54235 0.09631 0.02476 0.0
H3064 H 0.54089 0.06979 0.00932 0.0
H3065 H 0.52332 0.11706 0.02819 0.0
H3066 H 0.54819 0.08544 0.06164 0.0
H3067 H 0.55054 0.06157 0.07455 0.0
H3068 H 0.51517 0.0691 0.10142 0.0
H3069 H 0.51214 0.09265 0.08816 0.0
C3070 C 0.54097 0.17543 0.08923 0.0
C3071 C 0.53123 0.17651 0.10073 0.0
C3072 C 0.53956 0.16141 0.07848 0.0
C3073 C 0.52836 0.14826 0.07901 0.0
C3074 C 0.51855 0.14933 0.09039 0.0
C3075 C 0.51993 0.16336 0.10112 0.0
C3076 C 0.52718 0.13316 0.0681 0.0
C3077 C 0.52836 0.11938 0.07516 0.0
C3078 C 0.52548 0.13238 0.05097 0.0
C3079 C 0.52361 0.14642 0.0428 0.0
C3080 C 0.5122 0.15478 0.04576 0.0
C3081 C 0.51056 0.16805 0.03808 0.0
C3082 C 0.52021 0.17301 0.02733 0.0
C3083 C 0.5315 0.16468 0.0242 0.0
C3084 C 0.53319 0.15141 0.03185 0.0
C3085 C 0.51239 0.0608 0.03095 0.0
C3086 C 0.5225 0.0585 0.02018 0.0
C3087 C 0.51305 0.0758 0.03949 0.0
C3088 C 0.52408 0.08865 0.03769 0.0
C3089 C 0.53379 0.08651 0.02635 0.0
C3090 C 0.53299 0.07145 0.01759 0.0
C3091 C 0.52596 0.10399 0.0484 0.0
C3092 C 0.525 0.1178 0.04134 0.0
C3093 C 0.52792 0.10482 0.06556 0.0
C3094 C 0.52985 0.09076 0.07377 0.0
C3095 C 0.54079 0.08192 0.07016 0.0
C3096 C 0.5422 0.06841 0.07751 0.0
C3097 C 0.53292 0.06376 0.0887 0.0
C3098 C 0.52223 0.07263 0.09261 0.0
C3099 C 0.52065 0.08606 0.08517 0.0
H3100 H 0.53406 0.05332 0.09441 0.0
H3101 H 0.51893 0.18329 0.0214 0.0
H3102 H 0.10726 0.30676 0.35407 0.0
H3103 H 0.12975 0.3044 0.34244 0.0
H3104 H 0.10731 0.30943 0.29526 0.0
H3105 H 0.08451 0.31134 0.30689 0.0
H3106 H 0.11772 0.28415 0.29261 0.0
H3107 H 0.13974 0.33679 0.31558 0.0
H3108 H 0.14757 0.36097 0.33584 0.0
H3109 H 0.17445 0.33655 0.36613 0.0
H3110 H 0.16664 0.31214 0.34618 0.0
H3111 H 0.18473 0.26796 0.26407 0.0
H3112 H 0.16521 0.28242 0.27076 0.0
H3113 H 0.17213 0.27204 0.31999 0.0
H3114 H 0.19136 0.25718 0.31332 0.0
H3115 H 0.17066 0.30464 0.3172 0.0
H3116 H 0.14374 0.25075 0.29467 0.0
H3117 H 0.13643 0.22765 0.27298 0.0
H3118 H 0.11921 0.25701 0.24002 0.0
H3119 H 0.1266 0.28033 0.26149 0.0
C3120 C 0.10727 0.30793 0.34134 0.0
C3121 C 0.09413 0.30914 0.33135 0.0
C3122 C 0.12019 0.30664 0.33468 0.0
C3123 C 0.1203 0.30681 0.31795 0.0
C3124 C 0.10749 0.30922 0.30819 0.0
C3125 C 0.09448 0.31031 0.31481 0.0
C3126 C 0.1328 0.30185 0.31043 0.0
C3127 C 0.1293 0.28899 0.29773 0.0
C3128 C 0.14796 0.30799 0.31715 0.0
C3129 C 0.15251 0.32257 0.32939 0.0
C3130 C 0.1472 0.33651 0.32663 0.0
C3131 C 0.15166 0.35028 0.33805 0.0
C3132 C 0.16147 0.35029 0.35228 0.0
C3133 C 0.16685 0.33653 0.35511 0.0
C3134 C 0.16243 0.32272 0.34373 0.0
C3135 C 0.18193 0.26852 0.27625 0.0
C3136 C 0.18954 0.26134 0.28815 0.0
C3137 C 0.1709 0.27693 0.28007 0.0
C3138 C 0.16733 0.27832 0.29586 0.0
C3139 C 0.17487 0.27121 0.30777 0.0
C3140 C 0.18583 0.26271 0.30394 0.0
C3141 C 0.15537 0.28676 0.29996 0.0
C3142 C 0.15904 0.3002 0.31194 0.0
C3143 C 0.14039 0.28136 0.29243 0.0
C3144 C 0.13587 0.26731 0.27961 0.0
C3145 C 0.1385 0.2523 0.28276 0.0
C3146 C 0.13432 0.23916 0.27052 0.0
C3147 C 0.1274 0.24087 0.25512 0.0
C3148 C 0.1246 0.25571 0.25195 0.0
C3149 C 0.12877 0.26888 0.26414 0.0
H3150 H 0.12418 0.23069 0.24565 0.0
H3151 H 0.16493 0.36097 0.36109 0.0
H3152 H 0.97681 0.02843 0.18737 0.0
H3153 H 0.98647 0.03117 0.16187 0.0
H3154 H 0.95476 0.98938 0.13815 0.0
H3155 H 0.9446 0.98682 0.16347 0.0
H3156 H 0.98414 0.9904 0.1304 0.0
H3157 H 0.94738 0.02374 0.13162 0.0
H3158 H 0.93551 0.04477 0.14379 0.0
H3159 H 0.97594 0.07912 0.14649 0.0
H3160 H 0.98813 0.05823 0.13455 0.0
H3161 H 0.99646 1.00129 0.05048 0.0
H3162 H 0.98398 0.99752 0.07417 0.0
H3163 H 0.00823 0.04342 0.0985 0.0
H3164 H 0.02019 0.04751 0.07455 0.0
H3165 H 0.98147 0.03945 0.1055 0.0
H3166 H 0.01888 0.00701 0.10567 0.0
H3167 H 0.03167 0.98656 0.09395 0.0
H3168 H 0.99169 0.9512 0.0896 0.0
H3169 H 0.97859 0.97149 0.10107 0.0
C3170 C 0.97174 0.01987 0.17674 0.0
C3171 C 0.95977 0.00748 0.17757 0.0
C3172 C 0.97738 0.02141 0.16216 0.0
C3173 C 0.97126 0.01056 0.14805 0.0
C3174 C 0.95967 0.99788 0.1489 0.0
C3175 C 0.95392 0.9964 0.16345 0.0
C3176 C 0.97673 0.01277 0.13236 0.0
C3177 C 0.98338 1.00101 0.12481 0.0
C3178 C 0.97605 0.02678 0.12526 0.0
C3179 C 0.96871 0.03939 0.13233 0.0
C3180 C 0.95378 0.03575 0.13493 0.0
C3181 C 0.94698 0.04765 0.14176 0.0
C3182 C 0.95497 0.06327 0.14595 0.0
C3183 C 0.96977 0.06702 0.14326 0.0
C3184 C 0.97662 0.05515 0.13645 0.0
C3185 C 0.99892 0.01069 0.06077 0.0
C3186 C 0.00934 0.02467 0.06067 0.0
C3187 C 0.9919 0.00845 0.0744 0.0
C3188 C 0.9954 0.02001 0.08836 0.0
C3189 C 0.00536 0.03427 0.08797 0.0
C3190 C 0.01222 0.0366 0.07426 0.0
C3191 C 0.98905 0.01715 0.10351 0.0
C3192 C 0.98223 0.02879 0.111 0.0
C3193 C 0.98976 1.00311 0.11065 0.0
C3194 C 0.99771 0.99081 0.10408 0.0
C3195 C 0.01279 0.99489 0.10214 0.0
C3196 C 0.0201 0.98333 0.09554 0.0
C3197 C 0.01249 0.9676 0.09099 0.0
C3198 C 0.99757 0.96339 0.0931 0.0
C3199 C 0.9902 0.97491 0.09966 0.0
H3200 H 0.01816 0.95867 0.08585 0.0
H3201 H 0.9497 0.07246 0.15124 0.0
H3202 H 0.25922 0.67665 0.46152 0.0
H3203 H 0.24492 0.68509 0.43846 0.0
H3204 H 0.26067 0.73418 0.45981 0.0
H3205 H 0.2746 0.7257 0.48318 0.0
H3206 H 0.23235 0.72943 0.44169 0.0
H3207 H 0.28094 0.71646 0.43578 0.0
H3208 H 0.29923 0.69869 0.43631 0.0
H3209 H 0.26927 0.6644 0.39997 0.0
H3210 H 0.25069 0.68188 0.39944 0.0
H3211 H 0.25457 0.77461 0.38178 0.0
H3212 H 0.2477 0.76045 0.40399 0.0
H3213 H 0.23356 0.71671 0.37051 0.0
H3214 H 0.24118 0.73065 0.34841 0.0
H3215 H 0.25475 0.71407 0.39292 0.0
H3216 H 0.2091 0.7318 0.39397 0.0
H3217 H 0.19185 0.75067 0.39359 0.0
H3218 H 0.21665 0.77724 0.43837 0.0
H3219 H 0.2342 0.75868 0.43892 0.0
C3220 C 0.25931 0.68921 0.46142 0.0
C3221 C 0.26818 0.70059 0.47385 0.0
C3222 C 0.25109 0.69401 0.44834 0.0
C3223 C 0.25198 0.71026 0.44732 0.0
C3224 C 0.25984 0.72158 0.4604 0.0
C3225 C 0.26787 0.71676 0.47365 0.0
C3226 C 0.24708 0.71547 0.43164 0.0
C3227 C 0.23716 0.7261 0.43095 0.0
C3228 C 0.25313 0.71077 0.41758 0.0
C3229 C 0.26437 0.70037 0.41772 0.0
C3230 C 0.27823 0.70508 0.42799 0.0
C3231 C 0.28864 0.69507 0.42829 0.0
C3232 C 0.28539 0.6804 0.41822 0.0
C3233 C 0.27175 0.67574 0.40779 0.0
C3234 C 0.26127 0.68569 0.40749 0.0
C3235 C 0.24971 0.76204 0.37909 0.0
C3236 C 0.24872 0.75369 0.36342 0.0
C3237 C 0.24554 0.75399 0.39176 0.0
C3238 C 0.24012 0.73749 0.38893 0.0
C3239 C 0.23771 0.72945 0.37296 0.0
C3240 C 0.24201 0.73746 0.36031 0.0
C3241 C 0.24017 0.7284 0.40286 0.0
C3242 C 0.24939 0.71707 0.40334 0.0
C3243 C 0.23356 0.73262 0.41667 0.0
C3244 C 0.22302 0.74384 0.41645 0.0
C3245 C 0.21095 0.74172 0.40369 0.0
C3246 C 0.2011 0.75236 0.40345 0.0
C3247 C 0.20316 0.76515 0.41594 0.0
C3248 C 0.21506 0.76731 0.42871 0.0
C3249 C 0.22495 0.75671 0.42901 0.0
H3250 H 0.19553 0.77337 0.41573 0.0
H3251 H 0.29347 0.67266 0.41847 0.0
H3252 H 0.59477 0.01859 0.69824 0.0
H3253 H 0.58223 0.02096 0.67134 0.0
H3254 H 0.60354 0.98499 0.64962 0.0
H3255 H 0.61657 0.98292 0.67652 0.0
H3256 H 0.60301 0.00669 0.62988 0.0
H3257 H 0.56481 0.97826 0.65481 0.0
H3258 H 0.54911 0.97324 0.67605 0.0
H3259 H 0.5329 0.01641 0.67081 0.0
H3260 H 0.54865 0.02179 0.64968 0.0
H3261 H 0.55465 0.99735 0.55158 0.0
H3262 H 0.56896 0.99363 0.57743 0.0
H3263 H 0.54781 0.02725 0.6035 0.0
H3264 H 0.53348 0.03067 0.57794 0.0
H3265 H 0.54846 1.00516 0.6206 0.0
H3266 H 0.58688 0.03379 0.59575 0.0
H3267 H 0.60273 0.03889 0.57466 0.0
H3268 H 0.61863 0.99552 0.57964 0.0
H3269 H 0.60266 0.99 0.60055 0.0
C3270 C 0.597 0.0112 0.68784 0.0
C3271 C 0.60689 1.00049 0.69005 0.0
C3272 C 0.58957 0.01246 0.67224 0.0
C3273 C 0.59154 1.00302 0.65801 0.0
C3274 C 0.60156 0.99247 0.66011 0.0
C3275 C 0.60898 0.99117 0.67574 0.0
C3276 C 0.58319 1.00413 0.64115 0.0
C3277 C 0.59104 0.00612 0.62788 0.0
C3278 C 0.56752 1.00372 0.6381 0.0
C3279 C 0.55802 1.0005 0.65077 0.0
C3280 C 0.55797 0.98674 0.65827 0.0
C3281 C 0.54906 0.98382 0.67028 0.0
C3282 C 0.54004 0.99452 0.67481 0.0
C3283 C 0.5399 0.00814 0.66731 0.0
C3284 C 0.54881 0.01113 0.6553 0.0
C3285 C 0.55316 1.00406 0.56281 0.0
C3286 C 0.54281 0.01438 0.56243 0.0
C3287 C 0.56144 1.00196 0.57775 0.0
C3288 C 0.55979 0.0102 0.59289 0.0
C3289 C 0.5495 0.02056 0.59234 0.0
C3290 C 0.54125 0.0226 0.57752 0.0
C3291 C 0.56828 0.00798 0.60931 0.0
C3292 C 0.56044 1.00574 0.62253 0.0
C3293 C 0.58394 0.00818 0.61227 0.0
C3294 C 0.59345 0.0114 0.5996 0.0
C3295 C 0.59366 0.02527 0.59225 0.0
C3296 C 0.60268 0.02825 0.58034 0.0
C3297 C 0.61169 0.01755 0.57583 0.0
C3298 C 0.61166 1.00381 0.58317 0.0
C3299 C 0.60261 1.00074 0.59503 0.0
H3300 H 0.61868 0.01989 0.56663 0.0
H3301 H 0.53315 0.99224 0.68411 0.0
H3302 H 0.26415 0.33118 0.94994 0.0
H3303 H 0.26292 0.3186 0.92192 0.0
H3304 H 0.31085 0.33167 0.92627 0.0
H3305 H 0.31214 0.34427 0.95423 0.0
H3306 H 0.29849 0.33816 0.89838 0.0
H3307 H 0.29224 0.29261 0.92642 0.0
H3308 H 0.28076 0.27482 0.94422 0.0
H3309 H 0.23872 0.26672 0.91247 0.0
H3310 H 0.2499 0.28465 0.89459 0.0
H3311 H 0.30733 0.29142 0.82606 0.0
H3312 H 0.30826 0.30196 0.85464 0.0
H3313 H 0.26021 0.28988 0.8491 0.0
H3314 H 0.25918 0.27909 0.82056 0.0
H3315 H 0.27237 0.28274 0.87749 0.0
H3316 H 0.27858 0.32837 0.8496 0.0
H3317 H 0.29005 0.34601 0.83166 0.0
H3318 H 0.33221 0.35389 0.86318 0.0
H3319 H 0.32102 0.33612 0.88119 0.0
C3320 C 0.27446 0.3312 0.94503 0.0
C3321 C 0.28824 0.3388 0.95443 0.0
C3322 C 0.27374 0.32399 0.92895 0.0
C3323 C 0.28681 0.32403 0.9219 0.0
C3324 C 0.30058 0.3315 0.93131 0.0
C3325 C 0.3013 0.33875 0.94734 0.0
C3326 C 0.28615 0.3167 0.90462 0.0
C3327 C 0.29296 0.32596 0.89392 0.0
C3328 C 0.27861 0.3009 0.89854 0.0
C3329 C 0.27187 0.29011 0.90926 0.0
C3330 C 0.28052 0.28714 0.9233 0.0
C3331 C 0.27407 0.27701 0.93339 0.0
C3332 C 0.25901 0.26968 0.9295 0.0
C3333 C 0.25038 0.27243 0.91548 0.0
C3334 C 0.25677 0.28256 0.90536 0.0
C3335 C 0.29694 0.29093 0.8309 0.0
C3336 C 0.28318 0.28447 0.82088 0.0
C3337 C 0.29749 0.29705 0.84728 0.0
C3338 C 0.28429 0.29697 0.85406 0.0
C3339 C 0.27056 0.29015 0.84421 0.0
C3340 C 0.27 0.28402 0.82782 0.0
C3341 C 0.28479 0.30419 0.87132 0.0
C3342 C 0.27793 0.29493 0.88199 0.0
C3343 C 0.29227 0.32 0.8774 0.0
C3344 C 0.299 0.33079 0.86666 0.0
C3345 C 0.29032 0.33378 0.85264 0.0
C3346 C 0.29677 0.34381 0.84247 0.0
C3347 C 0.31186 0.35103 0.84626 0.0
C3348 C 0.32052 0.34827 0.86025 0.0
C3349 C 0.31413 0.33823 0.87045 0.0
H3350 H 0.31683 0.3588 0.83837 0.0
H3351 H 0.25404 0.26184 0.93733 0.0
H3352 H 0.96626 0.04093 0.34441 0.0
H3353 H 0.97804 0.0424 0.37267 0.0
H3354 H 0.98234 0.9933 0.36334 0.0
H3355 H 0.97042 0.99169 0.33514 0.0
H3356 H 0.97028 0.99984 0.39111 0.0
H3357 H 0.01254 0.02259 0.3674 0.0
H3358 H 0.02628 0.04139 0.35206 0.0
H3359 H 0.022 0.08065 0.38653 0.0
H3360 H 0.00803 0.0621 0.40195 0.0
H3361 H 0.01502 0.99436 0.46412 0.0
H3362 H 0.00598 0.99454 0.43546 0.0
H3363 H 0.00694 0.04498 0.44511 0.0
H3364 H 0.01646 0.04499 0.4738 0.0
H3365 H 0.01616 0.03842 0.41719 0.0
H3366 H 0.97391 0.01699 0.4407 0.0
H3367 H 0.95943 0.99913 0.45633 0.0
H3368 H 0.96239 0.95869 0.42265 0.0
H3369 H 0.97709 0.97629 0.40694 0.0
C3370 C 0.96975 0.03045 0.34837 0.0
C3371 C 0.9674 0.01619 0.33751 0.0
C3372 C 0.97657 0.03135 0.3645 0.0
C3373 C 0.98115 0.01798 0.37012 0.0
C3374 C 0.97893 1.00377 0.35927 0.0
C3375 C 0.97222 1.00291 0.34311 0.0
C3376 C 0.98773 0.01861 0.38745 0.0
C3377 C 0.98044 0.00812 0.39675 0.0
C3378 C 1.00068 0.0298 0.39498 0.0
C3379 C 0.0091 0.04096 0.38573 0.0
C3380 C 0.01441 0.03524 0.37163 0.0
C3381 C 0.02227 0.04585 0.36294 0.0
C3382 C 0.02498 0.06221 0.36829 0.0
C3383 C 0.01987 0.06798 0.38238 0.0
C3384 C 0.012 0.05742 0.39111 0.0
C3385 C 0.01338 1.00553 0.46018 0.0
C3386 C 0.01634 0.01963 0.47134 0.0
C3387 C 0.00813 1.0056 0.44375 0.0
C3388 C 0.00543 0.0197 0.43813 0.0
C3389 C 0.00884 0.03392 0.44913 0.0
C3390 C 0.01426 0.03389 0.46557 0.0
C3391 C 0.9988 0.01951 0.42085 0.0
C3392 C 0.00602 0.03012 0.41157 0.0
C3393 C 0.98564 0.00857 0.41337 0.0
C3394 C 0.97672 0.99795 0.42273 0.0
C3395 C 0.97156 1.00427 0.43669 0.0
C3396 C 0.9633 0.9942 0.44556 0.0
C3397 C 0.96002 0.97778 0.44051 0.0
C3398 C 0.96496 0.97141 0.42656 0.0
C3399 C 0.97325 0.98143 0.41766 0.0
H3400 H 0.95363 0.97 0.44739 0.0
H3401 H 0.03106 0.0704 0.36155 0.0
H3402 H 0.33327 0.73479 0.60742 0.0
H3403 H 0.33308 0.74971 0.63401 0.0
H3404 H 0.34305 0.70992 0.65722 0.0
H3405 H 0.34348 0.69499 0.63067 0.0
H3406 H 0.31722 0.71873 0.66385 0.0
H3407 H 0.36782 0.74437 0.66439 0.0
H3408 H 0.38873 0.7593 0.65346 0.0
H3409 H 0.36619 0.79875 0.65135 0.0
H3410 H 0.34502 0.78397 0.66205 0.0
H3411 H 0.31347 0.75455 0.74281 0.0
H3412 H 0.32425 0.74297 0.72014 0.0
H3413 H 0.3158 0.78131 0.69368 0.0
H3414 H 0.30492 0.79289 0.71643 0.0
H3415 H 0.34276 0.77302 0.68981 0.0
H3416 H 0.29202 0.74782 0.68771 0.0
H3417 H 0.26968 0.7328 0.69609 0.0
H3418 H 0.29059 0.69219 0.69814 0.0
H3419 H 0.31337 0.7072 0.69052 0.0
C3420 C 0.33593 0.72942 0.61821 0.0
C3421 C 0.33822 0.71365 0.61696 0.0
C3422 C 0.33581 0.73796 0.6334 0.0
C3423 C 0.33803 0.7309 0.64755 0.0
C3424 C 0.34128 0.71555 0.64641 0.0
C3425 C 0.34144 0.70702 0.63125 0.0
C3426 C 0.33482 0.73853 0.66309 0.0
C3427 C 0.32305 0.73044 0.66981 0.0
C3428 C 0.34204 0.75406 0.67033 0.0
C3429 C 0.35477 0.763 0.66391 0.0
C3430 C 0.36725 0.75618 0.66147 0.0
C3431 C 0.37917 0.76462 0.65534 0.0
C3432 C 0.37877 0.77995 0.65168 0.0
C3433 C 0.36647 0.78687 0.65418 0.0
C3434 C 0.35452 0.77847 0.6603 0.0
C3435 C 0.31395 0.76049 0.73217 0.0
C3436 C 0.30811 0.77435 0.73107 0.0
C3437 C 0.32015 0.75392 0.71928 0.0
C3438 C 0.32056 0.76114 0.70515 0.0
C3439 C 0.31553 0.77554 0.70448 0.0
C3440 C 0.30931 0.78211 0.71739 0.0
C3441 C 0.32526 0.75311 0.69067 0.0
C3442 C 0.33715 0.76118 0.68407 0.0
C3443 C 0.318 0.73756 0.68336 0.0
C3444 C 0.30456 0.72878 0.6888 0.0
C3445 C 0.29202 0.73582 0.69029 0.0
C3446 C 0.27923 0.72727 0.69485 0.0
C3447 C 0.27871 0.71155 0.69764 0.0
C3448 C 0.291 0.70436 0.69594 0.0
C3449 C 0.3039 0.71293 0.69164 0.0
H3450 H 0.2688 0.70495 0.70115 0.0
H3451 H 0.38801 0.78647 0.64693 0.0
H3452 H 0.63079 0.01634 0.87384 0.0
H3453 H 0.61833 0.01847 0.89775 0.0
H3454 H 0.57691 0.99332 0.86892 0.0
H3455 H 0.58931 0.99113 0.8449 0.0
H3456 H 0.5697 0.01484 0.88845 0.0
H3457 H 0.60121 0.97736 0.89988 0.0
H3458 H 0.62481 0.96747 0.90394 0.0
H3459 H 0.64288 0.00598 0.94267 0.0
H3460 H 0.61946 0.01623 0.93868 0.0
H3461 H 0.52995 1.00108 0.95529 0.0
H3462 H 0.54292 0.99891 0.93172 0.0
H3463 H 0.58409 0.02354 0.96151 0.0
H3464 H 0.57113 0.02532 0.98534 0.0
H3465 H 0.59161 1.00257 0.94166 0.0
H3466 H 0.56069 0.04034 0.93038 0.0
H3467 H 0.5373 0.05066 0.92661 0.0
H3468 H 0.5185 0.01234 0.8879 0.0
H3469 H 0.54172 1.00168 0.89158 0.0
C3470 C 0.61907 0.011 0.87241 0.0
C3471 C 0.61137 1.00343 0.85689 0.0
C3472 C 0.61182 0.01224 0.88638 0.0
C3473 C 0.59645 0.00585 0.88574 0.0
C3474 C 0.58869 0.99846 0.87024 0.0
C3475 C 0.59592 0.99724 0.85624 0.0
C3476 C 0.58848 0.00704 0.90092 0.0
C3477 C 0.57452 0.01189 0.89996 0.0
C3478 C 0.59453 1.00375 0.91649 0.0
C3479 C 0.60864 0.99766 0.91885 0.0
C3480 C 0.61026 0.98379 0.90917 0.0
C3481 C 0.6236 0.97811 0.91147 0.0
C3482 C 0.63535 0.98612 0.92352 0.0
C3483 C 0.63378 0.99981 0.93331 0.0
C3484 C 0.62047 1.00555 0.93104 0.0
C3485 C 0.54176 0.00618 0.95695 0.0
C3486 C 0.54925 0.01356 0.97256 0.0
C3487 C 0.54927 1.00502 0.9432 0.0
C3488 C 0.5647 0.01137 0.94421 0.0
C3489 C 0.57226 0.01853 0.9599 0.0
C3490 C 0.56474 0.01962 0.97371 0.0
C3491 C 0.57284 0.01035 0.92916 0.0
C3492 C 0.58681 1.00553 0.93014 0.0
C3493 C 0.56685 0.01375 0.91362 0.0
C3494 C 0.55289 0.02013 0.91137 0.0
C3495 C 0.55153 0.03405 0.92114 0.0
C3496 C 0.53831 0.03997 0.91901 0.0
C3497 C 0.52641 0.03214 0.90705 0.0
C3498 C 0.52772 0.01839 0.89717 0.0
C3499 C 0.54091 0.01241 0.89926 0.0
H3500 H 0.51618 0.03674 0.90542 0.0
H3501 H 0.64566 0.98169 0.92529 0.0
H3502 H 0.26712 0.34243 0.11533 0.0
H3503 H 0.26538 0.32943 0.13959 0.0
H3504 H 0.31168 0.32549 0.14267 0.0
H3505 H 0.31342 0.33817 0.11813 0.0
H3506 H 0.29538 0.29831 0.14819 0.0
H3507 H 0.3001 0.35331 0.16829 0.0
H3508 H 0.29423 0.38021 0.17031 0.0
H3509 H 0.25055 0.36177 0.18061 0.0
H3510 H 0.25604 0.33471 0.17834 0.0
H3511 H 0.29716 0.2738 0.22783 0.0
H3512 H 0.30268 0.28806 0.20488 0.0
H3513 H 0.25766 0.29671 0.198 0.0
H3514 H 0.25231 0.28301 0.22099 0.0
H3515 H 0.27581 0.32261 0.19546 0.0
H3516 H 0.27024 0.26738 0.17284 0.0
H3517 H 0.27614 0.24049 0.17134 0.0
H3518 H 0.32139 0.25949 0.16634 0.0
H3519 H 0.3158 0.28654 0.16801 0.0
C3520 C 0.27693 0.3387 0.12105 0.0
C3521 C 0.29043 0.34142 0.11465 0.0
C3522 C 0.27596 0.33139 0.13509 0.0
C3523 C 0.28844 0.32659 0.1432 0.0
C3524 C 0.30188 0.32911 0.13675 0.0
C3525 C 0.30289 0.3365 0.12274 0.0
C3526 C 0.28739 0.31878 0.15823 0.0
C3527 C 0.29131 0.30376 0.15861 0.0
C3528 C 0.28187 0.32568 0.17186 0.0
C3529 C 0.27843 0.34192 0.17294 0.0
C3530 C 0.28918 0.35495 0.17079 0.0
C3531 C 0.28592 0.37024 0.17201 0.0
C3532 C 0.272 0.37269 0.17552 0.0
C3533 C 0.26131 0.35985 0.17783 0.0
C3534 C 0.26448 0.34453 0.17657 0.0
C3535 C 0.2885 0.27883 0.22145 0.0
C3536 C 0.27431 0.27729 0.22629 0.0
C3537 C 0.29161 0.28688 0.20823 0.0
C3538 C 0.28055 0.29343 0.19949 0.0
C3539 C 0.26643 0.29187 0.20444 0.0
C3540 C 0.26336 0.28392 0.2176 0.0
C3541 C 0.28347 0.30198 0.18526 0.0
C3542 C 0.27994 0.31719 0.18505 0.0
C3543 C 0.28929 0.29524 0.1718 0.0
C3544 C 0.29264 0.27899 0.17073 0.0
C3545 C 0.28147 0.26584 0.17154 0.0
C3546 C 0.28476 0.25056 0.17064 0.0
C3547 C 0.29914 0.24829 0.16879 0.0
C3548 C 0.31026 0.26128 0.1678 0.0
C3549 C 0.30704 0.27658 0.16871 0.0
H3550 H 0.30166 0.23646 0.1681 0.0
H3551 H 0.26952 0.38454 0.1765 0.0
H3552 H 0.19035 0.90254 0.05604 0.0
H3553 H 0.17565 0.92269 0.06354 0.0
H3554 H 0.16824 0.93079 0.01353 0.0
H3555 H 0.18308 0.91114 0.00607 0.0
H3556 H 0.17781 0.95841 0.0346 0.0
H3557 H 0.14114 0.90939 0.02972 0.0
H3558 H 0.13131 0.88303 0.03682 0.0
H3559 H 0.13327 0.9038 0.08639 0.0
H3560 H 0.14331 0.93027 0.07962 0.0
H3561 H 0.11581 0.99353 0.01895 0.0
H3562 H 0.13398 0.97609 0.02083 0.0
H3563 H 0.13264 0.97744 0.07225 0.0
H3564 H 0.11409 0.99469 0.07036 0.0
H3565 H 0.13029 0.94715 0.0568 0.0
H3566 H 0.16306 0.99691 0.06045 0.0
H3567 H 0.17233 0.02329 0.05308 0.0
H3568 H 0.17779 1.00145 0.00606 0.0
H3569 H 0.16834 0.97494 0.01305 0.0
C3570 C 0.18553 0.90861 0.04668 0.0
C3571 C 0.18777 0.90517 0.03045 0.0
C3572 C 0.17711 0.92004 0.05095 0.0
C3573 C 0.17088 0.9282 0.03907 0.0
C3574 C 0.17298 0.92464 0.02288 0.0
C3575 C 0.18131 0.91325 0.01861 0.0
C3576 C 0.1624 0.94074 0.04327 0.0
C3577 C 0.1674 0.95597 0.03942 0.0
C3578 C 0.14915 0.93766 0.05015 0.0
C3579 C 0.14317 0.92176 0.05422 0.0
C3580 C 0.13962 0.90831 0.04217 0.0
C3581 C 0.13398 0.89335 0.04612 0.0
C3582 C 0.13172 0.89173 0.06206 0.0
C3583 C 0.13506 0.90507 0.07407 0.0
C3584 C 0.14073 0.92004 0.07017 0.0
C3585 C 0.11938 0.99011 0.03065 0.0
C3586 C 0.11354 0.99542 0.0445 0.0
C3587 C 0.12986 0.98028 0.03175 0.0
C3588 C 0.13476 0.97563 0.04672 0.0
C3589 C 0.12903 0.98098 0.06061 0.0
C3590 C 0.11855 0.99089 0.05954 0.0
C3591 C 0.1454 0.96463 0.04748 0.0
C3592 C 0.14086 0.94973 0.05232 0.0
C3593 C 0.15911 0.968 0.04151 0.0
C3594 C 0.16492 0.98393 0.03727 0.0
C3595 C 0.16614 0.99773 0.0485 0.0
C3596 C 0.17144 0.01271 0.04439 0.0
C3597 C 0.17563 0.01404 0.02911 0.0
C3598 C 0.17455 1.0004 0.0179 0.0
C3599 C 0.16925 0.98539 0.02194 0.0
H3600 H 0.17973 0.02565 0.02595 0.0
H3601 H 0.12734 0.88015 0.0651 0.0
H3602 H 0.67589 0.61943 1.00102 0.0
H3603 H 0.65071 0.60597 1.00355 0.0
H3604 H 0.66515 0.56095 1.00052 0.0
H3605 H 0.69034 0.57432 0.99792 0.0
H3606 H 0.63751 0.55921 0.98133 0.0
H3607 H 0.66121 0.57942 0.03662 0.0
H3608 H 0.67451 0.60032 0.05895 0.0
H3609 H 0.63833 0.62559 0.05315 0.0
H3610 H 0.6249 0.60493 0.03062 0.0
H3611 H 0.57951 0.51014 0.00899 0.0
H3612 H 0.60355 0.52564 0.0058 0.0
H3613 H 0.58695 0.56902 0.0155 0.0
H3614 H 0.56291 0.55337 0.01914 0.0
H3615 H 0.6149 0.57311 0.03037 0.0
H3616 H 0.59051 0.55364 0.97645 0.0
H3617 H 0.57657 0.53375 0.95355 0.0
H3618 H 0.61301 0.50866 0.95541 0.0
H3619 H 0.62709 0.52828 0.97849 0.0
C3620 C 0.67369 0.60664 1.00075 0.0
C3621 C 0.68521 0.59798 0.99928 0.0
C3622 C 0.65929 0.59897 1.00232 0.0
C3623 C 0.65599 0.58243 1.00235 0.0
C3624 C 0.66737 0.57371 1.00056 0.0
C3625 C 0.68182 0.5814 0.99918 0.0
C3626 C 0.64075 0.5742 0.00441 0.0
C3627 C 0.63264 0.56213 0.99213 0.0
C3628 C 0.6341 0.57835 0.01823 0.0
C3629 C 0.64213 0.59072 0.03182 0.0
C3630 C 0.65614 0.5895 0.04002 0.0
C3631 C 0.6637 0.60129 0.05272 0.0
C3632 C 0.65729 0.6143 0.05743 0.0
C3633 C 0.64329 0.61552 0.04947 0.0
C3634 C 0.6357 0.60377 0.03674 0.0
C3635 C 0.58097 0.52299 0.0105 0.0
C3636 C 0.56923 0.53053 0.01423 0.0
C3637 C 0.59474 0.53187 0.00857 0.0
C3638 C 0.5971 0.54856 0.01008 0.0
C3639 C 0.58547 0.55617 0.01418 0.0
C3640 C 0.57168 0.54723 0.01622 0.0
C3641 C 0.6117 0.55791 0.00738 0.0
C3642 C 0.6197 0.57021 0.01951 0.0
C3643 C 0.61816 0.55414 0.99329 0.0
C3644 C 0.60981 0.54237 0.9793 0.0
C3645 C 0.59551 0.54382 0.97205 0.0
C3646 C 0.58759 0.5326 0.95903 0.0
C3647 C 0.59388 0.51993 0.95305 0.0
C3648 C 0.60814 0.51848 0.96006 0.0
C3649 C 0.61611 0.52966 0.97311 0.0
H3650 H 0.58773 0.51125 0.94297 0.0
H3651 H 0.66315 0.62342 0.06727 0.0
H3652 H 0.67209 0.4552 0.31414 0.0
H3653 H 0.68463 0.43241 0.3142 0.0
H3654 H 0.69355 0.43709 0.26556 0.0
H3655 H 0.68073 0.45964 0.26526 0.0
H3656 H 0.68395 0.40599 0.26913 0.0
H3657 H 0.72046 0.45118 0.29801 0.0
H3658 H 0.72984 0.47426 0.31943 0.0
H3659 H 0.72445 0.4439 0.3562 0.0
H3660 H 0.71484 0.42066 0.33497 0.0
H3661 H 0.74558 0.36889 0.2612 0.0
H3662 H 0.72818 0.38713 0.26351 0.0
H3663 H 0.72281 0.37577 0.31143 0.0
H3664 H 0.74036 0.35745 0.30919 0.0
H3665 H 0.72849 0.40818 0.31038 0.0
H3666 H 0.69503 0.36244 0.28161 0.0
H3667 H 0.68601 0.33921 0.26035 0.0
H3668 H 0.68527 0.36999 0.22364 0.0
H3669 H 0.69465 0.39341 0.24466 0.0
C3670 C 0.67659 0.45128 0.30339 0.0
C3671 C 0.67547 0.45929 0.28972 0.0
C3672 C 0.68384 0.43832 0.30349 0.0
C3673 C 0.69013 0.43312 0.28993 0.0
C3674 C 0.68879 0.44091 0.27616 0.0
C3675 C 0.68159 0.45389 0.27607 0.0
C3676 C 0.69843 0.41983 0.29016 0.0
C3677 C 0.69376 0.40651 0.27806 0.0
C3678 C 0.71093 0.42027 0.30215 0.0
C3679 C 0.71677 0.43422 0.31491 0.0
C3680 C 0.72116 0.44945 0.31066 0.0
C3681 C 0.72654 0.46255 0.32277 0.0
C3682 C 0.7277 0.46056 0.33916 0.0
C3683 C 0.72352 0.44543 0.34349 0.0
C3684 C 0.71811 0.43229 0.33143 0.0
C3685 C 0.74065 0.37023 0.27221 0.0
C3686 C 0.74437 0.36181 0.28506 0.0
C3687 C 0.73063 0.38057 0.27347 0.0
C3688 C 0.72413 0.38274 0.2876 0.0
C3689 C 0.72768 0.37422 0.3004 0.0
C3690 C 0.73762 0.36372 0.29908 0.0
C3691 C 0.71421 0.39449 0.28913 0.0
C3692 C 0.71857 0.40753 0.30156 0.0
C3693 C 0.7014 0.39375 0.27746 0.0
C3694 C 0.69568 0.3797 0.26474 0.0
C3695 C 0.69308 0.36426 0.269 0.0
C3696 C 0.68789 0.35105 0.25698 0.0
C3697 C 0.68507 0.35312 0.24065 0.0
C3698 C 0.68746 0.3684 0.2363 0.0
C3699 C 0.69272 0.38166 0.24827 0.0
H3700 H 0.68103 0.34287 0.23136 0.0
H3701 H 0.73187 0.47072 0.34852 0.0
H3702 H 0.80677 0.45745 0.52244 0.0
H3703 H 0.83004 0.47732 0.52731 0.0
H3704 H 0.83895 0.46128 0.47946 0.0
H3705 H 0.81567 0.44167 0.47448 0.0
H3706 H 0.8568 0.46966 0.52889 0.0
H3707 H 0.86008 0.48971 0.4649 0.0
H3708 H 0.84333 0.49737 0.443 0.0
H3709 H 0.81507 0.51028 0.47718 0.0
H3710 H 0.83176 0.50293 0.49935 0.0
H3711 H 0.92563 0.47404 0.50319 0.0
H3712 H 0.89955 0.47011 0.50721 0.0
H3713 H 0.90138 0.52079 0.51167 0.0
H3714 H 0.92762 0.52478 0.5074 0.0
H3715 H 0.87712 0.5041 0.49041 0.0
H3716 H 0.89814 0.50336 0.54482 0.0
H3717 H 0.91504 0.49627 0.567 0.0
H3718 H 0.89441 0.44699 0.55357 0.0
H3719 H 0.87753 0.45373 0.53118 0.0
C3720 C 0.81346 0.45856 0.51278 0.0
C3721 C 0.80948 0.44802 0.49809 0.0
C3722 C 0.82678 0.46983 0.51561 0.0
C3723 C 0.8362 0.47084 0.50373 0.0
C3724 C 0.83176 0.46091 0.48872 0.0
C3725 C 0.81853 0.44962 0.48592 0.0
C3726 C 0.8515 0.4806 0.50758 0.0
C3727 C 0.8612 0.47742 0.52065 0.0
C3728 C 0.85716 0.49104 0.49707 0.0
C3729 C 0.84718 0.49571 0.4838 0.0
C3730 C 0.85036 0.4943 0.46779 0.0
C3731 C 0.84085 0.49856 0.45531 0.0
C3732 C 0.82814 0.50429 0.45869 0.0
C3733 C 0.82491 0.5058 0.47457 0.0
C3734 C 0.83438 0.50157 0.48709 0.0
C3735 C 0.9205 0.48436 0.5051 0.0
C3736 C 0.92859 0.4997 0.50489 0.0
C3737 C 0.90565 0.48212 0.50756 0.0
C3738 C 0.89858 0.49518 0.50991 0.0
C3739 C 0.90668 0.51058 0.50997 0.0
C3740 C 0.92164 0.51284 0.50761 0.0
C3741 C 0.88245 0.49234 0.5111 0.0
C3742 C 0.87263 0.49678 0.49896 0.0
C3743 C 0.87664 0.48321 0.52259 0.0
C3744 C 0.88657 0.47907 0.53627 0.0
C3745 C 0.89724 0.491 0.54655 0.0
C3746 C 0.90682 0.48704 0.55917 0.0
C3747 C 0.90581 0.47119 0.56167 0.0
C3748 C 0.89517 0.45927 0.55162 0.0
C3749 C 0.88557 0.46316 0.53899 0.0
H3750 H 0.91328 0.46813 0.57138 0.0
H3751 H 0.82078 0.50757 0.44902 0.0
H3752 H 0.37954 0.1306 0.25963 0.0
H3753 H 0.36768 0.15381 0.26058 0.0
H3754 H 0.32458 0.12337 0.25629 0.0
H3755 H 0.33638 0.10003 0.25515 0.0
H3756 H 0.31966 0.14541 0.24 0.0
H3757 H 0.34627 0.15028 0.29401 0.0
H3758 H 0.36807 0.15202 0.31517 0.0
H3759 H 0.39043 0.19372 0.2986 0.0
H3760 H 0.36883 0.19212 0.27722 0.0
H3761 H 0.28047 0.20846 0.26211 0.0
H3762 H 0.29251 0.18525 0.26079 0.0
H3763 H 0.33512 0.21582 0.26225 0.0
H3764 H 0.32309 0.23914 0.26375 0.0
H3765 H 0.34033 0.19388 0.27992 0.0
H3766 H 0.31339 0.18906 0.22611 0.0
H3767 H 0.29139 0.18733 0.20522 0.0
H3768 H 0.2694 0.14547 0.22183 0.0
H3769 H 0.29121 0.14706 0.24295 0.0
C3770 C 0.36753 0.12863 0.25907 0.0
C3771 C 0.35921 0.11288 0.2574 0.0
C3772 C 0.36062 0.14221 0.25967 0.0
C3773 C 0.34496 0.14095 0.25888 0.0
C3774 C 0.33661 0.12522 0.25699 0.0
C3775 C 0.3435 0.11162 0.25629 0.0
C3776 C 0.33736 0.15575 0.25981 0.0
C3777 C 0.32419 0.15584 0.24897 0.0
C3778 C 0.343 0.16998 0.2711 0.0
C3779 C 0.356 0.17098 0.28391 0.0
C3780 C 0.35588 0.15975 0.29481 0.0
C3781 C 0.36819 0.16073 0.30685 0.0
C3782 C 0.38065 0.17295 0.3082 0.0
C3783 C 0.38079 0.18425 0.29753 0.0
C3784 C 0.36851 0.18332 0.28546 0.0
C3785 C 0.29241 0.21038 0.26204 0.0
C3786 C 0.30057 0.22608 0.26293 0.0
C3787 C 0.2994 0.19686 0.2612 0.0
C3788 C 0.31498 0.19822 0.26114 0.0
C3789 C 0.32317 0.21394 0.2622 0.0
C3790 C 0.31616 0.22747 0.26299 0.0
C3791 C 0.32264 0.1835 0.26016 0.0
C3792 C 0.33581 0.18343 0.27097 0.0
C3793 C 0.31698 0.16928 0.24889 0.0
C3794 C 0.30387 0.16827 0.23621 0.0
C3795 C 0.30382 0.17955 0.22538 0.0
C3796 C 0.29139 0.17858 0.21349 0.0
C3797 C 0.27899 0.16632 0.21223 0.0
C3798 C 0.279 0.15497 0.22283 0.0
C3799 C 0.2914 0.15589 0.23476 0.0
H3800 H 0.26938 0.1656 0.20301 0.0
H3801 H 0.39017 0.17368 0.31753 0.0
H3802 H 0.34806 0.12896 0.50574 0.0
H3803 H 0.36971 0.11646 0.50792 0.0
H3804 H 0.34095 0.07016 0.49771 0.0
H3805 H 0.31914 0.08254 0.49729 0.0
H3806 H 0.36201 0.06795 0.51874 0.0
H3807 H 0.36249 0.08986 0.46875 0.0
H3808 H 0.36233 0.11072 0.451 0.0
H3809 H 0.40315 0.13762 0.47935 0.0
H3810 H 0.40346 0.117 0.49739 0.0
H3811 H 0.41879 0.0255 0.5001 0.0
H3812 H 0.39714 0.03837 0.49761 0.0
H3813 H 0.42557 0.08371 0.51691 0.0
H3814 H 0.44741 0.07096 0.51909 0.0
H3815 H 0.40498 0.08624 0.49108 0.0
H3816 H 0.40399 0.06308 0.54068 0.0
H3817 H 0.40389 0.04123 0.55722 0.0
H3818 H 0.36333 0.01534 0.52753 0.0
H3819 H 0.3633 0.03694 0.51067 0.0
C3820 C 0.34616 0.11611 0.50426 0.0
C3821 C 0.33153 0.10693 0.50135 0.0
C3822 C 0.35873 0.10891 0.50516 0.0
C3823 C 0.35718 0.09225 0.50258 0.0
C3824 C 0.34263 0.08302 0.49967 0.0
C3825 C 0.33003 0.09021 0.49918 0.0
C3826 C 0.37064 0.08446 0.50328 0.0
C3827 C 0.37125 0.07185 0.51243 0.0
C3828 C 0.38303 0.08959 0.4954 0.0
C3829 C 0.38292 0.10195 0.4845 0.0
C3830 C 0.37138 0.10027 0.47125 0.0
C3831 C 0.37128 0.11204 0.46113 0.0
C3832 C 0.38271 0.1255 0.46407 0.0
C3833 C 0.3943 0.12719 0.4771 0.0
C3834 C 0.39445 0.11546 0.48726 0.0
C3835 C 0.42053 0.03825 0.50365 0.0
C3836 C 0.43495 0.04714 0.50984 0.0
C3837 C 0.40805 0.04559 0.50236 0.0
C3838 C 0.4096 0.06202 0.50727 0.0
C3839 C 0.42401 0.07101 0.51311 0.0
C3840 C 0.4365 0.06366 0.51447 0.0
C3841 C 0.3962 0.06978 0.50643 0.0
C3842 C 0.39566 0.08237 0.49729 0.0
C3843 C 0.38378 0.06449 0.51411 0.0
C3844 C 0.38372 0.05157 0.52433 0.0
C3845 C 0.39511 0.05268 0.53762 0.0
C3846 C 0.39506 0.04035 0.54706 0.0
C3847 C 0.38363 0.02689 0.54341 0.0
C3848 C 0.37219 0.02576 0.53034 0.0
C3849 C 0.37219 0.03805 0.52084 0.0
H3850 H 0.38361 0.01735 0.55073 0.0
H3851 H 0.3826 0.13461 0.45623 0.0
H3852 H 0.70847 0.59884 0.28684 0.0
H3853 H 0.72461 0.62405 0.28505 0.0
H3854 H 0.68926 0.64903 0.29448 0.0
H3855 H 0.67287 0.62382 0.29587 0.0
H3856 H 0.72146 0.64553 0.26421 0.0
H3857 H 0.7057 0.6857 0.31698 0.0
H3858 H 0.69709 0.68345 0.34344 0.0
H3859 H 0.71726 0.64259 0.34799 0.0
H3860 H 0.72616 0.64472 0.32169 0.0
H3861 H 0.74973 0.72614 0.25798 0.0
H3862 H 0.73305 0.70167 0.26117 0.0
H3863 H 0.7616 0.69856 0.30539 0.0
H3864 H 0.778 0.72338 0.30255 0.0
H3865 H 0.73337 0.69078 0.30924 0.0
H3866 H 0.76279 0.67599 0.26863 0.0
H3867 H 0.77319 0.67772 0.24309 0.0
H3868 H 0.72889 0.66635 0.21576 0.0
H3869 H 0.71822 0.66475 0.24118 0.0
C3870 C 0.70403 0.60965 0.28839 0.0
C3871 C 0.68929 0.6092 0.29146 0.0
C3872 C 0.71332 0.62408 0.28742 0.0
C3873 C 0.70819 0.63845 0.28968 0.0
C3874 C 0.69354 0.63811 0.29288 0.0
C3875 C 0.68419 0.62366 0.29376 0.0
C3876 C 0.71811 0.65373 0.2885 0.0
C3877 C 0.72403 0.65544 0.27405 0.0
C3878 C 0.72165 0.6666 0.30139 0.0
C3879 C 0.71644 0.66527 0.31727 0.0
C3880 C 0.70832 0.67626 0.32365 0.0
C3881 C 0.7034 0.675 0.33862 0.0
C3882 C 0.70658 0.66285 0.34736 0.0
C3883 C 0.71474 0.65195 0.34117 0.0
C3884 C 0.71971 0.65317 0.32622 0.0
C3885 C 0.75232 0.72035 0.2685 0.0
C3886 C 0.76511 0.7267 0.28007 0.0
C3887 C 0.74286 0.70628 0.27024 0.0
C3888 C 0.74614 0.69812 0.28343 0.0
C3889 C 0.75881 0.70461 0.29512 0.0
C3890 C 0.76821 0.71875 0.29345 0.0
C3891 C 0.73659 0.68266 0.28488 0.0
C3892 C 0.73073 0.68091 0.29936 0.0
C3893 C 0.73331 0.66965 0.27212 0.0
C3894 C 0.73971 0.67038 0.25681 0.0
C3895 C 0.75527 0.67394 0.25718 0.0
C3896 C 0.76121 0.67489 0.24273 0.0
C3897 C 0.7517 0.67218 0.22782 0.0
C3898 C 0.73623 0.66846 0.22732 0.0
C3899 C 0.73024 0.66751 0.24175 0.0
H3900 H 0.75632 0.67294 0.21664 0.0
H3901 H 0.70275 0.6619 0.35894 0.0
H3902 H 0.86199 0.44777 0.7812 0.0
H3903 H 0.85002 0.42056 0.78241 0.0
H3904 H 0.83646 0.41289 0.73047 0.0
H3905 H 0.84756 0.4405 0.72925 0.0
H3906 H 0.815 0.39737 0.74167 0.0
H3907 H 0.8673 0.3975 0.75297 0.0
H3908 H 0.89327 0.40635 0.76699 0.0
H3909 H 0.87947 0.39574 0.81214 0.0
H3910 H 0.85338 0.38702 0.79843 0.0
H3911 H 0.7963 0.31185 0.73566 0.0
H3912 H 0.808 0.33927 0.73382 0.0
H3913 H 0.81788 0.34935 0.78609 0.0
H3914 H 0.80629 0.32194 0.788 0.0
H3915 H 0.84127 0.3633 0.77424 0.0
H3916 H 0.78869 0.36295 0.76216 0.0
H3917 H 0.76307 0.35335 0.74738 0.0
H3918 H 0.778 0.36359 0.70264 0.0
H3919 H 0.80376 0.37307 0.71712 0.0
C3920 C 0.85633 0.44054 0.76994 0.0
C3921 C 0.85601 0.44693 0.75509 0.0
C3922 C 0.84959 0.4246 0.77063 0.0
C3923 C 0.84241 0.41404 0.7565 0.0
C3924 C 0.84189 0.4204 0.74168 0.0
C3925 C 0.84852 0.4364 0.74098 0.0
C3926 C 0.83541 0.39662 0.75718 0.0
C3927 C 0.82095 0.38996 0.74864 0.0
C3928 C 0.84271 0.38653 0.76642 0.0
C3929 C 0.85837 0.39176 0.7747 0.0
C3930 C 0.86979 0.39716 0.76591 0.0
C3931 C 0.88453 0.40214 0.7738 0.0
C3932 C 0.88801 0.40165 0.79046 0.0
C3933 C 0.87676 0.39614 0.79925 0.0
C3934 C 0.86199 0.39117 0.79142 0.0
C3935 C 0.80092 0.31984 0.74683 0.0
C3936 C 0.80014 0.31436 0.76201 0.0
C3937 C 0.80762 0.33573 0.74575 0.0
C3938 C 0.81383 0.34687 0.7598 0.0
C3939 C 0.81326 0.34131 0.77495 0.0
C3940 C 0.80651 0.32547 0.77604 0.0
C3941 C 0.82091 0.36414 0.7588 0.0
C3942 C 0.83537 0.37075 0.76727 0.0
C3943 C 0.81367 0.37412 0.74939 0.0
C3944 C 0.79818 0.36858 0.74069 0.0
C3945 C 0.78653 0.36307 0.74915 0.0
C3946 C 0.77198 0.35766 0.74083 0.0
C3947 C 0.76892 0.35782 0.72408 0.0
C3948 C 0.78039 0.36345 0.71561 0.0
C3949 C 0.79497 0.36886 0.72387 0.0
H3950 H 0.75765 0.35362 0.71766 0.0
H3951 H 0.89943 0.40551 0.79654 0.0
H3952 H 0.06708 0.8687 0.09932 0.0
H3953 H 0.06577 0.89311 0.08749 0.0
H3954 H 0.02008 0.87388 0.06572 0.0
H3955 H 0.02149 0.84921 0.07691 0.0
H3956 H 0.03383 0.88845 0.04465 0.0
H3957 H 0.0301 0.90259 0.10095 0.0
H3958 H 0.03796 0.90561 0.13063 0.0
H3959 H 0.07874 0.93666 0.12641 0.0
H3960 H 0.07121 0.93365 0.09667 0.0
H3961 H 0.00938 0.95937 0.02822 0.0
H3962 H 0.01345 0.93518 0.0391 0.0
H3963 H 0.0598 0.95641 0.0556 0.0
H3964 H 0.05582 0.98081 0.04472 0.0
H3965 H 0.04722 0.94127 0.07906 0.0
H3966 H 0.05013 0.928 0.02268 0.0
H3967 H 0.04176 0.92523 0.99312 0.0
H3968 H 1.00202 0.89264 0.99763 0.0
H3969 H 0.01005 0.89539 0.02727 0.0
C3970 C 0.05678 0.86954 0.09187 0.0
C3971 C 0.04437 0.85685 0.08921 0.0
C3972 C 0.05599 0.88366 0.08524 0.0
C3973 C 0.04274 0.88558 0.07585 0.0
C3974 C 0.03043 0.87284 0.07295 0.0
C3975 C 0.03122 0.85872 0.07953 0.0
C3976 C 0.04165 0.90075 0.06898 0.0
C3977 C 0.03661 0.89995 0.05226 0.0
C3978 C 0.04561 0.91594 0.0787 0.0
C3979 C 0.05017 0.91775 0.09657 0.0
C3980 C 0.0408 0.90996 0.10634 0.0
C3981 C 0.04518 0.91169 0.12317 0.0
C3982 C 0.05886 0.92128 0.13039 0.0
C3983 C 0.06817 0.9292 0.1208 0.0
C3984 C 0.06384 0.9275 0.10395 0.0
C3985 C 0.0205 0.95893 0.03405 0.0
C3986 C 0.03228 0.97211 0.03547 0.0
C3987 C 0.02281 0.94501 0.04026 0.0
C3988 C 0.03697 0.94382 0.04809 0.0
C3989 C 0.04877 0.95697 0.04961 0.0
C3990 C 0.04649 0.97091 0.04329 0.0
C3991 C 0.03929 0.9289 0.0548 0.0
C3992 C 0.04454 0.92975 0.07147 0.0
C3993 C 0.03547 0.91375 0.04505 0.0
C3994 C 0.03063 0.91201 0.02722 0.0
C3995 C 0.03955 0.92034 0.01739 0.0
C3996 C 0.03487 0.91876 1.00061 0.0
C3997 C 0.02135 0.9088 0.99351 0.0
C3998 C 0.01249 0.90037 1.00316 0.0
C3999 C 0.0171 0.90192 0.01994 0.0
H4000 H 0.01775 0.90759 0.98052 0.0
H4001 H 0.06223 0.92261 0.14343 0.0
H4002 H 0.92168 0.25743 0.87411 0.0
H4003 H 0.89771 0.26016 0.85941 0.0
H4004 H 0.91317 0.2492 0.81377 0.0
H4005 H 0.93724 0.24662 0.82843 0.0
H4006 H 0.89902 0.27275 0.81185 0.0
H4007 H 0.88767 0.22182 0.82989 0.0
H4008 H 0.88641 0.20294 0.84983 0.0
H4009 H 0.85866 0.22905 0.87521 0.0
H4010 H 0.85992 0.24822 0.85554 0.0
H4011 H 0.83027 0.25159 0.75842 0.0
H4012 H 0.85364 0.25107 0.77574 0.0
H4013 H 0.83615 0.26947 0.81776 0.0
H4014 H 0.8127 0.27034 0.80024 0.0
H4015 H 0.85078 0.24364 0.82294 0.0
H4016 H 0.86111 0.29365 0.80338 0.0
H4017 H 0.86203 0.31174 0.78269 0.0
H4018 H 0.89159 0.28645 0.75942 0.0
H4019 H 0.89066 0.26805 0.77984 0.0
C4020 C 0.91995 0.25543 0.86094 0.0
C4021 C 0.93146 0.25171 0.8525 0.0
C4022 C 0.90618 0.257 0.85251 0.0
C4023 C 0.90342 0.25469 0.8354 0.0
C4024 C 0.91493 0.25108 0.82695 0.0
C4025 C 0.92874 0.24962 0.83537 0.0
C4026 C 0.88867 0.2562 0.82628 0.0
C4027 C 0.88851 0.26622 0.81419 0.0
C4028 C 0.8748 0.24807 0.82952 0.0
C4029 C 0.87402 0.23655 0.84135 0.0
C4030 C 0.88139 0.22361 0.8398 0.0
C4031 C 0.88067 0.21284 0.85104 0.0
C4032 C 0.8725 0.21482 0.8638 0.0
C4033 C 0.86501 0.22755 0.86533 0.0
C4034 C 0.86571 0.23836 0.85413 0.0
C4035 C 0.83136 0.25556 0.77135 0.0
C4036 C 0.81951 0.26085 0.77797 0.0
C4037 C 0.84478 0.25528 0.78125 0.0
C4038 C 0.84675 0.26028 0.79809 0.0
C4039 C 0.8349 0.26549 0.80482 0.0
C4040 C 0.82146 0.26592 0.79482 0.0
C4041 C 0.86123 0.26 0.80845 0.0
C4042 C 0.86132 0.25023 0.82073 0.0
C4043 C 0.87504 0.26827 0.80533 0.0
C4044 C 0.87571 0.27938 0.79307 0.0
C4045 C 0.86771 0.29187 0.79378 0.0
C4046 C 0.86825 0.30219 0.78211 0.0
C4047 C 0.87684 0.30023 0.76973 0.0
C4048 C 0.88493 0.28795 0.76901 0.0
C4049 C 0.88441 0.27758 0.78064 0.0
H4050 H 0.87724 0.30824 0.7607 0.0
H4051 H 0.87195 0.20647 0.87249 0.0
H4052 H 0.55603 0.19215 0.60223 0.0
H4053 H 0.55432 0.16471 0.58991 0.0
H4054 H 0.52242 0.17127 0.55 0.0
H4055 H 0.52443 0.199 0.56191 0.0
H4056 H 0.514 0.14257 0.56244 0.0
H4057 H 0.557 0.17084 0.54391 0.0
H4058 H 0.58148 0.18889 0.54729 0.0
H4059 H 0.60111 0.15853 0.57727 0.0
H4060 H 0.57668 0.1404 0.57427 0.0
H4061 H 0.51337 0.06939 0.51407 0.0
H4062 H 0.51531 0.09766 0.52365 0.0
H4063 H 0.55451 0.09696 0.55789 0.0
H4064 H 0.55314 0.06892 0.5475 0.0
H4065 H 0.55886 0.1233 0.54764 0.0
H4066 H 0.51649 0.09553 0.56764 0.0
H4067 H 0.49224 0.07722 0.56519 0.0
H4068 H 0.47155 0.10616 0.53431 0.0
H4069 H 0.49573 0.12453 0.5364 0.0
C4070 C 0.54881 0.18794 0.59069 0.0
C4071 C 0.54049 0.19803 0.58305 0.0
C4072 C 0.54777 0.17213 0.58371 0.0
C4073 C 0.53832 0.1659 0.56895 0.0
C4074 C 0.52977 0.17577 0.56141 0.0
C4075 C 0.5309 0.19166 0.56831 0.0
C4076 C 0.53747 0.14913 0.56138 0.0
C4077 C 0.52376 0.13839 0.559 0.0
C4078 C 0.55026 0.14352 0.55726 0.0
C4079 C 0.56498 0.15434 0.55898 0.0
C4080 C 0.56651 0.16807 0.55133 0.0
C4081 C 0.58038 0.17831 0.55316 0.0
C4082 C 0.59283 0.17488 0.56252 0.0
C4083 C 0.59145 0.16118 0.57004 0.0
C4084 C 0.5776 0.15091 0.56826 0.0
C4085 C 0.52247 0.07532 0.52356 0.0
C4086 C 0.53308 0.06691 0.53006 0.0
C4087 C 0.5235 0.09149 0.52917 0.0
C4088 C 0.53481 0.09952 0.5419 0.0
C4089 C 0.54562 0.09116 0.54813 0.0
C4090 C 0.54484 0.07509 0.54218 0.0
C4091 C 0.53537 0.11653 0.5488 0.0
C4092 C 0.54905 0.12738 0.55107 0.0
C4093 C 0.52257 0.12217 0.55303 0.0
C4094 C 0.50795 0.11133 0.55207 0.0
C4095 C 0.50678 0.09796 0.56028 0.0
C4096 C 0.49305 0.08757 0.55895 0.0
C4097 C 0.48037 0.09051 0.54957 0.0
C4098 C 0.48138 0.10389 0.54155 0.0
C4099 C 0.49509 0.1143 0.54282 0.0
H4100 H 0.46975 0.08245 0.54854 0.0
H4101 H 0.60356 0.18282 0.56393 0.0
H4102 H 0.58986 0.75414 0.38382 0.0
H4103 H 0.61268 0.75586 0.37169 0.0
H4104 H 0.58761 0.75779 0.32495 0.0
H4105 H 0.56459 0.75536 0.33686 0.0
H4106 H 0.60685 0.73881 0.32124 0.0
H4107 H 0.61028 0.79149 0.3491 0.0
H4108 H 0.61035 0.81172 0.37251 0.0
H4109 H 0.64806 0.79753 0.39861 0.0
H4110 H 0.64808 0.77706 0.37543 0.0
H4111 H 0.66792 0.76544 0.28142 0.0
H4112 H 0.64547 0.76366 0.2942 0.0
H4113 H 0.67127 0.76028 0.34006 0.0
H4114 H 0.69396 0.7626 0.32745 0.0
H4115 H 0.6519 0.77978 0.34453 0.0
H4116 H 0.64859 0.72729 0.31644 0.0
H4117 H 0.64852 0.70718 0.29293 0.0
H4118 H 0.61056 0.7212 0.26713 0.0
H4119 H 0.61053 0.74154 0.29042 0.0
C4120 C 0.58911 0.75474 0.37092 0.0
C4121 C 0.57526 0.7546 0.36138 0.0
C4122 C 0.60227 0.75593 0.36401 0.0
C4123 C 0.60201 0.7572 0.3474 0.0
C4124 C 0.58819 0.7569 0.3378 0.0
C4125 C 0.57501 0.75566 0.34469 0.0
C4126 C 0.61607 0.75868 0.34 0.0
C4127 C 0.61661 0.74792 0.32623 0.0
C4128 C 0.62904 0.7703 0.34666 0.0
C4129 C 0.62908 0.78263 0.36059 0.0
C4130 C 0.61851 0.7926 0.35988 0.0
C4131 C 0.61855 0.80412 0.3731 0.0
C4132 C 0.62918 0.80588 0.38706 0.0
C4133 C 0.63982 0.79614 0.3878 0.0
C4134 C 0.63982 0.78459 0.37462 0.0
C4135 C 0.66892 0.76452 0.29428 0.0
C4136 C 0.68287 0.76419 0.30336 0.0
C4137 C 0.65598 0.76331 0.30155 0.0
C4138 C 0.65655 0.76161 0.31809 0.0
C4139 C 0.67047 0.76151 0.32727 0.0
C4140 C 0.68345 0.76271 0.31999 0.0
C4141 C 0.64264 0.75995 0.32574 0.0
C4142 C 0.64213 0.77067 0.33956 0.0
C4143 C 0.62969 0.74831 0.31912 0.0
C4144 C 0.62964 0.73604 0.30512 0.0
C4145 C 0.64029 0.72616 0.30571 0.0
C4146 C 0.64026 0.71471 0.29243 0.0
C4147 C 0.62956 0.71294 0.27853 0.0
C4148 C 0.61885 0.7226 0.2779 0.0
C4149 C 0.61884 0.73408 0.29114 0.0
H4150 H 0.62956 0.70407 0.26826 0.0
H4151 H 0.62919 0.81481 0.39728 0.0
H4152 H 0.04326 0.19766 0.38764 0.0
H4153 H 0.04737 0.17422 0.40028 0.0
H4154 H 0.05636 0.20268 0.44766 0.0
H4155 H 0.0523 0.22612 0.43511 0.0
H4156 H 0.07566 0.18056 0.44347 0.0
H4157 H 0.02272 0.18283 0.43503 0.0
H4158 H 0.99892 0.18391 0.4182 0.0
H4159 H 1.00051 0.14008 0.38894 0.0
H4160 H 0.02446 0.13888 0.40547 0.0
H4161 H 0.05741 0.1317 0.50191 0.0
H4162 H 0.0609 0.1513 0.4834 0.0
H4163 H 0.0435 0.11457 0.44239 0.0
H4164 H 0.03911 0.09501 0.46092 0.0
H4165 H 0.03053 0.13842 0.43935 0.0
H4166 H 0.08123 0.13349 0.45054 0.0
H4167 H 0.10499 0.1321 0.46723 0.0
H4168 H 0.10828 0.17991 0.49056 0.0
H4169 H 0.08442 0.18152 0.47418 0.0
C4170 C 0.04638 0.19894 0.40072 0.0
C4171 C 0.04735 0.21362 0.41045 0.0
C4172 C 0.04868 0.18557 0.4079 0.0
C4173 C 0.05208 0.18676 0.42488 0.0
C4174 C 0.05377 0.20157 0.43453 0.0
C4175 C 0.05133 0.21488 0.42738 0.0
C4176 C 0.0526 0.1724 0.43279 0.0
C4177 C 0.06583 0.17131 0.44263 0.0
C4178 C 0.03987 0.16017 0.43123 0.0
C4179 C 0.02546 0.16087 0.42134 0.0
C4180 C 0.01806 0.1735 0.42492 0.0
C4181 C 1.00453 0.17412 0.41545 0.0
C4182 C 0.99823 0.1621 0.40247 0.0
C4183 C 0.00543 0.1494 0.39897 0.0
C4184 C 0.01897 0.14875 0.40838 0.0
C4185 C 0.05431 0.12777 0.48895 0.0
C4186 C 0.04785 0.1118 0.48292 0.0
C4187 C 0.05655 0.13896 0.47835 0.0
C4188 C 0.05266 0.13438 0.46147 0.0
C4189 C 0.04666 0.11835 0.45537 0.0
C4190 C 0.04426 0.10717 0.46599 0.0
C4191 C 0.05357 0.14661 0.4504 0.0
C4192 C 0.04055 0.14738 0.43996 0.0
C4193 C 0.06655 0.15845 0.45134 0.0
C4194 C 0.08097 0.15759 0.46118 0.0
C4195 C 0.08696 0.14368 0.4593 0.0
C4196 C 0.10046 0.14285 0.4687 0.0
C4197 C 0.10813 0.1559 0.47996 0.0
C4198 C 0.10233 0.16981 0.48183 0.0
C4199 C 0.08883 0.1707 0.47247 0.0
H4200 H 0.11857 0.15523 0.48723 0.0
H4201 H 0.98776 0.16259 0.39516 0.0
H4202 H 0.61161 0.26747 0.24096 0.0
H4203 H 0.63797 0.27208 0.25315 0.0
H4204 H 0.64742 0.24317 0.21168 0.0
H4205 H 0.62156 0.23933 0.19891 0.0
H4206 H 0.66068 0.23798 0.24524 0.0
H4207 H 0.65443 0.27894 0.20958 0.0
H4208 H 0.64272 0.3011 0.20165 0.0
H4209 H 0.65725 0.32684 0.24981 0.0
H4210 H 0.66902 0.30478 0.25803 0.0
H4211 H 0.73526 0.25075 0.23566 0.0
H4212 H 0.70815 0.24799 0.23208 0.0
H4213 H 0.71265 0.29099 0.26589 0.0
H4214 H 0.73982 0.29418 0.26897 0.0
H4215 H 0.69154 0.29064 0.24254 0.0
H4216 H 0.70243 0.25336 0.27714 0.0
H4217 H 0.71381 0.23167 0.28686 0.0
H4218 H 0.69003 0.1994 0.24494 0.0
H4219 H 0.6787 0.22094 0.23478 0.0
C4220 C 0.61928 0.26212 0.23438 0.0
C4221 C 0.61437 0.25304 0.21888 0.0
C4222 C 0.63429 0.26465 0.24146 0.0
C4223 C 0.64451 0.25791 0.23328 0.0
C4224 C 0.63958 0.24831 0.21821 0.0
C4225 C 0.62472 0.24604 0.21099 0.0
C4226 C 0.6606 0.26166 0.23963 0.0
C4227 C 0.6675 0.24946 0.24471 0.0
C4228 C 0.66928 0.27683 0.23948 0.0
C4229 C 0.66244 0.29017 0.23446 0.0
C4230 C 0.65505 0.28929 0.21849 0.0
C4231 C 0.64844 0.30185 0.21394 0.0
C4232 C 0.64923 0.31537 0.22523 0.0
C4233 C 0.65667 0.31637 0.24108 0.0
C4234 C 0.66333 0.30386 0.24569 0.0
C4235 C 0.73047 0.25968 0.24222 0.0
C4236 C 0.73963 0.27263 0.25263 0.0
C4237 C 0.71497 0.25802 0.24029 0.0
C4238 C 0.70835 0.26904 0.24909 0.0
C4239 C 0.71751 0.28228 0.25909 0.0
C4240 C 0.73303 0.28411 0.26079 0.0
C4241 C 0.69187 0.26673 0.24763 0.0
C4242 C 0.68484 0.27921 0.2435 0.0
C4243 C 0.68305 0.25188 0.24904 0.0
C4244 C 0.68977 0.23882 0.25514 0.0
C4245 C 0.69969 0.24167 0.26993 0.0
C4246 C 0.70613 0.2294 0.27553 0.0
C4247 C 0.70265 0.21418 0.26652 0.0
C4248 C 0.69271 0.2112 0.2519 0.0
C4249 C 0.68627 0.22343 0.24622 0.0
H4250 H 0.70765 0.2047 0.27089 0.0
H4251 H 0.64411 0.32507 0.22169 0.0
H4252 H 0.53741 0.84688 0.95291 0.0
H4253 H 0.53745 0.87074 0.97194 0.0
H4254 H 0.51985 0.89302 0.93213 0.0
H4255 H 0.5202 0.86949 0.91305 0.0
H4256 H 0.54235 0.91303 0.95186 0.0
H4257 H 0.4975 0.87717 0.95776 0.0
H4258 H 0.48296 0.85209 0.96335 0.0
H4259 H 0.50808 0.85915 0.01146 0.0
H4260 H 0.52292 0.88418 0.00607 0.0
H4261 H 0.51494 0.97577 0.98741 0.0
H4262 H 0.5144 0.94922 0.97346 0.0
H4263 H 0.53643 0.93672 0.01748 0.0
H4264 H 0.53686 0.96345 0.0317 0.0
H4265 H 0.51383 0.9114 0.99818 0.0
H4266 H 0.55767 0.94827 0.99258 0.0
H4267 H 0.5715 0.9737 0.98696 0.0
H4268 H 0.54785 0.96487 0.93808 0.0
H4269 H 0.53369 0.93946 0.94348 0.0
C4270 C 0.53367 0.85692 0.94822 0.0
C4271 C 0.52874 0.85629 0.93149 0.0
C4272 C 0.53357 0.87048 0.95911 0.0
C4273 C 0.52852 0.88358 0.95345 0.0
C4274 C 0.52375 0.88302 0.93675 0.0
C4275 C 0.52384 0.86951 0.92588 0.0
C4276 C 0.52827 0.89801 0.96479 0.0
C4277 C 0.53603 0.91267 0.96191 0.0
C4278 C 0.52035 0.89747 0.97818 0.0
C4279 C 0.51143 0.88245 0.98144 0.0
C4280 C 0.50001 0.8733 0.96948 0.0
C4281 C 0.4917 0.85911 0.97262 0.0
C4282 C 0.49463 0.854 0.98773 0.0
C4283 C 0.50585 0.86311 0.99975 0.0
C4284 C 0.5142 0.8773 0.99666 0.0
C4285 C 0.51936 0.96727 0.99426 0.0
C4286 C 0.52609 0.97168 0.01058 0.0
C4287 C 0.51907 0.95213 0.98625 0.0
C4288 C 0.52562 0.94117 0.99439 0.0
C4289 C 0.53138 0.94509 0.01102 0.0
C4290 C 0.53164 0.96032 0.0191 0.0
C4291 C 0.52764 0.92633 0.98497 0.0
C4292 C 0.52028 0.91167 0.98823 0.0
C4293 C 0.53591 0.92683 0.97189 0.0
C4294 C 0.54456 0.94199 0.96848 0.0
C4295 C 0.55535 0.95179 0.98066 0.0
C4296 C 0.56325 0.96619 0.97751 0.0
C4297 C 0.56056 0.97088 0.96217 0.0
C4298 C 0.54994 0.96119 0.94995 0.0
C4299 C 0.54198 0.94678 0.95305 0.0
H4300 H 0.56676 0.98199 0.95975 0.0
H4301 H 0.48818 0.84302 0.99014 0.0
H4302 H 0.95681 0.71688 0.70551 0.0
H4303 H 0.93526 0.71549 0.71957 0.0
H4304 H 0.96057 0.75145 0.75811 0.0
H4305 H 0.98264 0.75193 0.74485 0.0
H4306 H 0.94147 0.73191 0.77043 0.0
H4307 H 0.93866 0.76079 0.72463 0.0
H4308 H 0.93876 0.76459 0.69592 0.0
H4309 H 0.90087 0.72634 0.68128 0.0
H4310 H 0.90068 0.72218 0.70991 0.0
H4311 H 0.88686 0.77891 0.78784 0.0
H4312 H 0.90797 0.76696 0.78142 0.0
H4313 H 0.87755 0.72609 0.75362 0.0
H4314 H 0.85633 0.73769 0.7604 0.0
H4315 H 0.89761 0.74356 0.73612 0.0
H4316 H 0.89801 0.72053 0.78487 0.0
H4317 H 0.8986 0.71936 0.81413 0.0
H4318 H 0.94154 0.75055 0.82443 0.0
H4319 H 0.94117 0.75201 0.79518 0.0
C4320 C 0.95804 0.72414 0.71723 0.0
C4321 C 0.9715 0.73475 0.72386 0.0
C4322 C 0.94559 0.72345 0.72518 0.0
C4323 C 0.94616 0.73369 0.73966 0.0
C4324 C 0.9598 0.74353 0.74686 0.0
C4325 C 0.97237 0.74398 0.7391 0.0
C4326 C 0.9323 0.73537 0.74638 0.0
C4327 C 0.93189 0.73453 0.76297 0.0
C4328 C 0.9197 0.73855 0.73658 0.0
C4329 C 0.91977 0.74105 0.71937 0.0
C4330 C 0.93042 0.75312 0.71527 0.0
C4331 C 0.93049 0.75534 0.69902 0.0
C4332 C 0.91986 0.74568 0.68678 0.0
C4333 C 0.90912 0.73379 0.69077 0.0
C4334 C 0.90902 0.7315 0.70701 0.0
C4335 C 0.88463 0.76715 0.78082 0.0
C4336 C 0.86992 0.75938 0.77438 0.0
C4337 C 0.89671 0.76034 0.77716 0.0
C4338 C 0.89427 0.7457 0.76701 0.0
C4339 C 0.87962 0.73744 0.76143 0.0
C4340 C 0.86754 0.74415 0.7652 0.0
C4341 C 0.90686 0.74035 0.7602 0.0
C4342 C 0.90705 0.74062 0.74355 0.0
C4343 C 0.91933 0.7371 0.77008 0.0
C4344 C 0.91954 0.73639 0.78775 0.0
C4345 C 0.90756 0.7272 0.79333 0.0
C4346 C 0.90786 0.72648 0.80995 0.0
C4347 C 0.9201 0.73489 0.82114 0.0
C4348 C 0.93207 0.74403 0.81574 0.0
C4349 C 0.93183 0.74477 0.79913 0.0
H4350 H 0.92031 0.73432 0.834 0.0
H4351 H 0.91993 0.74742 0.67421 0.0
H4352 H 0.08524 1.00024 0.86068 0.0
H4353 H 0.07448 0.9967 0.88541 0.0
H4354 H 0.09525 0.04485 0.90624 0.0
H4355 H 0.10651 0.04833 0.88168 0.0
H4356 H 0.09769 0.0248 0.92868 0.0
H4357 H 0.05825 0.03552 0.89069 0.0
H4358 H 0.04132 0.03189 0.86458 0.0
H4359 H 0.0236 0.98393 0.8709 0.0
H4360 H 0.04057 0.9872 0.89696 0.0
H4361 H 0.05164 0.03249 0.99068 0.0
H4362 H 0.06503 0.03547 0.9675 0.0
H4363 H 0.04567 0.98691 0.94676 0.0
H4364 H 0.03223 0.98388 0.96993 0.0
H4365 H 0.04285 0.00734 0.9246 0.0
H4366 H 0.0819 0.997 0.96322 0.0
H4367 H 0.09811 1.00121 0.98985 0.0
H4368 H 0.11623 0.04882 0.98277 0.0
H4369 H 0.0999 0.04501 0.95622 0.0
C4370 C 0.08768 0.01006 0.87056 0.0
C4371 C 0.09675 0.0246 0.8691 0.0
C4372 C 0.08139 0.00805 0.88468 0.0
C4373 C 0.0839 0.02056 0.89767 0.0
C4374 C 0.09311 0.03503 0.89638 0.0
C4375 C 0.09941 0.03705 0.88224 0.0
C4376 C 0.07669 0.01857 0.91244 0.0
C4377 C 0.08568 0.02117 0.92781 0.0
C4378 C 0.06104 0.01355 0.91134 0.0
C4379 C 0.05079 0.01156 0.8957 0.0
C4380 C 0.05082 0.02416 0.88645 0.0
C4381 C 0.04121 0.02217 0.87167 0.0
C4382 C 0.03142 0.00767 0.86606 0.0
C4383 C 0.0312 0.99514 0.87525 0.0
C4384 C 0.04081 0.99706 0.89003 0.0
C4385 C 0.05043 0.02237 0.98132 0.0
C4386 C 0.04091 0.00793 0.98214 0.0
C4387 C 0.05809 0.02409 0.96806 0.0
C4388 C 0.05641 0.01139 0.95539 0.0
C4389 C 0.04712 0.99687 0.95637 0.0
C4390 C 0.03951 0.99513 0.96965 0.0
C4391 C 0.06383 0.01345 0.94081 0.0
C4392 C 0.05486 0.01091 0.92548 0.0
C4393 C 0.07947 0.01856 0.94198 0.0
C4394 C 0.08957 0.02076 0.95778 0.0
C4395 C 0.08927 0.00841 0.96738 0.0
C4396 C 0.09848 0.01072 0.98247 0.0
C4397 C 0.10817 0.02528 0.98802 0.0
C4398 C 0.10871 0.03754 0.97846 0.0
C4399 C 0.09948 0.03532 0.96339 0.0
H4400 H 0.11528 0.02705 0.9997 0.0
H4401 H 0.02398 0.00616 0.85462 0.0
H4402 H 0.81628 0.33221 0.55422 0.0
H4403 H 0.82853 0.31806 0.5741 0.0
H4404 H 0.80059 0.33202 0.60859 0.0
H4405 H 0.78899 0.34681 0.58924 0.0
H4406 H 0.82676 0.33132 0.62428 0.0
H4407 H 0.79068 0.29608 0.58053 0.0
H4408 H 0.78188 0.28431 0.55183 0.0
H4409 H 0.82318 0.26804 0.54957 0.0
H4410 H 0.83225 0.27987 0.57823 0.0
H4411 H 0.78566 0.25962 0.64745 0.0
H4412 H 0.79508 0.27215 0.62549 0.0
H4413 H 0.83884 0.28647 0.6545 0.0
H4414 H 0.82939 0.27379 0.67679 0.0
H4415 H 0.81593 0.27303 0.60627 0.0
H4416 H 0.85094 0.32523 0.65004 0.0
H4417 H 0.85492 0.33667 0.67909 0.0
H4418 H 0.80889 0.31857 0.68175 0.0
H4419 H 0.80463 0.30723 0.65269 0.0
C4420 C 0.81307 0.33262 0.56621 0.0
C4421 C 0.80146 0.34037 0.57006 0.0
C4422 C 0.82001 0.32445 0.57752 0.0
C4423 C 0.81531 0.32375 0.59273 0.0
C4424 C 0.80442 0.33236 0.59692 0.0
C4425 C 0.79762 0.34063 0.58575 0.0
C4426 C 0.82015 0.31272 0.60372 0.0
C4427 C 0.82479 0.31859 0.62029 0.0
C4428 C 0.81764 0.29611 0.59855 0.0
C4429 C 0.8122 0.28901 0.58139 0.0
C4430 C 0.7979 0.29006 0.57386 0.0
C4431 C 0.79286 0.28338 0.55762 0.0
C4432 C 0.80199 0.27548 0.54886 0.0
C4433 C 0.81615 0.2742 0.55635 0.0
C4434 C 0.82124 0.2809 0.57258 0.0
C4435 C 0.79743 0.26487 0.64901 0.0
C4436 C 0.80672 0.26593 0.66397 0.0
C4437 C 0.80283 0.27205 0.63639 0.0
C4438 C 0.8176 0.28047 0.63845 0.0
C4439 C 0.82734 0.2802 0.65276 0.0
C4440 C 0.82191 0.27305 0.66549 0.0
C4441 C 0.82157 0.29161 0.62686 0.0
C4442 C 0.81873 0.28579 0.61018 0.0
C4443 C 0.82518 0.30825 0.63195 0.0
C4444 C 0.82755 0.31524 0.64931 0.0
C4445 C 0.84169 0.32374 0.65685 0.0
C4446 C 0.84398 0.3302 0.6733 0.0
C4447 C 0.83218 0.32829 0.68227 0.0
C4448 C 0.81803 0.32 0.6748 0.0
C4449 C 0.81567 0.31357 0.65835 0.0
H4450 H 0.83399 0.33327 0.69501 0.0
H4451 H 0.79807 0.27031 0.53629 0.0
H4452 H 0.47095 0.04635 0.34063 0.0
H4453 H 0.48376 0.04429 0.36751 0.0
H4454 H 0.44195 0.02313 0.38084 0.0
H4455 H 0.42901 0.02533 0.35397 0.0
H4456 H 0.45679 0.04095 0.40683 0.0
H4457 H 0.47105 1.00137 0.37068 0.0
H4458 H 0.48095 0.9904 0.34676 0.0
H4459 H 0.52325 0.02183 0.3634 0.0
H4460 H 0.51354 0.03313 0.38732 0.0
H4461 H 0.49406 0.01619 0.47915 0.0
H4462 H 0.47879 0.01771 0.45317 0.0
H4463 H 0.5185 0.03826 0.43517 0.0
H4464 H 0.53363 0.03611 0.46069 0.0
H4465 H 0.50335 0.01928 0.41165 0.0
H4466 H 0.48797 0.05925 0.44808 0.0
H4467 H 0.4778 0.06823 0.47261 0.0
H4468 H 0.43713 0.03409 0.45594 0.0
H4469 H 0.44711 0.02481 0.43136 0.0
C4470 C 0.46437 0.04109 0.34912 0.0
C4471 C 0.44874 0.03594 0.34462 0.0
C4472 C 0.47182 0.03988 0.36472 0.0
C4473 C 0.46409 0.03322 0.37659 0.0
C4474 C 0.44845 0.02832 0.37224 0.0
C4475 C 0.44096 0.02963 0.35666 0.0
C4476 C 0.47228 0.03128 0.39326 0.0
C4477 C 0.46689 0.03605 0.40775 0.0
C4478 C 0.48562 0.02497 0.39505 0.0
C4479 C 0.49151 0.0182 0.3807 0.0
C4480 C 0.48243 0.00601 0.36918 0.0
C4481 C 0.48801 0.99973 0.35563 0.0
C4482 C 0.50271 1.00544 0.35354 0.0
C4483 C 0.51186 0.01743 0.36502 0.0
C4484 C 0.50633 0.02377 0.37858 0.0
C4485 C 0.49953 0.02117 0.46974 0.0
C4486 C 0.51521 0.02608 0.47231 0.0
C4487 C 0.49072 0.02213 0.45472 0.0
C4488 C 0.49722 0.02834 0.44178 0.0
C4489 C 0.51289 0.03336 0.44456 0.0
C4490 C 0.52164 0.0322 0.45939 0.0
C4491 C 0.48813 0.02935 0.42527 0.0
C4492 C 0.49331 0.0243 0.41076 0.0
C4493 C 0.47456 0.03527 0.42352 0.0
C4494 C 0.46833 0.04126 0.43795 0.0
C4495 C 0.47686 0.05365 0.44966 0.0
C4496 C 0.47113 0.05879 0.46357 0.0
C4497 C 0.45684 0.05171 0.46585 0.0
C4498 C 0.4482 0.03956 0.45416 0.0
C4499 C 0.45388 0.03438 0.44022 0.0
H4500 H 0.45245 0.05565 0.47667 0.0
H4501 H 0.50701 1.00056 0.34304 0.0
H4502 H 0.74845 0.68291 0.08976 0.0
H4503 H 0.74982 0.69561 0.11763 0.0
H4504 H 0.79371 0.72228 0.11601 0.0
H4505 H 0.79277 0.70899 0.08837 0.0
H4506 H 0.79359 0.71203 0.14423 0.0
H4507 H 0.76163 0.73936 0.11298 0.0
H4508 H 0.74018 0.74185 0.09312 0.0
H4509 H 0.7099 0.71898 0.12189 0.0
H4510 H 0.73118 0.71616 0.14183 0.0
H4511 H 0.79672 0.76367 0.21777 0.0
H4512 H 0.79607 0.75333 0.18919 0.0
H4513 H 0.75161 0.72636 0.18763 0.0
H4514 H 0.75197 0.73725 0.21601 0.0
H4515 H 0.75272 0.7379 0.16067 0.0
H4516 H 0.78513 0.7096 0.19133 0.0
H4517 H 0.80678 0.70795 0.21139 0.0
H4518 H 0.83643 0.73348 0.18373 0.0
H4519 H 0.81494 0.7354 0.16357 0.0
C4520 C 0.75849 0.69134 0.09532 0.0
C4521 C 0.77049 0.69486 0.08665 0.0
C4522 C 0.75918 0.69879 0.11127 0.0
C4523 C 0.77178 0.71015 0.11896 0.0
C4524 C 0.78381 0.71364 0.1104 0.0
C4525 C 0.78318 0.70612 0.09446 0.0
C4526 C 0.77245 0.71821 0.13595 0.0
C4527 C 0.78473 0.71787 0.14774 0.0
C4528 C 0.76083 0.72566 0.14075 0.0
C4529 C 0.74801 0.72742 0.12882 0.0
C4530 C 0.7504 0.73476 0.11502 0.0
C4531 C 0.73827 0.73625 0.10375 0.0
C4532 C 0.72368 0.73055 0.10622 0.0
C4533 C 0.7212 0.72338 0.11998 0.0
C4534 C 0.73329 0.72185 0.13128 0.0
C4535 C 0.78678 0.75557 0.21133 0.0
C4536 C 0.77442 0.75123 0.21923 0.0
C4537 C 0.78645 0.74956 0.19497 0.0
C4538 C 0.77391 0.73872 0.18621 0.0
C4539 C 0.76145 0.73465 0.19403 0.0
C4540 C 0.76167 0.74088 0.21031 0.0
C4541 C 0.77375 0.73153 0.169 0.0
C4542 C 0.76158 0.73206 0.15715 0.0
C4543 C 0.78548 0.72429 0.16415 0.0
C4544 C 0.79843 0.72274 0.17601 0.0
C4545 C 0.79627 0.71489 0.18955 0.0
C4546 C 0.80851 0.71391 0.20094 0.0
C4547 C 0.82297 0.72064 0.19885 0.0
C4548 C 0.82523 0.72828 0.18533 0.0
C4549 C 0.81303 0.72929 0.1739 0.0
H4550 H 0.83243 0.71991 0.20771 0.0
H4551 H 0.71431 0.73171 0.09748 0.0
H4552 H 0.06998 0.0115 0.70867 0.0
H4553 H 0.05965 0.00907 0.67985 0.0
H4554 H 0.10014 0.03802 0.67113 0.0
H4555 H 0.111 0.03972 0.69955 0.0
H4556 H 0.07084 0.0469 0.65869 0.0
H4557 H 0.09705 1.00257 0.65927 0.0
H4558 H 0.10237 0.97769 0.66836 0.0
H4559 H 0.05669 0.95473 0.65166 0.0
H4560 H 0.05104 0.97957 0.64272 0.0
H4561 H 0.06199 0.04163 0.57356 0.0
H4562 H 0.07133 0.042 0.60229 0.0
H4563 H 0.03941 0.999 0.6028 0.0
H4564 H 0.03072 0.99808 0.57374 0.0
H4565 H 0.06289 0.99673 0.62031 0.0
H4566 H 0.03539 0.0385 0.61948 0.0
H4567 H 0.02764 0.06269 0.61117 0.0
H4568 H 0.0717 0.08974 0.62939 0.0
H4569 H 0.07978 0.06566 0.63762 0.0
C4570 C 0.07684 0.01716 0.70065 0.0
C4571 C 0.09138 0.02589 0.70667 0.0
C4572 C 0.07084 0.01584 0.68417 0.0
C4573 C 0.07913 0.0234 0.6734 0.0
C4574 C 0.09353 0.03219 0.67929 0.0
C4575 C 0.09965 0.03326 0.69566 0.0
C4576 C 0.07282 0.0223 0.65597 0.0
C4577 C 0.06922 0.03599 0.65022 0.0
C4578 C 0.07016 0.0079 0.64512 0.0
C4579 C 0.07358 0.99299 0.65053 0.0
C4580 C 0.0881 0.99228 0.65771 0.0
C4581 C 0.09118 0.97816 0.6628 0.0
C4582 C 0.07986 0.96465 0.66064 0.0
C4583 C 0.06544 0.96521 0.65336 0.0
C4584 C 0.06229 0.9793 0.64828 0.0
C4585 C 0.05698 0.03225 0.57981 0.0
C4586 C 0.04556 0.01989 0.57144 0.0
C4587 C 0.06225 0.03253 0.59631 0.0
C4588 C 0.05584 0.02077 0.60498 0.0
C4589 C 0.04455 0.00827 0.59651 0.0
C4590 C 0.03955 0.00776 0.57988 0.0
C4591 C 0.061 0.02146 0.62278 0.0
C4592 C 0.06438 0.00768 0.62868 0.0
C4593 C 0.06304 0.0357 0.6339 0.0
C4594 C 0.05822 0.05024 0.62904 0.0
C4595 C 0.04345 0.04959 0.62162 0.0
C4596 C 0.039 0.06328 0.61694 0.0
C4597 C 0.04918 0.07774 0.61972 0.0
C4598 C 0.06383 0.07853 0.62723 0.0
C4599 C 0.06835 0.06487 0.63192 0.0
H4600 H 0.04571 0.08833 0.61608 0.0
H4601 H 0.08228 0.95373 0.66457 0.0
H4602 H 0.76629 0.30999 0.44051 0.0
H4603 H 0.77213 0.29735 0.41521 0.0
H4604 H 0.73125 0.30571 0.38915 0.0
H4605 H 0.72506 0.31806 0.41461 0.0
H4606 H 0.73895 0.27636 0.37727 0.0
H4607 H 0.76083 0.33236 0.39107 0.0
H4608 H 0.77542 0.3557 0.40982 0.0
H4609 H 0.81413 0.33407 0.41225 0.0
H4610 H 0.79967 0.31045 0.39374 0.0
H4611 H 0.77294 0.29519 0.30266 0.0
H4612 H 0.76614 0.30323 0.3292 0.0
H4613 H 0.7785 0.26131 0.34611 0.0
H4614 H 0.78597 0.25354 0.31969 0.0
H4615 H 0.7848 0.30718 0.36235 0.0
H4616 H 0.74628 0.24777 0.36476 0.0
H4617 H 0.73072 0.22498 0.34592 0.0
H4618 H 0.72396 0.2554 0.30967 0.0
H4619 H 0.7393 0.27836 0.32835 0.0
C4620 C 0.75826 0.30867 0.42952 0.0
C4621 C 0.74524 0.31511 0.42953 0.0
C4622 C 0.76168 0.30152 0.41506 0.0
C4623 C 0.75221 0.3008 0.40034 0.0
C4624 C 0.7387 0.3062 0.40042 0.0
C4625 C 0.73525 0.31337 0.41493 0.0
C4626 C 0.75728 0.29626 0.38476 0.0
C4627 C 0.749 0.28303 0.37404 0.0
C4628 C 0.77028 0.30515 0.38048 0.0
C4629 C 0.77913 0.31958 0.39114 0.0
C4630 C 0.77243 0.33255 0.39567 0.0
C4631 C 0.78068 0.34583 0.40625 0.0
C4632 C 0.79569 0.34636 0.41225 0.0
C4633 C 0.8025 0.33364 0.40761 0.0
C4634 C 0.79429 0.3203 0.39707 0.0
C4635 C 0.77456 0.28791 0.31215 0.0
C4636 C 0.78013 0.27387 0.30922 0.0
C4637 C 0.77061 0.29246 0.32725 0.0
C4638 C 0.77181 0.28282 0.3395 0.0
C4639 C 0.77751 0.26886 0.33672 0.0
C4640 C 0.78178 0.26448 0.32169 0.0
C4641 C 0.7666 0.28716 0.355 0.0
C4642 C 0.77484 0.30041 0.36568 0.0
C4643 C 0.75348 0.27841 0.35912 0.0
C4644 C 0.7441 0.26472 0.34787 0.0
C4645 C 0.74145 0.24958 0.35277 0.0
C4646 C 0.73266 0.23664 0.34213 0.0
C4647 C 0.72641 0.23872 0.32658 0.0
C4648 C 0.72888 0.25377 0.32167 0.0
C4649 C 0.73764 0.26674 0.33227 0.0
H4650 H 0.71961 0.22868 0.31836 0.0
H4651 H 0.80205 0.35663 0.42047 0.0
H4652 H 0.43822 1.00427 0.17041 0.0
H4653 H 0.45036 1.00189 0.14633 0.0
H4654 H 0.46252 0.05286 0.15092 0.0
H4655 H 0.45065 0.05542 0.1753 0.0
H4656 H 0.45513 0.04248 0.11953 0.0
H4657 H 0.48846 0.02718 0.16097 0.0
H4658 H 0.49593 0.01196 0.18277 0.0
H4659 H 0.4826 0.96848 0.14932 0.0
H4660 H 0.47487 0.98344 0.12736 0.0
H4661 H 0.52287 0.02272 0.07628 0.0
H4662 H 0.51029 0.02526 0.10021 0.0
H4663 H 0.4677 0.01582 0.06904 0.0
H4664 H 0.4803 0.01315 0.04499 0.0
H4665 H 0.49107 0.00631 0.1141 0.0
H4666 H 0.44267 0.03548 0.08809 0.0
H4667 H 0.43755 0.05279 0.06742 0.0
H4668 H 0.4845 0.07177 0.0718 0.0
H4669 H 0.48983 0.05474 0.09265 0.0
C4670 C 0.4436 0.01512 0.16666 0.0
C4671 C 0.44325 0.03011 0.17551 0.0
C4672 C 0.45063 0.0137 0.15255 0.0
C4673 C 0.45777 0.02714 0.14641 0.0
C4674 C 0.45723 0.04211 0.155 0.0
C4675 C 0.45025 0.04357 0.16917 0.0
C4676 C 0.46576 0.02559 0.13131 0.0
C4677 C 0.46288 0.03443 0.11843 0.0
C4678 C 0.4763 0.01543 0.12943 0.0
C4679 C 0.48095 0.00642 0.14257 0.0
C4680 C 0.48703 0.01437 0.15829 0.0
C4681 C 0.49132 1.00578 0.17067 0.0
C4682 C 0.48971 0.98926 0.16744 0.0
C4683 C 0.48383 0.98128 0.15181 0.0
C4684 C 0.4795 0.98981 0.13939 0.0
C4685 C 0.51081 0.02109 0.07437 0.0
C4686 C 0.50279 0.01763 0.05833 0.0
C4687 C 0.50352 0.02253 0.08827 0.0
C4688 C 0.48783 0.02085 0.0869 0.0
C4689 C 0.47977 0.01738 0.07086 0.0
C4690 C 0.48706 0.01576 0.05693 0.0
C4691 C 0.48008 0.0228 0.10212 0.0
C4692 C 0.48313 0.01415 0.11509 0.0
C4693 C 0.46984 0.03326 0.10414 0.0
C4694 C 0.46666 0.04371 0.09181 0.0
C4695 C 0.45189 0.04339 0.08469 0.0
C4696 C 0.44894 0.05315 0.07294 0.0
C4697 C 0.46069 0.06334 0.06826 0.0
C4698 C 0.4754 0.06384 0.07539 0.0
C4699 C 0.47839 0.05414 0.08717 0.0
H4700 H 0.45838 0.07085 0.05914 0.0
H4701 H 0.49304 0.98264 0.17704 0.0
H4702 H 0.78187 0.71267 0.93645 0.0
H4703 H 0.78263 0.72598 0.91221 0.0
H4704 H 0.75133 0.68607 0.88396 0.0
H4705 H 0.75044 0.67271 0.90825 0.0
H4706 H 0.77626 0.69724 0.86827 0.0
H4707 H 0.73881 0.7181 0.89441 0.0
H4708 H 0.72889 0.73089 0.9174 0.0
H4709 H 0.76303 0.7726 0.92114 0.0
H4710 H 0.7733 0.75996 0.89831 0.0
H4711 H 0.76424 0.73461 0.7979 0.0
H4712 H 0.76029 0.72045 0.82109 0.0
H4713 H 0.78197 0.76293 0.85398 0.0
H4714 H 0.78505 0.77734 0.83082 0.0
H4715 H 0.76095 0.74949 0.86708 0.0
H4716 H 0.79942 0.72933 0.84248 0.0
H4717 H 0.8103 0.71732 0.81982 0.0
H4718 H 0.77631 0.67518 0.81392 0.0
H4719 H 0.76508 0.68705 0.83639 0.0
C4720 C 0.77517 0.70669 0.92508 0.0
C4721 C 0.76607 0.6916 0.92435 0.0
C4722 C 0.77557 0.71435 0.91122 0.0
C4723 C 0.76701 0.70708 0.8962 0.0
C4724 C 0.75805 0.69194 0.89537 0.0
C4725 C 0.75746 0.68436 0.90931 0.0
C4726 C 0.76735 0.71538 0.88147 0.0
C4727 C 0.77272 0.70856 0.86791 0.0
C4728 C 0.76311 0.73037 0.88108 0.0
C4729 C 0.75691 0.73802 0.89475 0.0
C4730 C 0.74428 0.72994 0.90022 0.0
C4731 C 0.73858 0.73718 0.91321 0.0
C4732 C 0.74535 0.75253 0.92075 0.0
C4733 C 0.75781 0.7607 0.9153 0.0
C4734 C 0.76357 0.75351 0.90233 0.0
C4735 C 0.76794 0.741 0.81008 0.0
C4736 C 0.77495 0.75713 0.81247 0.0
C4737 C 0.76586 0.73282 0.82339 0.0
C4738 C 0.77116 0.74041 0.83946 0.0
C4739 C 0.77779 0.75667 0.84182 0.0
C4740 C 0.77959 0.76493 0.82852 0.0
C4741 C 0.77002 0.73147 0.85378 0.0
C4742 C 0.76449 0.73817 0.86733 0.0
C4743 C 0.77436 0.71648 0.85424 0.0
C4744 C 0.78132 0.70914 0.84102 0.0
C4745 C 0.79423 0.71753 0.8363 0.0
C4746 C 0.80045 0.71075 0.82349 0.0
C4747 C 0.79397 0.69551 0.8154 0.0
C4748 C 0.7813 0.68699 0.82017 0.0
C4749 C 0.775 0.69374 0.83296 0.0
H4750 H 0.79879 0.6903 0.80546 0.0
H4751 H 0.74091 0.75811 0.9308 0.0
H4752 H 0.84501 0.10277 0.97647 0.0
H4753 H 0.8602 0.08479 0.96526 0.0
H4754 H 0.89959 0.12168 0.97977 0.0
H4755 H 0.88425 0.13983 0.99047 0.0
H4756 H 0.90194 0.102 0.95238 0.0
H4757 H 0.88935 0.09743 0.00584 0.0
H4758 H 0.87215 0.09402 0.02593 0.0
H4759 H 0.85076 0.04821 0.99959 0.0
H4760 H 0.86769 0.0515 0.97917 0.0
H4761 H 0.95859 0.061 0.98051 0.0
H4762 H 0.94048 0.07775 0.97417 0.0
H4763 H 0.90538 0.03606 0.96146 0.0
H4764 H 0.92332 0.01929 0.96861 0.0
H4765 H 0.89887 0.05652 0.98377 0.0
H4766 H 0.91674 0.06044 0.9329 0.0
H4767 H 0.93599 0.06523 0.91524 0.0
H4768 H 0.94999 0.11341 0.93916 0.0
H4769 H 0.93085 0.10889 0.95698 0.0
C4770 C 0.85683 0.10714 0.97669 0.0
C4771 C 0.86359 0.12252 0.98432 0.0
C4772 C 0.86548 0.09691 0.97033 0.0
C4773 C 0.88105 0.10183 0.97198 0.0
C4774 C 0.8876 0.11767 0.97837 0.0
C4775 C 0.87889 0.12799 0.98453 0.0
C4776 C 0.89064 0.08993 0.96965 0.0
C4777 C 0.90131 0.09202 0.95918 0.0
C4778 C 0.88972 0.07689 0.97852 0.0
C4779 C 0.87965 0.0748 0.99088 0.0
C4780 C 0.8809 0.08669 0.00427 0.0
C4781 C 0.87121 0.08477 0.01572 0.0
C4782 C 0.86034 0.07093 0.01401 0.0
C4783 C 0.85916 0.05895 1.00087 0.0
C4784 C 0.8688 0.06083 0.98935 0.0
C4785 C 0.94704 0.05538 0.97621 0.0
C4786 C 0.94234 0.03884 0.97534 0.0
C4787 C 0.93672 0.06496 0.97234 0.0
C4788 C 0.92157 0.05815 0.96726 0.0
C4789 C 0.91703 0.04155 0.96532 0.0
C4790 C 0.92732 0.03196 0.96933 0.0
C4791 C 0.91025 0.06843 0.96639 0.0
C4792 C 0.8993 0.06616 0.9765 0.0
C4793 C 0.91119 0.08142 0.95744 0.0
C4794 C 0.92244 0.08428 0.9464 0.0
C4795 C 0.92396 0.07204 0.93445 0.0
C4796 C 0.93484 0.07471 0.92438 0.0
C4797 C 0.94423 0.0896 0.92609 0.0
C4798 C 0.94271 0.10188 0.93783 0.0
C4799 C 0.93182 0.09928 0.94789 0.0
H4800 H 0.95267 0.09164 0.91831 0.0
H4801 H 0.85285 0.06946 0.02288 0.0
H4802 H 0.37371 0.45644 0.05951 0.0
H4803 H 0.39864 0.47129 0.05831 0.0
H4804 H 0.4043 0.43497 0.02095 0.0
H4805 H 0.3796 0.41978 0.02248 0.0
H4806 H 0.42974 0.44464 0.04186 0.0
H4807 H 0.39537 0.47061 0.01189 0.0
H4808 H 0.37383 0.4839 0.00746 0.0
H4809 H 0.39435 0.52082 0.04696 0.0
H4810 H 0.41593 0.50763 0.05178 0.0
H4811 H 0.48932 0.49244 0.01088 0.0
H4812 H 0.46531 0.4761 0.01363 0.0
H4813 H 0.46226 0.50881 0.05553 0.0
H4814 H 0.48642 0.52485 0.05317 0.0
H4815 H 0.43578 0.50093 0.0323 0.0
H4816 H 0.46996 0.47521 0.06239 0.0
H4817 H 0.49165 0.46222 0.06707 0.0
H4818 H 0.47179 0.42525 0.02739 0.0
H4819 H 0.45002 0.43815 0.02233 0.0
C4820 C 0.38029 0.45148 0.05116 0.0
C4821 C 0.37447 0.43689 0.04102 0.0
C4822 C 0.39455 0.46009 0.05037 0.0
C4823 C 0.40337 0.45442 0.03935 0.0
C4824 C 0.39776 0.43969 0.0295 0.0
C4825 C 0.38351 0.43107 0.03028 0.0
C4826 C 0.4183 0.46395 0.03789 0.0
C4827 C 0.43099 0.45687 0.03955 0.0
C4828 C 0.42013 0.48006 0.03519 0.0
C4829 C 0.40719 0.48804 0.0323 0.0
C4830 C 0.39524 0.4815 0.01971 0.0
C4831 C 0.38303 0.48902 0.01712 0.0
C4832 C 0.38271 0.50317 0.02695 0.0
C4833 C 0.39461 0.50985 0.03937 0.0
C4834 C 0.40683 0.50236 0.04203 0.0
C4835 C 0.48364 0.49601 0.02082 0.0
C4836 C 0.48987 0.50986 0.03191 0.0
C4837 C 0.46989 0.48669 0.02234 0.0
C4838 C 0.46196 0.4912 0.03481 0.0
C4839 C 0.46813 0.50509 0.0458 0.0
C4840 C 0.48197 0.51423 0.04446 0.0
C4841 C 0.44713 0.48161 0.03627 0.0
C4842 C 0.43449 0.48868 0.03459 0.0
C4843 C 0.44536 0.46552 0.03894 0.0
C4844 C 0.45842 0.45773 0.04188 0.0
C4845 C 0.47027 0.46439 0.05456 0.0
C4846 C 0.48257 0.45703 0.05731 0.0
C4847 C 0.4831 0.44292 0.04753 0.0
C4848 C 0.47134 0.43617 0.03496 0.0
C4849 C 0.45902 0.44349 0.03216 0.0
H4850 H 0.49259 0.43721 0.04973 0.0
H4851 H 0.37325 0.50898 0.02492 0.0
H4852 H 0.36042 0.5645 0.7607 0.0
H4853 H 0.34711 0.58667 0.76005 0.0
H4854 H 0.38463 0.61511 0.74454 0.0
H4855 H 0.39811 0.59303 0.74538 0.0
H4856 H 0.37296 0.63197 0.76865 0.0
H4857 H 0.35511 0.59872 0.71721 0.0
H4858 H 0.34432 0.57351 0.69915 0.0
H4859 H 0.30451 0.56956 0.72116 0.0
H4860 H 0.31516 0.59464 0.73953 0.0
H4861 H 0.33547 0.69272 0.74526 0.0
H4862 H 0.34977 0.67157 0.74589 0.0
H4863 H 0.31084 0.63896 0.75335 0.0
H4864 H 0.29609 0.65965 0.75124 0.0
H4865 H 0.32396 0.62442 0.73305 0.0
H4866 H 0.3417 0.65734 0.78493 0.0
H4867 H 0.35211 0.68283 0.80269 0.0
H4868 H 0.39176 0.68746 0.78038 0.0
H4869 H 0.3815 0.66209 0.76233 0.0
C4870 C 0.36589 0.57552 0.75728 0.0
C4871 C 0.3803 0.57698 0.75303 0.0
C4872 C 0.35824 0.58814 0.75682 0.0
C4873 C 0.36483 0.60249 0.75212 0.0
C4874 C 0.37932 0.60412 0.74817 0.0
C4875 C 0.38695 0.59145 0.74852 0.0
C4876 C 0.35646 0.61567 0.75103 0.0
C4877 C 0.36232 0.6304 0.76074 0.0
C4878 C 0.34246 0.61352 0.74094 0.0
C4879 C 0.33599 0.59848 0.72985 0.0
C4880 C 0.3441 0.59241 0.71829 0.0
C4881 C 0.338 0.57816 0.70798 0.0
C4882 C 0.32375 0.56992 0.70903 0.0
C4883 C 0.31555 0.57594 0.72037 0.0
C4884 C 0.32161 0.59019 0.73073 0.0
C4885 C 0.32983 0.68103 0.74681 0.0
C4886 C 0.31454 0.67804 0.74823 0.0
C4887 C 0.33814 0.66895 0.74744 0.0
C4888 C 0.33151 0.65368 0.75001 0.0
C4889 C 0.31628 0.65064 0.75145 0.0
C4890 C 0.30788 0.66262 0.75048 0.0
C4891 C 0.34031 0.64076 0.75087 0.0
C4892 C 0.33456 0.62604 0.74105 0.0
C4893 C 0.35436 0.64292 0.76095 0.0
C4894 C 0.36078 0.65788 0.77219 0.0
C4895 C 0.35262 0.66382 0.78378 0.0
C4896 C 0.35849 0.67825 0.79389 0.0
C4897 C 0.37257 0.68678 0.79263 0.0
C4898 C 0.38085 0.68085 0.78133 0.0
C4899 C 0.37502 0.66643 0.77117 0.0
H4900 H 0.37707 0.69798 0.80043 0.0
H4901 H 0.31905 0.55889 0.70104 0.0
H4902 H 0.25819 0.58116 0.54949 0.0
H4903 H 0.23385 0.56496 0.551 0.0
H4904 H 0.21182 0.59695 0.52514 0.0
H4905 H 0.23577 0.61361 0.52454 0.0
H4906 H 0.19869 0.59089 0.5495 0.0
H4907 H 0.21585 0.55916 0.50706 0.0
H4908 H 0.23322 0.54397 0.49534 0.0
H4909 H 0.22841 0.5123 0.53101 0.0
H4910 H 0.21114 0.52743 0.54308 0.0
H4911 H 0.12682 0.54914 0.51901 0.0
H4912 H 0.15332 0.55907 0.51881 0.0
H4913 H 0.165 0.53091 0.55602 0.0
H4914 H 0.13837 0.52081 0.55626 0.0
H4915 H 0.18405 0.5331 0.52911 0.0
H4916 H 0.16508 0.56502 0.57 0.0
H4917 H 0.14672 0.58008 0.57967 0.0
H4918 H 0.15451 0.61175 0.54447 0.0
H4919 H 0.17274 0.5967 0.53441 0.0
C4920 C 0.24815 0.58478 0.54423 0.0
C4921 C 0.249 0.59863 0.53675 0.0
C4922 C 0.23425 0.57541 0.54494 0.0
C4923 C 0.221 0.57964 0.53803 0.0
C4924 C 0.22187 0.5934 0.53054 0.0
C4925 C 0.23565 0.60283 0.53001 0.0
C4926 C 0.20608 0.57019 0.53889 0.0
C4927 C 0.19553 0.57828 0.54494 0.0
C4928 C 0.20199 0.55363 0.53333 0.0
C4929 C 0.21236 0.54454 0.52609 0.0
C4930 C 0.2186 0.54903 0.51249 0.0
C4931 C 0.2284 0.54042 0.50576 0.0
C4932 C 0.23196 0.52721 0.51246 0.0
C4933 C 0.22567 0.52255 0.52586 0.0
C4934 C 0.21587 0.53114 0.53264 0.0
C4935 C 0.135 0.54471 0.52683 0.0
C4936 C 0.13054 0.53427 0.53772 0.0
C4937 C 0.15012 0.55044 0.52675 0.0
C4938 C 0.16103 0.54577 0.53748 0.0
C4939 C 0.15669 0.53459 0.54765 0.0
C4940 C 0.14152 0.52895 0.54785 0.0
C4941 C 0.17676 0.55398 0.53923 0.0
C4942 C 0.18739 0.54568 0.53379 0.0
C4943 C 0.18093 0.57041 0.54514 0.0
C4944 C 0.17018 0.57965 0.55137 0.0
C4945 C 0.1628 0.57512 0.56425 0.0
C4946 C 0.15243 0.58367 0.5698 0.0
C4947 C 0.14943 0.59685 0.56267 0.0
C4948 C 0.15683 0.60154 0.54998 0.0
C4949 C 0.16719 0.59301 0.54436 0.0
H4950 H 0.1414 0.60345 0.56698 0.0
H4951 H 0.23955 0.52055 0.50723 0.0
H4952 H 0.67712 0.90364 0.76991 0.0
H4953 H 0.68903 0.88052 0.76904 0.0
H4954 H 0.73225 0.91118 0.78174 0.0
H4955 H 0.72042 0.93448 0.78269 0.0
H4956 H 0.73542 0.88758 0.7604 0.0
H4957 H 0.7145 0.88408 0.8115 0.0
H4958 H 0.69385 0.88352 0.82764 0.0
H4959 H 0.6667 0.84573 0.79262 0.0
H4960 H 0.68716 0.84626 0.77623 0.0
H4961 H 0.77723 0.82699 0.77858 0.0
H4962 H 0.76481 0.8499 0.77904 0.0
H4963 H 0.72193 0.81833 0.76965 0.0
H4964 H 0.73438 0.79533 0.76948 0.0
H4965 H 0.71814 0.84218 0.7888 0.0
H4966 H 0.73894 0.84178 0.74001 0.0
H4967 H 0.75803 0.84147 0.72196 0.0
H4968 H 0.78314 0.88571 0.74856 0.0
H4969 H 0.76428 0.88621 0.76689 0.0
C4970 C 0.68916 0.90573 0.77281 0.0
C4971 C 0.69748 0.92156 0.77652 0.0
C4972 C 0.69611 0.89217 0.77234 0.0
C4973 C 0.71183 0.89352 0.77566 0.0
C4974 C 0.72019 0.90928 0.77912 0.0
C4975 C 0.71324 0.92287 0.7796 0.0
C4976 C 0.71946 0.87875 0.77535 0.0
C4977 C 0.73169 0.87783 0.76687 0.0
C4978 C 0.71465 0.86529 0.78308 0.0
C4979 C 0.70235 0.8651 0.79277 0.0
C4980 C 0.70411 0.87568 0.80728 0.0
C4981 C 0.69245 0.87538 0.81645 0.0
C4982 C 0.67898 0.86456 0.81119 0.0
C4983 C 0.67713 0.85408 0.79671 0.0
C4984 C 0.68877 0.85434 0.78751 0.0
C4985 C 0.76513 0.82477 0.77662 0.0
C4986 C 0.75705 0.80888 0.77397 0.0
C4987 C 0.7579 0.83811 0.77674 0.0
C4988 C 0.74212 0.83641 0.77409 0.0
C4989 C 0.73402 0.82051 0.77173 0.0
C4990 C 0.74126 0.80714 0.77159 0.0
C4991 C 0.73421 0.85099 0.77392 0.0
C4992 C 0.72192 0.85189 0.78231 0.0
C4993 C 0.73878 0.86427 0.76577 0.0
C4994 C 0.75027 0.86394 0.75495 0.0
C4995 C 0.7486 0.85138 0.74211 0.0
C4996 C 0.75936 0.85118 0.7318 0.0
C4997 C 0.77181 0.86354 0.73414 0.0
C4998 C 0.77351 0.87613 0.74678 0.0
C4999 C 0.76278 0.87639 0.75713 0.0
H5000 H 0.78012 0.86337 0.72613 0.0
H5001 H 0.66998 0.86433 0.81831 0.0
H5002 H 0.71553 0.917 0.51205 0.0
H5003 H 0.69333 0.92896 0.5107 0.0
H5004 H 0.70888 0.95419 0.55917 0.0
H5005 H 0.73125 0.94236 0.56059 0.0
H5006 H 0.67942 0.94217 0.55551 0.0
H5007 H 0.71147 0.97323 0.52557 0.0
H5008 H 0.72765 0.97788 0.50469 0.0
H5009 H 0.69092 0.9562 0.4671 0.0
H5010 H 0.67457 0.95122 0.48778 0.0
H5011 H 0.62847 0.99631 0.55101 0.0
H5012 H 0.65048 0.98393 0.55417 0.0
H5013 H 0.63732 0.95882 0.50533 0.0
H5014 H 0.61535 0.97115 0.50211 0.0
H5015 H 0.666 0.97137 0.50987 0.0
H5016 H 0.63396 0.94007 0.53987 0.0
H5017 H 0.61775 0.93569 0.56077 0.0
H5018 H 0.65435 0.95801 0.59825 0.0
H5019 H 0.67074 0.96273 0.57755 0.0
C5020 C 0.71438 0.92523 0.52239 0.0
C5021 C 0.72536 0.92876 0.53639 0.0
C5022 C 0.70159 0.93205 0.52161 0.0
C5023 C 0.69943 0.94268 0.53476 0.0
C5024 C 0.71022 0.94603 0.54885 0.0
C5025 C 0.72303 0.93921 0.54965 0.0
C5026 C 0.68597 0.95033 0.53371 0.0
C5027 C 0.67661 0.94874 0.54564 0.0
C5028 C 0.68204 0.95869 0.5207 0.0
C5029 C 0.69183 0.96172 0.50823 0.0
C5030 C 0.70687 0.96935 0.51286 0.0
C5031 C 0.71607 0.97206 0.50106 0.0
C5032 C 0.71033 0.9673 0.48458 0.0
C5033 C 0.69536 0.95986 0.47987 0.0
C5034 C 0.68612 0.9571 0.49162 0.0
C5035 C 0.63012 0.98796 0.54103 0.0
C5036 C 0.62009 0.9848 0.52629 0.0
C5037 C 0.64276 0.98088 0.54284 0.0
C5038 C 0.64562 0.97032 0.53002 0.0
C5039 C 0.63549 0.96697 0.51539 0.0
C5040 C 0.6229 0.97407 0.51356 0.0
C5041 C 0.65933 0.96309 0.53157 0.0
C5042 C 0.66878 0.9648 0.51974 0.0
C5043 C 0.66332 0.95486 0.54467 0.0
C5044 C 0.65354 0.95189 0.55715 0.0
C5045 C 0.63853 0.94414 0.55256 0.0
C5046 C 0.62931 0.94158 0.56437 0.0
C5047 C 0.63501 0.94661 0.58082 0.0
C5048 C 0.64995 0.95415 0.5855 0.0
C5049 C 0.65921 0.95676 0.57374 0.0
H5050 H 0.62785 0.94463 0.58995 0.0
H5051 H 0.71746 0.96941 0.47546 0.0
H5052 H 0.35519 0.42773 0.73069 0.0
H5053 H 0.33878 0.40233 0.73125 0.0
H5054 H 0.36794 0.39456 0.77302 0.0
H5055 H 0.38479 0.41948 0.77201 0.0
H5056 H 0.35926 0.36796 0.75326 0.0
H5057 H 0.33413 0.4075 0.77596 0.0
H5058 H 0.32288 0.43145 0.7767 0.0
H5059 H 0.29151 0.40994 0.73397 0.0
H5060 H 0.30272 0.38592 0.73285 0.0
H5061 H 0.30836 0.30904 0.78175 0.0
H5062 H 0.32549 0.33321 0.77854 0.0
H5063 H 0.29707 0.33704 0.73451 0.0
H5064 H 0.27997 0.31275 0.7376 0.0
H5065 H 0.30515 0.3653 0.75449 0.0
H5066 H 0.33056 0.32555 0.7323 0.0
H5067 H 0.3425 0.30212 0.73157 0.0
H5068 H 0.37339 0.32419 0.77449 0.0
H5069 H 0.36163 0.34782 0.77544 0.0
C5070 C 0.35824 0.42054 0.73987 0.0
C5071 C 0.37132 0.4258 0.75137 0.0
C5072 C 0.34872 0.40607 0.74031 0.0
C5073 C 0.35194 0.3966 0.75237 0.0
C5074 C 0.36512 0.40166 0.76365 0.0
C5075 C 0.37469 0.41605 0.76315 0.0
C5076 C 0.34163 0.38142 0.75328 0.0
C5077 C 0.34746 0.36745 0.75374 0.0
C5078 C 0.32614 0.38058 0.75355 0.0
C5079 C 0.31937 0.39498 0.75422 0.0
C5080 C 0.32491 0.40793 0.76665 0.0
C5081 C 0.31853 0.4215 0.76715 0.0
C5082 C 0.30652 0.42223 0.75537 0.0
C5083 C 0.30083 0.40936 0.74308 0.0
C5084 C 0.30719 0.39576 0.74251 0.0
C5085 C 0.30588 0.3149 0.77126 0.0
C5086 C 0.29291 0.30891 0.75983 0.0
C5087 C 0.31568 0.32873 0.76944 0.0
C5088 C 0.31267 0.33688 0.75618 0.0
C5089 C 0.29966 0.33095 0.7448 0.0
C5090 C 0.2899 0.31706 0.74657 0.0
C5091 C 0.32281 0.3519 0.75452 0.0
C5092 C 0.31694 0.36583 0.75396 0.0
C5093 C 0.33829 0.35273 0.7543 0.0
C5094 C 0.34512 0.33838 0.75402 0.0
C5095 C 0.3398 0.32534 0.74167 0.0
C5096 C 0.34657 0.31204 0.7412 0.0
C5097 C 0.35865 0.31162 0.75304 0.0
C5098 C 0.36401 0.32452 0.76535 0.0
C5099 C 0.35732 0.33789 0.76583 0.0
H5100 H 0.36394 0.30136 0.75264 0.0
H5101 H 0.30159 0.43276 0.75578 0.0
H5102 H 0.19023 0.58739 0.25363 0.0
H5103 H 0.20189 0.61483 0.25236 0.0
H5104 H 0.22422 0.61915 0.30163 0.0
H5105 H 0.21228 0.59172 0.30313 0.0
H5106 H 0.21492 0.64632 0.2978 0.0
H5107 H 0.24268 0.6151 0.26705 0.0
H5108 H 0.2463 0.59451 0.24571 0.0
H5109 H 0.226 0.61811 0.20889 0.0
H5110 H 0.22208 0.63874 0.23003 0.0
H5111 H 0.26444 0.72016 0.2959 0.0
H5112 H 0.25312 0.69276 0.298 0.0
H5113 H 0.23414 0.68546 0.24723 0.0
H5114 H 0.24598 0.71269 0.24496 0.0
H5115 H 0.2419 0.65963 0.25227 0.0
H5116 H 0.21356 0.69056 0.28267 0.0
H5117 H 0.20969 0.71122 0.3038 0.0
H5118 H 0.23052 0.68841 0.34097 0.0
H5119 H 0.23467 0.66769 0.32004 0.0
C5120 C 0.19752 0.59409 0.26432 0.0
C5121 C 0.20013 0.5869 0.27851 0.0
C5122 C 0.2044 0.60995 0.26351 0.0
C5123 C 0.21426 0.61944 0.27681 0.0
C5124 C 0.21678 0.61238 0.29106 0.0
C5125 C 0.20997 0.59645 0.29185 0.0
C5126 C 0.22184 0.63656 0.27585 0.0
C5127 C 0.22098 0.64911 0.28791 0.0
C5128 C 0.22959 0.64073 0.26287 0.0
C5129 C 0.23195 0.62837 0.25013 0.0
C5130 C 0.23889 0.61583 0.25441 0.0
C5131 C 0.24101 0.60417 0.24235 0.0
C5132 C 0.23635 0.60498 0.22596 0.0
C5133 C 0.22959 0.61748 0.22159 0.0
C5134 C 0.22742 0.62917 0.23361 0.0
C5135 C 0.25783 0.71279 0.28513 0.0
C5136 C 0.25623 0.71898 0.27024 0.0
C5137 C 0.25117 0.69696 0.28638 0.0
C5138 C 0.24231 0.68664 0.27288 0.0
C5139 C 0.24078 0.69282 0.25798 0.0
C5140 C 0.24759 0.7086 0.25668 0.0
C5141 C 0.2349 0.6695 0.27415 0.0
C5142 C 0.23582 0.6569 0.26215 0.0
C5143 C 0.22713 0.66531 0.28716 0.0
C5144 C 0.22454 0.67766 0.29978 0.0
C5145 C 0.21739 0.69 0.29535 0.0
C5146 C 0.21514 0.70171 0.30728 0.0
C5147 C 0.21988 0.70114 0.32371 0.0
C5148 C 0.22686 0.68884 0.32824 0.0
C5149 C 0.22915 0.6771 0.31634 0.0
H5150 H 0.2181 0.71021 0.33293 0.0
H5151 H 0.23801 0.59593 0.21664 0.0
H5152 H 0.52516 0.68786 0.47032 0.0
H5153 H 0.52687 0.66356 0.48219 0.0
H5154 H 0.49376 0.63652 0.44299 0.0
H5155 H 0.49199 0.6608 0.43104 0.0
H5156 H 0.48841 0.62635 0.4705 0.0
H5157 H 0.53186 0.63612 0.44477 0.0
H5158 H 0.55508 0.65166 0.43862 0.0
H5159 H 0.57503 0.65667 0.48872 0.0
H5160 H 0.55184 0.64133 0.49521 0.0
H5161 H 0.50119 0.54978 0.48541 0.0
H5162 H 0.49832 0.574 0.47399 0.0
H5163 H 0.53382 0.60107 0.51081 0.0
H5164 H 0.53725 0.5766 0.52167 0.0
H5165 H 0.53763 0.61123 0.48424 0.0
H5166 H 0.49276 0.60181 0.50971 0.0
H5167 H 0.46951 0.58509 0.5145 0.0
H5168 H 0.45268 0.57802 0.46334 0.0
H5169 H 0.47563 0.59486 0.45834 0.0
C5170 C 0.5183 0.67675 0.46411 0.0
C5171 C 0.5085 0.67641 0.44959 0.0
C5172 C 0.51928 0.66279 0.47095 0.0
C5173 C 0.51062 0.64802 0.46342 0.0
C5174 C 0.50059 0.64769 0.44911 0.0
C5175 C 0.49956 0.66166 0.44229 0.0
C5176 C 0.51207 0.63297 0.47038 0.0
C5177 C 0.49919 0.62302 0.47337 0.0
C5178 C 0.52609 0.62852 0.47437 0.0
C5179 C 0.54006 0.63772 0.4705 0.0
C5180 C 0.54116 0.64064 0.4545 0.0
C5181 C 0.55432 0.6494 0.45095 0.0
C5182 C 0.56651 0.65519 0.46328 0.0
C5183 C 0.56557 0.65219 0.47918 0.0
C5184 C 0.55242 0.64346 0.4828 0.0
C5185 C 0.50825 0.5609 0.49123 0.0
C5186 C 0.51936 0.56119 0.50458 0.0
C5187 C 0.50655 0.57487 0.48471 0.0
C5188 C 0.5156 0.58966 0.49167 0.0
C5189 C 0.52662 0.58995 0.50513 0.0
C5190 C 0.52854 0.57591 0.51142 0.0
C5191 C 0.514 0.6047 0.48464 0.0
C5192 C 0.52687 0.61463 0.48155 0.0
C5193 C 0.49997 0.60909 0.48049 0.0
C5194 C 0.48591 0.59954 0.48366 0.0
C5195 C 0.48404 0.59674 0.49952 0.0
C5196 C 0.47089 0.58727 0.50228 0.0
C5197 C 0.45957 0.58054 0.48925 0.0
C5198 C 0.46134 0.58334 0.47347 0.0
C5199 C 0.47438 0.59291 0.47067 0.0
H5200 H 0.44944 0.57317 0.4914 0.0
H5201 H 0.57669 0.66196 0.46051 0.0
H5202 H 0.63595 0.27747 0.65931 0.0
H5203 H 0.6604 0.27549 0.67356 0.0
H5204 H 0.64506 0.28415 0.71962 0.0
H5205 H 0.62065 0.28642 0.70547 0.0
H5206 H 0.67298 0.3016 0.71996 0.0
H5207 H 0.64805 0.24674 0.70348 0.0
H5208 H 0.63483 0.22354 0.68363 0.0
H5209 H 0.67236 0.22678 0.65788 0.0
H5210 H 0.68573 0.25014 0.67746 0.0
H5211 H 0.72732 0.27923 0.77427 0.0
H5212 H 0.70427 0.28095 0.75722 0.0
H5213 H 0.72272 0.2668 0.71432 0.0
H5214 H 0.74577 0.26439 0.73162 0.0
H5215 H 0.69436 0.25299 0.71035 0.0
H5216 H 0.71993 0.30653 0.7263 0.0
H5217 H 0.73373 0.33025 0.74507 0.0
H5218 H 0.69598 0.33061 0.77016 0.0
H5219 H 0.68202 0.30676 0.75167 0.0
C5220 C 0.63778 0.27909 0.67248 0.0
C5221 C 0.62624 0.2821 0.6812 0.0
C5222 C 0.65177 0.2778 0.68062 0.0
C5223 C 0.65461 0.27951 0.69771 0.0
C5224 C 0.64318 0.28273 0.70645 0.0
C5225 C 0.62916 0.28391 0.69831 0.0
C5226 C 0.66948 0.27808 0.70652 0.0
C5227 C 0.67756 0.29089 0.71798 0.0
C5228 C 0.67582 0.26437 0.70354 0.0
C5229 C 0.66782 0.25028 0.69184 0.0
C5230 C 0.65343 0.24258 0.69351 0.0
C5231 C 0.64592 0.22939 0.68232 0.0
C5232 C 0.65273 0.22372 0.66948 0.0
C5233 C 0.66709 0.2312 0.66782 0.0
C5234 C 0.67464 0.2444 0.67897 0.0
C5235 C 0.72652 0.27646 0.7612 0.0
C5236 C 0.73854 0.27194 0.75429 0.0
C5237 C 0.7133 0.27756 0.75141 0.0
C5238 C 0.71177 0.27445 0.73437 0.0
C5239 C 0.72362 0.26946 0.72741 0.0
C5240 C 0.73687 0.26819 0.73728 0.0
C5241 C 0.69776 0.27642 0.72406 0.0
C5242 C 0.68985 0.26374 0.71229 0.0
C5243 C 0.69165 0.29036 0.72657 0.0
C5244 C 0.69997 0.30478 0.73767 0.0
C5245 C 0.7146 0.31161 0.73588 0.0
C5246 C 0.72245 0.32509 0.74647 0.0
C5247 C 0.71574 0.33191 0.75882 0.0
C5248 C 0.70116 0.3253 0.76059 0.0
C5249 C 0.69327 0.31182 0.75005 0.0
H5250 H 0.72184 0.34234 0.76701 0.0
H5251 H 0.6469 0.21351 0.66082 0.0
H5252 H 0.03583 0.34345 0.94668 0.0
H5253 H 0.03706 0.37087 0.95883 0.0
H5254 H 0.99354 0.35764 0.97252 0.0
H5255 H 0.99232 0.33004 0.96067 0.0
H5256 H 0.99597 0.38513 0.95913 0.0
H5257 H 0.0247 0.36487 1.00097 0.0
H5258 H 0.04439 0.35147 0.01247 0.0
H5259 H 0.07797 0.38676 0.99929 0.0
H5260 H 0.05847 0.40025 0.98749 0.0
H5261 H 1.00053 0.46037 0.00763 0.0
H5262 H 0.99773 0.4318 0.99853 0.0
H5263 H 0.04255 0.43948 0.9871 0.0
H5264 H 0.04556 0.46782 0.99652 0.0
H5265 H 0.03837 0.414 1.00085 0.0
H5266 H 0.01038 0.43325 0.95757 0.0
H5267 H 0.99128 0.44688 0.94541 0.0
H5268 H 0.95683 0.41372 0.96011 0.0
H5269 H 0.97583 0.40003 0.9727 0.0
C5270 C 0.02659 0.34624 0.95249 0.0
C5271 C 0.01401 0.33435 0.95274 0.0
C5272 C 0.02729 0.36201 0.9594 0.0
C5273 C 0.01546 0.36637 0.96678 0.0
C5274 C 1.00282 0.35462 0.96691 0.0
C5275 C 1.00213 0.33881 0.96005 0.0
C5276 C 0.01626 0.38322 0.97415 0.0
C5277 C 0.00511 0.39136 0.96846 0.0
C5278 C 0.02834 0.39153 0.98607 0.0
C5279 C 0.0401 0.38349 0.99322 0.0
C5280 C 0.03627 0.36971 1.00041 0.0
C5281 C 0.0474 0.36211 0.007 0.0
C5282 C 0.06242 0.36824 0.00658 0.0
C5283 C 0.06634 0.38201 0.99959 0.0
C5284 C 0.05525 0.38965 0.99297 0.0
C5285 C 0.0098 0.45599 1.00321 0.0
C5286 C 0.02326 0.46651 1.00281 0.0
C5287 C 0.00817 0.43961 0.99792 0.0
C5288 C 0.01987 0.43338 0.9919 0.0
C5289 C 0.03334 0.44387 0.99169 0.0
C5290 C 0.03502 0.46017 0.99706 0.0
C5291 C 0.01818 0.41603 0.98569 0.0
C5292 C 0.02916 0.40777 0.99161 0.0
C5293 C 0.00601 0.40764 0.97388 0.0
C5294 C 0.99454 0.41574 0.96624 0.0
C5295 C 0.99875 0.42893 0.95833 0.0
C5296 C 0.98793 0.43666 0.95133 0.0
C5297 C 0.97283 0.43121 0.95199 0.0
C5298 C 0.96853 0.41796 0.95963 0.0
C5299 C 0.97932 0.41021 0.96671 0.0
H5300 H 0.96448 0.43723 0.94655 0.0
H5301 H 0.07102 0.36234 0.01168 0.0
H5302 H 0.96169 0.77237 0.15173 0.0
H5303 H 0.93899 0.77104 0.16407 0.0
H5304 H 0.96536 0.77918 0.21181 0.0
H5305 H 0.98821 0.78088 0.19961 0.0
H5306 H 0.94124 0.75535 0.20953 0.0
H5307 H 0.95007 0.8087 0.19665 0.0
H5308 H 0.95457 0.82928 0.17883 0.0
H5309 H 0.91268 0.80908 0.14833 0.0
H5310 H 0.90802 0.78823 0.16584 0.0
H5311 H 0.88674 0.77311 0.25706 0.0
H5312 H 0.90868 0.77428 0.24348 0.0
H5313 H 0.88063 0.76858 0.19689 0.0
H5314 H 0.85849 0.76743 0.21049 0.0
H5315 H 0.90511 0.79051 0.19768 0.0
H5316 H 0.89584 0.73751 0.21036 0.0
H5317 H 0.89111 0.71657 0.22772 0.0
H5318 H 0.93347 0.73539 0.25787 0.0
H5319 H 0.93836 0.7566 0.24082 0.0
C5320 C 0.96276 0.77411 0.16487 0.0
C5321 C 0.97693 0.77683 0.17461 0.0
C5322 C 0.94969 0.77327 0.17192 0.0
C5323 C 0.9504 0.77515 0.18891 0.0
C5324 C 0.96448 0.77766 0.19868 0.0
C5325 C 0.97757 0.77856 0.19164 0.0
C5326 C 0.93648 0.77439 0.19649 0.0
C5327 C 0.93345 0.76319 0.20709 0.0
C5328 C 0.92601 0.78426 0.19298 0.0
C5329 C 0.92877 0.79681 0.18247 0.0
C5330 C 0.94187 0.80857 0.18607 0.0
C5331 C 0.94445 0.8203 0.17604 0.0
C5332 C 0.93394 0.82046 0.16243 0.0
C5333 C 0.92082 0.80892 0.15885 0.0
C5334 C 0.9182 0.79716 0.16884 0.0
C5335 C 0.88516 0.77193 0.2439 0.0
C5336 C 0.87075 0.76998 0.23489 0.0
C5337 C 0.89778 0.77262 0.23613 0.0
C5338 C 0.89639 0.77124 0.21909 0.0
C5339 C 0.88205 0.76963 0.21004 0.0
C5340 C 0.86938 0.769 0.21784 0.0
C5341 C 0.90991 0.77154 0.21084 0.0
C5342 C 0.91287 0.78264 0.20009 0.0
C5343 C 0.92028 0.7615 0.21414 0.0
C5344 C 0.9174 0.74873 0.22439 0.0
C5345 C 0.9041 0.73726 0.22076 0.0
C5346 C 0.90139 0.72533 0.23053 0.0
C5347 C 0.91196 0.72467 0.24391 0.0
C5348 C 0.92528 0.73592 0.24751 0.0
C5349 C 0.92803 0.7479 0.23779 0.0
H5350 H 0.90985 0.71542 0.25146 0.0
H5351 H 0.93595 0.82955 0.15468 0.0
H5352 H 0.52967 0.312 0.09905 0.0
H5353 H 0.53044 0.33401 0.08301 0.0
H5354 H 0.57336 0.35672 0.11059 0.0
H5355 H 0.57269 0.33462 0.12667 0.0
H5356 H 0.55179 0.37697 0.10705 0.0
H5357 H 0.5737 0.3408 0.07445 0.0
H5358 H 0.5753 0.31479 0.05981 0.0
H5359 H 0.53413 0.31398 0.02864 0.0
H5360 H 0.53216 0.33988 0.04326 0.0
H5361 H 0.55708 0.43711 0.05648 0.0
H5362 H 0.5639 0.41593 0.07105 0.0
H5363 H 0.52669 0.38256 0.04207 0.0
H5364 H 0.52046 0.40337 0.02666 0.0
H5365 H 0.54921 0.3685 0.04704 0.0
H5366 H 0.52527 0.40222 0.08112 0.0
H5367 H 0.52238 0.42771 0.09587 0.0
H5368 H 0.56567 0.43254 0.12439 0.0
H5369 H 0.56891 0.40718 0.10965 0.0
C5370 C 0.53925 0.3217 0.10169 0.0
C5371 C 0.55112 0.32167 0.11408 0.0
C5372 C 0.53972 0.33418 0.09249 0.0
C5373 C 0.552 0.34689 0.09559 0.0
C5374 C 0.56383 0.34696 0.10802 0.0
C5375 C 0.56346 0.33435 0.11711 0.0
C5376 C 0.5522 0.36022 0.08601 0.0
C5377 C 0.55153 0.37524 0.09396 0.0
C5378 C 0.55154 0.35778 0.06894 0.0
C5379 C 0.55273 0.34224 0.06004 0.0
C5380 C 0.56493 0.33502 0.06456 0.0
C5381 C 0.56591 0.3203 0.05625 0.0
C5382 C 0.55481 0.31272 0.04333 0.0
C5383 C 0.54272 0.31986 0.03866 0.0
C5384 C 0.54167 0.33457 0.04694 0.0
C5385 C 0.55055 0.42519 0.05291 0.0
C5386 C 0.53809 0.42201 0.04049 0.0
C5387 C 0.55436 0.41313 0.06142 0.0
C5388 C 0.54559 0.39774 0.05792 0.0
C5389 C 0.53355 0.39437 0.04508 0.0
C5390 C 0.52989 0.40635 0.03641 0.0
C5391 C 0.54845 0.38524 0.068 0.0
C5392 C 0.54969 0.37034 0.06015 0.0
C5393 C 0.54943 0.38774 0.08516 0.0
C5394 C 0.5474 0.40289 0.09416 0.0
C5395 C 0.53421 0.40877 0.09047 0.0
C5396 C 0.5325 0.42319 0.09883 0.0
C5397 C 0.54386 0.43176 0.11103 0.0
C5398 C 0.55691 0.4259 0.11492 0.0
C5399 C 0.55868 0.41151 0.10657 0.0
H5400 H 0.54253 0.44292 0.11748 0.0
H5401 H 0.55559 0.30132 0.03691 0.0
H5402 H 0.95451 0.27085 0.29928 0.0
H5403 H 0.92833 0.27013 0.28851 0.0
H5404 H 0.91492 0.25234 0.33141 0.0
H5405 H 0.94102 0.25319 0.34235 0.0
H5406 H 0.89462 0.23925 0.30271 0.0
H5407 H 0.92109 0.29063 0.33143 0.0
H5408 H 0.94171 0.31396 0.33667 0.0
H5409 H 0.93032 0.32404 0.2881 0.0
H5410 H 0.90977 0.30059 0.2825 0.0
H5411 H 0.82619 0.26472 0.30613 0.0
H5412 H 0.85208 0.26126 0.31314 0.0
H5413 H 0.86391 0.2836 0.27191 0.0
H5414 H 0.83808 0.28729 0.26515 0.0
H5415 H 0.88504 0.29356 0.29802 0.0
H5416 H 0.85785 0.24326 0.26932 0.0
H5417 H 0.83706 0.22007 0.26375 0.0
H5418 H 0.84924 0.20819 0.3114 0.0
H5419 H 0.87015 0.23127 0.31723 0.0
C5420 C 0.94596 0.26656 0.3063 0.0
C5421 C 0.94983 0.2623 0.32176 0.0
C5422 C 0.93103 0.26608 0.3001 0.0
C5423 C 0.91978 0.2614 0.3093 0.0
C5424 C 0.92348 0.25596 0.32414 0.0
C5425 C 0.93841 0.25644 0.33036 0.0
C5426 C 0.9045 0.26408 0.30452 0.0
C5427 C 0.89248 0.25111 0.30175 0.0
C5428 C 0.9018 0.27954 0.30305 0.0
C5429 C 0.914 0.29377 0.30649 0.0
C5430 C 0.92305 0.29776 0.32184 0.0
C5431 C 0.93472 0.31101 0.32487 0.0
C5432 C 0.93735 0.32045 0.31271 0.0
C5433 C 0.92829 0.3167 0.2975 0.0
C5434 C 0.91663 0.30343 0.29439 0.0
C5435 C 0.83448 0.2692 0.29888 0.0
C5436 C 0.83046 0.27652 0.28535 0.0
C5437 C 0.84915 0.26706 0.30272 0.0
C5438 C 0.85982 0.27195 0.29287 0.0
C5439 C 0.85583 0.27974 0.27964 0.0
C5440 C 0.84118 0.28193 0.27585 0.0
C5441 C 0.8751 0.26876 0.29623 0.0
C5442 C 0.88714 0.28166 0.29879 0.0
C5443 C 0.87779 0.25323 0.2974 0.0
C5444 C 0.86551 0.23905 0.29375 0.0
C5445 C 0.85609 0.2357 0.27861 0.0
C5446 C 0.84432 0.22254 0.27539 0.0
C5447 C 0.84187 0.21262 0.2872 0.0
C5448 C 0.85122 0.21582 0.30223 0.0
C5449 C 0.86306 0.2289 0.30548 0.0
H5450 H 0.83272 0.20248 0.28473 0.0
H5451 H 0.94639 0.3307 0.31508 0.0
H5452 H 0.00869 0.66648 0.60424 0.0
H5453 H 0.00988 0.64364 0.58467 0.0
H5454 H 0.05802 0.65611 0.59311 0.0
H5455 H 0.05691 0.6795 0.6121 0.0
H5456 H 0.04788 0.64595 0.56141 0.0
H5457 H 0.04017 0.62664 0.61215 0.0
H5458 H 0.02748 0.62321 0.63602 0.0
H5459 H 0.98642 0.60168 0.60457 0.0
H5460 H 0.99887 0.60509 0.58051 0.0
H5461 H 0.04259 0.55345 0.54907 0.0
H5462 H 0.04567 0.57946 0.56533 0.0
H5463 H 0.02672 0.59799 0.52338 0.0
H5464 H 0.02387 0.57187 0.50687 0.0
H5465 H 0.02325 0.59303 0.57195 0.0
H5466 H 0.03988 0.63886 0.5291 0.0
H5467 H 0.05455 0.64171 0.50664 0.0
H5468 H 0.08131 0.60951 0.52456 0.0
H5469 H 0.06695 0.60664 0.54724 0.0
C5470 C 0.01953 0.66455 0.60175 0.0
C5471 C 0.03271 0.67476 0.60986 0.0
C5472 C 0.02019 0.6514 0.59066 0.0
C5473 C 0.03404 0.64805 0.58763 0.0
C5474 C 0.04721 0.65845 0.59532 0.0
C5475 C 0.04656 0.67169 0.60633 0.0
C5476 C 0.0348 0.6333 0.57703 0.0
C5477 C 0.04248 0.63436 0.56367 0.0
C5478 C 0.02795 0.61819 0.58014 0.0
C5479 C 0.02042 0.61619 0.59456 0.0
C5480 C 0.02842 0.62126 0.61034 0.0
C5481 C 0.02127 0.61931 0.6239 0.0
C5482 C 0.00614 0.61226 0.62181 0.0
C5483 C 0.99813 0.60717 0.60616 0.0
C5484 C 0.00523 0.60909 0.59257 0.0
C5485 C 0.03942 0.56315 0.54318 0.0
C5486 C 0.03295 0.56065 0.52672 0.0
C5487 C 0.04111 0.57799 0.55252 0.0
C5488 C 0.03636 0.59064 0.5456 0.0
C5489 C 0.03057 0.58841 0.52894 0.0
C5490 C 0.02894 0.57351 0.51952 0.0
C5491 C 0.03629 0.6056 0.55623 0.0
C5492 C 0.02864 0.60459 0.56961 0.0
C5493 C 0.04341 0.62067 0.55327 0.0
C5494 C 0.05222 0.62241 0.53976 0.0
C5495 C 0.04892 0.63243 0.52827 0.0
C5496 C 0.05718 0.63404 0.5155 0.0
C5497 C 0.06882 0.62575 0.51414 0.0
C5498 C 0.07225 0.61587 0.52559 0.0
C5499 C 0.06404 0.61423 0.53838 0.0
H5500 H 0.0752 0.62701 0.50424 0.0
H5501 H 1.00064 0.61072 0.63232 0.0
H5502 H 0.57339 0.80267 0.79179 0.0
H5503 H 0.59423 0.80041 0.77675 0.0
H5504 H 0.62298 0.80034 0.82182 0.0
H5505 H 0.60244 0.80301 0.83681 0.0
H5506 H 0.63868 0.81459 0.80204 0.0
H5507 H 0.60208 0.76538 0.79795 0.0
H5508 H 0.57681 0.7488 0.79039 0.0
H5509 H 0.57683 0.75624 0.74061 0.0
H5510 H 0.60204 0.77305 0.74794 0.0
H5511 H 0.68669 0.76196 0.79371 0.0
H5512 H 0.66489 0.77314 0.79883 0.0
H5513 H 0.65337 0.77474 0.74753 0.0
H5514 H 0.67537 0.76354 0.74228 0.0
H5515 H 0.62866 0.76407 0.76378 0.0
H5516 H 0.67077 0.80634 0.76996 0.0
H5517 H 0.69703 0.81852 0.78032 0.0
H5518 H 0.68749 0.82257 0.82925 0.0
H5519 H 0.66132 0.80947 0.81929 0.0
C5520 C 0.58427 0.80253 0.79846 0.0
C5521 C 0.58629 0.80288 0.81543 0.0
C5522 C 0.59614 0.80123 0.78988 0.0
C5523 C 0.61008 0.79989 0.79813 0.0
C5524 C 0.61234 0.80138 0.81518 0.0
C5525 C 0.60058 0.80291 0.82376 0.0
C5526 C 0.6218 0.79499 0.78923 0.0
C5527 C 0.6365 0.80361 0.79359 0.0
C5528 C 0.61889 0.78081 0.77794 0.0
C5529 C 0.60382 0.77062 0.77352 0.0
C5530 C 0.59664 0.76355 0.78541 0.0
C5531 C 0.58235 0.75411 0.78117 0.0
C5532 C 0.5752 0.75151 0.76504 0.0
C5533 C 0.58236 0.7583 0.7531 0.0
C5534 C 0.59665 0.76779 0.75729 0.0
C5535 C 0.6795 0.76466 0.78351 0.0
C5536 C 0.68282 0.76214 0.76763 0.0
C5537 C 0.66705 0.77099 0.78644 0.0
C5538 C 0.65775 0.77504 0.77359 0.0
C5539 C 0.66053 0.77177 0.75759 0.0
C5540 C 0.67303 0.76537 0.75462 0.0
C5541 C 0.64555 0.78328 0.77722 0.0
C5542 C 0.6308 0.77533 0.77179 0.0
C5543 C 0.64848 0.79788 0.78785 0.0
C5544 C 0.66402 0.80674 0.79384 0.0
C5545 C 0.67426 0.80965 0.78295 0.0
C5546 C 0.68919 0.81661 0.78877 0.0
C5547 C 0.69395 0.82128 0.80544 0.0
C5548 C 0.68379 0.81892 0.81633 0.0
C5549 C 0.66891 0.81163 0.8106 0.0
H5550 H 0.70549 0.82682 0.80992 0.0
H5551 H 0.56413 0.7442 0.76178 0.0
H5552 H 0.45866 0.48617 0.66871 0.0
H5553 H 0.46843 0.48858 0.64325 0.0
H5554 H 0.47444 0.53968 0.65337 0.0
H5555 H 0.46381 0.53735 0.67834 0.0
H5556 H 0.46415 0.53095 0.62277 0.0
H5557 H 0.50415 0.5189 0.65888 0.0
H5558 H 0.51634 0.50379 0.6781 0.0
H5559 H 0.50704 0.46266 0.64145 0.0
H5560 H 0.4946 0.47747 0.62206 0.0
H5561 H 0.51769 0.54923 0.56914 0.0
H5562 H 0.5049 0.54631 0.59285 0.0
H5563 H 0.49184 0.49578 0.57701 0.0
H5564 H 0.5044 0.49866 0.55319 0.0
H5565 H 0.50537 0.50386 0.60991 0.0
H5566 H 0.46617 0.51727 0.5735 0.0
H5567 H 0.45521 0.53349 0.55459 0.0
H5568 H 0.46454 0.57353 0.59252 0.0
H5569 H 0.47578 0.55762 0.6116 0.0
C5570 C 0.46187 0.49794 0.66548 0.0
C5571 C 0.46048 0.51156 0.67577 0.0
C5572 C 0.46766 0.49931 0.65095 0.0
C5573 C 0.47245 0.51434 0.64644 0.0
C5574 C 0.47091 0.52794 0.65656 0.0
C5575 C 0.46498 0.52658 0.671 0.0
C5576 C 0.47907 0.51591 0.6312 0.0
C5577 C 0.47329 0.52517 0.62009 0.0
C5578 C 0.49084 0.50818 0.62745 0.0
C5579 C 0.4983 0.49924 0.63908 0.0
C5580 C 0.5046 0.50659 0.65496 0.0
C5581 C 0.51157 0.49809 0.66588 0.0
C5582 C 0.51243 0.48226 0.66102 0.0
C5583 C 0.50635 0.47492 0.64521 0.0
C5584 C 0.49934 0.48336 0.63425 0.0
C5585 C 0.51192 0.53754 0.57063 0.0
C5586 C 0.51205 0.52418 0.55934 0.0
C5587 C 0.50462 0.53589 0.58416 0.0
C5588 C 0.49742 0.52082 0.58672 0.0
C5589 C 0.49735 0.50751 0.5753 0.0
C5590 C 0.50447 0.50919 0.56166 0.0
C5591 C 0.49046 0.51888 0.6016 0.0
C5592 C 0.4962 0.50958 0.61262 0.0
C5593 C 0.4788 0.52672 0.60535 0.0
C5594 C 0.47195 0.53629 0.59394 0.0
C5595 C 0.46601 0.52957 0.57777 0.0
C5596 C 0.45972 0.5387 0.56703 0.0
C5597 C 0.45921 0.55454 0.57234 0.0
C5598 C 0.46496 0.56127 0.58842 0.0
C5599 C 0.47128 0.55219 0.59921 0.0
H5600 H 0.45434 0.56159 0.564 0.0
H5601 H 0.51784 0.4757 0.66949 0.0
H5602 H 0.76128 0.17974 0.96113 0.0
H5603 H 0.74653 0.18783 0.93816 0.0
H5604 H 0.76172 0.23709 0.95922 0.0
H5605 H 0.77609 0.22895 0.98251 0.0
H5606 H 0.73323 0.23187 0.94177 0.0
H5607 H 0.78177 0.21955 0.9345 0.0
H5608 H 0.80036 0.20213 0.93441 0.0
H5609 H 0.77008 0.1675 0.89867 0.0
H5610 H 0.75122 0.18463 0.89875 0.0
H5611 H 0.75457 0.27709 0.88165 0.0
H5612 H 0.74767 0.26295 0.90387 0.0
H5613 H 0.73278 0.21937 0.87026 0.0
H5614 H 0.74031 0.2333 0.84813 0.0
H5615 H 0.7546 0.21676 0.8922 0.0
H5616 H 0.70891 0.23396 0.89445 0.0
H5617 H 0.6914 0.25255 0.89457 0.0
H5618 H 0.71672 0.27928 0.93901 0.0
H5619 H 0.73453 0.26101 0.93906 0.0
C5620 C 0.76117 0.19226 0.96098 0.0
C5621 C 0.76999 0.20379 0.97332 0.0
C5622 C 0.7527 0.19686 0.94795 0.0
C5623 C 0.75327 0.21306 0.94688 0.0
C5624 C 0.76113 0.22452 0.95984 0.0
C5625 C 0.76941 0.2199 0.97305 0.0
C5626 C 0.7479 0.21813 0.93127 0.0
C5627 C 0.73781 0.22859 0.93086 0.0
C5628 C 0.75364 0.21348 0.91698 0.0
C5629 C 0.76503 0.20326 0.91679 0.0
C5630 C 0.77905 0.20817 0.92671 0.0
C5631 C 0.78963 0.19835 0.92665 0.0
C5632 C 0.78638 0.18369 0.91658 0.0
C5633 C 0.77256 0.17884 0.9065 0.0
C5634 C 0.76192 0.18859 0.90655 0.0
C5635 C 0.74948 0.26458 0.87893 0.0
C5636 C 0.74831 0.25624 0.86322 0.0
C5637 C 0.74531 0.25654 0.89161 0.0
C5638 C 0.73975 0.24007 0.88874 0.0
C5639 C 0.73705 0.23209 0.87274 0.0
C5640 C 0.74132 0.2401 0.86007 0.0
C5641 C 0.74011 0.2309 0.90261 0.0
C5642 C 0.74946 0.21969 0.90281 0.0
C5643 C 0.73379 0.23504 0.91664 0.0
C5644 C 0.7231 0.24611 0.91672 0.0
C5645 C 0.71082 0.24386 0.9042 0.0
C5646 C 0.70082 0.25434 0.90424 0.0
C5647 C 0.70295 0.26709 0.91678 0.0
C5648 C 0.71507 0.26939 0.92931 0.0
C5649 C 0.72511 0.25895 0.92933 0.0
H5650 H 0.6952 0.27519 0.91679 0.0
H5651 H 0.79459 0.17611 0.91655 0.0
H5652 H 0.09555 0.51965 0.19853 0.0
H5653 H 0.0831 0.52203 0.17159 0.0
H5654 H 0.10351 0.48515 0.15012 0.0
H5655 H 0.11645 0.48304 0.17705 0.0
H5656 H 0.10346 0.50674 0.13018 0.0
H5657 H 0.06488 0.47944 0.15548 0.0
H5658 H 0.04917 0.47505 0.17683 0.0
H5659 H 0.03386 0.51862 0.17118 0.0
H5660 H 0.04963 0.52338 0.14993 0.0
H5661 H 0.05516 0.49706 0.05197 0.0
H5662 H 0.06929 0.4935 0.07797 0.0
H5663 H 0.04884 0.52819 0.10342 0.0
H5664 H 0.03466 0.53146 0.07768 0.0
H5665 H 0.04908 0.50631 0.12096 0.0
H5666 H 0.08785 0.53381 0.09573 0.0
H5667 H 0.10348 0.53812 0.07429 0.0
H5668 H 0.11845 0.49432 0.07968 0.0
H5669 H 0.10268 0.48959 0.10092 0.0
C5670 C 0.0976 0.51206 0.18817 0.0
C5671 C 0.10721 0.50108 0.19045 0.0
C5672 C 0.09022 0.51333 0.17255 0.0
C5673 C 0.09197 0.50364 0.15838 0.0
C5674 C 0.10171 0.49282 0.16056 0.0
C5675 C 0.10908 0.4915 0.17621 0.0
C5676 C 0.08367 0.50477 0.14151 0.0
C5677 C 0.09152 0.50642 0.12821 0.0
C5678 C 0.06805 0.50467 0.13849 0.0
C5679 C 0.05854 0.50184 0.15123 0.0
C5680 C 0.05824 0.48814 0.15887 0.0
C5681 C 0.04931 0.48558 0.17094 0.0
C5682 C 0.04055 0.49657 0.17539 0.0
C5683 C 0.04067 0.51013 0.16774 0.0
C5684 C 0.04959 0.51276 0.15567 0.0
C5685 C 0.0538 0.50406 0.06308 0.0
C5686 C 0.04371 0.51464 0.06248 0.0
C5687 C 0.06197 0.50204 0.07811 0.0
C5688 C 0.06045 0.51064 0.09313 0.0
C5689 C 0.05041 0.52125 0.09236 0.0
C5690 C 0.04226 0.5232 0.07744 0.0
C5691 C 0.06888 0.50853 0.10961 0.0
C5692 C 0.06103 0.50665 0.12288 0.0
C5693 C 0.08448 0.50845 0.11256 0.0
C5694 C 0.09397 0.51127 0.0998 0.0
C5695 C 0.09439 0.52503 0.09225 0.0
C5696 C 0.10328 0.52756 0.08014 0.0
C5697 C 0.11195 0.5165 0.07562 0.0
C5698 C 0.11173 0.50288 0.08319 0.0
C5699 C 0.1028 0.50026 0.09525 0.0
H5700 H 0.11884 0.51849 0.06627 0.0
H5701 H 0.03365 0.49457 0.18473 0.0
H5702 H 0.76282 0.84264 0.44496 0.0
H5703 H 0.76199 0.83001 0.41697 0.0
H5704 H 0.80586 0.81976 0.42996 0.0
H5705 H 0.80672 0.83231 0.458 0.0
H5706 H 0.80245 0.8334 0.40087 0.0
H5707 H 0.77707 0.79045 0.42479 0.0
H5708 H 0.75809 0.77763 0.43977 0.0
H5709 H 0.72315 0.78487 0.40372 0.0
H5710 H 0.74194 0.79795 0.38864 0.0
H5711 H 0.80404 0.78387 0.3275 0.0
H5712 H 0.80509 0.79451 0.35607 0.0
H5713 H 0.75826 0.79654 0.34698 0.0
H5714 H 0.75702 0.78536 0.31857 0.0
H5715 H 0.7635 0.78688 0.3746 0.0
H5716 H 0.78751 0.83043 0.35107 0.0
H5717 H 0.80562 0.84441 0.33584 0.0
H5718 H 0.84192 0.83779 0.37054 0.0
H5719 H 0.82402 0.82357 0.38587 0.0
C5720 C 0.77228 0.83768 0.44186 0.0
C5721 C 0.78482 0.83846 0.45374 0.0
C5722 C 0.77177 0.8304 0.42587 0.0
C5723 C 0.78384 0.82387 0.42135 0.0
C5724 C 0.7964 0.82469 0.43315 0.0
C5725 C 0.79684 0.83177 0.4492 0.0
C5726 C 0.78343 0.81639 0.40425 0.0
C5727 C 0.79407 0.82308 0.39518 0.0
C5728 C 0.77223 0.80323 0.39665 0.0
C5729 C 0.76092 0.79532 0.40568 0.0
C5730 C 0.76534 0.78943 0.42013 0.0
C5731 C 0.75461 0.7821 0.42863 0.0
C5732 C 0.73942 0.78048 0.42273 0.0
C5733 C 0.73492 0.78616 0.40829 0.0
C5734 C 0.74561 0.79352 0.39976 0.0
C5735 C 0.79395 0.78654 0.33157 0.0
C5736 C 0.78047 0.78381 0.32064 0.0
C5737 C 0.79458 0.79274 0.34795 0.0
C5738 C 0.78182 0.79667 0.35376 0.0
C5739 C 0.76829 0.79367 0.34291 0.0
C5740 C 0.76761 0.78729 0.32659 0.0
C5741 C 0.78253 0.80389 0.37108 0.0
C5742 C 0.77192 0.79718 0.38023 0.0
C5743 C 0.79363 0.81721 0.37868 0.0
C5744 C 0.80443 0.82579 0.36952 0.0
C5745 C 0.79936 0.83185 0.35539 0.0
C5746 C 0.80958 0.83984 0.34675 0.0
C5747 C 0.82491 0.84195 0.35219 0.0
C5748 C 0.83004 0.83612 0.36632 0.0
C5749 C 0.81986 0.82811 0.375 0.0
H5750 H 0.83281 0.84814 0.34549 0.0
H5751 H 0.73113 0.77479 0.42932 0.0
H5752 H 0.45024 0.5182 0.84885 0.0
H5753 H 0.46321 0.5223 0.87672 0.0
H5754 H 0.50551 0.53357 0.85977 0.0
H5755 H 0.49258 0.53005 0.83173 0.0
H5756 H 0.50625 0.51255 0.8815 0.0
H5757 H 0.49351 0.56295 0.87968 0.0
H5758 H 0.47806 0.58299 0.87446 0.0
H5759 H 0.44966 0.56567 0.90784 0.0
H5760 H 0.46483 0.54537 0.91312 0.0
H5761 H 0.52471 0.55081 0.97393 0.0
H5762 H 0.51819 0.5532 0.9452 0.0
H5763 H 0.50152 0.50256 0.93448 0.0
H5764 H 0.50821 0.50002 0.96306 0.0
H5765 H 0.49247 0.54765 0.92601 0.0
H5766 H 0.50684 0.48825 0.89708 0.0
H5767 H 0.52558 0.47157 0.90272 0.0
H5768 H 0.55601 0.51203 0.93066 0.0
H5769 H 0.53756 0.52901 0.92499 0.0
C5770 C 0.46228 0.52187 0.85097 0.0
C5771 C 0.4703 0.52387 0.8379 0.0
C5772 C 0.4697 0.52415 0.86697 0.0
C5773 C 0.48533 0.52839 0.87037 0.0
C5774 C 0.49344 0.53031 0.85743 0.0
C5775 C 0.486 0.52818 0.84138 0.0
C5776 C 0.49309 0.53014 0.88741 0.0
C5777 C 0.50328 0.52027 0.89123 0.0
C5778 C 0.48964 0.5406 0.90007 0.0
C5779 C 0.48023 0.55252 0.89667 0.0
C5780 C 0.48387 0.56329 0.88577 0.0
C5781 C 0.47518 0.57473 0.88283 0.0
C5782 C 0.46286 0.57558 0.89078 0.0
C5783 C 0.4592 0.56499 0.90168 0.0
C5784 C 0.46784 0.55352 0.90466 0.0
C5785 C 0.51973 0.54015 0.96546 0.0
C5786 C 0.51701 0.5252 0.97085 0.0
C5787 C 0.51599 0.54155 0.94902 0.0
C5788 C 0.50951 0.52805 0.9376 0.0
C5789 C 0.50677 0.51313 0.94297 0.0
C5790 C 0.51053 0.51171 0.95938 0.0
C5791 C 0.50508 0.52952 0.92018 0.0
C5792 C 0.49552 0.54 0.91629 0.0
C5793 C 0.50949 0.51999 0.90743 0.0
C5794 C 0.52074 0.50987 0.91071 0.0
C5795 C 0.51755 0.49361 0.90435 0.0
C5796 C 0.52813 0.4841 0.90757 0.0
C5797 C 0.54196 0.49072 0.91708 0.0
C5798 C 0.54527 0.5069 0.92335 0.0
C5799 C 0.53475 0.51646 0.92015 0.0
H5800 H 0.55012 0.48333 0.91957 0.0
H5801 H 0.45617 0.58447 0.88852 0.0
H5802 H 0.82819 0.235 0.10387 0.0
H5803 H 0.82459 0.24922 0.12951 0.0
H5804 H 0.84447 0.21606 0.15573 0.0
H5805 H 0.84834 0.20184 0.13006 0.0
H5806 H 0.81682 0.2185 0.16275 0.0
H5807 H 0.86217 0.25426 0.15967 0.0
H5808 H 0.87933 0.27229 0.14673 0.0
H5809 H 0.84736 0.30286 0.14175 0.0
H5810 H 0.8299 0.28489 0.15446 0.0
H5811 H 0.81417 0.2573 0.24158 0.0
H5812 H 0.82269 0.24555 0.21739 0.0
H5813 H 0.80369 0.27814 0.18942 0.0
H5814 H 0.79495 0.2898 0.21374 0.0
H5815 H 0.83186 0.27609 0.18378 0.0
H5816 H 0.78645 0.24088 0.18619 0.0
H5817 H 0.76806 0.22241 0.19718 0.0
H5818 H 0.79861 0.19026 0.20151 0.0
H5819 H 0.81743 0.2088 0.19109 0.0
C5820 C 0.83228 0.23103 0.11511 0.0
C5821 C 0.83854 0.21728 0.11494 0.0
C5822 C 0.83015 0.23915 0.12976 0.0
C5823 C 0.83429 0.2337 0.1445 0.0
C5824 C 0.84118 0.22042 0.14446 0.0
C5825 C 0.84335 0.21231 0.1298 0.0
C5826 C 0.83 0.24084 0.15968 0.0
C5827 C 0.82037 0.23102 0.1676 0.0
C5828 C 0.83418 0.25729 0.16552 0.0
C5829 C 0.84467 0.26815 0.1579 0.0
C5830 C 0.85874 0.26476 0.1557 0.0
C5831 C 0.86853 0.27498 0.14843 0.0
C5832 C 0.86442 0.2887 0.14339 0.0
C5833 C 0.85052 0.29223 0.14565 0.0
C5834 C 0.84068 0.28204 0.1529 0.0
C5835 C 0.81163 0.2618 0.23024 0.0
C5836 C 0.80364 0.27417 0.22932 0.0
C5837 C 0.81655 0.25513 0.21645 0.0
C5838 C 0.81366 0.26086 0.20159 0.0
C5839 C 0.80597 0.27352 0.20078 0.0
C5840 C 0.80096 0.28012 0.21458 0.0
C5841 C 0.81876 0.2537 0.18694 0.0
C5842 C 0.82846 0.26352 0.17907 0.0
C5843 C 0.81454 0.23724 0.18105 0.0
C5844 C 0.80346 0.22637 0.18804 0.0
C5845 C 0.78938 0.23002 0.18975 0.0
C5846 C 0.77884 0.2195 0.19583 0.0
C5847 C 0.78215 0.20516 0.20001 0.0
C5848 C 0.79605 0.20136 0.19823 0.0
C5849 C 0.80669 0.21191 0.19232 0.0
H5850 H 0.77397 0.19702 0.20469 0.0
H5851 H 0.87202 0.2966 0.13777 0.0
H5852 H 0.13243 0.514 0.3752 0.0
H5853 H 0.12031 0.51618 0.39934 0.0
H5854 H 0.07745 0.49792 0.36978 0.0
H5855 H 0.08949 0.49549 0.34553 0.0
H5856 H 0.07343 0.52033 0.39152 0.0
H5857 H 0.09747 0.47586 0.3974 0.0
H5858 H 0.11849 0.46159 0.39917 0.0
H5859 H 0.14141 0.49498 0.4407 0.0
H5860 H 0.1206 0.50957 0.43904 0.0
H5861 H 0.03198 0.50663 0.45701 0.0
H5862 H 0.04459 0.50452 0.43318 0.0
H5863 H 0.08719 0.52095 0.46388 0.0
H5864 H 0.07454 0.52273 0.48791 0.0
H5865 H 0.09167 0.49983 0.44171 0.0
H5866 H 0.06801 0.54437 0.43608 0.0
H5867 H 0.0473 0.55908 0.43441 0.0
H5868 H 0.02409 0.52628 0.39258 0.0
H5869 H 0.04459 0.51124 0.39412 0.0
C5870 C 0.12044 0.51016 0.37361 0.0
C5871 C 0.11224 0.50441 0.35783 0.0
C5872 C 0.11339 0.51146 0.38772 0.0
C5873 C 0.09772 0.50704 0.38693 0.0
C5874 C 0.08948 0.50151 0.37119 0.0
C5875 C 0.09652 0.50016 0.35707 0.0
C5876 C 0.08999 0.50829 0.40225 0.0
C5877 C 0.07739 0.51559 0.40235 0.0
C5878 C 0.09503 0.50264 0.41696 0.0
C5879 C 0.10755 0.4939 0.41799 0.0
C5880 C 0.10704 0.48023 0.40683 0.0
C5881 C 0.11891 0.47207 0.40783 0.0
C5882 C 0.1313 0.4774 0.42001 0.0
C5883 C 0.13182 0.49088 0.43125 0.0
C5884 C 0.11999 0.49909 0.4303 0.0
C5885 C 0.04405 0.50991 0.45885 0.0
C5886 C 0.05202 0.51496 0.4748 0.0
C5887 C 0.05137 0.50878 0.44496 0.0
C5888 C 0.06711 0.51284 0.44616 0.0
C5889 C 0.07512 0.51772 0.46213 0.0
C5890 C 0.06778 0.51879 0.47608 0.0
C5891 C 0.07506 0.51184 0.43097 0.0
C5892 C 0.08771 0.50458 0.43089 0.0
C5893 C 0.0701 0.5176 0.41629 0.0
C5894 C 0.05776 0.52659 0.41532 0.0
C5895 C 0.05844 0.54023 0.4266 0.0
C5896 C 0.04675 0.54864 0.42566 0.0
C5897 C 0.03437 0.54359 0.41342 0.0
C5898 C 0.03368 0.53015 0.40206 0.0
C5899 C 0.04533 0.52169 0.40296 0.0
H5900 H 0.02533 0.55012 0.41272 0.0
H5901 H 0.14047 0.47106 0.42076 0.0
H5902 H 0.76946 0.84118 0.6154 0.0
H5903 H 0.76864 0.82784 0.63945 0.0
H5904 H 0.81567 0.82722 0.64252 0.0
H5905 H 0.81641 0.83981 0.61793 0.0
H5906 H 0.80278 0.80034 0.64876 0.0
H5907 H 0.80097 0.85373 0.66842 0.0
H5908 H 0.79219 0.87919 0.67028 0.0
H5909 H 0.74958 0.8557 0.67937 0.0
H5910 H 0.758 0.83002 0.67726 0.0
H5911 H 0.79194 0.79933 0.741 0.0
H5912 H 0.79646 0.81348 0.71792 0.0
H5913 H 0.7785 0.77004 0.6849 0.0
H5914 H 0.77454 0.75577 0.708 0.0
H5915 H 0.77916 0.82035 0.69485 0.0
H5916 H 0.79216 0.76999 0.64953 0.0
H5917 H 0.80446 0.74681 0.65025 0.0
H5918 H 0.8307 0.7682 0.6963 0.0
H5919 H 0.81872 0.79159 0.69575 0.0
C5920 C 0.77963 0.83806 0.62101 0.0
C5921 C 0.79301 0.84165 0.61454 0.0
C5922 C 0.77918 0.83059 0.63499 0.0
C5923 C 0.79213 0.82664 0.64309 0.0
C5924 C 0.80549 0.83013 0.63663 0.0
C5925 C 0.80593 0.83752 0.62258 0.0
C5926 C 0.79169 0.81868 0.65809 0.0
C5927 C 0.7976 0.80475 0.65881 0.0
C5928 C 0.7853 0.82453 0.67153 0.0
C5929 C 0.78007 0.8399 0.67247 0.0
C5930 C 0.78967 0.85395 0.67062 0.0
C5931 C 0.78476 0.86843 0.67175 0.0
C5932 C 0.77032 0.86905 0.67488 0.0
C5933 C 0.76075 0.85519 0.6769 0.0
C5934 C 0.76558 0.84067 0.67573 0.0
C5935 C 0.7892 0.79274 0.72883 0.0
C5936 C 0.78297 0.77639 0.72637 0.0
C5937 C 0.79169 0.80088 0.71559 0.0
C5938 C 0.78796 0.7929 0.69952 0.0
C5939 C 0.78181 0.77651 0.69709 0.0
C5940 C 0.77948 0.76833 0.71034 0.0
C5941 C 0.78996 0.80183 0.68536 0.0
C5942 C 0.78433 0.81593 0.68478 0.0
C5943 C 0.79703 0.79642 0.6723 0.0
C5944 C 0.80442 0.78247 0.67266 0.0
C5945 C 0.80059 0.76977 0.65977 0.0
C5946 C 0.80751 0.75659 0.66016 0.0
C5947 C 0.81832 0.75601 0.67334 0.0
C5948 C 0.82229 0.76864 0.68613 0.0
C5949 C 0.81542 0.78185 0.68579 0.0
H5950 H 0.82365 0.74579 0.67362 0.0
H5951 H 0.76656 0.88028 0.67579 0.0
H5952 H 0.66868 0.38064 0.52238 0.0
H5953 H 0.64821 0.39417 0.52783 0.0
H5954 H 0.67988 0.43353 0.55666 0.0
H5955 H 0.70035 0.4201 0.55129 0.0
H5956 H 0.65344 0.42794 0.56909 0.0
H5957 H 0.66979 0.43419 0.51708 0.0
H5958 H 0.67515 0.42424 0.49008 0.0
H5959 H 0.6294 0.40033 0.47606 0.0
H5960 H 0.62384 0.40995 0.5031 0.0
H5961 H 0.62468 0.49735 0.55671 0.0
H5962 H 0.63871 0.4759 0.55881 0.0
H5963 H 0.60132 0.4425 0.53026 0.0
H5964 H 0.58709 0.46382 0.52837 0.0
H5965 H 0.62736 0.44151 0.5184 0.0
H5966 H 0.61019 0.43987 0.56921 0.0
H5967 H 0.60518 0.45074 0.59602 0.0
H5968 H 0.65224 0.46644 0.61249 0.0
H5969 H 0.65755 0.45605 0.58562 0.0
C5970 C 0.67124 0.39207 0.53009 0.0
C5971 C 0.68613 0.39942 0.53622 0.0
C5972 C 0.65954 0.39974 0.53325 0.0
C5973 C 0.66257 0.41495 0.54243 0.0
C5974 C 0.67731 0.42178 0.54956 0.0
C5975 C 0.689 0.41408 0.54648 0.0
C5976 C 0.6508 0.42461 0.54293 0.0
C5977 C 0.64773 0.43095 0.55805 0.0
C5978 C 0.64315 0.42824 0.52846 0.0
C5979 C 0.64644 0.42262 0.51216 0.0
C5980 C 0.6609 0.42672 0.50827 0.0
C5981 C 0.66397 0.42115 0.49297 0.0
C5982 C 0.65263 0.41162 0.48138 0.0
C5983 C 0.63818 0.40768 0.48506 0.0
C5984 C 0.63507 0.41319 0.50037 0.0
C5985 C 0.61934 0.48539 0.55115 0.0
C5986 C 0.60484 0.48231 0.54224 0.0
C5987 C 0.62736 0.47314 0.55237 0.0
C5988 C 0.62101 0.45761 0.54475 0.0
C5989 C 0.60641 0.45442 0.53619 0.0
C5990 C 0.59836 0.46663 0.53503 0.0
C5991 C 0.63012 0.44508 0.54459 0.0
C5992 C 0.63277 0.43825 0.52948 0.0
C5993 C 0.63738 0.44109 0.55907 0.0
C5994 C 0.63427 0.44727 0.57532 0.0
C5995 C 0.61948 0.44576 0.57849 0.0
C5996 C 0.61658 0.45181 0.59372 0.0
C5997 C 0.62838 0.45925 0.60596 0.0
C5998 C 0.64311 0.46067 0.60299 0.0
C5999 C 0.64607 0.4547 0.58776 0.0
H6000 H 0.62611 0.46392 0.61775 0.0
H6001 H 0.65503 0.40732 0.46953 0.0
H6002 H 0.19185 0.07774 0.50698 0.0
H6003 H 0.16692 0.06387 0.50969 0.0
H6004 H 0.1486 0.10463 0.49817 0.0
H6005 H 0.17359 0.11866 0.49556 0.0
H6006 H 0.13749 0.09233 0.52429 0.0
H6007 H 0.14302 0.07259 0.47007 0.0
H6008 H 0.15548 0.06065 0.44878 0.0
H6009 H 0.15379 0.01832 0.47137 0.0
H6010 H 0.14151 0.03011 0.49293 0.0
H6011 H 0.06136 0.05066 0.51461 0.0
H6012 H 0.08514 0.06681 0.51109 0.0
H6013 H 0.10629 0.02623 0.51491 0.0
H6014 H 0.08243 0.01007 0.51779 0.0
H6015 H 0.1154 0.03978 0.49155 0.0
H6016 H 0.11116 0.05976 0.54657 0.0
H6017 H 0.09869 0.07147 0.56801 0.0
H6018 H 0.09806 0.11297 0.54439 0.0
H6019 H 0.11036 0.10141 0.5227 0.0
C6020 C 0.18254 0.08381 0.50506 0.0
C6021 C 0.18479 0.09934 0.501 0.0
C6022 C 0.16824 0.07581 0.50654 0.0
C6023 C 0.15578 0.08312 0.50405 0.0
C6024 C 0.15799 0.09869 0.50013 0.0
C6025 C 0.17229 0.10665 0.4985 0.0
C6026 C 0.14052 0.07446 0.50549 0.0
C6027 C 0.13256 0.08094 0.51698 0.0
C6028 C 0.13412 0.05945 0.49617 0.0
C6029 C 0.14147 0.0523 0.4832 0.0
C6030 C 0.14542 0.06079 0.47057 0.0
C6031 C 0.15243 0.05404 0.45844 0.0
C6032 C 0.15546 0.03875 0.45874 0.0
C6033 C 0.15145 0.03017 0.47116 0.0
C6034 C 0.14445 0.03688 0.48333 0.0
C6035 C 0.07112 0.04529 0.51486 0.0
C6036 C 0.07001 0.02915 0.51659 0.0
C6037 C 0.08478 0.05453 0.51288 0.0
C6038 C 0.09773 0.04788 0.51291 0.0
C6039 C 0.09657 0.03174 0.51479 0.0
C6040 C 0.0829 0.0225 0.51653 0.0
C6041 C 0.11241 0.05745 0.51062 0.0
C6042 C 0.12027 0.05117 0.4989 0.0
C6043 C 0.11873 0.07259 0.5198 0.0
C6044 C 0.11155 0.07966 0.53294 0.0
C6045 C 0.10829 0.07135 0.54591 0.0
C6046 C 0.10126 0.07796 0.55811 0.0
C6047 C 0.09755 0.09294 0.55754 0.0
C6048 C 0.10092 0.10136 0.5448 0.0
C6049 C 0.10793 0.09479 0.53256 0.0
H6050 H 0.0921 0.09803 0.56698 0.0
H6051 H 0.16088 0.03354 0.44934 0.0
H6052 H 0.19945 0.97893 0.79838 0.0
H6053 H 0.21227 0.95641 0.79638 0.0
H6054 H 0.17013 0.92447 0.77876 0.0
H6055 H 0.15721 0.94696 0.78083 0.0
H6056 H 0.18675 0.91161 0.80007 0.0
H6057 H 0.19434 0.93584 0.7527 0.0
H6058 H 0.20152 0.95772 0.7371 0.0
H6059 H 0.24656 0.96599 0.76223 0.0
H6060 H 0.2396 0.94429 0.77816 0.0
H6061 H 0.22189 0.84762 0.77036 0.0
H6062 H 0.20654 0.8681 0.77271 0.0
H6063 H 0.24588 0.90318 0.79377 0.0
H6064 H 0.26117 0.88285 0.79176 0.0
H6065 H 0.22928 0.9133 0.76915 0.0
H6066 H 0.22087 0.88906 0.81709 0.0
H6067 H 0.21328 0.86663 0.83186 0.0
H6068 H 0.16914 0.85761 0.80429 0.0
H6069 H 0.17654 0.87987 0.7892 0.0
C6070 C 0.19292 0.96713 0.79399 0.0
C6071 C 0.17732 0.96477 0.78967 0.0
C6072 C 0.20026 0.95425 0.79287 0.0
C6073 C 0.1922 0.93874 0.78719 0.0
C6074 C 0.17659 0.9363 0.78317 0.0
C6075 C 0.16922 0.94918 0.78438 0.0
C6076 C 0.20011 0.92515 0.78529 0.0
C6077 C 0.19591 0.91189 0.79311 0.0
C6078 C 0.21215 0.92551 0.77633 0.0
C6079 C 0.21641 0.93853 0.76672 0.0
C6080 C 0.20575 0.9424 0.75498 0.0
C6081 C 0.20978 0.95476 0.74607 0.0
C6082 C 0.22448 0.96327 0.7487 0.0
C6083 C 0.23518 0.9594 0.76022 0.0
C6084 C 0.2312 0.94706 0.76919 0.0
C6085 C 0.22722 0.85965 0.77571 0.0
C6086 C 0.24279 0.86361 0.78072 0.0
C6087 C 0.21845 0.87135 0.777 0.0
C6088 C 0.22508 0.88719 0.78339 0.0
C6089 C 0.24054 0.89107 0.78868 0.0
C6090 C 0.24928 0.87943 0.78745 0.0
C6091 C 0.21611 0.89993 0.78417 0.0
C6092 C 0.22008 0.91301 0.77606 0.0
C6093 C 0.2038 0.89931 0.79274 0.0
C6094 C 0.19931 0.88602 0.8019 0.0
C6095 C 0.20958 0.88222 0.81409 0.0
C6096 C 0.20531 0.86955 0.82253 0.0
C6097 C 0.19075 0.86067 0.81898 0.0
C6098 C 0.18042 0.86448 0.80701 0.0
C6099 C 0.18465 0.87713 0.79852 0.0
H6100 H 0.18746 0.85086 0.82552 0.0
H6101 H 0.22758 0.97283 0.74179 0.0
H6102 H 0.31996 0.92147 0.00712 0.0
H6103 H 0.34234 0.942 0.00946 0.0
H6104 H 0.31959 0.9654 0.97382 0.0
H6105 H 0.29698 0.9447 0.97143 0.0
H6106 H 0.34736 0.96009 0.96717 0.0
H6107 H 0.32788 0.98402 0.01118 0.0
H6108 H 0.31611 0.98531 0.03594 0.0
H6109 H 0.35352 0.97083 0.06229 0.0
H6110 H 0.36542 0.96921 0.03762 0.0
H6111 H 0.41949 0.00955 0.9794 0.0
H6112 H 0.39237 1.00402 0.97909 0.0
H6113 H 0.39767 0.97201 0.01439 0.0
H6114 H 0.42469 0.97768 0.01493 0.0
H6115 H 0.37582 0.98908 0.01981 0.0
H6116 H 0.39098 0.95814 0.97446 0.0
H6117 H 0.40265 0.95511 0.9497 0.0
H6118 H 0.37303 0.98172 0.9261 0.0
H6119 H 0.36132 0.98508 0.95083 0.0
C6120 C 0.31972 0.93102 0.99982 0.0
C6121 C 0.30686 0.93147 0.98898 0.0
C6122 C 0.33244 0.94283 1.00129 0.0
C6123 C 0.33255 0.9553 0.99194 0.0
C6124 C 0.31965 0.95592 0.98122 0.0
C6125 C 0.3068 0.94415 0.97987 0.0
C6126 C 0.34665 0.96678 0.9926 0.0
C6127 C 0.35341 0.96686 0.97857 0.0
C6128 C 0.35457 0.9754 0.00753 0.0
C6129 C 0.34753 0.97645 0.02249 0.0
C6130 C 0.33356 0.98101 0.02222 0.0
C6131 C 0.32686 0.98181 0.03625 0.0
C6132 C 0.33405 0.97814 0.05068 0.0
C6133 C 0.34797 0.97369 0.05111 0.0
C6134 C 0.35471 0.97285 0.0371 0.0
C6135 C 0.41487 1.00164 0.98737 0.0
C6136 C 0.42412 0.99388 0.99705 0.0
C6137 C 0.3994 0.99845 0.98714 0.0
C6138 C 0.39303 0.98748 0.99659 0.0
C6139 C 0.40237 0.98051 0.00701 0.0
C6140 C 0.41777 0.98364 0.0072 0.0
C6141 C 0.37668 0.98184 0.99453 0.0
C6142 C 0.36953 0.98281 0.0083 0.0
C6143 C 0.36841 0.97409 0.97939 0.0
C6144 C 0.37543 0.97206 0.96454 0.0
C6145 C 0.38705 0.96346 0.96403 0.0
C6146 C 0.39366 0.96167 0.95 0.0
C6147 C 0.38863 0.96827 0.93636 0.0
C6148 C 0.37695 0.97665 0.9367 0.0
C6149 C 0.37033 0.97851 0.95071 0.0
H6150 H 0.39375 0.96686 0.9255 0.0
H6151 H 0.32885 0.97877 0.06153 0.0
H6152 H 0.87579 0.62706 0.74547 0.0
H6153 H 0.86382 0.65027 0.74634 0.0
H6154 H 0.83119 0.62729 0.77267 0.0
H6155 H 0.84288 0.60387 0.7715 0.0
H6156 H 0.81683 0.64199 0.752 0.0
H6157 H 0.86298 0.66137 0.78993 0.0
H6158 H 0.89034 0.66778 0.7982 0.0
H6159 H 0.89458 0.6974 0.76065 0.0
H6160 H 0.86726 0.69118 0.75218 0.0
H6161 H 0.78309 0.70907 0.77199 0.0
H6162 H 0.7958 0.68648 0.7715 0.0
H6163 H 0.83284 0.71409 0.75445 0.0
H6164 H 0.82051 0.73716 0.75626 0.0
H6165 H 0.84535 0.69694 0.7697 0.0
H6166 H 0.80161 0.67853 0.73035 0.0
H6167 H 0.77475 0.67246 0.71914 0.0
H6168 H 0.76638 0.64104 0.75443 0.0
H6169 H 0.79318 0.64705 0.76597 0.0
C6170 C 0.86602 0.62672 0.75142 0.0
C6171 C 0.8606 0.61305 0.75843 0.0
C6172 C 0.85917 0.64035 0.7521 0.0
C6173 C 0.84646 0.64118 0.75984 0.0
C6174 C 0.84092 0.62748 0.76666 0.0
C6175 C 0.84783 0.61389 0.76608 0.0
C6176 C 0.83882 0.65592 0.76058 0.0
C6177 C 0.82316 0.65395 0.75613 0.0
C6178 C 0.84669 0.67198 0.76523 0.0
C6179 C 0.8631 0.67567 0.77032 0.0
C6180 C 0.86976 0.66917 0.78339 0.0
C6181 C 0.88526 0.67281 0.78814 0.0
C6182 C 0.8942 0.68295 0.77993 0.0
C6183 C 0.88765 0.68951 0.76697 0.0
C6184 C 0.87216 0.68599 0.76224 0.0
C6185 C 0.79392 0.71041 0.76802 0.0
C6186 C 0.80048 0.72524 0.76397 0.0
C6187 C 0.80127 0.69718 0.76754 0.0
C6188 C 0.8154 0.69774 0.76233 0.0
C6189 C 0.82204 0.71271 0.75846 0.0
C6190 C 0.81485 0.72611 0.75941 0.0
C6191 C 0.82324 0.68307 0.7612 0.0
C6192 C 0.83894 0.68503 0.76556 0.0
C6193 C 0.81547 0.66701 0.75597 0.0
C6194 C 0.79937 0.66337 0.74912 0.0
C6195 C 0.79402 0.6704 0.73577 0.0
C6196 C 0.77882 0.66696 0.72936 0.0
C6197 C 0.76886 0.65641 0.7361 0.0
C6198 C 0.7741 0.64923 0.74924 0.0
C6199 C 0.7893 0.65264 0.75572 0.0
H6200 H 0.75709 0.65376 0.73112 0.0
H6201 H 0.90619 0.68578 0.78364 0.0
H6202 H 0.84841 0.62653 0.00636 0.0
H6203 H 0.87019 0.61392 0.00876 0.0
H6204 H 0.8414 0.56801 0.00469 0.0
H6205 H 0.81955 0.58063 1.00305 0.0
H6206 H 0.86433 0.56985 0.02746 0.0
H6207 H 0.8592 0.58095 0.97254 0.0
H6208 H 0.85679 0.59751 0.95062 0.0
H6209 H 0.8993 0.62713 0.97085 0.0
H6210 H 0.90187 0.61086 0.99302 0.0
H6211 H 0.91828 0.52271 0.01132 0.0
H6212 H 0.89678 0.53578 0.00915 0.0
H6213 H 0.92627 0.58156 0.01654 0.0
H6214 H 0.94793 0.56858 0.01901 0.0
H6215 H 0.90323 0.57997 0.99222 0.0
H6216 H 0.90826 0.56843 0.04705 0.0
H6217 H 0.91057 0.5515 0.06865 0.0
H6218 H 0.86799 0.52222 0.04809 0.0
H6219 H 0.86552 0.53886 0.02622 0.0
C6220 C 0.84664 0.61376 0.00614 0.0
C6221 C 0.83208 0.60467 0.0045 0.0
C6222 C 0.85917 0.60651 0.00731 0.0
C6223 C 0.85755 0.58992 0.00667 0.0
C6224 C 0.84304 0.58081 0.00514 0.0
C6225 C 0.83049 0.58806 0.00403 0.0
C6226 C 0.87093 0.58211 0.00784 0.0
C6227 C 0.8727 0.57191 0.01957 0.0
C6228 C 0.88215 0.585 0.99786 0.0
C6229 C 0.88065 0.59478 0.98453 0.0
C6230 C 0.86798 0.59107 0.97238 0.0
C6231 C 0.8666 0.60039 0.9599 0.0
C6232 C 0.87787 0.61339 0.95937 0.0
C6233 C 0.89057 0.61707 0.97129 0.0
C6234 C 0.892 0.60779 0.98381 0.0
C6235 C 0.92027 0.53558 0.01272 0.0
C6236 C 0.93497 0.54453 0.01551 0.0
C6237 C 0.9079 0.54306 0.0114 0.0
C6238 C 0.90981 0.55972 0.01287 0.0
C6239 C 0.92444 0.5687 0.01536 0.0
C6240 C 0.93685 0.56122 0.01672 0.0
C6241 C 0.89657 0.5677 0.01179 0.0
C6242 C 0.89484 0.57793 1.00009 0.0
C6243 C 0.88535 0.56479 0.02175 0.0
C6244 C 0.88677 0.5548 0.03491 0.0
C6245 C 0.89944 0.55831 0.04706 0.0
C6246 C 0.90077 0.54878 0.05936 0.0
C6247 C 0.88945 0.53577 0.05971 0.0
C6248 C 0.87676 0.53229 0.04779 0.0
C6249 C 0.87538 0.54177 0.03545 0.0
H6250 H 0.8905 0.5284 0.06925 0.0
H6251 H 0.87678 0.62059 0.94969 0.0
H6252 H 0.17331 0.12007 0.77254 0.0
H6253 H 0.19002 0.14489 0.77078 0.0
H6254 H 0.2187 0.13929 0.81389 0.0
H6255 H 0.20215 0.11421 0.8156 0.0
H6256 H 0.21453 0.17053 0.81369 0.0
H6257 H 0.22831 0.12976 0.77773 0.0
H6258 H 0.22373 0.10735 0.75539 0.0
H6259 H 0.20782 0.13686 0.72182 0.0
H6260 H 0.2121 0.1594 0.74403 0.0
H6261 H 0.27901 0.22559 0.80363 0.0
H6262 H 0.26138 0.20194 0.80727 0.0
H6263 H 0.23427 0.20432 0.76183 0.0
H6264 H 0.25214 0.22761 0.75791 0.0
H6265 H 0.23748 0.17479 0.76362 0.0
H6266 H 0.22429 0.21593 0.79917 0.0
H6267 H 0.22903 0.23853 0.82136 0.0
H6268 H 0.24337 0.20881 0.85552 0.0
H6269 H 0.23907 0.18611 0.83349 0.0
C6270 C 0.18321 0.12401 0.78161 0.0
C6271 C 0.18644 0.11496 0.79411 0.0
C6272 C 0.19273 0.13828 0.78063 0.0
C6273 C 0.20572 0.14388 0.79209 0.0
C6274 C 0.20873 0.13521 0.80491 0.0
C6275 C 0.19922 0.12088 0.80589 0.0
C6276 C 0.21639 0.15844 0.79029 0.0
C6277 C 0.2197 0.17142 0.80284 0.0
C6278 C 0.22288 0.15973 0.77597 0.0
C6279 C 0.22039 0.14622 0.76258 0.0
C6280 C 0.22372 0.13144 0.76561 0.0
C6281 C 0.2212 0.11871 0.75297 0.0
C6282 C 0.21545 0.12066 0.7372 0.0
C6283 C 0.21225 0.13536 0.73404 0.0
C6284 C 0.21473 0.14812 0.74665 0.0
C6285 C 0.26927 0.22107 0.79445 0.0
C6286 C 0.26684 0.22854 0.78059 0.0
C6287 C 0.25914 0.20762 0.79658 0.0
C6288 C 0.24634 0.20145 0.78494 0.0
C6289 C 0.244 0.20888 0.77103 0.0
C6290 C 0.25415 0.22227 0.76886 0.0
C6291 C 0.23563 0.187 0.787 0.0
C6292 C 0.23231 0.17399 0.77448 0.0
C6293 C 0.2291 0.18575 0.80132 0.0
C6294 C 0.23149 0.19934 0.81463 0.0
C6295 C 0.22856 0.21424 0.81138 0.0
C6296 C 0.23115 0.22706 0.82393 0.0
C6297 C 0.2365 0.22511 0.83982 0.0
C6298 C 0.23924 0.21031 0.8432 0.0
C6299 C 0.23674 0.19746 0.83069 0.0
H6300 H 0.2385 0.23505 0.84951 0.0
H6301 H 0.21351 0.1108 0.72743 0.0
H6302 H 0.35031 0.94061 0.22945 0.0
H6303 H 0.3385 0.91311 0.23038 0.0
H6304 H 0.34672 0.92188 0.28276 0.0
H6305 H 0.35872 0.94932 0.2819 0.0
H6306 H 0.35151 0.89399 0.2751 0.0
H6307 H 0.31 0.91755 0.25672 0.0
H6308 H 0.29546 0.93215 0.23901 0.0
H6309 H 0.29477 0.89709 0.19791 0.0
H6310 H 0.30948 0.88239 0.21535 0.0
H6311 H 0.30217 0.82427 0.28863 0.0
H6312 H 0.31401 0.85152 0.2866 0.0
H6313 H 0.30936 0.83956 0.23458 0.0
H6314 H 0.29745 0.81218 0.23654 0.0
H6315 H 0.30286 0.86863 0.24148 0.0
H6316 H 0.3438 0.84472 0.26027 0.0
H6317 H 0.35788 0.82996 0.27825 0.0
H6318 H 0.35921 0.86572 0.31894 0.0
H6319 H 0.34495 0.88058 0.30124 0.0
C6320 C 0.34951 0.93685 0.24123 0.0
C6321 C 0.35563 0.94763 0.25558 0.0
C6322 C 0.34263 0.9209 0.24177 0.0
C6323 C 0.3413 0.915 0.25667 0.0
C6324 C 0.34746 0.92573 0.271 0.0
C6325 C 0.35444 0.94164 0.27048 0.0
C6326 C 0.33375 0.89779 0.25741 0.0
C6327 C 0.34076 0.88864 0.26787 0.0
C6328 C 0.31981 0.89017 0.24781 0.0
C6329 C 0.31097 0.89897 0.23731 0.0
C6330 C 0.30684 0.91302 0.24389 0.0
C6331 C 0.29855 0.9213 0.2339 0.0
C6332 C 0.29423 0.91558 0.21734 0.0
C6333 C 0.29815 0.90153 0.21074 0.0
C6334 C 0.30645 0.89321 0.22067 0.0
C6335 C 0.30364 0.82732 0.2767 0.0
C6336 C 0.29876 0.81567 0.26278 0.0
C6337 C 0.31056 0.84307 0.27555 0.0
C6338 C 0.31291 0.84796 0.26042 0.0
C6339 C 0.30784 0.83641 0.24647 0.0
C6340 C 0.30101 0.82058 0.24762 0.0
C6341 C 0.32058 0.86496 0.25923 0.0
C6342 C 0.31361 0.87402 0.2487 0.0
C6343 C 0.33451 0.87253 0.2688 0.0
C6344 C 0.34318 0.86369 0.27946 0.0
C6345 C 0.34701 0.84938 0.27308 0.0
C6346 C 0.35503 0.841 0.28321 0.0
C6347 C 0.3594 0.84688 0.29973 0.0
C6348 C 0.3558 0.86117 0.30614 0.0
C6349 C 0.34775 0.86958 0.29606 0.0
H6350 H 0.36561 0.84037 0.30756 0.0
H6351 H 0.28782 0.922 0.20963 0.0
H6352 H 0.57061 0.36684 0.59284 0.0
H6353 H 0.56971 0.39086 0.58027 0.0
H6354 H 0.52218 0.37552 0.56538 0.0
H6355 H 0.52311 0.35106 0.57706 0.0
H6356 H 0.53335 0.38771 0.5418 0.0
H6357 H 0.53903 0.40553 0.59958 0.0
H6358 H 0.55131 0.40906 0.62812 0.0
H6359 H 0.59147 0.43461 0.61529 0.0
H6360 H 0.57946 0.43109 0.5866 0.0
H6361 H 0.51098 0.45999 0.52831 0.0
H6362 H 0.51564 0.4357 0.53852 0.0
H6363 H 0.56296 0.45494 0.54804 0.0
H6364 H 0.55834 0.47951 0.53796 0.0
H6365 H 0.55427 0.44108 0.57338 0.0
H6366 H 0.54797 0.42532 0.51614 0.0
H6367 H 0.53575 0.42203 0.48761 0.0
H6368 H 0.49702 0.3926 0.49927 0.0
H6369 H 0.50892 0.3959 0.52793 0.0
C6370 C 0.55996 0.3684 0.58672 0.0
C6371 C 0.54691 0.35684 0.58615 0.0
C6372 C 0.55943 0.38234 0.57969 0.0
C6373 C 0.54582 0.38531 0.57206 0.0
C6374 C 0.53284 0.37369 0.57124 0.0
C6375 C 0.53337 0.3597 0.57814 0.0
C6376 C 0.545 0.40039 0.5649 0.0
C6377 C 0.53778 0.39936 0.54882 0.0
C6378 C 0.5512 0.41573 0.57372 0.0
C6379 C 0.5584 0.41792 0.59094 0.0
C6380 C 0.55051 0.41182 0.60283 0.0
C6381 C 0.55741 0.41384 0.61903 0.0
C6382 C 0.57217 0.42203 0.6235 0.0
C6383 C 0.58005 0.42827 0.61179 0.0
C6384 C 0.57319 0.42628 0.59557 0.0
C6385 C 0.52242 0.45909 0.53245 0.0
C6386 C 0.53427 0.47179 0.53222 0.0
C6387 C 0.52508 0.44509 0.53827 0.0
C6388 C 0.53968 0.4433 0.54395 0.0
C6389 C 0.55158 0.45595 0.54373 0.0
C6390 C 0.54892 0.47 0.53787 0.0
C6391 C 0.54233 0.42835 0.55044 0.0
C6392 C 0.54991 0.42942 0.56635 0.0
C6393 C 0.53648 0.41304 0.54146 0.0
C6394 C 0.5293 0.41096 0.52422 0.0
C6395 C 0.5368 0.41824 0.51265 0.0
C6396 C 0.52994 0.41636 0.49645 0.0
C6397 C 0.51561 0.40714 0.49164 0.0
C6398 C 0.50812 0.39975 0.50302 0.0
C6399 C 0.51492 0.40161 0.51924 0.0
H6400 H 0.51032 0.4057 0.47909 0.0
H6401 H 0.5775 0.42357 0.63605 0.0
H6402 H 0.42169 0.76449 0.37501 0.0
H6403 H 0.39774 0.76655 0.35991 0.0
H6404 H 0.40769 0.73989 0.31723 0.0
H6405 H 0.43204 0.73842 0.33205 0.0
H6406 H 0.39572 0.76363 0.30855 0.0
H6407 H 0.38251 0.72335 0.34164 0.0
H6408 H 0.38163 0.71157 0.367 0.0
H6409 H 0.35943 0.74785 0.38604 0.0
H6410 H 0.36037 0.75999 0.36086 0.0
H6411 H 0.3215 0.73895 0.26518 0.0
H6412 H 0.34538 0.73875 0.28184 0.0
H6413 H 0.33797 0.77631 0.31669 0.0
H6414 H 0.31417 0.77697 0.29969 0.0
H6415 H 0.34827 0.74814 0.32987 0.0
H6416 H 0.36127 0.78792 0.29594 0.0
H6417 H 0.36159 0.79861 0.26994 0.0
H6418 H 0.3837 0.76182 0.25191 0.0
H6419 H 0.38331 0.75076 0.27774 0.0
C6420 C 0.41892 0.75918 0.36236 0.0
C6421 C 0.42896 0.75129 0.35482 0.0
C6422 C 0.40505 0.7602 0.35376 0.0
C6423 C 0.40069 0.75321 0.33742 0.0
C6424 C 0.41069 0.74537 0.32982 0.0
C6425 C 0.42461 0.74439 0.3384 0.0
C6426 C 0.38584 0.75424 0.3282 0.0
C6427 C 0.38537 0.76005 0.31318 0.0
C6428 C 0.37222 0.74993 0.33428 0.0
C6429 C 0.37165 0.74268 0.34944 0.0
C6430 C 0.37755 0.7289 0.35129 0.0
C6431 C 0.37702 0.72214 0.36562 0.0
C6432 C 0.37052 0.72899 0.37815 0.0
C6433 C 0.36449 0.74258 0.37634 0.0
C6434 C 0.36501 0.7494 0.36204 0.0
C6435 C 0.32491 0.74717 0.2764 0.0
C6436 C 0.3159 0.75795 0.28113 0.0
C6437 C 0.33858 0.74704 0.28591 0.0
C6438 C 0.34349 0.75751 0.30052 0.0
C6439 C 0.33439 0.76809 0.30549 0.0
C6440 C 0.32079 0.76844 0.29578 0.0
C6441 C 0.35826 0.75745 0.31032 0.0
C6442 C 0.35868 0.75178 0.32537 0.0
C6443 C 0.37181 0.76177 0.30424 0.0
C6444 C 0.37212 0.76841 0.28871 0.0
C6445 C 0.36607 0.78201 0.28638 0.0
C6446 C 0.36629 0.78817 0.27168 0.0
C6447 C 0.37262 0.78087 0.25926 0.0
C6448 C 0.37878 0.76744 0.26154 0.0
C6449 C 0.37858 0.76124 0.27621 0.0
H6450 H 0.37279 0.78565 0.2479 0.0
H6451 H 0.37011 0.72373 0.38923 0.0
H6452 H 0.06478 0.69802 0.08911 0.0
H6453 H 0.06324 0.67049 0.07699 0.0
H6454 H 0.01601 0.66613 0.06113 0.0
H6455 H 0.01738 0.69356 0.07367 0.0
H6456 H 0.02135 0.64061 0.07445 0.0
H6457 H 0.04144 0.66946 0.03424 0.0
H6458 H 0.05904 0.68944 0.02394 0.0
H6459 H 0.09525 0.66672 0.03978 0.0
H6460 H 0.07789 0.64672 0.05038 0.0
H6461 H 0.00989 0.56698 0.02339 0.0
H6462 H 0.01199 0.59515 0.03326 0.0
H6463 H 0.05936 0.59953 0.04824 0.0
H6464 H 0.0574 0.57131 0.03803 0.0
H6465 H 0.05404 0.62511 0.03524 0.0
H6466 H 0.03419 0.5966 0.07586 0.0
H6467 H 0.01669 0.57652 0.08616 0.0
H6468 H 0.98021 0.59863 0.06978 0.0
H6469 H 0.99747 0.61874 0.05919 0.0
C6470 C 0.05403 0.69122 0.0831 0.0
C6471 C 0.0412 0.6981 0.08242 0.0
C6472 C 0.0532 0.67547 0.07601 0.0
C6473 C 0.03953 0.66617 0.06797 0.0
C6474 C 0.0267 0.67301 0.06721 0.0
C6475 C 0.02754 0.68879 0.07427 0.0
C6476 C 0.03853 0.64922 0.06076 0.0
C6477 C 0.02835 0.63727 0.06569 0.0
C6478 C 0.04792 0.6447 0.04964 0.0
C6479 C 0.05838 0.65669 0.04324 0.0
C6480 C 0.05317 0.6688 0.03564 0.0
C6481 C 0.06311 0.68012 0.02973 0.0
C6482 C 0.07826 0.67938 0.03124 0.0
C6483 C 0.08351 0.66729 0.03863 0.0
C6484 C 0.07363 0.65596 0.04458 0.0
C6485 C 0.0208 0.5739 0.02871 0.0
C6486 C 0.03347 0.56676 0.02999 0.0
C6487 C 0.02197 0.59006 0.03444 0.0
C6488 C 0.03579 0.59951 0.04183 0.0
C6489 C 0.04855 0.59254 0.04267 0.0
C6490 C 0.04741 0.57636 0.03683 0.0
C6491 C 0.03683 0.61652 0.0489 0.0
C6492 C 0.04703 0.62846 0.04398 0.0
C6493 C 0.02748 0.62105 0.06007 0.0
C6494 C 0.0171 0.60909 0.0666 0.0
C6495 C 0.02242 0.59712 0.07437 0.0
C6496 C 0.01255 0.58574 0.08027 0.0
C6497 C 0.99734 0.58628 0.07859 0.0
C6498 C 0.99199 0.59823 0.07106 0.0
C6499 C 1.00181 0.60963 0.06512 0.0
H6500 H 0.98972 0.57745 0.08316 0.0
H6501 H 0.08593 0.68815 0.02666 0.0
H6502 H 0.09149 0.24932 0.88265 0.0
H6503 H 0.11427 0.25083 0.8705 0.0
H6504 H 0.09044 0.2591 0.8254 0.0
H6505 H 0.06738 0.2568 0.83722 0.0
H6506 H 0.10821 0.23939 0.81893 0.0
H6507 H 0.11486 0.28959 0.85292 0.0
H6508 H 0.11595 0.30762 0.87836 0.0
H6509 H 0.15158 0.28786 0.90139 0.0
H6510 H 0.15056 0.26955 0.87614 0.0
H6511 H 0.17119 0.26875 0.78277 0.0
H6512 H 0.14863 0.26633 0.79544 0.0
H6513 H 0.17275 0.25419 0.83841 0.0
H6514 H 0.19554 0.2569 0.82589 0.0
H6515 H 0.15514 0.27552 0.84623 0.0
H6516 H 0.14862 0.22567 0.81161 0.0
H6517 H 0.14754 0.20814 0.78586 0.0
H6518 H 0.11158 0.22793 0.76362 0.0
H6519 H 0.11259 0.24576 0.7892 0.0
C6520 C 0.09097 0.25125 0.87007 0.0
C6521 C 0.07745 0.25293 0.86099 0.0
C6522 C 0.10413 0.25233 0.86317 0.0
C6523 C 0.10425 0.25535 0.84705 0.0
C6524 C 0.09075 0.25685 0.83788 0.0
C6525 C 0.07755 0.25568 0.84474 0.0
C6526 C 0.11837 0.25683 0.83974 0.0
C6527 C 0.11839 0.24746 0.82483 0.0
C6528 C 0.13187 0.26707 0.84751 0.0
C6529 C 0.13253 0.27809 0.86269 0.0
C6530 C 0.12285 0.289 0.86345 0.0
C6531 C 0.12347 0.29929 0.87783 0.0
C6532 C 0.1338 0.29885 0.89149 0.0
C6533 C 0.14356 0.28816 0.8908 0.0
C6534 C 0.14298 0.27784 0.87646 0.0
C6535 C 0.17178 0.26571 0.79498 0.0
C6536 C 0.18527 0.26307 0.80329 0.0
C6537 C 0.15879 0.26417 0.80217 0.0
C6538 C 0.15887 0.25991 0.81786 0.0
C6539 C 0.17235 0.25743 0.82629 0.0
C6540 C 0.18536 0.25888 0.81905 0.0
C6541 C 0.14492 0.25813 0.82544 0.0
C6542 C 0.14494 0.26744 0.84037 0.0
C6543 C 0.13145 0.2479 0.81765 0.0
C6544 C 0.13078 0.23715 0.80228 0.0
C6545 C 0.14056 0.22637 0.8012 0.0
C6546 C 0.13995 0.21637 0.78664 0.0
C6547 C 0.12953 0.21695 0.7731 0.0
C6548 C 0.11966 0.22751 0.77411 0.0
C6549 C 0.12024 0.23756 0.78864 0.0
H6550 H 0.12907 0.20919 0.76184 0.0
H6551 H 0.13426 0.30682 0.90261 0.0
H6552 H 0.5468 0.72288 0.92931 0.0
H6553 H 0.5503 0.69911 0.94122 0.0
H6554 H 0.54234 0.67174 0.89331 0.0
H6555 H 0.53834 0.69554 0.88126 0.0
H6556 H 0.52675 0.65644 0.91371 0.0
H6557 H 0.57727 0.68025 0.91471 0.0
H6558 H 0.59951 0.70177 0.91933 0.0
H6559 H 0.59758 0.70806 0.97055 0.0
H6560 H 0.57519 0.68674 0.96623 0.0
H6561 H 0.53944 0.59344 0.95912 0.0
H6562 H 0.54282 0.61168 0.93905 0.0
H6563 H 0.55177 0.65165 0.97746 0.0
H6564 H 0.54931 0.63357 0.99758 0.0
H6565 H 0.56994 0.65678 0.95609 0.0
H6566 H 0.51603 0.63654 0.953 0.0
H6567 H 0.49377 0.61496 0.94793 0.0
H6568 H 0.50272 0.60153 0.89973 0.0
H6569 H 0.52511 0.62296 0.90459 0.0
C6570 C 0.54577 0.71181 0.92129 0.0
C6571 C 0.54224 0.71107 0.90435 0.0
C6572 C 0.54794 0.69826 0.9281 0.0
C6573 C 0.54678 0.6837 0.91813 0.0
C6574 C 0.54338 0.6829 0.90119 0.0
C6575 C 0.5412 0.6965 0.89434 0.0
C6576 C 0.54841 0.66928 0.92569 0.0
C6577 C 0.53635 0.65633 0.92271 0.0
C6578 C 0.56094 0.66914 0.9374 0.0
C6579 C 0.5745 0.68191 0.94012 0.0
C6580 C 0.58153 0.68628 0.92695 0.0
C6581 C 0.59417 0.69844 0.92952 0.0
C6582 C 0.59994 0.70629 0.94522 0.0
C6583 C 0.5931 0.70197 0.9584 0.0
C6584 C 0.58045 0.68982 0.9559 0.0
C6585 C 0.54242 0.60611 0.96331 0.0
C6586 C 0.54396 0.61206 0.97996 0.0
C6587 C 0.54419 0.61652 0.9518 0.0
C6588 C 0.5473 0.63304 0.95673 0.0
C6589 C 0.54931 0.63895 0.97336 0.0
C6590 C 0.54772 0.62859 0.98485 0.0
C6591 C 0.54794 0.6444 0.94475 0.0
C6592 C 0.56049 0.65673 0.94683 0.0
C6593 C 0.5359 0.64392 0.93217 0.0
C6594 C 0.52232 0.63122 0.92922 0.0
C6595 C 0.51328 0.62894 0.94136 0.0
C6596 C 0.50064 0.61674 0.93851 0.0
C6597 C 0.49686 0.60685 0.92353 0.0
C6598 C 0.50567 0.60918 0.91134 0.0
C6599 C 0.51833 0.62135 0.91413 0.0
H6600 H 0.48709 0.5974 0.92136 0.0
H6601 H 0.60973 0.7157 0.94718 0.0
H6602 H 0.1187 0.77908 0.68989 0.0
H6603 H 0.14555 0.7814 0.69653 0.0
H6604 H 0.13997 0.762 0.74097 0.0
H6605 H 0.11293 0.76045 0.73488 0.0
H6606 H 0.165 0.78484 0.74527 0.0
H6607 H 0.14315 0.7379 0.70799 0.0
H6608 H 0.12741 0.72216 0.68331 0.0
H6609 H 0.15415 0.74829 0.65339 0.0
H6610 H 0.16991 0.76437 0.6779 0.0
H6611 H 0.23209 0.74598 0.73063 0.0
H6612 H 0.20543 0.7457 0.72405 0.0
H6613 H 0.21418 0.79702 0.73113 0.0
H6614 H 0.24085 0.79748 0.73807 0.0
H6615 H 0.18726 0.75645 0.7025 0.0
H6616 H 0.18772 0.80941 0.75269 0.0
H6617 H 0.20367 0.82278 0.77833 0.0
H6618 H 0.21975 0.77979 0.78485 0.0
H6619 H 0.20344 0.76597 0.75968 0.0
C6620 C 0.12312 0.77574 0.70134 0.0
C6621 C 0.11359 0.7695 0.71183 0.0
C6622 C 0.1385 0.77692 0.70502 0.0
C6623 C 0.14469 0.77157 0.71906 0.0
C6624 C 0.13537 0.76609 0.73 0.0
C6625 C 0.11993 0.76506 0.72642 0.0
C6626 C 0.16071 0.77067 0.72158 0.0
C6627 C 0.16989 0.77867 0.73594 0.0
C6628 C 0.16698 0.7622 0.70957 0.0
C6629 C 0.15764 0.75243 0.69479 0.0
C6630 C 0.14561 0.74036 0.69615 0.0
C6631 C 0.13669 0.73137 0.68219 0.0
C6632 C 0.13976 0.73425 0.66679 0.0
C6633 C 0.15178 0.74609 0.66533 0.0
C6634 C 0.16072 0.75514 0.67925 0.0
C6635 C 0.22841 0.75723 0.73049 0.0
C6636 C 0.23858 0.77176 0.73513 0.0
C6637 C 0.21315 0.75703 0.72671 0.0
C6638 C 0.20785 0.77133 0.72748 0.0
C6639 C 0.21806 0.78585 0.73082 0.0
C6640 C 0.23331 0.78608 0.7347 0.0
C6641 C 0.19163 0.77103 0.72593 0.0
C6642 C 0.1824 0.7627 0.7118 0.0
C6643 C 0.18529 0.77876 0.73839 0.0
C6644 C 0.19446 0.78671 0.75414 0.0
C6645 C 0.19451 0.80275 0.75969 0.0
C6646 C 0.20361 0.8104 0.77417 0.0
C6647 C 0.21271 0.80213 0.7832 0.0
C6648 C 0.21267 0.78617 0.77785 0.0
C6649 C 0.20345 0.77841 0.76352 0.0
H6650 H 0.2198 0.80808 0.79436 0.0
H6651 H 0.13283 0.72728 0.656 0.0
H6652 H 0.99857 0.34299 0.44081 0.0
H6653 H 0.9967 0.36652 0.45935 0.0
H6654 H 0.04077 0.38924 0.45283 0.0
H6655 H 0.0428 0.36566 0.43473 0.0
H6656 H 0.0381 0.39506 0.48307 0.0
H6657 H 0.00787 0.39725 0.43206 0.0
H6658 H 0.98754 0.38732 0.40892 0.0
H6659 H 0.95524 0.38526 0.44159 0.0
H6660 H 0.97541 0.39499 0.46496 0.0
H6661 H 0.01907 0.47769 0.48582 0.0
H6662 H 0.01451 0.45025 0.4724 0.0
H6663 H 0.02048 0.43394 0.51918 0.0
H6664 H 0.0256 0.46156 0.53267 0.0
H6665 H 0.99616 0.42319 0.47115 0.0
H6666 H 0.03977 0.40391 0.51656 0.0
H6667 H 0.06205 0.41588 0.53689 0.0
H6668 H 0.07083 0.45545 0.51056 0.0
H6669 H 0.04872 0.44361 0.48999 0.0
C6670 C 0.00785 0.35302 0.44342 0.0
C6671 C 0.02083 0.35255 0.43637 0.0
C6672 C 0.00677 0.36644 0.45397 0.0
C6673 C 0.01854 0.37972 0.45734 0.0
C6674 C 0.03158 0.37911 0.45049 0.0
C6675 C 0.03274 0.36565 0.44015 0.0
C6676 C 0.01727 0.39447 0.46764 0.0
C6677 C 0.02885 0.40112 0.48055 0.0
C6678 C 0.00528 0.40249 0.46428 0.0
C6679 C 0.99315 0.39665 0.45026 0.0
C6680 C 0.99644 0.39455 0.43432 0.0
C6681 C 0.98495 0.38898 0.42116 0.0
C6682 C 0.97011 0.38561 0.42379 0.0
C6683 C 0.96674 0.38784 0.43958 0.0
C6684 C 0.97819 0.39339 0.45278 0.0
C6685 C 0.0192 0.46824 0.49326 0.0
C6686 C 0.02295 0.4717 0.51025 0.0
C6687 C 0.01651 0.45255 0.48558 0.0
C6688 C 0.01742 0.44006 0.49477 0.0
C6689 C 0.02001 0.44343 0.51184 0.0
C6690 C 0.0229 0.45917 0.51953 0.0
C6691 C 0.01712 0.42388 0.48635 0.0
C6692 C 0.00524 0.41694 0.47387 0.0
C6693 C 0.02909 0.41584 0.4897 0.0
C6694 C 0.0425 0.42298 0.50189 0.0
C6695 C 0.04649 0.41515 0.51511 0.0
C6696 C 0.05908 0.42191 0.52667 0.0
C6697 C 0.06782 0.43645 0.52505 0.0
C6698 C 0.06402 0.44422 0.51183 0.0
C6699 C 0.05146 0.4375 0.50023 0.0
H6700 H 0.07755 0.44167 0.53402 0.0
H6701 H 0.96123 0.3813 0.41359 0.0
H6702 H 0.46924 0.23958 0.20817 0.0
H6703 H 0.44883 0.24518 0.22242 0.0
H6704 H 0.45955 0.29457 0.21604 0.0
H6705 H 0.48042 0.28921 0.20239 0.0
H6706 H 0.45319 0.29175 0.24604 0.0
H6707 H 0.43079 0.2692 0.19135 0.0
H6708 H 0.42529 0.24924 0.16667 0.0
H6709 H 0.40572 0.21386 0.19365 0.0
H6710 H 0.41129 0.23357 0.21856 0.0
H6711 H 0.3822 0.31255 0.25415 0.0
H6712 H 0.40574 0.30769 0.24598 0.0
H6713 H 0.39545 0.25935 0.25587 0.0
H6714 H 0.37204 0.26418 0.26436 0.0
H6715 H 0.40194 0.26132 0.22513 0.0
H6716 H 0.42322 0.28494 0.27968 0.0
H6717 H 0.4284 0.30549 0.30385 0.0
H6718 H 0.44958 0.33958 0.27654 0.0
H6719 H 0.44433 0.31929 0.25213 0.0
C6720 C 0.46738 0.25168 0.20998 0.0
C6721 C 0.47638 0.26394 0.20406 0.0
C6722 C 0.45564 0.25483 0.218 0.0
C6723 C 0.45257 0.27025 0.22009 0.0
C6724 C 0.46171 0.28258 0.2145 0.0
C6725 C 0.47351 0.27945 0.20654 0.0
C6726 C 0.43959 0.27343 0.22775 0.0
C6727 C 0.44195 0.28522 0.24138 0.0
C6728 C 0.42499 0.26469 0.22182 0.0
C6729 C 0.42161 0.25282 0.20686 0.0
C6730 C 0.42542 0.25713 0.19205 0.0
C6731 C 0.42227 0.24587 0.17802 0.0
C6732 C 0.4152 0.23028 0.1786 0.0
C6733 C 0.41122 0.22594 0.19322 0.0
C6734 C 0.41437 0.23715 0.2073 0.0
C6735 C 0.38512 0.30101 0.25498 0.0
C6736 C 0.37521 0.2887 0.25975 0.0
C6737 C 0.39856 0.29824 0.25028 0.0
C6738 C 0.40229 0.28316 0.25032 0.0
C6739 C 0.39271 0.27105 0.25569 0.0
C6740 C 0.37932 0.27381 0.26045 0.0
C6741 C 0.41552 0.2796 0.24344 0.0
C6742 C 0.41319 0.26777 0.22988 0.0
C6743 C 0.43008 0.28839 0.24936 0.0
C6744 C 0.43325 0.30063 0.26403 0.0
C6745 C 0.42886 0.29686 0.27878 0.0
C6746 C 0.43183 0.30845 0.29254 0.0
C6747 C 0.43928 0.32384 0.29173 0.0
C6748 C 0.44379 0.32766 0.27715 0.0
C6749 C 0.44084 0.31611 0.26336 0.0
H6750 H 0.44157 0.3328 0.30239 0.0
H6751 H 0.41276 0.22158 0.16772 0.0
H6752 H 0.58474 0.4988 0.35762 0.0
H6753 H 0.57373 0.49565 0.38227 0.0
H6754 H 0.59527 0.54359 0.40303 0.0
H6755 H 0.60679 0.54667 0.37856 0.0
H6756 H 0.59725 0.52354 0.42547 0.0
H6757 H 0.55823 0.53487 0.38735 0.0
H6758 H 0.54139 0.53139 0.3612 0.0
H6759 H 0.52286 0.48372 0.36772 0.0
H6760 H 0.53975 0.48684 0.39382 0.0
H6761 H 0.55183 0.53234 0.48773 0.0
H6762 H 0.56506 0.53501 0.4644 0.0
H6763 H 0.5445 0.4868 0.44348 0.0
H6764 H 0.53121 0.48409 0.4668 0.0
H6765 H 0.5423 0.50715 0.42138 0.0
H6766 H 0.58092 0.49617 0.46009 0.0
H6767 H 0.59706 0.50021 0.48674 0.0
H6768 H 0.61607 0.5475 0.47948 0.0
H6769 H 0.59981 0.54386 0.45291 0.0
C6770 C 0.58728 0.50865 0.36747 0.0
C6771 C 0.59667 0.52301 0.36604 0.0
C6772 C 0.58085 0.50687 0.38153 0.0
C6773 C 0.58352 0.51944 0.39448 0.0
C6774 C 0.593 0.53374 0.3932 0.0
C6775 C 0.59946 0.53553 0.37912 0.0
C6776 C 0.57625 0.51767 0.40923 0.0
C6777 C 0.58522 0.52015 0.4246 0.0
C6778 C 0.56057 0.51294 0.40812 0.0
C6779 C 0.55036 0.51104 0.39246 0.0
C6780 C 0.55065 0.5236 0.38314 0.0
C6781 C 0.54108 0.5217 0.36834 0.0
C6782 C 0.53109 0.50733 0.36278 0.0
C6783 C 0.53062 0.49484 0.37203 0.0
C6784 C 0.54018 0.49667 0.38684 0.0
C6785 C 0.5503 0.52223 0.47828 0.0
C6786 C 0.54051 0.50798 0.4791 0.0
C6787 C 0.55787 0.52377 0.46494 0.0
C6788 C 0.55583 0.51108 0.45219 0.0
C6789 C 0.54623 0.49676 0.45314 0.0
C6790 C 0.53869 0.4952 0.4665 0.0
C6791 C 0.56328 0.51293 0.4376 0.0
C6792 C 0.55433 0.51049 0.42226 0.0
C6793 C 0.57896 0.51772 0.43877 0.0
C6794 C 0.58904 0.51979 0.45456 0.0
C6795 C 0.58847 0.50747 0.46421 0.0
C6796 C 0.59764 0.50969 0.47931 0.0
C6797 C 0.60756 0.52411 0.48482 0.0
C6798 C 0.60837 0.53633 0.47521 0.0
C6799 C 0.59918 0.5342 0.46012 0.0
H6800 H 0.61464 0.52581 0.49652 0.0
H6801 H 0.52369 0.50588 0.35132 0.0
H6802 H 0.2923 0.84583 0.07757 0.0
H6803 H 0.30648 0.83514 0.09889 0.0
H6804 H 0.31422 0.79838 0.06321 0.0
H6805 H 0.29981 0.80904 0.04171 0.0
H6806 H 0.30198 0.78638 0.08752 0.0
H6807 H 0.34421 0.82454 0.08455 0.0
H6808 H 0.35892 0.85065 0.082 0.0
H6809 H 0.3484 0.87064 0.12746 0.0
H6810 H 0.33343 0.84473 0.13019 0.0
H6811 H 0.31769 0.761 0.16328 0.0
H6812 H 0.32639 0.76943 0.13864 0.0
H6813 H 0.31418 0.81502 0.15039 0.0
H6814 H 0.30589 0.80683 0.17509 0.0
H6815 H 0.33814 0.81778 0.13417 0.0
H6816 H 0.28836 0.78307 0.12911 0.0
H6817 H 0.27209 0.75775 0.13152 0.0
H6818 H 0.29637 0.73216 0.1007 0.0
H6819 H 0.31289 0.75735 0.09828 0.0
C6820 C 0.29717 0.83558 0.07425 0.0
C6821 C 0.29483 0.82813 0.05806 0.0
C6822 C 0.30546 0.82962 0.08639 0.0
C6823 C 0.31158 0.81609 0.08261 0.0
C6824 C 0.30972 0.80894 0.06635 0.0
C6825 C 0.3015 0.81501 0.05412 0.0
C6826 C 0.3178 0.80828 0.09604 0.0
C6827 C 0.31033 0.79301 0.09748 0.0
C6828 C 0.32863 0.81696 0.10905 0.0
C6829 C 0.33768 0.83263 0.10757 0.0
C6830 C 0.34496 0.83452 0.09397 0.0
C6831 C 0.35335 0.84929 0.0925 0.0
C6832 C 0.3546 0.86229 0.10456 0.0
C6833 C 0.34745 0.86054 0.11814 0.0
C6834 C 0.33904 0.8458 0.11967 0.0
C6835 C 0.31737 0.77301 0.16086 0.0
C6836 C 0.31083 0.78318 0.17085 0.0
C6837 C 0.32232 0.77779 0.14679 0.0
C6838 C 0.32068 0.79274 0.14256 0.0
C6839 C 0.31552 0.80342 0.15339 0.0
C6840 C 0.31062 0.79867 0.1674 0.0
C6841 C 0.32162 0.79643 0.12588 0.0
C6842 C 0.33041 0.81088 0.12386 0.0
C6843 C 0.31191 0.78709 0.11232 0.0
C6844 C 0.30195 0.77201 0.11368 0.0
C6845 C 0.29026 0.77202 0.12292 0.0
C6846 C 0.281 0.75771 0.12429 0.0
C6847 C 0.28322 0.74335 0.11631 0.0
C6848 C 0.29469 0.74328 0.10691 0.0
C6849 C 0.30401 0.75757 0.10554 0.0
H6850 H 0.27604 0.73228 0.11737 0.0
H6851 H 0.3611 0.87372 0.10339 0.0
H6852 H 0.93648 0.54827 0.85798 0.0
H6853 H 0.94891 0.54603 0.88505 0.0
H6854 H 0.97887 0.51987 0.86324 0.0
H6855 H 0.96608 0.52159 0.8362 0.0
H6856 H 0.97403 0.50687 0.88723 0.0
H6857 H 0.98778 0.56257 0.88467 0.0
H6858 H 0.98385 0.58958 0.88104 0.0
H6859 H 0.9585 0.59009 0.92054 0.0
H6860 H 0.96213 0.563 0.92428 0.0
H6861 H 0.03153 0.51789 0.95616 0.0
H6862 H 0.01622 0.51991 0.93065 0.0
H6863 H 0.98187 0.5324 0.95706 0.0
H6864 H 0.99726 0.53005 0.98292 0.0
H6865 H 0.98766 0.55222 0.93203 0.0
H6866 H 0.97565 0.49634 0.9348 0.0
H6867 H 0.98068 0.46968 0.93801 0.0
H6868 H 0.00486 0.47048 0.89754 0.0
H6869 H 1.00003 0.49724 0.89415 0.0
C6870 C 0.9458 0.54214 0.85885 0.0
C6871 C 0.95013 0.53518 0.84452 0.0
C6872 C 0.95306 0.54091 0.87456 0.0
C6873 C 0.96528 0.533 0.87673 0.0
C6874 C 0.96957 0.52604 0.86238 0.0
C6875 C 0.96216 0.52705 0.8467 0.0
C6876 C 0.97334 0.53162 0.89368 0.0
C6877 C 0.97713 0.51697 0.89683 0.0
C6878 C 0.97731 0.54444 0.90686 0.0
C6879 C 0.97508 0.56069 0.90463 0.0
C6880 C 0.98127 0.5684 0.8925 0.0
C6881 C 0.97911 0.58373 0.89044 0.0
C6882 C 0.97089 0.59152 0.90052 0.0
C6883 C 0.96484 0.58402 0.91271 0.0
C6884 C 0.96695 0.56869 0.91482 0.0
C6885 C 0.02066 0.52094 0.95667 0.0
C6886 C 0.01572 0.52364 0.97184 0.0
C6887 C 0.01182 0.52209 0.9419 0.0
C6888 C 0.99767 0.52627 0.94154 0.0
C6889 C 0.99267 0.52914 0.95672 0.0
C6890 C 1.00147 0.52767 0.97161 0.0
C6891 C 0.98841 0.52759 0.92533 0.0
C6892 C 0.98447 0.54219 0.92236 0.0
C6893 C 0.9845 0.51482 0.91221 0.0
C6894 C 0.98759 0.49884 0.91432 0.0
C6895 C 0.98216 0.49089 0.92668 0.0
C6896 C 0.98495 0.47573 0.92851 0.0
C6897 C 0.99314 0.46839 0.91801 0.0
C6898 C 0.99853 0.47618 0.90566 0.0
C6899 C 0.99575 0.49133 0.90377 0.0
H6900 H 0.99527 0.45664 0.9194 0.0
H6901 H 0.96923 0.60339 0.8989 0.0
H6902 H 0.2496 0.18372 0.59025 0.0
H6903 H 0.25137 0.19676 0.61821 0.0
H6904 H 0.29333 0.22617 0.61419 0.0
H6905 H 0.29161 0.21315 0.58614 0.0
H6906 H 0.294 0.21276 0.64331 0.0
H6907 H 0.26362 0.24239 0.61296 0.0
H6908 H 0.24246 0.24594 0.59331 0.0
H6909 H 0.21156 0.22376 0.62186 0.0
H6910 H 0.23254 0.21986 0.64157 0.0
H6911 H 0.29955 0.26332 0.718 0.0
H6912 H 0.29851 0.25313 0.68932 0.0
H6913 H 0.25284 0.22932 0.68727 0.0
H6914 H 0.25365 0.24007 0.71577 0.0
H6915 H 0.25478 0.2408 0.66066 0.0
H6916 H 0.28448 0.20967 0.69016 0.0
H6917 H 0.30528 0.20554 0.70997 0.0
H6918 H 0.33694 0.22942 0.68327 0.0
H6919 H 0.31631 0.23384 0.66339 0.0
C6920 C 0.25922 0.19295 0.59531 0.0
C6921 C 0.27046 0.19739 0.58593 0.0
C6922 C 0.26018 0.20046 0.61129 0.0
C6923 C 0.27246 0.21251 0.61833 0.0
C6924 C 0.28375 0.21692 0.60904 0.0
C6925 C 0.2827 0.20955 0.59296 0.0
C6926 C 0.27351 0.22037 0.63543 0.0
C6927 C 0.28554 0.21909 0.64707 0.0
C6928 C 0.26231 0.22832 0.64046 0.0
C6929 C 0.24966 0.23069 0.62866 0.0
C6930 C 0.25231 0.23814 0.61498 0.0
C6931 C 0.24035 0.24025 0.60384 0.0
C6932 C 0.22567 0.23504 0.60632 0.0
C6933 C 0.22293 0.22777 0.61995 0.0
C6934 C 0.23486 0.22562 0.63112 0.0
C6935 C 0.28928 0.25593 0.71144 0.0
C6936 C 0.27671 0.25245 0.71926 0.0
C6937 C 0.28871 0.25001 0.69501 0.0
C6938 C 0.27569 0.2401 0.68606 0.0
C6939 C 0.26305 0.23687 0.6938 0.0
C6940 C 0.26353 0.24302 0.71016 0.0
C6941 C 0.27521 0.23307 0.6687 0.0
C6942 C 0.26328 0.2345 0.65697 0.0
C6943 C 0.28644 0.22511 0.66362 0.0
C6944 C 0.29885 0.22221 0.67538 0.0
C6945 C 0.29588 0.2141 0.68856 0.0
C6946 C 0.30763 0.2117 0.69979 0.0
C6947 C 0.32242 0.21726 0.6979 0.0
C6948 C 0.32548 0.22515 0.68473 0.0
C6949 C 0.31376 0.22758 0.67346 0.0
H6950 H 0.33151 0.21541 0.70663 0.0
H6951 H 0.21642 0.23669 0.59768 0.0
H6952 H 0.5865 0.49626 0.19989 0.0
H6953 H 0.57651 0.49435 0.17096 0.0
H6954 H 0.58088 0.54538 0.17625 0.0
H6955 H 0.59107 0.54736 0.20502 0.0
H6956 H 0.55307 0.50178 0.15365 0.0
H6957 H 0.59144 0.55966 0.14326 0.0
H6958 H 0.6165 0.57559 0.15421 0.0
H6959 H 0.63077 0.53417 0.16963 0.0
H6960 H 0.60588 0.51795 0.15856 0.0
H6961 H 0.54929 0.54571 0.0776 0.0
H6962 H 0.55852 0.54442 0.10597 0.0
H6963 H 0.55338 0.49345 0.0951 0.0
H6964 H 0.54378 0.49457 0.0667 0.0
H6965 H 0.58233 0.53493 0.11993 0.0
H6966 H 0.5457 0.47651 0.12857 0.0
H6967 H 0.52129 0.45953 0.11673 0.0
H6968 H 0.50446 0.50057 0.10403 0.0
H6969 H 0.52869 0.51781 0.11598 0.0
C6970 C 0.58516 0.50705 0.19491 0.0
C6971 C 0.58972 0.52198 0.20471 0.0
C6972 C 0.57948 0.50594 0.17836 0.0
C6973 C 0.57821 0.51973 0.17131 0.0
C6974 C 0.5821 0.53458 0.18127 0.0
C6975 C 0.58791 0.53571 0.19774 0.0
C6976 C 0.57323 0.51874 0.15348 0.0
C6977 C 0.55957 0.50887 0.14624 0.0
C6978 C 0.58164 0.52802 0.14374 0.0
C6979 C 0.59674 0.53763 0.15021 0.0
C6980 C 0.59995 0.55394 0.14892 0.0
C6981 C 0.61412 0.56302 0.15516 0.0
C6982 C 0.62521 0.55591 0.16265 0.0
C6983 C 0.62216 0.53968 0.16387 0.0
C6984 C 0.60802 0.53054 0.15763 0.0
C6985 C 0.5501 0.5342 0.08119 0.0
C6986 C 0.54571 0.52024 0.06982 0.0
C6987 C 0.55542 0.53349 0.09746 0.0
C6988 C 0.5565 0.51883 0.10277 0.0
C6989 C 0.55239 0.50488 0.0914 0.0
C6990 C 0.54696 0.50556 0.07512 0.0
C6991 C 0.56201 0.5183 0.1202 0.0
C6992 C 0.57584 0.52783 0.12734 0.0
C6993 C 0.55383 0.50858 0.12977 0.0
C6994 C 0.53905 0.49842 0.12304 0.0
C6995 C 0.53675 0.48192 0.12334 0.0
C6996 C 0.52296 0.47224 0.11659 0.0
C6997 C 0.51136 0.47896 0.10958 0.0
C6998 C 0.51348 0.49538 0.10941 0.0
C6999 C 0.52724 0.5051 0.11617 0.0
H7000 H 0.50071 0.47145 0.10431 0.0
H7001 H 0.63617 0.56296 0.16749 0.0
H7002 H 0.24302 0.79679 0.92677 0.0
H7003 H 0.24792 0.78545 0.90064 0.0
H7004 H 0.21677 0.81019 0.87616 0.0
H7005 H 0.21074 0.82061 0.90237 0.0
H7006 H 0.21636 0.78286 0.8582 0.0
H7007 H 0.25451 0.8268 0.88365 0.0
H7008 H 0.27317 0.84301 0.90586 0.0
H7009 H 0.29712 0.80463 0.90801 0.0
H7010 H 0.27863 0.78822 0.88568 0.0
H7011 H 0.25339 0.78503 0.78769 0.0
H7012 H 0.24305 0.79284 0.81225 0.0
H7013 H 0.26733 0.7625 0.83808 0.0
H7014 H 0.27768 0.75466 0.81353 0.0
H7015 H 0.27051 0.79354 0.85449 0.0
H7016 H 0.23123 0.75086 0.82536 0.0
H7017 H 0.21235 0.73753 0.80189 0.0
H7018 H 0.18998 0.77721 0.80534 0.0
H7019 H 0.20893 0.79097 0.82859 0.0
C7020 C 0.2367 0.79939 0.91591 0.0
C7021 C 0.22658 0.80984 0.91679 0.0
C7022 C 0.23974 0.79307 0.90092 0.0
C7023 C 0.2331 0.79741 0.88649 0.0
C7024 C 0.22219 0.80687 0.88717 0.0
C7025 C 0.21888 0.81295 0.9022 0.0
C7026 C 0.23848 0.79311 0.87098 0.0
C7027 C 0.22818 0.78534 0.85731 0.0
C7028 C 0.25389 0.79642 0.8698 0.0
C7029 C 0.26513 0.80625 0.88311 0.0
C7030 C 0.26373 0.8218 0.88892 0.0
C7031 C 0.27428 0.83103 0.90151 0.0
C7032 C 0.28627 0.82482 0.90844 0.0
C7033 C 0.28781 0.80941 0.90266 0.0
C7034 C 0.27733 0.80017 0.88999 0.0
C7035 C 0.25656 0.78012 0.79866 0.0
C7036 C 0.26637 0.76934 0.79884 0.0
C7037 C 0.25056 0.78447 0.81259 0.0
C7038 C 0.25435 0.77812 0.82688 0.0
C7039 C 0.26426 0.76746 0.82711 0.0
C7040 C 0.27015 0.763 0.81314 0.0
C7041 C 0.24845 0.78299 0.84183 0.0
C7042 C 0.25869 0.791 0.85538 0.0
C7043 C 0.23296 0.78029 0.84267 0.0
C7044 C 0.2216 0.77202 0.82864 0.0
C7045 C 0.22238 0.75683 0.82101 0.0
C7046 C 0.21164 0.74918 0.80776 0.0
C7047 C 0.19997 0.75652 0.80213 0.0
C7048 C 0.199 0.77152 0.80974 0.0
C7049 C 0.20976 0.77927 0.82293 0.0
H7050 H 0.19168 0.75059 0.79185 0.0
H7051 H 0.29439 0.83197 0.91825 0.0
H7052 H 0.92432 0.52157 0.65921 0.0
H7053 H 0.9363 0.51956 0.63504 0.0
H7054 H 0.97942 0.53601 0.66464 0.0
H7055 H 0.96747 0.53904 0.68884 0.0
H7056 H 0.98167 0.54807 0.63867 0.0
H7057 H 0.96281 0.49367 0.64445 0.0
H7058 H 0.94361 0.47073 0.64724 0.0
H7059 H 0.91816 0.47541 0.60189 0.0
H7060 H 0.93719 0.49842 0.59884 0.0
H7061 H 0.02517 0.52443 0.57834 0.0
H7062 H 0.01227 0.52668 0.60199 0.0
H7063 H 0.96983 0.51397 0.57048 0.0
H7064 H 0.98277 0.51149 0.54667 0.0
H7065 H 0.96678 0.50024 0.59681 0.0
H7066 H 0.98661 0.55326 0.58996 0.0
H7067 H 0.00644 0.57512 0.58636 0.0
H7068 H 0.02993 0.57353 0.63376 0.0
H7069 H 0.0105 0.55115 0.63738 0.0
C7070 C 0.93635 0.525 0.66083 0.0
C7071 C 0.94462 0.53049 0.67663 0.0
C7072 C 0.94335 0.52354 0.6467 0.0
C7073 C 0.95907 0.52721 0.6475 0.0
C7074 C 0.96735 0.53289 0.66319 0.0
C7075 C 0.96036 0.53447 0.67733 0.0
C7076 C 0.9668 0.52531 0.63221 0.0
C7077 C 0.97846 0.53743 0.62974 0.0
C7078 C 0.96271 0.51176 0.61982 0.0
C7079 C 0.95135 0.49785 0.6215 0.0
C7080 C 0.95309 0.48983 0.6351 0.0
C7081 C 0.94225 0.47681 0.63671 0.0
C7082 C 0.92967 0.47163 0.62475 0.0
C7083 C 0.92793 0.47943 0.61112 0.0
C7084 C 0.93874 0.49244 0.60943 0.0
C7085 C 0.01308 0.52206 0.57629 0.0
C7086 C 0.00522 0.51778 0.56023 0.0
C7087 C 0.0056 0.52347 0.59003 0.0
C7088 C 0.98982 0.52079 0.58848 0.0
C7089 C 0.98192 0.51621 0.57244 0.0
C7090 C 0.98942 0.51482 0.55865 0.0
C7091 C 0.98173 0.52289 0.60342 0.0
C7092 C 0.96999 0.51085 0.60578 0.0
C7093 C 0.98575 0.53652 0.61569 0.0
C7094 C 0.99717 0.55037 0.61386 0.0
C7095 C 0.99605 0.55748 0.59958 0.0
C7096 C 0.00725 0.56994 0.59751 0.0
C7097 C 0.01947 0.5757 0.60981 0.0
C7098 C 0.02048 0.56902 0.62422 0.0
C7099 C 0.0094 0.55639 0.62627 0.0
H7100 H 0.02813 0.58535 0.60817 0.0
H7101 H 0.92128 0.46156 0.62603 0.0
H7102 H 0.28181 0.18348 0.41513 0.0
H7103 H 0.28349 0.19721 0.39143 0.0
H7104 H 0.24994 0.22316 0.40487 0.0
H7105 H 0.24846 0.20978 0.42901 0.0
H7106 H 0.24589 0.21266 0.37096 0.0
H7107 H 0.28506 0.24162 0.41276 0.0
H7108 H 0.30683 0.24489 0.43429 0.0
H7109 H 0.33203 0.22612 0.3996 0.0
H7110 H 0.31032 0.22251 0.3779 0.0
H7111 H 0.26232 0.26806 0.31437 0.0
H7112 H 0.25695 0.25566 0.33847 0.0
H7113 H 0.29494 0.23284 0.33618 0.0
H7114 H 0.30056 0.24565 0.31268 0.0
H7115 H 0.2954 0.24355 0.36575 0.0
H7116 H 0.25601 0.21335 0.32402 0.0
H7117 H 0.2346 0.21079 0.30217 0.0
H7118 H 0.21 0.2319 0.33606 0.0
H7119 H 0.23136 0.23482 0.35808 0.0
C7120 C 0.27486 0.19221 0.41326 0.0
C7121 C 0.26513 0.19557 0.42431 0.0
C7122 C 0.27576 0.2 0.39953 0.0
C7123 C 0.26694 0.21137 0.39634 0.0
C7124 C 0.25685 0.21442 0.40699 0.0
C7125 C 0.256 0.20669 0.42082 0.0
C7126 C 0.26884 0.22048 0.3823 0.0
C7127 C 0.25667 0.21958 0.36991 0.0
C7128 C 0.2829 0.22941 0.38073 0.0
C7129 C 0.29602 0.23166 0.39373 0.0
C7130 C 0.29521 0.23807 0.40974 0.0
C7131 C 0.30754 0.24001 0.42198 0.0
C7132 C 0.3208 0.23568 0.41832 0.0
C7133 C 0.32175 0.22945 0.40242 0.0
C7134 C 0.30944 0.22747 0.39014 0.0
C7135 C 0.2694 0.26028 0.31898 0.0
C7136 C 0.28182 0.25779 0.3116 0.0
C7137 C 0.26633 0.25314 0.33276 0.0
C7138 C 0.27543 0.24308 0.33923 0.0
C7139 C 0.28774 0.24054 0.33164 0.0
C7140 C 0.29093 0.24785 0.31811 0.0
C7141 C 0.27258 0.2354 0.35404 0.0
C7142 C 0.28458 0.23664 0.3667 0.0
C7143 C 0.25839 0.22674 0.35575 0.0
C7144 C 0.24533 0.22441 0.34268 0.0
C7145 C 0.24604 0.21747 0.32681 0.0
C7146 C 0.23392 0.21596 0.31439 0.0
C7147 C 0.22095 0.22118 0.31773 0.0
C7148 C 0.22005 0.22786 0.3335 0.0
C7149 C 0.23216 0.22943 0.34596 0.0
H7150 H 0.2116 0.22005 0.30808 0.0
H7151 H 0.33034 0.23719 0.42781 0.0
H7152 H 0.39219 0.63682 0.50689 0.0
H7153 H 0.4058 0.61767 0.49509 0.0
H7154 H 0.36767 0.59846 0.45794 0.0
H7155 H 0.35377 0.61723 0.47008 0.0
H7156 H 0.37577 0.57588 0.47271 0.0
H7157 H 0.40128 0.61696 0.44843 0.0
H7158 H 0.41543 0.64339 0.446 0.0
H7159 H 0.45197 0.63658 0.48025 0.0
H7160 H 0.43796 0.61027 0.48318 0.0
H7161 H 0.44492 0.53711 0.45523 0.0
H7162 H 0.42805 0.55535 0.44874 0.0
H7163 H 0.41284 0.55271 0.49506 0.0
H7164 H 0.42961 0.53474 0.50167 0.0
H7165 H 0.42892 0.58449 0.46507 0.0
H7166 H 0.37733 0.55592 0.49256 0.0
H7167 H 0.36344 0.5291 0.49403 0.0
H7168 H 0.37889 0.51059 0.45088 0.0
H7169 H 0.3927 0.53734 0.449 0.0
C7170 C 0.38679 0.62868 0.49605 0.0
C7171 C 0.37186 0.62841 0.48953 0.0
C7172 C 0.39465 0.61786 0.48918 0.0
C7173 C 0.38778 0.60667 0.47557 0.0
C7174 C 0.37319 0.60703 0.46841 0.0
C7175 C 0.3653 0.61783 0.47531 0.0
C7176 C 0.39504 0.59326 0.47047 0.0
C7177 C 0.38734 0.57776 0.4708 0.0
C7178 C 0.41004 0.59565 0.46762 0.0
C7179 C 0.41848 0.61162 0.46608 0.0
C7180 C 0.41227 0.62115 0.45558 0.0
C7181 C 0.42028 0.63611 0.4541 0.0
C7182 C 0.43458 0.64167 0.46299 0.0
C7183 C 0.44089 0.63227 0.47338 0.0
C7184 C 0.43292 0.61731 0.47495 0.0
C7185 C 0.43787 0.54033 0.46396 0.0
C7186 C 0.43855 0.53441 0.47893 0.0
C7187 C 0.42821 0.55067 0.46019 0.0
C7188 C 0.41906 0.5552 0.47132 0.0
C7189 C 0.41953 0.54907 0.48612 0.0
C7190 C 0.42914 0.53877 0.48988 0.0
C7191 C 0.40994 0.5674 0.46837 0.0
C7192 C 0.41726 0.58262 0.46655 0.0
C7193 C 0.3946 0.56477 0.46977 0.0
C7194 C 0.3861 0.54866 0.47068 0.0
C7195 C 0.37768 0.54616 0.48331 0.0
C7196 C 0.36984 0.53096 0.48423 0.0
C7197 C 0.3703 0.51814 0.47257 0.0
C7198 C 0.37857 0.52052 0.45993 0.0
C7199 C 0.38642 0.5357 0.45894 0.0
H7200 H 0.36423 0.50638 0.47332 0.0
H7201 H 0.44077 0.65325 0.4618 0.0
H7202 H 0.87595 0.92308 0.51798 0.0
H7203 H 0.90101 0.93746 0.51682 0.0
H7204 H 0.89973 0.96859 0.56059 0.0
H7205 H 0.87437 0.95459 0.56152 0.0
H7206 H 0.91096 0.98547 0.53899 0.0
H7207 H 0.9205 0.93849 0.56037 0.0
H7208 H 0.91798 0.90967 0.56114 0.0
H7209 H 0.93421 0.90379 0.51549 0.0
H7210 H 0.93664 0.93256 0.51434 0.0
H7211 H 0.98787 0.02082 0.55493 0.0
H7212 H 0.96341 1.00525 0.55684 0.0
H7213 H 0.96433 0.97541 0.51206 0.0
H7214 H 0.98893 0.99098 0.51016 0.0
H7215 H 0.95341 0.95774 0.53415 0.0
H7216 H 0.94361 1.0046 0.51267 0.0
H7217 H 0.94622 0.03344 0.51191 0.0
H7218 H 0.93046 0.03945 0.55782 0.0
H7219 H 0.92795 0.01067 0.55896 0.0
C7220 C 0.88089 0.93307 0.52732 0.0
C7221 C 0.87299 0.93764 0.53983 0.0
C7222 C 0.89537 0.94119 0.52673 0.0
C7223 C 0.90245 0.95405 0.53872 0.0
C7224 C 0.8946 0.95869 0.55121 0.0
C7225 C 0.8801 0.95056 0.5518 0.0
C7226 C 0.91787 0.96283 0.53802 0.0
C7227 C 0.92027 0.9794 0.53819 0.0
C7228 C 0.93004 0.95496 0.53653 0.0
C7229 C 0.92861 0.93766 0.53719 0.0
C7230 C 0.92342 0.93103 0.55043 0.0
C7231 C 0.92203 0.91471 0.55095 0.0
C7232 C 0.92589 0.9049 0.53835 0.0
C7233 C 0.9312 0.9114 0.52522 0.0
C7234 C 0.9326 0.92772 0.52464 0.0
C7235 C 0.9829 0.01089 0.54553 0.0
C7236 C 0.99034 0.00716 0.53238 0.0
C7237 C 0.96886 1.00202 0.54659 0.0
C7238 C 0.96184 0.98924 0.53448 0.0
C7239 C 0.96945 0.98521 0.52156 0.0
C7240 C 0.98352 0.99411 0.52048 0.0
C7241 C 0.94647 0.98035 0.53519 0.0
C7242 C 0.94409 0.96378 0.53499 0.0
C7243 C 0.9343 0.9882 0.53666 0.0
C7244 C 0.93574 1.0055 0.53598 0.0
C7245 C 0.94081 0.01209 0.52266 0.0
C7246 C 0.94225 0.02842 0.52216 0.0
C7247 C 0.93854 0.03828 0.53483 0.0
C7248 C 0.93335 0.03181 0.54802 0.0
C7249 C 0.9319 0.01548 0.5486 0.0
H7250 H 0.93966 0.05092 0.53442 0.0
H7251 H 0.92481 0.89226 0.53877 0.0
H7252 H 0.86219 0.06536 0.26814 0.0
H7253 H 0.84921 0.08785 0.26866 0.0
H7254 H 0.88065 0.11174 0.24141 0.0
H7255 H 0.89373 0.08927 0.24088 0.0
H7256 H 0.87468 0.13169 0.26833 0.0
H7257 H 0.84778 0.09455 0.22195 0.0
H7258 H 0.83406 0.06833 0.20788 0.0
H7259 H 0.80094 0.06918 0.23943 0.0
H7260 H 0.81459 0.09531 0.25385 0.0
H7261 H 0.83528 0.19148 0.24667 0.0
H7262 H 0.84892 0.16974 0.24696 0.0
H7263 H 0.81296 0.14133 0.26504 0.0
H7264 H 0.79873 0.16258 0.26365 0.0
H7265 H 0.82158 0.1236 0.24289 0.0
H7266 H 0.84793 0.15906 0.29026 0.0
H7267 H 0.86123 0.18482 0.30578 0.0
H7268 H 0.89448 0.187 0.27425 0.0
H7269 H 0.88145 0.16112 0.25863 0.0
C7270 C 0.86639 0.07544 0.26234 0.0
C7271 C 0.87895 0.07553 0.25442 0.0
C7272 C 0.85893 0.08824 0.26259 0.0
C7273 C 0.86392 0.10142 0.255 0.0
C7274 C 0.87661 0.10167 0.24732 0.0
C7275 C 0.88399 0.08879 0.24692 0.0
C7276 C 0.85575 0.1148 0.25488 0.0
C7277 C 0.86313 0.12999 0.2626 0.0
C7278 C 0.84056 0.11248 0.24781 0.0
C7279 C 0.83229 0.09681 0.23908 0.0
C7280 C 0.83764 0.08908 0.22598 0.0
C7281 C 0.82986 0.07425 0.21792 0.0
C7282 C 0.81666 0.06708 0.22278 0.0
C7283 C 0.81118 0.07474 0.23569 0.0
C7284 C 0.81893 0.08957 0.24379 0.0
C7285 C 0.83015 0.18057 0.25055 0.0
C7286 C 0.81582 0.17887 0.2551 0.0
C7287 C 0.83811 0.16819 0.25096 0.0
C7288 C 0.83212 0.15392 0.25627 0.0
C7289 C 0.81788 0.15222 0.26095 0.0
C7290 C 0.80981 0.16451 0.26032 0.0
C7291 C 0.84045 0.14058 0.25645 0.0
C7292 C 0.83312 0.12537 0.24869 0.0
C7293 C 0.85561 0.14284 0.26371 0.0
C7294 C 0.86365 0.15824 0.27321 0.0
C7295 C 0.85805 0.16507 0.28661 0.0
C7296 C 0.86554 0.17968 0.29542 0.0
C7297 C 0.87862 0.18763 0.29092 0.0
C7298 C 0.88433 0.18086 0.2777 0.0
C7299 C 0.87694 0.16618 0.26891 0.0
H7300 H 0.88435 0.199 0.29771 0.0
H7301 H 0.81065 0.05559 0.21653 0.0
H7302 H 0.73535 0.12636 0.04532 0.0
H7303 H 0.71145 0.10939 0.04597 0.0
H7304 H 0.73203 0.06808 0.04307 0.0
H7305 H 0.75611 0.08512 0.04182 0.0
H7306 H 0.70607 0.06292 0.02221 0.0
H7307 H 0.72121 0.08138 0.07844 0.0
H7308 H 0.73142 0.10077 0.10311 0.0
H7309 H 0.69525 0.12547 0.09359 0.0
H7310 H 0.68494 0.10638 0.06873 0.0
H7311 H 0.63353 0.02237 0.03832 0.0
H7312 H 0.66061 0.03193 0.04042 0.0
H7313 H 0.65303 0.07907 0.03482 0.0
H7314 H 0.62611 0.06963 0.03259 0.0
H7315 H 0.67415 0.07641 0.06307 0.0
H7316 H 0.6618 0.05978 0.00454 0.0
H7317 H 0.65178 0.04013 0.98002 0.0
H7318 H 0.68303 0.01106 0.99495 0.0
H7319 H 0.6931 0.03046 0.0197 0.0
C7320 C 0.73482 0.11367 0.04478 0.0
C7321 C 0.74758 0.10705 0.0434 0.0
C7322 C 0.72117 0.10399 0.04534 0.0
C7323 C 0.72 0.08749 0.04478 0.0
C7324 C 0.73274 0.08081 0.04361 0.0
C7325 C 0.74648 0.09054 0.04301 0.0
C7326 C 0.7052 0.07742 0.04473 0.0
C7327 C 0.69921 0.06559 0.03136 0.0
C7328 C 0.69624 0.08096 0.05663 0.0
C7329 C 0.70233 0.09245 0.07166 0.0
C7330 C 0.71548 0.091 0.08155 0.0
C7331 C 0.72128 0.10193 0.09557 0.0
C7332 C 0.71399 0.11435 0.0999 0.0
C7333 C 0.70088 0.11584 0.09023 0.0
C7334 C 0.69503 0.10494 0.07618 0.0
C7335 C 0.63769 0.03472 0.03737 0.0
C7336 C 0.62778 0.04528 0.03525 0.0
C7337 C 0.65309 0.04013 0.03853 0.0
C7338 C 0.65872 0.05618 0.03781 0.0
C7339 C 0.64883 0.06664 0.03541 0.0
C7340 C 0.63348 0.06121 0.03401 0.0
C7341 C 0.67494 0.06245 0.04029 0.0
C7342 C 0.68117 0.07352 0.05416 0.0
C7343 C 0.68411 0.05809 0.02895 0.0
C7344 C 0.67806 0.04645 0.01408 0.0
C7345 C 0.66642 0.04912 1.00268 0.0
C7346 C 0.66076 0.03804 0.98872 0.0
C7347 C 0.66672 0.02432 0.98596 0.0
C7348 C 0.67839 0.02167 0.99713 0.0
C7349 C 0.68409 0.0327 0.01112 0.0
H7350 H 0.66232 0.01576 0.97514 0.0
H7351 H 0.71851 0.1228 0.11077 0.0
H7352 H 0.17692 0.40434 0.27892 0.0
H7353 H 0.18864 0.38102 0.27811 0.0
H7354 H 0.2307 0.41031 0.27456 0.0
H7355 H 0.21901 0.43371 0.27524 0.0
H7356 H 0.23004 0.38433 0.25634 0.0
H7357 H 0.21921 0.39177 0.31121 0.0
H7358 H 0.20353 0.39419 0.33274 0.0
H7359 H 0.17711 0.34795 0.31384 0.0
H7360 H 0.19248 0.34536 0.29203 0.0
H7361 H 0.27547 0.326 0.27193 0.0
H7362 H 0.26323 0.34906 0.27276 0.0
H7363 H 0.22163 0.31889 0.27643 0.0
H7364 H 0.23397 0.29583 0.27595 0.0
H7365 H 0.22165 0.34492 0.29429 0.0
H7366 H 0.23132 0.33676 0.23988 0.0
H7367 H 0.24613 0.33326 0.21769 0.0
H7368 H 0.27335 0.37951 0.23451 0.0
H7369 H 0.25885 0.3832 0.25695 0.0
C7370 C 0.18873 0.40608 0.27817 0.0
C7371 C 0.19675 0.42152 0.27726 0.0
C7372 C 0.19557 0.39244 0.27774 0.0
C7373 C 0.21093 0.39337 0.27658 0.0
C7374 C 0.21892 0.40872 0.27547 0.0
C7375 C 0.21207 0.42236 0.27583 0.0
C7376 C 0.21857 0.37859 0.2763 0.0
C7377 C 0.22829 0.37594 0.2649 0.0
C7378 C 0.21626 0.36682 0.28688 0.0
C7379 C 0.2069 0.36846 0.29986 0.0
C7380 C 0.20997 0.38218 0.31155 0.0
C7381 C 0.20114 0.38358 0.32381 0.0
C7382 C 0.18929 0.37126 0.32462 0.0
C7383 C 0.18626 0.3575 0.31317 0.0
C7384 C 0.19502 0.35607 0.30085 0.0
C7385 C 0.26371 0.32414 0.27293 0.0
C7386 C 0.25593 0.30864 0.27385 0.0
C7387 C 0.25654 0.33754 0.27326 0.0
C7388 C 0.24113 0.33622 0.27436 0.0
C7389 C 0.23342 0.32075 0.27553 0.0
C7390 C 0.24059 0.30734 0.27521 0.0
C7391 C 0.23321 0.35076 0.27445 0.0
C7392 C 0.22343 0.35334 0.28577 0.0
C7393 C 0.23531 0.36235 0.26366 0.0
C7394 C 0.24409 0.36018 0.25022 0.0
C7395 C 0.24054 0.34613 0.23893 0.0
C7396 C 0.24887 0.34412 0.22629 0.0
C7397 C 0.2607 0.35613 0.22472 0.0
C7398 C 0.2642 0.3702 0.23576 0.0
C7399 C 0.25593 0.37226 0.24844 0.0
H7400 H 0.26714 0.35455 0.21494 0.0
H7401 H 0.1825 0.37236 0.33414 0.0
H7402 H 0.22959 0.43749 0.06305 0.0
H7403 H 0.20725 0.44935 0.06155 0.0
H7404 H 0.19894 0.43627 0.00942 0.0
H7405 H 0.22129 0.42451 0.01084 0.0
H7406 H 0.19444 0.46514 0.0164 0.0
H7407 H 0.17836 0.41586 0.03596 0.0
H7408 H 0.17943 0.3956 0.05432 0.0
H7409 H 0.17543 0.42956 0.0945 0.0
H7410 H 0.17454 0.45008 0.0764 0.0
H7411 H 0.11976 0.47616 1.00101 0.0
H7412 H 0.14184 0.46406 0.00426 0.0
H7413 H 0.15002 0.48152 0.05561 0.0
H7414 H 0.12799 0.4939 0.05241 0.0
H7415 H 0.15479 0.4511 0.04989 0.0
H7416 H 0.17032 0.50019 0.02986 0.0
H7417 H 0.16891 0.52013 0.01119 0.0
H7418 H 0.17367 0.48604 0.97149 0.0
H7419 H 0.17489 0.46581 0.98989 0.0
C7420 C 0.22295 0.43701 0.05127 0.0
C7421 C 0.22733 0.42999 0.03707 0.0
C7422 C 0.21012 0.44381 0.05042 0.0
C7423 C 0.20118 0.44359 0.03538 0.0
C7424 C 0.20559 0.43668 0.02119 0.0
C7425 C 0.21845 0.42997 0.02202 0.0
C7426 C 0.18739 0.45073 0.03433 0.0
C7427 C 0.18571 0.46187 0.02359 0.0
C7428 C 0.17604 0.44687 0.04397 0.0
C7429 C 0.17654 0.43455 0.05486 0.0
C7430 C 0.17783 0.41904 0.04873 0.0
C7431 C 0.17838 0.4075 0.05909 0.0
C7432 C 0.17754 0.4113 0.07557 0.0
C7433 C 0.1761 0.42664 0.08173 0.0
C7434 C 0.17556 0.43822 0.07143 0.0
C7435 C 0.12627 0.47755 0.01301 0.0
C7436 C 0.12208 0.48622 0.02641 0.0
C7437 C 0.13892 0.47056 0.01485 0.0
C7438 C 0.14782 0.47205 0.03014 0.0
C7439 C 0.14341 0.4802 0.04367 0.0
C7440 C 0.13073 0.48724 0.04183 0.0
C7441 C 0.16183 0.46536 0.03186 0.0
C7442 C 0.16356 0.45435 0.04273 0.0
C7443 C 0.1732 0.46928 0.0223 0.0
C7444 C 0.17256 0.48144 0.01123 0.0
C7445 C 0.17096 0.49691 0.01712 0.0
C7446 C 0.17021 0.50827 0.00659 0.0
C7447 C 0.17117 0.50434 0.99016 0.0
C7448 C 0.17291 0.48906 0.98423 0.0
C7449 C 0.17365 0.47764 0.9947 0.0
H7450 H 0.17059 0.51315 0.98202 0.0
H7451 H 0.17797 0.40235 0.08357 0.0
H7452 H 0.84922 0.93424 0.25717 0.0
H7453 H 0.83311 0.9087 0.25797 0.0
H7454 H 0.86597 0.88411 0.23993 0.0
H7455 H 0.88186 0.90976 0.23849 0.0
H7456 H 0.83988 0.86801 0.2272 0.0
H7457 H 0.86248 0.8898 0.28135 0.0
H7458 H 0.87003 0.91004 0.30577 0.0
H7459 H 0.82397 0.91016 0.30952 0.0
H7460 H 0.81613 0.89007 0.28497 0.0
H7461 H 0.80494 0.8078 0.28204 0.0
H7462 H 0.82255 0.83142 0.27857 0.0
H7463 H 0.79451 0.83531 0.23425 0.0
H7464 H 0.77719 0.8112 0.23734 0.0
H7465 H 0.82032 0.86055 0.27875 0.0
H7466 H 0.81538 0.85243 0.20805 0.0
H7467 H 0.81072 0.83045 0.18521 0.0
H7468 H 0.82689 0.79978 0.21729 0.0
H7469 H 0.83193 0.82163 0.24025 0.0
C7470 C 0.85294 0.92337 0.25326 0.0
C7471 C 0.86684 0.92396 0.2479 0.0
C7472 C 0.84377 0.90876 0.25379 0.0
C7473 C 0.84845 0.8944 0.2494 0.0
C7474 C 0.8621 0.89498 0.24345 0.0
C7475 C 0.87118 0.90963 0.24264 0.0
C7476 C 0.83931 0.8789 0.25155 0.0
C7477 C 0.83561 0.86639 0.23847 0.0
C7478 C 0.83407 0.87651 0.26641 0.0
C7479 C 0.83872 0.88853 0.28124 0.0
C7480 C 0.85396 0.89422 0.28732 0.0
C7481 C 0.85829 0.90565 0.30119 0.0
C7482 C 0.84749 0.9114 0.30917 0.0
C7483 C 0.83233 0.9057 0.30332 0.0
C7484 C 0.82793 0.89428 0.28943 0.0
C7485 C 0.80267 0.81353 0.2714 0.0
C7486 C 0.78983 0.80752 0.25981 0.0
C7487 C 0.81268 0.82713 0.26951 0.0
C7488 C 0.81 0.8351 0.25604 0.0
C7489 C 0.79702 0.82922 0.24457 0.0
C7490 C 0.78707 0.81551 0.2464 0.0
C7491 C 0.82058 0.84979 0.25428 0.0
C7492 C 0.82458 0.86215 0.26746 0.0
C7493 C 0.82654 0.85178 0.23973 0.0
C7494 C 0.82388 0.83865 0.22591 0.0
C7495 C 0.81803 0.84103 0.21021 0.0
C7496 C 0.81531 0.82858 0.19725 0.0
C7497 C 0.81847 0.81372 0.19981 0.0
C7498 C 0.82442 0.81129 0.21533 0.0
C7499 C 0.8272 0.8237 0.22833 0.0
H7500 H 0.81632 0.80409 0.18977 0.0
H7501 H 0.85087 0.92026 0.31991 0.0
H7502 H 0.69066 0.08705 0.75348 0.0
H7503 H 0.70263 0.11442 0.75226 0.0
H7504 H 0.72466 0.11854 0.80162 0.0
H7505 H 0.71247 0.09117 0.80303 0.0
H7506 H 0.7154 0.14589 0.79754 0.0
H7507 H 0.74339 0.11424 0.76759 0.0
H7508 H 0.74711 0.09349 0.74649 0.0
H7509 H 0.72764 0.11718 0.70923 0.0
H7510 H 0.72361 0.13797 0.73014 0.0
H7511 H 0.76514 0.21967 0.7962 0.0
H7512 H 0.75372 0.19232 0.7983 0.0
H7513 H 0.73626 0.18448 0.74708 0.0
H7514 H 0.74833 0.21162 0.74482 0.0
H7515 H 0.74334 0.15877 0.75261 0.0
H7516 H 0.71463 0.19009 0.78216 0.0
H7517 H 0.71065 0.21092 0.80304 0.0
H7518 H 0.73077 0.1881 0.84067 0.0
H7519 H 0.73502 0.16721 0.81999 0.0
C7520 C 0.69795 0.09369 0.76419 0.0
C7521 C 0.70042 0.08647 0.77838 0.0
C7522 C 0.705 0.10951 0.76341 0.0
C7523 C 0.71486 0.11892 0.77677 0.0
C7524 C 0.71723 0.11182 0.79102 0.0
C7525 C 0.71027 0.09594 0.79177 0.0
C7526 C 0.72262 0.13598 0.77586 0.0
C7527 C 0.72165 0.14859 0.78779 0.0
C7528 C 0.73063 0.14003 0.76303 0.0
C7529 C 0.73306 0.12758 0.75044 0.0
C7530 C 0.7398 0.11496 0.75491 0.0
C7531 C 0.74198 0.1032 0.74298 0.0
C7532 C 0.73758 0.10399 0.72653 0.0
C7533 C 0.73102 0.11657 0.72198 0.0
C7534 C 0.7288 0.12835 0.73386 0.0
C7535 C 0.75884 0.2122 0.78533 0.0
C7536 C 0.75774 0.21821 0.77033 0.0
C7537 C 0.7521 0.19638 0.78658 0.0
C7538 C 0.7436 0.18592 0.77296 0.0
C7539 C 0.7426 0.19194 0.75794 0.0
C7540 C 0.74954 0.20767 0.75664 0.0
C7541 C 0.73603 0.16883 0.77421 0.0
C7542 C 0.73705 0.15615 0.76235 0.0
C7543 C 0.72797 0.16476 0.78705 0.0
C7544 C 0.72526 0.17717 0.79951 0.0
C7545 C 0.71826 0.18956 0.79488 0.0
C7546 C 0.71596 0.20137 0.80668 0.0
C7547 C 0.72049 0.20085 0.82317 0.0
C7548 C 0.72729 0.18849 0.82789 0.0
C7549 C 0.72963 0.17665 0.81614 0.0
H7550 H 0.71869 0.21001 0.83228 0.0
H7551 H 0.73928 0.09488 0.71731 0.0
loop_
_geom_bond_atom_site_label_1
_geom_bond_atom_site_label_2
_geom_bond_distance
_geom_bond_site_symmetry_2
_ccdc_geom_bond_type
Li0 N17 1.990 . S
Li0 O60 1.956 1_655 S
Li0 O61 1.970 . S
Li0 O62 1.961 . S
Li1 N25 1.990 . S
Li1 O60 1.970 . S
Li1 O61 1.956 1_455 S
Li1 O63 1.961 . S
Li2 N47 1.990 . S
Li2 O60 1.961 . S
Li2 O62 1.956 1_455 S
Li2 O63 1.970 . S
Li3 N53 1.990 . S
Li3 O61 1.918 1_455 S
Li3 O62 1.972 1_455 S
Li3 O63 1.991 . S
C4 C6 1.348 1_455 S
C4 C7 1.356 . S
C4 O60 1.325 . S
N5 C8 1.302 1_455 S
N5 C9 1.296 . S
C6 C4 1.348 1_655 S
C6 C8 1.353 . S
C6 H64 0.929 . S
C7 C4 1.356 . S
C7 C9 1.358 . S
C7 H65 0.930 . S
C8 N5 1.302 1_655 S
C8 C6 1.353 . S
C8 H66 0.930 . S
C9 N5 1.296 . S
C9 C7 1.358 . S
C9 H67 0.930 . S
C10 C13 1.348 . S
C10 C14 1.356 . S
C10 O61 1.325 . S
C11 N12 1.279 . S
C11 C14 1.358 . S
C11 H68 0.930 . S
N12 C11 1.279 . S
N12 C15 1.314 . S
C13 C10 1.348 . S
C13 C15 1.353 . S
C13 H69 0.929 . S
C14 C10 1.356 . S
C14 C11 1.358 . S
C14 H70 0.930 . S
C15 N12 1.314 . S
C15 C13 1.353 . S
C15 H71 0.930 . S
C16 N17 1.314 . S
C16 C21 1.353 . S
C16 H22 0.930 . S
N17 Li0 1.990 . S
N17 C16 1.314 . S
N17 C19 1.279 . S
C18 C19 1.358 . S
C18 C20 1.356 . S
C18 H72 0.930 . S
C19 N17 1.279 . S
C19 C18 1.358 . S
C19 H23 0.930 . S
C20 C18 1.356 . S
C20 C21 1.348 . S
C21 C16 1.353 . S
C21 C20 1.348 . S
C21 H73 0.929 . S
H22 C16 0.930 . S
H23 C19 0.930 . S
C24 N25 1.314 . S
C24 C26 1.353 . S
C24 H30 0.930 . S
N25 Li1 1.990 . S
N25 C24 1.314 . S
N25 C28 1.279 1_455 S
C26 C24 1.353 . S
C26 C29 1.348 . S
C26 H74 0.929 . S
C27 C28 1.358 . S
C27 C29 1.356 1_655 S
C27 H75 0.930 . S
C28 N25 1.279 1_655 S
C28 C27 1.358 . S
C28 H31 0.930 . S
C29 C26 1.348 . S
C29 C27 1.356 1_455 S
H30 C24 0.930 . S
H31 C28 0.930 . S
C32 C34 1.370 . S
C32 C35 1.356 . S
C32 O62 1.325 . S
N33 C36 1.314 . S
N33 C37 1.279 . S
C34 C32 1.370 . S
C34 C36 1.348 . S
C34 H76 0.917 1_655 S
C35 C32 1.356 . S
C35 C37 1.358 . S
C35 H77 0.930 . S
C36 N33 1.314 . S
C36 C34 1.348 . S
C36 H78 0.952 . S
C37 N33 1.279 . S
C37 C35 1.358 . S
C37 H79 0.930 . S
C38 C39 1.348 . S
C38 C40 1.356 . S
C38 O63 1.325 . S
C39 C38 1.348 . S
C39 C41 1.353 . S
C39 H80 0.929 . S
C40 C38 1.356 . S
C40 C42 1.358 . S
C40 H81 0.930 . S
C41 C39 1.353 . S
C41 N43 1.314 . S
C41 H82 0.930 . S
C42 C40 1.358 . S
C42 N43 1.279 . S
C42 H83 0.930 . S
N43 C41 1.314 . S
N43 C42 1.279 . S
C44 C46 1.353 . S
C44 N47 1.314 . S
C44 H50 0.930 . S
C45 N47 1.279 . S
C45 C48 1.358 . S
C45 H51 0.930 . S
C46 C44 1.353 . S
C46 C49 1.348 . S
C46 H84 0.929 . S
N47 Li2 1.990 . S
N47 C44 1.314 . S
N47 C45 1.279 . S
C48 C45 1.358 . S
C48 C49 1.356 . S
C48 H85 0.930 . S
C49 C46 1.348 . S
C49 C48 1.356 . S
H50 C44 0.930 . S
H51 C45 0.930 . S
C52 N53 1.279 1_655 S
C52 C54 1.353 . S
C52 H58 0.930 . S
N53 Li3 1.990 . S
N53 C52 1.279 1_455 S
N53 C56 1.317 . S
C54 C52 1.353 . S
C54 C57 1.409 . S
C54 H86 0.929 . S
C55 C56 1.358 . S
C55 C57 1.301 1_455 S
C55 H87 0.930 . S
C56 N53 1.317 . S
C56 C55 1.358 . S
C56 H59 0.930 . S
C57 C54 1.409 . S
C57 C55 1.301 1_655 S
H58 C52 0.930 . S
H59 C56 0.930 . S
O60 Li0 1.956 1_455 S
O60 Li1 1.970 . S
O60 Li2 1.961 . S
O60 C4 1.325 . S
O61 Li0 1.970 . S
O61 Li1 1.956 1_655 S
O61 Li3 1.918 1_655 S
O61 C10 1.325 . S
O62 Li0 1.961 . S
O62 Li2 1.956 1_655 S
O62 Li3 1.972 1_655 S
O62 C32 1.325 . S
O63 Li1 1.961 . S
O63 Li2 1.970 . S
O63 Li3 1.991 . S
O63 C38 1.325 . S
H64 C6 0.929 . S
H65 C7 0.930 . S
H66 C8 0.930 . S
H67 C9 0.930 . S
H68 C11 0.930 . S
H69 C13 0.929 . S
H70 C14 0.930 . S
H71 C15 0.930 . S
H72 C18 0.930 . S
H73 C21 0.929 . S
H74 C26 0.929 . S
H75 C27 0.930 . S
H76 C34 0.917 1_455 S
H77 C35 0.930 . S
H78 C36 0.952 . S
H79 C37 0.930 . S
H80 C39 0.929 . S
H81 C40 0.930 . S
H82 C41 0.930 . S
H83 C42 0.930 . S
H84 C46 0.929 . S
H85 C48 0.930 . S
H86 C54 0.929 . S
H87 C55 0.930 . S
Li88 N105 1.990 . S
Li88 O148 1.956 . S
Li88 O149 1.970 . S
Li88 O150 1.961 . S
Li89 N113 1.990 . S
Li89 O148 1.970 . S
Li89 O149 1.956 . S
Li89 O151 1.961 . S
Li90 N135 1.990 . S
Li90 O148 1.961 . S
Li90 O150 1.956 . S
Li90 O151 1.970 . S
Li91 N141 1.990 . S
Li91 O149 1.961 . S
Li91 O150 1.970 . S
Li91 O151 1.956 . S
C92 C94 1.348 . S
C92 C95 1.356 . S
C92 O148 1.325 . S
N93 C96 1.314 . S
N93 C97 1.279 . S
C94 C92 1.348 . S
C94 C96 1.353 . S
C94 H152 0.929 . S
C95 C92 1.356 . S
C95 C97 1.358 . S
C95 H153 0.930 . S
C96 N93 1.314 . S
C96 C94 1.353 . S
C96 H154 0.930 . S
C97 N93 1.279 . S
C97 C95 1.358 . S
C97 H155 0.930 . S
C98 C101 1.348 . S
C98 C102 1.356 . S
C98 O149 1.325 . S
C99 N100 1.279 . S
C99 C102 1.358 . S
C99 H156 0.930 . S
N100 C99 1.279 . S
N100 C103 1.314 . S
C101 C98 1.348 . S
C101 C103 1.353 . S
C101 H157 0.929 . S
C102 C98 1.356 . S
C102 C99 1.358 . S
C102 H158 0.930 . S
C103 N100 1.314 . S
C103 C101 1.353 . S
C103 H159 0.930 . S
C104 N105 1.314 . S
C104 C109 1.353 . S
C104 H110 0.930 . S
N105 Li88 1.990 . S
N105 C104 1.314 . S
N105 C107 1.279 . S
C106 C107 1.358 . S
C106 C108 1.356 . S
C106 H160 0.930 . S
C107 N105 1.279 . S
C107 C106 1.358 . S
C107 H111 0.930 . S
C108 C106 1.356 . S
C108 C109 1.348 . S
C109 C104 1.353 . S
C109 C108 1.348 . S
C109 H161 0.929 . S
H110 C104 0.930 . S
H111 C107 0.930 . S
C112 N113 1.314 . S
C112 C114 1.353 . S
C112 H118 0.930 . S
N113 Li89 1.990 . S
N113 C112 1.314 . S
N113 C116 1.279 . S
C114 C112 1.353 . S
C114 C117 1.348 . S
C114 H162 0.929 . S
C115 C116 1.358 . S
C115 C117 1.356 . S
C115 H163 0.930 . S
C116 N113 1.279 . S
C116 C115 1.358 . S
C116 H119 0.930 . S
C117 C114 1.348 . S
C117 C115 1.356 . S
H118 C112 0.930 . S
H119 C116 0.930 . S
C120 C122 1.348 . S
C120 C123 1.356 . S
C120 O150 1.325 . S
N121 C124 1.314 . S
N121 C125 1.279 1_655 S
C122 C120 1.348 . S
C122 C124 1.353 1_455 S
C122 H164 0.929 . S
C123 C120 1.356 . S
C123 C125 1.358 . S
C123 H165 0.930 . S
C124 N121 1.314 . S
C124 C122 1.353 1_655 S
C124 H166 0.930 . S
C125 N121 1.279 1_455 S
C125 C123 1.358 . S
C125 H167 0.930 . S
C126 C127 1.348 . S
C126 C128 1.356 . S
C126 O151 1.325 . S
C127 C126 1.348 . S
C127 C129 1.353 . S
C127 H168 0.929 . S
C128 C126 1.356 . S
C128 C130 1.358 . S
C128 H169 0.930 . S
C129 C127 1.353 . S
C129 N131 1.314 . S
C129 H170 0.930 . S
C130 C128 1.358 . S
C130 N131 1.279 . S
C130 H171 0.930 . S
N131 C129 1.314 . S
N131 C130 1.279 . S
C132 C134 1.353 . S
C132 N135 1.314 . S
C132 H138 0.930 . S
C133 N135 1.279 . S
C133 C136 1.358 . S
C133 H139 0.930 . S
C134 C132 1.353 . S
C134 C137 1.348 . S
C134 H172 0.929 . S
N135 Li90 1.990 . S
N135 C132 1.314 . S
N135 C133 1.279 . S
C136 C133 1.358 . S
C136 C137 1.356 . S
C136 H173 0.930 . S
C137 C134 1.348 . S
C137 C136 1.356 . S
H138 C132 0.930 . S
H139 C133 0.930 . S
C140 N141 1.314 . S
C140 C142 1.353 . S
C140 H146 0.930 . S
N141 Li91 1.990 . S
N141 C140 1.314 . S
N141 C144 1.279 . S
C142 C140 1.353 . S
C142 C145 1.348 1_455 S
C142 H174 0.929 1_455 S
C143 C144 1.358 . S
C143 C145 1.356 1_455 S
C143 H175 0.929 1_455 S
C144 N141 1.279 . S
C144 C143 1.358 . S
C144 H147 0.930 . S
C145 C142 1.348 1_655 S
C145 C143 1.356 1_655 S
H146 C140 0.930 . S
H147 C144 0.930 . S
O148 Li88 1.956 . S
O148 Li89 1.970 . S
O148 Li90 1.961 . S
O148 C92 1.325 . S
O149 Li88 1.970 . S
O149 Li89 1.956 . S
O149 Li91 1.961 . S
O149 C98 1.325 . S
O150 Li88 1.961 . S
O150 Li90 1.956 . S
O150 Li91 1.970 . S
O150 C120 1.325 . S
O151 Li89 1.961 . S
O151 Li90 1.970 . S
O151 Li91 1.956 . S
O151 C126 1.325 . S
H152 C94 0.929 . S
H153 C95 0.930 . S
H154 C96 0.930 . S
H155 C97 0.930 . S
H156 C99 0.930 . S
H157 C101 0.929 . S
H158 C102 0.930 . S
H159 C103 0.930 . S
H160 C106 0.930 . S
H161 C109 0.929 . S
H162 C114 0.929 . S
H163 C115 0.930 . S
H164 C122 0.929 . S
H165 C123 0.930 . S
H166 C124 0.930 . S
H167 C125 0.930 . S
H168 C127 0.929 . S
H169 C128 0.930 . S
H170 C129 0.930 . S
H171 C130 0.930 . S
H172 C134 0.929 . S
H173 C136 0.930 . S
H174 C142 0.929 1_655 S
H175 C143 0.929 1_655 S
Li176 N193 1.990 . S
Li176 O236 1.956 . S
Li176 O237 1.970 . S
Li176 O238 1.961 . S
Li177 N201 1.990 . S
Li177 O236 1.970 . S
Li177 O237 1.956 . S
Li177 O239 1.961 . S
Li178 N223 1.990 . S
Li178 O236 1.961 . S
Li178 O238 1.956 . S
Li178 O239 1.970 . S
Li179 N229 1.990 . S
Li179 O237 1.961 . S
Li179 O238 1.970 . S
Li179 O239 1.956 . S
C180 C182 1.348 . S
C180 C183 1.356 . S
C180 O236 1.325 . S
N181 C184 1.314 . S
N181 C185 1.279 . S
C182 C180 1.348 . S
C182 C184 1.353 . S
C182 H240 0.929 . S
C183 C180 1.356 . S
C183 C185 1.358 . S
C183 H241 0.930 . S
C184 N181 1.314 . S
C184 C182 1.353 . S
C184 H242 0.930 . S
C185 N181 1.279 . S
C185 C183 1.358 . S
C185 H243 0.930 . S
C186 C189 1.348 . S
C186 C190 1.356 . S
C186 O237 1.325 . S
C187 N188 1.279 . S
C187 C190 1.358 . S
C187 H244 0.930 . S
N188 C187 1.279 . S
N188 C191 1.314 . S
C189 C186 1.348 . S
C189 C191 1.353 . S
C189 H245 0.929 . S
C190 C186 1.356 . S
C190 C187 1.358 . S
C190 H246 0.930 . S
C191 N188 1.314 . S
C191 C189 1.353 . S
C191 H247 0.930 . S
C192 N193 1.314 . S
C192 C197 1.353 . S
C192 H198 0.930 . S
N193 Li176 1.990 . S
N193 C192 1.314 . S
N193 C195 1.279 . S
C194 C195 1.358 . S
C194 C196 1.356 . S
C194 H248 0.930 . S
C195 N193 1.279 . S
C195 C194 1.358 . S
C195 H199 0.930 . S
C196 C194 1.356 . S
C196 C197 1.348 . S
C197 C192 1.353 . S
C197 C196 1.348 . S
C197 H249 0.929 . S
H198 C192 0.930 . S
H199 C195 0.930 . S
C200 N201 1.314 . S
C200 C202 1.353 . S
C200 H206 0.930 . S
N201 Li177 1.990 . S
N201 C200 1.314 . S
N201 C204 1.279 . S
C202 C200 1.353 . S
C202 C205 1.348 . S
C202 H250 0.929 . S
C203 C204 1.358 . S
C203 C205 1.356 . S
C203 H251 0.930 . S
C204 N201 1.279 . S
C204 C203 1.358 . S
C204 H207 0.930 . S
C205 C202 1.348 . S
C205 C203 1.356 . S
H206 C200 0.930 . S
H207 C204 0.930 . S
C208 C210 1.348 . S
C208 C211 1.356 . S
C208 O238 1.325 . S
N209 C212 1.314 . S
N209 C213 1.279 . S
C210 C208 1.348 . S
C210 C212 1.353 . S
C210 H252 0.929 . S
C211 C208 1.356 . S
C211 C213 1.358 . S
C211 H253 0.930 . S
C212 N209 1.314 . S
C212 C210 1.353 . S
C212 H254 0.930 . S
C213 N209 1.279 . S
C213 C211 1.358 . S
C213 H255 0.930 . S
C214 C215 1.348 . S
C214 C216 1.356 . S
C214 O239 1.325 . S
C215 C214 1.348 . S
C215 C217 1.353 . S
C215 H256 0.929 . S
C216 C214 1.356 . S
C216 C218 1.358 . S
C216 H257 0.930 . S
C217 C215 1.353 . S
C217 N219 1.314 . S
C217 H258 0.930 . S
C218 C216 1.358 . S
C218 N219 1.279 . S
C218 H259 0.930 . S
N219 C217 1.314 . S
N219 C218 1.279 . S
C220 C222 1.353 . S
C220 N223 1.314 . S
C220 H226 0.930 . S
C221 N223 1.279 . S
C221 C224 1.358 . S
C221 H227 0.930 . S
C222 C220 1.353 . S
C222 C225 1.348 . S
C222 H260 0.929 . S
N223 Li178 1.990 . S
N223 C220 1.314 . S
N223 C221 1.279 . S
C224 C221 1.358 . S
C224 C225 1.356 . S
C224 H261 0.930 . S
C225 C222 1.348 . S
C225 C224 1.356 . S
H226 C220 0.930 . S
H227 C221 0.930 . S
C228 N229 1.314 . S
C228 C230 1.353 . S
C228 H234 0.930 . S
N229 Li179 1.990 . S
N229 C228 1.314 . S
N229 C232 1.279 . S
C230 C228 1.353 . S
C230 C233 1.348 . S
C230 H262 0.929 . S
C231 C232 1.358 . S
C231 C233 1.356 . S
C231 H263 0.930 . S
C232 N229 1.279 . S
C232 C231 1.358 . S
C232 H235 0.930 . S
C233 C230 1.348 . S
C233 C231 1.356 . S
H234 C228 0.930 . S
H235 C232 0.930 . S
O236 Li176 1.956 . S
O236 Li177 1.970 . S
O236 Li178 1.961 . S
O236 C180 1.325 . S
O237 Li176 1.970 . S
O237 Li177 1.956 . S
O237 Li179 1.961 . S
O237 C186 1.325 . S
O238 Li176 1.961 . S
O238 Li178 1.956 . S
O238 Li179 1.970 . S
O238 C208 1.325 . S
O239 Li177 1.961 . S
O239 Li178 1.970 . S
O239 Li179 1.956 . S
O239 C214 1.325 . S
H240 C182 0.929 . S
H241 C183 0.930 . S
H242 C184 0.930 . S
H243 C185 0.930 . S
H244 C187 0.930 . S
H245 C189 0.929 . S
H246 C190 0.930 . S
H247 C191 0.930 . S
H248 C194 0.930 . S
H249 C197 0.929 . S
H250 C202 0.929 . S
H251 C203 0.930 . S
H252 C210 0.929 . S
H253 C211 0.930 . S
H254 C212 0.930 . S
H255 C213 0.930 . S
H256 C215 0.929 . S
H257 C216 0.930 . S
H258 C217 0.930 . S
H259 C218 0.930 . S
H260 C222 0.929 . S
H261 C224 0.930 . S
H262 C230 0.929 . S
H263 C231 0.930 . S
Li264 N281 1.990 . S
Li264 O324 1.956 . S
Li264 O325 1.970 . S
Li264 O326 1.961 . S
Li265 N289 1.990 . S
Li265 O324 1.970 . S
Li265 O325 1.956 . S
Li265 O327 1.961 . S
Li266 N311 1.990 . S
Li266 O324 1.961 . S
Li266 O326 1.956 . S
Li266 O327 1.970 . S
Li267 N317 1.990 . S
Li267 O325 1.961 . S
Li267 O326 1.970 . S
Li267 O327 1.956 . S
C268 C270 1.348 . S
C268 C271 1.356 . S
C268 O324 1.325 . S
N269 C272 1.314 . S
N269 C273 1.279 . S
C270 C268 1.348 . S
C270 C272 1.353 . S
C270 H328 0.929 . S
C271 C268 1.356 . S
C271 C273 1.358 . S
C271 H329 0.930 . S
C272 N269 1.314 . S
C272 C270 1.353 . S
C272 H330 0.930 . S
C273 N269 1.279 . S
C273 C271 1.358 . S
C273 H331 0.930 . S
C274 C277 1.348 . S
C274 C278 1.356 . S
C274 O325 1.325 . S
C275 N276 1.279 . S
C275 C278 1.358 . S
C275 H332 0.930 . S
N276 C275 1.279 . S
N276 C279 1.314 . S
C277 C274 1.348 . S
C277 C279 1.353 . S
C277 H333 0.929 . S
C278 C274 1.356 . S
C278 C275 1.358 . S
C278 H334 0.930 . S
C279 N276 1.314 . S
C279 C277 1.353 . S
C279 H335 0.930 . S
C280 N281 1.314 . S
C280 C285 1.353 . S
C280 H286 0.930 . S
N281 Li264 1.990 . S
N281 C280 1.314 . S
N281 C283 1.279 . S
C282 C283 1.358 . S
C282 C284 1.356 . S
C282 H336 0.930 . S
C283 N281 1.279 . S
C283 C282 1.358 . S
C283 H287 0.930 . S
C284 C282 1.356 . S
C284 C285 1.348 . S
C285 C280 1.353 . S
C285 C284 1.348 . S
C285 H337 0.929 . S
H286 C280 0.930 . S
H287 C283 0.930 . S
C288 N289 1.314 . S
C288 C290 1.353 . S
C288 H294 0.930 . S
N289 Li265 1.990 . S
N289 C288 1.314 . S
N289 C292 1.279 . S
C290 C288 1.353 . S
C290 C293 1.348 . S
C290 H338 0.929 . S
C291 C292 1.358 . S
C291 C293 1.356 . S
C291 H339 0.930 . S
C292 N289 1.279 . S
C292 C291 1.358 . S
C292 H295 0.930 . S
C293 C290 1.348 . S
C293 C291 1.356 . S
H294 C288 0.930 . S
H295 C292 0.930 . S
C296 C298 1.348 . S
C296 C299 1.356 . S
C296 O326 1.325 . S
N297 C300 1.314 . S
N297 C301 1.279 . S
C298 C296 1.348 . S
C298 C300 1.353 . S
C298 H340 0.929 . S
C299 C296 1.356 . S
C299 C301 1.358 . S
C299 H341 0.930 . S
C300 N297 1.314 . S
C300 C298 1.353 . S
C300 H342 0.930 . S
C301 N297 1.279 . S
C301 C299 1.358 . S
C301 H343 0.930 . S
C302 C303 1.348 . S
C302 C304 1.356 . S
C302 O327 1.325 . S
C303 C302 1.348 . S
C303 C305 1.353 . S
C303 H344 0.929 . S
C304 C302 1.356 . S
C304 C306 1.358 . S
C304 H345 0.930 . S
C305 C303 1.353 . S
C305 N307 1.314 . S
C305 H346 0.930 . S
C306 C304 1.358 . S
C306 N307 1.279 . S
C306 H347 0.930 . S
N307 C305 1.314 . S
N307 C306 1.279 . S
C308 C310 1.353 . S
C308 N311 1.314 . S
C308 H314 0.930 . S
C309 N311 1.279 . S
C309 C312 1.358 . S
C309 H315 0.930 . S
C310 C308 1.353 . S
C310 C313 1.348 . S
C310 H348 0.929 . S
N311 Li266 1.990 . S
N311 C308 1.314 . S
N311 C309 1.279 . S
C312 C309 1.358 . S
C312 C313 1.356 . S
C312 H349 0.930 . S
C313 C310 1.348 . S
C313 C312 1.356 . S
H314 C308 0.930 . S
H315 C309 0.930 . S
C316 N317 1.314 . S
C316 C318 1.353 . S
C316 H322 0.930 . S
N317 Li267 1.990 . S
N317 C316 1.314 . S
N317 C320 1.279 . S
C318 C316 1.353 . S
C318 C321 1.348 . S
C318 H350 0.929 . S
C319 C320 1.358 . S
C319 C321 1.356 . S
C319 H351 0.930 . S
C320 N317 1.279 . S
C320 C319 1.358 . S
C320 H323 0.930 . S
C321 C318 1.348 . S
C321 C319 1.356 . S
H322 C316 0.930 . S
H323 C320 0.930 . S
O324 Li264 1.956 . S
O324 Li265 1.970 . S
O324 Li266 1.961 . S
O324 C268 1.325 . S
O325 Li264 1.970 . S
O325 Li265 1.956 . S
O325 Li267 1.961 . S
O325 C274 1.325 . S
O326 Li264 1.961 . S
O326 Li266 1.956 . S
O326 Li267 1.970 . S
O326 C296 1.325 . S
O327 Li265 1.961 . S
O327 Li266 1.970 . S
O327 Li267 1.956 . S
O327 C302 1.325 . S
H328 C270 0.929 . S
H329 C271 0.930 . S
H330 C272 0.930 . S
H331 C273 0.930 . S
H332 C275 0.930 . S
H333 C277 0.929 . S
H334 C278 0.930 . S
H335 C279 0.930 . S
H336 C282 0.930 . S
H337 C285 0.929 . S
H338 C290 0.929 . S
H339 C291 0.930 . S
H340 C298 0.929 . S
H341 C299 0.930 . S
H342 C300 0.930 . S
H343 C301 0.930 . S
H344 C303 0.929 . S
H345 C304 0.930 . S
H346 C305 0.930 . S
H347 C306 0.930 . S
H348 C310 0.929 . S
H349 C312 0.930 . S
H350 C318 0.929 . S
H351 C319 0.930 . S
Li352 N369 1.990 . S
Li352 O412 1.956 . S
Li352 O413 1.970 . S
Li352 O414 1.961 . S
Li353 N377 1.990 . S
Li353 O412 1.970 . S
Li353 O413 1.956 . S
Li353 O415 1.961 . S
Li354 N399 1.990 . S
Li354 O412 1.961 . S
Li354 O414 1.956 . S
Li354 O415 1.970 . S
Li355 N405 1.990 . S
Li355 O413 1.961 . S
Li355 O414 1.970 . S
Li355 O415 1.956 . S
C356 C358 1.348 . S
C356 C359 1.356 . S
C356 O412 1.325 . S
N357 C360 1.314 . S
N357 C361 1.279 . S
C358 C356 1.348 . S
C358 C360 1.353 . S
C358 H416 0.929 . S
C359 C356 1.356 . S
C359 C361 1.358 . S
C359 H417 0.930 . S
C360 N357 1.314 . S
C360 C358 1.353 . S
C360 H418 0.930 . S
C361 N357 1.279 . S
C361 C359 1.358 . S
C361 H419 0.930 . S
C362 C365 1.348 . S
C362 C366 1.356 . S
C362 O413 1.325 . S
C363 N364 1.279 . S
C363 C366 1.358 . S
C363 H420 0.930 . S
N364 C363 1.279 . S
N364 C367 1.314 . S
C365 C362 1.348 . S
C365 C367 1.353 . S
C365 H421 0.929 . S
C366 C362 1.356 . S
C366 C363 1.358 . S
C366 H422 0.930 . S
C367 N364 1.314 . S
C367 C365 1.353 . S
C367 H423 0.930 . S
C368 N369 1.314 . S
C368 C373 1.353 . S
C368 H374 0.930 . S
N369 Li352 1.990 . S
N369 C368 1.314 . S
N369 C371 1.279 . S
C370 C371 1.358 . S
C370 C372 1.356 . S
C370 H424 0.930 . S
C371 N369 1.279 . S
C371 C370 1.358 . S
C371 H375 0.930 . S
C372 C370 1.356 . S
C372 C373 1.348 . S
C373 C368 1.353 . S
C373 C372 1.348 . S
C373 H425 0.929 . S
H374 C368 0.930 . S
H375 C371 0.930 . S
C376 N377 1.314 . S
C376 C378 1.353 . S
C376 H382 0.930 . S
N377 Li353 1.990 . S
N377 C376 1.314 . S
N377 C380 1.279 . S
C378 C376 1.353 . S
C378 C381 1.348 . S
C378 H426 0.929 . S
C379 C380 1.358 . S
C379 C381 1.356 . S
C379 H427 0.930 . S
C380 N377 1.279 . S
C380 C379 1.358 . S
C380 H383 0.930 . S
C381 C378 1.348 . S
C381 C379 1.356 . S
H382 C376 0.930 . S
H383 C380 0.930 . S
C384 C386 1.348 1_455 S
C384 C387 1.356 . S
C384 O414 1.325 . S
N385 C388 1.314 . S
N385 C389 1.279 . S
C386 C384 1.348 1_655 S
C386 C388 1.353 . S
C386 H428 0.929 . S
C387 C384 1.356 . S
C387 C389 1.358 1_455 S
C387 H429 0.930 . S
C388 N385 1.314 . S
C388 C386 1.353 . S
C388 H430 0.930 . S
C389 N385 1.279 . S
C389 C387 1.358 1_655 S
C389 H431 0.930 . S
C390 C391 1.348 . S
C390 C392 1.356 . S
C390 O415 1.325 . S
C391 C390 1.348 . S
C391 C393 1.353 . S
C391 H432 0.929 . S
C392 C390 1.356 . S
C392 C394 1.358 . S
C392 H433 0.930 . S
C393 C391 1.353 . S
C393 N395 1.314 . S
C393 H434 0.930 . S
C394 C392 1.358 . S
C394 N395 1.279 . S
C394 H435 0.930 . S
N395 C393 1.314 . S
N395 C394 1.279 . S
C396 C398 1.353 . S
C396 N399 1.314 . S
C396 H402 0.930 . S
C397 N399 1.279 . S
C397 C400 1.358 . S
C397 H403 0.930 . S
C398 C396 1.353 . S
C398 C401 1.348 . S
C398 H436 0.929 . S
N399 Li354 1.990 . S
N399 C396 1.314 . S
N399 C397 1.279 . S
C400 C397 1.358 . S
C400 C401 1.356 . S
C400 H437 0.930 . S
C401 C398 1.348 . S
C401 C400 1.356 . S
H402 C396 0.930 . S
H403 C397 0.930 . S
C404 N405 1.359 . S
C404 C406 1.295 1_455 S
C404 H410 0.948 . S
N405 Li355 1.990 . S
N405 C404 1.359 . S
N405 C408 1.279 . S
C406 C404 1.295 1_655 S
C406 C409 1.348 . S
C406 H438 0.929 . S
C407 C408 1.358 1_655 S
C407 C409 1.356 . S
C407 H439 0.930 . S
C408 N405 1.279 . S
C408 C407 1.358 1_455 S
C408 H411 0.930 . S
C409 C406 1.348 . S
C409 C407 1.356 . S
H410 C404 0.948 . S
H411 C408 0.930 . S
O412 Li352 1.956 . S
O412 Li353 1.970 . S
O412 Li354 1.961 . S
O412 C356 1.325 . S
O413 Li352 1.970 . S
O413 Li353 1.956 . S
O413 Li355 1.961 . S
O413 C362 1.325 . S
O414 Li352 1.961 . S
O414 Li354 1.956 . S
O414 Li355 1.970 . S
O414 C384 1.325 . S
O415 Li353 1.961 . S
O415 Li354 1.970 . S
O415 Li355 1.956 . S
O415 C390 1.325 . S
H416 C358 0.929 . S
H417 C359 0.930 . S
H418 C360 0.930 . S
H419 C361 0.930 . S
H420 C363 0.930 . S
H421 C365 0.929 . S
H422 C366 0.930 . S
H423 C367 0.930 . S
H424 C370 0.930 . S
H425 C373 0.929 . S
H426 C378 0.929 . S
H427 C379 0.930 . S
H428 C386 0.929 . S
H429 C387 0.930 . S
H430 C388 0.930 . S
H431 C389 0.930 . S
H432 C391 0.929 . S
H433 C392 0.930 . S
H434 C393 0.930 . S
H435 C394 0.930 . S
H436 C398 0.929 . S
H437 C400 0.930 . S
H438 C406 0.929 . S
H439 C407 0.930 . S
Li440 N457 1.990 . S
Li440 O500 1.956 . S
Li440 O501 1.970 . S
Li440 O502 1.961 . S
Li441 N465 1.990 . S
Li441 O500 1.970 . S
Li441 O501 1.956 . S
Li441 O503 1.961 . S
Li442 N487 1.990 . S
Li442 O500 1.961 . S
Li442 O502 1.956 . S
Li442 O503 1.970 . S
Li443 N493 1.990 . S
Li443 O501 1.961 . S
Li443 O502 1.970 . S
Li443 O503 1.956 . S
C444 C446 1.348 . S
C444 C447 1.356 . S
C444 O500 1.325 . S
N445 C448 1.314 . S
N445 C449 1.279 . S
C446 C444 1.348 . S
C446 C448 1.353 . S
C446 H504 0.929 . S
C447 C444 1.356 . S
C447 C449 1.358 . S
C447 H505 0.930 . S
C448 N445 1.314 . S
C448 C446 1.353 . S
C448 H506 0.930 . S
C449 N445 1.279 . S
C449 C447 1.358 . S
C449 H507 0.930 . S
C450 C453 1.348 . S
C450 C454 1.356 . S
C450 O501 1.325 . S
C451 N452 1.279 . S
C451 C454 1.358 . S
C451 H508 0.930 . S
N452 C451 1.279 . S
N452 C455 1.314 . S
C453 C450 1.348 . S
C453 C455 1.353 . S
C453 H509 0.929 . S
C454 C450 1.356 . S
C454 C451 1.358 . S
C454 H510 0.930 . S
C455 N452 1.314 . S
C455 C453 1.353 . S
C455 H511 0.930 . S
C456 N457 1.314 . S
C456 C461 1.353 . S
C456 H462 0.930 . S
N457 Li440 1.990 . S
N457 C456 1.314 . S
N457 C459 1.279 . S
C458 C459 1.358 . S
C458 C460 1.356 . S
C458 H512 0.930 . S
C459 N457 1.279 . S
C459 C458 1.358 . S
C459 H463 0.930 . S
C460 C458 1.356 . S
C460 C461 1.348 . S
C461 C456 1.353 . S
C461 C460 1.348 . S
C461 H513 0.929 . S
H462 C456 0.930 . S
H463 C459 0.930 . S
C464 N465 1.314 . S
C464 C466 1.353 . S
C464 H470 0.930 . S
N465 Li441 1.990 . S
N465 C464 1.314 . S
N465 C468 1.279 . S
C466 C464 1.353 . S
C466 C469 1.348 . S
C466 H514 0.929 . S
C467 C468 1.358 . S
C467 C469 1.356 . S
C467 H515 0.930 . S
C468 N465 1.279 . S
C468 C467 1.358 . S
C468 H471 0.930 . S
C469 C466 1.348 . S
C469 C467 1.356 . S
H470 C464 0.930 . S
H471 C468 0.930 . S
C472 C474 1.348 . S
C472 C475 1.356 . S
C472 O502 1.325 . S
N473 C476 1.314 . S
N473 C477 1.279 . S
C474 C472 1.348 . S
C474 C476 1.353 . S
C474 H516 0.929 . S
C475 C472 1.356 . S
C475 C477 1.358 . S
C475 H517 0.930 . S
C476 N473 1.314 . S
C476 C474 1.353 . S
C476 H518 0.930 . S
C477 N473 1.279 . S
C477 C475 1.358 . S
C477 H519 0.930 . S
C478 C479 1.348 . S
C478 C480 1.356 . S
C478 O503 1.325 . S
C479 C478 1.348 . S
C479 C481 1.353 . S
C479 H520 0.929 . S
C480 C478 1.356 . S
C480 C482 1.358 . S
C480 H521 0.930 . S
C481 C479 1.353 . S
C481 N483 1.314 . S
C481 H522 0.930 . S
C482 C480 1.358 . S
C482 N483 1.279 . S
C482 H523 0.930 . S
N483 C481 1.314 . S
N483 C482 1.279 . S
C484 C486 1.353 . S
C484 N487 1.314 . S
C484 H490 0.930 . S
C485 N487 1.279 . S
C485 C488 1.358 . S
C485 H491 0.930 . S
C486 C484 1.353 . S
C486 C489 1.348 . S
C486 H524 0.929 . S
N487 Li442 1.990 . S
N487 C484 1.314 . S
N487 C485 1.279 . S
C488 C485 1.358 . S
C488 C489 1.356 . S
C488 H525 0.930 . S
C489 C486 1.348 . S
C489 C488 1.356 . S
H490 C484 0.930 . S
H491 C485 0.930 . S
C492 N493 1.314 . S
C492 C494 1.353 . S
C492 H498 0.930 . S
N493 Li443 1.990 . S
N493 C492 1.314 . S
N493 C496 1.279 . S
C494 C492 1.353 . S
C494 C497 1.348 . S
C494 H526 0.929 . S
C495 C496 1.358 . S
C495 C497 1.356 . S
C495 H527 0.930 . S
C496 N493 1.279 . S
C496 C495 1.358 . S
C496 H499 0.930 . S
C497 C494 1.348 . S
C497 C495 1.356 . S
H498 C492 0.930 . S
H499 C496 0.930 . S
O500 Li440 1.956 . S
O500 Li441 1.970 . S
O500 Li442 1.961 . S
O500 C444 1.325 . S
O501 Li440 1.970 . S
O501 Li441 1.956 . S
O501 Li443 1.961 . S
O501 C450 1.325 . S
O502 Li440 1.961 . S
O502 Li442 1.956 . S
O502 Li443 1.970 . S
O502 C472 1.325 . S
O503 Li441 1.961 . S
O503 Li442 1.970 . S
O503 Li443 1.956 . S
O503 C478 1.325 . S
H504 C446 0.929 . S
H505 C447 0.930 . S
H506 C448 0.930 . S
H507 C449 0.930 . S
H508 C451 0.930 . S
H509 C453 0.929 . S
H510 C454 0.930 . S
H511 C455 0.930 . S
H512 C458 0.930 . S
H513 C461 0.929 . S
H514 C466 0.929 . S
H515 C467 0.930 . S
H516 C474 0.929 . S
H517 C475 0.930 . S
H518 C476 0.930 . S
H519 C477 0.930 . S
H520 C479 0.929 . S
H521 C480 0.930 . S
H522 C481 0.930 . S
H523 C482 0.930 . S
H524 C486 0.929 . S
H525 C488 0.930 . S
H526 C494 0.929 . S
H527 C495 0.930 . S
Li528 N545 1.990 . S
Li528 O588 1.956 . S
Li528 O589 1.970 . S
Li528 O590 1.961 . S
Li529 N553 1.990 . S
Li529 O588 1.970 . S
Li529 O589 1.956 . S
Li529 O591 1.961 . S
Li530 N575 1.990 . S
Li530 O588 1.961 . S
Li530 O590 1.956 . S
Li530 O591 1.970 . S
Li531 N581 1.990 . S
Li531 O589 1.961 . S
Li531 O590 1.970 . S
Li531 O591 1.956 . S
C532 C534 1.348 . S
C532 C535 1.356 . S
C532 O588 1.325 . S
N533 C536 1.314 . S
N533 C537 1.279 . S
C534 C532 1.348 . S
C534 C536 1.353 . S
C534 H592 0.929 . S
C535 C532 1.356 . S
C535 C537 1.358 . S
C535 H593 0.930 . S
C536 N533 1.314 . S
C536 C534 1.353 . S
C536 H594 0.930 . S
C537 N533 1.279 . S
C537 C535 1.358 . S
C537 H595 0.930 . S
C538 C541 1.348 . S
C538 C542 1.356 . S
C538 O589 1.325 . S
C539 N540 1.279 . S
C539 C542 1.358 . S
C539 H596 0.930 . S
N540 C539 1.279 . S
N540 C543 1.314 . S
C541 C538 1.348 . S
C541 C543 1.353 . S
C541 H597 0.929 . S
C542 C538 1.356 . S
C542 C539 1.358 . S
C542 H598 0.930 . S
C543 N540 1.314 . S
C543 C541 1.353 . S
C543 H599 0.930 . S
C544 N545 1.314 . S
C544 C549 1.353 . S
C544 H550 0.930 . S
N545 Li528 1.990 . S
N545 C544 1.314 . S
N545 C547 1.279 . S
C546 C547 1.358 . S
C546 C548 1.356 . S
C546 H600 0.930 . S
C547 N545 1.279 . S
C547 C546 1.358 . S
C547 H551 0.930 . S
C548 C546 1.356 . S
C548 C549 1.348 . S
C549 C544 1.353 . S
C549 C548 1.348 . S
C549 H601 0.929 . S
H550 C544 0.930 . S
H551 C547 0.930 . S
C552 N553 1.314 . S
C552 C554 1.353 . S
C552 H558 0.930 . S
N553 Li529 1.990 . S
N553 C552 1.314 . S
N553 C556 1.279 . S
C554 C552 1.353 . S
C554 C557 1.348 . S
C554 H602 0.929 . S
C555 C556 1.358 . S
C555 C557 1.356 . S
C555 H603 0.930 . S
C556 N553 1.279 . S
C556 C555 1.358 . S
C556 H559 0.930 . S
C557 C554 1.348 . S
C557 C555 1.356 . S
H558 C552 0.930 . S
H559 C556 0.930 . S
C560 C562 1.348 . S
C560 C563 1.356 . S
C560 O590 1.325 . S
N561 C564 1.314 . S
N561 C565 1.279 . S
C562 C560 1.348 . S
C562 C564 1.353 . S
C562 H604 0.929 . S
C563 C560 1.356 . S
C563 C565 1.358 . S
C563 H605 0.930 . S
C564 N561 1.314 . S
C564 C562 1.353 . S
C564 H606 0.930 . S
C565 N561 1.279 . S
C565 C563 1.358 . S
C565 H607 0.930 . S
C566 C567 1.348 . S
C566 C568 1.356 . S
C566 O591 1.325 . S
C567 C566 1.348 . S
C567 C569 1.353 . S
C567 H608 0.929 . S
C568 C566 1.356 . S
C568 C570 1.358 . S
C568 H609 0.930 . S
C569 C567 1.353 . S
C569 N571 1.314 . S
C569 H610 0.930 . S
C570 C568 1.358 . S
C570 N571 1.279 . S
C570 H611 0.930 . S
N571 C569 1.314 . S
N571 C570 1.279 . S
C572 C574 1.353 . S
C572 N575 1.314 . S
C572 H578 0.930 . S
C573 N575 1.279 . S
C573 C576 1.358 . S
C573 H579 0.930 . S
C574 C572 1.353 . S
C574 C577 1.348 . S
C574 H612 0.929 . S
N575 Li530 1.990 . S
N575 C572 1.314 . S
N575 C573 1.279 . S
C576 C573 1.358 . S
C576 C577 1.356 . S
C576 H613 0.930 . S
C577 C574 1.348 . S
C577 C576 1.356 . S
H578 C572 0.930 . S
H579 C573 0.930 . S
C580 N581 1.314 . S
C580 C582 1.353 . S
C580 H586 0.930 . S
N581 Li531 1.990 . S
N581 C580 1.314 . S
N581 C584 1.279 . S
C582 C580 1.353 . S
C582 C585 1.348 . S
C582 H614 0.929 . S
C583 C584 1.358 . S
C583 C585 1.356 . S
C583 H615 0.930 . S
C584 N581 1.279 . S
C584 C583 1.358 . S
C584 H587 0.930 . S
C585 C582 1.348 . S
C585 C583 1.356 . S
H586 C580 0.930 . S
H587 C584 0.930 . S
O588 Li528 1.956 . S
O588 Li529 1.970 . S
O588 Li530 1.961 . S
O588 C532 1.325 . S
O589 Li528 1.970 . S
O589 Li529 1.956 . S
O589 Li531 1.961 . S
O589 C538 1.325 . S
O590 Li528 1.961 . S
O590 Li530 1.956 . S
O590 Li531 1.970 . S
O590 C560 1.325 . S
O591 Li529 1.961 . S
O591 Li530 1.970 . S
O591 Li531 1.956 . S
O591 C566 1.325 . S
H592 C534 0.929 . S
H593 C535 0.930 . S
H594 C536 0.930 . S
H595 C537 0.930 . S
H596 C539 0.930 . S
H597 C541 0.929 . S
H598 C542 0.930 . S
H599 C543 0.930 . S
H600 C546 0.930 . S
H601 C549 0.929 . S
H602 C554 0.929 . S
H603 C555 0.930 . S
H604 C562 0.929 . S
H605 C563 0.930 . S
H606 C564 0.930 . S
H607 C565 0.930 . S
H608 C567 0.929 . S
H609 C568 0.930 . S
H610 C569 0.930 . S
H611 C570 0.930 . S
H612 C574 0.929 . S
H613 C576 0.930 . S
H614 C582 0.929 . S
H615 C583 0.930 . S
Li616 N633 1.990 . S
Li616 O676 1.956 1_455 S
Li616 O677 1.970 . S
Li616 O678 1.961 . S
Li617 N641 1.990 . S
Li617 O676 1.970 . S
Li617 O677 1.956 1_655 S
Li617 O679 1.961 1_655 S
Li618 N663 1.990 . S
Li618 O676 1.961 1_455 S
Li618 O678 1.956 . S
Li618 O679 1.970 . S
Li619 N669 1.990 . S
Li619 O677 1.961 . S
Li619 O678 1.970 . S
Li619 O679 1.956 . S
C620 C622 1.348 . S
C620 C623 1.356 . S
C620 O676 1.325 . S
N621 C624 1.314 . S
N621 C625 1.279 . S
C622 C620 1.348 . S
C622 C624 1.353 . S
C622 H680 0.929 . S
C623 C620 1.356 . S
C623 C625 1.358 . S
C623 H681 0.930 . S
C624 N621 1.314 . S
C624 C622 1.353 . S
C624 H682 0.930 . S
C625 N621 1.279 . S
C625 C623 1.358 . S
C625 H683 0.930 . S
C626 C629 1.348 . S
C626 C630 1.356 . S
C626 O677 1.325 . S
C627 N628 1.279 . S
C627 C630 1.358 . S
C627 H684 0.930 . S
N628 C627 1.279 . S
N628 C631 1.314 . S
C629 C626 1.348 . S
C629 C631 1.353 . S
C629 H685 0.929 . S
C630 C626 1.356 . S
C630 C627 1.358 . S
C630 H686 0.930 . S
C631 N628 1.314 . S
C631 C629 1.353 . S
C631 H687 0.930 . S
C632 N633 1.314 . S
C632 C637 1.353 . S
C632 H638 0.930 . S
N633 Li616 1.990 . S
N633 C632 1.314 . S
N633 C635 1.279 . S
C634 C635 1.358 . S
C634 C636 1.356 . S
C634 H688 0.930 . S
C635 N633 1.279 . S
C635 C634 1.358 . S
C635 H639 0.930 1_455 S
C636 C634 1.356 . S
C636 C637 1.348 . S
C637 C632 1.353 . S
C637 C636 1.348 . S
C637 H689 0.929 . S
H638 C632 0.930 . S
H639 C635 0.930 1_655 S
C640 N641 1.314 . S
C640 C642 1.353 . S
C640 H646 0.930 . S
N641 Li617 1.990 . S
N641 C640 1.314 . S
N641 C644 1.279 . S
C642 C640 1.353 . S
C642 C645 1.348 . S
C642 H690 0.929 . S
C643 C644 1.358 . S
C643 C645 1.356 . S
C643 H691 0.930 . S
C644 N641 1.279 . S
C644 C643 1.358 . S
C644 H647 0.930 . S
C645 C642 1.348 . S
C645 C643 1.356 . S
H646 C640 0.930 . S
H647 C644 0.930 . S
C648 C650 1.348 . S
C648 C651 1.356 . S
C648 O678 1.325 . S
N649 C652 1.314 . S
N649 C653 1.279 . S
C650 C648 1.348 . S
C650 C652 1.353 . S
C650 H692 0.929 . S
C651 C648 1.356 . S
C651 C653 1.358 . S
C651 H693 0.930 . S
C652 N649 1.314 . S
C652 C650 1.353 . S
C652 H694 0.930 . S
C653 N649 1.279 . S
C653 C651 1.358 . S
C653 H695 0.930 . S
C654 C655 1.348 . S
C654 C656 1.356 . S
C654 O679 1.325 . S
C655 C654 1.348 . S
C655 C657 1.353 . S
C655 H696 0.929 . S
C656 C654 1.356 . S
C656 C658 1.358 . S
C656 H697 0.930 . S
C657 C655 1.353 . S
C657 N659 1.314 . S
C657 H698 0.930 . S
C658 C656 1.358 . S
C658 N659 1.279 . S
C658 H699 0.918 1_455 S
N659 C657 1.314 . S
N659 C658 1.279 . S
C660 C662 1.355 1_455 S
C660 N663 1.343 . S
C660 H666 0.898 1_455 S
C661 N663 1.279 . S
C661 C664 1.358 . S
C661 H667 0.930 . S
C662 C660 1.355 1_655 S
C662 C665 1.283 1_655 S
C662 H700 0.997 . S
N663 Li618 1.990 . S
N663 C660 1.343 . S
N663 C661 1.279 . S
C664 C661 1.358 . S
C664 C665 1.356 . S
C664 H701 0.930 . S
C665 C662 1.283 1_455 S
C665 C664 1.356 . S
H666 C660 0.898 1_655 S
H667 C661 0.930 . S
C668 N669 1.314 . S
C668 C670 1.353 . S
C668 H674 0.930 . S
N669 Li619 1.990 . S
N669 C668 1.314 . S
N669 C672 1.279 . S
C670 C668 1.353 . S
C670 C673 1.348 . S
C670 H702 0.929 . S
C671 C672 1.358 . S
C671 C673 1.356 . S
C671 H703 0.930 . S
C672 N669 1.279 . S
C672 C671 1.358 . S
C672 H675 0.930 . S
C673 C670 1.348 . S
C673 C671 1.356 . S
H674 C668 0.930 . S
H675 C672 0.930 . S
O676 Li616 1.956 1_655 S
O676 Li617 1.970 . S
O676 Li618 1.961 1_655 S
O676 C620 1.325 . S
O677 Li616 1.970 . S
O677 Li617 1.956 1_455 S
O677 Li619 1.961 . S
O677 C626 1.325 . S
O678 Li616 1.961 . S
O678 Li618 1.956 . S
O678 Li619 1.970 . S
O678 C648 1.325 . S
O679 Li617 1.961 1_455 S
O679 Li618 1.970 . S
O679 Li619 1.956 . S
O679 C654 1.325 . S
H680 C622 0.929 . S
H681 C623 0.930 . S
H682 C624 0.930 . S
H683 C625 0.930 . S
H684 C627 0.930 . S
H685 C629 0.929 . S
H686 C630 0.930 . S
H687 C631 0.930 . S
H688 C634 0.930 . S
H689 C637 0.929 . S
H690 C642 0.929 . S
H691 C643 0.930 . S
H692 C650 0.929 . S
H693 C651 0.930 . S
H694 C652 0.930 . S
H695 C653 0.930 . S
H696 C655 0.929 . S
H697 C656 0.930 . S
H698 C657 0.930 . S
H699 C658 0.918 1_655 S
H700 C662 0.997 . S
H701 C664 0.930 . S
H702 C670 0.929 . S
H703 C671 0.930 . S
Li704 N721 1.990 . S
Li704 O764 1.956 1_545 S
Li704 O765 1.970 . S
Li704 O766 1.961 . S
Li705 N729 1.990 . S
Li705 O764 1.970 . S
Li705 O765 1.956 1_565 S
Li705 O767 1.961 1_565 S
Li706 N751 1.990 . S
Li706 O764 1.961 1_545 S
Li706 O766 1.956 . S
Li706 O767 1.970 . S
Li707 N757 1.990 . S
Li707 O765 1.961 . S
Li707 O766 1.970 . S
Li707 O767 1.956 . S
C708 C710 1.348 . S
C708 C711 1.356 . S
C708 O764 1.325 . S
N709 C712 1.314 . S
N709 C713 1.279 . S
C710 C708 1.348 . S
C710 C712 1.353 . S
C710 H768 0.929 . S
C711 C708 1.356 . S
C711 C713 1.358 . S
C711 H769 0.931 1_565 S
C712 N709 1.314 . S
C712 C710 1.353 . S
C712 H770 0.930 . S
C713 N709 1.279 . S
C713 C711 1.358 . S
C713 H771 0.930 . S
C714 C717 1.348 . S
C714 C718 1.356 . S
C714 O765 1.325 . S
C715 N716 1.279 . S
C715 C718 1.358 . S
C715 H772 0.930 . S
N716 C715 1.279 . S
N716 C719 1.314 . S
C717 C714 1.348 . S
C717 C719 1.353 . S
C717 H773 0.929 . S
C718 C714 1.356 . S
C718 C715 1.358 . S
C718 H774 0.930 . S
C719 N716 1.314 . S
C719 C717 1.353 . S
C719 H775 0.930 . S
C720 N721 1.314 . S
C720 C725 1.353 . S
C720 H726 0.930 . S
N721 Li704 1.990 . S
N721 C720 1.314 . S
N721 C723 1.279 . S
C722 C723 1.358 . S
C722 C724 1.356 . S
C722 H776 0.930 . S
C723 N721 1.279 . S
C723 C722 1.358 . S
C723 H727 0.930 1_545 S
C724 C722 1.356 . S
C724 C725 1.348 . S
C725 C720 1.353 . S
C725 C724 1.348 . S
C725 H777 0.929 . S
H726 C720 0.930 . S
H727 C723 0.930 1_565 S
C728 N729 1.314 . S
C728 C730 1.353 . S
C728 H734 0.930 . S
N729 Li705 1.990 . S
N729 C728 1.314 . S
N729 C732 1.279 . S
C730 C728 1.353 . S
C730 C733 1.348 . S
C730 H778 0.929 . S
C731 C732 1.358 . S
C731 C733 1.356 . S
C731 H779 0.930 . S
C732 N729 1.279 . S
C732 C731 1.358 . S
C732 H735 0.930 . S
C733 C730 1.348 . S
C733 C731 1.356 . S
H734 C728 0.930 . S
H735 C732 0.930 . S
C736 C738 1.348 . S
C736 C739 1.356 . S
C736 O766 1.325 . S
N737 C740 1.314 . S
N737 C741 1.279 . S
C738 C736 1.348 . S
C738 C740 1.353 . S
C738 H780 0.929 . S
C739 C736 1.356 . S
C739 C741 1.358 . S
C739 H781 0.930 . S
C740 N737 1.314 . S
C740 C738 1.353 . S
C740 H782 0.930 . S
C741 N737 1.279 . S
C741 C739 1.358 . S
C741 H783 0.930 . S
C742 C743 1.348 . S
C742 C744 1.356 . S
C742 O767 1.325 . S
C743 C742 1.348 . S
C743 C745 1.353 . S
C743 H784 0.929 . S
C744 C742 1.356 . S
C744 C746 1.358 . S
C744 H785 0.930 . S
C745 C743 1.353 . S
C745 N747 1.314 . S
C745 H786 0.930 . S
C746 C744 1.358 . S
C746 N747 1.279 . S
C746 H787 0.929 . S
N747 C745 1.314 . S
N747 C746 1.279 . S
C748 C750 1.353 . S
C748 N751 1.314 . S
C748 H754 0.930 1_545 S
C749 N751 1.279 . S
C749 C752 1.358 . S
C749 H755 0.930 . S
C750 C748 1.353 . S
C750 C753 1.348 . S
C750 H788 0.929 1_545 S
N751 Li706 1.990 . S
N751 C748 1.314 . S
N751 C749 1.279 . S
C752 C749 1.358 . S
C752 C753 1.356 . S
C752 H789 0.930 . S
C753 C750 1.348 . S
C753 C752 1.356 . S
H754 C748 0.930 1_565 S
H755 C749 0.930 . S
C756 N757 1.314 . S
C756 C758 1.353 . S
C756 H762 0.930 . S
N757 Li707 1.990 . S
N757 C756 1.314 . S
N757 C760 1.279 . S
C758 C756 1.353 . S
C758 C761 1.348 . S
C758 H790 0.929 . S
C759 C760 1.358 . S
C759 C761 1.356 . S
C759 H791 0.930 . S
C760 N757 1.279 . S
C760 C759 1.358 . S
C760 H763 0.930 . S
C761 C758 1.348 . S
C761 C759 1.356 . S
H762 C756 0.930 . S
H763 C760 0.930 . S
O764 Li704 1.956 1_565 S
O764 Li705 1.970 . S
O764 Li706 1.961 1_565 S
O764 C708 1.325 . S
O765 Li704 1.970 . S
O765 Li705 1.956 1_545 S
O765 Li707 1.961 . S
O765 C714 1.325 . S
O766 Li704 1.961 . S
O766 Li706 1.956 . S
O766 Li707 1.970 . S
O766 C736 1.325 . S
O767 Li705 1.961 1_545 S
O767 Li706 1.970 . S
O767 Li707 1.956 . S
O767 C742 1.325 . S
H768 C710 0.929 . S
H769 C711 0.931 1_545 S
H770 C712 0.930 . S
H771 C713 0.930 . S
H772 C715 0.930 . S
H773 C717 0.929 . S
H774 C718 0.930 . S
H775 C719 0.930 . S
H776 C722 0.930 . S
H777 C725 0.929 . S
H778 C730 0.929 . S
H779 C731 0.930 . S
H780 C738 0.929 . S
H781 C739 0.930 . S
H782 C740 0.930 . S
H783 C741 0.930 . S
H784 C743 0.929 . S
H785 C744 0.930 . S
H786 C745 0.930 . S
H787 C746 0.929 . S
H788 C750 0.929 1_565 S
H789 C752 0.930 . S
H790 C758 0.929 . S
H791 C759 0.930 . S
Li792 N809 1.990 . S
Li792 O852 1.956 . S
Li792 O853 1.970 . S
Li792 O854 1.961 . S
Li793 N817 1.990 . S
Li793 O852 1.970 . S
Li793 O853 1.956 . S
Li793 O855 1.961 . S
Li794 N839 1.990 . S
Li794 O852 1.961 . S
Li794 O854 1.956 . S
Li794 O855 1.970 . S
Li795 N845 1.990 . S
Li795 O853 1.961 . S
Li795 O854 1.970 . S
Li795 O855 1.956 . S
C796 C798 1.348 . S
C796 C799 1.356 . S
C796 O852 1.325 . S
N797 C800 1.314 . S
N797 C801 1.279 . S
C798 C796 1.348 . S
C798 C800 1.353 . S
C798 H856 0.929 . S
C799 C796 1.356 . S
C799 C801 1.358 . S
C799 H857 0.930 . S
C800 N797 1.314 . S
C800 C798 1.353 . S
C800 H858 0.930 . S
C801 N797 1.279 . S
C801 C799 1.358 . S
C801 H859 0.930 . S
C802 C805 1.348 . S
C802 C806 1.356 . S
C802 O853 1.325 . S
C803 N804 1.279 . S
C803 C806 1.358 . S
C803 H860 0.930 . S
N804 C803 1.279 . S
N804 C807 1.314 . S
C805 C802 1.348 . S
C805 C807 1.353 . S
C805 H861 0.929 . S
C806 C802 1.356 . S
C806 C803 1.358 . S
C806 H862 0.930 . S
C807 N804 1.314 . S
C807 C805 1.353 . S
C807 H863 0.930 . S
C808 N809 1.314 . S
C808 C813 1.353 . S
C808 H814 0.930 . S
N809 Li792 1.990 . S
N809 C808 1.314 . S
N809 C811 1.279 . S
C810 C811 1.358 . S
C810 C812 1.356 . S
C810 H864 0.930 . S
C811 N809 1.279 . S
C811 C810 1.358 . S
C811 H815 0.930 . S
C812 C810 1.356 . S
C812 C813 1.348 . S
C813 C808 1.353 . S
C813 C812 1.348 . S
C813 H865 0.929 . S
H814 C808 0.930 . S
H815 C811 0.930 . S
C816 N817 1.314 . S
C816 C818 1.353 . S
C816 H822 0.930 . S
N817 Li793 1.990 . S
N817 C816 1.314 . S
N817 C820 1.279 . S
C818 C816 1.353 . S
C818 C821 1.348 . S
C818 H866 0.929 . S
C819 C820 1.358 . S
C819 C821 1.356 . S
C819 H867 0.930 . S
C820 N817 1.279 . S
C820 C819 1.358 . S
C820 H823 0.930 . S
C821 C818 1.348 . S
C821 C819 1.356 . S
H822 C816 0.930 . S
H823 C820 0.930 . S
C824 C826 1.348 . S
C824 C827 1.356 . S
C824 O854 1.325 . S
N825 C828 1.314 . S
N825 C829 1.279 . S
C826 C824 1.348 . S
C826 C828 1.353 . S
C826 H868 0.929 . S
C827 C824 1.356 . S
C827 C829 1.358 . S
C827 H869 0.930 . S
C828 N825 1.314 . S
C828 C826 1.353 . S
C828 H870 0.930 . S
C829 N825 1.279 . S
C829 C827 1.358 . S
C829 H871 0.930 . S
C830 C831 1.348 . S
C830 C832 1.356 . S
C830 O855 1.325 . S
C831 C830 1.348 . S
C831 C833 1.353 . S
C831 H872 0.929 . S
C832 C830 1.356 . S
C832 C834 1.358 . S
C832 H873 0.930 . S
C833 C831 1.353 . S
C833 N835 1.314 . S
C833 H874 0.930 . S
C834 C832 1.358 . S
C834 N835 1.279 . S
C834 H875 0.930 . S
N835 C833 1.314 . S
N835 C834 1.279 . S
C836 C838 1.353 . S
C836 N839 1.314 . S
C836 H842 0.930 . S
C837 N839 1.279 . S
C837 C840 1.358 . S
C837 H843 0.930 . S
C838 C836 1.353 . S
C838 C841 1.348 . S
C838 H876 0.929 . S
N839 Li794 1.990 . S
N839 C836 1.314 . S
N839 C837 1.279 . S
C840 C837 1.358 . S
C840 C841 1.356 . S
C840 H877 0.930 . S
C841 C838 1.348 . S
C841 C840 1.356 . S
H842 C836 0.930 . S
H843 C837 0.930 . S
C844 N845 1.314 . S
C844 C846 1.353 . S
C844 H850 0.930 . S
N845 Li795 1.990 . S
N845 C844 1.314 . S
N845 C848 1.279 . S
C846 C844 1.353 . S
C846 C849 1.348 . S
C846 H878 0.929 . S
C847 C848 1.358 . S
C847 C849 1.356 . S
C847 H879 0.930 . S
C848 N845 1.279 . S
C848 C847 1.358 . S
C848 H851 0.930 . S
C849 C846 1.348 . S
C849 C847 1.356 . S
H850 C844 0.930 . S
H851 C848 0.930 . S
O852 Li792 1.956 . S
O852 Li793 1.970 . S
O852 Li794 1.961 . S
O852 C796 1.325 . S
O853 Li792 1.970 . S
O853 Li793 1.956 . S
O853 Li795 1.961 . S
O853 C802 1.325 . S
O854 Li792 1.961 . S
O854 Li794 1.956 . S
O854 Li795 1.970 . S
O854 C824 1.325 . S
O855 Li793 1.961 . S
O855 Li794 1.970 . S
O855 Li795 1.956 . S
O855 C830 1.325 . S
H856 C798 0.929 . S
H857 C799 0.930 . S
H858 C800 0.930 . S
H859 C801 0.930 . S
H860 C803 0.930 . S
H861 C805 0.929 . S
H862 C806 0.930 . S
H863 C807 0.930 . S
H864 C810 0.930 . S
H865 C813 0.929 . S
H866 C818 0.929 . S
H867 C819 0.930 . S
H868 C826 0.929 . S
H869 C827 0.930 . S
H870 C828 0.930 . S
H871 C829 0.930 . S
H872 C831 0.929 . S
H873 C832 0.930 . S
H874 C833 0.930 . S
H875 C834 0.930 . S
H876 C838 0.929 . S
H877 C840 0.930 . S
H878 C846 0.929 . S
H879 C847 0.930 . S
Li880 N897 1.990 . S
Li880 O940 1.956 . S
Li880 O941 1.970 . S
Li880 O942 1.961 . S
Li881 N905 1.990 . S
Li881 O940 1.970 . S
Li881 O941 1.956 . S
Li881 O943 1.961 1_545 S
Li882 N927 1.934 1_545 S
Li882 O940 2.002 . S
Li882 O942 2.006 . S
Li882 O943 1.971 1_545 S
Li883 N933 1.990 . S
Li883 O941 1.961 . S
Li883 O942 1.970 . S
Li883 O943 1.956 1_545 S
C884 C886 1.348 . S
C884 C887 1.356 . S
C884 O940 1.325 . S
N885 C888 1.314 . S
N885 C889 1.279 . S
C886 C884 1.348 . S
C886 C888 1.353 . S
C886 H944 0.929 . S
C887 C884 1.356 . S
C887 C889 1.358 . S
C887 H945 0.930 . S
C888 N885 1.314 . S
C888 C886 1.353 . S
C888 H946 0.930 . S
C889 N885 1.279 . S
C889 C887 1.358 . S
C889 H947 0.930 . S
C890 C893 1.348 . S
C890 C894 1.356 . S
C890 O941 1.325 . S
C891 N892 1.279 . S
C891 C894 1.358 . S
C891 H948 0.930 . S
N892 C891 1.279 . S
N892 C895 1.314 . S
C893 C890 1.348 . S
C893 C895 1.353 . S
C893 H949 0.929 . S
C894 C890 1.356 . S
C894 C891 1.358 . S
C894 H950 0.930 . S
C895 N892 1.314 . S
C895 C893 1.353 . S
C895 H951 0.930 . S
C896 N897 1.314 . S
C896 C901 1.353 . S
C896 H902 0.930 . S
N897 Li880 1.990 . S
N897 C896 1.314 . S
N897 C899 1.279 . S
C898 C899 1.358 . S
C898 C900 1.356 . S
C898 H952 0.930 . S
C899 N897 1.279 . S
C899 C898 1.358 . S
C899 H903 0.930 . S
C900 C898 1.356 . S
C900 C901 1.348 . S
C901 C896 1.353 . S
C901 C900 1.348 . S
C901 H953 0.929 . S
H902 C896 0.930 . S
H903 C899 0.930 . S
C904 N905 1.314 . S
C904 C906 1.353 . S
C904 H910 0.930 1_545 S
N905 Li881 1.990 . S
N905 C904 1.314 . S
N905 C908 1.279 . S
C906 C904 1.353 . S
C906 C909 1.348 . S
C906 H954 0.929 1_545 S
C907 C908 1.358 . S
C907 C909 1.356 . S
C907 H955 0.930 . S
C908 N905 1.279 . S
C908 C907 1.358 . S
C908 H911 0.930 . S
C909 C906 1.348 . S
C909 C907 1.356 . S
H910 C904 0.930 1_565 S
H911 C908 0.930 . S
C912 C914 1.348 . S
C912 C915 1.356 . S
C912 O942 1.325 . S
N913 C916 1.314 . S
N913 C917 1.279 . S
C914 C912 1.348 . S
C914 C916 1.353 . S
C914 H956 0.929 . S
C915 C912 1.356 . S
C915 C917 1.358 . S
C915 H957 0.930 . S
C916 N913 1.314 . S
C916 C914 1.353 . S
C916 H958 0.930 . S
C917 N913 1.279 . S
C917 C915 1.358 . S
C917 H959 0.930 . S
C918 C919 1.348 . S
C918 C920 1.356 . S
C918 O943 1.325 . S
C919 C918 1.348 . S
C919 C921 1.353 . S
C919 H960 0.929 . S
C920 C918 1.356 . S
C920 C922 1.358 . S
C920 H961 0.930 . S
C921 C919 1.353 . S
C921 N923 1.314 . S
C921 H962 0.930 . S
C922 C920 1.358 . S
C922 N923 1.279 . S
C922 H963 0.930 . S
N923 C921 1.314 . S
N923 C922 1.279 . S
C924 C926 1.353 . S
C924 N927 1.314 . S
C924 H930 0.930 . S
C925 N927 1.279 . S
C925 C928 1.358 . S
C925 H931 0.930 . S
C926 C924 1.353 . S
C926 C929 1.348 . S
C926 H964 0.929 . S
N927 Li882 1.934 1_565 S
N927 C924 1.314 . S
N927 C925 1.279 . S
C928 C925 1.358 . S
C928 C929 1.356 . S
C928 H965 0.930 . S
C929 C926 1.348 . S
C929 C928 1.356 . S
H930 C924 0.930 . S
H931 C925 0.930 . S
C932 N933 1.314 . S
C932 C934 1.353 . S
C932 H938 0.930 . S
N933 Li883 1.990 . S
N933 C932 1.314 . S
N933 C936 1.279 1_545 S
C934 C932 1.353 . S
C934 C937 1.348 . S
C934 H966 0.929 . S
C935 C936 1.358 . S
C935 C937 1.356 1_565 S
C935 H967 0.930 . S
C936 N933 1.279 1_565 S
C936 C935 1.358 . S
C936 H939 0.930 . S
C937 C934 1.348 . S
C937 C935 1.356 1_545 S
H938 C932 0.930 . S
H939 C936 0.930 . S
O940 Li880 1.956 . S
O940 Li881 1.970 . S
O940 Li882 2.002 . S
O940 C884 1.325 . S
O941 Li880 1.970 . S
O941 Li881 1.956 . S
O941 Li883 1.961 . S
O941 C890 1.325 . S
O942 Li880 1.961 . S
O942 Li882 2.006 . S
O942 Li883 1.970 . S
O942 C912 1.325 . S
O943 Li881 1.961 1_565 S
O943 Li882 1.971 1_565 S
O943 Li883 1.956 1_565 S
O943 C918 1.325 . S
H944 C886 0.929 . S
H945 C887 0.930 . S
H946 C888 0.930 . S
H947 C889 0.930 . S
H948 C891 0.930 . S
H949 C893 0.929 . S
H950 C894 0.930 . S
H951 C895 0.930 . S
H952 C898 0.930 . S
H953 C901 0.929 . S
H954 C906 0.929 1_565 S
H955 C907 0.930 . S
H956 C914 0.929 . S
H957 C915 0.930 . S
H958 C916 0.930 . S
H959 C917 0.930 . S
H960 C919 0.929 . S
H961 C920 0.930 . S
H962 C921 0.930 . S
H963 C922 0.930 . S
H964 C926 0.929 . S
H965 C928 0.930 . S
H966 C934 0.929 . S
H967 C935 0.930 . S
Li968 N985 1.990 . S
Li968 O1028 1.974 . S
Li968 O1029 1.971 1_554 S
Li968 O1030 1.939 1_554 S
Li969 N993 1.990 . S
Li969 O1028 1.970 . S
Li969 O1029 1.956 1_554 S
Li969 O1031 2.004 . S
Li970 N1015 1.990 . S
Li970 O1028 1.961 . S
Li970 O1030 1.956 1_554 S
Li970 O1031 1.966 . S
Li971 N1021 1.990 . S
Li971 O1029 1.961 . S
Li971 O1030 1.970 . S
Li971 O1031 1.918 1_556 S
C972 C974 1.348 . S
C972 C975 1.356 . S
C972 O1028 1.325 . S
N973 C976 1.314 . S
N973 C977 1.279 . S
C974 C972 1.348 . S
C974 C976 1.353 . S
C974 H1032 0.929 . S
C975 C972 1.356 . S
C975 C977 1.358 . S
C975 H1033 0.930 . S
C976 N973 1.314 . S
C976 C974 1.353 . S
C976 H1034 0.930 . S
C977 N973 1.279 . S
C977 C975 1.358 . S
C977 H1035 0.930 . S
C978 C981 1.349 . S
C978 C982 1.356 . S
C978 O1029 1.325 . S
C979 N980 1.279 . S
C979 C982 1.358 . S
C979 H1036 0.930 . S
N980 C979 1.279 . S
N980 C983 1.314 . S
C981 C978 1.349 . S
C981 C983 1.353 . S
C981 H1037 0.929 1_556 S
C982 C978 1.356 . S
C982 C979 1.358 . S
C982 H1038 0.930 . S
C983 N980 1.314 . S
C983 C981 1.353 . S
C983 H1039 0.924 1_556 S
C984 N985 1.282 1_556 S
C984 C989 1.353 . S
C984 H990 0.930 . S
N985 Li968 1.990 . S
N985 C984 1.282 1_554 S
N985 C987 1.312 . S
C986 C987 1.358 . S
C986 C988 1.322 1_554 S
C986 H1040 0.930 . S
C987 N985 1.312 . S
C987 C986 1.358 . S
C987 H991 0.930 . S
C988 C986 1.322 1_556 S
C988 C989 1.384 . S
C989 C984 1.353 . S
C989 C988 1.384 . S
C989 H1041 0.929 . S
H990 C984 0.930 . S
H991 C987 0.930 . S
C992 N993 1.314 . S
C992 C994 1.353 . S
C992 H998 0.930 . S
N993 Li969 1.990 . S
N993 C992 1.314 . S
N993 C996 1.279 . S
C994 C992 1.353 . S
C994 C997 1.348 . S
C994 H1042 0.929 . S
C995 C996 1.358 . S
C995 C997 1.356 . S
C995 H1043 0.930 . S
C996 N993 1.279 . S
C996 C995 1.358 . S
C996 H999 0.930 . S
C997 C994 1.348 . S
C997 C995 1.356 . S
H998 C992 0.930 . S
H999 C996 0.930 . S
C1000 C1002 1.348 . S
C1000 C1003 1.356 . S
C1000 O1030 1.325 . S
N1001 C1004 1.314 . S
N1001 C1005 1.279 . S
C1002 C1000 1.348 . S
C1002 C1004 1.353 . S
C1002 H1044 0.929 . S
C1003 C1000 1.356 . S
C1003 C1005 1.358 . S
C1003 H1045 0.930 . S
C1004 N1001 1.314 . S
C1004 C1002 1.353 . S
C1004 H1046 0.930 . S
C1005 N1001 1.279 . S
C1005 C1003 1.358 . S
C1005 H1047 0.930 . S
C1006 C1007 1.335 1_554 S
C1006 C1008 1.364 . S
C1006 O1031 1.324 . S
C1007 C1006 1.335 1_556 S
C1007 C1009 1.353 . S
C1007 H1048 0.929 . S
C1008 C1006 1.364 . S
C1008 C1010 1.358 . S
C1008 H1049 0.930 . S
C1009 C1007 1.353 . S
C1009 N1011 1.325 . S
C1009 H1050 0.930 . S
C1010 C1008 1.358 . S
C1010 N1011 1.267 1_554 S
C1010 H1051 0.930 . S
N1011 C1009 1.325 . S
N1011 C1010 1.267 1_556 S
C1012 C1014 1.353 . S
C1012 N1015 1.314 . S
C1012 H1018 0.930 . S
C1013 N1015 1.279 1_556 S
C1013 C1016 1.358 . S
C1013 H1019 0.930 . S
C1014 C1012 1.353 . S
C1014 C1017 1.348 . S
C1014 H1052 0.929 . S
N1015 Li970 1.990 . S
N1015 C1012 1.314 . S
N1015 C1013 1.279 1_554 S
C1016 C1013 1.358 . S
C1016 C1017 1.356 1_556 S
C1016 H1053 0.930 . S
C1017 C1014 1.348 . S
C1017 C1016 1.356 1_554 S
H1018 C1012 0.930 . S
H1019 C1013 0.930 . S
C1020 N1021 1.314 . S
C1020 C1022 1.353 . S
C1020 H1026 0.930 . S
N1021 Li971 1.990 . S
N1021 C1020 1.314 . S
N1021 C1024 1.279 . S
C1022 C1020 1.353 . S
C1022 C1025 1.348 . S
C1022 H1054 0.929 . S
C1023 C1024 1.358 . S
C1023 C1025 1.356 . S
C1023 H1055 0.930 . S
C1024 N1021 1.279 . S
C1024 C1023 1.358 . S
C1024 H1027 0.930 . S
C1025 C1022 1.348 . S
C1025 C1023 1.356 . S
H1026 C1020 0.930 . S
H1027 C1024 0.930 . S
O1028 Li968 1.974 . S
O1028 Li969 1.970 . S
O1028 Li970 1.961 . S
O1028 C972 1.325 . S
O1029 Li968 1.971 1_556 S
O1029 Li969 1.956 1_556 S
O1029 Li971 1.961 . S
O1029 C978 1.325 . S
O1030 Li968 1.939 1_556 S
O1030 Li970 1.956 1_556 S
O1030 Li971 1.970 . S
O1030 C1000 1.325 . S
O1031 Li969 2.004 . S
O1031 Li970 1.966 . S
O1031 Li971 1.918 1_554 S
O1031 C1006 1.324 . S
H1032 C974 0.929 . S
H1033 C975 0.930 . S
H1034 C976 0.930 . S
H1035 C977 0.930 . S
H1036 C979 0.930 . S
H1037 C981 0.929 1_554 S
H1038 C982 0.930 . S
H1039 C983 0.924 1_554 S
H1040 C986 0.930 . S
H1041 C989 0.929 . S
H1042 C994 0.929 . S
H1043 C995 0.930 . S
H1044 C1002 0.929 . S
H1045 C1003 0.930 . S
H1046 C1004 0.930 . S
H1047 C1005 0.930 . S
H1048 C1007 0.929 . S
H1049 C1008 0.930 . S
H1050 C1009 0.930 . S
H1051 C1010 0.930 . S
H1052 C1014 0.929 . S
H1053 C1016 0.930 . S
H1054 C1022 0.929 . S
H1055 C1023 0.930 . S
Li1056 N1073 1.990 . S
Li1056 O1116 1.956 . S
Li1056 O1117 1.970 . S
Li1056 O1118 1.961 1_554 S
Li1057 N1081 1.990 . S
Li1057 O1116 1.970 . S
Li1057 O1117 1.956 . S
Li1057 O1119 1.961 . S
Li1058 N1103 1.990 . S
Li1058 O1116 1.961 . S
Li1058 O1118 1.956 1_554 S
Li1058 O1119 1.970 . S
Li1059 N1109 1.990 . S
Li1059 O1117 1.961 1_556 S
Li1059 O1118 1.970 . S
Li1059 O1119 1.956 1_556 S
C1060 C1062 1.348 . S
C1060 C1063 1.356 . S
C1060 O1116 1.325 . S
N1061 C1064 1.314 . S
N1061 C1065 1.279 . S
C1062 C1060 1.348 . S
C1062 C1064 1.353 . S
C1062 H1120 0.929 . S
C1063 C1060 1.356 . S
C1063 C1065 1.358 . S
C1063 H1121 0.930 . S
C1064 N1061 1.314 . S
C1064 C1062 1.353 . S
C1064 H1122 0.930 . S
C1065 N1061 1.279 . S
C1065 C1063 1.358 . S
C1065 H1123 0.930 . S
C1066 C1069 1.348 . S
C1066 C1070 1.356 . S
C1066 O1117 1.325 . S
C1067 N1068 1.279 . S
C1067 C1070 1.358 . S
C1067 H1124 0.930 . S
N1068 C1067 1.279 . S
N1068 C1071 1.314 . S
C1069 C1066 1.348 . S
C1069 C1071 1.353 . S
C1069 H1125 0.929 . S
C1070 C1066 1.356 . S
C1070 C1067 1.358 . S
C1070 H1126 0.930 . S
C1071 N1068 1.314 . S
C1071 C1069 1.353 . S
C1071 H1127 0.930 . S
C1072 N1073 1.314 . S
C1072 C1077 1.354 . S
C1072 H1078 0.930 1_554 S
N1073 Li1056 1.990 . S
N1073 C1072 1.314 . S
N1073 C1075 1.279 . S
C1074 C1075 1.358 . S
C1074 C1076 1.356 . S
C1074 H1128 0.930 . S
C1075 N1073 1.279 . S
C1075 C1074 1.358 . S
C1075 H1079 0.930 . S
C1076 C1074 1.356 . S
C1076 C1077 1.368 . S
C1077 C1072 1.354 . S
C1077 C1076 1.368 . S
C1077 H1129 0.909 1_554 S
H1078 C1072 0.930 1_556 S
H1079 C1075 0.930 . S
C1080 N1081 1.314 . S
C1080 C1082 1.353 . S
C1080 H1086 0.930 . S
N1081 Li1057 1.990 . S
N1081 C1080 1.314 . S
N1081 C1084 1.279 . S
C1082 C1080 1.353 . S
C1082 C1085 1.348 . S
C1082 H1130 0.929 . S
C1083 C1084 1.358 . S
C1083 C1085 1.356 . S
C1083 H1131 0.930 . S
C1084 N1081 1.279 . S
C1084 C1083 1.358 . S
C1084 H1087 0.930 . S
C1085 C1082 1.348 . S
C1085 C1083 1.356 . S
H1086 C1080 0.930 . S
H1087 C1084 0.930 . S
C1088 C1090 1.348 . S
C1088 C1091 1.356 . S
C1088 O1118 1.325 . S
N1089 C1092 1.314 . S
N1089 C1093 1.279 . S
C1090 C1088 1.348 . S
C1090 C1092 1.353 . S
C1090 H1132 0.929 . S
C1091 C1088 1.356 . S
C1091 C1093 1.358 . S
C1091 H1133 0.930 . S
C1092 N1089 1.314 . S
C1092 C1090 1.353 . S
C1092 H1134 0.930 . S
C1093 N1089 1.279 . S
C1093 C1091 1.358 . S
C1093 H1135 0.930 . S
C1094 C1095 1.348 . S
C1094 C1096 1.356 . S
C1094 O1119 1.325 . S
C1095 C1094 1.348 . S
C1095 C1097 1.353 . S
C1095 H1136 0.929 . S
C1096 C1094 1.356 . S
C1096 C1098 1.358 . S
C1096 H1137 0.930 . S
C1097 C1095 1.353 . S
C1097 N1099 1.314 . S
C1097 H1138 0.930 . S
C1098 C1096 1.358 . S
C1098 N1099 1.279 . S
C1098 H1139 0.930 . S
N1099 C1097 1.314 . S
N1099 C1098 1.279 . S
C1100 C1102 1.353 . S
C1100 N1103 1.314 . S
C1100 H1106 0.930 . S
C1101 N1103 1.279 . S
C1101 C1104 1.358 . S
C1101 H1107 0.930 1_554 S
C1102 C1100 1.353 . S
C1102 C1105 1.348 . S
C1102 H1140 0.929 . S
N1103 Li1058 1.990 . S
N1103 C1100 1.314 . S
N1103 C1101 1.279 . S
C1104 C1101 1.358 . S
C1104 C1105 1.356 . S
C1104 H1141 0.966 . S
C1105 C1102 1.348 . S
C1105 C1104 1.356 . S
H1106 C1100 0.930 . S
H1107 C1101 0.930 1_556 S
C1108 N1109 1.314 . S
C1108 C1110 1.353 . S
C1108 H1114 0.930 . S
N1109 Li1059 1.990 . S
N1109 C1108 1.314 . S
N1109 C1112 1.279 . S
C1110 C1108 1.353 . S
C1110 C1113 1.348 . S
C1110 H1142 0.929 . S
C1111 C1112 1.358 . S
C1111 C1113 1.356 . S
C1111 H1143 0.930 . S
C1112 N1109 1.279 . S
C1112 C1111 1.358 . S
C1112 H1115 0.930 . S
C1113 C1110 1.348 . S
C1113 C1111 1.356 . S
H1114 C1108 0.930 . S
H1115 C1112 0.930 . S
O1116 Li1056 1.956 . S
O1116 Li1057 1.970 . S
O1116 Li1058 1.961 . S
O1116 C1060 1.325 . S
O1117 Li1056 1.970 . S
O1117 Li1057 1.956 . S
O1117 Li1059 1.961 1_554 S
O1117 C1066 1.325 . S
O1118 Li1056 1.961 1_556 S
O1118 Li1058 1.956 1_556 S
O1118 Li1059 1.970 . S
O1118 C1088 1.325 . S
O1119 Li1057 1.961 . S
O1119 Li1058 1.970 . S
O1119 Li1059 1.956 1_554 S
O1119 C1094 1.325 . S
H1120 C1062 0.929 . S
H1121 C1063 0.930 . S
H1122 C1064 0.930 . S
H1123 C1065 0.930 . S
H1124 C1067 0.930 . S
H1125 C1069 0.929 . S
H1126 C1070 0.930 . S
H1127 C1071 0.930 . S
H1128 C1074 0.930 . S
H1129 C1077 0.909 1_556 S
H1130 C1082 0.929 . S
H1131 C1083 0.930 . S
H1132 C1090 0.929 . S
H1133 C1091 0.930 . S
H1134 C1092 0.930 . S
H1135 C1093 0.930 . S
H1136 C1095 0.929 . S
H1137 C1096 0.930 . S
H1138 C1097 0.930 . S
H1139 C1098 0.930 . S
H1140 C1102 0.929 . S
H1141 C1104 0.966 . S
H1142 C1110 0.929 . S
H1143 C1111 0.930 . S
Li1144 N1161 1.990 . S
Li1144 O1204 1.956 . S
Li1144 O1205 1.970 . S
Li1144 O1206 1.961 . S
Li1145 N1169 1.990 . S
Li1145 O1204 1.970 . S
Li1145 O1205 1.956 . S
Li1145 O1207 1.961 . S
Li1146 N1191 1.990 1_554 S
Li1146 O1204 1.961 . S
Li1146 O1206 1.956 . S
Li1146 O1207 1.970 . S
Li1147 N1197 1.990 . S
Li1147 O1205 1.961 . S
Li1147 O1206 1.970 . S
Li1147 O1207 1.956 . S
C1148 C1150 1.348 . S
C1148 C1151 1.356 . S
C1148 O1204 1.325 . S
N1149 C1152 1.314 . S
N1149 C1153 1.279 . S
C1150 C1148 1.348 . S
C1150 C1152 1.353 . S
C1150 H1208 0.929 . S
C1151 C1148 1.356 . S
C1151 C1153 1.358 . S
C1151 H1209 0.930 . S
C1152 N1149 1.314 . S
C1152 C1150 1.353 . S
C1152 H1210 0.930 . S
C1153 N1149 1.279 . S
C1153 C1151 1.358 . S
C1153 H1211 0.930 . S
C1154 C1157 1.348 . S
C1154 C1158 1.356 . S
C1154 O1205 1.325 . S
C1155 N1156 1.279 . S
C1155 C1158 1.358 . S
C1155 H1212 0.930 . S
N1156 C1155 1.279 . S
N1156 C1159 1.314 . S
C1157 C1154 1.348 . S
C1157 C1159 1.353 . S
C1157 H1213 0.929 . S
C1158 C1154 1.356 . S
C1158 C1155 1.358 . S
C1158 H1214 0.930 . S
C1159 N1156 1.314 . S
C1159 C1157 1.353 . S
C1159 H1215 0.930 . S
C1160 N1161 1.314 . S
C1160 C1165 1.353 . S
C1160 H1166 0.930 . S
N1161 Li1144 1.990 . S
N1161 C1160 1.314 . S
N1161 C1163 1.279 . S
C1162 C1163 1.358 . S
C1162 C1164 1.356 . S
C1162 H1216 0.930 . S
C1163 N1161 1.279 . S
C1163 C1162 1.358 . S
C1163 H1167 0.930 . S
C1164 C1162 1.356 . S
C1164 C1165 1.348 . S
C1165 C1160 1.353 . S
C1165 C1164 1.348 . S
C1165 H1217 0.929 . S
H1166 C1160 0.930 . S
H1167 C1163 0.930 . S
C1168 N1169 1.314 . S
C1168 C1170 1.353 . S
C1168 H1174 0.930 . S
N1169 Li1145 1.990 . S
N1169 C1168 1.314 . S
N1169 C1172 1.279 . S
C1170 C1168 1.353 . S
C1170 C1173 1.348 . S
C1170 H1218 0.929 . S
C1171 C1172 1.358 . S
C1171 C1173 1.356 . S
C1171 H1219 0.930 . S
C1172 N1169 1.279 . S
C1172 C1171 1.358 . S
C1172 H1175 0.930 . S
C1173 C1170 1.348 . S
C1173 C1171 1.356 . S
H1174 C1168 0.930 . S
H1175 C1172 0.930 . S
C1176 C1178 1.348 . S
C1176 C1179 1.356 . S
C1176 O1206 1.325 . S
N1177 C1180 1.314 . S
N1177 C1181 1.279 . S
C1178 C1176 1.348 . S
C1178 C1180 1.353 . S
C1178 H1220 0.929 . S
C1179 C1176 1.356 . S
C1179 C1181 1.358 . S
C1179 H1221 0.930 . S
C1180 N1177 1.314 . S
C1180 C1178 1.353 . S
C1180 H1222 0.930 . S
C1181 N1177 1.279 . S
C1181 C1179 1.358 . S
C1181 H1223 0.930 . S
C1182 C1183 1.348 . S
C1182 C1184 1.356 . S
C1182 O1207 1.325 1_556 S
C1183 C1182 1.348 . S
C1183 C1185 1.353 . S
C1183 H1224 0.929 . S
C1184 C1182 1.356 . S
C1184 C1186 1.358 . S
C1184 H1225 0.930 1_556 S
C1185 C1183 1.353 . S
C1185 N1187 1.314 . S
C1185 H1226 0.930 . S
C1186 C1184 1.358 . S
C1186 N1187 1.279 . S
C1186 H1227 0.930 . S
N1187 C1185 1.314 . S
N1187 C1186 1.279 . S
C1188 C1190 1.353 . S
C1188 N1191 1.314 . S
C1188 H1194 0.930 . S
C1189 N1191 1.279 . S
C1189 C1192 1.358 . S
C1189 H1195 0.930 . S
C1190 C1188 1.353 . S
C1190 C1193 1.348 . S
C1190 H1228 0.929 . S
N1191 Li1146 1.990 1_556 S
N1191 C1188 1.314 . S
N1191 C1189 1.279 . S
C1192 C1189 1.358 . S
C1192 C1193 1.356 . S
C1192 H1229 0.930 . S
C1193 C1190 1.348 . S
C1193 C1192 1.356 . S
H1194 C1188 0.930 . S
H1195 C1189 0.930 . S
C1196 N1197 1.314 . S
C1196 C1198 1.353 . S
C1196 H1202 0.930 . S
N1197 Li1147 1.990 . S
N1197 C1196 1.314 . S
N1197 C1200 1.279 . S
C1198 C1196 1.353 . S
C1198 C1201 1.348 . S
C1198 H1230 0.929 . S
C1199 C1200 1.358 . S
C1199 C1201 1.356 . S
C1199 H1231 0.930 1_554 S
C1200 N1197 1.279 . S
C1200 C1199 1.358 . S
C1200 H1203 0.955 . S
C1201 C1198 1.348 . S
C1201 C1199 1.356 . S
H1202 C1196 0.930 . S
H1203 C1200 0.955 . S
O1204 Li1144 1.956 . S
O1204 Li1145 1.970 . S
O1204 Li1146 1.961 . S
O1204 C1148 1.325 . S
O1205 Li1144 1.970 . S
O1205 Li1145 1.956 . S
O1205 Li1147 1.961 . S
O1205 C1154 1.325 . S
O1206 Li1144 1.961 . S
O1206 Li1146 1.956 . S
O1206 Li1147 1.970 . S
O1206 C1176 1.325 . S
O1207 Li1145 1.961 . S
O1207 Li1146 1.970 . S
O1207 Li1147 1.956 . S
O1207 C1182 1.325 1_554 S
H1208 C1150 0.929 . S
H1209 C1151 0.930 . S
H1210 C1152 0.930 . S
H1211 C1153 0.930 . S
H1212 C1155 0.930 . S
H1213 C1157 0.929 . S
H1214 C1158 0.930 . S
H1215 C1159 0.930 . S
H1216 C1162 0.930 . S
H1217 C1165 0.929 . S
H1218 C1170 0.929 . S
H1219 C1171 0.930 . S
H1220 C1178 0.929 . S
H1221 C1179 0.930 . S
H1222 C1180 0.930 . S
H1223 C1181 0.930 . S
H1224 C1183 0.929 . S
H1225 C1184 0.930 1_554 S
H1226 C1185 0.930 . S
H1227 C1186 0.930 . S
H1228 C1190 0.929 . S
H1229 C1192 0.930 . S
H1230 C1198 0.929 . S
H1231 C1199 0.930 1_556 S
Li1232 N1249 1.990 . S
Li1232 O1292 1.956 . S
Li1232 O1293 1.970 . S
Li1232 O1294 1.961 . S
Li1233 N1257 1.990 . S
Li1233 O1292 1.970 . S
Li1233 O1293 1.956 . S
Li1233 O1295 1.961 . S
Li1234 N1279 1.990 . S
Li1234 O1292 1.961 . S
Li1234 O1294 1.956 . S
Li1234 O1295 1.970 . S
Li1235 N1285 1.990 . S
Li1235 O1293 1.961 . S
Li1235 O1294 1.970 . S
Li1235 O1295 1.956 . S
C1236 C1238 1.348 . S
C1236 C1239 1.356 . S
C1236 O1292 1.325 . S
N1237 C1240 1.314 . S
N1237 C1241 1.279 . S
C1238 C1236 1.348 . S
C1238 C1240 1.353 . S
C1238 H1296 0.929 . S
C1239 C1236 1.356 . S
C1239 C1241 1.358 . S
C1239 H1297 0.930 . S
C1240 N1237 1.314 . S
C1240 C1238 1.353 . S
C1240 H1298 0.930 . S
C1241 N1237 1.279 . S
C1241 C1239 1.358 . S
C1241 H1299 0.930 . S
C1242 C1245 1.348 . S
C1242 C1246 1.356 . S
C1242 O1293 1.325 . S
C1243 N1244 1.279 . S
C1243 C1246 1.358 . S
C1243 H1300 0.930 . S
N1244 C1243 1.279 . S
N1244 C1247 1.314 . S
C1245 C1242 1.348 . S
C1245 C1247 1.353 . S
C1245 H1301 0.929 . S
C1246 C1242 1.356 . S
C1246 C1243 1.358 . S
C1246 H1302 0.930 . S
C1247 N1244 1.314 . S
C1247 C1245 1.353 . S
C1247 H1303 0.930 . S
C1248 N1249 1.314 . S
C1248 C1253 1.353 . S
C1248 H1254 0.930 . S
N1249 Li1232 1.990 . S
N1249 C1248 1.314 . S
N1249 C1251 1.279 . S
C1250 C1251 1.358 . S
C1250 C1252 1.356 . S
C1250 H1304 0.930 . S
C1251 N1249 1.279 . S
C1251 C1250 1.358 . S
C1251 H1255 0.930 . S
C1252 C1250 1.356 . S
C1252 C1253 1.348 . S
C1253 C1248 1.353 . S
C1253 C1252 1.348 . S
C1253 H1305 0.929 . S
H1254 C1248 0.930 . S
H1255 C1251 0.930 . S
C1256 N1257 1.314 . S
C1256 C1258 1.353 . S
C1256 H1262 0.930 . S
N1257 Li1233 1.990 . S
N1257 C1256 1.314 . S
N1257 C1260 1.279 . S
C1258 C1256 1.353 . S
C1258 C1261 1.348 . S
C1258 H1306 0.929 . S
C1259 C1260 1.358 . S
C1259 C1261 1.356 . S
C1259 H1307 0.930 . S
C1260 N1257 1.279 . S
C1260 C1259 1.358 . S
C1260 H1263 0.930 . S
C1261 C1258 1.348 . S
C1261 C1259 1.356 . S
H1262 C1256 0.930 . S
H1263 C1260 0.930 . S
C1264 C1266 1.348 . S
C1264 C1267 1.356 . S
C1264 O1294 1.325 . S
N1265 C1268 1.314 . S
N1265 C1269 1.279 . S
C1266 C1264 1.348 . S
C1266 C1268 1.353 . S
C1266 H1308 0.929 . S
C1267 C1264 1.356 . S
C1267 C1269 1.358 . S
C1267 H1309 0.930 . S
C1268 N1265 1.314 . S
C1268 C1266 1.353 . S
C1268 H1310 0.930 . S
C1269 N1265 1.279 . S
C1269 C1267 1.358 . S
C1269 H1311 0.930 . S
C1270 C1271 1.348 . S
C1270 C1272 1.356 . S
C1270 O1295 1.325 . S
C1271 C1270 1.348 . S
C1271 C1273 1.353 . S
C1271 H1312 0.929 . S
C1272 C1270 1.356 . S
C1272 C1274 1.358 . S
C1272 H1313 0.930 . S
C1273 C1271 1.353 . S
C1273 N1275 1.314 . S
C1273 H1314 0.930 . S
C1274 C1272 1.358 . S
C1274 N1275 1.279 . S
C1274 H1315 0.930 . S
N1275 C1273 1.314 . S
N1275 C1274 1.279 . S
C1276 C1278 1.353 . S
C1276 N1279 1.314 . S
C1276 H1282 0.930 . S
C1277 N1279 1.279 . S
C1277 C1280 1.358 . S
C1277 H1283 0.930 . S
C1278 C1276 1.353 . S
C1278 C1281 1.348 . S
C1278 H1316 0.929 . S
N1279 Li1234 1.990 . S
N1279 C1276 1.314 . S
N1279 C1277 1.279 . S
C1280 C1277 1.358 . S
C1280 C1281 1.356 . S
C1280 H1317 0.930 . S
C1281 C1278 1.348 . S
C1281 C1280 1.356 . S
H1282 C1276 0.930 . S
H1283 C1277 0.930 . S
C1284 N1285 1.314 . S
C1284 C1286 1.353 . S
C1284 H1290 0.930 . S
N1285 Li1235 1.990 . S
N1285 C1284 1.314 . S
N1285 C1288 1.279 . S
C1286 C1284 1.353 . S
C1286 C1289 1.348 . S
C1286 H1318 0.929 . S
C1287 C1288 1.358 . S
C1287 C1289 1.356 . S
C1287 H1319 0.930 . S
C1288 N1285 1.279 . S
C1288 C1287 1.358 . S
C1288 H1291 0.930 . S
C1289 C1286 1.348 . S
C1289 C1287 1.356 . S
H1290 C1284 0.930 . S
H1291 C1288 0.930 . S
O1292 Li1232 1.956 . S
O1292 Li1233 1.970 . S
O1292 Li1234 1.961 . S
O1292 C1236 1.325 . S
O1293 Li1232 1.970 . S
O1293 Li1233 1.956 . S
O1293 Li1235 1.961 . S
O1293 C1242 1.325 . S
O1294 Li1232 1.961 . S
O1294 Li1234 1.956 . S
O1294 Li1235 1.970 . S
O1294 C1264 1.325 . S
O1295 Li1233 1.961 . S
O1295 Li1234 1.970 . S
O1295 Li1235 1.956 . S
O1295 C1270 1.325 . S
H1296 C1238 0.929 . S
H1297 C1239 0.930 . S
H1298 C1240 0.930 . S
H1299 C1241 0.930 . S
H1300 C1243 0.930 . S
H1301 C1245 0.929 . S
H1302 C1246 0.930 . S
H1303 C1247 0.930 . S
H1304 C1250 0.930 . S
H1305 C1253 0.929 . S
H1306 C1258 0.929 . S
H1307 C1259 0.930 . S
H1308 C1266 0.929 . S
H1309 C1267 0.930 . S
H1310 C1268 0.930 . S
H1311 C1269 0.930 . S
H1312 C1271 0.929 . S
H1313 C1272 0.930 . S
H1314 C1273 0.930 . S
H1315 C1274 0.930 . S
H1316 C1278 0.929 . S
H1317 C1280 0.930 . S
H1318 C1286 0.929 . S
H1319 C1287 0.930 . S
Li1320 N1337 1.990 . S
Li1320 O1380 1.956 . S
Li1320 O1381 1.970 . S
Li1320 O1382 1.961 . S
Li1321 N1345 1.990 . S
Li1321 O1380 1.970 . S
Li1321 O1381 1.956 . S
Li1321 O1383 1.961 . S
Li1322 N1367 1.990 . S
Li1322 O1380 1.961 . S
Li1322 O1382 1.956 . S
Li1322 O1383 1.970 . S
Li1323 N1373 1.990 . S
Li1323 O1381 1.961 . S
Li1323 O1382 1.970 . S
Li1323 O1383 1.956 . S
C1324 C1326 1.348 . S
C1324 C1327 1.356 . S
C1324 O1380 1.325 . S
N1325 C1328 1.314 . S
N1325 C1329 1.279 . S
C1326 C1324 1.348 . S
C1326 C1328 1.353 . S
C1326 H1384 0.929 . S
C1327 C1324 1.356 . S
C1327 C1329 1.358 . S
C1327 H1385 0.930 . S
C1328 N1325 1.314 . S
C1328 C1326 1.353 . S
C1328 H1386 0.930 . S
C1329 N1325 1.279 . S
C1329 C1327 1.358 . S
C1329 H1387 0.930 . S
C1330 C1333 1.348 . S
C1330 C1334 1.356 . S
C1330 O1381 1.325 . S
C1331 N1332 1.279 . S
C1331 C1334 1.358 . S
C1331 H1388 0.930 . S
N1332 C1331 1.279 . S
N1332 C1335 1.314 . S
C1333 C1330 1.348 . S
C1333 C1335 1.353 . S
C1333 H1389 0.929 . S
C1334 C1330 1.356 . S
C1334 C1331 1.358 . S
C1334 H1390 0.930 . S
C1335 N1332 1.314 . S
C1335 C1333 1.353 . S
C1335 H1391 0.930 . S
C1336 N1337 1.314 . S
C1336 C1341 1.353 . S
C1336 H1342 0.930 . S
N1337 Li1320 1.990 . S
N1337 C1336 1.314 . S
N1337 C1339 1.279 . S
C1338 C1339 1.358 . S
C1338 C1340 1.356 . S
C1338 H1392 0.930 . S
C1339 N1337 1.279 . S
C1339 C1338 1.358 . S
C1339 H1343 0.930 . S
C1340 C1338 1.356 . S
C1340 C1341 1.348 . S
C1341 C1336 1.353 . S
C1341 C1340 1.348 . S
C1341 H1393 0.929 . S
H1342 C1336 0.930 . S
H1343 C1339 0.930 . S
C1344 N1345 1.314 . S
C1344 C1346 1.353 . S
C1344 H1350 0.930 . S
N1345 Li1321 1.990 . S
N1345 C1344 1.314 . S
N1345 C1348 1.279 . S
C1346 C1344 1.353 . S
C1346 C1349 1.348 . S
C1346 H1394 0.929 . S
C1347 C1348 1.358 . S
C1347 C1349 1.356 . S
C1347 H1395 0.930 . S
C1348 N1345 1.279 . S
C1348 C1347 1.358 . S
C1348 H1351 0.930 . S
C1349 C1346 1.348 . S
C1349 C1347 1.356 . S
H1350 C1344 0.930 . S
H1351 C1348 0.930 . S
C1352 C1354 1.348 . S
C1352 C1355 1.356 . S
C1352 O1382 1.325 . S
N1353 C1356 1.314 . S
N1353 C1357 1.279 . S
C1354 C1352 1.348 . S
C1354 C1356 1.353 . S
C1354 H1396 0.929 . S
C1355 C1352 1.356 . S
C1355 C1357 1.358 . S
C1355 H1397 0.930 . S
C1356 N1353 1.314 . S
C1356 C1354 1.353 . S
C1356 H1398 0.930 . S
C1357 N1353 1.279 . S
C1357 C1355 1.358 . S
C1357 H1399 0.930 . S
C1358 C1359 1.348 . S
C1358 C1360 1.356 . S
C1358 O1383 1.325 . S
C1359 C1358 1.348 . S
C1359 C1361 1.353 . S
C1359 H1400 0.929 . S
C1360 C1358 1.356 . S
C1360 C1362 1.358 . S
C1360 H1401 0.930 . S
C1361 C1359 1.353 . S
C1361 N1363 1.314 . S
C1361 H1402 0.930 . S
C1362 C1360 1.358 . S
C1362 N1363 1.279 . S
C1362 H1403 0.930 . S
N1363 C1361 1.314 . S
N1363 C1362 1.279 . S
C1364 C1366 1.353 . S
C1364 N1367 1.314 . S
C1364 H1370 0.930 . S
C1365 N1367 1.279 . S
C1365 C1368 1.358 . S
C1365 H1371 0.930 . S
C1366 C1364 1.353 . S
C1366 C1369 1.348 . S
C1366 H1404 0.929 . S
N1367 Li1322 1.990 . S
N1367 C1364 1.314 . S
N1367 C1365 1.279 . S
C1368 C1365 1.358 . S
C1368 C1369 1.356 . S
C1368 H1405 0.930 . S
C1369 C1366 1.348 . S
C1369 C1368 1.356 . S
H1370 C1364 0.930 . S
H1371 C1365 0.930 . S
C1372 N1373 1.314 . S
C1372 C1374 1.353 . S
C1372 H1378 0.930 . S
N1373 Li1323 1.990 . S
N1373 C1372 1.314 . S
N1373 C1376 1.279 . S
C1374 C1372 1.353 . S
C1374 C1377 1.348 . S
C1374 H1406 0.929 . S
C1375 C1376 1.358 . S
C1375 C1377 1.356 . S
C1375 H1407 0.930 . S
C1376 N1373 1.279 . S
C1376 C1375 1.358 . S
C1376 H1379 0.930 . S
C1377 C1374 1.348 . S
C1377 C1375 1.356 . S
H1378 C1372 0.930 . S
H1379 C1376 0.930 . S
O1380 Li1320 1.956 . S
O1380 Li1321 1.970 . S
O1380 Li1322 1.961 . S
O1380 C1324 1.325 . S
O1381 Li1320 1.970 . S
O1381 Li1321 1.956 . S
O1381 Li1323 1.961 . S
O1381 C1330 1.325 . S
O1382 Li1320 1.961 . S
O1382 Li1322 1.956 . S
O1382 Li1323 1.970 . S
O1382 C1352 1.325 . S
O1383 Li1321 1.961 . S
O1383 Li1322 1.970 . S
O1383 Li1323 1.956 . S
O1383 C1358 1.325 . S
H1384 C1326 0.929 . S
H1385 C1327 0.930 . S
H1386 C1328 0.930 . S
H1387 C1329 0.930 . S
H1388 C1331 0.930 . S
H1389 C1333 0.929 . S
H1390 C1334 0.930 . S
H1391 C1335 0.930 . S
H1392 C1338 0.930 . S
H1393 C1341 0.929 . S
H1394 C1346 0.929 . S
H1395 C1347 0.930 . S
H1396 C1354 0.929 . S
H1397 C1355 0.930 . S
H1398 C1356 0.930 . S
H1399 C1357 0.930 . S
H1400 C1359 0.929 . S
H1401 C1360 0.930 . S
H1402 C1361 0.930 . S
H1403 C1362 0.930 . S
H1404 C1366 0.929 . S
H1405 C1368 0.930 . S
H1406 C1374 0.929 . S
H1407 C1375 0.930 . S
Li1408 N1425 1.990 . S
Li1408 O1468 1.956 1_545 S
Li1408 O1469 1.970 . S
Li1408 O1470 1.961 . S
Li1409 N1433 1.990 . S
Li1409 O1468 1.970 . S
Li1409 O1469 1.956 1_565 S
Li1409 O1471 1.961 1_565 S
Li1410 N1455 1.990 . S
Li1410 O1468 1.961 1_545 S
Li1410 O1470 1.956 . S
Li1410 O1471 1.970 . S
Li1411 N1461 1.990 . S
Li1411 O1469 1.961 . S
Li1411 O1470 1.970 . S
Li1411 O1471 1.956 . S
C1412 C1414 1.348 . S
C1412 C1415 1.356 . S
C1412 O1468 1.325 . S
N1413 C1416 1.314 . S
N1413 C1417 1.279 . S
C1414 C1412 1.348 . S
C1414 C1416 1.353 . S
C1414 H1472 0.929 . S
C1415 C1412 1.356 . S
C1415 C1417 1.358 . S
C1415 H1473 0.930 . S
C1416 N1413 1.314 . S
C1416 C1414 1.353 . S
C1416 H1474 0.930 . S
C1417 N1413 1.279 . S
C1417 C1415 1.358 . S
C1417 H1475 0.930 . S
C1418 C1421 1.348 . S
C1418 C1422 1.356 . S
C1418 O1469 1.325 . S
C1419 N1420 1.279 . S
C1419 C1422 1.358 . S
C1419 H1476 0.930 . S
N1420 C1419 1.279 . S
N1420 C1423 1.314 . S
C1421 C1418 1.348 . S
C1421 C1423 1.353 . S
C1421 H1477 0.929 . S
C1422 C1418 1.356 . S
C1422 C1419 1.358 . S
C1422 H1478 0.930 . S
C1423 N1420 1.314 . S
C1423 C1421 1.353 . S
C1423 H1479 0.930 . S
C1424 N1425 1.314 . S
C1424 C1429 1.353 . S
C1424 H1430 0.930 . S
N1425 Li1408 1.990 . S
N1425 C1424 1.314 . S
N1425 C1427 1.279 . S
C1426 C1427 1.358 . S
C1426 C1428 1.356 . S
C1426 H1480 0.930 1_545 S
C1427 N1425 1.279 . S
C1427 C1426 1.358 . S
C1427 H1431 0.930 1_545 S
C1428 C1426 1.356 . S
C1428 C1429 1.348 . S
C1429 C1424 1.353 . S
C1429 C1428 1.348 . S
C1429 H1481 0.929 . S
H1430 C1424 0.930 . S
H1431 C1427 0.930 1_565 S
C1432 N1433 1.314 . S
C1432 C1434 1.353 . S
C1432 H1438 0.930 . S
N1433 Li1409 1.990 . S
N1433 C1432 1.314 . S
N1433 C1436 1.279 . S
C1434 C1432 1.353 . S
C1434 C1437 1.348 . S
C1434 H1482 0.929 . S
C1435 C1436 1.358 . S
C1435 C1437 1.356 . S
C1435 H1483 0.930 . S
C1436 N1433 1.279 . S
C1436 C1435 1.358 . S
C1436 H1439 0.930 . S
C1437 C1434 1.348 . S
C1437 C1435 1.356 . S
H1438 C1432 0.930 . S
H1439 C1436 0.930 . S
C1440 C1442 1.348 . S
C1440 C1443 1.356 . S
C1440 O1470 1.325 . S
N1441 C1444 1.314 . S
N1441 C1445 1.279 . S
C1442 C1440 1.348 . S
C1442 C1444 1.353 . S
C1442 H1484 0.929 . S
C1443 C1440 1.356 . S
C1443 C1445 1.358 . S
C1443 H1485 0.930 . S
C1444 N1441 1.314 . S
C1444 C1442 1.353 . S
C1444 H1486 0.930 . S
C1445 N1441 1.279 . S
C1445 C1443 1.358 . S
C1445 H1487 0.930 . S
C1446 C1447 1.348 . S
C1446 C1448 1.353 1_545 S
C1446 O1471 1.325 . S
C1447 C1446 1.348 . S
C1447 C1449 1.353 . S
C1447 H1488 0.929 . S
C1448 C1446 1.353 1_565 S
C1448 C1450 1.355 . S
C1448 H1489 0.938 . S
C1449 C1447 1.353 . S
C1449 N1451 1.314 . S
C1449 H1490 0.930 . S
C1450 C1448 1.355 . S
C1450 N1451 1.279 1_565 S
C1450 H1491 0.930 . S
N1451 C1449 1.314 . S
N1451 C1450 1.279 1_545 S
C1452 C1454 1.353 . S
C1452 N1455 1.314 1_565 S
C1452 H1458 0.930 . S
C1453 N1455 1.279 . S
C1453 C1456 1.358 . S
C1453 H1459 0.930 . S
C1454 C1452 1.353 . S
C1454 C1457 1.348 1_565 S
C1454 H1492 0.929 . S
N1455 Li1410 1.990 . S
N1455 C1452 1.314 1_545 S
N1455 C1453 1.279 . S
C1456 C1453 1.358 . S
C1456 C1457 1.356 . S
C1456 H1493 0.930 . S
C1457 C1454 1.348 1_545 S
C1457 C1456 1.356 . S
H1458 C1452 0.930 . S
H1459 C1453 0.930 . S
C1460 N1461 1.314 . S
C1460 C1462 1.353 . S
C1460 H1466 0.930 . S
N1461 Li1411 1.990 . S
N1461 C1460 1.314 . S
N1461 C1464 1.279 . S
C1462 C1460 1.353 . S
C1462 C1465 1.348 . S
C1462 H1494 0.929 . S
C1463 C1464 1.358 . S
C1463 C1465 1.356 . S
C1463 H1495 0.930 . S
C1464 N1461 1.279 . S
C1464 C1463 1.358 . S
C1464 H1467 0.930 . S
C1465 C1462 1.348 . S
C1465 C1463 1.356 . S
H1466 C1460 0.930 . S
H1467 C1464 0.930 . S
O1468 Li1408 1.956 1_565 S
O1468 Li1409 1.970 . S
O1468 Li1410 1.961 1_565 S
O1468 C1412 1.325 . S
O1469 Li1408 1.970 . S
O1469 Li1409 1.956 1_545 S
O1469 Li1411 1.961 . S
O1469 C1418 1.325 . S
O1470 Li1408 1.961 . S
O1470 Li1410 1.956 . S
O1470 Li1411 1.970 . S
O1470 C1440 1.325 . S
O1471 Li1409 1.961 1_545 S
O1471 Li1410 1.970 . S
O1471 Li1411 1.956 . S
O1471 C1446 1.325 . S
H1472 C1414 0.929 . S
H1473 C1415 0.930 . S
H1474 C1416 0.930 . S
H1475 C1417 0.930 . S
H1476 C1419 0.930 . S
H1477 C1421 0.929 . S
H1478 C1422 0.930 . S
H1479 C1423 0.930 . S
H1480 C1426 0.930 1_565 S
H1481 C1429 0.929 . S
H1482 C1434 0.929 . S
H1483 C1435 0.930 . S
H1484 C1442 0.929 . S
H1485 C1443 0.930 . S
H1486 C1444 0.930 . S
H1487 C1445 0.930 . S
H1488 C1447 0.929 . S
H1489 C1448 0.938 . S
H1490 C1449 0.930 . S
H1491 C1450 0.930 . S
H1492 C1454 0.929 . S
H1493 C1456 0.930 . S
H1494 C1462 0.929 . S
H1495 C1463 0.930 . S
Li1496 N1513 1.990 . S
Li1496 O1556 1.956 . S
Li1496 O1557 1.970 . S
Li1496 O1558 1.961 . S
Li1497 N1521 1.990 . S
Li1497 O1556 1.970 . S
Li1497 O1557 1.956 . S
Li1497 O1559 1.961 . S
Li1498 N1543 1.990 . S
Li1498 O1556 1.961 . S
Li1498 O1558 1.956 . S
Li1498 O1559 1.970 . S
Li1499 N1549 1.990 . S
Li1499 O1557 1.961 . S
Li1499 O1558 1.970 . S
Li1499 O1559 1.956 . S
C1500 C1502 1.348 . S
C1500 C1503 1.356 . S
C1500 O1556 1.325 . S
N1501 C1504 1.314 . S
N1501 C1505 1.279 . S
C1502 C1500 1.348 . S
C1502 C1504 1.353 . S
C1502 H1560 0.929 . S
C1503 C1500 1.356 . S
C1503 C1505 1.358 . S
C1503 H1561 0.930 . S
C1504 N1501 1.314 . S
C1504 C1502 1.353 . S
C1504 H1562 0.930 . S
C1505 N1501 1.279 . S
C1505 C1503 1.358 . S
C1505 H1563 0.930 . S
C1506 C1509 1.348 . S
C1506 C1510 1.356 . S
C1506 O1557 1.325 . S
C1507 N1508 1.279 . S
C1507 C1510 1.358 . S
C1507 H1564 0.930 . S
N1508 C1507 1.279 . S
N1508 C1511 1.314 . S
C1509 C1506 1.348 . S
C1509 C1511 1.353 . S
C1509 H1565 0.929 . S
C1510 C1506 1.356 . S
C1510 C1507 1.358 . S
C1510 H1566 0.930 . S
C1511 N1508 1.314 . S
C1511 C1509 1.353 . S
C1511 H1567 0.930 . S
C1512 N1513 1.314 . S
C1512 C1517 1.353 . S
C1512 H1518 0.930 . S
N1513 Li1496 1.990 . S
N1513 C1512 1.314 . S
N1513 C1515 1.279 . S
C1514 C1515 1.358 . S
C1514 C1516 1.356 . S
C1514 H1568 0.930 . S
C1515 N1513 1.279 . S
C1515 C1514 1.358 . S
C1515 H1519 0.930 . S
C1516 C1514 1.356 . S
C1516 C1517 1.348 . S
C1517 C1512 1.353 . S
C1517 C1516 1.348 . S
C1517 H1569 0.929 . S
H1518 C1512 0.930 . S
H1519 C1515 0.930 . S
C1520 N1521 1.314 . S
C1520 C1522 1.353 . S
C1520 H1526 0.930 . S
N1521 Li1497 1.990 . S
N1521 C1520 1.314 . S
N1521 C1524 1.279 . S
C1522 C1520 1.353 . S
C1522 C1525 1.348 . S
C1522 H1570 0.929 . S
C1523 C1524 1.358 . S
C1523 C1525 1.356 . S
C1523 H1571 0.930 . S
C1524 N1521 1.279 . S
C1524 C1523 1.358 . S
C1524 H1527 0.930 . S
C1525 C1522 1.348 . S
C1525 C1523 1.356 . S
H1526 C1520 0.930 . S
H1527 C1524 0.930 . S
C1528 C1530 1.348 . S
C1528 C1531 1.356 . S
C1528 O1558 1.325 . S
N1529 C1532 1.314 . S
N1529 C1533 1.279 . S
C1530 C1528 1.348 . S
C1530 C1532 1.353 . S
C1530 H1572 0.929 . S
C1531 C1528 1.356 . S
C1531 C1533 1.358 . S
C1531 H1573 0.930 . S
C1532 N1529 1.314 . S
C1532 C1530 1.353 . S
C1532 H1574 0.930 . S
C1533 N1529 1.279 . S
C1533 C1531 1.358 . S
C1533 H1575 0.930 . S
C1534 C1535 1.348 . S
C1534 C1536 1.356 . S
C1534 O1559 1.325 . S
C1535 C1534 1.348 . S
C1535 C1537 1.353 . S
C1535 H1576 0.929 . S
C1536 C1534 1.356 . S
C1536 C1538 1.358 . S
C1536 H1577 0.930 . S
C1537 C1535 1.353 . S
C1537 N1539 1.314 . S
C1537 H1578 0.930 . S
C1538 C1536 1.358 . S
C1538 N1539 1.279 . S
C1538 H1579 0.930 . S
N1539 C1537 1.314 . S
N1539 C1538 1.279 . S
C1540 C1542 1.353 . S
C1540 N1543 1.314 . S
C1540 H1546 0.930 . S
C1541 N1543 1.279 . S
C1541 C1544 1.358 . S
C1541 H1547 0.930 . S
C1542 C1540 1.353 . S
C1542 C1545 1.348 . S
C1542 H1580 0.929 . S
N1543 Li1498 1.990 . S
N1543 C1540 1.314 . S
N1543 C1541 1.279 . S
C1544 C1541 1.358 . S
C1544 C1545 1.356 . S
C1544 H1581 0.930 . S
C1545 C1542 1.348 . S
C1545 C1544 1.356 . S
H1546 C1540 0.930 . S
H1547 C1541 0.930 . S
C1548 N1549 1.314 . S
C1548 C1550 1.353 . S
C1548 H1554 0.930 . S
N1549 Li1499 1.990 . S
N1549 C1548 1.314 . S
N1549 C1552 1.279 . S
C1550 C1548 1.353 . S
C1550 C1553 1.348 . S
C1550 H1582 0.929 . S
C1551 C1552 1.358 . S
C1551 C1553 1.356 . S
C1551 H1583 0.930 . S
C1552 N1549 1.279 . S
C1552 C1551 1.358 . S
C1552 H1555 0.930 . S
C1553 C1550 1.348 . S
C1553 C1551 1.356 . S
H1554 C1548 0.930 . S
H1555 C1552 0.930 . S
O1556 Li1496 1.956 . S
O1556 Li1497 1.970 . S
O1556 Li1498 1.961 . S
O1556 C1500 1.325 . S
O1557 Li1496 1.970 . S
O1557 Li1497 1.956 . S
O1557 Li1499 1.961 . S
O1557 C1506 1.325 . S
O1558 Li1496 1.961 . S
O1558 Li1498 1.956 . S
O1558 Li1499 1.970 . S
O1558 C1528 1.325 . S
O1559 Li1497 1.961 . S
O1559 Li1498 1.970 . S
O1559 Li1499 1.956 . S
O1559 C1534 1.325 . S
H1560 C1502 0.929 . S
H1561 C1503 0.930 . S
H1562 C1504 0.930 . S
H1563 C1505 0.930 . S
H1564 C1507 0.930 . S
H1565 C1509 0.929 . S
H1566 C1510 0.930 . S
H1567 C1511 0.930 . S
H1568 C1514 0.930 . S
H1569 C1517 0.929 . S
H1570 C1522 0.929 . S
H1571 C1523 0.930 . S
H1572 C1530 0.929 . S
H1573 C1531 0.930 . S
H1574 C1532 0.930 . S
H1575 C1533 0.930 . S
H1576 C1535 0.929 . S
H1577 C1536 0.930 . S
H1578 C1537 0.930 . S
H1579 C1538 0.930 . S
H1580 C1542 0.929 . S
H1581 C1544 0.930 . S
H1582 C1550 0.929 . S
H1583 C1551 0.930 . S
Li1584 N1601 1.990 . S
Li1584 O1644 1.956 . S
Li1584 O1645 1.970 . S
Li1584 O1646 1.961 . S
Li1585 N1609 1.990 . S
Li1585 O1644 1.970 . S
Li1585 O1645 1.956 . S
Li1585 O1647 1.961 . S
Li1586 N1631 1.990 . S
Li1586 O1644 1.961 . S
Li1586 O1646 1.956 . S
Li1586 O1647 1.970 . S
Li1587 N1637 1.990 . S
Li1587 O1645 1.961 . S
Li1587 O1646 1.970 . S
Li1587 O1647 1.956 . S
C1588 C1590 1.348 . S
C1588 C1591 1.356 . S
C1588 O1644 1.325 . S
N1589 C1592 1.314 . S
N1589 C1593 1.279 . S
C1590 C1588 1.348 . S
C1590 C1592 1.353 . S
C1590 H1648 0.929 . S
C1591 C1588 1.356 . S
C1591 C1593 1.358 . S
C1591 H1649 0.930 . S
C1592 N1589 1.314 . S
C1592 C1590 1.353 . S
C1592 H1650 0.930 . S
C1593 N1589 1.279 . S
C1593 C1591 1.358 . S
C1593 H1651 0.930 . S
C1594 C1597 1.348 . S
C1594 C1598 1.356 . S
C1594 O1645 1.325 . S
C1595 N1596 1.279 . S
C1595 C1598 1.358 . S
C1595 H1652 0.930 . S
N1596 C1595 1.279 . S
N1596 C1599 1.314 . S
C1597 C1594 1.348 . S
C1597 C1599 1.353 . S
C1597 H1653 0.929 . S
C1598 C1594 1.356 . S
C1598 C1595 1.358 . S
C1598 H1654 0.930 . S
C1599 N1596 1.314 . S
C1599 C1597 1.353 . S
C1599 H1655 0.930 . S
C1600 N1601 1.314 . S
C1600 C1605 1.353 . S
C1600 H1606 0.930 . S
N1601 Li1584 1.990 . S
N1601 C1600 1.314 . S
N1601 C1603 1.279 . S
C1602 C1603 1.358 . S
C1602 C1604 1.356 . S
C1602 H1656 0.930 . S
C1603 N1601 1.279 . S
C1603 C1602 1.358 . S
C1603 H1607 0.930 . S
C1604 C1602 1.356 . S
C1604 C1605 1.348 . S
C1605 C1600 1.353 . S
C1605 C1604 1.348 . S
C1605 H1657 0.929 . S
H1606 C1600 0.930 . S
H1607 C1603 0.930 . S
C1608 N1609 1.314 . S
C1608 C1610 1.353 . S
C1608 H1614 0.930 . S
N1609 Li1585 1.990 . S
N1609 C1608 1.314 . S
N1609 C1612 1.279 . S
C1610 C1608 1.353 . S
C1610 C1613 1.348 . S
C1610 H1658 0.929 . S
C1611 C1612 1.358 . S
C1611 C1613 1.356 . S
C1611 H1659 0.930 . S
C1612 N1609 1.279 . S
C1612 C1611 1.358 . S
C1612 H1615 0.930 . S
C1613 C1610 1.348 . S
C1613 C1611 1.356 . S
H1614 C1608 0.930 . S
H1615 C1612 0.930 . S
C1616 C1618 1.348 . S
C1616 C1619 1.356 . S
C1616 O1646 1.325 . S
N1617 C1620 1.314 . S
N1617 C1621 1.279 . S
C1618 C1616 1.348 . S
C1618 C1620 1.353 . S
C1618 H1660 0.929 . S
C1619 C1616 1.356 . S
C1619 C1621 1.358 . S
C1619 H1661 0.930 . S
C1620 N1617 1.314 . S
C1620 C1618 1.353 . S
C1620 H1662 0.930 . S
C1621 N1617 1.279 . S
C1621 C1619 1.358 . S
C1621 H1663 0.930 . S
C1622 C1623 1.348 . S
C1622 C1624 1.356 . S
C1622 O1647 1.325 . S
C1623 C1622 1.348 . S
C1623 C1625 1.353 . S
C1623 H1664 0.929 . S
C1624 C1622 1.356 . S
C1624 C1626 1.358 . S
C1624 H1665 0.930 . S
C1625 C1623 1.353 . S
C1625 N1627 1.314 . S
C1625 H1666 0.930 . S
C1626 C1624 1.358 . S
C1626 N1627 1.279 . S
C1626 H1667 0.930 . S
N1627 C1625 1.314 . S
N1627 C1626 1.279 . S
C1628 C1630 1.353 . S
C1628 N1631 1.314 . S
C1628 H1634 0.930 . S
C1629 N1631 1.279 . S
C1629 C1632 1.358 . S
C1629 H1635 0.930 . S
C1630 C1628 1.353 . S
C1630 C1633 1.348 . S
C1630 H1668 0.929 . S
N1631 Li1586 1.990 . S
N1631 C1628 1.314 . S
N1631 C1629 1.279 . S
C1632 C1629 1.358 . S
C1632 C1633 1.356 . S
C1632 H1669 0.930 . S
C1633 C1630 1.348 . S
C1633 C1632 1.356 . S
H1634 C1628 0.930 . S
H1635 C1629 0.930 . S
C1636 N1637 1.314 . S
C1636 C1638 1.353 . S
C1636 H1642 0.930 . S
N1637 Li1587 1.990 . S
N1637 C1636 1.314 . S
N1637 C1640 1.279 . S
C1638 C1636 1.353 . S
C1638 C1641 1.348 . S
C1638 H1670 0.929 . S
C1639 C1640 1.358 . S
C1639 C1641 1.356 . S
C1639 H1671 0.930 . S
C1640 N1637 1.279 . S
C1640 C1639 1.358 . S
C1640 H1643 0.930 . S
C1641 C1638 1.348 . S
C1641 C1639 1.356 . S
H1642 C1636 0.930 . S
H1643 C1640 0.930 . S
O1644 Li1584 1.956 . S
O1644 Li1585 1.970 . S
O1644 Li1586 1.961 . S
O1644 C1588 1.325 . S
O1645 Li1584 1.970 . S
O1645 Li1585 1.956 . S
O1645 Li1587 1.961 . S
O1645 C1594 1.325 . S
O1646 Li1584 1.961 . S
O1646 Li1586 1.956 . S
O1646 Li1587 1.970 . S
O1646 C1616 1.325 . S
O1647 Li1585 1.961 . S
O1647 Li1586 1.970 . S
O1647 Li1587 1.956 . S
O1647 C1622 1.325 . S
H1648 C1590 0.929 . S
H1649 C1591 0.930 . S
H1650 C1592 0.930 . S
H1651 C1593 0.930 . S
H1652 C1595 0.930 . S
H1653 C1597 0.929 . S
H1654 C1598 0.930 . S
H1655 C1599 0.930 . S
H1656 C1602 0.930 . S
H1657 C1605 0.929 . S
H1658 C1610 0.929 . S
H1659 C1611 0.930 . S
H1660 C1618 0.929 . S
H1661 C1619 0.930 . S
H1662 C1620 0.930 . S
H1663 C1621 0.930 . S
H1664 C1623 0.929 . S
H1665 C1624 0.930 . S
H1666 C1625 0.930 . S
H1667 C1626 0.930 . S
H1668 C1630 0.929 . S
H1669 C1632 0.930 . S
H1670 C1638 0.929 . S
H1671 C1639 0.930 . S
Li1672 N1689 1.990 . S
Li1672 O1732 1.956 . S
Li1672 O1733 1.970 . S
Li1672 O1734 1.961 1_545 S
Li1673 N1697 1.990 . S
Li1673 O1732 1.970 . S
Li1673 O1733 1.956 . S
Li1673 O1735 1.961 . S
Li1674 N1719 1.990 . S
Li1674 O1732 1.961 . S
Li1674 O1734 1.956 1_545 S
Li1674 O1735 1.970 . S
Li1675 N1725 1.990 . S
Li1675 O1733 1.961 1_565 S
Li1675 O1734 1.970 . S
Li1675 O1735 1.956 1_565 S
C1676 C1678 1.348 . S
C1676 C1679 1.356 . S
C1676 O1732 1.325 . S
N1677 C1680 1.314 . S
N1677 C1681 1.279 . S
C1678 C1676 1.348 . S
C1678 C1680 1.353 . S
C1678 H1736 0.929 . S
C1679 C1676 1.356 . S
C1679 C1681 1.358 . S
C1679 H1737 0.930 . S
C1680 N1677 1.314 . S
C1680 C1678 1.353 . S
C1680 H1738 0.930 . S
C1681 N1677 1.279 . S
C1681 C1679 1.358 . S
C1681 H1739 0.930 . S
C1682 C1685 1.348 . S
C1682 C1686 1.356 . S
C1682 O1733 1.325 . S
C1683 N1684 1.279 . S
C1683 C1686 1.358 . S
C1683 H1740 0.930 . S
N1684 C1683 1.279 . S
N1684 C1687 1.314 . S
C1685 C1682 1.348 . S
C1685 C1687 1.353 . S
C1685 H1741 0.929 . S
C1686 C1682 1.356 . S
C1686 C1683 1.358 . S
C1686 H1742 0.930 . S
C1687 N1684 1.314 . S
C1687 C1685 1.353 . S
C1687 H1743 0.930 . S
C1688 N1689 1.314 1_565 S
C1688 C1693 1.353 . S
C1688 H1694 0.930 . S
N1689 Li1672 1.990 . S
N1689 C1688 1.314 1_545 S
N1689 C1691 1.279 . S
C1690 C1691 1.358 . S
C1690 C1692 1.356 . S
C1690 H1744 0.930 . S
C1691 N1689 1.279 . S
C1691 C1690 1.358 . S
C1691 H1695 0.930 . S
C1692 C1690 1.356 . S
C1692 C1693 1.348 1_545 S
C1693 C1688 1.353 . S
C1693 C1692 1.348 1_565 S
C1693 H1745 0.929 . S
H1694 C1688 0.930 . S
H1695 C1691 0.930 . S
C1696 N1697 1.314 . S
C1696 C1698 1.353 . S
C1696 H1702 0.930 . S
N1697 Li1673 1.990 . S
N1697 C1696 1.314 . S
N1697 C1700 1.279 . S
C1698 C1696 1.353 . S
C1698 C1701 1.348 . S
C1698 H1746 0.929 . S
C1699 C1700 1.358 . S
C1699 C1701 1.356 . S
C1699 H1747 0.930 . S
C1700 N1697 1.279 . S
C1700 C1699 1.358 . S
C1700 H1703 0.930 . S
C1701 C1698 1.348 . S
C1701 C1699 1.356 . S
H1702 C1696 0.930 . S
H1703 C1700 0.930 . S
C1704 C1706 1.348 . S
C1704 C1707 1.356 . S
C1704 O1734 1.325 . S
N1705 C1708 1.314 . S
N1705 C1709 1.279 . S
C1706 C1704 1.348 . S
C1706 C1708 1.353 . S
C1706 H1748 0.929 . S
C1707 C1704 1.356 . S
C1707 C1709 1.358 . S
C1707 H1749 0.930 . S
C1708 N1705 1.314 . S
C1708 C1706 1.353 . S
C1708 H1750 0.930 . S
C1709 N1705 1.279 . S
C1709 C1707 1.358 . S
C1709 H1751 0.930 . S
C1710 C1711 1.348 . S
C1710 C1712 1.356 . S
C1710 O1735 1.325 . S
C1711 C1710 1.348 . S
C1711 C1713 1.353 . S
C1711 H1752 0.929 1_545 S
C1712 C1710 1.356 . S
C1712 C1714 1.358 . S
C1712 H1753 0.930 . S
C1713 C1711 1.353 . S
C1713 N1715 1.314 . S
C1713 H1754 0.928 1_545 S
C1714 C1712 1.358 . S
C1714 N1715 1.279 . S
C1714 H1755 0.930 . S
N1715 C1713 1.314 . S
N1715 C1714 1.279 . S
C1716 C1718 1.353 . S
C1716 N1719 1.314 . S
C1716 H1722 0.930 . S
C1717 N1719 1.279 1_565 S
C1717 C1720 1.358 . S
C1717 H1723 0.930 . S
C1718 C1716 1.353 . S
C1718 C1721 1.316 1_545 S
C1718 H1756 0.929 . S
N1719 Li1674 1.990 . S
N1719 C1716 1.314 . S
N1719 C1717 1.279 1_545 S
C1720 C1717 1.358 . S
C1720 C1721 1.392 . S
C1720 H1757 0.930 . S
C1721 C1718 1.316 1_565 S
C1721 C1720 1.392 . S
H1722 C1716 0.930 . S
H1723 C1717 0.930 . S
C1724 N1725 1.314 . S
C1724 C1726 1.353 . S
C1724 H1730 0.930 . S
N1725 Li1675 1.990 . S
N1725 C1724 1.314 . S
N1725 C1728 1.279 . S
C1726 C1724 1.353 . S
C1726 C1729 1.348 . S
C1726 H1758 0.929 . S
C1727 C1728 1.358 . S
C1727 C1729 1.356 . S
C1727 H1759 0.930 . S
C1728 N1725 1.279 . S
C1728 C1727 1.358 . S
C1728 H1731 0.930 . S
C1729 C1726 1.348 . S
C1729 C1727 1.356 . S
H1730 C1724 0.930 . S
H1731 C1728 0.930 . S
O1732 Li1672 1.956 . S
O1732 Li1673 1.970 . S
O1732 Li1674 1.961 . S
O1732 C1676 1.325 . S
O1733 Li1672 1.970 . S
O1733 Li1673 1.956 . S
O1733 Li1675 1.961 1_545 S
O1733 C1682 1.325 . S
O1734 Li1672 1.961 1_565 S
O1734 Li1674 1.956 1_565 S
O1734 Li1675 1.970 . S
O1734 C1704 1.325 . S
O1735 Li1673 1.961 . S
O1735 Li1674 1.970 . S
O1735 Li1675 1.956 1_545 S
O1735 C1710 1.325 . S
H1736 C1678 0.929 . S
H1737 C1679 0.930 . S
H1738 C1680 0.930 . S
H1739 C1681 0.930 . S
H1740 C1683 0.930 . S
H1741 C1685 0.929 . S
H1742 C1686 0.930 . S
H1743 C1687 0.930 . S
H1744 C1690 0.930 . S
H1745 C1693 0.929 . S
H1746 C1698 0.929 . S
H1747 C1699 0.930 . S
H1748 C1706 0.929 . S
H1749 C1707 0.930 . S
H1750 C1708 0.930 . S
H1751 C1709 0.930 . S
H1752 C1711 0.929 1_565 S
H1753 C1712 0.930 . S
H1754 C1713 0.928 1_565 S
H1755 C1714 0.930 . S
H1756 C1718 0.929 . S
H1757 C1720 0.930 . S
H1758 C1726 0.929 . S
H1759 C1727 0.930 . S
Li1760 N1777 1.990 . S
Li1760 O1820 1.956 . S
Li1760 O1821 1.970 . S
Li1760 O1822 1.961 . S
Li1761 N1785 1.990 . S
Li1761 O1820 1.970 . S
Li1761 O1821 1.956 . S
Li1761 O1823 1.961 1_554 S
Li1762 N1807 2.042 . S
Li1762 O1820 1.924 1_556 S
Li1762 O1822 1.910 1_556 S
Li1762 O1823 1.973 . S
Li1763 N1813 1.990 . S
Li1763 O1821 1.961 . S
Li1763 O1822 1.970 . S
Li1763 O1823 1.956 1_554 S
C1764 C1766 1.348 . S
C1764 C1767 1.356 . S
C1764 O1820 1.325 . S
N1765 C1768 1.314 . S
N1765 C1769 1.279 . S
C1766 C1764 1.348 . S
C1766 C1768 1.353 . S
C1766 H1824 0.929 . S
C1767 C1764 1.356 . S
C1767 C1769 1.358 . S
C1767 H1825 0.930 . S
C1768 N1765 1.314 . S
C1768 C1766 1.353 . S
C1768 H1826 0.930 . S
C1769 N1765 1.279 . S
C1769 C1767 1.358 . S
C1769 H1827 0.930 . S
C1770 C1773 1.348 . S
C1770 C1774 1.356 . S
C1770 O1821 1.325 . S
C1771 N1772 1.279 . S
C1771 C1774 1.358 . S
C1771 H1828 0.930 . S
N1772 C1771 1.279 . S
N1772 C1775 1.314 . S
C1773 C1770 1.348 . S
C1773 C1775 1.353 . S
C1773 H1829 0.929 . S
C1774 C1770 1.356 . S
C1774 C1771 1.358 . S
C1774 H1830 0.930 . S
C1775 N1772 1.314 . S
C1775 C1773 1.353 . S
C1775 H1831 0.930 . S
C1776 N1777 1.314 . S
C1776 C1781 1.353 . S
C1776 H1782 0.930 . S
N1777 Li1760 1.990 . S
N1777 C1776 1.314 . S
N1777 C1779 1.279 . S
C1778 C1779 1.358 . S
C1778 C1780 1.356 . S
C1778 H1832 0.930 . S
C1779 N1777 1.279 . S
C1779 C1778 1.358 . S
C1779 H1783 0.930 . S
C1780 C1778 1.356 . S
C1780 C1781 1.348 . S
C1781 C1776 1.353 . S
C1781 C1780 1.348 . S
C1781 H1833 0.929 . S
H1782 C1776 0.930 . S
H1783 C1779 0.930 . S
C1784 N1785 1.314 . S
C1784 C1786 1.353 . S
C1784 H1790 0.930 1_554 S
N1785 Li1761 1.990 . S
N1785 C1784 1.314 . S
N1785 C1788 1.279 . S
C1786 C1784 1.353 . S
C1786 C1789 1.348 . S
C1786 H1834 0.929 1_554 S
C1787 C1788 1.358 . S
C1787 C1789 1.356 . S
C1787 H1835 0.930 . S
C1788 N1785 1.279 . S
C1788 C1787 1.358 . S
C1788 H1791 0.930 . S
C1789 C1786 1.348 . S
C1789 C1787 1.356 . S
H1790 C1784 0.930 1_556 S
H1791 C1788 0.930 . S
C1792 C1794 1.348 . S
C1792 C1795 1.356 . S
C1792 O1822 1.325 . S
N1793 C1796 1.314 . S
N1793 C1797 1.279 . S
C1794 C1792 1.348 . S
C1794 C1796 1.353 . S
C1794 H1836 0.929 . S
C1795 C1792 1.356 . S
C1795 C1797 1.358 . S
C1795 H1837 0.930 . S
C1796 N1793 1.314 . S
C1796 C1794 1.353 . S
C1796 H1838 0.930 . S
C1797 N1793 1.279 . S
C1797 C1795 1.358 . S
C1797 H1839 0.930 . S
C1798 C1799 1.348 . S
C1798 C1800 1.356 . S
C1798 O1823 1.325 . S
C1799 C1798 1.348 . S
C1799 C1801 1.353 . S
C1799 H1840 0.929 . S
C1800 C1798 1.356 . S
C1800 C1802 1.358 . S
C1800 H1841 0.930 . S
C1801 C1799 1.353 . S
C1801 N1803 1.314 . S
C1801 H1842 0.930 . S
C1802 C1800 1.358 . S
C1802 N1803 1.279 . S
C1802 H1843 0.930 . S
N1803 C1801 1.314 . S
N1803 C1802 1.279 . S
C1804 C1806 1.353 . S
C1804 N1807 1.314 . S
C1804 H1810 0.930 . S
C1805 N1807 1.279 . S
C1805 C1808 1.358 . S
C1805 H1811 0.930 . S
C1806 C1804 1.353 . S
C1806 C1809 1.348 . S
C1806 H1844 0.929 . S
N1807 Li1762 2.042 . S
N1807 C1804 1.314 . S
N1807 C1805 1.279 . S
C1808 C1805 1.358 . S
C1808 C1809 1.356 . S
C1808 H1845 0.930 . S
C1809 C1806 1.348 . S
C1809 C1808 1.356 . S
H1810 C1804 0.930 . S
H1811 C1805 0.930 . S
C1812 N1813 1.314 . S
C1812 C1814 1.353 . S
C1812 H1818 0.930 . S
N1813 Li1763 1.990 . S
N1813 C1812 1.314 . S
N1813 C1816 1.279 1_554 S
C1814 C1812 1.353 . S
C1814 C1817 1.348 . S
C1814 H1846 0.929 . S
C1815 C1816 1.358 . S
C1815 C1817 1.356 1_556 S
C1815 H1847 0.930 . S
C1816 N1813 1.279 1_556 S
C1816 C1815 1.358 . S
C1816 H1819 0.930 . S
C1817 C1814 1.348 . S
C1817 C1815 1.356 1_554 S
H1818 C1812 0.930 . S
H1819 C1816 0.930 . S
O1820 Li1760 1.956 . S
O1820 Li1761 1.970 . S
O1820 Li1762 1.924 1_554 S
O1820 C1764 1.325 . S
O1821 Li1760 1.970 . S
O1821 Li1761 1.956 . S
O1821 Li1763 1.961 . S
O1821 C1770 1.325 . S
O1822 Li1760 1.961 . S
O1822 Li1762 1.910 1_554 S
O1822 Li1763 1.970 . S
O1822 C1792 1.325 . S
O1823 Li1761 1.961 1_556 S
O1823 Li1762 1.973 . S
O1823 Li1763 1.956 1_556 S
O1823 C1798 1.325 . S
H1824 C1766 0.929 . S
H1825 C1767 0.930 . S
H1826 C1768 0.930 . S
H1827 C1769 0.930 . S
H1828 C1771 0.930 . S
H1829 C1773 0.929 . S
H1830 C1774 0.930 . S
H1831 C1775 0.930 . S
H1832 C1778 0.930 . S
H1833 C1781 0.929 . S
H1834 C1786 0.929 1_556 S
H1835 C1787 0.930 . S
H1836 C1794 0.929 . S
H1837 C1795 0.930 . S
H1838 C1796 0.930 . S
H1839 C1797 0.930 . S
H1840 C1799 0.929 . S
H1841 C1800 0.930 . S
H1842 C1801 0.930 . S
H1843 C1802 0.930 . S
H1844 C1806 0.929 . S
H1845 C1808 0.930 . S
H1846 C1814 0.929 . S
H1847 C1815 0.930 . S
Li1848 N1865 1.990 . S
Li1848 O1908 1.956 . S
Li1848 O1909 1.970 . S
Li1848 O1910 1.961 . S
Li1849 N1873 1.990 . S
Li1849 O1908 1.970 . S
Li1849 O1909 1.956 . S
Li1849 O1911 1.961 . S
Li1850 N1895 1.990 . S
Li1850 O1908 1.961 . S
Li1850 O1910 1.956 . S
Li1850 O1911 1.970 . S
Li1851 N1901 1.990 . S
Li1851 O1909 1.961 . S
Li1851 O1910 1.970 . S
Li1851 O1911 1.956 . S
C1852 C1854 1.348 . S
C1852 C1855 1.356 . S
C1852 O1908 1.325 . S
N1853 C1856 1.314 . S
N1853 C1857 1.279 . S
C1854 C1852 1.348 . S
C1854 C1856 1.353 . S
C1854 H1912 0.929 . S
C1855 C1852 1.356 . S
C1855 C1857 1.358 . S
C1855 H1913 0.930 . S
C1856 N1853 1.314 . S
C1856 C1854 1.353 . S
C1856 H1914 0.930 . S
C1857 N1853 1.279 . S
C1857 C1855 1.358 . S
C1857 H1915 0.930 . S
C1858 C1861 1.348 . S
C1858 C1862 1.356 . S
C1858 O1909 1.325 . S
C1859 N1860 1.279 . S
C1859 C1862 1.358 . S
C1859 H1916 0.930 . S
N1860 C1859 1.279 . S
N1860 C1863 1.314 . S
C1861 C1858 1.348 . S
C1861 C1863 1.353 . S
C1861 H1917 0.929 . S
C1862 C1858 1.356 . S
C1862 C1859 1.358 . S
C1862 H1918 0.930 . S
C1863 N1860 1.314 . S
C1863 C1861 1.353 . S
C1863 H1919 0.930 . S
C1864 N1865 1.314 . S
C1864 C1869 1.353 . S
C1864 H1870 0.930 . S
N1865 Li1848 1.990 . S
N1865 C1864 1.314 . S
N1865 C1867 1.279 . S
C1866 C1867 1.358 . S
C1866 C1868 1.356 . S
C1866 H1920 0.930 . S
C1867 N1865 1.279 . S
C1867 C1866 1.358 . S
C1867 H1871 0.930 . S
C1868 C1866 1.356 . S
C1868 C1869 1.348 . S
C1869 C1864 1.353 . S
C1869 C1868 1.348 . S
C1869 H1921 0.929 . S
H1870 C1864 0.930 . S
H1871 C1867 0.930 . S
C1872 N1873 1.314 . S
C1872 C1874 1.353 . S
C1872 H1878 0.930 . S
N1873 Li1849 1.990 . S
N1873 C1872 1.314 . S
N1873 C1876 1.279 . S
C1874 C1872 1.353 . S
C1874 C1877 1.348 . S
C1874 H1922 0.929 . S
C1875 C1876 1.358 . S
C1875 C1877 1.356 . S
C1875 H1923 0.930 . S
C1876 N1873 1.279 . S
C1876 C1875 1.358 . S
C1876 H1879 0.930 . S
C1877 C1874 1.348 . S
C1877 C1875 1.356 . S
H1878 C1872 0.930 . S
H1879 C1876 0.930 . S
C1880 C1882 1.348 . S
C1880 C1883 1.356 . S
C1880 O1910 1.325 . S
N1881 C1884 1.314 . S
N1881 C1885 1.279 . S
C1882 C1880 1.348 . S
C1882 C1884 1.353 . S
C1882 H1924 0.929 . S
C1883 C1880 1.356 . S
C1883 C1885 1.358 . S
C1883 H1925 0.930 . S
C1884 N1881 1.314 . S
C1884 C1882 1.353 . S
C1884 H1926 0.930 . S
C1885 N1881 1.279 . S
C1885 C1883 1.358 . S
C1885 H1927 0.930 . S
C1886 C1887 1.348 . S
C1886 C1888 1.356 . S
C1886 O1911 1.325 . S
C1887 C1886 1.348 . S
C1887 C1889 1.353 . S
C1887 H1928 0.929 . S
C1888 C1886 1.356 . S
C1888 C1890 1.358 . S
C1888 H1929 0.930 . S
C1889 C1887 1.353 . S
C1889 N1891 1.314 . S
C1889 H1930 0.930 . S
C1890 C1888 1.358 . S
C1890 N1891 1.279 . S
C1890 H1931 0.930 . S
N1891 C1889 1.314 . S
N1891 C1890 1.279 . S
C1892 C1894 1.353 . S
C1892 N1895 1.314 . S
C1892 H1898 0.930 . S
C1893 N1895 1.279 . S
C1893 C1896 1.358 . S
C1893 H1899 0.930 . S
C1894 C1892 1.353 . S
C1894 C1897 1.348 . S
C1894 H1932 0.929 . S
N1895 Li1850 1.990 . S
N1895 C1892 1.314 . S
N1895 C1893 1.279 . S
C1896 C1893 1.358 . S
C1896 C1897 1.356 . S
C1896 H1933 0.930 . S
C1897 C1894 1.348 . S
C1897 C1896 1.356 . S
H1898 C1892 0.930 . S
H1899 C1893 0.930 . S
C1900 N1901 1.314 . S
C1900 C1902 1.353 . S
C1900 H1906 0.930 . S
N1901 Li1851 1.990 . S
N1901 C1900 1.314 . S
N1901 C1904 1.279 . S
C1902 C1900 1.353 . S
C1902 C1905 1.348 . S
C1902 H1934 0.929 . S
C1903 C1904 1.358 . S
C1903 C1905 1.356 . S
C1903 H1935 0.930 . S
C1904 N1901 1.279 . S
C1904 C1903 1.358 . S
C1904 H1907 0.930 . S
C1905 C1902 1.348 . S
C1905 C1903 1.356 . S
H1906 C1900 0.930 . S
H1907 C1904 0.930 . S
O1908 Li1848 1.956 . S
O1908 Li1849 1.970 . S
O1908 Li1850 1.961 . S
O1908 C1852 1.325 . S
O1909 Li1848 1.970 . S
O1909 Li1849 1.956 . S
O1909 Li1851 1.961 . S
O1909 C1858 1.325 . S
O1910 Li1848 1.961 . S
O1910 Li1850 1.956 . S
O1910 Li1851 1.970 . S
O1910 C1880 1.325 . S
O1911 Li1849 1.961 . S
O1911 Li1850 1.970 . S
O1911 Li1851 1.956 . S
O1911 C1886 1.325 . S
H1912 C1854 0.929 . S
H1913 C1855 0.930 . S
H1914 C1856 0.930 . S
H1915 C1857 0.930 . S
H1916 C1859 0.930 . S
H1917 C1861 0.929 . S
H1918 C1862 0.930 . S
H1919 C1863 0.930 . S
H1920 C1866 0.930 . S
H1921 C1869 0.929 . S
H1922 C1874 0.929 . S
H1923 C1875 0.930 . S
H1924 C1882 0.929 . S
H1925 C1883 0.930 . S
H1926 C1884 0.930 . S
H1927 C1885 0.930 . S
H1928 C1887 0.929 . S
H1929 C1888 0.930 . S
H1930 C1889 0.930 . S
H1931 C1890 0.930 . S
H1932 C1894 0.929 . S
H1933 C1896 0.930 . S
H1934 C1902 0.929 . S
H1935 C1903 0.930 . S
Li1936 N1953 1.990 . S
Li1936 O1996 1.956 . S
Li1936 O1997 1.970 . S
Li1936 O1998 1.961 . S
Li1937 N1961 1.990 . S
Li1937 O1996 1.970 . S
Li1937 O1997 1.956 . S
Li1937 O1999 1.961 . S
Li1938 N1983 1.990 . S
Li1938 O1996 1.961 . S
Li1938 O1998 1.956 . S
Li1938 O1999 1.970 . S
Li1939 N1989 1.990 . S
Li1939 O1997 1.961 . S
Li1939 O1998 1.970 . S
Li1939 O1999 1.956 . S
C1940 C1942 1.348 . S
C1940 C1943 1.356 . S
C1940 O1996 1.325 . S
N1941 C1944 1.314 . S
N1941 C1945 1.279 . S
C1942 C1940 1.348 . S
C1942 C1944 1.353 . S
C1942 H2000 0.929 . S
C1943 C1940 1.356 . S
C1943 C1945 1.358 . S
C1943 H2001 0.930 . S
C1944 N1941 1.314 . S
C1944 C1942 1.353 . S
C1944 H2002 0.930 . S
C1945 N1941 1.279 . S
C1945 C1943 1.358 . S
C1945 H2003 0.930 . S
C1946 C1949 1.348 . S
C1946 C1950 1.356 . S
C1946 O1997 1.325 . S
C1947 N1948 1.279 . S
C1947 C1950 1.358 . S
C1947 H2004 0.930 . S
N1948 C1947 1.279 . S
N1948 C1951 1.314 . S
C1949 C1946 1.348 . S
C1949 C1951 1.353 . S
C1949 H2005 0.929 . S
C1950 C1946 1.356 . S
C1950 C1947 1.358 . S
C1950 H2006 0.930 . S
C1951 N1948 1.314 . S
C1951 C1949 1.353 . S
C1951 H2007 0.930 . S
C1952 N1953 1.314 . S
C1952 C1957 1.353 . S
C1952 H1958 0.930 . S
N1953 Li1936 1.990 . S
N1953 C1952 1.314 . S
N1953 C1955 1.279 . S
C1954 C1955 1.358 . S
C1954 C1956 1.356 . S
C1954 H2008 0.930 . S
C1955 N1953 1.279 . S
C1955 C1954 1.358 . S
C1955 H1959 0.930 . S
C1956 C1954 1.356 . S
C1956 C1957 1.348 . S
C1957 C1952 1.353 . S
C1957 C1956 1.348 . S
C1957 H2009 0.929 . S
H1958 C1952 0.930 . S
H1959 C1955 0.930 . S
C1960 N1961 1.314 . S
C1960 C1962 1.353 . S
C1960 H1966 0.930 . S
N1961 Li1937 1.990 . S
N1961 C1960 1.314 . S
N1961 C1964 1.279 . S
C1962 C1960 1.353 . S
C1962 C1965 1.348 . S
C1962 H2010 0.929 . S
C1963 C1964 1.358 . S
C1963 C1965 1.356 . S
C1963 H2011 0.930 . S
C1964 N1961 1.279 . S
C1964 C1963 1.358 . S
C1964 H1967 0.930 . S
C1965 C1962 1.348 . S
C1965 C1963 1.356 . S
H1966 C1960 0.930 . S
H1967 C1964 0.930 . S
C1968 C1970 1.348 . S
C1968 C1971 1.356 . S
C1968 O1998 1.325 . S
N1969 C1972 1.314 . S
N1969 C1973 1.279 . S
C1970 C1968 1.348 . S
C1970 C1972 1.353 . S
C1970 H2012 0.929 . S
C1971 C1968 1.356 . S
C1971 C1973 1.358 . S
C1971 H2013 0.930 . S
C1972 N1969 1.314 . S
C1972 C1970 1.353 . S
C1972 H2014 0.930 . S
C1973 N1969 1.279 . S
C1973 C1971 1.358 . S
C1973 H2015 0.930 . S
C1974 C1975 1.348 . S
C1974 C1976 1.356 . S
C1974 O1999 1.325 . S
C1975 C1974 1.348 . S
C1975 C1977 1.353 . S
C1975 H2016 0.929 . S
C1976 C1974 1.356 . S
C1976 C1978 1.358 . S
C1976 H2017 0.930 . S
C1977 C1975 1.353 . S
C1977 N1979 1.314 . S
C1977 H2018 0.930 . S
C1978 C1976 1.358 . S
C1978 N1979 1.279 . S
C1978 H2019 0.930 . S
N1979 C1977 1.314 . S
N1979 C1978 1.279 . S
C1980 C1982 1.353 . S
C1980 N1983 1.314 . S
C1980 H1986 0.930 . S
C1981 N1983 1.279 . S
C1981 C1984 1.358 . S
C1981 H1987 0.930 . S
C1982 C1980 1.353 . S
C1982 C1985 1.348 . S
C1982 H2020 0.929 . S
N1983 Li1938 1.990 . S
N1983 C1980 1.314 . S
N1983 C1981 1.279 . S
C1984 C1981 1.358 . S
C1984 C1985 1.356 . S
C1984 H2021 0.930 . S
C1985 C1982 1.348 . S
C1985 C1984 1.356 . S
H1986 C1980 0.930 . S
H1987 C1981 0.930 . S
C1988 N1989 1.314 . S
C1988 C1990 1.353 . S
C1988 H1994 0.930 . S
N1989 Li1939 1.990 . S
N1989 C1988 1.314 . S
N1989 C1992 1.279 . S
C1990 C1988 1.353 . S
C1990 C1993 1.348 . S
C1990 H2022 0.929 . S
C1991 C1992 1.358 . S
C1991 C1993 1.356 . S
C1991 H2023 0.930 . S
C1992 N1989 1.279 . S
C1992 C1991 1.358 . S
C1992 H1995 0.930 . S
C1993 C1990 1.348 . S
C1993 C1991 1.356 . S
H1994 C1988 0.930 . S
H1995 C1992 0.930 . S
O1996 Li1936 1.956 . S
O1996 Li1937 1.970 . S
O1996 Li1938 1.961 . S
O1996 C1940 1.325 . S
O1997 Li1936 1.970 . S
O1997 Li1937 1.956 . S
O1997 Li1939 1.961 . S
O1997 C1946 1.325 . S
O1998 Li1936 1.961 . S
O1998 Li1938 1.956 . S
O1998 Li1939 1.970 . S
O1998 C1968 1.325 . S
O1999 Li1937 1.961 . S
O1999 Li1938 1.970 . S
O1999 Li1939 1.956 . S
O1999 C1974 1.325 . S
H2000 C1942 0.929 . S
H2001 C1943 0.930 . S
H2002 C1944 0.930 . S
H2003 C1945 0.930 . S
H2004 C1947 0.930 . S
H2005 C1949 0.929 . S
H2006 C1950 0.930 . S
H2007 C1951 0.930 . S
H2008 C1954 0.930 . S
H2009 C1957 0.929 . S
H2010 C1962 0.929 . S
H2011 C1963 0.930 . S
H2012 C1970 0.929 . S
H2013 C1971 0.930 . S
H2014 C1972 0.930 . S
H2015 C1973 0.930 . S
H2016 C1975 0.929 . S
H2017 C1976 0.930 . S
H2018 C1977 0.930 . S
H2019 C1978 0.930 . S
H2020 C1982 0.929 . S
H2021 C1984 0.930 . S
H2022 C1990 0.929 . S
H2023 C1991 0.930 . S
Li2024 N2041 1.990 . S
Li2024 O2084 1.956 . S
Li2024 O2085 1.970 . S
Li2024 O2086 1.961 . S
Li2025 N2049 1.990 . S
Li2025 O2084 1.970 . S
Li2025 O2085 1.956 . S
Li2025 O2087 1.961 . S
Li2026 N2071 1.990 . S
Li2026 O2084 1.961 . S
Li2026 O2086 1.956 . S
Li2026 O2087 1.970 . S
Li2027 N2077 1.990 . S
Li2027 O2085 1.961 . S
Li2027 O2086 1.970 . S
Li2027 O2087 1.956 . S
C2028 C2030 1.348 . S
C2028 C2031 1.356 . S
C2028 O2084 1.325 . S
N2029 C2032 1.314 . S
N2029 C2033 1.279 . S
C2030 C2028 1.348 . S
C2030 C2032 1.353 . S
C2030 H2088 0.929 . S
C2031 C2028 1.356 . S
C2031 C2033 1.358 . S
C2031 H2089 0.930 . S
C2032 N2029 1.314 . S
C2032 C2030 1.353 . S
C2032 H2090 0.930 . S
C2033 N2029 1.279 . S
C2033 C2031 1.358 . S
C2033 H2091 0.930 . S
C2034 C2037 1.348 . S
C2034 C2038 1.356 . S
C2034 O2085 1.325 . S
C2035 N2036 1.279 . S
C2035 C2038 1.358 . S
C2035 H2092 0.930 . S
N2036 C2035 1.279 . S
N2036 C2039 1.314 . S
C2037 C2034 1.348 . S
C2037 C2039 1.353 . S
C2037 H2093 0.929 . S
C2038 C2034 1.356 . S
C2038 C2035 1.358 . S
C2038 H2094 0.930 . S
C2039 N2036 1.314 . S
C2039 C2037 1.353 . S
C2039 H2095 0.930 . S
C2040 N2041 1.314 . S
C2040 C2045 1.353 . S
C2040 H2046 0.930 . S
N2041 Li2024 1.990 . S
N2041 C2040 1.314 . S
N2041 C2043 1.279 . S
C2042 C2043 1.358 . S
C2042 C2044 1.356 . S
C2042 H2096 0.930 . S
C2043 N2041 1.279 . S
C2043 C2042 1.358 . S
C2043 H2047 0.930 . S
C2044 C2042 1.356 . S
C2044 C2045 1.348 . S
C2045 C2040 1.353 . S
C2045 C2044 1.348 . S
C2045 H2097 0.929 . S
H2046 C2040 0.930 . S
H2047 C2043 0.930 . S
C2048 N2049 1.314 . S
C2048 C2050 1.353 . S
C2048 H2054 0.930 . S
N2049 Li2025 1.990 . S
N2049 C2048 1.314 . S
N2049 C2052 1.279 . S
C2050 C2048 1.353 . S
C2050 C2053 1.348 . S
C2050 H2098 0.929 . S
C2051 C2052 1.358 . S
C2051 C2053 1.356 . S
C2051 H2099 0.930 . S
C2052 N2049 1.279 . S
C2052 C2051 1.358 . S
C2052 H2055 0.930 . S
C2053 C2050 1.348 . S
C2053 C2051 1.356 . S
H2054 C2048 0.930 . S
H2055 C2052 0.930 . S
C2056 C2058 1.348 . S
C2056 C2059 1.356 . S
C2056 O2086 1.325 . S
N2057 C2060 1.314 . S
N2057 C2061 1.279 . S
C2058 C2056 1.348 . S
C2058 C2060 1.353 . S
C2058 H2100 0.929 . S
C2059 C2056 1.356 . S
C2059 C2061 1.358 . S
C2059 H2101 0.930 . S
C2060 N2057 1.314 . S
C2060 C2058 1.353 . S
C2060 H2102 0.930 . S
C2061 N2057 1.279 . S
C2061 C2059 1.358 . S
C2061 H2103 0.930 . S
C2062 C2063 1.348 . S
C2062 C2064 1.356 . S
C2062 O2087 1.325 . S
C2063 C2062 1.348 . S
C2063 C2065 1.353 . S
C2063 H2104 0.929 . S
C2064 C2062 1.356 . S
C2064 C2066 1.358 . S
C2064 H2105 0.930 . S
C2065 C2063 1.353 . S
C2065 N2067 1.314 . S
C2065 H2106 0.930 . S
C2066 C2064 1.358 . S
C2066 N2067 1.279 . S
C2066 H2107 0.930 . S
N2067 C2065 1.314 . S
N2067 C2066 1.279 . S
C2068 C2070 1.353 . S
C2068 N2071 1.314 . S
C2068 H2074 0.930 . S
C2069 N2071 1.279 . S
C2069 C2072 1.358 . S
C2069 H2075 0.930 . S
C2070 C2068 1.353 . S
C2070 C2073 1.348 . S
C2070 H2108 0.929 . S
N2071 Li2026 1.990 . S
N2071 C2068 1.314 . S
N2071 C2069 1.279 . S
C2072 C2069 1.358 . S
C2072 C2073 1.356 . S
C2072 H2109 0.930 . S
C2073 C2070 1.348 . S
C2073 C2072 1.356 . S
H2074 C2068 0.930 . S
H2075 C2069 0.930 . S
C2076 N2077 1.314 . S
C2076 C2078 1.353 . S
C2076 H2082 0.930 . S
N2077 Li2027 1.990 . S
N2077 C2076 1.314 . S
N2077 C2080 1.279 . S
C2078 C2076 1.353 . S
C2078 C2081 1.348 . S
C2078 H2110 0.929 . S
C2079 C2080 1.358 . S
C2079 C2081 1.356 . S
C2079 H2111 0.930 . S
C2080 N2077 1.279 . S
C2080 C2079 1.358 . S
C2080 H2083 0.930 . S
C2081 C2078 1.348 . S
C2081 C2079 1.356 . S
H2082 C2076 0.930 . S
H2083 C2080 0.930 . S
O2084 Li2024 1.956 . S
O2084 Li2025 1.970 . S
O2084 Li2026 1.961 . S
O2084 C2028 1.325 . S
O2085 Li2024 1.970 . S
O2085 Li2025 1.956 . S
O2085 Li2027 1.961 . S
O2085 C2034 1.325 . S
O2086 Li2024 1.961 . S
O2086 Li2026 1.956 . S
O2086 Li2027 1.970 . S
O2086 C2056 1.325 . S
O2087 Li2025 1.961 . S
O2087 Li2026 1.970 . S
O2087 Li2027 1.956 . S
O2087 C2062 1.325 . S
H2088 C2030 0.929 . S
H2089 C2031 0.930 . S
H2090 C2032 0.930 . S
H2091 C2033 0.930 . S
H2092 C2035 0.930 . S
H2093 C2037 0.929 . S
H2094 C2038 0.930 . S
H2095 C2039 0.930 . S
H2096 C2042 0.930 . S
H2097 C2045 0.929 . S
H2098 C2050 0.929 . S
H2099 C2051 0.930 . S
H2100 C2058 0.929 . S
H2101 C2059 0.930 . S
H2102 C2060 0.930 . S
H2103 C2061 0.930 . S
H2104 C2063 0.929 . S
H2105 C2064 0.930 . S
H2106 C2065 0.930 . S
H2107 C2066 0.930 . S
H2108 C2070 0.929 . S
H2109 C2072 0.930 . S
H2110 C2078 0.929 . S
H2111 C2079 0.930 . S
Tb2112 C2114 2.811 1_455 S
Tb2112 O2132 2.484 1_455 S
Tb2112 O2133 2.440 1_454 S
Tb2112 O2134 2.658 1_554 S
Tb2112 O2135 2.409 1_554 S
Tb2112 O2136 2.378 . S
Tb2112 O2140 2.325 . S
Tb2112 O2143 2.341 1_545 S
Tb2113 C2123 2.809 1_545 S
Tb2113 O2134 2.325 1_554 S
Tb2113 O2137 2.341 . S
Tb2113 O2138 2.484 1_545 S
Tb2113 O2139 2.440 . S
Tb2113 O2140 2.658 . S
Tb2113 O2141 2.409 . S
Tb2113 O2142 2.378 1_545 S
C2114 Tb2112 2.811 1_655 S
C2114 C2115 1.511 1_554 S
C2114 O2132 1.263 . S
C2114 O2133 1.253 1_554 S
C2115 C2114 1.511 1_556 S
C2115 C2116 1.359 1_556 S
C2115 C2120 1.348 . S
C2116 C2115 1.359 1_554 S
C2116 C2117 1.380 . S
C2116 H2144 0.929 . S
C2117 C2116 1.380 . S
C2117 C2118 1.347 1_554 S
C2117 H2145 0.931 . S
C2118 C2117 1.347 1_556 S
C2118 C2119 1.369 . S
C2119 C2118 1.369 . S
C2119 C2120 1.408 . S
C2119 H2146 0.930 . S
C2120 C2115 1.348 . S
C2120 C2119 1.408 . S
C2120 H2147 0.930 . S
C2121 O2134 1.281 . S
C2121 O2135 1.254 . S
C2122 O2136 1.236 . S
C2122 O2137 1.266 . S
C2123 Tb2113 2.809 1_565 S
C2123 C2124 1.514 . S
C2123 O2138 1.248 . S
C2123 O2139 1.266 1_565 S
C2124 C2123 1.514 . S
C2124 C2125 1.359 . S
C2124 C2129 1.348 . S
C2125 C2124 1.359 . S
C2125 C2126 1.380 . S
C2125 H2148 0.929 . S
C2126 C2125 1.380 . S
C2126 C2127 1.347 . S
C2126 H2149 0.931 . S
C2127 C2126 1.347 . S
C2127 C2128 1.369 . S
C2128 C2127 1.369 . S
C2128 C2129 1.408 . S
C2128 H2150 0.930 . S
C2129 C2124 1.348 . S
C2129 C2128 1.408 . S
C2129 H2151 0.930 . S
C2130 O2140 1.281 . S
C2130 O2141 1.254 . S
C2131 O2142 1.236 . S
C2131 O2143 1.266 . S
O2132 Tb2112 2.484 1_655 S
O2132 C2114 1.263 . S
O2133 Tb2112 2.440 1_656 S
O2133 C2114 1.253 1_556 S
O2134 Tb2112 2.658 1_556 S
O2134 Tb2113 2.325 1_556 S
O2134 C2121 1.281 . S
O2135 Tb2112 2.409 1_556 S
O2135 C2121 1.254 . S
O2136 Tb2112 2.378 . S
O2136 C2122 1.236 . S
O2137 Tb2113 2.341 . S
O2137 C2122 1.266 . S
O2138 Tb2113 2.484 1_565 S
O2138 C2123 1.248 . S
O2139 Tb2113 2.440 . S
O2139 C2123 1.266 1_545 S
O2140 Tb2112 2.325 . S
O2140 Tb2113 2.658 . S
O2140 C2130 1.281 . S
O2141 Tb2113 2.409 . S
O2141 C2130 1.254 . S
O2142 Tb2113 2.378 1_565 S
O2142 C2131 1.236 . S
O2143 Tb2112 2.341 1_565 S
O2143 C2131 1.266 . S
H2144 C2116 0.929 . S
H2145 C2117 0.931 . S
H2146 C2119 0.930 . S
H2147 C2120 0.930 . S
H2148 C2125 0.929 . S
H2149 C2126 0.931 . S
H2150 C2128 0.930 . S
H2151 C2129 0.930 . S
Tb2152 C2154 2.809 . S
Tb2152 O2172 2.484 . S
Tb2152 O2173 2.440 . S
Tb2152 O2174 2.658 . S
Tb2152 O2175 2.409 . S
Tb2152 O2176 2.378 . S
Tb2152 O2180 2.325 . S
Tb2152 O2183 2.341 . S
Tb2153 C2163 2.809 . S
Tb2153 O2174 2.325 . S
Tb2153 O2177 2.341 . S
Tb2153 O2178 2.484 . S
Tb2153 O2179 2.440 . S
Tb2153 O2180 2.658 . S
Tb2153 O2181 2.409 . S
Tb2153 O2182 2.378 . S
C2154 Tb2152 2.809 . S
C2154 C2155 1.514 . S
C2154 O2172 1.248 . S
C2154 O2173 1.266 . S
C2155 C2154 1.514 . S
C2155 C2156 1.359 . S
C2155 C2160 1.348 . S
C2156 C2155 1.359 . S
C2156 C2157 1.380 . S
C2156 H2184 0.929 . S
C2157 C2156 1.380 . S
C2157 C2158 1.347 . S
C2157 H2185 0.931 . S
C2158 C2157 1.347 . S
C2158 C2159 1.369 . S
C2159 C2158 1.369 . S
C2159 C2160 1.408 . S
C2159 H2186 0.930 . S
C2160 C2155 1.348 . S
C2160 C2159 1.408 . S
C2160 H2187 0.930 . S
C2161 O2174 1.281 . S
C2161 O2175 1.254 . S
C2162 O2176 1.236 . S
C2162 O2177 1.266 . S
C2163 Tb2153 2.809 . S
C2163 C2164 1.514 . S
C2163 O2178 1.248 . S
C2163 O2179 1.266 . S
C2164 C2163 1.514 . S
C2164 C2165 1.359 . S
C2164 C2169 1.348 . S
C2165 C2164 1.359 . S
C2165 C2166 1.380 . S
C2165 H2188 0.929 . S
C2166 C2165 1.380 . S
C2166 C2167 1.347 . S
C2166 H2189 0.931 . S
C2167 C2166 1.347 . S
C2167 C2168 1.369 . S
C2168 C2167 1.369 . S
C2168 C2169 1.408 . S
C2168 H2190 0.930 . S
C2169 C2164 1.348 . S
C2169 C2168 1.408 . S
C2169 H2191 0.930 . S
C2170 O2180 1.281 . S
C2170 O2181 1.254 . S
C2171 O2182 1.236 . S
C2171 O2183 1.266 . S
O2172 Tb2152 2.484 . S
O2172 C2154 1.248 . S
O2173 Tb2152 2.440 . S
O2173 C2154 1.266 . S
O2174 Tb2152 2.658 . S
O2174 Tb2153 2.325 . S
O2174 C2161 1.281 . S
O2175 Tb2152 2.409 . S
O2175 C2161 1.254 . S
O2176 Tb2152 2.378 . S
O2176 C2162 1.236 . S
O2177 Tb2153 2.341 . S
O2177 C2162 1.266 . S
O2178 Tb2153 2.484 . S
O2178 C2163 1.248 . S
O2179 Tb2153 2.440 . S
O2179 C2163 1.266 . S
O2180 Tb2152 2.325 . S
O2180 Tb2153 2.658 . S
O2180 C2170 1.281 . S
O2181 Tb2153 2.409 . S
O2181 C2170 1.254 . S
O2182 Tb2153 2.378 . S
O2182 C2171 1.236 . S
O2183 Tb2152 2.341 . S
O2183 C2171 1.266 . S
H2184 C2156 0.929 . S
H2185 C2157 0.931 . S
H2186 C2159 0.930 . S
H2187 C2160 0.930 . S
H2188 C2165 0.929 . S
H2189 C2166 0.931 . S
H2190 C2168 0.930 . S
H2191 C2169 0.930 . S
Tb2192 C2194 2.809 1_545 S
Tb2192 O2212 2.484 1_545 S
Tb2192 O2213 2.440 . S
Tb2192 O2214 2.658 . S
Tb2192 O2215 2.409 . S
Tb2192 O2216 2.378 1_545 S
Tb2192 O2220 2.325 . S
Tb2192 O2223 2.341 . S
Tb2193 C2203 2.809 . S
Tb2193 O2214 2.325 . S
Tb2193 O2217 2.341 1_545 S
Tb2193 O2218 2.484 . S
Tb2193 O2219 2.440 . S
Tb2193 O2220 2.658 . S
Tb2193 O2221 2.409 . S
Tb2193 O2222 2.378 . S
C2194 Tb2192 2.809 1_565 S
C2194 C2195 1.514 . S
C2194 O2212 1.248 . S
C2194 O2213 1.266 1_565 S
C2195 C2194 1.514 . S
C2195 C2196 1.359 . S
C2195 C2200 1.348 . S
C2196 C2195 1.359 . S
C2196 C2197 1.380 . S
C2196 H2224 0.929 . S
C2197 C2196 1.380 . S
C2197 C2198 1.347 . S
C2197 H2225 0.931 . S
C2198 C2197 1.347 . S
C2198 C2199 1.369 . S
C2199 C2198 1.369 . S
C2199 C2200 1.408 . S
C2199 H2226 0.930 . S
C2200 C2195 1.348 . S
C2200 C2199 1.408 . S
C2200 H2227 0.930 . S
C2201 O2214 1.281 . S
C2201 O2215 1.254 . S
C2202 O2216 1.236 . S
C2202 O2217 1.266 . S
C2203 Tb2193 2.809 . S
C2203 C2204 1.514 . S
C2203 O2218 1.248 . S
C2203 O2219 1.266 . S
C2204 C2203 1.514 . S
C2204 C2205 1.359 . S
C2204 C2209 1.348 . S
C2205 C2204 1.359 . S
C2205 C2206 1.380 . S
C2205 H2228 0.929 . S
C2206 C2205 1.380 . S
C2206 C2207 1.347 . S
C2206 H2229 0.931 . S
C2207 C2206 1.347 . S
C2207 C2208 1.369 . S
C2208 C2207 1.369 . S
C2208 C2209 1.408 . S
C2208 H2230 0.930 . S
C2209 C2204 1.348 . S
C2209 C2208 1.408 . S
C2209 H2231 0.930 . S
C2210 O2220 1.281 . S
C2210 O2221 1.254 . S
C2211 O2222 1.236 . S
C2211 O2223 1.266 . S
O2212 Tb2192 2.484 1_565 S
O2212 C2194 1.248 . S
O2213 Tb2192 2.440 . S
O2213 C2194 1.266 1_545 S
O2214 Tb2192 2.658 . S
O2214 Tb2193 2.325 . S
O2214 C2201 1.281 . S
O2215 Tb2192 2.409 . S
O2215 C2201 1.254 . S
O2216 Tb2192 2.378 1_565 S
O2216 C2202 1.236 . S
O2217 Tb2193 2.341 1_565 S
O2217 C2202 1.266 . S
O2218 Tb2193 2.484 . S
O2218 C2203 1.248 . S
O2219 Tb2193 2.440 . S
O2219 C2203 1.266 . S
O2220 Tb2192 2.325 . S
O2220 Tb2193 2.658 . S
O2220 C2210 1.281 . S
O2221 Tb2193 2.409 . S
O2221 C2210 1.254 . S
O2222 Tb2193 2.378 . S
O2222 C2211 1.236 . S
O2223 Tb2192 2.341 . S
O2223 C2211 1.266 . S
H2224 C2196 0.929 . S
H2225 C2197 0.931 . S
H2226 C2199 0.930 . S
H2227 C2200 0.930 . S
H2228 C2205 0.929 . S
H2229 C2206 0.931 . S
H2230 C2208 0.930 . S
H2231 C2209 0.930 . S
Tb2232 C2234 2.809 . S
Tb2232 O2252 2.484 . S
Tb2232 O2253 2.440 . S
Tb2232 O2254 2.658 . S
Tb2232 O2255 2.409 . S
Tb2232 O2256 2.378 . S
Tb2232 O2260 2.325 . S
Tb2232 O2263 2.341 . S
Tb2233 C2243 2.809 . S
Tb2233 O2254 2.325 . S
Tb2233 O2257 2.341 . S
Tb2233 O2258 2.484 . S
Tb2233 O2259 2.440 . S
Tb2233 O2260 2.658 . S
Tb2233 O2261 2.409 . S
Tb2233 O2262 2.378 . S
C2234 Tb2232 2.809 . S
C2234 C2235 1.514 . S
C2234 O2252 1.248 . S
C2234 O2253 1.266 . S
C2235 C2234 1.514 . S
C2235 C2236 1.359 . S
C2235 C2240 1.348 . S
C2236 C2235 1.359 . S
C2236 C2237 1.380 . S
C2236 H2264 0.929 . S
C2237 C2236 1.380 . S
C2237 C2238 1.347 . S
C2237 H2265 0.931 . S
C2238 C2237 1.347 . S
C2238 C2239 1.369 . S
C2239 C2238 1.369 . S
C2239 C2240 1.408 . S
C2239 H2266 0.930 . S
C2240 C2235 1.348 . S
C2240 C2239 1.408 . S
C2240 H2267 0.930 . S
C2241 O2254 1.281 . S
C2241 O2255 1.254 . S
C2242 O2256 1.236 . S
C2242 O2257 1.266 . S
C2243 Tb2233 2.809 . S
C2243 C2244 1.514 . S
C2243 O2258 1.248 . S
C2243 O2259 1.266 . S
C2244 C2243 1.514 . S
C2244 C2245 1.359 . S
C2244 C2249 1.348 . S
C2245 C2244 1.359 . S
C2245 C2246 1.380 . S
C2245 H2268 0.929 . S
C2246 C2245 1.380 . S
C2246 C2247 1.347 . S
C2246 H2269 0.931 . S
C2247 C2246 1.347 . S
C2247 C2248 1.369 . S
C2248 C2247 1.369 . S
C2248 C2249 1.408 . S
C2248 H2270 0.930 . S
C2249 C2244 1.348 . S
C2249 C2248 1.408 . S
C2249 H2271 0.930 . S
C2250 O2260 1.281 . S
C2250 O2261 1.254 . S
C2251 O2262 1.236 . S
C2251 O2263 1.266 . S
O2252 Tb2232 2.484 . S
O2252 C2234 1.248 . S
O2253 Tb2232 2.440 . S
O2253 C2234 1.266 . S
O2254 Tb2232 2.658 . S
O2254 Tb2233 2.325 . S
O2254 C2241 1.281 . S
O2255 Tb2232 2.409 . S
O2255 C2241 1.254 . S
O2256 Tb2232 2.378 . S
O2256 C2242 1.236 . S
O2257 Tb2233 2.341 . S
O2257 C2242 1.266 . S
O2258 Tb2233 2.484 . S
O2258 C2243 1.248 . S
O2259 Tb2233 2.440 . S
O2259 C2243 1.266 . S
O2260 Tb2232 2.325 . S
O2260 Tb2233 2.658 . S
O2260 C2250 1.281 . S
O2261 Tb2233 2.409 . S
O2261 C2250 1.254 . S
O2262 Tb2233 2.378 . S
O2262 C2251 1.236 . S
O2263 Tb2232 2.341 . S
O2263 C2251 1.266 . S
H2264 C2236 0.929 . S
H2265 C2237 0.931 . S
H2266 C2239 0.930 . S
H2267 C2240 0.930 . S
H2268 C2245 0.929 . S
H2269 C2246 0.931 . S
H2270 C2248 0.930 . S
H2271 C2249 0.930 . S
Tb2272 C2274 2.809 . S
Tb2272 O2292 2.484 . S
Tb2272 O2293 2.440 . S
Tb2272 O2294 2.658 . S
Tb2272 O2295 2.409 1_455 S
Tb2272 O2296 2.378 . S
Tb2272 O2300 2.325 . S
Tb2272 O2303 2.341 . S
Tb2273 C2283 2.809 . S
Tb2273 O2294 2.325 1_565 S
Tb2273 O2297 2.354 . S
Tb2273 O2298 2.484 . S
Tb2273 O2299 2.440 . S
Tb2273 O2300 2.658 1_565 S
Tb2273 O2301 2.409 1_565 S
Tb2273 O2302 2.378 1_565 S
C2274 Tb2272 2.809 . S
C2274 C2275 1.514 . S
C2274 O2292 1.248 . S
C2274 O2293 1.266 . S
C2275 C2274 1.514 . S
C2275 C2276 1.359 . S
C2275 C2280 1.348 1_455 S
C2276 C2275 1.359 . S
C2276 C2277 1.380 . S
C2276 H2304 0.929 . S
C2277 C2276 1.380 . S
C2277 C2278 1.347 . S
C2277 H2305 0.931 . S
C2278 C2277 1.347 . S
C2278 C2279 1.369 1_455 S
C2279 C2278 1.369 1_655 S
C2279 C2280 1.408 . S
C2279 H2306 0.930 . S
C2280 C2275 1.348 1_655 S
C2280 C2279 1.408 . S
C2280 H2307 0.930 . S
C2281 O2294 1.281 1_655 S
C2281 O2295 1.254 . S
C2282 O2296 1.236 . S
C2282 O2297 1.243 1_545 S
C2283 Tb2273 2.809 . S
C2283 C2284 1.514 . S
C2283 O2298 1.248 . S
C2283 O2299 1.266 . S
C2284 C2283 1.514 . S
C2284 C2285 1.359 . S
C2284 C2289 1.348 . S
C2285 C2284 1.359 . S
C2285 C2286 1.380 . S
C2285 H2308 0.929 . S
C2286 C2285 1.380 . S
C2286 C2287 1.347 . S
C2286 H2309 0.931 . S
C2287 C2286 1.347 . S
C2287 C2288 1.369 . S
C2288 C2287 1.369 . S
C2288 C2289 1.408 . S
C2288 H2310 0.930 . S
C2289 C2284 1.348 . S
C2289 C2288 1.408 . S
C2289 H2311 0.930 . S
C2290 O2300 1.281 . S
C2290 O2301 1.254 . S
C2291 O2302 1.236 . S
C2291 O2303 1.266 . S
O2292 Tb2272 2.484 . S
O2292 C2274 1.248 . S
O2293 Tb2272 2.440 . S
O2293 C2274 1.266 . S
O2294 Tb2272 2.658 . S
O2294 Tb2273 2.325 1_545 S
O2294 C2281 1.281 1_455 S
O2295 Tb2272 2.409 1_655 S
O2295 C2281 1.254 . S
O2296 Tb2272 2.378 . S
O2296 C2282 1.236 . S
O2297 Tb2273 2.354 . S
O2297 C2282 1.243 1_565 S
O2298 Tb2273 2.484 . S
O2298 C2283 1.248 . S
O2299 Tb2273 2.440 . S
O2299 C2283 1.266 . S
O2300 Tb2272 2.325 . S
O2300 Tb2273 2.658 1_545 S
O2300 C2290 1.281 . S
O2301 Tb2273 2.409 1_545 S
O2301 C2290 1.254 . S
O2302 Tb2273 2.378 1_545 S
O2302 C2291 1.236 . S
O2303 Tb2272 2.341 . S
O2303 C2291 1.266 . S
H2304 C2276 0.929 . S
H2305 C2277 0.931 . S
H2306 C2279 0.930 . S
H2307 C2280 0.930 . S
H2308 C2285 0.929 . S
H2309 C2286 0.931 . S
H2310 C2288 0.930 . S
H2311 C2289 0.930 . S
Tb2312 C2314 2.809 . S
Tb2312 O2332 2.484 . S
Tb2312 O2333 2.440 . S
Tb2312 O2334 2.658 . S
Tb2312 O2335 2.409 . S
Tb2312 O2336 2.378 . S
Tb2312 O2340 2.325 . S
Tb2312 O2343 2.341 . S
Tb2313 C2323 2.809 . S
Tb2313 O2334 2.325 . S
Tb2313 O2337 2.341 . S
Tb2313 O2338 2.484 . S
Tb2313 O2339 2.440 . S
Tb2313 O2340 2.658 . S
Tb2313 O2341 2.409 . S
Tb2313 O2342 2.378 . S
C2314 Tb2312 2.809 . S
C2314 C2315 1.514 . S
C2314 O2332 1.248 . S
C2314 O2333 1.266 . S
C2315 C2314 1.514 . S
C2315 C2316 1.359 . S
C2315 C2320 1.348 . S
C2316 C2315 1.359 . S
C2316 C2317 1.380 . S
C2316 H2344 0.929 . S
C2317 C2316 1.380 . S
C2317 C2318 1.347 . S
C2317 H2345 0.931 . S
C2318 C2317 1.347 . S
C2318 C2319 1.369 . S
C2319 C2318 1.369 . S
C2319 C2320 1.408 . S
C2319 H2346 0.930 . S
C2320 C2315 1.348 . S
C2320 C2319 1.408 . S
C2320 H2347 0.930 . S
C2321 O2334 1.281 . S
C2321 O2335 1.254 . S
C2322 O2336 1.236 . S
C2322 O2337 1.266 . S
C2323 Tb2313 2.809 . S
C2323 C2324 1.514 . S
C2323 O2338 1.248 . S
C2323 O2339 1.266 . S
C2324 C2323 1.514 . S
C2324 C2325 1.359 . S
C2324 C2329 1.348 . S
C2325 C2324 1.359 . S
C2325 C2326 1.380 . S
C2325 H2348 0.929 . S
C2326 C2325 1.380 . S
C2326 C2327 1.347 . S
C2326 H2349 0.931 . S
C2327 C2326 1.347 . S
C2327 C2328 1.369 . S
C2328 C2327 1.369 . S
C2328 C2329 1.408 . S
C2328 H2350 0.930 . S
C2329 C2324 1.348 . S
C2329 C2328 1.408 . S
C2329 H2351 0.930 . S
C2330 O2340 1.281 . S
C2330 O2341 1.254 . S
C2331 O2342 1.236 . S
C2331 O2343 1.266 . S
O2332 Tb2312 2.484 . S
O2332 C2314 1.248 . S
O2333 Tb2312 2.440 . S
O2333 C2314 1.266 . S
O2334 Tb2312 2.658 . S
O2334 Tb2313 2.325 . S
O2334 C2321 1.281 . S
O2335 Tb2312 2.409 . S
O2335 C2321 1.254 . S
O2336 Tb2312 2.378 . S
O2336 C2322 1.236 . S
O2337 Tb2313 2.341 . S
O2337 C2322 1.266 . S
O2338 Tb2313 2.484 . S
O2338 C2323 1.248 . S
O2339 Tb2313 2.440 . S
O2339 C2323 1.266 . S
O2340 Tb2312 2.325 . S
O2340 Tb2313 2.658 . S
O2340 C2330 1.281 . S
O2341 Tb2313 2.409 . S
O2341 C2330 1.254 . S
O2342 Tb2313 2.378 . S
O2342 C2331 1.236 . S
O2343 Tb2312 2.341 . S
O2343 C2331 1.266 . S
H2344 C2316 0.929 . S
H2345 C2317 0.931 . S
H2346 C2319 0.930 . S
H2347 C2320 0.930 . S
H2348 C2325 0.929 . S
H2349 C2326 0.931 . S
H2350 C2328 0.930 . S
H2351 C2329 0.930 . S
Tb2352 C2354 2.809 1_545 S
Tb2352 O2372 2.484 1_545 S
Tb2352 O2373 2.440 . S
Tb2352 O2374 2.658 . S
Tb2352 O2375 2.409 . S
Tb2352 O2376 2.378 . S
Tb2352 O2380 2.325 1_545 S
Tb2352 O2383 2.341 1_554 S
Tb2353 C2363 2.809 . S
Tb2353 O2374 2.325 . S
Tb2353 O2377 2.341 . S
Tb2353 O2378 2.484 . S
Tb2353 O2379 2.440 . S
Tb2353 O2380 2.658 1_545 S
Tb2353 O2381 2.409 1_545 S
Tb2353 O2382 2.338 1_554 S
C2354 Tb2352 2.809 1_565 S
C2354 C2355 1.514 . S
C2354 O2372 1.248 . S
C2354 O2373 1.266 1_565 S
C2355 C2354 1.514 . S
C2355 C2356 1.359 . S
C2355 C2360 1.348 1_565 S
C2356 C2355 1.359 . S
C2356 C2357 1.380 . S
C2356 H2384 0.929 . S
C2357 C2356 1.380 . S
C2357 C2358 1.347 . S
C2357 H2385 0.931 . S
C2358 C2357 1.347 . S
C2358 C2359 1.369 . S
C2359 C2358 1.369 . S
C2359 C2360 1.408 1_565 S
C2359 H2386 0.930 1_565 S
C2360 C2355 1.348 1_545 S
C2360 C2359 1.408 1_545 S
C2360 H2387 0.930 . S
C2361 O2374 1.281 . S
C2361 O2375 1.254 . S
C2362 O2376 1.236 . S
C2362 O2377 1.266 . S
C2363 Tb2353 2.809 . S
C2363 C2364 1.514 . S
C2363 O2378 1.248 . S
C2363 O2379 1.266 . S
C2364 C2363 1.514 . S
C2364 C2365 1.359 . S
C2364 C2369 1.348 . S
C2365 C2364 1.359 . S
C2365 C2366 1.380 . S
C2365 H2388 0.929 . S
C2366 C2365 1.380 . S
C2366 C2367 1.347 . S
C2366 H2389 0.931 . S
C2367 C2366 1.347 . S
C2367 C2368 1.369 . S
C2368 C2367 1.369 . S
C2368 C2369 1.408 . S
C2368 H2390 0.930 . S
C2369 C2364 1.348 . S
C2369 C2368 1.408 . S
C2369 H2391 0.930 . S
C2370 O2380 1.281 . S
C2370 O2381 1.254 . S
C2371 O2382 1.265 . S
C2371 O2383 1.266 . S
O2372 Tb2352 2.484 1_565 S
O2372 C2354 1.248 . S
O2373 Tb2352 2.440 . S
O2373 C2354 1.266 1_545 S
O2374 Tb2352 2.658 . S
O2374 Tb2353 2.325 . S
O2374 C2361 1.281 . S
O2375 Tb2352 2.409 . S
O2375 C2361 1.254 . S
O2376 Tb2352 2.378 . S
O2376 C2362 1.236 . S
O2377 Tb2353 2.341 . S
O2377 C2362 1.266 . S
O2378 Tb2353 2.484 . S
O2378 C2363 1.248 . S
O2379 Tb2353 2.440 . S
O2379 C2363 1.266 . S
O2380 Tb2352 2.325 1_565 S
O2380 Tb2353 2.658 1_565 S
O2380 C2370 1.281 . S
O2381 Tb2353 2.409 1_565 S
O2381 C2370 1.254 . S
O2382 Tb2353 2.338 1_556 S
O2382 C2371 1.265 . S
O2383 Tb2352 2.341 1_556 S
O2383 C2371 1.266 . S
H2384 C2356 0.929 . S
H2385 C2357 0.931 . S
H2386 C2359 0.930 1_545 S
H2387 C2360 0.930 . S
H2388 C2365 0.929 . S
H2389 C2366 0.931 . S
H2390 C2368 0.930 . S
H2391 C2369 0.930 . S
Tb2392 C2394 2.809 . S
Tb2392 O2412 2.484 . S
Tb2392 O2413 2.440 . S
Tb2392 O2414 2.658 . S
Tb2392 O2415 2.409 . S
Tb2392 O2416 2.378 . S
Tb2392 O2420 2.325 . S
Tb2392 O2423 2.341 . S
Tb2393 C2403 2.809 . S
Tb2393 O2414 2.325 . S
Tb2393 O2417 2.341 . S
Tb2393 O2418 2.484 . S
Tb2393 O2419 2.440 . S
Tb2393 O2420 2.658 . S
Tb2393 O2421 2.409 . S
Tb2393 O2422 2.378 . S
C2394 Tb2392 2.809 . S
C2394 C2395 1.514 . S
C2394 O2412 1.248 . S
C2394 O2413 1.266 . S
C2395 C2394 1.514 . S
C2395 C2396 1.359 . S
C2395 C2400 1.348 . S
C2396 C2395 1.359 . S
C2396 C2397 1.380 . S
C2396 H2424 0.929 . S
C2397 C2396 1.380 . S
C2397 C2398 1.347 . S
C2397 H2425 0.931 . S
C2398 C2397 1.347 . S
C2398 C2399 1.369 . S
C2399 C2398 1.369 . S
C2399 C2400 1.408 . S
C2399 H2426 0.930 . S
C2400 C2395 1.348 . S
C2400 C2399 1.408 . S
C2400 H2427 0.930 . S
C2401 O2414 1.281 . S
C2401 O2415 1.254 . S
C2402 O2416 1.236 . S
C2402 O2417 1.266 . S
C2403 Tb2393 2.809 . S
C2403 C2404 1.514 . S
C2403 O2418 1.248 . S
C2403 O2419 1.266 . S
C2404 C2403 1.514 . S
C2404 C2405 1.359 . S
C2404 C2409 1.348 . S
C2405 C2404 1.359 . S
C2405 C2406 1.380 . S
C2405 H2428 0.929 . S
C2406 C2405 1.380 . S
C2406 C2407 1.347 . S
C2406 H2429 0.931 . S
C2407 C2406 1.347 . S
C2407 C2408 1.369 . S
C2408 C2407 1.369 . S
C2408 C2409 1.408 . S
C2408 H2430 0.930 . S
C2409 C2404 1.348 . S
C2409 C2408 1.408 . S
C2409 H2431 0.930 . S
C2410 O2420 1.281 . S
C2410 O2421 1.254 . S
C2411 O2422 1.236 . S
C2411 O2423 1.266 . S
O2412 Tb2392 2.484 . S
O2412 C2394 1.248 . S
O2413 Tb2392 2.440 . S
O2413 C2394 1.266 . S
O2414 Tb2392 2.658 . S
O2414 Tb2393 2.325 . S
O2414 C2401 1.281 . S
O2415 Tb2392 2.409 . S
O2415 C2401 1.254 . S
O2416 Tb2392 2.378 . S
O2416 C2402 1.236 . S
O2417 Tb2393 2.341 . S
O2417 C2402 1.266 . S
O2418 Tb2393 2.484 . S
O2418 C2403 1.248 . S
O2419 Tb2393 2.440 . S
O2419 C2403 1.266 . S
O2420 Tb2392 2.325 . S
O2420 Tb2393 2.658 . S
O2420 C2410 1.281 . S
O2421 Tb2393 2.409 . S
O2421 C2410 1.254 . S
O2422 Tb2393 2.378 . S
O2422 C2411 1.236 . S
O2423 Tb2392 2.341 . S
O2423 C2411 1.266 . S
H2424 C2396 0.929 . S
H2425 C2397 0.931 . S
H2426 C2399 0.930 . S
H2427 C2400 0.930 . S
H2428 C2405 0.929 . S
H2429 C2406 0.931 . S
H2430 C2408 0.930 . S
H2431 C2409 0.930 . S
Tb2432 C2434 2.805 1_554 S
Tb2432 O2452 2.501 . S
Tb2432 O2453 2.440 . S
Tb2432 O2454 2.658 . S
Tb2432 O2455 2.409 . S
Tb2432 O2456 2.378 1_554 S
Tb2432 O2460 2.325 . S
Tb2432 O2463 2.341 . S
Tb2433 C2443 2.809 . S
Tb2433 O2454 2.325 . S
Tb2433 O2457 2.341 1_554 S
Tb2433 O2458 2.484 . S
Tb2433 O2459 2.440 . S
Tb2433 O2460 2.658 . S
Tb2433 O2461 2.409 . S
Tb2433 O2462 2.378 . S
C2434 Tb2432 2.805 1_556 S
C2434 C2435 1.517 . S
C2434 O2452 1.250 1_556 S
C2434 O2453 1.262 1_556 S
C2435 C2434 1.517 . S
C2435 C2436 1.359 . S
C2435 C2440 1.348 . S
C2436 C2435 1.359 . S
C2436 C2437 1.380 . S
C2436 H2464 0.929 . S
C2437 C2436 1.380 . S
C2437 C2438 1.347 . S
C2437 H2465 0.931 . S
C2438 C2437 1.347 . S
C2438 C2439 1.369 . S
C2439 C2438 1.369 . S
C2439 C2440 1.408 . S
C2439 H2466 0.930 . S
C2440 C2435 1.348 . S
C2440 C2439 1.408 . S
C2440 H2467 0.930 . S
C2441 O2454 1.281 . S
C2441 O2455 1.254 . S
C2442 O2456 1.236 . S
C2442 O2457 1.266 . S
C2443 Tb2433 2.809 . S
C2443 C2444 1.514 . S
C2443 O2458 1.248 . S
C2443 O2459 1.266 . S
C2444 C2443 1.514 . S
C2444 C2445 1.359 . S
C2444 C2449 1.348 . S
C2445 C2444 1.359 . S
C2445 C2446 1.380 . S
C2445 H2468 0.929 . S
C2446 C2445 1.380 . S
C2446 C2447 1.347 . S
C2446 H2469 0.931 . S
C2447 C2446 1.347 . S
C2447 C2448 1.369 . S
C2448 C2447 1.369 . S
C2448 C2449 1.408 . S
C2448 H2470 0.930 . S
C2449 C2444 1.348 . S
C2449 C2448 1.408 . S
C2449 H2471 0.930 . S
C2450 O2460 1.281 . S
C2450 O2461 1.254 . S
C2451 O2462 1.236 . S
C2451 O2463 1.266 . S
O2452 Tb2432 2.501 . S
O2452 C2434 1.250 1_554 S
O2453 Tb2432 2.440 . S
O2453 C2434 1.262 1_554 S
O2454 Tb2432 2.658 . S
O2454 Tb2433 2.325 . S
O2454 C2441 1.281 . S
O2455 Tb2432 2.409 . S
O2455 C2441 1.254 . S
O2456 Tb2432 2.378 1_556 S
O2456 C2442 1.236 . S
O2457 Tb2433 2.341 1_556 S
O2457 C2442 1.266 . S
O2458 Tb2433 2.484 . S
O2458 C2443 1.248 . S
O2459 Tb2433 2.440 . S
O2459 C2443 1.266 . S
O2460 Tb2432 2.325 . S
O2460 Tb2433 2.658 . S
O2460 C2450 1.281 . S
O2461 Tb2433 2.409 . S
O2461 C2450 1.254 . S
O2462 Tb2433 2.378 . S
O2462 C2451 1.236 . S
O2463 Tb2432 2.341 . S
O2463 C2451 1.266 . S
H2464 C2436 0.929 . S
H2465 C2437 0.931 . S
H2466 C2439 0.930 . S
H2467 C2440 0.930 . S
H2468 C2445 0.929 . S
H2469 C2446 0.931 . S
H2470 C2448 0.930 . S
H2471 C2449 0.930 . S
Tb2472 C2474 2.809 . S
Tb2472 O2492 2.484 . S
Tb2472 O2493 2.440 . S
Tb2472 O2494 2.658 . S
Tb2472 O2495 2.409 . S
Tb2472 O2496 2.378 . S
Tb2472 O2500 2.325 . S
Tb2472 O2503 2.341 . S
Tb2473 C2483 2.809 . S
Tb2473 O2494 2.325 . S
Tb2473 O2497 2.341 . S
Tb2473 O2498 2.484 . S
Tb2473 O2499 2.440 . S
Tb2473 O2500 2.658 . S
Tb2473 O2501 2.409 . S
Tb2473 O2502 2.378 . S
C2474 Tb2472 2.809 . S
C2474 C2475 1.514 . S
C2474 O2492 1.248 . S
C2474 O2493 1.266 . S
C2475 C2474 1.514 . S
C2475 C2476 1.359 . S
C2475 C2480 1.348 . S
C2476 C2475 1.359 . S
C2476 C2477 1.380 . S
C2476 H2504 0.929 . S
C2477 C2476 1.380 . S
C2477 C2478 1.347 . S
C2477 H2505 0.931 . S
C2478 C2477 1.347 . S
C2478 C2479 1.369 . S
C2479 C2478 1.369 . S
C2479 C2480 1.408 . S
C2479 H2506 0.930 . S
C2480 C2475 1.348 . S
C2480 C2479 1.408 . S
C2480 H2507 0.930 . S
C2481 O2494 1.281 . S
C2481 O2495 1.254 . S
C2482 O2496 1.236 . S
C2482 O2497 1.266 . S
C2483 Tb2473 2.809 . S
C2483 C2484 1.514 . S
C2483 O2498 1.248 . S
C2483 O2499 1.266 . S
C2484 C2483 1.514 . S
C2484 C2485 1.359 . S
C2484 C2489 1.348 . S
C2485 C2484 1.359 . S
C2485 C2486 1.380 . S
C2485 H2508 0.929 . S
C2486 C2485 1.380 . S
C2486 C2487 1.347 . S
C2486 H2509 0.931 . S
C2487 C2486 1.347 . S
C2487 C2488 1.369 . S
C2488 C2487 1.369 . S
C2488 C2489 1.408 . S
C2488 H2510 0.930 . S
C2489 C2484 1.348 . S
C2489 C2488 1.408 . S
C2489 H2511 0.930 . S
C2490 O2500 1.281 . S
C2490 O2501 1.254 . S
C2491 O2502 1.236 . S
C2491 O2503 1.266 . S
O2492 Tb2472 2.484 . S
O2492 C2474 1.248 . S
O2493 Tb2472 2.440 . S
O2493 C2474 1.266 . S
O2494 Tb2472 2.658 . S
O2494 Tb2473 2.325 . S
O2494 C2481 1.281 . S
O2495 Tb2472 2.409 . S
O2495 C2481 1.254 . S
O2496 Tb2472 2.378 . S
O2496 C2482 1.236 . S
O2497 Tb2473 2.341 . S
O2497 C2482 1.266 . S
O2498 Tb2473 2.484 . S
O2498 C2483 1.248 . S
O2499 Tb2473 2.440 . S
O2499 C2483 1.266 . S
O2500 Tb2472 2.325 . S
O2500 Tb2473 2.658 . S
O2500 C2490 1.281 . S
O2501 Tb2473 2.409 . S
O2501 C2490 1.254 . S
O2502 Tb2473 2.378 . S
O2502 C2491 1.236 . S
O2503 Tb2472 2.341 . S
O2503 C2491 1.266 . S
H2504 C2476 0.929 . S
H2505 C2477 0.931 . S
H2506 C2479 0.930 . S
H2507 C2480 0.930 . S
H2508 C2485 0.929 . S
H2509 C2486 0.931 . S
H2510 C2488 0.930 . S
H2511 C2489 0.930 . S
Tb2512 C2514 2.809 1_455 S
Tb2512 O2532 2.484 1_455 S
Tb2512 O2533 2.440 1_455 S
Tb2512 O2534 2.658 . S
Tb2512 O2535 2.409 . S
Tb2512 O2536 2.378 . S
Tb2512 O2540 2.325 . S
Tb2512 O2543 2.341 . S
Tb2513 C2523 2.809 . S
Tb2513 O2534 2.325 . S
Tb2513 O2537 2.341 . S
Tb2513 O2538 2.484 . S
Tb2513 O2539 2.440 . S
Tb2513 O2540 2.658 . S
Tb2513 O2541 2.409 . S
Tb2513 O2542 2.378 . S
C2514 Tb2512 2.809 1_655 S
C2514 C2515 1.514 . S
C2514 O2532 1.248 . S
C2514 O2533 1.266 . S
C2515 C2514 1.514 . S
C2515 C2516 1.359 . S
C2515 C2520 1.348 . S
C2516 C2515 1.359 . S
C2516 C2517 1.380 . S
C2516 H2544 0.929 . S
C2517 C2516 1.380 . S
C2517 C2518 1.347 . S
C2517 H2545 0.931 . S
C2518 C2517 1.347 . S
C2518 C2519 1.369 . S
C2519 C2518 1.369 . S
C2519 C2520 1.408 . S
C2519 H2546 0.930 . S
C2520 C2515 1.348 . S
C2520 C2519 1.408 . S
C2520 H2547 0.930 . S
C2521 O2534 1.281 . S
C2521 O2535 1.254 . S
C2522 O2536 1.236 . S
C2522 O2537 1.266 . S
C2523 Tb2513 2.809 . S
C2523 C2524 1.514 . S
C2523 O2538 1.248 . S
C2523 O2539 1.266 . S
C2524 C2523 1.514 . S
C2524 C2525 1.359 . S
C2524 C2529 1.348 . S
C2525 C2524 1.359 . S
C2525 C2526 1.380 . S
C2525 H2548 0.929 . S
C2526 C2525 1.380 . S
C2526 C2527 1.347 . S
C2526 H2549 0.931 . S
C2527 C2526 1.347 . S
C2527 C2528 1.369 . S
C2528 C2527 1.369 . S
C2528 C2529 1.408 . S
C2528 H2550 0.930 . S
C2529 C2524 1.348 . S
C2529 C2528 1.408 . S
C2529 H2551 0.930 . S
C2530 O2540 1.281 . S
C2530 O2541 1.254 . S
C2531 O2542 1.236 . S
C2531 O2543 1.266 . S
O2532 Tb2512 2.484 1_655 S
O2532 C2514 1.248 . S
O2533 Tb2512 2.440 1_655 S
O2533 C2514 1.266 . S
O2534 Tb2512 2.658 . S
O2534 Tb2513 2.325 . S
O2534 C2521 1.281 . S
O2535 Tb2512 2.409 . S
O2535 C2521 1.254 . S
O2536 Tb2512 2.378 . S
O2536 C2522 1.236 . S
O2537 Tb2513 2.341 . S
O2537 C2522 1.266 . S
O2538 Tb2513 2.484 . S
O2538 C2523 1.248 . S
O2539 Tb2513 2.440 . S
O2539 C2523 1.266 . S
O2540 Tb2512 2.325 . S
O2540 Tb2513 2.658 . S
O2540 C2530 1.281 . S
O2541 Tb2513 2.409 . S
O2541 C2530 1.254 . S
O2542 Tb2513 2.378 . S
O2542 C2531 1.236 . S
O2543 Tb2512 2.341 . S
O2543 C2531 1.266 . S
H2544 C2516 0.929 . S
H2545 C2517 0.931 . S
H2546 C2519 0.930 . S
H2547 C2520 0.930 . S
H2548 C2525 0.929 . S
H2549 C2526 0.931 . S
H2550 C2528 0.930 . S
H2551 C2529 0.930 . S
Tb2552 C2554 2.809 . S
Tb2552 O2572 2.484 . S
Tb2552 O2573 2.440 . S
Tb2552 O2574 2.658 . S
Tb2552 O2575 2.409 . S
Tb2552 O2576 2.378 . S
Tb2552 O2580 2.325 . S
Tb2552 O2583 2.341 . S
Tb2553 C2563 2.809 . S
Tb2553 O2574 2.325 . S
Tb2553 O2577 2.341 . S
Tb2553 O2578 2.484 . S
Tb2553 O2579 2.440 . S
Tb2553 O2580 2.658 . S
Tb2553 O2581 2.409 . S
Tb2553 O2582 2.378 . S
C2554 Tb2552 2.809 . S
C2554 C2555 1.514 . S
C2554 O2572 1.248 . S
C2554 O2573 1.266 . S
C2555 C2554 1.514 . S
C2555 C2556 1.359 . S
C2555 C2560 1.348 . S
C2556 C2555 1.359 . S
C2556 C2557 1.380 . S
C2556 H2584 0.929 . S
C2557 C2556 1.380 . S
C2557 C2558 1.347 . S
C2557 H2585 0.931 . S
C2558 C2557 1.347 . S
C2558 C2559 1.369 . S
C2559 C2558 1.369 . S
C2559 C2560 1.408 . S
C2559 H2586 0.930 . S
C2560 C2555 1.348 . S
C2560 C2559 1.408 . S
C2560 H2587 0.930 . S
C2561 O2574 1.281 . S
C2561 O2575 1.254 . S
C2562 O2576 1.236 . S
C2562 O2577 1.266 . S
C2563 Tb2553 2.809 . S
C2563 C2564 1.514 . S
C2563 O2578 1.248 . S
C2563 O2579 1.266 . S
C2564 C2563 1.514 . S
C2564 C2565 1.359 . S
C2564 C2569 1.348 . S
C2565 C2564 1.359 . S
C2565 C2566 1.380 . S
C2565 H2588 0.929 . S
C2566 C2565 1.380 . S
C2566 C2567 1.347 . S
C2566 H2589 0.931 . S
C2567 C2566 1.347 . S
C2567 C2568 1.369 . S
C2568 C2567 1.369 . S
C2568 C2569 1.408 . S
C2568 H2590 0.930 . S
C2569 C2564 1.348 . S
C2569 C2568 1.408 . S
C2569 H2591 0.930 . S
C2570 O2580 1.281 . S
C2570 O2581 1.254 . S
C2571 O2582 1.236 . S
C2571 O2583 1.266 . S
O2572 Tb2552 2.484 . S
O2572 C2554 1.248 . S
O2573 Tb2552 2.440 . S
O2573 C2554 1.266 . S
O2574 Tb2552 2.658 . S
O2574 Tb2553 2.325 . S
O2574 C2561 1.281 . S
O2575 Tb2552 2.409 . S
O2575 C2561 1.254 . S
O2576 Tb2552 2.378 . S
O2576 C2562 1.236 . S
O2577 Tb2553 2.341 . S
O2577 C2562 1.266 . S
O2578 Tb2553 2.484 . S
O2578 C2563 1.248 . S
O2579 Tb2553 2.440 . S
O2579 C2563 1.266 . S
O2580 Tb2552 2.325 . S
O2580 Tb2553 2.658 . S
O2580 C2570 1.281 . S
O2581 Tb2553 2.409 . S
O2581 C2570 1.254 . S
O2582 Tb2553 2.378 . S
O2582 C2571 1.236 . S
O2583 Tb2552 2.341 . S
O2583 C2571 1.266 . S
H2584 C2556 0.929 . S
H2585 C2557 0.931 . S
H2586 C2559 0.930 . S
H2587 C2560 0.930 . S
H2588 C2565 0.929 . S
H2589 C2566 0.931 . S
H2590 C2568 0.930 . S
H2591 C2569 0.930 . S
Tb2592 C2594 2.809 . S
Tb2592 O2612 2.484 . S
Tb2592 O2613 2.440 . S
Tb2592 O2614 2.658 . S
Tb2592 O2615 2.409 . S
Tb2592 O2616 2.378 . S
Tb2592 O2620 2.325 . S
Tb2592 O2623 2.341 . S
Tb2593 C2603 2.809 . S
Tb2593 O2614 2.325 . S
Tb2593 O2617 2.341 . S
Tb2593 O2618 2.484 . S
Tb2593 O2619 2.440 . S
Tb2593 O2620 2.658 . S
Tb2593 O2621 2.409 . S
Tb2593 O2622 2.378 . S
C2594 Tb2592 2.809 . S
C2594 C2595 1.514 . S
C2594 O2612 1.248 . S
C2594 O2613 1.266 . S
C2595 C2594 1.514 . S
C2595 C2596 1.359 . S
C2595 C2600 1.348 . S
C2596 C2595 1.359 . S
C2596 C2597 1.380 . S
C2596 H2624 0.929 . S
C2597 C2596 1.380 . S
C2597 C2598 1.347 . S
C2597 H2625 0.931 . S
C2598 C2597 1.347 . S
C2598 C2599 1.369 . S
C2599 C2598 1.369 . S
C2599 C2600 1.408 . S
C2599 H2626 0.930 . S
C2600 C2595 1.348 . S
C2600 C2599 1.408 . S
C2600 H2627 0.930 . S
C2601 O2614 1.281 . S
C2601 O2615 1.254 . S
C2602 O2616 1.236 . S
C2602 O2617 1.266 . S
C2603 Tb2593 2.809 . S
C2603 C2604 1.514 . S
C2603 O2618 1.248 . S
C2603 O2619 1.266 . S
C2604 C2603 1.514 . S
C2604 C2605 1.359 . S
C2604 C2609 1.348 . S
C2605 C2604 1.359 . S
C2605 C2606 1.380 . S
C2605 H2628 0.929 . S
C2606 C2605 1.380 . S
C2606 C2607 1.347 . S
C2606 H2629 0.931 . S
C2607 C2606 1.347 . S
C2607 C2608 1.369 . S
C2608 C2607 1.369 . S
C2608 C2609 1.408 . S
C2608 H2630 0.930 . S
C2609 C2604 1.348 . S
C2609 C2608 1.408 . S
C2609 H2631 0.930 . S
C2610 O2620 1.281 . S
C2610 O2621 1.254 . S
C2611 O2622 1.236 . S
C2611 O2623 1.266 . S
O2612 Tb2592 2.484 . S
O2612 C2594 1.248 . S
O2613 Tb2592 2.440 . S
O2613 C2594 1.266 . S
O2614 Tb2592 2.658 . S
O2614 Tb2593 2.325 . S
O2614 C2601 1.281 . S
O2615 Tb2592 2.409 . S
O2615 C2601 1.254 . S
O2616 Tb2592 2.378 . S
O2616 C2602 1.236 . S
O2617 Tb2593 2.341 . S
O2617 C2602 1.266 . S
O2618 Tb2593 2.484 . S
O2618 C2603 1.248 . S
O2619 Tb2593 2.440 . S
O2619 C2603 1.266 . S
O2620 Tb2592 2.325 . S
O2620 Tb2593 2.658 . S
O2620 C2610 1.281 . S
O2621 Tb2593 2.409 . S
O2621 C2610 1.254 . S
O2622 Tb2593 2.378 . S
O2622 C2611 1.236 . S
O2623 Tb2592 2.341 . S
O2623 C2611 1.266 . S
H2624 C2596 0.929 . S
H2625 C2597 0.931 . S
H2626 C2599 0.930 . S
H2627 C2600 0.930 . S
H2628 C2605 0.929 . S
H2629 C2606 0.931 . S
H2630 C2608 0.930 . S
H2631 C2609 0.930 . S
Tb2632 C2634 2.809 . S
Tb2632 O2652 2.484 . S
Tb2632 O2653 2.440 . S
Tb2632 O2654 2.658 . S
Tb2632 O2655 2.409 . S
Tb2632 O2656 2.378 . S
Tb2632 O2660 2.325 . S
Tb2632 O2663 2.341 . S
Tb2633 C2643 2.809 . S
Tb2633 O2654 2.325 . S
Tb2633 O2657 2.341 . S
Tb2633 O2658 2.484 . S
Tb2633 O2659 2.440 . S
Tb2633 O2660 2.658 . S
Tb2633 O2661 2.409 . S
Tb2633 O2662 2.378 . S
C2634 Tb2632 2.809 . S
C2634 C2635 1.514 . S
C2634 O2652 1.248 . S
C2634 O2653 1.266 . S
C2635 C2634 1.514 . S
C2635 C2636 1.359 . S
C2635 C2640 1.348 . S
C2636 C2635 1.359 . S
C2636 C2637 1.380 . S
C2636 H2664 0.929 . S
C2637 C2636 1.380 . S
C2637 C2638 1.347 . S
C2637 H2665 0.931 . S
C2638 C2637 1.347 . S
C2638 C2639 1.369 . S
C2639 C2638 1.369 . S
C2639 C2640 1.408 . S
C2639 H2666 0.930 . S
C2640 C2635 1.348 . S
C2640 C2639 1.408 . S
C2640 H2667 0.930 . S
C2641 O2654 1.281 . S
C2641 O2655 1.254 . S
C2642 O2656 1.236 . S
C2642 O2657 1.266 . S
C2643 Tb2633 2.809 . S
C2643 C2644 1.514 . S
C2643 O2658 1.248 . S
C2643 O2659 1.266 . S
C2644 C2643 1.514 . S
C2644 C2645 1.359 . S
C2644 C2649 1.348 . S
C2645 C2644 1.359 . S
C2645 C2646 1.380 . S
C2645 H2668 0.929 . S
C2646 C2645 1.380 . S
C2646 C2647 1.347 . S
C2646 H2669 0.931 . S
C2647 C2646 1.347 . S
C2647 C2648 1.369 . S
C2648 C2647 1.369 . S
C2648 C2649 1.408 . S
C2648 H2670 0.930 . S
C2649 C2644 1.348 . S
C2649 C2648 1.408 . S
C2649 H2671 0.930 . S
C2650 O2660 1.281 . S
C2650 O2661 1.254 . S
C2651 O2662 1.236 . S
C2651 O2663 1.266 . S
O2652 Tb2632 2.484 . S
O2652 C2634 1.248 . S
O2653 Tb2632 2.440 . S
O2653 C2634 1.266 . S
O2654 Tb2632 2.658 . S
O2654 Tb2633 2.325 . S
O2654 C2641 1.281 . S
O2655 Tb2632 2.409 . S
O2655 C2641 1.254 . S
O2656 Tb2632 2.378 . S
O2656 C2642 1.236 . S
O2657 Tb2633 2.341 . S
O2657 C2642 1.266 . S
O2658 Tb2633 2.484 . S
O2658 C2643 1.248 . S
O2659 Tb2633 2.440 . S
O2659 C2643 1.266 . S
O2660 Tb2632 2.325 . S
O2660 Tb2633 2.658 . S
O2660 C2650 1.281 . S
O2661 Tb2633 2.409 . S
O2661 C2650 1.254 . S
O2662 Tb2633 2.378 . S
O2662 C2651 1.236 . S
O2663 Tb2632 2.341 . S
O2663 C2651 1.266 . S
H2664 C2636 0.929 . S
H2665 C2637 0.931 . S
H2666 C2639 0.930 . S
H2667 C2640 0.930 . S
H2668 C2645 0.929 . S
H2669 C2646 0.931 . S
H2670 C2648 0.930 . S
H2671 C2649 0.930 . S
Tb2672 C2674 2.809 . S
Tb2672 O2692 2.484 . S
Tb2672 O2693 2.440 . S
Tb2672 O2694 2.658 . S
Tb2672 O2695 2.409 . S
Tb2672 O2696 2.378 . S
Tb2672 O2700 2.325 . S
Tb2672 O2703 2.341 . S
Tb2673 C2683 2.809 . S
Tb2673 O2694 2.325 . S
Tb2673 O2697 2.341 . S
Tb2673 O2698 2.484 . S
Tb2673 O2699 2.440 . S
Tb2673 O2700 2.658 . S
Tb2673 O2701 2.409 . S
Tb2673 O2702 2.378 . S
C2674 Tb2672 2.809 . S
C2674 C2675 1.514 . S
C2674 O2692 1.248 . S
C2674 O2693 1.266 . S
C2675 C2674 1.514 . S
C2675 C2676 1.359 . S
C2675 C2680 1.348 . S
C2676 C2675 1.359 . S
C2676 C2677 1.380 . S
C2676 H2704 0.929 . S
C2677 C2676 1.380 . S
C2677 C2678 1.347 . S
C2677 H2705 0.931 . S
C2678 C2677 1.347 . S
C2678 C2679 1.369 . S
C2679 C2678 1.369 . S
C2679 C2680 1.408 . S
C2679 H2706 0.930 . S
C2680 C2675 1.348 . S
C2680 C2679 1.408 . S
C2680 H2707 0.930 . S
C2681 O2694 1.281 . S
C2681 O2695 1.254 . S
C2682 O2696 1.236 . S
C2682 O2697 1.266 . S
C2683 Tb2673 2.809 . S
C2683 C2684 1.514 . S
C2683 O2698 1.248 . S
C2683 O2699 1.266 . S
C2684 C2683 1.514 . S
C2684 C2685 1.359 . S
C2684 C2689 1.348 . S
C2685 C2684 1.359 . S
C2685 C2686 1.380 . S
C2685 H2708 0.929 . S
C2686 C2685 1.380 . S
C2686 C2687 1.347 . S
C2686 H2709 0.931 . S
C2687 C2686 1.347 . S
C2687 C2688 1.369 . S
C2688 C2687 1.369 . S
C2688 C2689 1.408 . S
C2688 H2710 0.930 . S
C2689 C2684 1.348 . S
C2689 C2688 1.408 . S
C2689 H2711 0.930 . S
C2690 O2700 1.281 . S
C2690 O2701 1.254 . S
C2691 O2702 1.236 . S
C2691 O2703 1.266 . S
O2692 Tb2672 2.484 . S
O2692 C2674 1.248 . S
O2693 Tb2672 2.440 . S
O2693 C2674 1.266 . S
O2694 Tb2672 2.658 . S
O2694 Tb2673 2.325 . S
O2694 C2681 1.281 . S
O2695 Tb2672 2.409 . S
O2695 C2681 1.254 . S
O2696 Tb2672 2.378 . S
O2696 C2682 1.236 . S
O2697 Tb2673 2.341 . S
O2697 C2682 1.266 . S
O2698 Tb2673 2.484 . S
O2698 C2683 1.248 . S
O2699 Tb2673 2.440 . S
O2699 C2683 1.266 . S
O2700 Tb2672 2.325 . S
O2700 Tb2673 2.658 . S
O2700 C2690 1.281 . S
O2701 Tb2673 2.409 . S
O2701 C2690 1.254 . S
O2702 Tb2673 2.378 . S
O2702 C2691 1.236 . S
O2703 Tb2672 2.341 . S
O2703 C2691 1.266 . S
H2704 C2676 0.929 . S
H2705 C2677 0.931 . S
H2706 C2679 0.930 . S
H2707 C2680 0.930 . S
H2708 C2685 0.929 . S
H2709 C2686 0.931 . S
H2710 C2688 0.930 . S
H2711 C2689 0.930 . S
Tb2712 C2714 2.809 . S
Tb2712 O2732 2.484 . S
Tb2712 O2733 2.440 1_554 S
Tb2712 O2734 2.658 1_554 S
Tb2712 O2735 2.409 1_554 S
Tb2712 O2736 2.371 1_554 S
Tb2712 O2740 2.325 . S
Tb2712 O2743 2.341 . S
Tb2713 C2723 2.809 1_455 S
Tb2713 O2734 2.325 1_554 S
Tb2713 O2737 2.341 . S
Tb2713 O2738 2.484 1_455 S
Tb2713 O2739 2.440 1_455 S
Tb2713 O2740 2.658 . S
Tb2713 O2741 2.409 . S
Tb2713 O2742 2.378 . S
C2714 Tb2712 2.809 . S
C2714 C2715 1.520 . S
C2714 O2732 1.248 . S
C2714 O2733 1.266 1_554 S
C2715 C2714 1.520 . S
C2715 C2716 1.382 . S
C2715 C2720 1.319 1_554 S
C2716 C2715 1.382 . S
C2716 C2717 1.380 . S
C2716 H2744 0.929 . S
C2717 C2716 1.380 . S
C2717 C2718 1.347 1_554 S
C2717 H2745 0.931 . S
C2718 C2717 1.347 1_556 S
C2718 C2719 1.369 . S
C2719 C2718 1.369 . S
C2719 C2720 1.408 . S
C2719 H2746 0.930 . S
C2720 C2715 1.319 1_556 S
C2720 C2719 1.408 . S
C2720 H2747 0.930 . S
C2721 O2734 1.281 . S
C2721 O2735 1.254 . S
C2722 O2736 1.211 1_554 S
C2722 O2737 1.266 . S
C2723 Tb2713 2.809 1_655 S
C2723 C2724 1.514 . S
C2723 O2738 1.248 . S
C2723 O2739 1.266 . S
C2724 C2723 1.514 . S
C2724 C2725 1.359 . S
C2724 C2729 1.348 . S
C2725 C2724 1.359 . S
C2725 C2726 1.380 . S
C2725 H2748 0.929 . S
C2726 C2725 1.380 . S
C2726 C2727 1.347 . S
C2726 H2749 0.931 . S
C2727 C2726 1.347 . S
C2727 C2728 1.369 . S
C2728 C2727 1.369 . S
C2728 C2729 1.408 . S
C2728 H2750 0.930 . S
C2729 C2724 1.348 . S
C2729 C2728 1.408 . S
C2729 H2751 0.930 . S
C2730 O2740 1.281 . S
C2730 O2741 1.254 . S
C2731 O2742 1.236 . S
C2731 O2743 1.266 . S
O2732 Tb2712 2.484 . S
O2732 C2714 1.248 . S
O2733 Tb2712 2.440 1_556 S
O2733 C2714 1.266 1_556 S
O2734 Tb2712 2.658 1_556 S
O2734 Tb2713 2.325 1_556 S
O2734 C2721 1.281 . S
O2735 Tb2712 2.409 1_556 S
O2735 C2721 1.254 . S
O2736 Tb2712 2.371 1_556 S
O2736 C2722 1.211 1_556 S
O2737 Tb2713 2.341 . S
O2737 C2722 1.266 . S
O2738 Tb2713 2.484 1_655 S
O2738 C2723 1.248 . S
O2739 Tb2713 2.440 1_655 S
O2739 C2723 1.266 . S
O2740 Tb2712 2.325 . S
O2740 Tb2713 2.658 . S
O2740 C2730 1.281 . S
O2741 Tb2713 2.409 . S
O2741 C2730 1.254 . S
O2742 Tb2713 2.378 . S
O2742 C2731 1.236 . S
O2743 Tb2712 2.341 . S
O2743 C2731 1.266 . S
H2744 C2716 0.929 . S
H2745 C2717 0.931 . S
H2746 C2719 0.930 . S
H2747 C2720 0.930 . S
H2748 C2725 0.929 . S
H2749 C2726 0.931 . S
H2750 C2728 0.930 . S
H2751 C2729 0.930 . S
H2752 C2770 0.953 1_655 S
H2753 C2772 0.951 1_655 S
H2754 C2774 0.950 . S
H2755 C2775 0.950 . S
H2756 C2777 0.950 . S
H2757 C2780 0.950 . S
H2758 C2781 0.950 . S
H2759 C2783 0.950 . S
H2760 C2784 0.950 . S
H2761 C2785 0.951 . S
H2762 C2787 0.966 . S
H2763 C2789 0.950 1_655 S
H2764 C2790 0.975 . S
H2765 C2792 0.950 1_554 S
H2766 C2795 0.950 . S
H2767 C2796 0.950 . S
H2768 C2798 0.950 . S
H2769 C2799 0.950 . S
C2770 H2752 0.953 1_455 S
C2770 C2771 1.364 . S
C2770 C2772 1.387 . S
C2771 C2770 1.364 . S
C2771 C2775 1.385 . S
C2772 H2753 0.951 1_455 S
C2772 C2770 1.387 . S
C2772 C2773 1.366 . S
C2773 C2772 1.366 . S
C2773 C2774 1.414 . S
C2773 C2776 1.499 . S
C2774 H2754 0.950 . S
C2774 C2773 1.414 . S
C2774 C2775 1.374 . S
C2775 H2755 0.950 . S
C2775 C2771 1.385 . S
C2775 C2774 1.374 . S
C2776 C2773 1.499 . S
C2776 C2777 1.373 . S
C2776 C2778 1.389 . S
C2777 H2756 0.950 . S
C2777 C2776 1.373 . S
C2777 C2793 1.377 . S
C2778 C2776 1.389 . S
C2778 C2779 1.524 1_556 S
C2778 C2792 1.377 . S
C2779 C2778 1.524 1_554 S
C2779 C2780 1.397 . S
C2779 C2784 1.363 1_455 S
C2780 H2757 0.950 . S
C2780 C2779 1.397 . S
C2780 C2781 1.334 . S
C2781 H2758 0.950 . S
C2781 C2780 1.334 . S
C2781 C2782 1.287 1_455 S
C2782 C2781 1.287 1_655 S
C2782 C2783 1.524 . S
C2782 H2801 0.913 . S
C2783 H2759 0.950 . S
C2783 C2782 1.524 . S
C2783 C2784 1.415 . S
C2784 H2760 0.950 . S
C2784 C2779 1.363 1_655 S
C2784 C2783 1.415 . S
C2785 H2761 0.951 . S
C2785 C2786 1.366 . S
C2785 C2787 1.369 1_554 S
C2786 C2785 1.366 . S
C2786 C2790 1.385 . S
C2787 H2762 0.966 . S
C2787 C2785 1.369 1_556 S
C2787 C2788 1.372 . S
C2788 C2787 1.372 . S
C2788 C2789 1.414 . S
C2788 C2791 1.499 . S
C2789 H2763 0.950 1_455 S
C2789 C2788 1.414 . S
C2789 C2790 1.374 1_556 S
C2790 H2764 0.975 . S
C2790 C2786 1.385 . S
C2790 C2789 1.374 1_554 S
C2791 C2788 1.499 . S
C2791 C2792 1.373 . S
C2791 C2793 1.389 . S
C2792 H2765 0.950 1_556 S
C2792 C2778 1.377 . S
C2792 C2791 1.373 . S
C2793 C2777 1.377 . S
C2793 C2791 1.389 . S
C2793 C2794 1.524 . S
C2794 C2793 1.524 . S
C2794 C2795 1.397 . S
C2794 C2799 1.363 . S
C2795 H2766 0.950 . S
C2795 C2794 1.397 . S
C2795 C2796 1.334 . S
C2796 H2767 0.950 . S
C2796 C2795 1.334 . S
C2796 C2797 1.287 . S
C2797 C2796 1.287 . S
C2797 C2798 1.524 . S
C2797 H2800 0.999 . S
C2798 H2768 0.950 . S
C2798 C2797 1.524 . S
C2798 C2799 1.415 . S
C2799 H2769 0.950 . S
C2799 C2794 1.363 . S
C2799 C2798 1.415 . S
H2800 C2797 0.999 . S
H2801 C2782 0.913 . S
H2802 C2820 0.951 . S
H2803 C2822 0.951 . S
H2804 C2824 0.950 . S
H2805 C2825 0.950 . S
H2806 C2827 0.950 . S
H2807 C2830 0.950 . S
H2808 C2831 0.950 . S
H2809 C2833 0.950 . S
H2810 C2834 0.950 . S
H2811 C2835 0.951 . S
H2812 C2837 0.951 . S
H2813 C2839 0.950 . S
H2814 C2840 0.950 . S
H2815 C2842 0.950 . S
H2816 C2845 0.950 . S
H2817 C2846 0.950 . S
H2818 C2848 0.950 . S
H2819 C2849 0.950 . S
C2820 H2802 0.951 . S
C2820 C2821 1.366 . S
C2820 C2822 1.388 . S
C2821 C2820 1.366 . S
C2821 C2825 1.385 . S
C2822 H2803 0.951 . S
C2822 C2820 1.388 . S
C2822 C2823 1.366 . S
C2823 C2822 1.366 . S
C2823 C2824 1.414 . S
C2823 C2826 1.499 . S
C2824 H2804 0.950 . S
C2824 C2823 1.414 . S
C2824 C2825 1.374 . S
C2825 H2805 0.950 . S
C2825 C2821 1.385 . S
C2825 C2824 1.374 . S
C2826 C2823 1.499 . S
C2826 C2827 1.373 . S
C2826 C2828 1.389 . S
C2827 H2806 0.950 . S
C2827 C2826 1.373 . S
C2827 C2843 1.377 . S
C2828 C2826 1.389 . S
C2828 C2829 1.524 . S
C2828 C2842 1.377 . S
C2829 C2828 1.524 . S
C2829 C2830 1.397 . S
C2829 C2834 1.363 . S
C2830 H2807 0.950 . S
C2830 C2829 1.397 . S
C2830 C2831 1.334 . S
C2831 H2808 0.950 . S
C2831 C2830 1.334 . S
C2831 C2832 1.287 . S
C2832 C2831 1.287 . S
C2832 C2833 1.524 . S
C2832 H2851 0.913 . S
C2833 H2809 0.950 . S
C2833 C2832 1.524 . S
C2833 C2834 1.415 . S
C2834 H2810 0.950 . S
C2834 C2829 1.363 . S
C2834 C2833 1.415 . S
C2835 H2811 0.951 . S
C2835 C2836 1.366 . S
C2835 C2837 1.388 . S
C2836 C2835 1.366 . S
C2836 C2840 1.385 . S
C2837 H2812 0.951 . S
C2837 C2835 1.388 . S
C2837 C2838 1.366 . S
C2838 C2837 1.366 . S
C2838 C2839 1.414 . S
C2838 C2841 1.499 . S
C2839 H2813 0.950 . S
C2839 C2838 1.414 . S
C2839 C2840 1.374 . S
C2840 H2814 0.950 . S
C2840 C2836 1.385 . S
C2840 C2839 1.374 . S
C2841 C2838 1.499 . S
C2841 C2842 1.373 . S
C2841 C2843 1.389 . S
C2842 H2815 0.950 . S
C2842 C2828 1.377 . S
C2842 C2841 1.373 . S
C2843 C2827 1.377 . S
C2843 C2841 1.389 . S
C2843 C2844 1.524 . S
C2844 C2843 1.524 . S
C2844 C2845 1.397 . S
C2844 C2849 1.363 . S
C2845 H2816 0.950 . S
C2845 C2844 1.397 . S
C2845 C2846 1.334 . S
C2846 H2817 0.950 . S
C2846 C2845 1.334 . S
C2846 C2847 1.287 . S
C2847 C2846 1.287 . S
C2847 C2848 1.524 . S
C2847 H2850 0.999 . S
C2848 H2818 0.950 . S
C2848 C2847 1.524 . S
C2848 C2849 1.415 . S
C2849 H2819 0.950 . S
C2849 C2844 1.363 . S
C2849 C2848 1.415 . S
H2850 C2847 0.999 . S
H2851 C2832 0.913 . S
H2852 C2870 0.951 . S
H2853 C2872 0.951 . S
H2854 C2874 0.950 . S
H2855 C2875 0.950 . S
H2856 C2877 0.950 . S
H2857 C2880 0.950 . S
H2858 C2881 0.950 . S
H2859 C2883 0.950 . S
H2860 C2884 0.950 . S
H2861 C2885 0.951 . S
H2862 C2887 0.951 . S
H2863 C2889 0.950 . S
H2864 C2890 0.950 . S
H2865 C2892 0.950 . S
H2866 C2895 0.950 . S
H2867 C2896 0.950 . S
H2868 C2898 0.950 . S
H2869 C2899 0.950 . S
C2870 H2852 0.951 . S
C2870 C2871 1.366 . S
C2870 C2872 1.388 . S
C2871 C2870 1.366 . S
C2871 C2875 1.385 . S
C2872 H2853 0.951 . S
C2872 C2870 1.388 . S
C2872 C2873 1.366 . S
C2873 C2872 1.366 . S
C2873 C2874 1.414 . S
C2873 C2876 1.499 . S
C2874 H2854 0.950 . S
C2874 C2873 1.414 . S
C2874 C2875 1.374 . S
C2875 H2855 0.950 . S
C2875 C2871 1.385 . S
C2875 C2874 1.374 . S
C2876 C2873 1.499 . S
C2876 C2877 1.373 . S
C2876 C2878 1.389 . S
C2877 H2856 0.950 . S
C2877 C2876 1.373 . S
C2877 C2893 1.377 . S
C2878 C2876 1.389 . S
C2878 C2879 1.524 . S
C2878 C2892 1.377 . S
C2879 C2878 1.524 . S
C2879 C2880 1.397 . S
C2879 C2884 1.363 . S
C2880 H2857 0.950 . S
C2880 C2879 1.397 . S
C2880 C2881 1.334 . S
C2881 H2858 0.950 . S
C2881 C2880 1.334 . S
C2881 C2882 1.287 . S
C2882 C2881 1.287 . S
C2882 C2883 1.524 . S
C2882 H2901 0.913 . S
C2883 H2859 0.950 . S
C2883 C2882 1.524 . S
C2883 C2884 1.415 . S
C2884 H2860 0.950 . S
C2884 C2879 1.363 . S
C2884 C2883 1.415 . S
C2885 H2861 0.951 . S
C2885 C2886 1.366 . S
C2885 C2887 1.388 . S
C2886 C2885 1.366 . S
C2886 C2890 1.385 . S
C2887 H2862 0.951 . S
C2887 C2885 1.388 . S
C2887 C2888 1.366 . S
C2888 C2887 1.366 . S
C2888 C2889 1.414 . S
C2888 C2891 1.499 . S
C2889 H2863 0.950 . S
C2889 C2888 1.414 . S
C2889 C2890 1.374 . S
C2890 H2864 0.950 . S
C2890 C2886 1.385 . S
C2890 C2889 1.374 . S
C2891 C2888 1.499 . S
C2891 C2892 1.373 . S
C2891 C2893 1.389 . S
C2892 H2865 0.950 . S
C2892 C2878 1.377 . S
C2892 C2891 1.373 . S
C2893 C2877 1.377 . S
C2893 C2891 1.389 . S
C2893 C2894 1.524 . S
C2894 C2893 1.524 . S
C2894 C2895 1.397 . S
C2894 C2899 1.363 . S
C2895 H2866 0.950 . S
C2895 C2894 1.397 . S
C2895 C2896 1.334 . S
C2896 H2867 0.950 . S
C2896 C2895 1.334 . S
C2896 C2897 1.287 . S
C2897 C2896 1.287 . S
C2897 C2898 1.524 . S
C2897 H2900 0.999 . S
C2898 H2868 0.950 . S
C2898 C2897 1.524 . S
C2898 C2899 1.415 . S
C2899 H2869 0.950 . S
C2899 C2894 1.363 . S
C2899 C2898 1.415 . S
H2900 C2897 0.999 . S
H2901 C2882 0.913 . S
H2902 C2920 0.951 . S
H2903 C2922 0.951 . S
H2904 C2924 0.950 . S
H2905 C2925 0.950 . S
H2906 C2927 0.950 . S
H2907 C2930 0.950 . S
H2908 C2931 0.950 . S
H2909 C2933 0.950 . S
H2910 C2934 0.950 . S
H2911 C2935 0.951 . S
H2912 C2937 0.951 . S
H2913 C2939 0.950 . S
H2914 C2940 0.950 . S
H2915 C2942 0.950 . S
H2916 C2945 0.950 . S
H2917 C2946 0.950 . S
H2918 C2948 0.950 . S
H2919 C2949 0.950 . S
C2920 H2902 0.951 . S
C2920 C2921 1.366 . S
C2920 C2922 1.388 . S
C2921 C2920 1.366 . S
C2921 C2925 1.385 . S
C2922 H2903 0.951 . S
C2922 C2920 1.388 . S
C2922 C2923 1.366 . S
C2923 C2922 1.366 . S
C2923 C2924 1.414 . S
C2923 C2926 1.499 . S
C2924 H2904 0.950 . S
C2924 C2923 1.414 . S
C2924 C2925 1.374 . S
C2925 H2905 0.950 . S
C2925 C2921 1.385 . S
C2925 C2924 1.374 . S
C2926 C2923 1.499 . S
C2926 C2927 1.373 . S
C2926 C2928 1.389 . S
C2927 H2906 0.950 . S
C2927 C2926 1.373 . S
C2927 C2943 1.377 . S
C2928 C2926 1.389 . S
C2928 C2929 1.524 . S
C2928 C2942 1.377 . S
C2929 C2928 1.524 . S
C2929 C2930 1.397 . S
C2929 C2934 1.363 . S
C2930 H2907 0.950 . S
C2930 C2929 1.397 . S
C2930 C2931 1.334 . S
C2931 H2908 0.950 . S
C2931 C2930 1.334 . S
C2931 C2932 1.287 . S
C2932 C2931 1.287 . S
C2932 C2933 1.524 . S
C2932 H2951 0.913 . S
C2933 H2909 0.950 . S
C2933 C2932 1.524 . S
C2933 C2934 1.415 . S
C2934 H2910 0.950 . S
C2934 C2929 1.363 . S
C2934 C2933 1.415 . S
C2935 H2911 0.951 . S
C2935 C2936 1.366 . S
C2935 C2937 1.388 . S
C2936 C2935 1.366 . S
C2936 C2940 1.385 . S
C2937 H2912 0.951 . S
C2937 C2935 1.388 . S
C2937 C2938 1.366 . S
C2938 C2937 1.366 . S
C2938 C2939 1.414 . S
C2938 C2941 1.499 . S
C2939 H2913 0.950 . S
C2939 C2938 1.414 . S
C2939 C2940 1.374 . S
C2940 H2914 0.950 . S
C2940 C2936 1.385 . S
C2940 C2939 1.374 . S
C2941 C2938 1.499 . S
C2941 C2942 1.373 . S
C2941 C2943 1.389 . S
C2942 H2915 0.950 . S
C2942 C2928 1.377 . S
C2942 C2941 1.373 . S
C2943 C2927 1.377 . S
C2943 C2941 1.389 . S
C2943 C2944 1.524 . S
C2944 C2943 1.524 . S
C2944 C2945 1.397 . S
C2944 C2949 1.363 . S
C2945 H2916 0.950 . S
C2945 C2944 1.397 . S
C2945 C2946 1.334 . S
C2946 H2917 0.950 . S
C2946 C2945 1.334 . S
C2946 C2947 1.287 . S
C2947 C2946 1.287 . S
C2947 C2948 1.524 . S
C2947 H2950 0.999 . S
C2948 H2918 0.950 . S
C2948 C2947 1.524 . S
C2948 C2949 1.415 . S
C2949 H2919 0.950 . S
C2949 C2944 1.363 . S
C2949 C2948 1.415 . S
H2950 C2947 0.999 . S
H2951 C2932 0.913 . S
H2952 C2970 0.951 . S
H2953 C2972 0.951 . S
H2954 C2974 0.950 . S
H2955 C2975 0.950 . S
H2956 C2977 0.950 . S
H2957 C2980 0.950 . S
H2958 C2981 0.950 . S
H2959 C2983 0.950 . S
H2960 C2984 0.950 . S
H2961 C2985 0.951 . S
H2962 C2987 0.951 . S
H2963 C2989 0.950 . S
H2964 C2990 0.950 . S
H2965 C2992 0.950 . S
H2966 C2995 0.950 . S
H2967 C2996 0.950 1_655 S
H2968 C2998 0.950 . S
H2969 C2999 0.950 . S
C2970 H2952 0.951 . S
C2970 C2971 1.366 . S
C2970 C2972 1.388 . S
C2971 C2970 1.366 . S
C2971 C2975 1.385 . S
C2972 H2953 0.951 . S
C2972 C2970 1.388 . S
C2972 C2973 1.366 . S
C2973 C2972 1.366 . S
C2973 C2974 1.414 . S
C2973 C2976 1.499 . S
C2974 H2954 0.950 . S
C2974 C2973 1.414 . S
C2974 C2975 1.374 . S
C2975 H2955 0.950 . S
C2975 C2971 1.385 . S
C2975 C2974 1.374 . S
C2976 C2973 1.499 . S
C2976 C2977 1.373 . S
C2976 C2978 1.389 . S
C2977 H2956 0.950 . S
C2977 C2976 1.373 . S
C2977 C2993 1.377 . S
C2978 C2976 1.389 . S
C2978 C2979 1.524 . S
C2978 C2992 1.377 . S
C2979 C2978 1.524 . S
C2979 C2980 1.397 . S
C2979 C2984 1.363 . S
C2980 H2957 0.950 . S
C2980 C2979 1.397 . S
C2980 C2981 1.334 . S
C2981 H2958 0.950 . S
C2981 C2980 1.334 . S
C2981 C2982 1.287 . S
C2982 C2981 1.287 . S
C2982 C2983 1.524 . S
C2982 H3001 0.913 . S
C2983 H2959 0.950 . S
C2983 C2982 1.524 . S
C2983 C2984 1.415 . S
C2984 H2960 0.950 . S
C2984 C2979 1.363 . S
C2984 C2983 1.415 . S
C2985 H2961 0.951 . S
C2985 C2986 1.366 . S
C2985 C2987 1.388 . S
C2986 C2985 1.366 . S
C2986 C2990 1.385 . S
C2987 H2962 0.951 . S
C2987 C2985 1.388 . S
C2987 C2988 1.366 . S
C2988 C2987 1.366 . S
C2988 C2989 1.414 . S
C2988 C2991 1.499 . S
C2989 H2963 0.950 . S
C2989 C2988 1.414 . S
C2989 C2990 1.374 . S
C2990 H2964 0.950 . S
C2990 C2986 1.385 . S
C2990 C2989 1.374 . S
C2991 C2988 1.499 . S
C2991 C2992 1.373 . S
C2991 C2993 1.389 . S
C2992 H2965 0.950 . S
C2992 C2978 1.377 . S
C2992 C2991 1.373 . S
C2993 C2977 1.377 . S
C2993 C2991 1.389 . S
C2993 C2994 1.524 . S
C2994 C2993 1.524 . S
C2994 C2995 1.397 . S
C2994 C2999 1.363 . S
C2995 H2966 0.950 . S
C2995 C2994 1.397 . S
C2995 C2996 1.334 . S
C2996 H2967 0.950 1_455 S
C2996 C2995 1.334 . S
C2996 C2997 1.287 . S
C2997 C2996 1.287 . S
C2997 C2998 1.524 . S
C2997 H3000 0.999 1_455 S
C2998 H2968 0.950 . S
C2998 C2997 1.524 . S
C2998 C2999 1.415 . S
C2999 H2969 0.950 . S
C2999 C2994 1.363 . S
C2999 C2998 1.415 . S
H3000 C2997 0.999 1_655 S
H3001 C2982 0.913 . S
H3002 C3020 0.951 . S
H3003 C3022 0.951 . S
H3004 C3024 0.950 . S
H3005 C3025 0.950 . S
H3006 C3027 0.950 . S
H3007 C3030 0.950 . S
H3008 C3031 0.950 . S
H3009 C3033 0.950 . S
H3010 C3034 0.950 . S
H3011 C3035 0.951 . S
H3012 C3037 0.951 . S
H3013 C3039 0.950 . S
H3014 C3040 0.950 . S
H3015 C3042 0.950 . S
H3016 C3045 0.950 . S
H3017 C3046 0.950 . S
H3018 C3048 0.950 . S
H3019 C3049 0.950 . S
C3020 H3002 0.951 . S
C3020 C3021 1.366 . S
C3020 C3022 1.388 . S
C3021 C3020 1.366 . S
C3021 C3025 1.385 . S
C3022 H3003 0.951 . S
C3022 C3020 1.388 . S
C3022 C3023 1.366 . S
C3023 C3022 1.366 . S
C3023 C3024 1.414 . S
C3023 C3026 1.499 . S
C3024 H3004 0.950 . S
C3024 C3023 1.414 . S
C3024 C3025 1.374 . S
C3025 H3005 0.950 . S
C3025 C3021 1.385 . S
C3025 C3024 1.374 . S
C3026 C3023 1.499 . S
C3026 C3027 1.373 . S
C3026 C3028 1.389 . S
C3027 H3006 0.950 . S
C3027 C3026 1.373 . S
C3027 C3043 1.377 . S
C3028 C3026 1.389 . S
C3028 C3029 1.524 . S
C3028 C3042 1.377 . S
C3029 C3028 1.524 . S
C3029 C3030 1.397 . S
C3029 C3034 1.363 . S
C3030 H3007 0.950 . S
C3030 C3029 1.397 . S
C3030 C3031 1.334 . S
C3031 H3008 0.950 . S
C3031 C3030 1.334 . S
C3031 C3032 1.287 . S
C3032 C3031 1.287 . S
C3032 C3033 1.524 . S
C3032 H3051 0.913 . S
C3033 H3009 0.950 . S
C3033 C3032 1.524 . S
C3033 C3034 1.415 . S
C3034 H3010 0.950 . S
C3034 C3029 1.363 . S
C3034 C3033 1.415 . S
C3035 H3011 0.951 . S
C3035 C3036 1.366 . S
C3035 C3037 1.388 . S
C3036 C3035 1.366 . S
C3036 C3040 1.385 . S
C3037 H3012 0.951 . S
C3037 C3035 1.388 . S
C3037 C3038 1.366 . S
C3038 C3037 1.366 . S
C3038 C3039 1.414 . S
C3038 C3041 1.499 . S
C3039 H3013 0.950 . S
C3039 C3038 1.414 . S
C3039 C3040 1.374 . S
C3040 H3014 0.950 . S
C3040 C3036 1.385 . S
C3040 C3039 1.374 . S
C3041 C3038 1.499 . S
C3041 C3042 1.373 . S
C3041 C3043 1.389 . S
C3042 H3015 0.950 . S
C3042 C3028 1.377 . S
C3042 C3041 1.373 . S
C3043 C3027 1.377 . S
C3043 C3041 1.389 . S
C3043 C3044 1.524 . S
C3044 C3043 1.524 . S
C3044 C3045 1.397 . S
C3044 C3049 1.363 . S
C3045 H3016 0.950 . S
C3045 C3044 1.397 . S
C3045 C3046 1.334 . S
C3046 H3017 0.950 . S
C3046 C3045 1.334 . S
C3046 C3047 1.287 . S
C3047 C3046 1.287 . S
C3047 C3048 1.524 . S
C3047 H3050 0.999 . S
C3048 H3018 0.950 . S
C3048 C3047 1.524 . S
C3048 C3049 1.415 . S
C3049 H3019 0.950 . S
C3049 C3044 1.363 . S
C3049 C3048 1.415 . S
H3050 C3047 0.999 . S
H3051 C3032 0.913 . S
H3052 C3070 0.951 . S
H3053 C3072 0.951 . S
H3054 C3074 0.950 . S
H3055 C3075 0.950 . S
H3056 C3077 0.950 . S
H3057 C3080 0.950 . S
H3058 C3081 0.950 . S
H3059 C3083 0.950 . S
H3060 C3084 0.950 . S
H3061 C3085 0.951 . S
H3062 C3087 0.951 . S
H3063 C3089 0.950 . S
H3064 C3090 0.950 . S
H3065 C3092 0.950 . S
H3066 C3095 0.950 . S
H3067 C3096 0.950 . S
H3068 C3098 0.950 . S
H3069 C3099 0.950 . S
C3070 H3052 0.951 . S
C3070 C3071 1.366 . S
C3070 C3072 1.388 . S
C3071 C3070 1.366 . S
C3071 C3075 1.385 . S
C3072 H3053 0.951 . S
C3072 C3070 1.388 . S
C3072 C3073 1.366 . S
C3073 C3072 1.366 . S
C3073 C3074 1.414 . S
C3073 C3076 1.499 . S
C3074 H3054 0.950 . S
C3074 C3073 1.414 . S
C3074 C3075 1.374 . S
C3075 H3055 0.950 . S
C3075 C3071 1.385 . S
C3075 C3074 1.374 . S
C3076 C3073 1.499 . S
C3076 C3077 1.373 . S
C3076 C3078 1.389 . S
C3077 H3056 0.950 . S
C3077 C3076 1.373 . S
C3077 C3093 1.377 . S
C3078 C3076 1.389 . S
C3078 C3079 1.524 . S
C3078 C3092 1.377 . S
C3079 C3078 1.524 . S
C3079 C3080 1.397 . S
C3079 C3084 1.363 . S
C3080 H3057 0.950 . S
C3080 C3079 1.397 . S
C3080 C3081 1.334 . S
C3081 H3058 0.950 . S
C3081 C3080 1.334 . S
C3081 C3082 1.287 . S
C3082 C3081 1.287 . S
C3082 C3083 1.524 . S
C3082 H3101 0.913 . S
C3083 H3059 0.950 . S
C3083 C3082 1.524 . S
C3083 C3084 1.415 . S
C3084 H3060 0.950 . S
C3084 C3079 1.363 . S
C3084 C3083 1.415 . S
C3085 H3061 0.951 . S
C3085 C3086 1.366 . S
C3085 C3087 1.388 . S
C3086 C3085 1.366 . S
C3086 C3090 1.385 . S
C3087 H3062 0.951 . S
C3087 C3085 1.388 . S
C3087 C3088 1.366 . S
C3088 C3087 1.366 . S
C3088 C3089 1.414 . S
C3088 C3091 1.499 . S
C3089 H3063 0.950 . S
C3089 C3088 1.414 . S
C3089 C3090 1.374 . S
C3090 H3064 0.950 . S
C3090 C3086 1.385 . S
C3090 C3089 1.374 . S
C3091 C3088 1.499 . S
C3091 C3092 1.373 . S
C3091 C3093 1.389 . S
C3092 H3065 0.950 . S
C3092 C3078 1.377 . S
C3092 C3091 1.373 . S
C3093 C3077 1.377 . S
C3093 C3091 1.389 . S
C3093 C3094 1.524 . S
C3094 C3093 1.524 . S
C3094 C3095 1.397 . S
C3094 C3099 1.363 . S
C3095 H3066 0.950 . S
C3095 C3094 1.397 . S
C3095 C3096 1.334 . S
C3096 H3067 0.950 . S
C3096 C3095 1.334 . S
C3096 C3097 1.287 . S
C3097 C3096 1.287 . S
C3097 C3098 1.524 . S
C3097 H3100 0.999 . S
C3098 H3068 0.950 . S
C3098 C3097 1.524 . S
C3098 C3099 1.415 . S
C3099 H3069 0.950 . S
C3099 C3094 1.363 . S
C3099 C3098 1.415 . S
H3100 C3097 0.999 . S
H3101 C3082 0.913 . S
H3102 C3120 0.951 . S
H3103 C3122 0.951 . S
H3104 C3124 0.950 . S
H3105 C3125 0.950 . S
H3106 C3127 0.950 . S
H3107 C3130 0.950 . S
H3108 C3131 0.950 . S
H3109 C3133 0.950 . S
H3110 C3134 0.950 . S
H3111 C3135 0.951 . S
H3112 C3137 0.951 . S
H3113 C3139 0.950 . S
H3114 C3140 0.950 . S
H3115 C3142 0.950 . S
H3116 C3145 0.950 . S
H3117 C3146 0.950 . S
H3118 C3148 0.950 . S
H3119 C3149 0.950 . S
C3120 H3102 0.951 . S
C3120 C3121 1.366 . S
C3120 C3122 1.388 . S
C3121 C3120 1.366 . S
C3121 C3125 1.385 . S
C3122 H3103 0.951 . S
C3122 C3120 1.388 . S
C3122 C3123 1.366 . S
C3123 C3122 1.366 . S
C3123 C3124 1.414 . S
C3123 C3126 1.499 . S
C3124 H3104 0.950 . S
C3124 C3123 1.414 . S
C3124 C3125 1.374 . S
C3125 H3105 0.950 . S
C3125 C3121 1.385 . S
C3125 C3124 1.374 . S
C3126 C3123 1.499 . S
C3126 C3127 1.373 . S
C3126 C3128 1.389 . S
C3127 H3106 0.950 . S
C3127 C3126 1.373 . S
C3127 C3143 1.377 . S
C3128 C3126 1.389 . S
C3128 C3129 1.524 . S
C3128 C3142 1.377 . S
C3129 C3128 1.524 . S
C3129 C3130 1.397 . S
C3129 C3134 1.363 . S
C3130 H3107 0.950 . S
C3130 C3129 1.397 . S
C3130 C3131 1.334 . S
C3131 H3108 0.950 . S
C3131 C3130 1.334 . S
C3131 C3132 1.287 . S
C3132 C3131 1.287 . S
C3132 C3133 1.524 . S
C3132 H3151 0.913 . S
C3133 H3109 0.950 . S
C3133 C3132 1.524 . S
C3133 C3134 1.415 . S
C3134 H3110 0.950 . S
C3134 C3129 1.363 . S
C3134 C3133 1.415 . S
C3135 H3111 0.951 . S
C3135 C3136 1.366 . S
C3135 C3137 1.388 . S
C3136 C3135 1.366 . S
C3136 C3140 1.385 . S
C3137 H3112 0.951 . S
C3137 C3135 1.388 . S
C3137 C3138 1.366 . S
C3138 C3137 1.366 . S
C3138 C3139 1.414 . S
C3138 C3141 1.499 . S
C3139 H3113 0.950 . S
C3139 C3138 1.414 . S
C3139 C3140 1.374 . S
C3140 H3114 0.950 . S
C3140 C3136 1.385 . S
C3140 C3139 1.374 . S
C3141 C3138 1.499 . S
C3141 C3142 1.373 . S
C3141 C3143 1.389 . S
C3142 H3115 0.950 . S
C3142 C3128 1.377 . S
C3142 C3141 1.373 . S
C3143 C3127 1.377 . S
C3143 C3141 1.389 . S
C3143 C3144 1.524 . S
C3144 C3143 1.524 . S
C3144 C3145 1.397 . S
C3144 C3149 1.363 . S
C3145 H3116 0.950 . S
C3145 C3144 1.397 . S
C3145 C3146 1.334 . S
C3146 H3117 0.950 . S
C3146 C3145 1.334 . S
C3146 C3147 1.287 . S
C3147 C3146 1.287 . S
C3147 C3148 1.524 . S
C3147 H3150 0.999 . S
C3148 H3118 0.950 . S
C3148 C3147 1.524 . S
C3148 C3149 1.415 . S
C3149 H3119 0.950 . S
C3149 C3144 1.363 . S
C3149 C3148 1.415 . S
H3150 C3147 0.999 . S
H3151 C3132 0.913 . S
H3152 C3170 0.951 . S
H3153 C3172 0.951 1_455 S
H3154 C3174 0.950 . S
H3155 C3175 0.950 . S
H3156 C3177 0.950 1_565 S
H3157 C3180 0.950 . S
H3158 C3181 0.950 1_655 S
H3159 C3183 0.950 . S
H3160 C3184 0.950 . S
H3161 C3185 0.978 . S
H3162 C3187 0.951 . S
H3163 C3189 0.950 . S
H3164 C3190 0.950 . S
H3165 C3192 0.950 . S
H3166 C3195 0.908 1_455 S
H3167 C3196 0.950 . S
H3168 C3198 0.950 . S
H3169 C3199 0.950 . S
C3170 H3152 0.951 . S
C3170 C3171 1.366 . S
C3170 C3172 1.388 . S
C3171 C3170 1.366 . S
C3171 C3175 1.385 . S
C3172 H3153 0.951 1_655 S
C3172 C3170 1.388 . S
C3172 C3173 1.366 . S
C3173 C3172 1.366 . S
C3173 C3174 1.414 . S
C3173 C3176 1.499 . S
C3174 H3154 0.950 . S
C3174 C3173 1.414 . S
C3174 C3175 1.374 . S
C3175 H3155 0.950 . S
C3175 C3171 1.385 . S
C3175 C3174 1.374 . S
C3176 C3173 1.499 . S
C3176 C3177 1.373 . S
C3176 C3178 1.396 . S
C3177 H3156 0.950 1_545 S
C3177 C3176 1.373 . S
C3177 C3193 1.377 . S
C3178 C3176 1.396 . S
C3178 C3179 1.523 1_655 S
C3178 C3192 1.372 1_655 S
C3179 C3178 1.523 1_455 S
C3179 C3180 1.397 1_455 S
C3179 C3184 1.363 . S
C3180 H3157 0.950 . S
C3180 C3179 1.397 1_655 S
C3180 C3181 1.334 1_655 S
C3181 H3158 0.950 1_455 S
C3181 C3180 1.334 1_455 S
C3181 C3182 1.287 . S
C3182 C3181 1.287 . S
C3182 C3183 1.524 . S
C3182 H3201 0.913 . S
C3183 H3159 0.950 . S
C3183 C3182 1.524 . S
C3183 C3184 1.415 . S
C3184 H3160 0.950 . S
C3184 C3179 1.363 . S
C3184 C3183 1.415 . S
C3185 H3161 0.978 . S
C3185 C3186 1.318 1_655 S
C3185 C3187 1.410 . S
C3186 C3185 1.318 1_455 S
C3186 C3190 1.385 . S
C3187 H3162 0.951 . S
C3187 C3185 1.410 . S
C3187 C3188 1.366 1_655 S
C3188 C3187 1.366 1_455 S
C3188 C3189 1.414 . S
C3188 C3191 1.467 1_455 S
C3189 H3163 0.950 . S
C3189 C3188 1.414 . S
C3189 C3190 1.374 . S
C3190 H3164 0.950 . S
C3190 C3186 1.385 . S
C3190 C3189 1.374 . S
C3191 C3188 1.467 1_655 S
C3191 C3192 1.361 1_655 S
C3191 C3193 1.444 . S
C3192 H3165 0.950 . S
C3192 C3178 1.372 1_455 S
C3192 C3191 1.361 1_455 S
C3193 C3177 1.377 . S
C3193 C3191 1.444 . S
C3193 C3194 1.524 1_545 S
C3194 C3193 1.524 1_565 S
C3194 C3195 1.397 . S
C3194 C3199 1.363 . S
C3195 H3166 0.908 1_655 S
C3195 C3194 1.397 . S
C3195 C3196 1.334 . S
C3196 H3167 0.950 . S
C3196 C3195 1.334 . S
C3196 C3197 1.287 . S
C3197 C3196 1.287 . S
C3197 C3198 1.524 . S
C3197 H3200 0.999 . S
C3198 H3168 0.950 . S
C3198 C3197 1.524 . S
C3198 C3199 1.415 . S
C3199 H3169 0.950 . S
C3199 C3194 1.363 . S
C3199 C3198 1.415 . S
H3200 C3197 0.999 . S
H3201 C3182 0.913 . S
H3202 C3220 0.951 . S
H3203 C3222 0.951 . S
H3204 C3224 0.950 . S
H3205 C3225 0.950 . S
H3206 C3227 0.950 . S
H3207 C3230 0.950 . S
H3208 C3231 0.950 . S
H3209 C3233 0.950 . S
H3210 C3234 0.950 . S
H3211 C3235 0.951 . S
H3212 C3237 0.951 . S
H3213 C3239 0.950 . S
H3214 C3240 0.950 . S
H3215 C3242 0.950 . S
H3216 C3245 0.950 . S
H3217 C3246 0.950 . S
H3218 C3248 0.950 . S
H3219 C3249 0.950 . S
C3220 H3202 0.951 . S
C3220 C3221 1.366 . S
C3220 C3222 1.388 . S
C3221 C3220 1.366 . S
C3221 C3225 1.385 . S
C3222 H3203 0.951 . S
C3222 C3220 1.388 . S
C3222 C3223 1.366 . S
C3223 C3222 1.366 . S
C3223 C3224 1.414 . S
C3223 C3226 1.499 . S
C3224 H3204 0.950 . S
C3224 C3223 1.414 . S
C3224 C3225 1.374 . S
C3225 H3205 0.950 . S
C3225 C3221 1.385 . S
C3225 C3224 1.374 . S
C3226 C3223 1.499 . S
C3226 C3227 1.373 . S
C3226 C3228 1.389 . S
C3227 H3206 0.950 . S
C3227 C3226 1.373 . S
C3227 C3243 1.377 . S
C3228 C3226 1.389 . S
C3228 C3229 1.524 . S
C3228 C3242 1.377 . S
C3229 C3228 1.524 . S
C3229 C3230 1.397 . S
C3229 C3234 1.363 . S
C3230 H3207 0.950 . S
C3230 C3229 1.397 . S
C3230 C3231 1.334 . S
C3231 H3208 0.950 . S
C3231 C3230 1.334 . S
C3231 C3232 1.287 . S
C3232 C3231 1.287 . S
C3232 C3233 1.524 . S
C3232 H3251 0.913 . S
C3233 H3209 0.950 . S
C3233 C3232 1.524 . S
C3233 C3234 1.415 . S
C3234 H3210 0.950 . S
C3234 C3229 1.363 . S
C3234 C3233 1.415 . S
C3235 H3211 0.951 . S
C3235 C3236 1.366 . S
C3235 C3237 1.388 . S
C3236 C3235 1.366 . S
C3236 C3240 1.385 . S
C3237 H3212 0.951 . S
C3237 C3235 1.388 . S
C3237 C3238 1.366 . S
C3238 C3237 1.366 . S
C3238 C3239 1.414 . S
C3238 C3241 1.499 . S
C3239 H3213 0.950 . S
C3239 C3238 1.414 . S
C3239 C3240 1.374 . S
C3240 H3214 0.950 . S
C3240 C3236 1.385 . S
C3240 C3239 1.374 . S
C3241 C3238 1.499 . S
C3241 C3242 1.373 . S
C3241 C3243 1.389 . S
C3242 H3215 0.950 . S
C3242 C3228 1.377 . S
C3242 C3241 1.373 . S
C3243 C3227 1.377 . S
C3243 C3241 1.389 . S
C3243 C3244 1.524 . S
C3244 C3243 1.524 . S
C3244 C3245 1.397 . S
C3244 C3249 1.363 . S
C3245 H3216 0.950 . S
C3245 C3244 1.397 . S
C3245 C3246 1.334 . S
C3246 H3217 0.950 . S
C3246 C3245 1.334 . S
C3246 C3247 1.287 . S
C3247 C3246 1.287 . S
C3247 C3248 1.524 . S
C3247 H3250 0.999 . S
C3248 H3218 0.950 . S
C3248 C3247 1.524 . S
C3248 C3249 1.415 . S
C3249 H3219 0.950 . S
C3249 C3244 1.363 . S
C3249 C3248 1.415 . S
H3250 C3247 0.999 . S
H3251 C3232 0.913 . S
H3252 C3270 0.951 . S
H3253 C3272 0.951 . S
H3254 C3274 0.950 . S
H3255 C3275 0.950 . S
H3256 C3277 0.950 . S
H3257 C3280 0.950 . S
H3258 C3281 0.950 . S
H3259 C3283 0.950 . S
H3260 C3284 0.950 . S
H3261 C3285 0.951 . S
H3262 C3287 0.951 . S
H3263 C3289 0.950 . S
H3264 C3290 0.950 . S
H3265 C3292 0.950 . S
H3266 C3295 0.950 . S
H3267 C3296 0.950 . S
H3268 C3298 0.988 . S
H3269 C3299 0.950 . S
C3270 H3252 0.951 . S
C3270 C3271 1.359 1_545 S
C3270 C3272 1.388 . S
C3271 C3270 1.359 1_565 S
C3271 C3275 1.389 . S
C3272 H3253 0.951 . S
C3272 C3270 1.388 . S
C3272 C3273 1.366 . S
C3273 C3272 1.366 . S
C3273 C3274 1.414 1_545 S
C3273 C3276 1.499 . S
C3274 H3254 0.950 . S
C3274 C3273 1.414 1_565 S
C3274 C3275 1.374 . S
C3275 H3255 0.950 . S
C3275 C3271 1.389 . S
C3275 C3274 1.374 . S
C3276 C3273 1.499 . S
C3276 C3277 1.373 . S
C3276 C3278 1.389 . S
C3277 H3256 0.950 . S
C3277 C3276 1.373 . S
C3277 C3293 1.377 . S
C3278 C3276 1.389 . S
C3278 C3279 1.532 . S
C3278 C3292 1.377 . S
C3279 C3278 1.532 . S
C3279 C3280 1.332 1_545 S
C3279 C3284 1.418 . S
C3280 H3257 0.950 . S
C3280 C3279 1.332 1_565 S
C3280 C3281 1.334 . S
C3281 H3258 0.950 . S
C3281 C3280 1.334 . S
C3281 C3282 1.287 . S
C3282 C3281 1.287 . S
C3282 C3283 1.524 1_565 S
C3282 H3301 0.913 . S
C3283 H3259 0.950 . S
C3283 C3282 1.524 1_545 S
C3283 C3284 1.415 . S
C3284 H3260 0.950 . S
C3284 C3279 1.418 . S
C3284 C3283 1.415 . S
C3285 H3261 0.951 . S
C3285 C3286 1.366 1_565 S
C3285 C3287 1.388 . S
C3286 C3285 1.366 1_545 S
C3286 C3290 1.385 . S
C3287 H3262 0.951 . S
C3287 C3285 1.388 . S
C3287 C3288 1.366 1_565 S
C3288 C3287 1.366 1_545 S
C3288 C3289 1.414 . S
C3288 C3291 1.499 . S
C3289 H3263 0.950 . S
C3289 C3288 1.414 . S
C3289 C3290 1.374 . S
C3290 H3264 0.950 . S
C3290 C3286 1.385 . S
C3290 C3289 1.374 . S
C3291 C3288 1.499 . S
C3291 C3292 1.373 . S
C3291 C3293 1.389 . S
C3292 H3265 0.950 . S
C3292 C3278 1.377 . S
C3292 C3291 1.373 . S
C3293 C3277 1.377 . S
C3293 C3291 1.389 . S
C3293 C3294 1.524 . S
C3294 C3293 1.524 . S
C3294 C3295 1.397 . S
C3294 C3299 1.363 1_545 S
C3295 H3266 0.950 . S
C3295 C3294 1.397 . S
C3295 C3296 1.334 . S
C3296 H3267 0.950 . S
C3296 C3295 1.334 . S
C3296 C3297 1.287 . S
C3297 C3296 1.287 . S
C3297 C3298 1.476 1_545 S
C3297 H3300 0.999 . S
C3298 H3268 0.988 . S
C3298 C3297 1.476 1_565 S
C3298 C3299 1.421 . S
C3299 H3269 0.950 . S
C3299 C3294 1.363 1_565 S
C3299 C3298 1.421 . S
H3300 C3297 0.999 . S
H3301 C3282 0.913 . S
H3302 C3320 0.951 . S
H3303 C3322 0.951 . S
H3304 C3324 0.950 . S
H3305 C3325 0.950 . S
H3306 C3327 0.950 . S
H3307 C3330 0.950 . S
H3308 C3331 0.950 . S
H3309 C3333 0.950 . S
H3310 C3334 0.950 . S
H3311 C3335 0.951 . S
H3312 C3337 0.951 . S
H3313 C3339 0.950 . S
H3314 C3340 0.950 . S
H3315 C3342 0.950 . S
H3316 C3345 0.950 . S
H3317 C3346 0.950 . S
H3318 C3348 0.950 . S
H3319 C3349 0.950 . S
C3320 H3302 0.951 . S
C3320 C3321 1.366 . S
C3320 C3322 1.388 . S
C3321 C3320 1.366 . S
C3321 C3325 1.385 . S
C3322 H3303 0.951 . S
C3322 C3320 1.388 . S
C3322 C3323 1.366 . S
C3323 C3322 1.366 . S
C3323 C3324 1.414 . S
C3323 C3326 1.499 . S
C3324 H3304 0.950 . S
C3324 C3323 1.414 . S
C3324 C3325 1.374 . S
C3325 H3305 0.950 . S
C3325 C3321 1.385 . S
C3325 C3324 1.374 . S
C3326 C3323 1.499 . S
C3326 C3327 1.373 . S
C3326 C3328 1.389 . S
C3327 H3306 0.950 . S
C3327 C3326 1.373 . S
C3327 C3343 1.377 . S
C3328 C3326 1.389 . S
C3328 C3329 1.524 . S
C3328 C3342 1.377 . S
C3329 C3328 1.524 . S
C3329 C3330 1.397 . S
C3329 C3334 1.363 . S
C3330 H3307 0.950 . S
C3330 C3329 1.397 . S
C3330 C3331 1.334 . S
C3331 H3308 0.950 . S
C3331 C3330 1.334 . S
C3331 C3332 1.287 . S
C3332 C3331 1.287 . S
C3332 C3333 1.524 . S
C3332 H3351 0.913 . S
C3333 H3309 0.950 . S
C3333 C3332 1.524 . S
C3333 C3334 1.415 . S
C3334 H3310 0.950 . S
C3334 C3329 1.363 . S
C3334 C3333 1.415 . S
C3335 H3311 0.951 . S
C3335 C3336 1.366 . S
C3335 C3337 1.388 . S
C3336 C3335 1.366 . S
C3336 C3340 1.385 . S
C3337 H3312 0.951 . S
C3337 C3335 1.388 . S
C3337 C3338 1.366 . S
C3338 C3337 1.366 . S
C3338 C3339 1.414 . S
C3338 C3341 1.499 . S
C3339 H3313 0.950 . S
C3339 C3338 1.414 . S
C3339 C3340 1.374 . S
C3340 H3314 0.950 . S
C3340 C3336 1.385 . S
C3340 C3339 1.374 . S
C3341 C3338 1.499 . S
C3341 C3342 1.373 . S
C3341 C3343 1.389 . S
C3342 H3315 0.950 . S
C3342 C3328 1.377 . S
C3342 C3341 1.373 . S
C3343 C3327 1.377 . S
C3343 C3341 1.389 . S
C3343 C3344 1.524 . S
C3344 C3343 1.524 . S
C3344 C3345 1.397 . S
C3344 C3349 1.363 . S
C3345 H3316 0.950 . S
C3345 C3344 1.397 . S
C3345 C3346 1.334 . S
C3346 H3317 0.950 . S
C3346 C3345 1.334 . S
C3346 C3347 1.287 . S
C3347 C3346 1.287 . S
C3347 C3348 1.524 . S
C3347 H3350 0.999 . S
C3348 H3318 0.950 . S
C3348 C3347 1.524 . S
C3348 C3349 1.415 . S
C3349 H3319 0.950 . S
C3349 C3344 1.363 . S
C3349 C3348 1.415 . S
H3350 C3347 0.999 . S
H3351 C3332 0.913 . S
H3352 C3370 0.951 . S
H3353 C3372 0.923 1_455 S
H3354 C3374 0.950 1_565 S
H3355 C3375 0.950 1_565 S
H3356 C3377 0.950 . S
H3357 C3380 0.947 1_565 S
H3358 C3381 0.987 . S
H3359 C3383 0.950 . S
H3360 C3384 0.950 . S
H3361 C3385 0.951 1_665 S
H3362 C3387 0.951 1_565 S
H3363 C3389 0.950 . S
H3364 C3390 0.950 . S
H3365 C3392 0.950 . S
H3366 C3395 0.950 . S
H3367 C3396 0.950 . S
H3368 C3398 0.950 . S
H3369 C3399 0.960 . S
C3370 H3352 0.951 . S
C3370 C3371 1.366 . S
C3370 C3372 1.388 . S
C3371 C3370 1.366 . S
C3371 C3375 1.385 . S
C3372 H3353 0.923 1_655 S
C3372 C3370 1.388 . S
C3372 C3373 1.366 . S
C3373 C3372 1.366 . S
C3373 C3374 1.414 . S
C3373 C3376 1.499 . S
C3374 H3354 0.950 1_545 S
C3374 C3373 1.414 . S
C3374 C3375 1.374 . S
C3375 H3355 0.950 1_545 S
C3375 C3371 1.385 . S
C3375 C3374 1.374 . S
C3376 C3373 1.499 . S
C3376 C3377 1.373 . S
C3376 C3378 1.389 1_655 S
C3377 H3356 0.950 . S
C3377 C3376 1.373 . S
C3377 C3393 1.377 . S
C3378 C3376 1.389 1_455 S
C3378 C3379 1.524 . S
C3378 C3392 1.377 . S
C3379 C3378 1.524 . S
C3379 C3380 1.397 . S
C3379 C3384 1.363 . S
C3380 H3357 0.947 1_545 S
C3380 C3379 1.397 . S
C3380 C3381 1.334 . S
C3381 H3358 0.987 . S
C3381 C3380 1.334 . S
C3381 C3382 1.287 . S
C3382 C3381 1.287 . S
C3382 C3383 1.524 . S
C3382 H3401 0.913 . S
C3383 H3359 0.950 . S
C3383 C3382 1.524 . S
C3383 C3384 1.415 . S
C3384 H3360 0.950 . S
C3384 C3379 1.363 . S
C3384 C3383 1.415 . S
C3385 H3361 0.951 1_445 S
C3385 C3386 1.366 . S
C3385 C3387 1.388 1_455 S
C3386 C3385 1.366 . S
C3386 C3390 1.385 . S
C3387 H3362 0.951 1_545 S
C3387 C3385 1.388 1_655 S
C3387 C3388 1.366 1_655 S
C3388 C3387 1.366 1_455 S
C3388 C3389 1.414 . S
C3388 C3391 1.497 1_455 S
C3389 H3363 0.950 . S
C3389 C3388 1.414 . S
C3389 C3390 1.374 . S
C3390 H3364 0.950 . S
C3390 C3386 1.385 . S
C3390 C3389 1.374 . S
C3391 C3388 1.497 1_655 S
C3391 C3392 1.363 1_655 S
C3391 C3393 1.401 . S
C3392 H3365 0.950 . S
C3392 C3378 1.377 . S
C3392 C3391 1.363 1_455 S
C3393 C3377 1.377 . S
C3393 C3391 1.401 . S
C3393 C3394 1.524 . S
C3394 C3393 1.524 . S
C3394 C3395 1.397 . S
C3394 C3399 1.354 1_545 S
C3395 H3366 0.950 . S
C3395 C3394 1.397 . S
C3395 C3396 1.334 . S
C3396 H3367 0.950 . S
C3396 C3395 1.334 . S
C3396 C3397 1.287 . S
C3397 C3396 1.287 . S
C3397 C3398 1.524 1_545 S
C3397 H3400 0.999 . S
C3398 H3368 0.950 . S
C3398 C3397 1.524 1_565 S
C3398 C3399 1.415 . S
C3399 H3369 0.960 . S
C3399 C3394 1.354 1_565 S
C3399 C3398 1.415 . S
H3400 C3397 0.999 . S
H3401 C3382 0.913 . S
H3402 C3420 0.951 . S
H3403 C3422 0.951 . S
H3404 C3424 0.950 . S
H3405 C3425 0.950 . S
H3406 C3427 0.950 . S
H3407 C3430 0.950 . S
H3408 C3431 0.950 . S
H3409 C3433 0.950 . S
H3410 C3434 0.950 . S
H3411 C3435 0.951 . S
H3412 C3437 0.951 . S
H3413 C3439 0.950 . S
H3414 C3440 0.950 . S
H3415 C3442 0.950 . S
H3416 C3445 0.950 . S
H3417 C3446 0.950 . S
H3418 C3448 0.950 . S
H3419 C3449 0.950 . S
C3420 H3402 0.951 . S
C3420 C3421 1.366 . S
C3420 C3422 1.388 . S
C3421 C3420 1.366 . S
C3421 C3425 1.385 . S
C3422 H3403 0.951 . S
C3422 C3420 1.388 . S
C3422 C3423 1.366 . S
C3423 C3422 1.366 . S
C3423 C3424 1.414 . S
C3423 C3426 1.499 . S
C3424 H3404 0.950 . S
C3424 C3423 1.414 . S
C3424 C3425 1.374 . S
C3425 H3405 0.950 . S
C3425 C3421 1.385 . S
C3425 C3424 1.374 . S
C3426 C3423 1.499 . S
C3426 C3427 1.373 . S
C3426 C3428 1.389 . S
C3427 H3406 0.950 . S
C3427 C3426 1.373 . S
C3427 C3443 1.377 . S
C3428 C3426 1.389 . S
C3428 C3429 1.524 . S
C3428 C3442 1.377 . S
C3429 C3428 1.524 . S
C3429 C3430 1.397 . S
C3429 C3434 1.363 . S
C3430 H3407 0.950 . S
C3430 C3429 1.397 . S
C3430 C3431 1.334 . S
C3431 H3408 0.950 . S
C3431 C3430 1.334 . S
C3431 C3432 1.287 . S
C3432 C3431 1.287 . S
C3432 C3433 1.524 . S
C3432 H3451 0.913 . S
C3433 H3409 0.950 . S
C3433 C3432 1.524 . S
C3433 C3434 1.415 . S
C3434 H3410 0.950 . S
C3434 C3429 1.363 . S
C3434 C3433 1.415 . S
C3435 H3411 0.951 . S
C3435 C3436 1.366 . S
C3435 C3437 1.388 . S
C3436 C3435 1.366 . S
C3436 C3440 1.385 . S
C3437 H3412 0.951 . S
C3437 C3435 1.388 . S
C3437 C3438 1.366 . S
C3438 C3437 1.366 . S
C3438 C3439 1.414 . S
C3438 C3441 1.499 . S
C3439 H3413 0.950 . S
C3439 C3438 1.414 . S
C3439 C3440 1.374 . S
C3440 H3414 0.950 . S
C3440 C3436 1.385 . S
C3440 C3439 1.374 . S
C3441 C3438 1.499 . S
C3441 C3442 1.373 . S
C3441 C3443 1.389 . S
C3442 H3415 0.950 . S
C3442 C3428 1.377 . S
C3442 C3441 1.373 . S
C3443 C3427 1.377 . S
C3443 C3441 1.389 . S
C3443 C3444 1.524 . S
C3444 C3443 1.524 . S
C3444 C3445 1.397 . S
C3444 C3449 1.363 . S
C3445 H3416 0.950 . S
C3445 C3444 1.397 . S
C3445 C3446 1.334 . S
C3446 H3417 0.950 . S
C3446 C3445 1.334 . S
C3446 C3447 1.287 . S
C3447 C3446 1.287 . S
C3447 C3448 1.524 . S
C3447 H3450 0.999 . S
C3448 H3418 0.950 . S
C3448 C3447 1.524 . S
C3448 C3449 1.415 . S
C3449 H3419 0.950 . S
C3449 C3444 1.363 . S
C3449 C3448 1.415 . S
H3450 C3447 0.999 . S
H3451 C3432 0.913 . S
H3452 C3470 0.951 . S
H3453 C3472 0.951 . S
H3454 C3474 0.950 1_565 S
H3455 C3475 0.950 1_565 S
H3456 C3477 0.950 . S
H3457 C3480 0.950 . S
H3458 C3481 0.950 . S
H3459 C3483 0.950 . S
H3460 C3484 0.950 . S
H3461 C3485 0.951 . S
H3462 C3487 0.951 . S
H3463 C3489 0.950 . S
H3464 C3490 0.950 . S
H3465 C3492 0.950 . S
H3466 C3495 0.950 . S
H3467 C3496 0.950 . S
H3468 C3498 0.950 . S
H3469 C3499 0.950 . S
C3470 H3452 0.951 . S
C3470 C3471 1.366 . S
C3470 C3472 1.388 . S
C3471 C3470 1.366 . S
C3471 C3475 1.385 . S
C3472 H3453 0.951 . S
C3472 C3470 1.388 . S
C3472 C3473 1.366 . S
C3473 C3472 1.366 . S
C3473 C3474 1.414 . S
C3473 C3476 1.499 . S
C3474 H3454 0.950 1_545 S
C3474 C3473 1.414 . S
C3474 C3475 1.374 . S
C3475 H3455 0.950 1_545 S
C3475 C3471 1.385 . S
C3475 C3474 1.374 . S
C3476 C3473 1.499 . S
C3476 C3477 1.373 . S
C3476 C3478 1.389 . S
C3477 H3456 0.950 . S
C3477 C3476 1.373 . S
C3477 C3493 1.377 . S
C3478 C3476 1.389 . S
C3478 C3479 1.524 . S
C3478 C3492 1.377 . S
C3479 C3478 1.524 . S
C3479 C3480 1.397 1_545 S
C3479 C3484 1.363 . S
C3480 H3457 0.950 . S
C3480 C3479 1.397 1_565 S
C3480 C3481 1.334 . S
C3481 H3458 0.950 . S
C3481 C3480 1.334 . S
C3481 C3482 1.287 . S
C3482 C3481 1.287 . S
C3482 C3483 1.524 1_565 S
C3482 H3501 0.913 . S
C3483 H3459 0.950 . S
C3483 C3482 1.524 1_545 S
C3483 C3484 1.415 . S
C3484 H3460 0.950 . S
C3484 C3479 1.363 . S
C3484 C3483 1.415 . S
C3485 H3461 0.951 . S
C3485 C3486 1.366 . S
C3485 C3487 1.388 . S
C3486 C3485 1.366 . S
C3486 C3490 1.385 . S
C3487 H3462 0.951 . S
C3487 C3485 1.388 . S
C3487 C3488 1.366 . S
C3488 C3487 1.366 . S
C3488 C3489 1.414 . S
C3488 C3491 1.499 . S
C3489 H3463 0.950 . S
C3489 C3488 1.414 . S
C3489 C3490 1.374 . S
C3490 H3464 0.950 . S
C3490 C3486 1.385 . S
C3490 C3489 1.374 . S
C3491 C3488 1.499 . S
C3491 C3492 1.373 . S
C3491 C3493 1.389 . S
C3492 H3465 0.950 . S
C3492 C3478 1.377 . S
C3492 C3491 1.373 . S
C3493 C3477 1.377 . S
C3493 C3491 1.389 . S
C3493 C3494 1.524 . S
C3494 C3493 1.524 . S
C3494 C3495 1.397 . S
C3494 C3499 1.363 . S
C3495 H3466 0.950 . S
C3495 C3494 1.397 . S
C3495 C3496 1.334 . S
C3496 H3467 0.950 . S
C3496 C3495 1.334 . S
C3496 C3497 1.287 . S
C3497 C3496 1.287 . S
C3497 C3498 1.524 . S
C3497 H3500 0.999 . S
C3498 H3468 0.950 . S
C3498 C3497 1.524 . S
C3498 C3499 1.415 . S
C3499 H3469 0.950 . S
C3499 C3494 1.363 . S
C3499 C3498 1.415 . S
H3500 C3497 0.999 . S
H3501 C3482 0.913 . S
H3502 C3520 0.951 . S
H3503 C3522 0.951 . S
H3504 C3524 0.950 . S
H3505 C3525 0.950 . S
H3506 C3527 0.950 . S
H3507 C3530 0.950 . S
H3508 C3531 0.950 . S
H3509 C3533 0.950 . S
H3510 C3534 0.950 . S
H3511 C3535 0.951 . S
H3512 C3537 0.951 . S
H3513 C3539 0.950 . S
H3514 C3540 0.950 . S
H3515 C3542 0.950 . S
H3516 C3545 0.950 . S
H3517 C3546 0.950 . S
H3518 C3548 0.950 . S
H3519 C3549 0.950 . S
C3520 H3502 0.951 . S
C3520 C3521 1.366 . S
C3520 C3522 1.388 . S
C3521 C3520 1.366 . S
C3521 C3525 1.385 . S
C3522 H3503 0.951 . S
C3522 C3520 1.388 . S
C3522 C3523 1.366 . S
C3523 C3522 1.366 . S
C3523 C3524 1.414 . S
C3523 C3526 1.499 . S
C3524 H3504 0.950 . S
C3524 C3523 1.414 . S
C3524 C3525 1.374 . S
C3525 H3505 0.950 . S
C3525 C3521 1.385 . S
C3525 C3524 1.374 . S
C3526 C3523 1.499 . S
C3526 C3527 1.373 . S
C3526 C3528 1.389 . S
C3527 H3506 0.950 . S
C3527 C3526 1.373 . S
C3527 C3543 1.377 . S
C3528 C3526 1.389 . S
C3528 C3529 1.524 . S
C3528 C3542 1.377 . S
C3529 C3528 1.524 . S
C3529 C3530 1.397 . S
C3529 C3534 1.363 . S
C3530 H3507 0.950 . S
C3530 C3529 1.397 . S
C3530 C3531 1.334 . S
C3531 H3508 0.950 . S
C3531 C3530 1.334 . S
C3531 C3532 1.287 . S
C3532 C3531 1.287 . S
C3532 C3533 1.524 . S
C3532 H3551 0.913 . S
C3533 H3509 0.950 . S
C3533 C3532 1.524 . S
C3533 C3534 1.415 . S
C3534 H3510 0.950 . S
C3534 C3529 1.363 . S
C3534 C3533 1.415 . S
C3535 H3511 0.951 . S
C3535 C3536 1.366 . S
C3535 C3537 1.388 . S
C3536 C3535 1.366 . S
C3536 C3540 1.385 . S
C3537 H3512 0.951 . S
C3537 C3535 1.388 . S
C3537 C3538 1.366 . S
C3538 C3537 1.366 . S
C3538 C3539 1.414 . S
C3538 C3541 1.499 . S
C3539 H3513 0.950 . S
C3539 C3538 1.414 . S
C3539 C3540 1.374 . S
C3540 H3514 0.950 . S
C3540 C3536 1.385 . S
C3540 C3539 1.374 . S
C3541 C3538 1.499 . S
C3541 C3542 1.373 . S
C3541 C3543 1.389 . S
C3542 H3515 0.950 . S
C3542 C3528 1.377 . S
C3542 C3541 1.373 . S
C3543 C3527 1.377 . S
C3543 C3541 1.389 . S
C3543 C3544 1.524 . S
C3544 C3543 1.524 . S
C3544 C3545 1.397 . S
C3544 C3549 1.363 . S
C3545 H3516 0.950 . S
C3545 C3544 1.397 . S
C3545 C3546 1.334 . S
C3546 H3517 0.950 . S
C3546 C3545 1.334 . S
C3546 C3547 1.287 . S
C3547 C3546 1.287 . S
C3547 C3548 1.524 . S
C3547 H3550 0.999 . S
C3548 H3518 0.950 . S
C3548 C3547 1.524 . S
C3548 C3549 1.415 . S
C3549 H3519 0.950 . S
C3549 C3544 1.363 . S
C3549 C3548 1.415 . S
H3550 C3547 0.999 . S
H3551 C3532 0.913 . S
H3552 C3570 0.951 . S
H3553 C3572 0.951 . S
H3554 C3574 0.950 . S
H3555 C3575 0.950 . S
H3556 C3577 0.950 . S
H3557 C3580 0.981 . S
H3558 C3581 0.950 . S
H3559 C3583 0.950 . S
H3560 C3584 0.950 . S
H3561 C3585 0.951 . S
H3562 C3587 0.951 . S
H3563 C3589 0.950 . S
H3564 C3590 0.950 . S
H3565 C3592 0.950 . S
H3566 C3595 0.950 . S
H3567 C3596 0.952 1_545 S
H3568 C3598 0.950 . S
H3569 C3599 0.950 . S
C3570 H3552 0.951 . S
C3570 C3571 1.352 1_554 S
C3570 C3572 1.388 . S
C3571 C3570 1.352 1_556 S
C3571 C3575 1.394 . S
C3572 H3553 0.951 . S
C3572 C3570 1.388 . S
C3572 C3573 1.366 . S
C3573 C3572 1.366 . S
C3573 C3574 1.414 1_554 S
C3573 C3576 1.499 . S
C3574 H3554 0.950 . S
C3574 C3573 1.414 1_556 S
C3574 C3575 1.374 . S
C3575 H3555 0.950 . S
C3575 C3571 1.394 . S
C3575 C3574 1.374 . S
C3576 C3573 1.499 . S
C3576 C3577 1.373 . S
C3576 C3578 1.389 . S
C3577 H3556 0.950 . S
C3577 C3576 1.373 . S
C3577 C3593 1.377 . S
C3578 C3576 1.389 . S
C3578 C3579 1.524 . S
C3578 C3592 1.377 . S
C3579 C3578 1.524 . S
C3579 C3580 1.397 . S
C3579 C3584 1.363 . S
C3580 H3557 0.981 . S
C3580 C3579 1.397 . S
C3580 C3581 1.334 . S
C3581 H3558 0.950 . S
C3581 C3580 1.334 . S
C3581 C3582 1.287 . S
C3582 C3581 1.287 . S
C3582 C3583 1.524 . S
C3582 H3601 0.913 . S
C3583 H3559 0.950 . S
C3583 C3582 1.524 . S
C3583 C3584 1.415 . S
C3584 H3560 0.950 . S
C3584 C3579 1.363 . S
C3584 C3583 1.415 . S
C3585 H3561 0.951 . S
C3585 C3586 1.366 . S
C3585 C3587 1.388 . S
C3586 C3585 1.366 . S
C3586 C3590 1.385 . S
C3587 H3562 0.951 . S
C3587 C3585 1.388 . S
C3587 C3588 1.366 . S
C3588 C3587 1.366 . S
C3588 C3589 1.414 . S
C3588 C3591 1.499 . S
C3589 H3563 0.950 . S
C3589 C3588 1.414 . S
C3589 C3590 1.374 . S
C3590 H3564 0.950 . S
C3590 C3586 1.385 . S
C3590 C3589 1.374 . S
C3591 C3588 1.499 . S
C3591 C3592 1.373 . S
C3591 C3593 1.389 . S
C3592 H3565 0.950 . S
C3592 C3578 1.377 . S
C3592 C3591 1.373 . S
C3593 C3577 1.377 . S
C3593 C3591 1.389 . S
C3593 C3594 1.524 . S
C3594 C3593 1.524 . S
C3594 C3595 1.397 . S
C3594 C3599 1.363 1_554 S
C3595 H3566 0.950 . S
C3595 C3594 1.397 . S
C3595 C3596 1.334 . S
C3596 H3567 0.952 1_565 S
C3596 C3595 1.334 . S
C3596 C3597 1.287 . S
C3597 C3596 1.287 . S
C3597 C3598 1.524 1_554 S
C3597 H3600 0.999 1_565 S
C3598 H3568 0.950 . S
C3598 C3597 1.524 1_556 S
C3598 C3599 1.415 . S
C3599 H3569 0.950 . S
C3599 C3594 1.363 1_556 S
C3599 C3598 1.415 . S
H3600 C3597 0.999 1_545 S
H3601 C3582 0.913 . S
H3602 C3620 0.951 . S
H3603 C3622 0.952 . S
H3604 C3624 0.950 . S
H3605 C3625 0.950 . S
H3606 C3627 0.939 1_556 S
H3607 C3630 0.950 . S
H3608 C3631 0.950 . S
H3609 C3633 0.950 . S
H3610 C3634 0.950 . S
H3611 C3635 0.951 . S
H3612 C3637 0.951 . S
H3613 C3639 0.950 1_556 S
H3614 C3640 0.937 1_556 S
H3615 C3642 0.950 . S
H3616 C3645 0.950 . S
H3617 C3646 0.950 . S
H3618 C3648 0.950 . S
H3619 C3649 0.946 . S
C3620 H3602 0.951 . S
C3620 C3621 1.366 1_556 S
C3620 C3622 1.389 . S
C3621 C3620 1.366 1_554 S
C3621 C3625 1.385 . S
C3622 H3603 0.952 . S
C3622 C3620 1.389 . S
C3622 C3623 1.363 1_556 S
C3623 C3622 1.363 1_554 S
C3623 C3624 1.414 . S
C3623 C3626 1.499 . S
C3624 H3604 0.950 . S
C3624 C3623 1.414 . S
C3624 C3625 1.374 . S
C3625 H3605 0.950 . S
C3625 C3621 1.385 . S
C3625 C3624 1.374 . S
C3626 C3623 1.499 . S
C3626 C3627 1.373 . S
C3626 C3628 1.389 . S
C3627 H3606 0.939 1_554 S
C3627 C3626 1.373 . S
C3627 C3643 1.377 . S
C3628 C3626 1.389 . S
C3628 C3629 1.524 . S
C3628 C3642 1.377 . S
C3629 C3628 1.524 . S
C3629 C3630 1.397 . S
C3629 C3634 1.363 . S
C3630 H3607 0.950 . S
C3630 C3629 1.397 . S
C3630 C3631 1.334 . S
C3631 H3608 0.950 . S
C3631 C3630 1.334 . S
C3631 C3632 1.287 . S
C3632 C3631 1.287 . S
C3632 C3633 1.524 . S
C3632 H3651 0.913 . S
C3633 H3609 0.950 . S
C3633 C3632 1.524 . S
C3633 C3634 1.415 . S
C3634 H3610 0.950 . S
C3634 C3629 1.363 . S
C3634 C3633 1.415 . S
C3635 H3611 0.951 . S
C3635 C3636 1.366 . S
C3635 C3637 1.388 . S
C3636 C3635 1.366 . S
C3636 C3640 1.385 . S
C3637 H3612 0.951 . S
C3637 C3635 1.388 . S
C3637 C3638 1.366 . S
C3638 C3637 1.366 . S
C3638 C3639 1.414 . S
C3638 C3641 1.499 . S
C3639 H3613 0.950 1_554 S
C3639 C3638 1.414 . S
C3639 C3640 1.374 . S
C3640 H3614 0.937 1_554 S
C3640 C3636 1.385 . S
C3640 C3639 1.374 . S
C3641 C3638 1.499 . S
C3641 C3642 1.373 . S
C3641 C3643 1.389 . S
C3642 H3615 0.950 . S
C3642 C3628 1.377 . S
C3642 C3641 1.373 . S
C3643 C3627 1.377 . S
C3643 C3641 1.389 . S
C3643 C3644 1.524 1_554 S
C3644 C3643 1.524 1_556 S
C3644 C3645 1.397 . S
C3644 C3649 1.365 1_556 S
C3645 H3616 0.950 . S
C3645 C3644 1.397 . S
C3645 C3646 1.334 . S
C3646 H3617 0.950 . S
C3646 C3645 1.334 . S
C3646 C3647 1.287 . S
C3647 C3646 1.287 . S
C3647 C3648 1.524 . S
C3647 H3650 0.999 . S
C3648 H3618 0.950 . S
C3648 C3647 1.524 . S
C3648 C3649 1.417 1_556 S
C3649 H3619 0.946 . S
C3649 C3644 1.365 1_554 S
C3649 C3648 1.417 1_554 S
H3650 C3647 0.999 . S
H3651 C3632 0.913 . S
H3652 C3670 0.951 . S
H3653 C3672 0.951 . S
H3654 C3674 0.950 . S
H3655 C3675 0.950 . S
H3656 C3677 0.950 . S
H3657 C3680 0.950 . S
H3658 C3681 0.950 . S
H3659 C3683 0.950 . S
H3660 C3684 0.950 . S
H3661 C3685 0.951 . S
H3662 C3687 0.951 . S
H3663 C3689 0.950 . S
H3664 C3690 0.950 . S
H3665 C3692 0.950 . S
H3666 C3695 0.950 . S
H3667 C3696 0.950 . S
H3668 C3698 0.950 . S
H3669 C3699 0.950 . S
C3670 H3652 0.951 . S
C3670 C3671 1.366 . S
C3670 C3672 1.388 . S
C3671 C3670 1.366 . S
C3671 C3675 1.385 . S
C3672 H3653 0.951 . S
C3672 C3670 1.388 . S
C3672 C3673 1.366 . S
C3673 C3672 1.366 . S
C3673 C3674 1.414 . S
C3673 C3676 1.499 . S
C3674 H3654 0.950 . S
C3674 C3673 1.414 . S
C3674 C3675 1.374 . S
C3675 H3655 0.950 . S
C3675 C3671 1.385 . S
C3675 C3674 1.374 . S
C3676 C3673 1.499 . S
C3676 C3677 1.373 . S
C3676 C3678 1.389 . S
C3677 H3656 0.950 . S
C3677 C3676 1.373 . S
C3677 C3693 1.377 . S
C3678 C3676 1.389 . S
C3678 C3679 1.524 . S
C3678 C3692 1.377 . S
C3679 C3678 1.524 . S
C3679 C3680 1.397 . S
C3679 C3684 1.363 . S
C3680 H3657 0.950 . S
C3680 C3679 1.397 . S
C3680 C3681 1.334 . S
C3681 H3658 0.950 . S
C3681 C3680 1.334 . S
C3681 C3682 1.287 . S
C3682 C3681 1.287 . S
C3682 C3683 1.524 . S
C3682 H3701 0.913 . S
C3683 H3659 0.950 . S
C3683 C3682 1.524 . S
C3683 C3684 1.415 . S
C3684 H3660 0.950 . S
C3684 C3679 1.363 . S
C3684 C3683 1.415 . S
C3685 H3661 0.951 . S
C3685 C3686 1.366 . S
C3685 C3687 1.388 . S
C3686 C3685 1.366 . S
C3686 C3690 1.385 . S
C3687 H3662 0.951 . S
C3687 C3685 1.388 . S
C3687 C3688 1.366 . S
C3688 C3687 1.366 . S
C3688 C3689 1.414 . S
C3688 C3691 1.499 . S
C3689 H3663 0.950 . S
C3689 C3688 1.414 . S
C3689 C3690 1.374 . S
C3690 H3664 0.950 . S
C3690 C3686 1.385 . S
C3690 C3689 1.374 . S
C3691 C3688 1.499 . S
C3691 C3692 1.373 . S
C3691 C3693 1.389 . S
C3692 H3665 0.950 . S
C3692 C3678 1.377 . S
C3692 C3691 1.373 . S
C3693 C3677 1.377 . S
C3693 C3691 1.389 . S
C3693 C3694 1.524 . S
C3694 C3693 1.524 . S
C3694 C3695 1.397 . S
C3694 C3699 1.363 . S
C3695 H3666 0.950 . S
C3695 C3694 1.397 . S
C3695 C3696 1.334 . S
C3696 H3667 0.950 . S
C3696 C3695 1.334 . S
C3696 C3697 1.287 . S
C3697 C3696 1.287 . S
C3697 C3698 1.524 . S
C3697 H3700 0.999 . S
C3698 H3668 0.950 . S
C3698 C3697 1.524 . S
C3698 C3699 1.415 . S
C3699 H3669 0.950 . S
C3699 C3694 1.363 . S
C3699 C3698 1.415 . S
H3700 C3697 0.999 . S
H3701 C3682 0.913 . S
H3702 C3720 0.951 . S
H3703 C3722 0.951 . S
H3704 C3724 0.950 . S
H3705 C3725 0.950 . S
H3706 C3727 0.950 . S
H3707 C3730 0.950 . S
H3708 C3731 0.950 . S
H3709 C3733 0.950 . S
H3710 C3734 0.950 . S
H3711 C3735 0.951 . S
H3712 C3737 0.951 . S
H3713 C3739 0.950 . S
H3714 C3740 0.950 . S
H3715 C3742 0.950 . S
H3716 C3745 0.950 . S
H3717 C3746 0.950 . S
H3718 C3748 0.950 . S
H3719 C3749 0.950 . S
C3720 H3702 0.951 . S
C3720 C3721 1.366 . S
C3720 C3722 1.388 . S
C3721 C3720 1.366 . S
C3721 C3725 1.385 . S
C3722 H3703 0.951 . S
C3722 C3720 1.388 . S
C3722 C3723 1.366 . S
C3723 C3722 1.366 . S
C3723 C3724 1.414 . S
C3723 C3726 1.499 . S
C3724 H3704 0.950 . S
C3724 C3723 1.414 . S
C3724 C3725 1.374 . S
C3725 H3705 0.950 . S
C3725 C3721 1.385 . S
C3725 C3724 1.374 . S
C3726 C3723 1.499 . S
C3726 C3727 1.373 . S
C3726 C3728 1.389 . S
C3727 H3706 0.950 . S
C3727 C3726 1.373 . S
C3727 C3743 1.377 . S
C3728 C3726 1.389 . S
C3728 C3729 1.524 . S
C3728 C3742 1.377 . S
C3729 C3728 1.524 . S
C3729 C3730 1.397 . S
C3729 C3734 1.363 . S
C3730 H3707 0.950 . S
C3730 C3729 1.397 . S
C3730 C3731 1.334 . S
C3731 H3708 0.950 . S
C3731 C3730 1.334 . S
C3731 C3732 1.287 . S
C3732 C3731 1.287 . S
C3732 C3733 1.524 . S
C3732 H3751 0.913 . S
C3733 H3709 0.950 . S
C3733 C3732 1.524 . S
C3733 C3734 1.415 . S
C3734 H3710 0.950 . S
C3734 C3729 1.363 . S
C3734 C3733 1.415 . S
C3735 H3711 0.951 . S
C3735 C3736 1.366 . S
C3735 C3737 1.388 . S
C3736 C3735 1.366 . S
C3736 C3740 1.385 . S
C3737 H3712 0.951 . S
C3737 C3735 1.388 . S
C3737 C3738 1.366 . S
C3738 C3737 1.366 . S
C3738 C3739 1.414 . S
C3738 C3741 1.499 . S
C3739 H3713 0.950 . S
C3739 C3738 1.414 . S
C3739 C3740 1.374 . S
C3740 H3714 0.950 . S
C3740 C3736 1.385 . S
C3740 C3739 1.374 . S
C3741 C3738 1.499 . S
C3741 C3742 1.373 . S
C3741 C3743 1.389 . S
C3742 H3715 0.950 . S
C3742 C3728 1.377 . S
C3742 C3741 1.373 . S
C3743 C3727 1.377 . S
C3743 C3741 1.389 . S
C3743 C3744 1.524 . S
C3744 C3743 1.524 . S
C3744 C3745 1.397 . S
C3744 C3749 1.363 . S
C3745 H3716 0.950 . S
C3745 C3744 1.397 . S
C3745 C3746 1.334 . S
C3746 H3717 0.950 . S
C3746 C3745 1.334 . S
C3746 C3747 1.287 . S
C3747 C3746 1.287 . S
C3747 C3748 1.524 . S
C3747 H3750 0.999 . S
C3748 H3718 0.950 . S
C3748 C3747 1.524 . S
C3748 C3749 1.415 . S
C3749 H3719 0.950 . S
C3749 C3744 1.363 . S
C3749 C3748 1.415 . S
H3750 C3747 0.999 . S
H3751 C3732 0.913 . S
H3752 C3770 0.951 . S
H3753 C3772 0.951 . S
H3754 C3774 0.950 . S
H3755 C3775 0.950 . S
H3756 C3777 0.950 . S
H3757 C3780 0.950 . S
H3758 C3781 0.950 . S
H3759 C3783 0.950 . S
H3760 C3784 0.950 . S
H3761 C3785 0.951 . S
H3762 C3787 0.951 . S
H3763 C3789 0.950 . S
H3764 C3790 0.950 . S
H3765 C3792 0.950 . S
H3766 C3795 0.950 . S
H3767 C3796 0.950 . S
H3768 C3798 0.950 . S
H3769 C3799 0.950 . S
C3770 H3752 0.951 . S
C3770 C3771 1.366 . S
C3770 C3772 1.388 . S
C3771 C3770 1.366 . S
C3771 C3775 1.385 . S
C3772 H3753 0.951 . S
C3772 C3770 1.388 . S
C3772 C3773 1.366 . S
C3773 C3772 1.366 . S
C3773 C3774 1.414 . S
C3773 C3776 1.499 . S
C3774 H3754 0.950 . S
C3774 C3773 1.414 . S
C3774 C3775 1.374 . S
C3775 H3755 0.950 . S
C3775 C3771 1.385 . S
C3775 C3774 1.374 . S
C3776 C3773 1.499 . S
C3776 C3777 1.373 . S
C3776 C3778 1.389 . S
C3777 H3756 0.950 . S
C3777 C3776 1.373 . S
C3777 C3793 1.377 . S
C3778 C3776 1.389 . S
C3778 C3779 1.524 . S
C3778 C3792 1.377 . S
C3779 C3778 1.524 . S
C3779 C3780 1.397 . S
C3779 C3784 1.363 . S
C3780 H3757 0.950 . S
C3780 C3779 1.397 . S
C3780 C3781 1.334 . S
C3781 H3758 0.950 . S
C3781 C3780 1.334 . S
C3781 C3782 1.287 . S
C3782 C3781 1.287 . S
C3782 C3783 1.524 . S
C3782 H3801 0.913 . S
C3783 H3759 0.950 . S
C3783 C3782 1.524 . S
C3783 C3784 1.415 . S
C3784 H3760 0.950 . S
C3784 C3779 1.363 . S
C3784 C3783 1.415 . S
C3785 H3761 0.951 . S
C3785 C3786 1.366 . S
C3785 C3787 1.388 . S
C3786 C3785 1.366 . S
C3786 C3790 1.385 . S
C3787 H3762 0.951 . S
C3787 C3785 1.388 . S
C3787 C3788 1.366 . S
C3788 C3787 1.366 . S
C3788 C3789 1.414 . S
C3788 C3791 1.499 . S
C3789 H3763 0.950 . S
C3789 C3788 1.414 . S
C3789 C3790 1.374 . S
C3790 H3764 0.950 . S
C3790 C3786 1.385 . S
C3790 C3789 1.374 . S
C3791 C3788 1.499 . S
C3791 C3792 1.373 . S
C3791 C3793 1.389 . S
C3792 H3765 0.950 . S
C3792 C3778 1.377 . S
C3792 C3791 1.373 . S
C3793 C3777 1.377 . S
C3793 C3791 1.389 . S
C3793 C3794 1.524 . S
C3794 C3793 1.524 . S
C3794 C3795 1.397 . S
C3794 C3799 1.363 . S
C3795 H3766 0.950 . S
C3795 C3794 1.397 . S
C3795 C3796 1.334 . S
C3796 H3767 0.950 . S
C3796 C3795 1.334 . S
C3796 C3797 1.287 . S
C3797 C3796 1.287 . S
C3797 C3798 1.524 . S
C3797 H3800 0.999 . S
C3798 H3768 0.950 . S
C3798 C3797 1.524 . S
C3798 C3799 1.415 . S
C3799 H3769 0.950 . S
C3799 C3794 1.363 . S
C3799 C3798 1.415 . S
H3800 C3797 0.999 . S
H3801 C3782 0.913 . S
H3802 C3820 0.951 . S
H3803 C3822 0.951 . S
H3804 C3824 0.950 . S
H3805 C3825 0.950 . S
H3806 C3827 0.950 . S
H3807 C3830 0.950 . S
H3808 C3831 0.950 . S
H3809 C3833 0.950 . S
H3810 C3834 0.950 . S
H3811 C3835 0.951 . S
H3812 C3837 0.951 . S
H3813 C3839 0.950 . S
H3814 C3840 0.950 . S
H3815 C3842 0.950 . S
H3816 C3845 0.950 . S
H3817 C3846 0.950 . S
H3818 C3848 0.950 . S
H3819 C3849 0.950 . S
C3820 H3802 0.951 . S
C3820 C3821 1.366 . S
C3820 C3822 1.388 . S
C3821 C3820 1.366 . S
C3821 C3825 1.385 . S
C3822 H3803 0.951 . S
C3822 C3820 1.388 . S
C3822 C3823 1.366 . S
C3823 C3822 1.366 . S
C3823 C3824 1.414 . S
C3823 C3826 1.499 . S
C3824 H3804 0.950 . S
C3824 C3823 1.414 . S
C3824 C3825 1.374 . S
C3825 H3805 0.950 . S
C3825 C3821 1.385 . S
C3825 C3824 1.374 . S
C3826 C3823 1.499 . S
C3826 C3827 1.373 . S
C3826 C3828 1.389 . S
C3827 H3806 0.950 . S
C3827 C3826 1.373 . S
C3827 C3843 1.377 . S
C3828 C3826 1.389 . S
C3828 C3829 1.524 . S
C3828 C3842 1.377 . S
C3829 C3828 1.524 . S
C3829 C3830 1.397 . S
C3829 C3834 1.363 . S
C3830 H3807 0.950 . S
C3830 C3829 1.397 . S
C3830 C3831 1.334 . S
C3831 H3808 0.950 . S
C3831 C3830 1.334 . S
C3831 C3832 1.287 . S
C3832 C3831 1.287 . S
C3832 C3833 1.524 . S
C3832 H3851 0.913 . S
C3833 H3809 0.950 . S
C3833 C3832 1.524 . S
C3833 C3834 1.415 . S
C3834 H3810 0.950 . S
C3834 C3829 1.363 . S
C3834 C3833 1.415 . S
C3835 H3811 0.951 . S
C3835 C3836 1.366 . S
C3835 C3837 1.388 . S
C3836 C3835 1.366 . S
C3836 C3840 1.385 . S
C3837 H3812 0.951 . S
C3837 C3835 1.388 . S
C3837 C3838 1.366 . S
C3838 C3837 1.366 . S
C3838 C3839 1.414 . S
C3838 C3841 1.499 . S
C3839 H3813 0.950 . S
C3839 C3838 1.414 . S
C3839 C3840 1.374 . S
C3840 H3814 0.950 . S
C3840 C3836 1.385 . S
C3840 C3839 1.374 . S
C3841 C3838 1.499 . S
C3841 C3842 1.373 . S
C3841 C3843 1.389 . S
C3842 H3815 0.950 . S
C3842 C3828 1.377 . S
C3842 C3841 1.373 . S
C3843 C3827 1.377 . S
C3843 C3841 1.389 . S
C3843 C3844 1.524 . S
C3844 C3843 1.524 . S
C3844 C3845 1.397 . S
C3844 C3849 1.363 . S
C3845 H3816 0.950 . S
C3845 C3844 1.397 . S
C3845 C3846 1.334 . S
C3846 H3817 0.950 . S
C3846 C3845 1.334 . S
C3846 C3847 1.287 . S
C3847 C3846 1.287 . S
C3847 C3848 1.524 . S
C3847 H3850 0.999 . S
C3848 H3818 0.950 . S
C3848 C3847 1.524 . S
C3848 C3849 1.415 . S
C3849 H3819 0.950 . S
C3849 C3844 1.363 . S
C3849 C3848 1.415 . S
H3850 C3847 0.999 . S
H3851 C3832 0.913 . S
H3852 C3870 0.951 . S
H3853 C3872 0.951 . S
H3854 C3874 0.950 . S
H3855 C3875 0.950 . S
H3856 C3877 0.950 . S
H3857 C3880 0.950 . S
H3858 C3881 0.950 . S
H3859 C3883 0.950 . S
H3860 C3884 0.950 . S
H3861 C3885 0.951 . S
H3862 C3887 0.951 . S
H3863 C3889 0.950 . S
H3864 C3890 0.950 . S
H3865 C3892 0.950 . S
H3866 C3895 0.950 . S
H3867 C3896 0.950 . S
H3868 C3898 0.950 . S
H3869 C3899 0.950 . S
C3870 H3852 0.951 . S
C3870 C3871 1.366 . S
C3870 C3872 1.388 . S
C3871 C3870 1.366 . S
C3871 C3875 1.385 . S
C3872 H3853 0.951 . S
C3872 C3870 1.388 . S
C3872 C3873 1.366 . S
C3873 C3872 1.366 . S
C3873 C3874 1.414 . S
C3873 C3876 1.499 . S
C3874 H3854 0.950 . S
C3874 C3873 1.414 . S
C3874 C3875 1.374 . S
C3875 H3855 0.950 . S
C3875 C3871 1.385 . S
C3875 C3874 1.374 . S
C3876 C3873 1.499 . S
C3876 C3877 1.373 . S
C3876 C3878 1.389 . S
C3877 H3856 0.950 . S
C3877 C3876 1.373 . S
C3877 C3893 1.377 . S
C3878 C3876 1.389 . S
C3878 C3879 1.524 . S
C3878 C3892 1.377 . S
C3879 C3878 1.524 . S
C3879 C3880 1.397 . S
C3879 C3884 1.363 . S
C3880 H3857 0.950 . S
C3880 C3879 1.397 . S
C3880 C3881 1.334 . S
C3881 H3858 0.950 . S
C3881 C3880 1.334 . S
C3881 C3882 1.287 . S
C3882 C3881 1.287 . S
C3882 C3883 1.524 . S
C3882 H3901 0.913 . S
C3883 H3859 0.950 . S
C3883 C3882 1.524 . S
C3883 C3884 1.415 . S
C3884 H3860 0.950 . S
C3884 C3879 1.363 . S
C3884 C3883 1.415 . S
C3885 H3861 0.951 . S
C3885 C3886 1.366 . S
C3885 C3887 1.388 . S
C3886 C3885 1.366 . S
C3886 C3890 1.385 . S
C3887 H3862 0.951 . S
C3887 C3885 1.388 . S
C3887 C3888 1.366 . S
C3888 C3887 1.366 . S
C3888 C3889 1.414 . S
C3888 C3891 1.499 . S
C3889 H3863 0.950 . S
C3889 C3888 1.414 . S
C3889 C3890 1.374 . S
C3890 H3864 0.950 . S
C3890 C3886 1.385 . S
C3890 C3889 1.374 . S
C3891 C3888 1.499 . S
C3891 C3892 1.373 . S
C3891 C3893 1.389 . S
C3892 H3865 0.950 . S
C3892 C3878 1.377 . S
C3892 C3891 1.373 . S
C3893 C3877 1.377 . S
C3893 C3891 1.389 . S
C3893 C3894 1.524 . S
C3894 C3893 1.524 . S
C3894 C3895 1.397 . S
C3894 C3899 1.363 . S
C3895 H3866 0.950 . S
C3895 C3894 1.397 . S
C3895 C3896 1.334 . S
C3896 H3867 0.950 . S
C3896 C3895 1.334 . S
C3896 C3897 1.287 . S
C3897 C3896 1.287 . S
C3897 C3898 1.524 . S
C3897 H3900 0.999 . S
C3898 H3868 0.950 . S
C3898 C3897 1.524 . S
C3898 C3899 1.415 . S
C3899 H3869 0.950 . S
C3899 C3894 1.363 . S
C3899 C3898 1.415 . S
H3900 C3897 0.999 . S
H3901 C3882 0.913 . S
H3902 C3920 0.951 . S
H3903 C3922 0.951 . S
H3904 C3924 0.950 . S
H3905 C3925 0.950 . S
H3906 C3927 0.950 . S
H3907 C3930 0.950 . S
H3908 C3931 0.950 . S
H3909 C3933 0.950 . S
H3910 C3934 0.950 . S
H3911 C3935 0.951 . S
H3912 C3937 0.951 . S
H3913 C3939 0.950 . S
H3914 C3940 0.950 . S
H3915 C3942 0.950 . S
H3916 C3945 0.950 . S
H3917 C3946 0.950 . S
H3918 C3948 0.950 . S
H3919 C3949 0.950 . S
C3920 H3902 0.951 . S
C3920 C3921 1.366 . S
C3920 C3922 1.388 . S
C3921 C3920 1.366 . S
C3921 C3925 1.385 . S
C3922 H3903 0.951 . S
C3922 C3920 1.388 . S
C3922 C3923 1.366 . S
C3923 C3922 1.366 . S
C3923 C3924 1.414 . S
C3923 C3926 1.499 . S
C3924 H3904 0.950 . S
C3924 C3923 1.414 . S
C3924 C3925 1.374 . S
C3925 H3905 0.950 . S
C3925 C3921 1.385 . S
C3925 C3924 1.374 . S
C3926 C3923 1.499 . S
C3926 C3927 1.373 . S
C3926 C3928 1.389 . S
C3927 H3906 0.950 . S
C3927 C3926 1.373 . S
C3927 C3943 1.377 . S
C3928 C3926 1.389 . S
C3928 C3929 1.524 . S
C3928 C3942 1.377 . S
C3929 C3928 1.524 . S
C3929 C3930 1.397 . S
C3929 C3934 1.363 . S
C3930 H3907 0.950 . S
C3930 C3929 1.397 . S
C3930 C3931 1.334 . S
C3931 H3908 0.950 . S
C3931 C3930 1.334 . S
C3931 C3932 1.287 . S
C3932 C3931 1.287 . S
C3932 C3933 1.524 . S
C3932 H3951 0.913 . S
C3933 H3909 0.950 . S
C3933 C3932 1.524 . S
C3933 C3934 1.415 . S
C3934 H3910 0.950 . S
C3934 C3929 1.363 . S
C3934 C3933 1.415 . S
C3935 H3911 0.951 . S
C3935 C3936 1.366 . S
C3935 C3937 1.388 . S
C3936 C3935 1.366 . S
C3936 C3940 1.385 . S
C3937 H3912 0.951 . S
C3937 C3935 1.388 . S
C3937 C3938 1.366 . S
C3938 C3937 1.366 . S
C3938 C3939 1.414 . S
C3938 C3941 1.499 . S
C3939 H3913 0.950 . S
C3939 C3938 1.414 . S
C3939 C3940 1.374 . S
C3940 H3914 0.950 . S
C3940 C3936 1.385 . S
C3940 C3939 1.374 . S
C3941 C3938 1.499 . S
C3941 C3942 1.373 . S
C3941 C3943 1.389 . S
C3942 H3915 0.950 . S
C3942 C3928 1.377 . S
C3942 C3941 1.373 . S
C3943 C3927 1.377 . S
C3943 C3941 1.389 . S
C3943 C3944 1.524 . S
C3944 C3943 1.524 . S
C3944 C3945 1.397 . S
C3944 C3949 1.363 . S
C3945 H3916 0.950 . S
C3945 C3944 1.397 . S
C3945 C3946 1.334 . S
C3946 H3917 0.950 . S
C3946 C3945 1.334 . S
C3946 C3947 1.287 . S
C3947 C3946 1.287 . S
C3947 C3948 1.524 . S
C3947 H3950 0.999 . S
C3948 H3918 0.950 . S
C3948 C3947 1.524 . S
C3948 C3949 1.415 . S
C3949 H3919 0.950 . S
C3949 C3944 1.363 . S
C3949 C3948 1.415 . S
H3950 C3947 0.999 . S
H3951 C3932 0.913 . S
H3952 C3970 0.951 . S
H3953 C3972 0.951 . S
H3954 C3974 0.950 . S
H3955 C3975 0.950 . S
H3956 C3977 0.950 . S
H3957 C3980 0.950 . S
H3958 C3981 0.950 1_655 S
H3959 C3983 0.950 . S
H3960 C3984 0.950 . S
H3961 C3985 0.999 . S
H3962 C3987 0.951 . S
H3963 C3989 0.950 . S
H3964 C3990 0.950 . S
H3965 C3992 0.950 . S
H3966 C3995 0.950 . S
H3967 C3996 0.950 . S
H3968 C3998 0.950 . S
H3969 C3999 0.950 . S
C3970 H3952 0.951 . S
C3970 C3971 1.366 . S
C3970 C3972 1.388 . S
C3971 C3970 1.366 . S
C3971 C3975 1.385 . S
C3972 H3953 0.951 . S
C3972 C3970 1.388 . S
C3972 C3973 1.366 . S
C3973 C3972 1.366 . S
C3973 C3974 1.414 . S
C3973 C3976 1.499 . S
C3974 H3954 0.950 . S
C3974 C3973 1.414 . S
C3974 C3975 1.374 . S
C3975 H3955 0.950 . S
C3975 C3971 1.385 . S
C3975 C3974 1.374 . S
C3976 C3973 1.499 . S
C3976 C3977 1.373 . S
C3976 C3978 1.389 . S
C3977 H3956 0.950 . S
C3977 C3976 1.373 . S
C3977 C3993 1.377 . S
C3978 C3976 1.389 . S
C3978 C3979 1.524 . S
C3978 C3992 1.377 . S
C3979 C3978 1.524 . S
C3979 C3980 1.397 . S
C3979 C3984 1.363 . S
C3980 H3957 0.950 . S
C3980 C3979 1.397 . S
C3980 C3981 1.334 . S
C3981 H3958 0.950 1_455 S
C3981 C3980 1.334 . S
C3981 C3982 1.287 . S
C3982 C3981 1.287 . S
C3982 C3983 1.524 . S
C3982 H4001 0.932 . S
C3983 H3959 0.950 . S
C3983 C3982 1.524 . S
C3983 C3984 1.415 . S
C3984 H3960 0.950 . S
C3984 C3979 1.363 . S
C3984 C3983 1.415 . S
C3985 H3961 0.999 . S
C3985 C3986 1.366 . S
C3985 C3987 1.388 . S
C3986 C3985 1.366 . S
C3986 C3990 1.385 . S
C3987 H3962 0.951 . S
C3987 C3985 1.388 . S
C3987 C3988 1.366 . S
C3988 C3987 1.366 . S
C3988 C3989 1.414 . S
C3988 C3991 1.499 . S
C3989 H3963 0.950 . S
C3989 C3988 1.414 . S
C3989 C3990 1.374 . S
C3990 H3964 0.950 . S
C3990 C3986 1.385 . S
C3990 C3989 1.374 . S
C3991 C3988 1.499 . S
C3991 C3992 1.373 . S
C3991 C3993 1.389 . S
C3992 H3965 0.950 . S
C3992 C3978 1.377 . S
C3992 C3991 1.373 . S
C3993 C3977 1.377 . S
C3993 C3991 1.389 . S
C3993 C3994 1.524 . S
C3994 C3993 1.524 . S
C3994 C3995 1.397 . S
C3994 C3999 1.363 1_554 S
C3995 H3966 0.950 . S
C3995 C3994 1.397 . S
C3995 C3996 1.334 . S
C3996 H3967 0.950 . S
C3996 C3995 1.334 . S
C3996 C3997 1.287 1_554 S
C3997 C3996 1.287 1_556 S
C3997 C3998 1.524 . S
C3997 H4000 0.999 . S
C3998 H3968 0.950 . S
C3998 C3997 1.524 . S
C3998 C3999 1.415 . S
C3999 H3969 0.950 . S
C3999 C3994 1.363 1_556 S
C3999 C3998 1.415 . S
H4000 C3997 0.999 . S
H4001 C3982 0.932 . S
H4002 C4020 0.951 . S
H4003 C4022 0.951 . S
H4004 C4024 0.950 . S
H4005 C4025 0.950 . S
H4006 C4027 0.950 . S
H4007 C4030 0.950 . S
H4008 C4031 0.950 . S
H4009 C4033 0.950 . S
H4010 C4034 0.950 . S
H4011 C4035 0.951 . S
H4012 C4037 0.951 . S
H4013 C4039 0.950 . S
H4014 C4040 0.950 . S
H4015 C4042 0.950 . S
H4016 C4045 0.950 . S
H4017 C4046 0.950 . S
H4018 C4048 0.950 . S
H4019 C4049 0.950 . S
C4020 H4002 0.951 . S
C4020 C4021 1.366 . S
C4020 C4022 1.388 . S
C4021 C4020 1.366 . S
C4021 C4025 1.385 . S
C4022 H4003 0.951 . S
C4022 C4020 1.388 . S
C4022 C4023 1.366 . S
C4023 C4022 1.366 . S
C4023 C4024 1.414 . S
C4023 C4026 1.499 . S
C4024 H4004 0.950 . S
C4024 C4023 1.414 . S
C4024 C4025 1.374 . S
C4025 H4005 0.950 . S
C4025 C4021 1.385 . S
C4025 C4024 1.374 . S
C4026 C4023 1.499 . S
C4026 C4027 1.373 . S
C4026 C4028 1.389 . S
C4027 H4006 0.950 . S
C4027 C4026 1.373 . S
C4027 C4043 1.377 . S
C4028 C4026 1.389 . S
C4028 C4029 1.524 . S
C4028 C4042 1.377 . S
C4029 C4028 1.524 . S
C4029 C4030 1.397 . S
C4029 C4034 1.363 . S
C4030 H4007 0.950 . S
C4030 C4029 1.397 . S
C4030 C4031 1.334 . S
C4031 H4008 0.950 . S
C4031 C4030 1.334 . S
C4031 C4032 1.287 . S
C4032 C4031 1.287 . S
C4032 C4033 1.524 . S
C4032 H4051 0.913 . S
C4033 H4009 0.950 . S
C4033 C4032 1.524 . S
C4033 C4034 1.415 . S
C4034 H4010 0.950 . S
C4034 C4029 1.363 . S
C4034 C4033 1.415 . S
C4035 H4011 0.951 . S
C4035 C4036 1.366 . S
C4035 C4037 1.388 . S
C4036 C4035 1.366 . S
C4036 C4040 1.385 . S
C4037 H4012 0.951 . S
C4037 C4035 1.388 . S
C4037 C4038 1.366 . S
C4038 C4037 1.366 . S
C4038 C4039 1.414 . S
C4038 C4041 1.499 . S
C4039 H4013 0.950 . S
C4039 C4038 1.414 . S
C4039 C4040 1.374 . S
C4040 H4014 0.950 . S
C4040 C4036 1.385 . S
C4040 C4039 1.374 . S
C4041 C4038 1.499 . S
C4041 C4042 1.373 . S
C4041 C4043 1.389 . S
C4042 H4015 0.950 . S
C4042 C4028 1.377 . S
C4042 C4041 1.373 . S
C4043 C4027 1.377 . S
C4043 C4041 1.389 . S
C4043 C4044 1.524 . S
C4044 C4043 1.524 . S
C4044 C4045 1.397 . S
C4044 C4049 1.363 . S
C4045 H4016 0.950 . S
C4045 C4044 1.397 . S
C4045 C4046 1.334 . S
C4046 H4017 0.950 . S
C4046 C4045 1.334 . S
C4046 C4047 1.287 . S
C4047 C4046 1.287 . S
C4047 C4048 1.524 . S
C4047 H4050 0.999 . S
C4048 H4018 0.950 . S
C4048 C4047 1.524 . S
C4048 C4049 1.415 . S
C4049 H4019 0.950 . S
C4049 C4044 1.363 . S
C4049 C4048 1.415 . S
H4050 C4047 0.999 . S
H4051 C4032 0.913 . S
H4052 C4070 0.951 . S
H4053 C4072 0.951 . S
H4054 C4074 0.950 . S
H4055 C4075 0.950 . S
H4056 C4077 0.950 . S
H4057 C4080 0.950 . S
H4058 C4081 0.950 . S
H4059 C4083 0.950 . S
H4060 C4084 0.950 . S
H4061 C4085 0.951 . S
H4062 C4087 0.951 . S
H4063 C4089 0.950 . S
H4064 C4090 0.950 . S
H4065 C4092 0.950 . S
H4066 C4095 0.950 . S
H4067 C4096 0.950 . S
H4068 C4098 0.950 . S
H4069 C4099 0.950 . S
C4070 H4052 0.951 . S
C4070 C4071 1.366 . S
C4070 C4072 1.388 . S
C4071 C4070 1.366 . S
C4071 C4075 1.385 . S
C4072 H4053 0.951 . S
C4072 C4070 1.388 . S
C4072 C4073 1.366 . S
C4073 C4072 1.366 . S
C4073 C4074 1.414 . S
C4073 C4076 1.499 . S
C4074 H4054 0.950 . S
C4074 C4073 1.414 . S
C4074 C4075 1.374 . S
C4075 H4055 0.950 . S
C4075 C4071 1.385 . S
C4075 C4074 1.374 . S
C4076 C4073 1.499 . S
C4076 C4077 1.373 . S
C4076 C4078 1.389 . S
C4077 H4056 0.950 . S
C4077 C4076 1.373 . S
C4077 C4093 1.377 . S
C4078 C4076 1.389 . S
C4078 C4079 1.524 . S
C4078 C4092 1.377 . S
C4079 C4078 1.524 . S
C4079 C4080 1.397 . S
C4079 C4084 1.363 . S
C4080 H4057 0.950 . S
C4080 C4079 1.397 . S
C4080 C4081 1.334 . S
C4081 H4058 0.950 . S
C4081 C4080 1.334 . S
C4081 C4082 1.287 . S
C4082 C4081 1.287 . S
C4082 C4083 1.524 . S
C4082 H4101 0.913 . S
C4083 H4059 0.950 . S
C4083 C4082 1.524 . S
C4083 C4084 1.415 . S
C4084 H4060 0.950 . S
C4084 C4079 1.363 . S
C4084 C4083 1.415 . S
C4085 H4061 0.951 . S
C4085 C4086 1.366 . S
C4085 C4087 1.388 . S
C4086 C4085 1.366 . S
C4086 C4090 1.385 . S
C4087 H4062 0.951 . S
C4087 C4085 1.388 . S
C4087 C4088 1.366 . S
C4088 C4087 1.366 . S
C4088 C4089 1.414 . S
C4088 C4091 1.499 . S
C4089 H4063 0.950 . S
C4089 C4088 1.414 . S
C4089 C4090 1.374 . S
C4090 H4064 0.950 . S
C4090 C4086 1.385 . S
C4090 C4089 1.374 . S
C4091 C4088 1.499 . S
C4091 C4092 1.373 . S
C4091 C4093 1.389 . S
C4092 H4065 0.950 . S
C4092 C4078 1.377 . S
C4092 C4091 1.373 . S
C4093 C4077 1.377 . S
C4093 C4091 1.389 . S
C4093 C4094 1.524 . S
C4094 C4093 1.524 . S
C4094 C4095 1.397 . S
C4094 C4099 1.363 . S
C4095 H4066 0.950 . S
C4095 C4094 1.397 . S
C4095 C4096 1.334 . S
C4096 H4067 0.950 . S
C4096 C4095 1.334 . S
C4096 C4097 1.287 . S
C4097 C4096 1.287 . S
C4097 C4098 1.524 . S
C4097 H4100 0.999 . S
C4098 H4068 0.950 . S
C4098 C4097 1.524 . S
C4098 C4099 1.415 . S
C4099 H4069 0.950 . S
C4099 C4094 1.363 . S
C4099 C4098 1.415 . S
H4100 C4097 0.999 . S
H4101 C4082 0.913 . S
H4102 C4120 0.951 . S
H4103 C4122 0.951 . S
H4104 C4124 0.950 . S
H4105 C4125 0.950 . S
H4106 C4127 0.950 . S
H4107 C4130 0.950 . S
H4108 C4131 0.950 . S
H4109 C4133 0.950 . S
H4110 C4134 0.950 . S
H4111 C4135 0.951 . S
H4112 C4137 0.951 . S
H4113 C4139 0.950 . S
H4114 C4140 0.950 . S
H4115 C4142 0.950 . S
H4116 C4145 0.950 . S
H4117 C4146 0.950 . S
H4118 C4148 0.950 . S
H4119 C4149 0.950 . S
C4120 H4102 0.951 . S
C4120 C4121 1.366 . S
C4120 C4122 1.388 . S
C4121 C4120 1.366 . S
C4121 C4125 1.385 . S
C4122 H4103 0.951 . S
C4122 C4120 1.388 . S
C4122 C4123 1.366 . S
C4123 C4122 1.366 . S
C4123 C4124 1.414 . S
C4123 C4126 1.499 . S
C4124 H4104 0.950 . S
C4124 C4123 1.414 . S
C4124 C4125 1.374 . S
C4125 H4105 0.950 . S
C4125 C4121 1.385 . S
C4125 C4124 1.374 . S
C4126 C4123 1.499 . S
C4126 C4127 1.373 . S
C4126 C4128 1.389 . S
C4127 H4106 0.950 . S
C4127 C4126 1.373 . S
C4127 C4143 1.377 . S
C4128 C4126 1.389 . S
C4128 C4129 1.524 . S
C4128 C4142 1.377 . S
C4129 C4128 1.524 . S
C4129 C4130 1.397 . S
C4129 C4134 1.363 . S
C4130 H4107 0.950 . S
C4130 C4129 1.397 . S
C4130 C4131 1.334 . S
C4131 H4108 0.950 . S
C4131 C4130 1.334 . S
C4131 C4132 1.287 . S
C4132 C4131 1.287 . S
C4132 C4133 1.524 . S
C4132 H4151 0.913 . S
C4133 H4109 0.950 . S
C4133 C4132 1.524 . S
C4133 C4134 1.415 . S
C4134 H4110 0.950 . S
C4134 C4129 1.363 . S
C4134 C4133 1.415 . S
C4135 H4111 0.951 . S
C4135 C4136 1.366 . S
C4135 C4137 1.388 . S
C4136 C4135 1.366 . S
C4136 C4140 1.385 . S
C4137 H4112 0.951 . S
C4137 C4135 1.388 . S
C4137 C4138 1.366 . S
C4138 C4137 1.366 . S
C4138 C4139 1.414 . S
C4138 C4141 1.499 . S
C4139 H4113 0.950 . S
C4139 C4138 1.414 . S
C4139 C4140 1.374 . S
C4140 H4114 0.950 . S
C4140 C4136 1.385 . S
C4140 C4139 1.374 . S
C4141 C4138 1.499 . S
C4141 C4142 1.373 . S
C4141 C4143 1.389 . S
C4142 H4115 0.950 . S
C4142 C4128 1.377 . S
C4142 C4141 1.373 . S
C4143 C4127 1.377 . S
C4143 C4141 1.389 . S
C4143 C4144 1.524 . S
C4144 C4143 1.524 . S
C4144 C4145 1.397 . S
C4144 C4149 1.363 . S
C4145 H4116 0.950 . S
C4145 C4144 1.397 . S
C4145 C4146 1.334 . S
C4146 H4117 0.950 . S
C4146 C4145 1.334 . S
C4146 C4147 1.287 . S
C4147 C4146 1.287 . S
C4147 C4148 1.524 . S
C4147 H4150 0.999 . S
C4148 H4118 0.950 . S
C4148 C4147 1.524 . S
C4148 C4149 1.415 . S
C4149 H4119 0.950 . S
C4149 C4144 1.363 . S
C4149 C4148 1.415 . S
H4150 C4147 0.999 . S
H4151 C4132 0.913 . S
H4152 C4170 0.967 . S
H4153 C4172 0.970 . S
H4154 C4174 0.950 . S
H4155 C4175 0.950 . S
H4156 C4177 0.950 . S
H4157 C4180 0.950 . S
H4158 C4181 0.950 . S
H4159 C4183 0.950 . S
H4160 C4184 0.950 . S
H4161 C4185 0.963 . S
H4162 C4187 0.966 . S
H4163 C4189 0.950 . S
H4164 C4190 0.950 . S
H4165 C4192 0.950 . S
H4166 C4195 0.950 . S
H4167 C4196 0.950 . S
H4168 C4198 0.950 . S
H4169 C4199 0.950 . S
C4170 H4152 0.967 . S
C4170 C4171 1.347 1_455 S
C4170 C4172 1.388 . S
C4171 C4170 1.347 1_655 S
C4171 C4175 1.385 . S
C4172 H4153 0.970 . S
C4172 C4170 1.388 . S
C4172 C4173 1.353 1_455 S
C4173 C4172 1.353 1_655 S
C4173 C4174 1.414 . S
C4173 C4176 1.499 . S
C4174 H4154 0.950 . S
C4174 C4173 1.414 . S
C4174 C4175 1.374 . S
C4175 H4155 0.950 . S
C4175 C4171 1.385 . S
C4175 C4174 1.374 . S
C4176 C4173 1.499 . S
C4176 C4177 1.373 1_655 S
C4176 C4178 1.389 . S
C4177 H4156 0.950 . S
C4177 C4176 1.373 1_455 S
C4177 C4193 1.377 . S
C4178 C4176 1.389 . S
C4178 C4179 1.524 . S
C4178 C4192 1.377 . S
C4179 C4178 1.524 . S
C4179 C4180 1.397 . S
C4179 C4184 1.363 . S
C4180 H4157 0.950 . S
C4180 C4179 1.397 . S
C4180 C4181 1.334 . S
C4181 H4158 0.950 . S
C4181 C4180 1.334 . S
C4181 C4182 1.287 . S
C4182 C4181 1.287 . S
C4182 C4183 1.524 . S
C4182 H4201 0.913 . S
C4183 H4159 0.950 . S
C4183 C4182 1.524 . S
C4183 C4184 1.415 . S
C4184 H4160 0.950 . S
C4184 C4179 1.363 . S
C4184 C4183 1.415 . S
C4185 H4161 0.963 . S
C4185 C4186 1.350 1_655 S
C4185 C4187 1.388 . S
C4186 C4185 1.350 1_455 S
C4186 C4190 1.385 . S
C4187 H4162 0.966 . S
C4187 C4185 1.388 . S
C4187 C4188 1.356 1_655 S
C4188 C4187 1.356 1_455 S
C4188 C4189 1.414 . S
C4188 C4191 1.499 . S
C4189 H4163 0.950 . S
C4189 C4188 1.414 . S
C4189 C4190 1.374 . S
C4190 H4164 0.950 . S
C4190 C4186 1.385 . S
C4190 C4189 1.374 . S
C4191 C4188 1.499 . S
C4191 C4192 1.373 1_455 S
C4191 C4193 1.389 . S
C4192 H4165 0.950 . S
C4192 C4178 1.377 . S
C4192 C4191 1.373 1_655 S
C4193 C4177 1.377 . S
C4193 C4191 1.389 . S
C4193 C4194 1.524 . S
C4194 C4193 1.524 . S
C4194 C4195 1.397 . S
C4194 C4199 1.363 . S
C4195 H4166 0.950 . S
C4195 C4194 1.397 . S
C4195 C4196 1.334 . S
C4196 H4167 0.950 . S
C4196 C4195 1.334 . S
C4196 C4197 1.287 . S
C4197 C4196 1.287 . S
C4197 C4198 1.524 . S
C4197 H4200 0.999 . S
C4198 H4168 0.950 . S
C4198 C4197 1.524 . S
C4198 C4199 1.415 . S
C4199 H4169 0.950 . S
C4199 C4194 1.363 . S
C4199 C4198 1.415 . S
H4200 C4197 0.999 . S
H4201 C4182 0.913 . S
H4202 C4220 0.951 . S
H4203 C4222 0.951 . S
H4204 C4224 0.950 . S
H4205 C4225 0.950 . S
H4206 C4227 0.950 . S
H4207 C4230 0.950 . S
H4208 C4231 0.950 . S
H4209 C4233 0.950 . S
H4210 C4234 0.950 . S
H4211 C4235 0.951 . S
H4212 C4237 0.951 . S
H4213 C4239 0.950 . S
H4214 C4240 0.950 . S
H4215 C4242 0.950 . S
H4216 C4245 0.950 . S
H4217 C4246 0.950 . S
H4218 C4248 0.950 . S
H4219 C4249 0.950 . S
C4220 H4202 0.951 . S
C4220 C4221 1.366 . S
C4220 C4222 1.388 . S
C4221 C4220 1.366 . S
C4221 C4225 1.385 . S
C4222 H4203 0.951 . S
C4222 C4220 1.388 . S
C4222 C4223 1.366 . S
C4223 C4222 1.366 . S
C4223 C4224 1.414 . S
C4223 C4226 1.499 . S
C4224 H4204 0.950 . S
C4224 C4223 1.414 . S
C4224 C4225 1.374 . S
C4225 H4205 0.950 . S
C4225 C4221 1.385 . S
C4225 C4224 1.374 . S
C4226 C4223 1.499 . S
C4226 C4227 1.373 . S
C4226 C4228 1.389 . S
C4227 H4206 0.950 . S
C4227 C4226 1.373 . S
C4227 C4243 1.377 . S
C4228 C4226 1.389 . S
C4228 C4229 1.524 . S
C4228 C4242 1.377 . S
C4229 C4228 1.524 . S
C4229 C4230 1.397 . S
C4229 C4234 1.363 . S
C4230 H4207 0.950 . S
C4230 C4229 1.397 . S
C4230 C4231 1.334 . S
C4231 H4208 0.950 . S
C4231 C4230 1.334 . S
C4231 C4232 1.287 . S
C4232 C4231 1.287 . S
C4232 C4233 1.524 . S
C4232 H4251 0.913 . S
C4233 H4209 0.950 . S
C4233 C4232 1.524 . S
C4233 C4234 1.415 . S
C4234 H4210 0.950 . S
C4234 C4229 1.363 . S
C4234 C4233 1.415 . S
C4235 H4211 0.951 . S
C4235 C4236 1.366 . S
C4235 C4237 1.388 . S
C4236 C4235 1.366 . S
C4236 C4240 1.385 . S
C4237 H4212 0.951 . S
C4237 C4235 1.388 . S
C4237 C4238 1.366 . S
C4238 C4237 1.366 . S
C4238 C4239 1.414 . S
C4238 C4241 1.499 . S
C4239 H4213 0.950 . S
C4239 C4238 1.414 . S
C4239 C4240 1.374 . S
C4240 H4214 0.950 . S
C4240 C4236 1.385 . S
C4240 C4239 1.374 . S
C4241 C4238 1.499 . S
C4241 C4242 1.373 . S
C4241 C4243 1.389 . S
C4242 H4215 0.950 . S
C4242 C4228 1.377 . S
C4242 C4241 1.373 . S
C4243 C4227 1.377 . S
C4243 C4241 1.389 . S
C4243 C4244 1.524 . S
C4244 C4243 1.524 . S
C4244 C4245 1.397 . S
C4244 C4249 1.363 . S
C4245 H4216 0.950 . S
C4245 C4244 1.397 . S
C4245 C4246 1.334 . S
C4246 H4217 0.950 . S
C4246 C4245 1.334 . S
C4246 C4247 1.287 . S
C4247 C4246 1.287 . S
C4247 C4248 1.524 . S
C4247 H4250 0.999 . S
C4248 H4218 0.950 . S
C4248 C4247 1.524 . S
C4248 C4249 1.415 . S
C4249 H4219 0.950 . S
C4249 C4244 1.363 . S
C4249 C4248 1.415 . S
H4250 C4247 0.999 . S
H4251 C4232 0.913 . S
H4252 C4270 0.951 . S
H4253 C4272 0.951 . S
H4254 C4274 0.950 . S
H4255 C4275 0.950 . S
H4256 C4277 0.950 . S
H4257 C4280 0.950 . S
H4258 C4281 0.950 . S
H4259 C4283 0.950 . S
H4260 C4284 0.950 . S
H4261 C4285 0.951 . S
H4262 C4287 0.951 . S
H4263 C4289 0.950 1_554 S
H4264 C4290 0.950 . S
H4265 C4292 0.950 . S
H4266 C4295 0.950 . S
H4267 C4296 0.950 . S
H4268 C4298 0.950 . S
H4269 C4299 0.950 . S
C4270 H4252 0.951 . S
C4270 C4271 1.366 . S
C4270 C4272 1.388 . S
C4271 C4270 1.366 . S
C4271 C4275 1.385 . S
C4272 H4253 0.951 . S
C4272 C4270 1.388 . S
C4272 C4273 1.366 . S
C4273 C4272 1.366 . S
C4273 C4274 1.414 . S
C4273 C4276 1.499 . S
C4274 H4254 0.950 . S
C4274 C4273 1.414 . S
C4274 C4275 1.374 . S
C4275 H4255 0.950 . S
C4275 C4271 1.385 . S
C4275 C4274 1.374 . S
C4276 C4273 1.499 . S
C4276 C4277 1.373 . S
C4276 C4278 1.389 . S
C4277 H4256 0.950 . S
C4277 C4276 1.373 . S
C4277 C4293 1.377 . S
C4278 C4276 1.389 . S
C4278 C4279 1.524 . S
C4278 C4292 1.377 . S
C4279 C4278 1.524 . S
C4279 C4280 1.397 . S
C4279 C4284 1.363 . S
C4280 H4257 0.950 . S
C4280 C4279 1.397 . S
C4280 C4281 1.334 . S
C4281 H4258 0.950 . S
C4281 C4280 1.334 . S
C4281 C4282 1.287 . S
C4282 C4281 1.287 . S
C4282 C4283 1.524 . S
C4282 H4301 0.913 . S
C4283 H4259 0.950 . S
C4283 C4282 1.524 . S
C4283 C4284 1.415 . S
C4284 H4260 0.950 . S
C4284 C4279 1.363 . S
C4284 C4283 1.415 . S
C4285 H4261 0.951 . S
C4285 C4286 1.394 . S
C4285 C4287 1.388 . S
C4286 C4285 1.394 . S
C4286 C4290 1.369 1_556 S
C4287 H4262 0.951 . S
C4287 C4285 1.388 . S
C4287 C4288 1.366 . S
C4288 C4287 1.366 . S
C4288 C4289 1.414 . S
C4288 C4291 1.499 . S
C4289 H4263 0.950 1_556 S
C4289 C4288 1.414 . S
C4289 C4290 1.374 1_556 S
C4290 H4264 0.950 . S
C4290 C4286 1.369 1_554 S
C4290 C4289 1.374 1_554 S
C4291 C4288 1.499 . S
C4291 C4292 1.373 . S
C4291 C4293 1.389 . S
C4292 H4265 0.950 . S
C4292 C4278 1.377 . S
C4292 C4291 1.373 . S
C4293 C4277 1.377 . S
C4293 C4291 1.389 . S
C4293 C4294 1.524 . S
C4294 C4293 1.524 . S
C4294 C4295 1.397 . S
C4294 C4299 1.363 . S
C4295 H4266 0.950 . S
C4295 C4294 1.397 . S
C4295 C4296 1.334 . S
C4296 H4267 0.950 . S
C4296 C4295 1.334 . S
C4296 C4297 1.287 . S
C4297 C4296 1.287 . S
C4297 C4298 1.524 . S
C4297 H4300 0.999 . S
C4298 H4268 0.950 . S
C4298 C4297 1.524 . S
C4298 C4299 1.415 . S
C4299 H4269 0.950 . S
C4299 C4294 1.363 . S
C4299 C4298 1.415 . S
H4300 C4297 0.999 . S
H4301 C4282 0.913 . S
H4302 C4320 0.951 . S
H4303 C4322 0.951 . S
H4304 C4324 0.950 . S
H4305 C4325 0.950 . S
H4306 C4327 0.950 . S
H4307 C4330 0.950 . S
H4308 C4331 0.950 . S
H4309 C4333 0.950 . S
H4310 C4334 0.950 . S
H4311 C4335 0.951 . S
H4312 C4337 0.951 . S
H4313 C4339 0.950 . S
H4314 C4340 0.950 . S
H4315 C4342 0.950 . S
H4316 C4345 0.950 . S
H4317 C4346 0.950 . S
H4318 C4348 0.950 . S
H4319 C4349 0.950 . S
C4320 H4302 0.951 . S
C4320 C4321 1.366 . S
C4320 C4322 1.388 . S
C4321 C4320 1.366 . S
C4321 C4325 1.385 . S
C4322 H4303 0.951 . S
C4322 C4320 1.388 . S
C4322 C4323 1.366 . S
C4323 C4322 1.366 . S
C4323 C4324 1.414 . S
C4323 C4326 1.499 . S
C4324 H4304 0.950 . S
C4324 C4323 1.414 . S
C4324 C4325 1.374 . S
C4325 H4305 0.950 . S
C4325 C4321 1.385 . S
C4325 C4324 1.374 . S
C4326 C4323 1.499 . S
C4326 C4327 1.373 . S
C4326 C4328 1.389 . S
C4327 H4306 0.950 . S
C4327 C4326 1.373 . S
C4327 C4343 1.377 . S
C4328 C4326 1.389 . S
C4328 C4329 1.524 . S
C4328 C4342 1.377 . S
C4329 C4328 1.524 . S
C4329 C4330 1.397 . S
C4329 C4334 1.363 . S
C4330 H4307 0.950 . S
C4330 C4329 1.397 . S
C4330 C4331 1.334 . S
C4331 H4308 0.950 . S
C4331 C4330 1.334 . S
C4331 C4332 1.287 . S
C4332 C4331 1.287 . S
C4332 C4333 1.524 . S
C4332 H4351 0.913 . S
C4333 H4309 0.950 . S
C4333 C4332 1.524 . S
C4333 C4334 1.415 . S
C4334 H4310 0.950 . S
C4334 C4329 1.363 . S
C4334 C4333 1.415 . S
C4335 H4311 0.951 . S
C4335 C4336 1.366 . S
C4335 C4337 1.388 . S
C4336 C4335 1.366 . S
C4336 C4340 1.385 . S
C4337 H4312 0.951 . S
C4337 C4335 1.388 . S
C4337 C4338 1.366 . S
C4338 C4337 1.366 . S
C4338 C4339 1.414 . S
C4338 C4341 1.499 . S
C4339 H4313 0.950 . S
C4339 C4338 1.414 . S
C4339 C4340 1.374 . S
C4340 H4314 0.950 . S
C4340 C4336 1.385 . S
C4340 C4339 1.374 . S
C4341 C4338 1.499 . S
C4341 C4342 1.373 . S
C4341 C4343 1.389 . S
C4342 H4315 0.950 . S
C4342 C4328 1.377 . S
C4342 C4341 1.373 . S
C4343 C4327 1.377 . S
C4343 C4341 1.389 . S
C4343 C4344 1.524 . S
C4344 C4343 1.524 . S
C4344 C4345 1.397 . S
C4344 C4349 1.363 . S
C4345 H4316 0.950 . S
C4345 C4344 1.397 . S
C4345 C4346 1.334 . S
C4346 H4317 0.950 . S
C4346 C4345 1.334 . S
C4346 C4347 1.287 . S
C4347 C4346 1.287 . S
C4347 C4348 1.524 . S
C4347 H4350 0.999 . S
C4348 H4318 0.950 . S
C4348 C4347 1.524 . S
C4348 C4349 1.415 . S
C4349 H4319 0.950 . S
C4349 C4344 1.363 . S
C4349 C4348 1.415 . S
H4350 C4347 0.999 . S
H4351 C4332 0.913 . S
H4352 C4370 0.951 . S
H4353 C4372 0.951 . S
H4354 C4374 0.950 . S
H4355 C4375 0.950 . S
H4356 C4377 0.950 . S
H4357 C4380 0.950 . S
H4358 C4381 0.950 1_545 S
H4359 C4383 0.950 . S
H4360 C4384 0.950 . S
H4361 C4385 0.951 . S
H4362 C4387 0.951 . S
H4363 C4389 0.950 . S
H4364 C4390 0.950 . S
H4365 C4392 0.938 1_565 S
H4366 C4395 0.950 . S
H4367 C4396 0.950 . S
H4368 C4398 0.950 . S
H4369 C4399 0.950 . S
C4370 H4352 0.951 . S
C4370 C4371 1.366 1_565 S
C4370 C4372 1.388 . S
C4371 C4370 1.366 1_545 S
C4371 C4375 1.385 . S
C4372 H4353 0.951 . S
C4372 C4370 1.388 . S
C4372 C4373 1.366 1_565 S
C4373 C4372 1.366 1_545 S
C4373 C4374 1.414 . S
C4373 C4376 1.499 . S
C4374 H4354 0.950 . S
C4374 C4373 1.414 . S
C4374 C4375 1.374 . S
C4375 H4355 0.950 . S
C4375 C4371 1.385 . S
C4375 C4374 1.374 . S
C4376 C4373 1.499 . S
C4376 C4377 1.373 . S
C4376 C4378 1.389 . S
C4377 H4356 0.950 . S
C4377 C4376 1.373 . S
C4377 C4393 1.377 . S
C4378 C4376 1.389 . S
C4378 C4379 1.524 1_545 S
C4378 C4392 1.381 . S
C4379 C4378 1.524 1_565 S
C4379 C4380 1.397 1_565 S
C4379 C4384 1.363 . S
C4380 H4357 0.950 . S
C4380 C4379 1.397 1_545 S
C4380 C4381 1.334 1_545 S
C4381 H4358 0.950 1_565 S
C4381 C4380 1.334 1_565 S
C4381 C4382 1.287 . S
C4382 C4381 1.287 . S
C4382 C4383 1.524 . S
C4382 H4401 0.913 . S
C4383 H4359 0.950 . S
C4383 C4382 1.524 . S
C4383 C4384 1.415 . S
C4384 H4360 0.950 . S
C4384 C4379 1.363 . S
C4384 C4383 1.415 . S
C4385 H4361 0.951 . S
C4385 C4386 1.366 . S
C4385 C4387 1.388 . S
C4386 C4385 1.366 . S
C4386 C4390 1.385 1_545 S
C4387 H4362 0.951 . S
C4387 C4385 1.388 . S
C4387 C4388 1.366 . S
C4388 C4387 1.366 . S
C4388 C4389 1.414 1_545 S
C4388 C4391 1.499 . S
C4389 H4363 0.950 . S
C4389 C4388 1.414 1_565 S
C4389 C4390 1.374 . S
C4390 H4364 0.950 . S
C4390 C4386 1.385 1_565 S
C4390 C4389 1.374 . S
C4391 C4388 1.499 . S
C4391 C4392 1.382 . S
C4391 C4393 1.389 . S
C4392 H4365 0.938 1_545 S
C4392 C4378 1.381 . S
C4392 C4391 1.382 . S
C4393 C4377 1.377 . S
C4393 C4391 1.389 . S
C4393 C4394 1.524 . S
C4394 C4393 1.524 . S
C4394 C4395 1.397 . S
C4394 C4399 1.363 . S
C4395 H4366 0.950 . S
C4395 C4394 1.397 . S
C4395 C4396 1.334 . S
C4396 H4367 0.950 . S
C4396 C4395 1.334 . S
C4396 C4397 1.287 . S
C4397 C4396 1.287 . S
C4397 C4398 1.524 . S
C4397 H4400 0.999 . S
C4398 H4368 0.950 . S
C4398 C4397 1.524 . S
C4398 C4399 1.415 . S
C4399 H4369 0.950 . S
C4399 C4394 1.363 . S
C4399 C4398 1.415 . S
H4400 C4397 0.999 . S
H4401 C4382 0.913 . S
H4402 C4420 0.951 . S
H4403 C4422 0.951 . S
H4404 C4424 0.950 . S
H4405 C4425 0.950 . S
H4406 C4427 0.950 . S
H4407 C4430 0.950 . S
H4408 C4431 0.950 . S
H4409 C4433 0.950 . S
H4410 C4434 0.950 . S
H4411 C4435 0.951 . S
H4412 C4437 0.951 . S
H4413 C4439 0.950 . S
H4414 C4440 0.950 . S
H4415 C4442 0.950 . S
H4416 C4445 0.950 . S
H4417 C4446 0.950 . S
H4418 C4448 0.950 . S
H4419 C4449 0.950 . S
C4420 H4402 0.951 . S
C4420 C4421 1.366 . S
C4420 C4422 1.388 . S
C4421 C4420 1.366 . S
C4421 C4425 1.385 . S
C4422 H4403 0.951 . S
C4422 C4420 1.388 . S
C4422 C4423 1.366 . S
C4423 C4422 1.366 . S
C4423 C4424 1.414 . S
C4423 C4426 1.499 . S
C4424 H4404 0.950 . S
C4424 C4423 1.414 . S
C4424 C4425 1.374 . S
C4425 H4405 0.950 . S
C4425 C4421 1.385 . S
C4425 C4424 1.374 . S
C4426 C4423 1.499 . S
C4426 C4427 1.373 . S
C4426 C4428 1.389 . S
C4427 H4406 0.950 . S
C4427 C4426 1.373 . S
C4427 C4443 1.377 . S
C4428 C4426 1.389 . S
C4428 C4429 1.524 . S
C4428 C4442 1.377 . S
C4429 C4428 1.524 . S
C4429 C4430 1.397 . S
C4429 C4434 1.363 . S
C4430 H4407 0.950 . S
C4430 C4429 1.397 . S
C4430 C4431 1.334 . S
C4431 H4408 0.950 . S
C4431 C4430 1.334 . S
C4431 C4432 1.287 . S
C4432 C4431 1.287 . S
C4432 C4433 1.524 . S
C4432 H4451 0.913 . S
C4433 H4409 0.950 . S
C4433 C4432 1.524 . S
C4433 C4434 1.415 . S
C4434 H4410 0.950 . S
C4434 C4429 1.363 . S
C4434 C4433 1.415 . S
C4435 H4411 0.951 . S
C4435 C4436 1.366 . S
C4435 C4437 1.388 . S
C4436 C4435 1.366 . S
C4436 C4440 1.385 . S
C4437 H4412 0.951 . S
C4437 C4435 1.388 . S
C4437 C4438 1.366 . S
C4438 C4437 1.366 . S
C4438 C4439 1.414 . S
C4438 C4441 1.499 . S
C4439 H4413 0.950 . S
C4439 C4438 1.414 . S
C4439 C4440 1.374 . S
C4440 H4414 0.950 . S
C4440 C4436 1.385 . S
C4440 C4439 1.374 . S
C4441 C4438 1.499 . S
C4441 C4442 1.373 . S
C4441 C4443 1.389 . S
C4442 H4415 0.950 . S
C4442 C4428 1.377 . S
C4442 C4441 1.373 . S
C4443 C4427 1.377 . S
C4443 C4441 1.389 . S
C4443 C4444 1.524 . S
C4444 C4443 1.524 . S
C4444 C4445 1.397 . S
C4444 C4449 1.363 . S
C4445 H4416 0.950 . S
C4445 C4444 1.397 . S
C4445 C4446 1.334 . S
C4446 H4417 0.950 . S
C4446 C4445 1.334 . S
C4446 C4447 1.287 . S
C4447 C4446 1.287 . S
C4447 C4448 1.524 . S
C4447 H4450 0.999 . S
C4448 H4418 0.950 . S
C4448 C4447 1.524 . S
C4448 C4449 1.415 . S
C4449 H4419 0.950 . S
C4449 C4444 1.363 . S
C4449 C4448 1.415 . S
H4450 C4447 0.999 . S
H4451 C4432 0.913 . S
H4452 C4470 0.951 . S
H4453 C4472 0.951 . S
H4454 C4474 0.950 . S
H4455 C4475 0.950 . S
H4456 C4477 0.950 . S
H4457 C4480 0.950 . S
H4458 C4481 0.950 . S
H4459 C4483 0.950 . S
H4460 C4484 0.950 . S
H4461 C4485 0.951 . S
H4462 C4487 0.951 . S
H4463 C4489 0.950 . S
H4464 C4490 0.950 . S
H4465 C4492 0.950 . S
H4466 C4495 0.950 . S
H4467 C4496 0.950 . S
H4468 C4498 0.950 . S
H4469 C4499 0.950 . S
C4470 H4452 0.951 . S
C4470 C4471 1.366 . S
C4470 C4472 1.388 . S
C4471 C4470 1.366 . S
C4471 C4475 1.385 . S
C4472 H4453 0.951 . S
C4472 C4470 1.388 . S
C4472 C4473 1.366 . S
C4473 C4472 1.366 . S
C4473 C4474 1.414 . S
C4473 C4476 1.499 . S
C4474 H4454 0.950 . S
C4474 C4473 1.414 . S
C4474 C4475 1.374 . S
C4475 H4455 0.950 . S
C4475 C4471 1.385 . S
C4475 C4474 1.374 . S
C4476 C4473 1.499 . S
C4476 C4477 1.373 . S
C4476 C4478 1.389 . S
C4477 H4456 0.950 . S
C4477 C4476 1.373 . S
C4477 C4493 1.377 . S
C4478 C4476 1.389 . S
C4478 C4479 1.524 1_545 S
C4478 C4492 1.377 . S
C4479 C4478 1.524 1_565 S
C4479 C4480 1.397 . S
C4479 C4484 1.363 . S
C4480 H4457 0.950 . S
C4480 C4479 1.397 . S
C4480 C4481 1.334 . S
C4481 H4458 0.950 . S
C4481 C4480 1.334 . S
C4481 C4482 1.287 . S
C4482 C4481 1.287 . S
C4482 C4483 1.524 . S
C4482 H4501 0.913 . S
C4483 H4459 0.950 . S
C4483 C4482 1.524 . S
C4483 C4484 1.415 . S
C4484 H4460 0.950 . S
C4484 C4479 1.363 . S
C4484 C4483 1.415 . S
C4485 H4461 0.951 . S
C4485 C4486 1.366 . S
C4485 C4487 1.388 . S
C4486 C4485 1.366 . S
C4486 C4490 1.385 . S
C4487 H4462 0.951 . S
C4487 C4485 1.388 . S
C4487 C4488 1.366 . S
C4488 C4487 1.366 . S
C4488 C4489 1.414 . S
C4488 C4491 1.499 . S
C4489 H4463 0.950 . S
C4489 C4488 1.414 . S
C4489 C4490 1.374 . S
C4490 H4464 0.950 . S
C4490 C4486 1.385 . S
C4490 C4489 1.374 . S
C4491 C4488 1.499 . S
C4491 C4492 1.373 . S
C4491 C4493 1.389 . S
C4492 H4465 0.950 . S
C4492 C4478 1.377 . S
C4492 C4491 1.373 . S
C4493 C4477 1.377 . S
C4493 C4491 1.389 . S
C4493 C4494 1.524 . S
C4494 C4493 1.524 . S
C4494 C4495 1.397 . S
C4494 C4499 1.363 . S
C4495 H4466 0.950 . S
C4495 C4494 1.397 . S
C4495 C4496 1.334 . S
C4496 H4467 0.950 . S
C4496 C4495 1.334 . S
C4496 C4497 1.287 . S
C4497 C4496 1.287 . S
C4497 C4498 1.524 . S
C4497 H4500 0.999 . S
C4498 H4468 0.950 . S
C4498 C4497 1.524 . S
C4498 C4499 1.415 . S
C4499 H4469 0.950 . S
C4499 C4494 1.363 . S
C4499 C4498 1.415 . S
H4500 C4497 0.999 . S
H4501 C4482 0.913 . S
H4502 C4520 0.951 . S
H4503 C4522 0.951 . S
H4504 C4524 0.950 . S
H4505 C4525 0.950 . S
H4506 C4527 0.950 . S
H4507 C4530 0.950 . S
H4508 C4531 0.950 . S
H4509 C4533 0.950 . S
H4510 C4534 0.950 . S
H4511 C4535 0.951 . S
H4512 C4537 0.951 . S
H4513 C4539 0.950 . S
H4514 C4540 0.950 . S
H4515 C4542 0.950 . S
H4516 C4545 0.950 . S
H4517 C4546 0.950 . S
H4518 C4548 0.950 . S
H4519 C4549 0.950 . S
C4520 H4502 0.951 . S
C4520 C4521 1.366 . S
C4520 C4522 1.388 . S
C4521 C4520 1.366 . S
C4521 C4525 1.385 . S
C4522 H4503 0.951 . S
C4522 C4520 1.388 . S
C4522 C4523 1.366 . S
C4523 C4522 1.366 . S
C4523 C4524 1.414 . S
C4523 C4526 1.499 . S
C4524 H4504 0.950 . S
C4524 C4523 1.414 . S
C4524 C4525 1.374 . S
C4525 H4505 0.950 . S
C4525 C4521 1.385 . S
C4525 C4524 1.374 . S
C4526 C4523 1.499 . S
C4526 C4527 1.373 . S
C4526 C4528 1.389 . S
C4527 H4506 0.950 . S
C4527 C4526 1.373 . S
C4527 C4543 1.377 . S
C4528 C4526 1.389 . S
C4528 C4529 1.524 . S
C4528 C4542 1.377 . S
C4529 C4528 1.524 . S
C4529 C4530 1.397 . S
C4529 C4534 1.363 . S
C4530 H4507 0.950 . S
C4530 C4529 1.397 . S
C4530 C4531 1.334 . S
C4531 H4508 0.950 . S
C4531 C4530 1.334 . S
C4531 C4532 1.287 . S
C4532 C4531 1.287 . S
C4532 C4533 1.524 . S
C4532 H4551 0.913 . S
C4533 H4509 0.950 . S
C4533 C4532 1.524 . S
C4533 C4534 1.415 . S
C4534 H4510 0.950 . S
C4534 C4529 1.363 . S
C4534 C4533 1.415 . S
C4535 H4511 0.951 . S
C4535 C4536 1.366 . S
C4535 C4537 1.388 . S
C4536 C4535 1.366 . S
C4536 C4540 1.385 . S
C4537 H4512 0.951 . S
C4537 C4535 1.388 . S
C4537 C4538 1.366 . S
C4538 C4537 1.366 . S
C4538 C4539 1.414 . S
C4538 C4541 1.499 . S
C4539 H4513 0.950 . S
C4539 C4538 1.414 . S
C4539 C4540 1.374 . S
C4540 H4514 0.950 . S
C4540 C4536 1.385 . S
C4540 C4539 1.374 . S
C4541 C4538 1.499 . S
C4541 C4542 1.373 . S
C4541 C4543 1.389 . S
C4542 H4515 0.950 . S
C4542 C4528 1.377 . S
C4542 C4541 1.373 . S
C4543 C4527 1.377 . S
C4543 C4541 1.389 . S
C4543 C4544 1.524 . S
C4544 C4543 1.524 . S
C4544 C4545 1.397 . S
C4544 C4549 1.363 . S
C4545 H4516 0.950 . S
C4545 C4544 1.397 . S
C4545 C4546 1.334 . S
C4546 H4517 0.950 . S
C4546 C4545 1.334 . S
C4546 C4547 1.287 . S
C4547 C4546 1.287 . S
C4547 C4548 1.524 . S
C4547 H4550 0.999 . S
C4548 H4518 0.950 . S
C4548 C4547 1.524 . S
C4548 C4549 1.415 . S
C4549 H4519 0.950 . S
C4549 C4544 1.363 . S
C4549 C4548 1.415 . S
H4550 C4547 0.999 . S
H4551 C4532 0.913 . S
H4552 C4570 0.951 1_565 S
H4553 C4572 0.953 1_565 S
H4554 C4574 0.950 . S
H4555 C4575 0.950 . S
H4556 C4577 0.950 . S
H4557 C4580 0.950 . S
H4558 C4581 0.950 . S
H4559 C4583 0.950 . S
H4560 C4584 0.950 . S
H4561 C4585 0.951 . S
H4562 C4587 0.951 . S
H4563 C4589 0.950 . S
H4564 C4590 0.950 . S
H4565 C4592 0.950 . S
H4566 C4595 0.950 . S
H4567 C4596 0.950 . S
H4568 C4598 0.950 . S
H4569 C4599 0.950 . S
C4570 H4552 0.951 1_545 S
C4570 C4571 1.366 . S
C4570 C4572 1.388 . S
C4571 C4570 1.366 . S
C4571 C4575 1.385 . S
C4572 H4553 0.953 1_545 S
C4572 C4570 1.388 . S
C4572 C4573 1.366 . S
C4573 C4572 1.366 . S
C4573 C4574 1.414 . S
C4573 C4576 1.499 . S
C4574 H4554 0.950 . S
C4574 C4573 1.414 . S
C4574 C4575 1.374 . S
C4575 H4555 0.950 . S
C4575 C4571 1.385 . S
C4575 C4574 1.374 . S
C4576 C4573 1.499 . S
C4576 C4577 1.373 . S
C4576 C4578 1.389 1_545 S
C4577 H4556 0.950 . S
C4577 C4576 1.373 . S
C4577 C4593 1.377 . S
C4578 C4576 1.389 1_565 S
C4578 C4579 1.524 . S
C4578 C4592 1.377 . S
C4579 C4578 1.524 . S
C4579 C4580 1.397 . S
C4579 C4584 1.363 . S
C4580 H4557 0.950 . S
C4580 C4579 1.397 . S
C4580 C4581 1.334 . S
C4581 H4558 0.950 . S
C4581 C4580 1.334 . S
C4581 C4582 1.287 . S
C4582 C4581 1.287 . S
C4582 C4583 1.524 . S
C4582 H4601 0.913 . S
C4583 H4559 0.950 . S
C4583 C4582 1.524 . S
C4583 C4584 1.415 . S
C4584 H4560 0.950 . S
C4584 C4579 1.363 . S
C4584 C4583 1.415 . S
C4585 H4561 0.951 . S
C4585 C4586 1.366 . S
C4585 C4587 1.388 . S
C4586 C4585 1.366 . S
C4586 C4590 1.385 . S
C4587 H4562 0.951 . S
C4587 C4585 1.388 . S
C4587 C4588 1.366 . S
C4588 C4587 1.366 . S
C4588 C4589 1.414 . S
C4588 C4591 1.499 . S
C4589 H4563 0.950 . S
C4589 C4588 1.414 . S
C4589 C4590 1.374 . S
C4590 H4564 0.950 . S
C4590 C4586 1.385 . S
C4590 C4589 1.374 . S
C4591 C4588 1.499 . S
C4591 C4592 1.373 1_545 S
C4591 C4593 1.389 . S
C4592 H4565 0.950 . S
C4592 C4578 1.377 . S
C4592 C4591 1.373 1_565 S
C4593 C4577 1.377 . S
C4593 C4591 1.389 . S
C4593 C4594 1.524 . S
C4594 C4593 1.524 . S
C4594 C4595 1.397 . S
C4594 C4599 1.363 . S
C4595 H4566 0.950 . S
C4595 C4594 1.397 . S
C4595 C4596 1.334 . S
C4596 H4567 0.950 . S
C4596 C4595 1.334 . S
C4596 C4597 1.287 . S
C4597 C4596 1.287 . S
C4597 C4598 1.524 . S
C4597 H4600 0.999 . S
C4598 H4568 0.950 . S
C4598 C4597 1.524 . S
C4598 C4599 1.415 . S
C4599 H4569 0.950 . S
C4599 C4594 1.363 . S
C4599 C4598 1.415 . S
H4600 C4597 0.999 . S
H4601 C4582 0.913 . S
H4602 C4620 0.951 . S
H4603 C4622 0.951 . S
H4604 C4624 0.950 . S
H4605 C4625 0.950 . S
H4606 C4627 0.950 . S
H4607 C4630 0.950 . S
H4608 C4631 0.950 . S
H4609 C4633 0.950 . S
H4610 C4634 0.950 . S
H4611 C4635 0.951 . S
H4612 C4637 0.951 . S
H4613 C4639 0.950 . S
H4614 C4640 0.950 . S
H4615 C4642 0.950 . S
H4616 C4645 0.950 . S
H4617 C4646 0.950 . S
H4618 C4648 0.950 . S
H4619 C4649 0.950 . S
C4620 H4602 0.951 . S
C4620 C4621 1.366 . S
C4620 C4622 1.388 . S
C4621 C4620 1.366 . S
C4621 C4625 1.385 . S
C4622 H4603 0.951 . S
C4622 C4620 1.388 . S
C4622 C4623 1.366 . S
C4623 C4622 1.366 . S
C4623 C4624 1.414 . S
C4623 C4626 1.499 . S
C4624 H4604 0.950 . S
C4624 C4623 1.414 . S
C4624 C4625 1.374 . S
C4625 H4605 0.950 . S
C4625 C4621 1.385 . S
C4625 C4624 1.374 . S
C4626 C4623 1.499 . S
C4626 C4627 1.373 . S
C4626 C4628 1.389 . S
C4627 H4606 0.950 . S
C4627 C4626 1.373 . S
C4627 C4643 1.377 . S
C4628 C4626 1.389 . S
C4628 C4629 1.524 . S
C4628 C4642 1.377 . S
C4629 C4628 1.524 . S
C4629 C4630 1.397 . S
C4629 C4634 1.363 . S
C4630 H4607 0.950 . S
C4630 C4629 1.397 . S
C4630 C4631 1.334 . S
C4631 H4608 0.950 . S
C4631 C4630 1.334 . S
C4631 C4632 1.287 . S
C4632 C4631 1.287 . S
C4632 C4633 1.524 . S
C4632 H4651 0.913 . S
C4633 H4609 0.950 . S
C4633 C4632 1.524 . S
C4633 C4634 1.415 . S
C4634 H4610 0.950 . S
C4634 C4629 1.363 . S
C4634 C4633 1.415 . S
C4635 H4611 0.951 . S
C4635 C4636 1.366 . S
C4635 C4637 1.388 . S
C4636 C4635 1.366 . S
C4636 C4640 1.385 . S
C4637 H4612 0.951 . S
C4637 C4635 1.388 . S
C4637 C4638 1.366 . S
C4638 C4637 1.366 . S
C4638 C4639 1.414 . S
C4638 C4641 1.499 . S
C4639 H4613 0.950 . S
C4639 C4638 1.414 . S
C4639 C4640 1.374 . S
C4640 H4614 0.950 . S
C4640 C4636 1.385 . S
C4640 C4639 1.374 . S
C4641 C4638 1.499 . S
C4641 C4642 1.373 . S
C4641 C4643 1.389 . S
C4642 H4615 0.950 . S
C4642 C4628 1.377 . S
C4642 C4641 1.373 . S
C4643 C4627 1.377 . S
C4643 C4641 1.389 . S
C4643 C4644 1.524 . S
C4644 C4643 1.524 . S
C4644 C4645 1.397 . S
C4644 C4649 1.363 . S
C4645 H4616 0.950 . S
C4645 C4644 1.397 . S
C4645 C4646 1.334 . S
C4646 H4617 0.950 . S
C4646 C4645 1.334 . S
C4646 C4647 1.287 . S
C4647 C4646 1.287 . S
C4647 C4648 1.524 . S
C4647 H4650 0.999 . S
C4648 H4618 0.950 . S
C4648 C4647 1.524 . S
C4648 C4649 1.415 . S
C4649 H4619 0.950 . S
C4649 C4644 1.363 . S
C4649 C4648 1.415 . S
H4650 C4647 0.999 . S
H4651 C4632 0.913 . S
H4652 C4670 0.952 . S
H4653 C4672 0.951 . S
H4654 C4674 0.950 . S
H4655 C4675 0.950 . S
H4656 C4677 0.950 . S
H4657 C4680 0.950 1_545 S
H4658 C4681 0.950 . S
H4659 C4683 0.950 . S
H4660 C4684 0.950 . S
H4661 C4685 0.951 . S
H4662 C4687 0.951 . S
H4663 C4689 0.950 . S
H4664 C4690 0.950 . S
H4665 C4692 0.950 . S
H4666 C4695 0.950 . S
H4667 C4696 0.950 . S
H4668 C4698 0.950 . S
H4669 C4699 0.950 . S
C4670 H4652 0.952 . S
C4670 C4671 1.365 1_565 S
C4670 C4672 1.388 . S
C4671 C4670 1.365 1_545 S
C4671 C4675 1.385 . S
C4672 H4653 0.951 . S
C4672 C4670 1.388 . S
C4672 C4673 1.366 1_565 S
C4673 C4672 1.366 1_545 S
C4673 C4674 1.414 . S
C4673 C4676 1.499 . S
C4674 H4654 0.950 . S
C4674 C4673 1.414 . S
C4674 C4675 1.374 . S
C4675 H4655 0.950 . S
C4675 C4671 1.385 . S
C4675 C4674 1.374 . S
C4676 C4673 1.499 . S
C4676 C4677 1.373 . S
C4676 C4678 1.389 1_545 S
C4677 H4656 0.950 . S
C4677 C4676 1.373 . S
C4677 C4693 1.377 . S
C4678 C4676 1.389 1_565 S
C4678 C4679 1.524 . S
C4678 C4692 1.377 . S
C4679 C4678 1.524 . S
C4679 C4680 1.397 . S
C4679 C4684 1.363 . S
C4680 H4657 0.950 1_565 S
C4680 C4679 1.397 . S
C4680 C4681 1.334 . S
C4681 H4658 0.950 . S
C4681 C4680 1.334 . S
C4681 C4682 1.287 . S
C4682 C4681 1.287 . S
C4682 C4683 1.524 . S
C4682 H4701 0.913 . S
C4683 H4659 0.950 . S
C4683 C4682 1.524 . S
C4683 C4684 1.415 . S
C4684 H4660 0.950 . S
C4684 C4679 1.363 . S
C4684 C4683 1.415 . S
C4685 H4661 0.951 . S
C4685 C4686 1.366 . S
C4685 C4687 1.388 . S
C4686 C4685 1.366 . S
C4686 C4690 1.385 1_545 S
C4687 H4662 0.951 . S
C4687 C4685 1.388 . S
C4687 C4688 1.366 . S
C4688 C4687 1.366 . S
C4688 C4689 1.414 1_545 S
C4688 C4691 1.499 . S
C4689 H4663 0.950 . S
C4689 C4688 1.414 1_565 S
C4689 C4690 1.374 . S
C4690 H4664 0.950 . S
C4690 C4686 1.385 1_565 S
C4690 C4689 1.374 . S
C4691 C4688 1.499 . S
C4691 C4692 1.373 1_545 S
C4691 C4693 1.389 . S
C4692 H4665 0.950 . S
C4692 C4678 1.377 . S
C4692 C4691 1.373 1_565 S
C4693 C4677 1.377 . S
C4693 C4691 1.389 . S
C4693 C4694 1.524 . S
C4694 C4693 1.524 . S
C4694 C4695 1.397 . S
C4694 C4699 1.363 . S
C4695 H4666 0.950 . S
C4695 C4694 1.397 . S
C4695 C4696 1.334 . S
C4696 H4667 0.950 . S
C4696 C4695 1.334 . S
C4696 C4697 1.287 . S
C4697 C4696 1.287 . S
C4697 C4698 1.524 . S
C4697 H4700 0.999 . S
C4698 H4668 0.950 . S
C4698 C4697 1.524 . S
C4698 C4699 1.415 . S
C4699 H4669 0.950 . S
C4699 C4694 1.363 . S
C4699 C4698 1.415 . S
H4700 C4697 0.999 . S
H4701 C4682 0.913 . S
H4702 C4720 0.951 . S
H4703 C4722 0.951 . S
H4704 C4724 0.950 . S
H4705 C4725 0.950 . S
H4706 C4727 0.950 . S
H4707 C4730 0.950 . S
H4708 C4731 0.950 . S
H4709 C4733 0.950 . S
H4710 C4734 0.950 . S
H4711 C4735 0.951 . S
H4712 C4737 0.951 . S
H4713 C4739 0.950 . S
H4714 C4740 0.950 . S
H4715 C4742 0.950 . S
H4716 C4745 0.950 . S
H4717 C4746 0.950 . S
H4718 C4748 0.950 . S
H4719 C4749 0.950 . S
C4720 H4702 0.951 . S
C4720 C4721 1.366 . S
C4720 C4722 1.388 . S
C4721 C4720 1.366 . S
C4721 C4725 1.385 . S
C4722 H4703 0.951 . S
C4722 C4720 1.388 . S
C4722 C4723 1.366 . S
C4723 C4722 1.366 . S
C4723 C4724 1.414 . S
C4723 C4726 1.499 . S
C4724 H4704 0.950 . S
C4724 C4723 1.414 . S
C4724 C4725 1.374 . S
C4725 H4705 0.950 . S
C4725 C4721 1.385 . S
C4725 C4724 1.374 . S
C4726 C4723 1.499 . S
C4726 C4727 1.373 . S
C4726 C4728 1.389 . S
C4727 H4706 0.950 . S
C4727 C4726 1.373 . S
C4727 C4743 1.377 . S
C4728 C4726 1.389 . S
C4728 C4729 1.524 . S
C4728 C4742 1.377 . S
C4729 C4728 1.524 . S
C4729 C4730 1.397 . S
C4729 C4734 1.363 . S
C4730 H4707 0.950 . S
C4730 C4729 1.397 . S
C4730 C4731 1.334 . S
C4731 H4708 0.950 . S
C4731 C4730 1.334 . S
C4731 C4732 1.287 . S
C4732 C4731 1.287 . S
C4732 C4733 1.524 . S
C4732 H4751 0.913 . S
C4733 H4709 0.950 . S
C4733 C4732 1.524 . S
C4733 C4734 1.415 . S
C4734 H4710 0.950 . S
C4734 C4729 1.363 . S
C4734 C4733 1.415 . S
C4735 H4711 0.951 . S
C4735 C4736 1.366 . S
C4735 C4737 1.388 . S
C4736 C4735 1.366 . S
C4736 C4740 1.385 . S
C4737 H4712 0.951 . S
C4737 C4735 1.388 . S
C4737 C4738 1.366 . S
C4738 C4737 1.366 . S
C4738 C4739 1.414 . S
C4738 C4741 1.499 . S
C4739 H4713 0.950 . S
C4739 C4738 1.414 . S
C4739 C4740 1.374 . S
C4740 H4714 0.950 . S
C4740 C4736 1.385 . S
C4740 C4739 1.374 . S
C4741 C4738 1.499 . S
C4741 C4742 1.373 . S
C4741 C4743 1.389 . S
C4742 H4715 0.950 . S
C4742 C4728 1.377 . S
C4742 C4741 1.373 . S
C4743 C4727 1.377 . S
C4743 C4741 1.389 . S
C4743 C4744 1.524 . S
C4744 C4743 1.524 . S
C4744 C4745 1.397 . S
C4744 C4749 1.363 . S
C4745 H4716 0.950 . S
C4745 C4744 1.397 . S
C4745 C4746 1.334 . S
C4746 H4717 0.950 . S
C4746 C4745 1.334 . S
C4746 C4747 1.287 . S
C4747 C4746 1.287 . S
C4747 C4748 1.524 . S
C4747 H4750 0.999 . S
C4748 H4718 0.950 . S
C4748 C4747 1.524 . S
C4748 C4749 1.415 . S
C4749 H4719 0.950 . S
C4749 C4744 1.363 . S
C4749 C4748 1.415 . S
H4750 C4747 0.999 . S
H4751 C4732 0.913 . S
H4752 C4770 0.951 . S
H4753 C4772 0.951 . S
H4754 C4774 0.950 . S
H4755 C4775 0.950 . S
H4756 C4777 0.953 . S
H4757 C4780 0.950 . S
H4758 C4781 0.950 . S
H4759 C4783 0.950 . S
H4760 C4784 0.950 . S
H4761 C4785 0.951 . S
H4762 C4787 0.951 . S
H4763 C4789 0.950 . S
H4764 C4790 0.955 . S
H4765 C4792 0.950 . S
H4766 C4795 0.950 . S
H4767 C4796 0.950 . S
H4768 C4798 0.950 . S
H4769 C4799 0.950 . S
C4770 H4752 0.951 . S
C4770 C4771 1.366 . S
C4770 C4772 1.388 . S
C4771 C4770 1.366 . S
C4771 C4775 1.385 . S
C4772 H4753 0.951 . S
C4772 C4770 1.388 . S
C4772 C4773 1.366 . S
C4773 C4772 1.366 . S
C4773 C4774 1.414 . S
C4773 C4776 1.499 . S
C4774 H4754 0.950 . S
C4774 C4773 1.414 . S
C4774 C4775 1.374 . S
C4775 H4755 0.950 . S
C4775 C4771 1.385 . S
C4775 C4774 1.374 . S
C4776 C4773 1.499 . S
C4776 C4777 1.369 1_554 S
C4776 C4778 1.389 . S
C4777 H4756 0.953 . S
C4777 C4776 1.369 1_556 S
C4777 C4793 1.378 . S
C4778 C4776 1.389 . S
C4778 C4779 1.524 . S
C4778 C4792 1.377 . S
C4779 C4778 1.524 . S
C4779 C4780 1.397 . S
C4779 C4784 1.363 . S
C4780 H4757 0.950 . S
C4780 C4779 1.397 . S
C4780 C4781 1.334 . S
C4781 H4758 0.950 . S
C4781 C4780 1.334 . S
C4781 C4782 1.287 . S
C4782 C4781 1.287 . S
C4782 C4783 1.524 . S
C4782 H4801 0.913 . S
C4783 H4759 0.950 . S
C4783 C4782 1.524 . S
C4783 C4784 1.415 . S
C4784 H4760 0.950 . S
C4784 C4779 1.363 . S
C4784 C4783 1.415 . S
C4785 H4761 0.951 . S
C4785 C4786 1.366 . S
C4785 C4787 1.388 . S
C4786 C4785 1.366 . S
C4786 C4790 1.385 . S
C4787 H4762 0.951 . S
C4787 C4785 1.388 . S
C4787 C4788 1.376 . S
C4788 C4787 1.376 . S
C4788 C4789 1.409 1_556 S
C4788 C4791 1.493 1_556 S
C4789 H4763 0.950 . S
C4789 C4788 1.409 1_554 S
C4789 C4790 1.374 1_554 S
C4790 H4764 0.955 . S
C4790 C4786 1.385 . S
C4790 C4789 1.374 1_556 S
C4791 C4788 1.493 1_554 S
C4791 C4792 1.373 . S
C4791 C4793 1.389 1_554 S
C4792 H4765 0.950 . S
C4792 C4778 1.377 . S
C4792 C4791 1.373 . S
C4793 C4777 1.378 . S
C4793 C4791 1.389 1_556 S
C4793 C4794 1.524 . S
C4794 C4793 1.524 . S
C4794 C4795 1.397 . S
C4794 C4799 1.363 . S
C4795 H4766 0.950 . S
C4795 C4794 1.397 . S
C4795 C4796 1.334 . S
C4796 H4767 0.950 . S
C4796 C4795 1.334 . S
C4796 C4797 1.287 . S
C4797 C4796 1.287 . S
C4797 C4798 1.524 . S
C4797 H4800 0.999 . S
C4798 H4768 0.950 . S
C4798 C4797 1.524 . S
C4798 C4799 1.415 . S
C4799 H4769 0.950 . S
C4799 C4794 1.363 . S
C4799 C4798 1.415 . S
H4800 C4797 0.999 . S
H4801 C4782 0.913 . S
H4802 C4820 0.951 . S
H4803 C4822 0.951 . S
H4804 C4824 0.950 . S
H4805 C4825 0.950 . S
H4806 C4827 0.950 . S
H4807 C4830 0.950 . S
H4808 C4831 0.950 . S
H4809 C4833 0.950 . S
H4810 C4834 0.950 . S
H4811 C4835 0.951 . S
H4812 C4837 0.951 . S
H4813 C4839 0.950 . S
H4814 C4840 0.950 . S
H4815 C4842 0.950 . S
H4816 C4845 0.950 . S
H4817 C4846 0.950 . S
H4818 C4848 0.950 . S
H4819 C4849 0.950 . S
C4820 H4802 0.951 . S
C4820 C4821 1.366 . S
C4820 C4822 1.388 . S
C4821 C4820 1.366 . S
C4821 C4825 1.385 . S
C4822 H4803 0.951 . S
C4822 C4820 1.388 . S
C4822 C4823 1.366 . S
C4823 C4822 1.366 . S
C4823 C4824 1.414 . S
C4823 C4826 1.499 . S
C4824 H4804 0.950 . S
C4824 C4823 1.414 . S
C4824 C4825 1.374 . S
C4825 H4805 0.950 . S
C4825 C4821 1.385 . S
C4825 C4824 1.374 . S
C4826 C4823 1.499 . S
C4826 C4827 1.373 . S
C4826 C4828 1.389 . S
C4827 H4806 0.950 . S
C4827 C4826 1.373 . S
C4827 C4843 1.377 . S
C4828 C4826 1.389 . S
C4828 C4829 1.524 . S
C4828 C4842 1.377 . S
C4829 C4828 1.524 . S
C4829 C4830 1.397 1_554 S
C4829 C4834 1.363 . S
C4830 H4807 0.950 . S
C4830 C4829 1.397 1_556 S
C4830 C4831 1.334 . S
C4831 H4808 0.950 . S
C4831 C4830 1.334 . S
C4831 C4832 1.287 . S
C4832 C4831 1.287 . S
C4832 C4833 1.524 1_556 S
C4832 H4851 0.913 . S
C4833 H4809 0.950 . S
C4833 C4832 1.524 1_554 S
C4833 C4834 1.415 . S
C4834 H4810 0.950 . S
C4834 C4829 1.363 . S
C4834 C4833 1.415 . S
C4835 H4811 0.951 . S
C4835 C4836 1.366 . S
C4835 C4837 1.388 . S
C4836 C4835 1.366 . S
C4836 C4840 1.385 . S
C4837 H4812 0.951 . S
C4837 C4835 1.388 . S
C4837 C4838 1.366 . S
C4838 C4837 1.366 . S
C4838 C4839 1.414 . S
C4838 C4841 1.499 . S
C4839 H4813 0.950 . S
C4839 C4838 1.414 . S
C4839 C4840 1.374 . S
C4840 H4814 0.950 . S
C4840 C4836 1.385 . S
C4840 C4839 1.374 . S
C4841 C4838 1.499 . S
C4841 C4842 1.373 . S
C4841 C4843 1.389 . S
C4842 H4815 0.950 . S
C4842 C4828 1.377 . S
C4842 C4841 1.373 . S
C4843 C4827 1.377 . S
C4843 C4841 1.389 . S
C4843 C4844 1.524 . S
C4844 C4843 1.524 . S
C4844 C4845 1.397 . S
C4844 C4849 1.363 . S
C4845 H4816 0.950 . S
C4845 C4844 1.397 . S
C4845 C4846 1.334 . S
C4846 H4817 0.950 . S
C4846 C4845 1.334 . S
C4846 C4847 1.287 . S
C4847 C4846 1.287 . S
C4847 C4848 1.524 . S
C4847 H4850 0.999 . S
C4848 H4818 0.950 . S
C4848 C4847 1.524 . S
C4848 C4849 1.415 . S
C4849 H4819 0.950 . S
C4849 C4844 1.363 . S
C4849 C4848 1.415 . S
H4850 C4847 0.999 . S
H4851 C4832 0.913 . S
H4852 C4870 0.951 . S
H4853 C4872 0.951 . S
H4854 C4874 0.950 . S
H4855 C4875 0.950 . S
H4856 C4877 0.950 . S
H4857 C4880 0.950 . S
H4858 C4881 0.950 . S
H4859 C4883 0.950 . S
H4860 C4884 0.950 . S
H4861 C4885 0.951 . S
H4862 C4887 0.951 . S
H4863 C4889 0.950 . S
H4864 C4890 0.950 . S
H4865 C4892 0.950 . S
H4866 C4895 0.950 . S
H4867 C4896 0.950 . S
H4868 C4898 0.950 . S
H4869 C4899 0.950 . S
C4870 H4852 0.951 . S
C4870 C4871 1.366 . S
C4870 C4872 1.388 . S
C4871 C4870 1.366 . S
C4871 C4875 1.385 . S
C4872 H4853 0.951 . S
C4872 C4870 1.388 . S
C4872 C4873 1.366 . S
C4873 C4872 1.366 . S
C4873 C4874 1.414 . S
C4873 C4876 1.499 . S
C4874 H4854 0.950 . S
C4874 C4873 1.414 . S
C4874 C4875 1.374 . S
C4875 H4855 0.950 . S
C4875 C4871 1.385 . S
C4875 C4874 1.374 . S
C4876 C4873 1.499 . S
C4876 C4877 1.373 . S
C4876 C4878 1.389 . S
C4877 H4856 0.950 . S
C4877 C4876 1.373 . S
C4877 C4893 1.377 . S
C4878 C4876 1.389 . S
C4878 C4879 1.524 . S
C4878 C4892 1.377 . S
C4879 C4878 1.524 . S
C4879 C4880 1.397 . S
C4879 C4884 1.363 . S
C4880 H4857 0.950 . S
C4880 C4879 1.397 . S
C4880 C4881 1.334 . S
C4881 H4858 0.950 . S
C4881 C4880 1.334 . S
C4881 C4882 1.287 . S
C4882 C4881 1.287 . S
C4882 C4883 1.524 . S
C4882 H4901 0.913 . S
C4883 H4859 0.950 . S
C4883 C4882 1.524 . S
C4883 C4884 1.415 . S
C4884 H4860 0.950 . S
C4884 C4879 1.363 . S
C4884 C4883 1.415 . S
C4885 H4861 0.951 . S
C4885 C4886 1.366 . S
C4885 C4887 1.388 . S
C4886 C4885 1.366 . S
C4886 C4890 1.385 . S
C4887 H4862 0.951 . S
C4887 C4885 1.388 . S
C4887 C4888 1.366 . S
C4888 C4887 1.366 . S
C4888 C4889 1.414 . S
C4888 C4891 1.499 . S
C4889 H4863 0.950 . S
C4889 C4888 1.414 . S
C4889 C4890 1.374 . S
C4890 H4864 0.950 . S
C4890 C4886 1.385 . S
C4890 C4889 1.374 . S
C4891 C4888 1.499 . S
C4891 C4892 1.373 . S
C4891 C4893 1.389 . S
C4892 H4865 0.950 . S
C4892 C4878 1.377 . S
C4892 C4891 1.373 . S
C4893 C4877 1.377 . S
C4893 C4891 1.389 . S
C4893 C4894 1.524 . S
C4894 C4893 1.524 . S
C4894 C4895 1.397 . S
C4894 C4899 1.363 . S
C4895 H4866 0.950 . S
C4895 C4894 1.397 . S
C4895 C4896 1.334 . S
C4896 H4867 0.950 . S
C4896 C4895 1.334 . S
C4896 C4897 1.287 . S
C4897 C4896 1.287 . S
C4897 C4898 1.524 . S
C4897 H4900 0.999 . S
C4898 H4868 0.950 . S
C4898 C4897 1.524 . S
C4898 C4899 1.415 . S
C4899 H4869 0.950 . S
C4899 C4894 1.363 . S
C4899 C4898 1.415 . S
H4900 C4897 0.999 . S
H4901 C4882 0.913 . S
H4902 C4920 0.951 . S
H4903 C4922 0.951 . S
H4904 C4924 0.950 . S
H4905 C4925 0.950 . S
H4906 C4927 0.950 . S
H4907 C4930 0.950 . S
H4908 C4931 0.950 . S
H4909 C4933 0.950 . S
H4910 C4934 0.950 . S
H4911 C4935 0.951 . S
H4912 C4937 0.951 . S
H4913 C4939 0.950 . S
H4914 C4940 0.950 . S
H4915 C4942 0.950 . S
H4916 C4945 0.950 . S
H4917 C4946 0.950 . S
H4918 C4948 0.950 . S
H4919 C4949 0.950 . S
C4920 H4902 0.951 . S
C4920 C4921 1.366 . S
C4920 C4922 1.388 . S
C4921 C4920 1.366 . S
C4921 C4925 1.385 . S
C4922 H4903 0.951 . S
C4922 C4920 1.388 . S
C4922 C4923 1.366 . S
C4923 C4922 1.366 . S
C4923 C4924 1.414 . S
C4923 C4926 1.499 . S
C4924 H4904 0.950 . S
C4924 C4923 1.414 . S
C4924 C4925 1.374 . S
C4925 H4905 0.950 . S
C4925 C4921 1.385 . S
C4925 C4924 1.374 . S
C4926 C4923 1.499 . S
C4926 C4927 1.373 . S
C4926 C4928 1.389 . S
C4927 H4906 0.950 . S
C4927 C4926 1.373 . S
C4927 C4943 1.377 . S
C4928 C4926 1.389 . S
C4928 C4929 1.524 . S
C4928 C4942 1.377 . S
C4929 C4928 1.524 . S
C4929 C4930 1.397 . S
C4929 C4934 1.363 . S
C4930 H4907 0.950 . S
C4930 C4929 1.397 . S
C4930 C4931 1.334 . S
C4931 H4908 0.950 . S
C4931 C4930 1.334 . S
C4931 C4932 1.287 . S
C4932 C4931 1.287 . S
C4932 C4933 1.524 . S
C4932 H4951 0.913 . S
C4933 H4909 0.950 . S
C4933 C4932 1.524 . S
C4933 C4934 1.415 . S
C4934 H4910 0.950 . S
C4934 C4929 1.363 . S
C4934 C4933 1.415 . S
C4935 H4911 0.951 . S
C4935 C4936 1.366 . S
C4935 C4937 1.388 . S
C4936 C4935 1.366 . S
C4936 C4940 1.385 . S
C4937 H4912 0.951 . S
C4937 C4935 1.388 . S
C4937 C4938 1.366 . S
C4938 C4937 1.366 . S
C4938 C4939 1.414 . S
C4938 C4941 1.499 . S
C4939 H4913 0.950 . S
C4939 C4938 1.414 . S
C4939 C4940 1.374 . S
C4940 H4914 0.950 . S
C4940 C4936 1.385 . S
C4940 C4939 1.374 . S
C4941 C4938 1.499 . S
C4941 C4942 1.373 . S
C4941 C4943 1.389 . S
C4942 H4915 0.950 . S
C4942 C4928 1.377 . S
C4942 C4941 1.373 . S
C4943 C4927 1.377 . S
C4943 C4941 1.389 . S
C4943 C4944 1.524 . S
C4944 C4943 1.524 . S
C4944 C4945 1.397 . S
C4944 C4949 1.363 . S
C4945 H4916 0.950 . S
C4945 C4944 1.397 . S
C4945 C4946 1.334 . S
C4946 H4917 0.950 . S
C4946 C4945 1.334 . S
C4946 C4947 1.287 . S
C4947 C4946 1.287 . S
C4947 C4948 1.524 . S
C4947 H4950 0.999 . S
C4948 H4918 0.950 . S
C4948 C4947 1.524 . S
C4948 C4949 1.415 . S
C4949 H4919 0.950 . S
C4949 C4944 1.363 . S
C4949 C4948 1.415 . S
H4950 C4947 0.999 . S
H4951 C4932 0.913 . S
H4952 C4970 0.951 . S
H4953 C4972 0.951 . S
H4954 C4974 0.950 . S
H4955 C4975 0.950 . S
H4956 C4977 0.950 . S
H4957 C4980 0.950 . S
H4958 C4981 0.950 . S
H4959 C4983 0.950 . S
H4960 C4984 0.950 . S
H4961 C4985 0.951 . S
H4962 C4987 0.951 . S
H4963 C4989 0.950 . S
H4964 C4990 0.950 . S
H4965 C4992 0.950 . S
H4966 C4995 0.950 . S
H4967 C4996 0.950 . S
H4968 C4998 0.950 . S
H4969 C4999 0.950 . S
C4970 H4952 0.951 . S
C4970 C4971 1.366 . S
C4970 C4972 1.388 . S
C4971 C4970 1.366 . S
C4971 C4975 1.385 . S
C4972 H4953 0.951 . S
C4972 C4970 1.388 . S
C4972 C4973 1.366 . S
C4973 C4972 1.366 . S
C4973 C4974 1.414 . S
C4973 C4976 1.499 . S
C4974 H4954 0.950 . S
C4974 C4973 1.414 . S
C4974 C4975 1.374 . S
C4975 H4955 0.950 . S
C4975 C4971 1.385 . S
C4975 C4974 1.374 . S
C4976 C4973 1.499 . S
C4976 C4977 1.373 . S
C4976 C4978 1.389 . S
C4977 H4956 0.950 . S
C4977 C4976 1.373 . S
C4977 C4993 1.377 . S
C4978 C4976 1.389 . S
C4978 C4979 1.524 . S
C4978 C4992 1.377 . S
C4979 C4978 1.524 . S
C4979 C4980 1.397 . S
C4979 C4984 1.363 . S
C4980 H4957 0.950 . S
C4980 C4979 1.397 . S
C4980 C4981 1.334 . S
C4981 H4958 0.950 . S
C4981 C4980 1.334 . S
C4981 C4982 1.287 . S
C4982 C4981 1.287 . S
C4982 C4983 1.524 . S
C4982 H5001 0.913 . S
C4983 H4959 0.950 . S
C4983 C4982 1.524 . S
C4983 C4984 1.415 . S
C4984 H4960 0.950 . S
C4984 C4979 1.363 . S
C4984 C4983 1.415 . S
C4985 H4961 0.951 . S
C4985 C4986 1.366 . S
C4985 C4987 1.388 . S
C4986 C4985 1.366 . S
C4986 C4990 1.385 . S
C4987 H4962 0.951 . S
C4987 C4985 1.388 . S
C4987 C4988 1.366 . S
C4988 C4987 1.366 . S
C4988 C4989 1.414 . S
C4988 C4991 1.499 . S
C4989 H4963 0.950 . S
C4989 C4988 1.414 . S
C4989 C4990 1.374 . S
C4990 H4964 0.950 . S
C4990 C4986 1.385 . S
C4990 C4989 1.374 . S
C4991 C4988 1.499 . S
C4991 C4992 1.373 . S
C4991 C4993 1.389 . S
C4992 H4965 0.950 . S
C4992 C4978 1.377 . S
C4992 C4991 1.373 . S
C4993 C4977 1.377 . S
C4993 C4991 1.389 . S
C4993 C4994 1.524 . S
C4994 C4993 1.524 . S
C4994 C4995 1.397 . S
C4994 C4999 1.363 . S
C4995 H4966 0.950 . S
C4995 C4994 1.397 . S
C4995 C4996 1.334 . S
C4996 H4967 0.950 . S
C4996 C4995 1.334 . S
C4996 C4997 1.287 . S
C4997 C4996 1.287 . S
C4997 C4998 1.524 . S
C4997 H5000 0.999 . S
C4998 H4968 0.950 . S
C4998 C4997 1.524 . S
C4998 C4999 1.415 . S
C4999 H4969 0.950 . S
C4999 C4994 1.363 . S
C4999 C4998 1.415 . S
H5000 C4997 0.999 . S
H5001 C4982 0.913 . S
H5002 C5020 0.951 . S
H5003 C5022 0.951 . S
H5004 C5024 0.950 . S
H5005 C5025 0.950 . S
H5006 C5027 0.950 . S
H5007 C5030 0.950 . S
H5008 C5031 0.950 . S
H5009 C5033 0.950 . S
H5010 C5034 0.950 . S
H5011 C5035 0.951 . S
H5012 C5037 0.951 . S
H5013 C5039 0.950 . S
H5014 C5040 0.950 . S
H5015 C5042 0.950 . S
H5016 C5045 0.950 . S
H5017 C5046 0.950 . S
H5018 C5048 0.950 . S
H5019 C5049 0.950 . S
C5020 H5002 0.951 . S
C5020 C5021 1.366 . S
C5020 C5022 1.388 . S
C5021 C5020 1.366 . S
C5021 C5025 1.385 . S
C5022 H5003 0.951 . S
C5022 C5020 1.388 . S
C5022 C5023 1.366 . S
C5023 C5022 1.366 . S
C5023 C5024 1.414 . S
C5023 C5026 1.499 . S
C5024 H5004 0.950 . S
C5024 C5023 1.414 . S
C5024 C5025 1.374 . S
C5025 H5005 0.950 . S
C5025 C5021 1.385 . S
C5025 C5024 1.374 . S
C5026 C5023 1.499 . S
C5026 C5027 1.373 . S
C5026 C5028 1.389 . S
C5027 H5006 0.950 . S
C5027 C5026 1.373 . S
C5027 C5043 1.377 . S
C5028 C5026 1.389 . S
C5028 C5029 1.524 . S
C5028 C5042 1.377 . S
C5029 C5028 1.524 . S
C5029 C5030 1.397 . S
C5029 C5034 1.363 . S
C5030 H5007 0.950 . S
C5030 C5029 1.397 . S
C5030 C5031 1.334 . S
C5031 H5008 0.950 . S
C5031 C5030 1.334 . S
C5031 C5032 1.287 . S
C5032 C5031 1.287 . S
C5032 C5033 1.524 . S
C5032 H5051 0.913 . S
C5033 H5009 0.950 . S
C5033 C5032 1.524 . S
C5033 C5034 1.415 . S
C5034 H5010 0.950 . S
C5034 C5029 1.363 . S
C5034 C5033 1.415 . S
C5035 H5011 0.951 . S
C5035 C5036 1.366 . S
C5035 C5037 1.388 . S
C5036 C5035 1.366 . S
C5036 C5040 1.385 . S
C5037 H5012 0.951 . S
C5037 C5035 1.388 . S
C5037 C5038 1.366 . S
C5038 C5037 1.366 . S
C5038 C5039 1.414 . S
C5038 C5041 1.499 . S
C5039 H5013 0.950 . S
C5039 C5038 1.414 . S
C5039 C5040 1.374 . S
C5040 H5014 0.950 . S
C5040 C5036 1.385 . S
C5040 C5039 1.374 . S
C5041 C5038 1.499 . S
C5041 C5042 1.373 . S
C5041 C5043 1.389 . S
C5042 H5015 0.950 . S
C5042 C5028 1.377 . S
C5042 C5041 1.373 . S
C5043 C5027 1.377 . S
C5043 C5041 1.389 . S
C5043 C5044 1.524 . S
C5044 C5043 1.524 . S
C5044 C5045 1.397 . S
C5044 C5049 1.363 . S
C5045 H5016 0.950 . S
C5045 C5044 1.397 . S
C5045 C5046 1.334 . S
C5046 H5017 0.950 . S
C5046 C5045 1.334 . S
C5046 C5047 1.287 . S
C5047 C5046 1.287 . S
C5047 C5048 1.524 . S
C5047 H5050 0.999 . S
C5048 H5018 0.950 . S
C5048 C5047 1.524 . S
C5048 C5049 1.415 . S
C5049 H5019 0.950 . S
C5049 C5044 1.363 . S
C5049 C5048 1.415 . S
H5050 C5047 0.999 . S
H5051 C5032 0.913 . S
H5052 C5070 0.951 . S
H5053 C5072 0.951 . S
H5054 C5074 0.950 . S
H5055 C5075 0.950 . S
H5056 C5077 0.950 . S
H5057 C5080 0.950 . S
H5058 C5081 0.950 . S
H5059 C5083 0.950 . S
H5060 C5084 0.950 . S
H5061 C5085 0.951 . S
H5062 C5087 0.951 . S
H5063 C5089 0.950 . S
H5064 C5090 0.950 . S
H5065 C5092 0.950 . S
H5066 C5095 0.950 . S
H5067 C5096 0.950 . S
H5068 C5098 0.950 . S
H5069 C5099 0.950 . S
C5070 H5052 0.951 . S
C5070 C5071 1.366 . S
C5070 C5072 1.388 . S
C5071 C5070 1.366 . S
C5071 C5075 1.385 . S
C5072 H5053 0.951 . S
C5072 C5070 1.388 . S
C5072 C5073 1.366 . S
C5073 C5072 1.366 . S
C5073 C5074 1.414 . S
C5073 C5076 1.499 . S
C5074 H5054 0.950 . S
C5074 C5073 1.414 . S
C5074 C5075 1.374 . S
C5075 H5055 0.950 . S
C5075 C5071 1.385 . S
C5075 C5074 1.374 . S
C5076 C5073 1.499 . S
C5076 C5077 1.373 . S
C5076 C5078 1.389 . S
C5077 H5056 0.950 . S
C5077 C5076 1.373 . S
C5077 C5093 1.377 . S
C5078 C5076 1.389 . S
C5078 C5079 1.524 . S
C5078 C5092 1.377 . S
C5079 C5078 1.524 . S
C5079 C5080 1.397 . S
C5079 C5084 1.363 . S
C5080 H5057 0.950 . S
C5080 C5079 1.397 . S
C5080 C5081 1.334 . S
C5081 H5058 0.950 . S
C5081 C5080 1.334 . S
C5081 C5082 1.287 . S
C5082 C5081 1.287 . S
C5082 C5083 1.524 . S
C5082 H5101 0.913 . S
C5083 H5059 0.950 . S
C5083 C5082 1.524 . S
C5083 C5084 1.415 . S
C5084 H5060 0.950 . S
C5084 C5079 1.363 . S
C5084 C5083 1.415 . S
C5085 H5061 0.951 . S
C5085 C5086 1.366 . S
C5085 C5087 1.388 . S
C5086 C5085 1.366 . S
C5086 C5090 1.385 . S
C5087 H5062 0.951 . S
C5087 C5085 1.388 . S
C5087 C5088 1.366 . S
C5088 C5087 1.366 . S
C5088 C5089 1.414 . S
C5088 C5091 1.499 . S
C5089 H5063 0.950 . S
C5089 C5088 1.414 . S
C5089 C5090 1.374 . S
C5090 H5064 0.950 . S
C5090 C5086 1.385 . S
C5090 C5089 1.374 . S
C5091 C5088 1.499 . S
C5091 C5092 1.373 . S
C5091 C5093 1.389 . S
C5092 H5065 0.950 . S
C5092 C5078 1.377 . S
C5092 C5091 1.373 . S
C5093 C5077 1.377 . S
C5093 C5091 1.389 . S
C5093 C5094 1.524 . S
C5094 C5093 1.524 . S
C5094 C5095 1.397 . S
C5094 C5099 1.363 . S
C5095 H5066 0.950 . S
C5095 C5094 1.397 . S
C5095 C5096 1.334 . S
C5096 H5067 0.950 . S
C5096 C5095 1.334 . S
C5096 C5097 1.287 . S
C5097 C5096 1.287 . S
C5097 C5098 1.524 . S
C5097 H5100 0.999 . S
C5098 H5068 0.950 . S
C5098 C5097 1.524 . S
C5098 C5099 1.415 . S
C5099 H5069 0.950 . S
C5099 C5094 1.363 . S
C5099 C5098 1.415 . S
H5100 C5097 0.999 . S
H5101 C5082 0.913 . S
H5102 C5120 0.951 . S
H5103 C5122 0.951 . S
H5104 C5124 0.950 . S
H5105 C5125 0.950 . S
H5106 C5127 0.950 . S
H5107 C5130 0.950 . S
H5108 C5131 0.950 . S
H5109 C5133 0.950 . S
H5110 C5134 0.950 . S
H5111 C5135 0.951 . S
H5112 C5137 0.951 . S
H5113 C5139 0.950 . S
H5114 C5140 0.950 . S
H5115 C5142 0.950 . S
H5116 C5145 0.950 . S
H5117 C5146 0.950 . S
H5118 C5148 0.950 . S
H5119 C5149 0.950 . S
C5120 H5102 0.951 . S
C5120 C5121 1.366 . S
C5120 C5122 1.388 . S
C5121 C5120 1.366 . S
C5121 C5125 1.385 . S
C5122 H5103 0.951 . S
C5122 C5120 1.388 . S
C5122 C5123 1.366 . S
C5123 C5122 1.366 . S
C5123 C5124 1.414 . S
C5123 C5126 1.499 . S
C5124 H5104 0.950 . S
C5124 C5123 1.414 . S
C5124 C5125 1.374 . S
C5125 H5105 0.950 . S
C5125 C5121 1.385 . S
C5125 C5124 1.374 . S
C5126 C5123 1.499 . S
C5126 C5127 1.373 . S
C5126 C5128 1.389 . S
C5127 H5106 0.950 . S
C5127 C5126 1.373 . S
C5127 C5143 1.377 . S
C5128 C5126 1.389 . S
C5128 C5129 1.524 . S
C5128 C5142 1.377 . S
C5129 C5128 1.524 . S
C5129 C5130 1.397 . S
C5129 C5134 1.363 . S
C5130 H5107 0.950 . S
C5130 C5129 1.397 . S
C5130 C5131 1.334 . S
C5131 H5108 0.950 . S
C5131 C5130 1.334 . S
C5131 C5132 1.287 . S
C5132 C5131 1.287 . S
C5132 C5133 1.524 . S
C5132 H5151 0.913 . S
C5133 H5109 0.950 . S
C5133 C5132 1.524 . S
C5133 C5134 1.415 . S
C5134 H5110 0.950 . S
C5134 C5129 1.363 . S
C5134 C5133 1.415 . S
C5135 H5111 0.951 . S
C5135 C5136 1.366 . S
C5135 C5137 1.388 . S
C5136 C5135 1.366 . S
C5136 C5140 1.385 . S
C5137 H5112 0.951 . S
C5137 C5135 1.388 . S
C5137 C5138 1.366 . S
C5138 C5137 1.366 . S
C5138 C5139 1.414 . S
C5138 C5141 1.499 . S
C5139 H5113 0.950 . S
C5139 C5138 1.414 . S
C5139 C5140 1.374 . S
C5140 H5114 0.950 . S
C5140 C5136 1.385 . S
C5140 C5139 1.374 . S
C5141 C5138 1.499 . S
C5141 C5142 1.373 . S
C5141 C5143 1.389 . S
C5142 H5115 0.950 . S
C5142 C5128 1.377 . S
C5142 C5141 1.373 . S
C5143 C5127 1.377 . S
C5143 C5141 1.389 . S
C5143 C5144 1.524 . S
C5144 C5143 1.524 . S
C5144 C5145 1.397 . S
C5144 C5149 1.363 . S
C5145 H5116 0.950 . S
C5145 C5144 1.397 . S
C5145 C5146 1.334 . S
C5146 H5117 0.950 . S
C5146 C5145 1.334 . S
C5146 C5147 1.287 . S
C5147 C5146 1.287 . S
C5147 C5148 1.524 . S
C5147 H5150 0.999 . S
C5148 H5118 0.950 . S
C5148 C5147 1.524 . S
C5148 C5149 1.415 . S
C5149 H5119 0.950 . S
C5149 C5144 1.363 . S
C5149 C5148 1.415 . S
H5150 C5147 0.999 . S
H5151 C5132 0.913 . S
H5152 C5170 0.951 . S
H5153 C5172 0.951 . S
H5154 C5174 0.950 . S
H5155 C5175 0.950 . S
H5156 C5177 0.950 . S
H5157 C5180 0.950 . S
H5158 C5181 0.950 . S
H5159 C5183 0.950 . S
H5160 C5184 0.950 . S
H5161 C5185 0.951 . S
H5162 C5187 0.951 . S
H5163 C5189 0.950 . S
H5164 C5190 0.950 . S
H5165 C5192 0.950 . S
H5166 C5195 0.950 . S
H5167 C5196 0.950 . S
H5168 C5198 0.950 . S
H5169 C5199 0.950 . S
C5170 H5152 0.951 . S
C5170 C5171 1.366 . S
C5170 C5172 1.388 . S
C5171 C5170 1.366 . S
C5171 C5175 1.385 . S
C5172 H5153 0.951 . S
C5172 C5170 1.388 . S
C5172 C5173 1.366 . S
C5173 C5172 1.366 . S
C5173 C5174 1.414 . S
C5173 C5176 1.499 . S
C5174 H5154 0.950 . S
C5174 C5173 1.414 . S
C5174 C5175 1.374 . S
C5175 H5155 0.950 . S
C5175 C5171 1.385 . S
C5175 C5174 1.374 . S
C5176 C5173 1.499 . S
C5176 C5177 1.373 . S
C5176 C5178 1.389 . S
C5177 H5156 0.950 . S
C5177 C5176 1.373 . S
C5177 C5193 1.377 . S
C5178 C5176 1.389 . S
C5178 C5179 1.524 . S
C5178 C5192 1.377 . S
C5179 C5178 1.524 . S
C5179 C5180 1.397 . S
C5179 C5184 1.363 . S
C5180 H5157 0.950 . S
C5180 C5179 1.397 . S
C5180 C5181 1.334 . S
C5181 H5158 0.950 . S
C5181 C5180 1.334 . S
C5181 C5182 1.287 . S
C5182 C5181 1.287 . S
C5182 C5183 1.524 . S
C5182 H5201 0.913 . S
C5183 H5159 0.950 . S
C5183 C5182 1.524 . S
C5183 C5184 1.415 . S
C5184 H5160 0.950 . S
C5184 C5179 1.363 . S
C5184 C5183 1.415 . S
C5185 H5161 0.951 . S
C5185 C5186 1.366 . S
C5185 C5187 1.388 . S
C5186 C5185 1.366 . S
C5186 C5190 1.385 . S
C5187 H5162 0.951 . S
C5187 C5185 1.388 . S
C5187 C5188 1.366 . S
C5188 C5187 1.366 . S
C5188 C5189 1.414 . S
C5188 C5191 1.499 . S
C5189 H5163 0.950 . S
C5189 C5188 1.414 . S
C5189 C5190 1.374 . S
C5190 H5164 0.950 . S
C5190 C5186 1.385 . S
C5190 C5189 1.374 . S
C5191 C5188 1.499 . S
C5191 C5192 1.373 . S
C5191 C5193 1.389 . S
C5192 H5165 0.950 . S
C5192 C5178 1.377 . S
C5192 C5191 1.373 . S
C5193 C5177 1.377 . S
C5193 C5191 1.389 . S
C5193 C5194 1.524 . S
C5194 C5193 1.524 . S
C5194 C5195 1.397 . S
C5194 C5199 1.363 . S
C5195 H5166 0.950 . S
C5195 C5194 1.397 . S
C5195 C5196 1.334 . S
C5196 H5167 0.950 . S
C5196 C5195 1.334 . S
C5196 C5197 1.287 . S
C5197 C5196 1.287 . S
C5197 C5198 1.524 . S
C5197 H5200 0.999 . S
C5198 H5168 0.950 . S
C5198 C5197 1.524 . S
C5198 C5199 1.415 . S
C5199 H5169 0.950 . S
C5199 C5194 1.363 . S
C5199 C5198 1.415 . S
H5200 C5197 0.999 . S
H5201 C5182 0.913 . S
H5202 C5220 0.951 . S
H5203 C5222 0.951 . S
H5204 C5224 0.950 . S
H5205 C5225 0.950 . S
H5206 C5227 0.950 . S
H5207 C5230 0.950 . S
H5208 C5231 0.950 . S
H5209 C5233 0.950 . S
H5210 C5234 0.950 . S
H5211 C5235 0.951 . S
H5212 C5237 0.951 . S
H5213 C5239 0.950 . S
H5214 C5240 0.950 . S
H5215 C5242 0.950 . S
H5216 C5245 0.950 . S
H5217 C5246 0.950 . S
H5218 C5248 0.950 . S
H5219 C5249 0.950 . S
C5220 H5202 0.951 . S
C5220 C5221 1.366 . S
C5220 C5222 1.388 . S
C5221 C5220 1.366 . S
C5221 C5225 1.385 . S
C5222 H5203 0.951 . S
C5222 C5220 1.388 . S
C5222 C5223 1.366 . S
C5223 C5222 1.366 . S
C5223 C5224 1.414 . S
C5223 C5226 1.499 . S
C5224 H5204 0.950 . S
C5224 C5223 1.414 . S
C5224 C5225 1.374 . S
C5225 H5205 0.950 . S
C5225 C5221 1.385 . S
C5225 C5224 1.374 . S
C5226 C5223 1.499 . S
C5226 C5227 1.373 . S
C5226 C5228 1.389 . S
C5227 H5206 0.950 . S
C5227 C5226 1.373 . S
C5227 C5243 1.377 . S
C5228 C5226 1.389 . S
C5228 C5229 1.524 . S
C5228 C5242 1.377 . S
C5229 C5228 1.524 . S
C5229 C5230 1.397 . S
C5229 C5234 1.363 . S
C5230 H5207 0.950 . S
C5230 C5229 1.397 . S
C5230 C5231 1.334 . S
C5231 H5208 0.950 . S
C5231 C5230 1.334 . S
C5231 C5232 1.287 . S
C5232 C5231 1.287 . S
C5232 C5233 1.524 . S
C5232 H5251 0.913 . S
C5233 H5209 0.950 . S
C5233 C5232 1.524 . S
C5233 C5234 1.415 . S
C5234 H5210 0.950 . S
C5234 C5229 1.363 . S
C5234 C5233 1.415 . S
C5235 H5211 0.951 . S
C5235 C5236 1.366 . S
C5235 C5237 1.388 . S
C5236 C5235 1.366 . S
C5236 C5240 1.385 . S
C5237 H5212 0.951 . S
C5237 C5235 1.388 . S
C5237 C5238 1.366 . S
C5238 C5237 1.366 . S
C5238 C5239 1.414 . S
C5238 C5241 1.499 . S
C5239 H5213 0.950 . S
C5239 C5238 1.414 . S
C5239 C5240 1.374 . S
C5240 H5214 0.950 . S
C5240 C5236 1.385 . S
C5240 C5239 1.374 . S
C5241 C5238 1.499 . S
C5241 C5242 1.373 . S
C5241 C5243 1.389 . S
C5242 H5215 0.950 . S
C5242 C5228 1.377 . S
C5242 C5241 1.373 . S
C5243 C5227 1.377 . S
C5243 C5241 1.389 . S
C5243 C5244 1.524 . S
C5244 C5243 1.524 . S
C5244 C5245 1.397 . S
C5244 C5249 1.363 . S
C5245 H5216 0.950 . S
C5245 C5244 1.397 . S
C5245 C5246 1.334 . S
C5246 H5217 0.950 . S
C5246 C5245 1.334 . S
C5246 C5247 1.287 . S
C5247 C5246 1.287 . S
C5247 C5248 1.524 . S
C5247 H5250 0.999 . S
C5248 H5218 0.950 . S
C5248 C5247 1.524 . S
C5248 C5249 1.415 . S
C5249 H5219 0.950 . S
C5249 C5244 1.363 . S
C5249 C5248 1.415 . S
H5250 C5247 0.999 . S
H5251 C5232 0.913 . S
H5252 C5270 0.951 . S
H5253 C5272 0.951 . S
H5254 C5274 0.949 . S
H5255 C5275 0.950 . S
H5256 C5277 0.950 . S
H5257 C5280 0.950 . S
H5258 C5281 0.950 . S
H5259 C5283 0.950 . S
H5260 C5284 0.950 . S
H5261 C5285 0.951 . S
H5262 C5287 0.951 . S
H5263 C5289 0.950 . S
H5264 C5290 0.950 . S
H5265 C5292 0.950 . S
H5266 C5295 0.950 . S
H5267 C5296 0.950 . S
H5268 C5298 0.950 . S
H5269 C5299 0.950 . S
C5270 H5252 0.951 . S
C5270 C5271 1.366 . S
C5270 C5272 1.388 . S
C5271 C5270 1.366 . S
C5271 C5275 1.385 . S
C5272 H5253 0.951 . S
C5272 C5270 1.388 . S
C5272 C5273 1.366 . S
C5273 C5272 1.366 . S
C5273 C5274 1.414 . S
C5273 C5276 1.499 . S
C5274 H5254 0.949 . S
C5274 C5273 1.414 . S
C5274 C5275 1.374 . S
C5275 H5255 0.950 . S
C5275 C5271 1.385 . S
C5275 C5274 1.374 . S
C5276 C5273 1.499 . S
C5276 C5277 1.373 . S
C5276 C5278 1.389 . S
C5277 H5256 0.950 . S
C5277 C5276 1.373 . S
C5277 C5293 1.377 . S
C5278 C5276 1.389 . S
C5278 C5279 1.524 . S
C5278 C5292 1.377 . S
C5279 C5278 1.524 . S
C5279 C5280 1.397 . S
C5279 C5284 1.363 . S
C5280 H5257 0.950 . S
C5280 C5279 1.397 . S
C5280 C5281 1.334 . S
C5281 H5258 0.950 . S
C5281 C5280 1.334 . S
C5281 C5282 1.287 . S
C5282 C5281 1.287 . S
C5282 C5283 1.524 . S
C5282 H5301 0.913 . S
C5283 H5259 0.950 . S
C5283 C5282 1.524 . S
C5283 C5284 1.415 . S
C5284 H5260 0.950 . S
C5284 C5279 1.363 . S
C5284 C5283 1.415 . S
C5285 H5261 0.951 . S
C5285 C5286 1.366 . S
C5285 C5287 1.388 . S
C5286 C5285 1.366 . S
C5286 C5290 1.385 1_554 S
C5287 H5262 0.951 . S
C5287 C5285 1.388 . S
C5287 C5288 1.366 1_554 S
C5288 C5287 1.366 1_556 S
C5288 C5289 1.414 . S
C5288 C5291 1.499 . S
C5289 H5263 0.950 . S
C5289 C5288 1.414 . S
C5289 C5290 1.374 . S
C5290 H5264 0.950 . S
C5290 C5286 1.385 1_556 S
C5290 C5289 1.374 . S
C5291 C5288 1.499 . S
C5291 C5292 1.373 . S
C5291 C5293 1.389 . S
C5292 H5265 0.950 . S
C5292 C5278 1.377 . S
C5292 C5291 1.373 . S
C5293 C5277 1.377 . S
C5293 C5291 1.389 . S
C5293 C5294 1.524 1_455 S
C5294 C5293 1.524 1_655 S
C5294 C5295 1.397 . S
C5294 C5299 1.363 1_556 S
C5295 H5266 0.950 . S
C5295 C5294 1.397 . S
C5295 C5296 1.334 . S
C5296 H5267 0.950 . S
C5296 C5295 1.334 . S
C5296 C5297 1.296 . S
C5297 C5296 1.296 . S
C5297 C5298 1.517 1_556 S
C5297 H5300 0.996 1_556 S
C5298 H5268 0.950 . S
C5298 C5297 1.517 1_554 S
C5298 C5299 1.415 . S
C5299 H5269 0.950 . S
C5299 C5294 1.363 1_554 S
C5299 C5298 1.415 . S
H5300 C5297 0.996 1_554 S
H5301 C5282 0.913 . S
H5302 C5320 0.951 . S
H5303 C5322 0.951 . S
H5304 C5324 0.950 . S
H5305 C5325 0.950 . S
H5306 C5327 0.950 . S
H5307 C5330 0.950 . S
H5308 C5331 0.950 . S
H5309 C5333 0.950 . S
H5310 C5334 0.950 . S
H5311 C5335 0.951 . S
H5312 C5337 0.951 . S
H5313 C5339 0.950 . S
H5314 C5340 0.950 . S
H5315 C5342 0.950 . S
H5316 C5345 0.950 . S
H5317 C5346 0.950 . S
H5318 C5348 0.950 . S
H5319 C5349 0.950 . S
C5320 H5302 0.951 . S
C5320 C5321 1.366 . S
C5320 C5322 1.388 . S
C5321 C5320 1.366 . S
C5321 C5325 1.385 . S
C5322 H5303 0.951 . S
C5322 C5320 1.388 . S
C5322 C5323 1.366 . S
C5323 C5322 1.366 . S
C5323 C5324 1.414 . S
C5323 C5326 1.499 . S
C5324 H5304 0.950 . S
C5324 C5323 1.414 . S
C5324 C5325 1.374 . S
C5325 H5305 0.950 . S
C5325 C5321 1.385 . S
C5325 C5324 1.374 . S
C5326 C5323 1.499 . S
C5326 C5327 1.373 . S
C5326 C5328 1.389 . S
C5327 H5306 0.950 . S
C5327 C5326 1.373 . S
C5327 C5343 1.377 . S
C5328 C5326 1.389 . S
C5328 C5329 1.524 . S
C5328 C5342 1.377 . S
C5329 C5328 1.524 . S
C5329 C5330 1.397 . S
C5329 C5334 1.363 . S
C5330 H5307 0.950 . S
C5330 C5329 1.397 . S
C5330 C5331 1.334 . S
C5331 H5308 0.950 . S
C5331 C5330 1.334 . S
C5331 C5332 1.287 . S
C5332 C5331 1.287 . S
C5332 C5333 1.524 . S
C5332 H5351 0.913 . S
C5333 H5309 0.950 . S
C5333 C5332 1.524 . S
C5333 C5334 1.415 . S
C5334 H5310 0.950 . S
C5334 C5329 1.363 . S
C5334 C5333 1.415 . S
C5335 H5311 0.951 . S
C5335 C5336 1.366 . S
C5335 C5337 1.388 . S
C5336 C5335 1.366 . S
C5336 C5340 1.385 . S
C5337 H5312 0.951 . S
C5337 C5335 1.388 . S
C5337 C5338 1.366 . S
C5338 C5337 1.366 . S
C5338 C5339 1.414 . S
C5338 C5341 1.499 . S
C5339 H5313 0.950 . S
C5339 C5338 1.414 . S
C5339 C5340 1.374 . S
C5340 H5314 0.950 . S
C5340 C5336 1.385 . S
C5340 C5339 1.374 . S
C5341 C5338 1.499 . S
C5341 C5342 1.373 . S
C5341 C5343 1.389 . S
C5342 H5315 0.950 . S
C5342 C5328 1.377 . S
C5342 C5341 1.373 . S
C5343 C5327 1.377 . S
C5343 C5341 1.389 . S
C5343 C5344 1.524 . S
C5344 C5343 1.524 . S
C5344 C5345 1.397 . S
C5344 C5349 1.363 . S
C5345 H5316 0.950 . S
C5345 C5344 1.397 . S
C5345 C5346 1.334 . S
C5346 H5317 0.950 . S
C5346 C5345 1.334 . S
C5346 C5347 1.287 . S
C5347 C5346 1.287 . S
C5347 C5348 1.524 . S
C5347 H5350 0.999 . S
C5348 H5318 0.950 . S
C5348 C5347 1.524 . S
C5348 C5349 1.415 . S
C5349 H5319 0.950 . S
C5349 C5344 1.363 . S
C5349 C5348 1.415 . S
H5350 C5347 0.999 . S
H5351 C5332 0.913 . S
H5352 C5370 0.951 . S
H5353 C5372 0.951 . S
H5354 C5374 0.950 . S
H5355 C5375 0.950 . S
H5356 C5377 0.950 . S
H5357 C5380 0.950 . S
H5358 C5381 0.950 . S
H5359 C5383 0.950 . S
H5360 C5384 0.950 . S
H5361 C5385 0.951 . S
H5362 C5387 0.951 . S
H5363 C5389 0.950 . S
H5364 C5390 0.950 . S
H5365 C5392 0.950 . S
H5366 C5395 0.950 . S
H5367 C5396 0.950 . S
H5368 C5398 0.950 . S
H5369 C5399 0.950 . S
C5370 H5352 0.951 . S
C5370 C5371 1.366 . S
C5370 C5372 1.388 . S
C5371 C5370 1.366 . S
C5371 C5375 1.385 . S
C5372 H5353 0.951 . S
C5372 C5370 1.388 . S
C5372 C5373 1.366 . S
C5373 C5372 1.366 . S
C5373 C5374 1.414 . S
C5373 C5376 1.499 . S
C5374 H5354 0.950 . S
C5374 C5373 1.414 . S
C5374 C5375 1.374 . S
C5375 H5355 0.950 . S
C5375 C5371 1.385 . S
C5375 C5374 1.374 . S
C5376 C5373 1.499 . S
C5376 C5377 1.373 . S
C5376 C5378 1.389 . S
C5377 H5356 0.950 . S
C5377 C5376 1.373 . S
C5377 C5393 1.377 . S
C5378 C5376 1.389 . S
C5378 C5379 1.524 . S
C5378 C5392 1.377 . S
C5379 C5378 1.524 . S
C5379 C5380 1.397 . S
C5379 C5384 1.363 . S
C5380 H5357 0.950 . S
C5380 C5379 1.397 . S
C5380 C5381 1.334 . S
C5381 H5358 0.950 . S
C5381 C5380 1.334 . S
C5381 C5382 1.287 . S
C5382 C5381 1.287 . S
C5382 C5383 1.524 . S
C5382 H5401 0.913 . S
C5383 H5359 0.950 . S
C5383 C5382 1.524 . S
C5383 C5384 1.415 . S
C5384 H5360 0.950 . S
C5384 C5379 1.363 . S
C5384 C5383 1.415 . S
C5385 H5361 0.951 . S
C5385 C5386 1.366 . S
C5385 C5387 1.388 . S
C5386 C5385 1.366 . S
C5386 C5390 1.385 . S
C5387 H5362 0.951 . S
C5387 C5385 1.388 . S
C5387 C5388 1.366 . S
C5388 C5387 1.366 . S
C5388 C5389 1.414 . S
C5388 C5391 1.499 . S
C5389 H5363 0.950 . S
C5389 C5388 1.414 . S
C5389 C5390 1.374 . S
C5390 H5364 0.950 . S
C5390 C5386 1.385 . S
C5390 C5389 1.374 . S
C5391 C5388 1.499 . S
C5391 C5392 1.373 . S
C5391 C5393 1.389 . S
C5392 H5365 0.950 . S
C5392 C5378 1.377 . S
C5392 C5391 1.373 . S
C5393 C5377 1.377 . S
C5393 C5391 1.389 . S
C5393 C5394 1.524 . S
C5394 C5393 1.524 . S
C5394 C5395 1.397 . S
C5394 C5399 1.363 . S
C5395 H5366 0.950 . S
C5395 C5394 1.397 . S
C5395 C5396 1.334 . S
C5396 H5367 0.950 . S
C5396 C5395 1.334 . S
C5396 C5397 1.287 . S
C5397 C5396 1.287 . S
C5397 C5398 1.524 . S
C5397 H5400 0.999 . S
C5398 H5368 0.950 . S
C5398 C5397 1.524 . S
C5398 C5399 1.415 . S
C5399 H5369 0.950 . S
C5399 C5394 1.363 . S
C5399 C5398 1.415 . S
H5400 C5397 0.999 . S
H5401 C5382 0.913 . S
H5402 C5420 0.951 . S
H5403 C5422 0.951 . S
H5404 C5424 0.950 . S
H5405 C5425 0.950 . S
H5406 C5427 0.950 . S
H5407 C5430 0.950 . S
H5408 C5431 0.950 . S
H5409 C5433 0.950 . S
H5410 C5434 0.950 . S
H5411 C5435 0.951 . S
H5412 C5437 0.951 . S
H5413 C5439 0.950 . S
H5414 C5440 0.950 . S
H5415 C5442 0.950 . S
H5416 C5445 0.950 . S
H5417 C5446 0.950 . S
H5418 C5448 0.950 . S
H5419 C5449 0.950 . S
C5420 H5402 0.951 . S
C5420 C5421 1.366 . S
C5420 C5422 1.388 . S
C5421 C5420 1.366 . S
C5421 C5425 1.385 . S
C5422 H5403 0.951 . S
C5422 C5420 1.388 . S
C5422 C5423 1.366 . S
C5423 C5422 1.366 . S
C5423 C5424 1.414 . S
C5423 C5426 1.499 . S
C5424 H5404 0.950 . S
C5424 C5423 1.414 . S
C5424 C5425 1.374 . S
C5425 H5405 0.950 . S
C5425 C5421 1.385 . S
C5425 C5424 1.374 . S
C5426 C5423 1.499 . S
C5426 C5427 1.373 . S
C5426 C5428 1.389 . S
C5427 H5406 0.950 . S
C5427 C5426 1.373 . S
C5427 C5443 1.377 . S
C5428 C5426 1.389 . S
C5428 C5429 1.524 . S
C5428 C5442 1.377 . S
C5429 C5428 1.524 . S
C5429 C5430 1.397 . S
C5429 C5434 1.363 . S
C5430 H5407 0.950 . S
C5430 C5429 1.397 . S
C5430 C5431 1.334 . S
C5431 H5408 0.950 . S
C5431 C5430 1.334 . S
C5431 C5432 1.287 . S
C5432 C5431 1.287 . S
C5432 C5433 1.524 . S
C5432 H5451 0.913 . S
C5433 H5409 0.950 . S
C5433 C5432 1.524 . S
C5433 C5434 1.415 . S
C5434 H5410 0.950 . S
C5434 C5429 1.363 . S
C5434 C5433 1.415 . S
C5435 H5411 0.951 . S
C5435 C5436 1.366 . S
C5435 C5437 1.388 . S
C5436 C5435 1.366 . S
C5436 C5440 1.385 . S
C5437 H5412 0.951 . S
C5437 C5435 1.388 . S
C5437 C5438 1.366 . S
C5438 C5437 1.366 . S
C5438 C5439 1.414 . S
C5438 C5441 1.499 . S
C5439 H5413 0.950 . S
C5439 C5438 1.414 . S
C5439 C5440 1.374 . S
C5440 H5414 0.950 . S
C5440 C5436 1.385 . S
C5440 C5439 1.374 . S
C5441 C5438 1.499 . S
C5441 C5442 1.373 . S
C5441 C5443 1.389 . S
C5442 H5415 0.950 . S
C5442 C5428 1.377 . S
C5442 C5441 1.373 . S
C5443 C5427 1.377 . S
C5443 C5441 1.389 . S
C5443 C5444 1.524 . S
C5444 C5443 1.524 . S
C5444 C5445 1.397 . S
C5444 C5449 1.363 . S
C5445 H5416 0.950 . S
C5445 C5444 1.397 . S
C5445 C5446 1.334 . S
C5446 H5417 0.950 . S
C5446 C5445 1.334 . S
C5446 C5447 1.287 . S
C5447 C5446 1.287 . S
C5447 C5448 1.524 . S
C5447 H5450 0.999 . S
C5448 H5418 0.950 . S
C5448 C5447 1.524 . S
C5448 C5449 1.415 . S
C5449 H5419 0.950 . S
C5449 C5444 1.363 . S
C5449 C5448 1.415 . S
H5450 C5447 0.999 . S
H5451 C5432 0.913 . S
H5452 C5470 0.951 . S
H5453 C5472 0.951 . S
H5454 C5474 0.950 . S
H5455 C5475 0.950 . S
H5456 C5477 0.950 . S
H5457 C5480 0.950 . S
H5458 C5481 0.950 . S
H5459 C5483 0.950 1_655 S
H5460 C5484 0.950 . S
H5461 C5485 0.951 . S
H5462 C5487 0.951 . S
H5463 C5489 0.950 . S
H5464 C5490 0.950 . S
H5465 C5492 0.950 . S
H5466 C5495 0.950 . S
H5467 C5496 0.950 . S
H5468 C5498 0.950 . S
H5469 C5499 0.950 . S
C5470 H5452 0.951 . S
C5470 C5471 1.366 . S
C5470 C5472 1.388 . S
C5471 C5470 1.366 . S
C5471 C5475 1.385 . S
C5472 H5453 0.951 . S
C5472 C5470 1.388 . S
C5472 C5473 1.366 . S
C5473 C5472 1.366 . S
C5473 C5474 1.414 . S
C5473 C5476 1.499 . S
C5474 H5454 0.950 . S
C5474 C5473 1.414 . S
C5474 C5475 1.374 . S
C5475 H5455 0.950 . S
C5475 C5471 1.385 . S
C5475 C5474 1.374 . S
C5476 C5473 1.499 . S
C5476 C5477 1.373 . S
C5476 C5478 1.389 . S
C5477 H5456 0.950 . S
C5477 C5476 1.373 . S
C5477 C5493 1.377 . S
C5478 C5476 1.389 . S
C5478 C5479 1.524 . S
C5478 C5492 1.377 . S
C5479 C5478 1.524 . S
C5479 C5480 1.397 . S
C5479 C5484 1.363 . S
C5480 H5457 0.950 . S
C5480 C5479 1.397 . S
C5480 C5481 1.334 . S
C5481 H5458 0.950 . S
C5481 C5480 1.334 . S
C5481 C5482 1.287 . S
C5482 C5481 1.287 . S
C5482 C5483 1.524 . S
C5482 H5501 0.913 . S
C5483 H5459 0.950 1_455 S
C5483 C5482 1.524 . S
C5483 C5484 1.415 . S
C5484 H5460 0.950 . S
C5484 C5479 1.363 . S
C5484 C5483 1.415 . S
C5485 H5461 0.951 . S
C5485 C5486 1.366 . S
C5485 C5487 1.388 . S
C5486 C5485 1.366 . S
C5486 C5490 1.385 . S
C5487 H5462 0.951 . S
C5487 C5485 1.388 . S
C5487 C5488 1.366 . S
C5488 C5487 1.366 . S
C5488 C5489 1.414 . S
C5488 C5491 1.499 . S
C5489 H5463 0.950 . S
C5489 C5488 1.414 . S
C5489 C5490 1.374 . S
C5490 H5464 0.950 . S
C5490 C5486 1.385 . S
C5490 C5489 1.374 . S
C5491 C5488 1.499 . S
C5491 C5492 1.373 . S
C5491 C5493 1.389 . S
C5492 H5465 0.950 . S
C5492 C5478 1.377 . S
C5492 C5491 1.373 . S
C5493 C5477 1.377 . S
C5493 C5491 1.389 . S
C5493 C5494 1.524 . S
C5494 C5493 1.524 . S
C5494 C5495 1.397 . S
C5494 C5499 1.363 . S
C5495 H5466 0.950 . S
C5495 C5494 1.397 . S
C5495 C5496 1.334 . S
C5496 H5467 0.950 . S
C5496 C5495 1.334 . S
C5496 C5497 1.287 . S
C5497 C5496 1.287 . S
C5497 C5498 1.524 . S
C5497 H5500 0.999 . S
C5498 H5468 0.950 . S
C5498 C5497 1.524 . S
C5498 C5499 1.415 . S
C5499 H5469 0.950 . S
C5499 C5494 1.363 . S
C5499 C5498 1.415 . S
H5500 C5497 0.999 . S
H5501 C5482 0.913 . S
H5502 C5520 0.951 . S
H5503 C5522 0.951 . S
H5504 C5524 0.950 . S
H5505 C5525 0.950 . S
H5506 C5527 0.950 . S
H5507 C5530 0.950 . S
H5508 C5531 0.950 . S
H5509 C5533 0.950 . S
H5510 C5534 0.950 . S
H5511 C5535 0.951 . S
H5512 C5537 0.951 . S
H5513 C5539 0.950 . S
H5514 C5540 0.950 . S
H5515 C5542 0.950 . S
H5516 C5545 0.950 . S
H5517 C5546 0.950 . S
H5518 C5548 0.950 . S
H5519 C5549 0.950 . S
C5520 H5502 0.951 . S
C5520 C5521 1.366 . S
C5520 C5522 1.388 . S
C5521 C5520 1.366 . S
C5521 C5525 1.385 . S
C5522 H5503 0.951 . S
C5522 C5520 1.388 . S
C5522 C5523 1.366 . S
C5523 C5522 1.366 . S
C5523 C5524 1.414 . S
C5523 C5526 1.499 . S
C5524 H5504 0.950 . S
C5524 C5523 1.414 . S
C5524 C5525 1.374 . S
C5525 H5505 0.950 . S
C5525 C5521 1.385 . S
C5525 C5524 1.374 . S
C5526 C5523 1.499 . S
C5526 C5527 1.373 . S
C5526 C5528 1.389 . S
C5527 H5506 0.950 . S
C5527 C5526 1.373 . S
C5527 C5543 1.377 . S
C5528 C5526 1.389 . S
C5528 C5529 1.524 . S
C5528 C5542 1.377 . S
C5529 C5528 1.524 . S
C5529 C5530 1.397 . S
C5529 C5534 1.363 . S
C5530 H5507 0.950 . S
C5530 C5529 1.397 . S
C5530 C5531 1.334 . S
C5531 H5508 0.950 . S
C5531 C5530 1.334 . S
C5531 C5532 1.287 . S
C5532 C5531 1.287 . S
C5532 C5533 1.524 . S
C5532 H5551 0.913 . S
C5533 H5509 0.950 . S
C5533 C5532 1.524 . S
C5533 C5534 1.415 . S
C5534 H5510 0.950 . S
C5534 C5529 1.363 . S
C5534 C5533 1.415 . S
C5535 H5511 0.951 . S
C5535 C5536 1.366 . S
C5535 C5537 1.388 . S
C5536 C5535 1.366 . S
C5536 C5540 1.385 . S
C5537 H5512 0.951 . S
C5537 C5535 1.388 . S
C5537 C5538 1.366 . S
C5538 C5537 1.366 . S
C5538 C5539 1.414 . S
C5538 C5541 1.499 . S
C5539 H5513 0.950 . S
C5539 C5538 1.414 . S
C5539 C5540 1.374 . S
C5540 H5514 0.950 . S
C5540 C5536 1.385 . S
C5540 C5539 1.374 . S
C5541 C5538 1.499 . S
C5541 C5542 1.373 . S
C5541 C5543 1.389 . S
C5542 H5515 0.950 . S
C5542 C5528 1.377 . S
C5542 C5541 1.373 . S
C5543 C5527 1.377 . S
C5543 C5541 1.389 . S
C5543 C5544 1.524 . S
C5544 C5543 1.524 . S
C5544 C5545 1.397 . S
C5544 C5549 1.363 . S
C5545 H5516 0.950 . S
C5545 C5544 1.397 . S
C5545 C5546 1.334 . S
C5546 H5517 0.950 . S
C5546 C5545 1.334 . S
C5546 C5547 1.287 . S
C5547 C5546 1.287 . S
C5547 C5548 1.524 . S
C5547 H5550 0.999 . S
C5548 H5518 0.950 . S
C5548 C5547 1.524 . S
C5548 C5549 1.415 . S
C5549 H5519 0.950 . S
C5549 C5544 1.363 . S
C5549 C5548 1.415 . S
H5550 C5547 0.999 . S
H5551 C5532 0.913 . S
H5552 C5570 0.951 . S
H5553 C5572 0.951 . S
H5554 C5574 0.950 . S
H5555 C5575 0.950 . S
H5556 C5577 0.950 . S
H5557 C5580 0.950 . S
H5558 C5581 0.950 . S
H5559 C5583 0.950 . S
H5560 C5584 0.950 . S
H5561 C5585 0.951 . S
H5562 C5587 0.951 . S
H5563 C5589 0.950 . S
H5564 C5590 0.950 . S
H5565 C5592 0.950 . S
H5566 C5595 0.950 . S
H5567 C5596 0.950 . S
H5568 C5598 0.950 . S
H5569 C5599 0.950 . S
C5570 H5552 0.951 . S
C5570 C5571 1.366 . S
C5570 C5572 1.388 . S
C5571 C5570 1.366 . S
C5571 C5575 1.385 . S
C5572 H5553 0.951 . S
C5572 C5570 1.388 . S
C5572 C5573 1.366 . S
C5573 C5572 1.366 . S
C5573 C5574 1.414 . S
C5573 C5576 1.499 . S
C5574 H5554 0.950 . S
C5574 C5573 1.414 . S
C5574 C5575 1.374 . S
C5575 H5555 0.950 . S
C5575 C5571 1.385 . S
C5575 C5574 1.374 . S
C5576 C5573 1.499 . S
C5576 C5577 1.373 . S
C5576 C5578 1.389 . S
C5577 H5556 0.950 . S
C5577 C5576 1.373 . S
C5577 C5593 1.377 . S
C5578 C5576 1.389 . S
C5578 C5579 1.524 . S
C5578 C5592 1.377 . S
C5579 C5578 1.524 . S
C5579 C5580 1.397 . S
C5579 C5584 1.363 . S
C5580 H5557 0.950 . S
C5580 C5579 1.397 . S
C5580 C5581 1.334 . S
C5581 H5558 0.950 . S
C5581 C5580 1.334 . S
C5581 C5582 1.287 . S
C5582 C5581 1.287 . S
C5582 C5583 1.524 . S
C5582 H5601 0.913 . S
C5583 H5559 0.950 . S
C5583 C5582 1.524 . S
C5583 C5584 1.415 . S
C5584 H5560 0.950 . S
C5584 C5579 1.363 . S
C5584 C5583 1.415 . S
C5585 H5561 0.951 . S
C5585 C5586 1.366 . S
C5585 C5587 1.388 . S
C5586 C5585 1.366 . S
C5586 C5590 1.385 . S
C5587 H5562 0.951 . S
C5587 C5585 1.388 . S
C5587 C5588 1.366 . S
C5588 C5587 1.366 . S
C5588 C5589 1.414 . S
C5588 C5591 1.499 . S
C5589 H5563 0.950 . S
C5589 C5588 1.414 . S
C5589 C5590 1.374 . S
C5590 H5564 0.950 . S
C5590 C5586 1.385 . S
C5590 C5589 1.374 . S
C5591 C5588 1.499 . S
C5591 C5592 1.373 . S
C5591 C5593 1.389 . S
C5592 H5565 0.950 . S
C5592 C5578 1.377 . S
C5592 C5591 1.373 . S
C5593 C5577 1.377 . S
C5593 C5591 1.389 . S
C5593 C5594 1.524 . S
C5594 C5593 1.524 . S
C5594 C5595 1.397 . S
C5594 C5599 1.363 . S
C5595 H5566 0.950 . S
C5595 C5594 1.397 . S
C5595 C5596 1.334 . S
C5596 H5567 0.950 . S
C5596 C5595 1.334 . S
C5596 C5597 1.287 . S
C5597 C5596 1.287 . S
C5597 C5598 1.524 . S
C5597 H5600 0.999 . S
C5598 H5568 0.950 . S
C5598 C5597 1.524 . S
C5598 C5599 1.415 . S
C5599 H5569 0.950 . S
C5599 C5594 1.363 . S
C5599 C5598 1.415 . S
H5600 C5597 0.999 . S
H5601 C5582 0.913 . S
H5602 C5620 0.951 . S
H5603 C5622 0.951 . S
H5604 C5624 0.950 . S
H5605 C5625 0.950 . S
H5606 C5627 0.950 . S
H5607 C5630 0.950 . S
H5608 C5631 0.950 . S
H5609 C5633 0.950 . S
H5610 C5634 0.950 . S
H5611 C5635 0.951 . S
H5612 C5637 0.951 . S
H5613 C5639 0.950 . S
H5614 C5640 0.950 . S
H5615 C5642 0.950 . S
H5616 C5645 0.950 . S
H5617 C5646 0.950 . S
H5618 C5648 0.950 . S
H5619 C5649 0.950 . S
C5620 H5602 0.951 . S
C5620 C5621 1.366 . S
C5620 C5622 1.388 . S
C5621 C5620 1.366 . S
C5621 C5625 1.385 . S
C5622 H5603 0.951 . S
C5622 C5620 1.388 . S
C5622 C5623 1.366 . S
C5623 C5622 1.366 . S
C5623 C5624 1.414 . S
C5623 C5626 1.499 . S
C5624 H5604 0.950 . S
C5624 C5623 1.414 . S
C5624 C5625 1.374 . S
C5625 H5605 0.950 . S
C5625 C5621 1.385 . S
C5625 C5624 1.374 . S
C5626 C5623 1.499 . S
C5626 C5627 1.373 . S
C5626 C5628 1.389 . S
C5627 H5606 0.950 . S
C5627 C5626 1.373 . S
C5627 C5643 1.377 . S
C5628 C5626 1.389 . S
C5628 C5629 1.524 . S
C5628 C5642 1.377 . S
C5629 C5628 1.524 . S
C5629 C5630 1.397 . S
C5629 C5634 1.363 . S
C5630 H5607 0.950 . S
C5630 C5629 1.397 . S
C5630 C5631 1.334 . S
C5631 H5608 0.950 . S
C5631 C5630 1.334 . S
C5631 C5632 1.287 . S
C5632 C5631 1.287 . S
C5632 C5633 1.524 . S
C5632 H5651 0.913 . S
C5633 H5609 0.950 . S
C5633 C5632 1.524 . S
C5633 C5634 1.415 . S
C5634 H5610 0.950 . S
C5634 C5629 1.363 . S
C5634 C5633 1.415 . S
C5635 H5611 0.951 . S
C5635 C5636 1.366 . S
C5635 C5637 1.388 . S
C5636 C5635 1.366 . S
C5636 C5640 1.385 . S
C5637 H5612 0.951 . S
C5637 C5635 1.388 . S
C5637 C5638 1.366 . S
C5638 C5637 1.366 . S
C5638 C5639 1.414 . S
C5638 C5641 1.499 . S
C5639 H5613 0.950 . S
C5639 C5638 1.414 . S
C5639 C5640 1.374 . S
C5640 H5614 0.950 . S
C5640 C5636 1.385 . S
C5640 C5639 1.374 . S
C5641 C5638 1.499 . S
C5641 C5642 1.373 . S
C5641 C5643 1.389 . S
C5642 H5615 0.950 . S
C5642 C5628 1.377 . S
C5642 C5641 1.373 . S
C5643 C5627 1.377 . S
C5643 C5641 1.389 . S
C5643 C5644 1.524 . S
C5644 C5643 1.524 . S
C5644 C5645 1.397 . S
C5644 C5649 1.363 . S
C5645 H5616 0.950 . S
C5645 C5644 1.397 . S
C5645 C5646 1.334 . S
C5646 H5617 0.950 . S
C5646 C5645 1.334 . S
C5646 C5647 1.287 . S
C5647 C5646 1.287 . S
C5647 C5648 1.524 . S
C5647 H5650 0.999 . S
C5648 H5618 0.950 . S
C5648 C5647 1.524 . S
C5648 C5649 1.415 . S
C5649 H5619 0.950 . S
C5649 C5644 1.363 . S
C5649 C5648 1.415 . S
H5650 C5647 0.999 . S
H5651 C5632 0.913 . S
H5652 C5670 0.951 . S
H5653 C5672 0.951 . S
H5654 C5674 0.950 . S
H5655 C5675 0.950 . S
H5656 C5677 0.950 . S
H5657 C5680 0.950 . S
H5658 C5681 0.950 . S
H5659 C5683 0.950 . S
H5660 C5684 0.950 . S
H5661 C5685 0.951 . S
H5662 C5687 0.951 . S
H5663 C5689 0.950 . S
H5664 C5690 0.950 . S
H5665 C5692 0.950 . S
H5666 C5695 0.950 . S
H5667 C5696 0.950 . S
H5668 C5698 0.950 . S
H5669 C5699 0.950 . S
C5670 H5652 0.951 . S
C5670 C5671 1.366 . S
C5670 C5672 1.388 . S
C5671 C5670 1.366 . S
C5671 C5675 1.385 . S
C5672 H5653 0.951 . S
C5672 C5670 1.388 . S
C5672 C5673 1.366 . S
C5673 C5672 1.366 . S
C5673 C5674 1.414 . S
C5673 C5676 1.499 . S
C5674 H5654 0.950 . S
C5674 C5673 1.414 . S
C5674 C5675 1.374 . S
C5675 H5655 0.950 . S
C5675 C5671 1.385 . S
C5675 C5674 1.374 . S
C5676 C5673 1.499 . S
C5676 C5677 1.373 . S
C5676 C5678 1.389 . S
C5677 H5656 0.950 . S
C5677 C5676 1.373 . S
C5677 C5693 1.377 . S
C5678 C5676 1.389 . S
C5678 C5679 1.524 . S
C5678 C5692 1.377 . S
C5679 C5678 1.524 . S
C5679 C5680 1.397 . S
C5679 C5684 1.363 . S
C5680 H5657 0.950 . S
C5680 C5679 1.397 . S
C5680 C5681 1.334 . S
C5681 H5658 0.950 . S
C5681 C5680 1.334 . S
C5681 C5682 1.287 . S
C5682 C5681 1.287 . S
C5682 C5683 1.524 . S
C5682 H5701 0.913 . S
C5683 H5659 0.950 . S
C5683 C5682 1.524 . S
C5683 C5684 1.415 . S
C5684 H5660 0.950 . S
C5684 C5679 1.363 . S
C5684 C5683 1.415 . S
C5685 H5661 0.951 . S
C5685 C5686 1.366 . S
C5685 C5687 1.388 . S
C5686 C5685 1.366 . S
C5686 C5690 1.385 . S
C5687 H5662 0.951 . S
C5687 C5685 1.388 . S
C5687 C5688 1.366 . S
C5688 C5687 1.366 . S
C5688 C5689 1.414 . S
C5688 C5691 1.499 . S
C5689 H5663 0.950 . S
C5689 C5688 1.414 . S
C5689 C5690 1.374 . S
C5690 H5664 0.950 . S
C5690 C5686 1.385 . S
C5690 C5689 1.374 . S
C5691 C5688 1.499 . S
C5691 C5692 1.373 . S
C5691 C5693 1.389 . S
C5692 H5665 0.950 . S
C5692 C5678 1.377 . S
C5692 C5691 1.373 . S
C5693 C5677 1.377 . S
C5693 C5691 1.389 . S
C5693 C5694 1.524 . S
C5694 C5693 1.524 . S
C5694 C5695 1.397 . S
C5694 C5699 1.363 . S
C5695 H5666 0.950 . S
C5695 C5694 1.397 . S
C5695 C5696 1.334 . S
C5696 H5667 0.950 . S
C5696 C5695 1.334 . S
C5696 C5697 1.287 . S
C5697 C5696 1.287 . S
C5697 C5698 1.524 . S
C5697 H5700 0.999 . S
C5698 H5668 0.950 . S
C5698 C5697 1.524 . S
C5698 C5699 1.415 . S
C5699 H5669 0.950 . S
C5699 C5694 1.363 . S
C5699 C5698 1.415 . S
H5700 C5697 0.999 . S
H5701 C5682 0.913 . S
H5702 C5720 0.951 . S
H5703 C5722 0.951 . S
H5704 C5724 0.950 . S
H5705 C5725 0.950 . S
H5706 C5727 0.950 . S
H5707 C5730 0.950 . S
H5708 C5731 0.950 . S
H5709 C5733 0.950 . S
H5710 C5734 0.950 . S
H5711 C5735 0.951 . S
H5712 C5737 0.951 . S
H5713 C5739 0.950 . S
H5714 C5740 0.950 . S
H5715 C5742 0.950 . S
H5716 C5745 0.950 . S
H5717 C5746 0.950 . S
H5718 C5748 0.950 . S
H5719 C5749 0.950 . S
C5720 H5702 0.951 . S
C5720 C5721 1.366 . S
C5720 C5722 1.388 . S
C5721 C5720 1.366 . S
C5721 C5725 1.385 . S
C5722 H5703 0.951 . S
C5722 C5720 1.388 . S
C5722 C5723 1.366 . S
C5723 C5722 1.366 . S
C5723 C5724 1.414 . S
C5723 C5726 1.499 . S
C5724 H5704 0.950 . S
C5724 C5723 1.414 . S
C5724 C5725 1.374 . S
C5725 H5705 0.950 . S
C5725 C5721 1.385 . S
C5725 C5724 1.374 . S
C5726 C5723 1.499 . S
C5726 C5727 1.373 . S
C5726 C5728 1.389 . S
C5727 H5706 0.950 . S
C5727 C5726 1.373 . S
C5727 C5743 1.377 . S
C5728 C5726 1.389 . S
C5728 C5729 1.524 . S
C5728 C5742 1.377 . S
C5729 C5728 1.524 . S
C5729 C5730 1.397 . S
C5729 C5734 1.363 . S
C5730 H5707 0.950 . S
C5730 C5729 1.397 . S
C5730 C5731 1.334 . S
C5731 H5708 0.950 . S
C5731 C5730 1.334 . S
C5731 C5732 1.287 . S
C5732 C5731 1.287 . S
C5732 C5733 1.524 . S
C5732 H5751 0.913 . S
C5733 H5709 0.950 . S
C5733 C5732 1.524 . S
C5733 C5734 1.415 . S
C5734 H5710 0.950 . S
C5734 C5729 1.363 . S
C5734 C5733 1.415 . S
C5735 H5711 0.951 . S
C5735 C5736 1.366 . S
C5735 C5737 1.388 . S
C5736 C5735 1.366 . S
C5736 C5740 1.385 . S
C5737 H5712 0.951 . S
C5737 C5735 1.388 . S
C5737 C5738 1.366 . S
C5738 C5737 1.366 . S
C5738 C5739 1.414 . S
C5738 C5741 1.499 . S
C5739 H5713 0.950 . S
C5739 C5738 1.414 . S
C5739 C5740 1.374 . S
C5740 H5714 0.950 . S
C5740 C5736 1.385 . S
C5740 C5739 1.374 . S
C5741 C5738 1.499 . S
C5741 C5742 1.373 . S
C5741 C5743 1.389 . S
C5742 H5715 0.950 . S
C5742 C5728 1.377 . S
C5742 C5741 1.373 . S
C5743 C5727 1.377 . S
C5743 C5741 1.389 . S
C5743 C5744 1.524 . S
C5744 C5743 1.524 . S
C5744 C5745 1.397 . S
C5744 C5749 1.363 . S
C5745 H5716 0.950 . S
C5745 C5744 1.397 . S
C5745 C5746 1.334 . S
C5746 H5717 0.950 . S
C5746 C5745 1.334 . S
C5746 C5747 1.287 . S
C5747 C5746 1.287 . S
C5747 C5748 1.524 . S
C5747 H5750 0.999 . S
C5748 H5718 0.950 . S
C5748 C5747 1.524 . S
C5748 C5749 1.415 . S
C5749 H5719 0.950 . S
C5749 C5744 1.363 . S
C5749 C5748 1.415 . S
H5750 C5747 0.999 . S
H5751 C5732 0.913 . S
H5752 C5770 0.951 . S
H5753 C5772 0.951 . S
H5754 C5774 0.950 . S
H5755 C5775 0.950 . S
H5756 C5777 0.950 . S
H5757 C5780 0.950 . S
H5758 C5781 0.950 . S
H5759 C5783 0.950 . S
H5760 C5784 0.950 . S
H5761 C5785 0.951 . S
H5762 C5787 0.951 . S
H5763 C5789 0.950 . S
H5764 C5790 0.950 . S
H5765 C5792 0.950 . S
H5766 C5795 0.950 . S
H5767 C5796 0.950 . S
H5768 C5798 0.950 . S
H5769 C5799 0.950 . S
C5770 H5752 0.951 . S
C5770 C5771 1.366 . S
C5770 C5772 1.388 . S
C5771 C5770 1.366 . S
C5771 C5775 1.385 . S
C5772 H5753 0.951 . S
C5772 C5770 1.388 . S
C5772 C5773 1.366 . S
C5773 C5772 1.366 . S
C5773 C5774 1.414 . S
C5773 C5776 1.499 . S
C5774 H5754 0.950 . S
C5774 C5773 1.414 . S
C5774 C5775 1.374 . S
C5775 H5755 0.950 . S
C5775 C5771 1.385 . S
C5775 C5774 1.374 . S
C5776 C5773 1.499 . S
C5776 C5777 1.373 . S
C5776 C5778 1.389 . S
C5777 H5756 0.950 . S
C5777 C5776 1.373 . S
C5777 C5793 1.377 . S
C5778 C5776 1.389 . S
C5778 C5779 1.524 . S
C5778 C5792 1.377 . S
C5779 C5778 1.524 . S
C5779 C5780 1.397 . S
C5779 C5784 1.363 . S
C5780 H5757 0.950 . S
C5780 C5779 1.397 . S
C5780 C5781 1.334 . S
C5781 H5758 0.950 . S
C5781 C5780 1.334 . S
C5781 C5782 1.287 . S
C5782 C5781 1.287 . S
C5782 C5783 1.524 . S
C5782 H5801 0.913 . S
C5783 H5759 0.950 . S
C5783 C5782 1.524 . S
C5783 C5784 1.415 . S
C5784 H5760 0.950 . S
C5784 C5779 1.363 . S
C5784 C5783 1.415 . S
C5785 H5761 0.951 . S
C5785 C5786 1.366 . S
C5785 C5787 1.388 . S
C5786 C5785 1.366 . S
C5786 C5790 1.385 . S
C5787 H5762 0.951 . S
C5787 C5785 1.388 . S
C5787 C5788 1.366 . S
C5788 C5787 1.366 . S
C5788 C5789 1.414 . S
C5788 C5791 1.499 . S
C5789 H5763 0.950 . S
C5789 C5788 1.414 . S
C5789 C5790 1.374 . S
C5790 H5764 0.950 . S
C5790 C5786 1.385 . S
C5790 C5789 1.374 . S
C5791 C5788 1.499 . S
C5791 C5792 1.373 . S
C5791 C5793 1.389 . S
C5792 H5765 0.950 . S
C5792 C5778 1.377 . S
C5792 C5791 1.373 . S
C5793 C5777 1.377 . S
C5793 C5791 1.389 . S
C5793 C5794 1.524 . S
C5794 C5793 1.524 . S
C5794 C5795 1.397 . S
C5794 C5799 1.363 . S
C5795 H5766 0.950 . S
C5795 C5794 1.397 . S
C5795 C5796 1.334 . S
C5796 H5767 0.950 . S
C5796 C5795 1.334 . S
C5796 C5797 1.287 . S
C5797 C5796 1.287 . S
C5797 C5798 1.524 . S
C5797 H5800 0.999 . S
C5798 H5768 0.950 . S
C5798 C5797 1.524 . S
C5798 C5799 1.415 . S
C5799 H5769 0.950 . S
C5799 C5794 1.363 . S
C5799 C5798 1.415 . S
H5800 C5797 0.999 . S
H5801 C5782 0.913 . S
H5802 C5820 0.951 . S
H5803 C5822 0.951 . S
H5804 C5824 0.950 . S
H5805 C5825 0.950 . S
H5806 C5827 0.950 . S
H5807 C5830 0.950 . S
H5808 C5831 0.950 . S
H5809 C5833 0.950 . S
H5810 C5834 0.950 . S
H5811 C5835 0.951 . S
H5812 C5837 0.951 . S
H5813 C5839 0.950 . S
H5814 C5840 0.950 . S
H5815 C5842 0.950 . S
H5816 C5845 0.950 . S
H5817 C5846 0.950 . S
H5818 C5848 0.950 . S
H5819 C5849 0.950 . S
C5820 H5802 0.951 . S
C5820 C5821 1.366 . S
C5820 C5822 1.388 . S
C5821 C5820 1.366 . S
C5821 C5825 1.385 . S
C5822 H5803 0.951 . S
C5822 C5820 1.388 . S
C5822 C5823 1.366 . S
C5823 C5822 1.366 . S
C5823 C5824 1.414 . S
C5823 C5826 1.499 . S
C5824 H5804 0.950 . S
C5824 C5823 1.414 . S
C5824 C5825 1.374 . S
C5825 H5805 0.950 . S
C5825 C5821 1.385 . S
C5825 C5824 1.374 . S
C5826 C5823 1.499 . S
C5826 C5827 1.373 . S
C5826 C5828 1.389 . S
C5827 H5806 0.950 . S
C5827 C5826 1.373 . S
C5827 C5843 1.377 . S
C5828 C5826 1.389 . S
C5828 C5829 1.524 . S
C5828 C5842 1.377 . S
C5829 C5828 1.524 . S
C5829 C5830 1.397 . S
C5829 C5834 1.363 . S
C5830 H5807 0.950 . S
C5830 C5829 1.397 . S
C5830 C5831 1.334 . S
C5831 H5808 0.950 . S
C5831 C5830 1.334 . S
C5831 C5832 1.287 . S
C5832 C5831 1.287 . S
C5832 C5833 1.524 . S
C5832 H5851 0.913 . S
C5833 H5809 0.950 . S
C5833 C5832 1.524 . S
C5833 C5834 1.415 . S
C5834 H5810 0.950 . S
C5834 C5829 1.363 . S
C5834 C5833 1.415 . S
C5835 H5811 0.951 . S
C5835 C5836 1.366 . S
C5835 C5837 1.388 . S
C5836 C5835 1.366 . S
C5836 C5840 1.385 . S
C5837 H5812 0.951 . S
C5837 C5835 1.388 . S
C5837 C5838 1.366 . S
C5838 C5837 1.366 . S
C5838 C5839 1.414 . S
C5838 C5841 1.499 . S
C5839 H5813 0.950 . S
C5839 C5838 1.414 . S
C5839 C5840 1.374 . S
C5840 H5814 0.950 . S
C5840 C5836 1.385 . S
C5840 C5839 1.374 . S
C5841 C5838 1.499 . S
C5841 C5842 1.373 . S
C5841 C5843 1.389 . S
C5842 H5815 0.950 . S
C5842 C5828 1.377 . S
C5842 C5841 1.373 . S
C5843 C5827 1.377 . S
C5843 C5841 1.389 . S
C5843 C5844 1.524 . S
C5844 C5843 1.524 . S
C5844 C5845 1.397 . S
C5844 C5849 1.363 . S
C5845 H5816 0.950 . S
C5845 C5844 1.397 . S
C5845 C5846 1.334 . S
C5846 H5817 0.950 . S
C5846 C5845 1.334 . S
C5846 C5847 1.287 . S
C5847 C5846 1.287 . S
C5847 C5848 1.524 . S
C5847 H5850 0.999 . S
C5848 H5818 0.950 . S
C5848 C5847 1.524 . S
C5848 C5849 1.415 . S
C5849 H5819 0.950 . S
C5849 C5844 1.363 . S
C5849 C5848 1.415 . S
H5850 C5847 0.999 . S
H5851 C5832 0.913 . S
H5852 C5870 0.951 . S
H5853 C5872 0.951 . S
H5854 C5874 0.950 . S
H5855 C5875 0.950 . S
H5856 C5877 0.950 . S
H5857 C5880 0.950 . S
H5858 C5881 0.950 . S
H5859 C5883 0.950 . S
H5860 C5884 0.950 . S
H5861 C5885 0.951 . S
H5862 C5887 0.951 . S
H5863 C5889 0.950 . S
H5864 C5890 0.950 . S
H5865 C5892 0.950 . S
H5866 C5895 0.950 . S
H5867 C5896 0.950 . S
H5868 C5898 0.950 . S
H5869 C5899 0.950 . S
C5870 H5852 0.951 . S
C5870 C5871 1.366 . S
C5870 C5872 1.388 . S
C5871 C5870 1.366 . S
C5871 C5875 1.385 . S
C5872 H5853 0.951 . S
C5872 C5870 1.388 . S
C5872 C5873 1.366 . S
C5873 C5872 1.366 . S
C5873 C5874 1.414 . S
C5873 C5876 1.499 . S
C5874 H5854 0.950 . S
C5874 C5873 1.414 . S
C5874 C5875 1.374 . S
C5875 H5855 0.950 . S
C5875 C5871 1.385 . S
C5875 C5874 1.374 . S
C5876 C5873 1.499 . S
C5876 C5877 1.373 . S
C5876 C5878 1.389 . S
C5877 H5856 0.950 . S
C5877 C5876 1.373 . S
C5877 C5893 1.377 . S
C5878 C5876 1.389 . S
C5878 C5879 1.524 . S
C5878 C5892 1.377 . S
C5879 C5878 1.524 . S
C5879 C5880 1.397 . S
C5879 C5884 1.363 . S
C5880 H5857 0.950 . S
C5880 C5879 1.397 . S
C5880 C5881 1.334 . S
C5881 H5858 0.950 . S
C5881 C5880 1.334 . S
C5881 C5882 1.287 . S
C5882 C5881 1.287 . S
C5882 C5883 1.524 . S
C5882 H5901 0.913 . S
C5883 H5859 0.950 . S
C5883 C5882 1.524 . S
C5883 C5884 1.415 . S
C5884 H5860 0.950 . S
C5884 C5879 1.363 . S
C5884 C5883 1.415 . S
C5885 H5861 0.951 . S
C5885 C5886 1.366 . S
C5885 C5887 1.388 . S
C5886 C5885 1.366 . S
C5886 C5890 1.385 . S
C5887 H5862 0.951 . S
C5887 C5885 1.388 . S
C5887 C5888 1.366 . S
C5888 C5887 1.366 . S
C5888 C5889 1.414 . S
C5888 C5891 1.499 . S
C5889 H5863 0.950 . S
C5889 C5888 1.414 . S
C5889 C5890 1.374 . S
C5890 H5864 0.950 . S
C5890 C5886 1.385 . S
C5890 C5889 1.374 . S
C5891 C5888 1.499 . S
C5891 C5892 1.373 . S
C5891 C5893 1.389 . S
C5892 H5865 0.950 . S
C5892 C5878 1.377 . S
C5892 C5891 1.373 . S
C5893 C5877 1.377 . S
C5893 C5891 1.389 . S
C5893 C5894 1.524 . S
C5894 C5893 1.524 . S
C5894 C5895 1.397 . S
C5894 C5899 1.363 . S
C5895 H5866 0.950 . S
C5895 C5894 1.397 . S
C5895 C5896 1.334 . S
C5896 H5867 0.950 . S
C5896 C5895 1.334 . S
C5896 C5897 1.287 . S
C5897 C5896 1.287 . S
C5897 C5898 1.524 . S
C5897 H5900 0.999 . S
C5898 H5868 0.950 . S
C5898 C5897 1.524 . S
C5898 C5899 1.415 . S
C5899 H5869 0.950 . S
C5899 C5894 1.363 . S
C5899 C5898 1.415 . S
H5900 C5897 0.999 . S
H5901 C5882 0.913 . S
H5902 C5920 0.951 . S
H5903 C5922 0.951 . S
H5904 C5924 0.950 . S
H5905 C5925 0.950 . S
H5906 C5927 0.950 . S
H5907 C5930 0.950 . S
H5908 C5931 0.950 . S
H5909 C5933 0.950 . S
H5910 C5934 0.950 . S
H5911 C5935 0.951 . S
H5912 C5937 0.951 . S
H5913 C5939 0.950 . S
H5914 C5940 0.950 . S
H5915 C5942 0.950 . S
H5916 C5945 0.950 . S
H5917 C5946 0.950 . S
H5918 C5948 0.950 . S
H5919 C5949 0.950 . S
C5920 H5902 0.951 . S
C5920 C5921 1.366 . S
C5920 C5922 1.388 . S
C5921 C5920 1.366 . S
C5921 C5925 1.385 . S
C5922 H5903 0.951 . S
C5922 C5920 1.388 . S
C5922 C5923 1.366 . S
C5923 C5922 1.366 . S
C5923 C5924 1.414 . S
C5923 C5926 1.499 . S
C5924 H5904 0.950 . S
C5924 C5923 1.414 . S
C5924 C5925 1.374 . S
C5925 H5905 0.950 . S
C5925 C5921 1.385 . S
C5925 C5924 1.374 . S
C5926 C5923 1.499 . S
C5926 C5927 1.373 . S
C5926 C5928 1.389 . S
C5927 H5906 0.950 . S
C5927 C5926 1.373 . S
C5927 C5943 1.377 . S
C5928 C5926 1.389 . S
C5928 C5929 1.524 . S
C5928 C5942 1.377 . S
C5929 C5928 1.524 . S
C5929 C5930 1.397 . S
C5929 C5934 1.363 . S
C5930 H5907 0.950 . S
C5930 C5929 1.397 . S
C5930 C5931 1.334 . S
C5931 H5908 0.950 . S
C5931 C5930 1.334 . S
C5931 C5932 1.287 . S
C5932 C5931 1.287 . S
C5932 C5933 1.524 . S
C5932 H5951 0.913 . S
C5933 H5909 0.950 . S
C5933 C5932 1.524 . S
C5933 C5934 1.415 . S
C5934 H5910 0.950 . S
C5934 C5929 1.363 . S
C5934 C5933 1.415 . S
C5935 H5911 0.951 . S
C5935 C5936 1.366 . S
C5935 C5937 1.388 . S
C5936 C5935 1.366 . S
C5936 C5940 1.385 . S
C5937 H5912 0.951 . S
C5937 C5935 1.388 . S
C5937 C5938 1.366 . S
C5938 C5937 1.366 . S
C5938 C5939 1.414 . S
C5938 C5941 1.499 . S
C5939 H5913 0.950 . S
C5939 C5938 1.414 . S
C5939 C5940 1.374 . S
C5940 H5914 0.950 . S
C5940 C5936 1.385 . S
C5940 C5939 1.374 . S
C5941 C5938 1.499 . S
C5941 C5942 1.373 . S
C5941 C5943 1.389 . S
C5942 H5915 0.950 . S
C5942 C5928 1.377 . S
C5942 C5941 1.373 . S
C5943 C5927 1.377 . S
C5943 C5941 1.389 . S
C5943 C5944 1.524 . S
C5944 C5943 1.524 . S
C5944 C5945 1.397 . S
C5944 C5949 1.363 . S
C5945 H5916 0.950 . S
C5945 C5944 1.397 . S
C5945 C5946 1.334 . S
C5946 H5917 0.950 . S
C5946 C5945 1.334 . S
C5946 C5947 1.287 . S
C5947 C5946 1.287 . S
C5947 C5948 1.524 . S
C5947 H5950 0.999 . S
C5948 H5918 0.950 . S
C5948 C5947 1.524 . S
C5948 C5949 1.415 . S
C5949 H5919 0.950 . S
C5949 C5944 1.363 . S
C5949 C5948 1.415 . S
H5950 C5947 0.999 . S
H5951 C5932 0.913 . S
H5952 C5970 0.951 . S
H5953 C5972 0.951 . S
H5954 C5974 0.950 . S
H5955 C5975 0.950 . S
H5956 C5977 0.950 . S
H5957 C5980 0.950 . S
H5958 C5981 0.950 . S
H5959 C5983 0.950 . S
H5960 C5984 0.950 . S
H5961 C5985 0.951 . S
H5962 C5987 0.951 . S
H5963 C5989 0.950 . S
H5964 C5990 0.950 . S
H5965 C5992 0.950 . S
H5966 C5995 0.950 . S
H5967 C5996 0.950 . S
H5968 C5998 0.950 . S
H5969 C5999 0.950 . S
C5970 H5952 0.951 . S
C5970 C5971 1.366 . S
C5970 C5972 1.388 . S
C5971 C5970 1.366 . S
C5971 C5975 1.385 . S
C5972 H5953 0.951 . S
C5972 C5970 1.388 . S
C5972 C5973 1.366 . S
C5973 C5972 1.366 . S
C5973 C5974 1.414 . S
C5973 C5976 1.499 . S
C5974 H5954 0.950 . S
C5974 C5973 1.414 . S
C5974 C5975 1.374 . S
C5975 H5955 0.950 . S
C5975 C5971 1.385 . S
C5975 C5974 1.374 . S
C5976 C5973 1.499 . S
C5976 C5977 1.373 . S
C5976 C5978 1.389 . S
C5977 H5956 0.950 . S
C5977 C5976 1.373 . S
C5977 C5993 1.377 . S
C5978 C5976 1.389 . S
C5978 C5979 1.524 . S
C5978 C5992 1.377 . S
C5979 C5978 1.524 . S
C5979 C5980 1.397 . S
C5979 C5984 1.363 . S
C5980 H5957 0.950 . S
C5980 C5979 1.397 . S
C5980 C5981 1.334 . S
C5981 H5958 0.950 . S
C5981 C5980 1.334 . S
C5981 C5982 1.287 . S
C5982 C5981 1.287 . S
C5982 C5983 1.524 . S
C5982 H6001 0.913 . S
C5983 H5959 0.950 . S
C5983 C5982 1.524 . S
C5983 C5984 1.415 . S
C5984 H5960 0.950 . S
C5984 C5979 1.363 . S
C5984 C5983 1.415 . S
C5985 H5961 0.951 . S
C5985 C5986 1.366 . S
C5985 C5987 1.388 . S
C5986 C5985 1.366 . S
C5986 C5990 1.385 . S
C5987 H5962 0.951 . S
C5987 C5985 1.388 . S
C5987 C5988 1.366 . S
C5988 C5987 1.366 . S
C5988 C5989 1.414 . S
C5988 C5991 1.499 . S
C5989 H5963 0.950 . S
C5989 C5988 1.414 . S
C5989 C5990 1.374 . S
C5990 H5964 0.950 . S
C5990 C5986 1.385 . S
C5990 C5989 1.374 . S
C5991 C5988 1.499 . S
C5991 C5992 1.373 . S
C5991 C5993 1.389 . S
C5992 H5965 0.950 . S
C5992 C5978 1.377 . S
C5992 C5991 1.373 . S
C5993 C5977 1.377 . S
C5993 C5991 1.389 . S
C5993 C5994 1.524 . S
C5994 C5993 1.524 . S
C5994 C5995 1.397 . S
C5994 C5999 1.363 . S
C5995 H5966 0.950 . S
C5995 C5994 1.397 . S
C5995 C5996 1.334 . S
C5996 H5967 0.950 . S
C5996 C5995 1.334 . S
C5996 C5997 1.287 . S
C5997 C5996 1.287 . S
C5997 C5998 1.524 . S
C5997 H6000 0.999 . S
C5998 H5968 0.950 . S
C5998 C5997 1.524 . S
C5998 C5999 1.415 . S
C5999 H5969 0.950 . S
C5999 C5994 1.363 . S
C5999 C5998 1.415 . S
H6000 C5997 0.999 . S
H6001 C5982 0.913 . S
H6002 C6020 0.951 . S
H6003 C6022 0.951 . S
H6004 C6024 0.950 . S
H6005 C6025 0.950 . S
H6006 C6027 0.950 . S
H6007 C6030 0.950 . S
H6008 C6031 0.950 . S
H6009 C6033 0.950 . S
H6010 C6034 0.950 . S
H6011 C6035 0.951 . S
H6012 C6037 0.951 . S
H6013 C6039 0.950 . S
H6014 C6040 0.950 . S
H6015 C6042 0.950 . S
H6016 C6045 0.950 . S
H6017 C6046 0.950 . S
H6018 C6048 0.950 . S
H6019 C6049 0.950 . S
C6020 H6002 0.951 . S
C6020 C6021 1.366 . S
C6020 C6022 1.388 . S
C6021 C6020 1.366 . S
C6021 C6025 1.385 . S
C6022 H6003 0.951 . S
C6022 C6020 1.388 . S
C6022 C6023 1.366 . S
C6023 C6022 1.366 . S
C6023 C6024 1.414 . S
C6023 C6026 1.499 . S
C6024 H6004 0.950 . S
C6024 C6023 1.414 . S
C6024 C6025 1.374 . S
C6025 H6005 0.950 . S
C6025 C6021 1.385 . S
C6025 C6024 1.374 . S
C6026 C6023 1.499 . S
C6026 C6027 1.373 . S
C6026 C6028 1.389 . S
C6027 H6006 0.950 . S
C6027 C6026 1.373 . S
C6027 C6043 1.377 . S
C6028 C6026 1.389 . S
C6028 C6029 1.524 . S
C6028 C6042 1.377 . S
C6029 C6028 1.524 . S
C6029 C6030 1.397 . S
C6029 C6034 1.363 . S
C6030 H6007 0.950 . S
C6030 C6029 1.397 . S
C6030 C6031 1.334 . S
C6031 H6008 0.950 . S
C6031 C6030 1.334 . S
C6031 C6032 1.287 . S
C6032 C6031 1.287 . S
C6032 C6033 1.524 . S
C6032 H6051 0.913 . S
C6033 H6009 0.950 . S
C6033 C6032 1.524 . S
C6033 C6034 1.415 . S
C6034 H6010 0.950 . S
C6034 C6029 1.363 . S
C6034 C6033 1.415 . S
C6035 H6011 0.951 . S
C6035 C6036 1.366 . S
C6035 C6037 1.388 . S
C6036 C6035 1.366 . S
C6036 C6040 1.385 . S
C6037 H6012 0.951 . S
C6037 C6035 1.388 . S
C6037 C6038 1.366 . S
C6038 C6037 1.366 . S
C6038 C6039 1.414 . S
C6038 C6041 1.499 . S
C6039 H6013 0.950 . S
C6039 C6038 1.414 . S
C6039 C6040 1.374 . S
C6040 H6014 0.950 . S
C6040 C6036 1.385 . S
C6040 C6039 1.374 . S
C6041 C6038 1.499 . S
C6041 C6042 1.373 . S
C6041 C6043 1.389 . S
C6042 H6015 0.950 . S
C6042 C6028 1.377 . S
C6042 C6041 1.373 . S
C6043 C6027 1.377 . S
C6043 C6041 1.389 . S
C6043 C6044 1.524 . S
C6044 C6043 1.524 . S
C6044 C6045 1.397 . S
C6044 C6049 1.363 . S
C6045 H6016 0.950 . S
C6045 C6044 1.397 . S
C6045 C6046 1.334 . S
C6046 H6017 0.950 . S
C6046 C6045 1.334 . S
C6046 C6047 1.287 . S
C6047 C6046 1.287 . S
C6047 C6048 1.524 . S
C6047 H6050 0.999 . S
C6048 H6018 0.950 . S
C6048 C6047 1.524 . S
C6048 C6049 1.415 . S
C6049 H6019 0.950 . S
C6049 C6044 1.363 . S
C6049 C6048 1.415 . S
H6050 C6047 0.999 . S
H6051 C6032 0.913 . S
H6052 C6070 0.951 . S
H6053 C6072 0.951 . S
H6054 C6074 0.950 . S
H6055 C6075 0.950 . S
H6056 C6077 0.950 . S
H6057 C6080 0.950 . S
H6058 C6081 0.950 . S
H6059 C6083 0.950 . S
H6060 C6084 0.950 . S
H6061 C6085 0.951 . S
H6062 C6087 0.951 . S
H6063 C6089 0.950 . S
H6064 C6090 0.950 . S
H6065 C6092 0.950 . S
H6066 C6095 0.950 . S
H6067 C6096 0.950 . S
H6068 C6098 0.950 . S
H6069 C6099 0.950 . S
C6070 H6052 0.951 . S
C6070 C6071 1.366 . S
C6070 C6072 1.388 . S
C6071 C6070 1.366 . S
C6071 C6075 1.385 . S
C6072 H6053 0.951 . S
C6072 C6070 1.388 . S
C6072 C6073 1.366 . S
C6073 C6072 1.366 . S
C6073 C6074 1.414 . S
C6073 C6076 1.499 . S
C6074 H6054 0.950 . S
C6074 C6073 1.414 . S
C6074 C6075 1.374 . S
C6075 H6055 0.950 . S
C6075 C6071 1.385 . S
C6075 C6074 1.374 . S
C6076 C6073 1.499 . S
C6076 C6077 1.373 . S
C6076 C6078 1.389 . S
C6077 H6056 0.950 . S
C6077 C6076 1.373 . S
C6077 C6093 1.377 . S
C6078 C6076 1.389 . S
C6078 C6079 1.524 . S
C6078 C6092 1.377 . S
C6079 C6078 1.524 . S
C6079 C6080 1.397 . S
C6079 C6084 1.363 . S
C6080 H6057 0.950 . S
C6080 C6079 1.397 . S
C6080 C6081 1.334 . S
C6081 H6058 0.950 . S
C6081 C6080 1.334 . S
C6081 C6082 1.287 . S
C6082 C6081 1.287 . S
C6082 C6083 1.524 . S
C6082 H6101 0.913 . S
C6083 H6059 0.950 . S
C6083 C6082 1.524 . S
C6083 C6084 1.415 . S
C6084 H6060 0.950 . S
C6084 C6079 1.363 . S
C6084 C6083 1.415 . S
C6085 H6061 0.951 . S
C6085 C6086 1.366 . S
C6085 C6087 1.388 . S
C6086 C6085 1.366 . S
C6086 C6090 1.385 . S
C6087 H6062 0.951 . S
C6087 C6085 1.388 . S
C6087 C6088 1.366 . S
C6088 C6087 1.366 . S
C6088 C6089 1.414 . S
C6088 C6091 1.499 . S
C6089 H6063 0.950 . S
C6089 C6088 1.414 . S
C6089 C6090 1.374 . S
C6090 H6064 0.950 . S
C6090 C6086 1.385 . S
C6090 C6089 1.374 . S
C6091 C6088 1.499 . S
C6091 C6092 1.373 . S
C6091 C6093 1.389 . S
C6092 H6065 0.950 . S
C6092 C6078 1.377 . S
C6092 C6091 1.373 . S
C6093 C6077 1.377 . S
C6093 C6091 1.389 . S
C6093 C6094 1.524 . S
C6094 C6093 1.524 . S
C6094 C6095 1.397 . S
C6094 C6099 1.363 . S
C6095 H6066 0.950 . S
C6095 C6094 1.397 . S
C6095 C6096 1.334 . S
C6096 H6067 0.950 . S
C6096 C6095 1.334 . S
C6096 C6097 1.287 . S
C6097 C6096 1.287 . S
C6097 C6098 1.524 . S
C6097 H6100 0.999 . S
C6098 H6068 0.950 . S
C6098 C6097 1.524 . S
C6098 C6099 1.415 . S
C6099 H6069 0.950 . S
C6099 C6094 1.363 . S
C6099 C6098 1.415 . S
H6100 C6097 0.999 . S
H6101 C6082 0.913 . S
H6102 C6120 0.951 . S
H6103 C6122 0.951 . S
H6104 C6124 0.950 . S
H6105 C6125 0.950 . S
H6106 C6127 0.975 . S
H6107 C6130 0.950 . S
H6108 C6131 0.950 . S
H6109 C6133 0.950 . S
H6110 C6134 0.950 . S
H6111 C6135 0.951 . S
H6112 C6137 0.951 . S
H6113 C6139 0.950 . S
H6114 C6140 0.950 . S
H6115 C6142 0.950 . S
H6116 C6145 0.950 1_554 S
H6117 C6146 0.950 . S
H6118 C6148 0.950 . S
H6119 C6149 0.950 . S
C6120 H6102 0.951 . S
C6120 C6121 1.366 . S
C6120 C6122 1.388 . S
C6121 C6120 1.366 . S
C6121 C6125 1.385 1_554 S
C6122 H6103 0.951 . S
C6122 C6120 1.388 . S
C6122 C6123 1.366 . S
C6123 C6122 1.366 . S
C6123 C6124 1.414 1_554 S
C6123 C6126 1.499 . S
C6124 H6104 0.950 . S
C6124 C6123 1.414 1_556 S
C6124 C6125 1.374 . S
C6125 H6105 0.950 . S
C6125 C6121 1.385 1_556 S
C6125 C6124 1.374 . S
C6126 C6123 1.499 . S
C6126 C6127 1.343 1_554 S
C6126 C6128 1.389 . S
C6127 H6106 0.975 . S
C6127 C6126 1.343 1_556 S
C6127 C6143 1.384 . S
C6128 C6126 1.389 . S
C6128 C6129 1.524 . S
C6128 C6142 1.377 . S
C6129 C6128 1.524 . S
C6129 C6130 1.397 . S
C6129 C6134 1.363 . S
C6130 H6107 0.950 . S
C6130 C6129 1.397 . S
C6130 C6131 1.334 . S
C6131 H6108 0.950 . S
C6131 C6130 1.334 . S
C6131 C6132 1.287 . S
C6132 C6131 1.287 . S
C6132 C6133 1.524 . S
C6132 H6151 0.913 . S
C6133 H6109 0.950 . S
C6133 C6132 1.524 . S
C6133 C6134 1.415 . S
C6134 H6110 0.950 . S
C6134 C6129 1.363 . S
C6134 C6133 1.415 . S
C6135 H6111 0.951 . S
C6135 C6136 1.366 1_556 S
C6135 C6137 1.388 . S
C6136 C6135 1.366 1_554 S
C6136 C6140 1.385 . S
C6137 H6112 0.951 . S
C6137 C6135 1.388 . S
C6137 C6138 1.366 1_556 S
C6138 C6137 1.366 1_554 S
C6138 C6139 1.414 . S
C6138 C6141 1.499 . S
C6139 H6113 0.950 . S
C6139 C6138 1.414 . S
C6139 C6140 1.374 . S
C6140 H6114 0.950 . S
C6140 C6136 1.385 . S
C6140 C6139 1.374 . S
C6141 C6138 1.499 . S
C6141 C6142 1.373 . S
C6141 C6143 1.388 1_554 S
C6142 H6115 0.950 . S
C6142 C6128 1.377 . S
C6142 C6141 1.373 . S
C6143 C6127 1.384 . S
C6143 C6141 1.388 1_556 S
C6143 C6144 1.527 . S
C6144 C6143 1.527 . S
C6144 C6145 1.397 . S
C6144 C6149 1.363 . S
C6145 H6116 0.950 1_556 S
C6145 C6144 1.397 . S
C6145 C6146 1.334 . S
C6146 H6117 0.950 . S
C6146 C6145 1.334 . S
C6146 C6147 1.287 . S
C6147 C6146 1.287 . S
C6147 C6148 1.524 . S
C6147 H6150 0.999 . S
C6148 H6118 0.950 . S
C6148 C6147 1.524 . S
C6148 C6149 1.415 . S
C6149 H6119 0.950 . S
C6149 C6144 1.363 . S
C6149 C6148 1.415 . S
H6150 C6147 0.999 . S
H6151 C6132 0.913 . S
H6152 C6170 0.951 . S
H6153 C6172 0.951 . S
H6154 C6174 0.950 . S
H6155 C6175 0.950 . S
H6156 C6177 0.950 . S
H6157 C6180 0.950 . S
H6158 C6181 0.950 . S
H6159 C6183 0.950 . S
H6160 C6184 0.950 . S
H6161 C6185 0.951 . S
H6162 C6187 0.951 . S
H6163 C6189 0.950 . S
H6164 C6190 0.950 . S
H6165 C6192 0.950 . S
H6166 C6195 0.950 . S
H6167 C6196 0.950 . S
H6168 C6198 0.950 . S
H6169 C6199 0.950 . S
C6170 H6152 0.951 . S
C6170 C6171 1.366 . S
C6170 C6172 1.388 . S
C6171 C6170 1.366 . S
C6171 C6175 1.385 . S
C6172 H6153 0.951 . S
C6172 C6170 1.388 . S
C6172 C6173 1.366 . S
C6173 C6172 1.366 . S
C6173 C6174 1.414 . S
C6173 C6176 1.499 . S
C6174 H6154 0.950 . S
C6174 C6173 1.414 . S
C6174 C6175 1.374 . S
C6175 H6155 0.950 . S
C6175 C6171 1.385 . S
C6175 C6174 1.374 . S
C6176 C6173 1.499 . S
C6176 C6177 1.373 . S
C6176 C6178 1.389 . S
C6177 H6156 0.950 . S
C6177 C6176 1.373 . S
C6177 C6193 1.377 . S
C6178 C6176 1.389 . S
C6178 C6179 1.524 . S
C6178 C6192 1.377 . S
C6179 C6178 1.524 . S
C6179 C6180 1.397 . S
C6179 C6184 1.363 . S
C6180 H6157 0.950 . S
C6180 C6179 1.397 . S
C6180 C6181 1.334 . S
C6181 H6158 0.950 . S
C6181 C6180 1.334 . S
C6181 C6182 1.287 . S
C6182 C6181 1.287 . S
C6182 C6183 1.524 . S
C6182 H6201 0.913 . S
C6183 H6159 0.950 . S
C6183 C6182 1.524 . S
C6183 C6184 1.415 . S
C6184 H6160 0.950 . S
C6184 C6179 1.363 . S
C6184 C6183 1.415 . S
C6185 H6161 0.951 . S
C6185 C6186 1.366 . S
C6185 C6187 1.388 . S
C6186 C6185 1.366 . S
C6186 C6190 1.385 . S
C6187 H6162 0.951 . S
C6187 C6185 1.388 . S
C6187 C6188 1.366 . S
C6188 C6187 1.366 . S
C6188 C6189 1.414 . S
C6188 C6191 1.499 . S
C6189 H6163 0.950 . S
C6189 C6188 1.414 . S
C6189 C6190 1.374 . S
C6190 H6164 0.950 . S
C6190 C6186 1.385 . S
C6190 C6189 1.374 . S
C6191 C6188 1.499 . S
C6191 C6192 1.373 . S
C6191 C6193 1.389 . S
C6192 H6165 0.950 . S
C6192 C6178 1.377 . S
C6192 C6191 1.373 . S
C6193 C6177 1.377 . S
C6193 C6191 1.389 . S
C6193 C6194 1.524 . S
C6194 C6193 1.524 . S
C6194 C6195 1.397 . S
C6194 C6199 1.363 . S
C6195 H6166 0.950 . S
C6195 C6194 1.397 . S
C6195 C6196 1.334 . S
C6196 H6167 0.950 . S
C6196 C6195 1.334 . S
C6196 C6197 1.287 . S
C6197 C6196 1.287 . S
C6197 C6198 1.524 . S
C6197 H6200 0.999 . S
C6198 H6168 0.950 . S
C6198 C6197 1.524 . S
C6198 C6199 1.415 . S
C6199 H6169 0.950 . S
C6199 C6194 1.363 . S
C6199 C6198 1.415 . S
H6200 C6197 0.999 . S
H6201 C6182 0.913 . S
H6202 C6220 0.951 . S
H6203 C6222 0.951 . S
H6204 C6224 0.950 . S
H6205 C6225 0.950 . S
H6206 C6227 0.950 . S
H6207 C6230 0.950 . S
H6208 C6231 0.950 . S
H6209 C6233 0.950 . S
H6210 C6234 0.950 . S
H6211 C6235 0.951 . S
H6212 C6237 0.951 . S
H6213 C6239 0.950 . S
H6214 C6240 0.950 . S
H6215 C6242 0.950 . S
H6216 C6245 0.950 . S
H6217 C6246 0.950 . S
H6218 C6248 0.950 . S
H6219 C6249 0.950 . S
C6220 H6202 0.951 . S
C6220 C6221 1.366 . S
C6220 C6222 1.388 . S
C6221 C6220 1.366 . S
C6221 C6225 1.385 . S
C6222 H6203 0.951 . S
C6222 C6220 1.388 . S
C6222 C6223 1.366 . S
C6223 C6222 1.366 . S
C6223 C6224 1.414 . S
C6223 C6226 1.499 . S
C6224 H6204 0.950 . S
C6224 C6223 1.414 . S
C6224 C6225 1.374 . S
C6225 H6205 0.950 . S
C6225 C6221 1.385 . S
C6225 C6224 1.374 . S
C6226 C6223 1.499 . S
C6226 C6227 1.373 . S
C6226 C6228 1.389 . S
C6227 H6206 0.950 . S
C6227 C6226 1.373 . S
C6227 C6243 1.377 . S
C6228 C6226 1.389 . S
C6228 C6229 1.524 . S
C6228 C6242 1.377 . S
C6229 C6228 1.524 . S
C6229 C6230 1.397 1_554 S
C6229 C6234 1.363 . S
C6230 H6207 0.950 . S
C6230 C6229 1.397 1_556 S
C6230 C6231 1.334 . S
C6231 H6208 0.950 . S
C6231 C6230 1.334 . S
C6231 C6232 1.287 . S
C6232 C6231 1.287 . S
C6232 C6233 1.509 1_556 S
C6232 H6251 0.913 . S
C6233 H6209 0.950 . S
C6233 C6232 1.509 1_554 S
C6233 C6234 1.430 . S
C6234 H6210 0.950 . S
C6234 C6229 1.363 . S
C6234 C6233 1.430 . S
C6235 H6211 0.951 . S
C6235 C6236 1.366 . S
C6235 C6237 1.388 . S
C6236 C6235 1.366 . S
C6236 C6240 1.385 . S
C6237 H6212 0.951 . S
C6237 C6235 1.388 . S
C6237 C6238 1.366 . S
C6238 C6237 1.366 . S
C6238 C6239 1.414 . S
C6238 C6241 1.499 . S
C6239 H6213 0.950 . S
C6239 C6238 1.414 . S
C6239 C6240 1.374 . S
C6240 H6214 0.950 . S
C6240 C6236 1.385 . S
C6240 C6239 1.374 . S
C6241 C6238 1.499 . S
C6241 C6242 1.373 . S
C6241 C6243 1.389 . S
C6242 H6215 0.950 . S
C6242 C6228 1.377 . S
C6242 C6241 1.373 . S
C6243 C6227 1.377 . S
C6243 C6241 1.389 . S
C6243 C6244 1.524 . S
C6244 C6243 1.524 . S
C6244 C6245 1.397 . S
C6244 C6249 1.363 . S
C6245 H6216 0.950 . S
C6245 C6244 1.397 . S
C6245 C6246 1.334 . S
C6246 H6217 0.950 . S
C6246 C6245 1.334 . S
C6246 C6247 1.287 . S
C6247 C6246 1.287 . S
C6247 C6248 1.524 . S
C6247 H6250 0.999 . S
C6248 H6218 0.950 . S
C6248 C6247 1.524 . S
C6248 C6249 1.415 . S
C6249 H6219 0.950 . S
C6249 C6244 1.363 . S
C6249 C6248 1.415 . S
H6250 C6247 0.999 . S
H6251 C6232 0.913 . S
H6252 C6270 0.951 . S
H6253 C6272 0.951 . S
H6254 C6274 0.950 . S
H6255 C6275 0.950 . S
H6256 C6277 0.950 . S
H6257 C6280 0.950 . S
H6258 C6281 0.950 . S
H6259 C6283 0.950 . S
H6260 C6284 0.950 . S
H6261 C6285 0.951 . S
H6262 C6287 0.951 . S
H6263 C6289 0.950 . S
H6264 C6290 0.950 . S
H6265 C6292 0.950 . S
H6266 C6295 0.950 . S
H6267 C6296 0.950 . S
H6268 C6298 0.950 . S
H6269 C6299 0.950 . S
C6270 H6252 0.951 . S
C6270 C6271 1.366 . S
C6270 C6272 1.388 . S
C6271 C6270 1.366 . S
C6271 C6275 1.385 . S
C6272 H6253 0.951 . S
C6272 C6270 1.388 . S
C6272 C6273 1.366 . S
C6273 C6272 1.366 . S
C6273 C6274 1.414 . S
C6273 C6276 1.499 . S
C6274 H6254 0.950 . S
C6274 C6273 1.414 . S
C6274 C6275 1.374 . S
C6275 H6255 0.950 . S
C6275 C6271 1.385 . S
C6275 C6274 1.374 . S
C6276 C6273 1.499 . S
C6276 C6277 1.373 . S
C6276 C6278 1.389 . S
C6277 H6256 0.950 . S
C6277 C6276 1.373 . S
C6277 C6293 1.377 . S
C6278 C6276 1.389 . S
C6278 C6279 1.524 . S
C6278 C6292 1.377 . S
C6279 C6278 1.524 . S
C6279 C6280 1.397 . S
C6279 C6284 1.363 . S
C6280 H6257 0.950 . S
C6280 C6279 1.397 . S
C6280 C6281 1.334 . S
C6281 H6258 0.950 . S
C6281 C6280 1.334 . S
C6281 C6282 1.287 . S
C6282 C6281 1.287 . S
C6282 C6283 1.524 . S
C6282 H6301 0.913 . S
C6283 H6259 0.950 . S
C6283 C6282 1.524 . S
C6283 C6284 1.415 . S
C6284 H6260 0.950 . S
C6284 C6279 1.363 . S
C6284 C6283 1.415 . S
C6285 H6261 0.951 . S
C6285 C6286 1.366 . S
C6285 C6287 1.388 . S
C6286 C6285 1.366 . S
C6286 C6290 1.385 . S
C6287 H6262 0.951 . S
C6287 C6285 1.388 . S
C6287 C6288 1.366 . S
C6288 C6287 1.366 . S
C6288 C6289 1.414 . S
C6288 C6291 1.499 . S
C6289 H6263 0.950 . S
C6289 C6288 1.414 . S
C6289 C6290 1.374 . S
C6290 H6264 0.950 . S
C6290 C6286 1.385 . S
C6290 C6289 1.374 . S
C6291 C6288 1.499 . S
C6291 C6292 1.373 . S
C6291 C6293 1.389 . S
C6292 H6265 0.950 . S
C6292 C6278 1.377 . S
C6292 C6291 1.373 . S
C6293 C6277 1.377 . S
C6293 C6291 1.389 . S
C6293 C6294 1.524 . S
C6294 C6293 1.524 . S
C6294 C6295 1.397 . S
C6294 C6299 1.363 . S
C6295 H6266 0.950 . S
C6295 C6294 1.397 . S
C6295 C6296 1.334 . S
C6296 H6267 0.950 . S
C6296 C6295 1.334 . S
C6296 C6297 1.287 . S
C6297 C6296 1.287 . S
C6297 C6298 1.524 . S
C6297 H6300 0.999 . S
C6298 H6268 0.950 . S
C6298 C6297 1.524 . S
C6298 C6299 1.415 . S
C6299 H6269 0.950 . S
C6299 C6294 1.363 . S
C6299 C6298 1.415 . S
H6300 C6297 0.999 . S
H6301 C6282 0.913 . S
H6302 C6320 0.951 . S
H6303 C6322 0.951 . S
H6304 C6324 0.950 . S
H6305 C6325 0.950 . S
H6306 C6327 0.950 . S
H6307 C6330 0.950 . S
H6308 C6331 0.950 . S
H6309 C6333 0.950 . S
H6310 C6334 0.950 . S
H6311 C6335 0.951 . S
H6312 C6337 0.951 . S
H6313 C6339 0.950 . S
H6314 C6340 0.950 . S
H6315 C6342 0.950 . S
H6316 C6345 0.950 . S
H6317 C6346 0.950 . S
H6318 C6348 0.950 . S
H6319 C6349 0.950 . S
C6320 H6302 0.951 . S
C6320 C6321 1.366 . S
C6320 C6322 1.388 . S
C6321 C6320 1.366 . S
C6321 C6325 1.385 . S
C6322 H6303 0.951 . S
C6322 C6320 1.388 . S
C6322 C6323 1.366 . S
C6323 C6322 1.366 . S
C6323 C6324 1.414 . S
C6323 C6326 1.499 . S
C6324 H6304 0.950 . S
C6324 C6323 1.414 . S
C6324 C6325 1.374 . S
C6325 H6305 0.950 . S
C6325 C6321 1.385 . S
C6325 C6324 1.374 . S
C6326 C6323 1.499 . S
C6326 C6327 1.373 . S
C6326 C6328 1.389 . S
C6327 H6306 0.950 . S
C6327 C6326 1.373 . S
C6327 C6343 1.377 . S
C6328 C6326 1.389 . S
C6328 C6329 1.524 . S
C6328 C6342 1.377 . S
C6329 C6328 1.524 . S
C6329 C6330 1.397 . S
C6329 C6334 1.363 . S
C6330 H6307 0.950 . S
C6330 C6329 1.397 . S
C6330 C6331 1.334 . S
C6331 H6308 0.950 . S
C6331 C6330 1.334 . S
C6331 C6332 1.287 . S
C6332 C6331 1.287 . S
C6332 C6333 1.524 . S
C6332 H6351 0.913 . S
C6333 H6309 0.950 . S
C6333 C6332 1.524 . S
C6333 C6334 1.415 . S
C6334 H6310 0.950 . S
C6334 C6329 1.363 . S
C6334 C6333 1.415 . S
C6335 H6311 0.951 . S
C6335 C6336 1.366 . S
C6335 C6337 1.388 . S
C6336 C6335 1.366 . S
C6336 C6340 1.385 . S
C6337 H6312 0.951 . S
C6337 C6335 1.388 . S
C6337 C6338 1.366 . S
C6338 C6337 1.366 . S
C6338 C6339 1.414 . S
C6338 C6341 1.499 . S
C6339 H6313 0.950 . S
C6339 C6338 1.414 . S
C6339 C6340 1.374 . S
C6340 H6314 0.950 . S
C6340 C6336 1.385 . S
C6340 C6339 1.374 . S
C6341 C6338 1.499 . S
C6341 C6342 1.373 . S
C6341 C6343 1.389 . S
C6342 H6315 0.950 . S
C6342 C6328 1.377 . S
C6342 C6341 1.373 . S
C6343 C6327 1.377 . S
C6343 C6341 1.389 . S
C6343 C6344 1.524 . S
C6344 C6343 1.524 . S
C6344 C6345 1.397 . S
C6344 C6349 1.363 . S
C6345 H6316 0.950 . S
C6345 C6344 1.397 . S
C6345 C6346 1.334 . S
C6346 H6317 0.950 . S
C6346 C6345 1.334 . S
C6346 C6347 1.287 . S
C6347 C6346 1.287 . S
C6347 C6348 1.524 . S
C6347 H6350 0.999 . S
C6348 H6318 0.950 . S
C6348 C6347 1.524 . S
C6348 C6349 1.415 . S
C6349 H6319 0.950 . S
C6349 C6344 1.363 . S
C6349 C6348 1.415 . S
H6350 C6347 0.999 . S
H6351 C6332 0.913 . S
H6352 C6370 0.951 . S
H6353 C6372 0.951 . S
H6354 C6374 0.950 . S
H6355 C6375 0.950 . S
H6356 C6377 0.950 . S
H6357 C6380 0.950 . S
H6358 C6381 0.950 . S
H6359 C6383 0.950 . S
H6360 C6384 0.950 . S
H6361 C6385 0.951 . S
H6362 C6387 0.951 . S
H6363 C6389 0.950 . S
H6364 C6390 0.950 . S
H6365 C6392 0.950 . S
H6366 C6395 0.950 . S
H6367 C6396 0.950 . S
H6368 C6398 0.950 . S
H6369 C6399 0.950 . S
C6370 H6352 0.951 . S
C6370 C6371 1.366 . S
C6370 C6372 1.388 . S
C6371 C6370 1.366 . S
C6371 C6375 1.385 . S
C6372 H6353 0.951 . S
C6372 C6370 1.388 . S
C6372 C6373 1.366 . S
C6373 C6372 1.366 . S
C6373 C6374 1.414 . S
C6373 C6376 1.499 . S
C6374 H6354 0.950 . S
C6374 C6373 1.414 . S
C6374 C6375 1.374 . S
C6375 H6355 0.950 . S
C6375 C6371 1.385 . S
C6375 C6374 1.374 . S
C6376 C6373 1.499 . S
C6376 C6377 1.373 . S
C6376 C6378 1.389 . S
C6377 H6356 0.950 . S
C6377 C6376 1.373 . S
C6377 C6393 1.377 . S
C6378 C6376 1.389 . S
C6378 C6379 1.524 . S
C6378 C6392 1.377 . S
C6379 C6378 1.524 . S
C6379 C6380 1.397 . S
C6379 C6384 1.363 . S
C6380 H6357 0.950 . S
C6380 C6379 1.397 . S
C6380 C6381 1.334 . S
C6381 H6358 0.950 . S
C6381 C6380 1.334 . S
C6381 C6382 1.287 . S
C6382 C6381 1.287 . S
C6382 C6383 1.524 . S
C6382 H6401 0.913 . S
C6383 H6359 0.950 . S
C6383 C6382 1.524 . S
C6383 C6384 1.415 . S
C6384 H6360 0.950 . S
C6384 C6379 1.363 . S
C6384 C6383 1.415 . S
C6385 H6361 0.951 . S
C6385 C6386 1.366 . S
C6385 C6387 1.388 . S
C6386 C6385 1.366 . S
C6386 C6390 1.385 . S
C6387 H6362 0.951 . S
C6387 C6385 1.388 . S
C6387 C6388 1.366 . S
C6388 C6387 1.366 . S
C6388 C6389 1.414 . S
C6388 C6391 1.499 . S
C6389 H6363 0.950 . S
C6389 C6388 1.414 . S
C6389 C6390 1.374 . S
C6390 H6364 0.950 . S
C6390 C6386 1.385 . S
C6390 C6389 1.374 . S
C6391 C6388 1.499 . S
C6391 C6392 1.373 . S
C6391 C6393 1.389 . S
C6392 H6365 0.950 . S
C6392 C6378 1.377 . S
C6392 C6391 1.373 . S
C6393 C6377 1.377 . S
C6393 C6391 1.389 . S
C6393 C6394 1.524 . S
C6394 C6393 1.524 . S
C6394 C6395 1.397 . S
C6394 C6399 1.363 . S
C6395 H6366 0.950 . S
C6395 C6394 1.397 . S
C6395 C6396 1.334 . S
C6396 H6367 0.950 . S
C6396 C6395 1.334 . S
C6396 C6397 1.287 . S
C6397 C6396 1.287 . S
C6397 C6398 1.524 . S
C6397 H6400 0.999 . S
C6398 H6368 0.950 . S
C6398 C6397 1.524 . S
C6398 C6399 1.415 . S
C6399 H6369 0.950 . S
C6399 C6394 1.363 . S
C6399 C6398 1.415 . S
H6400 C6397 0.999 . S
H6401 C6382 0.913 . S
H6402 C6420 0.951 . S
H6403 C6422 0.951 . S
H6404 C6424 0.950 . S
H6405 C6425 0.950 . S
H6406 C6427 0.950 . S
H6407 C6430 0.950 . S
H6408 C6431 0.950 . S
H6409 C6433 0.950 . S
H6410 C6434 0.950 . S
H6411 C6435 0.951 . S
H6412 C6437 0.951 . S
H6413 C6439 0.950 . S
H6414 C6440 0.950 . S
H6415 C6442 0.950 . S
H6416 C6445 0.950 . S
H6417 C6446 0.950 . S
H6418 C6448 0.950 . S
H6419 C6449 0.950 . S
C6420 H6402 0.951 . S
C6420 C6421 1.366 . S
C6420 C6422 1.388 . S
C6421 C6420 1.366 . S
C6421 C6425 1.385 . S
C6422 H6403 0.951 . S
C6422 C6420 1.388 . S
C6422 C6423 1.366 . S
C6423 C6422 1.366 . S
C6423 C6424 1.414 . S
C6423 C6426 1.499 . S
C6424 H6404 0.950 . S
C6424 C6423 1.414 . S
C6424 C6425 1.374 . S
C6425 H6405 0.950 . S
C6425 C6421 1.385 . S
C6425 C6424 1.374 . S
C6426 C6423 1.499 . S
C6426 C6427 1.373 . S
C6426 C6428 1.389 . S
C6427 H6406 0.950 . S
C6427 C6426 1.373 . S
C6427 C6443 1.377 . S
C6428 C6426 1.389 . S
C6428 C6429 1.524 . S
C6428 C6442 1.377 . S
C6429 C6428 1.524 . S
C6429 C6430 1.397 . S
C6429 C6434 1.363 . S
C6430 H6407 0.950 . S
C6430 C6429 1.397 . S
C6430 C6431 1.334 . S
C6431 H6408 0.950 . S
C6431 C6430 1.334 . S
C6431 C6432 1.287 . S
C6432 C6431 1.287 . S
C6432 C6433 1.524 . S
C6432 H6451 0.913 . S
C6433 H6409 0.950 . S
C6433 C6432 1.524 . S
C6433 C6434 1.415 . S
C6434 H6410 0.950 . S
C6434 C6429 1.363 . S
C6434 C6433 1.415 . S
C6435 H6411 0.951 . S
C6435 C6436 1.366 . S
C6435 C6437 1.388 . S
C6436 C6435 1.366 . S
C6436 C6440 1.385 . S
C6437 H6412 0.951 . S
C6437 C6435 1.388 . S
C6437 C6438 1.366 . S
C6438 C6437 1.366 . S
C6438 C6439 1.414 . S
C6438 C6441 1.499 . S
C6439 H6413 0.950 . S
C6439 C6438 1.414 . S
C6439 C6440 1.374 . S
C6440 H6414 0.950 . S
C6440 C6436 1.385 . S
C6440 C6439 1.374 . S
C6441 C6438 1.499 . S
C6441 C6442 1.373 . S
C6441 C6443 1.389 . S
C6442 H6415 0.950 . S
C6442 C6428 1.377 . S
C6442 C6441 1.373 . S
C6443 C6427 1.377 . S
C6443 C6441 1.389 . S
C6443 C6444 1.524 . S
C6444 C6443 1.524 . S
C6444 C6445 1.397 . S
C6444 C6449 1.363 . S
C6445 H6416 0.950 . S
C6445 C6444 1.397 . S
C6445 C6446 1.334 . S
C6446 H6417 0.950 . S
C6446 C6445 1.334 . S
C6446 C6447 1.287 . S
C6447 C6446 1.287 . S
C6447 C6448 1.524 . S
C6447 H6450 0.999 . S
C6448 H6418 0.950 . S
C6448 C6447 1.524 . S
C6448 C6449 1.415 . S
C6449 H6419 0.950 . S
C6449 C6444 1.363 . S
C6449 C6448 1.415 . S
H6450 C6447 0.999 . S
H6451 C6432 0.913 . S
H6452 C6470 0.951 . S
H6453 C6472 0.951 . S
H6454 C6474 0.950 . S
H6455 C6475 0.950 . S
H6456 C6477 0.950 . S
H6457 C6480 0.950 . S
H6458 C6481 0.956 . S
H6459 C6483 0.950 . S
H6460 C6484 0.950 . S
H6461 C6485 0.951 . S
H6462 C6487 0.951 . S
H6463 C6489 0.950 . S
H6464 C6490 0.950 . S
H6465 C6492 0.950 . S
H6466 C6495 0.950 . S
H6467 C6496 0.950 . S
H6468 C6498 0.950 . S
H6469 C6499 0.950 . S
C6470 H6452 0.951 . S
C6470 C6471 1.366 . S
C6470 C6472 1.388 . S
C6471 C6470 1.366 . S
C6471 C6475 1.385 . S
C6472 H6453 0.951 . S
C6472 C6470 1.388 . S
C6472 C6473 1.366 . S
C6473 C6472 1.366 . S
C6473 C6474 1.414 . S
C6473 C6476 1.499 . S
C6474 H6454 0.950 . S
C6474 C6473 1.414 . S
C6474 C6475 1.374 . S
C6475 H6455 0.950 . S
C6475 C6471 1.385 . S
C6475 C6474 1.374 . S
C6476 C6473 1.499 . S
C6476 C6477 1.373 . S
C6476 C6478 1.389 . S
C6477 H6456 0.950 . S
C6477 C6476 1.373 . S
C6477 C6493 1.377 . S
C6478 C6476 1.389 . S
C6478 C6479 1.524 . S
C6478 C6492 1.377 . S
C6479 C6478 1.524 . S
C6479 C6480 1.397 . S
C6479 C6484 1.363 . S
C6480 H6457 0.950 . S
C6480 C6479 1.397 . S
C6480 C6481 1.290 1_554 S
C6481 H6458 0.956 . S
C6481 C6480 1.290 1_556 S
C6481 C6482 1.327 . S
C6482 C6481 1.327 . S
C6482 C6483 1.524 . S
C6482 H6501 0.913 . S
C6483 H6459 0.950 . S
C6483 C6482 1.524 . S
C6483 C6484 1.415 1_556 S
C6484 H6460 0.950 . S
C6484 C6479 1.363 . S
C6484 C6483 1.415 1_554 S
C6485 H6461 0.951 . S
C6485 C6486 1.366 . S
C6485 C6487 1.388 . S
C6486 C6485 1.366 . S
C6486 C6490 1.385 . S
C6487 H6462 0.951 . S
C6487 C6485 1.388 . S
C6487 C6488 1.366 . S
C6488 C6487 1.366 . S
C6488 C6489 1.414 . S
C6488 C6491 1.499 . S
C6489 H6463 0.950 . S
C6489 C6488 1.414 . S
C6489 C6490 1.374 . S
C6490 H6464 0.950 . S
C6490 C6486 1.385 . S
C6490 C6489 1.374 . S
C6491 C6488 1.499 . S
C6491 C6492 1.373 . S
C6491 C6493 1.389 . S
C6492 H6465 0.950 . S
C6492 C6478 1.377 . S
C6492 C6491 1.373 . S
C6493 C6477 1.377 . S
C6493 C6491 1.389 . S
C6493 C6494 1.524 . S
C6494 C6493 1.524 . S
C6494 C6495 1.397 . S
C6494 C6499 1.363 . S
C6495 H6466 0.950 . S
C6495 C6494 1.397 . S
C6495 C6496 1.334 . S
C6496 H6467 0.950 . S
C6496 C6495 1.334 . S
C6496 C6497 1.287 . S
C6497 C6496 1.287 . S
C6497 C6498 1.524 . S
C6497 H6500 0.999 . S
C6498 H6468 0.950 . S
C6498 C6497 1.524 . S
C6498 C6499 1.415 . S
C6499 H6469 0.950 . S
C6499 C6494 1.363 . S
C6499 C6498 1.415 . S
H6500 C6497 0.999 . S
H6501 C6482 0.913 . S
H6502 C6520 0.951 . S
H6503 C6522 0.951 . S
H6504 C6524 0.950 . S
H6505 C6525 0.950 . S
H6506 C6527 0.950 . S
H6507 C6530 0.950 . S
H6508 C6531 0.950 . S
H6509 C6533 0.950 . S
H6510 C6534 0.950 . S
H6511 C6535 0.951 . S
H6512 C6537 0.951 . S
H6513 C6539 0.950 . S
H6514 C6540 0.950 . S
H6515 C6542 0.950 . S
H6516 C6545 0.950 . S
H6517 C6546 0.950 . S
H6518 C6548 0.950 . S
H6519 C6549 0.950 . S
C6520 H6502 0.951 . S
C6520 C6521 1.366 . S
C6520 C6522 1.388 . S
C6521 C6520 1.366 . S
C6521 C6525 1.385 . S
C6522 H6503 0.951 . S
C6522 C6520 1.388 . S
C6522 C6523 1.366 . S
C6523 C6522 1.366 . S
C6523 C6524 1.414 . S
C6523 C6526 1.499 . S
C6524 H6504 0.950 . S
C6524 C6523 1.414 . S
C6524 C6525 1.374 . S
C6525 H6505 0.950 . S
C6525 C6521 1.385 . S
C6525 C6524 1.374 . S
C6526 C6523 1.499 . S
C6526 C6527 1.373 . S
C6526 C6528 1.389 . S
C6527 H6506 0.950 . S
C6527 C6526 1.373 . S
C6527 C6543 1.377 . S
C6528 C6526 1.389 . S
C6528 C6529 1.524 . S
C6528 C6542 1.377 . S
C6529 C6528 1.524 . S
C6529 C6530 1.397 . S
C6529 C6534 1.363 . S
C6530 H6507 0.950 . S
C6530 C6529 1.397 . S
C6530 C6531 1.334 . S
C6531 H6508 0.950 . S
C6531 C6530 1.334 . S
C6531 C6532 1.287 . S
C6532 C6531 1.287 . S
C6532 C6533 1.524 . S
C6532 H6551 0.913 . S
C6533 H6509 0.950 . S
C6533 C6532 1.524 . S
C6533 C6534 1.415 . S
C6534 H6510 0.950 . S
C6534 C6529 1.363 . S
C6534 C6533 1.415 . S
C6535 H6511 0.951 . S
C6535 C6536 1.366 . S
C6535 C6537 1.388 . S
C6536 C6535 1.366 . S
C6536 C6540 1.385 . S
C6537 H6512 0.951 . S
C6537 C6535 1.388 . S
C6537 C6538 1.366 . S
C6538 C6537 1.366 . S
C6538 C6539 1.414 . S
C6538 C6541 1.499 . S
C6539 H6513 0.950 . S
C6539 C6538 1.414 . S
C6539 C6540 1.374 . S
C6540 H6514 0.950 . S
C6540 C6536 1.385 . S
C6540 C6539 1.374 . S
C6541 C6538 1.499 . S
C6541 C6542 1.373 . S
C6541 C6543 1.389 . S
C6542 H6515 0.950 . S
C6542 C6528 1.377 . S
C6542 C6541 1.373 . S
C6543 C6527 1.377 . S
C6543 C6541 1.389 . S
C6543 C6544 1.524 . S
C6544 C6543 1.524 . S
C6544 C6545 1.397 . S
C6544 C6549 1.363 . S
C6545 H6516 0.950 . S
C6545 C6544 1.397 . S
C6545 C6546 1.334 . S
C6546 H6517 0.950 . S
C6546 C6545 1.334 . S
C6546 C6547 1.287 . S
C6547 C6546 1.287 . S
C6547 C6548 1.524 . S
C6547 H6550 0.999 . S
C6548 H6518 0.950 . S
C6548 C6547 1.524 . S
C6548 C6549 1.415 . S
C6549 H6519 0.950 . S
C6549 C6544 1.363 . S
C6549 C6548 1.415 . S
H6550 C6547 0.999 . S
H6551 C6532 0.913 . S
H6552 C6570 0.951 . S
H6553 C6572 0.951 . S
H6554 C6574 0.950 . S
H6555 C6575 0.950 . S
H6556 C6577 0.950 . S
H6557 C6580 0.950 . S
H6558 C6581 0.950 . S
H6559 C6583 0.950 . S
H6560 C6584 0.950 . S
H6561 C6585 0.951 . S
H6562 C6587 0.951 . S
H6563 C6589 0.950 . S
H6564 C6590 0.950 . S
H6565 C6592 0.950 . S
H6566 C6595 0.950 . S
H6567 C6596 0.950 . S
H6568 C6598 0.950 . S
H6569 C6599 0.950 . S
C6570 H6552 0.951 . S
C6570 C6571 1.366 . S
C6570 C6572 1.388 . S
C6571 C6570 1.366 . S
C6571 C6575 1.385 . S
C6572 H6553 0.951 . S
C6572 C6570 1.388 . S
C6572 C6573 1.366 . S
C6573 C6572 1.366 . S
C6573 C6574 1.414 . S
C6573 C6576 1.499 . S
C6574 H6554 0.950 . S
C6574 C6573 1.414 . S
C6574 C6575 1.374 . S
C6575 H6555 0.950 . S
C6575 C6571 1.385 . S
C6575 C6574 1.374 . S
C6576 C6573 1.499 . S
C6576 C6577 1.373 . S
C6576 C6578 1.389 . S
C6577 H6556 0.950 . S
C6577 C6576 1.373 . S
C6577 C6593 1.377 . S
C6578 C6576 1.389 . S
C6578 C6579 1.524 . S
C6578 C6592 1.377 . S
C6579 C6578 1.524 . S
C6579 C6580 1.397 . S
C6579 C6584 1.363 . S
C6580 H6557 0.950 . S
C6580 C6579 1.397 . S
C6580 C6581 1.334 . S
C6581 H6558 0.950 . S
C6581 C6580 1.334 . S
C6581 C6582 1.287 . S
C6582 C6581 1.287 . S
C6582 C6583 1.524 . S
C6582 H6601 0.913 . S
C6583 H6559 0.950 . S
C6583 C6582 1.524 . S
C6583 C6584 1.415 . S
C6584 H6560 0.950 . S
C6584 C6579 1.363 . S
C6584 C6583 1.415 . S
C6585 H6561 0.951 . S
C6585 C6586 1.366 . S
C6585 C6587 1.388 . S
C6586 C6585 1.366 . S
C6586 C6590 1.385 . S
C6587 H6562 0.951 . S
C6587 C6585 1.388 . S
C6587 C6588 1.366 . S
C6588 C6587 1.366 . S
C6588 C6589 1.414 . S
C6588 C6591 1.499 . S
C6589 H6563 0.950 . S
C6589 C6588 1.414 . S
C6589 C6590 1.374 . S
C6590 H6564 0.950 . S
C6590 C6586 1.385 . S
C6590 C6589 1.374 . S
C6591 C6588 1.499 . S
C6591 C6592 1.373 . S
C6591 C6593 1.389 . S
C6592 H6565 0.950 . S
C6592 C6578 1.377 . S
C6592 C6591 1.373 . S
C6593 C6577 1.377 . S
C6593 C6591 1.389 . S
C6593 C6594 1.524 . S
C6594 C6593 1.524 . S
C6594 C6595 1.397 . S
C6594 C6599 1.363 . S
C6595 H6566 0.950 . S
C6595 C6594 1.397 . S
C6595 C6596 1.334 . S
C6596 H6567 0.950 . S
C6596 C6595 1.334 . S
C6596 C6597 1.287 . S
C6597 C6596 1.287 . S
C6597 C6598 1.524 . S
C6597 H6600 0.999 . S
C6598 H6568 0.950 . S
C6598 C6597 1.524 . S
C6598 C6599 1.415 . S
C6599 H6569 0.950 . S
C6599 C6594 1.363 . S
C6599 C6598 1.415 . S
H6600 C6597 0.999 . S
H6601 C6582 0.913 . S
H6602 C6620 0.951 . S
H6603 C6622 0.951 . S
H6604 C6624 0.950 . S
H6605 C6625 0.950 . S
H6606 C6627 0.950 . S
H6607 C6630 0.950 . S
H6608 C6631 0.950 . S
H6609 C6633 0.950 . S
H6610 C6634 0.950 . S
H6611 C6635 0.951 . S
H6612 C6637 0.951 . S
H6613 C6639 0.950 . S
H6614 C6640 0.950 . S
H6615 C6642 0.950 . S
H6616 C6645 0.950 . S
H6617 C6646 0.950 . S
H6618 C6648 0.950 . S
H6619 C6649 0.950 . S
C6620 H6602 0.951 . S
C6620 C6621 1.366 . S
C6620 C6622 1.388 . S
C6621 C6620 1.366 . S
C6621 C6625 1.385 . S
C6622 H6603 0.951 . S
C6622 C6620 1.388 . S
C6622 C6623 1.366 . S
C6623 C6622 1.366 . S
C6623 C6624 1.414 . S
C6623 C6626 1.499 . S
C6624 H6604 0.950 . S
C6624 C6623 1.414 . S
C6624 C6625 1.374 . S
C6625 H6605 0.950 . S
C6625 C6621 1.385 . S
C6625 C6624 1.374 . S
C6626 C6623 1.499 . S
C6626 C6627 1.373 . S
C6626 C6628 1.389 . S
C6627 H6606 0.950 . S
C6627 C6626 1.373 . S
C6627 C6643 1.377 . S
C6628 C6626 1.389 . S
C6628 C6629 1.524 . S
C6628 C6642 1.377 . S
C6629 C6628 1.524 . S
C6629 C6630 1.397 . S
C6629 C6634 1.363 . S
C6630 H6607 0.950 . S
C6630 C6629 1.397 . S
C6630 C6631 1.334 . S
C6631 H6608 0.950 . S
C6631 C6630 1.334 . S
C6631 C6632 1.287 . S
C6632 C6631 1.287 . S
C6632 C6633 1.524 . S
C6632 H6651 0.913 . S
C6633 H6609 0.950 . S
C6633 C6632 1.524 . S
C6633 C6634 1.415 . S
C6634 H6610 0.950 . S
C6634 C6629 1.363 . S
C6634 C6633 1.415 . S
C6635 H6611 0.951 . S
C6635 C6636 1.366 . S
C6635 C6637 1.388 . S
C6636 C6635 1.366 . S
C6636 C6640 1.385 . S
C6637 H6612 0.951 . S
C6637 C6635 1.388 . S
C6637 C6638 1.366 . S
C6638 C6637 1.366 . S
C6638 C6639 1.414 . S
C6638 C6641 1.499 . S
C6639 H6613 0.950 . S
C6639 C6638 1.414 . S
C6639 C6640 1.374 . S
C6640 H6614 0.950 . S
C6640 C6636 1.385 . S
C6640 C6639 1.374 . S
C6641 C6638 1.499 . S
C6641 C6642 1.373 . S
C6641 C6643 1.389 . S
C6642 H6615 0.950 . S
C6642 C6628 1.377 . S
C6642 C6641 1.373 . S
C6643 C6627 1.377 . S
C6643 C6641 1.389 . S
C6643 C6644 1.524 . S
C6644 C6643 1.524 . S
C6644 C6645 1.397 . S
C6644 C6649 1.363 . S
C6645 H6616 0.950 . S
C6645 C6644 1.397 . S
C6645 C6646 1.334 . S
C6646 H6617 0.950 . S
C6646 C6645 1.334 . S
C6646 C6647 1.287 . S
C6647 C6646 1.287 . S
C6647 C6648 1.524 . S
C6647 H6650 0.999 . S
C6648 H6618 0.950 . S
C6648 C6647 1.524 . S
C6648 C6649 1.415 . S
C6649 H6619 0.950 . S
C6649 C6644 1.363 . S
C6649 C6648 1.415 . S
H6650 C6647 0.999 . S
H6651 C6632 0.913 . S
H6652 C6670 0.951 1_655 S
H6653 C6672 0.951 1_655 S
H6654 C6674 0.950 . S
H6655 C6675 0.950 . S
H6656 C6677 0.950 . S
H6657 C6680 0.950 . S
H6658 C6681 0.950 . S
H6659 C6683 0.950 . S
H6660 C6684 0.950 . S
H6661 C6685 0.951 . S
H6662 C6687 0.951 . S
H6663 C6689 0.950 . S
H6664 C6690 0.950 . S
H6665 C6692 0.950 1_655 S
H6666 C6695 0.950 . S
H6667 C6696 0.950 . S
H6668 C6698 0.950 . S
H6669 C6699 0.950 . S
C6670 H6652 0.951 1_455 S
C6670 C6671 1.366 . S
C6670 C6672 1.388 . S
C6671 C6670 1.366 . S
C6671 C6675 1.385 . S
C6672 H6653 0.951 1_455 S
C6672 C6670 1.388 . S
C6672 C6673 1.366 . S
C6673 C6672 1.366 . S
C6673 C6674 1.414 . S
C6673 C6676 1.499 . S
C6674 H6654 0.950 . S
C6674 C6673 1.414 . S
C6674 C6675 1.374 . S
C6675 H6655 0.950 . S
C6675 C6671 1.385 . S
C6675 C6674 1.374 . S
C6676 C6673 1.499 . S
C6676 C6677 1.373 . S
C6676 C6678 1.389 . S
C6677 H6656 0.950 . S
C6677 C6676 1.373 . S
C6677 C6693 1.377 . S
C6678 C6676 1.389 . S
C6678 C6679 1.524 1_455 S
C6678 C6692 1.377 . S
C6679 C6678 1.524 1_655 S
C6679 C6680 1.397 . S
C6679 C6684 1.363 . S
C6680 H6657 0.950 . S
C6680 C6679 1.397 . S
C6680 C6681 1.334 . S
C6681 H6658 0.950 . S
C6681 C6680 1.334 . S
C6681 C6682 1.287 . S
C6682 C6681 1.287 . S
C6682 C6683 1.524 . S
C6682 H6701 0.913 . S
C6683 H6659 0.950 . S
C6683 C6682 1.524 . S
C6683 C6684 1.415 . S
C6684 H6660 0.950 . S
C6684 C6679 1.363 . S
C6684 C6683 1.415 . S
C6685 H6661 0.951 . S
C6685 C6686 1.366 . S
C6685 C6687 1.388 . S
C6686 C6685 1.366 . S
C6686 C6690 1.385 . S
C6687 H6662 0.951 . S
C6687 C6685 1.388 . S
C6687 C6688 1.366 . S
C6688 C6687 1.366 . S
C6688 C6689 1.414 . S
C6688 C6691 1.499 . S
C6689 H6663 0.950 . S
C6689 C6688 1.414 . S
C6689 C6690 1.374 . S
C6690 H6664 0.950 . S
C6690 C6686 1.385 . S
C6690 C6689 1.374 . S
C6691 C6688 1.499 . S
C6691 C6692 1.373 . S
C6691 C6693 1.389 . S
C6692 H6665 0.950 1_455 S
C6692 C6678 1.377 . S
C6692 C6691 1.373 . S
C6693 C6677 1.377 . S
C6693 C6691 1.389 . S
C6693 C6694 1.524 . S
C6694 C6693 1.524 . S
C6694 C6695 1.397 . S
C6694 C6699 1.363 . S
C6695 H6666 0.950 . S
C6695 C6694 1.397 . S
C6695 C6696 1.334 . S
C6696 H6667 0.950 . S
C6696 C6695 1.334 . S
C6696 C6697 1.287 . S
C6697 C6696 1.287 . S
C6697 C6698 1.524 . S
C6697 H6700 0.999 . S
C6698 H6668 0.950 . S
C6698 C6697 1.524 . S
C6698 C6699 1.415 . S
C6699 H6669 0.950 . S
C6699 C6694 1.363 . S
C6699 C6698 1.415 . S
H6700 C6697 0.999 . S
H6701 C6682 0.913 . S
H6702 C6720 0.951 . S
H6703 C6722 0.951 . S
H6704 C6724 0.950 . S
H6705 C6725 0.950 . S
H6706 C6727 0.950 . S
H6707 C6730 0.950 . S
H6708 C6731 0.950 . S
H6709 C6733 0.950 . S
H6710 C6734 0.950 . S
H6711 C6735 0.951 . S
H6712 C6737 0.951 . S
H6713 C6739 0.950 . S
H6714 C6740 0.950 . S
H6715 C6742 0.950 . S
H6716 C6745 0.950 . S
H6717 C6746 0.950 . S
H6718 C6748 0.950 . S
H6719 C6749 0.950 . S
C6720 H6702 0.951 . S
C6720 C6721 1.366 . S
C6720 C6722 1.388 . S
C6721 C6720 1.366 . S
C6721 C6725 1.385 . S
C6722 H6703 0.951 . S
C6722 C6720 1.388 . S
C6722 C6723 1.366 . S
C6723 C6722 1.366 . S
C6723 C6724 1.414 . S
C6723 C6726 1.499 . S
C6724 H6704 0.950 . S
C6724 C6723 1.414 . S
C6724 C6725 1.374 . S
C6725 H6705 0.950 . S
C6725 C6721 1.385 . S
C6725 C6724 1.374 . S
C6726 C6723 1.499 . S
C6726 C6727 1.373 . S
C6726 C6728 1.389 . S
C6727 H6706 0.950 . S
C6727 C6726 1.373 . S
C6727 C6743 1.377 . S
C6728 C6726 1.389 . S
C6728 C6729 1.524 . S
C6728 C6742 1.377 . S
C6729 C6728 1.524 . S
C6729 C6730 1.397 . S
C6729 C6734 1.363 . S
C6730 H6707 0.950 . S
C6730 C6729 1.397 . S
C6730 C6731 1.334 . S
C6731 H6708 0.950 . S
C6731 C6730 1.334 . S
C6731 C6732 1.287 . S
C6732 C6731 1.287 . S
C6732 C6733 1.524 . S
C6732 H6751 0.913 . S
C6733 H6709 0.950 . S
C6733 C6732 1.524 . S
C6733 C6734 1.415 . S
C6734 H6710 0.950 . S
C6734 C6729 1.363 . S
C6734 C6733 1.415 . S
C6735 H6711 0.951 . S
C6735 C6736 1.366 . S
C6735 C6737 1.388 . S
C6736 C6735 1.366 . S
C6736 C6740 1.385 . S
C6737 H6712 0.951 . S
C6737 C6735 1.388 . S
C6737 C6738 1.366 . S
C6738 C6737 1.366 . S
C6738 C6739 1.414 . S
C6738 C6741 1.499 . S
C6739 H6713 0.950 . S
C6739 C6738 1.414 . S
C6739 C6740 1.374 . S
C6740 H6714 0.950 . S
C6740 C6736 1.385 . S
C6740 C6739 1.374 . S
C6741 C6738 1.499 . S
C6741 C6742 1.373 . S
C6741 C6743 1.389 . S
C6742 H6715 0.950 . S
C6742 C6728 1.377 . S
C6742 C6741 1.373 . S
C6743 C6727 1.377 . S
C6743 C6741 1.389 . S
C6743 C6744 1.524 . S
C6744 C6743 1.524 . S
C6744 C6745 1.397 . S
C6744 C6749 1.363 . S
C6745 H6716 0.950 . S
C6745 C6744 1.397 . S
C6745 C6746 1.334 . S
C6746 H6717 0.950 . S
C6746 C6745 1.334 . S
C6746 C6747 1.287 . S
C6747 C6746 1.287 . S
C6747 C6748 1.524 . S
C6747 H6750 0.999 . S
C6748 H6718 0.950 . S
C6748 C6747 1.524 . S
C6748 C6749 1.415 . S
C6749 H6719 0.950 . S
C6749 C6744 1.363 . S
C6749 C6748 1.415 . S
H6750 C6747 0.999 . S
H6751 C6732 0.913 . S
H6752 C6770 0.951 . S
H6753 C6772 0.951 . S
H6754 C6774 0.950 . S
H6755 C6775 0.950 . S
H6756 C6777 0.950 . S
H6757 C6780 0.950 . S
H6758 C6781 0.950 . S
H6759 C6783 0.950 . S
H6760 C6784 0.950 . S
H6761 C6785 0.951 . S
H6762 C6787 0.951 . S
H6763 C6789 0.950 . S
H6764 C6790 0.950 . S
H6765 C6792 0.950 . S
H6766 C6795 0.950 . S
H6767 C6796 0.950 . S
H6768 C6798 0.950 . S
H6769 C6799 0.950 . S
C6770 H6752 0.951 . S
C6770 C6771 1.366 . S
C6770 C6772 1.388 . S
C6771 C6770 1.366 . S
C6771 C6775 1.385 . S
C6772 H6753 0.951 . S
C6772 C6770 1.388 . S
C6772 C6773 1.366 . S
C6773 C6772 1.366 . S
C6773 C6774 1.414 . S
C6773 C6776 1.499 . S
C6774 H6754 0.950 . S
C6774 C6773 1.414 . S
C6774 C6775 1.374 . S
C6775 H6755 0.950 . S
C6775 C6771 1.385 . S
C6775 C6774 1.374 . S
C6776 C6773 1.499 . S
C6776 C6777 1.373 . S
C6776 C6778 1.389 . S
C6777 H6756 0.950 . S
C6777 C6776 1.373 . S
C6777 C6793 1.377 . S
C6778 C6776 1.389 . S
C6778 C6779 1.524 . S
C6778 C6792 1.377 . S
C6779 C6778 1.524 . S
C6779 C6780 1.397 . S
C6779 C6784 1.363 . S
C6780 H6757 0.950 . S
C6780 C6779 1.397 . S
C6780 C6781 1.334 . S
C6781 H6758 0.950 . S
C6781 C6780 1.334 . S
C6781 C6782 1.287 . S
C6782 C6781 1.287 . S
C6782 C6783 1.524 . S
C6782 H6801 0.913 . S
C6783 H6759 0.950 . S
C6783 C6782 1.524 . S
C6783 C6784 1.415 . S
C6784 H6760 0.950 . S
C6784 C6779 1.363 . S
C6784 C6783 1.415 . S
C6785 H6761 0.951 . S
C6785 C6786 1.366 . S
C6785 C6787 1.388 . S
C6786 C6785 1.366 . S
C6786 C6790 1.385 . S
C6787 H6762 0.951 . S
C6787 C6785 1.388 . S
C6787 C6788 1.366 . S
C6788 C6787 1.366 . S
C6788 C6789 1.414 . S
C6788 C6791 1.499 . S
C6789 H6763 0.950 . S
C6789 C6788 1.414 . S
C6789 C6790 1.374 . S
C6790 H6764 0.950 . S
C6790 C6786 1.385 . S
C6790 C6789 1.374 . S
C6791 C6788 1.499 . S
C6791 C6792 1.373 . S
C6791 C6793 1.389 . S
C6792 H6765 0.950 . S
C6792 C6778 1.377 . S
C6792 C6791 1.373 . S
C6793 C6777 1.377 . S
C6793 C6791 1.389 . S
C6793 C6794 1.524 . S
C6794 C6793 1.524 . S
C6794 C6795 1.397 . S
C6794 C6799 1.363 . S
C6795 H6766 0.950 . S
C6795 C6794 1.397 . S
C6795 C6796 1.334 . S
C6796 H6767 0.950 . S
C6796 C6795 1.334 . S
C6796 C6797 1.287 . S
C6797 C6796 1.287 . S
C6797 C6798 1.524 . S
C6797 H6800 0.999 . S
C6798 H6768 0.950 . S
C6798 C6797 1.524 . S
C6798 C6799 1.415 . S
C6799 H6769 0.950 . S
C6799 C6794 1.363 . S
C6799 C6798 1.415 . S
H6800 C6797 0.999 . S
H6801 C6782 0.913 . S
H6802 C6820 0.951 . S
H6803 C6822 0.951 . S
H6804 C6824 0.950 . S
H6805 C6825 0.950 . S
H6806 C6827 0.950 . S
H6807 C6830 0.950 . S
H6808 C6831 0.950 . S
H6809 C6833 0.950 . S
H6810 C6834 0.950 . S
H6811 C6835 0.951 . S
H6812 C6837 0.951 . S
H6813 C6839 0.950 . S
H6814 C6840 0.950 . S
H6815 C6842 0.950 . S
H6816 C6845 0.950 . S
H6817 C6846 0.950 . S
H6818 C6848 0.950 . S
H6819 C6849 0.950 . S
C6820 H6802 0.951 . S
C6820 C6821 1.366 . S
C6820 C6822 1.388 . S
C6821 C6820 1.366 . S
C6821 C6825 1.385 . S
C6822 H6803 0.951 . S
C6822 C6820 1.388 . S
C6822 C6823 1.366 . S
C6823 C6822 1.366 . S
C6823 C6824 1.414 . S
C6823 C6826 1.499 . S
C6824 H6804 0.950 . S
C6824 C6823 1.414 . S
C6824 C6825 1.374 . S
C6825 H6805 0.950 . S
C6825 C6821 1.385 . S
C6825 C6824 1.374 . S
C6826 C6823 1.499 . S
C6826 C6827 1.373 . S
C6826 C6828 1.389 . S
C6827 H6806 0.950 . S
C6827 C6826 1.373 . S
C6827 C6843 1.377 . S
C6828 C6826 1.389 . S
C6828 C6829 1.524 . S
C6828 C6842 1.377 . S
C6829 C6828 1.524 . S
C6829 C6830 1.397 . S
C6829 C6834 1.363 . S
C6830 H6807 0.950 . S
C6830 C6829 1.397 . S
C6830 C6831 1.334 . S
C6831 H6808 0.950 . S
C6831 C6830 1.334 . S
C6831 C6832 1.287 . S
C6832 C6831 1.287 . S
C6832 C6833 1.524 . S
C6832 H6851 0.913 . S
C6833 H6809 0.950 . S
C6833 C6832 1.524 . S
C6833 C6834 1.415 . S
C6834 H6810 0.950 . S
C6834 C6829 1.363 . S
C6834 C6833 1.415 . S
C6835 H6811 0.951 . S
C6835 C6836 1.366 . S
C6835 C6837 1.388 . S
C6836 C6835 1.366 . S
C6836 C6840 1.385 . S
C6837 H6812 0.951 . S
C6837 C6835 1.388 . S
C6837 C6838 1.366 . S
C6838 C6837 1.366 . S
C6838 C6839 1.414 . S
C6838 C6841 1.499 . S
C6839 H6813 0.950 . S
C6839 C6838 1.414 . S
C6839 C6840 1.374 . S
C6840 H6814 0.950 . S
C6840 C6836 1.385 . S
C6840 C6839 1.374 . S
C6841 C6838 1.499 . S
C6841 C6842 1.373 . S
C6841 C6843 1.389 . S
C6842 H6815 0.950 . S
C6842 C6828 1.377 . S
C6842 C6841 1.373 . S
C6843 C6827 1.377 . S
C6843 C6841 1.389 . S
C6843 C6844 1.524 . S
C6844 C6843 1.524 . S
C6844 C6845 1.397 . S
C6844 C6849 1.363 . S
C6845 H6816 0.950 . S
C6845 C6844 1.397 . S
C6845 C6846 1.334 . S
C6846 H6817 0.950 . S
C6846 C6845 1.334 . S
C6846 C6847 1.287 . S
C6847 C6846 1.287 . S
C6847 C6848 1.524 . S
C6847 H6850 0.999 . S
C6848 H6818 0.950 . S
C6848 C6847 1.524 . S
C6848 C6849 1.415 . S
C6849 H6819 0.950 . S
C6849 C6844 1.363 . S
C6849 C6848 1.415 . S
H6850 C6847 0.999 . S
H6851 C6832 0.913 . S
H6852 C6870 0.951 . S
H6853 C6872 0.951 . S
H6854 C6874 0.950 . S
H6855 C6875 0.950 . S
H6856 C6877 0.950 . S
H6857 C6880 0.950 . S
H6858 C6881 0.950 . S
H6859 C6883 0.950 . S
H6860 C6884 0.950 . S
H6861 C6885 0.951 . S
H6862 C6887 0.951 . S
H6863 C6889 0.950 . S
H6864 C6890 0.950 . S
H6865 C6892 0.950 . S
H6866 C6895 0.950 . S
H6867 C6896 0.950 . S
H6868 C6898 0.950 1_455 S
H6869 C6899 0.950 . S
C6870 H6852 0.951 . S
C6870 C6871 1.366 . S
C6870 C6872 1.388 . S
C6871 C6870 1.366 . S
C6871 C6875 1.385 . S
C6872 H6853 0.951 . S
C6872 C6870 1.388 . S
C6872 C6873 1.366 . S
C6873 C6872 1.366 . S
C6873 C6874 1.414 . S
C6873 C6876 1.499 . S
C6874 H6854 0.950 . S
C6874 C6873 1.414 . S
C6874 C6875 1.374 . S
C6875 H6855 0.950 . S
C6875 C6871 1.385 . S
C6875 C6874 1.374 . S
C6876 C6873 1.499 . S
C6876 C6877 1.373 . S
C6876 C6878 1.389 . S
C6877 H6856 0.950 . S
C6877 C6876 1.373 . S
C6877 C6893 1.377 . S
C6878 C6876 1.389 . S
C6878 C6879 1.524 . S
C6878 C6892 1.377 . S
C6879 C6878 1.524 . S
C6879 C6880 1.397 . S
C6879 C6884 1.363 . S
C6880 H6857 0.950 . S
C6880 C6879 1.397 . S
C6880 C6881 1.334 . S
C6881 H6858 0.950 . S
C6881 C6880 1.334 . S
C6881 C6882 1.287 . S
C6882 C6881 1.287 . S
C6882 C6883 1.524 . S
C6882 H6901 0.913 . S
C6883 H6859 0.950 . S
C6883 C6882 1.524 . S
C6883 C6884 1.415 . S
C6884 H6860 0.950 . S
C6884 C6879 1.363 . S
C6884 C6883 1.415 . S
C6885 H6861 0.951 . S
C6885 C6886 1.366 . S
C6885 C6887 1.388 . S
C6886 C6885 1.366 . S
C6886 C6890 1.385 1_455 S
C6887 H6862 0.951 . S
C6887 C6885 1.388 . S
C6887 C6888 1.366 1_455 S
C6888 C6887 1.366 1_655 S
C6888 C6889 1.414 . S
C6888 C6891 1.499 . S
C6889 H6863 0.950 . S
C6889 C6888 1.414 . S
C6889 C6890 1.374 . S
C6890 H6864 0.950 . S
C6890 C6886 1.385 1_655 S
C6890 C6889 1.374 . S
C6891 C6888 1.499 . S
C6891 C6892 1.373 . S
C6891 C6893 1.389 . S
C6892 H6865 0.950 . S
C6892 C6878 1.377 . S
C6892 C6891 1.373 . S
C6893 C6877 1.377 . S
C6893 C6891 1.389 . S
C6893 C6894 1.524 . S
C6894 C6893 1.524 . S
C6894 C6895 1.397 . S
C6894 C6899 1.363 . S
C6895 H6866 0.950 . S
C6895 C6894 1.397 . S
C6895 C6896 1.334 . S
C6896 H6867 0.950 . S
C6896 C6895 1.334 . S
C6896 C6897 1.287 . S
C6897 C6896 1.287 . S
C6897 C6898 1.524 . S
C6897 H6900 0.999 . S
C6898 H6868 0.950 1_655 S
C6898 C6897 1.524 . S
C6898 C6899 1.415 . S
C6899 H6869 0.950 . S
C6899 C6894 1.363 . S
C6899 C6898 1.415 . S
H6900 C6897 0.999 . S
H6901 C6882 0.913 . S
H6902 C6920 0.951 . S
H6903 C6922 0.951 . S
H6904 C6924 0.950 . S
H6905 C6925 0.950 . S
H6906 C6927 0.950 . S
H6907 C6930 0.950 . S
H6908 C6931 0.950 . S
H6909 C6933 0.950 . S
H6910 C6934 0.950 . S
H6911 C6935 0.951 . S
H6912 C6937 0.951 . S
H6913 C6939 0.950 . S
H6914 C6940 0.950 . S
H6915 C6942 0.950 . S
H6916 C6945 0.950 . S
H6917 C6946 0.950 . S
H6918 C6948 0.950 . S
H6919 C6949 0.950 . S
C6920 H6902 0.951 . S
C6920 C6921 1.366 . S
C6920 C6922 1.388 . S
C6921 C6920 1.366 . S
C6921 C6925 1.385 . S
C6922 H6903 0.951 . S
C6922 C6920 1.388 . S
C6922 C6923 1.366 . S
C6923 C6922 1.366 . S
C6923 C6924 1.414 . S
C6923 C6926 1.499 . S
C6924 H6904 0.950 . S
C6924 C6923 1.414 . S
C6924 C6925 1.374 . S
C6925 H6905 0.950 . S
C6925 C6921 1.385 . S
C6925 C6924 1.374 . S
C6926 C6923 1.499 . S
C6926 C6927 1.373 . S
C6926 C6928 1.389 . S
C6927 H6906 0.950 . S
C6927 C6926 1.373 . S
C6927 C6943 1.377 . S
C6928 C6926 1.389 . S
C6928 C6929 1.524 . S
C6928 C6942 1.377 . S
C6929 C6928 1.524 . S
C6929 C6930 1.397 . S
C6929 C6934 1.363 . S
C6930 H6907 0.950 . S
C6930 C6929 1.397 . S
C6930 C6931 1.334 . S
C6931 H6908 0.950 . S
C6931 C6930 1.334 . S
C6931 C6932 1.287 . S
C6932 C6931 1.287 . S
C6932 C6933 1.524 . S
C6932 H6951 0.913 . S
C6933 H6909 0.950 . S
C6933 C6932 1.524 . S
C6933 C6934 1.415 . S
C6934 H6910 0.950 . S
C6934 C6929 1.363 . S
C6934 C6933 1.415 . S
C6935 H6911 0.951 . S
C6935 C6936 1.366 . S
C6935 C6937 1.388 . S
C6936 C6935 1.366 . S
C6936 C6940 1.385 . S
C6937 H6912 0.951 . S
C6937 C6935 1.388 . S
C6937 C6938 1.366 . S
C6938 C6937 1.366 . S
C6938 C6939 1.414 . S
C6938 C6941 1.499 . S
C6939 H6913 0.950 . S
C6939 C6938 1.414 . S
C6939 C6940 1.374 . S
C6940 H6914 0.950 . S
C6940 C6936 1.385 . S
C6940 C6939 1.374 . S
C6941 C6938 1.499 . S
C6941 C6942 1.373 . S
C6941 C6943 1.389 . S
C6942 H6915 0.950 . S
C6942 C6928 1.377 . S
C6942 C6941 1.373 . S
C6943 C6927 1.377 . S
C6943 C6941 1.389 . S
C6943 C6944 1.524 . S
C6944 C6943 1.524 . S
C6944 C6945 1.397 . S
C6944 C6949 1.363 . S
C6945 H6916 0.950 . S
C6945 C6944 1.397 . S
C6945 C6946 1.334 . S
C6946 H6917 0.950 . S
C6946 C6945 1.334 . S
C6946 C6947 1.287 . S
C6947 C6946 1.287 . S
C6947 C6948 1.524 . S
C6947 H6950 0.999 . S
C6948 H6918 0.950 . S
C6948 C6947 1.524 . S
C6948 C6949 1.415 . S
C6949 H6919 0.950 . S
C6949 C6944 1.363 . S
C6949 C6948 1.415 . S
H6950 C6947 0.999 . S
H6951 C6932 0.913 . S
H6952 C6970 0.951 . S
H6953 C6972 0.951 . S
H6954 C6974 0.950 . S
H6955 C6975 0.950 . S
H6956 C6977 0.950 . S
H6957 C6980 0.950 . S
H6958 C6981 0.950 . S
H6959 C6983 0.950 . S
H6960 C6984 0.950 . S
H6961 C6985 0.951 . S
H6962 C6987 0.951 . S
H6963 C6989 0.950 . S
H6964 C6990 0.950 . S
H6965 C6992 0.950 . S
H6966 C6995 0.950 . S
H6967 C6996 0.950 . S
H6968 C6998 0.950 . S
H6969 C6999 0.950 . S
C6970 H6952 0.951 . S
C6970 C6971 1.366 . S
C6970 C6972 1.388 . S
C6971 C6970 1.366 . S
C6971 C6975 1.385 . S
C6972 H6953 0.951 . S
C6972 C6970 1.388 . S
C6972 C6973 1.366 . S
C6973 C6972 1.366 . S
C6973 C6974 1.414 . S
C6973 C6976 1.499 . S
C6974 H6954 0.950 . S
C6974 C6973 1.414 . S
C6974 C6975 1.374 . S
C6975 H6955 0.950 . S
C6975 C6971 1.385 . S
C6975 C6974 1.374 . S
C6976 C6973 1.499 . S
C6976 C6977 1.373 . S
C6976 C6978 1.389 . S
C6977 H6956 0.950 . S
C6977 C6976 1.373 . S
C6977 C6993 1.377 . S
C6978 C6976 1.389 . S
C6978 C6979 1.524 . S
C6978 C6992 1.377 . S
C6979 C6978 1.524 . S
C6979 C6980 1.397 . S
C6979 C6984 1.363 . S
C6980 H6957 0.950 . S
C6980 C6979 1.397 . S
C6980 C6981 1.334 . S
C6981 H6958 0.950 . S
C6981 C6980 1.334 . S
C6981 C6982 1.287 . S
C6982 C6981 1.287 . S
C6982 C6983 1.524 . S
C6982 H7001 0.913 . S
C6983 H6959 0.950 . S
C6983 C6982 1.524 . S
C6983 C6984 1.415 . S
C6984 H6960 0.950 . S
C6984 C6979 1.363 . S
C6984 C6983 1.415 . S
C6985 H6961 0.951 . S
C6985 C6986 1.366 . S
C6985 C6987 1.388 . S
C6986 C6985 1.366 . S
C6986 C6990 1.385 . S
C6987 H6962 0.951 . S
C6987 C6985 1.388 . S
C6987 C6988 1.366 . S
C6988 C6987 1.366 . S
C6988 C6989 1.414 . S
C6988 C6991 1.499 . S
C6989 H6963 0.950 . S
C6989 C6988 1.414 . S
C6989 C6990 1.374 . S
C6990 H6964 0.950 . S
C6990 C6986 1.385 . S
C6990 C6989 1.374 . S
C6991 C6988 1.499 . S
C6991 C6992 1.373 . S
C6991 C6993 1.389 . S
C6992 H6965 0.950 . S
C6992 C6978 1.377 . S
C6992 C6991 1.373 . S
C6993 C6977 1.377 . S
C6993 C6991 1.389 . S
C6993 C6994 1.524 . S
C6994 C6993 1.524 . S
C6994 C6995 1.397 . S
C6994 C6999 1.363 . S
C6995 H6966 0.950 . S
C6995 C6994 1.397 . S
C6995 C6996 1.334 . S
C6996 H6967 0.950 . S
C6996 C6995 1.334 . S
C6996 C6997 1.287 . S
C6997 C6996 1.287 . S
C6997 C6998 1.524 . S
C6997 H7000 0.999 . S
C6998 H6968 0.950 . S
C6998 C6997 1.524 . S
C6998 C6999 1.415 . S
C6999 H6969 0.950 . S
C6999 C6994 1.363 . S
C6999 C6998 1.415 . S
H7000 C6997 0.999 . S
H7001 C6982 0.913 . S
H7002 C7020 0.951 . S
H7003 C7022 0.951 . S
H7004 C7024 0.950 . S
H7005 C7025 0.950 . S
H7006 C7027 0.950 . S
H7007 C7030 0.950 . S
H7008 C7031 0.950 . S
H7009 C7033 0.950 . S
H7010 C7034 0.950 . S
H7011 C7035 0.951 . S
H7012 C7037 0.951 . S
H7013 C7039 0.950 . S
H7014 C7040 0.950 . S
H7015 C7042 0.950 . S
H7016 C7045 0.950 . S
H7017 C7046 0.950 . S
H7018 C7048 0.950 . S
H7019 C7049 0.950 . S
C7020 H7002 0.951 . S
C7020 C7021 1.366 . S
C7020 C7022 1.388 . S
C7021 C7020 1.366 . S
C7021 C7025 1.385 . S
C7022 H7003 0.951 . S
C7022 C7020 1.388 . S
C7022 C7023 1.366 . S
C7023 C7022 1.366 . S
C7023 C7024 1.414 . S
C7023 C7026 1.499 . S
C7024 H7004 0.950 . S
C7024 C7023 1.414 . S
C7024 C7025 1.374 . S
C7025 H7005 0.950 . S
C7025 C7021 1.385 . S
C7025 C7024 1.374 . S
C7026 C7023 1.499 . S
C7026 C7027 1.373 . S
C7026 C7028 1.389 . S
C7027 H7006 0.950 . S
C7027 C7026 1.373 . S
C7027 C7043 1.377 . S
C7028 C7026 1.389 . S
C7028 C7029 1.524 . S
C7028 C7042 1.377 . S
C7029 C7028 1.524 . S
C7029 C7030 1.397 . S
C7029 C7034 1.363 . S
C7030 H7007 0.950 . S
C7030 C7029 1.397 . S
C7030 C7031 1.334 . S
C7031 H7008 0.950 . S
C7031 C7030 1.334 . S
C7031 C7032 1.287 . S
C7032 C7031 1.287 . S
C7032 C7033 1.524 . S
C7032 H7051 0.913 . S
C7033 H7009 0.950 . S
C7033 C7032 1.524 . S
C7033 C7034 1.415 . S
C7034 H7010 0.950 . S
C7034 C7029 1.363 . S
C7034 C7033 1.415 . S
C7035 H7011 0.951 . S
C7035 C7036 1.366 . S
C7035 C7037 1.388 . S
C7036 C7035 1.366 . S
C7036 C7040 1.385 . S
C7037 H7012 0.951 . S
C7037 C7035 1.388 . S
C7037 C7038 1.366 . S
C7038 C7037 1.366 . S
C7038 C7039 1.414 . S
C7038 C7041 1.499 . S
C7039 H7013 0.950 . S
C7039 C7038 1.414 . S
C7039 C7040 1.374 . S
C7040 H7014 0.950 . S
C7040 C7036 1.385 . S
C7040 C7039 1.374 . S
C7041 C7038 1.499 . S
C7041 C7042 1.373 . S
C7041 C7043 1.389 . S
C7042 H7015 0.950 . S
C7042 C7028 1.377 . S
C7042 C7041 1.373 . S
C7043 C7027 1.377 . S
C7043 C7041 1.389 . S
C7043 C7044 1.524 . S
C7044 C7043 1.524 . S
C7044 C7045 1.397 . S
C7044 C7049 1.363 . S
C7045 H7016 0.950 . S
C7045 C7044 1.397 . S
C7045 C7046 1.334 . S
C7046 H7017 0.950 . S
C7046 C7045 1.334 . S
C7046 C7047 1.287 . S
C7047 C7046 1.287 . S
C7047 C7048 1.524 . S
C7047 H7050 0.999 . S
C7048 H7018 0.950 . S
C7048 C7047 1.524 . S
C7048 C7049 1.415 . S
C7049 H7019 0.950 . S
C7049 C7044 1.363 . S
C7049 C7048 1.415 . S
H7050 C7047 0.999 . S
H7051 C7032 0.913 . S
H7052 C7070 0.951 . S
H7053 C7072 0.951 . S
H7054 C7074 0.950 . S
H7055 C7075 0.950 . S
H7056 C7077 0.950 . S
H7057 C7080 0.950 . S
H7058 C7081 0.950 . S
H7059 C7083 0.950 . S
H7060 C7084 0.950 . S
H7061 C7085 0.951 . S
H7062 C7087 0.951 . S
H7063 C7089 0.950 . S
H7064 C7090 0.950 . S
H7065 C7092 0.950 . S
H7066 C7095 0.950 1_655 S
H7067 C7096 0.950 . S
H7068 C7098 0.950 . S
H7069 C7099 0.950 . S
C7070 H7052 0.951 . S
C7070 C7071 1.366 . S
C7070 C7072 1.388 . S
C7071 C7070 1.366 . S
C7071 C7075 1.385 . S
C7072 H7053 0.951 . S
C7072 C7070 1.388 . S
C7072 C7073 1.366 . S
C7073 C7072 1.366 . S
C7073 C7074 1.414 . S
C7073 C7076 1.499 . S
C7074 H7054 0.950 . S
C7074 C7073 1.414 . S
C7074 C7075 1.374 . S
C7075 H7055 0.950 . S
C7075 C7071 1.385 . S
C7075 C7074 1.374 . S
C7076 C7073 1.499 . S
C7076 C7077 1.373 . S
C7076 C7078 1.389 . S
C7077 H7056 0.950 . S
C7077 C7076 1.373 . S
C7077 C7093 1.377 . S
C7078 C7076 1.389 . S
C7078 C7079 1.524 . S
C7078 C7092 1.377 . S
C7079 C7078 1.524 . S
C7079 C7080 1.397 . S
C7079 C7084 1.363 . S
C7080 H7057 0.950 . S
C7080 C7079 1.397 . S
C7080 C7081 1.334 . S
C7081 H7058 0.950 . S
C7081 C7080 1.334 . S
C7081 C7082 1.287 . S
C7082 C7081 1.287 . S
C7082 C7083 1.524 . S
C7082 H7101 0.913 . S
C7083 H7059 0.950 . S
C7083 C7082 1.524 . S
C7083 C7084 1.415 . S
C7084 H7060 0.950 . S
C7084 C7079 1.363 . S
C7084 C7083 1.415 . S
C7085 H7061 0.951 . S
C7085 C7086 1.366 . S
C7085 C7087 1.388 . S
C7086 C7085 1.366 . S
C7086 C7090 1.385 1_455 S
C7087 H7062 0.951 . S
C7087 C7085 1.388 . S
C7087 C7088 1.366 1_455 S
C7088 C7087 1.366 1_655 S
C7088 C7089 1.414 . S
C7088 C7091 1.499 . S
C7089 H7063 0.950 . S
C7089 C7088 1.414 . S
C7089 C7090 1.374 . S
C7090 H7064 0.950 . S
C7090 C7086 1.385 1_655 S
C7090 C7089 1.374 . S
C7091 C7088 1.499 . S
C7091 C7092 1.373 . S
C7091 C7093 1.389 . S
C7092 H7065 0.950 . S
C7092 C7078 1.377 . S
C7092 C7091 1.373 . S
C7093 C7077 1.377 . S
C7093 C7091 1.389 . S
C7093 C7094 1.498 1_655 S
C7094 C7093 1.498 1_455 S
C7094 C7095 1.400 . S
C7094 C7099 1.384 . S
C7095 H7066 0.950 1_455 S
C7095 C7094 1.400 . S
C7095 C7096 1.334 . S
C7096 H7067 0.950 . S
C7096 C7095 1.334 . S
C7096 C7097 1.287 . S
C7097 C7096 1.287 . S
C7097 C7098 1.524 . S
C7097 H7100 0.999 . S
C7098 H7068 0.950 . S
C7098 C7097 1.524 . S
C7098 C7099 1.415 . S
C7099 H7069 0.950 . S
C7099 C7094 1.384 . S
C7099 C7098 1.415 . S
H7100 C7097 0.999 . S
H7101 C7082 0.913 . S
H7102 C7120 0.951 . S
H7103 C7122 0.951 . S
H7104 C7124 0.950 . S
H7105 C7125 0.950 . S
H7106 C7127 0.950 . S
H7107 C7130 0.950 . S
H7108 C7131 0.950 . S
H7109 C7133 0.950 . S
H7110 C7134 0.950 . S
H7111 C7135 0.951 . S
H7112 C7137 0.951 . S
H7113 C7139 0.950 . S
H7114 C7140 0.950 . S
H7115 C7142 0.950 . S
H7116 C7145 0.950 . S
H7117 C7146 0.950 . S
H7118 C7148 0.950 . S
H7119 C7149 0.950 . S
C7120 H7102 0.951 . S
C7120 C7121 1.366 . S
C7120 C7122 1.388 . S
C7121 C7120 1.366 . S
C7121 C7125 1.385 . S
C7122 H7103 0.951 . S
C7122 C7120 1.388 . S
C7122 C7123 1.366 . S
C7123 C7122 1.366 . S
C7123 C7124 1.414 . S
C7123 C7126 1.499 . S
C7124 H7104 0.950 . S
C7124 C7123 1.414 . S
C7124 C7125 1.374 . S
C7125 H7105 0.950 . S
C7125 C7121 1.385 . S
C7125 C7124 1.374 . S
C7126 C7123 1.499 . S
C7126 C7127 1.373 . S
C7126 C7128 1.389 . S
C7127 H7106 0.950 . S
C7127 C7126 1.373 . S
C7127 C7143 1.377 . S
C7128 C7126 1.389 . S
C7128 C7129 1.524 . S
C7128 C7142 1.377 . S
C7129 C7128 1.524 . S
C7129 C7130 1.397 . S
C7129 C7134 1.363 . S
C7130 H7107 0.950 . S
C7130 C7129 1.397 . S
C7130 C7131 1.334 . S
C7131 H7108 0.950 . S
C7131 C7130 1.334 . S
C7131 C7132 1.287 . S
C7132 C7131 1.287 . S
C7132 C7133 1.524 . S
C7132 H7151 0.913 . S
C7133 H7109 0.950 . S
C7133 C7132 1.524 . S
C7133 C7134 1.415 . S
C7134 H7110 0.950 . S
C7134 C7129 1.363 . S
C7134 C7133 1.415 . S
C7135 H7111 0.951 . S
C7135 C7136 1.366 . S
C7135 C7137 1.388 . S
C7136 C7135 1.366 . S
C7136 C7140 1.385 . S
C7137 H7112 0.951 . S
C7137 C7135 1.388 . S
C7137 C7138 1.366 . S
C7138 C7137 1.366 . S
C7138 C7139 1.414 . S
C7138 C7141 1.499 . S
C7139 H7113 0.950 . S
C7139 C7138 1.414 . S
C7139 C7140 1.374 . S
C7140 H7114 0.950 . S
C7140 C7136 1.385 . S
C7140 C7139 1.374 . S
C7141 C7138 1.499 . S
C7141 C7142 1.373 . S
C7141 C7143 1.389 . S
C7142 H7115 0.950 . S
C7142 C7128 1.377 . S
C7142 C7141 1.373 . S
C7143 C7127 1.377 . S
C7143 C7141 1.389 . S
C7143 C7144 1.524 . S
C7144 C7143 1.524 . S
C7144 C7145 1.397 . S
C7144 C7149 1.363 . S
C7145 H7116 0.950 . S
C7145 C7144 1.397 . S
C7145 C7146 1.334 . S
C7146 H7117 0.950 . S
C7146 C7145 1.334 . S
C7146 C7147 1.287 . S
C7147 C7146 1.287 . S
C7147 C7148 1.524 . S
C7147 H7150 0.999 . S
C7148 H7118 0.950 . S
C7148 C7147 1.524 . S
C7148 C7149 1.415 . S
C7149 H7119 0.950 . S
C7149 C7144 1.363 . S
C7149 C7148 1.415 . S
H7150 C7147 0.999 . S
H7151 C7132 0.913 . S
H7152 C7170 0.951 . S
H7153 C7172 0.951 . S
H7154 C7174 0.950 . S
H7155 C7175 0.950 . S
H7156 C7177 0.950 . S
H7157 C7180 0.950 . S
H7158 C7181 0.950 . S
H7159 C7183 0.950 . S
H7160 C7184 0.950 . S
H7161 C7185 0.951 . S
H7162 C7187 0.951 . S
H7163 C7189 0.950 . S
H7164 C7190 0.950 . S
H7165 C7192 0.950 . S
H7166 C7195 0.950 . S
H7167 C7196 0.950 . S
H7168 C7198 0.950 . S
H7169 C7199 0.950 . S
C7170 H7152 0.951 . S
C7170 C7171 1.366 . S
C7170 C7172 1.388 . S
C7171 C7170 1.366 . S
C7171 C7175 1.385 . S
C7172 H7153 0.951 . S
C7172 C7170 1.388 . S
C7172 C7173 1.366 . S
C7173 C7172 1.366 . S
C7173 C7174 1.414 . S
C7173 C7176 1.499 . S
C7174 H7154 0.950 . S
C7174 C7173 1.414 . S
C7174 C7175 1.374 . S
C7175 H7155 0.950 . S
C7175 C7171 1.385 . S
C7175 C7174 1.374 . S
C7176 C7173 1.499 . S
C7176 C7177 1.373 . S
C7176 C7178 1.389 . S
C7177 H7156 0.950 . S
C7177 C7176 1.373 . S
C7177 C7193 1.377 . S
C7178 C7176 1.389 . S
C7178 C7179 1.524 . S
C7178 C7192 1.377 . S
C7179 C7178 1.524 . S
C7179 C7180 1.397 . S
C7179 C7184 1.363 . S
C7180 H7157 0.950 . S
C7180 C7179 1.397 . S
C7180 C7181 1.334 . S
C7181 H7158 0.950 . S
C7181 C7180 1.334 . S
C7181 C7182 1.287 . S
C7182 C7181 1.287 . S
C7182 C7183 1.524 . S
C7182 H7201 0.913 . S
C7183 H7159 0.950 . S
C7183 C7182 1.524 . S
C7183 C7184 1.415 . S
C7184 H7160 0.950 . S
C7184 C7179 1.363 . S
C7184 C7183 1.415 . S
C7185 H7161 0.951 . S
C7185 C7186 1.366 . S
C7185 C7187 1.388 . S
C7186 C7185 1.366 . S
C7186 C7190 1.385 . S
C7187 H7162 0.951 . S
C7187 C7185 1.388 . S
C7187 C7188 1.366 . S
C7188 C7187 1.366 . S
C7188 C7189 1.414 . S
C7188 C7191 1.499 . S
C7189 H7163 0.950 . S
C7189 C7188 1.414 . S
C7189 C7190 1.374 . S
C7190 H7164 0.950 . S
C7190 C7186 1.385 . S
C7190 C7189 1.374 . S
C7191 C7188 1.499 . S
C7191 C7192 1.373 . S
C7191 C7193 1.389 . S
C7192 H7165 0.950 . S
C7192 C7178 1.377 . S
C7192 C7191 1.373 . S
C7193 C7177 1.377 . S
C7193 C7191 1.389 . S
C7193 C7194 1.524 . S
C7194 C7193 1.524 . S
C7194 C7195 1.397 . S
C7194 C7199 1.363 . S
C7195 H7166 0.950 . S
C7195 C7194 1.397 . S
C7195 C7196 1.334 . S
C7196 H7167 0.950 . S
C7196 C7195 1.334 . S
C7196 C7197 1.287 . S
C7197 C7196 1.287 . S
C7197 C7198 1.524 . S
C7197 H7200 0.999 . S
C7198 H7168 0.950 . S
C7198 C7197 1.524 . S
C7198 C7199 1.415 . S
C7199 H7169 0.950 . S
C7199 C7194 1.363 . S
C7199 C7198 1.415 . S
H7200 C7197 0.999 . S
H7201 C7182 0.913 . S
H7202 C7220 0.951 . S
H7203 C7222 0.951 . S
H7204 C7224 0.950 . S
H7205 C7225 0.950 . S
H7206 C7227 0.950 . S
H7207 C7230 0.950 . S
H7208 C7231 0.950 . S
H7209 C7233 0.950 . S
H7210 C7234 0.950 . S
H7211 C7235 0.951 . S
H7212 C7237 0.951 . S
H7213 C7239 0.950 . S
H7214 C7240 0.950 . S
H7215 C7242 0.950 . S
H7216 C7245 0.950 . S
H7217 C7246 0.950 . S
H7218 C7248 0.950 . S
H7219 C7249 0.950 . S
C7220 H7202 0.951 . S
C7220 C7221 1.366 . S
C7220 C7222 1.388 . S
C7221 C7220 1.366 . S
C7221 C7225 1.385 . S
C7222 H7203 0.951 . S
C7222 C7220 1.388 . S
C7222 C7223 1.366 . S
C7223 C7222 1.366 . S
C7223 C7224 1.414 . S
C7223 C7226 1.499 . S
C7224 H7204 0.950 . S
C7224 C7223 1.414 . S
C7224 C7225 1.374 . S
C7225 H7205 0.950 . S
C7225 C7221 1.385 . S
C7225 C7224 1.374 . S
C7226 C7223 1.499 . S
C7226 C7227 1.373 . S
C7226 C7228 1.389 . S
C7227 H7206 0.950 . S
C7227 C7226 1.373 . S
C7227 C7243 1.377 . S
C7228 C7226 1.389 . S
C7228 C7229 1.524 . S
C7228 C7242 1.377 . S
C7229 C7228 1.524 . S
C7229 C7230 1.397 . S
C7229 C7234 1.363 . S
C7230 H7207 0.950 . S
C7230 C7229 1.397 . S
C7230 C7231 1.334 . S
C7231 H7208 0.950 . S
C7231 C7230 1.334 . S
C7231 C7232 1.287 . S
C7232 C7231 1.287 . S
C7232 C7233 1.524 . S
C7232 H7251 0.913 . S
C7233 H7209 0.950 . S
C7233 C7232 1.524 . S
C7233 C7234 1.415 . S
C7234 H7210 0.950 . S
C7234 C7229 1.363 . S
C7234 C7233 1.415 . S
C7235 H7211 0.951 . S
C7235 C7236 1.366 . S
C7235 C7237 1.388 . S
C7236 C7235 1.366 . S
C7236 C7240 1.385 . S
C7237 H7212 0.951 . S
C7237 C7235 1.388 . S
C7237 C7238 1.366 . S
C7238 C7237 1.366 . S
C7238 C7239 1.414 . S
C7238 C7241 1.499 . S
C7239 H7213 0.950 . S
C7239 C7238 1.414 . S
C7239 C7240 1.374 . S
C7240 H7214 0.950 . S
C7240 C7236 1.385 . S
C7240 C7239 1.374 . S
C7241 C7238 1.499 . S
C7241 C7242 1.373 . S
C7241 C7243 1.389 . S
C7242 H7215 0.950 . S
C7242 C7228 1.377 . S
C7242 C7241 1.373 . S
C7243 C7227 1.377 . S
C7243 C7241 1.389 . S
C7243 C7244 1.524 . S
C7244 C7243 1.524 . S
C7244 C7245 1.397 . S
C7244 C7249 1.363 . S
C7245 H7216 0.950 . S
C7245 C7244 1.397 . S
C7245 C7246 1.334 1_565 S
C7246 H7217 0.950 . S
C7246 C7245 1.334 1_545 S
C7246 C7247 1.287 . S
C7247 C7246 1.287 . S
C7247 C7248 1.524 . S
C7247 H7250 0.999 . S
C7248 H7218 0.950 . S
C7248 C7247 1.524 . S
C7248 C7249 1.415 1_545 S
C7249 H7219 0.950 . S
C7249 C7244 1.363 . S
C7249 C7248 1.415 1_565 S
H7250 C7247 0.999 . S
H7251 C7232 0.913 . S
H7252 C7270 0.951 . S
H7253 C7272 0.951 . S
H7254 C7274 0.950 . S
H7255 C7275 0.950 . S
H7256 C7277 0.950 . S
H7257 C7280 0.950 . S
H7258 C7281 0.950 . S
H7259 C7283 0.950 . S
H7260 C7284 0.950 . S
H7261 C7285 0.951 . S
H7262 C7287 0.951 . S
H7263 C7289 0.950 . S
H7264 C7290 0.950 . S
H7265 C7292 0.950 . S
H7266 C7295 0.950 . S
H7267 C7296 0.950 . S
H7268 C7298 0.950 . S
H7269 C7299 0.950 . S
C7270 H7252 0.951 . S
C7270 C7271 1.366 . S
C7270 C7272 1.388 . S
C7271 C7270 1.366 . S
C7271 C7275 1.385 . S
C7272 H7253 0.951 . S
C7272 C7270 1.388 . S
C7272 C7273 1.366 . S
C7273 C7272 1.366 . S
C7273 C7274 1.414 . S
C7273 C7276 1.499 . S
C7274 H7254 0.950 . S
C7274 C7273 1.414 . S
C7274 C7275 1.374 . S
C7275 H7255 0.950 . S
C7275 C7271 1.385 . S
C7275 C7274 1.374 . S
C7276 C7273 1.499 . S
C7276 C7277 1.373 . S
C7276 C7278 1.389 . S
C7277 H7256 0.950 . S
C7277 C7276 1.373 . S
C7277 C7293 1.377 . S
C7278 C7276 1.389 . S
C7278 C7279 1.524 . S
C7278 C7292 1.377 . S
C7279 C7278 1.524 . S
C7279 C7280 1.397 . S
C7279 C7284 1.363 . S
C7280 H7257 0.950 . S
C7280 C7279 1.397 . S
C7280 C7281 1.334 . S
C7281 H7258 0.950 . S
C7281 C7280 1.334 . S
C7281 C7282 1.287 . S
C7282 C7281 1.287 . S
C7282 C7283 1.524 . S
C7282 H7301 0.913 . S
C7283 H7259 0.950 . S
C7283 C7282 1.524 . S
C7283 C7284 1.415 . S
C7284 H7260 0.950 . S
C7284 C7279 1.363 . S
C7284 C7283 1.415 . S
C7285 H7261 0.951 . S
C7285 C7286 1.366 . S
C7285 C7287 1.388 . S
C7286 C7285 1.366 . S
C7286 C7290 1.385 . S
C7287 H7262 0.951 . S
C7287 C7285 1.388 . S
C7287 C7288 1.366 . S
C7288 C7287 1.366 . S
C7288 C7289 1.414 . S
C7288 C7291 1.499 . S
C7289 H7263 0.950 . S
C7289 C7288 1.414 . S
C7289 C7290 1.374 . S
C7290 H7264 0.950 . S
C7290 C7286 1.385 . S
C7290 C7289 1.374 . S
C7291 C7288 1.499 . S
C7291 C7292 1.373 . S
C7291 C7293 1.389 . S
C7292 H7265 0.950 . S
C7292 C7278 1.377 . S
C7292 C7291 1.373 . S
C7293 C7277 1.377 . S
C7293 C7291 1.389 . S
C7293 C7294 1.524 . S
C7294 C7293 1.524 . S
C7294 C7295 1.397 . S
C7294 C7299 1.363 . S
C7295 H7266 0.950 . S
C7295 C7294 1.397 . S
C7295 C7296 1.334 . S
C7296 H7267 0.950 . S
C7296 C7295 1.334 . S
C7296 C7297 1.287 . S
C7297 C7296 1.287 . S
C7297 C7298 1.524 . S
C7297 H7300 0.999 . S
C7298 H7268 0.950 . S
C7298 C7297 1.524 . S
C7298 C7299 1.415 . S
C7299 H7269 0.950 . S
C7299 C7294 1.363 . S
C7299 C7298 1.415 . S
H7300 C7297 0.999 . S
H7301 C7282 0.913 . S
H7302 C7320 0.951 . S
H7303 C7322 0.951 . S
H7304 C7324 0.950 . S
H7305 C7325 0.950 . S
H7306 C7327 0.950 1_556 S
H7307 C7330 0.950 . S
H7308 C7331 0.950 . S
H7309 C7333 0.950 . S
H7310 C7334 0.950 . S
H7311 C7335 0.951 . S
H7312 C7337 0.951 . S
H7313 C7339 0.950 . S
H7314 C7340 0.950 . S
H7315 C7342 0.950 . S
H7316 C7345 0.950 . S
H7317 C7346 0.950 . S
H7318 C7348 0.950 . S
H7319 C7349 0.950 . S
C7320 H7302 0.951 . S
C7320 C7321 1.366 . S
C7320 C7322 1.388 . S
C7321 C7320 1.366 . S
C7321 C7325 1.385 . S
C7322 H7303 0.951 . S
C7322 C7320 1.388 . S
C7322 C7323 1.366 . S
C7323 C7322 1.366 . S
C7323 C7324 1.414 . S
C7323 C7326 1.499 . S
C7324 H7304 0.950 . S
C7324 C7323 1.414 . S
C7324 C7325 1.374 . S
C7325 H7305 0.950 . S
C7325 C7321 1.385 . S
C7325 C7324 1.374 . S
C7326 C7323 1.499 . S
C7326 C7327 1.373 . S
C7326 C7328 1.389 . S
C7327 H7306 0.950 1_554 S
C7327 C7326 1.373 . S
C7327 C7343 1.377 . S
C7328 C7326 1.389 . S
C7328 C7329 1.524 . S
C7328 C7342 1.377 . S
C7329 C7328 1.524 . S
C7329 C7330 1.397 . S
C7329 C7334 1.363 . S
C7330 H7307 0.950 . S
C7330 C7329 1.397 . S
C7330 C7331 1.334 . S
C7331 H7308 0.950 . S
C7331 C7330 1.334 . S
C7331 C7332 1.287 . S
C7332 C7331 1.287 . S
C7332 C7333 1.524 . S
C7332 H7351 0.913 . S
C7333 H7309 0.950 . S
C7333 C7332 1.524 . S
C7333 C7334 1.415 . S
C7334 H7310 0.950 . S
C7334 C7329 1.363 . S
C7334 C7333 1.415 . S
C7335 H7311 0.951 . S
C7335 C7336 1.366 . S
C7335 C7337 1.388 . S
C7336 C7335 1.366 . S
C7336 C7340 1.385 . S
C7337 H7312 0.951 . S
C7337 C7335 1.388 . S
C7337 C7338 1.366 . S
C7338 C7337 1.366 . S
C7338 C7339 1.414 . S
C7338 C7341 1.499 . S
C7339 H7313 0.950 . S
C7339 C7338 1.414 . S
C7339 C7340 1.374 . S
C7340 H7314 0.950 . S
C7340 C7336 1.385 . S
C7340 C7339 1.374 . S
C7341 C7338 1.499 . S
C7341 C7342 1.373 . S
C7341 C7343 1.389 . S
C7342 H7315 0.950 . S
C7342 C7328 1.377 . S
C7342 C7341 1.373 . S
C7343 C7327 1.377 . S
C7343 C7341 1.389 . S
C7343 C7344 1.524 1_554 S
C7344 C7343 1.524 1_556 S
C7344 C7345 1.397 . S
C7344 C7349 1.363 . S
C7345 H7316 0.950 . S
C7345 C7344 1.397 . S
C7345 C7346 1.334 . S
C7346 H7317 0.950 . S
C7346 C7345 1.334 . S
C7346 C7347 1.287 . S
C7347 C7346 1.287 . S
C7347 C7348 1.524 . S
C7347 H7350 0.999 . S
C7348 H7318 0.950 . S
C7348 C7347 1.524 . S
C7348 C7349 1.415 . S
C7349 H7319 0.950 . S
C7349 C7344 1.363 . S
C7349 C7348 1.415 . S
H7350 C7347 0.999 . S
H7351 C7332 0.913 . S
H7352 C7370 0.951 . S
H7353 C7372 0.951 . S
H7354 C7374 0.950 . S
H7355 C7375 0.950 . S
H7356 C7377 0.950 . S
H7357 C7380 0.950 . S
H7358 C7381 0.950 . S
H7359 C7383 0.950 . S
H7360 C7384 0.950 . S
H7361 C7385 0.951 . S
H7362 C7387 0.951 . S
H7363 C7389 0.950 . S
H7364 C7390 0.950 . S
H7365 C7392 0.950 . S
H7366 C7395 0.950 . S
H7367 C7396 0.950 . S
H7368 C7398 0.950 . S
H7369 C7399 0.950 . S
C7370 H7352 0.951 . S
C7370 C7371 1.366 . S
C7370 C7372 1.388 . S
C7371 C7370 1.366 . S
C7371 C7375 1.385 . S
C7372 H7353 0.951 . S
C7372 C7370 1.388 . S
C7372 C7373 1.366 . S
C7373 C7372 1.366 . S
C7373 C7374 1.414 . S
C7373 C7376 1.499 . S
C7374 H7354 0.950 . S
C7374 C7373 1.414 . S
C7374 C7375 1.374 . S
C7375 H7355 0.950 . S
C7375 C7371 1.385 . S
C7375 C7374 1.374 . S
C7376 C7373 1.499 . S
C7376 C7377 1.373 . S
C7376 C7378 1.389 . S
C7377 H7356 0.950 . S
C7377 C7376 1.373 . S
C7377 C7393 1.377 . S
C7378 C7376 1.389 . S
C7378 C7379 1.524 . S
C7378 C7392 1.377 . S
C7379 C7378 1.524 . S
C7379 C7380 1.397 . S
C7379 C7384 1.363 . S
C7380 H7357 0.950 . S
C7380 C7379 1.397 . S
C7380 C7381 1.334 . S
C7381 H7358 0.950 . S
C7381 C7380 1.334 . S
C7381 C7382 1.287 . S
C7382 C7381 1.287 . S
C7382 C7383 1.524 . S
C7382 H7401 0.913 . S
C7383 H7359 0.950 . S
C7383 C7382 1.524 . S
C7383 C7384 1.415 . S
C7384 H7360 0.950 . S
C7384 C7379 1.363 . S
C7384 C7383 1.415 . S
C7385 H7361 0.951 . S
C7385 C7386 1.366 . S
C7385 C7387 1.388 . S
C7386 C7385 1.366 . S
C7386 C7390 1.385 . S
C7387 H7362 0.951 . S
C7387 C7385 1.388 . S
C7387 C7388 1.366 . S
C7388 C7387 1.366 . S
C7388 C7389 1.414 . S
C7388 C7391 1.499 . S
C7389 H7363 0.950 . S
C7389 C7388 1.414 . S
C7389 C7390 1.374 . S
C7390 H7364 0.950 . S
C7390 C7386 1.385 . S
C7390 C7389 1.374 . S
C7391 C7388 1.499 . S
C7391 C7392 1.373 . S
C7391 C7393 1.389 . S
C7392 H7365 0.950 . S
C7392 C7378 1.377 . S
C7392 C7391 1.373 . S
C7393 C7377 1.377 . S
C7393 C7391 1.389 . S
C7393 C7394 1.524 . S
C7394 C7393 1.524 . S
C7394 C7395 1.397 . S
C7394 C7399 1.363 . S
C7395 H7366 0.950 . S
C7395 C7394 1.397 . S
C7395 C7396 1.334 . S
C7396 H7367 0.950 . S
C7396 C7395 1.334 . S
C7396 C7397 1.287 . S
C7397 C7396 1.287 . S
C7397 C7398 1.524 . S
C7397 H7400 0.999 . S
C7398 H7368 0.950 . S
C7398 C7397 1.524 . S
C7398 C7399 1.415 . S
C7399 H7369 0.950 . S
C7399 C7394 1.363 . S
C7399 C7398 1.415 . S
H7400 C7397 0.999 . S
H7401 C7382 0.913 . S
H7402 C7420 0.951 . S
H7403 C7422 0.951 . S
H7404 C7424 0.921 1_556 S
H7405 C7425 0.950 1_556 S
H7406 C7427 0.950 . S
H7407 C7430 0.950 . S
H7408 C7431 0.950 . S
H7409 C7433 0.950 . S
H7410 C7434 0.950 . S
H7411 C7435 0.951 . S
H7412 C7437 0.951 . S
H7413 C7439 0.950 . S
H7414 C7440 0.950 . S
H7415 C7442 0.950 . S
H7416 C7445 0.950 . S
H7417 C7446 0.950 . S
H7418 C7448 0.950 . S
H7419 C7449 0.950 . S
C7420 H7402 0.951 . S
C7420 C7421 1.366 . S
C7420 C7422 1.388 . S
C7421 C7420 1.366 . S
C7421 C7425 1.385 . S
C7422 H7403 0.951 . S
C7422 C7420 1.388 . S
C7422 C7423 1.366 . S
C7423 C7422 1.366 . S
C7423 C7424 1.442 . S
C7423 C7426 1.499 . S
C7424 H7404 0.921 1_554 S
C7424 C7423 1.442 . S
C7424 C7425 1.380 . S
C7425 H7405 0.950 1_554 S
C7425 C7421 1.385 . S
C7425 C7424 1.380 . S
C7426 C7423 1.499 . S
C7426 C7427 1.373 1_554 S
C7426 C7428 1.389 . S
C7427 H7406 0.950 . S
C7427 C7426 1.373 1_556 S
C7427 C7443 1.377 . S
C7428 C7426 1.389 . S
C7428 C7429 1.524 . S
C7428 C7442 1.377 . S
C7429 C7428 1.524 . S
C7429 C7430 1.397 . S
C7429 C7434 1.363 . S
C7430 H7407 0.950 . S
C7430 C7429 1.397 . S
C7430 C7431 1.334 . S
C7431 H7408 0.950 . S
C7431 C7430 1.334 . S
C7431 C7432 1.287 . S
C7432 C7431 1.287 . S
C7432 C7433 1.524 . S
C7432 H7451 0.913 . S
C7433 H7409 0.950 . S
C7433 C7432 1.524 . S
C7433 C7434 1.415 . S
C7434 H7410 0.950 . S
C7434 C7429 1.363 . S
C7434 C7433 1.415 . S
C7435 H7411 0.951 . S
C7435 C7436 1.366 . S
C7435 C7437 1.388 . S
C7436 C7435 1.366 . S
C7436 C7440 1.385 1_556 S
C7437 H7412 0.951 . S
C7437 C7435 1.388 . S
C7437 C7438 1.366 . S
C7438 C7437 1.366 . S
C7438 C7439 1.414 1_556 S
C7438 C7441 1.499 1_556 S
C7439 H7413 0.950 . S
C7439 C7438 1.414 1_554 S
C7439 C7440 1.374 . S
C7440 H7414 0.950 . S
C7440 C7436 1.385 1_554 S
C7440 C7439 1.374 . S
C7441 C7438 1.499 1_554 S
C7441 C7442 1.373 . S
C7441 C7443 1.389 1_554 S
C7442 H7415 0.950 . S
C7442 C7428 1.377 . S
C7442 C7441 1.373 . S
C7443 C7427 1.377 . S
C7443 C7441 1.389 1_556 S
C7443 C7444 1.524 . S
C7444 C7443 1.524 . S
C7444 C7445 1.397 . S
C7444 C7449 1.363 . S
C7445 H7416 0.950 . S
C7445 C7444 1.397 . S
C7445 C7446 1.334 . S
C7446 H7417 0.950 . S
C7446 C7445 1.334 . S
C7446 C7447 1.287 . S
C7447 C7446 1.287 . S
C7447 C7448 1.524 . S
C7447 H7450 0.999 . S
C7448 H7418 0.950 . S
C7448 C7447 1.524 . S
C7448 C7449 1.415 . S
C7449 H7419 0.950 . S
C7449 C7444 1.363 . S
C7449 C7448 1.415 . S
H7450 C7447 0.999 . S
H7451 C7432 0.913 . S
H7452 C7470 0.951 . S
H7453 C7472 0.951 . S
H7454 C7474 0.950 . S
H7455 C7475 0.950 . S
H7456 C7477 0.950 . S
H7457 C7480 0.950 . S
H7458 C7481 0.950 . S
H7459 C7483 0.950 . S
H7460 C7484 0.950 . S
H7461 C7485 0.951 . S
H7462 C7487 0.951 . S
H7463 C7489 0.950 . S
H7464 C7490 0.950 . S
H7465 C7492 0.950 . S
H7466 C7495 0.950 . S
H7467 C7496 0.950 . S
H7468 C7498 0.950 . S
H7469 C7499 0.950 . S
C7470 H7452 0.951 . S
C7470 C7471 1.366 . S
C7470 C7472 1.388 . S
C7471 C7470 1.366 . S
C7471 C7475 1.385 . S
C7472 H7453 0.951 . S
C7472 C7470 1.388 . S
C7472 C7473 1.366 . S
C7473 C7472 1.366 . S
C7473 C7474 1.414 . S
C7473 C7476 1.499 . S
C7474 H7454 0.950 . S
C7474 C7473 1.414 . S
C7474 C7475 1.374 . S
C7475 H7455 0.950 . S
C7475 C7471 1.385 . S
C7475 C7474 1.374 . S
C7476 C7473 1.499 . S
C7476 C7477 1.373 . S
C7476 C7478 1.389 . S
C7477 H7456 0.950 . S
C7477 C7476 1.373 . S
C7477 C7493 1.377 . S
C7478 C7476 1.389 . S
C7478 C7479 1.524 . S
C7478 C7492 1.377 . S
C7479 C7478 1.524 . S
C7479 C7480 1.397 . S
C7479 C7484 1.363 . S
C7480 H7457 0.950 . S
C7480 C7479 1.397 . S
C7480 C7481 1.334 . S
C7481 H7458 0.950 . S
C7481 C7480 1.334 . S
C7481 C7482 1.287 . S
C7482 C7481 1.287 . S
C7482 C7483 1.524 . S
C7482 H7501 0.913 . S
C7483 H7459 0.950 . S
C7483 C7482 1.524 . S
C7483 C7484 1.415 . S
C7484 H7460 0.950 . S
C7484 C7479 1.363 . S
C7484 C7483 1.415 . S
C7485 H7461 0.951 . S
C7485 C7486 1.366 . S
C7485 C7487 1.388 . S
C7486 C7485 1.366 . S
C7486 C7490 1.385 . S
C7487 H7462 0.951 . S
C7487 C7485 1.388 . S
C7487 C7488 1.366 . S
C7488 C7487 1.366 . S
C7488 C7489 1.414 . S
C7488 C7491 1.499 . S
C7489 H7463 0.950 . S
C7489 C7488 1.414 . S
C7489 C7490 1.374 . S
C7490 H7464 0.950 . S
C7490 C7486 1.385 . S
C7490 C7489 1.374 . S
C7491 C7488 1.499 . S
C7491 C7492 1.373 . S
C7491 C7493 1.389 . S
C7492 H7465 0.950 . S
C7492 C7478 1.377 . S
C7492 C7491 1.373 . S
C7493 C7477 1.377 . S
C7493 C7491 1.389 . S
C7493 C7494 1.524 . S
C7494 C7493 1.524 . S
C7494 C7495 1.397 . S
C7494 C7499 1.363 . S
C7495 H7466 0.950 . S
C7495 C7494 1.397 . S
C7495 C7496 1.334 . S
C7496 H7467 0.950 . S
C7496 C7495 1.334 . S
C7496 C7497 1.287 . S
C7497 C7496 1.287 . S
C7497 C7498 1.524 . S
C7497 H7500 0.999 . S
C7498 H7468 0.950 . S
C7498 C7497 1.524 . S
C7498 C7499 1.415 . S
C7499 H7469 0.950 . S
C7499 C7494 1.363 . S
C7499 C7498 1.415 . S
H7500 C7497 0.999 . S
H7501 C7482 0.913 . S
H7502 C7520 0.951 . S
H7503 C7522 0.951 . S
H7504 C7524 0.950 . S
H7505 C7525 0.950 . S
H7506 C7527 0.950 . S
H7507 C7530 0.950 . S
H7508 C7531 0.950 . S
H7509 C7533 0.950 . S
H7510 C7534 0.950 . S
H7511 C7535 0.951 . S
H7512 C7537 0.951 . S
H7513 C7539 0.950 . S
H7514 C7540 0.950 . S
H7515 C7542 0.950 . S
H7516 C7545 0.950 . S
H7517 C7546 0.950 . S
H7518 C7548 0.950 . S
H7519 C7549 0.950 . S
C7520 H7502 0.951 . S
C7520 C7521 1.366 . S
C7520 C7522 1.388 . S
C7521 C7520 1.366 . S
C7521 C7525 1.385 . S
C7522 H7503 0.951 . S
C7522 C7520 1.388 . S
C7522 C7523 1.366 . S
C7523 C7522 1.366 . S
C7523 C7524 1.414 . S
C7523 C7526 1.499 . S
C7524 H7504 0.950 . S
C7524 C7523 1.414 . S
C7524 C7525 1.374 . S
C7525 H7505 0.950 . S
C7525 C7521 1.385 . S
C7525 C7524 1.374 . S
C7526 C7523 1.499 . S
C7526 C7527 1.373 . S
C7526 C7528 1.389 . S
C7527 H7506 0.950 . S
C7527 C7526 1.373 . S
C7527 C7543 1.377 . S
C7528 C7526 1.389 . S
C7528 C7529 1.524 . S
C7528 C7542 1.377 . S
C7529 C7528 1.524 . S
C7529 C7530 1.397 . S
C7529 C7534 1.363 . S
C7530 H7507 0.950 . S
C7530 C7529 1.397 . S
C7530 C7531 1.334 . S
C7531 H7508 0.950 . S
C7531 C7530 1.334 . S
C7531 C7532 1.287 . S
C7532 C7531 1.287 . S
C7532 C7533 1.524 . S
C7532 H7551 0.913 . S
C7533 H7509 0.950 . S
C7533 C7532 1.524 . S
C7533 C7534 1.415 . S
C7534 H7510 0.950 . S
C7534 C7529 1.363 . S
C7534 C7533 1.415 . S
C7535 H7511 0.951 . S
C7535 C7536 1.366 . S
C7535 C7537 1.388 . S
C7536 C7535 1.366 . S
C7536 C7540 1.385 . S
C7537 H7512 0.951 . S
C7537 C7535 1.388 . S
C7537 C7538 1.366 . S
C7538 C7537 1.366 . S
C7538 C7539 1.414 . S
C7538 C7541 1.499 . S
C7539 H7513 0.950 . S
C7539 C7538 1.414 . S
C7539 C7540 1.374 . S
C7540 H7514 0.950 . S
C7540 C7536 1.385 . S
C7540 C7539 1.374 . S
C7541 C7538 1.499 . S
C7541 C7542 1.373 . S
C7541 C7543 1.389 . S
C7542 H7515 0.950 . S
C7542 C7528 1.377 . S
C7542 C7541 1.373 . S
C7543 C7527 1.377 . S
C7543 C7541 1.389 . S
C7543 C7544 1.524 . S
C7544 C7543 1.524 . S
C7544 C7545 1.397 . S
C7544 C7549 1.363 . S
C7545 H7516 0.950 . S
C7545 C7544 1.397 . S
C7545 C7546 1.334 . S
C7546 H7517 0.950 . S
C7546 C7545 1.334 . S
C7546 C7547 1.287 . S
C7547 C7546 1.287 . S
C7547 C7548 1.524 . S
C7547 H7550 0.999 . S
C7548 H7518 0.950 . S
C7548 C7547 1.524 . S
C7548 C7549 1.415 . S
C7549 H7519 0.950 . S
C7549 C7544 1.363 . S
C7549 C7548 1.415 . S
H7550 C7547 0.999 . S
H7551 C7532 0.913 . S
C2771 C665 2.173 . S
C2786 C2122 2.153 . S
C2821 C381 1.954 . S
C2836 C2170 1.935 . S
C2871 C460 0.985 . S
C2886 C2202 0.995 . S
C2936 C2247 1.520 . S
C2921 C585 1.540 . S
C2971 C108 0.832 . S
C2986 C2287 0.831 . S
C3036 C2322 0.595 . S
C3021 C196 0.603 . S
C3086 C2361 1.037 . S
C3071 C313 1.051 . S
C3121 C49 1.120 . S
C3136 C2398 1.127 . S
C3186 C2130 1.859 . S
C3171 C1457 1.879 . S
C3221 C1545 0.569 . S
C3236 C2167 0.630 . S
C3286 C2210 2.488 . S
C3271 C1721 2.512 . S
C3336 C2242 0.900 . S
C3321 C1113 0.893 . S
C3371 C1428 0.999 . S
C3386 C2282 1.009 . S
C3436 C2330 0.662 . S
C3421 C1516 0.658 . S
C3486 C2371 1.592 . S
C3471 C1692 1.662 . S
C3536 C2401 1.853 . S
C3521 C1085 1.870 . S
C3586 C2127 0.950 . S
C3571 C988 0.958 . S
C3621 C1817 2.155 . S
C3636 C2450 2.119 . S
C3686 C2487 1.071 . S
C3671 C2081 1.079 . S
C3736 C2518 0.258 . S
C3721 C1993 0.135 . S
C3771 C761 2.814 . S
C3786 C2411 2.766 . S
C3821 C821 1.333 . S
C3836 C2207 1.320 . S
C3871 C2053 1.761 . S
C3886 C2570 1.742 . S
C3936 C2602 1.650 . S
C3921 C1868 1.637 . S
C3986 C2131 2.148 . S
C3971 C372 2.172 . S
C4036 C2601 1.930 . S
C4021 C645 1.946 . S
C4071 C577 0.978 . S
C4086 C2211 0.988 . S
C4121 C497 1.537 . S
C4136 C2558 1.517 . S
C4186 C2278 0.828 . S
C4171 C57 0.828 . S
C4221 C293 0.595 . S
C4236 C2491 0.587 . S
C4286 C2370 1.024 1_556 S
C4271 C205 1.048 . S
C4336 C2647 1.123 . S
C4321 C145 1.117 . S
C4386 C2121 1.854 . S
C4371 C909 1.876 . S
C4436 C2598 0.637 . S
C4421 C1956 0.561 . S
C4471 C724 2.513 . S
C4486 C2201 2.485 . S
C4521 C1780 0.888 . S
C4536 C2571 0.893 . S
C4571 C937 0.994 . S
C4586 C2291 1.002 . S
C4636 C2481 0.658 . S
C4621 C1985 0.655 . S
C4671 C753 1.658 . S
C4686 C2362 1.587 . S
C4721 C1809 1.868 . S
C4736 C2650 1.850 . S
C4771 C1173 0.961 . S
C4786 C2118 0.949 . S
C4821 C1105 2.148 . S
C4836 C2441 2.114 . S
C4871 C1633 1.077 . S
C4886 C2318 1.069 . S
C4921 C1553 0.120 . S
C4936 C2527 0.263 . S
C4986 C2642 2.764 . S
C4971 C1729 2.810 . S
C5021 C1340 1.330 . S
C5036 C2198 1.317 . S
C5086 C2241 1.739 . S
C5071 C1604 1.756 . S
C5136 C2171 1.644 . S
C5121 C1252 1.634 . S
C5171 C489 2.173 . S
C5186 C2682 2.152 . S
C5236 C2610 1.935 . S
C5221 C557 1.953 . S
C5271 C636 0.984 . S
C5286 C2722 0.995 . S
C5321 C409 1.539 . S
C5336 C2567 1.519 . S
C5371 C284 0.832 . S
C5386 C2447 0.831 . S
C5436 C2482 0.595 . S
C5421 C20 0.603 . S
C5486 C2521 1.038 . S
C5471 C137 1.051 . S
C5536 C2638 1.127 . S
C5521 C225 1.120 . S
C5586 C2690 1.858 . S
C5571 C1641 1.879 . S
C5621 C1193 0.569 . S
C5636 C2607 0.630 . S
C5686 C2730 2.489 . S
C5671 C1289 2.520 . S
C5736 C2562 0.900 . S
C5721 C1377 0.893 . S
C5786 C2442 1.008 . S
C5771 C1613 1.000 . S
C5821 C1164 0.658 . S
C5836 C2490 0.662 . S
C5886 C2531 1.591 . S
C5871 C1261 1.662 . S
C5921 C1349 1.870 . S
C5936 C2641 1.852 . S
C5986 C2687 0.950 . S
C5971 C1965 0.960 . S
C6021 C849 2.155 . S
C6036 C2290 2.118 . S
C6086 C2327 1.072 . S
C6071 C929 1.079 . S
C6136 C2358 0.260 . S
C6121 C1017 0.127 . S
C6186 C2651 2.766 . S
C6171 C1897 2.814 . S
C6221 C1789 1.333 . S
C6236 C2727 1.320 . S
C6286 C2250 1.742 . S
C6271 C900 1.761 . S
C6336 C2162 1.650 . S
C6321 C733 1.636 . S
C6371 C548 2.172 . S
C6386 C2691 2.148 . S
C6436 C2161 1.929 . S
C6421 C469 1.946 . S
C6471 C401 0.978 . S
C6486 C2731 0.989 . S
C6521 C673 1.537 . S
C6536 C2238 1.517 . S
C6571 C233 0.828 . S
C6586 C2438 0.827 . S
C6636 C2331 0.587 . S
C6621 C117 0.595 . S
C6671 C29 1.048 . S
C6686 C2530 1.036 . S
C6721 C321 1.118 . S
C6736 C2407 1.123 . S
C6786 C2681 1.854 . S
C6771 C2044 1.876 . S
C6821 C997 0.563 . S
C6836 C2158 0.643 . S
C6886 C2721 2.485 . S
C6871 C1877 2.513 . S
C6921 C812 0.887 . S
C6936 C2251 0.894 . S
C6971 C2073 0.994 . S
C6986 C2451 1.001 . S
C7036 C2321 0.660 . S
C7021 C1025 0.663 . S
C7071 C1905 1.658 . S
C7086 C2522 1.587 . S
C7136 C2410 1.849 . S
C7121 C841 1.868 . S
C7186 C2678 0.950 . S
C7171 C1525 0.961 . S
C7236 C2281 2.114 1_565 S
C7221 C1369 2.148 . S
C7271 C1465 1.077 . S
C7286 C2478 1.068 . S
C7336 C2367 0.262 . S
C7321 C1201 0.122 . S
C7371 C1281 2.810 . S
C7386 C2402 2.764 . S
C7421 C1076 1.330 . S
C7436 C2718 1.317 . S
C7486 C2561 1.739 . S
C7471 C1437 1.756 . S
C7536 C2611 1.644 . S
C7521 C1701 1.633 . S
