# Generated by pormake.
# Topology gar, (4,6)-cn, num edge types: 1
# Building blocks:
#     Node 0, Type 0, BuildingBlock: QUQFOY_clean_sbu_3, # of connection points: 4
#     Node 1, Type 0, BuildingBlock: QUQFOY_clean_sbu_3, # of connection points: 4
#     Node 2, Type 0, BuildingBlock: QUQFOY_clean_sbu_3, # of connection points: 4
#     Node 3, Type 0, BuildingBlock: QUQFOY_clean_sbu_3, # of connection points: 4
#     Node 4, Type 0, BuildingBlock: QUQFOY_clean_sbu_3, # of connection points: 4
#     Node 5, Type 0, BuildingBlock: QUQFOY_clean_sbu_3, # of connection points: 4
#     Node 6, Type 0, BuildingBlock: QUQFOY_clean_sbu_3, # of connection points: 4
#     Node 7, Type 0, BuildingBlock: QUQFOY_clean_sbu_3, # of connection points: 4
#     Node 8, Type 0, BuildingBlock: QUQFOY_clean_sbu_3, # of connection points: 4
#     Node 9, Type 0, BuildingBlock: QUQFOY_clean_sbu_3, # of connection points: 4
#     Node 10, Type 0, BuildingBlock: QUQFOY_clean_sbu_3, # of connection points: 4
#     Node 11, Type 0, BuildingBlock: QUQFOY_clean_sbu_3, # of connection points: 4
#     Node 12, Type 0, BuildingBlock: QUQFOY_clean_sbu_3, # of connection points: 4
#     Node 13, Type 0, BuildingBlock: QUQFOY_clean_sbu_3, # of connection points: 4
#     Node 14, Type 0, BuildingBlock: QUQFOY_clean_sbu_3, # of connection points: 4
#     Node 15, Type 0, BuildingBlock: QUQFOY_clean_sbu_3, # of connection points: 4
#     Node 16, Type 0, BuildingBlock: QUQFOY_clean_sbu_3, # of connection points: 4
#     Node 17, Type 0, BuildingBlock: QUQFOY_clean_sbu_3, # of connection points: 4
#     Node 18, Type 0, BuildingBlock: QUQFOY_clean_sbu_3, # of connection points: 4
#     Node 19, Type 0, BuildingBlock: QUQFOY_clean_sbu_3, # of connection points: 4
#     Node 20, Type 0, BuildingBlock: QUQFOY_clean_sbu_3, # of connection points: 4
#     Node 21, Type 0, BuildingBlock: QUQFOY_clean_sbu_3, # of connection points: 4
#     Node 22, Type 0, BuildingBlock: QUQFOY_clean_sbu_3, # of connection points: 4
#     Node 23, Type 0, BuildingBlock: QUQFOY_clean_sbu_3, # of connection points: 4
#     Node 24, Type 1, BuildingBlock: KUMBUR_clean_sbu_0, # of connection points: 6
#     Node 25, Type 1, BuildingBlock: KUMBUR_clean_sbu_0, # of connection points: 6
#     Node 26, Type 1, BuildingBlock: KUMBUR_clean_sbu_0, # of connection points: 6
#     Node 27, Type 1, BuildingBlock: KUMBUR_clean_sbu_0, # of connection points: 6
#     Node 28, Type 1, BuildingBlock: KUMBUR_clean_sbu_0, # of connection points: 6
#     Node 29, Type 1, BuildingBlock: KUMBUR_clean_sbu_0, # of connection points: 6
#     Node 30, Type 1, BuildingBlock: KUMBUR_clean_sbu_0, # of connection points: 6
#     Node 31, Type 1, BuildingBlock: KUMBUR_clean_sbu_0, # of connection points: 6
#     Node 32, Type 1, BuildingBlock: KUMBUR_clean_sbu_0, # of connection points: 6
#     Node 33, Type 1, BuildingBlock: KUMBUR_clean_sbu_0, # of connection points: 6
#     Node 34, Type 1, BuildingBlock: KUMBUR_clean_sbu_0, # of connection points: 6
#     Node 35, Type 1, BuildingBlock: KUMBUR_clean_sbu_0, # of connection points: 6
#     Node 36, Type 1, BuildingBlock: KUMBUR_clean_sbu_0, # of connection points: 6
#     Node 37, Type 1, BuildingBlock: KUMBUR_clean_sbu_0, # of connection points: 6
#     Node 38, Type 1, BuildingBlock: KUMBUR_clean_sbu_0, # of connection points: 6
#     Node 39, Type 1, BuildingBlock: KUMBUR_clean_sbu_0, # of connection points: 6
#     Edge 40, Type (0, 1), BuildingBlock: XUDNAN_clean_linker_2, # of connection points: 2
#     Edge 41, Type (0, 1), BuildingBlock: XUDNAN_clean_linker_2, # of connection points: 2
#     Edge 42, Type (0, 1), BuildingBlock: XUDNAN_clean_linker_2, # of connection points: 2
#     Edge 43, Type (0, 1), BuildingBlock: XUDNAN_clean_linker_2, # of connection points: 2
#     Edge 44, Type (0, 1), BuildingBlock: XUDNAN_clean_linker_2, # of connection points: 2
#     Edge 45, Type (0, 1), BuildingBlock: XUDNAN_clean_linker_2, # of connection points: 2
#     Edge 46, Type (0, 1), BuildingBlock: XUDNAN_clean_linker_2, # of connection points: 2
#     Edge 47, Type (0, 1), BuildingBlock: XUDNAN_clean_linker_2, # of connection points: 2
#     Edge 48, Type (0, 1), BuildingBlock: XUDNAN_clean_linker_2, # of connection points: 2
#     Edge 49, Type (0, 1), BuildingBlock: XUDNAN_clean_linker_2, # of connection points: 2
#     Edge 50, Type (0, 1), BuildingBlock: XUDNAN_clean_linker_2, # of connection points: 2
#     Edge 51, Type (0, 1), BuildingBlock: XUDNAN_clean_linker_2, # of connection points: 2
#     Edge 52, Type (0, 1), BuildingBlock: XUDNAN_clean_linker_2, # of connection points: 2
#     Edge 53, Type (0, 1), BuildingBlock: XUDNAN_clean_linker_2, # of connection points: 2
#     Edge 54, Type (0, 1), BuildingBlock: XUDNAN_clean_linker_2, # of connection points: 2
#     Edge 55, Type (0, 1), BuildingBlock: XUDNAN_clean_linker_2, # of connection points: 2
#     Edge 56, Type (0, 1), BuildingBlock: XUDNAN_clean_linker_2, # of connection points: 2
#     Edge 57, Type (0, 1), BuildingBlock: XUDNAN_clean_linker_2, # of connection points: 2
#     Edge 58, Type (0, 1), BuildingBlock: XUDNAN_clean_linker_2, # of connection points: 2
#     Edge 59, Type (0, 1), BuildingBlock: XUDNAN_clean_linker_2, # of connection points: 2
#     Edge 60, Type (0, 1), BuildingBlock: XUDNAN_clean_linker_2, # of connection points: 2
#     Edge 61, Type (0, 1), BuildingBlock: XUDNAN_clean_linker_2, # of connection points: 2
#     Edge 62, Type (0, 1), BuildingBlock: XUDNAN_clean_linker_2, # of connection points: 2
#     Edge 63, Type (0, 1), BuildingBlock: XUDNAN_clean_linker_2, # of connection points: 2
#     Edge 64, Type (0, 1), BuildingBlock: XUDNAN_clean_linker_2, # of connection points: 2
#     Edge 65, Type (0, 1), BuildingBlock: XUDNAN_clean_linker_2, # of connection points: 2
#     Edge 66, Type (0, 1), BuildingBlock: XUDNAN_clean_linker_2, # of connection points: 2
#     Edge 67, Type (0, 1), BuildingBlock: XUDNAN_clean_linker_2, # of connection points: 2
#     Edge 68, Type (0, 1), BuildingBlock: XUDNAN_clean_linker_2, # of connection points: 2
#     Edge 69, Type (0, 1), BuildingBlock: XUDNAN_clean_linker_2, # of connection points: 2
#     Edge 70, Type (0, 1), BuildingBlock: XUDNAN_clean_linker_2, # of connection points: 2
#     Edge 71, Type (0, 1), BuildingBlock: XUDNAN_clean_linker_2, # of connection points: 2
#     Edge 72, Type (0, 1), BuildingBlock: XUDNAN_clean_linker_2, # of connection points: 2
#     Edge 73, Type (0, 1), BuildingBlock: XUDNAN_clean_linker_2, # of connection points: 2
#     Edge 74, Type (0, 1), BuildingBlock: XUDNAN_clean_linker_2, # of connection points: 2
#     Edge 75, Type (0, 1), BuildingBlock: XUDNAN_clean_linker_2, # of connection points: 2
#     Edge 76, Type (0, 1), BuildingBlock: XUDNAN_clean_linker_2, # of connection points: 2
#     Edge 77, Type (0, 1), BuildingBlock: XUDNAN_clean_linker_2, # of connection points: 2
#     Edge 78, Type (0, 1), BuildingBlock: XUDNAN_clean_linker_2, # of connection points: 2
#     Edge 79, Type (0, 1), BuildingBlock: XUDNAN_clean_linker_2, # of connection points: 2
#     Edge 80, Type (0, 1), BuildingBlock: XUDNAN_clean_linker_2, # of connection points: 2
#     Edge 81, Type (0, 1), BuildingBlock: XUDNAN_clean_linker_2, # of connection points: 2
#     Edge 82, Type (0, 1), BuildingBlock: XUDNAN_clean_linker_2, # of connection points: 2
#     Edge 83, Type (0, 1), BuildingBlock: XUDNAN_clean_linker_2, # of connection points: 2
#     Edge 84, Type (0, 1), BuildingBlock: XUDNAN_clean_linker_2, # of connection points: 2
#     Edge 85, Type (0, 1), BuildingBlock: XUDNAN_clean_linker_2, # of connection points: 2
#     Edge 86, Type (0, 1), BuildingBlock: XUDNAN_clean_linker_2, # of connection points: 2
#     Edge 87, Type (0, 1), BuildingBlock: XUDNAN_clean_linker_2, # of connection points: 2
#     Edge 88, Type (0, 1), BuildingBlock: XUDNAN_clean_linker_2, # of connection points: 2
#     Edge 89, Type (0, 1), BuildingBlock: XUDNAN_clean_linker_2, # of connection points: 2
#     Edge 90, Type (0, 1), BuildingBlock: XUDNAN_clean_linker_2, # of connection points: 2
#     Edge 91, Type (0, 1), BuildingBlock: XUDNAN_clean_linker_2, # of connection points: 2
#     Edge 92, Type (0, 1), BuildingBlock: XUDNAN_clean_linker_2, # of connection points: 2
#     Edge 93, Type (0, 1), BuildingBlock: XUDNAN_clean_linker_2, # of connection points: 2
#     Edge 94, Type (0, 1), BuildingBlock: XUDNAN_clean_linker_2, # of connection points: 2
#     Edge 95, Type (0, 1), BuildingBlock: XUDNAN_clean_linker_2, # of connection points: 2
#     Edge 96, Type (0, 1), BuildingBlock: XUDNAN_clean_linker_2, # of connection points: 2
#     Edge 97, Type (0, 1), BuildingBlock: XUDNAN_clean_linker_2, # of connection points: 2
#     Edge 98, Type (0, 1), BuildingBlock: XUDNAN_clean_linker_2, # of connection points: 2
#     Edge 99, Type (0, 1), BuildingBlock: XUDNAN_clean_linker_2, # of connection points: 2
#     Edge 100, Type (0, 1), BuildingBlock: XUDNAN_clean_linker_2, # of connection points: 2
#     Edge 101, Type (0, 1), BuildingBlock: XUDNAN_clean_linker_2, # of connection points: 2
#     Edge 102, Type (0, 1), BuildingBlock: XUDNAN_clean_linker_2, # of connection points: 2
#     Edge 103, Type (0, 1), BuildingBlock: XUDNAN_clean_linker_2, # of connection points: 2
#     Edge 104, Type (0, 1), BuildingBlock: XUDNAN_clean_linker_2, # of connection points: 2
#     Edge 105, Type (0, 1), BuildingBlock: XUDNAN_clean_linker_2, # of connection points: 2
#     Edge 106, Type (0, 1), BuildingBlock: XUDNAN_clean_linker_2, # of connection points: 2
#     Edge 107, Type (0, 1), BuildingBlock: XUDNAN_clean_linker_2, # of connection points: 2
#     Edge 108, Type (0, 1), BuildingBlock: XUDNAN_clean_linker_2, # of connection points: 2
#     Edge 109, Type (0, 1), BuildingBlock: XUDNAN_clean_linker_2, # of connection points: 2
#     Edge 110, Type (0, 1), BuildingBlock: XUDNAN_clean_linker_2, # of connection points: 2
#     Edge 111, Type (0, 1), BuildingBlock: XUDNAN_clean_linker_2, # of connection points: 2
#     Edge 112, Type (0, 1), BuildingBlock: XUDNAN_clean_linker_2, # of connection points: 2
#     Edge 113, Type (0, 1), BuildingBlock: XUDNAN_clean_linker_2, # of connection points: 2
#     Edge 114, Type (0, 1), BuildingBlock: XUDNAN_clean_linker_2, # of connection points: 2
#     Edge 115, Type (0, 1), BuildingBlock: XUDNAN_clean_linker_2, # of connection points: 2
#     Edge 116, Type (0, 1), BuildingBlock: XUDNAN_clean_linker_2, # of connection points: 2
#     Edge 117, Type (0, 1), BuildingBlock: XUDNAN_clean_linker_2, # of connection points: 2
#     Edge 118, Type (0, 1), BuildingBlock: XUDNAN_clean_linker_2, # of connection points: 2
#     Edge 119, Type (0, 1), BuildingBlock: XUDNAN_clean_linker_2, # of connection points: 2
#     Edge 120, Type (0, 1), BuildingBlock: XUDNAN_clean_linker_2, # of connection points: 2
#     Edge 121, Type (0, 1), BuildingBlock: XUDNAN_clean_linker_2, # of connection points: 2
#     Edge 122, Type (0, 1), BuildingBlock: XUDNAN_clean_linker_2, # of connection points: 2
#     Edge 123, Type (0, 1), BuildingBlock: XUDNAN_clean_linker_2, # of connection points: 2
#     Edge 124, Type (0, 1), BuildingBlock: XUDNAN_clean_linker_2, # of connection points: 2
#     Edge 125, Type (0, 1), BuildingBlock: XUDNAN_clean_linker_2, # of connection points: 2
#     Edge 126, Type (0, 1), BuildingBlock: XUDNAN_clean_linker_2, # of connection points: 2
#     Edge 127, Type (0, 1), BuildingBlock: XUDNAN_clean_linker_2, # of connection points: 2
#     Edge 128, Type (0, 1), BuildingBlock: XUDNAN_clean_linker_2, # of connection points: 2
#     Edge 129, Type (0, 1), BuildingBlock: XUDNAN_clean_linker_2, # of connection points: 2
#     Edge 130, Type (0, 1), BuildingBlock: XUDNAN_clean_linker_2, # of connection points: 2
#     Edge 131, Type (0, 1), BuildingBlock: XUDNAN_clean_linker_2, # of connection points: 2
#     Edge 132, Type (0, 1), BuildingBlock: XUDNAN_clean_linker_2, # of connection points: 2
#     Edge 133, Type (0, 1), BuildingBlock: XUDNAN_clean_linker_2, # of connection points: 2
#     Edge 134, Type (0, 1), BuildingBlock: XUDNAN_clean_linker_2, # of connection points: 2
#     Edge 135, Type (0, 1), BuildingBlock: XUDNAN_clean_linker_2, # of connection points: 2
# Relax obj value: 0.121
# Max RMSD: 0.327
# Mean RMSD: 0.148
data_MOF--net-gar--node1-QUQFOY_clean_sbu_3--node2-KUMBUR_clean_sbu_0--edge1-XUDNAN_clean_linker_2
_symmetry_space_group_name_H-M    P1
_symmetry_Int_Tables_number       1
_symmetry_cell_setting            triclinic
loop_
_symmetry_equiv_pos_as_xyz
'x, y, z'
_cell_length_a     61.527585
_cell_length_b     57.712793
_cell_length_c     57.074135
_cell_angle_alpha  101.34911
_cell_angle_beta   93.381176
_cell_angle_gamma 102.60099
loop_
_atom_site_label
_atom_site_type_symbol
_atom_site_fract_x
_atom_site_fract_y
_atom_site_fract_z
_atom_type_partial_charge
C0 C 0.07991 0.33662 0.35954 0.0
O1 O 0.09326 0.35019 0.34894 0.0
Cd2 Cd 0.133 0.35963 0.35272 0.0
O3 O 0.08693 0.32526 0.37422 0.0
Cd4 Cd 0.12226 0.32055 0.39166 0.0
C5 C 0.13565 0.38144 0.4131 0.0
O6 O 0.13883 0.32196 0.35642 0.0
O7 O 0.16106 0.32109 0.38697 0.0
O8 O 0.10351 0.27862 0.38874 0.0
C9 C 0.15824 0.32262 0.3652 0.0
O10 O 0.13979 0.38548 0.39247 0.0
C11 C 0.10973 0.27843 0.41031 0.0
O12 O 0.12863 0.35999 0.41635 0.0
O13 O 0.12199 0.29798 0.42318 0.0
C14 C 0.97682 0.76758 0.70404 0.0
O15 O 0.99268 0.76315 0.7163 0.0
Cd16 Cd 0.02233 0.74723 0.70037 0.0
O17 O 0.97717 0.76681 0.68157 0.0
Cd18 Cd 0.0053 0.76195 0.6522 0.0
C19 C 0.99354 0.70279 0.65081 0.0
O20 O 0.04121 0.77317 0.6773 0.0
O21 O 0.039 0.74814 0.6434 0.0
O22 O 0.00892 0.80095 0.63976 0.0
C23 C 0.05094 0.76072 0.66235 0.0
O24 O 0.00491 0.70962 0.67141 0.0
C25 C 0.00474 0.7912 0.61751 0.0
O26 O 0.98917 0.71831 0.63926 0.0
O27 O 0.99896 0.76813 0.61189 0.0
C28 C 0.57368 0.82598 0.86145 0.0
O29 O 0.58508 0.82989 0.84419 0.0
Cd30 Cd 0.62493 0.84274 0.84666 0.0
O31 O 0.58285 0.82535 0.88173 0.0
Cd32 Cd 0.62017 0.82583 0.89798 0.0
C33 C 0.63164 0.88568 0.89964 0.0
O34 O 0.639 0.81438 0.86349 0.0
O35 O 0.65915 0.83358 0.89705 0.0
O36 O 0.60793 0.78592 0.90585 0.0
C37 C 0.6582 0.82327 0.87514 0.0
O38 O 0.63305 0.88047 0.8771 0.0
C39 C 0.61507 0.79246 0.92803 0.0
O40 O 0.62608 0.86912 0.91148 0.0
O41 O 0.62368 0.81495 0.93641 0.0
C42 C 0.47633 0.25277 0.20326 0.0
O43 O 0.49152 0.24696 0.2153 0.0
Cd44 Cd 0.52591 0.24134 0.20161 0.0
O45 O 0.4791 0.25769 0.18267 0.0
Cd46 Cd 0.50661 0.25965 0.1537 0.0
C47 C 0.50059 0.1995 0.14986 0.0
O48 O 0.53916 0.27334 0.18193 0.0
O49 O 0.54458 0.25806 0.14572 0.0
O50 O 0.50469 0.29834 0.14276 0.0
C51 C 0.55279 0.26855 0.16699 0.0
O52 O 0.51166 0.20495 0.17056 0.0
C53 C 0.50047 0.28875 0.12045 0.0
O54 O 0.49574 0.21578 0.13971 0.0
O55 O 0.49698 0.26574 0.11448 0.0
C56 C 0.06091 0.80309 0.14782 0.0
O57 O 0.07253 0.79392 0.16093 0.0
Cd58 Cd 0.10982 0.79035 0.15583 0.0
O59 O 0.06926 0.81227 0.13074 0.0
Cd60 Cd 0.10633 0.81966 0.11183 0.0
C61 C 0.09874 0.75646 0.09674 0.0
O62 O 0.13135 0.82783 0.15006 0.0
O63 O 0.14813 0.81944 0.1188 0.0
O64 O 0.09907 0.86093 0.11512 0.0
C65 C 0.14942 0.8251 0.14161 0.0
O66 O 0.1041 0.75932 0.1192 0.0
C67 C 0.09971 0.86342 0.09353 0.0
O68 O 0.09673 0.77484 0.08788 0.0
O69 O 0.10459 0.84577 0.0792 0.0
C70 C 0.47419 0.76376 0.39121 0.0
O71 O 0.48811 0.77579 0.38 0.0
Cd72 Cd 0.52737 0.78907 0.39183 0.0
O73 O 0.48112 0.75646 0.40966 0.0
Cd74 Cd 0.52066 0.7601 0.43402 0.0
C75 C 0.52618 0.82232 0.44953 0.0
O76 O 0.54329 0.75676 0.39939 0.0
O77 O 0.56194 0.77491 0.43357 0.0
O78 O 0.51269 0.71562 0.43309 0.0
C79 C 0.56221 0.76535 0.41165 0.0
O80 O 0.52961 0.82042 0.42753 0.0
C81 C 0.52062 0.71594 0.45425 0.0
O82 O 0.52138 0.80315 0.45828 0.0
O83 O 0.5272 0.73708 0.46775 0.0
C84 C 0.55739 0.30492 0.64363 0.0
O85 O 0.5698 0.29998 0.65959 0.0
Cd86 Cd 0.60556 0.29228 0.65332 0.0
O87 O 0.56504 0.30968 0.62431 0.0
Cd88 Cd 0.60325 0.31832 0.60775 0.0
C89 C 0.59494 0.25587 0.5947 0.0
O90 O 0.62803 0.3283 0.64599 0.0
O91 O 0.64478 0.31746 0.61534 0.0
O92 O 0.59701 0.35975 0.61204 0.0
C93 C 0.64604 0.32466 0.63802 0.0
O94 O 0.59883 0.25954 0.61748 0.0
C95 C 0.59745 0.36247 0.59052 0.0
O96 O 0.59468 0.27385 0.5846 0.0
O97 O 0.60157 0.34469 0.57568 0.0
C98 C 0.97295 0.26746 0.89283 0.0
O99 O 0.98681 0.28251 0.88436 0.0
Cd100 Cd 0.02643 0.29353 0.89435 0.0
O101 O 0.97996 0.25699 0.90885 0.0
Cd102 Cd 0.0198 0.2599 0.93288 0.0
C103 C 0.03099 0.32315 0.95367 0.0
O104 O 0.04189 0.25944 0.89742 0.0
O105 O 0.06115 0.27197 0.93211 0.0
O106 O 0.01422 0.21501 0.93021 0.0
C107 C 0.06096 0.26554 0.90957 0.0
O108 O 0.03359 0.32325 0.93175 0.0
C109 C 0.02031 0.21482 0.95182 0.0
O110 O 0.02466 0.30292 0.96035 0.0
O111 O 0.02461 0.23557 0.96613 0.0
C112 C 0.44125 0.02399 0.35022 0.0
O113 O 0.44846 0.01018 0.33386 0.0
Cd114 Cd 0.45227 0.01258 0.29307 0.0
O115 O 0.4329 0.0411 0.34581 0.0
Cd116 Cd 0.42041 0.04881 0.30814 0.0
C117 C 0.39791 0.98998 0.27997 0.0
O118 O 0.45593 0.05437 0.29359 0.0
O119 O 0.42928 0.05457 0.26759 0.0
O120 O 0.418 0.0903 0.3237 0.0
C121 C 0.4501 0.05687 0.27284 0.0
O122 O 0.41681 0.98755 0.27341 0.0
C123 C 0.39673 0.0846 0.32117 0.0
O124 O 0.39592 0.00908 0.29421 0.0
O125 O 0.38704 0.06249 0.31286 0.0
C126 C 0.33067 0.15821 0.51221 0.0
O127 O 0.31748 0.14633 0.52426 0.0
Cd128 Cd 0.28026 0.14962 0.53064 0.0
O129 O 0.32494 0.17414 0.50219 0.0
Cd130 Cd 0.29164 0.19196 0.49988 0.0
C131 C 0.29407 0.20977 0.56099 0.0
O132 O 0.26295 0.15317 0.4938 0.0
O133 O 0.25046 0.18563 0.49757 0.0
O134 O 0.3014 0.19418 0.45875 0.0
C135 C 0.24623 0.16266 0.49434 0.0
O136 O 0.28613 0.18723 0.55975 0.0
C137 C 0.29986 0.21599 0.46029 0.0
O138 O 0.29961 0.2175 0.54217 0.0
O139 O 0.29478 0.22664 0.4802 0.0
C140 C 0.14523 0.01723 0.81756 0.0
O141 O 0.13524 0.02914 0.80583 0.0
Cd142 Cd 0.14739 0.03864 0.7671 0.0
O143 O 0.16119 0.00844 0.80773 0.0
Cd144 Cd 0.18144 1.00455 0.76405 0.0
C145 C 0.20197 0.07143 0.77275 0.0
O146 O 0.14602 1.00514 0.73296 0.0
O147 O 0.17733 0.00907 0.71874 0.0
O148 O 0.18834 0.9578 0.75757 0.0
C149 C 0.15657 0.00854 0.71478 0.0
O150 O 0.18136 0.07188 0.76992 0.0
C151 C 0.20928 0.96264 0.76462 0.0
O152 O 0.20711 0.05086 0.7732 0.0
O153 O 0.21739 0.98561 0.77055 0.0
C154 C 0.37719 0.96845 0.01827 0.0
O155 O 0.3713 0.98762 0.0275 0.0
Cd156 Cd 0.33634 0.98212 1.00215 0.0
O157 O 0.36249 0.95061 0.00644 0.0
Cd158 Cd 0.32436 0.94346 0.01433 0.0
C159 C 0.3313 0.9316 0.9594 0.0
O160 O 0.3013 0.97336 0.01856 0.0
O161 O 0.28722 0.93617 0.99769 0.0
O162 O 0.33224 0.94045 0.05555 0.0
C163 C 0.28436 0.95673 0.00787 0.0
O164 O 0.33399 0.95455 0.96277 0.0
C165 C 0.32217 0.91807 0.05098 0.0
O166 O 0.32788 0.92084 0.97659 0.0
O167 O 0.31356 0.90826 0.0296 0.0
C168 C 0.36808 0.42936 0.03972 0.0
O169 O 0.358 0.43996 0.02664 0.0
Cd170 Cd 0.32042 0.4272 0.01031 0.0
O171 O 0.35769 0.41038 0.04647 0.0
Cd172 Cd 0.3172 0.38429 0.04201 0.0
C173 C 0.31874 0.36701 0.98207 0.0
O174 O 0.30136 0.41908 0.04322 0.0
O175 O 0.27638 0.38568 0.03461 0.0
O176 O 0.32322 0.38764 0.08474 0.0
C177 C 0.28084 0.40869 0.03863 0.0
O178 O 0.31863 0.3892 0.98307 0.0
C179 C 0.31418 0.36584 0.08532 0.0
O180 O 0.319 0.35876 1.00127 0.0
O181 O 0.30751 0.35124 0.06512 0.0
C182 C 0.82638 0.10557 0.04375 0.0
O183 O 0.81155 0.09537 0.05538 0.0
Cd184 Cd 0.77373 0.10022 0.05336 0.0
O185 O 0.82203 0.1197 0.03055 0.0
Cd186 Cd 0.79145 0.13731 0.02118 0.0
C187 C 0.78595 0.16019 0.07791 0.0
O188 O 0.76129 0.10101 0.01281 0.0
O189 O 0.75228 0.13564 0.02171 0.0
O190 O 0.79676 0.14546 0.98119 0.0
C191 C 0.7462 0.11288 0.01381 0.0
O192 O 0.77474 0.13938 0.07964 0.0
C193 C 0.80038 0.16839 0.98869 0.0
O194 O 0.7959 0.16298 0.05953 0.0
O195 O 0.80111 0.17631 0.01112 0.0
C196 C 0.1684 0.53838 0.27632 0.0
O197 O 0.15746 0.55037 0.26585 0.0
Cd198 Cd 0.1597 0.558 0.22653 0.0
O199 O 0.18387 0.52979 0.26679 0.0
Cd200 Cd 0.20138 0.53558 0.23053 0.0
C201 C 0.21212 0.59369 0.24049 0.0
O202 O 0.17012 0.52543 0.20128 0.0
O203 O 0.20043 0.54721 0.19222 0.0
O204 O 0.21318 0.49822 0.22511 0.0
C205 C 0.18051 0.53506 0.18578 0.0
O206 O 0.19261 0.59056 0.22985 0.0
C207 C 0.23369 0.50877 0.22569 0.0
O208 O 0.21815 0.57691 0.24861 0.0
O209 O 0.23856 0.53164 0.22784 0.0
C210 C 0.86718 0.93126 0.54375 0.0
O211 O 0.85594 0.94482 0.53632 0.0
Cd212 Cd 0.81728 0.93225 0.52285 0.0
O213 O 0.85766 0.90983 0.54591 0.0
Cd214 Cd 0.8172 0.8842 0.54023 0.0
C215 C 0.8154 0.87795 0.48102 0.0
O216 O 0.79782 0.91685 0.55304 0.0
O217 O 0.77852 0.8853 0.52785 0.0
O218 O 0.82531 0.87539 0.58005 0.0
C219 C 0.77886 0.90501 0.54242 0.0
O220 O 0.81391 0.89993 0.48748 0.0
C221 C 0.81117 0.85511 0.5763 0.0
O222 O 0.81875 0.86588 0.49685 0.0
O223 O 0.8011 0.84724 0.55522 0.0
C224 C 0.97433 0.06195 0.3243 0.0
O225 O 0.98061 0.04649 0.30879 0.0
Cd226 Cd 0.96555 0.03724 0.26673 0.0
O227 O 0.96053 0.07389 0.31643 0.0
Cd228 Cd 0.93686 0.07373 0.27048 0.0
C229 C 0.91165 0.00748 0.26602 0.0
O230 O 0.97113 0.06942 0.24266 0.0
O231 O 0.93924 0.06444 0.22375 0.0
O232 O 0.93423 0.12049 0.27272 0.0
C233 C 0.96006 0.06612 0.2221 0.0
O234 O 0.93149 1.0049 0.264 0.0
C235 C 0.91326 0.11946 0.27293 0.0
O236 O 0.90813 0.02917 0.2683 0.0
O237 O 0.90236 0.09787 0.27276 0.0
C238 C 0.32421 0.6128 0.54945 0.0
O239 O 0.30927 0.60079 0.55972 0.0
Cd240 Cd 0.27029 0.60191 0.55431 0.0
O241 O 0.3196 0.62722 0.53679 0.0
Cd242 Cd 0.28943 0.64344 0.52444 0.0
C243 C 0.27568 0.66129 0.58002 0.0
O244 O 0.26315 0.60439 0.51331 0.0
O245 O 0.25005 0.63615 0.51323 0.0
O246 O 0.30409 0.64925 0.48677 0.0
C247 C 0.2467 0.61323 0.50872 0.0
O248 O 0.26604 0.63934 0.57976 0.0
C249 C 0.30229 0.67115 0.48995 0.0
O250 O 0.28734 0.66694 0.56347 0.0
O251 O 0.29619 0.68025 0.50986 0.0
C252 C 0.47457 0.5609 0.82589 0.0
O253 O 0.48255 0.54746 0.80995 0.0
Cd254 Cd 0.47037 0.53757 0.7672 0.0
O255 O 0.45961 0.57186 0.81847 0.0
Cd256 Cd 0.4366 0.57323 0.77167 0.0
C257 C 0.41538 0.50588 0.76388 0.0
O258 O 0.47298 0.57249 0.74818 0.0
O259 O 0.44381 0.5669 0.72451 0.0
O260 O 0.42878 0.61966 0.78486 0.0
C261 C 0.46491 0.56919 0.72631 0.0
O262 O 0.4357 0.50558 0.76106 0.0
C263 C 0.40966 0.61674 0.77304 0.0
O264 O 0.41005 0.52679 0.76855 0.0
O265 O 0.40275 0.5948 0.76122 0.0
C266 C 0.67071 0.05373 0.78101 0.0
O267 O 0.66219 0.06749 0.77038 0.0
Cd268 Cd 0.66617 0.07279 0.7305 0.0
O269 O 0.68299 0.04069 0.7709 0.0
Cd270 Cd 0.69782 0.03572 0.73283 0.0
C271 C 0.72309 0.0924 0.74284 0.0
O272 O 0.66782 0.03589 0.70535 0.0
O273 O 0.70113 0.0422 0.69304 0.0
O274 O 0.69384 0.99281 0.72931 0.0
C275 C 0.68017 0.03902 0.68865 0.0
O276 O 0.70441 0.09542 0.73471 0.0
C277 C 0.7148 0.99488 0.72893 0.0
O278 O 0.7252 0.07246 0.74762 0.0
O279 O 0.72708 0.01585 0.72987 0.0
C280 C 0.83811 0.67219 0.01433 0.0
O281 O 0.82739 0.66276 0.9939 0.0
Cd282 Cd 0.79623 0.68263 0.00457 0.0
O283 O 0.82966 0.687 0.02819 0.0
Cd284 Cd 0.79364 0.69448 0.00636 0.0
C285 C 0.79388 0.7094 0.05888 0.0
O286 O 0.76424 0.65391 0.98852 0.0
O287 O 0.75248 0.68102 0.01239 0.0
O288 O 0.81124 0.69551 0.96859 0.0
C289 C 0.74795 0.66012 0.99849 0.0
O290 O 0.79267 0.68741 0.04893 0.0
C291 C 0.80587 0.71427 0.964 0.0
O292 O 0.79568 0.72446 0.04519 0.0
O293 O 0.79481 0.72473 0.97922 0.0
C294 C 0.94904 0.54143 0.85034 0.0
O295 O 0.96503 0.54234 0.83725 0.0
Cd296 Cd 0.95945 0.533 0.79505 0.0
O297 O 0.92933 0.54089 0.84227 0.0
Cd298 Cd 0.91367 0.54825 0.80565 0.0
C299 C 0.90989 0.48982 0.79406 0.0
O300 O 0.94388 0.56332 0.78421 0.0
O301 O 0.91311 0.54351 0.76228 0.0
O302 O 0.9164 0.58821 0.82707 0.0
C303 C 0.93297 0.55621 0.76358 0.0
O304 O 0.9305 0.49603 0.79089 0.0
C305 C 0.89641 0.58832 0.82035 0.0
O306 O 0.89837 0.50552 0.79983 0.0
O307 O 0.88332 0.56819 0.80955 0.0
C308 C 0.87354 0.47609 0.51376 0.0
O309 O 0.86583 0.49173 0.50529 0.0
Cd310 Cd 0.82874 0.4758 0.48596 0.0
O311 O 0.86066 0.45724 0.51775 0.0
Cd312 Cd 0.82232 0.43726 0.51991 0.0
C313 C 0.83464 0.41658 0.46624 0.0
O314 O 0.80379 0.46839 0.51518 0.0
O315 O 0.78331 0.43143 0.50484 0.0
O316 O 0.82912 0.44341 0.56296 0.0
C317 C 0.7849 0.4541 0.50739 0.0
O318 O 0.83352 0.43732 0.46233 0.0
C319 C 0.82306 0.42091 0.56305 0.0
O320 O 0.83109 0.41118 0.48638 0.0
O321 O 0.81584 0.40626 0.54301 0.0
C322 C 0.64503 0.51751 0.31842 0.0
O323 O 0.64066 0.53502 0.31 0.0
Cd324 Cd 0.64887 0.54298 0.26992 0.0
O325 O 0.65656 0.50381 0.306 0.0
Cd326 Cd 0.6802 0.50279 0.26418 0.0
C327 C 0.70439 0.57017 0.27178 0.0
O328 O 0.64436 0.50657 0.23819 0.0
O329 O 0.67137 0.50382 0.21737 0.0
O330 O 0.69023 0.45884 0.24736 0.0
C331 C 0.65143 0.50676 0.21756 0.0
O332 O 0.68433 0.57265 0.27098 0.0
C333 C 0.7057 0.45842 0.26314 0.0
O334 O 0.70809 0.54871 0.27132 0.0
O335 O 0.71011 0.47788 0.27943 0.0
Tb336 Tb 0.03392 0.02248 0.00793 0.0
C337 C 0.09418 0.11071 0.06513 0.0
C338 C 0.1041 0.13499 0.03542 0.0
C339 C 0.10848 0.1547 0.07756 0.0
C340 C 0.0964 0.11209 0.04134 0.0
C341 C 0.10085 0.13208 0.08351 0.0
C342 C 0.10994 0.15617 0.05358 0.0
C343 C 0.09519 0.10724 0.11288 0.0
N344 N 0.08744 0.08844 0.07051 0.0
C345 C 0.08912 0.08664 0.09428 0.0
C346 C 0.10089 0.13009 0.1075 0.0
Tb347 Tb 0.0844 0.05563 0.03869 0.0
N348 N 0.09211 0.09112 0.0242 0.0
C349 C 0.0945 0.09237 1.00065 0.0
C350 C 0.10632 0.13603 0.01144 0.0
C351 C 0.1013 0.11464 0.99399 0.0
H352 H 0.08614 0.06909 0.09912 0.0
H353 H 0.10271 0.11523 0.97528 0.0
H354 H 0.11609 0.17376 0.0493 0.0
H355 H 0.0961 0.10539 0.1314 0.0
H356 H 0.09028 0.07665 0.98632 0.0
H357 H 0.00897 0.96835 0.07489 0.0
H358 H 0.11198 0.15324 0.00623 0.0
H359 H 0.03333 1.00373 0.94792 0.0
H360 H 0.02067 1.00523 0.06122 0.0
H361 H 0.02744 0.96564 0.91855 0.0
H362 H 0.11376 0.17115 0.09145 0.0
H363 H 0.005 0.92869 0.04745 0.0
H364 H 0.00616 0.90521 0.00646 0.0
H365 H 0.10618 0.14603 0.122 0.0
H366 H 0.01165 0.90443 0.96419 0.0
N367 N 0.02464 0.98857 0.02504 0.0
C368 C 0.01944 0.98893 0.04821 0.0
C369 C 0.01058 0.94524 0.04102 0.0
C370 C 0.01522 0.94451 0.01732 0.0
C371 C 0.01266 0.96754 0.05647 0.0
C372 C 0.02254 0.96665 0.00975 0.0
H373 H 0.01968 0.92663 0.93149 0.0
N374 N 0.03239 0.9876 0.97887 0.0
C375 C 0.02759 0.96544 0.93749 0.0
C376 C 0.02644 0.96616 0.98602 0.0
C377 C 0.0314 0.98719 0.95457 0.0
C378 C 0.0232 0.94352 0.94485 0.0
C379 C 0.02201 0.94361 0.96921 0.0
O380 O 0.01658 0.02828 0.97773 0.0
O381 O 0.05795 0.05735 0.01275 0.0
O382 O 0.05795 0.05532 0.06533 0.0
O383 O 0.02329 0.03779 0.04333 0.0
O384 O 0.02572 0.05809 0.0172 0.0
O385 O 0.9991 0.00822 1.00202 0.0
O386 O 0.10415 0.04794 0.06626 0.0
O387 O 0.06026 0.0208 0.03386 0.0
O388 O 0.06049 0.02345 0.98124 0.0
O389 O 0.09488 0.04358 1.00253 0.0
O390 O 0.09238 0.01984 0.02891 0.0
O391 O 0.11897 0.07121 0.04291 0.0
C392 C 0.04499 0.07197 0.01648 0.0
C393 C 0.97785 0.02496 0.97664 0.0
C394 C 0.94963 0.04725 0.98801 0.0
C395 C 0.969 0.03976 0.9942 0.0
C396 C 0.93931 0.03974 0.96418 0.0
C397 C 0.96753 0.01781 0.95297 0.0
C398 C 0.9483 0.02519 0.94678 0.0
C399 C 0.03554 0.04917 0.06421 0.0
C400 C 0.99749 0.01599 0.98216 0.0
C401 C 0.01516 0.92178 0.97687 0.0
C402 C 0.01192 0.92223 1.0009 0.0
C403 C 0.07308 1.00615 0.02978 0.0
C404 C 0.14393 0.05842 0.06811 0.0
C405 C 0.15105 0.03848 0.05568 0.0
C406 C 0.17271 0.03603 0.06167 0.0
C407 C 0.18706 0.05332 0.08006 0.0
C408 C 0.15827 0.07558 0.08656 0.0
C409 C 0.17977 0.073 0.09255 0.0
C410 C 0.08276 0.03145 0.98187 0.0
C411 C 0.12205 0.06269 0.06204 0.0
H412 H 0.97705 0.04528 0.0125 0.0
H413 H 0.92397 0.04467 0.95907 0.0
H414 H 0.97424 1.00629 0.93931 0.0
H415 H 0.94021 0.01939 0.92855 0.0
H416 H 0.1401 0.02535 0.0412 0.0
H417 H 0.20392 0.05165 0.08459 0.0
H418 H 0.15288 0.09114 0.0962 0.0
H419 H 0.19085 0.08638 0.10668 0.0
Tb420 Tb 0.31961 0.7843 0.25155 0.0
C421 C 0.28735 0.85335 0.32922 0.0
C422 C 0.31991 0.87166 0.35821 0.0
C423 C 0.28992 0.89256 0.35609 0.0
C424 C 0.30791 0.85226 0.33961 0.0
C425 C 0.27809 0.87349 0.33752 0.0
C426 C 0.31072 0.89159 0.36649 0.0
C427 C 0.24489 0.85355 0.31044 0.0
N428 N 0.276 0.83437 0.31167 0.0
C429 C 0.25439 0.8338 0.30328 0.0
C430 C 0.25686 0.8736 0.32752 0.0
Tb431 Tb 0.29136 0.80089 0.30429 0.0
N432 N 0.3164 0.83265 0.3312 0.0
C433 C 0.33827 0.83355 0.33874 0.0
C434 C 0.34107 0.87082 0.36771 0.0
C435 C 0.35048 0.85193 0.35754 0.0
H436 H 0.24419 0.81796 0.29095 0.0
H437 H 0.36756 0.85203 0.36345 0.0
H438 H 0.3197 0.90651 0.38077 0.0
H439 H 0.22808 0.85301 0.30318 0.0
H440 H 0.34745 0.82159 0.32932 0.0
H441 H 0.26784 0.73231 0.169 0.0
H442 H 0.35074 0.88531 0.38197 0.0
H443 H 0.37197 0.78139 0.26565 0.0
H444 H 0.28341 0.76842 0.20009 0.0
H445 H 0.39481 0.75081 0.26024 0.0
H446 H 0.28301 0.90805 0.36271 0.0
H447 H 0.28258 0.69553 0.1669 0.0
H448 H 0.31177 0.67618 0.18194 0.0
H449 H 0.24927 0.88873 0.33341 0.0
H450 H 0.34688 0.68114 0.20737 0.0
N451 N 0.30549 0.75215 0.21872 0.0
C452 C 0.28961 0.75248 0.20082 0.0
C453 C 0.28917 0.71127 0.18134 0.0
C454 C 0.30694 0.71176 0.19796 0.0
C455 C 0.28083 0.73196 0.18248 0.0
C456 C 0.31487 0.73275 0.21651 0.0
H457 H 0.3785 0.70936 0.23611 0.0
N458 N 0.34239 0.75699 0.2463 0.0
C459 C 0.37763 0.74602 0.25218 0.0
C460 C 0.33416 0.73527 0.23097 0.0
C461 C 0.36464 0.76329 0.25513 0.0
C462 C 0.36833 0.72262 0.23869 0.0
C463 C 0.34662 0.71727 0.22708 0.0
O464 O 0.34855 0.80632 0.24312 0.0
O465 O 0.31124 0.81227 0.27804 0.0
O466 O 0.27755 0.8126 0.2727 0.0
O467 O 0.28472 0.78593 0.23993 0.0
O468 O 0.34383 0.81585 0.27364 0.0
O469 O 0.31713 0.80062 0.22178 0.0
O470 O 0.25722 0.78348 0.3033 0.0
O471 O 0.29264 0.77458 0.2725 0.0
O472 O 0.33288 0.76956 0.28122 0.0
O473 O 0.32033 0.78736 0.31727 0.0
O474 O 0.28616 0.76186 0.30332 0.0
O475 O 0.27774 0.80147 0.33693 0.0
C476 C 0.32973 0.82691 0.28378 0.0
C477 C 0.35038 0.81063 0.20317 0.0
C478 C 0.35546 0.82572 0.16678 0.0
C479 C 0.34284 0.82164 0.18568 0.0
C480 C 0.37577 0.81861 0.16508 0.0
C481 C 0.3706 0.80308 0.20134 0.0
C482 C 0.3832 0.80708 0.18229 0.0
C483 C 0.27312 0.80159 0.24962 0.0
C484 C 0.33842 0.81069 0.22455 0.0
C485 C 0.33778 0.69538 0.21028 0.0
C486 C 0.31785 0.69259 0.19575 0.0
C487 C 0.28786 0.75571 0.28072 0.0
C488 C 0.24672 0.76994 0.33861 0.0
C489 C 0.259 0.75783 0.3515 0.0
C490 C 0.24832 0.74311 0.36623 0.0
C491 C 0.22515 0.73991 0.36741 0.0
C492 C 0.22355 0.76637 0.33967 0.0
C493 C 0.2128 0.75128 0.35392 0.0
C494 C 0.334 0.77525 0.3052 0.0
C495 C 0.25805 0.78878 0.3267 0.0
H496 H 0.32739 0.82776 0.18715 0.0
H497 H 0.38563 0.82175 0.15042 0.0
H498 H 0.37692 0.7947 0.21486 0.0
H499 H 0.39887 0.80151 0.18102 0.0
H500 H 0.277 0.76088 0.35115 0.0
H501 H 0.21668 0.72873 0.37886 0.0
H502 H 0.21391 0.77586 0.33006 0.0
H503 H 0.19496 0.74887 0.35497 0.0
Tb504 Tb 0.58645 0.04118 0.51285 0.0
C505 C 0.50492 0.99838 0.56098 0.0
C506 C 0.48492 0.96309 0.53118 0.0
C507 C 0.48266 0.96365 0.57366 0.0
C508 C 0.49924 0.98656 0.53725 0.0
C509 C 0.4964 0.98731 0.5795 0.0
C510 C 0.47698 0.95153 0.54953 0.0
C511 C 0.51469 0.02434 0.60797 0.0
N512 N 0.51844 0.02108 0.56586 0.0
C513 C 0.52277 0.03452 0.58895 0.0
C514 C 0.50165 1.00054 0.60326 0.0
Tb515 Tb 0.5314 0.03582 0.53359 0.0
N516 N 0.50717 0.99842 0.52011 0.0
C517 C 0.50008 0.98831 0.49637 0.0
C518 C 0.47868 0.95217 0.50688 0.0
C519 C 0.48606 0.96499 0.48941 0.0
H520 H 0.53293 0.05289 0.59278 0.0
H521 H 0.48104 0.9569 0.47055 0.0
H522 H 0.46611 0.93342 0.54524 0.0
H523 H 0.51855 0.03485 0.62624 0.0
H524 H 0.50551 0.99775 0.48249 0.0
H525 H 0.63431 0.1192 0.57902 0.0
H526 H 0.46781 0.93411 0.50144 0.0
H527 H 0.58899 0.02521 0.45439 0.0
H528 H 0.61037 0.07829 0.56541 0.0
H529 H 0.60527 0.04421 0.42217 0.0
H530 H 0.47609 0.95472 0.58763 0.0
H531 H 0.64869 0.14323 0.54946 0.0
H532 H 0.65224 0.14522 0.5062 0.0
H533 H 0.49541 0.9927 0.61802 0.0
H534 H 0.64442 0.12478 0.46341 0.0
N535 N 0.60997 0.07879 0.52799 0.0
C536 C 0.61624 0.08825 0.55203 0.0
C537 C 0.63799 0.12515 0.54325 0.0
C538 C 0.63269 0.11487 0.51871 0.0
C539 C 0.62996 0.11163 0.55997 0.0
C540 C 0.61855 0.09135 0.51161 0.0
H541 H 0.62718 0.08693 0.4319 0.0
N542 N 0.60096 0.05714 0.48186 0.0
C543 C 0.60769 0.05457 0.4405 0.0
C544 C 0.61394 0.08009 0.48766 0.0
C545 C 0.59854 0.04386 0.45877 0.0
C546 C 0.62002 0.07871 0.44606 0.0
C547 C 0.6236 0.09167 0.46995 0.0
O548 O 0.6009 0.01257 0.49818 0.0
O549 O 0.55562 0.01736 0.51786 0.0
O550 O 0.54984 0.01937 0.55632 0.0
O551 O 0.5854 0.04045 0.55095 0.0
O552 O 0.57009 1.00647 0.48805 0.0
O553 O 0.61566 0.03723 0.53145 0.0
O554 O 0.51754 0.06481 0.5483 0.0
O555 O 0.56181 0.05997 0.52744 0.0
O556 O 0.56722 0.05358 0.48693 0.0
O557 O 0.53144 0.03561 0.49538 0.0
O558 O 0.54894 0.06945 0.55891 0.0
O559 O 0.50179 0.0395 0.5156 0.0
C560 C 0.55363 0.99986 0.50007 0.0
C561 C 0.63949 0.0177 0.5076 0.0
C562 C 0.67152 0.99906 0.50737 0.0
C563 C 0.65081 1.00155 0.51547 0.0
C564 C 0.68058 0.01287 0.49099 0.0
C565 C 0.64889 0.0315 0.49149 0.0
C566 C 0.66932 0.02898 0.48317 0.0
C567 C 0.57157 0.02651 0.56212 0.0
C568 C 0.61727 0.0185 0.51527 0.0
C569 C 0.63702 0.11545 0.47676 0.0
C570 C 0.6415 0.12707 0.50112 0.0
C571 C 0.56427 0.07688 0.5459 0.0
C572 C 0.47896 0.05994 0.53997 0.0
C573 C 0.46703 0.07482 0.53074 0.0
C574 C 0.44732 0.07892 0.54014 0.0
C575 C 0.43953 0.06767 0.5588 0.0
C576 C 0.47093 0.04864 0.5584 0.0
C577 C 0.45124 0.05253 0.56775 0.0
C578 C 0.54544 0.0456 0.48144 0.0
C579 C 0.50076 0.05859 0.53163 0.0
H580 H 0.64327 0.99065 0.52764 0.0
H581 H 0.6966 0.01162 0.4846 0.0
H582 H 0.64043 0.044 0.48517 0.0
H583 H 0.67648 0.03961 0.47066 0.0
H584 H 0.47352 0.08385 0.51677 0.0
H585 H 0.42427 0.07039 0.56628 0.0
H586 H 0.48 0.03725 0.56585 0.0
H587 H 0.44515 0.04394 0.5821 0.0
Tb588 Tb 0.28065 0.29671 0.77097 0.0
C589 C 0.35793 0.26341 0.81321 0.0
C590 C 0.37395 0.29799 0.84557 0.0
C591 C 0.37645 0.25755 0.8497 0.0
C592 C 0.36213 0.28799 0.82254 0.0
C593 C 0.36574 0.24796 0.82627 0.0
C594 C 0.38048 0.28254 0.85937 0.0
C595 C 0.35425 0.21545 0.79106 0.0
N596 N 0.34769 0.25493 0.79052 0.0
C597 C 0.34683 0.23154 0.77885 0.0
C598 C 0.36336 0.22358 0.81504 0.0
Tb599 Tb 0.33485 0.28218 0.77223 0.0
N600 N 0.35581 0.30225 0.80844 0.0
C601 C 0.36256 0.32709 0.81587 0.0
C602 C 0.37951 0.32322 0.85372 0.0
C603 C 0.37417 0.33783 0.83859 0.0
H604 H 0.33954 0.22507 0.76037 0.0
H605 H 0.37877 0.35743 0.8445 0.0
H606 H 0.38933 0.28985 0.8772 0.0
H607 H 0.35286 0.19678 0.78199 0.0
H608 H 0.35856 0.33917 0.80507 0.0
H609 H 0.23101 0.2254 0.69933 0.0
H610 H 0.38845 0.3316 0.87132 0.0
H611 H 0.27706 0.35403 0.78618 0.0
H612 H 0.25519 0.2418 0.73663 0.0
H613 H 0.26425 0.38425 0.76702 0.0
H614 H 0.38231 0.24593 0.86017 0.0
H615 H 0.22129 0.25284 0.6743 0.0
H616 H 0.22272 0.29543 0.66978 0.0
H617 H 0.36918 0.21112 0.82444 0.0
H618 H 0.232 0.33912 0.68829 0.0
N619 N 0.25953 0.27908 0.73441 0.0
C620 C 0.25123 0.2545 0.72667 0.0
C621 C 0.23204 0.26037 0.69102 0.0
C622 C 0.23965 0.28547 0.69933 0.0
C623 C 0.23741 0.24487 0.70509 0.0
C624 C 0.25319 0.29433 0.72154 0.0
H625 H 0.24709 0.37238 0.72482 0.0
N626 N 0.2687 0.32577 0.7546 0.0
C627 C 0.26259 0.36591 0.75687 0.0
C628 C 0.25815 0.31868 0.73198 0.0
C629 C 0.26978 0.34874 0.76765 0.0
C630 C 0.25302 0.35918 0.73302 0.0
C631 C 0.25007 0.33513 0.72049 0.0
O632 O 0.26423 0.3112 0.79988 0.0
O633 O 0.30866 0.29194 0.79258 0.0
O634 O 0.31232 0.25151 0.78347 0.0
O635 O 0.27699 0.25706 0.77235 0.0
O636 O 0.29662 0.32231 0.80371 0.0
O637 O 0.24984 0.276 0.77813 0.0
O638 O 0.35069 0.26539 0.74412 0.0
O639 O 0.30676 0.28673 0.7505 0.0
O640 O 0.30391 0.32905 0.76236 0.0
O641 O 0.33909 0.32077 0.76847 0.0
O642 O 0.31805 0.25602 0.73988 0.0
O643 O 0.36531 0.30181 0.76345 0.0
C644 C 0.31076 0.31037 0.80935 0.0
C645 C 0.2248 0.29793 0.79716 0.0
C646 C 0.19003 0.29714 0.8167 0.0
C647 C 0.21115 0.29119 0.81501 0.0
C648 C 0.18299 0.3099 0.80019 0.0
C649 C 0.21705 0.31036 0.7809 0.0
C650 C 0.19636 0.31638 0.78251 0.0
C651 C 0.29016 0.24327 0.77897 0.0
C652 C 0.24727 0.29259 0.79607 0.0
C653 C 0.23815 0.32674 0.69751 0.0
C654 C 0.23288 0.30188 0.68696 0.0
C655 C 0.30423 0.26814 0.73377 0.0
C656 C 0.3899 0.27899 0.74516 0.0
C657 C 0.40265 0.28477 0.7264 0.0
C658 C 0.42425 0.28031 0.72531 0.0
C659 C 0.43259 0.26941 0.74275 0.0
C660 C 0.39874 0.26835 0.76244 0.0
C661 C 0.41988 0.2634 0.76107 0.0
C662 C 0.32627 0.33583 0.76459 0.0
C663 C 0.36746 0.28406 0.7464 0.0
H664 H 0.21709 0.28159 0.82764 0.0
H665 H 0.1668 0.3144 0.8005 0.0
H666 H 0.22696 0.31546 0.76695 0.0
H667 H 0.19058 0.32601 0.76984 0.0
H668 H 0.39601 0.29317 0.71308 0.0
H669 H 0.44906 0.26558 0.7422 0.0
H670 H 0.38938 0.26393 0.77702 0.0
H671 H 0.42653 0.25506 0.7744 0.0
Tb672 Tb 0.05583 0.06819 0.53596 0.0
C673 C 0.07659 0.99129 0.46113 0.0
C674 C 0.04156 0.9733 0.43578 0.0
C675 C 0.07656 0.97014 0.41961 0.0
C676 C 0.05344 0.98682 0.45807 0.0
C677 C 0.08832 0.98263 0.44191 0.0
C678 C 0.05324 0.96537 0.4166 0.0
C679 C 0.12237 0.99625 0.46872 0.0
N680 N 0.08754 1.00269 0.48318 0.0
C681 C 0.1101 1.00391 0.4873 0.0
C682 C 0.11149 0.98581 0.44584 0.0
Tb683 Tb 0.06502 0.01222 0.51315 0.0
N684 N 0.0425 0.9949 0.47693 0.0
C685 C 0.01947 0.9903 0.47389 0.0
C686 C 0.0182 0.96779 0.43336 0.0
C687 C 0.00713 0.97646 0.45247 0.0
H688 H 0.11895 0.01074 0.50513 0.0
H689 H 0.98904 0.97307 0.45054 0.0
H690 H 0.04435 0.95522 0.39941 0.0
H691 H 0.14018 0.99787 0.47224 0.0
H692 H 0.00995 0.99803 0.48711 0.0
H693 H 0.1329 0.09725 0.5956 0.0
H694 H 0.00858 0.95732 0.41666 0.0
H695 H 0.00438 0.07465 0.54466 0.0
H696 H 0.10991 0.08207 0.55652 0.0
H697 H 0.98406 0.0884 0.57882 0.0
H698 H 0.08534 0.96348 0.40475 0.0
H699 H 0.1149 0.1075 0.63267 0.0
H700 H 0.0799 0.11217 0.65179 0.0
H701 H 0.12098 0.97941 0.43155 0.0
H702 H 0.03942 0.10999 0.6472 0.0
N703 N 0.07897 0.08251 0.57123 0.0
C704 C 0.10178 0.08625 0.5725 0.0
C705 C 0.10469 0.10061 0.61554 0.0
C706 C 0.08147 0.09805 0.61397 0.0
C707 C 0.11491 0.0949 0.59466 0.0
C708 C 0.06893 0.08879 0.59127 0.0
H709 H 0.00361 0.10142 0.62004 0.0
N710 N 0.03493 0.07897 0.56647 0.0
C711 C 1.00147 0.08796 0.58191 0.0
C712 C 0.04615 0.08715 0.58878 0.0
C713 C 0.01304 0.08023 0.56263 0.0
C714 C 0.01256 0.09525 0.60515 0.0
C715 C 0.03525 0.09525 0.60879 0.0
O716 O 0.03967 0.09328 0.52526 0.0
O717 O 0.05448 0.04301 0.50097 0.0
O718 O 0.09644 0.0393 0.51227 0.0
O719 O 0.084 0.07443 0.51507 0.0
O720 O 0.02694 0.05525 0.50822 0.0
O721 O 0.07509 0.10365 0.53703 0.0
O722 O 0.08698 0.99453 0.52761 0.0
O723 O 0.07505 0.04241 0.5448 0.0
O724 O 0.03026 0.04226 0.54901 0.0
O725 O 0.03066 1.00648 0.52262 0.0
O726 O 0.06191 0.00981 0.55111 0.0
O727 O 0.0539 0.97419 0.51063 0.0
C728 C 0.03555 0.04424 0.49046 0.0
C729 C 0.05655 0.13524 0.5334 0.0
C730 C 0.059 0.1721 0.51843 0.0
C731 C 0.06212 0.14855 0.51579 0.0
C732 C 0.05055 0.18265 0.53915 0.0
C733 C 0.04784 0.14554 0.55402 0.0
C734 C 0.04499 0.16934 0.5569 0.0
C735 C 0.09922 0.06203 0.51001 0.0
C736 C 0.05804 0.10996 0.52783 0.0
C737 C 0.04751 0.10382 0.63158 0.0
C738 C 0.07056 0.1051 0.63419 0.0
C739 C 0.07212 0.03128 0.56241 0.0
C740 C 0.08059 0.9514 0.52062 0.0
C741 C 0.06784 0.93171 0.52868 0.0
C742 C 0.0764 0.91128 0.53004 0.0
C743 C 0.09795 0.91085 0.52328 0.0
C744 C 0.10205 0.95059 0.51397 0.0
C745 C 0.11062 0.93036 0.51525 0.0
C746 C 0.02102 0.0194 0.53867 0.0
C747 C 0.0724 0.97372 0.52281 0.0
H748 H 0.06839 0.14031 0.49957 0.0
H749 H 0.04787 0.20086 0.54132 0.0
H750 H 0.043 0.13515 0.56753 0.0
H751 H 0.03813 0.17734 0.57271 0.0
H752 H 0.05138 0.93244 0.53417 0.0
H753 H 0.10516 0.89555 0.52451 0.0
H754 H 0.11246 0.96578 0.50843 0.0
H755 H 0.12728 0.92995 0.51035 0.0
Tb756 Tb 0.33303 0.80589 0.76605 0.0
C757 C 0.27963 0.73211 0.80922 0.0
C758 C 0.286 0.69535 0.78461 0.0
C759 C 0.27937 0.69662 0.82633 0.0
C760 C 0.28389 0.71958 0.78735 0.0
C761 C 0.27658 0.72047 0.82873 0.0
C762 C 0.28418 0.68413 0.80435 0.0
C763 C 0.26558 0.75564 0.85056 0.0
N764 N 0.27699 0.75513 0.8109 0.0
C765 C 0.26862 0.76634 0.83068 0.0
C766 C 0.26995 0.73277 0.84974 0.0
Tb767 Tb 0.28175 0.77023 0.77671 0.0
N768 N 0.28496 0.73073 0.76848 0.0
C769 C 0.28749 0.71835 0.74612 0.0
C770 C 0.28935 0.68291 0.76198 0.0
C771 C 0.28989 0.69441 0.74261 0.0
H772 H 0.26491 0.7839 0.83128 0.0
H773 H 0.29229 0.68489 0.72498 0.0
H774 H 0.28587 0.66559 0.80262 0.0
H775 H 0.25969 0.76495 0.86642 0.0
H776 H 0.28824 0.72694 0.73095 0.0
H777 H 0.34776 0.9003 0.81447 0.0
H778 H 0.29118 0.66435 0.75918 0.0
H779 H 0.35149 0.78836 0.71223 0.0
H780 H 0.3458 0.85715 0.81084 0.0
H781 H 0.35753 0.80432 0.67559 0.0
H782 H 0.2773 0.68746 0.84119 0.0
H783 H 0.34278 0.91679 0.77828 0.0
H784 H 0.34022 0.91019 0.73353 0.0
H785 H 0.26737 0.72442 0.86509 0.0
H786 H 0.34332 0.88377 0.69512 0.0
N787 N 0.33738 0.84761 0.77249 0.0
C788 C 0.34269 0.86335 0.79459 0.0
C789 C 0.34139 0.89746 0.77645 0.0
C790 C 0.33867 0.88195 0.75382 0.0
C791 C 0.34429 0.88825 0.79688 0.0
C792 C 0.33712 0.85688 0.7524 0.0
H793 H 0.35081 0.8446 0.67358 0.0
N794 N 0.34038 0.8189 0.7308 0.0
C795 C 0.35202 0.81503 0.69087 0.0
C796 C 0.33882 0.84201 0.73077 0.0
C797 C 0.34874 0.80617 0.71181 0.0
C798 C 0.34804 0.83767 0.68974 0.0
C799 C 0.34216 0.85184 0.71009 0.0
O800 O 0.3626 0.79619 0.75596 0.0
O801 O 0.3151 0.76728 0.76459 0.0
O802 O 0.30335 0.78375 0.81038 0.0
O803 O 0.32272 0.81861 0.80097 0.0
O804 O 0.34517 0.77921 0.78341 0.0
O805 O 0.36258 0.82286 0.78875 0.0
O806 O 0.25078 0.77611 0.78545 0.0
O807 O 0.29857 0.80663 0.77201 0.0
O808 O 0.31309 0.79131 0.73079 0.0
O809 O 0.28042 0.76648 0.73874 0.0
O810 O 0.26703 0.80262 0.77932 0.0
O811 O 0.25276 0.74637 0.75612 0.0
C812 C 0.33008 0.75956 0.77606 0.0
C813 C 0.39647 0.8253 0.77126 0.0
C814 C 0.43585 0.8378 0.78561 0.0
C815 C 0.41389 0.82747 0.78886 0.0
C816 C 0.44047 0.8466 0.76477 0.0
C817 C 0.40089 0.83463 0.75065 0.0
C818 C 0.42291 0.84533 0.74749 0.0
C819 C 0.31526 0.80612 0.81691 0.0
C820 C 0.37452 0.8114 0.77463 0.0
C821 C 0.34123 0.87607 0.71093 0.0
C822 C 0.33945 0.89112 0.7328 0.0
C823 C 0.28271 0.81845 0.77362 0.0
C824 C 0.21717 0.74658 0.77159 0.0
C825 C 0.20015 0.74449 0.75339 0.0
C826 C 0.17768 0.73825 0.75755 0.0
C827 C 0.17215 0.73352 0.7799 0.0
C828 C 0.21162 0.74173 0.79393 0.0
C829 C 0.18912 0.73509 0.79798 0.0
C830 C 0.29293 0.77682 0.72418 0.0
C831 C 0.23985 0.75855 0.76804 0.0
H832 H 0.41052 0.81992 0.80464 0.0
H833 H 0.45756 0.85417 0.76183 0.0
H834 H 0.38759 0.83334 0.73693 0.0
H835 H 0.42643 0.85215 0.73142 0.0
H836 H 0.20436 0.74895 0.73635 0.0
H837 H 0.1548 0.72896 0.78342 0.0
H838 H 0.22455 0.74388 0.8084 0.0
H839 H 0.18484 0.73176 0.81533 0.0
Tb840 Tb 0.56822 0.02836 0.0469 0.0
C841 C 0.5029 0.05999 0.97908 0.0
C842 C 0.481 0.02171 0.95527 0.0
C843 C 0.46567 0.05757 0.96045 0.0
C844 C 0.50063 0.03557 0.96988 0.0
C845 C 0.48572 0.07148 0.97397 0.0
C846 C 0.4633 0.03269 0.95114 0.0
C847 C 0.5106 0.10995 0.99318 0.0
N848 N 0.52273 0.07286 0.99147 0.0
C849 C 0.52717 0.09769 0.9976 0.0
C850 C 0.48965 0.09675 0.98162 0.0
Tb851 Tb 0.54953 0.0518 0.99633 0.0
N852 N 0.51847 0.02596 0.97346 0.0
C853 C 0.51835 1.00301 0.96123 0.0
C854 C 0.48024 0.99762 0.94421 0.0
C855 C 0.49915 0.98837 0.9469 0.0
H856 H 0.54337 0.10799 0.00653 0.0
H857 H 0.49905 0.97003 0.93778 0.0
H858 H 0.44806 0.02233 0.94004 0.0
H859 H 0.51401 0.12955 0.99864 0.0
H860 H 0.53295 0.99566 0.96263 0.0
H861 H 0.60598 0.11363 0.10918 0.0
H862 H 0.4655 0.98637 0.93283 0.0
H863 H 0.58264 0.97631 0.03589 0.0
H864 H 0.57885 0.08681 0.077 0.0
H865 H 0.61335 0.95881 0.04881 0.0
H866 H 0.45222 0.06602 0.95641 0.0
H867 H 0.63804 0.09974 0.12493 0.0
H868 H 0.65863 0.0665 0.12378 0.0
H869 H 0.47691 0.10629 0.978 0.0
H870 H 0.66127 0.02472 0.10659 0.0
N871 N 0.59494 0.05711 0.07374 0.0
C872 C 0.59248 0.07998 0.08343 0.0
C873 C 0.6261 0.08769 0.11062 0.0
C874 C 0.62852 0.06432 0.10088 0.0
C875 C 0.608 0.09555 0.10182 0.0
C876 C 0.61256 0.04941 0.08218 0.0
H877 H 0.64462 0.98446 0.07835 0.0
N878 N 0.59741 0.01201 0.05603 0.0
C879 C 0.61386 0.97783 0.05559 0.0
C880 C 0.61397 0.02605 0.07276 0.0
C881 C 0.5966 0.98786 0.04815 0.0
C882 C 0.63148 0.99236 0.07222 0.0
C883 C 0.63145 0.01668 0.08143 0.0
O884 O 0.55231 0.99658 0.05744 0.0
O885 O 0.54281 0.02597 0.01884 0.0
O886 O 0.52978 0.06366 0.0246 0.0
O887 O 0.5488 0.05576 0.05805 0.0
O888 O 0.54958 0.99422 0.02362 0.0
O889 O 0.55373 0.03249 0.07969 0.0
O890 O 0.56605 0.07976 0.98078 0.0
O891 O 0.5745 0.05348 0.02427 0.0
O892 O 0.58947 0.01967 0.01873 0.0
O893 O 0.5671 0.02252 0.98494 0.0
O894 O 0.57499 0.08461 0.0151 0.0
O895 O 0.55736 0.04187 0.96099 0.0
C896 C 0.53597 1.00329 0.01229 0.0
C897 C 0.53328 0.99707 0.09325 0.0
C898 C 0.51556 0.9996 0.13015 0.0
C899 C 0.52894 0.0109 0.11475 0.0
C900 C 0.50641 0.97447 0.12412 0.0
C901 C 0.52407 0.97185 0.08729 0.0
C902 C 0.5107 0.96064 0.10272 0.0
C903 C 0.53391 0.06543 0.04799 0.0
C904 C 0.54625 0.00902 0.0764 0.0
C905 C 0.64773 0.03156 0.09963 0.0
C906 C 0.64618 0.0553 0.10946 0.0
C907 C 0.58669 0.07449 0.0277 0.0
C908 C 0.5677 0.07253 0.93872 0.0
C909 C 0.58567 0.06873 0.92611 0.0
C910 C 0.5901 0.07906 0.90644 0.0
C911 C 0.57598 0.09274 0.89864 0.0
C912 C 0.55331 0.08603 0.93118 0.0
C913 C 0.55739 0.09593 0.91088 0.0
C914 C 0.58397 0.0156 0.99513 0.0
C915 C 0.56693 0.06437 0.96106 0.0
H916 H 0.53589 0.03038 0.11957 0.0
H917 H 0.49616 0.96559 0.13608 0.0
H918 H 0.52699 0.96083 0.07063 0.0
H919 H 0.50366 0.94123 0.09808 0.0
H920 H 0.59704 0.05868 0.93237 0.0
H921 H 0.57937 0.10088 0.88329 0.0
H922 H 0.53942 0.08926 0.94115 0.0
H923 H 0.54646 0.10649 0.90494 0.0
Tb924 Tb 0.31955 0.31517 0.28464 0.0
C925 C 0.24177 0.23369 0.22988 0.0
C926 C 0.22161 0.21793 0.2605 0.0
C927 C 0.2014 0.21757 0.22261 0.0
C928 C 0.24174 0.22943 0.25263 0.0
C929 C 0.22181 0.22662 0.21408 0.0
C930 C 0.2013 0.21328 0.2459 0.0
C931 C 0.2442 0.23292 0.18161 0.0
N932 N 0.2619 0.24132 0.22213 0.0
C933 C 0.26346 0.23937 0.19797 0.0
C934 C 0.22319 0.22708 0.18981 0.0
Tb935 Tb 0.29297 0.25378 0.25019 0.0
N936 N 0.2619 0.23308 0.26548 0.0
C937 C 0.26297 0.22235 0.28491 0.0
C938 C 0.22271 0.20955 0.28175 0.0
C939 C 0.24354 0.21131 0.29373 0.0
H940 H 0.27966 0.24365 0.19143 0.0
H941 H 0.24471 0.20357 0.30943 0.0
H942 H 0.18567 0.20489 0.25184 0.0
H943 H 0.2456 0.23227 0.16269 0.0
H944 H 0.27858 0.22131 0.29372 0.0
H945 H 0.37305 0.34428 0.21779 0.0
H946 H 0.20772 0.20022 0.28815 0.0
H947 H 0.32983 0.32764 0.34375 0.0
H948 H 0.33802 0.3278 0.23202 0.0
H949 H 0.36218 0.34388 0.37454 0.0
H950 H 0.18584 0.21242 0.21089 0.0
H951 H 0.4081 0.35722 0.2451 0.0
H952 H 0.42707 0.36429 0.28669 0.0
H953 H 0.20829 0.22164 0.17706 0.0
H954 H 0.42421 0.36412 0.32944 0.0
N955 N 0.35192 0.33047 0.26822 0.0
C956 C 0.3526 0.3333 0.24488 0.0
C957 C 0.39252 0.34982 0.25176 0.0
C958 C 0.39181 0.34802 0.27574 0.0
C959 C 0.37278 0.34267 0.23636 0.0
C960 C 0.37106 0.33811 0.28349 0.0
H961 H 0.40009 0.3568 0.36238 0.0
N962 N 0.34918 0.32914 0.31419 0.0
C963 C 0.36462 0.34183 0.35568 0.0
C964 C 0.3696 0.33755 0.30734 0.0
C965 C 0.34632 0.33233 0.33813 0.0
C966 C 0.38596 0.34911 0.34875 0.0
C967 C 0.38862 0.34749 0.32437 0.0
O968 O 0.30589 0.3374 0.31037 0.0
O969 O 0.28993 0.28729 0.27069 0.0
O970 O 0.28301 0.27908 0.22948 0.0
O971 O 0.30608 0.31686 0.24885 0.0
O972 O 0.29089 0.30616 0.30473 0.0
O973 O 0.31584 0.34854 0.27763 0.0
O974 O 0.30291 0.23015 0.22227 0.0
O975 O 0.32285 0.28153 0.26332 0.0
O976 O 0.32944 0.29085 0.30565 0.0
O977 O 0.30219 0.25533 0.28914 0.0
O978 O 0.31887 0.26504 0.22775 0.0
O979 O 0.3062 0.22549 0.25867 0.0
C980 C 0.27866 0.28942 0.28796 0.0
C981 C 0.31439 0.37952 0.31118 0.0
C982 C 0.31127 0.42074 0.31177 0.0
C983 C 0.30872 0.39669 0.29954 0.0
C984 C 0.32063 0.42794 0.33584 0.0
C985 C 0.32345 0.38656 0.33539 0.0
C986 C 0.32677 0.41082 0.34757 0.0
C987 C 0.29201 0.30247 0.23065 0.0
C988 C 0.30765 0.35424 0.29801 0.0
C989 C 0.40942 0.35654 0.31666 0.0
C990 C 0.41103 0.35669 0.29234 0.0
C991 C 0.33262 0.27996 0.24469 0.0
C992 C 0.29881 0.19015 0.22794 0.0
C993 C 0.30589 0.1752 0.24159 0.0
C994 C 0.29962 0.15002 0.23388 0.0
C995 C 0.2859 0.13939 0.21231 0.0
C996 C 0.28491 0.17966 0.20628 0.0
C997 C 0.27845 0.15431 0.19858 0.0
C998 C 0.31718 0.26936 0.30694 0.0
C999 C 0.30765 0.2164 0.23625 0.0
H1000 H 0.30168 0.39107 0.28084 0.0
H1001 H 0.32272 0.44651 0.34563 0.0
H1002 H 0.3275 0.37341 0.34499 0.0
H1003 H 0.33366 0.41625 0.36624 0.0
H1004 H 0.31697 0.18321 0.2581 0.0
H1005 H 0.28132 0.11983 0.20602 0.0
H1006 H 0.27931 0.19091 0.19521 0.0
H1007 H 0.26797 0.14625 0.18178 0.0
Tb1008 Tb 0.5554 0.56667 0.03659 0.0
C1009 C 0.57907 0.49036 0.96196 0.0
C1010 C 0.54544 0.47615 0.93391 0.0
C1011 C 0.58144 0.47286 0.92004 0.0
C1012 C 0.55615 0.48684 0.95732 0.0
C1013 C 0.59194 0.48303 0.94347 0.0
C1014 C 0.55825 0.46949 0.91526 0.0
C1015 C 0.6244 0.4949 0.97293 0.0
N1016 N 0.58865 0.50016 0.9848 0.0
C1017 C 0.61093 0.50176 0.99069 0.0
C1018 C 0.6149 0.48567 0.94918 0.0
Tb1019 Tb 0.56501 0.51035 0.01255 0.0
N1020 N 0.54426 0.49299 0.9759 0.0
C1021 C 0.52131 0.48786 0.97224 0.0
C1022 C 0.52213 0.47194 0.93001 0.0
C1023 C 0.51002 0.47767 0.94931 0.0
H1024 H 0.61834 0.50878 0.00906 0.0
H1025 H 0.49194 0.47422 0.94657 0.0
H1026 H 0.55031 0.46129 0.89718 0.0
H1027 H 0.64207 0.49661 0.97759 0.0
H1028 H 0.51131 0.49205 0.98663 0.0
H1029 H 0.62855 0.60384 0.10266 0.0
H1030 H 0.51331 0.46388 0.91228 0.0
H1031 H 0.50252 0.5693 0.03923 0.0
H1032 H 0.60849 0.58008 0.06476 0.0
H1033 H 0.47977 0.58824 0.06805 0.0
H1034 H 0.59106 0.46719 0.90558 0.0
H1035 H 0.60849 0.62383 0.13384 0.0
H1036 H 0.57245 0.63281 0.14667 0.0
H1037 H 0.62535 0.48021 0.93548 0.0
H1038 H 0.53198 0.62832 0.13747 0.0
N1039 N 0.57631 0.58607 0.07296 0.0
C1040 C 0.59899 0.58872 0.07746 0.0
C1041 C 0.59934 0.61335 0.11691 0.0
C1042 C 0.5763 0.61087 0.11239 0.0
C1043 C 0.6107 0.60217 0.09936 0.0
C1044 C 0.56514 0.59694 0.09003 0.0
H1045 H 0.49731 0.61165 0.1083 0.0
N1046 N 0.53248 0.58082 0.0633 0.0
C1047 C 0.49735 0.58992 0.07313 0.0
C1048 C 0.54244 0.59417 0.08504 0.0
C1049 C 0.5103 0.57912 0.05689 0.0
C1050 C 0.50731 0.60312 0.09582 0.0
C1051 C 0.53015 0.60557 0.10197 0.0
O1052 O 0.54003 0.58789 0.01839 0.0
O1053 O 0.55426 0.54105 1.00241 0.0
O1054 O 0.58888 0.53644 0.99776 0.0
O1055 O 0.58998 0.57069 0.02694 0.0
O1056 O 0.52676 0.55384 0.00793 0.0
O1057 O 0.57452 0.60106 0.03372 0.0
O1058 O 0.58017 0.48866 0.03025 0.0
O1059 O 0.56574 0.53557 0.04707 0.0
O1060 O 0.53109 0.54167 0.0517 0.0
O1061 O 0.53099 0.5061 0.02435 0.0
O1062 O 0.59307 0.52203 0.04144 0.0
O1063 O 0.54747 0.47385 0.01066 0.0
C1064 C 0.53546 0.54141 0.99135 0.0
C1065 C 0.55404 0.63011 0.02667 0.0
C1066 C 0.56228 0.67005 0.01737 0.0
C1067 C 0.56712 0.64733 0.01603 0.0
C1068 C 0.54431 0.67573 0.02945 0.0
C1069 C 0.53602 0.63584 0.03879 0.0
C1070 C 0.53121 0.6586 0.04015 0.0
C1071 C 0.59878 0.5588 0.00922 0.0
C1072 C 0.55778 0.60552 0.0217 0.0
C1073 C 0.54112 0.61941 0.12424 0.0
C1074 C 0.56415 0.62201 0.12946 0.0
C1075 C 0.58431 0.53431 0.05812 0.0
C1076 C 0.56967 0.44629 0.01864 0.0
C1077 C 0.55875 0.42762 0.02924 0.0
C1078 C 0.56649 0.40626 0.0278 0.0
C1079 C 0.58554 0.40398 0.0159 0.0
C1080 C 0.58838 0.44345 0.00642 0.0
C1081 C 0.59631 0.42244 0.00519 0.0
C1082 C 0.52178 0.51873 0.04133 0.0
C1083 C 0.56352 0.4698 0.0241 0.0
H1084 H 0.58081 0.6429 0.00627 0.0
H1085 H 0.5404 0.6933 0.03046 0.0
H1086 H 0.52535 0.62267 0.04664 0.0
H1087 H 0.51718 0.66285 0.04926 0.0
H1088 H 0.54433 0.42983 0.03875 0.0
H1089 H 0.59215 0.38793 0.01494 0.0
H1090 H 0.59728 0.45768 0.99847 0.0
H1091 H 0.61101 0.42057 0.99614 0.0
Tb1092 Tb 0.83244 0.3066 0.26224 0.0
C1093 C 0.77481 0.23727 0.31351 0.0
C1094 C 0.77638 0.19692 0.29274 0.0
C1095 C 0.76601 0.20336 0.33353 0.0
C1096 C 0.77901 0.22195 0.29335 0.0
C1097 C 0.76803 0.22813 0.33376 0.0
C1098 C 0.77016 0.18778 0.31304 0.0
C1099 C 0.76412 0.26821 0.35228 0.0
N1100 N 0.77646 0.26097 0.31289 0.0
C1101 C 0.77065 0.27636 0.33168 0.0
C1102 C 0.7629 0.24401 0.35338 0.0
Tb1103 Tb 0.78522 0.27186 0.27753 0.0
N1104 N 0.78473 0.23138 0.27399 0.0
C1105 C 0.78757 0.2164 0.25313 0.0
C1106 C 0.77951 0.18169 0.27156 0.0
C1107 C 0.78517 0.1915 0.25169 0.0
H1108 H 0.77132 0.29504 0.33094 0.0
H1109 H 0.78757 0.17987 0.23516 0.0
H1110 H 0.76816 0.16863 0.31293 0.0
H1111 H 0.75985 0.28054 0.3672 0.0
H1112 H 0.7916 0.22332 0.23734 0.0
H1113 H 0.82615 0.39863 0.29968 0.0
H1114 H 0.77741 0.16234 0.27028 0.0
H1115 H 0.85116 0.28362 0.21104 0.0
H1116 H 0.82615 0.35653 0.30029 0.0
H1117 H 0.86272 0.2969 0.17454 0.0
H1118 H 0.76086 0.196 0.34892 0.0
H1119 H 0.83399 0.41423 0.26296 0.0
H1120 H 0.84492 0.40686 0.22098 0.0
H1121 H 0.75759 0.23768 0.36925 0.0
H1122 H 0.85514 0.37926 0.18702 0.0
N1123 N 0.83233 0.34683 0.26372 0.0
C1124 C 0.82908 0.36246 0.2839 0.0
C1125 C 0.83361 0.39538 0.26299 0.0
C1126 C 0.83818 0.37983 0.2428 0.0
C1127 C 0.82923 0.38667 0.28372 0.0
C1128 C 0.83737 0.35539 0.24375 0.0
H1129 H 0.86197 0.33833 0.16964 0.0
N1130 N 0.84283 0.31689 0.22689 0.0
C1131 C 0.85707 0.30916 0.18846 0.0
C1132 C 0.84296 0.33992 0.2247 0.0
C1133 C 0.85036 0.30167 0.20931 0.0
C1134 C 0.85659 0.33253 0.18573 0.0
C1135 C 0.84972 0.34835 0.20407 0.0
O1136 O 0.86406 0.2989 0.2619 0.0
O1137 O 0.82097 0.27168 0.27411 0.0
O1138 O 0.80887 0.28066 0.30938 0.0
O1139 O 0.82747 0.31609 0.3001 0.0
O1140 O 0.83649 0.27039 0.24457 0.0
O1141 O 0.85895 0.33037 0.28633 0.0
O1142 O 0.75314 0.27745 0.28156 0.0
O1143 O 0.79726 0.30599 0.26596 0.0
O1144 O 0.80934 0.29829 0.23007 0.0
O1145 O 0.78819 0.26359 0.23893 0.0
O1146 O 0.77773 0.30798 0.2925 0.0
O1147 O 0.75855 0.24893 0.25306 0.0
C1148 C 0.82964 0.25687 0.25938 0.0
C1149 C 0.89539 0.33074 0.27528 0.0
C1150 C 0.93511 0.33869 0.28753 0.0
C1151 C 0.9129 0.33065 0.29181 0.0
C1152 C 0.9396 0.34792 0.26678 0.0
C1153 C 0.89986 0.34001 0.2547 0.0
C1154 C 0.92199 0.34879 0.25061 0.0
C1155 C 0.82218 0.30238 0.31577 0.0
C1156 C 0.87319 0.31776 0.27869 0.0
C1157 C 0.85002 0.37246 0.20272 0.0
C1158 C 0.84421 0.38817 0.22204 0.0
C1159 C 0.7875 0.32107 0.27856 0.0
C1160 C 0.72189 0.24562 0.26517 0.0
C1161 C 0.70535 0.24518 0.24732 0.0
C1162 C 0.6827 0.23919 0.25094 0.0
C1163 C 0.67669 0.23029 0.27149 0.0
C1164 C 0.71599 0.23714 0.28584 0.0
C1165 C 0.69335 0.22884 0.28862 0.0
C1166 C 0.7944 0.27749 0.22355 0.0
C1167 C 0.74411 0.25989 0.26332 0.0
H1168 H 0.90914 0.32348 0.3077 0.0
H1169 H 0.95663 0.35385 0.26273 0.0
H1170 H 0.88645 0.33989 0.24158 0.0
H1171 H 0.92552 0.35563 0.23455 0.0
H1172 H 0.71028 0.25171 0.23139 0.0
H1173 H 0.65933 0.22563 0.27493 0.0
H1174 H 0.72866 0.23779 0.30008 0.0
H1175 H 0.68869 0.22256 0.30469 0.0
Tb1176 Tb 0.07012 0.53227 0.55233 0.0
C1177 C 0.00349 0.5612 0.48397 0.0
C1178 C 0.98183 0.5227 0.46036 0.0
C1179 C 0.96546 0.55777 0.46684 0.0
C1180 C 1.00167 0.53692 0.47446 0.0
C1181 C 0.98571 0.57214 0.47955 0.0
C1182 C 0.9635 0.53304 0.45731 0.0
C1183 C 0.01043 0.61114 0.49717 0.0
N1184 N 0.02348 0.57457 0.49559 0.0
C1185 C 0.02755 0.59943 0.50106 0.0
C1186 C 0.98926 0.59739 0.48684 0.0
Tb1187 Tb 0.05101 0.5543 0.50041 0.0
N1188 N 0.02006 0.52791 0.47706 0.0
C1189 C 0.02005 0.50514 0.46416 0.0
C1190 C 0.98143 0.49896 0.44858 0.0
C1191 C 1.00079 0.49036 0.45008 0.0
H1192 H 0.04389 0.61014 0.50922 0.0
H1193 H 1.00092 0.47227 0.44041 0.0
H1194 H 0.9481 0.52234 0.44672 0.0
H1195 H 0.01358 0.63076 0.50216 0.0
H1196 H 0.03455 0.49764 0.46461 0.0
H1197 H 0.10861 0.62166 0.6075 0.0
H1198 H 0.96658 0.4875 0.43752 0.0
H1199 H 0.0871 0.48128 0.54338 0.0
H1200 H 0.08155 0.59281 0.57667 0.0
H1201 H 0.11878 0.46594 0.55703 0.0
H1202 H 0.95153 0.56579 0.46347 0.0
H1203 H 0.14011 0.60899 0.62616 0.0
H1204 H 0.16022 0.57607 0.62905 0.0
H1205 H 0.97607 0.60651 0.48369 0.0
H1206 H 0.16392 0.53424 0.6141 0.0
N1207 N 0.09704 0.563 0.57706 0.0
C1208 C 0.09488 0.58642 0.58442 0.0
C1209 C 0.12822 0.59603 0.6124 0.0
C1210 C 0.13055 0.57225 0.6048 0.0
C1211 C 0.11043 0.6032 0.60196 0.0
C1212 C 0.11477 0.55619 0.58656 0.0
H1213 H 0.14913 0.49338 0.58652 0.0
N1214 N 0.10082 0.51788 0.56144 0.0
C1215 C 0.11872 0.48494 0.56287 0.0
C1216 C 0.11688 0.53286 0.57822 0.0
C1217 C 0.10103 0.49385 0.55456 0.0
C1218 C 0.13573 0.50044 0.57957 0.0
C1219 C 0.13468 0.52458 0.58791 0.0
O1220 O 0.05721 0.50068 0.56499 0.0
O1221 O 0.04393 0.53086 0.5253 0.0
O1222 O 0.03371 0.56956 0.53 0.0
O1223 O 0.05129 0.56001 0.5634 0.0
O1224 O 0.04694 0.49859 0.53306 0.0
O1225 O 0.05724 0.53706 0.58576 0.0
O1226 O 0.06695 0.58253 0.48465 0.0
O1227 O 0.07681 0.55451 0.52705 0.0
O1228 O 0.08782 0.51926 0.52255 0.0
O1229 O 0.06462 0.52194 0.48941 0.0
O1230 O 0.07904 0.58551 0.51692 0.0
O1231 O 0.06037 0.54458 0.46573 0.0
C1232 C 0.0351 0.50848 0.52051 0.0
C1233 C 0.0411 0.50258 0.60283 0.0
C1234 C 0.01811 0.50518 0.63592 0.0
C1235 C 0.02971 0.51584 0.61891 0.0
C1236 C 0.01806 0.48101 0.63684 0.0
C1237 C 0.04102 0.47847 0.60388 0.0
C1238 C 0.02957 0.46778 0.62091 0.0
C1239 C 0.03765 0.57119 0.55346 0.0
C1240 C 0.05182 0.51358 0.58417 0.0
C1241 C 0.15027 0.54032 0.60627 0.0
C1242 C 0.14808 0.56407 0.61489 0.0
C1243 C 0.09024 0.57454 0.52906 0.0
C1244 C 0.06916 0.57455 0.44233 0.0
C1245 C 0.0818 0.56372 0.42593 0.0
C1246 C 0.08655 0.57242 0.40527 0.0
C1247 C 0.07802 0.59193 0.40062 0.0
C1248 C 0.06041 0.5939 0.43771 0.0
C1249 C 0.06471 0.60241 0.41669 0.0
C1250 C 0.07983 0.51278 0.49952 0.0
C1251 C 0.06893 0.56722 0.46531 0.0
H1252 H 0.02933 0.53428 0.6178 0.0
H1253 H 0.00938 0.47249 0.65004 0.0
H1254 H 0.04968 0.46787 0.59149 0.0
H1255 H 0.02957 0.4492 0.62173 0.0
H1256 H 0.08911 0.54924 0.42996 0.0
H1257 H 0.08164 0.59899 0.38467 0.0
H1258 H 0.05084 0.60273 0.4505 0.0
H1259 H 0.05817 0.61746 0.41313 0.0
Tb1260 Tb 0.77902 0.79213 0.27116 0.0
C1261 C 0.8558 0.76439 0.31265 0.0
C1262 C 0.86937 0.7974 0.34737 0.0
C1263 C 0.87316 0.7568 0.34902 0.0
C1264 C 0.85885 0.78867 0.32357 0.0
C1265 C 0.86372 0.74842 0.32503 0.0
C1266 C 0.87595 0.78124 0.36018 0.0
C1267 C 0.85591 0.71804 0.28808 0.0
N1268 N 0.84701 0.75693 0.28926 0.0
C1269 C 0.84863 0.73459 0.27647 0.0
C1270 C 0.86306 0.72481 0.31259 0.0
Tb1271 Tb 0.83545 0.78596 0.27212 0.0
N1272 N 0.85276 0.80399 0.31051 0.0
C1273 C 0.85757 0.82849 0.32032 0.0
C1274 C 0.87358 0.82224 0.35745 0.0
C1275 C 0.86778 0.83784 0.3438 0.0
H1276 H 0.84322 0.72909 0.25742 0.0
H1277 H 0.87098 0.85714 0.3514 0.0
H1278 H 0.88385 0.78763 0.37849 0.0
H1279 H 0.85617 0.70014 0.27805 0.0
H1280 H 0.85283 0.84128 0.311 0.0
H1281 H 0.73462 0.71804 0.19781 0.0
H1282 H 0.88163 0.8296 0.37561 0.0
H1283 H 0.77102 0.84927 0.28225 0.0
H1284 H 0.75091 0.73566 0.2388 0.0
H1285 H 0.76063 0.87741 0.25868 0.0
H1286 H 0.87909 0.74472 0.35885 0.0
H1287 H 0.73208 0.74419 0.16884 0.0
H1288 H 0.73606 0.78614 0.16146 0.0
H1289 H 0.86899 0.71206 0.32148 0.0
H1290 H 0.74314 0.83004 0.17818 0.0
N1291 N 0.75988 0.77248 0.23395 0.0
C1292 C 0.75086 0.74789 0.22686 0.0
C1293 C 0.7397 0.75231 0.18705 0.0
C1294 C 0.74682 0.77751 0.19489 0.0
C1295 C 0.74107 0.73752 0.20334 0.0
C1296 C 0.75666 0.78719 0.21882 0.0
H1297 H 0.75136 0.86408 0.21465 0.0
N1298 N 0.76854 0.82023 0.25172 0.0
C1299 C 0.76098 0.85914 0.24976 0.0
C1300 C 0.76109 0.81193 0.22806 0.0
C1301 C 0.76677 0.84304 0.26305 0.0
C1302 C 0.75588 0.85159 0.22492 0.0
C1303 C 0.75517 0.82753 0.21386 0.0
O1304 O 0.76421 0.81127 0.29894 0.0
O1305 O 0.81156 0.80134 0.29244 0.0
O1306 O 0.81299 0.74982 0.27496 0.0
O1307 O 0.77598 0.75328 0.27117 0.0
O1308 O 0.78487 0.78387 0.3063 0.0
O1309 O 0.7456 0.77755 0.27639 0.0
O1310 O 0.85208 0.76921 0.24458 0.0
O1311 O 0.80275 0.77645 0.25089 0.0
O1312 O 0.8021 0.8279 0.26777 0.0
O1313 O 0.83917 0.82489 0.27225 0.0
O1314 O 0.82965 0.79223 0.23608 0.0
O1315 O 0.86877 0.80275 0.26899 0.0
C1316 C 0.80557 0.79456 0.31136 0.0
C1317 C 0.72417 0.80278 0.29781 0.0
C1318 C 0.69026 0.8027 0.31881 0.0
C1319 C 0.71083 0.79581 0.31578 0.0
C1320 C 0.68364 0.81713 0.30379 0.0
C1321 C 0.71664 0.81643 0.28268 0.0
C1322 C 0.69671 0.82386 0.28593 0.0
C1323 C 0.79092 0.74026 0.27358 0.0
C1324 C 0.74537 0.79483 0.29481 0.0
C1325 C 0.74728 0.81824 0.18949 0.0
C1326 C 0.74319 0.79324 0.17998 0.0
C1327 C 0.80873 0.78253 0.23173 0.0
C1328 C 0.89209 0.77911 0.24919 0.0
C1329 C 0.90551 0.78431 0.23072 0.0
C1330 C 0.92654 0.77824 0.2296 0.0
C1331 C 0.93371 0.76673 0.24721 0.0
C1332 C 0.9 0.76817 0.26672 0.0
C1333 C 0.92054 0.76177 0.26553 0.0
C1334 C 0.82419 0.83767 0.26912 0.0
C1335 C 0.87047 0.78629 0.25039 0.0
H1336 H 0.71643 0.7849 0.32725 0.0
H1337 H 0.6679 0.82252 0.30519 0.0
H1338 H 0.72586 0.82102 0.26811 0.0
H1339 H 0.69109 0.83449 0.2742 0.0
H1340 H 0.89959 0.79311 0.21733 0.0
H1341 H 0.94987 0.76216 0.2473 0.0
H1342 H 0.89057 0.76492 0.28156 0.0
H1343 H 0.9265 0.75329 0.27915 0.0
Tb1344 Tb 0.81629 0.27773 0.74419 0.0
C1345 C 0.78745 0.35496 0.81826 0.0
C1346 C 0.82205 0.37706 0.84259 0.0
C1347 C 0.79008 0.39528 0.84302 0.0
C1348 C 0.80918 0.35592 0.82663 0.0
C1349 C 0.7776 0.37465 0.82655 0.0
C1350 C 0.81225 0.39646 0.85106 0.0
C1351 C 0.74294 0.3513 0.80385 0.0
N1352 N 0.77568 0.33445 0.8028 0.0
C1353 C 0.7532 0.33214 0.79662 0.0
C1354 C 0.75522 0.37274 0.81877 0.0
Tb1355 Tb 0.7923 0.30163 0.7975 0.0
N1356 N 0.81784 0.33637 0.81887 0.0
C1357 C 0.84023 0.33829 0.82458 0.0
C1358 C 0.84447 0.37825 0.84944 0.0
C1359 C 0.85371 0.35896 0.83996 0.0
H1360 H 0.7428 0.31539 0.78592 0.0
H1361 H 0.87134 0.36008 0.8442 0.0
H1362 H 0.82179 0.41263 0.86357 0.0
H1363 H 0.72537 0.34926 0.79831 0.0
H1364 H 0.84849 0.32481 0.8162 0.0
H1365 H 0.74828 0.22423 0.67571 0.0
H1366 H 0.85494 0.39424 0.86141 0.0
H1367 H 0.86509 0.26435 0.76131 0.0
H1368 H 0.76448 0.25642 0.70971 0.0
H1369 H 0.88275 0.23027 0.75342 0.0
H1370 H 0.78271 0.41041 0.84969 0.0
H1371 H 0.76627 0.19019 0.66375 0.0
H1372 H 0.79667 0.16988 0.67155 0.0
H1373 H 0.7471 0.38742 0.82476 0.0
H1374 H 0.83182 0.17035 0.69434 0.0
N1375 N 0.79436 0.24437 0.71651 0.0
C1376 C 0.7743 0.24367 0.70408 0.0
C1377 C 0.77426 0.20517 0.67846 0.0
C1378 C 0.79405 0.20502 0.69155 0.0
C1379 C 0.76419 0.22442 0.68501 0.0
C1380 C 0.80388 0.22502 0.7107 0.0
H1381 H 0.86353 0.19228 0.72509 0.0
N1382 N 0.83344 0.24515 0.74107 0.0
C1383 C 0.86589 0.22826 0.74535 0.0
C1384 C 0.82358 0.22513 0.72379 0.0
C1385 C 0.85533 0.24747 0.75016 0.0
C1386 C 0.85503 0.20694 0.72934 0.0
C1387 C 0.83404 0.20546 0.71769 0.0
O1388 O 0.85014 0.29329 0.74171 0.0
O1389 O 0.8185 0.30748 0.77465 0.0
O1390 O 0.77455 0.3082 0.765 0.0
O1391 O 0.78775 0.29041 0.72977 0.0
O1392 O 0.82107 0.31554 0.74146 0.0
O1393 O 0.82662 0.27698 0.70977 0.0
O1394 O 0.7591 0.28659 0.80222 0.0
O1395 O 0.78991 0.27166 0.76706 0.0
O1396 O 0.83209 0.27013 0.77761 0.0
O1397 O 0.82083 0.29012 0.81304 0.0
O1398 O 0.78707 0.26402 0.80102 0.0
O1399 O 0.78391 0.30376 0.83291 0.0
C1400 C 0.82152 0.32479 0.76392 0.0
C1401 C 0.86072 0.30339 0.70494 0.0
C1402 C 0.86479 0.33317 0.67992 0.0
C1403 C 0.85185 0.31972 0.69429 0.0
C1404 C 0.88646 0.33028 0.67622 0.0
C1405 C 0.88246 0.30072 0.70124 0.0
C1406 C 0.89527 0.31411 0.68692 0.0
C1407 C 0.77371 0.30224 0.74109 0.0
C1408 C 0.8474 0.28728 0.7183 0.0
C1409 C 0.82398 0.18547 0.69916 0.0
C1410 C 0.80409 0.1853 0.68606 0.0
C1411 C 0.78623 0.25486 0.77855 0.0
C1412 C 0.75221 0.27353 0.83822 0.0
C1413 C 0.76406 0.26653 0.85634 0.0
C1414 C 0.75292 0.24936 0.86852 0.0
C1415 C 0.72989 0.23917 0.86255 0.0
C1416 C 0.72908 0.26346 0.83269 0.0
C1417 C 0.71802 0.24633 0.84477 0.0
C1418 C 0.83398 0.27723 0.80153 0.0
C1419 C 0.7631 0.2921 0.82561 0.0
H1420 H 0.83494 0.32163 0.69674 0.0
H1421 H 0.89645 0.3404 0.66491 0.0
H1422 H 0.88937 0.28788 0.70907 0.0
H1423 H 0.91193 0.31175 0.6839 0.0
H1424 H 0.78186 0.27429 0.86098 0.0
H1425 H 0.72105 0.22604 0.87197 0.0
H1426 H 0.71954 0.26899 0.81909 0.0
H1427 H 0.7002 0.23872 0.84046 0.0
Tb1428 Tb 0.82385 0.81225 0.7817 0.0
C1429 C 0.73472 0.7435 0.74133 0.0
C1430 C 0.71543 0.73731 0.7762 0.0
C1431 C 0.69415 0.72785 0.73705 0.0
C1432 C 0.73549 0.74413 0.76571 0.0
C1433 C 0.71395 0.73512 0.72672 0.0
C1434 C 0.69489 0.72893 0.76173 0.0
C1435 C 0.73375 0.73868 0.69208 0.0
N1436 N 0.7543 0.74975 0.73171 0.0
C1437 C 0.75387 0.74621 0.70705 0.0
C1438 C 0.71367 0.7332 0.70195 0.0
Tb1439 Tb 0.78653 0.75407 0.75703 0.0
N1440 N 0.75577 0.75121 0.77911 0.0
C1441 C 0.75643 0.75444 0.80369 0.0
C1442 C 0.7165 0.73917 0.801 0.0
C1443 C 0.73701 0.74847 0.81485 0.0
H1444 H 0.76913 0.74841 0.69839 0.0
H1445 H 0.73794 0.75104 0.83422 0.0
H1446 H 0.67945 0.72336 0.76949 0.0
H1447 H 0.73385 0.7363 0.67279 0.0
H1448 H 0.77153 0.76237 0.81541 0.0
H1449 H 0.87397 0.80934 0.70601 0.0
H1450 H 0.7015 0.7342 0.80969 0.0
H1451 H 0.84157 0.81823 0.84101 0.0
H1452 H 0.84107 0.79487 0.72593 0.0
H1453 H 0.87561 0.83872 0.86737 0.0
H1454 H 0.67818 0.72115 0.72605 0.0
H1455 H 0.9083 0.83601 0.72992 0.0
H1456 H 0.9287 0.85686 0.77062 0.0
H1457 H 0.69811 0.72669 0.6902 0.0
H1458 H 0.92925 0.86417 0.81463 0.0
N1459 N 0.85514 0.8156 0.76086 0.0
C1460 C 0.85536 0.80746 0.73667 0.0
C1461 C 0.89362 0.83017 0.73879 0.0
C1462 C 0.89409 0.83647 0.76375 0.0
C1463 C 0.87432 0.81507 0.72527 0.0
C1464 C 0.87449 0.82834 0.77435 0.0
H1465 H 0.90987 0.85666 0.85072 0.0
N1466 N 0.85622 0.82158 0.80814 0.0
C1467 C 0.87583 0.83648 0.84811 0.0
C1468 C 0.87505 0.8315 0.79895 0.0
C1469 C 0.85654 0.82414 0.8327 0.0
C1470 C 0.89505 0.84677 0.83868 0.0
C1471 C 0.89491 0.84419 0.81384 0.0
O1472 O 0.81946 0.83527 0.81336 0.0
O1473 O 0.79085 0.78884 0.78041 0.0
O1474 O 0.78839 0.77871 0.73125 0.0
O1475 O 0.81473 0.81578 0.74541 0.0
O1476 O 0.79227 0.82245 0.77475 0.0
O1477 O 0.83365 0.85004 0.78407 0.0
O1478 O 0.79087 0.73093 0.72535 0.0
O1479 O 0.82002 0.77673 0.75969 0.0
O1480 O 0.82254 0.78843 0.80811 0.0
O1481 O 0.79832 0.74995 0.79254 0.0
O1482 O 0.817 0.74102 0.76144 0.0
O1483 O 0.77253 0.71666 0.75284 0.0
C1484 C 0.77868 0.8031 0.7775 0.0
C1485 C 0.81978 0.87617 0.81425 0.0
C1486 C 0.79718 0.90415 0.80766 0.0
C1487 C 0.80416 0.88269 0.79965 0.0
C1488 C 0.80561 0.91883 0.83046 0.0
C1489 C 0.82802 0.89078 0.83708 0.0
C1490 C 0.8209 0.91202 0.84517 0.0
C1491 C 0.79981 0.80031 0.72868 0.0
C1492 C 0.82856 0.85479 0.80616 0.0
C1493 C 0.91399 0.85397 0.80346 0.0
C1494 C 0.91364 0.84995 0.77843 0.0
C1495 C 0.831 0.76127 0.76261 0.0
C1496 C 0.78719 0.68947 0.72482 0.0
C1497 C 0.80393 0.68457 0.73936 0.0
C1498 C 0.81269 0.66435 0.73142 0.0
C1499 C 0.80414 0.64846 0.70931 0.0
C1500 C 0.77846 0.67343 0.70282 0.0
C1501 C 0.78682 0.65287 0.69518 0.0
C1502 C 0.81237 0.76605 0.8098 0.0
C1503 C 0.77921 0.71167 0.73146 0.0
H1504 H 0.79807 0.87162 0.78185 0.0
H1505 H 0.80041 0.93554 0.8368 0.0
H1506 H 0.84018 0.88587 0.84853 0.0
H1507 H 0.82742 0.92335 0.86271 0.0
H1508 H 0.81048 0.69653 0.75659 0.0
H1509 H 0.81071 0.63262 0.70316 0.0
H1510 H 0.76535 0.67695 0.69145 0.0
H1511 H 0.78005 0.64052 0.6782 0.0
Tb1512 Tb 0.53153 0.52392 0.51122 0.0
C1513 C 0.60128 0.60938 0.56316 0.0
C1514 C 0.6092 0.63391 0.53339 0.0
C1515 C 0.61789 0.65292 0.5757 0.0
C1516 C 0.60116 0.6111 0.53936 0.0
C1517 C 0.60997 0.63032 0.5816 0.0
C1518 C 0.6175 0.65471 0.55165 0.0
C1519 C 0.60488 0.60488 0.61049 0.0
N1520 N 0.5941 0.58711 0.56826 0.0
C1521 C 0.59696 0.58467 0.59167 0.0
C1522 C 0.61129 0.62786 0.60546 0.0
Tb1523 Tb 0.58519 0.55442 0.53565 0.0
N1524 N 0.59361 0.5905 0.52208 0.0
C1525 C 0.59294 0.59209 0.49833 0.0
C1526 C 0.60891 0.63521 0.50923 0.0
C1527 C 0.60049 0.61424 0.49165 0.0
H1528 H 0.59353 0.56692 0.59601 0.0
H1529 H 0.59961 0.6151 0.47285 0.0
H1530 H 0.62382 0.67225 0.54733 0.0
H1531 H 0.60667 0.60259 0.62882 0.0
H1532 H 0.58543 0.57684 0.48406 0.0
H1533 H 0.51256 0.46847 0.57823 0.0
H1534 H 0.61491 0.65233 0.50397 0.0
H1535 H 0.52514 0.50668 0.45034 0.0
H1536 H 0.52289 0.50589 0.56489 0.0
H1537 H 0.51537 0.46891 0.41997 0.0
H1538 H 0.62468 0.66908 0.58961 0.0
H1539 H 0.50575 0.42916 0.54944 0.0
H1540 H 0.50264 0.40637 0.50731 0.0
H1541 H 0.61793 0.64346 0.62004 0.0
H1542 H 0.50374 0.40645 0.4645 0.0
N1543 N 0.52294 0.48963 0.52762 0.0
C1544 C 0.52018 0.48965 0.55135 0.0
C1545 C 0.51059 0.44589 0.54314 0.0
C1546 C 0.51268 0.44559 0.51891 0.0
C1547 C 0.51428 0.46801 0.55938 0.0
C1548 C 0.51919 0.46793 0.51152 0.0
H1549 H 0.50842 0.42943 0.432 0.0
N1550 N 0.52615 0.48952 0.48047 0.0
C1551 C 0.51719 0.46828 0.4388 0.0
C1552 C 0.52069 0.46789 0.48734 0.0
C1553 C 0.52291 0.48974 0.45634 0.0
C1554 C 0.5133 0.44609 0.44566 0.0
C1555 C 0.51451 0.44563 0.47007 0.0
O1556 O 0.51214 0.53172 0.48357 0.0
O1557 O 0.5569 0.55714 0.5128 0.0
O1558 O 0.56187 0.55587 0.56556 0.0
O1559 O 0.52497 0.5394 0.5487 0.0
O1560 O 0.52631 0.56079 0.52173 0.0
O1561 O 0.49661 0.51098 0.50877 0.0
O1562 O 0.60621 0.54367 0.55971 0.0
O1563 O 0.55943 0.5213 0.53403 0.0
O1564 O 0.55572 0.52025 0.4824 0.0
O1565 O 0.59112 0.54356 0.49744 0.0
O1566 O 0.58933 0.51712 0.52389 0.0
O1567 O 0.61965 0.56161 0.53168 0.0
C1568 C 0.54551 0.57311 0.5183 0.0
C1569 C 0.47244 0.52268 0.48142 0.0
C1570 C 0.44121 0.54128 0.48879 0.0
C1571 C 0.46249 0.53866 0.49627 0.0
C1572 C 0.43022 0.52786 0.46625 0.0
C1573 C 0.4615 0.50958 0.45896 0.0
C1574 C 0.44043 0.51221 0.45139 0.0
C1575 C 0.53976 0.5505 0.5679 0.0
C1576 C 0.49391 0.51848 0.48889 0.0
C1577 C 0.50848 0.42358 0.47752 0.0
C1578 C 0.50774 0.42355 0.50187 0.0
C1579 C 0.57041 0.50518 0.52807 0.0
C1580 C 0.64598 0.5583 0.56268 0.0
C1581 C 0.6632 0.55095 0.5506 0.0
C1582 C 0.68393 0.55274 0.56303 0.0
C1583 C 0.68786 0.56316 0.58772 0.0
C1584 C 0.64987 0.56867 0.58739 0.0
C1585 C 0.67094 0.57147 0.59975 0.0
C1586 C 0.57708 0.52925 0.47918 0.0
C1587 C 0.62379 0.55114 0.54915 0.0
H1588 H 0.47124 0.54886 0.51351 0.0
H1589 H 0.41355 0.52909 0.46029 0.0
H1590 H 0.46919 0.4971 0.4474 0.0
H1591 H 0.43189 0.50187 0.43415 0.0
H1592 H 0.65986 0.54197 0.53172 0.0
H1593 H 0.70375 0.56436 0.5977 0.0
H1594 H 0.63668 0.57387 0.59728 0.0
H1595 H 0.67389 0.57926 0.61885 0.0
Tb1596 Tb 0.08605 0.54191 0.01569 0.0
C1597 C 1.0006 0.49918 0.05801 0.0
C1598 C 0.97895 0.46532 0.02772 0.0
C1599 C 0.97417 0.46671 0.06987 0.0
C1600 C 0.99555 0.48727 0.03423 0.0
C1601 C 0.98967 0.48931 0.0761 0.0
C1602 C 0.96871 0.4548 0.04568 0.0
C1603 C 0.00782 0.5263 0.1046 0.0
N1604 N 0.0149 0.52144 0.06317 0.0
C1605 C 0.01781 0.53554 0.08594 0.0
C1606 C 0.99389 0.50295 0.09972 0.0
Tb1607 Tb 0.03005 0.5353 0.03135 0.0
N1608 N 0.00577 0.49804 0.01737 0.0
C1609 C 0.99972 0.48776 0.99345 0.0
C1610 C 0.97258 0.45504 1.00334 0.0
C1611 C 0.98308 0.46626 0.98613 0.0
H1612 H 0.02827 0.55375 0.08985 0.0
H1613 H 0.97836 0.45836 0.96719 0.0
H1614 H 0.95615 0.43778 0.04102 0.0
H1615 H 0.01067 0.5373 0.12269 0.0
H1616 H 0.00734 0.49598 0.97967 0.0
H1617 H 0.13518 0.619 0.08201 0.0
H1618 H 0.9596 0.43845 0.9976 0.0
H1619 H 0.08878 0.52638 0.95557 0.0
H1620 H 0.11083 0.57855 0.06866 0.0
H1621 H 0.10568 0.54624 0.92458 0.0
H1622 H 0.96572 0.45872 0.08352 0.0
H1623 H 0.14778 0.64387 0.05261 0.0
H1624 H 0.15007 0.64673 0.00972 0.0
H1625 H 0.98587 0.49598 0.11414 0.0
H1626 H 0.14268 0.62666 0.96698 0.0
N1627 N 0.10813 0.57998 0.03136 0.0
C1628 C 0.11551 0.5889 0.05526 0.0
C1629 C 0.13672 0.62599 0.04644 0.0
C1630 C 0.13061 0.61615 0.02193 0.0
C1631 C 0.12963 0.61204 0.06309 0.0
C1632 C 0.11644 0.59261 0.01475 0.0
H1633 H 0.1268 0.58914 0.93529 0.0
N1634 N 0.10044 0.55759 0.98422 0.0
C1635 C 0.10776 0.55622 0.94305 0.0
C1636 C 0.1126 0.58106 0.99053 0.0
C1637 C 0.09852 0.54489 0.96084 0.0
C1638 C 0.11955 0.58047 0.94914 0.0
C1639 C 0.12236 0.59311 0.9731 0.0
O1640 O 0.09847 0.51195 0.02199 0.0
O1641 O 0.05551 0.51524 0.0185 0.0
O1642 O 0.04759 0.52124 0.05696 0.0
O1643 O 0.08305 0.54424 0.05395 0.0
O1644 O 0.0702 0.51002 0.98776 0.0
O1645 O 0.12093 0.54455 0.01939 0.0
O1646 O 0.01507 0.56419 0.04392 0.0
O1647 O 0.06078 0.56043 0.02759 0.0
O1648 O 0.06777 0.55348 0.98826 0.0
O1649 O 0.03171 0.5339 0.99339 0.0
O1650 O 0.04504 0.57043 0.05651 0.0
O1651 O 1.00096 0.53813 0.01145 0.0
C1652 C 0.05484 0.49918 0.99921 0.0
C1653 C 0.13203 0.50843 0.0051 0.0
C1654 C 0.16332 0.48906 0.99818 0.0
C1655 C 0.15079 0.50129 0.01418 0.0
C1656 C 0.15639 0.48337 0.97337 0.0
C1657 C 0.12604 0.50311 0.98023 0.0
C1658 C 0.1379 0.49039 0.96451 0.0
C1659 C 0.06849 0.53146 0.06541 0.0
C1660 C 0.11921 0.52228 0.0212 0.0
C1661 C 0.13522 0.6171 0.98015 0.0
C1662 C 0.13937 0.62856 0.0045 0.0
C1663 C 0.06184 0.57776 0.04529 0.0
C1664 C 0.97646 0.55792 0.03436 0.0
C1665 C 0.96741 0.57812 0.03295 0.0
C1666 C 0.94747 0.58041 0.0431 0.0
C1667 C 0.93659 0.56225 0.05439 0.0
C1668 C 0.96502 0.53977 0.04525 0.0
C1669 C 0.94523 0.54197 0.05525 0.0
C1670 C 0.04644 0.54474 0.98087 0.0
C1671 C 0.99883 0.55733 0.02668 0.0
H1672 H 0.15598 0.50586 0.03333 0.0
H1673 H 0.16551 0.47368 0.96073 0.0
H1674 H 0.11178 0.50826 0.97298 0.0
H1675 H 0.13282 0.4861 0.94537 0.0
H1676 H 0.97621 0.59234 0.02471 0.0
H1677 H 0.92127 0.56371 0.0624 0.0
H1678 H 0.97149 0.5241 0.04638 0.0
H1679 H 0.93667 0.52802 0.0639 0.0
H1680 H 0.0314 0.20515 0.99763 0.0
H1681 H 0.01755 0.1713 0.92163 0.0
H1682 H 0.02507 0.13358 0.93015 0.0
H1683 H 0.07605 0.17446 0.01081 0.0
H1684 H 0.06761 0.17019 0.03967 0.0
H1685 H 0.06231 0.19557 0.02813 0.0
H1686 H 0.02017 0.1818 0.03291 0.0
H1687 H 0.02557 0.15651 0.04453 0.0
H1688 H 0.00511 0.15122 0.01894 0.0
H1689 H 0.03531 0.09937 0.94575 0.0
H1690 H 0.04215 0.06893 0.96839 0.0
H1691 H 0.04657 0.12129 0.03534 0.0
C1692 C 0.02988 0.18977 0.9828 0.0
C1693 C 0.02383 0.19165 0.95875 0.0
C1694 C 0.02207 0.17079 0.94012 0.0
C1695 C 0.02647 0.14911 0.94477 0.0
C1696 C 0.03256 0.14791 0.96833 0.0
C1697 C 0.03396 0.16749 0.98721 0.0
C1698 C 0.03995 0.16046 0.01095 0.0
C1699 C 0.06284 0.17611 0.02311 0.0
C1700 C 0.0216 0.16263 0.02783 0.0
C1701 C 0.04111 0.13388 1.00238 0.0
C1702 C 0.03738 0.12741 0.97761 0.0
C1703 C 0.0381 0.10423 0.96517 0.0
C1704 C 0.04208 0.08698 0.97821 0.0
C1705 C 0.04503 0.0925 0.00366 0.0
C1706 C 0.0446 0.11646 0.01589 0.0
H1707 H 0.17149 0.78821 0.14557 0.0
H1708 H 0.17294 0.86367 0.17541 0.0
H1709 H 0.20505 0.86583 0.20462 0.0
H1710 H 0.18376 0.77392 0.20353 0.0
H1711 H 0.20038 0.75278 0.1925 0.0
H1712 H 0.17842 0.75723 0.17275 0.0
H1713 H 0.20686 0.76792 0.14272 0.0
H1714 H 0.22891 0.76347 0.16237 0.0
H1715 H 0.23175 0.7919 0.15289 0.0
H1716 H 0.23614 0.85982 0.23176 0.0
H1717 H 0.26406 0.84623 0.25509 0.0
H1718 H 0.24344 0.774 0.20936 0.0
C1719 C 0.1789 0.80528 0.15799 0.0
C1720 C 0.16991 0.82603 0.15783 0.0
C1721 C 0.17962 0.84771 0.17495 0.0
C1722 C 0.19789 0.84907 0.19166 0.0
C1723 C 0.20626 0.82841 0.19156 0.0
C1724 C 0.19706 0.80682 0.17528 0.0
C1725 C 0.20859 0.787 0.18019 0.0
C1726 C 0.19179 0.76652 0.18768 0.0
C1727 C 0.21969 0.77699 0.15823 0.0
C1728 C 0.22609 0.80102 0.20125 0.0
C1729 C 0.22418 0.82482 0.20756 0.0
C1730 C 0.23778 0.84124 0.22688 0.0
C1731 C 0.25362 0.83327 0.24015 0.0
C1732 C 0.2562 0.80905 0.23423 0.0
C1733 C 0.24222 0.79274 0.21426 0.0
H1734 H 0.52576 0.86239 0.43148 0.0
H1735 H 0.52903 0.83987 0.49949 0.0
H1736 H 0.5329 0.88287 0.52093 0.0
H1737 H 0.56667 0.91643 0.44825 0.0
H1738 H 0.55265 0.93258 0.43058 0.0
H1739 H 0.54826 0.90012 0.4216 0.0
H1740 H 0.50532 0.89563 0.42198 0.0
H1741 H 0.50969 0.92817 0.43112 0.0
H1742 H 0.49456 0.90879 0.44887 0.0
H1743 H 0.5389 0.93082 0.53437 0.0
H1744 H 0.54774 0.97539 0.53768 0.0
H1745 H 0.54063 0.96426 0.46015 0.0
C1746 C 0.52711 0.8662 0.45093 0.0
C1747 C 0.52713 0.84748 0.4637 0.0
C1748 C 0.52886 0.85371 0.48918 0.0
C1749 C 0.53107 0.87815 0.50149 0.0
C1750 C 0.53126 0.89615 0.48808 0.0
C1751 C 0.52924 0.89017 0.46328 0.0
C1752 C 0.53091 0.91238 0.45252 0.0
C1753 C 0.5508 0.91556 0.43736 0.0
C1754 C 0.5088 0.91116 0.43775 0.0
C1755 C 0.53487 0.93219 0.47502 0.0
C1756 C 0.53469 0.92271 0.4955 0.0
C1757 C 0.53879 0.93815 0.51831 0.0
C1758 C 0.54364 0.96359 0.52006 0.0
C1759 C 0.54444 0.97347 0.49914 0.0
C1760 C 0.53974 0.95735 0.47647 0.0
H1761 H 0.54371 0.32408 0.68561 0.0
H1762 H 0.51847 0.28556 0.61279 0.0
H1763 H 0.47954 0.27975 0.62419 0.0
H1764 H 0.51029 0.28814 0.71492 0.0
H1765 H 0.50608 0.31183 0.73874 0.0
H1766 H 0.53087 0.31667 0.72356 0.0
H1767 H 0.52173 0.35532 0.71268 0.0
H1768 H 0.49688 0.35073 0.72807 0.0
H1769 H 0.49482 0.35334 0.69711 0.0
H1770 H 0.44372 0.27268 0.64634 0.0
H1771 H 0.41609 0.26599 0.67589 0.0
H1772 H 0.46583 0.30998 0.73336 0.0
C1773 C 0.52992 0.31504 0.67188 0.0
C1774 C 0.53401 0.30531 0.64836 0.0
C1775 C 0.51563 0.29342 0.63087 0.0
C1776 C 0.49349 0.29002 0.63724 0.0
C1777 C 0.49008 0.29915 0.661 0.0
C1778 C 0.50791 0.31189 0.67785 0.0
C1779 C 0.50042 0.31842 0.70255 0.0
C1780 C 0.51263 0.30813 0.72101 0.0
C1781 C 0.50366 0.34609 0.71057 0.0
C1782 C 0.47586 0.30587 0.69756 0.0
C1783 C 0.46989 0.29532 0.67343 0.0
C1784 C 0.44822 0.28131 0.66515 0.0
C1785 C 0.4326 0.27762 0.68201 0.0
C1786 C 0.43888 0.28757 0.70685 0.0
C1787 C 0.46059 0.30233 0.71445 0.0
H1788 H 0.00946 0.84061 0.62117 0.0
H1789 H 0.01376 0.77413 0.57243 0.0
H1790 H 0.03 0.79787 0.54378 0.0
H1791 H 0.99561 0.87138 0.57091 0.0
H1792 H 0.01109 0.90085 0.58748 0.0
H1793 H 0.99734 0.87856 0.60326 0.0
H1794 H 0.03492 0.88255 0.62826 0.0
H1795 H 0.04883 0.90461 0.61247 0.0
H1796 H 0.05893 0.87763 0.61306 0.0
H1797 H 0.05033 0.82797 0.52323 0.0
H1798 H 0.07065 0.86352 0.50924 0.0
H1799 H 0.05218 0.91148 0.56946 0.0
C1800 C 0.01323 0.83109 0.60414 0.0
C1801 C 0.01022 0.8055 0.59895 0.0
C1802 C 0.01557 0.79364 0.57664 0.0
C1803 C 0.02492 0.80698 0.56026 0.0
C1804 C 0.02825 0.83214 0.56611 0.0
C1805 C 0.02211 0.84415 0.58718 0.0
C1806 C 0.02811 0.87149 0.58902 0.0
C1807 C 0.00677 0.88114 0.58758 0.0
C1808 C 0.04363 0.88483 0.61207 0.0
C1809 C 0.04008 0.87286 0.5666 0.0
C1810 C 0.03959 0.84985 0.55357 0.0
C1811 C 0.05048 0.84611 0.53296 0.0
C1812 C 0.06214 0.86641 0.52527 0.0
C1813 C 0.06296 0.89023 0.53818 0.0
C1814 C 0.05154 0.89347 0.55901 0.0
H1815 H 0.54482 0.79949 0.82358 0.0
H1816 H 0.54946 0.84961 0.89194 0.0
H1817 H 0.51094 0.85376 0.88224 0.0
H1818 H 0.52133 0.82787 0.78938 0.0
H1819 H 0.50206 0.80229 0.76995 0.0
H1820 H 0.52698 0.798 0.78468 0.0
H1821 H 0.50347 0.76524 0.80409 0.0
H1822 H 0.47829 0.76891 0.78891 0.0
H1823 H 0.48108 0.77221 0.82108 0.0
H1824 H 0.47605 0.85907 0.8614 0.0
H1825 H 0.4461 0.86265 0.83215 0.0
H1826 H 0.46486 0.80912 0.77769 0.0
C1827 C 0.53725 0.81053 0.83681 0.0
C1828 C 0.54968 0.82418 0.85838 0.0
C1829 C 0.53978 0.83877 0.87542 0.0
C1830 C 0.51799 0.8412 0.87007 0.0
C1831 C 0.5064 0.82833 0.84798 0.0
C1832 C 0.51548 0.81273 0.83192 0.0
C1833 C 0.50077 0.80302 0.80841 0.0
C1834 C 0.51356 0.80814 0.78687 0.0
C1835 C 0.49027 0.77573 0.80545 0.0
C1836 C 0.4834 0.81775 0.81268 0.0
C1837 C 0.48638 0.83156 0.83588 0.0
C1838 C 0.47326 0.84797 0.84337 0.0
C1839 C 0.45661 0.85016 0.82667 0.0
C1840 C 0.45385 0.83652 0.80282 0.0
C1841 C 0.46712 0.81995 0.79584 0.0
H1842 H 0.49415 0.18238 0.10131 0.0
H1843 H 0.4964 0.15949 0.16918 0.0
H1844 H 0.49657 0.11815 0.14785 0.0
H1845 H 0.46191 0.11931 0.06244 0.0
H1846 H 0.47852 0.12446 0.03817 0.0
H1847 H 0.47104 0.14965 0.05743 0.0
H1848 H 0.51298 0.17171 0.06643 0.0
H1849 H 0.5206 0.14657 0.04772 0.0
H1850 H 0.53253 0.15686 0.07864 0.0
H1851 H 0.50652 0.08396 0.12185 0.0
H1852 H 0.5237 0.0584 0.09234 0.0
H1853 H 0.51541 0.10284 0.04107 0.0
C1854 C 0.49353 0.16831 0.11148 0.0
C1855 C 0.49523 0.17399 0.1368 0.0
C1856 C 0.49511 0.15542 0.14973 0.0
C1857 C 0.49503 0.13184 0.13775 0.0
C1858 C 0.49484 0.12711 0.11285 0.0
C1859 C 0.49365 0.14468 0.09973 0.0
C1860 C 0.4975 0.13614 0.07379 0.0
C1861 C 0.47595 0.13215 0.05697 0.0
C1862 C 0.51707 0.15386 0.06624 0.0
C1863 C 0.50316 0.11216 0.07508 0.0
C1864 C 0.50079 0.10693 0.09752 0.0
C1865 C 0.50779 0.08745 0.10397 0.0
C1866 C 0.51781 0.07321 0.08718 0.0
C1867 C 0.5209 0.07865 0.06432 0.0
C1868 C 0.51284 0.0979 0.05806 0.0
H1869 H 0.1818 0.28916 0.36138 0.0
H1870 H 0.17141 0.35068 0.33312 0.0
H1871 H 0.19588 0.34141 0.30114 0.0
H1872 H 0.23705 0.29274 0.35411 0.0
H1873 H 0.23333 0.26023 0.3451 0.0
H1874 H 0.21432 0.27243 0.36367 0.0
H1875 H 0.18064 0.24723 0.33146 0.0
H1876 H 0.20073 0.23535 0.31419 0.0
H1877 H 0.18183 0.25001 0.30062 0.0
H1878 H 0.22349 0.32722 0.27542 0.0
H1879 H 0.25804 0.31527 0.26379 0.0
H1880 H 0.24841 0.26277 0.30887 0.0
C1881 C 0.18503 0.30082 0.34861 0.0
C1882 C 0.17537 0.32063 0.34945 0.0
C1883 C 0.17911 0.33541 0.3324 0.0
C1884 C 0.1925 0.33001 0.31408 0.0
C1885 C 0.20095 0.30933 0.31292 0.0
C1886 C 0.19756 0.29524 0.32996 0.0
C1887 C 0.20928 0.27488 0.32584 0.0
C1888 C 0.22441 0.27515 0.3485 0.0
C1889 C 0.1921 0.25043 0.31748 0.0
C1890 C 0.22232 0.28151 0.30568 0.0
C1891 C 0.2162 0.30048 0.29738 0.0
C1892 C 0.22795 0.31187 0.28106 0.0
C1893 C 0.24742 0.30489 0.27445 0.0
C1894 C 0.25496 0.28748 0.28496 0.0
C1895 C 0.24192 0.27492 0.29968 0.0
H1896 H 0.00382 0.06078 0.20671 0.0
H1897 H 0.93937 0.06936 0.17947 0.0
H1898 H 0.95196 0.06739 0.1392 0.0
H1899 H 0.03805 0.09613 0.16821 0.0
H1900 H 0.05689 0.07623 0.16251 0.0
H1901 H 0.04367 0.07883 0.18998 0.0
H1902 H 0.02779 0.03243 0.18056 0.0
H1903 H 0.04102 0.02971 0.15311 0.0
H1904 H 0.0113 0.01777 0.15225 0.0
H1905 H 0.97058 0.06306 0.09992 0.0
H1906 H 0.99341 0.05727 0.06619 0.0
H1907 H 0.04774 0.0517 0.11513 0.0
C1908 C 0.99232 0.0624 0.19236 0.0
C1909 C 0.97009 0.06533 0.1973 0.0
C1910 C 0.95618 0.06708 0.17717 0.0
C1911 C 0.9633 0.06598 0.15381 0.0
C1912 C 0.98482 0.06293 0.14957 0.0
C1913 C 0.99927 0.06116 0.16829 0.0
C1914 C 0.02144 0.05743 0.15808 0.0
C1915 C 0.04119 0.0784 0.17044 0.0
C1916 C 0.02565 0.03288 0.1612 0.0
C1917 C 0.01717 0.05754 0.13099 0.0
C1918 C 0.99575 0.06066 0.12672 0.0
C1919 C 0.98736 0.06071 0.10334 0.0
C1920 C 1.00067 0.05734 0.08397 0.0
C1921 C 0.02288 0.05412 0.08707 0.0
C1922 C 0.03114 0.05445 0.11147 0.0
H1923 H 0.28619 0.71083 0.48797 0.0
H1924 H 0.31832 0.65899 0.44644 0.0
H1925 H 0.31159 0.67536 0.41042 0.0
H1926 H 0.24257 0.7022 0.44558 0.0
H1927 H 0.23966 0.73316 0.45148 0.0
H1928 H 0.25146 0.72155 0.47499 0.0
H1929 H 0.28725 0.75636 0.48113 0.0
H1930 H 0.27543 0.76844 0.45787 0.0
H1931 H 0.30249 0.76137 0.45585 0.0
H1932 H 0.29741 0.69427 0.37812 0.0
H1933 H 0.2761 0.71329 0.35217 0.0
H1934 H 0.25061 0.74954 0.41477 0.0
C1935 C 0.29266 0.70356 0.47157 0.0
C1936 C 0.3031 0.68394 0.47002 0.0
C1937 C 0.31059 0.67431 0.44802 0.0
C1938 C 0.30682 0.68347 0.42751 0.0
C1939 C 0.29548 0.70211 0.42941 0.0
C1940 C 0.28858 0.71207 0.45094 0.0
C1941 C 0.27411 0.7295 0.44776 0.0
C1942 C 0.25057 0.72108 0.45539 0.0
C1943 C 0.28551 0.75546 0.46146 0.0
C1944 C 0.27337 0.72732 0.42093 0.0
C1945 C 0.28619 0.71187 0.41069 0.0
C1946 C 0.28748 0.70652 0.38597 0.0
C1947 C 0.2753 0.71723 0.37139 0.0
C1948 C 0.26163 0.73247 0.38158 0.0
C1949 C 0.26082 0.7377 0.40662 0.0
H1950 H 0.6511 0.0651 0.6791 0.0
H1951 H 0.68615 0.01154 0.64662 0.0
H1952 H 0.65892 1.00018 0.61027 0.0
H1953 H 0.59964 0.03333 0.6639 0.0
H1954 H 0.58644 0.05607 0.65585 0.0
H1955 H 0.61122 0.06511 0.67691 0.0
H1956 H 0.63262 0.09282 0.65091 0.0
H1957 H 0.6072 0.08563 0.63089 0.0
H1958 H 0.63283 0.08083 0.61928 0.0
H1959 H 0.62446 0.98936 0.58225 0.0
H1960 H 0.59054 0.98872 0.55656 0.0
H1961 H 0.57799 0.04886 0.60818 0.0
C1962 C 0.65351 0.05182 0.66378 0.0
C1963 C 0.67016 0.03886 0.6652 0.0
C1964 C 0.67329 0.02154 0.64533 0.0
C1965 C 0.65786 0.01488 0.62488 0.0
C1966 C 0.64015 0.02631 0.62492 0.0
C1967 C 0.63853 0.04531 0.64324 0.0
C1968 C 0.61738 0.05381 0.63936 0.0
C1969 C 0.60283 0.05195 0.66025 0.0
C1970 C 0.62284 0.0798 0.63483 0.0
C1971 C 0.60664 0.03546 0.61693 0.0
C1972 C 0.62004 0.0198 0.6089 0.0
C1973 C 0.61386 1.00158 0.58819 0.0
C1974 C 0.59436 1.0009 0.57411 0.0
C1975 C 0.58185 0.01842 0.58106 0.0
C1976 C 0.58711 0.03485 0.60324 0.0
H1977 H 0.32555 0.38348 0.94145 0.0
H1978 H 0.31356 0.31655 0.96752 0.0
H1979 H 0.31396 0.29341 0.92576 0.0
H1980 H 0.28997 0.36096 0.88824 0.0
H1981 H 0.30766 0.37967 0.87172 0.0
H1982 H 0.30784 0.38972 0.9036 0.0
H1983 H 0.35098 0.39419 0.90887 0.0
H1984 H 0.35078 0.38377 0.87695 0.0
H1985 H 0.36232 0.3684 0.89746 0.0
H1986 H 0.31363 0.27813 0.87857 0.0
H1987 H 0.31056 0.27322 0.83402 0.0
H1988 H 0.32317 0.35131 0.84258 0.0
C1989 C 0.32313 0.36394 0.93874 0.0
C1990 C 0.31953 0.35189 0.95791 0.0
C1991 C 0.31646 0.32625 0.95315 0.0
C1992 C 0.3167 0.31301 0.92949 0.0
C1993 C 0.32023 0.32576 0.911 0.0
C1994 C 0.32336 0.35074 0.91569 0.0
C1995 C 0.32561 0.36074 0.89328 0.0
C1996 C 0.30665 0.37351 0.88897 0.0
C1997 C 0.3488 0.37778 0.89421 0.0
C1998 C 0.32308 0.33758 0.87486 0.0
C1999 C 0.32014 0.31739 0.88505 0.0
C2000 C 0.31622 0.29395 0.87064 0.0
C2001 C 0.31466 0.29129 0.84539 0.0
C2002 C 0.31706 0.31201 0.83507 0.0
C2003 C 0.32169 0.33525 0.85009 0.0
H2004 H 0.98973 0.02802 0.34646 0.0
H2005 H 0.9805 0.10149 0.36431 0.0
H2006 H 0.99733 0.10548 0.40607 0.0
H2007 H 0.97547 0.01304 0.40423 0.0
H2008 H 0.9951 0.9941 0.40489 0.0
H2009 H 0.98311 0.99738 0.37652 0.0
H2010 H 0.02283 0.01145 0.36438 0.0
H2011 H 0.0349 0.00836 0.39284 0.0
H2012 H 0.04236 0.03695 0.38361 0.0
H2013 H 0.0168 0.10133 0.44761 0.0
H2014 H 0.03129 0.08915 0.48281 0.0
H2015 H 0.02811 0.01764 0.43984 0.0
C2016 C 0.99115 0.04508 0.35906 0.0
C2017 C 0.98341 0.06452 0.35116 0.0
C2018 C 0.9858 0.08616 0.36905 0.0
C2019 C 0.99562 0.0886 0.3931 0.0
C2020 C 0.00306 0.06918 0.40001 0.0
C2021 C 1.00061 0.04765 0.3834 0.0
C2022 C 0.00893 0.02905 0.39567 0.0
C2023 C 0.9895 0.00708 0.3953 0.0
C2024 C 0.02841 0.02097 0.38338 0.0
C2025 C 0.01688 0.0434 0.42168 0.0
C2026 C 0.01336 0.06656 0.42366 0.0
C2027 C 0.01923 0.08307 0.44582 0.0
C2028 C 0.02782 0.07576 0.46623 0.0
C2029 C 0.03112 0.05186 0.46573 0.0
C2030 C 0.02584 0.0358 0.44226 0.0
H2031 H 0.30586 0.70344 0.59974 0.0
H2032 H 0.23856 0.66256 0.60348 0.0
H2033 H 0.23299 0.69619 0.63495 0.0
H2034 H 0.31966 0.72193 0.66004 0.0
H2035 H 0.33668 0.75145 0.65935 0.0
H2036 H 0.33299 0.72702 0.63358 0.0
H2037 H 0.31864 0.75426 0.60785 0.0
H2038 H 0.32145 0.77832 0.63416 0.0
H2039 H 0.29489 0.76649 0.61596 0.0
H2040 H 0.23562 0.73161 0.66757 0.0
H2041 H 0.24924 0.75931 0.70654 0.0
H2042 H 0.31615 0.77435 0.68456 0.0
C2043 C 0.28978 0.70194 0.60682 0.0
C2044 C 0.27246 0.68082 0.59907 0.0
C2045 C 0.25191 0.67882 0.6092 0.0
C2046 C 0.24848 0.69797 0.62669 0.0
C2047 C 0.26583 0.71878 0.63383 0.0
C2048 C 0.28629 0.72062 0.62466 0.0
C2049 C 0.30358 0.74255 0.63864 0.0
C2050 C 0.32442 0.73527 0.6485 0.0
C2051 C 0.31002 0.76153 0.62323 0.0
C2052 C 0.29017 0.75147 0.65838 0.0
C2053 C 0.26806 0.73851 0.65429 0.0
C2054 C 0.25283 0.74199 0.6709 0.0
C2055 C 0.26081 0.75769 0.69304 0.0
C2056 C 0.284 0.76871 0.69871 0.0
C2057 C 0.29847 0.76677 0.68067 0.0
H2058 H 0.64692 0.02119 0.80349 0.0
H2059 H 0.69145 0.09243 0.81483 0.0
H2060 H 0.68403 0.1011 0.85708 0.0
H2061 H 0.60628 0.03555 0.82564 0.0
H2062 H 0.59649 0.01216 0.84193 0.0
H2063 H 0.61298 1.00624 0.81772 0.0
H2064 H 0.64159 0.99504 0.84587 0.0
H2065 H 0.62499 1.00079 0.87044 0.0
H2066 H 0.65418 0.01609 0.87344 0.0
H2067 H 0.66192 0.1087 0.88885 0.0
H2068 H 0.62831 0.11347 0.909 0.0
H2069 H 0.59679 0.03776 0.87973 0.0
C2070 C 0.65584 0.03797 0.81553 0.0
C2071 C 0.66963 0.05622 0.80658 0.0
C2072 C 0.68082 0.07838 0.82188 0.0
C2073 C 0.67693 0.08325 0.84591 0.0
C2074 C 0.66171 0.06577 0.85413 0.0
C2075 C 0.6517 0.04316 0.83958 0.0
C2076 C 0.63226 0.03004 0.85071 0.0
C2077 C 0.61076 0.02051 0.83294 0.0
C2078 C 0.63865 0.00928 0.86072 0.0
C2079 C 0.63027 0.05057 0.87087 0.0
C2080 C 0.64828 0.07042 0.87353 0.0
C2081 C 0.64814 0.09309 0.88759 0.0
C2082 C 0.6289 0.09585 0.89849 0.0
C2083 C 0.61022 0.07605 0.89517 0.0
C2084 C 0.61118 0.05299 0.8822 0.0
H2085 H 0.30254 0.31975 0.09604 0.0
H2086 H 0.31533 0.39701 0.12762 0.0
H2087 H 0.30527 0.38784 0.16623 0.0
H2088 H 0.25594 0.2997 0.1305 0.0
H2089 H 0.26472 0.27296 0.13508 0.0
H2090 H 0.27105 0.28463 0.10855 0.0
H2091 H 0.31333 0.2877 0.11871 0.0
H2092 H 0.30695 0.2754 0.1448 0.0
H2093 H 0.3269 0.30408 0.14799 0.0
H2094 H 0.29389 0.37163 0.20112 0.0
H2095 H 0.2896 0.34907 0.23348 0.0
H2096 H 0.28683 0.28202 0.18194 0.0
C2097 C 0.30311 0.33466 0.1111 0.0
C2098 C 0.30951 0.35914 0.10865 0.0
C2099 C 0.31044 0.37814 0.1289 0.0
C2100 C 0.30452 0.37314 0.15093 0.0
C2101 C 0.29789 0.34901 0.1527 0.0
C2102 C 0.29765 0.32999 0.13363 0.0
C2103 C 0.29185 0.30583 0.14149 0.0
C2104 C 0.26957 0.28983 0.1281 0.0
C2105 C 0.3109 0.29248 0.13805 0.0
C2106 C 0.28953 0.31452 0.16799 0.0
C2107 C 0.29238 0.33946 0.17369 0.0
C2108 C 0.29165 0.35208 0.19694 0.0
C2109 C 0.28914 0.33908 0.2152 0.0
C2110 C 0.2878 0.31376 0.21026 0.0
C2111 C 0.2872 0.30119 0.1862 0.0
H2112 H 0.26835 0.99343 0.99663 0.0
H2113 H 0.25054 0.92787 0.02415 0.0
H2114 H 0.21433 0.93727 0.03389 0.0
H2115 H 0.25144 0.03064 0.03815 0.0
H2116 H 0.23955 0.04772 0.01966 0.0
H2117 H 0.26088 0.03277 0.00915 0.0
H2118 H 0.23493 0.0091 0.9706 0.0
H2119 H 0.21345 0.02438 0.9807 0.0
H2120 H 0.20738 0.99164 0.97306 0.0
H2121 H 0.18534 0.95849 0.04898 0.0
H2122 H 0.16489 0.98914 0.06662 0.0
H2123 H 0.20076 0.0399 0.02769 0.0
C2124 C 0.25635 0.98076 0.00392 0.0
C2125 C 0.26181 0.96012 0.00976 0.0
C2126 C 0.24621 0.94372 0.01944 0.0
C2127 C 0.22566 0.94884 0.02487 0.0
C2128 C 0.22091 0.96993 0.01967 0.0
C2129 C 0.2356 0.98531 0.00883 0.0
C2130 C 0.22784 0.00811 0.00758 0.0
C2131 C 0.24599 0.03114 0.01937 0.0
C2132 C 0.22046 0.00831 0.98143 0.0
C2133 C 0.20796 1.00449 0.02186 0.0
C2134 C 0.20369 0.98198 0.02794 0.0
C2135 C 0.18789 0.97577 0.04359 0.0
C2136 C 0.17644 0.99319 0.05356 0.0
C2137 C 0.18118 0.01638 0.04794 0.0
C2138 C 0.19663 0.0219 0.03155 0.0
H2139 H 0.71904 0.65216 0.03238 0.0
H2140 H 0.72603 0.63041 0.95664 0.0
H2141 H 0.68849 0.60216 0.95063 0.0
H2142 H 0.69206 0.59082 0.03776 0.0
H2143 H 0.67458 0.6011 0.05989 0.0
H2144 H 0.70158 0.6201 0.05795 0.0
H2145 H 0.6829 0.65515 0.05269 0.0
H2146 H 0.65592 0.63629 0.05476 0.0
H2147 H 0.6605 0.64978 0.02899 0.0
H2148 H 0.64997 0.57523 0.9534 0.0
H2149 H 0.61414 0.5531 0.96464 0.0
H2150 H 0.63293 0.59256 0.03849 0.0
C2151 C 0.71253 0.6416 0.0145 0.0
C2152 C 0.72529 0.6436 0.99489 0.0
C2153 C 0.71649 0.6291 0.97188 0.0
C2154 C 0.69519 0.61303 0.96832 0.0
C2155 C 0.68307 0.61125 0.98808 0.0
C2156 C 0.69154 0.62504 0.01077 0.0
C2157 C 0.67576 0.61885 0.02924 0.0
C2158 C 0.68664 0.60702 0.04728 0.0
C2159 C 0.66832 0.64137 0.04216 0.0
C2160 C 0.65653 0.6005 0.01325 0.0
C2161 C 0.6612 0.59589 0.98964 0.0
C2162 C 0.64618 0.5788 0.97185 0.0
C2163 C 0.62589 0.56626 0.97839 0.0
C2164 C 0.62059 0.57118 1.00241 0.0
C2165 C 0.63624 0.58853 0.01994 0.0
H2166 H 0.72709 0.43937 0.29994 0.0
H2167 H 0.71362 0.42711 0.22264 0.0
H2168 H 0.73365 0.39393 0.21797 0.0
H2169 H 0.78251 0.42447 0.30219 0.0
H2170 H 0.77785 0.40846 0.32622 0.0
H2171 H 0.76363 0.43225 0.32381 0.0
H2172 H 0.72551 0.40243 0.32313 0.0
H2173 H 0.73971 0.37867 0.32567 0.0
H2174 H 0.71831 0.37413 0.30115 0.0
H2175 H 0.75835 0.361 0.2216 0.0
H2176 H 0.77805 0.33096 0.23307 0.0
H2177 H 0.7727 0.35969 0.30791 0.0
C2178 C 0.72837 0.42988 0.28192 0.0
C2179 C 0.71843 0.43706 0.26159 0.0
C2180 C 0.7207 0.42297 0.23871 0.0
C2181 C 0.73234 0.40376 0.23584 0.0
C2182 C 0.74187 0.39733 0.25598 0.0
C2183 C 0.73956 0.4098 0.27872 0.0
C2184 C 0.75018 0.39816 0.29744 0.0
C2185 C 0.76969 0.41696 0.31337 0.0
C2186 C 0.73237 0.38774 0.31277 0.0
C2187 C 0.75888 0.37749 0.28195 0.0
C2188 C 0.7543 0.37765 0.25798 0.0
C2189 C 0.76157 0.36091 0.24041 0.0
C2190 C 0.77308 0.34366 0.24715 0.0
C2191 C 0.77741 0.34206 0.27152 0.0
C2192 C 0.76996 0.35973 0.28901 0.0
H2193 H 0.90935 0.51132 0.53766 0.0
H2194 H 0.89008 0.44101 0.48836 0.0
H2195 H 0.9299 0.44083 0.48509 0.0
H2196 H 0.95505 0.53801 0.5117 0.0
H2197 H 0.97294 0.55225 0.53923 0.0
H2198 H 0.94301 0.54629 0.53929 0.0
H2199 H 0.94496 0.52148 0.57242 0.0
H2200 H 0.975 0.52778 0.5727 0.0
H2201 H 0.95894 0.49683 0.56769 0.0
H2202 H 0.97155 0.44829 0.48724 0.0
H2203 H 0.01284 0.46444 0.49351 0.0
H2204 H 0.00395 0.53009 0.53971 0.0
C2205 C 0.91369 0.49594 0.52636 0.0
C2206 C 0.89709 0.47621 0.51325 0.0
C2207 C 0.90293 0.45614 0.49866 0.0
C2208 C 0.92536 0.45586 0.4967 0.0
C2209 C 0.9415 0.4756 0.50982 0.0
C2210 C 0.93601 0.49514 0.52458 0.0
C2211 C 0.95665 0.51395 0.53676 0.0
C2212 C 0.95692 0.53911 0.53139 0.0
C2213 C 0.95902 0.51507 0.564 0.0
C2214 C 0.97432 0.5029 0.52487 0.0
C2215 C 0.96541 0.48036 0.51015 0.0
C2216 C 0.97878 0.46605 0.49851 0.0
C2217 C 0.00201 0.47529 0.50204 0.0
C2218 C 0.01109 0.49888 0.51599 0.0
C2219 C 0.99718 0.5126 0.52783 0.0
H2220 H 0.40306 0.11678 0.29361 0.0
H2221 H 0.36007 0.08952 0.34424 0.0
H2222 H 0.32987 0.106 0.32814 0.0
H2223 H 0.37898 0.17025 0.285 0.0
H2224 H 0.38146 0.16273 0.25323 0.0
H2225 H 0.40145 0.15692 0.27436 0.0
H2226 H 0.39256 0.11214 0.25099 0.0
H2227 H 0.3715 0.11722 0.23071 0.0
H2228 H 0.36429 0.09397 0.24774 0.0
H2229 H 0.30251 0.11788 0.30146 0.0
H2230 H 0.28122 0.12934 0.26902 0.0
H2231 H 0.34104 0.14264 0.23265 0.0
C2232 C 0.38785 0.11595 0.3024 0.0
C2233 C 0.38386 0.10275 0.32053 0.0
C2234 C 0.36339 0.10035 0.33079 0.0
C2235 C 0.34615 0.10938 0.32155 0.0
C2236 C 0.34976 0.12012 0.30185 0.0
C2237 C 0.37025 0.12375 0.29259 0.0
C2238 C 0.36872 0.13124 0.26876 0.0
C2239 C 0.38351 0.15682 0.27045 0.0
C2240 C 0.37461 0.11252 0.24838 0.0
C2241 C 0.34415 0.13093 0.2659 0.0
C2242 C 0.33352 0.1247 0.2852 0.0
C2243 C 0.31065 0.12287 0.28628 0.0
C2244 C 0.29859 0.12882 0.26764 0.0
C2245 C 0.3095 0.13595 0.24824 0.0
C2246 C 0.33234 0.13643 0.24705 0.0
H2247 H 0.36151 0.16199 0.54903 0.0
H2248 H 0.34893 0.1421 0.47149 0.0
H2249 H 0.38264 0.12507 0.46964 0.0
H2250 H 0.42615 0.17505 0.55087 0.0
H2251 H 0.42775 0.16349 0.57788 0.0
H2252 H 0.40627 0.17919 0.57236 0.0
H2253 H 0.37611 0.14205 0.57761 0.0
H2254 H 0.3973 0.12608 0.58264 0.0
H2255 H 0.37477 0.11256 0.55893 0.0
H2256 H 0.41226 0.10276 0.47713 0.0
H2257 H 0.43629 0.07894 0.49298 0.0
H2258 H 0.43009 0.11459 0.56574 0.0
C2259 C 0.3665 0.15494 0.53167 0.0
C2260 C 0.35299 0.15338 0.5104 0.0
C2261 C 0.35946 0.14371 0.4879 0.0
C2262 C 0.37853 0.13404 0.48673 0.0
C2263 C 0.3911 0.13489 0.50821 0.0
C2264 C 0.38565 0.14571 0.53025 0.0
C2265 C 0.40031 0.14211 0.55081 0.0
C2266 C 0.41606 0.1664 0.56374 0.0
C2267 C 0.38627 0.12996 0.5685 0.0
C2268 C 0.41322 0.12544 0.53709 0.0
C2269 C 0.40829 0.12213 0.51251 0.0
C2270 C 0.41671 0.10575 0.4963 0.0
C2271 C 0.43027 0.09224 0.50545 0.0
C2272 C 0.43492 0.09492 0.53056 0.0
C2273 C 0.42669 0.11215 0.54647 0.0
H2274 H 0.72557 0.59585 0.23868 0.0
H2275 H 0.72237 0.59998 0.31489 0.0
H2276 H 0.74497 0.64237 0.3234 0.0
H2277 H 0.78463 0.63473 0.24533 0.0
H2278 H 0.77889 0.64876 0.22084 0.0
H2279 H 0.76394 0.61813 0.22065 0.0
H2280 H 0.72636 0.63064 0.21586 0.0
H2281 H 0.74118 0.66129 0.21617 0.0
H2282 H 0.72116 0.65567 0.23742 0.0
H2283 H 0.76632 0.68635 0.32382 0.0
H2284 H 0.78465 0.72642 0.3161 0.0
H2285 H 0.77516 0.69562 0.23964 0.0
C2286 C 0.73037 0.60534 0.25722 0.0
C2287 C 0.72275 0.59367 0.2762 0.0
C2288 C 0.7286 0.60766 0.30004 0.0
C2289 C 0.74134 0.63206 0.30504 0.0
C2290 C 0.74852 0.64296 0.28608 0.0
C2291 C 0.74347 0.62993 0.26259 0.0
C2292 C 0.75299 0.6463 0.24556 0.0
C2293 C 0.77118 0.63639 0.23229 0.0
C2294 C 0.7343 0.64861 0.2277 0.0
C2295 C 0.7633 0.67076 0.26296 0.0
C2296 C 0.76074 0.66824 0.28632 0.0
C2297 C 0.76858 0.68822 0.30557 0.0
C2298 C 0.77916 0.71108 0.30102 0.0
C2299 C 0.78204 0.71451 0.27736 0.0
C2300 C 0.7738 0.69379 0.25805 0.0
H2301 H 0.86535 0.46727 0.78884 0.0
H2302 H 0.93217 0.45446 0.79675 0.0
H2303 H 0.91589 0.41124 0.79499 0.0
H2304 H 0.83918 0.42363 0.82322 0.0
H2305 H 0.8133 0.41313 0.80351 0.0
H2306 H 0.82929 0.44402 0.80741 0.0
H2307 H 0.83185 0.43907 0.7619 0.0
H2308 H 0.815 0.40855 0.75724 0.0
H2309 H 0.84197 0.41402 0.74588 0.0
H2310 H 0.89352 0.36986 0.78821 0.0
H2311 H 0.86543 0.33106 0.77586 0.0
H2312 H 0.8127 0.36967 0.77223 0.0
C2313 C 0.87651 0.45539 0.79047 0.0
C2314 C 0.89995 0.46409 0.79286 0.0
C2315 C 0.91411 0.44806 0.7947 0.0
C2316 C 0.90506 0.42357 0.79398 0.0
C2317 C 0.8819 0.41552 0.79143 0.0
C2318 C 0.86776 0.4308 0.78956 0.0
C2319 C 0.8435 0.41697 0.7849 0.0
C2320 C 0.83053 0.42489 0.80603 0.0
C2321 C 0.83245 0.41982 0.76105 0.0
C2322 C 0.84636 0.39141 0.78345 0.0
C2323 C 0.86868 0.39115 0.78772 0.0
C2324 C 0.87595 0.36975 0.78534 0.0
C2325 C 0.85998 0.3479 0.77816 0.0
C2326 C 0.83713 0.3478 0.77377 0.0
C2327 C 0.83012 0.36965 0.77633 0.0
H2328 H 0.10069 0.87844 0.04865 0.0
H2329 H 0.08537 0.89936 0.12205 0.0
H2330 H 0.07505 0.93549 0.11276 0.0
H2331 H 0.12498 0.93988 0.0418 0.0
H2332 H 0.11342 0.93512 0.011 0.0
H2333 H 0.11903 0.90993 0.02263 0.0
H2334 H 0.07777 0.88643 0.00975 0.0
H2335 H 0.07208 0.91174 0.99831 0.0
H2336 H 0.05554 0.90022 0.02035 0.0
H2337 H 0.06722 0.97058 0.09686 0.0
H2338 H 0.0638 1.00291 0.07524 0.0
H2339 H 0.08351 0.96169 0.01143 0.0
C2340 C 0.09514 0.89061 0.06275 0.0
C2341 C 0.09399 0.8856 0.08629 0.0
C2342 C 0.0866 0.90234 0.10398 0.0
C2343 C 0.08056 0.92309 0.09885 0.0
C2344 C 0.08185 0.92749 0.07578 0.0
C2345 C 0.08902 0.91186 0.05792 0.0
C2346 C 0.0893 0.92172 0.03481 0.0
C2347 C 0.1131 0.92697 0.02711 0.0
C2348 C 0.07269 0.90396 0.0146 0.0
C2349 C 0.08153 0.94531 0.04272 0.0
C2350 C 0.07713 0.94801 0.06642 0.0
C2351 C 0.07034 0.96845 0.07818 0.0
C2352 C 0.06821 0.98672 0.06566 0.0
C2353 C 0.07247 0.98464 0.04131 0.0
C2354 C 0.07942 0.96358 0.0298 0.0
H2355 H 0.947 0.30027 0.89062 0.0
H2356 H 0.94508 0.22353 0.8698 0.0
H2357 H 0.90876 0.217 0.84505 0.0
H2358 H 0.88578 0.29268 0.89466 0.0
H2359 H 0.88517 0.3197 0.88351 0.0
H2360 H 0.91017 0.31767 0.90031 0.0
H2361 H 0.93293 0.32694 0.86516 0.0
H2362 H 0.90795 0.32863 0.84814 0.0
H2363 H 0.92442 0.30793 0.83554 0.0
H2364 H 0.87437 0.22049 0.81778 0.0
H2365 H 0.8436 0.23227 0.79634 0.0
H2366 H 0.86581 0.30574 0.8389 0.0
C2367 C 0.93857 0.28193 0.88147 0.0
C2368 C 0.94882 0.2623 0.88265 0.0
C2369 C 0.93743 0.23874 0.86981 0.0
C2370 C 0.91684 0.23495 0.85544 0.0
C2371 C 0.90744 0.25482 0.85432 0.0
C2372 C 0.91774 0.27777 0.86757 0.0
C2373 C 0.90431 0.29616 0.8634 0.0
C2374 C 0.89586 0.3072 0.88687 0.0
C2375 C 0.91824 0.31609 0.85241 0.0
C2376 C 0.88497 0.28017 0.84548 0.0
C2377 C 0.88723 0.25644 0.84008 0.0
C2378 C 0.87232 0.23894 0.82243 0.0
C2379 C 0.85483 0.24582 0.81024 0.0
C2380 C 0.85182 0.26991 0.81588 0.0
C2381 C 0.86711 0.28711 0.8341 0.0
H2382 H 0.58562 0.21508 0.61297 0.0
H2383 H 0.59416 0.23752 0.54526 0.0
H2384 H 0.58868 0.19408 0.52449 0.0
H2385 H 0.61459 0.16795 0.60332 0.0
H2386 H 0.59564 0.14859 0.61819 0.0
H2387 H 0.59982 0.1811 0.62687 0.0
H2388 H 0.55702 0.17708 0.61871 0.0
H2389 H 0.55276 0.14454 0.61029 0.0
H2390 H 0.54263 0.16083 0.58976 0.0
H2391 H 0.58186 0.14597 0.51166 0.0
H2392 H 0.57326 0.10128 0.50863 0.0
H2393 H 0.57097 0.11287 0.58562 0.0
C2394 C 0.58642 0.21111 0.59374 0.0
C2395 C 0.59052 0.23 0.58087 0.0
C2396 C 0.59105 0.22353 0.55563 0.0
C2397 C 0.58803 0.19885 0.54371 0.0
C2398 C 0.58439 0.18078 0.55723 0.0
C2399 C 0.58343 0.18686 0.58174 0.0
C2400 C 0.57903 0.16461 0.59262 0.0
C2401 C 0.59843 0.16564 0.61136 0.0
C2402 C 0.55653 0.1616 0.60348 0.0
C2403 C 0.57797 0.1448 0.57062 0.0
C2404 C 0.58094 0.15419 0.5502 0.0
C2405 C 0.57974 0.1387 0.52769 0.0
C2406 C 0.57506 0.11328 0.52613 0.0
C2407 C 0.57201 0.10352 0.54699 0.0
C2408 C 0.57364 0.11971 0.5694 0.0
H2409 H 0.58894 0.8056 0.40078 0.0
H2410 H 0.5826 0.72863 0.39632 0.0
H2411 H 0.61724 0.73065 0.37584 0.0
H2412 H 0.60587 0.80571 0.34269 0.0
H2413 H 0.62495 0.83524 0.35088 0.0
H2414 H 0.60131 0.82819 0.36751 0.0
H2415 H 0.62791 0.83934 0.40701 0.0
H2416 H 0.65168 0.84639 0.39047 0.0
H2417 H 0.65065 0.82451 0.40923 0.0
H2418 H 0.6516 0.74085 0.35376 0.0
H2419 H 0.68066 0.75726 0.32938 0.0
H2420 H 0.66419 0.8276 0.3473 0.0
C2421 C 0.59512 0.78931 0.39577 0.0
C2422 C 0.58334 0.76698 0.40025 0.0
C2423 C 0.59153 0.74589 0.39308 0.0
C2424 C 0.61121 0.74692 0.38154 0.0
C2425 C 0.62242 0.76918 0.37712 0.0
C2426 C 0.61458 0.78998 0.38391 0.0
C2427 C 0.62867 0.81115 0.37536 0.0
C2428 C 0.61434 0.82062 0.35808 0.0
C2429 C 0.64043 0.83155 0.3968 0.0
C2430 C 0.64541 0.79897 0.36233 0.0
C2431 C 0.64176 0.77487 0.36388 0.0
C2432 C 0.65467 0.75975 0.35258 0.0
C2433 C 0.6713 0.76931 0.33886 0.0
C2434 C 0.67485 0.79376 0.33625 0.0
C2435 C 0.66191 0.80879 0.34868 0.0
H2436 H 0.12637 0.26897 0.45193 0.0
H2437 H 0.07445 0.24008 0.39197 0.0
H2438 H 0.05722 0.20761 0.41214 0.0
H2439 H 0.12861 0.20736 0.46452 0.0
H2440 H 0.13415 0.21978 0.4964 0.0
H2441 H 0.14431 0.23828 0.4755 0.0
H2442 H 0.12414 0.27082 0.49543 0.0
H2443 H 0.11353 0.25235 0.51607 0.0
H2444 H 0.09439 0.26234 0.49734 0.0
H2445 H 0.04285 0.1821 0.44099 0.0
H2446 H 0.03395 0.163 0.47561 0.0
H2447 H 0.0951 0.20842 0.51671 0.0
C2448 C 0.11166 0.25546 0.44284 0.0
C2449 C 0.1016 0.25706 0.42054 0.0
C2450 C 0.08242 0.2391 0.40907 0.0
C2451 C 0.07252 0.22061 0.42037 0.0
C2452 C 0.08234 0.2201 0.44282 0.0
C2453 C 0.10177 0.2367 0.45371 0.0
C2454 C 0.10828 0.23287 0.4784 0.0
C2455 C 0.13013 0.22405 0.47872 0.0
C2456 C 0.11017 0.25597 0.49795 0.0
C2457 C 0.08849 0.2129 0.4805 0.0
C2458 C 0.074 0.20537 0.45954 0.0
C2459 C 0.05417 0.18763 0.45739 0.0
C2460 C 0.04913 0.17711 0.47712 0.0
C2461 C 0.06369 0.18474 0.4987 0.0
C2462 C 0.08361 0.20272 0.50041 0.0
H2463 H 0.56255 0.23268 0.18642 0.0
H2464 H 0.59207 0.30046 0.16657 0.0
H2465 H 0.62956 0.29825 0.18314 0.0
H2466 H 0.59447 0.24394 0.24179 0.0
H2467 H 0.59733 0.2132 0.23974 0.0
H2468 H 0.57336 0.21881 0.22417 0.0
H2469 H 0.58247 0.19495 0.18401 0.0
H2470 H 0.60651 0.1892 0.19944 0.0
H2471 H 0.6098 0.20363 0.17416 0.0
H2472 H 0.66195 0.29123 0.20562 0.0
H2473 H 0.68882 0.27948 0.23152 0.0
H2474 H 0.6389 0.21447 0.23523 0.0
C2475 C 0.57704 0.24685 0.18542 0.0
C2476 C 0.5749 0.26679 0.17547 0.0
C2477 C 0.59381 0.28512 0.17422 0.0
C2478 C 0.615 0.28393 0.18347 0.0
C2479 C 0.61665 0.26415 0.19354 0.0
C2480 C 0.59825 0.24583 0.19442 0.0
C2481 C 0.60445 0.2273 0.20735 0.0
C2482 C 0.59164 0.22574 0.22958 0.0
C2483 C 0.60058 0.20229 0.19021 0.0
C2484 C 0.62912 0.23857 0.2144 0.0
C2485 C 0.63575 0.25968 0.20603 0.0
C2486 C 0.65721 0.27439 0.21171 0.0
C2487 C 0.67239 0.26738 0.22634 0.0
C2488 C 0.6662 0.24559 0.2349 0.0
C2489 C 0.64422 0.23102 0.22877 0.0
H2490 H 0.63363 0.90401 0.94768 0.0
H2491 H 0.63342 0.92463 0.87853 0.0
H2492 H 0.62771 0.96465 0.89769 0.0
H2493 H 0.59035 0.92522 0.96537 0.0
H2494 H 0.60018 0.93645 0.99681 0.0
H2495 H 0.61038 0.91232 0.97957 0.0
H2496 H 0.65132 0.93738 0.99129 0.0
H2497 H 0.64123 0.96153 0.00906 0.0
H2498 H 0.65913 0.96778 0.98606 0.0
H2499 H 0.61212 0.9968 0.92154 0.0
H2500 H 0.59249 0.02102 0.94979 0.0
H2501 H 0.60456 0.98045 1.00345 0.0
C2502 C 0.63328 0.9173 0.93674 0.0
C2503 C 0.63378 0.9112 0.91165 0.0
C2504 C 0.63309 0.92895 0.89783 0.0
C2505 C 0.62989 0.95177 0.90856 0.0
C2506 C 0.62797 0.95664 0.93313 0.0
C2507 C 0.63021 0.94014 0.94719 0.0
C2508 C 0.62454 0.94834 0.97242 0.0
C2509 C 0.60522 0.92947 0.97888 0.0
C2510 C 0.6453 0.95411 0.99079 0.0
C2511 C 0.61737 0.97119 0.96987 0.0
C2512 C 0.61967 0.97587 0.9472 0.0
C2513 C 0.61102 0.99389 0.93964 0.0
C2514 C 0.5997 0.00737 0.9557 0.0
C2515 C 0.59732 1.0028 0.979 0.0
C2516 C 0.60671 0.98488 0.98619 0.0
H2517 H 0.93298 0.74787 0.68694 0.0
H2518 H 0.97646 0.79477 0.74847 0.0
H2519 H 0.94364 0.79649 0.77126 0.0
H2520 H 0.88658 0.77403 0.69148 0.0
H2521 H 0.86523 0.74605 0.68483 0.0
H2522 H 0.89172 0.74725 0.67278 0.0
H2523 H 0.89855 0.71216 0.69154 0.0
H2524 H 0.87178 0.70969 0.70332 0.0
H2525 H 0.8968 0.71386 0.72322 0.0
H2526 H 0.90689 0.78873 0.78885 0.0
H2527 H 0.86692 0.78035 0.79661 0.0
H2528 H 0.84747 0.74233 0.72268 0.0
C2529 C 0.93545 0.75891 0.70502 0.0
C2530 C 0.95706 0.77144 0.71599 0.0
C2531 C 0.9599 0.78515 0.73987 0.0
C2532 C 0.94146 0.78605 0.75297 0.0
C2533 C 0.92046 0.77274 0.74199 0.0
C2534 C 0.91727 0.75964 0.71848 0.0
C2535 C 0.89295 0.74672 0.71109 0.0
C2536 C 0.88355 0.75397 0.68875 0.0
C2537 C 0.88985 0.71897 0.70705 0.0
C2538 C 0.88283 0.75618 0.73343 0.0
C2539 C 0.89908 0.77008 0.75149 0.0
C2540 C 0.89393 0.77869 0.77458 0.0
C2541 C 0.87134 0.77424 0.77878 0.0
C2542 C 0.85455 0.76279 0.75963 0.0
C2543 C 0.86028 0.75241 0.73714 0.0
H2544 H 0.10512 0.99693 0.83711 0.0
H2545 H 0.17281 0.0401 0.85905 0.0
H2546 H 0.16416 0.04777 0.9013 0.0
H2547 H 0.0756 0.02994 0.87821 0.0
H2548 H 0.05715 1.00418 0.88569 0.0
H2549 H 0.06839 1.00104 0.8571 0.0
H2550 H 0.08449 0.96561 0.86586 0.0
H2551 H 0.07313 0.96856 0.89444 0.0
H2552 H 0.10257 0.96998 0.89316 0.0
H2553 H 0.14747 0.05327 0.94219 0.0
H2554 H 0.12614 0.05364 0.97721 0.0
H2555 H 0.0685 1.00522 0.93188 0.0
C2556 C 0.11835 0.00755 0.85085 0.0
C2557 C 0.14014 0.01748 0.84401 0.0
C2558 C 0.15637 0.03162 0.86312 0.0
C2559 C 0.15144 0.0363 0.88745 0.0
C2560 C 0.13005 0.02644 0.89347 0.0
C2561 C 0.11384 0.01181 0.87574 0.0
C2562 C 0.09244 1.00279 0.88759 0.0
C2563 C 0.07219 0.00993 0.87648 0.0
C2564 C 0.08787 0.97509 0.8851 0.0
C2565 C 0.09862 0.01589 0.91435 0.0
C2566 C 0.1206 0.02913 0.91717 0.0
C2567 C 0.13035 0.04269 0.93993 0.0
C2568 C 0.11783 0.04273 0.96009 0.0
C2569 C 0.09512 0.02948 0.95848 0.0
C2570 C 0.08557 0.01578 0.93469 0.0
H2571 H 0.81687 0.3737 0.56711 0.0
H2572 H 0.83713 0.44798 0.60851 0.0
H2573 H 0.84648 0.43292 0.64452 0.0
H2574 H 0.79361 0.34531 0.61565 0.0
H2575 H 0.80432 0.31869 0.60596 0.0
H2576 H 0.79656 0.33515 0.5843 0.0
H2577 H 0.83618 0.34002 0.57003 0.0
H2578 H 0.84409 0.32365 0.59159 0.0
H2579 H 0.8604 0.35368 0.59163 0.0
H2580 H 0.85706 0.41026 0.6747 0.0
H2581 H 0.86854 0.38127 0.69693 0.0
H2582 H 0.8418 0.32209 0.63572 0.0
C2583 C 0.82272 0.38677 0.5839 0.0
C2584 C 0.82606 0.41197 0.58515 0.0
C2585 C 0.83424 0.42856 0.60727 0.0
C2586 C 0.83957 0.42019 0.6278 0.0
C2587 C 0.8365 0.39522 0.62585 0.0
C2588 C 0.82821 0.37875 0.60448 0.0
C2589 C 0.82824 0.35304 0.60658 0.0
C2590 C 0.80425 0.33712 0.60291 0.0
C2591 C 0.84312 0.34197 0.58892 0.0
C2592 C 0.83834 0.35771 0.63235 0.0
C2593 C 0.84275 0.38212 0.64324 0.0
C2594 C 0.85334 0.39106 0.66656 0.0
C2595 C 0.85978 0.37459 0.67901 0.0
C2596 C 0.85563 0.3497 0.66797 0.0
C2597 C 0.84463 0.34108 0.64453 0.0
H2598 H 0.45738 0.06229 0.38713 0.0
H2599 H 0.43979 0.98353 0.36768 0.0
H2600 H 0.46646 0.98208 0.40088 0.0
H2601 H 0.51044 0.0692 0.39396 0.0
H2602 H 0.51872 0.09384 0.41996 0.0
H2603 H 0.4932 0.09065 0.40131 0.0
H2604 H 0.46932 0.08832 0.43704 0.0
H2605 H 0.49499 0.09381 0.45631 0.0
H2606 H 0.47266 0.06774 0.45629 0.0
H2607 H 0.50311 0.98899 0.42257 0.0
H2608 H 0.53774 1.0034 0.4502 0.0
H2609 H 0.53048 0.07753 0.45923 0.0
C2610 C 0.458 0.04481 0.39105 0.0
C2611 C 0.44708 0.02299 0.37495 0.0
C2612 C 0.44839 1.00033 0.37994 0.0
C2613 C 0.46356 0.99937 0.39856 0.0
C2614 C 0.47663 0.02125 0.41195 0.0
C2615 C 0.47316 0.04362 0.40962 0.0
C2616 C 0.49125 0.06429 0.42459 0.0
C2617 C 0.50414 0.08043 0.409 0.0
C2618 C 0.48146 0.07941 0.44477 0.0
C2619 C 0.50593 0.04989 0.4344 0.0
C2620 C 0.49745 0.02518 0.42625 0.0
C2621 C 0.5094 0.00822 0.4301 0.0
C2622 C 0.52937 0.01662 0.44513 0.0
C2623 C 0.53618 0.04135 0.45689 0.0
C2624 C 0.52536 0.0585 0.45032 0.0
H2625 H 0.80338 0.75576 0.08828 0.0
H2626 H 0.78317 0.67912 0.08959 0.0
H2627 H 0.78239 0.68969 0.1334 0.0
H2628 H 0.83994 0.77261 0.14388 0.0
H2629 H 0.83322 0.80167 0.15332 0.0
H2630 H 0.83152 0.78826 0.12179 0.0
H2631 H 0.79029 0.79163 0.1166 0.0
H2632 H 0.79172 0.80467 0.14822 0.0
H2633 H 0.77039 0.77777 0.1347 0.0
H2634 H 0.78565 0.70799 0.17732 0.0
H2635 H 0.79302 0.73331 0.21856 0.0
H2636 H 0.8099 0.79823 0.18973 0.0
C2637 C 0.79858 0.74124 0.09778 0.0
C2638 C 0.79317 0.71656 0.08533 0.0
C2639 C 0.78733 0.69813 0.09857 0.0
C2640 C 0.78679 0.70394 0.12353 0.0
C2641 C 0.79217 0.72832 0.13523 0.0
C2642 C 0.79806 0.74673 0.12289 0.0
C2643 C 0.80398 0.77141 0.14017 0.0
C2644 C 0.82862 0.78424 0.13976 0.0
C2645 C 0.78814 0.78731 0.13458 0.0
C2646 C 0.80021 0.76394 0.16397 0.0
C2647 C 0.7935 0.73897 0.16069 0.0
C2648 C 0.7904 0.7276 0.18007 0.0
C2649 C 0.79438 0.74211 0.20343 0.0
C2650 C 0.80085 0.76774 0.20724 0.0
C2651 C 0.80395 0.77872 0.18721 0.0
H2652 H 0.1155 0.02254 0.70093 0.0
H2653 H 0.17366 1.00254 0.6711 0.0
H2654 H 0.1601 0.00836 0.63164 0.0
H2655 H 0.07457 0.99496 0.64853 0.0
H2656 H 0.0605 0.01954 0.65124 0.0
H2657 H 0.0746 0.01422 0.67756 0.0
H2658 H 0.0979 0.05864 0.68684 0.0
H2659 H 0.0839 0.06388 0.66037 0.0
H2660 H 0.11399 0.06972 0.66426 0.0
H2661 H 0.1405 0.01787 0.59358 0.0
H2662 H 0.11563 0.02557 0.56179 0.0
H2663 H 0.06797 0.03771 0.61301 0.0
C2664 C 0.12539 0.01917 0.68612 0.0
C2665 C 0.14609 0.01173 0.69008 0.0
C2666 C 0.15804 0.00814 0.66952 0.0
C2667 C 0.15036 0.01152 0.64663 0.0
C2668 C 0.13035 0.01899 0.64346 0.0
C2669 C 0.11792 0.02276 0.66271 0.0
C2670 C 0.09704 0.03108 0.65411 0.0
C2671 C 0.07539 0.01392 0.6581 0.0
C2672 C 0.09827 0.05738 0.6672 0.0
C2673 C 0.09897 0.02994 0.62697 0.0
C2674 C 0.11881 0.02371 0.62149 0.0
C2675 C 0.12493 0.0226 0.59799 0.0
C2676 C 0.11055 0.02722 0.57976 0.0
C2677 C 0.08945 0.0326 0.58409 0.0
C2678 C 0.0839 0.034 0.60852 0.0
H2679 H 0.82852 0.41535 0.41881 0.0
H2680 H 0.84973 0.37595 0.46987 0.0
H2681 H 0.85148 0.34214 0.43631 0.0
H2682 H 0.79128 0.36705 0.3843 0.0
H2683 H 0.796 0.3755 0.35592 0.0
H2684 H 0.80109 0.39856 0.38309 0.0
H2685 H 0.84211 0.41422 0.3745 0.0
H2686 H 0.83686 0.39155 0.34687 0.0
H2687 H 0.85988 0.39314 0.36862 0.0
H2688 H 0.84659 0.31068 0.39673 0.0
H2689 H 0.83703 0.28607 0.35474 0.0
H2690 H 0.8149 0.34575 0.33327 0.0
C2691 C 0.83417 0.39995 0.42294 0.0
C2692 C 0.83889 0.39808 0.44674 0.0
C2693 C 0.84587 0.37749 0.45156 0.0
C2694 C 0.84703 0.35832 0.43269 0.0
C2695 C 0.84108 0.36021 0.40935 0.0
C2696 C 0.83497 0.38066 0.4045 0.0
C2697 C 0.82676 0.37739 0.37849 0.0
C2698 C 0.80234 0.37975 0.37529 0.0
C2699 C 0.84235 0.39512 0.36642 0.0
C2700 C 0.8286 0.35171 0.36958 0.0
C2701 C 0.83728 0.34204 0.38727 0.0
C2702 C 0.84004 0.3182 0.38266 0.0
C2703 C 0.8344 0.30432 0.35903 0.0
C2704 C 0.82603 0.31459 0.34094 0.0
C2705 C 0.82241 0.33807 0.34656 0.0
H2706 H 0.44131 0.05409 0.22446 0.0
H2707 H 0.49354 0.05438 0.27924 0.0
H2708 H 0.518 0.04507 0.24801 0.0
H2709 H 0.44768 1.00497 0.18368 0.0
H2710 H 0.4433 0.01651 0.15707 0.0
H2711 H 0.4312 0.02728 0.18379 0.0
H2712 H 0.45101 0.07161 0.18302 0.0
H2713 H 0.46337 0.06091 0.15632 0.0
H2714 H 0.48095 0.07968 0.18257 0.0
H2715 H 0.53465 0.03018 0.21175 0.0
H2716 H 0.54249 0.01032 0.17165 0.0
H2717 H 0.48017 0.01973 0.13989 0.0
C2718 C 0.45816 0.05296 0.22987 0.0
C2719 C 0.46559 0.05515 0.25425 0.0
C2720 C 0.48756 0.05304 0.26067 0.0
C2721 C 0.50164 0.04782 0.24308 0.0
C2722 C 0.49366 0.04517 0.21918 0.0
C2723 C 0.47254 0.04788 0.21249 0.0
C2724 C 0.46743 0.04197 0.1854 0.0
C2725 C 0.44615 0.02146 0.17702 0.0
C2726 C 0.46559 0.0649 0.17629 0.0
C2727 C 0.48829 0.03381 0.1781 0.0
C2728 C 0.50344 0.03646 0.19788 0.0
C2729 C 0.52321 0.0285 0.19603 0.0
C2730 C 0.52749 0.0172 0.17335 0.0
C2731 C 0.51193 0.01383 0.15312 0.0
C2732 C 0.49232 0.02253 0.15532 0.0
H2733 H 0.79377 0.75126 0.94467 0.0
H2734 H 0.83146 0.69531 0.9318 0.0
H2735 H 0.83945 0.70497 0.89278 0.0
H2736 H 0.76838 0.74106 0.88536 0.0
H2737 H 0.77056 0.77255 0.8846 0.0
H2738 H 0.76912 0.76307 0.91281 0.0
H2739 H 0.80616 0.79461 0.9301 0.0
H2740 H 0.80762 0.80424 0.90192 0.0
H2741 H 0.83073 0.79437 0.91443 0.0
H2742 H 0.83991 0.71658 0.85336 0.0
H2743 H 0.83465 0.73198 0.8164 0.0
H2744 H 0.79898 0.78242 0.85397 0.0
C2745 C 0.804 0.74135 0.93379 0.0
C2746 C 0.81188 0.7224 0.94144 0.0
C2747 C 0.8251 0.70981 0.9265 0.0
C2748 C 0.82983 0.7152 0.90422 0.0
C2749 C 0.82149 0.73348 0.89696 0.0
C2750 C 0.80909 0.74666 0.91131 0.0
C2751 C 0.80159 0.76484 0.89848 0.0
C2752 C 0.77589 0.76008 0.89512 0.0
C2753 C 0.81216 0.79107 0.91204 0.0
C2754 C 0.81105 0.75908 0.87449 0.0
C2755 C 0.82253 0.74096 0.87415 0.0
C2756 C 0.83136 0.73112 0.85353 0.0
C2757 C 0.82828 0.73988 0.83263 0.0
C2758 C 0.81675 0.7585 0.83255 0.0
C2759 C 0.80827 0.76847 0.85382 0.0
H2760 H 0.85813 0.11777 0.01479 0.0
H2761 H 0.84491 0.08171 0.07414 0.0
H2762 H 0.88156 0.07068 0.07219 0.0
H2763 H 0.87715 0.07292 0.98176 0.0
H2764 H 0.89745 0.09238 0.96834 0.0
H2765 H 0.87324 0.1022 0.97842 0.0
H2766 H 0.89885 0.14122 0.00543 0.0
H2767 H 0.92331 0.13143 0.99552 0.0
H2768 H 0.92022 0.1387 0.02716 0.0
H2769 H 0.91566 0.05725 0.05868 0.0
H2770 H 0.94183 0.04006 0.03315 0.0
H2771 H 0.93276 0.08586 0.98338 0.0
C2772 C 0.86319 0.10824 0.02795 0.0
C2773 C 0.84883 0.1007 0.0447 0.0
C2774 C 0.85578 0.08768 0.06116 0.0
C2775 C 0.87663 0.08157 0.06034 0.0
C2776 C 0.89017 0.08876 0.04305 0.0
C2777 C 0.88362 0.10182 0.02715 0.0
C2778 C 0.89891 0.10381 0.00761 0.0
C2779 C 0.88592 0.09213 0.98259 0.0
C2780 C 0.91105 0.13038 0.00904 0.0
C2781 C 0.91479 0.08914 0.01445 0.0
C2782 C 0.90982 0.08093 0.03517 0.0
C2783 C 0.92012 0.06406 0.04282 0.0
C2784 C 0.935 0.05444 0.02826 0.0
C2785 C 0.93912 0.06165 0.0063 0.0
C2786 C 0.92987 0.08015 1.00013 0.0
H2787 H 0.40694 0.4171 0.02577 0.0
H2788 H 0.38113 0.47115 0.07248 0.0
H2789 H 0.41894 0.49836 0.0812 0.0
H2790 H 0.46454 0.43228 0.06215 0.0
H2791 H 0.47835 0.42695 0.0353 0.0
H2792 H 0.45026 0.40977 0.03618 0.0
H2793 H 0.43705 0.42356 0.99838 0.0
H2794 H 0.46492 0.44101 0.99753 0.0
H2795 H 0.44179 0.45559 0.99869 0.0
H2796 H 0.45826 0.52121 0.08201 0.0
H2797 H 0.49652 0.53879 0.07417 0.0
H2798 H 0.49704 0.47145 0.02457 0.0
C2799 C 0.4096 0.43417 0.03873 0.0
C2800 C 0.39138 0.44176 0.04924 0.0
C2801 C 0.3951 0.46475 0.06504 0.0
C2802 C 0.41648 0.48036 0.06997 0.0
C2803 C 0.43407 0.47271 0.05898 0.0
C2804 C 0.43101 0.45007 0.04386 0.0
C2805 C 0.45248 0.44736 0.03285 0.0
C2806 C 0.46197 0.42793 0.04217 0.0
C2807 C 0.44882 0.44155 0.00522 0.0
C2808 C 0.46742 0.47255 0.04277 0.0
C2809 C 0.45665 0.48654 0.05839 0.0
C2810 C 0.46687 0.51043 0.06979 0.0
C2811 C 0.48859 0.52041 0.06495 0.0
C2812 C 0.49972 0.50692 0.04817 0.0
C2813 C 0.48901 0.48245 0.0373 0.0
H2814 H 0.38861 0.64873 0.80657 0.0
H2815 H 0.40207 0.63407 0.73219 0.0
H2816 H 0.38317 0.66601 0.72461 0.0
H2817 H 0.33203 0.66038 0.79299 0.0
H2818 H 0.33441 0.68376 0.8197 0.0
H2819 H 0.34908 0.65988 0.8196 0.0
H2820 H 0.38637 0.69213 0.83282 0.0
H2821 H 0.37166 0.71594 0.83289 0.0
H2822 H 0.39488 0.71466 0.81522 0.0
H2823 H 0.36098 0.70159 0.72452 0.0
H2824 H 0.34132 0.73514 0.73268 0.0
H2825 H 0.341 0.7288 0.80691 0.0
C2826 C 0.38776 0.65218 0.78862 0.0
C2827 C 0.39758 0.63794 0.77001 0.0
C2828 C 0.39517 0.64384 0.747 0.0
C2829 C 0.38421 0.66232 0.74246 0.0
C2830 C 0.37466 0.67563 0.76084 0.0
C2831 C 0.37628 0.67068 0.78359 0.0
C2832 C 0.36406 0.68742 0.80004 0.0
C2833 C 0.3437 0.67194 0.80862 0.0
C2834 C 0.38021 0.70349 0.82153 0.0
C2835 C 0.35615 0.7031 0.78351 0.0
C2836 C 0.36211 0.69562 0.76076 0.0
C2837 C 0.35629 0.7071 0.74238 0.0
C2838 C 0.34468 0.72635 0.74714 0.0
C2839 C 0.33835 0.73505 0.77029 0.0
C2840 C 0.34466 0.72283 0.78869 0.0
H2841 H 0.2228 0.61051 0.54595 0.0
H2842 H 0.21991 0.58598 0.46889 0.0
H2843 H 0.17924 0.56762 0.46702 0.0
H2844 H 0.17688 0.55676 0.55455 0.0
H2845 H 0.1679 0.5769 0.5782 0.0
H2846 H 0.19701 0.58199 0.5735 0.0
H2847 H 0.19592 0.62615 0.57049 0.0
H2848 H 0.16666 0.62025 0.57448 0.0
H2849 H 0.17613 0.63078 0.54826 0.0
H2850 H 0.13914 0.55654 0.47323 0.0
H2851 H 0.10183 0.55564 0.48586 0.0
H2852 H 0.13054 0.59216 0.55828 0.0
C2853 C 0.2136 0.6005 0.52888 0.0
C2854 C 0.22404 0.59899 0.5076 0.0
C2855 C 0.21189 0.58658 0.48532 0.0
C2856 C 0.18895 0.57615 0.48417 0.0
C2857 C 0.17887 0.5784 0.50552 0.0
C2858 C 0.19081 0.59022 0.52745 0.0
C2859 C 0.17572 0.59248 0.54726 0.0
C2860 C 0.17964 0.57601 0.56437 0.0
C2861 C 0.1788 0.619 0.56088 0.0
C2862 C 0.15314 0.58272 0.53267 0.0
C2863 C 0.15546 0.57346 0.50891 0.0
C2864 C 0.13716 0.56372 0.49178 0.0
C2865 C 0.11597 0.56374 0.49908 0.0
C2866 C 0.11313 0.57419 0.52301 0.0
C2867 C 0.13201 0.58368 0.54005 0.0
H2868 H 0.75772 0.99921 0.74456 0.0
H2869 H 0.69451 0.94636 0.72101 0.0
H2870 H 0.71075 0.91505 0.73474 0.0
H2871 H 0.79671 0.9584 0.73472 0.0
H2872 H 0.81374 0.97455 0.76234 0.0
H2873 H 0.79885 0.99046 0.74528 0.0
H2874 H 0.78021 1.00535 0.78305 0.0
H2875 H 0.79439 0.98902 0.80017 0.0
H2876 H 0.76427 0.9834 0.79778 0.0
H2877 H 0.73207 0.89176 0.75626 0.0
H2878 H 0.75691 0.87798 0.78362 0.0
H2879 H 0.80428 0.94793 0.7955 0.0
C2880 C 0.74755 0.98079 0.74129 0.0
C2881 C 0.72504 0.97493 0.73151 0.0
C2882 C 0.71194 0.95094 0.7283 0.0
C2883 C 0.72101 0.93314 0.73602 0.0
C2884 C 0.74298 0.93994 0.74696 0.0
C2885 C 0.75606 0.96322 0.74951 0.0
C2886 C 0.77768 0.9673 0.76522 0.0
C2887 C 0.79794 0.97299 0.75103 0.0
C2888 C 0.7792 0.98744 0.78788 0.0
C2889 C 0.77471 0.94267 0.77133 0.0
C2890 C 0.75476 0.92702 0.76044 0.0
C2891 C 0.7479 0.90367 0.76458 0.0
C2892 C 0.76197 0.89607 0.78013 0.0
C2893 C 0.78229 0.91203 0.79151 0.0
C2894 C 0.78872 0.93552 0.78701 0.0
H2895 H 0.75765 0.9133 0.5029 0.0
H2896 H 0.75871 0.92405 0.58027 0.0
H2897 H 0.72816 0.94576 0.57908 0.0
H2898 H 0.75171 0.97227 0.50079 0.0
H2899 H 0.73432 0.96324 0.47249 0.0
H2900 H 0.75392 0.94579 0.47912 0.0
H2901 H 0.72174 0.90697 0.47134 0.0
H2902 H 0.70199 0.92431 0.46471 0.0
H2903 H 0.69751 0.90683 0.48765 0.0
H2904 H 0.69928 0.96816 0.56967 0.0
H2905 H 0.67633 0.99267 0.55352 0.0
H2906 H 0.69526 0.96889 0.48222 0.0
C2907 C 0.75102 0.9198 0.51947 0.0
C2908 C 0.76002 0.91674 0.54165 0.0
C2909 C 0.75171 0.92612 0.56315 0.0
C2910 C 0.73437 0.93834 0.56259 0.0
C2911 C 0.72593 0.94132 0.54043 0.0
C2912 C 0.73414 0.93254 0.51927 0.0
C2913 C 0.72392 0.94042 0.49823 0.0
C2914 C 0.74205 0.95638 0.48701 0.0
C2915 C 0.71048 0.91831 0.47938 0.0
C2916 C 0.70873 0.95509 0.51086 0.0
C2917 C 0.70992 0.9551 0.53512 0.0
C2918 C 0.69808 0.96815 0.55067 0.0
C2919 C 0.685 0.98194 0.54129 0.0
C2920 C 0.68397 0.98275 0.5166 0.0
C2921 C 0.6958 0.96881 0.5012 0.0
H2922 H 0.38164 0.48414 0.7917 0.0
H2923 H 0.4129 0.46888 0.72605 0.0
H2924 H 0.39337 0.42581 0.71922 0.0
H2925 H 0.38401 0.42811 0.80996 0.0
H2926 H 0.3571 0.42327 0.82146 0.0
H2927 H 0.37233 0.45367 0.82123 0.0
H2928 H 0.33839 0.4604 0.79688 0.0
H2929 H 0.32302 0.43004 0.79715 0.0
H2930 H 0.32664 0.43934 0.769 0.0
H2931 H 0.37322 0.38286 0.72049 0.0
H2932 H 0.35146 0.34427 0.72821 0.0
H2933 H 0.32989 0.38408 0.79163 0.0
C2934 C 0.38381 0.47192 0.77548 0.0
C2935 C 0.39883 0.48076 0.7591 0.0
C2936 C 0.40149 0.46332 0.73874 0.0
C2937 C 0.39045 0.43848 0.73472 0.0
C2938 C 0.37628 0.43032 0.75113 0.0
C2939 C 0.37261 0.44648 0.77102 0.0
C2940 C 0.35666 0.43216 0.78589 0.0
C2941 C 0.36821 0.43445 0.81114 0.0
C2942 C 0.33488 0.44102 0.78732 0.0
C2943 C 0.35211 0.40573 0.7713 0.0
C2944 C 0.3639 0.40529 0.75142 0.0
C2945 C 0.36362 0.38319 0.73579 0.0
C2946 C 0.35106 0.36115 0.7403 0.0
C2947 C 0.33821 0.36061 0.76009 0.0
C2948 C 0.33888 0.38355 0.77587 0.0
H2949 H 0.24633 0.61911 0.27477 0.0
H2950 H 0.21592 0.61597 0.20339 0.0
H2951 H 0.24205 0.65418 0.20186 0.0
H2952 H 0.24823 0.67606 0.29682 0.0
H2953 H 0.27491 0.68465 0.3149 0.0
H2954 H 0.25977 0.65348 0.30769 0.0
H2955 H 0.29418 0.64113 0.28934 0.0
H2956 H 0.30938 0.67255 0.29665 0.0
H2957 H 0.30637 0.6553 0.26618 0.0
H2958 H 0.25593 0.69619 0.21449 0.0
H2959 H 0.26661 0.73848 0.23658 0.0
H2960 H 0.29524 0.71696 0.29732 0.0
C2961 C 0.24586 0.62629 0.25864 0.0
C2962 C 0.22904 0.61526 0.23943 0.0
C2963 C 0.22842 0.62476 0.21852 0.0
C2964 C 0.24344 0.64616 0.21733 0.0
C2965 C 0.2589 0.65772 0.23719 0.0
C2966 C 0.26074 0.64794 0.25731 0.0
C2967 C 0.27597 0.66617 0.27767 0.0
C2968 C 0.26397 0.67032 0.30058 0.0
C2969 C 0.29778 0.65831 0.28273 0.0
C2970 C 0.28025 0.68835 0.26664 0.0
C2971 C 0.27031 0.68286 0.24318 0.0
C2972 C 0.26581 0.70075 0.23178 0.0
C2973 C 0.2721 0.72478 0.24429 0.0
C2974 C 0.28391 0.73087 0.26728 0.0
C2975 C 0.28797 0.71255 0.27877 0.0
H2976 H 0.538 0.70786 0.4986 0.0
H2977 H 0.50982 0.67056 0.42589 0.0
H2978 H 0.51617 0.63231 0.43411 0.0
H2979 H 0.58049 0.67222 0.50322 0.0
H2980 H 0.57766 0.67081 0.5342 0.0
H2981 H 0.57208 0.6963 0.52306 0.0
H2982 H 0.53256 0.68831 0.53727 0.0
H2983 H 0.53822 0.66301 0.54866 0.0
H2984 H 0.51397 0.65859 0.52749 0.0
H2985 H 0.52741 0.59814 0.44835 0.0
H2986 H 0.53605 0.56809 0.4704 0.0
H2987 H 0.55318 0.62377 0.53606 0.0
C2988 C 0.53304 0.69161 0.48447 0.0
C2989 C 0.5234 0.69266 0.46137 0.0
C2990 C 0.51725 0.67071 0.44361 0.0
C2991 C 0.52093 0.64871 0.44807 0.0
C2992 C 0.53071 0.64834 0.47059 0.0
C2993 C 0.53633 0.66901 0.48877 0.0
C2994 C 0.54578 0.66276 0.51163 0.0
C2995 C 0.57047 0.67633 0.51843 0.0
C2996 C 0.53178 0.6685 0.53249 0.0
C2997 C 0.54368 0.6353 0.50357 0.0
C2998 C 0.53572 0.62778 0.47951 0.0
C2999 C 0.53328 0.60375 0.46731 0.0
C3000 C 0.53824 0.5867 0.48004 0.0
C3001 C 0.545 0.59322 0.50506 0.0
C3002 C 0.54799 0.61808 0.51695 0.0
H3003 H 0.6769 0.29513 0.63409 0.0
H3004 H 0.66003 0.35599 0.681 0.0
H3005 H 0.69147 0.35775 0.71076 0.0
H3006 H 0.69067 0.26669 0.68278 0.0
H3007 H 0.71309 0.25551 0.66909 0.0
H3008 H 0.6901 0.25961 0.65052 0.0
H3009 H 0.71791 0.28748 0.62986 0.0
H3010 H 0.74098 0.28337 0.6483 0.0
H3011 H 0.73764 0.31358 0.64797 0.0
H3012 H 0.72554 0.35404 0.73517 0.0
H3013 H 0.7573 0.34264 0.75428 0.0
H3014 H 0.75149 0.28221 0.69378 0.0
C3015 C 0.6801 0.30907 0.65046 0.0
C3016 C 0.66614 0.32582 0.65492 0.0
C3017 C 0.67052 0.34319 0.67697 0.0
C3018 C 0.6884 0.34433 0.69403 0.0
C3019 C 0.70178 0.32765 0.68921 0.0
C3020 C 0.69774 0.31012 0.66811 0.0
C3021 C 0.71398 0.29351 0.6683 0.0
C3022 C 0.7012 0.26727 0.66763 0.0
C3023 C 0.72849 0.29456 0.64736 0.0
C3024 C 0.72804 0.30483 0.69248 0.0
C3025 C 0.72062 0.32451 0.70413 0.0
C3026 C 0.73103 0.33824 0.72642 0.0
C3027 C 0.74895 0.33131 0.73743 0.0
C3028 C 0.75632 0.31041 0.72677 0.0
C3029 C 0.74605 0.29758 0.70338 0.0
H3030 H 0.00761 0.35316 0.98197 0.0
H3031 H 0.0734 0.34829 0.96135 0.0
H3032 H 0.08711 0.39234 0.97582 0.0
H3033 H 0.00395 0.40414 0.96532 0.0
H3034 H 0.99196 0.4187 0.99045 0.0
H3035 H 0.98798 0.38633 0.98393 0.0
H3036 H 0.00483 0.38828 0.02708 0.0
H3037 H 0.0085 0.42088 0.0338 0.0
H3038 H 0.03206 0.40777 0.03822 0.0
H3039 H 0.09042 0.4354 0.9801 0.0
H3040 H 0.08715 0.4766 0.98382 0.0
H3041 H 0.0224 0.45897 0.01054 0.0
C3042 C 0.02522 0.36124 0.98197 0.0
C3043 C 0.03957 0.34705 0.97085 0.0
C3044 C 0.06225 0.35855 0.97017 0.0
C3045 C 0.07018 0.38369 0.97825 0.0
C3046 C 0.05546 0.39736 0.98779 0.0
C3047 C 0.03378 0.38666 0.99089 0.0
C3048 C 0.02153 0.40647 1.00052 0.0
C3049 C 1.00009 0.40372 0.98403 0.0
C3050 C 0.01641 0.4058 0.02644 0.0
C3051 C 0.03901 0.42974 0.99993 0.0
C3052 C 0.05838 0.42358 0.99261 0.0
C3053 C 0.07583 0.44059 0.98718 0.0
C3054 C 0.07376 0.46449 0.98956 0.0
C3055 C 0.0549 0.47253 0.9984 0.0
C3056 C 0.03726 0.45447 0.004 0.0
H3057 H 0.03141 0.76568 0.15887 0.0
H3058 H 0.03773 0.83919 0.14886 0.0
H3059 H 1.00073 0.83947 0.16416 0.0
H3060 H 0.96891 0.7457 0.14268 0.0
H3061 H 0.96616 0.7267 0.16442 0.0
H3062 H 0.99123 0.73158 0.14943 0.0
H3063 H 0.01516 0.74675 0.19079 0.0
H3064 H 0.99028 0.74218 0.20588 0.0
H3065 H 0.00947 0.77165 0.21213 0.0
H3066 H 0.9654 0.83312 0.18691 0.0
H3067 H 0.93583 0.82067 0.21264 0.0
H3068 H 0.95232 0.75046 0.20512 0.0
C3069 C 0.02473 0.78163 0.15933 0.0
C3070 C 0.03738 0.80242 0.15274 0.0
C3071 C 0.02818 0.82299 0.15362 0.0
C3072 C 0.0072 0.82328 0.16234 0.0
C3073 C 0.99543 0.80261 0.16947 0.0
C3074 C 0.00377 0.78199 0.16747 0.0
C3075 C 0.98881 0.76257 0.17744 0.0
C3076 C 0.97814 0.74032 0.15729 0.0
C3077 C 1.0017 0.75539 0.19776 0.0
C3078 C 0.97144 0.77591 0.18686 0.0
C3079 C 0.97519 0.79884 0.1818 0.0
C3080 C 0.96213 0.81501 0.19048 0.0
C3081 C 0.94526 0.80774 0.20504 0.0
C3082 C 0.9417 0.78457 0.21103 0.0
C3083 C 0.95463 0.76834 0.20108 0.0
H3084 H 0.50898 0.33887 0.12644 0.0
H3085 H 0.50087 0.27186 0.0728 0.0
H3086 H 0.51521 0.29529 0.04331 0.0
H3087 H 0.49336 0.3748 0.08122 0.0
H3088 H 0.51299 0.40222 0.09693 0.0
H3089 H 0.49937 0.38054 0.11341 0.0
H3090 H 0.53811 0.37838 0.13179 0.0
H3091 H 0.55186 0.39965 0.11507 0.0
H3092 H 0.55849 0.37036 0.11219 0.0
H3093 H 0.53546 0.32405 0.02173 0.0
H3094 H 0.55579 0.35845 0.00616 0.0
H3095 H 0.5498 0.40816 0.072 0.0
C3096 C 0.50951 0.32924 0.10825 0.0
C3097 C 0.50379 0.30348 0.10195 0.0
C3098 C 0.50497 0.29151 0.07806 0.0
C3099 C 0.5132 0.30466 0.06114 0.0
C3100 C 0.51962 0.32984 0.06812 0.0
C3101 C 0.51729 0.3422 0.09081 0.0
C3102 C 0.52605 0.36945 0.09343 0.0
C3103 C 0.5068 0.38252 0.09642 0.0
C3104 C 0.54475 0.38006 0.11435 0.0
C3105 C 0.53496 0.37006 0.06922 0.0
C3106 C 0.53083 0.34695 0.05497 0.0
C3107 C 0.53839 0.34235 0.03242 0.0
C3108 C 0.55013 0.36197 0.02384 0.0
C3109 C 0.55428 0.38594 0.03778 0.0
C3110 C 0.54654 0.39004 0.0608 0.0
H3111 H 0.06024 0.3686 0.34299 0.0
H3112 H 0.04558 0.30002 0.36602 0.0
H3113 H 0.00513 0.2956 0.35508 0.0
H3114 H 0.00908 0.38838 0.36196 0.0
H3115 H 0.00683 0.40175 0.33617 0.0
H3116 H 0.03398 0.4011 0.34936 0.0
H3117 H 0.04257 0.37902 0.30798 0.0
H3118 H 0.01552 0.37945 0.29467 0.0
H3119 H 0.02362 0.35098 0.2925 0.0
H3120 H 0.96777 0.29563 0.33521 0.0
H3121 H 0.93619 0.30072 0.3097 0.0
H3122 H 0.97548 0.37064 0.30219 0.0
C3123 C 0.04849 0.35283 0.34611 0.0
C3124 C 0.05585 0.33455 0.35509 0.0
C3125 C 0.0401 0.31423 0.3591 0.0
C3126 C 0.01717 0.31163 0.35306 0.0
C3127 C 0.01051 0.32979 0.34359 0.0
C3128 C 0.02572 0.35014 0.34047 0.0
C3129 C 0.01472 0.36603 0.32809 0.0
C3130 C 0.01624 0.39078 0.3449 0.0
C3131 C 0.0247 0.36902 0.30441 0.0
C3132 C 0.99106 0.35084 0.32352 0.0
C3133 C 0.98884 0.33015 0.33283 0.0
C3134 C 0.9691 0.31209 0.32846 0.0
C3135 C 0.95126 0.31519 0.31397 0.0
C3136 C 0.95338 0.33623 0.30412 0.0
C3137 C 0.97339 0.3544 0.30943 0.0
H3138 H 0.98531 0.68233 0.60235 0.0
H3139 H 0.99385 0.665 0.67246 0.0
H3140 H 1.00015 0.62543 0.65343 0.0
H3141 H 0.95967 0.61391 0.56875 0.0
H3142 H 0.97349 0.61947 0.54274 0.0
H3143 H 0.96294 0.64311 0.56081 0.0
H3144 H 0.00239 0.67175 0.56564 0.0
H3145 H 0.01324 0.64809 0.54847 0.0
H3146 H 0.02602 0.6629 0.57845 0.0
H3147 H 0.01629 0.59507 0.62965 0.0
H3148 H 0.03461 0.57064 0.60083 0.0
H3149 H 0.01363 0.60451 0.5447 0.0
C3150 C 0.98722 0.66961 0.61353 0.0
C3151 C 0.98928 0.67682 0.63891 0.0
C3152 C 0.99232 0.65994 0.65302 0.0
C3153 C 0.99586 0.63734 0.64236 0.0
C3154 C 0.99562 0.63155 0.6175 0.0
C3155 C 0.9905 0.64667 0.60304 0.0
C3156 C 0.99377 0.63699 0.57704 0.0
C3157 C 0.97112 0.62783 0.56142 0.0
C3158 C 0.00982 0.65607 0.56684 0.0
C3159 C 0.00391 0.61586 0.57984 0.0
C3160 C 0.00429 0.61278 0.60323 0.0
C3161 C 0.01522 0.59655 0.61103 0.0
C3162 C 0.02579 0.58284 0.59445 0.0
C3163 C 0.0254 0.58531 0.5702 0.0
C3164 C 0.01398 0.60183 0.56284 0.0
H3165 H 0.66189 0.81293 0.82667 0.0
H3166 H 0.70038 0.8374 0.89706 0.0
H3167 H 0.73507 0.83767 0.87818 0.0
H3168 H 0.69073 0.77332 0.80226 0.0
H3169 H 0.69224 0.77937 0.77243 0.0
H3170 H 0.66944 0.78523 0.7892 0.0
H3171 H 0.67779 0.82995 0.78648 0.0
H3172 H 0.69961 0.82453 0.76786 0.0
H3173 H 0.70586 0.84858 0.79448 0.0
H3174 H 0.76279 0.82574 0.85481 0.0
H3175 H 0.78663 0.81194 0.8252 0.0
H3176 H 0.73368 0.80116 0.76768 0.0
C3177 C 0.6777 0.81871 0.83797 0.0
C3178 C 0.6786 0.82476 0.86328 0.0
C3179 C 0.69941 0.83243 0.87764 0.0
C3180 C 0.71918 0.83278 0.86712 0.0
C3181 C 0.71775 0.82585 0.84228 0.0
C3182 C 0.69779 0.81971 0.82766 0.0
C3183 C 0.70136 0.81187 0.80147 0.0
C3184 C 0.68766 0.78588 0.79069 0.0
C3185 C 0.69584 0.82983 0.78671 0.0
C3186 C 0.72629 0.81319 0.80411 0.0
C3187 C 0.73508 0.82121 0.82795 0.0
C3188 C 0.75665 0.82087 0.83592 0.0
C3189 C 0.77012 0.81319 0.81894 0.0
C3190 C 0.76233 0.80701 0.79423 0.0
C3191 C 0.74006 0.80663 0.78652 0.0
H3192 H 0.45609 0.57249 0.67666 0.0
H3193 H 0.50708 0.55973 0.72495 0.0
H3194 H 0.53057 0.55436 0.69154 0.0
H3195 H 0.46234 0.53061 0.6225 0.0
H3196 H 0.45961 0.55042 0.60226 0.0
H3197 H 0.44662 0.55356 0.62983 0.0
H3198 H 0.46755 0.59877 0.64183 0.0
H3199 H 0.48061 0.59571 0.61426 0.0
H3200 H 0.49762 0.60686 0.64274 0.0
H3201 H 0.54969 0.54979 0.65121 0.0
H3202 H 0.56125 0.54632 0.61025 0.0
H3203 H 0.49916 0.5619 0.58554 0.0
C3204 C 0.47218 0.56852 0.68033 0.0
C3205 C 0.47919 0.5665 0.70437 0.0
C3206 C 0.50076 0.56153 0.70745 0.0
C3207 C 0.51443 0.55838 0.68824 0.0
C3208 C 0.50709 0.56045 0.6651 0.0
C3209 C 0.48644 0.56563 0.66109 0.0
C3210 C 0.48298 0.56763 0.63449 0.0
C3211 C 0.46161 0.54946 0.6215 0.0
C3212 C 0.48212 0.59379 0.63325 0.0
C3213 C 0.50411 0.5614 0.62383 0.0
C3214 C 0.51802 0.55789 0.6421 0.0
C3215 C 0.53874 0.55267 0.63707 0.0
C3216 C 0.54539 0.55093 0.61336 0.0
C3217 C 0.53169 0.55404 0.59373 0.0
C3218 C 0.51046 0.55929 0.59953 0.0
H3219 H 0.78697 0.15645 0.94058 0.0
H3220 H 0.81287 0.21792 1.00017 0.0
H3221 H 0.80676 0.24595 0.97428 0.0
H3222 H 0.80821 0.18699 0.89175 0.0
H3223 H 0.78322 0.17198 0.87166 0.0
H3224 H 0.79307 0.15704 0.89366 0.0
H3225 H 0.75438 0.15155 0.91033 0.0
H3226 H 0.74446 0.16654 0.88853 0.0
H3227 H 0.74324 0.17785 0.92008 0.0
H3228 H 0.79443 0.26691 0.94333 0.0
H3229 H 0.77604 0.27912 0.90945 0.0
H3230 H 0.75678 0.20389 0.87096 0.0
C3231 C 0.79213 0.17584 0.94791 0.0
C3232 C 0.80072 0.18506 0.9722 0.0
C3233 C 0.80655 0.21051 0.98145 0.0
C3234 C 0.80314 0.22658 0.96691 0.0
C3235 C 0.79397 0.21686 0.94321 0.0
C3236 C 0.78863 0.19209 0.93372 0.0
C3237 C 0.77694 0.18616 0.90849 0.0
C3238 C 0.79121 0.17487 0.89031 0.0
C3239 C 0.75336 0.16955 0.90678 0.0
C3240 C 0.77586 0.21135 0.90558 0.0
C3241 C 0.78616 0.22887 0.92561 0.0
C3242 C 0.78659 0.25341 0.92741 0.0
C3243 C 0.77616 0.26017 0.90819 0.0
C3244 C 0.76517 0.24236 0.88783 0.0
C3245 C 0.76515 0.21774 0.88644 0.0
H3246 H 0.16304 0.50594 0.14315 0.0
H3247 H 0.16748 0.57696 0.18816 0.0
H3248 H 0.13451 0.58133 0.16413 0.0
H3249 H 0.14355 0.52333 0.08583 0.0
H3250 H 0.12694 0.49282 0.07486 0.0
H3251 H 0.15266 0.49805 0.09395 0.0
H3252 H 0.12996 0.47409 0.12225 0.0
H3253 H 0.10395 0.47063 0.10428 0.0
H3254 H 0.10728 0.48497 0.13575 0.0
H3255 H 0.09912 0.57572 0.13852 0.0
H3256 H 0.06932 0.56578 0.10477 0.0
H3257 H 0.0878 0.49814 0.07737 0.0
C3258 C 0.15756 0.52277 0.14714 0.0
C3259 C 0.16737 0.54111 0.16717 0.0
C3260 C 0.15997 0.56289 0.17254 0.0
C3261 C 0.14119 0.56538 0.15924 0.0
C3262 C 0.13068 0.54606 0.14061 0.0
C3263 C 0.13917 0.52573 0.13379 0.0
C3264 C 0.12484 0.50773 0.11293 0.0
C3265 C 0.13776 0.50536 0.09058 0.0
C3266 C 0.11599 0.48289 0.11921 0.0
C3267 C 0.10632 0.52051 0.10998 0.0
C3268 C 0.10998 0.54259 0.12616 0.0
C3269 C 0.09593 0.55844 0.12583 0.0
C3270 C 0.07878 0.55244 0.10705 0.0
C3271 C 0.07621 0.53092 0.08936 0.0
C3272 C 0.0891 0.51412 0.09151 0.0
H3273 H 0.82011 0.83219 0.45619 0.0
H3274 H 0.80595 0.90033 0.44561 0.0
H3275 H 0.80501 0.88678 0.40235 0.0
H3276 H 0.85503 0.82465 0.4075 0.0
H3277 H 0.84417 0.79231 0.39728 0.0
H3278 H 0.84431 0.80647 0.42841 0.0
H3279 H 0.80171 0.78908 0.42644 0.0
H3280 H 0.80148 0.77427 0.39551 0.0
H3281 H 0.78317 0.79441 0.40345 0.0
H3282 H 0.80763 0.8686 0.36104 0.0
H3283 H 0.80644 0.84218 0.32132 0.0
H3284 H 0.81544 0.78341 0.35521 0.0
C3285 C 0.81682 0.84419 0.44472 0.0
C3286 C 0.81363 0.86766 0.45466 0.0
C3287 C 0.80897 0.88255 0.43885 0.0
C3288 C 0.8084 0.87506 0.41406 0.0
C3289 C 0.81229 0.85242 0.40491 0.0
C3290 C 0.81587 0.8368 0.41946 0.0
C3291 C 0.81842 0.8129 0.40411 0.0
C3292 C 0.84188 0.80884 0.40965 0.0
C3293 C 0.80009 0.7914 0.40758 0.0
C3294 C 0.81541 0.81775 0.37891 0.0
C3295 C 0.81251 0.84098 0.38013 0.0
C3296 C 0.80981 0.85031 0.35973 0.0
C3297 C 0.80933 0.83525 0.33725 0.0
C3298 C 0.81119 0.81099 0.33527 0.0
C3299 C 0.81436 0.80208 0.35636 0.0
H3300 H 0.45724 0.54773 0.8694 0.0
H3301 H 0.51875 0.57853 0.84222 0.0
H3302 H 0.54045 0.57557 0.87881 0.0
H3303 H 0.47593 0.57823 0.93433 0.0
H3304 H 0.46201 0.55237 0.94551 0.0
H3305 H 0.45103 0.55774 0.91758 0.0
H3306 H 0.45285 0.51447 0.89617 0.0
H3307 H 0.46416 0.50918 0.924 0.0
H3308 H 0.47912 0.50553 0.89782 0.0
H3309 H 0.55709 0.56553 0.91885 0.0
H3310 H 0.56512 0.55573 0.95849 0.0
H3311 H 0.49389 0.53415 0.96327 0.0
C3312 C 0.4752 0.55478 0.87142 0.0
C3313 C 0.48577 0.56435 0.85222 0.0
C3314 C 0.50963 0.57189 0.85616 0.0
C3315 C 0.52236 0.56996 0.87713 0.0
C3316 C 0.51161 0.56024 0.89525 0.0
C3317 C 0.48842 0.55321 0.89284 0.0
C3318 C 0.48116 0.54341 0.91526 0.0
C3319 C 0.46666 0.55885 0.92899 0.0
C3320 C 0.46855 0.51656 0.90786 0.0
C3321 C 0.5036 0.54607 0.93051 0.0
C3322 C 0.52104 0.5554 0.91836 0.0
C3323 C 0.5433 0.55846 0.92836 0.0
C3324 C 0.54784 0.55257 0.95113 0.0
C3325 C 0.53045 0.54384 0.9648 0.0
C3326 C 0.50791 0.54062 0.95378 0.0
H3327 H 0.76805 0.16227 0.12078 0.0
H3328 H 0.80456 0.2073 0.07651 0.0
H3329 H 0.80432 0.24398 0.10673 0.0
H3330 H 0.73359 0.204 0.14552 0.0
H3331 H 0.73611 0.19715 0.17491 0.0
H3332 H 0.73666 0.17432 0.14852 0.0
H3333 H 0.77509 0.1693 0.16568 0.0
H3334 H 0.77415 0.19153 0.19224 0.0
H3335 H 0.79788 0.19583 0.17518 0.0
H3336 H 0.80381 0.27523 0.1432 0.0
H3337 H 0.80605 0.29795 0.18505 0.0
H3338 H 0.76857 0.23265 0.20432 0.0
C3339 C 0.77572 0.17985 0.11729 0.0
C3340 C 0.78618 0.18194 0.09631 0.0
C3341 C 0.79638 0.20525 0.09252 0.0
C3342 C 0.79614 0.22624 0.10942 0.0
C3343 C 0.78552 0.22357 0.12986 0.0
C3344 C 0.77565 0.20097 0.13395 0.0
C3345 C 0.76755 0.2029 0.15849 0.0
C3346 C 0.74195 0.19407 0.15674 0.0
C3347 C 0.77938 0.18909 0.17378 0.0
C3348 C 0.77495 0.23004 0.16774 0.0
C3349 C 0.78505 0.24174 0.15091 0.0
C3350 C 0.79563 0.26639 0.15646 0.0
C3351 C 0.79693 0.2791 0.18025 0.0
C3352 C 0.78799 0.26685 0.19795 0.0
C3353 C 0.7757 0.24251 0.19122 0.0
H3354 H 0.17672 0.5742 0.31551 0.0
H3355 H 0.14768 0.49739 0.28983 0.0
H3356 H 0.12954 0.49627 0.32722 0.0
H3357 H 0.17929 0.57144 0.38511 0.0
H3358 H 0.17319 0.60104 0.39188 0.0
H3359 H 0.19061 0.59393 0.36843 0.0
H3360 H 0.16432 0.60641 0.33873 0.0
H3361 H 0.1465 0.61289 0.3616 0.0
H3362 H 0.13493 0.59142 0.3339 0.0
H3363 H 0.1062 0.5058 0.35917 0.0
H3364 H 0.08144 0.52453 0.38544 0.0
H3365 H 0.12506 0.59567 0.39064 0.0
C3366 C 0.1676 0.55698 0.31864 0.0
C3367 C 0.16364 0.53582 0.30042 0.0
C3368 C 0.15112 0.51356 0.3041 0.0
C3369 C 0.14087 0.51282 0.32526 0.0
C3370 C 0.14379 0.53442 0.34245 0.0
C3371 C 0.15749 0.55602 0.33975 0.0
C3372 C 0.15485 0.57739 0.35861 0.0
C3373 C 0.17572 0.58648 0.37711 0.0
C3374 C 0.14982 0.5982 0.34751 0.0
C3375 C 0.13502 0.56508 0.36965 0.0
C3376 C 0.12973 0.54014 0.36106 0.0
C3377 C 0.11059 0.52518 0.36659 0.0
C3378 C 0.09647 0.53596 0.38117 0.0
C3379 C 0.10136 0.56147 0.38958 0.0
C3380 C 0.12101 0.57613 0.38411 0.0
H3381 H 0.83897 0.84964 0.61309 0.0
H3382 H 0.76915 0.83419 0.58509 0.0
H3383 H 0.75803 0.81829 0.62101 0.0
H3384 H 0.83171 0.79394 0.63846 0.0
H3385 H 0.85263 0.80873 0.66345 0.0
H3386 H 0.85492 0.81774 0.63502 0.0
H3387 H 0.85672 0.86236 0.65613 0.0
H3388 H 0.85448 0.85342 0.68452 0.0
H3389 H 0.83468 0.86896 0.67398 0.0
H3390 H 0.75477 0.8051 0.6614 0.0
H3391 H 0.76003 0.79537 0.70154 0.0
H3392 H 0.83181 0.82068 0.70261 0.0
C3393 C 0.82138 0.84258 0.61442 0.0
C3394 C 0.80491 0.84292 0.59628 0.0
C3395 C 0.78203 0.83362 0.5986 0.0
C3396 C 0.77556 0.8247 0.619 0.0
C3397 C 0.79222 0.82471 0.63669 0.0
C3398 C 0.81469 0.83308 0.63436 0.0
C3399 C 0.82934 0.83074 0.65561 0.0
C3400 C 0.84296 0.81167 0.64767 0.0
C3401 C 0.8447 0.85535 0.66831 0.0
C3402 C 0.81168 0.8216 0.67112 0.0
C3403 C 0.79035 0.81748 0.65968 0.0
C3404 C 0.77146 0.80817 0.67039 0.0
C3405 C 0.77458 0.80265 0.69316 0.0
C3406 C 0.79635 0.80698 0.70516 0.0
C3407 C 0.81498 0.81696 0.69402 0.0
H3408 H 0.75401 0.4526 0.53821 0.0
H3409 H 0.77411 0.48004 0.47559 0.0
H3410 H 0.74737 0.50667 0.48115 0.0
H3411 H 0.69407 0.45871 0.53437 0.0
H3412 H 0.69614 0.46886 0.56656 0.0
H3413 H 0.71193 0.44762 0.55349 0.0
H3414 H 0.74818 0.47681 0.57676 0.0
H3415 H 0.73284 0.49867 0.58914 0.0
H3416 H 0.75597 0.50748 0.57227 0.0
H3417 H 0.72303 0.53429 0.49719 0.0
H3418 H 0.70123 0.55973 0.52138 0.0
H3419 H 0.70054 0.51671 0.57573 0.0
C3420 C 0.75175 0.46327 0.525 0.0
C3421 C 0.76526 0.46399 0.5061 0.0
C3422 C 0.7632 0.47902 0.48976 0.0
C3423 C 0.7482 0.49419 0.49288 0.0
C3424 C 0.73594 0.49421 0.51266 0.0
C3425 C 0.73743 0.47897 0.52834 0.0
C3426 C 0.72538 0.48507 0.55017 0.0
C3427 C 0.7057 0.4638 0.5512 0.0
C3428 C 0.74156 0.49245 0.57344 0.0
C3429 C 0.71734 0.50652 0.54469 0.0
C3430 C 0.72328 0.51128 0.52282 0.0
C3431 C 0.71814 0.53064 0.51425 0.0
C3432 C 0.70606 0.54512 0.52816 0.0
C3433 C 0.69974 0.54033 0.5505 0.0
C3434 C 0.70567 0.52099 0.55894 0.0
H3435 H 0.23034 0.12303 0.51401 0.0
H3436 H 0.20967 0.16993 0.47074 0.0
H3437 H 0.1705 0.1464 0.46726 0.0
H3438 H 0.1912 0.06623 0.48526 0.0
H3439 H 0.1853 0.05677 0.51296 0.0
H3440 H 0.21215 0.076 0.51087 0.0
H3441 H 0.20671 0.10776 0.54758 0.0
H3442 H 0.17997 0.08853 0.54995 0.0
H3443 H 0.18185 0.11947 0.54724 0.0
H3444 H 0.13396 0.11915 0.46907 0.0
H3445 H 0.10085 0.09184 0.47913 0.0
H3446 H 0.14368 0.06258 0.52273 0.0
C3447 C 0.21754 0.12801 0.5035 0.0
C3448 C 0.22298 0.14799 0.4922 0.0
C3449 C 0.2058 0.15457 0.47931 0.0
C3450 C 0.18356 0.14126 0.47718 0.0
C3451 C 0.17867 0.12166 0.48844 0.0
C3452 C 0.19503 0.11523 0.50171 0.0
C3453 C 0.18472 0.09468 0.5137 0.0
C3454 C 0.19389 0.07207 0.50518 0.0
C3455 C 0.18854 0.10312 0.54125 0.0
C3456 C 0.1601 0.09025 0.50463 0.0
C3457 C 0.15716 0.10609 0.49005 0.0
C3458 C 0.13604 0.10657 0.48033 0.0
C3459 C 0.11734 0.09095 0.48611 0.0
C3460 C 0.11972 0.07492 0.50144 0.0
C3461 C 0.14144 0.07421 0.51048 0.0
H3462 H 0.20342 0.91082 0.74243 0.0
H3463 H 0.24897 0.96945 0.79326 0.0
H3464 H 0.27265 0.94138 0.79989 0.0
H3465 H 0.20879 0.86125 0.77267 0.0
H3466 H 0.20859 0.83918 0.74545 0.0
H3467 H 0.19463 0.8635 0.74493 0.0
H3468 H 0.21789 0.87625 0.71147 0.0
H3469 H 0.232 0.85202 0.71202 0.0
H3470 H 0.24804 0.88293 0.71626 0.0
H3471 H 0.29101 0.90388 0.80422 0.0
H3472 H 0.30169 0.86472 0.80254 0.0
H3473 H 0.24917 0.83021 0.74516 0.0
C3474 C 0.21835 0.91793 0.75503 0.0
C3475 C 0.22363 0.94333 0.76738 0.0
C3476 C 0.24383 0.95077 0.78335 0.0
C3477 C 0.25765 0.93461 0.78735 0.0
C3478 C 0.25207 0.9101 0.77505 0.0
C3479 C 0.23292 0.90185 0.75888 0.0
C3480 C 0.23123 0.87469 0.74741 0.0
C3481 C 0.20952 0.85871 0.75294 0.0
C3482 C 0.23234 0.87127 0.72017 0.0
C3483 C 0.25205 0.86891 0.75968 0.0
C3484 C 0.26375 0.88963 0.7758 0.0
C3485 C 0.2824 0.88816 0.79061 0.0
C3486 C 0.28922 0.86567 0.78893 0.0
C3487 C 0.27874 0.84413 0.77166 0.0
C3488 C 0.25924 0.84627 0.75734 0.0
H3489 H 0.41367 1.00126 0.0446 0.0
H3490 H 0.39327 0.93135 0.99441 0.0
H3491 H 0.43257 0.93011 0.99157 0.0
H3492 H 0.4551 0.02686 0.01732 0.0
H3493 H 0.47507 0.04203 0.04308 0.0
H3494 H 0.44571 0.0352 0.0465 0.0
H3495 H 0.45243 0.01124 0.07931 0.0
H3496 H 0.482 0.01859 0.0762 0.0
H3497 H 0.46722 0.98736 0.07284 0.0
H3498 H 0.47317 0.93938 0.9882 0.0
H3499 H 0.51321 0.95862 0.98681 0.0
H3500 H 0.50642 0.02198 0.03827 0.0
C3501 C 0.41754 0.98542 0.03362 0.0
C3502 C 0.40056 0.96662 0.01958 0.0
C3503 C 0.40609 0.94609 0.00529 0.0
C3504 C 0.42836 0.94505 0.00366 0.0
C3505 C 0.4448 0.96439 0.01683 0.0
C3506 C 0.43974 0.98396 0.03202 0.0
C3507 C 0.46059 1.00352 0.04213 0.0
C3508 C 0.459 0.02834 0.03691 0.0
C3509 C 0.46586 1.00527 0.06922 0.0
C3510 C 0.47744 0.993 0.02808 0.0
C3511 C 0.46831 0.97004 0.01436 0.0
C3512 C 0.48066 0.95725 0.99913 0.0
C3513 C 0.50312 0.96831 0.99815 0.0
C3514 C 0.51231 0.99211 0.01153 0.0
C3515 C 0.49946 1.00429 0.02694 0.0
H3516 H 0.86024 0.60753 0.83006 0.0
H3517 H 0.92215 0.61715 0.79686 0.0
H3518 H 0.90947 0.64452 0.77416 0.0
H3519 H 0.825 0.60246 0.78573 0.0
H3520 H 0.80677 0.62108 0.79838 0.0
H3521 H 0.82282 0.60849 0.81765 0.0
H3522 H 0.84104 0.65128 0.84352 0.0
H3523 H 0.82448 0.66425 0.82482 0.0
H3524 H 0.8545 0.67503 0.8293 0.0
H3525 H 0.88586 0.65788 0.74624 0.0
H3526 H 0.85534 0.66583 0.721 0.0
H3527 H 0.81023 0.65276 0.77491 0.0
C3528 C 0.87158 0.6168 0.81924 0.0
C3529 C 0.89213 0.61073 0.81534 0.0
C3530 C 0.90653 0.62226 0.80048 0.0
C3531 C 0.89946 0.63775 0.78742 0.0
C3532 C 0.87844 0.64233 0.79041 0.0
C3533 C 0.86514 0.63327 0.80687 0.0
C3534 C 0.84249 0.63929 0.80491 0.0
C3535 C 0.82316 0.61646 0.80143 0.0
C3536 C 0.84051 0.65861 0.82694 0.0
C3537 C 0.84407 0.64984 0.78267 0.0
C3538 C 0.86513 0.65193 0.77488 0.0
C3539 C 0.86963 0.65756 0.75271 0.0
C3540 C 0.85224 0.66166 0.73837 0.0
C3541 C 0.83084 0.6601 0.74641 0.0
C3542 C 0.82675 0.65449 0.76887 0.0
H3543 H 0.86341 0.64559 0.98692 0.0
H3544 H 0.85963 0.68327 0.05973 0.0
H3545 H 0.89178 0.6688 0.07404 0.0
H3546 H 0.87442 0.59377 0.99943 0.0
H3547 H 0.89444 0.5897 0.97807 0.0
H3548 H 0.87362 0.60614 0.97282 0.0
H3549 H 0.90481 0.64321 0.96944 0.0
H3550 H 0.9258 0.62682 0.97474 0.0
H3551 H 0.92697 0.65612 0.99361 0.0
H3552 H 0.91968 0.64497 0.08154 0.0
H3553 H 0.94203 0.61415 0.08136 0.0
H3554 H 0.92966 0.59317 0.00377 0.0
C3555 C 0.86967 0.6512 0.00578 0.0
C3556 C 0.85892 0.6655 0.02222 0.0
C3557 C 0.86757 0.67239 0.04678 0.0
C3558 C 0.88592 0.66433 0.05508 0.0
C3559 C 0.8958 0.64979 0.03855 0.0
C3560 C 0.88824 0.6436 0.01433 0.0
C3561 C 0.90093 0.62642 1.00065 0.0
C3562 C 0.88489 0.6026 0.98695 0.0
C3563 C 0.91549 0.63889 0.9836 0.0
C3564 C 0.91541 0.62233 0.0212 0.0
C3565 C 0.91259 0.63649 0.04285 0.0
C3566 C 0.92248 0.63426 0.06466 0.0
C3567 C 0.9351 0.61672 0.06442 0.0
C3568 C 0.93779 0.60167 0.04254 0.0
C3569 C 0.92831 0.60496 0.02063 0.0
H3570 H 0.19961 0.11149 0.75298 0.0
H3571 H 0.24406 0.08704 0.79929 0.0
H3572 H 0.27063 0.12754 0.80636 0.0
H3573 H 0.24562 0.14749 0.72638 0.0
H3574 H 0.23059 0.17045 0.72338 0.0
H3575 H 0.21546 0.13959 0.72183 0.0
H3576 H 0.19299 0.15475 0.75613 0.0
H3577 H 0.20813 0.1856 0.75788 0.0
H3578 H 0.20775 0.17283 0.7843 0.0
H3579 H 0.29257 0.17286 0.80913 0.0
H3580 H 0.30748 0.2154 0.80599 0.0
H3581 H 0.24914 0.21075 0.75733 0.0
C3582 C 0.21499 0.11452 0.76455 0.0
C3583 C 0.21945 0.09554 0.77559 0.0
C3584 C 0.24004 0.10073 0.79038 0.0
C3585 C 0.25527 0.12394 0.7946 0.0
C3586 C 0.25023 0.14217 0.7836 0.0
C3587 C 0.23064 0.13748 0.76853 0.0
C3588 C 0.22943 0.15983 0.75818 0.0
C3589 C 0.23031 0.15399 0.73082 0.0
C3590 C 0.20832 0.16878 0.76452 0.0
C3591 C 0.25071 0.17836 0.77069 0.0
C3592 C 0.2627 0.16768 0.785 0.0
C3593 C 0.28317 0.18107 0.79784 0.0
C3594 C 0.29163 0.20549 0.79588 0.0
C3595 C 0.27984 0.21714 0.78134 0.0
C3596 C 0.25885 0.20302 0.76876 0.0
H3597 H 0.39019 0.96481 0.31384 0.0
H3598 H 0.36796 0.96566 0.24075 0.0
H3599 H 0.34116 0.92577 0.23729 0.0
H3600 H 0.39482 0.90719 0.3024 0.0
H3601 H 0.38598 0.89998 0.33021 0.0
H3602 H 0.39815 0.93088 0.32911 0.0
H3603 H 0.36252 0.94413 0.3446 0.0
H3604 H 0.35159 0.91311 0.34653 0.0
H3605 H 0.3353 0.92782 0.32955 0.0
H3606 H 0.31979 0.88462 0.24095 0.0
H3607 H 0.3111 0.84288 0.24784 0.0
H3608 H 0.35382 0.86749 0.31517 0.0
C3609 C 0.379 0.95689 0.29746 0.0
C3610 C 0.38034 0.96813 0.27776 0.0
C3611 C 0.36649 0.95722 0.25611 0.0
C3612 C 0.35121 0.93481 0.25414 0.0
C3613 C 0.35043 0.92386 0.27394 0.0
C3614 C 0.36426 0.93444 0.29508 0.0
C3615 C 0.36356 0.91727 0.31198 0.0
C3616 C 0.38701 0.91361 0.31877 0.0
C3617 C 0.35256 0.92611 0.33447 0.0
C3618 C 0.3486 0.8947 0.29629 0.0
C3619 C 0.34005 0.89924 0.27511 0.0
C3620 C 0.32622 0.88095 0.25756 0.0
C3621 C 0.32151 0.85733 0.26157 0.0
C3622 C 0.33156 0.8522 0.28233 0.0
C3623 C 0.34517 0.87107 0.29982 0.0
H3624 H 0.59294 0.3753 0.54508 0.0
H3625 H 0.59091 0.402 0.62139 0.0
H3626 H 0.58191 0.43917 0.61322 0.0
H3627 H 0.61835 0.4338 0.53205 0.0
H3628 H 0.60212 0.42855 0.50337 0.0
H3629 H 0.60794 0.40324 0.51464 0.0
H3630 H 0.56542 0.38361 0.51019 0.0
H3631 H 0.55952 0.40904 0.49916 0.0
H3632 H 0.54683 0.40062 0.52485 0.0
H3633 H 0.57347 0.47427 0.59776 0.0
H3634 H 0.5681 0.5057 0.57566 0.0
H3635 H 0.57535 0.45858 0.50888 0.0
C3636 C 0.59064 0.38898 0.56005 0.0
C3637 C 0.59273 0.3853 0.58403 0.0
C3638 C 0.58948 0.40393 0.60291 0.0
C3639 C 0.58425 0.4253 0.59846 0.0
C3640 C 0.58216 0.4283 0.57488 0.0
C3641 C 0.58532 0.41078 0.55589 0.0
C3642 C 0.58238 0.41924 0.53232 0.0
C3643 C 0.60399 0.42133 0.51986 0.0
C3644 C 0.56235 0.40209 0.51564 0.0
C3645 C 0.57758 0.44426 0.54121 0.0
C3646 C 0.57726 0.44886 0.56584 0.0
C3647 C 0.5735 0.47073 0.57843 0.0
C3648 C 0.57028 0.48849 0.56569 0.0
C3649 C 0.57061 0.48449 0.54044 0.0
C3650 C 0.57445 0.462 0.5281 0.0
H3651 H 0.44341 0.79231 0.39824 0.0
H3652 H 0.45166 0.72314 0.35892 0.0
H3653 H 0.41557 0.71721 0.33424 0.0
H3654 H 0.3811 0.77363 0.39799 0.0
H3655 H 0.37732 0.80288 0.39436 0.0
H3656 H 0.40279 0.80066 0.41014 0.0
H3657 H 0.42584 0.82289 0.38124 0.0
H3658 H 0.40045 0.82488 0.36519 0.0
H3659 H 0.42029 0.81077 0.3493 0.0
H3660 H 0.38053 0.7214 0.31026 0.0
H3661 H 0.34841 0.73336 0.29197 0.0
H3662 H 0.36044 0.79789 0.34921 0.0
C3663 C 0.43711 0.77544 0.38512 0.0
C3664 C 0.45007 0.75769 0.38118 0.0
C3665 C 0.44173 0.7365 0.36294 0.0
C3666 C 0.4213 0.73314 0.34863 0.0
C3667 C 0.40907 0.75107 0.35273 0.0
C3668 C 0.41646 0.77162 0.37089 0.0
C3669 C 0.40044 0.78846 0.37105 0.0
C3670 C 0.38978 0.79159 0.3948 0.0
C3671 C 0.41248 0.81321 0.36642 0.0
C3672 C 0.38306 0.77435 0.35007 0.0
C3673 C 0.38852 0.75298 0.33953 0.0
C3674 C 0.37598 0.73791 0.31873 0.0
C3675 C 0.35767 0.74491 0.30839 0.0
C3676 C 0.35157 0.76674 0.31877 0.0
C3677 C 0.36429 0.7812 0.3404 0.0
H3678 H 0.10321 0.71606 0.11266 0.0
H3679 H 0.08316 0.73803 0.04782 0.0
H3680 H 0.07428 0.69464 0.02595 0.0
H3681 H 0.12779 0.66733 0.08449 0.0
H3682 H 0.11798 0.64913 0.10579 0.0
H3683 H 0.1243 0.68179 0.11453 0.0
H3684 H 0.08425 0.67937 0.12733 0.0
H3685 H 0.07792 0.64677 0.11834 0.0
H3686 H 0.06041 0.66358 0.10583 0.0
H3687 H 0.06729 0.64665 0.0117 0.0
H3688 H 0.05944 0.60189 0.00835 0.0
H3689 H 0.08132 0.61342 0.08403 0.0
C3690 C 0.09713 0.71208 0.09377 0.0
C3691 C 0.09409 0.73084 0.08205 0.0
C3692 C 0.08591 0.72424 0.05729 0.0
C3693 C 0.08083 0.69955 0.04473 0.0
C3694 C 0.084 0.6816 0.05712 0.0
C3695 C 0.09184 0.68782 0.08122 0.0
C3696 C 0.09282 0.66563 0.09129 0.0
C3697 C 0.11717 0.66598 0.09949 0.0
C3698 C 0.07795 0.66374 0.1119 0.0
C3699 C 0.08359 0.64554 0.06939 0.0
C3700 C 0.07916 0.65492 0.04954 0.0
C3701 C 0.0708 0.63938 0.02723 0.0
C3702 C 0.06652 0.61394 0.02541 0.0
C3703 C 0.07009 0.6042 0.04588 0.0
C3704 C 0.07867 0.62035 0.06805 0.0
H3705 H 0.08675 0.30414 0.89494 0.0
H3706 H 0.08251 0.22905 0.89837 0.0
H3707 H 0.11746 0.22998 0.87857 0.0
H3708 H 0.10533 0.30087 0.83739 0.0
H3709 H 0.1241 0.33061 0.8444 0.0
H3710 H 0.10001 0.32447 0.8606 0.0
H3711 H 0.12573 0.33825 0.90082 0.0
H3712 H 0.14994 0.34436 0.8847 0.0
H3713 H 0.14859 0.32407 0.90517 0.0
H3714 H 0.15192 0.23865 0.85601 0.0
H3715 H 0.18123 0.25339 0.83102 0.0
H3716 H 0.16328 0.32311 0.8427 0.0
C3717 C 0.09335 0.288 0.89163 0.0
C3718 C 0.08201 0.26646 0.89805 0.0
C3719 C 0.091 0.24566 0.89348 0.0
C3720 C 0.11088 0.24609 0.88236 0.0
C3721 C 0.12166 0.26755 0.87602 0.0
C3722 C 0.11321 0.28816 0.88055 0.0
C3723 C 0.12739 0.30854 0.87098 0.0
C3724 C 0.11337 0.31658 0.85223 0.0
C3725 C 0.13858 0.33008 0.89165 0.0
C3726 C 0.14462 0.29595 0.85954 0.0
C3727 C 0.14131 0.27246 0.86302 0.0
C3728 C 0.15472 0.25709 0.85336 0.0
C3729 C 0.17148 0.26568 0.83927 0.0
C3730 C 0.17464 0.2894 0.83467 0.0
C3731 C 0.16126 0.3048 0.84557 0.0
H3732 H 0.59104 0.74524 0.91735 0.0
H3733 H 0.63576 0.79964 0.97322 0.0
H3734 H 0.63152 0.77067 1.0 0.0
H3735 H 0.55276 0.72444 0.95293 0.0
H3736 H 0.54669 0.69267 0.93845 0.0
H3737 H 0.5568 0.71538 0.9217 0.0
H3738 H 0.58969 0.69556 0.91046 0.0
H3739 H 0.57955 0.67255 0.92703 0.0
H3740 H 0.60795 0.69048 0.93384 0.0
H3741 H 0.61816 0.73956 0.02259 0.0
H3742 H 0.59587 0.70738 0.04013 0.0
H3743 H 0.55955 0.67271 0.97025 0.0
C3744 C 0.60033 0.75081 0.93503 0.0
C3745 C 0.61365 0.77464 0.94334 0.0
C3746 C 0.62535 0.78149 0.96663 0.0
C3747 C 0.62325 0.76509 0.98185 0.0
C3748 C 0.6095 0.74195 0.97342 0.0
C3749 C 0.59832 0.73467 0.9505 0.0
C3750 C 0.58254 0.70983 0.94694 0.0
C3751 C 0.55827 0.71066 0.9396 0.0
C3752 C 0.59041 0.69099 0.92848 0.0
C3753 C 0.58539 0.70521 0.97202 0.0
C3754 C 0.60153 0.72367 0.98675 0.0
C3755 C 0.60583 0.72472 0.01122 0.0
C3756 C 0.59306 0.70661 0.02105 0.0
C3757 C 0.57627 0.68795 0.00639 0.0
C3758 C 0.57259 0.68687 0.98157 0.0
H3759 H 0.08585 0.78965 0.69411 0.0
H3760 H 0.06247 0.71751 0.64869 0.0
H3761 H 0.09464 0.70497 0.6658 0.0
H3762 H 0.14737 0.79076 0.69068 0.0
H3763 H 0.15466 0.80785 0.7212 0.0
H3764 H 0.13138 0.81203 0.70311 0.0
H3765 H 0.10535 0.80212 0.73565 0.0
H3766 H 0.12844 0.79776 0.75372 0.0
H3767 H 0.1033 0.77382 0.74525 0.0
H3768 H 0.1259 0.69855 0.69152 0.0
H3769 H 0.15606 0.69961 0.72279 0.0
H3770 H 0.16031 0.77611 0.75046 0.0
C3771 C 0.0879 0.77143 0.6874 0.0
C3772 C 0.07184 0.7546 0.67005 0.0
C3773 C 0.07481 0.73081 0.66173 0.0
C3774 C 0.09299 0.72349 0.67137 0.0
C3775 C 0.10831 0.74035 0.68884 0.0
C3776 C 0.10626 0.76399 0.69644 0.0
C3777 C 0.12458 0.77818 0.71616 0.0
C3778 C 0.14044 0.7984 0.70726 0.0
C3779 C 0.11481 0.78856 0.73904 0.0
C3780 C 0.13611 0.75829 0.71976 0.0
C3781 C 0.12674 0.73674 0.70346 0.0
C3782 C 0.13365 0.71539 0.70411 0.0
C3783 C 0.15058 0.71606 0.72193 0.0
C3784 C 0.16015 0.73785 0.73881 0.0
C3785 C 0.15308 0.75927 0.73759 0.0
H3786 H 0.13895 0.42891 0.40989 0.0
H3787 H 0.1257 0.37922 0.45848 0.0
H3788 H 0.10732 0.40725 0.4834 0.0
H3789 H 0.15008 0.48585 0.45723 0.0
H3790 H 0.13662 0.50122 0.43815 0.0
H3791 H 0.15049 0.47811 0.42508 0.0
H3792 H 0.11367 0.45552 0.398 0.0
H3793 H 0.09947 0.47804 0.41178 0.0
H3794 H 0.08845 0.44643 0.41174 0.0
H3795 H 0.08235 0.43369 0.49592 0.0
H3796 H 0.066 0.46867 0.50888 0.0
H3797 H 0.10141 0.50612 0.45867 0.0
C3798 C 0.13304 0.42438 0.4263 0.0
C3799 C 0.13322 0.40163 0.43196 0.0
C3800 C 0.12538 0.39637 0.4536 0.0
C3801 C 0.11468 0.41199 0.46772 0.0
C3802 C 0.11276 0.43302 0.4603 0.0
C3803 C 0.12268 0.44004 0.44096 0.0
C3804 C 0.11822 0.46403 0.43744 0.0
C3805 C 0.14017 0.48346 0.43963 0.0
C3806 C 0.10412 0.4608 0.41331 0.0
C3807 C 0.10474 0.46947 0.45829 0.0
C3808 C 0.10083 0.45053 0.47019 0.0
C3809 C 0.08646 0.44941 0.48793 0.0
C3810 C 0.07754 0.46939 0.49536 0.0
C3811 C 0.08434 0.49055 0.48628 0.0
C3812 C 0.09697 0.49033 0.46654 0.0
H3813 H 0.4428 0.27015 0.18523 0.0
H3814 H 0.46166 0.23717 0.24318 0.0
H3815 H 0.42674 0.24161 0.2609 0.0
H3816 H 0.42065 0.31438 0.22039 0.0
H3817 H 0.39806 0.31274 0.1981 0.0
H3818 H 0.42369 0.30545 0.18888 0.0
H3819 H 0.40159 0.26285 0.16476 0.0
H3820 H 0.37594 0.2705 0.17341 0.0
H3821 H 0.38279 0.24337 0.17968 0.0
H3822 H 0.39201 0.25344 0.2742 0.0
H3823 H 0.35618 0.26559 0.27862 0.0
H3824 H 0.3599 0.28891 0.21095 0.0
C3825 C 0.43957 0.26366 0.20155 0.0
C3826 C 0.45507 0.25379 0.21314 0.0
C3827 C 0.45014 0.24528 0.23433 0.0
C3828 C 0.4304 0.24765 0.24447 0.0
C3829 C 0.41596 0.25847 0.23308 0.0
C3830 C 0.42007 0.26586 0.21184 0.0
C3831 C 0.4021 0.27727 0.20335 0.0
C3832 C 0.41171 0.30404 0.20264 0.0
C3833 C 0.38988 0.26261 0.17886 0.0
C3834 C 0.38729 0.27524 0.22322 0.0
C3835 C 0.3957 0.2647 0.2404 0.0
C3836 C 0.38521 0.26168 0.26087 0.0
C3837 C 0.36514 0.26898 0.26341 0.0
C3838 C 0.35587 0.27868 0.24532 0.0
C3839 C 0.3671 0.28203 0.22517 0.0
H3840 H 0.63959 0.55221 0.35861 0.0
H3841 H 0.6278 0.47423 0.33374 0.0
H3842 H 0.60879 0.46857 0.3702 0.0
H3843 H 0.65205 0.55248 0.42267 0.0
H3844 H 0.63917 0.57731 0.43309 0.0
H3845 H 0.65117 0.57494 0.40491 0.0
H3846 H 0.61338 0.57597 0.38335 0.0
H3847 H 0.60124 0.57815 0.41145 0.0
H3848 H 0.58838 0.55404 0.3861 0.0
H3849 H 0.58706 0.47209 0.41024 0.0
H3850 H 0.57209 0.4838 0.4492 0.0
H3851 H 0.60217 0.5594 0.45117 0.0
C3852 C 0.63328 0.53382 0.36083 0.0
C3853 C 0.63565 0.51365 0.34255 0.0
C3854 C 0.6268 0.49014 0.34694 0.0
C3855 C 0.61567 0.48677 0.36781 0.0
C3856 C 0.61353 0.50701 0.38518 0.0
C3857 C 0.62267 0.53015 0.38204 0.0
C3858 C 0.61909 0.54902 0.40376 0.0
C3859 C 0.64172 0.56435 0.41688 0.0
C3860 C 0.60468 0.56527 0.39568 0.0
C3861 C 0.6065 0.53316 0.41971 0.0
C3862 C 0.60293 0.50891 0.40842 0.0
C3863 C 0.59034 0.49108 0.41909 0.0
C3864 C 0.58169 0.49797 0.44148 0.0
C3865 C 0.5858 0.52261 0.45421 0.0
C3866 C 0.59862 0.54032 0.4427 0.0
H3867 H 0.34818 0.92826 0.09414 0.0
H3868 H 0.29387 0.87453 0.04834 0.0
H3869 H 0.29446 0.84691 0.07586 0.0
H3870 H 0.37942 0.88957 0.10655 0.0
H3871 H 0.38822 0.90359 0.13778 0.0
H3872 H 0.38108 0.92152 0.11738 0.0
H3873 H 0.35185 0.93478 0.14454 0.0
H3874 H 0.35899 0.91703 0.16525 0.0
H3875 H 0.33035 0.91205 0.15274 0.0
H3876 H 0.30355 0.82327 0.10399 0.0
H3877 H 0.32068 0.80439 0.13327 0.0
H3878 H 0.36979 0.87222 0.16097 0.0
C3879 C 0.336 0.91098 0.09041 0.0
C3880 C 0.32093 0.90345 0.06926 0.0
C3881 C 0.30553 0.88057 0.06451 0.0
C3882 C 0.30562 0.86482 0.08008 0.0
C3883 C 0.32113 0.87234 0.10034 0.0
C3884 C 0.33592 0.89492 0.1058 0.0
C3885 C 0.35218 0.89735 0.12764 0.0
C3886 C 0.37666 0.90334 0.12196 0.0
C3887 C 0.34809 0.91643 0.1488 0.0
C3888 C 0.34523 0.87193 0.13223 0.0
C3889 C 0.32685 0.85816 0.11667 0.0
C3890 C 0.31778 0.83384 0.11651 0.0
C3891 C 0.32769 0.82323 0.13288 0.0
C3892 C 0.34661 0.83688 0.14871 0.0
C3893 C 0.35548 0.86151 0.14859 0.0
H3894 H 0.96582 0.57594 0.88971 0.0
H3895 H 0.94391 0.49825 0.8624 0.0
H3896 H 0.96908 0.49129 0.89414 0.0
H3897 H 0.018 0.57965 0.89726 0.0
H3898 H 0.02648 0.60145 0.92537 0.0
H3899 H 1.00178 0.60163 0.90703 0.0
H3900 H 0.97646 0.59583 0.94122 0.0
H3901 H 1.00146 0.59821 0.96051 0.0
H3902 H 0.97818 0.57232 0.95741 0.0
H3903 H 0.00424 0.49369 0.9177 0.0
H3904 H 0.03743 0.50373 0.94735 0.0
H3905 H 0.03565 0.57979 0.96101 0.0
C3906 C 0.96519 0.55754 0.89174 0.0
C3907 C 0.95327 0.53758 0.87415 0.0
C3908 C 0.95296 0.51358 0.87625 0.0
C3909 C 0.96735 0.50952 0.89395 0.0
C3910 C 0.98116 0.52976 0.90932 0.0
C3911 C 0.97928 0.55327 0.9095 0.0
C3912 C 0.99762 0.57182 0.92632 0.0
C3913 C 0.01178 0.58967 0.91319 0.0
C3914 C 0.98785 0.58533 0.94764 0.0
C3915 C 0.01093 0.55514 0.93408 0.0
C3916 C 1.00131 0.53103 0.92375 0.0
C3917 C 0.01148 0.51239 0.92665 0.0
C3918 C 0.03067 0.51833 0.94284 0.0
C3919 C 0.03858 0.54241 0.95622 0.0
C3920 C 0.02979 0.56132 0.95065 0.0
H3921 H 0.27299 0.1996 0.59901 0.0
H3922 H 0.32092 0.25679 0.57786 0.0
H3923 H 0.32582 0.28118 0.61988 0.0
H3924 H 0.24813 0.23858 0.64313 0.0
H3925 H 0.24454 0.21557 0.66083 0.0
H3926 H 0.24395 0.20698 0.62879 0.0
H3927 H 0.27551 0.18438 0.63622 0.0
H3928 H 0.2765 0.19479 0.66813 0.0
H3929 H 0.30155 0.20154 0.65343 0.0
H3930 H 0.32572 0.29812 0.66641 0.0
H3931 H 0.32398 0.30317 0.71049 0.0
H3932 H 0.27966 0.23174 0.69893 0.0
C3933 C 0.28443 0.21736 0.60295 0.0
C3934 C 0.29647 0.22629 0.58505 0.0
C3935 C 0.31123 0.24968 0.5912 0.0
C3936 C 0.31411 0.26361 0.61503 0.0
C3937 C 0.30199 0.25389 0.63231 0.0
C3938 C 0.28759 0.23114 0.6263 0.0
C3939 C 0.27747 0.22343 0.64775 0.0
C3940 C 0.25202 0.22105 0.64499 0.0
C3941 C 0.28312 0.19965 0.6516 0.0
C3942 C 0.28909 0.24487 0.66738 0.0
C3943 C 0.30258 0.2628 0.65825 0.0
C3944 C 0.31495 0.28425 0.67349 0.0
C3945 C 0.31371 0.28709 0.69849 0.0
C3946 C 0.30078 0.26827 0.70797 0.0
C3947 C 0.28863 0.24693 0.69212 0.0
H3948 H 0.6506 0.49071 0.16626 0.0
H3949 H 0.62111 0.53614 0.21863 0.0
H3950 H 0.6005 0.54742 0.18561 0.0
H3951 H 0.65762 0.52537 0.12111 0.0
H3952 H 0.64793 0.50021 0.09573 0.0
H3953 H 0.6598 0.4952 0.12337 0.0
H3954 H 0.62395 0.46263 0.12469 0.0
H3955 H 0.61197 0.46765 0.09704 0.0
H3956 H 0.59718 0.47043 0.12336 0.0
H3957 H 0.58102 0.55338 0.14392 0.0
H3958 H 0.56852 0.55431 0.10204 0.0
H3959 H 0.6119 0.50732 0.0761 0.0
C3960 C 0.63984 0.50308 0.17093 0.0
C3961 C 0.63805 0.5125 0.19594 0.0
C3962 C 0.62317 0.52833 0.20026 0.0
C3963 C 0.61122 0.53495 0.1813 0.0
C3964 C 0.61338 0.52543 0.1571 0.0
C3965 C 0.62722 0.5095 0.15195 0.0
C3966 C 0.62586 0.50098 0.1244 0.0
C3967 C 0.6492 0.50575 0.11564 0.0
C3968 C 0.61407 0.47381 0.11692 0.0
C3969 C 0.61113 0.51632 0.11484 0.0
C3970 C 0.6032 0.52954 0.13393 0.0
C3971 C 0.58779 0.54339 0.12917 0.0
C3972 C 0.58083 0.54413 0.10492 0.0
C3973 C 0.58977 0.53215 0.08478 0.0
C3974 C 0.60497 0.51766 0.09047 0.0
H3975 H 0.35286 0.89623 0.94334 0.0
H3976 H 0.30258 0.93274 0.92254 0.0
H3977 H 0.29031 0.90053 0.88572 0.0
H3978 H 0.36769 0.87758 0.88202 0.0
H3979 H 0.37253 0.84926 0.88735 0.0
H3980 H 0.37722 0.87538 0.91181 0.0
H3981 H 0.35023 0.84974 0.93537 0.0
H3982 H 0.3448 0.82387 0.91051 0.0
H3983 H 0.32189 0.83564 0.92226 0.0
H3984 H 0.28064 0.86292 0.85483 0.0
H3985 H 0.28137 0.82786 0.82291 0.0
H3986 H 0.34096 0.81796 0.86023 0.0
C3987 C 0.3397 0.89765 0.93059 0.0
C3988 C 0.32858 0.91671 0.93533 0.0
C3989 C 0.31137 0.91828 0.91872 0.0
C3990 C 0.30408 0.89994 0.89811 0.0
C3991 C 0.31463 0.8807 0.89445 0.0
C3992 C 0.33267 0.87988 0.90957 0.0
C3993 C 0.34184 0.85784 0.90046 0.0
C3994 C 0.36626 0.86548 0.89507 0.0
C3995 C 0.33955 0.84077 0.91821 0.0
C3996 C 0.32613 0.84655 0.87774 0.0
C3997 C 0.31007 0.85963 0.87529 0.0
C3998 C 0.29328 0.85271 0.85627 0.0
C3999 C 0.29377 0.83274 0.83834 0.0
C4000 C 0.31128 0.82059 0.83929 0.0
C4001 C 0.32729 0.82695 0.85947 0.0
H4002 H 0.92432 0.52234 0.72172 0.0
H4003 H 0.96945 0.59022 0.75847 0.0
H4004 H 0.9936 0.58739 0.72547 0.0
H4005 H 0.965 0.493 0.70647 0.0
H4006 H 0.9514 0.47545 0.67762 0.0
H4007 H 0.93488 0.4855 0.70074 0.0
H4008 H 0.91595 0.50682 0.67219 0.0
H4009 H 0.93237 0.49671 0.64881 0.0
H4010 H 0.93303 0.52859 0.65812 0.0
H4011 H 0.01528 0.57448 0.69224 0.0
H4012 H 0.03406 0.55147 0.66194 0.0
H4013 H 0.97568 0.49097 0.64781 0.0
C4014 C 0.93875 0.53711 0.72223 0.0
C4015 C 0.94489 0.55678 0.7422 0.0
C4016 C 0.96441 0.57525 0.74299 0.0
C4017 C 0.97813 0.57382 0.72434 0.0
C4018 C 0.97206 0.55375 0.70521 0.0
C4019 C 0.95283 0.5357 0.704 0.0
C4020 C 0.95185 0.5143 0.68352 0.0
C4021 C 0.95073 0.49069 0.69266 0.0
C4022 C 0.93213 0.51145 0.66453 0.0
C4023 C 0.97403 0.52264 0.67415 0.0
C4024 C 0.98514 0.54571 0.68647 0.0
C4025 C 0.00661 0.55659 0.68216 0.0
C4026 C 0.01714 0.54339 0.66501 0.0
C4027 C 0.00627 0.51948 0.65274 0.0
C4028 C 0.98433 0.50919 0.65709 0.0
H4029 H 0.31643 0.20056 0.41725 0.0
H4030 H 0.28999 0.25893 0.45655 0.0
H4031 H 0.29294 0.2787 0.42202 0.0
H4032 H 0.35628 0.24022 0.3875 0.0
H4033 H 0.35256 0.21783 0.35978 0.0
H4034 H 0.34935 0.20831 0.38789 0.0
H4035 H 0.30954 0.18239 0.37118 0.0
H4036 H 0.31266 0.19184 0.34307 0.0
H4037 H 0.28925 0.19663 0.35939 0.0
H4038 H 0.29597 0.29078 0.38331 0.0
H4039 H 0.3007 0.29618 0.34251 0.0
H4040 H 0.32683 0.23151 0.3266 0.0
C4041 C 0.31141 0.21759 0.4186 0.0
C4042 C 0.30291 0.22818 0.43967 0.0
C4043 C 0.29659 0.25049 0.44074 0.0
C4044 C 0.29819 0.26186 0.42118 0.0
C4045 C 0.30639 0.2509 0.40069 0.0
C4046 C 0.31313 0.22942 0.39921 0.0
C4047 C 0.32128 0.22172 0.3748 0.0
C4048 C 0.34636 0.22203 0.37767 0.0
C4049 C 0.30734 0.19665 0.36132 0.0
C4050 C 0.31719 0.24175 0.36253 0.0
C4051 C 0.3088 0.25841 0.37809 0.0
C4052 C 0.30298 0.27816 0.37115 0.0
C4053 C 0.30595 0.28119 0.34781 0.0
C4054 C 0.31488 0.26484 0.33147 0.0
C4055 C 0.32034 0.24458 0.33884 0.0
H4056 H 0.34809 0.61297 0.5119 0.0
H4057 H 0.34878 0.59844 0.5836 0.0
H4058 H 0.38421 0.58496 0.57818 0.0
H4059 H 0.36158 0.5599 0.48702 0.0
H4060 H 0.37717 0.57182 0.46453 0.0
H4061 H 0.3552 0.5852 0.47616 0.0
H4062 H 0.38303 0.6274 0.48846 0.0
H4063 H 0.40518 0.61417 0.47675 0.0
H4064 H 0.40855 0.63095 0.50745 0.0
H4065 H 0.41615 0.56805 0.56252 0.0
H4066 H 0.43975 0.54613 0.53741 0.0
H4067 H 0.41673 0.57147 0.47584 0.0
C4068 C 0.35614 0.60787 0.52687 0.0
C4069 C 0.34621 0.60723 0.54838 0.0
C4070 C 0.35649 0.59928 0.56712 0.0
C4071 C 0.37658 0.59179 0.56422 0.0
C4072 C 0.3857 0.59216 0.54242 0.0
C4073 C 0.37562 0.59983 0.52403 0.0
C4074 C 0.38609 0.59463 0.50095 0.0
C4075 C 0.369 0.57684 0.48102 0.0
C4076 C 0.39634 0.6182 0.49295 0.0
C4077 C 0.40381 0.58282 0.50915 0.0
C4078 C 0.40354 0.58172 0.53314 0.0
C4079 C 0.41683 0.56921 0.54387 0.0
C4080 C 0.43021 0.55689 0.5295 0.0
C4081 C 0.42996 0.55714 0.50471 0.0
C4082 C 0.41718 0.57095 0.49473 0.0
H4083 H 0.90051 0.92732 0.51483 0.0
H4084 H 0.88764 0.96014 0.58603 0.0
H4085 H 0.92652 0.9854 0.59366 0.0
H4086 H 0.96008 0.92686 0.5301 0.0
H4087 H 0.96805 0.93433 0.50211 0.0
H4088 H 0.94017 0.91709 0.50359 0.0
H4089 H 0.92392 0.949 0.48667 0.0
H4090 H 0.95174 0.96657 0.48567 0.0
H4091 H 0.93209 0.98048 0.50212 0.0
H4092 H 0.96515 0.0113 0.59104 0.0
H4093 H 0.00186 0.03168 0.58035 0.0
H4094 H 0.9902 0.97955 0.51217 0.0
C4095 C 0.90626 0.93909 0.53237 0.0
C4096 C 0.89143 0.94133 0.55018 0.0
C4097 C 0.89906 0.95774 0.57249 0.0
C4098 C 0.92102 0.97228 0.57687 0.0
C4099 C 0.93513 0.97019 0.5587 0.0
C4100 C 0.92818 0.95365 0.53704 0.0
C4101 C 0.94618 0.95585 0.52003 0.0
C4102 C 0.95409 0.93212 0.5136 0.0
C4103 C 0.93799 0.96342 0.49729 0.0
C4104 C 0.96428 0.97612 0.53549 0.0
C4105 C 0.95751 0.9845 0.55756 0.0
C4106 C 0.97078 1.00454 0.57397 0.0
C4107 C 0.99156 0.0161 0.5677 0.0
C4108 C 0.99905 0.00735 0.54539 0.0
C4109 C 0.98519 0.98689 0.52933 0.0
H4110 H 0.87311 0.1346 0.29068 0.0
H4111 H 0.92878 0.15685 0.25055 0.0
H4112 H 0.91406 0.19192 0.2446 0.0
H4113 H 0.82934 0.15462 0.25762 0.0
H4114 H 0.8176 0.16627 0.28444 0.0
H4115 H 0.83206 0.14231 0.28407 0.0
H4116 H 0.8571 0.16957 0.32201 0.0
H4117 H 0.843 0.1937 0.32071 0.0
H4118 H 0.87296 0.19934 0.32046 0.0
H4119 H 0.89265 0.22472 0.24071 0.0
H4120 H 0.86878 0.25305 0.24075 0.0
H4121 H 0.82589 0.21598 0.28648 0.0
C4122 C 0.88228 0.14678 0.28056 0.0
C4123 C 0.9026 0.14179 0.27088 0.0
C4124 C 0.91355 0.15922 0.25826 0.0
C4125 C 0.90511 0.17957 0.2547 0.0
C4126 C 0.88542 0.1838 0.26423 0.0
C4127 C 0.87424 0.16816 0.27735 0.0
C4128 C 0.85394 0.17827 0.28648 0.0
C4129 C 0.83192 0.15921 0.27759 0.0
C4130 C 0.85691 0.18564 0.31406 0.0
C4131 C 0.85483 0.20118 0.2755 0.0
C4132 C 0.87343 0.20371 0.26288 0.0
C4133 C 0.87823 0.22272 0.25075 0.0
C4134 C 0.8641 0.23921 0.25103 0.0
C4135 C 0.84449 0.23815 0.26356 0.0
C4136 C 0.84024 0.21836 0.27642 0.0
H4137 H 0.71986 0.11683 0.0496 0.0
H4138 H 0.72036 0.08246 0.97503 0.0
H4139 H 0.67924 0.06627 0.97176 0.0
H4140 H 0.67268 0.06674 0.06265 0.0
H4141 H 0.66475 0.09047 0.08358 0.0
H4142 H 0.69354 0.09325 0.07828 0.0
H4143 H 0.69109 0.13581 0.06941 0.0
H4144 H 0.66147 0.12986 0.0718 0.0
H4145 H 0.67201 0.1366 0.04449 0.0
H4146 H 0.63894 0.06 0.97505 0.0
H4147 H 0.60103 0.05919 0.98519 0.0
H4148 H 0.62601 0.09647 0.0584 0.0
C4149 C 0.71124 0.10542 0.03279 0.0
C4150 C 0.72279 0.10067 0.01251 0.0
C4151 C 0.71145 0.08588 0.99069 0.0
C4152 C 0.68826 0.07671 0.98874 0.0
C4153 C 0.67716 0.08217 0.009 0.0
C4154 C 0.68826 0.09577 0.03072 0.0
C4155 C 0.67226 0.0999 0.04938 0.0
C4156 C 0.67602 0.08673 0.06963 0.0
C4157 C 0.67434 0.12717 0.05933 0.0
C4158 C 0.65017 0.088 0.03428 0.0
C4159 C 0.65357 0.07761 0.01118 0.0
C4160 C 0.63607 0.06733 0.99326 0.0
C4161 C 0.61447 0.06712 0.99922 0.0
C4162 C 0.61026 0.07671 0.02287 0.0
C4163 C 0.62845 0.08779 0.04056 0.0
H4164 H 0.22844 0.4609 0.22595 0.0
H4165 H 0.27845 0.52874 0.23456 0.0
H4166 H 0.30537 0.5118 0.25524 0.0
H4167 H 0.23643 0.45193 0.2798 0.0
H4168 H 0.23373 0.4195 0.27311 0.0
H4169 H 0.22026 0.43323 0.25261 0.0
H4170 H 0.24063 0.4152 0.21768 0.0
H4171 H 0.25352 0.40029 0.23768 0.0
H4172 H 0.27066 0.41978 0.22142 0.0
H4173 H 0.32289 0.4923 0.28348 0.0
H4174 H 0.33368 0.46677 0.3102 0.0
H4175 H 0.27179 0.41243 0.28402 0.0
C4176 C 0.24542 0.47169 0.23107 0.0
C4177 C 0.25136 0.49612 0.22905 0.0
C4178 C 0.2736 0.50992 0.23606 0.0
C4179 C 0.28901 0.50051 0.2479 0.0
C4180 C 0.28195 0.47717 0.25185 0.0
C4181 C 0.26097 0.46254 0.24286 0.0
C4182 C 0.2567 0.43916 0.25178 0.0
C4183 C 0.23555 0.43581 0.26512 0.0
C4184 C 0.25531 0.41732 0.2309 0.0
C4185 C 0.27778 0.44396 0.26867 0.0
C4186 C 0.29226 0.46575 0.26818 0.0
C4187 C 0.31209 0.47479 0.28352 0.0
C4188 C 0.31788 0.46047 0.2989 0.0
C4189 C 0.30372 0.43762 0.29879 0.0
C4190 C 0.28316 0.42966 0.28399 0.0
H4191 H 0.23957 0.41254 0.05455 0.0
H4192 H 0.28588 0.43473 0.00425 0.0
H4193 H 0.26273 0.4609 0.99282 0.0
H4194 H 0.18922 0.40988 0.01712 0.0
H4195 H 0.1747 0.422 0.04143 0.0
H4196 H 0.19548 0.40552 0.047 0.0
H4197 H 0.21656 0.44232 0.08014 0.0
H4198 H 0.19605 0.45911 0.07431 0.0
H4199 H 0.22531 0.47171 0.07283 0.0
H4200 H 0.23629 0.48511 0.98692 0.0
H4201 H 0.20311 0.50128 0.98105 0.0
H4202 H 0.171 0.46319 0.03289 0.0
C4203 C 0.24465 0.42288 0.04108 0.0
C4204 C 0.26488 0.42202 0.03064 0.0
C4205 C 0.27096 0.43563 0.01302 0.0
C4206 C 0.25785 0.4506 0.00635 0.0
C4207 C 0.23855 0.45183 0.01745 0.0
C4208 C 0.23156 0.43812 0.0341 0.0
C4209 C 0.20929 0.44238 0.04211 0.0
C4210 C 0.19109 0.41852 0.03657 0.0
C4211 C 0.21197 0.4546 0.06894 0.0
C4212 C 0.20466 0.45977 0.02655 0.0
C4213 C 0.22225 0.4654 0.01311 0.0
C4214 C 0.2223 0.48079 0.9972 0.0
C4215 C 0.2034 0.48989 0.99401 0.0
C4216 C 0.18445 0.48325 0.00627 0.0
C4217 C 0.18534 0.46863 0.0234 0.0
H4218 H 0.91333 0.96987 0.28959 0.0
H4219 H 0.86873 0.9916 0.24111 0.0
H4220 H 0.84167 0.9517 0.23684 0.0
H4221 H 0.90455 0.90778 0.26253 0.0
H4222 H 0.90426 0.89694 0.29009 0.0
H4223 H 0.91942 0.92735 0.28999 0.0
H4224 H 0.89713 0.94466 0.32342 0.0
H4225 H 0.88196 0.91424 0.32371 0.0
H4226 H 0.86697 0.93678 0.31903 0.0
H4227 H 0.81967 0.90636 0.23634 0.0
H4228 H 0.80563 0.86406 0.24104 0.0
H4229 H 0.86387 0.8721 0.29092 0.0
C4230 C 0.89771 0.96644 0.2783 0.0
C4231 C 0.89338 0.9845 0.26582 0.0
C4232 C 0.8726 0.97873 0.25125 0.0
C4233 C 0.85709 0.95582 0.2486 0.0
C4234 C 0.86203 0.93846 0.26099 0.0
C4235 C 0.88178 0.94383 0.27594 0.0
C4236 C 0.88299 0.92244 0.28784 0.0
C4237 C 0.90406 0.91307 0.28226 0.0
C4238 C 0.88223 0.92998 0.31512 0.0
C4239 C 0.86162 0.9035 0.2762 0.0
C4240 C 0.84947 0.91322 0.26108 0.0
C4241 C 0.82909 0.89904 0.24851 0.0
C4242 C 0.82096 0.87485 0.25152 0.0
C4243 C 0.8329 0.86425 0.26695 0.0
C4244 C 0.85379 0.87915 0.2792 0.0
H4245 H 0.75347 0.11893 0.78063 0.0
H4246 H 0.73577 0.10769 0.70396 0.0
H4247 H 0.75986 0.14747 0.7038 0.0
H4248 H 0.74911 0.17266 0.79642 0.0
H4249 H 0.77295 0.1869 0.81833 0.0
H4250 H 0.76232 0.15458 0.81252 0.0
H4251 H 0.80099 0.14752 0.80215 0.0
H4252 H 0.81213 0.17999 0.80871 0.0
H4253 H 0.81507 0.16184 0.78003 0.0
H4254 H 0.75539 0.18778 0.71927 0.0
H4255 H 0.75839 0.23007 0.74012 0.0
H4256 H 0.79658 0.21999 0.8007 0.0
C4257 C 0.75614 0.12436 0.76372 0.0
C4258 C 0.74291 0.11094 0.74234 0.0
C4259 C 0.74585 0.11819 0.7204 0.0
C4260 C 0.75954 0.14055 0.72012 0.0
C4261 C 0.77032 0.15489 0.74188 0.0
C4262 C 0.77042 0.14669 0.76309 0.0
C4263 C 0.78127 0.16744 0.78416 0.0
C4264 C 0.76546 0.17054 0.80399 0.0
C4265 C 0.80372 0.16399 0.79435 0.0
C4266 C 0.7846 0.18859 0.77161 0.0
C4267 C 0.77633 0.18075 0.7476 0.0
C4268 C 0.76613 0.19525 0.73596 0.0
C4269 C 0.7681 0.21921 0.7475 0.0
C4270 C 0.78219 0.22902 0.76884 0.0
C4271 C 0.78915 0.21337 0.78223 0.0
loop_
_geom_bond_atom_site_label_1
_geom_bond_atom_site_label_2
_geom_bond_distance
_geom_bond_site_symmetry_2
_ccdc_geom_bond_type
C0 O1 1.306 . S
C0 O3 1.160 . S
O1 C0 1.306 . S
O1 Cd2 2.228 . S
Cd2 O1 2.228 . S
Cd2 O6 2.273 . S
Cd2 O10 2.277 . S
O3 C0 1.160 . S
O3 Cd4 2.203 . S
Cd4 O3 2.203 . S
Cd4 O6 2.411 . S
Cd4 O7 2.333 . S
Cd4 O8 2.352 . S
Cd4 O12 2.277 . S
Cd4 O13 2.356 . S
C5 O10 1.209 . S
C5 O12 1.226 . S
O6 Cd2 2.273 . S
O6 Cd4 2.411 . S
O6 C9 1.320 . S
O7 Cd4 2.333 . S
O7 C9 1.214 . S
O8 Cd4 2.352 . S
O8 C11 1.258 . S
C9 O6 1.320 . S
C9 O7 1.214 . S
O10 Cd2 2.277 . S
O10 C5 1.209 . S
C11 O8 1.258 . S
C11 O13 1.282 . S
O12 Cd4 2.277 . S
O12 C5 1.226 . S
O13 Cd4 2.356 . S
O13 C11 1.282 . S
C14 O15 1.306 . S
C14 O17 1.160 . S
O15 C14 1.306 . S
O15 Cd16 2.228 1_655 S
Cd16 O15 2.228 1_455 S
Cd16 O20 2.273 . S
Cd16 O24 2.277 1_455 S
O17 C14 1.160 . S
O17 Cd18 2.203 1_655 S
Cd18 O17 2.203 1_455 S
Cd18 O20 2.411 . S
Cd18 O21 2.333 . S
Cd18 O22 2.352 . S
Cd18 O26 2.277 1_455 S
Cd18 O27 2.356 . S
C19 O24 1.209 . S
C19 O26 1.226 . S
O20 Cd16 2.273 . S
O20 Cd18 2.411 . S
O20 C23 1.320 . S
O21 Cd18 2.333 . S
O21 C23 1.214 . S
O22 Cd18 2.352 . S
O22 C25 1.258 . S
C23 O20 1.320 . S
C23 O21 1.214 . S
O24 Cd16 2.277 1_655 S
O24 C19 1.209 . S
C25 O22 1.258 . S
C25 O27 1.282 . S
O26 Cd18 2.277 1_655 S
O26 C19 1.226 . S
O27 Cd18 2.356 . S
O27 C25 1.282 . S
C28 O29 1.306 . S
C28 O31 1.160 . S
O29 C28 1.306 . S
O29 Cd30 2.228 . S
Cd30 O29 2.228 . S
Cd30 O34 2.273 . S
Cd30 O38 2.277 . S
O31 C28 1.160 . S
O31 Cd32 2.203 . S
Cd32 O31 2.203 . S
Cd32 O34 2.411 . S
Cd32 O35 2.333 . S
Cd32 O36 2.352 . S
Cd32 O40 2.277 . S
Cd32 O41 2.356 . S
C33 O38 1.209 . S
C33 O40 1.226 . S
O34 Cd30 2.273 . S
O34 Cd32 2.411 . S
O34 C37 1.320 . S
O35 Cd32 2.333 . S
O35 C37 1.214 . S
O36 Cd32 2.352 . S
O36 C39 1.258 . S
C37 O34 1.320 . S
C37 O35 1.214 . S
O38 Cd30 2.277 . S
O38 C33 1.209 . S
C39 O36 1.258 . S
C39 O41 1.282 . S
O40 Cd32 2.277 . S
O40 C33 1.226 . S
O41 Cd32 2.356 . S
O41 C39 1.282 . S
C42 O43 1.306 . S
C42 O45 1.160 . S
O43 C42 1.306 . S
O43 Cd44 2.228 . S
Cd44 O43 2.228 . S
Cd44 O48 2.273 . S
Cd44 O52 2.277 . S
O45 C42 1.160 . S
O45 Cd46 2.203 . S
Cd46 O45 2.203 . S
Cd46 O48 2.411 . S
Cd46 O49 2.333 . S
Cd46 O50 2.352 . S
Cd46 O54 2.277 . S
Cd46 O55 2.356 . S
C47 O52 1.209 . S
C47 O54 1.226 . S
O48 Cd44 2.273 . S
O48 Cd46 2.411 . S
O48 C51 1.320 . S
O49 Cd46 2.333 . S
O49 C51 1.214 . S
O50 Cd46 2.352 . S
O50 C53 1.258 . S
C51 O48 1.320 . S
C51 O49 1.214 . S
O52 Cd44 2.277 . S
O52 C47 1.209 . S
C53 O50 1.258 . S
C53 O55 1.282 . S
O54 Cd46 2.277 . S
O54 C47 1.226 . S
O55 Cd46 2.356 . S
O55 C53 1.282 . S
C56 O57 1.306 . S
C56 O59 1.160 . S
O57 C56 1.306 . S
O57 Cd58 2.228 . S
Cd58 O57 2.228 . S
Cd58 O62 2.273 . S
Cd58 O66 2.277 . S
O59 C56 1.160 . S
O59 Cd60 2.203 . S
Cd60 O59 2.203 . S
Cd60 O62 2.411 . S
Cd60 O63 2.333 . S
Cd60 O64 2.352 . S
Cd60 O68 2.277 . S
Cd60 O69 2.356 . S
C61 O66 1.209 . S
C61 O68 1.226 . S
O62 Cd58 2.273 . S
O62 Cd60 2.411 . S
O62 C65 1.320 . S
O63 Cd60 2.333 . S
O63 C65 1.214 . S
O64 Cd60 2.352 . S
O64 C67 1.258 . S
C65 O62 1.320 . S
C65 O63 1.214 . S
O66 Cd58 2.277 . S
O66 C61 1.209 . S
C67 O64 1.258 . S
C67 O69 1.282 . S
O68 Cd60 2.277 . S
O68 C61 1.226 . S
O69 Cd60 2.356 . S
O69 C67 1.282 . S
C70 O71 1.306 . S
C70 O73 1.160 . S
O71 C70 1.306 . S
O71 Cd72 2.228 . S
Cd72 O71 2.228 . S
Cd72 O76 2.273 . S
Cd72 O80 2.277 . S
O73 C70 1.160 . S
O73 Cd74 2.203 . S
Cd74 O73 2.203 . S
Cd74 O76 2.411 . S
Cd74 O77 2.333 . S
Cd74 O78 2.352 . S
Cd74 O82 2.277 . S
Cd74 O83 2.356 . S
C75 O80 1.209 . S
C75 O82 1.226 . S
O76 Cd72 2.273 . S
O76 Cd74 2.411 . S
O76 C79 1.320 . S
O77 Cd74 2.333 . S
O77 C79 1.214 . S
O78 Cd74 2.352 . S
O78 C81 1.258 . S
C79 O76 1.320 . S
C79 O77 1.214 . S
O80 Cd72 2.277 . S
O80 C75 1.209 . S
C81 O78 1.258 . S
C81 O83 1.282 . S
O82 Cd74 2.277 . S
O82 C75 1.226 . S
O83 Cd74 2.356 . S
O83 C81 1.282 . S
C84 O85 1.306 . S
C84 O87 1.160 . S
O85 C84 1.306 . S
O85 Cd86 2.228 . S
Cd86 O85 2.228 . S
Cd86 O90 2.273 . S
Cd86 O94 2.277 . S
O87 C84 1.160 . S
O87 Cd88 2.203 . S
Cd88 O87 2.203 . S
Cd88 O90 2.411 . S
Cd88 O91 2.333 . S
Cd88 O92 2.352 . S
Cd88 O96 2.277 . S
Cd88 O97 2.356 . S
C89 O94 1.209 . S
C89 O96 1.226 . S
O90 Cd86 2.273 . S
O90 Cd88 2.411 . S
O90 C93 1.320 . S
O91 Cd88 2.333 . S
O91 C93 1.214 . S
O92 Cd88 2.352 . S
O92 C95 1.258 . S
C93 O90 1.320 . S
C93 O91 1.214 . S
O94 Cd86 2.277 . S
O94 C89 1.209 . S
C95 O92 1.258 . S
C95 O97 1.282 . S
O96 Cd88 2.277 . S
O96 C89 1.226 . S
O97 Cd88 2.356 . S
O97 C95 1.282 . S
C98 O99 1.306 . S
C98 O101 1.160 . S
O99 C98 1.306 . S
O99 Cd100 2.228 1_655 S
Cd100 O99 2.228 1_455 S
Cd100 O104 2.273 . S
Cd100 O108 2.277 . S
O101 C98 1.160 . S
O101 Cd102 2.203 1_655 S
Cd102 O101 2.203 1_455 S
Cd102 O104 2.411 . S
Cd102 O105 2.333 . S
Cd102 O106 2.352 . S
Cd102 O110 2.277 . S
Cd102 O111 2.356 . S
C103 O108 1.209 . S
C103 O110 1.226 . S
O104 Cd100 2.273 . S
O104 Cd102 2.411 . S
O104 C107 1.320 . S
O105 Cd102 2.333 . S
O105 C107 1.214 . S
O106 Cd102 2.352 . S
O106 C109 1.258 . S
C107 O104 1.320 . S
C107 O105 1.214 . S
O108 Cd100 2.277 . S
O108 C103 1.209 . S
C109 O106 1.258 . S
C109 O111 1.282 . S
O110 Cd102 2.277 . S
O110 C103 1.226 . S
O111 Cd102 2.356 . S
O111 C109 1.282 . S
C112 O113 1.306 . S
C112 O115 1.160 . S
O113 C112 1.306 . S
O113 Cd114 2.228 1_545 S
Cd114 O113 2.228 1_565 S
Cd114 O118 2.273 1_565 S
Cd114 O122 2.277 . S
O115 C112 1.160 . S
O115 Cd116 2.203 . S
Cd116 O115 2.203 . S
Cd116 O118 2.411 . S
Cd116 O119 2.333 . S
Cd116 O120 2.352 . S
Cd116 O124 2.277 1_545 S
Cd116 O125 2.356 . S
C117 O122 1.209 . S
C117 O124 1.226 . S
O118 Cd114 2.273 1_545 S
O118 Cd116 2.411 . S
O118 C121 1.320 . S
O119 Cd116 2.333 . S
O119 C121 1.214 . S
O120 Cd116 2.352 . S
O120 C123 1.258 . S
C121 O118 1.320 . S
C121 O119 1.214 . S
O122 Cd114 2.277 . S
O122 C117 1.209 . S
C123 O120 1.258 . S
C123 O125 1.282 . S
O124 Cd116 2.277 1_565 S
O124 C117 1.226 . S
O125 Cd116 2.356 . S
O125 C123 1.282 . S
C126 O127 1.306 . S
C126 O129 1.160 . S
O127 C126 1.306 . S
O127 Cd128 2.228 . S
Cd128 O127 2.228 . S
Cd128 O132 2.273 . S
Cd128 O136 2.277 . S
O129 C126 1.160 . S
O129 Cd130 2.203 . S
Cd130 O129 2.203 . S
Cd130 O132 2.411 . S
Cd130 O133 2.333 . S
Cd130 O134 2.352 . S
Cd130 O138 2.277 . S
Cd130 O139 2.356 . S
C131 O136 1.209 . S
C131 O138 1.226 . S
O132 Cd128 2.273 . S
O132 Cd130 2.411 . S
O132 C135 1.320 . S
O133 Cd130 2.333 . S
O133 C135 1.214 . S
O134 Cd130 2.352 . S
O134 C137 1.258 . S
C135 O132 1.320 . S
C135 O133 1.214 . S
O136 Cd128 2.277 . S
O136 C131 1.209 . S
C137 O134 1.258 . S
C137 O139 1.282 . S
O138 Cd130 2.277 . S
O138 C131 1.226 . S
O139 Cd130 2.356 . S
O139 C137 1.282 . S
C140 O141 1.306 . S
C140 O143 1.160 . S
O141 C140 1.306 . S
O141 Cd142 2.228 . S
Cd142 O141 2.228 . S
Cd142 O146 2.273 1_545 S
Cd142 O150 2.277 . S
O143 C140 1.160 . S
O143 Cd144 2.203 1_545 S
Cd144 O143 2.203 1_565 S
Cd144 O146 2.411 . S
Cd144 O147 2.333 . S
Cd144 O148 2.352 . S
Cd144 O152 2.277 1_565 S
Cd144 O153 2.356 . S
C145 O150 1.209 . S
C145 O152 1.226 . S
O146 Cd142 2.273 1_565 S
O146 Cd144 2.411 . S
O146 C149 1.320 . S
O147 Cd144 2.333 . S
O147 C149 1.214 . S
O148 Cd144 2.352 . S
O148 C151 1.258 . S
C149 O146 1.320 . S
C149 O147 1.214 . S
O150 Cd142 2.277 . S
O150 C145 1.209 . S
C151 O148 1.258 . S
C151 O153 1.282 . S
O152 Cd144 2.277 1_545 S
O152 C145 1.226 . S
O153 Cd144 2.356 . S
O153 C151 1.282 . S
C154 O155 1.306 . S
C154 O157 1.160 . S
O155 C154 1.306 . S
O155 Cd156 2.228 1_554 S
Cd156 O155 2.228 1_556 S
Cd156 O160 2.273 1_556 S
Cd156 O164 2.277 . S
O157 C154 1.160 . S
O157 Cd158 2.203 . S
Cd158 O157 2.203 . S
Cd158 O160 2.411 . S
Cd158 O161 2.333 . S
Cd158 O162 2.352 . S
Cd158 O166 2.277 1_554 S
Cd158 O167 2.356 . S
C159 O164 1.209 . S
C159 O166 1.226 . S
O160 Cd156 2.273 1_554 S
O160 Cd158 2.411 . S
O160 C163 1.320 . S
O161 Cd158 2.333 . S
O161 C163 1.214 . S
O162 Cd158 2.352 . S
O162 C165 1.258 . S
C163 O160 1.320 . S
C163 O161 1.214 . S
O164 Cd156 2.277 . S
O164 C159 1.209 . S
C165 O162 1.258 . S
C165 O167 1.282 . S
O166 Cd158 2.277 1_556 S
O166 C159 1.226 . S
O167 Cd158 2.356 . S
O167 C165 1.282 . S
C168 O169 1.306 . S
C168 O171 1.160 . S
O169 C168 1.306 . S
O169 Cd170 2.228 . S
Cd170 O169 2.228 . S
Cd170 O174 2.273 . S
Cd170 O178 2.277 1_554 S
O171 C168 1.160 . S
O171 Cd172 2.203 . S
Cd172 O171 2.203 . S
Cd172 O174 2.411 . S
Cd172 O175 2.333 . S
Cd172 O176 2.352 . S
Cd172 O180 2.277 . S
Cd172 O181 2.356 . S
C173 O178 1.209 . S
C173 O180 1.226 1_556 S
O174 Cd170 2.273 . S
O174 Cd172 2.411 . S
O174 C177 1.320 . S
O175 Cd172 2.333 . S
O175 C177 1.214 . S
O176 Cd172 2.352 . S
O176 C179 1.258 . S
C177 O174 1.320 . S
C177 O175 1.214 . S
O178 Cd170 2.277 1_556 S
O178 C173 1.209 . S
C179 O176 1.258 . S
C179 O181 1.282 . S
O180 Cd172 2.277 . S
O180 C173 1.226 1_554 S
O181 Cd172 2.356 . S
O181 C179 1.282 . S
C182 O183 1.306 . S
C182 O185 1.160 . S
O183 C182 1.306 . S
O183 Cd184 2.228 . S
Cd184 O183 2.228 . S
Cd184 O188 2.273 . S
Cd184 O192 2.277 . S
O185 C182 1.160 . S
O185 Cd186 2.203 . S
Cd186 O185 2.203 . S
Cd186 O188 2.411 . S
Cd186 O189 2.333 . S
Cd186 O190 2.352 1_554 S
Cd186 O194 2.277 . S
Cd186 O195 2.356 . S
C187 O192 1.209 . S
C187 O194 1.226 . S
O188 Cd184 2.273 . S
O188 Cd186 2.411 . S
O188 C191 1.320 . S
O189 Cd186 2.333 . S
O189 C191 1.214 . S
O190 Cd186 2.352 1_556 S
O190 C193 1.258 . S
C191 O188 1.320 . S
C191 O189 1.214 . S
O192 Cd184 2.277 . S
O192 C187 1.209 . S
C193 O190 1.258 . S
C193 O195 1.282 1_556 S
O194 Cd186 2.277 . S
O194 C187 1.226 . S
O195 Cd186 2.356 . S
O195 C193 1.282 1_554 S
C196 O197 1.306 . S
C196 O199 1.160 . S
O197 C196 1.306 . S
O197 Cd198 2.228 . S
Cd198 O197 2.228 . S
Cd198 O202 2.273 . S
Cd198 O206 2.277 . S
O199 C196 1.160 . S
O199 Cd200 2.203 . S
Cd200 O199 2.203 . S
Cd200 O202 2.411 . S
Cd200 O203 2.333 . S
Cd200 O204 2.352 . S
Cd200 O208 2.277 . S
Cd200 O209 2.356 . S
C201 O206 1.209 . S
C201 O208 1.226 . S
O202 Cd198 2.273 . S
O202 Cd200 2.411 . S
O202 C205 1.320 . S
O203 Cd200 2.333 . S
O203 C205 1.214 . S
O204 Cd200 2.352 . S
O204 C207 1.258 . S
C205 O202 1.320 . S
C205 O203 1.214 . S
O206 Cd198 2.277 . S
O206 C201 1.209 . S
C207 O204 1.258 . S
C207 O209 1.282 . S
O208 Cd200 2.277 . S
O208 C201 1.226 . S
O209 Cd200 2.356 . S
O209 C207 1.282 . S
C210 O211 1.306 . S
C210 O213 1.160 . S
O211 C210 1.306 . S
O211 Cd212 2.228 . S
Cd212 O211 2.228 . S
Cd212 O216 2.273 . S
Cd212 O220 2.277 . S
O213 C210 1.160 . S
O213 Cd214 2.203 . S
Cd214 O213 2.203 . S
Cd214 O216 2.411 . S
Cd214 O217 2.333 . S
Cd214 O218 2.352 . S
Cd214 O222 2.277 . S
Cd214 O223 2.356 . S
C215 O220 1.209 . S
C215 O222 1.226 . S
O216 Cd212 2.273 . S
O216 Cd214 2.411 . S
O216 C219 1.320 . S
O217 Cd214 2.333 . S
O217 C219 1.214 . S
O218 Cd214 2.352 . S
O218 C221 1.258 . S
C219 O216 1.320 . S
C219 O217 1.214 . S
O220 Cd212 2.277 . S
O220 C215 1.209 . S
C221 O218 1.258 . S
C221 O223 1.282 . S
O222 Cd214 2.277 . S
O222 C215 1.226 . S
O223 Cd214 2.356 . S
O223 C221 1.282 . S
C224 O225 1.306 . S
C224 O227 1.160 . S
O225 C224 1.306 . S
O225 Cd226 2.228 . S
Cd226 O225 2.228 . S
Cd226 O230 2.273 . S
Cd226 O234 2.277 . S
O227 C224 1.160 . S
O227 Cd228 2.203 . S
Cd228 O227 2.203 . S
Cd228 O230 2.411 . S
Cd228 O231 2.333 . S
Cd228 O232 2.352 . S
Cd228 O236 2.277 . S
Cd228 O237 2.356 . S
C229 O234 1.209 . S
C229 O236 1.226 . S
O230 Cd226 2.273 . S
O230 Cd228 2.411 . S
O230 C233 1.320 . S
O231 Cd228 2.333 . S
O231 C233 1.214 . S
O232 Cd228 2.352 . S
O232 C235 1.258 . S
C233 O230 1.320 . S
C233 O231 1.214 . S
O234 Cd226 2.277 . S
O234 C229 1.209 . S
C235 O232 1.258 . S
C235 O237 1.282 . S
O236 Cd228 2.277 . S
O236 C229 1.226 . S
O237 Cd228 2.356 . S
O237 C235 1.282 . S
C238 O239 1.306 . S
C238 O241 1.160 . S
O239 C238 1.306 . S
O239 Cd240 2.228 . S
Cd240 O239 2.228 . S
Cd240 O244 2.273 . S
Cd240 O248 2.277 . S
O241 C238 1.160 . S
O241 Cd242 2.203 . S
Cd242 O241 2.203 . S
Cd242 O244 2.411 . S
Cd242 O245 2.333 . S
Cd242 O246 2.352 . S
Cd242 O250 2.277 . S
Cd242 O251 2.356 . S
C243 O248 1.209 . S
C243 O250 1.226 . S
O244 Cd240 2.273 . S
O244 Cd242 2.411 . S
O244 C247 1.320 . S
O245 Cd242 2.333 . S
O245 C247 1.214 . S
O246 Cd242 2.352 . S
O246 C249 1.258 . S
C247 O244 1.320 . S
C247 O245 1.214 . S
O248 Cd240 2.277 . S
O248 C243 1.209 . S
C249 O246 1.258 . S
C249 O251 1.282 . S
O250 Cd242 2.277 . S
O250 C243 1.226 . S
O251 Cd242 2.356 . S
O251 C249 1.282 . S
C252 O253 1.306 . S
C252 O255 1.160 . S
O253 C252 1.306 . S
O253 Cd254 2.228 . S
Cd254 O253 2.228 . S
Cd254 O258 2.273 . S
Cd254 O262 2.277 . S
O255 C252 1.160 . S
O255 Cd256 2.203 . S
Cd256 O255 2.203 . S
Cd256 O258 2.411 . S
Cd256 O259 2.333 . S
Cd256 O260 2.352 . S
Cd256 O264 2.277 . S
Cd256 O265 2.356 . S
C257 O262 1.209 . S
C257 O264 1.226 . S
O258 Cd254 2.273 . S
O258 Cd256 2.411 . S
O258 C261 1.320 . S
O259 Cd256 2.333 . S
O259 C261 1.214 . S
O260 Cd256 2.352 . S
O260 C263 1.258 . S
C261 O258 1.320 . S
C261 O259 1.214 . S
O262 Cd254 2.277 . S
O262 C257 1.209 . S
C263 O260 1.258 . S
C263 O265 1.282 . S
O264 Cd256 2.277 . S
O264 C257 1.226 . S
O265 Cd256 2.356 . S
O265 C263 1.282 . S
C266 O267 1.306 . S
C266 O269 1.160 . S
O267 C266 1.306 . S
O267 Cd268 2.228 . S
Cd268 O267 2.228 . S
Cd268 O272 2.273 . S
Cd268 O276 2.277 . S
O269 C266 1.160 . S
O269 Cd270 2.203 . S
Cd270 O269 2.203 . S
Cd270 O272 2.411 . S
Cd270 O273 2.333 . S
Cd270 O274 2.352 . S
Cd270 O278 2.277 . S
Cd270 O279 2.356 . S
C271 O276 1.209 . S
C271 O278 1.226 . S
O272 Cd268 2.273 . S
O272 Cd270 2.411 . S
O272 C275 1.320 . S
O273 Cd270 2.333 . S
O273 C275 1.214 . S
O274 Cd270 2.352 . S
O274 C277 1.258 . S
C275 O272 1.320 . S
C275 O273 1.214 . S
O276 Cd268 2.277 . S
O276 C271 1.209 . S
C277 O274 1.258 . S
C277 O279 1.282 . S
O278 Cd270 2.277 . S
O278 C271 1.226 . S
O279 Cd270 2.356 . S
O279 C277 1.282 . S
C280 O281 1.306 . S
C280 O283 1.160 1_554 S
O281 C280 1.306 . S
O281 Cd282 2.228 . S
Cd282 O281 2.228 . S
Cd282 O286 2.273 1_554 S
Cd282 O290 2.277 . S
O283 C280 1.160 1_556 S
O283 Cd284 2.203 . S
Cd284 O283 2.203 . S
Cd284 O286 2.411 . S
Cd284 O287 2.333 . S
Cd284 O288 2.352 . S
Cd284 O292 2.277 1_556 S
Cd284 O293 2.356 . S
C285 O290 1.209 . S
C285 O292 1.226 . S
O286 Cd282 2.273 1_556 S
O286 Cd284 2.411 . S
O286 C289 1.320 . S
O287 Cd284 2.333 . S
O287 C289 1.214 . S
O288 Cd284 2.352 . S
O288 C291 1.258 . S
C289 O286 1.320 . S
C289 O287 1.214 . S
O290 Cd282 2.277 . S
O290 C285 1.209 . S
C291 O288 1.258 . S
C291 O293 1.282 . S
O292 Cd284 2.277 1_554 S
O292 C285 1.226 . S
O293 Cd284 2.356 . S
O293 C291 1.282 . S
C294 O295 1.306 . S
C294 O297 1.160 . S
O295 C294 1.306 . S
O295 Cd296 2.228 . S
Cd296 O295 2.228 . S
Cd296 O300 2.273 . S
Cd296 O304 2.277 . S
O297 C294 1.160 . S
O297 Cd298 2.203 . S
Cd298 O297 2.203 . S
Cd298 O300 2.411 . S
Cd298 O301 2.333 . S
Cd298 O302 2.352 . S
Cd298 O306 2.277 . S
Cd298 O307 2.356 . S
C299 O304 1.209 . S
C299 O306 1.226 . S
O300 Cd296 2.273 . S
O300 Cd298 2.411 . S
O300 C303 1.320 . S
O301 Cd298 2.333 . S
O301 C303 1.214 . S
O302 Cd298 2.352 . S
O302 C305 1.258 . S
C303 O300 1.320 . S
C303 O301 1.214 . S
O304 Cd296 2.277 . S
O304 C299 1.209 . S
C305 O302 1.258 . S
C305 O307 1.282 . S
O306 Cd298 2.277 . S
O306 C299 1.226 . S
O307 Cd298 2.356 . S
O307 C305 1.282 . S
C308 O309 1.306 . S
C308 O311 1.160 . S
O309 C308 1.306 . S
O309 Cd310 2.228 . S
Cd310 O309 2.228 . S
Cd310 O314 2.273 . S
Cd310 O318 2.277 . S
O311 C308 1.160 . S
O311 Cd312 2.203 . S
Cd312 O311 2.203 . S
Cd312 O314 2.411 . S
Cd312 O315 2.333 . S
Cd312 O316 2.352 . S
Cd312 O320 2.277 . S
Cd312 O321 2.356 . S
C313 O318 1.209 . S
C313 O320 1.226 . S
O314 Cd310 2.273 . S
O314 Cd312 2.411 . S
O314 C317 1.320 . S
O315 Cd312 2.333 . S
O315 C317 1.214 . S
O316 Cd312 2.352 . S
O316 C319 1.258 . S
C317 O314 1.320 . S
C317 O315 1.214 . S
O318 Cd310 2.277 . S
O318 C313 1.209 . S
C319 O316 1.258 . S
C319 O321 1.282 . S
O320 Cd312 2.277 . S
O320 C313 1.226 . S
O321 Cd312 2.356 . S
O321 C319 1.282 . S
C322 O323 1.306 . S
C322 O325 1.160 . S
O323 C322 1.306 . S
O323 Cd324 2.228 . S
Cd324 O323 2.228 . S
Cd324 O328 2.273 . S
Cd324 O332 2.277 . S
O325 C322 1.160 . S
O325 Cd326 2.203 . S
Cd326 O325 2.203 . S
Cd326 O328 2.411 . S
Cd326 O329 2.333 . S
Cd326 O330 2.352 . S
Cd326 O334 2.277 . S
Cd326 O335 2.356 . S
C327 O332 1.209 . S
C327 O334 1.226 . S
O328 Cd324 2.273 . S
O328 Cd326 2.411 . S
O328 C331 1.320 . S
O329 Cd326 2.333 . S
O329 C331 1.214 . S
O330 Cd326 2.352 . S
O330 C333 1.258 . S
C331 O328 1.320 . S
C331 O329 1.214 . S
O332 Cd324 2.277 . S
O332 C327 1.209 . S
C333 O330 1.258 . S
C333 O335 1.282 . S
O334 Cd326 2.277 . S
O334 C327 1.226 . S
O335 Cd326 2.356 . S
O335 C333 1.282 . S
Tb336 N367 2.660 1_545 S
Tb336 N374 2.600 1_544 S
Tb336 O380 2.546 1_454 S
Tb336 O381 2.610 . S
Tb336 O383 2.320 . S
Tb336 O384 2.552 . S
Tb336 O385 2.413 1_455 S
Tb336 O387 2.362 . S
Tb336 O388 2.421 1_554 S
Tb336 C400 2.833 1_454 S
C337 C340 1.432 . S
C337 C341 1.414 . S
C337 N344 1.359 . S
C338 C340 1.417 . S
C338 C342 1.432 . S
C338 C350 1.410 . S
C339 C341 1.444 . S
C339 C342 1.317 . S
C339 H362 0.929 . S
C340 C337 1.432 . S
C340 C338 1.417 . S
C340 N348 1.360 . S
C341 C337 1.414 . S
C341 C339 1.444 . S
C341 C346 1.385 . S
C342 C338 1.432 . S
C342 C339 1.317 . S
C342 H354 0.930 . S
C343 C345 1.392 . S
C343 C346 1.370 . S
C343 H355 0.931 . S
N344 C337 1.359 . S
N344 C345 1.327 . S
N344 Tb347 2.600 . S
C345 C343 1.392 . S
C345 N344 1.327 . S
C345 H352 0.930 . S
C346 C341 1.385 . S
C346 C343 1.370 . S
C346 H365 0.930 . S
Tb347 N344 2.600 . S
Tb347 N348 2.660 . S
Tb347 O381 2.362 . S
Tb347 O382 2.421 . S
Tb347 O386 2.546 . S
Tb347 O387 2.610 . S
Tb347 O389 2.320 1_554 S
Tb347 O390 2.552 . S
Tb347 O391 2.413 . S
Tb347 C411 2.833 . S
N348 C340 1.360 . S
N348 Tb347 2.660 . S
N348 C349 1.305 1_554 S
C349 N348 1.305 1_556 S
C349 C351 1.407 . S
C349 H356 0.930 . S
C350 C338 1.410 . S
C350 C351 1.345 1_554 S
C350 H358 0.930 1_554 S
C351 C349 1.407 . S
C351 C350 1.345 1_556 S
C351 H353 0.930 . S
H352 C345 0.930 . S
H353 C351 0.930 . S
H354 C342 0.930 . S
H355 C343 0.931 . S
H356 C349 0.930 . S
H357 C371 0.930 . S
H358 C350 0.930 1_556 S
H359 C377 0.930 . S
H360 C368 0.930 . S
H361 C375 0.931 . S
H362 C339 0.929 . S
H363 C369 0.930 . S
H364 C402 0.930 1_554 S
H365 C346 0.930 . S
H366 C401 0.929 . S
N367 Tb336 2.660 1_565 S
N367 C368 1.305 . S
N367 C372 1.366 . S
C368 H360 0.930 . S
C368 N367 1.305 . S
C368 C371 1.407 . S
C369 H363 0.930 . S
C369 C370 1.410 . S
C369 C371 1.345 1_655 S
C370 C369 1.410 . S
C370 C372 1.410 1_655 S
C370 C402 1.432 1_554 S
C371 H357 0.930 . S
C371 C368 1.407 . S
C371 C369 1.345 1_455 S
C372 N367 1.366 . S
C372 C370 1.410 1_455 S
C372 C376 1.433 1_554 S
H373 C378 0.930 . S
N374 Tb336 2.600 1_566 S
N374 C376 1.361 . S
N374 C377 1.327 . S
C375 H361 0.931 . S
C375 C377 1.382 1_655 S
C375 C378 1.382 . S
C376 C372 1.433 1_556 S
C376 N374 1.361 . S
C376 C379 1.412 1_455 S
C377 H359 0.930 . S
C377 N374 1.327 . S
C377 C375 1.382 1_455 S
C378 H373 0.930 . S
C378 C375 1.382 . S
C378 C379 1.385 . S
C379 C376 1.412 1_655 S
C379 C378 1.385 . S
C379 C401 1.444 . S
O380 Tb336 2.546 1_656 S
O380 C400 1.251 . S
O381 Tb336 2.610 . S
O381 Tb347 2.362 . S
O381 C392 1.283 . S
O382 Tb347 2.421 . S
O382 C399 1.262 . S
O383 Tb336 2.320 . S
O383 C399 1.260 . S
O384 Tb336 2.552 . S
O384 C392 1.243 . S
O385 Tb336 2.413 1_655 S
O385 C400 1.256 1_554 S
O386 Tb347 2.546 . S
O386 C411 1.251 . S
O387 Tb336 2.362 . S
O387 Tb347 2.610 . S
O387 C403 1.283 1_545 S
O388 Tb336 2.421 1_556 S
O388 C410 1.262 . S
O389 Tb347 2.320 1_556 S
O389 C410 1.260 . S
O390 Tb347 2.552 . S
O390 C403 1.243 1_545 S
O391 Tb347 2.413 . S
O391 C411 1.256 . S
C392 O381 1.283 . S
C392 O384 1.243 . S
C393 C395 1.382 1_556 S
C393 C397 1.393 . S
C393 C400 1.500 . S
C394 C395 1.397 1_556 S
C394 C396 1.399 . S
C395 C393 1.382 1_554 S
C395 C394 1.397 1_554 S
C395 H412 0.930 . S
C396 C394 1.399 . S
C396 C398 1.392 . S
C396 H413 0.931 . S
C397 C393 1.393 . S
C397 C398 1.401 . S
C397 H414 0.930 . S
C398 C396 1.392 . S
C398 C397 1.401 . S
C398 H415 0.930 . S
C399 O382 1.262 . S
C399 O383 1.260 . S
C400 Tb336 2.833 1_656 S
C400 O380 1.251 . S
C400 O385 1.256 1_556 S
C400 C393 1.500 . S
C401 H366 0.929 . S
C401 C379 1.444 . S
C401 C402 1.317 . S
C402 H364 0.930 1_556 S
C402 C370 1.432 1_556 S
C402 C401 1.317 . S
C403 O387 1.283 1_565 S
C403 O390 1.243 1_565 S
C404 C405 1.382 . S
C404 C408 1.393 . S
C404 C411 1.500 . S
C405 C404 1.382 . S
C405 C406 1.400 . S
C405 H416 0.930 . S
C406 C405 1.400 . S
C406 C407 1.384 . S
C407 C406 1.384 . S
C407 C409 1.392 . S
C407 H417 0.931 . S
C408 C404 1.393 . S
C408 C409 1.401 . S
C408 H418 0.930 . S
C409 C407 1.392 . S
C409 C408 1.401 . S
C409 H419 0.930 . S
C410 O388 1.262 . S
C410 O389 1.260 . S
C411 Tb347 2.833 . S
C411 O386 1.251 . S
C411 O391 1.256 . S
C411 C404 1.500 . S
H412 C395 0.930 . S
H413 C396 0.931 . S
H414 C397 0.930 . S
H415 C398 0.930 . S
H416 C405 0.930 . S
H417 C407 0.931 . S
H418 C408 0.930 . S
H419 C409 0.930 . S
Tb420 N451 2.660 . S
Tb420 N458 2.600 . S
Tb420 O464 2.546 . S
Tb420 O465 2.610 . S
Tb420 O467 2.320 . S
Tb420 O468 2.552 . S
Tb420 O469 2.413 . S
Tb420 O471 2.362 . S
Tb420 O472 2.421 . S
Tb420 C484 2.833 . S
C421 C424 1.432 . S
C421 C425 1.414 . S
C421 N428 1.359 . S
C422 C424 1.417 . S
C422 C426 1.432 . S
C422 C434 1.410 . S
C423 C425 1.444 . S
C423 C426 1.317 . S
C423 H446 0.929 . S
C424 C421 1.432 . S
C424 C422 1.417 . S
C424 N432 1.360 . S
C425 C421 1.414 . S
C425 C423 1.444 . S
C425 C430 1.385 . S
C426 C422 1.432 . S
C426 C423 1.317 . S
C426 H438 0.930 . S
C427 C429 1.392 . S
C427 C430 1.370 . S
C427 H439 0.931 . S
N428 C421 1.359 . S
N428 C429 1.327 . S
N428 Tb431 2.600 . S
C429 C427 1.392 . S
C429 N428 1.327 . S
C429 H436 0.930 . S
C430 C425 1.385 . S
C430 C427 1.370 . S
C430 H449 0.930 . S
Tb431 N428 2.600 . S
Tb431 N432 2.660 . S
Tb431 O465 2.362 . S
Tb431 O466 2.421 . S
Tb431 O470 2.546 . S
Tb431 O471 2.610 . S
Tb431 O473 2.320 . S
Tb431 O474 2.552 . S
Tb431 O475 2.413 . S
Tb431 C495 2.833 . S
N432 C424 1.360 . S
N432 Tb431 2.660 . S
N432 C433 1.305 . S
C433 N432 1.305 . S
C433 C435 1.407 . S
C433 H440 0.930 . S
C434 C422 1.410 . S
C434 C435 1.345 . S
C434 H442 0.930 . S
C435 C433 1.407 . S
C435 C434 1.345 . S
C435 H437 0.930 . S
H436 C429 0.930 . S
H437 C435 0.930 . S
H438 C426 0.930 . S
H439 C427 0.931 . S
H440 C433 0.930 . S
H441 C455 0.930 . S
H442 C434 0.930 . S
H443 C461 0.930 . S
H444 C452 0.930 . S
H445 C459 0.931 . S
H446 C423 0.929 . S
H447 C453 0.930 . S
H448 C486 0.930 . S
H449 C430 0.930 . S
H450 C485 0.929 . S
N451 Tb420 2.660 . S
N451 C452 1.305 . S
N451 C456 1.360 . S
C452 H444 0.930 . S
C452 N451 1.305 . S
C452 C455 1.407 . S
C453 H447 0.930 . S
C453 C454 1.410 . S
C453 C455 1.345 . S
C454 C453 1.410 . S
C454 C456 1.417 . S
C454 C486 1.432 . S
C455 H441 0.930 . S
C455 C452 1.407 . S
C455 C453 1.345 . S
C456 N451 1.360 . S
C456 C454 1.417 . S
C456 C460 1.432 . S
H457 C462 0.930 . S
N458 Tb420 2.600 . S
N458 C460 1.359 . S
N458 C461 1.327 . S
C459 H445 0.931 . S
C459 C461 1.392 . S
C459 C462 1.370 . S
C460 C456 1.432 . S
C460 N458 1.359 . S
C460 C463 1.414 . S
C461 H443 0.930 . S
C461 N458 1.327 . S
C461 C459 1.392 . S
C462 H457 0.930 . S
C462 C459 1.370 . S
C462 C463 1.385 . S
C463 C460 1.414 . S
C463 C462 1.385 . S
C463 C485 1.444 . S
O464 Tb420 2.546 . S
O464 C484 1.251 . S
O465 Tb420 2.610 . S
O465 Tb431 2.362 . S
O465 C476 1.283 . S
O466 Tb431 2.421 . S
O466 C483 1.262 . S
O467 Tb420 2.320 . S
O467 C483 1.260 . S
O468 Tb420 2.552 . S
O468 C476 1.243 . S
O469 Tb420 2.413 . S
O469 C484 1.256 . S
O470 Tb431 2.546 . S
O470 C495 1.251 . S
O471 Tb420 2.362 . S
O471 Tb431 2.610 . S
O471 C487 1.283 . S
O472 Tb420 2.421 . S
O472 C494 1.262 . S
O473 Tb431 2.320 . S
O473 C494 1.260 . S
O474 Tb431 2.552 . S
O474 C487 1.243 . S
O475 Tb431 2.413 . S
O475 C495 1.256 . S
C476 O465 1.283 . S
C476 O468 1.243 . S
C477 C479 1.382 . S
C477 C481 1.393 . S
C477 C484 1.500 . S
C478 C479 1.400 . S
C478 C480 1.384 . S
C479 C477 1.382 . S
C479 C478 1.400 . S
C479 H496 0.930 . S
C480 C478 1.384 . S
C480 C482 1.392 . S
C480 H497 0.931 . S
C481 C477 1.393 . S
C481 C482 1.401 . S
C481 H498 0.930 . S
C482 C480 1.392 . S
C482 C481 1.401 . S
C482 H499 0.930 . S
C483 O466 1.262 . S
C483 O467 1.260 . S
C484 Tb420 2.833 . S
C484 O464 1.251 . S
C484 O469 1.256 . S
C484 C477 1.500 . S
C485 H450 0.929 . S
C485 C463 1.444 . S
C485 C486 1.317 . S
C486 H448 0.930 . S
C486 C454 1.432 . S
C486 C485 1.317 . S
C487 O471 1.283 . S
C487 O474 1.243 . S
C488 C489 1.382 . S
C488 C492 1.393 . S
C488 C495 1.500 . S
C489 C488 1.382 . S
C489 C490 1.400 . S
C489 H500 0.930 . S
C490 C489 1.400 . S
C490 C491 1.384 . S
C491 C490 1.384 . S
C491 C493 1.392 . S
C491 H501 0.931 . S
C492 C488 1.393 . S
C492 C493 1.401 . S
C492 H502 0.930 . S
C493 C491 1.392 . S
C493 C492 1.401 . S
C493 H503 0.930 . S
C494 O472 1.262 . S
C494 O473 1.260 . S
C495 Tb431 2.833 . S
C495 O470 1.251 . S
C495 O475 1.256 . S
C495 C488 1.500 . S
H496 C479 0.930 . S
H497 C480 0.931 . S
H498 C481 0.930 . S
H499 C482 0.930 . S
H500 C489 0.930 . S
H501 C491 0.931 . S
H502 C492 0.930 . S
H503 C493 0.930 . S
Tb504 N535 2.660 . S
Tb504 N542 2.600 . S
Tb504 O548 2.546 . S
Tb504 O549 2.610 . S
Tb504 O551 2.320 . S
Tb504 O552 2.552 1_545 S
Tb504 O553 2.413 . S
Tb504 O555 2.362 . S
Tb504 O556 2.421 . S
Tb504 C568 2.833 . S
C505 C508 1.432 . S
C505 C509 1.414 . S
C505 N512 1.359 1_565 S
C506 C508 1.417 . S
C506 C510 1.432 . S
C506 C518 1.410 . S
C507 C509 1.444 . S
C507 C510 1.317 . S
C507 H530 0.929 . S
C508 C505 1.432 . S
C508 C506 1.417 . S
C508 N516 1.360 . S
C509 C505 1.414 . S
C509 C507 1.444 . S
C509 C514 1.385 . S
C510 C506 1.432 . S
C510 C507 1.317 . S
C510 H522 0.930 . S
C511 C513 1.385 1_565 S
C511 C514 1.379 . S
C511 H523 0.929 1_565 S
N512 C505 1.359 1_545 S
N512 C513 1.327 . S
N512 Tb515 2.600 . S
C513 C511 1.385 1_545 S
C513 N512 1.327 . S
C513 H520 0.930 . S
C514 C509 1.385 . S
C514 C511 1.379 . S
C514 H533 0.930 . S
Tb515 N512 2.600 . S
Tb515 N516 2.660 1_545 S
Tb515 O549 2.362 . S
Tb515 O550 2.421 . S
Tb515 O554 2.546 . S
Tb515 O555 2.610 . S
Tb515 O557 2.320 . S
Tb515 O558 2.552 . S
Tb515 O559 2.413 . S
Tb515 C579 2.833 . S
N516 C508 1.360 . S
N516 Tb515 2.660 1_565 S
N516 C517 1.305 . S
C517 N516 1.305 . S
C517 C519 1.407 . S
C517 H524 0.930 . S
C518 C506 1.410 . S
C518 C519 1.345 . S
C518 H526 0.930 . S
C519 C517 1.407 . S
C519 C518 1.345 . S
C519 H521 0.930 . S
H520 C513 0.930 . S
H521 C519 0.930 . S
H522 C510 0.930 . S
H523 C511 0.929 1_545 S
H524 C517 0.930 . S
H525 C539 0.930 . S
H526 C518 0.930 . S
H527 C545 0.930 . S
H528 C536 0.930 . S
H529 C543 0.931 . S
H530 C507 0.929 . S
H531 C537 0.930 . S
H532 C570 0.930 . S
H533 C514 0.930 . S
H534 C569 0.929 . S
N535 Tb504 2.660 . S
N535 C536 1.305 . S
N535 C540 1.360 . S
C536 H528 0.930 . S
C536 N535 1.305 . S
C536 C539 1.407 . S
C537 H531 0.930 . S
C537 C538 1.410 . S
C537 C539 1.345 . S
C538 C537 1.410 . S
C538 C540 1.417 . S
C538 C570 1.432 . S
C539 H525 0.930 . S
C539 C536 1.407 . S
C539 C537 1.345 . S
C540 N535 1.360 . S
C540 C538 1.417 . S
C540 C544 1.432 . S
H541 C546 0.930 . S
N542 Tb504 2.600 . S
N542 C544 1.359 . S
N542 C545 1.327 . S
C543 H529 0.931 . S
C543 C545 1.392 . S
C543 C546 1.370 . S
C544 C540 1.432 . S
C544 N542 1.359 . S
C544 C547 1.414 . S
C545 H527 0.930 . S
C545 N542 1.327 . S
C545 C543 1.392 . S
C546 H541 0.930 . S
C546 C543 1.370 . S
C546 C547 1.385 . S
C547 C544 1.414 . S
C547 C546 1.385 . S
C547 C569 1.444 . S
O548 Tb504 2.546 . S
O548 C568 1.251 . S
O549 Tb504 2.610 . S
O549 Tb515 2.362 . S
O549 C560 1.283 1_545 S
O550 Tb515 2.421 . S
O550 C567 1.262 . S
O551 Tb504 2.320 . S
O551 C567 1.260 . S
O552 Tb504 2.552 1_565 S
O552 C560 1.243 . S
O553 Tb504 2.413 . S
O553 C568 1.256 . S
O554 Tb515 2.546 . S
O554 C579 1.251 . S
O555 Tb504 2.362 . S
O555 Tb515 2.610 . S
O555 C571 1.283 . S
O556 Tb504 2.421 . S
O556 C578 1.262 . S
O557 Tb515 2.320 . S
O557 C578 1.260 . S
O558 Tb515 2.552 . S
O558 C571 1.243 . S
O559 Tb515 2.413 . S
O559 C579 1.256 . S
C560 O549 1.283 1_565 S
C560 O552 1.243 . S
C561 C563 1.382 1_545 S
C561 C565 1.392 . S
C561 C568 1.500 . S
C562 C563 1.400 . S
C562 C564 1.384 . S
C563 C561 1.382 1_565 S
C563 C562 1.400 . S
C563 H580 0.930 . S
C564 C562 1.384 . S
C564 C566 1.392 . S
C564 H581 0.931 . S
C565 C561 1.392 . S
C565 C566 1.385 1_545 S
C565 H582 0.948 . S
C566 C564 1.392 . S
C566 C565 1.385 1_565 S
C566 H583 0.930 . S
C567 O550 1.262 . S
C567 O551 1.260 . S
C568 Tb504 2.833 . S
C568 O548 1.251 . S
C568 O553 1.256 . S
C568 C561 1.500 . S
C569 H534 0.929 . S
C569 C547 1.444 . S
C569 C570 1.317 . S
C570 H532 0.930 . S
C570 C538 1.432 . S
C570 C569 1.317 . S
C571 O555 1.283 . S
C571 O558 1.243 . S
C572 C573 1.382 . S
C572 C576 1.393 . S
C572 C579 1.500 . S
C573 C572 1.382 . S
C573 C574 1.400 . S
C573 H584 0.930 . S
C574 C573 1.400 . S
C574 C575 1.384 . S
C575 C574 1.384 . S
C575 C577 1.392 . S
C575 H585 0.931 . S
C576 C572 1.393 . S
C576 C577 1.401 . S
C576 H586 0.930 . S
C577 C575 1.392 . S
C577 C576 1.401 . S
C577 H587 0.930 . S
C578 O556 1.262 . S
C578 O557 1.260 . S
C579 Tb515 2.833 . S
C579 O554 1.251 . S
C579 O559 1.256 . S
C579 C572 1.500 . S
H580 C563 0.930 . S
H581 C564 0.931 . S
H582 C565 0.948 . S
H583 C566 0.930 . S
H584 C573 0.930 . S
H585 C575 0.931 . S
H586 C576 0.930 . S
H587 C577 0.930 . S
Tb588 N619 2.660 . S
Tb588 N626 2.600 . S
Tb588 O632 2.546 . S
Tb588 O633 2.610 . S
Tb588 O635 2.320 . S
Tb588 O636 2.552 . S
Tb588 O637 2.413 . S
Tb588 O639 2.362 . S
Tb588 O640 2.421 . S
Tb588 C652 2.833 . S
C589 C592 1.432 . S
C589 C593 1.414 . S
C589 N596 1.359 . S
C590 C592 1.417 . S
C590 C594 1.432 . S
C590 C602 1.410 . S
C591 C593 1.444 . S
C591 C594 1.317 . S
C591 H614 0.929 . S
C592 C589 1.432 . S
C592 C590 1.417 . S
C592 N600 1.360 . S
C593 C589 1.414 . S
C593 C591 1.444 . S
C593 C598 1.385 . S
C594 C590 1.432 . S
C594 C591 1.317 . S
C594 H606 0.930 . S
C595 C597 1.392 . S
C595 C598 1.370 . S
C595 H607 0.931 . S
N596 C589 1.359 . S
N596 C597 1.327 . S
N596 Tb599 2.600 . S
C597 C595 1.392 . S
C597 N596 1.327 . S
C597 H604 0.930 . S
C598 C593 1.385 . S
C598 C595 1.370 . S
C598 H617 0.930 . S
Tb599 N596 2.600 . S
Tb599 N600 2.660 . S
Tb599 O633 2.362 . S
Tb599 O634 2.421 . S
Tb599 O638 2.546 . S
Tb599 O639 2.610 . S
Tb599 O641 2.320 . S
Tb599 O642 2.552 . S
Tb599 O643 2.413 . S
Tb599 C663 2.833 . S
N600 C592 1.360 . S
N600 Tb599 2.660 . S
N600 C601 1.305 . S
C601 N600 1.305 . S
C601 C603 1.407 . S
C601 H608 0.930 . S
C602 C590 1.410 . S
C602 C603 1.345 . S
C602 H610 0.930 . S
C603 C601 1.407 . S
C603 C602 1.345 . S
C603 H605 0.930 . S
H604 C597 0.930 . S
H605 C603 0.930 . S
H606 C594 0.930 . S
H607 C595 0.931 . S
H608 C601 0.930 . S
H609 C623 0.930 . S
H610 C602 0.930 . S
H611 C629 0.930 . S
H612 C620 0.930 . S
H613 C627 0.931 . S
H614 C591 0.929 . S
H615 C621 0.930 . S
H616 C654 0.930 . S
H617 C598 0.930 . S
H618 C653 0.929 . S
N619 Tb588 2.660 . S
N619 C620 1.305 . S
N619 C624 1.360 . S
C620 H612 0.930 . S
C620 N619 1.305 . S
C620 C623 1.407 . S
C621 H615 0.930 . S
C621 C622 1.410 . S
C621 C623 1.345 . S
C622 C621 1.410 . S
C622 C624 1.417 . S
C622 C654 1.432 . S
C623 H609 0.930 . S
C623 C620 1.407 . S
C623 C621 1.345 . S
C624 N619 1.360 . S
C624 C622 1.417 . S
C624 C628 1.432 . S
H625 C630 0.930 . S
N626 Tb588 2.600 . S
N626 C628 1.359 . S
N626 C629 1.327 . S
C627 H613 0.931 . S
C627 C629 1.392 . S
C627 C630 1.370 . S
C628 C624 1.432 . S
C628 N626 1.359 . S
C628 C631 1.414 . S
C629 H611 0.930 . S
C629 N626 1.327 . S
C629 C627 1.392 . S
C630 H625 0.930 . S
C630 C627 1.370 . S
C630 C631 1.385 . S
C631 C628 1.414 . S
C631 C630 1.385 . S
C631 C653 1.444 . S
O632 Tb588 2.546 . S
O632 C652 1.251 . S
O633 Tb588 2.610 . S
O633 Tb599 2.362 . S
O633 C644 1.283 . S
O634 Tb599 2.421 . S
O634 C651 1.262 . S
O635 Tb588 2.320 . S
O635 C651 1.260 . S
O636 Tb588 2.552 . S
O636 C644 1.243 . S
O637 Tb588 2.413 . S
O637 C652 1.256 . S
O638 Tb599 2.546 . S
O638 C663 1.251 . S
O639 Tb588 2.362 . S
O639 Tb599 2.610 . S
O639 C655 1.283 . S
O640 Tb588 2.421 . S
O640 C662 1.262 . S
O641 Tb599 2.320 . S
O641 C662 1.260 . S
O642 Tb599 2.552 . S
O642 C655 1.243 . S
O643 Tb599 2.413 . S
O643 C663 1.256 . S
C644 O633 1.283 . S
C644 O636 1.243 . S
C645 C647 1.382 . S
C645 C649 1.393 . S
C645 C652 1.500 . S
C646 C647 1.400 . S
C646 C648 1.384 . S
C647 C645 1.382 . S
C647 C646 1.400 . S
C647 H664 0.930 . S
C648 C646 1.384 . S
C648 C650 1.392 . S
C648 H665 0.931 . S
C649 C645 1.393 . S
C649 C650 1.401 . S
C649 H666 0.930 . S
C650 C648 1.392 . S
C650 C649 1.401 . S
C650 H667 0.930 . S
C651 O634 1.262 . S
C651 O635 1.260 . S
C652 Tb588 2.833 . S
C652 O632 1.251 . S
C652 O637 1.256 . S
C652 C645 1.500 . S
C653 H618 0.929 . S
C653 C631 1.444 . S
C653 C654 1.317 . S
C654 H616 0.930 . S
C654 C622 1.432 . S
C654 C653 1.317 . S
C655 O639 1.283 . S
C655 O642 1.243 . S
C656 C657 1.382 . S
C656 C660 1.393 . S
C656 C663 1.500 . S
C657 C656 1.382 . S
C657 C658 1.400 . S
C657 H668 0.930 . S
C658 C657 1.400 . S
C658 C659 1.384 . S
C659 C658 1.384 . S
C659 C661 1.392 . S
C659 H669 0.931 . S
C660 C656 1.393 . S
C660 C661 1.401 . S
C660 H670 0.930 . S
C661 C659 1.392 . S
C661 C660 1.401 . S
C661 H671 0.930 . S
C662 O640 1.262 . S
C662 O641 1.260 . S
C663 Tb599 2.833 . S
C663 O638 1.251 . S
C663 O643 1.256 . S
C663 C656 1.500 . S
H664 C647 0.930 . S
H665 C648 0.931 . S
H666 C649 0.930 . S
H667 C650 0.930 . S
H668 C657 0.930 . S
H669 C659 0.931 . S
H670 C660 0.930 . S
H671 C661 0.930 . S
Tb672 N703 2.660 . S
Tb672 N710 2.600 . S
Tb672 O716 2.546 . S
Tb672 O717 2.610 . S
Tb672 O719 2.320 . S
Tb672 O720 2.552 . S
Tb672 O721 2.413 . S
Tb672 O723 2.362 . S
Tb672 O724 2.421 . S
Tb672 C736 2.833 . S
C673 C676 1.432 . S
C673 C677 1.414 . S
C673 N680 1.359 . S
C674 C676 1.417 . S
C674 C678 1.432 . S
C674 C686 1.410 . S
C675 C677 1.444 . S
C675 C678 1.317 . S
C675 H698 0.929 . S
C676 C673 1.432 . S
C676 C674 1.417 . S
C676 N684 1.360 . S
C677 C673 1.414 . S
C677 C675 1.444 . S
C677 C682 1.385 . S
C678 C674 1.432 . S
C678 C675 1.317 . S
C678 H690 0.930 . S
C679 C681 1.392 . S
C679 C682 1.370 . S
C679 H691 0.931 . S
N680 C673 1.359 . S
N680 C681 1.327 . S
N680 Tb683 2.604 . S
C681 C679 1.392 . S
C681 N680 1.327 . S
C681 H688 0.930 . S
C682 C677 1.385 . S
C682 C679 1.370 . S
C682 H701 0.930 . S
Tb683 N680 2.604 . S
Tb683 N684 2.662 . S
Tb683 O717 2.347 1_565 S
Tb683 O718 2.412 1_565 S
Tb683 O722 2.559 . S
Tb683 O723 2.600 1_565 S
Tb683 O725 2.325 . S
Tb683 O726 2.555 1_565 S
Tb683 O727 2.428 . S
Tb683 C747 2.849 . S
N684 C676 1.360 . S
N684 Tb683 2.662 . S
N684 C685 1.305 . S
C685 N684 1.305 . S
C685 C687 1.407 . S
C685 H692 0.930 . S
C686 C674 1.410 . S
C686 C687 1.345 . S
C686 H694 0.930 . S
C687 C685 1.407 . S
C687 C686 1.345 . S
C687 H689 0.930 1_455 S
H688 C681 0.930 . S
H689 C687 0.930 1_655 S
H690 C678 0.930 . S
H691 C679 0.931 . S
H692 C685 0.930 . S
H693 C707 0.930 . S
H694 C686 0.930 . S
H695 C713 0.930 . S
H696 C704 0.930 . S
H697 C711 0.931 1_655 S
H698 C675 0.929 . S
H699 C705 0.930 . S
H700 C738 0.930 . S
H701 C682 0.930 . S
H702 C737 0.929 . S
N703 Tb672 2.660 . S
N703 C704 1.305 . S
N703 C708 1.360 . S
C704 H696 0.930 . S
C704 N703 1.305 . S
C704 C707 1.407 . S
C705 H699 0.930 . S
C705 C706 1.410 . S
C705 C707 1.345 . S
C706 C705 1.410 . S
C706 C708 1.417 . S
C706 C738 1.432 . S
C707 H693 0.930 . S
C707 C704 1.407 . S
C707 C705 1.345 . S
C708 N703 1.360 . S
C708 C706 1.417 . S
C708 C712 1.432 . S
H709 C714 0.930 . S
N710 Tb672 2.600 . S
N710 C712 1.359 . S
N710 C713 1.327 . S
C711 H697 0.931 1_455 S
C711 C713 1.392 . S
C711 C714 1.370 . S
C712 C708 1.432 . S
C712 N710 1.359 . S
C712 C715 1.414 . S
C713 H695 0.930 . S
C713 N710 1.327 . S
C713 C711 1.392 . S
C714 H709 0.930 . S
C714 C711 1.370 . S
C714 C715 1.385 . S
C715 C712 1.414 . S
C715 C714 1.385 . S
C715 C737 1.444 . S
O716 Tb672 2.546 . S
O716 C736 1.251 . S
O717 Tb672 2.610 . S
O717 Tb683 2.347 1_545 S
O717 C728 1.283 . S
O718 Tb683 2.412 1_545 S
O718 C735 1.262 . S
O719 Tb672 2.320 . S
O719 C735 1.260 . S
O720 Tb672 2.552 . S
O720 C728 1.243 . S
O721 Tb672 2.413 . S
O721 C736 1.256 . S
O722 Tb683 2.559 . S
O722 C747 1.251 . S
O723 Tb672 2.362 . S
O723 Tb683 2.600 1_545 S
O723 C739 1.283 . S
O724 Tb672 2.421 . S
O724 C746 1.262 . S
O725 Tb683 2.325 . S
O725 C746 1.232 1_565 S
O726 Tb683 2.555 1_545 S
O726 C739 1.243 . S
O727 Tb683 2.428 . S
O727 C747 1.256 . S
C728 O717 1.283 . S
C728 O720 1.243 . S
C729 C731 1.382 . S
C729 C733 1.393 . S
C729 C736 1.500 . S
C730 C731 1.400 . S
C730 C732 1.384 . S
C731 C729 1.382 . S
C731 C730 1.400 . S
C731 H748 0.930 . S
C732 C730 1.384 . S
C732 C734 1.392 . S
C732 H749 0.931 . S
C733 C729 1.393 . S
C733 C734 1.401 . S
C733 H750 0.930 . S
C734 C732 1.392 . S
C734 C733 1.401 . S
C734 H751 0.930 . S
C735 O718 1.262 . S
C735 O719 1.260 . S
C736 Tb672 2.833 . S
C736 O716 1.251 . S
C736 O721 1.256 . S
C736 C729 1.500 . S
C737 H702 0.929 . S
C737 C715 1.444 . S
C737 C738 1.317 . S
C738 H700 0.930 . S
C738 C706 1.432 . S
C738 C737 1.317 . S
C739 O723 1.283 . S
C739 O726 1.243 . S
C740 C741 1.382 . S
C740 C744 1.393 . S
C740 C747 1.500 . S
C741 C740 1.382 . S
C741 C742 1.400 . S
C741 H752 0.930 . S
C742 C741 1.400 . S
C742 C743 1.384 . S
C743 C742 1.384 . S
C743 C745 1.392 . S
C743 H753 0.931 . S
C744 C740 1.393 . S
C744 C745 1.401 . S
C744 H754 0.930 . S
C745 C743 1.392 . S
C745 C744 1.401 . S
C745 H755 0.930 . S
C746 O724 1.262 . S
C746 O725 1.232 1_545 S
C747 Tb683 2.849 . S
C747 O722 1.251 . S
C747 O727 1.256 . S
C747 C740 1.500 . S
H748 C731 0.930 . S
H749 C732 0.931 . S
H750 C733 0.930 . S
H751 C734 0.930 . S
H752 C741 0.930 . S
H753 C743 0.931 . S
H754 C744 0.930 . S
H755 C745 0.930 . S
Tb756 N787 2.660 . S
Tb756 N794 2.600 . S
Tb756 O800 2.546 . S
Tb756 O801 2.610 . S
Tb756 O803 2.320 . S
Tb756 O804 2.552 . S
Tb756 O805 2.413 . S
Tb756 O807 2.362 . S
Tb756 O808 2.421 . S
Tb756 C820 2.833 . S
C757 C760 1.432 . S
C757 C761 1.414 . S
C757 N764 1.359 . S
C758 C760 1.417 . S
C758 C762 1.432 . S
C758 C770 1.410 . S
C759 C761 1.444 . S
C759 C762 1.317 . S
C759 H782 0.929 . S
C760 C757 1.432 . S
C760 C758 1.417 . S
C760 N768 1.360 . S
C761 C757 1.414 . S
C761 C759 1.444 . S
C761 C766 1.385 . S
C762 C758 1.432 . S
C762 C759 1.317 . S
C762 H774 0.930 . S
C763 C765 1.392 . S
C763 C766 1.370 . S
C763 H775 0.931 . S
N764 C757 1.359 . S
N764 C765 1.327 . S
N764 Tb767 2.600 . S
C765 C763 1.392 . S
C765 N764 1.327 . S
C765 H772 0.930 . S
C766 C761 1.385 . S
C766 C763 1.370 . S
C766 H785 0.930 . S
Tb767 N764 2.600 . S
Tb767 N768 2.660 . S
Tb767 O801 2.362 . S
Tb767 O802 2.421 . S
Tb767 O806 2.546 . S
Tb767 O807 2.610 . S
Tb767 O809 2.320 . S
Tb767 O810 2.552 . S
Tb767 O811 2.413 . S
Tb767 C831 2.833 . S
N768 C760 1.360 . S
N768 Tb767 2.660 . S
N768 C769 1.305 . S
C769 N768 1.305 . S
C769 C771 1.407 . S
C769 H776 0.930 . S
C770 C758 1.410 . S
C770 C771 1.345 . S
C770 H778 0.930 . S
C771 C769 1.407 . S
C771 C770 1.345 . S
C771 H773 0.930 . S
H772 C765 0.930 . S
H773 C771 0.930 . S
H774 C762 0.930 . S
H775 C763 0.931 . S
H776 C769 0.930 . S
H777 C791 0.930 . S
H778 C770 0.930 . S
H779 C797 0.930 . S
H780 C788 0.930 . S
H781 C795 0.931 . S
H782 C759 0.929 . S
H783 C789 0.930 . S
H784 C822 0.930 . S
H785 C766 0.930 . S
H786 C821 0.929 . S
N787 Tb756 2.660 . S
N787 C788 1.305 . S
N787 C792 1.360 . S
C788 H780 0.930 . S
C788 N787 1.305 . S
C788 C791 1.407 . S
C789 H783 0.930 . S
C789 C790 1.410 . S
C789 C791 1.345 . S
C790 C789 1.410 . S
C790 C792 1.417 . S
C790 C822 1.432 . S
C791 H777 0.930 . S
C791 C788 1.407 . S
C791 C789 1.345 . S
C792 N787 1.360 . S
C792 C790 1.417 . S
C792 C796 1.432 . S
H793 C798 0.930 . S
N794 Tb756 2.600 . S
N794 C796 1.359 . S
N794 C797 1.327 . S
C795 H781 0.931 . S
C795 C797 1.392 . S
C795 C798 1.370 . S
C796 C792 1.432 . S
C796 N794 1.359 . S
C796 C799 1.414 . S
C797 H779 0.930 . S
C797 N794 1.327 . S
C797 C795 1.392 . S
C798 H793 0.930 . S
C798 C795 1.370 . S
C798 C799 1.385 . S
C799 C796 1.414 . S
C799 C798 1.385 . S
C799 C821 1.444 . S
O800 Tb756 2.546 . S
O800 C820 1.251 . S
O801 Tb756 2.610 . S
O801 Tb767 2.362 . S
O801 C812 1.283 . S
O802 Tb767 2.421 . S
O802 C819 1.262 . S
O803 Tb756 2.320 . S
O803 C819 1.260 . S
O804 Tb756 2.552 . S
O804 C812 1.243 . S
O805 Tb756 2.413 . S
O805 C820 1.256 . S
O806 Tb767 2.546 . S
O806 C831 1.251 . S
O807 Tb756 2.362 . S
O807 Tb767 2.610 . S
O807 C823 1.283 . S
O808 Tb756 2.421 . S
O808 C830 1.262 . S
O809 Tb767 2.320 . S
O809 C830 1.260 . S
O810 Tb767 2.552 . S
O810 C823 1.243 . S
O811 Tb767 2.413 . S
O811 C831 1.256 . S
C812 O801 1.283 . S
C812 O804 1.243 . S
C813 C815 1.382 . S
C813 C817 1.393 . S
C813 C820 1.500 . S
C814 C815 1.400 . S
C814 C816 1.384 . S
C815 C813 1.382 . S
C815 C814 1.400 . S
C815 H832 0.930 . S
C816 C814 1.384 . S
C816 C818 1.392 . S
C816 H833 0.931 . S
C817 C813 1.393 . S
C817 C818 1.401 . S
C817 H834 0.930 . S
C818 C816 1.392 . S
C818 C817 1.401 . S
C818 H835 0.930 . S
C819 O802 1.262 . S
C819 O803 1.260 . S
C820 Tb756 2.833 . S
C820 O800 1.251 . S
C820 O805 1.256 . S
C820 C813 1.500 . S
C821 H786 0.929 . S
C821 C799 1.444 . S
C821 C822 1.317 . S
C822 H784 0.930 . S
C822 C790 1.432 . S
C822 C821 1.317 . S
C823 O807 1.283 . S
C823 O810 1.243 . S
C824 C825 1.382 . S
C824 C828 1.393 . S
C824 C831 1.500 . S
C825 C824 1.382 . S
C825 C826 1.400 . S
C825 H836 0.930 . S
C826 C825 1.400 . S
C826 C827 1.384 . S
C827 C826 1.384 . S
C827 C829 1.392 . S
C827 H837 0.931 . S
C828 C824 1.393 . S
C828 C829 1.401 . S
C828 H838 0.930 . S
C829 C827 1.392 . S
C829 C828 1.401 . S
C829 H839 0.930 . S
C830 O808 1.262 . S
C830 O809 1.260 . S
C831 Tb767 2.833 . S
C831 O806 1.251 . S
C831 O811 1.256 . S
C831 C824 1.500 . S
H832 C815 0.930 . S
H833 C816 0.931 . S
H834 C817 0.930 . S
H835 C818 0.930 . S
H836 C825 0.930 . S
H837 C827 0.931 . S
H838 C828 0.930 . S
H839 C829 0.930 . S
Tb840 N871 2.660 . S
Tb840 N878 2.600 . S
Tb840 O884 2.546 1_545 S
Tb840 O885 2.610 . S
Tb840 O887 2.320 . S
Tb840 O888 2.552 . S
Tb840 O889 2.413 . S
Tb840 O891 2.362 . S
Tb840 O892 2.421 1_545 S
Tb840 C904 2.833 . S
C841 C844 1.432 . S
C841 C845 1.414 . S
C841 N848 1.359 . S
C842 C844 1.417 . S
C842 C846 1.432 . S
C842 C854 1.410 1_545 S
C843 C845 1.444 . S
C843 C846 1.317 . S
C843 H866 0.929 . S
C844 C841 1.432 . S
C844 C842 1.417 . S
C844 N852 1.360 . S
C845 C841 1.414 . S
C845 C843 1.444 . S
C845 C850 1.385 . S
C846 C842 1.432 . S
C846 C843 1.317 . S
C846 H858 0.930 . S
C847 C849 1.392 . S
C847 C850 1.370 . S
C847 H859 0.931 . S
N848 C841 1.359 . S
N848 C849 1.327 . S
N848 Tb851 2.600 . S
C849 C847 1.392 . S
C849 N848 1.327 . S
C849 H856 0.930 . S
C850 C845 1.385 . S
C850 C847 1.370 . S
C850 H869 0.930 . S
Tb851 N848 2.600 . S
Tb851 N852 2.660 . S
Tb851 O885 2.362 1_556 S
Tb851 O886 2.421 1_556 S
Tb851 O890 2.546 . S
Tb851 O891 2.610 1_556 S
Tb851 O893 2.320 . S
Tb851 O894 2.552 . S
Tb851 O895 2.413 . S
Tb851 C915 2.833 . S
N852 C844 1.360 . S
N852 Tb851 2.660 . S
N852 C853 1.305 1_545 S
C853 N852 1.305 1_565 S
C853 C855 1.407 . S
C853 H860 0.930 . S
C854 C842 1.410 1_565 S
C854 C855 1.345 . S
C854 H862 0.930 . S
C855 C853 1.407 . S
C855 C854 1.345 . S
C855 H857 0.930 . S
H856 C849 0.930 . S
H857 C855 0.930 . S
H858 C846 0.930 . S
H859 C847 0.931 . S
H860 C853 0.930 . S
H861 C875 0.930 . S
H862 C854 0.930 . S
H863 C881 0.930 . S
H864 C872 0.930 . S
H865 C879 0.931 . S
H866 C843 0.929 . S
H867 C873 0.930 . S
H868 C906 0.930 . S
H869 C850 0.930 . S
H870 C905 0.929 . S
N871 Tb840 2.660 . S
N871 C872 1.305 . S
N871 C876 1.360 . S
C872 H864 0.930 . S
C872 N871 1.305 . S
C872 C875 1.407 . S
C873 H867 0.930 . S
C873 C874 1.410 . S
C873 C875 1.345 . S
C874 C873 1.410 . S
C874 C876 1.417 . S
C874 C906 1.432 . S
C875 H861 0.930 . S
C875 C872 1.407 . S
C875 C873 1.345 . S
C876 N871 1.360 . S
C876 C874 1.417 . S
C876 C880 1.432 . S
H877 C882 0.930 . S
N878 Tb840 2.600 . S
N878 C880 1.359 . S
N878 C881 1.327 1_545 S
C879 H865 0.931 . S
C879 C881 1.392 . S
C879 C882 1.370 . S
C880 C876 1.432 . S
C880 N878 1.359 . S
C880 C883 1.414 . S
C881 H863 0.930 . S
C881 N878 1.327 1_565 S
C881 C879 1.392 . S
C882 H877 0.930 . S
C882 C879 1.370 . S
C882 C883 1.385 1_565 S
C883 C880 1.414 . S
C883 C882 1.385 1_545 S
C883 C905 1.444 . S
O884 Tb840 2.546 1_565 S
O884 C904 1.251 1_565 S
O885 Tb840 2.610 . S
O885 Tb851 2.362 1_554 S
O885 C896 1.283 . S
O886 Tb851 2.421 1_554 S
O886 C903 1.262 . S
O887 Tb840 2.320 . S
O887 C903 1.260 . S
O888 Tb840 2.552 . S
O888 C896 1.243 . S
O889 Tb840 2.413 . S
O889 C904 1.256 . S
O890 Tb851 2.546 . S
O890 C915 1.251 . S
O891 Tb840 2.362 . S
O891 Tb851 2.610 1_554 S
O891 C907 1.283 . S
O892 Tb840 2.421 1_565 S
O892 C914 1.262 1_554 S
O893 Tb851 2.320 . S
O893 C914 1.260 1_545 S
O894 Tb851 2.552 . S
O894 C907 1.243 1_556 S
O895 Tb851 2.413 . S
O895 C915 1.256 . S
C896 O885 1.283 . S
C896 O888 1.243 . S
C897 C899 1.382 . S
C897 C901 1.393 1_545 S
C897 C904 1.500 . S
C898 C899 1.400 . S
C898 C900 1.384 1_545 S
C899 C897 1.382 . S
C899 C898 1.400 . S
C899 H916 0.930 . S
C900 C898 1.384 1_565 S
C900 C902 1.392 . S
C900 H917 0.931 . S
C901 C897 1.393 1_565 S
C901 C902 1.401 . S
C901 H918 0.930 . S
C902 C900 1.392 . S
C902 C901 1.401 . S
C902 H919 0.930 . S
C903 O886 1.262 . S
C903 O887 1.260 . S
C904 Tb840 2.833 . S
C904 O884 1.251 1_545 S
C904 O889 1.256 . S
C904 C897 1.500 . S
C905 H870 0.929 . S
C905 C883 1.444 . S
C905 C906 1.317 . S
C906 H868 0.930 . S
C906 C874 1.432 . S
C906 C905 1.317 . S
C907 O891 1.283 . S
C907 O894 1.243 1_554 S
C908 C909 1.382 . S
C908 C912 1.393 . S
C908 C915 1.500 . S
C909 C908 1.382 . S
C909 C910 1.400 . S
C909 H920 0.930 . S
C910 C909 1.400 . S
C910 C911 1.384 . S
C911 C910 1.384 . S
C911 C913 1.392 . S
C911 H921 0.931 . S
C912 C908 1.393 . S
C912 C913 1.401 . S
C912 H922 0.930 . S
C913 C911 1.392 . S
C913 C912 1.401 . S
C913 H923 0.930 . S
C914 O892 1.262 1_556 S
C914 O893 1.260 1_565 S
C915 Tb851 2.833 . S
C915 O890 1.251 . S
C915 O895 1.256 . S
C915 C908 1.500 . S
H916 C899 0.930 . S
H917 C900 0.931 . S
H918 C901 0.930 . S
H919 C902 0.930 . S
H920 C909 0.930 . S
H921 C911 0.931 . S
H922 C912 0.930 . S
H923 C913 0.930 . S
Tb924 N955 2.660 . S
Tb924 N962 2.600 . S
Tb924 O968 2.546 . S
Tb924 O969 2.610 . S
Tb924 O971 2.320 . S
Tb924 O972 2.552 . S
Tb924 O973 2.413 . S
Tb924 O975 2.362 . S
Tb924 O976 2.421 . S
Tb924 C988 2.833 . S
C925 C928 1.432 . S
C925 C929 1.414 . S
C925 N932 1.359 . S
C926 C928 1.417 . S
C926 C930 1.432 . S
C926 C938 1.410 . S
C927 C929 1.444 . S
C927 C930 1.317 . S
C927 H950 0.929 . S
C928 C925 1.432 . S
C928 C926 1.417 . S
C928 N936 1.360 . S
C929 C925 1.414 . S
C929 C927 1.444 . S
C929 C934 1.385 . S
C930 C926 1.432 . S
C930 C927 1.317 . S
C930 H942 0.930 . S
C931 C933 1.392 . S
C931 C934 1.370 . S
C931 H943 0.931 . S
N932 C925 1.359 . S
N932 C933 1.327 . S
N932 Tb935 2.600 . S
C933 C931 1.392 . S
C933 N932 1.327 . S
C933 H940 0.930 . S
C934 C929 1.385 . S
C934 C931 1.370 . S
C934 H953 0.930 . S
Tb935 N932 2.600 . S
Tb935 N936 2.660 . S
Tb935 O969 2.362 . S
Tb935 O970 2.421 . S
Tb935 O974 2.546 . S
Tb935 O975 2.610 . S
Tb935 O977 2.320 . S
Tb935 O978 2.552 . S
Tb935 O979 2.413 . S
Tb935 C999 2.833 . S
N936 C928 1.360 . S
N936 Tb935 2.660 . S
N936 C937 1.305 . S
C937 N936 1.305 . S
C937 C939 1.407 . S
C937 H944 0.930 . S
C938 C926 1.410 . S
C938 C939 1.345 . S
C938 H946 0.930 . S
C939 C937 1.407 . S
C939 C938 1.345 . S
C939 H941 0.930 . S
H940 C933 0.930 . S
H941 C939 0.930 . S
H942 C930 0.930 . S
H943 C931 0.931 . S
H944 C937 0.930 . S
H945 C959 0.930 . S
H946 C938 0.930 . S
H947 C965 0.930 . S
H948 C956 0.930 . S
H949 C963 0.931 . S
H950 C927 0.929 . S
H951 C957 0.930 . S
H952 C990 0.930 . S
H953 C934 0.930 . S
H954 C989 0.929 . S
N955 Tb924 2.660 . S
N955 C956 1.305 . S
N955 C960 1.360 . S
C956 H948 0.930 . S
C956 N955 1.305 . S
C956 C959 1.407 . S
C957 H951 0.930 . S
C957 C958 1.410 . S
C957 C959 1.345 . S
C958 C957 1.410 . S
C958 C960 1.417 . S
C958 C990 1.432 . S
C959 H945 0.930 . S
C959 C956 1.407 . S
C959 C957 1.345 . S
C960 N955 1.360 . S
C960 C958 1.417 . S
C960 C964 1.432 . S
H961 C966 0.930 . S
N962 Tb924 2.600 . S
N962 C964 1.359 . S
N962 C965 1.327 . S
C963 H949 0.931 . S
C963 C965 1.392 . S
C963 C966 1.370 . S
C964 C960 1.432 . S
C964 N962 1.359 . S
C964 C967 1.414 . S
C965 H947 0.930 . S
C965 N962 1.327 . S
C965 C963 1.392 . S
C966 H961 0.930 . S
C966 C963 1.370 . S
C966 C967 1.385 . S
C967 C964 1.414 . S
C967 C966 1.385 . S
C967 C989 1.444 . S
O968 Tb924 2.546 . S
O968 C988 1.251 . S
O969 Tb924 2.610 . S
O969 Tb935 2.362 . S
O969 C980 1.283 . S
O970 Tb935 2.421 . S
O970 C987 1.262 . S
O971 Tb924 2.320 . S
O971 C987 1.260 . S
O972 Tb924 2.552 . S
O972 C980 1.243 . S
O973 Tb924 2.413 . S
O973 C988 1.256 . S
O974 Tb935 2.546 . S
O974 C999 1.251 . S
O975 Tb924 2.362 . S
O975 Tb935 2.610 . S
O975 C991 1.283 . S
O976 Tb924 2.421 . S
O976 C998 1.262 . S
O977 Tb935 2.320 . S
O977 C998 1.260 . S
O978 Tb935 2.552 . S
O978 C991 1.243 . S
O979 Tb935 2.413 . S
O979 C999 1.256 . S
C980 O969 1.283 . S
C980 O972 1.243 . S
C981 C983 1.382 . S
C981 C985 1.393 . S
C981 C988 1.500 . S
C982 C983 1.400 . S
C982 C984 1.384 . S
C983 C981 1.382 . S
C983 C982 1.400 . S
C983 H1000 0.930 . S
C984 C982 1.384 . S
C984 C986 1.392 . S
C984 H1001 0.931 . S
C985 C981 1.393 . S
C985 C986 1.401 . S
C985 H1002 0.930 . S
C986 C984 1.392 . S
C986 C985 1.401 . S
C986 H1003 0.930 . S
C987 O970 1.262 . S
C987 O971 1.260 . S
C988 Tb924 2.833 . S
C988 O968 1.251 . S
C988 O973 1.256 . S
C988 C981 1.500 . S
C989 H954 0.929 . S
C989 C967 1.444 . S
C989 C990 1.317 . S
C990 H952 0.930 . S
C990 C958 1.432 . S
C990 C989 1.317 . S
C991 O975 1.283 . S
C991 O978 1.243 . S
C992 C993 1.382 . S
C992 C996 1.393 . S
C992 C999 1.500 . S
C993 C992 1.382 . S
C993 C994 1.400 . S
C993 H1004 0.930 . S
C994 C993 1.400 . S
C994 C995 1.384 . S
C995 C994 1.384 . S
C995 C997 1.392 . S
C995 H1005 0.931 . S
C996 C992 1.393 . S
C996 C997 1.401 . S
C996 H1006 0.930 . S
C997 C995 1.392 . S
C997 C996 1.401 . S
C997 H1007 0.930 . S
C998 O976 1.262 . S
C998 O977 1.260 . S
C999 Tb935 2.833 . S
C999 O974 1.251 . S
C999 O979 1.256 . S
C999 C992 1.500 . S
H1000 C983 0.930 . S
H1001 C984 0.931 . S
H1002 C985 0.930 . S
H1003 C986 0.930 . S
H1004 C993 0.930 . S
H1005 C995 0.931 . S
H1006 C996 0.930 . S
H1007 C997 0.930 . S
Tb1008 N1039 2.660 . S
Tb1008 N1046 2.600 . S
Tb1008 O1052 2.546 . S
Tb1008 O1053 2.610 1_554 S
Tb1008 O1055 2.320 . S
Tb1008 O1056 2.552 1_554 S
Tb1008 O1057 2.413 . S
Tb1008 O1059 2.362 . S
Tb1008 O1060 2.421 . S
Tb1008 C1072 2.833 . S
C1009 C1012 1.432 . S
C1009 C1013 1.414 . S
C1009 N1016 1.359 . S
C1010 C1012 1.417 . S
C1010 C1014 1.432 . S
C1010 C1022 1.410 . S
C1011 C1013 1.444 . S
C1011 C1014 1.317 . S
C1011 H1034 0.929 . S
C1012 C1009 1.432 . S
C1012 C1010 1.417 . S
C1012 N1020 1.360 . S
C1013 C1009 1.414 . S
C1013 C1011 1.444 . S
C1013 C1018 1.385 . S
C1014 C1010 1.432 . S
C1014 C1011 1.317 . S
C1014 H1026 0.930 . S
C1015 C1017 1.392 . S
C1015 C1018 1.370 . S
C1015 H1027 0.931 . S
N1016 C1009 1.359 . S
N1016 C1017 1.327 . S
N1016 Tb1019 2.600 1_556 S
C1017 C1015 1.392 . S
C1017 N1016 1.327 . S
C1017 H1024 0.930 . S
C1018 C1013 1.385 . S
C1018 C1015 1.370 . S
C1018 H1037 0.930 . S
Tb1019 N1016 2.600 1_554 S
Tb1019 N1020 2.660 1_554 S
Tb1019 O1053 2.362 1_554 S
Tb1019 O1054 2.421 . S
Tb1019 O1058 2.546 . S
Tb1019 O1059 2.610 . S
Tb1019 O1061 2.320 . S
Tb1019 O1062 2.552 . S
Tb1019 O1063 2.413 . S
Tb1019 C1083 2.833 . S
N1020 C1012 1.360 . S
N1020 Tb1019 2.660 1_556 S
N1020 C1021 1.305 . S
C1021 N1020 1.305 . S
C1021 C1023 1.407 . S
C1021 H1028 0.930 . S
C1022 C1010 1.410 . S
C1022 C1023 1.345 . S
C1022 H1030 0.930 . S
C1023 C1021 1.407 . S
C1023 C1022 1.345 . S
C1023 H1025 0.930 . S
H1024 C1017 0.930 . S
H1025 C1023 0.930 . S
H1026 C1014 0.930 . S
H1027 C1015 0.931 . S
H1028 C1021 0.930 . S
H1029 C1043 0.930 . S
H1030 C1022 0.930 . S
H1031 C1049 0.930 . S
H1032 C1040 0.930 . S
H1033 C1047 0.931 . S
H1034 C1011 0.929 . S
H1035 C1041 0.930 . S
H1036 C1074 0.930 . S
H1037 C1018 0.930 . S
H1038 C1073 0.929 . S
N1039 Tb1008 2.660 . S
N1039 C1040 1.305 . S
N1039 C1044 1.360 . S
C1040 H1032 0.930 . S
C1040 N1039 1.305 . S
C1040 C1043 1.407 . S
C1041 H1035 0.930 . S
C1041 C1042 1.410 . S
C1041 C1043 1.345 . S
C1042 C1041 1.410 . S
C1042 C1044 1.417 . S
C1042 C1074 1.432 . S
C1043 H1029 0.930 . S
C1043 C1040 1.407 . S
C1043 C1041 1.345 . S
C1044 N1039 1.360 . S
C1044 C1042 1.417 . S
C1044 C1048 1.432 . S
H1045 C1050 0.930 . S
N1046 Tb1008 2.600 . S
N1046 C1048 1.359 . S
N1046 C1049 1.327 . S
C1047 H1033 0.931 . S
C1047 C1049 1.392 . S
C1047 C1050 1.370 . S
C1048 C1044 1.432 . S
C1048 N1046 1.359 . S
C1048 C1051 1.414 . S
C1049 H1031 0.930 . S
C1049 N1046 1.327 . S
C1049 C1047 1.392 . S
C1050 H1045 0.930 . S
C1050 C1047 1.370 . S
C1050 C1051 1.385 . S
C1051 C1048 1.414 . S
C1051 C1050 1.385 . S
C1051 C1073 1.444 . S
O1052 Tb1008 2.546 . S
O1052 C1072 1.251 . S
O1053 Tb1008 2.610 1_556 S
O1053 Tb1019 2.362 1_556 S
O1053 C1064 1.283 . S
O1054 Tb1019 2.421 . S
O1054 C1071 1.262 . S
O1055 Tb1008 2.320 . S
O1055 C1071 1.260 . S
O1056 Tb1008 2.552 1_556 S
O1056 C1064 1.243 . S
O1057 Tb1008 2.413 . S
O1057 C1072 1.256 . S
O1058 Tb1019 2.546 . S
O1058 C1083 1.251 . S
O1059 Tb1008 2.362 . S
O1059 Tb1019 2.610 . S
O1059 C1075 1.283 . S
O1060 Tb1008 2.421 . S
O1060 C1082 1.262 . S
O1061 Tb1019 2.320 . S
O1061 C1082 1.260 . S
O1062 Tb1019 2.552 . S
O1062 C1075 1.243 . S
O1063 Tb1019 2.413 . S
O1063 C1083 1.256 . S
C1064 O1053 1.283 . S
C1064 O1056 1.243 . S
C1065 C1067 1.382 . S
C1065 C1069 1.393 . S
C1065 C1072 1.500 . S
C1066 C1067 1.400 1_556 S
C1066 C1068 1.384 1_556 S
C1067 C1065 1.382 . S
C1067 C1066 1.400 1_554 S
C1067 H1084 0.930 1_554 S
C1068 C1066 1.384 1_554 S
C1068 C1070 1.392 . S
C1068 H1085 0.931 . S
C1069 C1065 1.393 . S
C1069 C1070 1.401 . S
C1069 H1086 0.930 . S
C1070 C1068 1.392 . S
C1070 C1069 1.401 . S
C1070 H1087 0.930 . S
C1071 O1054 1.262 . S
C1071 O1055 1.260 . S
C1072 Tb1008 2.833 . S
C1072 O1052 1.251 . S
C1072 O1057 1.256 . S
C1072 C1065 1.500 . S
C1073 H1038 0.929 . S
C1073 C1051 1.444 . S
C1073 C1074 1.317 . S
C1074 H1036 0.930 . S
C1074 C1042 1.432 . S
C1074 C1073 1.317 . S
C1075 O1059 1.283 . S
C1075 O1062 1.243 . S
C1076 C1077 1.382 . S
C1076 C1080 1.393 . S
C1076 C1083 1.500 . S
C1077 C1076 1.382 . S
C1077 C1078 1.400 . S
C1077 H1088 0.930 . S
C1078 C1077 1.400 . S
C1078 C1079 1.384 . S
C1079 C1078 1.384 . S
C1079 C1081 1.392 . S
C1079 H1089 0.931 . S
C1080 C1076 1.393 . S
C1080 C1081 1.401 . S
C1080 H1090 0.930 . S
C1081 C1079 1.392 . S
C1081 C1080 1.401 . S
C1081 H1091 0.930 . S
C1082 O1060 1.262 . S
C1082 O1061 1.260 . S
C1083 Tb1019 2.833 . S
C1083 O1058 1.251 . S
C1083 O1063 1.256 . S
C1083 C1076 1.500 . S
H1084 C1067 0.930 1_556 S
H1085 C1068 0.931 . S
H1086 C1069 0.930 . S
H1087 C1070 0.930 . S
H1088 C1077 0.930 . S
H1089 C1079 0.931 . S
H1090 C1080 0.930 . S
H1091 C1081 0.930 . S
Tb1092 N1123 2.660 . S
Tb1092 N1130 2.600 . S
Tb1092 O1136 2.546 . S
Tb1092 O1137 2.610 . S
Tb1092 O1139 2.320 . S
Tb1092 O1140 2.552 . S
Tb1092 O1141 2.413 . S
Tb1092 O1143 2.362 . S
Tb1092 O1144 2.421 . S
Tb1092 C1156 2.833 . S
C1093 C1096 1.432 . S
C1093 C1097 1.414 . S
C1093 N1100 1.359 . S
C1094 C1096 1.417 . S
C1094 C1098 1.432 . S
C1094 C1106 1.410 . S
C1095 C1097 1.444 . S
C1095 C1098 1.317 . S
C1095 H1118 0.929 . S
C1096 C1093 1.432 . S
C1096 C1094 1.417 . S
C1096 N1104 1.360 . S
C1097 C1093 1.414 . S
C1097 C1095 1.444 . S
C1097 C1102 1.385 . S
C1098 C1094 1.432 . S
C1098 C1095 1.317 . S
C1098 H1110 0.930 . S
C1099 C1101 1.392 . S
C1099 C1102 1.370 . S
C1099 H1111 0.931 . S
N1100 C1093 1.359 . S
N1100 C1101 1.327 . S
N1100 Tb1103 2.600 . S
C1101 C1099 1.392 . S
C1101 N1100 1.327 . S
C1101 H1108 0.930 . S
C1102 C1097 1.385 . S
C1102 C1099 1.370 . S
C1102 H1121 0.930 . S
Tb1103 N1100 2.600 . S
Tb1103 N1104 2.660 . S
Tb1103 O1137 2.362 . S
Tb1103 O1138 2.421 . S
Tb1103 O1142 2.546 . S
Tb1103 O1143 2.610 . S
Tb1103 O1145 2.320 . S
Tb1103 O1146 2.552 . S
Tb1103 O1147 2.413 . S
Tb1103 C1167 2.833 . S
N1104 C1096 1.360 . S
N1104 Tb1103 2.660 . S
N1104 C1105 1.305 . S
C1105 N1104 1.305 . S
C1105 C1107 1.407 . S
C1105 H1112 0.930 . S
C1106 C1094 1.410 . S
C1106 C1107 1.345 . S
C1106 H1114 0.930 . S
C1107 C1105 1.407 . S
C1107 C1106 1.345 . S
C1107 H1109 0.930 . S
H1108 C1101 0.930 . S
H1109 C1107 0.930 . S
H1110 C1098 0.930 . S
H1111 C1099 0.931 . S
H1112 C1105 0.930 . S
H1113 C1127 0.930 . S
H1114 C1106 0.930 . S
H1115 C1133 0.930 . S
H1116 C1124 0.930 . S
H1117 C1131 0.931 . S
H1118 C1095 0.929 . S
H1119 C1125 0.930 . S
H1120 C1158 0.930 . S
H1121 C1102 0.930 . S
H1122 C1157 0.929 . S
N1123 Tb1092 2.660 . S
N1123 C1124 1.305 . S
N1123 C1128 1.360 . S
C1124 H1116 0.930 . S
C1124 N1123 1.305 . S
C1124 C1127 1.407 . S
C1125 H1119 0.930 . S
C1125 C1126 1.410 . S
C1125 C1127 1.345 . S
C1126 C1125 1.410 . S
C1126 C1128 1.417 . S
C1126 C1158 1.432 . S
C1127 H1113 0.930 . S
C1127 C1124 1.407 . S
C1127 C1125 1.345 . S
C1128 N1123 1.360 . S
C1128 C1126 1.417 . S
C1128 C1132 1.432 . S
H1129 C1134 0.930 . S
N1130 Tb1092 2.600 . S
N1130 C1132 1.359 . S
N1130 C1133 1.327 . S
C1131 H1117 0.931 . S
C1131 C1133 1.392 . S
C1131 C1134 1.370 . S
C1132 C1128 1.432 . S
C1132 N1130 1.359 . S
C1132 C1135 1.414 . S
C1133 H1115 0.930 . S
C1133 N1130 1.327 . S
C1133 C1131 1.392 . S
C1134 H1129 0.930 . S
C1134 C1131 1.370 . S
C1134 C1135 1.385 . S
C1135 C1132 1.414 . S
C1135 C1134 1.385 . S
C1135 C1157 1.444 . S
O1136 Tb1092 2.546 . S
O1136 C1156 1.251 . S
O1137 Tb1092 2.610 . S
O1137 Tb1103 2.362 . S
O1137 C1148 1.283 . S
O1138 Tb1103 2.421 . S
O1138 C1155 1.262 . S
O1139 Tb1092 2.320 . S
O1139 C1155 1.260 . S
O1140 Tb1092 2.552 . S
O1140 C1148 1.243 . S
O1141 Tb1092 2.413 . S
O1141 C1156 1.256 . S
O1142 Tb1103 2.546 . S
O1142 C1167 1.251 . S
O1143 Tb1092 2.362 . S
O1143 Tb1103 2.610 . S
O1143 C1159 1.283 . S
O1144 Tb1092 2.421 . S
O1144 C1166 1.262 . S
O1145 Tb1103 2.320 . S
O1145 C1166 1.260 . S
O1146 Tb1103 2.552 . S
O1146 C1159 1.243 . S
O1147 Tb1103 2.413 . S
O1147 C1167 1.256 . S
C1148 O1137 1.283 . S
C1148 O1140 1.243 . S
C1149 C1151 1.382 . S
C1149 C1153 1.393 . S
C1149 C1156 1.500 . S
C1150 C1151 1.400 . S
C1150 C1152 1.384 . S
C1151 C1149 1.382 . S
C1151 C1150 1.400 . S
C1151 H1168 0.930 . S
C1152 C1150 1.384 . S
C1152 C1154 1.392 . S
C1152 H1169 0.931 . S
C1153 C1149 1.393 . S
C1153 C1154 1.401 . S
C1153 H1170 0.930 . S
C1154 C1152 1.392 . S
C1154 C1153 1.401 . S
C1154 H1171 0.930 . S
C1155 O1138 1.262 . S
C1155 O1139 1.260 . S
C1156 Tb1092 2.833 . S
C1156 O1136 1.251 . S
C1156 O1141 1.256 . S
C1156 C1149 1.500 . S
C1157 H1122 0.929 . S
C1157 C1135 1.444 . S
C1157 C1158 1.317 . S
C1158 H1120 0.930 . S
C1158 C1126 1.432 . S
C1158 C1157 1.317 . S
C1159 O1143 1.283 . S
C1159 O1146 1.243 . S
C1160 C1161 1.382 . S
C1160 C1164 1.393 . S
C1160 C1167 1.500 . S
C1161 C1160 1.382 . S
C1161 C1162 1.400 . S
C1161 H1172 0.930 . S
C1162 C1161 1.400 . S
C1162 C1163 1.384 . S
C1163 C1162 1.384 . S
C1163 C1165 1.392 . S
C1163 H1173 0.931 . S
C1164 C1160 1.393 . S
C1164 C1165 1.401 . S
C1164 H1174 0.930 . S
C1165 C1163 1.392 . S
C1165 C1164 1.401 . S
C1165 H1175 0.930 . S
C1166 O1144 1.262 . S
C1166 O1145 1.260 . S
C1167 Tb1103 2.833 . S
C1167 O1142 1.251 . S
C1167 O1147 1.256 . S
C1167 C1160 1.500 . S
H1168 C1151 0.930 . S
H1169 C1152 0.931 . S
H1170 C1153 0.930 . S
H1171 C1154 0.930 . S
H1172 C1161 0.930 . S
H1173 C1163 0.931 . S
H1174 C1164 0.930 . S
H1175 C1165 0.930 . S
Tb1176 N1207 2.660 . S
Tb1176 N1214 2.600 . S
Tb1176 O1220 2.546 . S
Tb1176 O1221 2.610 . S
Tb1176 O1223 2.320 . S
Tb1176 O1224 2.552 . S
Tb1176 O1225 2.413 . S
Tb1176 O1227 2.362 . S
Tb1176 O1228 2.421 . S
Tb1176 C1240 2.833 . S
C1177 C1180 1.424 . S
C1177 C1181 1.414 1_455 S
C1177 N1184 1.359 . S
C1178 C1180 1.381 1_655 S
C1178 C1182 1.432 . S
C1178 C1190 1.410 . S
C1179 C1181 1.444 . S
C1179 C1182 1.317 . S
C1179 H1202 0.929 . S
C1180 C1177 1.424 . S
C1180 C1178 1.381 1_455 S
C1180 N1188 1.404 . S
C1181 C1177 1.414 1_655 S
C1181 C1179 1.444 . S
C1181 C1186 1.385 . S
C1182 C1178 1.432 . S
C1182 C1179 1.317 . S
C1182 H1194 0.930 . S
C1183 C1185 1.392 . S
C1183 C1186 1.370 1_455 S
C1183 H1195 0.931 . S
N1184 C1177 1.359 . S
N1184 C1185 1.327 . S
N1184 Tb1187 2.600 . S
C1185 C1183 1.392 . S
C1185 N1184 1.327 . S
C1185 H1192 0.930 . S
C1186 C1181 1.385 . S
C1186 C1183 1.370 1_655 S
C1186 H1205 0.930 . S
Tb1187 N1184 2.600 . S
Tb1187 N1188 2.660 . S
Tb1187 O1221 2.362 . S
Tb1187 O1222 2.421 . S
Tb1187 O1226 2.546 . S
Tb1187 O1227 2.610 . S
Tb1187 O1229 2.320 . S
Tb1187 O1230 2.552 . S
Tb1187 O1231 2.413 . S
Tb1187 C1251 2.833 . S
N1188 C1180 1.404 . S
N1188 Tb1187 2.660 . S
N1188 C1189 1.305 . S
C1189 N1188 1.305 . S
C1189 C1191 1.407 1_455 S
C1189 H1196 0.930 . S
C1190 C1178 1.410 . S
C1190 C1191 1.345 . S
C1190 H1198 0.930 . S
C1191 C1189 1.407 1_655 S
C1191 C1190 1.345 . S
C1191 H1193 0.930 . S
H1192 C1185 0.930 . S
H1193 C1191 0.930 . S
H1194 C1182 0.930 . S
H1195 C1183 0.931 . S
H1196 C1189 0.930 . S
H1197 C1211 0.930 . S
H1198 C1190 0.930 . S
H1199 C1217 0.930 . S
H1200 C1208 0.930 . S
H1201 C1215 0.931 . S
H1202 C1179 0.929 . S
H1203 C1209 0.930 . S
H1204 C1242 0.930 . S
H1205 C1186 0.930 . S
H1206 C1241 0.929 . S
N1207 Tb1176 2.660 . S
N1207 C1208 1.305 . S
N1207 C1212 1.360 . S
C1208 H1200 0.930 . S
C1208 N1207 1.305 . S
C1208 C1211 1.407 . S
C1209 H1203 0.930 . S
C1209 C1210 1.410 . S
C1209 C1211 1.345 . S
C1210 C1209 1.410 . S
C1210 C1212 1.417 . S
C1210 C1242 1.432 . S
C1211 H1197 0.930 . S
C1211 C1208 1.407 . S
C1211 C1209 1.345 . S
C1212 N1207 1.360 . S
C1212 C1210 1.417 . S
C1212 C1216 1.432 . S
H1213 C1218 0.930 . S
N1214 Tb1176 2.600 . S
N1214 C1216 1.359 . S
N1214 C1217 1.327 . S
C1215 H1201 0.931 . S
C1215 C1217 1.392 . S
C1215 C1218 1.370 . S
C1216 C1212 1.432 . S
C1216 N1214 1.359 . S
C1216 C1219 1.414 . S
C1217 H1199 0.930 . S
C1217 N1214 1.327 . S
C1217 C1215 1.392 . S
C1218 H1213 0.930 . S
C1218 C1215 1.370 . S
C1218 C1219 1.385 . S
C1219 C1216 1.414 . S
C1219 C1218 1.385 . S
C1219 C1241 1.444 . S
O1220 Tb1176 2.546 . S
O1220 C1240 1.251 . S
O1221 Tb1176 2.610 . S
O1221 Tb1187 2.362 . S
O1221 C1232 1.283 . S
O1222 Tb1187 2.421 . S
O1222 C1239 1.262 . S
O1223 Tb1176 2.320 . S
O1223 C1239 1.260 . S
O1224 Tb1176 2.552 . S
O1224 C1232 1.243 . S
O1225 Tb1176 2.413 . S
O1225 C1240 1.256 . S
O1226 Tb1187 2.546 . S
O1226 C1251 1.251 . S
O1227 Tb1176 2.362 . S
O1227 Tb1187 2.610 . S
O1227 C1243 1.283 . S
O1228 Tb1176 2.421 . S
O1228 C1250 1.262 . S
O1229 Tb1187 2.320 . S
O1229 C1250 1.260 . S
O1230 Tb1187 2.552 . S
O1230 C1243 1.243 . S
O1231 Tb1187 2.413 . S
O1231 C1251 1.256 . S
C1232 O1221 1.283 . S
C1232 O1224 1.243 . S
C1233 C1235 1.382 . S
C1233 C1237 1.393 . S
C1233 C1240 1.500 . S
C1234 C1235 1.400 . S
C1234 C1236 1.384 . S
C1235 C1233 1.382 . S
C1235 C1234 1.400 . S
C1235 H1252 0.930 . S
C1236 C1234 1.384 . S
C1236 C1238 1.392 . S
C1236 H1253 0.931 . S
C1237 C1233 1.393 . S
C1237 C1238 1.401 . S
C1237 H1254 0.930 . S
C1238 C1236 1.392 . S
C1238 C1237 1.401 . S
C1238 H1255 0.930 . S
C1239 O1222 1.262 . S
C1239 O1223 1.260 . S
C1240 Tb1176 2.833 . S
C1240 O1220 1.251 . S
C1240 O1225 1.256 . S
C1240 C1233 1.500 . S
C1241 H1206 0.929 . S
C1241 C1219 1.444 . S
C1241 C1242 1.317 . S
C1242 H1204 0.930 . S
C1242 C1210 1.432 . S
C1242 C1241 1.317 . S
C1243 O1227 1.283 . S
C1243 O1230 1.243 . S
C1244 C1245 1.382 . S
C1244 C1248 1.393 . S
C1244 C1251 1.500 . S
C1245 C1244 1.382 . S
C1245 C1246 1.400 . S
C1245 H1256 0.930 . S
C1246 C1245 1.400 . S
C1246 C1247 1.384 . S
C1247 C1246 1.384 . S
C1247 C1249 1.392 . S
C1247 H1257 0.931 . S
C1248 C1244 1.393 . S
C1248 C1249 1.401 . S
C1248 H1258 0.930 . S
C1249 C1247 1.392 . S
C1249 C1248 1.401 . S
C1249 H1259 0.930 . S
C1250 O1228 1.262 . S
C1250 O1229 1.260 . S
C1251 Tb1187 2.833 . S
C1251 O1226 1.251 . S
C1251 O1231 1.256 . S
C1251 C1244 1.500 . S
H1252 C1235 0.930 . S
H1253 C1236 0.931 . S
H1254 C1237 0.930 . S
H1255 C1238 0.930 . S
H1256 C1245 0.930 . S
H1257 C1247 0.931 . S
H1258 C1248 0.930 . S
H1259 C1249 0.930 . S
Tb1260 N1291 2.660 . S
Tb1260 N1298 2.600 . S
Tb1260 O1304 2.546 . S
Tb1260 O1305 2.610 . S
Tb1260 O1307 2.320 . S
Tb1260 O1308 2.552 . S
Tb1260 O1309 2.413 . S
Tb1260 O1311 2.362 . S
Tb1260 O1312 2.421 . S
Tb1260 C1324 2.833 . S
C1261 C1264 1.432 . S
C1261 C1265 1.414 . S
C1261 N1268 1.359 . S
C1262 C1264 1.417 . S
C1262 C1266 1.432 . S
C1262 C1274 1.410 . S
C1263 C1265 1.444 . S
C1263 C1266 1.317 . S
C1263 H1286 0.929 . S
C1264 C1261 1.432 . S
C1264 C1262 1.417 . S
C1264 N1272 1.360 . S
C1265 C1261 1.414 . S
C1265 C1263 1.444 . S
C1265 C1270 1.385 . S
C1266 C1262 1.432 . S
C1266 C1263 1.317 . S
C1266 H1278 0.930 . S
C1267 C1269 1.392 . S
C1267 C1270 1.370 . S
C1267 H1279 0.931 . S
N1268 C1261 1.359 . S
N1268 C1269 1.327 . S
N1268 Tb1271 2.600 . S
C1269 C1267 1.392 . S
C1269 N1268 1.327 . S
C1269 H1276 0.930 . S
C1270 C1265 1.385 . S
C1270 C1267 1.370 . S
C1270 H1289 0.930 . S
Tb1271 N1268 2.600 . S
Tb1271 N1272 2.660 . S
Tb1271 O1305 2.362 . S
Tb1271 O1306 2.421 . S
Tb1271 O1310 2.546 . S
Tb1271 O1311 2.610 . S
Tb1271 O1313 2.320 . S
Tb1271 O1314 2.552 . S
Tb1271 O1315 2.413 . S
Tb1271 C1335 2.833 . S
N1272 C1264 1.360 . S
N1272 Tb1271 2.660 . S
N1272 C1273 1.305 . S
C1273 N1272 1.305 . S
C1273 C1275 1.407 . S
C1273 H1280 0.930 . S
C1274 C1262 1.410 . S
C1274 C1275 1.345 . S
C1274 H1282 0.930 . S
C1275 C1273 1.407 . S
C1275 C1274 1.345 . S
C1275 H1277 0.930 . S
H1276 C1269 0.930 . S
H1277 C1275 0.930 . S
H1278 C1266 0.930 . S
H1279 C1267 0.931 . S
H1280 C1273 0.930 . S
H1281 C1295 0.930 . S
H1282 C1274 0.930 . S
H1283 C1301 0.930 . S
H1284 C1292 0.930 . S
H1285 C1299 0.931 . S
H1286 C1263 0.929 . S
H1287 C1293 0.930 . S
H1288 C1326 0.930 . S
H1289 C1270 0.930 . S
H1290 C1325 0.929 . S
N1291 Tb1260 2.660 . S
N1291 C1292 1.305 . S
N1291 C1296 1.360 . S
C1292 H1284 0.930 . S
C1292 N1291 1.305 . S
C1292 C1295 1.407 . S
C1293 H1287 0.930 . S
C1293 C1294 1.410 . S
C1293 C1295 1.345 . S
C1294 C1293 1.410 . S
C1294 C1296 1.417 . S
C1294 C1326 1.432 . S
C1295 H1281 0.930 . S
C1295 C1292 1.407 . S
C1295 C1293 1.345 . S
C1296 N1291 1.360 . S
C1296 C1294 1.417 . S
C1296 C1300 1.432 . S
H1297 C1302 0.930 . S
N1298 Tb1260 2.600 . S
N1298 C1300 1.359 . S
N1298 C1301 1.327 . S
C1299 H1285 0.931 . S
C1299 C1301 1.392 . S
C1299 C1302 1.370 . S
C1300 C1296 1.432 . S
C1300 N1298 1.359 . S
C1300 C1303 1.414 . S
C1301 H1283 0.930 . S
C1301 N1298 1.327 . S
C1301 C1299 1.392 . S
C1302 H1297 0.930 . S
C1302 C1299 1.370 . S
C1302 C1303 1.385 . S
C1303 C1300 1.414 . S
C1303 C1302 1.385 . S
C1303 C1325 1.444 . S
O1304 Tb1260 2.546 . S
O1304 C1324 1.251 . S
O1305 Tb1260 2.610 . S
O1305 Tb1271 2.362 . S
O1305 C1316 1.283 . S
O1306 Tb1271 2.421 . S
O1306 C1323 1.262 . S
O1307 Tb1260 2.320 . S
O1307 C1323 1.260 . S
O1308 Tb1260 2.552 . S
O1308 C1316 1.243 . S
O1309 Tb1260 2.413 . S
O1309 C1324 1.256 . S
O1310 Tb1271 2.546 . S
O1310 C1335 1.251 . S
O1311 Tb1260 2.362 . S
O1311 Tb1271 2.610 . S
O1311 C1327 1.283 . S
O1312 Tb1260 2.421 . S
O1312 C1334 1.262 . S
O1313 Tb1271 2.320 . S
O1313 C1334 1.260 . S
O1314 Tb1271 2.552 . S
O1314 C1327 1.243 . S
O1315 Tb1271 2.413 . S
O1315 C1335 1.256 . S
C1316 O1305 1.283 . S
C1316 O1308 1.243 . S
C1317 C1319 1.382 . S
C1317 C1321 1.393 . S
C1317 C1324 1.500 . S
C1318 C1319 1.400 . S
C1318 C1320 1.384 . S
C1319 C1317 1.382 . S
C1319 C1318 1.400 . S
C1319 H1336 0.930 . S
C1320 C1318 1.384 . S
C1320 C1322 1.392 . S
C1320 H1337 0.931 . S
C1321 C1317 1.393 . S
C1321 C1322 1.401 . S
C1321 H1338 0.930 . S
C1322 C1320 1.392 . S
C1322 C1321 1.401 . S
C1322 H1339 0.930 . S
C1323 O1306 1.262 . S
C1323 O1307 1.260 . S
C1324 Tb1260 2.833 . S
C1324 O1304 1.251 . S
C1324 O1309 1.256 . S
C1324 C1317 1.500 . S
C1325 H1290 0.929 . S
C1325 C1303 1.444 . S
C1325 C1326 1.317 . S
C1326 H1288 0.930 . S
C1326 C1294 1.432 . S
C1326 C1325 1.317 . S
C1327 O1311 1.283 . S
C1327 O1314 1.243 . S
C1328 C1329 1.382 . S
C1328 C1332 1.393 . S
C1328 C1335 1.500 . S
C1329 C1328 1.382 . S
C1329 C1330 1.400 . S
C1329 H1340 0.930 . S
C1330 C1329 1.400 . S
C1330 C1331 1.384 . S
C1331 C1330 1.384 . S
C1331 C1333 1.392 . S
C1331 H1341 0.931 . S
C1332 C1328 1.393 . S
C1332 C1333 1.401 . S
C1332 H1342 0.930 . S
C1333 C1331 1.392 . S
C1333 C1332 1.401 . S
C1333 H1343 0.930 . S
C1334 O1312 1.262 . S
C1334 O1313 1.260 . S
C1335 Tb1271 2.833 . S
C1335 O1310 1.251 . S
C1335 O1315 1.256 . S
C1335 C1328 1.500 . S
H1336 C1319 0.930 . S
H1337 C1320 0.931 . S
H1338 C1321 0.930 . S
H1339 C1322 0.930 . S
H1340 C1329 0.930 . S
H1341 C1331 0.931 . S
H1342 C1332 0.930 . S
H1343 C1333 0.930 . S
Tb1344 N1375 2.660 . S
Tb1344 N1382 2.600 . S
Tb1344 O1388 2.546 . S
Tb1344 O1389 2.610 . S
Tb1344 O1391 2.320 . S
Tb1344 O1392 2.552 . S
Tb1344 O1393 2.413 . S
Tb1344 O1395 2.362 . S
Tb1344 O1396 2.421 . S
Tb1344 C1408 2.833 . S
C1345 C1348 1.432 . S
C1345 C1349 1.414 . S
C1345 N1352 1.359 . S
C1346 C1348 1.417 . S
C1346 C1350 1.432 . S
C1346 C1358 1.410 . S
C1347 C1349 1.444 . S
C1347 C1350 1.317 . S
C1347 H1370 0.929 . S
C1348 C1345 1.432 . S
C1348 C1346 1.417 . S
C1348 N1356 1.360 . S
C1349 C1345 1.414 . S
C1349 C1347 1.444 . S
C1349 C1354 1.385 . S
C1350 C1346 1.432 . S
C1350 C1347 1.317 . S
C1350 H1362 0.930 . S
C1351 C1353 1.392 . S
C1351 C1354 1.370 . S
C1351 H1363 0.931 . S
N1352 C1345 1.359 . S
N1352 C1353 1.327 . S
N1352 Tb1355 2.600 . S
C1353 C1351 1.392 . S
C1353 N1352 1.327 . S
C1353 H1360 0.930 . S
C1354 C1349 1.385 . S
C1354 C1351 1.370 . S
C1354 H1373 0.930 . S
Tb1355 N1352 2.600 . S
Tb1355 N1356 2.660 . S
Tb1355 O1389 2.362 . S
Tb1355 O1390 2.421 . S
Tb1355 O1394 2.546 . S
Tb1355 O1395 2.610 . S
Tb1355 O1397 2.320 . S
Tb1355 O1398 2.552 . S
Tb1355 O1399 2.413 . S
Tb1355 C1419 2.833 . S
N1356 C1348 1.360 . S
N1356 Tb1355 2.660 . S
N1356 C1357 1.305 . S
C1357 N1356 1.305 . S
C1357 C1359 1.407 . S
C1357 H1364 0.930 . S
C1358 C1346 1.410 . S
C1358 C1359 1.345 . S
C1358 H1366 0.930 . S
C1359 C1357 1.407 . S
C1359 C1358 1.345 . S
C1359 H1361 0.930 . S
H1360 C1353 0.930 . S
H1361 C1359 0.930 . S
H1362 C1350 0.930 . S
H1363 C1351 0.931 . S
H1364 C1357 0.930 . S
H1365 C1379 0.930 . S
H1366 C1358 0.930 . S
H1367 C1385 0.930 . S
H1368 C1376 0.930 . S
H1369 C1383 0.931 . S
H1370 C1347 0.929 . S
H1371 C1377 0.930 . S
H1372 C1410 0.930 . S
H1373 C1354 0.930 . S
H1374 C1409 0.929 . S
N1375 Tb1344 2.660 . S
N1375 C1376 1.305 . S
N1375 C1380 1.360 . S
C1376 H1368 0.930 . S
C1376 N1375 1.305 . S
C1376 C1379 1.407 . S
C1377 H1371 0.930 . S
C1377 C1378 1.410 . S
C1377 C1379 1.345 . S
C1378 C1377 1.410 . S
C1378 C1380 1.417 . S
C1378 C1410 1.432 . S
C1379 H1365 0.930 . S
C1379 C1376 1.407 . S
C1379 C1377 1.345 . S
C1380 N1375 1.360 . S
C1380 C1378 1.417 . S
C1380 C1384 1.432 . S
H1381 C1386 0.930 . S
N1382 Tb1344 2.600 . S
N1382 C1384 1.359 . S
N1382 C1385 1.327 . S
C1383 H1369 0.931 . S
C1383 C1385 1.392 . S
C1383 C1386 1.370 . S
C1384 C1380 1.432 . S
C1384 N1382 1.359 . S
C1384 C1387 1.414 . S
C1385 H1367 0.930 . S
C1385 N1382 1.327 . S
C1385 C1383 1.392 . S
C1386 H1381 0.930 . S
C1386 C1383 1.370 . S
C1386 C1387 1.385 . S
C1387 C1384 1.414 . S
C1387 C1386 1.385 . S
C1387 C1409 1.444 . S
O1388 Tb1344 2.546 . S
O1388 C1408 1.251 . S
O1389 Tb1344 2.610 . S
O1389 Tb1355 2.362 . S
O1389 C1400 1.283 . S
O1390 Tb1355 2.421 . S
O1390 C1407 1.262 . S
O1391 Tb1344 2.320 . S
O1391 C1407 1.260 . S
O1392 Tb1344 2.552 . S
O1392 C1400 1.243 . S
O1393 Tb1344 2.413 . S
O1393 C1408 1.256 . S
O1394 Tb1355 2.546 . S
O1394 C1419 1.251 . S
O1395 Tb1344 2.362 . S
O1395 Tb1355 2.610 . S
O1395 C1411 1.283 . S
O1396 Tb1344 2.421 . S
O1396 C1418 1.262 . S
O1397 Tb1355 2.320 . S
O1397 C1418 1.260 . S
O1398 Tb1355 2.552 . S
O1398 C1411 1.243 . S
O1399 Tb1355 2.413 . S
O1399 C1419 1.256 . S
C1400 O1389 1.283 . S
C1400 O1392 1.243 . S
C1401 C1403 1.382 . S
C1401 C1405 1.393 . S
C1401 C1408 1.500 . S
C1402 C1403 1.400 . S
C1402 C1404 1.384 . S
C1403 C1401 1.382 . S
C1403 C1402 1.400 . S
C1403 H1420 0.930 . S
C1404 C1402 1.384 . S
C1404 C1406 1.392 . S
C1404 H1421 0.931 . S
C1405 C1401 1.393 . S
C1405 C1406 1.401 . S
C1405 H1422 0.930 . S
C1406 C1404 1.392 . S
C1406 C1405 1.401 . S
C1406 H1423 0.930 . S
C1407 O1390 1.262 . S
C1407 O1391 1.260 . S
C1408 Tb1344 2.833 . S
C1408 O1388 1.251 . S
C1408 O1393 1.256 . S
C1408 C1401 1.500 . S
C1409 H1374 0.929 . S
C1409 C1387 1.444 . S
C1409 C1410 1.317 . S
C1410 H1372 0.930 . S
C1410 C1378 1.432 . S
C1410 C1409 1.317 . S
C1411 O1395 1.283 . S
C1411 O1398 1.243 . S
C1412 C1413 1.382 . S
C1412 C1416 1.393 . S
C1412 C1419 1.500 . S
C1413 C1412 1.382 . S
C1413 C1414 1.400 . S
C1413 H1424 0.930 . S
C1414 C1413 1.400 . S
C1414 C1415 1.384 . S
C1415 C1414 1.384 . S
C1415 C1417 1.392 . S
C1415 H1425 0.931 . S
C1416 C1412 1.393 . S
C1416 C1417 1.401 . S
C1416 H1426 0.930 . S
C1417 C1415 1.392 . S
C1417 C1416 1.401 . S
C1417 H1427 0.930 . S
C1418 O1396 1.262 . S
C1418 O1397 1.260 . S
C1419 Tb1355 2.833 . S
C1419 O1394 1.251 . S
C1419 O1399 1.256 . S
C1419 C1412 1.500 . S
H1420 C1403 0.930 . S
H1421 C1404 0.931 . S
H1422 C1405 0.930 . S
H1423 C1406 0.930 . S
H1424 C1413 0.930 . S
H1425 C1415 0.931 . S
H1426 C1416 0.930 . S
H1427 C1417 0.930 . S
Tb1428 N1459 2.660 . S
Tb1428 N1466 2.600 . S
Tb1428 O1472 2.546 . S
Tb1428 O1473 2.610 . S
Tb1428 O1475 2.320 . S
Tb1428 O1476 2.552 . S
Tb1428 O1477 2.413 . S
Tb1428 O1479 2.362 . S
Tb1428 O1480 2.421 . S
Tb1428 C1492 2.833 . S
C1429 C1432 1.432 . S
C1429 C1433 1.414 . S
C1429 N1436 1.359 . S
C1430 C1432 1.417 . S
C1430 C1434 1.432 . S
C1430 C1442 1.410 . S
C1431 C1433 1.444 . S
C1431 C1434 1.317 . S
C1431 H1454 0.929 . S
C1432 C1429 1.432 . S
C1432 C1430 1.417 . S
C1432 N1440 1.360 . S
C1433 C1429 1.414 . S
C1433 C1431 1.444 . S
C1433 C1438 1.385 . S
C1434 C1430 1.432 . S
C1434 C1431 1.317 . S
C1434 H1446 0.930 . S
C1435 C1437 1.392 . S
C1435 C1438 1.370 . S
C1435 H1447 0.931 . S
N1436 C1429 1.359 . S
N1436 C1437 1.327 . S
N1436 Tb1439 2.600 . S
C1437 C1435 1.392 . S
C1437 N1436 1.327 . S
C1437 H1444 0.930 . S
C1438 C1433 1.385 . S
C1438 C1435 1.370 . S
C1438 H1457 0.930 . S
Tb1439 N1436 2.600 . S
Tb1439 N1440 2.660 . S
Tb1439 O1473 2.362 . S
Tb1439 O1474 2.421 . S
Tb1439 O1478 2.546 . S
Tb1439 O1479 2.610 . S
Tb1439 O1481 2.320 . S
Tb1439 O1482 2.552 . S
Tb1439 O1483 2.413 . S
Tb1439 C1503 2.833 . S
N1440 C1432 1.360 . S
N1440 Tb1439 2.660 . S
N1440 C1441 1.305 . S
C1441 N1440 1.305 . S
C1441 C1443 1.407 . S
C1441 H1448 0.930 . S
C1442 C1430 1.410 . S
C1442 C1443 1.345 . S
C1442 H1450 0.930 . S
C1443 C1441 1.407 . S
C1443 C1442 1.345 . S
C1443 H1445 0.930 . S
H1444 C1437 0.930 . S
H1445 C1443 0.930 . S
H1446 C1434 0.930 . S
H1447 C1435 0.931 . S
H1448 C1441 0.930 . S
H1449 C1463 0.930 . S
H1450 C1442 0.930 . S
H1451 C1469 0.930 . S
H1452 C1460 0.930 . S
H1453 C1467 0.931 . S
H1454 C1431 0.929 . S
H1455 C1461 0.930 . S
H1456 C1494 0.930 . S
H1457 C1438 0.930 . S
H1458 C1493 0.929 . S
N1459 Tb1428 2.660 . S
N1459 C1460 1.305 . S
N1459 C1464 1.360 . S
C1460 H1452 0.930 . S
C1460 N1459 1.305 . S
C1460 C1463 1.407 . S
C1461 H1455 0.930 . S
C1461 C1462 1.410 . S
C1461 C1463 1.345 . S
C1462 C1461 1.410 . S
C1462 C1464 1.417 . S
C1462 C1494 1.432 . S
C1463 H1449 0.930 . S
C1463 C1460 1.407 . S
C1463 C1461 1.345 . S
C1464 N1459 1.360 . S
C1464 C1462 1.417 . S
C1464 C1468 1.432 . S
H1465 C1470 0.930 . S
N1466 Tb1428 2.600 . S
N1466 C1468 1.359 . S
N1466 C1469 1.327 . S
C1467 H1453 0.931 . S
C1467 C1469 1.392 . S
C1467 C1470 1.370 . S
C1468 C1464 1.432 . S
C1468 N1466 1.359 . S
C1468 C1471 1.414 . S
C1469 H1451 0.930 . S
C1469 N1466 1.327 . S
C1469 C1467 1.392 . S
C1470 H1465 0.930 . S
C1470 C1467 1.370 . S
C1470 C1471 1.385 . S
C1471 C1468 1.414 . S
C1471 C1470 1.385 . S
C1471 C1493 1.444 . S
O1472 Tb1428 2.546 . S
O1472 C1492 1.251 . S
O1473 Tb1428 2.610 . S
O1473 Tb1439 2.362 . S
O1473 C1484 1.283 . S
O1474 Tb1439 2.421 . S
O1474 C1491 1.262 . S
O1475 Tb1428 2.320 . S
O1475 C1491 1.260 . S
O1476 Tb1428 2.552 . S
O1476 C1484 1.243 . S
O1477 Tb1428 2.413 . S
O1477 C1492 1.256 . S
O1478 Tb1439 2.546 . S
O1478 C1503 1.251 . S
O1479 Tb1428 2.362 . S
O1479 Tb1439 2.610 . S
O1479 C1495 1.283 . S
O1480 Tb1428 2.421 . S
O1480 C1502 1.262 . S
O1481 Tb1439 2.320 . S
O1481 C1502 1.260 . S
O1482 Tb1439 2.552 . S
O1482 C1495 1.243 . S
O1483 Tb1439 2.413 . S
O1483 C1503 1.256 . S
C1484 O1473 1.283 . S
C1484 O1476 1.243 . S
C1485 C1487 1.382 . S
C1485 C1489 1.393 . S
C1485 C1492 1.500 . S
C1486 C1487 1.400 . S
C1486 C1488 1.384 . S
C1487 C1485 1.382 . S
C1487 C1486 1.400 . S
C1487 H1504 0.930 . S
C1488 C1486 1.384 . S
C1488 C1490 1.392 . S
C1488 H1505 0.931 . S
C1489 C1485 1.393 . S
C1489 C1490 1.401 . S
C1489 H1506 0.930 . S
C1490 C1488 1.392 . S
C1490 C1489 1.401 . S
C1490 H1507 0.930 . S
C1491 O1474 1.262 . S
C1491 O1475 1.260 . S
C1492 Tb1428 2.833 . S
C1492 O1472 1.251 . S
C1492 O1477 1.256 . S
C1492 C1485 1.500 . S
C1493 H1458 0.929 . S
C1493 C1471 1.444 . S
C1493 C1494 1.317 . S
C1494 H1456 0.930 . S
C1494 C1462 1.432 . S
C1494 C1493 1.317 . S
C1495 O1479 1.283 . S
C1495 O1482 1.243 . S
C1496 C1497 1.382 . S
C1496 C1500 1.393 . S
C1496 C1503 1.500 . S
C1497 C1496 1.382 . S
C1497 C1498 1.400 . S
C1497 H1508 0.930 . S
C1498 C1497 1.400 . S
C1498 C1499 1.384 . S
C1499 C1498 1.384 . S
C1499 C1501 1.392 . S
C1499 H1509 0.931 . S
C1500 C1496 1.393 . S
C1500 C1501 1.401 . S
C1500 H1510 0.930 . S
C1501 C1499 1.392 . S
C1501 C1500 1.401 . S
C1501 H1511 0.930 . S
C1502 O1480 1.262 . S
C1502 O1481 1.260 . S
C1503 Tb1439 2.833 . S
C1503 O1478 1.251 . S
C1503 O1483 1.256 . S
C1503 C1496 1.500 . S
H1504 C1487 0.930 . S
H1505 C1488 0.931 . S
H1506 C1489 0.930 . S
H1507 C1490 0.930 . S
H1508 C1497 0.930 . S
H1509 C1499 0.931 . S
H1510 C1500 0.930 . S
H1511 C1501 0.930 . S
Tb1512 N1543 2.660 . S
Tb1512 N1550 2.600 . S
Tb1512 O1556 2.546 . S
Tb1512 O1557 2.610 . S
Tb1512 O1559 2.320 . S
Tb1512 O1560 2.552 . S
Tb1512 O1561 2.413 . S
Tb1512 O1563 2.362 . S
Tb1512 O1564 2.421 . S
Tb1512 C1576 2.833 . S
C1513 C1516 1.432 . S
C1513 C1517 1.414 . S
C1513 N1520 1.359 . S
C1514 C1516 1.417 . S
C1514 C1518 1.432 . S
C1514 C1526 1.410 . S
C1515 C1517 1.444 . S
C1515 C1518 1.317 . S
C1515 H1538 0.929 . S
C1516 C1513 1.432 . S
C1516 C1514 1.417 . S
C1516 N1524 1.360 . S
C1517 C1513 1.414 . S
C1517 C1515 1.444 . S
C1517 C1522 1.385 . S
C1518 C1514 1.432 . S
C1518 C1515 1.317 . S
C1518 H1530 0.930 . S
C1519 C1521 1.392 . S
C1519 C1522 1.370 . S
C1519 H1531 0.931 . S
N1520 C1513 1.359 . S
N1520 C1521 1.327 . S
N1520 Tb1523 2.600 . S
C1521 C1519 1.392 . S
C1521 N1520 1.327 . S
C1521 H1528 0.930 . S
C1522 C1517 1.385 . S
C1522 C1519 1.370 . S
C1522 H1541 0.930 . S
Tb1523 N1520 2.600 . S
Tb1523 N1524 2.660 . S
Tb1523 O1557 2.362 . S
Tb1523 O1558 2.421 . S
Tb1523 O1562 2.546 . S
Tb1523 O1563 2.610 . S
Tb1523 O1565 2.320 . S
Tb1523 O1566 2.552 . S
Tb1523 O1567 2.413 . S
Tb1523 C1587 2.833 . S
N1524 C1516 1.360 . S
N1524 Tb1523 2.660 . S
N1524 C1525 1.305 . S
C1525 N1524 1.305 . S
C1525 C1527 1.407 . S
C1525 H1532 0.930 . S
C1526 C1514 1.410 . S
C1526 C1527 1.345 . S
C1526 H1534 0.930 . S
C1527 C1525 1.407 . S
C1527 C1526 1.345 . S
C1527 H1529 0.930 . S
H1528 C1521 0.930 . S
H1529 C1527 0.930 . S
H1530 C1518 0.930 . S
H1531 C1519 0.931 . S
H1532 C1525 0.930 . S
H1533 C1547 0.930 . S
H1534 C1526 0.930 . S
H1535 C1553 0.930 . S
H1536 C1544 0.930 . S
H1537 C1551 0.931 . S
H1538 C1515 0.929 . S
H1539 C1545 0.930 . S
H1540 C1578 0.930 . S
H1541 C1522 0.930 . S
H1542 C1577 0.929 . S
N1543 Tb1512 2.660 . S
N1543 C1544 1.305 . S
N1543 C1548 1.360 . S
C1544 H1536 0.930 . S
C1544 N1543 1.305 . S
C1544 C1547 1.407 . S
C1545 H1539 0.930 . S
C1545 C1546 1.410 . S
C1545 C1547 1.345 . S
C1546 C1545 1.410 . S
C1546 C1548 1.417 . S
C1546 C1578 1.432 . S
C1547 H1533 0.930 . S
C1547 C1544 1.407 . S
C1547 C1545 1.345 . S
C1548 N1543 1.360 . S
C1548 C1546 1.417 . S
C1548 C1552 1.432 . S
H1549 C1554 0.930 . S
N1550 Tb1512 2.600 . S
N1550 C1552 1.359 . S
N1550 C1553 1.327 . S
C1551 H1537 0.931 . S
C1551 C1553 1.392 . S
C1551 C1554 1.370 . S
C1552 C1548 1.432 . S
C1552 N1550 1.359 . S
C1552 C1555 1.414 . S
C1553 H1535 0.930 . S
C1553 N1550 1.327 . S
C1553 C1551 1.392 . S
C1554 H1549 0.930 . S
C1554 C1551 1.370 . S
C1554 C1555 1.385 . S
C1555 C1552 1.414 . S
C1555 C1554 1.385 . S
C1555 C1577 1.444 . S
O1556 Tb1512 2.546 . S
O1556 C1576 1.251 . S
O1557 Tb1512 2.610 . S
O1557 Tb1523 2.362 . S
O1557 C1568 1.283 . S
O1558 Tb1523 2.421 . S
O1558 C1575 1.262 . S
O1559 Tb1512 2.320 . S
O1559 C1575 1.260 . S
O1560 Tb1512 2.552 . S
O1560 C1568 1.243 . S
O1561 Tb1512 2.413 . S
O1561 C1576 1.256 . S
O1562 Tb1523 2.546 . S
O1562 C1587 1.251 . S
O1563 Tb1512 2.362 . S
O1563 Tb1523 2.610 . S
O1563 C1579 1.283 . S
O1564 Tb1512 2.421 . S
O1564 C1586 1.262 . S
O1565 Tb1523 2.320 . S
O1565 C1586 1.260 . S
O1566 Tb1523 2.552 . S
O1566 C1579 1.243 . S
O1567 Tb1523 2.413 . S
O1567 C1587 1.256 . S
C1568 O1557 1.283 . S
C1568 O1560 1.243 . S
C1569 C1571 1.382 . S
C1569 C1573 1.393 . S
C1569 C1576 1.500 . S
C1570 C1571 1.400 . S
C1570 C1572 1.384 . S
C1571 C1569 1.382 . S
C1571 C1570 1.400 . S
C1571 H1588 0.930 . S
C1572 C1570 1.384 . S
C1572 C1574 1.392 . S
C1572 H1589 0.931 . S
C1573 C1569 1.393 . S
C1573 C1574 1.401 . S
C1573 H1590 0.930 . S
C1574 C1572 1.392 . S
C1574 C1573 1.401 . S
C1574 H1591 0.930 . S
C1575 O1558 1.262 . S
C1575 O1559 1.260 . S
C1576 Tb1512 2.833 . S
C1576 O1556 1.251 . S
C1576 O1561 1.256 . S
C1576 C1569 1.500 . S
C1577 H1542 0.929 . S
C1577 C1555 1.444 . S
C1577 C1578 1.317 . S
C1578 H1540 0.930 . S
C1578 C1546 1.432 . S
C1578 C1577 1.317 . S
C1579 O1563 1.283 . S
C1579 O1566 1.243 . S
C1580 C1581 1.382 . S
C1580 C1584 1.393 . S
C1580 C1587 1.500 . S
C1581 C1580 1.382 . S
C1581 C1582 1.400 . S
C1581 H1592 0.930 . S
C1582 C1581 1.400 . S
C1582 C1583 1.384 . S
C1583 C1582 1.384 . S
C1583 C1585 1.392 . S
C1583 H1593 0.931 . S
C1584 C1580 1.393 . S
C1584 C1585 1.401 . S
C1584 H1594 0.930 . S
C1585 C1583 1.392 . S
C1585 C1584 1.401 . S
C1585 H1595 0.930 . S
C1586 O1564 1.262 . S
C1586 O1565 1.260 . S
C1587 Tb1523 2.833 . S
C1587 O1562 1.251 . S
C1587 O1567 1.256 . S
C1587 C1580 1.500 . S
H1588 C1571 0.930 . S
H1589 C1572 0.931 . S
H1590 C1573 0.930 . S
H1591 C1574 0.930 . S
H1592 C1581 0.930 . S
H1593 C1583 0.931 . S
H1594 C1584 0.930 . S
H1595 C1585 0.930 . S
Tb1596 N1627 2.660 . S
Tb1596 N1634 2.600 1_554 S
Tb1596 O1640 2.546 1_554 S
Tb1596 O1641 2.610 . S
Tb1596 O1643 2.320 . S
Tb1596 O1644 2.551 . S
Tb1596 O1645 2.413 . S
Tb1596 O1647 2.362 . S
Tb1596 O1648 2.421 1_554 S
Tb1596 C1660 2.833 1_554 S
C1597 C1600 1.432 . S
C1597 C1601 1.414 . S
C1597 N1604 1.359 1_655 S
C1598 C1600 1.417 . S
C1598 C1602 1.432 . S
C1598 C1610 1.410 1_554 S
C1599 C1601 1.444 . S
C1599 C1602 1.317 . S
C1599 H1622 0.929 . S
C1600 C1597 1.432 . S
C1600 C1598 1.417 . S
C1600 N1608 1.349 1_655 S
C1601 C1597 1.414 . S
C1601 C1599 1.444 . S
C1601 C1606 1.385 . S
C1602 C1598 1.432 . S
C1602 C1599 1.317 . S
C1602 H1614 0.930 . S
C1603 C1605 1.392 . S
C1603 C1606 1.370 1_455 S
C1603 H1615 0.931 . S
N1604 C1597 1.359 1_455 S
N1604 C1605 1.327 . S
N1604 Tb1607 2.600 . S
C1605 C1603 1.392 . S
C1605 N1604 1.327 . S
C1605 H1612 0.930 . S
C1606 C1601 1.385 . S
C1606 C1603 1.370 1_655 S
C1606 H1625 0.930 . S
Tb1607 N1604 2.600 . S
Tb1607 N1608 2.673 . S
Tb1607 O1641 2.362 . S
Tb1607 O1642 2.421 . S
Tb1607 O1646 2.546 . S
Tb1607 O1647 2.610 . S
Tb1607 O1649 2.320 1_554 S
Tb1607 O1650 2.552 . S
Tb1607 O1651 2.413 1_455 S
Tb1607 C1671 2.833 1_455 S
N1608 C1600 1.349 1_455 S
N1608 Tb1607 2.673 . S
N1608 C1609 1.303 1_454 S
C1609 N1608 1.303 1_656 S
C1609 C1611 1.407 . S
C1609 H1616 0.930 1_655 S
C1610 C1598 1.410 1_556 S
C1610 C1611 1.345 . S
C1610 H1618 0.930 . S
C1611 C1609 1.407 . S
C1611 C1610 1.345 . S
C1611 H1613 0.930 . S
H1612 C1605 0.930 . S
H1613 C1611 0.930 . S
H1614 C1602 0.930 . S
H1615 C1603 0.931 . S
H1616 C1609 0.930 1_455 S
H1617 C1631 0.930 . S
H1618 C1610 0.930 . S
H1619 C1637 0.930 . S
H1620 C1628 0.930 . S
H1621 C1635 0.931 . S
H1622 C1599 0.929 . S
H1623 C1629 0.930 . S
H1624 C1662 0.930 . S
H1625 C1606 0.930 . S
H1626 C1661 0.929 . S
N1627 Tb1596 2.660 . S
N1627 C1628 1.305 . S
N1627 C1632 1.360 . S
C1628 H1620 0.930 . S
C1628 N1627 1.305 . S
C1628 C1631 1.407 . S
C1629 H1623 0.930 . S
C1629 C1630 1.410 . S
C1629 C1631 1.345 . S
C1630 C1629 1.410 . S
C1630 C1632 1.417 . S
C1630 C1662 1.432 . S
C1631 H1617 0.930 . S
C1631 C1628 1.407 . S
C1631 C1629 1.345 . S
C1632 N1627 1.360 . S
C1632 C1630 1.417 . S
C1632 C1636 1.432 1_554 S
H1633 C1638 0.930 . S
N1634 Tb1596 2.600 1_556 S
N1634 C1636 1.359 . S
N1634 C1637 1.327 . S
C1635 H1621 0.931 . S
C1635 C1637 1.392 . S
C1635 C1638 1.370 . S
C1636 C1632 1.432 1_556 S
C1636 N1634 1.359 . S
C1636 C1639 1.414 . S
C1637 H1619 0.930 . S
C1637 N1634 1.327 . S
C1637 C1635 1.392 . S
C1638 H1633 0.930 . S
C1638 C1635 1.370 . S
C1638 C1639 1.385 . S
C1639 C1636 1.414 . S
C1639 C1638 1.385 . S
C1639 C1661 1.444 . S
O1640 Tb1596 2.546 1_556 S
O1640 C1660 1.251 . S
O1641 Tb1596 2.610 . S
O1641 Tb1607 2.362 . S
O1641 C1652 1.283 . S
O1642 Tb1607 2.421 . S
O1642 C1659 1.262 . S
O1643 Tb1596 2.320 . S
O1643 C1659 1.260 . S
O1644 Tb1596 2.551 . S
O1644 C1652 1.249 . S
O1645 Tb1596 2.413 . S
O1645 C1660 1.256 1_554 S
O1646 Tb1607 2.546 . S
O1646 C1671 1.251 1_455 S
O1647 Tb1596 2.362 . S
O1647 Tb1607 2.610 . S
O1647 C1663 1.283 . S
O1648 Tb1596 2.421 1_556 S
O1648 C1670 1.262 . S
O1649 Tb1607 2.320 1_556 S
O1649 C1670 1.260 . S
O1650 Tb1607 2.552 . S
O1650 C1663 1.243 . S
O1651 Tb1607 2.413 1_655 S
O1651 C1671 1.256 . S
C1652 O1641 1.283 . S
C1652 O1644 1.249 . S
C1653 C1655 1.382 1_556 S
C1653 C1657 1.393 . S
C1653 C1660 1.500 . S
C1654 C1655 1.400 1_556 S
C1654 C1656 1.384 . S
C1655 C1653 1.382 1_554 S
C1655 C1654 1.400 1_554 S
C1655 H1672 0.930 . S
C1656 C1654 1.384 . S
C1656 C1658 1.392 . S
C1656 H1673 0.931 . S
C1657 C1653 1.393 . S
C1657 C1658 1.401 . S
C1657 H1674 0.930 . S
C1658 C1656 1.392 . S
C1658 C1657 1.401 . S
C1658 H1675 0.930 . S
C1659 O1642 1.262 . S
C1659 O1643 1.260 . S
C1660 Tb1596 2.833 1_556 S
C1660 O1640 1.251 . S
C1660 O1645 1.256 1_556 S
C1660 C1653 1.500 . S
C1661 H1626 0.929 . S
C1661 C1639 1.444 . S
C1661 C1662 1.317 1_556 S
C1662 H1624 0.930 . S
C1662 C1630 1.432 . S
C1662 C1661 1.317 1_554 S
C1663 O1647 1.283 . S
C1663 O1650 1.243 . S
C1664 C1665 1.382 . S
C1664 C1668 1.393 . S
C1664 C1671 1.500 . S
C1665 C1664 1.382 . S
C1665 C1666 1.400 . S
C1665 H1676 0.930 . S
C1666 C1665 1.400 . S
C1666 C1667 1.384 . S
C1667 C1666 1.384 . S
C1667 C1669 1.392 . S
C1667 H1677 0.931 . S
C1668 C1664 1.393 . S
C1668 C1669 1.401 . S
C1668 H1678 0.930 . S
C1669 C1667 1.392 . S
C1669 C1668 1.401 . S
C1669 H1679 0.930 . S
C1670 O1648 1.262 . S
C1670 O1649 1.260 . S
C1671 Tb1607 2.833 1_655 S
C1671 O1646 1.251 1_655 S
C1671 O1651 1.256 . S
C1671 C1664 1.500 . S
H1672 C1655 0.930 . S
H1673 C1656 0.931 . S
H1674 C1657 0.930 . S
H1675 C1658 0.930 . S
H1676 C1665 0.930 . S
H1677 C1667 0.931 . S
H1678 C1668 0.930 . S
H1679 C1669 0.930 . S
H1680 C1692 0.903 1_554 S
H1681 C1694 0.930 . S
H1682 C1695 0.930 . S
H1683 C1699 0.959 . S
H1684 C1699 0.959 . S
H1685 C1699 0.961 . S
H1686 C1700 0.960 . S
H1687 C1700 0.961 . S
H1688 C1700 0.959 . S
H1689 C1703 0.929 . S
H1690 C1704 0.931 . S
H1691 C1706 0.930 . S
C1692 H1680 0.903 1_556 S
C1692 C1693 1.399 . S
C1692 C1697 1.399 . S
C1693 C1692 1.399 . S
C1693 C1694 1.376 . S
C1694 H1681 0.930 . S
C1694 C1693 1.376 . S
C1694 C1695 1.388 . S
C1695 H1682 0.930 . S
C1695 C1694 1.388 . S
C1695 C1696 1.390 . S
C1696 C1695 1.390 . S
C1696 C1697 1.394 . S
C1696 C1702 1.465 . S
C1697 C1692 1.399 . S
C1697 C1696 1.394 . S
C1697 C1698 1.516 1_556 S
C1698 C1697 1.516 1_554 S
C1698 C1699 1.502 . S
C1698 C1700 1.561 . S
C1698 C1701 1.526 . S
C1699 H1683 0.959 . S
C1699 H1684 0.959 . S
C1699 H1685 0.961 . S
C1699 C1698 1.502 . S
C1700 H1686 0.960 . S
C1700 H1687 0.961 . S
C1700 H1688 0.959 . S
C1700 C1698 1.561 . S
C1701 C1698 1.526 . S
C1701 C1702 1.396 1_554 S
C1701 C1706 1.390 . S
C1702 C1696 1.465 . S
C1702 C1701 1.396 1_556 S
C1702 C1703 1.399 . S
C1703 H1689 0.929 . S
C1703 C1702 1.399 . S
C1703 C1704 1.385 . S
C1704 H1690 0.931 . S
C1704 C1703 1.385 . S
C1704 C1705 1.389 1_556 S
C1705 C1704 1.389 1_554 S
C1705 C1706 1.387 . S
C1706 H1691 0.930 . S
C1706 C1701 1.390 . S
C1706 C1705 1.387 . S
H1707 C1719 0.930 . S
H1708 C1721 0.930 . S
H1709 C1722 0.930 . S
H1710 C1726 0.959 . S
H1711 C1726 0.959 . S
H1712 C1726 0.961 . S
H1713 C1727 0.960 . S
H1714 C1727 0.961 . S
H1715 C1727 0.959 . S
H1716 C1730 0.929 . S
H1717 C1731 0.931 . S
H1718 C1733 0.930 . S
C1719 H1707 0.930 . S
C1719 C1720 1.399 . S
C1719 C1724 1.399 . S
C1720 C1719 1.399 . S
C1720 C1721 1.376 . S
C1721 H1708 0.930 . S
C1721 C1720 1.376 . S
C1721 C1722 1.388 . S
C1722 H1709 0.930 . S
C1722 C1721 1.388 . S
C1722 C1723 1.390 . S
C1723 C1722 1.390 . S
C1723 C1724 1.394 . S
C1723 C1729 1.465 . S
C1724 C1719 1.399 . S
C1724 C1723 1.394 . S
C1724 C1725 1.516 . S
C1725 C1724 1.516 . S
C1725 C1726 1.502 . S
C1725 C1727 1.561 . S
C1725 C1728 1.526 . S
C1726 H1710 0.959 . S
C1726 H1711 0.959 . S
C1726 H1712 0.961 . S
C1726 C1725 1.502 . S
C1727 H1713 0.960 . S
C1727 H1714 0.961 . S
C1727 H1715 0.959 . S
C1727 C1725 1.561 . S
C1728 C1725 1.526 . S
C1728 C1729 1.396 . S
C1728 C1733 1.390 . S
C1729 C1723 1.465 . S
C1729 C1728 1.396 . S
C1729 C1730 1.399 . S
C1730 H1716 0.929 . S
C1730 C1729 1.399 . S
C1730 C1731 1.385 . S
C1731 H1717 0.931 . S
C1731 C1730 1.385 . S
C1731 C1732 1.389 . S
C1732 C1731 1.389 . S
C1732 C1733 1.387 . S
C1733 H1718 0.930 . S
C1733 C1728 1.390 . S
C1733 C1732 1.387 . S
H1734 C1746 0.930 . S
H1735 C1748 0.930 . S
H1736 C1749 0.930 . S
H1737 C1753 0.959 . S
H1738 C1753 0.959 . S
H1739 C1753 0.961 . S
H1740 C1754 0.960 . S
H1741 C1754 0.961 . S
H1742 C1754 0.959 . S
H1743 C1757 0.929 . S
H1744 C1758 0.931 . S
H1745 C1760 0.930 . S
C1746 H1734 0.930 . S
C1746 C1747 1.399 . S
C1746 C1751 1.399 . S
C1747 C1746 1.399 . S
C1747 C1748 1.376 . S
C1748 H1735 0.930 . S
C1748 C1747 1.376 . S
C1748 C1749 1.388 . S
C1749 H1736 0.930 . S
C1749 C1748 1.388 . S
C1749 C1750 1.390 . S
C1750 C1749 1.390 . S
C1750 C1751 1.394 . S
C1750 C1756 1.465 . S
C1751 C1746 1.399 . S
C1751 C1750 1.394 . S
C1751 C1752 1.516 . S
C1752 C1751 1.516 . S
C1752 C1753 1.502 . S
C1752 C1754 1.561 . S
C1752 C1755 1.526 . S
C1753 H1737 0.959 . S
C1753 H1738 0.959 . S
C1753 H1739 0.961 . S
C1753 C1752 1.502 . S
C1754 H1740 0.960 . S
C1754 H1741 0.961 . S
C1754 H1742 0.959 . S
C1754 C1752 1.561 . S
C1755 C1752 1.526 . S
C1755 C1756 1.396 . S
C1755 C1760 1.390 . S
C1756 C1750 1.465 . S
C1756 C1755 1.396 . S
C1756 C1757 1.399 . S
C1757 H1743 0.929 . S
C1757 C1756 1.399 . S
C1757 C1758 1.385 . S
C1758 H1744 0.931 . S
C1758 C1757 1.385 . S
C1758 C1759 1.389 . S
C1759 C1758 1.389 . S
C1759 C1760 1.387 . S
C1760 H1745 0.930 . S
C1760 C1755 1.390 . S
C1760 C1759 1.387 . S
H1761 C1773 0.930 . S
H1762 C1775 0.930 . S
H1763 C1776 0.930 . S
H1764 C1780 0.959 . S
H1765 C1780 0.959 . S
H1766 C1780 0.961 . S
H1767 C1781 0.960 . S
H1768 C1781 0.961 . S
H1769 C1781 0.959 . S
H1770 C1784 0.929 . S
H1771 C1785 0.931 . S
H1772 C1787 0.930 . S
C1773 H1761 0.930 . S
C1773 C1774 1.399 . S
C1773 C1778 1.399 . S
C1774 C1773 1.399 . S
C1774 C1775 1.376 . S
C1775 H1762 0.930 . S
C1775 C1774 1.376 . S
C1775 C1776 1.388 . S
C1776 H1763 0.930 . S
C1776 C1775 1.388 . S
C1776 C1777 1.390 . S
C1777 C1776 1.390 . S
C1777 C1778 1.394 . S
C1777 C1783 1.465 . S
C1778 C1773 1.399 . S
C1778 C1777 1.394 . S
C1778 C1779 1.516 . S
C1779 C1778 1.516 . S
C1779 C1780 1.502 . S
C1779 C1781 1.561 . S
C1779 C1782 1.526 . S
C1780 H1764 0.959 . S
C1780 H1765 0.959 . S
C1780 H1766 0.961 . S
C1780 C1779 1.502 . S
C1781 H1767 0.960 . S
C1781 H1768 0.961 . S
C1781 H1769 0.959 . S
C1781 C1779 1.561 . S
C1782 C1779 1.526 . S
C1782 C1783 1.396 . S
C1782 C1787 1.390 . S
C1783 C1777 1.465 . S
C1783 C1782 1.396 . S
C1783 C1784 1.399 . S
C1784 H1770 0.929 . S
C1784 C1783 1.399 . S
C1784 C1785 1.385 . S
C1785 H1771 0.931 . S
C1785 C1784 1.385 . S
C1785 C1786 1.389 . S
C1786 C1785 1.389 . S
C1786 C1787 1.387 . S
C1787 H1772 0.930 . S
C1787 C1782 1.390 . S
C1787 C1786 1.387 . S
H1788 C1800 0.930 1_655 S
H1789 C1802 0.930 . S
H1790 C1803 0.930 . S
H1791 C1807 0.959 . S
H1792 C1807 0.959 . S
H1793 C1807 0.961 . S
H1794 C1808 0.960 . S
H1795 C1808 0.961 . S
H1796 C1808 0.959 . S
H1797 C1811 0.929 . S
H1798 C1812 0.931 . S
H1799 C1814 0.930 . S
C1800 H1788 0.930 1_455 S
C1800 C1801 1.399 . S
C1800 C1805 1.399 . S
C1801 C1800 1.399 . S
C1801 C1802 1.376 . S
C1802 H1789 0.930 . S
C1802 C1801 1.376 . S
C1802 C1803 1.388 . S
C1803 H1790 0.930 . S
C1803 C1802 1.388 . S
C1803 C1804 1.390 . S
C1804 C1803 1.390 . S
C1804 C1805 1.394 . S
C1804 C1810 1.465 . S
C1805 C1800 1.399 . S
C1805 C1804 1.394 . S
C1805 C1806 1.516 . S
C1806 C1805 1.516 . S
C1806 C1807 1.502 1_455 S
C1806 C1808 1.561 . S
C1806 C1809 1.526 . S
C1807 H1791 0.959 . S
C1807 H1792 0.959 . S
C1807 H1793 0.961 . S
C1807 C1806 1.502 1_655 S
C1808 H1794 0.960 . S
C1808 H1795 0.961 . S
C1808 H1796 0.959 . S
C1808 C1806 1.561 . S
C1809 C1806 1.526 . S
C1809 C1810 1.396 . S
C1809 C1814 1.390 . S
C1810 C1804 1.465 . S
C1810 C1809 1.396 . S
C1810 C1811 1.399 . S
C1811 H1797 0.929 . S
C1811 C1810 1.399 . S
C1811 C1812 1.385 . S
C1812 H1798 0.931 . S
C1812 C1811 1.385 . S
C1812 C1813 1.389 . S
C1813 C1812 1.389 . S
C1813 C1814 1.387 . S
C1814 H1799 0.930 . S
C1814 C1809 1.390 . S
C1814 C1813 1.387 . S
H1815 C1827 0.930 . S
H1816 C1829 0.930 . S
H1817 C1830 0.930 . S
H1818 C1834 0.959 . S
H1819 C1834 0.959 . S
H1820 C1834 0.961 . S
H1821 C1835 0.960 . S
H1822 C1835 0.961 . S
H1823 C1835 0.959 . S
H1824 C1838 0.929 . S
H1825 C1839 0.931 . S
H1826 C1841 0.930 . S
C1827 H1815 0.930 . S
C1827 C1828 1.399 . S
C1827 C1832 1.399 . S
C1828 C1827 1.399 . S
C1828 C1829 1.376 . S
C1829 H1816 0.930 . S
C1829 C1828 1.376 . S
C1829 C1830 1.388 . S
C1830 H1817 0.930 . S
C1830 C1829 1.388 . S
C1830 C1831 1.390 . S
C1831 C1830 1.390 . S
C1831 C1832 1.394 . S
C1831 C1837 1.465 . S
C1832 C1827 1.399 . S
C1832 C1831 1.394 . S
C1832 C1833 1.516 . S
C1833 C1832 1.516 . S
C1833 C1834 1.502 . S
C1833 C1835 1.561 . S
C1833 C1836 1.526 . S
C1834 H1818 0.959 . S
C1834 H1819 0.959 . S
C1834 H1820 0.961 . S
C1834 C1833 1.502 . S
C1835 H1821 0.960 . S
C1835 H1822 0.961 . S
C1835 H1823 0.959 . S
C1835 C1833 1.561 . S
C1836 C1833 1.526 . S
C1836 C1837 1.396 . S
C1836 C1841 1.390 . S
C1837 C1831 1.465 . S
C1837 C1836 1.396 . S
C1837 C1838 1.399 . S
C1838 H1824 0.929 . S
C1838 C1837 1.399 . S
C1838 C1839 1.385 . S
C1839 H1825 0.931 . S
C1839 C1838 1.385 . S
C1839 C1840 1.389 . S
C1840 C1839 1.389 . S
C1840 C1841 1.387 . S
C1841 H1826 0.930 . S
C1841 C1836 1.390 . S
C1841 C1840 1.387 . S
H1842 C1854 0.930 . S
H1843 C1856 0.930 . S
H1844 C1857 0.930 . S
H1845 C1861 0.959 . S
H1846 C1861 0.959 . S
H1847 C1861 0.961 . S
H1848 C1862 0.960 . S
H1849 C1862 0.961 . S
H1850 C1862 0.959 . S
H1851 C1865 0.929 . S
H1852 C1866 0.931 . S
H1853 C1868 0.930 . S
C1854 H1842 0.930 . S
C1854 C1855 1.399 . S
C1854 C1859 1.399 . S
C1855 C1854 1.399 . S
C1855 C1856 1.376 . S
C1856 H1843 0.930 . S
C1856 C1855 1.376 . S
C1856 C1857 1.388 . S
C1857 H1844 0.930 . S
C1857 C1856 1.388 . S
C1857 C1858 1.390 . S
C1858 C1857 1.390 . S
C1858 C1859 1.394 . S
C1858 C1864 1.465 . S
C1859 C1854 1.399 . S
C1859 C1858 1.394 . S
C1859 C1860 1.516 . S
C1860 C1859 1.516 . S
C1860 C1861 1.502 . S
C1860 C1862 1.561 . S
C1860 C1863 1.526 . S
C1861 H1845 0.959 . S
C1861 H1846 0.959 . S
C1861 H1847 0.961 . S
C1861 C1860 1.502 . S
C1862 H1848 0.960 . S
C1862 H1849 0.961 . S
C1862 H1850 0.959 . S
C1862 C1860 1.561 . S
C1863 C1860 1.526 . S
C1863 C1864 1.396 . S
C1863 C1868 1.390 . S
C1864 C1858 1.465 . S
C1864 C1863 1.396 . S
C1864 C1865 1.399 . S
C1865 H1851 0.929 . S
C1865 C1864 1.399 . S
C1865 C1866 1.385 . S
C1866 H1852 0.931 . S
C1866 C1865 1.385 . S
C1866 C1867 1.389 . S
C1867 C1866 1.389 . S
C1867 C1868 1.387 . S
C1868 H1853 0.930 . S
C1868 C1863 1.390 . S
C1868 C1867 1.387 . S
H1869 C1881 0.930 . S
H1870 C1883 0.930 . S
H1871 C1884 0.930 . S
H1872 C1888 0.959 . S
H1873 C1888 0.959 . S
H1874 C1888 0.961 . S
H1875 C1889 0.960 . S
H1876 C1889 0.961 . S
H1877 C1889 0.959 . S
H1878 C1892 0.929 . S
H1879 C1893 0.931 . S
H1880 C1895 0.930 . S
C1881 H1869 0.930 . S
C1881 C1882 1.399 . S
C1881 C1886 1.399 . S
C1882 C1881 1.399 . S
C1882 C1883 1.376 . S
C1883 H1870 0.930 . S
C1883 C1882 1.376 . S
C1883 C1884 1.388 . S
C1884 H1871 0.930 . S
C1884 C1883 1.388 . S
C1884 C1885 1.390 . S
C1885 C1884 1.390 . S
C1885 C1886 1.394 . S
C1885 C1891 1.465 . S
C1886 C1881 1.399 . S
C1886 C1885 1.394 . S
C1886 C1887 1.516 . S
C1887 C1886 1.516 . S
C1887 C1888 1.502 . S
C1887 C1889 1.561 . S
C1887 C1890 1.526 . S
C1888 H1872 0.959 . S
C1888 H1873 0.959 . S
C1888 H1874 0.961 . S
C1888 C1887 1.502 . S
C1889 H1875 0.960 . S
C1889 H1876 0.961 . S
C1889 H1877 0.959 . S
C1889 C1887 1.561 . S
C1890 C1887 1.526 . S
C1890 C1891 1.396 . S
C1890 C1895 1.390 . S
C1891 C1885 1.465 . S
C1891 C1890 1.396 . S
C1891 C1892 1.399 . S
C1892 H1878 0.929 . S
C1892 C1891 1.399 . S
C1892 C1893 1.385 . S
C1893 H1879 0.931 . S
C1893 C1892 1.385 . S
C1893 C1894 1.389 . S
C1894 C1893 1.389 . S
C1894 C1895 1.387 . S
C1895 H1880 0.930 . S
C1895 C1890 1.390 . S
C1895 C1894 1.387 . S
H1896 C1908 0.930 1_455 S
H1897 C1910 0.930 . S
H1898 C1911 0.930 . S
H1899 C1915 0.959 . S
H1900 C1915 0.959 . S
H1901 C1915 0.961 . S
H1902 C1916 0.960 . S
H1903 C1916 0.961 . S
H1904 C1916 0.959 . S
H1905 C1919 0.929 . S
H1906 C1920 0.937 . S
H1907 C1922 0.930 . S
C1908 H1896 0.930 1_655 S
C1908 C1909 1.399 . S
C1908 C1913 1.399 1_655 S
C1909 C1908 1.399 . S
C1909 C1910 1.376 . S
C1910 H1897 0.930 . S
C1910 C1909 1.376 . S
C1910 C1911 1.388 . S
C1911 H1898 0.930 . S
C1911 C1910 1.388 . S
C1911 C1912 1.390 . S
C1912 C1911 1.390 . S
C1912 C1913 1.394 1_655 S
C1912 C1918 1.465 . S
C1913 C1908 1.399 1_455 S
C1913 C1912 1.394 1_455 S
C1913 C1914 1.516 . S
C1914 C1913 1.516 . S
C1914 C1915 1.502 . S
C1914 C1916 1.561 . S
C1914 C1917 1.526 . S
C1915 H1899 0.959 . S
C1915 H1900 0.959 . S
C1915 H1901 0.961 . S
C1915 C1914 1.502 . S
C1916 H1902 0.960 . S
C1916 H1903 0.961 . S
C1916 H1904 0.959 . S
C1916 C1914 1.561 . S
C1917 C1914 1.526 . S
C1917 C1918 1.396 1_455 S
C1917 C1922 1.390 . S
C1918 C1912 1.465 . S
C1918 C1917 1.396 1_655 S
C1918 C1919 1.399 . S
C1919 H1905 0.929 . S
C1919 C1918 1.399 . S
C1919 C1920 1.385 1_655 S
C1920 H1906 0.937 . S
C1920 C1919 1.385 1_455 S
C1920 C1921 1.389 . S
C1921 C1920 1.389 . S
C1921 C1922 1.387 . S
C1922 H1907 0.930 . S
C1922 C1917 1.390 . S
C1922 C1921 1.387 . S
H1923 C1935 0.930 . S
H1924 C1937 0.930 . S
H1925 C1938 0.930 . S
H1926 C1942 0.959 . S
H1927 C1942 0.959 . S
H1928 C1942 0.961 . S
H1929 C1943 0.960 . S
H1930 C1943 0.961 . S
H1931 C1943 0.959 . S
H1932 C1946 0.929 . S
H1933 C1947 0.931 . S
H1934 C1949 0.930 . S
C1935 H1923 0.930 . S
C1935 C1936 1.399 . S
C1935 C1940 1.399 . S
C1936 C1935 1.399 . S
C1936 C1937 1.376 . S
C1937 H1924 0.930 . S
C1937 C1936 1.376 . S
C1937 C1938 1.388 . S
C1938 H1925 0.930 . S
C1938 C1937 1.388 . S
C1938 C1939 1.390 . S
C1939 C1938 1.390 . S
C1939 C1940 1.394 . S
C1939 C1945 1.465 . S
C1940 C1935 1.399 . S
C1940 C1939 1.394 . S
C1940 C1941 1.516 . S
C1941 C1940 1.516 . S
C1941 C1942 1.502 . S
C1941 C1943 1.561 . S
C1941 C1944 1.526 . S
C1942 H1926 0.959 . S
C1942 H1927 0.959 . S
C1942 H1928 0.961 . S
C1942 C1941 1.502 . S
C1943 H1929 0.960 . S
C1943 H1930 0.961 . S
C1943 H1931 0.959 . S
C1943 C1941 1.561 . S
C1944 C1941 1.526 . S
C1944 C1945 1.396 . S
C1944 C1949 1.390 . S
C1945 C1939 1.465 . S
C1945 C1944 1.396 . S
C1945 C1946 1.399 . S
C1946 H1932 0.929 . S
C1946 C1945 1.399 . S
C1946 C1947 1.385 . S
C1947 H1933 0.931 . S
C1947 C1946 1.385 . S
C1947 C1948 1.389 . S
C1948 C1947 1.389 . S
C1948 C1949 1.387 . S
C1949 H1934 0.930 . S
C1949 C1944 1.390 . S
C1949 C1948 1.387 . S
H1950 C1962 0.930 . S
H1951 C1964 0.930 . S
H1952 C1965 0.930 . S
H1953 C1969 0.959 . S
H1954 C1969 0.959 . S
H1955 C1969 0.961 . S
H1956 C1970 0.960 . S
H1957 C1970 0.961 . S
H1958 C1970 0.959 . S
H1959 C1973 0.946 . S
H1960 C1974 0.934 . S
H1961 C1976 0.930 . S
C1962 H1950 0.930 . S
C1962 C1963 1.399 . S
C1962 C1967 1.399 . S
C1963 C1962 1.399 . S
C1963 C1964 1.376 . S
C1964 H1951 0.930 . S
C1964 C1963 1.376 . S
C1964 C1965 1.388 . S
C1965 H1952 0.930 . S
C1965 C1964 1.388 . S
C1965 C1966 1.390 . S
C1966 C1965 1.390 . S
C1966 C1967 1.394 . S
C1966 C1972 1.465 . S
C1967 C1962 1.399 . S
C1967 C1966 1.394 . S
C1967 C1968 1.516 . S
C1968 C1967 1.516 . S
C1968 C1969 1.502 . S
C1968 C1970 1.561 . S
C1968 C1971 1.526 . S
C1969 H1953 0.959 . S
C1969 H1954 0.959 . S
C1969 H1955 0.961 . S
C1969 C1968 1.502 . S
C1970 H1956 0.960 . S
C1970 H1957 0.961 . S
C1970 H1958 0.959 . S
C1970 C1968 1.561 . S
C1971 C1968 1.526 . S
C1971 C1972 1.396 . S
C1971 C1976 1.390 . S
C1972 C1966 1.465 . S
C1972 C1971 1.396 . S
C1972 C1973 1.399 . S
C1973 H1959 0.946 . S
C1973 C1972 1.399 . S
C1973 C1974 1.385 . S
C1974 H1960 0.934 . S
C1974 C1973 1.385 . S
C1974 C1975 1.389 . S
C1975 C1974 1.389 . S
C1975 C1976 1.387 . S
C1976 H1961 0.930 . S
C1976 C1971 1.390 . S
C1976 C1975 1.387 . S
H1977 C1989 0.930 . S
H1978 C1991 0.930 . S
H1979 C1992 0.930 . S
H1980 C1996 0.959 . S
H1981 C1996 0.959 . S
H1982 C1996 0.961 . S
H1983 C1997 0.960 . S
H1984 C1997 0.961 . S
H1985 C1997 0.959 . S
H1986 C2000 0.929 . S
H1987 C2001 0.931 . S
H1988 C2003 0.930 . S
C1989 H1977 0.930 . S
C1989 C1990 1.399 . S
C1989 C1994 1.399 . S
C1990 C1989 1.399 . S
C1990 C1991 1.376 . S
C1991 H1978 0.930 . S
C1991 C1990 1.376 . S
C1991 C1992 1.388 . S
C1992 H1979 0.930 . S
C1992 C1991 1.388 . S
C1992 C1993 1.390 . S
C1993 C1992 1.390 . S
C1993 C1994 1.394 . S
C1993 C1999 1.465 . S
C1994 C1989 1.399 . S
C1994 C1993 1.394 . S
C1994 C1995 1.516 . S
C1995 C1994 1.516 . S
C1995 C1996 1.502 . S
C1995 C1997 1.561 . S
C1995 C1998 1.526 . S
C1996 H1980 0.959 . S
C1996 H1981 0.959 . S
C1996 H1982 0.961 . S
C1996 C1995 1.502 . S
C1997 H1983 0.960 . S
C1997 H1984 0.961 . S
C1997 H1985 0.959 . S
C1997 C1995 1.561 . S
C1998 C1995 1.526 . S
C1998 C1999 1.396 . S
C1998 C2003 1.390 . S
C1999 C1993 1.465 . S
C1999 C1998 1.396 . S
C1999 C2000 1.399 . S
C2000 H1986 0.929 . S
C2000 C1999 1.399 . S
C2000 C2001 1.385 . S
C2001 H1987 0.931 . S
C2001 C2000 1.385 . S
C2001 C2002 1.389 . S
C2002 C2001 1.389 . S
C2002 C2003 1.387 . S
C2003 H1988 0.930 . S
C2003 C1998 1.390 . S
C2003 C2002 1.387 . S
H2004 C2016 0.930 . S
H2005 C2018 0.930 . S
H2006 C2019 0.930 . S
H2007 C2023 0.959 . S
H2008 C2023 0.959 1_565 S
H2009 C2023 0.962 . S
H2010 C2024 0.960 . S
H2011 C2024 0.961 . S
H2012 C2024 0.959 . S
H2013 C2027 0.929 . S
H2014 C2028 0.931 . S
H2015 C2030 0.930 . S
C2016 H2004 0.930 . S
C2016 C2017 1.399 . S
C2016 C2021 1.399 1_655 S
C2017 C2016 1.399 . S
C2017 C2018 1.376 . S
C2018 H2005 0.930 . S
C2018 C2017 1.376 . S
C2018 C2019 1.388 1_655 S
C2019 H2006 0.930 . S
C2019 C2018 1.388 1_455 S
C2019 C2020 1.390 . S
C2020 C2019 1.390 . S
C2020 C2021 1.394 . S
C2020 C2026 1.465 . S
C2021 C2016 1.399 1_455 S
C2021 C2020 1.394 . S
C2021 C2022 1.516 . S
C2022 C2021 1.516 . S
C2022 C2023 1.502 1_455 S
C2022 C2024 1.561 . S
C2022 C2025 1.526 . S
C2023 H2007 0.959 . S
C2023 H2008 0.959 1_545 S
C2023 H2009 0.962 . S
C2023 C2022 1.502 1_655 S
C2024 H2010 0.960 . S
C2024 H2011 0.961 . S
C2024 H2012 0.959 . S
C2024 C2022 1.561 . S
C2025 C2022 1.526 . S
C2025 C2026 1.396 . S
C2025 C2030 1.390 . S
C2026 C2020 1.465 . S
C2026 C2025 1.396 . S
C2026 C2027 1.399 . S
C2027 H2013 0.929 . S
C2027 C2026 1.399 . S
C2027 C2028 1.385 . S
C2028 H2014 0.931 . S
C2028 C2027 1.385 . S
C2028 C2029 1.389 . S
C2029 C2028 1.389 . S
C2029 C2030 1.387 . S
C2030 H2015 0.930 . S
C2030 C2025 1.390 . S
C2030 C2029 1.387 . S
H2031 C2043 0.930 . S
H2032 C2045 0.930 . S
H2033 C2046 0.930 . S
H2034 C2050 0.959 . S
H2035 C2050 0.959 . S
H2036 C2050 0.961 . S
H2037 C2051 0.960 . S
H2038 C2051 0.961 . S
H2039 C2051 0.959 . S
H2040 C2054 0.929 . S
H2041 C2055 0.931 . S
H2042 C2057 0.930 . S
C2043 H2031 0.930 . S
C2043 C2044 1.399 . S
C2043 C2048 1.399 . S
C2044 C2043 1.399 . S
C2044 C2045 1.376 . S
C2045 H2032 0.930 . S
C2045 C2044 1.376 . S
C2045 C2046 1.388 . S
C2046 H2033 0.930 . S
C2046 C2045 1.388 . S
C2046 C2047 1.390 . S
C2047 C2046 1.390 . S
C2047 C2048 1.394 . S
C2047 C2053 1.465 . S
C2048 C2043 1.399 . S
C2048 C2047 1.394 . S
C2048 C2049 1.516 . S
C2049 C2048 1.516 . S
C2049 C2050 1.502 . S
C2049 C2051 1.561 . S
C2049 C2052 1.526 . S
C2050 H2034 0.959 . S
C2050 H2035 0.959 . S
C2050 H2036 0.961 . S
C2050 C2049 1.502 . S
C2051 H2037 0.960 . S
C2051 H2038 0.961 . S
C2051 H2039 0.959 . S
C2051 C2049 1.561 . S
C2052 C2049 1.526 . S
C2052 C2053 1.396 . S
C2052 C2057 1.390 . S
C2053 C2047 1.465 . S
C2053 C2052 1.396 . S
C2053 C2054 1.399 . S
C2054 H2040 0.929 . S
C2054 C2053 1.399 . S
C2054 C2055 1.385 . S
C2055 H2041 0.931 . S
C2055 C2054 1.385 . S
C2055 C2056 1.389 . S
C2056 C2055 1.389 . S
C2056 C2057 1.387 . S
C2057 H2042 0.930 . S
C2057 C2052 1.390 . S
C2057 C2056 1.387 . S
H2058 C2070 0.930 . S
H2059 C2072 0.930 . S
H2060 C2073 0.930 . S
H2061 C2077 0.959 . S
H2062 C2077 0.959 1_565 S
H2063 C2077 0.961 . S
H2064 C2078 0.960 1_565 S
H2065 C2078 0.961 1_565 S
H2066 C2078 0.959 . S
H2067 C2081 0.929 . S
H2068 C2082 0.931 . S
H2069 C2084 0.930 . S
C2070 H2058 0.930 . S
C2070 C2071 1.399 . S
C2070 C2075 1.399 . S
C2071 C2070 1.399 . S
C2071 C2072 1.376 . S
C2072 H2059 0.930 . S
C2072 C2071 1.376 . S
C2072 C2073 1.388 . S
C2073 H2060 0.930 . S
C2073 C2072 1.388 . S
C2073 C2074 1.390 . S
C2074 C2073 1.390 . S
C2074 C2075 1.394 . S
C2074 C2080 1.465 . S
C2075 C2070 1.399 . S
C2075 C2074 1.394 . S
C2075 C2076 1.516 . S
C2076 C2075 1.516 . S
C2076 C2077 1.502 . S
C2076 C2078 1.561 . S
C2076 C2079 1.526 . S
C2077 H2061 0.959 . S
C2077 H2062 0.959 1_545 S
C2077 H2063 0.961 . S
C2077 C2076 1.502 . S
C2078 H2064 0.960 1_545 S
C2078 H2065 0.961 1_545 S
C2078 H2066 0.959 . S
C2078 C2076 1.561 . S
C2079 C2076 1.526 . S
C2079 C2080 1.396 . S
C2079 C2084 1.390 . S
C2080 C2074 1.465 . S
C2080 C2079 1.396 . S
C2080 C2081 1.399 . S
C2081 H2067 0.929 . S
C2081 C2080 1.399 . S
C2081 C2082 1.385 . S
C2082 H2068 0.931 . S
C2082 C2081 1.385 . S
C2082 C2083 1.389 . S
C2083 C2082 1.389 . S
C2083 C2084 1.387 . S
C2084 H2069 0.930 . S
C2084 C2079 1.390 . S
C2084 C2083 1.387 . S
H2085 C2097 0.930 . S
H2086 C2099 0.930 . S
H2087 C2100 0.930 . S
H2088 C2104 0.959 . S
H2089 C2104 0.959 . S
H2090 C2104 0.961 . S
H2091 C2105 0.960 . S
H2092 C2105 0.961 . S
H2093 C2105 0.959 . S
H2094 C2108 0.929 . S
H2095 C2109 0.931 . S
H2096 C2111 0.930 . S
C2097 H2085 0.930 . S
C2097 C2098 1.399 . S
C2097 C2102 1.399 . S
C2098 C2097 1.399 . S
C2098 C2099 1.376 . S
C2099 H2086 0.930 . S
C2099 C2098 1.376 . S
C2099 C2100 1.388 . S
C2100 H2087 0.930 . S
C2100 C2099 1.388 . S
C2100 C2101 1.390 . S
C2101 C2100 1.390 . S
C2101 C2102 1.394 . S
C2101 C2107 1.465 . S
C2102 C2097 1.399 . S
C2102 C2101 1.394 . S
C2102 C2103 1.516 . S
C2103 C2102 1.516 . S
C2103 C2104 1.502 . S
C2103 C2105 1.561 . S
C2103 C2106 1.526 . S
C2104 H2088 0.959 . S
C2104 H2089 0.959 . S
C2104 H2090 0.961 . S
C2104 C2103 1.502 . S
C2105 H2091 0.960 . S
C2105 H2092 0.961 . S
C2105 H2093 0.959 . S
C2105 C2103 1.561 . S
C2106 C2103 1.526 . S
C2106 C2107 1.396 . S
C2106 C2111 1.390 . S
C2107 C2101 1.465 . S
C2107 C2106 1.396 . S
C2107 C2108 1.399 . S
C2108 H2094 0.929 . S
C2108 C2107 1.399 . S
C2108 C2109 1.385 . S
C2109 H2095 0.931 . S
C2109 C2108 1.385 . S
C2109 C2110 1.389 . S
C2110 C2109 1.389 . S
C2110 C2111 1.387 . S
C2111 H2096 0.930 . S
C2111 C2106 1.390 . S
C2111 C2110 1.387 . S
H2112 C2124 0.930 1_556 S
H2113 C2126 0.930 . S
H2114 C2127 0.930 . S
H2115 C2131 0.965 . S
H2116 C2131 0.956 1_556 S
H2117 C2131 0.957 1_556 S
H2118 C2132 0.960 . S
H2119 C2132 0.961 . S
H2120 C2132 0.959 . S
H2121 C2135 0.929 . S
H2122 C2136 0.931 . S
H2123 C2138 0.930 . S
C2124 H2112 0.930 1_554 S
C2124 C2125 1.399 . S
C2124 C2129 1.399 . S
C2125 C2124 1.399 . S
C2125 C2126 1.376 . S
C2126 H2113 0.930 . S
C2126 C2125 1.376 . S
C2126 C2127 1.388 . S
C2127 H2114 0.930 . S
C2127 C2126 1.388 . S
C2127 C2128 1.390 . S
C2128 C2127 1.390 . S
C2128 C2129 1.394 . S
C2128 C2134 1.465 . S
C2129 C2124 1.399 . S
C2129 C2128 1.394 . S
C2129 C2130 1.516 1_554 S
C2130 C2129 1.516 1_556 S
C2130 C2131 1.503 1_566 S
C2130 C2132 1.561 . S
C2130 C2133 1.526 1_556 S
C2131 H2115 0.965 . S
C2131 H2116 0.956 1_554 S
C2131 H2117 0.957 1_554 S
C2131 C2130 1.503 1_544 S
C2132 H2118 0.960 . S
C2132 H2119 0.961 . S
C2132 H2120 0.959 . S
C2132 C2130 1.561 . S
C2133 C2130 1.526 1_554 S
C2133 C2134 1.396 . S
C2133 C2138 1.390 1_565 S
C2134 C2128 1.465 . S
C2134 C2133 1.396 . S
C2134 C2135 1.399 . S
C2135 H2121 0.929 . S
C2135 C2134 1.399 . S
C2135 C2136 1.385 . S
C2136 H2122 0.931 . S
C2136 C2135 1.385 . S
C2136 C2137 1.389 1_565 S
C2137 C2136 1.389 1_545 S
C2137 C2138 1.387 . S
C2138 H2123 0.930 . S
C2138 C2133 1.390 1_545 S
C2138 C2137 1.387 . S
H2139 C2151 0.930 . S
H2140 C2153 0.930 . S
H2141 C2154 0.930 . S
H2142 C2158 0.959 . S
H2143 C2158 0.959 . S
H2144 C2158 0.961 . S
H2145 C2159 0.960 . S
H2146 C2159 0.961 . S
H2147 C2159 0.959 . S
H2148 C2162 0.929 . S
H2149 C2163 0.931 . S
H2150 C2165 0.930 . S
C2151 H2139 0.930 . S
C2151 C2152 1.399 1_554 S
C2151 C2156 1.399 . S
C2152 C2151 1.399 1_556 S
C2152 C2153 1.376 . S
C2153 H2140 0.930 . S
C2153 C2152 1.376 . S
C2153 C2154 1.388 . S
C2154 H2141 0.930 . S
C2154 C2153 1.388 . S
C2154 C2155 1.390 . S
C2155 C2154 1.390 . S
C2155 C2156 1.394 1_556 S
C2155 C2161 1.465 . S
C2156 C2151 1.399 . S
C2156 C2155 1.394 1_554 S
C2156 C2157 1.516 . S
C2157 C2156 1.516 . S
C2157 C2158 1.502 . S
C2157 C2159 1.561 . S
C2157 C2160 1.526 . S
C2158 H2142 0.959 . S
C2158 H2143 0.959 . S
C2158 H2144 0.961 . S
C2158 C2157 1.502 . S
C2159 H2145 0.960 . S
C2159 H2146 0.961 . S
C2159 H2147 0.959 . S
C2159 C2157 1.561 . S
C2160 C2157 1.526 . S
C2160 C2161 1.396 1_554 S
C2160 C2165 1.390 . S
C2161 C2155 1.465 . S
C2161 C2160 1.396 1_556 S
C2161 C2162 1.399 . S
C2162 H2148 0.929 . S
C2162 C2161 1.399 . S
C2162 C2163 1.385 . S
C2163 H2149 0.931 . S
C2163 C2162 1.385 . S
C2163 C2164 1.389 . S
C2164 C2163 1.389 . S
C2164 C2165 1.387 1_556 S
C2165 H2150 0.930 . S
C2165 C2160 1.390 . S
C2165 C2164 1.387 1_554 S
H2166 C2178 0.930 . S
H2167 C2180 0.930 . S
H2168 C2181 0.930 . S
H2169 C2185 0.959 . S
H2170 C2185 0.959 . S
H2171 C2185 0.961 . S
H2172 C2186 0.960 . S
H2173 C2186 0.961 . S
H2174 C2186 0.959 . S
H2175 C2189 0.929 . S
H2176 C2190 0.931 . S
H2177 C2192 0.930 . S
C2178 H2166 0.930 . S
C2178 C2179 1.399 . S
C2178 C2183 1.399 . S
C2179 C2178 1.399 . S
C2179 C2180 1.376 . S
C2180 H2167 0.930 . S
C2180 C2179 1.376 . S
C2180 C2181 1.388 . S
C2181 H2168 0.930 . S
C2181 C2180 1.388 . S
C2181 C2182 1.390 . S
C2182 C2181 1.390 . S
C2182 C2183 1.394 . S
C2182 C2188 1.465 . S
C2183 C2178 1.399 . S
C2183 C2182 1.394 . S
C2183 C2184 1.516 . S
C2184 C2183 1.516 . S
C2184 C2185 1.502 . S
C2184 C2186 1.561 . S
C2184 C2187 1.526 . S
C2185 H2169 0.959 . S
C2185 H2170 0.959 . S
C2185 H2171 0.961 . S
C2185 C2184 1.502 . S
C2186 H2172 0.960 . S
C2186 H2173 0.961 . S
C2186 H2174 0.959 . S
C2186 C2184 1.561 . S
C2187 C2184 1.526 . S
C2187 C2188 1.396 . S
C2187 C2192 1.390 . S
C2188 C2182 1.465 . S
C2188 C2187 1.396 . S
C2188 C2189 1.399 . S
C2189 H2175 0.929 . S
C2189 C2188 1.399 . S
C2189 C2190 1.385 . S
C2190 H2176 0.931 . S
C2190 C2189 1.385 . S
C2190 C2191 1.389 . S
C2191 C2190 1.389 . S
C2191 C2192 1.387 . S
C2192 H2177 0.930 . S
C2192 C2187 1.390 . S
C2192 C2191 1.387 . S
H2193 C2205 0.930 . S
H2194 C2207 0.930 . S
H2195 C2208 0.930 . S
H2196 C2212 0.959 . S
H2197 C2212 0.959 . S
H2198 C2212 0.961 . S
H2199 C2213 0.960 . S
H2200 C2213 0.961 . S
H2201 C2213 0.959 . S
H2202 C2216 0.929 . S
H2203 C2217 0.931 . S
H2204 C2219 0.930 . S
C2205 H2193 0.930 . S
C2205 C2206 1.399 . S
C2205 C2210 1.399 . S
C2206 C2205 1.399 . S
C2206 C2207 1.376 . S
C2207 H2194 0.930 . S
C2207 C2206 1.376 . S
C2207 C2208 1.388 . S
C2208 H2195 0.930 . S
C2208 C2207 1.388 . S
C2208 C2209 1.390 . S
C2209 C2208 1.390 . S
C2209 C2210 1.394 . S
C2209 C2215 1.465 . S
C2210 C2205 1.399 . S
C2210 C2209 1.394 . S
C2210 C2211 1.516 . S
C2211 C2210 1.516 . S
C2211 C2212 1.502 . S
C2211 C2213 1.561 . S
C2211 C2214 1.526 . S
C2212 H2196 0.959 . S
C2212 H2197 0.959 . S
C2212 H2198 0.961 . S
C2212 C2211 1.502 . S
C2213 H2199 0.960 . S
C2213 H2200 0.961 . S
C2213 H2201 0.959 . S
C2213 C2211 1.561 . S
C2214 C2211 1.526 . S
C2214 C2215 1.396 . S
C2214 C2219 1.390 . S
C2215 C2209 1.465 . S
C2215 C2214 1.396 . S
C2215 C2216 1.399 . S
C2216 H2202 0.929 . S
C2216 C2215 1.399 . S
C2216 C2217 1.385 1_655 S
C2217 H2203 0.931 . S
C2217 C2216 1.385 1_455 S
C2217 C2218 1.389 . S
C2218 C2217 1.389 . S
C2218 C2219 1.387 1_455 S
C2219 H2204 0.930 . S
C2219 C2214 1.390 . S
C2219 C2218 1.387 1_655 S
H2220 C2232 0.930 . S
H2221 C2234 0.930 . S
H2222 C2235 0.930 . S
H2223 C2239 0.959 . S
H2224 C2239 0.959 . S
H2225 C2239 0.961 . S
H2226 C2240 0.960 . S
H2227 C2240 0.961 . S
H2228 C2240 0.959 . S
H2229 C2243 0.929 . S
H2230 C2244 0.931 . S
H2231 C2246 0.930 . S
C2232 H2220 0.930 . S
C2232 C2233 1.399 . S
C2232 C2237 1.399 . S
C2233 C2232 1.399 . S
C2233 C2234 1.376 . S
C2234 H2221 0.930 . S
C2234 C2233 1.376 . S
C2234 C2235 1.388 . S
C2235 H2222 0.930 . S
C2235 C2234 1.388 . S
C2235 C2236 1.390 . S
C2236 C2235 1.390 . S
C2236 C2237 1.394 . S
C2236 C2242 1.465 . S
C2237 C2232 1.399 . S
C2237 C2236 1.394 . S
C2237 C2238 1.516 . S
C2238 C2237 1.516 . S
C2238 C2239 1.502 . S
C2238 C2240 1.561 . S
C2238 C2241 1.526 . S
C2239 H2223 0.959 . S
C2239 H2224 0.959 . S
C2239 H2225 0.961 . S
C2239 C2238 1.502 . S
C2240 H2226 0.960 . S
C2240 H2227 0.961 . S
C2240 H2228 0.959 . S
C2240 C2238 1.561 . S
C2241 C2238 1.526 . S
C2241 C2242 1.396 . S
C2241 C2246 1.390 . S
C2242 C2236 1.465 . S
C2242 C2241 1.396 . S
C2242 C2243 1.399 . S
C2243 H2229 0.929 . S
C2243 C2242 1.399 . S
C2243 C2244 1.385 . S
C2244 H2230 0.931 . S
C2244 C2243 1.385 . S
C2244 C2245 1.389 . S
C2245 C2244 1.389 . S
C2245 C2246 1.387 . S
C2246 H2231 0.930 . S
C2246 C2241 1.390 . S
C2246 C2245 1.387 . S
H2247 C2259 0.930 . S
H2248 C2261 0.930 . S
H2249 C2262 0.930 . S
H2250 C2266 0.959 . S
H2251 C2266 0.959 . S
H2252 C2266 0.961 . S
H2253 C2267 0.960 . S
H2254 C2267 0.961 . S
H2255 C2267 0.959 . S
H2256 C2270 0.929 . S
H2257 C2271 0.931 . S
H2258 C2273 0.930 . S
C2259 H2247 0.930 . S
C2259 C2260 1.399 . S
C2259 C2264 1.399 . S
C2260 C2259 1.399 . S
C2260 C2261 1.376 . S
C2261 H2248 0.930 . S
C2261 C2260 1.376 . S
C2261 C2262 1.388 . S
C2262 H2249 0.930 . S
C2262 C2261 1.388 . S
C2262 C2263 1.390 . S
C2263 C2262 1.390 . S
C2263 C2264 1.394 . S
C2263 C2269 1.465 . S
C2264 C2259 1.399 . S
C2264 C2263 1.394 . S
C2264 C2265 1.516 . S
C2265 C2264 1.516 . S
C2265 C2266 1.502 . S
C2265 C2267 1.561 . S
C2265 C2268 1.526 . S
C2266 H2250 0.959 . S
C2266 H2251 0.959 . S
C2266 H2252 0.961 . S
C2266 C2265 1.502 . S
C2267 H2253 0.960 . S
C2267 H2254 0.961 . S
C2267 H2255 0.959 . S
C2267 C2265 1.561 . S
C2268 C2265 1.526 . S
C2268 C2269 1.396 . S
C2268 C2273 1.390 . S
C2269 C2263 1.465 . S
C2269 C2268 1.396 . S
C2269 C2270 1.399 . S
C2270 H2256 0.929 . S
C2270 C2269 1.399 . S
C2270 C2271 1.385 . S
C2271 H2257 0.931 . S
C2271 C2270 1.385 . S
C2271 C2272 1.389 . S
C2272 C2271 1.389 . S
C2272 C2273 1.387 . S
C2273 H2258 0.930 . S
C2273 C2268 1.390 . S
C2273 C2272 1.387 . S
H2274 C2286 0.930 . S
H2275 C2288 0.930 . S
H2276 C2289 0.930 . S
H2277 C2293 0.959 . S
H2278 C2293 0.959 . S
H2279 C2293 0.961 . S
H2280 C2294 0.960 . S
H2281 C2294 0.961 . S
H2282 C2294 0.959 . S
H2283 C2297 0.929 . S
H2284 C2298 0.931 . S
H2285 C2300 0.930 . S
C2286 H2274 0.930 . S
C2286 C2287 1.399 . S
C2286 C2291 1.399 . S
C2287 C2286 1.399 . S
C2287 C2288 1.376 . S
C2288 H2275 0.930 . S
C2288 C2287 1.376 . S
C2288 C2289 1.388 . S
C2289 H2276 0.930 . S
C2289 C2288 1.388 . S
C2289 C2290 1.390 . S
C2290 C2289 1.390 . S
C2290 C2291 1.394 . S
C2290 C2296 1.465 . S
C2291 C2286 1.399 . S
C2291 C2290 1.394 . S
C2291 C2292 1.516 . S
C2292 C2291 1.516 . S
C2292 C2293 1.502 . S
C2292 C2294 1.561 . S
C2292 C2295 1.526 . S
C2293 H2277 0.959 . S
C2293 H2278 0.959 . S
C2293 H2279 0.961 . S
C2293 C2292 1.502 . S
C2294 H2280 0.960 . S
C2294 H2281 0.961 . S
C2294 H2282 0.959 . S
C2294 C2292 1.561 . S
C2295 C2292 1.526 . S
C2295 C2296 1.396 . S
C2295 C2300 1.390 . S
C2296 C2290 1.465 . S
C2296 C2295 1.396 . S
C2296 C2297 1.399 . S
C2297 H2283 0.929 . S
C2297 C2296 1.399 . S
C2297 C2298 1.385 . S
C2298 H2284 0.931 . S
C2298 C2297 1.385 . S
C2298 C2299 1.389 . S
C2299 C2298 1.389 . S
C2299 C2300 1.387 . S
C2300 H2285 0.930 . S
C2300 C2295 1.390 . S
C2300 C2299 1.387 . S
H2301 C2313 0.930 . S
H2302 C2315 0.930 . S
H2303 C2316 0.930 . S
H2304 C2320 0.959 . S
H2305 C2320 0.959 . S
H2306 C2320 0.961 . S
H2307 C2321 0.960 . S
H2308 C2321 0.961 . S
H2309 C2321 0.959 . S
H2310 C2324 0.929 . S
H2311 C2325 0.931 . S
H2312 C2327 0.930 . S
C2313 H2301 0.930 . S
C2313 C2314 1.399 . S
C2313 C2318 1.399 . S
C2314 C2313 1.399 . S
C2314 C2315 1.376 . S
C2315 H2302 0.930 . S
C2315 C2314 1.376 . S
C2315 C2316 1.388 . S
C2316 H2303 0.930 . S
C2316 C2315 1.388 . S
C2316 C2317 1.390 . S
C2317 C2316 1.390 . S
C2317 C2318 1.394 . S
C2317 C2323 1.465 . S
C2318 C2313 1.399 . S
C2318 C2317 1.394 . S
C2318 C2319 1.516 . S
C2319 C2318 1.516 . S
C2319 C2320 1.502 . S
C2319 C2321 1.561 . S
C2319 C2322 1.526 . S
C2320 H2304 0.959 . S
C2320 H2305 0.959 . S
C2320 H2306 0.961 . S
C2320 C2319 1.502 . S
C2321 H2307 0.960 . S
C2321 H2308 0.961 . S
C2321 H2309 0.959 . S
C2321 C2319 1.561 . S
C2322 C2319 1.526 . S
C2322 C2323 1.396 . S
C2322 C2327 1.390 . S
C2323 C2317 1.465 . S
C2323 C2322 1.396 . S
C2323 C2324 1.399 . S
C2324 H2310 0.929 . S
C2324 C2323 1.399 . S
C2324 C2325 1.385 . S
C2325 H2311 0.931 . S
C2325 C2324 1.385 . S
C2325 C2326 1.389 . S
C2326 C2325 1.389 . S
C2326 C2327 1.387 . S
C2327 H2312 0.930 . S
C2327 C2322 1.390 . S
C2327 C2326 1.387 . S
H2328 C2340 0.930 . S
H2329 C2342 0.930 . S
H2330 C2343 0.930 . S
H2331 C2347 0.959 . S
H2332 C2347 0.927 1_556 S
H2333 C2347 0.961 . S
H2334 C2348 0.960 1_556 S
H2335 C2348 0.961 1_556 S
H2336 C2348 0.959 . S
H2337 C2351 0.929 . S
H2338 C2352 0.931 . S
H2339 C2354 0.930 . S
C2340 H2328 0.930 . S
C2340 C2341 1.399 . S
C2340 C2345 1.399 . S
C2341 C2340 1.399 . S
C2341 C2342 1.376 . S
C2342 H2329 0.930 . S
C2342 C2341 1.376 . S
C2342 C2343 1.388 . S
C2343 H2330 0.930 . S
C2343 C2342 1.388 . S
C2343 C2344 1.390 . S
C2344 C2343 1.390 . S
C2344 C2345 1.394 . S
C2344 C2350 1.465 . S
C2345 C2340 1.399 . S
C2345 C2344 1.394 . S
C2345 C2346 1.516 . S
C2346 C2345 1.516 . S
C2346 C2347 1.502 . S
C2346 C2348 1.561 . S
C2346 C2349 1.526 . S
C2347 H2331 0.959 . S
C2347 H2332 0.927 1_554 S
C2347 H2333 0.961 . S
C2347 C2346 1.502 . S
C2348 H2334 0.960 1_554 S
C2348 H2335 0.961 1_554 S
C2348 H2336 0.959 . S
C2348 C2346 1.561 . S
C2349 C2346 1.526 . S
C2349 C2350 1.396 . S
C2349 C2354 1.390 . S
C2350 C2344 1.465 . S
C2350 C2349 1.396 . S
C2350 C2351 1.399 . S
C2351 H2337 0.929 . S
C2351 C2350 1.399 . S
C2351 C2352 1.385 . S
C2352 H2338 0.931 . S
C2352 C2351 1.385 . S
C2352 C2353 1.389 . S
C2353 C2352 1.389 . S
C2353 C2354 1.387 . S
C2354 H2339 0.930 . S
C2354 C2349 1.390 . S
C2354 C2353 1.387 . S
H2355 C2367 0.930 . S
H2356 C2369 0.930 . S
H2357 C2370 0.930 . S
H2358 C2374 0.959 . S
H2359 C2374 0.959 . S
H2360 C2374 0.961 . S
H2361 C2375 0.960 . S
H2362 C2375 0.961 . S
H2363 C2375 0.959 . S
H2364 C2378 0.929 . S
H2365 C2379 0.931 . S
H2366 C2381 0.930 . S
C2367 H2355 0.930 . S
C2367 C2368 1.399 . S
C2367 C2372 1.399 . S
C2368 C2367 1.399 . S
C2368 C2369 1.376 . S
C2369 H2356 0.930 . S
C2369 C2368 1.376 . S
C2369 C2370 1.388 . S
C2370 H2357 0.930 . S
C2370 C2369 1.388 . S
C2370 C2371 1.390 . S
C2371 C2370 1.390 . S
C2371 C2372 1.394 . S
C2371 C2377 1.465 . S
C2372 C2367 1.399 . S
C2372 C2371 1.394 . S
C2372 C2373 1.516 . S
C2373 C2372 1.516 . S
C2373 C2374 1.502 . S
C2373 C2375 1.561 . S
C2373 C2376 1.526 . S
C2374 H2358 0.959 . S
C2374 H2359 0.959 . S
C2374 H2360 0.961 . S
C2374 C2373 1.502 . S
C2375 H2361 0.960 . S
C2375 H2362 0.961 . S
C2375 H2363 0.959 . S
C2375 C2373 1.561 . S
C2376 C2373 1.526 . S
C2376 C2377 1.396 . S
C2376 C2381 1.390 . S
C2377 C2371 1.465 . S
C2377 C2376 1.396 . S
C2377 C2378 1.399 . S
C2378 H2364 0.929 . S
C2378 C2377 1.399 . S
C2378 C2379 1.385 . S
C2379 H2365 0.931 . S
C2379 C2378 1.385 . S
C2379 C2380 1.389 . S
C2380 C2379 1.389 . S
C2380 C2381 1.387 . S
C2381 H2366 0.930 . S
C2381 C2376 1.390 . S
C2381 C2380 1.387 . S
H2382 C2394 0.930 . S
H2383 C2396 0.930 . S
H2384 C2397 0.930 . S
H2385 C2401 0.959 . S
H2386 C2401 0.959 . S
H2387 C2401 0.961 . S
H2388 C2402 0.960 . S
H2389 C2402 0.961 . S
H2390 C2402 0.959 . S
H2391 C2405 0.929 . S
H2392 C2406 0.931 . S
H2393 C2408 0.930 . S
C2394 H2382 0.930 . S
C2394 C2395 1.399 . S
C2394 C2399 1.399 . S
C2395 C2394 1.399 . S
C2395 C2396 1.376 . S
C2396 H2383 0.930 . S
C2396 C2395 1.376 . S
C2396 C2397 1.388 . S
C2397 H2384 0.930 . S
C2397 C2396 1.388 . S
C2397 C2398 1.390 . S
C2398 C2397 1.390 . S
C2398 C2399 1.394 . S
C2398 C2404 1.465 . S
C2399 C2394 1.399 . S
C2399 C2398 1.394 . S
C2399 C2400 1.516 . S
C2400 C2399 1.516 . S
C2400 C2401 1.502 . S
C2400 C2402 1.561 . S
C2400 C2403 1.526 . S
C2401 H2385 0.959 . S
C2401 H2386 0.959 . S
C2401 H2387 0.961 . S
C2401 C2400 1.502 . S
C2402 H2388 0.960 . S
C2402 H2389 0.961 . S
C2402 H2390 0.959 . S
C2402 C2400 1.561 . S
C2403 C2400 1.526 . S
C2403 C2404 1.396 . S
C2403 C2408 1.390 . S
C2404 C2398 1.465 . S
C2404 C2403 1.396 . S
C2404 C2405 1.399 . S
C2405 H2391 0.929 . S
C2405 C2404 1.399 . S
C2405 C2406 1.385 . S
C2406 H2392 0.931 . S
C2406 C2405 1.385 . S
C2406 C2407 1.389 . S
C2407 C2406 1.389 . S
C2407 C2408 1.387 . S
C2408 H2393 0.930 . S
C2408 C2403 1.390 . S
C2408 C2407 1.387 . S
H2409 C2421 0.930 . S
H2410 C2423 0.930 . S
H2411 C2424 0.930 . S
H2412 C2428 0.959 . S
H2413 C2428 0.959 . S
H2414 C2428 0.961 . S
H2415 C2429 0.960 . S
H2416 C2429 0.961 . S
H2417 C2429 0.959 . S
H2418 C2432 0.929 . S
H2419 C2433 0.931 . S
H2420 C2435 0.930 . S
C2421 H2409 0.930 . S
C2421 C2422 1.399 . S
C2421 C2426 1.399 . S
C2422 C2421 1.399 . S
C2422 C2423 1.376 . S
C2423 H2410 0.930 . S
C2423 C2422 1.376 . S
C2423 C2424 1.388 . S
C2424 H2411 0.930 . S
C2424 C2423 1.388 . S
C2424 C2425 1.390 . S
C2425 C2424 1.390 . S
C2425 C2426 1.394 . S
C2425 C2431 1.465 . S
C2426 C2421 1.399 . S
C2426 C2425 1.394 . S
C2426 C2427 1.516 . S
C2427 C2426 1.516 . S
C2427 C2428 1.502 . S
C2427 C2429 1.561 . S
C2427 C2430 1.526 . S
C2428 H2412 0.959 . S
C2428 H2413 0.959 . S
C2428 H2414 0.961 . S
C2428 C2427 1.502 . S
C2429 H2415 0.960 . S
C2429 H2416 0.961 . S
C2429 H2417 0.959 . S
C2429 C2427 1.561 . S
C2430 C2427 1.526 . S
C2430 C2431 1.396 . S
C2430 C2435 1.390 . S
C2431 C2425 1.465 . S
C2431 C2430 1.396 . S
C2431 C2432 1.399 . S
C2432 H2418 0.929 . S
C2432 C2431 1.399 . S
C2432 C2433 1.385 . S
C2433 H2419 0.931 . S
C2433 C2432 1.385 . S
C2433 C2434 1.389 . S
C2434 C2433 1.389 . S
C2434 C2435 1.387 . S
C2435 H2420 0.930 . S
C2435 C2430 1.390 . S
C2435 C2434 1.387 . S
H2436 C2448 0.930 . S
H2437 C2450 0.930 . S
H2438 C2451 0.930 . S
H2439 C2455 0.959 . S
H2440 C2455 0.959 . S
H2441 C2455 0.961 . S
H2442 C2456 0.960 . S
H2443 C2456 0.961 . S
H2444 C2456 0.959 . S
H2445 C2459 0.929 . S
H2446 C2460 0.931 . S
H2447 C2462 0.930 . S
C2448 H2436 0.930 . S
C2448 C2449 1.399 . S
C2448 C2453 1.399 . S
C2449 C2448 1.399 . S
C2449 C2450 1.376 . S
C2450 H2437 0.930 . S
C2450 C2449 1.376 . S
C2450 C2451 1.388 . S
C2451 H2438 0.930 . S
C2451 C2450 1.388 . S
C2451 C2452 1.390 . S
C2452 C2451 1.390 . S
C2452 C2453 1.394 . S
C2452 C2458 1.465 . S
C2453 C2448 1.399 . S
C2453 C2452 1.394 . S
C2453 C2454 1.516 . S
C2454 C2453 1.516 . S
C2454 C2455 1.502 . S
C2454 C2456 1.561 . S
C2454 C2457 1.526 . S
C2455 H2439 0.959 . S
C2455 H2440 0.959 . S
C2455 H2441 0.961 . S
C2455 C2454 1.502 . S
C2456 H2442 0.960 . S
C2456 H2443 0.961 . S
C2456 H2444 0.959 . S
C2456 C2454 1.561 . S
C2457 C2454 1.526 . S
C2457 C2458 1.396 . S
C2457 C2462 1.390 . S
C2458 C2452 1.465 . S
C2458 C2457 1.396 . S
C2458 C2459 1.399 . S
C2459 H2445 0.929 . S
C2459 C2458 1.399 . S
C2459 C2460 1.385 . S
C2460 H2446 0.931 . S
C2460 C2459 1.385 . S
C2460 C2461 1.389 . S
C2461 C2460 1.389 . S
C2461 C2462 1.387 . S
C2462 H2447 0.930 . S
C2462 C2457 1.390 . S
C2462 C2461 1.387 . S
H2463 C2475 0.930 . S
H2464 C2477 0.930 . S
H2465 C2478 0.930 . S
H2466 C2482 0.959 . S
H2467 C2482 0.959 . S
H2468 C2482 0.961 . S
H2469 C2483 0.960 . S
H2470 C2483 0.961 . S
H2471 C2483 0.959 . S
H2472 C2486 0.929 . S
H2473 C2487 0.931 . S
H2474 C2489 0.930 . S
C2475 H2463 0.930 . S
C2475 C2476 1.399 . S
C2475 C2480 1.399 . S
C2476 C2475 1.399 . S
C2476 C2477 1.376 . S
C2477 H2464 0.930 . S
C2477 C2476 1.376 . S
C2477 C2478 1.388 . S
C2478 H2465 0.930 . S
C2478 C2477 1.388 . S
C2478 C2479 1.390 . S
C2479 C2478 1.390 . S
C2479 C2480 1.394 . S
C2479 C2485 1.465 . S
C2480 C2475 1.399 . S
C2480 C2479 1.394 . S
C2480 C2481 1.516 . S
C2481 C2480 1.516 . S
C2481 C2482 1.502 . S
C2481 C2483 1.561 . S
C2481 C2484 1.526 . S
C2482 H2466 0.959 . S
C2482 H2467 0.959 . S
C2482 H2468 0.961 . S
C2482 C2481 1.502 . S
C2483 H2469 0.960 . S
C2483 H2470 0.961 . S
C2483 H2471 0.959 . S
C2483 C2481 1.561 . S
C2484 C2481 1.526 . S
C2484 C2485 1.396 . S
C2484 C2489 1.390 . S
C2485 C2479 1.465 . S
C2485 C2484 1.396 . S
C2485 C2486 1.399 . S
C2486 H2472 0.929 . S
C2486 C2485 1.399 . S
C2486 C2487 1.385 . S
C2487 H2473 0.931 . S
C2487 C2486 1.385 . S
C2487 C2488 1.389 . S
C2488 C2487 1.389 . S
C2488 C2489 1.387 . S
C2489 H2474 0.930 . S
C2489 C2484 1.390 . S
C2489 C2488 1.387 . S
H2490 C2502 0.930 . S
H2491 C2504 0.930 . S
H2492 C2505 0.930 . S
H2493 C2509 0.959 . S
H2494 C2509 0.959 1_554 S
H2495 C2509 0.961 . S
H2496 C2510 0.960 . S
H2497 C2510 0.961 1_554 S
H2498 C2510 0.959 . S
H2499 C2513 0.929 . S
H2500 C2514 0.931 . S
H2501 C2516 0.930 1_554 S
C2502 H2490 0.930 . S
C2502 C2503 1.399 . S
C2502 C2507 1.399 . S
C2503 C2502 1.399 . S
C2503 C2504 1.376 . S
C2504 H2491 0.930 . S
C2504 C2503 1.376 . S
C2504 C2505 1.388 . S
C2505 H2492 0.930 . S
C2505 C2504 1.388 . S
C2505 C2506 1.390 . S
C2506 C2505 1.390 . S
C2506 C2507 1.394 . S
C2506 C2512 1.465 . S
C2507 C2502 1.399 . S
C2507 C2506 1.394 . S
C2507 C2508 1.516 . S
C2508 C2507 1.516 . S
C2508 C2509 1.502 . S
C2508 C2510 1.561 . S
C2508 C2511 1.526 . S
C2509 H2493 0.959 . S
C2509 H2494 0.959 1_556 S
C2509 H2495 0.961 . S
C2509 C2508 1.502 . S
C2510 H2496 0.960 . S
C2510 H2497 0.961 1_556 S
C2510 H2498 0.959 . S
C2510 C2508 1.561 . S
C2511 C2508 1.526 . S
C2511 C2512 1.396 . S
C2511 C2516 1.390 . S
C2512 C2506 1.465 . S
C2512 C2511 1.396 . S
C2512 C2513 1.399 . S
C2513 H2499 0.929 . S
C2513 C2512 1.399 . S
C2513 C2514 1.385 . S
C2514 H2500 0.931 . S
C2514 C2513 1.385 . S
C2514 C2515 1.389 . S
C2515 C2514 1.389 . S
C2515 C2516 1.387 . S
C2516 H2501 0.930 1_556 S
C2516 C2511 1.390 . S
C2516 C2515 1.387 . S
H2517 C2529 0.930 . S
H2518 C2531 0.930 . S
H2519 C2532 0.930 . S
H2520 C2536 0.959 . S
H2521 C2536 0.959 . S
H2522 C2536 0.961 . S
H2523 C2537 0.960 . S
H2524 C2537 0.961 . S
H2525 C2537 0.959 . S
H2526 C2540 0.929 . S
H2527 C2541 0.931 . S
H2528 C2543 0.930 . S
C2529 H2517 0.930 . S
C2529 C2530 1.399 . S
C2529 C2534 1.399 . S
C2530 C2529 1.399 . S
C2530 C2531 1.376 . S
C2531 H2518 0.930 . S
C2531 C2530 1.376 . S
C2531 C2532 1.388 . S
C2532 H2519 0.930 . S
C2532 C2531 1.388 . S
C2532 C2533 1.390 . S
C2533 C2532 1.390 . S
C2533 C2534 1.394 . S
C2533 C2539 1.465 . S
C2534 C2529 1.399 . S
C2534 C2533 1.394 . S
C2534 C2535 1.516 . S
C2535 C2534 1.516 . S
C2535 C2536 1.502 . S
C2535 C2537 1.561 . S
C2535 C2538 1.526 . S
C2536 H2520 0.959 . S
C2536 H2521 0.959 . S
C2536 H2522 0.961 . S
C2536 C2535 1.502 . S
C2537 H2523 0.960 . S
C2537 H2524 0.961 . S
C2537 H2525 0.959 . S
C2537 C2535 1.561 . S
C2538 C2535 1.526 . S
C2538 C2539 1.396 . S
C2538 C2543 1.390 . S
C2539 C2533 1.465 . S
C2539 C2538 1.396 . S
C2539 C2540 1.399 . S
C2540 H2526 0.929 . S
C2540 C2539 1.399 . S
C2540 C2541 1.385 . S
C2541 H2527 0.931 . S
C2541 C2540 1.385 . S
C2541 C2542 1.389 . S
C2542 C2541 1.389 . S
C2542 C2543 1.387 . S
C2543 H2528 0.930 . S
C2543 C2538 1.390 . S
C2543 C2542 1.387 . S
H2544 C2556 0.930 . S
H2545 C2558 0.930 . S
H2546 C2559 0.930 . S
H2547 C2563 0.959 . S
H2548 C2563 0.959 . S
H2549 C2563 0.961 . S
H2550 C2564 0.960 . S
H2551 C2564 0.961 . S
H2552 C2564 0.959 . S
H2553 C2567 0.929 . S
H2554 C2568 0.931 . S
H2555 C2570 0.930 . S
C2556 H2544 0.930 . S
C2556 C2557 1.399 1_565 S
C2556 C2561 1.399 . S
C2557 C2556 1.399 1_545 S
C2557 C2558 1.376 . S
C2558 H2545 0.930 . S
C2558 C2557 1.376 . S
C2558 C2559 1.388 . S
C2559 H2546 0.930 . S
C2559 C2558 1.388 . S
C2559 C2560 1.390 . S
C2560 C2559 1.390 . S
C2560 C2561 1.394 1_545 S
C2560 C2566 1.465 . S
C2561 C2556 1.399 . S
C2561 C2560 1.394 1_565 S
C2561 C2562 1.516 . S
C2562 C2561 1.516 . S
C2562 C2563 1.502 . S
C2562 C2564 1.561 . S
C2562 C2565 1.526 . S
C2563 H2547 0.959 . S
C2563 H2548 0.959 . S
C2563 H2549 0.961 . S
C2563 C2562 1.502 . S
C2564 H2550 0.960 . S
C2564 H2551 0.961 . S
C2564 H2552 0.959 . S
C2564 C2562 1.561 . S
C2565 C2562 1.526 . S
C2565 C2566 1.396 1_565 S
C2565 C2570 1.390 . S
C2566 C2560 1.465 . S
C2566 C2565 1.396 1_545 S
C2566 C2567 1.399 . S
C2567 H2553 0.929 . S
C2567 C2566 1.399 . S
C2567 C2568 1.385 . S
C2568 H2554 0.931 . S
C2568 C2567 1.385 . S
C2568 C2569 1.389 . S
C2569 C2568 1.389 . S
C2569 C2570 1.387 1_545 S
C2570 H2555 0.930 . S
C2570 C2565 1.390 . S
C2570 C2569 1.387 1_565 S
H2571 C2583 0.930 . S
H2572 C2585 0.930 . S
H2573 C2586 0.930 . S
H2574 C2590 0.959 . S
H2575 C2590 0.959 . S
H2576 C2590 0.961 . S
H2577 C2591 0.960 . S
H2578 C2591 0.961 . S
H2579 C2591 0.959 . S
H2580 C2594 0.929 . S
H2581 C2595 0.931 . S
H2582 C2597 0.930 . S
C2583 H2571 0.930 . S
C2583 C2584 1.399 . S
C2583 C2588 1.399 . S
C2584 C2583 1.399 . S
C2584 C2585 1.376 . S
C2585 H2572 0.930 . S
C2585 C2584 1.376 . S
C2585 C2586 1.388 . S
C2586 H2573 0.930 . S
C2586 C2585 1.388 . S
C2586 C2587 1.390 . S
C2587 C2586 1.390 . S
C2587 C2588 1.394 . S
C2587 C2593 1.465 . S
C2588 C2583 1.399 . S
C2588 C2587 1.394 . S
C2588 C2589 1.516 . S
C2589 C2588 1.516 . S
C2589 C2590 1.502 . S
C2589 C2591 1.561 . S
C2589 C2592 1.526 . S
C2590 H2574 0.959 . S
C2590 H2575 0.959 . S
C2590 H2576 0.961 . S
C2590 C2589 1.502 . S
C2591 H2577 0.960 . S
C2591 H2578 0.961 . S
C2591 H2579 0.959 . S
C2591 C2589 1.561 . S
C2592 C2589 1.526 . S
C2592 C2593 1.396 . S
C2592 C2597 1.390 . S
C2593 C2587 1.465 . S
C2593 C2592 1.396 . S
C2593 C2594 1.399 . S
C2594 H2580 0.929 . S
C2594 C2593 1.399 . S
C2594 C2595 1.385 . S
C2595 H2581 0.931 . S
C2595 C2594 1.385 . S
C2595 C2596 1.389 . S
C2596 C2595 1.389 . S
C2596 C2597 1.387 . S
C2597 H2582 0.930 . S
C2597 C2592 1.390 . S
C2597 C2596 1.387 . S
H2598 C2610 0.930 . S
H2599 C2612 0.930 1_565 S
H2600 C2613 0.944 . S
H2601 C2617 0.959 . S
H2602 C2617 0.959 . S
H2603 C2617 0.961 . S
H2604 C2618 0.960 . S
H2605 C2618 0.961 . S
H2606 C2618 0.959 . S
H2607 C2621 0.929 1_565 S
H2608 C2622 0.955 . S
H2609 C2624 0.930 . S
C2610 H2598 0.930 . S
C2610 C2611 1.399 . S
C2610 C2615 1.399 . S
C2611 C2610 1.399 . S
C2611 C2612 1.376 . S
C2612 H2599 0.930 1_545 S
C2612 C2611 1.376 . S
C2612 C2613 1.382 1_545 S
C2613 H2600 0.944 . S
C2613 C2612 1.382 1_565 S
C2613 C2614 1.381 1_565 S
C2614 C2613 1.381 1_545 S
C2614 C2615 1.394 . S
C2614 C2620 1.465 . S
C2615 C2610 1.399 . S
C2615 C2614 1.394 . S
C2615 C2616 1.516 . S
C2616 C2615 1.516 . S
C2616 C2617 1.502 . S
C2616 C2618 1.561 . S
C2616 C2619 1.526 . S
C2617 H2601 0.959 . S
C2617 H2602 0.959 . S
C2617 H2603 0.961 . S
C2617 C2616 1.502 . S
C2618 H2604 0.960 . S
C2618 H2605 0.961 . S
C2618 H2606 0.959 . S
C2618 C2616 1.561 . S
C2619 C2616 1.526 . S
C2619 C2620 1.396 . S
C2619 C2624 1.390 . S
C2620 C2614 1.465 . S
C2620 C2619 1.396 . S
C2620 C2621 1.399 . S
C2621 H2607 0.929 1_545 S
C2621 C2620 1.399 . S
C2621 C2622 1.385 . S
C2622 H2608 0.955 . S
C2622 C2621 1.385 . S
C2622 C2623 1.389 . S
C2623 C2622 1.389 . S
C2623 C2624 1.387 . S
C2624 H2609 0.930 . S
C2624 C2619 1.390 . S
C2624 C2623 1.387 . S
H2625 C2637 0.930 . S
H2626 C2639 0.930 . S
H2627 C2640 0.930 . S
H2628 C2644 0.959 . S
H2629 C2644 0.959 . S
H2630 C2644 0.961 . S
H2631 C2645 0.960 . S
H2632 C2645 0.961 . S
H2633 C2645 0.959 . S
H2634 C2648 0.929 . S
H2635 C2649 0.931 . S
H2636 C2651 0.930 . S
C2637 H2625 0.930 . S
C2637 C2638 1.399 . S
C2637 C2642 1.399 . S
C2638 C2637 1.399 . S
C2638 C2639 1.376 . S
C2639 H2626 0.930 . S
C2639 C2638 1.376 . S
C2639 C2640 1.388 . S
C2640 H2627 0.930 . S
C2640 C2639 1.388 . S
C2640 C2641 1.390 . S
C2641 C2640 1.390 . S
C2641 C2642 1.394 . S
C2641 C2647 1.465 . S
C2642 C2637 1.399 . S
C2642 C2641 1.394 . S
C2642 C2643 1.516 . S
C2643 C2642 1.516 . S
C2643 C2644 1.502 . S
C2643 C2645 1.561 . S
C2643 C2646 1.526 . S
C2644 H2628 0.959 . S
C2644 H2629 0.959 . S
C2644 H2630 0.961 . S
C2644 C2643 1.502 . S
C2645 H2631 0.960 . S
C2645 H2632 0.961 . S
C2645 H2633 0.959 . S
C2645 C2643 1.561 . S
C2646 C2643 1.526 . S
C2646 C2647 1.396 . S
C2646 C2651 1.390 . S
C2647 C2641 1.465 . S
C2647 C2646 1.396 . S
C2647 C2648 1.399 . S
C2648 H2634 0.929 . S
C2648 C2647 1.399 . S
C2648 C2649 1.385 . S
C2649 H2635 0.931 . S
C2649 C2648 1.385 . S
C2649 C2650 1.389 . S
C2650 C2649 1.389 . S
C2650 C2651 1.387 . S
C2651 H2636 0.930 . S
C2651 C2646 1.390 . S
C2651 C2650 1.387 . S
H2652 C2664 0.930 . S
H2653 C2666 0.930 . S
H2654 C2667 0.930 . S
H2655 C2671 0.959 . S
H2656 C2671 0.959 . S
H2657 C2671 0.961 . S
H2658 C2672 0.960 . S
H2659 C2672 0.961 . S
H2660 C2672 0.959 . S
H2661 C2675 0.941 . S
H2662 C2676 0.931 . S
H2663 C2678 0.930 . S
C2664 H2652 0.930 . S
C2664 C2665 1.399 1_545 S
C2664 C2669 1.399 . S
C2665 C2664 1.399 1_565 S
C2665 C2666 1.376 . S
C2666 H2653 0.930 . S
C2666 C2665 1.376 . S
C2666 C2667 1.388 . S
C2667 H2654 0.930 . S
C2667 C2666 1.388 . S
C2667 C2668 1.390 1_565 S
C2668 C2667 1.390 1_545 S
C2668 C2669 1.394 . S
C2668 C2674 1.465 . S
C2669 C2664 1.399 . S
C2669 C2668 1.394 . S
C2669 C2670 1.516 . S
C2670 C2669 1.516 . S
C2670 C2671 1.502 . S
C2670 C2672 1.561 . S
C2670 C2673 1.526 . S
C2671 H2655 0.959 . S
C2671 H2656 0.959 . S
C2671 H2657 0.961 . S
C2671 C2670 1.502 . S
C2672 H2658 0.960 . S
C2672 H2659 0.961 . S
C2672 H2660 0.959 . S
C2672 C2670 1.561 . S
C2673 C2670 1.526 . S
C2673 C2674 1.396 . S
C2673 C2678 1.390 . S
C2674 C2668 1.465 . S
C2674 C2673 1.396 . S
C2674 C2675 1.397 1_545 S
C2675 H2661 0.941 . S
C2675 C2674 1.397 1_565 S
C2675 C2676 1.376 1_565 S
C2676 H2662 0.931 . S
C2676 C2675 1.376 1_545 S
C2676 C2677 1.389 . S
C2677 C2676 1.389 . S
C2677 C2678 1.387 . S
C2678 H2663 0.930 . S
C2678 C2673 1.390 . S
C2678 C2677 1.387 . S
H2679 C2691 0.930 . S
H2680 C2693 0.930 . S
H2681 C2694 0.930 . S
H2682 C2698 0.959 . S
H2683 C2698 0.959 . S
H2684 C2698 0.961 . S
H2685 C2699 0.960 . S
H2686 C2699 0.961 . S
H2687 C2699 0.959 . S
H2688 C2702 0.929 . S
H2689 C2703 0.931 . S
H2690 C2705 0.930 . S
C2691 H2679 0.930 . S
C2691 C2692 1.399 . S
C2691 C2696 1.399 . S
C2692 C2691 1.399 . S
C2692 C2693 1.376 . S
C2693 H2680 0.930 . S
C2693 C2692 1.376 . S
C2693 C2694 1.388 . S
C2694 H2681 0.930 . S
C2694 C2693 1.388 . S
C2694 C2695 1.390 . S
C2695 C2694 1.390 . S
C2695 C2696 1.394 . S
C2695 C2701 1.465 . S
C2696 C2691 1.399 . S
C2696 C2695 1.394 . S
C2696 C2697 1.516 . S
C2697 C2696 1.516 . S
C2697 C2698 1.502 . S
C2697 C2699 1.561 . S
C2697 C2700 1.526 . S
C2698 H2682 0.959 . S
C2698 H2683 0.959 . S
C2698 H2684 0.961 . S
C2698 C2697 1.502 . S
C2699 H2685 0.960 . S
C2699 H2686 0.961 . S
C2699 H2687 0.959 . S
C2699 C2697 1.561 . S
C2700 C2697 1.526 . S
C2700 C2701 1.396 . S
C2700 C2705 1.390 . S
C2701 C2695 1.465 . S
C2701 C2700 1.396 . S
C2701 C2702 1.399 . S
C2702 H2688 0.929 . S
C2702 C2701 1.399 . S
C2702 C2703 1.385 . S
C2703 H2689 0.931 . S
C2703 C2702 1.385 . S
C2703 C2704 1.389 . S
C2704 C2703 1.389 . S
C2704 C2705 1.387 . S
C2705 H2690 0.930 . S
C2705 C2700 1.390 . S
C2705 C2704 1.387 . S
H2706 C2718 0.930 . S
H2707 C2720 0.927 1_565 S
H2708 C2721 0.930 1_565 S
H2709 C2725 0.959 . S
H2710 C2725 0.959 . S
H2711 C2725 0.961 . S
H2712 C2726 0.960 . S
H2713 C2726 0.961 . S
H2714 C2726 0.959 . S
H2715 C2729 0.899 1_565 S
H2716 C2730 0.931 . S
H2717 C2732 0.930 . S
C2718 H2706 0.930 . S
C2718 C2719 1.399 . S
C2718 C2723 1.399 . S
C2719 C2718 1.399 . S
C2719 C2720 1.376 . S
C2720 H2707 0.927 1_545 S
C2720 C2719 1.376 . S
C2720 C2721 1.388 . S
C2721 H2708 0.930 1_545 S
C2721 C2720 1.388 . S
C2721 C2722 1.390 . S
C2722 C2721 1.390 . S
C2722 C2723 1.394 . S
C2722 C2728 1.465 . S
C2723 C2718 1.399 . S
C2723 C2722 1.394 . S
C2723 C2724 1.516 . S
C2724 C2723 1.516 . S
C2724 C2725 1.502 . S
C2724 C2726 1.561 . S
C2724 C2727 1.526 . S
C2725 H2709 0.959 . S
C2725 H2710 0.959 . S
C2725 H2711 0.961 . S
C2725 C2724 1.502 . S
C2726 H2712 0.960 . S
C2726 H2713 0.961 . S
C2726 H2714 0.959 . S
C2726 C2724 1.561 . S
C2727 C2724 1.526 . S
C2727 C2728 1.396 . S
C2727 C2732 1.390 . S
C2728 C2722 1.465 . S
C2728 C2727 1.396 . S
C2728 C2729 1.399 . S
C2729 H2715 0.899 1_545 S
C2729 C2728 1.399 . S
C2729 C2730 1.385 . S
C2730 H2716 0.931 . S
C2730 C2729 1.385 . S
C2730 C2731 1.389 . S
C2731 C2730 1.389 . S
C2731 C2732 1.387 . S
C2732 H2717 0.930 . S
C2732 C2727 1.390 . S
C2732 C2731 1.387 . S
H2733 C2745 0.930 . S
H2734 C2747 0.930 . S
H2735 C2748 0.930 . S
H2736 C2752 0.959 . S
H2737 C2752 0.959 . S
H2738 C2752 0.961 . S
H2739 C2753 0.960 . S
H2740 C2753 0.961 . S
H2741 C2753 0.959 . S
H2742 C2756 0.929 . S
H2743 C2757 0.931 . S
H2744 C2759 0.930 . S
C2745 H2733 0.930 . S
C2745 C2746 1.399 . S
C2745 C2750 1.399 . S
C2746 C2745 1.399 . S
C2746 C2747 1.376 . S
C2747 H2734 0.930 . S
C2747 C2746 1.376 . S
C2747 C2748 1.388 . S
C2748 H2735 0.930 . S
C2748 C2747 1.388 . S
C2748 C2749 1.390 . S
C2749 C2748 1.390 . S
C2749 C2750 1.394 . S
C2749 C2755 1.465 . S
C2750 C2745 1.399 . S
C2750 C2749 1.394 . S
C2750 C2751 1.516 . S
C2751 C2750 1.516 . S
C2751 C2752 1.502 . S
C2751 C2753 1.561 . S
C2751 C2754 1.526 . S
C2752 H2736 0.959 . S
C2752 H2737 0.959 . S
C2752 H2738 0.961 . S
C2752 C2751 1.502 . S
C2753 H2739 0.960 . S
C2753 H2740 0.961 . S
C2753 H2741 0.959 . S
C2753 C2751 1.561 . S
C2754 C2751 1.526 . S
C2754 C2755 1.396 . S
C2754 C2759 1.390 . S
C2755 C2749 1.465 . S
C2755 C2754 1.396 . S
C2755 C2756 1.399 . S
C2756 H2742 0.929 . S
C2756 C2755 1.399 . S
C2756 C2757 1.385 . S
C2757 H2743 0.931 . S
C2757 C2756 1.385 . S
C2757 C2758 1.389 . S
C2758 C2757 1.389 . S
C2758 C2759 1.387 . S
C2759 H2744 0.930 . S
C2759 C2754 1.390 . S
C2759 C2758 1.387 . S
H2760 C2772 0.930 1_556 S
H2761 C2774 0.930 . S
H2762 C2775 0.930 . S
H2763 C2779 0.959 . S
H2764 C2779 0.959 . S
H2765 C2779 0.961 . S
H2766 C2780 0.960 . S
H2767 C2780 0.961 . S
H2768 C2780 0.959 1_554 S
H2769 C2783 0.929 . S
H2770 C2784 0.931 . S
H2771 C2786 0.946 . S
C2772 H2760 0.930 1_554 S
C2772 C2773 1.399 . S
C2772 C2777 1.399 . S
C2773 C2772 1.399 . S
C2773 C2774 1.376 . S
C2774 H2761 0.930 . S
C2774 C2773 1.376 . S
C2774 C2775 1.388 . S
C2775 H2762 0.930 . S
C2775 C2774 1.388 . S
C2775 C2776 1.390 . S
C2776 C2775 1.390 . S
C2776 C2777 1.394 . S
C2776 C2782 1.465 . S
C2777 C2772 1.399 . S
C2777 C2776 1.394 . S
C2777 C2778 1.516 1_554 S
C2778 C2777 1.516 1_556 S
C2778 C2779 1.502 . S
C2778 C2780 1.561 . S
C2778 C2781 1.526 1_556 S
C2779 H2763 0.959 . S
C2779 H2764 0.959 . S
C2779 H2765 0.961 . S
C2779 C2778 1.502 . S
C2780 H2766 0.960 . S
C2780 H2767 0.961 . S
C2780 H2768 0.959 1_556 S
C2780 C2778 1.561 . S
C2781 C2778 1.526 1_554 S
C2781 C2782 1.396 . S
C2781 C2786 1.385 1_554 S
C2782 C2776 1.465 . S
C2782 C2781 1.396 . S
C2782 C2783 1.399 . S
C2783 H2769 0.929 . S
C2783 C2782 1.399 . S
C2783 C2784 1.385 . S
C2784 H2770 0.931 . S
C2784 C2783 1.385 . S
C2784 C2785 1.389 . S
C2785 C2784 1.389 . S
C2785 C2786 1.376 1_554 S
C2786 H2771 0.946 . S
C2786 C2781 1.385 1_556 S
C2786 C2785 1.376 1_556 S
H2787 C2799 0.930 . S
H2788 C2801 0.930 . S
H2789 C2802 0.930 . S
H2790 C2806 0.959 . S
H2791 C2806 0.959 . S
H2792 C2806 0.961 . S
H2793 C2807 0.959 . S
H2794 C2807 0.963 . S
H2795 C2807 0.959 1_556 S
H2796 C2810 0.929 . S
H2797 C2811 0.931 . S
H2798 C2813 0.930 . S
C2799 H2787 0.930 . S
C2799 C2800 1.399 . S
C2799 C2804 1.399 . S
C2800 C2799 1.399 . S
C2800 C2801 1.376 . S
C2801 H2788 0.930 . S
C2801 C2800 1.376 . S
C2801 C2802 1.388 . S
C2802 H2789 0.930 . S
C2802 C2801 1.388 . S
C2802 C2803 1.390 . S
C2803 C2802 1.390 . S
C2803 C2804 1.394 . S
C2803 C2809 1.465 . S
C2804 C2799 1.399 . S
C2804 C2803 1.394 . S
C2804 C2805 1.516 . S
C2805 C2804 1.516 . S
C2805 C2806 1.502 . S
C2805 C2807 1.561 . S
C2805 C2808 1.526 . S
C2806 H2790 0.959 . S
C2806 H2791 0.959 . S
C2806 H2792 0.961 . S
C2806 C2805 1.502 . S
C2807 H2793 0.959 . S
C2807 H2794 0.963 . S
C2807 H2795 0.959 1_554 S
C2807 C2805 1.561 . S
C2808 C2805 1.526 . S
C2808 C2809 1.396 . S
C2808 C2813 1.390 . S
C2809 C2803 1.465 . S
C2809 C2808 1.396 . S
C2809 C2810 1.399 . S
C2810 H2796 0.929 . S
C2810 C2809 1.399 . S
C2810 C2811 1.385 . S
C2811 H2797 0.931 . S
C2811 C2810 1.385 . S
C2811 C2812 1.389 . S
C2812 C2811 1.389 . S
C2812 C2813 1.387 . S
C2813 H2798 0.930 . S
C2813 C2808 1.390 . S
C2813 C2812 1.387 . S
H2814 C2826 0.930 . S
H2815 C2828 0.930 . S
H2816 C2829 0.930 . S
H2817 C2833 0.959 . S
H2818 C2833 0.959 . S
H2819 C2833 0.961 . S
H2820 C2834 0.960 . S
H2821 C2834 0.961 . S
H2822 C2834 0.959 . S
H2823 C2837 0.929 . S
H2824 C2838 0.931 . S
H2825 C2840 0.930 . S
C2826 H2814 0.930 . S
C2826 C2827 1.399 . S
C2826 C2831 1.399 . S
C2827 C2826 1.399 . S
C2827 C2828 1.376 . S
C2828 H2815 0.930 . S
C2828 C2827 1.376 . S
C2828 C2829 1.388 . S
C2829 H2816 0.930 . S
C2829 C2828 1.388 . S
C2829 C2830 1.390 . S
C2830 C2829 1.390 . S
C2830 C2831 1.394 . S
C2830 C2836 1.465 . S
C2831 C2826 1.399 . S
C2831 C2830 1.394 . S
C2831 C2832 1.516 . S
C2832 C2831 1.516 . S
C2832 C2833 1.502 . S
C2832 C2834 1.561 . S
C2832 C2835 1.526 . S
C2833 H2817 0.959 . S
C2833 H2818 0.959 . S
C2833 H2819 0.961 . S
C2833 C2832 1.502 . S
C2834 H2820 0.960 . S
C2834 H2821 0.961 . S
C2834 H2822 0.959 . S
C2834 C2832 1.561 . S
C2835 C2832 1.526 . S
C2835 C2836 1.396 . S
C2835 C2840 1.390 . S
C2836 C2830 1.465 . S
C2836 C2835 1.396 . S
C2836 C2837 1.399 . S
C2837 H2823 0.929 . S
C2837 C2836 1.399 . S
C2837 C2838 1.385 . S
C2838 H2824 0.931 . S
C2838 C2837 1.385 . S
C2838 C2839 1.389 . S
C2839 C2838 1.389 . S
C2839 C2840 1.387 . S
C2840 H2825 0.930 . S
C2840 C2835 1.390 . S
C2840 C2839 1.387 . S
H2841 C2853 0.930 . S
H2842 C2855 0.930 . S
H2843 C2856 0.930 . S
H2844 C2860 0.959 . S
H2845 C2860 0.959 . S
H2846 C2860 0.961 . S
H2847 C2861 0.960 . S
H2848 C2861 0.961 . S
H2849 C2861 0.959 . S
H2850 C2864 0.929 . S
H2851 C2865 0.931 . S
H2852 C2867 0.930 . S
C2853 H2841 0.930 . S
C2853 C2854 1.399 . S
C2853 C2858 1.399 . S
C2854 C2853 1.399 . S
C2854 C2855 1.376 . S
C2855 H2842 0.930 . S
C2855 C2854 1.376 . S
C2855 C2856 1.388 . S
C2856 H2843 0.930 . S
C2856 C2855 1.388 . S
C2856 C2857 1.390 . S
C2857 C2856 1.390 . S
C2857 C2858 1.394 . S
C2857 C2863 1.465 . S
C2858 C2853 1.399 . S
C2858 C2857 1.394 . S
C2858 C2859 1.516 . S
C2859 C2858 1.516 . S
C2859 C2860 1.502 . S
C2859 C2861 1.561 . S
C2859 C2862 1.526 . S
C2860 H2844 0.959 . S
C2860 H2845 0.959 . S
C2860 H2846 0.961 . S
C2860 C2859 1.502 . S
C2861 H2847 0.960 . S
C2861 H2848 0.961 . S
C2861 H2849 0.959 . S
C2861 C2859 1.561 . S
C2862 C2859 1.526 . S
C2862 C2863 1.396 . S
C2862 C2867 1.390 . S
C2863 C2857 1.465 . S
C2863 C2862 1.396 . S
C2863 C2864 1.399 . S
C2864 H2850 0.929 . S
C2864 C2863 1.399 . S
C2864 C2865 1.385 . S
C2865 H2851 0.931 . S
C2865 C2864 1.385 . S
C2865 C2866 1.389 . S
C2866 C2865 1.389 . S
C2866 C2867 1.387 . S
C2867 H2852 0.930 . S
C2867 C2862 1.390 . S
C2867 C2866 1.387 . S
H2868 C2880 0.930 1_545 S
H2869 C2882 0.930 . S
H2870 C2883 0.930 . S
H2871 C2887 0.959 . S
H2872 C2887 0.959 . S
H2873 C2887 0.961 1_545 S
H2874 C2888 0.960 1_545 S
H2875 C2888 0.961 . S
H2876 C2888 0.959 . S
H2877 C2891 0.929 . S
H2878 C2892 0.931 . S
H2879 C2894 0.930 . S
C2880 H2868 0.930 1_565 S
C2880 C2881 1.399 . S
C2880 C2885 1.399 . S
C2881 C2880 1.399 . S
C2881 C2882 1.376 . S
C2882 H2869 0.930 . S
C2882 C2881 1.376 . S
C2882 C2883 1.388 . S
C2883 H2870 0.930 . S
C2883 C2882 1.388 . S
C2883 C2884 1.390 . S
C2884 C2883 1.390 . S
C2884 C2885 1.394 . S
C2884 C2890 1.465 . S
C2885 C2880 1.399 . S
C2885 C2884 1.394 . S
C2885 C2886 1.516 . S
C2886 C2885 1.516 . S
C2886 C2887 1.502 . S
C2886 C2888 1.561 . S
C2886 C2889 1.526 . S
C2887 H2871 0.959 . S
C2887 H2872 0.959 . S
C2887 H2873 0.961 1_565 S
C2887 C2886 1.502 . S
C2888 H2874 0.960 1_565 S
C2888 H2875 0.961 . S
C2888 H2876 0.959 . S
C2888 C2886 1.561 . S
C2889 C2886 1.526 . S
C2889 C2890 1.396 . S
C2889 C2894 1.390 . S
C2890 C2884 1.465 . S
C2890 C2889 1.396 . S
C2890 C2891 1.399 . S
C2891 H2877 0.929 . S
C2891 C2890 1.399 . S
C2891 C2892 1.385 . S
C2892 H2878 0.931 . S
C2892 C2891 1.385 . S
C2892 C2893 1.389 . S
C2893 C2892 1.389 . S
C2893 C2894 1.387 . S
C2894 H2879 0.930 . S
C2894 C2889 1.390 . S
C2894 C2893 1.387 . S
H2895 C2907 0.930 . S
H2896 C2909 0.930 . S
H2897 C2910 0.930 . S
H2898 C2914 0.959 . S
H2899 C2914 0.959 . S
H2900 C2914 0.961 . S
H2901 C2915 0.960 . S
H2902 C2915 0.961 . S
H2903 C2915 0.959 . S
H2904 C2918 0.929 . S
H2905 C2919 0.931 . S
H2906 C2921 0.930 . S
C2907 H2895 0.930 . S
C2907 C2908 1.399 . S
C2907 C2912 1.399 . S
C2908 C2907 1.399 . S
C2908 C2909 1.376 . S
C2909 H2896 0.930 . S
C2909 C2908 1.376 . S
C2909 C2910 1.388 . S
C2910 H2897 0.930 . S
C2910 C2909 1.388 . S
C2910 C2911 1.390 . S
C2911 C2910 1.390 . S
C2911 C2912 1.394 . S
C2911 C2917 1.465 . S
C2912 C2907 1.399 . S
C2912 C2911 1.394 . S
C2912 C2913 1.516 . S
C2913 C2912 1.516 . S
C2913 C2914 1.502 . S
C2913 C2915 1.561 . S
C2913 C2916 1.526 . S
C2914 H2898 0.959 . S
C2914 H2899 0.959 . S
C2914 H2900 0.961 . S
C2914 C2913 1.502 . S
C2915 H2901 0.960 . S
C2915 H2902 0.961 . S
C2915 H2903 0.959 . S
C2915 C2913 1.561 . S
C2916 C2913 1.526 . S
C2916 C2917 1.396 . S
C2916 C2921 1.390 . S
C2917 C2911 1.465 . S
C2917 C2916 1.396 . S
C2917 C2918 1.399 . S
C2918 H2904 0.929 . S
C2918 C2917 1.399 . S
C2918 C2919 1.385 . S
C2919 H2905 0.931 . S
C2919 C2918 1.385 . S
C2919 C2920 1.389 . S
C2920 C2919 1.389 . S
C2920 C2921 1.387 . S
C2921 H2906 0.930 . S
C2921 C2916 1.390 . S
C2921 C2920 1.387 . S
H2922 C2934 0.930 . S
H2923 C2936 0.930 . S
H2924 C2937 0.930 . S
H2925 C2941 0.959 . S
H2926 C2941 0.959 . S
H2927 C2941 0.961 . S
H2928 C2942 0.960 . S
H2929 C2942 0.961 . S
H2930 C2942 0.959 . S
H2931 C2945 0.929 . S
H2932 C2946 0.931 . S
H2933 C2948 0.930 . S
C2934 H2922 0.930 . S
C2934 C2935 1.399 . S
C2934 C2939 1.399 . S
C2935 C2934 1.399 . S
C2935 C2936 1.376 . S
C2936 H2923 0.930 . S
C2936 C2935 1.376 . S
C2936 C2937 1.388 . S
C2937 H2924 0.930 . S
C2937 C2936 1.388 . S
C2937 C2938 1.390 . S
C2938 C2937 1.390 . S
C2938 C2939 1.394 . S
C2938 C2944 1.465 . S
C2939 C2934 1.399 . S
C2939 C2938 1.394 . S
C2939 C2940 1.516 . S
C2940 C2939 1.516 . S
C2940 C2941 1.502 . S
C2940 C2942 1.561 . S
C2940 C2943 1.526 . S
C2941 H2925 0.959 . S
C2941 H2926 0.959 . S
C2941 H2927 0.961 . S
C2941 C2940 1.502 . S
C2942 H2928 0.960 . S
C2942 H2929 0.961 . S
C2942 H2930 0.959 . S
C2942 C2940 1.561 . S
C2943 C2940 1.526 . S
C2943 C2944 1.396 . S
C2943 C2948 1.390 . S
C2944 C2938 1.465 . S
C2944 C2943 1.396 . S
C2944 C2945 1.399 . S
C2945 H2931 0.929 . S
C2945 C2944 1.399 . S
C2945 C2946 1.385 . S
C2946 H2932 0.931 . S
C2946 C2945 1.385 . S
C2946 C2947 1.389 . S
C2947 C2946 1.389 . S
C2947 C2948 1.387 . S
C2948 H2933 0.930 . S
C2948 C2943 1.390 . S
C2948 C2947 1.387 . S
H2949 C2961 0.930 . S
H2950 C2963 0.930 . S
H2951 C2964 0.930 . S
H2952 C2968 0.959 . S
H2953 C2968 0.959 . S
H2954 C2968 0.961 . S
H2955 C2969 0.960 . S
H2956 C2969 0.961 . S
H2957 C2969 0.959 . S
H2958 C2972 0.929 . S
H2959 C2973 0.931 . S
H2960 C2975 0.930 . S
C2961 H2949 0.930 . S
C2961 C2962 1.399 . S
C2961 C2966 1.399 . S
C2962 C2961 1.399 . S
C2962 C2963 1.376 . S
C2963 H2950 0.930 . S
C2963 C2962 1.376 . S
C2963 C2964 1.388 . S
C2964 H2951 0.930 . S
C2964 C2963 1.388 . S
C2964 C2965 1.390 . S
C2965 C2964 1.390 . S
C2965 C2966 1.394 . S
C2965 C2971 1.465 . S
C2966 C2961 1.399 . S
C2966 C2965 1.394 . S
C2966 C2967 1.516 . S
C2967 C2966 1.516 . S
C2967 C2968 1.502 . S
C2967 C2969 1.561 . S
C2967 C2970 1.526 . S
C2968 H2952 0.959 . S
C2968 H2953 0.959 . S
C2968 H2954 0.961 . S
C2968 C2967 1.502 . S
C2969 H2955 0.960 . S
C2969 H2956 0.961 . S
C2969 H2957 0.959 . S
C2969 C2967 1.561 . S
C2970 C2967 1.526 . S
C2970 C2971 1.396 . S
C2970 C2975 1.390 . S
C2971 C2965 1.465 . S
C2971 C2970 1.396 . S
C2971 C2972 1.399 . S
C2972 H2958 0.929 . S
C2972 C2971 1.399 . S
C2972 C2973 1.385 . S
C2973 H2959 0.931 . S
C2973 C2972 1.385 . S
C2973 C2974 1.389 . S
C2974 C2973 1.389 . S
C2974 C2975 1.387 . S
C2975 H2960 0.930 . S
C2975 C2970 1.390 . S
C2975 C2974 1.387 . S
H2976 C2988 0.930 . S
H2977 C2990 0.930 . S
H2978 C2991 0.930 . S
H2979 C2995 0.959 . S
H2980 C2995 0.959 . S
H2981 C2995 0.961 . S
H2982 C2996 0.960 . S
H2983 C2996 0.961 . S
H2984 C2996 0.959 . S
H2985 C2999 0.929 . S
H2986 C3000 0.931 . S
H2987 C3002 0.930 . S
C2988 H2976 0.930 . S
C2988 C2989 1.399 . S
C2988 C2993 1.399 . S
C2989 C2988 1.399 . S
C2989 C2990 1.376 . S
C2990 H2977 0.930 . S
C2990 C2989 1.376 . S
C2990 C2991 1.388 . S
C2991 H2978 0.930 . S
C2991 C2990 1.388 . S
C2991 C2992 1.390 . S
C2992 C2991 1.390 . S
C2992 C2993 1.394 . S
C2992 C2998 1.465 . S
C2993 C2988 1.399 . S
C2993 C2992 1.394 . S
C2993 C2994 1.516 . S
C2994 C2993 1.516 . S
C2994 C2995 1.502 . S
C2994 C2996 1.561 . S
C2994 C2997 1.526 . S
C2995 H2979 0.959 . S
C2995 H2980 0.959 . S
C2995 H2981 0.961 . S
C2995 C2994 1.502 . S
C2996 H2982 0.960 . S
C2996 H2983 0.961 . S
C2996 H2984 0.959 . S
C2996 C2994 1.561 . S
C2997 C2994 1.526 . S
C2997 C2998 1.396 . S
C2997 C3002 1.390 . S
C2998 C2992 1.465 . S
C2998 C2997 1.396 . S
C2998 C2999 1.399 . S
C2999 H2985 0.929 . S
C2999 C2998 1.399 . S
C2999 C3000 1.385 . S
C3000 H2986 0.931 . S
C3000 C2999 1.385 . S
C3000 C3001 1.389 . S
C3001 C3000 1.389 . S
C3001 C3002 1.387 . S
C3002 H2987 0.930 . S
C3002 C2997 1.390 . S
C3002 C3001 1.387 . S
H3003 C3015 0.930 . S
H3004 C3017 0.930 . S
H3005 C3018 0.930 . S
H3006 C3022 0.959 . S
H3007 C3022 0.959 . S
H3008 C3022 0.961 . S
H3009 C3023 0.960 . S
H3010 C3023 0.961 . S
H3011 C3023 0.959 . S
H3012 C3026 0.929 . S
H3013 C3027 0.931 . S
H3014 C3029 0.930 . S
C3015 H3003 0.930 . S
C3015 C3016 1.399 . S
C3015 C3020 1.399 . S
C3016 C3015 1.399 . S
C3016 C3017 1.376 . S
C3017 H3004 0.930 . S
C3017 C3016 1.376 . S
C3017 C3018 1.388 . S
C3018 H3005 0.930 . S
C3018 C3017 1.388 . S
C3018 C3019 1.390 . S
C3019 C3018 1.390 . S
C3019 C3020 1.394 . S
C3019 C3025 1.465 . S
C3020 C3015 1.399 . S
C3020 C3019 1.394 . S
C3020 C3021 1.516 . S
C3021 C3020 1.516 . S
C3021 C3022 1.502 . S
C3021 C3023 1.561 . S
C3021 C3024 1.526 . S
C3022 H3006 0.959 . S
C3022 H3007 0.959 . S
C3022 H3008 0.961 . S
C3022 C3021 1.502 . S
C3023 H3009 0.960 . S
C3023 H3010 0.961 . S
C3023 H3011 0.959 . S
C3023 C3021 1.561 . S
C3024 C3021 1.526 . S
C3024 C3025 1.396 . S
C3024 C3029 1.390 . S
C3025 C3019 1.465 . S
C3025 C3024 1.396 . S
C3025 C3026 1.399 . S
C3026 H3012 0.929 . S
C3026 C3025 1.399 . S
C3026 C3027 1.385 . S
C3027 H3013 0.931 . S
C3027 C3026 1.385 . S
C3027 C3028 1.389 . S
C3028 C3027 1.389 . S
C3028 C3029 1.387 . S
C3029 H3014 0.930 . S
C3029 C3024 1.390 . S
C3029 C3028 1.387 . S
H3030 C3042 0.930 . S
H3031 C3044 0.930 . S
H3032 C3045 0.930 . S
H3033 C3049 0.959 1_556 S
H3034 C3049 0.959 . S
H3035 C3049 0.961 . S
H3036 C3050 0.960 . S
H3037 C3050 0.961 . S
H3038 C3050 0.959 . S
H3039 C3053 0.929 . S
H3040 C3054 0.931 . S
H3041 C3056 0.930 . S
C3042 H3030 0.930 . S
C3042 C3043 1.399 . S
C3042 C3047 1.399 . S
C3043 C3042 1.399 . S
C3043 C3044 1.376 . S
C3044 H3031 0.930 . S
C3044 C3043 1.376 . S
C3044 C3045 1.388 . S
C3045 H3032 0.930 . S
C3045 C3044 1.388 . S
C3045 C3046 1.390 . S
C3046 C3045 1.390 . S
C3046 C3047 1.394 . S
C3046 C3052 1.465 . S
C3047 C3042 1.399 . S
C3047 C3046 1.394 . S
C3047 C3048 1.516 1_556 S
C3048 C3047 1.516 1_554 S
C3048 C3049 1.502 1_455 S
C3048 C3050 1.561 . S
C3048 C3051 1.526 . S
C3049 H3033 0.959 1_554 S
C3049 H3034 0.959 . S
C3049 H3035 0.961 . S
C3049 C3048 1.502 1_655 S
C3050 H3036 0.960 . S
C3050 H3037 0.961 . S
C3050 H3038 0.959 . S
C3050 C3048 1.561 . S
C3051 C3048 1.526 . S
C3051 C3052 1.396 1_554 S
C3051 C3056 1.390 . S
C3052 C3046 1.465 . S
C3052 C3051 1.396 1_556 S
C3052 C3053 1.399 . S
C3053 H3039 0.929 . S
C3053 C3052 1.399 . S
C3053 C3054 1.385 . S
C3054 H3040 0.931 . S
C3054 C3053 1.385 . S
C3054 C3055 1.389 1_556 S
C3055 C3054 1.389 1_554 S
C3055 C3056 1.387 . S
C3056 H3041 0.930 . S
C3056 C3051 1.390 . S
C3056 C3055 1.387 . S
H3057 C3069 0.930 . S
H3058 C3071 0.930 . S
H3059 C3072 0.930 . S
H3060 C3076 0.959 . S
H3061 C3076 0.959 . S
H3062 C3076 0.961 . S
H3063 C3077 0.960 . S
H3064 C3077 0.961 1_655 S
H3065 C3077 0.959 . S
H3066 C3080 0.929 . S
H3067 C3081 0.931 . S
H3068 C3083 0.930 . S
C3069 H3057 0.930 . S
C3069 C3070 1.399 . S
C3069 C3074 1.399 . S
C3070 C3069 1.399 . S
C3070 C3071 1.376 . S
C3071 H3058 0.930 . S
C3071 C3070 1.376 . S
C3071 C3072 1.388 . S
C3072 H3059 0.930 . S
C3072 C3071 1.388 . S
C3072 C3073 1.390 1_455 S
C3073 C3072 1.390 1_655 S
C3073 C3074 1.394 1_655 S
C3073 C3079 1.465 . S
C3074 C3069 1.399 . S
C3074 C3073 1.394 1_455 S
C3074 C3075 1.516 1_455 S
C3075 C3074 1.516 1_655 S
C3075 C3076 1.502 . S
C3075 C3077 1.561 1_655 S
C3075 C3078 1.526 . S
C3076 H3060 0.959 . S
C3076 H3061 0.959 . S
C3076 H3062 0.961 . S
C3076 C3075 1.502 . S
C3077 H3063 0.960 . S
C3077 H3064 0.961 1_455 S
C3077 H3065 0.959 . S
C3077 C3075 1.561 1_455 S
C3078 C3075 1.526 . S
C3078 C3079 1.396 . S
C3078 C3083 1.390 . S
C3079 C3073 1.465 . S
C3079 C3078 1.396 . S
C3079 C3080 1.399 . S
C3080 H3066 0.929 . S
C3080 C3079 1.399 . S
C3080 C3081 1.385 . S
C3081 H3067 0.931 . S
C3081 C3080 1.385 . S
C3081 C3082 1.389 . S
C3082 C3081 1.389 . S
C3082 C3083 1.387 . S
C3083 H3068 0.930 . S
C3083 C3078 1.390 . S
C3083 C3082 1.387 . S
H3084 C3096 0.930 . S
H3085 C3098 0.930 . S
H3086 C3099 0.930 . S
H3087 C3103 0.959 . S
H3088 C3103 0.959 . S
H3089 C3103 0.961 . S
H3090 C3104 0.960 . S
H3091 C3104 0.961 . S
H3092 C3104 0.959 . S
H3093 C3107 0.929 . S
H3094 C3108 0.931 . S
H3095 C3110 0.930 . S
C3096 H3084 0.930 . S
C3096 C3097 1.399 . S
C3096 C3101 1.399 . S
C3097 C3096 1.399 . S
C3097 C3098 1.376 . S
C3098 H3085 0.930 . S
C3098 C3097 1.376 . S
C3098 C3099 1.388 . S
C3099 H3086 0.930 . S
C3099 C3098 1.388 . S
C3099 C3100 1.390 . S
C3100 C3099 1.390 . S
C3100 C3101 1.394 . S
C3100 C3106 1.465 . S
C3101 C3096 1.399 . S
C3101 C3100 1.394 . S
C3101 C3102 1.516 . S
C3102 C3101 1.516 . S
C3102 C3103 1.502 . S
C3102 C3104 1.561 . S
C3102 C3105 1.526 . S
C3103 H3087 0.959 . S
C3103 H3088 0.959 . S
C3103 H3089 0.961 . S
C3103 C3102 1.502 . S
C3104 H3090 0.960 . S
C3104 H3091 0.961 . S
C3104 H3092 0.959 . S
C3104 C3102 1.561 . S
C3105 C3102 1.526 . S
C3105 C3106 1.396 . S
C3105 C3110 1.390 . S
C3106 C3100 1.465 . S
C3106 C3105 1.396 . S
C3106 C3107 1.399 . S
C3107 H3093 0.929 . S
C3107 C3106 1.399 . S
C3107 C3108 1.385 . S
C3108 H3094 0.931 . S
C3108 C3107 1.385 . S
C3108 C3109 1.389 . S
C3109 C3108 1.389 . S
C3109 C3110 1.387 . S
C3110 H3095 0.930 . S
C3110 C3105 1.390 . S
C3110 C3109 1.387 . S
H3111 C3123 0.930 . S
H3112 C3125 0.930 . S
H3113 C3126 0.930 . S
H3114 C3130 0.959 . S
H3115 C3130 0.959 . S
H3116 C3130 0.961 . S
H3117 C3131 0.960 . S
H3118 C3131 0.961 . S
H3119 C3131 0.959 . S
H3120 C3134 0.929 . S
H3121 C3135 0.931 . S
H3122 C3137 0.930 . S
C3123 H3111 0.930 . S
C3123 C3124 1.399 . S
C3123 C3128 1.399 . S
C3124 C3123 1.399 . S
C3124 C3125 1.376 . S
C3125 H3112 0.930 . S
C3125 C3124 1.376 . S
C3125 C3126 1.388 . S
C3126 H3113 0.930 . S
C3126 C3125 1.388 . S
C3126 C3127 1.390 . S
C3127 C3126 1.390 . S
C3127 C3128 1.394 . S
C3127 C3133 1.465 1_455 S
C3128 C3123 1.399 . S
C3128 C3127 1.394 . S
C3128 C3129 1.516 . S
C3129 C3128 1.516 . S
C3129 C3130 1.502 . S
C3129 C3131 1.561 . S
C3129 C3132 1.526 1_455 S
C3130 H3114 0.959 . S
C3130 H3115 0.959 . S
C3130 H3116 0.961 . S
C3130 C3129 1.502 . S
C3131 H3117 0.960 . S
C3131 H3118 0.961 . S
C3131 H3119 0.959 . S
C3131 C3129 1.561 . S
C3132 C3129 1.526 1_655 S
C3132 C3133 1.396 . S
C3132 C3137 1.390 . S
C3133 C3127 1.465 1_655 S
C3133 C3132 1.396 . S
C3133 C3134 1.399 . S
C3134 H3120 0.929 . S
C3134 C3133 1.399 . S
C3134 C3135 1.385 . S
C3135 H3121 0.931 . S
C3135 C3134 1.385 . S
C3135 C3136 1.389 . S
C3136 C3135 1.389 . S
C3136 C3137 1.387 . S
C3137 H3122 0.930 . S
C3137 C3132 1.390 . S
C3137 C3136 1.387 . S
H3138 C3150 0.930 . S
H3139 C3152 0.930 . S
H3140 C3153 0.930 . S
H3141 C3157 0.959 . S
H3142 C3157 0.959 . S
H3143 C3157 0.961 . S
H3144 C3158 0.960 1_655 S
H3145 C3158 0.961 . S
H3146 C3158 0.959 . S
H3147 C3161 0.929 . S
H3148 C3162 0.931 . S
H3149 C3164 0.930 . S
C3150 H3138 0.930 . S
C3150 C3151 1.399 . S
C3150 C3155 1.399 1_655 S
C3151 C3150 1.399 . S
C3151 C3152 1.376 1_655 S
C3152 H3139 0.930 . S
C3152 C3151 1.376 1_455 S
C3152 C3153 1.388 . S
C3153 H3140 0.930 . S
C3153 C3152 1.388 . S
C3153 C3154 1.390 . S
C3154 C3153 1.390 . S
C3154 C3155 1.394 . S
C3154 C3160 1.465 . S
C3155 C3150 1.399 1_455 S
C3155 C3154 1.394 . S
C3155 C3156 1.516 1_455 S
C3156 C3155 1.516 1_655 S
C3156 C3157 1.502 . S
C3156 C3158 1.561 1_655 S
C3156 C3159 1.526 1_655 S
C3157 H3141 0.959 . S
C3157 H3142 0.959 . S
C3157 H3143 0.961 . S
C3157 C3156 1.502 . S
C3158 H3144 0.960 1_455 S
C3158 H3145 0.961 . S
C3158 H3146 0.959 . S
C3158 C3156 1.561 1_455 S
C3159 C3156 1.526 1_455 S
C3159 C3160 1.396 . S
C3159 C3164 1.390 . S
C3160 C3154 1.465 . S
C3160 C3159 1.396 . S
C3160 C3161 1.399 . S
C3161 H3147 0.929 . S
C3161 C3160 1.399 . S
C3161 C3162 1.385 . S
C3162 H3148 0.931 . S
C3162 C3161 1.385 . S
C3162 C3163 1.389 . S
C3163 C3162 1.389 . S
C3163 C3164 1.387 . S
C3164 H3149 0.930 . S
C3164 C3159 1.390 . S
C3164 C3163 1.387 . S
H3165 C3177 0.930 . S
H3166 C3179 0.930 . S
H3167 C3180 0.930 . S
H3168 C3184 0.959 . S
H3169 C3184 0.959 . S
H3170 C3184 0.961 . S
H3171 C3185 0.960 . S
H3172 C3185 0.961 . S
H3173 C3185 0.959 . S
H3174 C3188 0.929 . S
H3175 C3189 0.931 . S
H3176 C3191 0.930 . S
C3177 H3165 0.930 . S
C3177 C3178 1.399 . S
C3177 C3182 1.399 . S
C3178 C3177 1.399 . S
C3178 C3179 1.376 . S
C3179 H3166 0.930 . S
C3179 C3178 1.376 . S
C3179 C3180 1.388 . S
C3180 H3167 0.930 . S
C3180 C3179 1.388 . S
C3180 C3181 1.390 . S
C3181 C3180 1.390 . S
C3181 C3182 1.394 . S
C3181 C3187 1.465 . S
C3182 C3177 1.399 . S
C3182 C3181 1.394 . S
C3182 C3183 1.516 . S
C3183 C3182 1.516 . S
C3183 C3184 1.502 . S
C3183 C3185 1.561 . S
C3183 C3186 1.526 . S
C3184 H3168 0.959 . S
C3184 H3169 0.959 . S
C3184 H3170 0.961 . S
C3184 C3183 1.502 . S
C3185 H3171 0.960 . S
C3185 H3172 0.961 . S
C3185 H3173 0.959 . S
C3185 C3183 1.561 . S
C3186 C3183 1.526 . S
C3186 C3187 1.396 . S
C3186 C3191 1.390 . S
C3187 C3181 1.465 . S
C3187 C3186 1.396 . S
C3187 C3188 1.399 . S
C3188 H3174 0.929 . S
C3188 C3187 1.399 . S
C3188 C3189 1.385 . S
C3189 H3175 0.931 . S
C3189 C3188 1.385 . S
C3189 C3190 1.389 . S
C3190 C3189 1.389 . S
C3190 C3191 1.387 . S
C3191 H3176 0.930 . S
C3191 C3186 1.390 . S
C3191 C3190 1.387 . S
H3192 C3204 0.930 . S
H3193 C3206 0.930 . S
H3194 C3207 0.930 . S
H3195 C3211 0.959 . S
H3196 C3211 0.959 . S
H3197 C3211 0.961 . S
H3198 C3212 0.960 . S
H3199 C3212 0.961 . S
H3200 C3212 0.959 . S
H3201 C3215 0.929 . S
H3202 C3216 0.931 . S
H3203 C3218 0.930 . S
C3204 H3192 0.930 . S
C3204 C3205 1.399 . S
C3204 C3209 1.399 . S
C3205 C3204 1.399 . S
C3205 C3206 1.376 . S
C3206 H3193 0.930 . S
C3206 C3205 1.376 . S
C3206 C3207 1.388 . S
C3207 H3194 0.930 . S
C3207 C3206 1.388 . S
C3207 C3208 1.390 . S
C3208 C3207 1.390 . S
C3208 C3209 1.394 . S
C3208 C3214 1.465 . S
C3209 C3204 1.399 . S
C3209 C3208 1.394 . S
C3209 C3210 1.516 . S
C3210 C3209 1.516 . S
C3210 C3211 1.502 . S
C3210 C3212 1.561 . S
C3210 C3213 1.526 . S
C3211 H3195 0.959 . S
C3211 H3196 0.959 . S
C3211 H3197 0.961 . S
C3211 C3210 1.502 . S
C3212 H3198 0.960 . S
C3212 H3199 0.961 . S
C3212 H3200 0.959 . S
C3212 C3210 1.561 . S
C3213 C3210 1.526 . S
C3213 C3214 1.396 . S
C3213 C3218 1.390 . S
C3214 C3208 1.465 . S
C3214 C3213 1.396 . S
C3214 C3215 1.399 . S
C3215 H3201 0.929 . S
C3215 C3214 1.399 . S
C3215 C3216 1.385 . S
C3216 H3202 0.931 . S
C3216 C3215 1.385 . S
C3216 C3217 1.389 . S
C3217 C3216 1.389 . S
C3217 C3218 1.387 . S
C3218 H3203 0.930 . S
C3218 C3213 1.390 . S
C3218 C3217 1.387 . S
H3219 C3231 0.930 . S
H3220 C3233 0.930 1_554 S
H3221 C3234 0.930 . S
H3222 C3238 0.959 . S
H3223 C3238 0.959 . S
H3224 C3238 0.961 . S
H3225 C3239 0.960 . S
H3226 C3239 0.961 . S
H3227 C3239 0.959 . S
H3228 C3242 0.929 . S
H3229 C3243 0.931 . S
H3230 C3245 0.930 . S
C3231 H3219 0.930 . S
C3231 C3232 1.399 . S
C3231 C3236 1.399 . S
C3232 C3231 1.399 . S
C3232 C3233 1.376 . S
C3233 H3220 0.930 1_556 S
C3233 C3232 1.376 . S
C3233 C3234 1.388 . S
C3234 H3221 0.930 . S
C3234 C3233 1.388 . S
C3234 C3235 1.390 . S
C3235 C3234 1.390 . S
C3235 C3236 1.394 . S
C3235 C3241 1.465 . S
C3236 C3231 1.399 . S
C3236 C3235 1.394 . S
C3236 C3237 1.516 . S
C3237 C3236 1.516 . S
C3237 C3238 1.502 . S
C3237 C3239 1.561 . S
C3237 C3240 1.526 . S
C3238 H3222 0.959 . S
C3238 H3223 0.959 . S
C3238 H3224 0.961 . S
C3238 C3237 1.502 . S
C3239 H3225 0.960 . S
C3239 H3226 0.961 . S
C3239 H3227 0.959 . S
C3239 C3237 1.561 . S
C3240 C3237 1.526 . S
C3240 C3241 1.396 . S
C3240 C3245 1.390 . S
C3241 C3235 1.465 . S
C3241 C3240 1.396 . S
C3241 C3242 1.399 . S
C3242 H3228 0.929 . S
C3242 C3241 1.399 . S
C3242 C3243 1.385 . S
C3243 H3229 0.931 . S
C3243 C3242 1.385 . S
C3243 C3244 1.389 . S
C3244 C3243 1.389 . S
C3244 C3245 1.387 . S
C3245 H3230 0.930 . S
C3245 C3240 1.390 . S
C3245 C3244 1.387 . S
H3246 C3258 0.930 . S
H3247 C3260 0.930 . S
H3248 C3261 0.930 . S
H3249 C3265 0.959 . S
H3250 C3265 0.959 . S
H3251 C3265 0.961 . S
H3252 C3266 0.960 . S
H3253 C3266 0.961 . S
H3254 C3266 0.959 . S
H3255 C3269 0.929 . S
H3256 C3270 0.931 . S
H3257 C3272 0.930 . S
C3258 H3246 0.930 . S
C3258 C3259 1.399 . S
C3258 C3263 1.399 . S
C3259 C3258 1.399 . S
C3259 C3260 1.376 . S
C3260 H3247 0.930 . S
C3260 C3259 1.376 . S
C3260 C3261 1.388 . S
C3261 H3248 0.930 . S
C3261 C3260 1.388 . S
C3261 C3262 1.390 . S
C3262 C3261 1.390 . S
C3262 C3263 1.394 . S
C3262 C3268 1.465 . S
C3263 C3258 1.399 . S
C3263 C3262 1.394 . S
C3263 C3264 1.516 . S
C3264 C3263 1.516 . S
C3264 C3265 1.502 . S
C3264 C3266 1.561 . S
C3264 C3267 1.526 . S
C3265 H3249 0.959 . S
C3265 H3250 0.959 . S
C3265 H3251 0.961 . S
C3265 C3264 1.502 . S
C3266 H3252 0.960 . S
C3266 H3253 0.961 . S
C3266 H3254 0.959 . S
C3266 C3264 1.561 . S
C3267 C3264 1.526 . S
C3267 C3268 1.396 . S
C3267 C3272 1.390 . S
C3268 C3262 1.465 . S
C3268 C3267 1.396 . S
C3268 C3269 1.399 . S
C3269 H3255 0.929 . S
C3269 C3268 1.399 . S
C3269 C3270 1.385 . S
C3270 H3256 0.931 . S
C3270 C3269 1.385 . S
C3270 C3271 1.389 . S
C3271 C3270 1.389 . S
C3271 C3272 1.387 . S
C3272 H3257 0.930 . S
C3272 C3267 1.390 . S
C3272 C3271 1.387 . S
H3273 C3285 0.930 . S
H3274 C3287 0.930 . S
H3275 C3288 0.930 . S
H3276 C3292 0.959 . S
H3277 C3292 0.959 . S
H3278 C3292 0.961 . S
H3279 C3293 0.960 . S
H3280 C3293 0.961 . S
H3281 C3293 0.959 . S
H3282 C3296 0.929 . S
H3283 C3297 0.931 . S
H3284 C3299 0.930 . S
C3285 H3273 0.930 . S
C3285 C3286 1.399 . S
C3285 C3290 1.399 . S
C3286 C3285 1.399 . S
C3286 C3287 1.376 . S
C3287 H3274 0.930 . S
C3287 C3286 1.376 . S
C3287 C3288 1.388 . S
C3288 H3275 0.930 . S
C3288 C3287 1.388 . S
C3288 C3289 1.390 . S
C3289 C3288 1.390 . S
C3289 C3290 1.394 . S
C3289 C3295 1.465 . S
C3290 C3285 1.399 . S
C3290 C3289 1.394 . S
C3290 C3291 1.516 . S
C3291 C3290 1.516 . S
C3291 C3292 1.502 . S
C3291 C3293 1.561 . S
C3291 C3294 1.526 . S
C3292 H3276 0.959 . S
C3292 H3277 0.959 . S
C3292 H3278 0.961 . S
C3292 C3291 1.502 . S
C3293 H3279 0.960 . S
C3293 H3280 0.961 . S
C3293 H3281 0.959 . S
C3293 C3291 1.561 . S
C3294 C3291 1.526 . S
C3294 C3295 1.396 . S
C3294 C3299 1.390 . S
C3295 C3289 1.465 . S
C3295 C3294 1.396 . S
C3295 C3296 1.399 . S
C3296 H3282 0.929 . S
C3296 C3295 1.399 . S
C3296 C3297 1.385 . S
C3297 H3283 0.931 . S
C3297 C3296 1.385 . S
C3297 C3298 1.389 . S
C3298 C3297 1.389 . S
C3298 C3299 1.387 . S
C3299 H3284 0.930 . S
C3299 C3294 1.390 . S
C3299 C3298 1.387 . S
H3300 C3312 0.930 . S
H3301 C3314 0.930 . S
H3302 C3315 0.930 . S
H3303 C3319 0.959 . S
H3304 C3319 0.959 . S
H3305 C3319 0.961 . S
H3306 C3320 0.960 . S
H3307 C3320 0.961 . S
H3308 C3320 0.959 . S
H3309 C3323 0.929 . S
H3310 C3324 0.931 . S
H3311 C3326 0.930 . S
C3312 H3300 0.930 . S
C3312 C3313 1.399 . S
C3312 C3317 1.399 . S
C3313 C3312 1.399 . S
C3313 C3314 1.376 . S
C3314 H3301 0.930 . S
C3314 C3313 1.376 . S
C3314 C3315 1.388 . S
C3315 H3302 0.930 . S
C3315 C3314 1.388 . S
C3315 C3316 1.390 . S
C3316 C3315 1.390 . S
C3316 C3317 1.394 . S
C3316 C3322 1.465 . S
C3317 C3312 1.399 . S
C3317 C3316 1.394 . S
C3317 C3318 1.516 . S
C3318 C3317 1.516 . S
C3318 C3319 1.502 . S
C3318 C3320 1.561 . S
C3318 C3321 1.526 . S
C3319 H3303 0.959 . S
C3319 H3304 0.959 . S
C3319 H3305 0.961 . S
C3319 C3318 1.502 . S
C3320 H3306 0.960 . S
C3320 H3307 0.961 . S
C3320 H3308 0.959 . S
C3320 C3318 1.561 . S
C3321 C3318 1.526 . S
C3321 C3322 1.396 . S
C3321 C3326 1.390 . S
C3322 C3316 1.465 . S
C3322 C3321 1.396 . S
C3322 C3323 1.399 . S
C3323 H3309 0.929 . S
C3323 C3322 1.399 . S
C3323 C3324 1.385 . S
C3324 H3310 0.931 . S
C3324 C3323 1.385 . S
C3324 C3325 1.389 . S
C3325 C3324 1.389 . S
C3325 C3326 1.387 . S
C3326 H3311 0.930 . S
C3326 C3321 1.390 . S
C3326 C3325 1.387 . S
H3327 C3339 0.930 . S
H3328 C3341 0.930 . S
H3329 C3342 0.930 . S
H3330 C3346 0.959 . S
H3331 C3346 0.959 . S
H3332 C3346 0.961 . S
H3333 C3347 0.960 . S
H3334 C3347 0.961 . S
H3335 C3347 0.959 . S
H3336 C3350 0.929 . S
H3337 C3351 0.931 . S
H3338 C3353 0.930 . S
C3339 H3327 0.930 . S
C3339 C3340 1.399 . S
C3339 C3344 1.399 . S
C3340 C3339 1.399 . S
C3340 C3341 1.376 . S
C3341 H3328 0.930 . S
C3341 C3340 1.376 . S
C3341 C3342 1.388 . S
C3342 H3329 0.930 . S
C3342 C3341 1.388 . S
C3342 C3343 1.390 . S
C3343 C3342 1.390 . S
C3343 C3344 1.394 . S
C3343 C3349 1.465 . S
C3344 C3339 1.399 . S
C3344 C3343 1.394 . S
C3344 C3345 1.516 . S
C3345 C3344 1.516 . S
C3345 C3346 1.502 . S
C3345 C3347 1.561 . S
C3345 C3348 1.526 . S
C3346 H3330 0.959 . S
C3346 H3331 0.959 . S
C3346 H3332 0.961 . S
C3346 C3345 1.502 . S
C3347 H3333 0.960 . S
C3347 H3334 0.961 . S
C3347 H3335 0.959 . S
C3347 C3345 1.561 . S
C3348 C3345 1.526 . S
C3348 C3349 1.396 . S
C3348 C3353 1.390 . S
C3349 C3343 1.465 . S
C3349 C3348 1.396 . S
C3349 C3350 1.399 . S
C3350 H3336 0.929 . S
C3350 C3349 1.399 . S
C3350 C3351 1.385 . S
C3351 H3337 0.931 . S
C3351 C3350 1.385 . S
C3351 C3352 1.389 . S
C3352 C3351 1.389 . S
C3352 C3353 1.387 . S
C3353 H3338 0.930 . S
C3353 C3348 1.390 . S
C3353 C3352 1.387 . S
H3354 C3366 0.930 . S
H3355 C3368 0.930 . S
H3356 C3369 0.930 . S
H3357 C3373 0.959 . S
H3358 C3373 0.959 . S
H3359 C3373 0.961 . S
H3360 C3374 0.960 . S
H3361 C3374 0.961 . S
H3362 C3374 0.959 . S
H3363 C3377 0.929 . S
H3364 C3378 0.931 . S
H3365 C3380 0.930 . S
C3366 H3354 0.930 . S
C3366 C3367 1.399 . S
C3366 C3371 1.399 . S
C3367 C3366 1.399 . S
C3367 C3368 1.376 . S
C3368 H3355 0.930 . S
C3368 C3367 1.376 . S
C3368 C3369 1.388 . S
C3369 H3356 0.930 . S
C3369 C3368 1.388 . S
C3369 C3370 1.390 . S
C3370 C3369 1.390 . S
C3370 C3371 1.394 . S
C3370 C3376 1.465 . S
C3371 C3366 1.399 . S
C3371 C3370 1.394 . S
C3371 C3372 1.516 . S
C3372 C3371 1.516 . S
C3372 C3373 1.502 . S
C3372 C3374 1.561 . S
C3372 C3375 1.526 . S
C3373 H3357 0.959 . S
C3373 H3358 0.959 . S
C3373 H3359 0.961 . S
C3373 C3372 1.502 . S
C3374 H3360 0.960 . S
C3374 H3361 0.961 . S
C3374 H3362 0.959 . S
C3374 C3372 1.561 . S
C3375 C3372 1.526 . S
C3375 C3376 1.396 . S
C3375 C3380 1.390 . S
C3376 C3370 1.465 . S
C3376 C3375 1.396 . S
C3376 C3377 1.399 . S
C3377 H3363 0.929 . S
C3377 C3376 1.399 . S
C3377 C3378 1.385 . S
C3378 H3364 0.931 . S
C3378 C3377 1.385 . S
C3378 C3379 1.389 . S
C3379 C3378 1.389 . S
C3379 C3380 1.387 . S
C3380 H3365 0.930 . S
C3380 C3375 1.390 . S
C3380 C3379 1.387 . S
H3381 C3393 0.930 . S
H3382 C3395 0.930 . S
H3383 C3396 0.930 . S
H3384 C3400 0.959 . S
H3385 C3400 0.959 . S
H3386 C3400 0.961 . S
H3387 C3401 0.960 . S
H3388 C3401 0.961 . S
H3389 C3401 0.959 . S
H3390 C3404 0.929 . S
H3391 C3405 0.931 . S
H3392 C3407 0.930 . S
C3393 H3381 0.930 . S
C3393 C3394 1.399 . S
C3393 C3398 1.399 . S
C3394 C3393 1.399 . S
C3394 C3395 1.376 . S
C3395 H3382 0.930 . S
C3395 C3394 1.376 . S
C3395 C3396 1.388 . S
C3396 H3383 0.930 . S
C3396 C3395 1.388 . S
C3396 C3397 1.390 . S
C3397 C3396 1.390 . S
C3397 C3398 1.394 . S
C3397 C3403 1.465 . S
C3398 C3393 1.399 . S
C3398 C3397 1.394 . S
C3398 C3399 1.516 . S
C3399 C3398 1.516 . S
C3399 C3400 1.502 . S
C3399 C3401 1.561 . S
C3399 C3402 1.526 . S
C3400 H3384 0.959 . S
C3400 H3385 0.959 . S
C3400 H3386 0.961 . S
C3400 C3399 1.502 . S
C3401 H3387 0.960 . S
C3401 H3388 0.961 . S
C3401 H3389 0.959 . S
C3401 C3399 1.561 . S
C3402 C3399 1.526 . S
C3402 C3403 1.396 . S
C3402 C3407 1.390 . S
C3403 C3397 1.465 . S
C3403 C3402 1.396 . S
C3403 C3404 1.399 . S
C3404 H3390 0.929 . S
C3404 C3403 1.399 . S
C3404 C3405 1.385 . S
C3405 H3391 0.931 . S
C3405 C3404 1.385 . S
C3405 C3406 1.389 . S
C3406 C3405 1.389 . S
C3406 C3407 1.387 . S
C3407 H3392 0.930 . S
C3407 C3402 1.390 . S
C3407 C3406 1.387 . S
H3408 C3420 0.930 . S
H3409 C3422 0.930 . S
H3410 C3423 0.930 . S
H3411 C3427 0.959 . S
H3412 C3427 0.959 . S
H3413 C3427 0.961 . S
H3414 C3428 0.960 . S
H3415 C3428 0.961 . S
H3416 C3428 0.959 . S
H3417 C3431 0.929 . S
H3418 C3432 0.931 . S
H3419 C3434 0.930 . S
C3420 H3408 0.930 . S
C3420 C3421 1.399 . S
C3420 C3425 1.399 . S
C3421 C3420 1.399 . S
C3421 C3422 1.376 . S
C3422 H3409 0.930 . S
C3422 C3421 1.376 . S
C3422 C3423 1.388 . S
C3423 H3410 0.930 . S
C3423 C3422 1.388 . S
C3423 C3424 1.390 . S
C3424 C3423 1.390 . S
C3424 C3425 1.394 . S
C3424 C3430 1.465 . S
C3425 C3420 1.399 . S
C3425 C3424 1.394 . S
C3425 C3426 1.516 . S
C3426 C3425 1.516 . S
C3426 C3427 1.502 . S
C3426 C3428 1.561 . S
C3426 C3429 1.526 . S
C3427 H3411 0.959 . S
C3427 H3412 0.959 . S
C3427 H3413 0.961 . S
C3427 C3426 1.502 . S
C3428 H3414 0.960 . S
C3428 H3415 0.961 . S
C3428 H3416 0.959 . S
C3428 C3426 1.561 . S
C3429 C3426 1.526 . S
C3429 C3430 1.396 . S
C3429 C3434 1.390 . S
C3430 C3424 1.465 . S
C3430 C3429 1.396 . S
C3430 C3431 1.399 . S
C3431 H3417 0.929 . S
C3431 C3430 1.399 . S
C3431 C3432 1.385 . S
C3432 H3418 0.931 . S
C3432 C3431 1.385 . S
C3432 C3433 1.389 . S
C3433 C3432 1.389 . S
C3433 C3434 1.387 . S
C3434 H3419 0.930 . S
C3434 C3429 1.390 . S
C3434 C3433 1.387 . S
H3435 C3447 0.930 . S
H3436 C3449 0.930 . S
H3437 C3450 0.930 . S
H3438 C3454 0.959 . S
H3439 C3454 0.959 . S
H3440 C3454 0.961 . S
H3441 C3455 0.960 . S
H3442 C3455 0.961 . S
H3443 C3455 0.959 . S
H3444 C3458 0.929 . S
H3445 C3459 0.931 . S
H3446 C3461 0.930 . S
C3447 H3435 0.930 . S
C3447 C3448 1.399 . S
C3447 C3452 1.399 . S
C3448 C3447 1.399 . S
C3448 C3449 1.376 . S
C3449 H3436 0.930 . S
C3449 C3448 1.376 . S
C3449 C3450 1.388 . S
C3450 H3437 0.930 . S
C3450 C3449 1.388 . S
C3450 C3451 1.390 . S
C3451 C3450 1.390 . S
C3451 C3452 1.394 . S
C3451 C3457 1.465 . S
C3452 C3447 1.399 . S
C3452 C3451 1.394 . S
C3452 C3453 1.516 . S
C3453 C3452 1.516 . S
C3453 C3454 1.502 . S
C3453 C3455 1.561 . S
C3453 C3456 1.526 . S
C3454 H3438 0.959 . S
C3454 H3439 0.959 . S
C3454 H3440 0.961 . S
C3454 C3453 1.502 . S
C3455 H3441 0.960 . S
C3455 H3442 0.961 . S
C3455 H3443 0.959 . S
C3455 C3453 1.561 . S
C3456 C3453 1.526 . S
C3456 C3457 1.396 . S
C3456 C3461 1.390 . S
C3457 C3451 1.465 . S
C3457 C3456 1.396 . S
C3457 C3458 1.399 . S
C3458 H3444 0.929 . S
C3458 C3457 1.399 . S
C3458 C3459 1.385 . S
C3459 H3445 0.931 . S
C3459 C3458 1.385 . S
C3459 C3460 1.389 . S
C3460 C3459 1.389 . S
C3460 C3461 1.387 . S
C3461 H3446 0.930 . S
C3461 C3456 1.390 . S
C3461 C3460 1.387 . S
H3462 C3474 0.930 . S
H3463 C3476 0.930 . S
H3464 C3477 0.930 . S
H3465 C3481 0.959 . S
H3466 C3481 0.959 . S
H3467 C3481 0.961 . S
H3468 C3482 0.960 . S
H3469 C3482 0.961 . S
H3470 C3482 0.959 . S
H3471 C3485 0.929 . S
H3472 C3486 0.931 . S
H3473 C3488 0.930 . S
C3474 H3462 0.930 . S
C3474 C3475 1.399 . S
C3474 C3479 1.399 . S
C3475 C3474 1.399 . S
C3475 C3476 1.376 . S
C3476 H3463 0.930 . S
C3476 C3475 1.376 . S
C3476 C3477 1.388 . S
C3477 H3464 0.930 . S
C3477 C3476 1.388 . S
C3477 C3478 1.390 . S
C3478 C3477 1.390 . S
C3478 C3479 1.394 . S
C3478 C3484 1.465 . S
C3479 C3474 1.399 . S
C3479 C3478 1.394 . S
C3479 C3480 1.516 . S
C3480 C3479 1.516 . S
C3480 C3481 1.502 . S
C3480 C3482 1.561 . S
C3480 C3483 1.526 . S
C3481 H3465 0.959 . S
C3481 H3466 0.959 . S
C3481 H3467 0.961 . S
C3481 C3480 1.502 . S
C3482 H3468 0.960 . S
C3482 H3469 0.961 . S
C3482 H3470 0.959 . S
C3482 C3480 1.561 . S
C3483 C3480 1.526 . S
C3483 C3484 1.396 . S
C3483 C3488 1.390 . S
C3484 C3478 1.465 . S
C3484 C3483 1.396 . S
C3484 C3485 1.399 . S
C3485 H3471 0.929 . S
C3485 C3484 1.399 . S
C3485 C3486 1.385 . S
C3486 H3472 0.931 . S
C3486 C3485 1.385 . S
C3486 C3487 1.389 . S
C3487 C3486 1.389 . S
C3487 C3488 1.387 . S
C3488 H3473 0.930 . S
C3488 C3483 1.390 . S
C3488 C3487 1.387 . S
H3489 C3501 0.930 . S
H3490 C3503 0.930 . S
H3491 C3504 0.930 . S
H3492 C3508 0.959 . S
H3493 C3508 0.959 . S
H3494 C3508 0.961 . S
H3495 C3509 0.960 . S
H3496 C3509 0.961 . S
H3497 C3509 0.959 . S
H3498 C3512 0.929 . S
H3499 C3513 0.931 . S
H3500 C3515 0.930 . S
C3501 H3489 0.930 . S
C3501 C3502 1.399 . S
C3501 C3506 1.399 . S
C3502 C3501 1.399 . S
C3502 C3503 1.376 1_554 S
C3503 H3490 0.930 . S
C3503 C3502 1.376 1_556 S
C3503 C3504 1.388 . S
C3504 H3491 0.930 . S
C3504 C3503 1.388 . S
C3504 C3505 1.390 1_556 S
C3505 C3504 1.390 1_554 S
C3505 C3506 1.394 . S
C3505 C3511 1.465 . S
C3506 C3501 1.399 . S
C3506 C3505 1.394 . S
C3506 C3507 1.516 . S
C3507 C3506 1.516 . S
C3507 C3508 1.502 1_565 S
C3507 C3509 1.561 . S
C3507 C3510 1.526 1_565 S
C3508 H3492 0.959 . S
C3508 H3493 0.959 . S
C3508 H3494 0.961 . S
C3508 C3507 1.502 1_545 S
C3509 H3495 0.960 . S
C3509 H3496 0.961 . S
C3509 H3497 0.959 . S
C3509 C3507 1.561 . S
C3510 C3507 1.526 1_545 S
C3510 C3511 1.396 1_545 S
C3510 C3515 1.390 . S
C3511 C3505 1.465 . S
C3511 C3510 1.396 1_565 S
C3511 C3512 1.399 1_554 S
C3512 H3498 0.929 . S
C3512 C3511 1.399 1_556 S
C3512 C3513 1.385 1_565 S
C3513 H3499 0.931 . S
C3513 C3512 1.385 1_545 S
C3513 C3514 1.389 1_556 S
C3514 C3513 1.389 1_554 S
C3514 C3515 1.387 . S
C3515 H3500 0.930 . S
C3515 C3510 1.390 . S
C3515 C3514 1.387 . S
H3516 C3528 0.930 . S
H3517 C3530 0.930 . S
H3518 C3531 0.930 . S
H3519 C3535 0.959 . S
H3520 C3535 0.959 . S
H3521 C3535 0.961 . S
H3522 C3536 0.960 . S
H3523 C3536 0.961 . S
H3524 C3536 0.959 . S
H3525 C3539 0.929 . S
H3526 C3540 0.931 . S
H3527 C3542 0.930 . S
C3528 H3516 0.930 . S
C3528 C3529 1.399 . S
C3528 C3533 1.399 . S
C3529 C3528 1.399 . S
C3529 C3530 1.376 . S
C3530 H3517 0.930 . S
C3530 C3529 1.376 . S
C3530 C3531 1.388 . S
C3531 H3518 0.930 . S
C3531 C3530 1.388 . S
C3531 C3532 1.390 . S
C3532 C3531 1.390 . S
C3532 C3533 1.394 . S
C3532 C3538 1.465 . S
C3533 C3528 1.399 . S
C3533 C3532 1.394 . S
C3533 C3534 1.516 . S
C3534 C3533 1.516 . S
C3534 C3535 1.502 . S
C3534 C3536 1.561 . S
C3534 C3537 1.526 . S
C3535 H3519 0.959 . S
C3535 H3520 0.959 . S
C3535 H3521 0.961 . S
C3535 C3534 1.502 . S
C3536 H3522 0.960 . S
C3536 H3523 0.961 . S
C3536 H3524 0.959 . S
C3536 C3534 1.561 . S
C3537 C3534 1.526 . S
C3537 C3538 1.396 . S
C3537 C3542 1.390 . S
C3538 C3532 1.465 . S
C3538 C3537 1.396 . S
C3538 C3539 1.399 . S
C3539 H3525 0.929 . S
C3539 C3538 1.399 . S
C3539 C3540 1.385 . S
C3540 H3526 0.931 . S
C3540 C3539 1.385 . S
C3540 C3541 1.389 . S
C3541 C3540 1.389 . S
C3541 C3542 1.387 . S
C3542 H3527 0.930 . S
C3542 C3537 1.390 . S
C3542 C3541 1.387 . S
H3543 C3555 0.930 . S
H3544 C3557 0.930 . S
H3545 C3558 0.930 . S
H3546 C3562 0.959 . S
H3547 C3562 0.959 . S
H3548 C3562 0.961 . S
H3549 C3563 0.960 . S
H3550 C3563 0.961 . S
H3551 C3563 0.959 . S
H3552 C3566 0.929 . S
H3553 C3567 0.931 . S
H3554 C3569 0.930 1_556 S
C3555 H3543 0.930 . S
C3555 C3556 1.399 1_556 S
C3555 C3560 1.399 1_556 S
C3556 C3555 1.399 1_554 S
C3556 C3557 1.376 . S
C3557 H3544 0.930 . S
C3557 C3556 1.376 . S
C3557 C3558 1.388 . S
C3558 H3545 0.930 . S
C3558 C3557 1.388 . S
C3558 C3559 1.390 . S
C3559 C3558 1.390 . S
C3559 C3560 1.394 . S
C3559 C3565 1.465 . S
C3560 C3555 1.399 1_554 S
C3560 C3559 1.394 . S
C3560 C3561 1.516 1_554 S
C3561 C3560 1.516 1_556 S
C3561 C3562 1.502 . S
C3561 C3563 1.561 . S
C3561 C3564 1.526 1_556 S
C3562 H3546 0.959 . S
C3562 H3547 0.959 . S
C3562 H3548 0.961 . S
C3562 C3561 1.502 . S
C3563 H3549 0.960 . S
C3563 H3550 0.961 . S
C3563 H3551 0.959 . S
C3563 C3561 1.561 . S
C3564 C3561 1.526 1_554 S
C3564 C3565 1.396 . S
C3564 C3569 1.390 . S
C3565 C3559 1.465 . S
C3565 C3564 1.396 . S
C3565 C3566 1.399 . S
C3566 H3552 0.929 . S
C3566 C3565 1.399 . S
C3566 C3567 1.385 . S
C3567 H3553 0.931 . S
C3567 C3566 1.385 . S
C3567 C3568 1.389 . S
C3568 C3567 1.389 . S
C3568 C3569 1.387 . S
C3569 H3554 0.930 1_554 S
C3569 C3564 1.390 . S
C3569 C3568 1.387 . S
H3570 C3582 0.930 . S
H3571 C3584 0.930 . S
H3572 C3585 0.930 . S
H3573 C3589 0.959 . S
H3574 C3589 0.959 . S
H3575 C3589 0.961 . S
H3576 C3590 0.960 . S
H3577 C3590 0.961 . S
H3578 C3590 0.959 . S
H3579 C3593 0.929 . S
H3580 C3594 0.931 . S
H3581 C3596 0.930 . S
C3582 H3570 0.930 . S
C3582 C3583 1.399 . S
C3582 C3587 1.399 . S
C3583 C3582 1.399 . S
C3583 C3584 1.376 . S
C3584 H3571 0.930 . S
C3584 C3583 1.376 . S
C3584 C3585 1.388 . S
C3585 H3572 0.930 . S
C3585 C3584 1.388 . S
C3585 C3586 1.390 . S
C3586 C3585 1.390 . S
C3586 C3587 1.394 . S
C3586 C3592 1.465 . S
C3587 C3582 1.399 . S
C3587 C3586 1.394 . S
C3587 C3588 1.516 . S
C3588 C3587 1.516 . S
C3588 C3589 1.502 . S
C3588 C3590 1.561 . S
C3588 C3591 1.526 . S
C3589 H3573 0.959 . S
C3589 H3574 0.959 . S
C3589 H3575 0.961 . S
C3589 C3588 1.502 . S
C3590 H3576 0.960 . S
C3590 H3577 0.961 . S
C3590 H3578 0.959 . S
C3590 C3588 1.561 . S
C3591 C3588 1.526 . S
C3591 C3592 1.396 . S
C3591 C3596 1.390 . S
C3592 C3586 1.465 . S
C3592 C3591 1.396 . S
C3592 C3593 1.399 . S
C3593 H3579 0.929 . S
C3593 C3592 1.399 . S
C3593 C3594 1.385 . S
C3594 H3580 0.931 . S
C3594 C3593 1.385 . S
C3594 C3595 1.389 . S
C3595 C3594 1.389 . S
C3595 C3596 1.387 . S
C3596 H3581 0.930 . S
C3596 C3591 1.390 . S
C3596 C3595 1.387 . S
H3597 C3609 0.930 . S
H3598 C3611 0.930 . S
H3599 C3612 0.930 . S
H3600 C3616 0.959 . S
H3601 C3616 0.959 . S
H3602 C3616 0.961 . S
H3603 C3617 0.960 . S
H3604 C3617 0.961 . S
H3605 C3617 0.959 . S
H3606 C3620 0.929 . S
H3607 C3621 0.931 . S
H3608 C3623 0.930 . S
C3609 H3597 0.930 . S
C3609 C3610 1.399 . S
C3609 C3614 1.399 . S
C3610 C3609 1.399 . S
C3610 C3611 1.376 . S
C3611 H3598 0.930 . S
C3611 C3610 1.376 . S
C3611 C3612 1.388 . S
C3612 H3599 0.930 . S
C3612 C3611 1.388 . S
C3612 C3613 1.390 . S
C3613 C3612 1.390 . S
C3613 C3614 1.394 . S
C3613 C3619 1.465 . S
C3614 C3609 1.399 . S
C3614 C3613 1.394 . S
C3614 C3615 1.516 . S
C3615 C3614 1.516 . S
C3615 C3616 1.502 . S
C3615 C3617 1.561 . S
C3615 C3618 1.526 . S
C3616 H3600 0.959 . S
C3616 H3601 0.959 . S
C3616 H3602 0.961 . S
C3616 C3615 1.502 . S
C3617 H3603 0.960 . S
C3617 H3604 0.961 . S
C3617 H3605 0.959 . S
C3617 C3615 1.561 . S
C3618 C3615 1.526 . S
C3618 C3619 1.396 . S
C3618 C3623 1.390 . S
C3619 C3613 1.465 . S
C3619 C3618 1.396 . S
C3619 C3620 1.399 . S
C3620 H3606 0.929 . S
C3620 C3619 1.399 . S
C3620 C3621 1.385 . S
C3621 H3607 0.931 . S
C3621 C3620 1.385 . S
C3621 C3622 1.389 . S
C3622 C3621 1.389 . S
C3622 C3623 1.387 . S
C3623 H3608 0.930 . S
C3623 C3618 1.390 . S
C3623 C3622 1.387 . S
H3624 C3636 0.930 . S
H3625 C3638 0.930 . S
H3626 C3639 0.930 . S
H3627 C3643 0.959 . S
H3628 C3643 0.959 . S
H3629 C3643 0.961 . S
H3630 C3644 0.960 . S
H3631 C3644 0.961 . S
H3632 C3644 0.959 . S
H3633 C3647 0.929 . S
H3634 C3648 0.931 . S
H3635 C3650 0.930 . S
C3636 H3624 0.930 . S
C3636 C3637 1.399 . S
C3636 C3641 1.399 . S
C3637 C3636 1.399 . S
C3637 C3638 1.376 . S
C3638 H3625 0.930 . S
C3638 C3637 1.376 . S
C3638 C3639 1.388 . S
C3639 H3626 0.930 . S
C3639 C3638 1.388 . S
C3639 C3640 1.390 . S
C3640 C3639 1.390 . S
C3640 C3641 1.394 . S
C3640 C3646 1.465 . S
C3641 C3636 1.399 . S
C3641 C3640 1.394 . S
C3641 C3642 1.516 . S
C3642 C3641 1.516 . S
C3642 C3643 1.502 . S
C3642 C3644 1.561 . S
C3642 C3645 1.526 . S
C3643 H3627 0.959 . S
C3643 H3628 0.959 . S
C3643 H3629 0.961 . S
C3643 C3642 1.502 . S
C3644 H3630 0.960 . S
C3644 H3631 0.961 . S
C3644 H3632 0.959 . S
C3644 C3642 1.561 . S
C3645 C3642 1.526 . S
C3645 C3646 1.396 . S
C3645 C3650 1.390 . S
C3646 C3640 1.465 . S
C3646 C3645 1.396 . S
C3646 C3647 1.399 . S
C3647 H3633 0.929 . S
C3647 C3646 1.399 . S
C3647 C3648 1.385 . S
C3648 H3634 0.931 . S
C3648 C3647 1.385 . S
C3648 C3649 1.389 . S
C3649 C3648 1.389 . S
C3649 C3650 1.387 . S
C3650 H3635 0.930 . S
C3650 C3645 1.390 . S
C3650 C3649 1.387 . S
H3651 C3663 0.930 . S
H3652 C3665 0.930 . S
H3653 C3666 0.930 . S
H3654 C3670 0.959 . S
H3655 C3670 0.959 . S
H3656 C3670 0.961 . S
H3657 C3671 0.960 . S
H3658 C3671 0.961 . S
H3659 C3671 0.959 . S
H3660 C3674 0.929 . S
H3661 C3675 0.931 . S
H3662 C3677 0.930 . S
C3663 H3651 0.930 . S
C3663 C3664 1.399 . S
C3663 C3668 1.399 . S
C3664 C3663 1.399 . S
C3664 C3665 1.376 . S
C3665 H3652 0.930 . S
C3665 C3664 1.376 . S
C3665 C3666 1.388 . S
C3666 H3653 0.930 . S
C3666 C3665 1.388 . S
C3666 C3667 1.390 . S
C3667 C3666 1.390 . S
C3667 C3668 1.394 . S
C3667 C3673 1.465 . S
C3668 C3663 1.399 . S
C3668 C3667 1.394 . S
C3668 C3669 1.516 . S
C3669 C3668 1.516 . S
C3669 C3670 1.502 . S
C3669 C3671 1.561 . S
C3669 C3672 1.526 . S
C3670 H3654 0.959 . S
C3670 H3655 0.959 . S
C3670 H3656 0.961 . S
C3670 C3669 1.502 . S
C3671 H3657 0.960 . S
C3671 H3658 0.961 . S
C3671 H3659 0.959 . S
C3671 C3669 1.561 . S
C3672 C3669 1.526 . S
C3672 C3673 1.396 . S
C3672 C3677 1.390 . S
C3673 C3667 1.465 . S
C3673 C3672 1.396 . S
C3673 C3674 1.399 . S
C3674 H3660 0.929 . S
C3674 C3673 1.399 . S
C3674 C3675 1.385 . S
C3675 H3661 0.931 . S
C3675 C3674 1.385 . S
C3675 C3676 1.389 . S
C3676 C3675 1.389 . S
C3676 C3677 1.387 . S
C3677 H3662 0.930 . S
C3677 C3672 1.390 . S
C3677 C3676 1.387 . S
H3678 C3690 0.930 . S
H3679 C3692 0.930 . S
H3680 C3693 0.930 . S
H3681 C3697 0.959 . S
H3682 C3697 0.959 . S
H3683 C3697 0.961 . S
H3684 C3698 0.960 . S
H3685 C3698 0.961 . S
H3686 C3698 0.959 . S
H3687 C3701 0.929 . S
H3688 C3702 0.931 1_556 S
H3689 C3704 0.930 . S
C3690 H3678 0.930 . S
C3690 C3691 1.399 . S
C3690 C3695 1.399 . S
C3691 C3690 1.399 . S
C3691 C3692 1.376 . S
C3692 H3679 0.930 . S
C3692 C3691 1.376 . S
C3692 C3693 1.388 . S
C3693 H3680 0.930 . S
C3693 C3692 1.388 . S
C3693 C3694 1.390 . S
C3694 C3693 1.390 . S
C3694 C3695 1.394 . S
C3694 C3700 1.465 . S
C3695 C3690 1.399 . S
C3695 C3694 1.394 . S
C3695 C3696 1.516 . S
C3696 C3695 1.516 . S
C3696 C3697 1.502 . S
C3696 C3698 1.561 . S
C3696 C3699 1.526 . S
C3697 H3681 0.959 . S
C3697 H3682 0.959 . S
C3697 H3683 0.961 . S
C3697 C3696 1.502 . S
C3698 H3684 0.960 . S
C3698 H3685 0.961 . S
C3698 H3686 0.959 . S
C3698 C3696 1.561 . S
C3699 C3696 1.526 . S
C3699 C3700 1.396 . S
C3699 C3704 1.390 . S
C3700 C3694 1.465 . S
C3700 C3699 1.396 . S
C3700 C3701 1.399 . S
C3701 H3687 0.929 . S
C3701 C3700 1.399 . S
C3701 C3702 1.385 . S
C3702 H3688 0.931 1_554 S
C3702 C3701 1.385 . S
C3702 C3703 1.389 . S
C3703 C3702 1.389 . S
C3703 C3704 1.387 . S
C3704 H3689 0.930 . S
C3704 C3699 1.390 . S
C3704 C3703 1.387 . S
H3705 C3717 0.930 . S
H3706 C3719 0.930 . S
H3707 C3720 0.930 . S
H3708 C3724 0.959 . S
H3709 C3724 0.959 . S
H3710 C3724 0.961 . S
H3711 C3725 0.960 . S
H3712 C3725 0.961 . S
H3713 C3725 0.959 . S
H3714 C3728 0.929 . S
H3715 C3729 0.931 . S
H3716 C3731 0.930 . S
C3717 H3705 0.930 . S
C3717 C3718 1.399 . S
C3717 C3722 1.399 . S
C3718 C3717 1.399 . S
C3718 C3719 1.376 . S
C3719 H3706 0.930 . S
C3719 C3718 1.376 . S
C3719 C3720 1.388 . S
C3720 H3707 0.930 . S
C3720 C3719 1.388 . S
C3720 C3721 1.390 . S
C3721 C3720 1.390 . S
C3721 C3722 1.394 . S
C3721 C3727 1.465 . S
C3722 C3717 1.399 . S
C3722 C3721 1.394 . S
C3722 C3723 1.516 . S
C3723 C3722 1.516 . S
C3723 C3724 1.502 . S
C3723 C3725 1.561 . S
C3723 C3726 1.526 . S
C3724 H3708 0.959 . S
C3724 H3709 0.959 . S
C3724 H3710 0.961 . S
C3724 C3723 1.502 . S
C3725 H3711 0.960 . S
C3725 H3712 0.961 . S
C3725 H3713 0.959 . S
C3725 C3723 1.561 . S
C3726 C3723 1.526 . S
C3726 C3727 1.396 . S
C3726 C3731 1.390 . S
C3727 C3721 1.465 . S
C3727 C3726 1.396 . S
C3727 C3728 1.399 . S
C3728 H3714 0.929 . S
C3728 C3727 1.399 . S
C3728 C3729 1.385 . S
C3729 H3715 0.931 . S
C3729 C3728 1.385 . S
C3729 C3730 1.389 . S
C3730 C3729 1.389 . S
C3730 C3731 1.387 . S
C3731 H3716 0.930 . S
C3731 C3726 1.390 . S
C3731 C3730 1.387 . S
H3732 C3744 0.930 . S
H3733 C3746 0.930 . S
H3734 C3747 0.930 . S
H3735 C3751 0.959 . S
H3736 C3751 0.959 . S
H3737 C3751 0.961 . S
H3738 C3752 0.960 . S
H3739 C3752 0.961 . S
H3740 C3752 0.959 . S
H3741 C3755 0.921 1_554 S
H3742 C3756 0.931 1_554 S
H3743 C3758 0.930 . S
C3744 H3732 0.930 . S
C3744 C3745 1.399 . S
C3744 C3749 1.399 . S
C3745 C3744 1.399 . S
C3745 C3746 1.376 . S
C3746 H3733 0.930 . S
C3746 C3745 1.376 . S
C3746 C3747 1.388 . S
C3747 H3734 0.930 . S
C3747 C3746 1.388 . S
C3747 C3748 1.390 . S
C3748 C3747 1.390 . S
C3748 C3749 1.394 . S
C3748 C3754 1.465 . S
C3749 C3744 1.399 . S
C3749 C3748 1.394 . S
C3749 C3750 1.516 . S
C3750 C3749 1.516 . S
C3750 C3751 1.502 . S
C3750 C3752 1.561 . S
C3750 C3753 1.526 . S
C3751 H3735 0.959 . S
C3751 H3736 0.959 . S
C3751 H3737 0.961 . S
C3751 C3750 1.502 . S
C3752 H3738 0.960 . S
C3752 H3739 0.961 . S
C3752 H3740 0.959 . S
C3752 C3750 1.561 . S
C3753 C3750 1.526 . S
C3753 C3754 1.396 . S
C3753 C3758 1.390 . S
C3754 C3748 1.465 . S
C3754 C3753 1.396 . S
C3754 C3755 1.399 . S
C3755 H3741 0.921 1_556 S
C3755 C3754 1.399 . S
C3755 C3756 1.385 . S
C3756 H3742 0.931 1_556 S
C3756 C3755 1.385 . S
C3756 C3757 1.389 . S
C3757 C3756 1.389 . S
C3757 C3758 1.387 . S
C3758 H3743 0.930 . S
C3758 C3753 1.390 . S
C3758 C3757 1.387 . S
H3759 C3771 0.930 . S
H3760 C3773 0.930 . S
H3761 C3774 0.930 . S
H3762 C3778 0.959 . S
H3763 C3778 0.959 . S
H3764 C3778 0.961 . S
H3765 C3779 0.960 . S
H3766 C3779 0.961 . S
H3767 C3779 0.959 . S
H3768 C3782 0.929 . S
H3769 C3783 0.931 . S
H3770 C3785 0.930 . S
C3771 H3759 0.930 . S
C3771 C3772 1.399 . S
C3771 C3776 1.399 . S
C3772 C3771 1.399 . S
C3772 C3773 1.376 . S
C3773 H3760 0.930 . S
C3773 C3772 1.376 . S
C3773 C3774 1.388 . S
C3774 H3761 0.930 . S
C3774 C3773 1.388 . S
C3774 C3775 1.390 . S
C3775 C3774 1.390 . S
C3775 C3776 1.394 . S
C3775 C3781 1.465 . S
C3776 C3771 1.399 . S
C3776 C3775 1.394 . S
C3776 C3777 1.516 . S
C3777 C3776 1.516 . S
C3777 C3778 1.502 . S
C3777 C3779 1.561 . S
C3777 C3780 1.526 . S
C3778 H3762 0.959 . S
C3778 H3763 0.959 . S
C3778 H3764 0.961 . S
C3778 C3777 1.502 . S
C3779 H3765 0.960 . S
C3779 H3766 0.961 . S
C3779 H3767 0.959 . S
C3779 C3777 1.561 . S
C3780 C3777 1.526 . S
C3780 C3781 1.396 . S
C3780 C3785 1.390 . S
C3781 C3775 1.465 . S
C3781 C3780 1.396 . S
C3781 C3782 1.399 . S
C3782 H3768 0.929 . S
C3782 C3781 1.399 . S
C3782 C3783 1.385 . S
C3783 H3769 0.931 . S
C3783 C3782 1.385 . S
C3783 C3784 1.389 . S
C3784 C3783 1.389 . S
C3784 C3785 1.387 . S
C3785 H3770 0.930 . S
C3785 C3780 1.390 . S
C3785 C3784 1.387 . S
H3786 C3798 0.930 . S
H3787 C3800 0.930 . S
H3788 C3801 0.930 . S
H3789 C3805 0.959 . S
H3790 C3805 0.959 . S
H3791 C3805 0.961 . S
H3792 C3806 0.960 . S
H3793 C3806 0.961 . S
H3794 C3806 0.959 . S
H3795 C3809 0.929 . S
H3796 C3810 0.931 . S
H3797 C3812 0.930 . S
C3798 H3786 0.930 . S
C3798 C3799 1.399 . S
C3798 C3803 1.399 . S
C3799 C3798 1.399 . S
C3799 C3800 1.376 . S
C3800 H3787 0.930 . S
C3800 C3799 1.376 . S
C3800 C3801 1.388 . S
C3801 H3788 0.930 . S
C3801 C3800 1.388 . S
C3801 C3802 1.390 . S
C3802 C3801 1.390 . S
C3802 C3803 1.394 . S
C3802 C3808 1.465 . S
C3803 C3798 1.399 . S
C3803 C3802 1.394 . S
C3803 C3804 1.516 . S
C3804 C3803 1.516 . S
C3804 C3805 1.502 . S
C3804 C3806 1.561 . S
C3804 C3807 1.526 . S
C3805 H3789 0.959 . S
C3805 H3790 0.959 . S
C3805 H3791 0.961 . S
C3805 C3804 1.502 . S
C3806 H3792 0.960 . S
C3806 H3793 0.961 . S
C3806 H3794 0.959 . S
C3806 C3804 1.561 . S
C3807 C3804 1.526 . S
C3807 C3808 1.396 . S
C3807 C3812 1.390 . S
C3808 C3802 1.465 . S
C3808 C3807 1.396 . S
C3808 C3809 1.399 . S
C3809 H3795 0.929 . S
C3809 C3808 1.399 . S
C3809 C3810 1.385 . S
C3810 H3796 0.931 . S
C3810 C3809 1.385 . S
C3810 C3811 1.389 . S
C3811 C3810 1.389 . S
C3811 C3812 1.387 . S
C3812 H3797 0.930 . S
C3812 C3807 1.390 . S
C3812 C3811 1.387 . S
H3813 C3825 0.930 . S
H3814 C3827 0.930 . S
H3815 C3828 0.930 . S
H3816 C3832 0.959 . S
H3817 C3832 0.959 . S
H3818 C3832 0.961 . S
H3819 C3833 0.960 . S
H3820 C3833 0.961 . S
H3821 C3833 0.959 . S
H3822 C3836 0.929 . S
H3823 C3837 0.931 . S
H3824 C3839 0.930 . S
C3825 H3813 0.930 . S
C3825 C3826 1.399 . S
C3825 C3830 1.399 . S
C3826 C3825 1.399 . S
C3826 C3827 1.376 . S
C3827 H3814 0.930 . S
C3827 C3826 1.376 . S
C3827 C3828 1.388 . S
C3828 H3815 0.930 . S
C3828 C3827 1.388 . S
C3828 C3829 1.390 . S
C3829 C3828 1.390 . S
C3829 C3830 1.394 . S
C3829 C3835 1.465 . S
C3830 C3825 1.399 . S
C3830 C3829 1.394 . S
C3830 C3831 1.516 . S
C3831 C3830 1.516 . S
C3831 C3832 1.502 . S
C3831 C3833 1.561 . S
C3831 C3834 1.526 . S
C3832 H3816 0.959 . S
C3832 H3817 0.959 . S
C3832 H3818 0.961 . S
C3832 C3831 1.502 . S
C3833 H3819 0.960 . S
C3833 H3820 0.961 . S
C3833 H3821 0.959 . S
C3833 C3831 1.561 . S
C3834 C3831 1.526 . S
C3834 C3835 1.396 . S
C3834 C3839 1.390 . S
C3835 C3829 1.465 . S
C3835 C3834 1.396 . S
C3835 C3836 1.399 . S
C3836 H3822 0.929 . S
C3836 C3835 1.399 . S
C3836 C3837 1.385 . S
C3837 H3823 0.931 . S
C3837 C3836 1.385 . S
C3837 C3838 1.389 . S
C3838 C3837 1.389 . S
C3838 C3839 1.387 . S
C3839 H3824 0.930 . S
C3839 C3834 1.390 . S
C3839 C3838 1.387 . S
H3840 C3852 0.930 . S
H3841 C3854 0.930 . S
H3842 C3855 0.930 . S
H3843 C3859 0.959 . S
H3844 C3859 0.959 . S
H3845 C3859 0.961 . S
H3846 C3860 0.960 . S
H3847 C3860 0.961 . S
H3848 C3860 0.959 . S
H3849 C3863 0.929 . S
H3850 C3864 0.931 . S
H3851 C3866 0.930 . S
C3852 H3840 0.930 . S
C3852 C3853 1.399 . S
C3852 C3857 1.399 . S
C3853 C3852 1.399 . S
C3853 C3854 1.376 . S
C3854 H3841 0.930 . S
C3854 C3853 1.376 . S
C3854 C3855 1.388 . S
C3855 H3842 0.930 . S
C3855 C3854 1.388 . S
C3855 C3856 1.390 . S
C3856 C3855 1.390 . S
C3856 C3857 1.394 . S
C3856 C3862 1.465 . S
C3857 C3852 1.399 . S
C3857 C3856 1.394 . S
C3857 C3858 1.516 . S
C3858 C3857 1.516 . S
C3858 C3859 1.502 . S
C3858 C3860 1.561 . S
C3858 C3861 1.526 . S
C3859 H3843 0.959 . S
C3859 H3844 0.959 . S
C3859 H3845 0.961 . S
C3859 C3858 1.502 . S
C3860 H3846 0.960 . S
C3860 H3847 0.961 . S
C3860 H3848 0.959 . S
C3860 C3858 1.561 . S
C3861 C3858 1.526 . S
C3861 C3862 1.396 . S
C3861 C3866 1.390 . S
C3862 C3856 1.465 . S
C3862 C3861 1.396 . S
C3862 C3863 1.399 . S
C3863 H3849 0.929 . S
C3863 C3862 1.399 . S
C3863 C3864 1.385 . S
C3864 H3850 0.931 . S
C3864 C3863 1.385 . S
C3864 C3865 1.389 . S
C3865 C3864 1.389 . S
C3865 C3866 1.387 . S
C3866 H3851 0.930 . S
C3866 C3861 1.390 . S
C3866 C3865 1.387 . S
H3867 C3879 0.930 . S
H3868 C3881 0.930 . S
H3869 C3882 0.930 . S
H3870 C3886 0.959 . S
H3871 C3886 0.959 . S
H3872 C3886 0.961 . S
H3873 C3887 0.960 . S
H3874 C3887 0.961 . S
H3875 C3887 0.959 . S
H3876 C3890 0.929 . S
H3877 C3891 0.931 . S
H3878 C3893 0.930 . S
C3879 H3867 0.930 . S
C3879 C3880 1.399 . S
C3879 C3884 1.399 . S
C3880 C3879 1.399 . S
C3880 C3881 1.376 . S
C3881 H3868 0.930 . S
C3881 C3880 1.376 . S
C3881 C3882 1.388 . S
C3882 H3869 0.930 . S
C3882 C3881 1.388 . S
C3882 C3883 1.390 . S
C3883 C3882 1.390 . S
C3883 C3884 1.394 . S
C3883 C3889 1.465 . S
C3884 C3879 1.399 . S
C3884 C3883 1.394 . S
C3884 C3885 1.516 . S
C3885 C3884 1.516 . S
C3885 C3886 1.502 . S
C3885 C3887 1.561 . S
C3885 C3888 1.526 . S
C3886 H3870 0.959 . S
C3886 H3871 0.959 . S
C3886 H3872 0.961 . S
C3886 C3885 1.502 . S
C3887 H3873 0.960 . S
C3887 H3874 0.961 . S
C3887 H3875 0.959 . S
C3887 C3885 1.561 . S
C3888 C3885 1.526 . S
C3888 C3889 1.396 . S
C3888 C3893 1.390 . S
C3889 C3883 1.465 . S
C3889 C3888 1.396 . S
C3889 C3890 1.399 . S
C3890 H3876 0.929 . S
C3890 C3889 1.399 . S
C3890 C3891 1.385 . S
C3891 H3877 0.931 . S
C3891 C3890 1.385 . S
C3891 C3892 1.389 . S
C3892 C3891 1.389 . S
C3892 C3893 1.387 . S
C3893 H3878 0.930 . S
C3893 C3888 1.390 . S
C3893 C3892 1.387 . S
H3894 C3906 0.930 . S
H3895 C3908 0.930 . S
H3896 C3909 0.930 . S
H3897 C3913 0.959 . S
H3898 C3913 0.959 . S
H3899 C3913 0.961 . S
H3900 C3914 0.960 . S
H3901 C3914 0.961 . S
H3902 C3914 0.959 . S
H3903 C3917 0.929 . S
H3904 C3918 0.931 . S
H3905 C3920 0.930 . S
C3906 H3894 0.930 . S
C3906 C3907 1.399 . S
C3906 C3911 1.399 . S
C3907 C3906 1.399 . S
C3907 C3908 1.376 . S
C3908 H3895 0.930 . S
C3908 C3907 1.376 . S
C3908 C3909 1.388 . S
C3909 H3896 0.930 . S
C3909 C3908 1.388 . S
C3909 C3910 1.390 . S
C3910 C3909 1.390 . S
C3910 C3911 1.394 . S
C3910 C3916 1.465 . S
C3911 C3906 1.399 . S
C3911 C3910 1.394 . S
C3911 C3912 1.516 . S
C3912 C3911 1.516 . S
C3912 C3913 1.502 1_655 S
C3912 C3914 1.561 . S
C3912 C3915 1.526 1_655 S
C3913 H3897 0.959 . S
C3913 H3898 0.959 . S
C3913 H3899 0.961 . S
C3913 C3912 1.502 1_455 S
C3914 H3900 0.960 . S
C3914 H3901 0.961 . S
C3914 H3902 0.959 . S
C3914 C3912 1.561 . S
C3915 C3912 1.526 1_455 S
C3915 C3916 1.396 1_455 S
C3915 C3920 1.390 . S
C3916 C3910 1.465 . S
C3916 C3915 1.396 1_655 S
C3916 C3917 1.399 . S
C3917 H3903 0.929 . S
C3917 C3916 1.399 . S
C3917 C3918 1.385 1_655 S
C3918 H3904 0.931 . S
C3918 C3917 1.385 1_455 S
C3918 C3919 1.389 . S
C3919 C3918 1.389 . S
C3919 C3920 1.387 . S
C3920 H3905 0.930 . S
C3920 C3915 1.390 . S
C3920 C3919 1.387 . S
H3921 C3933 0.930 . S
H3922 C3935 0.930 . S
H3923 C3936 0.930 . S
H3924 C3940 0.959 . S
H3925 C3940 0.959 . S
H3926 C3940 0.961 . S
H3927 C3941 0.960 . S
H3928 C3941 0.961 . S
H3929 C3941 0.959 . S
H3930 C3944 0.929 . S
H3931 C3945 0.931 . S
H3932 C3947 0.930 . S
C3933 H3921 0.930 . S
C3933 C3934 1.399 . S
C3933 C3938 1.399 . S
C3934 C3933 1.399 . S
C3934 C3935 1.376 . S
C3935 H3922 0.930 . S
C3935 C3934 1.376 . S
C3935 C3936 1.388 . S
C3936 H3923 0.930 . S
C3936 C3935 1.388 . S
C3936 C3937 1.390 . S
C3937 C3936 1.390 . S
C3937 C3938 1.394 . S
C3937 C3943 1.465 . S
C3938 C3933 1.399 . S
C3938 C3937 1.394 . S
C3938 C3939 1.516 . S
C3939 C3938 1.516 . S
C3939 C3940 1.502 . S
C3939 C3941 1.561 . S
C3939 C3942 1.526 . S
C3940 H3924 0.959 . S
C3940 H3925 0.959 . S
C3940 H3926 0.961 . S
C3940 C3939 1.502 . S
C3941 H3927 0.960 . S
C3941 H3928 0.961 . S
C3941 H3929 0.959 . S
C3941 C3939 1.561 . S
C3942 C3939 1.526 . S
C3942 C3943 1.396 . S
C3942 C3947 1.390 . S
C3943 C3937 1.465 . S
C3943 C3942 1.396 . S
C3943 C3944 1.399 . S
C3944 H3930 0.929 . S
C3944 C3943 1.399 . S
C3944 C3945 1.385 . S
C3945 H3931 0.931 . S
C3945 C3944 1.385 . S
C3945 C3946 1.389 . S
C3946 C3945 1.389 . S
C3946 C3947 1.387 . S
C3947 H3932 0.930 . S
C3947 C3942 1.390 . S
C3947 C3946 1.387 . S
H3948 C3960 0.930 . S
H3949 C3962 0.930 . S
H3950 C3963 0.930 . S
H3951 C3967 0.959 . S
H3952 C3967 0.959 . S
H3953 C3967 0.961 . S
H3954 C3968 0.960 . S
H3955 C3968 0.961 . S
H3956 C3968 0.959 . S
H3957 C3971 0.929 . S
H3958 C3972 0.931 . S
H3959 C3974 0.930 . S
C3960 H3948 0.930 . S
C3960 C3961 1.399 . S
C3960 C3965 1.399 . S
C3961 C3960 1.399 . S
C3961 C3962 1.376 . S
C3962 H3949 0.930 . S
C3962 C3961 1.376 . S
C3962 C3963 1.388 . S
C3963 H3950 0.930 . S
C3963 C3962 1.388 . S
C3963 C3964 1.390 . S
C3964 C3963 1.390 . S
C3964 C3965 1.394 . S
C3964 C3970 1.465 . S
C3965 C3960 1.399 . S
C3965 C3964 1.394 . S
C3965 C3966 1.516 . S
C3966 C3965 1.516 . S
C3966 C3967 1.502 . S
C3966 C3968 1.561 . S
C3966 C3969 1.526 . S
C3967 H3951 0.959 . S
C3967 H3952 0.959 . S
C3967 H3953 0.961 . S
C3967 C3966 1.502 . S
C3968 H3954 0.960 . S
C3968 H3955 0.961 . S
C3968 H3956 0.959 . S
C3968 C3966 1.561 . S
C3969 C3966 1.526 . S
C3969 C3970 1.396 . S
C3969 C3974 1.390 . S
C3970 C3964 1.465 . S
C3970 C3969 1.396 . S
C3970 C3971 1.399 . S
C3971 H3957 0.929 . S
C3971 C3970 1.399 . S
C3971 C3972 1.385 . S
C3972 H3958 0.931 . S
C3972 C3971 1.385 . S
C3972 C3973 1.389 . S
C3973 C3972 1.389 . S
C3973 C3974 1.387 . S
C3974 H3959 0.930 . S
C3974 C3969 1.390 . S
C3974 C3973 1.387 . S
H3975 C3987 0.930 . S
H3976 C3989 0.930 . S
H3977 C3990 0.930 . S
H3978 C3994 0.959 . S
H3979 C3994 0.959 . S
H3980 C3994 0.961 . S
H3981 C3995 0.960 . S
H3982 C3995 0.961 . S
H3983 C3995 0.959 . S
H3984 C3998 0.929 . S
H3985 C3999 0.931 . S
H3986 C4001 0.930 . S
C3987 H3975 0.930 . S
C3987 C3988 1.399 . S
C3987 C3992 1.399 . S
C3988 C3987 1.399 . S
C3988 C3989 1.376 . S
C3989 H3976 0.930 . S
C3989 C3988 1.376 . S
C3989 C3990 1.388 . S
C3990 H3977 0.930 . S
C3990 C3989 1.388 . S
C3990 C3991 1.390 . S
C3991 C3990 1.390 . S
C3991 C3992 1.394 . S
C3991 C3997 1.465 . S
C3992 C3987 1.399 . S
C3992 C3991 1.394 . S
C3992 C3993 1.516 . S
C3993 C3992 1.516 . S
C3993 C3994 1.502 . S
C3993 C3995 1.561 . S
C3993 C3996 1.526 . S
C3994 H3978 0.959 . S
C3994 H3979 0.959 . S
C3994 H3980 0.961 . S
C3994 C3993 1.502 . S
C3995 H3981 0.960 . S
C3995 H3982 0.961 . S
C3995 H3983 0.959 . S
C3995 C3993 1.561 . S
C3996 C3993 1.526 . S
C3996 C3997 1.396 . S
C3996 C4001 1.390 . S
C3997 C3991 1.465 . S
C3997 C3996 1.396 . S
C3997 C3998 1.399 . S
C3998 H3984 0.929 . S
C3998 C3997 1.399 . S
C3998 C3999 1.385 . S
C3999 H3985 0.931 . S
C3999 C3998 1.385 . S
C3999 C4000 1.389 . S
C4000 C3999 1.389 . S
C4000 C4001 1.387 . S
C4001 H3986 0.930 . S
C4001 C3996 1.390 . S
C4001 C4000 1.387 . S
H4002 C4014 0.930 . S
H4003 C4016 0.930 . S
H4004 C4017 0.930 . S
H4005 C4021 0.959 . S
H4006 C4021 0.959 . S
H4007 C4021 0.961 . S
H4008 C4022 0.960 . S
H4009 C4022 0.961 . S
H4010 C4022 0.959 . S
H4011 C4025 0.929 . S
H4012 C4026 0.931 . S
H4013 C4028 0.930 . S
C4014 H4002 0.930 . S
C4014 C4015 1.399 . S
C4014 C4019 1.399 . S
C4015 C4014 1.399 . S
C4015 C4016 1.376 . S
C4016 H4003 0.930 . S
C4016 C4015 1.376 . S
C4016 C4017 1.388 . S
C4017 H4004 0.930 . S
C4017 C4016 1.388 . S
C4017 C4018 1.390 . S
C4018 C4017 1.390 . S
C4018 C4019 1.394 . S
C4018 C4024 1.465 . S
C4019 C4014 1.399 . S
C4019 C4018 1.394 . S
C4019 C4020 1.516 . S
C4020 C4019 1.516 . S
C4020 C4021 1.502 . S
C4020 C4022 1.561 . S
C4020 C4023 1.526 . S
C4021 H4005 0.959 . S
C4021 H4006 0.959 . S
C4021 H4007 0.961 . S
C4021 C4020 1.502 . S
C4022 H4008 0.960 . S
C4022 H4009 0.961 . S
C4022 H4010 0.959 . S
C4022 C4020 1.561 . S
C4023 C4020 1.526 . S
C4023 C4024 1.396 . S
C4023 C4028 1.390 . S
C4024 C4018 1.465 . S
C4024 C4023 1.396 . S
C4024 C4025 1.399 1_655 S
C4025 H4011 0.929 . S
C4025 C4024 1.399 1_455 S
C4025 C4026 1.385 . S
C4026 H4012 0.931 . S
C4026 C4025 1.385 . S
C4026 C4027 1.399 . S
C4027 C4026 1.399 . S
C4027 C4028 1.363 1_455 S
C4028 H4013 0.930 . S
C4028 C4023 1.390 . S
C4028 C4027 1.363 1_655 S
H4029 C4041 0.930 . S
H4030 C4043 0.930 . S
H4031 C4044 0.930 . S
H4032 C4048 0.959 . S
H4033 C4048 0.959 . S
H4034 C4048 0.961 . S
H4035 C4049 0.960 . S
H4036 C4049 0.961 . S
H4037 C4049 0.959 . S
H4038 C4052 0.929 . S
H4039 C4053 0.931 . S
H4040 C4055 0.930 . S
C4041 H4029 0.930 . S
C4041 C4042 1.399 . S
C4041 C4046 1.399 . S
C4042 C4041 1.399 . S
C4042 C4043 1.376 . S
C4043 H4030 0.930 . S
C4043 C4042 1.376 . S
C4043 C4044 1.388 . S
C4044 H4031 0.930 . S
C4044 C4043 1.388 . S
C4044 C4045 1.390 . S
C4045 C4044 1.390 . S
C4045 C4046 1.394 . S
C4045 C4051 1.465 . S
C4046 C4041 1.399 . S
C4046 C4045 1.394 . S
C4046 C4047 1.516 . S
C4047 C4046 1.516 . S
C4047 C4048 1.502 . S
C4047 C4049 1.561 . S
C4047 C4050 1.526 . S
C4048 H4032 0.959 . S
C4048 H4033 0.959 . S
C4048 H4034 0.961 . S
C4048 C4047 1.502 . S
C4049 H4035 0.960 . S
C4049 H4036 0.961 . S
C4049 H4037 0.959 . S
C4049 C4047 1.561 . S
C4050 C4047 1.526 . S
C4050 C4051 1.396 . S
C4050 C4055 1.390 . S
C4051 C4045 1.465 . S
C4051 C4050 1.396 . S
C4051 C4052 1.399 . S
C4052 H4038 0.929 . S
C4052 C4051 1.399 . S
C4052 C4053 1.385 . S
C4053 H4039 0.931 . S
C4053 C4052 1.385 . S
C4053 C4054 1.389 . S
C4054 C4053 1.389 . S
C4054 C4055 1.387 . S
C4055 H4040 0.930 . S
C4055 C4050 1.390 . S
C4055 C4054 1.387 . S
H4056 C4068 0.930 . S
H4057 C4070 0.930 . S
H4058 C4071 0.930 . S
H4059 C4075 0.959 . S
H4060 C4075 0.959 . S
H4061 C4075 0.961 . S
H4062 C4076 0.960 . S
H4063 C4076 0.961 . S
H4064 C4076 0.959 . S
H4065 C4079 0.929 . S
H4066 C4080 0.931 . S
H4067 C4082 0.930 . S
C4068 H4056 0.930 . S
C4068 C4069 1.399 . S
C4068 C4073 1.399 . S
C4069 C4068 1.399 . S
C4069 C4070 1.376 . S
C4070 H4057 0.930 . S
C4070 C4069 1.376 . S
C4070 C4071 1.388 . S
C4071 H4058 0.930 . S
C4071 C4070 1.388 . S
C4071 C4072 1.390 . S
C4072 C4071 1.390 . S
C4072 C4073 1.394 . S
C4072 C4078 1.465 . S
C4073 C4068 1.399 . S
C4073 C4072 1.394 . S
C4073 C4074 1.516 . S
C4074 C4073 1.516 . S
C4074 C4075 1.502 . S
C4074 C4076 1.561 . S
C4074 C4077 1.526 . S
C4075 H4059 0.959 . S
C4075 H4060 0.959 . S
C4075 H4061 0.961 . S
C4075 C4074 1.502 . S
C4076 H4062 0.960 . S
C4076 H4063 0.961 . S
C4076 H4064 0.959 . S
C4076 C4074 1.561 . S
C4077 C4074 1.526 . S
C4077 C4078 1.396 . S
C4077 C4082 1.390 . S
C4078 C4072 1.465 . S
C4078 C4077 1.396 . S
C4078 C4079 1.399 . S
C4079 H4065 0.929 . S
C4079 C4078 1.399 . S
C4079 C4080 1.385 . S
C4080 H4066 0.931 . S
C4080 C4079 1.385 . S
C4080 C4081 1.389 . S
C4081 C4080 1.389 . S
C4081 C4082 1.387 . S
C4082 H4067 0.930 . S
C4082 C4077 1.390 . S
C4082 C4081 1.387 . S
H4083 C4095 0.930 . S
H4084 C4097 0.930 . S
H4085 C4098 0.930 . S
H4086 C4102 0.959 . S
H4087 C4102 0.959 . S
H4088 C4102 0.961 . S
H4089 C4103 0.960 . S
H4090 C4103 0.961 . S
H4091 C4103 0.959 . S
H4092 C4106 0.929 . S
H4093 C4107 0.931 . S
H4094 C4109 0.930 . S
C4095 H4083 0.930 . S
C4095 C4096 1.399 . S
C4095 C4100 1.399 . S
C4096 C4095 1.399 . S
C4096 C4097 1.376 . S
C4097 H4084 0.930 . S
C4097 C4096 1.376 . S
C4097 C4098 1.388 . S
C4098 H4085 0.930 . S
C4098 C4097 1.388 . S
C4098 C4099 1.390 . S
C4099 C4098 1.390 . S
C4099 C4100 1.394 . S
C4099 C4105 1.465 . S
C4100 C4095 1.399 . S
C4100 C4099 1.394 . S
C4100 C4101 1.516 . S
C4101 C4100 1.516 . S
C4101 C4102 1.502 . S
C4101 C4103 1.561 . S
C4101 C4104 1.526 . S
C4102 H4086 0.959 . S
C4102 H4087 0.959 . S
C4102 H4088 0.961 . S
C4102 C4101 1.502 . S
C4103 H4089 0.960 . S
C4103 H4090 0.961 . S
C4103 H4091 0.959 . S
C4103 C4101 1.561 . S
C4104 C4101 1.526 . S
C4104 C4105 1.396 . S
C4104 C4109 1.390 . S
C4105 C4099 1.465 . S
C4105 C4104 1.396 . S
C4105 C4106 1.399 . S
C4106 H4092 0.929 . S
C4106 C4105 1.399 . S
C4106 C4107 1.385 1_565 S
C4107 H4093 0.931 . S
C4107 C4106 1.385 1_545 S
C4107 C4108 1.389 1_545 S
C4108 C4107 1.389 1_565 S
C4108 C4109 1.387 . S
C4109 H4094 0.930 . S
C4109 C4104 1.390 . S
C4109 C4108 1.387 . S
H4110 C4122 0.930 . S
H4111 C4124 0.930 . S
H4112 C4125 0.930 . S
H4113 C4129 0.959 . S
H4114 C4129 0.959 . S
H4115 C4129 0.961 . S
H4116 C4130 0.960 . S
H4117 C4130 0.961 . S
H4118 C4130 0.959 . S
H4119 C4133 0.929 . S
H4120 C4134 0.931 . S
H4121 C4136 0.930 . S
C4122 H4110 0.930 . S
C4122 C4123 1.399 . S
C4122 C4127 1.399 . S
C4123 C4122 1.399 . S
C4123 C4124 1.376 . S
C4124 H4111 0.930 . S
C4124 C4123 1.376 . S
C4124 C4125 1.388 . S
C4125 H4112 0.930 . S
C4125 C4124 1.388 . S
C4125 C4126 1.390 . S
C4126 C4125 1.390 . S
C4126 C4127 1.394 . S
C4126 C4132 1.465 . S
C4127 C4122 1.399 . S
C4127 C4126 1.394 . S
C4127 C4128 1.516 . S
C4128 C4127 1.516 . S
C4128 C4129 1.502 . S
C4128 C4130 1.561 . S
C4128 C4131 1.526 . S
C4129 H4113 0.959 . S
C4129 H4114 0.959 . S
C4129 H4115 0.961 . S
C4129 C4128 1.502 . S
C4130 H4116 0.960 . S
C4130 H4117 0.961 . S
C4130 H4118 0.959 . S
C4130 C4128 1.561 . S
C4131 C4128 1.526 . S
C4131 C4132 1.396 . S
C4131 C4136 1.390 . S
C4132 C4126 1.465 . S
C4132 C4131 1.396 . S
C4132 C4133 1.399 . S
C4133 H4119 0.929 . S
C4133 C4132 1.399 . S
C4133 C4134 1.385 . S
C4134 H4120 0.931 . S
C4134 C4133 1.385 . S
C4134 C4135 1.389 . S
C4135 C4134 1.389 . S
C4135 C4136 1.387 . S
C4136 H4121 0.930 . S
C4136 C4131 1.390 . S
C4136 C4135 1.387 . S
H4137 C4149 0.930 . S
H4138 C4151 0.930 . S
H4139 C4152 0.930 . S
H4140 C4156 0.959 . S
H4141 C4156 0.959 . S
H4142 C4156 0.961 . S
H4143 C4157 0.960 . S
H4144 C4157 0.961 . S
H4145 C4157 0.959 . S
H4146 C4160 0.929 . S
H4147 C4161 0.931 . S
H4148 C4163 0.930 . S
C4149 H4137 0.930 . S
C4149 C4150 1.399 . S
C4149 C4154 1.399 . S
C4150 C4149 1.399 . S
C4150 C4151 1.376 1_554 S
C4151 H4138 0.930 . S
C4151 C4150 1.376 1_556 S
C4151 C4152 1.388 . S
C4152 H4139 0.930 . S
C4152 C4151 1.388 . S
C4152 C4153 1.390 1_556 S
C4153 C4152 1.390 1_554 S
C4153 C4154 1.394 . S
C4153 C4159 1.465 . S
C4154 C4149 1.399 . S
C4154 C4153 1.394 . S
C4154 C4155 1.516 . S
C4155 C4154 1.516 . S
C4155 C4156 1.502 . S
C4155 C4157 1.561 . S
C4155 C4158 1.526 . S
C4156 H4140 0.959 . S
C4156 H4141 0.959 . S
C4156 H4142 0.961 . S
C4156 C4155 1.502 . S
C4157 H4143 0.960 . S
C4157 H4144 0.961 . S
C4157 H4145 0.959 . S
C4157 C4155 1.561 . S
C4158 C4155 1.526 . S
C4158 C4159 1.396 . S
C4158 C4163 1.390 . S
C4159 C4153 1.465 . S
C4159 C4158 1.396 . S
C4159 C4160 1.399 1_554 S
C4160 H4146 0.929 . S
C4160 C4159 1.399 1_556 S
C4160 C4161 1.385 . S
C4161 H4147 0.931 . S
C4161 C4160 1.385 . S
C4161 C4162 1.389 1_556 S
C4162 C4161 1.389 1_554 S
C4162 C4163 1.387 . S
C4163 H4148 0.930 . S
C4163 C4158 1.390 . S
C4163 C4162 1.387 . S
H4164 C4176 0.930 . S
H4165 C4178 0.930 . S
H4166 C4179 0.930 . S
H4167 C4183 0.959 . S
H4168 C4183 0.959 . S
H4169 C4183 0.961 . S
H4170 C4184 0.960 . S
H4171 C4184 0.961 . S
H4172 C4184 0.959 . S
H4173 C4187 0.929 . S
H4174 C4188 0.931 . S
H4175 C4190 0.930 . S
C4176 H4164 0.930 . S
C4176 C4177 1.399 . S
C4176 C4181 1.399 . S
C4177 C4176 1.399 . S
C4177 C4178 1.376 . S
C4178 H4165 0.930 . S
C4178 C4177 1.376 . S
C4178 C4179 1.388 . S
C4179 H4166 0.930 . S
C4179 C4178 1.388 . S
C4179 C4180 1.390 . S
C4180 C4179 1.390 . S
C4180 C4181 1.394 . S
C4180 C4186 1.465 . S
C4181 C4176 1.399 . S
C4181 C4180 1.394 . S
C4181 C4182 1.516 . S
C4182 C4181 1.516 . S
C4182 C4183 1.502 . S
C4182 C4184 1.561 . S
C4182 C4185 1.526 . S
C4183 H4167 0.959 . S
C4183 H4168 0.959 . S
C4183 H4169 0.961 . S
C4183 C4182 1.502 . S
C4184 H4170 0.960 . S
C4184 H4171 0.961 . S
C4184 H4172 0.959 . S
C4184 C4182 1.561 . S
C4185 C4182 1.526 . S
C4185 C4186 1.396 . S
C4185 C4190 1.390 . S
C4186 C4180 1.465 . S
C4186 C4185 1.396 . S
C4186 C4187 1.399 . S
C4187 H4173 0.929 . S
C4187 C4186 1.399 . S
C4187 C4188 1.385 . S
C4188 H4174 0.931 . S
C4188 C4187 1.385 . S
C4188 C4189 1.389 . S
C4189 C4188 1.389 . S
C4189 C4190 1.387 . S
C4190 H4175 0.930 . S
C4190 C4185 1.390 . S
C4190 C4189 1.387 . S
H4191 C4203 0.930 . S
H4192 C4205 0.930 . S
H4193 C4206 0.930 1_556 S
H4194 C4210 0.959 . S
H4195 C4210 0.959 . S
H4196 C4210 0.961 . S
H4197 C4211 0.960 . S
H4198 C4211 0.961 . S
H4199 C4211 0.959 . S
H4200 C4214 0.929 . S
H4201 C4215 0.931 . S
H4202 C4217 0.930 . S
C4203 H4191 0.930 . S
C4203 C4204 1.399 . S
C4203 C4208 1.399 . S
C4204 C4203 1.399 . S
C4204 C4205 1.376 . S
C4205 H4192 0.930 . S
C4205 C4204 1.376 . S
C4205 C4206 1.388 . S
C4206 H4193 0.930 1_554 S
C4206 C4205 1.388 . S
C4206 C4207 1.390 . S
C4207 C4206 1.390 . S
C4207 C4208 1.394 . S
C4207 C4213 1.465 . S
C4208 C4203 1.399 . S
C4208 C4207 1.394 . S
C4208 C4209 1.516 . S
C4209 C4208 1.516 . S
C4209 C4210 1.502 . S
C4209 C4211 1.561 . S
C4209 C4212 1.526 . S
C4210 H4194 0.959 . S
C4210 H4195 0.959 . S
C4210 H4196 0.961 . S
C4210 C4209 1.502 . S
C4211 H4197 0.960 . S
C4211 H4198 0.961 . S
C4211 H4199 0.959 . S
C4211 C4209 1.561 . S
C4212 C4209 1.526 . S
C4212 C4213 1.396 . S
C4212 C4217 1.390 . S
C4213 C4207 1.465 . S
C4213 C4212 1.396 . S
C4213 C4214 1.399 1_554 S
C4214 H4200 0.929 . S
C4214 C4213 1.399 1_556 S
C4214 C4215 1.385 . S
C4215 H4201 0.931 . S
C4215 C4214 1.385 . S
C4215 C4216 1.389 1_556 S
C4216 C4215 1.389 1_554 S
C4216 C4217 1.387 . S
C4217 H4202 0.930 . S
C4217 C4212 1.390 . S
C4217 C4216 1.387 . S
H4218 C4230 0.930 . S
H4219 C4232 0.930 . S
H4220 C4233 0.930 . S
H4221 C4237 0.959 . S
H4222 C4237 0.959 . S
H4223 C4237 0.961 . S
H4224 C4238 0.960 . S
H4225 C4238 0.961 . S
H4226 C4238 0.959 . S
H4227 C4241 0.929 . S
H4228 C4242 0.931 . S
H4229 C4244 0.930 . S
C4230 H4218 0.930 . S
C4230 C4231 1.399 . S
C4230 C4235 1.399 . S
C4231 C4230 1.399 . S
C4231 C4232 1.376 . S
C4232 H4219 0.930 . S
C4232 C4231 1.376 . S
C4232 C4233 1.388 . S
C4233 H4220 0.930 . S
C4233 C4232 1.388 . S
C4233 C4234 1.390 . S
C4234 C4233 1.390 . S
C4234 C4235 1.394 . S
C4234 C4240 1.465 . S
C4235 C4230 1.399 . S
C4235 C4234 1.394 . S
C4235 C4236 1.516 . S
C4236 C4235 1.516 . S
C4236 C4237 1.502 . S
C4236 C4238 1.561 . S
C4236 C4239 1.526 . S
C4237 H4221 0.959 . S
C4237 H4222 0.959 . S
C4237 H4223 0.961 . S
C4237 C4236 1.502 . S
C4238 H4224 0.960 . S
C4238 H4225 0.961 . S
C4238 H4226 0.959 . S
C4238 C4236 1.561 . S
C4239 C4236 1.526 . S
C4239 C4240 1.396 . S
C4239 C4244 1.390 . S
C4240 C4234 1.465 . S
C4240 C4239 1.396 . S
C4240 C4241 1.399 . S
C4241 H4227 0.929 . S
C4241 C4240 1.399 . S
C4241 C4242 1.385 . S
C4242 H4228 0.931 . S
C4242 C4241 1.385 . S
C4242 C4243 1.389 . S
C4243 C4242 1.389 . S
C4243 C4244 1.387 . S
C4244 H4229 0.930 . S
C4244 C4239 1.390 . S
C4244 C4243 1.387 . S
H4245 C4257 0.930 . S
H4246 C4259 0.930 . S
H4247 C4260 0.930 . S
H4248 C4264 0.959 . S
H4249 C4264 0.959 . S
H4250 C4264 0.961 . S
H4251 C4265 0.960 . S
H4252 C4265 0.961 . S
H4253 C4265 0.959 . S
H4254 C4268 0.929 . S
H4255 C4269 0.931 . S
H4256 C4271 0.930 . S
C4257 H4245 0.930 . S
C4257 C4258 1.399 . S
C4257 C4262 1.399 . S
C4258 C4257 1.399 . S
C4258 C4259 1.376 . S
C4259 H4246 0.930 . S
C4259 C4258 1.376 . S
C4259 C4260 1.388 . S
C4260 H4247 0.930 . S
C4260 C4259 1.388 . S
C4260 C4261 1.390 . S
C4261 C4260 1.390 . S
C4261 C4262 1.394 . S
C4261 C4267 1.465 . S
C4262 C4257 1.399 . S
C4262 C4261 1.394 . S
C4262 C4263 1.516 . S
C4263 C4262 1.516 . S
C4263 C4264 1.502 . S
C4263 C4265 1.561 . S
C4263 C4266 1.526 . S
C4264 H4248 0.959 . S
C4264 H4249 0.959 . S
C4264 H4250 0.961 . S
C4264 C4263 1.502 . S
C4265 H4251 0.960 . S
C4265 H4252 0.961 . S
C4265 H4253 0.959 . S
C4265 C4263 1.561 . S
C4266 C4263 1.526 . S
C4266 C4267 1.396 . S
C4266 C4271 1.390 . S
C4267 C4261 1.465 . S
C4267 C4266 1.396 . S
C4267 C4268 1.399 . S
C4268 H4254 0.929 . S
C4268 C4267 1.399 . S
C4268 C4269 1.385 . S
C4269 H4255 0.931 . S
C4269 C4268 1.385 . S
C4269 C4270 1.389 . S
C4270 C4269 1.389 . S
C4270 C4271 1.387 . S
C4271 H4256 0.930 . S
C4271 C4266 1.390 . S
C4271 C4270 1.387 . S
C1693 C109 1.799 . S
C1705 C392 1.599 . S
C1720 C65 2.234 . S
C1732 C483 2.185 . S
C1747 C75 1.585 . S
C1759 C560 1.520 . S
C1786 C658 1.476 . S
C1774 C84 1.608 . S
C1801 C25 1.503 . S
C1813 C742 1.477 . S
C1840 C814 0.991 . S
C1828 C28 0.966 . S
C1867 C903 0.918 . S
C1855 C47 0.893 . S
C1882 C9 1.525 . S
C1894 C980 1.330 . S
C1921 C399 2.092 . S
C1909 C233 2.183 . S
C1936 C249 0.722 . S
C1948 C490 0.785 . S
C1975 C567 1.241 . S
C1963 C275 1.285 . S
C2002 C644 1.568 . S
C1990 C173 1.643 . S
C2017 C224 2.158 . S
C2029 C728 1.974 . S
C2056 C830 1.121 . S
C2044 C243 1.230 . S
C2083 C910 0.743 . S
C2071 C266 0.801 . S
C2110 C987 1.440 . S
C2098 C179 1.599 . S
C2137 C406 1.418 . S
C2125 C163 1.491 . S
C2152 C289 1.949 . S
C2164 C1071 1.895 1_556 S
C2191 C1159 2.194 . S
C2179 C333 2.357 . S
C2218 C1232 0.580 . S
C2206 C308 0.449 . S
C2233 C123 0.942 . S
C2245 C994 0.992 . S
C2260 C126 1.471 . S
C2272 C574 1.470 . S
C2287 C327 2.280 . S
C2299 C1323 2.214 . S
C2326 C1400 0.699 . S
C2314 C299 0.821 . S
C2353 C403 1.653 . S
C2341 C67 1.799 . S
C2380 C1418 2.206 . S
C2368 C98 2.190 . S
C2395 C89 1.615 . S
C2407 C571 1.546 . S
C2422 C79 1.651 . S
C2434 C1318 1.562 . S
C2461 C730 1.492 . S
C2449 C11 1.533 . S
C2476 C51 0.985 . S
C2488 C1162 0.997 . S
C2515 C914 1.008 . S
C2503 C33 1.023 . S
C2542 C1495 1.404 . S
C2530 C14 1.479 . S
C2569 C410 2.057 . S
C2557 C140 2.178 . S
C2596 C1402 0.701 . S
C2584 C319 0.731 . S
C2611 C112 1.265 . S
C2623 C578 1.181 . S
C2638 C285 1.646 . S
C2650 C1327 1.532 . S
C2665 C149 2.207 . S
C2677 C739 1.988 . S
C2704 C1155 1.226 . S
C2692 C313 1.240 . S
C2719 C121 0.848 . S
C2731 C898 0.722 . S
C2746 C291 1.620 . S
C2758 C1502 1.544 . S
C2773 C182 1.507 . S
C2785 C394 1.439 1_554 S
C2800 C168 1.919 . S
C2812 C1082 1.878 . S
C2827 C263 2.408 . S
C2839 C812 2.194 . S
C2854 C247 0.482 . S
C2866 C1243 0.466 . S
C2893 C1486 0.967 . S
C2881 C277 0.956 1_565 S
C2908 C219 1.528 . S
C2920 C562 1.492 . S
C2947 C662 2.252 . S
C2935 C257 2.320 . S
C2974 C487 0.845 . S
C2962 C201 0.813 . S
C2989 C81 1.803 . S
C3001 C1568 1.596 . S
C3028 C1407 2.184 . S
C3016 C93 2.231 . S
C3043 C103 1.566 . S
C3055 C1652 1.437 . S
C3070 C56 1.600 . S
C3082 C1330 1.522 . S
C3097 C53 1.500 . S
C3109 C1078 1.479 . S
C3136 C1150 0.956 . S
C3124 C0 1.001 . S
C3163 C1239 0.912 . S
C3151 C19 0.880 . S
C3190 C1484 1.269 . S
C3178 C37 1.536 . S
C3217 C1575 2.060 . S
C3205 C261 2.192 . S
C3232 C193 0.633 . S
C3244 C1414 0.637 . S
C3271 C1659 1.193 . S
C3259 C205 1.266 . S
C3298 C1316 1.484 . S
C3286 C215 1.636 . S
C3325 C1064 2.029 . S
C3313 C252 2.125 . S
C3340 C187 1.205 . S
C3352 C1166 1.164 . S
C3379 C1246 0.784 . S
C3367 C196 0.763 . S
C3394 C221 1.579 . S
C3406 C1491 1.511 . S
C3433 C1582 1.442 . S
C3421 C317 1.521 . S
C3448 C135 1.948 . S
C3460 C735 1.886 . S
C3487 C823 2.190 . S
C3475 C151 2.341 . S
C3514 C896 0.594 . S
C3502 C154 0.443 . S
C3541 C1498 0.973 . S
C3529 C305 0.962 . S
C3556 C280 1.444 . S
C3568 C1666 1.399 . S
C3595 C651 2.213 . S
C3583 C145 2.276 . S
C3622 C476 0.777 . S
C3610 C117 0.797 . S
C3637 C95 1.803 . S
C3649 C1579 1.640 . S
C3676 C494 2.201 . S
C3664 C70 2.181 . S
C3691 C61 1.609 . S
C3703 C1663 1.521 . S
C3718 C107 1.651 . S
C3730 C646 1.562 . S
C3745 C39 1.542 . S
C3757 C1066 1.513 . S
C3784 C826 0.927 . S
C3772 C23 1.008 . S
C3799 C5 0.942 . S
C3811 C1250 0.999 . S
C3826 C42 1.511 . S
C3838 C991 1.323 . S
C3865 C1586 2.098 . S
C3853 C322 2.176 . S
C3880 C165 0.657 . S
C3892 C478 0.725 . S
C3919 C1670 1.181 . S
C3907 C294 1.264 . S
C3934 C131 1.666 . S
C3946 C655 1.535 . S
C3961 C331 2.200 . S
C3973 C1075 2.070 . S
C4000 C819 1.096 . S
C3988 C159 1.255 . S
C4015 C303 0.823 . S
C4027 C1234 0.861 . S
C4054 C998 1.452 . S
C4042 C137 1.622 . S
C4081 C1570 1.461 . S
C4069 C238 1.510 . S
C4108 C746 1.908 1_665 S
C4096 C210 1.936 . S
C4123 C235 2.412 . S
C4135 C1148 2.193 . S
C4162 C907 0.474 . S
C4150 C191 0.486 . S
C4177 C207 0.890 . S
C4189 C982 0.900 . S
C4204 C177 1.506 . S
C4216 C1654 1.406 1_554 S
C4243 C1334 2.247 . S
C4231 C229 2.319 1_565 S
C4270 C1411 0.853 . S
C4258 C271 0.812 . S
