# Generated by pormake.
# Topology pth, (4,4)-cn, num edge types: 1
# Building blocks:
#     Node 0, Type 0, BuildingBlock: KUFVIS_clean_sbu_0, # of connection points: 4
#     Node 1, Type 0, BuildingBlock: KUFVIS_clean_sbu_0, # of connection points: 4
#     Node 2, Type 0, BuildingBlock: KUFVIS_clean_sbu_0, # of connection points: 4
#     Node 3, Type 1, BuildingBlock: KOZSID_clean_sbu_0, # of connection points: 4
#     Node 4, Type 1, BuildingBlock: KOZSID_clean_sbu_0, # of connection points: 4
#     Node 5, Type 1, BuildingBlock: KOZSID_clean_sbu_0, # of connection points: 4
#     Edge 6, Type (0, 1), BuildingBlock: XUDNAN_clean_linker_2, # of connection points: 2
#     Edge 7, Type (0, 1), BuildingBlock: XUDNAN_clean_linker_2, # of connection points: 2
#     Edge 8, Type (0, 1), BuildingBlock: XUDNAN_clean_linker_2, # of connection points: 2
#     Edge 9, Type (0, 1), BuildingBlock: XUDNAN_clean_linker_2, # of connection points: 2
#     Edge 10, Type (0, 1), BuildingBlock: XUDNAN_clean_linker_2, # of connection points: 2
#     Edge 11, Type (0, 1), BuildingBlock: XUDNAN_clean_linker_2, # of connection points: 2
#     Edge 12, Type (0, 1), BuildingBlock: XUDNAN_clean_linker_2, # of connection points: 2
#     Edge 13, Type (0, 1), BuildingBlock: XUDNAN_clean_linker_2, # of connection points: 2
#     Edge 14, Type (0, 1), BuildingBlock: XUDNAN_clean_linker_2, # of connection points: 2
#     Edge 15, Type (0, 1), BuildingBlock: XUDNAN_clean_linker_2, # of connection points: 2
#     Edge 16, Type (0, 1), BuildingBlock: XUDNAN_clean_linker_2, # of connection points: 2
#     Edge 17, Type (0, 1), BuildingBlock: XUDNAN_clean_linker_2, # of connection points: 2
# Relax obj value: 0.010
# Max RMSD: 0.084
# Mean RMSD: 0.052
data_MOF--net-pth--node1-KUFVIS_clean_sbu_0--node2-KOZSID_clean_sbu_0--edge1-XUDNAN_clean_linker_2
_symmetry_space_group_name_H-M    P1
_symmetry_Int_Tables_number       1
_symmetry_cell_setting            triclinic
loop_
_symmetry_equiv_pos_as_xyz
'x, y, z'
_cell_length_a     26.208375
_cell_length_b     26.277406
_cell_length_c     60.813165
_cell_angle_alpha  87.725446
_cell_angle_beta   89.220232
_cell_angle_gamma 120.22628
loop_
_atom_site_label
_atom_site_type_symbol
_atom_site_fract_x
_atom_site_fract_y
_atom_site_fract_z
_atom_type_partial_charge
Mn0 Mn 0.09414 0.04851 0.04985 0.0
Mn1 Mn 0.03045 0.11535 0.02268 0.0
C2 C 0.03096 1.00276 0.02138 0.0
C3 C 0.0935 0.98277 0.07729 0.0
C4 C 0.15924 0.15187 0.01522 0.0
O5 O 0.102 0.1101 0.07129 0.0
O6 O 0.05814 0.15129 0.05164 0.0
C7 C 0.92615 0.07646 0.05279 0.0
N8 N 0.94928 0.07898 0.03232 0.0
C9 C 0.85224 0.02459 0.01778 0.0
C10 C 0.82742 0.02173 0.03869 0.0
C11 C 0.86455 0.04774 0.05627 0.0
C12 C 0.91396 0.0543 0.01526 0.0
H13 H 0.95445 0.09607 0.0664 0.0
C14 C 0.08414 0.14726 0.06883 0.0
O15 O 0.14253 0.02426 0.06794 0.0
O16 O 0.04542 0.98158 0.07167 0.0
N17 N 1.00093 0.0836 0.99481 0.0
C18 C 0.03171 0.08648 0.9761 0.0
C19 C 1.00099 0.06095 0.95714 0.0
C20 C 0.93903 0.03277 0.9576 0.0
C21 C 0.9083 0.03002 0.97707 0.0
C22 C 0.94131 0.05684 0.99538 0.0
H23 H 0.0793 0.10769 0.97571 0.0
O24 O 0.07107 0.98968 0.02643 0.0
O25 O 0.03062 0.04364 0.03261 0.0
O26 O 0.1588 0.11443 0.02938 0.0
O27 O 0.11348 0.15547 0.01109 0.0
C28 C 0.84617 1.00072 0.97913 0.0
C29 C 0.81816 0.99799 0.99948 0.0
H30 H 0.77992 0.99919 0.04148 0.0
H31 H 0.84572 0.04546 0.07248 0.0
H32 H 0.02498 0.06276 0.94222 0.0
H33 H 0.91546 0.01296 0.94296 0.0
H34 H 0.81948 0.97939 0.96527 0.0
H35 H 0.77034 0.97461 1.00095 0.0
Mn36 Mn 0.04668 0.05626 0.38507 0.0
Mn37 Mn 0.13697 0.1897 0.40487 0.0
C38 C 0.11105 0.06524 0.4124 0.0
C39 C 0.02619 0.98361 0.35977 0.0
C40 C 0.00925 0.11342 0.42066 0.0
O41 O 0.04257 0.11185 0.36179 0.0
O42 O 0.09907 0.19743 0.37764 0.0
C43 C 0.22544 0.23488 0.36768 0.0
N44 N 0.21214 0.22268 0.38968 0.0
C45 C 0.31503 0.26828 0.39784 0.0
C46 C 0.32986 0.28147 0.37528 0.0
C47 C 0.28482 0.26423 0.36012 0.0
C48 C 0.25503 0.23755 0.40434 0.0
H49 H 0.19106 0.22268 0.35598 0.0
C50 C 0.06589 0.16765 0.36224 0.0
O51 O 0.98431 0.98544 0.37073 0.0
O52 O 0.07975 0.02527 0.36285 0.0
N53 N 0.17829 0.19205 0.43088 0.0
C54 C 0.15671 0.17589 0.45208 0.0
C55 C 0.19603 0.18846 0.46922 0.0
C56 C 0.25721 0.2195 0.4645 0.0
C57 C 0.2785 0.23722 0.44264 0.0
C58 C 0.23715 0.22182 0.42618 0.0
H59 H 0.10982 0.15262 0.45582 0.0
O60 O 0.06473 0.0149 0.409 0.0
O61 O 0.12011 0.10963 0.39914 0.0
O62 O 0.99595 0.07272 0.40714 0.0
O63 O 0.0612 0.15818 0.4216 0.0
C64 C 0.33914 0.27024 0.43656 0.0
C65 C 0.35741 0.28518 0.41416 0.0
H66 H 0.37566 0.30492 0.36942 0.0
H67 H 0.29588 0.27424 0.34268 0.0
H68 H 0.17921 0.17482 0.48606 0.0
H69 H 0.28744 0.2298 0.4778 0.0
H70 H 0.37214 0.28351 0.44896 0.0
H71 H 0.40417 0.30963 0.40967 0.0
Mn72 Mn 0.10142 0.05955 0.71531 0.0
Mn73 Mn 0.05006 0.12574 0.74828 0.0
C74 C 0.15636 0.11472 0.74477 0.0
C75 C 0.15999 0.05719 0.68611 0.0
C76 C 0.99829 0.99311 0.74944 0.0
O77 O 0.03955 0.0651 0.69581 0.0
O78 O 0.01444 0.11484 0.71908 0.0
C79 C 0.10462 0.24265 0.72423 0.0
N80 N 0.09597 0.20953 0.74319 0.0
C81 C 0.15752 0.29616 0.76293 0.0
C82 C 0.16597 0.33125 0.74372 0.0
C83 C 0.13969 0.30434 0.72426 0.0
C84 C 0.1219 0.23492 0.76192 0.0
H85 H 0.08568 0.2221 0.70913 0.0
C86 C 0.01107 0.09164 0.70056 0.0
O87 O 0.11534 0.00968 0.69499 0.0
O88 O 0.16797 0.10685 0.69288 0.0
N89 N 0.08274 0.13908 0.77684 0.0
C90 C 0.07407 0.09876 0.79341 0.0
C91 C 0.09845 0.11828 0.81392 0.0
C92 C 0.13158 0.17896 0.81715 0.0
C93 C 0.14108 0.21965 0.7997 0.0
C94 C 0.11471 0.19759 0.77977 0.0
H95 H 0.04839 0.05205 0.79106 0.0
O96 O 0.16366 0.07287 0.73763 0.0
O97 O 0.1154 0.12019 0.73532 0.0
O98 O 0.03454 0.99402 0.73503 0.0
O99 O 0.99986 0.03978 0.75551 0.0
C100 C 0.17604 0.28118 0.80125 0.0
C101 C 0.18449 0.3194 0.78285 0.0
H102 H 0.1934 0.37881 0.74363 0.0
H103 H 0.14682 0.33106 0.70927 0.0
H104 H 0.09147 0.08663 0.82725 0.0
H105 H 0.14975 0.19378 0.83307 0.0
H106 H 0.19736 0.29952 0.81642 0.0
H107 H 0.21242 0.36656 0.7841 0.0
C108 C 0.12341 0.67163 0.18604 0.0
C109 C 0.17925 0.71955 0.18081 0.0
C110 C 0.21723 0.7144 0.19457 0.0
C111 C 0.18273 0.66374 0.20731 0.0
N112 N 0.12502 0.63566 0.20238 0.0
Co113 Co 0.05963 0.56142 0.21748 0.0
N114 N 0.1157 0.55434 0.23793 0.0
C115 C 0.17468 0.59173 0.23846 0.0
C116 C 0.20256 0.57335 0.25287 0.0
C117 C 0.15905 0.5205 0.26189 0.0
C118 C 0.10666 0.50981 0.25257 0.0
N119 N 0.99414 0.48782 0.23281 0.0
C120 C 0.99617 0.45061 0.24845 0.0
C121 C 0.94005 0.40453 0.25464 0.0
C122 C 0.90136 0.41184 0.24201 0.0
C123 C 0.9358 0.46201 0.22901 0.0
N124 N 1.00364 0.56761 0.19674 0.0
C125 C 0.94465 0.53004 0.19619 0.0
C126 C 0.91732 0.5464 0.18076 0.0
C127 C 0.96132 0.59761 0.17086 0.0
C128 C 0.01339 0.60954 0.18077 0.0
N129 N 0.07254 0.5123 0.19641 0.0
C130 C 0.08966 0.43541 0.16996 0.0
C131 C 0.03312 0.42626 0.17448 0.0
C132 C 0.02562 0.46475 0.18764 0.0
C133 C 0.13764 0.48502 0.17832 0.0
C134 C 0.12822 0.52282 0.19121 0.0
N135 N 0.04654 0.61049 0.23867 0.0
C136 C 0.98154 0.6395 0.25571 0.0
C137 C 0.02765 0.6828 0.26735 0.0
C138 C 0.08363 0.68898 0.26431 0.0
C139 C 0.09204 0.65296 0.25 0.0
C140 C 0.99166 0.60399 0.24189 0.0
H141 H 0.13584 0.66047 0.24835 0.0
H142 H 0.95416 0.57189 0.23387 0.0
H143 H 0.98128 0.45443 0.19086 0.0
H144 H 0.1666 0.55984 0.19707 0.0
C145 C 0.20319 0.64155 0.22404 0.0
C146 C 0.07041 0.66241 0.175 0.0
C147 C 0.05004 0.45548 0.25723 0.0
C148 C 0.91545 0.48258 0.21167 0.0
H149 H 0.19134 0.75481 0.1684 0.0
H150 H 0.26436 0.74424 0.1953 0.0
H151 H 0.24934 0.59472 0.25583 0.0
H152 H 0.16584 0.49242 0.27349 0.0
H153 H 0.92843 0.36849 0.26665 0.0
H154 H 0.85397 0.38283 0.24177 0.0
H155 H 0.87065 0.5247 0.17759 0.0
H156 H 0.95532 0.6239 0.15814 0.0
H157 H 0.99444 0.38843 0.16848 0.0
H158 H 0.18245 0.49477 0.17493 0.0
H159 H 0.93744 0.63316 0.2569 0.0
H160 H 0.12098 0.72105 0.27308 0.0
C161 C 0.46695 0.00524 0.58384 0.0
C162 C 0.42481 0.94972 0.59263 0.0
C163 C 0.43467 0.90977 0.58265 0.0
C164 C 0.48154 0.94265 0.56817 0.0
N165 N 0.50268 1.00142 0.56836 0.0
Co166 Co 0.56639 0.06412 0.54804 0.0
N167 N 0.57721 0.00455 0.53204 0.0
C168 C 0.54636 0.94538 0.53586 0.0
C169 C 0.56621 0.91602 0.52342 0.0
C170 C 0.61334 0.95906 0.51116 0.0
C171 C 0.61937 0.01243 0.51679 0.0
N172 N 0.62994 0.12687 0.52774 0.0
C173 C 0.6657 0.12287 0.51243 0.0
C174 C 0.70456 0.17739 0.5021 0.0
C175 C 0.69437 0.21764 0.51173 0.0
C176 C 0.6498 0.18546 0.52721 0.0
N177 N 0.55572 0.1239 0.56399 0.0
C178 C 0.58634 0.1831 0.55992 0.0
C179 C 0.56949 0.21301 0.5734 0.0
C180 C 0.52481 0.17048 0.58669 0.0
C181 C 0.51644 0.11663 0.58041 0.0
N182 N 0.62786 0.07184 0.56884 0.0
C183 C 0.71782 0.08463 0.59742 0.0
C184 C 0.71884 0.13361 0.58697 0.0
C185 C 0.67378 0.12637 0.57318 0.0
C186 C 0.67124 0.02876 0.59285 0.0
C187 C 0.62715 0.02341 0.5786 0.0
N188 N 0.50485 0.0564 0.52722 0.0
C189 C 0.46061 0.10151 0.50495 0.0
C190 C 0.41067 0.04676 0.50222 0.0
C191 C 0.40962 0.99659 0.51125 0.0
C192 C 0.45736 1.00229 0.52322 0.0
C193 C 0.50656 0.10536 0.51754 0.0
H194 H 0.45411 0.96235 0.52948 0.0
H195 H 0.54206 0.14866 0.51969 0.0
H196 H 0.6772 0.16574 0.56616 0.0
H197 H 0.59279 0.97969 0.57579 0.0
C198 C 0.50314 0.91931 0.55281 0.0
C199 C 0.46989 0.05991 0.59028 0.0
C200 C 0.66795 0.06962 0.50838 0.0
C201 C 0.62874 0.2092 0.54264 0.0
H202 H 0.38937 0.93873 0.60458 0.0
H203 H 0.40917 0.8622 0.58504 0.0
H204 H 0.55006 0.86909 0.52394 0.0
H205 H 0.64115 0.95183 0.49995 0.0
H206 H 0.73824 0.18721 0.48948 0.0
H207 H 0.71813 0.26496 0.50841 0.0
H208 H 0.58689 0.26013 0.5733 0.0
H209 H 0.50066 0.17836 0.59938 0.0
H210 H 0.75441 0.17796 0.58941 0.0
H211 H 0.66795 0.98932 0.60058 0.0
H212 H 0.46304 0.14155 0.49824 0.0
H213 H 0.37179 0.95316 0.5093 0.0
C214 C 0.69476 0.60397 0.84537 0.0
C215 C 0.7437 0.59975 0.83914 0.0
C216 C 0.74695 0.56158 0.85418 0.0
C217 C 0.70028 0.54475 0.86879 0.0
N218 N 0.667 0.56911 0.8638 0.0
Co219 Co 0.59817 0.55899 0.88198 0.0
N220 N 0.59235 0.49065 0.8997 0.0
C221 C 0.63376 0.47469 0.90036 0.0
C222 C 0.61625 0.42356 0.91281 0.0
C223 C 0.56046 0.40633 0.92069 0.0
C224 C 0.5473 0.44868 0.91288 0.0
N225 N 0.52956 0.54888 0.90023 0.0
C226 C 0.49077 0.5032 0.91403 0.0
C227 C 0.45086 0.51596 0.92407 0.0
C228 C 0.46498 0.57121 0.91621 0.0
C229 C 0.51271 0.58928 0.90197 0.0
N230 N 0.60389 0.62759 0.86437 0.0
C231 C 0.577 0.65795 0.86966 0.0
C232 C 0.58843 0.70298 0.85459 0.0
C233 C 0.62588 0.70189 0.83899 0.0
C234 C 0.63589 0.65654 0.8456 0.0
N235 N 0.54344 0.50455 0.86095 0.0
C236 C 0.46272 0.4254 0.83176 0.0
C237 C 0.45752 0.47256 0.83908 0.0
C238 C 0.49788 0.5112 0.85369 0.0
C239 C 0.50907 0.41847 0.83951 0.0
C240 C 0.54921 0.45877 0.8539 0.0
N241 N 0.65275 0.61352 0.90307 0.0
C242 C 0.6776 0.64119 0.94047 0.0
C243 C 0.72712 0.69505 0.93311 0.0
C244 C 0.73929 0.70629 0.91038 0.0
C245 C 0.7018 0.66523 0.89574 0.0
C246 C 0.64124 0.60116 0.92526 0.0
H247 H 0.71229 0.67623 0.87844 0.0
H248 H 0.60331 0.56051 0.93149 0.0
H249 H 0.49197 0.54642 0.85914 0.0
H250 H 0.58489 0.45279 0.85928 0.0
C251 C 0.68351 0.5025 0.88614 0.0
C252 C 0.68124 0.64726 0.83508 0.0
C253 C 0.49355 0.44968 0.91954 0.0
C254 C 0.53694 0.63937 0.88765 0.0
H255 H 0.77518 0.62324 0.82559 0.0
H256 H 0.77943 0.54766 0.8544 0.0
H257 H 0.64002 0.40003 0.91504 0.0
H258 H 0.53277 0.36689 0.93095 0.0
H259 H 0.41561 0.48862 0.93602 0.0
H260 H 0.44207 0.59465 0.91997 0.0
H261 H 0.57105 0.73261 0.85477 0.0
H262 H 0.64494 0.73218 0.8247 0.0
H263 H 0.4221 0.4794 0.83367 0.0
H264 H 0.51511 0.383 0.8341 0.0
H265 H 0.66681 0.62992 0.95789 0.0
H266 H 0.77657 0.74738 0.90382 0.0
H267 H 0.03171 0.21427 0.07401 0.0
H268 H 0.15663 0.17291 0.10416 0.0
H269 H 0.17251 0.24265 0.13306 0.0
H270 H 0.10783 0.36833 0.08387 0.0
H271 H 0.04118 0.37019 0.08968 0.0
H272 H 0.03995 0.31725 0.07145 0.0
H273 H 0.95578 0.23222 0.09565 0.0
H274 H 0.95662 0.2849 0.11392 0.0
H275 H 0.96599 0.2253 0.12464 0.0
H276 H 0.1763 0.31955 0.15831 0.0
H277 H 0.16372 0.39226 0.17874 0.0
H278 H 0.03473 0.3813 0.13233 0.0
C279 C 0.06258 0.2198 0.08663 0.0
C280 C 0.09318 0.18809 0.08666 0.0
C281 C 0.13261 0.19648 0.10371 0.0
C282 C 0.14203 0.23618 0.12019 0.0
C283 C 0.11136 0.26689 0.11954 0.0
C284 C 0.07209 0.25873 0.10326 0.0
C285 C 0.04384 0.29624 0.10641 0.0
C286 C 0.05914 0.34063 0.08668 0.0
C287 C 0.97657 0.25734 0.1104 0.0
C288 C 0.07353 0.32715 0.12695 0.0
C289 C 0.11258 0.3099 0.13422 0.0
C290 C 0.14575 0.33321 0.15275 0.0
C291 C 0.13858 0.37482 0.16418 0.0
C292 C 0.09826 0.39267 0.15719 0.0
C293 C 0.06547 0.36827 0.13826 0.0
H294 H 0.88662 0.05334 0.41796 0.0
H295 H 0.02875 0.16455 0.46008 0.0
H296 H 0.95654 0.15901 0.48747 0.0
H297 H 0.80052 0.12191 0.42893 0.0
H298 H 0.72995 0.05489 0.42842 0.0
H299 H 0.79224 0.06269 0.41255 0.0
H300 H 0.77859 0.96688 0.43197 0.0
H301 H 0.71636 0.95894 0.44798 0.0
H302 H 0.77779 0.96065 0.46162 0.0
H303 H 0.87074 0.14305 0.51052 0.0
H304 H 0.77517 0.12424 0.52646 0.0
H305 H 0.68682 0.03054 0.469 0.0
C306 C 0.90238 0.07587 0.43307 0.0
C307 C 0.9637 0.10852 0.43692 0.0
C308 C 0.98236 0.13857 0.45671 0.0
C309 C 0.94155 0.13572 0.47248 0.0
C310 C 0.88178 0.10346 0.46823 0.0
C311 C 0.86197 0.07465 0.44893 0.0
C312 C 0.79521 0.0467 0.44802 0.0
C313 C 0.77851 0.07314 0.42831 0.0
C314 C 0.76523 0.97928 0.44736 0.0
C315 C 0.78106 0.06454 0.46976 0.0
C316 C 0.83178 0.09654 0.48123 0.0
C317 C 0.83066 0.11807 0.5017 0.0
C318 C 0.77632 0.10721 0.51063 0.0
C319 C 0.72385 0.07569 0.49904 0.0
C320 C 0.72626 0.05401 0.47833 0.0
H321 H 0.93872 0.96772 0.78982 0.0
H322 H 0.9498 0.88656 0.73055 0.0
H323 H 0.86812 0.79032 0.74535 0.0
H324 H 0.91109 0.84491 0.82716 0.0
H325 H 0.86173 0.85419 0.84529 0.0
H326 H 0.91978 0.91696 0.8297 0.0
H327 H 0.8423 0.93954 0.81313 0.0
H328 H 0.78396 0.8765 0.82853 0.0
H329 H 0.78104 0.88317 0.79902 0.0
H330 H 0.78196 0.70295 0.76615 0.0
H331 H 0.70534 0.62988 0.79298 0.0
H332 H 0.75582 0.76584 0.83979 0.0
C333 C 0.92397 0.92972 0.77995 0.0
C334 C 0.95066 0.9349 0.75894 0.0
C335 C 0.93033 0.88381 0.74669 0.0
C336 C 0.88369 0.82892 0.75493 0.0
C337 C 0.85819 0.82539 0.77562 0.0
C338 C 0.87821 0.87425 0.78812 0.0
C339 C 0.84484 0.85797 0.81025 0.0
C340 C 0.88687 0.86917 0.82922 0.0
C341 C 0.81104 0.89129 0.81287 0.0
C342 C 0.8027 0.79251 0.80818 0.0
C343 C 0.81055 0.77468 0.78796 0.0
C344 C 0.77572 0.71641 0.78208 0.0
C345 C 0.73227 0.67526 0.79734 0.0
C346 C 0.72449 0.6923 0.81833 0.0
C347 C 0.76038 0.75175 0.82375 0.0
H348 H 0.11295 0.96724 0.12116 0.0
H349 H 0.06628 0.88123 0.0593 0.0
H350 H 0.05871 0.79145 0.07721 0.0
H351 H 0.1997 0.90217 0.14097 0.0
H352 H 0.17357 0.89317 0.16921 0.0
H353 H 0.17794 0.95194 0.15147 0.0
H354 H 0.06711 0.91428 0.16001 0.0
H355 H 0.06249 0.85552 0.1778 0.0
H356 H 0.0131 0.83871 0.15538 0.0
H357 H 0.05595 0.71117 0.10149 0.0
H358 H 0.05325 0.64297 0.13138 0.0
H359 H 0.09742 0.77766 0.17829 0.0
C360 C 0.10156 0.92948 0.11149 0.0
C361 C 0.09055 0.93086 0.08884 0.0
C362 C 0.07508 0.88074 0.07664 0.0
C363 C 0.07077 0.8297 0.08666 0.0
C364 C 0.08172 0.8293 0.109 0.0
C365 C 0.09649 0.87762 0.12135 0.0
C366 C 0.1039 0.86432 0.14527 0.0
C367 C 0.16757 0.90535 0.15213 0.0
C368 C 0.05896 0.86845 0.16051 0.0
C369 C 0.09059 0.80106 0.14439 0.0
C370 C 0.0785 0.78206 0.12322 0.0
C371 C 0.06519 0.72547 0.11814 0.0
C372 C 0.06371 0.68706 0.13516 0.0
C373 C 0.07478 0.70506 0.15703 0.0
C374 C 0.08875 0.76295 0.16166 0.0
H375 H 0.22983 0.10266 0.40802 0.0
H376 H 0.08046 0.02643 0.45477 0.0
H377 H 0.141 0.01356 0.48278 0.0
H378 H 0.27537 0.9998 0.42395 0.0
H379 H 0.35353 0.05074 0.41996 0.0
H380 H 0.3018 0.06112 0.40396 0.0
H381 H 0.3427 0.16757 0.41793 0.0
H382 H 0.39721 0.15656 0.43157 0.0
H383 H 0.35242 0.17702 0.44724 0.0
H384 H 0.21526 1.00414 0.50512 0.0
H385 H 0.30115 1.00305 0.52104 0.0
H386 H 0.40277 0.08273 0.45994 0.0
C387 C 0.21079 0.08513 0.42441 0.0
C388 C 0.15118 0.06743 0.42961 0.0
C389 C 0.12648 0.04152 0.45075 0.0
C390 C 0.16044 0.03388 0.46671 0.0
C391 C 0.21875 0.05089 0.46107 0.0
C392 C 0.24397 0.07606 0.44047 0.0
C393 C 0.30602 0.08541 0.43822 0.0
C394 C 0.30935 0.04697 0.42047 0.0
C395 C 0.35227 0.15063 0.43341 0.0
C396 C 0.31247 0.0642 0.46103 0.0
C397 C 0.26118 0.04355 0.4738 0.0
C398 C 0.25579 0.02053 0.49532 0.0
C399 C 0.30457 0.01982 0.50419 0.0
C400 C 0.35825 0.04279 0.49169 0.0
C401 C 0.36211 0.065 0.4698 0.0
H402 H 0.21726 0.11916 0.78281 0.0
H403 H 0.20935 0.22666 0.72849 0.0
H404 H 0.28739 0.31614 0.74441 0.0
H405 H 0.25064 0.22307 0.82691 0.0
H406 H 0.29979 0.2021 0.83905 0.0
H407 H 0.23952 0.15026 0.82328 0.0
H408 H 0.32171 0.143 0.80023 0.0
H409 H 0.37954 0.20028 0.81528 0.0
H410 H 0.37933 0.20861 0.78573 0.0
H411 H 0.35892 0.39451 0.76721 0.0
H412 H 0.43021 0.45816 0.79392 0.0
H413 H 0.40093 0.30303 0.83279 0.0
C414 C 0.23218 0.16165 0.77438 0.0
C415 C 0.20562 0.16631 0.75484 0.0
C416 C 0.22749 0.22235 0.74389 0.0
C417 C 0.27213 0.27347 0.75272 0.0
C418 C 0.29589 0.26803 0.77236 0.0
C419 C 0.27772 0.21372 0.78296 0.0
C420 C 0.31338 0.22123 0.8034 0.0
C421 C 0.27331 0.19759 0.82438 0.0
C422 C 0.35071 0.19151 0.80101 0.0
C423 C 0.35228 0.28811 0.80297 0.0
C424 C 0.34109 0.31391 0.78488 0.0
C425 C 0.3687 0.37491 0.78132 0.0
C426 C 0.40883 0.41072 0.79667 0.0
C427 C 0.42135 0.38572 0.8154 0.0
C428 C 0.39296 0.32342 0.81845 0.0
H429 H 0.94778 0.02239 0.6654 0.0
H430 H 0.98717 0.18028 0.69918 0.0
H431 H 0.91962 0.19437 0.67623 0.0
H432 H 0.93055 0.07772 0.61031 0.0
H433 H 0.86932 0.00754 0.60345 0.0
H434 H 0.92456 0.01026 0.6215 0.0
H435 H 0.8428 0.9465 0.65117 0.0
H436 H 0.7874 0.94404 0.6333 0.0
H437 H 0.79333 0.97074 0.66054 0.0
H438 H 0.84392 0.18988 0.6528 0.0
H439 H 0.76618 0.17038 0.62697 0.0
H440 H 0.77192 0.01721 0.6057 0.0
C441 C 0.9429 0.06041 0.66762 0.0
C442 C 0.97357 0.10025 0.68423 0.0
C443 C 0.96489 0.14894 0.68673 0.0
C444 C 0.92624 0.15752 0.67373 0.0
C445 C 0.89575 0.11715 0.65806 0.0
C446 C 0.90352 0.06975 0.65465 0.0
C447 C 0.86283 0.03267 0.63681 0.0
C448 C 0.89898 0.03202 0.61683 0.0
C449 C 0.81899 0.96975 0.64601 0.0
C450 C 0.83115 0.06666 0.63115 0.0
C451 C 0.85128 0.11511 0.64378 0.0
C452 C 0.82843 0.15272 0.64246 0.0
C453 C 0.78435 0.14138 0.62754 0.0
C454 C 0.76345 0.09309 0.61375 0.0
C455 C 0.78692 0.05471 0.61585 0.0
H456 H 0.02651 0.95055 0.98243 0.0
H457 H 0.91707 0.95407 0.0357 0.0
H458 H 0.82773 0.87832 0.01843 0.0
H459 H 0.92328 0.92398 0.93766 0.0
H460 H 0.94283 0.87553 0.92465 0.0
H461 H 0.99613 0.93404 0.94061 0.0
H462 H 0.00751 0.85484 0.96377 0.0
H463 H 0.95197 0.79698 0.94825 0.0
H464 H 0.94322 0.79432 0.9778 0.0
H465 H 0.7505 0.80077 0.99605 0.0
H466 H 0.68999 0.72528 0.97015 0.0
H467 H 0.84879 0.76782 0.93178 0.0
C468 C 0.98354 0.93586 0.99018 0.0
C469 C 0.97826 0.95989 0.00989 0.0
C470 C 0.92171 0.93806 0.02009 0.0
C471 C 0.87078 0.89468 0.0105 0.0
C472 C 0.87716 0.87261 0.99086 0.0
C473 C 0.93203 0.89222 0.9808 0.0
C474 C 0.92642 0.85875 0.96032 0.0
C475 C 0.94852 0.90062 0.93959 0.0
C476 C 0.95923 0.82417 0.96269 0.0
C477 C 0.85995 0.81751 0.96048 0.0
C478 C 0.8325 0.82638 0.97824 0.0
C479 C 0.77149 0.79332 0.98208 0.0
C480 C 0.7375 0.75014 0.96735 0.0
C481 C 0.7644 0.74012 0.94892 0.0
C482 C 0.82663 0.77455 0.94555 0.0
H483 H 0.10268 0.97455 0.33073 0.0
H484 H 0.92228 0.87929 0.35759 0.0
H485 H 0.90359 0.79266 0.3371 0.0
H486 H 0.06759 0.9147 0.27606 0.0
H487 H 0.13447 0.91159 0.27304 0.0
H488 H 0.13328 0.96658 0.28947 0.0
H489 H 0.16964 0.93028 0.32266 0.0
H490 H 0.17036 0.8748 0.30641 0.0
H491 H 0.1283 0.85374 0.33219 0.0
H492 H 0.90648 0.71407 0.31587 0.0
H493 H 0.92709 0.65171 0.29261 0.0
H494 H 0.1037 0.7996 0.27702 0.0
C495 C 0.05907 0.93565 0.33213 0.0
C496 C 0.0139 0.93376 0.34582 0.0
C497 C 0.95748 0.88199 0.34717 0.0
C498 C 0.94651 0.83241 0.33565 0.0
C499 C 0.99218 0.83537 0.3226 0.0
C500 C 0.0471 0.88591 0.32049 0.0
C501 C 0.08826 0.87747 0.30519 0.0
C502 C 0.10699 0.92012 0.28472 0.0
C503 C 0.14233 0.88449 0.31734 0.0
C504 C 0.04812 0.81405 0.29926 0.0
C505 C 0.99306 0.79061 0.30962 0.0
C506 C 0.94909 0.73232 0.30735 0.0
C507 C 0.96123 0.69728 0.29388 0.0
C508 C 0.01678 0.7205 0.28245 0.0
C509 C 0.06083 0.77988 0.28545 0.0
H510 H 0.20968 0.10138 0.6438 0.0
H511 H 0.21795 0.00482 0.70181 0.0
H512 H 0.30035 0.99925 0.68432 0.0
H513 H 0.2363 0.01463 0.60492 0.0
H514 H 0.27956 0.07597 0.58551 0.0
H515 H 0.22328 0.07578 0.60292 0.0
H516 H 0.30095 0.17643 0.61723 0.0
H517 H 0.35752 0.17669 0.59995 0.0
H518 H 0.36685 0.18398 0.62919 0.0
H519 H 0.38457 0.00785 0.66167 0.0
H520 H 0.45719 0.0179 0.63294 0.0
H521 H 0.38914 0.09845 0.58742 0.0
C522 C 0.22909 0.07922 0.65271 0.0
C523 C 0.20776 0.05367 0.67422 0.0
C524 C 0.23363 0.02445 0.68533 0.0
C525 C 0.28065 0.02134 0.67557 0.0
C526 C 0.30086 0.04675 0.65443 0.0
C527 C 0.27538 0.07418 0.64289 0.0
C528 C 0.30374 0.09448 0.61981 0.0
C529 C 0.25799 0.06334 0.60225 0.0
C530 C 0.33406 0.16191 0.61635 0.0
C531 C 0.34899 0.07434 0.62034 0.0
C532 C 0.34713 0.04793 0.64065 0.0
C533 C 0.38585 0.02763 0.64557 0.0
C534 C 0.42688 0.03342 0.62917 0.0
C535 C 0.42804 0.05782 0.60787 0.0
C536 C 0.38883 0.07908 0.60351 0.0
H537 H 0.17717 0.20576 0.97364 0.0
H538 H 0.27023 0.19577 0.03063 0.0
H539 H 0.36504 0.271 0.01252 0.0
H540 H 0.28823 0.22077 0.93316 0.0
H541 H 0.2783 0.27035 0.91477 0.0
H542 H 0.21749 0.21661 0.93236 0.0
H543 H 0.2054 0.29996 0.9484 0.0
H544 H 0.26636 0.35397 0.93094 0.0
H545 H 0.26776 0.36091 0.96032 0.0
H546 H 0.44878 0.35277 0.98949 0.0
H547 H 0.51764 0.4263 0.96111 0.0
H548 H 0.37296 0.37657 0.9172 0.0
C549 C 0.21753 0.21931 0.98227 0.0
C550 C 0.2162 0.19495 1.00364 0.0
C551 C 0.2701 0.21352 0.01426 0.0
C552 C 0.32417 0.25648 1.00414 0.0
C553 C 0.32393 0.27981 0.98317 0.0
C554 C 0.27219 0.26122 0.97217 0.0
C555 C 0.28467 0.29202 0.9494 0.0
C556 C 0.26607 0.24726 0.93136 0.0
C557 C 0.25423 0.3289 0.94714 0.0
C558 C 0.35142 0.33123 0.94943 0.0
C559 C 0.37295 0.32402 0.96922 0.0
C560 C 0.43262 0.35772 0.97373 0.0
C561 C 0.47145 0.39914 0.95749 0.0
C562 C 0.45102 0.40546 0.93668 0.0
C563 C 0.38998 0.37146 0.93275 0.0
H564 H 0.08759 0.28165 0.36115 0.0
H565 H 0.02231 0.12861 0.32156 0.0
H566 H 0.01041 0.1851 0.29056 0.0
H567 H 0.98871 0.33028 0.34111 0.0
H568 H 0.04339 0.40746 0.34172 0.0
H569 H 0.04631 0.35474 0.36075 0.0
H570 H 0.15391 0.39098 0.34712 0.0
H571 H 0.15123 0.44359 0.32798 0.0
H572 H 0.16978 0.39084 0.31819 0.0
H573 H 0.0101 0.26048 0.26315 0.0
H574 H 0.01628 0.34677 0.24245 0.0
H575 H 0.07645 0.44835 0.30056 0.0
C576 C 0.0706 0.25979 0.346 0.0
C577 C 0.05602 0.20051 0.34384 0.0
C578 C 0.03362 0.17377 0.32371 0.0
C579 C 0.02686 0.20561 0.30596 0.0
C580 C 0.0421 0.26404 0.30863 0.0
C581 C 0.06297 0.29067 0.32823 0.0
C582 C 0.07574 0.35382 0.32694 0.0
C583 C 0.03617 0.36203 0.34362 0.0
C584 C 0.14157 0.39736 0.33026 0.0
C585 C 0.05929 0.35884 0.30349 0.0
C586 C 0.04033 0.3067 0.29313 0.0
C587 C 0.02448 0.30132 0.27118 0.0
C588 C 0.02811 0.35041 0.25955 0.0
C589 C 0.04708 0.40406 0.2699 0.0
C590 C 0.06224 0.40794 0.29222 0.0
loop_
_geom_bond_atom_site_label_1
_geom_bond_atom_site_label_2
_geom_bond_distance
_geom_bond_site_symmetry_2
_ccdc_geom_bond_type
Mn0 O5 2.095 . S
Mn0 O15 2.166 . S
Mn0 O16 2.297 1_545 S
Mn0 O24 2.385 1_545 S
Mn0 O25 2.209 . S
Mn0 O26 2.094 . S
Mn1 O6 2.121 . S
Mn1 N8 2.257 1_455 S
Mn1 N17 2.282 1_554 S
Mn1 O25 2.215 . S
Mn1 O27 2.117 . S
C2 O24 1.234 . S
C2 O25 1.283 1_565 S
C3 O15 1.280 1_565 S
C3 O16 1.236 . S
C4 O26 1.240 . S
C4 O27 1.264 . S
O5 Mn0 2.095 . S
O5 C14 1.250 . S
O6 Mn1 2.121 . S
O6 C14 1.258 . S
C7 N8 1.326 . S
C7 C11 1.460 . S
C7 H13 0.929 . S
N8 Mn1 2.257 1_655 S
N8 C7 1.326 . S
N8 C12 1.362 1_554 S
C9 C10 1.258 1_556 S
C9 C12 1.431 . S
C9 C29 1.449 . S
C10 C9 1.258 1_554 S
C10 C11 1.477 . S
C10 H30 0.926 1_554 S
C11 C7 1.460 . S
C11 C10 1.477 . S
C11 H31 0.930 . S
C12 N8 1.362 1_556 S
C12 C9 1.431 . S
C12 C22 1.476 . S
H13 C7 0.929 . S
C14 O5 1.250 . S
C14 O6 1.258 . S
O15 Mn0 2.166 . S
O15 C3 1.280 1_545 S
O16 Mn0 2.297 1_565 S
O16 C3 1.236 . S
N17 Mn1 2.282 1_556 S
N17 C18 1.328 . S
N17 C22 1.318 1_455 S
C18 N17 1.328 . S
C18 C19 1.457 . S
C18 H23 0.929 . S
C19 C18 1.457 . S
C19 C20 1.291 1_455 S
C19 H32 0.931 . S
C20 C19 1.291 1_655 S
C20 C21 1.373 . S
C20 H33 0.929 . S
C21 C20 1.373 . S
C21 C22 1.396 . S
C21 C28 1.403 . S
C22 C12 1.476 . S
C22 N17 1.318 1_655 S
C22 C21 1.396 . S
H23 C18 0.929 . S
O24 Mn0 2.385 1_565 S
O24 C2 1.234 . S
O25 Mn0 2.209 . S
O25 Mn1 2.215 . S
O25 C2 1.283 1_545 S
O26 Mn0 2.094 . S
O26 C4 1.240 . S
O27 Mn1 2.117 . S
O27 C4 1.264 . S
C28 C21 1.403 . S
C28 C29 1.399 . S
C28 H34 0.929 . S
C29 C9 1.449 . S
C29 C28 1.399 . S
C29 H35 0.930 . S
H30 C10 0.926 1_556 S
H31 C11 0.930 . S
H32 C19 0.931 . S
H33 C20 0.929 . S
H34 C28 0.929 . S
H35 C29 0.930 . S
Mn36 O41 2.095 . S
Mn36 O51 2.162 1_445 S
Mn36 O52 2.297 . S
Mn36 O60 2.385 . S
Mn36 O61 2.209 . S
Mn36 O62 2.094 1_455 S
Mn37 O42 2.121 . S
Mn37 N44 2.257 . S
Mn37 N53 2.282 . S
Mn37 O61 2.215 . S
Mn37 O63 2.117 . S
C38 O60 1.234 . S
C38 O61 1.283 . S
C39 O51 1.281 1_455 S
C39 O52 1.236 1_565 S
C40 O62 1.240 . S
C40 O63 1.264 1_655 S
O41 Mn36 2.095 . S
O41 C50 1.250 . S
O42 Mn37 2.121 . S
O42 C50 1.258 . S
C43 N44 1.326 . S
C43 C47 1.460 . S
C43 H49 0.929 . S
N44 Mn37 2.257 . S
N44 C43 1.326 . S
N44 C48 1.362 . S
C45 C46 1.258 . S
C45 C48 1.431 . S
C45 C65 1.449 . S
C46 C45 1.258 . S
C46 C47 1.477 . S
C46 H66 0.931 . S
C47 C43 1.460 . S
C47 C46 1.477 . S
C47 H67 0.930 . S
C48 N44 1.362 . S
C48 C45 1.431 . S
C48 C58 1.476 . S
H49 C43 0.929 . S
C50 O41 1.250 . S
C50 O42 1.258 . S
O51 Mn36 2.162 1_665 S
O51 C39 1.281 1_655 S
O52 Mn36 2.297 . S
O52 C39 1.236 1_545 S
N53 Mn37 2.282 . S
N53 C54 1.328 . S
N53 C58 1.318 . S
C54 N53 1.328 . S
C54 C55 1.457 . S
C54 H59 0.929 . S
C55 C54 1.457 . S
C55 C56 1.291 . S
C55 H68 0.931 . S
C56 C55 1.291 . S
C56 C57 1.373 . S
C56 H69 0.929 . S
C57 C56 1.373 . S
C57 C58 1.396 . S
C57 C64 1.403 . S
C58 C48 1.476 . S
C58 N53 1.318 . S
C58 C57 1.396 . S
H59 C54 0.929 . S
O60 Mn36 2.385 . S
O60 C38 1.234 . S
O61 Mn36 2.209 . S
O61 Mn37 2.215 . S
O61 C38 1.283 . S
O62 Mn36 2.094 1_655 S
O62 C40 1.240 . S
O63 Mn37 2.117 . S
O63 C40 1.264 1_455 S
C64 C57 1.403 . S
C64 C65 1.399 . S
C64 H70 0.929 . S
C65 C45 1.449 . S
C65 C64 1.399 . S
C65 H71 0.930 . S
H66 C46 0.931 . S
H67 C47 0.930 . S
H68 C55 0.931 . S
H69 C56 0.929 . S
H70 C64 0.929 . S
H71 C65 0.930 . S
Mn72 O77 2.095 . S
Mn72 O87 2.162 1_545 S
Mn72 O88 2.297 . S
Mn72 O96 2.385 . S
Mn72 O97 2.209 . S
Mn72 O98 2.094 1_545 S
Mn73 O78 2.121 1_455 S
Mn73 N80 2.257 . S
Mn73 N89 2.282 . S
Mn73 O97 2.215 . S
Mn73 O99 2.117 1_445 S
C74 O96 1.234 . S
C74 O97 1.283 . S
C75 O87 1.281 1_545 S
C75 O88 1.236 . S
C76 O98 1.240 1_655 S
C76 O99 1.264 . S
O77 Mn72 2.095 . S
O77 C86 1.250 1_455 S
O78 Mn73 2.121 1_655 S
O78 C86 1.258 . S
C79 N80 1.326 . S
C79 C83 1.460 . S
C79 H85 0.929 . S
N80 Mn73 2.257 . S
N80 C79 1.326 . S
N80 C84 1.362 . S
C81 C82 1.258 . S
C81 C84 1.431 . S
C81 C101 1.449 . S
C82 C81 1.258 . S
C82 C83 1.477 . S
C82 H102 0.931 . S
C83 C79 1.460 . S
C83 C82 1.477 . S
C83 H103 0.930 . S
C84 N80 1.362 . S
C84 C81 1.431 . S
C84 C94 1.476 . S
H85 C79 0.929 . S
C86 O77 1.250 1_655 S
C86 O78 1.258 . S
O87 Mn72 2.162 1_565 S
O87 C75 1.281 1_565 S
O88 Mn72 2.297 . S
O88 C75 1.236 . S
N89 Mn73 2.282 . S
N89 C90 1.328 . S
N89 C94 1.318 . S
C90 N89 1.328 . S
C90 C91 1.457 . S
C90 H95 0.929 . S
C91 C90 1.457 . S
C91 C92 1.291 . S
C91 H104 0.931 . S
C92 C91 1.291 . S
C92 C93 1.373 . S
C92 H105 0.929 . S
C93 C92 1.373 . S
C93 C94 1.396 . S
C93 C100 1.403 . S
C94 C84 1.476 . S
C94 N89 1.318 . S
C94 C93 1.396 . S
H95 C90 0.929 . S
O96 Mn72 2.385 . S
O96 C74 1.234 . S
O97 Mn72 2.209 . S
O97 Mn73 2.215 . S
O97 C74 1.283 . S
O98 Mn72 2.094 1_565 S
O98 C76 1.240 1_455 S
O99 Mn73 2.117 1_665 S
O99 C76 1.264 . S
C100 C93 1.403 . S
C100 C101 1.399 . S
C100 H106 0.929 . S
C101 C81 1.449 . S
C101 C100 1.399 . S
C101 H107 0.930 . S
H102 C82 0.931 . S
H103 C83 0.930 . S
H104 C91 0.931 . S
H105 C92 0.929 . S
H106 C100 0.929 . S
H107 C101 0.930 . S
C108 C109 1.443 . S
C108 N112 1.376 . S
C108 C146 1.389 . S
C109 C108 1.443 . S
C109 C110 1.340 . S
C109 H149 0.951 . S
C110 C109 1.340 . S
C110 C111 1.439 . S
C110 H150 0.950 . S
C111 C110 1.439 . S
C111 N112 1.374 . S
C111 C145 1.395 . S
N112 C108 1.376 . S
N112 C111 1.374 . S
N112 Co113 2.008 . S
Co113 N112 2.008 . S
Co113 N114 1.995 . S
Co113 N119 2.008 1_455 S
Co113 N124 1.995 1_455 S
Co113 N129 2.282 . S
Co113 N135 2.282 . S
N114 Co113 1.995 . S
N114 C115 1.376 . S
N114 C118 1.383 . S
C115 N114 1.376 . S
C115 C116 1.446 . S
C115 C145 1.391 . S
C116 C115 1.446 . S
C116 C117 1.339 . S
C116 H151 0.949 . S
C117 C116 1.339 . S
C117 C118 1.439 . S
C117 H152 0.950 . S
C118 N114 1.383 . S
C118 C117 1.439 . S
C118 C147 1.392 . S
N119 Co113 2.008 1_655 S
N119 C120 1.376 . S
N119 C123 1.374 . S
C120 N119 1.376 . S
C120 C121 1.443 . S
C120 C147 1.389 1_655 S
C121 C120 1.443 . S
C121 C122 1.340 . S
C121 H153 0.951 . S
C122 C121 1.340 . S
C122 C123 1.439 . S
C122 H154 0.950 . S
C123 N119 1.374 . S
C123 C122 1.439 . S
C123 C148 1.395 . S
N124 Co113 1.995 1_655 S
N124 C125 1.376 . S
N124 C128 1.383 1_655 S
C125 N124 1.376 . S
C125 C126 1.446 . S
C125 C148 1.391 . S
C126 C125 1.446 . S
C126 C127 1.339 . S
C126 H155 0.949 . S
C127 C126 1.339 . S
C127 C128 1.439 1_655 S
C127 H156 0.950 . S
C128 N124 1.383 1_455 S
C128 C127 1.439 1_455 S
C128 C146 1.392 . S
N129 Co113 2.282 . S
N129 C132 1.332 . S
N129 C134 1.332 . S
C130 C131 1.386 . S
C130 C133 1.388 . S
C131 C130 1.386 . S
C131 C132 1.382 . S
C131 H157 0.950 1_455 S
C132 N129 1.332 . S
C132 C131 1.382 . S
C132 H143 0.952 1_455 S
C133 C130 1.388 . S
C133 C134 1.382 . S
C133 H158 0.950 . S
C134 N129 1.332 . S
C134 C133 1.382 . S
C134 H144 0.948 . S
N135 Co113 2.282 . S
N135 C139 1.332 . S
N135 C140 1.332 1_455 S
C136 C137 1.388 1_655 S
C136 C140 1.382 . S
C136 H159 0.950 . S
C137 C136 1.388 1_455 S
C137 C138 1.386 . S
C138 C137 1.386 . S
C138 C139 1.382 . S
C138 H160 0.950 . S
C139 N135 1.332 . S
C139 C138 1.382 . S
C139 H141 0.952 . S
C140 N135 1.332 1_655 S
C140 C136 1.382 . S
C140 H142 0.948 . S
H141 C139 0.952 . S
H142 C140 0.948 . S
H143 C132 0.952 1_655 S
H144 C134 0.948 . S
C145 C111 1.395 . S
C145 C115 1.391 . S
C146 C108 1.389 . S
C146 C128 1.392 . S
C147 C118 1.392 . S
C147 C120 1.389 1_455 S
C148 C123 1.395 . S
C148 C125 1.391 . S
H149 C109 0.951 . S
H150 C110 0.950 . S
H151 C116 0.949 . S
H152 C117 0.950 . S
H153 C121 0.951 . S
H154 C122 0.950 . S
H155 C126 0.949 . S
H156 C127 0.950 . S
H157 C131 0.950 1_655 S
H158 C133 0.950 . S
H159 C136 0.950 . S
H160 C138 0.950 . S
C161 C162 1.443 1_545 S
C161 N165 1.376 . S
C161 C199 1.389 . S
C162 C161 1.443 1_565 S
C162 C163 1.340 . S
C162 H202 0.951 . S
C163 C162 1.340 . S
C163 C164 1.439 . S
C163 H203 0.950 . S
C164 C163 1.439 . S
C164 N165 1.374 1_565 S
C164 C198 1.395 . S
N165 C161 1.376 . S
N165 C164 1.374 1_545 S
N165 Co166 2.008 . S
Co166 N165 2.008 . S
Co166 N167 1.995 . S
Co166 N172 2.008 . S
Co166 N177 1.995 . S
Co166 N182 2.282 . S
Co166 N188 2.282 . S
N167 Co166 1.995 . S
N167 C168 1.376 1_545 S
N167 C171 1.383 . S
C168 N167 1.376 1_565 S
C168 C169 1.446 . S
C168 C198 1.391 . S
C169 C168 1.446 . S
C169 C170 1.339 . S
C169 H204 0.949 . S
C170 C169 1.339 . S
C170 C171 1.439 1_565 S
C170 H205 0.950 . S
C171 N167 1.383 . S
C171 C170 1.439 1_545 S
C171 C200 1.392 . S
N172 Co166 2.008 . S
N172 C173 1.376 . S
N172 C176 1.374 . S
C173 N172 1.376 . S
C173 C174 1.443 . S
C173 C200 1.389 . S
C174 C173 1.443 . S
C174 C175 1.340 . S
C174 H206 0.951 . S
C175 C174 1.340 . S
C175 C176 1.439 . S
C175 H207 0.950 . S
C176 N172 1.374 . S
C176 C175 1.439 . S
C176 C201 1.395 . S
N177 Co166 1.995 . S
N177 C178 1.376 . S
N177 C181 1.383 . S
C178 N177 1.376 . S
C178 C179 1.446 . S
C178 C201 1.391 . S
C179 C178 1.446 . S
C179 C180 1.339 . S
C179 H208 0.949 . S
C180 C179 1.339 . S
C180 C181 1.439 . S
C180 H209 0.950 . S
C181 N177 1.383 . S
C181 C180 1.439 . S
C181 C199 1.392 . S
N182 Co166 2.282 . S
N182 C185 1.332 . S
N182 C187 1.332 . S
C183 C184 1.386 . S
C183 C186 1.388 . S
C184 C183 1.386 . S
C184 C185 1.382 . S
C184 H210 0.950 . S
C185 N182 1.332 . S
C185 C184 1.382 . S
C185 H196 0.952 . S
C186 C183 1.388 . S
C186 C187 1.382 . S
C186 H211 0.950 . S
C187 N182 1.332 . S
C187 C186 1.382 . S
C187 H197 0.948 . S
N188 Co166 2.282 . S
N188 C192 1.332 . S
N188 C193 1.332 . S
C189 C190 1.388 . S
C189 C193 1.382 . S
C189 H212 0.950 . S
C190 C189 1.388 . S
C190 C191 1.386 . S
C191 C190 1.386 . S
C191 C192 1.382 . S
C191 H213 0.950 . S
C192 N188 1.332 . S
C192 C191 1.382 . S
C192 H194 0.952 . S
C193 N188 1.332 . S
C193 C189 1.382 . S
C193 H195 0.948 . S
H194 C192 0.952 . S
H195 C193 0.948 . S
H196 C185 0.952 . S
H197 C187 0.948 . S
C198 C164 1.395 . S
C198 C168 1.391 . S
C199 C161 1.389 . S
C199 C181 1.392 . S
C200 C171 1.392 . S
C200 C173 1.389 . S
C201 C176 1.395 . S
C201 C178 1.391 . S
H202 C162 0.951 . S
H203 C163 0.950 . S
H204 C169 0.949 . S
H205 C170 0.950 . S
H206 C174 0.951 . S
H207 C175 0.950 . S
H208 C179 0.949 . S
H209 C180 0.950 . S
H210 C184 0.950 . S
H211 C186 0.950 . S
H212 C189 0.950 . S
H213 C191 0.950 . S
C214 C215 1.443 . S
C214 N218 1.376 . S
C214 C252 1.389 . S
C215 C214 1.443 . S
C215 C216 1.340 . S
C215 H255 0.951 . S
C216 C215 1.340 . S
C216 C217 1.439 . S
C216 H256 0.950 . S
C217 C216 1.439 . S
C217 N218 1.374 . S
C217 C251 1.395 . S
N218 C214 1.376 . S
N218 C217 1.374 . S
N218 Co219 2.008 . S
Co219 N218 2.008 . S
Co219 N220 1.995 . S
Co219 N225 2.008 . S
Co219 N230 1.995 . S
Co219 N235 2.282 . S
Co219 N241 2.282 . S
N220 Co219 1.995 . S
N220 C221 1.376 . S
N220 C224 1.383 . S
C221 N220 1.376 . S
C221 C222 1.446 . S
C221 C251 1.391 . S
C222 C221 1.446 . S
C222 C223 1.339 . S
C222 H257 0.949 . S
C223 C222 1.339 . S
C223 C224 1.439 . S
C223 H258 0.950 . S
C224 N220 1.383 . S
C224 C223 1.439 . S
C224 C253 1.392 . S
N225 Co219 2.008 . S
N225 C226 1.376 . S
N225 C229 1.374 . S
C226 N225 1.376 . S
C226 C227 1.443 . S
C226 C253 1.389 . S
C227 C226 1.443 . S
C227 C228 1.340 . S
C227 H259 0.951 . S
C228 C227 1.340 . S
C228 C229 1.439 . S
C228 H260 0.950 . S
C229 N225 1.374 . S
C229 C228 1.439 . S
C229 C254 1.395 . S
N230 Co219 1.995 . S
N230 C231 1.376 . S
N230 C234 1.383 . S
C231 N230 1.376 . S
C231 C232 1.446 . S
C231 C254 1.391 . S
C232 C231 1.446 . S
C232 C233 1.339 . S
C232 H261 0.949 . S
C233 C232 1.339 . S
C233 C234 1.439 . S
C233 H262 0.950 . S
C234 N230 1.383 . S
C234 C233 1.439 . S
C234 C252 1.392 . S
N235 Co219 2.282 . S
N235 C238 1.332 . S
N235 C240 1.332 . S
C236 C237 1.386 . S
C236 C239 1.388 . S
C237 C236 1.386 . S
C237 C238 1.382 . S
C237 H263 0.950 . S
C238 N235 1.332 . S
C238 C237 1.382 . S
C238 H249 0.952 . S
C239 C236 1.388 . S
C239 C240 1.382 . S
C239 H264 0.950 . S
C240 N235 1.332 . S
C240 C239 1.382 . S
C240 H250 0.948 . S
N241 Co219 2.282 . S
N241 C245 1.332 . S
N241 C246 1.332 . S
C242 C243 1.388 . S
C242 C246 1.382 . S
C242 H265 0.950 . S
C243 C242 1.388 . S
C243 C244 1.386 . S
C244 C243 1.386 . S
C244 C245 1.382 . S
C244 H266 0.950 . S
C245 N241 1.332 . S
C245 C244 1.382 . S
C245 H247 0.952 . S
C246 N241 1.332 . S
C246 C242 1.382 . S
C246 H248 0.948 . S
H247 C245 0.952 . S
H248 C246 0.948 . S
H249 C238 0.952 . S
H250 C240 0.948 . S
C251 C217 1.395 . S
C251 C221 1.391 . S
C252 C214 1.389 . S
C252 C234 1.392 . S
C253 C224 1.392 . S
C253 C226 1.389 . S
C254 C229 1.395 . S
C254 C231 1.391 . S
H255 C215 0.951 . S
H256 C216 0.950 . S
H257 C222 0.949 . S
H258 C223 0.950 . S
H259 C227 0.951 . S
H260 C228 0.950 . S
H261 C232 0.949 . S
H262 C233 0.950 . S
H263 C237 0.950 . S
H264 C239 0.950 . S
H265 C242 0.950 . S
H266 C244 0.950 . S
H267 C279 0.930 . S
H268 C281 0.930 . S
H269 C282 0.930 . S
H270 C286 0.959 . S
H271 C286 0.959 . S
H272 C286 0.961 . S
H273 C287 0.960 . S
H274 C287 0.961 . S
H275 C287 0.959 . S
H276 C290 0.929 . S
H277 C291 0.931 . S
H278 C293 0.930 . S
C279 H267 0.930 . S
C279 C280 1.399 . S
C279 C284 1.399 . S
C280 C279 1.399 . S
C280 C281 1.376 . S
C281 H268 0.930 . S
C281 C280 1.376 . S
C281 C282 1.388 . S
C282 H269 0.930 . S
C282 C281 1.388 . S
C282 C283 1.390 . S
C283 C282 1.390 . S
C283 C284 1.394 . S
C283 C289 1.465 . S
C284 C279 1.399 . S
C284 C283 1.394 . S
C284 C285 1.516 . S
C285 C284 1.516 . S
C285 C286 1.502 . S
C285 C287 1.561 . S
C285 C288 1.526 . S
C286 H270 0.959 . S
C286 H271 0.959 . S
C286 H272 0.961 . S
C286 C285 1.502 . S
C287 H273 0.960 . S
C287 H274 0.961 . S
C287 H275 0.959 . S
C287 C285 1.561 . S
C288 C285 1.526 . S
C288 C289 1.396 . S
C288 C293 1.390 . S
C289 C283 1.465 . S
C289 C288 1.396 . S
C289 C290 1.399 . S
C290 H276 0.929 . S
C290 C289 1.399 . S
C290 C291 1.385 . S
C291 H277 0.931 . S
C291 C290 1.385 . S
C291 C292 1.389 . S
C292 C291 1.389 . S
C292 C293 1.387 . S
C293 H278 0.930 . S
C293 C288 1.390 . S
C293 C292 1.387 . S
H294 C306 0.930 1_565 S
H295 C308 0.930 . S
H296 C309 0.930 . S
H297 C313 0.959 1_545 S
H298 C313 0.959 . S
H299 C313 0.961 . S
H300 C314 0.960 . S
H301 C314 0.961 . S
H302 C314 0.959 . S
H303 C317 0.929 . S
H304 C318 0.931 . S
H305 C320 0.930 . S
C306 H294 0.930 1_545 S
C306 C307 1.399 . S
C306 C311 1.399 . S
C307 C306 1.399 . S
C307 C308 1.376 . S
C308 H295 0.930 . S
C308 C307 1.376 . S
C308 C309 1.388 . S
C309 H296 0.930 . S
C309 C308 1.388 . S
C309 C310 1.390 . S
C310 C309 1.390 . S
C310 C311 1.394 . S
C310 C316 1.465 . S
C311 C306 1.399 . S
C311 C310 1.394 . S
C311 C312 1.516 . S
C312 C311 1.516 . S
C312 C313 1.502 1_545 S
C312 C314 1.561 1_545 S
C312 C315 1.526 . S
C313 H297 0.959 1_565 S
C313 H298 0.959 . S
C313 H299 0.961 . S
C313 C312 1.502 1_565 S
C314 H300 0.960 . S
C314 H301 0.961 . S
C314 H302 0.959 . S
C314 C312 1.561 1_565 S
C315 C312 1.526 . S
C315 C316 1.396 . S
C315 C320 1.390 . S
C316 C310 1.465 . S
C316 C315 1.396 . S
C316 C317 1.399 . S
C317 H303 0.929 . S
C317 C316 1.399 . S
C317 C318 1.385 . S
C318 H304 0.931 . S
C318 C317 1.385 . S
C318 C319 1.389 . S
C319 C318 1.389 . S
C319 C320 1.387 . S
C320 H305 0.930 . S
C320 C315 1.390 . S
C320 C319 1.387 . S
H321 C333 0.930 . S
H322 C335 0.930 . S
H323 C336 0.930 . S
H324 C340 0.959 . S
H325 C340 0.959 . S
H326 C340 0.961 . S
H327 C341 0.960 . S
H328 C341 0.961 . S
H329 C341 0.959 . S
H330 C344 0.929 . S
H331 C345 0.931 . S
H332 C347 0.930 . S
C333 H321 0.930 . S
C333 C334 1.399 . S
C333 C338 1.399 . S
C334 C333 1.399 . S
C334 C335 1.376 . S
C335 H322 0.930 . S
C335 C334 1.376 . S
C335 C336 1.388 . S
C336 H323 0.930 . S
C336 C335 1.388 . S
C336 C337 1.390 . S
C337 C336 1.390 . S
C337 C338 1.394 . S
C337 C343 1.465 . S
C338 C333 1.399 . S
C338 C337 1.394 . S
C338 C339 1.516 . S
C339 C338 1.516 . S
C339 C340 1.502 . S
C339 C341 1.561 . S
C339 C342 1.526 . S
C340 H324 0.959 . S
C340 H325 0.959 . S
C340 H326 0.961 . S
C340 C339 1.502 . S
C341 H327 0.960 . S
C341 H328 0.961 . S
C341 H329 0.959 . S
C341 C339 1.561 . S
C342 C339 1.526 . S
C342 C343 1.396 . S
C342 C347 1.390 . S
C343 C337 1.465 . S
C343 C342 1.396 . S
C343 C344 1.399 . S
C344 H330 0.929 . S
C344 C343 1.399 . S
C344 C345 1.385 . S
C345 H331 0.931 . S
C345 C344 1.385 . S
C345 C346 1.389 . S
C346 C345 1.389 . S
C346 C347 1.387 . S
C347 H332 0.930 . S
C347 C342 1.390 . S
C347 C346 1.387 . S
H348 C360 0.930 . S
H349 C362 0.930 . S
H350 C363 0.930 . S
H351 C367 0.959 . S
H352 C367 0.959 . S
H353 C367 0.961 . S
H354 C368 0.960 . S
H355 C368 0.961 . S
H356 C368 0.959 . S
H357 C371 0.929 . S
H358 C372 0.931 . S
H359 C374 0.930 . S
C360 H348 0.930 . S
C360 C361 1.399 . S
C360 C365 1.399 . S
C361 C360 1.399 . S
C361 C362 1.376 . S
C362 H349 0.930 . S
C362 C361 1.376 . S
C362 C363 1.388 . S
C363 H350 0.930 . S
C363 C362 1.388 . S
C363 C364 1.390 . S
C364 C363 1.390 . S
C364 C365 1.394 . S
C364 C370 1.465 . S
C365 C360 1.399 . S
C365 C364 1.394 . S
C365 C366 1.516 . S
C366 C365 1.516 . S
C366 C367 1.502 . S
C366 C368 1.561 . S
C366 C369 1.526 . S
C367 H351 0.959 . S
C367 H352 0.959 . S
C367 H353 0.961 . S
C367 C366 1.502 . S
C368 H354 0.960 . S
C368 H355 0.961 . S
C368 H356 0.959 . S
C368 C366 1.561 . S
C369 C366 1.526 . S
C369 C370 1.396 . S
C369 C374 1.390 . S
C370 C364 1.465 . S
C370 C369 1.396 . S
C370 C371 1.399 . S
C371 H357 0.929 . S
C371 C370 1.399 . S
C371 C372 1.385 . S
C372 H358 0.931 . S
C372 C371 1.385 . S
C372 C373 1.389 . S
C373 C372 1.389 . S
C373 C374 1.387 . S
C374 H359 0.930 . S
C374 C369 1.390 . S
C374 C373 1.387 . S
H375 C387 0.930 . S
H376 C389 0.930 . S
H377 C390 0.930 . S
H378 C394 0.959 . S
H379 C394 0.959 . S
H380 C394 0.961 . S
H381 C395 0.960 . S
H382 C395 0.961 . S
H383 C395 0.959 . S
H384 C398 0.929 . S
H385 C399 0.931 . S
H386 C401 0.930 . S
C387 H375 0.930 . S
C387 C388 1.399 . S
C387 C392 1.399 . S
C388 C387 1.399 . S
C388 C389 1.376 . S
C389 H376 0.930 . S
C389 C388 1.376 . S
C389 C390 1.388 . S
C390 H377 0.930 . S
C390 C389 1.388 . S
C390 C391 1.390 . S
C391 C390 1.390 . S
C391 C392 1.394 . S
C391 C397 1.465 . S
C392 C387 1.399 . S
C392 C391 1.394 . S
C392 C393 1.516 . S
C393 C392 1.516 . S
C393 C394 1.502 . S
C393 C395 1.561 . S
C393 C396 1.526 . S
C394 H378 0.959 . S
C394 H379 0.959 . S
C394 H380 0.961 . S
C394 C393 1.502 . S
C395 H381 0.960 . S
C395 H382 0.961 . S
C395 H383 0.959 . S
C395 C393 1.561 . S
C396 C393 1.526 . S
C396 C397 1.396 . S
C396 C401 1.390 . S
C397 C391 1.465 . S
C397 C396 1.396 . S
C397 C398 1.399 . S
C398 H384 0.929 . S
C398 C397 1.399 . S
C398 C399 1.385 . S
C399 H385 0.931 . S
C399 C398 1.385 . S
C399 C400 1.389 . S
C400 C399 1.389 . S
C400 C401 1.387 . S
C401 H386 0.930 . S
C401 C396 1.390 . S
C401 C400 1.387 . S
H402 C414 0.930 . S
H403 C416 0.930 . S
H404 C417 0.930 . S
H405 C421 0.959 . S
H406 C421 0.959 . S
H407 C421 0.961 . S
H408 C422 0.960 . S
H409 C422 0.961 . S
H410 C422 0.959 . S
H411 C425 0.929 . S
H412 C426 0.931 . S
H413 C428 0.930 . S
C414 H402 0.930 . S
C414 C415 1.399 . S
C414 C419 1.399 . S
C415 C414 1.399 . S
C415 C416 1.376 . S
C416 H403 0.930 . S
C416 C415 1.376 . S
C416 C417 1.388 . S
C417 H404 0.930 . S
C417 C416 1.388 . S
C417 C418 1.390 . S
C418 C417 1.390 . S
C418 C419 1.394 . S
C418 C424 1.465 . S
C419 C414 1.399 . S
C419 C418 1.394 . S
C419 C420 1.516 . S
C420 C419 1.516 . S
C420 C421 1.502 . S
C420 C422 1.561 . S
C420 C423 1.526 . S
C421 H405 0.959 . S
C421 H406 0.959 . S
C421 H407 0.961 . S
C421 C420 1.502 . S
C422 H408 0.960 . S
C422 H409 0.961 . S
C422 H410 0.959 . S
C422 C420 1.561 . S
C423 C420 1.526 . S
C423 C424 1.396 . S
C423 C428 1.390 . S
C424 C418 1.465 . S
C424 C423 1.396 . S
C424 C425 1.399 . S
C425 H411 0.929 . S
C425 C424 1.399 . S
C425 C426 1.385 . S
C426 H412 0.931 . S
C426 C425 1.385 . S
C426 C427 1.389 . S
C427 C426 1.389 . S
C427 C428 1.387 . S
C428 H413 0.930 . S
C428 C423 1.390 . S
C428 C427 1.387 . S
H429 C441 0.930 1_565 S
H430 C443 0.930 . S
H431 C444 0.930 . S
H432 C448 0.959 1_545 S
H433 C448 0.959 . S
H434 C448 0.961 . S
H435 C449 0.960 . S
H436 C449 0.961 . S
H437 C449 0.959 . S
H438 C452 0.929 . S
H439 C453 0.931 . S
H440 C455 0.930 . S
C441 H429 0.930 1_545 S
C441 C442 1.399 . S
C441 C446 1.399 . S
C442 C441 1.399 . S
C442 C443 1.376 . S
C443 H430 0.930 . S
C443 C442 1.376 . S
C443 C444 1.388 . S
C444 H431 0.930 . S
C444 C443 1.388 . S
C444 C445 1.390 . S
C445 C444 1.390 . S
C445 C446 1.394 . S
C445 C451 1.465 . S
C446 C441 1.399 . S
C446 C445 1.394 . S
C446 C447 1.516 . S
C447 C446 1.516 . S
C447 C448 1.502 1_545 S
C447 C449 1.561 1_545 S
C447 C450 1.526 . S
C448 H432 0.959 1_565 S
C448 H433 0.959 . S
C448 H434 0.961 . S
C448 C447 1.502 1_565 S
C449 H435 0.960 . S
C449 H436 0.961 . S
C449 H437 0.959 . S
C449 C447 1.561 1_565 S
C450 C447 1.526 . S
C450 C451 1.396 . S
C450 C455 1.390 . S
C451 C445 1.465 . S
C451 C450 1.396 . S
C451 C452 1.399 . S
C452 H438 0.929 . S
C452 C451 1.399 . S
C452 C453 1.385 . S
C453 H439 0.931 . S
C453 C452 1.385 . S
C453 C454 1.389 . S
C454 C453 1.389 . S
C454 C455 1.387 . S
C455 H440 0.930 . S
C455 C450 1.390 . S
C455 C454 1.387 . S
H456 C468 0.930 . S
H457 C470 0.930 1_545 S
H458 C471 0.930 . S
H459 C475 0.959 . S
H460 C475 0.959 . S
H461 C475 0.961 . S
H462 C476 0.960 . S
H463 C476 0.962 1_556 S
H464 C476 0.959 . S
H465 C479 0.929 . S
H466 C480 0.931 . S
H467 C482 0.930 . S
C468 H456 0.930 . S
C468 C469 1.399 . S
C468 C473 1.399 1_554 S
C469 C468 1.399 . S
C469 C470 1.376 1_554 S
C470 H457 0.930 1_565 S
C470 C469 1.376 1_556 S
C470 C471 1.388 . S
C471 H458 0.930 . S
C471 C470 1.388 . S
C471 C472 1.390 . S
C472 C471 1.390 . S
C472 C473 1.394 . S
C472 C478 1.465 . S
C473 C468 1.399 1_556 S
C473 C472 1.394 . S
C473 C474 1.516 . S
C474 C473 1.516 . S
C474 C475 1.502 . S
C474 C476 1.561 1_556 S
C474 C477 1.526 . S
C475 H459 0.959 . S
C475 H460 0.959 . S
C475 H461 0.961 . S
C475 C474 1.502 . S
C476 H462 0.960 . S
C476 H463 0.962 1_554 S
C476 H464 0.959 . S
C476 C474 1.561 1_554 S
C477 C474 1.526 . S
C477 C478 1.396 . S
C477 C482 1.390 . S
C478 C472 1.465 . S
C478 C477 1.396 . S
C478 C479 1.399 . S
C479 H465 0.929 . S
C479 C478 1.399 . S
C479 C480 1.385 . S
C480 H466 0.931 . S
C480 C479 1.385 . S
C480 C481 1.389 . S
C481 C480 1.389 . S
C481 C482 1.387 . S
C482 H467 0.930 . S
C482 C477 1.390 . S
C482 C481 1.387 . S
H483 C495 0.930 . S
H484 C497 0.930 . S
H485 C498 0.930 . S
H486 C502 0.959 . S
H487 C502 0.959 . S
H488 C502 0.961 . S
H489 C503 0.960 . S
H490 C503 0.961 . S
H491 C503 0.959 . S
H492 C506 0.929 . S
H493 C507 0.931 . S
H494 C509 0.930 . S
C495 H483 0.930 . S
C495 C496 1.399 . S
C495 C500 1.399 . S
C496 C495 1.399 . S
C496 C497 1.376 1_455 S
C497 H484 0.930 . S
C497 C496 1.376 1_655 S
C497 C498 1.388 . S
C498 H485 0.930 . S
C498 C497 1.388 . S
C498 C499 1.390 1_655 S
C499 C498 1.390 1_455 S
C499 C500 1.394 . S
C499 C505 1.465 . S
C500 C495 1.399 . S
C500 C499 1.394 . S
C500 C501 1.516 . S
C501 C500 1.516 . S
C501 C502 1.502 . S
C501 C503 1.561 . S
C501 C504 1.526 . S
C502 H486 0.959 . S
C502 H487 0.959 . S
C502 H488 0.961 . S
C502 C501 1.502 . S
C503 H489 0.960 . S
C503 H490 0.961 . S
C503 H491 0.959 . S
C503 C501 1.561 . S
C504 C501 1.526 . S
C504 C505 1.396 . S
C504 C509 1.390 . S
C505 C499 1.465 . S
C505 C504 1.396 . S
C505 C506 1.399 1_455 S
C506 H492 0.929 . S
C506 C505 1.399 1_655 S
C506 C507 1.385 . S
C507 H493 0.931 . S
C507 C506 1.385 . S
C507 C508 1.389 1_655 S
C508 C507 1.389 1_455 S
C508 C509 1.387 . S
C509 H494 0.930 . S
C509 C504 1.390 . S
C509 C508 1.387 . S
H510 C522 0.930 . S
H511 C524 0.930 . S
H512 C525 0.930 . S
H513 C529 0.959 . S
H514 C529 0.959 . S
H515 C529 0.961 . S
H516 C530 0.960 . S
H517 C530 0.961 . S
H518 C530 0.959 . S
H519 C533 0.929 1_565 S
H520 C534 0.931 . S
H521 C536 0.930 . S
C522 H510 0.930 . S
C522 C523 1.399 . S
C522 C527 1.399 . S
C523 C522 1.399 . S
C523 C524 1.376 1_545 S
C524 H511 0.930 . S
C524 C523 1.376 1_565 S
C524 C525 1.388 . S
C525 H512 0.930 . S
C525 C524 1.388 . S
C525 C526 1.390 1_565 S
C526 C525 1.390 1_545 S
C526 C527 1.394 . S
C526 C532 1.465 . S
C527 C522 1.399 . S
C527 C526 1.394 . S
C527 C528 1.516 . S
C528 C527 1.516 . S
C528 C529 1.502 . S
C528 C530 1.561 . S
C528 C531 1.526 . S
C529 H513 0.959 . S
C529 H514 0.959 . S
C529 H515 0.961 . S
C529 C528 1.502 . S
C530 H516 0.960 . S
C530 H517 0.961 . S
C530 H518 0.959 . S
C530 C528 1.561 . S
C531 C528 1.526 . S
C531 C532 1.396 . S
C531 C536 1.390 . S
C532 C526 1.465 . S
C532 C531 1.396 . S
C532 C533 1.399 . S
C533 H519 0.929 1_545 S
C533 C532 1.399 . S
C533 C534 1.385 . S
C534 H520 0.931 . S
C534 C533 1.385 . S
C534 C535 1.389 . S
C535 C534 1.389 . S
C535 C536 1.387 . S
C536 H521 0.930 . S
C536 C531 1.390 . S
C536 C535 1.387 . S
H537 C549 0.930 . S
H538 C551 0.930 . S
H539 C552 0.930 . S
H540 C556 0.959 . S
H541 C556 0.959 . S
H542 C556 0.961 . S
H543 C557 0.960 . S
H544 C557 0.961 . S
H545 C557 0.959 . S
H546 C560 0.929 . S
H547 C561 0.931 . S
H548 C563 0.930 . S
C549 H537 0.930 . S
C549 C550 1.409 . S
C549 C554 1.399 . S
C550 C549 1.409 . S
C550 C551 1.375 1_556 S
C551 H538 0.930 . S
C551 C550 1.375 1_554 S
C551 C552 1.388 1_554 S
C552 H539 0.930 . S
C552 C551 1.388 1_556 S
C552 C553 1.390 . S
C553 C552 1.390 . S
C553 C554 1.394 . S
C553 C559 1.465 . S
C554 C549 1.399 . S
C554 C553 1.394 . S
C554 C555 1.516 . S
C555 C554 1.516 . S
C555 C556 1.502 . S
C555 C557 1.561 . S
C555 C558 1.526 . S
C556 H540 0.959 . S
C556 H541 0.959 . S
C556 H542 0.961 . S
C556 C555 1.502 . S
C557 H543 0.960 . S
C557 H544 0.961 . S
C557 H545 0.959 . S
C557 C555 1.561 . S
C558 C555 1.526 . S
C558 C559 1.396 . S
C558 C563 1.390 . S
C559 C553 1.465 . S
C559 C558 1.396 . S
C559 C560 1.399 . S
C560 H546 0.929 . S
C560 C559 1.399 . S
C560 C561 1.385 . S
C561 H547 0.931 . S
C561 C560 1.385 . S
C561 C562 1.389 . S
C562 C561 1.389 . S
C562 C563 1.387 . S
C563 H548 0.930 . S
C563 C558 1.390 . S
C563 C562 1.387 . S
H564 C576 0.930 . S
H565 C578 0.930 . S
H566 C579 0.930 . S
H567 C583 0.959 1_655 S
H568 C583 0.959 . S
H569 C583 0.961 . S
H570 C584 0.960 . S
H571 C584 0.961 . S
H572 C584 0.959 . S
H573 C587 0.929 . S
H574 C588 0.931 . S
H575 C590 0.930 . S
C576 H564 0.930 . S
C576 C577 1.399 . S
C576 C581 1.399 . S
C577 C576 1.399 . S
C577 C578 1.376 . S
C578 H565 0.930 . S
C578 C577 1.376 . S
C578 C579 1.388 . S
C579 H566 0.930 . S
C579 C578 1.388 . S
C579 C580 1.390 . S
C580 C579 1.390 . S
C580 C581 1.394 . S
C580 C586 1.465 . S
C581 C576 1.399 . S
C581 C580 1.394 . S
C581 C582 1.516 . S
C582 C581 1.516 . S
C582 C583 1.502 . S
C582 C584 1.561 . S
C582 C585 1.526 . S
C583 H567 0.959 1_455 S
C583 H568 0.959 . S
C583 H569 0.961 . S
C583 C582 1.502 . S
C584 H570 0.960 . S
C584 H571 0.961 . S
C584 H572 0.959 . S
C584 C582 1.561 . S
C585 C582 1.526 . S
C585 C586 1.396 . S
C585 C590 1.390 . S
C586 C580 1.465 . S
C586 C585 1.396 . S
C586 C587 1.399 . S
C587 H573 0.929 . S
C587 C586 1.399 . S
C587 C588 1.385 . S
C588 H574 0.931 . S
C588 C587 1.385 . S
C588 C589 1.389 . S
C589 C588 1.389 . S
C589 C590 1.387 . S
C590 H575 0.930 . S
C590 C585 1.390 . S
C590 C589 1.387 . S
C292 C130 1.483 . S
C280 C14 1.456 . S
C307 C40 1.467 . S
C319 C200 1.511 . S
C334 C76 1.460 . S
C346 C252 1.469 . S
C361 C3 1.460 . S
C373 C146 1.460 . S
C400 C190 1.502 . S
C388 C38 1.480 . S
C415 C74 1.433 . S
C427 C236 1.464 . S
C454 C183 1.458 . S
C442 C86 1.382 . S
C469 C2 1.475 1_655 S
C481 C243 1.469 . S
C508 C137 1.453 . S
C496 C39 1.460 . S
C535 C199 1.453 . S
C523 C75 1.476 . S
C562 C253 1.472 . S
C550 C4 1.475 1_556 S
C577 C50 1.463 . S
C589 C147 1.481 . S
