# Generated by pormake.
# Topology pyr, (3,6)-cn, num edge types: 1
# Building blocks:
#     Node 0, Type 0, BuildingBlock: OLANEW_clean_sbu_2, # of connection points: 3
#     Node 1, Type 0, BuildingBlock: OLANEW_clean_sbu_2, # of connection points: 3
#     Node 2, Type 0, BuildingBlock: OLANEW_clean_sbu_2, # of connection points: 3
#     Node 3, Type 0, BuildingBlock: OLANEW_clean_sbu_2, # of connection points: 3
#     Node 4, Type 0, BuildingBlock: OLANEW_clean_sbu_2, # of connection points: 3
#     Node 5, Type 0, BuildingBlock: OLANEW_clean_sbu_2, # of connection points: 3
#     Node 6, Type 0, BuildingBlock: OLANEW_clean_sbu_2, # of connection points: 3
#     Node 7, Type 0, BuildingBlock: OLANEW_clean_sbu_2, # of connection points: 3
#     Node 8, Type 1, BuildingBlock: PAMTOO_clean_sbu_0, # of connection points: 6
#     Node 9, Type 1, BuildingBlock: PAMTOO_clean_sbu_0, # of connection points: 6
#     Node 10, Type 1, BuildingBlock: PAMTOO_clean_sbu_0, # of connection points: 6
#     Node 11, Type 1, BuildingBlock: PAMTOO_clean_sbu_0, # of connection points: 6
#     Edge 12, Type (0, 1), BuildingBlock: EZIPEK_clean_linker_0, # of connection points: 2
#     Edge 13, Type (0, 1), BuildingBlock: EZIPEK_clean_linker_0, # of connection points: 2
#     Edge 14, Type (0, 1), BuildingBlock: EZIPEK_clean_linker_0, # of connection points: 2
#     Edge 15, Type (0, 1), BuildingBlock: EZIPEK_clean_linker_0, # of connection points: 2
#     Edge 16, Type (0, 1), BuildingBlock: EZIPEK_clean_linker_0, # of connection points: 2
#     Edge 17, Type (0, 1), BuildingBlock: EZIPEK_clean_linker_0, # of connection points: 2
#     Edge 18, Type (0, 1), BuildingBlock: EZIPEK_clean_linker_0, # of connection points: 2
#     Edge 19, Type (0, 1), BuildingBlock: EZIPEK_clean_linker_0, # of connection points: 2
#     Edge 20, Type (0, 1), BuildingBlock: EZIPEK_clean_linker_0, # of connection points: 2
#     Edge 21, Type (0, 1), BuildingBlock: EZIPEK_clean_linker_0, # of connection points: 2
#     Edge 22, Type (0, 1), BuildingBlock: EZIPEK_clean_linker_0, # of connection points: 2
#     Edge 23, Type (0, 1), BuildingBlock: EZIPEK_clean_linker_0, # of connection points: 2
#     Edge 24, Type (0, 1), BuildingBlock: EZIPEK_clean_linker_0, # of connection points: 2
#     Edge 25, Type (0, 1), BuildingBlock: EZIPEK_clean_linker_0, # of connection points: 2
#     Edge 26, Type (0, 1), BuildingBlock: EZIPEK_clean_linker_0, # of connection points: 2
#     Edge 27, Type (0, 1), BuildingBlock: EZIPEK_clean_linker_0, # of connection points: 2
#     Edge 28, Type (0, 1), BuildingBlock: EZIPEK_clean_linker_0, # of connection points: 2
#     Edge 29, Type (0, 1), BuildingBlock: EZIPEK_clean_linker_0, # of connection points: 2
#     Edge 30, Type (0, 1), BuildingBlock: EZIPEK_clean_linker_0, # of connection points: 2
#     Edge 31, Type (0, 1), BuildingBlock: EZIPEK_clean_linker_0, # of connection points: 2
#     Edge 32, Type (0, 1), BuildingBlock: EZIPEK_clean_linker_0, # of connection points: 2
#     Edge 33, Type (0, 1), BuildingBlock: EZIPEK_clean_linker_0, # of connection points: 2
#     Edge 34, Type (0, 1), BuildingBlock: EZIPEK_clean_linker_0, # of connection points: 2
#     Edge 35, Type (0, 1), BuildingBlock: EZIPEK_clean_linker_0, # of connection points: 2
# Relax obj value: 0.185
# Max RMSD: 0.225
# Mean RMSD: 0.129
data_MOF--net-pyr--node1-OLANEW_clean_sbu_2--node2-PAMTOO_clean_sbu_0--edge1-EZIPEK_clean_linker_0
_symmetry_space_group_name_H-M    P1
_symmetry_Int_Tables_number       1
_symmetry_cell_setting            triclinic
loop_
_symmetry_equiv_pos_as_xyz
'x, y, z'
_cell_length_a     29.23042
_cell_length_b     33.045595
_cell_length_c     32.278084
_cell_angle_alpha  94.676472
_cell_angle_beta   88.586624
_cell_angle_gamma 108.30396
loop_
_atom_site_label
_atom_site_type_symbol
_atom_site_fract_x
_atom_site_fract_y
_atom_site_fract_z
_atom_type_partial_charge
O0 O 0.36466 0.23134 0.20911 0.0
Cd1 Cd 0.33095 0.2873 0.23871 0.0
O2 O 0.39581 0.23634 0.27092 0.0
Cd3 Cd 0.44043 0.22264 0.31767 0.0
O4 O 0.49849 0.22332 0.35911 0.0
C5 C 0.48922 0.207 0.39383 0.0
O6 O 0.52483 0.20849 0.41856 0.0
C7 C 0.39 0.21909 0.23393 0.0
C8 C 0.25902 0.30777 0.19707 0.0
O9 O 0.30375 0.32733 0.19089 0.0
O10 O 0.24809 0.2772 0.22122 0.0
O11 O 0.18068 0.85179 0.80516 0.0
Cd12 Cd 0.15703 0.82812 0.73338 0.0
O13 O 0.11761 0.80687 0.83338 0.0
Cd14 Cd 0.0801 0.79893 0.77411 0.0
O15 O 0.05817 0.82353 0.71961 0.0
C16 C 0.05998 0.86258 0.72374 0.0
O17 O 0.07255 0.88441 0.75977 0.0
C18 C 0.15913 0.83458 0.83699 0.0
C19 C 0.23168 0.79993 0.70156 0.0
O20 O 0.19546 0.77454 0.71925 0.0
O21 O 0.2313 0.83792 0.69663 0.0
O22 O 0.7168 0.44757 0.88693 0.0
Cd23 Cd 0.64166 0.42945 0.84472 0.0
O24 O 0.68599 0.39003 0.92071 0.0
Cd25 Cd 0.67646 0.33918 0.96408 0.0
O26 O 0.64135 0.28472 1.00229 0.0
C27 C 0.6349 0.24593 0.98895 0.0
O28 O 0.65054 0.23766 0.95172 0.0
C29 C 0.72132 0.42332 0.91443 0.0
C30 C 0.62486 0.4805 0.78423 0.0
O31 O 0.61118 0.48446 0.82198 0.0
O32 O 0.64883 0.45445 0.77526 0.0
O33 O 0.9424 0.77062 0.34116 0.0
Cd34 Cd 0.90092 0.69448 0.3148 0.0
O35 O 0.89318 0.76446 0.39522 0.0
Cd36 Cd 0.84128 0.70073 0.38502 0.0
O37 O 0.78035 0.66685 0.42304 0.0
C38 C 0.78166 0.68311 0.46028 0.0
O39 O 0.81835 0.71651 0.47232 0.0
C40 C 0.92902 0.78644 0.37503 0.0
C41 C 0.9248 0.65293 0.24056 0.0
O42 O 0.95064 0.65941 0.27347 0.0
O43 O 0.88939 0.66811 0.24176 0.0
O44 O 0.68984 0.77746 0.7702 0.0
Cd45 Cd 0.65446 0.71131 0.80381 0.0
O46 O 0.66929 0.81593 0.82161 0.0
Cd47 Cd 0.66388 0.87326 0.85797 0.0
O48 O 0.63964 0.9122 0.90679 0.0
C49 C 0.61971 0.89413 0.93885 0.0
O50 O 0.61514 0.85362 0.94178 0.0
C51 C 0.68988 0.8137 0.78671 0.0
C52 C 0.72911 0.68837 0.83638 0.0
O53 O 0.71402 0.67519 0.79923 0.0
O54 O 0.70823 0.71144 0.85843 0.0
O55 O 0.90212 0.27896 0.36427 0.0
Cd56 Cd 0.9621 0.29953 0.41936 0.0
O57 O 0.89034 0.34019 0.3534 0.0
Cd58 Cd 0.91711 0.37235 0.41357 0.0
O59 O 0.8635 0.39202 0.45151 0.0
C60 C 0.833 0.40161 0.43005 0.0
O61 O 0.83846 0.40201 0.38956 0.0
C62 C 0.88322 0.30071 0.34359 0.0
C63 C 0.9891 0.22758 0.43193 0.0
O64 O 0.01082 0.25329 0.40489 0.0
O65 O 0.95528 0.23603 0.45334 0.0
O66 O 0.42903 0.77704 0.27157 0.0
Cd67 Cd 0.39703 0.7038 0.29838 0.0
O68 O 0.38441 0.762 0.21411 0.0
Cd69 Cd 0.34201 0.69412 0.21189 0.0
O70 O 0.2898 0.64691 0.16997 0.0
C71 C 0.24803 0.65082 0.16774 0.0
O72 O 0.23761 0.68057 0.19208 0.0
C73 C 0.41555 0.7885 0.23816 0.0
C74 C 0.42995 0.67822 0.37137 0.0
O75 O 0.44987 0.67482 0.33597 0.0
O76 O 0.39637 0.69564 0.37319 0.0
O77 O 0.14639 0.41843 0.7981 0.0
Cd78 Cd 0.17664 0.38724 0.73494 0.0
O79 O 0.09392 0.35663 0.81274 0.0
Cd80 Cd 0.10903 0.31456 0.76062 0.0
O81 O 0.10841 0.26102 0.714 0.0
C82 C 0.07075 0.22852 0.70996 0.0
O83 O 0.03292 0.22768 0.7331 0.0
C84 C 0.11325 0.39674 0.8213 0.0
C85 C 0.25653 0.43903 0.69277 0.0
O86 O 0.26201 0.41781 0.72277 0.0
O87 O 0.21352 0.43712 0.68334 0.0
Dy88 Dy 0.08194 0.0237 0.52221 0.0
Dy89 Dy 0.96563 1.00286 0.54363 0.0
C90 C 0.04543 0.08073 0.59158 0.0
O91 O 0.07059 0.99077 0.58101 0.0
O92 O 0.98899 0.95624 0.57704 0.0
O93 O 0.15692 0.04385 0.54045 0.0
O94 O 0.13574 0.01777 0.47733 0.0
O95 O 0.97126 0.96951 0.48128 0.0
O96 O 0.04186 0.95786 0.495 0.0
O97 O 0.98287 0.05937 0.50613 0.0
O98 O 0.05729 0.06178 0.47835 0.0
O99 O 0.89339 0.95859 0.5402 0.0
O100 O 0.90634 0.02173 0.57101 0.0
C101 C 0.03158 0.9617 0.59289 0.0
O102 O 0.07598 0.08119 0.56093 0.0
O103 O 1.00663 0.04776 0.59576 0.0
C104 C 0.21526 0.06397 0.48746 0.0
C105 C 0.30033 0.11752 0.45425 0.0
C106 C 0.25813 0.12937 0.45553 0.0
C107 C 0.21562 0.10262 0.4721 0.0
C108 C 0.25751 0.05248 0.48639 0.0
C109 C 0.29976 0.07903 0.46987 0.0
C110 C 0.1713 0.03409 0.50349 0.0
C111 C 1.00118 0.94728 0.47438 0.0
C112 C 0.01987 0.07588 0.4821 0.0
C113 C 0.8465 0.9644 0.60025 0.0
C114 C 0.79358 0.92754 0.66946 0.0
C115 C 0.80121 0.90152 0.63524 0.0
C116 C 0.82721 0.91971 0.60088 0.0
C117 C 0.83793 0.99045 0.63439 0.0
C118 C 0.81172 0.97213 0.66879 0.0
C119 C 0.87557 0.98354 0.56429 0.0
H120 H 0.25812 0.15903 0.44351 0.0
H121 H 0.18313 0.11181 0.47263 0.0
H122 H 0.25771 0.02268 0.49802 0.0
H123 H 0.33204 0.0695 0.46908 0.0
H124 H 0.78728 0.86702 0.63529 0.0
H125 H 0.83258 0.89868 0.575 0.0
H126 H 0.85185 0.02496 0.63471 0.0
H127 H 0.80603 0.99262 0.69502 0.0
Dy128 Dy 0.45423 0.01566 0.10539 0.0
Dy129 Dy 0.5554 0.04276 0.1563 0.0
C130 C 0.47494 0.9535 0.16735 0.0
O131 O 0.4455 0.04637 0.16803 0.0
O132 O 0.52012 0.09355 0.17199 0.0
O133 O 0.37745 0.98326 0.10506 0.0
O134 O 0.41052 0.02299 0.05535 0.0
O135 O 0.57303 0.08604 0.10479 0.0
O136 O 0.49577 0.08215 0.08756 0.0
O137 O 0.56181 0.9934 0.10648 0.0
O138 O 0.50235 0.99363 0.06084 0.0
O139 O 0.63134 0.0518 0.16147 0.0
O140 O 0.58999 0.06069 0.21632 0.0
C141 C 0.47388 0.0847 0.17928 0.0
O142 O 0.45812 0.95516 0.13034 0.0
O143 O 0.50416 0.98783 0.187 0.0
C144 C 0.33916 0.96658 0.03868 0.0
C145 C 0.27598 0.91138 0.97933 0.0
C146 C 0.29478 0.89453 1.01104 0.0
C147 C 0.32644 0.92202 0.04055 0.0
C148 C 0.31997 0.98312 1.00708 0.0
C149 C 0.28873 0.95577 0.97761 0.0
C150 C 0.37105 0.99693 0.06954 0.0
C151 C 0.5429 0.10009 0.08523 0.0
C152 C 0.54105 0.98387 0.06964 0.0
C153 C 0.67086 0.10359 0.21415 0.0
C154 C 0.74243 0.17876 0.2424 0.0
C155 C 0.7184 0.17714 0.20492 0.0
C156 C 0.68251 0.13964 0.19089 0.0
C157 C 0.69534 0.10526 0.25125 0.0
C158 C 0.7309 0.14265 0.26534 0.0
C159 C 0.63264 0.06429 0.20091 0.0
H160 H 0.28515 0.86027 1.01272 0.0
H161 H 0.34077 0.90852 0.0647 0.0
H162 H 0.32911 0.01735 1.00526 0.0
H163 H 0.27447 0.96922 0.95334 0.0
H164 H 0.72691 0.20493 0.18707 0.0
H165 H 0.66371 0.13882 0.16219 0.0
H166 H 0.68662 0.07774 0.26953 0.0
H167 H 0.74918 0.14361 0.29438 0.0
Dy168 Dy 0.52053 0.53383 0.55247 0.0
Dy169 Dy 0.51938 0.62088 0.60842 0.0
C170 C 0.55978 0.55329 0.64739 0.0
O171 O 0.44315 0.52132 0.57035 0.0
O172 O 0.45546 0.56843 0.62845 0.0
O173 O 0.51018 0.46584 0.54521 0.0
O174 O 0.53526 0.50463 0.49349 0.0
O175 O 0.47307 0.61709 0.55306 0.0
O176 O 0.50877 0.57898 0.50825 0.0
O177 O 0.58623 0.63775 0.56952 0.0
O178 O 0.5976 0.57281 0.56036 0.0
O179 O 0.53281 0.68916 0.61288 0.0
O180 O 0.50521 0.65303 0.66604 0.0
C181 C 0.42865 0.53454 0.60634 0.0
O182 O 0.53678 0.52453 0.61808 0.0
O183 O 0.56525 0.59418 0.64577 0.0
C184 C 0.57113 0.45207 0.50265 0.0
C185 C 0.6564 0.43154 0.48599 0.0
C186 C 0.65296 0.45762 0.52165 0.0
C187 C 0.61058 0.46783 0.52994 0.0
C188 C 0.57401 0.42485 0.46771 0.0
C189 C 0.61644 0.41453 0.45946 0.0
C190 C 0.52947 0.46784 0.50828 0.0
C191 C 0.48357 0.60553 0.51507 0.0
C192 C 0.61494 0.61453 0.56137 0.0
C193 C 0.47469 0.70926 0.65494 0.0
C194 C 0.39653 0.74156 0.66616 0.0
C195 C 0.41373 0.73491 0.62606 0.0
C196 C 0.45232 0.7186 0.62042 0.0
C197 C 0.45805 0.71686 0.69505 0.0
C198 C 0.41912 0.73271 0.70063 0.0
C199 C 0.51335 0.68939 0.64964 0.0
H200 H 0.68356 0.47107 0.54231 0.0
H201 H 0.60912 0.48916 0.55691 0.0
H202 H 0.5441 0.41277 0.44614 0.0
H203 H 0.61872 0.39451 0.4317 0.0
H204 H 0.39675 0.74173 0.59917 0.0
H205 H 0.46411 0.71277 0.58906 0.0
H206 H 0.47463 0.70979 0.72205 0.0
H207 H 0.40633 0.73779 0.7318 0.0
Dy208 Dy 1.0062 0.5566 1.00006 0.0
Dy209 Dy 0.99433 0.47361 0.05393 0.0
C210 C 0.96673 0.55405 0.09382 0.0
O211 O 0.08091 0.56513 0.02201 0.0
O212 O 0.05948 0.52537 0.07862 0.0
O213 O 0.01258 0.62315 0.99621 0.0
O214 O 0.01129 0.58256 0.94012 0.0
O215 O 0.04637 0.47028 1.00242 0.0
O216 O 0.01676 0.50427 0.95611 0.0
O217 O 0.92925 0.4549 1.01207 0.0
O218 O 0.92721 0.52195 1.00037 0.0
O219 O 0.98349 0.40594 0.05538 0.0
O220 O 0.99534 0.44653 0.11264 0.0
C221 C 0.09062 0.55523 0.05873 0.0
O222 O 0.99522 0.57701 0.06647 0.0
O223 O 0.95226 0.51192 0.08907 0.0
C224 C 0.9687 0.63175 0.93924 0.0
C225 C 0.89149 0.65091 0.90436 0.0
C226 C 0.88464 0.62903 0.94059 0.0
C227 C 0.9229 0.61929 0.95777 0.0
C228 C 0.97569 0.65388 0.90317 0.0
C229 C 0.93724 0.66338 0.88575 0.0
C230 C 0.00805 0.61905 0.95591 0.0
C231 C 0.04089 0.47843 0.96409 0.0
C232 C 0.90699 0.48038 0.99876 0.0
C233 C 0.03111 0.39168 0.10707 0.0
C234 C 0.10576 0.36238 0.13306 0.0
C235 C 0.11043 0.38313 0.09621 0.0
C236 C 0.07349 0.39788 0.0834 0.0
C237 C 0.02629 0.3705 0.14365 0.0
C238 C 0.0634 0.35601 0.15662 0.0
C239 C 0.99306 0.40907 0.09499 0.0
H240 H 0.84955 0.61913 0.95527 0.0
H241 H 0.91658 0.60161 0.98527 0.0
H242 H 0.01063 0.66327 0.88821 0.0
H243 H 0.94303 0.68024 0.85772 0.0
H244 H 0.14301 0.38857 0.07783 0.0
H245 H 0.07826 0.4146 0.05532 0.0
H246 H 0.9941 0.36571 0.16249 0.0
H247 H 0.05932 0.34022 0.18523 0.0
C248 C 0.40783 0.15178 0.38259 0.0
C249 C 0.43869 0.18717 0.40688 0.0
C250 C 0.37689 0.17927 0.46108 0.0
C251 C 0.34565 0.14475 0.43627 0.0
N252 N 0.32644 0.10426 0.37002 0.0
N253 N 0.44856 0.24122 0.46384 0.0
C254 C 0.35957 0.13308 0.39582 0.0
C255 C 0.42199 0.20292 0.44457 0.0
N256 N 0.42531 0.13449 0.3482 0.0
N257 N 0.36423 0.18848 0.50095 0.0
H258 H 0.48129 0.2599 0.45213 0.0
H259 H 0.43608 0.25647 0.48907 0.0
H260 H 0.33092 0.17266 0.51376 0.0
H261 H 0.38788 0.2098 0.52222 0.0
H262 H 0.40607 0.10593 0.3319 0.0
H263 H 0.46061 0.14669 0.33767 0.0
H264 H 0.33286 0.09769 0.33871 0.0
H265 H 0.29086 0.08977 0.37897 0.0
C266 C 0.23075 0.84089 0.8803 0.0
C267 C 0.18447 0.84586 0.87746 0.0
C268 C 0.19381 0.88121 0.94783 0.0
C269 C 0.243 0.88323 0.94722 0.0
N270 N 0.30983 0.86722 0.91207 0.0
N271 N 0.12223 0.87285 0.90743 0.0
C272 C 0.26181 0.86313 0.9135 0.0
C273 C 0.16559 0.86591 0.91123 0.0
N274 N 0.24463 0.8144 0.85145 0.0
N275 N 0.17429 0.89402 0.98346 0.0
H276 H 0.10043 0.86228 0.88116 0.0
H277 H 0.10936 0.89177 0.92908 0.0
H278 H 0.19426 0.90534 1.01073 0.0
H279 H 0.13761 0.88965 0.9872 0.0
H280 H 0.27611 0.80635 0.85393 0.0
H281 H 0.22224 0.79699 0.82715 0.0
H282 H 0.32665 0.85775 0.88592 0.0
H283 H 0.33376 0.88279 0.93601 0.0
C284 C 0.64184 0.53509 0.73054 0.0
C285 C 0.60849 0.50159 0.75088 0.0
C286 C 0.5428 0.50826 0.7085 0.0
C287 C 0.57679 0.53813 0.68477 0.0
N288 N 0.65945 0.57822 0.67115 0.0
N289 N 0.52817 0.45199 0.75546 0.0
C290 C 0.62655 0.55139 0.69546 0.0
C291 C 0.55918 0.48714 0.73894 0.0
N292 N 0.68785 0.55201 0.74543 0.0
N293 N 0.4946 0.5013 0.70309 0.0
H294 H 0.53841 0.4356 0.77797 0.0
H295 H 0.49334 0.43682 0.74436 0.0
H296 H 0.48118 0.51712 0.68208 0.0
H297 H 0.46809 0.48332 0.72229 0.0
H298 H 0.71257 0.57956 0.73521 0.0
H299 H 0.70025 0.54031 0.77049 0.0
H300 H 0.69655 0.58506 0.6741 0.0
H301 H 0.64968 0.5917 0.64608 0.0
C302 C 0.93306 0.64043 0.16227 0.0
C303 C 0.93423 0.62687 0.20283 0.0
C304 C 0.95923 0.56635 0.17215 0.0
C305 C 0.95258 0.57713 0.13149 0.0
N306 N 0.9214 0.61906 0.0887 0.0
N307 N 0.93542 0.56936 0.24429 0.0
C308 C 0.93596 0.61259 0.12682 0.0
C309 C 0.94354 0.58762 0.2072 0.0
N310 N 0.9316 0.68067 0.15731 0.0
N311 N 0.9828 0.53749 0.17785 0.0
H312 H 0.9212 0.5822 0.27016 0.0
H313 H 0.93739 0.53887 0.24779 0.0
H314 H 0.99722 0.52275 0.15347 0.0
H315 H 0.99271 0.53186 0.20711 0.0
H316 H 0.93542 0.69348 0.1285 0.0
H317 H 0.93202 0.70294 0.18221 0.0
H318 H 0.90484 0.64207 0.08423 0.0
H319 H 0.92084 0.59834 0.06242 0.0
C320 C 0.38446 0.14776 0.19606 0.0
C321 C 0.41189 0.18497 0.22005 0.0
C322 C 0.47738 0.15339 0.22283 0.0
C323 C 0.45272 0.11932 0.19371 0.0
N324 N 0.38917 0.095 0.14175 0.0
N325 N 0.49096 0.22782 0.24515 0.0
C326 C 0.40797 0.11943 0.17719 0.0
C327 C 0.46031 0.18922 0.23032 0.0
N328 N 0.33577 0.13846 0.19192 0.0
N329 N 0.51589 0.15127 0.24462 0.0
H330 H 0.48085 0.25549 0.24871 0.0
H331 H 0.52765 0.23307 0.24963 0.0
H332 H 0.52772 0.12452 0.24233 0.0
H333 H 0.53223 0.174 0.26855 0.0
H334 H 0.31422 0.10967 0.17736 0.0
H335 H 0.31633 0.15682 0.20712 0.0
H336 H 0.35837 0.09679 0.12738 0.0
H337 H 0.4078 0.07808 0.1234 0.0
C338 C 0.01243 0.90344 0.69218 0.0
C339 C 0.04952 0.88415 0.68832 0.0
C340 C 0.06842 0.90942 0.61869 0.0
C341 C 0.03608 0.93364 0.62506 0.0
N342 N 0.98187 0.95852 0.6705 0.0
N343 N 0.11769 0.87367 0.65031 0.0
C344 C 0.00898 0.93175 0.6624 0.0
C345 C 0.07866 0.88816 0.6521 0.0
N346 N 0.97971 0.89385 0.72378 0.0
N347 N 0.08829 0.90561 0.58035 0.0
H348 H 0.12685 0.85817 0.67409 0.0
H349 H 0.14341 0.8803 0.62679 0.0
H350 H 0.0814 0.92029 0.55488 0.0
H351 H 0.10784 0.88456 0.57273 0.0
H352 H 0.94891 0.90337 0.72571 0.0
H353 H 0.98076 0.87277 0.74584 0.0
H354 H 0.96555 0.96172 0.6991 0.0
H355 H 0.97913 0.98051 0.65009 0.0
C356 C 0.81151 0.44153 0.91338 0.0
C357 C 0.76828 0.43341 0.9369 0.0
C358 C 0.81633 0.44823 1.00135 0.0
C359 C 0.85927 0.46194 0.9777 0.0
N360 N 0.89744 0.47724 0.91106 0.0
N361 N 0.72966 0.43416 1.00383 0.0
C362 C 0.85674 0.46023 0.93368 0.0
C363 C 0.77061 0.43764 0.98112 0.0
N364 N 0.80953 0.42961 0.87172 0.0
N365 N 0.81923 0.44567 0.04319 0.0
H366 H 0.69579 0.42747 0.99037 0.0
H367 H 0.72968 0.44147 0.03582 0.0
H368 H 0.85198 0.45462 0.05908 0.0
H369 H 0.78956 0.43165 0.06153 0.0
H370 H 0.83994 0.43069 0.85377 0.0
H371 H 0.77729 0.41414 0.85592 0.0
H372 H 0.89685 0.4816 0.8795 0.0
H373 H 0.93155 0.49011 0.92435 0.0
C374 C 0.71599 0.69336 0.50717 0.0
C375 C 0.74183 0.66617 0.48981 0.0
C376 C 0.69541 0.60956 0.53316 0.0
C377 C 0.66535 0.63486 0.54583 0.0
N378 N 0.6671 0.70748 0.5645 0.0
N379 N 0.75822 0.59887 0.48694 0.0
C380 C 0.68143 0.67888 0.53871 0.0
C381 C 0.73225 0.62438 0.50311 0.0
N382 N 0.72264 0.73233 0.49219 0.0
N383 N 0.69195 0.57373 0.55299 0.0
H384 H 0.78739 0.60944 0.46698 0.0
H385 H 0.74967 0.56659 0.49167 0.0
H386 H 0.67068 0.56582 0.57931 0.0
H387 H 0.71472 0.5552 0.54756 0.0
H388 H 0.70078 0.75122 0.50058 0.0
H389 H 0.7468 0.74399 0.4684 0.0
H390 H 0.68057 0.74045 0.56261 0.0
H391 H 0.64804 0.69887 0.59184 0.0
C392 C 0.2184 0.36377 0.19102 0.0
C393 C 0.22084 0.32211 0.17912 0.0
C394 C 0.14658 0.30615 0.13816 0.0
C395 C 0.14603 0.34868 0.14794 0.0
N396 N 0.18503 0.42015 0.17809 0.0
N397 N 0.19215 0.25591 0.13639 0.0
C398 C 0.18318 0.37818 0.17258 0.0
C399 C 0.18616 0.29384 0.15137 0.0
N400 N 0.24801 0.38876 0.2217 0.0
N401 N 0.10882 0.27736 0.1168 0.0
H402 H 0.22087 0.24608 0.14514 0.0
H403 H 0.17115 0.2358 0.11279 0.0
H404 H 0.08025 0.28566 0.10523 0.0
H405 H 0.10411 0.24472 0.11282 0.0
H406 H 0.24428 0.41728 0.23512 0.0
H407 H 0.27383 0.37932 0.23657 0.0
H408 H 0.2143 0.44423 0.1914 0.0
H409 H 0.15891 0.43168 0.1665 0.0
C410 C 0.62421 0.20913 0.056 0.0
C411 C 0.6091 0.20996 1.01468 0.0
C412 C 0.55123 0.13789 0.01894 0.0
C413 C 0.56331 0.13875 0.06143 0.0
N414 N 0.60287 0.18042 0.12291 0.0
N415 N 0.54964 0.17929 0.96075 0.0
C416 C 0.59731 0.17595 0.08071 0.0
C417 C 0.57005 0.17554 0.99729 0.0
N418 N 0.66564 0.23868 0.07117 0.0
N419 N 0.52379 0.10066 0.99845 0.0
H420 H 0.56107 0.20685 0.94468 0.0
H421 H 0.51813 0.15695 0.9488 0.0
H422 H 0.51036 0.07202 1.01259 0.0
H423 H 0.51833 0.0972 0.96641 0.0
H424 H 0.681 0.23665 0.09941 0.0
H425 H 0.68739 0.26275 0.05386 0.0
H426 H 0.62363 0.20862 0.13894 0.0
H427 H 0.58273 0.15772 0.14235 0.0
C428 C 0.97801 0.83047 0.43419 0.0
C429 C 0.9569 0.82919 0.39488 0.0
C430 C 0.97283 0.90711 0.40445 0.0
C431 C 0.98677 0.90692 0.44638 0.0
N432 N 0.99364 0.86576 0.50322 0.0
N433 N 0.93104 0.8657 0.34305 0.0
C434 C 0.98748 0.86796 0.46171 0.0
C435 C 0.95382 0.86746 0.3799 0.0
N436 N 0.98894 0.79552 0.44525 0.0
N437 N 0.97896 0.94514 0.38775 0.0
H438 H 0.9183 0.83754 0.32385 0.0
H439 H 0.92242 0.89146 0.33272 0.0
H440 H 0.99339 0.97463 0.40453 0.0
H441 H 0.97384 0.94761 0.35636 0.0
H442 H 0.00864 0.79583 0.47181 0.0
H443 H 0.98276 0.76767 0.42554 0.0
H444 H 0.98964 0.83722 0.51662 0.0
H445 H 0.99731 0.89149 0.52512 0.0
C446 C 0.32056 0.81102 0.70544 0.0
C447 C 0.27433 0.78644 0.68973 0.0
C448 C 0.30782 0.73118 0.65997 0.0
C449 C 0.35462 0.75765 0.67237 0.0
N450 N 0.40689 0.82679 0.6984 0.0
N451 N 0.22591 0.72761 0.64452 0.0
C452 C 0.36141 0.7989 0.69241 0.0
C453 C 0.2685 0.74778 0.66474 0.0
N454 N 0.32533 0.84435 0.7348 0.0
N455 N 0.3005 0.68965 0.64524 0.0
H456 H 0.19672 0.73945 0.64641 0.0
H457 H 0.22123 0.70164 0.62266 0.0
H458 H 0.32821 0.67603 0.64174 0.0
H459 H 0.26637 0.66764 0.64002 0.0
H460 H 0.35756 0.86027 0.75038 0.0
H461 H 0.29627 0.85332 0.74694 0.0
H462 H 0.4137 0.85876 0.70903 0.0
H463 H 0.43777 0.81917 0.68889 0.0
C464 C 0.69123 0.871 0.74022 0.0
C465 C 0.71659 0.85232 0.76567 0.0
C466 C 0.79344 0.89439 0.73642 0.0
C467 C 0.76752 0.9073 0.70627 0.0
N468 N 0.69253 0.9099 0.67922 0.0
N469 N 0.79121 0.8471 0.79079 0.0
C470 C 0.71659 0.89682 0.70856 0.0
C471 C 0.76767 0.86486 0.76503 0.0
N472 N 0.64291 0.86351 0.74618 0.0
N473 N 0.84265 0.91039 0.73744 0.0
H474 H 0.77349 0.82756 0.81386 0.0
H475 H 0.82776 0.85039 0.78865 0.0
H476 H 0.86245 0.93165 0.71649 0.0
H477 H 0.86382 0.90536 0.76069 0.0
H478 H 0.62262 0.87872 0.73113 0.0
H479 H 0.62367 0.84439 0.76897 0.0
H480 H 0.65523 0.89953 0.67599 0.0
H481 H 0.71021 0.93003 0.65658 0.0
C482 C 0.86332 0.25672 0.27608 0.0
C483 C 0.84799 0.27812 0.31088 0.0
C484 C 0.76396 0.24561 0.28899 0.0
C485 C 0.77884 0.21836 0.25935 0.0
N486 N 0.84179 0.19772 0.22279 0.0
N487 N 0.78348 0.29155 0.35252 0.0
C488 C 0.8284 0.22432 0.25182 0.0
C489 C 0.79828 0.27304 0.31744 0.0
N490 N 0.91122 0.26767 0.26638 0.0
N491 N 0.71681 0.24451 0.29034 0.0
H492 H 0.80709 0.31139 0.37475 0.0
H493 H 0.74753 0.28473 0.3614 0.0
H494 H 0.69073 0.22409 0.27021 0.0
H495 H 0.7045 0.26646 0.30853 0.0
H496 H 0.92461 0.25591 0.23944 0.0
H497 H 0.93735 0.29163 0.28364 0.0
H498 H 0.87696 0.19687 0.21915 0.0
H499 H 0.81699 0.17496 0.20331 0.0
C500 C 0.46957 0.68722 0.44198 0.0
C501 C 0.44316 0.65985 0.40861 0.0
C502 C 0.4385 0.59721 0.44733 0.0
C503 C 0.46862 0.62435 0.47892 0.0
N504 N 0.51966 0.69477 0.50283 0.0
N505 N 0.40614 0.5884 0.3774 0.0
C506 C 0.48573 0.66931 0.47546 0.0
C507 C 0.42889 0.61471 0.41065 0.0
N508 N 0.47931 0.73044 0.44173 0.0
N509 N 0.41715 0.5549 0.45329 0.0
H510 H 0.39576 0.59967 0.35109 0.0
H511 H 0.40017 0.55554 0.37466 0.0
H512 H 0.42269 0.54112 0.4799 0.0
H513 H 0.3907 0.53421 0.4338 0.0
H514 H 0.49324 0.75183 0.46724 0.0
H515 H 0.47031 0.74484 0.41691 0.0
H516 H 0.53753 0.72697 0.49948 0.0
H517 H 0.53341 0.68295 0.52698 0.0
C518 C 0.04599 0.41559 0.86039 0.0
C519 C 0.09545 0.41824 0.85799 0.0
C520 C 0.11009 0.46245 0.92461 0.0
C521 C 0.0599 0.45643 0.92862 0.0
N522 N 0.97898 0.41917 0.90463 0.0
N523 N 0.17313 0.43796 0.8914 0.0
C524 C 0.02755 0.43073 0.89768 0.0
C525 C 0.12717 0.44003 0.89109 0.0
N526 N 0.01686 0.40017 0.82643 0.0
N527 N 0.14172 0.49081 0.95187 0.0
H528 H 0.18684 0.42167 0.86774 0.0
H529 H 0.19626 0.44913 0.91676 0.0
H530 H 0.13074 0.50782 0.97668 0.0
H531 H 0.17895 0.50018 0.94791 0.0
H532 H 0.98193 0.40178 0.82489 0.0
H533 H 0.02907 0.38968 0.7982 0.0
H534 H 0.95376 0.39703 0.8851 0.0
H535 H 0.96408 0.4282 0.93215 0.0
C536 C 0.63032 0.95496 0.99389 0.0
C537 C 0.59976 0.9177 0.97193 0.0
C538 C 0.53239 0.92111 1.01747 0.0
C539 C 0.56163 0.96067 0.03668 0.0
N540 N 0.63588 0.01951 0.03754 0.0
N541 N 0.51937 0.87022 0.9572 0.0
C542 C 0.60998 0.97879 0.0234 0.0
C543 C 0.55012 0.90208 0.98219 0.0
N544 N 0.67904 0.96677 0.98777 0.0
N545 N 0.48829 0.90082 0.03377 0.0
H546 H 0.53061 0.85612 0.93044 0.0
H547 H 0.48205 0.86076 0.96061 0.0
H548 H 0.47411 0.91329 0.05988 0.0
H549 H 0.4678 0.86974 0.02388 0.0
H550 H 0.70351 0.99085 1.0062 0.0
H551 H 0.69545 0.94998 0.96676 0.0
H552 H 0.6693 0.03602 0.02546 0.0
H553 H 0.62217 0.03842 0.05855 0.0
C554 C 0.04624 0.19164 0.45664 0.0
C555 C 1.00174 0.18834 0.43786 0.0
C556 C 0.97869 0.11005 0.43537 0.0
C557 C 0.01923 0.11361 0.46026 0.0
N558 N 0.09204 0.15795 0.49548 0.0
N559 N 0.92556 0.14502 0.408 0.0
C560 C 0.05374 0.15435 0.47038 0.0
C561 C 0.96806 0.14764 0.42655 0.0
N562 N 0.08121 0.23051 0.4618 0.0
N563 N 0.95105 0.07051 0.41951 0.0
H564 H 0.91794 0.17164 0.39847 0.0
H565 H 0.89692 0.11683 0.40363 0.0
H566 H 0.95895 0.04266 0.42478 0.0
H567 H 0.92333 0.06547 0.39817 0.0
H568 H 0.11647 0.23431 0.47051 0.0
H569 H 0.0762 0.25896 0.45446 0.0
H570 H 0.11386 0.18688 0.50937 0.0
H571 H 0.10116 0.1319 0.50419 0.0
C572 C 0.19208 0.64816 0.10936 0.0
C573 C 0.21301 0.62589 0.13509 0.0
C574 C 0.16328 0.55806 0.10022 0.0
C575 C 0.13622 0.58016 0.08064 0.0
N576 N 0.1206 0.64703 0.07301 0.0
N577 N 0.21491 0.55862 0.15798 0.0
C578 C 0.14968 0.62548 0.08651 0.0
C579 C 0.19807 0.58049 0.13106 0.0
N580 N 0.21328 0.69096 0.10596 0.0
N581 N 0.15626 0.51579 0.08884 0.0
H582 H 0.2397 0.57368 0.18145 0.0
H583 H 0.20117 0.52559 0.15931 0.0
H584 H 0.13223 0.49886 0.0654 0.0
H585 H 0.17773 0.49887 0.09942 0.0
H586 H 0.20195 0.70785 0.0846 0.0
H587 H 0.24549 0.70844 0.12092 0.0
H588 H 0.12652 0.67951 0.0808 0.0
H589 H 0.08798 0.63218 0.05776 0.0
C590 C 0.30833 0.50745 0.66356 0.0
C591 C 0.29884 0.46316 0.66822 0.0
C592 C 0.37466 0.4656 0.63232 0.0
C593 C 0.3823 0.509 0.62472 0.0
N594 N 0.35152 0.56875 0.62589 0.0
N595 N 0.31697 0.39797 0.64759 0.0
C596 C 0.3476 0.52918 0.63819 0.0
C597 C 0.33024 0.44162 0.64979 0.0
N598 N 0.28135 0.52931 0.6849 0.0
N599 N 0.41069 0.44771 0.62512 0.0
H600 H 0.28417 0.37901 0.65888 0.0
H601 H 0.33616 0.38045 0.63066 0.0
H602 H 0.44431 0.46411 0.61337 0.0
H603 H 0.4089 0.4179 0.63471 0.0
H604 H 0.28984 0.56245 0.68631 0.0
H605 H 0.25293 0.51483 0.70435 0.0
H606 H 0.32493 0.58341 0.63126 0.0
H607 H 0.37926 0.58522 0.60673 0.0
C608 C 0.81182 0.71265 0.86774 0.0
C609 C 0.77094 0.6786 0.85298 0.0
C610 C 0.81207 0.62686 0.86678 0.0
C611 C 0.85042 0.66056 0.8859 0.0
N612 N 0.88308 0.73472 0.91117 0.0
N613 N 0.72858 0.60284 0.84479 0.0
C614 C 0.84928 0.70328 0.88824 0.0
C615 C 0.77009 0.63551 0.85408 0.0
N616 N 0.81596 0.75387 0.86055 0.0
N617 N 0.81631 0.58682 0.85976 0.0
H618 H 0.69677 0.6078 0.83605 0.0
H619 H 0.72434 0.57105 0.84943 0.0
H620 H 0.84664 0.5793 0.86841 0.0
H621 H 0.79175 0.56209 0.84206 0.0
H622 H 0.84724 0.77941 0.86673 0.0
H623 H 0.79004 0.7621 0.84453 0.0
H624 H 0.88088 0.76545 0.91772 0.0
H625 H 0.91106 0.72917 0.92684 0.0
C626 C 0.465 0.83822 0.18722 0.0
C627 C 0.43738 0.83267 0.22443 0.0
C628 C 0.43383 0.90622 0.22403 0.0
C629 C 0.46214 0.91195 0.18719 0.0
N630 N 0.51278 0.88667 0.13849 0.0
N631 N 0.402 0.86303 0.28208 0.0
C632 C 0.47993 0.8788 0.1701 0.0
C633 C 0.42414 0.86737 0.24417 0.0
N634 N 0.47642 0.80428 0.16783 0.0
N635 N 0.41417 0.93713 0.23857 0.0
H636 H 0.39313 0.83474 0.29697 0.0
H637 H 0.39568 0.88818 0.30032 0.0
H638 H 0.42023 0.96572 0.22459 0.0
H639 H 0.38903 0.9334 0.26249 0.0
H640 H 0.49027 0.80406 0.13783 0.0
H641 H 0.47001 0.77528 0.18113 0.0
H642 H 0.53135 0.86577 0.12754 0.0
H643 H 0.52463 0.91582 0.12524 0.0
C644 C 0.03312 0.18416 0.64548 0.0
C645 C 0.06774 0.19274 0.67775 0.0
C646 C 0.09181 0.13058 0.6505 0.0
C647 C 0.0536 0.11946 0.62111 0.0
N648 N 0.98484 0.13343 0.59277 0.0
N649 N 0.12701 0.17214 0.71404 0.0
C650 C 0.02335 0.1456 0.61929 0.0
C651 C 0.09667 0.16566 0.68086 0.0
N652 N 0.01101 0.2139 0.63874 0.0
N653 N 0.12334 0.10749 0.6495 0.0
H654 H 0.13173 0.19749 0.73667 0.0
H655 H 0.14498 0.15085 0.72091 0.0
H656 H 0.11934 0.08022 0.62942 0.0
H657 H 0.15513 0.11675 0.66667 0.0
H658 H 0.98944 0.21196 0.613 0.0
H659 H 0.0179 0.24285 0.65678 0.0
H660 H 0.95801 0.14805 0.59365 0.0
H661 H 0.97768 0.10677 0.57154 0.0
C662 C 0.7839 0.45083 0.44455 0.0
C663 C 0.79043 0.41074 0.44938 0.0
C664 C 0.7119 0.38673 0.4841 0.0
C665 C 0.70312 0.42479 0.47464 0.0
N666 N 0.72774 0.49098 0.44127 0.0
N667 N 0.75835 0.33812 0.46881 0.0
C668 C 0.73838 0.45639 0.45373 0.0
C669 C 0.75403 0.37809 0.46821 0.0
N670 N 0.82173 0.48398 0.43222 0.0
N671 N 0.68018 0.35908 0.50858 0.0
H672 H 0.78846 0.33033 0.45743 0.0
H673 H 0.73056 0.31175 0.47761 0.0
H674 H 0.64851 0.36407 0.52 0.0
H675 H 0.68705 0.33311 0.52029 0.0
H676 H 0.82074 0.51521 0.43222 0.0
H677 H 0.85581 0.48115 0.42582 0.0
H678 H 0.7498 0.51245 0.42169 0.0
H679 H 0.69507 0.49664 0.44794 0.0
loop_
_geom_bond_atom_site_label_1
_geom_bond_atom_site_label_2
_geom_bond_distance
_geom_bond_site_symmetry_2
_ccdc_geom_bond_type
O0 Cd1 2.300 . S
O0 C7 1.275 . S
Cd1 O0 2.300 . S
Cd1 O9 2.381 . S
Cd1 O10 2.378 . S
O2 Cd3 2.385 . S
O2 C7 1.255 . S
Cd3 O2 2.385 . S
Cd3 O4 2.317 . S
O4 Cd3 2.317 . S
O4 C5 1.232 . S
C5 O4 1.232 . S
C5 O6 1.218 . S
O6 C5 1.218 . S
C7 O0 1.275 . S
C7 O2 1.255 . S
C8 O9 1.258 . S
C8 O10 1.256 . S
O9 Cd1 2.381 . S
O9 C8 1.258 . S
O10 Cd1 2.378 . S
O10 C8 1.256 . S
O11 Cd12 2.300 . S
O11 C18 1.275 . S
Cd12 O11 2.300 . S
Cd12 O20 2.381 . S
Cd12 O21 2.378 . S
O13 Cd14 2.385 . S
O13 C18 1.255 . S
Cd14 O13 2.385 . S
Cd14 O15 2.317 . S
O15 Cd14 2.317 . S
O15 C16 1.232 . S
C16 O15 1.232 . S
C16 O17 1.218 . S
O17 C16 1.218 . S
C18 O11 1.275 . S
C18 O13 1.255 . S
C19 O20 1.258 . S
C19 O21 1.256 . S
O20 Cd12 2.381 . S
O20 C19 1.258 . S
O21 Cd12 2.378 . S
O21 C19 1.256 . S
O22 Cd23 2.300 . S
O22 C29 1.275 . S
Cd23 O22 2.300 . S
Cd23 O31 2.381 . S
Cd23 O32 2.378 . S
O24 Cd25 2.385 . S
O24 C29 1.255 . S
Cd25 O24 2.385 . S
Cd25 O26 2.317 . S
O26 Cd25 2.317 . S
O26 C27 1.232 . S
C27 O26 1.232 . S
C27 O28 1.218 . S
O28 C27 1.218 . S
C29 O22 1.275 . S
C29 O24 1.255 . S
C30 O31 1.258 . S
C30 O32 1.256 . S
O31 Cd23 2.381 . S
O31 C30 1.258 . S
O32 Cd23 2.378 . S
O32 C30 1.256 . S
O33 Cd34 2.300 . S
O33 C40 1.275 . S
Cd34 O33 2.300 . S
Cd34 O42 2.381 . S
Cd34 O43 2.378 . S
O35 Cd36 2.385 . S
O35 C40 1.255 . S
Cd36 O35 2.385 . S
Cd36 O37 2.317 . S
O37 Cd36 2.317 . S
O37 C38 1.232 . S
C38 O37 1.232 . S
C38 O39 1.218 . S
O39 C38 1.218 . S
C40 O33 1.275 . S
C40 O35 1.255 . S
C41 O42 1.258 . S
C41 O43 1.256 . S
O42 Cd34 2.381 . S
O42 C41 1.258 . S
O43 Cd34 2.378 . S
O43 C41 1.256 . S
O44 Cd45 2.300 . S
O44 C51 1.275 . S
Cd45 O44 2.300 . S
Cd45 O53 2.381 . S
Cd45 O54 2.378 . S
O46 Cd47 2.385 . S
O46 C51 1.255 . S
Cd47 O46 2.385 . S
Cd47 O48 2.317 . S
O48 Cd47 2.317 . S
O48 C49 1.232 . S
C49 O48 1.232 . S
C49 O50 1.218 . S
O50 C49 1.218 . S
C51 O44 1.275 . S
C51 O46 1.255 . S
C52 O53 1.258 . S
C52 O54 1.256 . S
O53 Cd45 2.381 . S
O53 C52 1.258 . S
O54 Cd45 2.378 . S
O54 C52 1.256 . S
O55 Cd56 2.300 . S
O55 C62 1.275 . S
Cd56 O55 2.300 . S
Cd56 O64 2.381 . S
Cd56 O65 2.378 1_655 S
O57 Cd58 2.385 . S
O57 C62 1.255 . S
Cd58 O57 2.385 . S
Cd58 O59 2.317 . S
O59 Cd58 2.317 . S
O59 C60 1.232 . S
C60 O59 1.232 . S
C60 O61 1.218 . S
O61 C60 1.218 . S
C62 O55 1.275 . S
C62 O57 1.255 . S
C63 O64 1.258 . S
C63 O65 1.256 1_655 S
O64 Cd56 2.381 . S
O64 C63 1.258 . S
O65 Cd56 2.378 1_455 S
O65 C63 1.256 1_455 S
O66 Cd67 2.300 . S
O66 C73 1.275 . S
Cd67 O66 2.300 . S
Cd67 O75 2.381 . S
Cd67 O76 2.378 . S
O68 Cd69 2.385 . S
O68 C73 1.255 . S
Cd69 O68 2.385 . S
Cd69 O70 2.317 . S
O70 Cd69 2.317 . S
O70 C71 1.232 . S
C71 O70 1.232 . S
C71 O72 1.218 . S
O72 C71 1.218 . S
C73 O66 1.275 . S
C73 O68 1.255 . S
C74 O75 1.258 . S
C74 O76 1.256 . S
O75 Cd67 2.381 . S
O75 C74 1.258 . S
O76 Cd67 2.378 . S
O76 C74 1.256 . S
O77 Cd78 2.300 . S
O77 C84 1.275 . S
Cd78 O77 2.300 . S
Cd78 O86 2.381 . S
Cd78 O87 2.378 . S
O79 Cd80 2.385 . S
O79 C84 1.255 . S
Cd80 O79 2.385 . S
Cd80 O81 2.317 . S
O81 Cd80 2.317 . S
O81 C82 1.232 . S
C82 O81 1.232 . S
C82 O83 1.218 . S
O83 C82 1.218 . S
C84 O77 1.275 . S
C84 O79 1.255 . S
C85 O86 1.258 . S
C85 O87 1.256 . S
O86 Cd78 2.381 . S
O86 C85 1.258 . S
O87 Cd78 2.378 . S
O87 C85 1.256 . S
Dy88 O91 2.307 1_545 S
Dy88 O93 2.395 . S
Dy88 O94 2.379 . S
Dy88 O96 2.339 1_545 S
Dy88 O98 2.298 . S
Dy88 O102 2.275 . S
Dy88 C110 2.738 . S
Dy89 O92 2.298 1_645 S
Dy89 O95 2.275 1_545 S
Dy89 O97 2.307 . S
Dy89 O99 2.395 1_545 S
Dy89 O100 2.379 1_545 S
Dy89 O103 2.339 . S
Dy89 C119 2.738 1_545 S
C90 O102 1.254 . S
C90 O103 1.257 1_455 S
O91 Dy88 2.307 1_565 S
O91 C101 1.266 . S
O92 Dy89 2.298 1_465 S
O92 C101 1.236 . S
O93 Dy88 2.395 . S
O93 C110 1.255 . S
O94 Dy88 2.379 . S
O94 C110 1.249 . S
O95 Dy89 2.275 1_565 S
O95 C111 1.254 . S
O96 Dy88 2.339 1_565 S
O96 C111 1.257 1_455 S
O97 Dy89 2.307 . S
O97 C112 1.266 . S
O98 Dy88 2.298 . S
O98 C112 1.236 1_455 S
O99 Dy89 2.395 1_565 S
O99 C119 1.255 . S
O100 Dy89 2.379 1_565 S
O100 C119 1.249 . S
C101 O91 1.266 . S
C101 O92 1.236 . S
O102 Dy88 2.275 . S
O102 C90 1.254 . S
O103 Dy89 2.339 . S
O103 C90 1.257 1_655 S
C104 C107 1.344 . S
C104 C108 1.328 . S
C104 C110 1.516 . S
C105 C106 1.304 . S
C105 C109 1.323 . S
C106 C105 1.304 . S
C106 C107 1.371 . S
C106 H120 0.930 . S
C107 C104 1.344 . S
C107 C106 1.371 . S
C107 H121 0.931 . S
C108 C104 1.328 . S
C108 C109 1.433 . S
C108 H122 0.931 . S
C109 C105 1.323 . S
C109 C108 1.433 . S
C109 H123 0.933 . S
C110 Dy88 2.738 . S
C110 O93 1.255 . S
C110 O94 1.249 . S
C110 C104 1.516 . S
C111 O95 1.254 . S
C111 O96 1.257 1_655 S
C112 O97 1.266 . S
C112 O98 1.236 1_655 S
C113 C116 1.344 . S
C113 C117 1.328 . S
C113 C119 1.516 . S
C114 C115 1.304 . S
C114 C118 1.323 . S
C115 C114 1.304 . S
C115 C116 1.371 . S
C115 H124 0.930 . S
C116 C113 1.344 . S
C116 C115 1.371 . S
C116 H125 0.931 . S
C117 C113 1.328 . S
C117 C118 1.433 . S
C117 H126 0.931 . S
C118 C114 1.323 . S
C118 C117 1.433 . S
C118 H127 0.933 . S
C119 Dy89 2.738 1_565 S
C119 O99 1.255 . S
C119 O100 1.249 . S
C119 C113 1.516 . S
H120 C106 0.930 . S
H121 C107 0.931 . S
H122 C108 0.931 . S
H123 C109 0.933 . S
H124 C115 0.930 . S
H125 C116 0.931 . S
H126 C117 0.931 . S
H127 C118 0.933 . S
Dy128 O131 2.307 . S
Dy128 O133 2.395 1_545 S
Dy128 O134 2.379 1_554 S
Dy128 O136 2.339 . S
Dy128 O138 2.298 1_545 S
Dy128 O142 2.275 1_545 S
Dy128 C150 2.738 1_544 S
Dy129 O132 2.298 . S
Dy129 O135 2.275 . S
Dy129 O137 2.307 1_545 S
Dy129 O139 2.395 . S
Dy129 O140 2.379 . S
Dy129 O143 2.339 1_545 S
Dy129 C159 2.738 . S
C130 O142 1.254 . S
C130 O143 1.257 . S
O131 Dy128 2.307 . S
O131 C141 1.266 . S
O132 Dy129 2.298 . S
O132 C141 1.236 . S
O133 Dy128 2.395 1_565 S
O133 C150 1.255 1_554 S
O134 Dy128 2.379 1_556 S
O134 C150 1.249 1_545 S
O135 Dy129 2.275 . S
O135 C151 1.254 . S
O136 Dy128 2.339 . S
O136 C151 1.257 . S
O137 Dy129 2.307 1_565 S
O137 C152 1.266 . S
O138 Dy128 2.298 1_565 S
O138 C152 1.236 . S
O139 Dy129 2.395 . S
O139 C159 1.255 . S
O140 Dy129 2.379 . S
O140 C159 1.249 . S
C141 O131 1.266 . S
C141 O132 1.236 . S
O142 Dy128 2.275 1_565 S
O142 C130 1.254 . S
O143 Dy129 2.339 1_565 S
O143 C130 1.257 . S
C144 C147 1.344 . S
C144 C148 1.328 . S
C144 C150 1.516 . S
C145 C146 1.304 . S
C145 C149 1.323 . S
C146 C145 1.304 . S
C146 C147 1.371 . S
C146 H160 0.930 . S
C147 C144 1.344 . S
C147 C146 1.371 . S
C147 H161 0.931 . S
C148 C144 1.328 . S
C148 C149 1.433 . S
C148 H162 0.931 . S
C149 C145 1.323 . S
C149 C148 1.433 . S
C149 H163 0.933 . S
C150 Dy128 2.738 1_566 S
C150 O133 1.255 1_556 S
C150 O134 1.249 1_565 S
C150 C144 1.516 . S
C151 O135 1.254 . S
C151 O136 1.257 . S
C152 O137 1.266 . S
C152 O138 1.236 . S
C153 C156 1.344 . S
C153 C157 1.328 . S
C153 C159 1.516 . S
C154 C155 1.304 . S
C154 C158 1.323 . S
C155 C154 1.304 . S
C155 C156 1.371 . S
C155 H164 0.930 . S
C156 C153 1.344 . S
C156 C155 1.371 . S
C156 H165 0.931 . S
C157 C153 1.328 . S
C157 C158 1.433 . S
C157 H166 0.931 . S
C158 C154 1.323 . S
C158 C157 1.433 . S
C158 H167 0.933 . S
C159 Dy129 2.738 . S
C159 O139 1.255 . S
C159 O140 1.249 . S
C159 C153 1.516 . S
H160 C146 0.930 . S
H161 C147 0.931 . S
H162 C148 0.931 . S
H163 C149 0.933 . S
H164 C155 0.930 . S
H165 C156 0.931 . S
H166 C157 0.931 . S
H167 C158 0.933 . S
Dy168 O171 2.307 . S
Dy168 O173 2.395 . S
Dy168 O174 2.379 . S
Dy168 O176 2.339 . S
Dy168 O178 2.298 . S
Dy168 O182 2.275 . S
Dy168 C190 2.738 . S
Dy169 O172 2.298 . S
Dy169 O175 2.275 . S
Dy169 O177 2.307 . S
Dy169 O179 2.395 . S
Dy169 O180 2.379 . S
Dy169 O183 2.339 . S
Dy169 C199 2.738 . S
C170 O182 1.254 . S
C170 O183 1.257 . S
O171 Dy168 2.307 . S
O171 C181 1.266 . S
O172 Dy169 2.298 . S
O172 C181 1.236 . S
O173 Dy168 2.395 . S
O173 C190 1.255 . S
O174 Dy168 2.379 . S
O174 C190 1.249 . S
O175 Dy169 2.275 . S
O175 C191 1.254 . S
O176 Dy168 2.339 . S
O176 C191 1.257 . S
O177 Dy169 2.307 . S
O177 C192 1.266 . S
O178 Dy168 2.298 . S
O178 C192 1.236 . S
O179 Dy169 2.395 . S
O179 C199 1.255 . S
O180 Dy169 2.379 . S
O180 C199 1.249 . S
C181 O171 1.266 . S
C181 O172 1.236 . S
O182 Dy168 2.275 . S
O182 C170 1.254 . S
O183 Dy169 2.339 . S
O183 C170 1.257 . S
C184 C187 1.344 . S
C184 C188 1.328 . S
C184 C190 1.516 . S
C185 C186 1.304 . S
C185 C189 1.323 . S
C186 C185 1.304 . S
C186 C187 1.371 . S
C186 H200 0.930 . S
C187 C184 1.344 . S
C187 C186 1.371 . S
C187 H201 0.931 . S
C188 C184 1.328 . S
C188 C189 1.433 . S
C188 H202 0.931 . S
C189 C185 1.323 . S
C189 C188 1.433 . S
C189 H203 0.933 . S
C190 Dy168 2.738 . S
C190 O173 1.255 . S
C190 O174 1.249 . S
C190 C184 1.516 . S
C191 O175 1.254 . S
C191 O176 1.257 . S
C192 O177 1.266 . S
C192 O178 1.236 . S
C193 C196 1.344 . S
C193 C197 1.328 . S
C193 C199 1.516 . S
C194 C195 1.304 . S
C194 C198 1.323 . S
C195 C194 1.304 . S
C195 C196 1.371 . S
C195 H204 0.930 . S
C196 C193 1.344 . S
C196 C195 1.371 . S
C196 H205 0.931 . S
C197 C193 1.328 . S
C197 C198 1.433 . S
C197 H206 0.931 . S
C198 C194 1.323 . S
C198 C197 1.433 . S
C198 H207 0.933 . S
C199 Dy169 2.738 . S
C199 O179 1.255 . S
C199 O180 1.249 . S
C199 C193 1.516 . S
H200 C186 0.930 . S
H201 C187 0.931 . S
H202 C188 0.931 . S
H203 C189 0.933 . S
H204 C195 0.930 . S
H205 C196 0.931 . S
H206 C197 0.931 . S
H207 C198 0.933 . S
Dy208 O211 2.307 1_556 S
Dy208 O213 2.395 1_455 S
Dy208 O214 2.379 1_455 S
Dy208 O216 2.339 . S
Dy208 O218 2.298 1_455 S
Dy208 O222 2.279 1_556 S
Dy208 C230 2.738 1_455 S
Dy209 O212 2.298 . S
Dy209 O215 2.275 1_554 S
Dy209 O217 2.307 1_455 S
Dy209 O219 2.395 . S
Dy209 O220 2.379 . S
Dy209 O223 2.339 1_455 S
Dy209 C239 2.738 . S
C210 O222 1.250 1_655 S
C210 O223 1.257 . S
O211 Dy208 2.307 1_554 S
O211 C221 1.266 . S
O212 Dy209 2.298 . S
O212 C221 1.236 . S
O213 Dy208 2.395 1_655 S
O213 C230 1.255 . S
O214 Dy208 2.379 1_655 S
O214 C230 1.249 . S
O215 Dy209 2.275 1_556 S
O215 C231 1.254 . S
O216 Dy208 2.339 . S
O216 C231 1.257 . S
O217 Dy209 2.307 1_655 S
O217 C232 1.266 1_554 S
O218 Dy208 2.298 1_655 S
O218 C232 1.236 . S
O219 Dy209 2.395 . S
O219 C239 1.255 . S
O220 Dy209 2.379 . S
O220 C239 1.249 . S
C221 O211 1.266 . S
C221 O212 1.236 . S
O222 Dy208 2.279 1_554 S
O222 C210 1.250 1_455 S
O223 Dy209 2.339 1_655 S
O223 C210 1.257 . S
C224 C227 1.344 . S
C224 C228 1.328 . S
C224 C230 1.516 . S
C225 C226 1.304 . S
C225 C229 1.323 . S
C226 C225 1.304 . S
C226 C227 1.371 . S
C226 H240 0.930 . S
C227 C224 1.344 . S
C227 C226 1.371 . S
C227 H241 0.931 . S
C228 C224 1.328 . S
C228 C229 1.433 . S
C228 H242 0.931 . S
C229 C225 1.323 . S
C229 C228 1.433 . S
C229 H243 0.933 . S
C230 Dy208 2.738 1_655 S
C230 O213 1.255 . S
C230 O214 1.249 . S
C230 C224 1.516 . S
C231 O215 1.254 . S
C231 O216 1.257 . S
C232 O217 1.266 1_556 S
C232 O218 1.236 . S
C233 C236 1.344 . S
C233 C237 1.328 . S
C233 C239 1.516 . S
C234 C235 1.304 . S
C234 C238 1.323 . S
C235 C234 1.304 . S
C235 C236 1.371 . S
C235 H244 0.930 . S
C236 C233 1.344 . S
C236 C235 1.371 . S
C236 H245 0.931 . S
C237 C233 1.328 . S
C237 C238 1.433 . S
C237 H246 0.931 . S
C238 C234 1.323 . S
C238 C237 1.433 . S
C238 H247 0.933 . S
C239 Dy209 2.738 . S
C239 O219 1.255 . S
C239 O220 1.249 . S
C239 C233 1.516 . S
H240 C226 0.930 . S
H241 C227 0.931 . S
H242 C228 0.931 . S
H243 C229 0.933 . S
H244 C235 0.930 . S
H245 C236 0.931 . S
H246 C237 0.931 . S
H247 C238 0.933 . S
C248 C249 1.363 . S
C248 C254 1.379 . S
C248 N256 1.356 . S
C249 C248 1.363 . S
C249 C255 1.363 . S
C250 C251 1.363 . S
C250 C255 1.379 . S
C250 N257 1.356 . S
C251 C250 1.363 . S
C251 C254 1.363 . S
N252 C254 1.356 . S
N252 H264 0.984 . S
N252 H265 0.985 . S
N253 C255 1.356 . S
N253 H258 0.984 . S
N253 H259 0.985 . S
C254 C248 1.379 . S
C254 C251 1.363 . S
C254 N252 1.356 . S
C255 C249 1.363 . S
C255 C250 1.379 . S
C255 N253 1.356 . S
N256 C248 1.356 . S
N256 H262 0.984 . S
N256 H263 0.984 . S
N257 C250 1.356 . S
N257 H260 0.984 . S
N257 H261 0.985 . S
H258 N253 0.984 . S
H259 N253 0.985 . S
H260 N257 0.984 . S
H261 N257 0.985 . S
H262 N256 0.984 . S
H263 N256 0.984 . S
H264 N252 0.984 . S
H265 N252 0.985 . S
C266 C267 1.363 . S
C266 C272 1.379 . S
C266 N274 1.356 . S
C267 C266 1.363 . S
C267 C273 1.363 . S
C268 C269 1.363 . S
C268 C273 1.379 . S
C268 N275 1.356 . S
C269 C268 1.363 . S
C269 C272 1.363 . S
N270 C272 1.356 . S
N270 H282 0.984 . S
N270 H283 0.985 . S
N271 C273 1.356 . S
N271 H276 0.984 . S
N271 H277 0.985 . S
C272 C266 1.379 . S
C272 C269 1.363 . S
C272 N270 1.356 . S
C273 C267 1.363 . S
C273 C268 1.379 . S
C273 N271 1.356 . S
N274 C266 1.356 . S
N274 H280 0.984 . S
N274 H281 0.984 . S
N275 C268 1.356 . S
N275 H278 0.984 . S
N275 H279 0.985 . S
H276 N271 0.984 . S
H277 N271 0.985 . S
H278 N275 0.984 . S
H279 N275 0.985 . S
H280 N274 0.984 . S
H281 N274 0.984 . S
H282 N270 0.984 . S
H283 N270 0.985 . S
C284 C285 1.363 . S
C284 C290 1.379 . S
C284 N292 1.356 . S
C285 C284 1.363 . S
C285 C291 1.363 . S
C286 C287 1.363 . S
C286 C291 1.379 . S
C286 N293 1.356 . S
C287 C286 1.363 . S
C287 C290 1.363 . S
N288 C290 1.356 . S
N288 H300 0.984 . S
N288 H301 0.985 . S
N289 C291 1.356 . S
N289 H294 0.984 . S
N289 H295 0.985 . S
C290 C284 1.379 . S
C290 C287 1.363 . S
C290 N288 1.356 . S
C291 C285 1.363 . S
C291 C286 1.379 . S
C291 N289 1.356 . S
N292 C284 1.356 . S
N292 H298 0.984 . S
N292 H299 0.984 . S
N293 C286 1.356 . S
N293 H296 0.984 . S
N293 H297 0.985 . S
H294 N289 0.984 . S
H295 N289 0.985 . S
H296 N293 0.984 . S
H297 N293 0.985 . S
H298 N292 0.984 . S
H299 N292 0.984 . S
H300 N288 0.984 . S
H301 N288 0.985 . S
C302 C303 1.363 . S
C302 C308 1.379 . S
C302 N310 1.356 . S
C303 C302 1.363 . S
C303 C309 1.363 . S
C304 C305 1.363 . S
C304 C309 1.379 . S
C304 N311 1.356 . S
C305 C304 1.363 . S
C305 C308 1.363 . S
N306 C308 1.356 . S
N306 H318 0.984 . S
N306 H319 0.985 . S
N307 C309 1.356 . S
N307 H312 0.984 . S
N307 H313 0.985 . S
C308 C302 1.379 . S
C308 C305 1.363 . S
C308 N306 1.356 . S
C309 C303 1.363 . S
C309 C304 1.379 . S
C309 N307 1.356 . S
N310 C302 1.356 . S
N310 H316 0.984 . S
N310 H317 0.984 . S
N311 C304 1.356 . S
N311 H314 0.984 . S
N311 H315 0.985 . S
H312 N307 0.984 . S
H313 N307 0.985 . S
H314 N311 0.984 . S
H315 N311 0.985 . S
H316 N310 0.984 . S
H317 N310 0.984 . S
H318 N306 0.984 . S
H319 N306 0.985 . S
C320 C321 1.363 . S
C320 C326 1.379 . S
C320 N328 1.356 . S
C321 C320 1.363 . S
C321 C327 1.363 . S
C322 C323 1.363 . S
C322 C327 1.379 . S
C322 N329 1.356 . S
C323 C322 1.363 . S
C323 C326 1.363 . S
N324 C326 1.356 . S
N324 H336 0.984 . S
N324 H337 0.985 . S
N325 C327 1.356 . S
N325 H330 0.984 . S
N325 H331 0.985 . S
C326 C320 1.379 . S
C326 C323 1.363 . S
C326 N324 1.356 . S
C327 C321 1.363 . S
C327 C322 1.379 . S
C327 N325 1.356 . S
N328 C320 1.356 . S
N328 H334 0.984 . S
N328 H335 0.984 . S
N329 C322 1.356 . S
N329 H332 0.984 . S
N329 H333 0.985 . S
H330 N325 0.984 . S
H331 N325 0.985 . S
H332 N329 0.984 . S
H333 N329 0.985 . S
H334 N328 0.984 . S
H335 N328 0.984 . S
H336 N324 0.984 . S
H337 N324 0.985 . S
C338 C339 1.363 . S
C338 C344 1.379 . S
C338 N346 1.356 1_455 S
C339 C338 1.363 . S
C339 C345 1.363 . S
C340 C341 1.363 . S
C340 C345 1.379 . S
C340 N347 1.356 . S
C341 C340 1.363 . S
C341 C344 1.363 . S
N342 C344 1.356 1_655 S
N342 H354 0.984 . S
N342 H355 0.985 1_655 S
N343 C345 1.356 . S
N343 H348 0.984 . S
N343 H349 0.985 . S
C344 C338 1.379 . S
C344 C341 1.363 . S
C344 N342 1.356 1_455 S
C345 C339 1.363 . S
C345 C340 1.379 . S
C345 N343 1.356 . S
N346 C338 1.356 1_655 S
N346 H352 0.984 . S
N346 H353 0.984 . S
N347 C340 1.356 . S
N347 H350 0.984 . S
N347 H351 0.985 . S
H348 N343 0.984 . S
H349 N343 0.985 . S
H350 N347 0.984 . S
H351 N347 0.985 . S
H352 N346 0.984 . S
H353 N346 0.984 . S
H354 N342 0.984 . S
H355 N342 0.985 1_455 S
C356 C357 1.363 . S
C356 C362 1.379 . S
C356 N364 1.356 . S
C357 C356 1.363 . S
C357 C363 1.363 . S
C358 C359 1.363 . S
C358 C363 1.379 . S
C358 N365 1.356 1_556 S
C359 C358 1.363 . S
C359 C362 1.363 . S
N360 C362 1.356 . S
N360 H372 0.984 . S
N360 H373 0.985 . S
N361 C363 1.356 . S
N361 H366 0.984 . S
N361 H367 0.985 . S
C362 C356 1.379 . S
C362 C359 1.363 . S
C362 N360 1.356 . S
C363 C357 1.363 . S
C363 C358 1.379 . S
C363 N361 1.356 . S
N364 C356 1.356 . S
N364 H370 0.984 . S
N364 H371 0.984 . S
N365 C358 1.356 1_554 S
N365 H368 0.984 . S
N365 H369 0.985 . S
H366 N361 0.984 . S
H367 N361 0.985 . S
H368 N365 0.984 . S
H369 N365 0.985 . S
H370 N364 0.984 . S
H371 N364 0.984 . S
H372 N360 0.984 . S
H373 N360 0.985 . S
C374 C375 1.363 . S
C374 C380 1.379 . S
C374 N382 1.356 . S
C375 C374 1.363 . S
C375 C381 1.363 . S
C376 C377 1.363 . S
C376 C381 1.379 . S
C376 N383 1.356 . S
C377 C376 1.363 . S
C377 C380 1.363 . S
N378 C380 1.356 . S
N378 H390 0.984 . S
N378 H391 0.985 . S
N379 C381 1.356 . S
N379 H384 0.984 . S
N379 H385 0.985 . S
C380 C374 1.379 . S
C380 C377 1.363 . S
C380 N378 1.356 . S
C381 C375 1.363 . S
C381 C376 1.379 . S
C381 N379 1.356 . S
N382 C374 1.356 . S
N382 H388 0.984 . S
N382 H389 0.984 . S
N383 C376 1.356 . S
N383 H386 0.984 . S
N383 H387 0.985 . S
H384 N379 0.984 . S
H385 N379 0.985 . S
H386 N383 0.984 . S
H387 N383 0.985 . S
H388 N382 0.984 . S
H389 N382 0.984 . S
H390 N378 0.984 . S
H391 N378 0.985 . S
C392 C393 1.363 . S
C392 C398 1.379 . S
C392 N400 1.356 . S
C393 C392 1.363 . S
C393 C399 1.363 . S
C394 C395 1.363 . S
C394 C399 1.379 . S
C394 N401 1.356 . S
C395 C394 1.363 . S
C395 C398 1.363 . S
N396 C398 1.356 . S
N396 H408 0.984 . S
N396 H409 0.985 . S
N397 C399 1.356 . S
N397 H402 0.984 . S
N397 H403 0.985 . S
C398 C392 1.379 . S
C398 C395 1.363 . S
C398 N396 1.356 . S
C399 C393 1.363 . S
C399 C394 1.379 . S
C399 N397 1.356 . S
N400 C392 1.356 . S
N400 H406 0.984 . S
N400 H407 0.984 . S
N401 C394 1.356 . S
N401 H404 0.984 . S
N401 H405 0.985 . S
H402 N397 0.984 . S
H403 N397 0.985 . S
H404 N401 0.984 . S
H405 N401 0.985 . S
H406 N400 0.984 . S
H407 N400 0.984 . S
H408 N396 0.984 . S
H409 N396 0.985 . S
C410 C411 1.363 . S
C410 C416 1.379 1_556 S
C410 N418 1.356 1_556 S
C411 C410 1.363 . S
C411 C417 1.363 . S
C412 C413 1.363 . S
C412 C417 1.379 . S
C412 N419 1.356 . S
C413 C412 1.363 . S
C413 C416 1.363 1_556 S
N414 C416 1.356 . S
N414 H426 0.984 . S
N414 H427 0.985 . S
N415 C417 1.356 . S
N415 H420 0.984 . S
N415 H421 0.985 . S
C416 C410 1.379 1_554 S
C416 C413 1.363 1_554 S
C416 N414 1.356 . S
C417 C411 1.363 . S
C417 C412 1.379 . S
C417 N415 1.356 . S
N418 C410 1.356 1_554 S
N418 H424 0.984 . S
N418 H425 0.984 1_554 S
N419 C412 1.356 . S
N419 H422 0.984 . S
N419 H423 0.985 . S
H420 N415 0.984 . S
H421 N415 0.985 . S
H422 N419 0.984 . S
H423 N419 0.985 . S
H424 N418 0.984 . S
H425 N418 0.984 1_556 S
H426 N414 0.984 . S
H427 N414 0.985 . S
C428 C429 1.363 . S
C428 C434 1.379 . S
C428 N436 1.356 . S
C429 C428 1.363 . S
C429 C435 1.363 . S
C430 C431 1.363 . S
C430 C435 1.379 . S
C430 N437 1.356 . S
C431 C430 1.363 . S
C431 C434 1.363 . S
N432 C434 1.356 . S
N432 H444 0.984 1_655 S
N432 H445 0.985 . S
N433 C435 1.356 . S
N433 H438 0.984 . S
N433 H439 0.985 . S
C434 C428 1.379 . S
C434 C431 1.363 . S
C434 N432 1.356 . S
C435 C429 1.363 . S
C435 C430 1.379 . S
C435 N433 1.356 . S
N436 C428 1.356 . S
N436 H442 0.984 . S
N436 H443 0.984 . S
N437 C430 1.356 . S
N437 H440 0.984 . S
N437 H441 0.985 . S
H438 N433 0.984 . S
H439 N433 0.985 . S
H440 N437 0.984 . S
H441 N437 0.985 . S
H442 N436 0.984 . S
H443 N436 0.984 . S
H444 N432 0.984 1_455 S
H445 N432 0.985 . S
C446 C447 1.363 . S
C446 C452 1.379 . S
C446 N454 1.356 . S
C447 C446 1.363 . S
C447 C453 1.363 . S
C448 C449 1.363 . S
C448 C453 1.379 . S
C448 N455 1.356 . S
C449 C448 1.363 . S
C449 C452 1.363 . S
N450 C452 1.356 . S
N450 H462 0.984 . S
N450 H463 0.985 . S
N451 C453 1.356 . S
N451 H456 0.984 . S
N451 H457 0.985 . S
C452 C446 1.379 . S
C452 C449 1.363 . S
C452 N450 1.356 . S
C453 C447 1.363 . S
C453 C448 1.379 . S
C453 N451 1.356 . S
N454 C446 1.356 . S
N454 H460 0.984 . S
N454 H461 0.984 . S
N455 C448 1.356 . S
N455 H458 0.984 . S
N455 H459 0.985 . S
H456 N451 0.984 . S
H457 N451 0.985 . S
H458 N455 0.984 . S
H459 N455 0.985 . S
H460 N454 0.984 . S
H461 N454 0.984 . S
H462 N450 0.984 . S
H463 N450 0.985 . S
C464 C465 1.363 . S
C464 C470 1.379 . S
C464 N472 1.356 . S
C465 C464 1.363 . S
C465 C471 1.363 . S
C466 C467 1.363 . S
C466 C471 1.379 . S
C466 N473 1.356 . S
C467 C466 1.363 . S
C467 C470 1.363 . S
N468 C470 1.356 . S
N468 H480 0.984 . S
N468 H481 0.985 . S
N469 C471 1.356 . S
N469 H474 0.984 . S
N469 H475 0.985 . S
C470 C464 1.379 . S
C470 C467 1.363 . S
C470 N468 1.356 . S
C471 C465 1.363 . S
C471 C466 1.379 . S
C471 N469 1.356 . S
N472 C464 1.356 . S
N472 H478 0.984 . S
N472 H479 0.984 . S
N473 C466 1.356 . S
N473 H476 0.984 . S
N473 H477 0.985 . S
H474 N469 0.984 . S
H475 N469 0.985 . S
H476 N473 0.984 . S
H477 N473 0.985 . S
H478 N472 0.984 . S
H479 N472 0.984 . S
H480 N468 0.984 . S
H481 N468 0.985 . S
C482 C483 1.363 . S
C482 C488 1.379 . S
C482 N490 1.356 . S
C483 C482 1.363 . S
C483 C489 1.363 . S
C484 C485 1.363 . S
C484 C489 1.379 . S
C484 N491 1.356 . S
C485 C484 1.363 . S
C485 C488 1.363 . S
N486 C488 1.356 . S
N486 H498 0.984 . S
N486 H499 0.985 . S
N487 C489 1.356 . S
N487 H492 0.984 . S
N487 H493 0.985 . S
C488 C482 1.379 . S
C488 C485 1.363 . S
C488 N486 1.356 . S
C489 C483 1.363 . S
C489 C484 1.379 . S
C489 N487 1.356 . S
N490 C482 1.356 . S
N490 H496 0.984 . S
N490 H497 0.984 . S
N491 C484 1.356 . S
N491 H494 0.984 . S
N491 H495 0.985 . S
H492 N487 0.984 . S
H493 N487 0.985 . S
H494 N491 0.984 . S
H495 N491 0.985 . S
H496 N490 0.984 . S
H497 N490 0.984 . S
H498 N486 0.984 . S
H499 N486 0.985 . S
C500 C501 1.363 . S
C500 C506 1.379 . S
C500 N508 1.356 . S
C501 C500 1.363 . S
C501 C507 1.363 . S
C502 C503 1.363 . S
C502 C507 1.379 . S
C502 N509 1.356 . S
C503 C502 1.363 . S
C503 C506 1.363 . S
N504 C506 1.356 . S
N504 H516 0.984 . S
N504 H517 0.985 . S
N505 C507 1.356 . S
N505 H510 0.984 . S
N505 H511 0.985 . S
C506 C500 1.379 . S
C506 C503 1.363 . S
C506 N504 1.356 . S
C507 C501 1.363 . S
C507 C502 1.379 . S
C507 N505 1.356 . S
N508 C500 1.356 . S
N508 H514 0.984 . S
N508 H515 0.984 . S
N509 C502 1.356 . S
N509 H512 0.984 . S
N509 H513 0.985 . S
H510 N505 0.984 . S
H511 N505 0.985 . S
H512 N509 0.984 . S
H513 N509 0.985 . S
H514 N508 0.984 . S
H515 N508 0.984 . S
H516 N504 0.984 . S
H517 N504 0.985 . S
C518 C519 1.363 . S
C518 C524 1.379 . S
C518 N526 1.356 . S
C519 C518 1.363 . S
C519 C525 1.363 . S
C520 C521 1.363 . S
C520 C525 1.379 . S
C520 N527 1.356 . S
C521 C520 1.363 . S
C521 C524 1.363 . S
N522 C524 1.356 . S
N522 H534 0.984 . S
N522 H535 0.985 . S
N523 C525 1.356 . S
N523 H528 0.984 . S
N523 H529 0.985 . S
C524 C518 1.379 . S
C524 C521 1.363 . S
C524 N522 1.356 . S
C525 C519 1.363 . S
C525 C520 1.379 . S
C525 N523 1.356 . S
N526 C518 1.356 . S
N526 H532 0.984 . S
N526 H533 0.984 . S
N527 C520 1.356 . S
N527 H530 0.984 . S
N527 H531 0.985 . S
H528 N523 0.984 . S
H529 N523 0.985 . S
H530 N527 0.984 . S
H531 N527 0.985 . S
H532 N526 0.984 . S
H533 N526 0.984 . S
H534 N522 0.984 . S
H535 N522 0.985 . S
C536 C537 1.363 . S
C536 C542 1.379 . S
C536 N544 1.356 . S
C537 C536 1.363 . S
C537 C543 1.363 . S
C538 C539 1.363 . S
C538 C543 1.379 . S
C538 N545 1.356 . S
C539 C538 1.363 . S
C539 C542 1.363 . S
N540 C542 1.356 1_554 S
N540 H552 0.984 . S
N540 H553 0.985 . S
N541 C543 1.356 . S
N541 H546 0.984 . S
N541 H547 0.985 . S
C542 C536 1.379 . S
C542 C539 1.363 . S
C542 N540 1.356 1_556 S
C543 C537 1.363 . S
C543 C538 1.379 . S
C543 N541 1.356 . S
N544 C536 1.356 . S
N544 H550 0.984 . S
N544 H551 0.984 . S
N545 C538 1.356 . S
N545 H548 0.984 . S
N545 H549 0.985 . S
H546 N541 0.984 . S
H547 N541 0.985 . S
H548 N545 0.984 . S
H549 N545 0.985 . S
H550 N544 0.984 . S
H551 N544 0.984 . S
H552 N540 0.984 . S
H553 N540 0.985 . S
C554 C555 1.363 1_455 S
C554 C560 1.379 . S
C554 N562 1.356 . S
C555 C554 1.363 1_655 S
C555 C561 1.363 . S
C556 C557 1.363 . S
C556 C561 1.379 . S
C556 N563 1.356 . S
C557 C556 1.363 . S
C557 C560 1.363 1_655 S
N558 C560 1.356 . S
N558 H570 0.984 . S
N558 H571 0.985 . S
N559 C561 1.356 . S
N559 H564 0.984 . S
N559 H565 0.985 . S
C560 C554 1.379 . S
C560 C557 1.363 1_455 S
C560 N558 1.356 . S
C561 C555 1.363 . S
C561 C556 1.379 . S
C561 N559 1.356 . S
N562 C554 1.356 . S
N562 H568 0.984 . S
N562 H569 0.984 . S
N563 C556 1.356 . S
N563 H566 0.984 . S
N563 H567 0.985 . S
H564 N559 0.984 . S
H565 N559 0.985 . S
H566 N563 0.984 . S
H567 N563 0.985 . S
H568 N562 0.984 . S
H569 N562 0.984 . S
H570 N558 0.984 . S
H571 N558 0.985 . S
C572 C573 1.363 . S
C572 C578 1.379 . S
C572 N580 1.356 . S
C573 C572 1.363 . S
C573 C579 1.363 . S
C574 C575 1.363 . S
C574 C579 1.379 . S
C574 N581 1.356 . S
C575 C574 1.363 . S
C575 C578 1.363 . S
N576 C578 1.356 . S
N576 H588 0.984 . S
N576 H589 0.985 . S
N577 C579 1.356 . S
N577 H582 0.984 . S
N577 H583 0.985 . S
C578 C572 1.379 . S
C578 C575 1.363 . S
C578 N576 1.356 . S
C579 C573 1.363 . S
C579 C574 1.379 . S
C579 N577 1.356 . S
N580 C572 1.356 . S
N580 H586 0.984 . S
N580 H587 0.984 . S
N581 C574 1.356 . S
N581 H584 0.984 . S
N581 H585 0.985 . S
H582 N577 0.984 . S
H583 N577 0.985 . S
H584 N581 0.984 . S
H585 N581 0.985 . S
H586 N580 0.984 . S
H587 N580 0.984 . S
H588 N576 0.984 . S
H589 N576 0.985 . S
C590 C591 1.363 . S
C590 C596 1.379 . S
C590 N598 1.356 . S
C591 C590 1.363 . S
C591 C597 1.363 . S
C592 C593 1.363 . S
C592 C597 1.379 . S
C592 N599 1.356 . S
C593 C592 1.363 . S
C593 C596 1.363 . S
N594 C596 1.356 . S
N594 H606 0.984 . S
N594 H607 0.985 . S
N595 C597 1.356 . S
N595 H600 0.984 . S
N595 H601 0.985 . S
C596 C590 1.379 . S
C596 C593 1.363 . S
C596 N594 1.356 . S
C597 C591 1.363 . S
C597 C592 1.379 . S
C597 N595 1.356 . S
N598 C590 1.356 . S
N598 H604 0.984 . S
N598 H605 0.984 . S
N599 C592 1.356 . S
N599 H602 0.984 . S
N599 H603 0.985 . S
H600 N595 0.984 . S
H601 N595 0.985 . S
H602 N599 0.984 . S
H603 N599 0.985 . S
H604 N598 0.984 . S
H605 N598 0.984 . S
H606 N594 0.984 . S
H607 N594 0.985 . S
C608 C609 1.363 . S
C608 C614 1.379 . S
C608 N616 1.356 . S
C609 C608 1.363 . S
C609 C615 1.363 . S
C610 C611 1.363 . S
C610 C615 1.379 . S
C610 N617 1.356 . S
C611 C610 1.363 . S
C611 C614 1.363 . S
N612 C614 1.356 . S
N612 H624 0.984 . S
N612 H625 0.985 . S
N613 C615 1.356 . S
N613 H618 0.984 . S
N613 H619 0.985 . S
C614 C608 1.379 . S
C614 C611 1.363 . S
C614 N612 1.356 . S
C615 C609 1.363 . S
C615 C610 1.379 . S
C615 N613 1.356 . S
N616 C608 1.356 . S
N616 H622 0.984 . S
N616 H623 0.984 . S
N617 C610 1.356 . S
N617 H620 0.984 . S
N617 H621 0.985 . S
H618 N613 0.984 . S
H619 N613 0.985 . S
H620 N617 0.984 . S
H621 N617 0.985 . S
H622 N616 0.984 . S
H623 N616 0.984 . S
H624 N612 0.984 . S
H625 N612 0.985 . S
C626 C627 1.363 . S
C626 C632 1.379 . S
C626 N634 1.356 . S
C627 C626 1.363 . S
C627 C633 1.363 . S
C628 C629 1.363 . S
C628 C633 1.379 . S
C628 N635 1.356 . S
C629 C628 1.363 . S
C629 C632 1.363 . S
N630 C632 1.356 . S
N630 H642 0.984 . S
N630 H643 0.985 . S
N631 C633 1.356 . S
N631 H636 0.984 . S
N631 H637 0.985 . S
C632 C626 1.379 . S
C632 C629 1.363 . S
C632 N630 1.356 . S
C633 C627 1.363 . S
C633 C628 1.379 . S
C633 N631 1.356 . S
N634 C626 1.356 . S
N634 H640 0.984 . S
N634 H641 0.984 . S
N635 C628 1.356 . S
N635 H638 0.984 . S
N635 H639 0.985 . S
H636 N631 0.984 . S
H637 N631 0.985 . S
H638 N635 0.984 . S
H639 N635 0.985 . S
H640 N634 0.984 . S
H641 N634 0.984 . S
H642 N630 0.984 . S
H643 N630 0.985 . S
C644 C645 1.363 . S
C644 C650 1.379 . S
C644 N652 1.356 . S
C645 C644 1.363 . S
C645 C651 1.363 . S
C646 C647 1.363 . S
C646 C651 1.379 . S
C646 N653 1.356 . S
C647 C646 1.363 . S
C647 C650 1.363 . S
N648 C650 1.356 . S
N648 H660 0.984 1_455 S
N648 H661 0.985 . S
N649 C651 1.356 . S
N649 H654 0.984 . S
N649 H655 0.985 . S
C650 C644 1.379 . S
C650 C647 1.363 . S
C650 N648 1.356 . S
C651 C645 1.363 . S
C651 C646 1.379 . S
C651 N649 1.356 . S
N652 C644 1.356 . S
N652 H658 0.977 1_455 S
N652 H659 0.984 . S
N653 C646 1.356 . S
N653 H656 0.984 . S
N653 H657 0.985 . S
H654 N649 0.984 . S
H655 N649 0.985 . S
H656 N653 0.984 . S
H657 N653 0.985 . S
H658 N652 0.977 1_655 S
H659 N652 0.984 . S
H660 N648 0.984 1_655 S
H661 N648 0.985 . S
C662 C663 1.363 . S
C662 C668 1.379 . S
C662 N670 1.356 . S
C663 C662 1.363 . S
C663 C669 1.363 . S
C664 C665 1.363 . S
C664 C669 1.379 . S
C664 N671 1.356 . S
C665 C664 1.363 . S
C665 C668 1.363 . S
N666 C668 1.356 . S
N666 H678 0.984 . S
N666 H679 0.985 . S
N667 C669 1.356 . S
N667 H672 0.984 . S
N667 H673 0.985 . S
C668 C662 1.379 . S
C668 C665 1.363 . S
C668 N666 1.356 . S
C669 C663 1.363 . S
C669 C664 1.379 . S
C669 N667 1.356 . S
N670 C662 1.356 . S
N670 H676 0.984 . S
N670 H677 0.984 . S
N671 C664 1.356 . S
N671 H674 0.984 . S
N671 H675 0.985 . S
H672 N667 0.984 . S
H673 N667 0.985 . S
H674 N671 0.984 . S
H675 N671 0.985 . S
H676 N670 0.984 . S
H677 N670 0.984 . S
H678 N666 0.984 . S
H679 N666 0.985 . S
C249 C5 0.945 . S
C251 C105 1.201 . S
C267 C18 1.075 . S
C269 C145 1.159 . S
C287 C170 2.335 . S
C285 C30 2.368 . S
C303 C41 2.298 . S
C305 C210 2.237 . S
C323 C141 1.756 . S
C321 C7 1.545 . S
C341 C101 1.847 . S
C339 C16 1.839 . S
C359 C232 1.832 . S
C357 C29 1.814 . S
C377 C192 1.444 . S
C375 C38 1.271 . S
C393 C8 1.343 . S
C395 C234 1.454 . S
C413 C151 2.384 1_556 S
C411 C27 2.139 . S
C429 C40 2.372 . S
C431 C111 2.312 . S
C447 C19 1.485 . S
C449 C194 1.468 . S
C467 C114 1.256 . S
C465 C51 1.008 . S
C483 C62 1.522 . S
C485 C154 1.468 . S
C501 C74 2.491 . S
C503 C191 2.475 . S
C519 C84 2.241 . S
C521 C231 2.345 . S
C537 C49 1.438 . S
C539 C152 2.059 1_556 S
C557 C112 1.957 . S
C555 C63 1.898 . S
C575 C221 1.653 . S
C573 C71 1.496 . S
C593 C181 1.657 . S
C591 C85 1.685 . S
C609 C52 1.501 . S
C611 C225 1.607 . S
C629 C130 2.525 . S
C627 C73 2.541 . S
C647 C90 1.997 . S
C645 C82 1.780 . S
C663 C60 1.440 . S
C665 C185 1.471 . S
