# Generated by pormake.
# Topology anh, (6,3)-cn, num edge types: 1
# Building blocks:
#     Node 0, Type 0, BuildingBlock: BETDIP_clean_sbu_0, # of connection points: 6
#     Node 1, Type 0, BuildingBlock: BETDIP_clean_sbu_0, # of connection points: 6
#     Node 2, Type 0, BuildingBlock: BETDIP_clean_sbu_0, # of connection points: 6
#     Node 3, Type 1, BuildingBlock: WUSLED_clean_sbu_0, # of connection points: 3
#     Node 4, Type 1, BuildingBlock: WUSLED_clean_sbu_0, # of connection points: 3
#     Node 5, Type 1, BuildingBlock: WUSLED_clean_sbu_0, # of connection points: 3
#     Node 6, Type 1, BuildingBlock: WUSLED_clean_sbu_0, # of connection points: 3
#     Node 7, Type 1, BuildingBlock: WUSLED_clean_sbu_0, # of connection points: 3
#     Node 8, Type 1, BuildingBlock: WUSLED_clean_sbu_0, # of connection points: 3
#     Edge 9, Type (0, 1), BuildingBlock: OJICUG_clean_linker_0, # of connection points: 2
#     Edge 10, Type (0, 1), BuildingBlock: OJICUG_clean_linker_0, # of connection points: 2
#     Edge 11, Type (0, 1), BuildingBlock: OJICUG_clean_linker_0, # of connection points: 2
#     Edge 12, Type (0, 1), BuildingBlock: OJICUG_clean_linker_0, # of connection points: 2
#     Edge 13, Type (0, 1), BuildingBlock: OJICUG_clean_linker_0, # of connection points: 2
#     Edge 14, Type (0, 1), BuildingBlock: OJICUG_clean_linker_0, # of connection points: 2
#     Edge 15, Type (0, 1), BuildingBlock: OJICUG_clean_linker_0, # of connection points: 2
#     Edge 16, Type (0, 1), BuildingBlock: OJICUG_clean_linker_0, # of connection points: 2
#     Edge 17, Type (0, 1), BuildingBlock: OJICUG_clean_linker_0, # of connection points: 2
#     Edge 18, Type (0, 1), BuildingBlock: OJICUG_clean_linker_0, # of connection points: 2
#     Edge 19, Type (0, 1), BuildingBlock: OJICUG_clean_linker_0, # of connection points: 2
#     Edge 20, Type (0, 1), BuildingBlock: OJICUG_clean_linker_0, # of connection points: 2
#     Edge 21, Type (0, 1), BuildingBlock: OJICUG_clean_linker_0, # of connection points: 2
#     Edge 22, Type (0, 1), BuildingBlock: OJICUG_clean_linker_0, # of connection points: 2
#     Edge 23, Type (0, 1), BuildingBlock: OJICUG_clean_linker_0, # of connection points: 2
#     Edge 24, Type (0, 1), BuildingBlock: OJICUG_clean_linker_0, # of connection points: 2
#     Edge 25, Type (0, 1), BuildingBlock: OJICUG_clean_linker_0, # of connection points: 2
#     Edge 26, Type (0, 1), BuildingBlock: OJICUG_clean_linker_0, # of connection points: 2
# Relax obj value: 0.274
# Max RMSD: 0.184
# Mean RMSD: 0.155
data_MOF--net-anh--node1-BETDIP_clean_sbu_0--node2-WUSLED_clean_sbu_0--edge1-OJICUG_clean_linker_0
_symmetry_space_group_name_H-M    P1
_symmetry_Int_Tables_number       1
_symmetry_cell_setting            triclinic
loop_
_symmetry_equiv_pos_as_xyz
'x, y, z'
_cell_length_a     31.049709
_cell_length_b     31.063665
_cell_length_c     54.829
_cell_angle_alpha  90.516056
_cell_angle_beta   89.981375
_cell_angle_gamma 119.99238
loop_
_atom_site_label
_atom_site_type_symbol
_atom_site_fract_x
_atom_site_fract_y
_atom_site_fract_z
_atom_type_partial_charge
Tb0 Tb 0.14399 0.62701 0.18366 0.0
Tb1 Tb 1.09209 0.51892 0.17896 0.0
C2 C 0.20115 0.71254 0.19997 0.0
C3 C 0.25434 0.73982 0.20655 0.0
C4 C 0.26817 0.74825 0.23124 0.0
C5 C 0.31817 0.77469 0.23792 0.0
C6 C 0.35536 0.79369 0.22003 0.0
C7 C 0.34169 0.7844 0.19531 0.0
C8 C 0.29157 0.75754 0.18861 0.0
C9 C 1.11793 0.59427 0.13907 0.0
C10 C 0.20884 0.57066 0.175 0.0
C11 C 1.02885 0.43163 0.16747 0.0
C12 C 0.9746 0.4107 0.1665 0.0
C13 C 0.94802 0.38802 0.14501 0.0
C14 C 0.89788 0.37461 0.14288 0.0
C15 C 0.87383 0.38415 0.16216 0.0
C16 C 0.90053 0.40642 0.1837 0.0
C17 C 0.95031 0.41971 0.18581 0.0
C18 C 1.11688 0.55211 0.22446 0.0
C19 C 1.02849 0.57748 0.17709 0.0
O20 O 0.17277 0.67475 0.21388 0.0
O21 O 0.19014 0.70279 0.17679 0.0
O22 O 0.13471 0.57732 0.1549 0.0
O23 O 1.11867 0.63387 0.14745 0.0
O24 O 0.20778 0.61156 0.182 0.0
O25 O 0.16621 0.52886 0.17063 0.0
O26 O 1.05349 0.46604 0.15142 0.0
O27 O 1.04952 0.44412 0.1891 0.0
O28 O 1.09945 0.56859 0.20847 0.0
O29 O 1.11973 0.51522 0.21507 0.0
O30 O 1.03042 0.53598 0.17345 0.0
O31 O 1.06921 0.61878 0.18412 0.0
H32 H 0.24024 0.73508 0.24542 0.0
H33 H 0.32759 0.78219 0.25711 0.0
H34 H 0.36972 0.79876 0.18119 0.0
H35 H 0.28212 0.75138 0.1694 0.0
H36 H 0.96634 0.38173 0.1297 0.0
H37 H 0.87808 0.35724 0.12613 0.0
H38 H 0.8828 0.41316 0.19912 0.0
H39 H 0.96997 0.43809 0.20245 0.0
Tb40 Tb 0.67373 0.08532 0.52132 0.0
Tb41 Tb 0.61823 0.13693 0.51101 0.0
C42 C 0.69749 1.02783 0.54087 0.0
C43 C 0.67753 0.97433 0.53723 0.0
C44 C 0.67476 0.9447 0.55691 0.0
C45 C 0.65703 0.894 0.55333 0.0
C46 C 0.64224 0.87249 0.52996 0.0
C47 C 0.64333 0.9019 0.51045 0.0
C48 C 0.66037 0.95238 0.51411 0.0
C49 C 0.67205 0.10443 0.47514 0.0
C50 C 0.55332 1.01942 0.50926 0.0
C51 C 0.59067 0.19459 0.49455 0.0
C52 C 0.61962 0.2447 0.48427 0.0
C53 C 0.66052 0.2569 0.46904 0.0
C54 C 0.69632 0.3066 0.46531 0.0
C55 C 0.69206 0.34465 0.47704 0.0
C56 C 0.64812 0.33236 0.48982 0.0
C57 C 0.61218 0.28271 0.4934 0.0
C58 C 0.62275 0.11813 0.55795 0.0
C59 C 0.73945 0.19956 0.51207 0.0
O60 O 0.66697 1.04022 0.55102 0.0
O61 O 0.7211 1.05572 0.52221 0.0
O62 O 0.63715 0.09136 0.49017 0.0
O63 O 0.70843 0.10209 0.48538 0.0
O64 O 0.5955 1.02077 0.51594 0.0
O65 O 0.55364 1.06173 0.50526 0.0
O66 O 0.58926 0.15808 0.48185 0.0
O67 O 0.59912 0.19184 0.51769 0.0
O68 O 0.65766 0.13311 0.54264 0.0
O69 O 0.58404 0.11475 0.54715 0.0
O70 O 0.69724 0.19498 0.50337 0.0
O71 O 0.73793 0.16202 0.52432 0.0
H72 H 0.68721 0.96095 0.57491 0.0
H73 H 0.65707 0.87208 0.56858 0.0
H74 H 0.63203 0.88602 0.49231 0.0
H75 H 0.66113 0.97447 0.49876 0.0
H76 H 0.66711 0.22829 0.46168 0.0
H77 H 0.72938 0.31513 0.45501 0.0
H78 H 0.64373 0.36074 0.49922 0.0
H79 H 0.58087 0.27407 0.50515 0.0
Tb80 Tb 0.61502 0.57032 0.85169 0.0
Tb81 Tb 0.72345 0.62812 0.84478 0.0
C82 C 0.53235 0.54226 0.87085 0.0
C83 C 0.50535 0.56845 0.87698 0.0
C84 C 0.49051 0.56801 0.90113 0.0
C85 C 0.4658 0.5934 0.90763 0.0
C86 C 0.45512 0.61934 0.89001 0.0
C87 C 0.47082 0.62065 0.86589 0.0
C88 C 0.49617 0.59571 0.85944 0.0
C89 C 0.64301 0.57836 0.8064 0.0
C90 C 0.66913 0.6916 0.84435 0.0
C91 C 0.8093 0.65962 0.82822 0.0
C92 C 0.83293 0.63377 0.81683 0.0
C93 C 0.80467 0.58976 0.80323 0.0
C94 C 0.82504 0.56016 0.79665 0.0
C95 C 0.87397 0.57429 0.80349 0.0
C96 C 0.90327 0.62047 0.81533 0.0
C97 C 0.88281 0.64985 0.82199 0.0
C98 C 0.69481 0.61976 0.89089 0.0
C99 C 0.66568 0.50596 0.84243 0.0
O100 O 0.57309 0.55638 0.88351 0.0
O101 O 0.53776 0.53591 0.84762 0.0
O102 O 0.66152 0.61141 0.82271 0.0
O103 O 0.60396 0.53926 0.8147 0.0
O104 O 0.62814 0.64869 0.84979 0.0
O105 O 0.7118 0.69228 0.84077 0.0
O106 O 0.77318 0.65915 0.81578 0.0
O107 O 0.79823 0.64982 0.85129 0.0
O108 O 0.67694 0.58615 0.87457 0.0
O109 O 0.73161 0.65943 0.88163 0.0
O110 O 0.70618 0.5495 0.83759 0.0
O111 O 0.62523 0.50507 0.851 0.0
H112 H 0.4977 0.54763 0.91496 0.0
H113 H 0.45318 0.59099 0.92626 0.0
H114 H 0.46281 0.6403 0.85201 0.0
H115 H 0.50812 0.59745 0.84073 0.0
H116 H 0.76609 0.57686 0.7988 0.0
H117 H 0.80171 0.52496 0.78744 0.0
H118 H 0.94087 0.63218 0.82121 0.0
H119 H 0.9051 0.68366 0.83247 0.0
C120 C 0.61649 0.22255 0.224 0.0
C121 C 0.64955 0.2712 0.23183 0.0
C122 C 0.67466 0.29486 0.18981 0.0
C123 C 0.67847 0.30726 0.21483 0.0
C124 C 0.63517 0.24859 0.18198 0.0
C125 C 0.60661 0.21232 0.19906 0.0
U126 U 0.6266 0.17393 0.28584 0.0
O127 O 0.57653 0.10386 0.30441 0.0
O128 O 0.65146 0.12062 0.29365 0.0
C129 C 0.60745 0.08686 0.30147 0.0
C130 C 0.60435 0.18136 0.24052 0.0
C131 C 0.58601 1.03832 0.28915 0.0
C132 C 0.56973 0.99004 0.25178 0.0
C133 C 0.59643 1.03489 0.2645 0.0
C134 C 0.52367 0.95097 0.28849 0.0
C135 C 0.53155 0.94816 0.26336 0.0
C136 C 0.55079 0.99574 0.30127 0.0
C137 C 0.6855 0.24833 0.34144 0.0
C138 C 0.66025 0.23622 0.38396 0.0
C139 C 0.72366 0.21809 0.37022 0.0
C140 C 0.72061 0.23368 0.34683 0.0
C141 C 0.6917 0.21681 0.38867 0.0
C142 C 0.65735 0.25207 0.36056 0.0
C143 C 0.67084 0.24937 0.31587 0.0
O144 O 0.64356 0.17849 0.24698 0.0
O145 O 0.57447 0.17526 0.25881 0.0
O146 O 0.62248 0.22569 0.31207 0.0
O147 O 0.6951 0.23955 0.29905 0.0
H148 H 0.6575 0.27966 0.25109 0.0
H149 H 0.70811 0.34246 0.22171 0.0
H150 H 0.63023 0.23839 0.16282 0.0
H151 H 0.58084 0.1749 0.19275 0.0
H152 H 0.57715 0.98888 0.23255 0.0
H153 H 0.62351 1.06738 0.25472 0.0
H154 H 0.49412 0.91967 0.29794 0.0
H155 H 0.54224 0.9978 0.32026 0.0
H156 H 0.63599 0.23667 0.39805 0.0
H157 H 0.74835 0.20344 0.3733 0.0
H158 H 0.74321 0.23059 0.33263 0.0
H159 H 0.63033 0.26364 0.357 0.0
C160 C 0.692 0.63688 0.54061 0.0
C161 C 0.67078 0.6512 0.55924 0.0
C162 C 0.64428 0.69097 0.52956 0.0
C163 C 0.64727 0.67811 0.55381 0.0
C164 C 0.6614 0.67218 0.51073 0.0
C165 C 0.68559 0.64568 0.51627 0.0
U166 U 0.75665 0.60939 0.59012 0.0
O167 O 0.77322 0.54919 0.59547 0.0
O168 O 0.83436 0.62644 0.59343 0.0
C169 C 0.82111 0.57907 0.59207 0.0
C170 C 0.72619 0.61929 0.54712 0.0
C171 C 0.84042 0.56432 0.57107 0.0
C172 C 0.83601 0.49345 0.54999 0.0
C173 C 0.83946 0.51882 0.5717 0.0
C174 C 0.84217 0.56227 0.52679 0.0
C175 C 0.83333 0.51334 0.52739 0.0
C176 C 0.84539 0.58751 0.5485 0.0
C177 C 0.71795 0.62435 0.65516 0.0
C178 C 0.71385 0.57952 0.69194 0.0
C179 C 0.70187 0.65083 0.69413 0.0
C180 C 0.70912 0.65717 0.66903 0.0
C181 C 0.70313 0.61132 0.70577 0.0
C182 C 0.7214 0.58609 0.6668 0.0
C183 C 0.71778 0.62753 0.62849 0.0
O184 O 0.76761 0.65371 0.55736 0.0
O185 O 0.70597 0.57679 0.55869 0.0
O186 O 0.69663 0.58474 0.61672 0.0
O187 O 0.75884 0.66184 0.6182 0.0
H188 H 0.67554 0.64465 0.57818 0.0
H189 H 0.63532 0.69224 0.56891 0.0
H190 H 0.65877 0.68045 0.49183 0.0
H191 H 0.70161 0.63451 0.50169 0.0
H192 H 0.82927 0.45581 0.55121 0.0
H193 H 0.83536 0.50023 0.58889 0.0
H194 H 0.84125 0.57891 0.50966 0.0
H195 H 0.84616 0.6227 0.54747 0.0
H196 H 0.71561 0.54915 0.70051 0.0
H197 H 0.69316 0.67561 0.70425 0.0
H198 H 0.70595 0.68664 0.66029 0.0
H199 H 0.72827 0.56036 0.65636 0.0
C200 C 1.02232 0.47295 0.87569 0.0
C201 C 0.97324 0.46033 0.88081 0.0
C202 C 0.95861 0.46565 0.83762 0.0
C203 C 0.94151 0.45664 0.86189 0.0
C204 C 1.00546 0.47114 0.83243 0.0
C205 C 1.0373 0.4752 0.85142 0.0
U206 U 1.06678 0.50141 0.94249 0.0
O207 O 0.12194 0.57377 0.95785 0.0
O208 O 0.13579 0.51105 0.95881 0.0
C209 C 0.1541 0.55904 0.96226 0.0
C210 C 1.06044 0.49415 0.8948 0.0
C211 C 0.20371 0.5904 0.95214 0.0
C212 C 0.25635 0.63354 0.91773 0.0
C213 C 0.20966 0.61039 0.92871 0.0
C214 C 0.29175 0.61907 0.95402 0.0
C215 C 0.29748 0.63613 0.92986 0.0
C216 C 0.2452 0.59644 0.96506 0.0
C217 C 0.99979 0.4625 0.99938 0.0
C218 C 1.05691 0.48153 0.03336 0.0
C219 C 0.98353 0.48917 0.03844 0.0
C220 C 0.96958 0.47341 0.0142 0.0
C221 C 1.02817 0.49469 0.04806 0.0
C222 C 1.04289 0.46559 1.00944 0.0
C223 C 0.99309 0.45776 0.97269 0.0
O224 O 1.06087 0.53065 0.90734 0.0
O225 O 1.06659 0.46293 0.90837 0.0
O226 O 1.01307 0.434 0.96183 0.0
O227 O 1.00348 0.49942 0.96179 0.0
H228 H 0.96108 0.45827 0.89951 0.0
H229 H 0.90579 0.45242 0.86671 0.0
H230 H 1.0193 0.47712 0.81391 0.0
H231 H 1.07508 0.48455 0.8472 0.0
H232 H 0.25965 0.64686 0.89925 0.0
H233 H 0.17788 0.60606 0.91846 0.0
H234 H 0.32231 0.61965 0.96382 0.0
H235 H 0.24109 0.58112 0.98315 0.0
H236 H 1.09202 0.48628 0.03976 0.0
H237 H 0.96021 0.49846 0.04937 0.0
H238 H 0.93664 0.47207 1.00673 0.0
H239 H 1.06773 0.45864 0.99838 0.0
C240 C 1.02464 0.47762 0.47926 0.0
C241 C 0.9776 0.47207 0.47369 0.0
C242 C 0.9318 0.38514 0.48894 0.0
C243 C 0.93243 0.4269 0.4782 0.0
C244 C 0.97903 0.39081 0.49427 0.0
C245 C 1.02406 0.43571 0.48955 0.0
U246 U 0.149 0.60667 0.45663 0.0
O247 O 0.18101 0.67891 0.47685 0.0
O248 O 0.22315 0.64033 0.47496 0.0
C249 C 0.22312 0.68072 0.48236 0.0
C250 C 1.07336 0.5278 0.47827 0.0
C251 C 0.27186 0.73105 0.48243 0.0
C252 C 0.3172 0.82151 0.49193 0.0
C253 C 0.27223 0.77571 0.48818 0.0
C254 C 0.36417 0.7806 0.48425 0.0
C255 C 0.36464 0.82538 0.4903 0.0
C256 C 0.31907 0.73472 0.48055 0.0
C257 C 0.13843 0.60083 0.38256 0.0
C258 C 0.13269 0.62793 0.34139 0.0
C259 C 0.1241 0.54703 0.34693 0.0
C260 C 0.13049 0.55572 0.37234 0.0
C261 C 0.12618 0.58346 0.33085 0.0
C262 C 0.13862 0.63634 0.36674 0.0
C263 C 0.15429 0.61552 0.40857 0.0
O264 O 1.11531 0.53005 0.47188 0.0
O265 O 1.07302 0.56881 0.4728 0.0
O266 O 0.13134 0.63255 0.42238 0.0
O267 O 0.17286 0.59242 0.42095 0.0
H268 H 0.97545 0.50315 0.46631 0.0
H269 H 0.89774 0.42547 0.47388 0.0
H270 H 0.98151 0.36035 0.5022 0.0
H271 H 1.05885 0.43803 0.49466 0.0
H272 H 0.31428 0.85371 0.49692 0.0
H273 H 0.23731 0.77512 0.49056 0.0
H274 H 0.39885 0.78061 0.48237 0.0
H275 H 0.32136 0.70168 0.47667 0.0
H276 H 0.13533 0.65743 0.33001 0.0
H277 H 1.11811 0.51177 0.33992 0.0
H278 H 0.13051 0.52761 0.38387 0.0
H279 H 0.1456 0.6719 0.37391 0.0
C280 C 0.65869 0.96963 0.81625 0.0
C281 C 0.69751 0.96269 0.80725 0.0
C282 C 0.66083 0.87769 0.8247 0.0
C283 C 0.69837 0.91783 0.81122 0.0
C284 C 0.6218 0.88482 0.8334 0.0
C285 C 0.62085 0.92945 0.8293 0.0
U286 U 0.65686 0.09079 0.78934 0.0
O287 O 0.61828 0.12757 0.80661 0.0
O288 O 0.69907 0.16899 0.80322 0.0
C289 C 0.65934 0.17004 0.81077 0.0
C290 C 0.65998 1.01964 0.81546 0.0
C291 C 0.65823 0.21886 0.81149 0.0
C292 C 0.62076 0.26691 0.8284 0.0
C293 C 0.6197 0.22127 0.82401 0.0
C294 C 0.69882 0.31047 0.8075 0.0
C295 C 0.66049 0.31312 0.82045 0.0
C296 C 0.69789 0.26463 0.8033 0.0
C297 C 0.64457 0.09366 0.71587 0.0
C298 C 0.59616 1.07293 0.6779 0.0
C299 C 0.68351 0.13414 0.67733 0.0
C300 C 0.68662 0.12782 0.7026 0.0
C301 C 0.63836 0.10617 0.66438 0.0
C302 C 0.59926 1.0668 0.7031 0.0
C303 C 0.64897 1.0786 0.74131 0.0
O304 O 0.69952 1.05933 0.80713 0.0
O305 O 0.61893 1.02035 0.81042 0.0
O306 O 0.61046 1.06165 0.75598 0.0
O307 O 0.69175 0.10256 0.75297 0.0
H308 H 0.72794 0.99236 0.7974 0.0
H309 H 0.72899 0.91499 0.8036 0.0
H310 H 0.59224 0.85647 0.84419 0.0
H311 H 0.59077 0.93308 0.83712 0.0
H312 H 0.59061 0.26561 0.83884 0.0
H313 H 0.58901 0.18757 0.8313 0.0
H314 H 0.73012 0.34394 0.8005 0.0
H315 H 0.72894 0.26531 0.79395 0.0
H316 H 0.5608 1.04986 0.66888 0.0
H317 H 0.71684 0.16068 0.66791 0.0
H318 H 0.72246 0.14862 0.71156 0.0
H319 H 0.56634 1.03914 0.71242 0.0
C320 C 0.74869 0.58299 0.14465 0.0
C321 C 0.7579 0.54692 0.13383 0.0
C322 C 0.84082 0.5815 0.15412 0.0
C323 C 0.80294 0.54642 0.13827 0.0
C324 C 0.83104 0.61749 0.16478 0.0
C325 C 0.78648 0.61826 0.16011 0.0
U326 U 0.62152 0.58167 0.12121 0.0
O327 O 0.54785 0.54039 0.1395 0.0
O328 O 0.58872 0.62122 0.1413 0.0
C329 C 0.54738 0.5805 0.14702 0.0
C330 C 0.6987 0.58157 0.14315 0.0
C331 C 0.49829 0.58115 0.14768 0.0
C332 C 0.44927 0.61714 0.1651 0.0
C333 C 0.49514 0.61843 0.1612 0.0
C334 C 0.40699 0.54133 0.14174 0.0
C335 C 0.40358 0.57838 0.15566 0.0
C336 C 0.45303 0.54251 0.13799 0.0
C337 C 0.633 0.58502 0.04747 0.0
C338 C 0.60993 0.55563 1.00525 0.0
C339 C 0.69076 0.62645 0.01382 0.0
C340 C 0.6794 0.62243 0.03893 0.0
C341 C 0.65583 0.59367 0.99639 0.0
C342 C 0.59886 0.5514 0.03028 0.0
C343 C 0.61569 0.58407 0.07309 0.0
O344 O 0.69708 0.62213 0.13825 0.0
O345 O 0.65812 0.54109 0.13591 0.0
O346 O 0.59684 0.54256 0.08551 0.0
O347 O 0.63857 0.62414 0.08695 0.0
H348 H 0.72993 0.51844 0.12207 0.0
H349 H 0.80765 0.51812 0.12913 0.0
H350 H 0.85717 0.64486 0.17753 0.0
H351 H 0.78092 0.64601 0.16937 0.0
H352 H 0.44991 0.64628 0.17629 0.0
H353 H 0.52843 0.64835 0.16954 0.0
H354 H 0.37396 0.51091 0.13358 0.0
H355 H 0.45291 0.51249 0.12775 0.0
H356 H 0.58137 0.53 0.99281 0.0
H357 H 0.72694 0.65575 1.00811 0.0
H358 H 0.70651 0.64933 0.05156 0.0
H359 H 0.56239 0.52276 0.03612 0.0
C360 C 0.30462 0.6177 0.17143 0.0
C361 C 0.25868 0.57262 0.17048 0.0
H362 H 0.38399 0.65563 0.16713 0.0
C363 C 0.26117 0.5295 0.16451 0.0
H364 H 0.30521 0.6521 0.17571 0.0
C365 C 0.30712 0.53128 0.15982 0.0
C366 C 0.35336 0.57641 0.16063 0.0
H367 H 0.22728 0.49379 0.16353 0.0
H368 H 0.30603 0.49658 0.15587 0.0
C369 C 0.35058 0.61959 0.16656 0.0
C370 C 0.79382 0.27655 0.48614 0.0
C371 C 0.78914 0.24659 0.50637 0.0
H372 H 0.84024 0.34084 0.46447 0.0
C373 C 0.83275 0.26208 0.52041 0.0
H374 H 0.76216 0.26579 0.4743 0.0
C375 C 0.87826 0.30612 0.51486 0.0
C376 C 0.88276 0.33672 0.4948 0.0
H377 H 0.83161 0.24049 0.53604 0.0
H378 H 0.90988 0.31652 0.52672 0.0
C379 C 0.83931 0.32016 0.48043 0.0
C380 C 0.62132 0.7396 0.84007 0.0
C381 C 0.66668 0.73921 0.84016 0.0
H382 H 0.5832 0.78067 0.83482 0.0
C383 C 0.70994 0.78509 0.83517 0.0
H384 H 0.58683 0.70556 0.84356 0.0
C385 C 0.70806 0.82901 0.83032 0.0
C386 C 0.6627 0.82965 0.83 0.0
H387 H 0.74585 0.78729 0.83499 0.0
H388 H 0.74286 0.86279 0.82712 0.0
C389 C 0.61936 0.78352 0.83508 0.0
C390 C 0.93735 0.53604 0.16219 0.0
C391 C 0.98023 0.57812 0.17171 0.0
H392 H 0.8619 0.5033 0.14945 0.0
C393 C 0.97679 0.62148 0.17495 0.0
H394 H 0.9379 0.50188 0.1589 0.0
C395 C 0.93272 0.62263 0.16917 0.0
C396 C 0.88927 0.58037 0.15988 0.0
H397 H 1.00855 0.65514 0.18182 0.0
H398 H 0.93357 0.65757 0.17173 0.0
C399 C 0.89318 0.53709 0.15645 0.0
C400 C 0.4613 0.96763 0.4962 0.0
C401 C 0.50527 0.96953 0.50468 0.0
H402 H 0.38507 0.9236 0.48469 0.0
C403 C 0.50237 0.92307 0.50823 0.0
H404 H 0.46112 1.00186 0.49294 0.0
C405 C 0.45776 0.87719 0.50362 0.0
C406 C 0.41353 0.87517 0.49513 0.0
H407 H 0.53476 0.92198 0.5147 0.0
H408 H 0.45805 0.84313 0.50713 0.0
C409 C 0.41683 0.9219 0.49154 0.0
C410 C 0.70847 0.45497 0.83182 0.0
C411 C 0.66484 0.45686 0.83709 0.0
H412 H 0.74201 0.41047 0.82341 0.0
C413 C 0.61984 0.41082 0.83666 0.0
H414 H 0.74413 0.48895 0.83199 0.0
C415 C 0.61842 0.36532 0.83112 0.0
C416 C 0.66205 0.363 0.82599 0.0
H417 H 0.58507 0.40983 0.84028 0.0
H418 H 0.58238 0.33192 0.83057 0.0
C419 C 0.70713 0.4093 0.8266 0.0
C420 C 0.66057 0.81307 0.50826 0.0
C421 C 0.63219 0.8214 0.52556 0.0
H422 H 0.68699 0.7653 0.49602 0.0
C423 C 0.59997 0.78251 0.54077 0.0
H424 H 0.68585 0.84266 0.49639 0.0
C425 C 0.59947 0.7373 0.54016 0.0
C426 C 0.63231 0.73091 0.52483 0.0
H427 H 0.57719 0.78801 0.554 0.0
H428 H 0.57585 0.70869 0.55287 0.0
C429 C 0.66089 0.76837 0.50798 0.0
C430 C 0.86118 0.49004 0.81208 0.0
C431 C 0.8917 0.538 0.80284 0.0
H432 H 0.85841 0.42749 0.82963 0.0
C433 C 0.94201 0.55412 0.7985 0.0
H434 H 0.82222 0.47647 0.81551 0.0
C435 C 0.963 0.52648 0.80696 0.0
C436 C 0.93386 0.48215 0.81984 0.0
H437 H 0.96616 0.59046 0.79086 0.0
H438 H 1.003 0.54308 0.80594 0.0
C439 C 0.88207 0.46215 0.8204 0.0
C440 C 0.43329 0.875 0.21616 0.0
C441 C 0.40732 0.82844 0.22734 0.0
H442 H 0.49299 0.94963 0.21894 0.0
C443 C 0.4281 0.81884 0.24788 0.0
H444 H 0.41794 0.88352 0.20041 0.0
C445 C 0.47161 0.85677 0.25848 0.0
C446 C 0.4947 0.90493 0.2488 0.0
H447 H 0.4091 0.78287 0.25657 0.0
H448 H 0.48541 0.84921 0.2751 0.0
C449 C 0.47651 0.91295 0.22682 0.0
C450 C 0.73253 0.43704 0.48229 0.0
C451 C 0.73665 0.39411 0.48122 0.0
H452 H 0.76097 0.50953 0.49766 0.0
C453 C 0.78047 0.39661 0.48986 0.0
H454 H 0.6994 0.43635 0.47555 0.0
C455 C 0.81635 0.43879 0.50224 0.0
C456 C 0.80862 0.47902 0.50646 0.0
H457 H 0.78436 0.36401 0.48966 0.0
H458 H 0.84739 0.43779 0.51068 0.0
C459 C 0.76825 0.47921 0.49481 0.0
C460 C 0.37787 0.62246 0.88295 0.0
C461 C 0.42175 0.6386 0.89642 0.0
H462 H 0.30359 0.60892 0.8831 0.0
C463 C 0.42846 0.66478 0.9184 0.0
H464 H 0.37179 0.60207 0.86596 0.0
C465 C 0.38949 0.66944 0.92817 0.0
C466 C 0.3431 0.64726 0.91625 0.0
H467 H 0.46247 0.67829 0.92888 0.0
H468 H 0.3944 0.68681 0.94595 0.0
C469 C 0.33873 0.62659 0.89282 0.0
C470 C 0.78639 0.31795 0.1539 0.0
C471 C 0.81994 0.36688 0.16125 0.0
H472 H 0.71307 0.25655 0.15691 0.0
C473 C 0.80137 0.39573 0.1718 0.0
H474 H 0.79952 0.29484 0.14564 0.0
C475 C 0.75119 0.37399 0.17794 0.0
C476 C 0.71912 0.32279 0.17413 0.0
H477 H 0.82633 0.43392 0.17724 0.0
H478 H 0.73878 0.39605 0.18791 0.0
C479 C 0.73639 0.29604 0.1603 0.0
C480 C 1.09911 0.52842 0.10793 0.0
C481 C 1.09427 0.56868 0.11604 0.0
H482 H 1.07937 0.47137 0.08112 0.0
C483 C 1.06558 0.58322 0.10236 0.0
H484 H 0.12138 0.51673 0.11807 0.0
C485 C 1.04255 0.55813 0.08069 0.0
C486 C 1.04751 0.51778 0.07244 0.0
H487 H 1.06119 0.61415 0.10831 0.0
H488 H 1.0222 0.57139 0.07007 0.0
C489 C 1.07532 0.50271 0.08663 0.0
C490 C 0.72447 0.16653 0.444 0.0
C491 C 0.67711 0.13228 0.45279 0.0
H492 H 0.76636 0.22158 0.41724 0.0
C493 C 0.6348 0.12678 0.4408 0.0
H494 H 0.75771 0.1718 0.45315 0.0
C495 C 0.63969 0.15537 0.42038 0.0
C496 C 0.68707 0.18989 0.41156 0.0
H497 H 0.59792 0.10019 0.44715 0.0
H498 H 0.60634 0.14961 0.41116 0.0
C499 C 0.72943 0.19521 0.42359 0.0
C500 C 0.64199 0.54584 0.76448 0.0
C501 C 0.65996 0.58593 0.78097 0.0
H502 H 0.64187 0.52247 0.72759 0.0
C503 C 0.694 0.63392 0.77294 0.0
H504 H 0.61579 0.50848 0.77032 0.0
C505 C 0.70918 0.64192 0.74867 0.0
C506 C 0.69054 0.60207 0.73196 0.0
H507 H 0.70815 0.66555 0.78528 0.0
H508 H 0.73512 0.67942 0.74292 0.0
C509 C 0.65728 0.55381 0.74015 0.0
C510 C 0.67156 0.12207 0.59595 0.0
C511 C 0.62754 0.11529 0.58504 0.0
H512 H 0.70951 0.12393 0.62904 0.0
C513 C 0.58762 0.10627 0.6004 0.0
H514 H 0.70308 0.12905 0.58473 0.0
C515 C 0.59142 0.10406 0.62586 0.0
C516 C 0.63522 0.11039 0.63698 0.0
H517 H 0.55321 0.10118 0.59273 0.0
H518 H 0.55987 0.09784 0.63683 0.0
C519 C 0.67532 0.11956 0.6215 0.0
C520 C 0.70517 0.65354 0.93382 0.0
C521 C 0.6839 0.61255 0.91767 0.0
H522 H 0.71261 0.68037 0.97058 0.0
C523 C 0.65356 0.56512 0.92755 0.0
H524 H 0.72861 0.69069 0.9269 0.0
C525 C 0.64504 0.55889 0.95288 0.0
C526 C 0.66617 0.59998 0.9692 0.0
H527 H 0.63687 0.53262 0.91573 0.0
H528 H 0.62227 0.52154 0.95962 0.0
C529 C 0.69632 0.64745 0.95908 0.0
C530 C 1.10203 0.59114 0.26227 0.0
C531 C 0.12045 0.56241 0.2514 0.0
H532 H 1.08779 0.61915 0.29541 0.0
C533 C 0.14095 0.54117 0.26678 0.0
H534 H 1.0857 0.60782 0.25105 0.0
C535 C 0.14277 0.54802 0.29221 0.0
C536 C 0.12371 0.57607 0.30337 0.0
H537 H 0.1558 0.51903 0.25911 0.0
H538 H 0.15989 0.53165 0.30306 0.0
C539 C 1.10345 0.59771 0.28784 0.0
loop_
_geom_bond_atom_site_label_1
_geom_bond_atom_site_label_2
_geom_bond_distance
_geom_bond_site_symmetry_2
_ccdc_geom_bond_type
Tb0 C2 2.809 . S
Tb0 O20 2.484 . S
Tb0 O21 2.440 . S
Tb0 O22 2.658 . S
Tb0 O23 2.409 . S
Tb0 O24 2.378 . S
Tb0 O28 2.325 . S
Tb0 O31 2.341 1_455 S
Tb1 C11 2.809 . S
Tb1 O22 2.325 1_655 S
Tb1 O25 2.341 1_655 S
Tb1 O26 2.484 . S
Tb1 O27 2.440 . S
Tb1 O28 2.658 1_655 S
Tb1 O29 2.408 . S
Tb1 O30 2.378 . S
C2 Tb0 2.809 . S
C2 C3 1.514 . S
C2 O20 1.248 . S
C2 O21 1.266 . S
C3 C2 1.514 . S
C3 C4 1.359 . S
C3 C8 1.348 . S
C4 C3 1.359 . S
C4 C5 1.380 . S
C4 H32 0.929 . S
C5 C4 1.380 . S
C5 C6 1.347 . S
C5 H33 0.931 . S
C6 C5 1.347 . S
C6 C7 1.369 . S
C7 C6 1.369 . S
C7 C8 1.408 . S
C7 H34 0.930 . S
C8 C3 1.348 . S
C8 C7 1.408 . S
C8 H35 0.930 . S
C9 O22 1.281 . S
C9 O23 1.254 . S
C10 O24 1.236 . S
C10 O25 1.266 . S
C11 Tb1 2.809 . S
C11 C12 1.514 . S
C11 O26 1.248 . S
C11 O27 1.266 . S
C12 C11 1.514 . S
C12 C13 1.359 . S
C12 C17 1.348 . S
C13 C12 1.359 . S
C13 C14 1.380 . S
C13 H36 0.929 . S
C14 C13 1.380 . S
C14 C15 1.347 . S
C14 H37 0.931 . S
C15 C14 1.347 . S
C15 C16 1.369 . S
C16 C15 1.369 . S
C16 C17 1.408 . S
C16 H38 0.930 . S
C17 C12 1.348 . S
C17 C16 1.408 . S
C17 H39 0.930 . S
C18 O28 1.281 . S
C18 O29 1.252 1_455 S
C19 O30 1.236 . S
C19 O31 1.266 . S
O20 Tb0 2.484 . S
O20 C2 1.248 . S
O21 Tb0 2.440 . S
O21 C2 1.266 . S
O22 Tb0 2.658 . S
O22 Tb1 2.325 1_455 S
O22 C9 1.281 . S
O23 Tb0 2.409 . S
O23 C9 1.254 . S
O24 Tb0 2.378 . S
O24 C10 1.236 . S
O25 Tb1 2.341 1_455 S
O25 C10 1.266 . S
O26 Tb1 2.484 . S
O26 C11 1.248 . S
O27 Tb1 2.440 . S
O27 C11 1.266 . S
O28 Tb0 2.325 . S
O28 Tb1 2.658 1_455 S
O28 C18 1.281 . S
O29 Tb1 2.408 . S
O29 C18 1.252 1_655 S
O30 Tb1 2.378 . S
O30 C19 1.236 . S
O31 Tb0 2.341 1_655 S
O31 C19 1.266 . S
H32 C4 0.929 . S
H33 C5 0.931 . S
H34 C7 0.930 . S
H35 C8 0.930 . S
H36 C13 0.929 . S
H37 C14 0.931 . S
H38 C16 0.930 . S
H39 C17 0.930 . S
Tb40 C42 2.809 . S
Tb40 O60 2.484 . S
Tb40 O61 2.440 . S
Tb40 O62 2.658 1_565 S
Tb40 O63 2.409 1_565 S
Tb40 O64 2.378 . S
Tb40 O68 2.325 1_565 S
Tb40 O71 2.341 1_565 S
Tb41 C51 2.809 . S
Tb41 O62 2.325 . S
Tb41 O65 2.341 1_545 S
Tb41 O66 2.484 . S
Tb41 O67 2.440 . S
Tb41 O68 2.658 . S
Tb41 O69 2.409 . S
Tb41 O70 2.378 . S
C42 Tb40 2.809 . S
C42 C43 1.514 . S
C42 O60 1.248 . S
C42 O61 1.266 . S
C43 C42 1.514 . S
C43 C44 1.359 . S
C43 C48 1.348 . S
C44 C43 1.359 . S
C44 C45 1.380 . S
C44 H72 0.929 . S
C45 C44 1.380 . S
C45 C46 1.347 . S
C45 H73 0.931 . S
C46 C45 1.347 . S
C46 C47 1.369 . S
C47 C46 1.369 . S
C47 C48 1.408 . S
C47 H74 0.930 . S
C48 C43 1.348 . S
C48 C47 1.408 . S
C48 H75 0.930 . S
C49 O62 1.281 . S
C49 O63 1.254 . S
C50 O64 1.236 . S
C50 O65 1.266 . S
C51 Tb41 2.809 . S
C51 C52 1.514 . S
C51 O66 1.248 . S
C51 O67 1.266 . S
C52 C51 1.514 . S
C52 C53 1.359 . S
C52 C57 1.348 . S
C53 C52 1.359 . S
C53 C54 1.380 . S
C53 H76 0.929 . S
C54 C53 1.380 . S
C54 C55 1.347 . S
C54 H77 0.931 . S
C55 C54 1.347 . S
C55 C56 1.369 . S
C56 C55 1.369 . S
C56 C57 1.408 . S
C56 H78 0.930 . S
C57 C52 1.348 . S
C57 C56 1.408 . S
C57 H79 0.930 . S
C58 O68 1.281 . S
C58 O69 1.254 . S
C59 O70 1.236 . S
C59 O71 1.266 . S
O60 Tb40 2.484 . S
O60 C42 1.248 . S
O61 Tb40 2.440 . S
O61 C42 1.266 . S
O62 Tb40 2.658 1_545 S
O62 Tb41 2.325 . S
O62 C49 1.281 . S
O63 Tb40 2.409 1_545 S
O63 C49 1.254 . S
O64 Tb40 2.378 . S
O64 C50 1.236 . S
O65 Tb41 2.341 1_565 S
O65 C50 1.266 . S
O66 Tb41 2.484 . S
O66 C51 1.248 . S
O67 Tb41 2.440 . S
O67 C51 1.266 . S
O68 Tb40 2.325 1_545 S
O68 Tb41 2.658 . S
O68 C58 1.281 . S
O69 Tb41 2.409 . S
O69 C58 1.254 . S
O70 Tb41 2.378 . S
O70 C59 1.236 . S
O71 Tb40 2.341 1_545 S
O71 C59 1.266 . S
H72 C44 0.929 . S
H73 C45 0.931 . S
H74 C47 0.930 . S
H75 C48 0.930 . S
H76 C53 0.929 . S
H77 C54 0.931 . S
H78 C56 0.930 . S
H79 C57 0.930 . S
Tb80 C82 2.809 . S
Tb80 O100 2.484 . S
Tb80 O101 2.440 . S
Tb80 O102 2.658 . S
Tb80 O103 2.409 . S
Tb80 O104 2.378 . S
Tb80 O108 2.325 . S
Tb80 O111 2.341 . S
Tb81 C91 2.809 . S
Tb81 O102 2.325 . S
Tb81 O105 2.341 . S
Tb81 O106 2.484 . S
Tb81 O107 2.440 . S
Tb81 O108 2.658 . S
Tb81 O109 2.409 . S
Tb81 O110 2.378 . S
C82 Tb80 2.809 . S
C82 C83 1.514 . S
C82 O100 1.248 . S
C82 O101 1.266 . S
C83 C82 1.514 . S
C83 C84 1.359 . S
C83 C88 1.348 . S
C84 C83 1.359 . S
C84 C85 1.380 . S
C84 H112 0.929 . S
C85 C84 1.380 . S
C85 C86 1.347 . S
C85 H113 0.931 . S
C86 C85 1.347 . S
C86 C87 1.369 . S
C87 C86 1.369 . S
C87 C88 1.408 . S
C87 H114 0.930 . S
C88 C83 1.348 . S
C88 C87 1.408 . S
C88 H115 0.930 . S
C89 O102 1.281 . S
C89 O103 1.254 . S
C90 O104 1.236 . S
C90 O105 1.266 . S
C91 Tb81 2.809 . S
C91 C92 1.514 . S
C91 O106 1.248 . S
C91 O107 1.266 . S
C92 C91 1.514 . S
C92 C93 1.359 . S
C92 C97 1.348 . S
C93 C92 1.359 . S
C93 C94 1.380 . S
C93 H116 0.929 . S
C94 C93 1.380 . S
C94 C95 1.347 . S
C94 H117 0.931 . S
C95 C94 1.347 . S
C95 C96 1.369 . S
C96 C95 1.369 . S
C96 C97 1.408 . S
C96 H118 0.930 . S
C97 C92 1.348 . S
C97 C96 1.408 . S
C97 H119 0.930 . S
C98 O108 1.281 . S
C98 O109 1.254 . S
C99 O110 1.236 . S
C99 O111 1.266 . S
O100 Tb80 2.484 . S
O100 C82 1.248 . S
O101 Tb80 2.440 . S
O101 C82 1.266 . S
O102 Tb80 2.658 . S
O102 Tb81 2.325 . S
O102 C89 1.281 . S
O103 Tb80 2.409 . S
O103 C89 1.254 . S
O104 Tb80 2.378 . S
O104 C90 1.236 . S
O105 Tb81 2.341 . S
O105 C90 1.266 . S
O106 Tb81 2.484 . S
O106 C91 1.248 . S
O107 Tb81 2.440 . S
O107 C91 1.266 . S
O108 Tb80 2.325 . S
O108 Tb81 2.658 . S
O108 C98 1.281 . S
O109 Tb81 2.409 . S
O109 C98 1.254 . S
O110 Tb81 2.378 . S
O110 C99 1.236 . S
O111 Tb80 2.341 . S
O111 C99 1.266 . S
H112 C84 0.929 . S
H113 C85 0.931 . S
H114 C87 0.930 . S
H115 C88 0.930 . S
H116 C93 0.929 . S
H117 C94 0.931 . S
H118 C96 0.930 . S
H119 C97 0.930 . S
C120 C121 1.264 . S
C120 C125 1.479 . S
C120 C130 1.465 . S
C121 C120 1.264 . S
C121 C123 1.339 . S
C121 H148 0.931 . S
C122 C123 1.395 . S
C122 C124 1.320 . S
C123 C121 1.339 . S
C123 C122 1.395 . S
C123 H149 0.929 . S
C124 C122 1.320 . S
C124 C125 1.405 . S
C124 H150 0.930 . S
C125 C120 1.479 . S
C125 C124 1.405 . S
C125 H151 0.931 . S
U126 O127 2.454 . S
U126 O128 2.458 1_545 S
U126 C129 2.984 1_545 S
U126 C130 2.847 . S
U126 C143 2.882 . S
U126 O144 2.441 . S
U126 O145 2.420 . S
U126 O146 2.455 . S
U126 O147 2.449 . S
O127 U126 2.454 . S
O127 C129 1.353 1_545 S
O128 U126 2.458 1_565 S
O128 C129 1.286 . S
C129 U126 2.984 1_565 S
C129 O127 1.353 1_565 S
C129 O128 1.286 . S
C129 C131 1.363 . S
C130 C120 1.465 . S
C130 U126 2.847 . S
C130 O144 1.249 . S
C130 O145 1.202 . S
C131 C129 1.363 . S
C131 C133 1.408 . S
C131 C136 1.342 . S
C132 C133 1.310 . S
C132 C135 1.461 . S
C132 H152 0.932 . S
C133 C131 1.408 . S
C133 C132 1.310 . S
C133 H153 0.930 . S
C134 C135 1.474 . S
C134 C136 1.285 . S
C134 H154 0.929 . S
C135 C132 1.461 . S
C135 C134 1.474 . S
C136 C131 1.342 . S
C136 C134 1.285 . S
C136 H155 0.930 . S
C137 C140 1.424 . S
C137 C142 1.245 . S
C137 C143 1.428 . S
C138 C141 1.260 . S
C138 C142 1.477 . S
C138 H156 0.932 1_545 S
C139 C140 1.384 . S
C139 C141 1.479 . S
C139 H157 0.929 . S
C140 C137 1.424 . S
C140 C139 1.384 . S
C140 H158 0.928 . S
C141 C138 1.260 . S
C141 C139 1.479 . S
C142 C137 1.245 . S
C142 C138 1.477 . S
C142 H159 0.932 1_545 S
C143 U126 2.882 . S
C143 C137 1.428 . S
C143 O146 1.301 . S
C143 O147 1.282 . S
O144 U126 2.441 . S
O144 C130 1.249 . S
O145 U126 2.420 . S
O145 C130 1.202 . S
O146 U126 2.455 . S
O146 C143 1.301 . S
O147 U126 2.449 . S
O147 C143 1.282 . S
H148 C121 0.931 . S
H149 C123 0.929 . S
H150 C124 0.930 . S
H151 C125 0.931 . S
H152 C132 0.932 . S
H153 C133 0.930 . S
H154 C134 0.929 . S
H155 C136 0.930 . S
H156 C138 0.932 1_565 S
H157 C139 0.929 . S
H158 C140 0.928 . S
H159 C142 0.932 1_565 S
C160 C161 1.264 . S
C160 C165 1.479 . S
C160 C170 1.465 . S
C161 C160 1.264 . S
C161 C163 1.339 . S
C161 H188 0.931 . S
C162 C163 1.395 . S
C162 C164 1.320 . S
C163 C161 1.339 . S
C163 C162 1.395 . S
C163 H189 0.929 . S
C164 C162 1.320 . S
C164 C165 1.405 . S
C164 H190 0.930 . S
C165 C160 1.479 . S
C165 C164 1.405 . S
C165 H191 0.931 . S
U166 O167 2.454 . S
U166 O168 2.458 . S
U166 C169 2.984 . S
U166 C170 2.847 . S
U166 C183 2.882 . S
U166 O184 2.441 . S
U166 O185 2.420 . S
U166 O186 2.455 . S
U166 O187 2.449 . S
O167 U166 2.454 . S
O167 C169 1.353 . S
O168 U166 2.458 . S
O168 C169 1.286 . S
C169 U166 2.984 . S
C169 O167 1.353 . S
C169 O168 1.286 . S
C169 C171 1.363 . S
C170 C160 1.465 . S
C170 U166 2.847 . S
C170 O184 1.249 . S
C170 O185 1.202 . S
C171 C169 1.363 . S
C171 C173 1.408 . S
C171 C176 1.342 . S
C172 C173 1.310 . S
C172 C175 1.461 . S
C172 H192 0.932 . S
C173 C171 1.408 . S
C173 C172 1.310 . S
C173 H193 0.930 . S
C174 C175 1.474 . S
C174 C176 1.285 . S
C174 H194 0.929 . S
C175 C172 1.461 . S
C175 C174 1.474 . S
C176 C171 1.342 . S
C176 C174 1.285 . S
C176 H195 0.930 . S
C177 C180 1.424 . S
C177 C182 1.245 . S
C177 C183 1.428 . S
C178 C181 1.260 . S
C178 C182 1.477 . S
C178 H196 0.932 . S
C179 C180 1.384 . S
C179 C181 1.479 . S
C179 H197 0.929 . S
C180 C177 1.424 . S
C180 C179 1.384 . S
C180 H198 0.928 . S
C181 C178 1.260 . S
C181 C179 1.479 . S
C182 C177 1.245 . S
C182 C178 1.477 . S
C182 H199 0.932 . S
C183 U166 2.882 . S
C183 C177 1.428 . S
C183 O186 1.301 . S
C183 O187 1.282 . S
O184 U166 2.441 . S
O184 C170 1.249 . S
O185 U166 2.420 . S
O185 C170 1.202 . S
O186 U166 2.455 . S
O186 C183 1.301 . S
O187 U166 2.449 . S
O187 C183 1.282 . S
H188 C161 0.931 . S
H189 C163 0.929 . S
H190 C164 0.930 . S
H191 C165 0.931 . S
H192 C172 0.932 . S
H193 C173 0.930 . S
H194 C174 0.929 . S
H195 C176 0.930 . S
H196 C178 0.932 . S
H197 C179 0.929 . S
H198 C180 0.928 . S
H199 C182 0.932 . S
C200 C201 1.264 . S
C200 C205 1.479 . S
C200 C210 1.465 . S
C201 C200 1.264 . S
C201 C203 1.339 . S
C201 H228 0.931 . S
C202 C203 1.395 . S
C202 C204 1.320 . S
C203 C201 1.339 . S
C203 C202 1.395 . S
C203 H229 0.929 . S
C204 C202 1.320 . S
C204 C205 1.405 . S
C204 H230 0.930 . S
C205 C200 1.479 . S
C205 C204 1.405 . S
C205 H231 0.931 . S
U206 O207 2.454 1_655 S
U206 O208 2.458 1_655 S
U206 C209 2.984 1_655 S
U206 C210 2.847 . S
U206 C223 2.882 . S
U206 O224 2.441 . S
U206 O225 2.420 . S
U206 O226 2.455 1_655 S
U206 O227 2.449 . S
O207 U206 2.454 1_455 S
O207 C209 1.353 . S
O208 U206 2.458 1_455 S
O208 C209 1.286 . S
C209 U206 2.984 1_455 S
C209 O207 1.353 . S
C209 O208 1.286 . S
C209 C211 1.363 . S
C210 C200 1.465 . S
C210 U206 2.847 . S
C210 O224 1.249 . S
C210 O225 1.202 . S
C211 C209 1.363 . S
C211 C213 1.408 . S
C211 C216 1.342 . S
C212 C213 1.310 . S
C212 C215 1.461 . S
C212 H232 0.932 . S
C213 C211 1.408 . S
C213 C212 1.310 . S
C213 H233 0.930 . S
C214 C215 1.474 . S
C214 C216 1.285 . S
C214 H234 0.929 . S
C215 C212 1.461 . S
C215 C214 1.474 . S
C216 C211 1.342 . S
C216 C214 1.285 . S
C216 H235 0.930 . S
C217 C220 1.424 . S
C217 C222 1.250 1_655 S
C217 C223 1.428 . S
C218 C221 1.260 . S
C218 C222 1.468 1_554 S
C218 H236 0.932 . S
C219 C220 1.384 1_554 S
C219 C221 1.479 1_655 S
C219 H237 0.929 . S
C220 C217 1.424 . S
C220 C219 1.384 1_556 S
C220 H238 0.928 . S
C221 C218 1.260 . S
C221 C219 1.479 1_455 S
C222 C217 1.250 1_455 S
C222 C218 1.468 1_556 S
C222 H239 0.936 . S
C223 U206 2.882 . S
C223 C217 1.428 . S
C223 O226 1.301 1_655 S
C223 O227 1.282 . S
O224 U206 2.441 . S
O224 C210 1.249 . S
O225 U206 2.420 . S
O225 C210 1.202 . S
O226 U206 2.455 1_455 S
O226 C223 1.301 1_455 S
O227 U206 2.449 . S
O227 C223 1.282 . S
H228 C201 0.931 . S
H229 C203 0.929 . S
H230 C204 0.930 . S
H231 C205 0.931 . S
H232 C212 0.932 . S
H233 C213 0.930 . S
H234 C214 0.929 . S
H235 C216 0.930 . S
H236 C218 0.932 . S
H237 C219 0.929 . S
H238 C220 0.928 . S
H239 C222 0.936 . S
C240 C241 1.264 . S
C240 C245 1.479 . S
C240 C250 1.465 . S
C241 C240 1.264 . S
C241 C243 1.339 . S
C241 H268 0.931 . S
C242 C243 1.395 . S
C242 C244 1.320 . S
C243 C241 1.339 . S
C243 C242 1.395 . S
C243 H269 0.929 . S
C244 C242 1.320 . S
C244 C245 1.405 . S
C244 H270 0.930 . S
C245 C240 1.479 . S
C245 C244 1.405 . S
C245 H271 0.931 . S
U246 O247 2.454 . S
U246 O248 2.458 . S
U246 C249 2.984 . S
U246 C250 2.847 1_455 S
U246 C263 2.882 . S
U246 O264 2.447 . S
U246 O265 2.420 1_455 S
U246 O266 2.455 . S
U246 O267 2.449 1_455 S
O247 U246 2.454 . S
O247 C249 1.353 . S
O248 U246 2.458 . S
O248 C249 1.286 . S
C249 U246 2.984 . S
C249 O247 1.353 . S
C249 O248 1.286 . S
C249 C251 1.363 . S
C250 C240 1.465 . S
C250 U246 2.847 1_655 S
C250 O264 1.233 1_655 S
C250 O265 1.202 . S
C251 C249 1.363 . S
C251 C253 1.408 . S
C251 C256 1.342 . S
C252 C253 1.310 . S
C252 C255 1.461 . S
C252 H272 0.932 . S
C253 C251 1.408 . S
C253 C252 1.310 . S
C253 H273 0.930 . S
C254 C255 1.474 . S
C254 C256 1.285 . S
C254 H274 0.929 . S
C255 C252 1.461 . S
C255 C254 1.474 . S
C256 C251 1.342 . S
C256 C254 1.285 . S
C256 H275 0.930 . S
C257 C260 1.424 1_455 S
C257 C262 1.245 . S
C257 C263 1.428 . S
C258 C261 1.260 . S
C258 C262 1.477 . S
C258 H276 0.932 . S
C259 C260 1.384 . S
C259 C261 1.479 1_655 S
C259 H277 0.929 . S
C260 C257 1.424 1_655 S
C260 C259 1.384 . S
C260 H278 0.928 . S
C261 C258 1.260 . S
C261 C259 1.479 1_455 S
C262 C257 1.245 . S
C262 C258 1.477 . S
C262 H279 0.932 . S
C263 U246 2.882 . S
C263 C257 1.428 . S
C263 O266 1.301 . S
C263 O267 1.282 1_455 S
O264 U246 2.447 . S
O264 C250 1.233 1_455 S
O265 U246 2.420 1_655 S
O265 C250 1.202 . S
O266 U246 2.455 . S
O266 C263 1.301 . S
O267 U246 2.449 1_655 S
O267 C263 1.282 1_655 S
H268 C241 0.931 . S
H269 C243 0.929 . S
H270 C244 0.930 . S
H271 C245 0.931 . S
H272 C252 0.932 . S
H273 C253 0.930 . S
H274 C254 0.929 . S
H275 C256 0.930 . S
H276 C258 0.932 . S
H277 C259 0.929 . S
H278 C260 0.928 . S
H279 C262 0.932 . S
C280 C281 1.264 . S
C280 C285 1.479 . S
C280 C290 1.465 . S
C281 C280 1.264 . S
C281 C283 1.339 . S
C281 H308 0.931 . S
C282 C283 1.395 . S
C282 C284 1.320 . S
C283 C281 1.339 . S
C283 C282 1.395 . S
C283 H309 0.929 . S
C284 C282 1.320 . S
C284 C285 1.405 . S
C284 H310 0.930 . S
C285 C280 1.479 . S
C285 C284 1.405 . S
C285 H311 0.931 . S
U286 O287 2.454 1_565 S
U286 O288 2.458 1_565 S
U286 C289 2.984 1_565 S
U286 C290 2.847 . S
U286 C303 2.882 . S
U286 O304 2.441 . S
U286 O305 2.420 . S
U286 O306 2.455 1_565 S
U286 O307 2.449 . S
O287 U286 2.454 1_545 S
O287 C289 1.353 . S
O288 U286 2.458 1_545 S
O288 C289 1.286 . S
C289 U286 2.984 1_545 S
C289 O287 1.353 . S
C289 O288 1.286 . S
C289 C291 1.363 . S
C290 C280 1.465 . S
C290 U286 2.847 . S
C290 O304 1.249 . S
C290 O305 1.202 . S
C291 C289 1.363 . S
C291 C293 1.408 . S
C291 C296 1.342 . S
C292 C293 1.310 . S
C292 C295 1.461 . S
C292 H312 0.932 . S
C293 C291 1.408 . S
C293 C292 1.310 . S
C293 H313 0.930 . S
C294 C295 1.474 . S
C294 C296 1.285 . S
C294 H314 0.929 . S
C295 C292 1.461 . S
C295 C294 1.474 . S
C296 C291 1.342 . S
C296 C294 1.285 . S
C296 H315 0.930 . S
C297 C300 1.424 . S
C297 C302 1.245 1_565 S
C297 C303 1.428 . S
C298 C301 1.260 . S
C298 C302 1.477 . S
C298 H316 0.932 . S
C299 C300 1.384 . S
C299 C301 1.479 1_565 S
C299 H317 0.929 . S
C300 C297 1.424 . S
C300 C299 1.384 . S
C300 H318 0.928 . S
C301 C298 1.260 . S
C301 C299 1.479 1_545 S
C302 C297 1.245 1_545 S
C302 C298 1.477 . S
C302 H319 0.932 . S
C303 U286 2.882 . S
C303 C297 1.428 . S
C303 O306 1.301 1_565 S
C303 O307 1.282 . S
O304 U286 2.441 . S
O304 C290 1.249 . S
O305 U286 2.420 . S
O305 C290 1.202 . S
O306 U286 2.455 1_545 S
O306 C303 1.301 1_545 S
O307 U286 2.449 . S
O307 C303 1.282 . S
H308 C281 0.931 . S
H309 C283 0.929 . S
H310 C284 0.930 . S
H311 C285 0.931 . S
H312 C292 0.932 . S
H313 C293 0.930 . S
H314 C294 0.929 . S
H315 C296 0.930 . S
H316 C298 0.932 . S
H317 C299 0.929 . S
H318 C300 0.928 . S
H319 C302 0.932 . S
C320 C321 1.264 . S
C320 C325 1.479 . S
C320 C330 1.465 . S
C321 C320 1.264 . S
C321 C323 1.339 . S
C321 H348 0.931 . S
C322 C323 1.395 . S
C322 C324 1.320 . S
C323 C321 1.339 . S
C323 C322 1.395 . S
C323 H349 0.929 . S
C324 C322 1.320 . S
C324 C325 1.405 . S
C324 H350 0.930 . S
C325 C320 1.479 . S
C325 C324 1.405 . S
C325 H351 0.931 . S
U326 O327 2.454 . S
U326 O328 2.458 . S
U326 C329 2.984 . S
U326 C330 2.847 . S
U326 C343 2.882 . S
U326 O344 2.441 . S
U326 O345 2.420 . S
U326 O346 2.455 . S
U326 O347 2.449 . S
O327 U326 2.454 . S
O327 C329 1.353 . S
O328 U326 2.458 . S
O328 C329 1.286 . S
C329 U326 2.984 . S
C329 O327 1.353 . S
C329 O328 1.286 . S
C329 C331 1.363 . S
C330 C320 1.465 . S
C330 U326 2.847 . S
C330 O344 1.249 . S
C330 O345 1.202 . S
C331 C329 1.363 . S
C331 C333 1.408 . S
C331 C336 1.342 . S
C332 C333 1.310 . S
C332 C335 1.461 . S
C332 H352 0.932 . S
C333 C331 1.408 . S
C333 C332 1.310 . S
C333 H353 0.930 . S
C334 C335 1.474 . S
C334 C336 1.285 . S
C334 H354 0.929 . S
C335 C332 1.461 . S
C335 C334 1.474 . S
C336 C331 1.342 . S
C336 C334 1.285 . S
C336 H355 0.930 . S
C337 C340 1.424 . S
C337 C342 1.245 . S
C337 C343 1.428 . S
C338 C341 1.260 . S
C338 C342 1.477 1_556 S
C338 H356 0.932 . S
C339 C340 1.384 . S
C339 C341 1.479 1_554 S
C339 H357 0.929 1_554 S
C340 C337 1.424 . S
C340 C339 1.384 . S
C340 H358 0.928 . S
C341 C338 1.260 . S
C341 C339 1.479 1_556 S
C342 C337 1.245 . S
C342 C338 1.477 1_554 S
C342 H359 0.932 . S
C343 U326 2.882 . S
C343 C337 1.428 . S
C343 O346 1.301 . S
C343 O347 1.282 . S
O344 U326 2.441 . S
O344 C330 1.249 . S
O345 U326 2.420 . S
O345 C330 1.202 . S
O346 U326 2.455 . S
O346 C343 1.301 . S
O347 U326 2.449 . S
O347 C343 1.282 . S
H348 C321 0.931 . S
H349 C323 0.929 . S
H350 C324 0.930 . S
H351 C325 0.931 . S
H352 C332 0.932 . S
H353 C333 0.930 . S
H354 C334 0.929 . S
H355 C336 0.930 . S
H356 C338 0.932 . S
H357 C339 0.929 1_556 S
H358 C340 0.928 . S
H359 C342 0.932 . S
C360 C361 1.387 . S
C360 H364 0.950 . S
C360 C369 1.390 . S
C361 C360 1.387 . S
C361 C363 1.387 . S
H362 C369 0.950 . S
C363 C361 1.387 . S
C363 C365 1.390 . S
C363 H367 0.950 . S
H364 C360 0.950 . S
C365 C363 1.390 . S
C365 C366 1.387 . S
C365 H368 0.950 . S
C366 C365 1.387 . S
C366 C369 1.387 . S
H367 C363 0.950 . S
H368 C365 0.950 . S
C369 C360 1.390 . S
C369 H362 0.950 . S
C369 C366 1.387 . S
C370 C371 1.387 . S
C370 H374 0.950 . S
C370 C379 1.390 . S
C371 C370 1.387 . S
C371 C373 1.387 . S
H372 C379 0.950 . S
C373 C371 1.387 . S
C373 C375 1.390 . S
C373 H377 0.950 . S
H374 C370 0.950 . S
C375 C373 1.390 . S
C375 C376 1.387 . S
C375 H378 0.950 . S
C376 C375 1.387 . S
C376 C379 1.387 . S
H377 C373 0.950 . S
H378 C375 0.950 . S
C379 C370 1.390 . S
C379 H372 0.950 . S
C379 C376 1.387 . S
C380 C381 1.387 . S
C380 H384 0.950 . S
C380 C389 1.390 . S
C381 C380 1.387 . S
C381 C383 1.387 . S
H382 C389 0.950 . S
C383 C381 1.387 . S
C383 C385 1.390 . S
C383 H387 0.950 . S
H384 C380 0.950 . S
C385 C383 1.390 . S
C385 C386 1.387 . S
C385 H388 0.950 . S
C386 C385 1.387 . S
C386 C389 1.387 . S
H387 C383 0.950 . S
H388 C385 0.950 . S
C389 C380 1.390 . S
C389 H382 0.950 . S
C389 C386 1.387 . S
C390 C391 1.387 . S
C390 H394 0.950 . S
C390 C399 1.390 . S
C391 C390 1.387 . S
C391 C393 1.387 . S
H392 C399 0.950 . S
C393 C391 1.387 . S
C393 C395 1.390 . S
C393 H397 0.950 . S
H394 C390 0.950 . S
C395 C393 1.390 . S
C395 C396 1.387 . S
C395 H398 0.950 . S
C396 C395 1.387 . S
C396 C399 1.387 . S
H397 C393 0.950 . S
H398 C395 0.950 . S
C399 C390 1.390 . S
C399 H392 0.950 . S
C399 C396 1.387 . S
C400 C401 1.387 . S
C400 H404 0.950 . S
C400 C409 1.390 . S
C401 C400 1.387 . S
C401 C403 1.387 . S
H402 C409 0.950 . S
C403 C401 1.387 . S
C403 C405 1.390 . S
C403 H407 0.950 . S
H404 C400 0.950 . S
C405 C403 1.390 . S
C405 C406 1.387 . S
C405 H408 0.950 . S
C406 C405 1.387 . S
C406 C409 1.387 . S
H407 C403 0.950 . S
H408 C405 0.950 . S
C409 C400 1.390 . S
C409 H402 0.950 . S
C409 C406 1.387 . S
C410 C411 1.387 . S
C410 H414 0.950 . S
C410 C419 1.390 . S
C411 C410 1.387 . S
C411 C413 1.387 . S
H412 C419 0.950 . S
C413 C411 1.387 . S
C413 C415 1.390 . S
C413 H417 0.950 . S
H414 C410 0.950 . S
C415 C413 1.390 . S
C415 C416 1.387 . S
C415 H418 0.950 . S
C416 C415 1.387 . S
C416 C419 1.387 . S
H417 C413 0.950 . S
H418 C415 0.950 . S
C419 C410 1.390 . S
C419 H412 0.950 . S
C419 C416 1.387 . S
C420 C421 1.387 . S
C420 H424 0.950 . S
C420 C429 1.390 . S
C421 C420 1.387 . S
C421 C423 1.387 . S
H422 C429 0.950 . S
C423 C421 1.387 . S
C423 C425 1.390 . S
C423 H427 0.950 . S
H424 C420 0.950 . S
C425 C423 1.390 . S
C425 C426 1.387 . S
C425 H428 0.950 . S
C426 C425 1.387 . S
C426 C429 1.387 . S
H427 C423 0.950 . S
H428 C425 0.950 . S
C429 C420 1.390 . S
C429 H422 0.950 . S
C429 C426 1.387 . S
C430 C431 1.387 . S
C430 H434 0.950 . S
C430 C439 1.390 . S
C431 C430 1.387 . S
C431 C433 1.387 . S
H432 C439 0.950 . S
C433 C431 1.387 . S
C433 C435 1.390 . S
C433 H437 0.950 . S
H434 C430 0.950 . S
C435 C433 1.390 . S
C435 C436 1.387 . S
C435 H438 0.950 . S
C436 C435 1.387 . S
C436 C439 1.387 . S
H437 C433 0.950 . S
H438 C435 0.950 . S
C439 C430 1.390 . S
C439 H432 0.950 . S
C439 C436 1.387 . S
C440 C441 1.387 . S
C440 H444 0.950 . S
C440 C449 1.390 . S
C441 C440 1.387 . S
C441 C443 1.387 . S
H442 C449 0.950 . S
C443 C441 1.387 . S
C443 C445 1.390 . S
C443 H447 0.950 . S
H444 C440 0.950 . S
C445 C443 1.390 . S
C445 C446 1.387 . S
C445 H448 0.950 . S
C446 C445 1.387 . S
C446 C449 1.387 . S
H447 C443 0.950 . S
H448 C445 0.950 . S
C449 C440 1.390 . S
C449 H442 0.950 . S
C449 C446 1.387 . S
C450 C451 1.387 . S
C450 H454 0.950 . S
C450 C459 1.390 . S
C451 C450 1.387 . S
C451 C453 1.387 . S
H452 C459 0.950 . S
C453 C451 1.387 . S
C453 C455 1.390 . S
C453 H457 0.950 . S
H454 C450 0.950 . S
C455 C453 1.390 . S
C455 C456 1.387 . S
C455 H458 0.950 . S
C456 C455 1.387 . S
C456 C459 1.387 . S
H457 C453 0.950 . S
H458 C455 0.950 . S
C459 C450 1.390 . S
C459 H452 0.950 . S
C459 C456 1.387 . S
C460 C461 1.387 . S
C460 H464 0.950 . S
C460 C469 1.390 . S
C461 C460 1.387 . S
C461 C463 1.387 . S
H462 C469 0.950 . S
C463 C461 1.387 . S
C463 C465 1.390 . S
C463 H467 0.950 . S
H464 C460 0.950 . S
C465 C463 1.390 . S
C465 C466 1.387 . S
C465 H468 0.950 . S
C466 C465 1.387 . S
C466 C469 1.387 . S
H467 C463 0.950 . S
H468 C465 0.950 . S
C469 C460 1.390 . S
C469 H462 0.950 . S
C469 C466 1.387 . S
C470 C471 1.387 . S
C470 H474 0.950 . S
C470 C479 1.390 . S
C471 C470 1.387 . S
C471 C473 1.387 . S
H472 C479 0.950 . S
C473 C471 1.387 . S
C473 C475 1.390 . S
C473 H477 0.950 . S
H474 C470 0.950 . S
C475 C473 1.390 . S
C475 C476 1.387 . S
C475 H478 0.950 . S
C476 C475 1.387 . S
C476 C479 1.387 . S
H477 C473 0.950 . S
H478 C475 0.950 . S
C479 C470 1.390 . S
C479 H472 0.950 . S
C479 C476 1.387 . S
C480 C481 1.387 . S
C480 H484 0.950 . S
C480 C489 1.390 . S
C481 C480 1.387 . S
C481 C483 1.387 . S
H482 C489 0.950 . S
C483 C481 1.387 . S
C483 C485 1.390 1_455 S
C483 H487 0.950 1_455 S
H484 C480 0.950 . S
C485 C483 1.390 1_655 S
C485 C486 1.387 1_655 S
C485 H488 0.950 . S
C486 C485 1.387 1_455 S
C486 C489 1.387 . S
H487 C483 0.950 1_655 S
H488 C485 0.950 . S
C489 C480 1.390 . S
C489 H482 0.950 . S
C489 C486 1.387 . S
C490 C491 1.387 . S
C490 H494 0.950 . S
C490 C499 1.390 . S
C491 C490 1.387 . S
C491 C493 1.387 1_545 S
H492 C499 0.950 . S
C493 C491 1.387 1_565 S
C493 C495 1.390 . S
C493 H497 0.950 . S
H494 C490 0.950 . S
C495 C493 1.390 . S
C495 C496 1.387 1_565 S
C495 H498 0.950 . S
C496 C495 1.387 1_545 S
C496 C499 1.387 . S
H497 C493 0.950 . S
H498 C495 0.950 . S
C499 C490 1.390 . S
C499 H492 0.950 . S
C499 C496 1.387 . S
C500 C501 1.387 . S
C500 H504 0.950 . S
C500 C509 1.390 . S
C501 C500 1.387 . S
C501 C503 1.387 . S
H502 C509 0.950 . S
C503 C501 1.387 . S
C503 C505 1.390 . S
C503 H507 0.950 . S
H504 C500 0.950 . S
C505 C503 1.390 . S
C505 C506 1.387 . S
C505 H508 0.950 . S
C506 C505 1.387 . S
C506 C509 1.387 . S
H507 C503 0.950 . S
H508 C505 0.950 . S
C509 C500 1.390 . S
C509 H502 0.950 . S
C509 C506 1.387 . S
C510 C511 1.387 1_565 S
C510 H514 0.950 . S
C510 C519 1.390 . S
C511 C510 1.387 1_545 S
C511 C513 1.387 . S
H512 C519 0.950 . S
C513 C511 1.387 . S
C513 C515 1.390 . S
C513 H517 0.950 . S
H514 C510 0.950 . S
C515 C513 1.390 . S
C515 C516 1.387 . S
C515 H518 0.950 . S
C516 C515 1.387 . S
C516 C519 1.387 1_545 S
H517 C513 0.950 . S
H518 C515 0.950 . S
C519 C510 1.390 . S
C519 H512 0.950 . S
C519 C516 1.387 1_565 S
C520 C521 1.387 . S
C520 H524 0.950 . S
C520 C529 1.390 . S
C521 C520 1.387 . S
C521 C523 1.387 . S
H522 C529 0.950 . S
C523 C521 1.387 . S
C523 C525 1.390 . S
C523 H527 0.950 . S
H524 C520 0.950 . S
C525 C523 1.390 . S
C525 C526 1.387 . S
C525 H528 0.950 . S
C526 C525 1.387 . S
C526 C529 1.387 . S
H527 C523 0.950 . S
H528 C525 0.950 . S
C529 C520 1.390 . S
C529 H522 0.950 . S
C529 C526 1.387 . S
C530 C531 1.387 . S
C530 H534 0.950 . S
C530 C539 1.390 . S
C531 C530 1.387 . S
C531 C533 1.387 . S
H532 C539 0.950 . S
C533 C531 1.387 . S
C533 C535 1.390 . S
C533 H537 0.950 1_455 S
H534 C530 0.950 . S
C535 C533 1.390 . S
C535 C536 1.387 . S
C535 H538 0.949 . S
C536 C535 1.387 . S
C536 C539 1.387 . S
H537 C533 0.950 1_655 S
H538 C535 0.949 . S
C539 C530 1.390 . S
C539 H532 0.950 . S
C539 C536 1.387 . S
C361 C10 3.203 . S
C366 C335 3.113 . S
C371 C59 3.233 . S
C376 C242 3.186 . S
C381 C90 3.188 . S
C386 C282 3.121 . S
C391 C19 3.236 . S
C396 C322 3.189 . S
C406 C255 3.115 . S
C401 C50 3.205 . S
C416 C295 3.177 . S
C411 C99 3.250 . S
C421 C46 0.603 . S
C426 C162 0.616 . S
C431 C95 0.499 . S
C436 C202 0.406 . S
C441 C6 0.639 . S
C446 C135 0.621 . S
C456 C175 0.411 . S
C451 C55 0.508 . S
C466 C215 0.638 . S
C461 C86 0.653 . S
C471 C15 0.509 . S
C476 C122 0.411 . S
C486 C221 1.071 . S
C481 C9 1.060 . S
C491 C49 1.064 . S
C496 C141 1.073 . S
C501 C89 1.051 . S
C506 C181 1.041 . S
C516 C301 1.799 . S
C511 C58 1.720 . S
C526 C341 1.787 . S
C521 C98 1.717 . S
C531 C18 1.718 . S
C536 C261 1.788 . S
