# Generated by pormake.
# Topology hwx, (6,3)-cn, num edge types: 1
# Building blocks:
#     Node 0, Type 0, BuildingBlock: OJICUG_clean_sbu_0, # of connection points: 6
#     Node 1, Type 0, BuildingBlock: OJICUG_clean_sbu_0, # of connection points: 6
#     Node 2, Type 0, BuildingBlock: OJICUG_clean_sbu_0, # of connection points: 6
#     Node 3, Type 0, BuildingBlock: OJICUG_clean_sbu_0, # of connection points: 6
#     Node 4, Type 1, BuildingBlock: OLANEW_clean_sbu_2, # of connection points: 3
#     Node 5, Type 1, BuildingBlock: OLANEW_clean_sbu_2, # of connection points: 3
#     Node 6, Type 1, BuildingBlock: OLANEW_clean_sbu_2, # of connection points: 3
#     Node 7, Type 1, BuildingBlock: OLANEW_clean_sbu_2, # of connection points: 3
#     Node 8, Type 1, BuildingBlock: OLANEW_clean_sbu_2, # of connection points: 3
#     Node 9, Type 1, BuildingBlock: OLANEW_clean_sbu_2, # of connection points: 3
#     Node 10, Type 1, BuildingBlock: OLANEW_clean_sbu_2, # of connection points: 3
#     Node 11, Type 1, BuildingBlock: OLANEW_clean_sbu_2, # of connection points: 3
#     Edge 12, Type (0, 1), BuildingBlock: OJICUG_clean_linker_0, # of connection points: 2
#     Edge 13, Type (0, 1), BuildingBlock: OJICUG_clean_linker_0, # of connection points: 2
#     Edge 14, Type (0, 1), BuildingBlock: OJICUG_clean_linker_0, # of connection points: 2
#     Edge 15, Type (0, 1), BuildingBlock: OJICUG_clean_linker_0, # of connection points: 2
#     Edge 16, Type (0, 1), BuildingBlock: OJICUG_clean_linker_0, # of connection points: 2
#     Edge 17, Type (0, 1), BuildingBlock: OJICUG_clean_linker_0, # of connection points: 2
#     Edge 18, Type (0, 1), BuildingBlock: OJICUG_clean_linker_0, # of connection points: 2
#     Edge 19, Type (0, 1), BuildingBlock: OJICUG_clean_linker_0, # of connection points: 2
#     Edge 20, Type (0, 1), BuildingBlock: OJICUG_clean_linker_0, # of connection points: 2
#     Edge 21, Type (0, 1), BuildingBlock: OJICUG_clean_linker_0, # of connection points: 2
#     Edge 22, Type (0, 1), BuildingBlock: OJICUG_clean_linker_0, # of connection points: 2
#     Edge 23, Type (0, 1), BuildingBlock: OJICUG_clean_linker_0, # of connection points: 2
#     Edge 24, Type (0, 1), BuildingBlock: OJICUG_clean_linker_0, # of connection points: 2
#     Edge 25, Type (0, 1), BuildingBlock: OJICUG_clean_linker_0, # of connection points: 2
#     Edge 26, Type (0, 1), BuildingBlock: OJICUG_clean_linker_0, # of connection points: 2
#     Edge 27, Type (0, 1), BuildingBlock: OJICUG_clean_linker_0, # of connection points: 2
#     Edge 28, Type (0, 1), BuildingBlock: OJICUG_clean_linker_0, # of connection points: 2
#     Edge 29, Type (0, 1), BuildingBlock: OJICUG_clean_linker_0, # of connection points: 2
#     Edge 30, Type (0, 1), BuildingBlock: OJICUG_clean_linker_0, # of connection points: 2
#     Edge 31, Type (0, 1), BuildingBlock: OJICUG_clean_linker_0, # of connection points: 2
#     Edge 32, Type (0, 1), BuildingBlock: OJICUG_clean_linker_0, # of connection points: 2
#     Edge 33, Type (0, 1), BuildingBlock: OJICUG_clean_linker_0, # of connection points: 2
#     Edge 34, Type (0, 1), BuildingBlock: OJICUG_clean_linker_0, # of connection points: 2
#     Edge 35, Type (0, 1), BuildingBlock: OJICUG_clean_linker_0, # of connection points: 2
# Relax obj value: 0.021
# Max RMSD: 0.061
# Mean RMSD: 0.059
data_MOF--net-hwx--node1-OJICUG_clean_sbu_0--node2-OLANEW_clean_sbu_2--edge1-OJICUG_clean_linker_0
_symmetry_space_group_name_H-M    P1
_symmetry_Int_Tables_number       1
_symmetry_cell_setting            triclinic
loop_
_symmetry_equiv_pos_as_xyz
'x, y, z'
_cell_length_a     42.702173
_cell_length_b     42.679008
_cell_length_c     16.87093
_cell_angle_alpha  84.109302
_cell_angle_beta   95.848332
_cell_angle_gamma 90.122775
loop_
_atom_site_label
_atom_site_type_symbol
_atom_site_fract_x
_atom_site_fract_y
_atom_site_fract_z
_atom_type_partial_charge
Sc0 Sc 0.21727 0.22591 0.09059 0.0
Sc1 Sc 0.17524 0.17075 -0.0207 0.0
Sc2 Sc 0.22695 0.22413 0.88661 0.0
O3 O 0.2065 0.2069 -0.01442 0.0
C4 C 0.21397 0.28744 0.96363 0.0
C5 C 0.14343 0.21494 0.09063 0.0
C6 C 0.15531 0.21366 0.81602 0.0
C7 C 0.21435 0.15164 0.1481 0.0
C8 C 0.28456 0.22387 0.02439 0.0
C9 C 0.22707 0.15034 0.87056 0.0
O10 O 0.21271 0.27426 0.03454 0.0
O11 O 0.14219 0.19281 0.04541 0.0
O12 O 0.18204 0.22684 0.81228 0.0
O13 O 0.22321 0.17962 0.15877 0.0
O14 O 0.27378 0.22352 0.95116 0.0
O15 O 0.20438 0.14396 0.91265 0.0
O16 O 0.26685 0.22495 0.08015 0.0
O17 O 0.19713 0.14511 0.0862 0.0
O18 O 0.23728 0.17807 0.85629 0.0
O19 O 0.16873 0.22901 0.11126 0.0
O20 O 0.21913 0.27209 0.90571 0.0
O21 O 0.14986 0.19279 0.87208 0.0
Sc22 Sc 0.25504 0.73697 0.43451 0.0
Sc23 Sc 0.30671 0.68174 0.54996 0.0
Sc24 Sc 0.2562 0.7281 0.64481 0.0
O25 O 0.27264 0.71563 0.54311 0.0
C26 C 0.25585 0.795 0.54002 0.0
C27 C 0.32879 0.73315 0.41608 0.0
C28 C 0.33026 0.72087 0.6966 0.0
C29 C 0.26376 0.66636 0.39375 0.0
C30 C 0.19302 0.72581 0.52495 0.0
C31 C 0.26335 0.65273 0.68169 0.0
O32 O 0.2546 0.78316 0.47384 0.0
O33 O 0.33351 0.70968 0.46876 0.0
O34 O 0.30326 0.73237 0.703 0.0
O35 O 0.25209 0.69389 0.38016 0.0
O36 O 0.20746 0.72572 0.59499 0.0
O37 O 0.28289 0.65012 0.63076 0.0
O38 O 0.20703 0.72904 0.46148 0.0
O39 O 0.28371 0.65799 0.45321 0.0
O40 O 0.25239 0.67926 0.69506 0.0
O41 O 0.30182 0.74626 0.39759 0.0
O42 O 0.25758 0.77831 0.60737 0.0
O43 O 0.33474 0.70152 0.64627 0.0
Sc44 Sc 0.75625 0.75977 0.86981 0.0
Sc45 Sc 0.81214 0.80562 0.97571 0.0
Sc46 Sc 0.76872 0.74769 0.08038 0.0
O47 O 0.77898 0.77108 0.97528 0.0
C48 C 0.70028 0.75585 -0.01768 0.0
C49 C 0.76096 0.83466 0.83545 0.0
C50 C 0.77594 0.81863 0.12499 0.0
C51 C 0.82768 0.76941 0.82819 0.0
C52 C 0.76721 0.69172 0.96789 0.0
C53 C 0.8431 0.75561 0.11601 0.0
O54 O 0.71043 0.75829 0.91368 0.0
O55 O 0.78495 0.83671 0.88573 0.0
O56 O 0.76649 0.79042 0.13634 0.0
O57 O 0.79972 0.75939 0.81433 0.0
O58 O 0.77002 0.70225 0.03601 0.0
O59 O 0.84408 0.77958 0.06515 0.0
O60 O 0.76236 0.70951 0.90237 0.0
O61 O 0.83594 0.78585 0.88547 0.0
O62 O 0.81783 0.74052 0.12638 0.0
O63 O 0.74702 0.80877 0.82506 0.0
O64 O 0.71836 0.75256 0.04752 0.0
O65 O 0.79204 0.82839 0.06795 0.0
Sc66 Sc 0.74266 0.26076 0.57416 0.0
Sc67 Sc 0.68852 0.31524 0.46264 0.0
Sc68 Sc 0.72809 0.26015 0.36549 0.0
O69 O 0.71974 0.27874 0.46752 0.0
C70 C 0.79722 0.25688 0.4615 0.0
C71 C 0.74337 0.33488 0.59071 0.0
C72 C 0.72677 0.33393 0.3108 0.0
C73 C 0.67381 0.27347 0.62256 0.0
C74 C 0.72435 0.19874 0.48877 0.0
C75 C 0.65366 0.27404 0.33389 0.0
O76 O 0.78771 0.25925 0.52941 0.0
O77 O 0.71994 0.34126 0.53879 0.0
O78 O 0.73643 0.30602 0.30649 0.0
O79 O 0.70034 0.2595 0.63221 0.0
O80 O 0.72019 0.21277 0.4181 0.0
O81 O 0.65319 0.29311 0.38685 0.0
O82 O 0.73361 0.21262 0.5501 0.0
O83 O 0.66599 0.29445 0.56471 0.0
O84 O 0.67897 0.26148 0.31797 0.0
O85 O 0.7542 0.30703 0.60957 0.0
O86 O 0.77861 0.25638 0.39775 0.0
O87 O 0.70807 0.34064 0.36096 0.0
O88 O 0.19414 0.52215 0.78269 0.0
Cd89 Cd 0.16038 0.48128 0.84266 0.0
O90 O 0.21077 0.53167 0.90445 0.0
Cd91 Cd 0.2376 0.55532 -0.00316 0.0
O92 O 0.25281 0.57674 0.10532 0.0
C93 C 0.23122 0.59007 0.13637 0.0
O94 O 0.20229 0.59002 0.1013 0.0
C95 C 0.21024 0.53897 0.82942 0.0
C96 C 0.18419 0.42014 0.88415 0.0
O97 O 0.17308 0.42966 0.81223 0.0
O98 O 0.18521 0.43994 0.93659 0.0
O99 O 0.95718 0.70161 0.38551 0.0
Cd100 Cd -0.00528 0.68816 0.50565 0.0
O101 O 0.95556 0.75253 0.39591 0.0
Cd102 Cd 0.97453 0.74699 0.52141 0.0
O103 O 0.94803 0.75114 0.62419 0.0
C104 C 0.91938 0.74302 0.61261 0.0
O105 O 0.90961 0.7317 0.54489 0.0
C106 C 0.94778 0.72917 0.3574 0.0
C107 C 0.05841 0.70453 0.50059 0.0
O108 O 0.04701 0.68067 0.46757 0.0
O109 O 0.03961 0.72134 0.53351 0.0
O110 O 0.75901 0.45523 0.0616 0.0
Cd111 Cd 0.77918 0.49143 0.95532 0.0
O112 O 0.80067 0.42492 0.06181 0.0
Cd113 Cd 0.81713 0.44716 0.9519 0.0
O114 O 0.81323 0.42538 0.84019 0.0
C115 C 0.78798 0.42961 0.79359 0.0
O116 O 0.7671 0.45008 0.80933 0.0
C117 C 0.77523 0.43095 0.09069 0.0
C118 C 0.77335 0.55632 0.96375 0.0
O119 O 0.79557 0.54015 0.00573 0.0
O120 O 0.75327 0.54172 0.91949 0.0
O121 O 0.03239 0.22644 0.55343 0.0
Cd122 Cd -0.00605 0.22769 0.43392 0.0
O123 O 0.05429 0.27196 0.52062 0.0
Cd124 Cd 0.02523 0.27887 0.40634 0.0
O125 O 0.04122 0.27365 0.29026 0.0
C126 C 0.04184 0.24655 0.26548 0.0
O127 O 0.02826 0.22298 0.30467 0.0
C128 C 0.05309 0.24711 0.56854 0.0
C129 C 0.93071 0.23986 0.44957 0.0
O130 O 0.94342 0.21308 0.47529 0.0
O131 O 0.94805 0.26138 0.41856 0.0
O132 O 0.6952 0.96403 0.64945 0.0
Cd133 Cd 0.6802 0.00273 0.53305 0.0
O134 O 0.73134 0.95587 0.57149 0.0
Cd135 Cd 0.76666 0.92949 0.52093 0.0
O136 O 0.77875 0.90598 0.41931 0.0
C137 C 0.75598 0.89184 0.38419 0.0
O138 O 0.72845 0.89185 0.41263 0.0
C139 C 0.71859 0.94789 0.63529 0.0
C140 C 0.6954 0.06641 0.53454 0.0
O141 O 0.6673 0.05688 0.54241 0.0
O142 O 0.71671 0.04579 0.52969 0.0
O143 O 0.51903 0.21446 0.22785 0.0
Cd144 Cd 0.47845 0.18017 0.16941 0.0
O145 O 0.53089 0.22818 0.10625 0.0
Cd146 Cd 0.55717 0.25154 0.01313 0.0
O147 O 0.5811 0.26561 0.90728 0.0
C148 C 0.59665 0.24416 0.88147 0.0
O149 O 0.59743 0.21574 0.91986 0.0
C150 C 0.5371 0.22892 0.18136 0.0
C151 C 0.41753 0.20317 0.1213 0.0
O152 O 0.42619 0.1931 0.19448 0.0
O153 O 0.43815 0.20374 0.07097 0.0
O154 O 0.22425 0.03038 0.41418 0.0
Cd155 Cd 0.22328 -0.00679 0.53619 0.0
O156 O 0.27083 0.05021 0.44604 0.0
Cd157 Cd 0.27539 0.02059 0.55965 0.0
O158 O 0.26345 0.03571 0.67186 0.0
C159 C 0.27959 0.05908 0.6925 0.0
O160 O 0.30321 0.06813 0.6516 0.0
C161 C 0.24588 0.04992 0.39821 0.0
C162 C 0.23783 0.92965 0.52984 0.0
O163 O 0.21125 0.94149 0.49898 0.0
O164 O 0.25816 0.948 0.56165 0.0
O165 O 0.46125 0.74334 0.92151 0.0
Cd166 Cd 0.50238 0.74779 0.03414 0.0
O167 O 0.42969 0.77902 0.95735 0.0
Cd168 Cd 0.45568 0.79019 0.06834 0.0
O169 O 0.42894 0.79024 0.17183 0.0
C170 C 0.43008 0.76582 0.22178 0.0
O171 O 0.45013 0.74321 0.21456 0.0
C172 C 0.43542 0.75883 0.9102 0.0
C173 C 0.56596 0.75305 0.00454 0.0
O174 O 0.55136 0.72691 0.00063 0.0
O175 O 0.55042 0.77704 0.01954 0.0
C176 C 0.1117 0.25487 0.14586 0.0
C177 C 0.11453 0.2243 0.12344 0.0
H178 H 0.08588 0.28623 0.20605 0.0
C179 C 0.09066 0.2024 0.13802 0.0
H180 H 0.12951 0.27239 0.13414 0.0
C181 C 0.06569 0.21024 0.18011 0.0
C182 C 0.06398 0.24023 0.20708 0.0
H183 H 0.09219 0.17871 0.12095 0.0
H184 H 0.04855 0.19236 0.19463 0.0
C185 C 0.08654 0.26285 0.18659 0.0
C186 C 0.23862 0.62324 0.79661 0.0
C187 C 0.25167 0.62328 0.72335 0.0
H188 H 0.21571 0.59635 0.88831 0.0
C189 C 0.25248 0.59484 0.68796 0.0
H190 H 0.2376 0.64471 0.82537 0.0
C191 C 0.23966 0.56733 0.72346 0.0
C192 C 0.22647 0.56734 0.79627 0.0
H193 H 0.26214 0.59402 0.63126 0.0
H194 H 0.2398 0.54607 0.69348 0.0
C195 C 0.22642 0.59546 0.83309 0.0
C196 C 0.87592 0.71698 0.2132 0.0
C197 C 0.87213 0.74693 0.16996 0.0
H198 H 0.90355 0.68753 0.30494 0.0
C199 C 0.89555 0.76965 0.18285 0.0
H200 H 0.85841 0.69893 0.20437 0.0
C201 C 0.92104 0.76331 0.24106 0.0
C202 C 0.92418 0.73385 0.28651 0.0
H203 H 0.89342 0.79299 0.15074 0.0
H204 H 0.9378 0.78183 0.25228 0.0
C205 C 0.9019 0.71039 0.2703 0.0
C206 C 0.78546 0.35617 0.68528 0.0
C207 C 0.75724 0.36077 0.63469 0.0
H208 H 0.81773 0.37463 0.774 0.0
C209 C 0.74127 0.3898 0.63036 0.0
H210 H 0.79854 0.33425 0.68946 0.0
C211 C 0.75218 0.41289 0.67914 0.0
C212 C 0.77948 0.40761 0.73271 0.0
H213 H 0.71954 0.39427 0.59176 0.0
H214 H 0.73858 0.43442 0.67684 0.0
C215 C 0.79656 0.37943 0.73344 0.0
C216 C 0.59483 0.26832 0.32475 0.0
C217 C 0.62333 0.26509 0.29106 0.0
H218 H 0.5452 0.25925 0.3165 0.0
C219 C 0.62268 0.2519 0.21785 0.0
H220 H 0.59448 0.27822 0.38126 0.0
C221 C 0.59435 0.24158 0.18015 0.0
C222 C 0.56609 0.24386 0.21527 0.0
H223 H 0.64418 0.24906 0.19024 0.0
H224 H 0.59491 0.23038 0.12557 0.0
C225 C 0.5666 0.25746 0.28774 0.0
C226 C 0.22678 0.09604 0.82506 0.0
C227 C 0.2421 0.1248 0.83456 0.0
H228 H 0.22675 0.05234 0.77279 0.0
C229 C 0.27159 0.1298 0.80549 0.0
H230 H 0.20413 0.09142 0.8473 0.0
C231 C 0.28463 0.10742 0.7637 0.0
C232 C 0.2684 0.07958 0.74942 0.0
H233 H 0.28433 0.15144 0.81312 0.0
H234 H 0.30686 0.11263 0.73969 0.0
C235 C 0.23978 0.07364 0.78256 0.0
C236 C 0.38442 0.72712 0.38486 0.0
C237 C 0.35581 0.74416 0.37201 0.0
H238 H 0.43023 0.72075 0.34805 0.0
C239 C 0.35312 0.77047 0.31425 0.0
H240 H 0.38757 0.70684 0.42916 0.0
C241 C 0.37796 0.77865 0.26812 0.0
C242 C 0.40583 0.76048 0.27833 0.0
H243 H 0.33156 0.78425 0.30315 0.0
H244 H 0.37477 0.79837 0.22218 0.0
C245 C 0.40901 0.73509 0.33837 0.0
C246 C 0.71748 0.87046 0.76751 0.0
C247 C 0.74977 0.86366 0.78489 0.0
H248 H 0.6823 0.90317 0.70832 0.0
C249 C 0.77165 0.88499 0.75368 0.0
H250 H 0.70016 0.85447 0.79111 0.0
C251 C 0.76147 0.91225 0.7047 0.0
C252 C 0.72923 0.91929 0.68814 0.0
H253 H 0.79669 0.88025 0.76594 0.0
H254 H 0.77883 0.92806 0.68054 0.0
C255 C 0.70731 0.89834 0.72066 0.0
C256 C 0.88315 0.77099 0.78963 0.0
C257 C 0.8516 0.7617 0.77493 0.0
H258 H 0.92939 0.77219 0.75048 0.0
C259 C 0.84304 0.74513 0.70826 0.0
H260 H 0.89067 0.78365 0.8406 0.0
C261 C 0.86525 0.73858 0.65679 0.0
C262 C 0.89662 0.74832 0.67067 0.0
H263 H 0.81905 0.73748 0.69507 0.0
H264 H 0.85765 0.72614 0.60546 0.0
C265 C 0.90542 0.76433 0.73813 0.0
C266 C 0.72385 0.38916 0.24005 0.0
C267 C 0.73916 0.35969 0.25703 0.0
H268 H 0.72309 0.43499 0.17378 0.0
C269 C 0.76711 0.35483 0.22258 0.0
H270 H 0.70234 0.39368 0.266 0.0
C271 C 0.7792 0.37847 0.17137 0.0
C272 C 0.76351 0.40762 0.15208 0.0
H273 H 0.77983 0.33265 0.23519 0.0
H274 H 0.80058 0.37348 0.14538 0.0
C275 C 0.73578 0.41284 0.18749 0.0
C276 C 0.10096 0.20546 0.75016 0.0
C277 C 0.12889 0.22312 0.75386 0.0
H278 H 0.05516 0.19932 0.68982 0.0
C279 C 0.13078 0.25001 0.69902 0.0
H280 H 0.0985 0.18468 0.7916 0.0
C281 C 0.10558 0.25864 0.64104 0.0
C282 C 0.07803 0.24043 0.63613 0.0
H283 H 0.15174 0.26435 0.70064 0.0
H284 H 0.10808 0.27911 0.59864 0.0
C285 C 0.07595 0.21393 0.69193 0.0
C286 C 0.27569 0.62123 0.31752 0.0
C287 C 0.2544 0.64397 0.33491 0.0
H288 H 0.28519 0.58647 0.2398 0.0
C289 C 0.22474 0.64718 0.29038 0.0
H290 H 0.29875 0.61841 0.35079 0.0
C291 C 0.21687 0.6288 0.22775 0.0
C292 C 0.2387 0.6072 0.20747 0.0
H293 H 0.20778 0.66439 0.30297 0.0
H294 H 0.19406 0.63236 0.19351 0.0
C295 C 0.268 0.60317 0.25374 0.0
C296 C 0.35494 0.75675 0.79354 0.0
C297 C 0.35785 0.73124 0.7483 0.0
H298 H 0.37709 0.78589 0.87788 0.0
C299 C 0.38743 0.71628 0.75209 0.0
H300 H 0.33273 0.76917 0.79139 0.0
C301 C 0.41315 0.72595 0.80207 0.0
C302 C 0.4099 0.75095 0.84892 0.0
H303 H 0.39062 0.69669 0.71758 0.0
H304 H 0.4353 0.71334 0.80548 0.0
C305 C 0.38059 0.76653 0.84283 0.0
C306 C 0.79105 0.86323 0.20646 0.0
C307 C 0.76934 0.84005 0.18469 0.0
H308 H 0.80417 0.89752 0.28804 0.0
C309 C 0.74258 0.83526 0.22626 0.0
H310 H 0.81202 0.8672 0.17581 0.0
C311 C 0.73796 0.85269 0.28968 0.0
C312 C 0.76029 0.87491 0.31389 0.0
H313 H 0.72542 0.81759 0.21059 0.0
H314 H 0.7173 0.84806 0.3212 0.0
C315 C 0.78671 0.88033 0.27109 0.0
C316 C 0.65511 0.23618 0.73106 0.0
C317 C 0.65188 0.26531 0.68373 0.0
H318 H 0.64008 0.20665 0.82979 0.0
C319 C 0.62909 0.28695 0.69924 0.0
H320 H 0.67228 0.21888 0.72021 0.0
C321 C 0.61079 0.28004 0.76303 0.0
C322 C 0.61467 0.25119 0.81154 0.0
H323 H 0.62615 0.30961 0.66392 0.0
H324 H 0.59389 0.29742 0.77489 0.0
C325 C 0.6366 0.22914 0.79387 0.0
C326 C 0.24898 0.12809 0.2696 0.0
C327 C 0.22386 0.12519 0.21021 0.0
H328 H 0.27621 0.10625 0.37444 0.0
C329 C 0.20761 0.09643 0.21021 0.0
H330 H 0.26217 0.14977 0.27095 0.0
C331 C 0.21552 0.07161 0.26952 0.0
C332 C 0.2402 0.07468 0.32979 0.0
H333 H 0.18816 0.09326 0.16535 0.0
H334 H 0.20189 0.05018 0.26892 0.0
C335 C 0.25721 0.10301 0.32841 0.0
C336 C 0.20546 0.34169 0.0061 0.0
C337 C 0.20808 0.32189 0.94533 0.0
H338 H 0.19628 0.38849 0.0346 0.0
C339 C 0.20424 0.3352 0.86497 0.0
H340 H 0.20835 0.33229 0.06854 0.0
C341 C 0.1972 0.36713 0.84567 0.0
C342 C 0.19406 0.38683 0.90607 0.0
H343 H 0.20603 0.32083 0.81627 0.0
H344 H 0.19386 0.37629 0.78307 0.0
C345 C 0.19868 0.3739 -0.01336 0.0
C346 C 0.14354 0.70613 0.45351 0.0
C347 C 0.15839 0.72145 0.51695 0.0
H348 H 0.10036 0.68834 0.39927 0.0
C349 C 0.1399 0.73209 0.57327 0.0
H350 H 0.15718 0.69754 0.40936 0.0
C351 C 0.10727 0.72753 0.56631 0.0
C352 C 0.09255 0.71145 0.50413 0.0
H353 H 0.15064 0.7441 0.62257 0.0
H354 H 0.09369 0.73583 0.61093 0.0
C355 C 0.11104 0.7008 0.4478 0.0
C356 C 0.75376 0.64264 0.90154 0.0
C357 C 0.76918 0.65715 0.96562 0.0
H358 H 0.74241 0.5993 0.85158 0.0
C359 C 0.78583 0.63818 0.02913 0.0
H360 H 0.74056 0.65659 0.85202 0.0
C361 C 0.78725 0.60548 0.02834 0.0
C362 C 0.77149 0.59093 0.96488 0.0
H363 H 0.79804 0.64864 0.07928 0.0
H364 H 0.80047 0.59156 0.07789 0.0
C365 C 0.75462 0.60983 0.90161 0.0
C366 C 0.84645 0.26818 0.39448 0.0
C367 C 0.8314 0.25313 0.45802 0.0
H368 H 0.89015 0.27654 0.34343 0.0
C369 C 0.84935 0.23432 0.51941 0.0
H370 H 0.83312 0.28292 0.34668 0.0
C371 C 0.88162 0.23002 0.51652 0.0
C372 C 0.89679 0.24529 0.45356 0.0
H373 H 0.83827 0.22236 0.56893 0.0
H374 H 0.89478 0.21493 0.5639 0.0
C375 C 0.87901 0.2647 0.39298 0.0
C376 C 0.68819 0.15368 0.46838 0.0
C377 C 0.71711 0.1649 0.50086 0.0
H378 H 0.65826 0.11368 0.45624 0.0
C379 C 0.73866 0.14369 0.54637 0.0
H380 H 0.67113 0.16969 0.43361 0.0
C381 C 0.73171 0.11154 0.55736 0.0
C382 C 0.70259 0.10037 0.52573 0.0
H383 H 0.7611 0.1519 0.57206 0.0
H384 H 0.74893 0.09547 0.59119 0.0
C385 C 0.68076 0.12177 0.48189 0.0
C386 C 0.33083 0.21885 0.12907 0.0
C387 C 0.31909 0.22144 0.04753 0.0
H388 H 0.37085 0.21128 0.21593 0.0
C389 C 0.34055 0.22025 -0.01011 0.0
H390 H 0.31516 0.21975 0.17541 0.0
C391 C 0.3728 0.21558 0.01353 0.0
C392 C 0.38419 0.21178 0.09524 0.0
H393 H 0.33241 0.22225 0.92663 0.0
H394 H 0.38863 0.21394 0.96786 0.0
C395 C 0.36288 0.21398 0.15254 0.0
C396 C 0.26739 0.84641 0.5979 0.0
C397 C 0.25277 0.82967 0.537 0.0
H398 H 0.27487 0.89158 0.64207 0.0
C399 C 0.23423 0.84629 0.47262 0.0
H400 H 0.28186 0.8342 0.64806 0.0
C401 C 0.22965 0.87877 0.47017 0.0
C402 C 0.24423 0.89556 0.53084 0.0
H403 H 0.22248 0.83402 0.42502 0.0
H404 H 0.21465 0.89078 0.4207 0.0
C405 C 0.26354 0.87919 0.59419 0.0
C406 C 0.65234 0.77364 0.04022 0.0
C407 C 0.66582 0.75604 -0.01373 0.0
H408 H 0.60989 0.78732 0.08616 0.0
C409 C 0.64611 0.7382 0.93657 0.0
H410 H 0.66704 0.78766 0.07897 0.0
C411 C 0.61362 0.73723 0.94241 0.0
C412 C 0.60009 0.75501 -0.0041 0.0
H413 H 0.65595 0.72433 0.89469 0.0
H414 H 0.59903 0.72269 0.9048 0.0
C415 C 0.6197 0.77358 0.04395 0.0
loop_
_geom_bond_atom_site_label_1
_geom_bond_atom_site_label_2
_geom_bond_distance
_geom_bond_site_symmetry_2
_ccdc_geom_bond_type
Sc0 O3 2.025 . S
Sc0 O10 2.105 . S
Sc0 O13 2.105 . S
Sc0 O16 2.105 . S
Sc0 O19 2.105 . S
Sc1 O3 2.025 . S
Sc1 O11 2.105 . S
Sc1 O15 2.105 1_554 S
Sc1 O17 2.105 . S
Sc1 O21 2.105 1_554 S
Sc2 O3 2.025 1_556 S
Sc2 O12 2.105 . S
Sc2 O14 2.105 . S
Sc2 O18 2.105 . S
Sc2 O20 2.105 . S
O3 Sc0 2.025 . S
O3 Sc1 2.025 . S
O3 Sc2 2.025 1_554 S
C4 O10 1.268 . S
C4 O20 1.268 1_554 S
C5 O11 1.268 . S
C5 O19 1.268 . S
C6 O12 1.268 . S
C6 O21 1.268 . S
C7 O13 1.268 . S
C7 O17 1.268 . S
C8 O14 1.268 1_554 S
C8 O16 1.268 . S
C9 O15 1.268 . S
C9 O18 1.268 . S
O10 Sc0 2.105 . S
O10 C4 1.268 . S
O11 Sc1 2.105 . S
O11 C5 1.268 . S
O12 Sc2 2.105 . S
O12 C6 1.268 . S
O13 Sc0 2.105 . S
O13 C7 1.268 . S
O14 Sc2 2.105 . S
O14 C8 1.268 1_556 S
O15 Sc1 2.105 1_556 S
O15 C9 1.268 . S
O16 Sc0 2.105 . S
O16 C8 1.268 . S
O17 Sc1 2.105 . S
O17 C7 1.268 . S
O18 Sc2 2.105 . S
O18 C9 1.268 . S
O19 Sc0 2.105 . S
O19 C5 1.268 . S
O20 Sc2 2.105 . S
O20 C4 1.268 1_556 S
O21 Sc1 2.105 1_556 S
O21 C6 1.268 . S
Sc22 O25 2.025 . S
Sc22 O32 2.105 . S
Sc22 O35 2.105 . S
Sc22 O38 2.105 . S
Sc22 O41 2.105 . S
Sc23 O25 2.025 . S
Sc23 O33 2.105 . S
Sc23 O37 2.105 . S
Sc23 O39 2.105 . S
Sc23 O43 2.105 . S
Sc24 O25 2.025 . S
Sc24 O34 2.105 . S
Sc24 O36 2.105 . S
Sc24 O40 2.105 . S
Sc24 O42 2.105 . S
O25 Sc22 2.025 . S
O25 Sc23 2.025 . S
O25 Sc24 2.025 . S
C26 O32 1.268 . S
C26 O42 1.268 . S
C27 O33 1.268 . S
C27 O41 1.268 . S
C28 O34 1.268 . S
C28 O43 1.268 . S
C29 O35 1.268 . S
C29 O39 1.268 . S
C30 O36 1.268 . S
C30 O38 1.268 . S
C31 O37 1.268 . S
C31 O40 1.268 . S
O32 Sc22 2.105 . S
O32 C26 1.268 . S
O33 Sc23 2.105 . S
O33 C27 1.268 . S
O34 Sc24 2.105 . S
O34 C28 1.268 . S
O35 Sc22 2.105 . S
O35 C29 1.268 . S
O36 Sc24 2.105 . S
O36 C30 1.268 . S
O37 Sc23 2.105 . S
O37 C31 1.268 . S
O38 Sc22 2.105 . S
O38 C30 1.268 . S
O39 Sc23 2.105 . S
O39 C29 1.268 . S
O40 Sc24 2.105 . S
O40 C31 1.268 . S
O41 Sc22 2.105 . S
O41 C27 1.268 . S
O42 Sc24 2.105 . S
O42 C26 1.268 . S
O43 Sc23 2.105 . S
O43 C28 1.268 . S
Sc44 O47 2.025 1_556 S
Sc44 O54 2.105 . S
Sc44 O57 2.105 . S
Sc44 O60 2.105 . S
Sc44 O63 2.105 . S
Sc45 O47 2.025 . S
Sc45 O55 2.105 1_554 S
Sc45 O59 2.105 . S
Sc45 O61 2.105 1_554 S
Sc45 O65 2.105 . S
Sc46 O47 2.025 . S
Sc46 O56 2.105 . S
Sc46 O58 2.105 . S
Sc46 O62 2.105 . S
Sc46 O64 2.105 . S
O47 Sc44 2.025 1_554 S
O47 Sc45 2.025 . S
O47 Sc46 2.025 . S
C48 O54 1.268 1_554 S
C48 O64 1.268 . S
C49 O55 1.268 . S
C49 O63 1.268 . S
C50 O56 1.268 . S
C50 O65 1.268 . S
C51 O57 1.268 . S
C51 O61 1.268 . S
C52 O58 1.268 . S
C52 O60 1.268 1_554 S
C53 O59 1.268 . S
C53 O62 1.268 . S
O54 Sc44 2.105 . S
O54 C48 1.268 1_556 S
O55 Sc45 2.105 1_556 S
O55 C49 1.268 . S
O56 Sc46 2.105 . S
O56 C50 1.268 . S
O57 Sc44 2.105 . S
O57 C51 1.268 . S
O58 Sc46 2.105 . S
O58 C52 1.268 . S
O59 Sc45 2.105 . S
O59 C53 1.268 . S
O60 Sc44 2.105 . S
O60 C52 1.268 1_556 S
O61 Sc45 2.105 1_556 S
O61 C51 1.268 . S
O62 Sc46 2.105 . S
O62 C53 1.268 . S
O63 Sc44 2.105 . S
O63 C49 1.268 . S
O64 Sc46 2.105 . S
O64 C48 1.268 . S
O65 Sc45 2.105 . S
O65 C50 1.268 . S
Sc66 O69 2.025 . S
Sc66 O76 2.105 . S
Sc66 O79 2.105 . S
Sc66 O82 2.105 . S
Sc66 O85 2.105 . S
Sc67 O69 2.025 . S
Sc67 O77 2.105 . S
Sc67 O81 2.105 . S
Sc67 O83 2.105 . S
Sc67 O87 2.105 . S
Sc68 O69 2.025 . S
Sc68 O78 2.105 . S
Sc68 O80 2.105 . S
Sc68 O84 2.105 . S
Sc68 O86 2.105 . S
O69 Sc66 2.025 . S
O69 Sc67 2.025 . S
O69 Sc68 2.025 . S
C70 O76 1.268 . S
C70 O86 1.268 . S
C71 O77 1.268 . S
C71 O85 1.268 . S
C72 O78 1.268 . S
C72 O87 1.268 . S
C73 O79 1.268 . S
C73 O83 1.268 . S
C74 O80 1.268 . S
C74 O82 1.268 . S
C75 O81 1.268 . S
C75 O84 1.268 . S
O76 Sc66 2.105 . S
O76 C70 1.268 . S
O77 Sc67 2.105 . S
O77 C71 1.268 . S
O78 Sc68 2.105 . S
O78 C72 1.268 . S
O79 Sc66 2.105 . S
O79 C73 1.268 . S
O80 Sc68 2.105 . S
O80 C74 1.268 . S
O81 Sc67 2.105 . S
O81 C75 1.268 . S
O82 Sc66 2.105 . S
O82 C74 1.268 . S
O83 Sc67 2.105 . S
O83 C73 1.268 . S
O84 Sc68 2.105 . S
O84 C75 1.268 . S
O85 Sc66 2.105 . S
O85 C71 1.268 . S
O86 Sc68 2.105 . S
O86 C70 1.268 . S
O87 Sc67 2.105 . S
O87 C72 1.268 . S
O88 Cd89 2.300 . S
O88 C95 1.275 . S
Cd89 O88 2.300 . S
Cd89 O97 2.381 . S
Cd89 O98 2.378 1_556 S
O90 Cd91 2.385 1_556 S
O90 C95 1.255 . S
Cd91 O90 2.385 1_554 S
Cd91 O92 2.317 . S
O92 Cd91 2.317 . S
O92 C93 1.232 . S
C93 O92 1.232 . S
C93 O94 1.218 . S
O94 C93 1.218 . S
C95 O88 1.275 . S
C95 O90 1.255 . S
C96 O97 1.258 . S
C96 O98 1.256 1_556 S
O97 Cd89 2.381 . S
O97 C96 1.258 . S
O98 Cd89 2.378 1_554 S
O98 C96 1.256 1_554 S
O99 Cd100 2.300 1_655 S
O99 C106 1.275 . S
Cd100 O99 2.300 1_455 S
Cd100 O108 2.381 . S
Cd100 O109 2.378 . S
O101 Cd102 2.385 . S
O101 C106 1.255 . S
Cd102 O101 2.385 . S
Cd102 O103 2.317 . S
O103 Cd102 2.317 . S
O103 C104 1.232 . S
C104 O103 1.232 . S
C104 O105 1.218 . S
O105 C104 1.218 . S
C106 O99 1.275 . S
C106 O101 1.255 . S
C107 O108 1.258 . S
C107 O109 1.256 . S
O108 Cd100 2.381 . S
O108 C107 1.258 . S
O109 Cd100 2.378 . S
O109 C107 1.256 . S
O110 Cd111 2.300 . S
O110 C117 1.275 . S
Cd111 O110 2.300 . S
Cd111 O119 2.381 . S
Cd111 O120 2.378 1_554 S
O112 Cd113 2.385 1_554 S
O112 C117 1.255 . S
Cd113 O112 2.385 1_556 S
Cd113 O114 2.317 . S
O114 Cd113 2.317 . S
O114 C115 1.232 . S
C115 O114 1.232 . S
C115 O116 1.218 . S
O116 C115 1.218 . S
C117 O110 1.275 . S
C117 O112 1.255 . S
C118 O119 1.258 . S
C118 O120 1.256 1_554 S
O119 Cd111 2.381 . S
O119 C118 1.258 . S
O120 Cd111 2.378 1_556 S
O120 C118 1.256 1_556 S
O121 Cd122 2.300 1_455 S
O121 C128 1.275 . S
Cd122 O121 2.300 1_655 S
Cd122 O130 2.381 . S
Cd122 O131 2.378 . S
O123 Cd124 2.385 . S
O123 C128 1.255 . S
Cd124 O123 2.385 . S
Cd124 O125 2.317 . S
O125 Cd124 2.317 . S
O125 C126 1.232 . S
C126 O125 1.232 . S
C126 O127 1.218 . S
O127 C126 1.218 . S
C128 O121 1.275 . S
C128 O123 1.255 . S
C129 O130 1.258 . S
C129 O131 1.256 . S
O130 Cd122 2.381 . S
O130 C129 1.258 . S
O131 Cd122 2.378 . S
O131 C129 1.256 . S
O132 Cd133 2.300 1_565 S
O132 C139 1.275 . S
Cd133 O132 2.300 1_545 S
Cd133 O141 2.381 . S
Cd133 O142 2.378 . S
O134 Cd135 2.385 . S
O134 C139 1.255 . S
Cd135 O134 2.385 . S
Cd135 O136 2.317 . S
O136 Cd135 2.317 . S
O136 C137 1.232 . S
C137 O136 1.232 . S
C137 O138 1.218 . S
O138 C137 1.218 . S
C139 O132 1.275 . S
C139 O134 1.255 . S
C140 O141 1.258 . S
C140 O142 1.256 . S
O141 Cd133 2.381 . S
O141 C140 1.258 . S
O142 Cd133 2.378 . S
O142 C140 1.256 . S
O143 Cd144 2.300 . S
O143 C150 1.275 . S
Cd144 O143 2.300 . S
Cd144 O152 2.381 . S
Cd144 O153 2.378 1_554 S
O145 Cd146 2.385 1_554 S
O145 C150 1.255 . S
Cd146 O145 2.385 1_556 S
Cd146 O147 2.317 . S
O147 Cd146 2.317 . S
O147 C148 1.232 . S
C148 O147 1.232 . S
C148 O149 1.218 . S
O149 C148 1.218 . S
C150 O143 1.275 . S
C150 O145 1.255 . S
C151 O152 1.258 . S
C151 O153 1.256 1_554 S
O152 Cd144 2.381 . S
O152 C151 1.258 . S
O153 Cd144 2.378 1_556 S
O153 C151 1.256 1_556 S
O154 Cd155 2.300 1_545 S
O154 C161 1.275 . S
Cd155 O154 2.300 1_565 S
Cd155 O163 2.381 . S
Cd155 O164 2.378 . S
O156 Cd157 2.385 . S
O156 C161 1.255 . S
Cd157 O156 2.385 . S
Cd157 O158 2.317 . S
O158 Cd157 2.317 . S
O158 C159 1.232 . S
C159 O158 1.232 . S
C159 O160 1.218 . S
O160 C159 1.218 . S
C161 O154 1.275 . S
C161 O156 1.255 . S
C162 O163 1.258 . S
C162 O164 1.256 . S
O163 Cd155 2.381 . S
O163 C162 1.258 . S
O164 Cd155 2.378 . S
O164 C162 1.256 . S
O165 Cd166 2.300 . S
O165 C172 1.275 . S
Cd166 O165 2.300 . S
Cd166 O174 2.381 . S
Cd166 O175 2.378 1_556 S
O167 Cd168 2.385 1_556 S
O167 C172 1.255 . S
Cd168 O167 2.385 1_554 S
Cd168 O169 2.317 . S
O169 Cd168 2.317 . S
O169 C170 1.232 . S
C170 O169 1.232 . S
C170 O171 1.218 . S
O171 C170 1.218 . S
C172 O165 1.275 . S
C172 O167 1.255 . S
C173 O174 1.258 . S
C173 O175 1.256 1_556 S
O174 Cd166 2.381 . S
O174 C173 1.258 . S
O175 Cd166 2.378 1_554 S
O175 C173 1.256 1_554 S
C176 C177 1.387 . S
C176 H180 0.950 . S
C176 C185 1.390 . S
C177 C176 1.387 . S
C177 C179 1.387 . S
H178 C185 0.950 . S
C179 C177 1.387 . S
C179 C181 1.390 . S
C179 H183 0.950 . S
H180 C176 0.950 . S
C181 C179 1.390 . S
C181 C182 1.387 . S
C181 H184 0.950 . S
C182 C181 1.387 . S
C182 C185 1.387 . S
H183 C179 0.950 . S
H184 C181 0.950 . S
C185 C176 1.390 . S
C185 H178 0.950 . S
C185 C182 1.387 . S
C186 C187 1.387 . S
C186 H190 0.950 . S
C186 C195 1.390 . S
C187 C186 1.387 . S
C187 C189 1.387 . S
H188 C195 0.950 . S
C189 C187 1.387 . S
C189 C191 1.390 . S
C189 H193 0.950 . S
H190 C186 0.950 . S
C191 C189 1.390 . S
C191 C192 1.387 . S
C191 H194 0.950 . S
C192 C191 1.387 . S
C192 C195 1.387 . S
H193 C189 0.950 . S
H194 C191 0.950 . S
C195 C186 1.390 . S
C195 H188 0.950 . S
C195 C192 1.387 . S
C196 C197 1.387 . S
C196 H200 0.950 . S
C196 C205 1.390 . S
C197 C196 1.387 . S
C197 C199 1.387 . S
H198 C205 0.950 . S
C199 C197 1.387 . S
C199 C201 1.390 . S
C199 H203 0.950 . S
H200 C196 0.950 . S
C201 C199 1.390 . S
C201 C202 1.387 . S
C201 H204 0.950 . S
C202 C201 1.387 . S
C202 C205 1.387 . S
H203 C199 0.950 . S
H204 C201 0.950 . S
C205 C196 1.390 . S
C205 H198 0.950 . S
C205 C202 1.387 . S
C206 C207 1.387 . S
C206 H210 0.950 . S
C206 C215 1.390 . S
C207 C206 1.387 . S
C207 C209 1.387 . S
H208 C215 0.950 . S
C209 C207 1.387 . S
C209 C211 1.390 . S
C209 H213 0.950 . S
H210 C206 0.950 . S
C211 C209 1.390 . S
C211 C212 1.387 . S
C211 H214 0.950 . S
C212 C211 1.387 . S
C212 C215 1.387 . S
H213 C209 0.950 . S
H214 C211 0.950 . S
C215 C206 1.390 . S
C215 H208 0.950 . S
C215 C212 1.387 . S
C216 C217 1.387 . S
C216 H220 0.950 . S
C216 C225 1.390 . S
C217 C216 1.387 . S
C217 C219 1.387 . S
H218 C225 0.950 . S
C219 C217 1.387 . S
C219 C221 1.390 . S
C219 H223 0.950 . S
H220 C216 0.950 . S
C221 C219 1.390 . S
C221 C222 1.387 . S
C221 H224 0.950 . S
C222 C221 1.387 . S
C222 C225 1.387 . S
H223 C219 0.950 . S
H224 C221 0.950 . S
C225 C216 1.390 . S
C225 H218 0.950 . S
C225 C222 1.387 . S
C226 C227 1.387 . S
C226 H230 0.950 . S
C226 C235 1.390 . S
C227 C226 1.387 . S
C227 C229 1.387 . S
H228 C235 0.950 . S
C229 C227 1.387 . S
C229 C231 1.390 . S
C229 H233 0.950 . S
H230 C226 0.950 . S
C231 C229 1.390 . S
C231 C232 1.387 . S
C231 H234 0.950 . S
C232 C231 1.387 . S
C232 C235 1.387 . S
H233 C229 0.950 . S
H234 C231 0.950 . S
C235 C226 1.390 . S
C235 H228 0.950 . S
C235 C232 1.387 . S
C236 C237 1.387 . S
C236 H240 0.950 . S
C236 C245 1.390 . S
C237 C236 1.387 . S
C237 C239 1.387 . S
H238 C245 0.950 . S
C239 C237 1.387 . S
C239 C241 1.390 . S
C239 H243 0.950 . S
H240 C236 0.950 . S
C241 C239 1.390 . S
C241 C242 1.387 . S
C241 H244 0.950 . S
C242 C241 1.387 . S
C242 C245 1.387 . S
H243 C239 0.950 . S
H244 C241 0.950 . S
C245 C236 1.390 . S
C245 H238 0.950 . S
C245 C242 1.387 . S
C246 C247 1.387 . S
C246 H250 0.950 . S
C246 C255 1.390 . S
C247 C246 1.387 . S
C247 C249 1.387 . S
H248 C255 0.950 . S
C249 C247 1.387 . S
C249 C251 1.390 . S
C249 H253 0.950 . S
H250 C246 0.950 . S
C251 C249 1.390 . S
C251 C252 1.387 . S
C251 H254 0.950 . S
C252 C251 1.387 . S
C252 C255 1.387 . S
H253 C249 0.950 . S
H254 C251 0.950 . S
C255 C246 1.390 . S
C255 H248 0.950 . S
C255 C252 1.387 . S
C256 C257 1.387 . S
C256 H260 0.950 . S
C256 C265 1.390 . S
C257 C256 1.387 . S
C257 C259 1.387 . S
H258 C265 0.950 . S
C259 C257 1.387 . S
C259 C261 1.390 . S
C259 H263 0.950 . S
H260 C256 0.950 . S
C261 C259 1.390 . S
C261 C262 1.387 . S
C261 H264 0.950 . S
C262 C261 1.387 . S
C262 C265 1.387 . S
H263 C259 0.950 . S
H264 C261 0.950 . S
C265 C256 1.390 . S
C265 H258 0.950 . S
C265 C262 1.387 . S
C266 C267 1.387 . S
C266 H270 0.950 . S
C266 C275 1.390 . S
C267 C266 1.387 . S
C267 C269 1.387 . S
H268 C275 0.950 . S
C269 C267 1.387 . S
C269 C271 1.390 . S
C269 H273 0.950 . S
H270 C266 0.950 . S
C271 C269 1.390 . S
C271 C272 1.387 . S
C271 H274 0.950 . S
C272 C271 1.387 . S
C272 C275 1.387 . S
H273 C269 0.950 . S
H274 C271 0.950 . S
C275 C266 1.390 . S
C275 H268 0.950 . S
C275 C272 1.387 . S
C276 C277 1.387 . S
C276 H280 0.950 . S
C276 C285 1.390 . S
C277 C276 1.387 . S
C277 C279 1.387 . S
H278 C285 0.950 . S
C279 C277 1.387 . S
C279 C281 1.390 . S
C279 H283 0.950 . S
H280 C276 0.950 . S
C281 C279 1.390 . S
C281 C282 1.387 . S
C281 H284 0.950 . S
C282 C281 1.387 . S
C282 C285 1.387 . S
H283 C279 0.950 . S
H284 C281 0.950 . S
C285 C276 1.390 . S
C285 H278 0.950 . S
C285 C282 1.387 . S
C286 C287 1.387 . S
C286 H290 0.950 . S
C286 C295 1.390 . S
C287 C286 1.387 . S
C287 C289 1.387 . S
H288 C295 0.950 . S
C289 C287 1.387 . S
C289 C291 1.390 . S
C289 H293 0.950 . S
H290 C286 0.950 . S
C291 C289 1.390 . S
C291 C292 1.387 . S
C291 H294 0.950 . S
C292 C291 1.387 . S
C292 C295 1.387 . S
H293 C289 0.950 . S
H294 C291 0.950 . S
C295 C286 1.390 . S
C295 H288 0.950 . S
C295 C292 1.387 . S
C296 C297 1.387 . S
C296 H300 0.950 . S
C296 C305 1.390 . S
C297 C296 1.387 . S
C297 C299 1.387 . S
H298 C305 0.950 . S
C299 C297 1.387 . S
C299 C301 1.390 . S
C299 H303 0.950 . S
H300 C296 0.950 . S
C301 C299 1.390 . S
C301 C302 1.387 . S
C301 H304 0.950 . S
C302 C301 1.387 . S
C302 C305 1.387 . S
H303 C299 0.950 . S
H304 C301 0.950 . S
C305 C296 1.390 . S
C305 H298 0.950 . S
C305 C302 1.387 . S
C306 C307 1.387 . S
C306 H310 0.950 . S
C306 C315 1.390 . S
C307 C306 1.387 . S
C307 C309 1.387 . S
H308 C315 0.950 . S
C309 C307 1.387 . S
C309 C311 1.390 . S
C309 H313 0.950 . S
H310 C306 0.950 . S
C311 C309 1.390 . S
C311 C312 1.387 . S
C311 H314 0.950 . S
C312 C311 1.387 . S
C312 C315 1.387 . S
H313 C309 0.950 . S
H314 C311 0.950 . S
C315 C306 1.390 . S
C315 H308 0.950 . S
C315 C312 1.387 . S
C316 C317 1.387 . S
C316 H320 0.950 . S
C316 C325 1.390 . S
C317 C316 1.387 . S
C317 C319 1.387 . S
H318 C325 0.950 . S
C319 C317 1.387 . S
C319 C321 1.390 . S
C319 H323 0.950 . S
H320 C316 0.950 . S
C321 C319 1.390 . S
C321 C322 1.387 . S
C321 H324 0.950 . S
C322 C321 1.387 . S
C322 C325 1.387 . S
H323 C319 0.950 . S
H324 C321 0.950 . S
C325 C316 1.390 . S
C325 H318 0.950 . S
C325 C322 1.387 . S
C326 C327 1.387 . S
C326 H330 0.950 . S
C326 C335 1.390 . S
C327 C326 1.387 . S
C327 C329 1.387 . S
H328 C335 0.950 . S
C329 C327 1.387 . S
C329 C331 1.390 . S
C329 H333 0.950 . S
H330 C326 0.950 . S
C331 C329 1.390 . S
C331 C332 1.387 . S
C331 H334 0.950 . S
C332 C331 1.387 . S
C332 C335 1.387 . S
H333 C329 0.950 . S
H334 C331 0.950 . S
C335 C326 1.390 . S
C335 H328 0.950 . S
C335 C332 1.387 . S
C336 C337 1.387 . S
C336 H340 0.950 . S
C336 C345 1.390 . S
C337 C336 1.387 . S
C337 C339 1.387 1_554 S
H338 C345 0.950 . S
C339 C337 1.387 1_556 S
C339 C341 1.390 . S
C339 H343 0.950 . S
H340 C336 0.950 . S
C341 C339 1.390 . S
C341 C342 1.387 . S
C341 H344 0.950 . S
C342 C341 1.387 . S
C342 C345 1.387 1_556 S
H343 C339 0.950 . S
H344 C341 0.950 . S
C345 C336 1.390 . S
C345 H338 0.950 . S
C345 C342 1.387 1_554 S
C346 C347 1.387 . S
C346 H350 0.950 . S
C346 C355 1.390 . S
C347 C346 1.387 . S
C347 C349 1.387 . S
H348 C355 0.950 . S
C349 C347 1.387 . S
C349 C351 1.390 . S
C349 H353 0.950 . S
H350 C346 0.950 . S
C351 C349 1.390 . S
C351 C352 1.387 . S
C351 H354 0.950 . S
C352 C351 1.387 . S
C352 C355 1.387 . S
H353 C349 0.950 . S
H354 C351 0.950 . S
C355 C346 1.390 . S
C355 H348 0.950 . S
C355 C352 1.387 . S
C356 C357 1.387 1_556 S
C356 H360 0.950 . S
C356 C365 1.390 . S
C357 C356 1.387 1_554 S
C357 C359 1.387 . S
H358 C365 0.950 . S
C359 C357 1.387 . S
C359 C361 1.390 . S
C359 H363 0.950 . S
H360 C356 0.950 . S
C361 C359 1.390 . S
C361 C362 1.387 . S
C361 H364 0.950 . S
C362 C361 1.387 . S
C362 C365 1.387 1_554 S
H363 C359 0.950 . S
H364 C361 0.950 . S
C365 C356 1.390 . S
C365 H358 0.950 . S
C365 C362 1.387 1_556 S
C366 C367 1.387 . S
C366 H370 0.950 . S
C366 C375 1.390 . S
C367 C366 1.387 . S
C367 C369 1.387 . S
H368 C375 0.950 . S
C369 C367 1.387 . S
C369 C371 1.390 . S
C369 H373 0.950 . S
H370 C366 0.950 . S
C371 C369 1.390 . S
C371 C372 1.387 . S
C371 H374 0.950 . S
C372 C371 1.387 . S
C372 C375 1.387 . S
H373 C369 0.950 . S
H374 C371 0.950 . S
C375 C366 1.390 . S
C375 H368 0.950 . S
C375 C372 1.387 . S
C376 C377 1.387 . S
C376 H380 0.950 . S
C376 C385 1.390 . S
C377 C376 1.387 . S
C377 C379 1.387 . S
H378 C385 0.950 . S
C379 C377 1.387 . S
C379 C381 1.390 . S
C379 H383 0.950 . S
H380 C376 0.950 . S
C381 C379 1.390 . S
C381 C382 1.387 . S
C381 H384 0.950 . S
C382 C381 1.387 . S
C382 C385 1.387 . S
H383 C379 0.950 . S
H384 C381 0.950 . S
C385 C376 1.390 . S
C385 H378 0.950 . S
C385 C382 1.387 . S
C386 C387 1.387 . S
C386 H390 0.950 . S
C386 C395 1.390 . S
C387 C386 1.387 . S
C387 C389 1.387 1_554 S
H388 C395 0.950 . S
C389 C387 1.387 1_556 S
C389 C391 1.390 . S
C389 H393 0.950 . S
H390 C386 0.950 . S
C391 C389 1.390 . S
C391 C392 1.387 1_556 S
C391 H394 0.950 . S
C392 C391 1.387 1_554 S
C392 C395 1.387 . S
H393 C389 0.950 . S
H394 C391 0.950 . S
C395 C386 1.390 . S
C395 H388 0.950 . S
C395 C392 1.387 . S
C396 C397 1.387 . S
C396 H400 0.950 . S
C396 C405 1.390 . S
C397 C396 1.387 . S
C397 C399 1.387 . S
H398 C405 0.950 . S
C399 C397 1.387 . S
C399 C401 1.390 . S
C399 H403 0.950 . S
H400 C396 0.950 . S
C401 C399 1.390 . S
C401 C402 1.387 . S
C401 H404 0.950 . S
C402 C401 1.387 . S
C402 C405 1.387 . S
H403 C399 0.950 . S
H404 C401 0.950 . S
C405 C396 1.390 . S
C405 H398 0.950 . S
C405 C402 1.387 . S
C406 C407 1.387 . S
C406 H410 0.950 . S
C406 C415 1.390 . S
C407 C406 1.387 . S
C407 C409 1.387 1_554 S
H408 C415 0.950 . S
C409 C407 1.387 1_556 S
C409 C411 1.390 . S
C409 H413 0.950 . S
H410 C406 0.950 . S
C411 C409 1.390 . S
C411 C412 1.387 . S
C411 H414 0.950 . S
C412 C411 1.387 . S
C412 C415 1.387 1_556 S
H413 C409 0.950 . S
H414 C411 0.950 . S
C415 C406 1.390 . S
C415 H408 0.950 . S
C415 C412 1.387 1_554 S
C177 C5 1.467 . S
C182 C126 1.353 . S
C187 C31 1.542 . S
C192 C95 1.490 . S
C202 C106 1.455 . S
C197 C53 1.488 . S
C207 C71 1.416 . S
C212 C115 1.300 . S
C222 C150 1.487 . S
C217 C75 1.542 . S
C232 C159 1.352 . S
C227 C9 1.467 . S
C242 C170 1.299 . S
C237 C27 1.418 . S
C252 C139 1.456 . S
C247 C49 1.487 . S
C257 C51 1.468 . S
C262 C104 1.199 . S
C267 C72 1.541 . S
C272 C117 1.546 . S
C277 C6 1.488 . S
C282 C128 1.499 . S
C292 C93 1.185 . S
C287 C29 1.416 . S
C297 C28 1.542 . S
C302 C172 1.546 . S
C312 C137 1.200 . S
C307 C50 1.466 . S
C322 C148 1.185 . S
C317 C73 1.418 . S
C327 C7 1.489 . S
C332 C161 1.499 . S
C342 C96 1.497 . S
C337 C4 1.521 . S
C352 C107 1.501 . S
C347 C30 1.524 . S
C357 C52 1.520 . S
C362 C118 1.530 . S
C367 C70 1.524 . S
C372 C129 1.533 . S
C382 C140 1.499 . S
C377 C74 1.526 . S
C387 C8 1.520 . S
C392 C151 1.499 . S
C397 C26 1.525 . S
C402 C162 1.533 . S
C407 C48 1.520 . S
C412 C173 1.530 . S
