# Generated by pormake.
# Topology ibd, (4,6)-cn, num edge types: 1
# Building blocks:
#     Node 0, Type 0, BuildingBlock: GALJAG_clean_sbu_0, # of connection points: 4
#     Node 1, Type 0, BuildingBlock: GALJAG_clean_sbu_0, # of connection points: 4
#     Node 2, Type 0, BuildingBlock: GALJAG_clean_sbu_0, # of connection points: 4
#     Node 3, Type 0, BuildingBlock: GALJAG_clean_sbu_0, # of connection points: 4
#     Node 4, Type 0, BuildingBlock: GALJAG_clean_sbu_0, # of connection points: 4
#     Node 5, Type 0, BuildingBlock: GALJAG_clean_sbu_0, # of connection points: 4
#     Node 6, Type 0, BuildingBlock: GALJAG_clean_sbu_0, # of connection points: 4
#     Node 7, Type 0, BuildingBlock: GALJAG_clean_sbu_0, # of connection points: 4
#     Node 8, Type 0, BuildingBlock: GALJAG_clean_sbu_0, # of connection points: 4
#     Node 9, Type 0, BuildingBlock: GALJAG_clean_sbu_0, # of connection points: 4
#     Node 10, Type 0, BuildingBlock: GALJAG_clean_sbu_0, # of connection points: 4
#     Node 11, Type 0, BuildingBlock: GALJAG_clean_sbu_0, # of connection points: 4
#     Node 12, Type 0, BuildingBlock: GALJAG_clean_sbu_0, # of connection points: 4
#     Node 13, Type 0, BuildingBlock: GALJAG_clean_sbu_0, # of connection points: 4
#     Node 14, Type 0, BuildingBlock: GALJAG_clean_sbu_0, # of connection points: 4
#     Node 15, Type 0, BuildingBlock: GALJAG_clean_sbu_0, # of connection points: 4
#     Node 16, Type 0, BuildingBlock: GALJAG_clean_sbu_0, # of connection points: 4
#     Node 17, Type 0, BuildingBlock: GALJAG_clean_sbu_0, # of connection points: 4
#     Node 18, Type 0, BuildingBlock: GALJAG_clean_sbu_0, # of connection points: 4
#     Node 19, Type 0, BuildingBlock: GALJAG_clean_sbu_0, # of connection points: 4
#     Node 20, Type 0, BuildingBlock: GALJAG_clean_sbu_0, # of connection points: 4
#     Node 21, Type 0, BuildingBlock: GALJAG_clean_sbu_0, # of connection points: 4
#     Node 22, Type 0, BuildingBlock: GALJAG_clean_sbu_0, # of connection points: 4
#     Node 23, Type 0, BuildingBlock: GALJAG_clean_sbu_0, # of connection points: 4
#     Node 24, Type 1, BuildingBlock: IZENUY_clean_sbu_0, # of connection points: 6
#     Node 25, Type 1, BuildingBlock: IZENUY_clean_sbu_0, # of connection points: 6
#     Node 26, Type 1, BuildingBlock: IZENUY_clean_sbu_0, # of connection points: 6
#     Node 27, Type 1, BuildingBlock: IZENUY_clean_sbu_0, # of connection points: 6
#     Node 28, Type 1, BuildingBlock: IZENUY_clean_sbu_0, # of connection points: 6
#     Node 29, Type 1, BuildingBlock: IZENUY_clean_sbu_0, # of connection points: 6
#     Node 30, Type 1, BuildingBlock: IZENUY_clean_sbu_0, # of connection points: 6
#     Node 31, Type 1, BuildingBlock: IZENUY_clean_sbu_0, # of connection points: 6
#     Node 32, Type 1, BuildingBlock: IZENUY_clean_sbu_0, # of connection points: 6
#     Node 33, Type 1, BuildingBlock: IZENUY_clean_sbu_0, # of connection points: 6
#     Node 34, Type 1, BuildingBlock: IZENUY_clean_sbu_0, # of connection points: 6
#     Node 35, Type 1, BuildingBlock: IZENUY_clean_sbu_0, # of connection points: 6
#     Node 36, Type 1, BuildingBlock: IZENUY_clean_sbu_0, # of connection points: 6
#     Node 37, Type 1, BuildingBlock: IZENUY_clean_sbu_0, # of connection points: 6
#     Node 38, Type 1, BuildingBlock: IZENUY_clean_sbu_0, # of connection points: 6
#     Node 39, Type 1, BuildingBlock: IZENUY_clean_sbu_0, # of connection points: 6
#     Edge 40, Type (0, 1), BuildingBlock: UVAHIK_clean_linker_0, # of connection points: 2
#     Edge 41, Type (0, 1), BuildingBlock: UVAHIK_clean_linker_0, # of connection points: 2
#     Edge 42, Type (0, 1), BuildingBlock: UVAHIK_clean_linker_0, # of connection points: 2
#     Edge 43, Type (0, 1), BuildingBlock: UVAHIK_clean_linker_0, # of connection points: 2
#     Edge 44, Type (0, 1), BuildingBlock: UVAHIK_clean_linker_0, # of connection points: 2
#     Edge 45, Type (0, 1), BuildingBlock: UVAHIK_clean_linker_0, # of connection points: 2
#     Edge 46, Type (0, 1), BuildingBlock: UVAHIK_clean_linker_0, # of connection points: 2
#     Edge 47, Type (0, 1), BuildingBlock: UVAHIK_clean_linker_0, # of connection points: 2
#     Edge 48, Type (0, 1), BuildingBlock: UVAHIK_clean_linker_0, # of connection points: 2
#     Edge 49, Type (0, 1), BuildingBlock: UVAHIK_clean_linker_0, # of connection points: 2
#     Edge 50, Type (0, 1), BuildingBlock: UVAHIK_clean_linker_0, # of connection points: 2
#     Edge 51, Type (0, 1), BuildingBlock: UVAHIK_clean_linker_0, # of connection points: 2
#     Edge 52, Type (0, 1), BuildingBlock: UVAHIK_clean_linker_0, # of connection points: 2
#     Edge 53, Type (0, 1), BuildingBlock: UVAHIK_clean_linker_0, # of connection points: 2
#     Edge 54, Type (0, 1), BuildingBlock: UVAHIK_clean_linker_0, # of connection points: 2
#     Edge 55, Type (0, 1), BuildingBlock: UVAHIK_clean_linker_0, # of connection points: 2
#     Edge 56, Type (0, 1), BuildingBlock: UVAHIK_clean_linker_0, # of connection points: 2
#     Edge 57, Type (0, 1), BuildingBlock: UVAHIK_clean_linker_0, # of connection points: 2
#     Edge 58, Type (0, 1), BuildingBlock: UVAHIK_clean_linker_0, # of connection points: 2
#     Edge 59, Type (0, 1), BuildingBlock: UVAHIK_clean_linker_0, # of connection points: 2
#     Edge 60, Type (0, 1), BuildingBlock: UVAHIK_clean_linker_0, # of connection points: 2
#     Edge 61, Type (0, 1), BuildingBlock: UVAHIK_clean_linker_0, # of connection points: 2
#     Edge 62, Type (0, 1), BuildingBlock: UVAHIK_clean_linker_0, # of connection points: 2
#     Edge 63, Type (0, 1), BuildingBlock: UVAHIK_clean_linker_0, # of connection points: 2
#     Edge 64, Type (0, 1), BuildingBlock: UVAHIK_clean_linker_0, # of connection points: 2
#     Edge 65, Type (0, 1), BuildingBlock: UVAHIK_clean_linker_0, # of connection points: 2
#     Edge 66, Type (0, 1), BuildingBlock: UVAHIK_clean_linker_0, # of connection points: 2
#     Edge 67, Type (0, 1), BuildingBlock: UVAHIK_clean_linker_0, # of connection points: 2
#     Edge 68, Type (0, 1), BuildingBlock: UVAHIK_clean_linker_0, # of connection points: 2
#     Edge 69, Type (0, 1), BuildingBlock: UVAHIK_clean_linker_0, # of connection points: 2
#     Edge 70, Type (0, 1), BuildingBlock: UVAHIK_clean_linker_0, # of connection points: 2
#     Edge 71, Type (0, 1), BuildingBlock: UVAHIK_clean_linker_0, # of connection points: 2
#     Edge 72, Type (0, 1), BuildingBlock: UVAHIK_clean_linker_0, # of connection points: 2
#     Edge 73, Type (0, 1), BuildingBlock: UVAHIK_clean_linker_0, # of connection points: 2
#     Edge 74, Type (0, 1), BuildingBlock: UVAHIK_clean_linker_0, # of connection points: 2
#     Edge 75, Type (0, 1), BuildingBlock: UVAHIK_clean_linker_0, # of connection points: 2
#     Edge 76, Type (0, 1), BuildingBlock: UVAHIK_clean_linker_0, # of connection points: 2
#     Edge 77, Type (0, 1), BuildingBlock: UVAHIK_clean_linker_0, # of connection points: 2
#     Edge 78, Type (0, 1), BuildingBlock: UVAHIK_clean_linker_0, # of connection points: 2
#     Edge 79, Type (0, 1), BuildingBlock: UVAHIK_clean_linker_0, # of connection points: 2
#     Edge 80, Type (0, 1), BuildingBlock: UVAHIK_clean_linker_0, # of connection points: 2
#     Edge 81, Type (0, 1), BuildingBlock: UVAHIK_clean_linker_0, # of connection points: 2
#     Edge 82, Type (0, 1), BuildingBlock: UVAHIK_clean_linker_0, # of connection points: 2
#     Edge 83, Type (0, 1), BuildingBlock: UVAHIK_clean_linker_0, # of connection points: 2
#     Edge 84, Type (0, 1), BuildingBlock: UVAHIK_clean_linker_0, # of connection points: 2
#     Edge 85, Type (0, 1), BuildingBlock: UVAHIK_clean_linker_0, # of connection points: 2
#     Edge 86, Type (0, 1), BuildingBlock: UVAHIK_clean_linker_0, # of connection points: 2
#     Edge 87, Type (0, 1), BuildingBlock: UVAHIK_clean_linker_0, # of connection points: 2
#     Edge 88, Type (0, 1), BuildingBlock: UVAHIK_clean_linker_0, # of connection points: 2
#     Edge 89, Type (0, 1), BuildingBlock: UVAHIK_clean_linker_0, # of connection points: 2
#     Edge 90, Type (0, 1), BuildingBlock: UVAHIK_clean_linker_0, # of connection points: 2
#     Edge 91, Type (0, 1), BuildingBlock: UVAHIK_clean_linker_0, # of connection points: 2
#     Edge 92, Type (0, 1), BuildingBlock: UVAHIK_clean_linker_0, # of connection points: 2
#     Edge 93, Type (0, 1), BuildingBlock: UVAHIK_clean_linker_0, # of connection points: 2
#     Edge 94, Type (0, 1), BuildingBlock: UVAHIK_clean_linker_0, # of connection points: 2
#     Edge 95, Type (0, 1), BuildingBlock: UVAHIK_clean_linker_0, # of connection points: 2
#     Edge 96, Type (0, 1), BuildingBlock: UVAHIK_clean_linker_0, # of connection points: 2
#     Edge 97, Type (0, 1), BuildingBlock: UVAHIK_clean_linker_0, # of connection points: 2
#     Edge 98, Type (0, 1), BuildingBlock: UVAHIK_clean_linker_0, # of connection points: 2
#     Edge 99, Type (0, 1), BuildingBlock: UVAHIK_clean_linker_0, # of connection points: 2
#     Edge 100, Type (0, 1), BuildingBlock: UVAHIK_clean_linker_0, # of connection points: 2
#     Edge 101, Type (0, 1), BuildingBlock: UVAHIK_clean_linker_0, # of connection points: 2
#     Edge 102, Type (0, 1), BuildingBlock: UVAHIK_clean_linker_0, # of connection points: 2
#     Edge 103, Type (0, 1), BuildingBlock: UVAHIK_clean_linker_0, # of connection points: 2
#     Edge 104, Type (0, 1), BuildingBlock: UVAHIK_clean_linker_0, # of connection points: 2
#     Edge 105, Type (0, 1), BuildingBlock: UVAHIK_clean_linker_0, # of connection points: 2
#     Edge 106, Type (0, 1), BuildingBlock: UVAHIK_clean_linker_0, # of connection points: 2
#     Edge 107, Type (0, 1), BuildingBlock: UVAHIK_clean_linker_0, # of connection points: 2
#     Edge 108, Type (0, 1), BuildingBlock: UVAHIK_clean_linker_0, # of connection points: 2
#     Edge 109, Type (0, 1), BuildingBlock: UVAHIK_clean_linker_0, # of connection points: 2
#     Edge 110, Type (0, 1), BuildingBlock: UVAHIK_clean_linker_0, # of connection points: 2
#     Edge 111, Type (0, 1), BuildingBlock: UVAHIK_clean_linker_0, # of connection points: 2
#     Edge 112, Type (0, 1), BuildingBlock: UVAHIK_clean_linker_0, # of connection points: 2
#     Edge 113, Type (0, 1), BuildingBlock: UVAHIK_clean_linker_0, # of connection points: 2
#     Edge 114, Type (0, 1), BuildingBlock: UVAHIK_clean_linker_0, # of connection points: 2
#     Edge 115, Type (0, 1), BuildingBlock: UVAHIK_clean_linker_0, # of connection points: 2
#     Edge 116, Type (0, 1), BuildingBlock: UVAHIK_clean_linker_0, # of connection points: 2
#     Edge 117, Type (0, 1), BuildingBlock: UVAHIK_clean_linker_0, # of connection points: 2
#     Edge 118, Type (0, 1), BuildingBlock: UVAHIK_clean_linker_0, # of connection points: 2
#     Edge 119, Type (0, 1), BuildingBlock: UVAHIK_clean_linker_0, # of connection points: 2
#     Edge 120, Type (0, 1), BuildingBlock: UVAHIK_clean_linker_0, # of connection points: 2
#     Edge 121, Type (0, 1), BuildingBlock: UVAHIK_clean_linker_0, # of connection points: 2
#     Edge 122, Type (0, 1), BuildingBlock: UVAHIK_clean_linker_0, # of connection points: 2
#     Edge 123, Type (0, 1), BuildingBlock: UVAHIK_clean_linker_0, # of connection points: 2
#     Edge 124, Type (0, 1), BuildingBlock: UVAHIK_clean_linker_0, # of connection points: 2
#     Edge 125, Type (0, 1), BuildingBlock: UVAHIK_clean_linker_0, # of connection points: 2
#     Edge 126, Type (0, 1), BuildingBlock: UVAHIK_clean_linker_0, # of connection points: 2
#     Edge 127, Type (0, 1), BuildingBlock: UVAHIK_clean_linker_0, # of connection points: 2
#     Edge 128, Type (0, 1), BuildingBlock: UVAHIK_clean_linker_0, # of connection points: 2
#     Edge 129, Type (0, 1), BuildingBlock: UVAHIK_clean_linker_0, # of connection points: 2
#     Edge 130, Type (0, 1), BuildingBlock: UVAHIK_clean_linker_0, # of connection points: 2
#     Edge 131, Type (0, 1), BuildingBlock: UVAHIK_clean_linker_0, # of connection points: 2
#     Edge 132, Type (0, 1), BuildingBlock: UVAHIK_clean_linker_0, # of connection points: 2
#     Edge 133, Type (0, 1), BuildingBlock: UVAHIK_clean_linker_0, # of connection points: 2
#     Edge 134, Type (0, 1), BuildingBlock: UVAHIK_clean_linker_0, # of connection points: 2
#     Edge 135, Type (0, 1), BuildingBlock: UVAHIK_clean_linker_0, # of connection points: 2
# Relax obj value: 0.206
# Max RMSD: 0.229
# Mean RMSD: 0.214
data_MOF--net-ibd--node1-GALJAG_clean_sbu_0--node2-IZENUY_clean_sbu_0--edge1-UVAHIK_clean_linker_0
_symmetry_space_group_name_H-M    P1
_symmetry_Int_Tables_number       1
_symmetry_cell_setting            triclinic
loop_
_symmetry_equiv_pos_as_xyz
'x, y, z'
_cell_length_a     63.390303
_cell_length_b     63.367313
_cell_length_c     63.368178
_cell_angle_alpha  90.066179
_cell_angle_beta   90.062206
_cell_angle_gamma 90.044765
loop_
_atom_site_label
_atom_site_type_symbol
_atom_site_fract_x
_atom_site_fract_y
_atom_site_fract_z
_atom_type_partial_charge
In0 In 0.00649 0.24824 0.36829 0.0
O1 O 0.03061 0.25171 0.34196 0.0
O2 O 0.0289 0.22222 0.35777 0.0
C3 C 0.02036 0.28002 0.39283 0.0
C4 C 0.97718 0.26053 0.34025 0.0
C5 C 0.98958 0.2205 0.39581 0.0
O6 O 0.0326 0.26703 0.38406 0.0
O7 O 0.00102 0.2771 0.38911 0.0
O8 O 0.97967 0.22741 0.38006 0.0
O9 O 0.00809 0.22749 0.39769 0.0
C10 C 0.03761 0.23318 0.34365 0.0
O11 O 0.98344 0.24168 0.34159 0.0
O12 O 0.98586 0.27322 0.35294 0.0
In13 In -0.00192 0.74972 0.62288 0.0
O14 O 0.97707 0.77419 0.6384 0.0
O15 O 0.97083 0.74195 0.64507 0.0
C16 C 0.01928 0.77718 0.59842 0.0
C17 C 0.02598 0.7359 0.65179 0.0
C18 C 0.98084 0.72477 0.59309 0.0
O19 O 0.00288 0.78221 0.60843 0.0
O20 O 0.02512 0.75832 0.6009 0.0
O21 O -0.00383 0.71901 0.60436 0.0
O22 O 0.97416 0.74312 0.59686 0.0
C23 C 0.96585 0.76097 0.6481 0.0
O24 O 0.01591 0.72367 0.63975 0.0
O25 O 0.02208 0.75524 0.64922 0.0
In26 In 0.48992 0.75353 0.8706 0.0
O27 O 0.51187 0.75906 0.84286 0.0
O28 O 0.51038 0.72806 0.85559 0.0
C29 C 0.50766 0.78214 0.89656 0.0
C30 C 0.45794 0.76996 0.84791 0.0
C31 C 0.47635 0.72242 0.89621 0.0
O32 O 0.51752 0.77375 0.88146 0.0
O33 O 0.48872 0.77631 0.8984 0.0
O34 O 0.46493 0.73043 0.88204 0.0
O35 O 0.49477 0.72986 0.89725 0.0
C36 C 0.51828 0.74024 0.84198 0.0
O37 O 0.46511 0.75168 0.84474 0.0
O38 O 0.46688 0.78001 0.8626 0.0
In39 In 0.49748 0.24715 0.12598 0.0
O40 O 0.51384 0.22069 0.1438 0.0
O41 O 0.5232 0.25214 0.15067 0.0
C42 C 0.48361 0.2185 0.09775 0.0
C43 C 0.46762 0.26214 0.15208 0.0
C44 C 0.51295 0.27616 0.0992 0.0
O45 O 0.50291 0.22161 0.10136 0.0
O46 O 0.47123 0.22977 0.10848 0.0
O47 O 0.49364 0.27518 0.10385 0.0
O48 O 0.52443 0.2626 0.10815 0.0
C49 C 0.52563 0.23275 0.15436 0.0
O50 O 0.47992 0.27399 0.14187 0.0
O51 O 0.47036 0.24264 0.14912 0.0
In52 In 0.9884 0.75343 0.12782 0.0
O53 O 0.96086 0.76822 0.11042 0.0
O54 O 0.99099 0.78258 0.10696 0.0
C55 C 0.96067 0.73363 0.15349 0.0
C56 C 0.00556 0.72532 0.10116 0.0
C57 C 0.01759 0.77219 0.15239 0.0
O58 O 0.96598 0.75259 0.15598 0.0
O59 O 0.96943 0.72456 0.13819 0.0
O60 O 0.02164 0.75598 0.14159 0.0
O61 O -0.00107 0.77884 0.15075 0.0
C62 C 0.97164 0.78282 0.10229 0.0
O63 O 0.01221 0.72772 0.11981 0.0
O64 O 0.99044 0.7372 0.09601 0.0
In65 In 0.49905 0.74066 0.37466 0.0
O66 O 0.50084 0.70738 0.38812 0.0
O67 O 0.52932 0.72492 0.3856 0.0
C68 C 0.46682 0.72693 0.35057 0.0
C69 C 0.48533 0.76466 0.40718 0.0
C70 C 0.52524 0.76089 0.34819 0.0
O71 O 0.4732 0.717 0.36659 0.0
O72 O 0.47658 0.74386 0.34682 0.0
O73 O 0.5157 0.7702 0.36297 0.0
O74 O 0.52144 0.74139 0.34669 0.0
C75 C 0.52051 0.70796 0.39112 0.0
O76 O 0.47461 0.76186 0.39069 0.0
O77 O 0.5028 0.75529 0.40732 0.0
In78 In 0.49926 0.25341 0.62292 0.0
O79 O 0.52348 0.22936 0.6116 0.0
O80 O 0.49333 0.22953 0.59687 0.0
C81 C 0.53151 0.26588 0.64763 0.0
C82 C 0.486 0.28536 0.59823 0.0
C83 C 0.46772 0.2396 0.64777 0.0
O84 O 0.52165 0.24885 0.65066 0.0
O85 O 0.52517 0.27652 0.63207 0.0
O86 O 0.47724 0.25677 0.65118 0.0
O87 O 0.47408 0.22953 0.63185 0.0
C88 C 0.51141 0.22132 0.59794 0.0
O89 O 0.47638 0.27994 0.61476 0.0
O90 O 0.50232 0.27474 0.59426 0.0
In91 In 0.99081 0.25031 0.86892 0.0
O92 O 0.00365 0.21937 0.88197 0.0
O93 O 0.01423 0.24797 0.89593 0.0
C94 C 0.96109 0.233 0.84401 0.0
C95 C 0.96676 0.2736 0.89503 0.0
C96 C 0.02049 0.26592 0.84287 0.0
O97 O 0.97082 0.2227 0.85796 0.0
O98 O 0.96632 0.25216 0.8426 0.0
O99 O 0.01169 0.27689 0.85693 0.0
O100 O 0.01429 0.24703 0.84189 0.0
C101 C 0.01482 0.2281 0.89596 0.0
O102 O 0.9777 0.28181 0.88059 0.0
O103 O 0.9676 0.25375 0.89587 0.0
In104 In 0.37456 0.99482 0.24682 0.0
O105 O 0.36223 0.96193 0.25548 0.0
O106 O 0.34682 0.98861 0.26846 0.0
C107 C 0.40015 0.97975 0.21674 0.0
C108 C 0.34972 0.02194 0.2255 0.0
C109 C 0.40114 0.00977 0.27633 0.0
O110 O 0.38363 0.9702 0.22248 0.0
O111 O 0.40375 -0.00305 0.22621 0.0
O112 O 0.3903 0.02153 0.26456 0.0
O113 O 0.3989 0.99026 0.27307 0.0
C114 C 0.34771 0.96883 0.26715 0.0
O115 O 0.35337 0.02373 0.24494 0.0
O116 O 0.35847 0.00639 0.21676 0.0
In117 In 0.25209 0.12562 0.49718 0.0
O118 O 0.22594 0.13648 0.51955 0.0
O119 O 0.25253 0.15634 0.51602 0.0
C120 C 0.22213 0.09968 0.48191 0.0
C121 C 0.2705 0.14816 0.46633 0.0
C122 C 0.28169 0.09973 0.51311 0.0
O123 O 0.23052 0.09706 0.49979 0.0
O124 O 0.22884 0.11544 0.47176 0.0
O125 O 0.2753 0.09845 0.4943 0.0
O126 O 0.27305 0.11402 0.52396 0.0
C127 C 0.23491 0.15345 0.52466 0.0
O128 O 0.28072 0.14011 0.48136 0.0
O129 O 0.25089 0.14477 0.46674 0.0
In130 In 0.12011 0.0007 0.75047 0.0
O131 O 0.10636 0.97297 0.7682 0.0
O132 O 0.09664 0.00362 0.77774 0.0
C133 C 0.14423 0.97559 0.7261 0.0
C134 C 0.09229 0.01609 0.72248 0.0
C135 C 0.14805 0.02573 0.77076 0.0
O136 O 0.13976 0.97124 0.74495 0.0
O137 O 0.1366 0.99269 0.71947 0.0
O138 O 0.13275 0.03311 0.76045 0.0
O139 O 0.14908 0.00591 0.77093 0.0
C140 C 0.09535 0.98395 0.78057 0.0
O141 O 0.10822 0.0264 0.72859 0.0
O142 O 0.09036 -0.00203 0.73056 0.0
In143 In 0.24535 0.87525 0.99293 0.0
O144 O 0.21216 0.88534 0.00236 0.0
O145 O 0.23816 0.90019 0.01756 0.0
C146 C 0.23156 0.84958 0.96196 0.0
C147 C 0.27003 0.90244 0.97159 0.0
C148 C 0.26032 0.85124 0.02453 0.0
O149 O 0.22112 0.86519 0.96847 0.0
O150 O 0.24913 0.84699 0.97094 0.0
O151 O 0.27069 0.86627 0.01664 0.0
O152 O 0.24239 0.84822 0.01639 0.0
C153 C 0.21841 0.89882 0.01564 0.0
O154 O 0.27725 0.88591 0.97993 0.0
O155 O 0.25045 0.90495 0.97369 0.0
In156 In 0.25065 0.37919 0.9927 0.0
O157 O 0.25941 0.36499 0.96086 0.0
O158 O 0.27739 0.35607 0.98776 0.0
C159 C 0.21749 0.4027 0.98054 0.0
C160 C 0.23216 0.34957 0.01669 0.0
C161 C 0.27891 0.40825 0.00535 0.0
O162 O 0.22888 0.39275 0.96762 0.0
O163 O 0.22284 0.4008 -0.00039 0.0
O164 O 0.27059 0.39522 0.01786 0.0
O165 O 0.27293 0.40664 0.98643 0.0
C166 C 0.27427 0.35398 0.96821 0.0
O167 O 0.24361 0.3639 0.02448 0.0
O168 O 0.2298 0.35049 -0.00305 0.0
In169 In 0.74644 0.1179 0.99028 0.0
O170 O 0.72819 0.1016 0.01644 0.0
O171 O 0.72361 0.09061 0.98507 0.0
C172 C 0.76568 0.14738 0.01404 0.0
C173 C 0.77843 0.09411 0.97568 0.0
C174 C 0.72152 0.14335 0.96733 0.0
O175 O 0.75476 0.13276 0.02197 0.0
O176 O 0.76728 0.14678 0.99422 0.0
O177 O 0.73685 0.1335 0.95934 0.0
O178 O 0.71862 0.14003 0.98673 0.0
C179 C 0.71891 0.08882 0.00431 0.0
O180 O 0.76593 0.10385 0.96366 0.0
O181 O 0.77486 0.09645 0.99511 0.0
In182 In 0.12349 0.4896 0.24535 0.0
O183 O 0.13273 0.4666 0.2713 0.0
O184 O 0.1511 0.46672 0.24327 0.0
C185 C 0.09878 0.5058 0.27585 0.0
C186 C 0.14865 0.52004 0.22971 0.0
C187 C 0.09788 0.47426 0.21506 0.0
O188 O 0.09608 0.48754 0.26839 0.0
O189 O 0.11405 0.51585 0.26803 0.0
O190 O 0.09554 0.49233 0.22306 0.0
O191 O 0.1133 0.46393 0.2222 0.0
C192 C 0.1482 0.45901 0.26138 0.0
O193 O 0.13339 0.51242 0.21943 0.0
O194 O 0.15124 0.51225 0.24783 0.0
In195 In 0.75499 0.87195 0.49531 0.0
O196 O 0.75606 0.85222 0.46512 0.0
O197 O 0.77916 0.84641 0.48867 0.0
C198 C 0.72528 0.89877 0.48147 0.0
C199 C 0.73582 0.84737 0.52408 0.0
C200 C 0.78522 0.89986 0.50599 0.0
O201 O 0.73631 0.88773 0.4691 0.0
O202 O 0.72931 0.89631 0.50082 0.0
O203 O 0.77406 0.89035 0.51939 0.0
O204 O 0.78121 0.89529 0.48703 0.0
C205 C 0.77177 0.84149 0.47088 0.0
O206 O 0.75437 0.85413 0.52645 0.0
O207 O 0.72689 0.85306 0.50724 0.0
In208 In 0.86938 0.00785 0.25009 0.0
O209 O 0.88178 0.9954 0.28139 0.0
O210 O 0.89469 0.98263 0.25319 0.0
C211 C 0.84576 0.0392 0.26628 0.0
C212 C 0.89707 0.02976 0.22657 0.0
C213 C 0.84153 0.97927 0.23551 0.0
O214 O 0.8598 0.02979 0.27673 0.0
O215 O 0.84359 0.03281 0.24754 0.0
O216 O 0.85446 0.98864 0.22364 0.0
O217 O 0.84264 0.98434 0.25473 0.0
C218 C 0.89479 0.98286 0.2731 0.0
O219 O 0.88254 0.01887 0.21839 0.0
O220 O 0.89734 0.02977 0.24644 0.0
In221 In 0.24768 0.62596 0.49766 0.0
O222 O 0.26675 0.61094 0.47122 0.0
O223 O 0.27297 0.60095 0.50258 0.0
C224 C 0.23184 0.65261 0.46859 0.0
C225 C 0.21834 0.59921 0.51257 0.0
C226 C 0.26253 0.6529 0.52691 0.0
O227 O 0.22075 0.63889 0.47773 0.0
O228 O 0.25093 0.65295 0.47414 0.0
O229 O 0.24311 0.64898 0.52496 0.0
O230 O 0.27434 0.64317 0.5142 0.0
C231 C 0.27735 0.5992 0.48327 0.0
O232 O 0.22909 0.61103 0.52449 0.0
O233 O 0.22249 0.60084 0.49318 0.0
In234 In 0.36445 0.5045 0.74591 0.0
O235 O 0.37704 0.49086 0.77681 0.0
O236 O 0.39314 0.48336 0.74839 0.0
C237 C 0.33785 0.53285 0.76293 0.0
C238 C 0.3891 0.53017 0.72283 0.0
C239 C 0.34043 0.47354 0.72949 0.0
O240 O 0.35288 0.52475 0.77314 0.0
O241 O 0.33624 0.52667 0.74407 0.0
O242 O 0.35411 0.4833 0.71887 0.0
O243 O 0.33885 0.47939 0.74845 0.0
C244 C 0.39226 0.48142 0.76816 0.0
O245 O 0.37517 0.51856 0.71457 0.0
O246 O 0.39018 0.52914 0.74267 0.0
In247 In 0.62566 -0.00115 0.74921 0.0
O248 O 0.63911 0.97789 0.77507 0.0
O249 O 0.6513 0.97439 0.74402 0.0
C250 C 0.60178 0.01405 0.78086 0.0
C251 C 0.64985 0.02906 0.73162 0.0
C252 C 0.59858 0.98256 0.72085 0.0
O253 O 0.59912 0.9959 0.77315 0.0
O254 O 0.6166 0.02451 0.77271 0.0
O255 O 0.5971 0.00127 0.72754 0.0
O256 O 0.61377 0.97217 0.72838 0.0
C257 C 0.65176 0.96841 0.76299 0.0
O258 O 0.63382 0.02154 0.72254 0.0
O259 O 0.65362 0.02141 0.74958 0.0
In260 In 0.74869 0.62239 0.00281 0.0
O261 O 0.72353 0.63213 0.02635 0.0
O262 O 0.75158 0.65053 0.02498 0.0
C263 C 0.72396 0.59458 0.98222 0.0
C264 C 0.76213 0.6468 0.97078 0.0
C265 C 0.77547 0.59969 0.02657 0.0
O266 O 0.71681 0.61142 0.99001 0.0
O267 O 0.74352 0.592 0.98457 0.0
O268 O 0.78185 0.61278 0.01301 0.0
O269 O 0.7557 0.59823 0.02816 0.0
C270 C 0.7338 0.64766 0.03344 0.0
O271 O 0.77287 0.63171 0.97801 0.0
O272 O 0.74455 0.64953 0.97965 0.0
In273 In 0.86723 0.49626 0.75008 0.0
O274 O 0.85705 0.46345 0.76085 0.0
O275 O 0.84352 0.49008 0.77612 0.0
C276 C 0.89228 0.48251 0.7186 0.0
C277 C 0.8385 0.51962 0.7292 0.0
C278 C 0.89299 0.51233 0.77978 0.0
O279 O 0.87813 0.4712 0.72677 0.0
O280 O 0.89368 0.50088 0.72616 0.0
O281 O 0.87773 0.52252 0.77211 0.0
O282 O 0.89529 0.49395 0.77246 0.0
C283 C 0.84441 0.47025 0.77463 0.0
O284 O 0.8545 0.52765 0.73787 0.0
O285 O 0.83728 0.49984 0.73067 0.0
In286 In 0.74748 0.37231 0.50368 0.0
O287 O 0.71584 0.38406 0.51621 0.0
O288 O 0.74255 0.40401 0.51954 0.0
C289 C 0.73166 0.34644 0.47401 0.0
C290 C 0.77575 0.39252 0.47943 0.0
C291 C 0.75999 0.34928 0.53709 0.0
O292 O 0.72189 0.36249 0.48056 0.0
O293 O 0.74943 0.34342 0.48247 0.0
O294 O 0.77047 0.36471 0.53021 0.0
O295 O 0.74315 0.34553 0.52717 0.0
C296 C 0.72308 0.40148 0.52254 0.0
O297 O 0.78122 0.3796 0.49355 0.0
O298 O 0.75611 0.39506 0.47752 0.0
In299 In 0.61651 0.5104 0.24447 0.0
O300 O 0.60815 0.48542 0.26871 0.0
O301 O 0.58648 0.51069 0.26404 0.0
C302 C 0.64543 0.48456 0.22702 0.0
C303 C 0.59048 0.52326 0.21343 0.0
C304 C 0.63997 0.539 0.26555 0.0
O305 O 0.62981 0.47764 0.23718 0.0
O306 O 0.64631 0.50436 0.22559 0.0
O307 O 0.63814 0.53909 0.24577 0.0
O308 O 0.62982 0.52462 0.27475 0.0
C309 C 0.5908 0.49382 0.27372 0.0
O310 O 0.59829 0.5357 0.22685 0.0
O311 O 0.59568 0.50421 0.21569 0.0
Fe312 Fe 0.12682 0.10427 0.1394 0.0
Fe313 Fe 0.10811 0.14487 0.12114 0.0
O314 O 0.12632 0.1238 0.11955 0.0
Fe315 Fe 0.14413 0.12222 0.09815 0.0
O316 O 0.13354 0.09692 0.09 0.0
O317 O 0.13478 0.08288 0.12164 0.0
O318 O 0.09988 0.09685 0.13383 0.0
C319 C 0.08444 0.10935 0.13417 0.0
C320 C 0.16888 0.11012 0.13307 0.0
O321 O 0.08727 0.12915 0.13375 0.0
C322 C 0.14565 0.16436 0.10687 0.0
O323 O 0.11884 0.12202 0.16078 0.0
O324 O 0.1187 0.15343 0.14628 0.0
O325 O 0.16531 0.1098 0.11342 0.0
O326 O 0.15386 0.11062 0.14607 0.0
C327 C 0.10636 0.13631 0.079 0.0
O328 O 0.12575 0.16426 0.1088 0.0
O329 O 0.15577 0.14734 0.10505 0.0
C330 C 0.12013 0.14188 0.16238 0.0
O331 O 0.09634 0.13775 0.0961 0.0
O332 O 0.12624 0.13443 0.079 0.0
C333 C 0.13267 0.08098 0.10187 0.0
Fe334 Fe 0.10192 0.85693 0.37317 0.0
Fe335 Fe 0.12159 0.89637 0.35317 0.0
O336 O 0.12145 0.87691 0.37319 0.0
Fe337 Fe 0.14092 0.87733 0.3932 0.0
O338 O 0.15031 0.85142 0.38575 0.0
O339 O 0.11901 0.83665 0.38466 0.0
O340 O 0.11026 0.84753 0.34754 0.0
C341 C 0.11149 0.85884 0.33123 0.0
C342 C 0.10374 0.86643 0.41511 0.0
O343 O 0.11139 0.87878 0.33256 0.0
C344 C 0.13196 0.9193 0.39014 0.0
O345 O 0.08132 0.87355 0.36163 0.0
O346 O 0.09537 0.90522 0.3603 0.0
O347 O 0.12364 0.86661 0.41369 0.0
O348 O 0.09235 0.86508 0.39884 0.0
C349 C 0.16369 0.88778 0.35651 0.0
O350 O 0.13191 0.91743 0.37024 0.0
O351 O 0.13276 0.90326 0.40185 0.0
C352 C 0.07936 0.89341 0.36092 0.0
O353 O 0.14774 0.88871 0.34467 0.0
O354 O 0.16172 0.88814 0.37636 0.0
C355 C 0.13891 0.83515 0.38487 0.0
Fe356 Fe 0.36887 0.89785 0.64414 0.0
Fe357 Fe 0.35415 0.87848 0.60241 0.0
O358 O 0.37035 0.87743 0.62517 0.0
Fe359 Fe 0.3879 0.85611 0.62901 0.0
O360 O 0.37559 0.84908 0.65377 0.0
O361 O 0.37525 0.88109 0.66683 0.0
O362 O 0.34137 0.89206 0.64913 0.0
C363 C 0.3273 0.89231 0.63505 0.0
C364 C 0.41141 0.89192 0.64169 0.0
O365 O 0.3322 0.8919 0.61568 0.0
C366 C 0.39275 0.86247 0.58669 0.0
O367 O 0.36238 0.91854 0.62503 0.0
O368 O 0.36589 0.90321 0.59417 0.0
O369 O 0.40827 0.87216 0.64207 0.0
O370 O 0.39622 0.90465 0.64011 0.0
C371 C 0.35092 0.83681 0.61295 0.0
O372 O 0.37303 0.8651 0.58508 0.0
O373 O 0.40147 0.86154 0.60452 0.0
C374 C 0.36597 0.91964 0.60541 0.0
O375 O 0.34145 0.85389 0.60921 0.0
O376 O 0.37057 0.83646 0.61663 0.0
C377 C 0.37364 0.86135 0.66927 0.0
Fe378 Fe 0.39669 0.14559 0.86858 0.0
Fe379 Fe 0.37661 0.10594 0.84941 0.0
O380 O 0.37723 0.12562 0.86922 0.0
Fe381 Fe 0.35842 0.12529 0.88975 0.0
O382 O 0.34862 0.15097 0.88227 0.0
O383 O 0.37977 0.16599 0.88029 0.0
O384 O 0.38761 0.15467 0.84315 0.0
C385 C 0.38615 0.14325 0.82693 0.0
C386 C 0.39609 0.13677 0.91063 0.0
O387 O 0.38642 0.12331 0.82839 0.0
C388 C 0.36746 0.08339 0.8868 0.0
O389 O 0.41706 0.12881 0.85676 0.0
O390 O 0.40289 0.09719 0.85625 0.0
O391 O 0.37615 0.13654 0.90973 0.0
O392 O 0.40695 0.13767 0.89402 0.0
C393 C 0.33461 0.11403 0.85372 0.0
O394 O 0.36666 0.08509 0.86689 0.0
O395 O 0.36715 0.09955 0.89839 0.0
C396 C 0.41893 0.10892 0.85685 0.0
O397 O 0.35023 0.11347 0.84143 0.0
O398 O 0.33724 0.11404 0.87353 0.0
C399 C 0.35985 0.16733 0.8811 0.0
Fe400 Fe 0.59736 0.3542 0.87166 0.0
Fe401 Fe 0.61872 0.39376 0.85379 0.0
O402 O 0.617 0.37401 0.87341 0.0
Fe403 Fe 0.63495 0.3741 0.89474 0.0
O404 O 0.64465 0.34824 0.88776 0.0
O405 O 0.61349 0.33354 0.88396 0.0
O406 O 0.60749 0.34522 0.84656 0.0
C407 C 0.60973 0.35677 0.83055 0.0
C408 C 0.5962 0.36311 0.91376 0.0
O409 O 0.60952 0.37668 0.83224 0.0
C410 C 0.62673 0.41614 0.89158 0.0
O411 O 0.57771 0.37136 0.85905 0.0
O412 O 0.59232 0.4028 0.85958 0.0
O413 O 0.61617 0.36336 0.91385 0.0
O414 O 0.58602 0.36186 0.89672 0.0
C415 C 0.66037 0.38493 0.85976 0.0
O416 O 0.62829 0.41446 0.87173 0.0
O417 O 0.62631 0.39996 0.90307 0.0
C418 C 0.57611 0.39129 0.85898 0.0
O419 O 0.64524 0.38587 0.84688 0.0
O420 O 0.65703 0.3849 0.87946 0.0
C421 C 0.63331 0.33201 0.88595 0.0
Fe422 Fe 0.84828 0.37551 0.10493 0.0
Fe423 Fe 0.8687 0.39067 0.1461 0.0
O424 O 0.86768 0.37265 0.12478 0.0
Fe425 Fe 0.88614 0.35182 0.12328 0.0
O426 O 0.89598 0.36118 0.0982 0.0
O427 O 0.86486 0.36518 0.08355 0.0
O428 O 0.85795 0.4015 0.09812 0.0
C429 C 0.85968 0.41659 0.111 0.0
C430 C 0.84795 0.33282 0.11001 0.0
O431 O 0.85933 0.4133 0.1307 0.0
C432 C 0.87739 0.35132 0.16533 0.0
O433 O 0.82821 0.3863 0.12271 0.0
O434 O 0.84222 0.38381 0.15433 0.0
O435 O 0.86791 0.33324 0.11058 0.0
O436 O 0.83744 0.34969 0.1105 0.0
C437 C 0.91059 0.38636 0.13726 0.0
O438 O 0.87835 0.37129 0.16535 0.0
O439 O 0.87742 0.34117 0.14824 0.0
C440 C 0.82622 0.38503 0.14255 0.0
O441 O 0.89515 0.39873 0.13911 0.0
O442 O 0.90774 0.36665 0.13569 0.0
C443 C 0.88472 0.36373 0.082 0.0
Fe444 Fe 0.85553 0.60917 0.39378 0.0
Fe445 Fe 0.89164 0.63233 0.37144 0.0
O446 O 0.8735 0.61117 0.37255 0.0
Fe447 Fe 0.87317 0.59192 0.35231 0.0
O448 O 0.84624 0.59857 0.34545 0.0
O449 O 0.83447 0.59711 0.37799 0.0
O450 O 0.84389 0.63441 0.38745 0.0
C451 C 0.85395 0.65149 0.38585 0.0
C452 C 0.86686 0.568 0.38929 0.0
O453 O 0.87383 0.65155 0.38379 0.0
C454 C 0.91547 0.59693 0.35838 0.0
O455 O 0.87325 0.62101 0.41334 0.0
O456 O 0.90323 0.62514 0.39651 0.0
O457 O 0.86483 0.57026 0.36954 0.0
O458 O 0.86608 0.58376 0.40142 0.0
C459 C 0.88021 0.62979 0.33001 0.0
O460 O 0.91263 0.61673 0.35893 0.0
O461 O 0.90003 0.58438 0.35811 0.0
C462 C 0.89308 0.62334 0.41349 0.0
O463 O 0.88126 0.64109 0.34633 0.0
O464 O 0.88156 0.60993 0.33132 0.0
C465 C 0.83109 0.59825 0.35833 0.0
Fe466 Fe 0.89243 0.84842 0.87277 0.0
Fe467 Fe 0.85314 0.86939 0.89142 0.0
O468 O 0.87297 0.86835 0.87189 0.0
Fe469 Fe 0.87333 0.88726 0.85141 0.0
O470 O 0.89913 0.89643 0.85932 0.0
O471 O 0.91334 0.8649 0.86125 0.0
O472 O 0.90156 0.85725 0.8983 0.0
C473 C 0.88996 0.85926 0.9143 0.0
C474 C 0.88366 0.84922 0.83071 0.0
O475 O 0.87005 0.85927 0.91263 0.0
C476 C 0.83129 0.87884 0.85374 0.0
O477 O 0.87505 0.82844 0.88445 0.0
O478 O 0.84377 0.84331 0.88454 0.0
O479 O 0.88432 0.86919 0.83153 0.0
O480 O 0.88433 0.8384 0.84734 0.0
C481 C 0.86258 0.91113 0.88742 0.0
O482 O 0.8327 0.87983 0.87366 0.0
O483 O 0.84758 0.87908 0.84239 0.0
C484 C 0.85512 0.827 0.8843 0.0
O485 O 0.86143 0.89542 0.89949 0.0
O486 O 0.86238 0.90877 0.86757 0.0
C487 C 0.91518 0.88481 0.86075 0.0
Fe488 Fe 0.87021 0.10407 0.63602 0.0
Fe489 Fe 0.85142 0.12699 0.59786 0.0
O490 O 0.87068 0.12534 0.61801 0.0
Fe491 Fe 0.89031 0.14502 0.62014 0.0
O492 O 0.8817 0.15196 0.64639 0.0
O493 O 0.88042 0.11949 0.65842 0.0
O494 O 0.84411 0.11117 0.64493 0.0
C495 C 0.82822 0.1129 0.63313 0.0
C496 C 0.91248 0.10729 0.62898 0.0
O497 O 0.83036 0.11445 0.61332 0.0
C498 C 0.8889 0.13976 0.57752 0.0
O499 O 0.85993 0.08488 0.6168 0.0
O500 O 0.8598 0.10213 0.58674 0.0
O501 O 0.91075 0.12716 0.6302 0.0
O502 O 0.89634 0.09569 0.62828 0.0
C503 C 0.85345 0.16802 0.61061 0.0
O504 O 0.86896 0.13981 0.57871 0.0
O505 O 0.90005 0.13923 0.59398 0.0
C506 C 0.86061 0.08502 0.5968 0.0
O507 O 0.842 0.15198 0.6079 0.0
O508 O 0.87337 0.16646 0.61056 0.0
C509 C 0.8804 0.13924 0.66159 0.0
Fe510 Fe 0.62296 0.10329 0.3584 0.0
Fe511 Fe 0.64043 0.12256 0.39916 0.0
O512 O 0.62162 0.12251 0.37858 0.0
Fe513 Fe 0.60147 0.14169 0.37817 0.0
O514 O 0.6104 0.15163 0.35302 0.0
O515 O 0.61224 0.1206 0.33769 0.0
O516 O 0.64883 0.11229 0.35061 0.0
C517 C 0.66449 0.11347 0.36282 0.0
C518 C 0.58065 0.10435 0.36559 0.0
O519 O 0.66208 0.11264 0.38266 0.0
C520 C 0.60216 0.13179 0.41996 0.0
O521 O 0.63393 0.08253 0.37545 0.0
O522 O 0.63273 0.09634 0.40721 0.0
O523 O 0.58183 0.12431 0.36584 0.0
O524 O 0.59712 0.09324 0.3651 0.0
C525 C 0.63732 0.16468 0.39121 0.0
O526 O 0.62212 0.13255 0.41932 0.0
O527 O 0.59142 0.13278 0.40327 0.0
C528 C 0.633 0.08041 0.39531 0.0
O529 O 0.64918 0.14879 0.39228 0.0
O530 O 0.61747 0.16254 0.39044 0.0
C531 C 0.61196 0.14057 0.33657 0.0
Fe532 Fe 0.60252 0.84945 0.12482 0.0
Fe533 Fe 0.64264 0.86765 0.10512 0.0
O534 O 0.62206 0.86931 0.12384 0.0
Fe535 Fe 0.62099 0.89082 0.14156 0.0
O536 O 0.59547 0.89881 0.13167 0.0
O537 O 0.58128 0.86724 0.13323 0.0
O538 O 0.59451 0.85488 0.09803 0.0
C539 C 0.60666 0.85445 0.08233 0.0
C540 C 0.6094 0.85593 0.16676 0.0
O541 O 0.62651 0.85457 0.0848 0.0
C542 C 0.66313 0.88257 0.14193 0.0
O543 O 0.62023 0.82807 0.11657 0.0
O544 O 0.65158 0.8428 0.11586 0.0
O545 O 0.60925 0.87561 0.16327 0.0
O546 O 0.60945 0.84294 0.15169 0.0
C547 C 0.6334 0.90956 0.10306 0.0
O548 O 0.66247 0.88054 0.12204 0.0
O549 O 0.6464 0.88408 0.15252 0.0
C550 C 0.64013 0.82663 0.11761 0.0
O551 O 0.63485 0.89233 0.09326 0.0
O552 O 0.63257 0.90992 0.12304 0.0
C553 C 0.57944 0.88705 0.1313 0.0
Fe554 Fe 0.38687 0.65075 0.12578 0.0
Fe555 Fe 0.34692 0.63418 0.10424 0.0
O556 O 0.36661 0.63166 0.12381 0.0
Fe557 Fe 0.36609 0.61001 0.14135 0.0
O558 O 0.39164 0.60114 0.1324 0.0
O559 O 0.40706 0.63207 0.1349 0.0
O560 O 0.39575 0.64522 0.09922 0.0
C561 C 0.38416 0.64613 0.08308 0.0
C562 C 0.37802 0.64431 0.16735 0.0
O563 O 0.36428 0.64679 0.08483 0.0
C564 C 0.3243 0.61978 0.13989 0.0
O565 O 0.37029 0.67286 0.11701 0.0
O566 O 0.33848 0.65925 0.11487 0.0
O567 O 0.37746 0.62465 0.1637 0.0
O568 O 0.37917 0.65736 0.15241 0.0
C569 C 0.35488 0.59198 0.10217 0.0
O570 O 0.32598 0.62194 0.12009 0.0
O571 O 0.34045 0.61756 0.15127 0.0
C572 C 0.35041 0.67501 0.11714 0.0
O573 O 0.3543 0.6093 0.09246 0.0
O574 O 0.35464 0.59149 0.12215 0.0
C575 C 0.40812 0.61223 0.13265 0.0
Fe576 Fe 0.11386 0.60493 0.85974 0.0
Fe577 Fe 0.13421 0.62365 0.89939 0.0
O578 O 0.11433 0.6243 0.87983 0.0
Fe579 Fe 0.09498 0.64433 0.88041 0.0
O580 O 0.10279 0.6537 0.8547 0.0
O581 O 0.10306 0.6226 0.83939 0.0
O582 O 0.13977 0.61257 0.85064 0.0
C583 C 0.15603 0.61279 0.86209 0.0
C584 C 0.07194 0.60783 0.86878 0.0
O585 O 0.15447 0.61239 0.88201 0.0
C586 C 0.09775 0.63508 0.92226 0.0
O587 O 0.12453 0.58378 0.87652 0.0
O588 O 0.12561 0.59795 0.90816 0.0
O589 O 0.07386 0.62773 0.86939 0.0
O590 O 0.08794 0.59613 0.86761 0.0
C591 C 0.13262 0.66574 0.89092 0.0
O592 O 0.11763 0.63479 0.92036 0.0
O593 O 0.08605 0.63617 0.90622 0.0
C594 C 0.12437 0.58193 0.89644 0.0
O595 O 0.14382 0.64934 0.89165 0.0
O596 O 0.11267 0.66452 0.89141 0.0
C597 C 0.10331 0.64257 0.83825 0.0
Fe598 Fe 0.13654 0.37705 0.59972 0.0
Fe599 Fe 0.09844 0.35621 0.62096 0.0
O600 O 0.11771 0.37642 0.62024 0.0
Fe601 Fe 0.11816 0.39606 0.64011 0.0
O602 O 0.14444 0.38848 0.64816 0.0
O603 O 0.15773 0.38811 0.61617 0.0
O604 O 0.14647 0.35129 0.60678 0.0
C605 C 0.1354 0.33481 0.60794 0.0
C606 C 0.12735 0.41889 0.60297 0.0
O607 O 0.1155 0.33593 0.60923 0.0
C608 C 0.07589 0.39285 0.63288 0.0
O609 O 0.11877 0.36618 0.57963 0.0
O610 O 0.08804 0.36383 0.59552 0.0
O611 O 0.12821 0.41709 0.62285 0.0
O612 O 0.12774 0.4028 0.59132 0.0
C613 C 0.10864 0.35879 0.66265 0.0
O614 O 0.07791 0.37295 0.63273 0.0
O615 O 0.09187 0.40471 0.63318 0.0
C616 C 0.09882 0.36557 0.57894 0.0
O617 O 0.10762 0.34727 0.64647 0.0
O618 O 0.10824 0.3787 0.66103 0.0
C619 C 0.16016 0.38791 0.63601 0.0
Fe620 Fe 0.63781 0.62586 0.6005 0.0
Fe621 Fe 0.61521 0.60925 0.63972 0.0
O622 O 0.61701 0.62767 0.61891 0.0
Fe623 Fe 0.598 0.64793 0.61641 0.0
O624 O 0.59009 0.63839 0.59068 0.0
O625 O 0.62234 0.63602 0.57826 0.0
O626 O 0.62939 0.59988 0.59241 0.0
C627 C 0.62725 0.58441 0.60467 0.0
C628 C 0.63629 0.66833 0.60662 0.0
O629 O 0.62619 0.58712 0.62446 0.0
C630 C 0.60447 0.64813 0.65893 0.0
O631 O 0.65704 0.61517 0.61931 0.0
O632 O 0.64086 0.61669 0.64985 0.0
O633 O 0.61641 0.6672 0.60502 0.0
O634 O 0.64732 0.65183 0.60764 0.0
C635 C 0.57376 0.61259 0.62885 0.0
O636 O 0.60392 0.62813 0.65862 0.0
O637 O 0.60486 0.65855 0.642 0.0
C638 C 0.65764 0.61595 0.63926 0.0
O639 O 0.58948 0.60062 0.63093 0.0
O640 O 0.57616 0.63237 0.6274 0.0
C641 C 0.60257 0.63583 0.57541 0.0
Fe642 Fe 0.39373 0.35526 0.37487 0.0
Fe643 Fe 0.37282 0.39411 0.35514 0.0
O644 O 0.37367 0.37461 0.37508 0.0
Fe645 Fe 0.35442 0.37448 0.39523 0.0
O646 O 0.3455 0.34848 0.38775 0.0
O647 O 0.37714 0.33437 0.38618 0.0
O648 O 0.38535 0.34579 0.34934 0.0
C649 C 0.38386 0.35701 0.33303 0.0
C650 C 0.39202 0.36454 0.41685 0.0
O651 O 0.38362 0.37696 0.33434 0.0
C652 C 0.36261 0.41655 0.39229 0.0
O653 O 0.41388 0.37268 0.36339 0.0
O654 O 0.39864 0.40379 0.36235 0.0
O655 O 0.3721 0.36398 0.41558 0.0
O656 O 0.40324 0.36357 0.40049 0.0
C657 C 0.33107 0.38455 0.35864 0.0
O658 O 0.3619 0.41479 0.37238 0.0
O659 O 0.36232 0.40044 0.40389 0.0
C660 C 0.41508 0.39265 0.36295 0.0
O661 O 0.34694 0.38555 0.34675 0.0
O662 O 0.33319 0.38498 0.37851 0.0
C663 C 0.35724 0.3325 0.38645 0.0
C664 C 0.06059 0.23637 0.3119 0.0
C665 C 0.05379 0.2246 0.32937 0.0
C666 C 0.07411 0.22739 0.29704 0.0
C667 C 0.08698 0.17532 0.27602 0.0
H668 H 0.12705 0.20685 0.24223 0.0
C669 C 0.12225 0.13886 0.20163 0.0
C670 C 0.12027 0.15158 0.18359 0.0
C671 C 0.11995 0.14755 0.22173 0.0
C672 C 0.11595 0.19784 0.25158 0.0
H673 H 0.05687 0.1948 0.34586 0.0
H674 H 0.08078 0.17919 0.32005 0.0
H675 H 0.11255 0.22267 0.27429 0.0
H676 H 0.11577 0.18367 0.17252 0.0
H677 H 0.11134 0.19876 0.2076 0.0
H678 H 0.0897 0.15084 0.25306 0.0
C679 C 0.07531 0.19519 0.31759 0.0
C680 C 0.10764 0.20689 0.2699 0.0
C681 C 0.06168 0.20413 0.33238 0.0
C682 C 0.11722 0.17341 0.1861 0.0
C683 C 0.11486 0.18209 0.20622 0.0
C684 C 0.0953 0.16629 0.25779 0.0
C685 C 0.08118 0.2065 0.29944 0.0
C686 C 0.09263 0.19592 0.28199 0.0
C687 C 0.11558 0.16913 0.2242 0.0
C688 C 0.10945 0.17765 0.24508 0.0
H689 H 0.05479 0.25222 0.30924 0.0
H690 H 0.07811 0.23646 0.28314 0.0
H691 H 0.07519 0.16656 0.28473 0.0
H692 H 0.12495 0.12203 0.20025 0.0
H693 H 0.12094 0.13724 0.23532 0.0
C694 C 0.04715 0.7848 0.57182 0.0
C695 C 0.02998 0.79178 0.5839 0.0
C696 C 0.05605 0.79792 0.55659 0.0
C697 C 0.0776 0.83117 0.53042 0.0
H698 H 0.03775 0.85909 0.49332 0.0
C699 C 0.10585 0.87016 0.45422 0.0
C700 C 0.09406 0.86485 0.4362 0.0
C701 C 0.09773 0.86654 0.47433 0.0
C702 C 0.04908 0.85142 0.50356 0.0
H703 H 0.00925 0.81823 0.59029 0.0
H704 H 0.025 0.8413 0.56376 0.0
H705 H 0.02516 0.84211 0.5254 0.0
H706 H 0.06406 0.85271 0.42504 0.0
H707 H 0.0501 0.84576 0.46012 0.0
H708 H 0.10132 0.8392 0.50797 0.0
C709 C 0.03135 0.82558 0.56585 0.0
C710 C 0.04191 0.84192 0.52208 0.0
C711 C 0.02241 0.81242 0.58108 0.0
C712 C 0.07354 0.8569 0.43865 0.0
C713 C 0.06548 0.85307 0.45879 0.0
C714 C 0.08475 0.84055 0.51186 0.0
C715 C 0.04802 0.81831 0.55318 0.0
C716 C 0.05603 0.83116 0.53538 0.0
C717 C 0.07772 0.85734 0.47684 0.0
C718 C 0.07048 0.85028 0.49793 0.0
H719 H 0.0533 0.76896 0.57365 0.0
H720 H 0.06867 0.79171 0.54689 0.0
H721 H 0.08891 0.82329 0.54053 0.0
H722 H 0.12159 0.87668 0.4528 0.0
H723 H 0.10736 0.87044 0.48792 0.0
C724 C 0.43324 0.76789 0.81735 0.0
C725 C 0.44131 0.77925 0.83459 0.0
C726 C 0.41923 0.77742 0.8033 0.0
C727 C 0.40715 0.82983 0.78308 0.0
H728 H 0.36438 0.7996 0.75132 0.0
C729 C 0.37192 0.86599 0.70846 0.0
C730 C 0.37287 0.85252 0.69084 0.0
C731 C 0.37404 0.85789 0.72882 0.0
C732 C 0.37621 0.80827 0.76012 0.0
H733 H 0.44009 0.80899 0.85148 0.0
H734 H 0.41542 0.82563 0.827 0.0
H735 H 0.37957 0.78359 0.78294 0.0
H736 H 0.37518 0.81981 0.68088 0.0
H737 H 0.37929 0.80578 0.71633 0.0
H738 H 0.40456 0.85406 0.75987 0.0
C739 C 0.42019 0.80947 0.82416 0.0
C740 C 0.38491 0.79911 0.77819 0.0
C741 C 0.43426 0.79994 0.83819 0.0
C742 C 0.37457 0.83065 0.69409 0.0
C743 C 0.37673 0.82257 0.71446 0.0
C744 C 0.39846 0.83896 0.76506 0.0
C745 C 0.41296 0.79849 0.80625 0.0
C746 C 0.40096 0.80953 0.78947 0.0
C747 C 0.37716 0.83618 0.73199 0.0
C748 C 0.38338 0.82801 0.75301 0.0
H749 H 0.43835 0.75188 0.81422 0.0
H750 H 0.4142 0.76859 0.78954 0.0
H751 H 0.41968 0.83817 0.7912 0.0
H752 H 0.3703 0.88289 0.70651 0.0
H753 H 0.37395 0.86873 0.74206 0.0
C754 C 0.49076 0.19342 0.06825 0.0
C755 C 0.4762 0.20374 0.08138 0.0
C756 C 0.48375 0.18105 0.05141 0.0
C757 C 0.43719 0.15424 0.02874 0.0
H758 H 0.46226 0.16963 0.97512 0.0
C759 C 0.39472 0.14278 0.94958 0.0
C760 C 0.40663 0.13874 0.93133 0.0
C761 C 0.4047 0.14626 0.96889 0.0
C762 C 0.45537 0.16472 0.98996 0.0
H763 H 0.44296 0.20842 0.08791 0.0
H764 H 0.43071 0.18684 0.05843 0.0
H765 H 0.47717 0.18343 0.00766 0.0
H766 H 0.43828 0.13392 0.91926 0.0
H767 H 0.45571 0.13964 0.95311 0.0
H768 H 0.4151 0.13585 0.01097 0.0
C769 C 0.44752 0.18822 0.06121 0.0
C770 C 0.46391 0.17268 0.00862 0.0
C771 C 0.45452 0.20069 0.07798 0.0
C772 C 0.42868 0.13731 0.93299 0.0
C773 C 0.43867 0.14063 0.95236 0.0
C774 C 0.42872 0.14613 0.01006 0.0
C775 C 0.46207 0.17867 0.04749 0.0
C776 C 0.45461 0.16792 0.02814 0.0
C777 C 0.42681 0.14559 0.97044 0.0
C778 C 0.4374 0.15172 0.99042 0.0
H779 H 0.50757 0.1954 0.07058 0.0
H780 H 0.49529 0.17369 0.04118 0.0
H781 H 0.42989 0.15012 0.04363 0.0
H782 H 0.37769 0.14396 0.94886 0.0
H783 H 0.39509 0.15034 0.98241 0.0
C784 C 0.02723 0.79983 0.17857 0.0
C785 C 0.03312 0.78225 0.16648 0.0
C786 C 0.04131 0.80869 0.19295 0.0
C787 C 0.08674 0.79477 0.22561 0.0
H788 H 0.08502 0.85463 0.23814 0.0
C789 C 0.11528 0.86048 0.29206 0.0
C790 C 0.11015 0.84888 0.31023 0.0
C791 C 0.11194 0.85191 0.27204 0.0
C792 C 0.08616 0.83794 0.23467 0.0
H793 H 0.05856 0.76054 0.15933 0.0
H794 H 0.08338 0.77622 0.18448 0.0
H795 H 0.06812 0.84145 0.2064 0.0
H796 H 0.09862 0.81878 0.32173 0.0
H797 H 0.09204 0.80412 0.2869 0.0
H798 H 0.10471 0.79127 0.25399 0.0
C799 C 0.06776 0.78296 0.18298 0.0
C800 C 0.07619 0.83035 0.21658 0.0
C801 C 0.0536 0.77405 0.16856 0.0
C802 C 0.10266 0.82814 0.30801 0.0
C803 C 0.09907 0.81966 0.288 0.0
C804 C 0.09689 0.8024 0.24365 0.0
C805 C 0.06165 0.80024 0.1955 0.0
C806 C 0.07564 0.8086 0.2123 0.0
C807 C 0.10314 0.83166 0.26978 0.0
C808 C 0.09602 0.82397 0.2488 0.0
H809 H 0.01154 0.80647 0.17732 0.0
H810 H 0.03594 0.82173 0.20262 0.0
H811 H 0.0866 0.77792 0.22277 0.0
H812 H 0.12145 0.87638 0.2933 0.0
H813 H 0.11568 0.86139 0.25834 0.0
C814 C 0.49091 0.78041 0.44284 0.0
C815 C 0.47809 0.77779 0.42494 0.0
C816 C 0.48391 0.79244 0.4599 0.0
C817 C 0.44469 0.83268 0.47551 0.0
H818 H 0.45214 0.80864 0.53127 0.0
C819 C 0.39538 0.85712 0.54768 0.0
C820 C 0.40516 0.85749 0.56759 0.0
C821 C 0.40647 0.85038 0.52991 0.0
C822 C 0.45027 0.81578 0.51586 0.0
H823 H 0.4481 0.78591 0.41063 0.0
H824 H 0.43573 0.80671 0.44058 0.0
H825 H 0.46731 0.7909 0.5008 0.0
H826 H 0.43464 0.85222 0.58426 0.0
H827 H 0.45401 0.84053 0.55315 0.0
H828 H 0.42719 0.85731 0.49061 0.0
C829 C 0.45129 0.79971 0.44132 0.0
C830 C 0.45894 0.8056 0.49839 0.0
C831 C 0.4583 0.78767 0.42425 0.0
C832 C 0.42657 0.85192 0.56918 0.0
C833 C 0.43765 0.84515 0.5514 0.0
C834 C 0.436 0.84287 0.493 0.0
C835 C 0.46396 0.80208 0.4594 0.0
C836 C 0.456 0.81378 0.478 0.0
C837 C 0.42758 0.84388 0.53167 0.0
C838 C 0.43846 0.83436 0.51332 0.0
H839 H 0.5063 0.77306 0.44374 0.0
H840 H 0.49413 0.79419 0.47351 0.0
H841 H 0.44245 0.83952 0.46001 0.0
H842 H 0.37894 0.86143 0.54587 0.0
H843 H 0.39822 0.8494 0.51497 0.0
C844 C 0.44196 0.2116 0.65775 0.0
C845 C 0.45146 0.23117 0.66204 0.0
C846 C 0.42848 0.20234 0.67246 0.0
C847 C 0.39871 0.21184 0.72195 0.0
H848 H 0.4157 0.15455 0.73501 0.0
C849 C 0.38997 0.17513 0.80403 0.0
C850 C 0.38673 0.15327 0.80591 0.0
C851 C 0.39232 0.18436 0.78421 0.0
C852 C 0.41032 0.17034 0.73133 0.0
H853 H 0.45338 0.25702 0.6844 0.0
H854 H 0.43006 0.24072 0.71025 0.0
H855 H 0.42952 0.17165 0.70372 0.0
H856 H 0.38199 0.12418 0.78841 0.0
H857 H 0.38587 0.14039 0.75376 0.0
H858 H 0.38007 0.21071 0.75007 0.0
C859 C 0.43284 0.23261 0.69546 0.0
C860 C 0.41828 0.18017 0.71336 0.0
C861 C 0.44633 0.24188 0.68074 0.0
C862 C 0.38479 0.14102 0.78751 0.0
C863 C 0.38704 0.15029 0.76766 0.0
C864 C 0.39067 0.20197 0.73992 0.0
C865 C 0.42426 0.21248 0.69172 0.0
C866 C 0.41304 0.20121 0.7088 0.0
C867 C 0.39134 0.17197 0.76582 0.0
C868 C 0.3969 0.18132 0.74513 0.0
H869 H 0.44549 0.20309 0.64335 0.0
H870 H 0.42186 0.18694 0.66905 0.0
H871 H 0.39419 0.22799 0.71864 0.0
H872 H 0.39141 0.18505 0.81788 0.0
H873 H 0.39588 0.20106 0.78339 0.0
C874 C 0.02475 0.19397 0.91301 0.0
C875 C 0.02606 0.21609 0.91235 0.0
C876 C 0.03338 0.18285 0.92998 0.0
C877 C 0.04643 0.19053 0.98565 0.0
H878 H 0.07899 0.13904 0.98003 0.0
C879 C 0.10658 0.14035 0.03977 0.0
C880 C 0.09529 0.14017 0.05886 0.0
C881 C 0.09675 0.14644 0.02105 0.0
C882 C 0.06988 0.15338 0.98179 0.0
H883 H 0.03824 0.24388 0.92826 0.0
H884 H 0.05341 0.22447 0.95775 0.0
H885 H 0.06583 0.15687 0.94838 0.0
H886 H 0.06445 0.1448 0.073 0.0
H887 H 0.04729 0.15536 0.04023 0.0
H888 H 0.05085 0.18749 0.0189 0.0
C889 C 0.04544 0.21575 0.94537 0.0
C890 C 0.06227 0.16349 0.96373 0.0
C891 C 0.03689 0.22683 0.92843 0.0
C892 C 0.07366 0.14503 0.05861 0.0
C893 C 0.06384 0.15114 0.03988 0.0
C894 C 0.05393 0.18041 0.00364 0.0
C895 C 0.04336 0.19371 0.94655 0.0
C896 C 0.05076 0.18234 0.96551 0.0
C897 C 0.07543 0.15245 0.02103 0.0
C898 C 0.06593 0.16188 0.00191 0.0
H899 H 0.01649 0.1853 0.90079 0.0
H900 H 0.03153 0.16586 0.93053 0.0
H901 H 0.03731 0.20486 0.98749 0.0
H902 H 0.12323 0.13654 0.03938 0.0
H903 H 0.10612 0.14744 0.0068 0.0
C904 C 0.32205 0.04979 0.22531 0.0
C905 C 0.33558 0.03634 0.2141 0.0
C906 C 0.30727 0.06206 0.21461 0.0
C907 C 0.27805 0.06207 0.16452 0.0
H908 H 0.25683 0.11545 0.18569 0.0
C909 C 0.20697 0.10258 0.12644 0.0
C910 C 0.19064 0.10707 0.14076 0.0
C911 C 0.22718 0.09792 0.13373 0.0
C912 C 0.2627 0.10059 0.17959 0.0
H913 H 0.34533 0.02607 0.18298 0.0
H914 H 0.31996 0.04802 0.16417 0.0
H915 H 0.28871 0.10018 0.20113 0.0
H916 H 0.18301 0.11146 0.17386 0.0
H917 H 0.2184 0.10322 0.18658 0.0
H918 H 0.25193 0.06235 0.1432 0.0
C919 C 0.32027 0.04863 0.18125 0.0
C920 C 0.28086 0.09181 0.18844 0.0
C921 C 0.33485 0.03613 0.19198 0.0
C922 C 0.1952 0.10786 0.16245 0.0
C923 C 0.21549 0.10334 0.16973 0.0
C924 C 0.26008 0.07096 0.15555 0.0
C925 C 0.30592 0.06131 0.19246 0.0
C926 C 0.28844 0.07218 0.18134 0.0
C927 C 0.2315 0.09784 0.15545 0.0
C928 C 0.25198 0.09005 0.16331 0.0
H929 H 0.32231 0.05023 0.2424 0.0
H930 H 0.29629 0.07139 0.22378 0.0
H931 H 0.28314 0.04676 0.1589 0.0
H932 H 0.20403 0.10204 0.10961 0.0
H933 H 0.23934 0.09391 0.12242 0.0
C934 C 0.20051 0.06688 0.48458 0.0
C935 C 0.2065 0.08487 0.47313 0.0
C936 C 0.18716 0.05186 0.47554 0.0
C937 C 0.17295 0.03132 0.42366 0.0
H938 H 0.13207 -0.00138 0.45531 0.0
C939 C 0.13351 0.95864 0.38695 0.0
C940 C 0.13401 0.9405 0.39969 0.0
C941 C 0.13752 0.97849 0.39565 0.0
C942 C 0.14344 0.00762 0.44628 0.0
H943 H 0.20243 0.10183 0.44371 0.0
H944 H 0.17898 0.07561 0.42793 0.0
H945 H 0.14798 0.02994 0.47129 0.0
H946 H 0.13793 0.92913 0.43176 0.0
H947 H 0.14535 0.96366 0.4468 0.0
H948 H 0.16912 0.00868 0.39899 0.0
C949 C 0.18483 0.07299 0.44378 0.0
C950 C 0.15252 0.02554 0.45542 0.0
C951 C 0.19819 0.08802 0.45283 0.0
C952 C 0.13755 0.94276 0.42148 0.0
C953 C 0.14163 0.9626 0.43014 0.0
C954 C 0.1639 0.01343 0.41456 0.0
C955 C 0.17953 0.05454 0.45487 0.0
C956 C 0.16773 0.03728 0.44437 0.0
C957 C 0.14215 0.98062 0.41724 0.0
C958 C 0.14942 0.00111 0.42594 0.0
H959 H 0.20664 0.06408 0.50029 0.0
H960 H 0.18358 0.0377 0.4844 0.0
H961 H 0.18484 0.03984 0.41485 0.0
H962 H 0.13054 0.95748 0.37016 0.0
H963 H 0.13747 0.99214 0.38536 0.0
C964 C 0.16022 0.96579 0.69149 0.0
C965 C 0.15818 0.96225 0.71324 0.0
C966 C 0.17477 0.95423 0.67969 0.0
C967 C 0.21165 0.90829 0.68239 0.0
H968 H 0.24499 0.94249 0.6442 0.0
C969 C 0.29871 0.89304 0.66215 0.0
C970 C 0.30513 0.89578 0.64112 0.0
C971 C 0.27801 0.8975 0.6681 0.0
C972 C 0.2356 0.93261 0.65451 0.0
H973 H 0.16904 0.94342 0.73964 0.0
H974 H 0.19498 0.92388 0.71934 0.0
H975 H 0.21318 0.95711 0.65969 0.0
H976 H 0.29473 0.90461 0.60968 0.0
H977 H 0.25864 0.91282 0.62027 0.0
H978 H 0.23507 0.88428 0.67809 0.0
C979 C 0.18506 0.93511 0.71115 0.0
C980 C 0.21729 0.94095 0.66335 0.0
C981 C 0.17031 0.94646 0.72286 0.0
C982 C 0.29028 0.90243 0.62604 0.0
C983 C 0.26965 0.90714 0.63205 0.0
C984 C 0.23015 0.90006 0.67375 0.0
C985 C 0.18776 0.93914 0.68949 0.0
C986 C 0.20536 0.92908 0.6778 0.0
C987 C 0.26344 0.90499 0.65318 0.0
C988 C 0.24249 0.91235 0.6601 0.0
H989 H 0.15083 0.97773 0.68366 0.0
H990 H 0.17615 0.95744 0.66296 0.0
H991 H 0.20259 0.89856 0.69311 0.0
H992 H 0.30975 0.88776 0.67408 0.0
H993 H 0.27362 0.89592 0.68455 0.0
C994 C 0.27451 0.93735 0.95432 0.0
C995 C 0.28353 0.91851 0.96164 0.0
C996 C 0.28727 0.95357 0.94684 0.0
C997 C 0.33887 0.96664 0.92514 0.0
H998 H 0.3252 0.02237 0.94648 0.0
C999 C 0.36517 0.06028 0.91868 0.0
C1000 C 0.36511 0.06239 0.89661 0.0
C1001 C 0.36 0.04103 0.928 0.0
C1002 C 0.32951 0.0069 0.94063 0.0
H1003 H 0.31284 0.90144 0.96608 0.0
H1004 H 0.33527 0.92999 0.95275 0.0
H1005 H 0.30612 0.99184 0.95961 0.0
H1006 H 0.36128 0.04553 0.867 0.0
H1007 H 0.35188 0.01208 0.8833 0.0
H1008 H 0.36205 0.9819 0.90581 0.0
C1009 C 0.31832 0.93211 0.95291 0.0
C1010 C 0.31838 0.98946 0.94796 0.0
C1011 C 0.30551 0.91584 0.96055 0.0
C1012 C 0.36126 0.04448 0.88406 0.0
C1013 C 0.35604 0.02524 0.89339 0.0
C1014 C 0.34999 0.98418 0.91768 0.0
C1015 C 0.30929 0.95127 0.94645 0.0
C1016 C 0.32262 0.96925 0.93994 0.0
C1017 C 0.35465 0.02353 0.91545 0.0
C1018 C 0.34513 0.00453 0.92511 0.0
H1019 H 0.25761 0.9398 0.95486 0.0
H1020 H 0.27991 0.96806 0.94156 0.0
H1021 H 0.34243 0.95118 0.91875 0.0
H1022 H 0.36842 0.07368 0.92881 0.0
H1023 H 0.35941 0.04004 0.94506 0.0
C1024 C 0.3316 0.93335 0.2738 0.0
C1025 C 0.33259 0.95508 0.27813 0.0
C1026 C 0.31631 0.92077 0.28354 0.0
C1027 C 0.27933 0.91988 0.32851 0.0
H1028 H 0.24355 0.8862 0.29194 0.0
C1029 C 0.18797 0.89392 0.326 0.0
C1030 C 0.18503 0.88853 0.34728 0.0
C1031 C 0.20829 0.89644 0.31791 0.0
C1032 C 0.25347 0.89545 0.30236 0.0
H1033 H 0.3189 0.98061 0.29636 0.0
H1034 H 0.29235 0.95878 0.31325 0.0
H1035 H 0.27582 0.90189 0.27788 0.0
H1036 H 0.20099 0.87991 0.37634 0.0
H1037 H 0.23642 0.88405 0.36213 0.0
H1038 H 0.25649 0.91469 0.35262 0.0
C1039 C 0.3034 0.95136 0.30252 0.0
C1040 C 0.27205 0.90422 0.29438 0.0
C1041 C 0.31849 0.96391 0.29271 0.0
C1042 C 0.20276 0.8845 0.35997 0.0
C1043 C 0.22305 0.88686 0.35184 0.0
C1044 C 0.26081 0.91116 0.33647 0.0
C1045 C 0.30201 0.92972 0.29791 0.0
C1046 C 0.28472 0.91714 0.30721 0.0
C1047 C 0.22604 0.89344 0.3309 0.0
C1048 C 0.24732 0.89943 0.3233 0.0
H1049 H 0.34233 0.92618 0.2626 0.0
H1050 H 0.31557 0.90411 0.27976 0.0
H1051 H 0.28899 0.92956 0.3388 0.0
H1052 H 0.17461 0.897 0.31579 0.0
H1053 H 0.21003 0.90176 0.30177 0.0
C1054 C 0.30428 0.06767 0.51011 0.0
C1055 C 0.29746 0.08513 0.52192 0.0
C1056 C 0.31781 0.0528 0.51907 0.0
C1057 C 0.33134 0.03186 0.57106 0.0
H1058 H 0.37196 -0.0011 0.53932 0.0
C1059 C 0.36845 0.95885 0.60781 0.0
C1060 C 0.36658 0.94061 0.59531 0.0
C1061 C 0.36595 0.97878 0.59888 0.0
C1062 C 0.36072 0.00803 0.54837 0.0
H1063 H 0.30037 0.1015 0.55184 0.0
H1064 H 0.32429 0.07569 0.56742 0.0
H1065 H 0.35652 0.03053 0.52353 0.0
H1066 H 0.36227 0.929 0.56336 0.0
H1067 H 0.35747 0.96384 0.54783 0.0
H1068 H 0.33489 0.00912 0.59558 0.0
C1069 C 0.31884 0.07324 0.5514 0.0
C1070 C 0.35185 0.02609 0.53935 0.0
C1071 C 0.30519 0.08803 0.54248 0.0
C1072 C 0.36366 0.94276 0.57343 0.0
C1073 C 0.36105 0.96274 0.56451 0.0
C1074 C 0.34022 0.0139 0.58007 0.0
C1075 C 0.32488 0.05518 0.53998 0.0
C1076 C 0.33667 0.03789 0.55042 0.0
C1077 C 0.36144 0.98089 0.57728 0.0
C1078 C 0.35462 0.00151 0.56866 0.0
H1079 H 0.2986 0.06509 0.49419 0.0
H1080 H 0.32191 0.03896 0.50992 0.0
H1081 H 0.31944 0.04033 0.5799 0.0
H1082 H 0.3711 0.95772 0.62466 0.0
H1083 H 0.36676 0.99252 0.60903 0.0
C1084 C 0.17941 0.02967 0.79403 0.0
C1085 C 0.16399 0.03904 0.78122 0.0
C1086 C 0.19526 0.0419 0.80314 0.0
C1087 C 0.22503 0.09036 0.79536 0.0
H1088 H 0.24473 0.07825 0.85203 0.0
C1089 C 0.29552 0.11377 0.85855 0.0
C1090 C 0.31306 0.11174 0.84515 0.0
C1091 C 0.27524 0.10954 0.85111 0.0
C1092 C 0.23925 0.08215 0.83631 0.0
H1093 H 0.15275 0.06857 0.76811 0.0
H1094 H 0.18072 0.09006 0.78405 0.0
H1095 H 0.21236 0.06201 0.8393 0.0
H1096 H 0.32294 0.10491 0.81309 0.0
H1097 H 0.28757 0.09707 0.80021 0.0
H1098 H 0.25221 0.11023 0.79228 0.0
C1099 C 0.18049 0.07322 0.78697 0.0
C1100 C 0.22083 0.07266 0.82896 0.0
C1101 C 0.16448 0.06096 0.77795 0.0
C1102 C 0.30977 0.10649 0.82385 0.0
C1103 C 0.28947 0.10216 0.81642 0.0
C1104 C 0.24354 0.09986 0.80272 0.0
C1105 C 0.19608 0.06375 0.79956 0.0
C1106 C 0.21384 0.07622 0.80824 0.0
C1107 C 0.27206 0.10311 0.83012 0.0
C1108 C 0.25109 0.09546 0.82311 0.0
H1109 H 0.17943 0.0128 0.79681 0.0
H1110 H 0.20725 0.03411 0.81251 0.0
H1111 H 0.22004 0.09331 0.77928 0.0
H1112 H 0.29748 0.11813 0.87497 0.0
H1113 H 0.26209 0.11079 0.86194 0.0
C1114 C 0.18234 0.91347 0.02202 0.0
C1115 C 0.20391 0.91286 0.02711 0.0
C1116 C 0.1691 0.9283 0.03156 0.0
C1117 C 0.16588 0.96572 0.07634 0.0
H1118 H 0.13263 -7e-05 0.03802 0.0
C1119 C 0.13821 0.05639 0.07143 0.0
C1120 C 0.13256 0.05961 0.09261 0.0
C1121 C 0.14103 0.03595 0.06367 0.0
C1122 C 0.14174 0.99045 0.04893 0.0
H1123 H 0.2284 0.92659 0.0467 0.0
H1124 H 0.20542 0.95244 0.06324 0.0
H1125 H 0.1496 0.96788 0.02506 0.0
H1126 H 0.12348 0.04406 0.1217 0.0
H1127 H 0.12801 0.00842 0.10804 0.0
H1128 H 0.15927 0.98887 0.09986 0.0
C1129 C 0.19863 0.94142 0.05205 0.0
C1130 C 0.15126 0.97198 0.04158 0.0
C1131 C 0.21184 0.92672 0.04246 0.0
C1132 C 0.12826 0.04205 0.10542 0.0
C1133 C 0.13088 0.02164 0.09761 0.0
C1134 C 0.15642 0.98416 0.08367 0.0
C1135 C 0.1772 0.94261 0.04646 0.0
C1136 C 0.16401 0.95984 0.05506 0.0
C1137 C 0.13804 0.01838 0.07689 0.0
C1138 C 0.1448 -0.00291 0.06989 0.0
H1139 H 0.17582 0.90291 0.01023 0.0
H1140 H 0.15261 0.92879 0.02706 0.0
H1141 H 0.17538 0.95651 0.08714 0.0
H1142 H 0.14156 0.06962 0.06116 0.0
H1143 H 0.14674 0.03402 0.04769 0.0
C1144 C 0.21307 0.31538 0.01923 0.0
C1145 C 0.22333 0.33222 0.02934 0.0
C1146 C 0.20612 0.29806 0.0308 0.0
C1147 C 0.19063 0.28002 0.08307 0.0
H1148 H 0.20371 0.22492 0.05976 0.0
C1149 C 0.14553 0.20368 0.10323 0.0
C1150 C 0.15681 0.18459 0.10379 0.0
C1151 C 0.15572 0.22251 0.0981 0.0
C1152 C 0.2002 0.24015 0.06669 0.0
H1153 H 0.2338 0.34455 0.05954 0.0
H1154 H 0.22135 0.31413 0.07991 0.0
H1155 H 0.21724 0.25647 0.04264 0.0
H1156 H 0.18792 0.17056 0.10093 0.0
H1157 H 0.20566 0.20347 0.09198 0.0
H1158 H 0.1732 0.26358 0.10693 0.0
C1159 C 0.21881 0.31441 0.063 0.0
C1160 C 0.20774 0.25821 0.05673 0.0
C1161 C 0.22594 0.33173 0.05136 0.0
C1162 C 0.1787 0.18493 0.10031 0.0
C1163 C 0.18887 0.20376 0.09518 0.0
C1164 C 0.18293 0.26189 0.093 0.0
C1165 C 0.20919 0.29727 0.05273 0.0
C1166 C 0.20268 0.2783 0.06457 0.0
C1167 C 0.17737 0.22262 0.09345 0.0
C1168 C 0.18738 0.2418 0.08468 0.0
H1169 H 0.21078 0.31535 0.00229 0.0
H1170 H 0.19842 0.28519 0.02256 0.0
H1171 H 0.18652 0.29536 0.08939 0.0
H1172 H 0.12867 0.20399 0.10601 0.0
H1173 H 0.14642 0.23678 0.09673 0.0
C1174 C 0.6947 0.17194 0.96629 0.0
C1175 C 0.7093 0.1592 0.95558 0.0
C1176 C 0.68532 0.18899 0.95611 0.0
C1177 C 0.67301 0.2134 0.90545 0.0
H1178 H 0.68061 0.2657 0.93649 0.0
C1179 C 0.63069 0.29261 0.88742 0.0
C1180 C 0.64295 0.31104 0.8891 0.0
C1181 C 0.63932 0.27299 0.89247 0.0
C1182 C 0.67853 0.25125 0.92757 0.0
H1183 H 0.7245 0.15335 0.92549 0.0
H1184 H 0.70783 0.18324 0.90757 0.0
H1185 H 0.69314 0.23269 0.95159 0.0
H1186 H 0.67425 0.32318 0.8961 0.0
H1187 H 0.68917 0.28895 0.9051 0.0
H1188 H 0.65811 0.23216 0.8815 0.0
C1189 C 0.7038 0.18001 0.92386 0.0
C1190 C 0.68547 0.23236 0.9363 0.0
C1191 C 0.71336 0.163 0.93412 0.0
C1192 C 0.66429 0.30933 0.89488 0.0
C1193 C 0.67285 0.28976 0.90005 0.0
C1194 C 0.66577 0.23236 0.89679 0.0
C1195 C 0.69023 0.19349 0.935 0.0
C1196 C 0.68269 0.21328 0.92539 0.0
C1197 C 0.6603 0.27151 0.89939 0.0
C1198 C 0.66852 0.25143 0.9078 0.0
H1199 H 0.69118 0.1693 0.9828 0.0
H1200 H 0.67469 0.19906 0.96492 0.0
H1201 H 0.67074 0.19883 0.89678 0.0
H1202 H 0.61424 0.29338 0.88282 0.0
H1203 H 0.62932 0.25913 0.89193 0.0
C1204 C 0.08508 0.44458 0.19242 0.0
C1205 C 0.08279 0.46537 0.19975 0.0
C1206 C 0.0694 0.43538 0.17993 0.0
C1207 C 0.02074 0.44688 0.14917 0.0
H1208 H 0.00266 0.3924 0.17034 0.0
C1209 C 0.93574 0.41647 0.142 0.0
C1210 C 0.93227 0.39477 0.13901 0.0
C1211 C 0.95615 0.42426 0.1447 0.0
C1212 C 0.00772 0.4074 0.16389 0.0
H1213 H 0.06299 0.49325 0.19886 0.0
H1214 H 0.03552 0.47714 0.17739 0.0
H1215 H 0.03549 0.40768 0.18298 0.0
H1216 H 0.94763 0.36434 0.13552 0.0
H1217 H 0.98328 0.378 0.14022 0.0
H1218 H 0.99243 0.44689 0.13071 0.0
C1219 C 0.04947 0.46797 0.18102 0.0
C1220 C 0.02657 0.41616 0.17112 0.0
C1221 C 0.06513 0.47716 0.19348 0.0
C1222 C 0.94973 0.38112 0.13804 0.0
C1223 C 0.97015 0.38892 0.14075 0.0
C1224 C 0.00185 0.43812 0.14195 0.0
C1225 C 0.05117 0.44681 0.17457 0.0
C1226 C 0.03301 0.43624 0.16427 0.0
C1227 C 0.97355 0.41052 0.14444 0.0
C1228 C 0.99488 0.41854 0.14967 0.0
H1229 H 0.09863 0.43519 0.19689 0.0
H1230 H 0.07126 0.41913 0.17495 0.0
H1231 H 0.02548 0.46224 0.14337 0.0
H1232 H 0.92265 0.42744 0.1427 0.0
H1233 H 0.95823 0.44095 0.14778 0.0
C1234 C 0.7944 0.80961 0.46792 0.0
C1235 C 0.77997 0.82356 0.45859 0.0
C1236 C 0.80087 0.79155 0.45719 0.0
C1237 C 0.80765 0.76744 0.40583 0.0
H1238 H 0.80295 0.71499 0.43703 0.0
C1239 C 0.8534 0.69097 0.38669 0.0
C1240 C 0.84275 0.67166 0.38914 0.0
C1241 C 0.84343 0.70994 0.39174 0.0
C1242 C 0.8041 0.72945 0.42801 0.0
H1243 H 0.76159 0.83011 0.43047 0.0
H1244 H 0.77333 0.79849 0.41145 0.0
H1245 H 0.79053 0.74776 0.45289 0.0
H1246 H 0.81285 0.65721 0.3976 0.0
H1247 H 0.79558 0.69037 0.40663 0.0
H1248 H 0.82185 0.7491 0.38116 0.0
C1249 C 0.77942 0.80156 0.42714 0.0
C1250 C 0.79719 0.74819 0.43716 0.0
C1251 C 0.7727 0.81955 0.43801 0.0
C1252 C 0.82158 0.67179 0.39574 0.0
C1253 C 0.81168 0.69075 0.40094 0.0
C1254 C 0.81485 0.74866 0.39674 0.0
C1255 C 0.79322 0.78723 0.43685 0.0
C1256 C 0.79919 0.76737 0.42629 0.0
C1257 C 0.82267 0.70993 0.39944 0.0
C1258 C 0.81333 0.72955 0.40788 0.0
H1259 H 0.80029 0.81232 0.48375 0.0
H1260 H 0.81173 0.78082 0.46487 0.0
H1261 H 0.80935 0.78209 0.3972 0.0
H1262 H 0.86965 0.69141 0.38144 0.0
H1263 H 0.85229 0.72451 0.39058 0.0
C1264 C 0.91326 0.03957 0.19191 0.0
C1265 C 0.91358 0.04025 0.21408 0.0
C1266 C 0.9302 0.04766 0.18033 0.0
C1267 C 0.98654 0.05538 0.1857 0.0
H1268 H 0.98257 0.09407 0.13847 0.0
C1269 C 0.04581 0.11438 0.14081 0.0
C1270 C 0.0631 0.10079 0.1379 0.0
C1271 C 0.02612 0.10628 0.14645 0.0
C1272 C 0.98383 0.08319 0.15158 0.0
H1273 H 0.93126 0.05075 0.24149 0.0
H1274 H 0.96079 0.06467 0.2213 0.0
H1275 H 0.95029 0.08214 0.15629 0.0
H1276 H 0.07288 0.06795 0.13712 0.0
H1277 H 0.03854 0.05392 0.14703 0.0
H1278 H 0.0199 0.05657 0.18145 0.0
C1279 C 0.94757 0.05777 0.2129 0.0
C1280 C 0.96544 0.07633 0.16166 0.0
C1281 C 0.93064 0.04989 0.22443 0.0
C1282 C 0.05999 0.07889 0.13957 0.0
C1283 C 0.04034 0.07083 0.14524 0.0
C1284 C 0.00481 0.06202 0.17555 0.0
C1285 C 0.94771 0.05632 0.19081 0.0
C1286 C 0.96674 0.06268 0.17905 0.0
C1287 C 0.02339 0.08448 0.1493 0.0
C1288 C 0.00368 0.07619 0.15858 0.0
H1289 H 0.90023 0.03228 0.18356 0.0
H1290 H 0.93001 0.04638 0.16328 0.0
H1291 H 0.9879 0.04464 0.19893 0.0
H1292 H 0.04764 0.13132 0.13946 0.0
H1293 H 0.01333 0.11716 0.14961 0.0
C1294 C 0.25773 0.67723 0.55763 0.0
C1295 C 0.27081 0.66846 0.54206 0.0
C1296 C 0.26537 0.69305 0.57099 0.0
C1297 C 0.28031 0.73615 0.58524 0.0
H1298 H 0.33981 0.74012 0.59881 0.0
C1299 C 0.32122 0.81556 0.59818 0.0
C1300 C 0.33941 0.81673 0.61076 0.0
C1301 C 0.31127 0.79623 0.59474 0.0
C1302 C 0.32305 0.7392 0.59564 0.0
H1303 H 0.30219 0.66889 0.52852 0.0
H1304 H 0.31527 0.69689 0.5511 0.0
H1305 H 0.32575 0.70736 0.58494 0.0
H1306 H 0.3607 0.79897 0.63075 0.0
H1307 H 0.34287 0.76528 0.62545 0.0
H1308 H 0.27752 0.76785 0.59639 0.0
C1309 C 0.29932 0.69128 0.55357 0.0
C1310 C 0.31504 0.72046 0.58732 0.0
C1311 C 0.29177 0.67533 0.54044 0.0
C1312 C 0.34689 0.79841 0.62068 0.0
C1313 C 0.3367 0.77911 0.61757 0.0
C1314 C 0.28825 0.75479 0.59393 0.0
C1315 C 0.28616 0.70054 0.56885 0.0
C1316 C 0.29376 0.71898 0.58122 0.0
C1317 C 0.31906 0.77768 0.60414 0.0
C1318 C 0.30988 0.75683 0.59846 0.0
H1319 H 0.24152 0.67206 0.5593 0.0
H1320 H 0.2549 0.69959 0.5828 0.0
H1321 H 0.26385 0.73566 0.58071 0.0
H1322 H 0.31514 0.82945 0.59029 0.0
H1323 H 0.298 0.79577 0.58399 0.0
C1324 C 0.06676 0.50374 0.29856 0.0
C1325 C 0.08431 0.51519 0.2914 0.0
C1326 C 0.0517 0.5134 0.31136 0.0
C1327 C 0.02973 0.56559 0.32073 0.0
H1328 H -0.0027 0.53647 0.36362 0.0
C1329 C 0.95453 0.60213 0.3556 0.0
C1330 C 0.93705 0.58848 0.356 0.0
C1331 C 0.97481 0.59419 0.35234 0.0
C1332 C 0.00624 0.5448 0.35168 0.0
H1333 H 0.1006 0.54525 0.29299 0.0
H1334 H 0.07428 0.56213 0.31548 0.0
H1335 H 0.02958 0.52044 0.34999 0.0
H1336 H 0.92725 0.55568 0.35416 0.0
H1337 H 0.9625 0.54193 0.34806 0.0
H1338 H 0.00606 0.58952 0.32173 0.0
C1339 C 0.07204 0.54578 0.31096 0.0
C1340 C 0.0247 0.53564 0.34391 0.0
C1341 C 0.08712 0.53612 0.29815 0.0
C1342 C 0.94035 0.56666 0.3538 0.0
C1343 C 0.9606 0.55874 0.35052 0.0
C1344 C 0.0113 0.57472 0.32847 0.0
C1345 C 0.05391 0.53468 0.31724 0.0
C1346 C 0.03632 0.5457 0.32795 0.0
C1347 C 0.978 0.57244 0.34944 0.0
C1348 C -0.00095 0.56415 0.34361 0.0
H1349 H 0.06424 0.48756 0.29364 0.0
H1350 H 0.03779 0.50448 0.31573 0.0
H1351 H 0.03817 0.5736 0.30822 0.0
H1352 H 0.95256 0.61901 0.35749 0.0
H1353 H 0.98796 0.6051 0.35182 0.0
C1354 C 0.40781 0.4691 0.80233 0.0
C1355 C 0.40877 0.47038 0.78021 0.0
C1356 C 0.42458 0.46038 0.81371 0.0
C1357 C 0.48136 0.45276 0.80926 0.0
H1358 H 0.47531 0.4111 0.85364 0.0
C1359 C 0.53738 0.38862 0.8516 0.0
C1360 C 0.55533 0.40116 0.8553 0.0
C1361 C 0.51821 0.39795 0.84608 0.0
C1362 C 0.47717 0.42279 0.84132 0.0
H1363 H 0.42751 0.46283 0.75259 0.0
H1364 H 0.45669 0.44769 0.77242 0.0
H1365 H 0.44381 0.42498 0.83594 0.0
H1366 H 0.56684 0.43336 0.8576 0.0
H1367 H 0.53336 0.44958 0.84801 0.0
H1368 H 0.51458 0.45032 0.81408 0.0
C1369 C 0.44313 0.45361 0.78097 0.0
C1370 C 0.4592 0.43078 0.83132 0.0
C1371 C 0.42638 0.46216 0.76963 0.0
C1372 C 0.5534 0.42324 0.85452 0.0
C1373 C 0.53425 0.43254 0.84901 0.0
C1374 C 0.49924 0.44492 0.81931 0.0
C1375 C 0.44258 0.45301 0.80311 0.0
C1376 C 0.46122 0.44552 0.81491 0.0
C1377 C 0.51663 0.41997 0.84419 0.0
C1378 C 0.49737 0.42963 0.83522 0.0
H1379 H 0.39437 0.4753 0.81086 0.0
H1380 H 0.42382 0.4601 0.83078 0.0
H1381 H 0.48331 0.46434 0.79685 0.0
H1382 H 0.53829 0.37157 0.85224 0.0
H1383 H 0.50493 0.38786 0.84231 0.0
C1384 C 0.9445 0.78889 0.66567 0.0
C1385 C 0.94922 0.76742 0.66298 0.0
C1386 C 0.93069 0.79534 0.68152 0.0
C1387 C 0.9146 0.77861 0.73373 0.0
H1388 H 0.87836 0.82779 0.73061 0.0
C1389 C 0.88174 0.81637 0.80891 0.0
C1390 C 0.88444 0.83836 0.8101 0.0
C1391 C 0.88388 0.80587 0.78968 0.0
C1392 C 0.88841 0.81402 0.73171 0.0
H1393 H 0.94222 0.73572 0.67376 0.0
H1394 H 0.91803 0.74702 0.70157 0.0
H1395 H 0.89214 0.81215 0.69816 0.0
H1396 H 0.89047 0.8667 0.79188 0.0
H1397 H 0.89478 0.84832 0.75844 0.0
H1398 H 0.91184 0.781 0.76719 0.0
C1399 C 0.92519 0.75886 0.69154 0.0
C1400 C 0.89623 0.80505 0.71316 0.0
C1401 C 0.93898 0.7524 0.67562 0.0
C1402 C 0.88841 0.84973 0.79151 0.0
C1403 C 0.89068 0.8392 0.77229 0.0
C1404 C 0.90684 0.7876 0.75224 0.0
C1405 C 0.92137 0.78044 0.69501 0.0
C1406 C 0.90992 0.78763 0.71405 0.0
C1407 C 0.88886 0.81711 0.77124 0.0
C1408 C 0.89418 0.80577 0.75147 0.0
H1409 H 0.9521 0.80081 0.65606 0.0
H1410 H 0.92827 0.81209 0.68394 0.0
H1411 H 0.92535 0.76539 0.73497 0.0
H1412 H 0.8783 0.80719 0.82291 0.0
H1413 H 0.88204 0.78887 0.78931 0.0
C1414 C 0.95904 0.19927 0.4086 0.0
C1415 C 0.97984 0.20634 0.41143 0.0
C1416 C 0.94908 0.1875 0.4243 0.0
C1417 C 0.95828 0.15726 0.4735 0.0
H1418 H 0.90273 0.17805 0.48844 0.0
C1419 C 0.92111 0.14558 0.55545 0.0
C1420 C 0.89917 0.14267 0.55681 0.0
C1421 C 0.93061 0.14953 0.536 0.0
C1422 C 0.91804 0.17173 0.48425 0.0
H1423 H 0.00691 0.20593 0.43237 0.0
H1424 H 0.98943 0.18564 0.45996 0.0
H1425 H 0.92013 0.1915 0.45708 0.0
H1426 H 0.87015 0.14054 0.5387 0.0
H1427 H 0.88681 0.14729 0.50475 0.0
H1428 H 0.95634 0.1379 0.5011 0.0
C1429 C 0.98087 0.18895 0.44553 0.0
C1430 C 0.92802 0.17945 0.46626 0.0
C1431 C 0.99083 0.2007 0.42981 0.0
C1432 C 0.88706 0.143 0.53823 0.0
C1433 C 0.89658 0.1469 0.51878 0.0
C1434 C 0.94826 0.14951 0.49152 0.0
C1435 C 0.95974 0.18263 0.44313 0.0
C1436 C 0.94839 0.17259 0.4609 0.0
C1437 C 0.9184 0.15057 0.51751 0.0
C1438 C 0.9282 0.15696 0.49729 0.0
H1439 H 0.95025 0.20325 0.39449 0.0
H1440 H 0.93289 0.18257 0.42189 0.0
H1441 H 0.97387 0.15149 0.46958 0.0
H1442 H 0.93091 0.14532 0.56946 0.0
H1443 H 0.94743 0.15254 0.53558 0.0
C1444 C 0.55172 0.23887 0.18331 0.0
C1445 C 0.54054 0.2248 0.17031 0.0
C1446 C 0.56463 0.23125 0.19945 0.0
C1447 C 0.59126 0.18339 0.21965 0.0
H1448 H 0.57985 0.20799 0.2745 0.0
C1449 C 0.60513 0.13936 0.2977 0.0
C1450 C 0.61031 0.15102 0.31584 0.0
C1451 C 0.60132 0.14962 0.27858 0.0
C1452 C 0.58365 0.2012 0.25928 0.0
H1453 H 0.53476 0.19178 0.16333 0.0
H1454 H 0.5572 0.17847 0.19159 0.0
H1455 H 0.56479 0.22396 0.24311 0.0
H1456 H 0.61714 0.18238 0.32785 0.0
H1457 H 0.61093 0.20021 0.2944 0.0
H1458 H 0.60974 0.1603 0.23594 0.0
C1459 C 0.55612 0.19537 0.18924 0.0
C1460 C 0.57497 0.21036 0.24128 0.0
C1461 C 0.54314 0.20299 0.17318 0.0
C1462 C 0.61281 0.17299 0.31421 0.0
C1463 C 0.6092 0.18322 0.29507 0.0
C1464 C 0.60006 0.17427 0.23768 0.0
C1465 C 0.56669 0.20942 0.20278 0.0
C1466 C 0.57828 0.20127 0.22134 0.0
C1467 C 0.60283 0.17172 0.27718 0.0
C1468 C 0.59594 0.1828 0.25775 0.0
H1469 H 0.55009 0.25577 0.18136 0.0
H1470 H 0.57275 0.24242 0.20956 0.0
H1471 H 0.59427 0.17623 0.20442 0.0
H1472 H 0.60312 0.1224 0.29844 0.0
H1473 H 0.59623 0.14028 0.26518 0.0
C1474 C 0.53944 0.80142 0.90961 0.0
C1475 C 0.51802 0.79624 0.91189 0.0
C1476 C 0.54996 0.81259 0.92544 0.0
C1477 C 0.54215 0.84397 0.97429 0.0
H1478 H 0.59461 0.81762 0.99153 0.0
C1479 C 0.57562 0.85084 0.05821 0.0
C1480 C 0.59759 0.85197 0.06098 0.0
C1481 C 0.567 0.84787 0.03818 0.0
C1482 C 0.58022 0.82547 0.98671 0.0
H1483 H 0.4905 0.7996 0.9319 0.0
H1484 H 0.50891 0.81885 0.95967 0.0
H1485 H 0.57738 0.80619 0.9592 0.0
H1486 H 0.62773 0.85162 0.04474 0.0
H1487 H 0.6126 0.84647 0.0097 0.0
H1488 H 0.54472 0.8628 0.00225 0.0
C1489 C 0.51756 0.8145 0.94559 0.0
C1490 C 0.57034 0.81893 0.96815 0.0
C1491 C 0.50704 0.80336 0.92975 0.0
C1492 C 0.61074 0.8506 0.04318 0.0
C1493 C 0.6021 0.84763 0.02311 0.0
C1494 C 0.55206 0.85054 0.99287 0.0
C1495 C 0.53926 0.81876 0.94385 0.0
C1496 C 0.55097 0.82777 0.96199 0.0
C1497 C 0.58014 0.846 0.02044 0.0
C1498 C 0.57095 0.84101 -0.00048 0.0
H1499 H 0.54826 0.79627 0.89591 0.0
H1500 H 0.56661 0.81592 0.92353 0.0
H1501 H 0.52739 0.85128 0.96977 0.0
H1502 H 0.56502 0.85194 0.07157 0.0
H1503 H 0.55004 0.84638 0.03669 0.0
C1504 C 0.94044 0.20162 0.83218 0.0
C1505 C 0.94577 0.22299 0.82966 0.0
C1506 C 0.9277 0.19148 0.81734 0.0
C1507 C 0.89244 0.20033 0.77134 0.0
H1508 H 0.91659 0.14773 0.75149 0.0
C1509 C 0.8822 0.16942 0.68696 0.0
C1510 C 0.88147 0.14754 0.68336 0.0
C1511 C 0.88502 0.17732 0.70731 0.0
C1512 C 0.90929 0.16213 0.7571 0.0
H1513 H 0.94112 0.2508 0.81032 0.0
H1514 H 0.91918 0.233 0.78417 0.0
H1515 H 0.93055 0.16421 0.78315 0.0
H1516 H 0.88184 0.11682 0.69848 0.0
H1517 H 0.88673 0.13069 0.73409 0.0
H1518 H 0.87172 0.19858 0.74468 0.0
C1519 C 0.9246 0.22413 0.79773 0.0
C1520 C 0.91731 0.1716 0.77528 0.0
C1521 C 0.9373 0.2343 0.81261 0.0
C1522 C 0.88259 0.13375 0.70069 0.0
C1523 C 0.88542 0.14168 0.72108 0.0
C1524 C 0.8844 0.19084 0.75313 0.0
C1525 C 0.92009 0.20249 0.79967 0.0
C1526 C 0.90936 0.19108 0.78228 0.0
C1527 C 0.88713 0.16353 0.72452 0.0
C1528 C 0.89315 0.17193 0.74551 0.0
H1529 H 0.94659 0.19257 0.8453 0.0
H1530 H 0.92424 0.17487 0.81942 0.0
H1531 H 0.88578 0.21518 0.77656 0.0
H1532 H 0.88121 0.18049 0.67399 0.0
H1533 H 0.88652 0.19422 0.7094 0.0
C1534 C 0.50361 0.19508 0.56968 0.0
C1535 C 0.51818 0.20443 0.58352 0.0
C1536 C 0.51038 0.18073 0.55442 0.0
C1537 C 0.55633 0.14906 0.53619 0.0
H1538 H 0.53486 0.16364 0.48078 0.0
C1539 C 0.60242 0.13669 0.45915 0.0
C1540 C 0.59118 0.13261 0.44047 0.0
C1541 C 0.59172 0.13972 0.47815 0.0
C1542 C 0.54072 0.15894 0.49613 0.0
H1543 H 0.551 0.20531 0.59315 0.0
H1544 H 0.56295 0.1807 0.56612 0.0
H1545 H 0.51899 0.17925 0.51182 0.0
H1546 H 0.56006 0.12677 0.42735 0.0
H1547 H 0.54143 0.13187 0.46055 0.0
H1548 H 0.57872 0.12942 0.5202 0.0
C1549 C 0.54625 0.18413 0.56723 0.0
C1550 C 0.53159 0.16791 0.51398 0.0
C1551 C 0.53945 0.19837 0.5826 0.0
C1552 C 0.56915 0.1303 0.44141 0.0
C1553 C 0.55847 0.13321 0.46041 0.0
C1554 C 0.5655 0.14007 0.51826 0.0
C1555 C 0.53187 0.17562 0.5526 0.0
C1556 C 0.53962 0.16349 0.53417 0.0
C1557 C 0.56958 0.13859 0.47884 0.0
C1558 C 0.5581 0.14535 0.49803 0.0
H1559 H 0.48706 0.19927 0.57024 0.0
H1560 H 0.49887 0.17415 0.54361 0.0
H1561 H 0.56265 0.14514 0.55157 0.0
H1562 H 0.61942 0.13843 0.45897 0.0
H1563 H 0.60072 0.14403 0.49204 0.0
C1564 C 0.54263 0.79385 0.33542 0.0
C1565 C 0.53924 0.77204 0.33341 0.0
C1566 C 0.55484 0.80462 0.32061 0.0
C1567 C 0.59294 0.79695 0.27687 0.0
H1568 H 0.56683 0.84733 0.25405 0.0
C1569 C 0.60677 0.82622 0.19253 0.0
C1570 C 0.60689 0.84803 0.18853 0.0
C1571 C 0.60281 0.81865 0.21279 0.0
C1572 C 0.57462 0.83356 0.26051 0.0
H1573 H 0.54653 0.74423 0.31484 0.0
H1574 H 0.56756 0.76304 0.28881 0.0
H1575 H 0.55199 0.83083 0.28531 0.0
H1576 H 0.60405 0.87902 0.20289 0.0
H1577 H 0.5971 0.86572 0.23832 0.0
H1578 H 0.6151 0.79929 0.25151 0.0
C1579 C 0.56105 0.77182 0.30195 0.0
C1580 C 0.5661 0.8241 0.27844 0.0
C1581 C 0.54885 0.76106 0.31675 0.0
C1582 C 0.60385 0.86212 0.20541 0.0
C1583 C 0.59984 0.85452 0.22568 0.0
C1584 C 0.60146 0.80642 0.25892 0.0
C1585 C 0.5639 0.79376 0.30353 0.0
C1586 C 0.57483 0.80537 0.28647 0.0
C1587 C 0.59889 0.83271 0.22949 0.0
C1588 C 0.59202 0.8245 0.25024 0.0
H1589 H 0.53552 0.80268 0.34822 0.0
H1590 H 0.55696 0.8215 0.32235 0.0
H1591 H 0.60022 0.78273 0.28294 0.0
H1592 H 0.60921 0.81493 0.17992 0.0
H1593 H 0.60194 0.80175 0.21516 0.0
C1594 C 0.97415 0.81579 0.08083 0.0
C1595 C 0.96254 0.79811 0.0874 0.0
C1596 C 0.9661 0.82922 0.06533 0.0
C1597 C 0.91738 0.84039 0.0338 0.0
H1598 H 0.95775 0.8557 0.99056 0.0
C1599 C 0.9194 0.84998 0.93869 0.0
C1600 C 0.89961 0.8593 0.93543 0.0
C1601 C 0.92779 0.84854 0.95897 0.0
C1602 C 0.94624 0.8515 0.00245 0.0
H1603 H 0.93321 0.78094 0.08358 0.0
H1604 H 0.91956 0.80365 0.05604 0.0
H1605 H 0.97024 0.84143 0.02378 0.0
H1606 H 0.87371 0.87579 0.95045 0.0
H1607 H 0.88872 0.87404 0.98585 0.0
H1608 H 0.89331 0.84853 0.01179 0.0
C1609 C 0.93456 0.8077 0.06315 0.0
C1610 C 0.95343 0.84363 0.02171 0.0
C1611 C 0.94247 0.79449 0.07882 0.0
C1612 C 0.88885 0.86816 0.95264 0.0
C1613 C 0.89744 0.8671 0.9729 0.0
C1614 C 0.91018 0.84785 0.01439 0.0
C1615 C 0.94641 0.82503 0.05593 0.0
C1616 C 0.93904 0.83722 0.03731 0.0
C1617 C 0.91677 0.85678 0.97641 0.0
C1618 C 0.9245 0.85274 -0.00182 0.0
H1619 H 0.98961 0.81903 0.0874 0.0
H1620 H 0.97549 0.84262 0.06043 0.0
H1621 H 0.90587 0.83618 0.04569 0.0
H1622 H 0.92803 0.84301 0.92568 0.0
H1623 H 0.9425 0.84012 0.961 0.0
C1624 C 0.66835 0.94798 0.79224 0.0
C1625 C 0.6666 0.95227 0.77059 0.0
C1626 C 0.68383 0.93418 0.79961 0.0
C1627 C 0.73615 0.91576 0.78461 0.0
H1628 H 0.73036 0.88014 0.83401 0.0
C1629 C 0.80857 0.87717 0.82157 0.0
C1630 C 0.81045 0.88027 0.84345 0.0
C1631 C 0.78934 0.88055 0.81143 0.0
C1632 C 0.73218 0.89001 0.82018 0.0
H1633 H 0.67864 0.94454 0.73951 0.0
H1634 H 0.70554 0.92023 0.75236 0.0
H1635 H 0.69897 0.89591 0.81805 0.0
H1636 H 0.79336 0.88808 0.87206 0.0
H1637 H 0.75991 0.8945 0.85428 0.0
H1638 H 0.76929 0.91064 0.7871 0.0
C1639 C 0.69524 0.92783 0.76367 0.0
C1640 C 0.71425 0.89902 0.81106 0.0
C1641 C 0.67983 0.9417 0.75632 0.0
C1642 C 0.79244 0.88569 0.85516 0.0
C1643 C 0.77322 0.8892 0.84499 0.0
C1644 C 0.75401 0.90678 0.7937 0.0
C1645 C 0.69776 0.92435 0.78543 0.0
C1646 C 0.71613 0.91237 0.79346 0.0
C1647 C 0.77163 0.88721 0.82295 0.0
C1648 C 0.75229 0.89419 0.81185 0.0
H1649 H 0.65829 0.95587 0.80357 0.0
H1650 H 0.68551 0.93202 0.81648 0.0
H1651 H 0.73819 0.92626 0.77129 0.0
H1652 H 0.82208 0.87261 0.81215 0.0
H1653 H 0.78848 0.87851 0.79448 0.0
C1654 C 0.80975 0.92942 0.49698 0.0
C1655 C 0.80078 0.916 0.51214 0.0
C1656 C 0.82257 0.94625 0.50325 0.0
C1657 C 0.85198 0.96873 0.54865 0.0
H1658 H 0.83221 0.02239 0.52699 0.0
C1659 C 0.85737 0.04568 0.59575 0.0
C1660 C 0.86005 0.06489 0.58503 0.0
C1661 C 0.8555 0.02682 0.58454 0.0
C1662 C 0.83834 0.00758 0.53289 0.0
H1663 H 0.79911 0.90878 0.54554 0.0
H1664 H 0.82138 0.9381 0.55647 0.0
H1665 H 0.8199 0.9898 0.51091 0.0
H1666 H 0.86407 0.07922 0.55418 0.0
H1667 H 0.86097 0.04621 0.53464 0.0
H1668 H 0.86983 0.98656 0.57115 0.0
C1669 C 0.81866 0.93565 0.53977 0.0
C1670 C 0.83128 0.98888 0.52365 0.0
C1671 C 0.80574 0.91896 0.53353 0.0
C1672 C 0.8617 0.06471 0.56291 0.0
C1673 C 0.85992 0.04582 0.5517 0.0
C1674 C 0.85912 0.98745 0.55786 0.0
C1675 C 0.82676 0.94977 0.52476 0.0
C1676 C 0.83747 0.96928 0.53189 0.0
C1677 C 0.85639 0.02672 0.56237 0.0
C1678 C 0.8518 0.00706 0.55052 0.0
H1679 H 0.80623 0.92742 0.48037 0.0
H1680 H 0.82875 0.95684 0.49136 0.0
H1681 H 0.85723 0.95381 0.55512 0.0
H1682 H 0.85612 0.04525 0.61279 0.0
H1683 H 0.85249 0.01243 0.59324 0.0
C1684 C 0.81422 0.06268 0.26482 0.0
C1685 C 0.83194 0.05522 0.27581 0.0
C1686 C 0.79956 0.07562 0.27493 0.0
C1687 C 0.77942 0.08414 0.328 0.0
H1688 H 0.74461 0.12616 0.30039 0.0
C1689 C 0.70376 0.1142 0.36704 0.0
C1690 C 0.68596 0.11349 0.3538 0.0
C1691 C 0.72402 0.11279 0.35854 0.0
C1692 C 0.75425 0.1145 0.30831 0.0
H1693 H 0.84916 0.05671 0.30537 0.0
H1694 H 0.82368 0.07953 0.32295 0.0
H1695 H 0.77677 0.11374 0.28314 0.0
H1696 H 0.67551 0.11185 0.3212 0.0
H1697 H 0.71075 0.1089 0.30647 0.0
H1698 H 0.75657 0.08411 0.35268 0.0
C1699 C 0.82088 0.07504 0.30668 0.0
C1700 C 0.77264 0.10741 0.29846 0.0
C1701 C 0.83548 0.06203 0.29661 0.0
C1702 C 0.68888 0.11228 0.33185 0.0
C1703 C 0.70911 0.11083 0.32338 0.0
C1704 C 0.76109 0.09121 0.33782 0.0
C1705 C 0.80243 0.08139 0.29618 0.0
C1706 C 0.78507 0.09169 0.30794 0.0
C1707 C 0.72687 0.11062 0.33666 0.0
C1708 C 0.74798 0.10598 0.3278 0.0
H1709 H 0.81116 0.05772 0.24874 0.0
H1710 H 0.78541 0.08007 0.26645 0.0
H1711 H 0.78846 0.07179 0.33559 0.0
H1712 H 0.70206 0.11543 0.384 0.0
H1713 H 0.73744 0.11295 0.36913 0.0
C1714 C 0.69539 0.05776 -0.00172 0.0
C1715 C 0.70424 0.07262 0.01216 0.0
C1716 C 0.68266 0.04153 0.006 0.0
C1717 C 0.65256 0.02372 0.0528 0.0
H1718 H 0.66899 0.96789 0.03393 0.0
C1719 C 0.63916 0.9486 0.10174 0.0
C1720 C 0.63543 0.92946 0.09117 0.0
C1721 C 0.643 0.96704 0.09035 0.0
C1722 C 0.66383 0.98335 0.03907 0.0
H1723 H 0.70606 0.08277 0.04481 0.0
H1724 H 0.68404 0.05432 0.05832 0.0
H1725 H 0.68384 -0.00124 0.0168 0.0
H1726 H 0.63136 0.91492 0.0604 0.0
H1727 H 0.6378 0.94716 0.04055 0.0
H1728 H 0.63298 0.0082 0.07551 0.0
C1729 C 0.68674 0.05529 0.04147 0.0
C1730 C 0.67236 0.00106 0.02925 0.0
C1731 C 0.6995 0.07147 0.03376 0.0
C1732 C 0.63454 0.92936 0.06901 0.0
C1733 C 0.63825 0.94781 0.05763 0.0
C1734 C 0.64395 0.00597 0.06261 0.0
C1735 C 0.67851 0.03994 0.02772 0.0
C1736 C 0.6672 0.02141 0.03633 0.0
C1737 C 0.64305 0.96674 0.06816 0.0
C1738 C 0.64988 0.98559 0.05616 0.0
H1739 H 0.69868 0.05838 0.98152 0.0
H1740 H 0.67634 0.03002 0.99503 0.0
H1741 H 0.64809 0.03925 0.05837 0.0
H1742 H 0.63988 0.94922 0.11881 0.0
H1743 H 0.64687 0.98132 0.09895 0.0
C1744 C 0.6598 0.05161 0.70089 0.0
C1745 C 0.66382 0.04464 0.72154 0.0
C1746 C 0.67423 0.06466 0.69057 0.0
C1747 C 0.72167 0.09814 0.69871 0.0
H1748 H 0.73772 0.07707 0.64354 0.0
C1749 C 0.80447 0.10838 0.66426 0.0
C1750 C 0.80693 0.11088 0.64236 0.0
C1751 C 0.78452 0.1052 0.67293 0.0
C1752 C 0.73317 0.08352 0.65871 0.0
H1753 H 0.68544 0.04669 0.748 0.0
H1754 H 0.71073 0.06922 0.72994 0.0
H1755 H 0.70655 0.06295 0.6608 0.0
H1756 H 0.79023 0.11304 0.61251 0.0
H1757 H 0.75533 0.10749 0.62774 0.0
H1758 H 0.74885 0.11812 0.69691 0.0
C1759 C 0.69638 0.06483 0.72176 0.0
C1760 C 0.71528 0.07542 0.66861 0.0
C1761 C 0.68198 0.05177 0.73205 0.0
C1762 C 0.7889 0.11093 0.62942 0.0
C1763 C 0.76892 0.10774 0.63812 0.0
C1764 C 0.73957 0.10626 0.6888 0.0
C1765 C 0.6929 0.07101 0.70074 0.0
C1766 C 0.7097 0.08219 0.68897 0.0
C1767 C 0.76657 0.10449 0.65992 0.0
C1768 C 0.74585 0.09856 0.66897 0.0
H1769 H 0.64582 0.04647 0.69247 0.0
H1770 H 0.67102 0.06939 0.67446 0.0
H1771 H 0.71753 0.1039 0.71427 0.0
H1772 H 0.818 0.10839 0.67471 0.0
H1773 H 0.78328 0.10247 0.68975 0.0
C1774 C 0.70636 0.917 0.45215 0.0
C1775 C 0.70948 0.91401 0.47388 0.0
C1776 C 0.69267 0.93266 0.44494 0.0
C1777 C 0.67219 0.98372 0.46152 0.0
H1778 H 0.63816 0.97902 0.41084 0.0
C1779 C 0.63207 0.05651 0.42662 0.0
C1780 C 0.63518 0.05928 0.40485 0.0
C1781 C 0.63612 0.03706 0.43606 0.0
C1782 C 0.64761 0.98056 0.42501 0.0
H1783 H 0.69997 0.92422 0.50513 0.0
H1784 H 0.67597 0.95154 0.49251 0.0
H1785 H 0.65451 0.94747 0.42582 0.0
H1786 H 0.64382 0.04353 0.3757 0.0
H1787 H 0.6514 0.00973 0.39225 0.0
H1788 H 0.66612 0.01679 0.46036 0.0
C1789 C 0.68431 0.94198 0.48107 0.0
C1790 C 0.65693 0.96252 0.43357 0.0
C1791 C 0.698 0.92632 0.48827 0.0
C1792 C 0.64137 0.04192 0.39253 0.0
C1793 C 0.64556 0.02248 0.40201 0.0
C1794 C 0.66294 0.00171 0.45295 0.0
C1795 C 0.68186 0.9456 0.45933 0.0
C1796 C 0.66968 0.96401 0.45167 0.0
C1797 C 0.64348 0.02 0.42395 0.0
C1798 C 0.65091 0.00042 0.43436 0.0
H1799 H 0.71496 0.90767 0.4407 0.0
H1800 H 0.6913 0.93523 0.4281 0.0
H1801 H 0.6822 0.98546 0.47528 0.0
H1802 H 0.62696 0.0695 0.43649 0.0
H1803 H 0.63397 0.03552 0.45295 0.0
C1804 C 0.8246 0.95971 0.20574 0.0
C1805 C 0.82575 0.9642 0.22741 0.0
C1806 C 0.80869 0.94662 0.19787 0.0
C1807 C 0.75503 0.93001 0.2105 0.0
H1808 H 0.76298 0.89069 0.16424 0.0
C1809 C 0.68465 0.8861 0.17478 0.0
C1810 C 0.68351 0.88625 0.15264 0.0
C1811 C 0.70332 0.89164 0.18506 0.0
C1812 C 0.76052 0.90167 0.17711 0.0
H1813 H 0.81182 0.95785 0.25799 0.0
H1814 H 0.78407 0.9349 0.24426 0.0
H1815 H 0.79363 0.90778 0.18034 0.0
H1816 H 0.70135 0.89127 0.12387 0.0
H1817 H 0.73382 0.90142 0.14183 0.0
H1818 H 0.72201 0.92455 0.20694 0.0
C1819 C 0.79529 0.94171 0.23332 0.0
C1820 C 0.77805 0.91142 0.18633 0.0
C1821 C 0.8112 0.95478 0.24118 0.0
C1822 C 0.70172 0.89106 0.14096 0.0
C1823 C 0.72037 0.89676 0.15126 0.0
C1824 C 0.73756 0.92033 0.20128 0.0
C1825 C 0.79365 0.9378 0.21154 0.0
C1826 C 0.77544 0.92591 0.20293 0.0
C1827 C 0.72122 0.89759 0.17342 0.0
C1828 C 0.74006 0.90626 0.1843 0.0
H1829 H 0.83565 0.96673 0.19477 0.0
H1830 H 0.8077 0.94409 0.18099 0.0
H1831 H 0.75246 0.94137 0.22302 0.0
H1832 H 0.67098 0.88213 0.18423 0.0
H1833 H 0.7036 0.8917 0.20215 0.0
C1834 C 0.79715 0.07667 0.94579 0.0
C1835 C 0.79482 0.07977 0.9676 0.0
C1836 C 0.81073 0.06113 0.93815 0.0
C1837 C 0.83098 0.01012 0.95448 0.0
H1838 H 0.86202 0.01292 0.90185 0.0
C1839 C 0.86583 0.93534 0.91832 0.0
C1840 C 0.86159 0.93245 0.89674 0.0
C1841 C 0.86315 0.95506 0.92769 0.0
C1842 C 0.8534 0.0119 0.91656 0.0
H1843 H 0.80589 0.07014 -0.00149 0.0
H1844 H 0.82972 0.043 0.98515 0.0
H1845 H 0.84772 0.04524 0.91735 0.0
H1846 H 0.85228 0.94817 0.86782 0.0
H1847 H 0.84694 0.98251 0.88432 0.0
H1848 H 0.83568 0.97684 0.95335 0.0
C1849 C 0.82083 0.05239 0.97397 0.0
C1850 C 0.84528 0.03039 0.92544 0.0
C1851 C 0.80724 0.06794 0.98161 0.0
C1852 C 0.85559 0.94991 0.8845 0.0
C1853 C 0.8527 0.96963 0.89394 0.0
C1854 C 0.83901 0.99169 0.9456 0.0
C1855 C 0.82223 0.04841 0.95219 0.0
C1856 C 0.83359 0.02959 0.94426 0.0
C1857 C 0.85596 0.97229 0.91575 0.0
C1858 C 0.84991 0.99229 0.92631 0.0
H1859 H 0.78783 0.08564 0.93462 0.0
H1860 H 0.81131 0.05831 0.9213 0.0
H1861 H 0.82172 0.0089 0.96879 0.0
H1862 H 0.87087 0.92224 0.92808 0.0
H1863 H 0.86623 0.95669 0.94443 0.0
C1864 C 0.79014 0.65765 0.94537 0.0
C1865 C 0.77024 0.66115 0.95442 0.0
C1866 C 0.79898 0.6726 0.93185 0.0
C1867 C 0.78779 0.7215 0.90148 0.0
H1868 H 0.84477 0.73637 0.91819 0.0
C1869 C 0.8234 0.80416 0.89007 0.0
C1870 C 0.84515 0.80602 0.88622 0.0
C1871 C 0.81433 0.78438 0.89344 0.0
C1872 C 0.82904 0.7322 0.91294 0.0
H1873 H 0.74341 0.68233 0.9555 0.0
H1874 H 0.75898 0.70862 0.93223 0.0
H1875 H 0.8285 0.70486 0.93255 0.0
H1876 H 0.87418 0.78849 0.88152 0.0
H1877 H 0.85828 0.75397 0.88721 0.0
H1878 H 0.78817 0.7494 0.88243 0.0
C1879 C 0.76769 0.69425 0.93533 0.0
C1880 C 0.8197 0.71409 0.92118 0.0
C1881 C 0.75883 0.67927 0.9488 0.0
C1882 C 0.85744 0.78762 0.8848 0.0
C1883 C 0.84834 0.76784 0.88807 0.0
C1884 C 0.79717 0.73966 0.89321 0.0
C1885 C 0.78811 0.69135 0.9272 0.0
C1886 C 0.79881 0.70881 0.91594 0.0
C1887 C 0.82679 0.76604 0.8929 0.0
C1888 C 0.81772 0.74545 0.89925 0.0
H1889 H 0.79919 0.64369 0.94927 0.0
H1890 H 0.81461 0.66979 0.92556 0.0
H1891 H 0.77176 0.71766 0.89695 0.0
H1892 H 0.81347 0.81802 0.89115 0.0
H1893 H 0.79772 0.78356 0.89735 0.0
C1894 C 0.25752 0.82004 0.04837 0.0
C1895 C 0.26892 0.83766 0.04131 0.0
C1896 C 0.26648 0.80611 0.06287 0.0
C1897 C 0.31837 0.78716 0.0786 0.0
H1898 H 0.28644 0.75562 0.12016 0.0
C1899 C 0.3542 0.71434 0.11772 0.0
C1900 C 0.34118 0.69641 0.11657 0.0
C1901 C 0.34579 0.73444 0.11453 0.0
C1902 C 0.29558 0.76435 0.10866 0.0
H1903 H 0.29809 0.85526 0.04472 0.0
H1904 H 0.3137 0.83097 0.07016 0.0
H1905 H 0.27057 0.78641 0.10324 0.0
H1906 H 0.30887 0.68565 0.11273 0.0
H1907 H 0.29435 0.72058 0.10672 0.0
H1908 H 0.34298 0.76468 0.08318 0.0
C1909 C 0.29797 0.82776 0.06427 0.0
C1910 C 0.28649 0.78195 0.09899 0.0
C1911 C 0.28903 0.84167 0.04974 0.0
C1912 C 0.31938 0.69911 0.11352 0.0
C1913 C 0.311 0.71919 0.11028 0.0
C1914 C 0.32742 0.7696 0.08823 0.0
C1915 C 0.28699 0.80957 0.0706 0.0
C1916 C 0.29759 0.79315 0.08341 0.0
C1917 C 0.32422 0.73701 0.11011 0.0
C1918 C 0.3159 0.75763 0.1029 0.0
H1919 H 0.24195 0.81662 0.04217 0.0
H1920 H 0.25771 0.79211 0.06723 0.0
H1921 H 0.32724 0.79526 0.06646 0.0
H1922 H 0.37101 0.71282 0.12037 0.0
H1923 H 0.3563 0.74792 0.11485 0.0
C1924 C 0.90431 0.54222 0.80282 0.0
C1925 C 0.9076 0.52164 0.7953 0.0
C1926 C 0.91912 0.55179 0.81604 0.0
C1927 C 0.96622 0.5416 0.8493 0.0
H1928 H 0.98291 0.59748 0.8308 0.0
C1929 C 0.04858 0.57639 0.86372 0.0
C1930 C 0.05077 0.59828 0.86663 0.0
C1931 C 0.02882 0.56755 0.85975 0.0
C1932 C 0.97819 0.58209 0.83654 0.0
H1933 H 0.92842 0.49453 0.79642 0.0
H1934 H 0.95449 0.51134 0.81923 0.0
H1935 H 0.95206 0.58083 0.81529 0.0
H1936 H 0.03371 0.62788 0.86897 0.0
H1937 H -0.00085 0.61236 0.86218 0.0
H1938 H 0.99288 0.54265 0.87006 0.0
C1939 C 0.94035 0.52002 0.81515 0.0
C1940 C 0.96049 0.57253 0.82762 0.0
C1941 C 0.92551 0.51045 0.80195 0.0
C1942 C 0.03261 0.61099 0.86653 0.0
C1943 C 0.01282 0.60213 0.8626 0.0
C1944 C 0.98395 0.55119 0.85826 0.0
C1945 C 0.93753 0.54096 0.82195 0.0
C1946 C 0.9546 0.55199 0.83354 0.0
C1947 C 0.01079 0.58038 0.85869 0.0
C1948 C 0.99041 0.57134 0.85159 0.0
H1949 H 0.89053 0.55115 0.79809 0.0
H1950 H 0.91638 0.56783 0.82127 0.0
H1951 H 0.96187 0.52587 0.85438 0.0
H1952 H 0.06223 0.56611 0.86383 0.0
H1953 H 0.02785 0.55078 0.85658 0.0
C1954 C 0.23579 0.188 0.54354 0.0
C1955 C 0.22518 0.16913 0.5388 0.0
C1956 C 0.22596 0.2036 0.55558 0.0
C1957 C 0.17329 0.22309 0.56809 0.0
H1958 H 0.20334 0.25867 0.60789 0.0
C1959 C 0.13358 0.29537 0.60577 0.0
C1960 C 0.14561 0.31401 0.60526 0.0
C1961 C 0.143 0.27587 0.60169 0.0
C1962 C 0.19476 0.24889 0.59678 0.0
H1963 H 0.19635 0.15134 0.5436 0.0
H1964 H 0.17916 0.17862 0.56472 0.0
H1965 H 0.22059 0.22738 0.59346 0.0
H1966 H 0.17716 0.32667 0.60098 0.0
H1967 H 0.19345 0.29277 0.59351 0.0
H1968 H 0.14776 0.24489 0.57078 0.0
C1969 C 0.19499 0.18143 0.55894 0.0
C1970 C 0.20462 0.23098 0.58855 0.0
C1971 C 0.20484 0.16581 0.54692 0.0
C1972 C 0.1674 0.31264 0.6014 0.0
C1973 C 0.17679 0.29316 0.59729 0.0
C1974 C 0.16346 0.24099 0.57628 0.0
C1975 C 0.20532 0.20063 0.56309 0.0
C1976 C 0.19413 0.21815 0.57379 0.0
C1977 C 0.16463 0.27461 0.59703 0.0
C1978 C 0.17423 0.25433 0.59038 0.0
H1979 H 0.25149 0.19097 0.5375 0.0
H1980 H 0.23423 0.21832 0.55828 0.0
H1981 H 0.1649 0.21368 0.55652 0.0
H1982 H 0.1168 0.29585 0.60892 0.0
H1983 H 0.13328 0.26181 0.60191 0.0
C1984 C 0.06437 0.98573 0.80483 0.0
C1985 C 0.08115 0.97424 0.79612 0.0
C1986 C 0.04932 0.97559 0.81732 0.0
C1987 C 0.02693 0.92265 0.82362 0.0
H1988 H 0.99477 0.94906 0.86845 0.0
C1989 C 0.9545 0.88177 0.85873 0.0
C1990 C 0.93634 0.89447 0.85933 0.0
C1991 C 0.97434 0.89085 0.85578 0.0
C1992 C 0.00367 0.94149 0.85598 0.0
H1993 H 0.09646 0.94368 0.79495 0.0
H1994 H 0.07058 0.92611 0.81721 0.0
H1995 H 0.02645 0.96647 0.85495 0.0
H1996 H 0.92491 0.92676 0.85853 0.0
H1997 H 0.95948 0.94251 0.85306 0.0
H1998 H 0.00396 0.89802 0.82417 0.0
C1999 C 0.0686 0.94276 0.8139 0.0
C2000 C 0.02176 0.95146 0.84823 0.0
C2001 C 0.08346 0.95282 0.80122 0.0
C2002 C 0.93856 0.9165 0.85794 0.0
C2003 C 0.9584 0.92557 0.85502 0.0
C2004 C 0.00897 0.91269 0.8314 0.0
C2005 C 0.05096 0.95383 0.82147 0.0
C2006 C 0.03333 0.94232 0.83166 0.0
C2007 C 0.97642 0.9128 0.85345 0.0
C2008 C -0.00309 0.9222 0.84735 0.0
H2009 H 0.06229 0.00229 0.80113 0.0
H2010 H 0.03583 0.98455 0.82274 0.0
H2011 H 0.03519 0.91534 0.81057 0.0
H2012 H 0.95337 0.86476 0.86001 0.0
H2013 H 0.98802 0.88066 0.85489 0.0
C2014 C 0.73347 0.3134 0.45267 0.0
C2015 C 0.72247 0.33169 0.45856 0.0
C2016 C 0.72393 0.29838 0.43968 0.0
C2017 C 0.67151 0.27852 0.42734 0.0
H2018 H 0.70165 0.2439 0.38688 0.0
C2019 C 0.63372 0.20401 0.39226 0.0
C2020 C 0.6466 0.18599 0.39311 0.0
C2021 C 0.64236 0.22405 0.39529 0.0
C2022 C 0.69303 0.25346 0.39813 0.0
H2023 H 0.69339 0.34927 0.45457 0.0
H2024 H 0.67673 0.32301 0.43178 0.0
H2025 H 0.71831 0.27572 0.40099 0.0
H2026 H 0.6788 0.17494 0.39683 0.0
H2027 H 0.69375 0.20979 0.40257 0.0
H2028 H 0.64662 0.2559 0.42526 0.0
C2029 C 0.69261 0.32017 0.43743 0.0
C2030 C 0.70255 0.27165 0.40617 0.0
C2031 C 0.70216 0.3352 0.45042 0.0
C2032 C 0.66841 0.18848 0.39622 0.0
C2033 C 0.67703 0.2085 0.39929 0.0
C2034 C 0.66202 0.26034 0.41935 0.0
C2035 C 0.70321 0.30138 0.43234 0.0
C2036 C 0.69209 0.28404 0.42128 0.0
C2037 C 0.66405 0.22647 0.39923 0.0
C2038 C 0.6729 0.24731 0.4051 0.0
H2039 H 0.74917 0.31033 0.45867 0.0
H2040 H 0.73241 0.28395 0.43624 0.0
H2041 H 0.66315 0.28758 0.43918 0.0
H2042 H 0.61689 0.20264 0.38961 0.0
H2043 H 0.63202 0.23764 0.39488 0.0
C2044 C 0.90489 0.45368 0.69494 0.0
C2045 C 0.90717 0.47429 0.70277 0.0
C2046 C 0.9204 0.4449 0.68202 0.0
C2047 C 0.9686 0.45711 0.65092 0.0
H2048 H 0.98606 0.4016 0.66978 0.0
C2049 C 0.05224 0.42398 0.6386 0.0
C2050 C 0.05467 0.40218 0.63528 0.0
C2051 C 0.03231 0.43252 0.64242 0.0
C2052 C 0.98117 0.41691 0.66397 0.0
H2053 H 0.9268 0.50232 0.70233 0.0
H2054 H 0.95409 0.48689 0.6801 0.0
H2055 H 0.95412 0.41717 0.68397 0.0
H2056 H 0.03792 0.37245 0.63212 0.0
H2057 H 0.00315 0.38741 0.63863 0.0
H2058 H -0.00381 0.45702 0.63142 0.0
C2059 C 0.94022 0.47756 0.68369 0.0
C2060 C 0.96282 0.42585 0.67211 0.0
C2061 C 0.92466 0.48636 0.69654 0.0
C2062 C 0.03664 0.38926 0.63492 0.0
C2063 C 0.01671 0.39782 0.63869 0.0
C2064 C 0.98701 0.44814 0.64276 0.0
C2065 C 0.93854 0.45654 0.67677 0.0
C2066 C 0.95654 0.44621 0.666 0.0
C2067 C 0.01439 0.41946 0.64292 0.0
C2068 C 0.99369 0.42811 0.64953 0.0
H2069 H 0.89145 0.44408 0.69932 0.0
H2070 H 0.91849 0.42878 0.67663 0.0
H2071 H 0.964 0.47271 0.64571 0.0
H2072 H 0.06579 0.4344 0.63887 0.0
H2073 H 0.03108 0.44923 0.64585 0.0
C2074 C 0.56418 0.5157 0.185 0.0
C2075 C 0.57553 0.53039 0.19714 0.0
C2076 C 0.54841 0.52252 0.17118 0.0
C2077 C 0.52603 0.56971 0.14491 0.0
H2078 H 0.47226 0.54298 0.15652 0.0
C2079 C 0.44721 0.61301 0.13796 0.0
C2080 C 0.42887 0.60166 0.13282 0.0
C2081 C 0.46653 0.60267 0.13982 0.0
C2082 C 0.48716 0.55035 0.1526 0.0
H2083 H 0.58028 0.56368 0.20352 0.0
H2084 H 0.55276 0.57557 0.17951 0.0
H2085 H 0.50446 0.52736 0.17014 0.0
H2086 H 0.41665 0.57083 0.12418 0.0
H2087 H 0.45047 0.55283 0.12717 0.0
H2088 H 0.5086 0.59314 0.12798 0.0
C2089 C 0.55605 0.55883 0.18053 0.0
C2090 C 0.50565 0.54138 0.16044 0.0
C2091 C 0.57167 0.55201 0.19443 0.0
C2092 C 0.43045 0.57995 0.12852 0.0
C2093 C 0.44981 0.56963 0.13024 0.0
C2094 C 0.50754 0.57864 0.13695 0.0
C2095 C 0.54391 0.54413 0.16917 0.0
C2096 C 0.52516 0.55137 0.1573 0.0
C2097 C 0.46797 0.58078 0.13641 0.0
C2098 C 0.48783 0.56946 0.14137 0.0
H2099 H 0.56694 0.49892 0.18672 0.0
H2100 H 0.53936 0.51088 0.1625 0.0
H2101 H 0.54094 0.57756 0.14202 0.0
H2102 H 0.44654 0.62977 0.14129 0.0
H2103 H 0.48014 0.6117 0.14489 0.0
C2104 C 0.54125 0.74718 0.81082 0.0
C2105 C 0.5331 0.73292 0.82566 0.0
C2106 C 0.55386 0.74 0.79427 0.0
C2107 C 0.58452 0.69414 0.77486 0.0
H2108 H 0.56703 0.71445 0.71986 0.0
C2109 C 0.59819 0.6481 0.69789 0.0
C2110 C 0.60192 0.65939 0.67919 0.0
C2111 C 0.5941 0.65875 0.71672 0.0
C2112 C 0.57247 0.70891 0.73508 0.0
H2113 H 0.53242 0.70015 0.83545 0.0
H2114 H 0.55418 0.68754 0.80635 0.0
H2115 H 0.55219 0.73024 0.75145 0.0
H2116 H 0.60554 0.69073 0.66584 0.0
H2117 H 0.59856 0.7093 0.69879 0.0
H2118 H 0.60435 0.67234 0.75834 0.0
C2119 C 0.55106 0.70429 0.80762 0.0
C2120 C 0.56394 0.71797 0.75321 0.0
C2121 C 0.53846 0.71148 0.82419 0.0
C2122 C 0.60244 0.68156 0.67992 0.0
C2123 C 0.5984 0.6922 0.69877 0.0
C2124 C 0.59309 0.68508 0.75668 0.0
C2125 C 0.55852 0.71842 0.79225 0.0
C2126 C 0.56955 0.7104 0.77328 0.0
C2127 C 0.59375 0.68092 0.71727 0.0
C2128 C 0.58681 0.69209 0.7366 0.0
H2129 H 0.53751 0.76384 0.81169 0.0
H2130 H 0.55963 0.75129 0.78282 0.0
H2131 H 0.58935 0.68819 0.79013 0.0
H2132 H 0.59779 0.63101 0.6979 0.0
H2133 H 0.59034 0.64959 0.73064 0.0
C2134 C 0.54158 0.28833 0.0753 0.0
C2135 C 0.52129 0.29119 0.08362 0.0
C2136 C 0.54892 0.30139 0.05922 0.0
C2137 C 0.56491 0.33505 0.03014 0.0
H2138 H 0.52498 0.34867 0.98584 0.0
C2139 C 0.59401 0.37017 0.95233 0.0
C2140 C 0.58501 0.36154 0.93402 0.0
C2141 C 0.58459 0.36695 0.97195 0.0
C2142 C 0.53637 0.34493 -0.00198 0.0
H2143 H 0.49312 0.31051 0.0825 0.0
H2144 H 0.5062 0.33385 0.05481 0.0
H2145 H 0.5125 0.33237 0.01816 0.0
H2146 H 0.55871 0.34355 0.92158 0.0
H2147 H 0.54278 0.33697 0.95583 0.0
H2148 H 0.58899 0.34592 0.00941 0.0
C2149 C 0.51624 0.32116 0.06027 0.0
C2150 C 0.52915 0.33587 0.01675 0.0
C2151 C 0.50878 0.30787 0.07619 0.0
C2152 C 0.56595 0.3504 0.93549 0.0
C2153 C 0.55674 0.34679 0.95516 0.0
C2154 C 0.57216 0.34375 0.0113 0.0
C2155 C 0.53625 0.31781 0.0513 0.0
C2156 C 0.54343 0.33027 0.0328 0.0
C2157 C 0.56621 0.35463 0.9737 0.0
C2158 C 0.55805 0.34829 0.99476 0.0
H2159 H 0.55152 0.27552 0.08068 0.0
H2160 H 0.56423 0.29802 0.05246 0.0
H2161 H 0.57629 0.33141 0.04236 0.0
H2162 H 0.60854 0.37915 0.95153 0.0
H2163 H 0.59202 0.37371 0.98578 0.0
C2164 C 0.95509 0.28852 0.3236 0.0
C2165 C 0.96121 0.26727 0.32478 0.0
C2166 C 0.94081 0.29512 0.3082 0.0
C2167 C 0.92306 0.28073 0.25538 0.0
H2168 H 0.88191 0.32504 0.26462 0.0
C2169 C 0.87914 0.31754 0.1857 0.0
C2170 C 0.87972 0.33972 0.18541 0.0
C2171 C 0.88395 0.30653 0.20415 0.0
C2172 C 0.89332 0.31264 0.26181 0.0
H2173 H 0.95662 0.23608 0.31139 0.0
H2174 H 0.9316 0.24763 0.28447 0.0
H2175 H 0.90027 0.30949 0.29475 0.0
H2176 H 0.88441 0.36773 0.2046 0.0
H2177 H 0.89321 0.34856 0.23659 0.0
H2178 H 0.91686 0.28438 0.22249 0.0
C2179 C 0.93802 0.25921 0.29531 0.0
C2180 C 0.90382 0.30376 0.27904 0.0
C2181 C 0.9523 0.25261 0.31072 0.0
C2182 C 0.88395 0.35065 0.20425 0.0
C2183 C 0.88884 0.33964 0.22266 0.0
C2184 C 0.91262 0.28962 0.23819 0.0
C2185 C 0.93238 0.28059 0.29369 0.0
C2186 C 0.91916 0.28807 0.27593 0.0
C2187 C 0.88947 0.31747 0.22266 0.0
C2188 C 0.89801 0.30602 0.24117 0.0
H2189 H 0.96168 0.30015 0.33429 0.0
H2190 H 0.93699 0.31174 0.30718 0.0
H2191 H 0.935 0.26887 0.25244 0.0
H2192 H 0.87562 0.30864 0.17152 0.0
H2193 H 0.88394 0.28944 0.20377 0.0
C2194 C 0.97921 0.6906 0.5735 0.0
C2195 C 0.97167 0.7112 0.57659 0.0
C2196 C 0.9708 0.67791 0.55755 0.0
C2197 C 0.92448 0.67266 0.52248 0.0
H2198 H 0.96269 0.64065 0.48701 0.0
C2199 C 0.92431 0.63594 0.43417 0.0
C2200 C 0.90384 0.62744 0.43376 0.0
C2201 C 0.93328 0.64251 0.4532 0.0
C2202 C 0.95183 0.6495 0.49679 0.0
H2203 H 0.94942 0.73472 0.56557 0.0
H2204 H 0.93496 0.71273 0.53752 0.0
H2205 H 0.97655 0.6602 0.51717 0.0
H2206 H 0.87738 0.6176 0.45313 0.0
H2207 H 0.89322 0.62871 0.48635 0.0
H2208 H 0.89992 0.66287 0.50159 0.0
C2209 C 0.9471 0.70621 0.54762 0.0
C2210 C 0.95973 0.66052 0.51418 0.0
C2211 C 0.95547 0.71886 0.56358 0.0
C2212 C 0.89307 0.6244 0.45289 0.0
C2213 C 0.90209 0.63084 0.47191 0.0
C2214 C 0.9166 0.66172 0.50508 0.0
C2215 C 0.9547 0.68561 0.54439 0.0
C2216 C 0.94617 0.67251 0.52699 0.0
C2217 C 0.92202 0.64055 0.4722 0.0
C2218 C 0.93023 0.65027 0.49185 0.0
H2219 H 0.99165 0.68428 0.58337 0.0
H2220 H 0.97681 0.66203 0.55558 0.0
H2221 H 0.91359 0.68151 0.53223 0.0
H2222 H 0.93306 0.63843 0.41971 0.0
H2223 H 0.9486 0.65009 0.45285 0.0
C2224 C 0.55793 0.29303 0.65844 0.0
C2225 C 0.54801 0.27356 0.6621 0.0
C2226 C 0.57148 0.30165 0.67354 0.0
C2227 C 0.60002 0.29043 0.72359 0.0
H2228 H 0.58378 0.34777 0.73748 0.0
C2229 C 0.60626 0.3253 0.8069 0.0
C2230 C 0.60993 0.34704 0.80936 0.0
C2231 C 0.60457 0.31646 0.78679 0.0
C2232 C 0.58895 0.33195 0.73359 0.0
H2233 H 0.54549 0.24716 0.68369 0.0
H2234 H 0.56884 0.26234 0.71021 0.0
H2235 H 0.57067 0.33168 0.70531 0.0
H2236 H 0.61617 0.37628 0.79268 0.0
H2237 H 0.61341 0.36077 0.75758 0.0
H2238 H 0.61764 0.29052 0.75245 0.0
C2239 C 0.56638 0.27088 0.69562 0.0
C2240 C 0.58142 0.3227 0.7151 0.0
C2241 C 0.55286 0.26225 0.68051 0.0
C2242 C 0.613 0.35953 0.79131 0.0
C2243 C 0.6114 0.35066 0.7712 0.0
C2244 C 0.6076 0.29971 0.74212 0.0
C2245 C 0.57532 0.29096 0.69257 0.0
C2246 C 0.58636 0.30165 0.71021 0.0
C2247 C 0.60663 0.32914 0.76873 0.0
C2248 C 0.60163 0.32037 0.74761 0.0
H2249 H 0.55464 0.30198 0.64426 0.0
H2250 H 0.57839 0.31701 0.67063 0.0
H2251 H 0.60432 0.27427 0.72006 0.0
H2252 H 0.60395 0.3152 0.82048 0.0
H2253 H 0.60064 0.29988 0.78546 0.0
C2254 C 0.94513 0.27585 0.92765 0.0
C2255 C 0.95568 0.28614 0.91115 0.0
C2256 C 0.93717 0.28734 0.9446 0.0
C2257 C 0.92135 0.33958 0.96343 0.0
H2258 H 0.93726 0.31654 0.01787 0.0
C2259 C 0.88174 0.36101 0.0427 0.0
C2260 C 0.89441 0.36136 0.06094 0.0
C2261 C 0.89045 0.35578 0.02316 0.0
C2262 C 0.93294 0.32337 0.00281 0.0
H2263 H 0.96511 0.3166 0.89873 0.0
H2264 H 0.95101 0.3368 0.92853 0.0
H2265 H 0.94886 0.29906 0.98576 0.0
H2266 H 0.92647 0.35828 0.07264 0.0
H2267 H 0.94161 0.34922 0.0385 0.0
H2268 H 0.90516 0.36379 0.98068 0.0
C2269 C 0.949 0.31983 0.92828 0.0
C2270 C 0.93934 0.31319 0.98444 0.0
C2271 C 0.95708 0.30828 0.9113 0.0
C2272 C 0.9162 0.35783 0.05897 0.0
C2273 C 0.92489 0.3526 0.03943 0.0
C2274 C 0.91478 0.34972 0.98191 0.0
C2275 C 0.93954 0.30936 0.94535 0.0
C2276 C 0.93336 0.321 0.96459 0.0
C2277 C 0.91197 0.35084 0.02149 0.0
C2278 C 0.92037 0.34158 0.00177 0.0
H2279 H 0.94368 0.25881 0.92788 0.0
H2280 H 0.92959 0.27894 0.9574 0.0
H2281 H 0.91658 0.3459 0.94828 0.0
H2282 H 0.86492 0.36384 0.04364 0.0
H2283 H 0.88009 0.35445 0.00961 0.0
C2284 C 0.94016 0.7017 0.16399 0.0
C2285 C 0.94591 0.72277 0.16773 0.0
C2286 C 0.92736 0.69097 0.17832 0.0
C2287 C 0.89254 0.69828 0.22493 0.0
H2288 H 0.91455 0.64358 0.24112 0.0
C2289 C 0.88195 0.66194 0.30716 0.0
C2290 C 0.88049 0.63989 0.30902 0.0
C2291 C 0.88463 0.67126 0.28741 0.0
C2292 C 0.90785 0.6586 0.23652 0.0
H2293 H 0.94218 0.74945 0.18885 0.0
H2294 H 0.92024 0.73062 0.21411 0.0
H2295 H 0.9291 0.66147 0.21059 0.0
H2296 H 0.87907 0.61046 0.29148 0.0
H2297 H 0.88368 0.6268 0.25702 0.0
H2298 H 0.8719 0.6957 0.25155 0.0
C2299 C 0.92529 0.72244 0.19997 0.0
C2300 C 0.9162 0.66888 0.21899 0.0
C2301 C 0.93802 0.73318 0.18561 0.0
C2302 C 0.88048 0.62747 0.29062 0.0
C2303 C 0.88313 0.63681 0.27088 0.0
C2304 C 0.8842 0.688 0.24253 0.0
C2305 C 0.92015 0.7011 0.19668 0.0
C2306 C 0.90903 0.68906 0.21333 0.0
C2307 C 0.88583 0.65873 0.26914 0.0
C2308 C 0.89216 0.66829 0.2488 0.0
H2309 H 0.94588 0.69337 0.1502 0.0
H2310 H 0.92343 0.67462 0.17522 0.0
H2311 H 0.88646 0.71369 0.22072 0.0
H2312 H 0.88185 0.67197 0.32101 0.0
H2313 H 0.88685 0.68819 0.2866 0.0
C2314 C 0.52187 0.67207 0.40732 0.0
C2315 C 0.53186 0.69126 0.40256 0.0
C2316 C 0.53126 0.65785 0.42129 0.0
C2317 C 0.54382 0.64299 0.46457 0.0
H2318 H 0.60361 0.64349 0.47727 0.0
C2319 C 0.57402 0.64239 0.54908 0.0
C2320 C 0.5942 0.63465 0.55375 0.0
C2321 C 0.56667 0.64245 0.52833 0.0
C2322 C 0.58689 0.64265 0.47387 0.0
H2323 H 0.5601 0.70997 0.40727 0.0
H2324 H 0.57602 0.68586 0.4322 0.0
H2325 H 0.59159 0.65431 0.44261 0.0
H2326 H 0.62202 0.61962 0.54071 0.0
H2327 H 0.60894 0.61913 0.50452 0.0
H2328 H 0.53913 0.63112 0.49573 0.0
C2329 C 0.56124 0.6813 0.42493 0.0
C2330 C 0.57996 0.64918 0.45401 0.0
C2331 C 0.55201 0.69531 0.41074 0.0
C2332 C 0.60652 0.62605 0.53746 0.0
C2333 C 0.59904 0.62579 0.51673 0.0
C2334 C 0.55077 0.63607 0.48426 0.0
C2335 C 0.55063 0.66276 0.43102 0.0
C2336 C 0.55828 0.65056 0.44954 0.0
C2337 C 0.57919 0.63442 0.51183 0.0
C2338 C 0.57229 0.63694 0.48956 0.0
H2339 H 0.50642 0.66845 0.40095 0.0
H2340 H 0.52288 0.64348 0.4252 0.0
H2341 H 0.52698 0.64378 0.46181 0.0
H2342 H 0.56418 0.64911 0.56132 0.0
H2343 H 0.5515 0.64963 0.52519 0.0
C2344 C 0.80345 0.52255 0.71169 0.0
C2345 C 0.82173 0.53239 0.71944 0.0
C2346 C 0.78674 0.5346 0.70404 0.0
C2347 C 0.77242 0.58636 0.68282 0.0
H2348 H 0.71621 0.56944 0.70007 0.0
C2349 C 0.69654 0.60945 0.63857 0.0
C2350 C 0.67793 0.6125 0.65023 0.0
C2351 C 0.71519 0.60355 0.64866 0.0
C2352 C 0.7318 0.57461 0.69536 0.0
H2353 H 0.83718 0.56249 0.72473 0.0
H2354 H 0.80784 0.58363 0.71121 0.0
H2355 H 0.74673 0.55099 0.7142 0.0
H2356 H 0.66471 0.6133 0.68181 0.0
H2357 H 0.69735 0.60309 0.69942 0.0
H2358 H 0.75736 0.60988 0.66377 0.0
C2359 C 0.80651 0.56659 0.71107 0.0
C2360 C 0.74926 0.56385 0.70323 0.0
C2361 C 0.82325 0.55451 0.71883 0.0
C2362 C 0.6787 0.6108 0.67233 0.0
C2363 C 0.69737 0.60489 0.68242 0.0
C2364 C 0.7549 0.59711 0.67485 0.0
C2365 C 0.78797 0.55673 0.70394 0.0
C2366 C 0.76971 0.56934 0.69673 0.0
C2367 C 0.71563 0.60062 0.67062 0.0
C2368 C 0.73439 0.59111 0.68079 0.0
H2369 H 0.80187 0.50553 0.7119 0.0
H2370 H 0.77278 0.52657 0.69827 0.0
H2371 H 0.78803 0.5909 0.67754 0.0
H2372 H 0.69655 0.6108 0.62153 0.0
H2373 H 0.72896 0.60023 0.63911 0.0
C2374 C 0.71921 0.55916 0.96599 0.0
C2375 C 0.71044 0.57848 0.9723 0.0
C2376 C 0.70636 0.54318 0.95806 0.0
C2377 C 0.65599 0.53185 0.93275 0.0
H2378 H 0.66628 0.47569 0.95475 0.0
C2379 C 0.62738 0.4391 0.92368 0.0
C2380 C 0.62898 0.43705 0.90165 0.0
C2381 C 0.63243 0.45815 0.9335 0.0
C2382 C 0.6629 0.4913 0.94868 0.0
H2383 H 0.6815 0.59658 0.97465 0.0
H2384 H 0.65894 0.56848 0.96051 0.0
H2385 H 0.68531 0.50559 0.96946 0.0
H2386 H 0.63548 0.45384 0.87253 0.0
H2387 H 0.64468 0.48696 0.88974 0.0
H2388 H 0.63384 0.51736 0.91162 0.0
C2389 C 0.67576 0.56579 0.96181 0.0
C2390 C 0.674 0.50837 0.95694 0.0
C2391 C 0.68864 0.58179 0.96992 0.0
C2392 C 0.63427 0.45486 0.88955 0.0
C2393 C 0.63938 0.4739 0.8994 0.0
C2394 C 0.64491 0.51468 0.92437 0.0
C2395 C 0.6845 0.54623 0.95618 0.0
C2396 C 0.67103 0.52871 0.94873 0.0
C2397 C 0.63922 0.4755 0.92151 0.0
C2398 C 0.64856 0.49418 0.93201 0.0
H2399 H 0.73596 0.5562 0.96756 0.0
H2400 H 0.71353 0.52836 0.95346 0.0
H2401 H 0.65343 0.54741 0.92617 0.0
H2402 H 0.62298 0.42577 0.93343 0.0
H2403 H 0.63179 0.45907 0.95056 0.0
C2404 C 0.66127 0.44884 0.2212 0.0
C2405 C 0.66163 0.47074 0.21775 0.0
C2406 C 0.67705 0.43597 0.21271 0.0
C2407 C 0.71729 0.43485 0.17093 0.0
H2408 H 0.74604 0.39429 0.2066 0.0
C2409 C 0.80299 0.39336 0.17344 0.0
C2410 C 0.80517 0.38833 0.15195 0.0
C2411 C 0.78336 0.39921 0.18155 0.0
C2412 C 0.7381 0.40551 0.19645 0.0
H2413 H 0.6786 0.49636 0.20271 0.0
H2414 H 0.70605 0.47398 0.18796 0.0
H2415 H 0.71553 0.41355 0.2203 0.0
H2416 H 0.78821 0.38373 0.12253 0.0
H2417 H 0.75397 0.39366 0.13675 0.0
H2418 H 0.74024 0.42764 0.14741 0.0
C2419 C 0.69353 0.46669 0.19701 0.0
C2420 C 0.72055 0.41637 0.20421 0.0
C2421 C 0.67788 0.47952 0.20557 0.0
C2422 C 0.78711 0.3879 0.13908 0.0
C2423 C 0.7675 0.39362 0.1472 0.0
C2424 C 0.73474 0.424 0.16317 0.0
C2425 C 0.69329 0.4448 0.2005 0.0
C2426 C 0.7103 0.4315 0.19166 0.0
C2427 C 0.76554 0.4 0.16834 0.0
C2428 C 0.74559 0.4095 0.17597 0.0
H2429 H 0.64891 0.44168 0.23057 0.0
H2430 H 0.67646 0.41913 0.21554 0.0
H2431 H 0.70953 0.44623 0.16082 0.0
H2432 H 0.8166 0.39375 0.1838 0.0
H2433 H 0.78239 0.40418 0.19788 0.0
C2434 C 0.81269 0.40414 0.47174 0.0
C2435 C 0.79104 0.40479 0.46699 0.0
C2436 C 0.82677 0.41753 0.46131 0.0
C2437 C 0.8315 0.45348 0.41532 0.0
H2438 H 0.86706 0.48672 0.45249 0.0
C2439 C 0.87009 0.52895 0.38512 0.0
C2440 C 0.86671 0.54652 0.39824 0.0
C2441 C 0.86731 0.50854 0.39286 0.0
C2442 C 0.85732 0.4775 0.44188 0.0
H2443 H 0.76726 0.41913 0.44702 0.0
H2444 H 0.79166 0.44252 0.42902 0.0
H2445 H 0.84903 0.45563 0.46618 0.0
H2446 H 0.85917 0.55646 0.43012 0.0
H2447 H 0.85368 0.52094 0.44346 0.0
H2448 H 0.83842 0.47611 0.39144 0.0
C2449 C 0.79789 0.4316 0.44059 0.0
C2450 C 0.84719 0.45954 0.44965 0.0
C2451 C 0.78386 0.41832 0.45103 0.0
C2452 C 0.86179 0.54325 0.41959 0.0
C2453 C 0.85882 0.52283 0.42728 0.0
C2454 C 0.84152 0.47145 0.40758 0.0
C2455 C 0.81943 0.43166 0.44589 0.0
C2456 C 0.83352 0.44784 0.43664 0.0
C2457 C 0.86091 0.50528 0.41383 0.0
C2458 C 0.85391 0.48411 0.42098 0.0
H2459 H 0.81864 0.39378 0.48396 0.0
H2460 H 0.84331 0.41714 0.4656 0.0
H2461 H 0.82133 0.44455 0.40484 0.0
H2462 H 0.87428 0.53098 0.36868 0.0
H2463 H 0.86947 0.49533 0.38222 0.0
C2464 C 0.81691 0.46496 0.80211 0.0
C2465 C 0.83056 0.4563 0.787 0.0
C2466 C 0.80216 0.45227 0.81231 0.0
C2467 C 0.77138 0.40447 0.80346 0.0
H2468 H 0.75281 0.41592 0.8606 0.0
C2469 C 0.69934 0.38384 0.86581 0.0
C2470 C 0.68224 0.38655 0.85194 0.0
C2471 C 0.71998 0.3871 0.85887 0.0
C2472 C 0.75797 0.41214 0.84476 0.0
H2473 H 0.84022 0.42743 0.77138 0.0
H2474 H 0.81437 0.40512 0.78934 0.0
H2475 H 0.78564 0.4312 0.848 0.0
H2476 H 0.67345 0.39378 0.81964 0.0
H2477 H 0.70932 0.40004 0.8077 0.0
H2478 H 0.74355 0.38562 0.80014 0.0
C2479 C 0.81498 0.42179 0.79312 0.0
C2480 C 0.77669 0.42111 0.83747 0.0
C2481 C 0.82981 0.43452 0.78292 0.0
C2482 C 0.68626 0.39165 0.83075 0.0
C2483 C 0.70688 0.39505 0.82386 0.0
C2484 C 0.75269 0.3954 0.81079 0.0
C2485 C 0.80073 0.43063 0.80763 0.0
C2486 C 0.78319 0.41799 0.81652 0.0
C2487 C 0.72394 0.39325 0.83795 0.0
C2488 C 0.74542 0.39974 0.83128 0.0
H2489 H 0.81715 0.48171 0.80559 0.0
H2490 H 0.79122 0.45966 0.82316 0.0
H2491 H 0.77592 0.40182 0.7872 0.0
H2492 H 0.69678 0.37959 0.88216 0.0
H2493 H 0.7328 0.38523 0.87002 0.0
C2494 C 0.78164 0.57233 0.05398 0.0
C2495 C 0.78985 0.58613 0.03876 0.0
C2496 C 0.79475 0.55794 0.06415 0.0
C2497 C 0.84286 0.52806 0.05503 0.0
H2498 H 0.83208 0.5095 0.11229 0.0
C2499 C 0.86268 0.45547 0.11705 0.0
C2500 C 0.85922 0.43852 0.10315 0.0
C2501 C 0.86017 0.47624 0.11017 0.0
C2502 C 0.83571 0.51468 0.09643 0.0
H2503 H 0.81833 0.59642 0.02287 0.0
H2504 H 0.84137 0.57113 0.04075 0.0
H2505 H 0.81663 0.54228 0.09981 0.0
H2506 H 0.85164 0.43006 0.07082 0.0
H2507 H 0.84669 0.46617 0.05899 0.0
H2508 H 0.86165 0.50023 0.05154 0.0
C2509 C 0.82475 0.57138 0.04466 0.0
C2510 C 0.82664 0.53336 0.08921 0.0
C2511 C 0.81159 0.58588 0.0345 0.0
C2512 C 0.85431 0.44277 0.08196 0.0
C2513 C 0.85166 0.46352 0.07512 0.0
C2514 C 0.85203 0.5094 0.06229 0.0
C2515 C 0.81637 0.55702 0.05932 0.0
C2516 C 0.82943 0.5398 0.06819 0.0
C2517 C 0.85405 0.48047 0.08929 0.0
C2518 C 0.84789 0.50209 0.08281 0.0
H2519 H 0.76494 0.5722 0.0576 0.0
H2520 H 0.78772 0.54688 0.07511 0.0
H2521 H 0.84527 0.53257 0.03873 0.0
H2522 H 0.86683 0.45272 0.1334 0.0
H2523 H 0.86249 0.48896 0.12137 0.0
C2524 C 0.67018 0.56413 0.26567 0.0
C2525 C 0.65461 0.55307 0.27683 0.0
C2526 C 0.6863 0.57455 0.27648 0.0
C2527 C 0.71422 0.56983 0.32684 0.0
H2528 H 0.7461 0.61739 0.30529 0.0
C2529 C 0.79231 0.59538 0.36471 0.0
C2530 C 0.80917 0.59753 0.35047 0.0
C2531 C 0.77161 0.59417 0.35738 0.0
C2532 C 0.73729 0.60412 0.31148 0.0
H2533 H 0.6424 0.5458 0.30792 0.0
H2534 H 0.67017 0.5646 0.32686 0.0
H2535 H 0.71173 0.6089 0.28991 0.0
H2536 H 0.81744 0.60097 0.31742 0.0
H2537 H 0.78119 0.59861 0.30461 0.0
H2538 H 0.73988 0.56478 0.34809 0.0
C2539 C 0.67038 0.56465 0.30977 0.0
C2540 C 0.71765 0.59924 0.30269 0.0
C2541 C 0.65443 0.55397 0.29895 0.0
C2542 C 0.80482 0.59912 0.32878 0.0
C2543 C 0.78406 0.598 0.32146 0.0
C2544 C 0.7337 0.57481 0.33571 0.0
C2545 C 0.68698 0.5743 0.29866 0.0
C2546 C 0.70614 0.58171 0.30994 0.0
C2547 C 0.76731 0.5952 0.33568 0.0
C2548 C 0.74564 0.59169 0.3278 0.0
H2549 H 0.67065 0.5637 0.24858 0.0
H2550 H 0.6989 0.58165 0.26738 0.0
H2551 H 0.70605 0.55596 0.33256 0.0
H2552 H 0.79509 0.59435 0.38155 0.0
H2553 H 0.75895 0.59222 0.36869 0.0
C2554 C 0.71862 0.43775 0.53678 0.0
C2555 C 0.70974 0.41809 0.53175 0.0
C2556 C 0.70595 0.45408 0.54417 0.0
C2557 C 0.65613 0.46661 0.56993 0.0
H2558 H 0.66595 0.52152 0.54479 0.0
C2559 C 0.62767 0.55967 0.57407 0.0
C2560 C 0.62936 0.56295 0.59593 0.0
C2561 C 0.63253 0.54008 0.56534 0.0
C2562 C 0.66269 0.50626 0.55174 0.0
H2563 H 0.68081 0.3998 0.53107 0.0
H2564 H 0.65854 0.42856 0.54419 0.0
H2565 H 0.68468 0.49094 0.53135 0.0
H2566 H 0.63589 0.5479 0.62597 0.0
H2567 H 0.64492 0.51379 0.61064 0.0
H2568 H 0.63433 0.48216 0.5906 0.0
C2569 C 0.67532 0.43122 0.54235 0.0
C2570 C 0.67364 0.4888 0.54421 0.0
C2571 C 0.68803 0.41485 0.53481 0.0
C2572 C 0.63458 0.54587 0.60904 0.0
C2573 C 0.63961 0.52628 0.60027 0.0
C2574 C 0.64517 0.48418 0.57756 0.0
C2575 C 0.68415 0.45108 0.54674 0.0
C2576 C 0.67084 0.46893 0.55353 0.0
C2577 C 0.63935 0.52344 0.57827 0.0
C2578 C 0.64865 0.50424 0.56876 0.0
H2579 H 0.73533 0.44067 0.53468 0.0
H2580 H 0.7132 0.46914 0.54781 0.0
H2581 H 0.65371 0.45142 0.57736 0.0
H2582 H 0.62327 0.57244 0.56359 0.0
H2583 H 0.63176 0.5382 0.54836 0.0
C2584 C 0.70427 0.82804 0.53736 0.0
C2585 C 0.72578 0.83294 0.53923 0.0
C2586 C 0.69516 0.8129 0.55046 0.0
C2587 C 0.70914 0.76464 0.57671 0.0
H2588 H 0.65334 0.76876 0.60138 0.0
C2589 C 0.66814 0.69133 0.61036 0.0
C2590 C 0.64683 0.68899 0.60473 0.0
C2591 C 0.67837 0.71063 0.6075 0.0
C2592 C 0.66891 0.76733 0.5945 0.0
H2593 H 0.7545 0.82659 0.55674 0.0
H2594 H 0.7386 0.79973 0.57941 0.0
H2595 H 0.67016 0.80026 0.58689 0.0
H2596 H 0.61934 0.70514 0.59231 0.0
H2597 H 0.63732 0.73847 0.58654 0.0
H2598 H 0.70755 0.73163 0.58298 0.0
C2599 C 0.72882 0.80769 0.56787 0.0
C2600 C 0.67854 0.78537 0.58634 0.0
C2601 C 0.73787 0.82305 0.55494 0.0
C2602 C 0.63578 0.70646 0.5968 0.0
C2603 C 0.64607 0.72566 0.59368 0.0
C2604 C 0.69943 0.74657 0.58461 0.0
C2605 C 0.70748 0.80224 0.56548 0.0
C2606 C 0.69854 0.78407 0.57696 0.0
C2607 C 0.66758 0.7279 0.5987 0.0
C2608 C 0.67897 0.74759 0.59312 0.0
H2609 H 0.69458 0.83552 0.52542 0.0
H2610 H 0.67872 0.80881 0.54816 0.0
H2611 H 0.72448 0.76318 0.56932 0.0
H2612 H 0.67696 0.67821 0.61683 0.0
H2613 H 0.69483 0.71192 0.61191 0.0
C2614 C 0.23486 0.68509 0.44663 0.0
C2615 C 0.22293 0.66771 0.4534 0.0
C2616 C 0.22571 0.70055 0.43391 0.0
C2617 C 0.17363 0.72284 0.42305 0.0
H2618 H 0.20414 0.75603 0.3817 0.0
C2619 C 0.13613 0.79584 0.38576 0.0
C2620 C 0.14871 0.8141 0.38665 0.0
C2621 C 0.145 0.77601 0.38916 0.0
C2622 C 0.19545 0.74686 0.3932 0.0
H2623 H 0.1926 0.65204 0.45114 0.0
H2624 H 0.1767 0.67882 0.42858 0.0
H2625 H 0.22016 0.724 0.39605 0.0
H2626 H 0.18068 0.82576 0.39057 0.0
H2627 H 0.1961 0.79112 0.39688 0.0
H2628 H 0.14922 0.74588 0.42072 0.0
C2629 C 0.19296 0.6808 0.43349 0.0
C2630 C 0.2046 0.72857 0.40141 0.0
C2631 C 0.20206 0.66545 0.44635 0.0
C2632 C 0.17053 0.81201 0.38996 0.0
C2633 C 0.17941 0.79215 0.39338 0.0
C2634 C 0.16449 0.74103 0.4148 0.0
C2635 C 0.2045 0.69881 0.42761 0.0
C2636 C 0.19395 0.71662 0.41676 0.0
C2637 C 0.16663 0.77402 0.39351 0.0
C2638 C 0.17547 0.75346 0.40012 0.0
H2639 H 0.25102 0.68719 0.45182 0.0
H2640 H 0.23497 0.71433 0.42987 0.0
H2641 H 0.16515 0.71425 0.43512 0.0
H2642 H 0.11931 0.79686 0.38292 0.0
H2643 H 0.13485 0.76226 0.38884 0.0
C2644 C 0.56548 0.98485 0.69966 0.0
C2645 C 0.58298 0.97311 0.70644 0.0
C2646 C 0.54955 0.97524 0.68786 0.0
C2647 C 0.52564 0.92346 0.68085 0.0
H2648 H 0.49352 0.95158 0.63703 0.0
C2649 C 0.45025 0.8865 0.64639 0.0
C2650 C 0.43294 0.90026 0.64488 0.0
C2651 C 0.47049 0.89441 0.65002 0.0
C2652 C 0.50233 0.94355 0.64928 0.0
H2653 H 0.59821 0.94249 0.70526 0.0
H2654 H 0.57038 0.92571 0.68454 0.0
H2655 H 0.52619 0.9675 0.64995 0.0
H2656 H 0.4234 0.93317 0.64536 0.0
H2657 H 0.45857 0.94687 0.65213 0.0
H2658 H 0.50151 0.89994 0.68081 0.0
C2659 C 0.56885 0.94225 0.68859 0.0
C2660 C 0.52102 0.95265 0.65663 0.0
C2661 C 0.58479 0.95187 0.70038 0.0
C2662 C 0.43637 0.92212 0.64653 0.0
C2663 C 0.45658 0.93 0.6502 0.0
C2664 C 0.50697 0.91441 0.67355 0.0
C2665 C 0.55085 0.95371 0.68264 0.0
C2666 C 0.53261 0.9429 0.67281 0.0
C2667 C 0.47382 0.91623 0.65222 0.0
C2668 C 0.49487 0.92459 0.65802 0.0
H2669 H 0.56372 0.00127 0.70408 0.0
H2670 H 0.53576 0.98442 0.68369 0.0
H2671 H 0.53407 0.91573 0.69355 0.0
H2672 H 0.44817 0.86959 0.64494 0.0
H2673 H 0.48352 0.88343 0.65124 0.0
C2674 C 0.28147 0.33593 0.93385 0.0
C2675 C 0.28561 0.33819 0.95553 0.0
C2676 C 0.29013 0.31907 0.92258 0.0
C2677 C 0.30544 0.26513 0.9316 0.0
H2678 H 0.33543 0.26759 0.87832 0.0
C2679 C 0.32821 0.18972 0.88825 0.0
C2680 C 0.34988 0.18819 0.88388 0.0
C2681 C 0.31927 0.20916 0.89334 0.0
C2682 C 0.32697 0.26675 0.89314 0.0
H2683 H 0.3029 0.32541 0.98217 0.0
H2684 H 0.31778 0.29589 0.96253 0.0
H2685 H 0.32321 0.30039 0.89506 0.0
H2686 H 0.37884 0.20606 0.87984 0.0
H2687 H 0.36314 0.24003 0.88888 0.0
H2688 H 0.30926 0.23171 0.93 0.0
C2689 C 0.3078 0.30708 0.95432 0.0
C2690 C 0.31998 0.28542 0.90263 0.0
C2691 C 0.29936 0.32399 0.9655 0.0
C2692 C 0.36214 0.20669 0.88337 0.0
C2693 C 0.35314 0.22616 0.88836 0.0
C2694 C 0.31215 0.24655 0.92204 0.0
C2695 C 0.30282 0.30418 0.93293 0.0
C2696 C 0.30949 0.28471 0.92212 0.0
C2697 C 0.33178 0.22743 0.89402 0.0
C2698 C 0.32318 0.24719 0.90286 0.0
H2699 H 0.27097 0.34673 0.92579 0.0
H2700 H 0.28609 0.31708 0.90608 0.0
H2701 H 0.29715 0.26421 0.94652 0.0
H2702 H 0.31826 0.17582 0.88851 0.0
H2703 H 0.30268 0.20981 0.8974 0.0
C2704 C 0.42093 0.55301 0.72051 0.0
C2705 C 0.40451 0.54218 0.71029 0.0
C2706 C 0.43738 0.56174 0.70887 0.0
C2707 C 0.45502 0.57895 0.6567 0.0
H2708 H 0.50994 0.56193 0.67773 0.0
C2709 C 0.54966 0.58193 0.63478 0.0
C2710 C 0.5524 0.60374 0.63181 0.0
C2711 C 0.53006 0.57387 0.64064 0.0
C2712 C 0.49472 0.56661 0.6715 0.0
H2713 H 0.39165 0.53315 0.67985 0.0
H2714 H 0.42056 0.5486 0.65942 0.0
H2715 H 0.47826 0.55038 0.69597 0.0
H2716 H 0.5363 0.63396 0.63096 0.0
H2717 H 0.50208 0.61982 0.64141 0.0
H2718 H 0.47173 0.59543 0.6323 0.0
C2719 C 0.42064 0.55023 0.67644 0.0
C2720 C 0.47662 0.56023 0.6821 0.0
C2721 C 0.40417 0.54136 0.68812 0.0
C2722 C 0.53476 0.61711 0.63333 0.0
C2723 C 0.51512 0.60901 0.63918 0.0
C2724 C 0.47325 0.58555 0.64615 0.0
C2725 C 0.43769 0.55989 0.6868 0.0
C2726 C 0.45662 0.5665 0.67496 0.0
C2727 C 0.5128 0.58743 0.64359 0.0
C2728 C 0.49326 0.57947 0.65353 0.0
H2729 H 0.42153 0.55402 0.73757 0.0
H2730 H 0.45022 0.56942 0.71719 0.0
H2731 H 0.43974 0.58394 0.6509 0.0
H2732 H 0.56284 0.57114 0.63341 0.0
H2733 H 0.52858 0.5571 0.6436 0.0
C2734 C 0.7844 0.18183 0.01668 0.0
C2735 C 0.77449 0.16477 0.02672 0.0
C2736 C 0.79109 0.19925 0.02835 0.0
C2737 C 0.8057 0.21724 0.08125 0.0
H2738 H 0.79272 0.27239 0.05813 0.0
C2739 C 0.8487 0.29372 0.10496 0.0
C2740 C 0.83713 0.31262 0.10567 0.0
C2741 C 0.83906 0.27493 0.0987 0.0
C2742 C 0.7962 0.25713 0.06498 0.0
H2743 H 0.7644 0.15217 0.05688 0.0
H2744 H 0.77629 0.18271 0.07737 0.0
H2745 H 0.78021 0.24082 0.04012 0.0
H2746 H 0.80602 0.32637 0.10164 0.0
H2747 H 0.7892 0.29349 0.09068 0.0
H2748 H 0.82195 0.23365 0.106 0.0
C2749 C 0.77882 0.18255 0.06047 0.0
C2750 C 0.78927 0.23906 0.05452 0.0
C2751 C 0.772 0.16513 0.04875 0.0
C2752 C 0.81544 0.31212 0.10105 0.0
C2753 C 0.80581 0.29333 0.09472 0.0
C2754 C 0.81275 0.23536 0.09169 0.0
C2755 C 0.78809 0.19992 0.0503 0.0
C2756 C 0.79427 0.21895 0.06233 0.0
C2757 C 0.81765 0.27466 0.09301 0.0
C2758 C 0.80832 0.25547 0.08347 0.0
H2759 H 0.78658 0.18196 -0.00027 0.0
H2760 H 0.79853 0.21228 0.02017 0.0
H2761 H 0.80978 0.2019 0.08759 0.0
H2762 H 0.8654 0.29351 0.1086 0.0
H2763 H 0.84863 0.26084 0.09737 0.0
C2764 C 0.59082 0.04351 0.80461 0.0
C2765 C 0.58753 0.02301 0.79686 0.0
C2766 C 0.57576 0.05307 0.81751 0.0
C2767 C 0.52638 0.04339 0.8478 0.0
H2768 H 0.51115 0.09872 0.82664 0.0
C2769 C 0.44267 0.07758 0.85311 0.0
C2770 C 0.44019 0.09945 0.85578 0.0
C2771 C 0.46277 0.06884 0.85108 0.0
C2772 C 0.5154 0.08349 0.83312 0.0
H2773 H 0.56669 0.99587 0.7976 0.0
H2774 H 0.54021 0.01264 0.81972 0.0
H2775 H 0.54341 0.08213 0.81454 0.0
H2776 H 0.45688 0.12915 0.85962 0.0
H2777 H 0.49193 0.11384 0.85616 0.0
H2778 H 0.49775 0.0445 0.8657 0.0
C2779 C 0.55449 0.02131 0.81611 0.0
C2780 C 0.53396 0.07398 0.82619 0.0
C2781 C 0.56958 0.01174 0.80328 0.0
C2782 C 0.45823 0.11228 0.85724 0.0
C2783 C 0.47832 0.10352 0.85527 0.0
C2784 C 0.50776 0.05293 0.85472 0.0
C2785 C 0.55711 0.0423 0.82281 0.0
C2786 C 0.53936 0.05359 0.83301 0.0
C2787 C 0.48078 0.08177 0.85177 0.0
C2788 C 0.50183 0.07284 0.847 0.0
H2789 H 0.60465 0.05247 0.80008 0.0
H2790 H 0.57836 0.06914 0.82273 0.0
H2791 H 0.5303 0.02779 0.85356 0.0
H2792 H 0.4291 0.06724 0.85206 0.0
H2793 H 0.46413 0.05205 0.84814 0.0
C2794 C 0.91135 0.9734 0.30759 0.0
C2795 C 0.91007 0.97065 0.28563 0.0
C2796 C 0.92725 0.96346 0.31915 0.0
C2797 C 0.96687 0.92079 0.31664 0.0
H2798 H -0.00112 0.95647 0.35483 0.0
C2799 C 0.05557 0.92379 0.35228 0.0
C2800 C 0.05813 0.90248 0.3578 0.0
C2801 C 0.03563 0.93163 0.34716 0.0
C2802 C 0.99006 0.94632 0.34425 0.0
H2803 H 0.92382 0.95477 0.25862 0.0
H2804 H 0.95159 0.93748 0.27876 0.0
H2805 H 0.96691 0.97013 0.33825 0.0
H2806 H 0.04158 0.87305 0.36368 0.0
H2807 H 0.00683 0.88681 0.35494 0.0
H2808 H 0.99046 0.89732 0.32185 0.0
C2809 C 0.94026 0.94717 0.2871 0.0
C2810 C 0.97165 0.95404 0.33494 0.0
C2811 C 0.92443 0.95716 0.27554 0.0
C2812 C 0.0402 0.88947 0.35918 0.0
C2813 C 0.02029 0.89732 0.35412 0.0
C2814 C 0.98524 0.91307 0.32596 0.0
C2815 C 0.94206 0.95051 0.30896 0.0
C2816 C 0.96012 0.94149 0.32071 0.0
C2817 C 0.01786 0.91833 0.34756 0.0
C2818 C -0.00276 0.92588 0.33955 0.0
H2819 H 0.90043 0.98369 0.31577 0.0
H2820 H 0.92814 0.96612 0.33602 0.0
H2821 H 0.95818 0.9107 0.3059 0.0
H2822 H 0.06905 0.93424 0.35115 0.0
H2823 H 0.03429 0.94786 0.34199 0.0
C2824 C 0.44971 0.2924 0.16972 0.0
C2825 C 0.45205 0.27051 0.16715 0.0
C2826 C 0.43652 0.30042 0.18539 0.0
C2827 C 0.41711 0.28601 0.23727 0.0
H2828 H 0.38455 0.33756 0.23219 0.0
C2829 C 0.3815 0.32481 0.31045 0.0
C2830 C 0.38504 0.34664 0.31222 0.0
C2831 C 0.38446 0.31453 0.29122 0.0
C2832 C 0.39361 0.32317 0.23385 0.0
H2833 H 0.44162 0.23984 0.17813 0.0
H2834 H 0.41853 0.2539 0.20561 0.0
H2835 H 0.39912 0.32097 0.20056 0.0
H2836 H 0.3934 0.37499 0.29501 0.0
H2837 H 0.3992 0.35695 0.26155 0.0
H2838 H 0.41255 0.28858 0.2705 0.0
C2839 C 0.42706 0.26482 0.19561 0.0
C2840 C 0.40189 0.31366 0.21576 0.0
C2841 C 0.44022 0.25679 0.17988 0.0
C2842 C 0.39062 0.35814 0.29414 0.0
C2843 C 0.39378 0.34781 0.27492 0.0
C2844 C 0.40894 0.29553 0.25532 0.0
C2845 C 0.42545 0.28671 0.19882 0.0
C2846 C 0.4141 0.29524 0.21736 0.0
C2847 C 0.39122 0.32581 0.27338 0.0
C2848 C 0.39748 0.31447 0.25388 0.0
H2849 H 0.45858 0.30335 0.16006 0.0
H2850 H 0.43579 0.31736 0.18763 0.0
H2851 H 0.42674 0.27201 0.23906 0.0
H2852 H 0.37681 0.31558 0.32404 0.0
H2853 H 0.38191 0.29764 0.29045 0.0
C2854 C 0.44743 0.69943 0.90973 0.0
C2855 C 0.46812 0.70713 0.91164 0.0
C2856 C 0.43851 0.68747 0.92589 0.0
C2857 C 0.45002 0.6592 0.97598 0.0
H2858 H 0.39498 0.68049 0.99203 0.0
C2859 C 0.41571 0.6513 0.05985 0.0
C2860 C 0.39384 0.64839 0.06201 0.0
C2861 C 0.42461 0.6544 0.03994 0.0
C2862 C 0.41015 0.67402 0.98758 0.0
H2863 H 0.49618 0.70728 0.93123 0.0
H2864 H 0.48048 0.68672 0.95965 0.0
H2865 H 0.41099 0.69234 0.95938 0.0
H2866 H 0.36431 0.64532 0.04489 0.0
H2867 H 0.37988 0.65054 0.0102 0.0
H2868 H 0.44934 0.64135 0.00467 0.0
C2869 C 0.47121 0.68969 0.94561 0.0
C2870 C 0.41934 0.6808 0.96882 0.0
C2871 C 0.48016 0.70158 0.92938 0.0
C2872 C 0.38118 0.64786 0.0438 0.0
C2873 C 0.39008 0.65087 0.02392 0.0
C2874 C 0.4408 0.65238 0.99481 0.0
C2875 C 0.45007 0.68308 0.94431 0.0
C2876 C 0.43951 0.67375 0.96296 0.0
C2877 C 0.41184 0.65454 0.0218 0.0
C2878 C 0.42091 0.66001 0.00096 0.0
H2879 H 0.43786 0.7033 0.8961 0.0
H2880 H 0.42231 0.68226 0.92428 0.0
H2881 H 0.46549 0.65332 0.97175 0.0
H2882 H 0.42592 0.65168 0.07356 0.0
H2883 H 0.4414 0.65742 0.03886 0.0
C2884 C 0.04967 0.74199 0.68276 0.0
C2885 C 0.04025 0.72801 0.66836 0.0
C2886 C 0.06153 0.73424 0.69965 0.0
C2887 C 0.08768 0.68628 0.7207 0.0
H2888 H 0.07159 0.70956 0.77495 0.0
C2889 C 0.09713 0.64147 0.79921 0.0
C2890 C 0.10169 0.65311 0.81754 0.0
C2891 C 0.09389 0.65177 0.78 0.0
C2892 C 0.07663 0.70313 0.75994 0.0
H2893 H 0.0366 0.69509 0.65967 0.0
H2894 H 0.05705 0.68157 0.68923 0.0
H2895 H 0.05867 0.72588 0.74279 0.0
H2896 H 0.10775 0.68453 0.82985 0.0
H2897 H 0.10234 0.70241 0.79632 0.0
H2898 H 0.10517 0.66312 0.73799 0.0
C2899 C 0.0555 0.6985 0.68742 0.0
C2900 C 0.06922 0.71251 0.74148 0.0
C2901 C 0.04364 0.70623 0.67058 0.0
C2902 C 0.10392 0.67513 0.81607 0.0
C2903 C 0.10078 0.68539 0.79688 0.0
C2904 C 0.09514 0.6769 0.7392 0.0
C2905 C 0.06419 0.71239 0.70239 0.0
C2906 C 0.07432 0.70395 0.72169 0.0
C2907 C 0.09526 0.67389 0.77874 0.0
C2908 C 0.08935 0.68499 0.75902 0.0
H2909 H 0.04741 0.75887 0.68133 0.0
H2910 H 0.06826 0.74533 0.71081 0.0
H2911 H 0.09208 0.67951 0.70563 0.0
H2912 H 0.09538 0.62448 0.7998 0.0
H2913 H 0.08945 0.64247 0.76635 0.0
C2914 C 0.01445 0.31215 0.41498 0.0
C2915 C 0.02801 0.29631 0.40753 0.0
C2916 C 0.0213 0.3263 0.43048 0.0
C2917 C 0.06941 0.34331 0.46046 0.0
H2918 H 0.02902 0.35313 0.50525 0.0
C2919 C 0.0695 0.35309 0.55584 0.0
C2920 C 0.08828 0.36453 0.55828 0.0
C2921 C 0.0606 0.35046 0.53586 0.0
C2922 C 0.04056 0.35045 0.49295 0.0
H2923 H 0.05951 0.28322 0.40978 0.0
H2924 H 0.07116 0.30709 0.43731 0.0
H2925 H 0.01726 0.3375 0.47235 0.0
H2926 H 0.11168 0.38357 0.54225 0.0
H2927 H 0.09564 0.37989 0.50747 0.0
H2928 H 0.09304 0.35432 0.48168 0.0
C2929 C 0.05547 0.30921 0.4309 0.0
C2930 C 0.03372 0.34181 0.47386 0.0
C2931 C 0.04873 0.29533 0.41521 0.0
C2932 C 0.09738 0.37433 0.54066 0.0
C2933 C 0.08821 0.37213 0.52074 0.0
C2934 C 0.07632 0.3515 0.47969 0.0
C2935 C 0.04173 0.32464 0.43903 0.0
C2936 C 0.0482 0.33742 0.45764 0.0
C2937 C 0.07004 0.35965 0.51797 0.0
C2938 C 0.0621 0.35449 0.49646 0.0
H2939 H -0.00156 0.31335 0.40913 0.0
H2940 H 0.01042 0.33822 0.43606 0.0
H2941 H 0.08092 0.34073 0.44811 0.0
H2942 H 0.06221 0.34534 0.56921 0.0
H2943 H 0.04686 0.34041 0.53443 0.0
C2944 C 0.44183 0.69842 0.33967 0.0
C2945 C 0.45025 0.71867 0.33648 0.0
C2946 C 0.42798 0.68965 0.32491 0.0
C2947 C 0.39473 0.70194 0.27832 0.0
H2948 H 0.41315 0.64703 0.25859 0.0
C2949 C 0.38269 0.67359 0.19343 0.0
C2950 C 0.37986 0.65198 0.18931 0.0
C2951 C 0.38603 0.68073 0.21398 0.0
C2952 C 0.4074 0.66212 0.26415 0.0
H2953 H 0.44992 0.74612 0.31609 0.0
H2954 H 0.42588 0.7308 0.29028 0.0
H2955 H 0.42815 0.66164 0.29074 0.0
H2956 H 0.37708 0.62104 0.20372 0.0
H2957 H 0.38278 0.63358 0.23969 0.0
H2958 H 0.37451 0.70271 0.25126 0.0
C2959 C 0.42982 0.72172 0.30421 0.0
C2960 C 0.41602 0.67051 0.28261 0.0
C2961 C 0.44373 0.73044 0.3189 0.0
C2962 C 0.37948 0.63777 0.20633 0.0
C2963 C 0.38277 0.64493 0.22693 0.0
C2964 C 0.38603 0.69351 0.25989 0.0
C2965 C 0.42223 0.70104 0.30679 0.0
C2966 C 0.41027 0.69078 0.2895 0.0
C2967 C 0.3865 0.66644 0.23092 0.0
C2968 C 0.39281 0.67381 0.25224 0.0
H2969 H 0.44652 0.68904 0.35316 0.0
H2970 H 0.4222 0.67375 0.32738 0.0
H2971 H 0.38978 0.71747 0.28347 0.0
H2972 H 0.38295 0.685 0.18071 0.0
H2973 H 0.38914 0.69736 0.21645 0.0
C2974 C 0.00487 0.70598 0.06696 0.0
C2975 C 0.0148 0.70999 0.08636 0.0
C2976 C 0.01399 0.69224 0.05241 0.0
C2977 C 0.06514 0.67371 0.03545 0.0
H2978 H 0.03213 0.63559 0.00065 0.0
C2979 C 0.10094 0.63539 0.96164 0.0
C2980 C 0.0883 0.637 0.94348 0.0
C2981 C 0.09235 0.63902 0.9816 0.0
C2982 C 0.04156 0.64617 0.01024 0.0
H2983 H 0.04172 0.7024 0.10607 0.0
H2984 H 0.0579 0.67852 0.08035 0.0
H2985 H 0.01608 0.65193 0.03163 0.0
H2986 H 0.05649 0.64264 0.93209 0.0
H2987 H 0.04167 0.64948 0.96673 0.0
H2988 H 0.09026 0.66896 0.01354 0.0
C2989 C 0.04303 0.68601 0.0765 0.0
C2990 C 0.03239 0.65545 0.02798 0.0
C2991 C 0.03378 0.69962 0.09118 0.0
C2992 C 0.0667 0.64137 0.94575 0.0
C2993 C 0.05815 0.6451 0.96567 0.0
C2994 C 0.07427 0.66455 0.01764 0.0
C2995 C 0.0333 0.68237 0.0569 0.0
C2996 C 0.04392 0.66979 0.04037 0.0
C2997 C 0.07096 0.6444 0.98378 0.0
C2998 C 0.06238 0.65119 0.00447 0.0
H2999 H 0.99019 0.71371 0.06286 0.0
H3000 H 0.00629 0.68997 0.0373 0.0
H3001 H 0.07433 0.68486 0.04462 0.0
H3002 H 0.11759 0.63176 0.96044 0.0
H3003 H 0.10256 0.63803 0.99528 0.0
C3004 C 0.04299 0.263 0.81069 0.0
C3005 C 0.03604 0.27482 0.82809 0.0
C3006 C 0.05617 0.27215 0.79561 0.0
C3007 C 0.06847 0.32426 0.77407 0.0
H3008 H 0.1105 0.29345 0.74204 0.0
C3009 C 0.10764 0.36166 0.70201 0.0
C3010 C 0.10714 0.34902 0.68377 0.0
C3011 C 0.10392 0.35282 0.72181 0.0
C3012 C 0.09882 0.30224 0.75088 0.0
H3013 H 0.03836 0.30499 0.84411 0.0
H3014 H 0.06165 0.32087 0.81796 0.0
H3015 H 0.09488 0.27738 0.77342 0.0
H3016 H 0.1037 0.31695 0.67217 0.0
H3017 H 0.09684 0.30161 0.70668 0.0
H3018 H 0.07183 0.3488 0.7513 0.0
C3019 C 0.05657 0.3047 0.8157 0.0
C3020 C 0.08987 0.29305 0.76881 0.0
C3021 C 0.0433 0.29559 0.8307 0.0
C3022 C 0.10404 0.32716 0.68589 0.0
C3023 C 0.10027 0.31833 0.7057 0.0
C3024 C 0.07743 0.33343 0.75623 0.0
C3025 C 0.06273 0.29325 0.79772 0.0
C3026 C 0.07427 0.3038 0.78033 0.0
C3027 C 0.09961 0.33116 0.72379 0.0
C3028 C 0.09236 0.32236 0.74418 0.0
H3029 H 0.03766 0.24692 0.80832 0.0
H3030 H 0.06042 0.26296 0.78184 0.0
H3031 H 0.05624 0.33284 0.78235 0.0
H3032 H 0.11031 0.37852 0.70096 0.0
H3033 H 0.10386 0.36304 0.73552 0.0
C3034 C 0.4587 0.31181 0.5879 0.0
C3035 C 0.47798 0.30171 0.58382 0.0
C3036 C 0.44982 0.32526 0.5729 0.0
C3037 C 0.4602 0.3534 0.52251 0.0
H3038 H 0.40256 0.33736 0.50967 0.0
C3039 C 0.42386 0.3601 0.43982 0.0
C3040 C 0.40215 0.36403 0.43784 0.0
C3041 C 0.43305 0.35807 0.45974 0.0
C3042 C 0.41847 0.34246 0.51326 0.0
H3043 H 0.50376 0.29875 0.56155 0.0
H3044 H 0.48815 0.32195 0.53526 0.0
H3045 H 0.41911 0.32436 0.54162 0.0
H3046 H 0.37331 0.37035 0.45517 0.0
H3047 H 0.38942 0.36702 0.48991 0.0
H3048 H 0.45973 0.37087 0.49361 0.0
C3049 C 0.47995 0.3197 0.55008 0.0
C3050 C 0.42797 0.335 0.53163 0.0
C3051 C 0.48882 0.30625 0.56506 0.0
C3052 C 0.39002 0.36694 0.45617 0.0
C3053 C 0.39924 0.36503 0.47607 0.0
C3054 C 0.45066 0.36092 0.50412 0.0
C3055 C 0.46007 0.32885 0.55358 0.0
C3056 C 0.44912 0.33988 0.53614 0.0
C3057 C 0.42075 0.36008 0.47808 0.0
C3058 C 0.42989 0.35501 0.499 0.0
H3059 H 0.4501 0.30872 0.60234 0.0
H3060 H 0.4346 0.33232 0.57612 0.0
H3061 H 0.47644 0.35764 0.52575 0.0
H3062 H 0.43367 0.35789 0.426 0.0
H3063 H 0.44962 0.354 0.46072 0.0
C3064 C 0.18089 0.43718 0.25998 0.0
C3065 C 0.16273 0.44358 0.27089 0.0
C3066 C 0.19604 0.42474 0.26998 0.0
C3067 C 0.21635 0.41563 0.32291 0.0
H3068 H 0.2519 0.37466 0.29463 0.0
C3069 C 0.29173 0.38457 0.3622 0.0
C3070 C 0.30973 0.38525 0.34927 0.0
C3071 C 0.27162 0.38659 0.35343 0.0
C3072 C 0.24208 0.38606 0.30273 0.0
H3073 H 0.14541 0.44087 0.30026 0.0
H3074 H 0.17184 0.41898 0.3177 0.0
H3075 H 0.21968 0.38701 0.27742 0.0
H3076 H 0.32066 0.3876 0.3169 0.0
H3077 H 0.28567 0.39156 0.30171 0.0
H3078 H 0.23907 0.41544 0.34779 0.0
C3079 C 0.17452 0.42385 0.30154 0.0
C3080 C 0.22365 0.3931 0.2929 0.0
C3081 C 0.15938 0.43632 0.29155 0.0
C3082 C 0.30714 0.38714 0.32733 0.0
C3083 C 0.28704 0.3892 0.31858 0.0
C3084 C 0.23474 0.40863 0.33271 0.0
C3085 C 0.19328 0.41844 0.29107 0.0
C3086 C 0.2109 0.40838 0.30266 0.0
C3087 C 0.26909 0.38934 0.33158 0.0
C3088 C 0.24811 0.39421 0.32249 0.0
H3089 H 0.18384 0.4425 0.24401 0.0
H3090 H 0.21042 0.42102 0.26155 0.0
H3091 H 0.20704 0.42764 0.33072 0.0
H3092 H 0.29317 0.38286 0.37915 0.0
H3093 H 0.25806 0.38635 0.36381 0.0
C3094 C 0.29917 0.42627 0.03388 0.0
C3095 C 0.29362 0.42476 0.01249 0.0
C3096 C 0.31147 0.44307 0.04105 0.0
C3097 C 0.32207 0.49789 0.02793 0.0
H3098 H 0.36215 0.49401 0.07405 0.0
C3099 C 0.35457 0.57235 0.0679 0.0
C3100 C 0.35361 0.5721 0.09006 0.0
C3101 C 0.35215 0.55371 0.0564 0.0
C3102 C 0.35099 0.49532 0.06116 0.0
H3103 H 0.2975 0.43889 0.98158 0.0
H3104 H 0.31909 0.46828 0.99411 0.0
H3105 H 0.34932 0.4618 0.05709 0.0
H3106 H 0.3503 0.55199 0.11756 0.0
H3107 H 0.3456 0.51958 0.09749 0.0
H3108 H 0.32299 0.53125 0.03248 0.0
C3109 C 0.31371 0.45661 0.00537 0.0
C3110 C 0.34369 0.47691 0.05145 0.0
C3111 C 0.30141 0.43978 -0.0018 0.0
C3112 C 0.351 0.55273 0.1005 0.0
C3113 C 0.34851 0.53411 0.08899 0.0
C3114 C 0.32934 0.51625 0.03764 0.0
C3115 C 0.31845 0.45868 0.02694 0.0
C3116 C 0.32874 0.47802 0.0351 0.0
C3117 C 0.34869 0.53446 0.06681 0.0
C3118 C 0.34345 0.51514 0.05471 0.0
H3119 H 0.29344 0.41485 0.04523 0.0
H3120 H 0.31466 0.44436 0.0578 0.0
H3121 H 0.31033 0.49925 0.01557 0.0
H3122 H 0.35688 0.58698 0.05938 0.0
H3123 H 0.35267 0.55442 0.03933 0.0
C3124 C 0.30465 0.55393 0.76154 0.0
C3125 C 0.32263 0.54742 0.7727 0.0
C3126 C 0.28917 0.566 0.77152 0.0
C3127 C 0.26804 0.57501 0.82436 0.0
H3128 H 0.23404 0.61733 0.79616 0.0
C3129 C 0.19536 0.61065 0.86462 0.0
C3130 C 0.17701 0.61086 0.85215 0.0
C3131 C 0.21506 0.60728 0.85541 0.0
C3132 C 0.24341 0.60553 0.80422 0.0
H3133 H 0.33921 0.54939 0.80259 0.0
H3134 H 0.31228 0.57068 0.81996 0.0
H3135 H 0.26569 0.60369 0.7789 0.0
H3136 H 0.16507 0.60871 0.82009 0.0
H3137 H 0.19937 0.60242 0.80411 0.0
H3138 H 0.24551 0.57626 0.84934 0.0
C3139 C 0.30994 0.56614 0.80363 0.0
C3140 C 0.2615 0.59773 0.79435 0.0
C3141 C 0.32538 0.55402 0.79368 0.0
C3142 C 0.17888 0.60851 0.83018 0.0
C3143 C 0.19858 0.6051 0.82098 0.0
C3144 C 0.25 0.58279 0.8342 0.0
C3145 C 0.29144 0.57182 0.79281 0.0
C3146 C 0.27376 0.58208 0.80415 0.0
C3147 C 0.21682 0.60403 0.83354 0.0
C3148 C 0.23725 0.59781 0.82407 0.0
H3149 H 0.30215 0.54909 0.74533 0.0
H3150 H 0.27499 0.56992 0.76281 0.0
H3151 H 0.27693 0.5627 0.83219 0.0
H3152 H 0.1945 0.61269 0.88158 0.0
H3153 H 0.22889 0.60686 0.86545 0.0
C3154 C 0.1913 0.57118 0.50671 0.0
C3155 C 0.20274 0.58403 0.5207 0.0
C3156 C 0.17778 0.55562 0.51441 0.0
C3157 C 0.15075 0.53618 0.56252 0.0
H3158 H 0.15993 0.48134 0.53697 0.0
C3159 C 0.13517 0.45755 0.60514 0.0
C3160 C 0.12911 0.43991 0.59312 0.0
C3161 C 0.13927 0.47684 0.59533 0.0
C3162 C 0.15675 0.49657 0.54404 0.0
H3163 H 0.20833 0.59142 0.55365 0.0
H3164 H 0.18497 0.56399 0.56714 0.0
H3165 H 0.17598 0.51235 0.52137 0.0
H3166 H 0.12092 0.42907 0.56166 0.0
H3167 H 0.12773 0.46281 0.54461 0.0
H3168 H 0.132 0.52016 0.5856 0.0
C3169 C 0.18624 0.56608 0.55023 0.0
C3170 C 0.16599 0.51438 0.53508 0.0
C3171 C 0.19975 0.58166 0.54251 0.0
C3172 C 0.12594 0.44228 0.5713 0.0
C3173 C 0.12988 0.46159 0.56153 0.0
C3174 C 0.14144 0.51832 0.57149 0.0
C3175 C 0.17547 0.5526 0.53626 0.0
C3176 C 0.16346 0.53431 0.54445 0.0
C3177 C 0.13722 0.4789 0.57333 0.0
C3178 C 0.1447 0.49826 0.56257 0.0
H3179 H 0.19315 0.57281 0.48979 0.0
H3180 H 0.16945 0.54565 0.50327 0.0
H3181 H 0.14832 0.5514 0.56992 0.0
H3182 H 0.13768 0.45625 0.622 0.0
H3183 H 0.14508 0.4898 0.60486 0.0
C3184 C 0.15926 0.54449 0.20072 0.0
C3185 C 0.1628 0.53626 0.22097 0.0
C3186 C 0.17353 0.55873 0.19187 0.0
C3187 C 0.21912 0.59349 0.20429 0.0
H3188 H 0.23666 0.57908 0.14748 0.0
C3189 C 0.30116 0.61228 0.17097 0.0
C3190 C 0.30322 0.61678 0.14935 0.0
C3191 C 0.28149 0.6073 0.17947 0.0
C3192 C 0.23168 0.58367 0.16317 0.0
H3193 H 0.18352 0.53703 0.24821 0.0
H3194 H 0.20864 0.56156 0.23265 0.0
H3195 H 0.20639 0.5614 0.1629 0.0
H3196 H 0.28601 0.62094 0.12001 0.0
H3197 H 0.25165 0.61231 0.13493 0.0
H3198 H 0.24503 0.6152 0.20476 0.0
C3199 C 0.19471 0.55729 0.22368 0.0
C3200 C 0.2143 0.57352 0.17203 0.0
C3201 C 0.18042 0.54309 0.23254 0.0
C3202 C 0.28501 0.61729 0.13667 0.0
C3203 C 0.26534 0.61231 0.14519 0.0
C3204 C 0.23655 0.60365 0.19542 0.0
C3205 C 0.19162 0.56497 0.20311 0.0
C3206 C 0.20816 0.57793 0.19286 0.0
C3207 C 0.26346 0.60676 0.16656 0.0
C3208 C 0.2433 0.59845 0.17496 0.0
H3209 H 0.14568 0.53961 0.19152 0.0
H3210 H 0.17059 0.56459 0.17609 0.0
H3211 H 0.21453 0.59747 0.22027 0.0
H3212 H 0.31484 0.6119 0.18122 0.0
H3213 H 0.2806 0.60289 0.19596 0.0
C3214 C 0.1887 0.42827 0.98866 0.0
C3215 C 0.20018 0.41661 0.97374 0.0
C3216 C 0.174 0.44329 0.98208 0.0
C3217 C 0.14477 0.46378 0.93556 0.0
H3218 H 0.15515 0.51804 0.96192 0.0
C3219 C 0.13094 0.54307 0.89398 0.0
C3220 C 0.12564 0.56082 0.90616 0.0
C3221 C 0.13437 0.52358 0.90364 0.0
C3222 C 0.15159 0.50297 0.95466 0.0
H3223 H 0.20443 0.41047 0.94035 0.0
H3224 H 0.17905 0.4369 0.92884 0.0
H3225 H 0.17109 0.48661 0.97667 0.0
H3226 H 0.11807 0.57173 0.93773 0.0
H3227 H 0.1237 0.53765 0.95451 0.0
H3228 H 0.12585 0.48043 0.91305 0.0
C3229 C 0.18119 0.43435 0.94561 0.0
C3230 C 0.16076 0.48491 0.96315 0.0
C3231 C 0.19587 0.41933 0.95219 0.0
C3232 C 0.12254 0.55842 0.92798 0.0
C3233 C 0.12578 0.53891 0.9376 0.0
C3234 C 0.13551 0.4819 0.92708 0.0
C3235 C 0.17055 0.44689 0.96048 0.0
C3236 C 0.15793 0.46521 0.95337 0.0
C3237 C 0.13236 0.52143 0.92564 0.0
C3238 C 0.13931 0.50177 0.93623 0.0
H3239 H 0.19156 0.42633 0.0054 0.0
H3240 H 0.16582 0.45254 0.99389 0.0
H3241 H 0.1421 0.44874 0.92786 0.0
H3242 H 0.13336 0.54441 0.87712 0.0
H3243 H 0.13963 0.5105 0.89399 0.0
C3244 C 0.30939 0.44941 0.73158 0.0
C3245 C 0.32646 0.45752 0.72006 0.0
C3246 C 0.29473 0.43613 0.72186 0.0
C3247 C 0.27305 0.4264 0.66938 0.0
H3248 H 0.24152 0.38261 0.6982 0.0
C3249 C 0.19935 0.38992 0.63172 0.0
C3250 C 0.18161 0.3896 0.645 0.0
C3251 C 0.21948 0.39317 0.64007 0.0
C3252 C 0.25023 0.39478 0.68995 0.0
H3253 H 0.34248 0.45701 0.68985 0.0
H3254 H 0.31702 0.43356 0.67294 0.0
H3255 H 0.27328 0.3972 0.71457 0.0
H3256 H 0.17122 0.39126 0.6776 0.0
H3257 H 0.20626 0.39731 0.69209 0.0
H3258 H 0.24969 0.4246 0.64516 0.0
C3259 C 0.31471 0.4378 0.68934 0.0
C3260 C 0.26838 0.40312 0.69931 0.0
C3261 C 0.32931 0.45117 0.69902 0.0
C3262 C 0.18453 0.39159 0.66691 0.0
C3263 C 0.20465 0.39485 0.67524 0.0
C3264 C 0.25496 0.41805 0.66003 0.0
C3265 C 0.29694 0.43063 0.70047 0.0
C3266 C 0.27966 0.41941 0.68936 0.0
C3267 C 0.22227 0.39613 0.66187 0.0
C3268 C 0.24305 0.40255 0.67046 0.0
H3269 H 0.30685 0.45401 0.74785 0.0
H3270 H 0.2811 0.43107 0.73083 0.0
H3271 H 0.28116 0.43916 0.66143 0.0
H3272 H 0.19768 0.38815 0.61479 0.0
H3273 H 0.23281 0.39379 0.62941 0.0
C3274 C 0.296 0.58149 0.45349 0.0
C3275 C 0.29283 0.58385 0.47529 0.0
C3276 C 0.30911 0.56557 0.44582 0.0
C3277 C 0.32718 0.51318 0.46085 0.0
H3278 H 0.36127 0.51768 0.41026 0.0
C3279 C 0.36434 0.43976 0.42409 0.0
C3280 C 0.36105 0.43754 0.40227 0.0
C3281 C 0.36102 0.45913 0.43398 0.0
C3282 C 0.3518 0.5162 0.42439 0.0
H3283 H 0.30177 0.5723 0.50623 0.0
H3284 H 0.32481 0.54452 0.49282 0.0
H3285 H 0.34647 0.54954 0.42622 0.0
H3286 H 0.35282 0.45415 0.3735 0.0
H3287 H 0.3465 0.48788 0.39085 0.0
H3288 H 0.33171 0.47991 0.45869 0.0
C3289 C 0.31692 0.55478 0.48166 0.0
C3290 C 0.34336 0.53442 0.43353 0.0
C3291 C 0.30378 0.57069 0.48933 0.0
C3292 C 0.35539 0.45534 0.39036 0.0
C3293 C 0.35192 0.47472 0.40029 0.0
C3294 C 0.33556 0.49503 0.45173 0.0
C3295 C 0.31931 0.55173 0.45982 0.0
C3296 C 0.33061 0.53302 0.45161 0.0
C3297 C 0.35421 0.47667 0.42228 0.0
C3298 C 0.3476 0.49628 0.43317 0.0
H3299 H 0.2878 0.59148 0.44231 0.0
H3300 H 0.31045 0.56348 0.42891 0.0
H3301 H 0.31712 0.51152 0.47456 0.0
H3302 H 0.36907 0.42641 0.43366 0.0
H3303 H 0.36331 0.46025 0.45089 0.0
C3304 C 0.26942 0.16842 0.43252 0.0
C3305 C 0.28054 0.16185 0.45051 0.0
C3306 C 0.27828 0.18322 0.41878 0.0
C3307 C 0.32815 0.21329 0.40801 0.0
H3308 H 0.28904 0.25718 0.39134 0.0
C3309 C 0.32784 0.30845 0.39662 0.0
C3310 C 0.34774 0.31132 0.38741 0.0
C3311 C 0.31931 0.28828 0.39859 0.0
C3312 C 0.30022 0.24512 0.39595 0.0
H3313 H 0.30988 0.16478 0.46784 0.0
H3314 H 0.32491 0.19113 0.44466 0.0
H3315 H 0.27555 0.22445 0.40567 0.0
H3316 H 0.37381 0.29561 0.37187 0.0
H3317 H 0.35857 0.26035 0.37458 0.0
H3318 H 0.35285 0.23474 0.40021 0.0
C3319 C 0.30967 0.18457 0.44058 0.0
C3320 C 0.29244 0.22611 0.40384 0.0
C3321 C 0.30097 0.16957 0.45406 0.0
C3322 C 0.35858 0.29375 0.37938 0.0
C3323 C 0.34985 0.27357 0.38098 0.0
C3324 C 0.33593 0.23248 0.40055 0.0
C3325 C 0.29827 0.19196 0.42301 0.0
C3326 C 0.30634 0.21025 0.41073 0.0
C3327 C 0.33028 0.27052 0.391 0.0
C3328 C 0.32206 0.24894 0.39519 0.0
H3329 H 0.25371 0.1625 0.42931 0.0
H3330 H 0.26922 0.18819 0.40518 0.0
H3331 H 0.33932 0.2012 0.41257 0.0
H3332 H 0.31915 0.32172 0.40299 0.0
H3333 H 0.30445 0.28662 0.40682 0.0
C3334 C 0.78718 0.33976 0.56394 0.0
C3335 C 0.7678 0.33549 0.55407 0.0
C3336 C 0.79611 0.32506 0.57769 0.0
C3337 C 0.78623 0.27452 0.60602 0.0
H3338 H 0.84347 0.26195 0.58856 0.0
C3339 C 0.82184 0.19153 0.6082 0.0
C3340 C 0.84362 0.18912 0.61155 0.0
C3341 C 0.81285 0.21161 0.60755 0.0
C3342 C 0.82769 0.26546 0.59409 0.0
H3343 H 0.74179 0.31335 0.55197 0.0
H3344 H 0.75751 0.28753 0.57558 0.0
H3345 H 0.82679 0.29417 0.5766 0.0
H3346 H 0.87279 0.20579 0.61831 0.0
H3347 H 0.85703 0.24083 0.61729 0.0
H3348 H 0.78693 0.24516 0.62272 0.0
C3349 C 0.76576 0.30227 0.57297 0.0
C3350 C 0.81811 0.284 0.58723 0.0
C3351 C 0.75682 0.31699 0.55928 0.0
C3352 C 0.85602 0.20713 0.61532 0.0
C3353 C 0.847 0.22721 0.61476 0.0
C3354 C 0.79585 0.25593 0.61291 0.0
C3355 C 0.78583 0.30582 0.58174 0.0
C3356 C 0.79705 0.2884 0.59253 0.0
C3357 C 0.82542 0.22968 0.61036 0.0
C3358 C 0.81644 0.2509 0.60642 0.0
H3359 H 0.79588 0.35403 0.56038 0.0
H3360 H 0.81145 0.32836 0.58448 0.0
H3361 H 0.77008 0.27766 0.61061 0.0
H3362 H 0.81181 0.17796 0.6054 0.0
H3363 H 0.79622 0.21297 0.60386 0.0
C3364 C 0.43244 0.00611 0.3 0.0
C3365 C 0.41587 0.01842 0.29204 0.0
C3366 C 0.44773 0.01521 0.31305 0.0
C3367 C 0.47089 0.06733 0.32298 0.0
H3368 H 0.50212 0.03791 0.36659 0.0
C3369 C 0.54139 0.1064 0.36318 0.0
C3370 C 0.55985 0.09415 0.36317 0.0
C3371 C 0.52187 0.0971 0.3591 0.0
C3372 C 0.49348 0.04629 0.35447 0.0
H3373 H 0.40118 0.04929 0.29267 0.0
H3374 H 0.42742 0.06502 0.31594 0.0
H3375 H 0.47066 0.02153 0.35125 0.0
H3376 H 0.57217 0.06232 0.36019 0.0
H3377 H 0.53806 0.04616 0.35271 0.0
H3378 H 0.49382 0.09183 0.32578 0.0
C3379 C 0.4291 0.04857 0.31159 0.0
C3380 C 0.47553 0.03693 0.34566 0.0
C3381 C 0.41404 0.03956 0.29833 0.0
C3382 C 0.55826 0.07222 0.36011 0.0
C3383 C 0.5387 0.06293 0.35602 0.0
C3384 C 0.48868 0.0767 0.33184 0.0
C3385 C 0.4465 0.03671 0.31852 0.0
C3386 C 0.46424 0.04723 0.32958 0.0
C3387 C 0.52042 0.07538 0.35495 0.0
C3388 C 0.50034 0.06616 0.34742 0.0
H3389 H 0.43413 0.98973 0.29538 0.0
H3390 H 0.46102 0.00568 0.31796 0.0
H3391 H 0.4629 0.07553 0.3103 0.0
H3392 H 0.54202 0.12328 0.36582 0.0
H3393 H 0.50795 0.10701 0.35868 0.0
C3394 C 0.73631 0.68018 0.05553 0.0
C3395 C 0.7252 0.66194 0.04962 0.0
C3396 C 0.72724 0.69476 0.06932 0.0
C3397 C 0.6751 0.71345 0.08439 0.0
H3398 H 0.70666 0.74836 0.12361 0.0
C3399 C 0.63762 0.78731 0.11983 0.0
C3400 C 0.65006 0.80556 0.11771 0.0
C3401 C 0.64662 0.76735 0.11754 0.0
C3402 C 0.69764 0.73869 0.11275 0.0
H3403 H 0.69651 0.64392 0.05444 0.0
H3404 H 0.68072 0.66933 0.07867 0.0
H3405 H 0.72315 0.71696 0.10843 0.0
H3406 H 0.68194 0.81713 0.11295 0.0
H3407 H 0.6975 0.78238 0.10845 0.0
H3408 H 0.64997 0.73553 0.08785 0.0
C3409 C 0.69628 0.67253 0.07239 0.0
C3410 C 0.70706 0.72075 0.10408 0.0
C3411 C 0.70533 0.65798 0.05856 0.0
C3412 C 0.67188 0.8034 0.11451 0.0
C3413 C 0.68085 0.78344 0.11212 0.0
C3414 C 0.66571 0.73135 0.09302 0.0
C3415 C 0.70692 0.69132 0.07749 0.0
C3416 C 0.69608 0.70829 0.08936 0.0
C3417 C 0.66821 0.76523 0.11301 0.0
C3418 C 0.67707 0.7445 0.10683 0.0
H3419 H 0.75169 0.68358 0.04893 0.0
H3420 H 0.73574 0.7092 0.07274 0.0
H3421 H 0.66631 0.70437 0.07287 0.0
H3422 H 0.62081 0.78843 0.12265 0.0
H3423 H 0.63654 0.75358 0.11867 0.0
C3424 C 0.55725 0.4942 0.2943 0.0
C3425 C 0.57629 0.48417 0.28909 0.0
C3426 C 0.54272 0.48427 0.30751 0.0
C3427 C 0.52576 0.4315 0.3222 0.0
H3428 H 0.49088 0.46126 0.3627 0.0
C3429 C 0.45451 0.391 0.36074 0.0
C3430 C 0.43585 0.40296 0.36045 0.0
C3431 C 0.47395 0.40057 0.35673 0.0
C3432 C 0.50049 0.45274 0.35143 0.0
H3433 H 0.59551 0.45635 0.29429 0.0
H3434 H 0.57003 0.43896 0.31736 0.0
H3435 H 0.52123 0.47907 0.347 0.0
H3436 H 0.42309 0.43453 0.35672 0.0
H3437 H 0.45681 0.45105 0.34926 0.0
H3438 H 0.5046 0.40553 0.3258 0.0
C3439 C 0.56631 0.45442 0.3111 0.0
C3440 C 0.51785 0.46292 0.34248 0.0
C3441 C 0.58089 0.46439 0.29795 0.0
C3442 C 0.43714 0.42482 0.35695 0.0
C3443 C 0.45654 0.43435 0.35287 0.0
C3444 C 0.50836 0.42136 0.33105 0.0
C3445 C 0.54692 0.4641 0.3157 0.0
C3446 C 0.53035 0.45256 0.32741 0.0
C3447 C 0.47512 0.42227 0.35231 0.0
C3448 C 0.49522 0.43204 0.34537 0.0
H3449 H 0.55333 0.50947 0.28773 0.0
H3450 H 0.52781 0.49202 0.31058 0.0
H3451 H 0.53494 0.42319 0.31043 0.0
H3452 H 0.45408 0.37416 0.36364 0.0
H3453 H 0.48803 0.3909 0.35673 0.0
C3454 C 0.20301 0.83788 0.93751 0.0
C3455 C 0.22297 0.83448 0.9465 0.0
C3456 C 0.19349 0.82222 0.92528 0.0
C3457 C 0.2024 0.77077 0.8986 0.0
H3458 H 0.1458 0.75872 0.9184 0.0
C3459 C 0.16479 0.68837 0.89459 0.0
C3460 C 0.14289 0.68666 0.89156 0.0
C3461 C 0.17431 0.70815 0.89633 0.0
C3462 C 0.16139 0.76206 0.91229 0.0
H3463 H 0.24926 0.81271 0.94865 0.0
H3464 H 0.2325 0.78521 0.92758 0.0
H3465 H 0.16328 0.79089 0.92961 0.0
H3466 H 0.11398 0.70436 0.88677 0.0
H3467 H 0.13066 0.7389 0.88962 0.0
H3468 H 0.20067 0.74146 0.88183 0.0
C3469 C 0.22427 0.80002 0.92977 0.0
C3470 C 0.17143 0.78055 0.91872 0.0
C3471 C 0.23381 0.81571 0.94197 0.0
C3472 C 0.13085 0.70514 0.88944 0.0
C3473 C 0.14039 0.72493 0.89108 0.0
C3474 C 0.19231 0.75225 0.89211 0.0
C3475 C 0.20373 0.80286 0.92188 0.0
C3476 C 0.19222 0.78486 0.91236 0.0
C3477 C 0.16216 0.72664 0.89495 0.0
C3478 C 0.17189 0.74747 0.89932 0.0
H3479 H 0.19439 0.85231 0.94058 0.0
H3480 H 0.17779 0.82496 0.91911 0.0
H3481 H 0.21833 0.77383 0.89326 0.0
H3482 H 0.17455 0.67443 0.89618 0.0
H3483 H 0.19107 0.70891 0.89958 0.0
C3484 C 0.41048 0.95134 0.19148 0.0
C3485 C 0.41457 0.97107 0.20073 0.0
C3486 C 0.42509 0.94226 0.17774 0.0
C3487 C 0.47318 0.95299 0.14624 0.0
H3488 H 0.4884 0.89603 0.16247 0.0
C3489 C 0.55586 0.9185 0.13464 0.0
C3490 C 0.55824 0.89665 0.13168 0.0
C3491 C 0.53586 0.92724 0.13738 0.0
C3492 C 0.4841 0.91173 0.15729 0.0
H3493 H 0.43654 -0.00271 0.20211 0.0
H3494 H 0.46217 0.98133 0.17833 0.0
H3495 H 0.45723 0.91224 0.17756 0.0
H3496 H 0.54142 0.86709 0.12758 0.0
H3497 H 0.50647 0.88243 0.13207 0.0
H3498 H 0.50056 0.95267 0.1265 0.0
C3499 C 0.44761 0.97295 0.1815 0.0
C3500 C 0.4662 0.92104 0.16599 0.0
C3501 C 0.43303 0.98201 0.19526 0.0
C3502 C 0.54013 0.88393 0.1302 0.0
C3503 C 0.52011 0.8927 0.1328 0.0
C3504 C 0.49108 0.94362 0.13745 0.0
C3505 C 0.44401 0.95278 0.17298 0.0
C3506 C 0.46091 0.94197 0.16104 0.0
C3507 C 0.51781 0.91435 0.13705 0.0
C3508 C 0.49707 0.92311 0.14338 0.0
H3509 H 0.39628 0.94264 0.19529 0.0
H3510 H 0.42182 0.92679 0.17122 0.0
H3511 H 0.46927 0.96906 0.14193 0.0
H3512 H 0.56949 0.92877 0.13574 0.0
H3513 H 0.53469 0.94394 0.14085 0.0
C3514 C 0.05884 0.01316 0.70185 0.0
C3515 C 0.07686 0.02478 0.70744 0.0
C3516 C 0.04357 0.02195 0.68864 0.0
C3517 C 0.02272 0.07345 0.67363 0.0
H3518 H 0.99098 0.04124 0.6323 0.0
C3519 C 0.95174 0.11006 0.63161 0.0
C3520 C 0.93346 0.0975 0.63155 0.0
C3521 C 0.97134 0.10122 0.63633 0.0
C3522 C -0.0003 0.05041 0.64381 0.0
H3523 H 0.09356 0.05432 0.70293 0.0
H3524 H 0.06692 0.06966 0.67976 0.0
H3525 H 0.02184 0.02546 0.64921 0.0
H3526 H 0.9216 0.06556 0.63517 0.0
H3527 H 0.95568 0.05026 0.64387 0.0
H3528 H 0.00029 0.09808 0.66892 0.0
C3529 C 0.06446 0.05386 0.68581 0.0
C3530 C 0.01734 0.04139 0.65347 0.0
C3531 C 0.07972 0.04507 0.69902 0.0
C3532 C 0.93536 0.07571 0.6352 0.0
C3533 C 0.95494 0.06689 0.64003 0.0
C3534 C 0.0051 0.08243 0.66403 0.0
C3535 C 0.04606 0.04254 0.68077 0.0
C3536 C 0.02879 0.0527 0.66876 0.0
C3537 C 0.97305 0.07966 0.64118 0.0
C3538 C 0.99315 0.07089 0.64931 0.0
H3539 H 0.05627 -0.00255 0.70809 0.0
H3540 H 0.02945 0.01293 0.68524 0.0
H3541 H 0.03101 0.08245 0.68559 0.0
H3542 H 0.95086 0.12685 0.62855 0.0
H3543 H 0.98508 0.11139 0.63669 0.0
loop_
_geom_bond_atom_site_label_1
_geom_bond_atom_site_label_2
_geom_bond_distance
_geom_bond_site_symmetry_2
_ccdc_geom_bond_type
In0 O1 2.322 . S
In0 O2 2.323 1_455 S
In0 O6 2.294 . S
In0 O7 2.321 1_455 S
In0 O8 2.239 1_455 S
In0 O9 2.330 . S
In0 O11 2.266 1_455 S
In0 O12 2.330 . S
O1 In0 2.322 . S
O1 C10 1.240 . S
O2 In0 2.323 1_655 S
O2 C10 1.252 1_655 S
C3 O6 1.252 . S
C3 O7 1.260 1_455 S
C4 O11 1.240 . S
C4 O12 1.252 1_655 S
C5 O8 1.252 . S
C5 O9 1.260 1_655 S
O6 In0 2.294 . S
O6 C3 1.252 . S
O7 In0 2.321 1_655 S
O7 C3 1.260 1_655 S
O8 In0 2.239 1_655 S
O8 C5 1.252 . S
O9 In0 2.330 . S
O9 C5 1.260 1_455 S
C10 O1 1.240 . S
C10 O2 1.252 1_455 S
O11 In0 2.266 1_655 S
O11 C4 1.240 . S
O12 In0 2.330 . S
O12 C4 1.252 1_455 S
In13 O14 2.294 1_455 S
In13 O15 2.326 1_455 S
In13 O19 2.266 . S
In13 O20 2.326 . S
In13 O21 2.266 1_455 S
In13 O22 2.326 1_455 S
In13 O24 2.294 . S
In13 O25 2.326 . S
O14 In13 2.294 1_655 S
O14 C23 1.240 . S
O15 In13 2.326 1_655 S
O15 C23 1.252 . S
C16 O19 1.252 . S
C16 O20 1.260 . S
C17 O24 1.240 . S
C17 O25 1.252 . S
C18 O21 1.252 . S
C18 O22 1.260 . S
O19 In13 2.266 . S
O19 C16 1.252 . S
O20 In13 2.326 . S
O20 C16 1.260 . S
O21 In13 2.266 1_655 S
O21 C18 1.252 . S
O22 In13 2.326 1_655 S
O22 C18 1.260 . S
C23 O14 1.240 . S
C23 O15 1.252 . S
O24 In13 2.294 . S
O24 C17 1.240 . S
O25 In13 2.326 . S
O25 C17 1.252 . S
In26 O27 2.294 . S
In26 O28 2.326 . S
In26 O32 2.266 . S
In26 O33 2.326 . S
In26 O34 2.266 . S
In26 O35 2.326 . S
In26 O37 2.294 . S
In26 O38 2.326 . S
O27 In26 2.294 . S
O27 C36 1.240 . S
O28 In26 2.326 . S
O28 C36 1.252 . S
C29 O32 1.252 . S
C29 O33 1.260 . S
C30 O37 1.240 . S
C30 O38 1.252 . S
C31 O34 1.252 . S
C31 O35 1.260 . S
O32 In26 2.266 . S
O32 C29 1.252 . S
O33 In26 2.326 . S
O33 C29 1.260 . S
O34 In26 2.266 . S
O34 C31 1.252 . S
O35 In26 2.326 . S
O35 C31 1.260 . S
C36 O27 1.240 . S
C36 O28 1.252 . S
O37 In26 2.294 . S
O37 C30 1.240 . S
O38 In26 2.326 . S
O38 C30 1.252 . S
In39 O40 2.294 . S
In39 O41 2.326 . S
In39 O45 2.266 . S
In39 O46 2.326 . S
In39 O47 2.266 . S
In39 O48 2.326 . S
In39 O50 2.294 . S
In39 O51 2.326 . S
O40 In39 2.294 . S
O40 C49 1.240 . S
O41 In39 2.326 . S
O41 C49 1.252 . S
C42 O45 1.252 . S
C42 O46 1.260 . S
C43 O50 1.240 . S
C43 O51 1.252 . S
C44 O47 1.252 . S
C44 O48 1.260 . S
O45 In39 2.266 . S
O45 C42 1.252 . S
O46 In39 2.326 . S
O46 C42 1.260 . S
O47 In39 2.266 . S
O47 C44 1.252 . S
O48 In39 2.326 . S
O48 C44 1.260 . S
C49 O40 1.240 . S
C49 O41 1.252 . S
O50 In39 2.294 . S
O50 C43 1.240 . S
O51 In39 2.326 . S
O51 C43 1.252 . S
In52 O53 2.282 1_455 S
In52 O54 2.328 . S
In52 O58 2.254 1_455 S
In52 O59 2.328 . S
In52 O60 2.278 . S
In52 O61 2.324 1_455 S
In52 O63 2.306 . S
In52 O64 2.325 1_455 S
O53 In52 2.282 1_655 S
O53 C62 1.240 . S
O54 In52 2.328 . S
O54 C62 1.252 1_455 S
C55 O58 1.252 . S
C55 O59 1.260 1_655 S
C56 O63 1.240 . S
C56 O64 1.252 1_455 S
C57 O60 1.252 . S
C57 O61 1.260 1_455 S
O58 In52 2.254 1_655 S
O58 C55 1.252 . S
O59 In52 2.328 . S
O59 C55 1.260 1_455 S
O60 In52 2.278 . S
O60 C57 1.252 . S
O61 In52 2.324 1_655 S
O61 C57 1.260 1_655 S
C62 O53 1.240 . S
C62 O54 1.252 1_655 S
O63 In52 2.306 . S
O63 C56 1.240 . S
O64 In52 2.325 1_655 S
O64 C56 1.252 1_655 S
In65 O66 2.294 . S
In65 O67 2.326 . S
In65 O71 2.266 . S
In65 O72 2.326 . S
In65 O73 2.266 . S
In65 O74 2.326 . S
In65 O76 2.294 . S
In65 O77 2.326 . S
O66 In65 2.294 . S
O66 C75 1.240 . S
O67 In65 2.326 . S
O67 C75 1.252 . S
C68 O71 1.252 . S
C68 O72 1.260 . S
C69 O76 1.240 . S
C69 O77 1.252 . S
C70 O73 1.252 . S
C70 O74 1.260 . S
O71 In65 2.266 . S
O71 C68 1.252 . S
O72 In65 2.326 . S
O72 C68 1.260 . S
O73 In65 2.266 . S
O73 C70 1.252 . S
O74 In65 2.326 . S
O74 C70 1.260 . S
C75 O66 1.240 . S
C75 O67 1.252 . S
O76 In65 2.294 . S
O76 C69 1.240 . S
O77 In65 2.326 . S
O77 C69 1.252 . S
In78 O79 2.294 . S
In78 O80 2.326 . S
In78 O84 2.266 . S
In78 O85 2.326 . S
In78 O86 2.266 . S
In78 O87 2.326 . S
In78 O89 2.294 . S
In78 O90 2.326 . S
O79 In78 2.294 . S
O79 C88 1.240 . S
O80 In78 2.326 . S
O80 C88 1.252 . S
C81 O84 1.252 . S
C81 O85 1.260 . S
C82 O89 1.240 . S
C82 O90 1.252 . S
C83 O86 1.252 . S
C83 O87 1.260 . S
O84 In78 2.266 . S
O84 C81 1.252 . S
O85 In78 2.326 . S
O85 C81 1.260 . S
O86 In78 2.266 . S
O86 C83 1.252 . S
O87 In78 2.326 . S
O87 C83 1.260 . S
C88 O79 1.240 . S
C88 O80 1.252 . S
O89 In78 2.294 . S
O89 C82 1.240 . S
O90 In78 2.326 . S
O90 C82 1.252 . S
In91 O92 2.299 . S
In91 O93 2.336 . S
In91 O97 2.261 1_455 S
In91 O98 2.316 1_455 S
In91 O99 2.271 . S
In91 O100 2.335 . S
In91 O102 2.288 1_455 S
In91 O103 2.317 1_455 S
O92 In91 2.299 . S
O92 C101 1.240 . S
O93 In91 2.336 . S
O93 C101 1.252 . S
C94 O97 1.252 . S
C94 O98 1.260 . S
C95 O102 1.240 . S
C95 O103 1.252 . S
C96 O99 1.252 . S
C96 O100 1.260 . S
O97 In91 2.261 1_655 S
O97 C94 1.252 . S
O98 In91 2.316 1_655 S
O98 C94 1.260 . S
O99 In91 2.271 . S
O99 C96 1.252 . S
O100 In91 2.335 . S
O100 C96 1.260 . S
C101 O92 1.240 . S
C101 O93 1.252 . S
O102 In91 2.288 1_655 S
O102 C95 1.240 . S
O103 In91 2.317 1_655 S
O103 C95 1.252 . S
In104 O105 2.294 1_545 S
In104 O106 2.326 . S
In104 O110 2.266 1_545 S
In104 O111 2.326 . S
In104 O112 2.266 . S
In104 O113 2.326 1_545 S
In104 O115 2.294 . S
In104 O116 2.326 1_545 S
O105 In104 2.294 1_565 S
O105 C114 1.240 . S
O106 In104 2.326 . S
O106 C114 1.252 1_545 S
C107 O110 1.252 . S
C107 O111 1.260 1_565 S
C108 O115 1.240 . S
C108 O116 1.252 1_545 S
C109 O112 1.252 . S
C109 O113 1.260 1_545 S
O110 In104 2.266 1_565 S
O110 C107 1.252 . S
O111 In104 2.326 . S
O111 C107 1.260 1_545 S
O112 In104 2.266 . S
O112 C109 1.252 . S
O113 In104 2.326 1_565 S
O113 C109 1.260 1_565 S
C114 O105 1.240 . S
C114 O106 1.252 1_565 S
O115 In104 2.294 . S
O115 C108 1.240 . S
O116 In104 2.326 1_565 S
O116 C108 1.252 1_565 S
In117 O118 2.294 . S
In117 O119 2.326 . S
In117 O123 2.266 . S
In117 O124 2.326 . S
In117 O125 2.266 . S
In117 O126 2.326 . S
In117 O128 2.294 . S
In117 O129 2.326 . S
O118 In117 2.294 . S
O118 C127 1.240 . S
O119 In117 2.326 . S
O119 C127 1.252 . S
C120 O123 1.252 . S
C120 O124 1.260 . S
C121 O128 1.240 . S
C121 O129 1.252 . S
C122 O125 1.252 . S
C122 O126 1.260 . S
O123 In117 2.266 . S
O123 C120 1.252 . S
O124 In117 2.326 . S
O124 C120 1.260 . S
O125 In117 2.266 . S
O125 C122 1.252 . S
O126 In117 2.326 . S
O126 C122 1.260 . S
C127 O118 1.240 . S
C127 O119 1.252 . S
O128 In117 2.294 . S
O128 C121 1.240 . S
O129 In117 2.326 . S
O129 C121 1.252 . S
In130 O131 2.294 1_545 S
In130 O132 2.326 . S
In130 O136 2.266 1_545 S
In130 O137 2.326 . S
In130 O138 2.266 . S
In130 O139 2.323 1_545 S
In130 O141 2.294 . S
In130 O142 2.326 . S
O131 In130 2.294 1_565 S
O131 C140 1.240 . S
O132 In130 2.326 . S
O132 C140 1.252 1_545 S
C133 O136 1.252 . S
C133 O137 1.260 1_565 S
C134 O141 1.240 . S
C134 O142 1.252 . S
C135 O138 1.252 . S
C135 O139 1.237 1_545 S
O136 In130 2.266 1_565 S
O136 C133 1.252 . S
O137 In130 2.326 . S
O137 C133 1.260 1_545 S
O138 In130 2.266 . S
O138 C135 1.252 . S
O139 In130 2.323 1_565 S
O139 C135 1.237 1_565 S
C140 O131 1.240 . S
C140 O132 1.252 1_565 S
O141 In130 2.294 . S
O141 C134 1.240 . S
O142 In130 2.326 . S
O142 C134 1.252 . S
In143 O144 2.294 . S
In143 O145 2.326 . S
In143 O149 2.266 1_554 S
In143 O150 2.326 1_554 S
In143 O151 2.266 . S
In143 O152 2.326 . S
In143 O154 2.294 1_554 S
In143 O155 2.326 1_554 S
O144 In143 2.294 . S
O144 C153 1.240 . S
O145 In143 2.326 . S
O145 C153 1.252 . S
C146 O149 1.252 . S
C146 O150 1.260 . S
C147 O154 1.240 . S
C147 O155 1.252 . S
C148 O151 1.252 . S
C148 O152 1.260 . S
O149 In143 2.266 1_556 S
O149 C146 1.252 . S
O150 In143 2.326 1_556 S
O150 C146 1.260 . S
O151 In143 2.266 . S
O151 C148 1.252 . S
O152 In143 2.326 . S
O152 C148 1.260 . S
C153 O144 1.240 . S
C153 O145 1.252 . S
O154 In143 2.294 1_556 S
O154 C147 1.240 . S
O155 In143 2.326 1_556 S
O155 C147 1.252 . S
In156 O157 2.281 1_554 S
In156 O158 2.328 . S
In156 O162 2.253 1_554 S
In156 O163 2.328 . S
In156 O164 2.279 . S
In156 O165 2.324 1_554 S
In156 O167 2.307 . S
In156 O168 2.324 1_554 S
O157 In156 2.281 1_556 S
O157 C166 1.240 . S
O158 In156 2.328 . S
O158 C166 1.252 1_554 S
C159 O162 1.252 . S
C159 O163 1.260 1_556 S
C160 O167 1.240 . S
C160 O168 1.252 1_554 S
C161 O164 1.252 . S
C161 O165 1.260 1_554 S
O162 In156 2.253 1_556 S
O162 C159 1.252 . S
O163 In156 2.328 . S
O163 C159 1.260 1_554 S
O164 In156 2.279 . S
O164 C161 1.252 . S
O165 In156 2.324 1_556 S
O165 C161 1.260 1_556 S
C166 O157 1.240 . S
C166 O158 1.252 1_556 S
O167 In156 2.307 . S
O167 C160 1.240 . S
O168 In156 2.324 1_556 S
O168 C160 1.252 1_556 S
In169 O170 2.294 . S
In169 O171 2.326 1_554 S
In169 O175 2.266 . S
In169 O176 2.326 1_554 S
In169 O177 2.266 1_554 S
In169 O178 2.326 . S
In169 O180 2.294 1_554 S
In169 O181 2.326 . S
O170 In169 2.294 . S
O170 C179 1.240 . S
O171 In169 2.326 1_556 S
O171 C179 1.252 1_556 S
C172 O175 1.252 . S
C172 O176 1.260 1_554 S
C173 O180 1.240 . S
C173 O181 1.252 1_556 S
C174 O177 1.252 . S
C174 O178 1.260 1_556 S
O175 In169 2.266 . S
O175 C172 1.252 . S
O176 In169 2.326 1_556 S
O176 C172 1.260 1_556 S
O177 In169 2.266 1_556 S
O177 C174 1.252 . S
O178 In169 2.326 . S
O178 C174 1.260 1_554 S
C179 O170 1.240 . S
C179 O171 1.252 1_554 S
O180 In169 2.294 1_556 S
O180 C173 1.240 . S
O181 In169 2.326 . S
O181 C173 1.252 1_554 S
In182 O183 2.294 . S
In182 O184 2.326 . S
In182 O188 2.266 . S
In182 O189 2.326 . S
In182 O190 2.266 . S
In182 O191 2.326 . S
In182 O193 2.294 . S
In182 O194 2.326 . S
O183 In182 2.294 . S
O183 C192 1.240 . S
O184 In182 2.326 . S
O184 C192 1.252 . S
C185 O188 1.252 . S
C185 O189 1.260 . S
C186 O193 1.240 . S
C186 O194 1.252 . S
C187 O190 1.252 . S
C187 O191 1.260 . S
O188 In182 2.266 . S
O188 C185 1.252 . S
O189 In182 2.326 . S
O189 C185 1.260 . S
O190 In182 2.266 . S
O190 C187 1.252 . S
O191 In182 2.326 . S
O191 C187 1.260 . S
C192 O183 1.240 . S
C192 O184 1.252 . S
O193 In182 2.294 . S
O193 C186 1.240 . S
O194 In182 2.326 . S
O194 C186 1.252 . S
In195 O196 2.294 . S
In195 O197 2.326 . S
In195 O201 2.266 . S
In195 O202 2.326 . S
In195 O203 2.266 . S
In195 O204 2.326 . S
In195 O206 2.294 . S
In195 O207 2.326 . S
O196 In195 2.294 . S
O196 C205 1.240 . S
O197 In195 2.326 . S
O197 C205 1.252 . S
C198 O201 1.252 . S
C198 O202 1.260 . S
C199 O206 1.240 . S
C199 O207 1.252 . S
C200 O203 1.252 . S
C200 O204 1.260 . S
O201 In195 2.266 . S
O201 C198 1.252 . S
O202 In195 2.326 . S
O202 C198 1.260 . S
O203 In195 2.266 . S
O203 C200 1.252 . S
O204 In195 2.326 . S
O204 C200 1.260 . S
C205 O196 1.240 . S
C205 O197 1.252 . S
O206 In195 2.294 . S
O206 C199 1.240 . S
O207 In195 2.326 . S
O207 C199 1.252 . S
In208 O209 2.294 1_545 S
In208 O210 2.326 1_545 S
In208 O214 2.266 . S
In208 O215 2.326 . S
In208 O216 2.266 1_545 S
In208 O217 2.326 1_545 S
In208 O219 2.294 . S
In208 O220 2.326 . S
O209 In208 2.294 1_565 S
O209 C218 1.240 . S
O210 In208 2.326 1_565 S
O210 C218 1.252 . S
C211 O214 1.252 . S
C211 O215 1.260 . S
C212 O219 1.240 . S
C212 O220 1.252 . S
C213 O216 1.252 . S
C213 O217 1.260 . S
O214 In208 2.266 . S
O214 C211 1.252 . S
O215 In208 2.326 . S
O215 C211 1.260 . S
O216 In208 2.266 1_565 S
O216 C213 1.252 . S
O217 In208 2.326 1_565 S
O217 C213 1.260 . S
C218 O209 1.240 . S
C218 O210 1.252 . S
O219 In208 2.294 . S
O219 C212 1.240 . S
O220 In208 2.326 . S
O220 C212 1.252 . S
In221 O222 2.294 . S
In221 O223 2.326 . S
In221 O227 2.266 . S
In221 O228 2.326 . S
In221 O229 2.266 . S
In221 O230 2.326 . S
In221 O232 2.294 . S
In221 O233 2.326 . S
O222 In221 2.294 . S
O222 C231 1.240 . S
O223 In221 2.326 . S
O223 C231 1.252 . S
C224 O227 1.252 . S
C224 O228 1.260 . S
C225 O232 1.240 . S
C225 O233 1.252 . S
C226 O229 1.252 . S
C226 O230 1.260 . S
O227 In221 2.266 . S
O227 C224 1.252 . S
O228 In221 2.326 . S
O228 C224 1.260 . S
O229 In221 2.266 . S
O229 C226 1.252 . S
O230 In221 2.326 . S
O230 C226 1.260 . S
C231 O222 1.240 . S
C231 O223 1.252 . S
O232 In221 2.294 . S
O232 C225 1.240 . S
O233 In221 2.326 . S
O233 C225 1.252 . S
In234 O235 2.294 . S
In234 O236 2.326 . S
In234 O240 2.266 . S
In234 O241 2.326 . S
In234 O242 2.266 . S
In234 O243 2.326 . S
In234 O245 2.294 . S
In234 O246 2.326 . S
O235 In234 2.294 . S
O235 C244 1.240 . S
O236 In234 2.326 . S
O236 C244 1.252 . S
C237 O240 1.252 . S
C237 O241 1.260 . S
C238 O245 1.240 . S
C238 O246 1.252 . S
C239 O242 1.252 . S
C239 O243 1.260 . S
O240 In234 2.266 . S
O240 C237 1.252 . S
O241 In234 2.326 . S
O241 C237 1.260 . S
O242 In234 2.266 . S
O242 C239 1.252 . S
O243 In234 2.326 . S
O243 C239 1.260 . S
C244 O235 1.240 . S
C244 O236 1.252 . S
O245 In234 2.294 . S
O245 C238 1.240 . S
O246 In234 2.326 . S
O246 C238 1.252 . S
In247 O248 2.294 1_545 S
In247 O249 2.326 1_545 S
In247 O253 2.266 . S
In247 O254 2.326 . S
In247 O255 2.266 1_545 S
In247 O256 2.326 1_545 S
In247 O258 2.294 . S
In247 O259 2.326 . S
O248 In247 2.294 1_565 S
O248 C257 1.240 . S
O249 In247 2.326 1_565 S
O249 C257 1.252 . S
C250 O253 1.252 . S
C250 O254 1.260 . S
C251 O258 1.240 . S
C251 O259 1.252 . S
C252 O255 1.252 . S
C252 O256 1.260 . S
O253 In247 2.266 . S
O253 C250 1.252 . S
O254 In247 2.326 . S
O254 C250 1.260 . S
O255 In247 2.266 1_565 S
O255 C252 1.252 . S
O256 In247 2.326 1_565 S
O256 C252 1.260 . S
C257 O248 1.240 . S
C257 O249 1.252 . S
O258 In247 2.294 . S
O258 C251 1.240 . S
O259 In247 2.326 . S
O259 C251 1.252 . S
In260 O261 2.294 . S
In260 O262 2.326 . S
In260 O266 2.266 1_554 S
In260 O267 2.326 1_554 S
In260 O268 2.266 . S
In260 O269 2.326 . S
In260 O271 2.294 1_554 S
In260 O272 2.326 1_554 S
O261 In260 2.294 . S
O261 C270 1.240 . S
O262 In260 2.326 . S
O262 C270 1.252 . S
C263 O266 1.252 . S
C263 O267 1.260 . S
C264 O271 1.240 . S
C264 O272 1.252 . S
C265 O268 1.252 . S
C265 O269 1.260 . S
O266 In260 2.266 1_556 S
O266 C263 1.252 . S
O267 In260 2.326 1_556 S
O267 C263 1.260 . S
O268 In260 2.266 . S
O268 C265 1.252 . S
O269 In260 2.326 . S
O269 C265 1.260 . S
C270 O261 1.240 . S
C270 O262 1.252 . S
O271 In260 2.294 1_556 S
O271 C264 1.240 . S
O272 In260 2.326 1_556 S
O272 C264 1.252 . S
In273 O274 2.294 . S
In273 O275 2.326 . S
In273 O279 2.266 . S
In273 O280 2.326 . S
In273 O281 2.266 . S
In273 O282 2.326 . S
In273 O284 2.294 . S
In273 O285 2.326 . S
O274 In273 2.294 . S
O274 C283 1.240 . S
O275 In273 2.326 . S
O275 C283 1.252 . S
C276 O279 1.252 . S
C276 O280 1.260 . S
C277 O284 1.240 . S
C277 O285 1.252 . S
C278 O281 1.252 . S
C278 O282 1.260 . S
O279 In273 2.266 . S
O279 C276 1.252 . S
O280 In273 2.326 . S
O280 C276 1.260 . S
O281 In273 2.266 . S
O281 C278 1.252 . S
O282 In273 2.326 . S
O282 C278 1.260 . S
C283 O274 1.240 . S
C283 O275 1.252 . S
O284 In273 2.294 . S
O284 C277 1.240 . S
O285 In273 2.326 . S
O285 C277 1.252 . S
In286 O287 2.294 . S
In286 O288 2.326 . S
In286 O292 2.266 . S
In286 O293 2.326 . S
In286 O294 2.266 . S
In286 O295 2.326 . S
In286 O297 2.294 . S
In286 O298 2.326 . S
O287 In286 2.294 . S
O287 C296 1.240 . S
O288 In286 2.326 . S
O288 C296 1.252 . S
C289 O292 1.252 . S
C289 O293 1.260 . S
C290 O297 1.240 . S
C290 O298 1.252 . S
C291 O294 1.252 . S
C291 O295 1.260 . S
O292 In286 2.266 . S
O292 C289 1.252 . S
O293 In286 2.326 . S
O293 C289 1.260 . S
O294 In286 2.266 . S
O294 C291 1.252 . S
O295 In286 2.326 . S
O295 C291 1.260 . S
C296 O287 1.240 . S
C296 O288 1.252 . S
O297 In286 2.294 . S
O297 C290 1.240 . S
O298 In286 2.326 . S
O298 C290 1.252 . S
In299 O300 2.294 . S
In299 O301 2.326 . S
In299 O305 2.266 . S
In299 O306 2.326 . S
In299 O307 2.266 . S
In299 O308 2.326 . S
In299 O310 2.294 . S
In299 O311 2.326 . S
O300 In299 2.294 . S
O300 C309 1.240 . S
O301 In299 2.326 . S
O301 C309 1.252 . S
C302 O305 1.252 . S
C302 O306 1.260 . S
C303 O310 1.240 . S
C303 O311 1.252 . S
C304 O307 1.252 . S
C304 O308 1.260 . S
O305 In299 2.266 . S
O305 C302 1.252 . S
O306 In299 2.326 . S
O306 C302 1.260 . S
O307 In299 2.266 . S
O307 C304 1.252 . S
O308 In299 2.326 . S
O308 C304 1.260 . S
C309 O300 1.240 . S
C309 O301 1.252 . S
O310 In299 2.294 . S
O310 C303 1.240 . S
O311 In299 2.326 . S
O311 C303 1.252 . S
Fe312 O314 1.918 . S
Fe312 O317 1.997 . S
Fe312 O318 2.002 . S
Fe312 O323 1.976 . S
Fe312 O326 1.996 . S
Fe313 O314 1.918 . S
Fe313 O321 1.997 . S
Fe313 O324 1.996 . S
Fe313 O328 1.976 . S
Fe313 O331 2.002 . S
O314 Fe312 1.918 . S
O314 Fe313 1.918 . S
O314 Fe315 1.918 . S
Fe315 O314 1.918 . S
Fe315 O316 2.002 . S
Fe315 O325 1.976 . S
Fe315 O329 1.996 . S
Fe315 O332 1.997 . S
O316 Fe315 2.002 . S
O316 C333 1.295 . S
O317 Fe312 1.997 . S
O317 C333 1.235 . S
O318 Fe312 2.002 . S
O318 C319 1.295 . S
C319 O318 1.295 . S
C319 O321 1.235 . S
C320 O325 1.287 . S
C320 O326 1.255 . S
O321 Fe313 1.997 . S
O321 C319 1.235 . S
C322 O328 1.287 . S
C322 O329 1.255 . S
O323 Fe312 1.976 . S
O323 C330 1.287 . S
O324 Fe313 1.996 . S
O324 C330 1.255 . S
O325 Fe315 1.976 . S
O325 C320 1.287 . S
O326 Fe312 1.996 . S
O326 C320 1.255 . S
C327 O331 1.295 . S
C327 O332 1.235 . S
O328 Fe313 1.976 . S
O328 C322 1.287 . S
O329 Fe315 1.996 . S
O329 C322 1.255 . S
C330 O323 1.287 . S
C330 O324 1.255 . S
O331 Fe313 2.002 . S
O331 C327 1.295 . S
O332 Fe315 1.997 . S
O332 C327 1.235 . S
C333 O316 1.295 . S
C333 O317 1.235 . S
Fe334 O336 1.918 . S
Fe334 O339 1.997 . S
Fe334 O340 2.002 . S
Fe334 O345 1.976 . S
Fe334 O348 1.996 . S
Fe335 O336 1.918 . S
Fe335 O343 1.997 . S
Fe335 O346 1.996 . S
Fe335 O350 1.976 . S
Fe335 O353 2.002 . S
O336 Fe334 1.918 . S
O336 Fe335 1.918 . S
O336 Fe337 1.918 . S
Fe337 O336 1.918 . S
Fe337 O338 2.002 . S
Fe337 O347 1.976 . S
Fe337 O351 1.996 . S
Fe337 O354 1.997 . S
O338 Fe337 2.002 . S
O338 C355 1.295 . S
O339 Fe334 1.997 . S
O339 C355 1.235 . S
O340 Fe334 2.002 . S
O340 C341 1.295 . S
C341 O340 1.295 . S
C341 O343 1.235 . S
C342 O347 1.287 . S
C342 O348 1.255 . S
O343 Fe335 1.997 . S
O343 C341 1.235 . S
C344 O350 1.287 . S
C344 O351 1.255 . S
O345 Fe334 1.976 . S
O345 C352 1.287 . S
O346 Fe335 1.996 . S
O346 C352 1.255 . S
O347 Fe337 1.976 . S
O347 C342 1.287 . S
O348 Fe334 1.996 . S
O348 C342 1.255 . S
C349 O353 1.295 . S
C349 O354 1.235 . S
O350 Fe335 1.976 . S
O350 C344 1.287 . S
O351 Fe337 1.996 . S
O351 C344 1.255 . S
C352 O345 1.287 . S
C352 O346 1.255 . S
O353 Fe335 2.002 . S
O353 C349 1.295 . S
O354 Fe337 1.997 . S
O354 C349 1.235 . S
C355 O338 1.295 . S
C355 O339 1.235 . S
Fe356 O358 1.918 . S
Fe356 O361 1.997 . S
Fe356 O362 2.002 . S
Fe356 O367 1.976 . S
Fe356 O370 1.996 . S
Fe357 O358 1.918 . S
Fe357 O365 1.997 . S
Fe357 O368 1.996 . S
Fe357 O372 1.976 . S
Fe357 O375 2.002 . S
O358 Fe356 1.918 . S
O358 Fe357 1.918 . S
O358 Fe359 1.918 . S
Fe359 O358 1.918 . S
Fe359 O360 2.002 . S
Fe359 O369 1.976 . S
Fe359 O373 1.996 . S
Fe359 O376 1.997 . S
O360 Fe359 2.002 . S
O360 C377 1.295 . S
O361 Fe356 1.997 . S
O361 C377 1.235 . S
O362 Fe356 2.002 . S
O362 C363 1.295 . S
C363 O362 1.295 . S
C363 O365 1.235 . S
C364 O369 1.287 . S
C364 O370 1.255 . S
O365 Fe357 1.997 . S
O365 C363 1.235 . S
C366 O372 1.287 . S
C366 O373 1.255 . S
O367 Fe356 1.976 . S
O367 C374 1.287 . S
O368 Fe357 1.996 . S
O368 C374 1.255 . S
O369 Fe359 1.976 . S
O369 C364 1.287 . S
O370 Fe356 1.996 . S
O370 C364 1.255 . S
C371 O375 1.295 . S
C371 O376 1.235 . S
O372 Fe357 1.976 . S
O372 C366 1.287 . S
O373 Fe359 1.996 . S
O373 C366 1.255 . S
C374 O367 1.287 . S
C374 O368 1.255 . S
O375 Fe357 2.002 . S
O375 C371 1.295 . S
O376 Fe359 1.997 . S
O376 C371 1.235 . S
C377 O360 1.295 . S
C377 O361 1.235 . S
Fe378 O380 1.918 . S
Fe378 O383 1.997 . S
Fe378 O384 2.002 . S
Fe378 O389 1.976 . S
Fe378 O392 1.996 . S
Fe379 O380 1.918 . S
Fe379 O387 1.997 . S
Fe379 O390 1.996 . S
Fe379 O394 1.976 . S
Fe379 O397 2.002 . S
O380 Fe378 1.918 . S
O380 Fe379 1.918 . S
O380 Fe381 1.918 . S
Fe381 O380 1.918 . S
Fe381 O382 2.002 . S
Fe381 O391 1.976 . S
Fe381 O395 1.996 . S
Fe381 O398 1.997 . S
O382 Fe381 2.002 . S
O382 C399 1.295 . S
O383 Fe378 1.997 . S
O383 C399 1.235 . S
O384 Fe378 2.002 . S
O384 C385 1.295 . S
C385 O384 1.295 . S
C385 O387 1.235 . S
C386 O391 1.287 . S
C386 O392 1.255 . S
O387 Fe379 1.997 . S
O387 C385 1.235 . S
C388 O394 1.287 . S
C388 O395 1.255 . S
O389 Fe378 1.976 . S
O389 C396 1.287 . S
O390 Fe379 1.996 . S
O390 C396 1.255 . S
O391 Fe381 1.976 . S
O391 C386 1.287 . S
O392 Fe378 1.996 . S
O392 C386 1.255 . S
C393 O397 1.295 . S
C393 O398 1.235 . S
O394 Fe379 1.976 . S
O394 C388 1.287 . S
O395 Fe381 1.996 . S
O395 C388 1.255 . S
C396 O389 1.287 . S
C396 O390 1.255 . S
O397 Fe379 2.002 . S
O397 C393 1.295 . S
O398 Fe381 1.997 . S
O398 C393 1.235 . S
C399 O382 1.295 . S
C399 O383 1.235 . S
Fe400 O402 1.918 . S
Fe400 O405 1.997 . S
Fe400 O406 2.002 . S
Fe400 O411 1.976 . S
Fe400 O414 1.996 . S
Fe401 O402 1.918 . S
Fe401 O409 1.997 . S
Fe401 O412 1.996 . S
Fe401 O416 1.976 . S
Fe401 O419 2.002 . S
O402 Fe400 1.918 . S
O402 Fe401 1.918 . S
O402 Fe403 1.918 . S
Fe403 O402 1.918 . S
Fe403 O404 2.002 . S
Fe403 O413 1.976 . S
Fe403 O417 1.996 . S
Fe403 O420 1.997 . S
O404 Fe403 2.002 . S
O404 C421 1.295 . S
O405 Fe400 1.997 . S
O405 C421 1.235 . S
O406 Fe400 2.002 . S
O406 C407 1.295 . S
C407 O406 1.295 . S
C407 O409 1.235 . S
C408 O413 1.287 . S
C408 O414 1.255 . S
O409 Fe401 1.997 . S
O409 C407 1.235 . S
C410 O416 1.287 . S
C410 O417 1.255 . S
O411 Fe400 1.976 . S
O411 C418 1.287 . S
O412 Fe401 1.996 . S
O412 C418 1.255 . S
O413 Fe403 1.976 . S
O413 C408 1.287 . S
O414 Fe400 1.996 . S
O414 C408 1.255 . S
C415 O419 1.295 . S
C415 O420 1.235 . S
O416 Fe401 1.976 . S
O416 C410 1.287 . S
O417 Fe403 1.996 . S
O417 C410 1.255 . S
C418 O411 1.287 . S
C418 O412 1.255 . S
O419 Fe401 2.002 . S
O419 C415 1.295 . S
O420 Fe403 1.997 . S
O420 C415 1.235 . S
C421 O404 1.295 . S
C421 O405 1.235 . S
Fe422 O424 1.918 . S
Fe422 O427 1.997 . S
Fe422 O428 2.002 . S
Fe422 O433 1.976 . S
Fe422 O436 1.996 . S
Fe423 O424 1.918 . S
Fe423 O431 1.997 . S
Fe423 O434 1.996 . S
Fe423 O438 1.976 . S
Fe423 O441 2.002 . S
O424 Fe422 1.918 . S
O424 Fe423 1.918 . S
O424 Fe425 1.918 . S
Fe425 O424 1.918 . S
Fe425 O426 2.002 . S
Fe425 O435 1.976 . S
Fe425 O439 1.996 . S
Fe425 O442 1.997 . S
O426 Fe425 2.002 . S
O426 C443 1.295 . S
O427 Fe422 1.997 . S
O427 C443 1.235 . S
O428 Fe422 2.002 . S
O428 C429 1.295 . S
C429 O428 1.295 . S
C429 O431 1.235 . S
C430 O435 1.287 . S
C430 O436 1.255 . S
O431 Fe423 1.997 . S
O431 C429 1.235 . S
C432 O438 1.287 . S
C432 O439 1.255 . S
O433 Fe422 1.976 . S
O433 C440 1.287 . S
O434 Fe423 1.996 . S
O434 C440 1.255 . S
O435 Fe425 1.976 . S
O435 C430 1.287 . S
O436 Fe422 1.996 . S
O436 C430 1.255 . S
C437 O441 1.295 . S
C437 O442 1.235 . S
O438 Fe423 1.976 . S
O438 C432 1.287 . S
O439 Fe425 1.996 . S
O439 C432 1.255 . S
C440 O433 1.287 . S
C440 O434 1.255 . S
O441 Fe423 2.002 . S
O441 C437 1.295 . S
O442 Fe425 1.997 . S
O442 C437 1.235 . S
C443 O426 1.295 . S
C443 O427 1.235 . S
Fe444 O446 1.918 . S
Fe444 O449 1.997 . S
Fe444 O450 2.002 . S
Fe444 O455 1.976 . S
Fe444 O458 1.996 . S
Fe445 O446 1.918 . S
Fe445 O453 1.997 . S
Fe445 O456 1.996 . S
Fe445 O460 1.976 . S
Fe445 O463 2.002 . S
O446 Fe444 1.918 . S
O446 Fe445 1.918 . S
O446 Fe447 1.918 . S
Fe447 O446 1.918 . S
Fe447 O448 2.002 . S
Fe447 O457 1.976 . S
Fe447 O461 1.996 . S
Fe447 O464 1.997 . S
O448 Fe447 2.002 . S
O448 C465 1.295 . S
O449 Fe444 1.997 . S
O449 C465 1.235 . S
O450 Fe444 2.002 . S
O450 C451 1.295 . S
C451 O450 1.295 . S
C451 O453 1.235 . S
C452 O457 1.287 . S
C452 O458 1.255 . S
O453 Fe445 1.997 . S
O453 C451 1.235 . S
C454 O460 1.287 . S
C454 O461 1.255 . S
O455 Fe444 1.976 . S
O455 C462 1.287 . S
O456 Fe445 1.996 . S
O456 C462 1.255 . S
O457 Fe447 1.976 . S
O457 C452 1.287 . S
O458 Fe444 1.996 . S
O458 C452 1.255 . S
C459 O463 1.295 . S
C459 O464 1.235 . S
O460 Fe445 1.976 . S
O460 C454 1.287 . S
O461 Fe447 1.996 . S
O461 C454 1.255 . S
C462 O455 1.287 . S
C462 O456 1.255 . S
O463 Fe445 2.002 . S
O463 C459 1.295 . S
O464 Fe447 1.997 . S
O464 C459 1.235 . S
C465 O448 1.295 . S
C465 O449 1.235 . S
Fe466 O468 1.918 . S
Fe466 O471 1.997 . S
Fe466 O472 2.002 . S
Fe466 O477 1.976 . S
Fe466 O480 1.996 . S
Fe467 O468 1.918 . S
Fe467 O475 1.997 . S
Fe467 O478 1.996 . S
Fe467 O482 1.976 . S
Fe467 O485 2.002 . S
O468 Fe466 1.918 . S
O468 Fe467 1.918 . S
O468 Fe469 1.918 . S
Fe469 O468 1.918 . S
Fe469 O470 2.002 . S
Fe469 O479 1.976 . S
Fe469 O483 1.996 . S
Fe469 O486 1.997 . S
O470 Fe469 2.002 . S
O470 C487 1.295 . S
O471 Fe466 1.997 . S
O471 C487 1.235 . S
O472 Fe466 2.002 . S
O472 C473 1.295 . S
C473 O472 1.295 . S
C473 O475 1.235 . S
C474 O479 1.287 . S
C474 O480 1.255 . S
O475 Fe467 1.997 . S
O475 C473 1.235 . S
C476 O482 1.287 . S
C476 O483 1.255 . S
O477 Fe466 1.976 . S
O477 C484 1.287 . S
O478 Fe467 1.996 . S
O478 C484 1.255 . S
O479 Fe469 1.976 . S
O479 C474 1.287 . S
O480 Fe466 1.996 . S
O480 C474 1.255 . S
C481 O485 1.295 . S
C481 O486 1.235 . S
O482 Fe467 1.976 . S
O482 C476 1.287 . S
O483 Fe469 1.996 . S
O483 C476 1.255 . S
C484 O477 1.287 . S
C484 O478 1.255 . S
O485 Fe467 2.002 . S
O485 C481 1.295 . S
O486 Fe469 1.997 . S
O486 C481 1.235 . S
C487 O470 1.295 . S
C487 O471 1.235 . S
Fe488 O490 1.918 . S
Fe488 O493 1.997 . S
Fe488 O494 2.002 . S
Fe488 O499 1.976 . S
Fe488 O502 1.996 . S
Fe489 O490 1.918 . S
Fe489 O497 1.997 . S
Fe489 O500 1.996 . S
Fe489 O504 1.976 . S
Fe489 O507 2.002 . S
O490 Fe488 1.918 . S
O490 Fe489 1.918 . S
O490 Fe491 1.918 . S
Fe491 O490 1.918 . S
Fe491 O492 2.002 . S
Fe491 O501 1.976 . S
Fe491 O505 1.996 . S
Fe491 O508 1.997 . S
O492 Fe491 2.002 . S
O492 C509 1.295 . S
O493 Fe488 1.997 . S
O493 C509 1.235 . S
O494 Fe488 2.002 . S
O494 C495 1.295 . S
C495 O494 1.295 . S
C495 O497 1.235 . S
C496 O501 1.287 . S
C496 O502 1.255 . S
O497 Fe489 1.997 . S
O497 C495 1.235 . S
C498 O504 1.287 . S
C498 O505 1.255 . S
O499 Fe488 1.976 . S
O499 C506 1.287 . S
O500 Fe489 1.996 . S
O500 C506 1.255 . S
O501 Fe491 1.976 . S
O501 C496 1.287 . S
O502 Fe488 1.996 . S
O502 C496 1.255 . S
C503 O507 1.295 . S
C503 O508 1.235 . S
O504 Fe489 1.976 . S
O504 C498 1.287 . S
O505 Fe491 1.996 . S
O505 C498 1.255 . S
C506 O499 1.287 . S
C506 O500 1.255 . S
O507 Fe489 2.002 . S
O507 C503 1.295 . S
O508 Fe491 1.997 . S
O508 C503 1.235 . S
C509 O492 1.295 . S
C509 O493 1.235 . S
Fe510 O512 1.918 . S
Fe510 O515 1.997 . S
Fe510 O516 2.002 . S
Fe510 O521 1.976 . S
Fe510 O524 1.996 . S
Fe511 O512 1.918 . S
Fe511 O519 1.997 . S
Fe511 O522 1.996 . S
Fe511 O526 1.976 . S
Fe511 O529 2.002 . S
O512 Fe510 1.918 . S
O512 Fe511 1.918 . S
O512 Fe513 1.918 . S
Fe513 O512 1.918 . S
Fe513 O514 2.002 . S
Fe513 O523 1.976 . S
Fe513 O527 1.996 . S
Fe513 O530 1.997 . S
O514 Fe513 2.002 . S
O514 C531 1.295 . S
O515 Fe510 1.997 . S
O515 C531 1.235 . S
O516 Fe510 2.002 . S
O516 C517 1.295 . S
C517 O516 1.295 . S
C517 O519 1.235 . S
C518 O523 1.287 . S
C518 O524 1.255 . S
O519 Fe511 1.997 . S
O519 C517 1.235 . S
C520 O526 1.287 . S
C520 O527 1.255 . S
O521 Fe510 1.976 . S
O521 C528 1.287 . S
O522 Fe511 1.996 . S
O522 C528 1.255 . S
O523 Fe513 1.976 . S
O523 C518 1.287 . S
O524 Fe510 1.996 . S
O524 C518 1.255 . S
C525 O529 1.295 . S
C525 O530 1.235 . S
O526 Fe511 1.976 . S
O526 C520 1.287 . S
O527 Fe513 1.996 . S
O527 C520 1.255 . S
C528 O521 1.287 . S
C528 O522 1.255 . S
O529 Fe511 2.002 . S
O529 C525 1.295 . S
O530 Fe513 1.997 . S
O530 C525 1.235 . S
C531 O514 1.295 . S
C531 O515 1.235 . S
Fe532 O534 1.918 . S
Fe532 O537 1.997 . S
Fe532 O538 2.002 . S
Fe532 O543 1.976 . S
Fe532 O546 1.996 . S
Fe533 O534 1.918 . S
Fe533 O541 1.997 . S
Fe533 O544 1.996 . S
Fe533 O548 1.976 . S
Fe533 O551 2.002 . S
O534 Fe532 1.918 . S
O534 Fe533 1.918 . S
O534 Fe535 1.918 . S
Fe535 O534 1.918 . S
Fe535 O536 2.002 . S
Fe535 O545 1.976 . S
Fe535 O549 1.996 . S
Fe535 O552 1.997 . S
O536 Fe535 2.002 . S
O536 C553 1.295 . S
O537 Fe532 1.997 . S
O537 C553 1.235 . S
O538 Fe532 2.002 . S
O538 C539 1.295 . S
C539 O538 1.295 . S
C539 O541 1.235 . S
C540 O545 1.287 . S
C540 O546 1.255 . S
O541 Fe533 1.997 . S
O541 C539 1.235 . S
C542 O548 1.287 . S
C542 O549 1.255 . S
O543 Fe532 1.976 . S
O543 C550 1.287 . S
O544 Fe533 1.996 . S
O544 C550 1.255 . S
O545 Fe535 1.976 . S
O545 C540 1.287 . S
O546 Fe532 1.996 . S
O546 C540 1.255 . S
C547 O551 1.295 . S
C547 O552 1.235 . S
O548 Fe533 1.976 . S
O548 C542 1.287 . S
O549 Fe535 1.996 . S
O549 C542 1.255 . S
C550 O543 1.287 . S
C550 O544 1.255 . S
O551 Fe533 2.002 . S
O551 C547 1.295 . S
O552 Fe535 1.997 . S
O552 C547 1.235 . S
C553 O536 1.295 . S
C553 O537 1.235 . S
Fe554 O556 1.918 . S
Fe554 O559 1.997 . S
Fe554 O560 2.002 . S
Fe554 O565 1.976 . S
Fe554 O568 1.996 . S
Fe555 O556 1.918 . S
Fe555 O563 1.997 . S
Fe555 O566 1.996 . S
Fe555 O570 1.976 . S
Fe555 O573 2.002 . S
O556 Fe554 1.918 . S
O556 Fe555 1.918 . S
O556 Fe557 1.918 . S
Fe557 O556 1.918 . S
Fe557 O558 2.002 . S
Fe557 O567 1.976 . S
Fe557 O571 1.996 . S
Fe557 O574 1.997 . S
O558 Fe557 2.002 . S
O558 C575 1.295 . S
O559 Fe554 1.997 . S
O559 C575 1.235 . S
O560 Fe554 2.002 . S
O560 C561 1.295 . S
C561 O560 1.295 . S
C561 O563 1.235 . S
C562 O567 1.287 . S
C562 O568 1.255 . S
O563 Fe555 1.997 . S
O563 C561 1.235 . S
C564 O570 1.287 . S
C564 O571 1.255 . S
O565 Fe554 1.976 . S
O565 C572 1.287 . S
O566 Fe555 1.996 . S
O566 C572 1.255 . S
O567 Fe557 1.976 . S
O567 C562 1.287 . S
O568 Fe554 1.996 . S
O568 C562 1.255 . S
C569 O573 1.295 . S
C569 O574 1.235 . S
O570 Fe555 1.976 . S
O570 C564 1.287 . S
O571 Fe557 1.996 . S
O571 C564 1.255 . S
C572 O565 1.287 . S
C572 O566 1.255 . S
O573 Fe555 2.002 . S
O573 C569 1.295 . S
O574 Fe557 1.997 . S
O574 C569 1.235 . S
C575 O558 1.295 . S
C575 O559 1.235 . S
Fe576 O578 1.918 . S
Fe576 O581 1.997 . S
Fe576 O582 2.002 . S
Fe576 O587 1.976 . S
Fe576 O590 1.996 . S
Fe577 O578 1.918 . S
Fe577 O585 1.997 . S
Fe577 O588 1.996 . S
Fe577 O592 1.976 . S
Fe577 O595 2.002 . S
O578 Fe576 1.918 . S
O578 Fe577 1.918 . S
O578 Fe579 1.918 . S
Fe579 O578 1.918 . S
Fe579 O580 2.002 . S
Fe579 O589 1.976 . S
Fe579 O593 1.996 . S
Fe579 O596 1.997 . S
O580 Fe579 2.002 . S
O580 C597 1.295 . S
O581 Fe576 1.997 . S
O581 C597 1.235 . S
O582 Fe576 2.002 . S
O582 C583 1.295 . S
C583 O582 1.295 . S
C583 O585 1.235 . S
C584 O589 1.287 . S
C584 O590 1.255 . S
O585 Fe577 1.997 . S
O585 C583 1.235 . S
C586 O592 1.287 . S
C586 O593 1.255 . S
O587 Fe576 1.976 . S
O587 C594 1.287 . S
O588 Fe577 1.996 . S
O588 C594 1.255 . S
O589 Fe579 1.976 . S
O589 C584 1.287 . S
O590 Fe576 1.996 . S
O590 C584 1.255 . S
C591 O595 1.295 . S
C591 O596 1.235 . S
O592 Fe577 1.976 . S
O592 C586 1.287 . S
O593 Fe579 1.996 . S
O593 C586 1.255 . S
C594 O587 1.287 . S
C594 O588 1.255 . S
O595 Fe577 2.002 . S
O595 C591 1.295 . S
O596 Fe579 1.997 . S
O596 C591 1.235 . S
C597 O580 1.295 . S
C597 O581 1.235 . S
Fe598 O600 1.918 . S
Fe598 O603 1.997 . S
Fe598 O604 2.002 . S
Fe598 O609 1.976 . S
Fe598 O612 1.996 . S
Fe599 O600 1.918 . S
Fe599 O607 1.997 . S
Fe599 O610 1.996 . S
Fe599 O614 1.976 . S
Fe599 O617 2.002 . S
O600 Fe598 1.918 . S
O600 Fe599 1.918 . S
O600 Fe601 1.918 . S
Fe601 O600 1.918 . S
Fe601 O602 2.002 . S
Fe601 O611 1.976 . S
Fe601 O615 1.996 . S
Fe601 O618 1.997 . S
O602 Fe601 2.002 . S
O602 C619 1.295 . S
O603 Fe598 1.997 . S
O603 C619 1.235 . S
O604 Fe598 2.002 . S
O604 C605 1.295 . S
C605 O604 1.295 . S
C605 O607 1.235 . S
C606 O611 1.287 . S
C606 O612 1.255 . S
O607 Fe599 1.997 . S
O607 C605 1.235 . S
C608 O614 1.287 . S
C608 O615 1.255 . S
O609 Fe598 1.976 . S
O609 C616 1.287 . S
O610 Fe599 1.996 . S
O610 C616 1.255 . S
O611 Fe601 1.976 . S
O611 C606 1.287 . S
O612 Fe598 1.996 . S
O612 C606 1.255 . S
C613 O617 1.295 . S
C613 O618 1.235 . S
O614 Fe599 1.976 . S
O614 C608 1.287 . S
O615 Fe601 1.996 . S
O615 C608 1.255 . S
C616 O609 1.287 . S
C616 O610 1.255 . S
O617 Fe599 2.002 . S
O617 C613 1.295 . S
O618 Fe601 1.997 . S
O618 C613 1.235 . S
C619 O602 1.295 . S
C619 O603 1.235 . S
Fe620 O622 1.918 . S
Fe620 O625 1.997 . S
Fe620 O626 2.002 . S
Fe620 O631 1.976 . S
Fe620 O634 1.996 . S
Fe621 O622 1.918 . S
Fe621 O629 1.997 . S
Fe621 O632 1.996 . S
Fe621 O636 1.976 . S
Fe621 O639 2.002 . S
O622 Fe620 1.918 . S
O622 Fe621 1.918 . S
O622 Fe623 1.918 . S
Fe623 O622 1.918 . S
Fe623 O624 2.002 . S
Fe623 O633 1.976 . S
Fe623 O637 1.996 . S
Fe623 O640 1.997 . S
O624 Fe623 2.002 . S
O624 C641 1.295 . S
O625 Fe620 1.997 . S
O625 C641 1.235 . S
O626 Fe620 2.002 . S
O626 C627 1.295 . S
C627 O626 1.295 . S
C627 O629 1.235 . S
C628 O633 1.287 . S
C628 O634 1.255 . S
O629 Fe621 1.997 . S
O629 C627 1.235 . S
C630 O636 1.287 . S
C630 O637 1.255 . S
O631 Fe620 1.976 . S
O631 C638 1.287 . S
O632 Fe621 1.996 . S
O632 C638 1.255 . S
O633 Fe623 1.976 . S
O633 C628 1.287 . S
O634 Fe620 1.996 . S
O634 C628 1.255 . S
C635 O639 1.295 . S
C635 O640 1.235 . S
O636 Fe621 1.976 . S
O636 C630 1.287 . S
O637 Fe623 1.996 . S
O637 C630 1.255 . S
C638 O631 1.287 . S
C638 O632 1.255 . S
O639 Fe621 2.002 . S
O639 C635 1.295 . S
O640 Fe623 1.997 . S
O640 C635 1.235 . S
C641 O624 1.295 . S
C641 O625 1.235 . S
Fe642 O644 1.918 . S
Fe642 O647 1.997 . S
Fe642 O648 2.002 . S
Fe642 O653 1.976 . S
Fe642 O656 1.996 . S
Fe643 O644 1.918 . S
Fe643 O651 1.997 . S
Fe643 O654 1.996 . S
Fe643 O658 1.976 . S
Fe643 O661 2.002 . S
O644 Fe642 1.918 . S
O644 Fe643 1.918 . S
O644 Fe645 1.918 . S
Fe645 O644 1.918 . S
Fe645 O646 2.002 . S
Fe645 O655 1.976 . S
Fe645 O659 1.996 . S
Fe645 O662 1.997 . S
O646 Fe645 2.002 . S
O646 C663 1.295 . S
O647 Fe642 1.997 . S
O647 C663 1.235 . S
O648 Fe642 2.002 . S
O648 C649 1.295 . S
C649 O648 1.295 . S
C649 O651 1.235 . S
C650 O655 1.287 . S
C650 O656 1.255 . S
O651 Fe643 1.997 . S
O651 C649 1.235 . S
C652 O658 1.287 . S
C652 O659 1.255 . S
O653 Fe642 1.976 . S
O653 C660 1.287 . S
O654 Fe643 1.996 . S
O654 C660 1.255 . S
O655 Fe645 1.976 . S
O655 C650 1.287 . S
O656 Fe642 1.996 . S
O656 C650 1.255 . S
C657 O661 1.295 . S
C657 O662 1.235 . S
O658 Fe643 1.976 . S
O658 C652 1.287 . S
O659 Fe645 1.996 . S
O659 C652 1.255 . S
C660 O653 1.287 . S
C660 O654 1.255 . S
O661 Fe643 2.002 . S
O661 C657 1.295 . S
O662 Fe645 1.997 . S
O662 C657 1.235 . S
C663 O646 1.295 . S
C663 O647 1.235 . S
C664 C665 1.349 . S
C664 C666 1.327 . S
C664 H689 0.950 . S
C665 C664 1.349 . S
C665 C681 1.349 . S
C666 C664 1.327 . S
C666 C685 1.429 . S
C666 H690 0.950 . S
C667 C684 1.574 . S
C667 C686 1.368 . S
C667 H691 0.949 . S
H668 C672 0.949 . S
C669 C670 1.349 . S
C669 C671 1.327 . S
C669 H692 0.950 . S
C670 C669 1.349 . S
C670 C682 1.349 . S
C671 C669 1.327 . S
C671 C687 1.429 . S
C671 H693 0.950 . S
C672 H668 0.949 . S
C672 C680 1.574 . S
C672 C688 1.368 . S
H673 C681 0.950 . S
H674 C679 0.950 . S
H675 C680 0.949 . S
H676 C682 0.950 . S
H677 C683 0.950 . S
H678 C684 0.949 . S
C679 H674 0.950 . S
C679 C681 1.327 . S
C679 C685 1.429 . S
C680 C672 1.574 . S
C680 H675 0.949 . S
C680 C686 1.368 . S
C681 C665 1.349 . S
C681 H673 0.950 . S
C681 C679 1.327 . S
C682 C670 1.349 . S
C682 H676 0.950 . S
C682 C683 1.327 . S
C683 H677 0.950 . S
C683 C682 1.327 . S
C683 C687 1.429 . S
C684 C667 1.574 . S
C684 H678 0.949 . S
C684 C688 1.368 . S
C685 C666 1.429 . S
C685 C679 1.429 . S
C685 C686 1.523 . S
C686 C667 1.368 . S
C686 C680 1.368 . S
C686 C685 1.523 . S
C687 C671 1.429 . S
C687 C683 1.429 . S
C687 C688 1.523 . S
C688 C672 1.368 . S
C688 C684 1.368 . S
C688 C687 1.523 . S
H689 C664 0.950 . S
H690 C666 0.950 . S
H691 C667 0.949 . S
H692 C669 0.950 . S
H693 C671 0.950 . S
C694 C695 1.349 . S
C694 C696 1.327 . S
C694 H719 0.950 . S
C695 C694 1.349 . S
C695 C711 1.349 . S
C696 C694 1.327 . S
C696 C715 1.429 . S
C696 H720 0.950 . S
C697 C714 1.574 . S
C697 C716 1.368 . S
C697 H721 0.949 . S
H698 C702 0.949 . S
C699 C700 1.349 . S
C699 C701 1.327 . S
C699 H722 0.950 . S
C700 C699 1.349 . S
C700 C712 1.349 . S
C701 C699 1.327 . S
C701 C717 1.429 . S
C701 H723 0.950 . S
C702 H698 0.949 . S
C702 C710 1.574 . S
C702 C718 1.368 . S
H703 C711 0.950 . S
H704 C709 0.950 . S
H705 C710 0.949 . S
H706 C712 0.950 . S
H707 C713 0.950 . S
H708 C714 0.949 . S
C709 H704 0.950 . S
C709 C711 1.327 . S
C709 C715 1.429 . S
C710 C702 1.574 . S
C710 H705 0.949 . S
C710 C716 1.368 . S
C711 C695 1.349 . S
C711 H703 0.950 . S
C711 C709 1.327 . S
C712 C700 1.349 . S
C712 H706 0.950 . S
C712 C713 1.327 . S
C713 H707 0.950 . S
C713 C712 1.327 . S
C713 C717 1.429 . S
C714 C697 1.574 . S
C714 H708 0.949 . S
C714 C718 1.368 . S
C715 C696 1.429 . S
C715 C709 1.429 . S
C715 C716 1.523 . S
C716 C697 1.368 . S
C716 C710 1.368 . S
C716 C715 1.523 . S
C717 C701 1.429 . S
C717 C713 1.429 . S
C717 C718 1.523 . S
C718 C702 1.368 . S
C718 C714 1.368 . S
C718 C717 1.523 . S
H719 C694 0.950 . S
H720 C696 0.950 . S
H721 C697 0.949 . S
H722 C699 0.950 . S
H723 C701 0.950 . S
C724 C725 1.349 . S
C724 C726 1.327 . S
C724 H749 0.950 . S
C725 C724 1.349 . S
C725 C741 1.349 . S
C726 C724 1.327 . S
C726 C745 1.429 . S
C726 H750 0.950 . S
C727 C744 1.574 . S
C727 C746 1.368 . S
C727 H751 0.949 . S
H728 C732 0.949 . S
C729 C730 1.349 . S
C729 C731 1.327 . S
C729 H752 0.950 . S
C730 C729 1.349 . S
C730 C742 1.349 . S
C731 C729 1.327 . S
C731 C747 1.429 . S
C731 H753 0.950 . S
C732 H728 0.949 . S
C732 C740 1.574 . S
C732 C748 1.368 . S
H733 C741 0.950 . S
H734 C739 0.950 . S
H735 C740 0.949 . S
H736 C742 0.950 . S
H737 C743 0.950 . S
H738 C744 0.949 . S
C739 H734 0.950 . S
C739 C741 1.327 . S
C739 C745 1.429 . S
C740 C732 1.574 . S
C740 H735 0.949 . S
C740 C746 1.368 . S
C741 C725 1.349 . S
C741 H733 0.950 . S
C741 C739 1.327 . S
C742 C730 1.349 . S
C742 H736 0.950 . S
C742 C743 1.327 . S
C743 H737 0.950 . S
C743 C742 1.327 . S
C743 C747 1.429 . S
C744 C727 1.574 . S
C744 H738 0.949 . S
C744 C748 1.368 . S
C745 C726 1.429 . S
C745 C739 1.429 . S
C745 C746 1.523 . S
C746 C727 1.368 . S
C746 C740 1.368 . S
C746 C745 1.523 . S
C747 C731 1.429 . S
C747 C743 1.429 . S
C747 C748 1.523 . S
C748 C732 1.368 . S
C748 C744 1.368 . S
C748 C747 1.523 . S
H749 C724 0.950 . S
H750 C726 0.950 . S
H751 C727 0.949 . S
H752 C729 0.950 . S
H753 C731 0.950 . S
C754 C755 1.349 . S
C754 C756 1.327 . S
C754 H779 0.950 . S
C755 C754 1.349 . S
C755 C771 1.349 . S
C756 C754 1.327 . S
C756 C775 1.429 . S
C756 H780 0.950 . S
C757 C774 1.574 . S
C757 C776 1.368 . S
C757 H781 0.949 . S
H758 C762 0.949 . S
C759 C760 1.349 . S
C759 C761 1.327 . S
C759 H782 0.950 . S
C760 C759 1.349 . S
C760 C772 1.349 . S
C761 C759 1.327 . S
C761 C777 1.429 . S
C761 H783 0.950 . S
C762 H758 0.949 . S
C762 C770 1.574 1_556 S
C762 C778 1.368 . S
H763 C771 0.950 . S
H764 C769 0.950 . S
H765 C770 0.949 . S
H766 C772 0.950 . S
H767 C773 0.950 . S
H768 C774 0.949 . S
C769 H764 0.950 . S
C769 C771 1.327 . S
C769 C775 1.429 . S
C770 C762 1.574 1_554 S
C770 H765 0.949 . S
C770 C776 1.368 . S
C771 C755 1.349 . S
C771 H763 0.950 . S
C771 C769 1.327 . S
C772 C760 1.349 . S
C772 H766 0.950 . S
C772 C773 1.327 . S
C773 H767 0.950 . S
C773 C772 1.327 . S
C773 C777 1.429 . S
C774 C757 1.574 . S
C774 H768 0.949 . S
C774 C778 1.368 1_554 S
C775 C756 1.429 . S
C775 C769 1.429 . S
C775 C776 1.523 . S
C776 C757 1.368 . S
C776 C770 1.368 . S
C776 C775 1.523 . S
C777 C761 1.429 . S
C777 C773 1.429 . S
C777 C778 1.523 . S
C778 C762 1.368 . S
C778 C774 1.368 1_556 S
C778 C777 1.523 . S
H779 C754 0.950 . S
H780 C756 0.950 . S
H781 C757 0.949 . S
H782 C759 0.950 . S
H783 C761 0.950 . S
C784 C785 1.349 . S
C784 C786 1.327 . S
C784 H809 0.929 1_455 S
C785 C784 1.349 . S
C785 C801 1.349 . S
C786 C784 1.327 . S
C786 C805 1.429 . S
C786 H810 0.950 . S
C787 C804 1.574 . S
C787 C806 1.368 . S
C787 H811 0.949 . S
H788 C792 0.949 . S
C789 C790 1.349 . S
C789 C791 1.327 . S
C789 H812 0.950 . S
C790 C789 1.349 . S
C790 C802 1.349 . S
C791 C789 1.327 . S
C791 C807 1.429 . S
C791 H813 0.950 . S
C792 H788 0.949 . S
C792 C800 1.574 . S
C792 C808 1.368 . S
H793 C801 0.950 . S
H794 C799 0.950 . S
H795 C800 0.949 . S
H796 C802 0.950 . S
H797 C803 0.950 . S
H798 C804 0.949 . S
C799 H794 0.950 . S
C799 C801 1.327 . S
C799 C805 1.429 . S
C800 C792 1.574 . S
C800 H795 0.949 . S
C800 C806 1.368 . S
C801 C785 1.349 . S
C801 H793 0.950 . S
C801 C799 1.327 . S
C802 C790 1.349 . S
C802 H796 0.950 . S
C802 C803 1.327 . S
C803 H797 0.950 . S
C803 C802 1.327 . S
C803 C807 1.429 . S
C804 C787 1.574 . S
C804 H798 0.949 . S
C804 C808 1.368 . S
C805 C786 1.429 . S
C805 C799 1.429 . S
C805 C806 1.523 . S
C806 C787 1.368 . S
C806 C800 1.368 . S
C806 C805 1.523 . S
C807 C791 1.429 . S
C807 C803 1.429 . S
C807 C808 1.523 . S
C808 C792 1.368 . S
C808 C804 1.368 . S
C808 C807 1.523 . S
H809 C784 0.929 1_655 S
H810 C786 0.950 . S
H811 C787 0.949 . S
H812 C789 0.950 . S
H813 C791 0.950 . S
C814 C815 1.349 . S
C814 C816 1.327 . S
C814 H839 0.950 . S
C815 C814 1.349 . S
C815 C831 1.349 . S
C816 C814 1.327 . S
C816 C835 1.429 . S
C816 H840 0.950 . S
C817 C834 1.574 . S
C817 C836 1.368 . S
C817 H841 0.949 . S
H818 C822 0.949 . S
C819 C820 1.349 . S
C819 C821 1.327 . S
C819 H842 0.950 . S
C820 C819 1.349 . S
C820 C832 1.349 . S
C821 C819 1.327 . S
C821 C837 1.429 . S
C821 H843 0.950 . S
C822 H818 0.949 . S
C822 C830 1.574 . S
C822 C838 1.368 . S
H823 C831 0.950 . S
H824 C829 0.950 . S
H825 C830 0.949 . S
H826 C832 0.950 . S
H827 C833 0.950 . S
H828 C834 0.949 . S
C829 H824 0.950 . S
C829 C831 1.327 . S
C829 C835 1.429 . S
C830 C822 1.574 . S
C830 H825 0.949 . S
C830 C836 1.368 . S
C831 C815 1.349 . S
C831 H823 0.950 . S
C831 C829 1.327 . S
C832 C820 1.349 . S
C832 H826 0.950 . S
C832 C833 1.327 . S
C833 H827 0.950 . S
C833 C832 1.327 . S
C833 C837 1.429 . S
C834 C817 1.574 . S
C834 H828 0.949 . S
C834 C838 1.368 . S
C835 C816 1.429 . S
C835 C829 1.429 . S
C835 C836 1.523 . S
C836 C817 1.368 . S
C836 C830 1.368 . S
C836 C835 1.523 . S
C837 C821 1.429 . S
C837 C833 1.429 . S
C837 C838 1.523 . S
C838 C822 1.368 . S
C838 C834 1.368 . S
C838 C837 1.523 . S
H839 C814 0.950 . S
H840 C816 0.950 . S
H841 C817 0.949 . S
H842 C819 0.950 . S
H843 C821 0.950 . S
C844 C845 1.349 . S
C844 C846 1.327 . S
C844 H869 0.950 . S
C845 C844 1.349 . S
C845 C861 1.349 . S
C846 C844 1.327 . S
C846 C865 1.429 . S
C846 H870 0.950 . S
C847 C864 1.574 . S
C847 C866 1.368 . S
C847 H871 0.949 . S
H848 C852 0.949 . S
C849 C850 1.349 . S
C849 C851 1.327 . S
C849 H872 0.950 . S
C850 C849 1.349 . S
C850 C862 1.349 . S
C851 C849 1.327 . S
C851 C867 1.429 . S
C851 H873 0.950 . S
C852 H848 0.949 . S
C852 C860 1.574 . S
C852 C868 1.368 . S
H853 C861 0.950 . S
H854 C859 0.950 . S
H855 C860 0.949 . S
H856 C862 0.950 . S
H857 C863 0.950 . S
H858 C864 0.949 . S
C859 H854 0.950 . S
C859 C861 1.327 . S
C859 C865 1.429 . S
C860 C852 1.574 . S
C860 H855 0.949 . S
C860 C866 1.368 . S
C861 C845 1.349 . S
C861 H853 0.950 . S
C861 C859 1.327 . S
C862 C850 1.349 . S
C862 H856 0.950 . S
C862 C863 1.327 . S
C863 H857 0.950 . S
C863 C862 1.327 . S
C863 C867 1.429 . S
C864 C847 1.574 . S
C864 H858 0.949 . S
C864 C868 1.368 . S
C865 C846 1.429 . S
C865 C859 1.429 . S
C865 C866 1.523 . S
C866 C847 1.368 . S
C866 C860 1.368 . S
C866 C865 1.523 . S
C867 C851 1.429 . S
C867 C863 1.429 . S
C867 C868 1.523 . S
C868 C852 1.368 . S
C868 C864 1.368 . S
C868 C867 1.523 . S
H869 C844 0.950 . S
H870 C846 0.950 . S
H871 C847 0.949 . S
H872 C849 0.950 . S
H873 C851 0.950 . S
C874 C875 1.349 . S
C874 C876 1.327 . S
C874 H899 0.950 . S
C875 C874 1.349 . S
C875 C891 1.349 . S
C876 C874 1.327 . S
C876 C895 1.429 . S
C876 H900 0.950 . S
C877 C894 1.574 1_556 S
C877 C896 1.368 . S
C877 H901 0.949 . S
H878 C882 0.948 1_554 S
C879 C880 1.349 . S
C879 C881 1.327 . S
C879 H902 0.950 . S
C880 C879 1.349 . S
C880 C892 1.349 . S
C881 C879 1.327 . S
C881 C897 1.429 . S
C881 H903 0.950 . S
C882 H878 0.948 1_556 S
C882 C890 1.576 . S
C882 C898 1.367 1_556 S
H883 C891 0.950 . S
H884 C889 0.950 . S
H885 C890 0.949 . S
H886 C892 0.950 . S
H887 C893 0.950 . S
H888 C894 0.949 . S
C889 H884 0.950 . S
C889 C891 1.327 . S
C889 C895 1.429 . S
C890 C882 1.576 . S
C890 H885 0.949 . S
C890 C896 1.368 . S
C891 C875 1.349 . S
C891 H883 0.950 . S
C891 C889 1.327 . S
C892 C880 1.349 . S
C892 H886 0.950 . S
C892 C893 1.327 . S
C893 H887 0.950 . S
C893 C892 1.327 . S
C893 C897 1.429 . S
C894 C877 1.574 1_554 S
C894 H888 0.949 . S
C894 C898 1.368 . S
C895 C876 1.429 . S
C895 C889 1.429 . S
C895 C896 1.523 . S
C896 C877 1.368 . S
C896 C890 1.368 . S
C896 C895 1.523 . S
C897 C881 1.429 . S
C897 C893 1.429 . S
C897 C898 1.523 . S
C898 C882 1.367 1_554 S
C898 C894 1.368 . S
C898 C897 1.523 . S
H899 C874 0.950 . S
H900 C876 0.950 . S
H901 C877 0.949 . S
H902 C879 0.950 . S
H903 C881 0.950 . S
C904 C905 1.349 . S
C904 C906 1.327 . S
C904 H929 0.950 . S
C905 C904 1.349 . S
C905 C921 1.349 . S
C906 C904 1.327 . S
C906 C925 1.429 . S
C906 H930 0.950 . S
C907 C924 1.574 . S
C907 C926 1.368 . S
C907 H931 0.949 . S
H908 C912 0.949 . S
C909 C910 1.349 . S
C909 C911 1.327 . S
C909 H932 0.950 . S
C910 C909 1.349 . S
C910 C922 1.349 . S
C911 C909 1.327 . S
C911 C927 1.429 . S
C911 H933 0.950 . S
C912 H908 0.949 . S
C912 C920 1.574 . S
C912 C928 1.368 . S
H913 C921 0.985 . S
H914 C919 0.950 . S
H915 C920 0.949 . S
H916 C922 0.950 . S
H917 C923 0.950 . S
H918 C924 0.949 . S
C919 H914 0.950 . S
C919 C921 1.327 . S
C919 C925 1.429 . S
C920 C912 1.574 . S
C920 H915 0.949 . S
C920 C926 1.368 . S
C921 C905 1.349 . S
C921 H913 0.985 . S
C921 C919 1.327 . S
C922 C910 1.349 . S
C922 H916 0.950 . S
C922 C923 1.327 . S
C923 H917 0.950 . S
C923 C922 1.327 . S
C923 C927 1.429 . S
C924 C907 1.574 . S
C924 H918 0.949 . S
C924 C928 1.368 . S
C925 C906 1.429 . S
C925 C919 1.429 . S
C925 C926 1.523 . S
C926 C907 1.368 . S
C926 C920 1.368 . S
C926 C925 1.523 . S
C927 C911 1.429 . S
C927 C923 1.429 . S
C927 C928 1.523 . S
C928 C912 1.368 . S
C928 C924 1.368 . S
C928 C927 1.523 . S
H929 C904 0.950 . S
H930 C906 0.950 . S
H931 C907 0.949 . S
H932 C909 0.950 . S
H933 C911 0.950 . S
C934 C935 1.349 . S
C934 C936 1.327 . S
C934 H959 0.950 . S
C935 C934 1.349 . S
C935 C951 1.349 . S
C936 C934 1.327 . S
C936 C955 1.429 . S
C936 H960 0.950 . S
C937 C954 1.574 . S
C937 C956 1.368 . S
C937 H961 0.949 . S
H938 C942 0.949 1_565 S
C939 C940 1.349 . S
C939 C941 1.327 . S
C939 H962 0.950 . S
C940 C939 1.349 . S
C940 C952 1.349 . S
C941 C939 1.327 . S
C941 C957 1.429 . S
C941 H963 0.950 . S
C942 H938 0.949 1_545 S
C942 C950 1.574 . S
C942 C958 1.368 1_545 S
H943 C951 0.950 . S
H944 C949 0.950 . S
H945 C950 0.949 . S
H946 C952 0.950 . S
H947 C953 0.950 . S
H948 C954 0.949 1_565 S
C949 H944 0.950 . S
C949 C951 1.327 . S
C949 C955 1.429 . S
C950 C942 1.574 . S
C950 H945 0.949 . S
C950 C956 1.368 . S
C951 C935 1.349 . S
C951 H943 0.950 . S
C951 C949 1.327 . S
C952 C940 1.349 . S
C952 H946 0.950 . S
C952 C953 1.327 . S
C953 H947 0.950 . S
C953 C952 1.327 . S
C953 C957 1.429 . S
C954 C937 1.574 . S
C954 H948 0.949 1_545 S
C954 C958 1.368 1_545 S
C955 C936 1.429 . S
C955 C949 1.429 . S
C955 C956 1.523 . S
C956 C937 1.368 . S
C956 C950 1.368 . S
C956 C955 1.523 . S
C957 C941 1.429 . S
C957 C953 1.429 . S
C957 C958 1.523 . S
C958 C942 1.368 1_565 S
C958 C954 1.368 1_565 S
C958 C957 1.523 . S
H959 C934 0.950 . S
H960 C936 0.950 . S
H961 C937 0.949 . S
H962 C939 0.950 . S
H963 C941 0.950 . S
C964 C965 1.349 . S
C964 C966 1.327 . S
C964 H989 0.950 1_565 S
C965 C964 1.349 . S
C965 C981 1.349 . S
C966 C964 1.327 . S
C966 C985 1.429 . S
C966 H990 0.950 . S
C967 C984 1.574 . S
C967 C986 1.368 . S
C967 H991 0.949 . S
H968 C972 0.949 . S
C969 C970 1.349 . S
C969 C971 1.327 . S
C969 H992 0.950 . S
C970 C969 1.349 . S
C970 C982 1.349 . S
C971 C969 1.327 . S
C971 C987 1.429 . S
C971 H993 0.950 . S
C972 H968 0.949 . S
C972 C980 1.574 . S
C972 C988 1.368 . S
H973 C981 0.950 . S
H974 C979 0.950 . S
H975 C980 0.949 . S
H976 C982 0.950 . S
H977 C983 0.950 . S
H978 C984 0.949 . S
C979 H974 0.950 . S
C979 C981 1.327 . S
C979 C985 1.429 . S
C980 C972 1.574 . S
C980 H975 0.949 . S
C980 C986 1.368 . S
C981 C965 1.349 . S
C981 H973 0.950 . S
C981 C979 1.327 . S
C982 C970 1.349 . S
C982 H976 0.950 . S
C982 C983 1.327 . S
C983 H977 0.950 . S
C983 C982 1.327 . S
C983 C987 1.429 . S
C984 C967 1.574 . S
C984 H978 0.949 . S
C984 C988 1.368 . S
C985 C966 1.429 . S
C985 C979 1.429 . S
C985 C986 1.523 . S
C986 C967 1.368 . S
C986 C980 1.368 . S
C986 C985 1.523 . S
C987 C971 1.429 . S
C987 C983 1.429 . S
C987 C988 1.523 . S
C988 C972 1.368 . S
C988 C984 1.368 . S
C988 C987 1.523 . S
H989 C964 0.950 1_545 S
H990 C966 0.950 . S
H991 C967 0.949 . S
H992 C969 0.950 . S
H993 C971 0.950 . S
C994 C995 1.349 . S
C994 C996 1.327 . S
C994 H1019 0.950 . S
C995 C994 1.349 . S
C995 C1011 1.349 . S
C996 C994 1.327 . S
C996 C1015 1.429 . S
C996 H1020 0.950 . S
C997 C1014 1.574 1_565 S
C997 C1016 1.368 . S
C997 H1021 0.949 . S
H998 C1002 0.949 . S
C999 C1000 1.349 . S
C999 C1001 1.327 . S
C999 H1022 0.950 . S
C1000 C999 1.349 . S
C1000 C1012 1.349 . S
C1001 C999 1.327 . S
C1001 C1017 1.429 . S
C1001 H1023 0.950 . S
C1002 H998 0.949 . S
C1002 C1010 1.574 1_545 S
C1002 C1018 1.368 . S
H1003 C1011 0.950 . S
H1004 C1009 0.950 . S
H1005 C1010 0.949 . S
H1006 C1012 0.950 . S
H1007 C1013 0.950 . S
H1008 C1014 0.949 . S
C1009 H1004 0.950 . S
C1009 C1011 1.327 . S
C1009 C1015 1.429 . S
C1010 C1002 1.574 1_565 S
C1010 H1005 0.949 . S
C1010 C1016 1.368 . S
C1011 C995 1.349 . S
C1011 H1003 0.950 . S
C1011 C1009 1.327 . S
C1012 C1000 1.349 . S
C1012 H1006 0.950 . S
C1012 C1013 1.327 . S
C1013 H1007 0.950 . S
C1013 C1012 1.327 . S
C1013 C1017 1.429 . S
C1014 C997 1.574 1_545 S
C1014 H1008 0.949 . S
C1014 C1018 1.368 . S
C1015 C996 1.429 . S
C1015 C1009 1.429 . S
C1015 C1016 1.523 . S
C1016 C997 1.368 . S
C1016 C1010 1.368 . S
C1016 C1015 1.523 . S
C1017 C1001 1.429 . S
C1017 C1013 1.429 . S
C1017 C1018 1.523 . S
C1018 C1002 1.368 . S
C1018 C1014 1.368 . S
C1018 C1017 1.523 . S
H1019 C994 0.950 . S
H1020 C996 0.950 . S
H1021 C997 0.949 . S
H1022 C999 0.950 . S
H1023 C1001 0.950 . S
C1024 C1025 1.349 . S
C1024 C1026 1.327 . S
C1024 H1049 0.950 . S
C1025 C1024 1.349 . S
C1025 C1041 1.349 . S
C1026 C1024 1.327 . S
C1026 C1045 1.429 . S
C1026 H1050 0.950 . S
C1027 C1044 1.574 . S
C1027 C1046 1.368 . S
C1027 H1051 0.949 . S
H1028 C1032 0.949 . S
C1029 C1030 1.349 . S
C1029 C1031 1.327 . S
C1029 H1052 0.950 . S
C1030 C1029 1.349 . S
C1030 C1042 1.349 . S
C1031 C1029 1.327 . S
C1031 C1047 1.429 . S
C1031 H1053 0.950 . S
C1032 H1028 0.949 . S
C1032 C1040 1.574 . S
C1032 C1048 1.368 . S
H1033 C1041 0.950 . S
H1034 C1039 0.950 . S
H1035 C1040 0.949 . S
H1036 C1042 0.950 . S
H1037 C1043 0.950 . S
H1038 C1044 0.949 . S
C1039 H1034 0.950 . S
C1039 C1041 1.327 . S
C1039 C1045 1.429 . S
C1040 C1032 1.574 . S
C1040 H1035 0.949 . S
C1040 C1046 1.368 . S
C1041 C1025 1.349 . S
C1041 H1033 0.950 . S
C1041 C1039 1.327 . S
C1042 C1030 1.349 . S
C1042 H1036 0.950 . S
C1042 C1043 1.327 . S
C1043 H1037 0.950 . S
C1043 C1042 1.327 . S
C1043 C1047 1.429 . S
C1044 C1027 1.574 . S
C1044 H1038 0.949 . S
C1044 C1048 1.368 . S
C1045 C1026 1.429 . S
C1045 C1039 1.429 . S
C1045 C1046 1.523 . S
C1046 C1027 1.368 . S
C1046 C1040 1.368 . S
C1046 C1045 1.523 . S
C1047 C1031 1.429 . S
C1047 C1043 1.429 . S
C1047 C1048 1.523 . S
C1048 C1032 1.368 . S
C1048 C1044 1.368 . S
C1048 C1047 1.523 . S
H1049 C1024 0.950 . S
H1050 C1026 0.950 . S
H1051 C1027 0.949 . S
H1052 C1029 0.950 . S
H1053 C1031 0.950 . S
C1054 C1055 1.349 . S
C1054 C1056 1.327 . S
C1054 H1079 0.950 . S
C1055 C1054 1.349 . S
C1055 C1071 1.349 . S
C1056 C1054 1.327 . S
C1056 C1075 1.429 . S
C1056 H1080 0.950 . S
C1057 C1074 1.574 . S
C1057 C1076 1.368 . S
C1057 H1081 0.949 . S
H1058 C1062 0.949 1_565 S
C1059 C1060 1.349 . S
C1059 C1061 1.327 . S
C1059 H1082 0.950 . S
C1060 C1059 1.349 . S
C1060 C1072 1.349 . S
C1061 C1059 1.327 . S
C1061 C1077 1.429 . S
C1061 H1083 0.950 . S
C1062 H1058 0.949 1_545 S
C1062 C1070 1.574 . S
C1062 C1078 1.368 1_545 S
H1063 C1071 0.950 . S
H1064 C1069 0.950 . S
H1065 C1070 0.949 . S
H1066 C1072 0.950 . S
H1067 C1073 0.950 . S
H1068 C1074 0.949 . S
C1069 H1064 0.950 . S
C1069 C1071 1.327 . S
C1069 C1075 1.429 . S
C1070 C1062 1.574 . S
C1070 H1065 0.949 . S
C1070 C1076 1.368 . S
C1071 C1055 1.349 . S
C1071 H1063 0.950 . S
C1071 C1069 1.327 . S
C1072 C1060 1.349 . S
C1072 H1066 0.950 . S
C1072 C1073 1.327 . S
C1073 H1067 0.950 . S
C1073 C1072 1.327 . S
C1073 C1077 1.429 . S
C1074 C1057 1.574 . S
C1074 H1068 0.949 . S
C1074 C1078 1.368 1_545 S
C1075 C1056 1.429 . S
C1075 C1069 1.429 . S
C1075 C1076 1.523 . S
C1076 C1057 1.368 . S
C1076 C1070 1.368 . S
C1076 C1075 1.523 . S
C1077 C1061 1.429 . S
C1077 C1073 1.429 . S
C1077 C1078 1.523 . S
C1078 C1062 1.368 1_565 S
C1078 C1074 1.368 1_565 S
C1078 C1077 1.523 . S
H1079 C1054 0.950 . S
H1080 C1056 0.950 . S
H1081 C1057 0.949 . S
H1082 C1059 0.950 . S
H1083 C1061 0.950 . S
C1084 C1085 1.349 . S
C1084 C1086 1.327 . S
C1084 H1109 0.950 . S
C1085 C1084 1.349 . S
C1085 C1101 1.349 . S
C1086 C1084 1.327 . S
C1086 C1105 1.429 . S
C1086 H1110 0.950 . S
C1087 C1104 1.574 . S
C1087 C1106 1.368 . S
C1087 H1111 0.949 . S
H1088 C1092 0.949 . S
C1089 C1090 1.349 . S
C1089 C1091 1.327 . S
C1089 H1112 0.950 . S
C1090 C1089 1.349 . S
C1090 C1102 1.349 . S
C1091 C1089 1.327 . S
C1091 C1107 1.429 . S
C1091 H1113 0.950 . S
C1092 H1088 0.949 . S
C1092 C1100 1.574 . S
C1092 C1108 1.368 . S
H1093 C1101 0.950 . S
H1094 C1099 0.950 . S
H1095 C1100 0.949 . S
H1096 C1102 0.950 . S
H1097 C1103 0.950 . S
H1098 C1104 0.949 . S
C1099 H1094 0.950 . S
C1099 C1101 1.327 . S
C1099 C1105 1.429 . S
C1100 C1092 1.574 . S
C1100 H1095 0.949 . S
C1100 C1106 1.368 . S
C1101 C1085 1.349 . S
C1101 H1093 0.950 . S
C1101 C1099 1.327 . S
C1102 C1090 1.349 . S
C1102 H1096 0.950 . S
C1102 C1103 1.327 . S
C1103 H1097 0.950 . S
C1103 C1102 1.327 . S
C1103 C1107 1.429 . S
C1104 C1087 1.574 . S
C1104 H1098 0.949 . S
C1104 C1108 1.368 . S
C1105 C1086 1.429 . S
C1105 C1099 1.429 . S
C1105 C1106 1.523 . S
C1106 C1087 1.368 . S
C1106 C1100 1.368 . S
C1106 C1105 1.523 . S
C1107 C1091 1.429 . S
C1107 C1103 1.429 . S
C1107 C1108 1.523 . S
C1108 C1092 1.368 . S
C1108 C1104 1.368 . S
C1108 C1107 1.523 . S
H1109 C1084 0.950 . S
H1110 C1086 0.950 . S
H1111 C1087 0.949 . S
H1112 C1089 0.950 . S
H1113 C1091 0.950 . S
C1114 C1115 1.349 . S
C1114 C1116 1.327 . S
C1114 H1139 0.950 . S
C1115 C1114 1.349 . S
C1115 C1131 1.349 . S
C1116 C1114 1.327 . S
C1116 C1135 1.429 . S
C1116 H1140 0.950 . S
C1117 C1134 1.574 1_565 S
C1117 C1136 1.368 . S
C1117 H1141 0.949 . S
H1118 C1122 0.949 . S
C1119 C1120 1.349 . S
C1119 C1121 1.327 . S
C1119 H1142 0.950 . S
C1120 C1119 1.349 . S
C1120 C1132 1.349 . S
C1121 C1119 1.327 . S
C1121 C1137 1.429 . S
C1121 H1143 0.950 . S
C1122 H1118 0.949 . S
C1122 C1130 1.574 . S
C1122 C1138 1.368 1_565 S
H1123 C1131 0.950 . S
H1124 C1129 0.950 . S
H1125 C1130 0.949 . S
H1126 C1132 0.950 . S
H1127 C1133 0.950 . S
H1128 C1134 0.949 . S
C1129 H1124 0.950 . S
C1129 C1131 1.327 . S
C1129 C1135 1.429 . S
C1130 C1122 1.574 . S
C1130 H1125 0.949 . S
C1130 C1136 1.368 . S
C1131 C1115 1.349 . S
C1131 H1123 0.950 . S
C1131 C1129 1.327 . S
C1132 C1120 1.349 . S
C1132 H1126 0.950 . S
C1132 C1133 1.327 . S
C1133 H1127 0.950 . S
C1133 C1132 1.327 . S
C1133 C1137 1.429 . S
C1134 C1117 1.574 1_545 S
C1134 H1128 0.949 . S
C1134 C1138 1.368 . S
C1135 C1116 1.429 . S
C1135 C1129 1.429 . S
C1135 C1136 1.523 . S
C1136 C1117 1.368 . S
C1136 C1130 1.368 . S
C1136 C1135 1.523 . S
C1137 C1121 1.429 . S
C1137 C1133 1.429 . S
C1137 C1138 1.523 . S
C1138 C1122 1.368 1_545 S
C1138 C1134 1.368 . S
C1138 C1137 1.523 . S
H1139 C1114 0.950 . S
H1140 C1116 0.950 . S
H1141 C1117 0.949 . S
H1142 C1119 0.950 . S
H1143 C1121 0.950 . S
C1144 C1145 1.349 . S
C1144 C1146 1.327 . S
C1144 H1169 0.950 . S
C1145 C1144 1.349 . S
C1145 C1161 1.349 . S
C1146 C1144 1.327 . S
C1146 C1165 1.429 . S
C1146 H1170 0.950 . S
C1147 C1164 1.574 . S
C1147 C1166 1.368 . S
C1147 H1171 0.949 . S
H1148 C1152 0.949 . S
C1149 C1150 1.349 . S
C1149 C1151 1.327 . S
C1149 H1172 0.950 . S
C1150 C1149 1.349 . S
C1150 C1162 1.349 . S
C1151 C1149 1.327 . S
C1151 C1167 1.429 . S
C1151 H1173 0.950 . S
C1152 H1148 0.949 . S
C1152 C1160 1.574 . S
C1152 C1168 1.368 . S
H1153 C1161 0.950 . S
H1154 C1159 0.950 . S
H1155 C1160 0.949 . S
H1156 C1162 0.950 . S
H1157 C1163 0.950 . S
H1158 C1164 0.949 . S
C1159 H1154 0.950 . S
C1159 C1161 1.327 . S
C1159 C1165 1.429 . S
C1160 C1152 1.574 . S
C1160 H1155 0.949 . S
C1160 C1166 1.368 . S
C1161 C1145 1.349 . S
C1161 H1153 0.950 . S
C1161 C1159 1.327 . S
C1162 C1150 1.349 . S
C1162 H1156 0.950 . S
C1162 C1163 1.327 . S
C1163 H1157 0.950 . S
C1163 C1162 1.327 . S
C1163 C1167 1.429 . S
C1164 C1147 1.574 . S
C1164 H1158 0.949 . S
C1164 C1168 1.368 . S
C1165 C1146 1.429 . S
C1165 C1159 1.429 . S
C1165 C1166 1.523 . S
C1166 C1147 1.368 . S
C1166 C1160 1.368 . S
C1166 C1165 1.523 . S
C1167 C1151 1.429 . S
C1167 C1163 1.429 . S
C1167 C1168 1.523 . S
C1168 C1152 1.368 . S
C1168 C1164 1.368 . S
C1168 C1167 1.523 . S
H1169 C1144 0.950 . S
H1170 C1146 0.950 . S
H1171 C1147 0.949 . S
H1172 C1149 0.950 . S
H1173 C1151 0.950 . S
C1174 C1175 1.349 . S
C1174 C1176 1.327 . S
C1174 H1199 0.950 . S
C1175 C1174 1.349 . S
C1175 C1191 1.349 . S
C1176 C1174 1.327 . S
C1176 C1195 1.429 . S
C1176 H1200 0.950 . S
C1177 C1194 1.574 . S
C1177 C1196 1.368 . S
C1177 H1201 0.949 . S
H1178 C1182 0.949 . S
C1179 C1180 1.349 . S
C1179 C1181 1.327 . S
C1179 H1202 0.950 . S
C1180 C1179 1.349 . S
C1180 C1192 1.349 . S
C1181 C1179 1.327 . S
C1181 C1197 1.429 . S
C1181 H1203 0.950 . S
C1182 H1178 0.949 . S
C1182 C1190 1.574 . S
C1182 C1198 1.368 . S
H1183 C1191 0.950 . S
H1184 C1189 0.950 . S
H1185 C1190 0.949 . S
H1186 C1192 0.950 . S
H1187 C1193 0.950 . S
H1188 C1194 0.949 . S
C1189 H1184 0.950 . S
C1189 C1191 1.327 . S
C1189 C1195 1.429 . S
C1190 C1182 1.574 . S
C1190 H1185 0.949 . S
C1190 C1196 1.368 . S
C1191 C1175 1.349 . S
C1191 H1183 0.950 . S
C1191 C1189 1.327 . S
C1192 C1180 1.349 . S
C1192 H1186 0.950 . S
C1192 C1193 1.327 . S
C1193 H1187 0.950 . S
C1193 C1192 1.327 . S
C1193 C1197 1.429 . S
C1194 C1177 1.574 . S
C1194 H1188 0.949 . S
C1194 C1198 1.368 . S
C1195 C1176 1.429 . S
C1195 C1189 1.429 . S
C1195 C1196 1.523 . S
C1196 C1177 1.368 . S
C1196 C1190 1.368 . S
C1196 C1195 1.523 . S
C1197 C1181 1.429 . S
C1197 C1193 1.429 . S
C1197 C1198 1.523 . S
C1198 C1182 1.368 . S
C1198 C1194 1.368 . S
C1198 C1197 1.523 . S
H1199 C1174 0.950 . S
H1200 C1176 0.950 . S
H1201 C1177 0.949 . S
H1202 C1179 0.950 . S
H1203 C1181 0.950 . S
C1204 C1205 1.349 . S
C1204 C1206 1.327 . S
C1204 H1229 0.950 . S
C1205 C1204 1.349 . S
C1205 C1221 1.349 . S
C1206 C1204 1.327 . S
C1206 C1225 1.429 . S
C1206 H1230 0.950 . S
C1207 C1224 1.574 1_455 S
C1207 C1226 1.368 . S
C1207 H1231 0.949 . S
H1208 C1212 0.949 1_655 S
C1209 C1210 1.349 . S
C1209 C1211 1.327 . S
C1209 H1232 0.950 . S
C1210 C1209 1.349 . S
C1210 C1222 1.349 . S
C1211 C1209 1.327 . S
C1211 C1227 1.429 . S
C1211 H1233 0.950 . S
C1212 H1208 0.949 1_455 S
C1212 C1220 1.574 . S
C1212 C1228 1.368 1_455 S
H1213 C1221 0.950 . S
H1214 C1219 0.950 . S
H1215 C1220 0.949 . S
H1216 C1222 0.950 . S
H1217 C1223 0.950 . S
H1218 C1224 0.949 . S
C1219 H1214 0.950 . S
C1219 C1221 1.327 . S
C1219 C1225 1.429 . S
C1220 C1212 1.574 . S
C1220 H1215 0.949 . S
C1220 C1226 1.368 . S
C1221 C1205 1.349 . S
C1221 H1213 0.950 . S
C1221 C1219 1.327 . S
C1222 C1210 1.349 . S
C1222 H1216 0.950 . S
C1222 C1223 1.327 . S
C1223 H1217 0.950 . S
C1223 C1222 1.327 . S
C1223 C1227 1.429 . S
C1224 C1207 1.574 1_655 S
C1224 H1218 0.949 . S
C1224 C1228 1.368 . S
C1225 C1206 1.429 . S
C1225 C1219 1.429 . S
C1225 C1226 1.523 . S
C1226 C1207 1.368 . S
C1226 C1220 1.368 . S
C1226 C1225 1.523 . S
C1227 C1211 1.429 . S
C1227 C1223 1.429 . S
C1227 C1228 1.523 . S
C1228 C1212 1.368 1_655 S
C1228 C1224 1.368 . S
C1228 C1227 1.523 . S
H1229 C1204 0.950 . S
H1230 C1206 0.950 . S
H1231 C1207 0.949 . S
H1232 C1209 0.950 . S
H1233 C1211 0.950 . S
C1234 C1235 1.349 . S
C1234 C1236 1.327 . S
C1234 H1259 0.950 . S
C1235 C1234 1.349 . S
C1235 C1251 1.349 . S
C1236 C1234 1.327 . S
C1236 C1255 1.429 . S
C1236 H1260 0.950 . S
C1237 C1254 1.574 . S
C1237 C1256 1.368 . S
C1237 H1261 0.949 . S
H1238 C1242 0.949 . S
C1239 C1240 1.349 . S
C1239 C1241 1.327 . S
C1239 H1262 0.950 . S
C1240 C1239 1.349 . S
C1240 C1252 1.349 . S
C1241 C1239 1.327 . S
C1241 C1257 1.429 . S
C1241 H1263 0.950 . S
C1242 H1238 0.949 . S
C1242 C1250 1.574 . S
C1242 C1258 1.368 . S
H1243 C1251 0.950 . S
H1244 C1249 0.950 . S
H1245 C1250 0.949 . S
H1246 C1252 0.950 . S
H1247 C1253 0.950 . S
H1248 C1254 0.949 . S
C1249 H1244 0.950 . S
C1249 C1251 1.327 . S
C1249 C1255 1.429 . S
C1250 C1242 1.574 . S
C1250 H1245 0.949 . S
C1250 C1256 1.368 . S
C1251 C1235 1.349 . S
C1251 H1243 0.950 . S
C1251 C1249 1.327 . S
C1252 C1240 1.349 . S
C1252 H1246 0.950 . S
C1252 C1253 1.327 . S
C1253 H1247 0.950 . S
C1253 C1252 1.327 . S
C1253 C1257 1.429 . S
C1254 C1237 1.574 . S
C1254 H1248 0.949 . S
C1254 C1258 1.368 . S
C1255 C1236 1.429 . S
C1255 C1249 1.429 . S
C1255 C1256 1.523 . S
C1256 C1237 1.368 . S
C1256 C1250 1.368 . S
C1256 C1255 1.523 . S
C1257 C1241 1.429 . S
C1257 C1253 1.429 . S
C1257 C1258 1.523 . S
C1258 C1242 1.368 . S
C1258 C1254 1.368 . S
C1258 C1257 1.523 . S
H1259 C1234 0.950 . S
H1260 C1236 0.950 . S
H1261 C1237 0.949 . S
H1262 C1239 0.950 . S
H1263 C1241 0.950 . S
C1264 C1265 1.349 . S
C1264 C1266 1.327 . S
C1264 H1289 0.950 . S
C1265 C1264 1.349 . S
C1265 C1281 1.349 . S
C1266 C1264 1.327 . S
C1266 C1285 1.429 . S
C1266 H1290 0.950 . S
C1267 C1284 1.574 1_655 S
C1267 C1286 1.368 . S
C1267 H1291 0.949 . S
H1268 C1272 0.949 . S
C1269 C1270 1.349 . S
C1269 C1271 1.327 . S
C1269 H1292 0.950 . S
C1270 C1269 1.349 . S
C1270 C1282 1.349 . S
C1271 C1269 1.327 . S
C1271 C1287 1.429 . S
C1271 H1293 0.950 . S
C1272 H1268 0.949 . S
C1272 C1280 1.574 . S
C1272 C1288 1.368 1_655 S
H1273 C1281 0.950 . S
H1274 C1279 0.950 . S
H1275 C1280 0.949 . S
H1276 C1282 0.950 . S
H1277 C1283 0.950 . S
H1278 C1284 0.949 . S
C1279 H1274 0.950 . S
C1279 C1281 1.327 . S
C1279 C1285 1.429 . S
C1280 C1272 1.574 . S
C1280 H1275 0.949 . S
C1280 C1286 1.368 . S
C1281 C1265 1.349 . S
C1281 H1273 0.950 . S
C1281 C1279 1.327 . S
C1282 C1270 1.349 . S
C1282 H1276 0.950 . S
C1282 C1283 1.327 . S
C1283 H1277 0.950 . S
C1283 C1282 1.327 . S
C1283 C1287 1.429 . S
C1284 C1267 1.574 1_455 S
C1284 H1278 0.949 . S
C1284 C1288 1.368 . S
C1285 C1266 1.429 . S
C1285 C1279 1.429 . S
C1285 C1286 1.523 . S
C1286 C1267 1.368 . S
C1286 C1280 1.368 . S
C1286 C1285 1.523 . S
C1287 C1271 1.429 . S
C1287 C1283 1.429 . S
C1287 C1288 1.523 . S
C1288 C1272 1.368 1_455 S
C1288 C1284 1.368 . S
C1288 C1287 1.523 . S
H1289 C1264 0.950 . S
H1290 C1266 0.950 . S
H1291 C1267 0.949 . S
H1292 C1269 0.950 . S
H1293 C1271 0.950 . S
C1294 C1295 1.349 . S
C1294 C1296 1.327 . S
C1294 H1319 0.950 . S
C1295 C1294 1.349 . S
C1295 C1311 1.349 . S
C1296 C1294 1.327 . S
C1296 C1315 1.429 . S
C1296 H1320 0.950 . S
C1297 C1314 1.574 . S
C1297 C1316 1.368 . S
C1297 H1321 0.949 . S
H1298 C1302 0.949 . S
C1299 C1300 1.349 . S
C1299 C1301 1.327 . S
C1299 H1322 0.950 . S
C1300 C1299 1.349 . S
C1300 C1312 1.349 . S
C1301 C1299 1.327 . S
C1301 C1317 1.429 . S
C1301 H1323 0.950 . S
C1302 H1298 0.949 . S
C1302 C1310 1.574 . S
C1302 C1318 1.368 . S
H1303 C1311 0.950 . S
H1304 C1309 0.950 . S
H1305 C1310 0.949 . S
H1306 C1312 0.950 . S
H1307 C1313 0.950 . S
H1308 C1314 0.949 . S
C1309 H1304 0.950 . S
C1309 C1311 1.327 . S
C1309 C1315 1.429 . S
C1310 C1302 1.574 . S
C1310 H1305 0.949 . S
C1310 C1316 1.368 . S
C1311 C1295 1.349 . S
C1311 H1303 0.950 . S
C1311 C1309 1.327 . S
C1312 C1300 1.349 . S
C1312 H1306 0.950 . S
C1312 C1313 1.327 . S
C1313 H1307 0.950 . S
C1313 C1312 1.327 . S
C1313 C1317 1.429 . S
C1314 C1297 1.574 . S
C1314 H1308 0.949 . S
C1314 C1318 1.368 . S
C1315 C1296 1.429 . S
C1315 C1309 1.429 . S
C1315 C1316 1.523 . S
C1316 C1297 1.368 . S
C1316 C1310 1.368 . S
C1316 C1315 1.523 . S
C1317 C1301 1.429 . S
C1317 C1313 1.429 . S
C1317 C1318 1.523 . S
C1318 C1302 1.368 . S
C1318 C1314 1.368 . S
C1318 C1317 1.523 . S
H1319 C1294 0.950 . S
H1320 C1296 0.950 . S
H1321 C1297 0.949 . S
H1322 C1299 0.950 . S
H1323 C1301 0.950 . S
C1324 C1325 1.349 . S
C1324 C1326 1.327 . S
C1324 H1349 0.950 . S
C1325 C1324 1.349 . S
C1325 C1341 1.349 . S
C1326 C1324 1.327 . S
C1326 C1345 1.429 . S
C1326 H1350 0.950 . S
C1327 C1344 1.574 1_455 S
C1327 C1346 1.368 . S
C1327 H1351 0.949 . S
H1328 C1332 0.957 . S
C1329 C1330 1.349 . S
C1329 C1331 1.327 . S
C1329 H1352 0.950 . S
C1330 C1329 1.349 . S
C1330 C1342 1.349 . S
C1331 C1329 1.327 . S
C1331 C1347 1.429 . S
C1331 H1353 0.950 . S
C1332 H1328 0.957 . S
C1332 C1340 1.574 . S
C1332 C1348 1.368 1_455 S
H1333 C1341 0.950 . S
H1334 C1339 0.950 . S
H1335 C1340 0.949 . S
H1336 C1342 0.950 . S
H1337 C1343 0.950 . S
H1338 C1344 0.949 . S
C1339 H1334 0.950 . S
C1339 C1341 1.327 . S
C1339 C1345 1.429 . S
C1340 C1332 1.574 . S
C1340 H1335 0.949 . S
C1340 C1346 1.368 . S
C1341 C1325 1.349 . S
C1341 H1333 0.950 . S
C1341 C1339 1.327 . S
C1342 C1330 1.349 . S
C1342 H1336 0.950 . S
C1342 C1343 1.327 . S
C1343 H1337 0.950 . S
C1343 C1342 1.327 . S
C1343 C1347 1.429 . S
C1344 C1327 1.574 1_655 S
C1344 H1338 0.949 . S
C1344 C1348 1.368 . S
C1345 C1326 1.429 . S
C1345 C1339 1.429 . S
C1345 C1346 1.523 . S
C1346 C1327 1.368 . S
C1346 C1340 1.368 . S
C1346 C1345 1.523 . S
C1347 C1331 1.429 . S
C1347 C1343 1.429 . S
C1347 C1348 1.523 . S
C1348 C1332 1.368 1_655 S
C1348 C1344 1.368 . S
C1348 C1347 1.523 . S
H1349 C1324 0.950 . S
H1350 C1326 0.950 . S
H1351 C1327 0.949 . S
H1352 C1329 0.950 . S
H1353 C1331 0.950 . S
C1354 C1355 1.349 . S
C1354 C1356 1.327 . S
C1354 H1379 0.950 . S
C1355 C1354 1.349 . S
C1355 C1371 1.349 . S
C1356 C1354 1.327 . S
C1356 C1375 1.429 . S
C1356 H1380 0.950 . S
C1357 C1374 1.574 . S
C1357 C1376 1.368 . S
C1357 H1381 0.949 . S
H1358 C1362 0.949 . S
C1359 C1360 1.349 . S
C1359 C1361 1.327 . S
C1359 H1382 0.950 . S
C1360 C1359 1.349 . S
C1360 C1372 1.349 . S
C1361 C1359 1.327 . S
C1361 C1377 1.429 . S
C1361 H1383 0.950 . S
C1362 H1358 0.949 . S
C1362 C1370 1.574 . S
C1362 C1378 1.368 . S
H1363 C1371 0.950 . S
H1364 C1369 0.950 . S
H1365 C1370 0.949 . S
H1366 C1372 0.950 . S
H1367 C1373 0.950 . S
H1368 C1374 0.949 . S
C1369 H1364 0.950 . S
C1369 C1371 1.327 . S
C1369 C1375 1.429 . S
C1370 C1362 1.574 . S
C1370 H1365 0.949 . S
C1370 C1376 1.368 . S
C1371 C1355 1.349 . S
C1371 H1363 0.950 . S
C1371 C1369 1.327 . S
C1372 C1360 1.349 . S
C1372 H1366 0.950 . S
C1372 C1373 1.327 . S
C1373 H1367 0.950 . S
C1373 C1372 1.327 . S
C1373 C1377 1.429 . S
C1374 C1357 1.574 . S
C1374 H1368 0.949 . S
C1374 C1378 1.368 . S
C1375 C1356 1.429 . S
C1375 C1369 1.429 . S
C1375 C1376 1.523 . S
C1376 C1357 1.368 . S
C1376 C1370 1.368 . S
C1376 C1375 1.523 . S
C1377 C1361 1.429 . S
C1377 C1373 1.429 . S
C1377 C1378 1.523 . S
C1378 C1362 1.368 . S
C1378 C1374 1.368 . S
C1378 C1377 1.523 . S
H1379 C1354 0.950 . S
H1380 C1356 0.950 . S
H1381 C1357 0.949 . S
H1382 C1359 0.950 . S
H1383 C1361 0.950 . S
C1384 C1385 1.349 . S
C1384 C1386 1.327 . S
C1384 H1409 0.950 . S
C1385 C1384 1.349 . S
C1385 C1401 1.349 . S
C1386 C1384 1.327 . S
C1386 C1405 1.429 . S
C1386 H1410 0.950 . S
C1387 C1404 1.574 . S
C1387 C1406 1.368 . S
C1387 H1411 0.949 . S
H1388 C1392 0.949 . S
C1389 C1390 1.349 . S
C1389 C1391 1.327 . S
C1389 H1412 0.950 . S
C1390 C1389 1.349 . S
C1390 C1402 1.349 . S
C1391 C1389 1.327 . S
C1391 C1407 1.429 . S
C1391 H1413 0.950 . S
C1392 H1388 0.949 . S
C1392 C1400 1.574 . S
C1392 C1408 1.368 . S
H1393 C1401 0.950 . S
H1394 C1399 0.950 . S
H1395 C1400 0.949 . S
H1396 C1402 0.950 . S
H1397 C1403 0.950 . S
H1398 C1404 0.949 . S
C1399 H1394 0.950 . S
C1399 C1401 1.327 . S
C1399 C1405 1.429 . S
C1400 C1392 1.574 . S
C1400 H1395 0.949 . S
C1400 C1406 1.368 . S
C1401 C1385 1.349 . S
C1401 H1393 0.950 . S
C1401 C1399 1.327 . S
C1402 C1390 1.349 . S
C1402 H1396 0.950 . S
C1402 C1403 1.327 . S
C1403 H1397 0.950 . S
C1403 C1402 1.327 . S
C1403 C1407 1.429 . S
C1404 C1387 1.574 . S
C1404 H1398 0.949 . S
C1404 C1408 1.368 . S
C1405 C1386 1.429 . S
C1405 C1399 1.429 . S
C1405 C1406 1.523 . S
C1406 C1387 1.368 . S
C1406 C1400 1.368 . S
C1406 C1405 1.523 . S
C1407 C1391 1.429 . S
C1407 C1403 1.429 . S
C1407 C1408 1.523 . S
C1408 C1392 1.368 . S
C1408 C1404 1.368 . S
C1408 C1407 1.523 . S
H1409 C1384 0.950 . S
H1410 C1386 0.950 . S
H1411 C1387 0.949 . S
H1412 C1389 0.950 . S
H1413 C1391 0.950 . S
C1414 C1415 1.349 . S
C1414 C1416 1.327 . S
C1414 H1439 0.950 . S
C1415 C1414 1.349 . S
C1415 C1431 1.349 . S
C1416 C1414 1.327 . S
C1416 C1435 1.429 . S
C1416 H1440 0.950 . S
C1417 C1434 1.574 . S
C1417 C1436 1.368 . S
C1417 H1441 0.949 . S
H1418 C1422 0.949 . S
C1419 C1420 1.349 . S
C1419 C1421 1.327 . S
C1419 H1442 0.950 . S
C1420 C1419 1.349 . S
C1420 C1432 1.349 . S
C1421 C1419 1.327 . S
C1421 C1437 1.429 . S
C1421 H1443 0.950 . S
C1422 H1418 0.949 . S
C1422 C1430 1.574 . S
C1422 C1438 1.368 . S
H1423 C1431 0.950 1_455 S
H1424 C1429 0.950 . S
H1425 C1430 0.949 . S
H1426 C1432 0.950 . S
H1427 C1433 0.950 . S
H1428 C1434 0.949 . S
C1429 H1424 0.950 . S
C1429 C1431 1.327 . S
C1429 C1435 1.429 . S
C1430 C1422 1.574 . S
C1430 H1425 0.949 . S
C1430 C1436 1.368 . S
C1431 C1415 1.349 . S
C1431 H1423 0.950 1_655 S
C1431 C1429 1.327 . S
C1432 C1420 1.349 . S
C1432 H1426 0.950 . S
C1432 C1433 1.327 . S
C1433 H1427 0.950 . S
C1433 C1432 1.327 . S
C1433 C1437 1.429 . S
C1434 C1417 1.574 . S
C1434 H1428 0.949 . S
C1434 C1438 1.368 . S
C1435 C1416 1.429 . S
C1435 C1429 1.429 . S
C1435 C1436 1.523 . S
C1436 C1417 1.368 . S
C1436 C1430 1.368 . S
C1436 C1435 1.523 . S
C1437 C1421 1.429 . S
C1437 C1433 1.429 . S
C1437 C1438 1.523 . S
C1438 C1422 1.368 . S
C1438 C1434 1.368 . S
C1438 C1437 1.523 . S
H1439 C1414 0.950 . S
H1440 C1416 0.950 . S
H1441 C1417 0.949 . S
H1442 C1419 0.950 . S
H1443 C1421 0.950 . S
C1444 C1445 1.349 . S
C1444 C1446 1.327 . S
C1444 H1469 0.950 . S
C1445 C1444 1.349 . S
C1445 C1461 1.349 . S
C1446 C1444 1.327 . S
C1446 C1465 1.429 . S
C1446 H1470 0.950 . S
C1447 C1464 1.574 . S
C1447 C1466 1.368 . S
C1447 H1471 0.949 . S
H1448 C1452 0.949 . S
C1449 C1450 1.349 . S
C1449 C1451 1.327 . S
C1449 H1472 0.950 . S
C1450 C1449 1.349 . S
C1450 C1462 1.349 . S
C1451 C1449 1.327 . S
C1451 C1467 1.429 . S
C1451 H1473 0.950 . S
C1452 H1448 0.949 . S
C1452 C1460 1.574 . S
C1452 C1468 1.368 . S
H1453 C1461 0.950 . S
H1454 C1459 0.950 . S
H1455 C1460 0.949 . S
H1456 C1462 0.950 . S
H1457 C1463 0.950 . S
H1458 C1464 0.949 . S
C1459 H1454 0.950 . S
C1459 C1461 1.327 . S
C1459 C1465 1.429 . S
C1460 C1452 1.574 . S
C1460 H1455 0.949 . S
C1460 C1466 1.368 . S
C1461 C1445 1.349 . S
C1461 H1453 0.950 . S
C1461 C1459 1.327 . S
C1462 C1450 1.349 . S
C1462 H1456 0.950 . S
C1462 C1463 1.327 . S
C1463 H1457 0.950 . S
C1463 C1462 1.327 . S
C1463 C1467 1.429 . S
C1464 C1447 1.574 . S
C1464 H1458 0.949 . S
C1464 C1468 1.368 . S
C1465 C1446 1.429 . S
C1465 C1459 1.429 . S
C1465 C1466 1.523 . S
C1466 C1447 1.368 . S
C1466 C1460 1.368 . S
C1466 C1465 1.523 . S
C1467 C1451 1.429 . S
C1467 C1463 1.429 . S
C1467 C1468 1.523 . S
C1468 C1452 1.368 . S
C1468 C1464 1.368 . S
C1468 C1467 1.523 . S
H1469 C1444 0.950 . S
H1470 C1446 0.950 . S
H1471 C1447 0.949 . S
H1472 C1449 0.950 . S
H1473 C1451 0.950 . S
C1474 C1475 1.349 . S
C1474 C1476 1.327 . S
C1474 H1499 0.950 . S
C1475 C1474 1.349 . S
C1475 C1491 1.349 . S
C1476 C1474 1.327 . S
C1476 C1495 1.429 . S
C1476 H1500 0.950 . S
C1477 C1494 1.574 . S
C1477 C1496 1.368 . S
C1477 H1501 0.949 . S
H1478 C1482 0.949 . S
C1479 C1480 1.349 . S
C1479 C1481 1.327 . S
C1479 H1502 0.950 . S
C1480 C1479 1.349 . S
C1480 C1492 1.349 . S
C1481 C1479 1.327 . S
C1481 C1497 1.429 . S
C1481 H1503 0.950 . S
C1482 H1478 0.949 . S
C1482 C1490 1.574 1_554 S
C1482 C1498 1.368 . S
H1483 C1491 0.950 . S
H1484 C1489 0.950 . S
H1485 C1490 0.949 . S
H1486 C1492 0.950 . S
H1487 C1493 0.950 . S
H1488 C1494 0.949 . S
C1489 H1484 0.950 . S
C1489 C1491 1.327 . S
C1489 C1495 1.429 . S
C1490 C1482 1.574 1_556 S
C1490 H1485 0.949 . S
C1490 C1496 1.368 . S
C1491 C1475 1.349 . S
C1491 H1483 0.950 . S
C1491 C1489 1.327 . S
C1492 C1480 1.349 . S
C1492 H1486 0.950 . S
C1492 C1493 1.327 . S
C1493 H1487 0.950 . S
C1493 C1492 1.327 . S
C1493 C1497 1.429 . S
C1494 C1477 1.574 . S
C1494 H1488 0.949 . S
C1494 C1498 1.368 1_556 S
C1495 C1476 1.429 . S
C1495 C1489 1.429 . S
C1495 C1496 1.523 . S
C1496 C1477 1.368 . S
C1496 C1490 1.368 . S
C1496 C1495 1.523 . S
C1497 C1481 1.429 . S
C1497 C1493 1.429 . S
C1497 C1498 1.523 . S
C1498 C1482 1.368 . S
C1498 C1494 1.368 1_554 S
C1498 C1497 1.523 . S
H1499 C1474 0.950 . S
H1500 C1476 0.950 . S
H1501 C1477 0.949 . S
H1502 C1479 0.950 . S
H1503 C1481 0.950 . S
C1504 C1505 1.349 . S
C1504 C1506 1.327 . S
C1504 H1529 0.950 . S
C1505 C1504 1.349 . S
C1505 C1521 1.349 . S
C1506 C1504 1.327 . S
C1506 C1525 1.429 . S
C1506 H1530 0.950 . S
C1507 C1524 1.574 . S
C1507 C1526 1.368 . S
C1507 H1531 0.949 . S
H1508 C1512 0.949 . S
C1509 C1510 1.349 . S
C1509 C1511 1.327 . S
C1509 H1532 0.950 . S
C1510 C1509 1.349 . S
C1510 C1522 1.349 . S
C1511 C1509 1.327 . S
C1511 C1527 1.429 . S
C1511 H1533 0.950 . S
C1512 H1508 0.949 . S
C1512 C1520 1.574 . S
C1512 C1528 1.368 . S
H1513 C1521 0.950 . S
H1514 C1519 0.950 . S
H1515 C1520 0.949 . S
H1516 C1522 0.950 . S
H1517 C1523 0.950 . S
H1518 C1524 0.949 . S
C1519 H1514 0.950 . S
C1519 C1521 1.327 . S
C1519 C1525 1.429 . S
C1520 C1512 1.574 . S
C1520 H1515 0.949 . S
C1520 C1526 1.368 . S
C1521 C1505 1.349 . S
C1521 H1513 0.950 . S
C1521 C1519 1.327 . S
C1522 C1510 1.349 . S
C1522 H1516 0.950 . S
C1522 C1523 1.327 . S
C1523 H1517 0.950 . S
C1523 C1522 1.327 . S
C1523 C1527 1.429 . S
C1524 C1507 1.574 . S
C1524 H1518 0.949 . S
C1524 C1528 1.368 . S
C1525 C1506 1.429 . S
C1525 C1519 1.429 . S
C1525 C1526 1.523 . S
C1526 C1507 1.368 . S
C1526 C1520 1.368 . S
C1526 C1525 1.523 . S
C1527 C1511 1.429 . S
C1527 C1523 1.429 . S
C1527 C1528 1.523 . S
C1528 C1512 1.368 . S
C1528 C1524 1.368 . S
C1528 C1527 1.523 . S
H1529 C1504 0.950 . S
H1530 C1506 0.950 . S
H1531 C1507 0.949 . S
H1532 C1509 0.950 . S
H1533 C1511 0.950 . S
C1534 C1535 1.349 . S
C1534 C1536 1.327 . S
C1534 H1559 0.950 . S
C1535 C1534 1.349 . S
C1535 C1551 1.349 . S
C1536 C1534 1.327 . S
C1536 C1555 1.429 . S
C1536 H1560 0.950 . S
C1537 C1554 1.574 . S
C1537 C1556 1.368 . S
C1537 H1561 0.949 . S
H1538 C1542 0.949 . S
C1539 C1540 1.349 . S
C1539 C1541 1.327 . S
C1539 H1562 0.950 . S
C1540 C1539 1.349 . S
C1540 C1552 1.349 . S
C1541 C1539 1.327 . S
C1541 C1557 1.429 . S
C1541 H1563 0.950 . S
C1542 H1538 0.949 . S
C1542 C1550 1.574 . S
C1542 C1558 1.368 . S
H1543 C1551 0.950 . S
H1544 C1549 0.950 . S
H1545 C1550 0.949 . S
H1546 C1552 0.950 . S
H1547 C1553 0.950 . S
H1548 C1554 0.949 . S
C1549 H1544 0.950 . S
C1549 C1551 1.327 . S
C1549 C1555 1.429 . S
C1550 C1542 1.574 . S
C1550 H1545 0.949 . S
C1550 C1556 1.368 . S
C1551 C1535 1.349 . S
C1551 H1543 0.950 . S
C1551 C1549 1.327 . S
C1552 C1540 1.349 . S
C1552 H1546 0.950 . S
C1552 C1553 1.327 . S
C1553 H1547 0.950 . S
C1553 C1552 1.327 . S
C1553 C1557 1.429 . S
C1554 C1537 1.574 . S
C1554 H1548 0.949 . S
C1554 C1558 1.368 . S
C1555 C1536 1.429 . S
C1555 C1549 1.429 . S
C1555 C1556 1.523 . S
C1556 C1537 1.368 . S
C1556 C1550 1.368 . S
C1556 C1555 1.523 . S
C1557 C1541 1.429 . S
C1557 C1553 1.429 . S
C1557 C1558 1.523 . S
C1558 C1542 1.368 . S
C1558 C1554 1.368 . S
C1558 C1557 1.523 . S
H1559 C1534 0.950 . S
H1560 C1536 0.950 . S
H1561 C1537 0.949 . S
H1562 C1539 0.950 . S
H1563 C1541 0.950 . S
C1564 C1565 1.349 . S
C1564 C1566 1.327 . S
C1564 H1589 0.950 . S
C1565 C1564 1.349 . S
C1565 C1581 1.349 . S
C1566 C1564 1.327 . S
C1566 C1585 1.429 . S
C1566 H1590 0.950 . S
C1567 C1584 1.574 . S
C1567 C1586 1.368 . S
C1567 H1591 0.949 . S
H1568 C1572 0.949 . S
C1569 C1570 1.349 . S
C1569 C1571 1.327 . S
C1569 H1592 0.950 . S
C1570 C1569 1.349 . S
C1570 C1582 1.349 . S
C1571 C1569 1.327 . S
C1571 C1587 1.429 . S
C1571 H1593 0.950 . S
C1572 H1568 0.949 . S
C1572 C1580 1.574 . S
C1572 C1588 1.368 . S
H1573 C1581 0.950 . S
H1574 C1579 0.950 . S
H1575 C1580 0.949 . S
H1576 C1582 0.950 . S
H1577 C1583 0.950 . S
H1578 C1584 0.949 . S
C1579 H1574 0.950 . S
C1579 C1581 1.327 . S
C1579 C1585 1.429 . S
C1580 C1572 1.574 . S
C1580 H1575 0.949 . S
C1580 C1586 1.368 . S
C1581 C1565 1.349 . S
C1581 H1573 0.950 . S
C1581 C1579 1.327 . S
C1582 C1570 1.349 . S
C1582 H1576 0.950 . S
C1582 C1583 1.327 . S
C1583 H1577 0.950 . S
C1583 C1582 1.327 . S
C1583 C1587 1.429 . S
C1584 C1567 1.574 . S
C1584 H1578 0.949 . S
C1584 C1588 1.368 . S
C1585 C1566 1.429 . S
C1585 C1579 1.429 . S
C1585 C1586 1.523 . S
C1586 C1567 1.368 . S
C1586 C1580 1.368 . S
C1586 C1585 1.523 . S
C1587 C1571 1.429 . S
C1587 C1583 1.429 . S
C1587 C1588 1.523 . S
C1588 C1572 1.368 . S
C1588 C1584 1.368 . S
C1588 C1587 1.523 . S
H1589 C1564 0.950 . S
H1590 C1566 0.950 . S
H1591 C1567 0.949 . S
H1592 C1569 0.950 . S
H1593 C1571 0.950 . S
C1594 C1595 1.349 . S
C1594 C1596 1.327 . S
C1594 H1619 0.950 . S
C1595 C1594 1.349 . S
C1595 C1611 1.349 . S
C1596 C1594 1.327 . S
C1596 C1615 1.429 . S
C1596 H1620 0.950 . S
C1597 C1614 1.574 1_554 S
C1597 C1616 1.368 . S
C1597 H1621 0.949 . S
H1598 C1602 0.949 . S
C1599 C1600 1.349 . S
C1599 C1601 1.327 . S
C1599 H1622 0.950 . S
C1600 C1599 1.349 . S
C1600 C1612 1.349 . S
C1601 C1599 1.327 . S
C1601 C1617 1.429 . S
C1601 H1623 0.950 . S
C1602 H1598 0.949 . S
C1602 C1610 1.574 . S
C1602 C1618 1.368 1_554 S
H1603 C1611 0.950 . S
H1604 C1609 0.950 . S
H1605 C1610 0.949 . S
H1606 C1612 0.950 . S
H1607 C1613 0.950 . S
H1608 C1614 0.949 . S
C1609 H1604 0.950 . S
C1609 C1611 1.327 . S
C1609 C1615 1.429 . S
C1610 C1602 1.574 . S
C1610 H1605 0.949 . S
C1610 C1616 1.368 . S
C1611 C1595 1.349 . S
C1611 H1603 0.950 . S
C1611 C1609 1.327 . S
C1612 C1600 1.349 . S
C1612 H1606 0.950 . S
C1612 C1613 1.327 . S
C1613 H1607 0.950 . S
C1613 C1612 1.327 . S
C1613 C1617 1.429 . S
C1614 C1597 1.574 1_556 S
C1614 H1608 0.949 . S
C1614 C1618 1.368 . S
C1615 C1596 1.429 . S
C1615 C1609 1.429 . S
C1615 C1616 1.523 . S
C1616 C1597 1.368 . S
C1616 C1610 1.368 . S
C1616 C1615 1.523 . S
C1617 C1601 1.429 . S
C1617 C1613 1.429 . S
C1617 C1618 1.523 . S
C1618 C1602 1.368 1_556 S
C1618 C1614 1.368 . S
C1618 C1617 1.523 . S
H1619 C1594 0.950 . S
H1620 C1596 0.950 . S
H1621 C1597 0.949 . S
H1622 C1599 0.950 . S
H1623 C1601 0.950 . S
C1624 C1625 1.349 . S
C1624 C1626 1.327 . S
C1624 H1649 0.950 . S
C1625 C1624 1.349 . S
C1625 C1641 1.349 . S
C1626 C1624 1.327 . S
C1626 C1645 1.429 . S
C1626 H1650 0.950 . S
C1627 C1644 1.574 . S
C1627 C1646 1.368 . S
C1627 H1651 0.949 . S
H1628 C1632 0.949 . S
C1629 C1630 1.349 . S
C1629 C1631 1.327 . S
C1629 H1652 0.950 . S
C1630 C1629 1.349 . S
C1630 C1642 1.349 . S
C1631 C1629 1.327 . S
C1631 C1647 1.429 . S
C1631 H1653 0.950 . S
C1632 H1628 0.949 . S
C1632 C1640 1.574 . S
C1632 C1648 1.368 . S
H1633 C1641 0.950 . S
H1634 C1639 0.950 . S
H1635 C1640 0.949 . S
H1636 C1642 0.950 . S
H1637 C1643 0.950 . S
H1638 C1644 0.949 . S
C1639 H1634 0.950 . S
C1639 C1641 1.327 . S
C1639 C1645 1.429 . S
C1640 C1632 1.574 . S
C1640 H1635 0.949 . S
C1640 C1646 1.368 . S
C1641 C1625 1.349 . S
C1641 H1633 0.950 . S
C1641 C1639 1.327 . S
C1642 C1630 1.349 . S
C1642 H1636 0.950 . S
C1642 C1643 1.327 . S
C1643 H1637 0.950 . S
C1643 C1642 1.327 . S
C1643 C1647 1.429 . S
C1644 C1627 1.574 . S
C1644 H1638 0.949 . S
C1644 C1648 1.368 . S
C1645 C1626 1.429 . S
C1645 C1639 1.429 . S
C1645 C1646 1.523 . S
C1646 C1627 1.368 . S
C1646 C1640 1.368 . S
C1646 C1645 1.523 . S
C1647 C1631 1.429 . S
C1647 C1643 1.429 . S
C1647 C1648 1.523 . S
C1648 C1632 1.368 . S
C1648 C1644 1.368 . S
C1648 C1647 1.523 . S
H1649 C1624 0.950 . S
H1650 C1626 0.950 . S
H1651 C1627 0.949 . S
H1652 C1629 0.950 . S
H1653 C1631 0.950 . S
C1654 C1655 1.349 . S
C1654 C1656 1.327 . S
C1654 H1679 0.950 . S
C1655 C1654 1.349 . S
C1655 C1671 1.349 . S
C1656 C1654 1.327 . S
C1656 C1675 1.429 . S
C1656 H1680 0.950 . S
C1657 C1674 1.574 . S
C1657 C1676 1.368 . S
C1657 H1681 0.949 . S
H1658 C1662 0.949 . S
C1659 C1660 1.349 . S
C1659 C1661 1.327 . S
C1659 H1682 0.950 . S
C1660 C1659 1.349 . S
C1660 C1672 1.349 . S
C1661 C1659 1.327 . S
C1661 C1677 1.429 . S
C1661 H1683 0.950 . S
C1662 H1658 0.949 . S
C1662 C1670 1.574 1_545 S
C1662 C1678 1.368 . S
H1663 C1671 0.950 . S
H1664 C1669 0.950 . S
H1665 C1670 0.949 . S
H1666 C1672 0.950 . S
H1667 C1673 0.950 . S
H1668 C1674 0.949 . S
C1669 H1664 0.950 . S
C1669 C1671 1.327 . S
C1669 C1675 1.429 . S
C1670 C1662 1.574 1_565 S
C1670 H1665 0.949 . S
C1670 C1676 1.368 . S
C1671 C1655 1.349 . S
C1671 H1663 0.950 . S
C1671 C1669 1.327 . S
C1672 C1660 1.349 . S
C1672 H1666 0.950 . S
C1672 C1673 1.327 . S
C1673 H1667 0.950 . S
C1673 C1672 1.327 . S
C1673 C1677 1.429 . S
C1674 C1657 1.574 . S
C1674 H1668 0.949 . S
C1674 C1678 1.368 1_565 S
C1675 C1656 1.429 . S
C1675 C1669 1.429 . S
C1675 C1676 1.523 . S
C1676 C1657 1.368 . S
C1676 C1670 1.368 . S
C1676 C1675 1.523 . S
C1677 C1661 1.429 . S
C1677 C1673 1.429 . S
C1677 C1678 1.523 . S
C1678 C1662 1.368 . S
C1678 C1674 1.368 1_545 S
C1678 C1677 1.523 . S
H1679 C1654 0.950 . S
H1680 C1656 0.950 . S
H1681 C1657 0.949 . S
H1682 C1659 0.950 . S
H1683 C1661 0.950 . S
C1684 C1685 1.349 . S
C1684 C1686 1.327 . S
C1684 H1709 0.950 . S
C1685 C1684 1.349 . S
C1685 C1701 1.349 . S
C1686 C1684 1.327 . S
C1686 C1705 1.429 . S
C1686 H1710 0.950 . S
C1687 C1704 1.574 . S
C1687 C1706 1.368 . S
C1687 H1711 0.949 . S
H1688 C1692 0.949 . S
C1689 C1690 1.349 . S
C1689 C1691 1.327 . S
C1689 H1712 0.950 . S
C1690 C1689 1.349 . S
C1690 C1702 1.349 . S
C1691 C1689 1.327 . S
C1691 C1707 1.429 . S
C1691 H1713 0.950 . S
C1692 H1688 0.949 . S
C1692 C1700 1.574 . S
C1692 C1708 1.368 . S
H1693 C1701 0.950 . S
H1694 C1699 0.950 . S
H1695 C1700 0.949 . S
H1696 C1702 0.950 . S
H1697 C1703 0.950 . S
H1698 C1704 0.949 . S
C1699 H1694 0.950 . S
C1699 C1701 1.327 . S
C1699 C1705 1.429 . S
C1700 C1692 1.574 . S
C1700 H1695 0.949 . S
C1700 C1706 1.368 . S
C1701 C1685 1.349 . S
C1701 H1693 0.950 . S
C1701 C1699 1.327 . S
C1702 C1690 1.349 . S
C1702 H1696 0.950 . S
C1702 C1703 1.327 . S
C1703 H1697 0.950 . S
C1703 C1702 1.327 . S
C1703 C1707 1.429 . S
C1704 C1687 1.574 . S
C1704 H1698 0.949 . S
C1704 C1708 1.368 . S
C1705 C1686 1.429 . S
C1705 C1699 1.429 . S
C1705 C1706 1.523 . S
C1706 C1687 1.368 . S
C1706 C1700 1.368 . S
C1706 C1705 1.523 . S
C1707 C1691 1.429 . S
C1707 C1703 1.429 . S
C1707 C1708 1.523 . S
C1708 C1692 1.368 . S
C1708 C1704 1.368 . S
C1708 C1707 1.523 . S
H1709 C1684 0.950 . S
H1710 C1686 0.950 . S
H1711 C1687 0.949 . S
H1712 C1689 0.950 . S
H1713 C1691 0.950 . S
C1714 C1715 1.349 . S
C1714 C1716 1.327 . S
C1714 H1739 0.950 . S
C1715 C1714 1.349 . S
C1715 C1731 1.349 . S
C1716 C1714 1.327 . S
C1716 C1735 1.429 . S
C1716 H1740 0.950 . S
C1717 C1734 1.574 . S
C1717 C1736 1.368 . S
C1717 H1741 0.949 . S
H1718 C1722 0.949 . S
C1719 C1720 1.349 . S
C1719 C1721 1.327 . S
C1719 H1742 0.950 . S
C1720 C1719 1.349 . S
C1720 C1732 1.349 . S
C1721 C1719 1.327 . S
C1721 C1737 1.429 . S
C1721 H1743 0.950 . S
C1722 H1718 0.949 . S
C1722 C1730 1.574 1_565 S
C1722 C1738 1.368 . S
H1723 C1731 0.950 . S
H1724 C1729 0.950 . S
H1725 C1730 0.949 . S
H1726 C1732 0.950 . S
H1727 C1733 0.950 . S
H1728 C1734 0.949 . S
C1729 H1724 0.950 . S
C1729 C1731 1.327 . S
C1729 C1735 1.429 . S
C1730 C1722 1.574 1_545 S
C1730 H1725 0.949 . S
C1730 C1736 1.368 . S
C1731 C1715 1.349 . S
C1731 H1723 0.950 . S
C1731 C1729 1.327 . S
C1732 C1720 1.349 . S
C1732 H1726 0.950 . S
C1732 C1733 1.327 . S
C1733 H1727 0.950 . S
C1733 C1732 1.327 . S
C1733 C1737 1.429 . S
C1734 C1717 1.574 . S
C1734 H1728 0.949 . S
C1734 C1738 1.368 1_545 S
C1735 C1716 1.429 . S
C1735 C1729 1.429 . S
C1735 C1736 1.523 . S
C1736 C1717 1.368 . S
C1736 C1730 1.368 . S
C1736 C1735 1.523 . S
C1737 C1721 1.429 . S
C1737 C1733 1.429 . S
C1737 C1738 1.523 . S
C1738 C1722 1.368 . S
C1738 C1734 1.368 1_565 S
C1738 C1737 1.523 . S
H1739 C1714 0.950 . S
H1740 C1716 0.950 . S
H1741 C1717 0.949 . S
H1742 C1719 0.950 . S
H1743 C1721 0.950 . S
C1744 C1745 1.349 . S
C1744 C1746 1.327 . S
C1744 H1769 0.950 . S
C1745 C1744 1.349 . S
C1745 C1761 1.349 . S
C1746 C1744 1.327 . S
C1746 C1765 1.429 . S
C1746 H1770 0.950 . S
C1747 C1764 1.574 . S
C1747 C1766 1.368 . S
C1747 H1771 0.949 . S
H1748 C1752 0.949 . S
C1749 C1750 1.349 . S
C1749 C1751 1.327 . S
C1749 H1772 0.950 . S
C1750 C1749 1.349 . S
C1750 C1762 1.349 . S
C1751 C1749 1.327 . S
C1751 C1767 1.429 . S
C1751 H1773 0.950 . S
C1752 H1748 0.949 . S
C1752 C1760 1.574 . S
C1752 C1768 1.368 . S
H1753 C1761 0.950 . S
H1754 C1759 0.950 . S
H1755 C1760 0.949 . S
H1756 C1762 0.950 . S
H1757 C1763 0.950 . S
H1758 C1764 0.949 . S
C1759 H1754 0.950 . S
C1759 C1761 1.327 . S
C1759 C1765 1.429 . S
C1760 C1752 1.574 . S
C1760 H1755 0.949 . S
C1760 C1766 1.368 . S
C1761 C1745 1.349 . S
C1761 H1753 0.950 . S
C1761 C1759 1.327 . S
C1762 C1750 1.349 . S
C1762 H1756 0.950 . S
C1762 C1763 1.327 . S
C1763 H1757 0.950 . S
C1763 C1762 1.327 . S
C1763 C1767 1.429 . S
C1764 C1747 1.574 . S
C1764 H1758 0.949 . S
C1764 C1768 1.368 . S
C1765 C1746 1.429 . S
C1765 C1759 1.429 . S
C1765 C1766 1.523 . S
C1766 C1747 1.368 . S
C1766 C1760 1.368 . S
C1766 C1765 1.523 . S
C1767 C1751 1.429 . S
C1767 C1763 1.429 . S
C1767 C1768 1.523 . S
C1768 C1752 1.368 . S
C1768 C1764 1.368 . S
C1768 C1767 1.523 . S
H1769 C1744 0.950 . S
H1770 C1746 0.950 . S
H1771 C1747 0.949 . S
H1772 C1749 0.950 . S
H1773 C1751 0.950 . S
C1774 C1775 1.349 . S
C1774 C1776 1.327 . S
C1774 H1799 0.950 . S
C1775 C1774 1.349 . S
C1775 C1791 1.349 . S
C1776 C1774 1.327 . S
C1776 C1795 1.429 . S
C1776 H1800 0.950 . S
C1777 C1794 1.574 1_565 S
C1777 C1796 1.368 . S
C1777 H1801 0.949 . S
H1778 C1782 0.949 . S
C1779 C1780 1.349 . S
C1779 C1781 1.327 . S
C1779 H1802 0.950 . S
C1780 C1779 1.349 . S
C1780 C1792 1.349 . S
C1781 C1779 1.327 . S
C1781 C1797 1.429 . S
C1781 H1803 0.950 . S
C1782 H1778 0.949 . S
C1782 C1790 1.574 . S
C1782 C1798 1.368 1_565 S
H1783 C1791 0.950 . S
H1784 C1789 0.950 . S
H1785 C1790 0.949 . S
H1786 C1792 0.950 . S
H1787 C1793 0.950 . S
H1788 C1794 0.949 . S
C1789 H1784 0.950 . S
C1789 C1791 1.327 . S
C1789 C1795 1.429 . S
C1790 C1782 1.574 . S
C1790 H1785 0.949 . S
C1790 C1796 1.368 . S
C1791 C1775 1.349 . S
C1791 H1783 0.950 . S
C1791 C1789 1.327 . S
C1792 C1780 1.349 . S
C1792 H1786 0.950 . S
C1792 C1793 1.327 . S
C1793 H1787 0.950 . S
C1793 C1792 1.327 . S
C1793 C1797 1.429 . S
C1794 C1777 1.574 1_545 S
C1794 H1788 0.949 . S
C1794 C1798 1.368 . S
C1795 C1776 1.429 . S
C1795 C1789 1.429 . S
C1795 C1796 1.523 . S
C1796 C1777 1.368 . S
C1796 C1790 1.368 . S
C1796 C1795 1.523 . S
C1797 C1781 1.429 . S
C1797 C1793 1.429 . S
C1797 C1798 1.523 . S
C1798 C1782 1.368 1_545 S
C1798 C1794 1.368 . S
C1798 C1797 1.523 . S
H1799 C1774 0.950 . S
H1800 C1776 0.950 . S
H1801 C1777 0.949 . S
H1802 C1779 0.950 . S
H1803 C1781 0.950 . S
C1804 C1805 1.349 . S
C1804 C1806 1.327 . S
C1804 H1829 0.950 . S
C1805 C1804 1.349 . S
C1805 C1821 1.349 . S
C1806 C1804 1.327 . S
C1806 C1825 1.429 . S
C1806 H1830 0.950 . S
C1807 C1824 1.574 . S
C1807 C1826 1.368 . S
C1807 H1831 0.949 . S
H1808 C1812 0.949 . S
C1809 C1810 1.349 . S
C1809 C1811 1.327 . S
C1809 H1832 0.950 . S
C1810 C1809 1.349 . S
C1810 C1822 1.349 . S
C1811 C1809 1.327 . S
C1811 C1827 1.429 . S
C1811 H1833 0.950 . S
C1812 H1808 0.949 . S
C1812 C1820 1.574 . S
C1812 C1828 1.368 . S
H1813 C1821 0.950 . S
H1814 C1819 0.950 . S
H1815 C1820 0.949 . S
H1816 C1822 0.950 . S
H1817 C1823 0.950 . S
H1818 C1824 0.949 . S
C1819 H1814 0.950 . S
C1819 C1821 1.327 . S
C1819 C1825 1.429 . S
C1820 C1812 1.574 . S
C1820 H1815 0.949 . S
C1820 C1826 1.368 . S
C1821 C1805 1.349 . S
C1821 H1813 0.950 . S
C1821 C1819 1.327 . S
C1822 C1810 1.349 . S
C1822 H1816 0.950 . S
C1822 C1823 1.327 . S
C1823 H1817 0.950 . S
C1823 C1822 1.327 . S
C1823 C1827 1.429 . S
C1824 C1807 1.574 . S
C1824 H1818 0.949 . S
C1824 C1828 1.368 . S
C1825 C1806 1.429 . S
C1825 C1819 1.429 . S
C1825 C1826 1.523 . S
C1826 C1807 1.368 . S
C1826 C1820 1.368 . S
C1826 C1825 1.523 . S
C1827 C1811 1.429 . S
C1827 C1823 1.429 . S
C1827 C1828 1.523 . S
C1828 C1812 1.368 . S
C1828 C1824 1.368 . S
C1828 C1827 1.523 . S
H1829 C1804 0.950 . S
H1830 C1806 0.950 . S
H1831 C1807 0.949 . S
H1832 C1809 0.950 . S
H1833 C1811 0.950 . S
C1834 C1835 1.349 . S
C1834 C1836 1.327 . S
C1834 H1859 0.950 . S
C1835 C1834 1.349 . S
C1835 C1851 1.349 . S
C1836 C1834 1.327 . S
C1836 C1855 1.429 . S
C1836 H1860 0.950 . S
C1837 C1854 1.574 1_545 S
C1837 C1856 1.368 . S
C1837 H1861 0.949 . S
H1838 C1842 0.949 . S
C1839 C1840 1.349 . S
C1839 C1841 1.327 . S
C1839 H1862 0.950 . S
C1840 C1839 1.349 . S
C1840 C1852 1.349 . S
C1841 C1839 1.327 . S
C1841 C1857 1.429 . S
C1841 H1863 0.950 . S
C1842 H1838 0.949 . S
C1842 C1850 1.574 . S
C1842 C1858 1.368 1_545 S
H1843 C1851 0.950 1_554 S
H1844 C1849 0.950 . S
H1845 C1850 0.949 . S
H1846 C1852 0.950 . S
H1847 C1853 0.950 . S
H1848 C1854 0.949 . S
C1849 H1844 0.950 . S
C1849 C1851 1.327 . S
C1849 C1855 1.429 . S
C1850 C1842 1.574 . S
C1850 H1845 0.949 . S
C1850 C1856 1.368 . S
C1851 C1835 1.349 . S
C1851 H1843 0.950 1_556 S
C1851 C1849 1.327 . S
C1852 C1840 1.349 . S
C1852 H1846 0.950 . S
C1852 C1853 1.327 . S
C1853 H1847 0.950 . S
C1853 C1852 1.327 . S
C1853 C1857 1.429 . S
C1854 C1837 1.574 1_565 S
C1854 H1848 0.949 . S
C1854 C1858 1.368 . S
C1855 C1836 1.429 . S
C1855 C1849 1.429 . S
C1855 C1856 1.523 . S
C1856 C1837 1.368 . S
C1856 C1850 1.368 . S
C1856 C1855 1.523 . S
C1857 C1841 1.429 . S
C1857 C1853 1.429 . S
C1857 C1858 1.523 . S
C1858 C1842 1.368 1_565 S
C1858 C1854 1.368 . S
C1858 C1857 1.523 . S
H1859 C1834 0.950 . S
H1860 C1836 0.950 . S
H1861 C1837 0.949 . S
H1862 C1839 0.950 . S
H1863 C1841 0.950 . S
C1864 C1865 1.349 . S
C1864 C1866 1.327 . S
C1864 H1889 0.950 . S
C1865 C1864 1.349 . S
C1865 C1881 1.349 . S
C1866 C1864 1.327 . S
C1866 C1885 1.429 . S
C1866 H1890 0.950 . S
C1867 C1884 1.574 . S
C1867 C1886 1.368 . S
C1867 H1891 0.949 . S
H1868 C1872 0.949 . S
C1869 C1870 1.349 . S
C1869 C1871 1.327 . S
C1869 H1892 0.950 . S
C1870 C1869 1.349 . S
C1870 C1882 1.349 . S
C1871 C1869 1.327 . S
C1871 C1887 1.429 . S
C1871 H1893 0.950 . S
C1872 H1868 0.949 . S
C1872 C1880 1.574 . S
C1872 C1888 1.368 . S
H1873 C1881 0.950 . S
H1874 C1879 0.950 . S
H1875 C1880 0.949 . S
H1876 C1882 0.950 . S
H1877 C1883 0.950 . S
H1878 C1884 0.949 . S
C1879 H1874 0.950 . S
C1879 C1881 1.327 . S
C1879 C1885 1.429 . S
C1880 C1872 1.574 . S
C1880 H1875 0.949 . S
C1880 C1886 1.368 . S
C1881 C1865 1.349 . S
C1881 H1873 0.950 . S
C1881 C1879 1.327 . S
C1882 C1870 1.349 . S
C1882 H1876 0.950 . S
C1882 C1883 1.327 . S
C1883 H1877 0.950 . S
C1883 C1882 1.327 . S
C1883 C1887 1.429 . S
C1884 C1867 1.574 . S
C1884 H1878 0.949 . S
C1884 C1888 1.368 . S
C1885 C1866 1.429 . S
C1885 C1879 1.429 . S
C1885 C1886 1.523 . S
C1886 C1867 1.368 . S
C1886 C1880 1.368 . S
C1886 C1885 1.523 . S
C1887 C1871 1.429 . S
C1887 C1883 1.429 . S
C1887 C1888 1.523 . S
C1888 C1872 1.368 . S
C1888 C1884 1.368 . S
C1888 C1887 1.523 . S
H1889 C1864 0.950 . S
H1890 C1866 0.950 . S
H1891 C1867 0.949 . S
H1892 C1869 0.950 . S
H1893 C1871 0.950 . S
C1894 C1895 1.349 . S
C1894 C1896 1.327 . S
C1894 H1919 0.950 . S
C1895 C1894 1.349 . S
C1895 C1911 1.349 . S
C1896 C1894 1.327 . S
C1896 C1915 1.429 . S
C1896 H1920 0.950 . S
C1897 C1914 1.574 . S
C1897 C1916 1.368 . S
C1897 H1921 0.949 . S
H1898 C1902 0.949 . S
C1899 C1900 1.349 . S
C1899 C1901 1.327 . S
C1899 H1922 0.950 . S
C1900 C1899 1.349 . S
C1900 C1912 1.349 . S
C1901 C1899 1.327 . S
C1901 C1917 1.429 . S
C1901 H1923 0.950 . S
C1902 H1898 0.949 . S
C1902 C1910 1.574 . S
C1902 C1918 1.368 . S
H1903 C1911 0.950 . S
H1904 C1909 0.950 . S
H1905 C1910 0.949 . S
H1906 C1912 0.950 . S
H1907 C1913 0.950 . S
H1908 C1914 0.949 . S
C1909 H1904 0.950 . S
C1909 C1911 1.327 . S
C1909 C1915 1.429 . S
C1910 C1902 1.574 . S
C1910 H1905 0.949 . S
C1910 C1916 1.368 . S
C1911 C1895 1.349 . S
C1911 H1903 0.950 . S
C1911 C1909 1.327 . S
C1912 C1900 1.349 . S
C1912 H1906 0.950 . S
C1912 C1913 1.327 . S
C1913 H1907 0.950 . S
C1913 C1912 1.327 . S
C1913 C1917 1.429 . S
C1914 C1897 1.574 . S
C1914 H1908 0.949 . S
C1914 C1918 1.368 . S
C1915 C1896 1.429 . S
C1915 C1909 1.429 . S
C1915 C1916 1.523 . S
C1916 C1897 1.368 . S
C1916 C1910 1.368 . S
C1916 C1915 1.523 . S
C1917 C1901 1.429 . S
C1917 C1913 1.429 . S
C1917 C1918 1.523 . S
C1918 C1902 1.368 . S
C1918 C1914 1.368 . S
C1918 C1917 1.523 . S
H1919 C1894 0.950 . S
H1920 C1896 0.950 . S
H1921 C1897 0.949 . S
H1922 C1899 0.950 . S
H1923 C1901 0.950 . S
C1924 C1925 1.349 . S
C1924 C1926 1.327 . S
C1924 H1949 0.950 . S
C1925 C1924 1.349 . S
C1925 C1941 1.349 . S
C1926 C1924 1.327 . S
C1926 C1945 1.429 . S
C1926 H1950 0.950 . S
C1927 C1944 1.574 . S
C1927 C1946 1.368 . S
C1927 H1951 0.949 . S
H1928 C1932 0.949 . S
C1929 C1930 1.349 . S
C1929 C1931 1.327 . S
C1929 H1952 0.950 . S
C1930 C1929 1.349 . S
C1930 C1942 1.349 . S
C1931 C1929 1.327 . S
C1931 C1947 1.429 . S
C1931 H1953 0.950 . S
C1932 H1928 0.949 . S
C1932 C1940 1.574 1_455 S
C1932 C1948 1.368 . S
H1933 C1941 0.950 . S
H1934 C1939 0.950 . S
H1935 C1940 0.949 . S
H1936 C1942 0.950 . S
H1937 C1943 0.950 . S
H1938 C1944 0.949 1_455 S
C1939 H1934 0.950 . S
C1939 C1941 1.327 . S
C1939 C1945 1.429 . S
C1940 C1932 1.574 1_655 S
C1940 H1935 0.949 . S
C1940 C1946 1.368 . S
C1941 C1925 1.349 . S
C1941 H1933 0.950 . S
C1941 C1939 1.327 . S
C1942 C1930 1.349 . S
C1942 H1936 0.950 . S
C1942 C1943 1.327 . S
C1943 H1937 0.950 . S
C1943 C1942 1.327 . S
C1943 C1947 1.429 . S
C1944 C1927 1.574 . S
C1944 H1938 0.949 1_655 S
C1944 C1948 1.368 1_655 S
C1945 C1926 1.429 . S
C1945 C1939 1.429 . S
C1945 C1946 1.523 . S
C1946 C1927 1.368 . S
C1946 C1940 1.368 . S
C1946 C1945 1.523 . S
C1947 C1931 1.429 . S
C1947 C1943 1.429 . S
C1947 C1948 1.523 . S
C1948 C1932 1.368 . S
C1948 C1944 1.368 1_455 S
C1948 C1947 1.523 . S
H1949 C1924 0.950 . S
H1950 C1926 0.950 . S
H1951 C1927 0.949 . S
H1952 C1929 0.950 . S
H1953 C1931 0.950 . S
C1954 C1955 1.349 . S
C1954 C1956 1.327 . S
C1954 H1979 0.950 . S
C1955 C1954 1.349 . S
C1955 C1971 1.349 . S
C1956 C1954 1.327 . S
C1956 C1975 1.429 . S
C1956 H1980 0.950 . S
C1957 C1974 1.574 . S
C1957 C1976 1.368 . S
C1957 H1981 0.949 . S
H1958 C1962 0.949 . S
C1959 C1960 1.349 . S
C1959 C1961 1.327 . S
C1959 H1982 0.950 . S
C1960 C1959 1.349 . S
C1960 C1972 1.349 . S
C1961 C1959 1.327 . S
C1961 C1977 1.429 . S
C1961 H1983 0.950 . S
C1962 H1958 0.949 . S
C1962 C1970 1.574 . S
C1962 C1978 1.368 . S
H1963 C1971 0.950 . S
H1964 C1969 0.950 . S
H1965 C1970 0.949 . S
H1966 C1972 0.950 . S
H1967 C1973 0.950 . S
H1968 C1974 0.949 . S
C1969 H1964 0.950 . S
C1969 C1971 1.327 . S
C1969 C1975 1.429 . S
C1970 C1962 1.574 . S
C1970 H1965 0.949 . S
C1970 C1976 1.368 . S
C1971 C1955 1.349 . S
C1971 H1963 0.950 . S
C1971 C1969 1.327 . S
C1972 C1960 1.349 . S
C1972 H1966 0.950 . S
C1972 C1973 1.327 . S
C1973 H1967 0.950 . S
C1973 C1972 1.327 . S
C1973 C1977 1.429 . S
C1974 C1957 1.574 . S
C1974 H1968 0.949 . S
C1974 C1978 1.368 . S
C1975 C1956 1.429 . S
C1975 C1969 1.429 . S
C1975 C1976 1.523 . S
C1976 C1957 1.368 . S
C1976 C1970 1.368 . S
C1976 C1975 1.523 . S
C1977 C1961 1.429 . S
C1977 C1973 1.429 . S
C1977 C1978 1.523 . S
C1978 C1962 1.368 . S
C1978 C1974 1.368 . S
C1978 C1977 1.523 . S
H1979 C1954 0.950 . S
H1980 C1956 0.950 . S
H1981 C1957 0.949 . S
H1982 C1959 0.950 . S
H1983 C1961 0.950 . S
C1984 C1985 1.349 . S
C1984 C1986 1.327 . S
C1984 H2009 0.950 . S
C1985 C1984 1.349 . S
C1985 C2001 1.349 . S
C1986 C1984 1.327 . S
C1986 C2005 1.429 . S
C1986 H2010 0.950 . S
C1987 C2004 1.574 1_455 S
C1987 C2006 1.368 . S
C1987 H2011 0.949 . S
H1988 C1992 0.963 . S
C1989 C1990 1.349 . S
C1989 C1991 1.327 . S
C1989 H2012 0.950 . S
C1990 C1989 1.349 . S
C1990 C2002 1.349 . S
C1991 C1989 1.327 . S
C1991 C2007 1.429 . S
C1991 H2013 0.950 . S
C1992 H1988 0.963 . S
C1992 C2000 1.574 . S
C1992 C2008 1.368 1_455 S
H1993 C2001 0.950 . S
H1994 C1999 0.950 . S
H1995 C2000 0.949 . S
H1996 C2002 0.950 . S
H1997 C2003 0.950 . S
H1998 C2004 0.949 . S
C1999 H1994 0.950 . S
C1999 C2001 1.327 . S
C1999 C2005 1.429 . S
C2000 C1992 1.574 . S
C2000 H1995 0.949 . S
C2000 C2006 1.368 . S
C2001 C1985 1.349 . S
C2001 H1993 0.950 . S
C2001 C1999 1.327 . S
C2002 C1990 1.349 . S
C2002 H1996 0.950 . S
C2002 C2003 1.327 . S
C2003 H1997 0.950 . S
C2003 C2002 1.327 . S
C2003 C2007 1.429 . S
C2004 C1987 1.574 1_655 S
C2004 H1998 0.949 . S
C2004 C2008 1.368 . S
C2005 C1986 1.429 . S
C2005 C1999 1.429 . S
C2005 C2006 1.523 . S
C2006 C1987 1.368 . S
C2006 C2000 1.368 . S
C2006 C2005 1.523 . S
C2007 C1991 1.429 . S
C2007 C2003 1.429 . S
C2007 C2008 1.523 . S
C2008 C1992 1.368 1_655 S
C2008 C2004 1.368 . S
C2008 C2007 1.523 . S
H2009 C1984 0.950 . S
H2010 C1986 0.950 . S
H2011 C1987 0.949 . S
H2012 C1989 0.950 . S
H2013 C1991 0.950 . S
C2014 C2015 1.349 . S
C2014 C2016 1.327 . S
C2014 H2039 0.950 . S
C2015 C2014 1.349 . S
C2015 C2031 1.349 . S
C2016 C2014 1.327 . S
C2016 C2035 1.429 . S
C2016 H2040 0.950 . S
C2017 C2034 1.574 . S
C2017 C2036 1.368 . S
C2017 H2041 0.949 . S
H2018 C2022 0.949 . S
C2019 C2020 1.349 . S
C2019 C2021 1.327 . S
C2019 H2042 0.950 . S
C2020 C2019 1.349 . S
C2020 C2032 1.349 . S
C2021 C2019 1.327 . S
C2021 C2037 1.429 . S
C2021 H2043 0.950 . S
C2022 H2018 0.949 . S
C2022 C2030 1.574 . S
C2022 C2038 1.368 . S
H2023 C2031 0.950 . S
H2024 C2029 0.950 . S
H2025 C2030 0.949 . S
H2026 C2032 0.950 . S
H2027 C2033 0.950 . S
H2028 C2034 0.949 . S
C2029 H2024 0.950 . S
C2029 C2031 1.327 . S
C2029 C2035 1.429 . S
C2030 C2022 1.574 . S
C2030 H2025 0.949 . S
C2030 C2036 1.368 . S
C2031 C2015 1.349 . S
C2031 H2023 0.950 . S
C2031 C2029 1.327 . S
C2032 C2020 1.349 . S
C2032 H2026 0.950 . S
C2032 C2033 1.327 . S
C2033 H2027 0.950 . S
C2033 C2032 1.327 . S
C2033 C2037 1.429 . S
C2034 C2017 1.574 . S
C2034 H2028 0.949 . S
C2034 C2038 1.368 . S
C2035 C2016 1.429 . S
C2035 C2029 1.429 . S
C2035 C2036 1.523 . S
C2036 C2017 1.368 . S
C2036 C2030 1.368 . S
C2036 C2035 1.523 . S
C2037 C2021 1.429 . S
C2037 C2033 1.429 . S
C2037 C2038 1.523 . S
C2038 C2022 1.368 . S
C2038 C2034 1.368 . S
C2038 C2037 1.523 . S
H2039 C2014 0.950 . S
H2040 C2016 0.950 . S
H2041 C2017 0.949 . S
H2042 C2019 0.950 . S
H2043 C2021 0.950 . S
C2044 C2045 1.349 . S
C2044 C2046 1.327 . S
C2044 H2069 0.950 . S
C2045 C2044 1.349 . S
C2045 C2061 1.349 . S
C2046 C2044 1.327 . S
C2046 C2065 1.429 . S
C2046 H2070 0.950 . S
C2047 C2064 1.574 1_655 S
C2047 C2066 1.368 . S
C2047 H2071 0.949 . S
H2048 C2052 0.952 . S
C2049 C2050 1.349 . S
C2049 C2051 1.327 . S
C2049 H2072 0.950 . S
C2050 C2049 1.349 . S
C2050 C2062 1.349 . S
C2051 C2049 1.327 . S
C2051 C2067 1.429 . S
C2051 H2073 0.950 . S
C2052 H2048 0.952 . S
C2052 C2060 1.574 . S
C2052 C2068 1.368 1_655 S
H2053 C2061 0.950 . S
H2054 C2059 0.950 . S
H2055 C2060 0.949 . S
H2056 C2062 0.950 . S
H2057 C2063 0.950 . S
H2058 C2064 0.949 . S
C2059 H2054 0.950 . S
C2059 C2061 1.327 . S
C2059 C2065 1.429 . S
C2060 C2052 1.574 . S
C2060 H2055 0.949 . S
C2060 C2066 1.368 . S
C2061 C2045 1.349 . S
C2061 H2053 0.950 . S
C2061 C2059 1.327 . S
C2062 C2050 1.349 . S
C2062 H2056 0.950 . S
C2062 C2063 1.327 . S
C2063 H2057 0.950 . S
C2063 C2062 1.327 . S
C2063 C2067 1.429 . S
C2064 C2047 1.574 1_455 S
C2064 H2058 0.949 . S
C2064 C2068 1.368 . S
C2065 C2046 1.429 . S
C2065 C2059 1.429 . S
C2065 C2066 1.523 . S
C2066 C2047 1.368 . S
C2066 C2060 1.368 . S
C2066 C2065 1.523 . S
C2067 C2051 1.429 . S
C2067 C2063 1.429 . S
C2067 C2068 1.523 . S
C2068 C2052 1.368 1_455 S
C2068 C2064 1.368 . S
C2068 C2067 1.523 . S
H2069 C2044 0.950 . S
H2070 C2046 0.950 . S
H2071 C2047 0.949 . S
H2072 C2049 0.950 . S
H2073 C2051 0.950 . S
C2074 C2075 1.349 . S
C2074 C2076 1.327 . S
C2074 H2099 0.950 . S
C2075 C2074 1.349 . S
C2075 C2091 1.349 . S
C2076 C2074 1.327 . S
C2076 C2095 1.429 . S
C2076 H2100 0.950 . S
C2077 C2094 1.574 . S
C2077 C2096 1.368 . S
C2077 H2101 0.949 . S
H2078 C2082 0.949 . S
C2079 C2080 1.349 . S
C2079 C2081 1.327 . S
C2079 H2102 0.950 . S
C2080 C2079 1.349 . S
C2080 C2092 1.349 . S
C2081 C2079 1.327 . S
C2081 C2097 1.429 . S
C2081 H2103 0.950 . S
C2082 H2078 0.949 . S
C2082 C2090 1.574 . S
C2082 C2098 1.368 . S
H2083 C2091 0.950 . S
H2084 C2089 0.950 . S
H2085 C2090 0.949 . S
H2086 C2092 0.950 . S
H2087 C2093 0.950 . S
H2088 C2094 0.949 . S
C2089 H2084 0.950 . S
C2089 C2091 1.327 . S
C2089 C2095 1.429 . S
C2090 C2082 1.574 . S
C2090 H2085 0.949 . S
C2090 C2096 1.368 . S
C2091 C2075 1.349 . S
C2091 H2083 0.950 . S
C2091 C2089 1.327 . S
C2092 C2080 1.349 . S
C2092 H2086 0.950 . S
C2092 C2093 1.327 . S
C2093 H2087 0.950 . S
C2093 C2092 1.327 . S
C2093 C2097 1.429 . S
C2094 C2077 1.574 . S
C2094 H2088 0.949 . S
C2094 C2098 1.368 . S
C2095 C2076 1.429 . S
C2095 C2089 1.429 . S
C2095 C2096 1.523 . S
C2096 C2077 1.368 . S
C2096 C2090 1.368 . S
C2096 C2095 1.523 . S
C2097 C2081 1.429 . S
C2097 C2093 1.429 . S
C2097 C2098 1.523 . S
C2098 C2082 1.368 . S
C2098 C2094 1.368 . S
C2098 C2097 1.523 . S
H2099 C2074 0.950 . S
H2100 C2076 0.950 . S
H2101 C2077 0.949 . S
H2102 C2079 0.950 . S
H2103 C2081 0.950 . S
C2104 C2105 1.349 . S
C2104 C2106 1.327 . S
C2104 H2129 0.950 . S
C2105 C2104 1.349 . S
C2105 C2121 1.349 . S
C2106 C2104 1.327 . S
C2106 C2125 1.429 . S
C2106 H2130 0.950 . S
C2107 C2124 1.574 . S
C2107 C2126 1.368 . S
C2107 H2131 0.949 . S
H2108 C2112 0.949 . S
C2109 C2110 1.349 . S
C2109 C2111 1.327 . S
C2109 H2132 0.950 . S
C2110 C2109 1.349 . S
C2110 C2122 1.349 . S
C2111 C2109 1.327 . S
C2111 C2127 1.429 . S
C2111 H2133 0.950 . S
C2112 H2108 0.949 . S
C2112 C2120 1.574 . S
C2112 C2128 1.368 . S
H2113 C2121 0.950 . S
H2114 C2119 0.950 . S
H2115 C2120 0.949 . S
H2116 C2122 0.950 . S
H2117 C2123 0.950 . S
H2118 C2124 0.949 . S
C2119 H2114 0.950 . S
C2119 C2121 1.327 . S
C2119 C2125 1.429 . S
C2120 C2112 1.574 . S
C2120 H2115 0.949 . S
C2120 C2126 1.368 . S
C2121 C2105 1.349 . S
C2121 H2113 0.950 . S
C2121 C2119 1.327 . S
C2122 C2110 1.349 . S
C2122 H2116 0.950 . S
C2122 C2123 1.327 . S
C2123 H2117 0.950 . S
C2123 C2122 1.327 . S
C2123 C2127 1.429 . S
C2124 C2107 1.574 . S
C2124 H2118 0.949 . S
C2124 C2128 1.368 . S
C2125 C2106 1.429 . S
C2125 C2119 1.429 . S
C2125 C2126 1.523 . S
C2126 C2107 1.368 . S
C2126 C2120 1.368 . S
C2126 C2125 1.523 . S
C2127 C2111 1.429 . S
C2127 C2123 1.429 . S
C2127 C2128 1.523 . S
C2128 C2112 1.368 . S
C2128 C2124 1.368 . S
C2128 C2127 1.523 . S
H2129 C2104 0.950 . S
H2130 C2106 0.950 . S
H2131 C2107 0.949 . S
H2132 C2109 0.950 . S
H2133 C2111 0.950 . S
C2134 C2135 1.349 . S
C2134 C2136 1.327 . S
C2134 H2159 0.950 . S
C2135 C2134 1.349 . S
C2135 C2151 1.349 . S
C2136 C2134 1.327 . S
C2136 C2155 1.429 . S
C2136 H2160 0.950 . S
C2137 C2154 1.574 . S
C2137 C2156 1.368 . S
C2137 H2161 0.949 . S
H2138 C2142 0.949 . S
C2139 C2140 1.349 . S
C2139 C2141 1.327 . S
C2139 H2162 0.950 . S
C2140 C2139 1.349 . S
C2140 C2152 1.349 . S
C2141 C2139 1.327 . S
C2141 C2157 1.429 . S
C2141 H2163 0.950 . S
C2142 H2138 0.949 . S
C2142 C2150 1.574 1_556 S
C2142 C2158 1.368 . S
H2143 C2151 0.950 . S
H2144 C2149 0.950 . S
H2145 C2150 0.949 . S
H2146 C2152 0.950 . S
H2147 C2153 0.950 . S
H2148 C2154 0.949 . S
C2149 H2144 0.950 . S
C2149 C2151 1.327 . S
C2149 C2155 1.429 . S
C2150 C2142 1.574 1_554 S
C2150 H2145 0.949 . S
C2150 C2156 1.368 . S
C2151 C2135 1.349 . S
C2151 H2143 0.950 . S
C2151 C2149 1.327 . S
C2152 C2140 1.349 . S
C2152 H2146 0.950 . S
C2152 C2153 1.327 . S
C2153 H2147 0.950 . S
C2153 C2152 1.327 . S
C2153 C2157 1.429 . S
C2154 C2137 1.574 . S
C2154 H2148 0.949 . S
C2154 C2158 1.368 1_554 S
C2155 C2136 1.429 . S
C2155 C2149 1.429 . S
C2155 C2156 1.523 . S
C2156 C2137 1.368 . S
C2156 C2150 1.368 . S
C2156 C2155 1.523 . S
C2157 C2141 1.429 . S
C2157 C2153 1.429 . S
C2157 C2158 1.523 . S
C2158 C2142 1.368 . S
C2158 C2154 1.368 1_556 S
C2158 C2157 1.523 . S
H2159 C2134 0.950 . S
H2160 C2136 0.950 . S
H2161 C2137 0.949 . S
H2162 C2139 0.950 . S
H2163 C2141 0.950 . S
C2164 C2165 1.349 . S
C2164 C2166 1.327 . S
C2164 H2189 0.950 . S
C2165 C2164 1.349 . S
C2165 C2181 1.349 . S
C2166 C2164 1.327 . S
C2166 C2185 1.429 . S
C2166 H2190 0.950 . S
C2167 C2184 1.574 . S
C2167 C2186 1.368 . S
C2167 H2191 0.949 . S
H2168 C2172 0.949 . S
C2169 C2170 1.349 . S
C2169 C2171 1.327 . S
C2169 H2192 0.950 . S
C2170 C2169 1.349 . S
C2170 C2182 1.349 . S
C2171 C2169 1.327 . S
C2171 C2187 1.429 . S
C2171 H2193 0.950 . S
C2172 H2168 0.949 . S
C2172 C2180 1.574 . S
C2172 C2188 1.368 . S
H2173 C2181 0.950 . S
H2174 C2179 0.950 . S
H2175 C2180 0.949 . S
H2176 C2182 0.950 . S
H2177 C2183 0.950 . S
H2178 C2184 0.949 . S
C2179 H2174 0.950 . S
C2179 C2181 1.327 . S
C2179 C2185 1.429 . S
C2180 C2172 1.574 . S
C2180 H2175 0.949 . S
C2180 C2186 1.368 . S
C2181 C2165 1.349 . S
C2181 H2173 0.950 . S
C2181 C2179 1.327 . S
C2182 C2170 1.349 . S
C2182 H2176 0.950 . S
C2182 C2183 1.327 . S
C2183 H2177 0.950 . S
C2183 C2182 1.327 . S
C2183 C2187 1.429 . S
C2184 C2167 1.574 . S
C2184 H2178 0.949 . S
C2184 C2188 1.368 . S
C2185 C2166 1.429 . S
C2185 C2179 1.429 . S
C2185 C2186 1.523 . S
C2186 C2167 1.368 . S
C2186 C2180 1.368 . S
C2186 C2185 1.523 . S
C2187 C2171 1.429 . S
C2187 C2183 1.429 . S
C2187 C2188 1.523 . S
C2188 C2172 1.368 . S
C2188 C2184 1.368 . S
C2188 C2187 1.523 . S
H2189 C2164 0.950 . S
H2190 C2166 0.950 . S
H2191 C2167 0.949 . S
H2192 C2169 0.950 . S
H2193 C2171 0.950 . S
C2194 C2195 1.349 . S
C2194 C2196 1.327 . S
C2194 H2219 0.950 . S
C2195 C2194 1.349 . S
C2195 C2211 1.349 . S
C2196 C2194 1.327 . S
C2196 C2215 1.429 . S
C2196 H2220 0.950 . S
C2197 C2214 1.574 . S
C2197 C2216 1.368 . S
C2197 H2221 0.949 . S
H2198 C2202 0.949 . S
C2199 C2200 1.349 . S
C2199 C2201 1.327 . S
C2199 H2222 0.950 . S
C2200 C2199 1.349 . S
C2200 C2212 1.349 . S
C2201 C2199 1.327 . S
C2201 C2217 1.429 . S
C2201 H2223 0.950 . S
C2202 H2198 0.949 . S
C2202 C2210 1.574 . S
C2202 C2218 1.368 . S
H2203 C2211 0.950 . S
H2204 C2209 0.950 . S
H2205 C2210 0.949 . S
H2206 C2212 0.950 . S
H2207 C2213 0.950 . S
H2208 C2214 0.949 . S
C2209 H2204 0.950 . S
C2209 C2211 1.327 . S
C2209 C2215 1.429 . S
C2210 C2202 1.574 . S
C2210 H2205 0.949 . S
C2210 C2216 1.368 . S
C2211 C2195 1.349 . S
C2211 H2203 0.950 . S
C2211 C2209 1.327 . S
C2212 C2200 1.349 . S
C2212 H2206 0.950 . S
C2212 C2213 1.327 . S
C2213 H2207 0.950 . S
C2213 C2212 1.327 . S
C2213 C2217 1.429 . S
C2214 C2197 1.574 . S
C2214 H2208 0.949 . S
C2214 C2218 1.368 . S
C2215 C2196 1.429 . S
C2215 C2209 1.429 . S
C2215 C2216 1.523 . S
C2216 C2197 1.368 . S
C2216 C2210 1.368 . S
C2216 C2215 1.523 . S
C2217 C2201 1.429 . S
C2217 C2213 1.429 . S
C2217 C2218 1.523 . S
C2218 C2202 1.368 . S
C2218 C2214 1.368 . S
C2218 C2217 1.523 . S
H2219 C2194 0.950 . S
H2220 C2196 0.950 . S
H2221 C2197 0.949 . S
H2222 C2199 0.950 . S
H2223 C2201 0.950 . S
C2224 C2225 1.349 . S
C2224 C2226 1.327 . S
C2224 H2249 0.950 . S
C2225 C2224 1.349 . S
C2225 C2241 1.349 . S
C2226 C2224 1.327 . S
C2226 C2245 1.429 . S
C2226 H2250 0.950 . S
C2227 C2244 1.574 . S
C2227 C2246 1.368 . S
C2227 H2251 0.949 . S
H2228 C2232 0.949 . S
C2229 C2230 1.349 . S
C2229 C2231 1.327 . S
C2229 H2252 0.950 . S
C2230 C2229 1.349 . S
C2230 C2242 1.349 . S
C2231 C2229 1.327 . S
C2231 C2247 1.429 . S
C2231 H2253 0.950 . S
C2232 H2228 0.949 . S
C2232 C2240 1.574 . S
C2232 C2248 1.368 . S
H2233 C2241 0.950 . S
H2234 C2239 0.950 . S
H2235 C2240 0.949 . S
H2236 C2242 0.950 . S
H2237 C2243 0.950 . S
H2238 C2244 0.949 . S
C2239 H2234 0.950 . S
C2239 C2241 1.327 . S
C2239 C2245 1.429 . S
C2240 C2232 1.574 . S
C2240 H2235 0.949 . S
C2240 C2246 1.368 . S
C2241 C2225 1.349 . S
C2241 H2233 0.950 . S
C2241 C2239 1.327 . S
C2242 C2230 1.349 . S
C2242 H2236 0.950 . S
C2242 C2243 1.327 . S
C2243 H2237 0.950 . S
C2243 C2242 1.327 . S
C2243 C2247 1.429 . S
C2244 C2227 1.574 . S
C2244 H2238 0.949 . S
C2244 C2248 1.368 . S
C2245 C2226 1.429 . S
C2245 C2239 1.429 . S
C2245 C2246 1.523 . S
C2246 C2227 1.368 . S
C2246 C2240 1.368 . S
C2246 C2245 1.523 . S
C2247 C2231 1.429 . S
C2247 C2243 1.429 . S
C2247 C2248 1.523 . S
C2248 C2232 1.368 . S
C2248 C2244 1.368 . S
C2248 C2247 1.523 . S
H2249 C2224 0.950 . S
H2250 C2226 0.950 . S
H2251 C2227 0.949 . S
H2252 C2229 0.950 . S
H2253 C2231 0.950 . S
C2254 C2255 1.349 . S
C2254 C2256 1.327 . S
C2254 H2279 0.950 . S
C2255 C2254 1.349 . S
C2255 C2271 1.349 . S
C2256 C2254 1.327 . S
C2256 C2275 1.429 . S
C2256 H2280 0.950 . S
C2257 C2274 1.574 . S
C2257 C2276 1.368 . S
C2257 H2281 0.949 . S
H2258 C2262 0.949 . S
C2259 C2260 1.349 . S
C2259 C2261 1.327 . S
C2259 H2282 0.950 . S
C2260 C2259 1.349 . S
C2260 C2272 1.349 . S
C2261 C2259 1.327 . S
C2261 C2277 1.429 . S
C2261 H2283 0.950 . S
C2262 H2258 0.949 . S
C2262 C2270 1.574 1_554 S
C2262 C2278 1.368 . S
H2263 C2271 0.950 . S
H2264 C2269 0.950 . S
H2265 C2270 0.949 . S
H2266 C2272 0.950 . S
H2267 C2273 0.950 . S
H2268 C2274 0.949 . S
C2269 H2264 0.950 . S
C2269 C2271 1.327 . S
C2269 C2275 1.429 . S
C2270 C2262 1.574 1_556 S
C2270 H2265 0.949 . S
C2270 C2276 1.368 . S
C2271 C2255 1.349 . S
C2271 H2263 0.950 . S
C2271 C2269 1.327 . S
C2272 C2260 1.349 . S
C2272 H2266 0.950 . S
C2272 C2273 1.327 . S
C2273 H2267 0.950 . S
C2273 C2272 1.327 . S
C2273 C2277 1.429 . S
C2274 C2257 1.574 . S
C2274 H2268 0.949 . S
C2274 C2278 1.368 1_556 S
C2275 C2256 1.429 . S
C2275 C2269 1.429 . S
C2275 C2276 1.523 . S
C2276 C2257 1.368 . S
C2276 C2270 1.368 . S
C2276 C2275 1.523 . S
C2277 C2261 1.429 . S
C2277 C2273 1.429 . S
C2277 C2278 1.523 . S
C2278 C2262 1.368 . S
C2278 C2274 1.368 1_554 S
C2278 C2277 1.523 . S
H2279 C2254 0.950 . S
H2280 C2256 0.950 . S
H2281 C2257 0.949 . S
H2282 C2259 0.950 . S
H2283 C2261 0.950 . S
C2284 C2285 1.349 . S
C2284 C2286 1.327 . S
C2284 H2309 0.950 . S
C2285 C2284 1.349 . S
C2285 C2301 1.349 . S
C2286 C2284 1.327 . S
C2286 C2305 1.429 . S
C2286 H2310 0.950 . S
C2287 C2304 1.574 . S
C2287 C2306 1.368 . S
C2287 H2311 0.949 . S
H2288 C2292 0.949 . S
C2289 C2290 1.349 . S
C2289 C2291 1.327 . S
C2289 H2312 0.950 . S
C2290 C2289 1.349 . S
C2290 C2302 1.349 . S
C2291 C2289 1.327 . S
C2291 C2307 1.429 . S
C2291 H2313 0.950 . S
C2292 H2288 0.949 . S
C2292 C2300 1.574 . S
C2292 C2308 1.368 . S
H2293 C2301 0.950 . S
H2294 C2299 0.950 . S
H2295 C2300 0.949 . S
H2296 C2302 0.950 . S
H2297 C2303 0.950 . S
H2298 C2304 0.949 . S
C2299 H2294 0.950 . S
C2299 C2301 1.327 . S
C2299 C2305 1.429 . S
C2300 C2292 1.574 . S
C2300 H2295 0.949 . S
C2300 C2306 1.368 . S
C2301 C2285 1.349 . S
C2301 H2293 0.950 . S
C2301 C2299 1.327 . S
C2302 C2290 1.349 . S
C2302 H2296 0.950 . S
C2302 C2303 1.327 . S
C2303 H2297 0.950 . S
C2303 C2302 1.327 . S
C2303 C2307 1.429 . S
C2304 C2287 1.574 . S
C2304 H2298 0.949 . S
C2304 C2308 1.368 . S
C2305 C2286 1.429 . S
C2305 C2299 1.429 . S
C2305 C2306 1.523 . S
C2306 C2287 1.368 . S
C2306 C2300 1.368 . S
C2306 C2305 1.523 . S
C2307 C2291 1.429 . S
C2307 C2303 1.429 . S
C2307 C2308 1.523 . S
C2308 C2292 1.368 . S
C2308 C2304 1.368 . S
C2308 C2307 1.523 . S
H2309 C2284 0.950 . S
H2310 C2286 0.950 . S
H2311 C2287 0.949 . S
H2312 C2289 0.950 . S
H2313 C2291 0.950 . S
C2314 C2315 1.349 . S
C2314 C2316 1.327 . S
C2314 H2339 0.950 . S
C2315 C2314 1.349 . S
C2315 C2331 1.349 . S
C2316 C2314 1.327 . S
C2316 C2335 1.429 . S
C2316 H2340 0.950 . S
C2317 C2334 1.574 . S
C2317 C2336 1.368 . S
C2317 H2341 0.949 . S
H2318 C2322 0.949 . S
C2319 C2320 1.349 . S
C2319 C2321 1.327 . S
C2319 H2342 0.950 . S
C2320 C2319 1.349 . S
C2320 C2332 1.349 . S
C2321 C2319 1.327 . S
C2321 C2337 1.429 . S
C2321 H2343 0.950 . S
C2322 H2318 0.949 . S
C2322 C2330 1.574 . S
C2322 C2338 1.368 . S
H2323 C2331 0.950 . S
H2324 C2329 0.950 . S
H2325 C2330 0.949 . S
H2326 C2332 0.950 . S
H2327 C2333 0.950 . S
H2328 C2334 0.949 . S
C2329 H2324 0.950 . S
C2329 C2331 1.327 . S
C2329 C2335 1.429 . S
C2330 C2322 1.574 . S
C2330 H2325 0.949 . S
C2330 C2336 1.368 . S
C2331 C2315 1.349 . S
C2331 H2323 0.950 . S
C2331 C2329 1.327 . S
C2332 C2320 1.349 . S
C2332 H2326 0.950 . S
C2332 C2333 1.327 . S
C2333 H2327 0.950 . S
C2333 C2332 1.327 . S
C2333 C2337 1.429 . S
C2334 C2317 1.574 . S
C2334 H2328 0.949 . S
C2334 C2338 1.368 . S
C2335 C2316 1.429 . S
C2335 C2329 1.429 . S
C2335 C2336 1.523 . S
C2336 C2317 1.368 . S
C2336 C2330 1.368 . S
C2336 C2335 1.523 . S
C2337 C2321 1.429 . S
C2337 C2333 1.429 . S
C2337 C2338 1.523 . S
C2338 C2322 1.368 . S
C2338 C2334 1.368 . S
C2338 C2337 1.523 . S
H2339 C2314 0.950 . S
H2340 C2316 0.950 . S
H2341 C2317 0.949 . S
H2342 C2319 0.950 . S
H2343 C2321 0.950 . S
C2344 C2345 1.349 . S
C2344 C2346 1.327 . S
C2344 H2369 0.950 . S
C2345 C2344 1.349 . S
C2345 C2361 1.349 . S
C2346 C2344 1.327 . S
C2346 C2365 1.429 . S
C2346 H2370 0.950 . S
C2347 C2364 1.574 . S
C2347 C2366 1.368 . S
C2347 H2371 0.949 . S
H2348 C2352 0.949 . S
C2349 C2350 1.349 . S
C2349 C2351 1.327 . S
C2349 H2372 0.950 . S
C2350 C2349 1.349 . S
C2350 C2362 1.349 . S
C2351 C2349 1.327 . S
C2351 C2367 1.429 . S
C2351 H2373 0.950 . S
C2352 H2348 0.949 . S
C2352 C2360 1.574 . S
C2352 C2368 1.368 . S
H2353 C2361 0.950 . S
H2354 C2359 0.950 . S
H2355 C2360 0.949 . S
H2356 C2362 0.950 . S
H2357 C2363 0.950 . S
H2358 C2364 0.949 . S
C2359 H2354 0.950 . S
C2359 C2361 1.327 . S
C2359 C2365 1.429 . S
C2360 C2352 1.574 . S
C2360 H2355 0.949 . S
C2360 C2366 1.368 . S
C2361 C2345 1.349 . S
C2361 H2353 0.950 . S
C2361 C2359 1.327 . S
C2362 C2350 1.349 . S
C2362 H2356 0.950 . S
C2362 C2363 1.327 . S
C2363 H2357 0.950 . S
C2363 C2362 1.327 . S
C2363 C2367 1.429 . S
C2364 C2347 1.574 . S
C2364 H2358 0.949 . S
C2364 C2368 1.368 . S
C2365 C2346 1.429 . S
C2365 C2359 1.429 . S
C2365 C2366 1.523 . S
C2366 C2347 1.368 . S
C2366 C2360 1.368 . S
C2366 C2365 1.523 . S
C2367 C2351 1.429 . S
C2367 C2363 1.429 . S
C2367 C2368 1.523 . S
C2368 C2352 1.368 . S
C2368 C2364 1.368 . S
C2368 C2367 1.523 . S
H2369 C2344 0.950 . S
H2370 C2346 0.950 . S
H2371 C2347 0.949 . S
H2372 C2349 0.950 . S
H2373 C2351 0.950 . S
C2374 C2375 1.349 . S
C2374 C2376 1.327 . S
C2374 H2399 0.950 . S
C2375 C2374 1.349 . S
C2375 C2391 1.349 . S
C2376 C2374 1.327 . S
C2376 C2395 1.429 . S
C2376 H2400 0.950 . S
C2377 C2394 1.574 . S
C2377 C2396 1.368 . S
C2377 H2401 0.949 . S
H2378 C2382 0.949 . S
C2379 C2380 1.349 . S
C2379 C2381 1.327 . S
C2379 H2402 0.950 . S
C2380 C2379 1.349 . S
C2380 C2392 1.349 . S
C2381 C2379 1.327 . S
C2381 C2397 1.429 . S
C2381 H2403 0.950 . S
C2382 H2378 0.949 . S
C2382 C2390 1.574 . S
C2382 C2398 1.368 . S
H2383 C2391 0.950 . S
H2384 C2389 0.950 . S
H2385 C2390 0.949 . S
H2386 C2392 0.950 . S
H2387 C2393 0.950 . S
H2388 C2394 0.949 . S
C2389 H2384 0.950 . S
C2389 C2391 1.327 . S
C2389 C2395 1.429 . S
C2390 C2382 1.574 . S
C2390 H2385 0.949 . S
C2390 C2396 1.368 . S
C2391 C2375 1.349 . S
C2391 H2383 0.950 . S
C2391 C2389 1.327 . S
C2392 C2380 1.349 . S
C2392 H2386 0.950 . S
C2392 C2393 1.327 . S
C2393 H2387 0.950 . S
C2393 C2392 1.327 . S
C2393 C2397 1.429 . S
C2394 C2377 1.574 . S
C2394 H2388 0.949 . S
C2394 C2398 1.368 . S
C2395 C2376 1.429 . S
C2395 C2389 1.429 . S
C2395 C2396 1.523 . S
C2396 C2377 1.368 . S
C2396 C2390 1.368 . S
C2396 C2395 1.523 . S
C2397 C2381 1.429 . S
C2397 C2393 1.429 . S
C2397 C2398 1.523 . S
C2398 C2382 1.368 . S
C2398 C2394 1.368 . S
C2398 C2397 1.523 . S
H2399 C2374 0.950 . S
H2400 C2376 0.950 . S
H2401 C2377 0.949 . S
H2402 C2379 0.950 . S
H2403 C2381 0.950 . S
C2404 C2405 1.349 . S
C2404 C2406 1.327 . S
C2404 H2429 0.950 . S
C2405 C2404 1.349 . S
C2405 C2421 1.349 . S
C2406 C2404 1.327 . S
C2406 C2425 1.429 . S
C2406 H2430 0.950 . S
C2407 C2424 1.574 . S
C2407 C2426 1.368 . S
C2407 H2431 0.949 . S
H2408 C2412 0.949 . S
C2409 C2410 1.349 . S
C2409 C2411 1.327 . S
C2409 H2432 0.950 . S
C2410 C2409 1.349 . S
C2410 C2422 1.349 . S
C2411 C2409 1.327 . S
C2411 C2427 1.429 . S
C2411 H2433 0.950 . S
C2412 H2408 0.949 . S
C2412 C2420 1.574 . S
C2412 C2428 1.368 . S
H2413 C2421 0.950 . S
H2414 C2419 0.950 . S
H2415 C2420 0.949 . S
H2416 C2422 0.950 . S
H2417 C2423 0.950 . S
H2418 C2424 0.949 . S
C2419 H2414 0.950 . S
C2419 C2421 1.327 . S
C2419 C2425 1.429 . S
C2420 C2412 1.574 . S
C2420 H2415 0.949 . S
C2420 C2426 1.368 . S
C2421 C2405 1.349 . S
C2421 H2413 0.950 . S
C2421 C2419 1.327 . S
C2422 C2410 1.349 . S
C2422 H2416 0.950 . S
C2422 C2423 1.327 . S
C2423 H2417 0.950 . S
C2423 C2422 1.327 . S
C2423 C2427 1.429 . S
C2424 C2407 1.574 . S
C2424 H2418 0.949 . S
C2424 C2428 1.368 . S
C2425 C2406 1.429 . S
C2425 C2419 1.429 . S
C2425 C2426 1.523 . S
C2426 C2407 1.368 . S
C2426 C2420 1.368 . S
C2426 C2425 1.523 . S
C2427 C2411 1.429 . S
C2427 C2423 1.429 . S
C2427 C2428 1.523 . S
C2428 C2412 1.368 . S
C2428 C2424 1.368 . S
C2428 C2427 1.523 . S
H2429 C2404 0.950 . S
H2430 C2406 0.950 . S
H2431 C2407 0.949 . S
H2432 C2409 0.950 . S
H2433 C2411 0.950 . S
C2434 C2435 1.349 . S
C2434 C2436 1.327 . S
C2434 H2459 0.950 . S
C2435 C2434 1.349 . S
C2435 C2451 1.349 . S
C2436 C2434 1.327 . S
C2436 C2455 1.429 . S
C2436 H2460 0.950 . S
C2437 C2454 1.574 . S
C2437 C2456 1.368 . S
C2437 H2461 0.949 . S
H2438 C2442 0.949 . S
C2439 C2440 1.349 . S
C2439 C2441 1.327 . S
C2439 H2462 0.950 . S
C2440 C2439 1.349 . S
C2440 C2452 1.349 . S
C2441 C2439 1.327 . S
C2441 C2457 1.429 . S
C2441 H2463 0.950 . S
C2442 H2438 0.949 . S
C2442 C2450 1.574 . S
C2442 C2458 1.368 . S
H2443 C2451 0.950 . S
H2444 C2449 0.950 . S
H2445 C2450 0.949 . S
H2446 C2452 0.950 . S
H2447 C2453 0.950 . S
H2448 C2454 0.949 . S
C2449 H2444 0.950 . S
C2449 C2451 1.327 . S
C2449 C2455 1.429 . S
C2450 C2442 1.574 . S
C2450 H2445 0.949 . S
C2450 C2456 1.368 . S
C2451 C2435 1.349 . S
C2451 H2443 0.950 . S
C2451 C2449 1.327 . S
C2452 C2440 1.349 . S
C2452 H2446 0.950 . S
C2452 C2453 1.327 . S
C2453 H2447 0.950 . S
C2453 C2452 1.327 . S
C2453 C2457 1.429 . S
C2454 C2437 1.574 . S
C2454 H2448 0.949 . S
C2454 C2458 1.368 . S
C2455 C2436 1.429 . S
C2455 C2449 1.429 . S
C2455 C2456 1.523 . S
C2456 C2437 1.368 . S
C2456 C2450 1.368 . S
C2456 C2455 1.523 . S
C2457 C2441 1.429 . S
C2457 C2453 1.429 . S
C2457 C2458 1.523 . S
C2458 C2442 1.368 . S
C2458 C2454 1.368 . S
C2458 C2457 1.523 . S
H2459 C2434 0.950 . S
H2460 C2436 0.950 . S
H2461 C2437 0.949 . S
H2462 C2439 0.950 . S
H2463 C2441 0.950 . S
C2464 C2465 1.349 . S
C2464 C2466 1.327 . S
C2464 H2489 0.950 . S
C2465 C2464 1.349 . S
C2465 C2481 1.349 . S
C2466 C2464 1.327 . S
C2466 C2485 1.429 . S
C2466 H2490 0.950 . S
C2467 C2484 1.574 . S
C2467 C2486 1.368 . S
C2467 H2491 0.949 . S
H2468 C2472 0.949 . S
C2469 C2470 1.349 . S
C2469 C2471 1.327 . S
C2469 H2492 0.950 . S
C2470 C2469 1.349 . S
C2470 C2482 1.349 . S
C2471 C2469 1.327 . S
C2471 C2487 1.429 . S
C2471 H2493 0.950 . S
C2472 H2468 0.949 . S
C2472 C2480 1.574 . S
C2472 C2488 1.368 . S
H2473 C2481 0.950 . S
H2474 C2479 0.950 . S
H2475 C2480 0.949 . S
H2476 C2482 0.950 . S
H2477 C2483 0.950 . S
H2478 C2484 0.949 . S
C2479 H2474 0.950 . S
C2479 C2481 1.327 . S
C2479 C2485 1.429 . S
C2480 C2472 1.574 . S
C2480 H2475 0.949 . S
C2480 C2486 1.368 . S
C2481 C2465 1.349 . S
C2481 H2473 0.950 . S
C2481 C2479 1.327 . S
C2482 C2470 1.349 . S
C2482 H2476 0.950 . S
C2482 C2483 1.327 . S
C2483 H2477 0.950 . S
C2483 C2482 1.327 . S
C2483 C2487 1.429 . S
C2484 C2467 1.574 . S
C2484 H2478 0.949 . S
C2484 C2488 1.368 . S
C2485 C2466 1.429 . S
C2485 C2479 1.429 . S
C2485 C2486 1.523 . S
C2486 C2467 1.368 . S
C2486 C2480 1.368 . S
C2486 C2485 1.523 . S
C2487 C2471 1.429 . S
C2487 C2483 1.429 . S
C2487 C2488 1.523 . S
C2488 C2472 1.368 . S
C2488 C2484 1.368 . S
C2488 C2487 1.523 . S
H2489 C2464 0.950 . S
H2490 C2466 0.950 . S
H2491 C2467 0.949 . S
H2492 C2469 0.950 . S
H2493 C2471 0.950 . S
C2494 C2495 1.349 . S
C2494 C2496 1.327 . S
C2494 H2519 0.950 . S
C2495 C2494 1.349 . S
C2495 C2511 1.349 . S
C2496 C2494 1.327 . S
C2496 C2515 1.429 . S
C2496 H2520 0.950 . S
C2497 C2514 1.574 . S
C2497 C2516 1.368 . S
C2497 H2521 0.949 . S
H2498 C2502 0.949 . S
C2499 C2500 1.349 . S
C2499 C2501 1.327 . S
C2499 H2522 0.950 . S
C2500 C2499 1.349 . S
C2500 C2512 1.349 . S
C2501 C2499 1.327 . S
C2501 C2517 1.429 . S
C2501 H2523 0.950 . S
C2502 H2498 0.949 . S
C2502 C2510 1.574 . S
C2502 C2518 1.368 . S
H2503 C2511 0.950 . S
H2504 C2509 0.950 . S
H2505 C2510 0.949 . S
H2506 C2512 0.950 . S
H2507 C2513 0.950 . S
H2508 C2514 0.949 . S
C2509 H2504 0.950 . S
C2509 C2511 1.327 . S
C2509 C2515 1.429 . S
C2510 C2502 1.574 . S
C2510 H2505 0.949 . S
C2510 C2516 1.368 . S
C2511 C2495 1.349 . S
C2511 H2503 0.950 . S
C2511 C2509 1.327 . S
C2512 C2500 1.349 . S
C2512 H2506 0.950 . S
C2512 C2513 1.327 . S
C2513 H2507 0.950 . S
C2513 C2512 1.327 . S
C2513 C2517 1.429 . S
C2514 C2497 1.574 . S
C2514 H2508 0.949 . S
C2514 C2518 1.368 . S
C2515 C2496 1.429 . S
C2515 C2509 1.429 . S
C2515 C2516 1.523 . S
C2516 C2497 1.368 . S
C2516 C2510 1.368 . S
C2516 C2515 1.523 . S
C2517 C2501 1.429 . S
C2517 C2513 1.429 . S
C2517 C2518 1.523 . S
C2518 C2502 1.368 . S
C2518 C2514 1.368 . S
C2518 C2517 1.523 . S
H2519 C2494 0.950 . S
H2520 C2496 0.950 . S
H2521 C2497 0.949 . S
H2522 C2499 0.950 . S
H2523 C2501 0.950 . S
C2524 C2525 1.349 . S
C2524 C2526 1.327 . S
C2524 H2549 0.950 . S
C2525 C2524 1.349 . S
C2525 C2541 1.349 . S
C2526 C2524 1.327 . S
C2526 C2545 1.429 . S
C2526 H2550 0.950 . S
C2527 C2544 1.574 . S
C2527 C2546 1.368 . S
C2527 H2551 0.949 . S
H2528 C2532 0.949 . S
C2529 C2530 1.349 . S
C2529 C2531 1.327 . S
C2529 H2552 0.950 . S
C2530 C2529 1.349 . S
C2530 C2542 1.349 . S
C2531 C2529 1.327 . S
C2531 C2547 1.429 . S
C2531 H2553 0.950 . S
C2532 H2528 0.949 . S
C2532 C2540 1.574 . S
C2532 C2548 1.368 . S
H2533 C2541 0.950 . S
H2534 C2539 0.950 . S
H2535 C2540 0.949 . S
H2536 C2542 0.950 . S
H2537 C2543 0.950 . S
H2538 C2544 0.949 . S
C2539 H2534 0.950 . S
C2539 C2541 1.327 . S
C2539 C2545 1.429 . S
C2540 C2532 1.574 . S
C2540 H2535 0.949 . S
C2540 C2546 1.368 . S
C2541 C2525 1.349 . S
C2541 H2533 0.950 . S
C2541 C2539 1.327 . S
C2542 C2530 1.349 . S
C2542 H2536 0.950 . S
C2542 C2543 1.327 . S
C2543 H2537 0.950 . S
C2543 C2542 1.327 . S
C2543 C2547 1.429 . S
C2544 C2527 1.574 . S
C2544 H2538 0.949 . S
C2544 C2548 1.368 . S
C2545 C2526 1.429 . S
C2545 C2539 1.429 . S
C2545 C2546 1.523 . S
C2546 C2527 1.368 . S
C2546 C2540 1.368 . S
C2546 C2545 1.523 . S
C2547 C2531 1.429 . S
C2547 C2543 1.429 . S
C2547 C2548 1.523 . S
C2548 C2532 1.368 . S
C2548 C2544 1.368 . S
C2548 C2547 1.523 . S
H2549 C2524 0.950 . S
H2550 C2526 0.950 . S
H2551 C2527 0.949 . S
H2552 C2529 0.950 . S
H2553 C2531 0.950 . S
C2554 C2555 1.349 . S
C2554 C2556 1.327 . S
C2554 H2579 0.950 . S
C2555 C2554 1.349 . S
C2555 C2571 1.349 . S
C2556 C2554 1.327 . S
C2556 C2575 1.429 . S
C2556 H2580 0.950 . S
C2557 C2574 1.574 . S
C2557 C2576 1.368 . S
C2557 H2581 0.949 . S
H2558 C2562 0.949 . S
C2559 C2560 1.349 . S
C2559 C2561 1.327 . S
C2559 H2582 0.950 . S
C2560 C2559 1.349 . S
C2560 C2572 1.349 . S
C2561 C2559 1.327 . S
C2561 C2577 1.429 . S
C2561 H2583 0.950 . S
C2562 H2558 0.949 . S
C2562 C2570 1.574 . S
C2562 C2578 1.368 . S
H2563 C2571 0.950 . S
H2564 C2569 0.950 . S
H2565 C2570 0.949 . S
H2566 C2572 0.950 . S
H2567 C2573 0.950 . S
H2568 C2574 0.949 . S
C2569 H2564 0.950 . S
C2569 C2571 1.327 . S
C2569 C2575 1.429 . S
C2570 C2562 1.574 . S
C2570 H2565 0.949 . S
C2570 C2576 1.368 . S
C2571 C2555 1.349 . S
C2571 H2563 0.950 . S
C2571 C2569 1.327 . S
C2572 C2560 1.349 . S
C2572 H2566 0.950 . S
C2572 C2573 1.327 . S
C2573 H2567 0.950 . S
C2573 C2572 1.327 . S
C2573 C2577 1.429 . S
C2574 C2557 1.574 . S
C2574 H2568 0.949 . S
C2574 C2578 1.368 . S
C2575 C2556 1.429 . S
C2575 C2569 1.429 . S
C2575 C2576 1.523 . S
C2576 C2557 1.368 . S
C2576 C2570 1.368 . S
C2576 C2575 1.523 . S
C2577 C2561 1.429 . S
C2577 C2573 1.429 . S
C2577 C2578 1.523 . S
C2578 C2562 1.368 . S
C2578 C2574 1.368 . S
C2578 C2577 1.523 . S
H2579 C2554 0.950 . S
H2580 C2556 0.950 . S
H2581 C2557 0.949 . S
H2582 C2559 0.950 . S
H2583 C2561 0.950 . S
C2584 C2585 1.349 . S
C2584 C2586 1.327 . S
C2584 H2609 0.950 . S
C2585 C2584 1.349 . S
C2585 C2601 1.349 . S
C2586 C2584 1.327 . S
C2586 C2605 1.429 . S
C2586 H2610 0.950 . S
C2587 C2604 1.574 . S
C2587 C2606 1.368 . S
C2587 H2611 0.949 . S
H2588 C2592 0.949 . S
C2589 C2590 1.349 . S
C2589 C2591 1.327 . S
C2589 H2612 0.950 . S
C2590 C2589 1.349 . S
C2590 C2602 1.349 . S
C2591 C2589 1.327 . S
C2591 C2607 1.429 . S
C2591 H2613 0.950 . S
C2592 H2588 0.949 . S
C2592 C2600 1.574 . S
C2592 C2608 1.368 . S
H2593 C2601 0.950 . S
H2594 C2599 0.950 . S
H2595 C2600 0.949 . S
H2596 C2602 0.950 . S
H2597 C2603 0.950 . S
H2598 C2604 0.949 . S
C2599 H2594 0.950 . S
C2599 C2601 1.327 . S
C2599 C2605 1.429 . S
C2600 C2592 1.574 . S
C2600 H2595 0.949 . S
C2600 C2606 1.368 . S
C2601 C2585 1.349 . S
C2601 H2593 0.950 . S
C2601 C2599 1.327 . S
C2602 C2590 1.349 . S
C2602 H2596 0.950 . S
C2602 C2603 1.327 . S
C2603 H2597 0.950 . S
C2603 C2602 1.327 . S
C2603 C2607 1.429 . S
C2604 C2587 1.574 . S
C2604 H2598 0.949 . S
C2604 C2608 1.368 . S
C2605 C2586 1.429 . S
C2605 C2599 1.429 . S
C2605 C2606 1.523 . S
C2606 C2587 1.368 . S
C2606 C2600 1.368 . S
C2606 C2605 1.523 . S
C2607 C2591 1.429 . S
C2607 C2603 1.429 . S
C2607 C2608 1.523 . S
C2608 C2592 1.368 . S
C2608 C2604 1.368 . S
C2608 C2607 1.523 . S
H2609 C2584 0.950 . S
H2610 C2586 0.950 . S
H2611 C2587 0.949 . S
H2612 C2589 0.950 . S
H2613 C2591 0.950 . S
C2614 C2615 1.349 . S
C2614 C2616 1.327 . S
C2614 H2639 0.950 . S
C2615 C2614 1.349 . S
C2615 C2631 1.349 . S
C2616 C2614 1.327 . S
C2616 C2635 1.429 . S
C2616 H2640 0.950 . S
C2617 C2634 1.574 . S
C2617 C2636 1.368 . S
C2617 H2641 0.949 . S
H2618 C2622 0.949 . S
C2619 C2620 1.349 . S
C2619 C2621 1.327 . S
C2619 H2642 0.950 . S
C2620 C2619 1.349 . S
C2620 C2632 1.349 . S
C2621 C2619 1.327 . S
C2621 C2637 1.429 . S
C2621 H2643 0.950 . S
C2622 H2618 0.949 . S
C2622 C2630 1.574 . S
C2622 C2638 1.368 . S
H2623 C2631 0.950 . S
H2624 C2629 0.950 . S
H2625 C2630 0.949 . S
H2626 C2632 0.950 . S
H2627 C2633 0.950 . S
H2628 C2634 0.949 . S
C2629 H2624 0.950 . S
C2629 C2631 1.327 . S
C2629 C2635 1.429 . S
C2630 C2622 1.574 . S
C2630 H2625 0.949 . S
C2630 C2636 1.368 . S
C2631 C2615 1.349 . S
C2631 H2623 0.950 . S
C2631 C2629 1.327 . S
C2632 C2620 1.349 . S
C2632 H2626 0.950 . S
C2632 C2633 1.327 . S
C2633 H2627 0.950 . S
C2633 C2632 1.327 . S
C2633 C2637 1.429 . S
C2634 C2617 1.574 . S
C2634 H2628 0.949 . S
C2634 C2638 1.368 . S
C2635 C2616 1.429 . S
C2635 C2629 1.429 . S
C2635 C2636 1.523 . S
C2636 C2617 1.368 . S
C2636 C2630 1.368 . S
C2636 C2635 1.523 . S
C2637 C2621 1.429 . S
C2637 C2633 1.429 . S
C2637 C2638 1.523 . S
C2638 C2622 1.368 . S
C2638 C2634 1.368 . S
C2638 C2637 1.523 . S
H2639 C2614 0.950 . S
H2640 C2616 0.950 . S
H2641 C2617 0.949 . S
H2642 C2619 0.950 . S
H2643 C2621 0.950 . S
C2644 C2645 1.349 . S
C2644 C2646 1.327 . S
C2644 H2669 0.950 . S
C2645 C2644 1.349 . S
C2645 C2661 1.349 . S
C2646 C2644 1.327 . S
C2646 C2665 1.429 . S
C2646 H2670 0.950 . S
C2647 C2664 1.574 . S
C2647 C2666 1.368 . S
C2647 H2671 0.949 . S
H2648 C2652 0.949 . S
C2649 C2650 1.349 . S
C2649 C2651 1.327 . S
C2649 H2672 0.950 . S
C2650 C2649 1.349 . S
C2650 C2662 1.349 . S
C2651 C2649 1.327 . S
C2651 C2667 1.429 . S
C2651 H2673 0.950 . S
C2652 H2648 0.949 . S
C2652 C2660 1.574 . S
C2652 C2668 1.368 . S
H2653 C2661 0.950 . S
H2654 C2659 0.950 . S
H2655 C2660 0.949 . S
H2656 C2662 0.950 . S
H2657 C2663 0.950 . S
H2658 C2664 0.949 . S
C2659 H2654 0.950 . S
C2659 C2661 1.327 . S
C2659 C2665 1.429 . S
C2660 C2652 1.574 . S
C2660 H2655 0.949 . S
C2660 C2666 1.368 . S
C2661 C2645 1.349 . S
C2661 H2653 0.950 . S
C2661 C2659 1.327 . S
C2662 C2650 1.349 . S
C2662 H2656 0.950 . S
C2662 C2663 1.327 . S
C2663 H2657 0.950 . S
C2663 C2662 1.327 . S
C2663 C2667 1.429 . S
C2664 C2647 1.574 . S
C2664 H2658 0.949 . S
C2664 C2668 1.368 . S
C2665 C2646 1.429 . S
C2665 C2659 1.429 . S
C2665 C2666 1.523 . S
C2666 C2647 1.368 . S
C2666 C2660 1.368 . S
C2666 C2665 1.523 . S
C2667 C2651 1.429 . S
C2667 C2663 1.429 . S
C2667 C2668 1.523 . S
C2668 C2652 1.368 . S
C2668 C2664 1.368 . S
C2668 C2667 1.523 . S
H2669 C2644 0.950 . S
H2670 C2646 0.950 . S
H2671 C2647 0.949 . S
H2672 C2649 0.950 . S
H2673 C2651 0.950 . S
C2674 C2675 1.349 . S
C2674 C2676 1.327 . S
C2674 H2699 0.950 . S
C2675 C2674 1.349 . S
C2675 C2691 1.349 . S
C2676 C2674 1.327 . S
C2676 C2695 1.429 . S
C2676 H2700 0.950 . S
C2677 C2694 1.574 . S
C2677 C2696 1.368 . S
C2677 H2701 0.949 . S
H2678 C2682 0.949 . S
C2679 C2680 1.349 . S
C2679 C2681 1.327 . S
C2679 H2702 0.950 . S
C2680 C2679 1.349 . S
C2680 C2692 1.349 . S
C2681 C2679 1.327 . S
C2681 C2697 1.429 . S
C2681 H2703 0.950 . S
C2682 H2678 0.949 . S
C2682 C2690 1.574 . S
C2682 C2698 1.368 . S
H2683 C2691 0.950 . S
H2684 C2689 0.950 . S
H2685 C2690 0.949 . S
H2686 C2692 0.950 . S
H2687 C2693 0.950 . S
H2688 C2694 0.949 . S
C2689 H2684 0.950 . S
C2689 C2691 1.327 . S
C2689 C2695 1.429 . S
C2690 C2682 1.574 . S
C2690 H2685 0.949 . S
C2690 C2696 1.368 . S
C2691 C2675 1.349 . S
C2691 H2683 0.950 . S
C2691 C2689 1.327 . S
C2692 C2680 1.349 . S
C2692 H2686 0.950 . S
C2692 C2693 1.327 . S
C2693 H2687 0.950 . S
C2693 C2692 1.327 . S
C2693 C2697 1.429 . S
C2694 C2677 1.574 . S
C2694 H2688 0.949 . S
C2694 C2698 1.368 . S
C2695 C2676 1.429 . S
C2695 C2689 1.429 . S
C2695 C2696 1.523 . S
C2696 C2677 1.368 . S
C2696 C2690 1.368 . S
C2696 C2695 1.523 . S
C2697 C2681 1.429 . S
C2697 C2693 1.429 . S
C2697 C2698 1.523 . S
C2698 C2682 1.368 . S
C2698 C2694 1.368 . S
C2698 C2697 1.523 . S
H2699 C2674 0.950 . S
H2700 C2676 0.950 . S
H2701 C2677 0.949 . S
H2702 C2679 0.950 . S
H2703 C2681 0.950 . S
C2704 C2705 1.349 . S
C2704 C2706 1.327 . S
C2704 H2729 0.950 . S
C2705 C2704 1.349 . S
C2705 C2721 1.349 . S
C2706 C2704 1.327 . S
C2706 C2725 1.429 . S
C2706 H2730 0.950 . S
C2707 C2724 1.574 . S
C2707 C2726 1.368 . S
C2707 H2731 0.949 . S
H2708 C2712 0.949 . S
C2709 C2710 1.349 . S
C2709 C2711 1.327 . S
C2709 H2732 0.950 . S
C2710 C2709 1.349 . S
C2710 C2722 1.349 . S
C2711 C2709 1.327 . S
C2711 C2727 1.429 . S
C2711 H2733 0.950 . S
C2712 H2708 0.949 . S
C2712 C2720 1.574 . S
C2712 C2728 1.368 . S
H2713 C2721 0.950 . S
H2714 C2719 0.950 . S
H2715 C2720 0.949 . S
H2716 C2722 0.950 . S
H2717 C2723 0.950 . S
H2718 C2724 0.949 . S
C2719 H2714 0.950 . S
C2719 C2721 1.327 . S
C2719 C2725 1.429 . S
C2720 C2712 1.574 . S
C2720 H2715 0.949 . S
C2720 C2726 1.368 . S
C2721 C2705 1.349 . S
C2721 H2713 0.950 . S
C2721 C2719 1.327 . S
C2722 C2710 1.349 . S
C2722 H2716 0.950 . S
C2722 C2723 1.327 . S
C2723 H2717 0.950 . S
C2723 C2722 1.327 . S
C2723 C2727 1.429 . S
C2724 C2707 1.574 . S
C2724 H2718 0.949 . S
C2724 C2728 1.368 . S
C2725 C2706 1.429 . S
C2725 C2719 1.429 . S
C2725 C2726 1.523 . S
C2726 C2707 1.368 . S
C2726 C2720 1.368 . S
C2726 C2725 1.523 . S
C2727 C2711 1.429 . S
C2727 C2723 1.429 . S
C2727 C2728 1.523 . S
C2728 C2712 1.368 . S
C2728 C2724 1.368 . S
C2728 C2727 1.523 . S
H2729 C2704 0.950 . S
H2730 C2706 0.950 . S
H2731 C2707 0.949 . S
H2732 C2709 0.950 . S
H2733 C2711 0.950 . S
C2734 C2735 1.349 . S
C2734 C2736 1.327 . S
C2734 H2759 0.950 . S
C2735 C2734 1.349 . S
C2735 C2751 1.349 . S
C2736 C2734 1.327 . S
C2736 C2755 1.429 . S
C2736 H2760 0.950 . S
C2737 C2754 1.574 . S
C2737 C2756 1.368 . S
C2737 H2761 0.949 . S
H2738 C2742 0.949 . S
C2739 C2740 1.349 . S
C2739 C2741 1.327 . S
C2739 H2762 0.950 . S
C2740 C2739 1.349 . S
C2740 C2752 1.349 . S
C2741 C2739 1.327 . S
C2741 C2757 1.429 . S
C2741 H2763 0.950 . S
C2742 H2738 0.949 . S
C2742 C2750 1.574 . S
C2742 C2758 1.368 . S
H2743 C2751 0.950 . S
H2744 C2749 0.950 . S
H2745 C2750 0.949 . S
H2746 C2752 0.950 . S
H2747 C2753 0.950 . S
H2748 C2754 0.949 . S
C2749 H2744 0.950 . S
C2749 C2751 1.327 . S
C2749 C2755 1.429 . S
C2750 C2742 1.574 . S
C2750 H2745 0.949 . S
C2750 C2756 1.368 . S
C2751 C2735 1.349 . S
C2751 H2743 0.950 . S
C2751 C2749 1.327 . S
C2752 C2740 1.349 . S
C2752 H2746 0.950 . S
C2752 C2753 1.327 . S
C2753 H2747 0.950 . S
C2753 C2752 1.327 . S
C2753 C2757 1.429 . S
C2754 C2737 1.574 . S
C2754 H2748 0.949 . S
C2754 C2758 1.368 . S
C2755 C2736 1.429 . S
C2755 C2749 1.429 . S
C2755 C2756 1.523 . S
C2756 C2737 1.368 . S
C2756 C2750 1.368 . S
C2756 C2755 1.523 . S
C2757 C2741 1.429 . S
C2757 C2753 1.429 . S
C2757 C2758 1.523 . S
C2758 C2742 1.368 . S
C2758 C2754 1.368 . S
C2758 C2757 1.523 . S
H2759 C2734 0.950 . S
H2760 C2736 0.950 . S
H2761 C2737 0.949 . S
H2762 C2739 0.950 . S
H2763 C2741 0.950 . S
C2764 C2765 1.349 . S
C2764 C2766 1.327 . S
C2764 H2789 0.950 . S
C2765 C2764 1.349 . S
C2765 C2781 1.349 . S
C2766 C2764 1.327 . S
C2766 C2785 1.429 . S
C2766 H2790 0.950 . S
C2767 C2784 1.574 . S
C2767 C2786 1.368 . S
C2767 H2791 0.949 . S
H2768 C2772 0.949 . S
C2769 C2770 1.349 . S
C2769 C2771 1.327 . S
C2769 H2792 0.950 . S
C2770 C2769 1.349 . S
C2770 C2782 1.349 . S
C2771 C2769 1.327 . S
C2771 C2787 1.429 . S
C2771 H2793 0.950 . S
C2772 H2768 0.949 . S
C2772 C2780 1.574 . S
C2772 C2788 1.368 . S
H2773 C2781 0.950 . S
H2774 C2779 0.950 . S
H2775 C2780 0.949 . S
H2776 C2782 0.950 . S
H2777 C2783 0.950 . S
H2778 C2784 0.949 . S
C2779 H2774 0.950 . S
C2779 C2781 1.327 . S
C2779 C2785 1.429 . S
C2780 C2772 1.574 . S
C2780 H2775 0.949 . S
C2780 C2786 1.368 . S
C2781 C2765 1.349 . S
C2781 H2773 0.950 . S
C2781 C2779 1.327 . S
C2782 C2770 1.349 . S
C2782 H2776 0.950 . S
C2782 C2783 1.327 . S
C2783 H2777 0.950 . S
C2783 C2782 1.327 . S
C2783 C2787 1.429 . S
C2784 C2767 1.574 . S
C2784 H2778 0.949 . S
C2784 C2788 1.368 . S
C2785 C2766 1.429 . S
C2785 C2779 1.429 . S
C2785 C2786 1.523 . S
C2786 C2767 1.368 . S
C2786 C2780 1.368 . S
C2786 C2785 1.523 . S
C2787 C2771 1.429 . S
C2787 C2783 1.429 . S
C2787 C2788 1.523 . S
C2788 C2772 1.368 . S
C2788 C2784 1.368 . S
C2788 C2787 1.523 . S
H2789 C2764 0.950 . S
H2790 C2766 0.950 . S
H2791 C2767 0.949 . S
H2792 C2769 0.950 . S
H2793 C2771 0.950 . S
C2794 C2795 1.349 . S
C2794 C2796 1.327 . S
C2794 H2819 0.950 . S
C2795 C2794 1.349 . S
C2795 C2811 1.349 . S
C2796 C2794 1.327 . S
C2796 C2815 1.429 . S
C2796 H2820 0.950 . S
C2797 C2814 1.574 1_655 S
C2797 C2816 1.368 . S
C2797 H2821 0.949 . S
H2798 C2802 0.949 . S
C2799 C2800 1.349 . S
C2799 C2801 1.327 . S
C2799 H2822 0.950 . S
C2800 C2799 1.349 . S
C2800 C2812 1.349 . S
C2801 C2799 1.327 . S
C2801 C2817 1.429 . S
C2801 H2823 0.950 . S
C2802 H2798 0.949 . S
C2802 C2810 1.574 . S
C2802 C2818 1.368 1_655 S
H2803 C2811 0.950 . S
H2804 C2809 0.950 . S
H2805 C2810 0.949 . S
H2806 C2812 0.950 . S
H2807 C2813 0.950 . S
H2808 C2814 0.949 . S
C2809 H2804 0.950 . S
C2809 C2811 1.327 . S
C2809 C2815 1.429 . S
C2810 C2802 1.574 . S
C2810 H2805 0.949 . S
C2810 C2816 1.368 . S
C2811 C2795 1.349 . S
C2811 H2803 0.950 . S
C2811 C2809 1.327 . S
C2812 C2800 1.349 . S
C2812 H2806 0.950 . S
C2812 C2813 1.327 . S
C2813 H2807 0.950 . S
C2813 C2812 1.327 . S
C2813 C2817 1.429 . S
C2814 C2797 1.574 1_455 S
C2814 H2808 0.949 . S
C2814 C2818 1.368 . S
C2815 C2796 1.429 . S
C2815 C2809 1.429 . S
C2815 C2816 1.523 . S
C2816 C2797 1.368 . S
C2816 C2810 1.368 . S
C2816 C2815 1.523 . S
C2817 C2801 1.429 . S
C2817 C2813 1.429 . S
C2817 C2818 1.523 . S
C2818 C2802 1.368 1_455 S
C2818 C2814 1.368 . S
C2818 C2817 1.523 . S
H2819 C2794 0.950 . S
H2820 C2796 0.950 . S
H2821 C2797 0.949 . S
H2822 C2799 0.950 . S
H2823 C2801 0.950 . S
C2824 C2825 1.349 . S
C2824 C2826 1.327 . S
C2824 H2849 0.950 . S
C2825 C2824 1.349 . S
C2825 C2841 1.349 . S
C2826 C2824 1.327 . S
C2826 C2845 1.429 . S
C2826 H2850 0.950 . S
C2827 C2844 1.574 . S
C2827 C2846 1.368 . S
C2827 H2851 0.949 . S
H2828 C2832 0.949 . S
C2829 C2830 1.349 . S
C2829 C2831 1.327 . S
C2829 H2852 0.950 . S
C2830 C2829 1.349 . S
C2830 C2842 1.349 . S
C2831 C2829 1.327 . S
C2831 C2847 1.429 . S
C2831 H2853 0.950 . S
C2832 H2828 0.949 . S
C2832 C2840 1.574 . S
C2832 C2848 1.368 . S
H2833 C2841 0.950 . S
H2834 C2839 0.950 . S
H2835 C2840 0.949 . S
H2836 C2842 0.950 . S
H2837 C2843 0.950 . S
H2838 C2844 0.949 . S
C2839 H2834 0.950 . S
C2839 C2841 1.327 . S
C2839 C2845 1.429 . S
C2840 C2832 1.574 . S
C2840 H2835 0.949 . S
C2840 C2846 1.368 . S
C2841 C2825 1.349 . S
C2841 H2833 0.950 . S
C2841 C2839 1.327 . S
C2842 C2830 1.349 . S
C2842 H2836 0.950 . S
C2842 C2843 1.327 . S
C2843 H2837 0.950 . S
C2843 C2842 1.327 . S
C2843 C2847 1.429 . S
C2844 C2827 1.574 . S
C2844 H2838 0.949 . S
C2844 C2848 1.368 . S
C2845 C2826 1.429 . S
C2845 C2839 1.429 . S
C2845 C2846 1.523 . S
C2846 C2827 1.368 . S
C2846 C2840 1.368 . S
C2846 C2845 1.523 . S
C2847 C2831 1.429 . S
C2847 C2843 1.429 . S
C2847 C2848 1.523 . S
C2848 C2832 1.368 . S
C2848 C2844 1.368 . S
C2848 C2847 1.523 . S
H2849 C2824 0.950 . S
H2850 C2826 0.950 . S
H2851 C2827 0.949 . S
H2852 C2829 0.950 . S
H2853 C2831 0.950 . S
C2854 C2855 1.349 . S
C2854 C2856 1.327 . S
C2854 H2879 0.950 . S
C2855 C2854 1.349 . S
C2855 C2871 1.349 . S
C2856 C2854 1.327 . S
C2856 C2875 1.429 . S
C2856 H2880 0.950 . S
C2857 C2874 1.574 1_556 S
C2857 C2876 1.368 . S
C2857 H2881 0.949 . S
H2858 C2862 0.949 . S
C2859 C2860 1.349 . S
C2859 C2861 1.327 . S
C2859 H2882 0.950 . S
C2860 C2859 1.349 . S
C2860 C2872 1.349 . S
C2861 C2859 1.327 . S
C2861 C2877 1.429 . S
C2861 H2883 0.950 . S
C2862 H2858 0.949 . S
C2862 C2870 1.574 1_554 S
C2862 C2878 1.368 . S
H2863 C2871 0.950 . S
H2864 C2869 0.950 . S
H2865 C2870 0.949 . S
H2866 C2872 0.950 . S
H2867 C2873 0.950 . S
H2868 C2874 0.949 . S
C2869 H2864 0.950 . S
C2869 C2871 1.327 . S
C2869 C2875 1.429 . S
C2870 C2862 1.574 1_556 S
C2870 H2865 0.949 . S
C2870 C2876 1.368 . S
C2871 C2855 1.349 . S
C2871 H2863 0.950 . S
C2871 C2869 1.327 . S
C2872 C2860 1.349 . S
C2872 H2866 0.950 . S
C2872 C2873 1.327 . S
C2873 H2867 0.950 . S
C2873 C2872 1.327 . S
C2873 C2877 1.429 . S
C2874 C2857 1.574 1_554 S
C2874 H2868 0.949 . S
C2874 C2878 1.368 . S
C2875 C2856 1.429 . S
C2875 C2869 1.429 . S
C2875 C2876 1.523 . S
C2876 C2857 1.368 . S
C2876 C2870 1.368 . S
C2876 C2875 1.523 . S
C2877 C2861 1.429 . S
C2877 C2873 1.429 . S
C2877 C2878 1.523 . S
C2878 C2862 1.368 . S
C2878 C2874 1.368 . S
C2878 C2877 1.523 . S
H2879 C2854 0.950 . S
H2880 C2856 0.950 . S
H2881 C2857 0.949 . S
H2882 C2859 0.950 . S
H2883 C2861 0.950 . S
C2884 C2885 1.349 . S
C2884 C2886 1.327 . S
C2884 H2909 0.950 . S
C2885 C2884 1.349 . S
C2885 C2901 1.349 . S
C2886 C2884 1.327 . S
C2886 C2905 1.429 . S
C2886 H2910 0.950 . S
C2887 C2904 1.574 . S
C2887 C2906 1.368 . S
C2887 H2911 0.949 . S
H2888 C2892 0.949 . S
C2889 C2890 1.349 . S
C2889 C2891 1.327 . S
C2889 H2912 0.950 . S
C2890 C2889 1.349 . S
C2890 C2902 1.349 . S
C2891 C2889 1.327 . S
C2891 C2907 1.429 . S
C2891 H2913 0.950 . S
C2892 H2888 0.949 . S
C2892 C2900 1.574 . S
C2892 C2908 1.368 . S
H2893 C2901 0.950 . S
H2894 C2899 0.950 . S
H2895 C2900 0.949 . S
H2896 C2902 0.950 . S
H2897 C2903 0.950 . S
H2898 C2904 0.949 . S
C2899 H2894 0.950 . S
C2899 C2901 1.327 . S
C2899 C2905 1.429 . S
C2900 C2892 1.574 . S
C2900 H2895 0.949 . S
C2900 C2906 1.368 . S
C2901 C2885 1.349 . S
C2901 H2893 0.950 . S
C2901 C2899 1.327 . S
C2902 C2890 1.349 . S
C2902 H2896 0.950 . S
C2902 C2903 1.327 . S
C2903 H2897 0.950 . S
C2903 C2902 1.327 . S
C2903 C2907 1.429 . S
C2904 C2887 1.574 . S
C2904 H2898 0.949 . S
C2904 C2908 1.368 . S
C2905 C2886 1.429 . S
C2905 C2899 1.429 . S
C2905 C2906 1.523 . S
C2906 C2887 1.368 . S
C2906 C2900 1.368 . S
C2906 C2905 1.523 . S
C2907 C2891 1.429 . S
C2907 C2903 1.429 . S
C2907 C2908 1.523 . S
C2908 C2892 1.368 . S
C2908 C2904 1.368 . S
C2908 C2907 1.523 . S
H2909 C2884 0.950 . S
H2910 C2886 0.950 . S
H2911 C2887 0.949 . S
H2912 C2889 0.950 . S
H2913 C2891 0.950 . S
C2914 C2915 1.349 . S
C2914 C2916 1.327 . S
C2914 H2939 0.950 . S
C2915 C2914 1.349 . S
C2915 C2931 1.349 . S
C2916 C2914 1.327 . S
C2916 C2935 1.429 . S
C2916 H2940 0.950 . S
C2917 C2934 1.574 . S
C2917 C2936 1.368 . S
C2917 H2941 0.949 . S
H2918 C2922 0.949 . S
C2919 C2920 1.349 . S
C2919 C2921 1.327 . S
C2919 H2942 0.950 . S
C2920 C2919 1.349 . S
C2920 C2932 1.349 . S
C2921 C2919 1.327 . S
C2921 C2937 1.429 . S
C2921 H2943 0.950 . S
C2922 H2918 0.949 . S
C2922 C2930 1.574 . S
C2922 C2938 1.368 . S
H2923 C2931 0.950 . S
H2924 C2929 0.950 . S
H2925 C2930 0.949 . S
H2926 C2932 0.950 . S
H2927 C2933 0.950 . S
H2928 C2934 0.949 . S
C2929 H2924 0.950 . S
C2929 C2931 1.327 . S
C2929 C2935 1.429 . S
C2930 C2922 1.574 . S
C2930 H2925 0.949 . S
C2930 C2936 1.368 . S
C2931 C2915 1.349 . S
C2931 H2923 0.950 . S
C2931 C2929 1.327 . S
C2932 C2920 1.349 . S
C2932 H2926 0.950 . S
C2932 C2933 1.327 . S
C2933 H2927 0.950 . S
C2933 C2932 1.327 . S
C2933 C2937 1.429 . S
C2934 C2917 1.574 . S
C2934 H2928 0.949 . S
C2934 C2938 1.368 . S
C2935 C2916 1.429 . S
C2935 C2929 1.429 . S
C2935 C2936 1.523 . S
C2936 C2917 1.368 . S
C2936 C2930 1.368 . S
C2936 C2935 1.523 . S
C2937 C2921 1.429 . S
C2937 C2933 1.429 . S
C2937 C2938 1.523 . S
C2938 C2922 1.368 . S
C2938 C2934 1.368 . S
C2938 C2937 1.523 . S
H2939 C2914 0.950 . S
H2940 C2916 0.950 . S
H2941 C2917 0.949 . S
H2942 C2919 0.950 . S
H2943 C2921 0.950 . S
C2944 C2945 1.349 . S
C2944 C2946 1.327 . S
C2944 H2969 0.950 . S
C2945 C2944 1.349 . S
C2945 C2961 1.349 . S
C2946 C2944 1.327 . S
C2946 C2965 1.429 . S
C2946 H2970 0.950 . S
C2947 C2964 1.574 . S
C2947 C2966 1.368 . S
C2947 H2971 0.949 . S
H2948 C2952 0.949 . S
C2949 C2950 1.349 . S
C2949 C2951 1.327 . S
C2949 H2972 0.950 . S
C2950 C2949 1.349 . S
C2950 C2962 1.349 . S
C2951 C2949 1.327 . S
C2951 C2967 1.429 . S
C2951 H2973 0.950 . S
C2952 H2948 0.949 . S
C2952 C2960 1.574 . S
C2952 C2968 1.368 . S
H2953 C2961 0.950 . S
H2954 C2959 0.950 . S
H2955 C2960 0.949 . S
H2956 C2962 0.950 . S
H2957 C2963 0.950 . S
H2958 C2964 0.949 . S
C2959 H2954 0.950 . S
C2959 C2961 1.327 . S
C2959 C2965 1.429 . S
C2960 C2952 1.574 . S
C2960 H2955 0.949 . S
C2960 C2966 1.368 . S
C2961 C2945 1.349 . S
C2961 H2953 0.950 . S
C2961 C2959 1.327 . S
C2962 C2950 1.349 . S
C2962 H2956 0.950 . S
C2962 C2963 1.327 . S
C2963 H2957 0.950 . S
C2963 C2962 1.327 . S
C2963 C2967 1.429 . S
C2964 C2947 1.574 . S
C2964 H2958 0.949 . S
C2964 C2968 1.368 . S
C2965 C2946 1.429 . S
C2965 C2959 1.429 . S
C2965 C2966 1.523 . S
C2966 C2947 1.368 . S
C2966 C2960 1.368 . S
C2966 C2965 1.523 . S
C2967 C2951 1.429 . S
C2967 C2963 1.429 . S
C2967 C2968 1.523 . S
C2968 C2952 1.368 . S
C2968 C2964 1.368 . S
C2968 C2967 1.523 . S
H2969 C2944 0.950 . S
H2970 C2946 0.950 . S
H2971 C2947 0.949 . S
H2972 C2949 0.950 . S
H2973 C2951 0.950 . S
C2974 C2975 1.349 . S
C2974 C2976 1.327 . S
C2974 H2999 0.950 1_455 S
C2975 C2974 1.349 . S
C2975 C2991 1.349 . S
C2976 C2974 1.327 . S
C2976 C2995 1.429 . S
C2976 H3000 0.950 . S
C2977 C2994 1.574 . S
C2977 C2996 1.368 . S
C2977 H3001 0.949 . S
H2978 C2982 0.949 . S
C2979 C2980 1.349 . S
C2979 C2981 1.327 . S
C2979 H3002 0.950 . S
C2980 C2979 1.349 . S
C2980 C2992 1.349 . S
C2981 C2979 1.327 . S
C2981 C2997 1.429 . S
C2981 H3003 0.950 . S
C2982 H2978 0.949 . S
C2982 C2990 1.574 1_556 S
C2982 C2998 1.368 . S
H2983 C2991 0.950 . S
H2984 C2989 0.950 . S
H2985 C2990 0.949 . S
H2986 C2992 0.950 . S
H2987 C2993 0.950 . S
H2988 C2994 0.949 . S
C2989 H2984 0.950 . S
C2989 C2991 1.327 . S
C2989 C2995 1.429 . S
C2990 C2982 1.574 1_554 S
C2990 H2985 0.949 . S
C2990 C2996 1.368 . S
C2991 C2975 1.349 . S
C2991 H2983 0.950 . S
C2991 C2989 1.327 . S
C2992 C2980 1.349 . S
C2992 H2986 0.950 . S
C2992 C2993 1.327 . S
C2993 H2987 0.950 . S
C2993 C2992 1.327 . S
C2993 C2997 1.429 . S
C2994 C2977 1.574 . S
C2994 H2988 0.949 . S
C2994 C2998 1.368 1_554 S
C2995 C2976 1.429 . S
C2995 C2989 1.429 . S
C2995 C2996 1.523 . S
C2996 C2977 1.368 . S
C2996 C2990 1.368 . S
C2996 C2995 1.523 . S
C2997 C2981 1.429 . S
C2997 C2993 1.429 . S
C2997 C2998 1.523 . S
C2998 C2982 1.368 . S
C2998 C2994 1.368 1_556 S
C2998 C2997 1.523 . S
H2999 C2974 0.950 1_655 S
H3000 C2976 0.950 . S
H3001 C2977 0.949 . S
H3002 C2979 0.950 . S
H3003 C2981 0.950 . S
C3004 C3005 1.349 . S
C3004 C3006 1.327 . S
C3004 H3029 0.950 . S
C3005 C3004 1.349 . S
C3005 C3021 1.349 . S
C3006 C3004 1.327 . S
C3006 C3025 1.429 . S
C3006 H3030 0.950 . S
C3007 C3024 1.574 . S
C3007 C3026 1.368 . S
C3007 H3031 0.949 . S
H3008 C3012 0.949 . S
C3009 C3010 1.349 . S
C3009 C3011 1.327 . S
C3009 H3032 0.950 . S
C3010 C3009 1.349 . S
C3010 C3022 1.349 . S
C3011 C3009 1.327 . S
C3011 C3027 1.429 . S
C3011 H3033 0.950 . S
C3012 H3008 0.949 . S
C3012 C3020 1.574 . S
C3012 C3028 1.368 . S
H3013 C3021 0.950 . S
H3014 C3019 0.950 . S
H3015 C3020 0.949 . S
H3016 C3022 0.950 . S
H3017 C3023 0.950 . S
H3018 C3024 0.949 . S
C3019 H3014 0.950 . S
C3019 C3021 1.327 . S
C3019 C3025 1.429 . S
C3020 C3012 1.574 . S
C3020 H3015 0.949 . S
C3020 C3026 1.368 . S
C3021 C3005 1.349 . S
C3021 H3013 0.950 . S
C3021 C3019 1.327 . S
C3022 C3010 1.349 . S
C3022 H3016 0.950 . S
C3022 C3023 1.327 . S
C3023 H3017 0.950 . S
C3023 C3022 1.327 . S
C3023 C3027 1.429 . S
C3024 C3007 1.574 . S
C3024 H3018 0.949 . S
C3024 C3028 1.368 . S
C3025 C3006 1.429 . S
C3025 C3019 1.429 . S
C3025 C3026 1.523 . S
C3026 C3007 1.368 . S
C3026 C3020 1.368 . S
C3026 C3025 1.523 . S
C3027 C3011 1.429 . S
C3027 C3023 1.429 . S
C3027 C3028 1.523 . S
C3028 C3012 1.368 . S
C3028 C3024 1.368 . S
C3028 C3027 1.523 . S
H3029 C3004 0.950 . S
H3030 C3006 0.950 . S
H3031 C3007 0.949 . S
H3032 C3009 0.950 . S
H3033 C3011 0.950 . S
C3034 C3035 1.349 . S
C3034 C3036 1.327 . S
C3034 H3059 0.950 . S
C3035 C3034 1.349 . S
C3035 C3051 1.349 . S
C3036 C3034 1.327 . S
C3036 C3055 1.429 . S
C3036 H3060 0.950 . S
C3037 C3054 1.574 . S
C3037 C3056 1.368 . S
C3037 H3061 0.949 . S
H3038 C3042 0.949 . S
C3039 C3040 1.349 . S
C3039 C3041 1.327 . S
C3039 H3062 0.950 . S
C3040 C3039 1.349 . S
C3040 C3052 1.349 . S
C3041 C3039 1.327 . S
C3041 C3057 1.429 . S
C3041 H3063 0.950 . S
C3042 H3038 0.949 . S
C3042 C3050 1.574 . S
C3042 C3058 1.368 . S
H3043 C3051 0.950 . S
H3044 C3049 0.950 . S
H3045 C3050 0.949 . S
H3046 C3052 0.950 . S
H3047 C3053 0.950 . S
H3048 C3054 0.949 . S
C3049 H3044 0.950 . S
C3049 C3051 1.327 . S
C3049 C3055 1.429 . S
C3050 C3042 1.574 . S
C3050 H3045 0.949 . S
C3050 C3056 1.368 . S
C3051 C3035 1.349 . S
C3051 H3043 0.950 . S
C3051 C3049 1.327 . S
C3052 C3040 1.349 . S
C3052 H3046 0.950 . S
C3052 C3053 1.327 . S
C3053 H3047 0.950 . S
C3053 C3052 1.327 . S
C3053 C3057 1.429 . S
C3054 C3037 1.574 . S
C3054 H3048 0.949 . S
C3054 C3058 1.368 . S
C3055 C3036 1.429 . S
C3055 C3049 1.429 . S
C3055 C3056 1.523 . S
C3056 C3037 1.368 . S
C3056 C3050 1.368 . S
C3056 C3055 1.523 . S
C3057 C3041 1.429 . S
C3057 C3053 1.429 . S
C3057 C3058 1.523 . S
C3058 C3042 1.368 . S
C3058 C3054 1.368 . S
C3058 C3057 1.523 . S
H3059 C3034 0.950 . S
H3060 C3036 0.950 . S
H3061 C3037 0.949 . S
H3062 C3039 0.950 . S
H3063 C3041 0.950 . S
C3064 C3065 1.349 . S
C3064 C3066 1.327 . S
C3064 H3089 0.950 . S
C3065 C3064 1.349 . S
C3065 C3081 1.349 . S
C3066 C3064 1.327 . S
C3066 C3085 1.429 . S
C3066 H3090 0.950 . S
C3067 C3084 1.574 . S
C3067 C3086 1.368 . S
C3067 H3091 0.949 . S
H3068 C3072 0.949 . S
C3069 C3070 1.349 . S
C3069 C3071 1.327 . S
C3069 H3092 0.950 . S
C3070 C3069 1.349 . S
C3070 C3082 1.349 . S
C3071 C3069 1.327 . S
C3071 C3087 1.429 . S
C3071 H3093 0.950 . S
C3072 H3068 0.949 . S
C3072 C3080 1.574 . S
C3072 C3088 1.368 . S
H3073 C3081 0.950 . S
H3074 C3079 0.950 . S
H3075 C3080 0.949 . S
H3076 C3082 0.950 . S
H3077 C3083 0.950 . S
H3078 C3084 0.949 . S
C3079 H3074 0.950 . S
C3079 C3081 1.327 . S
C3079 C3085 1.429 . S
C3080 C3072 1.574 . S
C3080 H3075 0.949 . S
C3080 C3086 1.368 . S
C3081 C3065 1.349 . S
C3081 H3073 0.950 . S
C3081 C3079 1.327 . S
C3082 C3070 1.349 . S
C3082 H3076 0.950 . S
C3082 C3083 1.327 . S
C3083 H3077 0.950 . S
C3083 C3082 1.327 . S
C3083 C3087 1.429 . S
C3084 C3067 1.574 . S
C3084 H3078 0.949 . S
C3084 C3088 1.368 . S
C3085 C3066 1.429 . S
C3085 C3079 1.429 . S
C3085 C3086 1.523 . S
C3086 C3067 1.368 . S
C3086 C3080 1.368 . S
C3086 C3085 1.523 . S
C3087 C3071 1.429 . S
C3087 C3083 1.429 . S
C3087 C3088 1.523 . S
C3088 C3072 1.368 . S
C3088 C3084 1.368 . S
C3088 C3087 1.523 . S
H3089 C3064 0.950 . S
H3090 C3066 0.950 . S
H3091 C3067 0.949 . S
H3092 C3069 0.950 . S
H3093 C3071 0.950 . S
C3094 C3095 1.349 . S
C3094 C3096 1.327 . S
C3094 H3119 0.950 . S
C3095 C3094 1.349 . S
C3095 C3111 1.349 . S
C3096 C3094 1.327 . S
C3096 C3115 1.429 . S
C3096 H3120 0.950 . S
C3097 C3114 1.574 . S
C3097 C3116 1.368 . S
C3097 H3121 0.949 . S
H3098 C3102 0.949 . S
C3099 C3100 1.349 . S
C3099 C3101 1.327 . S
C3099 H3122 0.950 . S
C3100 C3099 1.349 . S
C3100 C3112 1.349 . S
C3101 C3099 1.327 . S
C3101 C3117 1.429 . S
C3101 H3123 0.950 . S
C3102 H3098 0.949 . S
C3102 C3110 1.574 . S
C3102 C3118 1.368 . S
H3103 C3111 0.950 . S
H3104 C3109 0.950 . S
H3105 C3110 0.949 . S
H3106 C3112 0.950 . S
H3107 C3113 0.950 . S
H3108 C3114 0.949 . S
C3109 H3104 0.950 . S
C3109 C3111 1.327 . S
C3109 C3115 1.429 . S
C3110 C3102 1.574 . S
C3110 H3105 0.949 . S
C3110 C3116 1.368 . S
C3111 C3095 1.349 . S
C3111 H3103 0.950 . S
C3111 C3109 1.327 . S
C3112 C3100 1.349 . S
C3112 H3106 0.950 . S
C3112 C3113 1.327 . S
C3113 H3107 0.950 . S
C3113 C3112 1.327 . S
C3113 C3117 1.429 . S
C3114 C3097 1.574 . S
C3114 H3108 0.949 . S
C3114 C3118 1.368 . S
C3115 C3096 1.429 . S
C3115 C3109 1.429 . S
C3115 C3116 1.523 . S
C3116 C3097 1.368 . S
C3116 C3110 1.368 . S
C3116 C3115 1.523 . S
C3117 C3101 1.429 . S
C3117 C3113 1.429 . S
C3117 C3118 1.523 . S
C3118 C3102 1.368 . S
C3118 C3114 1.368 . S
C3118 C3117 1.523 . S
H3119 C3094 0.950 . S
H3120 C3096 0.950 . S
H3121 C3097 0.949 . S
H3122 C3099 0.950 . S
H3123 C3101 0.950 . S
C3124 C3125 1.349 . S
C3124 C3126 1.327 . S
C3124 H3149 0.950 . S
C3125 C3124 1.349 . S
C3125 C3141 1.349 . S
C3126 C3124 1.327 . S
C3126 C3145 1.429 . S
C3126 H3150 0.950 . S
C3127 C3144 1.574 . S
C3127 C3146 1.368 . S
C3127 H3151 0.949 . S
H3128 C3132 0.949 . S
C3129 C3130 1.349 . S
C3129 C3131 1.327 . S
C3129 H3152 0.950 . S
C3130 C3129 1.349 . S
C3130 C3142 1.349 . S
C3131 C3129 1.327 . S
C3131 C3147 1.429 . S
C3131 H3153 0.950 . S
C3132 H3128 0.949 . S
C3132 C3140 1.574 . S
C3132 C3148 1.368 . S
H3133 C3141 0.950 . S
H3134 C3139 0.950 . S
H3135 C3140 0.949 . S
H3136 C3142 0.950 . S
H3137 C3143 0.950 . S
H3138 C3144 0.949 . S
C3139 H3134 0.950 . S
C3139 C3141 1.327 . S
C3139 C3145 1.429 . S
C3140 C3132 1.574 . S
C3140 H3135 0.949 . S
C3140 C3146 1.368 . S
C3141 C3125 1.349 . S
C3141 H3133 0.950 . S
C3141 C3139 1.327 . S
C3142 C3130 1.349 . S
C3142 H3136 0.950 . S
C3142 C3143 1.327 . S
C3143 H3137 0.950 . S
C3143 C3142 1.327 . S
C3143 C3147 1.429 . S
C3144 C3127 1.574 . S
C3144 H3138 0.949 . S
C3144 C3148 1.368 . S
C3145 C3126 1.429 . S
C3145 C3139 1.429 . S
C3145 C3146 1.523 . S
C3146 C3127 1.368 . S
C3146 C3140 1.368 . S
C3146 C3145 1.523 . S
C3147 C3131 1.429 . S
C3147 C3143 1.429 . S
C3147 C3148 1.523 . S
C3148 C3132 1.368 . S
C3148 C3144 1.368 . S
C3148 C3147 1.523 . S
H3149 C3124 0.950 . S
H3150 C3126 0.950 . S
H3151 C3127 0.949 . S
H3152 C3129 0.950 . S
H3153 C3131 0.950 . S
C3154 C3155 1.349 . S
C3154 C3156 1.327 . S
C3154 H3179 0.950 . S
C3155 C3154 1.349 . S
C3155 C3171 1.349 . S
C3156 C3154 1.327 . S
C3156 C3175 1.429 . S
C3156 H3180 0.950 . S
C3157 C3174 1.574 . S
C3157 C3176 1.368 . S
C3157 H3181 0.949 . S
H3158 C3162 0.949 . S
C3159 C3160 1.349 . S
C3159 C3161 1.327 . S
C3159 H3182 0.950 . S
C3160 C3159 1.349 . S
C3160 C3172 1.349 . S
C3161 C3159 1.327 . S
C3161 C3177 1.429 . S
C3161 H3183 0.950 . S
C3162 H3158 0.949 . S
C3162 C3170 1.574 . S
C3162 C3178 1.368 . S
H3163 C3171 0.950 . S
H3164 C3169 0.950 . S
H3165 C3170 0.949 . S
H3166 C3172 0.950 . S
H3167 C3173 0.950 . S
H3168 C3174 0.949 . S
C3169 H3164 0.950 . S
C3169 C3171 1.327 . S
C3169 C3175 1.429 . S
C3170 C3162 1.574 . S
C3170 H3165 0.949 . S
C3170 C3176 1.368 . S
C3171 C3155 1.349 . S
C3171 H3163 0.950 . S
C3171 C3169 1.327 . S
C3172 C3160 1.349 . S
C3172 H3166 0.950 . S
C3172 C3173 1.327 . S
C3173 H3167 0.950 . S
C3173 C3172 1.327 . S
C3173 C3177 1.429 . S
C3174 C3157 1.574 . S
C3174 H3168 0.949 . S
C3174 C3178 1.368 . S
C3175 C3156 1.429 . S
C3175 C3169 1.429 . S
C3175 C3176 1.523 . S
C3176 C3157 1.368 . S
C3176 C3170 1.368 . S
C3176 C3175 1.523 . S
C3177 C3161 1.429 . S
C3177 C3173 1.429 . S
C3177 C3178 1.523 . S
C3178 C3162 1.368 . S
C3178 C3174 1.368 . S
C3178 C3177 1.523 . S
H3179 C3154 0.950 . S
H3180 C3156 0.950 . S
H3181 C3157 0.949 . S
H3182 C3159 0.950 . S
H3183 C3161 0.950 . S
C3184 C3185 1.349 . S
C3184 C3186 1.327 . S
C3184 H3209 0.950 . S
C3185 C3184 1.349 . S
C3185 C3201 1.349 . S
C3186 C3184 1.327 . S
C3186 C3205 1.429 . S
C3186 H3210 0.950 . S
C3187 C3204 1.574 . S
C3187 C3206 1.368 . S
C3187 H3211 0.949 . S
H3188 C3192 0.949 . S
C3189 C3190 1.349 . S
C3189 C3191 1.327 . S
C3189 H3212 0.950 . S
C3190 C3189 1.349 . S
C3190 C3202 1.349 . S
C3191 C3189 1.327 . S
C3191 C3207 1.429 . S
C3191 H3213 0.950 . S
C3192 H3188 0.949 . S
C3192 C3200 1.574 . S
C3192 C3208 1.368 . S
H3193 C3201 0.950 . S
H3194 C3199 0.950 . S
H3195 C3200 0.949 . S
H3196 C3202 0.950 . S
H3197 C3203 0.950 . S
H3198 C3204 0.949 . S
C3199 H3194 0.950 . S
C3199 C3201 1.327 . S
C3199 C3205 1.429 . S
C3200 C3192 1.574 . S
C3200 H3195 0.949 . S
C3200 C3206 1.368 . S
C3201 C3185 1.349 . S
C3201 H3193 0.950 . S
C3201 C3199 1.327 . S
C3202 C3190 1.349 . S
C3202 H3196 0.950 . S
C3202 C3203 1.327 . S
C3203 H3197 0.950 . S
C3203 C3202 1.327 . S
C3203 C3207 1.429 . S
C3204 C3187 1.574 . S
C3204 H3198 0.949 . S
C3204 C3208 1.368 . S
C3205 C3186 1.429 . S
C3205 C3199 1.429 . S
C3205 C3206 1.523 . S
C3206 C3187 1.368 . S
C3206 C3200 1.368 . S
C3206 C3205 1.523 . S
C3207 C3191 1.429 . S
C3207 C3203 1.429 . S
C3207 C3208 1.523 . S
C3208 C3192 1.368 . S
C3208 C3204 1.368 . S
C3208 C3207 1.523 . S
H3209 C3184 0.950 . S
H3210 C3186 0.950 . S
H3211 C3187 0.949 . S
H3212 C3189 0.950 . S
H3213 C3191 0.950 . S
C3214 C3215 1.349 . S
C3214 C3216 1.327 . S
C3214 H3239 0.950 . S
C3215 C3214 1.349 . S
C3215 C3231 1.349 . S
C3216 C3214 1.327 . S
C3216 C3235 1.429 . S
C3216 H3240 0.950 . S
C3217 C3234 1.574 . S
C3217 C3236 1.368 . S
C3217 H3241 0.949 . S
H3218 C3222 0.949 . S
C3219 C3220 1.349 . S
C3219 C3221 1.327 . S
C3219 H3242 0.950 . S
C3220 C3219 1.349 . S
C3220 C3232 1.349 . S
C3221 C3219 1.327 . S
C3221 C3237 1.429 . S
C3221 H3243 0.950 . S
C3222 H3218 0.949 . S
C3222 C3230 1.574 . S
C3222 C3238 1.368 . S
H3223 C3231 0.950 . S
H3224 C3229 0.950 . S
H3225 C3230 0.949 . S
H3226 C3232 0.950 . S
H3227 C3233 0.950 . S
H3228 C3234 0.949 . S
C3229 H3224 0.950 . S
C3229 C3231 1.327 . S
C3229 C3235 1.429 . S
C3230 C3222 1.574 . S
C3230 H3225 0.949 . S
C3230 C3236 1.368 . S
C3231 C3215 1.349 . S
C3231 H3223 0.950 . S
C3231 C3229 1.327 . S
C3232 C3220 1.349 . S
C3232 H3226 0.950 . S
C3232 C3233 1.327 . S
C3233 H3227 0.950 . S
C3233 C3232 1.327 . S
C3233 C3237 1.429 . S
C3234 C3217 1.574 . S
C3234 H3228 0.949 . S
C3234 C3238 1.368 . S
C3235 C3216 1.429 . S
C3235 C3229 1.429 . S
C3235 C3236 1.523 . S
C3236 C3217 1.368 . S
C3236 C3230 1.368 . S
C3236 C3235 1.523 . S
C3237 C3221 1.429 . S
C3237 C3233 1.429 . S
C3237 C3238 1.523 . S
C3238 C3222 1.368 . S
C3238 C3234 1.368 . S
C3238 C3237 1.523 . S
H3239 C3214 0.950 . S
H3240 C3216 0.950 . S
H3241 C3217 0.949 . S
H3242 C3219 0.950 . S
H3243 C3221 0.950 . S
C3244 C3245 1.349 . S
C3244 C3246 1.327 . S
C3244 H3269 0.950 . S
C3245 C3244 1.349 . S
C3245 C3261 1.349 . S
C3246 C3244 1.327 . S
C3246 C3265 1.429 . S
C3246 H3270 0.950 . S
C3247 C3264 1.574 . S
C3247 C3266 1.368 . S
C3247 H3271 0.949 . S
H3248 C3252 0.949 . S
C3249 C3250 1.349 . S
C3249 C3251 1.327 . S
C3249 H3272 0.950 . S
C3250 C3249 1.349 . S
C3250 C3262 1.349 . S
C3251 C3249 1.327 . S
C3251 C3267 1.429 . S
C3251 H3273 0.950 . S
C3252 H3248 0.949 . S
C3252 C3260 1.574 . S
C3252 C3268 1.368 . S
H3253 C3261 0.950 . S
H3254 C3259 0.950 . S
H3255 C3260 0.949 . S
H3256 C3262 0.950 . S
H3257 C3263 0.950 . S
H3258 C3264 0.949 . S
C3259 H3254 0.950 . S
C3259 C3261 1.327 . S
C3259 C3265 1.429 . S
C3260 C3252 1.574 . S
C3260 H3255 0.949 . S
C3260 C3266 1.368 . S
C3261 C3245 1.349 . S
C3261 H3253 0.950 . S
C3261 C3259 1.327 . S
C3262 C3250 1.349 . S
C3262 H3256 0.950 . S
C3262 C3263 1.327 . S
C3263 H3257 0.950 . S
C3263 C3262 1.327 . S
C3263 C3267 1.429 . S
C3264 C3247 1.574 . S
C3264 H3258 0.949 . S
C3264 C3268 1.368 . S
C3265 C3246 1.429 . S
C3265 C3259 1.429 . S
C3265 C3266 1.523 . S
C3266 C3247 1.368 . S
C3266 C3260 1.368 . S
C3266 C3265 1.523 . S
C3267 C3251 1.429 . S
C3267 C3263 1.429 . S
C3267 C3268 1.523 . S
C3268 C3252 1.368 . S
C3268 C3264 1.368 . S
C3268 C3267 1.523 . S
H3269 C3244 0.950 . S
H3270 C3246 0.950 . S
H3271 C3247 0.949 . S
H3272 C3249 0.950 . S
H3273 C3251 0.950 . S
C3274 C3275 1.349 . S
C3274 C3276 1.327 . S
C3274 H3299 0.950 . S
C3275 C3274 1.349 . S
C3275 C3291 1.349 . S
C3276 C3274 1.327 . S
C3276 C3295 1.429 . S
C3276 H3300 0.950 . S
C3277 C3294 1.574 . S
C3277 C3296 1.368 . S
C3277 H3301 0.949 . S
H3278 C3282 0.949 . S
C3279 C3280 1.349 . S
C3279 C3281 1.327 . S
C3279 H3302 0.950 . S
C3280 C3279 1.349 . S
C3280 C3292 1.349 . S
C3281 C3279 1.327 . S
C3281 C3297 1.429 . S
C3281 H3303 0.950 . S
C3282 H3278 0.949 . S
C3282 C3290 1.574 . S
C3282 C3298 1.368 . S
H3283 C3291 0.950 . S
H3284 C3289 0.950 . S
H3285 C3290 0.949 . S
H3286 C3292 0.950 . S
H3287 C3293 0.950 . S
H3288 C3294 0.949 . S
C3289 H3284 0.950 . S
C3289 C3291 1.327 . S
C3289 C3295 1.429 . S
C3290 C3282 1.574 . S
C3290 H3285 0.949 . S
C3290 C3296 1.368 . S
C3291 C3275 1.349 . S
C3291 H3283 0.950 . S
C3291 C3289 1.327 . S
C3292 C3280 1.349 . S
C3292 H3286 0.950 . S
C3292 C3293 1.327 . S
C3293 H3287 0.950 . S
C3293 C3292 1.327 . S
C3293 C3297 1.429 . S
C3294 C3277 1.574 . S
C3294 H3288 0.949 . S
C3294 C3298 1.368 . S
C3295 C3276 1.429 . S
C3295 C3289 1.429 . S
C3295 C3296 1.523 . S
C3296 C3277 1.368 . S
C3296 C3290 1.368 . S
C3296 C3295 1.523 . S
C3297 C3281 1.429 . S
C3297 C3293 1.429 . S
C3297 C3298 1.523 . S
C3298 C3282 1.368 . S
C3298 C3294 1.368 . S
C3298 C3297 1.523 . S
H3299 C3274 0.950 . S
H3300 C3276 0.950 . S
H3301 C3277 0.949 . S
H3302 C3279 0.950 . S
H3303 C3281 0.950 . S
C3304 C3305 1.349 . S
C3304 C3306 1.327 . S
C3304 H3329 0.950 . S
C3305 C3304 1.349 . S
C3305 C3321 1.349 . S
C3306 C3304 1.327 . S
C3306 C3325 1.429 . S
C3306 H3330 0.950 . S
C3307 C3324 1.574 . S
C3307 C3326 1.368 . S
C3307 H3331 0.949 . S
H3308 C3312 0.949 . S
C3309 C3310 1.349 . S
C3309 C3311 1.327 . S
C3309 H3332 0.950 . S
C3310 C3309 1.349 . S
C3310 C3322 1.349 . S
C3311 C3309 1.327 . S
C3311 C3327 1.429 . S
C3311 H3333 0.950 . S
C3312 H3308 0.949 . S
C3312 C3320 1.574 . S
C3312 C3328 1.368 . S
H3313 C3321 0.950 . S
H3314 C3319 0.950 . S
H3315 C3320 0.949 . S
H3316 C3322 0.950 . S
H3317 C3323 0.950 . S
H3318 C3324 0.949 . S
C3319 H3314 0.950 . S
C3319 C3321 1.327 . S
C3319 C3325 1.429 . S
C3320 C3312 1.574 . S
C3320 H3315 0.949 . S
C3320 C3326 1.368 . S
C3321 C3305 1.349 . S
C3321 H3313 0.950 . S
C3321 C3319 1.327 . S
C3322 C3310 1.349 . S
C3322 H3316 0.950 . S
C3322 C3323 1.327 . S
C3323 H3317 0.950 . S
C3323 C3322 1.327 . S
C3323 C3327 1.429 . S
C3324 C3307 1.574 . S
C3324 H3318 0.949 . S
C3324 C3328 1.368 . S
C3325 C3306 1.429 . S
C3325 C3319 1.429 . S
C3325 C3326 1.523 . S
C3326 C3307 1.368 . S
C3326 C3320 1.368 . S
C3326 C3325 1.523 . S
C3327 C3311 1.429 . S
C3327 C3323 1.429 . S
C3327 C3328 1.523 . S
C3328 C3312 1.368 . S
C3328 C3324 1.368 . S
C3328 C3327 1.523 . S
H3329 C3304 0.950 . S
H3330 C3306 0.950 . S
H3331 C3307 0.949 . S
H3332 C3309 0.950 . S
H3333 C3311 0.950 . S
C3334 C3335 1.349 . S
C3334 C3336 1.327 . S
C3334 H3359 0.950 . S
C3335 C3334 1.349 . S
C3335 C3351 1.349 . S
C3336 C3334 1.327 . S
C3336 C3355 1.429 . S
C3336 H3360 0.950 . S
C3337 C3354 1.574 . S
C3337 C3356 1.368 . S
C3337 H3361 0.949 . S
H3338 C3342 0.949 . S
C3339 C3340 1.349 . S
C3339 C3341 1.327 . S
C3339 H3362 0.950 . S
C3340 C3339 1.349 . S
C3340 C3352 1.349 . S
C3341 C3339 1.327 . S
C3341 C3357 1.429 . S
C3341 H3363 0.950 . S
C3342 H3338 0.949 . S
C3342 C3350 1.574 . S
C3342 C3358 1.368 . S
H3343 C3351 0.950 . S
H3344 C3349 0.950 . S
H3345 C3350 0.949 . S
H3346 C3352 0.950 . S
H3347 C3353 0.950 . S
H3348 C3354 0.949 . S
C3349 H3344 0.950 . S
C3349 C3351 1.327 . S
C3349 C3355 1.429 . S
C3350 C3342 1.574 . S
C3350 H3345 0.949 . S
C3350 C3356 1.368 . S
C3351 C3335 1.349 . S
C3351 H3343 0.950 . S
C3351 C3349 1.327 . S
C3352 C3340 1.349 . S
C3352 H3346 0.950 . S
C3352 C3353 1.327 . S
C3353 H3347 0.950 . S
C3353 C3352 1.327 . S
C3353 C3357 1.429 . S
C3354 C3337 1.574 . S
C3354 H3348 0.949 . S
C3354 C3358 1.368 . S
C3355 C3336 1.429 . S
C3355 C3349 1.429 . S
C3355 C3356 1.523 . S
C3356 C3337 1.368 . S
C3356 C3350 1.368 . S
C3356 C3355 1.523 . S
C3357 C3341 1.429 . S
C3357 C3353 1.429 . S
C3357 C3358 1.523 . S
C3358 C3342 1.368 . S
C3358 C3354 1.368 . S
C3358 C3357 1.523 . S
H3359 C3334 0.950 . S
H3360 C3336 0.950 . S
H3361 C3337 0.949 . S
H3362 C3339 0.950 . S
H3363 C3341 0.950 . S
C3364 C3365 1.349 . S
C3364 C3366 1.327 . S
C3364 H3389 0.950 1_545 S
C3365 C3364 1.349 . S
C3365 C3381 1.349 . S
C3366 C3364 1.327 . S
C3366 C3385 1.429 . S
C3366 H3390 0.950 . S
C3367 C3384 1.574 . S
C3367 C3386 1.368 . S
C3367 H3391 0.949 . S
H3368 C3372 0.949 . S
C3369 C3370 1.349 . S
C3369 C3371 1.327 . S
C3369 H3392 0.950 . S
C3370 C3369 1.349 . S
C3370 C3382 1.349 . S
C3371 C3369 1.327 . S
C3371 C3387 1.429 . S
C3371 H3393 0.950 . S
C3372 H3368 0.949 . S
C3372 C3380 1.574 . S
C3372 C3388 1.368 . S
H3373 C3381 0.950 . S
H3374 C3379 0.950 . S
H3375 C3380 0.949 . S
H3376 C3382 0.950 . S
H3377 C3383 0.950 . S
H3378 C3384 0.949 . S
C3379 H3374 0.950 . S
C3379 C3381 1.327 . S
C3379 C3385 1.429 . S
C3380 C3372 1.574 . S
C3380 H3375 0.949 . S
C3380 C3386 1.368 . S
C3381 C3365 1.349 . S
C3381 H3373 0.950 . S
C3381 C3379 1.327 . S
C3382 C3370 1.349 . S
C3382 H3376 0.950 . S
C3382 C3383 1.327 . S
C3383 H3377 0.950 . S
C3383 C3382 1.327 . S
C3383 C3387 1.429 . S
C3384 C3367 1.574 . S
C3384 H3378 0.949 . S
C3384 C3388 1.368 . S
C3385 C3366 1.429 . S
C3385 C3379 1.429 . S
C3385 C3386 1.523 . S
C3386 C3367 1.368 . S
C3386 C3380 1.368 . S
C3386 C3385 1.523 . S
C3387 C3371 1.429 . S
C3387 C3383 1.429 . S
C3387 C3388 1.523 . S
C3388 C3372 1.368 . S
C3388 C3384 1.368 . S
C3388 C3387 1.523 . S
H3389 C3364 0.950 1_565 S
H3390 C3366 0.950 . S
H3391 C3367 0.949 . S
H3392 C3369 0.950 . S
H3393 C3371 0.950 . S
C3394 C3395 1.349 . S
C3394 C3396 1.327 . S
C3394 H3419 0.950 . S
C3395 C3394 1.349 . S
C3395 C3411 1.349 . S
C3396 C3394 1.327 . S
C3396 C3415 1.429 . S
C3396 H3420 0.950 . S
C3397 C3414 1.574 . S
C3397 C3416 1.368 . S
C3397 H3421 0.949 . S
H3398 C3402 0.949 . S
C3399 C3400 1.349 . S
C3399 C3401 1.327 . S
C3399 H3422 0.950 . S
C3400 C3399 1.349 . S
C3400 C3412 1.349 . S
C3401 C3399 1.327 . S
C3401 C3417 1.429 . S
C3401 H3423 0.950 . S
C3402 H3398 0.949 . S
C3402 C3410 1.574 . S
C3402 C3418 1.368 . S
H3403 C3411 0.950 . S
H3404 C3409 0.950 . S
H3405 C3410 0.949 . S
H3406 C3412 0.950 . S
H3407 C3413 0.950 . S
H3408 C3414 0.949 . S
C3409 H3404 0.950 . S
C3409 C3411 1.327 . S
C3409 C3415 1.429 . S
C3410 C3402 1.574 . S
C3410 H3405 0.949 . S
C3410 C3416 1.368 . S
C3411 C3395 1.349 . S
C3411 H3403 0.950 . S
C3411 C3409 1.327 . S
C3412 C3400 1.349 . S
C3412 H3406 0.950 . S
C3412 C3413 1.327 . S
C3413 H3407 0.950 . S
C3413 C3412 1.327 . S
C3413 C3417 1.429 . S
C3414 C3397 1.574 . S
C3414 H3408 0.949 . S
C3414 C3418 1.368 . S
C3415 C3396 1.429 . S
C3415 C3409 1.429 . S
C3415 C3416 1.523 . S
C3416 C3397 1.368 . S
C3416 C3410 1.368 . S
C3416 C3415 1.523 . S
C3417 C3401 1.429 . S
C3417 C3413 1.429 . S
C3417 C3418 1.523 . S
C3418 C3402 1.368 . S
C3418 C3414 1.368 . S
C3418 C3417 1.523 . S
H3419 C3394 0.950 . S
H3420 C3396 0.950 . S
H3421 C3397 0.949 . S
H3422 C3399 0.950 . S
H3423 C3401 0.950 . S
C3424 C3425 1.349 . S
C3424 C3426 1.327 . S
C3424 H3449 0.950 . S
C3425 C3424 1.349 . S
C3425 C3441 1.349 . S
C3426 C3424 1.327 . S
C3426 C3445 1.429 . S
C3426 H3450 0.950 . S
C3427 C3444 1.574 . S
C3427 C3446 1.368 . S
C3427 H3451 0.949 . S
H3428 C3432 0.949 . S
C3429 C3430 1.349 . S
C3429 C3431 1.327 . S
C3429 H3452 0.950 . S
C3430 C3429 1.349 . S
C3430 C3442 1.349 . S
C3431 C3429 1.327 . S
C3431 C3447 1.429 . S
C3431 H3453 0.950 . S
C3432 H3428 0.949 . S
C3432 C3440 1.574 . S
C3432 C3448 1.368 . S
H3433 C3441 0.950 . S
H3434 C3439 0.950 . S
H3435 C3440 0.949 . S
H3436 C3442 0.950 . S
H3437 C3443 0.950 . S
H3438 C3444 0.949 . S
C3439 H3434 0.950 . S
C3439 C3441 1.327 . S
C3439 C3445 1.429 . S
C3440 C3432 1.574 . S
C3440 H3435 0.949 . S
C3440 C3446 1.368 . S
C3441 C3425 1.349 . S
C3441 H3433 0.950 . S
C3441 C3439 1.327 . S
C3442 C3430 1.349 . S
C3442 H3436 0.950 . S
C3442 C3443 1.327 . S
C3443 H3437 0.950 . S
C3443 C3442 1.327 . S
C3443 C3447 1.429 . S
C3444 C3427 1.574 . S
C3444 H3438 0.949 . S
C3444 C3448 1.368 . S
C3445 C3426 1.429 . S
C3445 C3439 1.429 . S
C3445 C3446 1.523 . S
C3446 C3427 1.368 . S
C3446 C3440 1.368 . S
C3446 C3445 1.523 . S
C3447 C3431 1.429 . S
C3447 C3443 1.429 . S
C3447 C3448 1.523 . S
C3448 C3432 1.368 . S
C3448 C3444 1.368 . S
C3448 C3447 1.523 . S
H3449 C3424 0.950 . S
H3450 C3426 0.950 . S
H3451 C3427 0.949 . S
H3452 C3429 0.950 . S
H3453 C3431 0.950 . S
C3454 C3455 1.349 . S
C3454 C3456 1.327 . S
C3454 H3479 0.950 . S
C3455 C3454 1.349 . S
C3455 C3471 1.349 . S
C3456 C3454 1.327 . S
C3456 C3475 1.429 . S
C3456 H3480 0.950 . S
C3457 C3474 1.574 . S
C3457 C3476 1.368 . S
C3457 H3481 0.949 . S
H3458 C3462 0.949 . S
C3459 C3460 1.349 . S
C3459 C3461 1.327 . S
C3459 H3482 0.950 . S
C3460 C3459 1.349 . S
C3460 C3472 1.349 . S
C3461 C3459 1.327 . S
C3461 C3477 1.429 . S
C3461 H3483 0.950 . S
C3462 H3458 0.949 . S
C3462 C3470 1.574 . S
C3462 C3478 1.368 . S
H3463 C3471 0.950 . S
H3464 C3469 0.950 . S
H3465 C3470 0.949 . S
H3466 C3472 0.950 . S
H3467 C3473 0.950 . S
H3468 C3474 0.949 . S
C3469 H3464 0.950 . S
C3469 C3471 1.327 . S
C3469 C3475 1.429 . S
C3470 C3462 1.574 . S
C3470 H3465 0.949 . S
C3470 C3476 1.368 . S
C3471 C3455 1.349 . S
C3471 H3463 0.950 . S
C3471 C3469 1.327 . S
C3472 C3460 1.349 . S
C3472 H3466 0.950 . S
C3472 C3473 1.327 . S
C3473 H3467 0.950 . S
C3473 C3472 1.327 . S
C3473 C3477 1.429 . S
C3474 C3457 1.574 . S
C3474 H3468 0.949 . S
C3474 C3478 1.368 . S
C3475 C3456 1.429 . S
C3475 C3469 1.429 . S
C3475 C3476 1.523 . S
C3476 C3457 1.368 . S
C3476 C3470 1.368 . S
C3476 C3475 1.523 . S
C3477 C3461 1.429 . S
C3477 C3473 1.429 . S
C3477 C3478 1.523 . S
C3478 C3462 1.368 . S
C3478 C3474 1.368 . S
C3478 C3477 1.523 . S
H3479 C3454 0.950 . S
H3480 C3456 0.950 . S
H3481 C3457 0.949 . S
H3482 C3459 0.950 . S
H3483 C3461 0.950 . S
C3484 C3485 1.349 . S
C3484 C3486 1.327 . S
C3484 H3509 0.950 . S
C3485 C3484 1.349 . S
C3485 C3501 1.349 . S
C3486 C3484 1.327 . S
C3486 C3505 1.429 . S
C3486 H3510 0.950 . S
C3487 C3504 1.574 . S
C3487 C3506 1.368 . S
C3487 H3511 0.949 . S
H3488 C3492 0.949 . S
C3489 C3490 1.349 . S
C3489 C3491 1.327 . S
C3489 H3512 0.950 . S
C3490 C3489 1.349 . S
C3490 C3502 1.349 . S
C3491 C3489 1.327 . S
C3491 C3507 1.429 . S
C3491 H3513 0.950 . S
C3492 H3488 0.949 . S
C3492 C3500 1.574 . S
C3492 C3508 1.368 . S
H3493 C3501 0.950 1_545 S
H3494 C3499 0.950 . S
H3495 C3500 0.949 . S
H3496 C3502 0.950 . S
H3497 C3503 0.950 . S
H3498 C3504 0.949 . S
C3499 H3494 0.950 . S
C3499 C3501 1.327 . S
C3499 C3505 1.429 . S
C3500 C3492 1.574 . S
C3500 H3495 0.949 . S
C3500 C3506 1.368 . S
C3501 C3485 1.349 . S
C3501 H3493 0.950 1_565 S
C3501 C3499 1.327 . S
C3502 C3490 1.349 . S
C3502 H3496 0.950 . S
C3502 C3503 1.327 . S
C3503 H3497 0.950 . S
C3503 C3502 1.327 . S
C3503 C3507 1.429 . S
C3504 C3487 1.574 . S
C3504 H3498 0.949 . S
C3504 C3508 1.368 . S
C3505 C3486 1.429 . S
C3505 C3499 1.429 . S
C3505 C3506 1.523 . S
C3506 C3487 1.368 . S
C3506 C3500 1.368 . S
C3506 C3505 1.523 . S
C3507 C3491 1.429 . S
C3507 C3503 1.429 . S
C3507 C3508 1.523 . S
C3508 C3492 1.368 . S
C3508 C3504 1.368 . S
C3508 C3507 1.523 . S
H3509 C3484 0.950 . S
H3510 C3486 0.950 . S
H3511 C3487 0.949 . S
H3512 C3489 0.950 . S
H3513 C3491 0.950 . S
C3514 C3515 1.349 . S
C3514 C3516 1.327 . S
C3514 H3539 0.965 . S
C3515 C3514 1.349 . S
C3515 C3531 1.349 . S
C3516 C3514 1.327 . S
C3516 C3535 1.429 . S
C3516 H3540 0.950 . S
C3517 C3534 1.574 . S
C3517 C3536 1.368 . S
C3517 H3541 0.949 . S
H3518 C3522 0.949 . S
C3519 C3520 1.349 . S
C3519 C3521 1.327 . S
C3519 H3542 0.950 . S
C3520 C3519 1.349 . S
C3520 C3532 1.349 . S
C3521 C3519 1.327 . S
C3521 C3537 1.429 . S
C3521 H3543 0.950 . S
C3522 H3518 0.949 . S
C3522 C3530 1.574 1_655 S
C3522 C3538 1.368 . S
H3523 C3531 0.950 . S
H3524 C3529 0.950 . S
H3525 C3530 0.949 . S
H3526 C3532 0.950 . S
H3527 C3533 0.950 . S
H3528 C3534 0.949 . S
C3529 H3524 0.950 . S
C3529 C3531 1.327 . S
C3529 C3535 1.429 . S
C3530 C3522 1.574 1_455 S
C3530 H3525 0.949 . S
C3530 C3536 1.368 . S
C3531 C3515 1.349 . S
C3531 H3523 0.950 . S
C3531 C3529 1.327 . S
C3532 C3520 1.349 . S
C3532 H3526 0.950 . S
C3532 C3533 1.327 . S
C3533 H3527 0.950 . S
C3533 C3532 1.327 . S
C3533 C3537 1.429 . S
C3534 C3517 1.574 . S
C3534 H3528 0.949 . S
C3534 C3538 1.368 1_455 S
C3535 C3516 1.429 . S
C3535 C3529 1.429 . S
C3535 C3536 1.523 . S
C3536 C3517 1.368 . S
C3536 C3530 1.368 . S
C3536 C3535 1.523 . S
C3537 C3521 1.429 . S
C3537 C3533 1.429 . S
C3537 C3538 1.523 . S
C3538 C3522 1.368 . S
C3538 C3534 1.368 1_655 S
C3538 C3537 1.523 . S
H3539 C3514 0.965 . S
H3540 C3516 0.950 . S
H3541 C3517 0.949 . S
H3542 C3519 0.950 . S
H3543 C3521 0.950 . S
C670 C330 1.135 . S
C665 C10 1.144 . S
C695 C16 1.162 . S
C700 C342 1.149 . S
C730 C377 1.175 . S
C725 C30 1.201 . S
C760 C386 1.153 . S
C755 C42 1.165 . S
C790 C341 1.174 . S
C785 C57 1.204 . S
C815 C69 1.166 . S
C820 C366 1.156 . S
C850 C385 1.157 . S
C845 C83 1.185 . S
C875 C101 1.205 . S
C880 C327 1.178 . S
C905 C108 1.168 . S
C910 C320 1.158 . S
C940 C344 1.170 . S
C935 C120 1.181 . S
C970 C363 1.175 . S
C965 C133 1.205 . S
C1000 C388 1.152 . S
C995 C147 1.164 . S
C1030 C349 1.151 . S
C1025 C114 1.178 . S
C1060 C374 1.154 . S
C1055 C122 1.167 . S
C1085 C135 1.187 . S
C1090 C393 1.157 . S
C1120 C333 1.154 . S
C1115 C153 1.177 . S
C1145 C160 1.164 . S
C1150 C322 1.154 . S
C1175 C174 1.193 . S
C1180 C421 1.165 . S
C1210 C437 1.159 . S
C1205 C187 1.188 . S
C1240 C451 1.148 . S
C1235 C205 1.174 . S
C1265 C212 1.187 . S
C1270 C319 1.161 . S
C1295 C226 1.210 . S
C1300 C371 1.178 . S
C1330 C454 1.166 . S
C1325 C185 1.180 . S
C1360 C418 1.182 . S
C1355 C244 1.193 . S
C1390 C474 1.124 . S
C1385 C23 1.131 . S
C1420 C498 1.128 . S
C1415 C5 1.138 . S
C1445 C49 1.170 . S
C1450 C531 1.149 . S
C1475 C29 1.196 . S
C1480 C539 1.173 . S
C1505 C94 1.192 . S
C1510 C509 1.167 . S
C1535 C88 1.153 . S
C1540 C520 1.144 . S
C1570 C540 1.148 . S
C1565 C70 1.159 . S
C1595 C62 1.180 . S
C1600 C473 1.160 . S
C1625 C257 1.127 . S
C1630 C476 1.118 . S
C1660 C506 1.150 . S
C1655 C200 1.159 . S
C1690 C517 1.166 . S
C1685 C211 1.189 . S
C1720 C547 1.161 . S
C1715 C179 1.181 . S
C1750 C495 1.154 . S
C1745 C251 1.174 . S
C1780 C528 1.135 . S
C1775 C198 1.146 . S
C1810 C542 1.149 . S
C1805 C213 1.160 . S
C1835 C173 1.181 . S
C1840 C481 1.159 . S
C1870 C484 1.115 . S
C1865 C264 1.122 . S
C1895 C148 1.166 . S
C1900 C572 1.154 . S
C1930 C584 1.162 . S
C1925 C278 1.172 . S
C1955 C127 1.184 . S
C1960 C605 1.163 . S
C1990 C487 1.179 . S
C1985 C140 1.200 . S
C2020 C525 1.147 . S
C2015 C289 1.170 . S
C2050 C608 1.104 . S
C2045 C276 1.114 . S
C2075 C303 1.162 . S
C2080 C575 1.142 . S
C2105 C36 1.167 . S
C2110 C630 1.157 . S
C2135 C44 1.160 . S
C2140 C408 1.148 . S
C2170 C432 1.130 . S
C2165 C4 1.140 . S
C2195 C18 1.179 . S
C2200 C462 1.165 . S
C2225 C81 1.182 . S
C2230 C407 1.154 . S
C2255 C95 1.195 . S
C2260 C443 1.170 . S
C2290 C459 1.181 . S
C2285 C55 1.212 . S
C2320 C641 1.157 . S
C2315 C75 1.184 . S
C2350 C638 1.141 . S
C2345 C277 1.151 . S
C2380 C410 1.158 . S
C2375 C263 1.171 . S
C2410 C440 1.171 . S
C2405 C302 1.184 . S
C2435 C290 1.192 . S
C2440 C452 1.182 . S
C2470 C415 1.148 . S
C2465 C283 1.174 . S
C2495 C265 1.163 . S
C2500 C429 1.134 . S
C2530 C465 1.162 . S
C2525 C304 1.192 . S
C2555 C296 1.200 . S
C2560 C627 1.173 . S
C2590 C628 1.160 . S
C2585 C199 1.171 . S
C2615 C224 1.183 . S
C2620 C355 1.153 . S
C2650 C364 1.140 . S
C2645 C252 1.151 . S
C2675 C166 1.162 . S
C2680 C399 1.138 . S
C2710 C635 1.155 . S
C2705 C238 1.180 . S
C2740 C430 1.169 . S
C2735 C172 1.181 . S
C2770 C396 1.151 . S
C2765 C250 1.164 . S
C2800 C352 1.163 . S
C2795 C218 1.174 . S
C2825 C43 1.175 . S
C2830 C649 1.155 . S
C2855 C31 1.172 . S
C2860 C561 1.149 . S
C2885 C17 1.169 . S
C2890 C597 1.150 . S
C2920 C616 1.131 . S
C2915 C3 1.141 . S
C2950 C562 1.136 . S
C2945 C68 1.147 . S
C2975 C56 1.158 . S
C2980 C586 1.149 . S
C3010 C613 1.170 . S
C3005 C96 1.195 . S
C3035 C82 1.162 . S
C3040 C650 1.152 . S
C3070 C657 1.158 . S
C3065 C192 1.176 . S
C3095 C161 1.173 . S
C3100 C569 1.150 . S
C3125 C237 1.184 . S
C3130 C583 1.160 . S
C3160 C606 1.139 . S
C3155 C225 1.146 . S
C3190 C564 1.136 . S
C3185 C186 1.145 . S
C3215 C159 1.145 . S
C3220 C594 1.133 . S
C3250 C619 1.159 . S
C3245 C239 1.182 . S
C3280 C652 1.157 . S
C3275 C231 1.165 . S
C3310 C663 1.135 . S
C3305 C121 1.155 . S
C3340 C503 1.192 . S
C3335 C291 1.217 . S
C3365 C109 1.170 . S
C3370 C518 1.156 . S
C3395 C270 1.160 . S
C3400 C550 1.152 . S
C3430 C660 1.161 . S
C3425 C309 1.170 . S
C3460 C591 1.140 . S
C3455 C146 1.166 . S
C3490 C553 1.145 . S
C3485 C107 1.170 . S
C3520 C496 1.134 . S
C3515 C134 1.143 . S
