# Generated by pormake.
# Topology tsx, (6,3)-cn, num edge types: 1
# Building blocks:
#     Node 0, Type 0, BuildingBlock: LEVNOQ01_clean_sbu_1, # of connection points: 6
#     Node 1, Type 0, BuildingBlock: LEVNOQ01_clean_sbu_1, # of connection points: 6
#     Node 2, Type 1, BuildingBlock: WUSLED_clean_sbu_0, # of connection points: 3
#     Node 3, Type 1, BuildingBlock: WUSLED_clean_sbu_0, # of connection points: 3
#     Node 4, Type 1, BuildingBlock: WUSLED_clean_sbu_0, # of connection points: 3
#     Node 5, Type 1, BuildingBlock: WUSLED_clean_sbu_0, # of connection points: 3
#     Edge 6, Type (0, 1), BuildingBlock: MIFKUJ_clean_linker_0, # of connection points: 2
#     Edge 7, Type (0, 1), BuildingBlock: MIFKUJ_clean_linker_0, # of connection points: 2
#     Edge 8, Type (0, 1), BuildingBlock: MIFKUJ_clean_linker_0, # of connection points: 2
#     Edge 9, Type (0, 1), BuildingBlock: MIFKUJ_clean_linker_0, # of connection points: 2
#     Edge 10, Type (0, 1), BuildingBlock: MIFKUJ_clean_linker_0, # of connection points: 2
#     Edge 11, Type (0, 1), BuildingBlock: MIFKUJ_clean_linker_0, # of connection points: 2
#     Edge 12, Type (0, 1), BuildingBlock: MIFKUJ_clean_linker_0, # of connection points: 2
#     Edge 13, Type (0, 1), BuildingBlock: MIFKUJ_clean_linker_0, # of connection points: 2
#     Edge 14, Type (0, 1), BuildingBlock: MIFKUJ_clean_linker_0, # of connection points: 2
#     Edge 15, Type (0, 1), BuildingBlock: MIFKUJ_clean_linker_0, # of connection points: 2
#     Edge 16, Type (0, 1), BuildingBlock: MIFKUJ_clean_linker_0, # of connection points: 2
#     Edge 17, Type (0, 1), BuildingBlock: MIFKUJ_clean_linker_0, # of connection points: 2
# Relax obj value: 0.123
# Max RMSD: 0.154
# Mean RMSD: 0.115
data_MOF--net-tsx--node1-LEVNOQ01_clean_sbu_1--node2-WUSLED_clean_sbu_0--edge1-MIFKUJ_clean_linker_0
_symmetry_space_group_name_H-M    P1
_symmetry_Int_Tables_number       1
_symmetry_cell_setting            triclinic
loop_
_symmetry_equiv_pos_as_xyz
'x, y, z'
_cell_length_a     29.24737
_cell_length_b     35.564793
_cell_length_c     57.923304
_cell_angle_alpha  97.782262
_cell_angle_beta   90.539512
_cell_angle_gamma 90.352161
loop_
_atom_site_label
_atom_site_type_symbol
_atom_site_fract_x
_atom_site_fract_y
_atom_site_fract_z
_atom_type_partial_charge
O0 O 0.13236 0.04411 0.06558 0.0
Mg1 Mg 0.15719 0.04727 0.03183 0.0
O2 O 0.06122 0.03446 0.05279 0.0
Mg3 Mg 0.06239 0.03555 0.01241 0.0
O4 O 0.11972 0.08262 0.0139 0.0
O5 O 0.19163 0.09485 0.02688 0.0
O6 O 0.06968 0.03997 0.9718 0.0
O7 O 0.01278 0.08729 0.01736 0.0
Mg8 Mg 0.99652 0.01241 0.98454 0.0
O9 O 1.00266 0.98866 0.01446 0.0
O10 O 0.03372 0.98952 0.95528 0.0
O11 O 0.96872 0.06755 0.98706 0.0
O12 O 0.94429 0.97759 0.9887 0.0
C13 C 0.15196 0.97309 0.00501 0.0
C14 C 0.09055 0.03812 0.06946 0.0
C15 C 0.15551 0.10491 0.01639 0.0
C16 C 0.0613 0.01627 0.95368 0.0
C17 C 0.97988 0.09292 1.00367 0.0
C18 C 0.96434 0.97135 0.0077 0.0
O19 O 0.18157 0.99786 0.01243 0.0
O20 O 0.10951 0.98134 0.00565 0.0
O21 O 0.621 0.51219 0.55799 0.0
Mg22 Mg 0.64078 0.53007 0.52602 0.0
O23 O 0.55 0.52678 0.55074 0.0
Mg24 Mg 0.55829 0.53096 0.51124 0.0
O25 O 0.61637 0.58011 0.51718 0.0
O26 O 0.68523 0.57299 0.53345 0.0
O27 O 0.57401 0.53893 0.47155 0.0
O28 O 0.51043 0.58338 0.5157 0.0
Mg29 Mg 0.50133 0.51146 0.48003 0.0
O30 O 0.49508 0.48639 0.50941 0.0
O31 O 0.5456 0.48596 0.45421 0.0
O32 O 0.48147 0.5694 0.48045 0.0
O33 O 0.44447 0.47948 0.47969 0.0
C34 C 0.64136 0.46516 0.49785 0.0
C35 C 0.58005 0.5166 0.56465 0.0
C36 C 0.65597 0.59417 0.52472 0.0
C37 C 0.57105 0.51435 0.45341 0.0
C38 C 0.48641 0.59263 0.49893 0.0
C39 C 0.45773 0.47116 0.49965 0.0
O40 O 0.67043 0.49158 0.50015 0.0
O41 O 0.60054 0.47266 0.50451 0.0
C42 C 0.97266 0.0692 0.46639 0.0
C43 C 0.95603 0.08598 0.44744 0.0
C44 C 0.91016 0.12972 0.47342 0.0
C45 C 0.92527 0.11598 0.45092 0.0
C46 C 0.92644 0.11258 0.49242 0.0
C47 C 0.95779 0.08266 0.48892 0.0
U48 U 0.03364 0.00322 0.42205 0.0
O49 O 0.1047 0.98371 0.41855 0.0
O50 O 0.04873 0.94206 0.41818 0.0
C51 C 0.09314 0.94773 0.41759 0.0
C52 C 1.0052 0.03767 0.46213 0.0
C53 C 0.12199 0.92438 0.43091 0.0
C54 C 0.16506 0.91382 0.46561 0.0
C55 C 0.13456 0.93582 0.45429 0.0
C56 C 0.16962 0.86866 0.43044 0.0
C57 C 0.18357 0.88033 0.45361 0.0
C58 C 0.13921 0.89045 0.41925 0.0
C59 C 1.00395 0.01847 0.35902 0.0
C60 C 0.04746 0.99604 0.32441 0.0
C61 C 0.97277 0.02383 0.32063 0.0
C62 C 0.96864 0.02925 0.34485 0.0
C63 C 0.01245 0.00758 0.31012 0.0
C64 C 0.04319 0.00135 0.34868 0.0
C65 C 0.99969 0.02683 0.38445 0.0
O66 O 0.98728 0.00558 0.45195 0.0
O67 O 0.04385 0.04644 0.45266 0.0
O68 O 0.03579 0.04224 0.39575 0.0
O69 O 0.98014 0.00037 0.39481 0.0
H70 H 0.96694 0.07585 0.42989 0.0
H71 H 0.91292 0.1282 0.43591 0.0
H72 H 0.91558 0.12276 0.50997 0.0
H73 H 0.97056 0.07021 0.50375 0.0
H74 H 0.17523 0.92358 0.48345 0.0
H75 H 0.12155 0.962 0.46358 0.0
H76 H 0.18251 0.84268 0.42084 0.0
H77 H 0.12978 0.8811 0.40124 0.0
H78 H 0.07822 0.98306 0.31682 0.0
H79 H 0.94546 0.03348 0.31016 0.0
H80 H 0.93815 0.04259 0.35256 0.0
H81 H 0.07073 0.99264 0.35938 0.0
C82 C 0.94039 0.01254 0.55844 0.0
C83 C 0.93085 0.98681 0.57412 0.0
C84 C 0.87987 0.95085 0.5457 0.0
C85 C 0.90101 0.95631 0.56783 0.0
C86 C 0.88854 0.97725 0.53019 0.0
C87 C 0.91873 0.00784 0.53652 0.0
U88 U 0.01114 0.0661 0.60607 0.0
O89 O 0.0827 0.08538 0.60826 0.0
O90 O 0.02757 0.12675 0.61622 0.0
C91 C 0.07185 0.12114 0.61433 0.0
C92 C 0.9732 0.04377 0.56527 0.0
C93 C 0.09884 0.14943 0.60394 0.0
C94 C 0.13551 0.1728 0.5711 0.0
C95 C 0.10603 0.14694 0.57985 0.0
C96 C 0.15 0.20393 0.61036 0.0
C97 C 0.15841 0.20118 0.58635 0.0
C98 C 0.12052 0.17834 0.61902 0.0
C99 C 1.00161 0.03379 0.66578 0.0
C100 C 0.04326 0.06604 0.69929 0.0
C101 C 0.99889 0.00936 0.70286 0.0
C102 C 0.98595 0.00684 0.67941 0.0
C103 C 0.02778 0.03894 0.71307 0.0
C104 C 0.03035 0.06342 0.6758 0.0
C105 C 0.98815 0.03047 0.6411 0.0
O106 O 0.95735 0.07208 0.57992 0.0
O107 O 0.01398 0.03278 0.57124 0.0
O108 O 0.02035 0.01856 0.62628 0.0
O109 O 0.96518 0.05931 0.63507 0.0
H110 H 0.94682 0.99017 0.59124 0.0
H111 H 0.89438 0.93699 0.58037 0.0
H112 H 0.87281 0.97378 0.51302 0.0
H113 H 0.92539 0.02756 0.52425 0.0
H114 H 0.14142 0.16992 0.55251 0.0
H115 H 0.08967 0.12465 0.56795 0.0
H116 H 0.1664 0.22583 0.62252 0.0
H117 H 0.11537 0.18067 0.63767 0.0
H118 H 0.06587 0.08893 0.70656 0.0
H119 H 0.98582 0.98838 0.71307 0.0
H120 H 0.96367 0.98383 0.67192 0.0
H121 H 0.0429 0.0844 0.66543 0.0
C122 C 0.47963 0.57778 0.9662 0.0
C123 C 0.46881 0.59901 0.9482 0.0
C124 C 0.4151 0.63673 0.97322 0.0
C125 C 0.43706 0.62825 0.95169 0.0
C126 C 0.4255 0.61508 0.9912 0.0
C127 C 0.45775 0.58586 0.98772 0.0
U128 U 0.54353 0.51401 0.92184 0.0
O129 O 0.61483 0.49494 0.91918 0.0
O130 O 0.559 0.45292 0.9174 0.0
C131 C 0.60344 0.45893 0.9184 0.0
C132 C 0.5126 0.5466 0.96185 0.0
C133 C 0.63005 0.43624 0.93331 0.0
C134 C 0.68752 0.43051 0.96336 0.0
C135 C 0.6596 0.4531 0.95112 0.0
C136 C 0.65582 0.37405 0.94064 0.0
C137 C 0.68622 0.39072 0.9581 0.0
C138 C 0.62818 0.39656 0.92838 0.0
C139 C 0.51497 0.53193 0.85898 0.0
C140 C 0.54383 0.49582 0.82358 0.0
C141 C 0.49325 0.54895 0.82127 0.0
C142 C 0.49103 0.55526 0.84553 0.0
C143 C 0.51949 0.51906 0.80997 0.0
C144 C 0.54152 0.50218 0.84795 0.0
C145 C 0.51094 0.5391 0.88442 0.0
O146 O 0.49538 0.51478 0.95092 0.0
O147 O 0.55175 0.55606 0.95316 0.0
O148 O 0.54716 0.55382 0.89593 0.0
O149 O 0.4912 0.5121 0.89422 0.0
H150 H 0.48487 0.59286 0.93134 0.0
H151 H 0.42925 0.64395 0.93739 0.0
H152 H 0.40921 0.6211 0.00799 0.0
H153 H 0.46557 0.56962 1.00177 0.0
H154 H 0.71033 0.44419 0.97682 0.0
H155 H 0.6618 0.48367 0.95532 0.0
H156 H 0.65449 0.34354 0.93584 0.0
H157 H 0.60606 0.38291 0.91458 0.0
H158 H 0.56409 0.47242 0.8154 0.0
H159 H 0.47479 0.5678 0.81136 0.0
H160 H 0.47049 0.57843 0.85382 0.0
H161 H 0.56017 0.48386 0.85816 0.0
C162 C 0.43361 0.51397 0.06107 0.0
C163 C 0.418 0.49233 0.07798 0.0
C164 C 0.36785 0.45585 0.04931 0.0
C165 C 0.38552 0.46355 0.07216 0.0
C166 C 0.38281 0.47825 0.03254 0.0
C167 C 0.41554 0.50702 0.03838 0.0
U168 U 0.50891 0.56908 0.10701 0.0
O169 O 0.58202 0.58383 0.10771 0.0
O170 O 0.53075 0.62901 0.11324 0.0
C171 C 0.57434 0.62056 0.11093 0.0
C172 C 0.4694 0.54304 0.06711 0.0
C173 C 0.60277 0.64491 0.09789 0.0
C174 C 0.66967 0.65402 0.07443 0.0
C175 C 0.6382 0.62987 0.08324 0.0
C176 C 0.6299 0.70856 0.09402 0.0
C177 C 0.66643 0.69364 0.08012 0.0
C178 C 0.59858 0.68448 0.10283 0.0
C179 C 0.49682 0.54994 0.16961 0.0
C180 C 0.55325 0.57145 0.19968 0.0
C181 C 0.47982 0.54726 0.21028 0.0
C182 C 0.46675 0.54112 0.18679 0.0
C183 C 0.52333 0.56227 0.21698 0.0
C184 C 0.54 0.56552 0.17619 0.0
C185 C 0.48275 0.54274 0.14497 0.0
O186 O 0.45604 0.57402 0.08025 0.0
O187 O 0.50838 0.53002 0.07415 0.0
O188 O 0.51325 0.52586 0.13067 0.0
O189 O 0.46249 0.57119 0.13686 0.0
H190 H 0.43137 0.49746 0.09565 0.0
H191 H 0.37425 0.44726 0.08558 0.0
H192 H 0.37015 0.47286 0.01475 0.0
H193 H 0.42717 0.52347 0.02511 0.0
H194 H 0.69708 0.64164 0.06355 0.0
H195 H 0.64265 0.59949 0.07922 0.0
H196 H 0.6267 0.73888 0.09904 0.0
H197 H 0.57217 0.69687 0.1144 0.0
H198 H 0.58681 0.58331 0.20433 0.0
H199 H 0.45625 0.53939 0.22315 0.0
H200 H 0.43327 0.52914 0.18202 0.0
H201 H 0.56354 0.57285 0.16314 0.0
H202 H 0.22025 0.13322 0.9908 0.0
H203 H 0.23697 0.20029 0.99015 0.0
H204 H 0.11092 0.22993 0.02601 0.0
H205 H 0.09409 0.16222 0.02661 0.0
H206 H 0.20333 0.26679 0.97829 0.0
H207 H 0.14048 0.29744 0.07167 0.0
H208 H 0.11864 0.26321 0.10432 0.0
H209 H 0.2129 0.17437 0.08084 0.0
H210 H 0.23565 0.20835 0.04829 0.0
H211 H 0.28994 0.4538 0.02212 0.0
H212 H 0.23695 0.40021 0.01195 0.0
H213 H 0.31977 0.33167 0.05175 0.0
H214 H 0.37233 0.38486 0.06202 0.0
H215 H 0.23306 0.32131 0.06056 0.0
H216 H 0.3239 0.32465 0.99106 0.0
H217 H 0.35406 0.35421 0.95812 0.0
H218 H 0.21729 0.36899 0.93345 0.0
H219 H 0.18632 0.33989 0.96643 0.0
C220 C 0.19511 0.154 0.99758 0.0
C221 C 0.15597 0.14274 0.00877 0.0
C222 C 0.20466 0.19237 0.99719 0.0
C223 C 0.17563 0.22019 0.00838 0.0
C224 C 0.13395 0.2089 0.0174 0.0
C225 C 0.12413 0.17026 0.01757 0.0
C226 C 0.19365 0.25955 0.01423 0.0
C227 C 0.20897 0.27918 0.99627 0.0
C228 C 0.20195 0.2754 0.03768 0.0
C229 C 0.18927 0.25518 0.05745 0.0
C230 C 0.15659 0.27066 0.07356 0.0
C231 C 0.14407 0.25131 0.09203 0.0
C232 C 0.16425 0.21657 0.0946 0.0
C233 C 0.19719 0.20121 0.07879 0.0
C234 C 0.2099 0.2205 0.06034 0.0
C235 C 0.29687 0.42723 0.02861 0.0
C236 C 0.33529 0.42366 0.04296 0.0
C237 C 0.26652 0.39664 0.02282 0.0
C238 C 0.27435 0.36179 0.03103 0.0
C239 C 0.31266 0.35832 0.04537 0.0
C240 C 0.34273 0.38882 0.05125 0.0
C241 C 0.24355 0.32842 0.02462 0.0
C242 C 0.22601 0.30982 0.04255 0.0
C243 C 0.23419 0.31318 1.00114 0.0
C244 C 0.25281 0.33056 0.98134 0.0
C245 C 0.30027 0.33447 0.9787 0.0
C246 C 0.31751 0.35109 0.96002 0.0
C247 C 0.28761 0.3636 0.94375 0.0
C248 C 0.2404 0.35938 0.9461 0.0
C249 C 0.223 0.34282 0.96477 0.0
H250 H 0.30101 0.37645 0.9293 0.0
H251 H 0.15444 0.2016 0.10888 0.0
H252 H 0.23314 0.95257 0.98522 0.0
H253 H 0.26441 0.88884 0.97687 0.0
H254 H 0.13876 0.84158 0.99918 0.0
H255 H 0.10671 0.90584 0.00731 0.0
H256 H 0.22068 0.8181 0.02106 0.0
H257 H 0.16108 0.8227 0.94466 0.0
H258 H 0.14621 0.85153 0.90897 0.0
H259 H 0.29038 0.85608 0.89623 0.0
H260 H 0.30621 0.82782 0.93205 0.0
H261 H 0.33023 0.6371 0.99307 0.0
H262 H 0.27391 0.68836 0.99634 0.0
H263 H 0.36869 0.7586 0.96434 0.0
H264 H 0.42452 0.70752 0.9608 0.0
H265 H 0.28717 0.76297 0.94562 0.0
H266 H 0.34795 0.77075 0.02396 0.0
H267 H 0.36669 0.74668 0.06087 0.0
H268 H 0.22464 0.72294 0.07084 0.0
H269 H 0.20514 0.74645 0.03381 0.0
C270 C 0.2118 0.92859 0.98797 0.0
C271 C 0.16753 0.93413 0.99694 0.0
C272 C 0.22968 0.89218 0.98313 0.0
C273 C 0.20388 0.86052 0.98737 0.0
C274 C 0.15912 0.86572 0.99575 0.0
C275 C 0.1408 0.90232 1.00024 0.0
C276 C 0.22562 0.82266 0.98448 0.0
C277 C 0.23422 0.80538 0.00446 0.0
C278 C 0.24418 0.80677 0.96293 0.0
C279 C 0.23483 0.82328 0.94114 0.0
C280 C 0.18965 0.83005 0.93434 0.0
C281 C 0.18104 0.84627 0.91406 0.0
C282 C 0.21732 0.85568 0.90036 0.0
C283 C 0.2623 0.84877 0.90686 0.0
C284 C 0.27111 0.83258 0.92713 0.0
C285 C 0.3391 0.66364 0.98696 0.0
C286 C 0.38172 0.66827 0.97662 0.0
C287 C 0.30689 0.69287 0.98878 0.0
C288 C 0.31704 0.72742 0.9806 0.0
C289 C 0.35984 0.73213 0.97057 0.0
C290 C 0.39178 0.70292 0.96859 0.0
C291 C 0.28349 0.75893 0.98235 0.0
C292 C 0.27275 0.77506 0.96214 0.0
C293 C 0.26348 0.77407 1.00376 0.0
C294 C 0.27517 0.75986 0.02598 0.0
C295 C 0.32077 0.76008 0.03392 0.0
C296 C 0.33152 0.7466 0.05488 0.0
C297 C 0.2969 0.73316 0.06815 0.0
C298 C 0.25143 0.73327 0.06051 0.0
C299 C 0.24051 0.74667 0.03955 0.0
H300 H 0.30528 0.72276 0.08438 0.0
H301 H 0.21059 0.86829 0.88468 0.0
H302 H 1.00287 0.91635 0.03076 0.0
H303 H 0.96115 0.86668 0.04813 0.0
H304 H 0.83313 0.91817 0.03287 0.0
H305 H 0.87417 0.96681 0.01536 0.0
H306 H 0.8348 0.89381 0.07665 0.0
H307 H 0.87121 0.84815 0.9959 0.0
H308 H 0.92417 0.83128 0.96331 0.0
H309 H 0.98996 0.7505 1.00111 0.0
H310 H 0.93771 0.76732 0.03408 0.0
H311 H 0.65497 0.76234 0.06449 0.0
H312 H 0.71421 0.80744 0.05657 0.0
H313 H 0.81853 0.72884 0.0716 0.0
H314 H 0.75937 0.68358 0.07978 0.0
H315 H 0.8401 0.76337 0.03365 0.0
H316 H 0.79403 0.80208 0.1119 0.0
H317 H 0.73963 0.81885 0.14384 0.0
H318 H 0.69193 0.91284 0.11112 0.0
H319 H 0.74556 0.89629 0.07878 0.0
C320 C 0.9659 0.91732 0.03163 0.0
C321 C 0.9416 0.94515 0.02167 0.0
C322 C 0.94215 0.88895 0.04139 0.0
C323 C 0.89402 0.88867 0.04163 0.0
C324 C 0.87018 0.91784 0.03291 0.0
C325 C 0.89367 0.94554 0.02285 0.0
C326 C 0.8675 0.85695 0.04926 0.0
C327 C 0.83602 0.86525 0.06732 0.0
C328 C 0.86976 0.81954 0.03737 0.0
C329 C 0.90103 0.80936 0.01756 0.0
C330 C 0.89725 0.82705 0.99734 0.0
C331 C 0.92707 0.81745 0.97879 0.0
C332 C 0.96052 0.78994 0.98017 0.0
C333 C 0.96411 0.77188 1.00009 0.0
C334 C 0.93441 0.78143 0.01871 0.0
C335 C 0.6905 0.7546 0.06613 0.0
C336 C 0.70237 0.71945 0.07297 0.0
C337 C 0.72434 0.78042 0.06159 0.0
C338 C 0.77082 0.7718 0.06393 0.0
C339 C 0.78289 0.73614 0.06979 0.0
C340 C 0.749 0.71023 0.07434 0.0
C341 C 0.80647 0.8005 0.06066 0.0
C342 C 0.83957 0.79164 0.0434 0.0
C343 C 0.80571 0.83747 0.0733 0.0
C344 C 0.77365 0.84778 0.09283 0.0
C345 C 0.77174 0.82618 0.11143 0.0
C346 C 0.74105 0.83566 0.12962 0.0
C347 C 0.71229 0.86685 0.12949 0.0
C348 C 0.71422 0.88868 0.11119 0.0
C349 C 0.7448 0.87929 0.09294 0.0
H350 H 0.68856 0.87415 0.14358 0.0
H351 H 0.98358 0.78253 0.96579 0.0
H352 H 0.01012 0.16691 0.01206 0.0
H353 H 0.9637 0.22385 0.00983 0.0
H354 H 0.84204 0.15379 1.00066 0.0
H355 H 0.88833 0.09737 1.00184 0.0
H356 H 0.84567 0.19558 0.96792 0.0
H357 H 0.86721 0.21878 0.05151 0.0
H358 H 0.91292 0.22874 0.08785 0.0
H359 H 0.977 0.32658 0.06572 0.0
H360 H 0.93202 0.31694 0.02911 0.0
H361 H 0.66662 0.32361 0.9741 0.0
H362 H 0.7206 0.27905 0.98768 0.0
H363 H 0.83134 0.35778 0.98212 0.0
H364 H 0.77747 0.40254 0.96826 0.0
H365 H 0.83944 0.31652 0.02163 0.0
H366 H 0.8158 0.29343 0.93857 0.0
H367 H 0.76927 0.28329 0.90252 0.0
H368 H 0.7089 0.18366 0.92428 0.0
H369 H 0.75455 0.19356 0.96067 0.0
C370 C 0.97336 0.16402 0.01011 0.0
C371 C 0.95268 0.12793 0.007 0.0
C372 C 0.94683 0.19649 0.00884 0.0
C373 C 0.89925 0.19316 0.00497 0.0
C374 C 0.87863 0.15715 1.00339 0.0
C375 C 0.90506 0.12492 1.00417 0.0
C376 C 0.87096 0.22603 1.0003 0.0
C377 C 0.84401 0.22177 0.9799 0.0
C378 C 0.8699 0.26088 0.01539 0.0
C379 C 0.8966 0.26691 0.03747 0.0
C380 C 0.89128 0.24226 0.05433 0.0
C381 C 0.91701 0.24788 0.07499 0.0
C382 C 0.94795 0.27821 0.07906 0.0
C383 C 0.95307 0.30307 0.06252 0.0
C384 C 0.92743 0.29757 0.04183 0.0
C385 C 0.70238 0.33164 0.97597 0.0
C386 C 0.71783 0.36638 0.96975 0.0
C387 C 0.73314 0.30625 0.98387 0.0
C388 C 0.78003 0.31493 0.98562 0.0
C389 C 0.79527 0.35058 0.98092 0.0
C390 C 0.76442 0.3761 0.97301 0.0
C391 C 0.81318 0.28511 0.98983 0.0
C392 C 0.84128 0.29018 0.00982 0.0
C393 C 0.81535 0.25074 0.97445 0.0
C394 C 0.78831 0.24443 0.95243 0.0
C395 C 0.79237 0.26951 0.93574 0.0
C396 C 0.76618 0.26379 0.91524 0.0
C397 C 0.73608 0.2329 0.91113 0.0
C398 C 0.7322 0.2076 0.9275 0.0
C399 C 0.75824 0.21324 0.94805 0.0
H400 H 0.71583 0.22852 0.89525 0.0
H401 H 0.96786 0.28249 0.09506 0.0
H402 H 0.60663 0.65045 0.50694 0.0
H403 H 0.63005 0.71731 0.50714 0.0
H404 H 0.7571 0.69489 0.54095 0.0
H405 H 0.73456 0.6294 0.5409 0.0
H406 H 0.71432 0.75803 0.56274 0.0
H407 H 0.75263 0.70102 0.48336 0.0
H408 H 0.7317 0.66891 0.44418 0.0
H409 H 0.64157 0.76034 0.43426 0.0
H410 H 0.66162 0.79278 0.4735 0.0
H411 H 0.89561 0.878 0.55293 0.0
H412 H 0.8437 0.82371 0.54587 0.0
H413 H 0.74391 0.89242 0.51613 0.0
H414 H 0.79607 0.94745 0.5233 0.0
H415 H 0.7513 0.81603 0.49187 0.0
H416 H 0.72567 0.87844 0.56882 0.0
H417 H 0.74802 0.91003 0.60787 0.0
H418 H 0.81301 0.80799 0.6228 0.0
H419 H 0.7917 0.77595 0.5837 0.0
C420 C 0.63953 0.65991 0.51437 0.0
C421 C 0.66857 0.63451 0.52397 0.0
C422 C 0.65288 0.69802 0.51443 0.0
C423 C 0.69528 0.71108 0.52417 0.0
C424 C 0.72412 0.68559 0.53352 0.0
C425 C 0.71107 0.64794 0.53339 0.0
C426 C 0.71078 0.75113 0.52526 0.0
C427 C 0.72213 0.7708 0.54724 0.0
C428 C 0.71961 0.76835 0.5051 0.0
C429 C 0.70816 0.74907 0.48144 0.0
C430 C 0.72811 0.71413 0.47288 0.0
C431 C 0.71646 0.6959 0.45066 0.0
C432 C 0.68518 0.7125 0.43679 0.0
C433 C 0.6657 0.74747 0.44505 0.0
C434 C 0.67721 0.7658 0.46726 0.0
C435 C 0.86266 0.88167 0.54486 0.0
C436 C 0.84964 0.91722 0.53906 0.0
C437 C 0.83309 0.85054 0.54073 0.0
C438 C 0.78964 0.85418 0.53083 0.0
C439 C 0.77724 0.88906 0.52386 0.0
C440 C 0.80705 0.92042 0.52796 0.0
C441 C 0.75691 0.8218 0.52932 0.0
C442 C 0.74226 0.80376 0.50738 0.0
C443 C 0.74492 0.80589 0.54955 0.0
C444 C 0.75719 0.82484 0.57327 0.0
C445 C 0.74493 0.86279 0.58038 0.0
C446 C 0.75741 0.88078 0.60253 0.0
C447 C 0.78195 0.86104 0.6178 0.0
C448 C 0.79398 0.82324 0.61096 0.0
C449 C 0.78163 0.80513 0.58882 0.0
H450 H 0.7916 0.87502 0.63493 0.0
H451 H 0.67609 0.69832 0.41963 0.0
H452 H 0.71546 0.4425 0.47191 0.0
H453 H 0.7497 0.37961 0.4662 0.0
H454 H 0.63886 0.33592 0.50362 0.0
H455 H 0.60402 0.39922 0.5093 0.0
H456 H 0.72575 0.31954 0.52043 0.0
H457 H 0.64689 0.30636 0.44729 0.0
H458 H 0.62127 0.3258 0.41003 0.0
H459 H 0.76055 0.32953 0.38763 0.0
H460 H 0.78709 0.31066 0.4249 0.0
H461 H 0.83214 0.13651 0.49956 0.0
H462 H 0.77666 0.18837 0.50273 0.0
H463 H 0.86017 0.24764 0.45809 0.0
H464 H 0.91496 0.19574 0.45456 0.0
H465 H 0.77496 0.24995 0.44483 0.0
H466 H 0.85485 0.27332 0.51867 0.0
H467 H 0.88363 0.25755 0.55633 0.0
H468 H 0.74623 0.23809 0.57761 0.0
H469 H 0.71666 0.25328 0.53993 0.0
C470 C 0.69783 0.41936 0.47853 0.0
C471 C 0.65709 0.42579 0.49108 0.0
C472 C 0.71741 0.38339 0.47521 0.0
C473 C 0.69682 0.35305 0.48445 0.0
C474 C 0.65525 0.35897 0.49631 0.0
C475 C 0.63523 0.39502 0.4994 0.0
C476 C 0.72099 0.31621 0.48309 0.0
C477 C 0.73563 0.30374 0.5039 0.0
C478 C 0.73483 0.29623 0.46153 0.0
C479 C 0.71899 0.30728 0.43898 0.0
C480 C 0.67209 0.31157 0.43449 0.0
C481 C 0.65739 0.32245 0.41335 0.0
C482 C 0.68926 0.32895 0.39649 0.0
C483 C 0.7359 0.32448 0.40071 0.0
C484 C 0.75078 0.31364 0.42183 0.0
C485 C 0.83877 0.16082 0.49063 0.0
C486 C 0.87781 0.16202 0.47675 0.0
C487 C 0.80706 0.19043 0.49243 0.0
C488 C 0.81422 0.22208 0.4807 0.0
C489 C 0.85359 0.22346 0.46714 0.0
C490 C 0.88496 0.19379 0.46516 0.0
C491 C 0.78083 0.25376 0.48219 0.0
C492 C 0.76446 0.26528 0.46138 0.0
C493 C 0.76588 0.27314 0.50376 0.0
C494 C 0.7836 0.26396 0.52638 0.0
C495 C 0.83081 0.26536 0.53131 0.0
C496 C 0.84726 0.25659 0.55267 0.0
C497 C 0.81679 0.2467 0.56932 0.0
C498 C 0.76979 0.24567 0.56467 0.0
C499 C 0.75317 0.25437 0.54333 0.0
H500 H 0.82959 0.23993 0.58585 0.0
H501 H 0.67781 0.33739 0.38013 0.0
H502 H 0.37492 0.44142 0.48511 0.0
H503 H 0.32802 0.39658 0.50261 0.0
H504 H 0.42855 0.3941 0.55731 0.0
H505 H 0.47654 0.43948 0.53967 0.0
H506 H 0.39606 0.32163 0.53831 0.0
H507 H 0.33326 0.44077 0.57004 0.0
H508 H 0.30308 0.50507 0.56892 0.0
H509 H 0.19251 0.45882 0.52442 0.0
H510 H 0.22242 0.39424 0.52497 0.0
H511 H 0.2425 0.22275 0.60456 0.0
H512 H 0.2958 0.2686 0.59163 0.0
H513 H 0.20365 0.28485 0.53531 0.0
H514 H 0.14964 0.23934 0.54845 0.0
H515 H 0.23478 0.35221 0.5586 0.0
H516 H 0.29977 0.23416 0.52472 0.0
H517 H 0.33054 0.16974 0.52454 0.0
H518 H 0.43702 0.21384 0.57238 0.0
H519 H 0.40647 0.27851 0.5731 0.0
C520 C 0.38733 0.43154 0.50089 0.0
C521 C 0.4296 0.44417 0.51101 0.0
C522 C 0.36023 0.40593 0.51093 0.0
C523 C 0.3745 0.39231 0.5314 0.0
C524 C 0.41687 0.40442 0.54153 0.0
C525 C 0.44413 0.43039 0.5315 0.0
C526 C 0.34477 0.36512 0.54173 0.0
C527 C 0.36109 0.32852 0.54324 0.0
C528 C 0.29878 0.37387 0.54757 0.0
C529 C 0.2803 0.41265 0.54742 0.0
C530 C 0.30268 0.44431 0.55988 0.0
C531 C 0.2856 0.48082 0.55937 0.0
C532 C 0.24596 0.48604 0.54657 0.0
C533 C 0.22323 0.45474 0.53432 0.0
C534 C 0.24021 0.41816 0.53475 0.0
C535 C 0.2335 0.23615 0.58944 0.0
C536 C 0.19172 0.22755 0.57758 0.0
C537 C 0.26419 0.26213 0.58197 0.0
C538 C 0.25385 0.28003 0.56244 0.0
C539 C 0.21232 0.27134 0.55043 0.0
C540 C 0.18166 0.24515 0.55783 0.0
C541 C 0.28586 0.30852 0.55491 0.0
C542 C 0.2699 0.3454 0.55392 0.0
C543 C 0.33212 0.29998 0.54954 0.0
C544 C 0.35051 0.26112 0.54917 0.0
C545 C 0.32949 0.23008 0.53537 0.0
C546 C 0.34694 0.19353 0.53514 0.0
C547 C 0.38563 0.18769 0.5485 0.0
C548 C 0.40701 0.21841 0.56208 0.0
C549 C 0.38965 0.25502 0.56239 0.0
H550 H 0.39911 0.15937 0.54828 0.0
H551 H 0.23282 0.51433 0.54617 0.0
H552 H 0.44826 0.63351 0.5375 0.0
H553 H 0.40052 0.69053 0.53835 0.0
H554 H 0.42452 0.69167 0.46511 0.0
H555 H 0.47078 0.63448 0.46402 0.0
H556 H 0.4302 0.76584 0.49471 0.0
H557 H 0.33332 0.65234 0.4773 0.0
H558 H 0.30118 0.59205 0.48675 0.0
H559 H 0.24679 0.64988 0.55037 0.0
H560 H 0.27926 0.71047 0.54143 0.0
H561 H 0.26213 0.85052 0.4343 0.0
H562 H 0.31701 0.81 0.45068 0.0
H563 H 0.24018 0.81923 0.51439 0.0
H564 H 0.18402 0.85942 0.4977 0.0
H565 H 0.26263 0.74679 0.50032 0.0
H566 H 0.3442 0.86239 0.51397 0.0
H567 H 0.37674 0.92327 0.50585 0.0
H568 H 0.46094 0.86446 0.45253 0.0
H569 H 0.42841 0.80322 0.46007 0.0
C570 C 0.44386 0.64638 0.52172 0.0
C571 C 0.46295 0.62957 0.50067 0.0
C572 C 0.41656 0.67879 0.52222 0.0
C573 C 0.40899 0.69519 0.50177 0.0
C574 C 0.43005 0.6795 0.48107 0.0
C575 C 0.4563 0.64677 0.48046 0.0
C576 C 0.37666 0.72699 0.50113 0.0
C577 C 0.39355 0.76185 0.49598 0.0
C578 C 0.32902 0.72209 0.50362 0.0
C579 C 0.30923 0.68578 0.50887 0.0
C580 C 0.31488 0.65212 0.49341 0.0
C581 C 0.29654 0.61792 0.49865 0.0
C582 C 0.27211 0.6171 0.51919 0.0
C583 C 0.26583 0.65053 0.5345 0.0
C584 C 0.28419 0.68481 0.52935 0.0
C585 C 0.25681 0.84399 0.45181 0.0
C586 C 0.21849 0.85797 0.46462 0.0
C587 C 0.28856 0.82112 0.46128 0.0
C588 C 0.28314 0.81186 0.4839 0.0
C589 C 0.24523 0.82615 0.49694 0.0
C590 C 0.21333 0.84926 0.48745 0.0
C591 C 0.31598 0.7855 0.49303 0.0
C592 C 0.29926 0.75149 0.4997 0.0
C593 C 0.36388 0.7914 0.49222 0.0
C594 C 0.38364 0.82816 0.48752 0.0
C595 C 0.36941 0.86242 0.50039 0.0
C596 C 0.3879 0.89701 0.49591 0.0
C597 C 0.42085 0.89773 0.47867 0.0
C598 C 0.43542 0.86385 0.46589 0.0
C599 C 0.41701 0.82918 0.47029 0.0
H600 H 0.43513 0.92454 0.47523 0.0
H601 H 0.25794 0.59059 0.52322 0.0
H602 H 0.1422 0.0532 0.10901 0.0
H603 H 0.12266 0.0424 0.14829 0.0
H604 H 0.98882 0.00212 0.12426 0.0
H605 H 0.008 0.01331 0.08454 0.0
H606 H 0.98564 0.04885 0.16604 0.0
H607 H 0.06853 0.93897 0.13472 0.0
H608 H 0.13185 0.9034 0.11443 0.0
H609 H 0.22634 0.95371 0.16706 0.0
H610 H 0.16369 0.99003 0.1875 0.0
H611 H 0.9488 0.98458 0.27598 0.0
H612 H 0.95657 0.98416 0.2339 0.0
H613 H 0.09601 0.02359 0.24423 0.0
H614 H 0.08851 0.02399 0.28622 0.0
H615 H 0.08906 0.96955 0.20739 0.0
H616 H 0.0078 0.08441 0.23599 0.0
H617 H 0.94496 0.12089 0.25615 0.0
H618 H 0.84761 0.06112 0.20847 0.0
H619 H 0.90988 0.02392 0.18821 0.0
C620 C 0.10849 0.04214 0.11197 0.0
C621 C 0.07678 0.03385 0.09354 0.0
C622 C 0.09745 0.03583 0.13448 0.0
C623 C 0.05465 0.02072 0.13912 0.0
C624 C 0.02219 0.01354 0.12099 0.0
C625 C 0.0332 0.01999 0.09834 0.0
C626 C 0.04447 0.01248 0.16299 0.0
C627 C 0.00767 0.03089 0.17495 0.0
C628 C 0.07363 0.98946 0.17471 0.0
C629 C 0.11141 0.96741 0.16257 0.0
C630 C 0.10285 0.94264 0.14189 0.0
C631 C 0.13863 0.92232 0.13037 0.0
C632 C 0.1831 0.92634 0.13943 0.0
C633 C 0.19187 0.95063 0.16006 0.0
C634 C 0.15623 0.97105 0.17164 0.0
C635 C 0.98112 0.99313 0.26926 0.0
C636 C 0.01798 0.00449 0.28445 0.0
C637 C 0.98551 0.99287 0.24522 0.0
C638 C 0.02668 0.00433 0.23593 0.0
C639 C 0.06393 0.01458 0.25099 0.0
C640 C 0.05964 0.01469 0.275 0.0
C641 C 0.03094 0.00668 0.21064 0.0
C642 C 0.06664 0.98708 0.19839 0.0
C643 C 1.00078 0.0286 0.19869 0.0
C644 C 0.96341 0.05111 0.21076 0.0
C645 C 0.97296 0.07886 0.22992 0.0
C646 C 0.93746 0.09969 0.24135 0.0
C647 C 0.89231 0.09324 0.23364 0.0
C648 C 0.88259 0.06603 0.21445 0.0
C649 C 0.91796 0.04508 0.20298 0.0
H650 H 0.86487 0.1094 0.24251 0.0
H651 H 0.21075 0.91058 0.13048 0.0
H652 H 0.07419 0.96404 0.91559 0.0
H653 H 0.08418 0.97617 0.87538 0.0
H654 H 0.08884 0.09661 0.89856 0.0
H655 H 0.07982 0.08458 0.93903 0.0
H656 H 0.0201 0.07173 0.8641 0.0
H657 H 0.1806 0.06084 0.87589 0.0
H658 H 0.25105 0.03173 0.88872 0.0
H659 H 0.22438 0.9315 0.84016 0.0
H660 H 0.1534 0.95981 0.82723 0.0
H661 H 0.03323 0.10246 0.74563 0.0
H662 H 0.05258 0.10584 0.78707 0.0
H663 H 0.07129 0.98454 0.77848 0.0
H664 H 0.05342 0.9811 0.73696 0.0
H665 H 0.1362 0.01952 0.80679 0.0
H666 H 0.97241 0.02397 0.79963 0.0
H667 H 0.89841 0.04859 0.78779 0.0
H668 H 0.92779 0.15628 0.82848 0.0
H669 H 1.00234 0.13242 0.8403 0.0
C670 C 0.07854 0.99305 0.91218 0.0
C671 C 0.07612 0.02338 0.93037 0.0
C672 C 0.08434 0.99994 0.88923 0.0
C673 C 0.08719 0.03728 0.88404 0.0
C674 C 0.08683 0.0676 0.90227 0.0
C675 C 0.08193 0.06068 0.92535 0.0
C676 C 0.08536 0.04423 0.85942 0.0
C677 C 0.04605 0.06127 0.85162 0.0
C678 C 0.11858 0.02946 0.84316 0.0
C679 C 0.16148 0.01239 0.8507 0.0
C680 C 0.18957 0.03248 0.86806 0.0
C681 C 0.22965 0.01615 0.87532 0.0
C682 C 0.24215 0.97977 0.86529 0.0
C683 C 0.21465 0.95969 0.84791 0.0
C684 C 0.17453 0.9759 0.84058 0.0
C685 C 0.04214 0.07658 0.7525 0.0
C686 C 0.04142 0.04145 0.73803 0.0
C687 C 0.05288 0.07853 0.77621 0.0
C688 C 0.06291 0.04538 0.78592 0.0
C689 C 0.06361 0.01048 0.77138 0.0
C690 C 0.0529 0.0085 0.7477 0.0
C691 C 0.07058 0.04659 0.81139 0.0
C692 C 0.11078 0.03085 0.81932 0.0
C693 C 0.03784 0.06209 0.8278 0.0
C694 C 0.99321 0.07659 0.82058 0.0
C695 C 0.9633 0.05302 0.80586 0.0
C696 C 0.92122 0.06681 0.79919 0.0
C697 C 0.90848 0.10403 0.8073 0.0
C698 C 0.93776 0.1275 0.82216 0.0
C699 C 0.97993 0.11386 0.82885 0.0
H700 H 0.87587 0.11464 0.80214 0.0
H701 H 0.27317 0.96715 0.87095 0.0
H702 H 0.4961 0.52307 0.58579 0.0
H703 H 0.47904 0.5175 0.62655 0.0
H704 H 0.62085 0.49325 0.63892 0.0
H705 H 0.63795 0.498 0.59839 0.0
H706 H 0.56777 0.44874 0.66037 0.0
H707 H 0.57645 0.58251 0.654 0.0
H708 H 0.55523 0.64112 0.63824 0.0
H709 H 0.41675 0.62888 0.66022 0.0
H710 H 0.43705 0.56989 0.67585 0.0
H711 H 0.5944 0.50176 0.78258 0.0
H712 H 0.59821 0.49519 0.74006 0.0
H713 H 0.45335 0.51596 0.73632 0.0
H714 H 0.44921 0.5223 0.7788 0.0
H715 H 0.50045 0.55889 0.7099 0.0
H716 H 0.49562 0.42751 0.7201 0.0
H717 H 0.51946 0.37011 0.73646 0.0
H718 H 0.65345 0.37885 0.7079 0.0
H719 H 0.63062 0.43663 0.69164 0.0
C720 C 0.52351 0.51632 0.59716 0.0
C721 C 0.56841 0.5113 0.58886 0.0
C722 C 0.5138 0.51323 0.62047 0.0
C723 C 0.54883 0.5054 0.63587 0.0
C724 C 0.59328 0.49928 0.6274 0.0
C725 C 0.60296 0.5022 0.60418 0.0
C726 C 0.54006 0.50487 0.66104 0.0
C727 C 0.55328 0.47291 0.67123 0.0
C728 C 0.52035 0.53608 0.67515 0.0
C729 C 0.50813 0.57158 0.66583 0.0
C730 C 0.54139 0.59217 0.6553 0.0
C731 C 0.52955 0.62548 0.64643 0.0
C732 C 0.48464 0.63865 0.64816 0.0
C733 C 0.4515 0.6186 0.65884 0.0
C734 C 0.46315 0.58524 0.66772 0.0
C735 C 0.56322 0.5043 0.7727 0.0
C736 C 0.52154 0.51269 0.78409 0.0
C737 C 0.56545 0.50058 0.74839 0.0
C738 C 0.52598 0.50486 0.735 0.0
C739 C 0.48423 0.51266 0.74631 0.0
C740 C 0.48198 0.5164 0.77059 0.0
C741 C 0.52867 0.50294 0.70929 0.0
C742 C 0.51438 0.53449 0.69901 0.0
C743 C 0.54773 0.47147 0.69515 0.0
C744 C 0.5615 0.43659 0.70481 0.0
C745 C 0.53028 0.41736 0.71745 0.0
C746 C 0.54359 0.38472 0.72668 0.0
C747 C 0.58797 0.37089 0.72326 0.0
C748 C 0.6191 0.38961 0.71055 0.0
C749 C 0.60597 0.42228 0.7013 0.0
H750 H 0.59821 0.34562 0.73042 0.0
H751 H 0.47554 0.66445 0.64128 0.0
H752 H 0.5872 0.46371 0.41499 0.0
H753 H 0.59343 0.4774 0.37498 0.0
H754 H 0.59299 0.5975 0.39953 0.0
H755 H 0.58778 0.58388 0.43977 0.0
H756 H 0.52592 0.51128 0.35559 0.0
H757 H 0.63861 0.64505 0.35596 0.0
H758 H 0.70591 0.67533 0.37694 0.0
H759 H 0.75336 0.56644 0.39066 0.0
H760 H 0.68681 0.53543 0.3694 0.0
H761 H 0.47402 0.59149 0.25503 0.0
H762 H 0.49409 0.59107 0.29609 0.0
H763 H 0.62504 0.5425 0.27627 0.0
H764 H 0.60526 0.54296 0.23514 0.0
H765 H 0.63011 0.59419 0.31753 0.0
H766 H 0.53929 0.48486 0.28436 0.0
H767 H 0.47197 0.45425 0.26357 0.0
H768 H 0.38374 0.51066 0.31591 0.0
H769 H 0.45053 0.54203 0.33683 0.0
C770 C 0.58983 0.49303 0.41192 0.0
C771 C 0.58657 0.52272 0.43045 0.0
C772 C 0.59321 0.50083 0.38905 0.0
C773 C 0.59316 0.53845 0.38421 0.0
C774 C 0.59341 0.56824 0.40283 0.0
C775 C 0.5905 0.56042 0.42583 0.0
C776 C 0.58693 0.54599 0.35979 0.0
C777 C 0.5489 0.52935 0.34732 0.0
C778 C 0.61657 0.56982 0.34901 0.0
C779 C 0.65744 0.58798 0.36127 0.0
C780 C 0.66354 0.62754 0.36333 0.0
C781 C 0.70154 0.64484 0.37529 0.0
C782 C 0.73376 0.62284 0.38523 0.0
C783 C 0.72825 0.58346 0.38306 0.0
C784 C 0.69038 0.56602 0.37106 0.0
C785 C 0.50729 0.5811 0.25944 0.0
C786 C 0.5378 0.56673 0.24186 0.0
C787 C 0.51881 0.5811 0.28289 0.0
C788 C 0.56082 0.5663 0.28919 0.0
C789 C 0.59251 0.55413 0.27178 0.0
C790 C 0.5811 0.55434 0.24829 0.0
C791 C 0.56933 0.5593 0.31353 0.0
C792 C 0.60739 0.57614 0.32594 0.0
C793 C 0.5399 0.53545 0.32437 0.0
C794 C 0.49984 0.51601 0.31204 0.0
C795 C 0.5055 0.49086 0.29136 0.0
C796 C 0.46745 0.47339 0.27956 0.0
C797 C 0.4236 0.48057 0.28839 0.0
C798 C 0.41772 0.50515 0.30908 0.0
C799 C 0.45565 0.52277 0.32092 0.0
H800 H 0.39418 0.46702 0.27922 0.0
H801 H 0.76305 0.63631 0.39457 0.0
loop_
_geom_bond_atom_site_label_1
_geom_bond_atom_site_label_2
_geom_bond_distance
_geom_bond_site_symmetry_2
_ccdc_geom_bond_type
O0 Mg1 1.990 . S
O0 C14 1.253 . S
Mg1 O0 1.990 . S
Mg1 O4 2.180 . S
Mg1 O5 2.117 . S
Mg1 O19 2.030 1_545 S
O2 Mg3 2.072 . S
O2 C14 1.260 . S
Mg3 O2 2.072 . S
Mg3 O4 2.099 . S
Mg3 O6 2.079 1_554 S
Mg3 O7 2.072 . S
Mg3 O9 2.099 1_444 S
Mg3 O20 2.079 1_544 S
O4 Mg1 2.180 . S
O4 Mg3 2.099 . S
O4 C15 1.279 . S
O5 Mg1 2.117 . S
O5 C15 1.250 . S
O6 Mg3 2.079 1_556 S
O6 C16 1.264 . S
O7 Mg3 2.072 . S
O7 C17 1.260 1_455 S
Mg8 O9 2.180 1_545 S
Mg8 O10 2.030 . S
Mg8 O11 1.990 . S
Mg8 O12 2.133 1_545 S
O9 Mg3 2.099 1_666 S
O9 Mg8 2.180 1_565 S
O9 C18 1.279 1_556 S
O10 Mg8 2.030 . S
O10 C16 1.248 1_655 S
O11 Mg8 1.990 . S
O11 C17 1.253 1_556 S
O12 Mg8 2.133 1_565 S
O12 C18 1.245 1_556 S
C13 O19 1.248 . S
C13 O20 1.257 1_554 S
C14 O0 1.253 . S
C14 O2 1.260 . S
C15 O4 1.279 . S
C15 O5 1.250 . S
C16 O6 1.264 . S
C16 O10 1.248 1_455 S
C17 O7 1.260 1_655 S
C17 O11 1.253 1_554 S
C18 O9 1.279 1_554 S
C18 O12 1.245 1_554 S
O19 Mg1 2.030 1_565 S
O19 C13 1.248 . S
O20 Mg3 2.079 1_566 S
O20 C13 1.257 1_556 S
O21 Mg22 1.990 . S
O21 C35 1.253 . S
Mg22 O21 1.990 . S
Mg22 O25 2.180 . S
Mg22 O26 2.117 . S
Mg22 O40 2.030 . S
O23 Mg24 2.072 . S
O23 C35 1.260 . S
Mg24 O23 2.072 . S
Mg24 O25 2.099 . S
Mg24 O27 2.079 . S
Mg24 O28 2.072 . S
Mg24 O30 2.099 . S
Mg24 O41 2.079 . S
O25 Mg22 2.180 . S
O25 Mg24 2.099 . S
O25 C36 1.279 . S
O26 Mg22 2.117 . S
O26 C36 1.250 . S
O27 Mg24 2.079 . S
O27 C37 1.264 . S
O28 Mg24 2.072 . S
O28 C38 1.260 . S
Mg29 O30 2.180 . S
Mg29 O31 2.030 . S
Mg29 O32 1.990 . S
Mg29 O33 2.117 . S
O30 Mg24 2.099 . S
O30 Mg29 2.180 . S
O30 C39 1.279 . S
O31 Mg29 2.030 . S
O31 C37 1.248 . S
O32 Mg29 1.990 . S
O32 C38 1.253 . S
O33 Mg29 2.117 . S
O33 C39 1.250 . S
C34 O40 1.248 . S
C34 O41 1.264 . S
C35 O21 1.253 . S
C35 O23 1.260 . S
C36 O25 1.279 . S
C36 O26 1.250 . S
C37 O27 1.264 . S
C37 O31 1.248 . S
C38 O28 1.260 . S
C38 O32 1.253 . S
C39 O30 1.279 . S
C39 O33 1.250 . S
O40 Mg22 2.030 . S
O40 C34 1.248 . S
O41 Mg24 2.079 . S
O41 C34 1.264 . S
C42 C43 1.264 . S
C42 C47 1.479 . S
C42 C52 1.465 1_655 S
C43 C42 1.264 . S
C43 C45 1.339 . S
C43 H70 0.931 . S
C44 C45 1.395 . S
C44 C46 1.320 . S
C45 C43 1.339 . S
C45 C44 1.395 . S
C45 H71 0.929 . S
C46 C44 1.320 . S
C46 C47 1.405 . S
C46 H72 0.930 . S
C47 C42 1.479 . S
C47 C46 1.405 . S
C47 H73 0.931 . S
U48 O49 2.454 1_545 S
U48 O50 2.458 1_545 S
U48 C51 2.984 1_545 S
U48 C52 2.847 . S
U48 C65 2.882 . S
U48 O66 2.441 . S
U48 O67 2.420 . S
U48 O68 2.455 1_545 S
U48 O69 2.449 . S
O49 U48 2.454 1_565 S
O49 C51 1.353 . S
O50 U48 2.458 1_565 S
O50 C51 1.286 . S
C51 U48 2.984 1_565 S
C51 O49 1.353 . S
C51 O50 1.286 . S
C51 C53 1.363 . S
C52 C42 1.465 1_455 S
C52 U48 2.847 . S
C52 O66 1.249 . S
C52 O67 1.202 . S
C53 C51 1.363 . S
C53 C55 1.408 . S
C53 C58 1.342 . S
C54 C55 1.310 . S
C54 C57 1.461 . S
C54 H74 0.932 . S
C55 C53 1.408 . S
C55 C54 1.310 . S
C55 H75 0.930 . S
C56 C57 1.474 . S
C56 C58 1.285 . S
C56 H76 0.929 . S
C57 C54 1.461 . S
C57 C56 1.474 . S
C58 C53 1.342 . S
C58 C56 1.285 . S
C58 H77 0.930 . S
C59 C62 1.424 . S
C59 C64 1.245 1_545 S
C59 C65 1.428 . S
C60 C63 1.260 1_565 S
C60 C64 1.477 . S
C60 H78 0.932 . S
C61 C62 1.384 . S
C61 C63 1.478 . S
C61 H79 0.929 . S
C62 C59 1.424 . S
C62 C61 1.384 . S
C62 H80 0.928 . S
C63 C60 1.260 1_545 S
C63 C61 1.478 . S
C64 C59 1.245 1_565 S
C64 C60 1.477 . S
C64 H81 0.932 . S
C65 U48 2.882 . S
C65 C59 1.428 . S
C65 O68 1.301 1_545 S
C65 O69 1.282 . S
O66 U48 2.441 . S
O66 C52 1.249 . S
O67 U48 2.420 . S
O67 C52 1.202 . S
O68 U48 2.455 1_565 S
O68 C65 1.301 1_565 S
O69 U48 2.449 . S
O69 C65 1.282 . S
H70 C43 0.931 . S
H71 C45 0.929 . S
H72 C46 0.930 . S
H73 C47 0.931 . S
H74 C54 0.932 . S
H75 C55 0.930 . S
H76 C56 0.929 . S
H77 C58 0.930 . S
H78 C60 0.932 . S
H79 C61 0.929 . S
H80 C62 0.928 . S
H81 C64 0.932 . S
C82 C83 1.264 . S
C82 C87 1.479 . S
C82 C92 1.465 1_565 S
C83 C82 1.264 . S
C83 C85 1.339 . S
C83 H110 0.931 . S
C84 C85 1.395 . S
C84 C86 1.320 . S
C85 C83 1.339 . S
C85 C84 1.395 . S
C85 H111 0.929 . S
C86 C84 1.320 . S
C86 C87 1.405 . S
C86 H112 0.930 . S
C87 C82 1.479 . S
C87 C86 1.405 . S
C87 H113 0.931 . S
U88 O89 2.454 . S
U88 O90 2.458 . S
U88 C91 2.984 . S
U88 C92 2.847 1_455 S
U88 C105 2.882 . S
U88 O106 2.441 1_455 S
U88 O107 2.420 1_455 S
U88 O108 2.455 . S
U88 O109 2.449 . S
O89 U88 2.454 . S
O89 C91 1.353 . S
O90 U88 2.458 . S
O90 C91 1.286 . S
C91 U88 2.984 . S
C91 O89 1.353 . S
C91 O90 1.286 . S
C91 C93 1.363 . S
C92 C82 1.465 1_545 S
C92 U88 2.847 1_655 S
C92 O106 1.249 . S
C92 O107 1.202 . S
C93 C91 1.363 . S
C93 C95 1.408 . S
C93 C98 1.342 . S
C94 C95 1.310 . S
C94 C97 1.461 . S
C94 H114 0.932 . S
C95 C93 1.408 . S
C95 C94 1.310 . S
C95 H115 0.930 . S
C96 C97 1.474 . S
C96 C98 1.285 . S
C96 H116 0.929 . S
C97 C94 1.461 . S
C97 C96 1.474 . S
C98 C93 1.342 . S
C98 C96 1.285 . S
C98 H117 0.930 . S
C99 C102 1.424 1_455 S
C99 C104 1.245 . S
C99 C105 1.428 . S
C100 C103 1.260 . S
C100 C104 1.477 . S
C100 H118 0.932 . S
C101 C102 1.384 . S
C101 C103 1.479 1_655 S
C101 H119 0.929 . S
C102 C99 1.424 1_655 S
C102 C101 1.384 . S
C102 H120 0.928 . S
C103 C100 1.260 . S
C103 C101 1.479 1_455 S
C104 C99 1.245 . S
C104 C100 1.477 . S
C104 H121 0.932 . S
C105 U88 2.882 . S
C105 C99 1.428 . S
C105 O108 1.301 . S
C105 O109 1.282 . S
O106 U88 2.441 1_655 S
O106 C92 1.249 . S
O107 U88 2.420 1_655 S
O107 C92 1.202 . S
O108 U88 2.455 . S
O108 C105 1.301 . S
O109 U88 2.449 . S
O109 C105 1.282 . S
H110 C83 0.931 . S
H111 C85 0.929 . S
H112 C86 0.930 . S
H113 C87 0.931 . S
H114 C94 0.932 . S
H115 C95 0.930 . S
H116 C96 0.929 . S
H117 C98 0.930 . S
H118 C100 0.932 . S
H119 C101 0.929 . S
H120 C102 0.928 . S
H121 C104 0.932 . S
C122 C123 1.264 . S
C122 C127 1.479 . S
C122 C132 1.465 . S
C123 C122 1.264 . S
C123 C125 1.339 . S
C123 H150 0.931 . S
C124 C125 1.395 . S
C124 C126 1.320 . S
C125 C123 1.339 . S
C125 C124 1.395 . S
C125 H151 0.929 . S
C126 C124 1.320 . S
C126 C127 1.405 . S
C126 H152 0.930 1_556 S
C127 C122 1.479 . S
C127 C126 1.405 . S
C127 H153 0.931 . S
U128 O129 2.454 . S
U128 O130 2.458 . S
U128 C131 2.984 . S
U128 C132 2.847 . S
U128 C145 2.882 . S
U128 O146 2.441 . S
U128 O147 2.420 . S
U128 O148 2.455 . S
U128 O149 2.449 . S
O129 U128 2.454 . S
O129 C131 1.353 . S
O130 U128 2.458 . S
O130 C131 1.286 . S
C131 U128 2.984 . S
C131 O129 1.353 . S
C131 O130 1.286 . S
C131 C133 1.363 . S
C132 C122 1.465 . S
C132 U128 2.847 . S
C132 O146 1.249 . S
C132 O147 1.202 . S
C133 C131 1.363 . S
C133 C135 1.408 . S
C133 C138 1.342 . S
C134 C135 1.310 . S
C134 C137 1.461 . S
C134 H154 0.932 1_556 S
C135 C133 1.408 . S
C135 C134 1.310 . S
C135 H155 0.930 . S
C136 C137 1.474 . S
C136 C138 1.285 . S
C136 H156 0.929 . S
C137 C134 1.461 . S
C137 C136 1.474 . S
C138 C133 1.342 . S
C138 C136 1.285 . S
C138 H157 0.930 . S
C139 C142 1.424 . S
C139 C144 1.245 . S
C139 C145 1.428 . S
C140 C143 1.260 . S
C140 C144 1.477 . S
C140 H158 0.932 . S
C141 C142 1.384 . S
C141 C143 1.479 . S
C141 H159 0.929 . S
C142 C139 1.424 . S
C142 C141 1.384 . S
C142 H160 0.928 . S
C143 C140 1.260 . S
C143 C141 1.479 . S
C144 C139 1.245 . S
C144 C140 1.477 . S
C144 H161 0.932 . S
C145 U128 2.882 . S
C145 C139 1.428 . S
C145 O148 1.301 . S
C145 O149 1.282 . S
O146 U128 2.441 . S
O146 C132 1.249 . S
O147 U128 2.420 . S
O147 C132 1.202 . S
O148 U128 2.455 . S
O148 C145 1.301 . S
O149 U128 2.449 . S
O149 C145 1.282 . S
H150 C123 0.931 . S
H151 C125 0.929 . S
H152 C126 0.930 1_554 S
H153 C127 0.931 . S
H154 C134 0.932 1_554 S
H155 C135 0.930 . S
H156 C136 0.929 . S
H157 C138 0.930 . S
H158 C140 0.932 . S
H159 C141 0.929 . S
H160 C142 0.928 . S
H161 C144 0.932 . S
C162 C163 1.264 . S
C162 C167 1.479 . S
C162 C172 1.465 . S
C163 C162 1.264 . S
C163 C165 1.339 . S
C163 H190 0.931 . S
C164 C165 1.395 . S
C164 C166 1.320 . S
C165 C163 1.339 . S
C165 C164 1.395 . S
C165 H191 0.929 . S
C166 C164 1.320 . S
C166 C167 1.405 . S
C166 H192 0.930 . S
C167 C162 1.479 . S
C167 C166 1.405 . S
C167 H193 0.931 . S
U168 O169 2.454 . S
U168 O170 2.458 . S
U168 C171 2.984 . S
U168 C172 2.847 . S
U168 C185 2.882 . S
U168 O186 2.441 . S
U168 O187 2.420 . S
U168 O188 2.455 . S
U168 O189 2.449 . S
O169 U168 2.454 . S
O169 C171 1.353 . S
O170 U168 2.458 . S
O170 C171 1.286 . S
C171 U168 2.984 . S
C171 O169 1.353 . S
C171 O170 1.286 . S
C171 C173 1.363 . S
C172 C162 1.465 . S
C172 U168 2.847 . S
C172 O186 1.249 . S
C172 O187 1.202 . S
C173 C171 1.363 . S
C173 C175 1.408 . S
C173 C178 1.342 . S
C174 C175 1.310 . S
C174 C177 1.461 . S
C174 H194 0.932 . S
C175 C173 1.408 . S
C175 C174 1.310 . S
C175 H195 0.930 . S
C176 C177 1.474 . S
C176 C178 1.285 . S
C176 H196 0.929 . S
C177 C174 1.461 . S
C177 C176 1.474 . S
C178 C173 1.342 . S
C178 C176 1.285 . S
C178 H197 0.930 . S
C179 C182 1.424 . S
C179 C184 1.245 . S
C179 C185 1.428 . S
C180 C183 1.260 . S
C180 C184 1.477 . S
C180 H198 0.932 . S
C181 C182 1.384 . S
C181 C183 1.479 . S
C181 H199 0.929 . S
C182 C179 1.424 . S
C182 C181 1.384 . S
C182 H200 0.928 . S
C183 C180 1.260 . S
C183 C181 1.479 . S
C184 C179 1.245 . S
C184 C180 1.477 . S
C184 H201 0.932 . S
C185 U168 2.882 . S
C185 C179 1.428 . S
C185 O188 1.301 . S
C185 O189 1.282 . S
O186 U168 2.441 . S
O186 C172 1.249 . S
O187 U168 2.420 . S
O187 C172 1.202 . S
O188 U168 2.455 . S
O188 C185 1.301 . S
O189 U168 2.449 . S
O189 C185 1.282 . S
H190 C163 0.931 . S
H191 C165 0.929 . S
H192 C166 0.930 . S
H193 C167 0.931 . S
H194 C174 0.932 . S
H195 C175 0.930 . S
H196 C176 0.929 . S
H197 C178 0.930 . S
H198 C180 0.932 . S
H199 C181 0.929 . S
H200 C182 0.928 . S
H201 C184 0.932 . S
H202 C220 0.951 . S
H203 C222 0.951 . S
H204 C224 0.950 . S
H205 C225 0.934 1_556 S
H206 C227 0.953 1_556 S
H207 C230 0.950 . S
H208 C231 0.950 . S
H209 C233 0.950 . S
H210 C234 0.950 . S
H211 C235 0.951 . S
H212 C237 0.951 . S
H213 C239 0.950 . S
H214 C240 0.950 . S
H215 C242 0.950 . S
H216 C245 0.950 . S
H217 C246 0.950 . S
H218 C248 0.950 . S
H219 C249 0.950 . S
C220 H202 0.951 . S
C220 C221 1.366 . S
C220 C222 1.388 . S
C221 C220 1.366 . S
C221 C225 1.385 . S
C222 H203 0.951 . S
C222 C220 1.388 . S
C222 C223 1.366 . S
C223 C222 1.366 . S
C223 C224 1.414 . S
C223 C226 1.499 . S
C224 H204 0.950 . S
C224 C223 1.414 . S
C224 C225 1.374 . S
C225 H205 0.934 1_554 S
C225 C221 1.385 . S
C225 C224 1.374 . S
C226 C223 1.499 . S
C226 C227 1.370 . S
C226 C228 1.389 . S
C227 H206 0.953 1_554 S
C227 C226 1.370 . S
C227 C243 1.377 . S
C228 C226 1.389 . S
C228 C229 1.524 . S
C228 C242 1.377 . S
C229 C228 1.524 . S
C229 C230 1.397 . S
C229 C234 1.363 . S
C230 H207 0.950 . S
C230 C229 1.397 . S
C230 C231 1.334 . S
C231 H208 0.950 . S
C231 C230 1.334 . S
C231 C232 1.287 . S
C232 C231 1.287 . S
C232 C233 1.524 . S
C232 H251 0.913 . S
C233 H209 0.950 . S
C233 C232 1.524 . S
C233 C234 1.415 . S
C234 H210 0.950 . S
C234 C229 1.363 . S
C234 C233 1.415 . S
C235 H211 0.951 . S
C235 C236 1.366 . S
C235 C237 1.388 . S
C236 C235 1.366 . S
C236 C240 1.385 . S
C237 H212 0.951 . S
C237 C235 1.388 . S
C237 C238 1.366 . S
C238 C237 1.366 . S
C238 C239 1.414 . S
C238 C241 1.499 . S
C239 H213 0.950 . S
C239 C238 1.414 . S
C239 C240 1.374 . S
C240 H214 0.950 . S
C240 C236 1.385 . S
C240 C239 1.374 . S
C241 C238 1.499 . S
C241 C242 1.373 . S
C241 C243 1.389 . S
C242 H215 0.950 . S
C242 C228 1.377 . S
C242 C241 1.373 . S
C243 C227 1.377 . S
C243 C241 1.389 . S
C243 C244 1.524 1_554 S
C244 C243 1.524 1_556 S
C244 C245 1.397 . S
C244 C249 1.363 . S
C245 H216 0.950 . S
C245 C244 1.397 . S
C245 C246 1.334 . S
C246 H217 0.950 . S
C246 C245 1.334 . S
C246 C247 1.287 . S
C247 C246 1.287 . S
C247 C248 1.524 . S
C247 H250 0.999 . S
C248 H218 0.950 . S
C248 C247 1.524 . S
C248 C249 1.415 . S
C249 H219 0.950 . S
C249 C244 1.363 . S
C249 C248 1.415 . S
H250 C247 0.999 . S
H251 C232 0.913 . S
H252 C270 0.951 . S
H253 C272 0.951 . S
H254 C274 0.950 . S
H255 C275 0.950 . S
H256 C277 0.950 . S
H257 C280 0.950 . S
H258 C281 0.950 . S
H259 C283 0.950 . S
H260 C284 0.950 . S
H261 C285 0.937 1_554 S
H262 C287 0.951 . S
H263 C289 0.950 . S
H264 C290 0.950 . S
H265 C292 0.950 . S
H266 C295 0.950 . S
H267 C296 0.950 . S
H268 C298 0.950 . S
H269 C299 0.950 . S
C270 H252 0.951 . S
C270 C271 1.366 1_556 S
C270 C272 1.388 . S
C271 C270 1.366 1_554 S
C271 C275 1.385 . S
C272 H253 0.951 . S
C272 C270 1.388 . S
C272 C273 1.346 1_556 S
C273 C272 1.346 1_554 S
C273 C274 1.436 . S
C273 C276 1.501 1_554 S
C274 H254 0.950 . S
C274 C273 1.436 . S
C274 C275 1.374 . S
C275 H255 0.950 . S
C275 C271 1.385 . S
C275 C274 1.374 . S
C276 C273 1.501 1_556 S
C276 C277 1.373 1_556 S
C276 C278 1.389 . S
C277 H256 0.950 . S
C277 C276 1.373 1_554 S
C277 C293 1.377 . S
C278 C276 1.389 . S
C278 C279 1.524 . S
C278 C292 1.377 . S
C279 C278 1.524 . S
C279 C280 1.397 . S
C279 C284 1.363 . S
C280 H257 0.950 . S
C280 C279 1.397 . S
C280 C281 1.334 . S
C281 H258 0.950 . S
C281 C280 1.334 . S
C281 C282 1.287 . S
C282 C281 1.287 . S
C282 C283 1.524 . S
C282 H301 0.913 . S
C283 H259 0.950 . S
C283 C282 1.524 . S
C283 C284 1.415 . S
C284 H260 0.950 . S
C284 C279 1.363 . S
C284 C283 1.415 . S
C285 H261 0.937 1_556 S
C285 C286 1.381 . S
C285 C287 1.388 1_556 S
C286 C285 1.381 . S
C286 C290 1.385 . S
C287 H262 0.951 . S
C287 C285 1.388 1_554 S
C287 C288 1.366 1_554 S
C288 C287 1.366 1_556 S
C288 C289 1.414 . S
C288 C291 1.499 . S
C289 H263 0.950 . S
C289 C288 1.414 . S
C289 C290 1.374 . S
C290 H264 0.950 . S
C290 C286 1.385 . S
C290 C289 1.374 . S
C291 C288 1.499 . S
C291 C292 1.373 . S
C291 C293 1.389 1_556 S
C292 H265 0.950 . S
C292 C278 1.377 . S
C292 C291 1.373 . S
C293 C277 1.377 . S
C293 C291 1.389 1_554 S
C293 C294 1.524 . S
C294 C293 1.524 . S
C294 C295 1.397 . S
C294 C299 1.363 . S
C295 H266 0.950 . S
C295 C294 1.397 . S
C295 C296 1.334 . S
C296 H267 0.950 . S
C296 C295 1.334 . S
C296 C297 1.287 . S
C297 C296 1.287 . S
C297 C298 1.524 . S
C297 H300 0.999 . S
C298 H268 0.950 . S
C298 C297 1.524 . S
C298 C299 1.415 . S
C299 H269 0.950 . S
C299 C294 1.363 . S
C299 C298 1.415 . S
H300 C297 0.999 . S
H301 C282 0.913 . S
H302 C320 0.951 . S
H303 C322 0.951 . S
H304 C324 0.950 . S
H305 C325 0.950 . S
H306 C327 0.950 . S
H307 C330 0.950 . S
H308 C331 0.950 . S
H309 C333 0.950 . S
H310 C334 0.950 . S
H311 C335 0.951 . S
H312 C337 0.951 . S
H313 C339 0.950 . S
H314 C340 0.950 . S
H315 C342 0.950 . S
H316 C345 0.950 . S
H317 C346 0.950 . S
H318 C348 0.950 . S
H319 C349 0.950 . S
C320 H302 0.951 . S
C320 C321 1.366 . S
C320 C322 1.388 . S
C321 C320 1.366 . S
C321 C325 1.385 . S
C322 H303 0.951 . S
C322 C320 1.388 . S
C322 C323 1.366 . S
C323 C322 1.366 . S
C323 C324 1.414 . S
C323 C326 1.499 . S
C324 H304 0.950 . S
C324 C323 1.414 . S
C324 C325 1.374 . S
C325 H305 0.950 . S
C325 C321 1.385 . S
C325 C324 1.374 . S
C326 C323 1.499 . S
C326 C327 1.373 . S
C326 C328 1.389 . S
C327 H306 0.950 . S
C327 C326 1.373 . S
C327 C343 1.377 . S
C328 C326 1.389 . S
C328 C329 1.524 1_554 S
C328 C342 1.377 . S
C329 C328 1.524 1_556 S
C329 C330 1.397 . S
C329 C334 1.363 . S
C330 H307 0.950 . S
C330 C329 1.397 . S
C330 C331 1.334 . S
C331 H308 0.950 . S
C331 C330 1.334 . S
C331 C332 1.287 . S
C332 C331 1.287 . S
C332 C333 1.524 . S
C332 H351 0.913 . S
C333 H309 0.950 . S
C333 C332 1.524 . S
C333 C334 1.415 . S
C334 H310 0.950 . S
C334 C329 1.363 . S
C334 C333 1.415 . S
C335 H311 0.951 . S
C335 C336 1.366 . S
C335 C337 1.388 . S
C336 C335 1.366 . S
C336 C340 1.385 . S
C337 H312 0.951 . S
C337 C335 1.388 . S
C337 C338 1.366 . S
C338 C337 1.366 . S
C338 C339 1.414 . S
C338 C341 1.499 . S
C339 H313 0.950 . S
C339 C338 1.414 . S
C339 C340 1.374 . S
C340 H314 0.950 . S
C340 C336 1.385 . S
C340 C339 1.374 . S
C341 C338 1.499 . S
C341 C342 1.373 . S
C341 C343 1.389 . S
C342 H315 0.950 . S
C342 C328 1.377 . S
C342 C341 1.373 . S
C343 C327 1.377 . S
C343 C341 1.389 . S
C343 C344 1.524 . S
C344 C343 1.524 . S
C344 C345 1.397 . S
C344 C349 1.363 . S
C345 H316 0.950 . S
C345 C344 1.397 . S
C345 C346 1.334 . S
C346 H317 0.950 . S
C346 C345 1.334 . S
C346 C347 1.287 . S
C347 C346 1.287 . S
C347 C348 1.524 . S
C347 H350 0.999 . S
C348 H318 0.950 . S
C348 C347 1.524 . S
C348 C349 1.415 . S
C349 H319 0.950 . S
C349 C344 1.363 . S
C349 C348 1.415 . S
H350 C347 0.999 . S
H351 C332 0.913 . S
H352 C370 0.951 1_455 S
H353 C372 0.942 . S
H354 C374 0.950 . S
H355 C375 0.950 . S
H356 C377 0.950 . S
H357 C380 0.950 . S
H358 C381 0.950 . S
H359 C383 0.950 . S
H360 C384 0.950 . S
H361 C385 0.951 . S
H362 C387 0.951 . S
H363 C389 0.950 . S
H364 C390 0.950 . S
H365 C392 0.950 . S
H366 C395 0.950 . S
H367 C396 0.950 . S
H368 C398 0.950 . S
H369 C399 0.950 . S
C370 H352 0.951 1_655 S
C370 C371 1.366 . S
C370 C372 1.388 1_554 S
C371 C370 1.366 . S
C371 C375 1.385 . S
C372 H353 0.942 . S
C372 C370 1.388 1_556 S
C372 C373 1.366 . S
C373 C372 1.366 . S
C373 C374 1.407 . S
C373 C376 1.509 . S
C374 H354 0.950 . S
C374 C373 1.407 . S
C374 C375 1.374 1_556 S
C375 H355 0.950 . S
C375 C371 1.385 . S
C375 C374 1.374 1_554 S
C376 C373 1.509 . S
C376 C377 1.373 . S
C376 C378 1.389 1_556 S
C377 H356 0.950 . S
C377 C376 1.373 . S
C377 C393 1.377 . S
C378 C376 1.389 1_554 S
C378 C379 1.524 . S
C378 C392 1.377 . S
C379 C378 1.524 . S
C379 C380 1.397 . S
C379 C384 1.363 . S
C380 H357 0.950 . S
C380 C379 1.397 . S
C380 C381 1.334 . S
C381 H358 0.950 . S
C381 C380 1.334 . S
C381 C382 1.287 . S
C382 C381 1.287 . S
C382 C383 1.524 . S
C382 H401 0.913 . S
C383 H359 0.950 . S
C383 C382 1.524 . S
C383 C384 1.415 . S
C384 H360 0.950 . S
C384 C379 1.363 . S
C384 C383 1.415 . S
C385 H361 0.951 . S
C385 C386 1.366 . S
C385 C387 1.388 . S
C386 C385 1.366 . S
C386 C390 1.385 . S
C387 H362 0.951 . S
C387 C385 1.388 . S
C387 C388 1.366 . S
C388 C387 1.366 . S
C388 C389 1.414 . S
C388 C391 1.499 . S
C389 H363 0.950 . S
C389 C388 1.414 . S
C389 C390 1.374 . S
C390 H364 0.950 . S
C390 C386 1.385 . S
C390 C389 1.374 . S
C391 C388 1.499 . S
C391 C392 1.373 1_556 S
C391 C393 1.389 . S
C392 H365 0.950 . S
C392 C378 1.377 . S
C392 C391 1.373 1_554 S
C393 C377 1.377 . S
C393 C391 1.389 . S
C393 C394 1.524 . S
C394 C393 1.524 . S
C394 C395 1.397 . S
C394 C399 1.363 . S
C395 H366 0.950 . S
C395 C394 1.397 . S
C395 C396 1.334 . S
C396 H367 0.950 . S
C396 C395 1.334 . S
C396 C397 1.287 . S
C397 C396 1.287 . S
C397 C398 1.524 . S
C397 H400 0.999 . S
C398 H368 0.950 . S
C398 C397 1.524 . S
C398 C399 1.415 . S
C399 H369 0.950 . S
C399 C394 1.363 . S
C399 C398 1.415 . S
H400 C397 0.999 . S
H401 C382 0.913 . S
H402 C420 0.951 . S
H403 C422 0.951 . S
H404 C424 0.950 . S
H405 C425 0.950 . S
H406 C427 0.950 . S
H407 C430 0.950 . S
H408 C431 0.950 . S
H409 C433 0.950 . S
H410 C434 0.950 . S
H411 C435 0.951 . S
H412 C437 0.951 . S
H413 C439 0.950 . S
H414 C440 0.950 . S
H415 C442 0.950 . S
H416 C445 0.950 . S
H417 C446 0.950 . S
H418 C448 0.950 . S
H419 C449 0.950 . S
C420 H402 0.951 . S
C420 C421 1.366 . S
C420 C422 1.388 . S
C421 C420 1.366 . S
C421 C425 1.385 . S
C422 H403 0.951 . S
C422 C420 1.388 . S
C422 C423 1.366 . S
C423 C422 1.366 . S
C423 C424 1.414 . S
C423 C426 1.499 . S
C424 H404 0.950 . S
C424 C423 1.414 . S
C424 C425 1.374 . S
C425 H405 0.950 . S
C425 C421 1.385 . S
C425 C424 1.374 . S
C426 C423 1.499 . S
C426 C427 1.373 . S
C426 C428 1.389 . S
C427 H406 0.950 . S
C427 C426 1.373 . S
C427 C443 1.377 . S
C428 C426 1.389 . S
C428 C429 1.524 . S
C428 C442 1.377 . S
C429 C428 1.524 . S
C429 C430 1.397 . S
C429 C434 1.363 . S
C430 H407 0.950 . S
C430 C429 1.397 . S
C430 C431 1.334 . S
C431 H408 0.950 . S
C431 C430 1.334 . S
C431 C432 1.287 . S
C432 C431 1.287 . S
C432 C433 1.524 . S
C432 H451 0.913 . S
C433 H409 0.950 . S
C433 C432 1.524 . S
C433 C434 1.415 . S
C434 H410 0.950 . S
C434 C429 1.363 . S
C434 C433 1.415 . S
C435 H411 0.951 . S
C435 C436 1.366 . S
C435 C437 1.388 . S
C436 C435 1.366 . S
C436 C440 1.385 . S
C437 H412 0.951 . S
C437 C435 1.388 . S
C437 C438 1.366 . S
C438 C437 1.366 . S
C438 C439 1.414 . S
C438 C441 1.499 . S
C439 H413 0.950 . S
C439 C438 1.414 . S
C439 C440 1.374 . S
C440 H414 0.950 . S
C440 C436 1.385 . S
C440 C439 1.374 . S
C441 C438 1.499 . S
C441 C442 1.373 . S
C441 C443 1.389 . S
C442 H415 0.950 . S
C442 C428 1.377 . S
C442 C441 1.373 . S
C443 C427 1.377 . S
C443 C441 1.389 . S
C443 C444 1.524 . S
C444 C443 1.524 . S
C444 C445 1.397 . S
C444 C449 1.363 . S
C445 H416 0.950 . S
C445 C444 1.397 . S
C445 C446 1.334 . S
C446 H417 0.950 . S
C446 C445 1.334 . S
C446 C447 1.287 . S
C447 C446 1.287 . S
C447 C448 1.524 . S
C447 H450 0.999 . S
C448 H418 0.950 . S
C448 C447 1.524 . S
C448 C449 1.415 . S
C449 H419 0.950 . S
C449 C444 1.363 . S
C449 C448 1.415 . S
H450 C447 0.999 . S
H451 C432 0.913 . S
H452 C470 0.951 . S
H453 C472 0.951 . S
H454 C474 0.950 . S
H455 C475 0.950 . S
H456 C477 0.950 . S
H457 C480 0.950 . S
H458 C481 0.950 . S
H459 C483 0.950 . S
H460 C484 0.950 . S
H461 C485 0.951 . S
H462 C487 0.951 . S
H463 C489 0.950 . S
H464 C490 0.950 . S
H465 C492 0.950 . S
H466 C495 0.950 . S
H467 C496 0.950 . S
H468 C498 0.950 . S
H469 C499 0.950 . S
C470 H452 0.951 . S
C470 C471 1.366 . S
C470 C472 1.388 . S
C471 C470 1.366 . S
C471 C475 1.385 . S
C472 H453 0.951 . S
C472 C470 1.388 . S
C472 C473 1.366 . S
C473 C472 1.366 . S
C473 C474 1.414 . S
C473 C476 1.499 . S
C474 H454 0.950 . S
C474 C473 1.414 . S
C474 C475 1.374 . S
C475 H455 0.950 . S
C475 C471 1.385 . S
C475 C474 1.374 . S
C476 C473 1.499 . S
C476 C477 1.373 . S
C476 C478 1.389 . S
C477 H456 0.950 . S
C477 C476 1.373 . S
C477 C493 1.377 . S
C478 C476 1.389 . S
C478 C479 1.524 . S
C478 C492 1.377 . S
C479 C478 1.524 . S
C479 C480 1.397 . S
C479 C484 1.363 . S
C480 H457 0.950 . S
C480 C479 1.397 . S
C480 C481 1.334 . S
C481 H458 0.950 . S
C481 C480 1.334 . S
C481 C482 1.287 . S
C482 C481 1.287 . S
C482 C483 1.524 . S
C482 H501 0.913 . S
C483 H459 0.950 . S
C483 C482 1.524 . S
C483 C484 1.415 . S
C484 H460 0.950 . S
C484 C479 1.363 . S
C484 C483 1.415 . S
C485 H461 0.951 . S
C485 C486 1.366 . S
C485 C487 1.388 . S
C486 C485 1.366 . S
C486 C490 1.385 . S
C487 H462 0.951 . S
C487 C485 1.388 . S
C487 C488 1.366 . S
C488 C487 1.366 . S
C488 C489 1.414 . S
C488 C491 1.499 . S
C489 H463 0.950 . S
C489 C488 1.414 . S
C489 C490 1.374 . S
C490 H464 0.950 . S
C490 C486 1.385 . S
C490 C489 1.374 . S
C491 C488 1.499 . S
C491 C492 1.373 . S
C491 C493 1.389 . S
C492 H465 0.950 . S
C492 C478 1.377 . S
C492 C491 1.373 . S
C493 C477 1.377 . S
C493 C491 1.389 . S
C493 C494 1.524 . S
C494 C493 1.524 . S
C494 C495 1.397 . S
C494 C499 1.363 . S
C495 H466 0.950 . S
C495 C494 1.397 . S
C495 C496 1.334 . S
C496 H467 0.950 . S
C496 C495 1.334 . S
C496 C497 1.287 . S
C497 C496 1.287 . S
C497 C498 1.524 . S
C497 H500 0.999 . S
C498 H468 0.950 . S
C498 C497 1.524 . S
C498 C499 1.415 . S
C499 H469 0.950 . S
C499 C494 1.363 . S
C499 C498 1.415 . S
H500 C497 0.999 . S
H501 C482 0.913 . S
H502 C520 0.951 . S
H503 C522 0.951 . S
H504 C524 0.950 . S
H505 C525 0.950 . S
H506 C527 0.950 . S
H507 C530 0.950 . S
H508 C531 0.950 . S
H509 C533 0.950 . S
H510 C534 0.950 . S
H511 C535 0.951 . S
H512 C537 0.951 . S
H513 C539 0.950 . S
H514 C540 0.950 . S
H515 C542 0.950 . S
H516 C545 0.950 . S
H517 C546 0.950 . S
H518 C548 0.950 . S
H519 C549 0.950 . S
C520 H502 0.951 . S
C520 C521 1.366 . S
C520 C522 1.388 . S
C521 C520 1.366 . S
C521 C525 1.385 . S
C522 H503 0.951 . S
C522 C520 1.388 . S
C522 C523 1.366 . S
C523 C522 1.366 . S
C523 C524 1.414 . S
C523 C526 1.499 . S
C524 H504 0.950 . S
C524 C523 1.414 . S
C524 C525 1.374 . S
C525 H505 0.950 . S
C525 C521 1.385 . S
C525 C524 1.374 . S
C526 C523 1.499 . S
C526 C527 1.373 . S
C526 C528 1.389 . S
C527 H506 0.950 . S
C527 C526 1.373 . S
C527 C543 1.377 . S
C528 C526 1.389 . S
C528 C529 1.524 . S
C528 C542 1.377 . S
C529 C528 1.524 . S
C529 C530 1.397 . S
C529 C534 1.363 . S
C530 H507 0.950 . S
C530 C529 1.397 . S
C530 C531 1.334 . S
C531 H508 0.950 . S
C531 C530 1.334 . S
C531 C532 1.287 . S
C532 C531 1.287 . S
C532 C533 1.524 . S
C532 H551 0.913 . S
C533 H509 0.950 . S
C533 C532 1.524 . S
C533 C534 1.415 . S
C534 H510 0.950 . S
C534 C529 1.363 . S
C534 C533 1.415 . S
C535 H511 0.951 . S
C535 C536 1.366 . S
C535 C537 1.388 . S
C536 C535 1.366 . S
C536 C540 1.385 . S
C537 H512 0.951 . S
C537 C535 1.388 . S
C537 C538 1.366 . S
C538 C537 1.366 . S
C538 C539 1.414 . S
C538 C541 1.499 . S
C539 H513 0.950 . S
C539 C538 1.414 . S
C539 C540 1.374 . S
C540 H514 0.950 . S
C540 C536 1.385 . S
C540 C539 1.374 . S
C541 C538 1.499 . S
C541 C542 1.373 . S
C541 C543 1.389 . S
C542 H515 0.950 . S
C542 C528 1.377 . S
C542 C541 1.373 . S
C543 C527 1.377 . S
C543 C541 1.389 . S
C543 C544 1.524 . S
C544 C543 1.524 . S
C544 C545 1.397 . S
C544 C549 1.363 . S
C545 H516 0.950 . S
C545 C544 1.397 . S
C545 C546 1.334 . S
C546 H517 0.950 . S
C546 C545 1.334 . S
C546 C547 1.287 . S
C547 C546 1.287 . S
C547 C548 1.524 . S
C547 H550 0.999 . S
C548 H518 0.950 . S
C548 C547 1.524 . S
C548 C549 1.415 . S
C549 H519 0.950 . S
C549 C544 1.363 . S
C549 C548 1.415 . S
H550 C547 0.999 . S
H551 C532 0.913 . S
H552 C570 0.951 . S
H553 C572 0.951 . S
H554 C574 0.950 . S
H555 C575 0.950 . S
H556 C577 0.950 . S
H557 C580 0.950 . S
H558 C581 0.950 . S
H559 C583 0.950 . S
H560 C584 0.950 . S
H561 C585 0.951 . S
H562 C587 0.951 . S
H563 C589 0.950 . S
H564 C590 0.950 . S
H565 C592 0.950 . S
H566 C595 0.950 . S
H567 C596 0.950 . S
H568 C598 0.950 . S
H569 C599 0.950 . S
C570 H552 0.951 . S
C570 C571 1.366 . S
C570 C572 1.388 . S
C571 C570 1.366 . S
C571 C575 1.385 . S
C572 H553 0.951 . S
C572 C570 1.388 . S
C572 C573 1.366 . S
C573 C572 1.366 . S
C573 C574 1.414 . S
C573 C576 1.499 . S
C574 H554 0.950 . S
C574 C573 1.414 . S
C574 C575 1.374 . S
C575 H555 0.950 . S
C575 C571 1.385 . S
C575 C574 1.374 . S
C576 C573 1.499 . S
C576 C577 1.373 . S
C576 C578 1.389 . S
C577 H556 0.950 . S
C577 C576 1.373 . S
C577 C593 1.377 . S
C578 C576 1.389 . S
C578 C579 1.524 . S
C578 C592 1.377 . S
C579 C578 1.524 . S
C579 C580 1.397 . S
C579 C584 1.363 . S
C580 H557 0.950 . S
C580 C579 1.397 . S
C580 C581 1.334 . S
C581 H558 0.950 . S
C581 C580 1.334 . S
C581 C582 1.287 . S
C582 C581 1.287 . S
C582 C583 1.524 . S
C582 H601 0.913 . S
C583 H559 0.950 . S
C583 C582 1.524 . S
C583 C584 1.415 . S
C584 H560 0.950 . S
C584 C579 1.363 . S
C584 C583 1.415 . S
C585 H561 0.951 . S
C585 C586 1.366 . S
C585 C587 1.388 . S
C586 C585 1.366 . S
C586 C590 1.385 . S
C587 H562 0.951 . S
C587 C585 1.388 . S
C587 C588 1.366 . S
C588 C587 1.366 . S
C588 C589 1.414 . S
C588 C591 1.499 . S
C589 H563 0.950 . S
C589 C588 1.414 . S
C589 C590 1.374 . S
C590 H564 0.950 . S
C590 C586 1.385 . S
C590 C589 1.374 . S
C591 C588 1.499 . S
C591 C592 1.373 . S
C591 C593 1.389 . S
C592 H565 0.950 . S
C592 C578 1.377 . S
C592 C591 1.373 . S
C593 C577 1.377 . S
C593 C591 1.389 . S
C593 C594 1.524 . S
C594 C593 1.524 . S
C594 C595 1.397 . S
C594 C599 1.363 . S
C595 H566 0.950 . S
C595 C594 1.397 . S
C595 C596 1.334 . S
C596 H567 0.950 . S
C596 C595 1.334 . S
C596 C597 1.287 . S
C597 C596 1.287 . S
C597 C598 1.524 . S
C597 H600 0.999 . S
C598 H568 0.950 . S
C598 C597 1.524 . S
C598 C599 1.415 . S
C599 H569 0.950 . S
C599 C594 1.363 . S
C599 C598 1.415 . S
H600 C597 0.999 . S
H601 C582 0.913 . S
H602 C620 0.951 . S
H603 C622 0.951 . S
H604 C624 0.950 1_655 S
H605 C625 0.950 1_655 S
H606 C627 0.950 1_655 S
H607 C630 0.950 . S
H608 C631 0.950 . S
H609 C633 0.950 . S
H610 C634 0.950 1_545 S
H611 C635 0.951 1_655 S
H612 C637 0.951 1_655 S
H613 C639 0.950 . S
H614 C640 0.950 . S
H615 C642 0.950 . S
H616 C645 0.950 1_455 S
H617 C646 0.950 . S
H618 C648 0.950 . S
H619 C649 0.950 . S
C620 H602 0.951 . S
C620 C621 1.366 . S
C620 C622 1.388 . S
C621 C620 1.366 . S
C621 C625 1.385 1_545 S
C622 H603 0.951 . S
C622 C620 1.388 . S
C622 C623 1.366 . S
C623 C622 1.366 . S
C623 C624 1.414 1_545 S
C623 C626 1.499 . S
C624 H604 0.950 1_455 S
C624 C623 1.414 1_565 S
C624 C625 1.374 . S
C625 H605 0.950 1_455 S
C625 C621 1.385 1_565 S
C625 C624 1.374 . S
C626 C623 1.499 . S
C626 C627 1.373 . S
C626 C628 1.389 1_545 S
C627 H606 0.950 1_455 S
C627 C626 1.373 . S
C627 C643 1.377 . S
C628 C626 1.389 1_565 S
C628 C629 1.524 . S
C628 C642 1.377 . S
C629 C628 1.524 . S
C629 C630 1.397 . S
C629 C634 1.363 . S
C630 H607 0.950 . S
C630 C629 1.397 . S
C630 C631 1.334 . S
C631 H608 0.950 . S
C631 C630 1.334 . S
C631 C632 1.287 . S
C632 C631 1.287 . S
C632 C633 1.524 . S
C632 H651 0.913 . S
C633 H609 0.950 . S
C633 C632 1.524 . S
C633 C634 1.415 . S
C634 H610 0.950 1_565 S
C634 C629 1.363 . S
C634 C633 1.415 . S
C635 H611 0.951 1_455 S
C635 C636 1.366 . S
C635 C637 1.388 . S
C636 C635 1.366 . S
C636 C640 1.385 1_565 S
C637 H612 0.951 1_455 S
C637 C635 1.388 . S
C637 C638 1.366 1_565 S
C638 C637 1.366 1_545 S
C638 C639 1.414 . S
C638 C641 1.499 . S
C639 H613 0.950 . S
C639 C638 1.414 . S
C639 C640 1.374 . S
C640 H614 0.950 . S
C640 C636 1.385 1_545 S
C640 C639 1.374 . S
C641 C638 1.499 . S
C641 C642 1.373 1_545 S
C641 C643 1.389 . S
C642 H615 0.950 . S
C642 C628 1.377 . S
C642 C641 1.373 1_565 S
C643 C627 1.377 . S
C643 C641 1.389 . S
C643 C644 1.524 1_455 S
C644 C643 1.524 1_655 S
C644 C645 1.397 . S
C644 C649 1.363 . S
C645 H616 0.950 1_655 S
C645 C644 1.397 . S
C645 C646 1.334 . S
C646 H617 0.950 . S
C646 C645 1.334 . S
C646 C647 1.287 . S
C647 C646 1.287 . S
C647 C648 1.524 . S
C647 H650 0.999 . S
C648 H618 0.950 . S
C648 C647 1.524 . S
C648 C649 1.415 . S
C649 H619 0.950 . S
C649 C644 1.363 . S
C649 C648 1.415 . S
H650 C647 0.999 . S
H651 C632 0.913 . S
H652 C670 0.951 1_565 S
H653 C672 0.951 . S
H654 C674 0.957 . S
H655 C675 0.950 . S
H656 C677 0.950 . S
H657 C680 0.950 . S
H658 C681 0.950 . S
H659 C683 0.950 . S
H660 C684 0.950 . S
H661 C685 0.951 . S
H662 C687 0.951 . S
H663 C689 0.950 . S
H664 C690 0.950 . S
H665 C692 0.950 . S
H666 C695 0.950 . S
H667 C696 0.950 . S
H668 C698 0.950 . S
H669 C699 0.950 . S
C670 H652 0.951 1_545 S
C670 C671 1.366 . S
C670 C672 1.388 . S
C671 C670 1.366 . S
C671 C675 1.385 . S
C672 H653 0.951 . S
C672 C670 1.388 . S
C672 C673 1.366 . S
C673 C672 1.366 . S
C673 C674 1.414 . S
C673 C676 1.499 . S
C674 H654 0.957 . S
C674 C673 1.414 . S
C674 C675 1.374 . S
C675 H655 0.950 . S
C675 C671 1.385 . S
C675 C674 1.374 . S
C676 C673 1.499 . S
C676 C677 1.373 1_455 S
C676 C678 1.389 . S
C677 H656 0.950 . S
C677 C676 1.373 1_655 S
C677 C693 1.377 . S
C678 C676 1.389 . S
C678 C679 1.524 . S
C678 C692 1.377 . S
C679 C678 1.524 . S
C679 C680 1.397 . S
C679 C684 1.363 . S
C680 H657 0.950 . S
C680 C679 1.397 . S
C680 C681 1.334 . S
C681 H658 0.950 . S
C681 C680 1.334 . S
C681 C682 1.287 . S
C682 C681 1.287 . S
C682 C683 1.524 . S
C682 H701 0.913 . S
C683 H659 0.950 . S
C683 C682 1.524 . S
C683 C684 1.415 . S
C684 H660 0.950 . S
C684 C679 1.363 . S
C684 C683 1.415 . S
C685 H661 0.951 . S
C685 C686 1.366 1_655 S
C685 C687 1.388 . S
C686 C685 1.366 1_455 S
C686 C690 1.385 . S
C687 H662 0.951 . S
C687 C685 1.388 . S
C687 C688 1.366 1_655 S
C688 C687 1.366 1_455 S
C688 C689 1.414 . S
C688 C691 1.499 . S
C689 H663 0.950 . S
C689 C688 1.414 . S
C689 C690 1.374 . S
C690 H664 0.950 . S
C690 C686 1.385 . S
C690 C689 1.374 . S
C691 C688 1.499 . S
C691 C692 1.373 . S
C691 C693 1.389 1_455 S
C692 H665 0.950 . S
C692 C678 1.377 . S
C692 C691 1.373 . S
C693 C677 1.377 . S
C693 C691 1.389 1_655 S
C693 C694 1.524 . S
C694 C693 1.524 . S
C694 C695 1.397 . S
C694 C699 1.363 . S
C695 H666 0.950 . S
C695 C694 1.397 . S
C695 C696 1.334 . S
C696 H667 0.950 . S
C696 C695 1.334 . S
C696 C697 1.287 . S
C697 C696 1.287 . S
C697 C698 1.524 . S
C697 H700 0.999 . S
C698 H668 0.950 . S
C698 C697 1.524 . S
C698 C699 1.415 . S
C699 H669 0.950 . S
C699 C694 1.363 . S
C699 C698 1.415 . S
H700 C697 0.999 . S
H701 C682 0.913 . S
H702 C720 0.951 . S
H703 C722 0.951 . S
H704 C724 0.950 . S
H705 C725 0.950 . S
H706 C727 0.950 . S
H707 C730 0.950 . S
H708 C731 0.950 . S
H709 C733 0.950 . S
H710 C734 0.950 . S
H711 C735 0.951 . S
H712 C737 0.951 . S
H713 C739 0.950 . S
H714 C740 0.950 . S
H715 C742 0.950 . S
H716 C745 0.950 . S
H717 C746 0.950 . S
H718 C748 0.950 . S
H719 C749 0.950 . S
C720 H702 0.951 . S
C720 C721 1.366 . S
C720 C722 1.388 . S
C721 C720 1.366 . S
C721 C725 1.385 . S
C722 H703 0.951 . S
C722 C720 1.388 . S
C722 C723 1.366 . S
C723 C722 1.366 . S
C723 C724 1.414 . S
C723 C726 1.499 . S
C724 H704 0.950 . S
C724 C723 1.414 . S
C724 C725 1.374 . S
C725 H705 0.950 . S
C725 C721 1.385 . S
C725 C724 1.374 . S
C726 C723 1.499 . S
C726 C727 1.373 . S
C726 C728 1.389 . S
C727 H706 0.950 . S
C727 C726 1.373 . S
C727 C743 1.377 . S
C728 C726 1.389 . S
C728 C729 1.524 . S
C728 C742 1.377 . S
C729 C728 1.524 . S
C729 C730 1.397 . S
C729 C734 1.363 . S
C730 H707 0.950 . S
C730 C729 1.397 . S
C730 C731 1.334 . S
C731 H708 0.950 . S
C731 C730 1.334 . S
C731 C732 1.287 . S
C732 C731 1.287 . S
C732 C733 1.524 . S
C732 H751 0.913 . S
C733 H709 0.950 . S
C733 C732 1.524 . S
C733 C734 1.415 . S
C734 H710 0.950 . S
C734 C729 1.363 . S
C734 C733 1.415 . S
C735 H711 0.951 . S
C735 C736 1.366 . S
C735 C737 1.388 . S
C736 C735 1.366 . S
C736 C740 1.385 . S
C737 H712 0.951 . S
C737 C735 1.388 . S
C737 C738 1.366 . S
C738 C737 1.366 . S
C738 C739 1.414 . S
C738 C741 1.499 . S
C739 H713 0.950 . S
C739 C738 1.414 . S
C739 C740 1.374 . S
C740 H714 0.950 . S
C740 C736 1.385 . S
C740 C739 1.374 . S
C741 C738 1.499 . S
C741 C742 1.373 . S
C741 C743 1.389 . S
C742 H715 0.950 . S
C742 C728 1.377 . S
C742 C741 1.373 . S
C743 C727 1.377 . S
C743 C741 1.389 . S
C743 C744 1.524 . S
C744 C743 1.524 . S
C744 C745 1.397 . S
C744 C749 1.363 . S
C745 H716 0.950 . S
C745 C744 1.397 . S
C745 C746 1.334 . S
C746 H717 0.950 . S
C746 C745 1.334 . S
C746 C747 1.287 . S
C747 C746 1.287 . S
C747 C748 1.524 . S
C747 H750 0.999 . S
C748 H718 0.950 . S
C748 C747 1.524 . S
C748 C749 1.415 . S
C749 H719 0.950 . S
C749 C744 1.363 . S
C749 C748 1.415 . S
H750 C747 0.999 . S
H751 C732 0.913 . S
H752 C770 0.951 . S
H753 C772 0.951 . S
H754 C774 0.950 . S
H755 C775 0.950 . S
H756 C777 0.950 . S
H757 C780 0.950 . S
H758 C781 0.950 . S
H759 C783 0.950 . S
H760 C784 0.950 . S
H761 C785 0.951 . S
H762 C787 0.951 . S
H763 C789 0.950 . S
H764 C790 0.950 . S
H765 C792 0.950 . S
H766 C795 0.950 . S
H767 C796 0.950 . S
H768 C798 0.950 . S
H769 C799 0.950 . S
C770 H752 0.951 . S
C770 C771 1.366 . S
C770 C772 1.388 . S
C771 C770 1.366 . S
C771 C775 1.385 . S
C772 H753 0.951 . S
C772 C770 1.388 . S
C772 C773 1.366 . S
C773 C772 1.366 . S
C773 C774 1.414 . S
C773 C776 1.499 . S
C774 H754 0.950 . S
C774 C773 1.414 . S
C774 C775 1.374 . S
C775 H755 0.950 . S
C775 C771 1.385 . S
C775 C774 1.374 . S
C776 C773 1.499 . S
C776 C777 1.373 . S
C776 C778 1.389 . S
C777 H756 0.950 . S
C777 C776 1.373 . S
C777 C793 1.377 . S
C778 C776 1.389 . S
C778 C779 1.524 . S
C778 C792 1.377 . S
C779 C778 1.524 . S
C779 C780 1.397 . S
C779 C784 1.363 . S
C780 H757 0.950 . S
C780 C779 1.397 . S
C780 C781 1.334 . S
C781 H758 0.950 . S
C781 C780 1.334 . S
C781 C782 1.287 . S
C782 C781 1.287 . S
C782 C783 1.524 . S
C782 H801 0.913 . S
C783 H759 0.950 . S
C783 C782 1.524 . S
C783 C784 1.415 . S
C784 H760 0.950 . S
C784 C779 1.363 . S
C784 C783 1.415 . S
C785 H761 0.951 . S
C785 C786 1.366 . S
C785 C787 1.388 . S
C786 C785 1.366 . S
C786 C790 1.385 . S
C787 H762 0.951 . S
C787 C785 1.388 . S
C787 C788 1.366 . S
C788 C787 1.366 . S
C788 C789 1.414 . S
C788 C791 1.499 . S
C789 H763 0.950 . S
C789 C788 1.414 . S
C789 C790 1.374 . S
C790 H764 0.950 . S
C790 C786 1.385 . S
C790 C789 1.374 . S
C791 C788 1.499 . S
C791 C792 1.373 . S
C791 C793 1.389 . S
C792 H765 0.950 . S
C792 C778 1.377 . S
C792 C791 1.373 . S
C793 C777 1.377 . S
C793 C791 1.389 . S
C793 C794 1.524 . S
C794 C793 1.524 . S
C794 C795 1.397 . S
C794 C799 1.363 . S
C795 H766 0.950 . S
C795 C794 1.397 . S
C795 C796 1.334 . S
C796 H767 0.950 . S
C796 C795 1.334 . S
C796 C797 1.287 . S
C797 C796 1.287 . S
C797 C798 1.524 . S
C797 H800 0.999 . S
C798 H768 0.950 . S
C798 C797 1.524 . S
C798 C799 1.415 . S
C799 H769 0.950 . S
C799 C794 1.363 . S
C799 C798 1.415 . S
H800 C797 0.999 . S
H801 C782 0.913 . S
C236 C164 1.434 . S
C221 C15 1.301 . S
C271 C13 1.508 . S
C286 C124 1.501 . S
C321 C18 1.291 . S
C336 C177 1.472 . S
C371 C17 1.301 . S
C386 C137 1.342 . S
C421 C36 1.300 . S
C436 C84 1.436 . S
C471 C34 1.509 . S
C486 C44 1.502 . S
C536 C97 1.471 . S
C521 C39 1.290 . S
C586 C57 1.342 . S
C571 C38 1.302 . S
C621 C14 1.520 . S
C636 C63 1.553 1_565 S
C671 C16 1.366 . S
C686 C103 1.391 . S
C736 C143 1.552 . S
C721 C35 1.520 . S
C771 C37 1.365 . S
C786 C183 1.391 . S
