# Generated by pormake.
# Topology nia, (6,6)-cn, num edge types: 1
# Building blocks:
#     Node 0, Type 0, BuildingBlock: BETDIP_clean_sbu_0, # of connection points: 6
#     Node 1, Type 0, BuildingBlock: BETDIP_clean_sbu_0, # of connection points: 6
#     Node 2, Type 1, BuildingBlock: MIDCAF_clean_sbu_0, # of connection points: 6
#     Node 3, Type 1, BuildingBlock: MIDCAF_clean_sbu_0, # of connection points: 6
#     Edge 4, Type (0, 1), BuildingBlock: ZUJKAS_clean_linker_0, # of connection points: 2
#     Edge 5, Type (0, 1), BuildingBlock: ZUJKAS_clean_linker_0, # of connection points: 2
#     Edge 6, Type (0, 1), BuildingBlock: ZUJKAS_clean_linker_0, # of connection points: 2
#     Edge 7, Type (0, 1), BuildingBlock: ZUJKAS_clean_linker_0, # of connection points: 2
#     Edge 8, Type (0, 1), BuildingBlock: ZUJKAS_clean_linker_0, # of connection points: 2
#     Edge 9, Type (0, 1), BuildingBlock: ZUJKAS_clean_linker_0, # of connection points: 2
#     Edge 10, Type (0, 1), BuildingBlock: ZUJKAS_clean_linker_0, # of connection points: 2
#     Edge 11, Type (0, 1), BuildingBlock: ZUJKAS_clean_linker_0, # of connection points: 2
#     Edge 12, Type (0, 1), BuildingBlock: ZUJKAS_clean_linker_0, # of connection points: 2
#     Edge 13, Type (0, 1), BuildingBlock: ZUJKAS_clean_linker_0, # of connection points: 2
#     Edge 14, Type (0, 1), BuildingBlock: ZUJKAS_clean_linker_0, # of connection points: 2
#     Edge 15, Type (0, 1), BuildingBlock: ZUJKAS_clean_linker_0, # of connection points: 2
# Relax obj value: 0.278
# Max RMSD: 0.262
# Mean RMSD: 0.234
data_MOF--net-nia--node1-BETDIP_clean_sbu_0--node2-MIDCAF_clean_sbu_0--edge1-ZUJKAS_clean_linker_0
_symmetry_space_group_name_H-M    P1
_symmetry_Int_Tables_number       1
_symmetry_cell_setting            triclinic
loop_
_symmetry_equiv_pos_as_xyz
'x, y, z'
_cell_length_a     35.751579
_cell_length_b     32.662
_cell_length_c     41.344227
_cell_angle_alpha  98.856946
_cell_angle_beta   71.239281
_cell_angle_gamma 128.44604
loop_
_atom_site_label
_atom_site_type_symbol
_atom_site_fract_x
_atom_site_fract_y
_atom_site_fract_z
_atom_type_partial_charge
Tb0 Tb 0.9525 0.0188 1.04199 0.0
Tb1 Tb 0.00171 0.97959 0.06641 0.0
C2 C 0.89147 0.03064 1.03687 0.0
C3 C 0.88966 0.06166 1.01607 0.0
C4 C 0.8484 0.06176 1.02648 0.0
C5 C 0.84299 0.08649 1.00563 0.0
C6 C 0.87881 0.11157 0.97387 0.0
C7 C 0.92111 0.11294 0.96401 0.0
C8 C 0.92642 0.08799 0.98493 0.0
C9 C 0.0475 0.06498 1.0052 0.0
C10 C 0.00849 0.07556 0.0992 0.0
C11 C 0.05201 0.95385 0.07301 0.0
C12 C 0.06716 0.94778 0.10005 0.0
C13 C 0.11573 0.96366 0.09241 0.0
C14 C 0.1305 0.95551 0.11665 0.0
C15 C 0.09686 0.93111 0.14909 0.0
C16 C 0.04843 0.91629 0.15699 0.0
C17 C 0.03375 0.92475 0.13273 0.0
C18 C 0.9132 0.95041 0.10597 0.0
C19 C 0.94963 0.92485 1.00689 0.0
O20 O 0.91859 0.05577 0.05807 0.0
O21 O 0.89699 -0.00381 1.02068 0.0
O22 O 0.02027 0.03138 1.02957 0.0
O23 O 0.02043 0.07598 1.00032 0.0
O24 O -0.02891 0.06078 0.08793 0.0
O25 O 0.03182 0.05432 0.08949 0.0
O26 O 0.00454 0.92006 0.07448 0.0
O27 O 0.07156 0.00192 0.06452 0.0
O28 O 0.92891 0.95664 0.07393 0.0
O29 O 0.94593 0.95563 0.11709 0.0
O30 O -0.01606 0.93668 1.02057 0.0
O31 O 0.92736 0.94717 1.01552 0.0
H32 H 0.81972 0.04168 0.05046 0.0
H33 H 0.81049 0.08562 1.01425 0.0
H34 H 0.94921 0.13177 0.93965 0.0
H35 H 0.95848 0.0881 0.97643 0.0
H36 H 0.14203 0.98141 0.06734 0.0
H37 H 0.16779 0.96668 0.1095 0.0
H38 H 0.02181 0.89782 0.18184 0.0
H39 H -0.00389 0.91252 0.13931 0.0
Tb40 Tb 0.0232 0.03603 0.57777 0.0
Tb41 Tb 0.95862 -0.00541 0.52656 0.0
C42 C 0.06831 0.05189 0.6192 0.0
C43 C 0.0949 0.03721 0.62895 0.0
C44 C 0.08502 0.02774 0.66377 0.0
C45 C 0.11733 0.02646 0.67486 0.0
C46 C 0.1603 0.03516 0.65123 0.0
C47 C 0.1678 0.04015 0.61609 0.0
C48 C 0.13525 0.04099 0.60499 0.0
C49 C 0.04782 0.10481 0.53334 0.0
C50 C 0.03989 0.97734 0.51251 0.0
C51 C 0.93185 0.99298 0.47702 0.0
C52 C 0.88723 0.97088 0.46684 0.0
C53 C 0.89156 -0.00291 0.44045 0.0
C54 C 0.85127 0.97459 0.42767 0.0
C55 C 0.80594 0.92533 0.44106 0.0
C56 C 0.80132 0.89979 0.46821 0.0
C57 C 0.84167 0.92245 0.48106 0.0
C58 C 0.91743 0.92265 0.57599 0.0
C59 C 0.93583 0.04422 0.59581 0.0
O60 O 0.01964 0.01736 0.62571 0.0
O61 O 0.09015 0.07902 0.58991 0.0
O62 O 0.0322 0.05847 0.52824 0.0
O63 O 0.05299 0.11538 0.56382 0.0
O64 O 0.0441 0.99044 0.54391 0.0
O65 O 0.01485 0.98406 0.49917 0.0
O66 O 0.94292 0.02902 0.49947 0.0
O67 O 0.9384 0.95956 0.4824 0.0
O68 O 0.95663 0.96864 0.57047 0.0
O69 O 0.89685 0.91506 0.55262 0.0
O70 O 0.93271 0.03357 0.56398 0.0
O71 O 0.96372 0.04038 0.60798 0.0
H72 H 0.05418 0.02486 0.68267 0.0
H73 H 0.11079 0.02279 0.70208 0.0
H74 H 0.20036 0.04628 0.59734 0.0
H75 H 0.14349 0.04786 0.57791 0.0
H76 H 0.92662 0.03442 0.42909 0.0
H77 H 0.85613 -0.00497 0.40658 0.0
H78 H 0.7666 0.86219 0.47941 0.0
H79 H 0.83764 0.90171 0.50155 0.0
Zn80 Zn 0.30727 0.65548 0.23814 0.0
Zn81 Zn 0.26444 0.64764 0.37334 0.0
Zn82 Zn 0.28613 0.65123 0.30595 0.0
C83 C 0.36702 0.69858 0.34705 0.0
C84 C 0.2131 0.54413 0.35476 0.0
O85 O 0.26179 0.69274 0.29252 0.0
O86 O 0.27635 0.6885 0.23627 0.0
C87 C 0.39814 0.71166 0.25214 0.0
O88 O 0.35658 0.69002 0.31852 0.0
O89 O 0.33319 0.68415 0.37519 0.0
O90 O 0.21674 0.57034 0.38101 0.0
O91 O 0.23665 0.56756 0.32462 0.0
O92 O 0.38075 0.69862 0.22706 0.0
O93 O 0.36861 0.69728 0.28301 0.0
O94 O 0.24449 0.56951 0.28904 0.0
O95 O 0.27028 0.57966 0.23247 0.0
C96 C 0.24421 0.54998 0.25943 0.0
O97 O 0.25052 0.69065 0.3283 0.0
O98 O 0.23884 0.68807 0.38413 0.0
C99 C 0.26038 0.7025 0.26405 0.0
C100 C 0.23584 0.70182 0.35878 0.0
Zn101 Zn 0.65931 0.36025 0.85908 0.0
Zn102 Zn 0.69354 0.34939 0.72787 0.0
Zn103 Zn 0.67603 0.35672 0.79317 0.0
C104 C 0.72883 0.4524 0.73884 0.0
C105 C 0.59033 0.28008 0.75668 0.0
O106 O 0.70702 0.32491 0.81004 0.0
O107 O 0.67635 0.31581 0.86644 0.0
C108 C 0.72913 0.46356 0.83126 0.0
O109 O 0.7196 0.43709 0.7693 0.0
O110 O 0.71783 0.42014 0.71573 0.0
O111 O 0.62361 0.28906 0.72919 0.0
O112 O 0.60247 0.30467 0.78345 0.0
O113 O 0.71037 0.43692 0.85879 0.0
O114 O 0.71866 0.44089 0.80365 0.0
O115 O 0.59373 0.31348 0.81835 0.0
O116 O 0.58871 0.33223 0.8726 0.0
C117 C 0.56786 0.31119 0.84914 0.0
O118 O 0.71408 0.31947 0.77423 0.0
O119 O 0.74147 0.33399 0.71799 0.0
C120 C 0.70163 0.31011 0.83945 0.0
C121 C 0.73852 0.31628 0.7445 0.0
H122 H 0.04187 0.83992 0.18804 0.0
H123 H 0.07077 0.81383 0.2207 0.0
H124 H 0.21445 0.9663 0.19726 0.0
H125 H 0.18573 0.99274 0.16454 0.0
H126 H 0.22175 0.88867 0.17761 0.0
H127 H 0.10233 0.84305 0.3116 0.0
H128 H 0.06603 0.81117 0.28195 0.0
H129 H 0.10701 0.88159 0.28134 0.0
C130 C 0.0791 0.86849 0.19072 0.0
C131 C 0.11164 0.91828 0.17343 0.0
C132 C 0.09553 0.85356 0.20956 0.0
C133 C 0.14465 0.88826 0.21175 0.0
C134 C 0.17633 0.93894 0.19604 0.0
H135 H 0.27771 0.78985 0.29679 0.0
H136 H 0.25008 0.83975 0.28937 0.0
C137 C 0.15998 0.95386 0.17715 0.0
C138 C 0.16505 0.86901 0.22561 0.0
H139 H 0.14246 0.80136 0.29375 0.0
C140 C 0.20501 0.8706 0.20327 0.0
C141 C 0.14354 0.84571 0.25917 0.0
C142 C 0.10269 0.84574 0.28502 0.0
C143 C 0.22203 0.84687 0.2128 0.0
C144 C 0.19815 0.82031 0.24538 0.0
C145 C 0.16021 0.82125 0.2686 0.0
C146 C 0.20947 0.78751 0.25395 0.0
C147 C 0.26436 0.84871 0.18746 0.0
C148 C 0.19472 0.74127 0.23714 0.0
C149 C 0.21011 0.71289 0.24146 0.0
C150 C 0.2401 0.72993 0.26296 0.0
C151 C 0.25373 0.77544 0.28063 0.0
C152 C 0.23818 0.80396 0.27633 0.0
H153 H 0.28605 0.88032 0.16699 0.0
H154 H 0.29008 0.85486 0.20052 0.0
H155 H 0.24889 0.81078 0.17521 0.0
H156 H 0.17255 0.72804 0.21978 0.0
H157 H 0.19933 0.67805 0.22745 0.0
H158 H 0.15309 0.98046 0.7002 0.0
H159 H 0.21978 0.00671 0.72359 0.0
H160 H 0.32376 0.14514 0.65466 0.0
H161 H 0.25821 0.11819 0.63059 0.0
H162 H 0.36596 0.1039 0.65716 0.0
H163 H 0.27256 0.11715 0.79032 0.0
H164 H 0.23819 0.05331 0.77412 0.0
H165 H 0.24878 0.10691 0.75508 0.0
C166 C 0.1904 0.01616 0.68991 0.0
C167 C 0.20062 0.04714 0.66346 0.0
C168 C 0.2283 0.0314 0.70349 0.0
C169 C 0.27659 0.07849 0.69138 0.0
C170 C 0.28686 0.10865 0.66444 0.0
H171 H 0.5195 0.29497 0.7744 0.0
H172 H 0.43827 0.23738 0.7627 0.0
C173 C 0.2494 0.09306 0.65055 0.0
C174 C 0.31702 0.09742 0.70641 0.0
H175 H 0.35155 0.13776 0.77996 0.0
C176 C 0.36272 0.11115 0.68407 0.0
C177 C 0.31285 0.10717 0.74152 0.0
C178 C 0.26565 0.09585 0.76665 0.0
C179 C 0.40491 0.13637 0.6954 0.0
C180 C 0.40077 0.14602 0.73051 0.0
C181 C 0.35459 0.13041 0.75315 0.0
C182 C 0.44501 0.17601 0.74341 0.0
C183 C 0.45406 0.15486 0.66919 0.0
C184 C 0.4744 0.15943 0.73817 0.0
C185 C 0.52089 0.19256 0.74428 0.0
C186 C 0.53792 0.24197 0.75684 0.0
C187 C 0.50683 0.25685 0.76485 0.0
C188 C 0.46057 0.22401 0.75816 0.0
H189 H 0.45331 0.15626 0.64273 0.0
H190 H 0.48517 0.19448 0.67429 0.0
H191 H 0.462 0.12733 0.67032 0.0
H192 H 0.46249 0.12196 0.72775 0.0
H193 H 0.54437 0.18038 0.73807 0.0
H194 H 0.09292 0.12963 0.11958 0.0
H195 H 0.1201 0.19993 0.15891 0.0
H196 H -0.01391 0.18416 0.17563 0.0
H197 H 0.95924 0.11473 0.1355 0.0
H198 H 0.06511 0.28272 0.16205 0.0
H199 H 0.08003 0.2019 0.26106 0.0
H200 H 0.11529 0.20082 0.21927 0.0
H201 H 0.04838 0.16193 0.22962 0.0
C202 C 0.06891 0.14068 0.13188 0.0
C203 C 0.02395 0.11661 0.12428 0.0
C204 C 0.08429 0.18059 0.1547 0.0
C205 C 0.05466 0.19666 0.17089 0.0
C206 C 0.00941 0.17217 0.16369 0.0
H207 H 0.14836 0.47263 0.29697 0.0
H208 H 0.09478 0.38053 0.28255 0.0
C209 C -0.00579 0.13259 0.14062 0.0
C210 C 0.07329 0.24235 0.19257 0.0
H211 H 0.12824 0.29662 0.25711 0.0
C212 C 0.07774 0.28514 0.18336 0.0
C213 C 0.08957 0.24561 0.22059 0.0
C214 C 0.08256 0.19983 0.23343 0.0
C215 C 0.10071 0.33202 0.19996 0.0
C216 C 0.12004 0.33641 0.22627 0.0
C217 C 0.11343 0.293 0.23681 0.0
C218 C 0.15291 0.38801 0.23938 0.0
C219 C 0.10663 0.37772 0.18815 0.0
C220 C 0.20325 0.42169 0.22045 0.0
C221 C 0.23344 0.47374 0.22844 0.0
C222 C 0.21398 0.49299 0.25571 0.0
C223 C 0.16427 0.45848 0.27604 0.0
C224 C 0.13375 0.40611 0.26782 0.0
H225 H 0.08439 0.36619 0.17034 0.0
H226 H 0.09498 0.39509 0.21048 0.0
H227 H 0.14656 0.4085 0.17481 0.0
H228 H 0.21853 0.40834 0.19838 0.0
H229 H 0.27168 0.49956 0.21242 0.0
H230 H 0.92872 0.0657 0.66339 0.0
H231 H 0.89006 0.10434 0.69916 0.0
H232 H 0.84567 0.10841 0.61503 0.0
H233 H 0.88342 0.069 0.57921 0.0
H234 H 0.91475 0.19918 0.68955 0.0
H235 H 0.71751 0.04574 0.69249 0.0
H236 H 0.76343 0.03423 0.67828 0.0
H237 H 0.75828 0.06555 0.64951 0.0
C238 C 0.91017 0.07413 0.65255 0.0
C239 C 0.90912 0.06401 0.61835 0.0
C240 C 0.88811 0.0963 0.6731 0.0
C241 C 0.8643 0.10861 0.66 0.0
C242 C 0.86271 0.09807 0.62601 0.0
H243 H 0.82438 0.34162 0.69799 0.0
H244 H 0.85509 0.29012 0.68465 0.0
C245 C 0.88462 0.07576 0.60546 0.0
C246 C 0.84405 0.13567 0.68097 0.0
H247 H 0.7411 0.13189 0.70619 0.0
C248 C 0.87653 0.18403 0.69366 0.0
C249 C 0.79392 0.11553 0.68708 0.0
C250 C 0.75614 0.06213 0.67644 0.0
C251 C 0.8611 0.21422 0.71033 0.0
C252 C 0.81221 0.19601 0.71384 0.0
C253 C 0.77879 0.14618 0.70315 0.0
C254 C 0.79657 0.22998 0.72514 0.0
C255 C 0.89769 0.26582 0.72339 0.0
C256 C 0.75325 0.21328 0.75229 0.0
C257 C 0.73544 0.24267 0.75983 0.0
C258 C 0.76069 0.28915 0.74031 0.0
C259 C 0.80457 0.30629 0.71371 0.0
C260 C 0.82234 0.27706 0.70623 0.0
H261 H 0.92488 0.26511 0.73027 0.0
H262 H 0.91906 0.29727 0.70291 0.0
H263 H 0.87842 0.2758 0.74612 0.0
H264 H 0.7325 0.1768 0.767 0.0
H265 H 0.70092 0.228 0.77997 0.0
H266 H 0.87501 0.93467 0.17548 0.0
H267 H 0.79075 0.90373 0.21006 0.0
H268 H 0.75583 0.90023 0.11857 0.0
H269 H 0.83997 0.93159 0.08404 0.0
H270 H 0.72071 0.94167 0.17447 0.0
H271 H 0.66774 0.75107 0.21095 0.0
H272 H 0.72179 0.80899 0.22124 0.0
H273 H 0.72337 0.79552 0.17724 0.0
C274 C 0.84937 0.92758 0.16284 0.0
C275 C 0.86374 0.93504 0.12709 0.0
C276 C 0.80129 0.9098 0.18258 0.0
C277 C 0.7668 0.89897 0.16683 0.0
C278 C 0.78181 0.90825 0.13124 0.0
H279 H 0.4566 0.69392 0.20292 0.0
H280 H 0.54692 0.74329 0.18803 0.0
C281 C 0.82982 0.92605 0.11153 0.0
C282 C 0.7143 0.87553 0.18686 0.0
H283 H 0.60536 0.76203 0.22954 0.0
C284 C 0.69555 0.90269 0.18697 0.0
C285 C 0.6816 0.82459 0.20304 0.0
C286 C 0.69931 0.793 0.20304 0.0
C287 C 0.64458 0.87951 0.20173 0.0
C288 C 0.61169 0.82796 0.21691 0.0
C289 C 0.6308 0.80164 0.21798 0.0
C290 C 0.5567 0.79802 0.22757 0.0
C291 C 0.6258 0.90912 0.19935 0.0
C292 C 0.53207 0.8122 0.25497 0.0
C293 C 0.48011 0.78368 0.26367 0.0
C294 C 0.45236 0.7408 0.245 0.0
C295 C 0.47717 0.72677 0.21776 0.0
C296 C 0.5287 0.75481 0.20931 0.0
H297 H 0.65501 0.94578 0.1827 0.0
H298 H 0.59312 0.88429 0.18916 0.0
H299 H 0.61352 0.91957 0.2253 0.0
H300 H 0.55295 0.84534 0.26945 0.0
H301 H 0.46178 0.79557 0.28452 0.0
H302 H -0.02635 0.92304 0.60788 0.0
H303 H 0.94783 0.85232 0.64464 0.0
H304 H 0.79911 0.7598 0.63497 0.0
H305 H 0.82469 0.83064 0.59844 0.0
H306 H 0.82246 0.7699 0.70924 0.0
H307 H 0.90093 0.70224 0.59465 0.0
H308 H 0.93452 0.7712 0.6016 0.0
H309 H 0.87773 0.73627 0.5903 0.0
C310 C 0.93509 0.88839 0.61455 0.0
C311 C 0.90093 0.88259 0.60082 0.0
C312 C 0.9205 0.84792 0.63533 0.0
C313 C 0.8715 0.80115 0.6427 0.0
C314 C 0.83695 0.79588 0.62983 0.0
H315 H 0.70875 0.48265 0.69376 0.0
H316 H 0.74737 0.57133 0.67485 0.0
C317 C 0.85162 0.8362 0.6089 0.0
C318 C 0.85739 0.75557 0.66072 0.0
H319 H 0.85518 0.64853 0.64533 0.0
C320 C 0.83019 0.74367 0.69554 0.0
C321 C 0.86767 0.72168 0.64264 0.0
C322 C 0.89677 0.73305 0.6052 0.0
C323 C 0.81148 0.69745 0.71248 0.0
C324 C 0.82004 0.66249 0.69394 0.0
C325 C 0.8488 0.67553 0.65946 0.0
C326 C 0.79468 0.60935 0.70827 0.0
C327 C 0.78076 0.68492 0.74954 0.0
C328 C 0.80821 0.60125 0.73365 0.0
C329 C 0.78614 0.55014 0.74449 0.0
C330 C 0.75024 0.50671 0.73016 0.0
C331 C 0.73636 0.51529 0.70526 0.0
C332 C 0.7583 0.56595 0.69447 0.0
H333 H 0.77434 0.71428 0.75961 0.0
H334 H 0.74407 0.64561 0.75269 0.0
H335 H 0.80024 0.68385 0.76519 0.0
H336 H 0.83684 0.6343 0.74424 0.0
H337 H 0.79874 0.54471 0.76279 0.0
H338 H 0.10062 0.96258 0.52712 0.0
H339 H 0.13385 0.91753 0.4935 0.0
H340 H 0.06232 0.88967 0.41762 0.0
H341 H 0.03003 0.93554 0.45045 0.0
H342 H 0.08014 0.81593 0.47731 0.0
H343 H 0.20064 0.94442 0.3576 0.0
H344 H 0.17575 0.96423 0.39637 0.0
H345 H 0.13696 0.92046 0.36952 0.0
C346 C 0.09249 0.9475 0.50307 0.0
C347 C 0.06279 0.95294 0.49149 0.0
C348 C 0.11147 0.9217 0.48388 0.0
C349 C 0.10118 0.90085 0.45276 0.0
C350 C 0.07184 0.90653 0.44106 0.0
H351 H 0.16328 0.68726 0.33732 0.0
H352 H 0.12768 0.73498 0.35566 0.0
C353 C 0.05313 0.93257 0.46007 0.0
C354 C 0.11854 0.87035 0.43382 0.0
H355 H 0.19064 0.86549 0.35765 0.0
C356 C 0.10416 0.82677 0.45113 0.0
C357 C 0.14942 0.88409 0.39944 0.0
C358 C 0.16699 0.9311 0.37968 0.0
C359 C 0.12074 0.79737 0.43536 0.0
C360 C 0.15267 0.81199 0.40147 0.0
C361 C 0.16586 0.85439 0.38361 0.0
C362 C 0.17734 0.78748 0.38626 0.0
C363 C 0.10519 0.75158 0.45531 0.0
C364 C 0.21748 0.80224 0.3968 0.0
C365 C 0.23757 0.77539 0.38646 0.0
C366 C 0.21821 0.73358 0.3651 0.0
C367 C 0.17913 0.71985 0.35344 0.0
C368 C 0.15884 0.7469 0.36391 0.0
H369 H 0.07394 0.73993 0.479 0.0
H370 H 0.09368 0.71735 0.43928 0.0
H371 H 0.13744 0.76237 0.46263 0.0
H372 H 0.23208 0.83338 0.4141 0.0
H373 H 0.26754 0.78645 0.39588 0.0
H374 H 0.09506 0.02299 1.00018 0.0
H375 H 0.18204 0.06068 0.96899 0.0
H376 H 0.2036 0.19352 0.93373 0.0
H377 H 0.11622 0.1554 0.96472 0.0
H378 H 0.24772 0.15882 0.88278 0.0
H379 H 0.30015 0.18211 1.00067 0.0
H380 H 0.24945 0.11611 0.99567 0.0
H381 H 0.24162 0.16639 1.00182 0.0
C382 C 0.11862 0.06057 0.9862 0.0
C383 C 0.09949 0.08704 0.98559 0.0
C384 C 0.16822 0.08196 0.96824 0.0
C385 C 0.19973 0.13053 0.94962 0.0
C386 C 0.1801 0.15618 0.9481 0.0
H387 H 0.51927 0.34674 0.89034 0.0
H388 H 0.42929 0.30136 0.91132 0.0
C389 C 0.13031 0.13452 0.96586 0.0
C390 C 0.25337 0.15515 0.93242 0.0
H391 H 0.36141 0.20115 0.94795 0.0
C392 C 0.27256 0.16788 0.89697 0.0
C393 C 0.28595 0.16768 0.95107 0.0
C394 C 0.26847 0.15787 0.98944 0.0
C395 C 0.32339 0.19263 0.87972 0.0
C396 C 0.35559 0.20432 0.89833 0.0
C397 C 0.33642 0.19152 0.93369 0.0
C398 C 0.4101 0.23315 0.88233 0.0
C399 C 0.34293 0.20811 0.84207 0.0
C400 C 0.42927 0.21001 0.85875 0.0
C401 C 0.48096 0.23606 0.84666 0.0
C402 C 0.51397 0.28549 0.85799 0.0
C403 C 0.49461 0.30878 0.88104 0.0
C404 C 0.44327 0.28294 0.89303 0.0
H405 H 0.3136 0.19882 0.83161 0.0
H406 H 0.37416 0.25075 0.83752 0.0
H407 H 0.35798 0.18731 0.82783 0.0
H408 H 0.40425 0.17112 0.85069 0.0
H409 H 0.49489 0.21661 0.82979 0.0
H410 H 0.07663 0.2035 0.54362 0.0
H411 H 0.09962 0.2667 0.50188 0.0
H412 H 0.06997 0.15369 0.42476 0.0
H413 H 0.04714 0.09016 0.46651 0.0
H414 H 0.17812 0.30222 0.43679 0.0
H415 H -0.00912 0.20866 0.42246 0.0
H416 H -0.0019 0.19379 0.45934 0.0
H417 H 0.01071 0.16878 0.41896 0.0
C418 C 0.07477 0.19202 0.51782 0.0
C419 C 0.05991 0.14194 0.5083 0.0
C420 C 0.08789 0.2281 0.49403 0.0
C421 C 0.08612 0.21469 0.46035 0.0
C422 C 0.07095 0.16453 0.45076 0.0
H423 H 0.23604 0.48224 0.31646 0.0
H424 H 0.20162 0.39361 0.33356 0.0
C425 C 0.058 0.12839 0.47458 0.0
C426 C 0.10217 0.25447 0.43529 0.0
H427 H 0.05784 0.2911 0.39358 0.0
C428 C 0.15211 0.29952 0.42679 0.0
C429 C 0.06797 0.25058 0.42243 0.0
C430 C 0.01379 0.20306 0.43124 0.0
C431 C 0.16842 0.34197 0.40702 0.0
C432 C 0.13388 0.33899 0.3951 0.0
C433 C 0.0843 0.29299 0.40243 0.0
C434 C 0.14696 0.38612 0.37986 0.0
C435 C 0.22177 0.39096 0.40088 0.0
C436 C 0.12559 0.40977 0.39907 0.0
C437 C 0.14481 0.4599 0.38923 0.0
C438 C 0.18549 0.48718 0.35981 0.0
C439 C 0.20425 0.46183 0.339 0.0
C440 C 0.18495 0.41146 0.34893 0.0
H441 H 0.24159 0.38938 0.41598 0.0
H442 H 0.24232 0.39597 0.37336 0.0
H443 H 0.22304 0.42598 0.40758 0.0
H444 H 0.09626 0.39093 0.423 0.0
H445 H 0.12965 0.47855 0.40571 0.0
H446 H 0.9471 0.20635 0.93678 0.0
H447 H 0.9316 0.24596 0.90192 0.0
H448 H 0.77743 0.10889 0.92461 0.0
H449 H 0.79264 0.06887 0.95894 0.0
H450 H 0.82935 0.15433 0.85196 0.0
H451 H 0.84378 0.29571 0.9517 0.0
H452 H 0.89376 0.29049 0.93622 0.0
H453 H 0.83338 0.23661 0.96101 0.0
C454 C 0.91011 0.18441 0.93391 0.0
C455 C 0.87092 0.13477 0.95096 0.0
C456 C 0.90131 0.20711 0.91409 0.0
C457 C 0.85333 0.18036 0.91088 0.0
C458 C 0.81473 0.13008 0.92676 0.0
H459 H 0.66524 0.23387 0.88524 0.0
H460 H 0.70925 0.20508 0.89603 0.0
C461 C 0.82337 0.10754 0.94665 0.0
C462 C 0.84171 0.20582 0.89344 0.0
H463 H 0.81637 0.29302 0.90649 0.0
C464 C 0.82747 0.18542 0.8634 0.0
C465 C 0.83906 0.24612 0.90865 0.0
C466 C 0.85302 0.2686 0.94126 0.0
C467 C 0.80894 0.20319 0.84886 0.0
C468 C 0.80416 0.24165 0.86506 0.0
C469 C 0.82036 0.26358 0.89418 0.0
C470 C 0.77666 0.25504 0.85507 0.0
C471 C 0.79213 0.17911 0.81739 0.0
C472 C 0.80001 0.29218 0.82813 0.0
C473 C 0.77492 0.3089 0.82199 0.0
C474 C 0.72619 0.28831 0.84259 0.0
C475 C 0.70265 0.25011 0.86888 0.0
C476 C 0.72765 0.23358 0.87501 0.0
H477 H 0.8004 0.15126 0.80685 0.0
H478 H 0.7513 0.15805 0.82374 0.0
H479 H 0.81087 0.21036 0.79732 0.0
H480 H 0.83805 0.30947 0.81271 0.0
H481 H 0.79422 0.33923 0.80205 0.0
H482 H 0.77246 0.97119 0.42212 0.0
H483 H 0.70278 0.92941 0.39821 0.0
H484 H 0.67557 0.78154 0.40211 0.0
H485 H 0.74533 0.82302 0.42595 0.0
H486 H 0.68357 0.87156 0.33821 0.0
H487 H 0.54203 0.752 0.45906 0.0
H488 H 0.60569 0.80686 0.45719 0.0
H489 H 0.59092 0.74546 0.44147 0.0
C490 C 0.75192 0.92987 0.41762 0.0
C491 C 0.76405 0.90026 0.42623 0.0
C492 C 0.71219 0.90611 0.40394 0.0
C493 C 0.68387 0.85238 0.3987 0.0
C494 C 0.69658 0.82293 0.40646 0.0
H495 H 0.43511 0.68378 0.30732 0.0
H496 H 0.51634 0.72136 0.31483 0.0
C497 C 0.73622 0.84662 0.42023 0.0
C498 C 0.63959 0.82691 0.38669 0.0
H499 H 0.51236 0.74159 0.41301 0.0
C500 C 0.64609 0.84271 0.35433 0.0
C501 C 0.59087 0.78965 0.408 0.0
C502 C 0.58163 0.77264 0.44348 0.0
C503 C 0.60486 0.82278 0.34298 0.0
C504 C 0.55623 0.78626 0.36459 0.0
C505 C 0.54986 0.76952 0.39651 0.0
C506 C 0.51105 0.7684 0.35639 0.0
C507 C 0.61325 0.84263 0.30884 0.0
C508 C 0.48169 0.78277 0.37705 0.0
C509 C 0.43567 0.76135 0.37292 0.0
C510 C 0.41829 0.72542 0.34789 0.0
C511 C 0.44826 0.71212 0.32641 0.0
C512 C 0.49449 0.73352 0.33067 0.0
H513 H 0.65351 0.87214 0.2954 0.0
H514 H 0.59677 0.80942 0.29229 0.0
H515 H 0.59415 0.86051 0.31256 0.0
H516 H 0.49378 0.80946 0.39712 0.0
H517 H 0.41309 0.77202 0.38985 0.0
H518 H 0.87623 0.88487 0.97663 0.0
H519 H 0.84828 0.81445 0.9373 0.0
H520 H 0.96134 0.80306 0.93937 0.0
H521 H -0.01083 0.87293 0.97918 0.0
H522 H 0.89697 0.80125 0.87213 0.0
H523 H 0.83073 0.65553 0.97143 0.0
H524 H 0.84746 0.71968 0.98145 0.0
H525 H 0.89524 0.71148 0.9635 0.0
C526 C 0.89538 0.86761 0.96868 0.0
C527 C 0.93458 0.88417 0.98149 0.0
C528 C 0.87944 0.82749 0.94603 0.0
C529 C 0.90228 0.80308 0.93578 0.0
C530 C 0.94265 0.82081 0.94743 0.0
H531 H 0.82243 0.51941 0.83565 0.0
H532 H 0.8715 0.60885 0.85397 0.0
C533 C 0.95852 0.86081 0.97019 0.0
C534 C 0.88205 0.75718 0.91448 0.0
H535 H 0.82702 0.62663 0.91593 0.0
C536 C 0.88175 0.76303 0.88159 0.0
C537 C 0.86171 0.70729 0.92707 0.0
C538 C 0.85825 0.69778 0.96289 0.0
C539 C 0.86247 0.72033 0.86069 0.0
C540 C 0.84268 0.67065 0.87324 0.0
C541 C 0.84285 0.66494 0.90616 0.0
C542 C 0.82004 0.62306 0.85359 0.0
C543 C 0.86391 0.72874 0.82532 0.0
C544 C 0.77597 0.60225 0.84575 0.0
C545 C 0.74819 0.55122 0.83488 0.0
C546 C 0.76421 0.52065 0.83187 0.0
C547 C 0.80993 0.54276 0.83734 0.0
C548 C 0.83777 0.59367 0.84794 0.0
H549 H 0.89171 0.77072 0.81617 0.0
H550 H 0.87293 0.70558 0.8067 0.0
H551 H 0.82664 0.71561 0.82592 0.0
H552 H 0.76108 0.62378 0.85052 0.0
H553 H 0.71248 0.53434 0.83139 0.0
loop_
_geom_bond_atom_site_label_1
_geom_bond_atom_site_label_2
_geom_bond_distance
_geom_bond_site_symmetry_2
_ccdc_geom_bond_type
Tb0 C2 2.809 . S
Tb0 O20 2.484 . S
Tb0 O21 2.440 1_655 S
Tb0 O22 2.658 1_655 S
Tb0 O23 2.409 1_655 S
Tb0 O24 2.378 1_656 S
Tb0 O28 2.325 1_546 S
Tb0 O31 2.341 1_545 S
Tb1 C11 2.809 . S
Tb1 O22 2.325 1_564 S
Tb1 O25 2.341 1_565 S
Tb1 O26 2.484 . S
Tb1 O27 2.440 . S
Tb1 O28 2.658 1_455 S
Tb1 O29 2.409 1_455 S
Tb1 O30 2.378 1_455 S
C2 Tb0 2.809 . S
C2 C3 1.514 . S
C2 O20 1.248 . S
C2 O21 1.266 1_655 S
C3 C2 1.514 . S
C3 C4 1.359 . S
C3 C8 1.348 . S
C4 C3 1.359 . S
C4 C5 1.380 . S
C4 H32 0.929 . S
C5 C4 1.380 . S
C5 C6 1.347 . S
C5 H33 0.931 . S
C6 C5 1.347 . S
C6 C7 1.369 . S
C7 C6 1.369 . S
C7 C8 1.408 . S
C7 H34 0.930 1_655 S
C8 C3 1.348 . S
C8 C7 1.408 . S
C8 H35 0.930 1_655 S
C9 O22 1.281 . S
C9 O23 1.254 . S
C10 O24 1.236 . S
C10 O25 1.266 . S
C11 Tb1 2.809 . S
C11 C12 1.514 . S
C11 O26 1.248 . S
C11 O27 1.266 . S
C12 C11 1.514 . S
C12 C13 1.359 . S
C12 C17 1.348 . S
C13 C12 1.359 . S
C13 C14 1.380 . S
C13 H36 0.929 . S
C14 C13 1.380 . S
C14 C15 1.347 . S
C14 H37 0.931 . S
C15 C14 1.347 . S
C15 C16 1.369 . S
C16 C15 1.369 . S
C16 C17 1.408 . S
C16 H38 0.930 . S
C17 C12 1.348 . S
C17 C16 1.408 . S
C17 H39 0.930 1_455 S
C18 O28 1.281 . S
C18 O29 1.254 . S
C19 O30 1.236 1_556 S
C19 O31 1.266 . S
O20 Tb0 2.484 . S
O20 C2 1.248 . S
O21 Tb0 2.440 1_455 S
O21 C2 1.266 1_455 S
O22 Tb0 2.658 1_455 S
O22 Tb1 2.325 1_546 S
O22 C9 1.281 . S
O23 Tb0 2.409 1_455 S
O23 C9 1.254 . S
O24 Tb0 2.378 1_454 S
O24 C10 1.236 . S
O25 Tb1 2.341 1_545 S
O25 C10 1.266 . S
O26 Tb1 2.484 . S
O26 C11 1.248 . S
O27 Tb1 2.440 . S
O27 C11 1.266 . S
O28 Tb0 2.325 1_564 S
O28 Tb1 2.658 1_655 S
O28 C18 1.281 . S
O29 Tb1 2.409 1_655 S
O29 C18 1.254 . S
O30 Tb1 2.378 1_655 S
O30 C19 1.236 1_554 S
O31 Tb0 2.341 1_565 S
O31 C19 1.266 . S
H32 C4 0.929 . S
H33 C5 0.931 . S
H34 C7 0.930 1_455 S
H35 C8 0.930 1_455 S
H36 C13 0.929 . S
H37 C14 0.931 . S
H38 C16 0.930 . S
H39 C17 0.930 1_655 S
Tb40 C42 2.809 . S
Tb40 O60 2.484 . S
Tb40 O61 2.440 . S
Tb40 O62 2.658 . S
Tb40 O63 2.409 . S
Tb40 O64 2.378 . S
Tb40 O68 2.325 1_545 S
Tb40 O71 2.341 1_455 S
Tb41 C51 2.809 . S
Tb41 O62 2.325 1_665 S
Tb41 O65 2.341 1_655 S
Tb41 O66 2.484 . S
Tb41 O67 2.440 . S
Tb41 O68 2.658 1_655 S
Tb41 O69 2.409 . S
Tb41 O70 2.378 . S
C42 Tb40 2.809 . S
C42 C43 1.514 . S
C42 O60 1.248 . S
C42 O61 1.266 . S
C43 C42 1.514 . S
C43 C44 1.359 . S
C43 C48 1.348 . S
C44 C43 1.359 . S
C44 C45 1.380 . S
C44 H72 0.929 . S
C45 C44 1.380 . S
C45 C46 1.347 . S
C45 H73 0.931 . S
C46 C45 1.347 . S
C46 C47 1.369 . S
C47 C46 1.369 . S
C47 C48 1.408 . S
C47 H74 0.930 . S
C48 C43 1.348 . S
C48 C47 1.408 . S
C48 H75 0.930 . S
C49 O62 1.281 . S
C49 O63 1.254 . S
C50 O64 1.236 1_565 S
C50 O65 1.266 . S
C51 Tb41 2.809 . S
C51 C52 1.514 . S
C51 O66 1.248 . S
C51 O67 1.266 . S
C52 C51 1.514 . S
C52 C53 1.359 . S
C52 C57 1.348 . S
C53 C52 1.359 . S
C53 C54 1.380 . S
C53 H76 0.929 1_565 S
C54 C53 1.380 . S
C54 C55 1.347 . S
C54 H77 0.931 . S
C55 C54 1.347 . S
C55 C56 1.369 . S
C56 C55 1.369 . S
C56 C57 1.408 . S
C56 H78 0.930 . S
C57 C52 1.348 . S
C57 C56 1.408 . S
C57 H79 0.930 . S
C58 O68 1.281 1_655 S
C58 O69 1.254 . S
C59 O70 1.236 1_545 S
C59 O71 1.266 . S
O60 Tb40 2.484 . S
O60 C42 1.248 . S
O61 Tb40 2.440 . S
O61 C42 1.266 . S
O62 Tb40 2.658 . S
O62 Tb41 2.325 1_445 S
O62 C49 1.281 . S
O63 Tb40 2.409 . S
O63 C49 1.254 . S
O64 Tb40 2.378 . S
O64 C50 1.236 1_545 S
O65 Tb41 2.341 1_455 S
O65 C50 1.266 . S
O66 Tb41 2.484 . S
O66 C51 1.248 . S
O67 Tb41 2.440 . S
O67 C51 1.266 . S
O68 Tb40 2.325 1_565 S
O68 Tb41 2.658 1_455 S
O68 C58 1.281 1_455 S
O69 Tb41 2.409 . S
O69 C58 1.254 . S
O70 Tb41 2.378 . S
O70 C59 1.236 1_565 S
O71 Tb40 2.341 1_655 S
O71 C59 1.266 . S
H72 C44 0.929 . S
H73 C45 0.931 . S
H74 C47 0.930 . S
H75 C48 0.930 . S
H76 C53 0.929 1_545 S
H77 C54 0.931 . S
H78 C56 0.930 . S
H79 C57 0.930 . S
Zn80 O86 1.920 . S
Zn80 O92 1.898 . S
Zn80 O95 1.905 . S
Zn81 O89 1.905 . S
Zn81 O90 1.898 . S
Zn81 O98 1.920 . S
Zn82 O85 2.080 . S
Zn82 O88 2.114 . S
Zn82 O91 2.120 . S
Zn82 O93 2.120 . S
Zn82 O94 2.114 . S
Zn82 O97 2.080 . S
C83 O88 1.166 . S
C83 O89 1.182 . S
C84 O90 1.167 . S
C84 O91 1.299 . S
O85 Zn82 2.080 . S
O85 C99 1.305 . S
O86 Zn80 1.920 . S
O86 C99 1.234 . S
C87 O92 1.167 . S
C87 O93 1.299 . S
O88 Zn82 2.114 . S
O88 C83 1.166 . S
O89 Zn81 1.905 . S
O89 C83 1.182 . S
O90 Zn81 1.898 . S
O90 C84 1.167 . S
O91 Zn82 2.120 . S
O91 C84 1.299 . S
O92 Zn80 1.898 . S
O92 C87 1.167 . S
O93 Zn82 2.120 . S
O93 C87 1.299 . S
O94 Zn82 2.114 . S
O94 C96 1.166 . S
O95 Zn80 1.905 . S
O95 C96 1.182 . S
C96 O94 1.166 . S
C96 O95 1.182 . S
O97 Zn82 2.080 . S
O97 C100 1.305 . S
O98 Zn81 1.920 . S
O98 C100 1.234 . S
C99 O85 1.305 . S
C99 O86 1.234 . S
C100 O97 1.305 . S
C100 O98 1.234 . S
Zn101 O107 1.920 . S
Zn101 O113 1.898 . S
Zn101 O116 1.905 . S
Zn102 O110 1.905 . S
Zn102 O111 1.898 . S
Zn102 O119 1.920 . S
Zn103 O106 2.080 . S
Zn103 O109 2.114 . S
Zn103 O112 2.120 . S
Zn103 O114 2.120 . S
Zn103 O115 2.114 . S
Zn103 O118 2.080 . S
C104 O109 1.166 . S
C104 O110 1.182 . S
C105 O111 1.167 . S
C105 O112 1.299 . S
O106 Zn103 2.080 . S
O106 C120 1.305 . S
O107 Zn101 1.920 . S
O107 C120 1.234 . S
C108 O113 1.167 . S
C108 O114 1.299 . S
O109 Zn103 2.114 . S
O109 C104 1.166 . S
O110 Zn102 1.905 . S
O110 C104 1.182 . S
O111 Zn102 1.898 . S
O111 C105 1.167 . S
O112 Zn103 2.120 . S
O112 C105 1.299 . S
O113 Zn101 1.898 . S
O113 C108 1.167 . S
O114 Zn103 2.120 . S
O114 C108 1.299 . S
O115 Zn103 2.114 . S
O115 C117 1.166 . S
O116 Zn101 1.905 . S
O116 C117 1.182 . S
C117 O115 1.166 . S
C117 O116 1.182 . S
O118 Zn103 2.080 . S
O118 C121 1.305 . S
O119 Zn102 1.920 . S
O119 C121 1.234 . S
C120 O106 1.305 . S
C120 O107 1.234 . S
C121 O118 1.305 . S
C121 O119 1.234 . S
H122 C130 0.929 . S
H123 C132 0.930 . S
H124 C134 0.930 . S
H125 C137 0.929 . S
H126 C140 0.930 . S
H127 C142 0.960 . S
H128 C142 0.960 . S
H129 C142 0.960 . S
C130 H122 0.929 . S
C130 C131 1.377 . S
C130 C132 1.384 . S
C131 C130 1.377 . S
C131 C137 1.390 . S
C132 H123 0.930 . S
C132 C130 1.384 . S
C132 C133 1.372 . S
C133 C132 1.372 . S
C133 C134 1.400 . S
C133 C138 1.490 . S
C134 H124 0.930 . S
C134 C133 1.400 . S
C134 C137 1.386 . S
H135 C151 0.930 . S
H136 C152 0.931 . S
C137 H125 0.929 . S
C137 C131 1.390 . S
C137 C134 1.386 . S
C138 C133 1.490 . S
C138 C140 1.395 . S
C138 C141 1.403 . S
H139 C145 0.930 . S
C140 H126 0.930 . S
C140 C138 1.395 . S
C140 C143 1.403 . S
C141 C138 1.403 . S
C141 C142 1.524 . S
C141 C145 1.400 . S
C142 H127 0.960 . S
C142 H128 0.960 . S
C142 H129 0.960 . S
C142 C141 1.524 . S
C143 C140 1.403 . S
C143 C144 1.392 . S
C143 C147 1.495 . S
C144 C143 1.392 . S
C144 C145 1.385 . S
C144 C146 1.478 . S
C145 H139 0.930 . S
C145 C141 1.400 . S
C145 C144 1.385 . S
C146 C144 1.478 . S
C146 C148 1.381 . S
C146 C152 1.383 . S
C147 C143 1.495 . S
C147 H153 0.959 . S
C147 H154 0.961 . S
C147 H155 0.960 . S
C148 C146 1.381 . S
C148 C149 1.394 . S
C148 H156 0.930 . S
C149 C148 1.394 . S
C149 C150 1.383 . S
C149 H157 0.929 . S
C150 C149 1.383 . S
C150 C151 1.377 . S
C151 H135 0.930 . S
C151 C150 1.377 . S
C151 C152 1.379 . S
C152 H136 0.931 . S
C152 C146 1.383 . S
C152 C151 1.379 . S
H153 C147 0.959 . S
H154 C147 0.961 . S
H155 C147 0.960 . S
H156 C148 0.930 . S
H157 C149 0.929 . S
H158 C166 0.929 . S
H159 C168 0.930 . S
H160 C170 0.930 . S
H161 C173 0.929 . S
H162 C176 0.930 . S
H163 C178 0.960 . S
H164 C178 0.960 . S
H165 C178 0.960 . S
C166 H158 0.929 . S
C166 C167 1.377 . S
C166 C168 1.384 . S
C167 C166 1.377 . S
C167 C173 1.390 . S
C168 H159 0.930 . S
C168 C166 1.384 . S
C168 C169 1.372 . S
C169 C168 1.372 . S
C169 C170 1.400 . S
C169 C174 1.490 . S
C170 H160 0.930 . S
C170 C169 1.400 . S
C170 C173 1.386 . S
H171 C187 0.930 . S
H172 C188 0.931 . S
C173 H161 0.929 . S
C173 C167 1.390 . S
C173 C170 1.386 . S
C174 C169 1.490 . S
C174 C176 1.395 . S
C174 C177 1.403 . S
H175 C181 0.930 . S
C176 H162 0.930 . S
C176 C174 1.395 . S
C176 C179 1.403 . S
C177 C174 1.403 . S
C177 C178 1.524 . S
C177 C181 1.400 . S
C178 H163 0.960 . S
C178 H164 0.960 . S
C178 H165 0.960 . S
C178 C177 1.524 . S
C179 C176 1.403 . S
C179 C180 1.392 . S
C179 C183 1.495 . S
C180 C179 1.392 . S
C180 C181 1.385 . S
C180 C182 1.478 . S
C181 H175 0.930 . S
C181 C177 1.400 . S
C181 C180 1.385 . S
C182 C180 1.478 . S
C182 C184 1.381 . S
C182 C188 1.383 . S
C183 C179 1.495 . S
C183 H189 0.959 . S
C183 H190 0.961 . S
C183 H191 0.960 . S
C184 C182 1.381 . S
C184 C185 1.394 . S
C184 H192 0.930 . S
C185 C184 1.394 . S
C185 C186 1.383 . S
C185 H193 0.929 . S
C186 C185 1.383 . S
C186 C187 1.377 . S
C187 H171 0.930 . S
C187 C186 1.377 . S
C187 C188 1.379 . S
C188 H172 0.931 . S
C188 C182 1.383 . S
C188 C187 1.379 . S
H189 C183 0.959 . S
H190 C183 0.961 . S
H191 C183 0.960 . S
H192 C184 0.930 . S
H193 C185 0.929 . S
H194 C202 0.929 . S
H195 C204 0.930 . S
H196 C206 0.930 . S
H197 C209 0.929 . S
H198 C212 0.930 . S
H199 C214 0.960 . S
H200 C214 0.960 . S
H201 C214 0.960 . S
C202 H194 0.929 . S
C202 C203 1.377 . S
C202 C204 1.384 . S
C203 C202 1.377 . S
C203 C209 1.390 . S
C204 H195 0.930 . S
C204 C202 1.384 . S
C204 C205 1.372 . S
C205 C204 1.372 . S
C205 C206 1.400 . S
C205 C210 1.490 . S
C206 H196 0.930 . S
C206 C205 1.400 . S
C206 C209 1.386 . S
H207 C223 0.930 . S
H208 C224 0.931 . S
C209 H197 0.929 . S
C209 C203 1.390 . S
C209 C206 1.386 . S
C210 C205 1.490 . S
C210 C212 1.395 . S
C210 C213 1.403 . S
H211 C217 0.930 . S
C212 H198 0.930 . S
C212 C210 1.395 . S
C212 C215 1.403 . S
C213 C210 1.403 . S
C213 C214 1.524 . S
C213 C217 1.400 . S
C214 H199 0.960 . S
C214 H200 0.960 . S
C214 H201 0.960 . S
C214 C213 1.524 . S
C215 C212 1.403 . S
C215 C216 1.392 . S
C215 C219 1.495 . S
C216 C215 1.392 . S
C216 C217 1.385 . S
C216 C218 1.478 . S
C217 H211 0.930 . S
C217 C213 1.400 . S
C217 C216 1.385 . S
C218 C216 1.478 . S
C218 C220 1.381 . S
C218 C224 1.383 . S
C219 C215 1.495 . S
C219 H225 0.959 . S
C219 H226 0.961 . S
C219 H227 0.960 . S
C220 C218 1.381 . S
C220 C221 1.394 . S
C220 H228 0.930 . S
C221 C220 1.394 . S
C221 C222 1.383 . S
C221 H229 0.929 . S
C222 C221 1.383 . S
C222 C223 1.377 . S
C223 H207 0.930 . S
C223 C222 1.377 . S
C223 C224 1.379 . S
C224 H208 0.931 . S
C224 C218 1.383 . S
C224 C223 1.379 . S
H225 C219 0.959 . S
H226 C219 0.961 . S
H227 C219 0.960 . S
H228 C220 0.930 . S
H229 C221 0.929 . S
H230 C238 0.929 . S
H231 C240 0.930 . S
H232 C242 0.930 . S
H233 C245 0.929 . S
H234 C248 0.930 . S
H235 C250 0.960 . S
H236 C250 0.960 . S
H237 C250 0.960 . S
C238 H230 0.929 . S
C238 C239 1.377 . S
C238 C240 1.384 . S
C239 C238 1.377 . S
C239 C245 1.390 . S
C240 H231 0.930 . S
C240 C238 1.384 . S
C240 C241 1.372 . S
C241 C240 1.372 . S
C241 C242 1.400 . S
C241 C246 1.490 . S
C242 H232 0.930 . S
C242 C241 1.400 . S
C242 C245 1.386 . S
H243 C259 0.930 . S
H244 C260 0.931 . S
C245 H233 0.929 . S
C245 C239 1.390 . S
C245 C242 1.386 . S
C246 C241 1.490 . S
C246 C248 1.395 . S
C246 C249 1.403 . S
H247 C253 0.930 . S
C248 H234 0.930 . S
C248 C246 1.395 . S
C248 C251 1.403 . S
C249 C246 1.403 . S
C249 C250 1.524 . S
C249 C253 1.400 . S
C250 H235 0.960 . S
C250 H236 0.960 . S
C250 H237 0.960 . S
C250 C249 1.524 . S
C251 C248 1.403 . S
C251 C252 1.392 . S
C251 C255 1.495 . S
C252 C251 1.392 . S
C252 C253 1.385 . S
C252 C254 1.478 . S
C253 H247 0.930 . S
C253 C249 1.400 . S
C253 C252 1.385 . S
C254 C252 1.478 . S
C254 C256 1.381 . S
C254 C260 1.383 . S
C255 C251 1.495 . S
C255 H261 0.959 . S
C255 H262 0.961 . S
C255 H263 0.960 . S
C256 C254 1.381 . S
C256 C257 1.394 . S
C256 H264 0.930 . S
C257 C256 1.394 . S
C257 C258 1.383 . S
C257 H265 0.929 . S
C258 C257 1.383 . S
C258 C259 1.377 . S
C259 H243 0.930 . S
C259 C258 1.377 . S
C259 C260 1.379 . S
C260 H244 0.931 . S
C260 C254 1.383 . S
C260 C259 1.379 . S
H261 C255 0.959 . S
H262 C255 0.961 . S
H263 C255 0.960 . S
H264 C256 0.930 . S
H265 C257 0.929 . S
H266 C274 0.929 . S
H267 C276 0.930 . S
H268 C278 0.930 . S
H269 C281 0.929 . S
H270 C284 0.930 . S
H271 C286 0.960 . S
H272 C286 0.960 . S
H273 C286 0.960 . S
C274 H266 0.929 . S
C274 C275 1.377 . S
C274 C276 1.384 . S
C275 C274 1.377 . S
C275 C281 1.390 . S
C276 H267 0.930 . S
C276 C274 1.384 . S
C276 C277 1.372 . S
C277 C276 1.372 . S
C277 C278 1.400 . S
C277 C282 1.490 . S
C278 H268 0.930 . S
C278 C277 1.400 . S
C278 C281 1.386 . S
H279 C295 0.930 . S
H280 C296 0.931 . S
C281 H269 0.929 . S
C281 C275 1.390 . S
C281 C278 1.386 . S
C282 C277 1.490 . S
C282 C284 1.395 . S
C282 C285 1.403 . S
H283 C289 0.930 . S
C284 H270 0.930 . S
C284 C282 1.395 . S
C284 C287 1.403 . S
C285 C282 1.403 . S
C285 C286 1.524 . S
C285 C289 1.400 . S
C286 H271 0.960 . S
C286 H272 0.960 . S
C286 H273 0.960 . S
C286 C285 1.524 . S
C287 C284 1.403 . S
C287 C288 1.392 . S
C287 C291 1.495 . S
C288 C287 1.392 . S
C288 C289 1.385 . S
C288 C290 1.478 . S
C289 H283 0.930 . S
C289 C285 1.400 . S
C289 C288 1.385 . S
C290 C288 1.478 . S
C290 C292 1.381 . S
C290 C296 1.383 . S
C291 C287 1.495 . S
C291 H297 0.959 . S
C291 H298 0.961 . S
C291 H299 0.960 . S
C292 C290 1.381 . S
C292 C293 1.394 . S
C292 H300 0.930 . S
C293 C292 1.394 . S
C293 C294 1.383 . S
C293 H301 0.929 . S
C294 C293 1.383 . S
C294 C295 1.377 . S
C295 H279 0.930 . S
C295 C294 1.377 . S
C295 C296 1.379 . S
C296 H280 0.931 . S
C296 C290 1.383 . S
C296 C295 1.379 . S
H297 C291 0.959 . S
H298 C291 0.961 . S
H299 C291 0.960 . S
H300 C292 0.930 . S
H301 C293 0.929 . S
H302 C310 0.929 1_455 S
H303 C312 0.930 . S
H304 C314 0.930 . S
H305 C317 0.929 . S
H306 C320 0.930 . S
H307 C322 0.960 . S
H308 C322 0.960 . S
H309 C322 0.960 . S
C310 H302 0.929 1_655 S
C310 C311 1.377 . S
C310 C312 1.384 . S
C311 C310 1.377 . S
C311 C317 1.390 . S
C312 H303 0.930 . S
C312 C310 1.384 . S
C312 C313 1.372 . S
C313 C312 1.372 . S
C313 C314 1.400 . S
C313 C318 1.490 . S
C314 H304 0.930 . S
C314 C313 1.400 . S
C314 C317 1.386 . S
H315 C331 0.930 . S
H316 C332 0.931 . S
C317 H305 0.929 . S
C317 C311 1.390 . S
C317 C314 1.386 . S
C318 C313 1.490 . S
C318 C320 1.395 . S
C318 C321 1.403 . S
H319 C325 0.930 . S
C320 H306 0.930 . S
C320 C318 1.395 . S
C320 C323 1.403 . S
C321 C318 1.403 . S
C321 C322 1.524 . S
C321 C325 1.400 . S
C322 H307 0.960 . S
C322 H308 0.960 . S
C322 H309 0.960 . S
C322 C321 1.524 . S
C323 C320 1.403 . S
C323 C324 1.392 . S
C323 C327 1.495 . S
C324 C323 1.392 . S
C324 C325 1.385 . S
C324 C326 1.478 . S
C325 H319 0.930 . S
C325 C321 1.400 . S
C325 C324 1.385 . S
C326 C324 1.478 . S
C326 C328 1.381 . S
C326 C332 1.383 . S
C327 C323 1.495 . S
C327 H333 0.959 . S
C327 H334 0.961 . S
C327 H335 0.960 . S
C328 C326 1.381 . S
C328 C329 1.394 . S
C328 H336 0.930 . S
C329 C328 1.394 . S
C329 C330 1.383 . S
C329 H337 0.929 . S
C330 C329 1.383 . S
C330 C331 1.377 . S
C331 H315 0.930 . S
C331 C330 1.377 . S
C331 C332 1.379 . S
C332 H316 0.931 . S
C332 C326 1.383 . S
C332 C331 1.379 . S
H333 C327 0.959 . S
H334 C327 0.961 . S
H335 C327 0.960 . S
H336 C328 0.930 . S
H337 C329 0.929 . S
H338 C346 0.929 1_545 S
H339 C348 0.930 . S
H340 C350 0.930 . S
H341 C353 0.929 . S
H342 C356 0.930 . S
H343 C358 0.960 . S
H344 C358 0.960 . S
H345 C358 0.960 . S
C346 H338 0.929 1_565 S
C346 C347 1.377 . S
C346 C348 1.384 . S
C347 C346 1.377 . S
C347 C353 1.390 . S
C348 H339 0.930 . S
C348 C346 1.384 . S
C348 C349 1.372 . S
C349 C348 1.372 . S
C349 C350 1.400 . S
C349 C354 1.490 . S
C350 H340 0.930 . S
C350 C349 1.400 . S
C350 C353 1.386 . S
H351 C367 0.930 . S
H352 C368 0.931 . S
C353 H341 0.929 . S
C353 C347 1.390 . S
C353 C350 1.386 . S
C354 C349 1.490 . S
C354 C356 1.395 . S
C354 C357 1.403 . S
H355 C361 0.930 . S
C356 H342 0.930 . S
C356 C354 1.395 . S
C356 C359 1.403 . S
C357 C354 1.403 . S
C357 C358 1.524 . S
C357 C361 1.400 . S
C358 H343 0.960 . S
C358 H344 0.960 . S
C358 H345 0.960 . S
C358 C357 1.524 . S
C359 C356 1.403 . S
C359 C360 1.392 . S
C359 C363 1.495 . S
C360 C359 1.392 . S
C360 C361 1.385 . S
C360 C362 1.478 . S
C361 H355 0.930 . S
C361 C357 1.400 . S
C361 C360 1.385 . S
C362 C360 1.478 . S
C362 C364 1.381 . S
C362 C368 1.383 . S
C363 C359 1.495 . S
C363 H369 0.959 . S
C363 H370 0.961 . S
C363 H371 0.960 . S
C364 C362 1.381 . S
C364 C365 1.394 . S
C364 H372 0.930 . S
C365 C364 1.394 . S
C365 C366 1.383 . S
C365 H373 0.929 . S
C366 C365 1.383 . S
C366 C367 1.377 . S
C367 H351 0.930 . S
C367 C366 1.377 . S
C367 C368 1.379 . S
C368 H352 0.931 . S
C368 C362 1.383 . S
C368 C367 1.379 . S
H369 C363 0.959 . S
H370 C363 0.961 . S
H371 C363 0.960 . S
H372 C364 0.930 . S
H373 C365 0.929 . S
H374 C382 0.929 . S
H375 C384 0.930 . S
H376 C386 0.930 . S
H377 C389 0.929 . S
H378 C392 0.930 . S
H379 C394 0.960 . S
H380 C394 0.960 . S
H381 C394 0.960 . S
C382 H374 0.929 . S
C382 C383 1.377 . S
C382 C384 1.384 . S
C383 C382 1.377 . S
C383 C389 1.390 . S
C384 H375 0.930 . S
C384 C382 1.384 . S
C384 C385 1.372 . S
C385 C384 1.372 . S
C385 C386 1.400 . S
C385 C390 1.490 . S
C386 H376 0.930 . S
C386 C385 1.400 . S
C386 C389 1.386 . S
H387 C403 0.930 . S
H388 C404 0.931 . S
C389 H377 0.929 . S
C389 C383 1.390 . S
C389 C386 1.386 . S
C390 C385 1.490 . S
C390 C392 1.395 . S
C390 C393 1.403 . S
H391 C397 0.930 . S
C392 H378 0.930 . S
C392 C390 1.395 . S
C392 C395 1.403 . S
C393 C390 1.403 . S
C393 C394 1.524 . S
C393 C397 1.400 . S
C394 H379 0.960 . S
C394 H380 0.960 . S
C394 H381 0.960 . S
C394 C393 1.524 . S
C395 C392 1.403 . S
C395 C396 1.392 . S
C395 C399 1.495 . S
C396 C395 1.392 . S
C396 C397 1.385 . S
C396 C398 1.478 . S
C397 H391 0.930 . S
C397 C393 1.400 . S
C397 C396 1.385 . S
C398 C396 1.478 . S
C398 C400 1.381 . S
C398 C404 1.383 . S
C399 C395 1.495 . S
C399 H405 0.959 . S
C399 H406 0.961 . S
C399 H407 0.960 . S
C400 C398 1.381 . S
C400 C401 1.394 . S
C400 H408 0.930 . S
C401 C400 1.394 . S
C401 C402 1.383 . S
C401 H409 0.929 . S
C402 C401 1.383 . S
C402 C403 1.377 . S
C403 H387 0.930 . S
C403 C402 1.377 . S
C403 C404 1.379 . S
C404 H388 0.931 . S
C404 C398 1.383 . S
C404 C403 1.379 . S
H405 C399 0.959 . S
H406 C399 0.961 . S
H407 C399 0.960 . S
H408 C400 0.930 . S
H409 C401 0.929 . S
H410 C418 0.929 . S
H411 C420 0.930 . S
H412 C422 0.930 . S
H413 C425 0.929 . S
H414 C428 0.930 . S
H415 C430 0.960 . S
H416 C430 0.960 . S
H417 C430 0.960 . S
C418 H410 0.929 . S
C418 C419 1.377 . S
C418 C420 1.384 . S
C419 C418 1.377 . S
C419 C425 1.390 . S
C420 H411 0.930 . S
C420 C418 1.384 . S
C420 C421 1.372 . S
C421 C420 1.372 . S
C421 C422 1.400 . S
C421 C426 1.490 . S
C422 H412 0.930 . S
C422 C421 1.400 . S
C422 C425 1.386 . S
H423 C439 0.930 . S
H424 C440 0.931 . S
C425 H413 0.929 . S
C425 C419 1.390 . S
C425 C422 1.386 . S
C426 C421 1.490 . S
C426 C428 1.395 . S
C426 C429 1.403 . S
H427 C433 0.930 . S
C428 H414 0.930 . S
C428 C426 1.395 . S
C428 C431 1.403 . S
C429 C426 1.403 . S
C429 C430 1.524 . S
C429 C433 1.400 . S
C430 H415 0.960 . S
C430 H416 0.960 . S
C430 H417 0.960 . S
C430 C429 1.524 . S
C431 C428 1.403 . S
C431 C432 1.392 . S
C431 C435 1.495 . S
C432 C431 1.392 . S
C432 C433 1.385 . S
C432 C434 1.478 . S
C433 H427 0.930 . S
C433 C429 1.400 . S
C433 C432 1.385 . S
C434 C432 1.478 . S
C434 C436 1.381 . S
C434 C440 1.383 . S
C435 C431 1.495 . S
C435 H441 0.959 . S
C435 H442 0.961 . S
C435 H443 0.960 . S
C436 C434 1.381 . S
C436 C437 1.394 . S
C436 H444 0.930 . S
C437 C436 1.394 . S
C437 C438 1.383 . S
C437 H445 0.929 . S
C438 C437 1.383 . S
C438 C439 1.377 . S
C439 H423 0.930 . S
C439 C438 1.377 . S
C439 C440 1.379 . S
C440 H424 0.931 . S
C440 C434 1.383 . S
C440 C439 1.379 . S
H441 C435 0.959 . S
H442 C435 0.961 . S
H443 C435 0.960 . S
H444 C436 0.930 . S
H445 C437 0.929 . S
H446 C454 0.941 . S
H447 C456 0.930 . S
H448 C458 0.930 . S
H449 C461 0.929 . S
H450 C464 0.930 . S
H451 C466 0.960 . S
H452 C466 0.960 . S
H453 C466 0.960 . S
C454 H446 0.941 . S
C454 C455 1.377 . S
C454 C456 1.384 . S
C455 C454 1.377 . S
C455 C461 1.390 . S
C456 H447 0.930 . S
C456 C454 1.384 . S
C456 C457 1.372 . S
C457 C456 1.372 . S
C457 C458 1.400 . S
C457 C462 1.490 . S
C458 H448 0.930 . S
C458 C457 1.400 . S
C458 C461 1.386 . S
H459 C475 0.930 . S
H460 C476 0.931 . S
C461 H449 0.929 . S
C461 C455 1.390 . S
C461 C458 1.386 . S
C462 C457 1.490 . S
C462 C464 1.395 . S
C462 C465 1.403 . S
H463 C469 0.930 . S
C464 H450 0.930 . S
C464 C462 1.395 . S
C464 C467 1.403 . S
C465 C462 1.403 . S
C465 C466 1.524 . S
C465 C469 1.400 . S
C466 H451 0.960 . S
C466 H452 0.960 . S
C466 H453 0.960 . S
C466 C465 1.524 . S
C467 C464 1.403 . S
C467 C468 1.392 . S
C467 C471 1.495 . S
C468 C467 1.392 . S
C468 C469 1.385 . S
C468 C470 1.478 . S
C469 H463 0.930 . S
C469 C465 1.400 . S
C469 C468 1.385 . S
C470 C468 1.478 . S
C470 C472 1.381 . S
C470 C476 1.383 . S
C471 C467 1.495 . S
C471 H477 0.959 . S
C471 H478 0.961 . S
C471 H479 0.960 . S
C472 C470 1.381 . S
C472 C473 1.394 . S
C472 H480 0.930 . S
C473 C472 1.394 . S
C473 C474 1.383 . S
C473 H481 0.929 . S
C474 C473 1.383 . S
C474 C475 1.377 . S
C475 H459 0.930 . S
C475 C474 1.377 . S
C475 C476 1.379 . S
C476 H460 0.931 . S
C476 C470 1.383 . S
C476 C475 1.379 . S
H477 C471 0.959 . S
H478 C471 0.961 . S
H479 C471 0.960 . S
H480 C472 0.930 . S
H481 C473 0.929 . S
H482 C490 0.929 . S
H483 C492 0.930 . S
H484 C494 0.930 . S
H485 C497 0.929 . S
H486 C500 0.930 . S
H487 C502 0.960 . S
H488 C502 0.960 . S
H489 C502 0.960 . S
C490 H482 0.929 . S
C490 C491 1.377 . S
C490 C492 1.384 . S
C491 C490 1.377 . S
C491 C497 1.390 . S
C492 H483 0.930 . S
C492 C490 1.384 . S
C492 C493 1.372 . S
C493 C492 1.372 . S
C493 C494 1.400 . S
C493 C498 1.490 . S
C494 H484 0.930 . S
C494 C493 1.400 . S
C494 C497 1.386 . S
H495 C511 0.930 . S
H496 C512 0.931 . S
C497 H485 0.929 . S
C497 C491 1.390 . S
C497 C494 1.386 . S
C498 C493 1.490 . S
C498 C500 1.395 . S
C498 C501 1.403 . S
H499 C505 0.930 . S
C500 H486 0.930 . S
C500 C498 1.395 . S
C500 C503 1.403 . S
C501 C498 1.403 . S
C501 C502 1.524 . S
C501 C505 1.400 . S
C502 H487 0.960 . S
C502 H488 0.960 . S
C502 H489 0.960 . S
C502 C501 1.524 . S
C503 C500 1.403 . S
C503 C504 1.392 . S
C503 C507 1.495 . S
C504 C503 1.392 . S
C504 C505 1.385 . S
C504 C506 1.478 . S
C505 H499 0.930 . S
C505 C501 1.400 . S
C505 C504 1.385 . S
C506 C504 1.478 . S
C506 C508 1.381 . S
C506 C512 1.383 . S
C507 C503 1.495 . S
C507 H513 0.959 . S
C507 H514 0.961 . S
C507 H515 0.960 . S
C508 C506 1.381 . S
C508 C509 1.394 . S
C508 H516 0.930 . S
C509 C508 1.394 . S
C509 C510 1.383 . S
C509 H517 0.929 . S
C510 C509 1.383 . S
C510 C511 1.377 . S
C511 H495 0.930 . S
C511 C510 1.377 . S
C511 C512 1.379 . S
C512 H496 0.931 . S
C512 C506 1.383 . S
C512 C511 1.379 . S
H513 C507 0.959 . S
H514 C507 0.961 . S
H515 C507 0.960 . S
H516 C508 0.930 . S
H517 C509 0.929 . S
H518 C526 0.929 . S
H519 C528 0.930 . S
H520 C530 0.930 . S
H521 C533 0.929 1_455 S
H522 C536 0.930 . S
H523 C538 0.960 . S
H524 C538 0.960 . S
H525 C538 0.960 . S
C526 H518 0.929 . S
C526 C527 1.377 . S
C526 C528 1.384 . S
C527 C526 1.377 . S
C527 C533 1.390 . S
C528 H519 0.930 . S
C528 C526 1.384 . S
C528 C529 1.372 . S
C529 C528 1.372 . S
C529 C530 1.400 . S
C529 C534 1.490 . S
C530 H520 0.930 . S
C530 C529 1.400 . S
C530 C533 1.386 . S
H531 C547 0.930 . S
H532 C548 0.931 . S
C533 H521 0.929 1_655 S
C533 C527 1.390 . S
C533 C530 1.386 . S
C534 C529 1.490 . S
C534 C536 1.395 . S
C534 C537 1.403 . S
H535 C541 0.930 . S
C536 H522 0.930 . S
C536 C534 1.395 . S
C536 C539 1.403 . S
C537 C534 1.403 . S
C537 C538 1.524 . S
C537 C541 1.400 . S
C538 H523 0.960 . S
C538 H524 0.960 . S
C538 H525 0.960 . S
C538 C537 1.524 . S
C539 C536 1.403 . S
C539 C540 1.392 . S
C539 C543 1.495 . S
C540 C539 1.392 . S
C540 C541 1.385 . S
C540 C542 1.478 . S
C541 H535 0.930 . S
C541 C537 1.400 . S
C541 C540 1.385 . S
C542 C540 1.478 . S
C542 C544 1.381 . S
C542 C548 1.383 . S
C543 C539 1.495 . S
C543 H549 0.959 . S
C543 H550 0.961 . S
C543 H551 0.960 . S
C544 C542 1.381 . S
C544 C545 1.394 . S
C544 H552 0.930 . S
C545 C544 1.394 . S
C545 C546 1.383 . S
C545 H553 0.929 . S
C546 C545 1.383 . S
C546 C547 1.377 . S
C547 H531 0.930 . S
C547 C546 1.377 . S
C547 C548 1.379 . S
C548 H532 0.931 . S
C548 C542 1.383 . S
C548 C547 1.379 . S
H549 C543 0.959 . S
H550 C543 0.961 . S
H551 C543 0.960 . S
H552 C544 0.930 . S
H553 C545 0.929 . S
C131 C15 1.216 . S
C150 C99 1.079 . S
C167 C46 0.894 . S
C186 C105 0.788 . S
C203 C10 1.173 . S
C222 C96 1.060 . S
C239 C59 2.047 . S
C258 C121 1.946 . S
C275 C18 2.065 . S
C294 C87 1.982 . S
C330 C104 1.919 . S
C311 C58 1.977 . S
C347 C50 1.847 . S
C366 C100 1.716 . S
C402 C117 2.141 . S
C383 C9 2.198 . S
C438 C84 2.067 . S
C419 C49 2.251 . S
C474 C120 1.233 . S
C455 C6 1.305 . S
C510 C83 0.894 . S
C491 C55 0.906 . S
C546 C108 0.994 . S
C527 C19 0.987 . S
