# Generated by pormake.
# Topology gar, (4,6)-cn, num edge types: 1
# Building blocks:
#     Node 0, Type 0, BuildingBlock: TATPOV_clean_sbu_0, # of connection points: 4
#     Node 1, Type 0, BuildingBlock: TATPOV_clean_sbu_0, # of connection points: 4
#     Node 2, Type 0, BuildingBlock: TATPOV_clean_sbu_0, # of connection points: 4
#     Node 3, Type 0, BuildingBlock: TATPOV_clean_sbu_0, # of connection points: 4
#     Node 4, Type 0, BuildingBlock: TATPOV_clean_sbu_0, # of connection points: 4
#     Node 5, Type 0, BuildingBlock: TATPOV_clean_sbu_0, # of connection points: 4
#     Node 6, Type 0, BuildingBlock: TATPOV_clean_sbu_0, # of connection points: 4
#     Node 7, Type 0, BuildingBlock: TATPOV_clean_sbu_0, # of connection points: 4
#     Node 8, Type 0, BuildingBlock: TATPOV_clean_sbu_0, # of connection points: 4
#     Node 9, Type 0, BuildingBlock: TATPOV_clean_sbu_0, # of connection points: 4
#     Node 10, Type 0, BuildingBlock: TATPOV_clean_sbu_0, # of connection points: 4
#     Node 11, Type 0, BuildingBlock: TATPOV_clean_sbu_0, # of connection points: 4
#     Node 12, Type 0, BuildingBlock: TATPOV_clean_sbu_0, # of connection points: 4
#     Node 13, Type 0, BuildingBlock: TATPOV_clean_sbu_0, # of connection points: 4
#     Node 14, Type 0, BuildingBlock: TATPOV_clean_sbu_0, # of connection points: 4
#     Node 15, Type 0, BuildingBlock: TATPOV_clean_sbu_0, # of connection points: 4
#     Node 16, Type 0, BuildingBlock: TATPOV_clean_sbu_0, # of connection points: 4
#     Node 17, Type 0, BuildingBlock: TATPOV_clean_sbu_0, # of connection points: 4
#     Node 18, Type 0, BuildingBlock: TATPOV_clean_sbu_0, # of connection points: 4
#     Node 19, Type 0, BuildingBlock: TATPOV_clean_sbu_0, # of connection points: 4
#     Node 20, Type 0, BuildingBlock: TATPOV_clean_sbu_0, # of connection points: 4
#     Node 21, Type 0, BuildingBlock: TATPOV_clean_sbu_0, # of connection points: 4
#     Node 22, Type 0, BuildingBlock: TATPOV_clean_sbu_0, # of connection points: 4
#     Node 23, Type 0, BuildingBlock: TATPOV_clean_sbu_0, # of connection points: 4
#     Node 24, Type 1, BuildingBlock: KUMJIN_clean_sbu_0, # of connection points: 6
#     Node 25, Type 1, BuildingBlock: KUMJIN_clean_sbu_0, # of connection points: 6
#     Node 26, Type 1, BuildingBlock: KUMJIN_clean_sbu_0, # of connection points: 6
#     Node 27, Type 1, BuildingBlock: KUMJIN_clean_sbu_0, # of connection points: 6
#     Node 28, Type 1, BuildingBlock: KUMJIN_clean_sbu_0, # of connection points: 6
#     Node 29, Type 1, BuildingBlock: KUMJIN_clean_sbu_0, # of connection points: 6
#     Node 30, Type 1, BuildingBlock: KUMJIN_clean_sbu_0, # of connection points: 6
#     Node 31, Type 1, BuildingBlock: KUMJIN_clean_sbu_0, # of connection points: 6
#     Node 32, Type 1, BuildingBlock: KUMJIN_clean_sbu_0, # of connection points: 6
#     Node 33, Type 1, BuildingBlock: KUMJIN_clean_sbu_0, # of connection points: 6
#     Node 34, Type 1, BuildingBlock: KUMJIN_clean_sbu_0, # of connection points: 6
#     Node 35, Type 1, BuildingBlock: KUMJIN_clean_sbu_0, # of connection points: 6
#     Node 36, Type 1, BuildingBlock: KUMJIN_clean_sbu_0, # of connection points: 6
#     Node 37, Type 1, BuildingBlock: KUMJIN_clean_sbu_0, # of connection points: 6
#     Node 38, Type 1, BuildingBlock: KUMJIN_clean_sbu_0, # of connection points: 6
#     Node 39, Type 1, BuildingBlock: KUMJIN_clean_sbu_0, # of connection points: 6
#     Edge 40, Type (0, 1), BuildingBlock: KIFKEQ_clean_linker_1, # of connection points: 2
#     Edge 41, Type (0, 1), BuildingBlock: KIFKEQ_clean_linker_1, # of connection points: 2
#     Edge 42, Type (0, 1), BuildingBlock: KIFKEQ_clean_linker_1, # of connection points: 2
#     Edge 43, Type (0, 1), BuildingBlock: KIFKEQ_clean_linker_1, # of connection points: 2
#     Edge 44, Type (0, 1), BuildingBlock: KIFKEQ_clean_linker_1, # of connection points: 2
#     Edge 45, Type (0, 1), BuildingBlock: KIFKEQ_clean_linker_1, # of connection points: 2
#     Edge 46, Type (0, 1), BuildingBlock: KIFKEQ_clean_linker_1, # of connection points: 2
#     Edge 47, Type (0, 1), BuildingBlock: KIFKEQ_clean_linker_1, # of connection points: 2
#     Edge 48, Type (0, 1), BuildingBlock: KIFKEQ_clean_linker_1, # of connection points: 2
#     Edge 49, Type (0, 1), BuildingBlock: KIFKEQ_clean_linker_1, # of connection points: 2
#     Edge 50, Type (0, 1), BuildingBlock: KIFKEQ_clean_linker_1, # of connection points: 2
#     Edge 51, Type (0, 1), BuildingBlock: KIFKEQ_clean_linker_1, # of connection points: 2
#     Edge 52, Type (0, 1), BuildingBlock: KIFKEQ_clean_linker_1, # of connection points: 2
#     Edge 53, Type (0, 1), BuildingBlock: KIFKEQ_clean_linker_1, # of connection points: 2
#     Edge 54, Type (0, 1), BuildingBlock: KIFKEQ_clean_linker_1, # of connection points: 2
#     Edge 55, Type (0, 1), BuildingBlock: KIFKEQ_clean_linker_1, # of connection points: 2
#     Edge 56, Type (0, 1), BuildingBlock: KIFKEQ_clean_linker_1, # of connection points: 2
#     Edge 57, Type (0, 1), BuildingBlock: KIFKEQ_clean_linker_1, # of connection points: 2
#     Edge 58, Type (0, 1), BuildingBlock: KIFKEQ_clean_linker_1, # of connection points: 2
#     Edge 59, Type (0, 1), BuildingBlock: KIFKEQ_clean_linker_1, # of connection points: 2
#     Edge 60, Type (0, 1), BuildingBlock: KIFKEQ_clean_linker_1, # of connection points: 2
#     Edge 61, Type (0, 1), BuildingBlock: KIFKEQ_clean_linker_1, # of connection points: 2
#     Edge 62, Type (0, 1), BuildingBlock: KIFKEQ_clean_linker_1, # of connection points: 2
#     Edge 63, Type (0, 1), BuildingBlock: KIFKEQ_clean_linker_1, # of connection points: 2
#     Edge 64, Type (0, 1), BuildingBlock: KIFKEQ_clean_linker_1, # of connection points: 2
#     Edge 65, Type (0, 1), BuildingBlock: KIFKEQ_clean_linker_1, # of connection points: 2
#     Edge 66, Type (0, 1), BuildingBlock: KIFKEQ_clean_linker_1, # of connection points: 2
#     Edge 67, Type (0, 1), BuildingBlock: KIFKEQ_clean_linker_1, # of connection points: 2
#     Edge 68, Type (0, 1), BuildingBlock: KIFKEQ_clean_linker_1, # of connection points: 2
#     Edge 69, Type (0, 1), BuildingBlock: KIFKEQ_clean_linker_1, # of connection points: 2
#     Edge 70, Type (0, 1), BuildingBlock: KIFKEQ_clean_linker_1, # of connection points: 2
#     Edge 71, Type (0, 1), BuildingBlock: KIFKEQ_clean_linker_1, # of connection points: 2
#     Edge 72, Type (0, 1), BuildingBlock: KIFKEQ_clean_linker_1, # of connection points: 2
#     Edge 73, Type (0, 1), BuildingBlock: KIFKEQ_clean_linker_1, # of connection points: 2
#     Edge 74, Type (0, 1), BuildingBlock: KIFKEQ_clean_linker_1, # of connection points: 2
#     Edge 75, Type (0, 1), BuildingBlock: KIFKEQ_clean_linker_1, # of connection points: 2
#     Edge 76, Type (0, 1), BuildingBlock: KIFKEQ_clean_linker_1, # of connection points: 2
#     Edge 77, Type (0, 1), BuildingBlock: KIFKEQ_clean_linker_1, # of connection points: 2
#     Edge 78, Type (0, 1), BuildingBlock: KIFKEQ_clean_linker_1, # of connection points: 2
#     Edge 79, Type (0, 1), BuildingBlock: KIFKEQ_clean_linker_1, # of connection points: 2
#     Edge 80, Type (0, 1), BuildingBlock: KIFKEQ_clean_linker_1, # of connection points: 2
#     Edge 81, Type (0, 1), BuildingBlock: KIFKEQ_clean_linker_1, # of connection points: 2
#     Edge 82, Type (0, 1), BuildingBlock: KIFKEQ_clean_linker_1, # of connection points: 2
#     Edge 83, Type (0, 1), BuildingBlock: KIFKEQ_clean_linker_1, # of connection points: 2
#     Edge 84, Type (0, 1), BuildingBlock: KIFKEQ_clean_linker_1, # of connection points: 2
#     Edge 85, Type (0, 1), BuildingBlock: KIFKEQ_clean_linker_1, # of connection points: 2
#     Edge 86, Type (0, 1), BuildingBlock: KIFKEQ_clean_linker_1, # of connection points: 2
#     Edge 87, Type (0, 1), BuildingBlock: KIFKEQ_clean_linker_1, # of connection points: 2
#     Edge 88, Type (0, 1), BuildingBlock: KIFKEQ_clean_linker_1, # of connection points: 2
#     Edge 89, Type (0, 1), BuildingBlock: KIFKEQ_clean_linker_1, # of connection points: 2
#     Edge 90, Type (0, 1), BuildingBlock: KIFKEQ_clean_linker_1, # of connection points: 2
#     Edge 91, Type (0, 1), BuildingBlock: KIFKEQ_clean_linker_1, # of connection points: 2
#     Edge 92, Type (0, 1), BuildingBlock: KIFKEQ_clean_linker_1, # of connection points: 2
#     Edge 93, Type (0, 1), BuildingBlock: KIFKEQ_clean_linker_1, # of connection points: 2
#     Edge 94, Type (0, 1), BuildingBlock: KIFKEQ_clean_linker_1, # of connection points: 2
#     Edge 95, Type (0, 1), BuildingBlock: KIFKEQ_clean_linker_1, # of connection points: 2
#     Edge 96, Type (0, 1), BuildingBlock: KIFKEQ_clean_linker_1, # of connection points: 2
#     Edge 97, Type (0, 1), BuildingBlock: KIFKEQ_clean_linker_1, # of connection points: 2
#     Edge 98, Type (0, 1), BuildingBlock: KIFKEQ_clean_linker_1, # of connection points: 2
#     Edge 99, Type (0, 1), BuildingBlock: KIFKEQ_clean_linker_1, # of connection points: 2
#     Edge 100, Type (0, 1), BuildingBlock: KIFKEQ_clean_linker_1, # of connection points: 2
#     Edge 101, Type (0, 1), BuildingBlock: KIFKEQ_clean_linker_1, # of connection points: 2
#     Edge 102, Type (0, 1), BuildingBlock: KIFKEQ_clean_linker_1, # of connection points: 2
#     Edge 103, Type (0, 1), BuildingBlock: KIFKEQ_clean_linker_1, # of connection points: 2
#     Edge 104, Type (0, 1), BuildingBlock: KIFKEQ_clean_linker_1, # of connection points: 2
#     Edge 105, Type (0, 1), BuildingBlock: KIFKEQ_clean_linker_1, # of connection points: 2
#     Edge 106, Type (0, 1), BuildingBlock: KIFKEQ_clean_linker_1, # of connection points: 2
#     Edge 107, Type (0, 1), BuildingBlock: KIFKEQ_clean_linker_1, # of connection points: 2
#     Edge 108, Type (0, 1), BuildingBlock: KIFKEQ_clean_linker_1, # of connection points: 2
#     Edge 109, Type (0, 1), BuildingBlock: KIFKEQ_clean_linker_1, # of connection points: 2
#     Edge 110, Type (0, 1), BuildingBlock: KIFKEQ_clean_linker_1, # of connection points: 2
#     Edge 111, Type (0, 1), BuildingBlock: KIFKEQ_clean_linker_1, # of connection points: 2
#     Edge 112, Type (0, 1), BuildingBlock: KIFKEQ_clean_linker_1, # of connection points: 2
#     Edge 113, Type (0, 1), BuildingBlock: KIFKEQ_clean_linker_1, # of connection points: 2
#     Edge 114, Type (0, 1), BuildingBlock: KIFKEQ_clean_linker_1, # of connection points: 2
#     Edge 115, Type (0, 1), BuildingBlock: KIFKEQ_clean_linker_1, # of connection points: 2
#     Edge 116, Type (0, 1), BuildingBlock: KIFKEQ_clean_linker_1, # of connection points: 2
#     Edge 117, Type (0, 1), BuildingBlock: KIFKEQ_clean_linker_1, # of connection points: 2
#     Edge 118, Type (0, 1), BuildingBlock: KIFKEQ_clean_linker_1, # of connection points: 2
#     Edge 119, Type (0, 1), BuildingBlock: KIFKEQ_clean_linker_1, # of connection points: 2
#     Edge 120, Type (0, 1), BuildingBlock: KIFKEQ_clean_linker_1, # of connection points: 2
#     Edge 121, Type (0, 1), BuildingBlock: KIFKEQ_clean_linker_1, # of connection points: 2
#     Edge 122, Type (0, 1), BuildingBlock: KIFKEQ_clean_linker_1, # of connection points: 2
#     Edge 123, Type (0, 1), BuildingBlock: KIFKEQ_clean_linker_1, # of connection points: 2
#     Edge 124, Type (0, 1), BuildingBlock: KIFKEQ_clean_linker_1, # of connection points: 2
#     Edge 125, Type (0, 1), BuildingBlock: KIFKEQ_clean_linker_1, # of connection points: 2
#     Edge 126, Type (0, 1), BuildingBlock: KIFKEQ_clean_linker_1, # of connection points: 2
#     Edge 127, Type (0, 1), BuildingBlock: KIFKEQ_clean_linker_1, # of connection points: 2
#     Edge 128, Type (0, 1), BuildingBlock: KIFKEQ_clean_linker_1, # of connection points: 2
#     Edge 129, Type (0, 1), BuildingBlock: KIFKEQ_clean_linker_1, # of connection points: 2
#     Edge 130, Type (0, 1), BuildingBlock: KIFKEQ_clean_linker_1, # of connection points: 2
#     Edge 131, Type (0, 1), BuildingBlock: KIFKEQ_clean_linker_1, # of connection points: 2
#     Edge 132, Type (0, 1), BuildingBlock: KIFKEQ_clean_linker_1, # of connection points: 2
#     Edge 133, Type (0, 1), BuildingBlock: KIFKEQ_clean_linker_1, # of connection points: 2
#     Edge 134, Type (0, 1), BuildingBlock: KIFKEQ_clean_linker_1, # of connection points: 2
#     Edge 135, Type (0, 1), BuildingBlock: KIFKEQ_clean_linker_1, # of connection points: 2
# Relax obj value: 0.136
# Max RMSD: 0.330
# Mean RMSD: 0.171
data_MOF--net-gar--node1-TATPOV_clean_sbu_0--node2-KUMJIN_clean_sbu_0--edge1-KIFKEQ_clean_linker_1
_symmetry_space_group_name_H-M    P1
_symmetry_Int_Tables_number       1
_symmetry_cell_setting            triclinic
loop_
_symmetry_equiv_pos_as_xyz
'x, y, z'
_cell_length_a     61.802013
_cell_length_b     57.167187
_cell_length_c     57.321123
_cell_angle_alpha  100.88243
_cell_angle_beta   94.079565
_cell_angle_gamma 104.23141
loop_
_atom_site_label
_atom_site_type_symbol
_atom_site_fract_x
_atom_site_fract_y
_atom_site_fract_z
_atom_type_partial_charge
Zn0 Zn 0.10306 0.35046 0.44285 0.0
Zn1 Zn 0.1212 0.33229 0.40764 0.0
O2 O 0.13502 0.37031 0.41542 0.0
O3 O 0.12505 0.38353 0.45039 0.0
O4 O 0.14066 0.32006 0.3839 0.0
O5 O 0.10583 0.32672 0.46281 0.0
O6 O 0.12256 0.31104 0.43347 0.0
C7 C 0.13572 0.38792 0.43303 0.0
C8 C 0.07372 0.33367 0.39725 0.0
O9 O 0.08996 0.32587 0.38928 0.0
O10 O 0.07548 0.34456 0.419 0.0
C11 C 0.14842 0.33282 0.36899 0.0
O12 O 0.14225 0.35308 0.36807 0.0
C13 C 0.11579 0.31096 0.454 0.0
Zn14 Zn 0.00869 0.73232 0.70906 0.0
Zn15 Zn 0.01096 0.7655 0.68103 0.0
O16 O 0.98188 0.76569 0.69742 0.0
O17 O 0.9808 0.73831 0.72001 0.0
O18 O 0.01269 0.78949 0.65853 0.0
O19 O 0.03831 0.75256 0.72697 0.0
O20 O 0.04121 0.7786 0.70275 0.0
C21 C 0.97234 0.75381 0.71234 0.0
C22 C 0.00923 0.71086 0.66071 0.0
O23 O 0.01087 0.73299 0.65866 0.0
O24 O 0.00732 0.70504 0.68082 0.0
C25 C 1.00544 0.78169 0.63634 0.0
O26 O 0.99544 0.75812 0.62833 0.0
C27 C 0.04937 0.77136 0.72029 0.0
Zn28 Zn 0.59378 0.84385 0.93483 0.0
Zn29 Zn 0.61277 0.82406 0.90268 0.0
O30 O 0.62948 0.86118 0.9098 0.0
O31 O 0.61978 0.87354 0.94508 0.0
O32 O 0.63254 0.80911 0.88171 0.0
O33 O 0.58995 0.81915 0.95465 0.0
O34 O 0.61137 0.80439 0.92995 0.0
C35 C 0.63156 0.87793 0.92852 0.0
C36 C 0.56805 0.83069 0.88793 0.0
O37 O 0.58295 0.81948 0.8821 0.0
O38 O 0.56951 0.843 0.90908 0.0
C39 C 0.63076 0.80485 0.859 0.0
O40 O 0.61404 0.80965 0.84699 0.0
C41 C 0.60142 0.80403 0.94871 0.0
Zn42 Zn 0.51328 0.23384 0.20505 0.0
Zn43 Zn 0.51265 0.2669 0.17859 0.0
O44 O 0.48182 0.26125 0.19236 0.0
O45 O 0.48245 0.23218 0.21256 0.0
O46 O 0.51255 0.2914 0.15705 0.0
O47 O 0.53947 0.25703 0.22675 0.0
O48 O 0.54158 0.28297 0.20256 0.0
C49 C 0.4723 0.24649 0.20507 0.0
C50 C 0.51926 0.21605 0.15722 0.0
O51 O 0.51679 0.23702 0.15514 0.0
O52 O 0.51859 0.20993 0.17729 0.0
C53 C 0.50374 0.28356 0.13531 0.0
O54 O 0.49324 0.26004 0.12786 0.0
C55 C 0.54955 0.27677 0.22092 0.0
Zn56 Zn 0.12908 0.81843 0.08908 0.0
Zn57 Zn 0.10136 0.81735 0.12194 0.0
O58 O 0.09702 0.84691 0.1051 0.0
O59 O 0.12 0.84749 0.07764 0.0
O60 O 0.07774 0.81587 0.14567 0.0
O61 O 0.11477 0.78186 0.07323 0.0
O62 O 0.09296 0.7805 0.10186 0.0
C63 C 0.10549 0.85645 0.08813 0.0
C64 C 0.15206 0.82454 0.13751 0.0
O65 O 0.13231 0.82345 0.14348 0.0
O66 O 0.15514 0.82376 0.11573 0.0
C67 C 0.05738 0.8151 0.13903 0.0
O68 O 0.05165 0.81556 0.11663 0.0
C69 C 0.10003 0.76935 0.08359 0.0
Zn70 Zn 0.49683 0.76153 0.46042 0.0
Zn71 Zn 0.52522 0.76305 0.42907 0.0
O72 O 0.53294 0.80002 0.4493 0.0
O73 O 0.51029 0.79782 0.47711 0.0
O74 O 0.55103 0.76433 0.40764 0.0
O75 O 0.50413 0.73231 0.47253 0.0
O76 O 0.52796 0.7326 0.44599 0.0
C77 C 0.52518 0.81077 0.46726 0.0
C78 C 0.47491 0.75641 0.41198 0.0
O79 O 0.49487 0.75791 0.40636 0.0
O80 O 0.47142 0.75629 0.43352 0.0
C81 C 0.5526 0.774 0.3893 0.0
O82 O 0.53651 0.78359 0.38268 0.0
C83 C 0.51859 0.72293 0.4625 0.0
Zn84 Zn 0.62898 0.317 0.58917 0.0
Zn85 Zn 0.60191 0.31612 0.62258 0.0
O86 O 0.59732 0.34565 0.60566 0.0
O87 O 0.61951 0.34567 0.57746 0.0
O88 O 0.57863 0.31479 0.64675 0.0
O89 O 0.61483 0.28024 0.5738 0.0
O90 O 0.59357 0.27904 0.6029 0.0
C91 C 0.60536 0.35491 0.58833 0.0
C92 C 0.65284 0.32398 0.63736 0.0
O93 O 0.63314 0.32251 0.64363 0.0
O94 O 0.65555 0.32317 0.61548 0.0
C95 C 0.55821 0.31415 0.6405 0.0
O96 O 0.55216 0.31467 0.6182 0.0
C97 C 0.60044 0.26778 0.58455 0.0
Zn98 Zn 0.99922 0.26589 0.96383 0.0
Zn99 Zn 0.02614 0.26713 0.9302 0.0
O100 O 0.03476 0.30397 0.95005 0.0
O101 O 0.01318 0.30277 0.97888 0.0
O102 O 0.0492 0.26852 0.90579 0.0
O103 O 0.009 0.23731 0.97534 0.0
O104 O 0.03081 0.23746 0.94677 0.0
C105 C 0.02769 0.31522 0.96824 0.0
C106 C 0.97505 0.25948 0.91614 0.0
O107 O 0.99475 0.26142 0.90973 0.0
O108 O 0.9724 0.25951 0.93792 0.0
C109 C 0.06967 0.26939 0.91207 0.0
O110 O 0.07577 0.26907 0.93442 0.0
C111 C 0.023 0.22812 0.96414 0.0
Zn112 Zn 0.44825 0.01728 0.27465 0.0
Zn113 Zn 0.43424 0.05373 0.28807 0.0
O114 O 0.45922 0.0592 0.31622 0.0
O115 O 0.4636 0.02162 0.3074 0.0
O116 O 0.41998 0.08253 0.29371 0.0
O117 O 0.46649 0.03047 0.25105 0.0
O118 O 0.44598 0.05704 0.25516 0.0
C119 C 0.46785 0.04246 0.32158 0.0
C120 C 0.4036 1.00095 0.27682 0.0
O121 O 0.40848 0.02293 0.28919 0.0
O122 O 0.41774 0.99389 0.26432 0.0
C123 C 0.39893 0.07821 0.28755 0.0
O124 O 0.38697 0.05522 0.27996 0.0
C125 C 0.4602 0.04776 0.24429 0.0
Zn126 Zn 0.27564 0.22188 0.51627 0.0
Zn127 Zn 0.30144 0.19213 0.51443 0.0
O128 O 0.30778 0.20876 0.48496 0.0
O129 O 0.28622 0.23434 0.48797 0.0
O130 O 0.32482 0.17253 0.51606 0.0
O131 O 0.28751 0.24128 0.54912 0.0
O132 O 0.30762 0.21446 0.54904 0.0
C133 C 0.30031 0.22517 0.47715 0.0
C134 C 0.25096 0.17055 0.50996 0.0
O135 O 0.27029 0.16634 0.50941 0.0
O136 O 0.24919 0.19247 0.51259 0.0
C137 C 0.32855 0.15735 0.4985 0.0
O138 O 0.31656 0.15344 0.47759 0.0
C139 C 0.30121 0.23272 0.56008 0.0
Zn140 Zn 0.15695 0.03376 0.77718 0.0
Zn141 Zn 0.18389 1.0066 0.77251 0.0
O142 O 0.16648 1.0055 0.80748 0.0
O143 O 0.14132 0.02662 0.8056 0.0
O144 O 0.2031 0.97564 0.76826 0.0
O145 O 0.13941 0.02588 0.74467 0.0
O146 O 0.16333 1.00385 0.73557 0.0
C147 C 0.15059 0.01408 0.81702 0.0
C148 C 0.20321 0.06455 0.78135 0.0
O149 O 0.20815 0.04352 0.7776 0.0
O150 O 0.18283 0.06452 0.78269 0.0
C151 C 0.21417 0.96816 0.78447 0.0
O152 O 0.21501 0.97973 0.80675 0.0
C153 C 0.14714 0.01305 0.72857 0.0
Zn154 Zn 0.36874 0.93928 0.01309 0.0
Zn155 Zn 0.33673 0.95444 0.02089 0.0
O156 O 0.32498 0.92715 0.99017 0.0
O157 O 0.35003 0.90655 0.99479 0.0
O158 O 0.31106 0.96856 0.02855 0.0
O159 O 0.3794 0.94274 0.04773 0.0
O160 O 0.34384 0.94086 0.05032 0.0
C161 C 0.33182 0.9078 0.98425 0.0
C162 C 0.37602 0.98545 1.00349 0.0
O163 O 0.36075 0.9852 0.01721 0.0
O164 O 0.38094 0.96557 0.99527 0.0
C165 C 0.30524 0.98182 0.01513 0.0
O166 O 0.3151 0.98411 0.99581 0.0
C167 C 0.36273 0.93937 0.05942 0.0
Zn168 Zn 0.34137 0.35527 0.03606 0.0
Zn169 Zn 0.31678 0.38584 0.03749 0.0
O170 O 0.31056 0.36393 1.0027 0.0
O171 O 0.328 0.33489 1.0038 0.0
O172 O 0.29398 0.40637 0.03722 0.0
O173 O 0.33272 0.34492 0.06602 0.0
O174 O 0.31015 0.36934 0.06701 0.0
C175 C 0.31587 0.34468 0.99217 0.0
C176 C 0.36727 0.40576 0.04051 0.0
O177 O 0.3484 0.41086 0.04233 0.0
O178 O 0.36829 0.38356 0.03742 0.0
C179 C 0.29654 0.42418 0.02639 0.0
O180 O 0.31449 0.42962 0.01541 0.0
C181 C 0.31831 0.35413 0.07616 0.0
Zn182 Zn 0.78428 0.17829 0.02177 0.0
Zn183 Zn 0.80774 0.14965 0.02203 0.0
O184 O 0.81016 0.15752 0.98852 0.0
O185 O 0.78024 0.17155 0.98601 0.0
O186 O 0.82761 0.12686 0.02262 0.0
O187 O 0.80732 0.20758 0.04116 0.0
O188 O 0.82096 0.17843 0.0512 0.0
C189 C 0.79564 0.16401 0.97618 0.0
C190 C 0.76068 0.13624 0.03515 0.0
O191 O 0.7764 0.12859 0.02575 0.0
O192 O 0.76143 0.15893 0.03876 0.0
C193 C 0.82093 0.10493 0.0102 0.0
O194 O 0.80081 0.09749 0.9979 0.0
C195 C 0.82007 0.20088 0.05527 0.0
Zn196 Zn 0.17395 0.56545 0.24201 0.0
Zn197 Zn 0.19771 0.53741 0.24479 0.0
O198 O 0.18596 0.54083 0.27764 0.0
O199 O 0.17611 0.57519 0.27768 0.0
O200 O 0.21707 0.51474 0.24753 0.0
O201 O 0.14808 0.53835 0.22338 0.0
O202 O 0.17464 0.51987 0.2151 0.0
C203 C 0.18009 0.55928 0.28875 0.0
C204 C 0.21617 0.58579 0.23045 0.0
O205 O 0.22005 0.56924 0.24094 0.0
O206 O 0.19608 0.58609 0.22493 0.0
C207 C 0.23222 0.51217 0.23418 0.0
O208 O 0.23486 0.52399 0.21659 0.0
C209 C 0.15458 0.52136 0.21076 0.0
Zn210 Zn 0.84185 0.85594 0.53557 0.0
Zn211 Zn 0.81695 0.88714 0.53504 0.0
O212 O 0.81259 0.8666 0.49991 0.0
O213 O 0.83379 0.8409 0.50065 0.0
O214 O 0.79493 0.90853 0.5335 0.0
O215 O 0.8257 0.84015 0.55986 0.0
O216 O 0.80725 0.86877 0.56267 0.0
C217 C 0.82056 0.84951 0.48903 0.0
C218 C 0.86783 0.90723 0.54735 0.0
O219 O 0.84878 0.91159 0.54327 0.0
O220 O 0.86897 0.88519 0.54604 0.0
C221 C 0.798 0.92528 0.52132 0.0
O222 O 0.81596 0.92908 0.51011 0.0
C223 C 0.81179 0.85041 0.56979 0.0
Zn224 Zn 0.97125 0.0459 0.27235 0.0
Zn225 Zn 0.94513 0.07391 0.2768 0.0
O226 O 0.9645 0.07556 0.3143 0.0
O227 O 0.98783 0.05272 0.30524 0.0
O228 O 0.92795 0.10627 0.27729 0.0
O229 O 0.98801 0.05275 0.24448 0.0
O230 O 0.96313 0.07409 0.24233 0.0
C231 C 0.98008 0.06552 0.32136 0.0
C232 C 0.92413 0.01656 0.26715 0.0
O233 O 0.91978 0.03788 0.27116 0.0
O234 O 0.9444 0.01595 0.26601 0.0
C235 C 0.9108 0.11236 0.28653 0.0
O236 O 0.89992 0.09776 0.29944 0.0
C237 C 0.979 0.06541 0.23297 0.0
Zn238 Zn 0.25107 0.66007 0.51781 0.0
Zn239 Zn 0.30178 0.63061 0.5287 0.0
O240 O 0.30512 0.63912 0.49522 0.0
O241 O 0.27271 0.64142 0.50425 0.0
O242 O 0.33055 0.62303 0.53893 0.0
O243 O 0.2713 0.68328 0.54684 0.0
O244 O 0.29801 0.66297 0.55158 0.0
C245 C 0.28786 0.64647 0.49098 0.0
C246 C 0.25802 0.60856 0.52766 0.0
O247 O 0.27494 0.60009 0.52955 0.0
O248 O 0.26179 0.62996 0.52321 0.0
C249 C 0.33153 0.60119 0.53036 0.0
O250 O 0.31375 0.58554 0.51711 0.0
C251 C 0.28902 0.68092 0.55827 0.0
Zn252 Zn 0.47237 0.54698 0.77401 0.0
Zn253 Zn 0.44561 0.57422 0.77824 0.0
O254 O 0.46505 0.57643 0.81597 0.0
O255 O 0.48899 0.55436 0.807 0.0
O256 O 0.42614 0.60468 0.77787 0.0
O257 O 0.48879 0.55392 0.74591 0.0
O258 O 0.46353 0.57473 0.74357 0.0
C259 C 0.48091 0.56679 0.8231 0.0
C260 C 0.42588 0.51648 0.76914 0.0
O261 O 0.4211 0.53758 0.77288 0.0
O262 O 0.44625 0.51633 0.76796 0.0
C263 C 0.4212 0.62161 0.79383 0.0
O264 O 0.4281 0.62275 0.81632 0.0
C265 C 0.47954 0.56627 0.73423 0.0
Zn266 Zn 0.69389 0.08424 0.72149 0.0
Zn267 Zn 0.7113 0.05261 0.73531 0.0
O268 O 0.69627 0.065 0.76403 0.0
O269 O 0.68922 0.09829 0.75493 0.0
O270 O 0.72794 0.03014 0.74666 0.0
O271 O 0.66892 0.05732 0.70206 0.0
O272 O 0.68825 0.03058 0.70696 0.0
C273 C 0.68965 0.08449 0.76971 0.0
C274 C 0.73887 0.09613 0.71662 0.0
O275 O 0.73743 0.07966 0.72899 0.0
O276 O 0.72113 0.09976 0.70737 0.0
C277 C 0.7377 0.03583 0.76801 0.0
O278 O 0.73565 0.05564 0.78261 0.0
C279 C 0.67111 0.0356 0.69754 0.0
Zn280 Zn 0.77213 0.72204 0.00852 0.0
Zn281 Zn 0.79924 0.69232 0.00966 0.0
O282 O 0.80648 0.70811 0.98006 0.0
O283 O 0.7875 0.73627 0.9825 0.0
O284 O 0.82064 0.67051 0.01115 0.0
O285 O 0.78193 0.73812 0.04347 0.0
O286 O 0.80527 0.71465 0.04393 0.0
C287 C 0.80101 0.72561 0.9722 0.0
C288 C 0.74832 0.67014 1.00006 0.0
O289 O 0.76804 0.66757 1.0043 0.0
O290 O 0.74559 0.69135 0.9997 0.0
C291 C 0.84159 0.67744 0.00948 0.0
O292 O 0.85023 0.69986 0.00632 0.0
C293 C 0.79674 0.73123 0.05479 0.0
Zn294 Zn 0.96489 0.53065 0.78283 0.0
Zn295 Zn 0.94164 0.56474 0.78838 0.0
O296 O 0.96351 0.57523 0.81981 0.0
O297 O 0.98278 0.54726 0.81441 0.0
O298 O 0.92456 0.5908 0.78949 0.0
O299 O 0.97653 0.54053 0.75396 0.0
O300 O 0.95579 0.56701 0.75679 0.0
C301 C 0.979 0.56615 0.82706 0.0
C302 C 0.91792 0.51004 0.78336 0.0
O303 O 0.91741 0.53253 0.78715 0.0
O304 O 0.93608 0.50412 0.78025 0.0
C305 C 0.90399 0.58738 0.79283 0.0
O306 O 0.89321 0.56646 0.79789 0.0
C307 C 0.96951 0.55681 0.74597 0.0
Zn308 Zn 0.85317 0.41258 0.53761 0.0
Zn309 Zn 0.82376 0.43472 0.5247 0.0
O310 O 0.81812 0.4056 0.49599 0.0
O311 O 0.84758 0.39206 0.50441 0.0
O312 O 0.80169 0.45415 0.51827 0.0
O313 O 0.83507 0.40022 0.56202 0.0
O314 O 0.81473 0.4258 0.55659 0.0
C315 C 0.83066 0.39129 0.4902 0.0
C316 C 0.87415 0.4609 0.5358 0.0
O317 O 0.85465 0.45863 0.52544 0.0
O318 O 0.87787 0.44422 0.54595 0.0
C319 C 0.80763 0.47765 0.52334 0.0
O320 O 0.82881 0.4892 0.53083 0.0
C321 C 0.81972 0.41038 0.56793 0.0
Zn322 Zn 0.65814 0.53371 0.27647 0.0
Zn323 Zn 0.68452 0.50691 0.27341 0.0
O324 O 0.66709 0.50778 0.30863 0.0
O325 O 0.64381 0.53092 0.30625 0.0
O326 O 0.70275 0.47532 0.27285 0.0
O327 O 0.63954 0.52422 0.24462 0.0
O328 O 0.66417 0.503 0.23604 0.0
C329 C 0.6523 0.51828 0.31825 0.0
C330 C 0.70397 0.56446 0.27952 0.0
O331 O 0.70918 0.54361 0.27751 0.0
O332 O 0.68346 0.56421 0.2797 0.0
C333 C 0.71942 0.46938 0.26241 0.0
O334 O 0.72882 0.48362 0.2484 0.0
C335 C 0.64761 0.51152 0.22876 0.0
Eu336 Eu 0.03788 0.02105 0.00998 0.0
C337 C 0.10163 0.11705 0.07254 0.0
C338 C 0.10482 0.14617 0.04652 0.0
C339 C 0.10956 0.16103 0.08965 0.0
C340 C 0.10059 0.12166 0.04978 0.0
C341 C 0.10688 0.13674 0.09276 0.0
C342 C 0.10851 0.16574 0.06654 0.0
C343 C 0.1095 0.10738 0.11738 0.0
N344 N 0.09955 0.09349 0.07485 0.0
C345 C 0.10436 0.08852 0.09677 0.0
C346 C 0.11035 0.13155 0.11542 0.0
Eu347 Eu 0.09037 0.06218 0.03934 0.0
N348 N 0.09752 0.10237 0.03092 0.0
C349 C 0.10085 0.10661 0.00859 0.0
C350 C 0.10635 0.15037 0.02336 0.0
C351 C 0.10484 0.13054 1.00439 0.0
H352 H 0.10361 0.06984 0.09844 0.0
H353 H 0.10666 0.13363 0.98649 0.0
H354 H 0.1115 0.18466 0.06437 0.0
H355 H 0.11274 0.10324 0.13475 0.0
H356 H 0.09969 0.09152 0.99369 0.0
H357 H 0.02169 0.94797 0.06089 0.0
H358 H 0.10953 0.1689 0.02009 0.0
H359 H 0.02459 0.01483 0.951 0.0
H360 H 0.02856 0.99047 0.05471 0.0
H361 H 0.01556 0.9822 0.91412 0.0
H362 H 0.11332 0.17638 0.10497 0.0
H363 H 0.01885 0.91339 0.0266 0.0
H364 H 0.01682 0.89867 0.98214 0.0
H365 H 0.11446 0.14616 0.13139 0.0
H366 H 0.01494 0.90799 0.94197 0.0
N367 N 0.03074 0.98049 0.01739 0.0
C368 C 0.02743 0.97567 0.03953 0.0
C369 C 0.022 0.93208 0.02378 0.0
C370 C 0.02348 0.93688 1.00082 0.0
C371 C 0.0235 0.95153 0.04315 0.0
C372 C 0.02765 0.96159 0.99816 0.0
H373 H 0.01381 0.939 0.91642 0.0
N374 N 0.0286 0.99051 0.9739 0.0
C375 C 0.01877 0.97762 0.93128 0.0
C376 C 0.02653 0.96678 0.97563 0.0
C377 C 0.02387 0.99605 0.95222 0.0
C378 C 0.01789 0.95328 0.93265 0.0
C379 C 0.02132 0.9475 0.95505 0.0
O380 O 0.00849 0.02968 0.99385 0.0
O381 O 0.05676 0.06135 0.02147 0.0
O382 O 0.06511 0.06766 0.06673 0.0
O383 O 0.03532 0.03312 0.05095 0.0
O384 O 0.04073 0.04941 0.98681 0.0
O385 O 1.00599 0.01311 0.02483 0.0
O386 O 0.11983 0.05464 0.05657 0.0
O387 O 0.07146 0.02193 0.02805 0.0
O388 O 0.06312 0.01513 0.98268 0.0
O389 O 0.09314 0.04943 0.99846 0.0
O390 O 0.08758 0.03398 0.06267 0.0
O391 O 0.12217 0.06906 0.02428 0.0
C392 C 0.05229 0.06852 1.00234 0.0
C393 C 0.9728 1.00581 0.99842 0.0
C394 C 0.93325 1.00403 0.98939 0.0
C395 C 0.95531 0.01732 0.99915 0.0
C396 C 0.92888 0.97872 0.9791 0.0
C397 C 0.96837 0.98062 0.98797 0.0
C398 C 0.94641 0.96713 0.97839 0.0
C399 C 0.04556 0.05228 0.0688 0.0
C400 C 0.99541 0.02085 0.00867 0.0
C401 C 0.01868 0.92303 0.95756 0.0
C402 C 0.01977 0.91772 0.98043 0.0
C403 C 0.07593 0.01483 0.04724 0.0
C404 C 0.15533 0.07808 0.05104 0.0
C405 C 0.17312 0.06707 0.04995 0.0
C406 C 0.19519 0.08097 0.05876 0.0
C407 C 0.1993 0.10633 0.06865 0.0
C408 C 0.15945 0.10333 0.06108 0.0
C409 C 0.18143 0.11739 0.06988 0.0
C410 C 0.08283 0.03025 0.98065 0.0
C411 C 0.13283 0.0625 0.04127 0.0
H412 H 0.95893 0.03674 0.00764 0.0
H413 H 0.91205 0.968 0.97135 0.0
H414 H 0.98176 0.97145 0.98729 0.0
H415 H 0.94297 0.94768 0.97032 0.0
H416 H 0.16976 0.0476 0.04174 0.0
H417 H 0.21621 0.11747 0.07553 0.0
H418 H 0.14582 0.11213 0.06198 0.0
H419 H 0.18464 0.1369 0.07759 0.0
Eu420 Eu 0.3288 0.78909 0.25228 0.0
C421 C 0.28433 0.85489 0.32305 0.0
C422 C 0.31641 0.88749 0.34395 0.0
C423 C 0.28008 0.89608 0.33787 0.0
C424 C 0.30689 0.86284 0.33151 0.0
C425 C 0.27047 0.87118 0.32677 0.0
C426 C 0.30305 0.90423 0.34643 0.0
C427 C 0.23835 0.83644 0.31097 0.0
N428 N 0.2756 0.83069 0.31282 0.0
C429 C 0.25281 0.82104 0.30788 0.0
C430 C 0.24726 0.86173 0.3201 0.0
Eu431 Eu 0.30091 0.80559 0.30616 0.0
N432 N 0.31918 0.84606 0.32898 0.0
C433 C 0.34066 0.85232 0.3404 0.0
C434 C 0.33883 0.89432 0.35429 0.0
C435 C 0.35084 0.87651 0.35293 0.0
H436 H 0.24589 0.80145 0.30083 0.0
H437 H 0.36804 0.88143 0.36139 0.0
H438 H 0.31014 0.9233 0.35565 0.0
H439 H 0.22037 0.82879 0.30636 0.0
H440 H 0.35041 0.83906 0.33953 0.0
H441 H 0.27015 0.71101 0.19022 0.0
H442 H 0.34678 0.91305 0.36397 0.0
H443 H 0.38444 0.79961 0.26458 0.0
H444 H 0.28284 0.75283 0.21556 0.0
H445 H 0.41363 0.77686 0.25931 0.0
H446 H 0.26978 0.90896 0.34062 0.0
H447 H 0.29549 0.68345 0.18722 0.0
H448 H 0.33373 0.67767 0.19752 0.0
H449 H 0.23603 0.87363 0.32266 0.0
H450 H 0.37284 0.69557 0.21639 0.0
N451 N 0.31492 0.74898 0.22766 0.0
C452 C 0.29414 0.74111 0.21455 0.0
C453 C 0.30118 0.70183 0.19846 0.0
C454 C 0.32294 0.71053 0.21077 0.0
C455 C 0.28685 0.71735 0.20007 0.0
C456 C 0.32948 0.73459 0.22525 0.0
H457 H 0.4029 0.7327 0.23901 0.0
N458 N 0.35753 0.7684 0.24816 0.0
C459 C 0.3962 0.76751 0.25277 0.0
C460 C 0.35146 0.7446 0.23588 0.0
C461 C 0.37967 0.78034 0.2557 0.0
C462 C 0.39005 0.74257 0.24138 0.0
C463 C 0.36753 0.73092 0.23234 0.0
O464 O 0.35264 0.8139 0.23585 0.0
O465 O 0.32164 0.81879 0.27915 0.0
O466 O 0.28062 0.81317 0.27475 0.0
O467 O 0.29375 0.79361 0.24095 0.0
O468 O 0.3545 0.82433 0.27195 0.0
O469 O 0.32011 0.79311 0.21606 0.0
O470 O 0.27649 0.7876 0.32727 0.0
O471 O 0.30629 0.77602 0.27815 0.0
O472 O 0.34438 0.77473 0.2819 0.0
O473 O 0.33599 0.79946 0.31549 0.0
O474 O 0.2742 0.77052 0.28821 0.0
O475 O 0.31222 0.79554 0.33872 0.0
C476 C 0.34063 0.83399 0.2836 0.0
C477 C 0.35058 0.80307 0.19406 0.0
C478 C 0.36608 0.81789 0.16029 0.0
C479 C 0.3565 0.82188 0.18157 0.0
C480 C 0.37006 0.79484 0.15167 0.0
C481 C 0.35478 0.78012 0.18563 0.0
C482 C 0.36462 0.77609 0.16451 0.0
C483 C 0.2794 0.80505 0.25124 0.0
C484 C 0.3397 0.80804 0.21553 0.0
C485 C 0.3608 0.70647 0.21908 0.0
C486 C 0.33853 0.69629 0.20833 0.0
C487 C 0.28706 0.76121 0.27463 0.0
C488 C 0.28837 0.79513 0.36861 0.0
C489 C 0.28606 0.77771 0.38288 0.0
C490 C 0.28435 0.78441 0.40731 0.0
C491 C 0.28496 0.80895 0.41746 0.0
C492 C 0.2887 0.81959 0.37861 0.0
C493 C 0.28692 0.82643 0.40303 0.0
C494 C 0.34777 0.78456 0.30516 0.0
C495 C 0.29192 0.7873 0.34379 0.0
H496 H 0.35285 0.83945 0.188 0.0
H497 H 0.37722 0.79136 0.13507 0.0
H498 H 0.35026 0.76535 0.19511 0.0
H499 H 0.36772 0.75834 0.15791 0.0
H500 H 0.28628 0.75895 0.37504 0.0
H501 H 0.28378 0.8145 0.43637 0.0
H502 H 0.29063 0.83333 0.36771 0.0
H503 H 0.2873 0.84533 0.41083 0.0
Eu504 Eu 0.59253 0.04479 0.51516 0.0
C505 C 0.50622 0.98716 0.54337 0.0
C506 C 0.49279 0.95585 0.50688 0.0
C507 C 0.48402 0.94618 0.54521 0.0
C508 C 0.50488 0.97997 0.51873 0.0
C509 C 0.4952 0.97057 0.55679 0.0
C510 C 0.48285 0.93883 0.5203 0.0
C511 C 0.50479 1.00416 0.59161 0.0
N512 N 0.51693 0.01091 0.55401 0.0
C513 C 0.51532 0.01996 0.57751 0.0
C514 C 0.49499 0.97925 0.58129 0.0
Eu515 Eu 0.53457 0.0362 0.52878 0.0
N516 N 0.51464 0.99683 0.50623 0.0
C517 C 0.51185 0.99132 0.48181 0.0
C518 C 0.49061 0.94974 0.48184 0.0
C519 C 0.4999 0.96768 0.46925 0.0
H520 H 0.5229 0.03926 0.58546 0.0
H521 H 0.49799 0.96327 0.44988 0.0
H522 H 0.47372 0.92013 0.51154 0.0
H523 H 0.50415 0.01122 0.61038 0.0
H524 H 0.51898 1.00506 0.47199 0.0
H525 H 0.63938 0.10852 0.59781 0.0
H526 H 0.48145 0.93141 0.47207 0.0
H527 H 0.59765 0.05406 0.45834 0.0
H528 H 0.62044 0.06842 0.57258 0.0
H529 H 0.60699 0.0887 0.43816 0.0
H530 H 0.47568 0.93308 0.55526 0.0
H531 H 0.64643 0.146 0.581 0.0
H532 H 0.6445 0.16489 0.54532 0.0
H533 H 0.48668 0.96708 0.59221 0.0
H534 H 0.63534 0.1596 0.50193 0.0
N535 N 0.61435 0.0824 0.54124 0.0
C536 C 0.62229 0.08431 0.56466 0.0
C537 C 0.63764 0.12829 0.56965 0.0
C538 C 0.63109 0.12612 0.54536 0.0
C539 C 0.63361 0.1072 0.57921 0.0
C540 C 0.61959 0.10259 0.53131 0.0
H541 H 0.6216 0.13136 0.4619 0.0
N542 N 0.60423 0.07672 0.49363 0.0
C543 C 0.60871 0.09218 0.45752 0.0
C544 C 0.61421 0.09969 0.50689 0.0
C545 C 0.60296 0.07256 0.46916 0.0
C546 C 0.61699 0.11618 0.47096 0.0
C547 C 0.62047 0.12013 0.49591 0.0
O548 O 0.61101 0.0294 0.4876 0.0
O549 O 0.55803 0.01731 0.50898 0.0
O550 O 0.55269 0.02306 0.55724 0.0
O551 O 0.5906 0.03759 0.5525 0.0
O552 O 0.58573 1.00498 0.51832 0.0
O553 O 0.62434 0.0369 0.52503 0.0
O554 O 0.51345 0.0586 0.54559 0.0
O555 O 0.56673 0.06464 0.52774 0.0
O556 O 0.56901 0.038 0.48081 0.0
O557 O 0.53962 0.05194 0.49573 0.0
O558 O 0.55157 0.06899 0.5588 0.0
O559 O 0.50487 0.04026 0.50845 0.0
C560 C 0.56428 0.9986 0.51306 0.0
C561 C 0.65053 0.03519 0.49709 0.0
C562 C 0.6875 0.02652 0.49716 0.0
C563 C 0.66508 0.0209 0.50243 0.0
C564 C 0.69495 0.04671 0.48627 0.0
C565 C 0.65844 0.05534 0.48652 0.0
C566 C 0.68055 0.06097 0.48109 0.0
C567 C 0.57435 0.02729 0.56403 0.0
C568 C 0.62732 0.02871 0.50303 0.0
C569 C 0.63077 0.14369 0.51003 0.0
C570 C 0.63605 0.14669 0.53471 0.0
C571 C 0.56769 0.07914 0.54779 0.0
C572 C 0.47499 0.04765 0.52967 0.0
C573 C 0.46161 0.06322 0.52455 0.0
C574 C 0.43839 0.05702 0.52675 0.0
C575 C 0.42895 0.03522 0.53453 0.0
C576 C 0.46509 0.02598 0.53721 0.0
C577 C 0.44223 0.0199 0.53973 0.0
C578 C 0.55163 0.0473 0.47823 0.0
C579 C 0.49905 0.0539 0.52649 0.0
H580 H 0.65897 1.00561 0.51102 0.0
H581 H 0.71187 0.05138 0.48147 0.0
H582 H 0.64759 0.06667 0.48249 0.0
H583 H 0.68655 0.07645 0.47276 0.0
H584 H 0.46918 0.07982 0.5184 0.0
H585 H 0.41127 0.03009 0.53678 0.0
H586 H 0.47494 0.0137 0.54106 0.0
H587 H 0.43475 1.00317 0.54566 0.0
Eu588 Eu 0.28584 0.29598 0.76912 0.0
C589 C 0.35967 0.26403 0.82668 0.0
C590 C 0.37017 0.2966 0.86235 0.0
C591 C 0.37304 0.25534 0.86422 0.0
C592 C 0.3618 0.28818 0.83784 0.0
C593 C 0.36599 0.24751 0.83952 0.0
C594 C 0.37507 0.27986 0.87565 0.0
C595 C 0.36052 0.21783 0.80208 0.0
N596 N 0.35315 0.25725 0.80279 0.0
C597 C 0.35441 0.23491 0.79018 0.0
C598 C 0.36593 0.22399 0.82694 0.0
Eu599 Eu 0.34209 0.28647 0.78365 0.0
N600 N 0.35735 0.30389 0.82431 0.0
C601 C 0.36294 0.32873 0.83372 0.0
C602 C 0.37425 0.32176 0.87249 0.0
C603 C 0.37106 0.33796 0.85798 0.0
H604 H 0.35002 0.23001 0.77097 0.0
H605 H 0.37476 0.35757 0.86548 0.0
H606 H 0.38125 0.28591 0.89455 0.0
H607 H 0.36094 0.19991 0.79209 0.0
H608 H 0.36048 0.34156 0.8229 0.0
H609 H 0.25181 0.22495 0.68752 0.0
H610 H 0.38061 0.32896 0.89126 0.0
H611 H 0.27864 0.35278 0.78199 0.0
H612 H 0.26667 0.24089 0.72995 0.0
H613 H 0.26784 0.38305 0.76104 0.0
H614 H 0.37769 0.24284 0.87447 0.0
H615 H 0.24596 0.25365 0.66185 0.0
H616 H 0.24571 0.29681 0.65863 0.0
H617 H 0.37072 0.21077 0.83612 0.0
H618 H 0.2499 0.34001 0.67874 0.0
N619 N 0.27009 0.27862 0.72858 0.0
C620 C 0.2642 0.25377 0.71919 0.0
C621 C 0.25254 0.26082 0.68056 0.0
C622 C 0.25695 0.28602 0.6907 0.0
C623 C 0.25574 0.24457 0.69501 0.0
C624 C 0.26563 0.29441 0.71513 0.0
H625 H 0.25755 0.37218 0.71708 0.0
N626 N 0.27495 0.32542 0.75014 0.0
C627 C 0.26799 0.36505 0.75101 0.0
C628 C 0.26813 0.31863 0.72631 0.0
C629 C 0.27403 0.34787 0.76282 0.0
C630 C 0.26229 0.35888 0.72619 0.0
C631 C 0.26186 0.33526 0.71357 0.0
O632 O 0.26261 0.30747 0.7933 0.0
O633 O 0.31149 0.29466 0.79795 0.0
O634 O 0.31671 0.2517 0.78962 0.0
O635 O 0.28315 0.25508 0.77062 0.0
O636 O 0.29718 0.3242 0.8037 0.0
O637 O 0.25344 0.27074 0.77142 0.0
O638 O 0.36551 0.27523 0.75958 0.0
O639 O 0.31637 0.28763 0.7549 0.0
O640 O 0.31129 0.33039 0.76253 0.0
O641 O 0.34474 0.32727 0.78196 0.0
O642 O 0.331 0.25833 0.74898 0.0
O643 O 0.37444 0.31191 0.78154 0.0
C644 C 0.31072 0.31362 0.81301 0.0
C645 C 0.22374 0.28852 0.78213 0.0
C646 C 0.18617 0.28616 0.79467 0.0
C647 C 0.20861 0.28487 0.79929 0.0
C648 C 0.17941 0.29152 0.77273 0.0
C649 C 0.21645 0.29376 0.76046 0.0
C650 C 0.19443 0.2953 0.75586 0.0
C651 C 0.29512 0.24221 0.78065 0.0
C652 C 0.24704 0.28674 0.78685 0.0
C653 C 0.2545 0.32743 0.68892 0.0
C654 C 0.2521 0.30284 0.67748 0.0
C655 C 0.3172 0.26873 0.73983 0.0
C656 C 0.40432 0.29448 0.77075 0.0
C657 C 0.4194 0.29829 0.75354 0.0
C658 C 0.44191 0.29721 0.7581 0.0
C659 C 0.4488 0.29191 0.78003 0.0
C660 C 0.41175 0.28929 0.79239 0.0
C661 C 0.43384 0.28797 0.79693 0.0
C662 C 0.33285 0.33996 0.77158 0.0
C663 C 0.38096 0.29604 0.76608 0.0
H664 H 0.21421 0.28065 0.81599 0.0
H665 H 0.16251 0.29311 0.76868 0.0
H666 H 0.22776 0.29661 0.74708 0.0
H667 H 0.18896 0.29944 0.73911 0.0
H668 H 0.41369 0.30247 0.73687 0.0
H669 H 0.46576 0.29047 0.78403 0.0
H670 H 0.40047 0.2863 0.80579 0.0
H671 H 0.43942 0.28386 0.81367 0.0
Eu672 Eu 0.05858 0.06318 0.54025 0.0
C673 C 0.08111 0.98686 0.45944 0.0
C674 C 0.05173 0.98074 0.42692 0.0
C675 C 0.08811 0.97466 0.41825 0.0
C676 C 0.05961 0.98725 0.45161 0.0
C677 C 0.09551 0.98015 0.44289 0.0
C678 C 0.06624 0.97495 0.41028 0.0
C679 C 0.12288 0.98308 0.47626 0.0
N680 N 0.08763 0.99206 0.48335 0.0
C681 C 0.10796 0.98952 0.49196 0.0
C682 C 0.11674 0.97862 0.4516 0.0
Eu683 Eu 0.0621 1.00459 0.50896 0.0
N684 N 0.04599 0.99266 0.46818 0.0
C685 C 0.02373 0.99001 0.4613 0.0
C686 C 0.0293 0.97951 0.41974 0.0
C687 C 0.01516 0.9838 0.43704 0.0
H688 H 0.11298 0.99289 0.51095 0.0
H689 H 0.99764 0.98239 0.43173 0.0
H690 H 0.06055 0.97012 0.39124 0.0
H691 H 0.13911 0.98155 0.48321 0.0
H692 H 0.01249 0.99321 0.47435 0.0
H693 H 0.12618 0.08902 0.61469 0.0
H694 H 0.02261 0.97465 0.40096 0.0
H695 H 0.0065 0.07114 0.54054 0.0
H696 H 0.10956 0.0771 0.5725 0.0
H697 H 0.98096 0.08126 0.56973 0.0
H698 H 0.09898 0.96965 0.40525 0.0
H699 H 0.10212 0.09502 0.6468 0.0
H700 H 0.06408 0.09705 0.65837 0.0
H701 H 0.12829 0.97354 0.43948 0.0
H702 H 0.02461 0.09521 0.64613 0.0
N703 N 0.07611 0.07529 0.5804 0.0
C704 C 0.09877 0.07955 0.58622 0.0
C705 C 0.09468 0.08966 0.62825 0.0
C706 C 0.07173 0.08688 0.62211 0.0
C707 C 0.10832 0.08636 0.61019 0.0
C708 C 0.06287 0.07979 0.59769 0.0
H709 H 0.99361 0.08979 0.61314 0.0
N710 N 0.03324 0.07345 0.56713 0.0
C711 C 0.9977 0.08058 0.57592 0.0
C712 C 0.04074 0.07889 0.59083 0.0
C713 C 0.01225 0.0749 0.55943 0.0
C714 C 1.00488 0.0853 0.6004 0.0
C715 C 0.02674 0.08484 0.60815 0.0
O716 O 0.05036 0.09579 0.53152 0.0
O717 O 0.0548 0.04019 0.50237 0.0
O718 O 0.09107 0.03144 0.49855 0.0
O719 O 0.09389 0.06423 0.53056 0.0
O720 O 0.0303 0.0579 0.51026 0.0
O721 O 0.08511 0.0966 0.54145 0.0
O722 O 0.06839 0.97413 0.52404 0.0
O723 O 0.06619 0.0281 0.54672 0.0
O724 O 0.03055 0.03483 0.55062 0.0
O725 O 0.02651 1.00521 0.5161 0.0
O726 O 0.09112 0.01124 0.53858 0.0
O727 O 0.03571 0.9703 0.50528 0.0
C728 C 0.03703 0.04464 0.49301 0.0
C729 C 0.07581 0.13458 0.54806 0.0
C730 C 0.08867 0.17798 0.54657 0.0
C731 C 0.08393 0.15292 0.53548 0.0
C732 C 0.08547 0.18443 0.57077 0.0
C733 C 0.07259 0.1411 0.57212 0.0
C734 C 0.07748 0.16603 0.58343 0.0
C735 C 0.10182 0.05311 0.512 0.0
C736 C 0.07124 0.10889 0.53541 0.0
C737 C 0.03516 0.09078 0.63255 0.0
C738 C 0.05763 0.09179 0.63952 0.0
C739 C 0.08444 0.02455 0.55582 0.0
C740 C 0.04588 0.93356 0.50842 0.0
C741 C 0.04174 0.91809 0.52481 0.0
C742 C 0.03856 0.89249 0.51743 0.0
C743 C 0.03974 0.88258 0.4933 0.0
C744 C 0.04725 0.92353 0.48448 0.0
C745 C 0.04419 0.89806 0.477 0.0
C746 C 0.01877 0.01455 0.53561 0.0
C747 C 0.04818 0.95996 0.51698 0.0
H748 H 0.08672 0.14757 0.51698 0.0
H749 H 0.08877 0.20362 0.57977 0.0
H750 H 0.06638 0.12704 0.58206 0.0
H751 H 0.07496 0.17112 0.60201 0.0
H752 H 0.0405 0.92598 0.54327 0.0
H753 H 0.03745 0.86292 0.48711 0.0
H754 H 0.05053 0.9353 0.47167 0.0
H755 H 0.0452 0.89029 0.45849 0.0
Eu756 Eu 0.3419 0.81309 0.77021 0.0
C757 C 0.27924 0.73854 0.81793 0.0
C758 C 0.29004 0.70042 0.80633 0.0
C759 C 0.27379 0.70848 0.84339 0.0
C760 C 0.2886 0.72359 0.80215 0.0
C761 C 0.27134 0.73092 0.83853 0.0
C762 C 0.28309 0.69323 0.8273 0.0
C763 C 0.25732 0.76707 0.84694 0.0
N764 N 0.27685 0.75999 0.81255 0.0
C765 C 0.26528 0.77379 0.82628 0.0
C766 C 0.26062 0.74572 0.85328 0.0
Eu767 Eu 0.29194 0.77053 0.77763 0.0
N768 N 0.29496 0.73093 0.78195 0.0
C769 C 0.30108 0.71508 0.76427 0.0
C770 C 0.29764 0.68476 0.78889 0.0
C771 C 0.30279 0.69195 0.76757 0.0
H772 H 0.26232 0.79026 0.82177 0.0
H773 H 0.30819 0.67977 0.75371 0.0
H774 H 0.28428 0.67563 0.83091 0.0
H775 H 0.24861 0.77838 0.85795 0.0
H776 H 0.30507 0.72035 0.74769 0.0
H777 H 0.32613 0.904 0.79453 0.0
H778 H 0.29898 0.66683 0.79142 0.0
H779 H 0.36871 0.79206 0.72428 0.0
H780 H 0.33008 0.86369 0.80077 0.0
H781 H 0.38052 0.80311 0.68693 0.0
H782 H 0.26799 0.70244 0.85921 0.0
H783 H 0.33292 0.9159 0.75585 0.0
H784 H 0.34544 0.90616 0.71528 0.0
H785 H 0.25434 0.74052 0.86925 0.0
H786 H 0.36043 0.87879 0.6861 0.0
N787 N 0.3381 0.85232 0.76571 0.0
C788 C 0.33295 0.86856 0.78377 0.0
C789 C 0.33454 0.89809 0.75845 0.0
C790 C 0.34122 0.88204 0.74054 0.0
C791 C 0.33078 0.89149 0.78033 0.0
C792 C 0.34307 0.85905 0.74484 0.0
H793 H 0.37389 0.8406 0.67556 0.0
N794 N 0.35456 0.8225 0.73395 0.0
C795 C 0.37232 0.81463 0.69839 0.0
C796 C 0.35168 0.84375 0.72851 0.0
C797 C 0.36552 0.80842 0.71968 0.0
C798 C 0.3685 0.83578 0.69201 0.0
C799 C 0.35842 0.85087 0.7073 0.0
O800 O 0.37631 0.81124 0.77874 0.0
O801 O 0.32988 0.77571 0.78093 0.0
O802 O 0.31032 0.78523 0.81459 0.0
O803 O 0.33157 0.82208 0.80757 0.0
O804 O 0.35355 0.77816 0.75768 0.0
O805 O 0.36659 0.84402 0.79412 0.0
O806 O 0.2586 0.77353 0.76593 0.0
O807 O 0.30407 0.80843 0.7679 0.0
O808 O 0.32234 0.79852 0.7337 0.0
O809 O 0.30343 0.76114 0.74109 0.0
O810 O 0.28049 0.80523 0.79122 0.0
O811 O 0.26802 0.74005 0.75245 0.0
C812 C 0.34233 0.76336 0.76957 0.0
C813 C 0.40387 0.84867 0.78423 0.0
C814 C 0.44435 0.85613 0.7837 0.0
C815 C 0.42413 0.84327 0.79036 0.0
C816 C 0.44405 0.87453 0.77062 0.0
C817 C 0.40375 0.86707 0.77113 0.0
C818 C 0.42379 0.87987 0.76431 0.0
C819 C 0.3222 0.8083 0.82218 0.0
C820 C 0.38312 0.83389 0.79081 0.0
C821 C 0.35552 0.87313 0.70238 0.0
C822 C 0.34695 0.88869 0.71898 0.0
C823 C 0.2918 0.82057 0.77992 0.0
C824 C 0.2297 0.73682 0.75784 0.0
C825 C 0.21147 0.74694 0.75515 0.0
C826 C 0.18993 0.73419 0.75848 0.0
C827 C 0.18654 0.71098 0.7645 0.0
C828 C 0.22634 0.71379 0.76434 0.0
C829 C 0.20477 0.70095 0.76761 0.0
C830 C 0.31113 0.77526 0.72619 0.0
C831 C 0.25185 0.75093 0.75374 0.0
H832 H 0.42416 0.82929 0.80079 0.0
H833 H 0.45945 0.88478 0.76535 0.0
H834 H 0.3883 0.87156 0.76619 0.0
H835 H 0.42364 0.89403 0.75419 0.0
H836 H 0.21398 0.76469 0.75009 0.0
H837 H 0.1699 0.7008 0.76695 0.0
H838 H 0.24024 0.70572 0.76681 0.0
H839 H 0.20217 0.68316 0.77249 0.0
Eu840 Eu 0.57065 0.03859 0.04275 0.0
C841 C 0.51582 0.07652 0.96997 0.0
C842 C 0.48341 0.04193 0.95399 0.0
C843 C 0.48067 0.08384 0.95534 0.0
C844 C 0.50588 0.05137 0.96486 0.0
C845 C 0.50348 0.093 0.96468 0.0
C846 C 0.47069 0.05833 0.94985 0.0
C847 C 0.53795 0.12581 0.9746 0.0
N848 N 0.53809 0.08465 0.97806 0.0
C849 C 0.54953 0.10865 0.9791 0.0
C850 C 0.51474 0.11803 0.96774 0.0
Eu851 Eu 0.55667 0.05447 0.98489 0.0
N852 N 0.51864 0.03602 0.96898 0.0
C853 C 0.51031 0.01101 0.96176 0.0
C854 C 0.47466 0.0163 0.94684 0.0
C855 C 0.48821 1.00079 0.95062 0.0
H856 H 0.56754 0.11461 0.98413 0.0
H857 H 0.48165 0.98095 0.94502 0.0
H858 H 0.45332 0.05145 0.9418 0.0
H859 H 0.54696 0.14495 0.97621 0.0
H860 H 0.52062 0.99885 0.96459 0.0
H861 H 0.5592 0.09897 0.12525 0.0
H862 H 0.4576 0.00831 0.93807 0.0
H863 H 0.61487 0.01278 0.03716 0.0
H864 H 0.54687 0.06712 0.08837 0.0
H865 H 0.65492 0.02351 0.05231 0.0
H866 H 0.47086 0.09623 0.95137 0.0
H867 H 0.59975 0.11718 0.13893 0.0
H868 H 0.63963 0.11686 0.1338 0.0
H869 H 0.50585 0.13128 0.96391 0.0
H870 H 0.66596 0.09655 0.11346 0.0
N871 N 0.58016 0.0671 0.08049 0.0
C872 C 0.56464 0.07445 0.09406 0.0
C873 C 0.59445 0.10303 0.12264 0.0
C874 C 0.61021 0.09416 0.10974 0.0
C875 C 0.57156 0.09271 0.11506 0.0
C876 C 0.60244 0.07569 0.08863 0.0
H877 H 0.67173 0.0612 0.08357 0.0
N878 N 0.60894 0.04515 0.05812 0.0
C879 C 0.64464 0.03545 0.05915 0.0
C880 C 0.61729 0.0644 0.07704 0.0
C881 C 0.62186 0.02967 0.05028 0.0
C882 C 0.65406 0.05673 0.07678 0.0
C883 C 0.64022 0.07107 0.08652 0.0
O884 O 0.55049 1.00011 0.03512 0.0
O885 O 0.54366 0.03526 0.01339 0.0
O886 O 0.55091 0.08417 0.01409 0.0
O887 O 0.57048 0.07919 0.04878 0.0
O888 O 0.53623 0.0434 0.04867 0.0
O889 O 0.57092 0.01548 0.06903 0.0
O890 O 0.58058 0.06824 0.96127 0.0
O891 O 0.58353 0.05274 0.01187 0.0
O892 O 0.58596 0.01926 0.01273 0.0
O893 O 0.5606 0.01516 0.9797 0.0
O894 O 0.59005 0.08379 0.99718 0.0
O895 O 0.55339 0.03546 0.94751 0.0
C896 C 0.52878 0.03968 0.02639 0.0
C897 C 0.53579 0.98753 0.06852 0.0
C898 C 0.50817 0.99546 0.0953 0.0
C899 C 0.52673 1.00404 0.0835 0.0
C900 C 0.49839 0.96979 0.09122 0.0
C901 C 0.52579 0.96212 0.06457 0.0
C902 C 0.50708 0.95332 0.07584 0.0
C903 C 0.56047 0.09207 0.03659 0.0
C904 C 0.55524 0.99692 0.05647 0.0
C905 C 0.64832 0.09084 0.10629 0.0
C906 C 0.63332 0.10238 0.11789 0.0
C907 C 0.59769 0.07278 0.01231 0.0
C908 C 0.56564 0.06179 0.92134 0.0
C909 C 0.58265 0.06591 0.90674 0.0
C910 C 0.58018 0.07719 0.88746 0.0
C911 C 0.56049 0.08448 0.88282 0.0
C912 C 0.54572 0.06854 0.91638 0.0
C913 C 0.54322 0.07994 0.89719 0.0
C914 C 0.5764 1.00787 0.99082 0.0
C915 C 0.56991 0.05195 0.94243 0.0
H916 H 0.5343 0.02362 0.08599 0.0
H917 H 0.48441 0.96228 0.10035 0.0
H918 H 0.53244 0.94915 0.05282 0.0
H919 H 0.49946 0.93365 0.07289 0.0
H920 H 0.59807 0.06076 0.91066 0.0
H921 H 0.55838 0.09324 0.86794 0.0
H922 H 0.53226 0.0652 0.92732 0.0
H923 H 0.52792 0.08529 0.89349 0.0
Eu924 Eu 0.33113 0.31821 0.28823 0.0
C925 C 0.23335 0.26053 0.27226 0.0
C926 C 0.22195 0.23093 0.2972 0.0
C927 C 0.196 0.25343 0.28531 0.0
C928 C 0.23822 0.24363 0.28465 0.0
C929 C 0.21187 0.26511 0.27196 0.0
C930 C 0.20107 0.23642 0.29798 0.0
C931 C 0.22285 0.29179 0.24461 0.0
N932 N 0.24925 0.27182 0.25984 0.0
C933 C 0.24398 0.28701 0.24573 0.0
C934 C 0.20679 0.28101 0.25795 0.0
Eu935 Eu 0.28485 0.26197 0.2627 0.0
N936 N 0.25838 0.2385 0.2833 0.0
C937 C 0.26249 0.21913 0.2921 0.0
C938 C 0.22686 0.21247 0.3079 0.0
C939 C 0.24709 0.20626 0.30497 0.0
H940 H 0.25576 0.29601 0.23531 0.0
H941 H 0.25079 0.19145 0.31246 0.0
H942 H 0.18849 0.22711 0.30777 0.0
H943 H 0.21906 0.30403 0.23357 0.0
H944 H 0.27798 0.21395 0.28946 0.0
H945 H 0.3766 0.31416 0.20956 0.0
H946 H 0.21484 0.20235 0.31771 0.0
H947 H 0.35322 0.32916 0.34592 0.0
H948 H 0.34431 0.31511 0.23143 0.0
H949 H 0.38754 0.32783 0.36971 0.0
H950 H 0.17962 0.25708 0.28558 0.0
H951 H 0.41243 0.31255 0.23038 0.0
H952 H 0.43408 0.30978 0.26782 0.0
H953 H 0.1905 0.28493 0.25719 0.0
H954 H 0.43661 0.31197 0.31122 0.0
N955 N 0.36092 0.3138 0.26487 0.0
C956 C 0.3595 0.31429 0.24105 0.0
C957 C 0.39807 0.31264 0.24013 0.0
C958 C 0.39954 0.31206 0.26442 0.0
C959 C 0.37795 0.31373 0.22839 0.0
C960 C 0.38058 0.31315 0.27657 0.0
H961 H 0.41939 0.3187 0.34935 0.0
N962 N 0.36419 0.31781 0.31228 0.0
C963 C 0.38615 0.32367 0.35036 0.0
C964 C 0.38209 0.31463 0.30093 0.0
C965 C 0.36658 0.324 0.33679 0.0
C966 C 0.40407 0.31854 0.33881 0.0
C967 C 0.40247 0.31472 0.31386 0.0
O968 O 0.34283 0.35356 0.31408 0.0
O969 O 0.29387 0.30157 0.28095 0.0
O970 O 0.28933 0.28593 0.23516 0.0
O971 O 0.31507 0.32342 0.25346 0.0
O972 O 0.30635 0.32443 0.31454 0.0
O973 O 0.33721 0.353 0.2758 0.0
O974 O 0.2845 0.24977 0.22401 0.0
O975 O 0.32154 0.2806 0.26499 0.0
O976 O 0.32741 0.29395 0.31572 0.0
O977 O 0.29467 0.2617 0.30191 0.0
O978 O 0.31318 0.24531 0.27154 0.0
O979 O 0.27293 0.22291 0.24492 0.0
C980 C 0.28859 0.31067 0.30084 0.0
C981 C 0.35082 0.39319 0.30269 0.0
C982 C 0.34501 0.43217 0.29623 0.0
C983 C 0.33918 0.40625 0.29045 0.0
C984 C 0.36321 0.44492 0.31389 0.0
C985 C 0.36882 0.40608 0.32042 0.0
C986 C 0.37512 0.43188 0.3258 0.0
C987 C 0.3008 0.30876 0.23518 0.0
C988 C 0.34365 0.36617 0.29741 0.0
C989 C 0.42093 0.31217 0.30163 0.0
C990 C 0.41951 0.31102 0.27696 0.0
C991 C 0.32951 0.26335 0.26926 0.0
C992 C 0.29499 0.21256 0.21439 0.0
C993 C 0.30674 0.20104 0.22865 0.0
C994 C 0.32337 0.19005 0.21975 0.0
C995 C 0.32774 0.19029 0.19603 0.0
C996 C 0.29962 0.21248 0.19079 0.0
C997 C 0.31587 0.20134 0.18168 0.0
C998 C 0.31188 0.27435 0.31832 0.0
C999 C 0.27939 0.22649 0.22455 0.0
H1000 H 0.32486 0.39616 0.27725 0.0
H1001 H 0.36809 0.46491 0.3186 0.0
H1002 H 0.37799 0.39621 0.33003 0.0
H1003 H 0.38906 0.44179 0.33943 0.0
H1004 H 0.30341 0.20121 0.24695 0.0
H1005 H 0.34008 0.18161 0.18837 0.0
H1006 H 0.29091 0.22139 0.17954 0.0
H1007 H 0.31938 0.2014 0.16346 0.0
Eu1008 Eu 0.56077 0.56395 0.04249 0.0
C1009 C 0.58017 0.48978 0.95822 0.0
C1010 C 0.54904 0.48267 0.92732 0.0
C1011 C 0.58532 0.47834 0.9163 0.0
C1012 C 0.55806 0.48919 0.9517 0.0
C1013 C 0.594 0.48407 0.94061 0.0
C1014 C 0.56287 0.47764 0.90967 0.0
C1015 C 0.62363 0.48889 0.9724 0.0
N1016 N 0.58799 0.49526 0.98184 0.0
C1017 C 0.60925 0.49431 0.98917 0.0
C1018 C 0.61603 0.48392 0.94799 0.0
Eu1019 Eu 0.56308 0.50557 0.00922 0.0
N1020 N 0.54513 0.49402 0.9692 0.0
C1021 C 0.52263 0.49109 0.96359 0.0
C1022 C 0.52625 0.48087 0.92145 0.0
C1023 C 0.51293 0.48482 0.93969 0.0
H1024 H 0.61535 0.49827 0.00798 0.0
H1025 H 0.4952 0.4831 0.93537 0.0
H1026 H 0.55627 0.47276 0.89086 0.0
H1027 H 0.64056 0.48857 0.9783 0.0
H1028 H 0.51204 0.4941 0.97738 0.0
H1029 H 0.62598 0.58519 0.1188 0.0
H1030 H 0.51868 0.47599 0.90295 0.0
H1031 H 0.51024 0.57624 0.04191 0.0
H1032 H 0.61065 0.57534 0.0763 0.0
H1033 H 0.48425 0.58659 0.07036 0.0
H1034 H 0.59571 0.47404 0.90252 0.0
H1035 H 0.60107 0.59078 0.15014 0.0
H1036 H 0.56298 0.59389 0.16067 0.0
H1037 H 0.62719 0.47966 0.93503 0.0
H1038 H 0.52439 0.59452 0.14747 0.0
N1039 N 0.57703 0.57421 0.08316 0.0
C1040 C 0.59948 0.5776 0.08966 0.0
C1041 C 0.59419 0.58631 0.13144 0.0
C1042 C 0.57156 0.58457 0.12469 0.0
C1043 C 0.6083 0.58326 0.11382 0.0
C1044 C 0.56344 0.57865 0.10007 0.0
H1045 H 0.49504 0.59227 0.11386 0.0
N1046 N 0.53529 0.57512 0.06887 0.0
C1047 C 0.50036 0.58443 0.07689 0.0
C1048 C 0.54186 0.57918 0.09269 0.0
C1049 C 0.51517 0.57855 0.06081 0.0
C1050 C 0.50648 0.58755 0.10142 0.0
C1051 C 0.52761 0.58536 0.10964 0.0
O1052 O 0.55519 0.59667 0.03148 0.0
O1053 O 0.55631 0.54159 1.00418 0.0
O1054 O 0.59053 0.53425 0.99849 0.0
O1055 O 0.59607 0.56296 0.03402 0.0
O1056 O 0.53264 0.56015 0.01259 0.0
O1057 O 0.58828 0.59734 0.04734 0.0
O1058 O 0.57128 0.47338 0.01919 0.0
O1059 O 0.56754 0.52793 0.0474 0.0
O1060 O 0.53145 0.53675 0.05194 0.0
O1061 O 0.52784 0.50526 0.01857 0.0
O1062 O 0.59191 0.51032 0.03859 0.0
O1063 O 0.53665 0.47188 0.00765 0.0
C1064 C 0.53872 0.54652 0.99509 0.0
C1065 C 0.57853 0.63506 0.05195 0.0
C1066 C 0.58613 0.67839 0.05024 0.0
C1067 C 0.58436 0.6538 0.03936 0.0
C1068 C 0.58272 0.68412 0.07444 0.0
C1069 C 0.57501 0.64076 0.07601 0.0
C1070 C 0.57726 0.66533 0.08725 0.0
C1071 C 0.60297 0.55393 0.01382 0.0
C1072 C 0.57573 0.60981 0.03895 0.0
C1073 C 0.53516 0.58994 0.13418 0.0
C1074 C 0.55711 0.58956 0.14169 0.0
C1075 C 0.5854 0.52334 0.0562 0.0
C1076 C 0.54568 0.43373 0.00629 0.0
C1077 C 0.54153 0.41813 0.02255 0.0
C1078 C 0.53586 0.39236 0.01462 0.0
C1079 C 0.53452 0.38237 0.99001 0.0
C1080 C 0.54448 0.42362 0.98185 0.0
C1081 C 0.53894 0.39796 0.97378 0.0
C1082 C 0.52015 0.51582 0.0376 0.0
C1083 C 0.55039 0.46034 0.01561 0.0
H1084 H 0.58741 0.64908 0.02087 0.0
H1085 H 0.58381 0.70293 0.08329 0.0
H1086 H 0.57049 0.62636 0.08597 0.0
H1087 H 0.57449 0.66978 0.10581 0.0
H1088 H 0.5422 0.42613 0.04141 0.0
H1089 H 0.53027 0.36256 0.98337 0.0
H1090 H 0.54763 0.43551 0.96912 0.0
H1091 H 0.53796 0.39011 0.95489 0.0
Eu1092 Eu 0.84263 0.31298 0.27032 0.0
C1093 C 0.77557 0.23507 0.3083 0.0
C1094 C 0.78811 0.19803 0.29654 0.0
C1095 C 0.76833 0.20302 0.3315 0.0
C1096 C 0.78676 0.2215 0.29321 0.0
C1097 C 0.7656 0.22554 0.32713 0.0
C1098 C 0.77957 0.18929 0.31624 0.0
C1099 C 0.74832 0.25939 0.33389 0.0
N1100 N 0.77287 0.25661 0.30339 0.0
C1101 C 0.75851 0.26812 0.31508 0.0
C1102 C 0.75227 0.23831 0.3403 0.0
Eu1103 Eu 0.79119 0.27004 0.27135 0.0
N1104 N 0.79442 0.23015 0.274 0.0
C1105 C 0.80131 0.21517 0.2562 0.0
C1106 C 0.79694 0.18345 0.2793 0.0
C1107 C 0.80305 0.19183 0.25875 0.0
H1108 H 0.7548 0.2841 0.31013 0.0
H1109 H 0.8092 0.18038 0.24491 0.0
H1110 H 0.78074 0.17147 0.31925 0.0
H1111 H 0.73735 0.26887 0.34338 0.0
H1112 H 0.80597 0.22135 0.24017 0.0
H1113 H 0.82667 0.40261 0.30329 0.0
H1114 H 0.79825 0.16534 0.2812 0.0
H1115 H 0.8724 0.29747 0.22561 0.0
H1116 H 0.8294 0.36071 0.30502 0.0
H1117 H 0.8877 0.31372 0.19165 0.0
H1118 H 0.76103 0.19559 0.34607 0.0
H1119 H 0.83655 0.41977 0.26777 0.0
H1120 H 0.85195 0.41511 0.2283 0.0
H1121 H 0.74425 0.23152 0.35481 0.0
H1122 H 0.86876 0.391 0.198 0.0
N1123 N 0.83982 0.35361 0.27036 0.0
C1124 C 0.83365 0.36784 0.28932 0.0
C1125 C 0.83765 0.40126 0.26836 0.0
C1126 C 0.84536 0.3872 0.24966 0.0
C1127 C 0.83214 0.39168 0.28847 0.0
C1128 C 0.84644 0.36317 0.25128 0.0
H1129 H 0.88257 0.35345 0.18446 0.0
N1130 N 0.85808 0.32732 0.2373 0.0
C1131 C 0.87872 0.32397 0.20343 0.0
C1132 C 0.85599 0.34968 0.23429 0.0
C1133 C 0.86999 0.31481 0.22274 0.0
C1134 C 0.87572 0.34636 0.19939 0.0
C1135 C 0.86458 0.35972 0.21512 0.0
O1136 O 0.87728 0.31118 0.27718 0.0
O1137 O 0.82905 0.27427 0.27773 0.0
O1138 O 0.80485 0.28319 0.31021 0.0
O1139 O 0.83141 0.31874 0.30726 0.0
O1140 O 0.85415 0.27839 0.25612 0.0
O1141 O 0.86596 0.33992 0.29909 0.0
O1142 O 0.76142 0.27551 0.25234 0.0
O1143 O 0.80486 0.30911 0.265 0.0
O1144 O 0.82513 0.30179 0.23281 0.0
O1145 O 0.80527 0.26301 0.23582 0.0
O1146 O 0.78024 0.30451 0.28717 0.0
O1147 O 0.76504 0.23878 0.24986 0.0
C1148 C 0.8421 0.26265 0.26655 0.0
C1149 C 0.90428 0.34879 0.29226 0.0
C1150 C 0.94523 0.36009 0.29874 0.0
C1151 C 0.9244 0.34396 0.30004 0.0
C1152 C 0.94571 0.38114 0.28926 0.0
C1153 C 0.90495 0.36981 0.28276 0.0
C1154 C 0.92563 0.38586 0.2812 0.0
C1155 C 0.81927 0.30456 0.31987 0.0
C1156 C 0.88302 0.33118 0.29388 0.0
C1157 C 0.86245 0.38308 0.21273 0.0
C1158 C 0.85285 0.39679 0.22997 0.0
C1159 C 0.79234 0.32071 0.27721 0.0
C1160 C 0.72892 0.24491 0.25457 0.0
C1161 C 0.71339 0.25864 0.25128 0.0
C1162 C 0.69337 0.25452 0.26183 0.0
C1163 C 0.68872 0.23617 0.27535 0.0
C1164 C 0.72375 0.22623 0.26773 0.0
C1165 C 0.70377 0.22197 0.27806 0.0
C1166 C 0.81453 0.27877 0.22295 0.0
C1167 C 0.75131 0.25211 0.24653 0.0
H1168 H 0.92379 0.32786 0.30767 0.0
H1169 H 0.96158 0.39391 0.28813 0.0
H1170 H 0.88961 0.37389 0.27667 0.0
H1171 H 0.92609 0.40207 0.27389 0.0
H1172 H 0.71723 0.27312 0.24123 0.0
H1173 H 0.67328 0.23258 0.28348 0.0
H1174 H 0.73536 0.21533 0.27062 0.0
H1175 H 0.70005 0.20779 0.28842 0.0
Eu1176 Eu 0.0705 0.53486 0.52871 0.0
C1177 C 0.99454 0.5537 0.46978 0.0
C1178 C 0.97751 0.51348 0.44412 0.0
C1179 C 0.95411 0.54066 0.45689 0.0
C1180 C 0.99682 0.53152 0.45695 0.0
C1181 C 0.9731 0.55847 0.46972 0.0
C1182 C 0.95631 0.51825 0.44408 0.0
C1183 C 0.99059 0.59875 0.49422 0.0
N1184 N 0.01305 0.57046 0.48266 0.0
C1185 C 0.01139 0.59333 0.49359 0.0
C1186 C 0.97129 0.58111 0.4825 0.0
Eu1187 Eu 0.04834 0.56057 0.47978 0.0
N1188 N 0.01747 0.52692 0.45807 0.0
C1189 C 0.01935 0.5042 0.4468 0.0
C1190 C 0.97981 0.49073 0.43231 0.0
C1191 C 1.00079 0.48605 0.4338 0.0
H1192 H 0.02609 0.60797 0.50137 0.0
H1193 H 1.00271 0.46829 0.42503 0.0
H1194 H 0.94143 0.50455 0.43444 0.0
H1195 H 0.98956 0.61675 0.50338 0.0
H1196 H 0.03478 0.49906 0.44748 0.0
H1197 H 0.12768 0.62092 0.58459 0.0
H1198 H 0.96542 0.47647 0.42241 0.0
H1199 H 0.08278 0.48115 0.50715 0.0
H1200 H 0.0938 0.59666 0.55938 0.0
H1201 H 0.11483 0.46305 0.5078 0.0
H1202 H 0.9376 0.54402 0.45679 0.0
H1203 H 0.15976 0.60332 0.59037 0.0
H1204 H 0.1768 0.56819 0.58035 0.0
H1205 H 0.95516 0.58538 0.48291 0.0
H1206 H 0.17392 0.52616 0.55834 0.0
N1207 N 0.10431 0.56313 0.55145 0.0
C1208 C 0.10654 0.5874 0.56207 0.0
C1209 C 0.14438 0.59191 0.57949 0.0
C1210 C 0.14272 0.56769 0.56788 0.0
C1211 C 0.12631 0.60187 0.57633 0.0
C1212 C 0.12231 0.55355 0.55372 0.0
H1213 H 0.15131 0.48735 0.53079 0.0
N1214 N 0.10137 0.51679 0.52709 0.0
C1215 C 0.11689 0.48197 0.517 0.0
C1216 C 0.12082 0.52987 0.54112 0.0
C1217 C 0.09885 0.49258 0.5163 0.0
C1218 C 0.13737 0.49568 0.53009 0.0
C1219 C 0.13944 0.5197 0.54274 0.0
O1220 O 0.05346 0.49693 0.53012 0.0
O1221 O 0.04084 0.53209 0.50185 0.0
O1222 O 0.0483 0.58464 0.51658 0.0
O1223 O 0.06037 0.56784 0.54807 0.0
O1224 O 0.03589 0.53381 0.53797 0.0
O1225 O 0.07073 0.52316 0.56268 0.0
O1226 O 0.05534 0.59873 0.47587 0.0
O1227 O 0.07688 0.56344 0.50733 0.0
O1228 O 0.07483 0.51506 0.49157 0.0
O1229 O 0.06501 0.5332 0.46021 0.0
O1230 O 0.08562 0.57123 0.47504 0.0
O1231 O 0.04636 0.56895 0.44423 0.0
C1232 C 0.02649 0.53138 0.51661 0.0
C1233 C 0.03697 0.49382 0.56563 0.0
C1234 C 0.00987 0.5042 0.59225 0.0
C1235 C 0.02904 0.51141 0.58078 0.0
C1236 C 0.99842 0.47891 0.5878 0.0
C1237 C 0.02526 0.46883 0.56144 0.0
C1238 C 1.00601 0.46146 0.57239 0.0
C1239 C 0.05252 0.58465 0.53966 0.0
C1240 C 0.05696 0.50142 0.55348 0.0
C1241 C 0.15951 0.53366 0.55698 0.0
C1242 C 0.16111 0.55755 0.56958 0.0
C1243 C 0.09329 0.57022 0.49616 0.0
C1244 C 0.0731 0.60611 0.44235 0.0
C1245 C 0.08786 0.59372 0.43121 0.0
C1246 C 0.10743 0.60695 0.4237 0.0
C1247 C 0.11199 0.63281 0.42724 0.0
C1248 C 0.07784 0.63188 0.44562 0.0
C1249 C 0.09721 0.64514 0.43807 0.0
C1250 C 0.0734 0.51696 0.46883 0.0
C1251 C 0.05388 0.59279 0.4526 0.0
H1252 H 0.0378 0.53078 0.58349 0.0
H1253 H 0.98398 0.47236 0.59671 0.0
H1254 H 0.03098 0.45503 0.54965 0.0
H1255 H 0.99711 0.44209 0.5692 0.0
H1256 H 0.08442 0.57384 0.42886 0.0
H1257 H 0.12673 0.64347 0.42119 0.0
H1258 H 0.06673 0.64176 0.45438 0.0
H1259 H 0.10081 0.66503 0.44067 0.0
Eu1260 Eu 0.78283 0.79598 0.26516 0.0
C1261 C 0.85747 0.76406 0.32166 0.0
C1262 C 0.86862 0.79653 0.35738 0.0
C1263 C 0.87145 0.75518 0.35886 0.0
C1264 C 0.85982 0.78822 0.33298 0.0
C1265 C 0.864 0.74745 0.33423 0.0
C1266 C 0.87371 0.7797 0.37044 0.0
C1267 C 0.85799 0.71789 0.29664 0.0
N1268 N 0.85058 0.75737 0.29783 0.0
C1269 C 0.85169 0.73505 0.28501 0.0
C1270 C 0.86376 0.72394 0.32145 0.0
Eu1271 Eu 0.83933 0.7868 0.27914 0.0
N1272 N 0.85517 0.80403 0.31967 0.0
C1273 C 0.861 0.82886 0.32916 0.0
C1274 C 0.87294 0.82169 0.36764 0.0
C1275 C 0.86955 0.83799 0.35333 0.0
H1276 H 0.84701 0.73023 0.26584 0.0
H1277 H 0.87342 0.85759 0.3609 0.0
H1278 H 0.8802 0.78567 0.38927 0.0
H1279 H 0.85829 0.7 0.28649 0.0
H1280 H 0.85841 0.84178 0.3185 0.0
H1281 H 0.7486 0.72513 0.18355 0.0
H1282 H 0.87961 0.82881 0.38634 0.0
H1283 H 0.77539 0.8527 0.2782 0.0
H1284 H 0.7635 0.74102 0.22601 0.0
H1285 H 0.7647 0.88307 0.25729 0.0
H1286 H 0.87626 0.74261 0.36892 0.0
H1287 H 0.74294 0.75393 0.1579 0.0
H1288 H 0.743 0.79719 0.15471 0.0
H1289 H 0.86871 0.71067 0.33043 0.0
H1290 H 0.74732 0.84039 0.17487 0.0
N1291 N 0.7671 0.77876 0.22463 0.0
C1292 C 0.7611 0.75391 0.21523 0.0
C1293 C 0.74953 0.76107 0.17662 0.0
C1294 C 0.75409 0.78628 0.18677 0.0
C1295 C 0.75262 0.74476 0.19105 0.0
C1296 C 0.76278 0.79461 0.2112 0.0
H1297 H 0.75479 0.87244 0.21328 0.0
N1298 N 0.77213 0.82558 0.24626 0.0
C1299 C 0.765 0.86515 0.24722 0.0
C1300 C 0.76541 0.81887 0.2224 0.0
C1301 C 0.77098 0.84792 0.25899 0.0
C1302 C 0.75951 0.85911 0.22237 0.0
C1303 C 0.75919 0.83554 0.20969 0.0
O1304 O 0.75975 0.80704 0.28979 0.0
O1305 O 0.80878 0.79483 0.29384 0.0
O1306 O 0.81429 0.75232 0.28584 0.0
O1307 O 0.78056 0.7551 0.26669 0.0
O1308 O 0.79403 0.82408 0.29979 0.0
O1309 O 0.74998 0.771 0.26672 0.0
O1310 O 0.86282 0.7757 0.25509 0.0
O1311 O 0.81333 0.78784 0.25047 0.0
O1312 O 0.80817 0.83071 0.25882 0.0
O1313 O 0.84176 0.82757 0.27791 0.0
O1314 O 0.82823 0.75879 0.24433 0.0
O1315 O 0.87146 0.81249 0.27682 0.0
C1316 C 0.80792 0.81376 0.3089 0.0
C1317 C 0.72079 0.78963 0.27772 0.0
C1318 C 0.68268 0.78771 0.28879 0.0
C1319 C 0.70461 0.78489 0.29377 0.0
C1320 C 0.67767 0.7959 0.26786 0.0
C1321 C 0.71498 0.79736 0.25692 0.0
C1322 C 0.69363 0.8006 0.25213 0.0
C1323 C 0.79276 0.74252 0.27687 0.0
C1324 C 0.74376 0.78676 0.28261 0.0
C1325 C 0.75187 0.82777 0.18503 0.0
C1326 C 0.74938 0.80317 0.17356 0.0
C1327 C 0.81426 0.76905 0.23526 0.0
C1328 C 0.90154 0.79521 0.26663 0.0
C1329 C 0.91684 0.79898 0.24964 0.0
C1330 C 0.93935 0.7981 0.25462 0.0
C1331 C 0.94603 0.79302 0.27672 0.0
C1332 C 0.90877 0.79028 0.28848 0.0
C1333 C 0.93086 0.78914 0.29342 0.0
C1334 C 0.82976 0.8403 0.26779 0.0
C1335 C 0.87817 0.7966 0.26157 0.0
H1336 H 0.70897 0.7787 0.30977 0.0
H1337 H 0.66134 0.79894 0.26365 0.0
H1338 H 0.72697 0.80094 0.24435 0.0
H1339 H 0.68941 0.80681 0.23611 0.0
H1340 H 0.9113 0.80299 0.23281 0.0
H1341 H 0.96299 0.79174 0.28104 0.0
H1342 H 0.89734 0.78737 0.30174 0.0
H1343 H 0.93627 0.78522 0.31031 0.0
Eu1344 Eu 0.83462 0.29803 0.75346 0.0
C1345 C 0.80408 0.3701 0.82054 0.0
C1346 C 0.83826 0.39292 0.84681 0.0
C1347 C 0.81053 0.41419 0.83719 0.0
C1348 C 0.82449 0.37045 0.83252 0.0
C1349 C 0.79693 0.39208 0.82292 0.0
C1350 C 0.83111 0.4146 0.84914 0.0
C1351 C 0.76267 0.36888 0.79784 0.0
N1352 N 0.79132 0.34856 0.80638 0.0
C1353 C 0.77022 0.34762 0.79621 0.0
C1354 C 0.77618 0.39128 0.81101 0.0
Eu1355 Eu 0.80513 0.31269 0.80581 0.0
N1356 N 0.83155 0.3494 0.82916 0.0
C1357 C 0.8526 0.35026 0.8393 0.0
C1358 C 0.85923 0.39327 0.85781 0.0
C1359 C 0.86648 0.37189 0.85386 0.0
H1360 H 0.75843 0.33045 0.7874 0.0
H1361 H 0.88301 0.37212 0.86171 0.0
H1362 H 0.84155 0.4319 0.85993 0.0
H1363 H 0.74614 0.36782 0.78935 0.0
H1364 H 0.85968 0.3349 0.836 0.0
H1365 H 0.77196 0.23971 0.67701 0.0
H1366 H 0.87022 0.41011 0.86882 0.0
H1367 H 0.88569 0.29025 0.76673 0.0
H1368 H 0.79109 0.27754 0.70448 0.0
H1369 H 0.90565 0.25774 0.76052 0.0
H1370 H 0.80528 0.43113 0.83909 0.0
H1371 H 0.78628 0.20287 0.67433 0.0
H1372 H 0.81614 0.18397 0.68681 0.0
H1373 H 0.77019 0.40773 0.8124 0.0
H1374 H 0.85234 0.1885 0.71005 0.0
N1375 N 0.81518 0.26274 0.72198 0.0
C1376 C 0.79725 0.26182 0.70582 0.0
C1377 C 0.79453 0.21946 0.68762 0.0
C1378 C 0.81394 0.22083 0.70235 0.0
C1379 C 0.78638 0.24017 0.68915 0.0
C1380 C 0.82402 0.24288 0.7196 0.0
H1381 H 0.88603 0.21603 0.73705 0.0
N1382 N 0.85438 0.26693 0.74822 0.0
C1383 C 0.88825 0.25374 0.753 0.0
C1384 C 0.84421 0.24512 0.73302 0.0
C1385 C 0.87676 0.27209 0.75652 0.0
C1386 C 0.8771 0.23024 0.73984 0.0
C1387 C 0.8551 0.22589 0.72897 0.0
O1388 O 0.86811 0.32366 0.75799 0.0
O1389 O 0.83233 0.32759 0.78486 0.0
O1390 O 0.7812 0.30716 0.77118 0.0
O1391 O 0.80197 0.30499 0.73864 0.0
O1392 O 0.82784 0.33388 0.75015 0.0
O1393 O 0.85127 0.30515 0.72235 0.0
O1394 O 0.77054 0.30324 0.81365 0.0
O1395 O 0.80742 0.28491 0.77407 0.0
O1396 O 0.85092 0.28873 0.78729 0.0
O1397 O 0.83313 0.29869 0.82118 0.0
O1398 O 0.79979 0.2713 0.80422 0.0
O1399 O 0.79784 0.31043 0.84217 0.0
C1400 C 0.82963 0.34324 0.77268 0.0
C1401 C 0.87384 0.34612 0.72752 0.0
C1402 C 0.86182 0.37693 0.70899 0.0
C1403 C 0.85702 0.35416 0.71616 0.0
C1404 C 0.88437 0.39153 0.71356 0.0
C1405 C 0.8959 0.3611 0.73215 0.0
C1406 C 0.90111 0.38372 0.72517 0.0
C1407 C 0.78331 0.30685 0.74818 0.0
C1408 C 0.86826 0.32233 0.73503 0.0
C1409 C 0.84439 0.20355 0.71302 0.0
C1410 C 0.82384 0.20102 0.69973 0.0
C1411 C 0.80325 0.26573 0.78225 0.0
C1412 C 0.76431 0.27934 0.84254 0.0
C1413 C 0.77612 0.26325 0.84963 0.0
C1414 C 0.76448 0.24046 0.85406 0.0
C1415 C 0.74081 0.23388 0.85129 0.0
C1416 C 0.74072 0.27257 0.84009 0.0
C1417 C 0.72905 0.24992 0.8444 0.0
C1418 C 0.84894 0.29028 0.81054 0.0
C1419 C 0.77614 0.3022 0.83568 0.0
H1420 H 0.84018 0.3423 0.71297 0.0
H1421 H 0.88955 0.40872 0.7077 0.0
H1422 H 0.90909 0.35526 0.74103 0.0
H1423 H 0.91828 0.39513 0.72849 0.0
H1424 H 0.79434 0.26822 0.85137 0.0
H1425 H 0.73139 0.21664 0.85505 0.0
H1426 H 0.73132 0.28467 0.83446 0.0
H1427 H 0.71085 0.24478 0.84244 0.0
Eu1428 Eu 0.81676 0.81447 0.78241 0.0
C1429 C 0.72389 0.74264 0.7622 0.0
C1430 C 0.71619 0.71015 0.78466 0.0
C1431 C 0.68612 0.72741 0.77251 0.0
C1432 C 0.73131 0.72646 0.77389 0.0
C1433 C 0.70107 0.74307 0.76122 0.0
C1434 C 0.69366 0.71099 0.7842 0.0
C1435 C 0.70923 0.77452 0.73811 0.0
N1436 N 0.7389 0.75794 0.75185 0.0
C1437 C 0.73172 0.77377 0.7398 0.0
C1438 C 0.69386 0.75921 0.74894 0.0
Eu1439 Eu 0.77668 0.75392 0.75497 0.0
N1440 N 0.75317 0.72613 0.7742 0.0
C1441 C 0.76057 0.70852 0.78313 0.0
C1442 C 0.72403 0.69309 0.79512 0.0
C1443 C 0.74626 0.69204 0.79404 0.0
H1444 H 0.743 0.78665 0.7319 0.0
H1445 H 0.75237 0.67853 0.80156 0.0
H1446 H 0.68187 0.69876 0.79254 0.0
H1447 H 0.70387 0.78728 0.72873 0.0
H1448 H 0.77773 0.70749 0.78208 0.0
H1449 H 0.88722 0.81854 0.72954 0.0
H1450 H 0.71293 0.68027 0.80355 0.0
H1451 H 0.81862 0.8338 0.84169 0.0
H1452 H 0.84771 0.81322 0.73647 0.0
H1453 H 0.84606 0.84593 0.87807 0.0
H1454 H 0.66864 0.72771 0.77212 0.0
H1455 H 0.91677 0.82644 0.76364 0.0
H1456 H 0.92728 0.83434 0.8081 0.0
H1457 H 0.67651 0.76009 0.74783 0.0
H1458 H 0.91603 0.84155 0.84861 0.0
N1459 N 0.85441 0.81777 0.77427 0.0
C1460 C 0.86029 0.81673 0.75163 0.0
C1461 C 0.89938 0.8242 0.76685 0.0
C1462 C 0.89341 0.82629 0.79008 0.0
C1463 C 0.88276 0.81978 0.74757 0.0
C1464 C 0.87052 0.82324 0.79326 0.0
H1465 H 0.88585 0.84629 0.87488 0.0
N1466 N 0.84231 0.82612 0.81815 0.0
C1467 C 0.85139 0.84059 0.86073 0.0
C1468 C 0.86424 0.8274 0.81595 0.0
C1469 C 0.83586 0.83365 0.84005 0.0
C1470 C 0.87381 0.8407 0.85886 0.0
C1471 C 0.88059 0.83456 0.83624 0.0
O1472 O 0.80608 0.84793 0.79517 0.0
O1473 O 0.78064 0.79272 0.7728 0.0
O1474 O 0.77694 0.77888 0.7286 0.0
O1475 O 0.80939 0.81096 0.74236 0.0
O1476 O 0.78969 0.81609 0.80667 0.0
O1477 O 0.82899 0.84762 0.76853 0.0
O1478 O 0.78102 0.74352 0.71715 0.0
O1479 O 0.81181 0.77735 0.75902 0.0
O1480 O 0.81932 0.78925 0.80821 0.0
O1481 O 0.78718 0.75578 0.79493 0.0
O1482 O 0.80768 0.7414 0.76367 0.0
O1483 O 0.76558 0.71543 0.7353 0.0
C1484 C 0.77364 0.80011 0.79229 0.0
C1485 C 0.83222 0.8855 0.7951 0.0
C1486 C 0.83447 0.92917 0.80723 0.0
C1487 C 0.8221 0.90496 0.7968 0.0
C1488 C 0.85717 0.93385 0.81629 0.0
C1489 C 0.85482 0.89015 0.80457 0.0
C1490 C 0.86721 0.91429 0.8152 0.0
C1491 C 0.79223 0.7986 0.72596 0.0
C1492 C 0.81889 0.86084 0.78262 0.0
C1493 C 0.90325 0.83629 0.83325 0.0
C1494 C 0.90966 0.83219 0.81019 0.0
C1495 C 0.82207 0.76175 0.76306 0.0
C1496 C 0.78896 0.7051 0.70623 0.0
C1497 C 0.80164 0.69508 0.7211 0.0
C1498 C 0.81684 0.68213 0.71176 0.0
C1499 C 0.81884 0.67898 0.68712 0.0
C1500 C 0.7913 0.70181 0.68179 0.0
C1501 C 0.80612 0.68873 0.67229 0.0
C1502 C 0.80453 0.76911 0.81118 0.0
C1503 C 0.77405 0.71999 0.71606 0.0
H1504 H 0.80468 0.90136 0.78926 0.0
H1505 H 0.86703 0.95252 0.82417 0.0
H1506 H 0.86292 0.87527 0.80347 0.0
H1507 H 0.88469 0.91788 0.82231 0.0
H1508 H 0.79995 0.69767 0.74 0.0
H1509 H 0.83 0.66867 0.67919 0.0
H1510 H 0.78176 0.70949 0.67007 0.0
H1511 H 0.80778 0.68617 0.65337 0.0
Eu1512 Eu 0.54103 0.51984 0.51196 0.0
C1513 C 0.5981 0.61291 0.58001 0.0
C1514 C 0.59567 0.64532 0.55895 0.0
C1515 C 0.60104 0.65443 0.60243 0.0
C1516 C 0.59492 0.6204 0.55875 0.0
C1517 C 0.60199 0.63008 0.60207 0.0
C1518 C 0.59787 0.66204 0.58089 0.0
C1519 C 0.61072 0.59892 0.62144 0.0
N1520 N 0.59933 0.58935 0.57902 0.0
C1521 C 0.60668 0.58256 0.59918 0.0
C1522 C 0.60786 0.62261 0.62298 0.0
Eu1523 Eu 0.59207 0.56275 0.54048 0.0
N1524 N 0.59342 0.60395 0.53787 0.0
C1525 C 0.5953 0.61185 0.51688 0.0
C1526 C 0.59552 0.65299 0.53718 0.0
C1527 C 0.59593 0.63633 0.51612 0.0
H1528 H 0.6094 0.56451 0.59827 0.0
H1529 H 0.59665 0.64228 0.49929 0.0
H1530 H 0.59817 0.68116 0.58139 0.0
H1531 H 0.61608 0.59327 0.63739 0.0
H1532 H 0.59566 0.59916 0.50049 0.0
H1533 H 0.52274 0.47419 0.58916 0.0
H1534 H 0.59609 0.67196 0.53656 0.0
H1535 H 0.54206 0.49157 0.45475 0.0
H1536 H 0.53646 0.50816 0.57084 0.0
H1537 H 0.53516 0.45015 0.43019 0.0
H1538 H 0.60369 0.66779 0.61921 0.0
H1539 H 0.51191 0.43165 0.56532 0.0
H1540 H 0.50909 0.40306 0.52637 0.0
H1541 H 0.6111 0.63529 0.64024 0.0
H1542 H 0.51359 0.39644 0.4837 0.0
N1543 N 0.53042 0.48729 0.53443 0.0
C1544 C 0.52999 0.4907 0.55883 0.0
C1545 C 0.51701 0.44697 0.55651 0.0
C1546 C 0.51874 0.44301 0.53208 0.0
C1547 C 0.52292 0.47091 0.56995 0.0
C1548 C 0.52559 0.46365 0.52135 0.0
H1549 H 0.52358 0.41368 0.44805 0.0
N1550 N 0.53577 0.47963 0.48747 0.0
C1551 C 0.5334 0.45252 0.44909 0.0
C1552 C 0.52853 0.45978 0.49736 0.0
C1553 C 0.53749 0.47615 0.46338 0.0
C1554 C 0.52681 0.43203 0.4592 0.0
C1555 C 0.52411 0.43543 0.48348 0.0
O1556 O 0.53008 0.52524 0.47704 0.0
O1557 O 0.56216 0.55873 0.51433 0.0
O1558 O 0.56635 0.56487 0.56852 0.0
O1559 O 0.53259 0.53651 0.54973 0.0
O1560 O 0.52939 0.55474 0.52227 0.0
O1561 O 0.50526 0.50807 0.49786 0.0
O1562 O 0.62137 0.54754 0.54132 0.0
O1563 O 0.57503 0.52191 0.52867 0.0
O1564 O 0.56974 0.51697 0.48773 0.0
O1565 O 0.59383 0.55577 0.49948 0.0
O1566 O 0.59032 0.53428 0.56358 0.0
O1567 O 0.62554 0.58507 0.53775 0.0
C1568 C 0.54723 0.57036 0.51883 0.0
C1569 C 0.49539 0.53446 0.47343 0.0
C1570 C 0.4695 0.55976 0.48396 0.0
C1571 C 0.48108 0.54267 0.4892 0.0
C1572 C 0.47267 0.56877 0.46289 0.0
C1573 C 0.49809 0.54354 0.4524 0.0
C1574 C 0.4869 0.5607 0.44728 0.0
C1575 C 0.54478 0.55308 0.56892 0.0
C1576 C 0.50878 0.51768 0.47902 0.0
C1577 C 0.517 0.41515 0.49409 0.0
C1578 C 0.51434 0.41893 0.51833 0.0
C1579 C 0.5795 0.51492 0.54785 0.0
C1580 C 0.65635 0.57574 0.55705 0.0
C1581 C 0.67296 0.56341 0.55211 0.0
C1582 C 0.69364 0.57088 0.56663 0.0
C1583 C 0.69767 0.59062 0.58646 0.0
C1584 C 0.66037 0.59547 0.57699 0.0
C1585 C 0.68095 0.60276 0.59169 0.0
C1586 C 0.58652 0.53464 0.48338 0.0
C1587 C 0.63553 0.56814 0.54043 0.0
H1588 H 0.47915 0.53603 0.50562 0.0
H1589 H 0.46371 0.58157 0.45809 0.0
H1590 H 0.50912 0.53757 0.44005 0.0
H1591 H 0.48914 0.56765 0.43106 0.0
H1592 H 0.67 0.5483 0.53661 0.0
H1593 H 0.71366 0.59659 0.59777 0.0
H1594 H 0.64781 0.60542 0.581 0.0
H1595 H 0.68405 0.618 0.607 0.0
Eu1596 Eu 0.0903 0.54851 0.01465 0.0
C1597 C 0.00626 0.49299 0.05576 0.0
C1598 C 0.99002 0.45639 0.02471 0.0
C1599 C 0.98534 0.45529 0.06627 0.0
C1600 C 1.00272 0.48125 0.0319 0.0
C1601 C 0.99721 0.48033 0.07318 0.0
C1602 C 0.98178 0.44333 0.04207 0.0
C1603 C 0.01076 0.51862 0.10262 0.0
N1604 N 0.01761 0.51722 0.06177 0.0
C1605 C 0.01933 0.53038 0.08466 0.0
C1606 C 0.99987 0.49341 0.09691 0.0
Eu1607 Eu 0.03255 0.53569 0.03071 0.0
N1608 N 0.01066 0.49452 0.01559 0.0
C1609 C 1.00512 0.48457 0.99166 0.0
C1610 C 0.98545 0.44564 1.00024 0.0
C1611 C 0.99276 0.45992 0.98364 0.0
H1612 H 0.0278 0.54985 0.08919 0.0
H1613 H 0.98894 0.45193 0.96465 0.0
H1614 H 0.97215 0.42416 0.03691 0.0
H1615 H 0.01257 0.529 0.12083 0.0
H1616 H 0.0107 0.49535 0.97863 0.0
H1617 H 0.13518 0.63048 0.08206 0.0
H1618 H 0.97583 0.42657 0.99398 0.0
H1619 H 0.0929 0.5362 0.9556 0.0
H1620 H 0.11294 0.58726 0.06722 0.0
H1621 H 0.10741 0.55826 0.92438 0.0
H1622 H 0.97841 0.44518 0.07942 0.0
H1623 H 0.14769 0.65689 0.0534 0.0
H1624 H 0.1503 0.66074 0.01065 0.0
H1625 H 0.99316 0.48436 0.11084 0.0
H1626 H 0.14288 0.64107 0.96776 0.0
N1627 N 0.11231 0.58936 0.03054 0.0
C1628 C 0.11833 0.59856 0.05452 0.0
C1629 C 0.13791 0.63793 0.04677 0.0
C1630 C 0.13273 0.62794 0.02217 0.0
C1631 C 0.13093 0.62306 0.06301 0.0
C1632 C 0.11984 0.60321 0.01451 0.0
H1633 H 0.12722 0.60277 0.93546 0.0
N1634 N 0.10402 0.56806 0.9838 0.0
C1635 C 0.10974 0.56805 0.94286 0.0
C1636 C 0.11558 0.59222 0.99039 0.0
C1637 C 0.10159 0.55561 0.96055 0.0
C1638 C 0.12086 0.5932 0.94919 0.0
C1639 C 0.12418 0.60553 0.97323 0.0
O1640 O 0.11076 0.52477 0.99913 0.0
O1641 O 0.05965 0.51896 0.017 0.0
O1642 O 0.05274 0.522 0.05675 0.0
O1643 O 0.08921 0.54431 0.05339 0.0
O1644 O 0.07507 0.51306 0.98666 0.0
O1645 O 0.12038 0.54596 0.03547 0.0
O1646 O 0.0124 0.56058 0.04451 0.0
O1647 O 0.06347 0.56518 0.02892 0.0
O1648 O 0.06947 0.56338 0.99006 0.0
O1649 O 0.03433 0.53762 0.9915 0.0
O1650 O 0.04773 0.57098 0.05895 0.0
O1651 O 1.0032 0.53817 0.00868 0.0
C1652 C 0.05911 0.50329 0.99799 0.0
C1653 C 0.14947 0.53697 0.01362 0.0
C1654 C 0.18594 0.52717 0.01416 0.0
C1655 C 0.16317 0.52158 0.01839 0.0
C1656 C 0.19451 0.54822 0.00482 0.0
C1657 C 0.15856 0.55789 0.00457 0.0
C1658 C 0.18093 0.56342 1.00014 0.0
C1659 C 0.07453 0.53011 0.06403 0.0
C1660 C 0.12572 0.53103 0.01799 0.0
C1661 C 0.13629 0.63046 0.98069 0.0
C1662 C 0.14052 0.64165 0.00511 0.0
C1663 C 0.0641 0.58066 0.0481 0.0
C1664 C 0.97397 0.54884 0.02907 0.0
C1665 C 0.96159 0.56567 0.02512 0.0
C1666 C 0.93861 0.56091 0.02831 0.0
C1667 C 0.92837 0.53913 0.03574 0.0
C1668 C 0.96338 0.52728 0.0364 0.0
C1669 C 0.9407 0.52251 0.03976 0.0
C1670 C 0.04796 0.5538 0.9818 0.0
C1671 C 0.99783 0.55392 0.02533 0.0
H1672 H 0.15618 0.50553 0.02563 0.0
H1673 H 0.21172 0.55282 1.00082 0.0
H1674 H 0.14838 0.56992 1.00085 0.0
H1675 H 0.18777 0.57953 0.99297 0.0
H1676 H 0.96977 0.58222 0.01922 0.0
H1677 H 0.91085 0.53507 0.03873 0.0
H1678 H 0.97261 0.51413 0.03948 0.0
H1679 H 0.93264 0.50586 0.04552 0.0
H1680 H 0.00965 0.20478 1.00076 0.0
H1681 H 0.05129 0.20119 0.94364 0.0
H1682 H 0.01852 0.16851 0.01128 0.0
H1683 H 0.06059 0.1651 0.95446 0.0
H1684 H 0.05156 0.08427 0.9608 0.0
H1685 H 0.04608 0.12276 0.95266 0.0
H1686 H 0.04439 0.14934 0.02801 0.0
H1687 H 0.0494 0.11001 0.03599 0.0
C1688 C 0.02088 0.19642 0.99046 0.0
C1689 C 0.02958 0.20621 0.97114 0.0
C1690 C 0.02615 0.17551 0.99669 0.0
C1691 C 0.0403 0.16331 0.98383 0.0
C1692 C 0.04932 0.17339 0.96473 0.0
C1693 C 0.04408 0.19438 0.95853 0.0
C1694 C 0.05023 0.09839 0.97575 0.0
C1695 C 0.05124 0.09391 0.99912 0.0
C1696 C 0.04722 0.12076 0.97107 0.0
C1697 C 0.04479 0.13974 0.98953 0.0
C1698 C 0.04592 0.13534 0.01309 0.0
C1699 C 0.04906 0.1128 0.01781 0.0
H1700 H 0.19088 0.81218 0.12763 0.0
H1701 H 0.15648 0.83478 0.18726 0.0
H1702 H 0.22055 0.80754 0.1547 0.0
H1703 H 0.1872 0.83182 0.21494 0.0
H1704 H 0.23557 0.80293 0.2592 0.0
H1705 H 0.20547 0.80858 0.23287 0.0
H1706 H 0.25174 0.82312 0.18091 0.0
H1707 H 0.28121 0.81596 0.20685 0.0
C1708 C 0.18986 0.81673 0.14667 0.0
C1709 C 0.17114 0.82401 0.15509 0.0
C1710 C 0.20718 0.81422 0.16244 0.0
C1711 C 0.20687 0.81941 0.18747 0.0
C1712 C 0.18823 0.82715 0.19594 0.0
C1713 C 0.17057 0.82915 0.18002 0.0
C1714 C 0.23932 0.80749 0.24223 0.0
C1715 C 0.26092 0.80902 0.23528 0.0
C1716 C 0.22195 0.81086 0.22696 0.0
C1717 C 0.22566 0.81634 0.2043 0.0
C1718 C 0.24757 0.81829 0.19769 0.0
C1719 C 0.26473 0.81436 0.21274 0.0
H1720 H 0.55247 0.84603 0.44736 0.0
H1721 H 0.51078 0.83889 0.50424 0.0
H1722 H 0.55906 0.89093 0.45792 0.0
H1723 H 0.51683 0.8835 0.51437 0.0
H1724 H 0.5523 0.96671 0.5424 0.0
H1725 H 0.54295 0.92166 0.53177 0.0
H1726 H 0.54272 0.92451 0.45699 0.0
H1727 H 0.55263 0.96973 0.46801 0.0
C1728 C 0.54483 0.85396 0.46224 0.0
C1729 C 0.53122 0.83854 0.47499 0.0
C1730 C 0.54836 0.87984 0.46814 0.0
C1731 C 0.5384 0.89124 0.487 0.0
C1732 C 0.52507 0.87576 0.49993 0.0
C1733 C 0.52156 0.84996 0.49405 0.0
C1734 C 0.54951 0.95764 0.52365 0.0
C1735 C 0.55231 0.97183 0.50601 0.0
C1736 C 0.54424 0.93168 0.51747 0.0
C1737 C 0.54214 0.91902 0.49341 0.0
C1738 C 0.54446 0.93333 0.47572 0.0
C1739 C 0.54967 0.95933 0.48196 0.0
H1740 H 0.51416 0.31494 0.63289 0.0
H1741 H 0.56353 0.30953 0.68739 0.0
H1742 H 0.48612 0.31204 0.66073 0.0
H1743 H 0.5353 0.30596 0.71514 0.0
H1744 H 0.48619 0.32373 0.76679 0.0
H1745 H 0.51388 0.32836 0.7387 0.0
H1746 H 0.46295 0.28454 0.68091 0.0
H1747 H 0.43513 0.28019 0.70914 0.0
C1748 C 0.51906 0.31303 0.65081 0.0
C1749 C 0.54121 0.3125 0.65783 0.0
C1750 C 0.50286 0.3112 0.6668 0.0
C1751 C 0.50826 0.30872 0.69033 0.0
C1752 C 0.53047 0.30822 0.69734 0.0
C1753 C 0.54671 0.31013 0.68135 0.0
C1754 C 0.48086 0.31501 0.7481 0.0
C1755 C 0.45837 0.30141 0.74034 0.0
C1756 C 0.49683 0.3176 0.73193 0.0
C1757 C 0.49088 0.30663 0.70743 0.0
C1758 C 0.46824 0.2935 0.69955 0.0
C1759 C 0.45221 0.29099 0.71576 0.0
H1760 H 0.01917 0.83241 0.64629 0.0
H1761 H 1.00131 0.76867 0.5877 0.0
H1762 H 0.0265 0.85942 0.61781 0.0
H1763 H 0.00953 0.79537 0.55942 0.0
H1764 H 1.00563 0.84945 0.51201 0.0
H1765 H 0.99674 0.82352 0.54107 0.0
H1766 H 0.05199 0.87287 0.59129 0.0
H1767 H 0.06025 0.89919 0.5624 0.0
C1768 C 0.01689 0.82417 0.62734 0.0
C1769 C 0.00954 0.7984 0.61928 0.0
C1770 C 0.02125 0.83963 0.61099 0.0
C1771 C 0.01862 0.82966 0.58619 0.0
C1772 C 0.01131 0.80384 0.57825 0.0
C1773 C 0.0067 0.78846 0.59454 0.0
C1774 C 0.01592 0.85463 0.52922 0.0
C1775 C 0.03366 0.87629 0.5349 0.0
C1776 C 0.01088 0.83975 0.54592 0.0
C1777 C 0.02366 0.84596 0.56863 0.0
C1778 C 0.04149 0.86765 0.57421 0.0
C1779 C 0.04634 0.88269 0.5576 0.0
H1780 H 0.55798 0.8062 0.84058 0.0
H1781 H 0.53807 0.85818 0.89435 0.0
H1782 H 0.53034 0.81176 0.81047 0.0
H1783 H 0.51114 0.86376 0.86453 0.0
H1784 H 0.48307 0.89018 0.80489 0.0
H1785 H 0.51512 0.8826 0.82674 0.0
H1786 H 0.4856 0.80397 0.80458 0.0
H1787 H 0.45355 0.8115 0.78237 0.0
C1788 C 0.54769 0.81863 0.84599 0.0
C1789 C 0.55025 0.83177 0.86984 0.0
C1790 C 0.53201 0.82185 0.82879 0.0
C1791 C 0.51905 0.83857 0.83518 0.0
C1792 C 0.52131 0.8512 0.85905 0.0
C1793 C 0.53662 0.84776 0.87618 0.0
C1794 C 0.48377 0.87128 0.80401 0.0
C1795 C 0.46572 0.85143 0.79225 0.0
C1796 C 0.502 0.86695 0.81663 0.0
C1797 C 0.50256 0.84272 0.81756 0.0
C1798 C 0.48551 0.8228 0.80409 0.0
C1799 C 0.46716 0.82713 0.79158 0.0
H1800 H 0.52261 0.22284 0.11131 0.0
H1801 H 0.52847 0.17199 0.15711 0.0
H1802 H 0.53533 0.1968 0.07892 0.0
H1803 H 0.54111 0.14644 0.12502 0.0
H1804 H 0.53012 0.11758 0.02591 0.0
H1805 H 0.521 0.15099 0.05338 0.0
H1806 H 0.57723 0.15419 0.1042 0.0
H1807 H 0.58648 0.12103 0.07682 0.0
C1808 C 0.52646 0.2061 0.11442 0.0
C1809 C 0.52474 0.19956 0.13682 0.0
C1810 C 0.53374 0.19132 0.09594 0.0
C1811 C 0.53963 0.17006 0.09981 0.0
C1812 C 0.53719 0.16314 0.12188 0.0
C1813 C 0.52977 0.17768 0.14016 0.0
C1814 C 0.54081 0.12575 0.04273 0.0
C1815 C 0.55827 0.11585 0.04989 0.0
C1816 C 0.53563 0.14493 0.05835 0.0
C1817 C 0.54804 0.15449 0.08107 0.0
C1818 C 0.56707 0.14656 0.08697 0.0
C1819 C 0.57223 0.12749 0.07141 0.0
H1820 H 0.16067 0.28932 0.36047 0.0
H1821 H 0.17719 0.36305 0.34685 0.0
H1822 H 0.19268 0.28113 0.34088 0.0
H1823 H 0.20964 0.35547 0.32854 0.0
H1824 H 0.25944 0.33273 0.28304 0.0
H1825 H 0.22329 0.33537 0.2962 0.0
H1826 H 0.23233 0.29176 0.34838 0.0
H1827 H 0.26808 0.28844 0.33422 0.0
C1828 C 0.1711 0.30374 0.35322 0.0
C1829 C 0.16644 0.32684 0.35524 0.0
C1830 C 0.18956 0.29913 0.34217 0.0
C1831 C 0.20393 0.31767 0.33323 0.0
C1832 C 0.19881 0.34054 0.33477 0.0
C1833 C 0.18021 0.34498 0.34544 0.0
C1834 C 0.25328 0.32322 0.29689 0.0
C1835 C 0.26591 0.30966 0.30708 0.0
C1836 C 0.23279 0.32505 0.30475 0.0
C1837 C 0.22478 0.31382 0.32343 0.0
C1838 C 0.23763 0.30021 0.33362 0.0
C1839 C 0.25814 0.29835 0.32564 0.0
H1840 H 0.9553 0.0598 0.18715 0.0
H1841 H 0.02257 0.0757 0.22264 0.0
H1842 H 0.97019 0.05719 0.14812 0.0
H1843 H 0.03741 0.07354 0.1842 0.0
H1844 H 0.0621 0.08644 0.11217 0.0
H1845 H 0.04602 0.09139 0.14994 0.0
H1846 H 0.98748 0.03242 0.11796 0.0
H1847 H 1.00398 0.02705 0.0802 0.0
C1848 C 0.97332 0.06349 0.18688 0.0
C1849 C 0.98755 0.06861 0.20875 0.0
C1850 C 0.98197 0.06159 0.16421 0.0
C1851 C 1.00535 0.0651 0.16223 0.0
C1852 C 0.01946 0.07092 0.18423 0.0
C1853 C 0.01081 0.07228 0.20666 0.0
C1854 C 0.04591 0.07425 0.11299 0.0
C1855 C 0.03486 0.05605 0.09246 0.0
C1856 C 0.03648 0.07714 0.13503 0.0
C1857 C 0.01513 0.06234 0.13785 0.0
C1858 C 1.00378 0.0445 0.11713 0.0
C1859 C 0.01344 0.04131 0.09517 0.0
H1860 H 0.3236 0.6776 0.47702 0.0
H1861 H 0.25113 0.65788 0.47341 0.0
H1862 H 0.32213 0.71208 0.45769 0.0
H1863 H 0.2497 0.69236 0.45485 0.0
H1864 H 0.25511 0.73905 0.39801 0.0
H1865 H 0.25663 0.70489 0.41723 0.0
H1866 H 0.31216 0.75262 0.46806 0.0
H1867 H 0.31092 0.78683 0.44826 0.0
C1868 C 0.30741 0.68048 0.47186 0.0
C1869 C 0.28748 0.66522 0.47674 0.0
C1870 C 0.30658 0.70035 0.46114 0.0
C1871 C 0.28581 0.70499 0.45502 0.0
C1872 C 0.26593 0.68918 0.45927 0.0
C1873 C 0.26676 0.66949 0.46997 0.0
C1874 C 0.26743 0.74228 0.4135 0.0
C1875 C 0.28288 0.76546 0.42175 0.0
C1876 C 0.26831 0.72277 0.42449 0.0
C1877 C 0.28464 0.72608 0.44399 0.0
C1878 C 0.29963 0.74953 0.45281 0.0
C1879 C 0.29869 0.76915 0.4418 0.0
H1880 H 0.62747 0.0178 0.70233 0.0
H1881 H 0.67651 0.01472 0.65285 0.0
H1882 H 0.59722 1.00372 0.66907 0.0
H1883 H 0.64674 1.00192 0.6195 0.0
H1884 H 0.59553 0.99129 0.56116 0.0
H1885 H 0.61386 0.97917 0.59426 0.0
H1886 H 0.58842 0.02957 0.64429 0.0
H1887 H 0.56904 0.04031 0.61092 0.0
C1888 C 0.63161 0.01289 0.68431 0.0
C1889 C 0.65413 0.01728 0.67992 0.0
C1890 C 0.61437 1.00522 0.66525 0.0
C1891 C 0.61954 1.00249 0.64158 0.0
C1892 C 0.64199 1.00376 0.63744 0.0
C1893 C 0.65918 0.01103 0.65655 0.0
C1894 C 0.59338 0.99912 0.57931 0.0
C1895 C 0.5813 0.01694 0.58379 0.0
C1896 C 0.6039 0.99226 0.59824 0.0
C1897 C 0.60307 1.00372 0.62197 0.0
C1898 C 0.58932 0.02011 0.6263 0.0
C1899 C 0.57836 0.02653 0.60727 0.0
H1900 H 0.29262 0.36247 0.96001 0.0
H1901 H 0.32964 0.30806 0.96432 0.0
H1902 H 0.29124 0.3532 0.91655 0.0
H1903 H 0.32913 0.29962 0.92114 0.0
H1904 H 0.30941 0.27788 0.8393 0.0
H1905 H 0.3082 0.28301 0.88255 0.0
H1906 H 0.31712 0.36146 0.88863 0.0
H1907 H 0.31756 0.35602 0.84555 0.0
C1908 C 0.30021 0.34833 0.95171 0.0
C1909 C 0.31134 0.33616 0.96574 0.0
C1910 C 0.2997 0.34322 0.92678 0.0
C1911 C 0.31049 0.326 0.9153 0.0
C1912 C 0.32055 0.31289 0.92926 0.0
C1913 C 0.32088 0.31782 0.95412 0.0
C1914 C 0.31145 0.29621 0.85005 0.0
C1915 C 0.31374 0.31661 0.83923 0.0
C1916 C 0.31069 0.29919 0.8748 0.0
C1917 C 0.31213 0.32261 0.8891 0.0
C1918 C 0.31526 0.34305 0.87818 0.0
C1919 C 0.31583 0.34002 0.85354 0.0
H1920 H 0.01745 0.05209 0.33699 0.0
H1921 H 0.96349 0.07835 0.3664 0.0
H1922 H 0.0305 0.04615 0.37551 0.0
H1923 H 0.97726 0.07334 0.40601 0.0
H1924 H 0.996 0.04754 0.47454 0.0
H1925 H 0.98291 0.05375 0.43577 0.0
H1926 H 0.04771 0.05267 0.41274 0.0
H1927 H 0.06041 0.04566 0.45176 0.0
C1928 C 0.00834 0.0571 0.35177 0.0
C1929 C 0.9891 0.06595 0.34761 0.0
C1930 C 0.01614 0.05369 0.37452 0.0
C1931 C 1.0054 0.05894 0.39514 0.0
C1932 C 0.98634 0.06842 0.39122 0.0
C1933 C 0.9784 0.07177 0.36816 0.0
C1934 C 0.00753 0.04831 0.46116 0.0
C1935 C 0.02939 0.04567 0.46693 0.0
C1936 C 0.99996 0.05227 0.43852 0.0
C1937 C 0.01383 0.05419 0.41994 0.0
C1938 C 0.03581 0.05123 0.42566 0.0
C1939 C 0.04336 0.04709 0.44845 0.0
H1940 H 0.31797 0.67622 0.59438 0.0
H1941 H 0.28071 0.72559 0.5739 0.0
H1942 H 0.32728 0.70184 0.63479 0.0
H1943 H 0.2898 0.75087 0.61427 0.0
H1944 H 0.301 0.72609 0.70671 0.0
H1945 H 0.30085 0.70635 0.66537 0.0
H1946 H 0.31977 0.77781 0.64677 0.0
H1947 H 0.31957 0.7978 0.68842 0.0
C1948 C 0.31218 0.69278 0.59833 0.0
C1949 C 0.29825 0.69863 0.58111 0.0
C1950 C 0.31741 0.70735 0.62146 0.0
C1951 C 0.30895 0.72808 0.62767 0.0
C1952 C 0.29657 0.73502 0.60995 0.0
C1953 C 0.29123 0.72041 0.58688 0.0
C1954 C 0.30514 0.73768 0.6939 0.0
C1955 C 0.31035 0.76353 0.70085 0.0
C1956 C 0.30535 0.72635 0.67025 0.0
C1957 C 0.31063 0.74058 0.65298 0.0
C1958 C 0.31573 0.76644 0.65981 0.0
C1959 C 0.31562 0.77784 0.6836 0.0
H1960 H 0.6651 0.11744 0.78201 0.0
H1961 H 0.69117 0.06209 0.80767 0.0
H1962 H 0.64131 0.11847 0.81375 0.0
H1963 H 0.66804 0.06398 0.84032 0.0
H1964 H 0.59788 0.0423 0.86388 0.0
H1965 H 0.62876 0.04804 0.83972 0.0
H1966 H 0.6353 0.12674 0.85441 0.0
H1967 H 0.60351 0.12054 0.87781 0.0
C1968 C 0.66626 0.10602 0.79489 0.0
C1969 C 0.67955 0.08921 0.79202 0.0
C1970 C 0.65269 0.10674 0.81323 0.0
C1971 C 0.6524 0.0909 0.82925 0.0
C1972 C 0.66739 0.07587 0.82778 0.0
C1973 C 0.68075 0.0749 0.80921 0.0
C1974 C 0.60596 0.06078 0.86183 0.0
C1975 C 0.59835 0.08098 0.87232 0.0
C1976 C 0.62385 0.06417 0.84832 0.0
C1977 C 0.63469 0.08791 0.84534 0.0
C1978 C 0.62717 0.1082 0.85618 0.0
C1979 C 0.60899 0.10471 0.86945 0.0
H1980 H 0.34277 0.33632 0.1062 0.0
H1981 H 0.28123 0.35892 0.09906 0.0
H1982 H 0.33492 0.32752 0.14509 0.0
H1983 H 0.27319 0.34936 0.13831 0.0
H1984 H 0.2727 0.28588 0.19339 0.0
H1985 H 0.27367 0.2986 0.15492 0.0
H1986 H 0.32573 0.36457 0.18729 0.0
H1987 H 0.32471 0.35243 0.22583 0.0
C1988 C 0.32743 0.33921 0.11281 0.0
C1989 C 0.31258 0.34829 0.09947 0.0
C1990 C 0.32303 0.33423 0.13512 0.0
C1991 C 0.30353 0.33781 0.14452 0.0
C1992 C 0.28836 0.3465 0.13126 0.0
C1993 C 0.29298 0.35198 0.10893 0.0
C1994 C 0.284 0.30339 0.19252 0.0
C1995 C 0.29878 0.31799 0.21277 0.0
C1996 C 0.28442 0.31068 0.17051 0.0
C1997 C 0.29968 0.33257 0.16836 0.0
C1998 C 0.31369 0.34771 0.18869 0.0
C1999 C 0.31311 0.34064 0.21072 0.0
H2000 H 0.28541 0.98482 0.05624 0.0
H2001 H 0.28934 0.01213 0.99086 0.0
H2002 H 0.26093 0.01081 0.06954 0.0
H2003 H 0.26436 0.03766 1.00393 0.0
H2004 H 0.23566 0.09723 0.04272 0.0
H2005 H 0.26348 0.07399 0.0337 0.0
H2006 H 0.22315 0.01318 0.0595 0.0
H2007 H 0.19599 0.03675 0.06936 0.0
C2008 C 0.28089 0.99621 0.04461 0.0
C2009 C 0.28929 0.99641 0.02248 0.0
C2010 C 0.26685 0.01109 0.05223 0.0
C2011 C 0.26082 0.0264 0.03785 0.0
C2012 C 0.26906 0.02642 0.01562 0.0
C2013 C 0.28317 0.01159 0.00802 0.0
C2014 C 0.23309 0.07916 0.04699 0.0
C2015 C 0.21363 0.0687 0.05656 0.0
C2016 C 0.24882 0.06571 0.04153 0.0
C2017 C 0.24535 0.04163 0.0456 0.0
C2018 C 0.2264 0.03172 0.05626 0.0
C2019 C 0.21075 0.04514 0.06174 0.0
H2020 H 0.74521 0.62744 0.01607 0.0
H2021 H 0.70615 0.66498 0.97834 0.0
H2022 H 0.71093 0.59517 0.0166 0.0
H2023 H 0.67207 0.63244 0.97848 0.0
H2024 H 0.61757 0.55834 0.97049 0.0
H2025 H 0.65415 0.58323 0.96357 0.0
H2026 H 0.67597 0.60127 0.03952 0.0
H2027 H 0.63948 0.57715 0.04649 0.0
C2028 C 0.72943 0.62851 0.00741 0.0
C2029 C 0.72834 0.64885 0.99733 0.0
C2030 C 0.70985 0.61009 0.00778 0.0
C2031 C 0.68893 0.61137 0.99757 0.0
C2032 C 0.68803 0.63092 0.98627 0.0
C2033 C 0.70751 0.6496 0.98634 0.0
C2034 C 0.63034 0.56737 0.98561 0.0
C2035 C 0.62569 0.56606 0.00903 0.0
C2036 C 0.65117 0.58161 0.98166 0.0
C2037 C 0.66782 0.59409 1.00103 0.0
C2038 C 0.66349 0.59167 0.02428 0.0
C2039 C 0.64257 0.57802 0.02826 0.0
H2040 H 0.75343 0.4543 0.23979 0.0
H2041 H 0.70908 0.43244 0.2909 0.0
H2042 H 0.77079 0.42109 0.24276 0.0
H2043 H 0.72635 0.39842 0.29368 0.0
H2044 H 0.7699 0.3459 0.30813 0.0
H2045 H 0.75276 0.3794 0.30513 0.0
H2046 H 0.77604 0.38203 0.23632 0.0
H2047 H 0.79349 0.34821 0.23968 0.0
C2048 C 0.74706 0.4424 0.25176 0.0
C2049 C 0.72935 0.44703 0.26506 0.0
C2050 C 0.75724 0.42272 0.25337 0.0
C2051 C 0.75061 0.40592 0.2685 0.0
C2052 C 0.73277 0.41044 0.28186 0.0
C2053 C 0.72247 0.43027 0.28019 0.0
C2054 C 0.77165 0.35359 0.29227 0.0
C2055 C 0.78375 0.34376 0.2744 0.0
C2056 C 0.76137 0.37312 0.2904 0.0
C2057 C 0.76225 0.38445 0.27036 0.0
C2058 C 0.77461 0.37474 0.25239 0.0
C2059 C 0.7849 0.35496 0.25427 0.0
H2060 H 0.91114 0.48465 0.56774 0.0
H2061 H 0.88039 0.4806 0.4965 0.0
H2062 H 0.9465 0.50977 0.55896 0.0
H2063 H 0.91617 0.50494 0.48745 0.0
H2064 H 0.99511 0.49259 0.48934 0.0
H2065 H 0.95456 0.48336 0.49156 0.0
H2066 H 0.96391 0.55345 0.54033 0.0
H2067 H 1.00428 0.56308 0.53732 0.0
C2068 C 0.91181 0.48979 0.55049 0.0
C2069 C 0.89323 0.48068 0.53274 0.0
C2070 C 0.93192 0.50418 0.54552 0.0
C2071 C 0.9338 0.50911 0.52257 0.0
C2072 C 0.91486 0.50143 0.5053 0.0
C2073 C 0.89451 0.48761 0.51051 0.0
C2074 C 0.98826 0.50656 0.49933 0.0
C2075 C 1.00249 0.52897 0.51224 0.0
C2076 C 0.96518 0.5013 0.5007 0.0
C2077 C 0.95632 0.51795 0.51583 0.0
C2078 C 0.97044 0.54068 0.52818 0.0
C2079 C 0.99342 0.54612 0.52643 0.0
H2080 H 0.35446 0.07443 0.27766 0.0
H2081 H 0.41959 0.12745 0.291 0.0
H2082 H 0.3374 0.10479 0.26571 0.0
H2083 H 0.40224 0.15852 0.27978 0.0
H2084 H 0.36789 0.18965 0.2218 0.0
H2085 H 0.38677 0.16599 0.24338 0.0
H2086 H 0.32647 0.14139 0.2757 0.0
H2087 H 0.30713 0.16334 0.25276 0.0
C2088 C 0.3651 0.09281 0.27857 0.0
C2089 C 0.38844 0.09839 0.28495 0.0
C2090 C 0.35524 0.11039 0.27188 0.0
C2091 C 0.36842 0.13417 0.27156 0.0
C2092 C 0.39163 0.14027 0.2794 0.0
C2093 C 0.40156 0.12254 0.28605 0.0
C2094 C 0.3586 0.17903 0.23337 0.0
C2095 C 0.33579 0.17802 0.23505 0.0
C2096 C 0.36958 0.16581 0.24613 0.0
C2097 C 0.35808 0.15143 0.26109 0.0
C2098 C 0.33573 0.15176 0.26394 0.0
C2099 C 0.32468 0.16467 0.25096 0.0
H2100 H 0.33845 0.1211 0.4658 0.0
H2101 H 0.35836 0.16326 0.53839 0.0
H2102 H 0.3663 0.09828 0.47129 0.0
H2103 H 0.38609 0.14022 0.54393 0.0
H2104 H 0.44698 0.10761 0.53901 0.0
H2105 H 0.42173 0.133 0.53116 0.0
H2106 H 0.3713 0.06735 0.49378 0.0
H2107 H 0.3966 0.04221 0.50116 0.0
C2108 C 0.34877 0.12555 0.48293 0.0
C2109 C 0.34601 0.14394 0.50169 0.0
C2110 C 0.36471 0.11238 0.48611 0.0
C2111 C 0.37841 0.11731 0.50809 0.0
C2112 C 0.37599 0.13608 0.52669 0.0
C2113 C 0.35995 0.14917 0.52356 0.0
C2114 C 0.43061 0.09869 0.52886 0.0
C2115 C 0.42377 0.07286 0.52084 0.0
C2116 C 0.41605 0.11319 0.52455 0.0
C2117 C 0.39442 0.10223 0.5119 0.0
C2118 C 0.38787 0.07647 0.50339 0.0
C2119 C 0.40231 0.06201 0.50783 0.0
H2120 H 0.74977 0.57839 0.27082 0.0
H2121 H 0.69516 0.60916 0.29186 0.0
H2122 H 0.77259 0.6205 0.27025 0.0
H2123 H 0.7173 0.64993 0.29094 0.0
H2124 H 0.74923 0.7153 0.25961 0.0
H2125 H 0.73065 0.67271 0.26043 0.0
H2126 H 0.79156 0.66511 0.29602 0.0
H2127 H 0.8102 0.70824 0.29564 0.0
C2128 C 0.74261 0.59388 0.27552 0.0
C2129 C 0.72027 0.58975 0.28115 0.0
C2130 C 0.75571 0.61815 0.27515 0.0
C2131 C 0.74677 0.63895 0.28009 0.0
C2132 C 0.72482 0.63469 0.28642 0.0
C2133 C 0.71203 0.6109 0.28704 0.0
C2134 C 0.75886 0.70477 0.26767 0.0
C2135 C 0.78151 0.71577 0.27749 0.0
C2136 C 0.74808 0.68007 0.26817 0.0
C2137 C 0.7594 0.665 0.27833 0.0
C2138 C 0.78218 0.67576 0.28779 0.0
C2139 C 0.79294 0.70071 0.28758 0.0
H2140 H 0.89238 0.47674 0.7456 0.0
H2141 H 0.89964 0.49887 0.82258 0.0
H2142 H 0.86469 0.43838 0.74727 0.0
H2143 H 0.87237 0.46005 0.82434 0.0
H2144 H 0.86793 0.37068 0.8006 0.0
H2145 H 0.8832 0.4154 0.80711 0.0
H2146 H 0.82435 0.42027 0.76504 0.0
H2147 H 0.80851 0.37551 0.75968 0.0
C2148 C 0.88737 0.47369 0.76276 0.0
C2149 C 0.89777 0.49056 0.78395 0.0
C2150 C 0.87158 0.4519 0.76373 0.0
C2151 C 0.86648 0.44653 0.78593 0.0
C2152 C 0.87599 0.46406 0.80707 0.0
C2153 C 0.89144 0.48613 0.80606 0.0
C2154 C 0.85772 0.38154 0.79404 0.0
C2155 C 0.83666 0.37006 0.78069 0.0
C2156 C 0.86648 0.40701 0.79755 0.0
C2157 C 0.85469 0.42113 0.78688 0.0
C2158 C 0.83346 0.40971 0.77379 0.0
C2159 C 0.82448 0.38428 0.77073 0.0
H2160 H 0.07636 0.8829 0.10733 0.0
H2161 H 0.11973 0.87985 0.05179 0.0
H2162 H 0.06695 0.91862 0.09578 0.0
H2163 H 0.11069 0.91574 0.0405 0.0
H2164 H 0.07938 0.97324 0.01407 0.0
H2165 H 0.08458 0.93418 0.02266 0.0
H2166 H 0.08138 0.96108 0.09761 0.0
H2167 H 0.07582 0.99932 0.08888 0.0
C2168 C 0.08393 0.88976 0.09264 0.0
C2169 C 0.09895 0.8782 0.0807 0.0
C2170 C 0.07861 0.91052 0.086 0.0
C2171 C 0.08805 0.92062 0.06711 0.0
C2172 C 0.10274 0.9087 0.0549 0.0
C2173 C 0.1081 0.88801 0.06158 0.0
C2174 C 0.07943 0.97057 0.03228 0.0
C2175 C 0.07685 0.98949 0.0507 0.0
C2176 C 0.08267 0.94819 0.03735 0.0
C2177 C 0.08345 0.94398 0.06099 0.0
C2178 C 0.08055 0.96295 0.07915 0.0
C2179 C 0.07747 0.98517 0.07413 0.0
H2180 H 0.97369 0.26297 0.86845 0.0
H2181 H 0.93189 0.25795 0.92549 0.0
H2182 H 0.94264 0.26861 0.84291 0.0
H2183 H 0.90109 0.26346 0.90009 0.0
H2184 H 0.87418 0.25737 0.79725 0.0
H2185 H 0.90445 0.24884 0.82119 0.0
H2186 H 0.89087 0.29578 0.8836 0.0
H2187 H 0.86119 0.30484 0.85938 0.0
C2188 C 0.95784 0.2627 0.87548 0.0
C2189 C 0.9555 0.25999 0.89918 0.0
C2190 C 0.93996 0.26594 0.86079 0.0
C2191 C 0.91926 0.2668 0.8694 0.0
C2192 C 0.91679 0.2634 0.89286 0.0
C2193 C 0.93453 0.25999 0.90743 0.0
C2194 C 0.87818 0.26661 0.81579 0.0
C2195 C 0.86591 0.28291 0.82582 0.0
C2196 C 0.8954 0.26141 0.82973 0.0
C2197 C 0.90055 0.27188 0.85441 0.0
C2198 C 0.88754 0.2873 0.8647 0.0
C2199 C 0.87048 0.29263 0.85068 0.0
H2200 H 0.61149 0.23819 0.54593 0.0
H2201 H 0.5752 0.23384 0.60724 0.0
H2202 H 0.60471 0.19333 0.53672 0.0
H2203 H 0.56814 0.1889 0.59783 0.0
H2204 H 0.56968 0.10892 0.51483 0.0
H2205 H 0.57689 0.15399 0.52273 0.0
H2206 H 0.58718 0.15692 0.59864 0.0
H2207 H 0.57995 0.11193 0.59057 0.0
C2208 C 0.60176 0.2277 0.55731 0.0
C2209 C 0.59387 0.23995 0.57737 0.0
C2210 C 0.59783 0.2018 0.55196 0.0
C2211 C 0.58597 0.18715 0.56655 0.0
C2212 C 0.57766 0.19937 0.58632 0.0
C2213 C 0.5815 0.22528 0.5916 0.0
C2214 C 0.57396 0.11926 0.53317 0.0
C2215 C 0.57477 0.10679 0.55205 0.0
C2216 C 0.578 0.14519 0.53776 0.0
C2217 C 0.58252 0.15943 0.56141 0.0
C2218 C 0.58344 0.14681 0.58021 0.0
C2219 C 0.57952 0.12095 0.5756 0.0
H2220 H 0.55789 0.78767 0.34643 0.0
H2221 H 0.5923 0.76225 0.40081 0.0
H2222 H 0.58976 0.7893 0.32363 0.0
H2223 H 0.62445 0.76391 0.37777 0.0
H2224 H 0.68624 0.79875 0.33841 0.0
H2225 H 0.6555 0.79421 0.36355 0.0
H2226 H 0.60764 0.76012 0.30045 0.0
H2227 H 0.63803 0.76426 0.27559 0.0
C2228 C 0.57223 0.78236 0.35356 0.0
C2229 C 0.57235 0.77471 0.37549 0.0
C2230 C 0.59055 0.78319 0.34037 0.0
C2231 C 0.60972 0.77658 0.3487 0.0
C2232 C 0.61005 0.76923 0.37082 0.0
C2233 C 0.59153 0.76814 0.38396 0.0
C2234 C 0.6692 0.7899 0.32997 0.0
C2235 C 0.66469 0.78232 0.30485 0.0
C2236 C 0.65155 0.78735 0.34439 0.0
C2237 C 0.62897 0.77724 0.33402 0.0
C2238 C 0.62469 0.76859 0.30906 0.0
C2239 C 0.64221 0.77098 0.29476 0.0
H2240 H 0.11983 0.2643 0.43654 0.0
H2241 H 0.11679 0.31482 0.50183 0.0
H2242 H 0.11745 0.23122 0.45877 0.0
H2243 H 0.11428 0.28207 0.52378 0.0
H2244 H 0.12165 0.22147 0.56077 0.0
H2245 H 0.13356 0.25331 0.53777 0.0
H2246 H 0.0854 0.20919 0.47768 0.0
H2247 H 0.07334 0.17761 0.50061 0.0
C2248 C 0.11916 0.26844 0.45567 0.0
C2249 C 0.11826 0.292 0.46744 0.0
C2250 C 0.11765 0.24954 0.46834 0.0
C2251 C 0.11556 0.25407 0.49297 0.0
C2252 C 0.1161 0.27805 0.50489 0.0
C2253 C 0.11735 0.29676 0.49225 0.0
C2254 C 0.1136 0.21863 0.54267 0.0
C2255 C 0.09648 0.1971 0.53257 0.0
C2256 C 0.12053 0.23673 0.52946 0.0
C2257 C 0.11048 0.23365 0.5059 0.0
C2258 C 0.09377 0.21186 0.49561 0.0
C2259 C 0.0868 0.19383 0.50882 0.0
H2260 H 0.56693 0.27635 0.26553 0.0
H2261 H 0.58458 0.30374 0.20232 0.0
H2262 H 0.60608 0.28084 0.27817 0.0
H2263 H 0.62432 0.30933 0.21549 0.0
H2264 H 0.67483 0.26055 0.21974 0.0
H2265 H 0.64323 0.27791 0.21353 0.0
H2266 H 0.64418 0.29941 0.29022 0.0
H2267 H 0.67514 0.28073 0.29617 0.0
C2268 C 0.57934 0.28443 0.25487 0.0
C2269 C 0.57267 0.28904 0.23263 0.0
C2270 C 0.60196 0.28715 0.26219 0.0
C2271 C 0.61844 0.29476 0.24748 0.0
C2272 C 0.61199 0.30271 0.22688 0.0
C2273 C 0.58923 0.29985 0.21948 0.0
C2274 C 0.66851 0.26945 0.23521 0.0
C2275 C 0.677 0.2689 0.25838 0.0
C2276 C 0.65052 0.27967 0.23172 0.0
C2277 C 0.64086 0.28985 0.25139 0.0
C2278 C 0.6508 0.29121 0.27465 0.0
C2279 C 0.66852 0.28055 0.2781 0.0
H2280 H 0.61878 0.90067 0.89514 0.0
H2281 H 0.66147 0.91387 0.96163 0.0
H2282 H 0.60943 0.93941 0.90804 0.0
H2283 H 0.65368 0.9538 0.97395 0.0
H2284 H 0.59432 0.97497 0.00729 0.0
H2285 H 0.61804 0.95142 0.98771 0.0
H2286 H 0.60971 0.98108 0.92453 0.0
H2287 H 0.58521 1.00433 0.94435 0.0
C2288 C 0.62767 0.91284 0.9117 0.0
C2289 C 0.64009 0.904 0.92787 0.0
C2290 C 0.6221 0.93507 0.91925 0.0
C2291 C 0.62974 0.94891 0.94267 0.0
C2292 C 0.64662 0.94282 0.95627 0.0
C2293 C 0.65156 0.92021 0.94903 0.0
C2294 C 0.5975 0.97635 0.98918 0.0
C2295 C 0.58785 0.9912 0.97723 0.0
C2296 C 0.61148 0.96326 0.97806 0.0
C2297 C 0.61643 0.96493 0.95473 0.0
C2298 C 0.6064 0.97953 0.94256 0.0
C2299 C 0.59215 0.99254 0.95373 0.0
H2300 H 0.94578 0.78208 0.69799 0.0
H2301 H 0.95047 0.73259 0.74555 0.0
H2302 H 0.90943 0.78495 0.71106 0.0
H2303 H 0.91438 0.73501 0.75791 0.0
H2304 H 0.83394 0.7577 0.71866 0.0
H2305 H 0.87099 0.7568 0.70662 0.0
H2306 H 0.89664 0.76398 0.78056 0.0
H2307 H 0.85929 0.76416 0.79229 0.0
C2308 C 0.93915 0.77194 0.71122 0.0
C2309 C 0.95099 0.75707 0.72064 0.0
C2310 C 0.91833 0.77344 0.71858 0.0
C2311 C 0.90912 0.76015 0.73547 0.0
C2312 C 0.92117 0.74571 0.74513 0.0
C2313 C 0.94184 0.74422 0.73785 0.0
C2314 C 0.84765 0.75918 0.73221 0.0
C2315 C 0.84431 0.76165 0.75638 0.0
C2316 C 0.86877 0.75877 0.7254 0.0
C2317 C 0.88674 0.76068 0.74269 0.0
C2318 C 0.88306 0.76241 0.76685 0.0
C2319 C 0.86186 0.76265 0.77362 0.0
H2320 H 0.17437 0.02262 0.86335 0.0
H2321 H 0.10701 1.00134 0.82697 0.0
H2322 H 0.15919 0.02593 0.90221 0.0
H2323 H 0.09188 1.00433 0.86524 0.0
H2324 H 0.06692 0.9949 0.93788 0.0
H2325 H 0.08336 0.98909 0.90038 0.0
H2326 H 0.14104 0.04957 0.93144 0.0
H2327 H 0.12424 0.05568 0.96893 0.0
C2328 C 0.15631 0.01783 0.86341 0.0
C2329 C 0.14214 0.01094 0.84131 0.0
C2330 C 0.14744 0.02017 0.88599 0.0
C2331 C 0.12393 0.01546 0.88771 0.0
C2332 C 0.10993 1.00791 0.8655 0.0
C2333 C 0.11876 1.00604 0.84315 0.0
C2334 C 0.083 1.00724 0.9369 0.0
C2335 C 0.09372 0.02606 0.95711 0.0
C2336 C 0.09265 1.00386 0.915 0.0
C2337 C 0.11389 0.0188 0.91198 0.0
C2338 C 0.12487 0.03731 0.9324 0.0
C2339 C 0.11502 0.04095 0.95422 0.0
H2340 H 0.80608 0.36627 0.57958 0.0
H2341 H 0.81145 0.44369 0.60484 0.0
H2342 H 0.80424 0.35965 0.61961 0.0
H2343 H 0.80892 0.43719 0.64567 0.0
H2344 H 0.86104 0.42362 0.70185 0.0
H2345 H 0.83821 0.43255 0.67078 0.0
H2346 H 0.79527 0.35814 0.65728 0.0
H2347 H 0.81979 0.34776 0.68507 0.0
C2348 C 0.80576 0.38168 0.59374 0.0
C2349 C 0.80955 0.40554 0.58943 0.0
C2350 C 0.80454 0.37794 0.61689 0.0
C2351 C 0.80727 0.39811 0.63626 0.0
C2352 C 0.80752 0.4214 0.63129 0.0
C2353 C 0.80872 0.42512 0.60791 0.0
C2354 C 0.8471 0.40881 0.69207 0.0
C2355 C 0.84386 0.38437 0.69526 0.0
C2356 C 0.83336 0.41428 0.6746 0.0
C2357 C 0.81545 0.39566 0.66052 0.0
C2358 C 0.80964 0.37262 0.66688 0.0
C2359 C 0.82395 0.36676 0.68341 0.0
H2360 H 0.48438 0.08529 0.35614 0.0
H2361 H 0.48553 0.0087 0.33769 0.0
H2362 H 0.50916 0.09067 0.39322 0.0
H2363 H 0.50939 0.01387 0.37442 0.0
H2364 H 0.56261 0.02906 0.43417 0.0
H2365 H 0.5463 0.03247 0.39535 0.0
H2366 H 0.506 0.07708 0.43064 0.0
H2367 H 0.52309 0.07477 0.46926 0.0
C2368 C 0.48991 0.06969 0.35995 0.0
C2369 C 0.48295 0.04661 0.34399 0.0
C2370 C 0.50407 0.07274 0.38113 0.0
C2371 C 0.51143 0.05274 0.38664 0.0
C2372 C 0.50457 0.02983 0.3705 0.0
C2373 C 0.4906 0.02682 0.34948 0.0
C2374 C 0.55074 0.04013 0.43362 0.0
C2375 C 0.54397 0.0514 0.45474 0.0
C2376 C 0.54123 0.04192 0.4114 0.0
C2377 C 0.52461 0.05477 0.40992 0.0
C2378 C 0.51885 0.0672 0.4311 0.0
C2379 C 0.52846 0.06558 0.45327 0.0
H2380 H 0.78064 0.76561 0.08338 0.0
H2381 H 0.82444 0.71751 0.08614 0.0
H2382 H 0.78476 0.7762 0.127 0.0
H2383 H 0.82892 0.72855 0.12977 0.0
H2384 H 0.81309 0.80361 0.20786 0.0
H2385 H 0.81055 0.79679 0.16401 0.0
H2386 H 0.80458 0.71918 0.16003 0.0
H2387 H 0.80725 0.72612 0.20349 0.0
C2388 C 0.79148 0.7576 0.09326 0.0
C2389 C 0.80206 0.74049 0.08117 0.0
C2390 C 0.79389 0.76378 0.11831 0.0
C2391 C 0.80691 0.75299 0.13192 0.0
C2392 C 0.81836 0.73681 0.11983 0.0
C2393 C 0.81597 0.73064 0.09479 0.0
C2394 C 0.81086 0.78509 0.19747 0.0
C2395 C 0.81001 0.7653 0.20895 0.0
C2396 C 0.80952 0.78117 0.17242 0.0
C2397 C 0.80767 0.75747 0.15849 0.0
C2398 C 0.80649 0.73774 0.17015 0.0
C2399 C 0.80779 0.74165 0.19504 0.0
H2400 H 0.16242 0.99807 0.68335 0.0
H2401 H 0.10937 0.02585 0.71316 0.0
H2402 H 0.14728 1.00078 0.64336 0.0
H2403 H 0.09496 0.02952 0.67419 0.0
H2404 H 0.06204 0.02409 0.59764 0.0
H2405 H 0.07619 0.01938 0.63712 0.0
H2406 H 0.1408 0.01961 0.61297 0.0
H2407 H 0.1263 0.02358 0.57375 0.0
C2408 C 0.14745 1.00454 0.68161 0.0
C2409 C 0.1374 0.01148 0.70235 0.0
C2410 C 0.13871 1.00651 0.65832 0.0
C2411 C 0.11945 0.01563 0.65441 0.0
C2412 C 0.10939 0.02209 0.67525 0.0
C2413 C 0.11799 0.02004 0.69823 0.0
C2414 C 0.07933 0.02341 0.60079 0.0
C2415 C 0.09285 0.02454 0.58192 0.0
C2416 C 0.08773 0.02065 0.62382 0.0
C2417 C 0.11011 0.01881 0.62935 0.0
C2418 C 0.1235 0.02032 0.61034 0.0
C2419 C 0.11511 0.02295 0.58746 0.0
H2420 H 0.85952 0.36724 0.46964 0.0
H2421 H 0.79342 0.3787 0.45666 0.0
H2422 H 0.85543 0.34374 0.4288 0.0
H2423 H 0.78936 0.35451 0.41557 0.0
H2424 H 0.79407 0.2847 0.35247 0.0
H2425 H 0.79435 0.30378 0.39452 0.0
H2426 H 0.84845 0.36537 0.38807 0.0
H2427 H 0.8477 0.34717 0.34602 0.0
C2428 C 0.84394 0.36439 0.45824 0.0
C2429 C 0.82681 0.37496 0.4663 0.0
C2430 C 0.84168 0.35094 0.43492 0.0
C2431 C 0.82213 0.34745 0.41939 0.0
C2432 C 0.80451 0.35696 0.42753 0.0
C2433 C 0.80689 0.37083 0.45088 0.0
C2434 C 0.80579 0.30243 0.35988 0.0
C2435 C 0.82052 0.3146 0.34572 0.0
C2436 C 0.80595 0.31325 0.38389 0.0
C2437 C 0.82128 0.33599 0.39413 0.0
C2438 C 0.83644 0.34781 0.38031 0.0
C2439 C 0.83599 0.33731 0.35629 0.0
H2440 H 0.43582 0.05485 0.20577 0.0
H2441 H 0.50262 0.05542 0.23378 0.0
H2442 H 0.44728 0.05221 0.16546 0.0
H2443 H 0.51403 0.05238 0.19414 0.0
H2444 H 0.53313 0.03889 0.12493 0.0
H2445 H 0.52126 0.06404 0.15771 0.0
H2446 H 0.45362 0.01634 0.14039 0.0
H2447 H 0.46495 0.99247 0.106 0.0
C2448 C 0.45318 0.0555 0.20342 0.0
C2449 C 0.46832 0.05499 0.22261 0.0
C2450 C 0.4597 0.05372 0.18037 0.0
C2451 C 0.48144 0.05155 0.17643 0.0
C2452 C 0.4972 0.05413 0.19632 0.0
C2453 C 0.49066 0.05575 0.21913 0.0
C2454 C 0.51549 0.03422 0.12732 0.0
C2455 C 0.50013 0.01307 0.11301 0.0
C2456 C 0.50873 0.04862 0.1464 0.0
C2457 C 0.48665 0.04186 0.15215 0.0
C2458 C 0.4708 0.02214 0.13658 0.0
C2459 C 0.47744 1.00803 0.11712 0.0
H2460 H 0.80522 0.69418 0.93155 0.0
H2461 H 0.81139 0.77106 0.96131 0.0
H2462 H 0.8089 0.70364 0.89172 0.0
H2463 H 0.81591 0.78059 0.92174 0.0
H2464 H 0.84076 0.78582 0.84637 0.0
H2465 H 0.84391 0.77526 0.88567 0.0
H2466 H 0.77869 0.72294 0.86731 0.0
H2467 H 0.7747 0.73469 0.82887 0.0
C2468 C 0.80812 0.71319 0.92972 0.0
C2469 C 0.80805 0.73191 0.9495 0.0
C2470 C 0.81006 0.71855 0.90695 0.0
C2471 C 0.81264 0.74282 0.90373 0.0
C2472 C 0.81407 0.76176 0.92378 0.0
C2473 C 0.81148 0.75631 0.94638 0.0
C2474 C 0.82698 0.7722 0.85069 0.0
C2475 C 0.80741 0.76117 0.83427 0.0
C2476 C 0.82893 0.76602 0.87314 0.0
C2477 C 0.81164 0.74813 0.87938 0.0
C2478 C 0.79243 0.73651 0.86277 0.0
C2479 C 0.79022 0.74317 0.84063 0.0
H2480 H 0.81127 0.05623 0.98773 0.0
H2481 H 0.8653 0.11694 0.02795 0.0
H2482 H 0.83746 0.03039 0.98193 0.0
H2483 H 0.8913 0.09111 0.02218 0.0
H2484 H 0.93516 0.04953 0.98031 0.0
H2485 H 0.90719 0.07284 0.98599 0.0
H2486 H 0.86216 0.01111 0.00589 0.0
H2487 H 0.89045 0.98774 1.00061 0.0
C2488 C 0.82867 0.064 0.99547 0.0
C2489 C 0.83626 0.08868 0.00815 0.0
C2490 C 0.8436 0.04917 0.99222 0.0
C2491 C 0.86641 0.05885 1.00141 0.0
C2492 C 0.87385 0.08331 0.0146 0.0
C2493 C 0.85893 0.09805 0.01801 0.0
C2494 C 0.91933 0.04092 0.98597 0.0
C2495 C 0.91513 0.01691 0.99033 0.0
C2496 C 0.90334 0.05428 0.98923 0.0
C2497 C 0.88267 0.04389 0.99671 0.0
C2498 C 0.87798 0.01951 1.00008 0.0
C2499 C 0.89411 1.00613 0.99697 0.0
H2500 H 0.38035 0.45472 0.06474 0.0
H2501 H 0.40152 0.39987 0.01577 0.0
H2502 H 0.41761 0.48386 0.06706 0.0
H2503 H 0.43776 0.42865 0.01734 0.0
H2504 H 0.50771 0.46916 0.04348 0.0
H2505 H 0.47011 0.44488 0.0464 0.0
H2506 H 0.44444 0.50846 0.04455 0.0
H2507 H 0.48264 0.53302 0.04243 0.0
C2508 C 0.39282 0.44906 0.05428 0.0
C2509 C 0.38825 0.42491 0.04047 0.0
C2510 C 0.41409 0.46567 0.05558 0.0
C2511 C 0.43089 0.45832 0.04292 0.0
C2512 C 0.4256 0.43465 0.02806 0.0
C2513 C 0.40471 0.41816 0.02703 0.0
C2514 C 0.49407 0.47801 0.04408 0.0
C2515 C 0.49794 0.50284 0.0427 0.0
C2516 C 0.4725 0.46412 0.04559 0.0
C2517 C 0.45413 0.47457 0.04513 0.0
C2518 C 0.45821 0.49987 0.04499 0.0
C2519 C 0.48004 0.51395 0.04383 0.0
H2520 H 0.40372 0.63206 0.75 0.0
H2521 H 0.408 0.65635 0.82632 0.0
H2522 H 0.38382 0.66339 0.74453 0.0
H2523 H 0.38878 0.68754 0.82107 0.0
H2524 H 0.34373 0.73985 0.80982 0.0
H2525 H 0.36068 0.70601 0.81451 0.0
H2526 H 0.37898 0.70149 0.74294 0.0
H2527 H 0.36168 0.73452 0.73834 0.0
C2528 C 0.40056 0.6439 0.76576 0.0
C2529 C 0.40801 0.64079 0.78872 0.0
C2530 C 0.38901 0.66243 0.76266 0.0
C2531 C 0.38404 0.67911 0.78227 0.0
C2532 C 0.39143 0.67566 0.80509 0.0
C2533 C 0.40291 0.65735 0.80814 0.0
C2534 C 0.35107 0.73149 0.79491 0.0
C2535 C 0.35068 0.74046 0.77347 0.0
C2536 C 0.36127 0.71183 0.79764 0.0
C2537 C 0.37191 0.69995 0.77922 0.0
C2538 C 0.37116 0.709 0.75783 0.0
C2539 C 0.36106 0.72849 0.75516 0.0
H2540 H 0.23274 0.57026 0.49393 0.0
H2541 H 0.23151 0.61813 0.5613 0.0
H2542 H 0.19176 0.55863 0.4873 0.0
H2543 H 0.1905 0.60571 0.55557 0.0
H2544 H 0.11657 0.53542 0.48587 0.0
H2545 H 0.15617 0.54004 0.49635 0.0
H2546 H 0.16417 0.6164 0.53065 0.0
H2547 H 0.12396 0.61108 0.52063 0.0
C2548 C 0.22356 0.57717 0.50789 0.0
C2549 C 0.23498 0.59473 0.52822 0.0
C2550 C 0.20009 0.57072 0.50408 0.0
C2551 C 0.18783 0.58168 0.52069 0.0
C2552 C 0.19944 0.59748 0.54212 0.0
C2553 C 0.22285 0.6042 0.54569 0.0
C2554 C 0.12665 0.55307 0.49576 0.0
C2555 C 0.11706 0.57258 0.5033 0.0
C2556 C 0.14951 0.55582 0.50167 0.0
C2557 C 0.16338 0.57845 0.51476 0.0
C2558 C 0.15387 0.59839 0.52133 0.0
C2559 C 0.13091 0.59546 0.51555 0.0
H2560 H 0.75243 0.03491 0.81376 0.0
H2561 H 0.75679 1.00466 0.73974 0.0
H2562 H 0.7782 0.01199 0.82648 0.0
H2563 H 0.78277 0.98221 0.75253 0.0
H2564 H 0.84635 0.96705 0.78451 0.0
H2565 H 0.82374 0.99514 0.77667 0.0
H2566 H 0.77516 0.96378 0.82044 0.0
H2567 H 0.79758 0.93544 0.82788 0.0
C2568 C 0.75892 0.02343 0.80025 0.0
C2569 C 0.7526 0.02149 0.77578 0.0
C2570 C 0.77362 0.01039 0.80753 0.0
C2571 C 0.78257 0.99566 0.79045 0.0
C2572 C 0.7763 0.99377 0.76601 0.0
C2573 C 0.76129 1.0064 0.75872 0.0
C2574 C 0.83116 0.96672 0.79295 0.0
C2575 C 0.82363 0.94932 0.80684 0.0
C2576 C 0.81818 0.98255 0.78832 0.0
C2577 C 0.79773 0.98141 0.79788 0.0
C2578 C 0.79094 0.96505 0.81301 0.0
C2579 C 0.80371 0.94893 0.81727 0.0
H2580 H 0.7563 0.91892 0.53714 0.0
H2581 H 0.80217 0.96518 0.50062 0.0
H2582 H 0.72918 0.94317 0.53283 0.0
H2583 H 0.77516 0.98915 0.49625 0.0
H2584 H 0.73249 0.04281 0.51396 0.0
H2585 H 0.75856 0.01844 0.52097 0.0
H2586 H 0.70426 0.95173 0.50099 0.0
H2587 H 0.67808 0.97611 0.49355 0.0
C2588 C 0.76064 0.93427 0.52825 0.0
C2589 C 0.78148 0.9401 0.51927 0.0
C2590 C 0.74503 0.94807 0.52567 0.0
C2591 C 0.75 0.96819 0.51427 0.0
C2592 C 0.77088 0.97402 0.50542 0.0
C2593 C 0.78635 0.96015 0.50782 0.0
C2594 C 0.72605 0.02294 0.51084 0.0
C2595 C 0.70313 0.0115 0.50286 0.0
C2596 C 0.74104 0.00894 0.51494 0.0
C2597 C 0.73359 0.98307 0.51134 0.0
C2598 C 0.71056 0.97163 0.50411 0.0
C2599 C 0.69553 0.98565 0.49987 0.0
H2600 H 0.38036 0.50383 0.77848 0.0
H2601 H 0.43334 0.47111 0.75568 0.0
H2602 H 0.35655 0.46215 0.77876 0.0
H2603 H 0.41018 0.43062 0.75627 0.0
H2604 H 0.37695 0.36566 0.78764 0.0
H2605 H 0.39662 0.40778 0.7866 0.0
H2606 H 0.33601 0.41813 0.75307 0.0
H2607 H 0.31618 0.37538 0.75372 0.0
C2608 C 0.38694 0.48798 0.77329 0.0
C2609 C 0.40912 0.49142 0.76724 0.0
C2610 C 0.37325 0.46394 0.77349 0.0
C2611 C 0.38142 0.44265 0.76796 0.0
C2612 C 0.40323 0.44625 0.76121 0.0
C2613 C 0.41662 0.46985 0.76077 0.0
C2614 C 0.36759 0.37667 0.77997 0.0
C2615 C 0.34467 0.36652 0.7708 0.0
C2616 C 0.37903 0.40112 0.77933 0.0
C2617 C 0.36814 0.41682 0.76968 0.0
C2618 C 0.3451 0.40695 0.76087 0.0
C2619 C 0.33365 0.38222 0.76121 0.0
H2620 H 0.25494 0.6061 0.26087 0.0
H2621 H 0.21781 0.6148 0.19781 0.0
H2622 H 0.27713 0.64885 0.26732 0.0
H2623 H 0.2407 0.65727 0.20357 0.0
H2624 H 0.24712 0.73412 0.25093 0.0
H2625 H 0.23563 0.68984 0.23462 0.0
H2626 H 0.30227 0.68475 0.25738 0.0
H2627 H 0.31348 0.72931 0.27432 0.0
C2628 C 0.25227 0.61681 0.24775 0.0
C2629 C 0.23433 0.60746 0.2292 0.0
C2630 C 0.265 0.64133 0.25142 0.0
C2631 C 0.26011 0.65662 0.23638 0.0
C2632 C 0.24431 0.6461 0.2159 0.0
C2633 C 0.23133 0.62178 0.21248 0.0
C2634 C 0.25933 0.72351 0.25211 0.0
C2635 C 0.28126 0.73499 0.26322 0.0
C2636 C 0.2529 0.69822 0.24257 0.0
C2637 C 0.2682 0.68383 0.24426 0.0
C2638 C 0.29017 0.69537 0.25566 0.0
C2639 C 0.29663 0.72081 0.26519 0.0
H2640 H 0.54976 0.69689 0.44722 0.0
H2641 H 0.49918 0.69756 0.49522 0.0
H2642 H 0.55758 0.66099 0.46041 0.0
H2643 H 0.50639 0.6617 0.50778 0.0
H2644 H 0.53586 0.61025 0.54388 0.0
H2645 H 0.53014 0.64662 0.53046 0.0
H2646 H 0.5459 0.6179 0.46034 0.0
H2647 H 0.55226 0.58179 0.47434 0.0
C2648 C 0.54023 0.68945 0.46053 0.0
C2649 C 0.52387 0.70061 0.47012 0.0
C2650 C 0.54462 0.66859 0.46807 0.0
C2651 C 0.53283 0.65804 0.4855 0.0
C2652 C 0.51637 0.66919 0.49482 0.0
C2653 C 0.51206 0.68994 0.48738 0.0
C2654 C 0.53832 0.61183 0.52566 0.0
C2655 C 0.54512 0.59331 0.51047 0.0
C2656 C 0.53481 0.63271 0.51775 0.0
C2657 C 0.53744 0.63573 0.49407 0.0
C2658 C 0.54402 0.61688 0.47877 0.0
C2659 C 0.54766 0.596 0.48678 0.0
H2660 H 0.65565 0.32822 0.68665 0.0
H2661 H 0.69441 0.31916 0.62748 0.0
H2662 H 0.68691 0.32545 0.71375 0.0
H2663 H 0.72492 0.31514 0.65395 0.0
H2664 H 0.78518 0.32624 0.70796 0.0
H2665 H 0.75468 0.33278 0.68298 0.0
H2666 H 0.70708 0.3003 0.72726 0.0
H2667 H 0.738 0.29491 0.75287 0.0
C2668 C 0.67083 0.32571 0.67938 0.0
C2669 C 0.67235 0.3241 0.65475 0.0
C2670 C 0.6888 0.32382 0.69494 0.0
C2671 C 0.70883 0.31997 0.68636 0.0
C2672 C 0.71026 0.3186 0.66171 0.0
C2673 C 0.6925 0.32079 0.64631 0.0
C2674 C 0.76818 0.32038 0.71232 0.0
C2675 C 0.76415 0.30988 0.73244 0.0
C2676 C 0.75049 0.32404 0.69784 0.0
C2677 C 0.72796 0.31695 0.70266 0.0
C2678 C 0.72401 0.30645 0.7229 0.0
C2679 C 0.74181 0.30313 0.73761 0.0
H2680 H 0.05619 0.3488 0.9479 0.0
H2681 H 0.01287 0.34508 1.00364 0.0
H2682 H 0.06283 0.3936 0.95599 0.0
H2683 H 0.01901 0.38981 0.01133 0.0
H2684 H 0.05207 0.46925 0.95644 0.0
H2685 H 0.04495 0.42454 0.95043 0.0
H2686 H 0.04393 0.42999 0.02652 0.0
H2687 H 0.05076 0.47491 0.03232 0.0
C2688 C 0.0482 0.35749 0.96203 0.0
C2689 C 0.034 0.34302 0.97507 0.0
C2690 C 0.05179 0.38332 0.96653 0.0
C2691 C 0.04125 0.39569 0.98417 0.0
C2692 C 0.02761 0.38127 0.99772 0.0
C2693 C 0.02404 0.35543 0.99325 0.0
C2694 C 0.05004 0.46087 0.97187 0.0
C2695 C 0.05175 0.47575 0.9948 0.0
C2696 C 0.04621 0.43514 0.96848 0.0
C2697 C 0.04417 0.42328 0.98797 0.0
C2698 C 0.04526 0.43817 0.01095 0.0
C2699 C 0.04911 0.46404 0.01433 0.0
H2700 H 0.01332 0.81558 0.13059 0.0
H2701 H 0.06208 0.81068 0.18601 0.0
H2702 H 0.98485 0.81266 0.15794 0.0
H2703 H 0.03341 0.80709 0.21327 0.0
H2704 H 0.9835 0.82499 0.26382 0.0
H2705 H 0.0116 0.82961 0.23617 0.0
H2706 H 0.96147 0.78505 0.17795 0.0
H2707 H 0.93324 0.7807 0.20573 0.0
C2708 C 0.01799 0.81378 0.1486 0.0
C2709 C 0.0401 0.81341 0.15603 0.0
C2710 C 1.00155 0.81193 0.1643 0.0
C2711 C 0.00666 0.80959 0.18794 0.0
C2712 C 0.02882 0.80924 0.19536 0.0
C2713 C 0.0453 0.81116 0.17966 0.0
C2714 C 0.97844 0.81611 0.24512 0.0
C2715 C 0.95606 0.80229 0.2371 0.0
C2716 C 0.99464 0.81869 0.22922 0.0
C2717 C 0.98903 0.80751 0.20474 0.0
C2718 C 0.96649 0.79417 0.19659 0.0
C2719 C 0.95022 0.79165 0.21254 0.0
H2720 H 0.49516 0.27015 0.08664 0.0
H2721 H 0.52022 0.33401 0.14454 0.0
H2722 H 0.50293 0.29623 0.05774 0.0
H2723 H 0.52719 0.36043 0.11554 0.0
H2724 H 0.56004 0.39665 0.05773 0.0
H2725 H 0.55163 0.37082 0.08697 0.0
H2726 H 0.49162 0.32625 0.04062 0.0
H2727 H 0.50054 0.35172 0.01114 0.0
C2728 C 0.50202 0.28985 0.09324 0.0
C2729 C 0.50707 0.29998 0.11794 0.0
C2730 C 0.50639 0.30488 0.0766 0.0
C2731 C 0.51571 0.33053 0.08418 0.0
C2732 C 0.52037 0.34073 0.10896 0.0
C2733 C 0.51621 0.32561 0.12563 0.0
C2734 C 0.54505 0.38131 0.05384 0.0
C2735 C 0.53099 0.37615 0.0321 0.0
C2736 C 0.54013 0.36657 0.07067 0.0
C2737 C 0.52088 0.3464 0.0663 0.0
C2738 C 0.5068 0.34132 0.0445 0.0
C2739 C 0.51187 0.35592 0.02757 0.0
H2740 H 0.06503 0.31635 0.34834 0.0
H2741 H 0.03759 0.35038 0.40917 0.0
H2742 H 0.03483 0.32195 0.32144 0.0
H2743 H 0.00804 0.35613 0.38243 0.0
H2744 H 0.97946 0.39312 0.32942 0.0
H2745 H 0.01099 0.38445 0.3512 0.0
H2746 H 0.9895 0.30821 0.31345 0.0
H2747 H 0.95784 0.31687 0.29149 0.0
C2748 C 0.05245 0.32465 0.35599 0.0
C2749 C 0.05386 0.33312 0.3809 0.0
C2750 C 0.03526 0.3279 0.3406 0.0
C2751 C 0.0195 0.33994 0.34994 0.0
C2752 C 0.02031 0.34727 0.3748 0.0
C2753 C 0.03718 0.34379 0.3901 0.0
C2754 C 0.98176 0.37466 0.32536 0.0
C2755 C 0.96616 0.35563 0.30893 0.0
C2756 C 0.99966 0.36966 0.33793 0.0
C2757 C 1.00242 0.34561 0.33414 0.0
C2758 C 0.98768 0.32688 0.31665 0.0
C2759 C 0.96957 0.33182 0.30424 0.0
H2760 H 0.03381 0.71977 0.62446 0.0
H2761 H 0.99222 0.66095 0.65164 0.0
H2762 H 0.0446 0.68963 0.59502 0.0
H2763 H 1.00161 0.63051 0.62103 0.0
H2764 H 0.04972 0.6302 0.53394 0.0
H2765 H 0.03556 0.65963 0.56056 0.0
H2766 H 0.03155 0.61384 0.61311 0.0
H2767 H 0.04329 0.58314 0.58521 0.0
C2768 C 0.02645 0.70031 0.62362 0.0
C2769 C 0.01235 0.69261 0.64037 0.0
C2770 C 0.03257 0.68296 0.60667 0.0
C2771 C 0.02424 0.65752 0.60576 0.0
C2772 C 0.00895 0.64991 0.62166 0.0
C2773 C 1.00332 0.6673 0.63901 0.0
C2774 C 0.04516 0.62609 0.55087 0.0
C2775 C 0.04688 0.604 0.55713 0.0
C2776 C 0.03749 0.64326 0.56643 0.0
C2777 C 0.03211 0.63909 0.58899 0.0
C2778 C 0.03485 0.61741 0.59563 0.0
C2779 C 0.042 0.59997 0.57981 0.0
H2780 H 0.66836 0.79611 0.87937 0.0
H2781 H 0.63466 0.79701 0.81094 0.0
H2782 H 0.70103 0.79012 0.86053 0.0
H2783 H 0.66736 0.79018 0.79184 0.0
H2784 H 0.74168 0.82105 0.77915 0.0
H2785 H 0.70477 0.817 0.79302 0.0
H2786 H 0.71758 0.76412 0.83349 0.0
H2787 H 0.75489 0.76913 0.82018 0.0
C2788 C 0.66773 0.79453 0.86018 0.0
C2789 C 0.64903 0.79746 0.84671 0.0
C2790 C 0.68645 0.79087 0.84933 0.0
C2791 C 0.68688 0.7899 0.82471 0.0
C2792 C 0.66765 0.7913 0.81094 0.0
C2793 C 0.6489 0.79509 0.82185 0.0
C2794 C 0.73626 0.80816 0.79057 0.0
C2795 C 0.7505 0.79461 0.79789 0.0
C2796 C 0.71515 0.80575 0.79845 0.0
C2797 C 0.70811 0.79 0.81415 0.0
C2798 C 0.72252 0.77641 0.82143 0.0
C2799 C 0.74373 0.77904 0.81367 0.0
H2800 H 0.45613 0.56523 0.68914 0.0
H2801 H 0.52254 0.57197 0.72262 0.0
H2802 H 0.47053 0.56303 0.64984 0.0
H2803 H 0.53682 0.56996 0.68404 0.0
H2804 H 0.56365 0.58314 0.61372 0.0
H2805 H 0.5479 0.58829 0.65159 0.0
H2806 H 0.48474 0.53868 0.61697 0.0
H2807 H 0.50084 0.53333 0.57894 0.0
C2808 C 0.47389 0.56689 0.68843 0.0
C2809 C 0.488 0.56929 0.70985 0.0
C2810 C 0.48224 0.56524 0.66556 0.0
C2811 C 0.50521 0.56629 0.66291 0.0
C2812 C 0.51922 0.56935 0.68451 0.0
C2813 C 0.51086 0.57055 0.70707 0.0
C2814 C 0.54644 0.57317 0.61391 0.0
C2815 C 0.53399 0.55759 0.59251 0.0
C2816 C 0.5372 0.57609 0.63606 0.0
C2817 C 0.51471 0.56386 0.63828 0.0
C2818 C 0.50198 0.54875 0.6167 0.0
C2819 C 0.51138 0.54559 0.59454 0.0
H2820 H 0.83281 0.18213 0.95542 0.0
H2821 H 0.7614 0.14813 0.94057 0.0
H2822 H 0.8322 0.19486 0.91688 0.0
H2823 H 0.76062 0.16049 0.90243 0.0
H2824 H 0.75642 0.19021 0.84066 0.0
H2825 H 0.77103 0.16353 0.86266 0.0
H2826 H 0.81494 0.22806 0.91043 0.0
H2827 H 0.80054 0.25447 0.88851 0.0
C2828 C 0.81723 0.17645 0.94342 0.0
C2829 C 0.79706 0.1646 0.9509 0.0
C2830 C 0.81684 0.18378 0.92146 0.0
C2831 C 0.79632 0.17902 0.90678 0.0
C2832 C 0.77676 0.16438 0.91315 0.0
C2833 C 0.77711 0.15744 0.93512 0.0
C2834 C 0.7696 0.19859 0.85552 0.0
C2835 C 0.77688 0.22438 0.86334 0.0
C2836 C 0.77808 0.18335 0.86796 0.0
C2837 C 0.79381 0.19369 0.88854 0.0
C2838 C 0.80295 0.21944 0.89458 0.0
C2839 C 0.79455 0.23465 0.88209 0.0
H2840 H 0.1692 0.51218 0.16756 0.0
H2841 H 0.10917 0.50269 0.20269 0.0
H2842 H 0.1469 0.50707 0.12963 0.0
H2843 H 0.08629 0.49547 0.16429 0.0
H2844 H 0.06346 0.53638 0.10925 0.0
H2845 H 0.08022 0.52409 0.14304 0.0
H2846 H 0.12105 0.4897 0.09645 0.0
H2847 H 0.10515 0.50377 0.06316 0.0
C2848 C 0.15104 0.50755 0.16687 0.0
C2849 C 0.14087 0.50824 0.18797 0.0
C2850 C 0.13813 0.50462 0.14504 0.0
C2851 C 0.11474 0.5017 0.14392 0.0
C2852 C 0.10434 0.49874 0.16463 0.0
C2853 C 0.11735 0.50244 0.18657 0.0
C2854 C 0.07587 0.52601 0.10637 0.0
C2855 C 0.08338 0.52129 0.08399 0.0
C2856 C 0.08535 0.51863 0.12562 0.0
C2857 C 0.10214 0.50584 0.12263 0.0
C2858 C 0.1086 0.49996 0.09965 0.0
C2859 C 0.09953 0.50795 0.08058 0.0
H2860 H 0.79544 0.86559 0.45708 0.0
H2861 H 0.83674 0.81508 0.46088 0.0
H2862 H 0.79252 0.85536 0.41349 0.0
H2863 H 0.83439 0.80548 0.41745 0.0
H2864 H 0.80872 0.77926 0.33634 0.0
H2865 H 0.81029 0.78606 0.38006 0.0
H2866 H 0.81723 0.86384 0.38386 0.0
H2867 H 0.81525 0.85685 0.34045 0.0
C2868 C 0.80373 0.85217 0.44866 0.0
C2869 C 0.81641 0.8413 0.46255 0.0
C2870 C 0.80226 0.84647 0.42365 0.0
C2871 C 0.8135 0.82984 0.41194 0.0
C2872 C 0.82541 0.81823 0.42581 0.0
C2873 C 0.82682 0.82385 0.45079 0.0
C2874 C 0.81095 0.79781 0.34667 0.0
C2875 C 0.81211 0.81761 0.33516 0.0
C2876 C 0.81176 0.80173 0.37166 0.0
C2877 C 0.81352 0.82546 0.38548 0.0
C2878 C 0.81528 0.84525 0.3738 0.0
C2879 C 0.81441 0.84132 0.34897 0.0
H2880 H 0.4643 0.57955 0.86824 0.0
H2881 H 0.51824 0.55331 0.83881 0.0
H2882 H 0.47812 0.57461 0.90785 0.0
H2883 H 0.53135 0.54742 0.87729 0.0
H2884 H 0.56125 0.54605 0.95319 0.0
H2885 H 0.5483 0.55273 0.91416 0.0
H2886 H 0.48449 0.55662 0.93845 0.0
H2887 H 0.49787 0.55068 0.97724 0.0
C2888 C 0.47921 0.57297 0.86998 0.0
C2889 C 0.48989 0.56717 0.8494 0.0
C2890 C 0.48721 0.56968 0.89308 0.0
C2891 C 0.50629 0.56023 0.89703 0.0
C2892 C 0.51697 0.55493 0.87635 0.0
C2893 C 0.50913 0.55833 0.85358 0.0
C2894 C 0.54435 0.54802 0.95016 0.0
C2895 C 0.53077 0.54744 0.96902 0.0
C2896 C 0.53664 0.55198 0.92734 0.0
C2897 C 0.51487 0.55562 0.9219 0.0
C2898 C 0.50137 0.55456 0.94089 0.0
C2899 C 0.50911 0.55077 0.96358 0.0
H2900 H 0.84093 0.19005 0.0941 0.0
H2901 H 0.81819 0.2484 0.07039 0.0
H2902 H 0.84349 0.21162 0.13555 0.0
H2903 H 0.8197 0.26922 0.11157 0.0
H2904 H 0.82865 0.30551 0.1895 0.0
H2905 H 0.83786 0.29011 0.14993 0.0
H2906 H 0.81394 0.21518 0.15944 0.0
H2907 H 0.80626 0.23067 0.19952 0.0
C2908 C 0.83707 0.20778 0.09767 0.0
C2909 C 0.8288 0.21719 0.07899 0.0
C2910 C 0.83822 0.21997 0.12144 0.0
C2911 C 0.83103 0.24168 0.12688 0.0
C2912 C 0.82527 0.25248 0.1081 0.0
C2913 C 0.82434 0.24045 0.08439 0.0
C2914 C 0.82562 0.28576 0.18322 0.0
C2915 C 0.81712 0.26934 0.19782 0.0
C2916 C 0.83078 0.27692 0.16048 0.0
C2917 C 0.82703 0.25141 0.15162 0.0
C2918 C 0.81776 0.23498 0.16596 0.0
C2919 C 0.81293 0.24385 0.18881 0.0
H2920 H 0.18913 0.60203 0.32142 0.0
H2921 H 0.16383 0.52312 0.31306 0.0
H2922 H 0.17683 0.60839 0.3608 0.0
H2923 H 0.15117 0.52945 0.35288 0.0
H2924 H 0.0952 0.56447 0.38926 0.0
H2925 H 0.11911 0.54773 0.36267 0.0
H2926 H 0.17753 0.60268 0.40253 0.0
H2927 H 0.15348 0.61949 0.42938 0.0
C2928 C 0.18142 0.58601 0.32837 0.0
C2929 C 0.177 0.56214 0.31418 0.0
C2930 C 0.17461 0.5896 0.35106 0.0
C2931 C 0.1629 0.5694 0.35986 0.0
C2932 C 0.16008 0.54533 0.34643 0.0
C2933 C 0.16731 0.5417 0.32374 0.0
C2934 C 0.11322 0.57247 0.39291 0.0
C2935 C 0.12242 0.59375 0.41096 0.0
C2936 C 0.12697 0.56274 0.37774 0.0
C2937 C 0.15014 0.57417 0.38031 0.0
C2938 C 0.15964 0.59378 0.39995 0.0
C2939 C 0.14588 0.60353 0.41513 0.0
H2940 H 0.79768 0.87718 0.60792 0.0
H2941 H 0.80614 0.80485 0.57975 0.0
H2942 H 0.78921 0.86485 0.64571 0.0
H2943 H 0.79764 0.79258 0.61721 0.0
H2944 H 0.76783 0.77244 0.68306 0.0
H2945 H 0.76793 0.78489 0.64454 0.0
H2946 H 0.81375 0.85537 0.67806 0.0
H2947 H 0.81375 0.84301 0.71649 0.0
C2948 C 0.79719 0.8585 0.60958 0.0
C2949 C 0.80267 0.84203 0.59091 0.0
C2950 C 0.79254 0.85151 0.63126 0.0
C2951 C 0.79289 0.82778 0.63448 0.0
C2952 C 0.79706 0.81091 0.61527 0.0
C2953 C 0.80203 0.81799 0.59382 0.0
C2954 C 0.77773 0.79069 0.68228 0.0
C2955 C 0.79091 0.80664 0.70286 0.0
C2956 C 0.77783 0.79779 0.6602 0.0
C2957 C 0.79083 0.82113 0.65826 0.0
C2958 C 0.80336 0.83739 0.679 0.0
C2959 C 0.8035 0.83019 0.701 0.0
H2960 H 0.7618 0.45955 0.5156 0.0
H2961 H 0.81482 0.52762 0.53509 0.0
H2962 H 0.73398 0.48265 0.52439 0.0
H2963 H 0.78715 0.55052 0.54453 0.0
H2964 H 0.72945 0.58698 0.5439 0.0
H2965 H 0.75635 0.56422 0.52945 0.0
H2966 H 0.72322 0.50361 0.56048 0.0
H2967 H 0.69595 0.52618 0.57399 0.0
C2968 C 0.7675 0.47945 0.52148 0.0
C2969 C 0.79052 0.49173 0.52492 0.0
C2970 C 0.75158 0.49266 0.52674 0.0
C2971 C 0.75839 0.51837 0.53556 0.0
C2972 C 0.78132 0.53076 0.53769 0.0
C2973 C 0.7972 0.51759 0.53237 0.0
C2974 C 0.72822 0.56889 0.54775 0.0
C2975 C 0.71105 0.5583 0.56024 0.0
C2976 C 0.7435 0.55585 0.53949 0.0
C2977 C 0.74187 0.53206 0.54373 0.0
C2978 C 0.72469 0.52168 0.55651 0.0
C2979 C 0.70931 0.53465 0.56455 0.0
H2980 H 0.24151 0.12077 0.48881 0.0
H2981 H 0.21368 0.17543 0.52965 0.0
H2982 H 0.20529 0.0896 0.48564 0.0
H2983 H 0.1785 0.14477 0.52733 0.0
H2984 H 0.11119 0.0977 0.501 0.0
H2985 H 0.14787 0.12371 0.4975 0.0
H2986 H 0.17848 0.0656 0.5083 0.0
H2987 H 0.14112 0.03902 0.51063 0.0
C2988 C 0.22778 0.12604 0.49724 0.0
C2989 C 0.23026 0.15063 0.50905 0.0
C2990 C 0.2071 0.10825 0.49547 0.0
C2991 C 0.18877 0.11484 0.50567 0.0
C2992 C 0.19187 0.13918 0.51843 0.0
C2993 C 0.21218 0.1568 0.51991 0.0
C2994 C 0.12572 0.09035 0.50211 0.0
C2995 C 0.12351 0.06654 0.50616 0.0
C2996 C 0.14677 0.10527 0.50033 0.0
C2997 C 0.16625 0.097 0.50328 0.0
C2998 C 0.16385 0.07253 0.50595 0.0
C2999 C 0.14253 0.05733 0.50729 0.0
H3000 H 0.24076 0.95486 0.8175 0.0
H3001 H 0.21682 0.93199 0.74225 0.0
H3002 H 0.25996 0.92273 0.81465 0.0
H3003 H 0.23617 0.89849 0.73937 0.0
H3004 H 0.28573 0.84439 0.74024 0.0
H3005 H 0.26789 0.87871 0.7392 0.0
H3006 H 0.259 0.88295 0.81361 0.0
H3007 H 0.27688 0.84991 0.81456 0.0
C3008 C 0.23928 0.94292 0.80006 0.0
C3009 C 0.22651 0.94693 0.78025 0.0
C3010 C 0.25048 0.92375 0.79844 0.0
C3011 C 0.2499 0.90659 0.77683 0.0
C3012 C 0.23752 0.91071 0.75661 0.0
C3013 C 0.22614 0.93023 0.75826 0.0
C3014 C 0.2804 0.85297 0.75654 0.0
C3015 C 0.28361 0.844 0.77772 0.0
C3016 C 0.26973 0.8728 0.75592 0.0
C3017 C 0.26163 0.88484 0.7764 0.0
C3018 C 0.26503 0.87557 0.7973 0.0
C3019 C 0.27548 0.85602 0.79787 0.0
H3020 H 0.39477 0.0251 0.03954 0.0
H3021 H 0.39413 0.99662 0.96416 0.0
H3022 H 0.43369 0.04905 0.0417 0.0
H3023 H 0.43277 0.02085 0.96628 0.0
H3024 H 0.49508 1.00009 0.00615 0.0
H3025 H 0.45566 0.99877 0.99633 0.0
H3026 H 0.47072 0.07755 0.02316 0.0
H3027 H 0.5104 0.0786 0.03307 0.0
C3028 C 0.40238 0.02539 0.0231 0.0
C3029 C 0.3919 0.00855 1.00183 0.0
C3030 C 0.42468 0.0391 0.02436 0.0
C3031 C 0.43625 0.03606 1.00428 0.0
C3032 C 0.4242 0.02316 0.98201 0.0
C3033 C 0.40207 0.00933 0.9808 0.0
C3034 C 0.49006 0.0172 0.00908 0.0
C3035 C 0.50582 0.03972 0.01859 0.0
C3036 C 0.46762 0.0165 1.00356 0.0
C3037 C 0.46049 0.03828 0.00806 0.0
C3038 C 0.47607 0.06075 0.01869 0.0
C3039 C 0.49866 0.06138 0.02413 0.0
H3040 H 0.92121 0.63427 0.78641 0.0
H3041 H 0.85848 0.58 0.7856 0.0
H3042 H 0.90069 0.66064 0.77103 0.0
H3043 H 0.83805 0.60573 0.7693 0.0
H3044 H 0.80389 0.66044 0.74919 0.0
H3045 H 0.82559 0.64186 0.77379 0.0
H3046 H 0.88181 0.66042 0.73378 0.0
H3047 H 0.86069 0.68054 0.71039 0.0
C3048 C 0.90302 0.62807 0.78314 0.0
C3049 C 0.89149 0.60494 0.78699 0.0
C3050 C 0.89125 0.6431 0.77414 0.0
C3051 C 0.8677 0.6352 0.76852 0.0
C3052 C 0.85613 0.61261 0.7736 0.0
C3053 C 0.86788 0.59774 0.78286 0.0
C3054 C 0.82105 0.66105 0.74597 0.0
C3055 C 0.83042 0.67176 0.72757 0.0
C3056 C 0.83343 0.65009 0.75992 0.0
C3057 C 0.85541 0.64935 0.75567 0.0
C3058 C 0.86502 0.66079 0.73779 0.0
C3059 C 0.85274 0.67197 0.72403 0.0
H3060 H 0.88648 0.68541 1.00451 0.0
H3061 H 0.82974 0.63111 0.019 0.0
H3062 H 0.9103 0.6576 0.00779 0.0
H3063 H 0.85362 0.60363 0.02289 0.0
H3064 H 0.89593 0.54984 0.00521 0.0
H3065 H 0.87306 0.57799 0.99981 0.0
H3066 H 0.92785 0.63985 0.03639 0.0
H3067 H 0.95085 0.61157 0.04152 0.0
C3068 C 0.87908 0.66758 0.00847 0.0
C3069 C 0.85614 0.66051 0.01143 0.0
C3070 C 0.8928 0.65167 0.0105 0.0
C3071 C 0.88394 0.62828 0.01557 0.0
C3072 C 0.86099 0.62128 0.01856 0.0
C3073 C 0.84728 0.63714 0.01647 0.0
C3074 C 0.90309 0.56945 0.01217 0.0
C3075 C 0.92518 0.57841 0.02397 0.0
C3076 C 0.88994 0.58562 0.00912 0.0
C3077 C 0.89846 0.61124 0.01786 0.0
C3078 C 0.92077 0.62028 0.0292 0.0
C3079 C 0.93398 0.60407 0.03217 0.0
H3080 H 0.19529 0.10968 0.79488 0.0
H3081 H 0.24876 0.07784 0.772 0.0
H3082 H 0.21811 0.15039 0.79461 0.0
H3083 H 0.27222 0.11978 0.772 0.0
H3084 H 0.31209 0.20649 0.79754 0.0
H3085 H 0.2925 0.16353 0.79764 0.0
H3086 H 0.23155 0.17407 0.76511 0.0
H3087 H 0.25098 0.21645 0.76468 0.0
C3088 C 0.21204 0.11117 0.78981 0.0
C3089 C 0.21977 0.08977 0.78325 0.0
C3090 C 0.22524 0.13492 0.78955 0.0
C3091 C 0.24709 0.13886 0.78289 0.0
C3092 C 0.25548 0.11773 0.77721 0.0
C3093 C 0.24199 0.09354 0.77724 0.0
C3094 C 0.29458 0.19967 0.79018 0.0
C3095 C 0.2834 0.2155 0.78107 0.0
C3096 C 0.28327 0.1748 0.79019 0.0
C3097 C 0.2602 0.16489 0.7815 0.0
C3098 C 0.24916 0.18074 0.77229 0.0
C3099 C 0.26046 0.20534 0.772 0.0
H3100 H 0.38991 0.99377 0.31934 0.0
H3101 H 0.37495 0.96492 0.24311 0.0
H3102 H 0.3678 0.95439 0.32641 0.0
H3103 H 0.3521 0.92606 0.25018 0.0
H3104 H 0.30997 0.85912 0.27432 0.0
H3105 H 0.31741 0.90373 0.27683 0.0
H3106 H 0.38591 0.91365 0.30683 0.0
H3107 H 0.37875 0.86902 0.30352 0.0
C3108 C 0.38082 0.97953 0.30416 0.0
C3109 C 0.38413 0.98213 0.28069 0.0
C3110 C 0.36827 0.95707 0.30822 0.0
C3111 C 0.35841 0.93741 0.28881 0.0
C3112 C 0.35941 0.94114 0.26537 0.0
C3113 C 0.37247 0.96328 0.26133 0.0
C3114 C 0.32644 0.87095 0.282 0.0
C3115 C 0.34384 0.86084 0.28889 0.0
C3116 C 0.3306 0.89636 0.28351 0.0
C3117 C 0.35208 0.91192 0.29233 0.0
C3118 C 0.36909 0.90194 0.30042 0.0
C3119 C 0.3651 0.87652 0.29833 0.0
H3120 H 0.57832 0.38327 0.60931 0.0
H3121 H 0.6177 0.37666 0.55046 0.0
H3122 H 0.56944 0.4194 0.59803 0.0
H3123 H 0.60911 0.41285 0.53936 0.0
H3124 H 0.58148 0.50043 0.59005 0.0
H3125 H 0.58566 0.46164 0.59865 0.0
H3126 H 0.58248 0.43208 0.52305 0.0
H3127 H 0.57864 0.47165 0.51452 0.0
C3128 C 0.58508 0.38939 0.59392 0.0
C3129 C 0.59888 0.37674 0.581 0.0
C3130 C 0.58007 0.41037 0.58744 0.0
C3131 C 0.58855 0.41957 0.56768 0.0
C3132 C 0.60193 0.40653 0.55447 0.0
C3133 C 0.60704 0.38567 0.56103 0.0
C3134 C 0.58144 0.48561 0.57513 0.0
C3135 C 0.57947 0.48936 0.55153 0.0
C3136 C 0.58371 0.46308 0.58011 0.0
C3137 C 0.58447 0.4432 0.5617 0.0
C3138 C 0.58223 0.44679 0.5379 0.0
C3139 C 0.57977 0.46949 0.5329 0.0
H3140 H 0.47439 0.75917 0.36392 0.0
H3141 H 0.43207 0.75688 0.42067 0.0
H3142 H 0.44385 0.76521 0.33771 0.0
H3143 H 0.40205 0.76303 0.39481 0.0
H3144 H 0.37362 0.75213 0.29234 0.0
H3145 H 0.40448 0.74478 0.31649 0.0
H3146 H 0.394 0.79645 0.37711 0.0
H3147 H 0.36361 0.80435 0.35284 0.0
C3148 C 0.45859 0.75965 0.37077 0.0
C3149 C 0.45591 0.75749 0.39456 0.0
C3150 C 0.44103 0.76315 0.35573 0.0
C3151 C 0.42044 0.76494 0.36415 0.0
C3152 C 0.41769 0.76222 0.38772 0.0
C3153 C 0.43501 0.75845 0.40256 0.0
C3154 C 0.3781 0.76232 0.31067 0.0
C3155 C 0.36618 0.77926 0.32031 0.0
C3156 C 0.39584 0.75799 0.32461 0.0
C3157 C 0.40194 0.77002 0.34884 0.0
C3158 C 0.38979 0.78666 0.35859 0.0
C3159 C 0.37229 0.79126 0.34458 0.0
H3160 H 0.11402 0.73977 0.04722 0.0
H3161 H 0.07119 0.7355 0.10337 0.0
H3162 H 0.10678 0.69488 0.03812 0.0
H3163 H 0.06348 0.69056 0.0939 0.0
H3164 H 0.07234 0.61362 0.09042 0.0
H3165 H 0.08057 0.65851 0.09788 0.0
H3166 H 0.0807 0.6554 0.02202 0.0
H3167 H 0.07266 0.61027 0.01473 0.0
C3168 C 0.10275 0.72929 0.05743 0.0
C3169 C 0.09323 0.74157 0.07612 0.0
C3170 C 0.09854 0.70336 0.05213 0.0
C3171 C 0.08468 0.68872 0.06534 0.0
C3172 C 0.07464 0.70099 0.08356 0.0
C3173 C 0.07886 0.72691 0.08887 0.0
C3174 C 0.07441 0.62254 0.07534 0.0
C3175 C 0.07214 0.60824 0.05203 0.0
C3176 C 0.07889 0.64839 0.07958 0.0
C3177 C 0.08103 0.66096 0.0606 0.0
C3178 C 0.07932 0.64664 0.03722 0.0
C3179 C 0.07479 0.62065 0.03298 0.0
H3180 H 0.06436 0.27405 0.86518 0.0
H3181 H 0.11373 0.26868 0.9197 0.0
H3182 H 0.09262 0.27768 0.83746 0.0
H3183 H 0.14177 0.27161 0.8919 0.0
H3184 H 0.19287 0.30325 0.84361 0.0
H3185 H 0.16497 0.29905 0.87177 0.0
H3186 H 0.11407 0.25537 0.8139 0.0
H3187 H 0.14183 0.25988 0.78587 0.0
C3188 C 0.08118 0.27347 0.87123 0.0
C3189 C 0.08667 0.27108 0.89475 0.0
C3190 C 0.09744 0.27541 0.85526 0.0
C3191 C 0.11965 0.27494 0.86229 0.0
C3192 C 0.12504 0.27245 0.88582 0.0
C3193 C 0.10883 0.27059 0.90179 0.0
C3194 C 0.17578 0.29252 0.83696 0.0
C3195 C 0.16964 0.28209 0.81238 0.0
C3196 C 0.15971 0.29009 0.85313 0.0
C3197 C 0.13705 0.27703 0.84521 0.0
C3198 C 0.13112 0.26608 0.8207 0.0
C3199 C 0.14713 0.26859 0.80458 0.0
H3200 H 0.61153 0.7596 0.93641 0.0
H3201 H 0.59567 0.80916 0.99555 0.0
H3202 H 0.61119 0.72932 0.96166 0.0
H3203 H 0.59552 0.77919 0.02055 0.0
H3204 H 0.61373 0.7255 0.0636 0.0
H3205 H 0.62147 0.75659 0.03899 0.0
H3206 H 0.57739 0.70511 0.97956 0.0
H3207 H 0.569 0.6745 1.00411 0.0
C3208 C 0.60831 0.76413 0.95483 0.0
C3209 C 0.60335 0.78651 0.96398 0.0
C3210 C 0.60809 0.74688 0.9692 0.0
C3211 C 0.60334 0.75206 0.99297 0.0
C3212 C 0.59944 0.7749 1.00236 0.0
C3213 C 0.59931 0.79191 0.98797 0.0
C3214 C 0.6056 0.72093 0.04535 0.0
C3215 C 0.59085 0.69754 0.03578 0.0
C3216 C 0.61019 0.73857 0.03125 0.0
C3217 C 0.60026 0.73298 0.00736 0.0
C3218 C 0.58567 0.70961 0.99777 0.0
C3219 C 0.58086 0.69214 0.01188 0.0
H3220 H 0.08392 0.78345 0.6945 0.0
H3221 H 0.06866 0.77757 0.76585 0.0
H3222 H 0.12195 0.78025 0.70511 0.0
H3223 H 0.1069 0.77513 0.77661 0.0
H3224 H 0.18419 0.77716 0.78351 0.0
H3225 H 0.15333 0.79604 0.77597 0.0
H3226 H 0.12357 0.73503 0.71649 0.0
H3227 H 0.15392 0.71588 0.7245 0.0
C3228 C 0.0891 0.78297 0.71283 0.0
C3229 C 0.0734 0.78051 0.72933 0.0
C3230 C 0.11076 0.78091 0.7188 0.0
C3231 C 0.11703 0.7771 0.74151 0.0
C3232 C 0.10235 0.7781 0.759 0.0
C3233 C 0.08055 0.77958 0.75288 0.0
C3234 C 0.17092 0.76786 0.76894 0.0
C3235 C 0.17106 0.74502 0.75471 0.0
C3236 C 0.1535 0.77869 0.76455 0.0
C3237 C 0.13647 0.76713 0.74544 0.0
C3238 C 0.13682 0.74445 0.73107 0.0
C3239 C 0.1539 0.73336 0.7358 0.0
H3240 H 0.1279 0.40408 0.39255 0.0
H3241 H 0.15436 0.42942 0.4673 0.0
H3242 H 0.11565 0.44165 0.39361 0.0
H3243 H 0.14274 0.46728 0.46803 0.0
H3244 H 0.06515 0.46783 0.46429 0.0
H3245 H 0.08949 0.44245 0.44865 0.0
H3246 H 0.12948 0.50352 0.42322 0.0
H3247 H 0.10459 0.52907 0.43863 0.0
C3248 C 0.1327 0.41847 0.40869 0.0
C3249 C 0.14155 0.41364 0.43005 0.0
C3250 C 0.12559 0.43997 0.40925 0.0
C3251 C 0.12803 0.45699 0.43096 0.0
C3252 C 0.14079 0.45433 0.45107 0.0
C3253 C 0.1475 0.43269 0.45064 0.0
C3254 C 0.07862 0.47554 0.4546 0.0
C3255 C 0.08321 0.50031 0.4528 0.0
C3256 C 0.09256 0.46114 0.44578 0.0
C3257 C 0.1114 0.47132 0.43515 0.0
C3258 C 0.115 0.49545 0.43141 0.0
C3259 C 0.10069 0.50986 0.43998 0.0
H3260 H 0.44961 0.21871 0.23369 0.0
H3261 H 0.44344 0.27259 0.19159 0.0
H3262 H 0.41334 0.21897 0.24704 0.0
H3263 H 0.40687 0.27271 0.20496 0.0
H3264 H 0.36572 0.25419 0.29171 0.0
H3265 H 0.39899 0.24698 0.27396 0.0
H3266 H 0.36858 0.25032 0.20471 0.0
H3267 H 0.336 0.2587 0.22293 0.0
C3268 C 0.44051 0.23065 0.22724 0.0
C3269 C 0.44962 0.24601 0.21187 0.0
C3270 C 0.41972 0.23083 0.23502 0.0
C3271 C 0.40748 0.24633 0.22761 0.0
C3272 C 0.41603 0.2608 0.2113 0.0
C3273 C 0.43701 0.2608 0.20365 0.0
C3274 C 0.36633 0.25334 0.27274 0.0
C3275 C 0.34899 0.25787 0.25874 0.0
C3276 C 0.38517 0.24896 0.26247 0.0
C3277 C 0.38656 0.24843 0.23793 0.0
C3278 C 0.36832 0.25129 0.22374 0.0
C3279 C 0.34971 0.25605 0.2341 0.0
H3280 H 0.64518 0.48189 0.34744 0.0
H3281 H 0.64276 0.55658 0.34797 0.0
H3282 H 0.63017 0.48476 0.38653 0.0
H3283 H 0.62801 0.55944 0.38609 0.0
H3284 H 0.61654 0.5691 0.46465 0.0
H3285 H 0.63347 0.56417 0.42746 0.0
H3286 H 0.59853 0.48677 0.40997 0.0
H3287 H 0.58183 0.49175 0.44764 0.0
C3288 C 0.64189 0.49907 0.35584 0.0
C3289 C 0.64565 0.51903 0.34391 0.0
C3290 C 0.63291 0.50071 0.37842 0.0
C3291 C 0.62761 0.5225 0.39039 0.0
C3292 C 0.63189 0.54236 0.37846 0.0
C3293 C 0.64044 0.54062 0.35606 0.0
C3294 C 0.61232 0.55092 0.45303 0.0
C3295 C 0.59728 0.53101 0.45977 0.0
C3296 C 0.62208 0.54803 0.43121 0.0
C3297 C 0.61759 0.52498 0.4147 0.0
C3298 C 0.60286 0.5049 0.42167 0.0
C3299 C 0.59293 0.50786 0.4435 0.0
H3300 H 0.40063 0.93976 0.08714 0.0
H3301 H 0.32807 0.91347 0.07871 0.0
H3302 H 0.40324 0.91184 0.11407 0.0
H3303 H 0.33084 0.88549 0.10536 0.0
H3304 H 0.34902 0.81366 0.11447 0.0
H3305 H 0.34861 0.84742 0.09396 0.0
H3306 H 0.38986 0.89973 0.15478 0.0
H3307 H 0.39008 0.86588 0.17545 0.0
C3308 C 0.38526 0.92855 0.09157 0.0
C3309 C 0.36416 0.92844 0.08054 0.0
C3310 C 0.38679 0.91261 0.10691 0.0
C3311 C 0.36725 0.89625 0.11115 0.0
C3312 C 0.34611 0.89773 0.1019 0.0
C3313 C 0.34456 0.91389 0.08686 0.0
C3314 C 0.35841 0.83229 0.12317 0.0
C3315 C 0.36966 0.83731 0.14637 0.0
C3316 C 0.3579 0.85157 0.11167 0.0
C3317 C 0.36887 0.87605 0.12311 0.0
C3318 C 0.38118 0.88096 0.14578 0.0
C3319 C 0.38141 0.86169 0.15745 0.0
H3320 H 0.96293 0.58233 0.86849 0.0
H3321 H 0.02273 0.56964 0.83977 0.0
H3322 H 0.98082 0.58578 0.90904 0.0
H3323 H 0.04058 0.57322 0.87999 0.0
H3324 H 0.06969 0.58746 0.95721 0.0
H3325 H 0.05429 0.59884 0.92189 0.0
H3326 H 0.98953 0.54975 0.92458 0.0
H3327 H 1.00484 0.53799 0.95947 0.0
C3328 C 0.98019 0.5813 0.87097 0.0
C3329 C 0.99146 0.57555 0.85116 0.0
C3330 C 0.99033 0.58305 0.89406 0.0
C3331 C 0.01195 0.57947 0.89755 0.0
C3332 C 0.02397 0.57619 0.87786 0.0
C3333 C 0.01374 0.57407 0.85484 0.0
C3334 C 0.0522 0.57902 0.95025 0.0
C3335 C 0.03863 0.56142 0.96089 0.0
C3336 C 0.04335 0.58575 0.93018 0.0
C3337 C 0.0207 0.57532 0.92066 0.0
C3338 C 0.00695 0.55842 0.93181 0.0
C3339 C 0.01583 0.55147 0.95165 0.0
H3340 H 0.32771 0.21703 0.59099 0.0
H3341 H 0.28742 0.26877 0.58876 0.0
H3342 H 0.33216 0.22772 0.63463 0.0
H3343 H 0.29118 0.27873 0.63222 0.0
H3344 H 0.31704 0.30371 0.71292 0.0
H3345 H 0.31559 0.29743 0.66926 0.0
H3346 H 0.30788 0.21936 0.66456 0.0
H3347 H 0.30982 0.22587 0.70794 0.0
C3348 C 0.32003 0.23087 0.59976 0.0
C3349 C 0.30707 0.24185 0.58633 0.0
C3350 C 0.32236 0.23682 0.62479 0.0
C3351 C 0.31167 0.25378 0.63695 0.0
C3352 C 0.29972 0.26571 0.6235 0.0
C3353 C 0.29751 0.25988 0.59851 0.0
C3354 C 0.31471 0.28522 0.7024 0.0
C3355 C 0.31326 0.26519 0.71362 0.0
C3356 C 0.31397 0.2816 0.67745 0.0
C3357 C 0.31198 0.25792 0.6634 0.0
C3358 C 0.31003 0.23792 0.6748 0.0
C3359 C 0.31086 0.24156 0.69961 0.0
H3360 H 0.66378 0.49749 0.18386 0.0
H3361 H 0.60913 0.52265 0.21293 0.0
H3362 H 0.64876 0.50007 0.14378 0.0
H3363 H 0.5949 0.52633 0.17396 0.0
H3364 H 0.56275 0.52176 0.09761 0.0
H3365 H 0.57676 0.51672 0.13694 0.0
H3366 H 0.64179 0.51832 0.11326 0.0
H3367 H 0.62735 0.52248 0.07408 0.0
C3368 C 0.64847 0.50332 0.18192 0.0
C3369 C 0.63793 0.50958 0.20247 0.0
C3370 C 0.6398 0.50524 0.1586 0.0
C3371 C 0.62018 0.51367 0.15449 0.0
C3372 C 0.60964 0.51943 0.17514 0.0
C3373 C 0.61814 0.51737 0.19813 0.0
C3374 C 0.5801 0.52128 0.10083 0.0
C3375 C 0.59376 0.52288 0.08213 0.0
C3376 C 0.58842 0.51835 0.1238 0.0
C3377 C 0.6109 0.51686 0.12943 0.0
C3378 C 0.62442 0.51878 0.11056 0.0
C3379 C 0.61607 0.5215 0.0877 0.0
H3380 H 0.30594 0.91225 0.94551 0.0
H3381 H 0.3349 0.86054 0.9742 0.0
H3382 H 0.29899 0.88497 0.90587 0.0
H3383 H 0.32833 0.8336 0.93472 0.0
H3384 H 0.30849 0.78674 0.85934 0.0
H3385 H 0.30314 0.80755 0.899 0.0
H3386 H 0.32887 0.8783 0.88068 0.0
H3387 H 0.33368 0.85773 0.84116 0.0
C3388 C 0.31009 0.8947 0.94352 0.0
C3389 C 0.32136 0.88869 0.96273 0.0
C3390 C 0.30632 0.87921 0.92083 0.0
C3391 C 0.31364 0.8575 0.91717 0.0
C3392 C 0.32256 0.85023 0.93697 0.0
C3393 C 0.32641 0.86572 0.95957 0.0
C3394 C 0.31288 0.80673 0.86377 0.0
C3395 C 0.32131 0.82057 0.84701 0.0
C3396 C 0.30978 0.81861 0.88644 0.0
C3397 C 0.31513 0.84451 0.89271 0.0
C3398 C 0.32395 0.85829 0.8761 0.0
C3399 C 0.32707 0.84646 0.85354 0.0
H3400 H 0.9445 0.56567 0.70876 0.0
H3401 H 0.01046 0.55961 0.73202 0.0
H3402 H 0.95411 0.56333 0.6677 0.0
H3403 H 0.01998 0.5569 0.69168 0.0
H3404 H 0.03688 0.54641 0.62215 0.0
H3405 H 0.02694 0.57139 0.65642 0.0
H3406 H 0.9578 0.52787 0.63942 0.0
H3407 H 0.9672 0.5044 0.60348 0.0
C3408 C 0.96128 0.56473 0.70522 0.0
C3409 C 0.97667 0.56243 0.72331 0.0
C3410 C 0.96674 0.56319 0.68175 0.0
C3411 C 0.98771 0.5596 0.67626 0.0
C3412 C 1.00376 0.55991 0.69507 0.0
C3413 C 0.99827 0.56123 0.71827 0.0
C3414 C 0.01932 0.54269 0.62489 0.0
C3415 C 1.003 0.52259 0.61031 0.0
C3416 C 0.01368 0.55699 0.64485 0.0
C3417 C 0.99177 0.55105 0.65122 0.0
C3418 C 0.97492 0.53286 0.63524 0.0
C3419 C 0.98045 0.51895 0.61486 0.0
H3420 H 0.29568 0.26661 0.46339 0.0
H3421 H 0.31892 0.20159 0.4403 0.0
H3422 H 0.30101 0.27785 0.42522 0.0
H3423 H 0.32482 0.21331 0.40165 0.0
H3424 H 0.3007 0.22749 0.32693 0.0
H3425 H 0.3013 0.2157 0.36578 0.0
H3426 H 0.32879 0.2924 0.40079 0.0
H3427 H 0.32663 0.30409 0.3623 0.0
C3428 C 0.30229 0.25485 0.45024 0.0
C3429 C 0.30677 0.23311 0.45488 0.0
C3430 C 0.30551 0.26144 0.42832 0.0
C3431 C 0.31337 0.24652 0.41031 0.0
C3432 C 0.31855 0.22509 0.4151 0.0
C3433 C 0.31539 0.2185 0.43728 0.0
C3434 C 0.30665 0.24179 0.34295 0.0
C3435 C 0.31351 0.26675 0.34153 0.0
C3436 C 0.30739 0.23501 0.3652 0.0
C3437 C 0.31504 0.2531 0.38645 0.0
C3438 C 0.32258 0.27798 0.38484 0.0
C3439 C 0.32168 0.2847 0.36269 0.0
H3440 H 0.37298 0.63054 0.55162 0.0
H3441 H 0.33887 0.55662 0.51263 0.0
H3442 H 0.40917 0.62089 0.5483 0.0
H3443 H 0.37473 0.54728 0.50869 0.0
H3444 H 0.43945 0.53056 0.50625 0.0
H3445 H 0.40839 0.54086 0.52591 0.0
H3446 H 0.43037 0.61547 0.51511 0.0
H3447 H 0.46222 0.60557 0.49682 0.0
C3448 C 0.37318 0.61214 0.54269 0.0
C3449 C 0.3531 0.59446 0.53205 0.0
C3450 C 0.3939 0.60665 0.54069 0.0
C3451 C 0.39489 0.58341 0.52801 0.0
C3452 C 0.37467 0.56528 0.51882 0.0
C3453 C 0.35403 0.57073 0.52088 0.0
C3454 C 0.43811 0.54938 0.50878 0.0
C3455 C 0.45303 0.56712 0.4995 0.0
C3456 C 0.42014 0.55522 0.51983 0.0
C3457 C 0.41659 0.57883 0.52163 0.0
C3458 C 0.43257 0.5971 0.51409 0.0
C3459 C 0.45065 0.59133 0.50324 0.0
H3460 H 0.90976 0.90377 0.56102 0.0
H3461 H 0.87438 0.95556 0.54254 0.0
H3462 H 0.94552 0.93331 0.56081 0.0
H3463 H 0.91072 0.98539 0.54268 0.0
H3464 H 0.99529 0.02698 0.57325 0.0
H3465 H 0.95743 1.00485 0.57964 0.0
H3466 H 0.95277 0.95165 0.51403 0.0
H3467 H 0.98989 0.97365 0.50714 0.0
C3468 C 0.90956 0.92165 0.55741 0.0
C3469 C 0.88914 0.92715 0.55148 0.0
C3470 C 0.93008 0.93856 0.55741 0.0
C3471 C 0.93073 0.96148 0.55176 0.0
C3472 C 0.9105 0.96782 0.5473 0.0
C3473 C 0.88979 0.95075 0.54718 0.0
C3474 C 0.98603 0.01084 0.55998 0.0
C3475 C 0.99568 1.0022 0.53964 0.0
C3476 C 0.96442 0.99825 0.56367 0.0
C3477 C 0.95234 0.97674 0.54722 0.0
C3478 C 0.96181 0.96832 0.52685 0.0
C3479 C 0.98314 0.98093 0.52302 0.0
H3480 H 0.92309 0.14885 0.25791 0.0
H3481 H 0.87708 0.12903 0.30822 0.0
H3482 H 0.90694 0.18345 0.25399 0.0
H3483 H 0.86087 0.16287 0.30416 0.0
H3484 H 0.84065 0.23687 0.30533 0.0
H3485 H 0.85731 0.20279 0.31004 0.0
H3486 H 0.88074 0.2023 0.24095 0.0
H3487 H 0.86434 0.23608 0.23659 0.0
C3488 C 0.9096 0.15163 0.26825 0.0
C3489 C 0.90187 0.13525 0.28349 0.0
C3490 C 0.89996 0.17178 0.26589 0.0
C3491 C 0.88201 0.17702 0.27867 0.0
C3492 C 0.87457 0.16065 0.29397 0.0
C3493 C 0.88407 0.14061 0.29622 0.0
C3494 C 0.84913 0.22941 0.29098 0.0
C3495 C 0.85051 0.23976 0.27032 0.0
C3496 C 0.85894 0.20947 0.29364 0.0
C3497 C 0.87103 0.19878 0.27599 0.0
C3498 C 0.87225 0.20935 0.25546 0.0
C3499 C 0.86244 0.22905 0.25281 0.0
H3500 H 0.73734 0.09537 1.00291 0.0
H3501 H 0.73628 0.13946 0.0725 0.0
H3502 H 0.6974 0.07611 1.00062 0.0
H3503 H 0.69654 0.11882 0.07134 0.0
H3504 H 0.62428 0.11432 0.04135 0.0
H3505 H 0.66503 0.12453 0.05109 0.0
H3506 H 0.66514 0.05246 0.01058 0.0
H3507 H 0.6247 0.04326 0.99985 0.0
C3508 C 0.72871 0.09996 0.01825 0.0
C3509 C 0.73961 0.119 0.03773 0.0
C3510 C 0.70575 0.08894 0.01701 0.0
C3511 C 0.6935 0.09643 0.03555 0.0
C3512 C 0.70523 0.11332 0.05635 0.0
C3513 C 0.72803 0.12486 0.05723 0.0
C3514 C 0.63318 0.10072 0.03486 0.0
C3515 C 0.6216 0.07791 0.0204 0.0
C3516 C 0.65646 0.10634 0.0406 0.0
C3517 C 0.66851 0.08922 0.03181 0.0
C3518 C 0.65659 0.06623 0.01747 0.0
C3519 C 0.63338 0.06077 0.0116 0.0
H3520 H 0.26854 0.50486 0.21175 0.0
H3521 H 0.23235 0.48853 0.27113 0.0
H3522 H 0.29723 0.48585 0.22538 0.0
H3523 H 0.26086 0.46976 0.28453 0.0
H3524 H 0.3288 0.46928 0.31889 0.0
H3525 H 0.30181 0.48812 0.30189 0.0
H3526 H 0.3013 0.44344 0.23201 0.0
H3527 H 0.32869 0.42473 0.24899 0.0
C3528 C 0.26657 0.49702 0.2275 0.0
C3529 C 0.24831 0.49843 0.2405 0.0
C3530 C 0.28296 0.48615 0.23526 0.0
C3531 C 0.28138 0.47677 0.2562 0.0
C3532 C 0.26268 0.47733 0.2686 0.0
C3533 C 0.2463 0.48796 0.2608 0.0
C3534 C 0.32331 0.46386 0.29982 0.0
C3535 C 0.3308 0.44555 0.28525 0.0
C3536 C 0.30769 0.47442 0.29016 0.0
C3537 C 0.29934 0.46698 0.26573 0.0
C3538 C 0.30753 0.44947 0.2509 0.0
C3539 C 0.32306 0.43873 0.26062 0.0
H3540 H 0.30006 0.46669 0.01017 0.0
H3541 H 0.25456 0.41451 0.04154 0.0
H3542 H 0.27259 0.49064 0.0091 0.0
H3543 H 0.22691 0.4387 0.04047 0.0
H3544 H 0.17597 0.47631 0.00579 0.0
H3545 H 0.20198 0.45084 0.01034 0.0
H3546 H 0.25584 0.51677 0.03809 0.0
H3547 H 0.22999 0.54208 0.03394 0.0
C3548 C 0.28421 0.46032 0.01689 0.0
C3549 C 0.27959 0.43868 0.02601 0.0
C3550 C 0.26848 0.47416 0.0164 0.0
C3551 C 0.24759 0.46669 0.02484 0.0
C3552 C 0.2428 0.4449 0.03374 0.0
C3553 C 0.2587 0.43113 0.03446 0.0
C3554 C 0.19327 0.48534 0.01325 0.0
C3555 C 0.20093 0.5113 0.01912 0.0
C3556 C 0.20819 0.47074 0.01582 0.0
C3557 C 0.23108 0.48179 0.02422 0.0
C3558 C 0.23845 0.50767 0.03104 0.0
C3559 C 0.22359 0.5222 0.02862 0.0
H3560 H 0.93041 0.97095 0.2517 0.0
H3561 H 0.8789 1.00459 0.27752 0.0
H3562 H 0.90679 0.93055 0.25186 0.0
H3563 H 0.8546 0.96299 0.27732 0.0
H3564 H 0.81306 0.87629 0.25093 0.0
H3565 H 0.83309 0.91912 0.25066 0.0
H3566 H 0.89383 0.90769 0.28268 0.0
H3567 H 0.874 0.86557 0.28338 0.0
C3568 C 0.9139 0.96992 0.25735 0.0
C3569 C 0.90697 0.99169 0.26482 0.0
C3570 C 0.90026 0.94636 0.25753 0.0
C3571 C 0.87873 0.94306 0.26499 0.0
C3572 C 0.87107 0.96458 0.27147 0.0
C3573 C 0.88503 0.98856 0.27154 0.0
C3574 C 0.8306 0.88291 0.25817 0.0
C3575 C 0.84161 0.86692 0.26722 0.0
C3576 C 0.84216 0.90768 0.25805 0.0
C3577 C 0.8653 0.91725 0.26655 0.0
C3578 C 0.87616 0.90125 0.27569 0.0
C3579 C 0.86462 0.8768 0.27612 0.0
H3580 H 0.77261 0.11074 0.75361 0.0
H3581 H 0.75199 0.12641 0.68593 0.0
H3582 H 0.7953 0.15301 0.76687 0.0
H3583 H 0.77552 0.16851 0.69876 0.0
H3584 H 0.77078 0.24066 0.74679 0.0
H3585 H 0.76322 0.19754 0.7267 0.0
H3586 H 0.82232 0.19143 0.76786 0.0
H3587 H 0.82886 0.23457 0.78908 0.0
C3588 C 0.77397 0.12281 0.741 0.0
C3589 C 0.75992 0.11567 0.71909 0.0
C3590 C 0.787 0.14717 0.74866 0.0
C3591 C 0.78639 0.16439 0.73425 0.0
C3592 C 0.77564 0.15587 0.71061 0.0
C3593 C 0.76233 0.13167 0.70313 0.0
C3594 C 0.78224 0.23007 0.75123 0.0
C3595 C 0.80059 0.2407 0.76891 0.0
C3596 C 0.7781 0.20546 0.73965 0.0
C3597 C 0.79251 0.19113 0.74524 0.0
C3598 C 0.81101 0.20199 0.76305 0.0
C3599 C 0.81482 0.22658 0.77508 0.0
loop_
_geom_bond_atom_site_label_1
_geom_bond_atom_site_label_2
_geom_bond_distance
_geom_bond_site_symmetry_2
_ccdc_geom_bond_type
Zn0 O3 2.031 . S
Zn0 O5 2.049 . S
Zn0 O10 2.067 . S
Zn1 O2 1.962 . S
Zn1 O4 1.986 . S
Zn1 O6 1.996 . S
Zn1 O9 1.943 . S
O2 Zn1 1.962 . S
O2 C7 1.254 . S
O3 Zn0 2.031 . S
O3 C7 1.269 . S
O4 Zn1 1.986 . S
O4 C11 1.262 . S
O5 Zn0 2.049 . S
O5 C13 1.260 . S
O6 Zn1 1.996 . S
O6 C13 1.257 . S
C7 O2 1.254 . S
C7 O3 1.269 . S
C8 O9 1.249 . S
C8 O10 1.270 . S
O9 Zn1 1.943 . S
O9 C8 1.249 . S
O10 Zn0 2.067 . S
O10 C8 1.270 . S
C11 O4 1.262 . S
C11 O12 1.232 . S
O12 C11 1.232 . S
C13 O5 1.260 . S
C13 O6 1.257 . S
Zn14 O17 2.031 1_455 S
Zn14 O19 2.049 . S
Zn14 O24 2.067 . S
Zn15 O16 1.935 1_455 S
Zn15 O18 1.997 . S
Zn15 O20 2.018 . S
Zn15 O23 1.949 1_455 S
O16 Zn15 1.935 1_655 S
O16 C21 1.254 . S
O17 Zn14 2.031 1_655 S
O17 C21 1.269 . S
O18 Zn15 1.997 . S
O18 C25 1.262 . S
O19 Zn14 2.049 . S
O19 C27 1.260 . S
O20 Zn15 2.018 . S
O20 C27 1.257 . S
C21 O16 1.254 . S
C21 O17 1.269 . S
C22 O23 1.249 . S
C22 O24 1.270 1_655 S
O23 Zn15 1.949 1_655 S
O23 C22 1.249 . S
O24 Zn14 2.067 . S
O24 C22 1.270 1_455 S
C25 O18 1.262 . S
C25 O26 1.232 1_455 S
O26 C25 1.232 1_655 S
C27 O19 1.260 . S
C27 O20 1.257 . S
Zn28 O31 2.031 . S
Zn28 O33 2.049 . S
Zn28 O38 2.067 . S
Zn29 O30 1.962 . S
Zn29 O32 1.986 . S
Zn29 O34 1.996 . S
Zn29 O37 1.943 . S
O30 Zn29 1.962 . S
O30 C35 1.254 . S
O31 Zn28 2.031 . S
O31 C35 1.269 . S
O32 Zn29 1.986 . S
O32 C39 1.262 . S
O33 Zn28 2.049 . S
O33 C41 1.260 . S
O34 Zn29 1.996 . S
O34 C41 1.257 . S
C35 O30 1.254 . S
C35 O31 1.269 . S
C36 O37 1.249 . S
C36 O38 1.270 . S
O37 Zn29 1.943 . S
O37 C36 1.249 . S
O38 Zn28 2.067 . S
O38 C36 1.270 . S
C39 O32 1.262 . S
C39 O40 1.232 . S
O40 C39 1.232 . S
C41 O33 1.260 . S
C41 O34 1.257 . S
Zn42 O45 2.031 . S
Zn42 O47 2.049 . S
Zn42 O52 2.067 . S
Zn43 O44 1.962 . S
Zn43 O46 1.986 . S
Zn43 O48 1.996 . S
Zn43 O51 1.943 . S
O44 Zn43 1.962 . S
O44 C49 1.254 . S
O45 Zn42 2.031 . S
O45 C49 1.269 . S
O46 Zn43 1.986 . S
O46 C53 1.262 . S
O47 Zn42 2.049 . S
O47 C55 1.260 . S
O48 Zn43 1.996 . S
O48 C55 1.257 . S
C49 O44 1.254 . S
C49 O45 1.269 . S
C50 O51 1.249 . S
C50 O52 1.270 . S
O51 Zn43 1.943 . S
O51 C50 1.249 . S
O52 Zn42 2.067 . S
O52 C50 1.270 . S
C53 O46 1.262 . S
C53 O54 1.232 . S
O54 C53 1.232 . S
C55 O47 1.260 . S
C55 O48 1.257 . S
Zn56 O59 2.031 . S
Zn56 O61 2.049 . S
Zn56 O66 2.067 . S
Zn57 O58 1.962 . S
Zn57 O60 1.986 . S
Zn57 O62 1.996 . S
Zn57 O65 1.943 . S
O58 Zn57 1.962 . S
O58 C63 1.254 . S
O59 Zn56 2.031 . S
O59 C63 1.269 . S
O60 Zn57 1.986 . S
O60 C67 1.262 . S
O61 Zn56 2.049 . S
O61 C69 1.260 . S
O62 Zn57 1.996 . S
O62 C69 1.257 . S
C63 O58 1.254 . S
C63 O59 1.269 . S
C64 O65 1.249 . S
C64 O66 1.270 . S
O65 Zn57 1.943 . S
O65 C64 1.249 . S
O66 Zn56 2.067 . S
O66 C64 1.270 . S
C67 O60 1.262 . S
C67 O68 1.232 . S
O68 C67 1.232 . S
C69 O61 1.260 . S
C69 O62 1.257 . S
Zn70 O73 2.031 . S
Zn70 O75 2.049 . S
Zn70 O80 2.067 . S
Zn71 O72 1.962 . S
Zn71 O74 1.986 . S
Zn71 O76 1.996 . S
Zn71 O79 1.943 . S
O72 Zn71 1.962 . S
O72 C77 1.254 . S
O73 Zn70 2.031 . S
O73 C77 1.269 . S
O74 Zn71 1.986 . S
O74 C81 1.262 . S
O75 Zn70 2.049 . S
O75 C83 1.260 . S
O76 Zn71 1.996 . S
O76 C83 1.257 . S
C77 O72 1.254 . S
C77 O73 1.269 . S
C78 O79 1.249 . S
C78 O80 1.270 . S
O79 Zn71 1.943 . S
O79 C78 1.249 . S
O80 Zn70 2.067 . S
O80 C78 1.270 . S
C81 O74 1.262 . S
C81 O82 1.232 . S
O82 C81 1.232 . S
C83 O75 1.260 . S
C83 O76 1.257 . S
Zn84 O87 2.031 . S
Zn84 O89 2.049 . S
Zn84 O94 2.067 . S
Zn85 O86 1.962 . S
Zn85 O88 1.986 . S
Zn85 O90 1.996 . S
Zn85 O93 1.943 . S
O86 Zn85 1.962 . S
O86 C91 1.254 . S
O87 Zn84 2.031 . S
O87 C91 1.269 . S
O88 Zn85 1.986 . S
O88 C95 1.262 . S
O89 Zn84 2.049 . S
O89 C97 1.260 . S
O90 Zn85 1.996 . S
O90 C97 1.257 . S
C91 O86 1.254 . S
C91 O87 1.269 . S
C92 O93 1.249 . S
C92 O94 1.270 . S
O93 Zn85 1.943 . S
O93 C92 1.249 . S
O94 Zn84 2.067 . S
O94 C92 1.270 . S
C95 O88 1.262 . S
C95 O96 1.232 . S
O96 C95 1.232 . S
C97 O89 1.260 . S
C97 O90 1.257 . S
Zn98 O101 2.031 1_655 S
Zn98 O103 2.049 . S
Zn98 O108 2.067 . S
Zn99 O100 1.962 . S
Zn99 O102 1.986 . S
Zn99 O104 1.996 . S
Zn99 O107 1.943 . S
O100 Zn99 1.962 . S
O100 C105 1.254 . S
O101 Zn98 2.031 1_455 S
O101 C105 1.269 . S
O102 Zn99 1.986 . S
O102 C109 1.262 . S
O103 Zn98 2.049 . S
O103 C111 1.260 1_655 S
O104 Zn99 1.996 . S
O104 C111 1.257 . S
C105 O100 1.254 . S
C105 O101 1.269 . S
C106 O107 1.249 1_655 S
C106 O108 1.270 . S
O107 Zn99 1.943 . S
O107 C106 1.249 1_455 S
O108 Zn98 2.067 . S
O108 C106 1.270 . S
C109 O102 1.262 . S
C109 O110 1.232 . S
O110 C109 1.232 . S
C111 O103 1.260 1_455 S
C111 O104 1.257 . S
Zn112 O115 2.031 1_565 S
Zn112 O117 2.049 . S
Zn112 O122 2.067 . S
Zn113 O114 1.962 . S
Zn113 O116 1.986 . S
Zn113 O118 1.996 . S
Zn113 O121 1.952 . S
O114 Zn113 1.962 . S
O114 C119 1.254 . S
O115 Zn112 2.031 1_545 S
O115 C119 1.269 . S
O116 Zn113 1.986 . S
O116 C123 1.262 . S
O117 Zn112 2.049 . S
O117 C125 1.260 1_565 S
O118 Zn113 1.996 . S
O118 C125 1.257 . S
C119 O114 1.254 . S
C119 O115 1.269 . S
C120 O121 1.237 1_565 S
C120 O122 1.270 . S
O121 Zn113 1.952 . S
O121 C120 1.237 1_545 S
O122 Zn112 2.067 . S
O122 C120 1.270 . S
C123 O116 1.262 . S
C123 O124 1.232 . S
O124 C123 1.232 . S
C125 O117 1.260 1_545 S
C125 O118 1.257 . S
Zn126 O129 2.031 . S
Zn126 O131 2.049 . S
Zn126 O136 2.067 . S
Zn127 O128 1.962 . S
Zn127 O130 1.986 . S
Zn127 O132 1.996 . S
Zn127 O135 1.943 . S
O128 Zn127 1.962 . S
O128 C133 1.254 . S
O129 Zn126 2.031 . S
O129 C133 1.269 . S
O130 Zn127 1.986 . S
O130 C137 1.262 . S
O131 Zn126 2.049 . S
O131 C139 1.260 . S
O132 Zn127 1.996 . S
O132 C139 1.257 . S
C133 O128 1.254 . S
C133 O129 1.269 . S
C134 O135 1.249 . S
C134 O136 1.270 . S
O135 Zn127 1.943 . S
O135 C134 1.249 . S
O136 Zn126 2.067 . S
O136 C134 1.270 . S
C137 O130 1.262 . S
C137 O138 1.232 . S
O138 C137 1.232 . S
C139 O131 1.260 . S
C139 O132 1.257 . S
Zn140 O143 2.031 . S
Zn140 O145 2.049 . S
Zn140 O150 2.067 . S
Zn141 O142 1.962 . S
Zn141 O144 1.986 . S
Zn141 O146 1.996 . S
Zn141 O149 1.943 1_565 S
O142 Zn141 1.962 . S
O142 C147 1.254 1_565 S
O143 Zn140 2.031 . S
O143 C147 1.269 . S
O144 Zn141 1.986 . S
O144 C151 1.262 . S
O145 Zn140 2.049 . S
O145 C153 1.260 1_545 S
O146 Zn141 1.996 . S
O146 C153 1.257 . S
C147 O142 1.254 1_545 S
C147 O143 1.269 . S
C148 O149 1.249 . S
C148 O150 1.270 . S
O149 Zn141 1.943 1_545 S
O149 C148 1.249 . S
O150 Zn140 2.067 . S
O150 C148 1.270 . S
C151 O144 1.262 . S
C151 O152 1.232 . S
O152 C151 1.232 . S
C153 O145 1.260 1_565 S
C153 O146 1.257 . S
Zn154 O157 2.031 1_554 S
Zn154 O159 2.049 . S
Zn154 O164 2.067 . S
Zn155 O156 1.962 1_554 S
Zn155 O158 1.986 . S
Zn155 O160 1.996 . S
Zn155 O163 1.943 . S
O156 Zn155 1.962 1_556 S
O156 C161 1.254 . S
O157 Zn154 2.031 1_556 S
O157 C161 1.269 . S
O158 Zn155 1.986 . S
O158 C165 1.262 . S
O159 Zn154 2.049 . S
O159 C167 1.260 . S
O160 Zn155 1.996 . S
O160 C167 1.257 . S
C161 O156 1.254 . S
C161 O157 1.269 . S
C162 O163 1.249 . S
C162 O164 1.270 . S
O163 Zn155 1.943 . S
O163 C162 1.249 . S
O164 Zn154 2.067 . S
O164 C162 1.270 . S
C165 O158 1.262 . S
C165 O166 1.232 1_554 S
O166 C165 1.232 1_556 S
C167 O159 1.260 . S
C167 O160 1.257 . S
Zn168 O171 2.031 . S
Zn168 O173 2.049 . S
Zn168 O178 2.067 . S
Zn169 O170 1.962 . S
Zn169 O172 1.986 . S
Zn169 O174 1.996 . S
Zn169 O177 1.943 . S
O170 Zn169 1.962 . S
O170 C175 1.254 1_554 S
O171 Zn168 2.031 . S
O171 C175 1.269 1_554 S
O172 Zn169 1.986 . S
O172 C179 1.262 . S
O173 Zn168 2.049 . S
O173 C181 1.260 . S
O174 Zn169 1.996 . S
O174 C181 1.257 . S
C175 O170 1.254 1_556 S
C175 O171 1.269 1_556 S
C176 O177 1.249 . S
C176 O178 1.270 . S
O177 Zn169 1.943 . S
O177 C176 1.249 . S
O178 Zn168 2.067 . S
O178 C176 1.270 . S
C179 O172 1.262 . S
C179 O180 1.232 . S
O180 C179 1.232 . S
C181 O173 1.260 . S
C181 O174 1.257 . S
Zn182 O185 2.031 . S
Zn182 O187 2.049 . S
Zn182 O192 2.067 . S
Zn183 O184 1.962 . S
Zn183 O186 1.986 . S
Zn183 O188 1.996 . S
Zn183 O191 1.943 . S
O184 Zn183 1.962 . S
O184 C189 1.254 1_554 S
O185 Zn182 2.031 . S
O185 C189 1.269 1_554 S
O186 Zn183 1.986 . S
O186 C193 1.262 . S
O187 Zn182 2.049 . S
O187 C195 1.260 . S
O188 Zn183 1.996 . S
O188 C195 1.257 . S
C189 O184 1.254 1_556 S
C189 O185 1.269 1_556 S
C190 O191 1.249 . S
C190 O192 1.270 . S
O191 Zn183 1.943 . S
O191 C190 1.249 . S
O192 Zn182 2.067 . S
O192 C190 1.270 . S
C193 O186 1.262 . S
C193 O194 1.232 . S
O194 C193 1.232 . S
C195 O187 1.260 . S
C195 O188 1.257 . S
Zn196 O199 2.031 . S
Zn196 O201 2.049 . S
Zn196 O206 2.067 . S
Zn197 O198 1.962 . S
Zn197 O200 1.986 . S
Zn197 O202 1.996 . S
Zn197 O205 1.943 . S
O198 Zn197 1.962 . S
O198 C203 1.254 . S
O199 Zn196 2.031 . S
O199 C203 1.269 . S
O200 Zn197 1.986 . S
O200 C207 1.262 . S
O201 Zn196 2.049 . S
O201 C209 1.260 . S
O202 Zn197 1.996 . S
O202 C209 1.257 . S
C203 O198 1.254 . S
C203 O199 1.269 . S
C204 O205 1.249 . S
C204 O206 1.270 . S
O205 Zn197 1.943 . S
O205 C204 1.249 . S
O206 Zn196 2.067 . S
O206 C204 1.270 . S
C207 O200 1.262 . S
C207 O208 1.232 . S
O208 C207 1.232 . S
C209 O201 1.260 . S
C209 O202 1.257 . S
Zn210 O213 2.031 . S
Zn210 O215 2.049 . S
Zn210 O220 2.067 . S
Zn211 O212 1.962 . S
Zn211 O214 1.986 . S
Zn211 O216 1.996 . S
Zn211 O219 1.943 . S
O212 Zn211 1.962 . S
O212 C217 1.254 . S
O213 Zn210 2.031 . S
O213 C217 1.269 . S
O214 Zn211 1.986 . S
O214 C221 1.262 . S
O215 Zn210 2.049 . S
O215 C223 1.260 . S
O216 Zn211 1.996 . S
O216 C223 1.257 . S
C217 O212 1.254 . S
C217 O213 1.269 . S
C218 O219 1.249 . S
C218 O220 1.270 . S
O219 Zn211 1.943 . S
O219 C218 1.249 . S
O220 Zn210 2.067 . S
O220 C218 1.270 . S
C221 O214 1.262 . S
C221 O222 1.232 . S
O222 C221 1.232 . S
C223 O215 1.260 . S
C223 O216 1.257 . S
Zn224 O227 2.031 . S
Zn224 O229 2.049 . S
Zn224 O234 2.067 . S
Zn225 O226 1.962 . S
Zn225 O228 1.986 . S
Zn225 O230 1.996 . S
Zn225 O233 1.943 . S
O226 Zn225 1.962 . S
O226 C231 1.254 . S
O227 Zn224 2.031 . S
O227 C231 1.269 . S
O228 Zn225 1.986 . S
O228 C235 1.262 . S
O229 Zn224 2.049 . S
O229 C237 1.260 . S
O230 Zn225 1.996 . S
O230 C237 1.257 . S
C231 O226 1.254 . S
C231 O227 1.269 . S
C232 O233 1.249 . S
C232 O234 1.270 . S
O233 Zn225 1.943 . S
O233 C232 1.249 . S
O234 Zn224 2.067 . S
O234 C232 1.270 . S
C235 O228 1.262 . S
C235 O236 1.232 . S
O236 C235 1.232 . S
C237 O229 1.260 . S
C237 O230 1.257 . S
Zn238 O241 2.031 . S
Zn238 O243 2.049 . S
Zn238 O248 2.067 . S
Zn239 O240 1.962 . S
Zn239 O242 1.986 . S
Zn239 O244 1.996 . S
Zn239 O247 1.943 . S
O240 Zn239 1.962 . S
O240 C245 1.254 . S
O241 Zn238 2.031 . S
O241 C245 1.269 . S
O242 Zn239 1.986 . S
O242 C249 1.262 . S
O243 Zn238 2.049 . S
O243 C251 1.260 . S
O244 Zn239 1.996 . S
O244 C251 1.257 . S
C245 O240 1.254 . S
C245 O241 1.269 . S
C246 O247 1.249 . S
C246 O248 1.270 . S
O247 Zn239 1.943 . S
O247 C246 1.249 . S
O248 Zn238 2.067 . S
O248 C246 1.270 . S
C249 O242 1.262 . S
C249 O250 1.232 . S
O250 C249 1.232 . S
C251 O243 1.260 . S
C251 O244 1.257 . S
Zn252 O255 2.031 . S
Zn252 O257 2.049 . S
Zn252 O262 2.067 . S
Zn253 O254 1.962 . S
Zn253 O256 1.986 . S
Zn253 O258 1.996 . S
Zn253 O261 1.943 . S
O254 Zn253 1.962 . S
O254 C259 1.254 . S
O255 Zn252 2.031 . S
O255 C259 1.269 . S
O256 Zn253 1.986 . S
O256 C263 1.262 . S
O257 Zn252 2.049 . S
O257 C265 1.260 . S
O258 Zn253 1.996 . S
O258 C265 1.257 . S
C259 O254 1.254 . S
C259 O255 1.269 . S
C260 O261 1.249 . S
C260 O262 1.270 . S
O261 Zn253 1.943 . S
O261 C260 1.249 . S
O262 Zn252 2.067 . S
O262 C260 1.270 . S
C263 O256 1.262 . S
C263 O264 1.232 . S
O264 C263 1.232 . S
C265 O257 1.260 . S
C265 O258 1.257 . S
Zn266 O269 2.031 . S
Zn266 O271 2.049 . S
Zn266 O276 2.067 . S
Zn267 O268 1.962 . S
Zn267 O270 1.986 . S
Zn267 O272 1.996 . S
Zn267 O275 1.943 . S
O268 Zn267 1.962 . S
O268 C273 1.254 . S
O269 Zn266 2.031 . S
O269 C273 1.269 . S
O270 Zn267 1.986 . S
O270 C277 1.262 . S
O271 Zn266 2.049 . S
O271 C279 1.260 . S
O272 Zn267 1.996 . S
O272 C279 1.257 . S
C273 O268 1.254 . S
C273 O269 1.269 . S
C274 O275 1.249 . S
C274 O276 1.270 . S
O275 Zn267 1.943 . S
O275 C274 1.249 . S
O276 Zn266 2.067 . S
O276 C274 1.270 . S
C277 O270 1.262 . S
C277 O278 1.232 . S
O278 C277 1.232 . S
C279 O271 1.260 . S
C279 O272 1.257 . S
Zn280 O283 2.031 1_554 S
Zn280 O285 2.049 . S
Zn280 O290 2.067 . S
Zn281 O282 1.989 . S
Zn281 O284 1.972 1_556 S
Zn281 O286 1.976 1_556 S
Zn281 O289 1.940 . S
O282 Zn281 1.989 . S
O282 C287 1.254 . S
O283 Zn280 2.031 1_556 S
O283 C287 1.269 . S
O284 Zn281 1.972 1_554 S
O284 C291 1.262 1_554 S
O285 Zn280 2.049 . S
O285 C293 1.260 . S
O286 Zn281 1.976 1_554 S
O286 C293 1.257 . S
C287 O282 1.254 . S
C287 O283 1.269 . S
C288 O289 1.249 . S
C288 O290 1.270 1_556 S
O289 Zn281 1.940 . S
O289 C288 1.249 . S
O290 Zn280 2.067 . S
O290 C288 1.270 1_554 S
C291 O284 1.262 1_556 S
C291 O292 1.232 . S
O292 C291 1.232 . S
C293 O285 1.260 . S
C293 O286 1.257 . S
Zn294 O297 2.031 . S
Zn294 O299 2.049 . S
Zn294 O304 2.067 . S
Zn295 O296 1.962 . S
Zn295 O298 1.986 . S
Zn295 O300 1.996 . S
Zn295 O303 1.943 . S
O296 Zn295 1.962 . S
O296 C301 1.254 . S
O297 Zn294 2.031 . S
O297 C301 1.269 . S
O298 Zn295 1.986 . S
O298 C305 1.262 . S
O299 Zn294 2.049 . S
O299 C307 1.260 . S
O300 Zn295 1.996 . S
O300 C307 1.257 . S
C301 O296 1.254 . S
C301 O297 1.269 . S
C302 O303 1.249 . S
C302 O304 1.270 . S
O303 Zn295 1.943 . S
O303 C302 1.249 . S
O304 Zn294 2.067 . S
O304 C302 1.270 . S
C305 O298 1.262 . S
C305 O306 1.232 . S
O306 C305 1.232 . S
C307 O299 1.260 . S
C307 O300 1.257 . S
Zn308 O311 2.031 . S
Zn308 O313 2.049 . S
Zn308 O318 2.067 . S
Zn309 O310 1.962 . S
Zn309 O312 1.986 . S
Zn309 O314 1.996 . S
Zn309 O317 1.943 . S
O310 Zn309 1.962 . S
O310 C315 1.254 . S
O311 Zn308 2.031 . S
O311 C315 1.269 . S
O312 Zn309 1.986 . S
O312 C319 1.262 . S
O313 Zn308 2.049 . S
O313 C321 1.260 . S
O314 Zn309 1.996 . S
O314 C321 1.257 . S
C315 O310 1.254 . S
C315 O311 1.269 . S
C316 O317 1.249 . S
C316 O318 1.270 . S
O317 Zn309 1.943 . S
O317 C316 1.249 . S
O318 Zn308 2.067 . S
O318 C316 1.270 . S
C319 O312 1.262 . S
C319 O320 1.232 . S
O320 C319 1.232 . S
C321 O313 1.260 . S
C321 O314 1.257 . S
Zn322 O325 2.031 . S
Zn322 O327 2.049 . S
Zn322 O332 2.067 . S
Zn323 O324 1.962 . S
Zn323 O326 1.986 . S
Zn323 O328 1.996 . S
Zn323 O331 1.943 . S
O324 Zn323 1.962 . S
O324 C329 1.254 . S
O325 Zn322 2.031 . S
O325 C329 1.269 . S
O326 Zn323 1.986 . S
O326 C333 1.262 . S
O327 Zn322 2.049 . S
O327 C335 1.260 . S
O328 Zn323 1.996 . S
O328 C335 1.257 . S
C329 O324 1.254 . S
C329 O325 1.269 . S
C330 O331 1.249 . S
C330 O332 1.270 . S
O331 Zn323 1.943 . S
O331 C330 1.249 . S
O332 Zn322 2.067 . S
O332 C330 1.270 . S
C333 O326 1.262 . S
C333 O334 1.232 . S
O334 C333 1.232 . S
C335 O327 1.260 . S
C335 O328 1.257 . S
Eu336 N367 2.657 1_545 S
Eu336 N374 2.609 1_544 S
Eu336 O380 2.558 1_454 S
Eu336 O381 2.612 . S
Eu336 O383 2.339 . S
Eu336 O384 2.563 . S
Eu336 O385 2.419 1_455 S
Eu336 O387 2.380 . S
Eu336 O388 2.432 1_554 S
Eu336 C400 2.848 1_454 S
C337 C340 1.429 . S
C337 C341 1.411 . S
C337 N344 1.377 . S
C338 C340 1.420 . S
C338 C342 1.423 . S
C338 C350 1.392 . S
C339 C341 1.420 . S
C339 C342 1.351 . S
C339 H362 0.931 . S
C340 C337 1.429 . S
C340 C338 1.420 . S
C340 N348 1.362 . S
C341 C337 1.411 . S
C341 C339 1.420 . S
C341 C346 1.395 . S
C342 C338 1.423 . S
C342 C339 1.351 . S
C342 H354 0.930 . S
C343 C345 1.400 . S
C343 C346 1.386 . S
C343 H355 0.930 . S
N344 C337 1.377 . S
N344 C345 1.321 . S
N344 Eu347 2.609 . S
C345 C343 1.400 . S
C345 N344 1.321 . S
C345 H352 0.930 . S
C346 C341 1.395 . S
C346 C343 1.386 . S
C346 H365 0.930 . S
Eu347 N344 2.609 . S
Eu347 N348 2.657 . S
Eu347 O381 2.380 . S
Eu347 O382 2.432 . S
Eu347 O386 2.558 . S
Eu347 O387 2.612 . S
Eu347 O389 2.339 1_554 S
Eu347 O390 2.563 . S
Eu347 O391 2.419 . S
Eu347 C411 2.848 . S
N348 C340 1.362 . S
N348 Eu347 2.657 . S
N348 C349 1.334 1_554 S
C349 N348 1.334 1_556 S
C349 C351 1.413 . S
C349 H356 0.929 . S
C350 C338 1.392 . S
C350 C351 1.367 1_554 S
C350 H358 0.930 1_554 S
C351 C349 1.413 . S
C351 C350 1.367 1_556 S
C351 H353 0.930 . S
H352 C345 0.930 . S
H353 C351 0.930 . S
H354 C342 0.930 . S
H355 C343 0.930 . S
H356 C349 0.929 . S
H357 C371 0.930 . S
H358 C350 0.930 1_556 S
H359 C377 0.930 . S
H360 C368 0.929 1_545 S
H361 C375 0.930 . S
H362 C339 0.931 . S
H363 C369 0.930 . S
H364 C402 0.943 . S
H365 C346 0.930 . S
H366 C401 0.931 . S
N367 Eu336 2.657 1_565 S
N367 C368 1.334 . S
N367 C372 1.362 . S
C368 H360 0.929 1_565 S
C368 N367 1.334 . S
C368 C371 1.413 . S
C369 H363 0.930 . S
C369 C370 1.392 . S
C369 C371 1.367 1_655 S
C370 C369 1.392 . S
C370 C372 1.420 1_655 S
C370 C402 1.434 . S
C371 H357 0.930 . S
C371 C368 1.413 . S
C371 C369 1.367 1_455 S
C372 N367 1.362 . S
C372 C370 1.420 1_455 S
C372 C376 1.429 1_554 S
H373 C378 0.930 . S
N374 Eu336 2.609 1_566 S
N374 C376 1.377 . S
N374 C377 1.321 . S
C375 H361 0.930 . S
C375 C377 1.400 . S
C375 C378 1.386 1_455 S
C376 C372 1.429 1_556 S
C376 N374 1.377 . S
C376 C379 1.411 1_455 S
C377 H359 0.930 . S
C377 N374 1.321 . S
C377 C375 1.400 . S
C378 H373 0.930 . S
C378 C375 1.386 1_655 S
C378 C379 1.395 . S
C379 C376 1.411 1_655 S
C379 C378 1.395 . S
C379 C401 1.420 . S
O380 Eu336 2.558 1_656 S
O380 C400 1.257 . S
O381 Eu336 2.612 . S
O381 Eu347 2.380 . S
O381 C392 1.276 . S
O382 Eu347 2.432 . S
O382 C399 1.264 . S
O383 Eu336 2.339 . S
O383 C399 1.254 . S
O384 Eu336 2.563 . S
O384 C392 1.235 . S
O385 Eu336 2.419 1_655 S
O385 C400 1.249 1_554 S
O386 Eu347 2.558 . S
O386 C411 1.257 . S
O387 Eu336 2.380 . S
O387 Eu347 2.612 . S
O387 C403 1.245 1_545 S
O388 Eu336 2.432 1_556 S
O388 C410 1.264 . S
O389 Eu347 2.339 1_556 S
O389 C410 1.254 . S
O390 Eu347 2.563 . S
O390 C403 1.232 1_545 S
O391 Eu347 2.419 . S
O391 C411 1.249 . S
C392 O381 1.276 . S
C392 O384 1.235 . S
C393 C395 1.393 1_556 S
C393 C397 1.395 . S
C393 C400 1.492 . S
C394 C395 1.394 . S
C394 C396 1.378 1_554 S
C395 C393 1.393 1_554 S
C395 C394 1.394 . S
C395 H412 0.930 . S
C396 C394 1.378 1_556 S
C396 C398 1.395 . S
C396 H413 0.930 . S
C397 C393 1.395 . S
C397 C398 1.379 . S
C397 H414 0.930 . S
C398 C396 1.395 . S
C398 C397 1.379 . S
C398 H415 0.930 . S
C399 O382 1.264 . S
C399 O383 1.254 . S
C400 Eu336 2.848 1_656 S
C400 O380 1.257 . S
C400 O385 1.249 1_556 S
C400 C393 1.492 . S
C401 H366 0.931 . S
C401 C379 1.420 . S
C401 C402 1.326 1_556 S
C402 H364 0.943 . S
C402 C370 1.434 . S
C402 C401 1.326 1_554 S
C403 O387 1.245 1_565 S
C403 O390 1.232 1_565 S
C404 C405 1.393 . S
C404 C408 1.395 . S
C404 C411 1.492 . S
C405 C404 1.393 . S
C405 C406 1.392 . S
C405 H416 0.930 . S
C406 C405 1.392 . S
C406 C407 1.386 . S
C407 C406 1.386 . S
C407 C409 1.395 . S
C407 H417 0.930 . S
C408 C404 1.395 . S
C408 C409 1.379 . S
C408 H418 0.930 . S
C409 C407 1.395 . S
C409 C408 1.379 . S
C409 H419 0.930 . S
C410 O388 1.264 . S
C410 O389 1.254 . S
C411 Eu347 2.848 . S
C411 O386 1.257 . S
C411 O391 1.249 . S
C411 C404 1.492 . S
H412 C395 0.930 . S
H413 C396 0.930 . S
H414 C397 0.930 . S
H415 C398 0.930 . S
H416 C405 0.930 . S
H417 C407 0.930 . S
H418 C408 0.930 . S
H419 C409 0.930 . S
Eu420 N451 2.657 . S
Eu420 N458 2.609 . S
Eu420 O464 2.558 . S
Eu420 O465 2.612 . S
Eu420 O467 2.339 . S
Eu420 O468 2.563 . S
Eu420 O469 2.419 . S
Eu420 O471 2.380 . S
Eu420 O472 2.432 . S
Eu420 C484 2.848 . S
C421 C424 1.429 . S
C421 C425 1.411 . S
C421 N428 1.377 . S
C422 C424 1.420 . S
C422 C426 1.423 . S
C422 C434 1.392 . S
C423 C425 1.420 . S
C423 C426 1.351 . S
C423 H446 0.931 . S
C424 C421 1.429 . S
C424 C422 1.420 . S
C424 N432 1.362 . S
C425 C421 1.411 . S
C425 C423 1.420 . S
C425 C430 1.395 . S
C426 C422 1.423 . S
C426 C423 1.351 . S
C426 H438 0.930 . S
C427 C429 1.400 . S
C427 C430 1.386 . S
C427 H439 0.930 . S
N428 C421 1.377 . S
N428 C429 1.321 . S
N428 Eu431 2.609 . S
C429 C427 1.400 . S
C429 N428 1.321 . S
C429 H436 0.930 . S
C430 C425 1.395 . S
C430 C427 1.386 . S
C430 H449 0.930 . S
Eu431 N428 2.609 . S
Eu431 N432 2.657 . S
Eu431 O465 2.380 . S
Eu431 O466 2.432 . S
Eu431 O470 2.558 . S
Eu431 O471 2.612 . S
Eu431 O473 2.339 . S
Eu431 O474 2.563 . S
Eu431 O475 2.419 . S
Eu431 C495 2.848 . S
N432 C424 1.362 . S
N432 Eu431 2.657 . S
N432 C433 1.334 . S
C433 N432 1.334 . S
C433 C435 1.413 . S
C433 H440 0.929 . S
C434 C422 1.392 . S
C434 C435 1.367 . S
C434 H442 0.930 . S
C435 C433 1.413 . S
C435 C434 1.367 . S
C435 H437 0.930 . S
H436 C429 0.930 . S
H437 C435 0.930 . S
H438 C426 0.930 . S
H439 C427 0.930 . S
H440 C433 0.929 . S
H441 C455 0.930 . S
H442 C434 0.930 . S
H443 C461 0.930 . S
H444 C452 0.929 . S
H445 C459 0.930 . S
H446 C423 0.931 . S
H447 C453 0.930 . S
H448 C486 0.930 . S
H449 C430 0.930 . S
H450 C485 0.931 . S
N451 Eu420 2.657 . S
N451 C452 1.334 . S
N451 C456 1.362 . S
C452 H444 0.929 . S
C452 N451 1.334 . S
C452 C455 1.413 . S
C453 H447 0.930 . S
C453 C454 1.392 . S
C453 C455 1.367 . S
C454 C453 1.392 . S
C454 C456 1.420 . S
C454 C486 1.423 . S
C455 H441 0.930 . S
C455 C452 1.413 . S
C455 C453 1.367 . S
C456 N451 1.362 . S
C456 C454 1.420 . S
C456 C460 1.429 . S
H457 C462 0.930 . S
N458 Eu420 2.609 . S
N458 C460 1.377 . S
N458 C461 1.321 . S
C459 H445 0.930 . S
C459 C461 1.400 . S
C459 C462 1.386 . S
C460 C456 1.429 . S
C460 N458 1.377 . S
C460 C463 1.411 . S
C461 H443 0.930 . S
C461 N458 1.321 . S
C461 C459 1.400 . S
C462 H457 0.930 . S
C462 C459 1.386 . S
C462 C463 1.395 . S
C463 C460 1.411 . S
C463 C462 1.395 . S
C463 C485 1.420 . S
O464 Eu420 2.558 . S
O464 C484 1.257 . S
O465 Eu420 2.612 . S
O465 Eu431 2.380 . S
O465 C476 1.276 . S
O466 Eu431 2.432 . S
O466 C483 1.264 . S
O467 Eu420 2.339 . S
O467 C483 1.254 . S
O468 Eu420 2.563 . S
O468 C476 1.235 . S
O469 Eu420 2.419 . S
O469 C484 1.249 . S
O470 Eu431 2.558 . S
O470 C495 1.257 . S
O471 Eu420 2.380 . S
O471 Eu431 2.612 . S
O471 C487 1.276 . S
O472 Eu420 2.432 . S
O472 C494 1.264 . S
O473 Eu431 2.339 . S
O473 C494 1.254 . S
O474 Eu431 2.563 . S
O474 C487 1.235 . S
O475 Eu431 2.419 . S
O475 C495 1.249 . S
C476 O465 1.276 . S
C476 O468 1.235 . S
C477 C479 1.393 . S
C477 C481 1.395 . S
C477 C484 1.492 . S
C478 C479 1.392 . S
C478 C480 1.386 . S
C479 C477 1.393 . S
C479 C478 1.392 . S
C479 H496 0.930 . S
C480 C478 1.386 . S
C480 C482 1.395 . S
C480 H497 0.930 . S
C481 C477 1.395 . S
C481 C482 1.379 . S
C481 H498 0.930 . S
C482 C480 1.395 . S
C482 C481 1.379 . S
C482 H499 0.930 . S
C483 O466 1.264 . S
C483 O467 1.254 . S
C484 Eu420 2.848 . S
C484 O464 1.257 . S
C484 O469 1.249 . S
C484 C477 1.492 . S
C485 H450 0.931 . S
C485 C463 1.420 . S
C485 C486 1.351 . S
C486 H448 0.930 . S
C486 C454 1.423 . S
C486 C485 1.351 . S
C487 O471 1.276 . S
C487 O474 1.235 . S
C488 C489 1.393 . S
C488 C492 1.395 . S
C488 C495 1.492 . S
C489 C488 1.393 . S
C489 C490 1.392 . S
C489 H500 0.930 . S
C490 C489 1.392 . S
C490 C491 1.386 . S
C491 C490 1.386 . S
C491 C493 1.395 . S
C491 H501 0.930 . S
C492 C488 1.395 . S
C492 C493 1.379 . S
C492 H502 0.930 . S
C493 C491 1.395 . S
C493 C492 1.379 . S
C493 H503 0.930 . S
C494 O472 1.264 . S
C494 O473 1.254 . S
C495 Eu431 2.848 . S
C495 O470 1.257 . S
C495 O475 1.249 . S
C495 C488 1.492 . S
H496 C479 0.930 . S
H497 C480 0.930 . S
H498 C481 0.930 . S
H499 C482 0.930 . S
H500 C489 0.930 . S
H501 C491 0.930 . S
H502 C492 0.930 . S
H503 C493 0.930 . S
Eu504 N535 2.657 . S
Eu504 N542 2.609 . S
Eu504 O548 2.558 . S
Eu504 O549 2.612 . S
Eu504 O551 2.339 . S
Eu504 O552 2.563 1_545 S
Eu504 O553 2.419 . S
Eu504 O555 2.380 . S
Eu504 O556 2.432 . S
Eu504 C568 2.848 . S
C505 C508 1.429 . S
C505 C509 1.411 . S
C505 N512 1.377 1_565 S
C506 C508 1.420 . S
C506 C510 1.423 . S
C506 C518 1.392 . S
C507 C509 1.420 . S
C507 C510 1.351 . S
C507 H530 0.931 . S
C508 C505 1.429 . S
C508 C506 1.420 . S
C508 N516 1.362 . S
C509 C505 1.411 . S
C509 C507 1.420 . S
C509 C514 1.395 . S
C510 C506 1.423 . S
C510 C507 1.351 . S
C510 H522 0.930 . S
C511 C513 1.400 1_565 S
C511 C514 1.386 . S
C511 H523 0.930 1_565 S
N512 C505 1.377 1_545 S
N512 C513 1.321 . S
N512 Eu515 2.609 . S
C513 C511 1.400 1_545 S
C513 N512 1.321 . S
C513 H520 0.930 . S
C514 C509 1.395 . S
C514 C511 1.386 . S
C514 H533 0.930 . S
Eu515 N512 2.609 . S
Eu515 N516 2.657 1_545 S
Eu515 O549 2.380 . S
Eu515 O550 2.432 . S
Eu515 O554 2.558 . S
Eu515 O555 2.612 . S
Eu515 O557 2.339 . S
Eu515 O558 2.563 . S
Eu515 O559 2.419 . S
Eu515 C579 2.848 . S
N516 C508 1.362 . S
N516 Eu515 2.657 1_565 S
N516 C517 1.334 . S
C517 N516 1.334 . S
C517 C519 1.413 . S
C517 H524 0.929 . S
C518 C506 1.392 . S
C518 C519 1.367 . S
C518 H526 0.930 . S
C519 C517 1.413 . S
C519 C518 1.367 . S
C519 H521 0.930 . S
H520 C513 0.930 . S
H521 C519 0.930 . S
H522 C510 0.930 . S
H523 C511 0.930 1_545 S
H524 C517 0.929 . S
H525 C539 0.930 . S
H526 C518 0.930 . S
H527 C545 0.930 . S
H528 C536 0.929 . S
H529 C543 0.930 . S
H530 C507 0.931 . S
H531 C537 0.930 . S
H532 C570 0.930 . S
H533 C514 0.930 . S
H534 C569 0.931 . S
N535 Eu504 2.657 . S
N535 C536 1.334 . S
N535 C540 1.362 . S
C536 H528 0.929 . S
C536 N535 1.334 . S
C536 C539 1.413 . S
C537 H531 0.930 . S
C537 C538 1.392 . S
C537 C539 1.367 . S
C538 C537 1.392 . S
C538 C540 1.420 . S
C538 C570 1.423 . S
C539 H525 0.930 . S
C539 C536 1.413 . S
C539 C537 1.367 . S
C540 N535 1.362 . S
C540 C538 1.420 . S
C540 C544 1.429 . S
H541 C546 0.930 . S
N542 Eu504 2.609 . S
N542 C544 1.377 . S
N542 C545 1.321 . S
C543 H529 0.930 . S
C543 C545 1.400 . S
C543 C546 1.386 . S
C544 C540 1.429 . S
C544 N542 1.377 . S
C544 C547 1.411 . S
C545 H527 0.930 . S
C545 N542 1.321 . S
C545 C543 1.400 . S
C546 H541 0.930 . S
C546 C543 1.386 . S
C546 C547 1.395 . S
C547 C544 1.411 . S
C547 C546 1.395 . S
C547 C569 1.420 . S
O548 Eu504 2.558 . S
O548 C568 1.257 . S
O549 Eu504 2.612 . S
O549 Eu515 2.380 . S
O549 C560 1.276 1_545 S
O550 Eu515 2.432 . S
O550 C567 1.264 . S
O551 Eu504 2.339 . S
O551 C567 1.254 . S
O552 Eu504 2.563 1_565 S
O552 C560 1.235 . S
O553 Eu504 2.419 . S
O553 C568 1.249 . S
O554 Eu515 2.558 . S
O554 C579 1.257 . S
O555 Eu504 2.380 . S
O555 Eu515 2.612 . S
O555 C571 1.276 . S
O556 Eu504 2.432 . S
O556 C578 1.264 . S
O557 Eu515 2.339 . S
O557 C578 1.254 . S
O558 Eu515 2.563 . S
O558 C571 1.235 . S
O559 Eu515 2.419 . S
O559 C579 1.249 . S
C560 O549 1.276 1_565 S
C560 O552 1.235 . S
C561 C563 1.393 1_545 S
C561 C565 1.395 . S
C561 C568 1.492 . S
C562 C563 1.392 . S
C562 C564 1.386 . S
C563 C561 1.393 1_565 S
C563 C562 1.392 . S
C563 H580 0.930 . S
C564 C562 1.386 . S
C564 C566 1.395 . S
C564 H581 0.930 . S
C565 C561 1.395 . S
C565 C566 1.379 1_545 S
C565 H582 0.930 . S
C566 C564 1.395 . S
C566 C565 1.379 1_565 S
C566 H583 0.930 . S
C567 O550 1.264 . S
C567 O551 1.254 . S
C568 Eu504 2.848 . S
C568 O548 1.257 . S
C568 O553 1.249 . S
C568 C561 1.492 . S
C569 H534 0.931 . S
C569 C547 1.420 . S
C569 C570 1.351 . S
C570 H532 0.930 . S
C570 C538 1.423 . S
C570 C569 1.351 . S
C571 O555 1.276 . S
C571 O558 1.235 . S
C572 C573 1.393 . S
C572 C576 1.395 . S
C572 C579 1.492 . S
C573 C572 1.393 . S
C573 C574 1.392 . S
C573 H584 0.930 . S
C574 C573 1.392 . S
C574 C575 1.386 . S
C575 C574 1.386 . S
C575 C577 1.395 . S
C575 H585 0.930 . S
C576 C572 1.395 . S
C576 C577 1.379 . S
C576 H586 0.930 . S
C577 C575 1.395 . S
C577 C576 1.379 . S
C577 H587 0.930 . S
C578 O556 1.264 . S
C578 O557 1.254 . S
C579 Eu515 2.848 . S
C579 O554 1.257 . S
C579 O559 1.249 . S
C579 C572 1.492 . S
H580 C563 0.930 . S
H581 C564 0.930 . S
H582 C565 0.930 . S
H583 C566 0.930 . S
H584 C573 0.930 . S
H585 C575 0.930 . S
H586 C576 0.930 . S
H587 C577 0.930 . S
Eu588 N619 2.657 . S
Eu588 N626 2.609 . S
Eu588 O632 2.558 . S
Eu588 O633 2.612 . S
Eu588 O635 2.339 . S
Eu588 O636 2.563 . S
Eu588 O637 2.419 . S
Eu588 O639 2.380 . S
Eu588 O640 2.432 . S
Eu588 C652 2.848 . S
C589 C592 1.429 . S
C589 C593 1.411 . S
C589 N596 1.377 . S
C590 C592 1.420 . S
C590 C594 1.423 . S
C590 C602 1.392 . S
C591 C593 1.420 . S
C591 C594 1.351 . S
C591 H614 0.931 . S
C592 C589 1.429 . S
C592 C590 1.420 . S
C592 N600 1.362 . S
C593 C589 1.411 . S
C593 C591 1.420 . S
C593 C598 1.395 . S
C594 C590 1.423 . S
C594 C591 1.351 . S
C594 H606 0.930 . S
C595 C597 1.400 . S
C595 C598 1.386 . S
C595 H607 0.930 . S
N596 C589 1.377 . S
N596 C597 1.321 . S
N596 Eu599 2.609 . S
C597 C595 1.400 . S
C597 N596 1.321 . S
C597 H604 0.930 . S
C598 C593 1.395 . S
C598 C595 1.386 . S
C598 H617 0.930 . S
Eu599 N596 2.609 . S
Eu599 N600 2.657 . S
Eu599 O633 2.380 . S
Eu599 O634 2.432 . S
Eu599 O638 2.558 . S
Eu599 O639 2.612 . S
Eu599 O641 2.339 . S
Eu599 O642 2.563 . S
Eu599 O643 2.419 . S
Eu599 C663 2.848 . S
N600 C592 1.362 . S
N600 Eu599 2.657 . S
N600 C601 1.334 . S
C601 N600 1.334 . S
C601 C603 1.413 . S
C601 H608 0.929 . S
C602 C590 1.392 . S
C602 C603 1.367 . S
C602 H610 0.930 . S
C603 C601 1.413 . S
C603 C602 1.367 . S
C603 H605 0.930 . S
H604 C597 0.930 . S
H605 C603 0.930 . S
H606 C594 0.930 . S
H607 C595 0.930 . S
H608 C601 0.929 . S
H609 C623 0.930 . S
H610 C602 0.930 . S
H611 C629 0.930 . S
H612 C620 0.929 . S
H613 C627 0.930 . S
H614 C591 0.931 . S
H615 C621 0.930 . S
H616 C654 0.930 . S
H617 C598 0.930 . S
H618 C653 0.931 . S
N619 Eu588 2.657 . S
N619 C620 1.334 . S
N619 C624 1.362 . S
C620 H612 0.929 . S
C620 N619 1.334 . S
C620 C623 1.413 . S
C621 H615 0.930 . S
C621 C622 1.392 . S
C621 C623 1.367 . S
C622 C621 1.392 . S
C622 C624 1.420 . S
C622 C654 1.423 . S
C623 H609 0.930 . S
C623 C620 1.413 . S
C623 C621 1.367 . S
C624 N619 1.362 . S
C624 C622 1.420 . S
C624 C628 1.429 . S
H625 C630 0.930 . S
N626 Eu588 2.609 . S
N626 C628 1.377 . S
N626 C629 1.321 . S
C627 H613 0.930 . S
C627 C629 1.400 . S
C627 C630 1.386 . S
C628 C624 1.429 . S
C628 N626 1.377 . S
C628 C631 1.411 . S
C629 H611 0.930 . S
C629 N626 1.321 . S
C629 C627 1.400 . S
C630 H625 0.930 . S
C630 C627 1.386 . S
C630 C631 1.395 . S
C631 C628 1.411 . S
C631 C630 1.395 . S
C631 C653 1.420 . S
O632 Eu588 2.558 . S
O632 C652 1.257 . S
O633 Eu588 2.612 . S
O633 Eu599 2.380 . S
O633 C644 1.276 . S
O634 Eu599 2.432 . S
O634 C651 1.264 . S
O635 Eu588 2.339 . S
O635 C651 1.254 . S
O636 Eu588 2.563 . S
O636 C644 1.235 . S
O637 Eu588 2.419 . S
O637 C652 1.249 . S
O638 Eu599 2.558 . S
O638 C663 1.257 . S
O639 Eu588 2.380 . S
O639 Eu599 2.612 . S
O639 C655 1.276 . S
O640 Eu588 2.432 . S
O640 C662 1.264 . S
O641 Eu599 2.339 . S
O641 C662 1.254 . S
O642 Eu599 2.563 . S
O642 C655 1.235 . S
O643 Eu599 2.419 . S
O643 C663 1.249 . S
C644 O633 1.276 . S
C644 O636 1.235 . S
C645 C647 1.393 . S
C645 C649 1.395 . S
C645 C652 1.492 . S
C646 C647 1.392 . S
C646 C648 1.386 . S
C647 C645 1.393 . S
C647 C646 1.392 . S
C647 H664 0.930 . S
C648 C646 1.386 . S
C648 C650 1.395 . S
C648 H665 0.930 . S
C649 C645 1.395 . S
C649 C650 1.379 . S
C649 H666 0.930 . S
C650 C648 1.395 . S
C650 C649 1.379 . S
C650 H667 0.930 . S
C651 O634 1.264 . S
C651 O635 1.254 . S
C652 Eu588 2.848 . S
C652 O632 1.257 . S
C652 O637 1.249 . S
C652 C645 1.492 . S
C653 H618 0.931 . S
C653 C631 1.420 . S
C653 C654 1.351 . S
C654 H616 0.930 . S
C654 C622 1.423 . S
C654 C653 1.351 . S
C655 O639 1.276 . S
C655 O642 1.235 . S
C656 C657 1.393 . S
C656 C660 1.395 . S
C656 C663 1.492 . S
C657 C656 1.393 . S
C657 C658 1.392 . S
C657 H668 0.930 . S
C658 C657 1.392 . S
C658 C659 1.386 . S
C659 C658 1.386 . S
C659 C661 1.395 . S
C659 H669 0.930 . S
C660 C656 1.395 . S
C660 C661 1.379 . S
C660 H670 0.930 . S
C661 C659 1.395 . S
C661 C660 1.379 . S
C661 H671 0.930 . S
C662 O640 1.264 . S
C662 O641 1.254 . S
C663 Eu599 2.848 . S
C663 O638 1.257 . S
C663 O643 1.249 . S
C663 C656 1.492 . S
H664 C647 0.930 . S
H665 C648 0.930 . S
H666 C649 0.930 . S
H667 C650 0.930 . S
H668 C657 0.930 . S
H669 C659 0.930 . S
H670 C660 0.930 . S
H671 C661 0.930 . S
Eu672 N703 2.657 . S
Eu672 N710 2.609 . S
Eu672 O716 2.558 . S
Eu672 O717 2.612 . S
Eu672 O719 2.339 . S
Eu672 O720 2.563 . S
Eu672 O721 2.419 . S
Eu672 O723 2.380 . S
Eu672 O724 2.432 . S
Eu672 C736 2.848 . S
C673 C676 1.429 . S
C673 C677 1.411 . S
C673 N680 1.377 . S
C674 C676 1.420 . S
C674 C678 1.423 . S
C674 C686 1.392 . S
C675 C677 1.420 . S
C675 C678 1.351 . S
C675 H698 0.931 . S
C676 C673 1.429 . S
C676 C674 1.420 . S
C676 N684 1.362 . S
C677 C673 1.411 . S
C677 C675 1.420 . S
C677 C682 1.395 . S
C678 C674 1.423 . S
C678 C675 1.351 . S
C678 H690 0.930 . S
C679 C681 1.400 . S
C679 C682 1.386 . S
C679 H691 0.930 . S
N680 C673 1.377 . S
N680 C681 1.321 . S
N680 Eu683 2.609 1_565 S
C681 C679 1.400 . S
C681 N680 1.321 . S
C681 H688 0.930 . S
C682 C677 1.395 . S
C682 C679 1.386 . S
C682 H701 0.930 . S
Eu683 N680 2.609 1_545 S
Eu683 N684 2.657 1_545 S
Eu683 O717 2.380 . S
Eu683 O718 2.432 . S
Eu683 O722 2.558 1_545 S
Eu683 O723 2.612 . S
Eu683 O725 2.339 . S
Eu683 O726 2.563 . S
Eu683 O727 2.419 1_545 S
Eu683 C747 2.848 1_545 S
N684 C676 1.362 . S
N684 Eu683 2.657 1_565 S
N684 C685 1.334 . S
C685 N684 1.334 . S
C685 C687 1.408 1_455 S
C685 H692 0.929 . S
C686 C674 1.392 . S
C686 C687 1.362 1_455 S
C686 H694 0.930 1_455 S
C687 C685 1.408 1_655 S
C687 C686 1.362 1_655 S
C687 H689 0.941 . S
H688 C681 0.930 . S
H689 C687 0.941 . S
H690 C678 0.930 . S
H691 C679 0.930 . S
H692 C685 0.929 . S
H693 C707 0.930 . S
H694 C686 0.930 1_655 S
H695 C713 0.930 . S
H696 C704 0.929 . S
H697 C711 0.930 1_655 S
H698 C675 0.931 . S
H699 C705 0.930 . S
H700 C738 0.930 . S
H701 C682 0.930 . S
H702 C737 0.931 . S
N703 Eu672 2.657 . S
N703 C704 1.334 . S
N703 C708 1.362 . S
C704 H696 0.929 . S
C704 N703 1.334 . S
C704 C707 1.413 . S
C705 H699 0.930 . S
C705 C706 1.392 . S
C705 C707 1.367 . S
C706 C705 1.392 . S
C706 C708 1.420 . S
C706 C738 1.423 . S
C707 H693 0.930 . S
C707 C704 1.413 . S
C707 C705 1.367 . S
C708 N703 1.362 . S
C708 C706 1.420 . S
C708 C712 1.429 . S
H709 C714 0.930 . S
N710 Eu672 2.609 . S
N710 C712 1.377 . S
N710 C713 1.321 . S
C711 H697 0.930 1_455 S
C711 C713 1.400 . S
C711 C714 1.386 . S
C712 C708 1.429 . S
C712 N710 1.377 . S
C712 C715 1.411 . S
C713 H695 0.930 . S
C713 N710 1.321 . S
C713 C711 1.400 . S
C714 H709 0.930 . S
C714 C711 1.386 . S
C714 C715 1.395 . S
C715 C712 1.411 . S
C715 C714 1.395 . S
C715 C737 1.420 . S
O716 Eu672 2.558 . S
O716 C736 1.257 . S
O717 Eu672 2.612 . S
O717 Eu683 2.380 . S
O717 C728 1.276 . S
O718 Eu683 2.432 . S
O718 C735 1.264 . S
O719 Eu672 2.339 . S
O719 C735 1.254 . S
O720 Eu672 2.563 . S
O720 C728 1.235 . S
O721 Eu672 2.419 . S
O721 C736 1.249 . S
O722 Eu683 2.558 1_565 S
O722 C747 1.257 . S
O723 Eu672 2.380 . S
O723 Eu683 2.612 . S
O723 C739 1.276 . S
O724 Eu672 2.432 . S
O724 C746 1.264 . S
O725 Eu683 2.339 . S
O725 C746 1.254 . S
O726 Eu683 2.563 . S
O726 C739 1.235 . S
O727 Eu683 2.419 1_565 S
O727 C747 1.249 . S
C728 O717 1.276 . S
C728 O720 1.235 . S
C729 C731 1.393 . S
C729 C733 1.395 . S
C729 C736 1.492 . S
C730 C731 1.392 . S
C730 C732 1.386 . S
C731 C729 1.393 . S
C731 C730 1.392 . S
C731 H748 0.930 . S
C732 C730 1.386 . S
C732 C734 1.395 . S
C732 H749 0.930 . S
C733 C729 1.395 . S
C733 C734 1.379 . S
C733 H750 0.930 . S
C734 C732 1.395 . S
C734 C733 1.379 . S
C734 H751 0.930 . S
C735 O718 1.264 . S
C735 O719 1.254 . S
C736 Eu672 2.848 . S
C736 O716 1.257 . S
C736 O721 1.249 . S
C736 C729 1.492 . S
C737 H702 0.931 . S
C737 C715 1.420 . S
C737 C738 1.351 . S
C738 H700 0.930 . S
C738 C706 1.423 . S
C738 C737 1.351 . S
C739 O723 1.276 . S
C739 O726 1.235 . S
C740 C741 1.393 . S
C740 C744 1.395 . S
C740 C747 1.492 . S
C741 C740 1.393 . S
C741 C742 1.392 . S
C741 H752 0.930 . S
C742 C741 1.392 . S
C742 C743 1.386 . S
C743 C742 1.386 . S
C743 C745 1.395 . S
C743 H753 0.930 . S
C744 C740 1.395 . S
C744 C745 1.379 . S
C744 H754 0.930 . S
C745 C743 1.395 . S
C745 C744 1.379 . S
C745 H755 0.930 . S
C746 O724 1.264 . S
C746 O725 1.254 . S
C747 Eu683 2.848 1_565 S
C747 O722 1.257 . S
C747 O727 1.249 . S
C747 C740 1.492 . S
H748 C731 0.930 . S
H749 C732 0.930 . S
H750 C733 0.930 . S
H751 C734 0.930 . S
H752 C741 0.930 . S
H753 C743 0.930 . S
H754 C744 0.930 . S
H755 C745 0.930 . S
Eu756 N787 2.657 . S
Eu756 N794 2.609 . S
Eu756 O800 2.558 . S
Eu756 O801 2.612 . S
Eu756 O803 2.339 . S
Eu756 O804 2.563 . S
Eu756 O805 2.419 . S
Eu756 O807 2.380 . S
Eu756 O808 2.432 . S
Eu756 C820 2.848 . S
C757 C760 1.429 . S
C757 C761 1.411 . S
C757 N764 1.377 . S
C758 C760 1.420 . S
C758 C762 1.423 . S
C758 C770 1.392 . S
C759 C761 1.420 . S
C759 C762 1.351 . S
C759 H782 0.931 . S
C760 C757 1.429 . S
C760 C758 1.420 . S
C760 N768 1.362 . S
C761 C757 1.411 . S
C761 C759 1.420 . S
C761 C766 1.395 . S
C762 C758 1.423 . S
C762 C759 1.351 . S
C762 H774 0.930 . S
C763 C765 1.400 . S
C763 C766 1.386 . S
C763 H775 0.930 . S
N764 C757 1.377 . S
N764 C765 1.321 . S
N764 Eu767 2.609 . S
C765 C763 1.400 . S
C765 N764 1.321 . S
C765 H772 0.930 . S
C766 C761 1.395 . S
C766 C763 1.386 . S
C766 H785 0.930 . S
Eu767 N764 2.609 . S
Eu767 N768 2.657 . S
Eu767 O801 2.380 . S
Eu767 O802 2.432 . S
Eu767 O806 2.558 . S
Eu767 O807 2.612 . S
Eu767 O809 2.339 . S
Eu767 O810 2.563 . S
Eu767 O811 2.419 . S
Eu767 C831 2.848 . S
N768 C760 1.362 . S
N768 Eu767 2.657 . S
N768 C769 1.334 . S
C769 N768 1.334 . S
C769 C771 1.413 . S
C769 H776 0.929 . S
C770 C758 1.392 . S
C770 C771 1.367 . S
C770 H778 0.930 . S
C771 C769 1.413 . S
C771 C770 1.367 . S
C771 H773 0.930 . S
H772 C765 0.930 . S
H773 C771 0.930 . S
H774 C762 0.930 . S
H775 C763 0.930 . S
H776 C769 0.929 . S
H777 C791 0.930 . S
H778 C770 0.930 . S
H779 C797 0.930 . S
H780 C788 0.929 . S
H781 C795 0.930 . S
H782 C759 0.931 . S
H783 C789 0.930 . S
H784 C822 0.930 . S
H785 C766 0.930 . S
H786 C821 0.931 . S
N787 Eu756 2.657 . S
N787 C788 1.334 . S
N787 C792 1.362 . S
C788 H780 0.929 . S
C788 N787 1.334 . S
C788 C791 1.413 . S
C789 H783 0.930 . S
C789 C790 1.392 . S
C789 C791 1.367 . S
C790 C789 1.392 . S
C790 C792 1.420 . S
C790 C822 1.423 . S
C791 H777 0.930 . S
C791 C788 1.413 . S
C791 C789 1.367 . S
C792 N787 1.362 . S
C792 C790 1.420 . S
C792 C796 1.429 . S
H793 C798 0.930 . S
N794 Eu756 2.609 . S
N794 C796 1.377 . S
N794 C797 1.321 . S
C795 H781 0.930 . S
C795 C797 1.400 . S
C795 C798 1.386 . S
C796 C792 1.429 . S
C796 N794 1.377 . S
C796 C799 1.411 . S
C797 H779 0.930 . S
C797 N794 1.321 . S
C797 C795 1.400 . S
C798 H793 0.930 . S
C798 C795 1.386 . S
C798 C799 1.395 . S
C799 C796 1.411 . S
C799 C798 1.395 . S
C799 C821 1.420 . S
O800 Eu756 2.558 . S
O800 C820 1.257 . S
O801 Eu756 2.612 . S
O801 Eu767 2.380 . S
O801 C812 1.276 . S
O802 Eu767 2.432 . S
O802 C819 1.264 . S
O803 Eu756 2.339 . S
O803 C819 1.254 . S
O804 Eu756 2.563 . S
O804 C812 1.235 . S
O805 Eu756 2.419 . S
O805 C820 1.249 . S
O806 Eu767 2.558 . S
O806 C831 1.257 . S
O807 Eu756 2.380 . S
O807 Eu767 2.612 . S
O807 C823 1.276 . S
O808 Eu756 2.432 . S
O808 C830 1.264 . S
O809 Eu767 2.339 . S
O809 C830 1.254 . S
O810 Eu767 2.563 . S
O810 C823 1.235 . S
O811 Eu767 2.419 . S
O811 C831 1.249 . S
C812 O801 1.276 . S
C812 O804 1.235 . S
C813 C815 1.393 . S
C813 C817 1.395 . S
C813 C820 1.492 . S
C814 C815 1.392 . S
C814 C816 1.386 . S
C815 C813 1.393 . S
C815 C814 1.392 . S
C815 H832 0.930 . S
C816 C814 1.386 . S
C816 C818 1.395 . S
C816 H833 0.930 . S
C817 C813 1.395 . S
C817 C818 1.379 . S
C817 H834 0.930 . S
C818 C816 1.395 . S
C818 C817 1.379 . S
C818 H835 0.930 . S
C819 O802 1.264 . S
C819 O803 1.254 . S
C820 Eu756 2.848 . S
C820 O800 1.257 . S
C820 O805 1.249 . S
C820 C813 1.492 . S
C821 H786 0.931 . S
C821 C799 1.420 . S
C821 C822 1.351 . S
C822 H784 0.930 . S
C822 C790 1.423 . S
C822 C821 1.351 . S
C823 O807 1.276 . S
C823 O810 1.235 . S
C824 C825 1.393 . S
C824 C828 1.395 . S
C824 C831 1.492 . S
C825 C824 1.393 . S
C825 C826 1.392 . S
C825 H836 0.930 . S
C826 C825 1.392 . S
C826 C827 1.386 . S
C827 C826 1.386 . S
C827 C829 1.395 . S
C827 H837 0.930 . S
C828 C824 1.395 . S
C828 C829 1.379 . S
C828 H838 0.930 . S
C829 C827 1.395 . S
C829 C828 1.379 . S
C829 H839 0.930 . S
C830 O808 1.264 . S
C830 O809 1.254 . S
C831 Eu767 2.848 . S
C831 O806 1.257 . S
C831 O811 1.249 . S
C831 C824 1.492 . S
H832 C815 0.930 . S
H833 C816 0.930 . S
H834 C817 0.930 . S
H835 C818 0.930 . S
H836 C825 0.930 . S
H837 C827 0.930 . S
H838 C828 0.930 . S
H839 C829 0.930 . S
Eu840 N871 2.657 . S
Eu840 N878 2.609 . S
Eu840 O884 2.558 . S
Eu840 O885 2.612 . S
Eu840 O887 2.339 . S
Eu840 O888 2.563 . S
Eu840 O889 2.419 . S
Eu840 O891 2.380 . S
Eu840 O892 2.432 1_545 S
Eu840 C904 2.848 . S
C841 C844 1.429 . S
C841 C845 1.411 . S
C841 N848 1.377 . S
C842 C844 1.420 . S
C842 C846 1.423 . S
C842 C854 1.392 1_545 S
C843 C845 1.420 . S
C843 C846 1.351 . S
C843 H866 0.931 . S
C844 C841 1.429 . S
C844 C842 1.420 . S
C844 N852 1.362 . S
C845 C841 1.411 . S
C845 C843 1.420 . S
C845 C850 1.395 . S
C846 C842 1.423 . S
C846 C843 1.351 . S
C846 H858 0.930 . S
C847 C849 1.400 . S
C847 C850 1.386 . S
C847 H859 0.930 . S
N848 C841 1.377 . S
N848 C849 1.321 . S
N848 Eu851 2.609 . S
C849 C847 1.400 . S
C849 N848 1.321 . S
C849 H856 0.930 . S
C850 C845 1.395 . S
C850 C847 1.386 . S
C850 H869 0.930 . S
Eu851 N848 2.609 . S
Eu851 N852 2.657 . S
Eu851 O885 2.380 1_556 S
Eu851 O886 2.432 1_556 S
Eu851 O890 2.558 . S
Eu851 O891 2.612 1_556 S
Eu851 O893 2.339 . S
Eu851 O894 2.563 . S
Eu851 O895 2.419 . S
Eu851 C915 2.848 . S
N852 C844 1.362 . S
N852 Eu851 2.657 . S
N852 C853 1.334 1_545 S
C853 N852 1.334 1_565 S
C853 C855 1.413 . S
C853 H860 0.929 . S
C854 C842 1.392 1_565 S
C854 C855 1.367 . S
C854 H862 0.930 . S
C855 C853 1.413 . S
C855 C854 1.367 . S
C855 H857 0.930 . S
H856 C849 0.930 . S
H857 C855 0.930 . S
H858 C846 0.930 . S
H859 C847 0.930 . S
H860 C853 0.929 . S
H861 C875 0.930 . S
H862 C854 0.930 . S
H863 C881 0.930 . S
H864 C872 0.929 . S
H865 C879 0.930 . S
H866 C843 0.931 . S
H867 C873 0.930 . S
H868 C906 0.930 . S
H869 C850 0.930 . S
H870 C905 0.931 . S
N871 Eu840 2.657 . S
N871 C872 1.334 . S
N871 C876 1.362 . S
C872 H864 0.929 . S
C872 N871 1.334 . S
C872 C875 1.413 . S
C873 H867 0.930 . S
C873 C874 1.392 . S
C873 C875 1.367 . S
C874 C873 1.392 . S
C874 C876 1.420 . S
C874 C906 1.423 . S
C875 H861 0.930 . S
C875 C872 1.413 . S
C875 C873 1.367 . S
C876 N871 1.362 . S
C876 C874 1.420 . S
C876 C880 1.429 . S
H877 C882 0.930 . S
N878 Eu840 2.609 . S
N878 C880 1.377 . S
N878 C881 1.321 1_545 S
C879 H865 0.930 . S
C879 C881 1.400 . S
C879 C882 1.386 . S
C880 C876 1.429 . S
C880 N878 1.377 . S
C880 C883 1.411 . S
C881 H863 0.930 . S
C881 N878 1.321 1_565 S
C881 C879 1.400 . S
C882 H877 0.930 . S
C882 C879 1.386 . S
C882 C883 1.395 1_565 S
C883 C880 1.411 . S
C883 C882 1.395 1_545 S
C883 C905 1.420 . S
O884 Eu840 2.558 . S
O884 C904 1.257 . S
O885 Eu840 2.612 . S
O885 Eu851 2.380 1_554 S
O885 C896 1.276 . S
O886 Eu851 2.432 1_554 S
O886 C903 1.264 . S
O887 Eu840 2.339 . S
O887 C903 1.254 . S
O888 Eu840 2.563 . S
O888 C896 1.235 . S
O889 Eu840 2.419 . S
O889 C904 1.249 . S
O890 Eu851 2.558 . S
O890 C915 1.257 . S
O891 Eu840 2.380 . S
O891 Eu851 2.612 1_554 S
O891 C907 1.276 . S
O892 Eu840 2.432 1_565 S
O892 C914 1.258 1_564 S
O893 Eu851 2.339 . S
O893 C914 1.281 . S
O894 Eu851 2.563 . S
O894 C907 1.235 1_556 S
O895 Eu851 2.419 . S
O895 C915 1.249 . S
C896 O885 1.276 . S
C896 O888 1.235 . S
C897 C899 1.393 . S
C897 C901 1.395 1_545 S
C897 C904 1.492 . S
C898 C899 1.392 . S
C898 C900 1.366 1_545 S
C899 C897 1.393 . S
C899 C898 1.392 . S
C899 H916 0.930 . S
C900 C898 1.366 1_565 S
C900 C902 1.408 . S
C900 H917 0.936 . S
C901 C897 1.395 1_565 S
C901 C902 1.379 . S
C901 H918 0.930 . S
C902 C900 1.408 . S
C902 C901 1.379 . S
C902 H919 0.930 . S
C903 O886 1.264 . S
C903 O887 1.254 . S
C904 Eu840 2.848 . S
C904 O884 1.257 . S
C904 O889 1.249 . S
C904 C897 1.492 . S
C905 H870 0.931 . S
C905 C883 1.420 . S
C905 C906 1.351 . S
C906 H868 0.930 . S
C906 C874 1.423 . S
C906 C905 1.351 . S
C907 O891 1.276 . S
C907 O894 1.235 1_554 S
C908 C909 1.393 . S
C908 C912 1.395 . S
C908 C915 1.492 . S
C909 C908 1.393 . S
C909 C910 1.392 . S
C909 H920 0.930 . S
C910 C909 1.392 . S
C910 C911 1.386 . S
C911 C910 1.386 . S
C911 C913 1.395 . S
C911 H921 0.930 . S
C912 C908 1.395 . S
C912 C913 1.379 . S
C912 H922 0.930 . S
C913 C911 1.395 . S
C913 C912 1.379 . S
C913 H923 0.930 . S
C914 O892 1.258 1_546 S
C914 O893 1.281 . S
C915 Eu851 2.848 . S
C915 O890 1.257 . S
C915 O895 1.249 . S
C915 C908 1.492 . S
H916 C899 0.930 . S
H917 C900 0.936 . S
H918 C901 0.930 . S
H919 C902 0.930 . S
H920 C909 0.930 . S
H921 C911 0.930 . S
H922 C912 0.930 . S
H923 C913 0.930 . S
Eu924 N955 2.657 . S
Eu924 N962 2.609 . S
Eu924 O968 2.558 . S
Eu924 O969 2.612 . S
Eu924 O971 2.339 . S
Eu924 O972 2.563 . S
Eu924 O973 2.419 . S
Eu924 O975 2.380 . S
Eu924 O976 2.432 . S
Eu924 C988 2.848 . S
C925 C928 1.429 . S
C925 C929 1.411 . S
C925 N932 1.377 . S
C926 C928 1.420 . S
C926 C930 1.423 . S
C926 C938 1.392 . S
C927 C929 1.420 . S
C927 C930 1.351 . S
C927 H950 0.931 . S
C928 C925 1.429 . S
C928 C926 1.420 . S
C928 N936 1.362 . S
C929 C925 1.411 . S
C929 C927 1.420 . S
C929 C934 1.395 . S
C930 C926 1.423 . S
C930 C927 1.351 . S
C930 H942 0.930 . S
C931 C933 1.400 . S
C931 C934 1.386 . S
C931 H943 0.930 . S
N932 C925 1.377 . S
N932 C933 1.321 . S
N932 Eu935 2.609 . S
C933 C931 1.400 . S
C933 N932 1.321 . S
C933 H940 0.930 . S
C934 C929 1.395 . S
C934 C931 1.386 . S
C934 H953 0.930 . S
Eu935 N932 2.609 . S
Eu935 N936 2.657 . S
Eu935 O969 2.380 . S
Eu935 O970 2.432 . S
Eu935 O974 2.558 . S
Eu935 O975 2.612 . S
Eu935 O977 2.339 . S
Eu935 O978 2.563 . S
Eu935 O979 2.419 . S
Eu935 C999 2.848 . S
N936 C928 1.362 . S
N936 Eu935 2.657 . S
N936 C937 1.334 . S
C937 N936 1.334 . S
C937 C939 1.413 . S
C937 H944 0.929 . S
C938 C926 1.392 . S
C938 C939 1.367 . S
C938 H946 0.930 . S
C939 C937 1.413 . S
C939 C938 1.367 . S
C939 H941 0.930 . S
H940 C933 0.930 . S
H941 C939 0.930 . S
H942 C930 0.930 . S
H943 C931 0.930 . S
H944 C937 0.929 . S
H945 C959 0.930 . S
H946 C938 0.930 . S
H947 C965 0.930 . S
H948 C956 0.929 . S
H949 C963 0.930 . S
H950 C927 0.931 . S
H951 C957 0.930 . S
H952 C990 0.930 . S
H953 C934 0.930 . S
H954 C989 0.931 . S
N955 Eu924 2.657 . S
N955 C956 1.334 . S
N955 C960 1.362 . S
C956 H948 0.929 . S
C956 N955 1.334 . S
C956 C959 1.413 . S
C957 H951 0.930 . S
C957 C958 1.392 . S
C957 C959 1.367 . S
C958 C957 1.392 . S
C958 C960 1.420 . S
C958 C990 1.423 . S
C959 H945 0.930 . S
C959 C956 1.413 . S
C959 C957 1.367 . S
C960 N955 1.362 . S
C960 C958 1.420 . S
C960 C964 1.429 . S
H961 C966 0.930 . S
N962 Eu924 2.609 . S
N962 C964 1.377 . S
N962 C965 1.321 . S
C963 H949 0.930 . S
C963 C965 1.400 . S
C963 C966 1.386 . S
C964 C960 1.429 . S
C964 N962 1.377 . S
C964 C967 1.411 . S
C965 H947 0.930 . S
C965 N962 1.321 . S
C965 C963 1.400 . S
C966 H961 0.930 . S
C966 C963 1.386 . S
C966 C967 1.395 . S
C967 C964 1.411 . S
C967 C966 1.395 . S
C967 C989 1.420 . S
O968 Eu924 2.558 . S
O968 C988 1.257 . S
O969 Eu924 2.612 . S
O969 Eu935 2.380 . S
O969 C980 1.276 . S
O970 Eu935 2.432 . S
O970 C987 1.264 . S
O971 Eu924 2.339 . S
O971 C987 1.254 . S
O972 Eu924 2.563 . S
O972 C980 1.235 . S
O973 Eu924 2.419 . S
O973 C988 1.249 . S
O974 Eu935 2.558 . S
O974 C999 1.257 . S
O975 Eu924 2.380 . S
O975 Eu935 2.612 . S
O975 C991 1.276 . S
O976 Eu924 2.432 . S
O976 C998 1.264 . S
O977 Eu935 2.339 . S
O977 C998 1.254 . S
O978 Eu935 2.563 . S
O978 C991 1.235 . S
O979 Eu935 2.419 . S
O979 C999 1.249 . S
C980 O969 1.276 . S
C980 O972 1.235 . S
C981 C983 1.393 . S
C981 C985 1.395 . S
C981 C988 1.492 . S
C982 C983 1.392 . S
C982 C984 1.386 . S
C983 C981 1.393 . S
C983 C982 1.392 . S
C983 H1000 0.930 . S
C984 C982 1.386 . S
C984 C986 1.395 . S
C984 H1001 0.930 . S
C985 C981 1.395 . S
C985 C986 1.379 . S
C985 H1002 0.930 . S
C986 C984 1.395 . S
C986 C985 1.379 . S
C986 H1003 0.930 . S
C987 O970 1.264 . S
C987 O971 1.254 . S
C988 Eu924 2.848 . S
C988 O968 1.257 . S
C988 O973 1.249 . S
C988 C981 1.492 . S
C989 H954 0.931 . S
C989 C967 1.420 . S
C989 C990 1.351 . S
C990 H952 0.930 . S
C990 C958 1.423 . S
C990 C989 1.351 . S
C991 O975 1.276 . S
C991 O978 1.235 . S
C992 C993 1.393 . S
C992 C996 1.395 . S
C992 C999 1.492 . S
C993 C992 1.393 . S
C993 C994 1.392 . S
C993 H1004 0.930 . S
C994 C993 1.392 . S
C994 C995 1.386 . S
C995 C994 1.386 . S
C995 C997 1.395 . S
C995 H1005 0.930 . S
C996 C992 1.395 . S
C996 C997 1.379 . S
C996 H1006 0.930 . S
C997 C995 1.395 . S
C997 C996 1.379 . S
C997 H1007 0.930 . S
C998 O976 1.264 . S
C998 O977 1.254 . S
C999 Eu935 2.848 . S
C999 O974 1.257 . S
C999 O979 1.249 . S
C999 C992 1.492 . S
H1000 C983 0.930 . S
H1001 C984 0.930 . S
H1002 C985 0.930 . S
H1003 C986 0.930 . S
H1004 C993 0.930 . S
H1005 C995 0.930 . S
H1006 C996 0.930 . S
H1007 C997 0.930 . S
Eu1008 N1039 2.657 . S
Eu1008 N1046 2.609 . S
Eu1008 O1052 2.558 . S
Eu1008 O1053 2.612 1_554 S
Eu1008 O1055 2.339 . S
Eu1008 O1056 2.563 1_554 S
Eu1008 O1057 2.419 . S
Eu1008 O1059 2.380 . S
Eu1008 O1060 2.432 . S
Eu1008 C1072 2.848 . S
C1009 C1012 1.429 . S
C1009 C1013 1.411 . S
C1009 N1016 1.377 . S
C1010 C1012 1.420 . S
C1010 C1014 1.423 . S
C1010 C1022 1.392 . S
C1011 C1013 1.420 . S
C1011 C1014 1.351 . S
C1011 H1034 0.931 . S
C1012 C1009 1.429 . S
C1012 C1010 1.420 . S
C1012 N1020 1.362 . S
C1013 C1009 1.411 . S
C1013 C1011 1.420 . S
C1013 C1018 1.395 . S
C1014 C1010 1.423 . S
C1014 C1011 1.351 . S
C1014 H1026 0.930 . S
C1015 C1017 1.400 . S
C1015 C1018 1.386 . S
C1015 H1027 0.930 . S
N1016 C1009 1.377 . S
N1016 C1017 1.321 . S
N1016 Eu1019 2.609 1_556 S
C1017 C1015 1.400 . S
C1017 N1016 1.321 . S
C1017 H1024 0.930 . S
C1018 C1013 1.395 . S
C1018 C1015 1.386 . S
C1018 H1037 0.930 . S
Eu1019 N1016 2.609 1_554 S
Eu1019 N1020 2.657 1_554 S
Eu1019 O1053 2.380 1_554 S
Eu1019 O1054 2.432 . S
Eu1019 O1058 2.558 . S
Eu1019 O1059 2.612 . S
Eu1019 O1061 2.339 . S
Eu1019 O1062 2.563 . S
Eu1019 O1063 2.419 . S
Eu1019 C1083 2.848 . S
N1020 C1012 1.362 . S
N1020 Eu1019 2.657 1_556 S
N1020 C1021 1.334 . S
C1021 N1020 1.334 . S
C1021 C1023 1.413 . S
C1021 H1028 0.929 . S
C1022 C1010 1.392 . S
C1022 C1023 1.367 . S
C1022 H1030 0.930 . S
C1023 C1021 1.413 . S
C1023 C1022 1.367 . S
C1023 H1025 0.930 . S
H1024 C1017 0.930 . S
H1025 C1023 0.930 . S
H1026 C1014 0.930 . S
H1027 C1015 0.930 . S
H1028 C1021 0.929 . S
H1029 C1043 0.930 . S
H1030 C1022 0.930 . S
H1031 C1049 0.930 . S
H1032 C1040 0.929 . S
H1033 C1047 0.930 . S
H1034 C1011 0.931 . S
H1035 C1041 0.930 . S
H1036 C1074 0.930 . S
H1037 C1018 0.930 . S
H1038 C1073 0.931 . S
N1039 Eu1008 2.657 . S
N1039 C1040 1.334 . S
N1039 C1044 1.362 . S
C1040 H1032 0.929 . S
C1040 N1039 1.334 . S
C1040 C1043 1.413 . S
C1041 H1035 0.930 . S
C1041 C1042 1.392 . S
C1041 C1043 1.367 . S
C1042 C1041 1.392 . S
C1042 C1044 1.420 . S
C1042 C1074 1.423 . S
C1043 H1029 0.930 . S
C1043 C1040 1.413 . S
C1043 C1041 1.367 . S
C1044 N1039 1.362 . S
C1044 C1042 1.420 . S
C1044 C1048 1.429 . S
H1045 C1050 0.930 . S
N1046 Eu1008 2.609 . S
N1046 C1048 1.377 . S
N1046 C1049 1.321 . S
C1047 H1033 0.930 . S
C1047 C1049 1.400 . S
C1047 C1050 1.386 . S
C1048 C1044 1.429 . S
C1048 N1046 1.377 . S
C1048 C1051 1.411 . S
C1049 H1031 0.930 . S
C1049 N1046 1.321 . S
C1049 C1047 1.400 . S
C1050 H1045 0.930 . S
C1050 C1047 1.386 . S
C1050 C1051 1.395 . S
C1051 C1048 1.411 . S
C1051 C1050 1.395 . S
C1051 C1073 1.420 . S
O1052 Eu1008 2.558 . S
O1052 C1072 1.257 . S
O1053 Eu1008 2.612 1_556 S
O1053 Eu1019 2.380 1_556 S
O1053 C1064 1.276 . S
O1054 Eu1019 2.432 . S
O1054 C1071 1.264 . S
O1055 Eu1008 2.339 . S
O1055 C1071 1.254 . S
O1056 Eu1008 2.563 1_556 S
O1056 C1064 1.235 . S
O1057 Eu1008 2.419 . S
O1057 C1072 1.249 . S
O1058 Eu1019 2.558 . S
O1058 C1083 1.257 . S
O1059 Eu1008 2.380 . S
O1059 Eu1019 2.612 . S
O1059 C1075 1.276 . S
O1060 Eu1008 2.432 . S
O1060 C1082 1.264 . S
O1061 Eu1019 2.339 . S
O1061 C1082 1.254 . S
O1062 Eu1019 2.563 . S
O1062 C1075 1.235 . S
O1063 Eu1019 2.419 . S
O1063 C1083 1.249 . S
C1064 O1053 1.276 . S
C1064 O1056 1.235 . S
C1065 C1067 1.393 . S
C1065 C1069 1.395 . S
C1065 C1072 1.492 . S
C1066 C1067 1.392 1_556 S
C1066 C1068 1.386 1_556 S
C1067 C1065 1.393 . S
C1067 C1066 1.392 1_554 S
C1067 H1084 0.930 1_554 S
C1068 C1066 1.386 1_554 S
C1068 C1070 1.395 . S
C1068 H1085 0.915 1_554 S
C1069 C1065 1.395 . S
C1069 C1070 1.379 . S
C1069 H1086 0.930 . S
C1070 C1068 1.395 . S
C1070 C1069 1.379 . S
C1070 H1087 0.930 . S
C1071 O1054 1.264 . S
C1071 O1055 1.254 . S
C1072 Eu1008 2.848 . S
C1072 O1052 1.257 . S
C1072 O1057 1.249 . S
C1072 C1065 1.492 . S
C1073 H1038 0.931 . S
C1073 C1051 1.420 . S
C1073 C1074 1.351 . S
C1074 H1036 0.930 . S
C1074 C1042 1.423 . S
C1074 C1073 1.351 . S
C1075 O1059 1.276 . S
C1075 O1062 1.235 . S
C1076 C1077 1.393 . S
C1076 C1080 1.395 . S
C1076 C1083 1.492 . S
C1077 C1076 1.393 . S
C1077 C1078 1.392 . S
C1077 H1088 0.930 . S
C1078 C1077 1.392 . S
C1078 C1079 1.386 . S
C1079 C1078 1.386 . S
C1079 C1081 1.395 . S
C1079 H1089 0.930 . S
C1080 C1076 1.395 . S
C1080 C1081 1.379 . S
C1080 H1090 0.930 . S
C1081 C1079 1.395 . S
C1081 C1080 1.379 . S
C1081 H1091 0.930 . S
C1082 O1060 1.264 . S
C1082 O1061 1.254 . S
C1083 Eu1019 2.848 . S
C1083 O1058 1.257 . S
C1083 O1063 1.249 . S
C1083 C1076 1.492 . S
H1084 C1067 0.930 1_556 S
H1085 C1068 0.915 1_556 S
H1086 C1069 0.930 . S
H1087 C1070 0.930 . S
H1088 C1077 0.930 . S
H1089 C1079 0.930 . S
H1090 C1080 0.930 . S
H1091 C1081 0.930 . S
Eu1092 N1123 2.657 . S
Eu1092 N1130 2.609 . S
Eu1092 O1136 2.558 . S
Eu1092 O1137 2.612 . S
Eu1092 O1139 2.339 . S
Eu1092 O1140 2.563 . S
Eu1092 O1141 2.419 . S
Eu1092 O1143 2.380 . S
Eu1092 O1144 2.432 . S
Eu1092 C1156 2.848 . S
C1093 C1096 1.429 . S
C1093 C1097 1.411 . S
C1093 N1100 1.377 . S
C1094 C1096 1.420 . S
C1094 C1098 1.423 . S
C1094 C1106 1.392 . S
C1095 C1097 1.420 . S
C1095 C1098 1.351 . S
C1095 H1118 0.931 . S
C1096 C1093 1.429 . S
C1096 C1094 1.420 . S
C1096 N1104 1.362 . S
C1097 C1093 1.411 . S
C1097 C1095 1.420 . S
C1097 C1102 1.395 . S
C1098 C1094 1.423 . S
C1098 C1095 1.351 . S
C1098 H1110 0.930 . S
C1099 C1101 1.400 . S
C1099 C1102 1.386 . S
C1099 H1111 0.930 . S
N1100 C1093 1.377 . S
N1100 C1101 1.321 . S
N1100 Eu1103 2.609 . S
C1101 C1099 1.400 . S
C1101 N1100 1.321 . S
C1101 H1108 0.930 . S
C1102 C1097 1.395 . S
C1102 C1099 1.386 . S
C1102 H1121 0.930 . S
Eu1103 N1100 2.609 . S
Eu1103 N1104 2.657 . S
Eu1103 O1137 2.380 . S
Eu1103 O1138 2.432 . S
Eu1103 O1142 2.558 . S
Eu1103 O1143 2.612 . S
Eu1103 O1145 2.339 . S
Eu1103 O1146 2.563 . S
Eu1103 O1147 2.419 . S
Eu1103 C1167 2.848 . S
N1104 C1096 1.362 . S
N1104 Eu1103 2.657 . S
N1104 C1105 1.334 . S
C1105 N1104 1.334 . S
C1105 C1107 1.413 . S
C1105 H1112 0.929 . S
C1106 C1094 1.392 . S
C1106 C1107 1.367 . S
C1106 H1114 0.930 . S
C1107 C1105 1.413 . S
C1107 C1106 1.367 . S
C1107 H1109 0.930 . S
H1108 C1101 0.930 . S
H1109 C1107 0.930 . S
H1110 C1098 0.930 . S
H1111 C1099 0.930 . S
H1112 C1105 0.929 . S
H1113 C1127 0.930 . S
H1114 C1106 0.930 . S
H1115 C1133 0.930 . S
H1116 C1124 0.929 . S
H1117 C1131 0.930 . S
H1118 C1095 0.931 . S
H1119 C1125 0.930 . S
H1120 C1158 0.930 . S
H1121 C1102 0.930 . S
H1122 C1157 0.931 . S
N1123 Eu1092 2.657 . S
N1123 C1124 1.334 . S
N1123 C1128 1.362 . S
C1124 H1116 0.929 . S
C1124 N1123 1.334 . S
C1124 C1127 1.413 . S
C1125 H1119 0.930 . S
C1125 C1126 1.392 . S
C1125 C1127 1.367 . S
C1126 C1125 1.392 . S
C1126 C1128 1.420 . S
C1126 C1158 1.423 . S
C1127 H1113 0.930 . S
C1127 C1124 1.413 . S
C1127 C1125 1.367 . S
C1128 N1123 1.362 . S
C1128 C1126 1.420 . S
C1128 C1132 1.429 . S
H1129 C1134 0.930 . S
N1130 Eu1092 2.609 . S
N1130 C1132 1.377 . S
N1130 C1133 1.321 . S
C1131 H1117 0.930 . S
C1131 C1133 1.400 . S
C1131 C1134 1.386 . S
C1132 C1128 1.429 . S
C1132 N1130 1.377 . S
C1132 C1135 1.411 . S
C1133 H1115 0.930 . S
C1133 N1130 1.321 . S
C1133 C1131 1.400 . S
C1134 H1129 0.930 . S
C1134 C1131 1.386 . S
C1134 C1135 1.395 . S
C1135 C1132 1.411 . S
C1135 C1134 1.395 . S
C1135 C1157 1.420 . S
O1136 Eu1092 2.558 . S
O1136 C1156 1.257 . S
O1137 Eu1092 2.612 . S
O1137 Eu1103 2.380 . S
O1137 C1148 1.276 . S
O1138 Eu1103 2.432 . S
O1138 C1155 1.264 . S
O1139 Eu1092 2.339 . S
O1139 C1155 1.254 . S
O1140 Eu1092 2.563 . S
O1140 C1148 1.235 . S
O1141 Eu1092 2.419 . S
O1141 C1156 1.249 . S
O1142 Eu1103 2.558 . S
O1142 C1167 1.257 . S
O1143 Eu1092 2.380 . S
O1143 Eu1103 2.612 . S
O1143 C1159 1.276 . S
O1144 Eu1092 2.432 . S
O1144 C1166 1.264 . S
O1145 Eu1103 2.339 . S
O1145 C1166 1.254 . S
O1146 Eu1103 2.563 . S
O1146 C1159 1.235 . S
O1147 Eu1103 2.419 . S
O1147 C1167 1.249 . S
C1148 O1137 1.276 . S
C1148 O1140 1.235 . S
C1149 C1151 1.393 . S
C1149 C1153 1.395 . S
C1149 C1156 1.492 . S
C1150 C1151 1.392 . S
C1150 C1152 1.386 . S
C1151 C1149 1.393 . S
C1151 C1150 1.392 . S
C1151 H1168 0.930 . S
C1152 C1150 1.386 . S
C1152 C1154 1.395 . S
C1152 H1169 0.930 . S
C1153 C1149 1.395 . S
C1153 C1154 1.379 . S
C1153 H1170 0.930 . S
C1154 C1152 1.395 . S
C1154 C1153 1.379 . S
C1154 H1171 0.930 . S
C1155 O1138 1.264 . S
C1155 O1139 1.254 . S
C1156 Eu1092 2.848 . S
C1156 O1136 1.257 . S
C1156 O1141 1.249 . S
C1156 C1149 1.492 . S
C1157 H1122 0.931 . S
C1157 C1135 1.420 . S
C1157 C1158 1.351 . S
C1158 H1120 0.930 . S
C1158 C1126 1.423 . S
C1158 C1157 1.351 . S
C1159 O1143 1.276 . S
C1159 O1146 1.235 . S
C1160 C1161 1.393 . S
C1160 C1164 1.395 . S
C1160 C1167 1.492 . S
C1161 C1160 1.393 . S
C1161 C1162 1.392 . S
C1161 H1172 0.930 . S
C1162 C1161 1.392 . S
C1162 C1163 1.386 . S
C1163 C1162 1.386 . S
C1163 C1165 1.395 . S
C1163 H1173 0.930 . S
C1164 C1160 1.395 . S
C1164 C1165 1.379 . S
C1164 H1174 0.930 . S
C1165 C1163 1.395 . S
C1165 C1164 1.379 . S
C1165 H1175 0.930 . S
C1166 O1144 1.264 . S
C1166 O1145 1.254 . S
C1167 Eu1103 2.848 . S
C1167 O1142 1.257 . S
C1167 O1147 1.249 . S
C1167 C1160 1.492 . S
H1168 C1151 0.930 . S
H1169 C1152 0.930 . S
H1170 C1153 0.930 . S
H1171 C1154 0.930 . S
H1172 C1161 0.930 . S
H1173 C1163 0.930 . S
H1174 C1164 0.930 . S
H1175 C1165 0.930 . S
Eu1176 N1207 2.657 . S
Eu1176 N1214 2.609 . S
Eu1176 O1220 2.558 . S
Eu1176 O1221 2.612 . S
Eu1176 O1223 2.339 . S
Eu1176 O1224 2.563 . S
Eu1176 O1225 2.419 . S
Eu1176 O1227 2.380 . S
Eu1176 O1228 2.432 . S
Eu1176 C1240 2.848 . S
C1177 C1180 1.428 1_455 S
C1177 C1181 1.414 1_455 S
C1177 N1184 1.374 . S
C1178 C1180 1.420 . S
C1178 C1182 1.423 . S
C1178 C1190 1.392 . S
C1179 C1181 1.420 . S
C1179 C1182 1.351 . S
C1179 H1202 0.931 . S
C1180 C1177 1.428 1_655 S
C1180 C1178 1.420 . S
C1180 N1188 1.362 1_655 S
C1181 C1177 1.414 1_655 S
C1181 C1179 1.420 . S
C1181 C1186 1.395 . S
C1182 C1178 1.423 . S
C1182 C1179 1.351 . S
C1182 H1194 0.930 . S
C1183 C1185 1.400 . S
C1183 C1186 1.386 1_455 S
C1183 H1195 0.930 . S
N1184 C1177 1.374 . S
N1184 C1185 1.321 . S
N1184 Eu1187 2.609 . S
C1185 C1183 1.400 . S
C1185 N1184 1.321 . S
C1185 H1192 0.930 . S
C1186 C1181 1.395 . S
C1186 C1183 1.386 1_655 S
C1186 H1205 0.930 . S
Eu1187 N1184 2.609 . S
Eu1187 N1188 2.657 . S
Eu1187 O1221 2.380 . S
Eu1187 O1222 2.432 . S
Eu1187 O1226 2.558 . S
Eu1187 O1227 2.612 . S
Eu1187 O1229 2.339 . S
Eu1187 O1230 2.563 . S
Eu1187 O1231 2.419 . S
Eu1187 C1251 2.848 . S
N1188 C1180 1.362 1_455 S
N1188 Eu1187 2.657 . S
N1188 C1189 1.334 . S
C1189 N1188 1.334 . S
C1189 C1191 1.413 1_455 S
C1189 H1196 0.929 . S
C1190 C1178 1.392 . S
C1190 C1191 1.367 . S
C1190 H1198 0.930 . S
C1191 C1189 1.413 1_655 S
C1191 C1190 1.367 . S
C1191 H1193 0.930 . S
H1192 C1185 0.930 . S
H1193 C1191 0.930 . S
H1194 C1182 0.930 . S
H1195 C1183 0.930 . S
H1196 C1189 0.929 . S
H1197 C1211 0.930 . S
H1198 C1190 0.930 . S
H1199 C1217 0.930 . S
H1200 C1208 0.929 . S
H1201 C1215 0.930 . S
H1202 C1179 0.931 . S
H1203 C1209 0.930 . S
H1204 C1242 0.930 . S
H1205 C1186 0.930 . S
H1206 C1241 0.931 . S
N1207 Eu1176 2.657 . S
N1207 C1208 1.334 . S
N1207 C1212 1.362 . S
C1208 H1200 0.929 . S
C1208 N1207 1.334 . S
C1208 C1211 1.413 . S
C1209 H1203 0.930 . S
C1209 C1210 1.392 . S
C1209 C1211 1.367 . S
C1210 C1209 1.392 . S
C1210 C1212 1.420 . S
C1210 C1242 1.423 . S
C1211 H1197 0.930 . S
C1211 C1208 1.413 . S
C1211 C1209 1.367 . S
C1212 N1207 1.362 . S
C1212 C1210 1.420 . S
C1212 C1216 1.429 . S
H1213 C1218 0.930 . S
N1214 Eu1176 2.609 . S
N1214 C1216 1.377 . S
N1214 C1217 1.321 . S
C1215 H1201 0.930 . S
C1215 C1217 1.400 . S
C1215 C1218 1.386 . S
C1216 C1212 1.429 . S
C1216 N1214 1.377 . S
C1216 C1219 1.411 . S
C1217 H1199 0.930 . S
C1217 N1214 1.321 . S
C1217 C1215 1.400 . S
C1218 H1213 0.930 . S
C1218 C1215 1.386 . S
C1218 C1219 1.395 . S
C1219 C1216 1.411 . S
C1219 C1218 1.395 . S
C1219 C1241 1.420 . S
O1220 Eu1176 2.558 . S
O1220 C1240 1.257 . S
O1221 Eu1176 2.612 . S
O1221 Eu1187 2.380 . S
O1221 C1232 1.276 . S
O1222 Eu1187 2.432 . S
O1222 C1239 1.264 . S
O1223 Eu1176 2.339 . S
O1223 C1239 1.254 . S
O1224 Eu1176 2.563 . S
O1224 C1232 1.235 . S
O1225 Eu1176 2.419 . S
O1225 C1240 1.249 . S
O1226 Eu1187 2.558 . S
O1226 C1251 1.257 . S
O1227 Eu1176 2.380 . S
O1227 Eu1187 2.612 . S
O1227 C1243 1.276 . S
O1228 Eu1176 2.432 . S
O1228 C1250 1.264 . S
O1229 Eu1187 2.339 . S
O1229 C1250 1.254 . S
O1230 Eu1187 2.563 . S
O1230 C1243 1.235 . S
O1231 Eu1187 2.419 . S
O1231 C1251 1.249 . S
C1232 O1221 1.276 . S
C1232 O1224 1.235 . S
C1233 C1235 1.393 . S
C1233 C1237 1.395 . S
C1233 C1240 1.492 . S
C1234 C1235 1.392 . S
C1234 C1236 1.386 . S
C1235 C1233 1.393 . S
C1235 C1234 1.392 . S
C1235 H1252 0.930 . S
C1236 C1234 1.386 . S
C1236 C1238 1.395 . S
C1236 H1253 0.930 . S
C1237 C1233 1.395 . S
C1237 C1238 1.379 . S
C1237 H1254 0.930 . S
C1238 C1236 1.395 . S
C1238 C1237 1.379 . S
C1238 H1255 0.930 . S
C1239 O1222 1.264 . S
C1239 O1223 1.254 . S
C1240 Eu1176 2.848 . S
C1240 O1220 1.257 . S
C1240 O1225 1.249 . S
C1240 C1233 1.492 . S
C1241 H1206 0.931 . S
C1241 C1219 1.420 . S
C1241 C1242 1.351 . S
C1242 H1204 0.930 . S
C1242 C1210 1.423 . S
C1242 C1241 1.351 . S
C1243 O1227 1.276 . S
C1243 O1230 1.235 . S
C1244 C1245 1.393 . S
C1244 C1248 1.395 . S
C1244 C1251 1.492 . S
C1245 C1244 1.393 . S
C1245 C1246 1.392 . S
C1245 H1256 0.930 . S
C1246 C1245 1.392 . S
C1246 C1247 1.386 . S
C1247 C1246 1.386 . S
C1247 C1249 1.395 . S
C1247 H1257 0.930 . S
C1248 C1244 1.395 . S
C1248 C1249 1.379 . S
C1248 H1258 0.930 . S
C1249 C1247 1.395 . S
C1249 C1248 1.379 . S
C1249 H1259 0.930 . S
C1250 O1228 1.264 . S
C1250 O1229 1.254 . S
C1251 Eu1187 2.848 . S
C1251 O1226 1.257 . S
C1251 O1231 1.249 . S
C1251 C1244 1.492 . S
H1252 C1235 0.930 . S
H1253 C1236 0.930 . S
H1254 C1237 0.930 . S
H1255 C1238 0.930 . S
H1256 C1245 0.930 . S
H1257 C1247 0.930 . S
H1258 C1248 0.930 . S
H1259 C1249 0.930 . S
Eu1260 N1291 2.657 . S
Eu1260 N1298 2.609 . S
Eu1260 O1304 2.558 . S
Eu1260 O1305 2.612 . S
Eu1260 O1307 2.339 . S
Eu1260 O1308 2.563 . S
Eu1260 O1309 2.419 . S
Eu1260 O1311 2.380 . S
Eu1260 O1312 2.432 . S
Eu1260 C1324 2.848 . S
C1261 C1264 1.429 . S
C1261 C1265 1.411 . S
C1261 N1268 1.377 . S
C1262 C1264 1.420 . S
C1262 C1266 1.423 . S
C1262 C1274 1.392 . S
C1263 C1265 1.420 . S
C1263 C1266 1.351 . S
C1263 H1286 0.931 . S
C1264 C1261 1.429 . S
C1264 C1262 1.420 . S
C1264 N1272 1.362 . S
C1265 C1261 1.411 . S
C1265 C1263 1.420 . S
C1265 C1270 1.395 . S
C1266 C1262 1.423 . S
C1266 C1263 1.351 . S
C1266 H1278 0.930 . S
C1267 C1269 1.400 . S
C1267 C1270 1.386 . S
C1267 H1279 0.930 . S
N1268 C1261 1.377 . S
N1268 C1269 1.321 . S
N1268 Eu1271 2.609 . S
C1269 C1267 1.400 . S
C1269 N1268 1.321 . S
C1269 H1276 0.930 . S
C1270 C1265 1.395 . S
C1270 C1267 1.386 . S
C1270 H1289 0.930 . S
Eu1271 N1268 2.609 . S
Eu1271 N1272 2.657 . S
Eu1271 O1305 2.380 . S
Eu1271 O1306 2.432 . S
Eu1271 O1310 2.558 . S
Eu1271 O1311 2.612 . S
Eu1271 O1313 2.339 . S
Eu1271 O1314 2.563 . S
Eu1271 O1315 2.419 . S
Eu1271 C1335 2.848 . S
N1272 C1264 1.362 . S
N1272 Eu1271 2.657 . S
N1272 C1273 1.334 . S
C1273 N1272 1.334 . S
C1273 C1275 1.413 . S
C1273 H1280 0.929 . S
C1274 C1262 1.392 . S
C1274 C1275 1.367 . S
C1274 H1282 0.930 . S
C1275 C1273 1.413 . S
C1275 C1274 1.367 . S
C1275 H1277 0.930 . S
H1276 C1269 0.930 . S
H1277 C1275 0.930 . S
H1278 C1266 0.930 . S
H1279 C1267 0.930 . S
H1280 C1273 0.929 . S
H1281 C1295 0.930 . S
H1282 C1274 0.930 . S
H1283 C1301 0.930 . S
H1284 C1292 0.929 . S
H1285 C1299 0.930 . S
H1286 C1263 0.931 . S
H1287 C1293 0.930 . S
H1288 C1326 0.930 . S
H1289 C1270 0.930 . S
H1290 C1325 0.931 . S
N1291 Eu1260 2.657 . S
N1291 C1292 1.334 . S
N1291 C1296 1.362 . S
C1292 H1284 0.929 . S
C1292 N1291 1.334 . S
C1292 C1295 1.413 . S
C1293 H1287 0.930 . S
C1293 C1294 1.392 . S
C1293 C1295 1.367 . S
C1294 C1293 1.392 . S
C1294 C1296 1.420 . S
C1294 C1326 1.423 . S
C1295 H1281 0.930 . S
C1295 C1292 1.413 . S
C1295 C1293 1.367 . S
C1296 N1291 1.362 . S
C1296 C1294 1.420 . S
C1296 C1300 1.429 . S
H1297 C1302 0.930 . S
N1298 Eu1260 2.609 . S
N1298 C1300 1.377 . S
N1298 C1301 1.321 . S
C1299 H1285 0.930 . S
C1299 C1301 1.400 . S
C1299 C1302 1.386 . S
C1300 C1296 1.429 . S
C1300 N1298 1.377 . S
C1300 C1303 1.411 . S
C1301 H1283 0.930 . S
C1301 N1298 1.321 . S
C1301 C1299 1.400 . S
C1302 H1297 0.930 . S
C1302 C1299 1.386 . S
C1302 C1303 1.395 . S
C1303 C1300 1.411 . S
C1303 C1302 1.395 . S
C1303 C1325 1.420 . S
O1304 Eu1260 2.558 . S
O1304 C1324 1.257 . S
O1305 Eu1260 2.612 . S
O1305 Eu1271 2.380 . S
O1305 C1316 1.276 . S
O1306 Eu1271 2.432 . S
O1306 C1323 1.264 . S
O1307 Eu1260 2.339 . S
O1307 C1323 1.254 . S
O1308 Eu1260 2.563 . S
O1308 C1316 1.235 . S
O1309 Eu1260 2.419 . S
O1309 C1324 1.249 . S
O1310 Eu1271 2.558 . S
O1310 C1335 1.257 . S
O1311 Eu1260 2.380 . S
O1311 Eu1271 2.612 . S
O1311 C1327 1.276 . S
O1312 Eu1260 2.432 . S
O1312 C1334 1.264 . S
O1313 Eu1271 2.339 . S
O1313 C1334 1.254 . S
O1314 Eu1271 2.563 . S
O1314 C1327 1.235 . S
O1315 Eu1271 2.419 . S
O1315 C1335 1.249 . S
C1316 O1305 1.276 . S
C1316 O1308 1.235 . S
C1317 C1319 1.393 . S
C1317 C1321 1.395 . S
C1317 C1324 1.492 . S
C1318 C1319 1.392 . S
C1318 C1320 1.386 . S
C1319 C1317 1.393 . S
C1319 C1318 1.392 . S
C1319 H1336 0.930 . S
C1320 C1318 1.386 . S
C1320 C1322 1.395 . S
C1320 H1337 0.930 . S
C1321 C1317 1.395 . S
C1321 C1322 1.379 . S
C1321 H1338 0.930 . S
C1322 C1320 1.395 . S
C1322 C1321 1.379 . S
C1322 H1339 0.930 . S
C1323 O1306 1.264 . S
C1323 O1307 1.254 . S
C1324 Eu1260 2.848 . S
C1324 O1304 1.257 . S
C1324 O1309 1.249 . S
C1324 C1317 1.492 . S
C1325 H1290 0.931 . S
C1325 C1303 1.420 . S
C1325 C1326 1.351 . S
C1326 H1288 0.930 . S
C1326 C1294 1.423 . S
C1326 C1325 1.351 . S
C1327 O1311 1.276 . S
C1327 O1314 1.235 . S
C1328 C1329 1.393 . S
C1328 C1332 1.395 . S
C1328 C1335 1.492 . S
C1329 C1328 1.393 . S
C1329 C1330 1.392 . S
C1329 H1340 0.930 . S
C1330 C1329 1.392 . S
C1330 C1331 1.386 . S
C1331 C1330 1.386 . S
C1331 C1333 1.395 . S
C1331 H1341 0.930 . S
C1332 C1328 1.395 . S
C1332 C1333 1.379 . S
C1332 H1342 0.930 . S
C1333 C1331 1.395 . S
C1333 C1332 1.379 . S
C1333 H1343 0.930 . S
C1334 O1312 1.264 . S
C1334 O1313 1.254 . S
C1335 Eu1271 2.848 . S
C1335 O1310 1.257 . S
C1335 O1315 1.249 . S
C1335 C1328 1.492 . S
H1336 C1319 0.930 . S
H1337 C1320 0.930 . S
H1338 C1321 0.930 . S
H1339 C1322 0.930 . S
H1340 C1329 0.930 . S
H1341 C1331 0.930 . S
H1342 C1332 0.930 . S
H1343 C1333 0.930 . S
Eu1344 N1375 2.657 . S
Eu1344 N1382 2.609 . S
Eu1344 O1388 2.558 . S
Eu1344 O1389 2.612 . S
Eu1344 O1391 2.339 . S
Eu1344 O1392 2.563 . S
Eu1344 O1393 2.419 . S
Eu1344 O1395 2.380 . S
Eu1344 O1396 2.432 . S
Eu1344 C1408 2.848 . S
C1345 C1348 1.429 . S
C1345 C1349 1.411 . S
C1345 N1352 1.377 . S
C1346 C1348 1.420 . S
C1346 C1350 1.423 . S
C1346 C1358 1.392 . S
C1347 C1349 1.420 . S
C1347 C1350 1.351 . S
C1347 H1370 0.931 . S
C1348 C1345 1.429 . S
C1348 C1346 1.420 . S
C1348 N1356 1.362 . S
C1349 C1345 1.411 . S
C1349 C1347 1.420 . S
C1349 C1354 1.395 . S
C1350 C1346 1.423 . S
C1350 C1347 1.351 . S
C1350 H1362 0.930 . S
C1351 C1353 1.400 . S
C1351 C1354 1.386 . S
C1351 H1363 0.930 . S
N1352 C1345 1.377 . S
N1352 C1353 1.321 . S
N1352 Eu1355 2.609 . S
C1353 C1351 1.400 . S
C1353 N1352 1.321 . S
C1353 H1360 0.930 . S
C1354 C1349 1.395 . S
C1354 C1351 1.386 . S
C1354 H1373 0.930 . S
Eu1355 N1352 2.609 . S
Eu1355 N1356 2.657 . S
Eu1355 O1389 2.380 . S
Eu1355 O1390 2.432 . S
Eu1355 O1394 2.558 . S
Eu1355 O1395 2.612 . S
Eu1355 O1397 2.339 . S
Eu1355 O1398 2.563 . S
Eu1355 O1399 2.419 . S
Eu1355 C1419 2.848 . S
N1356 C1348 1.362 . S
N1356 Eu1355 2.657 . S
N1356 C1357 1.334 . S
C1357 N1356 1.334 . S
C1357 C1359 1.413 . S
C1357 H1364 0.929 . S
C1358 C1346 1.392 . S
C1358 C1359 1.367 . S
C1358 H1366 0.930 . S
C1359 C1357 1.413 . S
C1359 C1358 1.367 . S
C1359 H1361 0.930 . S
H1360 C1353 0.930 . S
H1361 C1359 0.930 . S
H1362 C1350 0.930 . S
H1363 C1351 0.930 . S
H1364 C1357 0.929 . S
H1365 C1379 0.930 . S
H1366 C1358 0.930 . S
H1367 C1385 0.930 . S
H1368 C1376 0.929 . S
H1369 C1383 0.930 . S
H1370 C1347 0.931 . S
H1371 C1377 0.930 . S
H1372 C1410 0.930 . S
H1373 C1354 0.930 . S
H1374 C1409 0.931 . S
N1375 Eu1344 2.657 . S
N1375 C1376 1.334 . S
N1375 C1380 1.362 . S
C1376 H1368 0.929 . S
C1376 N1375 1.334 . S
C1376 C1379 1.413 . S
C1377 H1371 0.930 . S
C1377 C1378 1.392 . S
C1377 C1379 1.367 . S
C1378 C1377 1.392 . S
C1378 C1380 1.420 . S
C1378 C1410 1.423 . S
C1379 H1365 0.930 . S
C1379 C1376 1.413 . S
C1379 C1377 1.367 . S
C1380 N1375 1.362 . S
C1380 C1378 1.420 . S
C1380 C1384 1.429 . S
H1381 C1386 0.930 . S
N1382 Eu1344 2.609 . S
N1382 C1384 1.377 . S
N1382 C1385 1.321 . S
C1383 H1369 0.930 . S
C1383 C1385 1.400 . S
C1383 C1386 1.386 . S
C1384 C1380 1.429 . S
C1384 N1382 1.377 . S
C1384 C1387 1.411 . S
C1385 H1367 0.930 . S
C1385 N1382 1.321 . S
C1385 C1383 1.400 . S
C1386 H1381 0.930 . S
C1386 C1383 1.386 . S
C1386 C1387 1.395 . S
C1387 C1384 1.411 . S
C1387 C1386 1.395 . S
C1387 C1409 1.420 . S
O1388 Eu1344 2.558 . S
O1388 C1408 1.257 . S
O1389 Eu1344 2.612 . S
O1389 Eu1355 2.380 . S
O1389 C1400 1.276 . S
O1390 Eu1355 2.432 . S
O1390 C1407 1.264 . S
O1391 Eu1344 2.339 . S
O1391 C1407 1.254 . S
O1392 Eu1344 2.563 . S
O1392 C1400 1.235 . S
O1393 Eu1344 2.419 . S
O1393 C1408 1.249 . S
O1394 Eu1355 2.558 . S
O1394 C1419 1.257 . S
O1395 Eu1344 2.380 . S
O1395 Eu1355 2.612 . S
O1395 C1411 1.276 . S
O1396 Eu1344 2.432 . S
O1396 C1418 1.264 . S
O1397 Eu1355 2.339 . S
O1397 C1418 1.254 . S
O1398 Eu1355 2.563 . S
O1398 C1411 1.235 . S
O1399 Eu1355 2.419 . S
O1399 C1419 1.249 . S
C1400 O1389 1.276 . S
C1400 O1392 1.235 . S
C1401 C1403 1.393 . S
C1401 C1405 1.395 . S
C1401 C1408 1.492 . S
C1402 C1403 1.392 . S
C1402 C1404 1.386 . S
C1403 C1401 1.393 . S
C1403 C1402 1.392 . S
C1403 H1420 0.930 . S
C1404 C1402 1.386 . S
C1404 C1406 1.395 . S
C1404 H1421 0.930 . S
C1405 C1401 1.395 . S
C1405 C1406 1.379 . S
C1405 H1422 0.930 . S
C1406 C1404 1.395 . S
C1406 C1405 1.379 . S
C1406 H1423 0.930 . S
C1407 O1390 1.264 . S
C1407 O1391 1.254 . S
C1408 Eu1344 2.848 . S
C1408 O1388 1.257 . S
C1408 O1393 1.249 . S
C1408 C1401 1.492 . S
C1409 H1374 0.931 . S
C1409 C1387 1.420 . S
C1409 C1410 1.351 . S
C1410 H1372 0.930 . S
C1410 C1378 1.423 . S
C1410 C1409 1.351 . S
C1411 O1395 1.276 . S
C1411 O1398 1.235 . S
C1412 C1413 1.393 . S
C1412 C1416 1.395 . S
C1412 C1419 1.492 . S
C1413 C1412 1.393 . S
C1413 C1414 1.392 . S
C1413 H1424 0.930 . S
C1414 C1413 1.392 . S
C1414 C1415 1.386 . S
C1415 C1414 1.386 . S
C1415 C1417 1.395 . S
C1415 H1425 0.930 . S
C1416 C1412 1.395 . S
C1416 C1417 1.379 . S
C1416 H1426 0.930 . S
C1417 C1415 1.395 . S
C1417 C1416 1.379 . S
C1417 H1427 0.930 . S
C1418 O1396 1.264 . S
C1418 O1397 1.254 . S
C1419 Eu1355 2.848 . S
C1419 O1394 1.257 . S
C1419 O1399 1.249 . S
C1419 C1412 1.492 . S
H1420 C1403 0.930 . S
H1421 C1404 0.930 . S
H1422 C1405 0.930 . S
H1423 C1406 0.930 . S
H1424 C1413 0.930 . S
H1425 C1415 0.930 . S
H1426 C1416 0.930 . S
H1427 C1417 0.930 . S
Eu1428 N1459 2.657 . S
Eu1428 N1466 2.609 . S
Eu1428 O1472 2.558 . S
Eu1428 O1473 2.612 . S
Eu1428 O1475 2.339 . S
Eu1428 O1476 2.563 . S
Eu1428 O1477 2.419 . S
Eu1428 O1479 2.380 . S
Eu1428 O1480 2.432 . S
Eu1428 C1492 2.848 . S
C1429 C1432 1.429 . S
C1429 C1433 1.411 . S
C1429 N1436 1.377 . S
C1430 C1432 1.420 . S
C1430 C1434 1.423 . S
C1430 C1442 1.392 . S
C1431 C1433 1.420 . S
C1431 C1434 1.351 . S
C1431 H1454 0.931 . S
C1432 C1429 1.429 . S
C1432 C1430 1.420 . S
C1432 N1440 1.362 . S
C1433 C1429 1.411 . S
C1433 C1431 1.420 . S
C1433 C1438 1.395 . S
C1434 C1430 1.423 . S
C1434 C1431 1.351 . S
C1434 H1446 0.930 . S
C1435 C1437 1.400 . S
C1435 C1438 1.386 . S
C1435 H1447 0.930 . S
N1436 C1429 1.377 . S
N1436 C1437 1.321 . S
N1436 Eu1439 2.609 . S
C1437 C1435 1.400 . S
C1437 N1436 1.321 . S
C1437 H1444 0.930 . S
C1438 C1433 1.395 . S
C1438 C1435 1.386 . S
C1438 H1457 0.930 . S
Eu1439 N1436 2.609 . S
Eu1439 N1440 2.657 . S
Eu1439 O1473 2.380 . S
Eu1439 O1474 2.432 . S
Eu1439 O1478 2.558 . S
Eu1439 O1479 2.612 . S
Eu1439 O1481 2.339 . S
Eu1439 O1482 2.563 . S
Eu1439 O1483 2.419 . S
Eu1439 C1503 2.848 . S
N1440 C1432 1.362 . S
N1440 Eu1439 2.657 . S
N1440 C1441 1.334 . S
C1441 N1440 1.334 . S
C1441 C1443 1.413 . S
C1441 H1448 0.929 . S
C1442 C1430 1.392 . S
C1442 C1443 1.367 . S
C1442 H1450 0.930 . S
C1443 C1441 1.413 . S
C1443 C1442 1.367 . S
C1443 H1445 0.930 . S
H1444 C1437 0.930 . S
H1445 C1443 0.930 . S
H1446 C1434 0.930 . S
H1447 C1435 0.930 . S
H1448 C1441 0.929 . S
H1449 C1463 0.930 . S
H1450 C1442 0.930 . S
H1451 C1469 0.930 . S
H1452 C1460 0.929 . S
H1453 C1467 0.930 . S
H1454 C1431 0.931 . S
H1455 C1461 0.930 . S
H1456 C1494 0.930 . S
H1457 C1438 0.930 . S
H1458 C1493 0.931 . S
N1459 Eu1428 2.657 . S
N1459 C1460 1.334 . S
N1459 C1464 1.362 . S
C1460 H1452 0.929 . S
C1460 N1459 1.334 . S
C1460 C1463 1.413 . S
C1461 H1455 0.930 . S
C1461 C1462 1.392 . S
C1461 C1463 1.367 . S
C1462 C1461 1.392 . S
C1462 C1464 1.420 . S
C1462 C1494 1.423 . S
C1463 H1449 0.930 . S
C1463 C1460 1.413 . S
C1463 C1461 1.367 . S
C1464 N1459 1.362 . S
C1464 C1462 1.420 . S
C1464 C1468 1.429 . S
H1465 C1470 0.930 . S
N1466 Eu1428 2.609 . S
N1466 C1468 1.377 . S
N1466 C1469 1.321 . S
C1467 H1453 0.930 . S
C1467 C1469 1.400 . S
C1467 C1470 1.386 . S
C1468 C1464 1.429 . S
C1468 N1466 1.377 . S
C1468 C1471 1.411 . S
C1469 H1451 0.930 . S
C1469 N1466 1.321 . S
C1469 C1467 1.400 . S
C1470 H1465 0.930 . S
C1470 C1467 1.386 . S
C1470 C1471 1.395 . S
C1471 C1468 1.411 . S
C1471 C1470 1.395 . S
C1471 C1493 1.420 . S
O1472 Eu1428 2.558 . S
O1472 C1492 1.257 . S
O1473 Eu1428 2.612 . S
O1473 Eu1439 2.380 . S
O1473 C1484 1.276 . S
O1474 Eu1439 2.432 . S
O1474 C1491 1.264 . S
O1475 Eu1428 2.339 . S
O1475 C1491 1.254 . S
O1476 Eu1428 2.563 . S
O1476 C1484 1.235 . S
O1477 Eu1428 2.419 . S
O1477 C1492 1.249 . S
O1478 Eu1439 2.558 . S
O1478 C1503 1.257 . S
O1479 Eu1428 2.380 . S
O1479 Eu1439 2.612 . S
O1479 C1495 1.276 . S
O1480 Eu1428 2.432 . S
O1480 C1502 1.264 . S
O1481 Eu1439 2.339 . S
O1481 C1502 1.254 . S
O1482 Eu1439 2.563 . S
O1482 C1495 1.235 . S
O1483 Eu1439 2.419 . S
O1483 C1503 1.249 . S
C1484 O1473 1.276 . S
C1484 O1476 1.235 . S
C1485 C1487 1.393 . S
C1485 C1489 1.395 . S
C1485 C1492 1.492 . S
C1486 C1487 1.392 . S
C1486 C1488 1.386 . S
C1487 C1485 1.393 . S
C1487 C1486 1.392 . S
C1487 H1504 0.930 . S
C1488 C1486 1.386 . S
C1488 C1490 1.395 . S
C1488 H1505 0.930 . S
C1489 C1485 1.395 . S
C1489 C1490 1.379 . S
C1489 H1506 0.930 . S
C1490 C1488 1.395 . S
C1490 C1489 1.379 . S
C1490 H1507 0.930 . S
C1491 O1474 1.264 . S
C1491 O1475 1.254 . S
C1492 Eu1428 2.848 . S
C1492 O1472 1.257 . S
C1492 O1477 1.249 . S
C1492 C1485 1.492 . S
C1493 H1458 0.931 . S
C1493 C1471 1.420 . S
C1493 C1494 1.351 . S
C1494 H1456 0.930 . S
C1494 C1462 1.423 . S
C1494 C1493 1.351 . S
C1495 O1479 1.276 . S
C1495 O1482 1.235 . S
C1496 C1497 1.393 . S
C1496 C1500 1.395 . S
C1496 C1503 1.492 . S
C1497 C1496 1.393 . S
C1497 C1498 1.392 . S
C1497 H1508 0.930 . S
C1498 C1497 1.392 . S
C1498 C1499 1.386 . S
C1499 C1498 1.386 . S
C1499 C1501 1.395 . S
C1499 H1509 0.930 . S
C1500 C1496 1.395 . S
C1500 C1501 1.379 . S
C1500 H1510 0.930 . S
C1501 C1499 1.395 . S
C1501 C1500 1.379 . S
C1501 H1511 0.930 . S
C1502 O1480 1.264 . S
C1502 O1481 1.254 . S
C1503 Eu1439 2.848 . S
C1503 O1478 1.257 . S
C1503 O1483 1.249 . S
C1503 C1496 1.492 . S
H1504 C1487 0.930 . S
H1505 C1488 0.930 . S
H1506 C1489 0.930 . S
H1507 C1490 0.930 . S
H1508 C1497 0.930 . S
H1509 C1499 0.930 . S
H1510 C1500 0.930 . S
H1511 C1501 0.930 . S
Eu1512 N1543 2.657 . S
Eu1512 N1550 2.609 . S
Eu1512 O1556 2.558 . S
Eu1512 O1557 2.612 . S
Eu1512 O1559 2.339 . S
Eu1512 O1560 2.563 . S
Eu1512 O1561 2.419 . S
Eu1512 O1563 2.380 . S
Eu1512 O1564 2.432 . S
Eu1512 C1576 2.848 . S
C1513 C1516 1.429 . S
C1513 C1517 1.411 . S
C1513 N1520 1.377 . S
C1514 C1516 1.420 . S
C1514 C1518 1.423 . S
C1514 C1526 1.392 . S
C1515 C1517 1.420 . S
C1515 C1518 1.351 . S
C1515 H1538 0.931 . S
C1516 C1513 1.429 . S
C1516 C1514 1.420 . S
C1516 N1524 1.362 . S
C1517 C1513 1.411 . S
C1517 C1515 1.420 . S
C1517 C1522 1.395 . S
C1518 C1514 1.423 . S
C1518 C1515 1.351 . S
C1518 H1530 0.930 . S
C1519 C1521 1.400 . S
C1519 C1522 1.386 . S
C1519 H1531 0.930 . S
N1520 C1513 1.377 . S
N1520 C1521 1.321 . S
N1520 Eu1523 2.609 . S
C1521 C1519 1.400 . S
C1521 N1520 1.321 . S
C1521 H1528 0.930 . S
C1522 C1517 1.395 . S
C1522 C1519 1.386 . S
C1522 H1541 0.930 . S
Eu1523 N1520 2.609 . S
Eu1523 N1524 2.657 . S
Eu1523 O1557 2.380 . S
Eu1523 O1558 2.432 . S
Eu1523 O1562 2.558 . S
Eu1523 O1563 2.612 . S
Eu1523 O1565 2.339 . S
Eu1523 O1566 2.563 . S
Eu1523 O1567 2.419 . S
Eu1523 C1587 2.848 . S
N1524 C1516 1.362 . S
N1524 Eu1523 2.657 . S
N1524 C1525 1.334 . S
C1525 N1524 1.334 . S
C1525 C1527 1.413 . S
C1525 H1532 0.929 . S
C1526 C1514 1.392 . S
C1526 C1527 1.367 . S
C1526 H1534 0.930 . S
C1527 C1525 1.413 . S
C1527 C1526 1.367 . S
C1527 H1529 0.930 . S
H1528 C1521 0.930 . S
H1529 C1527 0.930 . S
H1530 C1518 0.930 . S
H1531 C1519 0.930 . S
H1532 C1525 0.929 . S
H1533 C1547 0.930 . S
H1534 C1526 0.930 . S
H1535 C1553 0.930 . S
H1536 C1544 0.929 . S
H1537 C1551 0.930 . S
H1538 C1515 0.931 . S
H1539 C1545 0.930 . S
H1540 C1578 0.930 . S
H1541 C1522 0.930 . S
H1542 C1577 0.931 . S
N1543 Eu1512 2.657 . S
N1543 C1544 1.334 . S
N1543 C1548 1.362 . S
C1544 H1536 0.929 . S
C1544 N1543 1.334 . S
C1544 C1547 1.413 . S
C1545 H1539 0.930 . S
C1545 C1546 1.392 . S
C1545 C1547 1.367 . S
C1546 C1545 1.392 . S
C1546 C1548 1.420 . S
C1546 C1578 1.423 . S
C1547 H1533 0.930 . S
C1547 C1544 1.413 . S
C1547 C1545 1.367 . S
C1548 N1543 1.362 . S
C1548 C1546 1.420 . S
C1548 C1552 1.429 . S
H1549 C1554 0.930 . S
N1550 Eu1512 2.609 . S
N1550 C1552 1.377 . S
N1550 C1553 1.321 . S
C1551 H1537 0.930 . S
C1551 C1553 1.400 . S
C1551 C1554 1.386 . S
C1552 C1548 1.429 . S
C1552 N1550 1.377 . S
C1552 C1555 1.411 . S
C1553 H1535 0.930 . S
C1553 N1550 1.321 . S
C1553 C1551 1.400 . S
C1554 H1549 0.930 . S
C1554 C1551 1.386 . S
C1554 C1555 1.395 . S
C1555 C1552 1.411 . S
C1555 C1554 1.395 . S
C1555 C1577 1.420 . S
O1556 Eu1512 2.558 . S
O1556 C1576 1.257 . S
O1557 Eu1512 2.612 . S
O1557 Eu1523 2.380 . S
O1557 C1568 1.276 . S
O1558 Eu1523 2.432 . S
O1558 C1575 1.264 . S
O1559 Eu1512 2.339 . S
O1559 C1575 1.254 . S
O1560 Eu1512 2.563 . S
O1560 C1568 1.235 . S
O1561 Eu1512 2.419 . S
O1561 C1576 1.249 . S
O1562 Eu1523 2.558 . S
O1562 C1587 1.257 . S
O1563 Eu1512 2.380 . S
O1563 Eu1523 2.612 . S
O1563 C1579 1.276 . S
O1564 Eu1512 2.432 . S
O1564 C1586 1.264 . S
O1565 Eu1523 2.339 . S
O1565 C1586 1.254 . S
O1566 Eu1523 2.563 . S
O1566 C1579 1.235 . S
O1567 Eu1523 2.419 . S
O1567 C1587 1.249 . S
C1568 O1557 1.276 . S
C1568 O1560 1.235 . S
C1569 C1571 1.393 . S
C1569 C1573 1.395 . S
C1569 C1576 1.492 . S
C1570 C1571 1.392 . S
C1570 C1572 1.386 . S
C1571 C1569 1.393 . S
C1571 C1570 1.392 . S
C1571 H1588 0.930 . S
C1572 C1570 1.386 . S
C1572 C1574 1.395 . S
C1572 H1589 0.930 . S
C1573 C1569 1.395 . S
C1573 C1574 1.379 . S
C1573 H1590 0.930 . S
C1574 C1572 1.395 . S
C1574 C1573 1.379 . S
C1574 H1591 0.930 . S
C1575 O1558 1.264 . S
C1575 O1559 1.254 . S
C1576 Eu1512 2.848 . S
C1576 O1556 1.257 . S
C1576 O1561 1.249 . S
C1576 C1569 1.492 . S
C1577 H1542 0.931 . S
C1577 C1555 1.420 . S
C1577 C1578 1.351 . S
C1578 H1540 0.930 . S
C1578 C1546 1.423 . S
C1578 C1577 1.351 . S
C1579 O1563 1.276 . S
C1579 O1566 1.235 . S
C1580 C1581 1.393 . S
C1580 C1584 1.395 . S
C1580 C1587 1.492 . S
C1581 C1580 1.393 . S
C1581 C1582 1.392 . S
C1581 H1592 0.930 . S
C1582 C1581 1.392 . S
C1582 C1583 1.386 . S
C1583 C1582 1.386 . S
C1583 C1585 1.395 . S
C1583 H1593 0.930 . S
C1584 C1580 1.395 . S
C1584 C1585 1.379 . S
C1584 H1594 0.930 . S
C1585 C1583 1.395 . S
C1585 C1584 1.379 . S
C1585 H1595 0.930 . S
C1586 O1564 1.264 . S
C1586 O1565 1.254 . S
C1587 Eu1523 2.848 . S
C1587 O1562 1.257 . S
C1587 O1567 1.249 . S
C1587 C1580 1.492 . S
H1588 C1571 0.930 . S
H1589 C1572 0.930 . S
H1590 C1573 0.930 . S
H1591 C1574 0.930 . S
H1592 C1581 0.930 . S
H1593 C1583 0.930 . S
H1594 C1584 0.930 . S
H1595 C1585 0.930 . S
Eu1596 N1627 2.657 . S
Eu1596 N1634 2.609 1_554 S
Eu1596 O1640 2.558 1_554 S
Eu1596 O1641 2.612 . S
Eu1596 O1643 2.339 . S
Eu1596 O1644 2.565 1_554 S
Eu1596 O1645 2.419 . S
Eu1596 O1647 2.380 . S
Eu1596 O1648 2.432 1_554 S
Eu1596 C1660 2.848 1_554 S
C1597 C1600 1.429 . S
C1597 C1601 1.411 . S
C1597 N1604 1.377 1_655 S
C1598 C1600 1.420 . S
C1598 C1602 1.423 . S
C1598 C1610 1.392 1_554 S
C1599 C1601 1.420 . S
C1599 C1602 1.351 . S
C1599 H1622 0.931 . S
C1600 C1597 1.429 . S
C1600 C1598 1.420 . S
C1600 N1608 1.362 . S
C1601 C1597 1.411 . S
C1601 C1599 1.420 . S
C1601 C1606 1.395 . S
C1602 C1598 1.423 . S
C1602 C1599 1.351 . S
C1602 H1614 0.930 . S
C1603 C1605 1.400 . S
C1603 C1606 1.386 1_455 S
C1603 H1615 0.930 . S
N1604 C1597 1.377 1_455 S
N1604 C1605 1.321 . S
N1604 Eu1607 2.609 . S
C1605 C1603 1.400 . S
C1605 N1604 1.321 . S
C1605 H1612 0.930 . S
C1606 C1601 1.395 . S
C1606 C1603 1.386 1_655 S
C1606 H1625 0.930 . S
Eu1607 N1604 2.609 . S
Eu1607 N1608 2.657 1_455 S
Eu1607 O1641 2.380 . S
Eu1607 O1642 2.432 . S
Eu1607 O1646 2.558 . S
Eu1607 O1647 2.612 . S
Eu1607 O1649 2.339 1_554 S
Eu1607 O1650 2.563 . S
Eu1607 O1651 2.419 1_455 S
Eu1607 C1671 2.848 1_455 S
N1608 C1600 1.362 . S
N1608 Eu1607 2.657 1_655 S
N1608 C1609 1.334 1_554 S
C1609 N1608 1.334 1_556 S
C1609 C1611 1.413 . S
C1609 H1616 0.927 . S
C1610 C1598 1.392 1_556 S
C1610 C1611 1.367 . S
C1610 H1618 0.930 . S
C1611 C1609 1.413 . S
C1611 C1610 1.367 . S
C1611 H1613 0.930 . S
H1612 C1605 0.930 . S
H1613 C1611 0.930 . S
H1614 C1602 0.930 . S
H1615 C1603 0.930 . S
H1616 C1609 0.927 . S
H1617 C1631 0.930 . S
H1618 C1610 0.930 . S
H1619 C1637 0.930 . S
H1620 C1628 0.929 . S
H1621 C1635 0.930 . S
H1622 C1599 0.931 . S
H1623 C1629 0.930 . S
H1624 C1662 0.930 . S
H1625 C1606 0.930 . S
H1626 C1661 0.931 . S
N1627 Eu1596 2.657 . S
N1627 C1628 1.334 . S
N1627 C1632 1.362 . S
C1628 H1620 0.929 . S
C1628 N1627 1.334 . S
C1628 C1631 1.413 . S
C1629 H1623 0.930 . S
C1629 C1630 1.392 . S
C1629 C1631 1.367 . S
C1630 C1629 1.392 . S
C1630 C1632 1.420 . S
C1630 C1662 1.423 . S
C1631 H1617 0.930 . S
C1631 C1628 1.413 . S
C1631 C1629 1.367 . S
C1632 N1627 1.362 . S
C1632 C1630 1.420 . S
C1632 C1636 1.429 1_554 S
H1633 C1638 0.930 . S
N1634 Eu1596 2.609 1_556 S
N1634 C1636 1.377 . S
N1634 C1637 1.321 . S
C1635 H1621 0.930 . S
C1635 C1637 1.400 . S
C1635 C1638 1.386 . S
C1636 C1632 1.429 1_556 S
C1636 N1634 1.377 . S
C1636 C1639 1.411 . S
C1637 H1619 0.930 . S
C1637 N1634 1.321 . S
C1637 C1635 1.400 . S
C1638 H1633 0.930 . S
C1638 C1635 1.386 . S
C1638 C1639 1.395 . S
C1639 C1636 1.411 . S
C1639 C1638 1.395 . S
C1639 C1661 1.420 . S
O1640 Eu1596 2.558 1_556 S
O1640 C1660 1.257 . S
O1641 Eu1596 2.612 . S
O1641 Eu1607 2.380 . S
O1641 C1652 1.276 . S
O1642 Eu1607 2.432 . S
O1642 C1659 1.264 . S
O1643 Eu1596 2.339 . S
O1643 C1659 1.254 . S
O1644 Eu1596 2.565 1_556 S
O1644 C1652 1.224 1_556 S
O1645 Eu1596 2.419 . S
O1645 C1660 1.249 1_554 S
O1646 Eu1607 2.558 . S
O1646 C1671 1.257 1_455 S
O1647 Eu1596 2.380 . S
O1647 Eu1607 2.612 . S
O1647 C1663 1.276 . S
O1648 Eu1596 2.432 1_556 S
O1648 C1670 1.264 . S
O1649 Eu1607 2.339 1_556 S
O1649 C1670 1.254 . S
O1650 Eu1607 2.563 . S
O1650 C1663 1.235 . S
O1651 Eu1607 2.419 1_655 S
O1651 C1671 1.249 . S
C1652 O1641 1.276 . S
C1652 O1644 1.224 1_554 S
C1653 C1655 1.393 1_556 S
C1653 C1657 1.395 . S
C1653 C1660 1.492 . S
C1654 C1655 1.392 1_556 S
C1654 C1656 1.386 . S
C1655 C1653 1.393 1_554 S
C1655 C1654 1.392 1_554 S
C1655 H1672 0.930 . S
C1656 C1654 1.386 . S
C1656 C1658 1.395 . S
C1656 H1673 0.930 . S
C1657 C1653 1.395 . S
C1657 C1658 1.379 . S
C1657 H1674 0.930 . S
C1658 C1656 1.395 . S
C1658 C1657 1.379 . S
C1658 H1675 0.930 . S
C1659 O1642 1.264 . S
C1659 O1643 1.254 . S
C1660 Eu1596 2.848 1_556 S
C1660 O1640 1.257 . S
C1660 O1645 1.249 1_556 S
C1660 C1653 1.492 . S
C1661 H1626 0.931 . S
C1661 C1639 1.420 . S
C1661 C1662 1.351 1_556 S
C1662 H1624 0.930 . S
C1662 C1630 1.423 . S
C1662 C1661 1.351 1_554 S
C1663 O1647 1.276 . S
C1663 O1650 1.235 . S
C1664 C1665 1.393 . S
C1664 C1668 1.395 . S
C1664 C1671 1.492 . S
C1665 C1664 1.393 . S
C1665 C1666 1.392 . S
C1665 H1676 0.930 . S
C1666 C1665 1.392 . S
C1666 C1667 1.386 . S
C1667 C1666 1.386 . S
C1667 C1669 1.395 . S
C1667 H1677 0.930 . S
C1668 C1664 1.395 . S
C1668 C1669 1.379 . S
C1668 H1678 0.930 . S
C1669 C1667 1.395 . S
C1669 C1668 1.379 . S
C1669 H1679 0.930 . S
C1670 O1648 1.264 . S
C1670 O1649 1.254 . S
C1671 Eu1607 2.848 1_655 S
C1671 O1646 1.257 1_655 S
C1671 O1651 1.249 . S
C1671 C1664 1.492 . S
H1672 C1655 0.930 . S
H1673 C1656 0.930 . S
H1674 C1657 0.930 . S
H1675 C1658 0.930 . S
H1676 C1665 0.930 . S
H1677 C1667 0.930 . S
H1678 C1668 0.930 . S
H1679 C1669 0.930 . S
H1680 C1688 0.950 1_655 S
H1681 C1693 0.950 . S
H1682 C1690 0.950 1_554 S
H1683 C1692 0.950 . S
H1684 C1694 0.950 . S
H1685 C1696 0.950 . S
H1686 C1698 0.950 . S
H1687 C1699 0.950 . S
C1688 H1680 0.950 1_455 S
C1688 C1689 1.386 . S
C1688 C1690 1.391 . S
C1689 C1688 1.386 . S
C1689 C1693 1.393 . S
C1690 H1682 0.950 1_556 S
C1690 C1688 1.391 . S
C1690 C1691 1.400 . S
C1691 C1690 1.400 . S
C1691 C1692 1.398 . S
C1691 C1697 1.491 . S
C1692 H1683 0.950 . S
C1692 C1691 1.398 . S
C1692 C1693 1.391 . S
C1693 H1681 0.950 . S
C1693 C1689 1.393 . S
C1693 C1692 1.391 . S
C1694 H1684 0.950 . S
C1694 C1695 1.386 1_556 S
C1694 C1696 1.391 . S
C1695 C1694 1.386 1_554 S
C1695 C1699 1.393 . S
C1696 H1685 0.950 . S
C1696 C1694 1.391 . S
C1696 C1697 1.400 . S
C1697 C1691 1.491 . S
C1697 C1696 1.400 . S
C1697 C1698 1.398 1_556 S
C1698 H1686 0.950 . S
C1698 C1697 1.398 1_554 S
C1698 C1699 1.391 . S
C1699 H1687 0.950 . S
C1699 C1695 1.393 . S
C1699 C1698 1.391 . S
H1700 C1708 0.950 . S
H1701 C1713 0.950 . S
H1702 C1710 0.950 . S
H1703 C1712 0.950 . S
H1704 C1714 0.950 . S
H1705 C1716 0.950 . S
H1706 C1718 0.950 . S
H1707 C1719 0.950 . S
C1708 H1700 0.950 . S
C1708 C1709 1.386 . S
C1708 C1710 1.391 . S
C1709 C1708 1.386 . S
C1709 C1713 1.393 . S
C1710 H1702 0.950 . S
C1710 C1708 1.391 . S
C1710 C1711 1.400 . S
C1711 C1710 1.400 . S
C1711 C1712 1.398 . S
C1711 C1717 1.491 . S
C1712 H1703 0.950 . S
C1712 C1711 1.398 . S
C1712 C1713 1.391 . S
C1713 H1701 0.950 . S
C1713 C1709 1.393 . S
C1713 C1712 1.391 . S
C1714 H1704 0.950 . S
C1714 C1715 1.386 . S
C1714 C1716 1.391 . S
C1715 C1714 1.386 . S
C1715 C1719 1.393 . S
C1716 H1705 0.950 . S
C1716 C1714 1.391 . S
C1716 C1717 1.400 . S
C1717 C1711 1.491 . S
C1717 C1716 1.400 . S
C1717 C1718 1.398 . S
C1718 H1706 0.950 . S
C1718 C1717 1.398 . S
C1718 C1719 1.391 . S
C1719 H1707 0.950 . S
C1719 C1715 1.393 . S
C1719 C1718 1.391 . S
H1720 C1728 0.950 . S
H1721 C1733 0.950 . S
H1722 C1730 0.950 . S
H1723 C1732 0.950 . S
H1724 C1734 0.950 . S
H1725 C1736 0.950 . S
H1726 C1738 0.950 . S
H1727 C1739 0.950 . S
C1728 H1720 0.950 . S
C1728 C1729 1.386 . S
C1728 C1730 1.391 . S
C1729 C1728 1.386 . S
C1729 C1733 1.393 . S
C1730 H1722 0.950 . S
C1730 C1728 1.391 . S
C1730 C1731 1.400 . S
C1731 C1730 1.400 . S
C1731 C1732 1.398 . S
C1731 C1737 1.491 . S
C1732 H1723 0.950 . S
C1732 C1731 1.398 . S
C1732 C1733 1.391 . S
C1733 H1721 0.950 . S
C1733 C1729 1.393 . S
C1733 C1732 1.391 . S
C1734 H1724 0.950 . S
C1734 C1735 1.386 . S
C1734 C1736 1.391 . S
C1735 C1734 1.386 . S
C1735 C1739 1.393 . S
C1736 H1725 0.950 . S
C1736 C1734 1.391 . S
C1736 C1737 1.400 . S
C1737 C1731 1.491 . S
C1737 C1736 1.400 . S
C1737 C1738 1.398 . S
C1738 H1726 0.950 . S
C1738 C1737 1.398 . S
C1738 C1739 1.391 . S
C1739 H1727 0.950 . S
C1739 C1735 1.393 . S
C1739 C1738 1.391 . S
H1740 C1748 0.950 . S
H1741 C1753 0.950 . S
H1742 C1750 0.950 . S
H1743 C1752 0.950 . S
H1744 C1754 0.950 . S
H1745 C1756 0.950 . S
H1746 C1758 0.950 . S
H1747 C1759 0.950 . S
C1748 H1740 0.950 . S
C1748 C1749 1.386 . S
C1748 C1750 1.391 . S
C1749 C1748 1.386 . S
C1749 C1753 1.393 . S
C1750 H1742 0.950 . S
C1750 C1748 1.391 . S
C1750 C1751 1.400 . S
C1751 C1750 1.400 . S
C1751 C1752 1.398 . S
C1751 C1757 1.491 . S
C1752 H1743 0.950 . S
C1752 C1751 1.398 . S
C1752 C1753 1.391 . S
C1753 H1741 0.950 . S
C1753 C1749 1.393 . S
C1753 C1752 1.391 . S
C1754 H1744 0.950 . S
C1754 C1755 1.386 . S
C1754 C1756 1.391 . S
C1755 C1754 1.386 . S
C1755 C1759 1.393 . S
C1756 H1745 0.950 . S
C1756 C1754 1.391 . S
C1756 C1757 1.400 . S
C1757 C1751 1.491 . S
C1757 C1756 1.400 . S
C1757 C1758 1.398 . S
C1758 H1746 0.950 . S
C1758 C1757 1.398 . S
C1758 C1759 1.391 . S
C1759 H1747 0.950 . S
C1759 C1755 1.393 . S
C1759 C1758 1.391 . S
H1760 C1768 0.950 . S
H1761 C1773 0.950 . S
H1762 C1770 0.950 . S
H1763 C1772 0.950 . S
H1764 C1774 0.950 . S
H1765 C1776 0.950 . S
H1766 C1778 0.950 . S
H1767 C1779 0.950 . S
C1768 H1760 0.950 . S
C1768 C1769 1.386 . S
C1768 C1770 1.391 . S
C1769 C1768 1.386 . S
C1769 C1773 1.393 . S
C1770 H1762 0.950 . S
C1770 C1768 1.391 . S
C1770 C1771 1.400 . S
C1771 C1770 1.400 . S
C1771 C1772 1.398 . S
C1771 C1777 1.491 . S
C1772 H1763 0.950 . S
C1772 C1771 1.398 . S
C1772 C1773 1.391 . S
C1773 H1761 0.950 . S
C1773 C1769 1.393 . S
C1773 C1772 1.391 . S
C1774 H1764 0.950 . S
C1774 C1775 1.386 . S
C1774 C1776 1.391 . S
C1775 C1774 1.386 . S
C1775 C1779 1.393 . S
C1776 H1765 0.950 . S
C1776 C1774 1.391 . S
C1776 C1777 1.400 . S
C1777 C1771 1.491 . S
C1777 C1776 1.400 . S
C1777 C1778 1.398 . S
C1778 H1766 0.950 . S
C1778 C1777 1.398 . S
C1778 C1779 1.391 . S
C1779 H1767 0.950 . S
C1779 C1775 1.393 . S
C1779 C1778 1.391 . S
H1780 C1788 0.950 . S
H1781 C1793 0.950 . S
H1782 C1790 0.950 . S
H1783 C1792 0.950 . S
H1784 C1794 0.950 . S
H1785 C1796 0.950 . S
H1786 C1798 0.950 . S
H1787 C1799 0.950 . S
C1788 H1780 0.950 . S
C1788 C1789 1.386 . S
C1788 C1790 1.391 . S
C1789 C1788 1.386 . S
C1789 C1793 1.393 . S
C1790 H1782 0.950 . S
C1790 C1788 1.391 . S
C1790 C1791 1.400 . S
C1791 C1790 1.400 . S
C1791 C1792 1.398 . S
C1791 C1797 1.491 . S
C1792 H1783 0.950 . S
C1792 C1791 1.398 . S
C1792 C1793 1.391 . S
C1793 H1781 0.950 . S
C1793 C1789 1.393 . S
C1793 C1792 1.391 . S
C1794 H1784 0.950 . S
C1794 C1795 1.386 . S
C1794 C1796 1.391 . S
C1795 C1794 1.386 . S
C1795 C1799 1.393 . S
C1796 H1785 0.950 . S
C1796 C1794 1.391 . S
C1796 C1797 1.400 . S
C1797 C1791 1.491 . S
C1797 C1796 1.400 . S
C1797 C1798 1.398 . S
C1798 H1786 0.950 . S
C1798 C1797 1.398 . S
C1798 C1799 1.391 . S
C1799 H1787 0.950 . S
C1799 C1795 1.393 . S
C1799 C1798 1.391 . S
H1800 C1808 0.950 . S
H1801 C1813 0.950 . S
H1802 C1810 0.950 . S
H1803 C1812 0.950 . S
H1804 C1814 0.950 . S
H1805 C1816 0.950 . S
H1806 C1818 0.950 . S
H1807 C1819 0.950 . S
C1808 H1800 0.950 . S
C1808 C1809 1.386 . S
C1808 C1810 1.391 . S
C1809 C1808 1.386 . S
C1809 C1813 1.393 . S
C1810 H1802 0.950 . S
C1810 C1808 1.391 . S
C1810 C1811 1.400 . S
C1811 C1810 1.400 . S
C1811 C1812 1.398 . S
C1811 C1817 1.491 . S
C1812 H1803 0.950 . S
C1812 C1811 1.398 . S
C1812 C1813 1.391 . S
C1813 H1801 0.950 . S
C1813 C1809 1.393 . S
C1813 C1812 1.391 . S
C1814 H1804 0.950 . S
C1814 C1815 1.386 . S
C1814 C1816 1.391 . S
C1815 C1814 1.386 . S
C1815 C1819 1.393 . S
C1816 H1805 0.950 . S
C1816 C1814 1.391 . S
C1816 C1817 1.400 . S
C1817 C1811 1.491 . S
C1817 C1816 1.400 . S
C1817 C1818 1.398 . S
C1818 H1806 0.950 . S
C1818 C1817 1.398 . S
C1818 C1819 1.391 . S
C1819 H1807 0.950 . S
C1819 C1815 1.393 . S
C1819 C1818 1.391 . S
H1820 C1828 0.950 . S
H1821 C1833 0.950 . S
H1822 C1830 0.950 . S
H1823 C1832 0.950 . S
H1824 C1834 0.950 . S
H1825 C1836 0.950 . S
H1826 C1838 0.950 . S
H1827 C1839 0.950 . S
C1828 H1820 0.950 . S
C1828 C1829 1.386 . S
C1828 C1830 1.391 . S
C1829 C1828 1.386 . S
C1829 C1833 1.393 . S
C1830 H1822 0.950 . S
C1830 C1828 1.391 . S
C1830 C1831 1.400 . S
C1831 C1830 1.400 . S
C1831 C1832 1.398 . S
C1831 C1837 1.491 . S
C1832 H1823 0.950 . S
C1832 C1831 1.398 . S
C1832 C1833 1.391 . S
C1833 H1821 0.950 . S
C1833 C1829 1.393 . S
C1833 C1832 1.391 . S
C1834 H1824 0.950 . S
C1834 C1835 1.386 . S
C1834 C1836 1.391 . S
C1835 C1834 1.386 . S
C1835 C1839 1.393 . S
C1836 H1825 0.950 . S
C1836 C1834 1.391 . S
C1836 C1837 1.400 . S
C1837 C1831 1.491 . S
C1837 C1836 1.400 . S
C1837 C1838 1.398 . S
C1838 H1826 0.950 . S
C1838 C1837 1.398 . S
C1838 C1839 1.391 . S
C1839 H1827 0.950 . S
C1839 C1835 1.393 . S
C1839 C1838 1.391 . S
H1840 C1848 0.950 . S
H1841 C1853 0.950 . S
H1842 C1850 0.950 . S
H1843 C1852 0.950 . S
H1844 C1854 0.950 . S
H1845 C1856 0.950 . S
H1846 C1858 0.950 1_655 S
H1847 C1859 0.950 . S
C1848 H1840 0.950 . S
C1848 C1849 1.386 . S
C1848 C1850 1.391 . S
C1849 C1848 1.386 . S
C1849 C1853 1.393 1_655 S
C1850 H1842 0.950 . S
C1850 C1848 1.391 . S
C1850 C1851 1.400 1_655 S
C1851 C1850 1.400 1_455 S
C1851 C1852 1.398 . S
C1851 C1857 1.491 . S
C1852 H1843 0.950 . S
C1852 C1851 1.398 . S
C1852 C1853 1.391 . S
C1853 H1841 0.950 . S
C1853 C1849 1.393 1_455 S
C1853 C1852 1.391 . S
C1854 H1844 0.950 . S
C1854 C1855 1.386 . S
C1854 C1856 1.391 . S
C1855 C1854 1.386 . S
C1855 C1859 1.393 . S
C1856 H1845 0.950 . S
C1856 C1854 1.391 . S
C1856 C1857 1.400 . S
C1857 C1851 1.491 . S
C1857 C1856 1.400 . S
C1857 C1858 1.398 . S
C1858 H1846 0.950 1_455 S
C1858 C1857 1.398 . S
C1858 C1859 1.391 . S
C1859 H1847 0.950 . S
C1859 C1855 1.393 . S
C1859 C1858 1.391 . S
H1860 C1868 0.950 . S
H1861 C1873 0.950 . S
H1862 C1870 0.950 . S
H1863 C1872 0.950 . S
H1864 C1874 0.950 . S
H1865 C1876 0.950 . S
H1866 C1878 0.950 . S
H1867 C1879 0.950 . S
C1868 H1860 0.950 . S
C1868 C1869 1.386 . S
C1868 C1870 1.391 . S
C1869 C1868 1.386 . S
C1869 C1873 1.393 . S
C1870 H1862 0.950 . S
C1870 C1868 1.391 . S
C1870 C1871 1.400 . S
C1871 C1870 1.400 . S
C1871 C1872 1.398 . S
C1871 C1877 1.491 . S
C1872 H1863 0.950 . S
C1872 C1871 1.398 . S
C1872 C1873 1.391 . S
C1873 H1861 0.950 . S
C1873 C1869 1.393 . S
C1873 C1872 1.391 . S
C1874 H1864 0.950 . S
C1874 C1875 1.386 . S
C1874 C1876 1.391 . S
C1875 C1874 1.386 . S
C1875 C1879 1.393 . S
C1876 H1865 0.950 . S
C1876 C1874 1.391 . S
C1876 C1877 1.400 . S
C1877 C1871 1.491 . S
C1877 C1876 1.400 . S
C1877 C1878 1.398 . S
C1878 H1866 0.950 . S
C1878 C1877 1.398 . S
C1878 C1879 1.391 . S
C1879 H1867 0.950 . S
C1879 C1875 1.393 . S
C1879 C1878 1.391 . S
H1880 C1888 0.950 . S
H1881 C1893 0.950 . S
H1882 C1890 0.950 . S
H1883 C1892 0.950 . S
H1884 C1894 0.950 . S
H1885 C1896 0.950 . S
H1886 C1898 0.950 . S
H1887 C1899 0.950 . S
C1888 H1880 0.950 . S
C1888 C1889 1.386 . S
C1888 C1890 1.391 . S
C1889 C1888 1.386 . S
C1889 C1893 1.393 . S
C1890 H1882 0.950 . S
C1890 C1888 1.391 . S
C1890 C1891 1.400 . S
C1891 C1890 1.400 . S
C1891 C1892 1.398 . S
C1891 C1897 1.491 . S
C1892 H1883 0.950 . S
C1892 C1891 1.398 . S
C1892 C1893 1.391 . S
C1893 H1881 0.950 . S
C1893 C1889 1.393 . S
C1893 C1892 1.391 . S
C1894 H1884 0.950 . S
C1894 C1895 1.386 . S
C1894 C1896 1.391 . S
C1895 C1894 1.386 . S
C1895 C1899 1.393 . S
C1896 H1885 0.950 . S
C1896 C1894 1.391 . S
C1896 C1897 1.400 . S
C1897 C1891 1.491 . S
C1897 C1896 1.400 . S
C1897 C1898 1.398 . S
C1898 H1886 0.950 . S
C1898 C1897 1.398 . S
C1898 C1899 1.391 . S
C1899 H1887 0.950 . S
C1899 C1895 1.393 . S
C1899 C1898 1.391 . S
H1900 C1908 0.950 . S
H1901 C1913 0.950 . S
H1902 C1910 0.950 . S
H1903 C1912 0.950 . S
H1904 C1914 0.950 . S
H1905 C1916 0.950 . S
H1906 C1918 0.950 . S
H1907 C1919 0.950 . S
C1908 H1900 0.950 . S
C1908 C1909 1.386 . S
C1908 C1910 1.391 . S
C1909 C1908 1.386 . S
C1909 C1913 1.393 . S
C1910 H1902 0.950 . S
C1910 C1908 1.391 . S
C1910 C1911 1.400 . S
C1911 C1910 1.400 . S
C1911 C1912 1.398 . S
C1911 C1917 1.491 . S
C1912 H1903 0.950 . S
C1912 C1911 1.398 . S
C1912 C1913 1.391 . S
C1913 H1901 0.950 . S
C1913 C1909 1.393 . S
C1913 C1912 1.391 . S
C1914 H1904 0.950 . S
C1914 C1915 1.386 . S
C1914 C1916 1.391 . S
C1915 C1914 1.386 . S
C1915 C1919 1.393 . S
C1916 H1905 0.950 . S
C1916 C1914 1.391 . S
C1916 C1917 1.400 . S
C1917 C1911 1.491 . S
C1917 C1916 1.400 . S
C1917 C1918 1.398 . S
C1918 H1906 0.950 . S
C1918 C1917 1.398 . S
C1918 C1919 1.391 . S
C1919 H1907 0.950 . S
C1919 C1915 1.393 . S
C1919 C1918 1.391 . S
H1920 C1928 0.950 . S
H1921 C1933 0.950 . S
H1922 C1930 0.950 . S
H1923 C1932 0.950 . S
H1924 C1934 0.950 . S
H1925 C1936 0.950 1_655 S
H1926 C1938 0.950 . S
H1927 C1939 0.950 . S
C1928 H1920 0.950 . S
C1928 C1929 1.386 1_455 S
C1928 C1930 1.391 . S
C1929 C1928 1.386 1_655 S
C1929 C1933 1.393 . S
C1930 H1922 0.950 . S
C1930 C1928 1.391 . S
C1930 C1931 1.400 . S
C1931 C1930 1.400 . S
C1931 C1932 1.398 1_455 S
C1931 C1937 1.491 . S
C1932 H1923 0.950 . S
C1932 C1931 1.398 1_655 S
C1932 C1933 1.391 . S
C1933 H1921 0.950 . S
C1933 C1929 1.393 . S
C1933 C1932 1.391 . S
C1934 H1924 0.950 . S
C1934 C1935 1.386 . S
C1934 C1936 1.391 . S
C1935 C1934 1.386 . S
C1935 C1939 1.393 . S
C1936 H1925 0.950 1_455 S
C1936 C1934 1.391 . S
C1936 C1937 1.400 . S
C1937 C1931 1.491 . S
C1937 C1936 1.400 . S
C1937 C1938 1.398 . S
C1938 H1926 0.950 . S
C1938 C1937 1.398 . S
C1938 C1939 1.391 . S
C1939 H1927 0.950 . S
C1939 C1935 1.393 . S
C1939 C1938 1.391 . S
H1940 C1948 0.950 . S
H1941 C1953 0.950 . S
H1942 C1950 0.950 . S
H1943 C1952 0.950 . S
H1944 C1954 0.950 . S
H1945 C1956 0.950 . S
H1946 C1958 0.950 . S
H1947 C1959 0.950 . S
C1948 H1940 0.950 . S
C1948 C1949 1.386 . S
C1948 C1950 1.391 . S
C1949 C1948 1.386 . S
C1949 C1953 1.393 . S
C1950 H1942 0.950 . S
C1950 C1948 1.391 . S
C1950 C1951 1.400 . S
C1951 C1950 1.400 . S
C1951 C1952 1.398 . S
C1951 C1957 1.491 . S
C1952 H1943 0.950 . S
C1952 C1951 1.398 . S
C1952 C1953 1.391 . S
C1953 H1941 0.950 . S
C1953 C1949 1.393 . S
C1953 C1952 1.391 . S
C1954 H1944 0.950 . S
C1954 C1955 1.386 . S
C1954 C1956 1.391 . S
C1955 C1954 1.386 . S
C1955 C1959 1.393 . S
C1956 H1945 0.950 . S
C1956 C1954 1.391 . S
C1956 C1957 1.400 . S
C1957 C1951 1.491 . S
C1957 C1956 1.400 . S
C1957 C1958 1.398 . S
C1958 H1946 0.950 . S
C1958 C1957 1.398 . S
C1958 C1959 1.391 . S
C1959 H1947 0.950 . S
C1959 C1955 1.393 . S
C1959 C1958 1.391 . S
H1960 C1968 0.950 . S
H1961 C1973 0.950 . S
H1962 C1970 0.950 . S
H1963 C1972 0.950 . S
H1964 C1974 0.950 . S
H1965 C1976 0.950 . S
H1966 C1978 0.950 . S
H1967 C1979 0.950 . S
C1968 H1960 0.950 . S
C1968 C1969 1.386 . S
C1968 C1970 1.391 . S
C1969 C1968 1.386 . S
C1969 C1973 1.393 . S
C1970 H1962 0.950 . S
C1970 C1968 1.391 . S
C1970 C1971 1.400 . S
C1971 C1970 1.400 . S
C1971 C1972 1.398 . S
C1971 C1977 1.491 . S
C1972 H1963 0.950 . S
C1972 C1971 1.398 . S
C1972 C1973 1.391 . S
C1973 H1961 0.950 . S
C1973 C1969 1.393 . S
C1973 C1972 1.391 . S
C1974 H1964 0.950 . S
C1974 C1975 1.386 . S
C1974 C1976 1.391 . S
C1975 C1974 1.386 . S
C1975 C1979 1.393 . S
C1976 H1965 0.950 . S
C1976 C1974 1.391 . S
C1976 C1977 1.400 . S
C1977 C1971 1.491 . S
C1977 C1976 1.400 . S
C1977 C1978 1.398 . S
C1978 H1966 0.950 . S
C1978 C1977 1.398 . S
C1978 C1979 1.391 . S
C1979 H1967 0.950 . S
C1979 C1975 1.393 . S
C1979 C1978 1.391 . S
H1980 C1988 0.950 . S
H1981 C1993 0.950 . S
H1982 C1990 0.950 . S
H1983 C1992 0.950 . S
H1984 C1994 0.950 . S
H1985 C1996 0.950 . S
H1986 C1998 0.950 . S
H1987 C1999 0.950 . S
C1988 H1980 0.950 . S
C1988 C1989 1.386 . S
C1988 C1990 1.391 . S
C1989 C1988 1.386 . S
C1989 C1993 1.393 . S
C1990 H1982 0.950 . S
C1990 C1988 1.391 . S
C1990 C1991 1.400 . S
C1991 C1990 1.400 . S
C1991 C1992 1.398 . S
C1991 C1997 1.491 . S
C1992 H1983 0.950 . S
C1992 C1991 1.398 . S
C1992 C1993 1.391 . S
C1993 H1981 0.950 . S
C1993 C1989 1.393 . S
C1993 C1992 1.391 . S
C1994 H1984 0.950 . S
C1994 C1995 1.386 . S
C1994 C1996 1.391 . S
C1995 C1994 1.386 . S
C1995 C1999 1.393 . S
C1996 H1985 0.950 . S
C1996 C1994 1.391 . S
C1996 C1997 1.400 . S
C1997 C1991 1.491 . S
C1997 C1996 1.400 . S
C1997 C1998 1.398 . S
C1998 H1986 0.950 . S
C1998 C1997 1.398 . S
C1998 C1999 1.391 . S
C1999 H1987 0.950 . S
C1999 C1995 1.393 . S
C1999 C1998 1.391 . S
H2000 C2008 0.950 . S
H2001 C2013 0.950 1_556 S
H2002 C2010 0.950 . S
H2003 C2012 0.950 1_546 S
H2004 C2014 0.950 . S
H2005 C2016 0.950 1_556 S
H2006 C2018 0.950 . S
H2007 C2019 0.950 1_565 S
C2008 H2000 0.950 . S
C2008 C2009 1.386 . S
C2008 C2010 1.391 . S
C2009 C2008 1.386 . S
C2009 C2013 1.393 . S
C2010 H2002 0.950 . S
C2010 C2008 1.391 . S
C2010 C2011 1.400 . S
C2011 C2010 1.400 . S
C2011 C2012 1.398 . S
C2011 C2017 1.491 . S
C2012 H2003 0.950 1_564 S
C2012 C2011 1.398 . S
C2012 C2013 1.391 . S
C2013 H2001 0.950 1_554 S
C2013 C2009 1.393 . S
C2013 C2012 1.391 . S
C2014 H2004 0.950 . S
C2014 C2015 1.386 . S
C2014 C2016 1.391 . S
C2015 C2014 1.386 . S
C2015 C2019 1.393 . S
C2016 H2005 0.950 1_554 S
C2016 C2014 1.391 . S
C2016 C2017 1.400 1_545 S
C2017 C2011 1.491 . S
C2017 C2016 1.400 1_565 S
C2017 C2018 1.398 . S
C2018 H2006 0.950 . S
C2018 C2017 1.398 . S
C2018 C2019 1.390 1_565 S
C2019 H2007 0.950 1_545 S
C2019 C2015 1.393 . S
C2019 C2018 1.390 1_545 S
H2020 C2028 0.950 . S
H2021 C2033 0.950 . S
H2022 C2030 0.950 . S
H2023 C2032 0.950 . S
H2024 C2034 0.950 . S
H2025 C2036 0.950 . S
H2026 C2038 0.950 . S
H2027 C2039 0.950 . S
C2028 H2020 0.950 . S
C2028 C2029 1.386 . S
C2028 C2030 1.391 . S
C2029 C2028 1.386 . S
C2029 C2033 1.393 1_556 S
C2030 H2022 0.950 . S
C2030 C2028 1.391 . S
C2030 C2031 1.400 . S
C2031 C2030 1.400 . S
C2031 C2032 1.398 1_556 S
C2031 C2037 1.491 . S
C2032 H2023 0.950 . S
C2032 C2031 1.398 1_554 S
C2032 C2033 1.391 . S
C2033 H2021 0.950 . S
C2033 C2029 1.393 1_554 S
C2033 C2032 1.391 . S
C2034 H2024 0.950 . S
C2034 C2035 1.386 1_554 S
C2034 C2036 1.391 . S
C2035 C2034 1.386 1_556 S
C2035 C2039 1.393 . S
C2036 H2025 0.950 . S
C2036 C2034 1.391 . S
C2036 C2037 1.400 1_554 S
C2037 C2031 1.491 . S
C2037 C2036 1.400 1_556 S
C2037 C2038 1.398 . S
C2038 H2026 0.950 . S
C2038 C2037 1.398 . S
C2038 C2039 1.391 . S
C2039 H2027 0.950 . S
C2039 C2035 1.393 . S
C2039 C2038 1.391 . S
H2040 C2048 0.950 . S
H2041 C2053 0.950 . S
H2042 C2050 0.950 . S
H2043 C2052 0.950 . S
H2044 C2054 0.950 . S
H2045 C2056 0.950 . S
H2046 C2058 0.950 . S
H2047 C2059 0.950 . S
C2048 H2040 0.950 . S
C2048 C2049 1.386 . S
C2048 C2050 1.391 . S
C2049 C2048 1.386 . S
C2049 C2053 1.393 . S
C2050 H2042 0.950 . S
C2050 C2048 1.391 . S
C2050 C2051 1.400 . S
C2051 C2050 1.400 . S
C2051 C2052 1.398 . S
C2051 C2057 1.491 . S
C2052 H2043 0.950 . S
C2052 C2051 1.398 . S
C2052 C2053 1.391 . S
C2053 H2041 0.950 . S
C2053 C2049 1.393 . S
C2053 C2052 1.391 . S
C2054 H2044 0.950 . S
C2054 C2055 1.386 . S
C2054 C2056 1.391 . S
C2055 C2054 1.386 . S
C2055 C2059 1.393 . S
C2056 H2045 0.950 . S
C2056 C2054 1.391 . S
C2056 C2057 1.400 . S
C2057 C2051 1.491 . S
C2057 C2056 1.400 . S
C2057 C2058 1.398 . S
C2058 H2046 0.950 . S
C2058 C2057 1.398 . S
C2058 C2059 1.391 . S
C2059 H2047 0.950 . S
C2059 C2055 1.393 . S
C2059 C2058 1.391 . S
H2060 C2068 0.950 . S
H2061 C2073 0.950 . S
H2062 C2070 0.950 . S
H2063 C2072 0.950 . S
H2064 C2074 0.950 1_455 S
H2065 C2076 0.950 . S
H2066 C2078 0.950 . S
H2067 C2079 0.943 1_455 S
C2068 H2060 0.950 . S
C2068 C2069 1.386 . S
C2068 C2070 1.391 . S
C2069 C2068 1.386 . S
C2069 C2073 1.393 . S
C2070 H2062 0.950 . S
C2070 C2068 1.391 . S
C2070 C2071 1.400 . S
C2071 C2070 1.400 . S
C2071 C2072 1.398 . S
C2071 C2077 1.491 . S
C2072 H2063 0.950 . S
C2072 C2071 1.398 . S
C2072 C2073 1.391 . S
C2073 H2061 0.950 . S
C2073 C2069 1.393 . S
C2073 C2072 1.391 . S
C2074 H2064 0.950 1_655 S
C2074 C2075 1.386 1_655 S
C2074 C2076 1.391 . S
C2075 C2074 1.386 1_455 S
C2075 C2079 1.393 1_455 S
C2076 H2065 0.950 . S
C2076 C2074 1.391 . S
C2076 C2077 1.400 . S
C2077 C2071 1.491 . S
C2077 C2076 1.400 . S
C2077 C2078 1.398 . S
C2078 H2066 0.950 . S
C2078 C2077 1.398 . S
C2078 C2079 1.391 . S
C2079 H2067 0.943 1_655 S
C2079 C2075 1.393 1_655 S
C2079 C2078 1.391 . S
H2080 C2088 0.950 . S
H2081 C2093 0.950 . S
H2082 C2090 0.950 . S
H2083 C2092 0.950 . S
H2084 C2094 0.950 . S
H2085 C2096 0.950 . S
H2086 C2098 0.950 . S
H2087 C2099 0.950 . S
C2088 H2080 0.950 . S
C2088 C2089 1.386 . S
C2088 C2090 1.391 . S
C2089 C2088 1.386 . S
C2089 C2093 1.393 . S
C2090 H2082 0.950 . S
C2090 C2088 1.391 . S
C2090 C2091 1.400 . S
C2091 C2090 1.400 . S
C2091 C2092 1.398 . S
C2091 C2097 1.491 . S
C2092 H2083 0.950 . S
C2092 C2091 1.398 . S
C2092 C2093 1.391 . S
C2093 H2081 0.950 . S
C2093 C2089 1.393 . S
C2093 C2092 1.391 . S
C2094 H2084 0.950 . S
C2094 C2095 1.386 . S
C2094 C2096 1.391 . S
C2095 C2094 1.386 . S
C2095 C2099 1.393 . S
C2096 H2085 0.950 . S
C2096 C2094 1.391 . S
C2096 C2097 1.400 . S
C2097 C2091 1.491 . S
C2097 C2096 1.400 . S
C2097 C2098 1.398 . S
C2098 H2086 0.950 . S
C2098 C2097 1.398 . S
C2098 C2099 1.391 . S
C2099 H2087 0.950 . S
C2099 C2095 1.393 . S
C2099 C2098 1.391 . S
H2100 C2108 0.950 . S
H2101 C2113 0.950 . S
H2102 C2110 0.950 . S
H2103 C2112 0.950 . S
H2104 C2114 0.950 . S
H2105 C2116 0.950 . S
H2106 C2118 0.950 . S
H2107 C2119 0.950 . S
C2108 H2100 0.950 . S
C2108 C2109 1.386 . S
C2108 C2110 1.391 . S
C2109 C2108 1.386 . S
C2109 C2113 1.393 . S
C2110 H2102 0.950 . S
C2110 C2108 1.391 . S
C2110 C2111 1.400 . S
C2111 C2110 1.400 . S
C2111 C2112 1.398 . S
C2111 C2117 1.491 . S
C2112 H2103 0.950 . S
C2112 C2111 1.398 . S
C2112 C2113 1.391 . S
C2113 H2101 0.950 . S
C2113 C2109 1.393 . S
C2113 C2112 1.391 . S
C2114 H2104 0.950 . S
C2114 C2115 1.386 . S
C2114 C2116 1.391 . S
C2115 C2114 1.386 . S
C2115 C2119 1.393 . S
C2116 H2105 0.950 . S
C2116 C2114 1.391 . S
C2116 C2117 1.400 . S
C2117 C2111 1.491 . S
C2117 C2116 1.400 . S
C2117 C2118 1.398 . S
C2118 H2106 0.950 . S
C2118 C2117 1.398 . S
C2118 C2119 1.391 . S
C2119 H2107 0.950 . S
C2119 C2115 1.393 . S
C2119 C2118 1.391 . S
H2120 C2128 0.950 . S
H2121 C2133 0.950 . S
H2122 C2130 0.950 . S
H2123 C2132 0.950 . S
H2124 C2134 0.950 . S
H2125 C2136 0.950 . S
H2126 C2138 0.950 . S
H2127 C2139 0.950 . S
C2128 H2120 0.950 . S
C2128 C2129 1.386 . S
C2128 C2130 1.391 . S
C2129 C2128 1.386 . S
C2129 C2133 1.393 . S
C2130 H2122 0.950 . S
C2130 C2128 1.391 . S
C2130 C2131 1.400 . S
C2131 C2130 1.400 . S
C2131 C2132 1.398 . S
C2131 C2137 1.491 . S
C2132 H2123 0.950 . S
C2132 C2131 1.398 . S
C2132 C2133 1.391 . S
C2133 H2121 0.950 . S
C2133 C2129 1.393 . S
C2133 C2132 1.391 . S
C2134 H2124 0.950 . S
C2134 C2135 1.386 . S
C2134 C2136 1.391 . S
C2135 C2134 1.386 . S
C2135 C2139 1.393 . S
C2136 H2125 0.950 . S
C2136 C2134 1.391 . S
C2136 C2137 1.400 . S
C2137 C2131 1.491 . S
C2137 C2136 1.400 . S
C2137 C2138 1.398 . S
C2138 H2126 0.950 . S
C2138 C2137 1.398 . S
C2138 C2139 1.391 . S
C2139 H2127 0.950 . S
C2139 C2135 1.393 . S
C2139 C2138 1.391 . S
H2140 C2148 0.950 . S
H2141 C2153 0.950 . S
H2142 C2150 0.950 . S
H2143 C2152 0.950 . S
H2144 C2154 0.950 . S
H2145 C2156 0.950 . S
H2146 C2158 0.950 . S
H2147 C2159 0.950 . S
C2148 H2140 0.950 . S
C2148 C2149 1.386 . S
C2148 C2150 1.391 . S
C2149 C2148 1.386 . S
C2149 C2153 1.393 . S
C2150 H2142 0.950 . S
C2150 C2148 1.391 . S
C2150 C2151 1.400 . S
C2151 C2150 1.400 . S
C2151 C2152 1.398 . S
C2151 C2157 1.491 . S
C2152 H2143 0.950 . S
C2152 C2151 1.398 . S
C2152 C2153 1.391 . S
C2153 H2141 0.950 . S
C2153 C2149 1.393 . S
C2153 C2152 1.391 . S
C2154 H2144 0.950 . S
C2154 C2155 1.386 . S
C2154 C2156 1.391 . S
C2155 C2154 1.386 . S
C2155 C2159 1.393 . S
C2156 H2145 0.950 . S
C2156 C2154 1.391 . S
C2156 C2157 1.400 . S
C2157 C2151 1.491 . S
C2157 C2156 1.400 . S
C2157 C2158 1.398 . S
C2158 H2146 0.950 . S
C2158 C2157 1.398 . S
C2158 C2159 1.391 . S
C2159 H2147 0.950 . S
C2159 C2155 1.393 . S
C2159 C2158 1.391 . S
H2160 C2168 0.950 . S
H2161 C2173 0.950 . S
H2162 C2170 0.950 . S
H2163 C2172 0.950 . S
H2164 C2174 0.950 . S
H2165 C2176 0.950 . S
H2166 C2178 0.950 . S
H2167 C2179 0.950 . S
C2168 H2160 0.950 . S
C2168 C2169 1.386 . S
C2168 C2170 1.391 . S
C2169 C2168 1.386 . S
C2169 C2173 1.393 . S
C2170 H2162 0.950 . S
C2170 C2168 1.391 . S
C2170 C2171 1.400 . S
C2171 C2170 1.400 . S
C2171 C2172 1.398 . S
C2171 C2177 1.491 . S
C2172 H2163 0.950 . S
C2172 C2171 1.398 . S
C2172 C2173 1.391 . S
C2173 H2161 0.950 . S
C2173 C2169 1.393 . S
C2173 C2172 1.391 . S
C2174 H2164 0.950 . S
C2174 C2175 1.386 . S
C2174 C2176 1.391 . S
C2175 C2174 1.386 . S
C2175 C2179 1.393 . S
C2176 H2165 0.950 . S
C2176 C2174 1.391 . S
C2176 C2177 1.400 . S
C2177 C2171 1.491 . S
C2177 C2176 1.400 . S
C2177 C2178 1.398 . S
C2178 H2166 0.950 . S
C2178 C2177 1.398 . S
C2178 C2179 1.391 . S
C2179 H2167 0.950 . S
C2179 C2175 1.393 . S
C2179 C2178 1.391 . S
H2180 C2188 0.950 . S
H2181 C2193 0.950 . S
H2182 C2190 0.950 . S
H2183 C2192 0.950 . S
H2184 C2194 0.950 . S
H2185 C2196 0.950 . S
H2186 C2198 0.950 . S
H2187 C2199 0.950 . S
C2188 H2180 0.950 . S
C2188 C2189 1.386 . S
C2188 C2190 1.391 . S
C2189 C2188 1.386 . S
C2189 C2193 1.393 . S
C2190 H2182 0.950 . S
C2190 C2188 1.391 . S
C2190 C2191 1.400 . S
C2191 C2190 1.400 . S
C2191 C2192 1.398 . S
C2191 C2197 1.491 . S
C2192 H2183 0.950 . S
C2192 C2191 1.398 . S
C2192 C2193 1.391 . S
C2193 H2181 0.950 . S
C2193 C2189 1.393 . S
C2193 C2192 1.391 . S
C2194 H2184 0.950 . S
C2194 C2195 1.386 . S
C2194 C2196 1.391 . S
C2195 C2194 1.386 . S
C2195 C2199 1.393 . S
C2196 H2185 0.950 . S
C2196 C2194 1.391 . S
C2196 C2197 1.400 . S
C2197 C2191 1.491 . S
C2197 C2196 1.400 . S
C2197 C2198 1.398 . S
C2198 H2186 0.950 . S
C2198 C2197 1.398 . S
C2198 C2199 1.391 . S
C2199 H2187 0.950 . S
C2199 C2195 1.393 . S
C2199 C2198 1.391 . S
H2200 C2208 0.950 . S
H2201 C2213 0.950 . S
H2202 C2210 0.950 . S
H2203 C2212 0.950 . S
H2204 C2214 0.950 . S
H2205 C2216 0.950 . S
H2206 C2218 0.950 . S
H2207 C2219 0.950 . S
C2208 H2200 0.950 . S
C2208 C2209 1.386 . S
C2208 C2210 1.391 . S
C2209 C2208 1.386 . S
C2209 C2213 1.393 . S
C2210 H2202 0.950 . S
C2210 C2208 1.391 . S
C2210 C2211 1.400 . S
C2211 C2210 1.400 . S
C2211 C2212 1.398 . S
C2211 C2217 1.491 . S
C2212 H2203 0.950 . S
C2212 C2211 1.398 . S
C2212 C2213 1.391 . S
C2213 H2201 0.950 . S
C2213 C2209 1.393 . S
C2213 C2212 1.391 . S
C2214 H2204 0.950 . S
C2214 C2215 1.386 . S
C2214 C2216 1.391 . S
C2215 C2214 1.386 . S
C2215 C2219 1.393 . S
C2216 H2205 0.950 . S
C2216 C2214 1.391 . S
C2216 C2217 1.400 . S
C2217 C2211 1.491 . S
C2217 C2216 1.400 . S
C2217 C2218 1.398 . S
C2218 H2206 0.950 . S
C2218 C2217 1.398 . S
C2218 C2219 1.391 . S
C2219 H2207 0.950 . S
C2219 C2215 1.393 . S
C2219 C2218 1.391 . S
H2220 C2228 0.950 . S
H2221 C2233 0.950 . S
H2222 C2230 0.950 . S
H2223 C2232 0.950 . S
H2224 C2234 0.950 . S
H2225 C2236 0.950 . S
H2226 C2238 0.950 . S
H2227 C2239 0.950 . S
C2228 H2220 0.950 . S
C2228 C2229 1.386 . S
C2228 C2230 1.391 . S
C2229 C2228 1.386 . S
C2229 C2233 1.393 . S
C2230 H2222 0.950 . S
C2230 C2228 1.391 . S
C2230 C2231 1.400 . S
C2231 C2230 1.400 . S
C2231 C2232 1.398 . S
C2231 C2237 1.491 . S
C2232 H2223 0.950 . S
C2232 C2231 1.398 . S
C2232 C2233 1.391 . S
C2233 H2221 0.950 . S
C2233 C2229 1.393 . S
C2233 C2232 1.391 . S
C2234 H2224 0.950 . S
C2234 C2235 1.386 . S
C2234 C2236 1.391 . S
C2235 C2234 1.386 . S
C2235 C2239 1.393 . S
C2236 H2225 0.950 . S
C2236 C2234 1.391 . S
C2236 C2237 1.400 . S
C2237 C2231 1.491 . S
C2237 C2236 1.400 . S
C2237 C2238 1.398 . S
C2238 H2226 0.950 . S
C2238 C2237 1.398 . S
C2238 C2239 1.391 . S
C2239 H2227 0.950 . S
C2239 C2235 1.393 . S
C2239 C2238 1.391 . S
H2240 C2248 0.950 . S
H2241 C2253 0.950 . S
H2242 C2250 0.950 . S
H2243 C2252 0.950 . S
H2244 C2254 0.950 . S
H2245 C2256 0.950 . S
H2246 C2258 0.950 . S
H2247 C2259 0.950 . S
C2248 H2240 0.950 . S
C2248 C2249 1.386 . S
C2248 C2250 1.391 . S
C2249 C2248 1.386 . S
C2249 C2253 1.393 . S
C2250 H2242 0.950 . S
C2250 C2248 1.391 . S
C2250 C2251 1.400 . S
C2251 C2250 1.400 . S
C2251 C2252 1.398 . S
C2251 C2257 1.491 . S
C2252 H2243 0.950 . S
C2252 C2251 1.398 . S
C2252 C2253 1.391 . S
C2253 H2241 0.950 . S
C2253 C2249 1.393 . S
C2253 C2252 1.391 . S
C2254 H2244 0.950 . S
C2254 C2255 1.386 . S
C2254 C2256 1.391 . S
C2255 C2254 1.386 . S
C2255 C2259 1.393 . S
C2256 H2245 0.950 . S
C2256 C2254 1.391 . S
C2256 C2257 1.400 . S
C2257 C2251 1.491 . S
C2257 C2256 1.400 . S
C2257 C2258 1.398 . S
C2258 H2246 0.950 . S
C2258 C2257 1.398 . S
C2258 C2259 1.391 . S
C2259 H2247 0.950 . S
C2259 C2255 1.393 . S
C2259 C2258 1.391 . S
H2260 C2268 0.950 . S
H2261 C2273 0.950 . S
H2262 C2270 0.950 . S
H2263 C2272 0.950 . S
H2264 C2274 0.950 . S
H2265 C2276 0.950 . S
H2266 C2278 0.950 . S
H2267 C2279 0.950 . S
C2268 H2260 0.950 . S
C2268 C2269 1.386 . S
C2268 C2270 1.391 . S
C2269 C2268 1.386 . S
C2269 C2273 1.393 . S
C2270 H2262 0.950 . S
C2270 C2268 1.391 . S
C2270 C2271 1.400 . S
C2271 C2270 1.400 . S
C2271 C2272 1.398 . S
C2271 C2277 1.491 . S
C2272 H2263 0.950 . S
C2272 C2271 1.398 . S
C2272 C2273 1.391 . S
C2273 H2261 0.950 . S
C2273 C2269 1.393 . S
C2273 C2272 1.391 . S
C2274 H2264 0.950 . S
C2274 C2275 1.386 . S
C2274 C2276 1.391 . S
C2275 C2274 1.386 . S
C2275 C2279 1.393 . S
C2276 H2265 0.950 . S
C2276 C2274 1.391 . S
C2276 C2277 1.400 . S
C2277 C2271 1.491 . S
C2277 C2276 1.400 . S
C2277 C2278 1.398 . S
C2278 H2266 0.950 . S
C2278 C2277 1.398 . S
C2278 C2279 1.391 . S
C2279 H2267 0.950 . S
C2279 C2275 1.393 . S
C2279 C2278 1.391 . S
H2280 C2288 0.950 . S
H2281 C2293 0.950 . S
H2282 C2290 0.950 . S
H2283 C2292 0.950 . S
H2284 C2294 0.950 . S
H2285 C2296 0.950 . S
H2286 C2298 0.950 . S
H2287 C2299 0.950 1_545 S
C2288 H2280 0.950 . S
C2288 C2289 1.386 . S
C2288 C2290 1.391 . S
C2289 C2288 1.386 . S
C2289 C2293 1.393 . S
C2290 H2282 0.950 . S
C2290 C2288 1.391 . S
C2290 C2291 1.400 . S
C2291 C2290 1.400 . S
C2291 C2292 1.398 . S
C2291 C2297 1.491 . S
C2292 H2283 0.950 . S
C2292 C2291 1.398 . S
C2292 C2293 1.391 . S
C2293 H2281 0.950 . S
C2293 C2289 1.393 . S
C2293 C2292 1.391 . S
C2294 H2284 0.950 . S
C2294 C2295 1.386 . S
C2294 C2296 1.391 . S
C2295 C2294 1.386 . S
C2295 C2299 1.393 . S
C2296 H2285 0.950 . S
C2296 C2294 1.391 . S
C2296 C2297 1.400 . S
C2297 C2291 1.491 . S
C2297 C2296 1.400 . S
C2297 C2298 1.398 . S
C2298 H2286 0.950 . S
C2298 C2297 1.398 . S
C2298 C2299 1.391 . S
C2299 H2287 0.950 1_565 S
C2299 C2295 1.393 . S
C2299 C2298 1.391 . S
H2300 C2308 0.950 . S
H2301 C2313 0.950 . S
H2302 C2310 0.950 . S
H2303 C2312 0.950 . S
H2304 C2314 0.950 . S
H2305 C2316 0.950 . S
H2306 C2318 0.950 . S
H2307 C2319 0.950 . S
C2308 H2300 0.950 . S
C2308 C2309 1.386 . S
C2308 C2310 1.391 . S
C2309 C2308 1.386 . S
C2309 C2313 1.393 . S
C2310 H2302 0.950 . S
C2310 C2308 1.391 . S
C2310 C2311 1.400 . S
C2311 C2310 1.400 . S
C2311 C2312 1.398 . S
C2311 C2317 1.491 . S
C2312 H2303 0.950 . S
C2312 C2311 1.398 . S
C2312 C2313 1.391 . S
C2313 H2301 0.950 . S
C2313 C2309 1.393 . S
C2313 C2312 1.391 . S
C2314 H2304 0.950 . S
C2314 C2315 1.386 . S
C2314 C2316 1.391 . S
C2315 C2314 1.386 . S
C2315 C2319 1.393 . S
C2316 H2305 0.950 . S
C2316 C2314 1.391 . S
C2316 C2317 1.400 . S
C2317 C2311 1.491 . S
C2317 C2316 1.400 . S
C2317 C2318 1.398 . S
C2318 H2306 0.950 . S
C2318 C2317 1.398 . S
C2318 C2319 1.391 . S
C2319 H2307 0.950 . S
C2319 C2315 1.393 . S
C2319 C2318 1.391 . S
H2320 C2328 0.950 . S
H2321 C2333 0.950 . S
H2322 C2330 0.950 . S
H2323 C2332 0.950 . S
H2324 C2334 0.950 . S
H2325 C2336 0.950 . S
H2326 C2338 0.950 . S
H2327 C2339 0.950 . S
C2328 H2320 0.950 . S
C2328 C2329 1.386 1_565 S
C2328 C2330 1.391 . S
C2329 C2328 1.386 1_545 S
C2329 C2333 1.393 . S
C2330 H2322 0.950 . S
C2330 C2328 1.391 . S
C2330 C2331 1.400 1_565 S
C2331 C2330 1.400 1_545 S
C2331 C2332 1.398 . S
C2331 C2337 1.491 . S
C2332 H2323 0.950 . S
C2332 C2331 1.398 . S
C2332 C2333 1.391 . S
C2333 H2321 0.950 . S
C2333 C2329 1.393 . S
C2333 C2332 1.391 . S
C2334 H2324 0.950 . S
C2334 C2335 1.386 . S
C2334 C2336 1.391 . S
C2335 C2334 1.386 . S
C2335 C2339 1.393 1_545 S
C2336 H2325 0.950 . S
C2336 C2334 1.391 . S
C2336 C2337 1.400 . S
C2337 C2331 1.491 . S
C2337 C2336 1.400 . S
C2337 C2338 1.398 1_545 S
C2338 H2326 0.950 . S
C2338 C2337 1.398 1_565 S
C2338 C2339 1.391 . S
C2339 H2327 0.950 . S
C2339 C2335 1.393 1_565 S
C2339 C2338 1.391 . S
H2340 C2348 0.950 . S
H2341 C2353 0.950 . S
H2342 C2350 0.950 . S
H2343 C2352 0.950 . S
H2344 C2354 0.950 . S
H2345 C2356 0.950 . S
H2346 C2358 0.950 . S
H2347 C2359 0.950 . S
C2348 H2340 0.950 . S
C2348 C2349 1.386 . S
C2348 C2350 1.391 . S
C2349 C2348 1.386 . S
C2349 C2353 1.393 . S
C2350 H2342 0.950 . S
C2350 C2348 1.391 . S
C2350 C2351 1.400 . S
C2351 C2350 1.400 . S
C2351 C2352 1.398 . S
C2351 C2357 1.491 . S
C2352 H2343 0.950 . S
C2352 C2351 1.398 . S
C2352 C2353 1.391 . S
C2353 H2341 0.950 . S
C2353 C2349 1.393 . S
C2353 C2352 1.391 . S
C2354 H2344 0.950 . S
C2354 C2355 1.386 . S
C2354 C2356 1.391 . S
C2355 C2354 1.386 . S
C2355 C2359 1.393 . S
C2356 H2345 0.950 . S
C2356 C2354 1.391 . S
C2356 C2357 1.400 . S
C2357 C2351 1.491 . S
C2357 C2356 1.400 . S
C2357 C2358 1.398 . S
C2358 H2346 0.950 . S
C2358 C2357 1.398 . S
C2358 C2359 1.391 . S
C2359 H2347 0.950 . S
C2359 C2355 1.393 . S
C2359 C2358 1.391 . S
H2360 C2368 0.950 . S
H2361 C2373 0.950 1_565 S
H2362 C2370 0.950 . S
H2363 C2372 0.988 . S
H2364 C2374 0.950 . S
H2365 C2376 0.950 . S
H2366 C2378 0.950 . S
H2367 C2379 0.950 . S
C2368 H2360 0.950 . S
C2368 C2369 1.386 . S
C2368 C2370 1.391 . S
C2369 C2368 1.386 . S
C2369 C2373 1.393 . S
C2370 H2362 0.950 . S
C2370 C2368 1.391 . S
C2370 C2371 1.400 . S
C2371 C2370 1.400 . S
C2371 C2372 1.398 . S
C2371 C2377 1.491 . S
C2372 H2363 0.988 . S
C2372 C2371 1.398 . S
C2372 C2373 1.391 . S
C2373 H2361 0.950 1_545 S
C2373 C2369 1.393 . S
C2373 C2372 1.391 . S
C2374 H2364 0.950 . S
C2374 C2375 1.386 . S
C2374 C2376 1.391 . S
C2375 C2374 1.386 . S
C2375 C2379 1.393 . S
C2376 H2365 0.950 . S
C2376 C2374 1.391 . S
C2376 C2377 1.400 . S
C2377 C2371 1.491 . S
C2377 C2376 1.400 . S
C2377 C2378 1.398 . S
C2378 H2366 0.950 . S
C2378 C2377 1.398 . S
C2378 C2379 1.391 . S
C2379 H2367 0.950 . S
C2379 C2375 1.393 . S
C2379 C2378 1.391 . S
H2380 C2388 0.950 . S
H2381 C2393 0.950 . S
H2382 C2390 0.950 . S
H2383 C2392 0.950 . S
H2384 C2394 0.950 . S
H2385 C2396 0.950 . S
H2386 C2398 0.950 . S
H2387 C2399 0.950 . S
C2388 H2380 0.950 . S
C2388 C2389 1.386 . S
C2388 C2390 1.391 . S
C2389 C2388 1.386 . S
C2389 C2393 1.393 . S
C2390 H2382 0.950 . S
C2390 C2388 1.391 . S
C2390 C2391 1.400 . S
C2391 C2390 1.400 . S
C2391 C2392 1.398 . S
C2391 C2397 1.491 . S
C2392 H2383 0.950 . S
C2392 C2391 1.398 . S
C2392 C2393 1.391 . S
C2393 H2381 0.950 . S
C2393 C2389 1.393 . S
C2393 C2392 1.391 . S
C2394 H2384 0.950 . S
C2394 C2395 1.386 . S
C2394 C2396 1.391 . S
C2395 C2394 1.386 . S
C2395 C2399 1.393 . S
C2396 H2385 0.950 . S
C2396 C2394 1.391 . S
C2396 C2397 1.400 . S
C2397 C2391 1.491 . S
C2397 C2396 1.400 . S
C2397 C2398 1.398 . S
C2398 H2386 0.950 . S
C2398 C2397 1.398 . S
C2398 C2399 1.391 . S
C2399 H2387 0.950 . S
C2399 C2395 1.393 . S
C2399 C2398 1.391 . S
H2400 C2408 0.950 . S
H2401 C2413 0.950 . S
H2402 C2410 0.950 . S
H2403 C2412 0.950 . S
H2404 C2414 0.950 1_565 S
H2405 C2416 0.950 1_565 S
H2406 C2418 0.950 . S
H2407 C2419 0.950 . S
C2408 H2400 0.950 . S
C2408 C2409 1.386 1_545 S
C2408 C2410 1.391 . S
C2409 C2408 1.386 1_565 S
C2409 C2413 1.393 . S
C2410 H2402 0.950 . S
C2410 C2408 1.391 . S
C2410 C2411 1.400 . S
C2411 C2410 1.400 . S
C2411 C2412 1.398 1_545 S
C2411 C2417 1.491 . S
C2412 H2403 0.950 . S
C2412 C2411 1.398 1_565 S
C2412 C2413 1.391 . S
C2413 H2401 0.950 . S
C2413 C2409 1.393 . S
C2413 C2412 1.391 . S
C2414 H2404 0.950 1_545 S
C2414 C2415 1.386 . S
C2414 C2416 1.391 . S
C2415 C2414 1.386 . S
C2415 C2419 1.393 . S
C2416 H2405 0.950 1_545 S
C2416 C2414 1.391 . S
C2416 C2417 1.400 . S
C2417 C2411 1.491 . S
C2417 C2416 1.400 . S
C2417 C2418 1.398 . S
C2418 H2406 0.950 . S
C2418 C2417 1.398 . S
C2418 C2419 1.391 . S
C2419 H2407 0.950 . S
C2419 C2415 1.393 . S
C2419 C2418 1.391 . S
H2420 C2428 0.950 . S
H2421 C2433 0.950 . S
H2422 C2430 0.950 . S
H2423 C2432 0.950 . S
H2424 C2434 0.950 . S
H2425 C2436 0.950 . S
H2426 C2438 0.950 . S
H2427 C2439 0.950 . S
C2428 H2420 0.950 . S
C2428 C2429 1.386 . S
C2428 C2430 1.391 . S
C2429 C2428 1.386 . S
C2429 C2433 1.393 . S
C2430 H2422 0.950 . S
C2430 C2428 1.391 . S
C2430 C2431 1.400 . S
C2431 C2430 1.400 . S
C2431 C2432 1.398 . S
C2431 C2437 1.491 . S
C2432 H2423 0.950 . S
C2432 C2431 1.398 . S
C2432 C2433 1.391 . S
C2433 H2421 0.950 . S
C2433 C2429 1.393 . S
C2433 C2432 1.391 . S
C2434 H2424 0.950 . S
C2434 C2435 1.386 . S
C2434 C2436 1.391 . S
C2435 C2434 1.386 . S
C2435 C2439 1.393 . S
C2436 H2425 0.950 . S
C2436 C2434 1.391 . S
C2436 C2437 1.400 . S
C2437 C2431 1.491 . S
C2437 C2436 1.400 . S
C2437 C2438 1.398 . S
C2438 H2426 0.950 . S
C2438 C2437 1.398 . S
C2438 C2439 1.391 . S
C2439 H2427 0.950 . S
C2439 C2435 1.393 . S
C2439 C2438 1.391 . S
H2440 C2448 0.950 . S
H2441 C2453 0.950 . S
H2442 C2450 0.950 . S
H2443 C2452 0.950 . S
H2444 C2454 0.950 . S
H2445 C2456 0.950 . S
H2446 C2458 0.950 . S
H2447 C2459 0.950 . S
C2448 H2440 0.950 . S
C2448 C2449 1.386 . S
C2448 C2450 1.391 . S
C2449 C2448 1.386 . S
C2449 C2453 1.393 . S
C2450 H2442 0.950 . S
C2450 C2448 1.391 . S
C2450 C2451 1.400 . S
C2451 C2450 1.400 . S
C2451 C2452 1.398 . S
C2451 C2457 1.491 . S
C2452 H2443 0.950 . S
C2452 C2451 1.398 . S
C2452 C2453 1.391 . S
C2453 H2441 0.950 . S
C2453 C2449 1.393 . S
C2453 C2452 1.391 . S
C2454 H2444 0.950 . S
C2454 C2455 1.386 . S
C2454 C2456 1.391 . S
C2455 C2454 1.386 . S
C2455 C2459 1.393 . S
C2456 H2445 0.950 . S
C2456 C2454 1.391 . S
C2456 C2457 1.400 . S
C2457 C2451 1.491 . S
C2457 C2456 1.400 . S
C2457 C2458 1.398 . S
C2458 H2446 0.950 . S
C2458 C2457 1.398 . S
C2458 C2459 1.391 . S
C2459 H2447 0.950 . S
C2459 C2455 1.393 . S
C2459 C2458 1.391 . S
H2460 C2468 0.950 . S
H2461 C2473 0.950 . S
H2462 C2470 0.950 . S
H2463 C2472 0.950 . S
H2464 C2474 0.950 . S
H2465 C2476 0.950 . S
H2466 C2478 0.950 . S
H2467 C2479 0.950 . S
C2468 H2460 0.950 . S
C2468 C2469 1.386 . S
C2468 C2470 1.391 . S
C2469 C2468 1.386 . S
C2469 C2473 1.393 . S
C2470 H2462 0.950 . S
C2470 C2468 1.391 . S
C2470 C2471 1.400 . S
C2471 C2470 1.400 . S
C2471 C2472 1.398 . S
C2471 C2477 1.491 . S
C2472 H2463 0.950 . S
C2472 C2471 1.398 . S
C2472 C2473 1.391 . S
C2473 H2461 0.950 . S
C2473 C2469 1.393 . S
C2473 C2472 1.391 . S
C2474 H2464 0.950 . S
C2474 C2475 1.386 . S
C2474 C2476 1.391 . S
C2475 C2474 1.386 . S
C2475 C2479 1.393 . S
C2476 H2465 0.950 . S
C2476 C2474 1.391 . S
C2476 C2477 1.400 . S
C2477 C2471 1.491 . S
C2477 C2476 1.400 . S
C2477 C2478 1.398 . S
C2478 H2466 0.950 . S
C2478 C2477 1.398 . S
C2478 C2479 1.391 . S
C2479 H2467 0.950 . S
C2479 C2475 1.393 . S
C2479 C2478 1.391 . S
H2480 C2488 0.950 . S
H2481 C2493 0.950 . S
H2482 C2490 0.950 . S
H2483 C2492 0.950 . S
H2484 C2494 0.950 . S
H2485 C2496 0.950 . S
H2486 C2498 0.950 . S
H2487 C2499 0.950 . S
C2488 H2480 0.950 . S
C2488 C2489 1.386 . S
C2488 C2490 1.391 . S
C2489 C2488 1.386 . S
C2489 C2493 1.393 . S
C2490 H2482 0.950 . S
C2490 C2488 1.391 . S
C2490 C2491 1.400 . S
C2491 C2490 1.400 . S
C2491 C2492 1.398 . S
C2491 C2497 1.491 . S
C2492 H2483 0.950 . S
C2492 C2491 1.398 . S
C2492 C2493 1.391 . S
C2493 H2481 0.950 . S
C2493 C2489 1.393 . S
C2493 C2492 1.391 . S
C2494 H2484 0.950 . S
C2494 C2495 1.386 . S
C2494 C2496 1.391 . S
C2495 C2494 1.386 . S
C2495 C2499 1.393 . S
C2496 H2485 0.950 . S
C2496 C2494 1.391 . S
C2496 C2497 1.400 . S
C2497 C2491 1.491 . S
C2497 C2496 1.400 . S
C2497 C2498 1.398 . S
C2498 H2486 0.950 . S
C2498 C2497 1.398 . S
C2498 C2499 1.391 . S
C2499 H2487 0.950 . S
C2499 C2495 1.393 . S
C2499 C2498 1.391 . S
H2500 C2508 0.950 . S
H2501 C2513 0.950 . S
H2502 C2510 0.950 . S
H2503 C2512 0.950 . S
H2504 C2514 0.950 . S
H2505 C2516 0.950 . S
H2506 C2518 0.950 . S
H2507 C2519 0.950 . S
C2508 H2500 0.950 . S
C2508 C2509 1.386 . S
C2508 C2510 1.391 . S
C2509 C2508 1.386 . S
C2509 C2513 1.393 . S
C2510 H2502 0.950 . S
C2510 C2508 1.391 . S
C2510 C2511 1.400 . S
C2511 C2510 1.400 . S
C2511 C2512 1.398 . S
C2511 C2517 1.491 . S
C2512 H2503 0.950 . S
C2512 C2511 1.398 . S
C2512 C2513 1.391 . S
C2513 H2501 0.950 . S
C2513 C2509 1.393 . S
C2513 C2512 1.391 . S
C2514 H2504 0.950 . S
C2514 C2515 1.386 . S
C2514 C2516 1.391 . S
C2515 C2514 1.386 . S
C2515 C2519 1.393 . S
C2516 H2505 0.950 . S
C2516 C2514 1.391 . S
C2516 C2517 1.400 . S
C2517 C2511 1.491 . S
C2517 C2516 1.400 . S
C2517 C2518 1.398 . S
C2518 H2506 0.950 . S
C2518 C2517 1.398 . S
C2518 C2519 1.391 . S
C2519 H2507 0.950 . S
C2519 C2515 1.393 . S
C2519 C2518 1.391 . S
H2520 C2528 0.950 . S
H2521 C2533 0.950 . S
H2522 C2530 0.950 . S
H2523 C2532 0.950 . S
H2524 C2534 0.950 . S
H2525 C2536 0.950 . S
H2526 C2538 0.950 . S
H2527 C2539 0.950 . S
C2528 H2520 0.950 . S
C2528 C2529 1.386 . S
C2528 C2530 1.391 . S
C2529 C2528 1.386 . S
C2529 C2533 1.393 . S
C2530 H2522 0.950 . S
C2530 C2528 1.391 . S
C2530 C2531 1.400 . S
C2531 C2530 1.400 . S
C2531 C2532 1.398 . S
C2531 C2537 1.491 . S
C2532 H2523 0.950 . S
C2532 C2531 1.398 . S
C2532 C2533 1.391 . S
C2533 H2521 0.950 . S
C2533 C2529 1.393 . S
C2533 C2532 1.391 . S
C2534 H2524 0.950 . S
C2534 C2535 1.386 . S
C2534 C2536 1.391 . S
C2535 C2534 1.386 . S
C2535 C2539 1.393 . S
C2536 H2525 0.950 . S
C2536 C2534 1.391 . S
C2536 C2537 1.400 . S
C2537 C2531 1.491 . S
C2537 C2536 1.400 . S
C2537 C2538 1.398 . S
C2538 H2526 0.950 . S
C2538 C2537 1.398 . S
C2538 C2539 1.391 . S
C2539 H2527 0.950 . S
C2539 C2535 1.393 . S
C2539 C2538 1.391 . S
H2540 C2548 0.950 . S
H2541 C2553 0.950 . S
H2542 C2550 0.950 . S
H2543 C2552 0.950 . S
H2544 C2554 0.950 . S
H2545 C2556 0.950 . S
H2546 C2558 0.950 . S
H2547 C2559 0.950 . S
C2548 H2540 0.950 . S
C2548 C2549 1.386 . S
C2548 C2550 1.391 . S
C2549 C2548 1.386 . S
C2549 C2553 1.393 . S
C2550 H2542 0.950 . S
C2550 C2548 1.391 . S
C2550 C2551 1.400 . S
C2551 C2550 1.400 . S
C2551 C2552 1.398 . S
C2551 C2557 1.491 . S
C2552 H2543 0.950 . S
C2552 C2551 1.398 . S
C2552 C2553 1.391 . S
C2553 H2541 0.950 . S
C2553 C2549 1.393 . S
C2553 C2552 1.391 . S
C2554 H2544 0.950 . S
C2554 C2555 1.386 . S
C2554 C2556 1.391 . S
C2555 C2554 1.386 . S
C2555 C2559 1.393 . S
C2556 H2545 0.950 . S
C2556 C2554 1.391 . S
C2556 C2557 1.400 . S
C2557 C2551 1.491 . S
C2557 C2556 1.400 . S
C2557 C2558 1.398 . S
C2558 H2546 0.950 . S
C2558 C2557 1.398 . S
C2558 C2559 1.391 . S
C2559 H2547 0.950 . S
C2559 C2555 1.393 . S
C2559 C2558 1.391 . S
H2560 C2568 0.950 1_545 S
H2561 C2573 0.950 . S
H2562 C2570 0.950 . S
H2563 C2572 0.950 . S
H2564 C2574 0.950 . S
H2565 C2576 0.950 . S
H2566 C2578 0.950 . S
H2567 C2579 0.950 . S
C2568 H2560 0.950 1_565 S
C2568 C2569 1.386 . S
C2568 C2570 1.391 . S
C2569 C2568 1.386 . S
C2569 C2573 1.393 . S
C2570 H2562 0.950 . S
C2570 C2568 1.391 . S
C2570 C2571 1.400 . S
C2571 C2570 1.400 . S
C2571 C2572 1.398 . S
C2571 C2577 1.491 . S
C2572 H2563 0.950 . S
C2572 C2571 1.398 . S
C2572 C2573 1.391 . S
C2573 H2561 0.950 . S
C2573 C2569 1.393 . S
C2573 C2572 1.391 . S
C2574 H2564 0.950 . S
C2574 C2575 1.386 . S
C2574 C2576 1.391 . S
C2575 C2574 1.386 . S
C2575 C2579 1.393 . S
C2576 H2565 0.950 . S
C2576 C2574 1.391 . S
C2576 C2577 1.400 . S
C2577 C2571 1.491 . S
C2577 C2576 1.400 . S
C2577 C2578 1.398 . S
C2578 H2566 0.950 . S
C2578 C2577 1.398 . S
C2578 C2579 1.391 . S
C2579 H2567 0.950 . S
C2579 C2575 1.393 . S
C2579 C2578 1.391 . S
H2580 C2588 0.950 . S
H2581 C2593 0.950 . S
H2582 C2590 0.950 . S
H2583 C2592 0.950 . S
H2584 C2594 0.950 . S
H2585 C2596 0.950 . S
H2586 C2598 0.950 . S
H2587 C2599 0.950 . S
C2588 H2580 0.950 . S
C2588 C2589 1.386 . S
C2588 C2590 1.391 . S
C2589 C2588 1.386 . S
C2589 C2593 1.393 . S
C2590 H2582 0.950 . S
C2590 C2588 1.391 . S
C2590 C2591 1.400 . S
C2591 C2590 1.400 . S
C2591 C2592 1.398 . S
C2591 C2597 1.491 . S
C2592 H2583 0.950 . S
C2592 C2591 1.398 . S
C2592 C2593 1.391 . S
C2593 H2581 0.950 . S
C2593 C2589 1.393 . S
C2593 C2592 1.391 . S
C2594 H2584 0.950 . S
C2594 C2595 1.386 . S
C2594 C2596 1.391 . S
C2595 C2594 1.386 . S
C2595 C2599 1.393 . S
C2596 H2585 0.950 . S
C2596 C2594 1.391 . S
C2596 C2597 1.400 . S
C2597 C2591 1.491 . S
C2597 C2596 1.400 . S
C2597 C2598 1.398 . S
C2598 H2586 0.950 . S
C2598 C2597 1.398 . S
C2598 C2599 1.391 . S
C2599 H2587 0.950 . S
C2599 C2595 1.393 . S
C2599 C2598 1.391 . S
H2600 C2608 0.950 . S
H2601 C2613 0.950 . S
H2602 C2610 0.950 . S
H2603 C2612 0.950 . S
H2604 C2614 0.950 . S
H2605 C2616 0.950 . S
H2606 C2618 0.950 . S
H2607 C2619 0.950 . S
C2608 H2600 0.950 . S
C2608 C2609 1.386 . S
C2608 C2610 1.391 . S
C2609 C2608 1.386 . S
C2609 C2613 1.393 . S
C2610 H2602 0.950 . S
C2610 C2608 1.391 . S
C2610 C2611 1.400 . S
C2611 C2610 1.400 . S
C2611 C2612 1.398 . S
C2611 C2617 1.491 . S
C2612 H2603 0.950 . S
C2612 C2611 1.398 . S
C2612 C2613 1.391 . S
C2613 H2601 0.950 . S
C2613 C2609 1.393 . S
C2613 C2612 1.391 . S
C2614 H2604 0.950 . S
C2614 C2615 1.386 . S
C2614 C2616 1.391 . S
C2615 C2614 1.386 . S
C2615 C2619 1.393 . S
C2616 H2605 0.950 . S
C2616 C2614 1.391 . S
C2616 C2617 1.400 . S
C2617 C2611 1.491 . S
C2617 C2616 1.400 . S
C2617 C2618 1.398 . S
C2618 H2606 0.950 . S
C2618 C2617 1.398 . S
C2618 C2619 1.391 . S
C2619 H2607 0.950 . S
C2619 C2615 1.393 . S
C2619 C2618 1.391 . S
H2620 C2628 0.950 . S
H2621 C2633 0.950 . S
H2622 C2630 0.950 . S
H2623 C2632 0.950 . S
H2624 C2634 0.950 . S
H2625 C2636 0.950 . S
H2626 C2638 0.950 . S
H2627 C2639 0.950 . S
C2628 H2620 0.950 . S
C2628 C2629 1.386 . S
C2628 C2630 1.391 . S
C2629 C2628 1.386 . S
C2629 C2633 1.393 . S
C2630 H2622 0.950 . S
C2630 C2628 1.391 . S
C2630 C2631 1.400 . S
C2631 C2630 1.400 . S
C2631 C2632 1.398 . S
C2631 C2637 1.491 . S
C2632 H2623 0.950 . S
C2632 C2631 1.398 . S
C2632 C2633 1.391 . S
C2633 H2621 0.950 . S
C2633 C2629 1.393 . S
C2633 C2632 1.391 . S
C2634 H2624 0.950 . S
C2634 C2635 1.386 . S
C2634 C2636 1.391 . S
C2635 C2634 1.386 . S
C2635 C2639 1.393 . S
C2636 H2625 0.950 . S
C2636 C2634 1.391 . S
C2636 C2637 1.400 . S
C2637 C2631 1.491 . S
C2637 C2636 1.400 . S
C2637 C2638 1.398 . S
C2638 H2626 0.950 . S
C2638 C2637 1.398 . S
C2638 C2639 1.391 . S
C2639 H2627 0.950 . S
C2639 C2635 1.393 . S
C2639 C2638 1.391 . S
H2640 C2648 0.950 . S
H2641 C2653 0.950 . S
H2642 C2650 0.950 . S
H2643 C2652 0.950 . S
H2644 C2654 0.950 . S
H2645 C2656 0.950 . S
H2646 C2658 0.950 . S
H2647 C2659 0.950 . S
C2648 H2640 0.950 . S
C2648 C2649 1.386 . S
C2648 C2650 1.391 . S
C2649 C2648 1.386 . S
C2649 C2653 1.393 . S
C2650 H2642 0.950 . S
C2650 C2648 1.391 . S
C2650 C2651 1.400 . S
C2651 C2650 1.400 . S
C2651 C2652 1.398 . S
C2651 C2657 1.491 . S
C2652 H2643 0.950 . S
C2652 C2651 1.398 . S
C2652 C2653 1.391 . S
C2653 H2641 0.950 . S
C2653 C2649 1.393 . S
C2653 C2652 1.391 . S
C2654 H2644 0.950 . S
C2654 C2655 1.386 . S
C2654 C2656 1.391 . S
C2655 C2654 1.386 . S
C2655 C2659 1.393 . S
C2656 H2645 0.950 . S
C2656 C2654 1.391 . S
C2656 C2657 1.400 . S
C2657 C2651 1.491 . S
C2657 C2656 1.400 . S
C2657 C2658 1.398 . S
C2658 H2646 0.950 . S
C2658 C2657 1.398 . S
C2658 C2659 1.391 . S
C2659 H2647 0.950 . S
C2659 C2655 1.393 . S
C2659 C2658 1.391 . S
H2660 C2668 0.950 . S
H2661 C2673 0.950 . S
H2662 C2670 0.950 . S
H2663 C2672 0.950 . S
H2664 C2674 0.950 . S
H2665 C2676 0.950 . S
H2666 C2678 0.950 . S
H2667 C2679 0.950 . S
C2668 H2660 0.950 . S
C2668 C2669 1.386 . S
C2668 C2670 1.391 . S
C2669 C2668 1.386 . S
C2669 C2673 1.393 . S
C2670 H2662 0.950 . S
C2670 C2668 1.391 . S
C2670 C2671 1.400 . S
C2671 C2670 1.400 . S
C2671 C2672 1.398 . S
C2671 C2677 1.491 . S
C2672 H2663 0.950 . S
C2672 C2671 1.398 . S
C2672 C2673 1.391 . S
C2673 H2661 0.950 . S
C2673 C2669 1.393 . S
C2673 C2672 1.391 . S
C2674 H2664 0.950 . S
C2674 C2675 1.386 . S
C2674 C2676 1.391 . S
C2675 C2674 1.386 . S
C2675 C2679 1.393 . S
C2676 H2665 0.950 . S
C2676 C2674 1.391 . S
C2676 C2677 1.400 . S
C2677 C2671 1.491 . S
C2677 C2676 1.400 . S
C2677 C2678 1.398 . S
C2678 H2666 0.950 . S
C2678 C2677 1.398 . S
C2678 C2679 1.391 . S
C2679 H2667 0.950 . S
C2679 C2675 1.393 . S
C2679 C2678 1.391 . S
H2680 C2688 0.950 . S
H2681 C2693 0.950 1_655 S
H2682 C2690 0.950 . S
H2683 C2692 0.983 . S
H2684 C2694 0.950 . S
H2685 C2696 0.950 . S
H2686 C2698 0.950 . S
H2687 C2699 0.950 . S
C2688 H2680 0.950 . S
C2688 C2689 1.386 . S
C2688 C2690 1.391 . S
C2689 C2688 1.386 . S
C2689 C2693 1.393 . S
C2690 H2682 0.950 . S
C2690 C2688 1.391 . S
C2690 C2691 1.400 . S
C2691 C2690 1.400 . S
C2691 C2692 1.398 . S
C2691 C2697 1.491 . S
C2692 H2683 0.983 . S
C2692 C2691 1.398 . S
C2692 C2693 1.391 . S
C2693 H2681 0.950 1_455 S
C2693 C2689 1.393 . S
C2693 C2692 1.391 . S
C2694 H2684 0.950 . S
C2694 C2695 1.386 . S
C2694 C2696 1.391 1_554 S
C2695 C2694 1.386 . S
C2695 C2699 1.393 . S
C2696 H2685 0.950 . S
C2696 C2694 1.391 1_556 S
C2696 C2697 1.400 . S
C2697 C2691 1.491 . S
C2697 C2696 1.400 . S
C2697 C2698 1.398 1_556 S
C2698 H2686 0.950 . S
C2698 C2697 1.398 1_554 S
C2698 C2699 1.391 . S
C2699 H2687 0.950 . S
C2699 C2695 1.393 . S
C2699 C2698 1.391 . S
H2700 C2708 0.950 . S
H2701 C2713 0.950 . S
H2702 C2710 0.950 1_655 S
H2703 C2712 0.950 . S
H2704 C2714 0.950 . S
H2705 C2716 0.950 . S
H2706 C2718 0.950 . S
H2707 C2719 0.950 . S
C2708 H2700 0.950 . S
C2708 C2709 1.386 . S
C2708 C2710 1.391 . S
C2709 C2708 1.386 . S
C2709 C2713 1.393 . S
C2710 H2702 0.950 1_455 S
C2710 C2708 1.391 . S
C2710 C2711 1.396 1_455 S
C2711 C2710 1.396 1_655 S
C2711 C2712 1.364 1_655 S
C2711 C2717 1.529 . S
C2712 H2703 0.950 . S
C2712 C2711 1.364 1_455 S
C2712 C2713 1.391 . S
C2713 H2701 0.950 . S
C2713 C2709 1.393 . S
C2713 C2712 1.391 . S
C2714 H2704 0.950 . S
C2714 C2715 1.386 . S
C2714 C2716 1.391 . S
C2715 C2714 1.386 . S
C2715 C2719 1.393 . S
C2716 H2705 0.950 . S
C2716 C2714 1.391 . S
C2716 C2717 1.400 . S
C2717 C2711 1.529 . S
C2717 C2716 1.400 . S
C2717 C2718 1.398 . S
C2718 H2706 0.950 . S
C2718 C2717 1.398 . S
C2718 C2719 1.391 . S
C2719 H2707 0.950 . S
C2719 C2715 1.393 . S
C2719 C2718 1.391 . S
H2720 C2728 0.950 . S
H2721 C2733 0.950 . S
H2722 C2730 0.950 . S
H2723 C2732 0.950 . S
H2724 C2734 0.950 . S
H2725 C2736 0.950 . S
H2726 C2738 0.950 . S
H2727 C2739 0.950 . S
C2728 H2720 0.950 . S
C2728 C2729 1.386 . S
C2728 C2730 1.391 . S
C2729 C2728 1.386 . S
C2729 C2733 1.393 . S
C2730 H2722 0.950 . S
C2730 C2728 1.391 . S
C2730 C2731 1.400 . S
C2731 C2730 1.400 . S
C2731 C2732 1.398 . S
C2731 C2737 1.491 . S
C2732 H2723 0.950 . S
C2732 C2731 1.398 . S
C2732 C2733 1.391 . S
C2733 H2721 0.950 . S
C2733 C2729 1.393 . S
C2733 C2732 1.391 . S
C2734 H2724 0.950 . S
C2734 C2735 1.386 . S
C2734 C2736 1.391 . S
C2735 C2734 1.386 . S
C2735 C2739 1.393 . S
C2736 H2725 0.950 . S
C2736 C2734 1.391 . S
C2736 C2737 1.400 . S
C2737 C2731 1.491 . S
C2737 C2736 1.400 . S
C2737 C2738 1.398 . S
C2738 H2726 0.950 . S
C2738 C2737 1.398 . S
C2738 C2739 1.391 . S
C2739 H2727 0.950 . S
C2739 C2735 1.393 . S
C2739 C2738 1.391 . S
H2740 C2748 0.950 . S
H2741 C2753 0.950 . S
H2742 C2750 0.950 . S
H2743 C2752 0.950 . S
H2744 C2754 0.950 . S
H2745 C2756 0.950 1_455 S
H2746 C2758 0.950 . S
H2747 C2759 0.950 . S
C2748 H2740 0.950 . S
C2748 C2749 1.386 . S
C2748 C2750 1.391 . S
C2749 C2748 1.386 . S
C2749 C2753 1.393 . S
C2750 H2742 0.950 . S
C2750 C2748 1.391 . S
C2750 C2751 1.400 . S
C2751 C2750 1.400 . S
C2751 C2752 1.398 . S
C2751 C2757 1.491 . S
C2752 H2743 0.950 . S
C2752 C2751 1.398 . S
C2752 C2753 1.391 . S
C2753 H2741 0.950 . S
C2753 C2749 1.393 . S
C2753 C2752 1.391 . S
C2754 H2744 0.950 . S
C2754 C2755 1.386 . S
C2754 C2756 1.391 . S
C2755 C2754 1.386 . S
C2755 C2759 1.393 . S
C2756 H2745 0.950 1_655 S
C2756 C2754 1.391 . S
C2756 C2757 1.400 1_655 S
C2757 C2751 1.491 . S
C2757 C2756 1.400 1_455 S
C2757 C2758 1.398 1_455 S
C2758 H2746 0.950 . S
C2758 C2757 1.398 1_655 S
C2758 C2759 1.391 . S
C2759 H2747 0.950 . S
C2759 C2755 1.393 . S
C2759 C2758 1.391 . S
H2760 C2768 0.950 . S
H2761 C2773 0.950 . S
H2762 C2770 0.950 . S
H2763 C2772 0.950 . S
H2764 C2774 0.950 . S
H2765 C2776 0.950 1_655 S
H2766 C2778 0.950 . S
H2767 C2779 0.950 . S
C2768 H2760 0.950 . S
C2768 C2769 1.386 1_455 S
C2768 C2770 1.391 . S
C2769 C2768 1.386 1_655 S
C2769 C2773 1.393 . S
C2770 H2762 0.950 . S
C2770 C2768 1.391 . S
C2770 C2771 1.400 . S
C2771 C2770 1.400 . S
C2771 C2772 1.398 1_455 S
C2771 C2777 1.491 . S
C2772 H2763 0.950 . S
C2772 C2771 1.398 1_655 S
C2772 C2773 1.391 . S
C2773 H2761 0.950 . S
C2773 C2769 1.393 . S
C2773 C2772 1.391 . S
C2774 H2764 0.950 . S
C2774 C2775 1.386 . S
C2774 C2776 1.391 . S
C2775 C2774 1.386 . S
C2775 C2779 1.393 . S
C2776 H2765 0.950 1_455 S
C2776 C2774 1.391 . S
C2776 C2777 1.400 . S
C2777 C2771 1.491 . S
C2777 C2776 1.400 . S
C2777 C2778 1.398 . S
C2778 H2766 0.950 . S
C2778 C2777 1.398 . S
C2778 C2779 1.391 . S
C2779 H2767 0.950 . S
C2779 C2775 1.393 . S
C2779 C2778 1.391 . S
H2780 C2788 0.950 . S
H2781 C2793 0.950 . S
H2782 C2790 0.950 . S
H2783 C2792 0.950 . S
H2784 C2794 0.950 . S
H2785 C2796 0.950 . S
H2786 C2798 0.950 . S
H2787 C2799 0.950 . S
C2788 H2780 0.950 . S
C2788 C2789 1.386 . S
C2788 C2790 1.391 . S
C2789 C2788 1.386 . S
C2789 C2793 1.393 . S
C2790 H2782 0.950 . S
C2790 C2788 1.391 . S
C2790 C2791 1.400 . S
C2791 C2790 1.400 . S
C2791 C2792 1.398 . S
C2791 C2797 1.491 . S
C2792 H2783 0.950 . S
C2792 C2791 1.398 . S
C2792 C2793 1.391 . S
C2793 H2781 0.950 . S
C2793 C2789 1.393 . S
C2793 C2792 1.391 . S
C2794 H2784 0.950 . S
C2794 C2795 1.386 . S
C2794 C2796 1.391 . S
C2795 C2794 1.386 . S
C2795 C2799 1.393 . S
C2796 H2785 0.950 . S
C2796 C2794 1.391 . S
C2796 C2797 1.400 . S
C2797 C2791 1.491 . S
C2797 C2796 1.400 . S
C2797 C2798 1.398 . S
C2798 H2786 0.950 . S
C2798 C2797 1.398 . S
C2798 C2799 1.391 . S
C2799 H2787 0.950 . S
C2799 C2795 1.393 . S
C2799 C2798 1.391 . S
H2800 C2808 0.950 . S
H2801 C2813 0.950 . S
H2802 C2810 0.950 . S
H2803 C2812 0.950 . S
H2804 C2814 0.950 . S
H2805 C2816 0.950 . S
H2806 C2818 0.950 . S
H2807 C2819 0.950 . S
C2808 H2800 0.950 . S
C2808 C2809 1.386 . S
C2808 C2810 1.391 . S
C2809 C2808 1.386 . S
C2809 C2813 1.393 . S
C2810 H2802 0.950 . S
C2810 C2808 1.391 . S
C2810 C2811 1.400 . S
C2811 C2810 1.400 . S
C2811 C2812 1.398 . S
C2811 C2817 1.491 . S
C2812 H2803 0.950 . S
C2812 C2811 1.398 . S
C2812 C2813 1.391 . S
C2813 H2801 0.950 . S
C2813 C2809 1.393 . S
C2813 C2812 1.391 . S
C2814 H2804 0.950 . S
C2814 C2815 1.386 . S
C2814 C2816 1.391 . S
C2815 C2814 1.386 . S
C2815 C2819 1.393 . S
C2816 H2805 0.950 . S
C2816 C2814 1.391 . S
C2816 C2817 1.400 . S
C2817 C2811 1.491 . S
C2817 C2816 1.400 . S
C2817 C2818 1.398 . S
C2818 H2806 0.950 . S
C2818 C2817 1.398 . S
C2818 C2819 1.391 . S
C2819 H2807 0.950 . S
C2819 C2815 1.393 . S
C2819 C2818 1.391 . S
H2820 C2828 0.950 1_554 S
H2821 C2833 0.950 . S
H2822 C2830 0.950 . S
H2823 C2832 0.950 . S
H2824 C2834 0.950 . S
H2825 C2836 0.950 . S
H2826 C2838 0.950 . S
H2827 C2839 0.950 . S
C2828 H2820 0.950 1_556 S
C2828 C2829 1.386 . S
C2828 C2830 1.391 . S
C2829 C2828 1.386 . S
C2829 C2833 1.393 . S
C2830 H2822 0.950 . S
C2830 C2828 1.391 . S
C2830 C2831 1.400 . S
C2831 C2830 1.400 . S
C2831 C2832 1.398 . S
C2831 C2837 1.491 . S
C2832 H2823 0.950 . S
C2832 C2831 1.398 . S
C2832 C2833 1.391 . S
C2833 H2821 0.950 . S
C2833 C2829 1.393 . S
C2833 C2832 1.391 . S
C2834 H2824 0.950 . S
C2834 C2835 1.386 . S
C2834 C2836 1.391 . S
C2835 C2834 1.386 . S
C2835 C2839 1.393 . S
C2836 H2825 0.950 . S
C2836 C2834 1.391 . S
C2836 C2837 1.400 . S
C2837 C2831 1.491 . S
C2837 C2836 1.400 . S
C2837 C2838 1.398 . S
C2838 H2826 0.950 . S
C2838 C2837 1.398 . S
C2838 C2839 1.391 . S
C2839 H2827 0.950 . S
C2839 C2835 1.393 . S
C2839 C2838 1.391 . S
H2840 C2848 0.950 . S
H2841 C2853 0.950 . S
H2842 C2850 0.950 . S
H2843 C2852 0.950 . S
H2844 C2854 0.950 . S
H2845 C2856 0.950 . S
H2846 C2858 0.950 . S
H2847 C2859 0.950 . S
C2848 H2840 0.950 . S
C2848 C2849 1.386 . S
C2848 C2850 1.391 . S
C2849 C2848 1.386 . S
C2849 C2853 1.393 . S
C2850 H2842 0.950 . S
C2850 C2848 1.391 . S
C2850 C2851 1.400 . S
C2851 C2850 1.400 . S
C2851 C2852 1.398 . S
C2851 C2857 1.491 . S
C2852 H2843 0.950 . S
C2852 C2851 1.398 . S
C2852 C2853 1.391 . S
C2853 H2841 0.950 . S
C2853 C2849 1.393 . S
C2853 C2852 1.391 . S
C2854 H2844 0.950 . S
C2854 C2855 1.386 . S
C2854 C2856 1.391 . S
C2855 C2854 1.386 . S
C2855 C2859 1.393 . S
C2856 H2845 0.950 . S
C2856 C2854 1.391 . S
C2856 C2857 1.400 . S
C2857 C2851 1.491 . S
C2857 C2856 1.400 . S
C2857 C2858 1.398 . S
C2858 H2846 0.950 . S
C2858 C2857 1.398 . S
C2858 C2859 1.391 . S
C2859 H2847 0.950 . S
C2859 C2855 1.393 . S
C2859 C2858 1.391 . S
H2860 C2868 0.950 . S
H2861 C2873 0.950 . S
H2862 C2870 0.950 . S
H2863 C2872 0.950 . S
H2864 C2874 0.950 . S
H2865 C2876 0.950 . S
H2866 C2878 0.950 . S
H2867 C2879 0.950 . S
C2868 H2860 0.950 . S
C2868 C2869 1.386 . S
C2868 C2870 1.391 . S
C2869 C2868 1.386 . S
C2869 C2873 1.393 . S
C2870 H2862 0.950 . S
C2870 C2868 1.391 . S
C2870 C2871 1.400 . S
C2871 C2870 1.400 . S
C2871 C2872 1.398 . S
C2871 C2877 1.491 . S
C2872 H2863 0.950 . S
C2872 C2871 1.398 . S
C2872 C2873 1.391 . S
C2873 H2861 0.950 . S
C2873 C2869 1.393 . S
C2873 C2872 1.391 . S
C2874 H2864 0.950 . S
C2874 C2875 1.386 . S
C2874 C2876 1.391 . S
C2875 C2874 1.386 . S
C2875 C2879 1.393 . S
C2876 H2865 0.950 . S
C2876 C2874 1.391 . S
C2876 C2877 1.400 . S
C2877 C2871 1.491 . S
C2877 C2876 1.400 . S
C2877 C2878 1.398 . S
C2878 H2866 0.950 . S
C2878 C2877 1.398 . S
C2878 C2879 1.391 . S
C2879 H2867 0.950 . S
C2879 C2875 1.393 . S
C2879 C2878 1.391 . S
H2880 C2888 0.950 . S
H2881 C2893 0.950 . S
H2882 C2890 0.950 . S
H2883 C2892 0.950 . S
H2884 C2894 0.950 . S
H2885 C2896 0.950 . S
H2886 C2898 0.950 . S
H2887 C2899 0.950 . S
C2888 H2880 0.950 . S
C2888 C2889 1.386 . S
C2888 C2890 1.391 . S
C2889 C2888 1.386 . S
C2889 C2893 1.393 . S
C2890 H2882 0.950 . S
C2890 C2888 1.391 . S
C2890 C2891 1.400 . S
C2891 C2890 1.400 . S
C2891 C2892 1.398 . S
C2891 C2897 1.491 . S
C2892 H2883 0.950 . S
C2892 C2891 1.398 . S
C2892 C2893 1.391 . S
C2893 H2881 0.950 . S
C2893 C2889 1.393 . S
C2893 C2892 1.391 . S
C2894 H2884 0.950 . S
C2894 C2895 1.386 . S
C2894 C2896 1.391 . S
C2895 C2894 1.386 . S
C2895 C2899 1.393 . S
C2896 H2885 0.950 . S
C2896 C2894 1.391 . S
C2896 C2897 1.400 . S
C2897 C2891 1.491 . S
C2897 C2896 1.400 . S
C2897 C2898 1.398 . S
C2898 H2886 0.950 . S
C2898 C2897 1.398 . S
C2898 C2899 1.391 . S
C2899 H2887 0.950 . S
C2899 C2895 1.393 . S
C2899 C2898 1.391 . S
H2900 C2908 0.950 . S
H2901 C2913 0.950 . S
H2902 C2910 0.950 . S
H2903 C2912 0.950 . S
H2904 C2914 0.950 . S
H2905 C2916 0.950 . S
H2906 C2918 0.950 . S
H2907 C2919 0.950 . S
C2908 H2900 0.950 . S
C2908 C2909 1.386 . S
C2908 C2910 1.391 . S
C2909 C2908 1.386 . S
C2909 C2913 1.393 . S
C2910 H2902 0.950 . S
C2910 C2908 1.391 . S
C2910 C2911 1.400 . S
C2911 C2910 1.400 . S
C2911 C2912 1.398 . S
C2911 C2917 1.491 . S
C2912 H2903 0.950 . S
C2912 C2911 1.398 . S
C2912 C2913 1.391 . S
C2913 H2901 0.950 . S
C2913 C2909 1.393 . S
C2913 C2912 1.391 . S
C2914 H2904 0.950 . S
C2914 C2915 1.386 . S
C2914 C2916 1.391 . S
C2915 C2914 1.386 . S
C2915 C2919 1.393 . S
C2916 H2905 0.950 . S
C2916 C2914 1.391 . S
C2916 C2917 1.400 . S
C2917 C2911 1.491 . S
C2917 C2916 1.400 . S
C2917 C2918 1.398 . S
C2918 H2906 0.950 . S
C2918 C2917 1.398 . S
C2918 C2919 1.391 . S
C2919 H2907 0.950 . S
C2919 C2915 1.393 . S
C2919 C2918 1.391 . S
H2920 C2928 0.950 . S
H2921 C2933 0.950 . S
H2922 C2930 0.950 . S
H2923 C2932 0.950 . S
H2924 C2934 0.950 . S
H2925 C2936 0.950 . S
H2926 C2938 0.950 . S
H2927 C2939 0.950 . S
C2928 H2920 0.950 . S
C2928 C2929 1.386 . S
C2928 C2930 1.391 . S
C2929 C2928 1.386 . S
C2929 C2933 1.393 . S
C2930 H2922 0.950 . S
C2930 C2928 1.391 . S
C2930 C2931 1.400 . S
C2931 C2930 1.400 . S
C2931 C2932 1.398 . S
C2931 C2937 1.491 . S
C2932 H2923 0.950 . S
C2932 C2931 1.398 . S
C2932 C2933 1.391 . S
C2933 H2921 0.950 . S
C2933 C2929 1.393 . S
C2933 C2932 1.391 . S
C2934 H2924 0.950 . S
C2934 C2935 1.386 . S
C2934 C2936 1.391 . S
C2935 C2934 1.386 . S
C2935 C2939 1.393 . S
C2936 H2925 0.950 . S
C2936 C2934 1.391 . S
C2936 C2937 1.400 . S
C2937 C2931 1.491 . S
C2937 C2936 1.400 . S
C2937 C2938 1.398 . S
C2938 H2926 0.950 . S
C2938 C2937 1.398 . S
C2938 C2939 1.391 . S
C2939 H2927 0.950 . S
C2939 C2935 1.393 . S
C2939 C2938 1.391 . S
H2940 C2948 0.950 . S
H2941 C2953 0.950 . S
H2942 C2950 0.950 . S
H2943 C2952 0.950 . S
H2944 C2954 0.950 . S
H2945 C2956 0.950 . S
H2946 C2958 0.950 . S
H2947 C2959 0.950 . S
C2948 H2940 0.950 . S
C2948 C2949 1.386 . S
C2948 C2950 1.391 . S
C2949 C2948 1.386 . S
C2949 C2953 1.393 . S
C2950 H2942 0.950 . S
C2950 C2948 1.391 . S
C2950 C2951 1.400 . S
C2951 C2950 1.400 . S
C2951 C2952 1.398 . S
C2951 C2957 1.491 . S
C2952 H2943 0.950 . S
C2952 C2951 1.398 . S
C2952 C2953 1.391 . S
C2953 H2941 0.950 . S
C2953 C2949 1.393 . S
C2953 C2952 1.391 . S
C2954 H2944 0.950 . S
C2954 C2955 1.386 . S
C2954 C2956 1.391 . S
C2955 C2954 1.386 . S
C2955 C2959 1.393 . S
C2956 H2945 0.950 . S
C2956 C2954 1.391 . S
C2956 C2957 1.400 . S
C2957 C2951 1.491 . S
C2957 C2956 1.400 . S
C2957 C2958 1.398 . S
C2958 H2946 0.950 . S
C2958 C2957 1.398 . S
C2958 C2959 1.391 . S
C2959 H2947 0.950 . S
C2959 C2955 1.393 . S
C2959 C2958 1.391 . S
H2960 C2968 0.950 . S
H2961 C2973 0.950 . S
H2962 C2970 0.950 . S
H2963 C2972 0.950 . S
H2964 C2974 0.950 . S
H2965 C2976 0.950 . S
H2966 C2978 0.950 . S
H2967 C2979 0.950 . S
C2968 H2960 0.950 . S
C2968 C2969 1.386 . S
C2968 C2970 1.391 . S
C2969 C2968 1.386 . S
C2969 C2973 1.393 . S
C2970 H2962 0.950 . S
C2970 C2968 1.391 . S
C2970 C2971 1.400 . S
C2971 C2970 1.400 . S
C2971 C2972 1.398 . S
C2971 C2977 1.491 . S
C2972 H2963 0.950 . S
C2972 C2971 1.398 . S
C2972 C2973 1.391 . S
C2973 H2961 0.950 . S
C2973 C2969 1.393 . S
C2973 C2972 1.391 . S
C2974 H2964 0.950 . S
C2974 C2975 1.386 . S
C2974 C2976 1.391 . S
C2975 C2974 1.386 . S
C2975 C2979 1.393 . S
C2976 H2965 0.950 . S
C2976 C2974 1.391 . S
C2976 C2977 1.400 . S
C2977 C2971 1.491 . S
C2977 C2976 1.400 . S
C2977 C2978 1.398 . S
C2978 H2966 0.950 . S
C2978 C2977 1.398 . S
C2978 C2979 1.391 . S
C2979 H2967 0.950 . S
C2979 C2975 1.393 . S
C2979 C2978 1.391 . S
H2980 C2988 0.950 . S
H2981 C2993 0.950 . S
H2982 C2990 0.950 . S
H2983 C2992 0.950 . S
H2984 C2994 0.950 . S
H2985 C2996 0.950 . S
H2986 C2998 0.950 . S
H2987 C2999 0.950 . S
C2988 H2980 0.950 . S
C2988 C2989 1.386 . S
C2988 C2990 1.391 . S
C2989 C2988 1.386 . S
C2989 C2993 1.393 . S
C2990 H2982 0.950 . S
C2990 C2988 1.391 . S
C2990 C2991 1.400 . S
C2991 C2990 1.400 . S
C2991 C2992 1.398 . S
C2991 C2997 1.491 . S
C2992 H2983 0.950 . S
C2992 C2991 1.398 . S
C2992 C2993 1.391 . S
C2993 H2981 0.950 . S
C2993 C2989 1.393 . S
C2993 C2992 1.391 . S
C2994 H2984 0.950 . S
C2994 C2995 1.386 . S
C2994 C2996 1.391 . S
C2995 C2994 1.386 . S
C2995 C2999 1.393 . S
C2996 H2985 0.950 . S
C2996 C2994 1.391 . S
C2996 C2997 1.400 . S
C2997 C2991 1.491 . S
C2997 C2996 1.400 . S
C2997 C2998 1.398 . S
C2998 H2986 0.950 . S
C2998 C2997 1.398 . S
C2998 C2999 1.391 . S
C2999 H2987 0.950 . S
C2999 C2995 1.393 . S
C2999 C2998 1.391 . S
H3000 C3008 0.950 . S
H3001 C3013 0.950 . S
H3002 C3010 0.950 . S
H3003 C3012 0.950 . S
H3004 C3014 0.950 . S
H3005 C3016 0.950 . S
H3006 C3018 0.950 . S
H3007 C3019 0.950 . S
C3008 H3000 0.950 . S
C3008 C3009 1.386 . S
C3008 C3010 1.391 . S
C3009 C3008 1.386 . S
C3009 C3013 1.393 . S
C3010 H3002 0.950 . S
C3010 C3008 1.391 . S
C3010 C3011 1.400 . S
C3011 C3010 1.400 . S
C3011 C3012 1.398 . S
C3011 C3017 1.491 . S
C3012 H3003 0.950 . S
C3012 C3011 1.398 . S
C3012 C3013 1.391 . S
C3013 H3001 0.950 . S
C3013 C3009 1.393 . S
C3013 C3012 1.391 . S
C3014 H3004 0.950 . S
C3014 C3015 1.386 . S
C3014 C3016 1.391 . S
C3015 C3014 1.386 . S
C3015 C3019 1.393 . S
C3016 H3005 0.950 . S
C3016 C3014 1.391 . S
C3016 C3017 1.400 . S
C3017 C3011 1.491 . S
C3017 C3016 1.400 . S
C3017 C3018 1.398 . S
C3018 H3006 0.950 . S
C3018 C3017 1.398 . S
C3018 C3019 1.391 . S
C3019 H3007 0.950 . S
C3019 C3015 1.393 . S
C3019 C3018 1.391 . S
H3020 C3028 0.950 . S
H3021 C3033 0.950 1_556 S
H3022 C3030 0.949 1_545 S
H3023 C3032 0.950 1_556 S
H3024 C3034 0.944 1_556 S
H3025 C3036 0.950 1_556 S
H3026 C3038 0.950 . S
H3027 C3039 0.950 . S
C3028 H3020 0.950 . S
C3028 C3029 1.386 . S
C3028 C3030 1.392 . S
C3029 C3028 1.386 . S
C3029 C3033 1.393 . S
C3030 H3022 0.949 1_565 S
C3030 C3028 1.392 . S
C3030 C3031 1.401 . S
C3031 C3030 1.401 . S
C3031 C3032 1.398 . S
C3031 C3037 1.487 1_565 S
C3032 H3023 0.950 1_554 S
C3032 C3031 1.398 . S
C3032 C3033 1.391 . S
C3033 H3021 0.950 1_554 S
C3033 C3029 1.393 . S
C3033 C3032 1.391 . S
C3034 H3024 0.944 1_554 S
C3034 C3035 1.386 1_565 S
C3034 C3036 1.396 . S
C3035 C3034 1.386 1_545 S
C3035 C3039 1.393 . S
C3036 H3025 0.950 1_554 S
C3036 C3034 1.396 . S
C3036 C3037 1.392 1_565 S
C3037 C3031 1.487 1_545 S
C3037 C3036 1.392 1_545 S
C3037 C3038 1.411 . S
C3038 H3026 0.950 . S
C3038 C3037 1.411 . S
C3038 C3039 1.391 . S
C3039 H3027 0.950 . S
C3039 C3035 1.393 . S
C3039 C3038 1.391 . S
H3040 C3048 0.950 . S
H3041 C3053 0.950 . S
H3042 C3050 0.950 . S
H3043 C3052 0.950 . S
H3044 C3054 0.950 . S
H3045 C3056 0.950 . S
H3046 C3058 0.950 . S
H3047 C3059 0.950 . S
C3048 H3040 0.950 . S
C3048 C3049 1.386 . S
C3048 C3050 1.391 . S
C3049 C3048 1.386 . S
C3049 C3053 1.393 . S
C3050 H3042 0.950 . S
C3050 C3048 1.391 . S
C3050 C3051 1.400 . S
C3051 C3050 1.400 . S
C3051 C3052 1.398 . S
C3051 C3057 1.491 . S
C3052 H3043 0.950 . S
C3052 C3051 1.398 . S
C3052 C3053 1.391 . S
C3053 H3041 0.950 . S
C3053 C3049 1.393 . S
C3053 C3052 1.391 . S
C3054 H3044 0.950 . S
C3054 C3055 1.386 . S
C3054 C3056 1.391 . S
C3055 C3054 1.386 . S
C3055 C3059 1.393 . S
C3056 H3045 0.950 . S
C3056 C3054 1.391 . S
C3056 C3057 1.400 . S
C3057 C3051 1.491 . S
C3057 C3056 1.400 . S
C3057 C3058 1.398 . S
C3058 H3046 0.950 . S
C3058 C3057 1.398 . S
C3058 C3059 1.391 . S
C3059 H3047 0.950 . S
C3059 C3055 1.393 . S
C3059 C3058 1.391 . S
H3060 C3068 0.950 . S
H3061 C3073 0.950 . S
H3062 C3070 0.950 . S
H3063 C3072 0.950 . S
H3064 C3074 0.950 . S
H3065 C3076 0.950 . S
H3066 C3078 0.950 1_556 S
H3067 C3079 0.950 . S
C3068 H3060 0.950 . S
C3068 C3069 1.386 1_556 S
C3068 C3070 1.391 . S
C3069 C3068 1.386 1_554 S
C3069 C3073 1.393 . S
C3070 H3062 0.950 . S
C3070 C3068 1.391 . S
C3070 C3071 1.400 1_556 S
C3071 C3070 1.400 1_554 S
C3071 C3072 1.398 . S
C3071 C3077 1.491 . S
C3072 H3063 0.950 . S
C3072 C3071 1.398 . S
C3072 C3073 1.391 . S
C3073 H3061 0.950 . S
C3073 C3069 1.393 . S
C3073 C3072 1.391 . S
C3074 H3064 0.950 . S
C3074 C3075 1.386 . S
C3074 C3076 1.391 . S
C3075 C3074 1.386 . S
C3075 C3079 1.393 . S
C3076 H3065 0.950 . S
C3076 C3074 1.391 . S
C3076 C3077 1.400 . S
C3077 C3071 1.491 . S
C3077 C3076 1.400 . S
C3077 C3078 1.398 . S
C3078 H3066 0.950 1_554 S
C3078 C3077 1.398 . S
C3078 C3079 1.391 . S
C3079 H3067 0.950 . S
C3079 C3075 1.393 . S
C3079 C3078 1.391 . S
H3080 C3088 0.950 . S
H3081 C3093 0.950 . S
H3082 C3090 0.950 . S
H3083 C3092 0.950 . S
H3084 C3094 0.950 . S
H3085 C3096 0.950 . S
H3086 C3098 0.950 . S
H3087 C3099 0.950 . S
C3088 H3080 0.950 . S
C3088 C3089 1.386 . S
C3088 C3090 1.391 . S
C3089 C3088 1.386 . S
C3089 C3093 1.393 . S
C3090 H3082 0.950 . S
C3090 C3088 1.391 . S
C3090 C3091 1.400 . S
C3091 C3090 1.400 . S
C3091 C3092 1.398 . S
C3091 C3097 1.491 . S
C3092 H3083 0.950 . S
C3092 C3091 1.398 . S
C3092 C3093 1.391 . S
C3093 H3081 0.950 . S
C3093 C3089 1.393 . S
C3093 C3092 1.391 . S
C3094 H3084 0.950 . S
C3094 C3095 1.386 . S
C3094 C3096 1.391 . S
C3095 C3094 1.386 . S
C3095 C3099 1.393 . S
C3096 H3085 0.950 . S
C3096 C3094 1.391 . S
C3096 C3097 1.400 . S
C3097 C3091 1.491 . S
C3097 C3096 1.400 . S
C3097 C3098 1.398 . S
C3098 H3086 0.950 . S
C3098 C3097 1.398 . S
C3098 C3099 1.391 . S
C3099 H3087 0.950 . S
C3099 C3095 1.393 . S
C3099 C3098 1.391 . S
H3100 C3108 0.950 . S
H3101 C3113 0.950 . S
H3102 C3110 0.950 . S
H3103 C3112 0.950 . S
H3104 C3114 0.950 . S
H3105 C3116 0.950 . S
H3106 C3118 0.950 . S
H3107 C3119 0.950 . S
C3108 H3100 0.950 . S
C3108 C3109 1.386 . S
C3108 C3110 1.391 . S
C3109 C3108 1.386 . S
C3109 C3113 1.393 . S
C3110 H3102 0.950 . S
C3110 C3108 1.391 . S
C3110 C3111 1.400 . S
C3111 C3110 1.400 . S
C3111 C3112 1.398 . S
C3111 C3117 1.491 . S
C3112 H3103 0.950 . S
C3112 C3111 1.398 . S
C3112 C3113 1.391 . S
C3113 H3101 0.950 . S
C3113 C3109 1.393 . S
C3113 C3112 1.391 . S
C3114 H3104 0.950 . S
C3114 C3115 1.386 . S
C3114 C3116 1.391 . S
C3115 C3114 1.386 . S
C3115 C3119 1.393 . S
C3116 H3105 0.950 . S
C3116 C3114 1.391 . S
C3116 C3117 1.400 . S
C3117 C3111 1.491 . S
C3117 C3116 1.400 . S
C3117 C3118 1.398 . S
C3118 H3106 0.950 . S
C3118 C3117 1.398 . S
C3118 C3119 1.391 . S
C3119 H3107 0.950 . S
C3119 C3115 1.393 . S
C3119 C3118 1.391 . S
H3120 C3128 0.950 . S
H3121 C3133 0.950 . S
H3122 C3130 0.950 . S
H3123 C3132 0.950 . S
H3124 C3134 0.950 . S
H3125 C3136 0.950 . S
H3126 C3138 0.950 . S
H3127 C3139 0.950 . S
C3128 H3120 0.950 . S
C3128 C3129 1.386 . S
C3128 C3130 1.391 . S
C3129 C3128 1.386 . S
C3129 C3133 1.393 . S
C3130 H3122 0.950 . S
C3130 C3128 1.391 . S
C3130 C3131 1.400 . S
C3131 C3130 1.400 . S
C3131 C3132 1.398 . S
C3131 C3137 1.491 . S
C3132 H3123 0.950 . S
C3132 C3131 1.398 . S
C3132 C3133 1.391 . S
C3133 H3121 0.950 . S
C3133 C3129 1.393 . S
C3133 C3132 1.391 . S
C3134 H3124 0.950 . S
C3134 C3135 1.386 . S
C3134 C3136 1.391 . S
C3135 C3134 1.386 . S
C3135 C3139 1.393 . S
C3136 H3125 0.950 . S
C3136 C3134 1.391 . S
C3136 C3137 1.400 . S
C3137 C3131 1.491 . S
C3137 C3136 1.400 . S
C3137 C3138 1.398 . S
C3138 H3126 0.950 . S
C3138 C3137 1.398 . S
C3138 C3139 1.391 . S
C3139 H3127 0.950 . S
C3139 C3135 1.393 . S
C3139 C3138 1.391 . S
H3140 C3148 0.950 . S
H3141 C3153 0.950 . S
H3142 C3150 0.950 . S
H3143 C3152 0.950 . S
H3144 C3154 0.950 . S
H3145 C3156 0.950 . S
H3146 C3158 0.950 . S
H3147 C3159 0.950 . S
C3148 H3140 0.950 . S
C3148 C3149 1.386 . S
C3148 C3150 1.391 . S
C3149 C3148 1.386 . S
C3149 C3153 1.393 . S
C3150 H3142 0.950 . S
C3150 C3148 1.391 . S
C3150 C3151 1.400 . S
C3151 C3150 1.400 . S
C3151 C3152 1.398 . S
C3151 C3157 1.491 . S
C3152 H3143 0.950 . S
C3152 C3151 1.398 . S
C3152 C3153 1.391 . S
C3153 H3141 0.950 . S
C3153 C3149 1.393 . S
C3153 C3152 1.391 . S
C3154 H3144 0.950 . S
C3154 C3155 1.386 . S
C3154 C3156 1.391 . S
C3155 C3154 1.386 . S
C3155 C3159 1.393 . S
C3156 H3145 0.950 . S
C3156 C3154 1.391 . S
C3156 C3157 1.400 . S
C3157 C3151 1.491 . S
C3157 C3156 1.400 . S
C3157 C3158 1.398 . S
C3158 H3146 0.950 . S
C3158 C3157 1.398 . S
C3158 C3159 1.391 . S
C3159 H3147 0.950 . S
C3159 C3155 1.393 . S
C3159 C3158 1.391 . S
H3160 C3168 0.950 . S
H3161 C3173 0.950 . S
H3162 C3170 0.950 . S
H3163 C3172 0.950 . S
H3164 C3174 0.950 . S
H3165 C3176 0.950 . S
H3166 C3178 0.950 . S
H3167 C3179 0.950 1_556 S
C3168 H3160 0.950 . S
C3168 C3169 1.386 . S
C3168 C3170 1.391 . S
C3169 C3168 1.386 . S
C3169 C3173 1.393 . S
C3170 H3162 0.950 . S
C3170 C3168 1.391 . S
C3170 C3171 1.400 . S
C3171 C3170 1.400 . S
C3171 C3172 1.398 . S
C3171 C3177 1.491 . S
C3172 H3163 0.950 . S
C3172 C3171 1.398 . S
C3172 C3173 1.391 . S
C3173 H3161 0.950 . S
C3173 C3169 1.393 . S
C3173 C3172 1.391 . S
C3174 H3164 0.950 . S
C3174 C3175 1.386 . S
C3174 C3176 1.391 . S
C3175 C3174 1.386 . S
C3175 C3179 1.393 . S
C3176 H3165 0.950 . S
C3176 C3174 1.391 . S
C3176 C3177 1.400 . S
C3177 C3171 1.491 . S
C3177 C3176 1.400 . S
C3177 C3178 1.398 . S
C3178 H3166 0.950 . S
C3178 C3177 1.398 . S
C3178 C3179 1.391 . S
C3179 H3167 0.950 1_554 S
C3179 C3175 1.393 . S
C3179 C3178 1.391 . S
H3180 C3188 0.950 . S
H3181 C3193 0.950 . S
H3182 C3190 0.950 . S
H3183 C3192 0.950 . S
H3184 C3194 0.950 . S
H3185 C3196 0.950 . S
H3186 C3198 0.950 . S
H3187 C3199 0.950 . S
C3188 H3180 0.950 . S
C3188 C3189 1.386 . S
C3188 C3190 1.391 . S
C3189 C3188 1.386 . S
C3189 C3193 1.393 . S
C3190 H3182 0.950 . S
C3190 C3188 1.391 . S
C3190 C3191 1.400 . S
C3191 C3190 1.400 . S
C3191 C3192 1.398 . S
C3191 C3197 1.491 . S
C3192 H3183 0.950 . S
C3192 C3191 1.398 . S
C3192 C3193 1.391 . S
C3193 H3181 0.950 . S
C3193 C3189 1.393 . S
C3193 C3192 1.391 . S
C3194 H3184 0.950 . S
C3194 C3195 1.386 . S
C3194 C3196 1.391 . S
C3195 C3194 1.386 . S
C3195 C3199 1.393 . S
C3196 H3185 0.950 . S
C3196 C3194 1.391 . S
C3196 C3197 1.400 . S
C3197 C3191 1.491 . S
C3197 C3196 1.400 . S
C3197 C3198 1.398 . S
C3198 H3186 0.950 . S
C3198 C3197 1.398 . S
C3198 C3199 1.391 . S
C3199 H3187 0.950 . S
C3199 C3195 1.393 . S
C3199 C3198 1.391 . S
H3200 C3208 0.950 . S
H3201 C3213 0.950 . S
H3202 C3210 0.950 . S
H3203 C3212 0.950 . S
H3204 C3214 0.968 . S
H3205 C3216 0.950 . S
H3206 C3218 0.950 . S
H3207 C3219 0.950 . S
C3208 H3200 0.950 . S
C3208 C3209 1.386 . S
C3208 C3210 1.391 . S
C3209 C3208 1.386 . S
C3209 C3213 1.393 . S
C3210 H3202 0.950 . S
C3210 C3208 1.391 . S
C3210 C3211 1.400 . S
C3211 C3210 1.400 . S
C3211 C3212 1.398 . S
C3211 C3217 1.491 . S
C3212 H3203 0.950 . S
C3212 C3211 1.398 . S
C3212 C3213 1.391 . S
C3213 H3201 0.950 . S
C3213 C3209 1.393 . S
C3213 C3212 1.391 . S
C3214 H3204 0.968 . S
C3214 C3215 1.386 . S
C3214 C3216 1.391 . S
C3215 C3214 1.386 . S
C3215 C3219 1.393 . S
C3216 H3205 0.950 . S
C3216 C3214 1.391 . S
C3216 C3217 1.400 . S
C3217 C3211 1.491 . S
C3217 C3216 1.400 . S
C3217 C3218 1.398 . S
C3218 H3206 0.950 . S
C3218 C3217 1.398 . S
C3218 C3219 1.391 . S
C3219 H3207 0.950 . S
C3219 C3215 1.393 . S
C3219 C3218 1.391 . S
H3220 C3228 0.950 . S
H3221 C3233 0.950 . S
H3222 C3230 0.950 . S
H3223 C3232 0.950 . S
H3224 C3234 0.950 . S
H3225 C3236 0.950 . S
H3226 C3238 0.950 . S
H3227 C3239 0.950 . S
C3228 H3220 0.950 . S
C3228 C3229 1.386 . S
C3228 C3230 1.391 . S
C3229 C3228 1.386 . S
C3229 C3233 1.393 . S
C3230 H3222 0.950 . S
C3230 C3228 1.391 . S
C3230 C3231 1.400 . S
C3231 C3230 1.400 . S
C3231 C3232 1.398 . S
C3231 C3237 1.491 . S
C3232 H3223 0.950 . S
C3232 C3231 1.398 . S
C3232 C3233 1.391 . S
C3233 H3221 0.950 . S
C3233 C3229 1.393 . S
C3233 C3232 1.391 . S
C3234 H3224 0.950 . S
C3234 C3235 1.386 . S
C3234 C3236 1.391 . S
C3235 C3234 1.386 . S
C3235 C3239 1.393 . S
C3236 H3225 0.950 . S
C3236 C3234 1.391 . S
C3236 C3237 1.400 . S
C3237 C3231 1.491 . S
C3237 C3236 1.400 . S
C3237 C3238 1.398 . S
C3238 H3226 0.950 . S
C3238 C3237 1.398 . S
C3238 C3239 1.391 . S
C3239 H3227 0.950 . S
C3239 C3235 1.393 . S
C3239 C3238 1.391 . S
H3240 C3248 0.950 . S
H3241 C3253 0.950 . S
H3242 C3250 0.950 . S
H3243 C3252 0.950 . S
H3244 C3254 0.950 . S
H3245 C3256 0.950 . S
H3246 C3258 0.950 . S
H3247 C3259 0.950 . S
C3248 H3240 0.950 . S
C3248 C3249 1.386 . S
C3248 C3250 1.391 . S
C3249 C3248 1.386 . S
C3249 C3253 1.393 . S
C3250 H3242 0.950 . S
C3250 C3248 1.391 . S
C3250 C3251 1.400 . S
C3251 C3250 1.400 . S
C3251 C3252 1.398 . S
C3251 C3257 1.491 . S
C3252 H3243 0.950 . S
C3252 C3251 1.398 . S
C3252 C3253 1.391 . S
C3253 H3241 0.950 . S
C3253 C3249 1.393 . S
C3253 C3252 1.391 . S
C3254 H3244 0.950 . S
C3254 C3255 1.386 . S
C3254 C3256 1.391 . S
C3255 C3254 1.386 . S
C3255 C3259 1.393 . S
C3256 H3245 0.950 . S
C3256 C3254 1.391 . S
C3256 C3257 1.400 . S
C3257 C3251 1.491 . S
C3257 C3256 1.400 . S
C3257 C3258 1.398 . S
C3258 H3246 0.950 . S
C3258 C3257 1.398 . S
C3258 C3259 1.391 . S
C3259 H3247 0.950 . S
C3259 C3255 1.393 . S
C3259 C3258 1.391 . S
H3260 C3268 0.950 . S
H3261 C3273 0.950 . S
H3262 C3270 0.950 . S
H3263 C3272 0.950 . S
H3264 C3274 0.950 . S
H3265 C3276 0.950 . S
H3266 C3278 0.950 . S
H3267 C3279 0.950 . S
C3268 H3260 0.950 . S
C3268 C3269 1.386 . S
C3268 C3270 1.391 . S
C3269 C3268 1.386 . S
C3269 C3273 1.393 . S
C3270 H3262 0.950 . S
C3270 C3268 1.391 . S
C3270 C3271 1.400 . S
C3271 C3270 1.400 . S
C3271 C3272 1.398 . S
C3271 C3277 1.491 . S
C3272 H3263 0.950 . S
C3272 C3271 1.398 . S
C3272 C3273 1.391 . S
C3273 H3261 0.950 . S
C3273 C3269 1.393 . S
C3273 C3272 1.391 . S
C3274 H3264 0.950 . S
C3274 C3275 1.386 . S
C3274 C3276 1.391 . S
C3275 C3274 1.386 . S
C3275 C3279 1.393 . S
C3276 H3265 0.950 . S
C3276 C3274 1.391 . S
C3276 C3277 1.400 . S
C3277 C3271 1.491 . S
C3277 C3276 1.400 . S
C3277 C3278 1.398 . S
C3278 H3266 0.950 . S
C3278 C3277 1.398 . S
C3278 C3279 1.391 . S
C3279 H3267 0.950 . S
C3279 C3275 1.393 . S
C3279 C3278 1.391 . S
H3280 C3288 0.950 . S
H3281 C3293 0.950 . S
H3282 C3290 0.950 . S
H3283 C3292 0.950 . S
H3284 C3294 0.950 . S
H3285 C3296 0.950 . S
H3286 C3298 0.950 . S
H3287 C3299 0.950 . S
C3288 H3280 0.950 . S
C3288 C3289 1.386 . S
C3288 C3290 1.391 . S
C3289 C3288 1.386 . S
C3289 C3293 1.393 . S
C3290 H3282 0.950 . S
C3290 C3288 1.391 . S
C3290 C3291 1.400 . S
C3291 C3290 1.400 . S
C3291 C3292 1.398 . S
C3291 C3297 1.491 . S
C3292 H3283 0.950 . S
C3292 C3291 1.398 . S
C3292 C3293 1.391 . S
C3293 H3281 0.950 . S
C3293 C3289 1.393 . S
C3293 C3292 1.391 . S
C3294 H3284 0.950 . S
C3294 C3295 1.386 . S
C3294 C3296 1.391 . S
C3295 C3294 1.386 . S
C3295 C3299 1.393 . S
C3296 H3285 0.950 . S
C3296 C3294 1.391 . S
C3296 C3297 1.400 . S
C3297 C3291 1.491 . S
C3297 C3296 1.400 . S
C3297 C3298 1.398 . S
C3298 H3286 0.950 . S
C3298 C3297 1.398 . S
C3298 C3299 1.391 . S
C3299 H3287 0.950 . S
C3299 C3295 1.393 . S
C3299 C3298 1.391 . S
H3300 C3308 0.950 . S
H3301 C3313 0.950 . S
H3302 C3310 0.950 . S
H3303 C3312 0.950 . S
H3304 C3314 0.950 . S
H3305 C3316 0.950 . S
H3306 C3318 0.950 . S
H3307 C3319 0.950 . S
C3308 H3300 0.950 . S
C3308 C3309 1.386 . S
C3308 C3310 1.391 . S
C3309 C3308 1.386 . S
C3309 C3313 1.393 . S
C3310 H3302 0.950 . S
C3310 C3308 1.391 . S
C3310 C3311 1.400 . S
C3311 C3310 1.400 . S
C3311 C3312 1.398 . S
C3311 C3317 1.491 . S
C3312 H3303 0.950 . S
C3312 C3311 1.398 . S
C3312 C3313 1.391 . S
C3313 H3301 0.950 . S
C3313 C3309 1.393 . S
C3313 C3312 1.391 . S
C3314 H3304 0.950 . S
C3314 C3315 1.386 . S
C3314 C3316 1.391 . S
C3315 C3314 1.386 . S
C3315 C3319 1.393 . S
C3316 H3305 0.950 . S
C3316 C3314 1.391 . S
C3316 C3317 1.400 . S
C3317 C3311 1.491 . S
C3317 C3316 1.400 . S
C3317 C3318 1.398 . S
C3318 H3306 0.950 . S
C3318 C3317 1.398 . S
C3318 C3319 1.391 . S
C3319 H3307 0.950 . S
C3319 C3315 1.393 . S
C3319 C3318 1.391 . S
H3320 C3328 0.950 . S
H3321 C3333 0.950 . S
H3322 C3330 0.950 . S
H3323 C3332 0.950 . S
H3324 C3334 0.950 . S
H3325 C3336 0.950 . S
H3326 C3338 0.950 . S
H3327 C3339 0.950 . S
C3328 H3320 0.950 . S
C3328 C3329 1.386 . S
C3328 C3330 1.391 . S
C3329 C3328 1.386 . S
C3329 C3333 1.393 . S
C3330 H3322 0.950 . S
C3330 C3328 1.391 . S
C3330 C3331 1.400 . S
C3331 C3330 1.400 . S
C3331 C3332 1.398 . S
C3331 C3337 1.491 . S
C3332 H3323 0.950 . S
C3332 C3331 1.398 . S
C3332 C3333 1.391 . S
C3333 H3321 0.950 . S
C3333 C3329 1.393 . S
C3333 C3332 1.391 . S
C3334 H3324 0.950 . S
C3334 C3335 1.386 . S
C3334 C3336 1.391 1_455 S
C3335 C3334 1.386 . S
C3335 C3339 1.393 . S
C3336 H3325 0.950 . S
C3336 C3334 1.391 1_655 S
C3336 C3337 1.400 . S
C3337 C3331 1.491 . S
C3337 C3336 1.400 . S
C3337 C3338 1.398 1_655 S
C3338 H3326 0.950 . S
C3338 C3337 1.398 1_455 S
C3338 C3339 1.391 . S
C3339 H3327 0.950 . S
C3339 C3335 1.393 . S
C3339 C3338 1.391 . S
H3340 C3348 0.950 . S
H3341 C3353 0.950 . S
H3342 C3350 0.950 . S
H3343 C3352 0.950 . S
H3344 C3354 0.950 . S
H3345 C3356 0.950 . S
H3346 C3358 0.950 . S
H3347 C3359 0.950 . S
C3348 H3340 0.950 . S
C3348 C3349 1.386 . S
C3348 C3350 1.391 . S
C3349 C3348 1.386 . S
C3349 C3353 1.393 . S
C3350 H3342 0.950 . S
C3350 C3348 1.391 . S
C3350 C3351 1.400 . S
C3351 C3350 1.400 . S
C3351 C3352 1.398 . S
C3351 C3357 1.491 . S
C3352 H3343 0.950 . S
C3352 C3351 1.398 . S
C3352 C3353 1.391 . S
C3353 H3341 0.950 . S
C3353 C3349 1.393 . S
C3353 C3352 1.391 . S
C3354 H3344 0.950 . S
C3354 C3355 1.386 . S
C3354 C3356 1.391 . S
C3355 C3354 1.386 . S
C3355 C3359 1.393 . S
C3356 H3345 0.950 . S
C3356 C3354 1.391 . S
C3356 C3357 1.400 . S
C3357 C3351 1.491 . S
C3357 C3356 1.400 . S
C3357 C3358 1.398 . S
C3358 H3346 0.950 . S
C3358 C3357 1.398 . S
C3358 C3359 1.391 . S
C3359 H3347 0.950 . S
C3359 C3355 1.393 . S
C3359 C3358 1.391 . S
H3360 C3368 0.950 . S
H3361 C3373 0.950 . S
H3362 C3370 0.950 . S
H3363 C3372 0.950 . S
H3364 C3374 0.950 . S
H3365 C3376 0.950 . S
H3366 C3378 0.950 . S
H3367 C3379 0.950 . S
C3368 H3360 0.950 . S
C3368 C3369 1.386 . S
C3368 C3370 1.391 . S
C3369 C3368 1.386 . S
C3369 C3373 1.393 . S
C3370 H3362 0.950 . S
C3370 C3368 1.391 . S
C3370 C3371 1.400 . S
C3371 C3370 1.400 . S
C3371 C3372 1.398 . S
C3371 C3377 1.491 . S
C3372 H3363 0.950 . S
C3372 C3371 1.398 . S
C3372 C3373 1.391 . S
C3373 H3361 0.950 . S
C3373 C3369 1.393 . S
C3373 C3372 1.391 . S
C3374 H3364 0.950 . S
C3374 C3375 1.386 . S
C3374 C3376 1.391 . S
C3375 C3374 1.386 . S
C3375 C3379 1.393 . S
C3376 H3365 0.950 . S
C3376 C3374 1.391 . S
C3376 C3377 1.400 . S
C3377 C3371 1.491 . S
C3377 C3376 1.400 . S
C3377 C3378 1.398 . S
C3378 H3366 0.950 . S
C3378 C3377 1.398 . S
C3378 C3379 1.391 . S
C3379 H3367 0.950 . S
C3379 C3375 1.393 . S
C3379 C3378 1.391 . S
H3380 C3388 0.950 . S
H3381 C3393 0.950 . S
H3382 C3390 0.950 . S
H3383 C3392 0.950 . S
H3384 C3394 0.950 . S
H3385 C3396 0.950 . S
H3386 C3398 0.950 . S
H3387 C3399 0.950 . S
C3388 H3380 0.950 . S
C3388 C3389 1.386 . S
C3388 C3390 1.391 . S
C3389 C3388 1.386 . S
C3389 C3393 1.393 . S
C3390 H3382 0.950 . S
C3390 C3388 1.391 . S
C3390 C3391 1.400 . S
C3391 C3390 1.400 . S
C3391 C3392 1.398 . S
C3391 C3397 1.491 . S
C3392 H3383 0.950 . S
C3392 C3391 1.398 . S
C3392 C3393 1.391 . S
C3393 H3381 0.950 . S
C3393 C3389 1.393 . S
C3393 C3392 1.391 . S
C3394 H3384 0.950 . S
C3394 C3395 1.386 . S
C3394 C3396 1.391 . S
C3395 C3394 1.386 . S
C3395 C3399 1.393 . S
C3396 H3385 0.950 . S
C3396 C3394 1.391 . S
C3396 C3397 1.400 . S
C3397 C3391 1.491 . S
C3397 C3396 1.400 . S
C3397 C3398 1.398 . S
C3398 H3386 0.950 . S
C3398 C3397 1.398 . S
C3398 C3399 1.391 . S
C3399 H3387 0.950 . S
C3399 C3395 1.393 . S
C3399 C3398 1.391 . S
H3400 C3408 0.950 . S
H3401 C3413 0.950 . S
H3402 C3410 0.950 . S
H3403 C3412 0.950 . S
H3404 C3414 0.950 . S
H3405 C3416 0.927 1_455 S
H3406 C3418 0.950 . S
H3407 C3419 0.950 . S
C3408 H3400 0.950 . S
C3408 C3409 1.386 . S
C3408 C3410 1.391 . S
C3409 C3408 1.386 . S
C3409 C3413 1.393 . S
C3410 H3402 0.950 . S
C3410 C3408 1.391 . S
C3410 C3411 1.400 . S
C3411 C3410 1.400 . S
C3411 C3412 1.398 . S
C3411 C3417 1.491 . S
C3412 H3403 0.950 . S
C3412 C3411 1.398 . S
C3412 C3413 1.391 . S
C3413 H3401 0.950 . S
C3413 C3409 1.393 . S
C3413 C3412 1.391 . S
C3414 H3404 0.950 . S
C3414 C3415 1.386 1_455 S
C3414 C3416 1.371 1_455 S
C3415 C3414 1.386 1_655 S
C3415 C3419 1.393 . S
C3416 H3405 0.927 1_655 S
C3416 C3414 1.371 1_655 S
C3416 C3417 1.443 . S
C3417 C3411 1.491 . S
C3417 C3416 1.443 . S
C3417 C3418 1.398 . S
C3418 H3406 0.950 . S
C3418 C3417 1.398 . S
C3418 C3419 1.391 . S
C3419 H3407 0.950 . S
C3419 C3415 1.393 . S
C3419 C3418 1.391 . S
H3420 C3428 0.950 . S
H3421 C3433 0.950 . S
H3422 C3430 0.950 . S
H3423 C3432 0.950 . S
H3424 C3434 0.950 . S
H3425 C3436 0.950 . S
H3426 C3438 0.950 . S
H3427 C3439 0.950 . S
C3428 H3420 0.950 . S
C3428 C3429 1.386 . S
C3428 C3430 1.391 . S
C3429 C3428 1.386 . S
C3429 C3433 1.393 . S
C3430 H3422 0.950 . S
C3430 C3428 1.391 . S
C3430 C3431 1.400 . S
C3431 C3430 1.400 . S
C3431 C3432 1.398 . S
C3431 C3437 1.491 . S
C3432 H3423 0.950 . S
C3432 C3431 1.398 . S
C3432 C3433 1.391 . S
C3433 H3421 0.950 . S
C3433 C3429 1.393 . S
C3433 C3432 1.391 . S
C3434 H3424 0.950 . S
C3434 C3435 1.386 . S
C3434 C3436 1.391 . S
C3435 C3434 1.386 . S
C3435 C3439 1.393 . S
C3436 H3425 0.950 . S
C3436 C3434 1.391 . S
C3436 C3437 1.400 . S
C3437 C3431 1.491 . S
C3437 C3436 1.400 . S
C3437 C3438 1.398 . S
C3438 H3426 0.950 . S
C3438 C3437 1.398 . S
C3438 C3439 1.391 . S
C3439 H3427 0.950 . S
C3439 C3435 1.393 . S
C3439 C3438 1.391 . S
H3440 C3448 0.950 . S
H3441 C3453 0.950 . S
H3442 C3450 0.950 . S
H3443 C3452 0.950 . S
H3444 C3454 0.950 . S
H3445 C3456 0.950 . S
H3446 C3458 0.950 . S
H3447 C3459 0.950 . S
C3448 H3440 0.950 . S
C3448 C3449 1.386 . S
C3448 C3450 1.391 . S
C3449 C3448 1.386 . S
C3449 C3453 1.393 . S
C3450 H3442 0.950 . S
C3450 C3448 1.391 . S
C3450 C3451 1.400 . S
C3451 C3450 1.400 . S
C3451 C3452 1.398 . S
C3451 C3457 1.491 . S
C3452 H3443 0.950 . S
C3452 C3451 1.398 . S
C3452 C3453 1.391 . S
C3453 H3441 0.950 . S
C3453 C3449 1.393 . S
C3453 C3452 1.391 . S
C3454 H3444 0.950 . S
C3454 C3455 1.386 . S
C3454 C3456 1.391 . S
C3455 C3454 1.386 . S
C3455 C3459 1.393 . S
C3456 H3445 0.950 . S
C3456 C3454 1.391 . S
C3456 C3457 1.400 . S
C3457 C3451 1.491 . S
C3457 C3456 1.400 . S
C3457 C3458 1.398 . S
C3458 H3446 0.950 . S
C3458 C3457 1.398 . S
C3458 C3459 1.391 . S
C3459 H3447 0.950 . S
C3459 C3455 1.393 . S
C3459 C3458 1.391 . S
H3460 C3468 0.950 . S
H3461 C3473 0.950 . S
H3462 C3470 0.950 . S
H3463 C3472 0.950 . S
H3464 C3474 0.950 . S
H3465 C3476 0.950 . S
H3466 C3478 0.950 . S
H3467 C3479 0.950 . S
C3468 H3460 0.950 . S
C3468 C3469 1.386 . S
C3468 C3470 1.391 . S
C3469 C3468 1.386 . S
C3469 C3473 1.393 . S
C3470 H3462 0.950 . S
C3470 C3468 1.391 . S
C3470 C3471 1.400 . S
C3471 C3470 1.400 . S
C3471 C3472 1.398 . S
C3471 C3477 1.491 . S
C3472 H3463 0.950 . S
C3472 C3471 1.398 . S
C3472 C3473 1.391 . S
C3473 H3461 0.950 . S
C3473 C3469 1.393 . S
C3473 C3472 1.391 . S
C3474 H3464 0.950 . S
C3474 C3475 1.386 1_545 S
C3474 C3476 1.391 1_545 S
C3475 C3474 1.386 1_565 S
C3475 C3479 1.393 . S
C3476 H3465 0.950 . S
C3476 C3474 1.391 1_565 S
C3476 C3477 1.400 . S
C3477 C3471 1.491 . S
C3477 C3476 1.400 . S
C3477 C3478 1.398 . S
C3478 H3466 0.950 . S
C3478 C3477 1.398 . S
C3478 C3479 1.391 . S
C3479 H3467 0.950 . S
C3479 C3475 1.393 . S
C3479 C3478 1.391 . S
H3480 C3488 0.950 . S
H3481 C3493 0.950 . S
H3482 C3490 0.950 . S
H3483 C3492 0.950 . S
H3484 C3494 0.950 . S
H3485 C3496 0.950 . S
H3486 C3498 0.950 . S
H3487 C3499 0.950 . S
C3488 H3480 0.950 . S
C3488 C3489 1.386 . S
C3488 C3490 1.391 . S
C3489 C3488 1.386 . S
C3489 C3493 1.393 . S
C3490 H3482 0.950 . S
C3490 C3488 1.391 . S
C3490 C3491 1.400 . S
C3491 C3490 1.400 . S
C3491 C3492 1.398 . S
C3491 C3497 1.491 . S
C3492 H3483 0.950 . S
C3492 C3491 1.398 . S
C3492 C3493 1.391 . S
C3493 H3481 0.950 . S
C3493 C3489 1.393 . S
C3493 C3492 1.391 . S
C3494 H3484 0.950 . S
C3494 C3495 1.386 . S
C3494 C3496 1.391 . S
C3495 C3494 1.386 . S
C3495 C3499 1.393 . S
C3496 H3485 0.950 . S
C3496 C3494 1.391 . S
C3496 C3497 1.400 . S
C3497 C3491 1.491 . S
C3497 C3496 1.400 . S
C3497 C3498 1.398 . S
C3498 H3486 0.950 . S
C3498 C3497 1.398 . S
C3498 C3499 1.391 . S
C3499 H3487 0.950 . S
C3499 C3495 1.393 . S
C3499 C3498 1.391 . S
H3500 C3508 0.950 1_556 S
H3501 C3513 0.950 . S
H3502 C3510 0.918 1_556 S
H3503 C3512 0.950 . S
H3504 C3514 0.950 . S
H3505 C3516 0.950 . S
H3506 C3518 0.950 . S
H3507 C3519 0.950 . S
C3508 H3500 0.950 1_554 S
C3508 C3509 1.386 . S
C3508 C3510 1.388 . S
C3509 C3508 1.386 . S
C3509 C3513 1.393 . S
C3510 H3502 0.918 1_554 S
C3510 C3508 1.388 . S
C3510 C3511 1.436 . S
C3511 C3510 1.436 . S
C3511 C3512 1.398 . S
C3511 C3517 1.491 . S
C3512 H3503 0.950 . S
C3512 C3511 1.398 . S
C3512 C3513 1.391 . S
C3513 H3501 0.950 . S
C3513 C3509 1.393 . S
C3513 C3512 1.391 . S
C3514 H3504 0.950 . S
C3514 C3515 1.386 . S
C3514 C3516 1.391 . S
C3515 C3514 1.386 . S
C3515 C3519 1.393 1_554 S
C3516 H3505 0.950 . S
C3516 C3514 1.391 . S
C3516 C3517 1.400 . S
C3517 C3511 1.491 . S
C3517 C3516 1.400 . S
C3517 C3518 1.398 1_554 S
C3518 H3506 0.950 . S
C3518 C3517 1.398 1_556 S
C3518 C3519 1.391 . S
C3519 H3507 0.950 . S
C3519 C3515 1.393 1_556 S
C3519 C3518 1.391 . S
H3520 C3528 0.950 . S
H3521 C3533 0.950 . S
H3522 C3530 0.950 . S
H3523 C3532 0.950 . S
H3524 C3534 0.950 . S
H3525 C3536 0.950 . S
H3526 C3538 0.950 . S
H3527 C3539 0.950 . S
C3528 H3520 0.950 . S
C3528 C3529 1.386 . S
C3528 C3530 1.391 . S
C3529 C3528 1.386 . S
C3529 C3533 1.393 . S
C3530 H3522 0.950 . S
C3530 C3528 1.391 . S
C3530 C3531 1.400 . S
C3531 C3530 1.400 . S
C3531 C3532 1.398 . S
C3531 C3537 1.491 . S
C3532 H3523 0.950 . S
C3532 C3531 1.398 . S
C3532 C3533 1.391 . S
C3533 H3521 0.950 . S
C3533 C3529 1.393 . S
C3533 C3532 1.391 . S
C3534 H3524 0.950 . S
C3534 C3535 1.386 . S
C3534 C3536 1.391 . S
C3535 C3534 1.386 . S
C3535 C3539 1.393 . S
C3536 H3525 0.950 . S
C3536 C3534 1.391 . S
C3536 C3537 1.400 . S
C3537 C3531 1.491 . S
C3537 C3536 1.400 . S
C3537 C3538 1.398 . S
C3538 H3526 0.950 . S
C3538 C3537 1.398 . S
C3538 C3539 1.391 . S
C3539 H3527 0.950 . S
C3539 C3535 1.393 . S
C3539 C3538 1.391 . S
H3540 C3548 0.950 . S
H3541 C3553 0.950 . S
H3542 C3550 0.950 1_556 S
H3543 C3552 0.950 . S
H3544 C3554 0.950 . S
H3545 C3556 0.950 . S
H3546 C3558 0.950 1_556 S
H3547 C3559 0.950 . S
C3548 H3540 0.950 . S
C3548 C3549 1.386 . S
C3548 C3550 1.391 . S
C3549 C3548 1.386 . S
C3549 C3553 1.393 . S
C3550 H3542 0.950 1_554 S
C3550 C3548 1.391 . S
C3550 C3551 1.400 . S
C3551 C3550 1.400 . S
C3551 C3552 1.398 . S
C3551 C3557 1.491 . S
C3552 H3543 0.950 . S
C3552 C3551 1.398 . S
C3552 C3553 1.391 . S
C3553 H3541 0.950 . S
C3553 C3549 1.393 . S
C3553 C3552 1.391 . S
C3554 H3544 0.950 . S
C3554 C3555 1.386 . S
C3554 C3556 1.391 . S
C3555 C3554 1.386 . S
C3555 C3559 1.393 1_554 S
C3556 H3545 0.950 . S
C3556 C3554 1.391 . S
C3556 C3557 1.400 . S
C3557 C3551 1.491 . S
C3557 C3556 1.400 . S
C3557 C3558 1.398 . S
C3558 H3546 0.950 1_554 S
C3558 C3557 1.398 . S
C3558 C3559 1.391 1_554 S
C3559 H3547 0.950 . S
C3559 C3555 1.393 1_556 S
C3559 C3558 1.391 1_556 S
H3560 C3568 0.950 . S
H3561 C3573 0.950 . S
H3562 C3570 0.950 . S
H3563 C3572 0.950 . S
H3564 C3574 0.950 . S
H3565 C3576 0.950 . S
H3566 C3578 0.950 . S
H3567 C3579 0.950 . S
C3568 H3560 0.950 . S
C3568 C3569 1.386 . S
C3568 C3570 1.391 . S
C3569 C3568 1.386 . S
C3569 C3573 1.393 . S
C3570 H3562 0.950 . S
C3570 C3568 1.391 . S
C3570 C3571 1.400 . S
C3571 C3570 1.400 . S
C3571 C3572 1.398 . S
C3571 C3577 1.491 . S
C3572 H3563 0.950 . S
C3572 C3571 1.398 . S
C3572 C3573 1.391 . S
C3573 H3561 0.950 . S
C3573 C3569 1.393 . S
C3573 C3572 1.391 . S
C3574 H3564 0.950 . S
C3574 C3575 1.386 . S
C3574 C3576 1.391 . S
C3575 C3574 1.386 . S
C3575 C3579 1.393 . S
C3576 H3565 0.950 . S
C3576 C3574 1.391 . S
C3576 C3577 1.400 . S
C3577 C3571 1.491 . S
C3577 C3576 1.400 . S
C3577 C3578 1.398 . S
C3578 H3566 0.950 . S
C3578 C3577 1.398 . S
C3578 C3579 1.391 . S
C3579 H3567 0.950 . S
C3579 C3575 1.393 . S
C3579 C3578 1.391 . S
H3580 C3588 0.950 . S
H3581 C3593 0.950 . S
H3582 C3590 0.950 . S
H3583 C3592 0.950 . S
H3584 C3594 0.950 . S
H3585 C3596 0.950 . S
H3586 C3598 0.950 . S
H3587 C3599 0.950 . S
C3588 H3580 0.950 . S
C3588 C3589 1.386 . S
C3588 C3590 1.391 . S
C3589 C3588 1.386 . S
C3589 C3593 1.393 . S
C3590 H3582 0.950 . S
C3590 C3588 1.391 . S
C3590 C3591 1.400 . S
C3591 C3590 1.400 . S
C3591 C3592 1.398 . S
C3591 C3597 1.491 . S
C3592 H3583 0.950 . S
C3592 C3591 1.398 . S
C3592 C3593 1.391 . S
C3593 H3581 0.950 . S
C3593 C3589 1.393 . S
C3593 C3592 1.391 . S
C3594 H3584 0.950 . S
C3594 C3595 1.386 . S
C3594 C3596 1.391 . S
C3595 C3594 1.386 . S
C3595 C3599 1.393 . S
C3596 H3585 0.950 . S
C3596 C3594 1.391 . S
C3596 C3597 1.400 . S
C3597 C3591 1.491 . S
C3597 C3596 1.400 . S
C3597 C3598 1.398 . S
C3598 H3586 0.950 . S
C3598 C3597 1.398 . S
C3598 C3599 1.391 . S
C3599 H3587 0.950 . S
C3599 C3595 1.393 . S
C3599 C3598 1.391 . S
C1689 C111 1.773 . S
C1695 C392 1.655 . S
C1709 C64 2.194 . S
C1715 C483 2.204 . S
C1729 C77 1.501 . S
C1735 C560 1.425 . S
C1755 C658 1.304 . S
C1749 C95 1.415 . S
C1769 C25 1.373 . S
C1775 C742 1.329 . S
C1795 C814 0.932 . S
C1789 C36 0.980 . S
C1815 C903 0.894 . S
C1809 C50 0.852 . S
C1829 C11 1.429 . S
C1835 C980 1.219 . S
C1855 C399 1.956 . S
C1849 C237 1.965 . S
C1869 C245 0.648 . S
C1875 C490 0.665 . S
C1895 C567 1.073 . S
C1889 C279 1.002 . S
C1915 C644 1.497 . S
C1909 C175 1.584 . S
C1929 C231 1.971 . S
C1935 C728 1.848 . S
C1955 C830 1.027 . S
C1949 C251 1.034 . S
C1975 C910 0.754 . S
C1969 C273 0.742 . S
C1995 C987 1.432 . S
C1989 C181 1.552 . S
C2015 C406 1.321 . S
C2009 C165 1.390 . S
C2029 C288 1.883 . S
C2035 C1071 1.893 1_556 S
C2055 C1159 2.181 . S
C2049 C333 2.346 . S
C2075 C1232 0.567 . S
C2069 C316 0.419 . S
C2089 C123 0.859 . S
C2095 C994 0.833 . S
C2109 C137 1.373 . S
C2115 C574 1.298 . S
C2129 C330 2.178 . S
C2135 C1323 2.196 . S
C2155 C1400 0.749 . S
C2149 C302 0.692 . S
C2175 C403 1.807 . S
C2169 C63 1.907 . S
C2195 C1418 2.232 . S
C2189 C106 2.288 . S
C2209 C97 1.563 . S
C2215 C571 1.532 . S
C2229 C81 1.467 . S
C2235 C1318 1.348 . S
C2255 C730 1.391 . S
C2249 C13 1.360 . S
C2269 C55 0.948 . S
C2275 C1162 0.940 . S
C2295 C914 0.939 1_565 S
C2289 C35 0.918 . S
C2315 C1495 1.440 . S
C2309 C21 1.585 . S
C2335 C410 2.083 . S
C2329 C147 2.187 . S
C2355 C1402 0.705 . S
C2349 C321 0.654 . S
C2369 C119 1.134 . S
C2375 C578 1.087 . S
C2389 C293 1.650 . S
C2395 C1327 1.632 . S
C2409 C153 1.971 . S
C2415 C739 2.017 . S
C2435 C1155 1.084 . S
C2429 C315 1.158 . S
C2449 C125 0.778 . S
C2455 C898 0.739 . S
C2469 C287 1.711 . S
C2475 C1502 1.590 . S
C2489 C193 1.413 . S
C2495 C394 1.372 . S
C2509 C176 1.947 . S
C2515 C1082 1.896 . S
C2529 C263 2.307 . S
C2535 C812 2.121 . S
C2549 C246 0.681 . S
C2555 C1243 0.639 . S
C2575 C1486 0.828 . S
C2569 C277 0.848 1_565 S
C2589 C221 1.370 . S
C2595 C562 1.319 . S
C2615 C662 2.232 . S
C2609 C260 2.260 . S
C2635 C487 0.812 . S
C2629 C204 0.858 . S
C2649 C83 1.774 . S
C2655 C1568 1.634 . S
C2675 C1407 2.213 . S
C2669 C92 2.183 . S
C2689 C105 1.499 . S
C2695 C1652 1.439 . S
C2709 C67 1.413 . S
C2715 C1330 1.292 . S
C2729 C53 1.374 . S
C2735 C1078 1.303 . S
C2755 C1150 0.923 . S
C2749 C8 0.977 . S
C2775 C1239 0.890 . S
C2769 C22 0.862 . S
C2795 C1484 1.222 . S
C2789 C39 1.430 . S
C2815 C1575 1.956 . S
C2809 C265 1.965 . S
C2829 C189 0.647 . S
C2835 C1414 0.629 . S
C2855 C1659 1.034 . S
C2849 C209 1.021 . S
C2875 C1316 1.504 . S
C2869 C217 1.585 . S
C2895 C1064 1.821 . S
C2889 C259 1.960 . S
C2909 C195 1.044 . S
C2915 C1166 1.034 . S
C2935 C1246 0.781 . S
C2929 C203 0.739 . S
C2949 C223 1.532 . S
C2955 C1491 1.450 . S
C2975 C1582 1.321 . S
C2969 C319 1.386 . S
C2989 C134 1.883 . S
C2995 C735 1.896 . S
C3015 C823 2.185 . S
C3009 C151 2.353 . S
C3035 C896 0.567 . S
C3029 C162 0.424 . S
C3055 C1498 0.862 . S
C3049 C305 0.838 . S
C3069 C291 1.368 1_554 S
C3075 C1666 1.317 . S
C3095 C651 2.180 . S
C3089 C148 2.189 . S
C3115 C476 0.691 . S
C3109 C120 0.732 . S
C3129 C91 1.903 . S
C3135 C1579 1.780 . S
C3155 C494 2.229 . S
C3149 C78 2.288 . S
C3169 C69 1.543 . S
C3175 C1663 1.506 . S
C3189 C109 1.467 . S
C3195 C646 1.362 . S
C3209 C41 1.342 . S
C3215 C1066 1.404 . S
C3235 C826 0.936 . S
C3229 C27 0.993 . S
C3249 C7 0.905 . S
C3255 C1250 0.965 . S
C3269 C49 1.587 . S
C3275 C991 1.433 . S
C3295 C1586 2.075 . S
C3289 C329 2.188 . S
C3309 C167 0.689 . S
C3315 C478 0.666 . S
C3335 C1670 1.091 . S
C3329 C301 1.133 . S
C3349 C139 1.644 . S
C3355 C655 1.622 . S
C3369 C335 1.967 . S
C3375 C1075 2.011 . S
C3395 C819 1.071 . S
C3389 C161 1.159 . S
C3409 C307 0.775 . S
C3415 C1234 0.744 1_655 S
C3435 C998 1.565 . S
C3429 C133 1.709 . S
C3455 C1570 1.348 . S
C3449 C249 1.429 . S
C3475 C746 1.918 1_665 S
C3469 C218 1.956 . S
C3489 C235 2.309 . S
C3495 C1148 2.131 . S
C3515 C907 0.602 . S
C3509 C190 0.657 . S
C3529 C207 0.818 . S
C3535 C982 0.863 . S
C3549 C179 1.354 . S
C3555 C1654 1.326 1_554 S
C3575 C1334 2.250 . S
C3569 C232 2.267 1_565 S
C3595 C1411 0.813 . S
C3589 C274 0.849 . S
