# Generated by pormake.
# Topology gar, (4,6)-cn, num edge types: 1
# Building blocks:
#     Node 0, Type 0, BuildingBlock: GALJAG_clean_sbu_0, # of connection points: 4
#     Node 1, Type 0, BuildingBlock: GALJAG_clean_sbu_0, # of connection points: 4
#     Node 2, Type 0, BuildingBlock: GALJAG_clean_sbu_0, # of connection points: 4
#     Node 3, Type 0, BuildingBlock: GALJAG_clean_sbu_0, # of connection points: 4
#     Node 4, Type 0, BuildingBlock: GALJAG_clean_sbu_0, # of connection points: 4
#     Node 5, Type 0, BuildingBlock: GALJAG_clean_sbu_0, # of connection points: 4
#     Node 6, Type 0, BuildingBlock: GALJAG_clean_sbu_0, # of connection points: 4
#     Node 7, Type 0, BuildingBlock: GALJAG_clean_sbu_0, # of connection points: 4
#     Node 8, Type 0, BuildingBlock: GALJAG_clean_sbu_0, # of connection points: 4
#     Node 9, Type 0, BuildingBlock: GALJAG_clean_sbu_0, # of connection points: 4
#     Node 10, Type 0, BuildingBlock: GALJAG_clean_sbu_0, # of connection points: 4
#     Node 11, Type 0, BuildingBlock: GALJAG_clean_sbu_0, # of connection points: 4
#     Node 12, Type 0, BuildingBlock: GALJAG_clean_sbu_0, # of connection points: 4
#     Node 13, Type 0, BuildingBlock: GALJAG_clean_sbu_0, # of connection points: 4
#     Node 14, Type 0, BuildingBlock: GALJAG_clean_sbu_0, # of connection points: 4
#     Node 15, Type 0, BuildingBlock: GALJAG_clean_sbu_0, # of connection points: 4
#     Node 16, Type 0, BuildingBlock: GALJAG_clean_sbu_0, # of connection points: 4
#     Node 17, Type 0, BuildingBlock: GALJAG_clean_sbu_0, # of connection points: 4
#     Node 18, Type 0, BuildingBlock: GALJAG_clean_sbu_0, # of connection points: 4
#     Node 19, Type 0, BuildingBlock: GALJAG_clean_sbu_0, # of connection points: 4
#     Node 20, Type 0, BuildingBlock: GALJAG_clean_sbu_0, # of connection points: 4
#     Node 21, Type 0, BuildingBlock: GALJAG_clean_sbu_0, # of connection points: 4
#     Node 22, Type 0, BuildingBlock: GALJAG_clean_sbu_0, # of connection points: 4
#     Node 23, Type 0, BuildingBlock: GALJAG_clean_sbu_0, # of connection points: 4
#     Node 24, Type 1, BuildingBlock: BETDAH_clean_sbu_0, # of connection points: 6
#     Node 25, Type 1, BuildingBlock: BETDAH_clean_sbu_0, # of connection points: 6
#     Node 26, Type 1, BuildingBlock: BETDAH_clean_sbu_0, # of connection points: 6
#     Node 27, Type 1, BuildingBlock: BETDAH_clean_sbu_0, # of connection points: 6
#     Node 28, Type 1, BuildingBlock: BETDAH_clean_sbu_0, # of connection points: 6
#     Node 29, Type 1, BuildingBlock: BETDAH_clean_sbu_0, # of connection points: 6
#     Node 30, Type 1, BuildingBlock: BETDAH_clean_sbu_0, # of connection points: 6
#     Node 31, Type 1, BuildingBlock: BETDAH_clean_sbu_0, # of connection points: 6
#     Node 32, Type 1, BuildingBlock: BETDAH_clean_sbu_0, # of connection points: 6
#     Node 33, Type 1, BuildingBlock: BETDAH_clean_sbu_0, # of connection points: 6
#     Node 34, Type 1, BuildingBlock: BETDAH_clean_sbu_0, # of connection points: 6
#     Node 35, Type 1, BuildingBlock: BETDAH_clean_sbu_0, # of connection points: 6
#     Node 36, Type 1, BuildingBlock: BETDAH_clean_sbu_0, # of connection points: 6
#     Node 37, Type 1, BuildingBlock: BETDAH_clean_sbu_0, # of connection points: 6
#     Node 38, Type 1, BuildingBlock: BETDAH_clean_sbu_0, # of connection points: 6
#     Node 39, Type 1, BuildingBlock: BETDAH_clean_sbu_0, # of connection points: 6
#     Edge 40, Type (0, 1), BuildingBlock: UVAHIK_clean_linker_0, # of connection points: 2
#     Edge 41, Type (0, 1), BuildingBlock: UVAHIK_clean_linker_0, # of connection points: 2
#     Edge 42, Type (0, 1), BuildingBlock: UVAHIK_clean_linker_0, # of connection points: 2
#     Edge 43, Type (0, 1), BuildingBlock: UVAHIK_clean_linker_0, # of connection points: 2
#     Edge 44, Type (0, 1), BuildingBlock: UVAHIK_clean_linker_0, # of connection points: 2
#     Edge 45, Type (0, 1), BuildingBlock: UVAHIK_clean_linker_0, # of connection points: 2
#     Edge 46, Type (0, 1), BuildingBlock: UVAHIK_clean_linker_0, # of connection points: 2
#     Edge 47, Type (0, 1), BuildingBlock: UVAHIK_clean_linker_0, # of connection points: 2
#     Edge 48, Type (0, 1), BuildingBlock: UVAHIK_clean_linker_0, # of connection points: 2
#     Edge 49, Type (0, 1), BuildingBlock: UVAHIK_clean_linker_0, # of connection points: 2
#     Edge 50, Type (0, 1), BuildingBlock: UVAHIK_clean_linker_0, # of connection points: 2
#     Edge 51, Type (0, 1), BuildingBlock: UVAHIK_clean_linker_0, # of connection points: 2
#     Edge 52, Type (0, 1), BuildingBlock: UVAHIK_clean_linker_0, # of connection points: 2
#     Edge 53, Type (0, 1), BuildingBlock: UVAHIK_clean_linker_0, # of connection points: 2
#     Edge 54, Type (0, 1), BuildingBlock: UVAHIK_clean_linker_0, # of connection points: 2
#     Edge 55, Type (0, 1), BuildingBlock: UVAHIK_clean_linker_0, # of connection points: 2
#     Edge 56, Type (0, 1), BuildingBlock: UVAHIK_clean_linker_0, # of connection points: 2
#     Edge 57, Type (0, 1), BuildingBlock: UVAHIK_clean_linker_0, # of connection points: 2
#     Edge 58, Type (0, 1), BuildingBlock: UVAHIK_clean_linker_0, # of connection points: 2
#     Edge 59, Type (0, 1), BuildingBlock: UVAHIK_clean_linker_0, # of connection points: 2
#     Edge 60, Type (0, 1), BuildingBlock: UVAHIK_clean_linker_0, # of connection points: 2
#     Edge 61, Type (0, 1), BuildingBlock: UVAHIK_clean_linker_0, # of connection points: 2
#     Edge 62, Type (0, 1), BuildingBlock: UVAHIK_clean_linker_0, # of connection points: 2
#     Edge 63, Type (0, 1), BuildingBlock: UVAHIK_clean_linker_0, # of connection points: 2
#     Edge 64, Type (0, 1), BuildingBlock: UVAHIK_clean_linker_0, # of connection points: 2
#     Edge 65, Type (0, 1), BuildingBlock: UVAHIK_clean_linker_0, # of connection points: 2
#     Edge 66, Type (0, 1), BuildingBlock: UVAHIK_clean_linker_0, # of connection points: 2
#     Edge 67, Type (0, 1), BuildingBlock: UVAHIK_clean_linker_0, # of connection points: 2
#     Edge 68, Type (0, 1), BuildingBlock: UVAHIK_clean_linker_0, # of connection points: 2
#     Edge 69, Type (0, 1), BuildingBlock: UVAHIK_clean_linker_0, # of connection points: 2
#     Edge 70, Type (0, 1), BuildingBlock: UVAHIK_clean_linker_0, # of connection points: 2
#     Edge 71, Type (0, 1), BuildingBlock: UVAHIK_clean_linker_0, # of connection points: 2
#     Edge 72, Type (0, 1), BuildingBlock: UVAHIK_clean_linker_0, # of connection points: 2
#     Edge 73, Type (0, 1), BuildingBlock: UVAHIK_clean_linker_0, # of connection points: 2
#     Edge 74, Type (0, 1), BuildingBlock: UVAHIK_clean_linker_0, # of connection points: 2
#     Edge 75, Type (0, 1), BuildingBlock: UVAHIK_clean_linker_0, # of connection points: 2
#     Edge 76, Type (0, 1), BuildingBlock: UVAHIK_clean_linker_0, # of connection points: 2
#     Edge 77, Type (0, 1), BuildingBlock: UVAHIK_clean_linker_0, # of connection points: 2
#     Edge 78, Type (0, 1), BuildingBlock: UVAHIK_clean_linker_0, # of connection points: 2
#     Edge 79, Type (0, 1), BuildingBlock: UVAHIK_clean_linker_0, # of connection points: 2
#     Edge 80, Type (0, 1), BuildingBlock: UVAHIK_clean_linker_0, # of connection points: 2
#     Edge 81, Type (0, 1), BuildingBlock: UVAHIK_clean_linker_0, # of connection points: 2
#     Edge 82, Type (0, 1), BuildingBlock: UVAHIK_clean_linker_0, # of connection points: 2
#     Edge 83, Type (0, 1), BuildingBlock: UVAHIK_clean_linker_0, # of connection points: 2
#     Edge 84, Type (0, 1), BuildingBlock: UVAHIK_clean_linker_0, # of connection points: 2
#     Edge 85, Type (0, 1), BuildingBlock: UVAHIK_clean_linker_0, # of connection points: 2
#     Edge 86, Type (0, 1), BuildingBlock: UVAHIK_clean_linker_0, # of connection points: 2
#     Edge 87, Type (0, 1), BuildingBlock: UVAHIK_clean_linker_0, # of connection points: 2
#     Edge 88, Type (0, 1), BuildingBlock: UVAHIK_clean_linker_0, # of connection points: 2
#     Edge 89, Type (0, 1), BuildingBlock: UVAHIK_clean_linker_0, # of connection points: 2
#     Edge 90, Type (0, 1), BuildingBlock: UVAHIK_clean_linker_0, # of connection points: 2
#     Edge 91, Type (0, 1), BuildingBlock: UVAHIK_clean_linker_0, # of connection points: 2
#     Edge 92, Type (0, 1), BuildingBlock: UVAHIK_clean_linker_0, # of connection points: 2
#     Edge 93, Type (0, 1), BuildingBlock: UVAHIK_clean_linker_0, # of connection points: 2
#     Edge 94, Type (0, 1), BuildingBlock: UVAHIK_clean_linker_0, # of connection points: 2
#     Edge 95, Type (0, 1), BuildingBlock: UVAHIK_clean_linker_0, # of connection points: 2
#     Edge 96, Type (0, 1), BuildingBlock: UVAHIK_clean_linker_0, # of connection points: 2
#     Edge 97, Type (0, 1), BuildingBlock: UVAHIK_clean_linker_0, # of connection points: 2
#     Edge 98, Type (0, 1), BuildingBlock: UVAHIK_clean_linker_0, # of connection points: 2
#     Edge 99, Type (0, 1), BuildingBlock: UVAHIK_clean_linker_0, # of connection points: 2
#     Edge 100, Type (0, 1), BuildingBlock: UVAHIK_clean_linker_0, # of connection points: 2
#     Edge 101, Type (0, 1), BuildingBlock: UVAHIK_clean_linker_0, # of connection points: 2
#     Edge 102, Type (0, 1), BuildingBlock: UVAHIK_clean_linker_0, # of connection points: 2
#     Edge 103, Type (0, 1), BuildingBlock: UVAHIK_clean_linker_0, # of connection points: 2
#     Edge 104, Type (0, 1), BuildingBlock: UVAHIK_clean_linker_0, # of connection points: 2
#     Edge 105, Type (0, 1), BuildingBlock: UVAHIK_clean_linker_0, # of connection points: 2
#     Edge 106, Type (0, 1), BuildingBlock: UVAHIK_clean_linker_0, # of connection points: 2
#     Edge 107, Type (0, 1), BuildingBlock: UVAHIK_clean_linker_0, # of connection points: 2
#     Edge 108, Type (0, 1), BuildingBlock: UVAHIK_clean_linker_0, # of connection points: 2
#     Edge 109, Type (0, 1), BuildingBlock: UVAHIK_clean_linker_0, # of connection points: 2
#     Edge 110, Type (0, 1), BuildingBlock: UVAHIK_clean_linker_0, # of connection points: 2
#     Edge 111, Type (0, 1), BuildingBlock: UVAHIK_clean_linker_0, # of connection points: 2
#     Edge 112, Type (0, 1), BuildingBlock: UVAHIK_clean_linker_0, # of connection points: 2
#     Edge 113, Type (0, 1), BuildingBlock: UVAHIK_clean_linker_0, # of connection points: 2
#     Edge 114, Type (0, 1), BuildingBlock: UVAHIK_clean_linker_0, # of connection points: 2
#     Edge 115, Type (0, 1), BuildingBlock: UVAHIK_clean_linker_0, # of connection points: 2
#     Edge 116, Type (0, 1), BuildingBlock: UVAHIK_clean_linker_0, # of connection points: 2
#     Edge 117, Type (0, 1), BuildingBlock: UVAHIK_clean_linker_0, # of connection points: 2
#     Edge 118, Type (0, 1), BuildingBlock: UVAHIK_clean_linker_0, # of connection points: 2
#     Edge 119, Type (0, 1), BuildingBlock: UVAHIK_clean_linker_0, # of connection points: 2
#     Edge 120, Type (0, 1), BuildingBlock: UVAHIK_clean_linker_0, # of connection points: 2
#     Edge 121, Type (0, 1), BuildingBlock: UVAHIK_clean_linker_0, # of connection points: 2
#     Edge 122, Type (0, 1), BuildingBlock: UVAHIK_clean_linker_0, # of connection points: 2
#     Edge 123, Type (0, 1), BuildingBlock: UVAHIK_clean_linker_0, # of connection points: 2
#     Edge 124, Type (0, 1), BuildingBlock: UVAHIK_clean_linker_0, # of connection points: 2
#     Edge 125, Type (0, 1), BuildingBlock: UVAHIK_clean_linker_0, # of connection points: 2
#     Edge 126, Type (0, 1), BuildingBlock: UVAHIK_clean_linker_0, # of connection points: 2
#     Edge 127, Type (0, 1), BuildingBlock: UVAHIK_clean_linker_0, # of connection points: 2
#     Edge 128, Type (0, 1), BuildingBlock: UVAHIK_clean_linker_0, # of connection points: 2
#     Edge 129, Type (0, 1), BuildingBlock: UVAHIK_clean_linker_0, # of connection points: 2
#     Edge 130, Type (0, 1), BuildingBlock: UVAHIK_clean_linker_0, # of connection points: 2
#     Edge 131, Type (0, 1), BuildingBlock: UVAHIK_clean_linker_0, # of connection points: 2
#     Edge 132, Type (0, 1), BuildingBlock: UVAHIK_clean_linker_0, # of connection points: 2
#     Edge 133, Type (0, 1), BuildingBlock: UVAHIK_clean_linker_0, # of connection points: 2
#     Edge 134, Type (0, 1), BuildingBlock: UVAHIK_clean_linker_0, # of connection points: 2
#     Edge 135, Type (0, 1), BuildingBlock: UVAHIK_clean_linker_0, # of connection points: 2
# Relax obj value: 0.180
# Max RMSD: 0.286
# Mean RMSD: 0.169
data_MOF--net-gar--node1-GALJAG_clean_sbu_0--node2-BETDAH_clean_sbu_0--edge1-UVAHIK_clean_linker_0
_symmetry_space_group_name_H-M    P1
_symmetry_Int_Tables_number       1
_symmetry_cell_setting            triclinic
loop_
_symmetry_equiv_pos_as_xyz
'x, y, z'
_cell_length_a     78.258285
_cell_length_b     72.684578
_cell_length_c     72.862704
_cell_angle_alpha  98.310762
_cell_angle_beta   95.038866
_cell_angle_gamma 102.22348
loop_
_atom_site_label
_atom_site_type_symbol
_atom_site_fract_x
_atom_site_fract_y
_atom_site_fract_z
_atom_type_partial_charge
In0 In 0.08755 0.32242 0.39261 0.0
O1 O 0.09685 0.31111 0.36619 0.0
O2 O 0.1166 0.32661 0.3883 0.0
C3 C 0.05557 0.32142 0.3767 0.0
C4 C 0.08267 0.29031 0.407 0.0
C5 C 0.09109 0.35831 0.40945 0.0
O6 O 0.06927 0.32703 0.36927 0.0
O7 O 0.05789 0.31596 0.3922 0.0
O8 O 0.09114 0.34493 0.41882 0.0
O9 O 0.09079 0.35365 0.39209 0.0
C10 C 0.11296 0.31735 0.37186 0.0
O11 O 0.09105 0.30606 0.41673 0.0
O12 O 0.07718 0.29109 0.39044 0.0
In13 In 0.99684 0.75972 0.65763 0.0
O14 O 0.99407 0.77565 0.63335 0.0
O15 O 0.01025 0.79043 0.65841 0.0
C16 C 0.99347 0.7258 0.63692 0.0
C17 C 0.02711 0.7627 0.67868 0.0
C18 C 0.96713 0.75799 0.67263 0.0
O19 O 1.00133 0.7411 0.63219 0.0
O20 O 0.98666 0.72756 0.65193 0.0
O21 O 0.98093 0.75572 0.68144 0.0
O22 O 0.96851 0.76173 0.65639 0.0
C23 C 0.00447 0.7908 0.64184 0.0
O24 O 0.01608 0.77216 0.68387 0.0
O25 O 0.02248 0.75142 0.66338 0.0
In26 In 0.58876 0.82298 0.8942 0.0
O27 O 0.59907 0.81268 0.86809 0.0
O28 O 0.61811 0.82796 0.89102 0.0
C29 C 0.55783 0.82266 0.87576 0.0
C30 C 0.58461 0.79041 0.90768 0.0
C31 C 0.59065 0.8564 0.91569 0.0
O32 O 0.57217 0.83136 0.87129 0.0
O33 O 0.55913 0.81413 0.88949 0.0
O34 O 0.58628 0.8407 0.92145 0.0
O35 O 0.59566 0.85528 0.89966 0.0
C36 C 0.61502 0.81898 0.87444 0.0
O37 O 0.59197 0.8062 0.91793 0.0
O38 O 0.57987 0.79128 0.89093 0.0
In39 In 0.49647 0.25666 0.1567 0.0
O40 O 0.48624 0.23414 0.13121 0.0
O41 O 0.49737 0.22575 0.15564 0.0
C42 C 0.50413 0.28694 0.13972 0.0
C43 C 0.46736 0.25513 0.17293 0.0
C44 C 0.52843 0.26249 0.17474 0.0
O45 O 0.49883 0.27021 0.13067 0.0
O46 O 0.50491 0.2884 0.15721 0.0
O47 O 0.51646 0.2691 0.18205 0.0
O48 O 0.52411 0.25281 0.15853 0.0
C49 C 0.49027 0.2209 0.13893 0.0
O50 O 0.48141 0.25305 0.18134 0.0
O51 O 0.46822 0.25855 0.15655 0.0
In52 In 0.07158 0.80769 0.12692 0.0
O53 O 0.07149 0.78577 0.10041 0.0
O54 O 0.06339 0.77558 0.12486 0.0
C55 C 0.07157 0.83964 0.11086 0.0
C56 C 0.04059 0.80205 0.14187 0.0
C57 C 0.10357 0.81168 0.14787 0.0
O58 O 0.07008 0.82327 0.1014 0.0
O59 O 0.07373 0.84002 0.12829 0.0
O60 O 0.09079 0.81741 0.15427 0.0
O61 O 0.10061 0.80482 0.13067 0.0
C62 C 0.06586 0.77147 0.10806 0.0
O63 O 0.05524 0.80322 0.15125 0.0
O64 O 0.04161 0.80442 0.12516 0.0
In65 In 0.50857 0.76873 0.41276 0.0
O66 O 0.52521 0.76362 0.38842 0.0
O67 O 0.53847 0.77923 0.41445 0.0
C68 C 0.47683 0.76942 0.39282 0.0
C69 C 0.51119 0.73842 0.43028 0.0
C70 C 0.51202 0.80208 0.4358 0.0
O71 O 0.49173 0.77684 0.38859 0.0
O72 O 0.47779 0.76031 0.40622 0.0
O73 O 0.50356 0.7865 0.43946 0.0
O74 O 0.51871 0.80072 0.4207 0.0
C75 C 0.53977 0.77252 0.39782 0.0
O76 O 0.5117 0.75492 0.43883 0.0
O77 O 0.50851 0.73678 0.41267 0.0
In78 In 0.57138 0.30815 0.62795 0.0
O79 O 0.57381 0.28663 0.60211 0.0
O80 O 0.56073 0.27614 0.62409 0.0
C81 C 0.57141 0.33941 0.61081 0.0
C82 C 0.54063 0.30339 0.64348 0.0
C83 C 0.60302 0.31198 0.64958 0.0
O84 O 0.56682 0.32246 0.60217 0.0
O85 O 0.57668 0.3407 0.62793 0.0
O86 O 0.59043 0.31856 0.65545 0.0
O87 O 0.60001 0.30425 0.6326 0.0
C88 C 0.56568 0.27227 0.6083 0.0
O89 O 0.55501 0.30228 0.65208 0.0
O90 O 0.5419 0.30766 0.62742 0.0
In91 In 0.00914 0.2692 0.91217 0.0
O92 O 0.00754 0.25371 0.93755 0.0
O93 O 0.01114 0.23788 0.91196 0.0
C94 C 0.01381 0.30356 0.93386 0.0
C95 C 0.04049 0.27372 0.89729 0.0
C96 C 0.97665 0.2687 0.89309 0.0
O97 O 0.01457 0.28875 0.94074 0.0
O98 O 0.01081 0.30095 0.91631 0.0
O99 O 0.99117 0.27367 0.88686 0.0
O100 O 0.97823 0.26243 0.9083 0.0
C101 C 0.01017 0.23826 0.92925 0.0
O102 O 0.0262 0.26362 0.8883 0.0
O103 O 0.0389 0.28137 0.9135 0.0
In104 In 0.42111 0.0268 0.28977 0.0
O105 O 0.44081 0.03461 0.26984 0.0
O106 O 0.41495 0.01743 0.25931 0.0
C107 C 0.43733 0.03514 0.32392 0.0
C108 C 0.40158 0.05182 0.28635 0.0
C109 C 0.41399 0.98993 0.29015 0.0
O110 O 0.44587 0.03518 0.30995 0.0
O111 O 0.42082 0.03228 0.32048 0.0
O112 O 0.40295 1.00003 0.2936 0.0
O113 O 0.42863 0.99833 0.28616 0.0
C114 C 0.43001 0.0254 0.25588 0.0
O115 O 0.39475 0.03422 0.28521 0.0
O116 O 0.41816 0.05669 0.29003 0.0
In117 In 0.28061 0.18672 0.50435 0.0
O118 O 0.27383 0.20982 0.52588 0.0
O119 O 0.29439 0.19682 0.53421 0.0
C120 C 0.28231 0.20154 0.47188 0.0
C121 C 0.30806 0.16991 0.50891 0.0
C122 C 0.24778 0.16394 0.50333 0.0
O123 O 0.28561 0.21197 0.48777 0.0
O124 O 0.27822 0.18396 0.47245 0.0
O125 O 0.2602 0.15789 0.49643 0.0
O126 O 0.25185 0.18137 0.51048 0.0
C127 C 0.28506 0.20844 0.53886 0.0
O128 O 0.29231 0.16158 0.50977 0.0
O129 O 0.30997 0.18663 0.50518 0.0
In130 In 0.16161 0.01522 0.77831 0.0
O131 O 0.1358 1.00538 0.7552 0.0
O132 O 0.15936 0.01834 0.74631 0.0
C133 C 0.1442 0.01753 0.81225 0.0
C134 C 0.17942 0.98361 0.77468 0.0
C135 C 0.18147 0.05353 0.78143 0.0
O136 O 0.13784 0.02019 0.79651 0.0
O137 O 0.15901 0.01339 0.81098 0.0
O138 O 0.18765 0.04042 0.78738 0.0
O139 O 0.16554 0.04755 0.77464 0.0
C140 C 0.14308 0.0115 0.74165 0.0
O141 O 0.18681 1.00105 0.7755 0.0
O142 O 0.16303 0.98181 0.77556 0.0
In143 In 0.29689 0.9207 0.01125 0.0
O144 O 0.29472 0.89601 0.02741 0.0
O145 O 0.29301 0.92335 0.04131 0.0
C146 C 0.29755 0.90388 0.97659 0.0
C147 C 0.27043 0.93808 0.00994 0.0
C148 C 0.33036 0.93735 0.02274 0.0
O149 O 0.29024 0.89497 0.98852 0.0
O150 O 0.30382 0.92151 0.98197 0.0
O151 O 0.31875 0.94679 0.02044 0.0
O152 O 0.32521 0.91948 0.0183 0.0
C153 C 0.29369 0.90644 0.04255 0.0
O154 O 0.28631 0.94709 0.0119 0.0
O155 O 0.26787 0.92009 0.00736 0.0
In156 In 0.30321 0.39405 0.03886 0.0
O157 O 0.3004 0.36712 0.05258 0.0
O158 O 0.30122 0.39325 0.07016 0.0
C159 C 0.3002 0.37518 1.00372 0.0
C160 C 0.27331 0.40793 0.03623 0.0
C161 C 0.33758 0.41416 0.03999 0.0
O162 O 0.29714 0.3665 0.01734 0.0
O163 O 0.30462 0.39313 0.00792 0.0
O164 O 0.32448 0.42172 0.03866 0.0
O165 O 0.33347 0.39686 0.04192 0.0
C166 C 0.2997 0.37544 0.06884 0.0
O167 O 0.28731 0.41707 0.04644 0.0
O168 O 0.2744 0.39198 0.02764 0.0
In169 In 0.78253 0.14826 0.02643 0.0
O170 O 0.79573 0.12346 0.02761 0.0
O171 O 0.81102 0.15082 0.02496 0.0
C172 C 0.74806 0.13386 0.02036 0.0
C173 C 0.78554 0.16796 0.06048 0.0
C174 C 0.78135 0.16505 0.99674 0.0
O175 O 0.75876 0.12331 0.01694 0.0
O176 O 0.75492 0.15092 0.02756 0.0
O177 O 0.78611 0.17419 0.01307 0.0
O178 O 0.77856 0.14712 0.99514 0.0
C179 C 0.81061 0.13363 0.02606 0.0
O180 O 0.79005 0.17546 0.04659 0.0
O181 O 0.78036 0.14996 0.05746 0.0
In182 In 0.16688 0.54786 0.26007 0.0
O183 O 0.18987 0.53437 0.25537 0.0
O184 O 0.16468 0.51718 0.25845 0.0
C185 C 0.17765 0.58495 0.26776 0.0
C186 C 0.14905 0.54342 0.22703 0.0
C187 C 0.15664 0.54679 0.29337 0.0
O188 O 0.18853 0.57427 0.26758 0.0
O189 O 0.16165 0.57683 0.26292 0.0
O190 O 0.14594 0.54126 0.27857 0.0
O191 O 0.17265 0.55201 0.29121 0.0
C192 C 0.18057 0.51805 0.25621 0.0
O193 O 0.14171 0.53964 0.24122 0.0
O194 O 0.16559 0.54952 0.22956 0.0
In195 In 0.80262 0.89383 0.53874 0.0
O196 O 0.79977 0.86702 0.55261 0.0
O197 O 0.80057 0.89316 0.57015 0.0
C198 C 0.80032 0.87439 0.50384 0.0
C199 C 0.77278 0.90778 0.53546 0.0
C200 C 0.8369 0.91429 0.54015 0.0
O201 O 0.79606 0.86601 0.51736 0.0
O202 O 0.8056 0.89227 0.50802 0.0
O203 O 0.82366 0.92138 0.53743 0.0
O204 O 0.83294 0.89737 0.54333 0.0
C205 C 0.79905 0.87534 0.56887 0.0
O206 O 0.78663 0.91685 0.54596 0.0
O207 O 0.77399 0.89186 0.52692 0.0
In208 In 0.92247 0.06124 0.26276 0.0
O209 O 0.94751 0.07042 0.24627 0.0
O210 O 0.9248 0.05359 0.22998 0.0
C211 C 0.94363 0.06132 0.29684 0.0
C212 C 0.90601 0.09418 0.26346 0.0
C213 C 0.90186 0.02318 0.26261 0.0
O214 O 0.9478 0.05665 0.28074 0.0
O215 O 0.92942 0.06693 0.29594 0.0
O216 O 0.89855 0.03824 0.27116 0.0
O217 O 0.91465 0.02726 0.25335 0.0
C218 C 0.94076 0.06195 0.22996 0.0
O219 O 0.89838 0.07703 0.25653 0.0
O220 O 0.92177 0.09488 0.26989 0.0
In221 In 0.28157 0.64872 0.52484 0.0
O222 O 0.29475 0.62402 0.52545 0.0
O223 O 0.31062 0.65225 0.52738 0.0
C224 C 0.24727 0.63419 0.52074 0.0
C225 C 0.28288 0.66918 0.55816 0.0
C226 C 0.28183 0.66124 0.49253 0.0
O227 O 0.25798 0.62339 0.5189 0.0
O228 O 0.25402 0.6518 0.52493 0.0
O229 O 0.28836 0.67198 0.50783 0.0
O230 O 0.27618 0.64388 0.49351 0.0
C231 C 0.30997 0.63471 0.5267 0.0
O232 O 0.28444 0.67656 0.54357 0.0
O233 O 0.28145 0.65132 0.55609 0.0
In234 In 0.42223 0.56116 0.76322 0.0
O235 O 0.39858 0.57725 0.75587 0.0
O236 O 0.42115 0.59462 0.77146 0.0
C237 C 0.40116 0.52331 0.76317 0.0
C238 C 0.44104 0.56198 0.73075 0.0
C239 C 0.44344 0.56081 0.79714 0.0
O240 O 0.39949 0.53825 0.77348 0.0
O241 O 0.41244 0.52745 0.75216 0.0
O242 O 0.44747 0.556 0.78099 0.0
O243 O 0.4294 0.56676 0.79632 0.0
C244 C 0.40582 0.59418 0.7639 0.0
O245 O 0.44778 0.56989 0.74724 0.0
O246 O 0.42491 0.5541 0.73048 0.0
In247 In 0.6663 0.04746 0.75881 0.0
O248 O 0.6889 0.03352 0.7538 0.0
O249 O 0.66354 0.01669 0.75695 0.0
C250 C 0.67711 0.0845 0.76572 0.0
C251 C 0.64848 0.0431 0.7259 0.0
C252 C 0.65751 0.0485 0.79281 0.0
O253 O 0.68802 0.07383 0.76544 0.0
O254 O 0.66107 0.07636 0.76121 0.0
O255 O 0.64608 0.04256 0.77862 0.0
O256 O 0.67335 0.05246 0.78967 0.0
C257 C 0.67933 0.01726 0.75437 0.0
O258 O 0.64112 0.03906 0.74003 0.0
O259 O 0.665 0.04938 0.72847 0.0
In260 In 0.77977 0.6864 1.00356 0.0
O261 O 0.79295 0.66203 0.00814 0.0
O262 O 0.80961 0.68834 0.00522 0.0
C263 C 0.7462 0.66472 1.00136 0.0
C264 C 0.78496 0.7065 0.03889 0.0
C265 C 0.78148 0.70095 0.97084 0.0
O266 O 0.7584 0.65849 0.99421 0.0
O267 O 0.75073 0.68198 0.00908 0.0
O268 O 0.78181 0.71123 0.98648 0.0
O269 O 0.78034 0.68355 0.97175 0.0
C270 C 0.8085 0.67148 0.00828 0.0
O271 O 0.78122 0.71395 0.02482 0.0
O272 O 0.78609 0.68939 0.03498 0.0
In273 In 0.92726 0.53436 0.79244 0.0
O274 O 0.90226 0.54454 0.79158 0.0
O275 O 0.92578 0.56362 0.78682 0.0
C276 C 0.91359 0.49822 0.79357 0.0
C277 C 0.9349 0.52907 0.75797 0.0
C278 C 0.94537 0.54227 0.82589 0.0
O279 O 0.90558 0.51126 0.79805 0.0
O280 O 0.92874 0.50351 0.78889 0.0
O281 O 0.95251 0.53796 0.81147 0.0
O282 O 0.92989 0.54443 0.82301 0.0
C283 C 0.90935 0.56049 0.78756 0.0
O284 O 0.94629 0.53915 0.77105 0.0
O285 O 0.91998 0.52226 0.76251 0.0
In286 In 0.79985 0.42134 0.51136 0.0
O287 O 0.79189 0.39955 0.53027 0.0
O288 O 0.80479 0.42851 0.54197 0.0
C289 C 0.79749 0.40459 0.47646 0.0
C290 C 0.77571 0.44158 0.51224 0.0
C291 C 0.83432 0.42902 0.51645 0.0
O292 O 0.79206 0.39544 0.48917 0.0
O293 O 0.80299 0.42245 0.48127 0.0
O294 O 0.82582 0.44204 0.51651 0.0
O295 O 0.82546 0.41201 0.51306 0.0
C296 C 0.79868 0.4118 0.54467 0.0
O297 O 0.79194 0.44945 0.51442 0.0
O298 O 0.77176 0.42355 0.50859 0.0
In299 In 0.66207 0.51623 0.27905 0.0
O300 O 0.68709 0.50181 0.27514 0.0
O301 O 0.66377 0.48292 0.27735 0.0
C302 C 0.68157 0.5547 0.28191 0.0
C303 C 0.64344 0.5131 0.24247 0.0
C304 C 0.64479 0.5187 0.31308 0.0
O305 O 0.68789 0.54171 0.28794 0.0
O306 O 0.66561 0.54855 0.27517 0.0
O307 O 0.63702 0.51665 0.29665 0.0
O308 O 0.66102 0.5193 0.31249 0.0
C309 C 0.67992 0.48452 0.27537 0.0
O310 O 0.6365 0.50566 0.25557 0.0
O311 O 0.65945 0.52113 0.24753 0.0
Ho312 Ho 0.03281 0.03594 0.01424 0.0
Ho313 Ho 0.06591 0.05533 0.03655 0.0
C314 C 0.04516 0.08197 0.01776 0.0
C315 C 0.9999 0.02508 1.0015 0.0
C316 C 0.98594 0.03543 1.0018 0.0
C317 C 0.98731 0.05167 0.01538 0.0
C318 C 0.97455 0.06235 0.01464 0.0
C319 C 0.96036 0.05682 1.00034 0.0
C320 C 0.95935 0.04091 0.98652 0.0
C321 C 0.97206 0.03022 0.9873 0.0
C322 C 0.0597 0.03394 0.99197 0.0
C323 C 0.05314 0.00977 0.03456 0.0
C324 C 0.09905 0.06691 0.04934 0.0
C325 C 0.11294 0.05628 0.05067 0.0
C326 C 0.11307 0.04109 0.03648 0.0
C327 C 0.12487 0.0295 0.0386 0.0
C328 C 0.13662 0.0327 0.05507 0.0
C329 C 0.13653 0.04794 0.06929 0.0
C330 C 0.12474 0.05967 0.06709 0.0
C331 C 0.04092 0.05673 0.0616 0.0
O332 O 0.03203 0.06669 0.01372 0.0
O333 O 0.06056 0.08125 0.02612 0.0
O334 O 0.0121 0.03115 0.99133 0.0
O335 O 0.00626 0.02209 0.01769 0.0
O336 O 0.0453 0.02106 0.99143 0.0
O337 O 0.05906 0.04809 0.0047 0.0
O338 O 0.06667 0.02455 0.03721 0.0
O339 O 0.03774 0.01096 0.02677 0.0
O340 O 0.08672 0.06233 0.05979 0.0
O341 O 0.09268 0.06834 0.03257 0.0
O342 O 0.05734 0.06536 0.06457 0.0
O343 O 0.03796 0.04912 0.04425 0.0
H344 H 0.99822 0.05606 0.02649 0.0
H345 H 0.97544 0.07451 0.02552 0.0
H346 H 0.94855 0.03658 0.97529 0.0
H347 H 0.97114 0.01798 0.97653 0.0
H348 H 0.10384 0.03796 0.02385 0.0
H349 H 0.12486 0.0181 0.02724 0.0
H350 H 0.14537 0.0506 0.08216 0.0
H351 H 0.12454 0.07108 0.07837 0.0
Ho352 Ho 0.29209 0.80426 0.27191 0.0
Ho353 Ho 0.27771 0.81041 0.30925 0.0
C354 C 0.2917 0.84615 0.2924 0.0
C355 C 0.29592 0.80332 0.23733 0.0
C356 C 0.30623 0.81757 0.22784 0.0
C357 C 0.30045 0.83419 0.22538 0.0
C358 C 0.30982 0.84734 0.21581 0.0
C359 C 0.32515 0.84415 0.20853 0.0
C360 C 0.33146 0.82809 0.21184 0.0
C361 C 0.32203 0.81485 0.2214 0.0
C362 C 0.31977 0.80966 0.29956 0.0
C363 C 0.27589 0.76772 0.28862 0.0
C364 C 0.26818 0.81192 0.34221 0.0
C365 C 0.25827 0.79815 0.35215 0.0
C366 C 0.25907 0.7789 0.34868 0.0
C367 C 0.24938 0.76596 0.35826 0.0
C368 C 0.23877 0.77218 0.37132 0.0
C369 C 0.23743 0.79127 0.37417 0.0
C370 C 0.24709 0.80419 0.36452 0.0
C371 C 0.25486 0.8104 0.27881 0.0
O372 O 0.29048 0.8347 0.27639 0.0
O373 O 0.29165 0.83991 0.30841 0.0
O374 O 0.30489 0.79499 0.24826 0.0
O375 O 0.28251 0.80819 0.24462 0.0
O376 O 0.321 0.80755 0.28187 0.0
O377 O 0.30391 0.80988 0.30159 0.0
O378 O 0.27469 0.77884 0.30422 0.0
O379 O 0.28101 0.77417 0.27358 0.0
O380 O 0.25892 0.81559 0.32803 0.0
O381 O 0.28378 0.80968 0.33859 0.0
O382 O 0.25672 0.82172 0.2946 0.0
O383 O 0.26511 0.79913 0.27998 0.0
H384 H 0.28842 0.83687 0.23035 0.0
H385 H 0.30443 0.8594 0.21316 0.0
H386 H 0.3433 0.82541 0.20637 0.0
H387 H 0.32687 0.80228 0.22337 0.0
H388 H 0.26744 0.77396 0.3389 0.0
H389 H 0.25086 0.75134 0.35619 0.0
H390 H 0.22938 0.79625 0.3843 0.0
H391 H 0.24609 0.81897 0.36694 0.0
Ho392 Ho 0.55301 0.03326 0.52627 0.0
Ho393 Ho 0.51288 0.03145 0.53185 0.0
C394 C 0.52468 0.9925 0.52402 0.0
C395 C 0.58489 0.02811 0.52733 0.0
C396 C 0.59495 0.01283 0.52532 0.0
C397 C 0.59951 1.00451 0.54076 0.0
C398 C 0.6114 0.99258 0.53976 0.0
C399 C 0.61911 0.98866 0.52332 0.0
C400 C 0.61382 0.99608 0.50753 0.0
C401 C 0.60196 0.00813 0.50855 0.0
C402 C 0.53142 0.03407 0.49635 0.0
C403 C 0.54132 0.07273 0.53554 0.0
C404 C 0.48076 0.03527 0.53095 0.0
C405 C 0.47114 0.05056 0.53504 0.0
C406 C 0.47044 0.06404 0.52314 0.0
C407 C 0.45967 0.07701 0.52609 0.0
C408 C 0.44939 0.0768 0.54101 0.0
C409 C 0.45075 0.06386 0.55337 0.0
C410 C 0.46143 0.05083 0.55036 0.0
C411 C 0.53463 0.03082 0.56169 0.0
O412 O 0.54123 1.00246 0.52801 0.0
O413 O 0.51121 1.00063 0.52181 0.0
O414 O 0.57594 0.03075 0.51229 0.0
O415 O 0.57669 0.03022 0.54214 0.0
O416 O 0.54804 0.04221 0.49849 0.0
O417 O 0.5276 0.0243 0.50884 0.0
O418 O 0.52466 0.06293 0.53312 0.0
O419 O 0.55497 0.06456 0.53529 0.0
O420 O 0.48923 0.03069 0.54528 0.0
O421 O 0.48945 0.03534 0.51639 0.0
O422 O 0.51824 0.0217 0.55922 0.0
O423 O 0.53811 0.04048 0.54907 0.0
H424 H 0.59444 0.0078 0.55391 0.0
H425 H 0.615 0.98686 0.5521 0.0
H426 H 0.61957 0.99344 0.49469 0.0
H427 H 0.59887 0.01441 0.49643 0.0
H428 H 0.47773 0.06421 0.51118 0.0
H429 H 0.4588 0.08659 0.51614 0.0
H430 H 0.44325 0.0635 0.56517 0.0
H431 H 0.46172 0.0406 0.55975 0.0
Ho432 Ho 0.27803 0.29078 0.77425 0.0
Ho433 Ho 0.31298 0.27982 0.7752 0.0
C434 C 0.30216 0.29544 0.81349 0.0
C435 C 0.24494 0.28793 0.77871 0.0
C436 C 0.23326 0.29104 0.79349 0.0
C437 C 0.23038 0.2787 0.8067 0.0
C438 C 0.21717 0.27951 0.81843 0.0
C439 C 0.20631 0.29259 0.81726 0.0
C440 C 0.20987 0.30564 0.80475 0.0
C441 C 0.22311 0.30482 0.79301 0.0
C442 C 0.30333 0.32446 0.77466 0.0
C443 C 0.29146 0.27951 0.73521 0.0
C444 C 0.34331 0.27211 0.77017 0.0
C445 C 0.3559 0.27179 0.75621 0.0
C446 C 0.36127 0.28724 0.74686 0.0
C447 C 0.37417 0.28685 0.73472 0.0
C448 C 0.38193 0.27102 0.73166 0.0
C449 C 0.37608 0.25538 0.74064 0.0
C450 C 0.36324 0.2558 0.75278 0.0
C451 C 0.28552 0.2512 0.78103 0.0
O452 O 0.28607 0.29154 0.80467 0.0
O453 O 0.31597 0.29473 0.80461 0.0
O454 O 0.25462 0.30272 0.77334 0.0
O455 O 0.25319 0.27419 0.77949 0.0
O456 O 0.2865 0.32286 0.77458 0.0
O457 O 0.306 0.30769 0.77483 0.0
O458 O 0.30685 0.28106 0.74496 0.0
O459 O 0.27736 0.28151 0.74336 0.0
O460 O 0.32837 0.25953 0.76604 0.0
O461 O 0.34148 0.28869 0.77839 0.0
O462 O 0.30103 0.25622 0.79055 0.0
O463 O 0.28519 0.26238 0.76904 0.0
H464 H 0.2379 0.26788 0.80759 0.0
H465 H 0.21524 0.26952 0.82814 0.0
H466 H 0.20183 0.31588 0.80329 0.0
H467 H 0.22489 0.31446 0.78294 0.0
H468 H 0.35576 0.29973 0.7492 0.0
H469 H 0.37845 0.29923 0.72819 0.0
H470 H 0.38149 0.24282 0.73839 0.0
H471 H 0.35922 0.24367 0.75977 0.0
Ho472 Ho 0.04206 0.04782 0.52296 0.0
Ho473 Ho 0.04858 0.01219 0.50737 0.0
C474 C 0.03198 0.03333 0.47739 0.0
C475 C 0.04 0.083 0.52819 0.0
C476 C 0.03978 0.09643 0.51494 0.0
C477 C 0.05313 0.0998 0.50332 0.0
C478 C 0.05285 0.11273 0.49101 0.0
C479 C 0.03899 0.12224 0.48969 0.0
C480 C 0.02521 0.11806 0.50071 0.0
C481 C 0.02572 0.10543 0.51334 0.0
C482 C 0.01546 0.01807 0.52627 0.0
C483 C 0.059 0.02707 0.55318 0.0
C484 C 0.05161 0.97737 0.50056 0.0
C485 C 0.05342 0.96379 0.5131 0.0
C486 C 0.04467 0.9639 0.52912 0.0
C487 C 0.04599 0.9506 0.54074 0.0
C488 C 0.05619 0.93725 0.53657 0.0
C489 C 0.06558 0.93761 0.5211 0.0
C490 C 0.06424 0.95094 0.50938 0.0
C491 C 0.07476 0.04202 0.50377 0.0
O492 O 0.03667 0.04801 0.49137 0.0
O493 O 0.03391 0.01635 0.48047 0.0
O494 O 0.02619 0.06885 0.52602 0.0
O495 O 0.05474 0.07764 0.53136 0.0
O496 O 0.02206 0.03265 0.53931 0.0
O497 O 0.02335 0.01997 0.51198 0.0
O498 O 0.05471 0.01229 0.53918 0.0
O499 O 0.05654 0.04386 0.55 0.0
O500 O 0.06496 0.99193 0.50232 0.0
O501 O 0.03645 0.98223 0.49928 0.0
O502 O 0.06836 0.02736 0.49082 0.0
O503 O 0.06705 0.04003 0.51813 0.0
H504 H 0.06399 0.09271 0.50393 0.0
H505 H 0.06385 0.11566 0.48303 0.0
H506 H 0.01404 0.1246 0.49975 0.0
H507 H 0.01511 0.10269 0.52188 0.0
H508 H 0.03649 0.97394 0.53242 0.0
H509 H 0.03855 0.95026 0.55261 0.0
H510 H 0.07335 0.92717 0.51773 0.0
H511 H 0.07128 0.95097 0.49723 0.0
Ho512 Ho 0.31573 0.80965 0.76485 0.0
Ho513 Ho 0.28308 0.78013 0.76644 0.0
C514 C 0.31876 0.76386 0.76745 0.0
C515 C 0.34657 0.83181 0.77169 0.0
C516 C 0.3641 0.82767 0.77355 0.0
C517 C 0.36971 0.81996 0.78898 0.0
C518 C 0.38561 0.81444 0.78988 0.0
C519 C 0.3962 0.81654 0.77542 0.0
C520 C 0.39084 0.82457 0.76016 0.0
C521 C 0.37484 0.8301 0.75922 0.0
C522 C 0.29901 0.79096 0.73177 0.0
C523 C 0.27948 0.8253 0.76409 0.0
C524 C 0.25202 0.75904 0.75778 0.0
C525 C 0.23531 0.76439 0.75315 0.0
C526 C 0.23205 0.77125 0.73638 0.0
C527 C 0.21643 0.7768 0.73229 0.0
C528 C 0.20397 0.77573 0.74493 0.0
C529 C 0.20725 0.76942 0.76187 0.0
C530 C 0.22286 0.76369 0.76594 0.0
C531 C 0.30036 0.79791 0.79952 0.0
O532 O 0.32705 0.78246 0.76912 0.0
O533 O 0.30122 0.75923 0.76511 0.0
O534 O 0.33786 0.82687 0.75491 0.0
O535 O 0.33677 0.82737 0.78479 0.0
O536 O 0.30643 0.80904 0.73451 0.0
O537 O 0.3016 0.78413 0.74628 0.0
O538 O 0.27151 0.8068 0.76264 0.0
O539 O 0.29704 0.83023 0.76608 0.0
O540 O 0.25929 0.76461 0.77514 0.0
O541 O 0.26336 0.76158 0.74566 0.0
O542 O 0.2925 0.77989 0.79633 0.0
O543 O 0.29762 0.80551 0.78546 0.0
H544 H 0.3618 0.81798 0.80032 0.0
H545 H 0.38977 0.80882 0.80209 0.0
H546 H 0.39898 0.82648 0.74899 0.0
H547 H 0.37074 0.83602 0.74719 0.0
H548 H 0.24144 0.7722 0.72629 0.0
H549 H 0.21386 0.78149 0.71907 0.0
H550 H 0.1975 0.76829 0.77157 0.0
H551 H 0.22517 0.75861 0.77899 0.0
Ho552 Ho 0.52944 0.04844 0.01937 0.0
Ho553 Ho 0.52595 0.04977 0.97852 0.0
C554 C 0.49174 0.03844 0.99573 0.0
C555 C 0.52415 0.04954 0.0536 0.0
C556 C 0.51199 0.03606 0.06229 0.0
C557 C 0.49538 0.03935 0.06553 0.0
C558 C 0.48434 0.02732 0.07491 0.0
C559 C 0.48984 0.01194 0.08128 0.0
C560 C 0.50573 0.00768 0.07662 0.0
C561 C 0.51677 0.0197 0.06726 0.0
C562 C 0.53071 0.01565 0.99773 0.0
C563 C 0.56426 0.06032 1.00289 0.0
C564 C 0.52814 0.0493 0.94371 0.0
C565 C 0.5385 0.06387 0.93476 0.0
C566 C 0.55109 0.05883 0.92378 0.0
C567 C 0.56262 0.07284 0.91707 0.0
C568 C 0.56163 0.09202 0.92117 0.0
C569 C 0.54897 0.0972 0.93192 0.0
C570 C 0.53749 0.08316 0.93885 0.0
C571 C 0.52535 0.08267 1.00096 0.0
O572 O 0.50126 0.04854 0.01102 0.0
O573 O 0.49938 0.03285 0.98124 0.0
O574 O 0.53732 0.04345 0.04697 0.0
O575 O 0.51678 0.05897 0.04247 0.0
O576 O 0.53934 0.02151 0.01416 0.0
O577 O 0.52066 0.02624 0.99417 0.0
O578 O 0.55507 0.05219 0.98655 0.0
O579 O 0.5565 0.06417 0.01783 0.0
O580 O 0.51503 0.05403 0.95172 0.0
O581 O 0.53747 0.0407 0.95395 0.0
O582 O 0.51572 0.07656 0.98505 0.0
O583 O 0.53516 0.07162 1.00352 0.0
H584 H 0.49121 0.05166 0.06155 0.0
H585 H 0.47221 0.03103 0.07853 0.0
H586 H 0.51015 0.99584 0.0814 0.0
H587 H 0.52934 0.01654 0.06459 0.0
H588 H 0.55228 0.04414 0.92081 0.0
H589 H 0.57243 0.06874 0.90869 0.0
H590 H 0.54814 0.11199 0.93508 0.0
H591 H 0.52809 0.08747 0.94766 0.0
Ho592 Ho 0.28681 0.29282 0.27007 0.0
Ho593 Ho 0.2726 0.25389 0.25215 0.0
C594 C 0.24503 0.27669 0.2634 0.0
C595 C 0.29349 0.32852 0.28349 0.0
C596 C 0.28192 0.34167 0.28415 0.0
C597 C 0.2686 0.33977 0.26933 0.0
C598 C 0.25747 0.35227 0.27009 0.0
C599 C 0.25951 0.3665 0.28572 0.0
C600 C 0.27217 0.36787 0.30092 0.0
C601 C 0.28338 0.35537 0.30015 0.0
C602 C 0.28825 0.26773 0.29377 0.0
C603 C 0.31418 0.27133 0.25661 0.0
C604 C 0.26679 0.21762 0.24107 0.0
C605 C 0.27893 0.2049 0.23948 0.0
C606 C 0.29398 0.2082 0.25255 0.0
C607 C 0.30588 0.19654 0.25053 0.0
C608 C 0.30301 0.18153 0.23532 0.0
C609 C 0.28811 0.17851 0.22205 0.0
C610 C 0.27615 0.19017 0.22413 0.0
C611 C 0.27204 0.27913 0.2281 0.0
O612 O 0.25803 0.29158 0.26357 0.0
O613 O 0.24771 0.25934 0.26139 0.0
O614 O 0.28952 0.31526 0.29367 0.0
O615 O 0.29686 0.32199 0.26685 0.0
O616 O 0.30109 0.28171 0.29235 0.0
O617 O 0.27527 0.26714 0.28186 0.0
O618 O 0.30185 0.25595 0.25679 0.0
O619 O 0.31089 0.28835 0.25877 0.0
O620 O 0.26842 0.22994 0.22964 0.0
O621 O 0.26522 0.22522 0.25804 0.0
O622 O 0.25971 0.26405 0.22785 0.0
O623 O 0.28442 0.27967 0.24061 0.0
H624 H 0.267 0.32892 0.25705 0.0
H625 H 0.24781 0.35139 0.25818 0.0
H626 H 0.27391 0.37913 0.31289 0.0
H627 H 0.29337 0.3566 0.31182 0.0
H628 H 0.2965 0.21969 0.2644 0.0
H629 H 0.31707 0.19899 0.26116 0.0
H630 H 0.28571 0.16712 0.21012 0.0
H631 H 0.26476 0.18774 0.21375 0.0
Ho632 Ho 0.54327 0.54963 0.02322 0.0
Ho633 Ho 0.54872 0.51017 0.0073 0.0
C634 C 0.53114 0.53239 0.97809 0.0
C635 C 0.54875 0.58615 0.02767 0.0
C636 C 0.54584 0.59879 0.01422 0.0
C637 C 0.55475 0.59908 0.99825 0.0
C638 C 0.55249 0.61165 0.98603 0.0
C639 C 0.54118 0.62405 0.98943 0.0
C640 C 0.5316 0.62304 0.00484 0.0
C641 C 0.53398 0.61057 0.01718 0.0
C642 C 0.51244 0.52324 0.02261 0.0
C643 C 0.55866 0.52679 0.05351 0.0
C644 C 0.55068 0.47506 1.00129 0.0
C645 C 0.55293 0.46172 0.01392 0.0
C646 C 0.54606 0.46308 0.0311 0.0
C647 C 0.54823 0.45022 0.04302 0.0
C648 C 0.55727 0.43596 0.03782 0.0
C649 C 0.56465 0.43501 0.02098 0.0
C650 C 0.56261 0.44799 0.00912 0.0
C651 C 0.57474 0.54003 1.0038 0.0
O652 O 0.5362 0.54757 0.99159 0.0
O653 O 0.53304 0.51533 0.98132 0.0
O654 O 0.53466 0.57556 0.03241 0.0
O655 O 0.56107 0.57687 0.02466 0.0
O656 O 0.51483 0.54133 0.02896 0.0
O657 O 0.5268 0.52042 0.0175 0.0
O658 O 0.55644 0.51229 0.03922 0.0
O659 O 0.55467 0.5432 0.05081 0.0
O660 O 0.56429 0.48923 1.0022 0.0
O661 O 0.53566 0.48035 1.00068 0.0
O662 O 0.56889 0.52511 0.99094 0.0
O663 O 0.5665 0.53806 0.01782 0.0
H664 H 0.5638 0.58992 0.99537 0.0
H665 H 0.5602 0.61221 0.97439 0.0
H666 H 0.52255 0.63222 0.00759 0.0
H667 H 0.52675 0.61033 0.02919 0.0
H668 H 0.53876 0.47382 0.03514 0.0
H669 H 0.54222 0.45088 0.05587 0.0
H670 H 0.57158 0.42395 0.01684 0.0
H671 H 0.56828 0.44711 0.99607 0.0
Ho672 Ho 0.81565 0.30984 0.26449 0.0
Ho673 Ho 0.78307 0.28074 0.26744 0.0
C674 C 0.81859 0.2641 0.26755 0.0
C675 C 0.84653 0.33193 0.27072 0.0
C676 C 0.86404 0.32779 0.27261 0.0
C677 C 0.8693 0.31916 0.28751 0.0
C678 C 0.88521 0.31367 0.28832 0.0
C679 C 0.89614 0.31669 0.27428 0.0
C680 C 0.89113 0.32562 0.25955 0.0
C681 C 0.87511 0.33113 0.25871 0.0
C682 C 0.7978 0.29129 0.2319 0.0
C683 C 0.77954 0.32576 0.26441 0.0
C684 C 0.75181 0.25985 0.26044 0.0
C685 C 0.73518 0.26521 0.25552 0.0
C686 C 0.73236 0.27261 0.23898 0.0
C687 C 0.71675 0.27808 0.23464 0.0
C688 C 0.70391 0.27642 0.24684 0.0
C689 C 0.70677 0.26959 0.26356 0.0
C690 C 0.72238 0.26396 0.26789 0.0
C691 C 0.80142 0.2989 0.29991 0.0
O692 O 0.82693 0.28255 0.26832 0.0
O693 O 0.80106 0.25968 0.26621 0.0
O694 O 0.83772 0.32657 0.25401 0.0
O695 O 0.83684 0.32791 0.28402 0.0
O696 O 0.80573 0.30922 0.2344 0.0
O697 O 0.80069 0.28434 0.24631 0.0
O698 O 0.77152 0.30733 0.26339 0.0
O699 O 0.79708 0.33056 0.26592 0.0
O700 O 0.75944 0.26659 0.27752 0.0
O701 O 0.76285 0.26117 0.24795 0.0
O702 O 0.79356 0.28089 0.2971 0.0
O703 O 0.79823 0.30625 0.28581 0.0
H704 H 0.8611 0.31642 0.29849 0.0
H705 H 0.88911 0.30734 0.30015 0.0
H706 H 0.89954 0.32825 0.24873 0.0
H707 H 0.87125 0.33773 0.24708 0.0
H708 H 0.74208 0.27402 0.22926 0.0
H709 H 0.71447 0.28312 0.22155 0.0
H710 H 0.69671 0.26801 0.2729 0.0
H711 H 0.7244 0.2585 0.28079 0.0
Ho712 Ho 0.03017 0.54827 0.52142 0.0
Ho713 Ho 0.02331 0.54806 0.48063 0.0
C714 C 0.99069 0.53704 0.50007 0.0
C715 C 0.02804 0.54974 0.55644 0.0
C716 C 0.01548 0.53755 0.56598 0.0
C717 C 0.99979 0.54273 0.57013 0.0
C718 C 0.9879 0.53127 0.57918 0.0
C719 C 0.99151 0.51446 0.5843 0.0
C720 C 0.00677 0.50878 0.57936 0.0
C721 C 0.0187 0.52027 0.57033 0.0
C722 C 0.03349 0.51619 0.5002 0.0
C723 C 0.06286 0.56293 0.50215 0.0
C724 C 0.02356 0.54745 0.44553 0.0
C725 C 0.03491 0.561 0.43624 0.0
C726 C 0.0532 0.56275 0.43823 0.0
C727 C 0.06401 0.57674 0.43073 0.0
C728 C 0.05676 0.58936 0.42122 0.0
C729 C 0.03852 0.58794 0.41966 0.0
C730 C 0.02767 0.57383 0.4271 0.0
C731 C 0.02132 0.58035 0.50304 0.0
O732 O 1.00105 0.54504 0.51564 0.0
O733 O 0.99709 0.53204 0.48455 0.0
O734 O 0.03915 0.5415 0.54792 0.0
O735 O 0.02148 0.56083 0.54656 0.0
O736 O 0.04319 0.52413 0.51571 0.0
O737 O 0.02145 0.52479 0.49694 0.0
O738 O 0.05304 0.55402 0.48638 0.0
O739 O 0.05595 0.56588 0.51785 0.0
O740 O 0.01246 0.55478 0.45494 0.0
O741 O 0.03123 0.53647 0.45459 0.0
O742 O 0.01041 0.57278 0.48824 0.0
O743 O 0.03263 0.5708 0.50471 0.0
H744 H 0.99684 0.55585 0.56677 0.0
H745 H 0.9764 0.53621 0.58313 0.0
H746 H 0.0098 0.49584 0.58311 0.0
H747 H 0.03056 0.51574 0.56706 0.0
H748 H 0.05925 0.5533 0.44549 0.0
H749 H 0.07797 0.57708 0.43168 0.0
H750 H 0.03265 0.5974 0.41226 0.0
H751 H 0.01361 0.57297 0.42577 0.0
Ho752 Ho 0.77624 0.79209 0.27386 0.0
Ho753 Ho 0.81461 0.78176 0.27476 0.0
C754 C 0.8003 0.79426 0.31313 0.0
C755 C 0.74333 0.79095 0.27766 0.0
C756 C 0.73136 0.79159 0.29244 0.0
C757 C 0.72772 0.77711 0.30337 0.0
C758 C 0.71482 0.77707 0.31564 0.0
C759 C 0.70511 0.79142 0.31721 0.0
C760 C 0.70941 0.80632 0.30683 0.0
C761 C 0.72232 0.80638 0.29466 0.0
C762 C 0.80276 0.82487 0.27387 0.0
C763 C 0.78964 0.77629 0.23509 0.0
C764 C 0.84757 0.78438 0.27082 0.0
C765 C 0.85867 0.77935 0.25617 0.0
C766 C 0.86338 0.79164 0.24329 0.0
C767 C 0.87537 0.78818 0.23084 0.0
C768 C 0.88307 0.77237 0.23091 0.0
C769 C 0.87803 0.75977 0.24345 0.0
C770 C 0.86598 0.76324 0.25596 0.0
C771 C 0.78833 0.74966 0.27659 0.0
O772 O 0.78435 0.7917 0.30405 0.0
O773 O 0.8146 0.7937 0.30482 0.0
O774 O 0.75498 0.80663 0.2773 0.0
O775 O 0.74958 0.77568 0.27376 0.0
O776 O 0.78602 0.82406 0.2737 0.0
O777 O 0.80408 0.80762 0.27401 0.0
O778 O 0.80489 0.7758 0.24424 0.0
O779 O 0.77657 0.78189 0.24316 0.0
O780 O 0.83812 0.77048 0.27771 0.0
O781 O 0.83921 0.79782 0.26845 0.0
O782 O 0.80514 0.75037 0.27768 0.0
O783 O 0.78701 0.7666 0.27501 0.0
H784 H 0.73452 0.76555 0.30215 0.0
H785 H 0.71229 0.76557 0.32367 0.0
H786 H 0.70224 0.81756 0.30738 0.0
H787 H 0.72481 0.81773 0.28643 0.0
H788 H 0.85822 0.80433 0.24316 0.0
H789 H 0.87915 0.79842 0.22168 0.0
H790 H 0.88357 0.74736 0.24378 0.0
H791 H 0.86275 0.75356 0.26579 0.0
Ho792 Ho 0.79065 0.30449 0.77368 0.0
Ho793 Ho 0.77685 0.30682 0.811 0.0
C794 C 0.79221 0.34432 0.79856 0.0
C795 C 0.79392 0.30735 0.73958 0.0
C796 C 0.80543 0.32151 0.73104 0.0
C797 C 0.8001 0.33812 0.72779 0.0
C798 C 0.81025 0.35099 0.71858 0.0
C799 C 0.82598 0.34755 0.71243 0.0
C800 C 0.83195 0.33162 0.71682 0.0
C801 C 0.82167 0.3186 0.72596 0.0
C802 C 0.81902 0.3089 0.80035 0.0
C803 C 0.77587 0.26574 0.78684 0.0
C804 C 0.76703 0.30385 0.84328 0.0
C805 C 0.75365 0.28978 0.8497 0.0
C806 C 0.75365 0.27027 0.84633 0.0
C807 C 0.74195 0.25744 0.85427 0.0
C808 C 0.73009 0.26399 0.86556 0.0
C809 C 0.72892 0.28313 0.86729 0.0
C810 C 0.74072 0.29599 0.85946 0.0
C811 C 0.75317 0.30824 0.78164 0.0
O812 O 0.78801 0.33428 0.78168 0.0
O813 O 0.7931 0.33607 0.81334 0.0
O814 O 0.80148 0.2961 0.74835 0.0
O815 O 0.782 0.31368 0.74857 0.0
O816 O 0.8199 0.30832 0.78267 0.0
O817 O 0.80317 0.30818 0.80297 0.0
O818 O 0.77443 0.27547 0.80316 0.0
O819 O 0.78042 0.27376 0.77247 0.0
O820 O 0.7609 0.31424 0.83232 0.0
O821 O 0.7808 0.29813 0.83779 0.0
O822 O 0.75507 0.3185 0.79803 0.0
O823 O 0.76378 0.2973 0.78168 0.0
H824 H 0.78771 0.34088 0.73167 0.0
H825 H 0.80501 0.36289 0.71515 0.0
H826 H 0.84411 0.32873 0.7124 0.0
H827 H 0.8262 0.30601 0.72855 0.0
H828 H 0.76323 0.26504 0.83839 0.0
H829 H 0.74327 0.24278 0.85294 0.0
H830 H 0.71984 0.2884 0.87595 0.0
H831 H 0.74028 0.31094 0.86177 0.0
Ho832 Ho 0.78612 0.79596 0.76883 0.0
Ho833 Ho 0.77235 0.75237 0.75414 0.0
C834 C 0.7441 0.77672 0.76355 0.0
C835 C 0.79279 0.83238 0.77675 0.0
C836 C 0.78165 0.84548 0.78135 0.0
C837 C 0.76444 0.84206 0.77226 0.0
C838 C 0.75397 0.85479 0.77692 0.0
C839 C 0.76072 0.87094 0.79065 0.0
C840 C 0.77755 0.87375 0.80039 0.0
C841 C 0.788 0.86101 0.79573 0.0
C842 C 0.78789 0.77288 0.79458 0.0
C843 C 0.81298 0.77286 0.75496 0.0
C844 C 0.76729 0.71623 0.75248 0.0
C845 C 0.77774 0.70293 0.74532 0.0
C846 C 0.7962 0.70769 0.74944 0.0
C847 C 0.80595 0.69439 0.74404 0.0
C848 C 0.79741 0.67619 0.7344 0.0
C849 C 0.77911 0.67184 0.72927 0.0
C850 C 0.76932 0.68521 0.73468 0.0
C851 C 0.77586 0.77202 0.72474 0.0
O852 O 0.75683 0.79243 0.76612 0.0
O853 O 0.74688 0.75933 0.76007 0.0
O854 O 0.79465 0.82156 0.78926 0.0
O855 O 0.78999 0.82315 0.75957 0.0
O856 O 0.80006 0.78769 0.79341 0.0
O857 O 0.77527 0.77088 0.78176 0.0
O858 O 0.80185 0.75728 0.7574 0.0
O859 O 0.80886 0.78952 0.75581 0.0
O860 O 0.75939 0.72389 0.73997 0.0
O861 O 0.77483 0.72848 0.76747 0.0
O862 O 0.77058 0.75363 0.7228 0.0
O863 O 0.77887 0.77813 0.74197 0.0
H864 H 0.75931 0.82994 0.76123 0.0
H865 H 0.7411 0.85267 0.76902 0.0
H866 H 0.78289 0.88628 0.81092 0.0
H867 H 0.80115 0.86348 0.80306 0.0
H868 H 0.80307 0.72137 0.75749 0.0
H869 H 0.82002 0.69795 0.74844 0.0
H870 H 0.77234 0.65784 0.72181 0.0
H871 H 0.75514 0.68147 0.73114 0.0
Ho872 Ho 0.53154 0.53583 0.51503 0.0
Ho873 Ho 0.56627 0.55517 0.53752 0.0
C874 C 0.54534 0.58174 0.51838 0.0
C875 C 0.49826 0.5253 0.50441 0.0
C876 C 0.48469 0.53623 0.50363 0.0
C877 C 0.48528 0.55214 0.51733 0.0
C878 C 0.47277 0.56308 0.51563 0.0
C879 C 0.45975 0.55832 0.5001 0.0
C880 C 0.45976 0.54292 0.48606 0.0
C881 C 0.4721 0.5319 0.48788 0.0
C882 C 0.55612 0.53489 0.48967 0.0
C883 C 0.55149 0.50922 0.53548 0.0
C884 C 0.59993 0.5651 0.54742 0.0
C885 C 0.61266 0.55331 0.54981 0.0
C886 C 0.60744 0.53355 0.54385 0.0
C887 C 0.61905 0.52196 0.5467 0.0
C888 C 0.63654 0.53003 0.55458 0.0
C889 C 0.64174 0.54993 0.56071 0.0
C890 C 0.62977 0.56146 0.55855 0.0
C891 C 0.54149 0.55691 0.56249 0.0
O892 O 0.53176 0.56691 0.51499 0.0
O893 O 0.56085 0.58061 0.52613 0.0
O894 O 0.50992 0.52923 0.49302 0.0
O895 O 0.50525 0.52394 0.521 0.0
O896 O 0.53942 0.52749 0.48643 0.0
O897 O 0.55927 0.54208 0.50724 0.0
O898 O 0.5644 0.52451 0.54085 0.0
O899 O 0.53696 0.5098 0.52525 0.0
O900 O 0.58839 0.56407 0.55926 0.0
O901 O 0.5927 0.56382 0.53031 0.0
O902 O 0.55811 0.56496 0.56569 0.0
O903 O 0.53848 0.54942 0.54504 0.0
H904 H 0.4953 0.55606 0.52933 0.0
H905 H 0.47297 0.57482 0.52671 0.0
H906 H 0.45005 0.53922 0.47379 0.0
H907 H 0.47189 0.52003 0.47692 0.0
H908 H 0.5945 0.52702 0.53665 0.0
H909 H 0.61437 0.50671 0.5422 0.0
H910 H 0.65518 0.55673 0.56655 0.0
H911 H 0.63396 0.57672 0.5633 0.0
Ho912 Ho 0.05261 0.53192 0.02934 0.0
Ho913 Ho 0.01234 0.53164 0.03353 0.0
C914 C 0.02318 0.49185 0.02653 0.0
C915 C 0.08417 0.52601 0.03339 0.0
C916 C 0.09444 0.51143 0.02797 0.0
C917 C 0.09619 0.49756 0.0392 0.0
C918 C 0.1082 0.48596 0.03595 0.0
C919 C 0.11887 0.488 0.02145 0.0
C920 C 0.11637 0.50112 0.00959 0.0
C921 C 0.10439 0.51273 0.01285 0.0
C922 C 0.03202 0.53107 0.99803 0.0
C923 C 0.04135 0.57183 0.03602 0.0
C924 C 0.98031 0.53583 0.03318 0.0
C925 C 0.97069 0.5513 0.0359 0.0
C926 C 0.96905 0.56287 0.02227 0.0
C927 C 0.95851 0.57617 0.02432 0.0
C928 C 0.94937 0.5782 0.04002 0.0
C929 C 0.95146 0.56701 0.05389 0.0
C930 C 0.96195 0.55368 0.05182 0.0
C931 C 0.03368 0.53175 0.06413 0.0
O932 O 0.03988 0.50127 0.03067 0.0
O933 O 0.01008 0.5005 0.024 0.0
O934 O 0.07861 0.53483 0.02039 0.0
O935 O 0.07271 0.52232 0.0452 0.0
O936 O 0.04892 0.5377 0.9999 0.0
O937 O 0.02752 0.52296 0.01142 0.0
O938 O 0.02461 0.56243 0.03175 0.0
O939 O 0.05446 0.56317 0.03876 0.0
O940 O 0.98959 0.53318 0.04798 0.0
O941 O 0.98817 0.5339 0.01812 0.0
O942 O 0.01734 0.52251 0.0614 0.0
O943 O 0.0374 0.5408 0.05117 0.0
H944 H 0.08886 0.49621 0.05106 0.0
H945 H 0.1098 0.47614 0.04548 0.0
H946 H 0.12408 0.50285 0.99806 0.0
H947 H 0.10344 0.52325 1.00392 0.0
H948 H 0.97552 0.56134 0.00977 0.0
H949 H 0.95701 0.58435 0.01322 0.0
H950 H 0.94479 0.56837 0.06626 0.0
H951 H 0.96292 0.5449 0.06252 0.0
C952 C 0.0117 0.22367 0.95853 0.0
C953 C 0.01344 0.22266 0.93937 0.0
C954 C 0.01584 0.20963 0.96836 0.0
C955 C 0.04076 0.17095 0.96587 0.0
H956 H 0.01163 0.15319 1.00297 0.0
C957 C 0.05695 0.11439 0.0094 0.0
C958 C 0.04255 0.09997 0.01172 0.0
C959 C 0.05422 0.13053 1.00209 0.0
C960 C 0.01989 0.15792 0.99261 0.0
H961 H 0.02106 0.20607 0.9156 0.0
H962 H 0.02807 0.18151 0.93259 0.0
H963 H 0.00503 0.17846 0.98687 0.0
H964 H 0.01404 0.09149 0.00858 0.0
H965 H 0.00931 0.11948 0.99603 0.0
H966 H 0.0553 0.15002 0.97124 0.0
C967 C 0.02365 0.19324 0.94014 0.0
C968 C 0.01621 0.17261 0.98349 0.0
C969 C 0.01942 0.20723 0.9303 0.0
C970 C 0.02543 0.10231 0.007 0.0
C971 C 0.02272 0.11848 0.99989 0.0
C972 C 0.04445 0.15629 0.97502 0.0
C973 C 0.02197 0.19423 0.95933 0.0
C974 C 0.02644 0.17918 0.96978 0.0
C975 C 0.03704 0.13274 0.9971 0.0
C976 C 0.03393 0.14936 0.98835 0.0
H977 H 0.00729 0.23545 0.96602 0.0
H978 H 0.01456 0.21107 0.98314 0.0
H979 H 0.04914 0.17581 0.95566 0.0
H980 H 0.07032 0.11297 0.01275 0.0
H981 H 0.06559 0.14127 1.00031 0.0
C982 C 0.13271 0.80217 0.15303 0.0
C983 C 0.12012 0.81178 0.15989 0.0
C984 C 0.14777 0.80139 0.16472 0.0
C985 C 0.17574 0.8261 0.2091 0.0
H986 H 0.19229 0.77936 0.208 0.0
C987 C 0.22752 0.81987 0.26744 0.0
C988 C 0.24006 0.80897 0.2638 0.0
C989 C 0.21349 0.81942 0.25398 0.0
C990 C 0.18806 0.79264 0.20837 0.0
H991 H 0.11364 0.82807 0.18456 0.0
H992 H 0.13981 0.82691 0.2048 0.0
H993 H 0.167 0.78031 0.18614 0.0
H994 H 0.24738 0.78865 0.24292 0.0
H995 H 0.22308 0.78836 0.21889 0.0
H996 H 0.19678 0.83867 0.2309 0.0
C997 C 0.13817 0.82005 0.19034 0.0
C998 C 0.17347 0.79317 0.1958 0.0
C999 C 0.12308 0.82068 0.17872 0.0
C1000 C 0.23804 0.79734 0.24618 0.0
C1001 C 0.22399 0.79709 0.23244 0.0
C1002 C 0.19036 0.82565 0.22147 0.0
C1003 C 0.15077 0.81037 0.18357 0.0
C1004 C 0.1669 0.80984 0.1962 0.0
C1005 C 0.21155 0.80832 0.23609 0.0
C1006 C 0.19662 0.80883 0.22165 0.0
H1007 H 0.13083 0.79504 0.13864 0.0
H1008 H 0.15717 0.79392 0.15891 0.0
H1009 H 0.17143 0.83935 0.2096 0.0
H1010 H 0.22842 0.82882 0.2809 0.0
H1011 H 0.20405 0.82779 0.25781 0.0
C1012 C 0.50463 0.82197 0.46364 0.0
C1013 C 0.51364 0.82059 0.44785 0.0
C1014 C 0.5057 0.83975 0.47452 0.0
C1015 C 0.53255 0.88926 0.48447 0.0
H1016 H 0.48997 0.90159 0.50114 0.0
C1017 C 0.53491 0.96266 0.5259 0.0
C1018 C 0.52162 0.97158 0.52014 0.0
C1019 C 0.53323 0.9432 0.52008 0.0
C1020 C 0.50196 0.89837 0.49654 0.0
H1021 H 0.53102 0.83656 0.43115 0.0
H1022 H 0.53272 0.86751 0.44992 0.0
H1023 H 0.48888 0.86969 0.48445 0.0
H1024 H 0.49568 0.96705 0.50466 0.0
H1025 H 0.49293 0.9331 0.49403 0.0
H1026 H 0.54546 0.91811 0.49557 0.0
C1027 C 0.52501 0.85492 0.45411 0.0
C1028 C 0.50138 0.88004 0.48719 0.0
C1029 C 0.52393 0.8372 0.44327 0.0
C1030 C 0.50615 0.96052 0.50931 0.0
C1031 C 0.50454 0.94105 0.5033 0.0
C1032 C 0.5331 0.90758 0.49368 0.0
C1033 C 0.51585 0.85641 0.4698 0.0
C1034 C 0.51664 0.87538 0.48086 0.0
C1035 C 0.5183 0.93231 0.50819 0.0
C1036 C 0.51779 0.9124 0.49969 0.0
H1037 H 0.49661 0.80936 0.46748 0.0
H1038 H 0.49865 0.84044 0.48665 0.0
H1039 H 0.54458 0.88605 0.47998 0.0
H1040 H 0.54687 0.9708 0.53451 0.0
H1041 H 0.54386 0.9368 0.5245 0.0
C1042 C 0.522 0.28952 0.66667 0.0
C1043 C 0.5235 0.29867 0.65096 0.0
C1044 C 0.50569 0.28446 0.67334 0.0
C1045 C 0.46278 0.29757 0.67376 0.0
H1046 H 0.44802 0.24972 0.69176 0.0
C1047 C 0.39645 0.27926 0.70342 0.0
C1048 C 0.39657 0.27117 0.71982 0.0
C1049 C 0.41078 0.28055 0.69306 0.0
C1050 C 0.452 0.26322 0.68693 0.0
H1051 H 0.50899 0.30939 0.62976 0.0
H1052 H 0.48059 0.30085 0.64158 0.0
H1053 H 0.47538 0.25606 0.67759 0.0
H1054 H 0.41184 0.25769 0.73789 0.0
H1055 H 0.43675 0.26003 0.71995 0.0
H1056 H 0.43977 0.30504 0.6835 0.0
C1057 C 0.49204 0.29765 0.64879 0.0
C1058 C 0.46768 0.26683 0.67879 0.0
C1059 C 0.5083 0.30252 0.642 0.0
C1060 C 0.41116 0.26384 0.72523 0.0
C1061 C 0.42549 0.26516 0.7149 0.0
C1062 C 0.44718 0.29401 0.68198 0.0
C1063 C 0.49052 0.2886 0.66457 0.0
C1064 C 0.47336 0.28415 0.67228 0.0
C1065 C 0.42564 0.27384 0.69884 0.0
C1066 C 0.44164 0.27688 0.68887 0.0
H1067 H 0.53342 0.28615 0.67375 0.0
H1068 H 0.50503 0.27764 0.68561 0.0
H1069 H 0.46685 0.31115 0.66913 0.0
H1070 H 0.3853 0.28468 0.69861 0.0
H1071 H 0.41023 0.28695 0.68056 0.0
C1072 C 1.00162 0.80902 0.61592 0.0
C1073 C 0.01072 0.80712 0.6327 0.0
C1074 C 0.00818 0.82404 0.60678 0.0
C1075 C 0.04837 0.85643 0.60039 0.0
H1076 H 0.01621 0.88579 0.58277 0.0
C1077 C 0.06683 0.92179 0.56219 0.0
C1078 C 0.05462 0.92134 0.54679 0.0
C1079 C 0.06338 0.90791 0.5736 0.0
C1080 C 0.0253 0.87764 0.58756 0.0
H1081 H 0.0338 0.81903 0.65311 0.0
H1082 H 0.04536 0.84531 0.6369 0.0
H1083 H 0.00606 0.86154 0.60158 0.0
H1084 H 0.02993 0.90626 0.53041 0.0
H1085 H 0.02398 0.88183 0.55011 0.0
H1086 H 0.06751 0.87238 0.58589 0.0
C1087 C 0.03316 0.83525 0.63096 0.0
C1088 C 0.0195 0.86384 0.59828 0.0
C1089 C 0.02646 0.82038 0.64024 0.0
C1090 C 0.03946 0.90663 0.54228 0.0
C1091 C 0.03602 0.89286 0.55358 0.0
C1092 C 0.05419 0.87027 0.58953 0.0
C1093 C 0.02402 0.83717 0.61421 0.0
C1094 C 0.03085 0.85287 0.6044 0.0
C1095 C 0.04765 0.89375 0.56964 0.0
C1096 C 0.0425 0.88058 0.58267 0.0
H1097 H 0.9895 0.79888 0.60984 0.0
H1098 H 1.00102 0.82524 0.59375 0.0
H1099 H 0.0573 0.84804 0.60503 0.0
H1100 H 0.07852 0.93327 0.56579 0.0
H1101 H 0.0725 0.90878 0.58594 0.0
C1102 C 0.52645 0.80684 0.8661 0.0
C1103 C 0.54092 0.82163 0.86511 0.0
C1104 C 0.51078 0.80475 0.85462 0.0
C1105 C 0.49437 0.81729 0.81053 0.0
H1106 H 0.44878 0.80181 0.82761 0.0
C1107 C 0.42859 0.82579 0.77614 0.0
C1108 C 0.41351 0.81191 0.77748 0.0
C1109 C 0.44505 0.82389 0.78336 0.0
C1110 C 0.46146 0.80574 0.82257 0.0
H1111 H 0.55034 0.84651 0.8525 0.0
H1112 H 0.52265 0.8433 0.83285 0.0
H1113 H 0.47538 0.80667 0.84933 0.0
H1114 H 0.40367 0.78413 0.78494 0.0
H1115 H 0.43257 0.78084 0.79769 0.0
H1116 H 0.48029 0.81705 0.78394 0.0
C1117 C 0.52359 0.83293 0.84195 0.0
C1118 C 0.47664 0.80863 0.83501 0.0
C1119 C 0.53935 0.83484 0.85322 0.0
C1120 C 0.4152 0.79512 0.78411 0.0
C1121 C 0.43164 0.79326 0.79137 0.0
C1122 C 0.47916 0.81454 0.79813 0.0
C1123 C 0.50933 0.81759 0.84223 0.0
C1124 C 0.49322 0.81455 0.82912 0.0
C1125 C 0.44649 0.80811 0.79194 0.0
C1126 C 0.46262 0.80882 0.8041 0.0
H1127 H 0.52744 0.79646 0.87519 0.0
H1128 H 0.50003 0.7927 0.855 0.0
H1129 H 0.50703 0.82149 0.80555 0.0
H1130 H 0.42753 0.83888 0.77114 0.0
H1131 H 0.45636 0.83556 0.78374 0.0
C1132 C 0.47779 0.19577 0.11161 0.0
C1133 C 0.48908 0.20194 0.12838 0.0
C1134 C 0.47936 0.17977 0.0995 0.0
C1135 C 0.50177 0.13979 0.0928 0.0
H1136 H 0.5043 0.1539 0.04356 0.0
C1137 C 0.53156 0.1001 0.03359 0.0
C1138 C 0.52152 0.09623 0.01595 0.0
C1139 C 0.52698 0.11183 0.04831 0.0
C1140 C 0.50344 0.14967 0.05717 0.0
H1141 H 0.50973 0.19562 0.14662 0.0
H1142 H 0.51298 0.16801 0.12503 0.0
H1143 H 0.49556 0.17489 0.06811 0.0
H1144 H 0.49908 0.10146 0.99962 0.0
H1145 H 0.4911 0.12207 0.02531 0.0
H1146 H 0.51005 0.11462 0.08166 0.0
C1147 C 0.50272 0.17523 0.12138 0.0
C1148 C 0.49834 0.1616 0.0712 0.0
C1149 C 0.50091 0.19106 0.13368 0.0
C1150 C 0.50707 0.10441 0.01309 0.0
C1151 C 0.50252 0.11614 0.02776 0.0
C1152 C 0.50692 0.12779 0.07867 0.0
C1153 C 0.49252 0.17007 0.10383 0.0
C1154 C 0.49727 0.1567 0.08907 0.0
C1155 C 0.51241 0.1199 0.04547 0.0
C1156 C 0.50762 0.13262 0.06072 0.0
H1157 H 0.46839 0.20385 0.10743 0.0
H1158 H 0.47103 0.17571 0.08621 0.0
H1159 H 0.50114 0.13581 0.10653 0.0
H1160 H 0.54278 0.09386 0.03608 0.0
H1161 H 0.5349 0.11472 0.06182 0.0
C1162 C 0.14265 0.32602 0.36148 0.0
C1163 C 0.12623 0.31333 0.36 0.0
C1164 C 0.15464 0.32235 0.34914 0.0
C1165 C 0.15695 0.2922 0.30395 0.0
H1166 H 0.20704 0.30626 0.32093 0.0
C1167 C 0.21486 0.26508 0.27174 0.0
C1168 C 0.22802 0.28008 0.26811 0.0
C1169 C 0.20055 0.26911 0.28036 0.0
C1170 C 0.19305 0.30236 0.3161 0.0
H1171 H 0.10948 0.28668 0.34529 0.0
H1172 H 0.13069 0.27962 0.32463 0.0
H1173 H 0.1864 0.31345 0.34254 0.0
H1174 H 0.23571 0.31076 0.26891 0.0
H1175 H 0.21096 0.31766 0.28435 0.0
H1176 H 0.16388 0.2802 0.27774 0.0
C1177 C 0.13415 0.29283 0.33454 0.0
C1178 C 0.18125 0.30659 0.32835 0.0
C1179 C 0.12207 0.29675 0.3465 0.0
C1180 C 0.2259 0.29893 0.27174 0.0
C1181 C 0.21178 0.30293 0.28054 0.0
C1182 C 0.16877 0.28757 0.29185 0.0
C1183 C 0.15048 0.3057 0.33552 0.0
C1184 C 0.16306 0.30158 0.32241 0.0
C1185 C 0.19943 0.28811 0.28543 0.0
C1186 C 0.18682 0.29275 0.29789 0.0
H1187 H 0.14598 0.33898 0.37176 0.0
H1188 H 0.167 0.33271 0.3501 0.0
H1189 H 0.14306 0.28849 0.29878 0.0
H1190 H 0.21614 0.25042 0.26903 0.0
H1191 H 0.19103 0.25756 0.28416 0.0
C1192 C 0.968 0.07254 0.21258 0.0
C1193 C 0.95071 0.06149 0.21243 0.0
C1194 C 0.97712 0.07196 0.19638 0.0
C1195 C 0.97573 0.04347 0.14655 0.0
H1196 H 0.01187 0.08701 0.14117 0.0
C1197 C 0.01151 0.04549 0.07647 0.0
C1198 C 0.02867 0.05715 0.0773 0.0
C1199 C 1.00175 0.04579 0.09234 0.0
C1200 C 1.00204 0.0744 0.1422 0.0
H1201 H 0.92999 0.04088 0.19404 0.0
H1202 H 0.9455 0.03982 0.16632 0.0
H1203 H 0.99659 0.08783 0.16875 0.0
H1204 H 0.04829 0.07841 0.09647 0.0
H1205 H 0.03197 0.07888 0.12315 0.0
H1206 H 0.98124 0.03005 0.11995 0.0
C1207 C 0.95231 0.04903 0.179 0.0
C1208 C 0.99304 0.07492 0.15845 0.0
C1209 C 0.94315 0.04974 0.19515 0.0
C1210 C 0.03523 0.06917 0.09472 0.0
C1211 C 0.02558 0.06953 0.11038 0.0
C1212 C 0.98478 0.04293 0.13027 0.0
C1213 C 0.96961 0.06015 0.179 0.0
C1214 C 0.97954 0.05948 0.16123 0.0
C1215 C 0.00851 0.05785 0.1099 0.0
C1216 C 0.99829 0.05838 0.12751 0.0
H1217 H 0.9746 0.0818 0.22535 0.0
H1218 H 0.99034 0.08072 0.19773 0.0
H1219 H 0.96583 0.03094 0.14765 0.0
H1220 H 0.00568 0.03586 0.06365 0.0
H1221 H 0.98875 0.03651 0.0907 0.0
C1222 C 0.26395 0.65797 0.46204 0.0
C1223 C 0.27701 0.66914 0.47607 0.0
C1224 C 0.25533 0.6667 0.44951 0.0
C1225 C 0.24231 0.71098 0.44898 0.0
H1226 H 0.23769 0.69922 0.39496 0.0
C1227 C 0.23757 0.76543 0.40328 0.0
C1228 C 0.23192 0.75958 0.38416 0.0
C1229 C 0.23617 0.75204 0.41513 0.0
C1230 C 0.23823 0.7023 0.41002 0.0
H1231 H 0.29264 0.69768 0.48697 0.0
H1232 H 0.27768 0.7129 0.4648 0.0
H1233 H 0.25131 0.67976 0.41345 0.0
H1234 H 0.21839 0.73603 0.36259 0.0
H1235 H 0.21505 0.71253 0.38359 0.0
H1236 H 0.22942 0.73357 0.44576 0.0
C1237 C 0.27388 0.69753 0.46385 0.0
C1238 C 0.24626 0.69128 0.42052 0.0
C1239 C 0.28253 0.68883 0.47632 0.0
C1240 C 0.22291 0.74068 0.37735 0.0
C1241 C 0.22115 0.7273 0.38932 0.0
C1242 C 0.23395 0.72175 0.43851 0.0
C1243 C 0.25976 0.68659 0.45098 0.0
C1244 C 0.24904 0.69617 0.43998 0.0
C1245 C 0.22884 0.73265 0.40802 0.0
C1246 C 0.23264 0.71813 0.41892 0.0
H1247 H 0.25942 0.64275 0.46166 0.0
H1248 H 0.2445 0.65812 0.43951 0.0
H1249 H 0.24404 0.71459 0.46409 0.0
H1250 H 0.24473 0.77995 0.40873 0.0
H1251 H 0.24246 0.75672 0.42937 0.0
C1252 C 0.64592 0.04952 0.69349 0.0
C1253 C 0.63837 0.04086 0.70776 0.0
C1254 C 0.63595 0.04773 0.67635 0.0
C1255 C 0.59831 0.01763 0.64635 0.0
H1256 H 0.59264 0.06394 0.62838 0.0
C1257 C 0.54296 0.0189 0.59042 0.0
C1258 C 0.54736 0.0308 0.5773 0.0
C1259 C 0.55523 0.01939 0.60556 0.0
C1260 C 0.59436 0.05089 0.63307 0.0
H1261 H 0.61486 0.02353 0.71564 0.0
H1262 H 0.59746 0.02032 0.68551 0.0
H1263 H 0.61299 0.06615 0.6563 0.0
H1264 H 0.56759 0.05261 0.56936 0.0
H1265 H 0.58933 0.05273 0.59523 0.0
H1266 H 0.57968 1.00233 0.62319 0.0
C1267 C 0.61103 0.02834 0.68759 0.0
C1268 C 0.60594 0.05219 0.64895 0.0
C1269 C 0.6209 0.03029 0.70475 0.0
C1270 C 0.56407 0.04307 0.57924 0.0
C1271 C 0.5764 0.04332 0.59411 0.0
C1272 C 0.58686 0.01631 0.63035 0.0
C1273 C 0.61851 0.03708 0.67339 0.0
C1274 C 0.60774 0.03558 0.65574 0.0
C1275 C 0.57198 0.03168 0.60748 0.0
C1276 C 0.58467 0.03294 0.62377 0.0
H1277 H 0.65938 0.05784 0.69566 0.0
H1278 H 0.6418 0.05459 0.66542 0.0
H1279 H 0.5997 1.0047 0.6515 0.0
H1280 H 0.53004 0.00943 0.58911 0.0
H1281 H 0.55149 0.0105 0.61592 0.0
C1282 C 0.30634 0.37565 0.97088 0.0
C1283 C 0.29936 0.3653 0.98442 0.0
C1284 C 0.30663 0.3664 0.95283 0.0
C1285 C 0.28586 0.32602 0.91759 0.0
H1286 H 0.33148 0.33277 0.89926 0.0
C1287 C 0.29235 0.29003 0.84399 0.0
C1288 C 0.30426 0.30038 0.83387 0.0
C1289 C 0.29265 0.29599 0.86309 0.0
C1290 C 0.31858 0.33093 0.90399 0.0
H1291 H 0.28656 0.33731 0.98954 0.0
H1292 H 0.28674 0.32112 0.95756 0.0
H1293 H 0.32918 0.34754 0.93085 0.0
H1294 H 0.32601 0.32471 0.83543 0.0
H1295 H 0.326 0.33593 0.86861 0.0
H1296 H 0.27497 0.3104 0.89057 0.0
C1297 C 0.29215 0.33636 0.96116 0.0
C1298 C 0.31733 0.33928 0.92213 0.0
C1299 C 0.29212 0.34559 0.97939 0.0
C1300 C 0.31685 0.31644 0.84312 0.0
C1301 C 0.31683 0.32277 0.86215 0.0
C1302 C 0.28703 0.318 0.89927 0.0
C1303 C 0.29972 0.34669 0.94789 0.0
C1304 C 0.30097 0.33699 0.92901 0.0
C1305 C 0.30451 0.3128 0.87233 0.0
C1306 C 0.30341 0.32044 0.89217 0.0
H1307 H 0.31194 0.39087 0.97433 0.0
H1308 H 0.31234 0.37465 0.94272 0.0
H1309 H 0.27309 0.32422 0.92262 0.0
H1310 H 0.28262 0.27746 0.83705 0.0
H1311 H 0.28333 0.28758 0.87048 0.0
C1312 C 0.94952 0.06639 0.33275 0.0
C1313 C 0.95388 0.05929 0.3151 0.0
C1314 C 0.9585 0.06386 0.34969 0.0
C1315 C 0.98913 0.03485 0.36964 0.0
H1316 H 0.99243 0.07161 0.41461 0.0
C1317 C 0.01698 0.02072 0.44358 0.0
C1318 C 0.02424 0.03618 0.45823 0.0
C1319 C 0.00913 0.02351 0.42613 0.0
C1320 C 0.99195 0.06113 0.40231 0.0
H1321 H 0.9716 0.04372 0.30212 0.0
H1322 H 0.98716 0.03935 0.33126 0.0
H1323 H 0.97847 0.07675 0.38532 0.0
H1324 H 0.02903 0.06696 0.46508 0.0
H1325 H 0.01606 0.07188 0.4351 0.0
H1326 H 1.00303 0.01946 0.38656 0.0
C1327 C 0.97664 0.04686 0.33218 0.0
C1328 C 0.98352 0.06399 0.38523 0.0
C1329 C 0.96773 0.04955 0.31523 0.0
C1330 C 0.02356 0.05455 0.45446 0.0
C1331 C 0.01584 0.05736 0.43702 0.0
C1332 C 0.9976 0.03198 0.38675 0.0
C1333 C 0.97226 0.05392 0.34993 0.0
C1334 C 0.98177 0.05091 0.3684 0.0
C1335 C 0.0082 0.04192 0.42237 0.0
C1336 C 0.99923 0.04503 0.40364 0.0
H1337 H 0.93897 0.0739 0.33353 0.0
H1338 H 0.95427 0.06942 0.36268 0.0
H1339 H 0.98816 0.02414 0.35739 0.0
H1340 H 0.01707 0.00629 0.44567 0.0
H1341 H 1.00342 0.011 0.41574 0.0
C1342 C 0.27842 0.69886 0.57628 0.0
C1343 C 0.28172 0.6806 0.57599 0.0
C1344 C 0.27774 0.71015 0.59315 0.0
C1345 C 0.2964 0.71786 0.64129 0.0
H1346 H 0.26264 0.74946 0.64975 0.0
C1347 C 0.29316 0.7591 0.71248 0.0
C1348 C 0.29428 0.77876 0.71351 0.0
C1349 C 0.29034 0.74728 0.69531 0.0
C1350 C 0.2722 0.74082 0.64738 0.0
H1351 H 0.28605 0.65928 0.59271 0.0
H1352 H 0.28517 0.67929 0.6225 0.0
H1353 H 0.25881 0.72674 0.62052 0.0
H1354 H 0.29273 0.80152 0.69769 0.0
H1355 H 0.28729 0.78039 0.66714 0.0
H1356 H 0.30977 0.73184 0.66809 0.0
C1357 C 0.28319 0.68483 0.60964 0.0
C1358 C 0.26998 0.72783 0.63083 0.0
C1359 C 0.2837 0.67344 0.5927 0.0
C1360 C 0.29191 0.78638 0.69712 0.0
C1361 C 0.2888 0.77438 0.67979 0.0
C1362 C 0.29858 0.73076 0.65779 0.0
C1363 C 0.28051 0.70337 0.60995 0.0
C1364 C 0.28207 0.71626 0.62774 0.0
C1365 C 0.28835 0.75486 0.67888 0.0
C1366 C 0.28646 0.74223 0.66094 0.0
H1367 H 0.27653 0.70453 0.56348 0.0
H1368 H 0.27576 0.72445 0.59309 0.0
H1369 H 0.30611 0.7094 0.63898 0.0
H1370 H 0.29496 0.75284 0.72493 0.0
H1371 H 0.28987 0.7322 0.69484 0.0
C1372 C 0.63866 0.0465 0.81827 0.0
C1373 C 0.65258 0.05657 0.81034 0.0
C1374 C 0.63183 0.05594 0.83291 0.0
C1375 C 0.62323 0.10133 0.84847 0.0
H1376 H 0.61852 0.08467 0.8963 0.0
C1377 C 0.56977 0.10742 0.89468 0.0
C1378 C 0.57387 0.10599 0.91342 0.0
C1379 C 0.58318 0.11028 0.88337 0.0
C1380 C 0.62015 0.08985 0.88321 0.0
H1381 H 0.67035 0.08403 0.81082 0.0
H1382 H 0.658 0.10064 0.83609 0.0
H1383 H 0.63406 0.06858 0.87386 0.0
H1384 H 0.59473 0.11001 0.93614 0.0
H1385 H 0.61833 0.11576 0.91651 0.0
H1386 H 0.60846 0.12194 0.85742 0.0
C1387 C 0.65274 0.08548 0.83142 0.0
C1388 C 0.62876 0.08042 0.87034 0.0
C1389 C 0.65989 0.07595 0.81723 0.0
C1390 C 0.59143 0.11116 0.92166 0.0
C1391 C 0.60487 0.11424 0.9104 0.0
C1392 C 0.6144 0.11066 0.86129 0.0
C1393 C 0.63855 0.07558 0.8391 0.0
C1394 C 0.63018 0.08602 0.8529 0.0
C1395 C 0.60065 0.1118 0.89094 0.0
C1396 C 0.61271 0.1049 0.87871 0.0
H1397 H 0.63277 0.03162 0.81276 0.0
H1398 H 0.62078 0.0482 0.83876 0.0
H1399 H 0.62413 0.10563 0.83488 0.0
H1400 H 0.55621 0.10332 0.88818 0.0
H1401 H 0.57959 0.10842 0.86841 0.0
C1402 C 0.29579 0.34529 0.08279 0.0
C1403 C 0.29679 0.36505 0.08489 0.0
C1404 C 0.29268 0.33544 0.09781 0.0
C1405 C 0.27627 0.34006 0.1447 0.0
H1406 H 0.29909 0.29864 0.1513 0.0
C1407 C 0.27848 0.30847 0.21335 0.0
C1408 C 0.27464 0.28852 0.21153 0.0
C1409 C 0.28064 0.31732 0.19756 0.0
C1410 C 0.2925 0.31008 0.14957 0.0
H1411 H 0.29528 0.38991 0.10447 0.0
H1412 H 0.29023 0.37295 0.13068 0.0
H1413 H 0.30389 0.31494 0.12453 0.0
H1414 H 0.27057 0.26209 0.19203 0.0
H1415 H 0.27494 0.27752 0.16447 0.0
H1416 H 0.26524 0.33542 0.17002 0.0
C1417 C 0.29154 0.36488 0.11739 0.0
C1418 C 0.2952 0.31941 0.13415 0.0
C1419 C 0.29462 0.3747 0.10237 0.0
C1420 C 0.27338 0.27753 0.19374 0.0
C1421 C 0.27597 0.28637 0.178 0.0
C1422 C 0.27375 0.33087 0.1602 0.0
C1423 C 0.29048 0.34508 0.11537 0.0
C1424 C 0.28721 0.33465 0.13152 0.0
C1425 C 0.27948 0.30638 0.17969 0.0
C1426 C 0.2819 0.31584 0.16291 0.0
H1427 H 0.29731 0.33737 0.06949 0.0
H1428 H 0.29174 0.32018 0.09553 0.0
H1429 H 0.26951 0.35136 0.14301 0.0
H1430 H 0.27956 0.31722 0.22695 0.0
H1431 H 0.28346 0.33276 0.19937 0.0
C1432 C 0.23867 0.9377 0.00968 0.0
C1433 C 0.25627 0.94778 0.01382 0.0
C1434 C 0.22534 0.94601 0.01598 0.0
C1435 C 0.21736 0.98224 0.05238 0.0
H1436 H 0.17505 0.97893 0.01893 0.0
C1437 C 0.16717 0.02904 0.06351 0.0
C1438 C 0.14945 0.02066 0.05675 0.0
C1439 C 0.17988 0.0183 0.06172 0.0
C1440 C 0.18663 0.97962 0.02855 0.0
H1441 H 0.27393 0.97441 0.02749 0.0
H1442 H 0.25053 0.989 0.03839 0.0
H1443 H 0.19829 0.96461 0.00754 0.0
H1444 H 0.13078 0.99408 0.0449 0.0
H1445 H 0.15308 0.97539 0.04153 0.0
H1446 H 0.20573 0.99771 0.07328 0.0
C1447 C 0.24707 0.97468 0.03038 0.0
C1448 C 0.19994 0.97153 0.02199 0.0
C1449 C 0.26039 0.96645 0.02392 0.0
C1450 C 0.14443 1.001 0.04974 0.0
C1451 C 0.15713 0.99031 0.04789 0.0
C1452 C 0.204 0.99039 0.05896 0.0
C1453 C 0.22948 0.96442 0.02664 0.0
C1454 C 0.21542 0.97285 0.03381 0.0
C1455 C 0.17501 0.9991 0.05309 0.0
C1456 C 0.18856 0.98915 0.04705 0.0
H1457 H 0.23524 0.92323 1.00204 0.0
H1458 H 0.21184 0.93781 0.01301 0.0
H1459 H 0.22915 0.98322 0.06179 0.0
H1460 H 0.1714 0.04417 0.06896 0.0
H1461 H 0.19361 0.02539 0.06578 0.0
C1462 C 0.71695 0.65835 0.01391 0.0
C1463 C 0.72833 0.65256 1.00151 0.0
C1464 C 0.70041 0.64653 0.01472 0.0
C1465 C 0.67394 0.59585 0.99905 0.0
H1466 H 0.63519 0.61793 0.0136 0.0
C1467 C 0.60154 0.55219 0.98865 0.0
C1468 C 0.59187 0.55382 1.00396 0.0
C1469 C 0.61806 0.56441 0.98888 0.0
C1470 C 0.64592 0.61154 0.00962 0.0
H1471 H 0.73107 0.62993 0.97996 0.0
H1472 H 0.70206 0.60981 0.98054 0.0
H1473 H 0.6638 0.63877 0.01247 0.0
H1474 H 0.59225 0.56955 0.03168 0.0
H1475 H 0.62081 0.59146 0.03174 0.0
H1476 H 0.65569 0.56866 0.99552 0.0
C1477 C 0.70599 0.62313 0.99026 0.0
C1478 C 0.66246 0.6235 0.00906 0.0
C1479 C 0.72266 0.63479 0.98973 0.0
C1480 C 0.59913 0.56814 0.01948 0.0
C1481 C 0.61554 0.58065 0.01955 0.0
C1482 C 0.65733 0.58396 0.99926 0.0
C1483 C 0.69458 0.62867 1.00289 0.0
C1484 C 0.67681 0.61589 1.00371 0.0
C1485 C 0.6253 0.57882 0.00431 0.0
C1486 C 0.64308 0.59162 0.00451 0.0
H1487 H 0.72098 0.67188 0.02333 0.0
H1488 H 0.6924 0.65136 0.02493 0.0
H1489 H 0.68456 0.58917 0.99538 0.0
H1490 H 0.59643 0.54127 0.97651 0.0
H1491 H 0.62514 0.56267 0.97686 0.0
C1492 C 0.7069 0.46992 0.26829 0.0
C1493 C 0.68967 0.46778 0.27362 0.0
C1494 C 0.71599 0.45468 0.26679 0.0
C1495 C 0.71442 0.40364 0.2787 0.0
H1496 H 0.75304 0.40507 0.24886 0.0
C1497 C 0.7508 0.33839 0.26787 0.0
C1498 C 0.76873 0.34154 0.26459 0.0
C1499 C 0.74116 0.35318 0.26871 0.0
C1500 C 0.74246 0.40423 0.25753 0.0
H1501 H 0.66897 0.44663 0.28148 0.0
H1502 H 0.68443 0.42055 0.27902 0.0
H1503 H 0.73708 0.43048 0.25061 0.0
H1504 H 0.78992 0.3639 0.25935 0.0
H1505 H 0.77346 0.38906 0.26044 0.0
H1506 H 0.71977 0.37725 0.28546 0.0
C1507 C 0.69125 0.43414 0.27601 0.0
C1508 C 0.73306 0.41921 0.25858 0.0
C1509 C 0.6821 0.44936 0.27734 0.0
C1510 C 0.77629 0.36038 0.26193 0.0
C1511 C 0.7666 0.37508 0.26248 0.0
C1512 C 0.72378 0.38862 0.27758 0.0
C1513 C 0.70857 0.4362 0.27068 0.0
C1514 C 0.71871 0.41957 0.26928 0.0
C1515 C 0.7487 0.37209 0.26603 0.0
C1516 C 0.73822 0.38839 0.26702 0.0
H1517 H 0.71352 0.48358 0.2652 0.0
H1518 H 0.72916 0.45772 0.26282 0.0
H1519 H 0.70387 0.40277 0.2874 0.0
H1520 H 0.74412 0.32437 0.27006 0.0
H1521 H 0.72754 0.34955 0.27127 0.0
C1522 C 0.86204 0.44645 0.53489 0.0
C1523 C 0.8533 0.43368 0.51899 0.0
C1524 C 0.87906 0.45675 0.53459 0.0
C1525 C 0.89614 0.48003 0.49981 0.0
H1526 H 0.93874 0.50024 0.53436 0.0
C1527 C 0.96027 0.52236 0.48513 0.0
C1528 C 0.97173 0.5334 0.50049 0.0
C1529 C 0.94286 0.51497 0.48729 0.0
C1530 C 0.92662 0.49504 0.52492 0.0
H1531 H 0.85545 0.41937 0.49141 0.0
H1532 H 0.88525 0.43801 0.49056 0.0
H1533 H 0.91815 0.47164 0.53923 0.0
H1534 H 0.97352 0.5489 0.52872 0.0
H1535 H 0.94313 0.53549 0.53257 0.0
H1536 H 0.90457 0.50337 0.48544 0.0
C1537 C 0.87915 0.43982 0.5033 0.0
C1538 C 0.91517 0.47849 0.52747 0.0
C1539 C 0.86224 0.42924 0.50377 0.0
C1540 C 0.96504 0.53964 0.51694 0.0
C1541 C 0.94763 0.53226 0.51908 0.0
C1542 C 0.90752 0.49665 0.49731 0.0
C1543 C 0.88697 0.45458 0.51816 0.0
C1544 C 0.90009 0.47074 0.51471 0.0
C1545 C 0.93701 0.51854 0.50483 0.0
C1546 C 0.92296 0.50407 0.50968 0.0
H1547 H 0.85513 0.44984 0.54674 0.0
H1548 H 0.88497 0.4681 0.54617 0.0
H1549 H 0.88413 0.47456 0.49023 0.0
H1550 H 0.96504 0.51798 0.47206 0.0
H1551 H 0.93477 0.50456 0.47601 0.0
C1552 C 0.37383 0.05888 0.27301 0.0
C1553 C 0.39132 0.06538 0.28144 0.0
C1554 C 0.36493 0.07158 0.26609 0.0
C1555 C 0.3658 0.12249 0.27015 0.0
H1556 H 0.33778 0.10745 0.22151 0.0
C1557 C 0.33307 0.17518 0.23926 0.0
C1558 C 0.31485 0.16828 0.23425 0.0
C1559 C 0.34383 0.16254 0.24168 0.0
C1560 C 0.3456 0.11178 0.23508 0.0
H1561 H 0.41314 0.09006 0.28976 0.0
H1562 H 0.39762 0.11219 0.27765 0.0
H1563 H 0.3532 0.0851 0.2339 0.0
H1564 H 0.29375 0.14281 0.22649 0.0
H1565 H 0.31257 0.12073 0.23069 0.0
H1566 H 0.35807 0.14898 0.27154 0.0
C1567 C 0.39074 0.0974 0.27648 0.0
C1568 C 0.35429 0.09901 0.2422 0.0
C1569 C 0.39961 0.08475 0.28338 0.0
C1570 C 0.30778 0.1485 0.23024 0.0
C1571 C 0.31854 0.13586 0.23263 0.0
C1572 C 0.35719 0.13523 0.26302 0.0
C1573 C 0.37342 0.09087 0.26758 0.0
C1574 C 0.36434 0.10427 0.25986 0.0
C1575 C 0.3365 0.14286 0.23911 0.0
C1576 C 0.34694 0.12994 0.2455 0.0
H1577 H 0.36722 0.04394 0.27126 0.0
H1578 H 0.35147 0.0663 0.2595 0.0
H1579 H 0.37326 0.12675 0.28392 0.0
H1580 H 0.33889 0.19037 0.24206 0.0
H1581 H 0.35773 0.16819 0.24637 0.0
C1582 C 0.3201 0.14346 0.51934 0.0
C1583 C 0.3231 0.16133 0.51354 0.0
C1584 C 0.33418 0.13554 0.52454 0.0
C1585 C 0.38278 0.14724 0.53819 0.0
H1586 H 0.37646 0.09258 0.52341 0.0
C1587 C 0.43976 0.10733 0.5382 0.0
C1588 C 0.4362 0.08879 0.54262 0.0
C1589 C 0.42649 0.11752 0.53733 0.0
C1590 C 0.37839 0.10782 0.52793 0.0
H1591 H 0.34327 0.18505 0.50878 0.0
H1592 H 0.36793 0.17094 0.51731 0.0
H1593 H 0.35246 0.10755 0.516 0.0
H1594 H 0.41605 0.06688 0.55054 0.0
H1595 H 0.3932 0.0848 0.54954 0.0
H1596 H 0.40902 0.14736 0.54968 0.0
C1597 C 0.35467 0.16318 0.51817 0.0
C1598 C 0.36458 0.11644 0.52367 0.0
C1599 C 0.34054 0.17118 0.51308 0.0
C1600 C 0.41935 0.08114 0.54719 0.0
C1601 C 0.40615 0.09133 0.54638 0.0
C1602 C 0.3967 0.13858 0.54236 0.0
C1603 C 0.35166 0.14521 0.52392 0.0
C1604 C 0.36654 0.13625 0.52874 0.0
C1605 C 0.4094 0.10936 0.54086 0.0
C1606 C 0.39462 0.11876 0.53727 0.0
H1607 H 0.30683 0.13562 0.52007 0.0
H1608 H 0.33131 0.12187 0.52924 0.0
H1609 H 0.3847 0.1625 0.54252 0.0
H1610 H 0.45268 0.11378 0.53493 0.0
H1611 H 0.42943 0.13139 0.53304 0.0
C1612 C 0.70851 0.58305 0.29253 0.0
C1613 C 0.69188 0.57519 0.28192 0.0
C1614 C 0.7179 0.60208 0.2923 0.0
C1615 C 0.7202 0.64379 0.26492 0.0
H1616 H 0.75069 0.67266 0.30892 0.0
C1617 C 0.75784 0.72536 0.26833 0.0
C1618 C 0.77474 0.73174 0.27875 0.0
C1619 C 0.74704 0.7069 0.26878 0.0
C1620 C 0.74247 0.66493 0.29628 0.0
H1621 H 0.67254 0.58198 0.26248 0.0
H1622 H 0.68868 0.61457 0.26189 0.0
H1623 H 0.7343 0.64035 0.30941 0.0
H1624 H 0.79294 0.72304 0.29797 0.0
H1625 H 0.77449 0.69195 0.29915 0.0
H1626 H 0.72845 0.66848 0.25181 0.0
C1627 C 0.69466 0.60614 0.27052 0.0
C1628 C 0.7329 0.64604 0.29658 0.0
C1629 C 0.68519 0.58724 0.27096 0.0
C1630 C 0.78003 0.71905 0.28988 0.0
C1631 C 0.76925 0.70092 0.29057 0.0
C1632 C 0.72982 0.66273 0.26462 0.0
C1633 C 0.71128 0.61418 0.28123 0.0
C1634 C 0.72154 0.63484 0.28089 0.0
C1635 C 0.75251 0.69411 0.27988 0.0
C1636 C 0.74135 0.67383 0.28027 0.0
H1637 H 0.71432 0.57449 0.30117 0.0
H1638 H 0.73061 0.60716 0.30067 0.0
H1639 H 0.71195 0.63601 0.25233 0.0
H1640 H 0.75322 0.73428 0.25923 0.0
H1641 H 0.73433 0.70267 0.26032 0.0
C1642 C 0.89045 0.47278 0.80052 0.0
C1643 C 0.90433 0.47833 0.79025 0.0
C1644 C 0.87802 0.456 0.79395 0.0
C1645 C 0.86628 0.41045 0.76938 0.0
H1646 H 0.8207 0.42338 0.77144 0.0
C1647 C 0.81743 0.37087 0.80772 0.0
C1648 C 0.80004 0.36429 0.79936 0.0
C1649 C 0.8289 0.38392 0.79986 0.0
C1650 C 0.83314 0.41933 0.77009 0.0
H1651 H 0.91743 0.47033 0.76627 0.0
H1652 H 0.8953 0.44046 0.75472 0.0
H1653 H 0.84604 0.44741 0.767 0.0
H1654 H 0.77983 0.36833 0.77902 0.0
H1655 H 0.79991 0.39168 0.76551 0.0
H1656 H 0.8536 0.38272 0.77389 0.0
C1657 C 0.89408 0.44928 0.76764 0.0
C1658 C 0.84759 0.43301 0.76748 0.0
C1659 C 0.90672 0.4661 0.77437 0.0
C1660 C 0.79337 0.37332 0.78548 0.0
C1661 C 0.80486 0.38626 0.7775 0.0
C1662 C 0.85174 0.39663 0.77167 0.0
C1663 C 0.87924 0.44485 0.77692 0.0
C1664 C 0.86442 0.4291 0.76914 0.0
C1665 C 0.82288 0.39048 0.78382 0.0
C1666 C 0.83561 0.40173 0.77396 0.0
H1667 H 0.88857 0.48201 0.81289 0.0
H1668 H 0.86688 0.45226 0.80163 0.0
H1669 H 0.87919 0.40723 0.7704 0.0
H1670 H 0.82275 0.36403 0.81847 0.0
H1671 H 0.84269 0.38787 0.80553 0.0
C1672 C 0.06647 0.85556 0.08288 0.0
C1673 C 0.07005 0.8568 0.10234 0.0
C1674 C 0.06454 0.87169 0.07504 0.0
C1675 C 0.07405 0.92522 0.08662 0.0
H1676 H 0.04185 0.92006 0.0417 0.0
C1677 C 0.07142 0.99021 0.0499 0.0
C1678 C 0.05518 0.99167 0.04102 0.0
C1679 C 0.07319 0.97353 0.05669 0.0
C1680 C 0.05079 0.92188 0.05437 0.0
H1681 H 0.07417 0.87603 0.12879 0.0
H1682 H 0.07054 0.90388 0.11532 0.0
H1683 H 0.04451 0.89184 0.05505 0.0
H1684 H 0.02799 0.9765 0.03245 0.0
H1685 H 0.03095 0.94767 0.04458 0.0
H1686 H 0.07977 0.95526 0.08649 0.0
C1687 C 0.0696 0.89063 0.10593 0.0
C1688 C 0.05253 0.90554 0.06191 0.0
C1689 C 0.07158 0.87456 0.11374 0.0
C1690 C 0.04076 0.9759 0.03908 0.0
C1691 C 0.0425 0.95924 0.04598 0.0
C1692 C 0.07218 0.94153 0.07921 0.0
C1693 C 0.0661 0.88953 0.08644 0.0
C1694 C 0.06421 0.90693 0.07818 0.0
C1695 C 0.05874 0.95779 0.05501 0.0
C1696 C 0.06058 0.94018 0.06291 0.0
H1697 H 0.06511 0.8421 0.07367 0.0
H1698 H 0.06207 0.87017 0.05998 0.0
H1699 H 0.08341 0.92703 0.09896 0.0
H1700 H 0.08284 1.00201 0.05169 0.0
H1701 H 0.08603 0.973 0.06316 0.0
C1702 C 0.94324 0.26417 0.88985 0.0
C1703 C 0.95967 0.27211 0.88437 0.0
C1704 C 0.92756 0.26844 0.88227 0.0
C1705 C 0.91132 0.30467 0.85763 0.0
H1706 H 0.86773 0.26598 0.84534 0.0
C1707 C 0.85141 0.31553 0.81074 0.0
C1708 C 0.83412 0.30756 0.81386 0.0
C1709 C 0.86608 0.3121 0.82112 0.0
C1710 C 0.87968 0.2771 0.84892 0.0
H1711 H 0.97225 0.29108 0.8667 0.0
H1712 H 0.94524 0.29855 0.85367 0.0
H1713 H 0.89417 0.25797 0.85941 0.0
H1714 H 0.81877 0.28963 0.83058 0.0
H1715 H 0.8444 0.28343 0.84873 0.0
H1716 H 0.89695 0.32377 0.84707 0.0
C1717 C 0.94432 0.28896 0.8638 0.0
C1718 C 0.89496 0.27247 0.85702 0.0
C1719 C 0.9599 0.28449 0.87115 0.0
C1720 C 0.83189 0.29628 0.82802 0.0
C1721 C 0.84664 0.29252 0.83825 0.0
C1722 C 0.89608 0.30929 0.84957 0.0
C1723 C 0.92782 0.28107 0.86921 0.0
C1724 C 0.91115 0.28611 0.8613 0.0
C1725 C 0.86403 0.30024 0.83484 0.0
C1726 C 0.88 0.29555 0.84483 0.0
H1727 H 0.94249 0.25471 0.90009 0.0
H1728 H 0.91526 0.26215 0.887 0.0
H1729 H 0.92328 0.31579 0.86107 0.0
H1730 H 0.85363 0.32412 0.79983 0.0
H1731 H 0.87906 0.31818 0.81778 0.0
C1732 C 0.5534 0.23741 0.60665 0.0
C1733 C 0.56237 0.25234 0.59836 0.0
C1734 C 0.55056 0.21845 0.59791 0.0
C1735 C 0.56796 0.18683 0.5642 0.0
H1736 H 0.52366 0.15147 0.56576 0.0
C1737 C 0.55527 0.10632 0.53248 0.0
C1738 C 0.54445 0.09346 0.5415 0.0
C1739 C 0.55716 0.12604 0.53783 0.0
C1740 C 0.53624 0.16103 0.56542 0.0
H1741 H 0.57509 0.25907 0.57415 0.0
H1742 H 0.57009 0.22572 0.55874 0.0
H1743 H 0.52712 0.18516 0.5777 0.0
H1744 H 0.52787 0.09074 0.56364 0.0
H1745 H 0.53195 0.12487 0.57379 0.0
H1746 H 0.57732 0.16265 0.55253 0.0
C1747 C 0.56542 0.2288 0.57216 0.0
C1748 C 0.53816 0.18043 0.57218 0.0
C1749 C 0.56823 0.24787 0.58093 0.0
C1750 C 0.53606 0.10047 0.5563 0.0
C1751 C 0.53828 0.12007 0.56196 0.0
C1752 C 0.56612 0.16735 0.55763 0.0
C1753 C 0.55661 0.21388 0.58062 0.0
C1754 C 0.55412 0.19353 0.5719 0.0
C1755 C 0.54859 0.13318 0.55261 0.0
C1756 C 0.55031 0.15412 0.55843 0.0
H1757 H 0.54871 0.24034 0.62008 0.0
H1758 H 0.54396 0.20733 0.60495 0.0
H1759 H 0.58047 0.19655 0.56393 0.0
H1760 H 0.56181 0.10112 0.52097 0.0
H1761 H 0.56504 0.13561 0.53014 0.0
C1762 C 0.57285 0.78356 0.40207 0.0
C1763 C 0.55707 0.77517 0.39021 0.0
C1764 C 0.58921 0.78602 0.39511 0.0
C1765 C 0.61033 0.76917 0.35345 0.0
H1766 H 0.64961 0.81072 0.376 0.0
C1767 C 0.67894 0.7723 0.32949 0.0
C1768 C 0.68975 0.79015 0.32842 0.0
C1769 C 0.66367 0.77099 0.33838 0.0
C1770 C 0.63877 0.79911 0.36937 0.0
H1771 H 0.5462 0.76325 0.36159 0.0
H1772 H 0.57448 0.76803 0.34928 0.0
H1773 H 0.6212 0.80817 0.38786 0.0
H1774 H 0.69313 0.82071 0.33706 0.0
H1775 H 0.66617 0.81845 0.35178 0.0
H1776 H 0.62748 0.76061 0.33439 0.0
C1777 C 0.57442 0.77223 0.36413 0.0
C1778 C 0.62242 0.79746 0.37639 0.0
C1779 C 0.55807 0.76958 0.37115 0.0
C1780 C 0.68503 0.80667 0.33717 0.0
C1781 C 0.6696 0.80535 0.3459 0.0
C1782 C 0.62653 0.77094 0.34632 0.0
C1783 C 0.59032 0.78033 0.376 0.0
C1784 C 0.60789 0.78242 0.36854 0.0
C1785 C 0.65843 0.78747 0.34631 0.0
C1786 C 0.64111 0.78585 0.35418 0.0
H1787 H 0.5726 0.78807 0.41686 0.0
H1788 H 0.60099 0.79205 0.40486 0.0
H1789 H 0.59975 0.75715 0.34713 0.0
H1790 H 0.68186 0.7592 0.32288 0.0
H1791 H 0.65585 0.7569 0.3388 0.0
C1792 C 0.08369 0.27149 0.433 0.0
C1793 C 0.07851 0.27231 0.41432 0.0
C1794 C 0.07867 0.25446 0.4399 0.0
C1795 C 0.05964 0.20224 0.42464 0.0
H1796 H 0.05033 0.20615 0.47617 0.0
C1797 C 0.04823 0.13684 0.4618 0.0
C1798 C 0.03964 0.13744 0.47796 0.0
C1799 C 0.05122 0.1525 0.45253 0.0
C1800 C 0.05239 0.20461 0.4616 0.0
H1801 H 0.06428 0.25604 0.38803 0.0
H1802 H 0.05496 0.22675 0.40014 0.0
H1803 H 0.05898 0.23479 0.46317 0.0
H1804 H 0.02621 0.15467 0.49606 0.0
H1805 H 0.02962 0.18073 0.47883 0.0
H1806 H 0.05173 0.17205 0.42262 0.0
C1807 C 0.06326 0.23893 0.40947 0.0
C1808 C 0.05787 0.22121 0.45426 0.0
C1809 C 0.06849 0.25582 0.40255 0.0
C1810 C 0.03281 0.15345 0.48365 0.0
C1811 C 0.03519 0.16877 0.47396 0.0
C1812 C 0.05359 0.1856 0.4318 0.0
C1813 C 0.06814 0.23805 0.42827 0.0
C1814 C 0.06188 0.22027 0.43581 0.0
C1815 C 0.04513 0.16891 0.45879 0.0
C1816 C 0.05014 0.18653 0.4505 0.0
H1817 H 0.09147 0.28401 0.44232 0.0
H1818 H 0.08303 0.25422 0.45435 0.0
H1819 H 0.06276 0.2009 0.41039 0.0
H1820 H 0.05318 0.12451 0.45655 0.0
H1821 H 0.05897 0.15189 0.44097 0.0
C1822 C 0.55302 0.28281 0.19752 0.0
C1823 C 0.54645 0.26651 0.18389 0.0
C1824 C 0.57076 0.28751 0.2048 0.0
C1825 C 0.61322 0.27802 0.19339 0.0
H1826 H 0.62811 0.29324 0.24664 0.0
C1827 C 0.67525 0.26418 0.22799 0.0
C1828 C 0.68656 0.27896 0.24061 0.0
C1829 C 0.65884 0.26635 0.22119 0.0
C1830 C 0.62412 0.28941 0.23171 0.0
H1831 H 0.55263 0.24184 0.16772 0.0
H1832 H 0.5834 0.24957 0.18092 0.0
H1833 H 0.59719 0.28951 0.2346 0.0
H1834 H 0.69022 0.30742 0.25632 0.0
H1835 H 0.66094 0.31131 0.24432 0.0
H1836 H 0.63993 0.27691 0.19062 0.0
C1837 C 0.57513 0.25913 0.18552 0.0
C1838 C 0.6065 0.28724 0.22483 0.0
C1839 C 0.55754 0.2546 0.17809 0.0
C1840 C 0.68141 0.29593 0.2466 0.0
C1841 C 0.66486 0.29812 0.23978 0.0
C1842 C 0.63073 0.28005 0.20026 0.0
C1843 C 0.58199 0.27584 0.19862 0.0
C1844 C 0.60084 0.28086 0.20569 0.0
C1845 C 0.65361 0.28337 0.22689 0.0
C1846 C 0.63614 0.28511 0.21951 0.0
H1847 H 0.54463 0.29224 0.20206 0.0
H1848 H 0.57576 0.30048 0.21486 0.0
H1849 H 0.60926 0.27359 0.1785 0.0
H1850 H 0.67916 0.25099 0.22339 0.0
H1851 H 0.65017 0.25466 0.21156 0.0
C1852 C 0.57526 0.87261 0.93905 0.0
C1853 C 0.58635 0.87385 0.92497 0.0
C1854 C 0.56821 0.88798 0.94551 0.0
C1855 C 0.559 0.93256 0.93266 0.0
H1856 H 0.55225 0.94205 0.98499 0.0
C1857 C 0.544 1.00123 0.97152 0.0
C1858 C 0.53255 0.999 0.98515 0.0
C1859 C 0.54826 0.98529 0.96162 0.0
C1860 C 0.55378 0.93936 0.97027 0.0
H1861 H 0.59927 0.89224 0.90694 0.0
H1862 H 0.5877 0.91966 0.91905 0.0
H1863 H 0.56617 0.91653 0.97386 0.0
H1864 H 0.51578 0.97897 0.9988 0.0
H1865 H 0.5231 0.95082 0.98135 0.0
H1866 H 0.54715 0.95612 0.92946 0.0
C1867 C 0.58402 0.90657 0.92467 0.0
C1868 C 0.56179 0.92476 0.96388 0.0
C1869 C 0.59087 0.89101 0.91796 0.0
C1870 C 0.52462 0.98078 0.98822 0.0
C1871 C 0.52884 0.96482 0.97833 0.0
C1872 C 0.55116 0.94739 0.93915 0.0
C1873 C 0.5724 0.90508 0.93832 0.0
C1874 C 0.56441 0.92111 0.94501 0.0
C1875 C 0.54117 0.96703 0.96544 0.0
C1876 C 0.54841 0.95079 0.95799 0.0
H1877 H 0.57125 0.85943 0.94443 0.0
H1878 H 0.559 0.88619 0.95572 0.0
H1879 H 0.56062 0.92992 0.91798 0.0
H1880 H 0.55048 0.0153 0.96933 0.0
H1881 H 0.55797 0.98737 0.95195 0.0
C1882 C 0.93591 0.76018 0.67092 0.0
C1883 C 0.95064 0.75635 0.68075 0.0
C1884 C 0.92059 0.7599 0.67924 0.0
C1885 C 0.89493 0.74314 0.71418 0.0
H1886 H 0.8845 0.79337 0.7213 0.0
C1887 C 0.8395 0.75938 0.75595 0.0
C1888 C 0.82967 0.7712 0.74862 0.0
C1889 C 0.85509 0.75738 0.74891 0.0
C1890 C 0.88705 0.77919 0.7192 0.0
H1891 H 0.96079 0.74812 0.70629 0.0
H1892 H 0.93378 0.74765 0.72083 0.0
H1893 H 0.90896 0.7881 0.70453 0.0
H1894 H 0.82764 0.78982 0.72822 0.0
H1895 H 0.85412 0.78547 0.71514 0.0
H1896 H 0.87254 0.73391 0.72806 0.0
C1897 C 0.93421 0.75084 0.70678 0.0
C1898 C 0.90104 0.77625 0.70968 0.0
C1899 C 0.9496 0.75129 0.69855 0.0
C1900 C 0.83534 0.78092 0.73426 0.0
C1901 C 0.85055 0.7785 0.72688 0.0
C1902 C 0.8806 0.74595 0.72335 0.0
C1903 C 0.91987 0.7556 0.69731 0.0
C1904 C 0.90492 0.75822 0.70705 0.0
C1905 C 0.86062 0.76677 0.73415 0.0
C1906 C 0.87647 0.76399 0.72578 0.0
H1907 H 0.93639 0.76391 0.65708 0.0
H1908 H 0.90949 0.76356 0.67182 0.0
H1909 H 0.89797 0.72918 0.71228 0.0
H1910 H 0.83517 0.75183 0.7671 0.0
H1911 H 0.86274 0.74846 0.75495 0.0
C1912 C 0.14015 0.01091 0.84603 0.0
C1913 C 0.13532 0.01936 0.83057 0.0
C1914 C 0.13218 0.01266 0.86298 0.0
C1915 C 0.10401 0.04165 0.89136 0.0
H1916 H 0.10104 1.00178 0.92158 0.0
C1917 C 0.07821 0.05035 0.96748 0.0
C1918 C 0.0701 0.03389 0.97459 0.0
C1919 C 0.08612 0.04908 0.95032 0.0
C1920 C 0.10151 0.01323 0.91354 0.0
H1921 H 0.1177 0.03666 0.822 0.0
H1922 H 0.1043 0.04009 0.85121 0.0
H1923 H 0.11351 0.99843 0.89217 0.0
H1924 H 0.06453 1.00307 0.96801 0.0
H1925 H 0.07815 1.00086 0.93926 0.0
H1926 H 0.09186 0.05639 0.91275 0.0
C1927 C 0.1143 0.03187 0.85032 0.0
C1928 C 0.10905 0.01134 0.89634 0.0
C1929 C 0.12204 0.02978 0.8332 0.0
C1930 C 0.07063 0.01626 0.9636 0.0
C1931 C 0.07867 0.01498 0.94675 0.0
C1932 C 0.09661 0.04364 0.90871 0.0
C1933 C 0.11906 0.02333 0.86582 0.0
C1934 C 0.1106 0.02546 0.8846 0.0
C1935 C 0.08663 0.03129 0.93932 0.0
C1936 C 0.09504 0.02947 0.92044 0.0
H1937 H 0.15018 1.00271 0.84502 0.0
H1938 H 0.1367 0.0058 0.87409 0.0
H1939 H 0.10477 0.05316 0.88335 0.0
H1940 H 0.0781 0.06433 0.97492 0.0
H1941 H 0.09196 0.06225 0.94575 0.0
C1942 C 0.79194 0.39105 0.56861 0.0
C1943 C 0.80242 0.40677 0.56292 0.0
C1944 C 0.79663 0.38616 0.58584 0.0
C1945 C 0.82716 0.4048 0.62992 0.0
H1946 H 0.81797 0.35115 0.63383 0.0
C1947 C 0.83292 0.37746 0.69899 0.0
C1948 C 0.83383 0.35832 0.69844 0.0
C1949 C 0.83327 0.38529 0.6827 0.0
C1950 C 0.82112 0.36619 0.63284 0.0
H1951 H 0.82614 0.42946 0.57002 0.0
H1952 H 0.8349 0.42029 0.5992 0.0
H1953 H 0.80851 0.36049 0.60488 0.0
H1954 H 0.83918 0.33355 0.68132 0.0
H1955 H 0.84157 0.34788 0.65351 0.0
H1956 H 0.84082 0.4104 0.65745 0.0
C1957 C 0.82259 0.41228 0.59119 0.0
C1958 C 0.8152 0.37156 0.61636 0.0
C1959 C 0.81762 0.41747 0.57438 0.0
C1960 C 0.83825 0.3483 0.68225 0.0
C1961 C 0.83923 0.35637 0.66613 0.0
C1962 C 0.8336 0.39939 0.64617 0.0
C1963 C 0.81217 0.39662 0.59716 0.0
C1964 C 0.81802 0.39093 0.61479 0.0
C1965 C 0.83526 0.37427 0.66585 0.0
C1966 C 0.83048 0.38004 0.64789 0.0
H1967 H 0.78018 0.38267 0.55982 0.0
H1968 H 0.78816 0.37417 0.5902 0.0
H1969 H 0.82929 0.4199 0.62931 0.0
H1970 H 0.83008 0.38571 0.71151 0.0
H1971 H 0.83034 0.39923 0.6831 0.0
C1972 C 0.4366 0.03896 0.35799 0.0
C1973 C 0.44544 0.03484 0.34253 0.0
C1974 C 0.44314 0.03634 0.37551 0.0
C1975 C 0.47026 0.01102 0.39986 0.0
H1976 H 0.48383 0.05745 0.43656 0.0
C1977 C 0.52165 0.0208 0.46328 0.0
C1978 C 0.51967 0.03246 0.47957 0.0
C1979 C 0.50981 0.01865 0.44732 0.0
C1980 C 0.4797 0.04421 0.42672 0.0
H1981 H 0.46749 0.02417 0.33276 0.0
H1982 H 0.47905 0.01968 0.36366 0.0
H1983 H 0.46746 0.05772 0.40685 0.0
H1984 H 0.50458 0.05124 0.49256 0.0
H1985 H 0.48302 0.04655 0.46512 0.0
H1986 H 0.48256 0.99747 0.41974 0.0
C1987 C 0.46714 0.02496 0.36213 0.0
C1988 C 0.47044 0.04444 0.40972 0.0
C1989 C 0.46076 0.02788 0.34466 0.0
C1990 C 0.50584 0.0418 0.4801 0.0
C1991 C 0.49376 0.03932 0.46436 0.0
C1992 C 0.47929 0.01067 0.41707 0.0
C1993 C 0.45837 0.02926 0.37758 0.0
C1994 C 0.46605 0.028 0.39612 0.0
C1995 C 0.49582 0.02799 0.44773 0.0
C1996 C 0.48442 0.02741 0.43046 0.0
H1997 H 0.42458 0.04404 0.3565 0.0
H1998 H 0.43633 0.03977 0.38742 0.0
H1999 H 0.46682 0.9982 0.38939 0.0
H2000 H 0.53234 0.01346 0.4629 0.0
H2001 H 0.51192 0.01014 0.43461 0.0
C2002 C 0.78286 0.73412 0.06332 0.0
C2003 C 0.78714 0.71634 0.05858 0.0
C2004 C 0.78377 0.74237 0.08215 0.0
C2005 C 0.80307 0.74031 0.13003 0.0
H2006 H 0.76338 0.7598 0.14598 0.0
C2007 C 0.79449 0.75418 0.20774 0.0
C2008 C 0.78745 0.76964 0.21469 0.0
C2009 C 0.79428 0.74868 0.18856 0.0
C2010 C 0.77472 0.75471 0.1418 0.0
H2011 H 0.79626 0.6936 0.06987 0.0
H2012 H 0.79786 0.7079 0.10243 0.0
H2013 H 0.76437 0.74939 0.11281 0.0
H2014 H 0.77439 0.79134 0.20707 0.0
H2015 H 0.77452 0.7822 0.17336 0.0
H2016 H 0.81359 0.74572 0.15882 0.0
C2017 C 0.79386 0.71557 0.09173 0.0
C2018 C 0.77527 0.74873 0.12273 0.0
C2019 C 0.79283 0.7073 0.07301 0.0
C2020 C 0.77977 0.77926 0.20203 0.0
C2021 C 0.77986 0.77397 0.18272 0.0
C2022 C 0.80261 0.74645 0.14903 0.0
C2023 C 0.78914 0.73309 0.09658 0.0
C2024 C 0.7893 0.74113 0.11664 0.0
C2025 C 0.78737 0.75875 0.17573 0.0
C2026 C 0.78826 0.75339 0.15527 0.0
H2027 H 0.77846 0.74145 0.05252 0.0
H2028 H 0.78022 0.75598 0.08542 0.0
H2029 H 0.81424 0.73486 0.12582 0.0
H2030 H 0.80031 0.74636 0.21721 0.0
H2031 H 0.79964 0.7365 0.18384 0.0
C2032 C 0.11556 1.00339 0.71644 0.0
C2033 C 0.13363 0.01187 0.72224 0.0
C2034 C 0.10717 1.00446 0.6985 0.0
C2035 C 0.11325 0.03177 0.65712 0.0
H2036 H 0.07401 0.99202 0.63125 0.0
C2037 C 0.07443 0.04094 0.5866 0.0
C2038 C 0.06683 0.02488 0.57267 0.0
C2039 C 0.08208 0.03909 0.60451 0.0
C2040 C 0.08503 1.00332 0.63805 0.0
H2041 H 0.15663 0.02821 0.71273 0.0
H2042 H 0.1424 0.03003 0.68215 0.0
H2043 H 0.08775 0.98918 0.66189 0.0
H2044 H 0.06152 0.994 0.56763 0.0
H2045 H 0.07452 0.99074 0.59853 0.0
H2046 H 0.11071 0.04584 0.63331 0.0
C2047 C 0.13442 0.02261 0.69138 0.0
C2048 C 0.09292 1.00177 0.65602 0.0
C2049 C 0.14278 0.02141 0.70916 0.0
C2050 C 0.06713 0.00684 0.57769 0.0
C2051 C 0.07461 1.00497 0.5957 0.0
C2052 C 0.1053 0.03338 0.63927 0.0
C2053 C 0.11634 0.01424 0.68546 0.0
C2054 C 0.10736 0.01591 0.66607 0.0
C2055 C 0.08244 0.02107 0.60963 0.0
C2056 C 0.09098 0.0192 0.62913 0.0
H2057 H 0.10779 0.99593 0.72583 0.0
H2058 H 0.09328 0.99784 0.69503 0.0
H2059 H 0.12404 0.04329 0.66399 0.0
H2060 H 0.07464 0.05515 0.58365 0.0
H2061 H 0.08756 0.05201 0.61447 0.0
C2062 C 0.79653 0.37489 0.4547 0.0
C2063 C 0.79942 0.39483 0.45803 0.0
C2064 C 0.79963 0.3655 0.4378 0.0
C2065 C 0.82214 0.37145 0.39631 0.0
H2066 H 0.78635 0.32591 0.37483 0.0
C2067 C 0.81251 0.33034 0.32038 0.0
C2068 C 0.80758 0.31034 0.3184 0.0
C2069 C 0.81514 0.3415 0.33805 0.0
C2070 C 0.79657 0.33844 0.3808 0.0
H2071 H 0.80819 0.42076 0.44665 0.0
H2072 H 0.813 0.40411 0.41655 0.0
H2073 H 0.7829 0.34445 0.40411 0.0
H2074 H 0.80301 0.28619 0.33304 0.0
H2075 H 0.80756 0.30573 0.364 0.0
H2076 H 0.83549 0.36547 0.3724 0.0
C2077 C 0.80857 0.39584 0.42718 0.0
C2078 C 0.79459 0.34906 0.39752 0.0
C2079 C 0.80561 0.4053 0.44424 0.0
C2080 C 0.80667 0.30159 0.33428 0.0
C2081 C 0.80925 0.31273 0.35191 0.0
C2082 C 0.82406 0.36082 0.37937 0.0
C2083 C 0.80544 0.37585 0.42381 0.0
C2084 C 0.80745 0.36547 0.40557 0.0
C2085 C 0.81279 0.33272 0.35382 0.0
C2086 C 0.81139 0.34408 0.37172 0.0
H2087 H 0.79216 0.36652 0.46527 0.0
H2088 H 0.79751 0.35009 0.43569 0.0
H2089 H 0.83223 0.38407 0.40231 0.0
H2090 H 0.81331 0.3374 0.30826 0.0
H2091 H 0.81777 0.3569 0.33924 0.0
C2092 C 0.45143 0.03161 0.23312 0.0
C2093 C 0.43469 0.0229 0.23694 0.0
C2094 C 0.45599 0.02815 0.21514 0.0
C2095 C 0.44452 0.99312 0.17214 0.0
H2096 H 0.4705 0.0346 0.15054 0.0
C2097 C 0.46306 0.9992 0.09585 0.0
C2098 C 0.48148 1.00388 0.09646 0.0
C2099 C 0.45548 0.99741 0.11231 0.0
C2100 C 0.46316 0.02298 0.15649 0.0
H2101 H 0.40946 1.004 0.22526 0.0
H2102 H 0.41739 0.99821 0.19384 0.0
H2103 H 0.46093 0.04147 0.18127 0.0
H2104 H 0.50639 0.009 0.11422 0.0
H2105 H 0.49309 0.00592 0.14278 0.0
H2106 H 0.44686 0.97472 0.1471 0.0
C2107 C 0.42702 0.00747 0.2047 0.0
C2108 C 0.45784 0.02685 0.174 0.0
C2109 C 0.42248 0.01092 0.22262 0.0
C2110 C 0.49216 1.005 0.11329 0.0
C2111 C 0.48462 1.00339 0.12964 0.0
C2112 C 0.44976 0.98928 0.1545 0.0
C2113 C 0.44383 0.01594 0.20088 0.0
C2114 C 0.44872 0.01191 0.18205 0.0
C2115 C 0.46636 1.00043 0.12928 0.0
C2116 C 0.45929 1.00419 0.14683 0.0
H2117 H 0.46104 0.04084 0.24402 0.0
H2118 H 0.46911 0.03469 0.21248 0.0
H2119 H 0.43762 0.98137 0.17822 0.0
H2120 H 0.45465 0.99835 0.08298 0.0
H2121 H 0.44132 0.99524 0.11203 0.0
C2122 C 0.7833 0.69651 0.93622 0.0
C2123 C 0.78212 0.70844 0.95283 0.0
C2124 C 0.78368 0.70334 0.91917 0.0
C2125 C 0.7894 0.749 0.89898 0.0
H2126 H 0.77213 0.71367 0.85271 0.0
C2127 C 0.79938 0.77259 0.8276 0.0
C2128 C 0.78667 0.7646 0.81206 0.0
C2129 C 0.7983 0.76568 0.8445 0.0
C2130 C 0.77679 0.72386 0.86546 0.0
H2131 H 0.78034 0.73701 0.96446 0.0
H2132 H 0.78021 0.74876 0.93485 0.0
H2133 H 0.77074 0.70213 0.88226 0.0
H2134 H 0.76271 0.74303 0.80218 0.0
H2135 H 0.76071 0.73085 0.83176 0.0
H2136 H 0.79452 0.7709 0.88222 0.0
C2137 C 0.78141 0.73421 0.93485 0.0
C2138 C 0.77632 0.71713 0.88258 0.0
C2139 C 0.78131 0.72742 0.95195 0.0
C2140 C 0.77279 0.74941 0.81385 0.0
C2141 C 0.77172 0.7424 0.83084 0.0
C2142 C 0.78958 0.75576 0.88191 0.0
C2143 C 0.7826 0.7223 0.91809 0.0
C2144 C 0.78275 0.72955 0.89969 0.0
C2145 C 0.78444 0.75051 0.8465 0.0
C2146 C 0.78346 0.74329 0.86481 0.0
H2147 H 0.78405 0.68182 0.93636 0.0
H2148 H 0.78505 0.69369 0.9069 0.0
H2149 H 0.79477 0.75915 0.91159 0.0
H2150 H 0.81022 0.78439 0.82678 0.0
H2151 H 0.80858 0.77217 0.85592 0.0
C2152 C 0.82561 0.10663 0.02383 0.0
C2153 C 0.82637 0.12614 0.02457 0.0
C2154 C 0.84061 0.09967 0.02107 0.0
C2155 C 0.88263 0.1115 1.00224 0.0
H2156 H 0.89534 0.07476 0.03141 0.0
C2157 C 0.94826 0.08609 0.00411 0.0
C2158 C 0.94555 0.06611 1.00102 0.0
C2159 C 0.93397 0.09451 0.00624 0.0
C2160 C 0.89186 0.08502 0.0232 0.0
H2161 H 0.84319 0.15383 0.02354 0.0
H2162 H 0.86932 0.14169 0.01904 0.0
H2163 H 0.86923 0.08697 0.03704 0.0
H2164 H 0.92619 0.03925 0.99754 0.0
H2165 H 0.90132 0.05398 1.00124 0.0
H2166 H 0.90543 0.10952 0.98849 0.0
C2167 C 0.85718 0.13174 0.02022 0.0
C2168 C 0.87694 0.09186 0.02632 0.0
C2169 C 0.84227 0.13866 0.02294 0.0
C2170 C 0.92851 0.05469 0.99968 0.0
C2171 C 0.91436 0.06305 1.00195 0.0
C2172 C 0.89764 0.10472 0.9992 0.0
C2173 C 0.85641 0.1122 0.01906 0.0
C2174 C 0.87216 0.10502 0.01576 0.0
C2175 C 0.91706 0.08294 0.00557 0.0
C2176 C 0.90216 0.09131 0.00955 0.0
H2177 H 0.81343 0.09675 0.02501 0.0
H2178 H 0.83976 0.08448 0.02012 0.0
H2179 H 0.87904 0.12154 0.99382 0.0
H2180 H 0.96137 0.09508 0.00512 0.0
H2181 H 0.93617 0.10993 0.00904 0.0
C2182 C 0.35942 0.44244 0.03274 0.0
C2183 C 0.35597 0.42419 0.03786 0.0
C2184 C 0.37648 0.45141 0.02966 0.0
C2185 C 0.42428 0.45027 0.03909 0.0
H2186 H 0.42961 0.48275 1.00127 0.0
C2187 C 0.49369 0.48988 0.02257 0.0
C2188 C 0.49513 0.50925 0.02119 0.0
C2189 C 0.47705 0.47777 0.02309 0.0
C2190 C 0.42843 0.47381 0.01197 0.0
H2191 H 0.36804 0.4011 0.04362 0.0
H2192 H 0.39768 0.41665 0.03834 0.0
H2193 H 0.40034 0.46544 0.00544 0.0
H2194 H 0.48016 0.53078 0.01849 0.0
H2195 H 0.45152 0.50988 0.01886 0.0
H2196 H 0.45248 0.45877 0.04558 0.0
C2197 C 0.38726 0.42422 0.03688 0.0
C2198 C 0.41152 0.46388 0.01444 0.0
C2199 C 0.37017 0.41522 0.03988 0.0
C2200 C 0.47957 0.51596 0.01963 0.0
C2201 C 0.46305 0.50388 0.01973 0.0
C2202 C 0.44124 0.46016 0.03655 0.0
C2203 C 0.39074 0.44247 0.03162 0.0
C2204 C 0.40906 0.45219 0.02828 0.0
C2205 C 0.46145 0.48465 0.02177 0.0
C2206 C 0.44358 0.47239 0.02318 0.0
H2207 H 0.34886 0.44978 0.03092 0.0
H2208 H 0.37847 0.46552 0.02592 0.0
H2209 H 0.4231 0.44158 0.04999 0.0
H2210 H 0.50542 0.48426 0.0239 0.0
H2211 H 0.47641 0.46304 0.02457 0.0
C2212 C 0.3807 0.61113 0.75422 0.0
C2213 C 0.39722 0.61191 0.76444 0.0
C2214 C 0.37287 0.62737 0.75465 0.0
C2215 C 0.37805 0.68069 0.77927 0.0
H2216 H 0.33919 0.67936 0.74212 0.0
C2217 C 0.34674 0.74977 0.7746 0.0
C2218 C 0.32882 0.74732 0.76724 0.0
C2219 C 0.35525 0.73399 0.77455 0.0
C2220 C 0.3499 0.68028 0.75291 0.0
H2221 H 0.41796 0.63188 0.78341 0.0
H2222 H 0.40478 0.65959 0.78417 0.0
H2223 H 0.35268 0.6522 0.7415 0.0
H2224 H 0.30647 0.72506 0.75366 0.0
H2225 H 0.3209 0.69844 0.75326 0.0
H2226 H 0.37525 0.70907 0.79045 0.0
C2227 C 0.39748 0.64635 0.77569 0.0
C2228 C 0.35789 0.6642 0.75257 0.0
C2229 C 0.40532 0.6301 0.77519 0.0
C2230 C 0.32015 0.72815 0.75962 0.0
C2231 C 0.32868 0.71252 0.75927 0.0
C2232 C 0.3701 0.69687 0.77953 0.0
C2233 C 0.38092 0.64571 0.76538 0.0
C2234 C 0.37226 0.66363 0.76577 0.0
C2235 C 0.34653 0.71474 0.76678 0.0
C2236 C 0.35564 0.69725 0.76641 0.0
H2237 H 0.37365 0.59777 0.7457 0.0
H2238 H 0.36018 0.62522 0.7465 0.0
H2239 H 0.38874 0.6817 0.79007 0.0
H2240 H 0.35427 0.76397 0.78069 0.0
H2241 H 0.36892 0.73707 0.78047 0.0
C2242 C 0.2204 0.60919 0.50714 0.0
C2243 C 0.22819 0.62729 0.51752 0.0
C2244 C 0.20211 0.60343 0.50338 0.0
C2245 C 0.1636 0.60933 0.52364 0.0
H2246 H 0.13775 0.59169 0.47409 0.0
C2247 C 0.08906 0.58863 0.51427 0.0
C2248 C 0.08123 0.57182 0.50177 0.0
C2249 C 0.10668 0.59708 0.51431 0.0
C2250 C 0.14485 0.59642 0.48799 0.0
H2251 H 0.22333 0.65362 0.53205 0.0
H2252 H 0.19141 0.64327 0.52588 0.0
H2253 H 0.16987 0.60271 0.4776 0.0
H2254 H 0.08511 0.55074 0.47925 0.0
H2255 H 0.1164 0.56496 0.47998 0.0
H2256 H 0.13903 0.60239 0.53428 0.0
C2257 C 0.1994 0.63371 0.52053 0.0
C2258 C 0.1631 0.60273 0.48995 0.0
C2259 C 0.21758 0.63954 0.52407 0.0
C2260 C 0.09104 0.56373 0.48901 0.0
C2261 C 0.10883 0.57196 0.48933 0.0
C2262 C 0.14548 0.60277 0.52173 0.0
C2263 C 0.19161 0.61565 0.51021 0.0
C2264 C 0.17248 0.60917 0.5078 0.0
C2265 C 0.11683 0.58856 0.50218 0.0
C2266 C 0.13593 0.59625 0.5039 0.0
H2267 H 0.22841 0.59966 0.50179 0.0
H2268 H 0.19616 0.58936 0.49551 0.0
H2269 H 0.17075 0.61411 0.53754 0.0
H2270 H 0.08154 0.59531 0.52397 0.0
H2271 H 0.11241 0.61015 0.52403 0.0
C2272 C 0.70377 1.00069 0.75148 0.0
C2273 C 0.6863 1.00037 0.75453 0.0
C2274 C 0.71091 0.98534 0.75467 0.0
C2275 C 0.70681 0.95067 0.78491 0.0
H2276 H 0.73344 0.92482 0.75145 0.0
C2277 C 0.73387 0.88358 0.7935 0.0
C2278 C 0.7519 0.88664 0.79176 0.0
C2279 C 0.72493 0.89767 0.79044 0.0
C2280 C 0.72599 0.93202 0.76082 0.0
H2281 H 0.66221 0.98375 0.7622 0.0
H2282 H 0.67484 0.95716 0.76791 0.0
H2283 H 0.71921 0.94898 0.74092 0.0
H2284 H 0.775 0.9065 0.78613 0.0
H2285 H 0.75931 0.93107 0.78073 0.0
H2286 H 0.71379 0.9338 0.80487 0.0
C2287 C 0.68293 0.96916 0.76314 0.0
C2288 C 0.71799 0.94571 0.75486 0.0
C2289 C 0.67576 0.9843 0.75978 0.0
C2290 C 0.76113 0.9041 0.78791 0.0
C2291 C 0.75221 0.918 0.78465 0.0
C2292 C 0.7148 0.93694 0.79086 0.0
C2293 C 0.7006 0.96989 0.76107 0.0
C2294 C 0.70852 0.95512 0.76695 0.0
C2295 C 0.73406 0.91454 0.78533 0.0
C2296 C 0.72456 0.92784 0.77888 0.0
H2297 H 0.71203 0.013 0.74738 0.0
H2298 H 0.72464 0.98595 0.75306 0.0
H2299 H 0.69964 0.95809 0.79441 0.0
H2300 H 0.72663 0.87004 0.79631 0.0
H2301 H 0.71084 0.89499 0.79093 0.0
C2302 C 0.74247 0.90547 0.5192 0.0
C2303 C 0.75641 0.915 0.53317 0.0
C2304 C 0.72695 0.91212 0.51705 0.0
C2305 C 0.70055 0.94047 0.54336 0.0
H2306 H 0.67927 0.94595 0.49495 0.0
C2307 C 0.64721 0.98329 0.53845 0.0
C2308 C 0.63375 0.97842 0.52334 0.0
C2309 C 0.66129 0.97429 0.53871 0.0
C2310 C 0.68481 0.94423 0.50857 0.0
H2311 H 0.76492 0.93905 0.55574 0.0
H2312 H 0.73779 0.95049 0.55219 0.0
H2313 H 0.70542 0.93261 0.49712 0.0
H2314 H 0.62465 0.96021 0.49649 0.0
H2315 H 0.64905 0.94391 0.49716 0.0
H2316 H 0.67993 0.95147 0.55492 0.0
C2317 C 0.73886 0.93785 0.54289 0.0
C2318 C 0.6999 0.93665 0.5098 0.0
C2319 C 0.75446 0.93136 0.54489 0.0
C2320 C 0.63482 0.96429 0.50836 0.0
C2321 C 0.64888 0.95501 0.50873 0.0
C2322 C 0.6854 0.94774 0.54213 0.0
C2323 C 0.72489 0.9283 0.52899 0.0
C2324 C 0.70818 0.9351 0.52728 0.0
C2325 C 0.66232 0.95984 0.52399 0.0
C2326 C 0.67752 0.95025 0.52479 0.0
H2327 H 0.74355 0.89284 0.50989 0.0
H2328 H 0.71643 0.90436 0.50629 0.0
H2329 H 0.70631 0.93902 0.557 0.0
H2330 H 0.64708 0.99446 0.54999 0.0
H2331 H 0.67156 0.979 0.55043 0.0
C2332 C 0.38042 0.49851 0.77836 0.0
C2333 C 0.39155 0.50269 0.76448 0.0
C2334 C 0.37205 0.4794 0.77987 0.0
C2335 C 0.36239 0.42676 0.75406 0.0
H2336 H 0.34564 0.41558 0.8005 0.0
C2337 C 0.33044 0.34664 0.76427 0.0
C2338 C 0.31635 0.3438 0.77527 0.0
C2339 C 0.34038 0.3654 0.76323 0.0
C2340 C 0.35001 0.4182 0.78724 0.0
H2341 H 0.40234 0.48881 0.7414 0.0
H2342 H 0.38821 0.45612 0.74397 0.0
H2343 H 0.36057 0.44795 0.79825 0.0
H2344 H 0.30241 0.35934 0.79403 0.0
H2345 H 0.3197 0.39118 0.79286 0.0
H2346 H 0.35197 0.39677 0.74323 0.0
C2347 C 0.3855 0.46753 0.75372 0.0
C2348 C 0.35872 0.43722 0.78588 0.0
C2349 C 0.39387 0.48664 0.75224 0.0
C2350 C 0.31313 0.36055 0.7855 0.0
C2351 C 0.32323 0.37912 0.78482 0.0
C2352 C 0.3538 0.40768 0.75549 0.0
C2353 C 0.37428 0.4632 0.76759 0.0
C2354 C 0.36509 0.44225 0.76918 0.0
C2355 C 0.33699 0.38225 0.77343 0.0
C2356 C 0.34717 0.40281 0.77207 0.0
H2357 H 0.37818 0.51012 0.78826 0.0
H2358 H 0.36357 0.4775 0.79072 0.0
H2359 H 0.36658 0.42928 0.74072 0.0
H2360 H 0.33339 0.33442 0.75586 0.0
H2361 H 0.35078 0.36664 0.75432 0.0
C2362 C 0.19874 0.61305 0.28614 0.0
C2363 C 0.1829 0.60534 0.27444 0.0
C2364 C 0.20398 0.63262 0.29199 0.0
C2365 C 0.20607 0.66992 0.26931 0.0
H2366 H 0.22704 0.70227 0.31637 0.0
C2367 C 0.25291 0.74171 0.27121 0.0
C2368 C 0.26623 0.74818 0.28628 0.0
C2369 C 0.24004 0.72546 0.27121 0.0
C2370 C 0.22142 0.69328 0.30313 0.0
H2371 H 0.15942 0.61133 0.2607 0.0
H2372 H 0.16927 0.64594 0.27004 0.0
H2373 H 0.20644 0.67189 0.31642 0.0
H2374 H 0.27756 0.74277 0.31255 0.0
H2375 H 0.25606 0.71281 0.31161 0.0
H2376 H 0.22236 0.68956 0.25587 0.0
C2377 C 0.17723 0.63677 0.2751 0.0
C2378 C 0.20938 0.67624 0.30322 0.0
C2379 C 0.17183 0.61716 0.26954 0.0
C2380 C 0.26739 0.73765 0.30073 0.0
C2381 C 0.25487 0.72087 0.30036 0.0
C2382 C 0.21849 0.68651 0.26921 0.0
C2383 C 0.19355 0.64454 0.28587 0.0
C2384 C 0.20199 0.66439 0.2863 0.0
C2385 C 0.24072 0.71501 0.28591 0.0
C2386 C 0.2266 0.69816 0.28613 0.0
H2387 H 0.20724 0.60403 0.29037 0.0
H2388 H 0.21681 0.63855 0.3 0.0
H2389 H 0.20077 0.66059 0.25614 0.0
H2390 H 0.25157 0.75009 0.26022 0.0
H2391 H 0.22916 0.72167 0.26009 0.0
C2392 C 0.51674 0.7255 0.45991 0.0
C2393 C 0.51462 0.72279 0.44025 0.0
C2394 C 0.52084 0.71128 0.46947 0.0
C2395 C 0.53923 0.6678 0.46332 0.0
H2396 H 0.51722 0.65755 0.50755 0.0
C2397 C 0.55742 0.61263 0.50737 0.0
C2398 C 0.5431 0.59988 0.5124 0.0
C2399 C 0.55487 0.62871 0.49986 0.0
C2400 C 0.52347 0.6602 0.4952 0.0
H2401 H 0.51524 0.70293 0.41526 0.0
H2402 H 0.52221 0.67802 0.43186 0.0
H2403 H 0.51064 0.6829 0.49148 0.0
H2404 H 0.51504 0.59444 0.51418 0.0
H2405 H 0.51066 0.62261 0.5015 0.0
H2406 H 0.55177 0.64481 0.46685 0.0
C2407 C 0.52086 0.69124 0.43995 0.0
C2408 C 0.51982 0.67488 0.48606 0.0
C2409 C 0.51668 0.70546 0.43039 0.0
C2410 C 0.52633 0.60395 0.5104 0.0
C2411 C 0.52384 0.62018 0.50321 0.0
C2412 C 0.54295 0.65319 0.47253 0.0
C2413 C 0.52304 0.69395 0.45963 0.0
C2414 C 0.52747 0.67875 0.46983 0.0
C2415 C 0.53801 0.6326 0.49751 0.0
C2416 C 0.53496 0.64903 0.48847 0.0
H2417 H 0.51539 0.73874 0.46799 0.0
H2418 H 0.52261 0.71404 0.4846 0.0
H2419 H 0.5456 0.67051 0.45107 0.0
H2420 H 0.57049 0.60983 0.50862 0.0
H2421 H 0.56611 0.63805 0.49579 0.0
C2422 C 0.63147 0.30138 0.65584 0.0
C2423 C 0.61939 0.31208 0.66196 0.0
C2424 C 0.64619 0.3004 0.66794 0.0
C2425 C 0.66347 0.30946 0.71913 0.0
H2426 H 0.70766 0.3045 0.70102 0.0
C2427 C 0.72672 0.31955 0.77026 0.0
C2428 C 0.73854 0.30769 0.76672 0.0
C2429 C 0.71257 0.31928 0.75696 0.0
C2430 C 0.69537 0.30567 0.70633 0.0
H2431 H 0.61371 0.33055 0.68559 0.0
H2432 H 0.63946 0.32945 0.70639 0.0
H2433 H 0.68276 0.30612 0.67906 0.0
H2434 H 0.74474 0.28635 0.74603 0.0
H2435 H 0.7199 0.28589 0.72257 0.0
H2436 H 0.67607 0.30923 0.74636 0.0
C2437 C 0.63743 0.32127 0.69242 0.0
C2438 C 0.68099 0.3066 0.69367 0.0
C2439 C 0.62265 0.3221 0.68038 0.0
C2440 C 0.7359 0.29566 0.74925 0.0
C2441 C 0.72168 0.29548 0.73578 0.0
C2442 C 0.67782 0.30865 0.73173 0.0
C2443 C 0.64937 0.3102 0.68655 0.0
C2444 C 0.66479 0.30871 0.69987 0.0
C2445 C 0.70967 0.30718 0.73952 0.0
C2446 C 0.6941 0.30695 0.72562 0.0
H2447 H 0.62934 0.29336 0.64178 0.0
H2448 H 0.65481 0.29153 0.66279 0.0
H2449 H 0.65122 0.31049 0.72458 0.0
H2450 H 0.72834 0.3291 0.78347 0.0
H2451 H 0.70395 0.32881 0.76036 0.0
C2452 C 0.02372 0.32658 0.96389 0.0
C2453 C 0.01593 0.32251 0.94522 0.0
C2454 C 0.02566 0.34479 0.97433 0.0
C2455 C 0.02395 0.39449 0.96851 0.0
H2456 H 0.01558 0.39992 0.02051 0.0
C2457 C 0.00734 0.46157 0.0062 0.0
C2458 C 0.01986 0.47107 0.02142 0.0
C2459 C 0.00691 0.44272 0.99863 0.0
C2460 C 0.01798 0.3985 0.00601 0.0
H2461 H 1.00384 0.33398 0.92288 0.0
H2462 H 0.00642 0.36523 0.94115 0.0
H2463 H 0.01587 0.36841 1.00349 0.0
H2464 H 0.04081 0.46821 0.04156 0.0
H2465 H 0.0396 0.43485 0.02863 0.0
H2466 H 0.02527 0.42444 0.97088 0.0
C2467 C 0.01169 0.3548 0.94767 0.0
C2468 C 0.01831 0.38056 0.9963 0.0
C2469 C 0.01004 0.3368 0.9372 0.0
C2470 C 0.03104 0.46108 0.02981 0.0
C2471 C 0.03036 0.4421 0.02247 0.0
C2472 C 0.02326 0.41226 0.97808 0.0
C2473 C 0.01959 0.35909 0.96633 0.0
C2474 C 0.02097 0.3783 0.97731 0.0
C2475 C 0.01874 0.43307 0.00643 0.0
C2476 C 0.02 0.41431 0.99678 0.0
H2477 H 0.02846 0.31578 0.97032 0.0
H2478 H 0.032 0.34767 0.98859 0.0
H2479 H 0.0266 0.39342 0.9541 0.0
H2480 H 0.99872 0.46907 0.99937 0.0
H2481 H 0.9978 0.43588 0.98627 0.0
C2482 C 0.00782 0.79857 0.13948 0.0
C2483 C 0.02354 0.79706 0.14945 0.0
C2484 C 0.99168 0.79343 0.14646 0.0
C2485 C 0.96941 0.76547 0.17993 0.0
H2486 H 0.93785 0.79992 0.17869 0.0
C2487 C 0.91241 0.7647 0.22579 0.0
C2488 C 0.89715 0.77002 0.21881 0.0
C2489 C 0.92669 0.76514 0.21541 0.0
C2490 C 0.9463 0.7899 0.17886 0.0
H2491 H 0.03458 0.78852 0.17433 0.0
H2492 H 0.00644 0.77956 0.18653 0.0
H2493 H 0.96492 0.80642 0.16436 0.0
H2494 H 0.88444 0.77839 0.1947 0.0
H2495 H 0.90927 0.77916 0.17665 0.0
H2496 H 0.95082 0.74908 0.19467 0.0
C2497 C 0.00656 0.7847 0.1733 0.0
C2498 C 0.96189 0.79368 0.17066 0.0
C2499 C 0.02272 0.79003 0.16642 0.0
C2500 C 0.89615 0.77467 0.20072 0.0
C2501 C 0.91041 0.77513 0.19036 0.0
C2502 C 0.95375 0.76164 0.1881 0.0
C2503 C 0.99085 0.78645 0.16348 0.0
C2504 C 0.97376 0.78166 0.17128 0.0
C2505 C 0.92607 0.77091 0.19778 0.0
C2506 C 0.94208 0.77394 0.18786 0.0
H2507 H 0.008 0.8038 0.1263 0.0
H2508 H 0.97982 0.79478 0.13844 0.0
H2509 H 0.97812 0.75575 0.1804 0.0
H2510 H 0.91373 0.76116 0.2397 0.0
H2511 H 0.93855 0.7619 0.22164 0.0
C2512 C 0.52238 0.31948 0.14062 0.0
C2513 C 0.51018 0.30335 0.13064 0.0
C2514 C 0.52904 0.33466 0.13167 0.0
C2515 C 0.51839 0.35677 0.09183 0.0
H2516 H 0.56877 0.37758 0.09525 0.0
C2517 C 0.5467 0.4023 0.04057 0.0
C2518 C 0.55657 0.42051 0.04865 0.0
C2519 C 0.54299 0.38821 0.05153 0.0
C2520 C 0.5547 0.37194 0.09439 0.0
H2521 H 0.49515 0.29028 0.10383 0.0
H2522 H 0.50651 0.31703 0.0882 0.0
H2523 H 0.55762 0.35256 0.11334 0.0
H2524 H 0.57117 0.43839 0.07388 0.0
H2525 H 0.56501 0.41325 0.09323 0.0
H2526 H 0.51541 0.37581 0.0727 0.0
C2527 C 0.51096 0.31791 0.10288 0.0
C2528 C 0.54834 0.35777 0.10469 0.0
C2529 C 0.50452 0.30264 0.11174 0.0
C2530 C 0.5636 0.42428 0.06753 0.0
C2531 C 0.56012 0.41002 0.07848 0.0
C2532 C 0.52472 0.37081 0.08154 0.0
C2533 C 0.52333 0.33396 0.11275 0.0
C2534 C 0.53015 0.34989 0.10318 0.0
C2535 C 0.54925 0.39216 0.07063 0.0
C2536 C 0.5429 0.37821 0.0825 0.0
H2537 H 0.52706 0.32018 0.1552 0.0
H2538 H 0.53851 0.34696 0.13952 0.0
H2539 H 0.5043 0.35115 0.09078 0.0
H2540 H 0.54101 0.39931 0.02605 0.0
H2541 H 0.53466 0.37443 0.04527 0.0
C2542 C 0.03624 0.33472 0.35652 0.0
C2543 C 0.03823 0.32081 0.36743 0.0
C2544 C 0.02045 0.33288 0.34541 0.0
C2545 C 0.97418 0.30643 0.33547 0.0
H2546 H 0.98027 0.318 0.28572 0.0
C2547 C 0.91491 0.29471 0.28191 0.0
C2548 C 0.91343 0.31204 0.27633 0.0
C2549 C 0.93112 0.29259 0.28956 0.0
C2550 C 0.97845 0.3146 0.29951 0.0
H2551 H 0.02548 0.29472 0.37638 0.0
H2552 H 0.99787 0.29099 0.35624 0.0
H2553 H 0.00604 0.32223 0.30857 0.0
H2554 H 0.92769 0.3398 0.27212 0.0
H2555 H 0.95613 0.33606 0.28539 0.0
H2556 H 0.94656 0.29898 0.32641 0.0
C2557 C 0.00832 0.3035 0.35654 0.0
C2558 C 0.99311 0.31722 0.31264 0.0
C2559 C 0.02405 0.30558 0.36799 0.0
C2560 C 0.9286 0.3263 0.2763 0.0
C2561 C 0.94483 0.32416 0.28391 0.0
C2562 C 0.95953 0.30368 0.32228 0.0
C2563 C 0.00664 0.31685 0.34473 0.0
C2564 C 0.99107 0.31348 0.33082 0.0
C2565 C 0.94596 0.30774 0.29156 0.0
C2566 C 0.96158 0.30797 0.3043 0.0
H2567 H 0.04704 0.34676 0.35625 0.0
H2568 H 0.01927 0.34369 0.33688 0.0
H2569 H 0.97225 0.30359 0.34942 0.0
H2570 H 0.90331 0.28344 0.28173 0.0
H2571 H 0.93183 0.2797 0.29514 0.0
C2572 C 0.98148 0.69196 0.622 0.0
C2573 C 0.99578 0.70754 0.62791 0.0
C2574 C 0.98413 0.67538 0.61148 0.0
C2575 C 0.01508 0.66386 0.5797 0.0
H2576 H 0.99041 0.61119 0.57751 0.0
C2577 C 0.03195 0.60353 0.5319 0.0
C2578 C 0.01783 0.59323 0.51871 0.0
C2579 C 0.02889 0.6153 0.54742 0.0
C2580 C 0.99732 0.62589 0.57811 0.0
H2581 H 0.02406 0.71779 0.62995 0.0
H2582 H 0.02886 0.68866 0.61246 0.0
H2583 H 0.9861 0.63592 0.60238 0.0
H2584 H 0.98946 0.58592 0.5116 0.0
H2585 H 0.98405 0.60684 0.53905 0.0
H2586 H 0.02635 0.654 0.55566 0.0
C2587 C 0.01555 0.68937 0.61496 0.0
C2588 C 0.99486 0.63994 0.5922 0.0
C2589 C 0.01284 0.70598 0.6249 0.0
C2590 C 1.00052 0.59422 0.52146 0.0
C2591 C 0.99742 0.60582 0.5372 0.0
C2592 C 0.01767 0.64989 0.5659 0.0
C2593 C 1.00114 0.67434 0.60729 0.0
C2594 C 1.00381 0.65902 0.59309 0.0
C2595 C 0.01164 0.61662 0.55004 0.0
C2596 C 0.00884 0.63089 0.56503 0.0
H2597 H 0.96827 0.69301 0.62458 0.0
H2598 H 0.97282 0.66393 0.60574 0.0
H2599 H 0.02169 0.67853 0.57963 0.0
H2600 H 0.04537 0.60263 0.53009 0.0
H2601 H 0.03998 0.62359 0.55726 0.0
C2602 C 0.64245 0.82913 0.86027 0.0
C2603 C 0.62867 0.81466 0.86339 0.0
C2604 C 0.65388 0.82491 0.84745 0.0
C2605 C 0.65695 0.78719 0.80822 0.0
H2606 H 0.706 0.81414 0.81536 0.0
C2607 C 0.71497 0.76429 0.77383 0.0
C2608 C 0.72659 0.779 0.76763 0.0
C2609 C 0.70061 0.76818 0.78244 0.0
C2610 C 0.69226 0.80667 0.81316 0.0
H2611 H 0.6162 0.78455 0.85676 0.0
H2612 H 0.63685 0.77681 0.83555 0.0
H2613 H 0.68687 0.82203 0.83834 0.0
H2614 H 0.7312 0.80849 0.76337 0.0
H2615 H 0.7063 0.8153 0.77867 0.0
H2616 H 0.66289 0.77109 0.78349 0.0
C2617 C 0.63847 0.79155 0.84203 0.0
C2618 C 0.68128 0.81122 0.82625 0.0
C2619 C 0.6268 0.79588 0.85436 0.0
C2620 C 0.72265 0.79703 0.76839 0.0
C2621 C 0.70843 0.80093 0.77707 0.0
C2622 C 0.66807 0.78235 0.79535 0.0
C2623 C 0.65187 0.80608 0.83804 0.0
C2624 C 0.66349 0.80151 0.82395 0.0
C2625 C 0.69784 0.78678 0.78487 0.0
C2626 C 0.68574 0.79213 0.79775 0.0
H2627 H 0.64383 0.84375 0.86701 0.0
H2628 H 0.6639 0.83651 0.84453 0.0
H2629 H 0.64322 0.77972 0.80575 0.0
H2630 H 0.71771 0.75024 0.77341 0.0
H2631 H 0.69253 0.75712 0.78845 0.0
C2632 C 0.46895 0.5713 0.71392 0.0
C2633 C 0.45111 0.5616 0.71328 0.0
C2634 C 0.47815 0.57073 0.69777 0.0
C2635 C 0.47497 0.54474 0.64644 0.0
H2636 H 0.5152 0.58526 0.64411 0.0
C2637 C 0.51169 0.54699 0.57704 0.0
C2638 C 0.52947 0.55711 0.57838 0.0
C2639 C 0.50192 0.54736 0.5929 0.0
C2640 C 0.50418 0.57348 0.64425 0.0
H2641 H 0.42945 0.5435 0.69402 0.0
H2642 H 0.44502 0.54258 0.66638 0.0
H2643 H 0.49979 0.58612 0.67156 0.0
H2644 H 0.55035 0.57547 0.59855 0.0
H2645 H 0.53405 0.57595 0.62521 0.0
H2646 H 0.47941 0.53213 0.61907 0.0
C2647 C 0.45225 0.55062 0.67941 0.0
C2648 C 0.49509 0.57402 0.66044 0.0
C2649 C 0.44307 0.55126 0.69553 0.0
C2650 C 0.53676 0.56752 0.59637 0.0
C2651 C 0.52713 0.5679 0.61204 0.0
C2652 C 0.48409 0.54419 0.63023 0.0
C2653 C 0.47013 0.56034 0.6799 0.0
C2654 C 0.48014 0.55967 0.66216 0.0
C2655 C 0.50935 0.55789 0.61098 0.0
C2656 C 0.49906 0.55852 0.62854 0.0
H2657 H 0.47596 0.57943 0.72705 0.0
H2658 H 0.4918 0.57835 0.69953 0.0
H2659 H 0.4639 0.53303 0.64663 0.0
H2660 H 0.50529 0.53863 0.56376 0.0
H2661 H 0.48837 0.53941 0.5908 0.0
C2662 C 0.75964 0.18281 0.98869 0.0
C2663 C 0.77282 0.17373 0.98303 0.0
C2664 C 0.74977 0.1898 0.97587 0.0
C2665 C 0.74059 0.1902 0.92494 0.0
H2666 H 0.72405 0.23491 0.94437 0.0
C2667 C 0.71591 0.2328 0.87403 0.0
C2668 C 0.72303 0.25246 0.87924 0.0
C2669 C 0.71524 0.22096 0.8875 0.0
C2670 C 0.7287 0.22256 0.93859 0.0
H2671 H 0.78606 0.16417 0.95993 0.0
H2672 H 0.77006 0.1784 0.93748 0.0
H2673 H 0.73973 0.22013 0.96541 0.0
H2674 H 0.73338 0.27548 0.90255 0.0
H2675 H 0.73318 0.25526 0.92555 0.0
H2676 H 0.73193 0.19449 0.89778 0.0
C2677 C 0.76671 0.1794 0.95163 0.0
C2678 C 0.73741 0.21371 0.9508 0.0
C2679 C 0.77612 0.17157 0.96443 0.0
C2680 C 0.72762 0.26037 0.89818 0.0
C2681 C 0.72746 0.24859 0.91149 0.0
C2682 C 0.73271 0.19971 0.91258 0.0
C2683 C 0.7534 0.18862 0.95727 0.0
C2684 C 0.7436 0.1975 0.94415 0.0
C2685 C 0.72222 0.22864 0.90616 0.0
C2686 C 0.72703 0.21629 0.91924 0.0
H2687 H 0.75652 0.18389 1.00296 0.0
H2688 H 0.73917 0.19593 0.98066 0.0
H2689 H 0.7447 0.17744 0.91932 0.0
H2690 H 0.71219 0.22649 0.85944 0.0
H2691 H 0.71049 0.20572 0.88302 0.0
C2692 C 0.12136 0.53055 0.20603 0.0
C2693 C 0.13886 0.54103 0.20888 0.0
C2694 C 0.1114 0.52845 0.18888 0.0
C2695 C 0.10639 0.55192 0.14986 0.0
H2696 H 0.0788 0.50223 0.12513 0.0
C2697 C 0.06355 0.54284 0.08083 0.0
C2698 C 0.04653 0.53136 0.07952 0.0
C2699 C 0.07606 0.54279 0.09542 0.0
C2700 C 0.08637 0.51616 0.132 0.0
H2701 H 0.15985 0.55768 0.19649 0.0
H2702 H 0.14213 0.55416 0.16627 0.0
H2703 H 0.0992 0.50455 0.15316 0.0
H2704 H 0.02891 0.51095 0.09207 0.0
H2705 H 0.05076 0.51144 0.11838 0.0
H2706 H 0.09314 0.56369 0.12926 0.0
C2707 C 0.13631 0.54748 0.17731 0.0
C2708 C 0.09803 0.51746 0.14784 0.0
C2709 C 0.14636 0.54943 0.19445 0.0
C2710 C 0.04204 0.51984 0.09293 0.0
C2711 C 0.05453 0.52001 0.10778 0.0
C2712 C 0.09463 0.55065 0.13412 0.0
C2713 C 0.11883 0.53693 0.17451 0.0
C2714 C 0.10793 0.53536 0.1569 0.0
C2715 C 0.07156 0.53162 0.10913 0.0
C2716 C 0.08445 0.53277 0.12522 0.0
H2717 H 0.11534 0.52399 0.21703 0.0
H2718 H 0.0978 0.52052 0.18696 0.0
H2719 H 0.11377 0.56586 0.15694 0.0
H2720 H 0.06726 0.5519 0.07059 0.0
H2721 H 0.0892 0.55162 0.09607 0.0
C2722 C 0.80799 0.87411 0.47148 0.0
C2723 C 0.79948 0.86434 0.48458 0.0
C2724 C 0.80756 0.86496 0.45325 0.0
C2725 C 0.79853 0.81693 0.42378 0.0
H2726 H 0.79968 0.84725 0.38405 0.0
C2727 C 0.78847 0.7898 0.3431 0.0
C2728 C 0.80193 0.79863 0.33359 0.0
C2729 C 0.7885 0.79583 0.36217 0.0
C2730 C 0.79946 0.83868 0.39507 0.0
H2731 H 0.78356 0.83741 0.48887 0.0
H2732 H 0.78221 0.82147 0.45662 0.0
H2733 H 0.79719 0.86175 0.41564 0.0
H2734 H 0.82628 0.82012 0.33644 0.0
H2735 H 0.82602 0.83118 0.36984 0.0
H2736 H 0.80002 0.79363 0.40262 0.0
C2737 C 0.78965 0.83609 0.4606 0.0
C2738 C 0.79812 0.84696 0.41319 0.0
C2739 C 0.79033 0.84522 0.47904 0.0
C2740 C 0.81584 0.81304 0.34354 0.0
C2741 C 0.81564 0.81939 0.36254 0.0
C2742 C 0.79948 0.80853 0.40548 0.0
C2743 C 0.79831 0.84587 0.44747 0.0
C2744 C 0.79807 0.83636 0.4279 0.0
C2745 C 0.80179 0.81107 0.37186 0.0
C2746 C 0.80033 0.81949 0.39112 0.0
H2747 H 0.81525 0.88882 0.47539 0.0
H2748 H 0.81479 0.87286 0.44378 0.0
H2749 H 0.79865 0.80833 0.43472 0.0
H2750 H 0.77764 0.77859 0.33565 0.0
H2751 H 0.77769 0.78928 0.36913 0.0
C2752 C 0.46766 0.54917 0.81558 0.0
C2753 C 0.45361 0.55862 0.8154 0.0
C2754 C 0.47646 0.54636 0.83255 0.0
C2755 C 0.48223 0.56249 0.88579 0.0
H2756 H 0.50307 0.51883 0.88686 0.0
C2757 C 0.52212 0.5533 0.95514 0.0
C2758 C 0.52316 0.53499 0.95889 0.0
C2759 C 0.51442 0.55605 0.93768 0.0
C2760 C 0.49726 0.53109 0.88711 0.0
H2761 H 0.43818 0.57251 0.83378 0.0
H2762 H 0.4532 0.56774 0.86292 0.0
H2763 H 0.48847 0.52366 0.85757 0.0
H2764 H 0.51666 0.50516 0.94615 0.0
H2765 H 0.50307 0.50978 0.91608 0.0
H2766 H 0.49051 0.56968 0.91531 0.0
C2767 C 0.45774 0.56256 0.84998 0.0
C2768 C 0.48895 0.53406 0.86995 0.0
C2769 C 0.44891 0.56526 0.83303 0.0
C2770 C 0.51625 0.51953 0.94413 0.0
C2771 C 0.50844 0.52227 0.92661 0.0
C2772 C 0.49051 0.55953 0.9029 0.0
C2773 C 0.47174 0.55295 0.85028 0.0
C2774 C 0.48111 0.54982 0.86879 0.0
C2775 C 0.50717 0.54062 0.92291 0.0
C2776 C 0.49827 0.54374 0.90413 0.0
H2777 H 0.47181 0.54371 0.80249 0.0
H2778 H 0.48717 0.53911 0.83167 0.0
H2779 H 0.47681 0.57501 0.886 0.0
H2780 H 0.52732 0.56574 0.9658 0.0
H2781 H 0.51437 0.57053 0.93582 0.0
C2782 C 0.77974 0.17152 0.09373 0.0
C2783 C 0.7846 0.17979 0.07818 0.0
C2784 C 0.77819 0.18311 0.1102 0.0
C2785 C 0.77309 0.2311 0.129 0.0
H2786 H 0.79843 0.22309 0.17422 0.0
C2787 C 0.79337 0.2866 0.19708 0.0
C2788 C 0.7918 0.27916 0.21372 0.0
C2789 C 0.7899 0.27423 0.17997 0.0
C2790 C 0.79108 0.22533 0.16175 0.0
H2791 H 0.79117 0.20638 0.0673 0.0
H2792 H 0.78869 0.2265 0.09607 0.0
H2793 H 0.79651 0.20091 0.14537 0.0
H2794 H 0.78489 0.25327 0.22568 0.0
H2795 H 0.77817 0.23197 0.19599 0.0
H2796 H 0.76798 0.25581 0.14545 0.0
C2797 C 0.78595 0.21117 0.09554 0.0
C2798 C 0.78994 0.21261 0.1453 0.0
C2799 C 0.78761 0.19966 0.07918 0.0
C2800 C 0.78597 0.25942 0.21305 0.0
C2801 C 0.78234 0.24718 0.19608 0.0
C2802 C 0.77421 0.24385 0.14551 0.0
C2803 C 0.78135 0.20301 0.11119 0.0
C2804 C 0.78105 0.21548 0.1288 0.0
C2805 C 0.78478 0.25441 0.17947 0.0
C2806 C 0.78325 0.24104 0.16197 0.0
H2807 H 0.77713 0.15619 0.09315 0.0
H2808 H 0.77452 0.17655 0.12216 0.0
H2809 H 0.7661 0.23349 0.11637 0.0
H2810 H 0.79798 0.30179 0.19735 0.0
H2811 H 0.79197 0.28007 0.16727 0.0
C2812 C 0.16049 0.56617 0.32476 0.0
C2813 C 0.15042 0.55106 0.31136 0.0
C2814 C 0.15264 0.57429 0.33928 0.0
C2815 C 0.11278 0.5675 0.36294 0.0
H2816 H 0.11919 0.62251 0.36658 0.0
C2817 C 0.0624 0.59897 0.39082 0.0
C2818 C 0.0679 0.60107 0.41002 0.0
C2819 C 0.07491 0.60138 0.37845 0.0
C2820 C 0.11742 0.6072 0.3656 0.0
H2821 H 0.12508 0.53127 0.30332 0.0
H2822 H 0.11137 0.54525 0.32875 0.0
H2823 H 0.13747 0.60569 0.34765 0.0
H2824 H 0.09008 0.61146 0.43172 0.0
H2825 H 0.11199 0.61512 0.40992 0.0
H2826 H 0.09235 0.56888 0.38025 0.0
C2827 C 0.12522 0.55094 0.32812 0.0
C2828 C 0.12791 0.59762 0.35507 0.0
C2829 C 0.13302 0.54292 0.31357 0.0
C2830 C 0.08563 0.60936 0.4169 0.0
C2831 C 0.09815 0.61168 0.40448 0.0
C2832 C 0.10227 0.577 0.37323 0.0
C2833 C 0.13476 0.56719 0.34056 0.0
C2834 C 0.12546 0.57766 0.35351 0.0
C2835 C 0.09284 0.60588 0.3853 0.0
C2836 C 0.1044 0.59679 0.37437 0.0
H2837 H 0.17395 0.57273 0.32318 0.0
H2838 H 0.16027 0.58665 0.34892 0.0
H2839 H 0.11078 0.55217 0.36208 0.0
H2840 H 0.04881 0.59268 0.38512 0.0
H2841 H 0.07069 0.59676 0.36362 0.0
C2842 C 0.79474 0.84504 0.58254 0.0
C2843 C 0.7963 0.86491 0.58494 0.0
C2844 C 0.79204 0.83511 0.59755 0.0
C2845 C 0.77779 0.83902 0.64538 0.0
H2846 H 0.80159 0.79792 0.64961 0.0
C2847 C 0.77891 0.80279 0.71171 0.0
C2848 C 0.77821 0.78311 0.70916 0.0
C2849 C 0.78069 0.81283 0.69661 0.0
C2850 C 0.79462 0.80917 0.64859 0.0
H2851 H 0.79604 0.88984 0.6051 0.0
H2852 H 0.79158 0.87261 0.63135 0.0
H2853 H 0.8052 0.81497 0.62339 0.0
H2854 H 0.77866 0.75849 0.68873 0.0
H2855 H 0.78169 0.77577 0.66251 0.0
H2856 H 0.76721 0.83316 0.67063 0.0
C2857 C 0.79224 0.86461 0.61779 0.0
C2858 C 0.7967 0.81901 0.63345 0.0
C2859 C 0.79495 0.87456 0.60275 0.0
C2860 C 0.77926 0.77368 0.69119 0.0
C2861 C 0.78113 0.78367 0.67615 0.0
C2862 C 0.77568 0.82914 0.66053 0.0
C2863 C 0.79082 0.84473 0.61545 0.0
C2864 C 0.78836 0.83412 0.6316 0.0
C2865 C 0.78191 0.80343 0.67858 0.0
C2866 C 0.78409 0.81406 0.6624 0.0
H2867 H 0.79556 0.83711 0.56899 0.0
H2868 H 0.79072 0.81979 0.59503 0.0
H2869 H 0.7709 0.85034 0.64434 0.0
H2870 H 0.77778 0.81037 0.72528 0.0
H2871 H 0.78133 0.82802 0.69916 0.0
C2872 C 0.76668 0.46892 0.52989 0.0
C2873 C 0.76239 0.45229 0.51637 0.0
C2874 C 0.75341 0.47749 0.53598 0.0
C2875 C 0.71075 0.48377 0.52092 0.0
H2876 H 0.70168 0.48874 0.57275 0.0
C2877 C 0.64819 0.50311 0.53928 0.0
C2878 C 0.64966 0.51808 0.55431 0.0
C2879 C 0.6617 0.49369 0.53716 0.0
C2880 C 0.70421 0.48759 0.5583 0.0
H2881 H 0.74138 0.4317 0.49825 0.0
H2882 H 0.7182 0.44721 0.50833 0.0
H2883 H 0.72719 0.47653 0.56356 0.0
H2884 H 0.66587 0.5336 0.57987 0.0
H2885 H 0.69018 0.51791 0.57534 0.0
H2886 H 0.68827 0.49506 0.51545 0.0
C2887 C 0.73172 0.45339 0.51437 0.0
C2888 C 0.71872 0.48069 0.5531 0.0
C2889 C 0.74489 0.44463 0.50857 0.0
C2890 C 0.66454 0.52252 0.56784 0.0
C2891 C 0.67833 0.51334 0.56544 0.0
C2892 C 0.69648 0.49083 0.5261 0.0
C2893 C 0.73589 0.46967 0.52826 0.0
C2894 C 0.7218 0.47849 0.53432 0.0
C2895 C 0.67726 0.49943 0.54962 0.0
C2896 C 0.69284 0.49242 0.54473 0.0
H2897 H 0.78013 0.47481 0.53629 0.0
H2898 H 0.75676 0.49013 0.54666 0.0
H2899 H 0.71313 0.48233 0.50641 0.0
H2900 H 0.63712 0.49931 0.52839 0.0
H2901 H 0.66035 0.4826 0.52511 0.0
C2902 C 0.22514 0.13298 0.4932 0.0
C2903 C 0.22998 0.15164 0.5034 0.0
C2904 C 0.20831 0.12148 0.49333 0.0
C2905 C 0.17049 0.11484 0.52073 0.0
H2906 H 0.14428 0.08635 0.47406 0.0
C2907 C 0.09808 0.07174 0.51734 0.0
C2908 C 0.09216 0.05518 0.50383 0.0
C2909 C 0.11468 0.08388 0.51738 0.0
C2910 C 0.15143 0.09386 0.48734 0.0
H2911 H 0.22096 0.17274 0.52192 0.0
H2912 H 0.19174 0.15262 0.52233 0.0
H2913 H 0.17353 0.1061 0.47411 0.0
H2914 H 0.09926 0.03815 0.48002 0.0
H2915 H 0.12826 0.05852 0.48056 0.0
H2916 H 0.14873 0.10226 0.53412 0.0
C2917 C 0.20093 0.14687 0.5142 0.0
C2918 C 0.16827 0.10533 0.48731 0.0
C2919 C 0.21765 0.15845 0.51387 0.0
C2920 C 0.10329 0.05093 0.4905 0.0
C2921 C 0.11998 0.06279 0.49075 0.0
C2922 C 0.15374 0.10312 0.52083 0.0
C2923 C 0.19599 0.12825 0.50387 0.0
C2924 C 0.17804 0.11599 0.50399 0.0
C2925 C 0.12598 0.07958 0.50411 0.0
C2926 C 0.14388 0.09238 0.50411 0.0
H2927 H 0.23432 0.12728 0.48502 0.0
H2928 H 0.20503 0.10716 0.48535 0.0
H2929 H 0.17771 0.12271 0.53388 0.0
H2930 H 0.08981 0.07542 0.52781 0.0
H2931 H 0.1185 0.09673 0.52774 0.0
C2932 C 0.1814 0.94826 0.77593 0.0
C2933 C 0.18921 0.96692 0.77299 0.0
C2934 C 0.19061 0.93309 0.77467 0.0
C2935 C 0.23308 0.91882 0.75855 0.0
H2936 H 0.21902 0.87616 0.78433 0.0
C2937 C 0.27625 0.85998 0.76195 0.0
C2938 C 0.26862 0.84104 0.76424 0.0
C2939 C 0.26653 0.87465 0.76249 0.0
C2940 C 0.22326 0.88772 0.77675 0.0
H2941 H 0.21358 0.98321 0.76607 0.0
H2942 H 0.2293 0.95742 0.76377 0.0
H2943 H 0.20304 0.90161 0.7862 0.0
H2944 H 0.24385 0.82363 0.76902 0.0
H2945 H 0.22722 0.84876 0.77021 0.0
H2946 H 0.25334 0.90495 0.74918 0.0
C2947 C 0.2159 0.95417 0.76707 0.0
C2948 C 0.21385 0.9027 0.77784 0.0
C2949 C 0.20676 0.96936 0.76853 0.0
C2950 C 0.25059 0.83774 0.76713 0.0
C2951 C 0.24091 0.85249 0.76795 0.0
C2952 C 0.24251 0.90388 0.75752 0.0
C2953 C 0.20823 0.93546 0.77017 0.0
C2954 C 0.21842 0.91888 0.76882 0.0
C2955 C 0.24852 0.87152 0.76565 0.0
C2956 C 0.238 0.88778 0.76662 0.0
H2957 H 0.16803 0.94531 0.7794 0.0
H2958 H 0.18361 0.91931 0.77706 0.0
H2959 H 0.23732 0.93032 0.75091 0.0
H2960 H 0.28996 0.86361 0.75968 0.0
H2961 H 0.27345 0.88872 0.76076 0.0
C2962 C 0.36213 0.93716 0.02559 0.0
C2963 C 0.34868 0.94665 0.02943 0.0
C2964 C 0.37961 0.94735 0.02861 0.0
C2965 C 0.39895 0.99389 0.02203 0.0
H2966 H 0.44386 0.9807 0.03275 0.0
C2967 C 0.46415 0.03901 0.00878 0.0
C2968 C 0.47405 0.0289 0.99782 0.0
C2969 C 0.44967 0.0292 0.01579 0.0
C2970 C 0.43132 0.98441 0.02978 0.0
H2971 H 0.34267 0.97309 0.04198 0.0
H2972 H 0.37325 0.99084 0.0475 0.0
H2973 H 0.41736 0.96272 0.04355 0.0
H2974 H 0.4769 1.00097 0.98525 0.0
H2975 H 0.45108 0.98364 0.99733 0.0
H2976 H 0.41254 0.01499 0.00773 0.0
C2977 C 0.37032 0.97574 0.04178 0.0
C2978 C 0.41634 0.97432 0.03601 0.0
C2979 C 0.35289 0.96568 0.03846 0.0
C2980 C 0.46902 0.00896 0.99325 0.0
C2981 C 0.45464 0.9991 1.0005 0.0
C2982 C 0.41379 1.00389 0.01588 0.0
C2983 C 0.38361 0.96698 0.03565 0.0
C2984 C 0.40005 0.97896 0.03201 0.0
C2985 C 0.44514 0.00921 0.01203 0.0
C2986 C 0.42995 0.99906 0.01951 0.0
H2987 H 0.35909 0.92235 0.01888 0.0
H2988 H 0.38968 0.94034 0.02374 0.0
H2989 H 0.38643 0.9973 0.0182 0.0
H2990 H 0.46819 0.0544 0.01273 0.0
H2991 H 0.44236 0.03714 0.02465 0.0
C2992 C 0.90483 0.5859 0.76974 0.0
C2993 C 0.89877 0.57341 0.78194 0.0
C2994 C 0.89385 0.59657 0.76255 0.0
C2995 C 0.85569 0.61571 0.77219 0.0
H2996 H 0.84958 0.61694 0.71893 0.0
C2997 C 0.80092 0.64457 0.74035 0.0
C2998 C 0.8072 0.66105 0.73281 0.0
C2999 C 0.81184 0.63229 0.74341 0.0
C3000 C 0.85129 0.61668 0.7338 0.0
H3001 H 0.87687 0.56224 0.7965 0.0
H3002 H 0.85776 0.58123 0.78423 0.0
H3003 H 0.87009 0.59919 0.7314 0.0
H3004 H 0.82911 0.67699 0.72117 0.0
H3005 H 0.8483 0.65509 0.72633 0.0
H3006 H 0.83681 0.63294 0.77461 0.0
C3007 C 0.87093 0.58276 0.78021 0.0
C3008 C 0.86299 0.6067 0.74092 0.0
C3009 C 0.88181 0.57195 0.78721 0.0
C3010 C 0.82405 0.66429 0.72696 0.0
C3011 C 0.83494 0.65183 0.72984 0.0
C3012 C 0.84397 0.62552 0.76508 0.0
C3013 C 0.87684 0.595 0.76772 0.0
C3014 C 0.86513 0.60607 0.76015 0.0
C3015 C 0.82909 0.63627 0.7388 0.0
C3016 C 0.84158 0.62588 0.74586 0.0
H3017 H 0.9178 0.58695 0.76528 0.0
H3018 H 0.89865 0.60603 0.75299 0.0
H3019 H 0.85741 0.61567 0.7871 0.0
H3020 H 0.78808 0.64196 0.74524 0.0
H3021 H 0.80719 0.6203 0.75036 0.0
C3022 C 0.82211 0.64722 0.0213 0.0
C3023 C 0.82408 0.66383 0.01319 0.0
C3024 C 0.83677 0.64021 0.02662 0.0
C3025 C 0.8819 0.64067 0.01623 0.0
H3026 H 0.88605 0.61963 0.06197 0.0
C3027 C 0.9409 0.60876 0.0351 0.0
C3028 C 0.9369 0.59106 0.04126 0.0
C3029 C 0.92839 0.61986 0.0343 0.0
C3030 C 0.88504 0.62536 0.04909 0.0
H3031 H 0.843 0.68627 0.00449 0.0
H3032 H 0.86866 0.67384 0.0135 0.0
H3033 H 0.86161 0.63465 0.05517 0.0
H3034 H 0.91682 0.57157 0.05216 0.0
H3035 H 0.89503 0.59086 0.0507 0.0
H3036 H 0.90495 0.63096 0.00982 0.0
C3037 C 0.85573 0.66622 0.01571 0.0
C3038 C 0.87104 0.63396 0.0452 0.0
C3039 C 0.84105 0.67335 0.01057 0.0
C3040 C 0.92041 0.58519 0.04748 0.0
C3041 C 0.90789 0.59629 0.04666 0.0
C3042 C 0.89583 0.63202 0.02007 0.0
C3043 C 0.85375 0.64955 0.02379 0.0
C3044 C 0.86921 0.64152 0.02861 0.0
C3045 C 0.91156 0.61353 0.0396 0.0
C3046 C 0.89749 0.62407 0.03644 0.0
H3047 H 0.80921 0.63967 0.02369 0.0
H3048 H 0.83476 0.62724 0.03263 0.0
H3049 H 0.88075 0.6461 1.00321 0.0
H3050 H 0.95362 0.61391 0.03062 0.0
H3051 H 0.93181 0.63329 0.02921 0.0
C3052 C 0.20898 0.08129 0.79124 0.0
C3053 C 0.19186 0.07398 0.7816 0.0
C3054 C 0.21842 0.1003 0.79111 0.0
C3055 C 0.21976 0.14282 0.7653 0.0
H3056 H 0.25128 0.17066 0.80895 0.0
C3057 C 0.25759 0.22402 0.76851 0.0
C3058 C 0.27348 0.23146 0.78061 0.0
C3059 C 0.24722 0.20528 0.76848 0.0
C3060 C 0.24287 0.16326 0.79634 0.0
H3061 H 0.17163 0.08172 0.76405 0.0
H3062 H 0.18786 0.11433 0.76367 0.0
H3063 H 0.23514 0.13829 0.80902 0.0
H3064 H 0.29051 0.22413 0.80208 0.0
H3065 H 0.27334 0.19222 0.80168 0.0
H3066 H 0.22764 0.16769 0.75249 0.0
C3067 C 0.19419 0.10545 0.77141 0.0
C3068 C 0.23338 0.14432 0.79644 0.0
C3069 C 0.18469 0.08655 0.77173 0.0
C3070 C 0.27842 0.21931 0.79257 0.0
C3071 C 0.26825 0.20069 0.79244 0.0
C3072 C 0.22941 0.16174 0.76511 0.0
C3073 C 0.21131 0.11291 0.78114 0.0
C3074 C 0.22157 0.13352 0.78093 0.0
C3075 C 0.25228 0.19301 0.78046 0.0
C3076 C 0.24135 0.17255 0.78061 0.0
H3077 H 0.21515 0.0723 0.79899 0.0
H3078 H 0.23153 0.10499 0.79867 0.0
H3079 H 0.21109 0.13531 0.75286 0.0
H3080 H 0.25312 0.23267 0.75902 0.0
H3081 H 0.23509 0.20055 0.75907 0.0
C3082 C 0.40206 0.95873 0.27123 0.0
C3083 C 0.40896 0.96949 0.28883 0.0
C3084 C 0.38841 0.94269 0.26993 0.0
C3085 C 0.35271 0.93886 0.2962 0.0
H3086 H 0.33168 0.89114 0.26335 0.0
C3087 C 0.30144 0.87985 0.30783 0.0
C3088 C 0.29383 0.86642 0.29194 0.0
C3089 C 0.30956 0.8982 0.30566 0.0
C3090 C 0.33727 0.90485 0.27213 0.0
H3091 H 0.41023 0.97057 0.31872 0.0
H3092 H 0.3868 0.94203 0.3165 0.0
H3093 H 0.36299 0.90498 0.26416 0.0
H3094 H 0.28418 0.86242 0.2624 0.0
H3095 H 0.29907 0.89424 0.25859 0.0
H3096 H 0.32719 0.93842 0.30469 0.0
C3097 C 0.39146 0.94609 0.30376 0.0
C3098 C 0.35522 0.91243 0.27287 0.0
C3099 C 0.40488 0.96228 0.30506 0.0
C3100 C 0.2909 0.87243 0.2747 0.0
C3101 C 0.29906 0.89073 0.27254 0.0
C3102 C 0.3348 0.93131 0.29546 0.0
C3103 C 0.38189 0.93771 0.28628 0.0
C3104 C 0.36312 0.9291 0.28543 0.0
C3105 C 0.3103 0.90268 0.28757 0.0
C3106 C 0.32707 0.91395 0.28388 0.0
H3107 H 0.40519 0.96431 0.25861 0.0
H3108 H 0.3813 0.93621 0.2563 0.0
H3109 H 0.35849 0.95226 0.30541 0.0
H3110 H 0.30317 0.87565 0.32142 0.0
H3111 H 0.31779 0.90747 0.3176 0.0
C3112 C 0.57727 0.37493 0.61133 0.0
C3113 C 0.56978 0.35628 0.60188 0.0
C3114 C 0.57528 0.39083 0.60321 0.0
C3115 C 0.54683 0.40696 0.56887 0.0
H3116 H 0.5877 0.44802 0.56995 0.0
C3117 C 0.54151 0.47358 0.53462 0.0
C3118 C 0.55344 0.49105 0.54178 0.0
C3119 C 0.54345 0.45668 0.54096 0.0
C3120 C 0.57596 0.43701 0.56981 0.0
H3121 H 0.55411 0.3398 0.57649 0.0
H3122 H 0.55042 0.3676 0.56243 0.0
H3123 H 0.59088 0.42008 0.58325 0.0
H3124 H 0.57662 0.50437 0.56159 0.0
H3125 H 0.57948 0.47563 0.57324 0.0
H3126 H 0.53166 0.42407 0.55625 0.0
C3127 C 0.55792 0.36988 0.57611 0.0
C3128 C 0.57789 0.4208 0.57736 0.0
C3129 C 0.56015 0.35395 0.58412 0.0
C3130 C 0.56725 0.49119 0.55555 0.0
C3131 C 0.56899 0.47446 0.56215 0.0
C3132 C 0.54479 0.4234 0.56169 0.0
C3133 C 0.56552 0.38853 0.58553 0.0
C3134 C 0.56337 0.40558 0.57705 0.0
C3135 C 0.55722 0.4568 0.55493 0.0
C3136 C 0.55932 0.43883 0.56211 0.0
H3137 H 0.58467 0.37726 0.62507 0.0
H3138 H 0.58116 0.40498 0.61093 0.0
H3139 H 0.53533 0.39554 0.56852 0.0
H3140 H 0.53071 0.4729 0.52398 0.0
H3141 H 0.53421 0.44353 0.53467 0.0
C3142 C 0.46013 0.78561 0.3712 0.0
C3143 C 0.45989 0.77285 0.38403 0.0
C3144 C 0.44452 0.79005 0.36388 0.0
C3145 C 0.39501 0.77349 0.35729 0.0
H3146 H 0.39726 0.82476 0.34715 0.0
C3147 C 0.33215 0.79771 0.32799 0.0
C3148 C 0.33458 0.8088 0.31369 0.0
C3149 C 0.3468 0.79394 0.33844 0.0
C3150 C 0.39631 0.81029 0.34972 0.0
H3151 H 0.44265 0.75474 0.39913 0.0
H3152 H 0.41545 0.76234 0.38635 0.0
H3153 H 0.42354 0.81664 0.36097 0.0
H3154 H 0.35433 0.82488 0.29958 0.0
H3155 H 0.37952 0.81895 0.31785 0.0
H3156 H 0.3677 0.76721 0.34591 0.0
C3157 C 0.42774 0.76886 0.38176 0.0
C3158 C 0.41153 0.80558 0.35766 0.0
C3159 C 0.44342 0.7645 0.38917 0.0
C3160 C 0.35195 0.81654 0.31066 0.0
C3161 C 0.36648 0.81309 0.32121 0.0
C3162 C 0.37973 0.77823 0.34935 0.0
C3163 C 0.428 0.78186 0.36908 0.0
C3164 C 0.4113 0.78701 0.36135 0.0
C3165 C 0.36426 0.80142 0.33507 0.0
C3166 C 0.38015 0.79666 0.34515 0.0
H3167 H 0.4725 0.79245 0.36695 0.0
H3168 H 0.44547 0.79987 0.35398 0.0
H3169 H 0.39413 0.759 0.35972 0.0
H3170 H 0.31896 0.79115 0.33044 0.0
H3171 H 0.34442 0.78497 0.34901 0.0
C3172 C 0.05732 0.73657 0.10877 0.0
C3173 C 0.06248 0.75135 0.09855 0.0
C3174 C 0.05428 0.71749 0.10035 0.0
C3175 C 0.06417 0.68605 0.05986 0.0
H3176 H 0.02808 0.64852 0.07594 0.0
C3177 C 0.04708 0.60487 0.02859 0.0
C3178 C 0.04478 0.59256 0.04174 0.0
C3179 C 0.04898 0.62454 0.03419 0.0
C3180 C 0.03828 0.65882 0.07138 0.0
H3181 H 0.06822 0.75768 0.07129 0.0
H3182 H 0.06261 0.72416 0.05635 0.0
H3183 H 0.03109 0.68228 0.08758 0.0
H3184 H 0.0427 0.59064 0.07083 0.0
H3185 H 0.04598 0.62495 0.08071 0.0
H3186 H 0.07124 0.66237 0.04358 0.0
C3187 C 0.06121 0.72739 0.07104 0.0
C3188 C 0.04005 0.6782 0.07808 0.0
C3189 C 0.06435 0.7466 0.07956 0.0
C3190 C 0.04455 0.60001 0.06052 0.0
C3191 C 0.04627 0.61958 0.0661 0.0
C3192 C 0.0623 0.66661 0.05303 0.0
C3193 C 0.05617 0.71258 0.08137 0.0
C3194 C 0.05326 0.69208 0.07274 0.0
C3195 C 0.04833 0.63206 0.05298 0.0
C3196 C 0.04957 0.65277 0.05903 0.0
H3197 H 0.05579 0.7397 0.12345 0.0
H3198 H 0.05079 0.70658 0.1089 0.0
H3199 H 0.07459 0.69628 0.05555 0.0
H3200 H 0.04715 0.59925 0.014 0.0
H3201 H 0.05046 0.63379 0.02377 0.0
C3202 C 0.05901 0.26913 0.87107 0.0
C3203 C 0.05781 0.27643 0.88971 0.0
C3204 C 0.07535 0.27167 0.86407 0.0
C3205 C 0.12264 0.29961 0.87468 0.0
H3206 H 0.12929 0.26002 0.83616 0.0
C3207 C 0.1848 0.30813 0.83469 0.0
C3208 C 0.19061 0.29163 0.82794 0.0
C3209 C 0.16932 0.30683 0.84338 0.0
C3210 C 0.1279 0.27117 0.8471 0.0
H3211 H 0.07302 0.29225 0.91563 0.0
H3212 H 0.10146 0.29615 0.9037 0.0
H3213 H 0.10162 0.25649 0.84906 0.0
H3214 H 0.18451 0.26076 0.82562 0.0
H3215 H 0.15835 0.2586 0.84131 0.0
H3216 H 0.14934 0.31387 0.87319 0.0
C3217 C 0.08979 0.28881 0.89423 0.0
C3218 C 0.11172 0.2693 0.85432 0.0
C3219 C 0.07341 0.28642 0.90116 0.0
C3220 C 0.18073 0.27388 0.83072 0.0
C3221 C 0.16539 0.2726 0.8395 0.0
C3222 C 0.13896 0.30139 0.86758 0.0
C3223 C 0.09109 0.28141 0.87555 0.0
C3224 C 0.10869 0.28352 0.86813 0.0
C3225 C 0.15916 0.28898 0.84563 0.0
C3226 C 0.14187 0.2872 0.85362 0.0
H3227 H 0.04727 0.2615 0.86182 0.0
H3228 H 0.07555 0.2661 0.84951 0.0
H3229 H 0.12095 0.31105 0.88515 0.0
H3230 H 0.19213 0.32211 0.83312 0.0
H3231 H 0.16508 0.31984 0.8478 0.0
C3232 C 0.5756 0.75509 0.90199 0.0
C3233 C 0.5803 0.77233 0.91471 0.0
C3234 C 0.56962 0.73792 0.9082 0.0
C3235 C 0.54779 0.71881 0.94552 0.0
H3236 H 0.56783 0.67503 0.93191 0.0
C3237 C 0.54141 0.65788 0.9871 0.0
C3238 C 0.54087 0.6393 0.97813 0.0
C3239 C 0.54342 0.67292 0.97712 0.0
C3240 C 0.56179 0.68695 0.93549 0.0
H3241 H 0.58267 0.78531 0.94379 0.0
H3242 H 0.57209 0.75511 0.95473 0.0
H3243 H 0.57778 0.70406 0.91905 0.0
H3244 H 0.54109 0.62169 0.95147 0.0
H3245 H 0.54454 0.64815 0.93388 0.0
H3246 H 0.53177 0.70184 0.9619 0.0
C3247 C 0.57305 0.75497 0.93997 0.0
C3248 C 0.56759 0.70359 0.92824 0.0
C3249 C 0.57926 0.77215 0.93378 0.0
C3250 C 0.54167 0.63593 0.95877 0.0
C3251 C 0.54366 0.65105 0.94873 0.0
C3252 C 0.54182 0.70213 0.95257 0.0
C3253 C 0.56803 0.73779 0.92718 0.0
C3254 C 0.56097 0.71977 0.93362 0.0
C3255 C 0.5449 0.66975 0.95791 0.0
C3256 C 0.54913 0.68622 0.94807 0.0
H3257 H 0.57626 0.75491 0.88718 0.0
H3258 H 0.56577 0.72483 0.89811 0.0
H3259 H 0.54223 0.73102 0.94951 0.0
H3260 H 0.54121 0.66102 1.00206 0.0
H3261 H 0.5447 0.6872 0.98471 0.0
C3262 C 0.05193 0.78269 0.70153 0.0
C3263 C 0.045 0.7662 0.6882 0.0
C3264 C 0.0698 0.78736 0.70835 0.0
C3265 C 0.11171 0.77846 0.69509 0.0
H3266 H 0.12843 0.79213 0.74806 0.0
C3267 C 0.17557 0.76474 0.72529 0.0
C3268 C 0.18659 0.77853 0.7391 0.0
C3269 C 0.15902 0.76705 0.71918 0.0
C3270 C 0.12396 0.78877 0.73321 0.0
H3271 H 0.05082 0.74121 0.67213 0.0
H3272 H 0.08184 0.74911 0.68433 0.0
H3273 H 0.0972 0.7885 0.73744 0.0
H3274 H 0.18957 0.80543 0.75759 0.0
H3275 H 0.16016 0.80967 0.74667 0.0
H3276 H 0.13826 0.77797 0.69088 0.0
C3277 C 0.07366 0.75868 0.68918 0.0
C3278 C 0.10615 0.78664 0.72716 0.0
C3279 C 0.05591 0.75405 0.68236 0.0
C3280 C 0.18102 0.79469 0.74691 0.0
C3281 C 0.16437 0.79708 0.7407 0.0
C3282 C 0.12944 0.78059 0.70112 0.0
C3283 C 0.08083 0.77558 0.70188 0.0
C3284 C 0.09984 0.78075 0.70812 0.0
C3285 C 0.15333 0.78328 0.7267 0.0
C3286 C 0.13555 0.78503 0.72027 0.0
H3287 H 0.04375 0.79235 0.70609 0.0
H3288 H 0.07509 0.80047 0.71815 0.0
H3289 H 0.10719 0.77437 0.68028 0.0
H3290 H 0.17975 0.75212 0.71933 0.0
H3291 H 0.15055 0.75598 0.70873 0.0
C3292 C 0.09006 0.38302 0.43662 0.0
C3293 C 0.08751 0.37666 0.4173 0.0
C3294 C 0.08357 0.39857 0.44408 0.0
C3295 C 0.06416 0.43837 0.43189 0.0
H3296 H 0.04429 0.43302 0.47828 0.0
C3297 C 0.02812 0.49233 0.47049 0.0
C3298 C 0.03623 0.49894 0.48892 0.0
C3299 C 0.0323 0.47656 0.4599 0.0
C3300 C 0.04966 0.43458 0.46523 0.0
H3301 H 0.07673 0.38179 0.3905 0.0
H3302 H 0.06486 0.40837 0.40353 0.0
H3303 H 0.05726 0.408 0.46356 0.0
H3304 H 0.05466 0.49428 0.51088 0.0
H3305 H 0.06166 0.46693 0.49266 0.0
H3306 H 0.05645 0.46514 0.43383 0.0
C3307 C 0.07226 0.40182 0.41294 0.0
C3308 C 0.05732 0.42042 0.45693 0.0
C3309 C 0.07908 0.38657 0.40548 0.0
C3310 C 0.04817 0.48945 0.49672 0.0
C3311 C 0.05214 0.47374 0.48633 0.0
C3312 C 0.05632 0.45252 0.44017 0.0
C3313 C 0.07402 0.40766 0.43236 0.0
C3314 C 0.0651 0.42239 0.44046 0.0
C3315 C 0.04433 0.46719 0.46785 0.0
C3316 C 0.04947 0.45092 0.45716 0.0
H3317 H 0.09657 0.37562 0.44597 0.0
H3318 H 0.0856 0.40311 0.45908 0.0
H3319 H 0.07004 0.4403 0.4192 0.0
H3320 H 0.01891 0.49954 0.46422 0.0
H3321 H 0.02617 0.47167 0.44561 0.0
C3322 C 0.45108 0.25112 0.20027 0.0
C3323 C 0.45118 0.25378 0.18159 0.0
C3324 C 0.43588 0.25099 0.2088 0.0
C3325 C 0.39974 0.27301 0.20765 0.0
H3326 H 0.37643 0.23409 0.23409 0.0
C3327 C 0.33389 0.27546 0.23285 0.0
C3328 C 0.33039 0.26917 0.24964 0.0
C3329 C 0.34892 0.27285 0.22519 0.0
C3330 C 0.38303 0.24522 0.22707 0.0
H3331 H 0.43552 0.25732 0.15677 0.0
H3332 H 0.40893 0.25735 0.17189 0.0
H3333 H 0.40215 0.22952 0.21879 0.0
H3334 H 0.33924 0.25558 0.27202 0.0
H3335 H 0.36654 0.25202 0.25919 0.0
H3336 H 0.38133 0.28915 0.21634 0.0
C3337 C 0.42063 0.25546 0.17984 0.0
C3338 C 0.39755 0.2425 0.21822 0.0
C3339 C 0.43577 0.25551 0.17128 0.0
C3340 C 0.34199 0.26046 0.25899 0.0
C3341 C 0.3574 0.25834 0.25159 0.0
C3342 C 0.38552 0.27592 0.21677 0.0
C3343 C 0.42077 0.2536 0.1987 0.0
C3344 C 0.40571 0.25626 0.20825 0.0
C3345 C 0.36091 0.26445 0.23456 0.0
C3346 C 0.37683 0.26191 0.22627 0.0
H3347 H 0.46284 0.24964 0.2084 0.0
H3348 H 0.43613 0.24968 0.22344 0.0
H3349 H 0.4062 0.28392 0.20028 0.0
H3350 H 0.32474 0.28193 0.22541 0.0
H3351 H 0.35097 0.27717 0.21178 0.0
C3352 C 0.64463 0.51935 0.34899 0.0
C3353 C 0.63587 0.52042 0.33142 0.0
C3354 C 0.63663 0.52108 0.36593 0.0
C3355 C 0.59698 0.53636 0.38763 0.0
H3356 H 0.61283 0.51453 0.4296 0.0
C3357 C 0.55942 0.53688 0.45535 0.0
C3358 C 0.56757 0.53599 0.47328 0.0
C3359 C 0.56803 0.53558 0.43894 0.0
C3360 C 0.60818 0.52104 0.41828 0.0
H3361 H 0.61102 0.52436 0.31901 0.0
H3362 H 0.59729 0.52748 0.34794 0.0
H3363 H 0.62615 0.51086 0.40061 0.0
H3364 H 0.5921 0.53256 0.48693 0.0
H3365 H 0.60719 0.53026 0.45854 0.0
H3366 H 0.57905 0.54657 0.40523 0.0
C3367 C 0.61058 0.52533 0.34887 0.0
C3368 C 0.616 0.51889 0.40123 0.0
C3369 C 0.61854 0.52338 0.33189 0.0
C3370 C 0.58516 0.53374 0.47379 0.0
C3371 C 0.59382 0.53214 0.45714 0.0
C3372 C 0.58918 0.53851 0.40465 0.0
C3373 C 0.61933 0.52425 0.36656 0.0
C3374 C 0.6107 0.52647 0.38524 0.0
C3375 C 0.58549 0.53295 0.43909 0.0
C3376 C 0.59445 0.5309 0.42062 0.0
H3377 H 0.65789 0.51709 0.34973 0.0
H3378 H 0.64436 0.52024 0.37871 0.0
H3379 H 0.59229 0.54291 0.37636 0.0
H3380 H 0.5459 0.53836 0.45384 0.0
H3381 H 0.56054 0.53607 0.4259 0.0
C3382 C 0.29836 0.91461 0.07693 0.0
C3383 C 0.29699 0.90098 0.06081 0.0
C3384 C 0.3051 0.91135 0.09409 0.0
C3385 C 0.33281 0.88302 0.11458 0.0
H3386 H 0.31049 0.89521 0.15878 0.0
C3387 C 0.33497 0.84618 0.17744 0.0
C3388 C 0.33238 0.85562 0.19481 0.0
C3389 C 0.33639 0.85578 0.16233 0.0
C3390 C 0.31723 0.89226 0.14671 0.0
H3391 H 0.30078 0.87294 0.04993 0.0
H3392 H 0.31193 0.86681 0.08029 0.0
H3393 H 0.29934 0.9026 0.12931 0.0
H3394 H 0.33151 0.88293 0.21077 0.0
H3395 H 0.33414 0.89988 0.18419 0.0
H3396 H 0.35028 0.87199 0.13194 0.0
C3397 C 0.30825 0.88025 0.07948 0.0
C3398 C 0.31073 0.89633 0.12979 0.0
C3399 C 0.30161 0.88359 0.06222 0.0
C3400 C 0.33326 0.87533 0.19739 0.0
C3401 C 0.33473 0.88498 0.18224 0.0
C3402 C 0.33935 0.87897 0.13153 0.0
C3403 C 0.31039 0.8943 0.09545 0.0
C3404 C 0.31816 0.89127 0.11352 0.0
C3405 C 0.3353 0.87498 0.1644 0.0
C3406 C 0.33129 0.88307 0.14762 0.0
H3407 H 0.29505 0.92825 0.07619 0.0
H3408 H 0.30675 0.92246 0.10617 0.0
H3409 H 0.33901 0.8794 0.10225 0.0
H3410 H 0.33411 0.83093 0.17499 0.0
H3411 H 0.3366 0.84763 0.1487 0.0
C3412 C 0.96659 0.53139 0.84663 0.0
C3413 C 0.95255 0.54041 0.84447 0.0
C3414 C 0.97144 0.52672 0.86387 0.0
C3415 C 0.97216 0.54372 0.91229 0.0
H3416 H 0.98433 0.49601 0.91955 0.0
C3417 C 0.00591 0.53787 0.98199 0.0
C3418 C 0.02029 0.52943 0.98118 0.0
C3419 C 0.99377 0.53533 0.96631 0.0
C3420 C 0.98096 0.50937 0.91767 0.0
H3421 H 0.93238 0.5514 0.85826 0.0
H3422 H 0.9412 0.54361 0.88851 0.0
H3423 H 0.96999 0.4988 0.88915 0.0
H3424 H 0.03395 0.51202 0.96392 0.0
H3425 H 0.01347 0.50883 0.93566 0.0
H3426 H 0.98405 0.55493 0.94002 0.0
C3427 C 0.94835 0.54014 0.87689 0.0
C3428 C 0.97275 0.51092 0.9004 0.0
C3429 C 0.94349 0.54478 0.85971 0.0
C3430 C 0.02282 0.51867 0.96456 0.0
C3431 C 0.01093 0.51653 0.94862 0.0
C3432 C 0.9805 0.54228 0.92936 0.0
C3433 C 0.96235 0.53112 0.87905 0.0
C3434 C 0.96869 0.52825 0.8976 0.0
C3435 C 0.99638 0.52502 0.94936 0.0
C3436 C 0.98532 0.52526 0.93211 0.0
H3437 H 0.97349 0.5275 0.83494 0.0
H3438 H 0.98248 0.52 0.86543 0.0
H3439 H 0.96934 0.55731 0.91027 0.0
H3440 H 0.00439 0.54693 0.99457 0.0
H3441 H 0.98265 0.54196 0.96733 0.0
C3442 C 0.27246 0.22616 0.5645 0.0
C3443 C 0.28619 0.21807 0.55842 0.0
C3444 C 0.27276 0.23354 0.58341 0.0
C3445 C 0.30244 0.25283 0.62694 0.0
H3446 H 0.2609 0.23793 0.65151 0.0
C3447 C 0.30516 0.27019 0.70667 0.0
C3448 C 0.2903 0.27414 0.71462 0.0
C3449 C 0.30426 0.26386 0.68756 0.0
C3450 C 0.27252 0.24255 0.64485 0.0
H3451 H 0.31117 0.21168 0.56729 0.0
H3452 H 0.31189 0.22498 0.6002 0.0
H3453 H 0.26025 0.22628 0.61826 0.0
H3454 H 0.26281 0.27459 0.70851 0.0
H3455 H 0.26137 0.26419 0.67483 0.0
H3456 H 0.31467 0.26944 0.65318 0.0
C3457 C 0.30086 0.22554 0.59037 0.0
C3458 C 0.27216 0.23578 0.62579 0.0
C3459 C 0.30043 0.21792 0.57154 0.0
C3460 C 0.27451 0.27178 0.70284 0.0
C3461 C 0.27366 0.26561 0.68355 0.0
C3462 C 0.30274 0.25983 0.64589 0.0
C3463 C 0.28693 0.23324 0.59655 0.0
C3464 C 0.28715 0.24076 0.61667 0.0
C3465 C 0.28854 0.26151 0.67565 0.0
C3466 C 0.28784 0.25466 0.65519 0.0
H3467 H 0.26125 0.22633 0.55474 0.0
H3468 H 0.26192 0.23952 0.58775 0.0
H3469 H 0.31413 0.2571 0.62024 0.0
H3470 H 0.31754 0.27159 0.71524 0.0
H3471 H 0.31589 0.26044 0.68223 0.0
C3472 C 0.64189 0.52571 0.21129 0.0
C3473 C 0.63388 0.51349 0.22311 0.0
C3474 C 0.63339 0.52677 0.19352 0.0
C3475 C 0.59527 0.50121 0.15538 0.0
H3476 H 0.60601 0.54901 0.13662 0.0
C3477 C 0.56942 0.50723 0.07738 0.0
C3478 C 0.56641 0.52477 0.07313 0.0
C3479 C 0.57697 0.50556 0.09544 0.0
C3480 C 0.60258 0.53545 0.14143 0.0
H3481 H 0.60999 0.49256 0.22442 0.0
H3482 H 0.59534 0.49413 0.19357 0.0
H3483 H 0.61941 0.54673 0.16736 0.0
H3484 H 0.56942 0.55437 0.08562 0.0
H3485 H 0.58229 0.55154 0.11654 0.0
H3486 H 0.57823 0.49004 0.12946 0.0
C3487 C 0.60839 0.50306 0.19807 0.0
C3488 C 0.61061 0.53405 0.15933 0.0
C3489 C 0.61685 0.5022 0.21605 0.0
C3490 C 0.57134 0.54052 0.08793 0.0
C3491 C 0.579 0.53889 0.10592 0.0
C3492 C 0.58731 0.50258 0.13738 0.0
C3493 C 0.61638 0.5155 0.18631 0.0
C3494 C 0.60727 0.51689 0.16688 0.0
C3495 C 0.58211 0.52138 0.11025 0.0
C3496 C 0.59071 0.51976 0.12984 0.0
H3497 H 0.65489 0.53474 0.21587 0.0
H3498 H 0.64047 0.53638 0.1853 0.0
H3499 H 0.59215 0.4876 0.16013 0.0
H3500 H 0.56598 0.49464 0.06666 0.0
H3501 H 0.57908 0.49175 0.09758 0.0
C3502 C 0.29433 0.87419 0.9539 0.0
C3503 C 0.29978 0.89411 0.95825 0.0
C3504 C 0.29702 0.86468 0.93685 0.0
C3505 C 0.32243 0.86881 0.89716 0.0
H3506 H 0.28321 0.82809 0.87247 0.0
C3507 C 0.31229 0.82903 0.82035 0.0
C3508 C 0.30621 0.80911 0.81817 0.0
C3509 C 0.31494 0.84015 0.83804 0.0
C3510 C 0.29432 0.83929 0.87934 0.0
H3511 H 0.31263 0.91981 0.94854 0.0
H3512 H 0.31691 0.90306 0.91827 0.0
H3513 H 0.28025 0.84689 0.90188 0.0
H3514 H 0.29932 0.785 0.83257 0.0
H3515 H 0.30363 0.80453 0.86354 0.0
H3516 H 0.33623 0.86128 0.87403 0.0
C3517 C 0.31076 0.89486 0.92819 0.0
C3518 C 0.29264 0.85004 0.89612 0.0
C3519 C 0.30815 0.90441 0.94537 0.0
C3520 C 0.30395 0.80033 0.83394 0.0
C3521 C 0.3064 0.81145 0.85158 0.0
C3522 C 0.32404 0.8581 0.88015 0.0
C3523 C 0.30503 0.87493 0.92376 0.0
C3524 C 0.30676 0.86463 0.90536 0.0
C3525 C 0.31132 0.83143 0.85362 0.0
C3526 C 0.31008 0.84306 0.87139 0.0
H3527 H 0.28812 0.8659 0.96372 0.0
H3528 H 0.29283 0.84925 0.93392 0.0
H3529 H 0.3335 0.88001 0.90408 0.0
H3530 H 0.31405 0.83612 0.80833 0.0
H3531 H 0.31862 0.85556 0.83937 0.0
C3532 C 0.95428 0.53403 0.73305 0.0
C3533 C 0.93854 0.52483 0.73873 0.0
C3534 C 0.95744 0.52973 0.7146 0.0
C3535 C 0.94552 0.49241 0.67366 0.0
H3536 H 0.964 0.53363 0.64739 0.0
C3537 C 0.96284 0.50348 0.59637 0.0
C3538 C 0.98115 0.50512 0.59767 0.0
C3539 C 0.95407 0.5007 0.61192 0.0
C3540 C 0.95859 0.52207 0.65458 0.0
H3541 H 0.9138 0.50386 0.72997 0.0
H3542 H 0.91938 0.49644 0.69777 0.0
H3543 H 0.95647 0.54116 0.67902 0.0
H3544 H 1.00425 0.50301 0.6154 0.0
H3545 H 0.98876 0.49778 0.6423 0.0
H3546 H 0.94836 0.47341 0.64926 0.0
C3547 C 0.92924 0.50687 0.70751 0.0
C3548 C 0.95451 0.52633 0.67261 0.0
C3549 C 0.92605 0.51122 0.72587 0.0
C3550 C 0.99011 0.50156 0.61388 0.0
C3551 C 0.98131 0.49862 0.6293 0.0
C3552 C 0.94978 0.48816 0.65562 0.0
C3553 C 0.94492 0.51612 0.70176 0.0
C3554 C 0.94822 0.51154 0.68236 0.0
C3555 C 0.96353 0.49918 0.62862 0.0
C3556 C 0.95647 0.50301 0.64618 0.0
H3557 H 0.96408 0.54452 0.74279 0.0
H3558 H 0.96973 0.53688 0.7104 0.0
H3559 H 0.94075 0.48082 0.68106 0.0
H3560 H 0.95565 0.50596 0.58392 0.0
H3561 H 0.94033 0.50131 0.6114 0.0
C3562 C 0.2804 0.19633 0.43697 0.0
C3563 C 0.28291 0.20904 0.45396 0.0
C3564 C 0.2806 0.20305 0.41993 0.0
C3565 C 0.29373 0.24733 0.39905 0.0
H3566 H 0.26477 0.21524 0.35544 0.0
C3567 C 0.30179 0.26434 0.32499 0.0
C3568 C 0.28697 0.25992 0.31143 0.0
C3569 C 0.3007 0.25851 0.34238 0.0
C3570 C 0.27278 0.22457 0.36746 0.0
H3571 H 0.28769 0.23888 0.46635 0.0
H3572 H 0.28753 0.25067 0.43661 0.0
H3573 H 0.26355 0.20509 0.38563 0.0
H3574 H 0.25933 0.24587 0.30545 0.0
H3575 H 0.25726 0.23578 0.33595 0.0
H3576 H 0.30233 0.26722 0.381 0.0
C3577 C 0.28575 0.23546 0.43639 0.0
C3578 C 0.27233 0.21856 0.38485 0.0
C3579 C 0.28573 0.22871 0.4535 0.0
C3580 C 0.27101 0.24933 0.31557 0.0
C3581 C 0.26988 0.24353 0.33308 0.0
C3582 C 0.29399 0.25347 0.3817 0.0
C3583 C 0.2831 0.22271 0.4193 0.0
C3584 C 0.28299 0.22969 0.4009 0.0
C3585 C 0.28471 0.24814 0.3468 0.0
C3586 C 0.2837 0.24206 0.36555 0.0
H3587 H 0.27832 0.18109 0.4368 0.0
H3588 H 0.27899 0.19273 0.40725 0.0
H3589 H 0.30226 0.25631 0.41093 0.0
H3590 H 0.3143 0.27252 0.32225 0.0
H3591 H 0.31253 0.26202 0.35227 0.0
C3592 C 0.34229 0.64015 0.52759 0.0
C3593 C 0.32584 0.62732 0.52572 0.0
C3594 C 0.35729 0.63341 0.52462 0.0
C3595 C 0.37477 0.59057 0.5226 0.0
H3596 H 0.40758 0.61634 0.49238 0.0
C3597 C 0.4278 0.5569 0.49461 0.0
C3598 C 0.44505 0.56797 0.49952 0.0
C3599 C 0.41358 0.56529 0.49632 0.0
C3600 C 0.39854 0.60918 0.50093 0.0
H3601 H 0.31201 0.59754 0.51979 0.0
H3602 H 0.33835 0.58567 0.5144 0.0
H3603 H 0.38158 0.62852 0.49926 0.0
H3604 H 0.46108 0.59662 0.50894 0.0
H3605 H 0.43585 0.61138 0.51221 0.0
H3606 H 0.39153 0.57108 0.52402 0.0
C3607 C 0.33964 0.6009 0.51834 0.0
C3608 C 0.38377 0.6161 0.5049 0.0
C3609 C 0.32461 0.60765 0.5214 0.0
C3610 C 0.44787 0.58779 0.50527 0.0
C3611 C 0.43354 0.59622 0.50698 0.0
C3612 C 0.38941 0.58361 0.51852 0.0
C3613 C 0.35603 0.61378 0.51968 0.0
C3614 C 0.37176 0.60677 0.5157 0.0
C3615 C 0.41636 0.58485 0.50306 0.0
C3616 C 0.40128 0.59277 0.50756 0.0
H3617 H 0.34354 0.65542 0.53098 0.0
H3618 H 0.36985 0.64356 0.52606 0.0
H3619 H 0.36587 0.58337 0.53124 0.0
H3620 H 0.42522 0.54157 0.49035 0.0
H3621 H 0.40036 0.55637 0.49305 0.0
C3622 C 0.85879 0.94135 0.53078 0.0
C3623 C 0.85537 0.92431 0.53828 0.0
C3624 C 0.87606 0.95022 0.52819 0.0
C3625 C 0.92332 0.95246 0.5445 0.0
H3626 H 0.93275 0.97858 0.50245 0.0
C3627 C 0.99049 1.00434 0.54326 0.0
C3628 C 0.99774 1.00526 0.52635 0.0
C3629 C 0.97347 0.99342 0.5437 0.0
C3630 C 0.93044 0.97123 0.51422 0.0
H3631 H 0.86768 0.90319 0.54865 0.0
H3632 H 0.89762 0.91861 0.54437 0.0
H3633 H 0.90268 0.96169 0.50493 0.0
H3634 H 0.99262 0.99513 0.4965 0.0
H3635 H 0.9628 0.97603 0.49721 0.0
H3636 H 0.95099 0.96181 0.55376 0.0
C3637 C 0.88702 0.92533 0.54061 0.0
C3638 C 0.91307 0.96169 0.51577 0.0
C3639 C 0.86975 0.9164 0.54305 0.0
C3640 C 0.9875 0.99472 0.50981 0.0
C3641 C 0.9703 0.98388 0.51021 0.0
C3642 C 0.94061 0.96205 0.543 0.0
C3643 C 0.89053 0.94243 0.53316 0.0
C3644 C 0.90917 0.95224 0.53103 0.0
C3645 C 0.96297 0.98308 0.5272 0.0
C3646 C 0.9445 0.97181 0.52797 0.0
H3647 H 0.84806 0.94779 0.52673 0.0
H3648 H 0.87807 0.9634 0.52256 0.0
H3649 H 0.92103 0.94555 0.55655 0.0
H3650 H 0.99794 0.01228 0.55626 0.0
H3651 H 0.96838 0.99351 0.55705 0.0
C3652 C 0.87961 0.11038 0.25676 0.0
C3653 C 0.89737 0.11189 0.26404 0.0
C3654 C 0.8717 0.12657 0.25727 0.0
C3655 C 0.88144 0.18278 0.2727 0.0
H3656 H 0.83236 0.17507 0.25378 0.0
C3657 C 0.84719 0.25003 0.26973 0.0
C3658 C 0.82856 0.24747 0.26755 0.0
C3659 C 0.85572 0.23425 0.2695 0.0
C3660 C 0.84607 0.178 0.25943 0.0
H3661 H 0.92029 0.13316 0.27783 0.0
H3662 H 0.90701 0.16072 0.27884 0.0
H3663 H 0.84571 0.1481 0.25341 0.0
H3664 H 0.80489 0.22488 0.26339 0.0
H3665 H 0.81913 0.19834 0.2632 0.0
H3666 H 0.88155 0.21283 0.2789 0.0
C3667 C 0.89878 0.14701 0.27248 0.0
C3668 C 0.85408 0.16193 0.25906 0.0
C3669 C 0.90666 0.13078 0.27194 0.0
C3670 C 0.81914 0.22812 0.26514 0.0
C3671 C 0.82759 0.21244 0.26487 0.0
C3672 C 0.87338 0.19889 0.2731 0.0
C3673 C 0.88092 0.14565 0.26515 0.0
C3674 C 0.87213 0.16354 0.26566 0.0
C3675 C 0.84623 0.21476 0.26698 0.0
C3676 C 0.85532 0.19717 0.26651 0.0
H3677 H 0.8716 0.09646 0.25051 0.0
H3678 H 0.85812 0.12376 0.25126 0.0
H3679 H 0.89522 0.18576 0.27805 0.0
H3680 H 0.85534 0.26437 0.27163 0.0
H3681 H 0.86996 0.23754 0.27111 0.0
C3682 C 0.72118 0.10886 0.00642 0.0
C3683 C 0.72898 0.1275 0.0155 0.0
C3684 C 0.70292 0.10322 1.00211 0.0
C3685 C 0.66493 0.11197 0.02149 0.0
H3686 H 0.6382 0.08517 0.97437 0.0
C3687 C 0.59039 0.08606 0.01485 0.0
C3688 C 0.58297 0.06834 1.00363 0.0
C3689 C 0.60793 0.09468 0.01462 0.0
C3690 C 0.64555 0.09244 0.98766 0.0
H3691 H 0.72412 0.15517 0.02634 0.0
H3692 H 0.6923 0.14511 0.01915 0.0
H3693 H 0.66992 0.09799 0.97589 0.0
H3694 H 0.58764 0.04531 0.98378 0.0
H3695 H 0.61887 0.05979 0.98425 0.0
H3696 H 0.64113 0.10565 0.03368 0.0
C3697 C 0.70026 0.13495 0.01539 0.0
C3698 C 0.66357 0.09986 0.98844 0.0
C3699 C 0.71841 0.1406 0.0196 0.0
C3700 C 0.59326 0.05906 0.99246 0.0
C3701 C 0.61099 0.06745 0.99259 0.0
C3702 C 0.64706 0.10427 0.02081 0.0
C3703 C 0.69242 0.11616 0.00696 0.0
C3704 C 0.67331 0.10952 0.00541 0.0
C3705 C 0.61844 0.08542 1.00356 0.0
C3706 C 0.63722 0.09429 1.00393 0.0
H3707 H 0.72912 0.09862 1.00293 0.0
H3708 H 0.69696 0.08858 0.99574 0.0
H3709 H 0.67235 0.11921 0.03477 0.0
H3710 H 0.58249 0.09357 0.02334 0.0
H3711 H 0.61317 0.10869 0.02292 0.0
C3712 C 0.17823 0.48617 0.26422 0.0
C3713 C 0.18788 0.50147 0.25699 0.0
C3714 C 0.18558 0.47104 0.26713 0.0
C3715 C 0.21618 0.4445 0.25216 0.0
H3716 H 0.22048 0.43383 0.30291 0.0
C3717 C 0.2583 0.39571 0.27371 0.0
C3718 C 0.25107 0.38212 0.28428 0.0
C3719 C 0.24999 0.41017 0.27086 0.0
C3720 C 0.21908 0.43653 0.28868 0.0
H3721 H 0.21227 0.51295 0.24642 0.0
H3722 H 0.22513 0.48572 0.25113 0.0
H3723 H 0.20706 0.45992 0.29602 0.0
H3724 H 0.23011 0.3725 0.30055 0.0
H3725 H 0.21508 0.39813 0.29533 0.0
H3726 H 0.22788 0.42103 0.24465 0.0
C3727 C 0.21198 0.4858 0.25467 0.0
C3728 C 0.21159 0.4514 0.28481 0.0
C3729 C 0.20471 0.50121 0.25201 0.0
C3730 C 0.2357 0.38311 0.2924 0.0
C3731 C 0.22725 0.39763 0.28946 0.0
C3732 C 0.22347 0.42953 0.25597 0.0
C3733 C 0.2025 0.47095 0.26258 0.0
C3734 C 0.21033 0.45546 0.26659 0.0
C3735 C 0.23426 0.41099 0.2784 0.0
C3736 C 0.2252 0.42569 0.27429 0.0
H3737 H 0.16523 0.48616 0.26826 0.0
H3738 H 0.17815 0.4595 0.27312 0.0
H3739 H 0.21496 0.44744 0.238 0.0
H3740 H 0.27027 0.39493 0.26747 0.0
H3741 H 0.25577 0.42062 0.26263 0.0
C3742 C 0.24322 0.40617 0.01982 0.0
C3743 C 0.25697 0.41522 0.03412 0.0
C3744 C 0.22792 0.41317 0.0175 0.0
C3745 C 0.21045 0.45672 0.03206 0.0
H3746 H 0.16554 0.42298 0.01109 0.0
C3747 C 0.15009 0.48757 0.01592 0.0
C3748 C 0.1336 0.47788 0.01984 0.0
C3749 C 0.16448 0.47899 0.01612 0.0
C3750 C 0.17793 0.43261 0.01713 0.0
H3751 H 0.26517 0.43843 0.05749 0.0
H3752 H 0.23834 0.45013 0.05413 0.0
H3753 H 0.1915 0.40987 0.01551 0.0
H3754 H 0.11927 0.45105 0.02618 0.0
H3755 H 0.14451 0.43621 0.027 0.0
H3756 H 0.1968 0.47927 0.0346 0.0
C3757 C 0.23949 0.43804 0.04414 0.0
C3758 C 0.19298 0.42512 0.01944 0.0
C3759 C 0.25491 0.43124 0.04624 0.0
C3760 C 0.13181 0.45906 0.02335 0.0
C3761 C 0.14629 0.45046 0.02362 0.0
C3762 C 0.19543 0.46413 0.03 0.0
C3763 C 0.22577 0.42926 0.02961 0.0
C3764 C 0.20953 0.43707 0.02699 0.0
C3765 C 0.16296 0.46049 0.02043 0.0
C3766 C 0.17893 0.45225 0.02244 0.0
H3767 H 0.24439 0.39381 0.01017 0.0
H3768 H 0.21795 0.4061 0.00594 0.0
H3769 H 0.22285 0.46661 0.03753 0.0
H3770 H 0.15211 0.50212 0.01332 0.0
H3771 H 0.17692 0.48706 0.01312 0.0
C3772 C 0.89713 0.98642 0.25422 0.0
C3773 C 0.89234 1.00254 0.26394 0.0
C3774 C 0.88882 0.96732 0.25578 0.0
C3775 C 0.85678 0.93776 0.28423 0.0
H3776 H 0.85795 0.89558 0.24563 0.0
C3777 C 0.8119 0.86098 0.28291 0.0
C3778 C 0.81629 0.84396 0.27477 0.0
C3779 C 0.82217 0.87942 0.28226 0.0
C3780 C 0.85751 0.90699 0.25677 0.0
H3781 H 0.8745 0.01013 0.28323 0.0
H3782 H 0.85994 0.9775 0.2857 0.0
H3783 H 0.87273 0.92804 0.24302 0.0
H3784 H 0.83583 0.83403 0.25919 0.0
H3785 H 0.85383 0.86612 0.258 0.0
H3786 H 0.84148 0.91676 0.2979 0.0
C3787 C 0.87039 0.97935 0.2769 0.0
C3788 C 0.86618 0.92604 0.25528 0.0
C3789 C 0.87875 0.99845 0.27535 0.0
C3790 C 0.83189 0.84645 0.266 0.0
C3791 C 0.84218 0.86514 0.26511 0.0
C3792 C 0.84807 0.91878 0.28565 0.0
C3793 C 0.87514 0.96307 0.26718 0.0
C3794 C 0.86599 0.94214 0.2689 0.0
C3795 C 0.83753 0.88224 0.27315 0.0
C3796 C 0.84798 0.90276 0.2719 0.0
H3797 H 0.90755 0.98854 0.24537 0.0
H3798 H 0.89348 0.95587 0.24811 0.0
H3799 H 0.85634 0.94901 0.29551 0.0
H3800 H 0.80004 0.8601 0.28968 0.0
H3801 H 0.81752 0.89159 0.28849 0.0
C3802 C 0.69833 0.11262 0.78384 0.0
C3803 C 0.68236 0.10488 0.77241 0.0
C3804 C 0.70353 0.13218 0.78973 0.0
C3805 C 0.70527 0.16884 0.76663 0.0
H3806 H 0.72807 0.20124 0.81302 0.0
C3807 C 0.75409 0.23954 0.76792 0.0
C3808 C 0.76716 0.24583 0.78324 0.0
C3809 C 0.74124 0.22315 0.7675 0.0
C3810 C 0.72194 0.19221 0.79996 0.0
H3811 H 0.65853 0.11077 0.75933 0.0
H3812 H 0.66833 0.14538 0.76865 0.0
H3813 H 0.70657 0.17176 0.81392 0.0
H3814 H 0.77861 0.23956 0.80906 0.0
H3815 H 0.75715 0.20949 0.80739 0.0
H3816 H 0.72195 0.18748 0.75252 0.0
C3817 C 0.67644 0.13624 0.7735 0.0
C3818 C 0.70937 0.17573 0.80054 0.0
C3819 C 0.67107 0.11663 0.76791 0.0
C3820 C 0.76853 0.23468 0.79713 0.0
C3821 C 0.75603 0.21783 0.79636 0.0
C3822 C 0.71823 0.18486 0.76603 0.0
C3823 C 0.69293 0.14406 0.78389 0.0
C3824 C 0.7014 0.16379 0.78386 0.0
C3825 C 0.74175 0.2125 0.78207 0.0
C3826 C 0.72706 0.19639 0.7827 0.0
H3827 H 0.70698 0.10364 0.78782 0.0
H3828 H 0.71649 0.13814 0.79745 0.0
H3829 H 0.69948 0.15942 0.75364 0.0
H3830 H 0.75268 0.24829 0.75726 0.0
H3831 H 0.73035 0.21962 0.75641 0.0
loop_
_geom_bond_atom_site_label_1
_geom_bond_atom_site_label_2
_geom_bond_distance
_geom_bond_site_symmetry_2
_ccdc_geom_bond_type
In0 O1 2.294 . S
In0 O2 2.326 . S
In0 O6 2.266 . S
In0 O7 2.326 . S
In0 O8 2.266 . S
In0 O9 2.326 . S
In0 O11 2.294 . S
In0 O12 2.326 . S
O1 In0 2.294 . S
O1 C10 1.240 . S
O2 In0 2.326 . S
O2 C10 1.252 . S
C3 O6 1.252 . S
C3 O7 1.260 . S
C4 O11 1.240 . S
C4 O12 1.252 . S
C5 O8 1.252 . S
C5 O9 1.260 . S
O6 In0 2.266 . S
O6 C3 1.252 . S
O7 In0 2.326 . S
O7 C3 1.260 . S
O8 In0 2.266 . S
O8 C5 1.252 . S
O9 In0 2.326 . S
O9 C5 1.260 . S
C10 O1 1.240 . S
C10 O2 1.252 . S
O11 In0 2.294 . S
O11 C4 1.240 . S
O12 In0 2.326 . S
O12 C4 1.252 . S
In13 O14 2.294 . S
In13 O15 2.326 . S
In13 O19 2.266 1_455 S
In13 O20 2.326 1_455 S
In13 O21 2.264 1_455 S
In13 O22 2.322 1_455 S
In13 O24 2.296 . S
In13 O25 2.330 . S
O14 In13 2.294 . S
O14 C23 1.240 . S
O15 In13 2.326 . S
O15 C23 1.252 . S
C16 O19 1.252 . S
C16 O20 1.260 . S
C17 O24 1.240 . S
C17 O25 1.252 . S
C18 O21 1.252 . S
C18 O22 1.260 . S
O19 In13 2.266 1_655 S
O19 C16 1.252 . S
O20 In13 2.326 1_655 S
O20 C16 1.260 . S
O21 In13 2.264 1_655 S
O21 C18 1.252 . S
O22 In13 2.322 1_655 S
O22 C18 1.260 . S
C23 O14 1.240 . S
C23 O15 1.252 . S
O24 In13 2.296 . S
O24 C17 1.240 . S
O25 In13 2.330 . S
O25 C17 1.252 . S
In26 O27 2.294 . S
In26 O28 2.326 . S
In26 O32 2.266 . S
In26 O33 2.326 . S
In26 O34 2.266 . S
In26 O35 2.326 . S
In26 O37 2.294 . S
In26 O38 2.326 . S
O27 In26 2.294 . S
O27 C36 1.240 . S
O28 In26 2.326 . S
O28 C36 1.252 . S
C29 O32 1.252 . S
C29 O33 1.260 . S
C30 O37 1.240 . S
C30 O38 1.252 . S
C31 O34 1.252 . S
C31 O35 1.260 . S
O32 In26 2.266 . S
O32 C29 1.252 . S
O33 In26 2.326 . S
O33 C29 1.260 . S
O34 In26 2.266 . S
O34 C31 1.252 . S
O35 In26 2.326 . S
O35 C31 1.260 . S
C36 O27 1.240 . S
C36 O28 1.252 . S
O37 In26 2.294 . S
O37 C30 1.240 . S
O38 In26 2.326 . S
O38 C30 1.252 . S
In39 O40 2.294 . S
In39 O41 2.326 . S
In39 O45 2.266 . S
In39 O46 2.326 . S
In39 O47 2.266 . S
In39 O48 2.326 . S
In39 O50 2.294 . S
In39 O51 2.326 . S
O40 In39 2.294 . S
O40 C49 1.240 . S
O41 In39 2.326 . S
O41 C49 1.252 . S
C42 O45 1.252 . S
C42 O46 1.260 . S
C43 O50 1.240 . S
C43 O51 1.252 . S
C44 O47 1.252 . S
C44 O48 1.260 . S
O45 In39 2.266 . S
O45 C42 1.252 . S
O46 In39 2.326 . S
O46 C42 1.260 . S
O47 In39 2.266 . S
O47 C44 1.252 . S
O48 In39 2.326 . S
O48 C44 1.260 . S
C49 O40 1.240 . S
C49 O41 1.252 . S
O50 In39 2.294 . S
O50 C43 1.240 . S
O51 In39 2.326 . S
O51 C43 1.252 . S
In52 O53 2.294 . S
In52 O54 2.326 . S
In52 O58 2.266 . S
In52 O59 2.326 . S
In52 O60 2.266 . S
In52 O61 2.326 . S
In52 O63 2.294 . S
In52 O64 2.326 . S
O53 In52 2.294 . S
O53 C62 1.240 . S
O54 In52 2.326 . S
O54 C62 1.252 . S
C55 O58 1.252 . S
C55 O59 1.260 . S
C56 O63 1.240 . S
C56 O64 1.252 . S
C57 O60 1.252 . S
C57 O61 1.260 . S
O58 In52 2.266 . S
O58 C55 1.252 . S
O59 In52 2.326 . S
O59 C55 1.260 . S
O60 In52 2.266 . S
O60 C57 1.252 . S
O61 In52 2.326 . S
O61 C57 1.260 . S
C62 O53 1.240 . S
C62 O54 1.252 . S
O63 In52 2.294 . S
O63 C56 1.240 . S
O64 In52 2.326 . S
O64 C56 1.252 . S
In65 O66 2.294 . S
In65 O67 2.326 . S
In65 O71 2.266 . S
In65 O72 2.326 . S
In65 O73 2.266 . S
In65 O74 2.326 . S
In65 O76 2.294 . S
In65 O77 2.326 . S
O66 In65 2.294 . S
O66 C75 1.240 . S
O67 In65 2.326 . S
O67 C75 1.252 . S
C68 O71 1.252 . S
C68 O72 1.260 . S
C69 O76 1.240 . S
C69 O77 1.252 . S
C70 O73 1.252 . S
C70 O74 1.260 . S
O71 In65 2.266 . S
O71 C68 1.252 . S
O72 In65 2.326 . S
O72 C68 1.260 . S
O73 In65 2.266 . S
O73 C70 1.252 . S
O74 In65 2.326 . S
O74 C70 1.260 . S
C75 O66 1.240 . S
C75 O67 1.252 . S
O76 In65 2.294 . S
O76 C69 1.240 . S
O77 In65 2.326 . S
O77 C69 1.252 . S
In78 O79 2.294 . S
In78 O80 2.326 . S
In78 O84 2.266 . S
In78 O85 2.326 . S
In78 O86 2.266 . S
In78 O87 2.326 . S
In78 O89 2.294 . S
In78 O90 2.326 . S
O79 In78 2.294 . S
O79 C88 1.240 . S
O80 In78 2.326 . S
O80 C88 1.252 . S
C81 O84 1.252 . S
C81 O85 1.260 . S
C82 O89 1.240 . S
C82 O90 1.252 . S
C83 O86 1.252 . S
C83 O87 1.260 . S
O84 In78 2.266 . S
O84 C81 1.252 . S
O85 In78 2.326 . S
O85 C81 1.260 . S
O86 In78 2.266 . S
O86 C83 1.252 . S
O87 In78 2.326 . S
O87 C83 1.260 . S
C88 O79 1.240 . S
C88 O80 1.252 . S
O89 In78 2.294 . S
O89 C82 1.240 . S
O90 In78 2.326 . S
O90 C82 1.252 . S
In91 O92 2.294 . S
In91 O93 2.326 . S
In91 O97 2.266 . S
In91 O98 2.326 . S
In91 O99 2.266 1_455 S
In91 O100 2.326 1_455 S
In91 O102 2.294 . S
In91 O103 2.326 . S
O92 In91 2.294 . S
O92 C101 1.240 . S
O93 In91 2.326 . S
O93 C101 1.252 . S
C94 O97 1.252 . S
C94 O98 1.260 . S
C95 O102 1.240 . S
C95 O103 1.252 . S
C96 O99 1.252 . S
C96 O100 1.260 . S
O97 In91 2.266 . S
O97 C94 1.252 . S
O98 In91 2.326 . S
O98 C94 1.260 . S
O99 In91 2.266 1_655 S
O99 C96 1.252 . S
O100 In91 2.326 1_655 S
O100 C96 1.260 . S
C101 O92 1.240 . S
C101 O93 1.252 . S
O102 In91 2.294 . S
O102 C95 1.240 . S
O103 In91 2.326 . S
O103 C95 1.252 . S
In104 O105 2.294 . S
In104 O106 2.326 . S
In104 O110 2.266 . S
In104 O111 2.326 . S
In104 O112 2.266 1_545 S
In104 O113 2.326 1_545 S
In104 O115 2.294 . S
In104 O116 2.326 . S
O105 In104 2.294 . S
O105 C114 1.240 . S
O106 In104 2.326 . S
O106 C114 1.252 . S
C107 O110 1.252 . S
C107 O111 1.260 . S
C108 O115 1.240 . S
C108 O116 1.252 . S
C109 O112 1.252 . S
C109 O113 1.260 . S
O110 In104 2.266 . S
O110 C107 1.252 . S
O111 In104 2.326 . S
O111 C107 1.260 . S
O112 In104 2.266 1_565 S
O112 C109 1.252 . S
O113 In104 2.326 1_565 S
O113 C109 1.260 . S
C114 O105 1.240 . S
C114 O106 1.252 . S
O115 In104 2.294 . S
O115 C108 1.240 . S
O116 In104 2.326 . S
O116 C108 1.252 . S
In117 O118 2.294 . S
In117 O119 2.326 . S
In117 O123 2.266 . S
In117 O124 2.326 . S
In117 O125 2.266 . S
In117 O126 2.326 . S
In117 O128 2.294 . S
In117 O129 2.326 . S
O118 In117 2.294 . S
O118 C127 1.240 . S
O119 In117 2.326 . S
O119 C127 1.252 . S
C120 O123 1.252 . S
C120 O124 1.260 . S
C121 O128 1.240 . S
C121 O129 1.252 . S
C122 O125 1.252 . S
C122 O126 1.260 . S
O123 In117 2.266 . S
O123 C120 1.252 . S
O124 In117 2.326 . S
O124 C120 1.260 . S
O125 In117 2.266 . S
O125 C122 1.252 . S
O126 In117 2.326 . S
O126 C122 1.260 . S
C127 O118 1.240 . S
C127 O119 1.252 . S
O128 In117 2.294 . S
O128 C121 1.240 . S
O129 In117 2.326 . S
O129 C121 1.252 . S
In130 O131 2.294 1_545 S
In130 O132 2.326 1_545 S
In130 O136 2.266 . S
In130 O137 2.326 . S
In130 O138 2.266 . S
In130 O139 2.326 . S
In130 O141 2.294 1_545 S
In130 O142 2.326 1_545 S
O131 In130 2.294 1_565 S
O131 C140 1.240 . S
O132 In130 2.326 1_565 S
O132 C140 1.253 . S
C133 O136 1.252 . S
C133 O137 1.260 . S
C134 O141 1.240 . S
C134 O142 1.252 . S
C135 O138 1.252 . S
C135 O139 1.260 . S
O136 In130 2.266 . S
O136 C133 1.252 . S
O137 In130 2.326 . S
O137 C133 1.260 . S
O138 In130 2.266 . S
O138 C135 1.252 . S
O139 In130 2.326 . S
O139 C135 1.260 . S
C140 O131 1.240 . S
C140 O132 1.253 . S
O141 In130 2.294 1_565 S
O141 C134 1.240 . S
O142 In130 2.326 1_565 S
O142 C134 1.252 . S
In143 O144 2.294 . S
In143 O145 2.326 . S
In143 O149 2.266 1_554 S
In143 O150 2.326 1_554 S
In143 O151 2.266 . S
In143 O152 2.326 . S
In143 O154 2.294 . S
In143 O155 2.326 . S
O144 In143 2.294 . S
O144 C153 1.240 . S
O145 In143 2.326 . S
O145 C153 1.252 . S
C146 O149 1.252 . S
C146 O150 1.260 . S
C147 O154 1.240 . S
C147 O155 1.252 . S
C148 O151 1.252 . S
C148 O152 1.260 . S
O149 In143 2.266 1_556 S
O149 C146 1.252 . S
O150 In143 2.326 1_556 S
O150 C146 1.260 . S
O151 In143 2.266 . S
O151 C148 1.252 . S
O152 In143 2.326 . S
O152 C148 1.260 . S
C153 O144 1.240 . S
C153 O145 1.252 . S
O154 In143 2.294 . S
O154 C147 1.240 . S
O155 In143 2.326 . S
O155 C147 1.252 . S
In156 O157 2.294 . S
In156 O158 2.326 . S
In156 O162 2.266 1_554 S
In156 O163 2.326 1_554 S
In156 O164 2.266 . S
In156 O165 2.326 . S
In156 O167 2.294 . S
In156 O168 2.326 . S
O157 In156 2.294 . S
O157 C166 1.240 . S
O158 In156 2.326 . S
O158 C166 1.252 . S
C159 O162 1.252 . S
C159 O163 1.260 . S
C160 O167 1.240 . S
C160 O168 1.252 . S
C161 O164 1.252 . S
C161 O165 1.260 . S
O162 In156 2.266 1_556 S
O162 C159 1.252 . S
O163 In156 2.326 1_556 S
O163 C159 1.260 . S
O164 In156 2.266 . S
O164 C161 1.252 . S
O165 In156 2.326 . S
O165 C161 1.260 . S
C166 O157 1.240 . S
C166 O158 1.252 . S
O167 In156 2.294 . S
O167 C160 1.240 . S
O168 In156 2.326 . S
O168 C160 1.252 . S
In169 O170 2.294 . S
In169 O171 2.326 . S
In169 O175 2.266 . S
In169 O176 2.326 . S
In169 O177 2.261 1_554 S
In169 O178 2.326 1_554 S
In169 O180 2.294 . S
In169 O181 2.326 . S
O170 In169 2.294 . S
O170 C179 1.240 . S
O171 In169 2.326 . S
O171 C179 1.252 . S
C172 O175 1.252 . S
C172 O176 1.260 . S
C173 O180 1.240 . S
C173 O181 1.252 . S
C174 O177 1.258 . S
C174 O178 1.260 . S
O175 In169 2.266 . S
O175 C172 1.252 . S
O176 In169 2.326 . S
O176 C172 1.260 . S
O177 In169 2.261 1_556 S
O177 C174 1.258 . S
O178 In169 2.326 1_556 S
O178 C174 1.260 . S
C179 O170 1.240 . S
C179 O171 1.252 . S
O180 In169 2.294 . S
O180 C173 1.240 . S
O181 In169 2.326 . S
O181 C173 1.252 . S
In182 O183 2.294 . S
In182 O184 2.326 . S
In182 O188 2.266 . S
In182 O189 2.326 . S
In182 O190 2.266 . S
In182 O191 2.326 . S
In182 O193 2.294 . S
In182 O194 2.326 . S
O183 In182 2.294 . S
O183 C192 1.240 . S
O184 In182 2.326 . S
O184 C192 1.252 . S
C185 O188 1.252 . S
C185 O189 1.260 . S
C186 O193 1.240 . S
C186 O194 1.252 . S
C187 O190 1.252 . S
C187 O191 1.260 . S
O188 In182 2.266 . S
O188 C185 1.252 . S
O189 In182 2.326 . S
O189 C185 1.260 . S
O190 In182 2.266 . S
O190 C187 1.252 . S
O191 In182 2.326 . S
O191 C187 1.260 . S
C192 O183 1.240 . S
C192 O184 1.252 . S
O193 In182 2.294 . S
O193 C186 1.240 . S
O194 In182 2.326 . S
O194 C186 1.252 . S
In195 O196 2.294 . S
In195 O197 2.326 . S
In195 O201 2.266 . S
In195 O202 2.326 . S
In195 O203 2.266 . S
In195 O204 2.326 . S
In195 O206 2.294 . S
In195 O207 2.326 . S
O196 In195 2.294 . S
O196 C205 1.240 . S
O197 In195 2.326 . S
O197 C205 1.252 . S
C198 O201 1.252 . S
C198 O202 1.260 . S
C199 O206 1.240 . S
C199 O207 1.252 . S
C200 O203 1.252 . S
C200 O204 1.260 . S
O201 In195 2.266 . S
O201 C198 1.252 . S
O202 In195 2.326 . S
O202 C198 1.260 . S
O203 In195 2.266 . S
O203 C200 1.252 . S
O204 In195 2.326 . S
O204 C200 1.260 . S
C205 O196 1.240 . S
C205 O197 1.252 . S
O206 In195 2.294 . S
O206 C199 1.240 . S
O207 In195 2.326 . S
O207 C199 1.252 . S
In208 O209 2.294 . S
In208 O210 2.326 . S
In208 O214 2.266 . S
In208 O215 2.326 . S
In208 O216 2.266 . S
In208 O217 2.326 . S
In208 O219 2.294 . S
In208 O220 2.326 . S
O209 In208 2.294 . S
O209 C218 1.240 . S
O210 In208 2.326 . S
O210 C218 1.252 . S
C211 O214 1.252 . S
C211 O215 1.260 . S
C212 O219 1.240 . S
C212 O220 1.252 . S
C213 O216 1.252 . S
C213 O217 1.260 . S
O214 In208 2.266 . S
O214 C211 1.252 . S
O215 In208 2.326 . S
O215 C211 1.260 . S
O216 In208 2.266 . S
O216 C213 1.252 . S
O217 In208 2.326 . S
O217 C213 1.260 . S
C218 O209 1.240 . S
C218 O210 1.252 . S
O219 In208 2.294 . S
O219 C212 1.240 . S
O220 In208 2.326 . S
O220 C212 1.252 . S
In221 O222 2.294 . S
In221 O223 2.326 . S
In221 O227 2.266 . S
In221 O228 2.326 . S
In221 O229 2.266 . S
In221 O230 2.326 . S
In221 O232 2.294 . S
In221 O233 2.326 . S
O222 In221 2.294 . S
O222 C231 1.240 . S
O223 In221 2.326 . S
O223 C231 1.252 . S
C224 O227 1.252 . S
C224 O228 1.260 . S
C225 O232 1.240 . S
C225 O233 1.252 . S
C226 O229 1.252 . S
C226 O230 1.260 . S
O227 In221 2.266 . S
O227 C224 1.252 . S
O228 In221 2.326 . S
O228 C224 1.260 . S
O229 In221 2.266 . S
O229 C226 1.252 . S
O230 In221 2.326 . S
O230 C226 1.260 . S
C231 O222 1.240 . S
C231 O223 1.252 . S
O232 In221 2.294 . S
O232 C225 1.240 . S
O233 In221 2.326 . S
O233 C225 1.252 . S
In234 O235 2.294 . S
In234 O236 2.326 . S
In234 O240 2.266 . S
In234 O241 2.326 . S
In234 O242 2.266 . S
In234 O243 2.326 . S
In234 O245 2.294 . S
In234 O246 2.326 . S
O235 In234 2.294 . S
O235 C244 1.240 . S
O236 In234 2.326 . S
O236 C244 1.252 . S
C237 O240 1.252 . S
C237 O241 1.260 . S
C238 O245 1.240 . S
C238 O246 1.252 . S
C239 O242 1.252 . S
C239 O243 1.260 . S
O240 In234 2.266 . S
O240 C237 1.252 . S
O241 In234 2.326 . S
O241 C237 1.260 . S
O242 In234 2.266 . S
O242 C239 1.252 . S
O243 In234 2.326 . S
O243 C239 1.260 . S
C244 O235 1.240 . S
C244 O236 1.252 . S
O245 In234 2.294 . S
O245 C238 1.240 . S
O246 In234 2.326 . S
O246 C238 1.252 . S
In247 O248 2.294 . S
In247 O249 2.326 . S
In247 O253 2.266 . S
In247 O254 2.326 . S
In247 O255 2.266 . S
In247 O256 2.326 . S
In247 O258 2.294 . S
In247 O259 2.326 . S
O248 In247 2.294 . S
O248 C257 1.240 . S
O249 In247 2.326 . S
O249 C257 1.252 . S
C250 O253 1.252 . S
C250 O254 1.260 . S
C251 O258 1.240 . S
C251 O259 1.252 . S
C252 O255 1.252 . S
C252 O256 1.260 . S
O253 In247 2.266 . S
O253 C250 1.252 . S
O254 In247 2.326 . S
O254 C250 1.260 . S
O255 In247 2.266 . S
O255 C252 1.252 . S
O256 In247 2.326 . S
O256 C252 1.260 . S
C257 O248 1.240 . S
C257 O249 1.252 . S
O258 In247 2.294 . S
O258 C251 1.240 . S
O259 In247 2.326 . S
O259 C251 1.252 . S
In260 O261 2.294 . S
In260 O262 2.326 . S
In260 O266 2.266 . S
In260 O267 2.326 . S
In260 O268 2.266 1_554 S
In260 O269 2.326 1_554 S
In260 O271 2.294 . S
In260 O272 2.326 . S
O261 In260 2.294 . S
O261 C270 1.240 . S
O262 In260 2.326 . S
O262 C270 1.252 . S
C263 O266 1.252 . S
C263 O267 1.260 . S
C264 O271 1.240 . S
C264 O272 1.252 . S
C265 O268 1.252 . S
C265 O269 1.260 . S
O266 In260 2.266 . S
O266 C263 1.252 . S
O267 In260 2.326 . S
O267 C263 1.260 . S
O268 In260 2.266 1_556 S
O268 C265 1.252 . S
O269 In260 2.326 1_556 S
O269 C265 1.260 . S
C270 O261 1.240 . S
C270 O262 1.252 . S
O271 In260 2.294 . S
O271 C264 1.240 . S
O272 In260 2.326 . S
O272 C264 1.252 . S
In273 O274 2.294 . S
In273 O275 2.326 . S
In273 O279 2.266 . S
In273 O280 2.326 . S
In273 O281 2.266 . S
In273 O282 2.326 . S
In273 O284 2.294 . S
In273 O285 2.326 . S
O274 In273 2.294 . S
O274 C283 1.240 . S
O275 In273 2.326 . S
O275 C283 1.252 . S
C276 O279 1.252 . S
C276 O280 1.260 . S
C277 O284 1.240 . S
C277 O285 1.252 . S
C278 O281 1.252 . S
C278 O282 1.260 . S
O279 In273 2.266 . S
O279 C276 1.252 . S
O280 In273 2.326 . S
O280 C276 1.260 . S
O281 In273 2.266 . S
O281 C278 1.252 . S
O282 In273 2.326 . S
O282 C278 1.260 . S
C283 O274 1.240 . S
C283 O275 1.252 . S
O284 In273 2.294 . S
O284 C277 1.240 . S
O285 In273 2.326 . S
O285 C277 1.252 . S
In286 O287 2.294 . S
In286 O288 2.326 . S
In286 O292 2.266 . S
In286 O293 2.326 . S
In286 O294 2.266 . S
In286 O295 2.326 . S
In286 O297 2.294 . S
In286 O298 2.326 . S
O287 In286 2.294 . S
O287 C296 1.240 . S
O288 In286 2.326 . S
O288 C296 1.252 . S
C289 O292 1.252 . S
C289 O293 1.260 . S
C290 O297 1.240 . S
C290 O298 1.252 . S
C291 O294 1.252 . S
C291 O295 1.260 . S
O292 In286 2.266 . S
O292 C289 1.252 . S
O293 In286 2.326 . S
O293 C289 1.260 . S
O294 In286 2.266 . S
O294 C291 1.252 . S
O295 In286 2.326 . S
O295 C291 1.260 . S
C296 O287 1.240 . S
C296 O288 1.252 . S
O297 In286 2.294 . S
O297 C290 1.240 . S
O298 In286 2.326 . S
O298 C290 1.252 . S
In299 O300 2.294 . S
In299 O301 2.326 . S
In299 O305 2.266 . S
In299 O306 2.326 . S
In299 O307 2.266 . S
In299 O308 2.326 . S
In299 O310 2.294 . S
In299 O311 2.326 . S
O300 In299 2.294 . S
O300 C309 1.240 . S
O301 In299 2.326 . S
O301 C309 1.252 . S
C302 O305 1.252 . S
C302 O306 1.260 . S
C303 O310 1.240 . S
C303 O311 1.252 . S
C304 O307 1.252 . S
C304 O308 1.260 . S
O305 In299 2.266 . S
O305 C302 1.252 . S
O306 In299 2.326 . S
O306 C302 1.260 . S
O307 In299 2.266 . S
O307 C304 1.252 . S
O308 In299 2.326 . S
O308 C304 1.260 . S
C309 O300 1.240 . S
C309 O301 1.252 . S
O310 In299 2.294 . S
O310 C303 1.240 . S
O311 In299 2.326 . S
O311 C303 1.252 . S
Ho312 C315 2.811 1_455 S
Ho312 O332 2.322 . S
Ho312 O334 2.378 1_454 S
Ho312 O335 2.517 1_455 S
Ho312 O336 2.381 1_554 S
Ho312 O337 2.669 . S
Ho312 O339 2.346 . S
Ho312 O343 2.305 . S
Ho313 C324 2.811 . S
Ho313 O333 2.346 . S
Ho313 O337 2.305 . S
Ho313 O338 2.322 . S
Ho313 O340 2.378 . S
Ho313 O341 2.524 . S
Ho313 O342 2.381 . S
Ho313 O343 2.669 . S
C314 O332 1.259 . S
C314 O333 1.268 . S
C315 Ho312 2.811 1_655 S
C315 C316 1.488 . S
C315 O334 1.215 1_554 S
C315 O335 1.292 . S
C316 C315 1.488 . S
C316 C317 1.348 . S
C316 C321 1.413 1_554 S
C317 C316 1.348 . S
C317 C318 1.442 . S
C317 H344 0.930 . S
C318 C317 1.442 . S
C318 C319 1.381 1_554 S
C318 H345 0.931 . S
C319 C318 1.381 1_556 S
C319 C320 1.321 . S
C320 C319 1.321 . S
C320 C321 1.403 . S
C320 H346 0.934 . S
C321 C316 1.413 1_556 S
C321 C320 1.403 . S
C321 H347 0.930 . S
C322 O336 1.275 . S
C322 O337 1.256 1_556 S
C323 O338 1.259 . S
C323 O339 1.268 . S
C324 Ho313 2.811 . S
C324 C325 1.488 . S
C324 O340 1.215 . S
C324 O341 1.289 . S
C325 C324 1.488 . S
C325 C326 1.348 . S
C325 C330 1.413 . S
C326 C325 1.348 . S
C326 C327 1.442 . S
C326 H348 0.930 . S
C327 C326 1.442 . S
C327 C328 1.381 . S
C327 H349 0.901 1_545 S
C328 C327 1.381 . S
C328 C329 1.321 . S
C329 C328 1.321 . S
C329 C330 1.403 . S
C329 H350 0.934 . S
C330 C325 1.413 . S
C330 C329 1.403 . S
C330 H351 0.930 . S
C331 O342 1.275 . S
C331 O343 1.256 . S
O332 Ho312 2.322 . S
O332 C314 1.259 . S
O333 Ho313 2.346 . S
O333 C314 1.268 . S
O334 Ho312 2.378 1_656 S
O334 C315 1.215 1_556 S
O335 Ho312 2.517 1_655 S
O335 C315 1.292 . S
O336 Ho312 2.381 1_556 S
O336 C322 1.275 . S
O337 Ho312 2.669 . S
O337 Ho313 2.305 . S
O337 C322 1.256 1_554 S
O338 Ho313 2.322 . S
O338 C323 1.259 . S
O339 Ho312 2.346 . S
O339 C323 1.268 . S
O340 Ho313 2.378 . S
O340 C324 1.215 . S
O341 Ho313 2.524 . S
O341 C324 1.289 . S
O342 Ho313 2.381 . S
O342 C331 1.275 . S
O343 Ho312 2.305 . S
O343 Ho313 2.669 . S
O343 C331 1.256 . S
H344 C317 0.930 . S
H345 C318 0.931 . S
H346 C320 0.934 . S
H347 C321 0.930 . S
H348 C326 0.930 . S
H349 C327 0.901 1_565 S
H350 C329 0.934 . S
H351 C330 0.930 . S
Ho352 C355 2.811 . S
Ho352 O372 2.322 . S
Ho352 O374 2.378 . S
Ho352 O375 2.524 . S
Ho352 O376 2.381 . S
Ho352 O377 2.669 . S
Ho352 O379 2.346 . S
Ho352 O383 2.305 . S
Ho353 C364 2.811 . S
Ho353 O373 2.346 . S
Ho353 O377 2.305 . S
Ho353 O378 2.322 . S
Ho353 O380 2.378 . S
Ho353 O381 2.524 . S
Ho353 O382 2.381 . S
Ho353 O383 2.669 . S
C354 O372 1.259 . S
C354 O373 1.268 . S
C355 Ho352 2.811 . S
C355 C356 1.488 . S
C355 O374 1.215 . S
C355 O375 1.289 . S
C356 C355 1.488 . S
C356 C357 1.348 . S
C356 C361 1.413 . S
C357 C356 1.348 . S
C357 C358 1.442 . S
C357 H384 0.930 . S
C358 C357 1.442 . S
C358 C359 1.381 . S
C358 H385 0.931 . S
C359 C358 1.381 . S
C359 C360 1.321 . S
C360 C359 1.321 . S
C360 C361 1.403 . S
C360 H386 0.934 . S
C361 C356 1.413 . S
C361 C360 1.403 . S
C361 H387 0.930 . S
C362 O376 1.275 . S
C362 O377 1.256 . S
C363 O378 1.259 . S
C363 O379 1.268 . S
C364 Ho353 2.811 . S
C364 C365 1.488 . S
C364 O380 1.215 . S
C364 O381 1.289 . S
C365 C364 1.488 . S
C365 C366 1.348 . S
C365 C370 1.413 . S
C366 C365 1.348 . S
C366 C367 1.442 . S
C366 H388 0.930 . S
C367 C366 1.442 . S
C367 C368 1.381 . S
C367 H389 0.931 . S
C368 C367 1.381 . S
C368 C369 1.321 . S
C369 C368 1.321 . S
C369 C370 1.403 . S
C369 H390 0.934 . S
C370 C365 1.413 . S
C370 C369 1.403 . S
C370 H391 0.930 . S
C371 O382 1.275 . S
C371 O383 1.256 . S
O372 Ho352 2.322 . S
O372 C354 1.259 . S
O373 Ho353 2.346 . S
O373 C354 1.268 . S
O374 Ho352 2.378 . S
O374 C355 1.215 . S
O375 Ho352 2.524 . S
O375 C355 1.289 . S
O376 Ho352 2.381 . S
O376 C362 1.275 . S
O377 Ho352 2.669 . S
O377 Ho353 2.305 . S
O377 C362 1.256 . S
O378 Ho353 2.322 . S
O378 C363 1.259 . S
O379 Ho352 2.346 . S
O379 C363 1.268 . S
O380 Ho353 2.378 . S
O380 C364 1.215 . S
O381 Ho353 2.524 . S
O381 C364 1.289 . S
O382 Ho353 2.381 . S
O382 C371 1.275 . S
O383 Ho352 2.305 . S
O383 Ho353 2.669 . S
O383 C371 1.256 . S
H384 C357 0.930 . S
H385 C358 0.931 . S
H386 C360 0.934 . S
H387 C361 0.930 . S
H388 C366 0.930 . S
H389 C367 0.931 . S
H390 C369 0.934 . S
H391 C370 0.930 . S
Ho392 C395 2.811 . S
Ho392 O412 2.322 1_545 S
Ho392 O414 2.378 . S
Ho392 O415 2.524 . S
Ho392 O416 2.381 . S
Ho392 O417 2.669 . S
Ho392 O419 2.346 . S
Ho392 O423 2.305 . S
Ho393 C404 2.811 . S
Ho393 O413 2.346 1_545 S
Ho393 O417 2.305 . S
Ho393 O418 2.322 . S
Ho393 O420 2.378 . S
Ho393 O421 2.524 . S
Ho393 O422 2.381 . S
Ho393 O423 2.669 . S
C394 O412 1.259 . S
C394 O413 1.268 . S
C395 Ho392 2.811 . S
C395 C396 1.488 1_545 S
C395 O414 1.215 . S
C395 O415 1.289 . S
C396 C395 1.488 1_565 S
C396 C397 1.348 . S
C396 C401 1.413 . S
C397 C396 1.348 . S
C397 C398 1.442 . S
C397 H424 0.930 . S
C398 C397 1.442 . S
C398 C399 1.381 . S
C398 H425 0.931 . S
C399 C398 1.381 . S
C399 C400 1.321 . S
C400 C399 1.321 . S
C400 C401 1.403 . S
C400 H426 0.934 . S
C401 C396 1.413 . S
C401 C400 1.403 . S
C401 H427 0.930 . S
C402 O416 1.275 . S
C402 O417 1.256 . S
C403 O418 1.259 . S
C403 O419 1.268 . S
C404 Ho393 2.811 . S
C404 C405 1.488 . S
C404 O420 1.215 . S
C404 O421 1.289 . S
C405 C404 1.488 . S
C405 C406 1.348 . S
C405 C410 1.413 . S
C406 C405 1.348 . S
C406 C407 1.442 . S
C406 H428 0.930 . S
C407 C406 1.442 . S
C407 C408 1.381 . S
C407 H429 0.931 . S
C408 C407 1.381 . S
C408 C409 1.321 . S
C409 C408 1.321 . S
C409 C410 1.403 . S
C409 H430 0.934 . S
C410 C405 1.413 . S
C410 C409 1.403 . S
C410 H431 0.930 . S
C411 O422 1.275 . S
C411 O423 1.256 . S
O412 Ho392 2.322 1_565 S
O412 C394 1.259 . S
O413 Ho393 2.346 1_565 S
O413 C394 1.268 . S
O414 Ho392 2.378 . S
O414 C395 1.215 . S
O415 Ho392 2.524 . S
O415 C395 1.289 . S
O416 Ho392 2.381 . S
O416 C402 1.275 . S
O417 Ho392 2.669 . S
O417 Ho393 2.305 . S
O417 C402 1.256 . S
O418 Ho393 2.322 . S
O418 C403 1.259 . S
O419 Ho392 2.346 . S
O419 C403 1.268 . S
O420 Ho393 2.378 . S
O420 C404 1.215 . S
O421 Ho393 2.524 . S
O421 C404 1.289 . S
O422 Ho393 2.381 . S
O422 C411 1.275 . S
O423 Ho392 2.305 . S
O423 Ho393 2.669 . S
O423 C411 1.256 . S
H424 C397 0.930 . S
H425 C398 0.931 . S
H426 C400 0.934 . S
H427 C401 0.930 . S
H428 C406 0.930 . S
H429 C407 0.931 . S
H430 C409 0.934 . S
H431 C410 0.930 . S
Ho432 C435 2.811 . S
Ho432 O452 2.322 . S
Ho432 O454 2.378 . S
Ho432 O455 2.524 . S
Ho432 O456 2.381 . S
Ho432 O457 2.669 . S
Ho432 O459 2.346 . S
Ho432 O463 2.305 . S
Ho433 C444 2.811 . S
Ho433 O453 2.346 . S
Ho433 O457 2.305 . S
Ho433 O458 2.322 . S
Ho433 O460 2.378 . S
Ho433 O461 2.524 . S
Ho433 O462 2.381 . S
Ho433 O463 2.669 . S
C434 O452 1.259 . S
C434 O453 1.268 . S
C435 Ho432 2.811 . S
C435 C436 1.488 . S
C435 O454 1.215 . S
C435 O455 1.289 . S
C436 C435 1.488 . S
C436 C437 1.348 . S
C436 C441 1.413 . S
C437 C436 1.348 . S
C437 C438 1.442 . S
C437 H464 0.930 . S
C438 C437 1.442 . S
C438 C439 1.381 . S
C438 H465 0.931 . S
C439 C438 1.381 . S
C439 C440 1.321 . S
C440 C439 1.321 . S
C440 C441 1.403 . S
C440 H466 0.934 . S
C441 C436 1.413 . S
C441 C440 1.403 . S
C441 H467 0.930 . S
C442 O456 1.275 . S
C442 O457 1.256 . S
C443 O458 1.259 . S
C443 O459 1.268 . S
C444 Ho433 2.811 . S
C444 C445 1.488 . S
C444 O460 1.215 . S
C444 O461 1.289 . S
C445 C444 1.488 . S
C445 C446 1.348 . S
C445 C450 1.413 . S
C446 C445 1.348 . S
C446 C447 1.442 . S
C446 H468 0.930 . S
C447 C446 1.442 . S
C447 C448 1.381 . S
C447 H469 0.931 . S
C448 C447 1.381 . S
C448 C449 1.321 . S
C449 C448 1.321 . S
C449 C450 1.403 . S
C449 H470 0.934 . S
C450 C445 1.413 . S
C450 C449 1.403 . S
C450 H471 0.930 . S
C451 O462 1.275 . S
C451 O463 1.256 . S
O452 Ho432 2.322 . S
O452 C434 1.259 . S
O453 Ho433 2.346 . S
O453 C434 1.268 . S
O454 Ho432 2.378 . S
O454 C435 1.215 . S
O455 Ho432 2.524 . S
O455 C435 1.289 . S
O456 Ho432 2.381 . S
O456 C442 1.275 . S
O457 Ho432 2.669 . S
O457 Ho433 2.305 . S
O457 C442 1.256 . S
O458 Ho433 2.322 . S
O458 C443 1.259 . S
O459 Ho432 2.346 . S
O459 C443 1.268 . S
O460 Ho433 2.378 . S
O460 C444 1.215 . S
O461 Ho433 2.524 . S
O461 C444 1.289 . S
O462 Ho433 2.381 . S
O462 C451 1.275 . S
O463 Ho432 2.305 . S
O463 Ho433 2.669 . S
O463 C451 1.256 . S
H464 C437 0.930 . S
H465 C438 0.931 . S
H466 C440 0.934 . S
H467 C441 0.930 . S
H468 C446 0.930 . S
H469 C447 0.931 . S
H470 C449 0.934 . S
H471 C450 0.930 . S
Ho472 C475 2.811 . S
Ho472 O492 2.322 . S
Ho472 O494 2.378 . S
Ho472 O495 2.524 . S
Ho472 O496 2.381 . S
Ho472 O497 2.669 . S
Ho472 O499 2.346 . S
Ho472 O503 2.305 . S
Ho473 C484 2.811 . S
Ho473 O493 2.346 1_565 S
Ho473 O497 2.305 1_565 S
Ho473 O498 2.322 1_565 S
Ho473 O500 2.378 . S
Ho473 O501 2.524 . S
Ho473 O502 2.381 1_565 S
Ho473 O503 2.669 1_565 S
C474 O492 1.259 . S
C474 O493 1.268 . S
C475 Ho472 2.811 . S
C475 C476 1.488 . S
C475 O494 1.215 . S
C475 O495 1.289 . S
C476 C475 1.488 . S
C476 C477 1.348 . S
C476 C481 1.413 . S
C477 C476 1.348 . S
C477 C478 1.442 . S
C477 H504 0.930 . S
C478 C477 1.442 . S
C478 C479 1.381 . S
C478 H505 0.931 . S
C479 C478 1.381 . S
C479 C480 1.321 . S
C480 C479 1.321 . S
C480 C481 1.403 . S
C480 H506 0.934 . S
C481 C476 1.413 . S
C481 C480 1.403 . S
C481 H507 0.930 . S
C482 O496 1.275 . S
C482 O497 1.256 . S
C483 O498 1.259 . S
C483 O499 1.268 . S
C484 Ho473 2.811 . S
C484 C485 1.488 . S
C484 O500 1.215 . S
C484 O501 1.289 . S
C485 C484 1.488 . S
C485 C486 1.348 . S
C485 C490 1.413 . S
C486 C485 1.348 . S
C486 C487 1.442 . S
C486 H508 0.930 . S
C487 C486 1.442 . S
C487 C488 1.381 . S
C487 H509 0.931 . S
C488 C487 1.381 . S
C488 C489 1.321 . S
C489 C488 1.321 . S
C489 C490 1.403 . S
C489 H510 0.934 . S
C490 C485 1.413 . S
C490 C489 1.403 . S
C490 H511 0.930 . S
C491 O502 1.275 . S
C491 O503 1.256 . S
O492 Ho472 2.322 . S
O492 C474 1.259 . S
O493 Ho473 2.346 1_545 S
O493 C474 1.268 . S
O494 Ho472 2.378 . S
O494 C475 1.215 . S
O495 Ho472 2.524 . S
O495 C475 1.289 . S
O496 Ho472 2.381 . S
O496 C482 1.275 . S
O497 Ho472 2.669 . S
O497 Ho473 2.305 1_545 S
O497 C482 1.256 . S
O498 Ho473 2.322 1_545 S
O498 C483 1.259 . S
O499 Ho472 2.346 . S
O499 C483 1.268 . S
O500 Ho473 2.378 . S
O500 C484 1.215 . S
O501 Ho473 2.524 . S
O501 C484 1.289 . S
O502 Ho473 2.381 1_545 S
O502 C491 1.275 . S
O503 Ho472 2.305 . S
O503 Ho473 2.669 1_545 S
O503 C491 1.256 . S
H504 C477 0.930 . S
H505 C478 0.931 . S
H506 C480 0.934 . S
H507 C481 0.930 . S
H508 C486 0.930 . S
H509 C487 0.931 . S
H510 C489 0.934 . S
H511 C490 0.930 . S
Ho512 C515 2.811 . S
Ho512 O532 2.322 . S
Ho512 O534 2.378 . S
Ho512 O535 2.524 . S
Ho512 O536 2.381 . S
Ho512 O537 2.669 . S
Ho512 O539 2.346 . S
Ho512 O543 2.305 . S
Ho513 C524 2.811 . S
Ho513 O533 2.346 . S
Ho513 O537 2.305 . S
Ho513 O538 2.322 . S
Ho513 O540 2.378 . S
Ho513 O541 2.524 . S
Ho513 O542 2.381 . S
Ho513 O543 2.669 . S
C514 O532 1.259 . S
C514 O533 1.268 . S
C515 Ho512 2.811 . S
C515 C516 1.488 . S
C515 O534 1.215 . S
C515 O535 1.289 . S
C516 C515 1.488 . S
C516 C517 1.348 . S
C516 C521 1.413 . S
C517 C516 1.348 . S
C517 C518 1.442 . S
C517 H544 0.930 . S
C518 C517 1.442 . S
C518 C519 1.381 . S
C518 H545 0.931 . S
C519 C518 1.381 . S
C519 C520 1.321 . S
C520 C519 1.321 . S
C520 C521 1.403 . S
C520 H546 0.934 . S
C521 C516 1.413 . S
C521 C520 1.403 . S
C521 H547 0.930 . S
C522 O536 1.275 . S
C522 O537 1.256 . S
C523 O538 1.259 . S
C523 O539 1.268 . S
C524 Ho513 2.811 . S
C524 C525 1.488 . S
C524 O540 1.215 . S
C524 O541 1.289 . S
C525 C524 1.488 . S
C525 C526 1.348 . S
C525 C530 1.413 . S
C526 C525 1.348 . S
C526 C527 1.442 . S
C526 H548 0.930 . S
C527 C526 1.442 . S
C527 C528 1.381 . S
C527 H549 0.931 . S
C528 C527 1.381 . S
C528 C529 1.321 . S
C529 C528 1.321 . S
C529 C530 1.403 . S
C529 H550 0.934 . S
C530 C525 1.413 . S
C530 C529 1.403 . S
C530 H551 0.930 . S
C531 O542 1.275 . S
C531 O543 1.256 . S
O532 Ho512 2.322 . S
O532 C514 1.259 . S
O533 Ho513 2.346 . S
O533 C514 1.268 . S
O534 Ho512 2.378 . S
O534 C515 1.215 . S
O535 Ho512 2.524 . S
O535 C515 1.289 . S
O536 Ho512 2.381 . S
O536 C522 1.275 . S
O537 Ho512 2.669 . S
O537 Ho513 2.305 . S
O537 C522 1.256 . S
O538 Ho513 2.322 . S
O538 C523 1.259 . S
O539 Ho512 2.346 . S
O539 C523 1.268 . S
O540 Ho513 2.378 . S
O540 C524 1.215 . S
O541 Ho513 2.524 . S
O541 C524 1.289 . S
O542 Ho513 2.381 . S
O542 C531 1.275 . S
O543 Ho512 2.305 . S
O543 Ho513 2.669 . S
O543 C531 1.256 . S
H544 C517 0.930 . S
H545 C518 0.931 . S
H546 C520 0.934 . S
H547 C521 0.930 . S
H548 C526 0.930 . S
H549 C527 0.931 . S
H550 C529 0.934 . S
H551 C530 0.930 . S
Ho552 C555 2.811 . S
Ho552 O572 2.322 . S
Ho552 O574 2.378 . S
Ho552 O575 2.524 . S
Ho552 O576 2.381 . S
Ho552 O577 2.669 1_554 S
Ho552 O579 2.346 . S
Ho552 O583 2.305 . S
Ho553 C564 2.811 . S
Ho553 O573 2.346 . S
Ho553 O577 2.305 . S
Ho553 O578 2.322 . S
Ho553 O580 2.378 . S
Ho553 O581 2.524 . S
Ho553 O582 2.381 . S
Ho553 O583 2.669 1_556 S
C554 O572 1.259 . S
C554 O573 1.268 1_554 S
C555 Ho552 2.811 . S
C555 C556 1.488 . S
C555 O574 1.215 . S
C555 O575 1.289 . S
C556 C555 1.488 . S
C556 C557 1.348 . S
C556 C561 1.413 . S
C557 C556 1.348 . S
C557 C558 1.442 . S
C557 H584 0.930 . S
C558 C557 1.442 . S
C558 C559 1.381 . S
C558 H585 0.931 . S
C559 C558 1.381 . S
C559 C560 1.321 1_545 S
C560 C559 1.321 1_565 S
C560 C561 1.403 1_565 S
C560 H586 0.934 . S
C561 C556 1.413 . S
C561 C560 1.403 1_545 S
C561 H587 0.930 1_545 S
C562 O576 1.275 1_556 S
C562 O577 1.256 . S
C563 O578 1.259 1_554 S
C563 O579 1.268 . S
C564 Ho553 2.811 . S
C564 C565 1.488 . S
C564 O580 1.215 . S
C564 O581 1.289 . S
C565 C564 1.488 . S
C565 C566 1.348 . S
C565 C570 1.413 . S
C566 C565 1.348 . S
C566 C567 1.442 . S
C566 H588 0.930 . S
C567 C566 1.442 . S
C567 C568 1.381 . S
C567 H589 0.931 . S
C568 C567 1.381 . S
C568 C569 1.321 . S
C569 C568 1.321 . S
C569 C570 1.403 . S
C569 H590 0.934 . S
C570 C565 1.413 . S
C570 C569 1.403 . S
C570 H591 0.930 . S
C571 O582 1.275 1_554 S
C571 O583 1.256 . S
O572 Ho552 2.322 . S
O572 C554 1.259 . S
O573 Ho553 2.346 . S
O573 C554 1.268 1_556 S
O574 Ho552 2.378 . S
O574 C555 1.215 . S
O575 Ho552 2.524 . S
O575 C555 1.289 . S
O576 Ho552 2.381 . S
O576 C562 1.275 1_554 S
O577 Ho552 2.669 1_556 S
O577 Ho553 2.305 . S
O577 C562 1.256 . S
O578 Ho553 2.322 . S
O578 C563 1.259 1_556 S
O579 Ho552 2.346 . S
O579 C563 1.268 . S
O580 Ho553 2.378 . S
O580 C564 1.215 . S
O581 Ho553 2.524 . S
O581 C564 1.289 . S
O582 Ho553 2.381 . S
O582 C571 1.275 1_556 S
O583 Ho552 2.305 . S
O583 Ho553 2.669 1_554 S
O583 C571 1.256 . S
H584 C557 0.930 . S
H585 C558 0.931 . S
H586 C560 0.934 . S
H587 C561 0.930 1_565 S
H588 C566 0.930 . S
H589 C567 0.931 . S
H590 C569 0.934 . S
H591 C570 0.930 . S
Ho592 C595 2.811 . S
Ho592 O612 2.322 . S
Ho592 O614 2.378 . S
Ho592 O615 2.524 . S
Ho592 O616 2.381 . S
Ho592 O617 2.669 . S
Ho592 O619 2.346 . S
Ho592 O623 2.305 . S
Ho593 C604 2.811 . S
Ho593 O613 2.346 . S
Ho593 O617 2.305 . S
Ho593 O618 2.322 . S
Ho593 O620 2.378 . S
Ho593 O621 2.524 . S
Ho593 O622 2.381 . S
Ho593 O623 2.669 . S
C594 O612 1.259 . S
C594 O613 1.268 . S
C595 Ho592 2.811 . S
C595 C596 1.488 . S
C595 O614 1.215 . S
C595 O615 1.289 . S
C596 C595 1.488 . S
C596 C597 1.348 . S
C596 C601 1.413 . S
C597 C596 1.348 . S
C597 C598 1.442 . S
C597 H624 0.930 . S
C598 C597 1.442 . S
C598 C599 1.381 . S
C598 H625 0.931 . S
C599 C598 1.381 . S
C599 C600 1.321 . S
C600 C599 1.321 . S
C600 C601 1.403 . S
C600 H626 0.934 . S
C601 C596 1.413 . S
C601 C600 1.403 . S
C601 H627 0.930 . S
C602 O616 1.275 . S
C602 O617 1.256 . S
C603 O618 1.259 . S
C603 O619 1.268 . S
C604 Ho593 2.811 . S
C604 C605 1.488 . S
C604 O620 1.215 . S
C604 O621 1.289 . S
C605 C604 1.488 . S
C605 C606 1.348 . S
C605 C610 1.413 . S
C606 C605 1.348 . S
C606 C607 1.442 . S
C606 H628 0.930 . S
C607 C606 1.442 . S
C607 C608 1.381 . S
C607 H629 0.931 . S
C608 C607 1.381 . S
C608 C609 1.321 . S
C609 C608 1.321 . S
C609 C610 1.403 . S
C609 H630 0.934 . S
C610 C605 1.413 . S
C610 C609 1.403 . S
C610 H631 0.930 . S
C611 O622 1.275 . S
C611 O623 1.256 . S
O612 Ho592 2.322 . S
O612 C594 1.259 . S
O613 Ho593 2.346 . S
O613 C594 1.268 . S
O614 Ho592 2.378 . S
O614 C595 1.215 . S
O615 Ho592 2.524 . S
O615 C595 1.289 . S
O616 Ho592 2.381 . S
O616 C602 1.275 . S
O617 Ho592 2.669 . S
O617 Ho593 2.305 . S
O617 C602 1.256 . S
O618 Ho593 2.322 . S
O618 C603 1.259 . S
O619 Ho592 2.346 . S
O619 C603 1.268 . S
O620 Ho593 2.378 . S
O620 C604 1.215 . S
O621 Ho593 2.524 . S
O621 C604 1.289 . S
O622 Ho593 2.381 . S
O622 C611 1.275 . S
O623 Ho592 2.305 . S
O623 Ho593 2.669 . S
O623 C611 1.256 . S
H624 C597 0.930 . S
H625 C598 0.931 . S
H626 C600 0.934 . S
H627 C601 0.930 . S
H628 C606 0.930 . S
H629 C607 0.931 . S
H630 C609 0.934 . S
H631 C610 0.930 . S
Ho632 C635 2.811 1_554 S
Ho632 O652 2.322 1_554 S
Ho632 O654 2.378 . S
Ho632 O655 2.524 1_554 S
Ho632 O656 2.381 . S
Ho632 O657 2.669 . S
Ho632 O659 2.346 . S
Ho632 O663 2.305 . S
Ho633 C644 2.811 1_556 S
Ho633 O653 2.346 . S
Ho633 O657 2.305 1_556 S
Ho633 O658 2.322 1_556 S
Ho633 O660 2.378 1_556 S
Ho633 O661 2.524 1_556 S
Ho633 O662 2.381 . S
Ho633 O663 2.669 1_556 S
C634 O652 1.259 . S
C634 O653 1.268 . S
C635 Ho632 2.811 1_556 S
C635 C636 1.488 . S
C635 O654 1.215 1_556 S
C635 O655 1.289 . S
C636 C635 1.488 . S
C636 C637 1.348 . S
C636 C641 1.413 . S
C637 C636 1.348 . S
C637 C638 1.442 . S
C637 H664 0.930 . S
C638 C637 1.442 . S
C638 C639 1.381 . S
C638 H665 0.931 . S
C639 C638 1.381 . S
C639 C640 1.321 . S
C640 C639 1.321 . S
C640 C641 1.403 . S
C640 H666 0.934 . S
C641 C636 1.413 . S
C641 C640 1.403 . S
C641 H667 0.930 . S
C642 O656 1.275 . S
C642 O657 1.256 . S
C643 O658 1.259 . S
C643 O659 1.268 . S
C644 Ho633 2.811 1_554 S
C644 C645 1.488 . S
C644 O660 1.215 . S
C644 O661 1.289 . S
C645 C644 1.488 . S
C645 C646 1.348 . S
C645 C650 1.413 . S
C646 C645 1.348 . S
C646 C647 1.442 . S
C646 H668 0.930 . S
C647 C646 1.442 . S
C647 C648 1.381 . S
C647 H669 0.931 . S
C648 C647 1.381 . S
C648 C649 1.321 . S
C649 C648 1.321 . S
C649 C650 1.403 . S
C649 H670 0.934 . S
C650 C645 1.413 . S
C650 C649 1.403 . S
C650 H671 0.930 . S
C651 O662 1.275 1_554 S
C651 O663 1.265 . S
O652 Ho632 2.322 1_556 S
O652 C634 1.259 . S
O653 Ho633 2.346 . S
O653 C634 1.268 . S
O654 Ho632 2.378 . S
O654 C635 1.215 1_554 S
O655 Ho632 2.524 1_556 S
O655 C635 1.289 . S
O656 Ho632 2.381 . S
O656 C642 1.275 . S
O657 Ho632 2.669 . S
O657 Ho633 2.305 1_554 S
O657 C642 1.256 . S
O658 Ho633 2.322 1_554 S
O658 C643 1.259 . S
O659 Ho632 2.346 . S
O659 C643 1.268 . S
O660 Ho633 2.378 1_554 S
O660 C644 1.215 . S
O661 Ho633 2.524 1_554 S
O661 C644 1.289 . S
O662 Ho633 2.381 . S
O662 C651 1.275 1_556 S
O663 Ho632 2.305 . S
O663 Ho633 2.669 1_554 S
O663 C651 1.265 . S
H664 C637 0.930 . S
H665 C638 0.931 . S
H666 C640 0.934 . S
H667 C641 0.930 . S
H668 C646 0.930 . S
H669 C647 0.931 . S
H670 C649 0.934 . S
H671 C650 0.930 . S
Ho672 C675 2.811 . S
Ho672 O692 2.322 . S
Ho672 O694 2.378 . S
Ho672 O695 2.524 . S
Ho672 O696 2.381 . S
Ho672 O697 2.669 . S
Ho672 O699 2.346 . S
Ho672 O703 2.305 . S
Ho673 C684 2.811 . S
Ho673 O693 2.346 . S
Ho673 O697 2.305 . S
Ho673 O698 2.322 . S
Ho673 O700 2.378 . S
Ho673 O701 2.524 . S
Ho673 O702 2.381 . S
Ho673 O703 2.669 . S
C674 O692 1.259 . S
C674 O693 1.268 . S
C675 Ho672 2.811 . S
C675 C676 1.488 . S
C675 O694 1.215 . S
C675 O695 1.289 . S
C676 C675 1.488 . S
C676 C677 1.348 . S
C676 C681 1.413 . S
C677 C676 1.348 . S
C677 C678 1.442 . S
C677 H704 0.930 . S
C678 C677 1.442 . S
C678 C679 1.381 . S
C678 H705 0.931 . S
C679 C678 1.381 . S
C679 C680 1.321 . S
C680 C679 1.321 . S
C680 C681 1.403 . S
C680 H706 0.934 . S
C681 C676 1.413 . S
C681 C680 1.403 . S
C681 H707 0.930 . S
C682 O696 1.275 . S
C682 O697 1.256 . S
C683 O698 1.259 . S
C683 O699 1.268 . S
C684 Ho673 2.811 . S
C684 C685 1.488 . S
C684 O700 1.215 . S
C684 O701 1.289 . S
C685 C684 1.488 . S
C685 C686 1.348 . S
C685 C690 1.413 . S
C686 C685 1.348 . S
C686 C687 1.442 . S
C686 H708 0.930 . S
C687 C686 1.442 . S
C687 C688 1.381 . S
C687 H709 0.931 . S
C688 C687 1.381 . S
C688 C689 1.321 . S
C689 C688 1.321 . S
C689 C690 1.403 . S
C689 H710 0.934 . S
C690 C685 1.413 . S
C690 C689 1.403 . S
C690 H711 0.930 . S
C691 O702 1.275 . S
C691 O703 1.256 . S
O692 Ho672 2.322 . S
O692 C674 1.259 . S
O693 Ho673 2.346 . S
O693 C674 1.268 . S
O694 Ho672 2.378 . S
O694 C675 1.215 . S
O695 Ho672 2.524 . S
O695 C675 1.289 . S
O696 Ho672 2.381 . S
O696 C682 1.275 . S
O697 Ho672 2.669 . S
O697 Ho673 2.305 . S
O697 C682 1.256 . S
O698 Ho673 2.322 . S
O698 C683 1.259 . S
O699 Ho672 2.346 . S
O699 C683 1.268 . S
O700 Ho673 2.378 . S
O700 C684 1.215 . S
O701 Ho673 2.524 . S
O701 C684 1.289 . S
O702 Ho673 2.381 . S
O702 C691 1.275 . S
O703 Ho672 2.305 . S
O703 Ho673 2.669 . S
O703 C691 1.256 . S
H704 C677 0.930 . S
H705 C678 0.931 . S
H706 C680 0.934 . S
H707 C681 0.930 . S
H708 C686 0.930 . S
H709 C687 0.931 . S
H710 C689 0.934 . S
H711 C690 0.930 . S
Ho712 C715 2.811 . S
Ho712 O732 2.322 1_455 S
Ho712 O734 2.378 . S
Ho712 O735 2.524 . S
Ho712 O736 2.381 . S
Ho712 O737 2.669 . S
Ho712 O739 2.346 . S
Ho712 O743 2.305 . S
Ho713 C724 2.811 . S
Ho713 O733 2.346 1_455 S
Ho713 O737 2.305 . S
Ho713 O738 2.322 . S
Ho713 O740 2.378 . S
Ho713 O741 2.524 . S
Ho713 O742 2.381 . S
Ho713 O743 2.669 . S
C714 O732 1.259 . S
C714 O733 1.268 . S
C715 Ho712 2.811 . S
C715 C716 1.488 1_455 S
C715 O734 1.215 . S
C715 O735 1.289 . S
C716 C715 1.488 1_655 S
C716 C717 1.348 . S
C716 C721 1.413 . S
C717 C716 1.348 . S
C717 C718 1.442 . S
C717 H744 0.930 . S
C718 C717 1.442 . S
C718 C719 1.381 . S
C718 H745 0.931 . S
C719 C718 1.381 . S
C719 C720 1.321 . S
C720 C719 1.321 . S
C720 C721 1.403 . S
C720 H746 0.934 . S
C721 C716 1.413 . S
C721 C720 1.403 . S
C721 H747 0.930 1_655 S
C722 O736 1.275 . S
C722 O737 1.256 . S
C723 O738 1.259 . S
C723 O739 1.268 . S
C724 Ho713 2.811 . S
C724 C725 1.488 . S
C724 O740 1.215 . S
C724 O741 1.289 . S
C725 C724 1.488 . S
C725 C726 1.348 . S
C725 C730 1.413 . S
C726 C725 1.348 . S
C726 C727 1.442 . S
C726 H748 0.930 . S
C727 C726 1.442 . S
C727 C728 1.381 . S
C727 H749 0.931 . S
C728 C727 1.381 . S
C728 C729 1.321 . S
C729 C728 1.321 . S
C729 C730 1.403 . S
C729 H750 0.934 . S
C730 C725 1.413 . S
C730 C729 1.403 . S
C730 H751 0.930 . S
C731 O742 1.275 . S
C731 O743 1.256 . S
O732 Ho712 2.322 1_655 S
O732 C714 1.259 . S
O733 Ho713 2.346 1_655 S
O733 C714 1.268 . S
O734 Ho712 2.378 . S
O734 C715 1.215 . S
O735 Ho712 2.524 . S
O735 C715 1.289 . S
O736 Ho712 2.381 . S
O736 C722 1.275 . S
O737 Ho712 2.669 . S
O737 Ho713 2.305 . S
O737 C722 1.256 . S
O738 Ho713 2.322 . S
O738 C723 1.259 . S
O739 Ho712 2.346 . S
O739 C723 1.268 . S
O740 Ho713 2.378 . S
O740 C724 1.215 . S
O741 Ho713 2.524 . S
O741 C724 1.289 . S
O742 Ho713 2.381 . S
O742 C731 1.275 . S
O743 Ho712 2.305 . S
O743 Ho713 2.669 . S
O743 C731 1.256 . S
H744 C717 0.930 . S
H745 C718 0.931 . S
H746 C720 0.934 . S
H747 C721 0.930 1_455 S
H748 C726 0.930 . S
H749 C727 0.931 . S
H750 C729 0.934 . S
H751 C730 0.930 . S
Ho752 C755 2.811 . S
Ho752 O772 2.322 . S
Ho752 O774 2.378 . S
Ho752 O775 2.524 . S
Ho752 O776 2.381 . S
Ho752 O777 2.669 . S
Ho752 O779 2.346 . S
Ho752 O783 2.305 . S
Ho753 C764 2.811 . S
Ho753 O773 2.346 . S
Ho753 O777 2.305 . S
Ho753 O778 2.322 . S
Ho753 O780 2.378 . S
Ho753 O781 2.524 . S
Ho753 O782 2.381 . S
Ho753 O783 2.669 . S
C754 O772 1.259 . S
C754 O773 1.268 . S
C755 Ho752 2.811 . S
C755 C756 1.488 . S
C755 O774 1.215 . S
C755 O775 1.289 . S
C756 C755 1.488 . S
C756 C757 1.348 . S
C756 C761 1.413 . S
C757 C756 1.348 . S
C757 C758 1.442 . S
C757 H784 0.930 . S
C758 C757 1.442 . S
C758 C759 1.381 . S
C758 H785 0.931 . S
C759 C758 1.381 . S
C759 C760 1.321 . S
C760 C759 1.321 . S
C760 C761 1.403 . S
C760 H786 0.934 . S
C761 C756 1.413 . S
C761 C760 1.403 . S
C761 H787 0.930 . S
C762 O776 1.275 . S
C762 O777 1.256 . S
C763 O778 1.259 . S
C763 O779 1.268 . S
C764 Ho753 2.811 . S
C764 C765 1.488 . S
C764 O780 1.215 . S
C764 O781 1.289 . S
C765 C764 1.488 . S
C765 C766 1.348 . S
C765 C770 1.413 . S
C766 C765 1.348 . S
C766 C767 1.442 . S
C766 H788 0.930 . S
C767 C766 1.442 . S
C767 C768 1.381 . S
C767 H789 0.931 . S
C768 C767 1.381 . S
C768 C769 1.321 . S
C769 C768 1.321 . S
C769 C770 1.403 . S
C769 H790 0.934 . S
C770 C765 1.413 . S
C770 C769 1.403 . S
C770 H791 0.930 . S
C771 O782 1.275 . S
C771 O783 1.256 . S
O772 Ho752 2.322 . S
O772 C754 1.259 . S
O773 Ho753 2.346 . S
O773 C754 1.268 . S
O774 Ho752 2.378 . S
O774 C755 1.215 . S
O775 Ho752 2.524 . S
O775 C755 1.289 . S
O776 Ho752 2.381 . S
O776 C762 1.275 . S
O777 Ho752 2.669 . S
O777 Ho753 2.305 . S
O777 C762 1.256 . S
O778 Ho753 2.322 . S
O778 C763 1.259 . S
O779 Ho752 2.346 . S
O779 C763 1.268 . S
O780 Ho753 2.378 . S
O780 C764 1.215 . S
O781 Ho753 2.524 . S
O781 C764 1.289 . S
O782 Ho753 2.381 . S
O782 C771 1.275 . S
O783 Ho752 2.305 . S
O783 Ho753 2.669 . S
O783 C771 1.256 . S
H784 C757 0.930 . S
H785 C758 0.931 . S
H786 C760 0.934 . S
H787 C761 0.930 . S
H788 C766 0.930 . S
H789 C767 0.931 . S
H790 C769 0.934 . S
H791 C770 0.930 . S
Ho792 C795 2.811 . S
Ho792 O812 2.322 . S
Ho792 O814 2.378 . S
Ho792 O815 2.524 . S
Ho792 O816 2.381 . S
Ho792 O817 2.669 . S
Ho792 O819 2.346 . S
Ho792 O823 2.305 . S
Ho793 C804 2.811 . S
Ho793 O813 2.346 . S
Ho793 O817 2.305 . S
Ho793 O818 2.322 . S
Ho793 O820 2.378 . S
Ho793 O821 2.524 . S
Ho793 O822 2.381 . S
Ho793 O823 2.669 . S
C794 O812 1.259 . S
C794 O813 1.268 . S
C795 Ho792 2.811 . S
C795 C796 1.488 . S
C795 O814 1.215 . S
C795 O815 1.289 . S
C796 C795 1.488 . S
C796 C797 1.348 . S
C796 C801 1.413 . S
C797 C796 1.348 . S
C797 C798 1.442 . S
C797 H824 0.930 . S
C798 C797 1.442 . S
C798 C799 1.381 . S
C798 H825 0.931 . S
C799 C798 1.381 . S
C799 C800 1.321 . S
C800 C799 1.321 . S
C800 C801 1.403 . S
C800 H826 0.934 . S
C801 C796 1.413 . S
C801 C800 1.403 . S
C801 H827 0.930 . S
C802 O816 1.275 . S
C802 O817 1.256 . S
C803 O818 1.259 . S
C803 O819 1.268 . S
C804 Ho793 2.811 . S
C804 C805 1.488 . S
C804 O820 1.215 . S
C804 O821 1.289 . S
C805 C804 1.488 . S
C805 C806 1.348 . S
C805 C810 1.413 . S
C806 C805 1.348 . S
C806 C807 1.442 . S
C806 H828 0.930 . S
C807 C806 1.442 . S
C807 C808 1.381 . S
C807 H829 0.931 . S
C808 C807 1.381 . S
C808 C809 1.321 . S
C809 C808 1.321 . S
C809 C810 1.403 . S
C809 H830 0.934 . S
C810 C805 1.413 . S
C810 C809 1.403 . S
C810 H831 0.930 . S
C811 O822 1.275 . S
C811 O823 1.256 . S
O812 Ho792 2.322 . S
O812 C794 1.259 . S
O813 Ho793 2.346 . S
O813 C794 1.268 . S
O814 Ho792 2.378 . S
O814 C795 1.215 . S
O815 Ho792 2.524 . S
O815 C795 1.289 . S
O816 Ho792 2.381 . S
O816 C802 1.275 . S
O817 Ho792 2.669 . S
O817 Ho793 2.305 . S
O817 C802 1.256 . S
O818 Ho793 2.322 . S
O818 C803 1.259 . S
O819 Ho792 2.346 . S
O819 C803 1.268 . S
O820 Ho793 2.378 . S
O820 C804 1.215 . S
O821 Ho793 2.524 . S
O821 C804 1.289 . S
O822 Ho793 2.381 . S
O822 C811 1.275 . S
O823 Ho792 2.305 . S
O823 Ho793 2.669 . S
O823 C811 1.256 . S
H824 C797 0.930 . S
H825 C798 0.931 . S
H826 C800 0.934 . S
H827 C801 0.930 . S
H828 C806 0.930 . S
H829 C807 0.931 . S
H830 C809 0.934 . S
H831 C810 0.930 . S
Ho832 C835 2.811 . S
Ho832 O852 2.322 . S
Ho832 O854 2.378 . S
Ho832 O855 2.524 . S
Ho832 O856 2.381 . S
Ho832 O857 2.669 . S
Ho832 O859 2.346 . S
Ho832 O863 2.305 . S
Ho833 C844 2.811 . S
Ho833 O853 2.346 . S
Ho833 O857 2.305 . S
Ho833 O858 2.322 . S
Ho833 O860 2.378 . S
Ho833 O861 2.524 . S
Ho833 O862 2.381 . S
Ho833 O863 2.669 . S
C834 O852 1.259 . S
C834 O853 1.268 . S
C835 Ho832 2.811 . S
C835 C836 1.488 . S
C835 O854 1.215 . S
C835 O855 1.289 . S
C836 C835 1.488 . S
C836 C837 1.348 . S
C836 C841 1.413 . S
C837 C836 1.348 . S
C837 C838 1.442 . S
C837 H864 0.930 . S
C838 C837 1.442 . S
C838 C839 1.381 . S
C838 H865 0.931 . S
C839 C838 1.381 . S
C839 C840 1.321 . S
C840 C839 1.321 . S
C840 C841 1.403 . S
C840 H866 0.934 . S
C841 C836 1.413 . S
C841 C840 1.403 . S
C841 H867 0.930 . S
C842 O856 1.275 . S
C842 O857 1.256 . S
C843 O858 1.259 . S
C843 O859 1.268 . S
C844 Ho833 2.811 . S
C844 C845 1.488 . S
C844 O860 1.215 . S
C844 O861 1.289 . S
C845 C844 1.488 . S
C845 C846 1.348 . S
C845 C850 1.413 . S
C846 C845 1.348 . S
C846 C847 1.442 . S
C846 H868 0.930 . S
C847 C846 1.442 . S
C847 C848 1.381 . S
C847 H869 0.931 . S
C848 C847 1.381 . S
C848 C849 1.321 . S
C849 C848 1.321 . S
C849 C850 1.403 . S
C849 H870 0.934 . S
C850 C845 1.413 . S
C850 C849 1.403 . S
C850 H871 0.930 . S
C851 O862 1.275 . S
C851 O863 1.256 . S
O852 Ho832 2.322 . S
O852 C834 1.259 . S
O853 Ho833 2.346 . S
O853 C834 1.268 . S
O854 Ho832 2.378 . S
O854 C835 1.215 . S
O855 Ho832 2.524 . S
O855 C835 1.289 . S
O856 Ho832 2.381 . S
O856 C842 1.275 . S
O857 Ho832 2.669 . S
O857 Ho833 2.305 . S
O857 C842 1.256 . S
O858 Ho833 2.322 . S
O858 C843 1.259 . S
O859 Ho832 2.346 . S
O859 C843 1.268 . S
O860 Ho833 2.378 . S
O860 C844 1.215 . S
O861 Ho833 2.524 . S
O861 C844 1.289 . S
O862 Ho833 2.381 . S
O862 C851 1.275 . S
O863 Ho832 2.305 . S
O863 Ho833 2.669 . S
O863 C851 1.256 . S
H864 C837 0.930 . S
H865 C838 0.931 . S
H866 C840 0.934 . S
H867 C841 0.930 . S
H868 C846 0.930 . S
H869 C847 0.931 . S
H870 C849 0.934 . S
H871 C850 0.930 . S
Ho872 C875 2.811 . S
Ho872 O892 2.322 . S
Ho872 O894 2.378 . S
Ho872 O895 2.524 . S
Ho872 O896 2.381 . S
Ho872 O897 2.669 . S
Ho872 O899 2.346 . S
Ho872 O903 2.305 . S
Ho873 C884 2.811 . S
Ho873 O893 2.346 . S
Ho873 O897 2.305 . S
Ho873 O898 2.322 . S
Ho873 O900 2.378 . S
Ho873 O901 2.524 . S
Ho873 O902 2.381 . S
Ho873 O903 2.669 . S
C874 O892 1.259 . S
C874 O893 1.268 . S
C875 Ho872 2.811 . S
C875 C876 1.488 . S
C875 O894 1.215 . S
C875 O895 1.289 . S
C876 C875 1.488 . S
C876 C877 1.348 . S
C876 C881 1.413 . S
C877 C876 1.348 . S
C877 C878 1.442 . S
C877 H904 0.930 . S
C878 C877 1.442 . S
C878 C879 1.381 . S
C878 H905 0.931 . S
C879 C878 1.381 . S
C879 C880 1.321 . S
C880 C879 1.321 . S
C880 C881 1.403 . S
C880 H906 0.934 . S
C881 C876 1.413 . S
C881 C880 1.403 . S
C881 H907 0.930 . S
C882 O896 1.275 . S
C882 O897 1.256 . S
C883 O898 1.259 . S
C883 O899 1.268 . S
C884 Ho873 2.811 . S
C884 C885 1.488 . S
C884 O900 1.215 . S
C884 O901 1.289 . S
C885 C884 1.488 . S
C885 C886 1.348 . S
C885 C890 1.413 . S
C886 C885 1.348 . S
C886 C887 1.442 . S
C886 H908 0.930 . S
C887 C886 1.442 . S
C887 C888 1.381 . S
C887 H909 0.931 . S
C888 C887 1.381 . S
C888 C889 1.321 . S
C889 C888 1.321 . S
C889 C890 1.403 . S
C889 H910 0.934 . S
C890 C885 1.413 . S
C890 C889 1.403 . S
C890 H911 0.930 . S
C891 O902 1.275 . S
C891 O903 1.256 . S
O892 Ho872 2.322 . S
O892 C874 1.259 . S
O893 Ho873 2.346 . S
O893 C874 1.268 . S
O894 Ho872 2.378 . S
O894 C875 1.215 . S
O895 Ho872 2.524 . S
O895 C875 1.289 . S
O896 Ho872 2.381 . S
O896 C882 1.275 . S
O897 Ho872 2.669 . S
O897 Ho873 2.305 . S
O897 C882 1.256 . S
O898 Ho873 2.322 . S
O898 C883 1.259 . S
O899 Ho872 2.346 . S
O899 C883 1.268 . S
O900 Ho873 2.378 . S
O900 C884 1.215 . S
O901 Ho873 2.524 . S
O901 C884 1.289 . S
O902 Ho873 2.381 . S
O902 C891 1.275 . S
O903 Ho872 2.305 . S
O903 Ho873 2.669 . S
O903 C891 1.256 . S
H904 C877 0.930 . S
H905 C878 0.931 . S
H906 C880 0.934 . S
H907 C881 0.930 . S
H908 C886 0.930 . S
H909 C887 0.931 . S
H910 C889 0.934 . S
H911 C890 0.930 . S
Ho912 C915 2.811 . S
Ho912 O932 2.322 . S
Ho912 O934 2.378 . S
Ho912 O935 2.524 . S
Ho912 O936 2.381 1_554 S
Ho912 O937 2.669 . S
Ho912 O939 2.346 . S
Ho912 O943 2.305 . S
Ho913 C924 2.811 1_455 S
Ho913 O933 2.346 . S
Ho913 O937 2.305 . S
Ho913 O938 2.322 . S
Ho913 O940 2.378 1_455 S
Ho913 O941 2.524 1_455 S
Ho913 O942 2.381 . S
Ho913 O943 2.669 . S
C914 O932 1.259 . S
C914 O933 1.268 . S
C915 Ho912 2.811 . S
C915 C916 1.488 . S
C915 O934 1.215 . S
C915 O935 1.289 . S
C916 C915 1.488 . S
C916 C917 1.348 . S
C916 C921 1.413 1_554 S
C917 C916 1.348 . S
C917 C918 1.442 . S
C917 H944 0.930 . S
C918 C917 1.442 . S
C918 C919 1.381 . S
C918 H945 0.931 . S
C919 C918 1.381 . S
C919 C920 1.321 1_554 S
C920 C919 1.321 1_556 S
C920 C921 1.403 . S
C920 H946 0.934 . S
C921 C916 1.413 1_556 S
C921 C920 1.403 . S
C921 H947 0.930 . S
C922 O936 1.275 . S
C922 O937 1.256 1_556 S
C923 O938 1.259 . S
C923 O939 1.268 . S
C924 Ho913 2.811 1_655 S
C924 C925 1.488 . S
C924 O940 1.215 . S
C924 O941 1.289 . S
C925 C924 1.488 . S
C925 C926 1.348 . S
C925 C930 1.413 . S
C926 C925 1.348 . S
C926 C927 1.442 . S
C926 H948 0.930 . S
C927 C926 1.442 . S
C927 C928 1.381 . S
C927 H949 0.931 . S
C928 C927 1.381 . S
C928 C929 1.321 . S
C929 C928 1.321 . S
C929 C930 1.403 . S
C929 H950 0.934 . S
C930 C925 1.413 . S
C930 C929 1.403 . S
C930 H951 0.930 . S
C931 O942 1.275 . S
C931 O943 1.256 . S
O932 Ho912 2.322 . S
O932 C914 1.259 . S
O933 Ho913 2.346 . S
O933 C914 1.268 . S
O934 Ho912 2.378 . S
O934 C915 1.215 . S
O935 Ho912 2.524 . S
O935 C915 1.289 . S
O936 Ho912 2.381 1_556 S
O936 C922 1.275 . S
O937 Ho912 2.669 . S
O937 Ho913 2.305 . S
O937 C922 1.256 1_554 S
O938 Ho913 2.322 . S
O938 C923 1.259 . S
O939 Ho912 2.346 . S
O939 C923 1.268 . S
O940 Ho913 2.378 1_655 S
O940 C924 1.215 . S
O941 Ho913 2.524 1_655 S
O941 C924 1.289 . S
O942 Ho913 2.381 . S
O942 C931 1.275 . S
O943 Ho912 2.305 . S
O943 Ho913 2.669 . S
O943 C931 1.256 . S
H944 C917 0.930 . S
H945 C918 0.931 . S
H946 C920 0.934 . S
H947 C921 0.930 . S
H948 C926 0.930 . S
H949 C927 0.931 . S
H950 C929 0.934 . S
H951 C930 0.930 . S
C952 C953 1.349 . S
C952 C954 1.327 . S
C952 H977 0.950 1_455 S
C953 C952 1.349 . S
C953 C969 1.349 . S
C954 C952 1.327 . S
C954 C973 1.429 . S
C954 H978 0.979 . S
C955 C972 1.574 . S
C955 C974 1.368 . S
C955 H979 0.949 . S
H956 C960 0.949 1_554 S
C957 C958 1.376 . S
C957 C959 1.309 1_554 S
C957 H980 0.942 1_554 S
C958 C957 1.376 . S
C958 C970 1.349 . S
C959 C957 1.309 1_556 S
C959 C975 1.429 . S
C959 H981 0.950 . S
C960 H956 0.949 1_556 S
C960 C968 1.574 . S
C960 C976 1.368 . S
H961 C969 0.950 . S
H962 C967 0.950 . S
H963 C968 0.949 . S
H964 C970 0.950 . S
H965 C971 0.950 . S
H966 C972 0.949 . S
C967 H962 0.950 . S
C967 C969 1.327 . S
C967 C973 1.429 . S
C968 C960 1.574 . S
C968 H963 0.949 . S
C968 C974 1.368 . S
C969 C953 1.349 . S
C969 H961 0.950 . S
C969 C967 1.327 . S
C970 C958 1.349 . S
C970 H964 0.950 . S
C970 C971 1.327 . S
C971 H965 0.950 . S
C971 C970 1.327 . S
C971 C975 1.429 1_554 S
C972 C955 1.574 . S
C972 H966 0.949 . S
C972 C976 1.368 . S
C973 C954 1.429 . S
C973 C967 1.429 . S
C973 C974 1.523 . S
C974 C955 1.368 . S
C974 C968 1.368 . S
C974 C973 1.523 . S
C975 C959 1.429 . S
C975 C971 1.429 1_556 S
C975 C976 1.523 . S
C976 C960 1.368 . S
C976 C972 1.368 . S
C976 C975 1.523 . S
H977 C952 0.950 1_655 S
H978 C954 0.979 . S
H979 C955 0.949 . S
H980 C957 0.942 1_556 S
H981 C959 0.950 . S
C982 C983 1.349 . S
C982 C984 1.327 . S
C982 H1007 0.950 . S
C983 C982 1.349 . S
C983 C999 1.349 . S
C984 C982 1.327 . S
C984 C1003 1.429 . S
C984 H1008 0.950 . S
C985 C1002 1.574 . S
C985 C1004 1.368 . S
C985 H1009 0.949 . S
H986 C990 0.949 . S
C987 C988 1.349 . S
C987 C989 1.327 . S
C987 H1010 0.950 . S
C988 C987 1.349 . S
C988 C1000 1.349 . S
C989 C987 1.327 . S
C989 C1005 1.429 . S
C989 H1011 0.950 . S
C990 H986 0.949 . S
C990 C998 1.574 . S
C990 C1006 1.368 . S
H991 C999 0.950 . S
H992 C997 0.950 . S
H993 C998 0.949 . S
H994 C1000 0.950 . S
H995 C1001 0.950 . S
H996 C1002 0.949 . S
C997 H992 0.950 . S
C997 C999 1.327 . S
C997 C1003 1.429 . S
C998 C990 1.574 . S
C998 H993 0.949 . S
C998 C1004 1.368 . S
C999 C983 1.349 . S
C999 H991 0.950 . S
C999 C997 1.327 . S
C1000 C988 1.349 . S
C1000 H994 0.950 . S
C1000 C1001 1.327 . S
C1001 H995 0.950 . S
C1001 C1000 1.327 . S
C1001 C1005 1.429 . S
C1002 C985 1.574 . S
C1002 H996 0.949 . S
C1002 C1006 1.368 . S
C1003 C984 1.429 . S
C1003 C997 1.429 . S
C1003 C1004 1.523 . S
C1004 C985 1.368 . S
C1004 C998 1.368 . S
C1004 C1003 1.523 . S
C1005 C989 1.429 . S
C1005 C1001 1.429 . S
C1005 C1006 1.523 . S
C1006 C990 1.368 . S
C1006 C1002 1.368 . S
C1006 C1005 1.523 . S
H1007 C982 0.950 . S
H1008 C984 0.950 . S
H1009 C985 0.949 . S
H1010 C987 0.950 . S
H1011 C989 0.950 . S
C1012 C1013 1.349 . S
C1012 C1014 1.327 . S
C1012 H1037 0.950 . S
C1013 C1012 1.349 . S
C1013 C1029 1.349 . S
C1014 C1012 1.327 . S
C1014 C1033 1.429 . S
C1014 H1038 0.950 . S
C1015 C1032 1.574 . S
C1015 C1034 1.368 . S
C1015 H1039 0.949 . S
H1016 C1020 0.949 . S
C1017 C1018 1.349 . S
C1017 C1019 1.327 . S
C1017 H1040 0.950 . S
C1018 C1017 1.349 . S
C1018 C1030 1.349 . S
C1019 C1017 1.327 . S
C1019 C1035 1.429 . S
C1019 H1041 0.950 . S
C1020 H1016 0.949 . S
C1020 C1028 1.574 . S
C1020 C1036 1.368 . S
H1021 C1029 0.950 . S
H1022 C1027 0.950 . S
H1023 C1028 0.949 . S
H1024 C1030 0.950 . S
H1025 C1031 0.950 . S
H1026 C1032 0.949 . S
C1027 H1022 0.950 . S
C1027 C1029 1.327 . S
C1027 C1033 1.429 . S
C1028 C1020 1.574 . S
C1028 H1023 0.949 . S
C1028 C1034 1.368 . S
C1029 C1013 1.349 . S
C1029 H1021 0.950 . S
C1029 C1027 1.327 . S
C1030 C1018 1.349 . S
C1030 H1024 0.950 . S
C1030 C1031 1.327 . S
C1031 H1025 0.950 . S
C1031 C1030 1.327 . S
C1031 C1035 1.429 . S
C1032 C1015 1.574 . S
C1032 H1026 0.949 . S
C1032 C1036 1.368 . S
C1033 C1014 1.429 . S
C1033 C1027 1.429 . S
C1033 C1034 1.523 . S
C1034 C1015 1.368 . S
C1034 C1028 1.368 . S
C1034 C1033 1.523 . S
C1035 C1019 1.429 . S
C1035 C1031 1.429 . S
C1035 C1036 1.523 . S
C1036 C1020 1.368 . S
C1036 C1032 1.368 . S
C1036 C1035 1.523 . S
H1037 C1012 0.950 . S
H1038 C1014 0.950 . S
H1039 C1015 0.949 . S
H1040 C1017 0.950 . S
H1041 C1019 0.950 . S
C1042 C1043 1.349 . S
C1042 C1044 1.327 . S
C1042 H1067 0.950 . S
C1043 C1042 1.349 . S
C1043 C1059 1.349 . S
C1044 C1042 1.327 . S
C1044 C1063 1.429 . S
C1044 H1068 0.950 . S
C1045 C1062 1.574 . S
C1045 C1064 1.368 . S
C1045 H1069 0.949 . S
H1046 C1050 0.949 . S
C1047 C1048 1.349 . S
C1047 C1049 1.327 . S
C1047 H1070 0.950 . S
C1048 C1047 1.349 . S
C1048 C1060 1.349 . S
C1049 C1047 1.327 . S
C1049 C1065 1.429 . S
C1049 H1071 0.950 . S
C1050 H1046 0.949 . S
C1050 C1058 1.574 . S
C1050 C1066 1.368 . S
H1051 C1059 0.950 . S
H1052 C1057 0.950 . S
H1053 C1058 0.949 . S
H1054 C1060 0.950 . S
H1055 C1061 0.950 . S
H1056 C1062 0.949 . S
C1057 H1052 0.950 . S
C1057 C1059 1.327 . S
C1057 C1063 1.429 . S
C1058 C1050 1.574 . S
C1058 H1053 0.949 . S
C1058 C1064 1.368 . S
C1059 C1043 1.349 . S
C1059 H1051 0.950 . S
C1059 C1057 1.327 . S
C1060 C1048 1.349 . S
C1060 H1054 0.950 . S
C1060 C1061 1.327 . S
C1061 H1055 0.950 . S
C1061 C1060 1.327 . S
C1061 C1065 1.429 . S
C1062 C1045 1.574 . S
C1062 H1056 0.949 . S
C1062 C1066 1.368 . S
C1063 C1044 1.429 . S
C1063 C1057 1.429 . S
C1063 C1064 1.523 . S
C1064 C1045 1.368 . S
C1064 C1058 1.368 . S
C1064 C1063 1.523 . S
C1065 C1049 1.429 . S
C1065 C1061 1.429 . S
C1065 C1066 1.523 . S
C1066 C1050 1.368 . S
C1066 C1062 1.368 . S
C1066 C1065 1.523 . S
H1067 C1042 0.950 . S
H1068 C1044 0.950 . S
H1069 C1045 0.949 . S
H1070 C1047 0.950 . S
H1071 C1049 0.950 . S
C1072 C1073 1.349 1_655 S
C1072 C1074 1.327 1_655 S
C1072 H1097 0.950 . S
C1073 C1072 1.349 1_455 S
C1073 C1089 1.349 . S
C1074 C1072 1.327 1_455 S
C1074 C1093 1.429 . S
C1074 H1098 0.950 1_455 S
C1075 C1092 1.574 . S
C1075 C1094 1.368 . S
C1075 H1099 0.949 . S
H1076 C1080 0.949 . S
C1077 C1078 1.349 . S
C1077 C1079 1.327 . S
C1077 H1100 0.950 . S
C1078 C1077 1.349 . S
C1078 C1090 1.349 . S
C1079 C1077 1.327 . S
C1079 C1095 1.429 . S
C1079 H1101 0.950 . S
C1080 H1076 0.949 . S
C1080 C1088 1.574 . S
C1080 C1096 1.368 . S
H1081 C1089 0.950 . S
H1082 C1087 0.950 . S
H1083 C1088 0.949 . S
H1084 C1090 0.950 . S
H1085 C1091 0.950 . S
H1086 C1092 0.949 . S
C1087 H1082 0.950 . S
C1087 C1089 1.327 . S
C1087 C1093 1.429 . S
C1088 C1080 1.574 . S
C1088 H1083 0.949 . S
C1088 C1094 1.368 . S
C1089 C1073 1.349 . S
C1089 H1081 0.950 . S
C1089 C1087 1.327 . S
C1090 C1078 1.349 . S
C1090 H1084 0.950 . S
C1090 C1091 1.327 . S
C1091 H1085 0.950 . S
C1091 C1090 1.327 . S
C1091 C1095 1.429 . S
C1092 C1075 1.574 . S
C1092 H1086 0.949 . S
C1092 C1096 1.368 . S
C1093 C1074 1.429 . S
C1093 C1087 1.429 . S
C1093 C1094 1.523 . S
C1094 C1075 1.368 . S
C1094 C1088 1.368 . S
C1094 C1093 1.523 . S
C1095 C1079 1.429 . S
C1095 C1091 1.429 . S
C1095 C1096 1.523 . S
C1096 C1080 1.368 . S
C1096 C1092 1.368 . S
C1096 C1095 1.523 . S
H1097 C1072 0.950 . S
H1098 C1074 0.950 1_655 S
H1099 C1075 0.949 . S
H1100 C1077 0.950 . S
H1101 C1079 0.950 . S
C1102 C1103 1.349 . S
C1102 C1104 1.327 . S
C1102 H1127 0.950 . S
C1103 C1102 1.349 . S
C1103 C1119 1.349 . S
C1104 C1102 1.327 . S
C1104 C1123 1.429 . S
C1104 H1128 0.950 . S
C1105 C1122 1.574 . S
C1105 C1124 1.368 . S
C1105 H1129 0.949 . S
H1106 C1110 0.949 . S
C1107 C1108 1.349 . S
C1107 C1109 1.327 . S
C1107 H1130 0.950 . S
C1108 C1107 1.349 . S
C1108 C1120 1.349 . S
C1109 C1107 1.327 . S
C1109 C1125 1.429 . S
C1109 H1131 0.950 . S
C1110 H1106 0.949 . S
C1110 C1118 1.574 . S
C1110 C1126 1.368 . S
H1111 C1119 0.950 . S
H1112 C1117 0.950 . S
H1113 C1118 0.949 . S
H1114 C1120 0.950 . S
H1115 C1121 0.950 . S
H1116 C1122 0.949 . S
C1117 H1112 0.950 . S
C1117 C1119 1.327 . S
C1117 C1123 1.429 . S
C1118 C1110 1.574 . S
C1118 H1113 0.949 . S
C1118 C1124 1.368 . S
C1119 C1103 1.349 . S
C1119 H1111 0.950 . S
C1119 C1117 1.327 . S
C1120 C1108 1.349 . S
C1120 H1114 0.950 . S
C1120 C1121 1.327 . S
C1121 H1115 0.950 . S
C1121 C1120 1.327 . S
C1121 C1125 1.429 . S
C1122 C1105 1.574 . S
C1122 H1116 0.949 . S
C1122 C1126 1.368 . S
C1123 C1104 1.429 . S
C1123 C1117 1.429 . S
C1123 C1124 1.523 . S
C1124 C1105 1.368 . S
C1124 C1118 1.368 . S
C1124 C1123 1.523 . S
C1125 C1109 1.429 . S
C1125 C1121 1.429 . S
C1125 C1126 1.523 . S
C1126 C1110 1.368 . S
C1126 C1122 1.368 . S
C1126 C1125 1.523 . S
H1127 C1102 0.950 . S
H1128 C1104 0.950 . S
H1129 C1105 0.949 . S
H1130 C1107 0.950 . S
H1131 C1109 0.950 . S
C1132 C1133 1.349 . S
C1132 C1134 1.327 . S
C1132 H1157 0.950 . S
C1133 C1132 1.349 . S
C1133 C1149 1.349 . S
C1134 C1132 1.327 . S
C1134 C1153 1.429 . S
C1134 H1158 0.950 . S
C1135 C1152 1.574 . S
C1135 C1154 1.368 . S
C1135 H1159 0.949 . S
H1136 C1140 0.949 . S
C1137 C1138 1.349 . S
C1137 C1139 1.327 . S
C1137 H1160 0.950 . S
C1138 C1137 1.349 . S
C1138 C1150 1.349 . S
C1139 C1137 1.327 . S
C1139 C1155 1.429 . S
C1139 H1161 0.950 . S
C1140 H1136 0.949 . S
C1140 C1148 1.574 . S
C1140 C1156 1.368 . S
H1141 C1149 0.950 . S
H1142 C1147 0.950 . S
H1143 C1148 0.949 . S
H1144 C1150 0.950 . S
H1145 C1151 0.950 . S
H1146 C1152 0.949 . S
C1147 H1142 0.950 . S
C1147 C1149 1.327 . S
C1147 C1153 1.429 . S
C1148 C1140 1.574 . S
C1148 H1143 0.949 . S
C1148 C1154 1.368 . S
C1149 C1133 1.349 . S
C1149 H1141 0.950 . S
C1149 C1147 1.327 . S
C1150 C1138 1.349 . S
C1150 H1144 0.950 . S
C1150 C1151 1.327 . S
C1151 H1145 0.950 . S
C1151 C1150 1.327 . S
C1151 C1155 1.429 . S
C1152 C1135 1.574 . S
C1152 H1146 0.949 . S
C1152 C1156 1.368 . S
C1153 C1134 1.429 . S
C1153 C1147 1.429 . S
C1153 C1154 1.523 . S
C1154 C1135 1.368 . S
C1154 C1148 1.368 . S
C1154 C1153 1.523 . S
C1155 C1139 1.429 . S
C1155 C1151 1.429 . S
C1155 C1156 1.523 . S
C1156 C1140 1.368 . S
C1156 C1152 1.368 . S
C1156 C1155 1.523 . S
H1157 C1132 0.950 . S
H1158 C1134 0.950 . S
H1159 C1135 0.949 . S
H1160 C1137 0.950 . S
H1161 C1139 0.950 . S
C1162 C1163 1.349 . S
C1162 C1164 1.327 . S
C1162 H1187 0.950 . S
C1163 C1162 1.349 . S
C1163 C1179 1.349 . S
C1164 C1162 1.327 . S
C1164 C1183 1.429 . S
C1164 H1188 0.950 . S
C1165 C1182 1.574 . S
C1165 C1184 1.368 . S
C1165 H1189 0.949 . S
H1166 C1170 0.949 . S
C1167 C1168 1.349 . S
C1167 C1169 1.327 . S
C1167 H1190 0.950 . S
C1168 C1167 1.349 . S
C1168 C1180 1.349 . S
C1169 C1167 1.327 . S
C1169 C1185 1.429 . S
C1169 H1191 0.950 . S
C1170 H1166 0.949 . S
C1170 C1178 1.574 . S
C1170 C1186 1.368 . S
H1171 C1179 0.950 . S
H1172 C1177 0.950 . S
H1173 C1178 0.949 . S
H1174 C1180 0.950 . S
H1175 C1181 0.950 . S
H1176 C1182 0.949 . S
C1177 H1172 0.950 . S
C1177 C1179 1.327 . S
C1177 C1183 1.429 . S
C1178 C1170 1.574 . S
C1178 H1173 0.949 . S
C1178 C1184 1.368 . S
C1179 C1163 1.349 . S
C1179 H1171 0.950 . S
C1179 C1177 1.327 . S
C1180 C1168 1.349 . S
C1180 H1174 0.950 . S
C1180 C1181 1.327 . S
C1181 H1175 0.950 . S
C1181 C1180 1.327 . S
C1181 C1185 1.429 . S
C1182 C1165 1.574 . S
C1182 H1176 0.949 . S
C1182 C1186 1.368 . S
C1183 C1164 1.429 . S
C1183 C1177 1.429 . S
C1183 C1184 1.523 . S
C1184 C1165 1.368 . S
C1184 C1178 1.368 . S
C1184 C1183 1.523 . S
C1185 C1169 1.429 . S
C1185 C1181 1.429 . S
C1185 C1186 1.523 . S
C1186 C1170 1.368 . S
C1186 C1182 1.368 . S
C1186 C1185 1.523 . S
H1187 C1162 0.950 . S
H1188 C1164 0.950 . S
H1189 C1165 0.949 . S
H1190 C1167 0.950 . S
H1191 C1169 0.950 . S
C1192 C1193 1.349 . S
C1192 C1194 1.327 . S
C1192 H1217 0.950 . S
C1193 C1192 1.349 . S
C1193 C1209 1.349 . S
C1194 C1192 1.327 . S
C1194 C1213 1.429 . S
C1194 H1218 0.950 . S
C1195 C1212 1.574 . S
C1195 C1214 1.368 . S
C1195 H1219 0.949 . S
H1196 C1200 0.949 . S
C1197 C1198 1.349 . S
C1197 C1199 1.327 . S
C1197 H1220 0.950 . S
C1198 C1197 1.349 . S
C1198 C1210 1.349 . S
C1199 C1197 1.327 . S
C1199 C1215 1.429 . S
C1199 H1221 0.950 1_455 S
C1200 H1196 0.949 . S
C1200 C1208 1.574 1_455 S
C1200 C1216 1.366 1_455 S
H1201 C1209 0.950 . S
H1202 C1207 0.950 . S
H1203 C1208 0.949 . S
H1204 C1210 0.950 . S
H1205 C1211 0.950 . S
H1206 C1212 0.949 . S
C1207 H1202 0.950 . S
C1207 C1209 1.327 . S
C1207 C1213 1.429 . S
C1208 C1200 1.574 1_655 S
C1208 H1203 0.949 . S
C1208 C1214 1.368 . S
C1209 C1193 1.349 . S
C1209 H1201 0.950 . S
C1209 C1207 1.327 . S
C1210 C1198 1.349 . S
C1210 H1204 0.950 . S
C1210 C1211 1.327 . S
C1211 H1205 0.950 . S
C1211 C1210 1.327 . S
C1211 C1215 1.429 . S
C1212 C1195 1.574 . S
C1212 H1206 0.949 . S
C1212 C1216 1.382 . S
C1213 C1194 1.429 . S
C1213 C1207 1.429 . S
C1213 C1214 1.523 . S
C1214 C1195 1.368 . S
C1214 C1208 1.368 . S
C1214 C1213 1.523 . S
C1215 C1199 1.429 . S
C1215 C1211 1.429 . S
C1215 C1216 1.509 1_455 S
C1216 C1200 1.366 1_655 S
C1216 C1212 1.382 . S
C1216 C1215 1.509 1_655 S
H1217 C1192 0.950 . S
H1218 C1194 0.950 . S
H1219 C1195 0.949 . S
H1220 C1197 0.950 . S
H1221 C1199 0.950 1_655 S
C1222 C1223 1.349 . S
C1222 C1224 1.327 . S
C1222 H1247 0.950 . S
C1223 C1222 1.349 . S
C1223 C1239 1.349 . S
C1224 C1222 1.327 . S
C1224 C1243 1.429 . S
C1224 H1248 0.950 . S
C1225 C1242 1.574 . S
C1225 C1244 1.368 . S
C1225 H1249 0.949 . S
H1226 C1230 0.949 . S
C1227 C1228 1.349 . S
C1227 C1229 1.327 . S
C1227 H1250 0.950 . S
C1228 C1227 1.349 . S
C1228 C1240 1.349 . S
C1229 C1227 1.327 . S
C1229 C1245 1.429 . S
C1229 H1251 0.950 . S
C1230 H1226 0.949 . S
C1230 C1238 1.574 . S
C1230 C1246 1.368 . S
H1231 C1239 0.950 . S
H1232 C1237 0.950 . S
H1233 C1238 0.949 . S
H1234 C1240 0.950 . S
H1235 C1241 0.950 . S
H1236 C1242 0.949 . S
C1237 H1232 0.950 . S
C1237 C1239 1.327 . S
C1237 C1243 1.429 . S
C1238 C1230 1.574 . S
C1238 H1233 0.949 . S
C1238 C1244 1.368 . S
C1239 C1223 1.349 . S
C1239 H1231 0.950 . S
C1239 C1237 1.327 . S
C1240 C1228 1.349 . S
C1240 H1234 0.950 . S
C1240 C1241 1.327 . S
C1241 H1235 0.950 . S
C1241 C1240 1.327 . S
C1241 C1245 1.429 . S
C1242 C1225 1.574 . S
C1242 H1236 0.949 . S
C1242 C1246 1.368 . S
C1243 C1224 1.429 . S
C1243 C1237 1.429 . S
C1243 C1244 1.523 . S
C1244 C1225 1.368 . S
C1244 C1238 1.368 . S
C1244 C1243 1.523 . S
C1245 C1229 1.429 . S
C1245 C1241 1.429 . S
C1245 C1246 1.523 . S
C1246 C1230 1.368 . S
C1246 C1242 1.368 . S
C1246 C1245 1.523 . S
H1247 C1222 0.950 . S
H1248 C1224 0.950 . S
H1249 C1225 0.949 . S
H1250 C1227 0.950 . S
H1251 C1229 0.950 . S
C1252 C1253 1.349 . S
C1252 C1254 1.327 . S
C1252 H1277 0.950 . S
C1253 C1252 1.349 . S
C1253 C1269 1.349 . S
C1254 C1252 1.327 . S
C1254 C1273 1.429 . S
C1254 H1278 0.950 . S
C1255 C1272 1.574 . S
C1255 C1274 1.368 . S
C1255 H1279 0.949 . S
H1256 C1260 0.949 . S
C1257 C1258 1.349 . S
C1257 C1259 1.327 . S
C1257 H1280 0.942 1_545 S
C1258 C1257 1.349 . S
C1258 C1270 1.349 . S
C1259 C1257 1.327 . S
C1259 C1275 1.429 . S
C1259 H1281 0.950 . S
C1260 H1256 0.949 . S
C1260 C1268 1.574 . S
C1260 C1276 1.368 . S
H1261 C1269 0.950 . S
H1262 C1267 0.950 . S
H1263 C1268 0.949 . S
H1264 C1270 0.950 . S
H1265 C1271 0.950 . S
H1266 C1272 0.949 . S
C1267 H1262 0.950 . S
C1267 C1269 1.327 . S
C1267 C1273 1.429 . S
C1268 C1260 1.574 . S
C1268 H1263 0.949 . S
C1268 C1274 1.368 . S
C1269 C1253 1.349 . S
C1269 H1261 0.950 . S
C1269 C1267 1.327 . S
C1270 C1258 1.349 . S
C1270 H1264 0.950 . S
C1270 C1271 1.327 . S
C1271 H1265 0.950 . S
C1271 C1270 1.327 . S
C1271 C1275 1.429 . S
C1272 C1255 1.574 . S
C1272 H1266 0.949 . S
C1272 C1276 1.368 . S
C1273 C1254 1.429 . S
C1273 C1267 1.429 . S
C1273 C1274 1.523 . S
C1274 C1255 1.368 . S
C1274 C1268 1.368 . S
C1274 C1273 1.523 . S
C1275 C1259 1.429 . S
C1275 C1271 1.429 . S
C1275 C1276 1.523 . S
C1276 C1260 1.368 . S
C1276 C1272 1.368 . S
C1276 C1275 1.523 . S
H1277 C1252 0.950 . S
H1278 C1254 0.950 . S
H1279 C1255 0.949 . S
H1280 C1257 0.942 1_565 S
H1281 C1259 0.950 . S
C1282 C1283 1.349 . S
C1282 C1284 1.327 . S
C1282 H1307 0.950 . S
C1283 C1282 1.349 . S
C1283 C1299 1.349 . S
C1284 C1282 1.327 . S
C1284 C1303 1.429 . S
C1284 H1308 0.950 . S
C1285 C1302 1.574 . S
C1285 C1304 1.368 . S
C1285 H1309 0.949 . S
H1286 C1290 0.949 . S
C1287 C1288 1.349 . S
C1287 C1289 1.327 . S
C1287 H1310 0.950 . S
C1288 C1287 1.349 . S
C1288 C1300 1.349 . S
C1289 C1287 1.327 . S
C1289 C1305 1.429 . S
C1289 H1311 0.950 . S
C1290 H1286 0.949 . S
C1290 C1298 1.574 . S
C1290 C1306 1.368 . S
H1291 C1299 0.950 . S
H1292 C1297 0.950 . S
H1293 C1298 0.949 . S
H1294 C1300 0.950 . S
H1295 C1301 0.950 . S
H1296 C1302 0.949 . S
C1297 H1292 0.950 . S
C1297 C1299 1.327 . S
C1297 C1303 1.429 . S
C1298 C1290 1.574 . S
C1298 H1293 0.949 . S
C1298 C1304 1.368 . S
C1299 C1283 1.349 . S
C1299 H1291 0.950 . S
C1299 C1297 1.327 . S
C1300 C1288 1.349 . S
C1300 H1294 0.950 . S
C1300 C1301 1.327 . S
C1301 H1295 0.950 . S
C1301 C1300 1.327 . S
C1301 C1305 1.429 . S
C1302 C1285 1.574 . S
C1302 H1296 0.949 . S
C1302 C1306 1.368 . S
C1303 C1284 1.429 . S
C1303 C1297 1.429 . S
C1303 C1304 1.523 . S
C1304 C1285 1.368 . S
C1304 C1298 1.368 . S
C1304 C1303 1.523 . S
C1305 C1289 1.429 . S
C1305 C1301 1.429 . S
C1305 C1306 1.523 . S
C1306 C1290 1.368 . S
C1306 C1302 1.368 . S
C1306 C1305 1.523 . S
H1307 C1282 0.950 . S
H1308 C1284 0.950 . S
H1309 C1285 0.949 . S
H1310 C1287 0.950 . S
H1311 C1289 0.950 . S
C1312 C1313 1.349 . S
C1312 C1314 1.327 . S
C1312 H1337 0.950 . S
C1313 C1312 1.349 . S
C1313 C1329 1.349 . S
C1314 C1312 1.327 . S
C1314 C1333 1.429 . S
C1314 H1338 0.950 . S
C1315 C1332 1.574 . S
C1315 C1334 1.368 . S
C1315 H1339 0.949 . S
H1316 C1320 0.952 . S
C1317 C1318 1.349 . S
C1317 C1319 1.327 . S
C1317 H1340 0.950 . S
C1318 C1317 1.349 . S
C1318 C1330 1.349 . S
C1319 C1317 1.327 . S
C1319 C1335 1.429 . S
C1319 H1341 0.950 . S
C1320 H1316 0.952 . S
C1320 C1328 1.574 . S
C1320 C1336 1.345 1_655 S
H1321 C1329 0.950 . S
H1322 C1327 0.950 . S
H1323 C1328 0.949 . S
H1324 C1330 0.950 . S
H1325 C1331 0.950 . S
H1326 C1332 0.949 1_455 S
C1327 H1322 0.950 . S
C1327 C1329 1.327 . S
C1327 C1333 1.429 . S
C1328 C1320 1.574 . S
C1328 H1323 0.949 . S
C1328 C1334 1.368 . S
C1329 C1313 1.349 . S
C1329 H1321 0.950 . S
C1329 C1327 1.327 . S
C1330 C1318 1.349 . S
C1330 H1324 0.950 . S
C1330 C1331 1.327 . S
C1331 H1325 0.950 . S
C1331 C1330 1.327 . S
C1331 C1335 1.429 . S
C1332 C1315 1.574 . S
C1332 H1326 0.949 1_655 S
C1332 C1336 1.374 1_655 S
C1333 C1314 1.429 . S
C1333 C1327 1.429 . S
C1333 C1334 1.523 . S
C1334 C1315 1.368 . S
C1334 C1328 1.368 . S
C1334 C1333 1.523 . S
C1335 C1319 1.429 . S
C1335 C1331 1.429 . S
C1335 C1336 1.549 . S
C1336 C1320 1.345 1_455 S
C1336 C1332 1.374 1_455 S
C1336 C1335 1.549 . S
H1337 C1312 0.950 . S
H1338 C1314 0.950 . S
H1339 C1315 0.949 . S
H1340 C1317 0.950 . S
H1341 C1319 0.950 . S
C1342 C1343 1.349 . S
C1342 C1344 1.327 . S
C1342 H1367 0.950 . S
C1343 C1342 1.349 . S
C1343 C1359 1.349 . S
C1344 C1342 1.327 . S
C1344 C1363 1.429 . S
C1344 H1368 0.950 . S
C1345 C1362 1.574 . S
C1345 C1364 1.368 . S
C1345 H1369 0.949 . S
H1346 C1350 0.949 . S
C1347 C1348 1.349 . S
C1347 C1349 1.327 . S
C1347 H1370 0.950 . S
C1348 C1347 1.349 . S
C1348 C1360 1.349 . S
C1349 C1347 1.327 . S
C1349 C1365 1.429 . S
C1349 H1371 0.950 . S
C1350 H1346 0.949 . S
C1350 C1358 1.574 . S
C1350 C1366 1.368 . S
H1351 C1359 0.950 . S
H1352 C1357 0.950 . S
H1353 C1358 0.949 . S
H1354 C1360 0.950 . S
H1355 C1361 0.950 . S
H1356 C1362 0.949 . S
C1357 H1352 0.950 . S
C1357 C1359 1.327 . S
C1357 C1363 1.429 . S
C1358 C1350 1.574 . S
C1358 H1353 0.949 . S
C1358 C1364 1.368 . S
C1359 C1343 1.349 . S
C1359 H1351 0.950 . S
C1359 C1357 1.327 . S
C1360 C1348 1.349 . S
C1360 H1354 0.950 . S
C1360 C1361 1.327 . S
C1361 H1355 0.950 . S
C1361 C1360 1.327 . S
C1361 C1365 1.429 . S
C1362 C1345 1.574 . S
C1362 H1356 0.949 . S
C1362 C1366 1.368 . S
C1363 C1344 1.429 . S
C1363 C1357 1.429 . S
C1363 C1364 1.523 . S
C1364 C1345 1.368 . S
C1364 C1358 1.368 . S
C1364 C1363 1.523 . S
C1365 C1349 1.429 . S
C1365 C1361 1.429 . S
C1365 C1366 1.523 . S
C1366 C1350 1.368 . S
C1366 C1362 1.368 . S
C1366 C1365 1.523 . S
H1367 C1342 0.950 . S
H1368 C1344 0.950 . S
H1369 C1345 0.949 . S
H1370 C1347 0.950 . S
H1371 C1349 0.950 . S
C1372 C1373 1.349 . S
C1372 C1374 1.327 . S
C1372 H1397 0.950 . S
C1373 C1372 1.349 . S
C1373 C1389 1.349 . S
C1374 C1372 1.327 . S
C1374 C1393 1.429 . S
C1374 H1398 0.950 . S
C1375 C1392 1.574 . S
C1375 C1394 1.368 . S
C1375 H1399 0.949 . S
H1376 C1380 0.949 . S
C1377 C1378 1.349 . S
C1377 C1379 1.327 . S
C1377 H1400 0.950 . S
C1378 C1377 1.349 . S
C1378 C1390 1.349 . S
C1379 C1377 1.327 . S
C1379 C1395 1.429 . S
C1379 H1401 0.950 . S
C1380 H1376 0.949 . S
C1380 C1388 1.574 . S
C1380 C1396 1.368 . S
H1381 C1389 0.950 . S
H1382 C1387 0.950 . S
H1383 C1388 0.949 . S
H1384 C1390 0.950 . S
H1385 C1391 0.950 . S
H1386 C1392 0.949 . S
C1387 H1382 0.950 . S
C1387 C1389 1.327 . S
C1387 C1393 1.429 . S
C1388 C1380 1.574 . S
C1388 H1383 0.949 . S
C1388 C1394 1.368 . S
C1389 C1373 1.349 . S
C1389 H1381 0.950 . S
C1389 C1387 1.327 . S
C1390 C1378 1.349 . S
C1390 H1384 0.950 . S
C1390 C1391 1.327 . S
C1391 H1385 0.950 . S
C1391 C1390 1.327 . S
C1391 C1395 1.429 . S
C1392 C1375 1.574 . S
C1392 H1386 0.949 . S
C1392 C1396 1.368 . S
C1393 C1374 1.429 . S
C1393 C1387 1.429 . S
C1393 C1394 1.523 . S
C1394 C1375 1.368 . S
C1394 C1388 1.368 . S
C1394 C1393 1.523 . S
C1395 C1379 1.429 . S
C1395 C1391 1.429 . S
C1395 C1396 1.523 . S
C1396 C1380 1.368 . S
C1396 C1392 1.368 . S
C1396 C1395 1.523 . S
H1397 C1372 0.950 . S
H1398 C1374 0.950 . S
H1399 C1375 0.949 . S
H1400 C1377 0.950 . S
H1401 C1379 0.950 . S
C1402 C1403 1.349 . S
C1402 C1404 1.327 . S
C1402 H1427 0.950 . S
C1403 C1402 1.349 . S
C1403 C1419 1.349 . S
C1404 C1402 1.327 . S
C1404 C1423 1.429 . S
C1404 H1428 0.950 . S
C1405 C1422 1.574 . S
C1405 C1424 1.368 . S
C1405 H1429 0.949 . S
H1406 C1410 0.949 . S
C1407 C1408 1.349 . S
C1407 C1409 1.327 . S
C1407 H1430 0.950 . S
C1408 C1407 1.349 . S
C1408 C1420 1.349 . S
C1409 C1407 1.327 . S
C1409 C1425 1.429 . S
C1409 H1431 0.950 . S
C1410 H1406 0.949 . S
C1410 C1418 1.574 . S
C1410 C1426 1.368 . S
H1411 C1419 0.950 . S
H1412 C1417 0.950 . S
H1413 C1418 0.949 . S
H1414 C1420 0.950 . S
H1415 C1421 0.950 . S
H1416 C1422 0.949 . S
C1417 H1412 0.950 . S
C1417 C1419 1.327 . S
C1417 C1423 1.429 . S
C1418 C1410 1.574 . S
C1418 H1413 0.949 . S
C1418 C1424 1.368 . S
C1419 C1403 1.349 . S
C1419 H1411 0.950 . S
C1419 C1417 1.327 . S
C1420 C1408 1.349 . S
C1420 H1414 0.950 . S
C1420 C1421 1.327 . S
C1421 H1415 0.950 . S
C1421 C1420 1.327 . S
C1421 C1425 1.429 . S
C1422 C1405 1.574 . S
C1422 H1416 0.949 . S
C1422 C1426 1.368 . S
C1423 C1404 1.429 . S
C1423 C1417 1.429 . S
C1423 C1424 1.523 . S
C1424 C1405 1.368 . S
C1424 C1418 1.368 . S
C1424 C1423 1.523 . S
C1425 C1409 1.429 . S
C1425 C1421 1.429 . S
C1425 C1426 1.523 . S
C1426 C1410 1.368 . S
C1426 C1422 1.368 . S
C1426 C1425 1.523 . S
H1427 C1402 0.950 . S
H1428 C1404 0.950 . S
H1429 C1405 0.949 . S
H1430 C1407 0.950 . S
H1431 C1409 0.950 . S
C1432 C1433 1.349 . S
C1432 C1434 1.327 . S
C1432 H1457 0.950 1_554 S
C1433 C1432 1.349 . S
C1433 C1449 1.349 . S
C1434 C1432 1.327 . S
C1434 C1453 1.429 . S
C1434 H1458 0.950 . S
C1435 C1452 1.574 . S
C1435 C1454 1.368 . S
C1435 H1459 0.949 . S
H1436 C1440 0.949 . S
C1437 C1438 1.349 . S
C1437 C1439 1.327 . S
C1437 H1460 0.950 . S
C1438 C1437 1.349 . S
C1438 C1450 1.349 1_545 S
C1439 C1437 1.327 . S
C1439 C1455 1.429 1_545 S
C1439 H1461 0.950 . S
C1440 H1436 0.949 . S
C1440 C1448 1.574 . S
C1440 C1456 1.368 . S
H1441 C1449 0.950 . S
H1442 C1447 0.950 . S
H1443 C1448 0.949 . S
H1444 C1450 0.950 . S
H1445 C1451 0.950 . S
H1446 C1452 0.949 . S
C1447 H1442 0.950 . S
C1447 C1449 1.327 . S
C1447 C1453 1.429 . S
C1448 C1440 1.574 . S
C1448 H1443 0.949 . S
C1448 C1454 1.368 . S
C1449 C1433 1.349 . S
C1449 H1441 0.950 . S
C1449 C1447 1.327 . S
C1450 C1438 1.349 1_565 S
C1450 H1444 0.950 . S
C1450 C1451 1.327 . S
C1451 H1445 0.950 . S
C1451 C1450 1.327 . S
C1451 C1455 1.429 . S
C1452 C1435 1.574 . S
C1452 H1446 0.949 . S
C1452 C1456 1.368 . S
C1453 C1434 1.429 . S
C1453 C1447 1.429 . S
C1453 C1454 1.523 . S
C1454 C1435 1.368 . S
C1454 C1448 1.368 . S
C1454 C1453 1.523 . S
C1455 C1439 1.429 1_565 S
C1455 C1451 1.429 . S
C1455 C1456 1.523 . S
C1456 C1440 1.368 . S
C1456 C1452 1.368 . S
C1456 C1455 1.523 . S
H1457 C1432 0.950 1_556 S
H1458 C1434 0.950 . S
H1459 C1435 0.949 . S
H1460 C1437 0.950 . S
H1461 C1439 0.950 . S
C1462 C1463 1.349 . S
C1462 C1464 1.327 . S
C1462 H1487 0.950 . S
C1463 C1462 1.349 . S
C1463 C1479 1.349 1_554 S
C1464 C1462 1.327 . S
C1464 C1483 1.429 . S
C1464 H1488 0.950 . S
C1465 C1482 1.574 . S
C1465 C1484 1.368 1_556 S
C1465 H1489 0.949 . S
H1466 C1470 0.949 . S
C1467 C1468 1.323 1_556 S
C1467 C1469 1.327 . S
C1467 H1490 0.950 . S
C1468 C1467 1.323 1_554 S
C1468 C1480 1.368 . S
C1469 C1467 1.327 . S
C1469 C1485 1.408 1_556 S
C1469 H1491 0.950 . S
C1470 H1466 0.949 . S
C1470 C1478 1.574 . S
C1470 C1486 1.398 . S
H1471 C1479 0.950 . S
H1472 C1477 0.950 . S
H1473 C1478 0.949 . S
H1474 C1480 0.950 . S
H1475 C1481 0.950 . S
H1476 C1482 0.949 . S
C1477 H1472 0.950 . S
C1477 C1479 1.327 . S
C1477 C1483 1.429 1_556 S
C1478 C1470 1.574 . S
C1478 H1473 0.949 . S
C1478 C1484 1.368 . S
C1479 C1463 1.349 1_556 S
C1479 H1471 0.950 . S
C1479 C1477 1.327 . S
C1480 C1468 1.368 . S
C1480 H1474 0.950 . S
C1480 C1481 1.327 . S
C1481 H1475 0.950 . S
C1481 C1480 1.327 . S
C1481 C1485 1.462 . S
C1482 C1465 1.574 . S
C1482 H1476 0.949 . S
C1482 C1486 1.332 1_556 S
C1483 C1464 1.429 . S
C1483 C1477 1.429 1_554 S
C1483 C1484 1.523 . S
C1484 C1465 1.368 1_554 S
C1484 C1478 1.368 . S
C1484 C1483 1.523 . S
C1485 C1469 1.408 1_554 S
C1485 C1481 1.462 . S
C1485 C1486 1.524 . S
C1486 C1470 1.398 . S
C1486 C1482 1.332 1_554 S
C1486 C1485 1.524 . S
H1487 C1462 0.950 . S
H1488 C1464 0.950 . S
H1489 C1465 0.949 . S
H1490 C1467 0.950 . S
H1491 C1469 0.950 . S
C1492 C1493 1.349 . S
C1492 C1494 1.327 . S
C1492 H1517 0.950 . S
C1493 C1492 1.349 . S
C1493 C1509 1.349 . S
C1494 C1492 1.327 . S
C1494 C1513 1.429 . S
C1494 H1518 0.950 . S
C1495 C1512 1.574 . S
C1495 C1514 1.368 . S
C1495 H1519 0.949 . S
H1496 C1500 0.949 . S
C1497 C1498 1.349 . S
C1497 C1499 1.327 . S
C1497 H1520 0.950 . S
C1498 C1497 1.349 . S
C1498 C1510 1.349 . S
C1499 C1497 1.327 . S
C1499 C1515 1.429 . S
C1499 H1521 0.950 . S
C1500 H1496 0.949 . S
C1500 C1508 1.574 . S
C1500 C1516 1.368 . S
H1501 C1509 0.950 . S
H1502 C1507 0.950 . S
H1503 C1508 0.949 . S
H1504 C1510 0.950 . S
H1505 C1511 0.950 . S
H1506 C1512 0.949 . S
C1507 H1502 0.950 . S
C1507 C1509 1.327 . S
C1507 C1513 1.429 . S
C1508 C1500 1.574 . S
C1508 H1503 0.949 . S
C1508 C1514 1.368 . S
C1509 C1493 1.349 . S
C1509 H1501 0.950 . S
C1509 C1507 1.327 . S
C1510 C1498 1.349 . S
C1510 H1504 0.950 . S
C1510 C1511 1.327 . S
C1511 H1505 0.950 . S
C1511 C1510 1.327 . S
C1511 C1515 1.429 . S
C1512 C1495 1.574 . S
C1512 H1506 0.949 . S
C1512 C1516 1.368 . S
C1513 C1494 1.429 . S
C1513 C1507 1.429 . S
C1513 C1514 1.523 . S
C1514 C1495 1.368 . S
C1514 C1508 1.368 . S
C1514 C1513 1.523 . S
C1515 C1499 1.429 . S
C1515 C1511 1.429 . S
C1515 C1516 1.523 . S
C1516 C1500 1.368 . S
C1516 C1512 1.368 . S
C1516 C1515 1.523 . S
H1517 C1492 0.950 . S
H1518 C1494 0.950 . S
H1519 C1495 0.949 . S
H1520 C1497 0.950 . S
H1521 C1499 0.950 . S
C1522 C1523 1.349 . S
C1522 C1524 1.327 . S
C1522 H1547 0.950 . S
C1523 C1522 1.349 . S
C1523 C1539 1.349 . S
C1524 C1522 1.327 . S
C1524 C1543 1.429 . S
C1524 H1548 0.950 . S
C1525 C1542 1.574 . S
C1525 C1544 1.368 . S
C1525 H1549 0.949 . S
H1526 C1530 0.949 . S
C1527 C1528 1.349 . S
C1527 C1529 1.327 . S
C1527 H1550 0.950 . S
C1528 C1527 1.349 . S
C1528 C1540 1.349 . S
C1529 C1527 1.327 . S
C1529 C1545 1.429 . S
C1529 H1551 0.950 . S
C1530 H1526 0.949 . S
C1530 C1538 1.574 . S
C1530 C1546 1.368 . S
H1531 C1539 0.950 . S
H1532 C1537 0.950 . S
H1533 C1538 0.949 . S
H1534 C1540 0.950 . S
H1535 C1541 0.950 . S
H1536 C1542 0.949 . S
C1537 H1532 0.950 . S
C1537 C1539 1.327 . S
C1537 C1543 1.429 . S
C1538 C1530 1.574 . S
C1538 H1533 0.949 . S
C1538 C1544 1.368 . S
C1539 C1523 1.349 . S
C1539 H1531 0.950 . S
C1539 C1537 1.327 . S
C1540 C1528 1.349 . S
C1540 H1534 0.950 . S
C1540 C1541 1.327 . S
C1541 H1535 0.950 . S
C1541 C1540 1.327 . S
C1541 C1545 1.429 . S
C1542 C1525 1.574 . S
C1542 H1536 0.949 . S
C1542 C1546 1.368 . S
C1543 C1524 1.429 . S
C1543 C1537 1.429 . S
C1543 C1544 1.523 . S
C1544 C1525 1.368 . S
C1544 C1538 1.368 . S
C1544 C1543 1.523 . S
C1545 C1529 1.429 . S
C1545 C1541 1.429 . S
C1545 C1546 1.523 . S
C1546 C1530 1.368 . S
C1546 C1542 1.368 . S
C1546 C1545 1.523 . S
H1547 C1522 0.950 . S
H1548 C1524 0.950 . S
H1549 C1525 0.949 . S
H1550 C1527 0.950 . S
H1551 C1529 0.950 . S
C1552 C1553 1.349 . S
C1552 C1554 1.327 . S
C1552 H1577 0.950 . S
C1553 C1552 1.349 . S
C1553 C1569 1.349 . S
C1554 C1552 1.327 . S
C1554 C1573 1.429 . S
C1554 H1578 0.950 . S
C1555 C1572 1.574 . S
C1555 C1574 1.368 . S
C1555 H1579 0.949 . S
H1556 C1560 0.949 . S
C1557 C1558 1.349 . S
C1557 C1559 1.327 . S
C1557 H1580 0.950 . S
C1558 C1557 1.349 . S
C1558 C1570 1.349 . S
C1559 C1557 1.327 . S
C1559 C1575 1.429 . S
C1559 H1581 0.950 . S
C1560 H1556 0.949 . S
C1560 C1568 1.574 . S
C1560 C1576 1.368 . S
H1561 C1569 0.950 . S
H1562 C1567 0.950 . S
H1563 C1568 0.949 . S
H1564 C1570 0.950 . S
H1565 C1571 0.950 . S
H1566 C1572 0.949 . S
C1567 H1562 0.950 . S
C1567 C1569 1.327 . S
C1567 C1573 1.429 . S
C1568 C1560 1.574 . S
C1568 H1563 0.949 . S
C1568 C1574 1.368 . S
C1569 C1553 1.349 . S
C1569 H1561 0.950 . S
C1569 C1567 1.327 . S
C1570 C1558 1.349 . S
C1570 H1564 0.950 . S
C1570 C1571 1.327 . S
C1571 H1565 0.950 . S
C1571 C1570 1.327 . S
C1571 C1575 1.429 . S
C1572 C1555 1.574 . S
C1572 H1566 0.949 . S
C1572 C1576 1.368 . S
C1573 C1554 1.429 . S
C1573 C1567 1.429 . S
C1573 C1574 1.523 . S
C1574 C1555 1.368 . S
C1574 C1568 1.368 . S
C1574 C1573 1.523 . S
C1575 C1559 1.429 . S
C1575 C1571 1.429 . S
C1575 C1576 1.523 . S
C1576 C1560 1.368 . S
C1576 C1572 1.368 . S
C1576 C1575 1.523 . S
H1577 C1552 0.950 . S
H1578 C1554 0.950 . S
H1579 C1555 0.949 . S
H1580 C1557 0.950 . S
H1581 C1559 0.950 . S
C1582 C1583 1.349 . S
C1582 C1584 1.327 . S
C1582 H1607 0.950 . S
C1583 C1582 1.349 . S
C1583 C1599 1.349 . S
C1584 C1582 1.327 . S
C1584 C1603 1.429 . S
C1584 H1608 0.950 . S
C1585 C1602 1.574 . S
C1585 C1604 1.368 . S
C1585 H1609 0.949 . S
H1586 C1590 0.949 . S
C1587 C1588 1.349 . S
C1587 C1589 1.327 . S
C1587 H1610 0.950 . S
C1588 C1587 1.349 . S
C1588 C1600 1.349 . S
C1589 C1587 1.327 . S
C1589 C1605 1.429 . S
C1589 H1611 0.950 . S
C1590 H1586 0.949 . S
C1590 C1598 1.574 . S
C1590 C1606 1.368 . S
H1591 C1599 0.950 . S
H1592 C1597 0.950 . S
H1593 C1598 0.949 . S
H1594 C1600 0.950 . S
H1595 C1601 0.950 . S
H1596 C1602 0.949 . S
C1597 H1592 0.950 . S
C1597 C1599 1.327 . S
C1597 C1603 1.429 . S
C1598 C1590 1.574 . S
C1598 H1593 0.949 . S
C1598 C1604 1.368 . S
C1599 C1583 1.349 . S
C1599 H1591 0.950 . S
C1599 C1597 1.327 . S
C1600 C1588 1.349 . S
C1600 H1594 0.950 . S
C1600 C1601 1.327 . S
C1601 H1595 0.950 . S
C1601 C1600 1.327 . S
C1601 C1605 1.429 . S
C1602 C1585 1.574 . S
C1602 H1596 0.949 . S
C1602 C1606 1.368 . S
C1603 C1584 1.429 . S
C1603 C1597 1.429 . S
C1603 C1604 1.523 . S
C1604 C1585 1.368 . S
C1604 C1598 1.368 . S
C1604 C1603 1.523 . S
C1605 C1589 1.429 . S
C1605 C1601 1.429 . S
C1605 C1606 1.523 . S
C1606 C1590 1.368 . S
C1606 C1602 1.368 . S
C1606 C1605 1.523 . S
H1607 C1582 0.950 . S
H1608 C1584 0.950 . S
H1609 C1585 0.949 . S
H1610 C1587 0.950 . S
H1611 C1589 0.950 . S
C1612 C1613 1.349 . S
C1612 C1614 1.327 . S
C1612 H1637 0.950 . S
C1613 C1612 1.349 . S
C1613 C1629 1.349 . S
C1614 C1612 1.327 . S
C1614 C1633 1.429 . S
C1614 H1638 0.950 . S
C1615 C1632 1.574 . S
C1615 C1634 1.368 . S
C1615 H1639 0.949 . S
H1616 C1620 0.949 . S
C1617 C1618 1.349 . S
C1617 C1619 1.327 . S
C1617 H1640 0.950 . S
C1618 C1617 1.349 . S
C1618 C1630 1.349 . S
C1619 C1617 1.327 . S
C1619 C1635 1.429 . S
C1619 H1641 0.950 . S
C1620 H1616 0.949 . S
C1620 C1628 1.574 . S
C1620 C1636 1.368 . S
H1621 C1629 0.950 . S
H1622 C1627 0.950 . S
H1623 C1628 0.949 . S
H1624 C1630 0.950 . S
H1625 C1631 0.950 . S
H1626 C1632 0.949 . S
C1627 H1622 0.950 . S
C1627 C1629 1.327 . S
C1627 C1633 1.429 . S
C1628 C1620 1.574 . S
C1628 H1623 0.949 . S
C1628 C1634 1.368 . S
C1629 C1613 1.349 . S
C1629 H1621 0.950 . S
C1629 C1627 1.327 . S
C1630 C1618 1.349 . S
C1630 H1624 0.950 . S
C1630 C1631 1.327 . S
C1631 H1625 0.950 . S
C1631 C1630 1.327 . S
C1631 C1635 1.429 . S
C1632 C1615 1.574 . S
C1632 H1626 0.949 . S
C1632 C1636 1.368 . S
C1633 C1614 1.429 . S
C1633 C1627 1.429 . S
C1633 C1634 1.523 . S
C1634 C1615 1.368 . S
C1634 C1628 1.368 . S
C1634 C1633 1.523 . S
C1635 C1619 1.429 . S
C1635 C1631 1.429 . S
C1635 C1636 1.523 . S
C1636 C1620 1.368 . S
C1636 C1632 1.368 . S
C1636 C1635 1.523 . S
H1637 C1612 0.950 . S
H1638 C1614 0.950 . S
H1639 C1615 0.949 . S
H1640 C1617 0.950 . S
H1641 C1619 0.950 . S
C1642 C1643 1.349 . S
C1642 C1644 1.327 . S
C1642 H1667 0.950 . S
C1643 C1642 1.349 . S
C1643 C1659 1.349 . S
C1644 C1642 1.327 . S
C1644 C1663 1.429 . S
C1644 H1668 0.950 . S
C1645 C1662 1.574 . S
C1645 C1664 1.368 . S
C1645 H1669 0.949 . S
H1646 C1650 0.949 . S
C1647 C1648 1.349 . S
C1647 C1649 1.327 . S
C1647 H1670 0.950 . S
C1648 C1647 1.349 . S
C1648 C1660 1.349 . S
C1649 C1647 1.327 . S
C1649 C1665 1.429 . S
C1649 H1671 0.950 . S
C1650 H1646 0.949 . S
C1650 C1658 1.574 . S
C1650 C1666 1.368 . S
H1651 C1659 0.950 . S
H1652 C1657 0.950 . S
H1653 C1658 0.949 . S
H1654 C1660 0.950 . S
H1655 C1661 0.950 . S
H1656 C1662 0.949 . S
C1657 H1652 0.950 . S
C1657 C1659 1.327 . S
C1657 C1663 1.429 . S
C1658 C1650 1.574 . S
C1658 H1653 0.949 . S
C1658 C1664 1.368 . S
C1659 C1643 1.349 . S
C1659 H1651 0.950 . S
C1659 C1657 1.327 . S
C1660 C1648 1.349 . S
C1660 H1654 0.950 . S
C1660 C1661 1.327 . S
C1661 H1655 0.950 . S
C1661 C1660 1.327 . S
C1661 C1665 1.429 . S
C1662 C1645 1.574 . S
C1662 H1656 0.949 . S
C1662 C1666 1.368 . S
C1663 C1644 1.429 . S
C1663 C1657 1.429 . S
C1663 C1664 1.523 . S
C1664 C1645 1.368 . S
C1664 C1658 1.368 . S
C1664 C1663 1.523 . S
C1665 C1649 1.429 . S
C1665 C1661 1.429 . S
C1665 C1666 1.523 . S
C1666 C1650 1.368 . S
C1666 C1662 1.368 . S
C1666 C1665 1.523 . S
H1667 C1642 0.950 . S
H1668 C1644 0.950 . S
H1669 C1645 0.949 . S
H1670 C1647 0.950 . S
H1671 C1649 0.950 . S
C1672 C1673 1.349 . S
C1672 C1674 1.327 . S
C1672 H1697 0.950 . S
C1673 C1672 1.349 . S
C1673 C1689 1.349 . S
C1674 C1672 1.327 . S
C1674 C1693 1.429 . S
C1674 H1698 0.950 . S
C1675 C1692 1.574 . S
C1675 C1694 1.368 . S
C1675 H1699 0.949 . S
H1676 C1680 0.949 . S
C1677 C1678 1.349 . S
C1677 C1679 1.327 . S
C1677 H1700 0.950 . S
C1678 C1677 1.349 . S
C1678 C1690 1.349 . S
C1679 C1677 1.327 . S
C1679 C1695 1.429 . S
C1679 H1701 0.950 . S
C1680 H1676 0.949 . S
C1680 C1688 1.574 . S
C1680 C1696 1.368 . S
H1681 C1689 0.950 . S
H1682 C1687 0.950 . S
H1683 C1688 0.949 . S
H1684 C1690 0.950 . S
H1685 C1691 0.950 . S
H1686 C1692 0.949 . S
C1687 H1682 0.950 . S
C1687 C1689 1.327 . S
C1687 C1693 1.429 . S
C1688 C1680 1.574 . S
C1688 H1683 0.949 . S
C1688 C1694 1.368 . S
C1689 C1673 1.349 . S
C1689 H1681 0.950 . S
C1689 C1687 1.327 . S
C1690 C1678 1.349 . S
C1690 H1684 0.950 . S
C1690 C1691 1.327 . S
C1691 H1685 0.950 . S
C1691 C1690 1.327 . S
C1691 C1695 1.429 . S
C1692 C1675 1.574 . S
C1692 H1686 0.949 . S
C1692 C1696 1.368 . S
C1693 C1674 1.429 . S
C1693 C1687 1.429 . S
C1693 C1694 1.523 . S
C1694 C1675 1.368 . S
C1694 C1688 1.368 . S
C1694 C1693 1.523 . S
C1695 C1679 1.429 . S
C1695 C1691 1.429 . S
C1695 C1696 1.523 . S
C1696 C1680 1.368 . S
C1696 C1692 1.368 . S
C1696 C1695 1.523 . S
H1697 C1672 0.950 . S
H1698 C1674 0.950 . S
H1699 C1675 0.949 . S
H1700 C1677 0.950 . S
H1701 C1679 0.950 . S
C1702 C1703 1.349 . S
C1702 C1704 1.327 . S
C1702 H1727 0.950 . S
C1703 C1702 1.349 . S
C1703 C1719 1.349 . S
C1704 C1702 1.327 . S
C1704 C1723 1.429 . S
C1704 H1728 0.950 . S
C1705 C1722 1.574 . S
C1705 C1724 1.368 . S
C1705 H1729 0.949 . S
H1706 C1710 0.949 . S
C1707 C1708 1.349 . S
C1707 C1709 1.327 . S
C1707 H1730 0.950 . S
C1708 C1707 1.349 . S
C1708 C1720 1.349 . S
C1709 C1707 1.327 . S
C1709 C1725 1.429 . S
C1709 H1731 0.950 . S
C1710 H1706 0.949 . S
C1710 C1718 1.574 . S
C1710 C1726 1.368 . S
H1711 C1719 0.950 . S
H1712 C1717 0.950 . S
H1713 C1718 0.949 . S
H1714 C1720 0.950 . S
H1715 C1721 0.950 . S
H1716 C1722 0.949 . S
C1717 H1712 0.950 . S
C1717 C1719 1.327 . S
C1717 C1723 1.429 . S
C1718 C1710 1.574 . S
C1718 H1713 0.949 . S
C1718 C1724 1.368 . S
C1719 C1703 1.349 . S
C1719 H1711 0.950 . S
C1719 C1717 1.327 . S
C1720 C1708 1.349 . S
C1720 H1714 0.950 . S
C1720 C1721 1.327 . S
C1721 H1715 0.950 . S
C1721 C1720 1.327 . S
C1721 C1725 1.429 . S
C1722 C1705 1.574 . S
C1722 H1716 0.949 . S
C1722 C1726 1.368 . S
C1723 C1704 1.429 . S
C1723 C1717 1.429 . S
C1723 C1724 1.523 . S
C1724 C1705 1.368 . S
C1724 C1718 1.368 . S
C1724 C1723 1.523 . S
C1725 C1709 1.429 . S
C1725 C1721 1.429 . S
C1725 C1726 1.523 . S
C1726 C1710 1.368 . S
C1726 C1722 1.368 . S
C1726 C1725 1.523 . S
H1727 C1702 0.950 . S
H1728 C1704 0.950 . S
H1729 C1705 0.949 . S
H1730 C1707 0.950 . S
H1731 C1709 0.950 . S
C1732 C1733 1.349 . S
C1732 C1734 1.327 . S
C1732 H1757 0.950 . S
C1733 C1732 1.349 . S
C1733 C1749 1.349 . S
C1734 C1732 1.327 . S
C1734 C1753 1.429 . S
C1734 H1758 0.950 . S
C1735 C1752 1.574 . S
C1735 C1754 1.368 . S
C1735 H1759 0.949 . S
H1736 C1740 0.949 . S
C1737 C1738 1.349 . S
C1737 C1739 1.327 . S
C1737 H1760 0.950 . S
C1738 C1737 1.349 . S
C1738 C1750 1.349 . S
C1739 C1737 1.327 . S
C1739 C1755 1.429 . S
C1739 H1761 0.950 . S
C1740 H1736 0.949 . S
C1740 C1748 1.574 . S
C1740 C1756 1.368 . S
H1741 C1749 0.950 . S
H1742 C1747 0.950 . S
H1743 C1748 0.949 . S
H1744 C1750 0.950 . S
H1745 C1751 0.950 . S
H1746 C1752 0.949 . S
C1747 H1742 0.950 . S
C1747 C1749 1.327 . S
C1747 C1753 1.429 . S
C1748 C1740 1.574 . S
C1748 H1743 0.949 . S
C1748 C1754 1.368 . S
C1749 C1733 1.349 . S
C1749 H1741 0.950 . S
C1749 C1747 1.327 . S
C1750 C1738 1.349 . S
C1750 H1744 0.950 . S
C1750 C1751 1.327 . S
C1751 H1745 0.950 . S
C1751 C1750 1.327 . S
C1751 C1755 1.429 . S
C1752 C1735 1.574 . S
C1752 H1746 0.949 . S
C1752 C1756 1.368 . S
C1753 C1734 1.429 . S
C1753 C1747 1.429 . S
C1753 C1754 1.523 . S
C1754 C1735 1.368 . S
C1754 C1748 1.368 . S
C1754 C1753 1.523 . S
C1755 C1739 1.429 . S
C1755 C1751 1.429 . S
C1755 C1756 1.523 . S
C1756 C1740 1.368 . S
C1756 C1752 1.368 . S
C1756 C1755 1.523 . S
H1757 C1732 0.950 . S
H1758 C1734 0.950 . S
H1759 C1735 0.949 . S
H1760 C1737 0.950 . S
H1761 C1739 0.950 . S
C1762 C1763 1.349 . S
C1762 C1764 1.327 . S
C1762 H1787 0.950 . S
C1763 C1762 1.349 . S
C1763 C1779 1.349 . S
C1764 C1762 1.327 . S
C1764 C1783 1.429 . S
C1764 H1788 0.950 . S
C1765 C1782 1.574 . S
C1765 C1784 1.368 . S
C1765 H1789 0.949 . S
H1766 C1770 0.949 . S
C1767 C1768 1.349 . S
C1767 C1769 1.327 . S
C1767 H1790 0.950 . S
C1768 C1767 1.349 . S
C1768 C1780 1.349 . S
C1769 C1767 1.327 . S
C1769 C1785 1.429 . S
C1769 H1791 0.950 . S
C1770 H1766 0.949 . S
C1770 C1778 1.574 . S
C1770 C1786 1.368 . S
H1771 C1779 0.950 . S
H1772 C1777 0.950 . S
H1773 C1778 0.949 . S
H1774 C1780 0.950 . S
H1775 C1781 0.950 . S
H1776 C1782 0.949 . S
C1777 H1772 0.950 . S
C1777 C1779 1.327 . S
C1777 C1783 1.429 . S
C1778 C1770 1.574 . S
C1778 H1773 0.949 . S
C1778 C1784 1.368 . S
C1779 C1763 1.349 . S
C1779 H1771 0.950 . S
C1779 C1777 1.327 . S
C1780 C1768 1.349 . S
C1780 H1774 0.950 . S
C1780 C1781 1.327 . S
C1781 H1775 0.950 . S
C1781 C1780 1.327 . S
C1781 C1785 1.429 . S
C1782 C1765 1.574 . S
C1782 H1776 0.949 . S
C1782 C1786 1.368 . S
C1783 C1764 1.429 . S
C1783 C1777 1.429 . S
C1783 C1784 1.523 . S
C1784 C1765 1.368 . S
C1784 C1778 1.368 . S
C1784 C1783 1.523 . S
C1785 C1769 1.429 . S
C1785 C1781 1.429 . S
C1785 C1786 1.523 . S
C1786 C1770 1.368 . S
C1786 C1782 1.368 . S
C1786 C1785 1.523 . S
H1787 C1762 0.950 . S
H1788 C1764 0.950 . S
H1789 C1765 0.949 . S
H1790 C1767 0.950 . S
H1791 C1769 0.950 . S
C1792 C1793 1.349 . S
C1792 C1794 1.327 . S
C1792 H1817 0.950 . S
C1793 C1792 1.349 . S
C1793 C1809 1.349 . S
C1794 C1792 1.327 . S
C1794 C1813 1.429 . S
C1794 H1818 0.950 . S
C1795 C1812 1.574 . S
C1795 C1814 1.368 . S
C1795 H1819 0.949 . S
H1796 C1800 0.949 . S
C1797 C1798 1.349 . S
C1797 C1799 1.327 . S
C1797 H1820 0.950 . S
C1798 C1797 1.349 . S
C1798 C1810 1.349 . S
C1799 C1797 1.327 . S
C1799 C1815 1.429 . S
C1799 H1821 0.950 . S
C1800 H1796 0.949 . S
C1800 C1808 1.574 . S
C1800 C1816 1.368 . S
H1801 C1809 0.950 . S
H1802 C1807 0.950 . S
H1803 C1808 0.949 . S
H1804 C1810 0.950 . S
H1805 C1811 0.950 . S
H1806 C1812 0.949 . S
C1807 H1802 0.950 . S
C1807 C1809 1.327 . S
C1807 C1813 1.429 . S
C1808 C1800 1.574 . S
C1808 H1803 0.949 . S
C1808 C1814 1.368 . S
C1809 C1793 1.349 . S
C1809 H1801 0.950 . S
C1809 C1807 1.327 . S
C1810 C1798 1.349 . S
C1810 H1804 0.950 . S
C1810 C1811 1.327 . S
C1811 H1805 0.950 . S
C1811 C1810 1.327 . S
C1811 C1815 1.429 . S
C1812 C1795 1.574 . S
C1812 H1806 0.949 . S
C1812 C1816 1.368 . S
C1813 C1794 1.429 . S
C1813 C1807 1.429 . S
C1813 C1814 1.523 . S
C1814 C1795 1.368 . S
C1814 C1808 1.368 . S
C1814 C1813 1.523 . S
C1815 C1799 1.429 . S
C1815 C1811 1.429 . S
C1815 C1816 1.523 . S
C1816 C1800 1.368 . S
C1816 C1812 1.368 . S
C1816 C1815 1.523 . S
H1817 C1792 0.950 . S
H1818 C1794 0.950 . S
H1819 C1795 0.949 . S
H1820 C1797 0.950 . S
H1821 C1799 0.950 . S
C1822 C1823 1.349 . S
C1822 C1824 1.327 . S
C1822 H1847 0.950 . S
C1823 C1822 1.349 . S
C1823 C1839 1.349 . S
C1824 C1822 1.327 . S
C1824 C1843 1.429 . S
C1824 H1848 0.950 . S
C1825 C1842 1.574 . S
C1825 C1844 1.368 . S
C1825 H1849 0.949 . S
H1826 C1830 0.949 . S
C1827 C1828 1.349 . S
C1827 C1829 1.327 . S
C1827 H1850 0.950 . S
C1828 C1827 1.349 . S
C1828 C1840 1.349 . S
C1829 C1827 1.327 . S
C1829 C1845 1.429 . S
C1829 H1851 0.950 . S
C1830 H1826 0.949 . S
C1830 C1838 1.574 . S
C1830 C1846 1.368 . S
H1831 C1839 0.950 . S
H1832 C1837 0.950 . S
H1833 C1838 0.949 . S
H1834 C1840 0.950 . S
H1835 C1841 0.950 . S
H1836 C1842 0.949 . S
C1837 H1832 0.950 . S
C1837 C1839 1.327 . S
C1837 C1843 1.429 . S
C1838 C1830 1.574 . S
C1838 H1833 0.949 . S
C1838 C1844 1.368 . S
C1839 C1823 1.349 . S
C1839 H1831 0.950 . S
C1839 C1837 1.327 . S
C1840 C1828 1.349 . S
C1840 H1834 0.950 . S
C1840 C1841 1.327 . S
C1841 H1835 0.950 . S
C1841 C1840 1.327 . S
C1841 C1845 1.429 . S
C1842 C1825 1.574 . S
C1842 H1836 0.949 . S
C1842 C1846 1.368 . S
C1843 C1824 1.429 . S
C1843 C1837 1.429 . S
C1843 C1844 1.523 . S
C1844 C1825 1.368 . S
C1844 C1838 1.368 . S
C1844 C1843 1.523 . S
C1845 C1829 1.429 . S
C1845 C1841 1.429 . S
C1845 C1846 1.523 . S
C1846 C1830 1.368 . S
C1846 C1842 1.368 . S
C1846 C1845 1.523 . S
H1847 C1822 0.950 . S
H1848 C1824 0.950 . S
H1849 C1825 0.949 . S
H1850 C1827 0.950 . S
H1851 C1829 0.950 . S
C1852 C1853 1.349 . S
C1852 C1854 1.327 . S
C1852 H1877 0.950 . S
C1853 C1852 1.349 . S
C1853 C1869 1.349 . S
C1854 C1852 1.327 . S
C1854 C1873 1.429 . S
C1854 H1878 0.950 . S
C1855 C1872 1.574 . S
C1855 C1874 1.368 . S
C1855 H1879 0.949 . S
H1856 C1860 0.949 . S
C1857 C1858 1.349 . S
C1857 C1859 1.327 . S
C1857 H1880 0.950 1_565 S
C1858 C1857 1.349 . S
C1858 C1870 1.349 . S
C1859 C1857 1.327 . S
C1859 C1875 1.429 . S
C1859 H1881 0.950 . S
C1860 H1856 0.949 . S
C1860 C1868 1.574 . S
C1860 C1876 1.368 . S
H1861 C1869 0.950 . S
H1862 C1867 0.950 . S
H1863 C1868 0.949 . S
H1864 C1870 0.950 . S
H1865 C1871 0.950 . S
H1866 C1872 0.949 . S
C1867 H1862 0.950 . S
C1867 C1869 1.327 . S
C1867 C1873 1.429 . S
C1868 C1860 1.574 . S
C1868 H1863 0.949 . S
C1868 C1874 1.368 . S
C1869 C1853 1.349 . S
C1869 H1861 0.950 . S
C1869 C1867 1.327 . S
C1870 C1858 1.349 . S
C1870 H1864 0.950 . S
C1870 C1871 1.327 . S
C1871 H1865 0.950 . S
C1871 C1870 1.327 . S
C1871 C1875 1.429 . S
C1872 C1855 1.574 . S
C1872 H1866 0.949 . S
C1872 C1876 1.368 . S
C1873 C1854 1.429 . S
C1873 C1867 1.429 . S
C1873 C1874 1.523 . S
C1874 C1855 1.368 . S
C1874 C1868 1.368 . S
C1874 C1873 1.523 . S
C1875 C1859 1.429 . S
C1875 C1871 1.429 . S
C1875 C1876 1.523 . S
C1876 C1860 1.368 . S
C1876 C1872 1.368 . S
C1876 C1875 1.523 . S
H1877 C1852 0.950 . S
H1878 C1854 0.950 . S
H1879 C1855 0.949 . S
H1880 C1857 0.950 1_545 S
H1881 C1859 0.950 . S
C1882 C1883 1.349 . S
C1882 C1884 1.327 . S
C1882 H1907 0.950 . S
C1883 C1882 1.349 . S
C1883 C1899 1.349 . S
C1884 C1882 1.327 . S
C1884 C1903 1.429 . S
C1884 H1908 0.950 . S
C1885 C1902 1.574 . S
C1885 C1904 1.368 . S
C1885 H1909 0.949 . S
H1886 C1890 0.949 . S
C1887 C1888 1.349 . S
C1887 C1889 1.327 . S
C1887 H1910 0.950 . S
C1888 C1887 1.349 . S
C1888 C1900 1.349 . S
C1889 C1887 1.327 . S
C1889 C1905 1.429 . S
C1889 H1911 0.950 . S
C1890 H1886 0.949 . S
C1890 C1898 1.574 . S
C1890 C1906 1.368 . S
H1891 C1899 0.950 . S
H1892 C1897 0.950 . S
H1893 C1898 0.949 . S
H1894 C1900 0.950 . S
H1895 C1901 0.950 . S
H1896 C1902 0.949 . S
C1897 H1892 0.950 . S
C1897 C1899 1.327 . S
C1897 C1903 1.429 . S
C1898 C1890 1.574 . S
C1898 H1893 0.949 . S
C1898 C1904 1.368 . S
C1899 C1883 1.349 . S
C1899 H1891 0.950 . S
C1899 C1897 1.327 . S
C1900 C1888 1.349 . S
C1900 H1894 0.950 . S
C1900 C1901 1.327 . S
C1901 H1895 0.950 . S
C1901 C1900 1.327 . S
C1901 C1905 1.429 . S
C1902 C1885 1.574 . S
C1902 H1896 0.949 . S
C1902 C1906 1.368 . S
C1903 C1884 1.429 . S
C1903 C1897 1.429 . S
C1903 C1904 1.523 . S
C1904 C1885 1.368 . S
C1904 C1898 1.368 . S
C1904 C1903 1.523 . S
C1905 C1889 1.429 . S
C1905 C1901 1.429 . S
C1905 C1906 1.523 . S
C1906 C1890 1.368 . S
C1906 C1902 1.368 . S
C1906 C1905 1.523 . S
H1907 C1882 0.950 . S
H1908 C1884 0.950 . S
H1909 C1885 0.949 . S
H1910 C1887 0.950 . S
H1911 C1889 0.950 . S
C1912 C1913 1.349 1_565 S
C1912 C1914 1.328 . S
C1912 H1937 0.950 . S
C1913 C1912 1.349 1_545 S
C1913 C1929 1.349 . S
C1914 C1912 1.328 . S
C1914 C1933 1.410 1_565 S
C1914 H1938 0.967 . S
C1915 C1932 1.574 . S
C1915 C1934 1.368 . S
C1915 H1939 0.949 . S
H1916 C1920 0.949 1_565 S
C1917 C1918 1.349 . S
C1917 C1919 1.327 . S
C1917 H1940 0.950 . S
C1918 C1917 1.349 . S
C1918 C1930 1.349 . S
C1919 C1917 1.327 . S
C1919 C1935 1.429 . S
C1919 H1941 0.950 . S
C1920 H1916 0.949 1_545 S
C1920 C1928 1.574 . S
C1920 C1936 1.368 . S
H1921 C1929 0.950 . S
H1922 C1927 0.950 . S
H1923 C1928 0.949 1_565 S
H1924 C1930 0.950 . S
H1925 C1931 0.950 1_565 S
H1926 C1932 0.949 . S
C1927 H1922 0.950 . S
C1927 C1929 1.327 . S
C1927 C1933 1.429 . S
C1928 C1920 1.574 . S
C1928 H1923 0.949 1_545 S
C1928 C1934 1.368 . S
C1929 C1913 1.349 . S
C1929 H1921 0.950 . S
C1929 C1927 1.327 . S
C1930 C1918 1.349 . S
C1930 H1924 0.950 . S
C1930 C1931 1.327 . S
C1931 H1925 0.950 1_545 S
C1931 C1930 1.327 . S
C1931 C1935 1.429 . S
C1932 C1915 1.574 . S
C1932 H1926 0.949 . S
C1932 C1936 1.368 . S
C1933 C1914 1.410 1_545 S
C1933 C1927 1.429 . S
C1933 C1934 1.523 . S
C1934 C1915 1.368 . S
C1934 C1928 1.368 . S
C1934 C1933 1.523 . S
C1935 C1919 1.429 . S
C1935 C1931 1.429 . S
C1935 C1936 1.523 . S
C1936 C1920 1.368 . S
C1936 C1932 1.368 . S
C1936 C1935 1.523 . S
H1937 C1912 0.950 . S
H1938 C1914 0.967 . S
H1939 C1915 0.949 . S
H1940 C1917 0.950 . S
H1941 C1919 0.950 . S
C1942 C1943 1.349 . S
C1942 C1944 1.327 . S
C1942 H1967 0.950 . S
C1943 C1942 1.349 . S
C1943 C1959 1.349 . S
C1944 C1942 1.327 . S
C1944 C1963 1.429 . S
C1944 H1968 0.950 . S
C1945 C1962 1.574 . S
C1945 C1964 1.368 . S
C1945 H1969 0.949 . S
H1946 C1950 0.949 . S
C1947 C1948 1.349 . S
C1947 C1949 1.327 . S
C1947 H1970 0.950 . S
C1948 C1947 1.349 . S
C1948 C1960 1.349 . S
C1949 C1947 1.327 . S
C1949 C1965 1.429 . S
C1949 H1971 0.950 . S
C1950 H1946 0.949 . S
C1950 C1958 1.574 . S
C1950 C1966 1.368 . S
H1951 C1959 0.950 . S
H1952 C1957 0.950 . S
H1953 C1958 0.949 . S
H1954 C1960 0.950 . S
H1955 C1961 0.950 . S
H1956 C1962 0.949 . S
C1957 H1952 0.950 . S
C1957 C1959 1.327 . S
C1957 C1963 1.429 . S
C1958 C1950 1.574 . S
C1958 H1953 0.949 . S
C1958 C1964 1.368 . S
C1959 C1943 1.349 . S
C1959 H1951 0.950 . S
C1959 C1957 1.327 . S
C1960 C1948 1.349 . S
C1960 H1954 0.950 . S
C1960 C1961 1.327 . S
C1961 H1955 0.950 . S
C1961 C1960 1.327 . S
C1961 C1965 1.429 . S
C1962 C1945 1.574 . S
C1962 H1956 0.949 . S
C1962 C1966 1.368 . S
C1963 C1944 1.429 . S
C1963 C1957 1.429 . S
C1963 C1964 1.523 . S
C1964 C1945 1.368 . S
C1964 C1958 1.368 . S
C1964 C1963 1.523 . S
C1965 C1949 1.429 . S
C1965 C1961 1.429 . S
C1965 C1966 1.523 . S
C1966 C1950 1.368 . S
C1966 C1962 1.368 . S
C1966 C1965 1.523 . S
H1967 C1942 0.950 . S
H1968 C1944 0.950 . S
H1969 C1945 0.949 . S
H1970 C1947 0.950 . S
H1971 C1949 0.950 . S
C1972 C1973 1.349 . S
C1972 C1974 1.327 . S
C1972 H1997 0.950 . S
C1973 C1972 1.349 . S
C1973 C1989 1.349 1_545 S
C1974 C1972 1.327 . S
C1974 C1993 1.429 . S
C1974 H1998 0.950 . S
C1975 C1992 1.574 . S
C1975 C1994 1.368 . S
C1975 H1999 0.949 1_545 S
H1976 C1980 0.949 . S
C1977 C1978 1.349 . S
C1977 C1979 1.327 . S
C1977 H2000 0.951 . S
C1978 C1977 1.349 . S
C1978 C1990 1.349 . S
C1979 C1977 1.327 . S
C1979 C1995 1.429 . S
C1979 H2001 0.950 1_545 S
C1980 H1976 0.949 . S
C1980 C1988 1.574 . S
C1980 C1996 1.368 . S
H1981 C1989 0.950 . S
H1982 C1987 0.984 . S
H1983 C1988 0.949 . S
H1984 C1990 0.950 . S
H1985 C1991 0.950 . S
H1986 C1992 0.949 1_565 S
C1987 H1982 0.984 . S
C1987 C1989 1.320 . S
C1987 C1993 1.403 1_565 S
C1988 C1980 1.574 . S
C1988 H1983 0.949 . S
C1988 C1994 1.368 . S
C1989 C1973 1.349 1_565 S
C1989 H1981 0.950 . S
C1989 C1987 1.320 . S
C1990 C1978 1.349 . S
C1990 H1984 0.950 . S
C1990 C1991 1.327 . S
C1991 H1985 0.950 . S
C1991 C1990 1.327 . S
C1991 C1995 1.429 . S
C1992 C1975 1.574 . S
C1992 H1986 0.949 1_545 S
C1992 C1996 1.368 . S
C1993 C1974 1.429 . S
C1993 C1987 1.403 1_545 S
C1993 C1994 1.523 . S
C1994 C1975 1.368 . S
C1994 C1988 1.368 . S
C1994 C1993 1.523 . S
C1995 C1979 1.429 . S
C1995 C1991 1.429 . S
C1995 C1996 1.523 . S
C1996 C1980 1.368 . S
C1996 C1992 1.368 . S
C1996 C1995 1.523 . S
H1997 C1972 0.950 . S
H1998 C1974 0.950 . S
H1999 C1975 0.949 1_565 S
H2000 C1977 0.951 . S
H2001 C1979 0.950 1_565 S
C2002 C2003 1.349 . S
C2002 C2004 1.327 . S
C2002 H2027 0.950 . S
C2003 C2002 1.349 . S
C2003 C2019 1.349 . S
C2004 C2002 1.327 . S
C2004 C2023 1.429 . S
C2004 H2028 0.950 . S
C2005 C2022 1.574 . S
C2005 C2024 1.368 . S
C2005 H2029 0.949 . S
H2006 C2010 0.949 . S
C2007 C2008 1.349 . S
C2007 C2009 1.327 . S
C2007 H2030 0.950 . S
C2008 C2007 1.349 . S
C2008 C2020 1.349 . S
C2009 C2007 1.327 . S
C2009 C2025 1.429 . S
C2009 H2031 0.950 . S
C2010 H2006 0.949 . S
C2010 C2018 1.574 . S
C2010 C2026 1.368 . S
H2011 C2019 0.950 . S
H2012 C2017 0.950 . S
H2013 C2018 0.949 . S
H2014 C2020 0.950 . S
H2015 C2021 0.950 . S
H2016 C2022 0.949 . S
C2017 H2012 0.950 . S
C2017 C2019 1.327 . S
C2017 C2023 1.429 . S
C2018 C2010 1.574 . S
C2018 H2013 0.949 . S
C2018 C2024 1.368 . S
C2019 C2003 1.349 . S
C2019 H2011 0.950 . S
C2019 C2017 1.327 . S
C2020 C2008 1.349 . S
C2020 H2014 0.950 . S
C2020 C2021 1.327 . S
C2021 H2015 0.950 . S
C2021 C2020 1.327 . S
C2021 C2025 1.429 . S
C2022 C2005 1.574 . S
C2022 H2016 0.949 . S
C2022 C2026 1.368 . S
C2023 C2004 1.429 . S
C2023 C2017 1.429 . S
C2023 C2024 1.523 . S
C2024 C2005 1.368 . S
C2024 C2018 1.368 . S
C2024 C2023 1.523 . S
C2025 C2009 1.429 . S
C2025 C2021 1.429 . S
C2025 C2026 1.523 . S
C2026 C2010 1.368 . S
C2026 C2022 1.368 . S
C2026 C2025 1.523 . S
H2027 C2002 0.950 . S
H2028 C2004 0.950 . S
H2029 C2005 0.949 . S
H2030 C2007 0.950 . S
H2031 C2009 0.950 . S
C2032 C2033 1.349 . S
C2032 C2034 1.327 . S
C2032 H2057 0.950 . S
C2033 C2032 1.349 . S
C2033 C2049 1.349 1_565 S
C2034 C2032 1.327 . S
C2034 C2053 1.397 1_565 S
C2034 H2058 0.950 . S
C2035 C2052 1.574 . S
C2035 C2054 1.368 . S
C2035 H2059 0.949 . S
H2036 C2040 0.949 . S
C2037 C2038 1.349 . S
C2037 C2039 1.327 . S
C2037 H2060 0.950 . S
C2038 C2037 1.349 . S
C2038 C2050 1.398 . S
C2039 C2037 1.327 . S
C2039 C2055 1.429 . S
C2039 H2061 0.950 . S
C2040 H2036 0.949 . S
C2040 C2048 1.574 . S
C2040 C2056 1.368 1_565 S
H2041 C2049 0.950 . S
H2042 C2047 0.950 . S
H2043 C2048 0.949 . S
H2044 C2050 0.925 1_565 S
H2045 C2051 0.950 . S
H2046 C2052 0.949 . S
C2047 H2042 0.950 . S
C2047 C2049 1.327 . S
C2047 C2053 1.445 . S
C2048 C2040 1.574 . S
C2048 H2043 0.949 . S
C2048 C2054 1.368 1_565 S
C2049 C2033 1.349 1_545 S
C2049 H2041 0.950 . S
C2049 C2047 1.327 . S
C2050 C2038 1.398 . S
C2050 H2044 0.925 1_545 S
C2050 C2051 1.305 1_545 S
C2051 H2045 0.950 . S
C2051 C2050 1.305 1_565 S
C2051 C2055 1.429 1_565 S
C2052 C2035 1.574 . S
C2052 H2046 0.949 . S
C2052 C2056 1.368 . S
C2053 C2034 1.397 1_545 S
C2053 C2047 1.445 . S
C2053 C2054 1.538 . S
C2054 C2035 1.368 . S
C2054 C2048 1.368 1_545 S
C2054 C2053 1.538 . S
C2055 C2039 1.429 . S
C2055 C2051 1.429 1_545 S
C2055 C2056 1.523 . S
C2056 C2040 1.368 1_545 S
C2056 C2052 1.368 . S
C2056 C2055 1.523 . S
H2057 C2032 0.950 . S
H2058 C2034 0.950 . S
H2059 C2035 0.949 . S
H2060 C2037 0.950 . S
H2061 C2039 0.950 . S
C2062 C2063 1.349 . S
C2062 C2064 1.327 . S
C2062 H2087 0.950 . S
C2063 C2062 1.349 . S
C2063 C2079 1.349 . S
C2064 C2062 1.327 . S
C2064 C2083 1.429 . S
C2064 H2088 0.950 . S
C2065 C2082 1.574 . S
C2065 C2084 1.368 . S
C2065 H2089 0.949 . S
H2066 C2070 0.949 . S
C2067 C2068 1.349 . S
C2067 C2069 1.327 . S
C2067 H2090 0.950 . S
C2068 C2067 1.349 . S
C2068 C2080 1.349 . S
C2069 C2067 1.327 . S
C2069 C2085 1.429 . S
C2069 H2091 0.950 . S
C2070 H2066 0.949 . S
C2070 C2078 1.574 . S
C2070 C2086 1.368 . S
H2071 C2079 0.950 . S
H2072 C2077 0.950 . S
H2073 C2078 0.949 . S
H2074 C2080 0.950 . S
H2075 C2081 0.950 . S
H2076 C2082 0.949 . S
C2077 H2072 0.950 . S
C2077 C2079 1.327 . S
C2077 C2083 1.429 . S
C2078 C2070 1.574 . S
C2078 H2073 0.949 . S
C2078 C2084 1.368 . S
C2079 C2063 1.349 . S
C2079 H2071 0.950 . S
C2079 C2077 1.327 . S
C2080 C2068 1.349 . S
C2080 H2074 0.950 . S
C2080 C2081 1.327 . S
C2081 H2075 0.950 . S
C2081 C2080 1.327 . S
C2081 C2085 1.429 . S
C2082 C2065 1.574 . S
C2082 H2076 0.949 . S
C2082 C2086 1.368 . S
C2083 C2064 1.429 . S
C2083 C2077 1.429 . S
C2083 C2084 1.523 . S
C2084 C2065 1.368 . S
C2084 C2078 1.368 . S
C2084 C2083 1.523 . S
C2085 C2069 1.429 . S
C2085 C2081 1.429 . S
C2085 C2086 1.523 . S
C2086 C2070 1.368 . S
C2086 C2082 1.368 . S
C2086 C2085 1.523 . S
H2087 C2062 0.950 . S
H2088 C2064 0.950 . S
H2089 C2065 0.949 . S
H2090 C2067 0.950 . S
H2091 C2069 0.950 . S
C2092 C2093 1.349 . S
C2092 C2094 1.327 . S
C2092 H2117 0.950 . S
C2093 C2092 1.349 . S
C2093 C2109 1.349 1_545 S
C2094 C2092 1.327 . S
C2094 C2113 1.429 . S
C2094 H2118 0.950 . S
C2095 C2112 1.574 . S
C2095 C2114 1.368 1_565 S
C2095 H2119 0.949 . S
H2096 C2100 0.949 . S
C2097 C2098 1.349 1_565 S
C2097 C2099 1.327 . S
C2097 H2120 0.950 . S
C2098 C2097 1.349 1_545 S
C2098 C2110 1.349 . S
C2099 C2097 1.327 . S
C2099 C2115 1.429 1_565 S
C2099 H2121 0.950 . S
C2100 H2096 0.949 . S
C2100 C2108 1.574 . S
C2100 C2116 1.368 . S
H2101 C2109 0.950 . S
H2102 C2107 0.950 . S
H2103 C2108 0.949 . S
H2104 C2110 0.950 . S
H2105 C2111 0.950 . S
H2106 C2112 0.949 . S
C2107 H2102 0.950 . S
C2107 C2109 1.327 . S
C2107 C2113 1.429 1_565 S
C2108 C2100 1.574 . S
C2108 H2103 0.949 . S
C2108 C2114 1.368 . S
C2109 C2093 1.349 1_565 S
C2109 H2101 0.950 . S
C2109 C2107 1.327 . S
C2110 C2098 1.349 . S
C2110 H2104 0.950 . S
C2110 C2111 1.327 . S
C2111 H2105 0.950 . S
C2111 C2110 1.327 . S
C2111 C2115 1.429 . S
C2112 C2095 1.574 . S
C2112 H2106 0.949 . S
C2112 C2116 1.368 1_565 S
C2113 C2094 1.429 . S
C2113 C2107 1.429 1_545 S
C2113 C2114 1.523 . S
C2114 C2095 1.368 1_545 S
C2114 C2108 1.368 . S
C2114 C2113 1.523 . S
C2115 C2099 1.429 1_545 S
C2115 C2111 1.429 . S
C2115 C2116 1.523 . S
C2116 C2100 1.368 . S
C2116 C2112 1.368 1_545 S
C2116 C2115 1.523 . S
H2117 C2092 0.950 . S
H2118 C2094 0.950 . S
H2119 C2095 0.949 . S
H2120 C2097 0.950 . S
H2121 C2099 0.950 . S
C2122 C2123 1.349 . S
C2122 C2124 1.327 . S
C2122 H2147 0.950 . S
C2123 C2122 1.349 . S
C2123 C2139 1.349 . S
C2124 C2122 1.327 . S
C2124 C2143 1.429 . S
C2124 H2148 0.950 . S
C2125 C2142 1.574 . S
C2125 C2144 1.368 . S
C2125 H2149 0.949 . S
H2126 C2130 0.949 . S
C2127 C2128 1.349 . S
C2127 C2129 1.327 . S
C2127 H2150 0.950 . S
C2128 C2127 1.349 . S
C2128 C2140 1.349 . S
C2129 C2127 1.327 . S
C2129 C2145 1.429 . S
C2129 H2151 0.950 . S
C2130 H2126 0.949 . S
C2130 C2138 1.574 . S
C2130 C2146 1.368 . S
H2131 C2139 0.950 . S
H2132 C2137 0.950 . S
H2133 C2138 0.949 . S
H2134 C2140 0.950 . S
H2135 C2141 0.950 . S
H2136 C2142 0.949 . S
C2137 H2132 0.950 . S
C2137 C2139 1.327 . S
C2137 C2143 1.429 . S
C2138 C2130 1.574 . S
C2138 H2133 0.949 . S
C2138 C2144 1.368 . S
C2139 C2123 1.349 . S
C2139 H2131 0.950 . S
C2139 C2137 1.327 . S
C2140 C2128 1.349 . S
C2140 H2134 0.950 . S
C2140 C2141 1.327 . S
C2141 H2135 0.950 . S
C2141 C2140 1.327 . S
C2141 C2145 1.429 . S
C2142 C2125 1.574 . S
C2142 H2136 0.949 . S
C2142 C2146 1.368 . S
C2143 C2124 1.429 . S
C2143 C2137 1.429 . S
C2143 C2144 1.523 . S
C2144 C2125 1.368 . S
C2144 C2138 1.368 . S
C2144 C2143 1.523 . S
C2145 C2129 1.429 . S
C2145 C2141 1.429 . S
C2145 C2146 1.523 . S
C2146 C2130 1.368 . S
C2146 C2142 1.368 . S
C2146 C2145 1.523 . S
H2147 C2122 0.950 . S
H2148 C2124 0.950 . S
H2149 C2125 0.949 . S
H2150 C2127 0.950 . S
H2151 C2129 0.950 . S
C2152 C2153 1.349 . S
C2152 C2154 1.327 . S
C2152 H2177 0.950 . S
C2153 C2152 1.349 . S
C2153 C2169 1.349 . S
C2154 C2152 1.327 . S
C2154 C2173 1.429 . S
C2154 H2178 0.950 . S
C2155 C2172 1.574 1_554 S
C2155 C2174 1.368 . S
C2155 H2179 0.949 1_554 S
H2156 C2160 0.949 . S
C2157 C2158 1.349 . S
C2157 C2159 1.327 . S
C2157 H2180 0.950 . S
C2158 C2157 1.349 . S
C2158 C2170 1.349 1_556 S
C2159 C2157 1.327 . S
C2159 C2175 1.429 1_556 S
C2159 H2181 0.950 . S
C2160 H2156 0.949 . S
C2160 C2168 1.574 . S
C2160 C2176 1.368 . S
H2161 C2169 0.950 . S
H2162 C2167 0.950 . S
H2163 C2168 0.949 . S
H2164 C2170 0.950 . S
H2165 C2171 0.950 . S
H2166 C2172 0.949 . S
C2167 H2162 0.950 . S
C2167 C2169 1.327 . S
C2167 C2173 1.429 . S
C2168 C2160 1.574 . S
C2168 H2163 0.949 . S
C2168 C2174 1.368 . S
C2169 C2153 1.349 . S
C2169 H2161 0.950 . S
C2169 C2167 1.327 . S
C2170 C2158 1.349 1_554 S
C2170 H2164 0.950 . S
C2170 C2171 1.327 . S
C2171 H2165 0.950 . S
C2171 C2170 1.327 . S
C2171 C2175 1.429 . S
C2172 C2155 1.574 1_556 S
C2172 H2166 0.949 . S
C2172 C2176 1.368 1_556 S
C2173 C2154 1.429 . S
C2173 C2167 1.429 . S
C2173 C2174 1.523 . S
C2174 C2155 1.368 . S
C2174 C2168 1.368 . S
C2174 C2173 1.523 . S
C2175 C2159 1.429 1_554 S
C2175 C2171 1.429 . S
C2175 C2176 1.523 . S
C2176 C2160 1.368 . S
C2176 C2172 1.368 1_554 S
C2176 C2175 1.523 . S
H2177 C2152 0.950 . S
H2178 C2154 0.950 . S
H2179 C2155 0.949 1_556 S
H2180 C2157 0.950 . S
H2181 C2159 0.950 . S
C2182 C2183 1.349 . S
C2182 C2184 1.327 . S
C2182 H2207 0.950 . S
C2183 C2182 1.349 . S
C2183 C2199 1.349 . S
C2184 C2182 1.327 . S
C2184 C2203 1.429 . S
C2184 H2208 0.950 . S
C2185 C2202 1.574 . S
C2185 C2204 1.368 . S
C2185 H2209 0.949 . S
H2186 C2190 0.949 1_556 S
C2187 C2188 1.349 . S
C2187 C2189 1.327 . S
C2187 H2210 0.950 . S
C2188 C2187 1.349 . S
C2188 C2200 1.349 . S
C2189 C2187 1.327 . S
C2189 C2205 1.429 . S
C2189 H2211 0.950 . S
C2190 H2186 0.949 1_554 S
C2190 C2198 1.574 . S
C2190 C2206 1.368 . S
H2191 C2199 0.950 . S
H2192 C2197 0.950 . S
H2193 C2198 0.951 1_556 S
H2194 C2200 0.950 1_556 S
H2195 C2201 0.950 1_556 S
H2196 C2202 0.949 . S
C2197 H2192 0.950 . S
C2197 C2199 1.327 . S
C2197 C2203 1.429 . S
C2198 C2190 1.574 . S
C2198 H2193 0.951 1_554 S
C2198 C2204 1.368 . S
C2199 C2183 1.349 . S
C2199 H2191 0.950 . S
C2199 C2197 1.327 . S
C2200 C2188 1.349 . S
C2200 H2194 0.950 1_554 S
C2200 C2201 1.327 . S
C2201 H2195 0.950 1_554 S
C2201 C2200 1.327 . S
C2201 C2205 1.429 . S
C2202 C2185 1.574 . S
C2202 H2196 0.949 . S
C2202 C2206 1.368 . S
C2203 C2184 1.429 . S
C2203 C2197 1.429 . S
C2203 C2204 1.523 . S
C2204 C2185 1.368 . S
C2204 C2198 1.368 . S
C2204 C2203 1.523 . S
C2205 C2189 1.429 . S
C2205 C2201 1.429 . S
C2205 C2206 1.523 . S
C2206 C2190 1.368 . S
C2206 C2202 1.368 . S
C2206 C2205 1.523 . S
H2207 C2182 0.950 . S
H2208 C2184 0.950 . S
H2209 C2185 0.949 . S
H2210 C2187 0.950 . S
H2211 C2189 0.950 . S
C2212 C2213 1.349 . S
C2212 C2214 1.327 . S
C2212 H2237 0.950 . S
C2213 C2212 1.349 . S
C2213 C2229 1.349 . S
C2214 C2212 1.327 . S
C2214 C2233 1.429 . S
C2214 H2238 0.950 . S
C2215 C2232 1.574 . S
C2215 C2234 1.368 . S
C2215 H2239 0.949 . S
H2216 C2220 0.949 . S
C2217 C2218 1.349 . S
C2217 C2219 1.327 . S
C2217 H2240 0.950 . S
C2218 C2217 1.349 . S
C2218 C2230 1.349 . S
C2219 C2217 1.327 . S
C2219 C2235 1.429 . S
C2219 H2241 0.950 . S
C2220 H2216 0.949 . S
C2220 C2228 1.574 . S
C2220 C2236 1.368 . S
H2221 C2229 0.950 . S
H2222 C2227 0.950 . S
H2223 C2228 0.949 . S
H2224 C2230 0.950 . S
H2225 C2231 0.950 . S
H2226 C2232 0.949 . S
C2227 H2222 0.950 . S
C2227 C2229 1.327 . S
C2227 C2233 1.429 . S
C2228 C2220 1.574 . S
C2228 H2223 0.949 . S
C2228 C2234 1.368 . S
C2229 C2213 1.349 . S
C2229 H2221 0.950 . S
C2229 C2227 1.327 . S
C2230 C2218 1.349 . S
C2230 H2224 0.950 . S
C2230 C2231 1.327 . S
C2231 H2225 0.950 . S
C2231 C2230 1.327 . S
C2231 C2235 1.429 . S
C2232 C2215 1.574 . S
C2232 H2226 0.949 . S
C2232 C2236 1.368 . S
C2233 C2214 1.429 . S
C2233 C2227 1.429 . S
C2233 C2234 1.523 . S
C2234 C2215 1.368 . S
C2234 C2228 1.368 . S
C2234 C2233 1.523 . S
C2235 C2219 1.429 . S
C2235 C2231 1.429 . S
C2235 C2236 1.523 . S
C2236 C2220 1.368 . S
C2236 C2232 1.368 . S
C2236 C2235 1.523 . S
H2237 C2212 0.950 . S
H2238 C2214 0.950 . S
H2239 C2215 0.949 . S
H2240 C2217 0.950 . S
H2241 C2219 0.950 . S
C2242 C2243 1.349 . S
C2242 C2244 1.327 . S
C2242 H2267 0.950 . S
C2243 C2242 1.349 . S
C2243 C2259 1.349 . S
C2244 C2242 1.327 . S
C2244 C2263 1.429 . S
C2244 H2268 0.950 . S
C2245 C2262 1.574 . S
C2245 C2264 1.368 . S
C2245 H2269 0.949 . S
H2246 C2250 0.949 . S
C2247 C2248 1.349 . S
C2247 C2249 1.327 . S
C2247 H2270 0.950 . S
C2248 C2247 1.349 . S
C2248 C2260 1.349 . S
C2249 C2247 1.327 . S
C2249 C2265 1.429 . S
C2249 H2271 0.950 . S
C2250 H2246 0.949 . S
C2250 C2258 1.574 . S
C2250 C2266 1.368 . S
H2251 C2259 0.950 . S
H2252 C2257 0.950 . S
H2253 C2258 0.949 . S
H2254 C2260 0.950 . S
H2255 C2261 0.950 . S
H2256 C2262 0.949 . S
C2257 H2252 0.950 . S
C2257 C2259 1.327 . S
C2257 C2263 1.429 . S
C2258 C2250 1.574 . S
C2258 H2253 0.949 . S
C2258 C2264 1.368 . S
C2259 C2243 1.349 . S
C2259 H2251 0.950 . S
C2259 C2257 1.327 . S
C2260 C2248 1.349 . S
C2260 H2254 0.950 . S
C2260 C2261 1.327 . S
C2261 H2255 0.950 . S
C2261 C2260 1.327 . S
C2261 C2265 1.429 . S
C2262 C2245 1.574 . S
C2262 H2256 0.949 . S
C2262 C2266 1.368 . S
C2263 C2244 1.429 . S
C2263 C2257 1.429 . S
C2263 C2264 1.523 . S
C2264 C2245 1.368 . S
C2264 C2258 1.368 . S
C2264 C2263 1.523 . S
C2265 C2249 1.429 . S
C2265 C2261 1.429 . S
C2265 C2266 1.523 . S
C2266 C2250 1.368 . S
C2266 C2262 1.368 . S
C2266 C2265 1.523 . S
H2267 C2242 0.950 . S
H2268 C2244 0.950 . S
H2269 C2245 0.949 . S
H2270 C2247 0.950 . S
H2271 C2249 0.950 . S
C2272 C2273 1.349 . S
C2272 C2274 1.327 1_545 S
C2272 H2297 0.950 . S
C2273 C2272 1.349 . S
C2273 C2289 1.346 . S
C2274 C2272 1.327 1_565 S
C2274 C2293 1.429 . S
C2274 H2298 0.950 . S
C2275 C2292 1.574 . S
C2275 C2294 1.368 . S
C2275 H2299 0.949 . S
H2276 C2280 0.949 . S
C2277 C2278 1.349 . S
C2277 C2279 1.327 . S
C2277 H2300 0.950 . S
C2278 C2277 1.349 . S
C2278 C2290 1.349 . S
C2279 C2277 1.327 . S
C2279 C2295 1.429 . S
C2279 H2301 0.950 . S
C2280 H2276 0.949 . S
C2280 C2288 1.574 . S
C2280 C2296 1.368 . S
H2281 C2289 0.948 . S
H2282 C2287 0.950 . S
H2283 C2288 0.949 . S
H2284 C2290 0.950 . S
H2285 C2291 0.950 . S
H2286 C2292 0.949 . S
C2287 H2282 0.950 . S
C2287 C2289 1.332 1_565 S
C2287 C2293 1.429 . S
C2288 C2280 1.574 . S
C2288 H2283 0.949 . S
C2288 C2294 1.368 . S
C2289 C2273 1.346 . S
C2289 H2281 0.948 . S
C2289 C2287 1.332 1_545 S
C2290 C2278 1.349 . S
C2290 H2284 0.950 . S
C2290 C2291 1.327 . S
C2291 H2285 0.950 . S
C2291 C2290 1.327 . S
C2291 C2295 1.429 . S
C2292 C2275 1.574 . S
C2292 H2286 0.949 . S
C2292 C2296 1.368 . S
C2293 C2274 1.429 . S
C2293 C2287 1.429 . S
C2293 C2294 1.523 . S
C2294 C2275 1.368 . S
C2294 C2288 1.368 . S
C2294 C2293 1.523 . S
C2295 C2279 1.429 . S
C2295 C2291 1.429 . S
C2295 C2296 1.523 . S
C2296 C2280 1.368 . S
C2296 C2292 1.368 . S
C2296 C2295 1.523 . S
H2297 C2272 0.950 . S
H2298 C2274 0.950 . S
H2299 C2275 0.949 . S
H2300 C2277 0.950 . S
H2301 C2279 0.950 . S
C2302 C2303 1.349 . S
C2302 C2304 1.327 . S
C2302 H2327 0.950 . S
C2303 C2302 1.349 . S
C2303 C2319 1.349 . S
C2304 C2302 1.327 . S
C2304 C2323 1.429 . S
C2304 H2328 0.950 . S
C2305 C2322 1.574 . S
C2305 C2324 1.368 . S
C2305 H2329 0.949 . S
H2306 C2310 0.949 . S
C2307 C2308 1.349 . S
C2307 C2309 1.327 . S
C2307 H2330 0.950 . S
C2308 C2307 1.349 . S
C2308 C2320 1.349 . S
C2309 C2307 1.327 . S
C2309 C2325 1.429 . S
C2309 H2331 0.950 . S
C2310 H2306 0.949 . S
C2310 C2318 1.574 . S
C2310 C2326 1.368 . S
H2311 C2319 0.950 . S
H2312 C2317 0.950 . S
H2313 C2318 0.949 . S
H2314 C2320 0.950 . S
H2315 C2321 0.950 . S
H2316 C2322 0.949 . S
C2317 H2312 0.950 . S
C2317 C2319 1.327 . S
C2317 C2323 1.429 . S
C2318 C2310 1.574 . S
C2318 H2313 0.949 . S
C2318 C2324 1.368 . S
C2319 C2303 1.349 . S
C2319 H2311 0.950 . S
C2319 C2317 1.327 . S
C2320 C2308 1.349 . S
C2320 H2314 0.950 . S
C2320 C2321 1.327 . S
C2321 H2315 0.950 . S
C2321 C2320 1.327 . S
C2321 C2325 1.429 . S
C2322 C2305 1.574 . S
C2322 H2316 0.949 . S
C2322 C2326 1.368 . S
C2323 C2304 1.429 . S
C2323 C2317 1.429 . S
C2323 C2324 1.523 . S
C2324 C2305 1.368 . S
C2324 C2318 1.368 . S
C2324 C2323 1.523 . S
C2325 C2309 1.429 . S
C2325 C2321 1.429 . S
C2325 C2326 1.523 . S
C2326 C2310 1.368 . S
C2326 C2322 1.368 . S
C2326 C2325 1.523 . S
H2327 C2302 0.950 . S
H2328 C2304 0.950 . S
H2329 C2305 0.949 . S
H2330 C2307 0.950 . S
H2331 C2309 0.950 . S
C2332 C2333 1.349 . S
C2332 C2334 1.327 . S
C2332 H2357 0.950 . S
C2333 C2332 1.349 . S
C2333 C2349 1.349 . S
C2334 C2332 1.327 . S
C2334 C2353 1.429 . S
C2334 H2358 0.950 . S
C2335 C2352 1.574 . S
C2335 C2354 1.368 . S
C2335 H2359 0.949 . S
H2336 C2340 0.949 . S
C2337 C2338 1.349 . S
C2337 C2339 1.327 . S
C2337 H2360 0.950 . S
C2338 C2337 1.349 . S
C2338 C2350 1.349 . S
C2339 C2337 1.327 . S
C2339 C2355 1.429 . S
C2339 H2361 0.950 . S
C2340 H2336 0.949 . S
C2340 C2348 1.574 . S
C2340 C2356 1.368 . S
H2341 C2349 0.950 . S
H2342 C2347 0.950 . S
H2343 C2348 0.949 . S
H2344 C2350 0.950 . S
H2345 C2351 0.950 . S
H2346 C2352 0.949 . S
C2347 H2342 0.950 . S
C2347 C2349 1.327 . S
C2347 C2353 1.429 . S
C2348 C2340 1.574 . S
C2348 H2343 0.949 . S
C2348 C2354 1.368 . S
C2349 C2333 1.349 . S
C2349 H2341 0.950 . S
C2349 C2347 1.327 . S
C2350 C2338 1.349 . S
C2350 H2344 0.950 . S
C2350 C2351 1.327 . S
C2351 H2345 0.950 . S
C2351 C2350 1.327 . S
C2351 C2355 1.429 . S
C2352 C2335 1.574 . S
C2352 H2346 0.949 . S
C2352 C2356 1.368 . S
C2353 C2334 1.429 . S
C2353 C2347 1.429 . S
C2353 C2354 1.523 . S
C2354 C2335 1.368 . S
C2354 C2348 1.368 . S
C2354 C2353 1.523 . S
C2355 C2339 1.429 . S
C2355 C2351 1.429 . S
C2355 C2356 1.523 . S
C2356 C2340 1.368 . S
C2356 C2352 1.368 . S
C2356 C2355 1.523 . S
H2357 C2332 0.950 . S
H2358 C2334 0.950 . S
H2359 C2335 0.949 . S
H2360 C2337 0.950 . S
H2361 C2339 0.950 . S
C2362 C2363 1.349 . S
C2362 C2364 1.327 . S
C2362 H2387 0.950 . S
C2363 C2362 1.349 . S
C2363 C2379 1.349 . S
C2364 C2362 1.327 . S
C2364 C2383 1.429 . S
C2364 H2388 0.950 . S
C2365 C2382 1.574 . S
C2365 C2384 1.368 . S
C2365 H2389 0.949 . S
H2366 C2370 0.949 . S
C2367 C2368 1.349 . S
C2367 C2369 1.327 . S
C2367 H2390 0.950 . S
C2368 C2367 1.349 . S
C2368 C2380 1.349 . S
C2369 C2367 1.327 . S
C2369 C2385 1.429 . S
C2369 H2391 0.950 . S
C2370 H2366 0.949 . S
C2370 C2378 1.574 . S
C2370 C2386 1.368 . S
H2371 C2379 0.950 . S
H2372 C2377 0.950 . S
H2373 C2378 0.949 . S
H2374 C2380 0.950 . S
H2375 C2381 0.950 . S
H2376 C2382 0.949 . S
C2377 H2372 0.950 . S
C2377 C2379 1.327 . S
C2377 C2383 1.429 . S
C2378 C2370 1.574 . S
C2378 H2373 0.949 . S
C2378 C2384 1.368 . S
C2379 C2363 1.349 . S
C2379 H2371 0.950 . S
C2379 C2377 1.327 . S
C2380 C2368 1.349 . S
C2380 H2374 0.950 . S
C2380 C2381 1.327 . S
C2381 H2375 0.950 . S
C2381 C2380 1.327 . S
C2381 C2385 1.429 . S
C2382 C2365 1.574 . S
C2382 H2376 0.949 . S
C2382 C2386 1.368 . S
C2383 C2364 1.429 . S
C2383 C2377 1.429 . S
C2383 C2384 1.523 . S
C2384 C2365 1.368 . S
C2384 C2378 1.368 . S
C2384 C2383 1.523 . S
C2385 C2369 1.429 . S
C2385 C2381 1.429 . S
C2385 C2386 1.523 . S
C2386 C2370 1.368 . S
C2386 C2382 1.368 . S
C2386 C2385 1.523 . S
H2387 C2362 0.950 . S
H2388 C2364 0.950 . S
H2389 C2365 0.949 . S
H2390 C2367 0.950 . S
H2391 C2369 0.950 . S
C2392 C2393 1.349 . S
C2392 C2394 1.327 . S
C2392 H2417 0.950 . S
C2393 C2392 1.349 . S
C2393 C2409 1.349 . S
C2394 C2392 1.327 . S
C2394 C2413 1.429 . S
C2394 H2418 0.950 . S
C2395 C2412 1.574 . S
C2395 C2414 1.368 . S
C2395 H2419 0.949 . S
H2396 C2400 0.949 . S
C2397 C2398 1.349 . S
C2397 C2399 1.327 . S
C2397 H2420 0.950 . S
C2398 C2397 1.349 . S
C2398 C2410 1.349 . S
C2399 C2397 1.327 . S
C2399 C2415 1.429 . S
C2399 H2421 0.950 . S
C2400 H2396 0.949 . S
C2400 C2408 1.574 . S
C2400 C2416 1.368 . S
H2401 C2409 0.950 . S
H2402 C2407 0.950 . S
H2403 C2408 0.949 . S
H2404 C2410 0.950 . S
H2405 C2411 0.950 . S
H2406 C2412 0.949 . S
C2407 H2402 0.950 . S
C2407 C2409 1.327 . S
C2407 C2413 1.429 . S
C2408 C2400 1.574 . S
C2408 H2403 0.949 . S
C2408 C2414 1.368 . S
C2409 C2393 1.349 . S
C2409 H2401 0.950 . S
C2409 C2407 1.327 . S
C2410 C2398 1.349 . S
C2410 H2404 0.950 . S
C2410 C2411 1.327 . S
C2411 H2405 0.950 . S
C2411 C2410 1.327 . S
C2411 C2415 1.429 . S
C2412 C2395 1.574 . S
C2412 H2406 0.949 . S
C2412 C2416 1.368 . S
C2413 C2394 1.429 . S
C2413 C2407 1.429 . S
C2413 C2414 1.523 . S
C2414 C2395 1.368 . S
C2414 C2408 1.368 . S
C2414 C2413 1.523 . S
C2415 C2399 1.429 . S
C2415 C2411 1.429 . S
C2415 C2416 1.523 . S
C2416 C2400 1.368 . S
C2416 C2412 1.368 . S
C2416 C2415 1.523 . S
H2417 C2392 0.950 . S
H2418 C2394 0.950 . S
H2419 C2395 0.949 . S
H2420 C2397 0.950 . S
H2421 C2399 0.950 . S
C2422 C2423 1.349 . S
C2422 C2424 1.327 . S
C2422 H2447 0.950 . S
C2423 C2422 1.349 . S
C2423 C2439 1.349 . S
C2424 C2422 1.327 . S
C2424 C2443 1.429 . S
C2424 H2448 0.950 . S
C2425 C2442 1.574 . S
C2425 C2444 1.368 . S
C2425 H2449 0.949 . S
H2426 C2430 0.949 . S
C2427 C2428 1.349 . S
C2427 C2429 1.327 . S
C2427 H2450 0.950 . S
C2428 C2427 1.349 . S
C2428 C2440 1.349 . S
C2429 C2427 1.327 . S
C2429 C2445 1.429 . S
C2429 H2451 0.950 . S
C2430 H2426 0.949 . S
C2430 C2438 1.574 . S
C2430 C2446 1.368 . S
H2431 C2439 0.950 . S
H2432 C2437 0.950 . S
H2433 C2438 0.949 . S
H2434 C2440 0.950 . S
H2435 C2441 0.950 . S
H2436 C2442 0.949 . S
C2437 H2432 0.950 . S
C2437 C2439 1.327 . S
C2437 C2443 1.429 . S
C2438 C2430 1.574 . S
C2438 H2433 0.949 . S
C2438 C2444 1.368 . S
C2439 C2423 1.349 . S
C2439 H2431 0.950 . S
C2439 C2437 1.327 . S
C2440 C2428 1.349 . S
C2440 H2434 0.950 . S
C2440 C2441 1.327 . S
C2441 H2435 0.950 . S
C2441 C2440 1.327 . S
C2441 C2445 1.429 . S
C2442 C2425 1.574 . S
C2442 H2436 0.949 . S
C2442 C2446 1.368 . S
C2443 C2424 1.429 . S
C2443 C2437 1.429 . S
C2443 C2444 1.523 . S
C2444 C2425 1.368 . S
C2444 C2438 1.368 . S
C2444 C2443 1.523 . S
C2445 C2429 1.429 . S
C2445 C2441 1.429 . S
C2445 C2446 1.523 . S
C2446 C2430 1.368 . S
C2446 C2442 1.368 . S
C2446 C2445 1.523 . S
H2447 C2422 0.950 . S
H2448 C2424 0.950 . S
H2449 C2425 0.949 . S
H2450 C2427 0.950 . S
H2451 C2429 0.950 . S
C2452 C2453 1.349 . S
C2452 C2454 1.327 . S
C2452 H2477 0.950 . S
C2453 C2452 1.349 . S
C2453 C2469 1.349 . S
C2454 C2452 1.327 . S
C2454 C2473 1.429 . S
C2454 H2478 0.950 . S
C2455 C2472 1.574 . S
C2455 C2474 1.368 . S
C2455 H2479 0.949 . S
H2456 C2460 0.949 . S
C2457 C2458 1.349 . S
C2457 C2459 1.327 1_554 S
C2457 H2480 0.950 1_554 S
C2458 C2457 1.349 . S
C2458 C2470 1.349 . S
C2459 C2457 1.327 1_556 S
C2459 C2475 1.429 1_556 S
C2459 H2481 0.950 . S
C2460 H2456 0.949 . S
C2460 C2468 1.574 1_554 S
C2460 C2476 1.368 1_554 S
H2461 C2469 0.950 . S
H2462 C2467 0.950 . S
H2463 C2468 0.949 . S
H2464 C2470 0.950 . S
H2465 C2471 0.950 . S
H2466 C2472 0.949 . S
C2467 H2462 0.950 . S
C2467 C2469 1.327 . S
C2467 C2473 1.429 . S
C2468 C2460 1.574 1_556 S
C2468 H2463 0.949 . S
C2468 C2474 1.368 . S
C2469 C2453 1.349 . S
C2469 H2461 0.950 . S
C2469 C2467 1.327 . S
C2470 C2458 1.349 . S
C2470 H2464 0.950 . S
C2470 C2471 1.327 . S
C2471 H2465 0.950 . S
C2471 C2470 1.327 . S
C2471 C2475 1.429 . S
C2472 C2455 1.574 . S
C2472 H2466 0.949 . S
C2472 C2476 1.368 . S
C2473 C2454 1.429 . S
C2473 C2467 1.429 . S
C2473 C2474 1.523 . S
C2474 C2455 1.368 . S
C2474 C2468 1.368 . S
C2474 C2473 1.523 . S
C2475 C2459 1.429 1_554 S
C2475 C2471 1.429 . S
C2475 C2476 1.523 1_554 S
C2476 C2460 1.368 1_556 S
C2476 C2472 1.368 . S
C2476 C2475 1.523 1_556 S
H2477 C2452 0.950 . S
H2478 C2454 0.950 . S
H2479 C2455 0.949 . S
H2480 C2457 0.950 1_556 S
H2481 C2459 0.950 . S
C2482 C2483 1.353 1_655 S
C2482 C2484 1.323 . S
C2482 H2507 0.950 1_655 S
C2483 C2482 1.353 1_455 S
C2483 C2499 1.349 . S
C2484 C2482 1.323 . S
C2484 C2503 1.429 . S
C2484 H2508 0.950 . S
C2485 C2502 1.574 . S
C2485 C2504 1.368 . S
C2485 H2509 0.949 . S
H2486 C2490 0.949 . S
C2487 C2488 1.349 . S
C2487 C2489 1.327 . S
C2487 H2510 0.950 . S
C2488 C2487 1.349 . S
C2488 C2500 1.349 . S
C2489 C2487 1.327 . S
C2489 C2505 1.429 . S
C2489 H2511 0.950 . S
C2490 H2486 0.949 . S
C2490 C2498 1.574 . S
C2490 C2506 1.368 . S
H2491 C2499 0.950 . S
H2492 C2497 0.950 . S
H2493 C2498 0.949 . S
H2494 C2500 0.950 . S
H2495 C2501 0.950 . S
H2496 C2502 0.949 . S
C2497 H2492 0.950 . S
C2497 C2499 1.327 1_655 S
C2497 C2503 1.429 . S
C2498 C2490 1.574 . S
C2498 H2493 0.949 . S
C2498 C2504 1.368 . S
C2499 C2483 1.349 . S
C2499 H2491 0.950 . S
C2499 C2497 1.327 1_455 S
C2500 C2488 1.349 . S
C2500 H2494 0.950 . S
C2500 C2501 1.327 . S
C2501 H2495 0.950 . S
C2501 C2500 1.327 . S
C2501 C2505 1.429 . S
C2502 C2485 1.574 . S
C2502 H2496 0.949 . S
C2502 C2506 1.368 . S
C2503 C2484 1.429 . S
C2503 C2497 1.429 . S
C2503 C2504 1.523 . S
C2504 C2485 1.368 . S
C2504 C2498 1.368 . S
C2504 C2503 1.523 . S
C2505 C2489 1.429 . S
C2505 C2501 1.429 . S
C2505 C2506 1.523 . S
C2506 C2490 1.368 . S
C2506 C2502 1.368 . S
C2506 C2505 1.523 . S
H2507 C2482 0.950 1_455 S
H2508 C2484 0.950 . S
H2509 C2485 0.949 . S
H2510 C2487 0.950 . S
H2511 C2489 0.950 . S
C2512 C2513 1.349 . S
C2512 C2514 1.327 . S
C2512 H2537 0.950 . S
C2513 C2512 1.349 . S
C2513 C2529 1.349 . S
C2514 C2512 1.327 . S
C2514 C2533 1.429 . S
C2514 H2538 0.950 . S
C2515 C2532 1.574 . S
C2515 C2534 1.368 . S
C2515 H2539 0.949 . S
H2516 C2520 0.949 . S
C2517 C2518 1.349 . S
C2517 C2519 1.327 . S
C2517 H2540 0.950 . S
C2518 C2517 1.349 . S
C2518 C2530 1.349 . S
C2519 C2517 1.327 . S
C2519 C2535 1.429 . S
C2519 H2541 0.950 . S
C2520 H2516 0.949 . S
C2520 C2528 1.574 . S
C2520 C2536 1.368 . S
H2521 C2529 0.950 . S
H2522 C2527 0.950 . S
H2523 C2528 0.949 . S
H2524 C2530 0.950 . S
H2525 C2531 0.950 . S
H2526 C2532 0.949 . S
C2527 H2522 0.950 . S
C2527 C2529 1.327 . S
C2527 C2533 1.429 . S
C2528 C2520 1.574 . S
C2528 H2523 0.949 . S
C2528 C2534 1.368 . S
C2529 C2513 1.349 . S
C2529 H2521 0.950 . S
C2529 C2527 1.327 . S
C2530 C2518 1.349 . S
C2530 H2524 0.950 . S
C2530 C2531 1.327 . S
C2531 H2525 0.950 . S
C2531 C2530 1.327 . S
C2531 C2535 1.429 . S
C2532 C2515 1.574 . S
C2532 H2526 0.949 . S
C2532 C2536 1.368 . S
C2533 C2514 1.429 . S
C2533 C2527 1.429 . S
C2533 C2534 1.523 . S
C2534 C2515 1.368 . S
C2534 C2528 1.368 . S
C2534 C2533 1.523 . S
C2535 C2519 1.429 . S
C2535 C2531 1.429 . S
C2535 C2536 1.523 . S
C2536 C2520 1.368 . S
C2536 C2532 1.368 . S
C2536 C2535 1.523 . S
H2537 C2512 0.950 . S
H2538 C2514 0.950 . S
H2539 C2515 0.949 . S
H2540 C2517 0.950 . S
H2541 C2519 0.950 . S
C2542 C2543 1.349 . S
C2542 C2544 1.327 . S
C2542 H2567 0.950 . S
C2543 C2542 1.349 . S
C2543 C2559 1.349 . S
C2544 C2542 1.327 . S
C2544 C2563 1.429 . S
C2544 H2568 0.950 . S
C2545 C2562 1.574 . S
C2545 C2564 1.368 . S
C2545 H2569 0.949 . S
H2546 C2550 0.949 . S
C2547 C2548 1.349 . S
C2547 C2549 1.327 . S
C2547 H2570 0.950 . S
C2548 C2547 1.349 . S
C2548 C2560 1.349 . S
C2549 C2547 1.327 . S
C2549 C2565 1.429 . S
C2549 H2571 0.950 . S
C2550 H2546 0.949 . S
C2550 C2558 1.574 . S
C2550 C2566 1.368 . S
H2551 C2559 0.950 . S
H2552 C2557 0.950 1_655 S
H2553 C2558 0.949 1_455 S
H2554 C2560 0.950 . S
H2555 C2561 0.950 . S
H2556 C2562 0.949 . S
C2557 H2552 0.950 1_455 S
C2557 C2559 1.327 . S
C2557 C2563 1.429 . S
C2558 C2550 1.574 . S
C2558 H2553 0.949 1_655 S
C2558 C2564 1.368 . S
C2559 C2543 1.349 . S
C2559 H2551 0.950 . S
C2559 C2557 1.327 . S
C2560 C2548 1.349 . S
C2560 H2554 0.950 . S
C2560 C2561 1.327 . S
C2561 H2555 0.950 . S
C2561 C2560 1.327 . S
C2561 C2565 1.429 . S
C2562 C2545 1.574 . S
C2562 H2556 0.949 . S
C2562 C2566 1.368 . S
C2563 C2544 1.429 . S
C2563 C2557 1.429 . S
C2563 C2564 1.523 1_455 S
C2564 C2545 1.368 . S
C2564 C2558 1.368 . S
C2564 C2563 1.523 1_655 S
C2565 C2549 1.429 . S
C2565 C2561 1.429 . S
C2565 C2566 1.523 . S
C2566 C2550 1.368 . S
C2566 C2562 1.368 . S
C2566 C2565 1.523 . S
H2567 C2542 0.950 . S
H2568 C2544 0.950 . S
H2569 C2545 0.949 . S
H2570 C2547 0.950 . S
H2571 C2549 0.950 . S
C2572 C2573 1.349 . S
C2572 C2574 1.327 . S
C2572 H2597 0.950 . S
C2573 C2572 1.349 . S
C2573 C2589 1.349 1_655 S
C2574 C2572 1.327 . S
C2574 C2593 1.429 . S
C2574 H2598 0.950 . S
C2575 C2592 1.574 . S
C2575 C2594 1.334 1_455 S
C2575 H2599 0.949 . S
H2576 C2580 0.949 . S
C2577 C2578 1.349 . S
C2577 C2579 1.327 . S
C2577 H2600 0.950 . S
C2578 C2577 1.349 . S
C2578 C2590 1.387 . S
C2579 C2577 1.327 . S
C2579 C2595 1.429 . S
C2579 H2601 0.950 . S
C2580 H2576 0.949 . S
C2580 C2588 1.574 . S
C2580 C2596 1.368 1_655 S
H2581 C2589 0.950 . S
H2582 C2587 0.950 . S
H2583 C2588 0.949 . S
H2584 C2590 0.932 1_655 S
H2585 C2591 0.950 . S
H2586 C2592 0.949 . S
C2587 H2582 0.950 . S
C2587 C2589 1.327 . S
C2587 C2593 1.429 1_455 S
C2588 C2580 1.574 . S
C2588 H2583 0.949 . S
C2588 C2594 1.390 . S
C2589 C2573 1.349 1_455 S
C2589 H2581 0.950 . S
C2589 C2587 1.327 . S
C2590 C2578 1.387 . S
C2590 H2584 0.932 1_455 S
C2590 C2591 1.308 1_455 S
C2591 H2585 0.950 . S
C2591 C2590 1.308 1_655 S
C2591 C2595 1.429 1_655 S
C2592 C2575 1.574 . S
C2592 H2586 0.949 . S
C2592 C2596 1.368 . S
C2593 C2574 1.429 . S
C2593 C2587 1.429 1_655 S
C2593 C2594 1.541 . S
C2594 C2575 1.334 1_655 S
C2594 C2588 1.390 . S
C2594 C2593 1.541 . S
C2595 C2579 1.429 . S
C2595 C2591 1.429 1_455 S
C2595 C2596 1.523 . S
C2596 C2580 1.368 1_455 S
C2596 C2592 1.368 . S
C2596 C2595 1.523 . S
H2597 C2572 0.950 . S
H2598 C2574 0.950 . S
H2599 C2575 0.949 . S
H2600 C2577 0.950 . S
H2601 C2579 0.950 . S
C2602 C2603 1.349 . S
C2602 C2604 1.327 . S
C2602 H2627 0.950 . S
C2603 C2602 1.349 . S
C2603 C2619 1.349 . S
C2604 C2602 1.327 . S
C2604 C2623 1.429 . S
C2604 H2628 0.950 . S
C2605 C2622 1.574 . S
C2605 C2624 1.368 . S
C2605 H2629 0.949 . S
H2606 C2610 0.949 . S
C2607 C2608 1.349 . S
C2607 C2609 1.327 . S
C2607 H2630 0.950 . S
C2608 C2607 1.349 . S
C2608 C2620 1.349 . S
C2609 C2607 1.327 . S
C2609 C2625 1.429 . S
C2609 H2631 0.950 . S
C2610 H2606 0.949 . S
C2610 C2618 1.574 . S
C2610 C2626 1.368 . S
H2611 C2619 0.950 . S
H2612 C2617 0.950 . S
H2613 C2618 0.949 . S
H2614 C2620 0.950 . S
H2615 C2621 0.950 . S
H2616 C2622 0.949 . S
C2617 H2612 0.950 . S
C2617 C2619 1.327 . S
C2617 C2623 1.429 . S
C2618 C2610 1.574 . S
C2618 H2613 0.949 . S
C2618 C2624 1.368 . S
C2619 C2603 1.349 . S
C2619 H2611 0.950 . S
C2619 C2617 1.327 . S
C2620 C2608 1.349 . S
C2620 H2614 0.950 . S
C2620 C2621 1.327 . S
C2621 H2615 0.950 . S
C2621 C2620 1.327 . S
C2621 C2625 1.429 . S
C2622 C2605 1.574 . S
C2622 H2616 0.949 . S
C2622 C2626 1.368 . S
C2623 C2604 1.429 . S
C2623 C2617 1.429 . S
C2623 C2624 1.523 . S
C2624 C2605 1.368 . S
C2624 C2618 1.368 . S
C2624 C2623 1.523 . S
C2625 C2609 1.429 . S
C2625 C2621 1.429 . S
C2625 C2626 1.523 . S
C2626 C2610 1.368 . S
C2626 C2622 1.368 . S
C2626 C2625 1.523 . S
H2627 C2602 0.950 . S
H2628 C2604 0.950 . S
H2629 C2605 0.949 . S
H2630 C2607 0.950 . S
H2631 C2609 0.950 . S
C2632 C2633 1.349 . S
C2632 C2634 1.327 . S
C2632 H2657 0.950 . S
C2633 C2632 1.349 . S
C2633 C2649 1.349 . S
C2634 C2632 1.327 . S
C2634 C2653 1.429 . S
C2634 H2658 0.950 . S
C2635 C2652 1.574 . S
C2635 C2654 1.368 . S
C2635 H2659 0.949 . S
H2636 C2640 0.949 . S
C2637 C2638 1.349 . S
C2637 C2639 1.327 . S
C2637 H2660 0.950 . S
C2638 C2637 1.349 . S
C2638 C2650 1.349 . S
C2639 C2637 1.327 . S
C2639 C2655 1.429 . S
C2639 H2661 0.950 . S
C2640 H2636 0.949 . S
C2640 C2648 1.574 . S
C2640 C2656 1.368 . S
H2641 C2649 0.950 . S
H2642 C2647 0.950 . S
H2643 C2648 0.949 . S
H2644 C2650 0.950 . S
H2645 C2651 0.950 . S
H2646 C2652 0.949 . S
C2647 H2642 0.950 . S
C2647 C2649 1.327 . S
C2647 C2653 1.429 . S
C2648 C2640 1.574 . S
C2648 H2643 0.949 . S
C2648 C2654 1.368 . S
C2649 C2633 1.349 . S
C2649 H2641 0.950 . S
C2649 C2647 1.327 . S
C2650 C2638 1.349 . S
C2650 H2644 0.950 . S
C2650 C2651 1.327 . S
C2651 H2645 0.950 . S
C2651 C2650 1.327 . S
C2651 C2655 1.429 . S
C2652 C2635 1.574 . S
C2652 H2646 0.949 . S
C2652 C2656 1.368 . S
C2653 C2634 1.429 . S
C2653 C2647 1.429 . S
C2653 C2654 1.523 . S
C2654 C2635 1.368 . S
C2654 C2648 1.368 . S
C2654 C2653 1.523 . S
C2655 C2639 1.429 . S
C2655 C2651 1.429 . S
C2655 C2656 1.523 . S
C2656 C2640 1.368 . S
C2656 C2652 1.368 . S
C2656 C2655 1.523 . S
H2657 C2632 0.950 . S
H2658 C2634 0.950 . S
H2659 C2635 0.949 . S
H2660 C2637 0.950 . S
H2661 C2639 0.950 . S
C2662 C2663 1.349 . S
C2662 C2664 1.327 . S
C2662 H2687 0.974 . S
C2663 C2662 1.349 . S
C2663 C2679 1.349 . S
C2664 C2662 1.327 . S
C2664 C2683 1.429 . S
C2664 H2688 0.950 . S
C2665 C2682 1.574 . S
C2665 C2684 1.368 . S
C2665 H2689 0.949 . S
H2666 C2670 0.949 . S
C2667 C2668 1.349 . S
C2667 C2669 1.327 . S
C2667 H2690 0.950 . S
C2668 C2667 1.349 . S
C2668 C2680 1.349 . S
C2669 C2667 1.327 . S
C2669 C2685 1.429 . S
C2669 H2691 0.950 . S
C2670 H2666 0.949 . S
C2670 C2678 1.574 . S
C2670 C2686 1.368 . S
H2671 C2679 0.950 . S
H2672 C2677 0.950 . S
H2673 C2678 0.949 . S
H2674 C2680 0.950 . S
H2675 C2681 0.950 . S
H2676 C2682 0.949 . S
C2677 H2672 0.950 . S
C2677 C2679 1.327 . S
C2677 C2683 1.429 . S
C2678 C2670 1.574 . S
C2678 H2673 0.949 . S
C2678 C2684 1.368 . S
C2679 C2663 1.349 . S
C2679 H2671 0.950 . S
C2679 C2677 1.327 . S
C2680 C2668 1.349 . S
C2680 H2674 0.950 . S
C2680 C2681 1.327 . S
C2681 H2675 0.950 . S
C2681 C2680 1.327 . S
C2681 C2685 1.429 . S
C2682 C2665 1.574 . S
C2682 H2676 0.949 . S
C2682 C2686 1.368 . S
C2683 C2664 1.429 . S
C2683 C2677 1.429 . S
C2683 C2684 1.523 . S
C2684 C2665 1.368 . S
C2684 C2678 1.368 . S
C2684 C2683 1.523 . S
C2685 C2669 1.429 . S
C2685 C2681 1.429 . S
C2685 C2686 1.523 . S
C2686 C2670 1.368 . S
C2686 C2682 1.368 . S
C2686 C2685 1.523 . S
H2687 C2662 0.974 . S
H2688 C2664 0.950 . S
H2689 C2665 0.949 . S
H2690 C2667 0.950 . S
H2691 C2669 0.950 . S
C2692 C2693 1.349 . S
C2692 C2694 1.327 . S
C2692 H2717 0.950 . S
C2693 C2692 1.349 . S
C2693 C2709 1.349 . S
C2694 C2692 1.327 . S
C2694 C2713 1.429 . S
C2694 H2718 0.950 . S
C2695 C2712 1.574 . S
C2695 C2714 1.368 . S
C2695 H2719 0.949 . S
H2696 C2700 0.949 . S
C2697 C2698 1.349 . S
C2697 C2699 1.327 . S
C2697 H2720 0.950 . S
C2698 C2697 1.349 . S
C2698 C2710 1.349 . S
C2699 C2697 1.327 . S
C2699 C2715 1.429 . S
C2699 H2721 0.950 . S
C2700 H2696 0.949 . S
C2700 C2708 1.574 . S
C2700 C2716 1.368 . S
H2701 C2709 0.950 . S
H2702 C2707 0.950 . S
H2703 C2708 0.949 . S
H2704 C2710 0.950 . S
H2705 C2711 0.950 . S
H2706 C2712 0.949 . S
C2707 H2702 0.950 . S
C2707 C2709 1.327 . S
C2707 C2713 1.429 . S
C2708 C2700 1.574 . S
C2708 H2703 0.949 . S
C2708 C2714 1.368 . S
C2709 C2693 1.349 . S
C2709 H2701 0.950 . S
C2709 C2707 1.327 . S
C2710 C2698 1.349 . S
C2710 H2704 0.950 . S
C2710 C2711 1.327 . S
C2711 H2705 0.950 . S
C2711 C2710 1.327 . S
C2711 C2715 1.429 . S
C2712 C2695 1.574 . S
C2712 H2706 0.949 . S
C2712 C2716 1.368 . S
C2713 C2694 1.429 . S
C2713 C2707 1.429 . S
C2713 C2714 1.523 . S
C2714 C2695 1.368 . S
C2714 C2708 1.368 . S
C2714 C2713 1.523 . S
C2715 C2699 1.429 . S
C2715 C2711 1.429 . S
C2715 C2716 1.523 . S
C2716 C2700 1.368 . S
C2716 C2712 1.368 . S
C2716 C2715 1.523 . S
H2717 C2692 0.950 . S
H2718 C2694 0.950 . S
H2719 C2695 0.949 . S
H2720 C2697 0.950 . S
H2721 C2699 0.950 . S
C2722 C2723 1.349 . S
C2722 C2724 1.327 . S
C2722 H2747 0.950 . S
C2723 C2722 1.349 . S
C2723 C2739 1.349 . S
C2724 C2722 1.327 . S
C2724 C2743 1.429 . S
C2724 H2748 0.950 . S
C2725 C2742 1.574 . S
C2725 C2744 1.368 . S
C2725 H2749 0.949 . S
H2726 C2730 0.949 . S
C2727 C2728 1.349 . S
C2727 C2729 1.327 . S
C2727 H2750 0.950 . S
C2728 C2727 1.349 . S
C2728 C2740 1.349 . S
C2729 C2727 1.327 . S
C2729 C2745 1.429 . S
C2729 H2751 0.950 . S
C2730 H2726 0.949 . S
C2730 C2738 1.574 . S
C2730 C2746 1.368 . S
H2731 C2739 0.950 . S
H2732 C2737 0.950 . S
H2733 C2738 0.949 . S
H2734 C2740 0.950 . S
H2735 C2741 0.950 . S
H2736 C2742 0.949 . S
C2737 H2732 0.950 . S
C2737 C2739 1.327 . S
C2737 C2743 1.429 . S
C2738 C2730 1.574 . S
C2738 H2733 0.949 . S
C2738 C2744 1.368 . S
C2739 C2723 1.349 . S
C2739 H2731 0.950 . S
C2739 C2737 1.327 . S
C2740 C2728 1.349 . S
C2740 H2734 0.950 . S
C2740 C2741 1.327 . S
C2741 H2735 0.950 . S
C2741 C2740 1.327 . S
C2741 C2745 1.429 . S
C2742 C2725 1.574 . S
C2742 H2736 0.949 . S
C2742 C2746 1.368 . S
C2743 C2724 1.429 . S
C2743 C2737 1.429 . S
C2743 C2744 1.523 . S
C2744 C2725 1.368 . S
C2744 C2738 1.368 . S
C2744 C2743 1.523 . S
C2745 C2729 1.429 . S
C2745 C2741 1.429 . S
C2745 C2746 1.523 . S
C2746 C2730 1.368 . S
C2746 C2742 1.368 . S
C2746 C2745 1.523 . S
H2747 C2722 0.950 . S
H2748 C2724 0.950 . S
H2749 C2725 0.949 . S
H2750 C2727 0.950 . S
H2751 C2729 0.950 . S
C2752 C2753 1.349 . S
C2752 C2754 1.327 . S
C2752 H2777 0.950 . S
C2753 C2752 1.349 . S
C2753 C2769 1.349 . S
C2754 C2752 1.327 . S
C2754 C2773 1.429 . S
C2754 H2778 0.950 . S
C2755 C2772 1.574 . S
C2755 C2774 1.368 . S
C2755 H2779 0.949 . S
H2756 C2760 0.949 . S
C2757 C2758 1.349 . S
C2757 C2759 1.327 . S
C2757 H2780 0.950 . S
C2758 C2757 1.349 . S
C2758 C2770 1.349 . S
C2759 C2757 1.327 . S
C2759 C2775 1.429 . S
C2759 H2781 0.950 . S
C2760 H2756 0.949 . S
C2760 C2768 1.574 . S
C2760 C2776 1.368 . S
H2761 C2769 0.950 . S
H2762 C2767 0.950 . S
H2763 C2768 0.949 . S
H2764 C2770 0.950 . S
H2765 C2771 0.950 . S
H2766 C2772 0.949 . S
C2767 H2762 0.950 . S
C2767 C2769 1.327 . S
C2767 C2773 1.429 . S
C2768 C2760 1.574 . S
C2768 H2763 0.949 . S
C2768 C2774 1.368 . S
C2769 C2753 1.349 . S
C2769 H2761 0.950 . S
C2769 C2767 1.327 . S
C2770 C2758 1.349 . S
C2770 H2764 0.950 . S
C2770 C2771 1.327 . S
C2771 H2765 0.950 . S
C2771 C2770 1.327 . S
C2771 C2775 1.429 . S
C2772 C2755 1.574 . S
C2772 H2766 0.949 . S
C2772 C2776 1.368 . S
C2773 C2754 1.429 . S
C2773 C2767 1.429 . S
C2773 C2774 1.523 . S
C2774 C2755 1.368 . S
C2774 C2768 1.368 . S
C2774 C2773 1.523 . S
C2775 C2759 1.429 . S
C2775 C2771 1.429 . S
C2775 C2776 1.523 . S
C2776 C2760 1.368 . S
C2776 C2772 1.368 . S
C2776 C2775 1.523 . S
H2777 C2752 0.950 . S
H2778 C2754 0.950 . S
H2779 C2755 0.949 . S
H2780 C2757 0.950 . S
H2781 C2759 0.950 . S
C2782 C2783 1.349 . S
C2782 C2784 1.327 . S
C2782 H2807 0.950 . S
C2783 C2782 1.349 . S
C2783 C2799 1.349 . S
C2784 C2782 1.327 . S
C2784 C2803 1.429 . S
C2784 H2808 0.950 . S
C2785 C2802 1.574 . S
C2785 C2804 1.368 . S
C2785 H2809 0.949 . S
H2786 C2790 0.949 . S
C2787 C2788 1.349 . S
C2787 C2789 1.327 . S
C2787 H2810 0.950 . S
C2788 C2787 1.349 . S
C2788 C2800 1.349 . S
C2789 C2787 1.327 . S
C2789 C2805 1.429 . S
C2789 H2811 0.950 . S
C2790 H2786 0.949 . S
C2790 C2798 1.574 . S
C2790 C2806 1.368 . S
H2791 C2799 0.950 . S
H2792 C2797 0.950 . S
H2793 C2798 0.949 . S
H2794 C2800 0.950 . S
H2795 C2801 0.950 . S
H2796 C2802 0.949 . S
C2797 H2792 0.950 . S
C2797 C2799 1.327 . S
C2797 C2803 1.429 . S
C2798 C2790 1.574 . S
C2798 H2793 0.949 . S
C2798 C2804 1.368 . S
C2799 C2783 1.349 . S
C2799 H2791 0.950 . S
C2799 C2797 1.327 . S
C2800 C2788 1.349 . S
C2800 H2794 0.950 . S
C2800 C2801 1.327 . S
C2801 H2795 0.950 . S
C2801 C2800 1.327 . S
C2801 C2805 1.429 . S
C2802 C2785 1.574 . S
C2802 H2796 0.949 . S
C2802 C2806 1.368 . S
C2803 C2784 1.429 . S
C2803 C2797 1.429 . S
C2803 C2804 1.523 . S
C2804 C2785 1.368 . S
C2804 C2798 1.368 . S
C2804 C2803 1.523 . S
C2805 C2789 1.429 . S
C2805 C2801 1.429 . S
C2805 C2806 1.523 . S
C2806 C2790 1.368 . S
C2806 C2802 1.368 . S
C2806 C2805 1.523 . S
H2807 C2782 0.950 . S
H2808 C2784 0.950 . S
H2809 C2785 0.949 . S
H2810 C2787 0.950 . S
H2811 C2789 0.950 . S
C2812 C2813 1.349 . S
C2812 C2814 1.327 . S
C2812 H2837 0.950 . S
C2813 C2812 1.349 . S
C2813 C2829 1.349 . S
C2814 C2812 1.327 . S
C2814 C2833 1.429 . S
C2814 H2838 0.950 . S
C2815 C2832 1.574 . S
C2815 C2834 1.368 . S
C2815 H2839 0.949 . S
H2816 C2820 0.949 . S
C2817 C2818 1.349 . S
C2817 C2819 1.327 . S
C2817 H2840 0.950 . S
C2818 C2817 1.349 . S
C2818 C2830 1.349 . S
C2819 C2817 1.327 . S
C2819 C2835 1.429 . S
C2819 H2841 0.950 . S
C2820 H2816 0.949 . S
C2820 C2828 1.574 . S
C2820 C2836 1.368 . S
H2821 C2829 0.950 . S
H2822 C2827 0.950 . S
H2823 C2828 0.949 . S
H2824 C2830 0.950 . S
H2825 C2831 0.950 . S
H2826 C2832 0.949 . S
C2827 H2822 0.950 . S
C2827 C2829 1.327 . S
C2827 C2833 1.429 . S
C2828 C2820 1.574 . S
C2828 H2823 0.949 . S
C2828 C2834 1.368 . S
C2829 C2813 1.349 . S
C2829 H2821 0.950 . S
C2829 C2827 1.327 . S
C2830 C2818 1.349 . S
C2830 H2824 0.950 . S
C2830 C2831 1.327 . S
C2831 H2825 0.950 . S
C2831 C2830 1.327 . S
C2831 C2835 1.429 . S
C2832 C2815 1.574 . S
C2832 H2826 0.949 . S
C2832 C2836 1.368 . S
C2833 C2814 1.429 . S
C2833 C2827 1.429 . S
C2833 C2834 1.523 . S
C2834 C2815 1.368 . S
C2834 C2828 1.368 . S
C2834 C2833 1.523 . S
C2835 C2819 1.429 . S
C2835 C2831 1.429 . S
C2835 C2836 1.523 . S
C2836 C2820 1.368 . S
C2836 C2832 1.368 . S
C2836 C2835 1.523 . S
H2837 C2812 0.950 . S
H2838 C2814 0.950 . S
H2839 C2815 0.949 . S
H2840 C2817 0.950 . S
H2841 C2819 0.950 . S
C2842 C2843 1.349 . S
C2842 C2844 1.327 . S
C2842 H2867 0.950 . S
C2843 C2842 1.349 . S
C2843 C2859 1.349 . S
C2844 C2842 1.327 . S
C2844 C2863 1.429 . S
C2844 H2868 0.950 . S
C2845 C2862 1.574 . S
C2845 C2864 1.368 . S
C2845 H2869 0.949 . S
H2846 C2850 0.949 . S
C2847 C2848 1.349 . S
C2847 C2849 1.327 . S
C2847 H2870 0.950 . S
C2848 C2847 1.349 . S
C2848 C2860 1.349 . S
C2849 C2847 1.327 . S
C2849 C2865 1.429 . S
C2849 H2871 0.950 . S
C2850 H2846 0.949 . S
C2850 C2858 1.574 . S
C2850 C2866 1.368 . S
H2851 C2859 0.950 . S
H2852 C2857 0.950 . S
H2853 C2858 0.949 . S
H2854 C2860 0.950 . S
H2855 C2861 0.950 . S
H2856 C2862 0.949 . S
C2857 H2852 0.950 . S
C2857 C2859 1.327 . S
C2857 C2863 1.429 . S
C2858 C2850 1.574 . S
C2858 H2853 0.949 . S
C2858 C2864 1.368 . S
C2859 C2843 1.349 . S
C2859 H2851 0.950 . S
C2859 C2857 1.327 . S
C2860 C2848 1.349 . S
C2860 H2854 0.950 . S
C2860 C2861 1.327 . S
C2861 H2855 0.950 . S
C2861 C2860 1.327 . S
C2861 C2865 1.429 . S
C2862 C2845 1.574 . S
C2862 H2856 0.949 . S
C2862 C2866 1.368 . S
C2863 C2844 1.429 . S
C2863 C2857 1.429 . S
C2863 C2864 1.523 . S
C2864 C2845 1.368 . S
C2864 C2858 1.368 . S
C2864 C2863 1.523 . S
C2865 C2849 1.429 . S
C2865 C2861 1.429 . S
C2865 C2866 1.523 . S
C2866 C2850 1.368 . S
C2866 C2862 1.368 . S
C2866 C2865 1.523 . S
H2867 C2842 0.950 . S
H2868 C2844 0.950 . S
H2869 C2845 0.949 . S
H2870 C2847 0.950 . S
H2871 C2849 0.950 . S
C2872 C2873 1.349 . S
C2872 C2874 1.327 . S
C2872 H2897 0.950 . S
C2873 C2872 1.349 . S
C2873 C2889 1.349 . S
C2874 C2872 1.327 . S
C2874 C2893 1.429 . S
C2874 H2898 0.950 . S
C2875 C2892 1.574 . S
C2875 C2894 1.368 . S
C2875 H2899 0.949 . S
H2876 C2880 0.949 . S
C2877 C2878 1.349 . S
C2877 C2879 1.327 . S
C2877 H2900 0.950 . S
C2878 C2877 1.349 . S
C2878 C2890 1.349 . S
C2879 C2877 1.327 . S
C2879 C2895 1.429 . S
C2879 H2901 0.950 . S
C2880 H2876 0.949 . S
C2880 C2888 1.574 . S
C2880 C2896 1.368 . S
H2881 C2889 0.950 . S
H2882 C2887 0.950 . S
H2883 C2888 0.949 . S
H2884 C2890 0.950 . S
H2885 C2891 0.950 . S
H2886 C2892 0.949 . S
C2887 H2882 0.950 . S
C2887 C2889 1.327 . S
C2887 C2893 1.429 . S
C2888 C2880 1.574 . S
C2888 H2883 0.949 . S
C2888 C2894 1.368 . S
C2889 C2873 1.349 . S
C2889 H2881 0.950 . S
C2889 C2887 1.327 . S
C2890 C2878 1.349 . S
C2890 H2884 0.950 . S
C2890 C2891 1.327 . S
C2891 H2885 0.950 . S
C2891 C2890 1.327 . S
C2891 C2895 1.429 . S
C2892 C2875 1.574 . S
C2892 H2886 0.949 . S
C2892 C2896 1.368 . S
C2893 C2874 1.429 . S
C2893 C2887 1.429 . S
C2893 C2894 1.523 . S
C2894 C2875 1.368 . S
C2894 C2888 1.368 . S
C2894 C2893 1.523 . S
C2895 C2879 1.429 . S
C2895 C2891 1.429 . S
C2895 C2896 1.523 . S
C2896 C2880 1.368 . S
C2896 C2892 1.368 . S
C2896 C2895 1.523 . S
H2897 C2872 0.950 . S
H2898 C2874 0.950 . S
H2899 C2875 0.949 . S
H2900 C2877 0.950 . S
H2901 C2879 0.950 . S
C2902 C2903 1.349 . S
C2902 C2904 1.327 . S
C2902 H2927 0.950 . S
C2903 C2902 1.349 . S
C2903 C2919 1.349 . S
C2904 C2902 1.327 . S
C2904 C2923 1.429 . S
C2904 H2928 0.950 . S
C2905 C2922 1.574 . S
C2905 C2924 1.368 . S
C2905 H2929 0.949 . S
H2906 C2910 0.949 . S
C2907 C2908 1.349 . S
C2907 C2909 1.327 . S
C2907 H2930 0.950 . S
C2908 C2907 1.349 . S
C2908 C2920 1.349 . S
C2909 C2907 1.327 . S
C2909 C2925 1.429 . S
C2909 H2931 0.950 . S
C2910 H2906 0.949 . S
C2910 C2918 1.574 . S
C2910 C2926 1.368 . S
H2911 C2919 0.950 . S
H2912 C2917 0.950 . S
H2913 C2918 0.949 . S
H2914 C2920 0.950 . S
H2915 C2921 0.950 . S
H2916 C2922 0.949 . S
C2917 H2912 0.950 . S
C2917 C2919 1.327 . S
C2917 C2923 1.429 . S
C2918 C2910 1.574 . S
C2918 H2913 0.949 . S
C2918 C2924 1.368 . S
C2919 C2903 1.349 . S
C2919 H2911 0.950 . S
C2919 C2917 1.327 . S
C2920 C2908 1.349 . S
C2920 H2914 0.950 . S
C2920 C2921 1.327 . S
C2921 H2915 0.950 . S
C2921 C2920 1.327 . S
C2921 C2925 1.429 . S
C2922 C2905 1.574 . S
C2922 H2916 0.949 . S
C2922 C2926 1.368 . S
C2923 C2904 1.429 . S
C2923 C2917 1.429 . S
C2923 C2924 1.523 . S
C2924 C2905 1.368 . S
C2924 C2918 1.368 . S
C2924 C2923 1.523 . S
C2925 C2909 1.429 . S
C2925 C2921 1.429 . S
C2925 C2926 1.523 . S
C2926 C2910 1.368 . S
C2926 C2922 1.368 . S
C2926 C2925 1.523 . S
H2927 C2902 0.950 . S
H2928 C2904 0.950 . S
H2929 C2905 0.949 . S
H2930 C2907 0.950 . S
H2931 C2909 0.950 . S
C2932 C2933 1.349 . S
C2932 C2934 1.327 . S
C2932 H2957 0.950 . S
C2933 C2932 1.349 . S
C2933 C2949 1.349 . S
C2934 C2932 1.327 . S
C2934 C2953 1.429 . S
C2934 H2958 0.950 . S
C2935 C2952 1.574 . S
C2935 C2954 1.368 . S
C2935 H2959 0.949 . S
H2936 C2940 0.949 . S
C2937 C2938 1.349 . S
C2937 C2939 1.327 . S
C2937 H2960 0.950 . S
C2938 C2937 1.349 . S
C2938 C2950 1.349 . S
C2939 C2937 1.327 . S
C2939 C2955 1.429 . S
C2939 H2961 0.950 . S
C2940 H2936 0.949 . S
C2940 C2948 1.574 . S
C2940 C2956 1.368 . S
H2941 C2949 0.950 . S
H2942 C2947 0.950 . S
H2943 C2948 0.949 . S
H2944 C2950 0.950 . S
H2945 C2951 0.950 . S
H2946 C2952 0.949 . S
C2947 H2942 0.950 . S
C2947 C2949 1.327 . S
C2947 C2953 1.429 . S
C2948 C2940 1.574 . S
C2948 H2943 0.949 . S
C2948 C2954 1.368 . S
C2949 C2933 1.349 . S
C2949 H2941 0.950 . S
C2949 C2947 1.327 . S
C2950 C2938 1.349 . S
C2950 H2944 0.950 . S
C2950 C2951 1.327 . S
C2951 H2945 0.950 . S
C2951 C2950 1.327 . S
C2951 C2955 1.429 . S
C2952 C2935 1.574 . S
C2952 H2946 0.949 . S
C2952 C2956 1.368 . S
C2953 C2934 1.429 . S
C2953 C2947 1.429 . S
C2953 C2954 1.523 . S
C2954 C2935 1.368 . S
C2954 C2948 1.368 . S
C2954 C2953 1.523 . S
C2955 C2939 1.429 . S
C2955 C2951 1.429 . S
C2955 C2956 1.523 . S
C2956 C2940 1.368 . S
C2956 C2952 1.368 . S
C2956 C2955 1.523 . S
H2957 C2932 0.950 . S
H2958 C2934 0.950 . S
H2959 C2935 0.949 . S
H2960 C2937 0.950 . S
H2961 C2939 0.950 . S
C2962 C2963 1.349 . S
C2962 C2964 1.327 . S
C2962 H2987 0.950 . S
C2963 C2962 1.349 . S
C2963 C2979 1.349 . S
C2964 C2962 1.327 . S
C2964 C2983 1.429 . S
C2964 H2988 0.950 . S
C2965 C2982 1.574 1_565 S
C2965 C2984 1.368 . S
C2965 H2989 0.949 . S
H2966 C2970 0.949 . S
C2967 C2968 1.349 . S
C2967 C2969 1.327 . S
C2967 H2990 0.950 . S
C2968 C2967 1.349 . S
C2968 C2980 1.349 . S
C2969 C2967 1.327 . S
C2969 C2985 1.429 . S
C2969 H2991 0.950 . S
C2970 H2966 0.949 . S
C2970 C2978 1.574 . S
C2970 C2986 1.368 . S
H2971 C2979 0.950 . S
H2972 C2977 0.950 . S
H2973 C2978 0.949 . S
H2974 C2980 0.950 . S
H2975 C2981 0.915 1_565 S
H2976 C2982 0.949 . S
C2977 H2972 0.950 . S
C2977 C2979 1.327 . S
C2977 C2983 1.429 . S
C2978 C2970 1.574 . S
C2978 H2973 0.949 . S
C2978 C2984 1.368 . S
C2979 C2963 1.349 . S
C2979 H2971 0.950 . S
C2979 C2977 1.327 . S
C2980 C2968 1.349 . S
C2980 H2974 0.950 . S
C2980 C2981 1.342 . S
C2981 H2975 0.915 1_545 S
C2981 C2980 1.342 . S
C2981 C2985 1.448 . S
C2982 C2965 1.574 1_545 S
C2982 H2976 0.949 . S
C2982 C2986 1.368 1_545 S
C2983 C2964 1.429 . S
C2983 C2977 1.429 . S
C2983 C2984 1.523 . S
C2984 C2965 1.368 . S
C2984 C2978 1.368 . S
C2984 C2983 1.523 . S
C2985 C2969 1.429 . S
C2985 C2981 1.448 . S
C2985 C2986 1.523 1_545 S
C2986 C2970 1.368 . S
C2986 C2982 1.368 1_565 S
C2986 C2985 1.523 1_565 S
H2987 C2962 0.950 . S
H2988 C2964 0.950 . S
H2989 C2965 0.949 . S
H2990 C2967 0.950 . S
H2991 C2969 0.950 . S
C2992 C2993 1.349 . S
C2992 C2994 1.327 . S
C2992 H3017 0.950 . S
C2993 C2992 1.349 . S
C2993 C3009 1.349 . S
C2994 C2992 1.327 . S
C2994 C3013 1.429 . S
C2994 H3018 0.950 . S
C2995 C3012 1.574 . S
C2995 C3014 1.368 . S
C2995 H3019 0.949 . S
H2996 C3000 0.949 . S
C2997 C2998 1.349 . S
C2997 C2999 1.327 . S
C2997 H3020 0.950 . S
C2998 C2997 1.349 . S
C2998 C3010 1.349 . S
C2999 C2997 1.327 . S
C2999 C3015 1.429 . S
C2999 H3021 0.950 . S
C3000 H2996 0.949 . S
C3000 C3008 1.574 . S
C3000 C3016 1.368 . S
H3001 C3009 0.950 . S
H3002 C3007 0.950 . S
H3003 C3008 0.949 . S
H3004 C3010 0.950 . S
H3005 C3011 0.950 . S
H3006 C3012 0.949 . S
C3007 H3002 0.950 . S
C3007 C3009 1.327 . S
C3007 C3013 1.429 . S
C3008 C3000 1.574 . S
C3008 H3003 0.949 . S
C3008 C3014 1.368 . S
C3009 C2993 1.349 . S
C3009 H3001 0.950 . S
C3009 C3007 1.327 . S
C3010 C2998 1.349 . S
C3010 H3004 0.950 . S
C3010 C3011 1.327 . S
C3011 H3005 0.950 . S
C3011 C3010 1.327 . S
C3011 C3015 1.429 . S
C3012 C2995 1.574 . S
C3012 H3006 0.949 . S
C3012 C3016 1.368 . S
C3013 C2994 1.429 . S
C3013 C3007 1.429 . S
C3013 C3014 1.523 . S
C3014 C2995 1.368 . S
C3014 C3008 1.368 . S
C3014 C3013 1.523 . S
C3015 C2999 1.429 . S
C3015 C3011 1.429 . S
C3015 C3016 1.523 . S
C3016 C3000 1.368 . S
C3016 C3012 1.368 . S
C3016 C3015 1.523 . S
H3017 C2992 0.950 . S
H3018 C2994 0.950 . S
H3019 C2995 0.949 . S
H3020 C2997 0.950 . S
H3021 C2999 0.950 . S
C3022 C3023 1.349 . S
C3022 C3024 1.327 . S
C3022 H3047 0.950 . S
C3023 C3022 1.349 . S
C3023 C3039 1.349 . S
C3024 C3022 1.327 . S
C3024 C3043 1.429 . S
C3024 H3048 0.950 . S
C3025 C3042 1.574 . S
C3025 C3044 1.368 . S
C3025 H3049 0.949 . S
H3026 C3030 0.949 . S
C3027 C3028 1.349 . S
C3027 C3029 1.327 . S
C3027 H3050 0.950 . S
C3028 C3027 1.349 . S
C3028 C3040 1.349 . S
C3029 C3027 1.327 . S
C3029 C3045 1.429 . S
C3029 H3051 0.950 . S
C3030 H3026 0.949 . S
C3030 C3038 1.574 . S
C3030 C3046 1.368 . S
H3031 C3039 0.950 1_556 S
H3032 C3037 0.950 . S
H3033 C3038 0.949 . S
H3034 C3040 0.950 . S
H3035 C3041 0.950 . S
H3036 C3042 0.949 . S
C3037 H3032 0.950 . S
C3037 C3039 1.327 . S
C3037 C3043 1.429 . S
C3038 C3030 1.574 . S
C3038 H3033 0.949 . S
C3038 C3044 1.368 . S
C3039 C3023 1.349 . S
C3039 H3031 0.950 1_554 S
C3039 C3037 1.327 . S
C3040 C3028 1.349 . S
C3040 H3034 0.950 . S
C3040 C3041 1.327 . S
C3041 H3035 0.950 . S
C3041 C3040 1.327 . S
C3041 C3045 1.429 . S
C3042 C3025 1.574 . S
C3042 H3036 0.949 . S
C3042 C3046 1.368 . S
C3043 C3024 1.429 . S
C3043 C3037 1.429 . S
C3043 C3044 1.523 . S
C3044 C3025 1.368 . S
C3044 C3038 1.368 . S
C3044 C3043 1.523 . S
C3045 C3029 1.429 . S
C3045 C3041 1.429 . S
C3045 C3046 1.523 . S
C3046 C3030 1.368 . S
C3046 C3042 1.368 . S
C3046 C3045 1.523 . S
H3047 C3022 0.950 . S
H3048 C3024 0.950 . S
H3049 C3025 0.949 . S
H3050 C3027 0.950 . S
H3051 C3029 0.950 . S
C3052 C3053 1.349 . S
C3052 C3054 1.327 . S
C3052 H3077 0.950 . S
C3053 C3052 1.349 . S
C3053 C3069 1.349 . S
C3054 C3052 1.327 . S
C3054 C3073 1.429 . S
C3054 H3078 0.950 . S
C3055 C3072 1.574 . S
C3055 C3074 1.368 . S
C3055 H3079 0.949 . S
H3056 C3060 0.949 . S
C3057 C3058 1.349 . S
C3057 C3059 1.327 . S
C3057 H3080 0.950 . S
C3058 C3057 1.349 . S
C3058 C3070 1.349 . S
C3059 C3057 1.327 . S
C3059 C3075 1.429 . S
C3059 H3081 0.950 . S
C3060 H3056 0.949 . S
C3060 C3068 1.574 . S
C3060 C3076 1.368 . S
H3061 C3069 0.950 . S
H3062 C3067 0.950 . S
H3063 C3068 0.949 . S
H3064 C3070 0.950 . S
H3065 C3071 0.950 . S
H3066 C3072 0.949 . S
C3067 H3062 0.950 . S
C3067 C3069 1.327 . S
C3067 C3073 1.429 . S
C3068 C3060 1.574 . S
C3068 H3063 0.949 . S
C3068 C3074 1.368 . S
C3069 C3053 1.349 . S
C3069 H3061 0.950 . S
C3069 C3067 1.327 . S
C3070 C3058 1.349 . S
C3070 H3064 0.950 . S
C3070 C3071 1.327 . S
C3071 H3065 0.950 . S
C3071 C3070 1.327 . S
C3071 C3075 1.429 . S
C3072 C3055 1.574 . S
C3072 H3066 0.949 . S
C3072 C3076 1.368 . S
C3073 C3054 1.429 . S
C3073 C3067 1.429 . S
C3073 C3074 1.523 . S
C3074 C3055 1.368 . S
C3074 C3068 1.368 . S
C3074 C3073 1.523 . S
C3075 C3059 1.429 . S
C3075 C3071 1.429 . S
C3075 C3076 1.523 . S
C3076 C3060 1.368 . S
C3076 C3072 1.368 . S
C3076 C3075 1.523 . S
H3077 C3052 0.950 . S
H3078 C3054 0.950 . S
H3079 C3055 0.949 . S
H3080 C3057 0.950 . S
H3081 C3059 0.950 . S
C3082 C3083 1.349 . S
C3082 C3084 1.327 . S
C3082 H3107 0.950 . S
C3083 C3082 1.349 . S
C3083 C3099 1.349 . S
C3084 C3082 1.327 . S
C3084 C3103 1.429 . S
C3084 H3108 0.950 . S
C3085 C3102 1.574 . S
C3085 C3104 1.368 . S
C3085 H3109 0.949 . S
H3086 C3090 0.949 . S
C3087 C3088 1.349 . S
C3087 C3089 1.327 . S
C3087 H3110 0.950 . S
C3088 C3087 1.349 . S
C3088 C3100 1.349 . S
C3089 C3087 1.327 . S
C3089 C3105 1.429 . S
C3089 H3111 0.950 . S
C3090 H3086 0.949 . S
C3090 C3098 1.574 . S
C3090 C3106 1.368 . S
H3091 C3099 0.950 . S
H3092 C3097 0.950 . S
H3093 C3098 0.949 . S
H3094 C3100 0.950 . S
H3095 C3101 0.950 . S
H3096 C3102 0.949 . S
C3097 H3092 0.950 . S
C3097 C3099 1.327 . S
C3097 C3103 1.429 . S
C3098 C3090 1.574 . S
C3098 H3093 0.949 . S
C3098 C3104 1.368 . S
C3099 C3083 1.349 . S
C3099 H3091 0.950 . S
C3099 C3097 1.327 . S
C3100 C3088 1.349 . S
C3100 H3094 0.950 . S
C3100 C3101 1.327 . S
C3101 H3095 0.950 . S
C3101 C3100 1.327 . S
C3101 C3105 1.429 . S
C3102 C3085 1.574 . S
C3102 H3096 0.949 . S
C3102 C3106 1.368 . S
C3103 C3084 1.429 . S
C3103 C3097 1.429 . S
C3103 C3104 1.523 . S
C3104 C3085 1.368 . S
C3104 C3098 1.368 . S
C3104 C3103 1.523 . S
C3105 C3089 1.429 . S
C3105 C3101 1.429 . S
C3105 C3106 1.523 . S
C3106 C3090 1.368 . S
C3106 C3102 1.368 . S
C3106 C3105 1.523 . S
H3107 C3082 0.950 . S
H3108 C3084 0.950 . S
H3109 C3085 0.949 . S
H3110 C3087 0.950 . S
H3111 C3089 0.950 . S
C3112 C3113 1.349 . S
C3112 C3114 1.327 . S
C3112 H3137 0.950 . S
C3113 C3112 1.349 . S
C3113 C3129 1.349 . S
C3114 C3112 1.327 . S
C3114 C3133 1.429 . S
C3114 H3138 0.950 . S
C3115 C3132 1.574 . S
C3115 C3134 1.368 . S
C3115 H3139 0.949 . S
H3116 C3120 0.949 . S
C3117 C3118 1.349 . S
C3117 C3119 1.327 . S
C3117 H3140 0.950 . S
C3118 C3117 1.349 . S
C3118 C3130 1.349 . S
C3119 C3117 1.327 . S
C3119 C3135 1.429 . S
C3119 H3141 0.950 . S
C3120 H3116 0.949 . S
C3120 C3128 1.574 . S
C3120 C3136 1.368 . S
H3121 C3129 0.950 . S
H3122 C3127 0.950 . S
H3123 C3128 0.949 . S
H3124 C3130 0.950 . S
H3125 C3131 0.950 . S
H3126 C3132 0.949 . S
C3127 H3122 0.950 . S
C3127 C3129 1.327 . S
C3127 C3133 1.429 . S
C3128 C3120 1.574 . S
C3128 H3123 0.949 . S
C3128 C3134 1.368 . S
C3129 C3113 1.349 . S
C3129 H3121 0.950 . S
C3129 C3127 1.327 . S
C3130 C3118 1.349 . S
C3130 H3124 0.950 . S
C3130 C3131 1.327 . S
C3131 H3125 0.950 . S
C3131 C3130 1.327 . S
C3131 C3135 1.429 . S
C3132 C3115 1.574 . S
C3132 H3126 0.949 . S
C3132 C3136 1.368 . S
C3133 C3114 1.429 . S
C3133 C3127 1.429 . S
C3133 C3134 1.523 . S
C3134 C3115 1.368 . S
C3134 C3128 1.368 . S
C3134 C3133 1.523 . S
C3135 C3119 1.429 . S
C3135 C3131 1.429 . S
C3135 C3136 1.523 . S
C3136 C3120 1.368 . S
C3136 C3132 1.368 . S
C3136 C3135 1.523 . S
H3137 C3112 0.950 . S
H3138 C3114 0.950 . S
H3139 C3115 0.949 . S
H3140 C3117 0.950 . S
H3141 C3119 0.950 . S
C3142 C3143 1.349 . S
C3142 C3144 1.327 . S
C3142 H3167 0.950 . S
C3143 C3142 1.349 . S
C3143 C3159 1.349 . S
C3144 C3142 1.327 . S
C3144 C3163 1.429 . S
C3144 H3168 0.950 . S
C3145 C3162 1.574 . S
C3145 C3164 1.368 . S
C3145 H3169 0.949 . S
H3146 C3150 0.949 . S
C3147 C3148 1.349 . S
C3147 C3149 1.327 . S
C3147 H3170 0.950 . S
C3148 C3147 1.349 . S
C3148 C3160 1.349 . S
C3149 C3147 1.327 . S
C3149 C3165 1.429 . S
C3149 H3171 0.950 . S
C3150 H3146 0.949 . S
C3150 C3158 1.574 . S
C3150 C3166 1.368 . S
H3151 C3159 0.950 . S
H3152 C3157 0.950 . S
H3153 C3158 0.949 . S
H3154 C3160 0.950 . S
H3155 C3161 0.950 . S
H3156 C3162 0.949 . S
C3157 H3152 0.950 . S
C3157 C3159 1.327 . S
C3157 C3163 1.429 . S
C3158 C3150 1.574 . S
C3158 H3153 0.949 . S
C3158 C3164 1.368 . S
C3159 C3143 1.349 . S
C3159 H3151 0.950 . S
C3159 C3157 1.327 . S
C3160 C3148 1.349 . S
C3160 H3154 0.950 . S
C3160 C3161 1.327 . S
C3161 H3155 0.950 . S
C3161 C3160 1.327 . S
C3161 C3165 1.429 . S
C3162 C3145 1.574 . S
C3162 H3156 0.949 . S
C3162 C3166 1.368 . S
C3163 C3144 1.429 . S
C3163 C3157 1.429 . S
C3163 C3164 1.523 . S
C3164 C3145 1.368 . S
C3164 C3158 1.368 . S
C3164 C3163 1.523 . S
C3165 C3149 1.429 . S
C3165 C3161 1.429 . S
C3165 C3166 1.523 . S
C3166 C3150 1.368 . S
C3166 C3162 1.368 . S
C3166 C3165 1.523 . S
H3167 C3142 0.950 . S
H3168 C3144 0.950 . S
H3169 C3145 0.949 . S
H3170 C3147 0.950 . S
H3171 C3149 0.950 . S
C3172 C3173 1.349 . S
C3172 C3174 1.327 . S
C3172 H3197 0.950 . S
C3173 C3172 1.349 . S
C3173 C3189 1.349 . S
C3174 C3172 1.327 . S
C3174 C3193 1.429 . S
C3174 H3198 0.950 . S
C3175 C3192 1.574 . S
C3175 C3194 1.368 . S
C3175 H3199 0.949 . S
H3176 C3180 0.949 . S
C3177 C3178 1.349 . S
C3177 C3179 1.327 . S
C3177 H3200 0.950 . S
C3178 C3177 1.349 . S
C3178 C3190 1.349 . S
C3179 C3177 1.327 . S
C3179 C3195 1.429 . S
C3179 H3201 0.950 . S
C3180 H3176 0.949 . S
C3180 C3188 1.574 . S
C3180 C3196 1.368 . S
H3181 C3189 0.950 . S
H3182 C3187 0.950 . S
H3183 C3188 0.949 . S
H3184 C3190 0.950 . S
H3185 C3191 0.950 . S
H3186 C3192 0.949 . S
C3187 H3182 0.950 . S
C3187 C3189 1.327 . S
C3187 C3193 1.429 . S
C3188 C3180 1.574 . S
C3188 H3183 0.949 . S
C3188 C3194 1.368 . S
C3189 C3173 1.349 . S
C3189 H3181 0.950 . S
C3189 C3187 1.327 . S
C3190 C3178 1.349 . S
C3190 H3184 0.950 . S
C3190 C3191 1.327 . S
C3191 H3185 0.950 . S
C3191 C3190 1.327 . S
C3191 C3195 1.429 . S
C3192 C3175 1.574 . S
C3192 H3186 0.949 . S
C3192 C3196 1.368 . S
C3193 C3174 1.429 . S
C3193 C3187 1.429 . S
C3193 C3194 1.523 . S
C3194 C3175 1.368 . S
C3194 C3188 1.368 . S
C3194 C3193 1.523 . S
C3195 C3179 1.429 . S
C3195 C3191 1.429 . S
C3195 C3196 1.523 . S
C3196 C3180 1.368 . S
C3196 C3192 1.368 . S
C3196 C3195 1.523 . S
H3197 C3172 0.950 . S
H3198 C3174 0.950 . S
H3199 C3175 0.949 . S
H3200 C3177 0.950 . S
H3201 C3179 0.950 . S
C3202 C3203 1.349 . S
C3202 C3204 1.327 . S
C3202 H3227 0.950 . S
C3203 C3202 1.349 . S
C3203 C3219 1.349 . S
C3204 C3202 1.327 . S
C3204 C3223 1.429 . S
C3204 H3228 0.950 . S
C3205 C3222 1.574 . S
C3205 C3224 1.368 . S
C3205 H3229 0.949 . S
H3206 C3210 0.949 . S
C3207 C3208 1.349 . S
C3207 C3209 1.327 . S
C3207 H3230 0.950 . S
C3208 C3207 1.349 . S
C3208 C3220 1.349 . S
C3209 C3207 1.327 . S
C3209 C3225 1.429 . S
C3209 H3231 0.950 . S
C3210 H3206 0.949 . S
C3210 C3218 1.574 . S
C3210 C3226 1.368 . S
H3211 C3219 0.950 . S
H3212 C3217 0.950 . S
H3213 C3218 0.949 . S
H3214 C3220 0.950 . S
H3215 C3221 0.950 . S
H3216 C3222 0.949 . S
C3217 H3212 0.950 . S
C3217 C3219 1.327 . S
C3217 C3223 1.429 . S
C3218 C3210 1.574 . S
C3218 H3213 0.949 . S
C3218 C3224 1.368 . S
C3219 C3203 1.349 . S
C3219 H3211 0.950 . S
C3219 C3217 1.327 . S
C3220 C3208 1.349 . S
C3220 H3214 0.950 . S
C3220 C3221 1.327 . S
C3221 H3215 0.950 . S
C3221 C3220 1.327 . S
C3221 C3225 1.429 . S
C3222 C3205 1.574 . S
C3222 H3216 0.949 . S
C3222 C3226 1.368 . S
C3223 C3204 1.429 . S
C3223 C3217 1.429 . S
C3223 C3224 1.523 . S
C3224 C3205 1.368 . S
C3224 C3218 1.368 . S
C3224 C3223 1.523 . S
C3225 C3209 1.429 . S
C3225 C3221 1.429 . S
C3225 C3226 1.523 . S
C3226 C3210 1.368 . S
C3226 C3222 1.368 . S
C3226 C3225 1.523 . S
H3227 C3202 0.950 . S
H3228 C3204 0.950 . S
H3229 C3205 0.949 . S
H3230 C3207 0.950 . S
H3231 C3209 0.950 . S
C3232 C3233 1.349 . S
C3232 C3234 1.327 . S
C3232 H3257 0.950 . S
C3233 C3232 1.349 . S
C3233 C3249 1.349 . S
C3234 C3232 1.327 . S
C3234 C3253 1.429 . S
C3234 H3258 0.950 . S
C3235 C3252 1.574 . S
C3235 C3254 1.368 . S
C3235 H3259 0.949 . S
H3236 C3240 0.949 . S
C3237 C3238 1.349 . S
C3237 C3239 1.327 . S
C3237 H3260 0.950 . S
C3238 C3237 1.349 . S
C3238 C3250 1.349 . S
C3239 C3237 1.327 . S
C3239 C3255 1.429 . S
C3239 H3261 0.950 . S
C3240 H3236 0.949 . S
C3240 C3248 1.574 . S
C3240 C3256 1.368 . S
H3241 C3249 0.950 . S
H3242 C3247 0.950 . S
H3243 C3248 0.949 . S
H3244 C3250 0.950 . S
H3245 C3251 0.950 . S
H3246 C3252 0.949 . S
C3247 H3242 0.950 . S
C3247 C3249 1.327 . S
C3247 C3253 1.429 . S
C3248 C3240 1.574 . S
C3248 H3243 0.949 . S
C3248 C3254 1.368 . S
C3249 C3233 1.349 . S
C3249 H3241 0.950 . S
C3249 C3247 1.327 . S
C3250 C3238 1.349 . S
C3250 H3244 0.950 . S
C3250 C3251 1.327 . S
C3251 H3245 0.950 . S
C3251 C3250 1.327 . S
C3251 C3255 1.429 . S
C3252 C3235 1.574 . S
C3252 H3246 0.949 . S
C3252 C3256 1.368 . S
C3253 C3234 1.429 . S
C3253 C3247 1.429 . S
C3253 C3254 1.523 . S
C3254 C3235 1.368 . S
C3254 C3248 1.368 . S
C3254 C3253 1.523 . S
C3255 C3239 1.429 . S
C3255 C3251 1.429 . S
C3255 C3256 1.523 . S
C3256 C3240 1.368 . S
C3256 C3252 1.368 . S
C3256 C3255 1.523 . S
H3257 C3232 0.950 . S
H3258 C3234 0.950 . S
H3259 C3235 0.949 . S
H3260 C3237 0.950 . S
H3261 C3239 0.950 . S
C3262 C3263 1.349 . S
C3262 C3264 1.327 . S
C3262 H3287 0.950 . S
C3263 C3262 1.349 . S
C3263 C3279 1.349 . S
C3264 C3262 1.327 . S
C3264 C3283 1.429 . S
C3264 H3288 0.950 . S
C3265 C3282 1.574 . S
C3265 C3284 1.368 . S
C3265 H3289 0.949 . S
H3266 C3270 0.949 . S
C3267 C3268 1.349 . S
C3267 C3269 1.327 . S
C3267 H3290 0.950 . S
C3268 C3267 1.349 . S
C3268 C3280 1.349 . S
C3269 C3267 1.327 . S
C3269 C3285 1.429 . S
C3269 H3291 0.950 . S
C3270 H3266 0.949 . S
C3270 C3278 1.574 . S
C3270 C3286 1.368 . S
H3271 C3279 0.950 . S
H3272 C3277 0.950 . S
H3273 C3278 0.949 . S
H3274 C3280 0.950 . S
H3275 C3281 0.950 . S
H3276 C3282 0.949 . S
C3277 H3272 0.950 . S
C3277 C3279 1.327 . S
C3277 C3283 1.429 . S
C3278 C3270 1.574 . S
C3278 H3273 0.949 . S
C3278 C3284 1.368 . S
C3279 C3263 1.349 . S
C3279 H3271 0.950 . S
C3279 C3277 1.327 . S
C3280 C3268 1.349 . S
C3280 H3274 0.950 . S
C3280 C3281 1.327 . S
C3281 H3275 0.950 . S
C3281 C3280 1.327 . S
C3281 C3285 1.429 . S
C3282 C3265 1.574 . S
C3282 H3276 0.949 . S
C3282 C3286 1.368 . S
C3283 C3264 1.429 . S
C3283 C3277 1.429 . S
C3283 C3284 1.523 . S
C3284 C3265 1.368 . S
C3284 C3278 1.368 . S
C3284 C3283 1.523 . S
C3285 C3269 1.429 . S
C3285 C3281 1.429 . S
C3285 C3286 1.523 . S
C3286 C3270 1.368 . S
C3286 C3282 1.368 . S
C3286 C3285 1.523 . S
H3287 C3262 0.950 . S
H3288 C3264 0.950 . S
H3289 C3265 0.949 . S
H3290 C3267 0.950 . S
H3291 C3269 0.950 . S
C3292 C3293 1.349 . S
C3292 C3294 1.327 . S
C3292 H3317 0.950 . S
C3293 C3292 1.349 . S
C3293 C3309 1.349 . S
C3294 C3292 1.327 . S
C3294 C3313 1.429 . S
C3294 H3318 0.950 . S
C3295 C3312 1.574 . S
C3295 C3314 1.368 . S
C3295 H3319 0.949 . S
H3296 C3300 0.949 . S
C3297 C3298 1.349 . S
C3297 C3299 1.327 . S
C3297 H3320 0.950 . S
C3298 C3297 1.349 . S
C3298 C3310 1.349 . S
C3299 C3297 1.327 . S
C3299 C3315 1.429 . S
C3299 H3321 0.950 . S
C3300 H3296 0.949 . S
C3300 C3308 1.574 . S
C3300 C3316 1.368 . S
H3301 C3309 0.950 . S
H3302 C3307 0.950 . S
H3303 C3308 0.949 . S
H3304 C3310 0.950 . S
H3305 C3311 0.950 . S
H3306 C3312 0.949 . S
C3307 H3302 0.950 . S
C3307 C3309 1.327 . S
C3307 C3313 1.429 . S
C3308 C3300 1.574 . S
C3308 H3303 0.949 . S
C3308 C3314 1.368 . S
C3309 C3293 1.349 . S
C3309 H3301 0.950 . S
C3309 C3307 1.327 . S
C3310 C3298 1.349 . S
C3310 H3304 0.950 . S
C3310 C3311 1.327 . S
C3311 H3305 0.950 . S
C3311 C3310 1.327 . S
C3311 C3315 1.429 . S
C3312 C3295 1.574 . S
C3312 H3306 0.949 . S
C3312 C3316 1.368 . S
C3313 C3294 1.429 . S
C3313 C3307 1.429 . S
C3313 C3314 1.523 . S
C3314 C3295 1.368 . S
C3314 C3308 1.368 . S
C3314 C3313 1.523 . S
C3315 C3299 1.429 . S
C3315 C3311 1.429 . S
C3315 C3316 1.523 . S
C3316 C3300 1.368 . S
C3316 C3312 1.368 . S
C3316 C3315 1.523 . S
H3317 C3292 0.950 . S
H3318 C3294 0.950 . S
H3319 C3295 0.949 . S
H3320 C3297 0.950 . S
H3321 C3299 0.950 . S
C3322 C3323 1.349 . S
C3322 C3324 1.327 . S
C3322 H3347 0.950 . S
C3323 C3322 1.349 . S
C3323 C3339 1.349 . S
C3324 C3322 1.327 . S
C3324 C3343 1.429 . S
C3324 H3348 0.950 . S
C3325 C3342 1.574 . S
C3325 C3344 1.368 . S
C3325 H3349 0.949 . S
H3326 C3330 0.949 . S
C3327 C3328 1.349 . S
C3327 C3329 1.327 . S
C3327 H3350 0.950 . S
C3328 C3327 1.349 . S
C3328 C3340 1.349 . S
C3329 C3327 1.327 . S
C3329 C3345 1.429 . S
C3329 H3351 0.950 . S
C3330 H3326 0.949 . S
C3330 C3338 1.574 . S
C3330 C3346 1.368 . S
H3331 C3339 0.950 . S
H3332 C3337 0.950 . S
H3333 C3338 0.949 . S
H3334 C3340 0.950 . S
H3335 C3341 0.950 . S
H3336 C3342 0.949 . S
C3337 H3332 0.950 . S
C3337 C3339 1.327 . S
C3337 C3343 1.429 . S
C3338 C3330 1.574 . S
C3338 H3333 0.949 . S
C3338 C3344 1.368 . S
C3339 C3323 1.349 . S
C3339 H3331 0.950 . S
C3339 C3337 1.327 . S
C3340 C3328 1.349 . S
C3340 H3334 0.950 . S
C3340 C3341 1.327 . S
C3341 H3335 0.950 . S
C3341 C3340 1.327 . S
C3341 C3345 1.429 . S
C3342 C3325 1.574 . S
C3342 H3336 0.949 . S
C3342 C3346 1.368 . S
C3343 C3324 1.429 . S
C3343 C3337 1.429 . S
C3343 C3344 1.523 . S
C3344 C3325 1.368 . S
C3344 C3338 1.368 . S
C3344 C3343 1.523 . S
C3345 C3329 1.429 . S
C3345 C3341 1.429 . S
C3345 C3346 1.523 . S
C3346 C3330 1.368 . S
C3346 C3342 1.368 . S
C3346 C3345 1.523 . S
H3347 C3322 0.950 . S
H3348 C3324 0.950 . S
H3349 C3325 0.949 . S
H3350 C3327 0.950 . S
H3351 C3329 0.950 . S
C3352 C3353 1.349 . S
C3352 C3354 1.327 . S
C3352 H3377 0.950 . S
C3353 C3352 1.349 . S
C3353 C3369 1.349 . S
C3354 C3352 1.327 . S
C3354 C3373 1.429 . S
C3354 H3378 0.950 . S
C3355 C3372 1.574 . S
C3355 C3374 1.368 . S
C3355 H3379 0.949 . S
H3356 C3360 0.949 . S
C3357 C3358 1.349 . S
C3357 C3359 1.327 . S
C3357 H3380 0.950 . S
C3358 C3357 1.349 . S
C3358 C3370 1.349 . S
C3359 C3357 1.327 . S
C3359 C3375 1.429 . S
C3359 H3381 0.950 . S
C3360 H3356 0.949 . S
C3360 C3368 1.574 . S
C3360 C3376 1.368 . S
H3361 C3369 0.950 . S
H3362 C3367 0.950 . S
H3363 C3368 0.949 . S
H3364 C3370 0.950 . S
H3365 C3371 0.950 . S
H3366 C3372 0.949 . S
C3367 H3362 0.950 . S
C3367 C3369 1.327 . S
C3367 C3373 1.429 . S
C3368 C3360 1.574 . S
C3368 H3363 0.949 . S
C3368 C3374 1.368 . S
C3369 C3353 1.349 . S
C3369 H3361 0.950 . S
C3369 C3367 1.327 . S
C3370 C3358 1.349 . S
C3370 H3364 0.950 . S
C3370 C3371 1.327 . S
C3371 H3365 0.950 . S
C3371 C3370 1.327 . S
C3371 C3375 1.429 . S
C3372 C3355 1.574 . S
C3372 H3366 0.949 . S
C3372 C3376 1.368 . S
C3373 C3354 1.429 . S
C3373 C3367 1.429 . S
C3373 C3374 1.523 . S
C3374 C3355 1.368 . S
C3374 C3368 1.368 . S
C3374 C3373 1.523 . S
C3375 C3359 1.429 . S
C3375 C3371 1.429 . S
C3375 C3376 1.523 . S
C3376 C3360 1.368 . S
C3376 C3372 1.368 . S
C3376 C3375 1.523 . S
H3377 C3352 0.950 . S
H3378 C3354 0.950 . S
H3379 C3355 0.949 . S
H3380 C3357 0.950 . S
H3381 C3359 0.950 . S
C3382 C3383 1.349 . S
C3382 C3384 1.327 . S
C3382 H3407 0.950 . S
C3383 C3382 1.349 . S
C3383 C3399 1.349 . S
C3384 C3382 1.327 . S
C3384 C3403 1.429 . S
C3384 H3408 0.950 . S
C3385 C3402 1.574 . S
C3385 C3404 1.368 . S
C3385 H3409 0.949 . S
H3386 C3390 0.949 . S
C3387 C3388 1.349 . S
C3387 C3389 1.327 . S
C3387 H3410 0.950 . S
C3388 C3387 1.349 . S
C3388 C3400 1.349 . S
C3389 C3387 1.327 . S
C3389 C3405 1.429 . S
C3389 H3411 0.950 . S
C3390 H3386 0.949 . S
C3390 C3398 1.574 . S
C3390 C3406 1.368 . S
H3391 C3399 0.950 . S
H3392 C3397 0.950 . S
H3393 C3398 0.949 . S
H3394 C3400 0.950 . S
H3395 C3401 0.950 . S
H3396 C3402 0.949 . S
C3397 H3392 0.950 . S
C3397 C3399 1.327 . S
C3397 C3403 1.429 . S
C3398 C3390 1.574 . S
C3398 H3393 0.949 . S
C3398 C3404 1.368 . S
C3399 C3383 1.349 . S
C3399 H3391 0.950 . S
C3399 C3397 1.327 . S
C3400 C3388 1.349 . S
C3400 H3394 0.950 . S
C3400 C3401 1.327 . S
C3401 H3395 0.950 . S
C3401 C3400 1.327 . S
C3401 C3405 1.429 . S
C3402 C3385 1.574 . S
C3402 H3396 0.949 . S
C3402 C3406 1.368 . S
C3403 C3384 1.429 . S
C3403 C3397 1.429 . S
C3403 C3404 1.523 . S
C3404 C3385 1.368 . S
C3404 C3398 1.368 . S
C3404 C3403 1.523 . S
C3405 C3389 1.429 . S
C3405 C3401 1.429 . S
C3405 C3406 1.523 . S
C3406 C3390 1.368 . S
C3406 C3402 1.368 . S
C3406 C3405 1.523 . S
H3407 C3382 0.950 . S
H3408 C3384 0.950 . S
H3409 C3385 0.949 . S
H3410 C3387 0.950 . S
H3411 C3389 0.950 . S
C3412 C3413 1.349 . S
C3412 C3414 1.327 . S
C3412 H3437 0.950 . S
C3413 C3412 1.349 . S
C3413 C3429 1.349 . S
C3414 C3412 1.327 . S
C3414 C3433 1.429 . S
C3414 H3438 0.950 . S
C3415 C3432 1.574 . S
C3415 C3434 1.368 . S
C3415 H3439 0.949 . S
H3416 C3420 0.949 . S
C3417 C3418 1.349 1_655 S
C3417 C3419 1.327 . S
C3417 H3440 0.950 . S
C3418 C3417 1.349 1_455 S
C3418 C3430 1.349 . S
C3419 C3417 1.327 . S
C3419 C3435 1.429 . S
C3419 H3441 0.950 . S
C3420 H3416 0.949 . S
C3420 C3428 1.574 . S
C3420 C3436 1.368 . S
H3421 C3429 0.950 . S
H3422 C3427 0.950 . S
H3423 C3428 0.949 . S
H3424 C3430 0.950 . S
H3425 C3431 0.950 . S
H3426 C3432 0.949 . S
C3427 H3422 0.950 . S
C3427 C3429 1.327 . S
C3427 C3433 1.429 . S
C3428 C3420 1.574 . S
C3428 H3423 0.949 . S
C3428 C3434 1.368 . S
C3429 C3413 1.349 . S
C3429 H3421 0.950 . S
C3429 C3427 1.327 . S
C3430 C3418 1.349 . S
C3430 H3424 0.950 . S
C3430 C3431 1.327 . S
C3431 H3425 0.950 . S
C3431 C3430 1.327 . S
C3431 C3435 1.429 1_455 S
C3432 C3415 1.574 . S
C3432 H3426 0.949 . S
C3432 C3436 1.368 . S
C3433 C3414 1.429 . S
C3433 C3427 1.429 . S
C3433 C3434 1.523 . S
C3434 C3415 1.368 . S
C3434 C3428 1.368 . S
C3434 C3433 1.523 . S
C3435 C3419 1.429 . S
C3435 C3431 1.429 1_655 S
C3435 C3436 1.523 . S
C3436 C3420 1.368 . S
C3436 C3432 1.368 . S
C3436 C3435 1.523 . S
H3437 C3412 0.950 . S
H3438 C3414 0.950 . S
H3439 C3415 0.949 . S
H3440 C3417 0.950 . S
H3441 C3419 0.950 . S
C3442 C3443 1.349 . S
C3442 C3444 1.327 . S
C3442 H3467 0.950 . S
C3443 C3442 1.349 . S
C3443 C3459 1.349 . S
C3444 C3442 1.327 . S
C3444 C3463 1.429 . S
C3444 H3468 0.950 . S
C3445 C3462 1.574 . S
C3445 C3464 1.368 . S
C3445 H3469 0.949 . S
H3446 C3450 0.949 . S
C3447 C3448 1.349 . S
C3447 C3449 1.327 . S
C3447 H3470 0.950 . S
C3448 C3447 1.349 . S
C3448 C3460 1.349 . S
C3449 C3447 1.327 . S
C3449 C3465 1.429 . S
C3449 H3471 0.950 . S
C3450 H3446 0.949 . S
C3450 C3458 1.574 . S
C3450 C3466 1.368 . S
H3451 C3459 0.950 . S
H3452 C3457 0.950 . S
H3453 C3458 0.949 . S
H3454 C3460 0.950 . S
H3455 C3461 0.950 . S
H3456 C3462 0.949 . S
C3457 H3452 0.950 . S
C3457 C3459 1.327 . S
C3457 C3463 1.429 . S
C3458 C3450 1.574 . S
C3458 H3453 0.949 . S
C3458 C3464 1.368 . S
C3459 C3443 1.349 . S
C3459 H3451 0.950 . S
C3459 C3457 1.327 . S
C3460 C3448 1.349 . S
C3460 H3454 0.950 . S
C3460 C3461 1.327 . S
C3461 H3455 0.950 . S
C3461 C3460 1.327 . S
C3461 C3465 1.429 . S
C3462 C3445 1.574 . S
C3462 H3456 0.949 . S
C3462 C3466 1.368 . S
C3463 C3444 1.429 . S
C3463 C3457 1.429 . S
C3463 C3464 1.523 . S
C3464 C3445 1.368 . S
C3464 C3458 1.368 . S
C3464 C3463 1.523 . S
C3465 C3449 1.429 . S
C3465 C3461 1.429 . S
C3465 C3466 1.523 . S
C3466 C3450 1.368 . S
C3466 C3462 1.368 . S
C3466 C3465 1.523 . S
H3467 C3442 0.950 . S
H3468 C3444 0.950 . S
H3469 C3445 0.949 . S
H3470 C3447 0.950 . S
H3471 C3449 0.950 . S
C3472 C3473 1.349 . S
C3472 C3474 1.327 . S
C3472 H3497 0.950 . S
C3473 C3472 1.349 . S
C3473 C3489 1.349 . S
C3474 C3472 1.327 . S
C3474 C3493 1.429 . S
C3474 H3498 0.950 . S
C3475 C3492 1.574 . S
C3475 C3494 1.368 . S
C3475 H3499 0.949 . S
H3476 C3480 0.949 . S
C3477 C3478 1.349 . S
C3477 C3479 1.327 . S
C3477 H3500 0.950 . S
C3478 C3477 1.349 . S
C3478 C3490 1.349 . S
C3479 C3477 1.327 . S
C3479 C3495 1.429 . S
C3479 H3501 0.950 . S
C3480 H3476 0.949 . S
C3480 C3488 1.574 . S
C3480 C3496 1.368 . S
H3481 C3489 0.950 . S
H3482 C3487 0.950 . S
H3483 C3488 0.949 . S
H3484 C3490 0.950 . S
H3485 C3491 0.950 . S
H3486 C3492 0.949 . S
C3487 H3482 0.950 . S
C3487 C3489 1.327 . S
C3487 C3493 1.429 . S
C3488 C3480 1.574 . S
C3488 H3483 0.949 . S
C3488 C3494 1.368 . S
C3489 C3473 1.349 . S
C3489 H3481 0.950 . S
C3489 C3487 1.327 . S
C3490 C3478 1.349 . S
C3490 H3484 0.950 . S
C3490 C3491 1.327 . S
C3491 H3485 0.950 . S
C3491 C3490 1.327 . S
C3491 C3495 1.429 . S
C3492 C3475 1.574 . S
C3492 H3486 0.949 . S
C3492 C3496 1.368 . S
C3493 C3474 1.429 . S
C3493 C3487 1.429 . S
C3493 C3494 1.523 . S
C3494 C3475 1.368 . S
C3494 C3488 1.368 . S
C3494 C3493 1.523 . S
C3495 C3479 1.429 . S
C3495 C3491 1.429 . S
C3495 C3496 1.523 . S
C3496 C3480 1.368 . S
C3496 C3492 1.368 . S
C3496 C3495 1.523 . S
H3497 C3472 0.950 . S
H3498 C3474 0.950 . S
H3499 C3475 0.949 . S
H3500 C3477 0.950 . S
H3501 C3479 0.950 . S
C3502 C3503 1.349 . S
C3502 C3504 1.327 . S
C3502 H3527 0.950 . S
C3503 C3502 1.349 . S
C3503 C3519 1.349 . S
C3504 C3502 1.327 . S
C3504 C3523 1.429 . S
C3504 H3528 0.950 . S
C3505 C3522 1.574 . S
C3505 C3524 1.368 . S
C3505 H3529 0.949 . S
H3506 C3510 0.949 . S
C3507 C3508 1.349 . S
C3507 C3509 1.327 . S
C3507 H3530 0.950 . S
C3508 C3507 1.349 . S
C3508 C3520 1.349 . S
C3509 C3507 1.327 . S
C3509 C3525 1.429 . S
C3509 H3531 0.950 . S
C3510 H3506 0.949 . S
C3510 C3518 1.574 . S
C3510 C3526 1.368 . S
H3511 C3519 0.950 . S
H3512 C3517 0.950 . S
H3513 C3518 0.949 . S
H3514 C3520 0.950 . S
H3515 C3521 0.950 . S
H3516 C3522 0.949 . S
C3517 H3512 0.950 . S
C3517 C3519 1.327 . S
C3517 C3523 1.429 . S
C3518 C3510 1.574 . S
C3518 H3513 0.949 . S
C3518 C3524 1.368 . S
C3519 C3503 1.349 . S
C3519 H3511 0.950 . S
C3519 C3517 1.327 . S
C3520 C3508 1.349 . S
C3520 H3514 0.950 . S
C3520 C3521 1.327 . S
C3521 H3515 0.950 . S
C3521 C3520 1.327 . S
C3521 C3525 1.429 . S
C3522 C3505 1.574 . S
C3522 H3516 0.949 . S
C3522 C3526 1.368 . S
C3523 C3504 1.429 . S
C3523 C3517 1.429 . S
C3523 C3524 1.523 . S
C3524 C3505 1.368 . S
C3524 C3518 1.368 . S
C3524 C3523 1.523 . S
C3525 C3509 1.429 . S
C3525 C3521 1.429 . S
C3525 C3526 1.523 . S
C3526 C3510 1.368 . S
C3526 C3522 1.368 . S
C3526 C3525 1.523 . S
H3527 C3502 0.950 . S
H3528 C3504 0.950 . S
H3529 C3505 0.949 . S
H3530 C3507 0.950 . S
H3531 C3509 0.950 . S
C3532 C3533 1.349 . S
C3532 C3534 1.327 . S
C3532 H3557 0.950 . S
C3533 C3532 1.349 . S
C3533 C3549 1.349 . S
C3534 C3532 1.327 . S
C3534 C3553 1.429 . S
C3534 H3558 0.950 . S
C3535 C3552 1.574 . S
C3535 C3554 1.368 . S
C3535 H3559 0.949 . S
H3536 C3540 0.949 . S
C3537 C3538 1.349 . S
C3537 C3539 1.327 . S
C3537 H3560 0.950 . S
C3538 C3537 1.349 . S
C3538 C3550 1.349 . S
C3539 C3537 1.327 . S
C3539 C3555 1.429 . S
C3539 H3561 0.950 . S
C3540 H3536 0.949 . S
C3540 C3548 1.574 . S
C3540 C3556 1.368 . S
H3541 C3549 0.950 . S
H3542 C3547 0.950 . S
H3543 C3548 0.949 . S
H3544 C3550 0.950 . S
H3545 C3551 0.950 . S
H3546 C3552 0.949 . S
C3547 H3542 0.950 . S
C3547 C3549 1.327 . S
C3547 C3553 1.429 . S
C3548 C3540 1.574 . S
C3548 H3543 0.949 . S
C3548 C3554 1.368 . S
C3549 C3533 1.349 . S
C3549 H3541 0.950 . S
C3549 C3547 1.327 . S
C3550 C3538 1.349 . S
C3550 H3544 0.950 . S
C3550 C3551 1.327 . S
C3551 H3545 0.950 . S
C3551 C3550 1.327 . S
C3551 C3555 1.429 . S
C3552 C3535 1.574 . S
C3552 H3546 0.949 . S
C3552 C3556 1.368 . S
C3553 C3534 1.429 . S
C3553 C3547 1.429 . S
C3553 C3554 1.523 . S
C3554 C3535 1.368 . S
C3554 C3548 1.368 . S
C3554 C3553 1.523 . S
C3555 C3539 1.429 . S
C3555 C3551 1.429 . S
C3555 C3556 1.523 . S
C3556 C3540 1.368 . S
C3556 C3552 1.368 . S
C3556 C3555 1.523 . S
H3557 C3532 0.950 . S
H3558 C3534 0.950 . S
H3559 C3535 0.949 . S
H3560 C3537 0.950 . S
H3561 C3539 0.950 . S
C3562 C3563 1.349 . S
C3562 C3564 1.327 . S
C3562 H3587 0.950 . S
C3563 C3562 1.349 . S
C3563 C3579 1.349 . S
C3564 C3562 1.327 . S
C3564 C3583 1.429 . S
C3564 H3588 0.950 . S
C3565 C3582 1.574 . S
C3565 C3584 1.368 . S
C3565 H3589 0.949 . S
H3566 C3570 0.949 . S
C3567 C3568 1.349 . S
C3567 C3569 1.327 . S
C3567 H3590 0.950 . S
C3568 C3567 1.349 . S
C3568 C3580 1.349 . S
C3569 C3567 1.327 . S
C3569 C3585 1.429 . S
C3569 H3591 0.950 . S
C3570 H3566 0.949 . S
C3570 C3578 1.574 . S
C3570 C3586 1.368 . S
H3571 C3579 0.950 . S
H3572 C3577 0.950 . S
H3573 C3578 0.949 . S
H3574 C3580 0.950 . S
H3575 C3581 0.950 . S
H3576 C3582 0.949 . S
C3577 H3572 0.950 . S
C3577 C3579 1.327 . S
C3577 C3583 1.429 . S
C3578 C3570 1.574 . S
C3578 H3573 0.949 . S
C3578 C3584 1.368 . S
C3579 C3563 1.349 . S
C3579 H3571 0.950 . S
C3579 C3577 1.327 . S
C3580 C3568 1.349 . S
C3580 H3574 0.950 . S
C3580 C3581 1.327 . S
C3581 H3575 0.950 . S
C3581 C3580 1.327 . S
C3581 C3585 1.429 . S
C3582 C3565 1.574 . S
C3582 H3576 0.949 . S
C3582 C3586 1.368 . S
C3583 C3564 1.429 . S
C3583 C3577 1.429 . S
C3583 C3584 1.523 . S
C3584 C3565 1.368 . S
C3584 C3578 1.368 . S
C3584 C3583 1.523 . S
C3585 C3569 1.429 . S
C3585 C3581 1.429 . S
C3585 C3586 1.523 . S
C3586 C3570 1.368 . S
C3586 C3582 1.368 . S
C3586 C3585 1.523 . S
H3587 C3562 0.950 . S
H3588 C3564 0.950 . S
H3589 C3565 0.949 . S
H3590 C3567 0.950 . S
H3591 C3569 0.950 . S
C3592 C3593 1.349 . S
C3592 C3594 1.327 . S
C3592 H3617 0.950 . S
C3593 C3592 1.349 . S
C3593 C3609 1.349 . S
C3594 C3592 1.327 . S
C3594 C3613 1.429 . S
C3594 H3618 0.950 . S
C3595 C3612 1.574 . S
C3595 C3614 1.368 . S
C3595 H3619 0.949 . S
H3596 C3600 0.949 . S
C3597 C3598 1.349 . S
C3597 C3599 1.327 . S
C3597 H3620 0.950 . S
C3598 C3597 1.349 . S
C3598 C3610 1.349 . S
C3599 C3597 1.327 . S
C3599 C3615 1.429 . S
C3599 H3621 0.950 . S
C3600 H3596 0.949 . S
C3600 C3608 1.574 . S
C3600 C3616 1.368 . S
H3601 C3609 0.950 . S
H3602 C3607 0.950 . S
H3603 C3608 0.949 . S
H3604 C3610 0.950 . S
H3605 C3611 0.950 . S
H3606 C3612 0.949 . S
C3607 H3602 0.950 . S
C3607 C3609 1.327 . S
C3607 C3613 1.429 . S
C3608 C3600 1.574 . S
C3608 H3603 0.949 . S
C3608 C3614 1.368 . S
C3609 C3593 1.349 . S
C3609 H3601 0.950 . S
C3609 C3607 1.327 . S
C3610 C3598 1.349 . S
C3610 H3604 0.950 . S
C3610 C3611 1.327 . S
C3611 H3605 0.950 . S
C3611 C3610 1.327 . S
C3611 C3615 1.429 . S
C3612 C3595 1.574 . S
C3612 H3606 0.949 . S
C3612 C3616 1.368 . S
C3613 C3594 1.429 . S
C3613 C3607 1.429 . S
C3613 C3614 1.523 . S
C3614 C3595 1.368 . S
C3614 C3608 1.368 . S
C3614 C3613 1.523 . S
C3615 C3599 1.429 . S
C3615 C3611 1.429 . S
C3615 C3616 1.523 . S
C3616 C3600 1.368 . S
C3616 C3612 1.368 . S
C3616 C3615 1.523 . S
H3617 C3592 0.950 . S
H3618 C3594 0.950 . S
H3619 C3595 0.949 . S
H3620 C3597 0.950 . S
H3621 C3599 0.950 . S
C3622 C3623 1.349 . S
C3622 C3624 1.327 . S
C3622 H3647 0.950 . S
C3623 C3622 1.349 . S
C3623 C3639 1.349 . S
C3624 C3622 1.327 . S
C3624 C3643 1.429 . S
C3624 H3648 0.950 . S
C3625 C3642 1.574 . S
C3625 C3644 1.368 . S
C3625 H3649 0.949 . S
H3626 C3630 0.949 . S
C3627 C3628 1.349 . S
C3627 C3629 1.327 . S
C3627 H3650 0.950 . S
C3628 C3627 1.349 . S
C3628 C3640 1.349 . S
C3629 C3627 1.327 . S
C3629 C3645 1.429 . S
C3629 H3651 0.950 . S
C3630 H3626 0.949 . S
C3630 C3638 1.574 . S
C3630 C3646 1.368 . S
H3631 C3639 0.950 . S
H3632 C3637 0.950 . S
H3633 C3638 0.949 . S
H3634 C3640 0.952 . S
H3635 C3641 0.950 . S
H3636 C3642 0.949 . S
C3637 H3632 0.950 . S
C3637 C3639 1.327 . S
C3637 C3643 1.429 . S
C3638 C3630 1.574 . S
C3638 H3633 0.949 . S
C3638 C3644 1.368 . S
C3639 C3623 1.349 . S
C3639 H3631 0.950 . S
C3639 C3637 1.327 . S
C3640 C3628 1.349 . S
C3640 H3634 0.952 . S
C3640 C3641 1.327 . S
C3641 H3635 0.950 . S
C3641 C3640 1.327 . S
C3641 C3645 1.429 . S
C3642 C3625 1.574 . S
C3642 H3636 0.949 . S
C3642 C3646 1.368 . S
C3643 C3624 1.429 . S
C3643 C3637 1.429 . S
C3643 C3644 1.523 . S
C3644 C3625 1.368 . S
C3644 C3638 1.368 . S
C3644 C3643 1.523 . S
C3645 C3629 1.429 . S
C3645 C3641 1.429 . S
C3645 C3646 1.523 . S
C3646 C3630 1.368 . S
C3646 C3642 1.368 . S
C3646 C3645 1.523 . S
H3647 C3622 0.950 . S
H3648 C3624 0.950 . S
H3649 C3625 0.949 . S
H3650 C3627 0.950 . S
H3651 C3629 0.950 . S
C3652 C3653 1.349 . S
C3652 C3654 1.327 . S
C3652 H3677 0.950 . S
C3653 C3652 1.349 . S
C3653 C3669 1.349 . S
C3654 C3652 1.327 . S
C3654 C3673 1.429 . S
C3654 H3678 0.950 . S
C3655 C3672 1.574 . S
C3655 C3674 1.368 . S
C3655 H3679 0.949 . S
H3656 C3660 0.949 . S
C3657 C3658 1.349 . S
C3657 C3659 1.327 . S
C3657 H3680 0.950 . S
C3658 C3657 1.349 . S
C3658 C3670 1.349 . S
C3659 C3657 1.327 . S
C3659 C3675 1.429 . S
C3659 H3681 0.950 . S
C3660 H3656 0.949 . S
C3660 C3668 1.574 . S
C3660 C3676 1.368 . S
H3661 C3669 0.950 . S
H3662 C3667 0.950 . S
H3663 C3668 0.949 . S
H3664 C3670 0.950 . S
H3665 C3671 0.950 . S
H3666 C3672 0.949 . S
C3667 H3662 0.950 . S
C3667 C3669 1.327 . S
C3667 C3673 1.429 . S
C3668 C3660 1.574 . S
C3668 H3663 0.949 . S
C3668 C3674 1.368 . S
C3669 C3653 1.349 . S
C3669 H3661 0.950 . S
C3669 C3667 1.327 . S
C3670 C3658 1.349 . S
C3670 H3664 0.950 . S
C3670 C3671 1.327 . S
C3671 H3665 0.950 . S
C3671 C3670 1.327 . S
C3671 C3675 1.429 . S
C3672 C3655 1.574 . S
C3672 H3666 0.949 . S
C3672 C3676 1.368 . S
C3673 C3654 1.429 . S
C3673 C3667 1.429 . S
C3673 C3674 1.523 . S
C3674 C3655 1.368 . S
C3674 C3668 1.368 . S
C3674 C3673 1.523 . S
C3675 C3659 1.429 . S
C3675 C3671 1.429 . S
C3675 C3676 1.523 . S
C3676 C3660 1.368 . S
C3676 C3672 1.368 . S
C3676 C3675 1.523 . S
H3677 C3652 0.950 . S
H3678 C3654 0.950 . S
H3679 C3655 0.949 . S
H3680 C3657 0.950 . S
H3681 C3659 0.950 . S
C3682 C3683 1.349 1_556 S
C3682 C3684 1.327 . S
C3682 H3707 0.950 . S
C3683 C3682 1.349 1_554 S
C3683 C3699 1.349 . S
C3684 C3682 1.327 . S
C3684 C3703 1.429 1_556 S
C3684 H3708 0.950 . S
C3685 C3702 1.574 . S
C3685 C3704 1.368 . S
C3685 H3709 0.949 . S
H3686 C3690 0.949 . S
C3687 C3688 1.349 . S
C3687 C3689 1.327 . S
C3687 H3710 0.950 . S
C3688 C3687 1.349 . S
C3688 C3700 1.349 1_554 S
C3689 C3687 1.327 . S
C3689 C3705 1.429 . S
C3689 H3711 0.950 . S
C3690 H3686 0.949 . S
C3690 C3698 1.574 . S
C3690 C3706 1.368 1_556 S
H3691 C3699 0.950 . S
H3692 C3697 0.950 . S
H3693 C3698 0.949 . S
H3694 C3700 0.950 . S
H3695 C3701 0.950 . S
H3696 C3702 0.949 . S
C3697 H3692 0.950 . S
C3697 C3699 1.327 . S
C3697 C3703 1.429 . S
C3698 C3690 1.574 . S
C3698 H3693 0.949 . S
C3698 C3704 1.368 1_556 S
C3699 C3683 1.349 . S
C3699 H3691 0.950 . S
C3699 C3697 1.327 . S
C3700 C3688 1.349 1_556 S
C3700 H3694 0.950 . S
C3700 C3701 1.327 . S
C3701 H3695 0.950 . S
C3701 C3700 1.327 . S
C3701 C3705 1.429 1_556 S
C3702 C3685 1.574 . S
C3702 H3696 0.949 . S
C3702 C3706 1.368 . S
C3703 C3684 1.429 1_554 S
C3703 C3697 1.429 . S
C3703 C3704 1.523 . S
C3704 C3685 1.368 . S
C3704 C3698 1.368 1_554 S
C3704 C3703 1.523 . S
C3705 C3689 1.429 . S
C3705 C3701 1.429 1_554 S
C3705 C3706 1.523 . S
C3706 C3690 1.368 1_554 S
C3706 C3702 1.368 . S
C3706 C3705 1.523 . S
H3707 C3682 0.950 . S
H3708 C3684 0.950 . S
H3709 C3685 0.949 . S
H3710 C3687 0.950 . S
H3711 C3689 0.950 . S
C3712 C3713 1.349 . S
C3712 C3714 1.327 . S
C3712 H3737 0.950 . S
C3713 C3712 1.349 . S
C3713 C3729 1.349 . S
C3714 C3712 1.327 . S
C3714 C3733 1.429 . S
C3714 H3738 0.950 . S
C3715 C3732 1.574 . S
C3715 C3734 1.368 . S
C3715 H3739 0.949 . S
H3716 C3720 0.949 . S
C3717 C3718 1.349 . S
C3717 C3719 1.327 . S
C3717 H3740 0.950 . S
C3718 C3717 1.349 . S
C3718 C3730 1.349 . S
C3719 C3717 1.327 . S
C3719 C3735 1.429 . S
C3719 H3741 0.950 . S
C3720 H3716 0.949 . S
C3720 C3728 1.574 . S
C3720 C3736 1.368 . S
H3721 C3729 0.950 . S
H3722 C3727 0.950 . S
H3723 C3728 0.949 . S
H3724 C3730 0.950 . S
H3725 C3731 0.950 . S
H3726 C3732 0.949 . S
C3727 H3722 0.950 . S
C3727 C3729 1.327 . S
C3727 C3733 1.429 . S
C3728 C3720 1.574 . S
C3728 H3723 0.949 . S
C3728 C3734 1.368 . S
C3729 C3713 1.349 . S
C3729 H3721 0.950 . S
C3729 C3727 1.327 . S
C3730 C3718 1.349 . S
C3730 H3724 0.950 . S
C3730 C3731 1.327 . S
C3731 H3725 0.950 . S
C3731 C3730 1.327 . S
C3731 C3735 1.429 . S
C3732 C3715 1.574 . S
C3732 H3726 0.949 . S
C3732 C3736 1.368 . S
C3733 C3714 1.429 . S
C3733 C3727 1.429 . S
C3733 C3734 1.523 . S
C3734 C3715 1.368 . S
C3734 C3728 1.368 . S
C3734 C3733 1.523 . S
C3735 C3719 1.429 . S
C3735 C3731 1.429 . S
C3735 C3736 1.523 . S
C3736 C3720 1.368 . S
C3736 C3732 1.368 . S
C3736 C3735 1.523 . S
H3737 C3712 0.950 . S
H3738 C3714 0.950 . S
H3739 C3715 0.949 . S
H3740 C3717 0.950 . S
H3741 C3719 0.950 . S
C3742 C3743 1.349 . S
C3742 C3744 1.327 . S
C3742 H3767 0.950 . S
C3743 C3742 1.349 . S
C3743 C3759 1.349 . S
C3744 C3742 1.327 . S
C3744 C3763 1.429 . S
C3744 H3768 0.950 . S
C3745 C3762 1.574 . S
C3745 C3764 1.368 . S
C3745 H3769 0.949 . S
H3746 C3750 0.949 1_556 S
C3747 C3748 1.349 . S
C3747 C3749 1.327 . S
C3747 H3770 0.950 . S
C3748 C3747 1.349 . S
C3748 C3760 1.349 1_554 S
C3749 C3747 1.327 . S
C3749 C3765 1.429 . S
C3749 H3771 0.950 . S
C3750 H3746 0.949 1_554 S
C3750 C3758 1.574 . S
C3750 C3766 1.368 . S
H3751 C3759 0.950 . S
H3752 C3757 0.950 . S
H3753 C3758 0.945 1_556 S
H3754 C3760 0.950 . S
H3755 C3761 0.950 . S
H3756 C3762 0.949 . S
C3757 H3752 0.950 . S
C3757 C3759 1.327 . S
C3757 C3763 1.429 . S
C3758 C3750 1.574 . S
C3758 H3753 0.945 1_554 S
C3758 C3764 1.368 . S
C3759 C3743 1.349 . S
C3759 H3751 0.950 . S
C3759 C3757 1.327 . S
C3760 C3748 1.349 1_556 S
C3760 H3754 0.950 . S
C3760 C3761 1.327 . S
C3761 H3755 0.950 . S
C3761 C3760 1.327 . S
C3761 C3765 1.429 1_556 S
C3762 C3745 1.574 . S
C3762 H3756 0.949 . S
C3762 C3766 1.368 . S
C3763 C3744 1.429 . S
C3763 C3757 1.429 . S
C3763 C3764 1.523 . S
C3764 C3745 1.368 . S
C3764 C3758 1.368 . S
C3764 C3763 1.523 . S
C3765 C3749 1.429 . S
C3765 C3761 1.429 1_554 S
C3765 C3766 1.523 . S
C3766 C3750 1.368 . S
C3766 C3762 1.368 . S
C3766 C3765 1.523 . S
H3767 C3742 0.950 . S
H3768 C3744 0.950 . S
H3769 C3745 0.949 . S
H3770 C3747 0.950 . S
H3771 C3749 0.950 . S
C3772 C3773 1.349 . S
C3772 C3774 1.327 . S
C3772 H3797 0.950 . S
C3773 C3772 1.349 . S
C3773 C3789 1.349 . S
C3774 C3772 1.327 . S
C3774 C3793 1.429 . S
C3774 H3798 0.950 . S
C3775 C3792 1.574 . S
C3775 C3794 1.368 . S
C3775 H3799 0.949 . S
H3776 C3780 0.949 . S
C3777 C3778 1.349 . S
C3777 C3779 1.327 . S
C3777 H3800 0.950 . S
C3778 C3777 1.349 . S
C3778 C3790 1.349 . S
C3779 C3777 1.327 . S
C3779 C3795 1.429 . S
C3779 H3801 0.950 . S
C3780 H3776 0.949 . S
C3780 C3788 1.574 . S
C3780 C3796 1.368 . S
H3781 C3789 0.950 . S
H3782 C3787 0.950 . S
H3783 C3788 0.949 . S
H3784 C3790 0.950 . S
H3785 C3791 0.950 . S
H3786 C3792 0.949 . S
C3787 H3782 0.950 . S
C3787 C3789 1.327 . S
C3787 C3793 1.429 . S
C3788 C3780 1.574 . S
C3788 H3783 0.949 . S
C3788 C3794 1.368 . S
C3789 C3773 1.349 . S
C3789 H3781 0.950 . S
C3789 C3787 1.327 . S
C3790 C3778 1.349 . S
C3790 H3784 0.950 . S
C3790 C3791 1.327 . S
C3791 H3785 0.950 . S
C3791 C3790 1.327 . S
C3791 C3795 1.429 . S
C3792 C3775 1.574 . S
C3792 H3786 0.949 . S
C3792 C3796 1.368 . S
C3793 C3774 1.429 . S
C3793 C3787 1.429 . S
C3793 C3794 1.523 . S
C3794 C3775 1.368 . S
C3794 C3788 1.368 . S
C3794 C3793 1.523 . S
C3795 C3779 1.429 . S
C3795 C3791 1.429 . S
C3795 C3796 1.523 . S
C3796 C3780 1.368 . S
C3796 C3792 1.368 . S
C3796 C3795 1.523 . S
H3797 C3772 0.950 . S
H3798 C3774 0.950 . S
H3799 C3775 0.949 . S
H3800 C3777 0.950 . S
H3801 C3779 0.950 . S
C3802 C3803 1.349 . S
C3802 C3804 1.327 . S
C3802 H3827 0.950 . S
C3803 C3802 1.349 . S
C3803 C3819 1.349 . S
C3804 C3802 1.327 . S
C3804 C3823 1.429 . S
C3804 H3828 0.950 . S
C3805 C3822 1.574 . S
C3805 C3824 1.368 . S
C3805 H3829 0.949 . S
H3806 C3810 0.949 . S
C3807 C3808 1.349 . S
C3807 C3809 1.327 . S
C3807 H3830 0.950 . S
C3808 C3807 1.349 . S
C3808 C3820 1.349 . S
C3809 C3807 1.327 . S
C3809 C3825 1.429 . S
C3809 H3831 0.950 . S
C3810 H3806 0.949 . S
C3810 C3818 1.574 . S
C3810 C3826 1.368 . S
H3811 C3819 0.950 . S
H3812 C3817 0.950 . S
H3813 C3818 0.949 . S
H3814 C3820 0.950 . S
H3815 C3821 0.950 . S
H3816 C3822 0.949 . S
C3817 H3812 0.950 . S
C3817 C3819 1.327 . S
C3817 C3823 1.429 . S
C3818 C3810 1.574 . S
C3818 H3813 0.949 . S
C3818 C3824 1.368 . S
C3819 C3803 1.349 . S
C3819 H3811 0.950 . S
C3819 C3817 1.327 . S
C3820 C3808 1.349 . S
C3820 H3814 0.950 . S
C3820 C3821 1.327 . S
C3821 H3815 0.950 . S
C3821 C3820 1.327 . S
C3821 C3825 1.429 . S
C3822 C3805 1.574 . S
C3822 H3816 0.949 . S
C3822 C3826 1.368 . S
C3823 C3804 1.429 . S
C3823 C3817 1.429 . S
C3823 C3824 1.523 . S
C3824 C3805 1.368 . S
C3824 C3818 1.368 . S
C3824 C3823 1.523 . S
C3825 C3809 1.429 . S
C3825 C3821 1.429 . S
C3825 C3826 1.523 . S
C3826 C3810 1.368 . S
C3826 C3822 1.368 . S
C3826 C3825 1.523 . S
H3827 C3802 0.950 . S
H3828 C3804 0.950 . S
H3829 C3805 0.949 . S
H3830 C3807 0.950 . S
H3831 C3809 0.950 . S
C953 C101 2.116 . S
C958 C314 2.065 . S
C983 C57 1.982 . S
C988 C371 2.013 . S
C1013 C70 0.785 . S
C1018 C394 0.781 . S
C1048 C448 1.377 . S
C1043 C82 1.386 . S
C1073 C23 1.282 . S
C1078 C488 1.257 . S
C1108 C519 0.284 . S
C1103 C29 0.174 . S
C1138 C571 1.034 . S
C1133 C49 1.009 . S
C1163 C10 1.720 . S
C1168 C594 1.649 . S
C1198 C331 2.331 . S
C1193 C218 2.330 . S
C1223 C226 0.338 . S
C1228 C368 0.434 . S
C1258 C411 1.296 . S
C1253 C251 1.291 . S
C1288 C434 0.992 . S
C1283 C159 1.010 . S
C1313 C211 1.676 . S
C1318 C474 1.638 . S
C1348 C522 1.438 . S
C1343 C225 1.449 . S
C1378 C568 0.352 . S
C1373 C252 0.188 . S
C1408 C611 1.905 . S
C1403 C166 1.918 . S
C1438 C328 1.444 . S
C1433 C147 1.475 . S
C1463 C263 1.898 . S
C1468 C651 1.917 . S
C1498 C683 2.534 . S
C1493 C309 2.580 . S
C1528 C714 0.381 . S
C1523 C291 0.304 . S
C1553 C108 1.404 . S
C1558 C608 1.378 . S
C1583 C121 1.546 . S
C1588 C408 1.530 . S
C1613 C302 2.204 . S
C1618 C771 2.205 . S
C1648 C794 0.476 . S
C1643 C276 0.354 . S
C1678 C323 2.305 1_565 S
C1673 C55 2.337 . S
C1708 C802 2.354 . S
C1703 C96 2.362 . S
C1733 C88 1.292 . S
C1738 C403 1.268 . S
C1763 C75 1.655 . S
C1768 C759 1.644 . S
C1798 C479 1.337 . S
C1793 C4 1.354 . S
C1823 C44 0.482 . S
C1828 C688 0.487 . S
C1858 C562 1.518 1_565 S
C1853 C31 1.515 . S
C1888 C843 1.840 . S
C1883 C18 1.894 . S
C1918 C322 2.626 . S
C1913 C133 2.644 . S
C1948 C799 0.492 . S
C1943 C296 0.465 . S
C1973 C107 1.633 . S
C1978 C402 1.616 . S
C2003 C264 1.461 . S
C2008 C763 1.446 . S
C2033 C140 1.973 . S
C2038 C483 1.962 . S
C2068 C691 1.623 . S
C2063 C289 1.655 . S
C2093 C114 0.359 . S
C2098 C559 0.401 . S
C2123 C265 2.220 . S
C2128 C842 2.197 . S
C2153 C179 1.598 . S
C2158 C319 1.575 . S
C2183 C161 2.245 . S
C2188 C642 2.236 . S
C2213 C244 2.871 . S
C2218 C514 2.823 . S
C2243 C224 0.949 . S
C2248 C723 0.945 . S
C2278 C839 1.386 . S
C2273 C257 1.401 . S
C2303 C199 1.676 . S
C2308 C399 1.664 . S
C2338 C442 2.529 . S
C2333 C237 2.554 . S
C2368 C363 0.735 . S
C2363 C185 0.733 . S
C2393 C69 2.118 . S
C2398 C874 2.066 . S
C2428 C811 2.013 . S
C2423 C83 1.981 . S
C2453 C94 0.788 . S
C2458 C914 0.783 . S
C2483 C56 1.387 . S
C2488 C768 1.378 . S
C2513 C42 1.299 . S
C2518 C648 1.268 . S
C2548 C679 0.285 . S
C2543 C3 0.176 . S
C2578 C731 1.045 . S
C2573 C16 1.016 . S
C2608 C834 1.649 . S
C2603 C36 1.720 . S
C2638 C891 2.331 . S
C2633 C238 2.330 . S
C2663 C174 0.336 . S
C2668 C808 0.433 . S
C2698 C931 1.297 . S
C2693 C186 1.292 . S
C2728 C754 0.991 . S
C2723 C198 1.008 . S
C2758 C634 1.640 . S
C2753 C239 1.678 . S
C2783 C173 1.448 . S
C2788 C682 1.437 . S
C2818 C728 0.353 . S
C2813 C187 0.189 . S
C2843 C205 1.917 . S
C2848 C851 1.905 . S
C2878 C888 1.442 . S
C2873 C290 1.473 . S
C2903 C122 1.899 . S
C2908 C491 1.918 . S
C2938 C523 2.542 . S
C2933 C134 2.588 . S
C2968 C554 0.380 . S
C2963 C148 0.304 . S
C2998 C848 1.375 . S
C2993 C283 1.401 . S
C3023 C270 1.543 . S
C3028 C928 1.528 . S
C3058 C451 2.204 . S
C3053 C135 2.203 . S
C3088 C354 0.475 . S
C3083 C109 0.352 . S
C3113 C81 2.337 . S
C3118 C883 2.305 . S
C3148 C362 2.353 . S
C3143 C68 2.361 . S
C3173 C62 1.292 . S
C3178 C923 1.268 . S
C3203 C95 1.655 . S
C3208 C439 1.644 . S
C3233 C30 1.353 . S
C3238 C639 1.336 . S
C3268 C528 0.473 . S
C3263 C17 0.459 . S
C3293 C5 1.517 . S
C3298 C722 1.520 . S
C3323 C43 1.878 . S
C3328 C603 1.828 . S
C3358 C882 2.625 . S
C3353 C304 2.643 . S
C3383 C153 0.463 . S
C3388 C359 0.491 . S
C3418 C922 1.616 . S
C3413 C278 1.634 . S
C3443 C127 1.460 . S
C3448 C443 1.445 . S
C3473 C303 1.966 . S
C3478 C643 1.954 . S
C3508 C531 1.620 . S
C3503 C146 1.652 . S
C3533 C277 0.356 . S
C3538 C719 0.398 . S
C3568 C602 2.194 . S
C3563 C120 2.217 . S
C3598 C879 1.574 . S
C3593 C231 1.597 . S
C3628 C482 2.235 1_665 S
C3623 C200 2.244 . S
C3653 C212 2.876 . S
C3658 C674 2.828 . S
C3688 C563 0.945 . S
C3683 C172 0.949 . S
C3713 C192 1.400 . S
C3718 C599 1.384 . S
C3743 C160 1.677 . S
C3748 C919 1.664 . S
C3778 C762 2.531 . S
C3773 C213 2.556 1_565 S
C3808 C803 0.737 . S
C3803 C250 0.736 . S
