# Generated by pormake.
# Topology gar, (4,6)-cn, num edge types: 1
# Building blocks:
#     Node 0, Type 0, BuildingBlock: AZAVOO_clean_sbu_0, # of connection points: 4
#     Node 1, Type 0, BuildingBlock: AZAVOO_clean_sbu_0, # of connection points: 4
#     Node 2, Type 0, BuildingBlock: AZAVOO_clean_sbu_0, # of connection points: 4
#     Node 3, Type 0, BuildingBlock: AZAVOO_clean_sbu_0, # of connection points: 4
#     Node 4, Type 0, BuildingBlock: AZAVOO_clean_sbu_0, # of connection points: 4
#     Node 5, Type 0, BuildingBlock: AZAVOO_clean_sbu_0, # of connection points: 4
#     Node 6, Type 0, BuildingBlock: AZAVOO_clean_sbu_0, # of connection points: 4
#     Node 7, Type 0, BuildingBlock: AZAVOO_clean_sbu_0, # of connection points: 4
#     Node 8, Type 0, BuildingBlock: AZAVOO_clean_sbu_0, # of connection points: 4
#     Node 9, Type 0, BuildingBlock: AZAVOO_clean_sbu_0, # of connection points: 4
#     Node 10, Type 0, BuildingBlock: AZAVOO_clean_sbu_0, # of connection points: 4
#     Node 11, Type 0, BuildingBlock: AZAVOO_clean_sbu_0, # of connection points: 4
#     Node 12, Type 0, BuildingBlock: AZAVOO_clean_sbu_0, # of connection points: 4
#     Node 13, Type 0, BuildingBlock: AZAVOO_clean_sbu_0, # of connection points: 4
#     Node 14, Type 0, BuildingBlock: AZAVOO_clean_sbu_0, # of connection points: 4
#     Node 15, Type 0, BuildingBlock: AZAVOO_clean_sbu_0, # of connection points: 4
#     Node 16, Type 0, BuildingBlock: AZAVOO_clean_sbu_0, # of connection points: 4
#     Node 17, Type 0, BuildingBlock: AZAVOO_clean_sbu_0, # of connection points: 4
#     Node 18, Type 0, BuildingBlock: AZAVOO_clean_sbu_0, # of connection points: 4
#     Node 19, Type 0, BuildingBlock: AZAVOO_clean_sbu_0, # of connection points: 4
#     Node 20, Type 0, BuildingBlock: AZAVOO_clean_sbu_0, # of connection points: 4
#     Node 21, Type 0, BuildingBlock: AZAVOO_clean_sbu_0, # of connection points: 4
#     Node 22, Type 0, BuildingBlock: AZAVOO_clean_sbu_0, # of connection points: 4
#     Node 23, Type 0, BuildingBlock: AZAVOO_clean_sbu_0, # of connection points: 4
#     Node 24, Type 1, BuildingBlock: BETDAH_clean_sbu_0, # of connection points: 6
#     Node 25, Type 1, BuildingBlock: BETDAH_clean_sbu_0, # of connection points: 6
#     Node 26, Type 1, BuildingBlock: BETDAH_clean_sbu_0, # of connection points: 6
#     Node 27, Type 1, BuildingBlock: BETDAH_clean_sbu_0, # of connection points: 6
#     Node 28, Type 1, BuildingBlock: BETDAH_clean_sbu_0, # of connection points: 6
#     Node 29, Type 1, BuildingBlock: BETDAH_clean_sbu_0, # of connection points: 6
#     Node 30, Type 1, BuildingBlock: BETDAH_clean_sbu_0, # of connection points: 6
#     Node 31, Type 1, BuildingBlock: BETDAH_clean_sbu_0, # of connection points: 6
#     Node 32, Type 1, BuildingBlock: BETDAH_clean_sbu_0, # of connection points: 6
#     Node 33, Type 1, BuildingBlock: BETDAH_clean_sbu_0, # of connection points: 6
#     Node 34, Type 1, BuildingBlock: BETDAH_clean_sbu_0, # of connection points: 6
#     Node 35, Type 1, BuildingBlock: BETDAH_clean_sbu_0, # of connection points: 6
#     Node 36, Type 1, BuildingBlock: BETDAH_clean_sbu_0, # of connection points: 6
#     Node 37, Type 1, BuildingBlock: BETDAH_clean_sbu_0, # of connection points: 6
#     Node 38, Type 1, BuildingBlock: BETDAH_clean_sbu_0, # of connection points: 6
#     Node 39, Type 1, BuildingBlock: BETDAH_clean_sbu_0, # of connection points: 6
#     Edge 40, Type (0, 1), BuildingBlock: KIFKEQ_clean_linker_1, # of connection points: 2
#     Edge 41, Type (0, 1), BuildingBlock: KIFKEQ_clean_linker_1, # of connection points: 2
#     Edge 42, Type (0, 1), BuildingBlock: KIFKEQ_clean_linker_1, # of connection points: 2
#     Edge 43, Type (0, 1), BuildingBlock: KIFKEQ_clean_linker_1, # of connection points: 2
#     Edge 44, Type (0, 1), BuildingBlock: KIFKEQ_clean_linker_1, # of connection points: 2
#     Edge 45, Type (0, 1), BuildingBlock: KIFKEQ_clean_linker_1, # of connection points: 2
#     Edge 46, Type (0, 1), BuildingBlock: KIFKEQ_clean_linker_1, # of connection points: 2
#     Edge 47, Type (0, 1), BuildingBlock: KIFKEQ_clean_linker_1, # of connection points: 2
#     Edge 48, Type (0, 1), BuildingBlock: KIFKEQ_clean_linker_1, # of connection points: 2
#     Edge 49, Type (0, 1), BuildingBlock: KIFKEQ_clean_linker_1, # of connection points: 2
#     Edge 50, Type (0, 1), BuildingBlock: KIFKEQ_clean_linker_1, # of connection points: 2
#     Edge 51, Type (0, 1), BuildingBlock: KIFKEQ_clean_linker_1, # of connection points: 2
#     Edge 52, Type (0, 1), BuildingBlock: KIFKEQ_clean_linker_1, # of connection points: 2
#     Edge 53, Type (0, 1), BuildingBlock: KIFKEQ_clean_linker_1, # of connection points: 2
#     Edge 54, Type (0, 1), BuildingBlock: KIFKEQ_clean_linker_1, # of connection points: 2
#     Edge 55, Type (0, 1), BuildingBlock: KIFKEQ_clean_linker_1, # of connection points: 2
#     Edge 56, Type (0, 1), BuildingBlock: KIFKEQ_clean_linker_1, # of connection points: 2
#     Edge 57, Type (0, 1), BuildingBlock: KIFKEQ_clean_linker_1, # of connection points: 2
#     Edge 58, Type (0, 1), BuildingBlock: KIFKEQ_clean_linker_1, # of connection points: 2
#     Edge 59, Type (0, 1), BuildingBlock: KIFKEQ_clean_linker_1, # of connection points: 2
#     Edge 60, Type (0, 1), BuildingBlock: KIFKEQ_clean_linker_1, # of connection points: 2
#     Edge 61, Type (0, 1), BuildingBlock: KIFKEQ_clean_linker_1, # of connection points: 2
#     Edge 62, Type (0, 1), BuildingBlock: KIFKEQ_clean_linker_1, # of connection points: 2
#     Edge 63, Type (0, 1), BuildingBlock: KIFKEQ_clean_linker_1, # of connection points: 2
#     Edge 64, Type (0, 1), BuildingBlock: KIFKEQ_clean_linker_1, # of connection points: 2
#     Edge 65, Type (0, 1), BuildingBlock: KIFKEQ_clean_linker_1, # of connection points: 2
#     Edge 66, Type (0, 1), BuildingBlock: KIFKEQ_clean_linker_1, # of connection points: 2
#     Edge 67, Type (0, 1), BuildingBlock: KIFKEQ_clean_linker_1, # of connection points: 2
#     Edge 68, Type (0, 1), BuildingBlock: KIFKEQ_clean_linker_1, # of connection points: 2
#     Edge 69, Type (0, 1), BuildingBlock: KIFKEQ_clean_linker_1, # of connection points: 2
#     Edge 70, Type (0, 1), BuildingBlock: KIFKEQ_clean_linker_1, # of connection points: 2
#     Edge 71, Type (0, 1), BuildingBlock: KIFKEQ_clean_linker_1, # of connection points: 2
#     Edge 72, Type (0, 1), BuildingBlock: KIFKEQ_clean_linker_1, # of connection points: 2
#     Edge 73, Type (0, 1), BuildingBlock: KIFKEQ_clean_linker_1, # of connection points: 2
#     Edge 74, Type (0, 1), BuildingBlock: KIFKEQ_clean_linker_1, # of connection points: 2
#     Edge 75, Type (0, 1), BuildingBlock: KIFKEQ_clean_linker_1, # of connection points: 2
#     Edge 76, Type (0, 1), BuildingBlock: KIFKEQ_clean_linker_1, # of connection points: 2
#     Edge 77, Type (0, 1), BuildingBlock: KIFKEQ_clean_linker_1, # of connection points: 2
#     Edge 78, Type (0, 1), BuildingBlock: KIFKEQ_clean_linker_1, # of connection points: 2
#     Edge 79, Type (0, 1), BuildingBlock: KIFKEQ_clean_linker_1, # of connection points: 2
#     Edge 80, Type (0, 1), BuildingBlock: KIFKEQ_clean_linker_1, # of connection points: 2
#     Edge 81, Type (0, 1), BuildingBlock: KIFKEQ_clean_linker_1, # of connection points: 2
#     Edge 82, Type (0, 1), BuildingBlock: KIFKEQ_clean_linker_1, # of connection points: 2
#     Edge 83, Type (0, 1), BuildingBlock: KIFKEQ_clean_linker_1, # of connection points: 2
#     Edge 84, Type (0, 1), BuildingBlock: KIFKEQ_clean_linker_1, # of connection points: 2
#     Edge 85, Type (0, 1), BuildingBlock: KIFKEQ_clean_linker_1, # of connection points: 2
#     Edge 86, Type (0, 1), BuildingBlock: KIFKEQ_clean_linker_1, # of connection points: 2
#     Edge 87, Type (0, 1), BuildingBlock: KIFKEQ_clean_linker_1, # of connection points: 2
#     Edge 88, Type (0, 1), BuildingBlock: KIFKEQ_clean_linker_1, # of connection points: 2
#     Edge 89, Type (0, 1), BuildingBlock: KIFKEQ_clean_linker_1, # of connection points: 2
#     Edge 90, Type (0, 1), BuildingBlock: KIFKEQ_clean_linker_1, # of connection points: 2
#     Edge 91, Type (0, 1), BuildingBlock: KIFKEQ_clean_linker_1, # of connection points: 2
#     Edge 92, Type (0, 1), BuildingBlock: KIFKEQ_clean_linker_1, # of connection points: 2
#     Edge 93, Type (0, 1), BuildingBlock: KIFKEQ_clean_linker_1, # of connection points: 2
#     Edge 94, Type (0, 1), BuildingBlock: KIFKEQ_clean_linker_1, # of connection points: 2
#     Edge 95, Type (0, 1), BuildingBlock: KIFKEQ_clean_linker_1, # of connection points: 2
#     Edge 96, Type (0, 1), BuildingBlock: KIFKEQ_clean_linker_1, # of connection points: 2
#     Edge 97, Type (0, 1), BuildingBlock: KIFKEQ_clean_linker_1, # of connection points: 2
#     Edge 98, Type (0, 1), BuildingBlock: KIFKEQ_clean_linker_1, # of connection points: 2
#     Edge 99, Type (0, 1), BuildingBlock: KIFKEQ_clean_linker_1, # of connection points: 2
#     Edge 100, Type (0, 1), BuildingBlock: KIFKEQ_clean_linker_1, # of connection points: 2
#     Edge 101, Type (0, 1), BuildingBlock: KIFKEQ_clean_linker_1, # of connection points: 2
#     Edge 102, Type (0, 1), BuildingBlock: KIFKEQ_clean_linker_1, # of connection points: 2
#     Edge 103, Type (0, 1), BuildingBlock: KIFKEQ_clean_linker_1, # of connection points: 2
#     Edge 104, Type (0, 1), BuildingBlock: KIFKEQ_clean_linker_1, # of connection points: 2
#     Edge 105, Type (0, 1), BuildingBlock: KIFKEQ_clean_linker_1, # of connection points: 2
#     Edge 106, Type (0, 1), BuildingBlock: KIFKEQ_clean_linker_1, # of connection points: 2
#     Edge 107, Type (0, 1), BuildingBlock: KIFKEQ_clean_linker_1, # of connection points: 2
#     Edge 108, Type (0, 1), BuildingBlock: KIFKEQ_clean_linker_1, # of connection points: 2
#     Edge 109, Type (0, 1), BuildingBlock: KIFKEQ_clean_linker_1, # of connection points: 2
#     Edge 110, Type (0, 1), BuildingBlock: KIFKEQ_clean_linker_1, # of connection points: 2
#     Edge 111, Type (0, 1), BuildingBlock: KIFKEQ_clean_linker_1, # of connection points: 2
#     Edge 112, Type (0, 1), BuildingBlock: KIFKEQ_clean_linker_1, # of connection points: 2
#     Edge 113, Type (0, 1), BuildingBlock: KIFKEQ_clean_linker_1, # of connection points: 2
#     Edge 114, Type (0, 1), BuildingBlock: KIFKEQ_clean_linker_1, # of connection points: 2
#     Edge 115, Type (0, 1), BuildingBlock: KIFKEQ_clean_linker_1, # of connection points: 2
#     Edge 116, Type (0, 1), BuildingBlock: KIFKEQ_clean_linker_1, # of connection points: 2
#     Edge 117, Type (0, 1), BuildingBlock: KIFKEQ_clean_linker_1, # of connection points: 2
#     Edge 118, Type (0, 1), BuildingBlock: KIFKEQ_clean_linker_1, # of connection points: 2
#     Edge 119, Type (0, 1), BuildingBlock: KIFKEQ_clean_linker_1, # of connection points: 2
#     Edge 120, Type (0, 1), BuildingBlock: KIFKEQ_clean_linker_1, # of connection points: 2
#     Edge 121, Type (0, 1), BuildingBlock: KIFKEQ_clean_linker_1, # of connection points: 2
#     Edge 122, Type (0, 1), BuildingBlock: KIFKEQ_clean_linker_1, # of connection points: 2
#     Edge 123, Type (0, 1), BuildingBlock: KIFKEQ_clean_linker_1, # of connection points: 2
#     Edge 124, Type (0, 1), BuildingBlock: KIFKEQ_clean_linker_1, # of connection points: 2
#     Edge 125, Type (0, 1), BuildingBlock: KIFKEQ_clean_linker_1, # of connection points: 2
#     Edge 126, Type (0, 1), BuildingBlock: KIFKEQ_clean_linker_1, # of connection points: 2
#     Edge 127, Type (0, 1), BuildingBlock: KIFKEQ_clean_linker_1, # of connection points: 2
#     Edge 128, Type (0, 1), BuildingBlock: KIFKEQ_clean_linker_1, # of connection points: 2
#     Edge 129, Type (0, 1), BuildingBlock: KIFKEQ_clean_linker_1, # of connection points: 2
#     Edge 130, Type (0, 1), BuildingBlock: KIFKEQ_clean_linker_1, # of connection points: 2
#     Edge 131, Type (0, 1), BuildingBlock: KIFKEQ_clean_linker_1, # of connection points: 2
#     Edge 132, Type (0, 1), BuildingBlock: KIFKEQ_clean_linker_1, # of connection points: 2
#     Edge 133, Type (0, 1), BuildingBlock: KIFKEQ_clean_linker_1, # of connection points: 2
#     Edge 134, Type (0, 1), BuildingBlock: KIFKEQ_clean_linker_1, # of connection points: 2
#     Edge 135, Type (0, 1), BuildingBlock: KIFKEQ_clean_linker_1, # of connection points: 2
# Relax obj value: 0.222
# Max RMSD: 0.304
# Mean RMSD: 0.197
data_MOF--net-gar--node1-AZAVOO_clean_sbu_0--node2-BETDAH_clean_sbu_0--edge1-KIFKEQ_clean_linker_1
_symmetry_space_group_name_H-M    P1
_symmetry_Int_Tables_number       1
_symmetry_cell_setting            triclinic
loop_
_symmetry_equiv_pos_as_xyz
'x, y, z'
_cell_length_a     64.146247
_cell_length_b     56.662104
_cell_length_c     57.994525
_cell_angle_alpha  101.84856
_cell_angle_beta   94.9718
_cell_angle_gamma 104.3519
loop_
_atom_site_label
_atom_site_type_symbol
_atom_site_fract_x
_atom_site_fract_y
_atom_site_fract_z
_atom_type_partial_charge
Mg0 Mg 0.10515 0.31564 0.37275 0.0
O1 O 0.10641 0.35489 0.39619 0.0
O2 O 0.07219 0.35285 0.40368 0.0
Mg3 Mg 0.05754 0.31224 0.40232 0.0
C4 C 0.09172 0.3652 0.40338 0.0
C5 C 0.14366 0.33858 0.35118 0.0
O6 O 0.12778 0.34452 0.33997 0.0
O7 O 0.11347 0.29919 0.40403 0.0
O8 O 0.09147 0.31868 0.42013 0.0
O9 O 0.08703 0.32455 0.34269 0.0
O10 O 0.07083 0.30539 0.36859 0.0
C11 C 0.1009 0.30156 0.41951 0.0
C12 C 0.06944 0.31573 0.35092 0.0
O13 O 0.14019 0.32837 0.36846 0.0
Mg14 Mg 1.00197 0.77019 0.67296 0.0
O15 O 0.0088 0.73405 0.65192 0.0
O16 O 0.98 0.72038 0.62275 0.0
Mg17 Mg 0.95448 0.74214 0.62785 0.0
C18 C 0.99815 0.71884 0.63252 0.0
C19 C 0.05296 0.79145 0.70066 0.0
O20 O 0.06821 0.81199 0.71117 0.0
O21 O 0.0093 0.78649 0.64229 0.0
O22 O 0.97859 0.77388 0.61659 0.0
O23 O 0.98628 0.75271 0.69976 0.0
O24 O 0.96996 0.75287 0.66472 0.0
C25 C 0.99834 0.78693 0.62322 0.0
C26 C 0.9684 0.74816 0.68534 0.0
O27 O 0.035 0.79335 0.69175 0.0
Mg28 Mg 0.60309 0.8228 0.87245 0.0
O29 O 0.61342 0.86294 0.89372 0.0
O30 O 0.59667 0.85589 0.92415 0.0
Mg31 Mg 0.56204 0.83496 0.90711 0.0
C32 C 0.60942 0.87056 0.91453 0.0
C33 C 0.63594 0.81823 0.84304 0.0
O34 O 0.61687 0.8096 0.8296 0.0
O35 O 0.60629 0.80486 0.90398 0.0
O36 O 0.57274 0.80233 0.9138 0.0
O37 O 0.58856 0.8361 0.84292 0.0
O38 O 0.57191 0.82398 0.87209 0.0
C39 C 0.59009 0.79521 0.91362 0.0
C40 C 0.57146 0.83281 0.85345 0.0
O41 O 0.63679 0.82526 0.86535 0.0
Mg42 Mg 0.5 0.27002 0.17325 0.0
O43 O 0.50654 0.23458 0.15045 0.0
O44 O 0.47714 0.22109 0.12229 0.0
Mg45 Mg 0.45331 0.24467 0.12657 0.0
C46 C 0.49521 0.21901 0.1316 0.0
C47 C 0.55125 0.28883 0.2016 0.0
O48 O 0.56552 0.30904 0.21462 0.0
O49 O 0.5086 0.28965 0.14495 0.0
O50 O 0.4793 0.27608 0.11693 0.0
O51 O 0.48327 0.24927 0.1972 0.0
O52 O 0.46768 0.25452 0.16385 0.0
C53 C 0.49858 0.28978 0.12522 0.0
C54 C 0.46565 0.24641 0.18292 0.0
O55 O 0.53284 0.29054 0.19389 0.0
Mg56 Mg 0.09258 0.82858 0.13508 0.0
O57 O 0.08725 0.79244 0.10662 0.0
O58 O 0.05522 0.78333 0.08346 0.0
Mg59 Mg 0.03801 0.81294 0.09767 0.0
C60 C 0.07315 0.77863 0.08913 0.0
C61 C 0.1336 0.82332 0.16669 0.0
O62 O 0.11798 0.82191 0.17999 0.0
O63 O 0.09742 0.85463 0.10726 0.0
O64 O 0.06325 0.84355 0.08798 0.0
O65 O 0.07312 0.80623 0.15864 0.0
O66 O 0.05809 0.82246 0.13278 0.0
C67 C 0.08289 0.85697 0.09162 0.0
C68 C 0.05567 0.8096 0.14857 0.0
O69 O 0.12948 0.82739 0.146 0.0
Mg70 Mg 0.51171 0.76056 0.40081 0.0
O71 O 0.51795 0.79664 0.42973 0.0
O72 O 0.48991 0.79322 0.45026 0.0
Mg73 Mg 0.4656 0.75495 0.43364 0.0
C74 C 0.50823 0.80557 0.44628 0.0
C75 C 0.55652 0.78962 0.38786 0.0
O76 O 0.54435 0.80374 0.38229 0.0
O77 O 0.51918 0.73844 0.42798 0.0
O78 O 0.48975 0.73386 0.44619 0.0
O79 O 0.49529 0.77825 0.37633 0.0
O80 O 0.47716 0.75549 0.39842 0.0
C81 C 0.50816 0.7297 0.44312 0.0
C82 C 0.47699 0.76967 0.38353 0.0
O83 O 0.54799 0.77087 0.39608 0.0
Mg84 Mg 0.59429 0.3272 0.63487 0.0
O85 O 0.58728 0.29103 0.60528 0.0
O86 O 0.55324 0.28351 0.58713 0.0
Mg87 Mg 0.53819 0.31495 0.60133 0.0
C88 C 0.57102 0.27749 0.58994 0.0
C89 C 0.63546 0.32216 0.66642 0.0
O90 O 0.62004 0.32228 0.67991 0.0
O91 O 0.59849 0.35373 0.6071 0.0
O92 O 0.56367 0.3438 0.58994 0.0
O93 O 0.57424 0.30492 0.65877 0.0
O94 O 0.56024 0.32343 0.63446 0.0
C95 C 0.58346 0.35645 0.59225 0.0
C96 C 0.55732 0.31021 0.64982 0.0
O97 O 0.63117 0.32485 0.64519 0.0
Mg98 Mg 0.01231 0.26243 0.9023 0.0
O99 O 0.01616 0.29794 0.9319 0.0
O100 O 0.98533 0.29154 0.94786 0.0
Mg101 Mg 0.96329 0.25225 0.93064 0.0
C102 C 1.00397 0.30539 0.94645 0.0
C103 C 0.05656 0.29107 0.88832 0.0
O104 O 0.04331 0.30247 0.87962 0.0
O105 O 0.01947 0.24027 0.92964 0.0
O106 O 0.98825 0.23285 0.94454 0.0
O107 O 0.99589 0.27975 0.8771 0.0
O108 O 0.97741 0.25529 0.8975 0.0
C109 C 0.0074 0.23018 0.94331 0.0
C110 C 0.97731 0.2699 0.88308 0.0
O111 O 0.04896 0.27418 0.89918 0.0
Mg112 Mg 0.45806 0.05559 0.30215 0.0
O113 O 0.43235 0.01921 0.2871 0.0
O114 O 0.40778 0.01173 0.31162 0.0
Mg115 Mg 0.41794 0.04514 0.34326 0.0
C116 C 0.41508 1.00608 0.29207 0.0
C117 C 0.46889 0.02797 0.25884 0.0
O118 O 0.47069 0.01499 0.27484 0.0
O119 O 0.43358 0.07381 0.29237 0.0
O120 O 0.40846 0.06637 0.3164 0.0
O121 O 0.47722 0.03622 0.31937 0.0
O122 O 0.4518 0.05197 0.33548 0.0
C123 C 0.41551 0.07513 0.2991 0.0
C124 C 0.46455 0.03755 0.33547 0.0
O125 O 0.46702 0.05009 0.26535 0.0
Mg126 Mg 0.28749 0.1835 0.49295 0.0
O127 O 0.29027 0.21108 0.52913 0.0
O128 O 0.32322 0.2383 0.5377 0.0
Mg129 Mg 0.34257 0.22787 0.50727 0.0
C130 C 0.30439 0.22967 0.54307 0.0
C131 C 0.24221 0.1543 0.50582 0.0
O132 O 0.25658 0.14908 0.5201 0.0
O133 O 0.28644 0.2127 0.4694 0.0
O134 O 0.32089 0.23669 0.47848 0.0
O135 O 0.30257 0.15929 0.51239 0.0
O136 O 0.32171 0.18889 0.4975 0.0
C137 C 0.30198 0.23059 0.46629 0.0
C138 C 0.32137 0.17164 0.50883 0.0
O139 O 0.24928 0.16865 0.49212 0.0
Mg140 Mg 0.16123 0.01099 0.77496 0.0
O141 O 0.18625 0.05175 0.77659 0.0
O142 O 0.20997 0.06191 0.80948 0.0
Mg143 Mg 0.20005 0.02857 0.82911 0.0
C144 C 0.20283 0.06736 0.79051 0.0
C145 C 0.12765 1.00803 0.7249 0.0
O146 O 0.11298 1.00178 0.73864 0.0
O147 O 0.18637 0.98284 0.76804 0.0
O148 O 0.20836 0.9949 0.80276 0.0
O149 O 0.13784 0.0273 0.79936 0.0
O150 O 0.16359 0.01518 0.81541 0.0
C151 C 0.20207 0.97986 0.78209 0.0
C152 C 0.1469 0.02381 0.81865 0.0
O153 O 0.14781 0.01142 0.73335 0.0
Mg154 Mg 0.31996 0.94633 0.02395 0.0
O155 O 0.32224 0.91976 0.98838 0.0
O156 O 0.35252 0.90626 0.99186 0.0
Mg157 Mg 0.3703 0.92014 0.02973 0.0
C158 C 0.33526 0.90744 0.97975 0.0
C159 C 0.28862 0.97112 0.02623 0.0
O160 O 0.30634 0.98341 0.04135 0.0
O161 O 0.30376 0.91302 0.03985 0.0
O162 O 0.33627 0.9166 0.03253 0.0
O163 O 0.34292 0.97784 0.01501 0.0
O164 O 0.35369 0.95113 0.03346 0.0
C165 C 0.3208 0.90578 0.04171 0.0
C166 C 0.35837 0.97005 0.02397 0.0
O167 O 0.28831 0.95084 0.01189 0.0
Mg168 Mg 0.31915 0.4018 0.04489 0.0
O169 O 0.31427 0.37162 0.00948 0.0
O170 O 0.34149 0.35379 0.01151 0.0
Mg171 Mg 0.36317 0.37153 0.04777 0.0
C172 C 0.32457 0.35632 1.00006 0.0
C173 C 0.28147 0.42033 0.02328 0.0
O174 O 0.29857 0.43261 0.01554 0.0
O175 O 0.30887 0.37434 0.06947 0.0
O176 O 0.33724 0.35812 0.0712 0.0
O177 O 0.34059 0.42899 0.02756 0.0
O178 O 0.35335 0.40659 0.04921 0.0
C179 C 0.31918 0.36045 0.07774 0.0
C180 C 0.35702 0.42244 0.03602 0.0
O181 O 0.284 0.40528 0.0362 0.0
Mg182 Mg 0.7722 0.12487 0.02352 0.0
O183 O 0.78134 0.14989 0.06063 0.0
O184 O 0.81077 0.18033 0.0591 0.0
Mg185 Mg 0.82581 0.16936 0.02562 0.0
C186 C 0.79534 0.17076 0.06968 0.0
C187 C 0.7435 0.08755 0.97803 0.0
O188 O 0.73891 0.07203 0.95695 0.0
O189 O 0.76546 0.15714 0.00955 0.0
O190 O 0.79866 0.17795 1.00428 0.0
O191 O 0.7923 0.09873 0.03243 0.0
O192 O 0.80473 0.13126 0.01829 0.0
C193 C 0.77798 0.1734 1.00106 0.0
C194 C 0.80808 0.11238 0.02483 0.0
O195 O 0.76298 0.10028 0.98587 0.0
Mg196 Mg 0.15626 0.53829 0.24794 0.0
O197 O 0.17685 0.5775 0.25254 0.0
O198 O 0.19173 0.59311 0.29074 0.0
Mg199 Mg 0.17982 0.56365 0.31086 0.0
C200 C 0.18852 0.59515 0.26933 0.0
C201 C 0.13797 0.53396 0.19875 0.0
O202 O 0.12142 0.53252 0.21065 0.0
O203 O 0.18662 0.52595 0.2503 0.0
O204 O 0.19979 0.54258 0.28878 0.0
O205 O 0.12875 0.55434 0.25589 0.0
O206 O 0.15162 0.54736 0.28303 0.0
C207 C 0.2013 0.53067 0.26808 0.0
C208 C 0.13642 0.55736 0.27791 0.0
O209 O 0.15631 0.53449 0.20892 0.0
Mg210 Mg 0.81892 0.90086 0.54385 0.0
O211 O 0.81511 0.87191 0.50807 0.0
O212 O 0.8447 0.85794 0.50994 0.0
Mg213 Mg 0.86609 0.87501 0.54626 0.0
C214 C 0.82694 0.85857 0.49867 0.0
C215 C 0.78235 0.92498 0.53458 0.0
O216 O 0.80035 0.94333 0.54135 0.0
O217 O 0.80929 0.87119 0.56665 0.0
O218 O 0.84054 0.86069 0.56932 0.0
O219 O 0.83954 0.93082 0.52831 0.0
O220 O 0.85368 0.908 0.54798 0.0
C221 C 0.82181 0.85986 0.5756 0.0
C222 C 0.85667 0.92506 0.53607 0.0
O223 O 0.78351 0.90279 0.53419 0.0
Mg224 Mg 0.94317 0.07385 0.266 0.0
O225 O 0.91686 0.03241 0.26233 0.0
O226 O 0.90125 0.03773 0.29534 0.0
Mg227 Mg 0.91586 0.07748 0.32034 0.0
C228 C 0.90347 0.0235 0.276 0.0
C229 C 0.97215 0.06874 0.21851 0.0
O230 O 0.98763 0.07451 0.23675 0.0
O231 O 0.91743 0.1012 0.2625 0.0
O232 O 0.90386 0.10222 0.29669 0.0
O233 O 0.96856 0.06006 0.28808 0.0
O234 O 0.94694 0.07905 0.30568 0.0
C235 C 0.90537 0.1098 0.27737 0.0
C236 C 0.96202 0.06795 0.30792 0.0
O237 O 0.95242 0.06669 0.22343 0.0
Mg238 Mg 0.27172 0.62503 0.52293 0.0
O239 O 0.2816 0.65097 0.55982 0.0
O240 O 0.31411 0.67713 0.5599 0.0
Mg241 Mg 0.32693 0.66645 0.525 0.0
C242 C 0.29759 0.66971 0.56995 0.0
C243 C 0.24234 0.59153 0.47684 0.0
O244 O 0.23666 0.57913 0.4545 0.0
O245 O 0.26583 0.65712 0.50852 0.0
O246 O 0.29992 0.67777 0.50606 0.0
O247 O 0.29037 0.59779 0.53235 0.0
O248 O 0.30414 0.62944 0.51743 0.0
C249 C 0.27935 0.67405 0.50177 0.0
C250 C 0.30657 0.61053 0.5246 0.0
O251 O 0.26226 0.60091 0.48524 0.0
Mg252 Mg 0.44256 0.57325 0.76558 0.0
O253 O 0.417 0.53174 0.76232 0.0
O254 O 0.39964 0.53682 0.79411 0.0
Mg255 Mg 0.41435 0.57683 0.81935 0.0
C256 C 0.40295 0.52269 0.77526 0.0
C257 C 0.47186 0.57323 0.71847 0.0
O258 O 0.48683 0.58545 0.73685 0.0
O259 O 0.41623 0.59976 0.76154 0.0
O260 O 0.40351 0.60304 0.79637 0.0
O261 O 0.46888 0.56142 0.78832 0.0
O262 O 0.44569 0.5782 0.8052 0.0
C263 C 0.40489 0.60961 0.77656 0.0
C264 C 0.46163 0.56845 0.80791 0.0
O265 O 0.45213 0.56559 0.72313 0.0
Mg266 Mg 0.65564 0.03565 0.74281 0.0
O267 O 0.67507 0.07558 0.75269 0.0
O268 O 0.68361 0.09083 0.79188 0.0
Mg269 Mg 0.67182 0.05677 0.80702 0.0
C270 C 0.68375 0.0935 0.7706 0.0
C271 C 0.63931 0.0307 0.69618 0.0
O272 O 0.62496 0.01676 0.70617 0.0
O273 O 0.68657 0.02507 0.74756 0.0
O274 O 0.69578 0.04011 0.78695 0.0
O275 O 0.62654 0.04928 0.74883 0.0
O276 O 0.64679 0.03852 0.7759 0.0
C277 C 0.69976 0.02984 0.76668 0.0
C278 C 0.63138 0.0481 0.77058 0.0
O279 O 0.65894 0.03784 0.7057 0.0
Mg280 Mg 0.78656 0.68521 0.99343 0.0
O281 O 0.79088 0.71443 0.02913 0.0
O282 O 0.82538 0.73776 0.03606 0.0
Mg283 Mg 0.84301 0.72623 1.00465 0.0
C284 C 0.80659 0.73171 0.04242 0.0
C285 C 0.7417 0.65318 1.00333 0.0
O286 O 0.75619 0.6434 0.01217 0.0
O287 O 0.7859 0.71382 0.96921 0.0
O288 O 0.82092 0.73603 0.97688 0.0
O289 O 0.80083 0.66094 0.01348 0.0
O290 O 0.82055 0.6885 0.99683 0.0
C291 C 0.80178 0.73092 0.96547 0.0
C292 C 0.81972 0.67206 0.00919 0.0
O293 O 0.7485 0.67174 0.99394 0.0
Mg294 Mg 0.95909 0.55386 0.79344 0.0
O295 O 0.93931 0.51425 0.77348 0.0
O296 O 0.91689 0.50273 0.79943 0.0
Mg297 Mg 0.92154 0.53174 0.83374 0.0
C298 C 0.92398 0.4986 0.7795 0.0
C299 C 0.97322 0.55249 0.741 0.0
O300 O 0.98241 0.56436 0.72573 0.0
O301 O 0.92974 0.56606 0.78498 0.0
O302 O 0.90784 0.55428 0.81113 0.0
O303 O 0.98304 0.53821 0.80965 0.0
O304 O 0.95373 0.54473 0.82471 0.0
C305 C 0.91212 0.56449 0.79381 0.0
C306 C 0.97007 0.53552 0.82547 0.0
O307 O 0.97263 0.56497 0.76156 0.0
Mg308 Mg 0.81904 0.44513 0.5206 0.0
O309 O 0.8233 0.42123 0.48489 0.0
O310 O 0.85702 0.41603 0.48834 0.0
Mg311 Mg 0.86484 0.41932 0.52747 0.0
C312 C 0.83901 0.41428 0.47589 0.0
C313 C 0.786 0.46559 0.52556 0.0
O314 O 0.80282 0.47552 0.54247 0.0
O315 O 0.80349 0.41194 0.53566 0.0
O316 O 0.8293 0.39895 0.52073 0.0
O317 O 0.84102 0.47714 0.51193 0.0
O318 O 0.85156 0.45212 0.5329 0.0
C319 C 0.81676 0.39886 0.53634 0.0
C320 C 0.85637 0.47031 0.52248 0.0
O321 O 0.78695 0.44867 0.50787 0.0
Mg322 Mg 0.66166 0.51069 0.27483 0.0
O323 O 0.68648 0.55219 0.27734 0.0
O324 O 0.71055 0.56006 0.30959 0.0
Mg325 Mg 0.69994 0.52742 0.32974 0.0
C326 C 0.70354 0.56683 0.29131 0.0
C327 C 0.62927 0.50805 0.22392 0.0
O328 O 0.61411 0.50412 0.2376 0.0
O329 O 0.68684 0.48263 0.2683 0.0
O330 O 0.70806 0.49379 0.30345 0.0
O331 O 0.63727 0.52566 0.29887 0.0
O332 O 0.66382 0.51515 0.31522 0.0
C333 C 0.70211 0.47918 0.28256 0.0
C334 C 0.64672 0.52298 0.31833 0.0
O335 O 0.64903 0.50998 0.23274 0.0
Ho336 Ho 0.03 0.02925 0.99821 0.0
Ho337 Ho 0.07236 0.05837 0.02835 0.0
C338 C 0.04593 0.09 1.00564 0.0
C339 C 0.98884 0.01492 0.98291 0.0
C340 C 0.97197 0.02832 0.98527 0.0
C341 C 0.97381 0.04819 1.00504 0.0
C342 C 0.95762 0.06076 0.007 0.0
C343 C 0.93963 0.05378 0.98909 0.0
C344 C 0.93833 0.03483 0.96881 0.0
C345 C 0.95448 0.02223 0.96687 0.0
C346 C 0.06089 0.02894 0.96713 0.0
C347 C 0.05585 0.99785 0.023 0.0
C348 C 0.11341 0.07384 0.0429 0.0
C349 C 0.12827 0.05834 0.0441 0.0
C350 C 0.12324 0.03448 0.02867 0.0
C351 C 0.13684 0.01913 0.03015 0.0
C352 C 0.15579 0.02766 0.04682 0.0
C353 C 0.16013 0.05082 0.06327 0.0
C354 C 0.14632 0.06613 0.06194 0.0
C355 C 0.0421 0.05817 0.05964 0.0
O356 O 0.02989 0.0692 1.00008 0.0
O357 O 0.06516 0.09078 0.01614 0.0
O358 O 1.00349 0.02332 0.97022 0.0
O359 O 0.99726 0.0102 1.00228 0.0
O360 O 0.04047 0.01704 0.96233 0.0
O361 O 0.06436 0.03936 0.98959 0.0
O362 O 0.07183 0.0187 0.02973 0.0
O363 O 0.03709 0.99685 0.01099 0.0
O364 O 0.099 0.07094 0.05727 0.0
O365 O 0.10499 0.07369 0.02149 0.0
O366 O 0.06249 0.07008 0.06432 0.0
O367 O 0.03807 0.04781 0.03714 0.0
H368 H 0.98754 0.05368 0.0191 0.0
H369 H 0.95871 0.07524 0.02285 0.0
H370 H 0.92444 0.02921 0.95492 0.0
H371 H 0.95314 1.00743 0.95121 0.0
H372 H 0.10909 0.02793 0.01508 0.0
H373 H 0.13326 1.00121 0.01743 0.0
H374 H 0.17483 0.0577 0.07614 0.0
H375 H 0.14995 0.0842 0.0744 0.0
Ho376 Ho 0.31671 0.78946 0.24646 0.0
Ho377 Ho 0.29726 0.79677 0.29002 0.0
C378 C 0.32792 0.84337 0.27984 0.0
C379 C 0.32365 0.78908 0.20371 0.0
C380 C 0.33656 0.80919 0.19441 0.0
C381 C 0.32775 0.82852 0.19029 0.0
C382 C 0.33976 0.8476 0.18144 0.0
C383 C 0.36073 0.8476 0.1762 0.0
C384 C 0.37008 0.82914 0.1816 0.0
C385 C 0.35803 0.80997 0.19065 0.0
C386 C 0.34843 0.79076 0.28198 0.0
C387 C 0.29812 0.74167 0.26245 0.0
C388 C 0.27705 0.79472 0.32631 0.0
C389 C 0.26953 0.77633 0.34005 0.0
C390 C 0.28178 0.76016 0.34493 0.0
C391 C 0.27376 0.74245 0.35774 0.0
C392 C 0.25333 0.74062 0.36546 0.0
C393 C 0.24078 0.75609 0.35952 0.0
C394 C 0.24888 0.7739 0.34694 0.0
C395 C 0.27418 0.80526 0.2524 0.0
O396 O 0.32327 0.83045 0.25768 0.0
O397 O 0.32179 0.8337 0.29768 0.0
O398 O 0.33452 0.77956 0.21771 0.0
O399 O 0.30605 0.79308 0.21159 0.0
O400 O 0.35064 0.78901 0.25984 0.0
O401 O 0.32957 0.79296 0.28475 0.0
O402 O 0.29758 0.75641 0.28307 0.0
O403 O 0.30211 0.75021 0.24369 0.0
O404 O 0.26732 0.78832 0.30441 0.0
O405 O 0.29804 0.80464 0.32827 0.0
O406 O 0.28065 0.82051 0.27308 0.0
O407 O 0.28222 0.78672 0.25187 0.0
H408 H 0.3113 0.82861 0.19318 0.0
H409 H 0.33181 0.86113 0.17681 0.0
H410 H 0.38611 0.82866 0.17736 0.0
H411 H 0.36527 0.79543 0.19404 0.0
H412 H 0.29757 0.76144 0.33918 0.0
H413 H 0.28391 0.73097 0.36242 0.0
H414 H 0.22494 0.75484 0.36514 0.0
H415 H 0.23906 0.78591 0.34268 0.0
Ho416 Ho 0.57561 0.04661 0.51376 0.0
Ho417 Ho 0.52747 0.04277 0.52556 0.0
C418 C 0.54031 0.99181 0.50921 0.0
C419 C 0.61433 0.04095 0.51246 0.0
C420 C 0.62499 0.02034 0.50709 0.0
C421 C 0.62624 1.00464 0.52277 0.0
C422 C 0.63918 0.98796 0.51934 0.0
C423 C 0.65118 0.98647 0.50011 0.0
C424 C 0.64859 1.0009 0.4835 0.0
C425 C 0.63582 0.01774 0.48706 0.0
C426 C 0.54606 0.04549 0.47816 0.0
C427 C 0.56153 0.09637 0.52604 0.0
C428 C 0.48981 0.04958 0.53298 0.0
C429 C 0.47714 0.06821 0.53304 0.0
C430 C 0.47452 0.0789 0.51353 0.0
C431 C 0.46027 0.09402 0.51299 0.0
C432 C 0.44835 0.09881 0.53191 0.0
C433 C 0.45197 0.0892 0.55196 0.0
C434 C 0.46617 0.07403 0.55246 0.0
C435 C 0.55743 0.04224 0.55987 0.0
O436 O 0.56078 1.00556 0.51174 0.0
O437 O 0.52366 1.00172 0.51163 0.0
O438 O 0.60298 0.04507 0.49457 0.0
O439 O 0.60529 0.0434 0.53189 0.0
O440 O 0.56654 0.05697 0.47963 0.0
O441 O 0.54299 0.03371 0.49416 0.0
O442 O 0.54118 0.08194 0.52079 0.0
O443 O 0.57844 0.08708 0.52794 0.0
O444 O 0.50641 0.05534 0.54978 0.0
O445 O 0.49365 0.03806 0.51248 0.0
O446 O 0.53716 0.0301 0.558 0.0
O447 O 0.5602 0.05552 0.54509 0.0
H448 H 0.618 1.00598 0.53832 0.0
H449 H 0.64075 0.97735 0.53263 0.0
H450 H 0.65706 0.99987 0.46812 0.0
H451 H 0.63507 0.02944 0.47457 0.0
H452 H 0.48299 0.07502 0.49842 0.0
H453 H 0.45822 0.10155 0.49748 0.0
H454 H 0.44306 0.09238 0.5668 0.0
H455 H 0.46798 0.06608 0.56774 0.0
Ho456 Ho 0.2817 0.29593 0.76857 0.0
Ho457 Ho 0.32777 0.28358 0.76987 0.0
C458 C 0.31108 0.30298 0.81974 0.0
C459 C 0.24126 0.2921 0.77291 0.0
C460 C 0.22851 0.29816 0.79242 0.0
C461 C 0.22031 0.28033 0.80539 0.0
C462 C 0.20599 0.28469 0.82163 0.0
C463 C 0.1994 0.30689 0.82518 0.0
C464 C 0.2086 0.32534 0.81325 0.0
C465 C 0.22293 0.321 0.79701 0.0
C466 C 0.31393 0.33931 0.76917 0.0
C467 C 0.29822 0.27702 0.71891 0.0
C468 C 0.36836 0.28665 0.76595 0.0
C469 C 0.3825 0.28323 0.74713 0.0
C470 C 0.38688 0.29993 0.73213 0.0
C471 C 0.40283 0.29887 0.71719 0.0
C472 C 0.4149 0.28117 0.71687 0.0
C473 C 0.40945 0.26337 0.73063 0.0
C474 C 0.39351 0.26447 0.74564 0.0
C475 C 0.29482 0.24058 0.76976 0.0
O476 O 0.29242 0.30242 0.80764 0.0
O477 O 0.32766 0.29787 0.80932 0.0
O478 O 0.25377 0.31086 0.76641 0.0
O479 O 0.25034 0.27388 0.77323 0.0
O480 O 0.29327 0.3371 0.76865 0.0
O481 O 0.31617 0.31746 0.76959 0.0
O482 O 0.31704 0.27754 0.73066 0.0
O483 O 0.28169 0.28191 0.72937 0.0
O484 O 0.35468 0.26661 0.76899 0.0
O485 O 0.36011 0.30578 0.76819 0.0
O486 O 0.31537 0.24208 0.77006 0.0
O487 O 0.29346 0.26266 0.7693 0.0
H488 H 0.22423 0.26252 0.80233 0.0
H489 H 0.19911 0.27 0.83035 0.0
H490 H 0.20413 0.34282 0.81586 0.0
H491 H 0.22902 0.3352 0.78744 0.0
H492 H 0.37858 0.31446 0.73255 0.0
H493 H 0.40623 0.31252 0.70643 0.0
H494 H 0.41836 0.24948 0.73088 0.0
H495 H 0.39047 0.25129 0.75691 0.0
Ho496 Ho 0.04406 0.0649 0.52857 0.0
Ho497 Ho 0.05058 0.01882 0.5061 0.0
C498 C 0.03043 0.04515 0.46982 0.0
C499 C 0.042 0.11051 0.53831 0.0
C500 C 0.04118 0.12693 0.52207 0.0
C501 C 0.05204 0.1246 0.50205 0.0
C502 C 0.0521 0.14086 0.48711 0.0
C503 C 0.04136 0.15958 0.49208 0.0
C504 C 0.02946 0.16108 0.51122 0.0
C505 C 0.02924 0.14461 0.52612 0.0
C506 C 0.01059 0.02593 0.53133 0.0
C507 C 0.06437 0.03854 0.56457 0.0
C508 C 0.0522 0.97303 0.4971 0.0
C509 C 0.05354 0.95665 0.51339 0.0
C510 C 0.04207 0.95755 0.53303 0.0
C511 C 0.04267 0.94105 0.54773 0.0
C512 C 0.05469 0.92351 0.54289 0.0
C513 C 0.06714 0.92363 0.52418 0.0
C514 C 0.06666 0.94024 0.50957 0.0
C515 C 0.08408 0.05818 0.50379 0.0
O516 O 0.03608 0.06437 0.48876 0.0
O517 O 0.03306 0.02329 0.47217 0.0
O518 O 0.02492 0.09146 0.53512 0.0
O519 O 0.06022 0.10434 0.5411 0.0
O520 O 0.01946 0.04542 0.54856 0.0
O521 O 0.01997 0.02806 0.51321 0.0
O522 O 0.05867 0.01926 0.54577 0.0
O523 O 0.06179 0.06041 0.56232 0.0
O524 O 0.06933 0.99184 0.49931 0.0
O525 O 0.03403 0.97938 0.49482 0.0
O526 O 0.07514 0.03901 0.48622 0.0
O527 O 0.0747 0.05553 0.52182 0.0
H528 H 0.06117 0.11086 0.49843 0.0
H529 H 0.06167 0.13988 0.4726 0.0
H530 H 0.0214 0.17581 0.51534 0.0
H531 H 0.02045 0.14623 0.54124 0.0
H532 H 0.0321 0.97041 0.53658 0.0
H533 H 0.03276 0.94096 0.56195 0.0
H534 H 0.07647 0.91013 0.52029 0.0
H535 H 0.07598 0.93975 0.49486 0.0
Ho536 Ho 0.32075 0.80959 0.76948 0.0
Ho537 Ho 0.28045 0.77316 0.77284 0.0
C538 C 0.32338 0.75206 0.77458 0.0
C539 C 0.36014 0.83632 0.77505 0.0
C540 C 0.38022 0.82918 0.77958 0.0
C541 C 0.38377 0.81848 0.79892 0.0
C542 C 0.4033 0.81279 0.80366 0.0
C543 C 0.41931 0.81743 0.78898 0.0
C544 C 0.41518 0.82621 0.76866 0.0
C545 C 0.39569 0.83218 0.76403 0.0
C546 C 0.2982 0.78144 0.7275 0.0
C547 C 0.2786 0.83158 0.76904 0.0
C548 C 0.2414 0.74483 0.76373 0.0
C549 C 0.22028 0.74966 0.75861 0.0
C550 C 0.21585 0.76012 0.73936 0.0
C551 C 0.195 0.76206 0.7332 0.0
C552 C 0.1785 0.75393 0.74641 0.0
C553 C 0.18336 0.74546 0.76677 0.0
C554 C 0.20414 0.74316 0.77274 0.0
C555 C 0.30303 0.79865 0.81521 0.0
O556 O 0.33396 0.77627 0.77705 0.0
O557 O 0.30169 0.74559 0.771 0.0
O558 O 0.34879 0.82576 0.75403 0.0
O559 O 0.34819 0.83674 0.79218 0.0
O560 O 0.30711 0.80535 0.73118 0.0
O561 O 0.30184 0.77437 0.74614 0.0
O562 O 0.26774 0.80756 0.76725 0.0
O563 O 0.30021 0.83758 0.77148 0.0
O564 O 0.25155 0.75447 0.78547 0.0
O565 O 0.25424 0.74718 0.7475 0.0
O566 O 0.29243 0.77511 0.81065 0.0
O567 O 0.30014 0.80765 0.79743 0.0
H568 H 0.37182 0.81525 0.81084 0.0
H569 H 0.40644 0.80615 0.81952 0.0
H570 H 0.4276 0.83015 0.75739 0.0
H571 H 0.39298 0.83987 0.74875 0.0
H572 H 0.22821 0.76599 0.72854 0.0
H573 H 0.19155 0.76906 0.71766 0.0
H574 H 0.17078 0.73924 0.77722 0.0
H575 H 0.20741 0.73551 0.7879 0.0
Ho576 Ho 0.56216 0.04208 0.04671 0.0
Ho577 Ho 0.55524 0.04921 0.99749 0.0
C578 C 0.51483 0.01905 0.01392 0.0
C579 C 0.5557 0.03295 0.08707 0.0
C580 C 0.53708 0.01465 0.09203 0.0
C581 C 0.51624 0.01855 0.09065 0.0
C582 C 0.49925 1.00216 0.09749 0.0
C583 C 0.50297 0.98184 0.10597 0.0
C584 C 0.52276 0.97582 0.10368 0.0
C585 C 0.53986 0.9924 0.09718 0.0
C586 C 0.5728 1.00912 0.01322 0.0
C587 C 0.60259 0.07384 0.03112 0.0
C588 C 0.55937 0.05253 0.95471 0.0
C589 C 0.5764 0.06814 0.94507 0.0
C590 C 0.59849 0.07208 0.95347 0.0
C591 C 0.61446 0.08679 0.94365 0.0
C592 C 0.60849 0.09743 0.92511 0.0
C593 C 0.58627 0.0947 0.91802 0.0
C594 C 0.5704 0.08019 0.92796 0.0
C595 C 0.54373 0.08248 0.03018 0.0
O596 O 0.52605 0.0274 0.03544 0.0
O597 O 0.52349 0.02195 0.99471 0.0
O598 O 0.56856 0.02326 0.07417 0.0
O599 O 0.55171 0.05249 0.0808 0.0
O600 O 0.5844 0.01914 0.03389 0.0
O601 O 0.55604 0.01659 0.01138 0.0
O602 O 0.59122 0.06586 0.00953 0.0
O603 O 0.594 0.0699 0.05026 0.0
O604 O 0.54823 0.06487 0.96785 0.0
O605 O 0.56466 0.03507 0.96372 0.0
O606 O 0.53352 0.07321 0.00871 0.0
O607 O 0.5605 0.07497 0.03305 0.0
H608 H 0.51329 0.03495 0.08562 0.0
H609 H 0.48408 1.00717 0.09883 0.0
H610 H 0.52582 0.95996 0.10973 0.0
H611 H 0.55555 0.98846 0.09737 0.0
H612 H 0.60347 0.06326 0.96708 0.0
H613 H 0.63139 0.08864 0.94961 0.0
H614 H 0.5809 0.10213 0.90351 0.0
H615 H 0.5534 0.07771 0.9217 0.0
Ho616 Ho 0.3215 0.32644 0.28559 0.0
Ho617 Ho 0.30035 0.27103 0.26457 0.0
C618 C 0.26892 0.30446 0.27548 0.0
C619 C 0.33008 0.37397 0.3009 0.0
C620 C 0.31519 0.38958 0.30112 0.0
C621 C 0.29861 0.38439 0.28186 0.0
C622 C 0.28364 0.39836 0.28267 0.0
C623 C 0.28519 0.41771 0.30265 0.0
C624 C 0.30102 0.42203 0.32242 0.0
C625 C 0.31595 0.4079 0.32168 0.0
C626 C 0.31957 0.29651 0.31673 0.0
C627 C 0.35199 0.29475 0.26755 0.0
C628 C 0.29111 0.22385 0.2614 0.0
C629 C 0.30457 0.20685 0.25462 0.0
C630 C 0.32525 0.2112 0.2676 0.0
C631 C 0.338 0.19515 0.26118 0.0
C632 C 0.33043 0.17457 0.24156 0.0
C633 C 0.31024 0.17085 0.2279 0.0
C634 C 0.29736 0.18694 0.23442 0.0
C635 C 0.3044 0.29357 0.22724 0.0
O636 O 0.28601 0.3239 0.27773 0.0
O637 O 0.2704 0.28133 0.27205 0.0
O638 O 0.32611 0.35847 0.31477 0.0
O639 O 0.33388 0.36355 0.27992 0.0
O640 O 0.33672 0.31397 0.31588 0.0
O641 O 0.30473 0.29531 0.3004 0.0
O642 O 0.33623 0.27536 0.26903 0.0
O643 O 0.34954 0.31741 0.27019 0.0
O644 O 0.2841 0.23327 0.24445 0.0
O645 O 0.29832 0.24044 0.28162 0.0
O646 O 0.29581 0.26994 0.22542 0.0
O647 O 0.31027 0.30416 0.24914 0.0
H648 H 0.29731 0.36973 0.2661 0.0
H649 H 0.27166 0.39499 0.26713 0.0
H650 H 0.30236 0.43702 0.33793 0.0
H651 H 0.32824 0.41146 0.33695 0.0
H652 H 0.33151 0.22671 0.28301 0.0
H653 H 0.35333 0.19823 0.27234 0.0
H654 H 0.3042 0.15514 0.21263 0.0
H655 H 0.28169 0.18367 0.22388 0.0
Ho656 Ho 0.54468 0.56396 0.02868 0.0
Ho657 Ho 0.55074 0.51792 1.00471 0.0
C658 C 0.53024 0.54523 0.96963 0.0
C659 C 0.544 0.60999 0.04006 0.0
C660 C 0.54277 0.62681 0.02437 0.0
C661 C 0.55204 0.62377 1.00328 0.0
C662 C 0.5514 0.6399 0.98842 0.0
C663 C 0.54157 0.65939 0.99445 0.0
C664 C 0.53139 0.66176 0.01496 0.0
C665 C 0.53189 0.64536 0.02983 0.0
C666 C 0.51141 0.52499 0.03118 0.0
C667 C 0.56501 0.53619 0.06341 0.0
C668 C 0.55122 0.47177 0.99525 0.0
C669 C 0.5526 0.45556 0.01176 0.0
C670 C 0.54155 0.45708 0.03173 0.0
C671 C 0.54285 0.4415 0.04722 0.0
C672 C 0.55514 0.42417 0.0429 0.0
C673 C 0.56695 0.42346 0.02361 0.0
C674 C 0.56575 0.43916 0.00819 0.0
C675 C 0.58431 0.55753 1.00339 0.0
O676 O 0.53443 0.56361 0.98925 0.0
O677 O 0.53441 0.52378 0.97089 0.0
O678 O 0.52665 0.59138 0.03752 0.0
O679 O 0.56195 0.60303 0.04124 0.0
O680 O 0.52066 0.54404 0.04873 0.0
O681 O 0.5204 0.52745 0.01285 0.0
O682 O 0.55994 0.51764 0.04397 0.0
O683 O 0.56178 0.55803 0.06202 0.0
O684 O 0.5686 0.49014 0.99685 0.0
O685 O 0.5333 0.47873 0.99346 0.0
O686 O 0.57549 0.53877 0.98538 0.0
O687 O 0.57495 0.55418 0.02126 0.0
H688 H 0.56038 0.60939 0.99861 0.0
H689 H 0.55968 0.63797 0.9729 0.0
H690 H 0.52367 0.67669 0.01978 0.0
H691 H 0.52425 0.64749 0.04579 0.0
H692 H 0.53157 0.46995 0.03513 0.0
H693 H 0.53344 0.44214 0.06187 0.0
H694 H 0.57657 0.41022 0.0201 0.0
H695 H 0.57476 0.43817 0.99323 0.0
Ho696 Ho 0.82103 0.30999 0.26918 0.0
Ho697 Ho 0.78066 0.27242 0.27234 0.0
C698 C 0.82403 0.25215 0.27382 0.0
C699 C 0.86009 0.33803 0.27868 0.0
C700 C 0.88074 0.3318 0.28306 0.0
C701 C 0.88571 0.32322 0.30343 0.0
C702 C 0.90563 0.31828 0.30789 0.0
C703 C 0.92074 0.32163 0.29201 0.0
C704 C 0.91537 0.32867 0.27098 0.0
C705 C 0.89548 0.33389 0.26659 0.0
C706 C 0.79875 0.28235 0.22715 0.0
C707 C 0.77814 0.33071 0.26803 0.0
C708 C 0.74173 0.24392 0.26357 0.0
C709 C 0.72079 0.2492 0.25828 0.0
C710 C 0.71549 0.25588 0.23693 0.0
C711 C 0.69526 0.25969 0.23154 0.0
C712 C 0.67997 0.25687 0.24735 0.0
C713 C 0.68569 0.25171 0.26932 0.0
C714 C 0.706 0.24785 0.27474 0.0
C715 C 0.80282 0.29999 0.3141 0.0
O716 O 0.83442 0.27606 0.27449 0.0
O717 O 0.80241 0.24567 0.27205 0.0
O718 O 0.84974 0.32958 0.2569 0.0
O719 O 0.84725 0.33543 0.2949 0.0
O720 O 0.80853 0.30609 0.2308 0.0
O721 O 0.8022 0.2748 0.24562 0.0
O722 O 0.76752 0.30657 0.26638 0.0
O723 O 0.79977 0.33712 0.27058 0.0
O724 O 0.75194 0.25382 0.28526 0.0
O725 O 0.75462 0.24572 0.24731 0.0
O726 O 0.79341 0.27619 0.31067 0.0
O727 O 0.79927 0.30751 0.29567 0.0
H728 H 0.8745 0.32086 0.31625 0.0
H729 H 0.9096 0.31274 0.32418 0.0
H730 H 0.92701 0.33144 0.25864 0.0
H731 H 0.89182 0.34009 0.25062 0.0
H732 H 0.72669 0.25753 0.22403 0.0
H733 H 0.69117 0.2635 0.2144 0.0
H734 H 0.67421 0.24986 0.28191 0.0
H735 H 0.70996 0.24326 0.29153 0.0
Ho736 Ho 0.0607 0.54102 0.55225 0.0
Ho737 Ho 0.05562 0.54376 0.50098 0.0
C738 C 0.01398 0.51871 0.51805 0.0
C739 C 0.05262 0.53848 0.59439 0.0
C740 C 0.03504 0.52135 0.60264 0.0
C741 C 0.01682 0.52908 0.60932 0.0
C742 C 1.00077 0.51356 0.61841 0.0
C743 C 1.00271 0.49007 0.62119 0.0
C744 C 0.02025 0.48173 0.61318 0.0
C745 C 0.03626 0.4972 0.60398 0.0
C746 C 0.06848 0.50263 0.52151 0.0
C747 C 0.10266 0.56738 0.53481 0.0
C748 C 0.0613 0.54423 0.45792 0.0
C749 C 0.07564 0.56263 0.44794 0.0
C750 C 0.09259 0.55602 0.4369 0.0
C751 C 0.10603 0.57283 0.42658 0.0
C752 C 0.10252 0.59641 0.4269 0.0
C753 C 0.08658 0.60371 0.43951 0.0
C754 C 0.07319 0.58691 0.44998 0.0
C755 C 0.04592 0.58115 0.53094 0.0
O756 O 0.02481 0.52976 0.53953 0.0
O757 O 0.0239 0.51638 0.49919 0.0
O758 O 0.06688 0.52857 0.58426 0.0
O759 O 0.04683 0.55432 0.58338 0.0
O760 O 0.0793 0.51229 0.54263 0.0
O761 O 0.05357 0.51283 0.51827 0.0
O762 O 0.0917 0.55724 0.51322 0.0
O763 O 0.09335 0.56716 0.55417 0.0
O764 O 0.04521 0.55087 0.46732 0.0
O765 O 0.07135 0.53292 0.47082 0.0
O766 O 0.0362 0.57139 0.50937 0.0
O767 O 0.06164 0.57224 0.53503 0.0
H768 H 0.01529 0.54746 0.60824 0.0
H769 H 0.98759 0.52069 0.62472 0.0
H770 H 0.02205 0.46365 0.61498 0.0
H771 H 0.0499 0.49046 0.59859 0.0
H772 H 0.09499 0.53754 0.43557 0.0
H773 H 0.11797 0.56648 0.41668 0.0
H774 H 0.08362 0.62181 0.43995 0.0
H775 H 0.06054 0.59271 0.45896 0.0
Ho776 Ho 0.7808 0.79579 0.26734 0.0
Ho777 Ho 0.82755 0.78463 0.26969 0.0
C778 C 0.81005 0.80348 0.31874 0.0
C779 C 0.74031 0.79216 0.27112 0.0
C780 C 0.72762 0.79821 0.2906 0.0
C781 C 0.72742 0.78691 0.31006 0.0
C782 C 0.71322 0.79041 0.32667 0.0
C783 C 0.69898 0.80534 0.32424 0.0
C784 C 0.70031 0.81801 0.3057 0.0
C785 C 0.71443 0.8144 0.28903 0.0
C786 C 0.81302 0.83982 0.2693 0.0
C787 C 0.79799 0.77619 0.21822 0.0
C788 C 0.86825 0.78889 0.26564 0.0
C789 C 0.88226 0.78374 0.24705 0.0
C790 C 0.8879 0.79991 0.23173 0.0
C791 C 0.9036 0.79703 0.21677 0.0
C792 C 0.91419 0.77806 0.21688 0.0
C793 C 0.90772 0.76114 0.23128 0.0
C794 C 0.89199 0.76397 0.24619 0.0
C795 C 0.79488 0.74153 0.27032 0.0
O796 O 0.79088 0.80106 0.30653 0.0
O797 O 0.82723 0.80035 0.30851 0.0
O798 O 0.75304 0.81109 0.26511 0.0
O799 O 0.74919 0.77373 0.27122 0.0
O800 O 0.79229 0.83727 0.26836 0.0
O801 O 0.81526 0.81792 0.26934 0.0
O802 O 0.81669 0.77713 0.23051 0.0
O803 O 0.78131 0.78141 0.22823 0.0
O804 O 0.85562 0.76972 0.27144 0.0
O805 O 0.8589 0.80685 0.26512 0.0
O806 O 0.81566 0.74374 0.2723 0.0
O807 O 0.79335 0.76314 0.26828 0.0
H808 H 0.7377 0.7747 0.31208 0.0
H809 H 0.71293 0.78081 0.34102 0.0
H810 H 0.68957 0.8296 0.30323 0.0
H811 H 0.71443 0.82353 0.27434 0.0
H812 H 0.88084 0.81543 0.23192 0.0
H813 H 0.90826 0.81051 0.20605 0.0
H814 H 0.91529 0.74609 0.23154 0.0
H815 H 0.88804 0.75118 0.25772 0.0
Ho816 Ho 0.81819 0.29065 0.74528 0.0
Ho817 Ho 0.80057 0.29818 0.79618 0.0
C818 C 0.82388 0.34563 0.77786 0.0
C819 C 0.82591 0.29053 0.70308 0.0
C820 C 0.84189 0.30931 0.69517 0.0
C821 C 0.84169 0.33457 0.70069 0.0
C822 C 0.85436 0.35144 0.68981 0.0
C823 C 0.86722 0.34311 0.67323 0.0
C824 C 0.87038 0.31915 0.67126 0.0
C825 C 0.8574 0.3021 0.68187 0.0
C826 C 0.8499 0.29444 0.78245 0.0
C827 C 0.79392 0.24306 0.76193 0.0
C828 C 0.79506 0.29701 0.83911 0.0
C829 C 0.78057 0.27798 0.8486 0.0
C830 C 0.78633 0.25611 0.85088 0.0
C831 C 0.77318 0.23871 0.8609 0.0
C832 C 0.75408 0.2429 0.86895 0.0
C833 C 0.74761 0.26391 0.86535 0.0
C834 C 0.76077 0.28136 0.85525 0.0
C835 C 0.76873 0.29636 0.75978 0.0
O836 O 0.82168 0.3313 0.75629 0.0
O837 O 0.82008 0.33705 0.79709 0.0
O838 O 0.83403 0.27749 0.71584 0.0
O839 O 0.80954 0.29782 0.7113 0.0
O840 O 0.85293 0.29257 0.76047 0.0
O841 O 0.83048 0.29527 0.78273 0.0
O842 O 0.79488 0.25681 0.78363 0.0
O843 O 0.79919 0.25217 0.74348 0.0
O844 O 0.78563 0.30965 0.82704 0.0
O845 O 0.81094 0.29025 0.82929 0.0
O846 O 0.76678 0.29963 0.7822 0.0
O847 O 0.78763 0.29339 0.75851 0.0
H848 H 0.83059 0.34097 0.71192 0.0
H849 H 0.85173 0.36989 0.69198 0.0
H850 H 0.88066 0.31258 0.65899 0.0
H851 H 0.85845 0.28293 0.67836 0.0
H852 H 0.80136 0.25275 0.84569 0.0
H853 H 0.77878 0.22289 0.86386 0.0
H854 H 0.73293 0.26744 0.87145 0.0
H855 H 0.75578 0.29784 0.85331 0.0
Ho856 Ho 0.82119 0.82504 0.78341 0.0
Ho857 Ho 0.80165 0.77352 0.76105 0.0
C858 C 0.76937 0.8036 0.77536 0.0
C859 C 0.82935 0.87273 0.79818 0.0
C860 C 0.81411 0.88808 0.79941 0.0
C861 C 0.79659 0.88256 0.78109 0.0
C862 C 0.7821 0.89718 0.7823 0.0
C863 C 0.78505 0.91756 0.80178 0.0
C864 C 0.80172 0.92208 0.82079 0.0
C865 C 0.81619 0.90733 0.81961 0.0
C866 C 0.81913 0.79531 0.81498 0.0
C867 C 0.85359 0.79533 0.76964 0.0
C868 C 0.79282 0.72583 0.74551 0.0
C869 C 0.807 0.70932 0.7442 0.0
C870 C 0.82517 0.71467 0.76169 0.0
C871 C 0.8381 0.69826 0.76084 0.0
C872 C 0.83288 0.67649 0.74255 0.0
C873 C 0.81568 0.67196 0.72424 0.0
C874 C 0.80279 0.68848 0.72501 0.0
C875 C 0.80161 0.80295 0.72974 0.0
O876 O 0.78586 0.82285 0.77563 0.0
O877 O 0.77167 0.78092 0.77258 0.0
O878 O 0.8271 0.85764 0.81251 0.0
O879 O 0.83181 0.86196 0.7768 0.0
O880 O 0.83602 0.81318 0.81429 0.0
O881 O 0.80429 0.7936 0.79842 0.0
O882 O 0.8371 0.77632 0.77009 0.0
O883 O 0.85112 0.81782 0.7715 0.0
O884 O 0.79636 0.74138 0.73169 0.0
O885 O 0.79024 0.7364 0.76693 0.0
O886 O 0.78529 0.78481 0.73109 0.0
O887 O 0.81737 0.80507 0.74556 0.0
H888 H 0.79437 0.86739 0.76552 0.0
H889 H 0.76948 0.89349 0.76731 0.0
H890 H 0.80408 0.93766 0.83603 0.0
H891 H 0.82926 0.91128 0.83418 0.0
H892 H 0.82882 0.73088 0.77651 0.0
H893 H 0.85123 0.70165 0.77524 0.0
H894 H 0.81144 0.65492 0.71026 0.0
H895 H 0.78908 0.68451 0.71117 0.0
Ho896 Ho 0.52963 0.52865 0.49801 0.0
Ho897 Ho 0.57219 0.55739 0.52738 0.0
C898 C 0.54568 0.5894 0.50582 0.0
C899 C 0.48846 0.51476 0.48266 0.0
C900 C 0.47169 0.52821 0.48615 0.0
C901 C 0.47408 0.54753 0.50653 0.0
C902 C 0.45826 0.5605 0.50952 0.0
C903 C 0.44003 0.5546 0.49202 0.0
C904 C 0.43825 0.53628 0.47105 0.0
C905 C 0.45399 0.52311 0.46817 0.0
C906 C 0.56018 0.52809 0.46642 0.0
C907 C 0.55543 0.49724 0.52324 0.0
C908 C 0.61334 0.5729 0.54122 0.0
C909 C 0.62851 0.55803 0.54392 0.0
C910 C 0.6252 0.53443 0.52842 0.0
C911 C 0.63979 0.52037 0.53097 0.0
C912 C 0.65758 0.52975 0.54912 0.0
C913 C 0.66008 0.55242 0.56561 0.0
C914 C 0.64546 0.56653 0.56305 0.0
C915 C 0.54268 0.55841 0.5594 0.0
O916 O 0.52935 0.5689 0.50121 0.0
O917 O 0.56526 0.58953 0.51466 0.0
O918 O 0.50315 0.52422 0.47047 0.0
O919 O 0.49687 0.50877 0.50131 0.0
O920 O 0.53976 0.5162 0.46185 0.0
O921 O 0.56372 0.53845 0.48883 0.0
O922 O 0.57149 0.51802 0.52979 0.0
O923 O 0.53674 0.49624 0.51101 0.0
O924 O 0.59916 0.57149 0.55594 0.0
O925 O 0.60469 0.57099 0.51943 0.0
O926 O 0.56306 0.57033 0.56325 0.0
O927 O 0.53793 0.54755 0.53698 0.0
H928 H 0.48802 0.55236 0.52026 0.0
H929 H 0.45996 0.57474 0.52574 0.0
H930 H 0.42425 0.53143 0.4574 0.0
H931 H 0.45223 0.50874 0.45204 0.0
H932 H 0.61178 0.52723 0.51392 0.0
H933 H 0.63799 0.50299 0.51796 0.0
H934 H 0.67401 0.55985 0.5795 0.0
H935 H 0.64772 0.58434 0.57555 0.0
Ho936 Ho 0.0747 0.54706 0.01379 0.0
Ho937 Ho 0.02603 0.54384 0.02156 0.0
C938 C 0.03891 0.49255 0.00881 0.0
C939 C 0.11344 0.54103 0.01576 0.0
C940 C 0.12425 0.52054 0.0103 0.0
C941 C 0.12651 0.50576 0.02662 0.0
C942 C 0.13953 0.48917 0.02314 0.0
C943 C 0.15072 0.48704 1.00333 0.0
C944 C 0.14738 0.50069 0.98627 0.0
C945 C 0.13437 0.51729 0.98975 0.0
C946 C 0.04706 0.54414 0.97561 0.0
C947 C 0.06139 0.59785 0.02507 0.0
C948 C 0.98732 0.54982 0.02194 0.0
C949 C 0.97611 0.57003 0.02618 0.0
C950 C 0.97207 0.58222 0.00813 0.0
C951 C 0.95802 0.59763 0.01042 0.0
C952 C 0.94785 0.60136 0.03083 0.0
C953 C 0.95302 0.59072 0.04963 0.0
C954 C 0.96696 0.57508 0.04727 0.0
C955 C 0.05388 0.54636 0.05929 0.0
O956 O 0.05955 0.50604 0.01229 0.0
O957 O 0.02241 0.50277 0.00896 0.0
O958 O 0.10396 0.54702 0.99773 0.0
O959 O 0.10245 0.54167 0.03381 0.0
O960 O 0.06756 0.55604 0.97856 0.0
O961 O 0.04292 0.53292 0.99183 0.0
O962 O 0.04085 0.58407 0.02061 0.0
O963 O 0.07806 0.58805 0.02617 0.0
O964 O 0.9987 0.5467 0.04037 0.0
O965 O 0.99653 0.54669 1.00264 0.0
O966 O 0.03373 0.5332 0.05586 0.0
O967 O 0.05773 0.55811 0.04341 0.0
H968 H 0.11899 0.50775 0.04267 0.0
H969 H 0.14182 0.47912 0.03673 0.0
H970 H 0.15544 0.4992 0.97059 0.0
H971 H 0.13294 0.52832 0.97679 0.0
H972 H 0.97882 0.57886 0.99168 0.0
H973 H 0.95419 0.60563 0.99569 0.0
H974 H 0.94519 0.59315 0.06543 0.0
H975 H 0.96967 0.5659 0.06146 0.0
H976 H 0.04907 0.22594 0.95356 0.0
H977 H 0.98246 0.19507 0.96266 0.0
H978 H 0.05984 0.19397 0.97093 0.0
H979 H 0.99317 0.16373 0.98014 0.0
H980 H 0.01111 0.09162 0.9766 0.0
H981 H 1.00375 0.12708 0.96393 0.0
H982 H 0.06366 0.17551 0.00605 0.0
H983 H 0.07153 0.13923 0.01842 0.0
C984 C 0.03677 0.21255 0.95947 0.0
C985 C 0.01482 0.21296 0.95642 0.0
C986 C 0.04297 0.19432 0.96957 0.0
C987 C 0.02732 0.17593 0.97655 0.0
C988 C 1.00563 0.17721 0.97451 0.0
C989 C 0.99948 0.19541 0.96464 0.0
C990 C 0.02275 0.10978 0.98343 0.0
C991 C 0.04181 0.11253 0.99882 0.0
C992 C 0.01844 0.13026 0.97619 0.0
C993 C 0.03287 0.15435 0.98428 0.0
C994 C 0.05218 0.15723 0.99947 0.0
C995 C 0.05662 0.13648 0.00666 0.0
H996 H 0.16917 0.81456 0.14402 0.0
H997 H 0.1467 0.82341 0.21245 0.0
H998 H 0.20299 0.80812 0.1624 0.0
H999 H 0.17942 0.81657 0.23023 0.0
H1000 H 0.24833 0.83563 0.264 0.0
H1001 H 0.21616 0.83905 0.2418 0.0
H1002 H 0.22102 0.78069 0.18334 0.0
H1003 H 0.25423 0.7773 0.20617 0.0
C1004 C 0.17137 0.81527 0.16289 0.0
C1005 C 0.15503 0.8199 0.17666 0.0
C1006 C 0.19072 0.81129 0.17343 0.0
C1007 C 0.19438 0.81211 0.19806 0.0
C1008 C 0.17777 0.81631 0.21143 0.0
C1009 C 0.1587 0.82015 0.20104 0.0
C1010 C 0.2428 0.82339 0.2464 0.0
C1011 C 0.25417 0.80612 0.23711 0.0
C1012 C 0.22399 0.82527 0.23358 0.0
C1013 C 0.21546 0.81002 0.21064 0.0
C1014 C 0.22696 0.79287 0.2009 0.0
C1015 C 0.24597 0.79078 0.21405 0.0
H1016 H 0.50071 0.82911 0.48976 0.0
H1017 H 0.53437 0.84262 0.43039 0.0
H1018 H 0.50981 0.87423 0.50666 0.0
H1019 H 0.54239 0.88741 0.44639 0.0
H1020 H 0.56722 0.96693 0.48798 0.0
H1021 H 0.56199 0.9222 0.47564 0.0
H1022 H 0.49883 0.90943 0.49919 0.0
H1023 H 0.50454 0.95471 0.51247 0.0
C1024 C 0.51018 0.84172 0.48043 0.0
C1025 C 0.5167 0.83233 0.45869 0.0
C1026 C 0.51518 0.86757 0.48995 0.0
C1027 C 0.5265 0.88456 0.47772 0.0
C1028 C 0.53386 0.87502 0.45651 0.0
C1029 C 0.52923 0.84923 0.44727 0.0
C1030 C 0.55229 0.95464 0.49084 0.0
C1031 C 0.53637 0.96437 0.5015 0.0
C1032 C 0.54919 0.92888 0.48349 0.0
C1033 C 0.53001 0.91206 0.48644 0.0
C1034 C 0.51398 0.9218 0.49701 0.0
C1035 C 0.51711 0.94773 0.5044 0.0
H1036 H 0.53961 0.27038 0.66968 0.0
H1037 H 0.52484 0.33215 0.64512 0.0
H1038 H 0.50372 0.26068 0.68318 0.0
H1039 H 0.48954 0.3226 0.65833 0.0
H1040 H 0.44553 0.3236 0.71555 0.0
H1041 H 0.47847 0.32771 0.69742 0.0
H1042 H 0.46268 0.24733 0.67206 0.0
H1043 H 0.42925 0.24314 0.6905 0.0
C1044 C 0.52873 0.2818 0.66711 0.0
C1045 C 0.53526 0.30229 0.6567 0.0
C1046 C 0.50812 0.27615 0.67464 0.0
C1047 C 0.49387 0.29118 0.67228 0.0
C1048 C 0.50018 0.31092 0.66092 0.0
C1049 C 0.52047 0.31631 0.65319 0.0
C1050 C 0.44874 0.30675 0.70575 0.0
C1051 C 0.43449 0.28307 0.70431 0.0
C1052 C 0.46776 0.3091 0.69535 0.0
C1053 C 0.47325 0.28788 0.68307 0.0
C1054 C 0.45906 0.26407 0.68154 0.0
C1055 C 0.43989 0.26169 0.69205 0.0
H1056 H 0.0407 0.81459 0.63085 0.0
H1057 H 0.97972 0.79906 0.58471 0.0
H1058 H 0.05728 0.84671 0.61084 0.0
H1059 H 0.99642 0.83138 0.56488 0.0
H1060 H 0.03676 0.87534 0.52098 0.0
H1061 H 0.02532 0.84012 0.53936 0.0
H1062 H 0.05181 0.88909 0.60879 0.0
H1063 H 0.06325 0.92453 0.59016 0.0
C1064 C 0.03085 0.81789 0.61634 0.0
C1065 C 0.00879 0.80442 0.60943 0.0
C1066 C 0.04038 0.83634 0.605 0.0
C1067 C 0.02808 0.84149 0.58647 0.0
C1068 C 1.00629 0.82751 0.57901 0.0
C1069 C 0.99671 0.80907 0.59038 0.0
C1070 C 0.04056 0.87836 0.54011 0.0
C1071 C 0.05092 0.90235 0.55427 0.0
C1072 C 0.03387 0.85835 0.5506 0.0
C1073 C 0.03756 0.86203 0.57541 0.0
C1074 C 0.04889 0.88585 0.58957 0.0
C1075 C 0.05535 0.90603 0.57903 0.0
H1076 H 0.55756 0.8295 0.80687 0.0
H1077 H 0.53924 0.84235 0.87738 0.0
H1078 H 0.5203 0.826 0.78983 0.0
H1079 H 0.50234 0.83699 0.86073 0.0
H1080 H 0.44268 0.84945 0.82805 0.0
H1081 H 0.48092 0.85694 0.84198 0.0
H1082 H 0.48447 0.79669 0.78417 0.0
H1083 H 0.44596 0.79048 0.76927 0.0
C1084 C 0.54569 0.83204 0.81869 0.0
C1085 C 0.5511 0.8361 0.84339 0.0
C1086 C 0.52437 0.82954 0.80897 0.0
C1087 C 0.50843 0.83107 0.82396 0.0
C1088 C 0.51427 0.8361 0.84869 0.0
C1089 C 0.53545 0.83897 0.85829 0.0
C1090 C 0.45166 0.8377 0.8185 0.0
C1091 C 0.44166 0.81919 0.79795 0.0
C1092 C 0.4735 0.84195 0.82641 0.0
C1093 C 0.48562 0.82726 0.81426 0.0
C1094 C 0.47553 0.8085 0.79366 0.0
C1095 C 0.45359 0.80467 0.78535 0.0
H1096 H 0.53298 0.20625 0.14342 0.0
H1097 H 0.47497 0.18408 0.0913 0.0
H1098 H 0.54642 0.17351 0.1199 0.0
H1099 H 0.48779 0.15135 0.06881 0.0
H1100 H 0.52367 0.11532 0.01773 0.0
H1101 H 0.51388 0.14887 0.0437 0.0
H1102 H 0.54231 0.12953 0.10523 0.0
H1103 H 0.55394 0.09722 0.0787 0.0
C1104 C 0.52306 0.19435 0.12714 0.0
C1105 C 0.5031 0.19813 0.11909 0.0
C1106 C 0.53068 0.17552 0.11374 0.0
C1107 C 0.51842 0.16021 0.09216 0.0
C1108 C 0.49803 0.16331 0.08488 0.0
C1109 C 0.49056 0.18205 0.09802 0.0
C1110 C 0.52796 0.11836 0.0368 0.0
C1111 C 0.53913 0.10343 0.04634 0.0
C1112 C 0.52219 0.13745 0.05174 0.0
C1113 C 0.52675 0.14147 0.07662 0.0
C1114 C 0.53856 0.12696 0.08616 0.0
C1115 C 0.545 0.10828 0.07105 0.0
H1116 H 0.1401 0.30978 0.30755 0.0
H1117 H 0.18682 0.3572 0.36744 0.0
H1118 H 0.16957 0.30046 0.28652 0.0
H1119 H 0.21653 0.34826 0.34622 0.0
H1120 H 0.26135 0.34978 0.29022 0.0
H1121 H 0.23025 0.35797 0.30791 0.0
H1122 H 0.19929 0.27843 0.29275 0.0
H1123 H 0.23044 0.27003 0.2747 0.0
C1124 C 0.15678 0.31849 0.31594 0.0
C1125 C 0.16154 0.33462 0.33867 0.0
C1126 C 0.1735 0.31297 0.30409 0.0
C1127 C 0.19511 0.3239 0.31475 0.0
C1128 C 0.19987 0.33996 0.33762 0.0
C1129 C 0.18307 0.34507 0.34969 0.0
C1130 C 0.24774 0.33404 0.29006 0.0
C1131 C 0.24838 0.3093 0.28116 0.0
C1132 C 0.2301 0.33874 0.30048 0.0
C1133 C 0.21275 0.31879 0.30196 0.0
C1134 C 0.21263 0.29407 0.29176 0.0
C1135 C 0.23039 0.28932 0.2814 0.0
H1136 H 0.95204 0.07071 0.17284 0.0
H1137 H 0.00928 0.05741 0.20598 0.0
H1138 H 0.96679 0.06688 0.13483 0.0
H1139 H 0.02345 0.05265 0.16912 0.0
H1140 H 0.05615 0.05516 0.10398 0.0
H1141 H 0.03945 0.05708 0.1393 0.0
H1142 H 0.97962 0.05828 0.09962 0.0
H1143 H 0.9974 0.05686 0.06354 0.0
C1144 C 0.96763 0.06664 0.17217 0.0
C1145 C 0.97915 0.06444 0.19329 0.0
C1146 C 0.97636 0.06443 0.14998 0.0
C1147 C 0.99703 0.05965 0.14753 0.0
C1148 C 0.00798 0.05691 0.1688 0.0
C1149 C 0.9995 0.05946 0.1907 0.0
C1150 C 0.03928 0.05552 0.10244 0.0
C1151 C 0.02844 0.05549 0.08015 0.0
C1152 C 0.02926 0.05658 0.12334 0.0
C1153 C 0.00741 0.05778 0.12377 0.0
C1154 C 0.9963 0.05742 0.10114 0.0
C1155 C 1.00652 0.05626 0.07991 0.0
H1156 H 0.30156 0.69172 0.46877 0.0
H1157 H 0.23861 0.68049 0.49299 0.0
H1158 H 0.28682 0.70181 0.43349 0.0
H1159 H 0.22393 0.69157 0.45725 0.0
H1160 H 0.2373 0.7545 0.40629 0.0
H1161 H 0.23689 0.73474 0.43977 0.0
H1162 H 0.25504 0.6731 0.39719 0.0
H1163 H 0.2552 0.69265 0.36335 0.0
C1164 C 0.28467 0.69198 0.46687 0.0
C1165 C 0.27119 0.68533 0.48363 0.0
C1166 C 0.27618 0.69728 0.44642 0.0
C1167 C 0.25417 0.69653 0.44254 0.0
C1168 C 0.24086 0.69156 0.45987 0.0
C1169 C 0.24929 0.6856 0.48027 0.0
C1170 C 0.2401 0.73611 0.40365 0.0
C1171 C 0.24671 0.72524 0.38247 0.0
C1172 C 0.23977 0.72483 0.42279 0.0
C1173 C 0.24614 0.70272 0.42087 0.0
C1174 C 0.25014 0.69028 0.39885 0.0
C1175 C 0.25042 0.70152 0.37968 0.0
H1176 H 0.66178 0.05198 0.66437 0.0
H1177 H 0.60085 0.04164 0.6927 0.0
H1178 H 0.64659 0.06887 0.63319 0.0
H1179 H 0.58581 0.05809 0.66194 0.0
H1180 H 0.55671 0.0747 0.60013 0.0
H1181 H 0.58337 0.08709 0.63636 0.0
H1182 H 0.61843 0.03662 0.60237 0.0
H1183 H 0.59176 0.02445 0.56663 0.0
C1184 C 0.64533 0.05373 0.6641 0.0
C1185 C 0.63189 0.04409 0.6797 0.0
C1186 C 0.63682 0.06373 0.64665 0.0
C1187 C 0.61494 0.06409 0.64491 0.0
C1188 C 0.6027 0.05787 0.66275 0.0
C1189 C 0.61109 0.04774 0.67995 0.0
C1190 C 0.57029 0.06654 0.6007 0.0
C1191 C 0.5724 0.04843 0.58136 0.0
C1192 C 0.58565 0.07394 0.62101 0.0
C1193 C 0.60304 0.06307 0.62195 0.0
C1194 C 0.60552 0.04581 0.60189 0.0
C1195 C 0.59014 0.03843 0.58169 0.0
H1196 H 0.29782 0.36694 0.96631 0.0
H1197 H 0.33992 0.31946 0.97428 0.0
H1198 H 0.29475 0.35368 0.92331 0.0
H1199 H 0.33612 0.30526 0.93115 0.0
H1200 H 0.3457 0.30697 0.85378 0.0
H1201 H 0.34744 0.31779 0.89708 0.0
H1202 H 0.28122 0.323 0.88885 0.0
H1203 H 0.27984 0.31337 0.84616 0.0
C1204 C 0.30599 0.35315 0.95893 0.0
C1205 C 0.31921 0.34442 0.97396 0.0
C1206 C 0.30423 0.34545 0.93408 0.0
C1207 C 0.31539 0.32849 0.92341 0.0
C1208 C 0.32771 0.31881 0.9385 0.0
C1209 C 0.32966 0.32672 0.96336 0.0
C1210 C 0.33158 0.31056 0.86126 0.0
C1211 C 0.31272 0.3094 0.84628 0.0
C1212 C 0.33247 0.31655 0.88618 0.0
C1213 C 0.31447 0.32142 0.89679 0.0
C1214 C 0.29561 0.31996 0.88166 0.0
C1215 C 0.29479 0.31418 0.85692 0.0
H1216 H 0.95834 0.0904 0.35447 0.0
H1217 H 0.98786 0.03695 0.31608 0.0
H1218 H 0.97458 0.08508 0.39225 0.0
H1219 H 1.00419 0.03159 0.35368 0.0
H1220 H 0.01763 0.01062 0.42579 0.0
H1221 H 1.00134 0.01565 0.38796 0.0
H1222 H 1.00513 0.09243 0.42084 0.0
H1223 H 0.02104 0.08714 0.45861 0.0
C1224 C 0.96819 0.07735 0.35395 0.0
C1225 C 0.97144 0.06406 0.33171 0.0
C1226 C 0.97782 0.0744 0.37589 0.0
C1227 C 0.99103 0.05778 0.37678 0.0
C1228 C 0.99408 0.04436 0.35443 0.0
C1229 C 0.98468 0.04755 0.33254 0.0
C1230 C 0.01506 0.02864 0.42505 0.0
C1231 C 0.02086 0.04839 0.44582 0.0
C1232 C 1.00569 0.03165 0.40304 0.0
C1233 C 1.0015 0.05454 0.4006 0.0
C1234 C 0.00748 0.07429 0.42143 0.0
C1235 C 0.01691 0.0713 0.44338 0.0
H1236 H 0.33132 0.69689 0.6042 0.0
H1237 H 0.26119 0.67649 0.58832 0.0
H1238 H 0.3297 0.7237 0.64232 0.0
H1239 H 0.25965 0.70368 0.62658 0.0
H1240 H 0.27618 0.78181 0.6851 0.0
H1241 H 0.27412 0.75292 0.64632 0.0
H1242 H 0.31381 0.71446 0.67992 0.0
H1243 H 0.31556 0.74265 0.71816 0.0
C1244 C 0.31558 0.69808 0.60894 0.0
C1245 C 0.29639 0.68451 0.59351 0.0
C1246 C 0.31465 0.71337 0.63068 0.0
C1247 C 0.29455 0.71565 0.63718 0.0
C1248 C 0.27531 0.70221 0.62177 0.0
C1249 C 0.27621 0.68653 0.60012 0.0
C1250 C 0.2843 0.76705 0.68399 0.0
C1251 C 0.29603 0.76434 0.70433 0.0
C1252 C 0.28303 0.75054 0.66203 0.0
C1253 C 0.29394 0.73171 0.66033 0.0
C1254 C 0.3054 0.72895 0.68083 0.0
C1255 C 0.3063 0.745 0.70266 0.0
H1256 H 0.64047 0.09862 0.78391 0.0
H1257 H 0.60867 0.02984 0.8022 0.0
H1258 H 0.64431 0.1214 0.82569 0.0
H1259 H 0.61196 0.05235 0.84341 0.0
H1260 H 0.64115 0.07712 0.91155 0.0
H1261 H 0.65018 0.07291 0.87167 0.0
H1262 H 0.61897 0.12979 0.86087 0.0
H1263 H 0.61111 0.13548 0.90173 0.0
C1264 C 0.63327 0.08874 0.79666 0.0
C1265 C 0.62411 0.06266 0.79019 0.0
C1266 C 0.63587 0.10161 0.82047 0.0
C1267 C 0.62927 0.08829 0.83761 0.0
C1268 C 0.61787 0.06278 0.83048 0.0
C1269 C 0.61541 0.05003 0.80691 0.0
C1270 C 0.63754 0.09013 0.90152 0.0
C1271 C 0.62418 0.10558 0.90919 0.0
C1272 C 0.64256 0.08748 0.87849 0.0
C1273 C 0.63413 0.10009 0.86312 0.0
C1274 C 0.62512 0.11947 0.87239 0.0
C1275 C 0.62054 0.12258 0.89572 0.0
H1276 H 0.30916 0.38477 0.11939 0.0
H1277 H 0.316 0.31317 0.08355 0.0
H1278 H 0.30527 0.37006 0.15617 0.0
H1279 H 0.31202 0.29828 0.11996 0.0
H1280 H 0.28676 0.27009 0.1819 0.0
H1281 H 0.28775 0.28617 0.14633 0.0
H1282 H 0.32554 0.35889 0.1881 0.0
H1283 H 0.32394 0.34259 0.22439 0.0
C1284 C 0.30919 0.36562 0.11919 0.0
C1285 C 0.31246 0.34996 0.09838 0.0
C1286 C 0.30735 0.3573 0.14042 0.0
C1287 C 0.30837 0.33292 0.14131 0.0
C1288 C 0.31091 0.31707 0.12014 0.0
C1289 C 0.31314 0.32554 0.09913 0.0
C1290 C 0.29529 0.28958 0.18367 0.0
C1291 C 0.30536 0.30498 0.20613 0.0
C1292 C 0.29598 0.29881 0.16308 0.0
C1293 C 0.30692 0.32384 0.164 0.0
C1294 C 0.31678 0.33954 0.18658 0.0
C1295 C 0.316 0.33021 0.20742 0.0
H1296 H 0.251 0.95368 0.99533 0.0
H1297 H 0.28164 1.00558 0.06236 0.0
H1298 H 0.21689 0.96405 1.00098 0.0
H1299 H 0.24772 0.01634 0.06768 0.0
H1300 H 0.17873 0.01277 0.08043 0.0
H1301 H 0.21071 0.9969 0.07516 0.0
H1302 H 0.20386 1.00085 1.00128 0.0
H1303 H 0.17193 0.0158 0.00637 0.0
C1304 C 0.25043 0.96738 0.01115 0.0
C1305 C 0.26878 0.97884 0.02842 0.0
C1306 C 0.231 0.97329 0.01438 0.0
C1307 C 0.22977 0.99073 0.03488 0.0
C1308 C 0.24823 1.00245 0.05197 0.0
C1309 C 0.26766 0.99657 0.04873 0.0
C1310 C 0.18395 1.00967 0.06305 0.0
C1311 C 0.17295 0.01507 0.04371 0.0
C1312 C 0.20218 1.00083 0.06006 0.0
C1313 C 0.20956 0.9977 0.03781 0.0
C1314 C 0.19817 1.0026 0.01845 0.0
C1315 C 0.17994 0.01111 0.02135 0.0
H1316 H 0.70495 0.66353 0.98307 0.0
H1317 H 0.72458 0.61656 0.02577 0.0
H1318 H 0.66662 0.64286 0.98414 0.0
H1319 H 0.68681 0.596 0.02661 0.0
H1320 H 0.61702 0.57622 0.04156 0.0
H1321 H 0.65429 0.60126 0.04242 0.0
H1322 H 0.63913 0.60244 0.96873 0.0
H1323 H 0.60195 0.57712 0.96794 0.0
C1324 C 0.70118 0.64893 0.99274 0.0
C1325 C 0.71806 0.64182 1.00428 0.0
C1326 C 0.67915 0.63693 0.99327 0.0
C1327 C 0.67339 0.61766 1.00553 0.0
C1328 C 0.69036 0.61093 0.01729 0.0
C1329 C 0.71221 0.62272 0.01664 0.0
C1330 C 0.62159 0.58209 0.02564 0.0
C1331 C 0.60648 0.57464 1.00466 0.0
C1332 C 0.64306 0.59632 0.02604 0.0
C1333 C 0.64998 0.60394 1.00559 0.0
C1334 C 0.63454 0.59717 0.98488 0.0
C1335 C 0.6132 0.58251 0.98436 0.0
H1336 H 0.68519 0.42879 0.25502 0.0
H1337 H 0.74393 0.47808 0.29776 0.0
H1338 H 0.70207 0.39376 0.2508 0.0
H1339 H 0.7607 0.44371 0.29378 0.0
H1340 H 0.79541 0.38236 0.27523 0.0
H1341 H 0.77782 0.41586 0.27636 0.0
H1342 H 0.71502 0.36181 0.2629 0.0
H1343 H 0.73299 0.32794 0.2614 0.0
C1344 C 0.70187 0.43254 0.26319 0.0
C1345 C 0.71296 0.45719 0.27651 0.0
C1346 C 0.71168 0.412 0.26104 0.0
C1347 C 0.73333 0.41484 0.27178 0.0
C1348 C 0.74435 0.43968 0.28466 0.0
C1349 C 0.73449 0.45993 0.28707 0.0
C1350 C 0.77781 0.37726 0.27242 0.0
C1351 C 0.76608 0.35162 0.26821 0.0
C1352 C 0.76742 0.39698 0.2733 0.0
C1353 C 0.74442 0.39268 0.27002 0.0
C1354 C 0.7326 0.36688 0.26548 0.0
C1355 C 0.74308 0.34704 0.2647 0.0
H1356 H 0.89029 0.47819 0.55569 0.0
H1357 H 0.87244 0.48304 0.48356 0.0
H1358 H 0.92848 0.48986 0.55105 0.0
H1359 H 0.91117 0.49498 0.47887 0.0
H1360 H 0.98433 0.48315 0.48309 0.0
H1361 H 0.94446 0.47267 0.48133 0.0
H1362 H 0.95177 0.53158 0.54445 0.0
H1363 H 0.99084 0.54158 0.54658 0.0
C1364 C 0.8947 0.48211 0.53896 0.0
C1365 C 0.87884 0.48026 0.52009 0.0
C1366 C 0.91639 0.48862 0.53627 0.0
C1367 C 0.92243 0.49331 0.51465 0.0
C1368 C 0.9066 0.49138 0.49563 0.0
C1369 C 0.88471 0.48503 0.49843 0.0
C1370 C 0.97722 0.49378 0.4964 0.0
C1371 C 0.9904 0.51255 0.51537 0.0
C1372 C 0.95465 0.48801 0.49527 0.0
C1373 C 0.94547 0.50127 0.51294 0.0
C1374 C 0.9587 0.52095 0.53092 0.0
C1375 C 0.98099 0.52645 0.53222 0.0
H1376 H 0.42683 0.09777 0.26353 0.0
H1377 H 0.37314 0.07494 0.30183 0.0
H1378 H 0.40472 0.11518 0.23963 0.0
H1379 H 0.35127 0.09369 0.27852 0.0
H1380 H 0.31336 0.12426 0.23344 0.0
H1381 H 0.33326 0.09431 0.24018 0.0
H1382 H 0.3938 0.15248 0.25099 0.0
H1383 H 0.37406 0.1818 0.24275 0.0
C1384 C 0.41028 0.09648 0.26688 0.0
C1385 C 0.40184 0.08559 0.28496 0.0
C1386 C 0.39763 0.10637 0.25309 0.0
C1387 C 0.37643 0.10596 0.25736 0.0
C1388 C 0.36756 0.09403 0.2747 0.0
C1389 C 0.38019 0.0838 0.28838 0.0
C1390 C 0.33097 0.13023 0.23601 0.0
C1391 C 0.34225 0.15535 0.23796 0.0
C1392 C 0.3423 0.11321 0.24021 0.0
C1393 C 0.36494 0.12124 0.24654 0.0
C1394 C 0.37633 0.14567 0.24595 0.0
C1395 C 0.36504 0.16256 0.24144 0.0
H1396 H 0.33498 0.15785 0.54926 0.0
H1397 H 0.35323 0.16942 0.48175 0.0
H1398 H 0.3672 0.14271 0.55656 0.0
H1399 H 0.3849 0.15401 0.48866 0.0
H1400 H 0.41879 0.09283 0.49301 0.0
H1401 H 0.38947 0.11256 0.48942 0.0
H1402 H 0.40834 0.15378 0.56276 0.0
H1403 H 0.43801 0.13391 0.56639 0.0
C1404 C 0.34592 0.15723 0.53608 0.0
C1405 C 0.34155 0.16459 0.51487 0.0
C1406 C 0.36441 0.14872 0.54027 0.0
C1407 C 0.37846 0.14678 0.52301 0.0
C1408 C 0.3743 0.15492 0.50218 0.0
C1409 C 0.35622 0.16392 0.49828 0.0
C1410 C 0.41701 0.10643 0.50829 0.0
C1411 C 0.43099 0.11197 0.52989 0.0
C1412 C 0.40011 0.11772 0.50626 0.0
C1413 C 0.39663 0.13495 0.52574 0.0
C1414 C 0.41049 0.14047 0.54745 0.0
C1415 C 0.4275 0.12912 0.5495 0.0
H1416 H 0.7394 0.60237 0.31876 0.0
H1417 H 0.69512 0.59171 0.25504 0.0
H1418 H 0.75811 0.6434 0.31484 0.0
H1419 H 0.71474 0.63316 0.25015 0.0
H1420 H 0.75065 0.71647 0.24948 0.0
H1421 H 0.72828 0.67572 0.25371 0.0
H1422 H 0.781 0.67177 0.30314 0.0
H1423 H 0.8022 0.71175 0.29933 0.0
C1424 C 0.73366 0.60856 0.30354 0.0
C1425 C 0.71544 0.59276 0.28727 0.0
C1426 C 0.74481 0.63269 0.30101 0.0
C1427 C 0.73886 0.64284 0.28176 0.0
C1428 C 0.72043 0.62702 0.26539 0.0
C1429 C 0.70903 0.60272 0.2681 0.0
C1430 C 0.75716 0.70716 0.26177 0.0
C1431 C 0.77846 0.71828 0.2744 0.0
C1432 C 0.74432 0.68321 0.26402 0.0
C1433 C 0.75207 0.6692 0.27908 0.0
C1434 C 0.77332 0.68094 0.29171 0.0
C1435 C 0.78595 0.70448 0.28941 0.0
H1436 H 0.88642 0.48803 0.7506 0.0
H1437 H 0.93575 0.45563 0.775 0.0
H1438 H 0.85855 0.45008 0.74984 0.0
H1439 H 0.90804 0.4168 0.77309 0.0
H1440 H 0.85797 0.37587 0.81011 0.0
H1441 H 0.8838 0.41181 0.80209 0.0
H1442 H 0.83992 0.40776 0.73943 0.0
H1443 H 0.81377 0.37318 0.74852 0.0
C1444 C 0.89141 0.47198 0.75401 0.0
C1445 C 0.91297 0.47469 0.76338 0.0
C1446 C 0.8754 0.45033 0.754 0.0
C1447 C 0.88108 0.43105 0.76269 0.0
C1448 C 0.90317 0.43196 0.76743 0.0
C1449 C 0.91912 0.45382 0.76777 0.0
C1450 C 0.8535 0.38365 0.79543 0.0
C1451 C 0.83414 0.37196 0.7798 0.0
C1452 C 0.86851 0.40359 0.79031 0.0
C1453 C 0.86427 0.41179 0.76946 0.0
C1454 C 0.84381 0.40171 0.75542 0.0
C1455 C 0.82873 0.38214 0.76077 0.0
H1456 H 0.07385 0.85466 0.04448 0.0
H1457 H 0.09686 0.90701 0.11246 0.0
H1458 H 0.06691 0.88804 0.02689 0.0
H1459 H 0.09026 0.94075 0.09495 0.0
H1460 H 0.05045 0.98741 0.06589 0.0
H1461 H 0.05988 0.95388 0.08153 0.0
H1462 H 0.07961 0.92576 0.01421 0.0
H1463 H 0.0695 0.9591 0.99858 0.0
C1464 C 0.0784 0.87362 0.05542 0.0
C1465 C 0.08658 0.87827 0.07974 0.0
C1466 C 0.0742 0.89281 0.04538 0.0
C1467 C 0.07774 0.91725 0.05944 0.0
C1468 C 0.08699 0.92216 0.08353 0.0
C1469 C 0.09137 0.90294 0.09352 0.0
C1470 C 0.05651 0.97377 0.05439 0.0
C1471 C 0.05905 0.97562 0.03098 0.0
C1472 C 0.06224 0.95473 0.06343 0.0
C1473 C 0.07094 0.93715 0.04937 0.0
C1474 C 0.07292 0.93876 0.02563 0.0
C1475 C 0.0671 0.95782 0.01659 0.0
H1476 H 0.93423 0.24192 0.87705 0.0
H1477 H 0.9747 0.31098 0.86697 0.0
H1478 H 0.90255 0.24935 0.85577 0.0
H1479 H 0.94336 0.31931 0.84728 0.0
H1480 H 0.89309 0.313 0.78534 0.0
H1481 H 0.92216 0.30788 0.81154 0.0
H1482 H 0.87509 0.26962 0.84997 0.0
H1483 H 0.84562 0.27403 0.82244 0.0
C1484 C 0.93629 0.25894 0.87071 0.0
C1485 C 0.95715 0.27563 0.87341 0.0
C1486 C 0.91805 0.26332 0.85852 0.0
C1487 C 0.92011 0.28473 0.84899 0.0
C1488 C 0.94087 0.30208 0.85326 0.0
C1489 C 0.95901 0.29745 0.86491 0.0
C1490 C 0.88886 0.30387 0.79963 0.0
C1491 C 0.86692 0.29443 0.80193 0.0
C1492 C 0.9057 0.30101 0.81497 0.0
C1493 C 0.90143 0.28853 0.83346 0.0
C1494 C 0.87932 0.27932 0.83608 0.0
C1495 C 0.8623 0.28226 0.82054 0.0
H1496 H 0.60315 0.26169 0.56784 0.0
H1497 H 0.53924 0.23571 0.58671 0.0
H1498 H 0.60223 0.21818 0.5494 0.0
H1499 H 0.53879 0.19277 0.57005 0.0
H1500 H 0.53102 0.12112 0.52019 0.0
H1501 H 0.53483 0.16545 0.53297 0.0
H1502 H 0.60308 0.17839 0.55816 0.0
H1503 H 0.59943 0.13357 0.54433 0.0
C1504 C 0.58899 0.24665 0.56804 0.0
C1505 C 0.57107 0.25192 0.57818 0.0
C1506 C 0.5885 0.22182 0.55769 0.0
C1507 C 0.57028 0.20199 0.55788 0.0
C1508 C 0.55274 0.20753 0.56872 0.0
C1509 C 0.553 0.23216 0.57839 0.0
C1510 C 0.54696 0.13336 0.52813 0.0
C1511 C 0.56488 0.12375 0.53146 0.0
C1512 C 0.54911 0.15885 0.53567 0.0
C1513 C 0.56915 0.17547 0.54711 0.0
C1514 C 0.58741 0.16611 0.54941 0.0
C1515 C 0.58529 0.14043 0.54158 0.0
H1516 H 0.58763 0.76704 0.40054 0.0
H1517 H 0.57735 0.82349 0.36429 0.0
H1518 H 0.62437 0.7735 0.39023 0.0
H1519 H 0.61357 0.82922 0.35315 0.0
H1520 H 0.68383 0.84513 0.34433 0.0
H1521 H 0.65155 0.84365 0.36404 0.0
H1522 H 0.64114 0.76391 0.35648 0.0
H1523 H 0.67346 0.7656 0.33741 0.0
C1524 C 0.59321 0.78086 0.3904 0.0
C1525 C 0.57942 0.79458 0.38307 0.0
C1526 C 0.61428 0.78449 0.38436 0.0
C1527 C 0.62204 0.80175 0.37062 0.0
C1528 C 0.60843 0.81601 0.364 0.0
C1529 C 0.58748 0.81256 0.37023 0.0
C1530 C 0.67474 0.82737 0.34716 0.0
C1531 C 0.6812 0.80547 0.33916 0.0
C1532 C 0.65616 0.82647 0.35838 0.0
C1533 C 0.64344 0.80359 0.36168 0.0
C1534 C 0.65055 0.78196 0.35463 0.0
C1535 C 0.66918 0.78291 0.34361 0.0
H1536 H 0.05913 0.28673 0.42865 0.0
H1537 H 0.12007 0.26691 0.43044 0.0
H1538 H 0.04273 0.2505 0.4435 0.0
H1539 H 0.10367 0.23099 0.44647 0.0
H1540 H 0.07544 0.19923 0.50776 0.0
H1541 H 0.08913 0.23263 0.48778 0.0
H1542 H 0.03451 0.20025 0.43145 0.0
H1543 H 0.02089 0.16633 0.4516 0.0
C1544 C 0.06901 0.27458 0.432 0.0
C1545 C 0.09093 0.2796 0.42836 0.0
C1546 C 0.05952 0.25379 0.44041 0.0
C1547 C 0.07202 0.23821 0.44601 0.0
C1548 C 0.09382 0.24293 0.44215 0.0
C1549 C 0.10317 0.26338 0.43311 0.0
C1550 C 0.0663 0.19952 0.49125 0.0
C1551 C 0.04721 0.18068 0.48107 0.0
C1552 C 0.07419 0.21832 0.47976 0.0
C1553 C 0.06299 0.21852 0.45802 0.0
C1554 C 0.04337 0.20016 0.4482 0.0
C1555 C 0.03556 0.18104 0.45964 0.0
H1556 H 0.54728 0.25513 0.2287 0.0
H1557 H 0.57103 0.27219 0.16513 0.0
H1558 H 0.57815 0.23906 0.23723 0.0
H1559 H 0.60181 0.25569 0.17323 0.0
H1560 H 0.6659 0.28954 0.2257 0.0
H1561 H 0.62909 0.28438 0.20697 0.0
H1562 H 0.60649 0.21669 0.23155 0.0
H1563 H 0.64343 0.22197 0.25042 0.0
C1564 C 0.55824 0.25362 0.2156 0.0
C1565 C 0.55741 0.2655 0.19675 0.0
C1566 C 0.57607 0.24465 0.22058 0.0
C1567 C 0.59283 0.24742 0.20648 0.0
C1568 C 0.58937 0.25419 0.18478 0.0
C1569 C 0.57157 0.2632 0.17989 0.0
C1570 C 0.65303 0.27361 0.22709 0.0
C1571 C 0.65741 0.25609 0.23934 0.0
C1572 C 0.63207 0.27038 0.21607 0.0
C1573 C 0.61513 0.24954 0.21706 0.0
C1574 C 0.61934 0.23262 0.23018 0.0
C1575 C 0.64036 0.23586 0.24123 0.0
H1576 H 0.63367 0.90263 0.95411 0.0
H1577 H 0.58592 0.89573 0.89425 0.0
H1578 H 0.62619 0.94114 0.97426 0.0
H1579 H 0.5783 0.9344 0.9142 0.0
H1580 H 0.54723 0.97184 0.97739 0.0
H1581 H 0.55957 0.94237 0.94836 0.0
H1582 H 0.62642 0.98376 0.97598 0.0
H1583 H 0.61396 0.01214 1.0057 0.0
C1584 C 0.62236 0.91016 0.94489 0.0
C1585 C 0.6107 0.89688 0.92264 0.0
C1586 C 0.61796 0.9321 0.95635 0.0
C1587 C 0.60159 0.94071 0.94577 0.0
C1588 C 0.59094 0.92814 0.92274 0.0
C1589 C 0.59554 0.90634 0.91119 0.0
C1590 C 0.56451 0.97466 0.97688 0.0
C1591 C 0.57977 0.99364 0.99384 0.0
C1592 C 0.5716 0.95804 0.96021 0.0
C1593 C 0.59401 0.96072 0.9601 0.0
C1594 C 0.6091 0.981 0.97601 0.0
C1595 C 0.60202 0.99716 0.99297 0.0
H1596 H 0.95914 0.73414 0.72606 0.0
H1597 H 0.9321 0.75848 0.66709 0.0
H1598 H 0.93259 0.74698 0.74962 0.0
H1599 H 0.90525 0.77085 0.69054 0.0
H1600 H 0.88293 0.82195 0.74701 0.0
H1601 H 0.90964 0.80629 0.72549 0.0
H1602 H 0.89452 0.74005 0.75373 0.0
H1603 H 0.86845 0.75608 0.77579 0.0
C1604 C 0.94693 0.74124 0.71781 0.0
C1605 C 0.94781 0.7456 0.69493 0.0
C1606 C 0.93188 0.7488 0.73136 0.0
C1607 C 0.91741 0.76059 0.72209 0.0
C1608 C 0.91674 0.76246 0.69829 0.0
C1609 C 0.93177 0.75483 0.6847 0.0
C1610 C 0.88589 0.80447 0.74922 0.0
C1611 C 0.87351 0.78992 0.76267 0.0
C1612 C 0.90082 0.7953 0.73657 0.0
C1613 C 0.90355 0.77162 0.73743 0.0
C1614 C 0.89255 0.75824 0.75261 0.0
C1615 C 0.87767 0.76739 0.76522 0.0
H1616 H 0.16257 0.02317 0.86597 0.0
H1617 H 0.10567 0.0287 0.8248 0.0
H1618 H 0.14385 0.02521 0.90146 0.0
H1619 H 0.08711 0.03073 0.85966 0.0
H1620 H 0.04827 0.01303 0.91906 0.0
H1621 H 0.06867 0.01191 0.88587 0.0
H1622 H 0.12843 0.04501 0.93454 0.0
H1623 H 0.10744 0.04589 0.96846 0.0
C1624 C 0.14613 0.02496 0.86429 0.0
C1625 C 0.13609 0.02596 0.84182 0.0
C1626 C 0.13519 0.02622 0.88499 0.0
C1627 C 0.1134 0.02807 0.8844 0.0
C1628 C 0.10353 0.02898 0.86179 0.0
C1629 C 0.11449 0.02806 0.84135 0.0
C1630 C 0.0658 0.02024 0.92309 0.0
C1631 C 0.07571 0.02966 0.9472 0.0
C1632 C 0.07778 0.01978 0.90354 0.0
C1633 C 0.10077 0.0286 0.90648 0.0
C1634 C 0.11092 0.03786 0.93072 0.0
C1635 C 0.09873 0.03855 0.95054 0.0
H1636 H 0.79661 0.36685 0.56089 0.0
H1637 H 0.85463 0.42644 0.5648 0.0
H1638 H 0.81325 0.35665 0.59583 0.0
H1639 H 0.87193 0.41508 0.59834 0.0
H1640 H 0.8812 0.39315 0.67341 0.0
H1641 H 0.86915 0.41109 0.64133 0.0
H1642 H 0.84478 0.3368 0.5955 0.0
H1643 H 0.85619 0.31897 0.62702 0.0
C1644 C 0.81284 0.37776 0.56932 0.0
C1645 C 0.82487 0.39642 0.55964 0.0
C1646 C 0.82241 0.37188 0.58904 0.0
C1647 C 0.84411 0.38454 0.59894 0.0
C1648 C 0.85534 0.40483 0.59063 0.0
C1649 C 0.84562 0.41093 0.57116 0.0
C1650 C 0.87408 0.38086 0.65614 0.0
C1651 C 0.86946 0.35471 0.65281 0.0
C1652 C 0.86701 0.39105 0.63797 0.0
C1653 C 0.85534 0.37507 0.61653 0.0
C1654 C 0.8532 0.34933 0.61225 0.0
C1655 C 0.86027 0.33921 0.63019 0.0
H1656 H 0.4465 0.04261 0.37633 0.0
H1657 H 0.48509 1.0012 0.33604 0.0
H1658 H 0.46235 0.03505 0.41264 0.0
H1659 H 0.50103 0.99381 0.37253 0.0
H1660 H 0.55343 0.05142 0.434 0.0
H1661 H 0.52661 0.03623 0.39799 0.0
H1662 H 0.47652 0.01011 0.43934 0.0
H1663 H 0.50347 0.0241 0.47476 0.0
C1664 C 0.45753 0.03087 0.37509 0.0
C1665 C 0.46579 0.02389 0.35393 0.0
C1666 C 0.4665 0.02639 0.39584 0.0
C1667 C 0.48353 0.01494 0.39511 0.0
C1668 C 0.4883 1.00335 0.37326 0.0
C1669 C 0.4793 1.00775 0.35253 0.0
C1670 C 0.53666 0.0426 0.43529 0.0
C1671 C 0.53018 0.03945 0.45708 0.0
C1672 C 0.52149 0.03346 0.41479 0.0
C1673 C 0.49975 0.02148 0.41613 0.0
C1674 C 0.49328 0.01892 0.438 0.0
C1675 C 0.50852 0.02752 0.45828 0.0
H1676 H 0.83869 0.75375 0.08021 0.0
H1677 H 0.76883 0.73298 0.06147 0.0
H1678 H 0.83496 0.76531 0.12202 0.0
H1679 H 0.7651 0.74464 0.10375 0.0
H1680 H 0.77168 0.78764 0.18423 0.0
H1681 H 0.77279 0.77932 0.14108 0.0
H1682 H 0.82186 0.74046 0.15007 0.0
H1683 H 0.82102 0.74898 0.19261 0.0
C1684 C 0.8225 0.75211 0.08493 0.0
C1685 C 0.80404 0.74232 0.06739 0.0
C1686 C 0.82036 0.7585 0.10901 0.0
C1687 C 0.7997 0.75551 0.1163 0.0
C1688 C 0.78124 0.74711 0.09874 0.0
C1689 C 0.78337 0.74037 0.07453 0.0
C1690 C 0.78249 0.77709 0.17686 0.0
C1691 C 0.79641 0.7692 0.19189 0.0
C1692 C 0.78316 0.77237 0.15219 0.0
C1693 C 0.79772 0.75964 0.14218 0.0
C1694 C 0.8109 0.75093 0.15721 0.0
C1695 C 0.81031 0.75571 0.18166 0.0
H1696 H 0.15066 0.03239 0.6931 0.0
H1697 H 0.08607 0.99275 0.7007 0.0
H1698 H 0.1362 0.0409 0.65617 0.0
H1699 H 0.07169 0.99981 0.66377 0.0
H1700 H 0.04338 0.02399 0.60104 0.0
H1701 H 0.05856 0.01768 0.63844 0.0
H1702 H 0.12307 0.03825 0.61888 0.0
H1703 H 0.10743 0.04567 0.58206 0.0
C1704 C 0.13339 0.02513 0.68682 0.0
C1705 C 0.11978 0.01184 0.70048 0.0
C1706 C 0.12484 0.02999 0.66524 0.0
C1707 C 0.10224 0.02153 0.65599 0.0
C1708 C 0.08893 1.00765 0.66961 0.0
C1709 C 0.0974 1.00319 0.69118 0.0
C1710 C 0.06084 0.02732 0.60485 0.0
C1711 C 0.07404 0.03535 0.58826 0.0
C1712 C 0.06982 0.02336 0.62653 0.0
C1713 C 0.09255 0.02683 0.63266 0.0
C1714 C 0.10567 0.03525 0.61584 0.0
C1715 C 0.09663 0.03947 0.59428 0.0
H1716 H 0.86405 0.38686 0.45396 0.0
H1717 H 0.80511 0.40951 0.44179 0.0
H1718 H 0.85545 0.35921 0.41447 0.0
H1719 H 0.7965 0.38148 0.40219 0.0
H1720 H 0.80233 0.34841 0.3248 0.0
H1721 H 0.81159 0.37735 0.36372 0.0
H1722 H 0.82655 0.31941 0.39498 0.0
H1723 H 0.81714 0.29017 0.3557 0.0
C1724 C 0.84941 0.38623 0.44275 0.0
C1725 C 0.83521 0.40035 0.45096 0.0
C1726 C 0.84441 0.37016 0.42028 0.0
C1727 C 0.82526 0.36811 0.40557 0.0
C1728 C 0.81142 0.38286 0.41332 0.0
C1729 C 0.81634 0.39886 0.43591 0.0
C1730 C 0.80774 0.3419 0.33997 0.0
C1731 C 0.80918 0.3172 0.33747 0.0
C1732 C 0.81283 0.35838 0.36219 0.0
C1733 C 0.81972 0.35051 0.38217 0.0
C1734 C 0.82138 0.32586 0.37967 0.0
C1735 C 0.81598 0.30919 0.35738 0.0
H1736 H 0.46922 0.04891 0.22044 0.0
H1737 H 0.45935 0.97796 0.24065 0.0
H1738 H 0.46746 0.02717 0.17893 0.0
H1739 H 0.45784 0.95665 0.19936 0.0
H1740 H 0.45851 0.96804 0.1048 0.0
H1741 H 0.44064 0.97354 0.14067 0.0
H1742 H 0.50192 0.98554 0.18446 0.0
H1743 H 0.5197 0.98073 0.1496 0.0
C1744 C 0.46615 0.02871 0.21593 0.0
C1745 C 0.46528 0.0152 0.23369 0.0
C1746 C 0.46467 0.01627 0.19225 0.0
C1747 C 0.46222 0.99034 0.18631 0.0
C1748 C 0.45934 0.97659 0.20373 0.0
C1749 C 0.46079 0.98894 0.22732 0.0
C1750 C 0.46782 0.97065 0.12206 0.0
C1751 C 0.49044 0.97395 0.12442 0.0
C1752 C 0.45767 0.97391 0.14239 0.0
C1753 C 0.47013 0.97995 0.16487 0.0
C1754 C 0.49209 0.98041 0.16707 0.0
C1755 C 0.50219 0.97736 0.14701 0.0
H1756 H 0.77586 0.71065 0.92202 0.0
H1757 H 0.82424 0.77729 0.96169 0.0
H1758 H 0.77933 0.72591 0.88582 0.0
H1759 H 0.82679 0.79354 0.92619 0.0
H1760 H 0.84723 0.80584 0.85619 0.0
H1761 H 0.84113 0.79153 0.89227 0.0
H1762 H 0.77528 0.75018 0.86015 0.0
H1763 H 0.78211 0.76363 0.82351 0.0
C1764 C 0.78666 0.72902 0.9232 0.0
C1765 C 0.79967 0.74272 0.94487 0.0
C1766 C 0.78877 0.73789 0.90229 0.0
C1767 C 0.80371 0.76098 0.90247 0.0
C1768 C 0.81565 0.77532 0.92466 0.0
C1769 C 0.81388 0.7662 0.94534 0.0
C1770 C 0.83151 0.79348 0.85676 0.0
C1771 C 0.81525 0.78575 0.83683 0.0
C1772 C 0.82779 0.78547 0.87776 0.0
C1773 C 0.80752 0.76965 0.87975 0.0
C1774 C 0.79123 0.76197 0.85962 0.0
C1775 C 0.79507 0.76982 0.83849 0.0
H1776 H 0.82986 0.08848 0.05074 0.0
H1777 H 0.83102 0.12025 0.98915 0.0
H1778 H 0.86269 0.07597 0.04227 0.0
H1779 H 0.8626 0.1061 0.97941 0.0
H1780 H 0.93102 0.09598 0.97938 0.0
H1781 H 0.89963 0.1116 0.98873 0.0
H1782 H 0.87398 0.04664 0.0166 0.0
H1783 H 0.90579 0.03219 0.00835 0.0
C1784 C 0.83713 0.09259 0.03533 0.0
C1785 C 0.82816 0.10538 0.02072 0.0
C1786 C 0.85578 0.08524 0.03025 0.0
C1787 C 0.86529 0.0898 0.00997 0.0
C1788 C 0.85612 0.10268 0.99541 0.0
C1789 C 0.83792 0.11068 1.00092 0.0
C1790 C 0.9186 0.08533 0.98763 0.0
C1791 C 0.92063 0.06312 0.99343 0.0
C1792 C 0.90056 0.09406 0.99284 0.0
C1793 C 0.88432 0.08057 1.00379 0.0
C1794 C 0.88638 0.05797 0.00888 0.0
C1795 C 0.90442 0.04947 1.00392 0.0
H1796 H 0.38008 0.41657 0.99839 0.0
H1797 H 0.38429 0.459 0.06995 0.0
H1798 H 0.41656 0.44062 0.99605 0.0
H1799 H 0.42062 0.48234 0.06891 0.0
H1800 H 0.48472 0.53137 0.0642 0.0
H1801 H 0.44837 0.50818 0.06429 0.0
H1802 H 0.45064 0.45774 0.99769 0.0
H1803 H 0.48706 0.48313 0.9972 0.0
C1804 C 0.38903 0.43114 0.01368 0.0
C1805 C 0.37949 0.43602 0.03435 0.0
C1806 C 0.41026 0.44509 0.01256 0.0
C1807 C 0.4226 0.46438 0.03215 0.0
C1808 C 0.41252 0.46861 0.05287 0.0
C1809 C 0.39141 0.45482 0.05382 0.0
C1810 C 0.47744 0.51527 0.04955 0.0
C1811 C 0.48899 0.50907 0.03082 0.0
C1812 C 0.45617 0.50136 0.04961 0.0
C1813 C 0.44555 0.47991 0.03127 0.0
C1814 C 0.45739 0.4738 0.01236 0.0
C1815 C 0.47865 0.48833 0.01204 0.0
H1816 H 0.36719 0.60866 0.74654 0.0
H1817 H 0.41715 0.65977 0.80064 0.0
H1818 H 0.34854 0.64162 0.74602 0.0
H1819 H 0.39876 0.69276 0.80034 0.0
H1820 H 0.36796 0.75664 0.78809 0.0
H1821 H 0.38727 0.72421 0.78738 0.0
H1822 H 0.32693 0.66712 0.76027 0.0
H1823 H 0.30784 0.69959 0.76099 0.0
C1824 C 0.37463 0.62706 0.75803 0.0
C1825 C 0.39443 0.63105 0.7731 0.0
C1826 C 0.36358 0.64631 0.75806 0.0
C1827 C 0.37158 0.67094 0.77314 0.0
C1828 C 0.39157 0.67482 0.78801 0.0
C1829 C 0.40241 0.65552 0.78816 0.0
C1830 C 0.35864 0.7372 0.78196 0.0
C1831 C 0.33587 0.73152 0.77467 0.0
C1832 C 0.3699 0.71814 0.78163 0.0
C1833 C 0.35927 0.69198 0.77366 0.0
C1834 C 0.33647 0.68645 0.76632 0.0
C1835 C 0.3252 0.70548 0.76692 0.0
H1836 H 0.21387 0.61974 0.47615 0.0
H1837 H 0.23379 0.56777 0.5121 0.0
H1838 H 0.18291 0.6183 0.4982 0.0
H1839 H 0.20308 0.56637 0.53449 0.0
H1840 H 0.12804 0.53669 0.52913 0.0
H1841 H 0.16533 0.54678 0.5211 0.0
H1842 H 0.16732 0.62538 0.53481 0.0
H1843 H 0.12934 0.61474 0.54224 0.0
C1844 C 0.2117 0.60834 0.48911 0.0
C1845 C 0.22573 0.59353 0.49231 0.0
C1846 C 0.19419 0.60771 0.50195 0.0
C1847 C 0.19039 0.59198 0.51792 0.0
C1848 C 0.2054 0.57841 0.52209 0.0
C1849 C 0.22296 0.57922 0.50939 0.0
C1850 C 0.1368 0.5562 0.53128 0.0
C1851 C 0.12624 0.57504 0.53661 0.0
C1852 C 0.15817 0.56205 0.52673 0.0
C1853 C 0.16936 0.58693 0.52734 0.0
C1854 C 0.15907 0.60604 0.53408 0.0
C1855 C 0.13753 0.60008 0.5386 0.0
H1856 H 0.73712 0.04644 0.79782 0.0
H1857 H 0.70336 0.98862 0.73566 0.0
H1858 H 0.75969 0.02007 0.80721 0.0
H1859 H 0.72641 0.96248 0.74464 0.0
H1860 H 0.74156 0.9101 0.78888 0.0
H1861 H 0.72434 0.94062 0.77723 0.0
H1862 H 0.78597 0.99748 0.79706 0.0
H1863 H 0.80295 0.96727 0.80913 0.0
C1864 C 0.73514 0.02845 0.7857 0.0
C1865 C 0.71814 0.01907 0.76655 0.0
C1866 C 0.74802 0.01338 0.79106 0.0
C1867 C 0.7441 0.98895 0.77711 0.0
C1868 C 0.72913 0.98099 0.75608 0.0
C1869 C 0.71623 0.99609 0.75073 0.0
C1870 C 0.75121 0.92927 0.79114 0.0
C1871 C 0.77348 0.93647 0.79985 0.0
C1872 C 0.74153 0.94657 0.78416 0.0
C1873 C 0.75408 0.97113 0.78564 0.0
C1874 C 0.77602 0.97863 0.79567 0.0
C1875 C 0.78564 0.96142 0.8028 0.0
H1876 H 0.74133 0.89244 0.51662 0.0
H1877 H 0.77663 0.97087 0.53523 0.0
H1878 H 0.70824 0.90358 0.50362 0.0
H1879 H 0.74411 0.98185 0.52306 0.0
H1880 H 0.69098 0.9994 0.48521 0.0
H1881 H 0.72076 0.98078 0.4891 0.0
H1882 H 0.68102 0.92404 0.51839 0.0
H1883 H 0.65038 0.94174 0.51286 0.0
C1884 C 0.74205 0.91198 0.51801 0.0
C1885 C 0.76172 0.93073 0.52698 0.0
C1886 C 0.72309 0.91839 0.5106 0.0
C1887 C 0.72348 0.94364 0.51192 0.0
C1888 C 0.74316 0.96217 0.52107 0.0
C1889 C 0.76191 0.95584 0.52836 0.0
C1890 C 0.68817 0.98248 0.49175 0.0
C1891 C 0.66818 0.97243 0.49908 0.0
C1892 C 0.7055 0.97198 0.49438 0.0
C1893 C 0.70362 0.95135 0.50482 0.0
C1894 C 0.68319 0.94006 0.51049 0.0
C1895 C 0.66566 0.95045 0.5076 0.0
H1896 H 0.36021 0.50135 0.77796 0.0
H1897 H 0.41846 0.48 0.76365 0.0
H1898 H 0.3414 0.45818 0.77647 0.0
H1899 H 0.39945 0.43592 0.76181 0.0
H1900 H 0.36079 0.35856 0.77908 0.0
H1901 H 0.38277 0.40127 0.77904 0.0
H1902 H 0.32427 0.41923 0.7552 0.0
H1903 H 0.30301 0.37813 0.75604 0.0
C1904 C 0.36898 0.4873 0.7739 0.0
C1905 C 0.39088 0.4947 0.77026 0.0
C1906 C 0.35804 0.46203 0.77297 0.0
C1907 C 0.36835 0.44239 0.76861 0.0
C1908 C 0.39047 0.44982 0.76512 0.0
C1909 C 0.40143 0.47533 0.76578 0.0
C1910 C 0.35267 0.37162 0.77375 0.0
C1911 C 0.32971 0.36425 0.76773 0.0
C1912 C 0.36537 0.39642 0.7737 0.0
C1913 C 0.35567 0.41488 0.76764 0.0
C1914 C 0.33289 0.40678 0.7609 0.0
C1915 C 0.32043 0.38252 0.76112 0.0
H1916 H 0.20173 0.59974 0.22702 0.0
H1917 H 0.20182 0.64159 0.2984 0.0
H1918 H 0.23152 0.6332 0.22179 0.0
H1919 H 0.23064 0.67587 0.29263 0.0
H1920 H 0.29727 0.71399 0.29547 0.0
H1921 H 0.26809 0.67646 0.2932 0.0
H1922 H 0.24742 0.6741 0.21944 0.0
H1923 H 0.27762 0.7098 0.22112 0.0
C1924 C 0.20766 0.61653 0.24125 0.0
C1925 C 0.20049 0.61786 0.26351 0.0
C1926 C 0.22468 0.63563 0.23826 0.0
C1927 C 0.23412 0.65622 0.25739 0.0
C1928 C 0.22442 0.65931 0.2782 0.0
C1929 C 0.20782 0.63997 0.2814 0.0
C1930 C 0.2871 0.70455 0.27855 0.0
C1931 C 0.2888 0.71507 0.25882 0.0
C1932 C 0.27019 0.68355 0.27732 0.0
C1933 C 0.25483 0.67361 0.25658 0.0
C1934 C 0.25877 0.68178 0.23579 0.0
C1935 C 0.27616 0.70218 0.23677 0.0
H1936 H 0.48858 0.70631 0.47568 0.0
H1937 H 0.54574 0.71453 0.44047 0.0
H1938 H 0.49931 0.67544 0.49402 0.0
H1939 H 0.55614 0.68293 0.45832 0.0
H1940 H 0.57556 0.63345 0.50494 0.0
H1941 H 0.56831 0.66999 0.49298 0.0
H1942 H 0.49936 0.63331 0.48123 0.0
H1943 H 0.50652 0.5975 0.4937 0.0
C1944 C 0.50352 0.70166 0.4719 0.0
C1945 C 0.51609 0.71278 0.45626 0.0
C1946 C 0.50961 0.68374 0.48233 0.0
C1947 C 0.5284 0.67621 0.47736 0.0
C1948 C 0.54159 0.68822 0.46266 0.0
C1949 C 0.53552 0.70628 0.45226 0.0
C1950 C 0.55885 0.6334 0.5001 0.0
C1951 C 0.54163 0.61249 0.50027 0.0
C1952 C 0.55469 0.65428 0.49305 0.0
C1953 C 0.53322 0.65476 0.48613 0.0
C1954 C 0.51609 0.63397 0.4868 0.0
C1955 C 0.52022 0.61321 0.49379 0.0
H1956 H 0.67226 0.31442 0.64515 0.0
H1957 H 0.64725 0.32117 0.71218 0.0
H1958 H 0.70583 0.30843 0.66473 0.0
H1959 H 0.67935 0.31438 0.73093 0.0
H1960 H 0.74398 0.32771 0.7701 0.0
H1961 H 0.71464 0.33458 0.74596 0.0
H1962 H 0.72549 0.28338 0.68494 0.0
H1963 H 0.75639 0.27732 0.70971 0.0
C1964 C 0.67382 0.31475 0.66396 0.0
C1965 C 0.65679 0.31869 0.67694 0.0
C1966 C 0.69309 0.31108 0.67523 0.0
C1967 C 0.69599 0.3114 0.69984 0.0
C1968 C 0.67862 0.31479 0.71231 0.0
C1969 C 0.65974 0.3185 0.70128 0.0
C1970 C 0.74046 0.31799 0.75147 0.0
C1971 C 0.75276 0.30183 0.74216 0.0
C1972 C 0.72318 0.32172 0.73746 0.0
C1973 C 0.71671 0.30899 0.71332 0.0
C1974 C 0.72963 0.29354 0.70341 0.0
C1975 C 0.74747 0.29004 0.71763 0.0
H1976 H 0.04483 0.33756 0.96258 0.0
H1977 H 0.97653 0.3336 0.95877 0.0
H1978 H 0.0539 0.38236 0.9807 0.0
H1979 H 0.98524 0.37825 0.97465 0.0
H1980 H 1.00384 0.45764 0.01609 0.0
H1981 H 0.99661 0.41229 1.00489 0.0
H1982 H 0.05589 0.42039 0.97307 0.0
H1983 H 0.06378 0.46551 0.98617 0.0
C1984 C 0.03178 0.3463 0.96566 0.0
C1985 C 0.00999 0.33204 0.95943 0.0
C1986 C 0.03692 0.3721 0.97577 0.0
C1987 C 0.02036 0.38437 0.97913 0.0
C1988 C 0.99858 0.36978 0.97308 0.0
C1989 C 0.99351 0.34399 0.96374 0.0
C1990 C 0.01537 0.44958 0.00692 0.0
C1991 C 0.03441 0.46504 1.00216 0.0
C1992 C 0.01118 0.42351 1.00023 0.0
C1993 C 0.02558 0.41224 0.98786 0.0
C1994 C 0.0446 0.42799 0.98305 0.0
C1995 C 0.04908 0.454 0.99038 0.0
H1996 H 0.01777 0.8192 0.1336 0.0
H1997 H 0.04372 0.77789 0.17817 0.0
H1998 H 0.98318 0.80823 0.14751 0.0
H1999 H 0.00846 0.76504 0.19102 0.0
H2000 H 0.95299 0.77139 0.23318 0.0
H2001 H 0.98555 0.7753 0.21476 0.0
H2002 H 0.95097 0.78589 0.15176 0.0
H2003 H 0.9188 0.78374 0.17135 0.0
C2004 C 0.01593 0.80721 0.14605 0.0
C2005 C 0.03372 0.79972 0.15497 0.0
C2006 C 0.99578 0.80063 0.15402 0.0
C2007 C 0.99251 0.7859 0.17095 0.0
C2008 C 0.01011 0.77715 0.17873 0.0
C2009 C 0.03045 0.78423 0.1711 0.0
C2010 C 0.95228 0.77431 0.21527 0.0
C2011 C 0.93326 0.77744 0.20388 0.0
C2012 C 0.97112 0.77642 0.20445 0.0
C2013 C 0.97154 0.78123 0.18153 0.0
C2014 C 0.95199 0.78306 0.16965 0.0
C2015 C 0.93327 0.78157 0.1808 0.0
H2016 H 0.51719 0.28264 0.08503 0.0
H2017 H 0.50492 0.3391 0.14015 0.0
H2018 H 0.53754 0.31522 0.06747 0.0
H2019 H 0.52328 0.3717 0.12184 0.0
H2020 H 0.5618 0.42959 0.09119 0.0
H2021 H 0.55307 0.39632 0.11253 0.0
H2022 H 0.53221 0.34159 0.04498 0.0
H2023 H 0.54275 0.37451 0.02428 0.0
C2024 C 0.51849 0.30211 0.09293 0.0
C2025 C 0.50909 0.30867 0.1133 0.0
C2026 C 0.5301 0.32083 0.08298 0.0
C2027 C 0.53189 0.34631 0.09292 0.0
C2028 C 0.52268 0.35252 0.11373 0.0
C2029 C 0.5117 0.33387 0.12399 0.0
C2030 C 0.55589 0.41028 0.08115 0.0
C2031 C 0.55293 0.40444 0.0562 0.0
C2032 C 0.55061 0.3912 0.09327 0.0
C2033 C 0.54147 0.36609 0.08058 0.0
C2034 C 0.53951 0.36043 0.05557 0.0
C2035 C 0.54541 0.37936 0.04358 0.0
H2036 H 0.05637 0.31784 0.30563 0.0
H2037 H 0.03573 0.32137 0.3749 0.0
H2038 H 0.02066 0.32074 0.28957 0.0
H2039 H 1.00063 0.32368 0.35914 0.0
H2040 H 0.94712 0.35105 0.33103 0.0
H2041 H 0.98466 0.35257 0.34372 0.0
H2042 H 0.9821 0.29359 0.28202 0.0
H2043 H 0.94443 0.29287 0.26884 0.0
C2044 C 0.0443 0.31933 0.31741 0.0
C2045 C 0.04868 0.31893 0.34144 0.0
C2046 C 0.02392 0.3208 0.30822 0.0
C2047 C 0.00796 0.32234 0.32314 0.0
C2048 C 0.01269 0.32269 0.34726 0.0
C2049 C 0.03282 0.32102 0.35628 0.0
C2050 C 0.95465 0.33843 0.32025 0.0
C2051 C 0.94311 0.32162 0.29923 0.0
C2052 C 0.97605 0.33932 0.32743 0.0
C2053 C 0.98614 0.32309 0.31389 0.0
C2054 C 0.97469 0.30649 0.29257 0.0
C2055 C 0.95323 0.30587 0.28518 0.0
H2056 H 0.9979 0.70651 0.58526 0.0
H2057 H 0.01869 0.68768 0.65027 0.0
H2058 H 0.01024 0.67323 0.5622 0.0
H2059 H 0.03005 0.65287 0.62694 0.0
H2060 H 0.06591 0.60716 0.57597 0.0
H2061 H 0.05526 0.64068 0.60211 0.0
H2062 H 0.99933 0.6299 0.54979 0.0
H2063 H 0.0105 0.59761 0.52366 0.0
C2064 C 1.00506 0.69503 0.59459 0.0
C2065 C 0.0073 0.69953 0.61949 0.0
C2066 C 0.01194 0.67574 0.58136 0.0
C2067 C 0.02074 0.65992 0.59262 0.0
C2068 C 0.02346 0.66477 0.61769 0.0
C2069 C 0.01695 0.68461 0.63106 0.0
C2070 C 0.05141 0.61215 0.57019 0.0
C2071 C 0.03927 0.60025 0.54767 0.0
C2072 C 0.04519 0.63117 0.58519 0.0
C2073 C 0.02667 0.63842 0.5779 0.0
C2074 C 0.01408 0.6255 0.55574 0.0
C2075 C 0.0204 0.60681 0.54077 0.0
H2076 H 0.63867 0.80678 0.79596 0.0
H2077 H 0.67776 0.833 0.86564 0.0
H2078 H 0.67124 0.80601 0.77764 0.0
H2079 H 0.71038 0.83202 0.84707 0.0
H2080 H 0.76466 0.84659 0.80155 0.0
H2081 H 0.73206 0.85301 0.81741 0.0
H2082 H 0.69652 0.77732 0.78072 0.0
H2083 H 0.7292 0.77079 0.76478 0.0
C2084 C 0.65421 0.81244 0.80734 0.0
C2085 C 0.65574 0.81949 0.8322 0.0
C2086 C 0.67275 0.81201 0.79684 0.0
C2087 C 0.693 0.81873 0.81107 0.0
C2088 C 0.69477 0.82687 0.83586 0.0
C2089 C 0.67618 0.82725 0.84642 0.0
C2090 C 0.74973 0.83157 0.79637 0.0
C2091 C 0.74917 0.80829 0.78179 0.0
C2092 C 0.73126 0.83517 0.80565 0.0
C2093 C 0.71204 0.81566 0.80013 0.0
C2094 C 0.71126 0.79265 0.7849 0.0
C2095 C 0.72982 0.78892 0.77587 0.0
H2096 H 0.45018 0.54436 0.67174 0.0
H2097 H 0.51193 0.59368 0.7074 0.0
H2098 H 0.46515 0.53984 0.6338 0.0
H2099 H 0.52671 0.58932 0.67125 0.0
H2100 H 0.5564 0.5856 0.60462 0.0
H2101 H 0.53969 0.5884 0.63945 0.0
H2102 H 0.48073 0.53501 0.59983 0.0
H2103 H 0.49847 0.5326 0.56357 0.0
C2104 C 0.46689 0.55441 0.67173 0.0
C2105 C 0.47947 0.56958 0.69349 0.0
C2106 C 0.47576 0.55176 0.64959 0.0
C2107 C 0.49771 0.56415 0.64788 0.0
C2108 C 0.50992 0.57916 0.66995 0.0
C2109 C 0.50117 0.58175 0.69166 0.0
C2110 C 0.53976 0.57433 0.60284 0.0
C2111 C 0.52921 0.55899 0.58039 0.0
C2112 C 0.52974 0.57583 0.62367 0.0
C2113 C 0.5081 0.56195 0.62408 0.0
C2114 C 0.49725 0.54637 0.60139 0.0
C2115 C 0.50751 0.54492 0.58011 0.0
H2116 H 0.79111 0.17215 0.9587 0.0
H2117 H 0.74294 0.19299 1.00017 0.0
H2118 H 0.77496 0.18376 0.92497 0.0
H2119 H 0.7267 0.2054 0.96597 0.0
H2120 H 0.7447 0.26152 0.91231 0.0
H2121 H 0.74267 0.24052 0.94486 0.0
H2122 H 0.73997 0.17087 0.89586 0.0
H2123 H 0.74228 0.19204 0.86312 0.0
C2124 C 0.77709 0.17947 0.96056 0.0
C2125 C 0.76839 0.18219 0.98196 0.0
C2126 C 0.76756 0.18559 0.94112 0.0
C2127 C 0.74928 0.19487 0.94278 0.0
C2128 C 0.74058 0.19783 0.96428 0.0
C2129 C 0.7499 0.19104 0.98375 0.0
C2130 C 0.74241 0.24143 0.90822 0.0
C2131 C 0.74402 0.22841 0.88536 0.0
C2132 C 0.74124 0.22941 0.92691 0.0
C2133 C 0.74158 0.20428 0.92281 0.0
C2134 C 0.73995 0.1904 0.89936 0.0
C2135 C 0.74126 0.20245 0.88069 0.0
H2136 H 0.1344 0.57741 0.18985 0.0
H2137 H 0.13564 0.50245 0.15643 0.0
H2138 H 0.11902 0.58256 0.15172 0.0
H2139 H 0.12013 0.50746 0.1182 0.0
H2140 H 0.05144 0.51238 0.08604 0.0
H2141 H 0.07949 0.51166 0.11686 0.0
H2142 H 0.12146 0.57919 0.10492 0.0
H2143 H 0.09333 0.57986 0.07381 0.0
C2144 C 0.13222 0.56252 0.17401 0.0
C2145 C 0.13583 0.53949 0.1756 0.0
C2146 C 0.12359 0.56549 0.15233 0.0
C2147 C 0.11832 0.54524 0.1324 0.0
C2148 C 0.12415 0.52319 0.13355 0.0
C2149 C 0.13297 0.52033 0.15521 0.0
C2150 C 0.0667 0.52693 0.08994 0.0
C2151 C 0.07046 0.54609 0.07776 0.0
C2152 C 0.08277 0.52636 0.10723 0.0
C2153 C 0.10265 0.54504 0.11257 0.0
C2154 C 0.10632 0.56443 0.10061 0.0
C2155 C 0.0903 0.56483 0.08306 0.0
H2156 H 0.7904 0.82543 0.4697 0.0
H2157 H 0.85495 0.87076 0.46875 0.0
H2158 H 0.78594 0.81013 0.42622 0.0
H2159 H 0.85022 0.85727 0.42575 0.0
H2160 H 0.84661 0.81374 0.35149 0.0
H2161 H 0.84963 0.82468 0.39462 0.0
H2162 H 0.78093 0.8197 0.38916 0.0
H2163 H 0.77776 0.80758 0.34608 0.0
C2164 C 0.80355 0.83215 0.46014 0.0
C2165 C 0.8232 0.8488 0.47253 0.0
C2166 C 0.80101 0.8236 0.43521 0.0
C2167 C 0.81787 0.83211 0.42223 0.0
C2168 C 0.83715 0.84943 0.43491 0.0
C2169 C 0.83985 0.85736 0.45964 0.0
C2170 C 0.83212 0.81482 0.35947 0.0
C2171 C 0.81201 0.80996 0.34518 0.0
C2172 C 0.83385 0.82135 0.38433 0.0
C2173 C 0.81557 0.82348 0.39567 0.0
C2174 C 0.79537 0.81811 0.38131 0.0
C2175 C 0.79361 0.8114 0.35645 0.0
H2176 H 0.44621 0.57364 0.85197 0.0
H2177 H 0.49963 0.55571 0.81891 0.0
H2178 H 0.46201 0.5678 0.88965 0.0
H2179 H 0.51599 0.5509 0.85657 0.0
H2180 H 0.53519 0.52431 0.92329 0.0
H2181 H 0.51904 0.5296 0.88558 0.0
H2182 H 0.48627 0.57972 0.92412 0.0
H2183 H 0.50251 0.5742 0.96166 0.0
C2184 C 0.4614 0.56855 0.85263 0.0
C2185 C 0.47129 0.565 0.8318 0.0
C2186 C 0.47075 0.56534 0.8746 0.0
C2187 C 0.49065 0.55868 0.87703 0.0
C2188 C 0.50056 0.55542 0.8561 0.0
C2189 C 0.49111 0.55837 0.83415 0.0
C2190 C 0.5245 0.53645 0.92377 0.0
C2191 C 0.52038 0.54879 0.94597 0.0
C2192 C 0.51521 0.53974 0.90186 0.0
C2193 C 0.50095 0.55523 0.90091 0.0
C2194 C 0.49678 0.5674 0.92329 0.0
C2195 C 0.50637 0.56442 0.94518 0.0
H2196 H 0.78814 0.21634 0.07809 0.0
H2197 H 0.79592 0.15737 0.1119 0.0
H2198 H 0.78553 0.24214 0.11649 0.0
H2199 H 0.79332 0.18305 0.15049 0.0
H2200 H 0.82188 0.2498 0.21431 0.0
H2201 H 0.81794 0.22085 0.17594 0.0
H2202 H 0.76464 0.24697 0.14972 0.0
H2203 H 0.76932 0.27688 0.18834 0.0
C2204 C 0.78922 0.209 0.09387 0.0
C2205 C 0.79263 0.1853 0.09248 0.0
C2206 C 0.78745 0.22354 0.11571 0.0
C2207 C 0.78942 0.21466 0.13646 0.0
C2208 C 0.79201 0.19045 0.13478 0.0
C2209 C 0.79347 0.17577 0.11285 0.0
C2210 C 0.8093 0.24925 0.20029 0.0
C2211 C 0.79593 0.26543 0.20388 0.0
C2212 C 0.80688 0.23254 0.17846 0.0
C2213 C 0.79083 0.23148 0.15995 0.0
C2214 C 0.77725 0.24758 0.16369 0.0
C2215 C 0.7799 0.26463 0.18559 0.0
H2216 H 0.16065 0.60372 0.30211 0.0
H2217 H 0.09828 0.55034 0.29501 0.0
H2218 H 0.15478 0.62708 0.33982 0.0
H2219 H 0.09153 0.57451 0.33224 0.0
H2220 H 0.08003 0.61401 0.396 0.0
H2221 H 0.08888 0.61648 0.35666 0.0
H2222 H 0.15286 0.60905 0.37713 0.0
H2223 H 0.14423 0.60719 0.41687 0.0
C2224 C 0.14566 0.59711 0.30855 0.0
C2225 C 0.13035 0.57469 0.2965 0.0
C2226 C 0.14208 0.61082 0.32983 0.0
C2227 C 0.12281 0.60253 0.33887 0.0
C2228 C 0.10648 0.58147 0.32544 0.0
C2229 C 0.1103 0.56754 0.3043 0.0
C2230 C 0.0965 0.61462 0.3927 0.0
C2231 C 0.11133 0.60979 0.4092 0.0
C2232 C 0.10144 0.61582 0.37007 0.0
C2233 C 0.12123 0.6123 0.36387 0.0
C2234 C 0.13742 0.61177 0.38156 0.0
C2235 C 0.13249 0.61062 0.40426 0.0
H2236 H 0.84982 0.84698 0.60555 0.0
H2237 H 0.78285 0.8489 0.59431 0.0
H2238 H 0.84424 0.83398 0.64218 0.0
H2239 H 0.77723 0.83575 0.63166 0.0
H2240 H 0.77163 0.78965 0.68974 0.0
H2241 H 0.77525 0.80222 0.65219 0.0
H2242 H 0.83956 0.8502 0.68192 0.0
H2243 H 0.8361 0.8369 0.71931 0.0
C2244 C 0.83372 0.84435 0.61068 0.0
C2245 C 0.81677 0.84902 0.59666 0.0
C2246 C 0.83062 0.83717 0.63207 0.0
C2247 C 0.8104 0.83416 0.64032 0.0
C2248 C 0.79309 0.8379 0.62597 0.0
C2249 C 0.79628 0.84545 0.6045 0.0
C2250 C 0.78652 0.80303 0.68833 0.0
C2251 C 0.80361 0.81228 0.70758 0.0
C2252 C 0.78854 0.81034 0.66675 0.0
C2253 C 0.80771 0.82721 0.66378 0.0
C2254 C 0.82466 0.83684 0.68328 0.0
C2255 C 0.82266 0.8294 0.70485 0.0
H2256 H 0.75519 0.46684 0.49098 0.0
H2257 H 0.77249 0.48043 0.56723 0.0
H2258 H 0.72262 0.48117 0.49721 0.0
H2259 H 0.74011 0.49457 0.57339 0.0
H2260 H 0.66744 0.49427 0.57016 0.0
H2261 H 0.69835 0.47632 0.56394 0.0
H2262 H 0.71916 0.52475 0.51675 0.0
H2263 H 0.68846 0.54235 0.52291 0.0
C2264 C 0.75182 0.47261 0.50895 0.0
C2265 C 0.7661 0.47276 0.52865 0.0
C2266 C 0.7334 0.48081 0.51252 0.0
C2267 C 0.72909 0.48876 0.53575 0.0
C2268 C 0.74312 0.48824 0.55536 0.0
C2269 C 0.76164 0.48042 0.55182 0.0
C2270 C 0.67879 0.50093 0.5586 0.0
C2271 C 0.676 0.51943 0.54691 0.0
C2272 C 0.69625 0.49079 0.55503 0.0
C2273 C 0.71068 0.49906 0.53963 0.0
C2274 C 0.70789 0.51782 0.52828 0.0
C2275 C 0.6906 0.52796 0.53193 0.0
H2276 H 0.20635 0.15455 0.47522 0.0
H2277 H 0.22375 0.12743 0.53644 0.0
H2278 H 0.16788 0.13374 0.47518 0.0
H2279 H 0.18578 0.10659 0.53624 0.0
H2280 H 0.11373 0.08676 0.54298 0.0
H2281 H 0.15096 0.11185 0.54376 0.0
H2282 H 0.1422 0.09267 0.46689 0.0
H2283 H 0.10502 0.06777 0.46626 0.0
C2284 C 0.20204 0.14429 0.48873 0.0
C2285 C 0.21837 0.14277 0.5058 0.0
C2286 C 0.17992 0.13216 0.48864 0.0
C2287 C 0.17343 0.11833 0.50575 0.0
C2288 C 0.18982 0.11725 0.52297 0.0
C2289 C 0.21181 0.12916 0.52296 0.0
C2290 C 0.11968 0.08813 0.52625 0.0
C2291 C 0.1063 0.07516 0.50455 0.0
C2292 C 0.14117 0.1024 0.52665 0.0
C2293 C 0.14993 0.10438 0.50536 0.0
C2294 C 0.13621 0.09194 0.48368 0.0
C2295 C 0.11483 0.07747 0.48331 0.0
H2296 H 0.18427 0.92838 0.75826 0.0
H2297 H 0.24496 0.97987 0.79395 0.0
H2298 H 0.20136 0.8936 0.75445 0.0
H2299 H 0.26204 0.94572 0.7903 0.0
H2300 H 0.2959 0.88302 0.77344 0.0
H2301 H 0.27823 0.91647 0.77423 0.0
H2302 H 0.21564 0.86299 0.76611 0.0
H2303 H 0.23363 0.82926 0.76483 0.0
C2304 C 0.20141 0.93264 0.7649 0.0
C2305 C 0.21296 0.95785 0.77611 0.0
C2306 C 0.21139 0.91226 0.76301 0.0
C2307 C 0.23369 0.91572 0.77194 0.0
C2308 C 0.24515 0.94111 0.78268 0.0
C2309 C 0.23513 0.96126 0.78488 0.0
C2310 C 0.27832 0.87807 0.77175 0.0
C2311 C 0.26666 0.85261 0.76907 0.0
C2312 C 0.26789 0.89777 0.77241 0.0
C2313 C 0.2449 0.89363 0.7705 0.0
C2314 C 0.23318 0.86799 0.76755 0.0
C2315 C 0.24369 0.8482 0.7669 0.0
H2316 H 0.3863 0.01541 0.04431 0.0
H2317 H 0.37966 0.94504 0.99467 0.0
H2318 H 0.42543 0.02785 0.04127 0.0
H2319 H 0.41836 0.95672 0.99242 0.0
H2320 H 0.49203 0.97922 0.0282 0.0
H2321 H 0.45283 0.96858 0.03037 0.0
H2322 H 0.44733 0.03089 1.00033 0.0
H2323 H 0.48628 0.04089 0.9973 0.0
C2324 C 0.39322 1.00288 0.03258 0.0
C2325 C 0.38041 0.97928 0.01981 0.0
C2326 C 0.41535 0.0098 0.031 0.0
C2327 C 0.42447 0.99292 0.01686 0.0
C2328 C 0.41146 0.96969 1.00365 0.0
C2329 C 0.38946 0.96302 1.00498 0.0
C2330 C 0.4822 0.99014 0.02162 0.0
C2331 C 0.49155 0.01034 0.01209 0.0
C2332 C 0.4601 0.98432 0.02308 0.0
C2333 C 0.44759 0.99923 0.01569 0.0
C2334 C 0.45698 0.01943 0.00618 0.0
C2335 C 0.47895 0.02482 1.00412 0.0
H2336 H 0.90263 0.56454 0.74753 0.0
H2337 H 0.88658 0.58895 0.81773 0.0
H2338 H 0.8796 0.5875 0.73143 0.0
H2339 H 0.86453 0.61289 0.80209 0.0
H2340 H 0.81735 0.64381 0.76784 0.0
H2341 H 0.83261 0.61097 0.77703 0.0
H2342 H 0.8839 0.6318 0.73513 0.0
H2343 H 0.86781 0.66411 0.72525 0.0
C2344 C 0.89403 0.57477 0.7594 0.0
C2345 C 0.89638 0.57546 0.7838 0.0
C2346 C 0.88098 0.58788 0.75026 0.0
C2347 C 0.87052 0.6021 0.76556 0.0
C2348 C 0.87214 0.60174 0.78981 0.0
C2349 C 0.88482 0.58822 0.79882 0.0
C2350 C 0.83165 0.64086 0.76031 0.0
C2351 C 0.84162 0.65604 0.74596 0.0
C2352 C 0.84041 0.62229 0.76561 0.0
C2353 C 0.85946 0.61901 0.7569 0.0
C2354 C 0.86901 0.63377 0.74179 0.0
C2355 C 0.86005 0.65229 0.7363 0.0
H2356 H 0.83982 0.64832 0.97735 0.0
H2357 H 0.84343 0.6771 0.0528 0.0
H2358 H 0.87124 0.6327 0.98437 0.0
H2359 H 0.87521 0.66113 0.06021 0.0
H2360 H 0.94412 0.64535 0.05898 0.0
H2361 H 0.91348 0.66405 0.0555 0.0
H2362 H 0.87895 0.59972 0.99925 0.0
H2363 H 0.90967 0.58206 1.00212 0.0
C2364 C 0.84745 0.65125 0.99551 0.0
C2365 C 0.8391 0.66349 0.01454 0.0
C2366 C 0.86538 0.64215 0.99961 0.0
C2367 C 0.87559 0.64513 0.02292 0.0
C2368 C 0.86769 0.65833 0.04205 0.0
C2369 C 0.84944 0.66728 0.03788 0.0
C2370 C 0.92989 0.6354 0.04594 0.0
C2371 C 0.92929 0.61254 0.03048 0.0
C2372 C 0.91232 0.64597 0.044 0.0
C2373 C 0.89385 0.63366 0.02674 0.0
C2374 C 0.89311 0.6102 0.01219 0.0
C2375 C 0.91064 0.59995 0.01389 0.0
H2376 H 0.20522 0.11537 0.81599 0.0
H2377 H 0.22579 0.07801 0.75339 0.0
H2378 H 0.22434 0.15622 0.80958 0.0
H2379 H 0.24509 0.11865 0.74684 0.0
H2380 H 0.2974 0.19301 0.75353 0.0
H2381 H 0.27484 0.15309 0.75714 0.0
H2382 H 0.2308 0.19059 0.79109 0.0
H2383 H 0.25403 0.23118 0.78758 0.0
C2384 C 0.21377 0.11577 0.80072 0.0
C2385 C 0.21372 0.09284 0.78532 0.0
C2386 C 0.22482 0.13952 0.79689 0.0
C2387 C 0.23692 0.14175 0.77771 0.0
C2388 C 0.23656 0.11862 0.76213 0.0
C2389 C 0.22516 0.09489 0.76574 0.0
C2390 C 0.28276 0.19298 0.76154 0.0
C2391 C 0.27786 0.21599 0.76998 0.0
C2392 C 0.2695 0.1696 0.76356 0.0
C2393 C 0.25044 0.16754 0.77449 0.0
C2394 C 0.24523 0.19063 0.78271 0.0
C2395 C 0.25853 0.21425 0.78041 0.0
H2396 H 0.37517 0.98987 0.26535 0.0
H2397 H 0.43289 0.96791 0.28412 0.0
H2398 H 0.35433 0.94592 0.2531 0.0
H2399 H 0.41211 0.92469 0.27496 0.0
H2400 H 0.36899 0.8507 0.27397 0.0
H2401 H 0.39 0.88657 0.26185 0.0
H2402 H 0.34154 0.92583 0.28119 0.0
H2403 H 0.31948 0.8883 0.29026 0.0
C2404 C 0.38339 0.97545 0.26621 0.0
C2405 C 0.40512 0.98168 0.27651 0.0
C2406 C 0.37153 0.95041 0.25957 0.0
C2407 C 0.3811 0.93203 0.26501 0.0
C2408 C 0.40384 0.93822 0.27116 0.0
C2409 C 0.41587 0.9631 0.27663 0.0
C2410 C 0.36335 0.86746 0.27621 0.0
C2411 C 0.34316 0.86745 0.28356 0.0
C2412 C 0.37516 0.88787 0.26893 0.0
C2413 C 0.36745 0.90915 0.27009 0.0
C2414 C 0.34773 0.90952 0.2791 0.0
C2415 C 0.33546 0.88856 0.28541 0.0
H2416 H 0.57064 0.35303 0.54563 0.0
H2417 H 0.60056 0.40683 0.61126 0.0
H2418 H 0.56312 0.38614 0.52826 0.0
H2419 H 0.59386 0.44048 0.59376 0.0
H2420 H 0.55691 0.4912 0.56833 0.0
H2421 H 0.56617 0.45758 0.58378 0.0
H2422 H 0.57255 0.42092 0.5126 0.0
H2423 H 0.56202 0.45413 0.49728 0.0
C2424 C 0.5766 0.37222 0.55598 0.0
C2425 C 0.58682 0.37727 0.57966 0.0
C2426 C 0.57209 0.39135 0.54605 0.0
C2427 C 0.57756 0.41631 0.5595 0.0
C2428 C 0.58893 0.42156 0.5828 0.0
C2429 C 0.59343 0.40232 0.59273 0.0
C2430 C 0.55998 0.47568 0.55601 0.0
C2431 C 0.55856 0.47512 0.53161 0.0
C2432 C 0.56567 0.45651 0.56489 0.0
C2433 C 0.57065 0.43642 0.54968 0.0
C2434 C 0.56874 0.43576 0.52505 0.0
C2435 C 0.56268 0.4548 0.51614 0.0
H2436 H 0.43364 0.74384 0.38084 0.0
H2437 H 0.47479 0.80869 0.3638 0.0
H2438 H 0.40186 0.75052 0.35894 0.0
H2439 H 0.4434 0.81601 0.34298 0.0
H2440 H 0.3916 0.80299 0.27995 0.0
H2441 H 0.42109 0.79924 0.30675 0.0
H2442 H 0.37564 0.77387 0.35313 0.0
H2443 H 0.34569 0.77741 0.32554 0.0
C2444 C 0.43586 0.75982 0.37287 0.0
C2445 C 0.45689 0.7755 0.37384 0.0
C2446 C 0.41759 0.76372 0.36029 0.0
C2447 C 0.41985 0.78355 0.34851 0.0
C2448 C 0.44081 0.80003 0.35095 0.0
C2449 C 0.45895 0.79596 0.36317 0.0
C2450 C 0.38782 0.79681 0.29596 0.0
C2451 C 0.3662 0.7906 0.30052 0.0
C2452 C 0.40489 0.79481 0.31159 0.0
C2453 C 0.4011 0.78637 0.33249 0.0
C2454 C 0.37938 0.78033 0.33726 0.0
C2455 C 0.36217 0.78261 0.32156 0.0
H2456 H 0.07366 0.74296 0.11263 0.0
H2457 H 0.0765 0.7581 0.04287 0.0
H2458 H 0.07291 0.69946 0.09627 0.0
H2459 H 0.07633 0.71428 0.02637 0.0
H2460 H 0.09458 0.63552 0.01753 0.0
H2461 H 0.09993 0.68098 0.03224 0.0
H2462 H 0.0422 0.6659 0.06598 0.0
H2463 H 0.03668 0.62119 0.05117 0.0
C2464 C 0.07467 0.737 0.09387 0.0
C2465 C 0.07531 0.75365 0.07895 0.0
C2466 C 0.07416 0.71219 0.08452 0.0
C2467 C 0.07464 0.7037 0.06013 0.0
C2468 C 0.07614 0.72059 0.04528 0.0
C2469 C 0.07615 0.74545 0.05461 0.0
C2470 C 0.08307 0.64211 0.02798 0.0
C2471 C 0.06511 0.62504 0.03304 0.0
C2472 C 0.08606 0.66794 0.03627 0.0
C2473 C 0.07147 0.67674 0.05022 0.0
C2474 C 0.05369 0.65955 0.05532 0.0
C2475 C 0.05047 0.634 0.04669 0.0
H2476 H 0.07881 0.33036 0.87195 0.0
H2477 H 0.08648 0.26467 0.89465 0.0
H2478 H 0.11524 0.33819 0.86138 0.0
H2479 H 0.12266 0.27162 0.88279 0.0
H2480 H 0.1918 0.29435 0.8678 0.0
H2481 H 0.15928 0.29373 0.887 0.0
H2482 H 0.13262 0.32291 0.83133 0.0
H2483 H 0.16512 0.32426 0.81294 0.0
C2484 C 0.08829 0.31754 0.87468 0.0
C2485 C 0.07957 0.29672 0.88389 0.0
C2486 C 0.10923 0.32191 0.86841 0.0
C2487 C 0.12196 0.3053 0.87067 0.0
C2488 C 0.11355 0.285 0.88086 0.0
C2489 C 0.09267 0.28086 0.88752 0.0
C2490 C 0.17905 0.30093 0.85992 0.0
C2491 C 0.18109 0.30936 0.83882 0.0
C2492 C 0.1603 0.30044 0.87084 0.0
C2493 C 0.14304 0.30812 0.86076 0.0
C2494 C 0.14555 0.3173 0.84008 0.0
C2495 C 0.16431 0.31806 0.82939 0.0
H2496 H 0.61292 0.78816 0.95226 0.0
H2497 H 0.56253 0.75159 0.89235 0.0
H2498 H 0.60029 0.75336 0.97117 0.0
H2499 H 0.54853 0.71839 0.91167 0.0
H2500 H 0.53508 0.65334 0.9465 0.0
H2501 H 0.55061 0.6841 0.92479 0.0
H2502 H 0.57115 0.74081 0.99106 0.0
H2503 H 0.55712 0.70931 0.01275 0.0
C2504 C 0.59967 0.77218 0.94287 0.0
C2505 C 0.58874 0.77206 0.92094 0.0
C2506 C 0.59199 0.75266 0.95386 0.0
C2507 C 0.57302 0.73336 0.94321 0.0
C2508 C 0.56328 0.7326 0.92036 0.0
C2509 C 0.57133 0.75159 0.90919 0.0
C2510 C 0.54269 0.6725 0.95627 0.0
C2511 C 0.54511 0.67904 0.98118 0.0
C2512 C 0.55159 0.69019 0.94389 0.0
C2513 C 0.56265 0.71486 0.95623 0.0
C2514 C 0.56346 0.72178 0.98107 0.0
C2515 C 0.5549 0.70394 0.99347 0.0
H2516 H 0.07071 0.76808 0.66594 0.0
H2517 H 0.04795 0.76299 0.73293 0.0
H2518 H 0.09889 0.74869 0.67553 0.0
H2519 H 0.07546 0.74211 0.74231 0.0
H2520 H 0.14936 0.77292 0.77011 0.0
H2521 H 0.11158 0.7682 0.75509 0.0
H2522 H 0.11872 0.72287 0.68795 0.0
H2523 H 0.15686 0.72882 0.70283 0.0
C2524 C 0.07076 0.76101 0.68194 0.0
C2525 C 0.05779 0.76749 0.69903 0.0
C2526 C 0.08703 0.74997 0.6876 0.0
C2527 C 0.09008 0.74508 0.71029 0.0
C2528 C 0.07402 0.74671 0.72512 0.0
C2529 C 0.058 0.75819 0.71959 0.0
C2530 C 0.1427 0.76191 0.75221 0.0
C2531 C 0.15583 0.75148 0.73746 0.0
C2532 C 0.12099 0.75875 0.74368 0.0
C2533 C 0.11196 0.74471 0.72038 0.0
C2534 C 0.12514 0.73379 0.70591 0.0
C2535 C 0.14695 0.73735 0.71432 0.0
H2536 H 0.12309 0.39138 0.44089 0.0
H2537 H 0.07176 0.39809 0.39186 0.0
H2538 H 0.12176 0.42946 0.46813 0.0
H2539 H 0.06852 0.43418 0.419 0.0
H2540 H 0.05372 0.49027 0.47429 0.0
H2541 H 0.06722 0.46639 0.44314 0.0
H2542 H 0.1062 0.44507 0.4964 0.0
H2543 H 0.0958 0.47379 0.52708 0.0
C2544 C 0.11198 0.40162 0.4357 0.0
C2545 C 0.09729 0.39189 0.41458 0.0
C2546 C 0.11057 0.42312 0.4517 0.0
C2547 C 0.09394 0.43467 0.44711 0.0
C2548 C 0.0813 0.42633 0.4243 0.0
C2549 C 0.08313 0.40536 0.40825 0.0
C2550 C 0.06595 0.48131 0.47912 0.0
C2551 C 0.0745 0.48479 0.50293 0.0
C2552 C 0.07341 0.4667 0.46111 0.0
C2553 C 0.08817 0.45307 0.46645 0.0
C2554 C 0.09569 0.45565 0.49075 0.0
C2555 C 0.08936 0.47181 0.50868 0.0
H2556 H 0.42778 0.25278 0.16332 0.0
H2557 H 0.45728 0.23376 0.22442 0.0
H2558 H 0.401 0.26561 0.18658 0.0
H2559 H 0.43131 0.24768 0.24784 0.0
H2560 H 0.36949 0.25858 0.27677 0.0
H2561 H 0.39493 0.24167 0.25456 0.0
H2562 H 0.40445 0.30251 0.21858 0.0
H2563 H 0.37809 0.31884 0.24028 0.0
C2564 C 0.4281 0.25049 0.18143 0.0
C2565 C 0.44493 0.24288 0.1923 0.0
C2566 C 0.4131 0.25842 0.19489 0.0
C2567 C 0.4147 0.25857 0.21922 0.0
C2568 C 0.42982 0.24799 0.22917 0.0
C2569 C 0.44462 0.23982 0.21567 0.0
C2570 C 0.37737 0.26856 0.26444 0.0
C2571 C 0.37172 0.28964 0.25982 0.0
C2572 C 0.39191 0.25891 0.25173 0.0
C2573 C 0.40113 0.27038 0.23438 0.0
C2574 C 0.39697 0.29287 0.23134 0.0
C2575 C 0.38231 0.30251 0.24407 0.0
H2576 H 0.66465 0.53893 0.36755 0.0
H2577 H 0.60298 0.51037 0.3222 0.0
H2578 H 0.64574 0.54093 0.40288 0.0
H2579 H 0.58415 0.51213 0.35678 0.0
H2580 H 0.55024 0.50027 0.4205 0.0
H2581 H 0.57077 0.49893 0.3875 0.0
H2582 H 0.62531 0.55505 0.43218 0.0
H2583 H 0.60437 0.55568 0.46602 0.0
C2584 C 0.64705 0.53292 0.36491 0.0
C2585 C 0.6357 0.52451 0.34132 0.0
C2586 C 0.63595 0.5342 0.38549 0.0
C2587 C 0.61283 0.52655 0.38378 0.0
C2588 C 0.60172 0.51799 0.36002 0.0
C2589 C 0.61273 0.51718 0.33963 0.0
C2590 C 0.56667 0.51242 0.42367 0.0
C2591 C 0.57519 0.52801 0.4467 0.0
C2592 C 0.57869 0.51186 0.40415 0.0
C2593 C 0.60025 0.52711 0.40596 0.0
C2594 C 0.60902 0.54268 0.4292 0.0
C2595 C 0.59685 0.54314 0.449 0.0
H2596 H 0.30331 0.90154 0.08215 0.0
H2597 H 0.34933 0.87817 0.03872 0.0
H2598 H 0.32149 0.8914 0.11607 0.0
H2599 H 0.36836 0.86972 0.07279 0.0
H2600 H 0.37372 0.82943 0.13496 0.0
H2601 H 0.36499 0.84279 0.09937 0.0
H2602 H 0.35669 0.91104 0.14212 0.0
H2603 H 0.36512 0.89723 0.17811 0.0
C2604 C 0.31687 0.89351 0.07973 0.0
C2605 C 0.32521 0.89089 0.05815 0.0
C2606 C 0.32769 0.8885 0.09923 0.0
C2607 C 0.34691 0.88094 0.09719 0.0
C2608 C 0.35383 0.87593 0.07492 0.0
C2609 C 0.34282 0.88051 0.05542 0.0
C2610 C 0.37144 0.84802 0.13692 0.0
C2611 C 0.36921 0.86193 0.15911 0.0
C2612 C 0.36611 0.85553 0.11642 0.0
C2613 C 0.35909 0.87728 0.11813 0.0
C2614 C 0.36118 0.89362 0.14048 0.0
C2615 C 0.36648 0.88604 0.16103 0.0
H2616 H 0.95104 0.53633 0.86559 0.0
H2617 H 0.9989 0.50803 0.82876 0.0
H2618 H 0.96646 0.52928 0.90228 0.0
H2619 H 0.01427 0.50084 0.86579 0.0
H2620 H 0.05694 0.5565 0.93453 0.0
H2621 H 0.03356 0.54273 0.89626 0.0
H2622 H 0.98138 0.50319 0.92811 0.0
H2623 H 1.005 0.51652 0.96644 0.0
C2624 C 0.9642 0.52752 0.86505 0.0
C2625 C 0.97445 0.52365 0.84469 0.0
C2626 C 0.97291 0.52333 0.88608 0.0
C2627 C 0.99184 0.51527 0.88671 0.0
C2628 C 0.99986 0.50757 0.86553 0.0
C2629 C 0.9912 0.51184 0.8445 0.0
C2630 C 0.04051 0.54486 0.93332 0.0
C2631 C 0.03261 0.53766 0.95324 0.0
C2632 C 0.0273 0.53663 0.91145 0.0
C2633 C 1.00602 0.5213 0.90935 0.0
C2634 C 0.99792 0.51458 0.9294 0.0
C2635 C 0.01127 0.52252 0.95124 0.0
H2636 H 0.27742 0.20355 0.56841 0.0
H2637 H 0.32233 0.27588 0.57385 0.0
H2638 H 0.27415 0.21561 0.61051 0.0
H2639 H 0.31856 0.28816 0.61612 0.0
H2640 H 0.28868 0.30444 0.68777 0.0
H2641 H 0.28866 0.29465 0.64436 0.0
H2642 H 0.30283 0.22478 0.64798 0.0
H2643 H 0.30352 0.23498 0.6912 0.0
C2644 C 0.28618 0.22228 0.57842 0.0
C2645 C 0.30007 0.23879 0.56767 0.0
C2646 C 0.28442 0.22909 0.60261 0.0
C2647 C 0.29612 0.25279 0.61662 0.0
C2648 C 0.30925 0.26981 0.60571 0.0
C2649 C 0.31143 0.26277 0.58155 0.0
C2650 C 0.29151 0.28689 0.67913 0.0
C2651 C 0.2959 0.2703 0.69266 0.0
C2652 C 0.29169 0.28139 0.6544 0.0
C2653 C 0.29566 0.2589 0.64278 0.0
C2654 C 0.29953 0.24214 0.65639 0.0
C2655 C 0.29994 0.24794 0.68108 0.0
H2656 H 0.63474 0.48588 0.17751 0.0
H2657 H 0.60764 0.54182 0.21564 0.0
H2658 H 0.62003 0.49263 0.13965 0.0
H2659 H 0.59248 0.54832 0.17846 0.0
H2660 H 0.57438 0.56808 0.10862 0.0
H2661 H 0.59109 0.56246 0.14563 0.0
H2662 H 0.59417 0.48902 0.1092 0.0
H2663 H 0.57824 0.49538 0.07209 0.0
C2664 C 0.62601 0.50001 0.17791 0.0
C2665 C 0.62292 0.51364 0.20002 0.0
C2666 C 0.61708 0.50371 0.15594 0.0
C2667 C 0.60468 0.52125 0.15505 0.0
C2668 C 0.602 0.53495 0.17742 0.0
C2669 C 0.61075 0.53113 0.19917 0.0
C2670 C 0.57867 0.55072 0.10841 0.0
C2671 C 0.57478 0.5323 0.08688 0.0
C2672 C 0.58825 0.54726 0.13004 0.0
C2673 C 0.59441 0.52508 0.13138 0.0
C2674 C 0.59032 0.50662 0.10968 0.0
C2675 C 0.5808 0.51016 0.08805 0.0
H2676 H 0.36362 0.89252 0.95202 0.0
H2677 H 0.29576 0.89089 0.95129 0.0
H2678 H 0.35545 0.86656 0.91175 0.0
H2679 H 0.28766 0.86495 0.91054 0.0
H2680 H 0.28171 0.79195 0.85269 0.0
H2681 H 0.28874 0.82038 0.89216 0.0
H2682 H 0.34268 0.86964 0.87077 0.0
H2683 H 0.33545 0.84138 0.83143 0.0
C2684 C 0.34696 0.88672 0.94318 0.0
C2685 C 0.33026 0.8935 0.95479 0.0
C2686 C 0.34235 0.87203 0.92009 0.0
C2687 C 0.32096 0.86379 0.90823 0.0
C2688 C 0.30426 0.87097 0.91955 0.0
C2689 C 0.30891 0.8859 0.94269 0.0
C2690 C 0.29521 0.80871 0.85663 0.0
C2691 C 0.30833 0.81445 0.83932 0.0
C2692 C 0.29901 0.82509 0.87898 0.0
C2693 C 0.31619 0.84712 0.88432 0.0
C2694 C 0.32938 0.85268 0.86702 0.0
C2695 C 0.32532 0.83654 0.84459 0.0
H2696 H 0.99177 0.51687 0.7512 0.0
H2697 H 0.93467 0.52662 0.71406 0.0
H2698 H 0.98754 0.47763 0.72297 0.0
H2699 H 0.92999 0.48751 0.68565 0.0
H2700 H 0.95841 0.47973 0.61971 0.0
H2701 H 0.93909 0.47292 0.65256 0.0
H2702 H 0.997 0.46353 0.68994 0.0
H2703 H 0.01576 0.4703 0.657 0.0
C2704 C 0.97782 0.51003 0.73731 0.0
C2705 C 0.96434 0.52528 0.73367 0.0
C2706 C 0.97552 0.48762 0.72056 0.0
C2707 C 0.96052 0.48123 0.69937 0.0
C2708 C 0.94353 0.49308 0.69981 0.0
C2709 C 0.94584 0.51549 0.71648 0.0
C2710 C 0.96673 0.4757 0.63489 0.0
C2711 C 0.9889 0.47697 0.63639 0.0
C2712 C 0.95572 0.47199 0.65417 0.0
C2713 C 0.96701 0.4707 0.67578 0.0
C2714 C 0.98784 0.46665 0.6749 0.0
C2715 C 0.99878 0.47017 0.65559 0.0
H2716 H 0.27665 0.20989 0.42246 0.0
H2717 H 0.32408 0.27715 0.46261 0.0
H2718 H 0.28029 0.2253 0.38628 0.0
H2719 H 0.32692 0.29331 0.42704 0.0
H2720 H 0.34816 0.30513 0.35717 0.0
H2721 H 0.34201 0.29016 0.393 0.0
H2722 H 0.27561 0.25088 0.36142 0.0
H2723 H 0.28235 0.26515 0.3251 0.0
C2724 C 0.28727 0.22838 0.42375 0.0
C2725 C 0.29996 0.24226 0.44557 0.0
C2726 C 0.28948 0.23729 0.40287 0.0
C2727 C 0.30425 0.26054 0.40324 0.0
C2728 C 0.3159 0.275 0.42549 0.0
C2729 C 0.31398 0.26591 0.44617 0.0
C2730 C 0.33231 0.29308 0.3578 0.0
C2731 C 0.31581 0.28623 0.33817 0.0
C2732 C 0.32859 0.2847 0.37861 0.0
C2733 C 0.30813 0.26933 0.38065 0.0
C2734 C 0.29167 0.26236 0.36077 0.0
C2735 C 0.29547 0.27065 0.33985 0.0
H2736 H 0.33725 0.60595 0.55758 0.0
H2737 H 0.31971 0.59825 0.48246 0.0
H2738 H 0.37126 0.59585 0.55009 0.0
H2739 H 0.35252 0.58594 0.47433 0.0
H2740 H 0.42077 0.58134 0.46658 0.0
H2741 H 0.38932 0.59698 0.47525 0.0
H2742 H 0.38542 0.56386 0.53632 0.0
H2743 H 0.41761 0.55038 0.52858 0.0
C2744 C 0.34056 0.60142 0.53943 0.0
C2745 C 0.32599 0.60232 0.52054 0.0
C2746 C 0.35995 0.59555 0.53499 0.0
C2747 C 0.36471 0.58972 0.51149 0.0
C2748 C 0.34981 0.59067 0.49266 0.0
C2749 C 0.33082 0.5973 0.49723 0.0
C2750 C 0.41323 0.57789 0.48202 0.0
C2751 C 0.42161 0.56501 0.49714 0.0
C2752 C 0.39509 0.58657 0.48691 0.0
C2753 C 0.3847 0.58183 0.50664 0.0
C2754 C 0.39321 0.56868 0.52147 0.0
C2755 C 0.41159 0.56071 0.51695 0.0
H2756 H 0.89366 0.90854 0.5358 0.0
H2757 H 0.87007 0.9719 0.52816 0.0
H2758 H 0.9305 0.93201 0.53269 0.0
H2759 H 0.90692 0.99551 0.52553 0.0
H2760 H 0.97904 0.03831 0.55597 0.0
H2761 H 0.94186 0.01333 0.55478 0.0
H2762 H 0.95339 0.95265 0.50365 0.0
H2763 H 0.99073 0.97815 0.50437 0.0
C2764 C 0.89627 0.9274 0.53334 0.0
C2765 C 0.87885 0.93832 0.53229 0.0
C2766 C 0.91741 0.94083 0.53144 0.0
C2767 C 0.92176 0.96573 0.52899 0.0
C2768 C 0.90423 0.97646 0.52757 0.0
C2769 C 0.88306 0.96285 0.52894 0.0
C2770 C 0.97371 0.01964 0.54444 0.0
C2771 C 0.98794 0.0102 0.53033 0.0
C2772 C 0.95229 1.00536 0.54364 0.0
C2773 C 0.94455 0.98095 0.52912 0.0
C2774 C 0.95883 0.97134 0.51511 0.0
C2775 C 0.98019 0.98595 0.51546 0.0
H2776 H 0.8707 0.12039 0.2987 0.0
H2777 H 0.91235 0.14727 0.25 0.0
H2778 H 0.85284 0.1534 0.29807 0.0
H2779 H 0.89417 0.18082 0.24921 0.0
H2780 H 0.86723 0.25274 0.26632 0.0
H2781 H 0.88617 0.21981 0.26572 0.0
H2782 H 0.8286 0.17129 0.28121 0.0
H2783 H 0.80992 0.20399 0.28168 0.0
C2784 C 0.87605 0.1331 0.28743 0.0
C2785 C 0.89318 0.13 0.27409 0.0
C2786 C 0.86549 0.15248 0.28702 0.0
C2787 C 0.87137 0.17066 0.27344 0.0
C2788 C 0.88867 0.16779 0.2601 0.0
C2789 C 0.89914 0.14801 0.2603 0.0
C2790 C 0.8585 0.2351 0.26971 0.0
C2791 C 0.83662 0.23179 0.27413 0.0
C2792 C 0.8695 0.21577 0.26919 0.0
C2793 C 0.85949 0.19194 0.27346 0.0
C2794 C 0.83764 0.18888 0.27807 0.0
C2795 C 0.8266 0.208 0.27823 0.0
H2796 H 0.72941 0.12862 0.99264 0.0
H2797 H 0.71805 0.05095 0.99471 0.0
H2798 H 0.69913 0.13183 0.01471 0.0
H2799 H 0.68686 0.05351 0.01562 0.0
H2800 H 0.63464 0.064 0.05814 0.0
H2801 H 0.67278 0.07181 0.05178 0.0
H2802 H 0.66053 0.11364 0.99997 0.0
H2803 H 0.62278 0.10588 0.00644 0.0
C2804 C 0.72089 0.11253 0.99863 0.0
C2805 C 0.72624 0.08974 0.9926 0.0
C2806 C 0.70337 0.11421 0.01091 0.0
C2807 C 0.69069 0.09296 0.01698 0.0
C2808 C 0.69658 0.07033 0.01161 0.0
C2809 C 0.71418 0.06873 0.99939 0.0
C2810 C 0.64047 0.07578 0.04621 0.0
C2811 C 0.62601 0.08445 0.03278 0.0
C2812 C 0.66215 0.07999 0.04237 0.0
C2813 C 0.66957 0.09318 0.02527 0.0
C2814 C 0.65541 0.10367 0.01346 0.0
C2815 C 0.63378 0.09919 0.01708 0.0
H2816 H 0.24108 0.54737 0.29451 0.0
H2817 H 0.20107 0.48722 0.23755 0.0
H2818 H 0.26318 0.52049 0.30315 0.0
H2819 H 0.22399 0.46049 0.2453 0.0
H2820 H 0.24167 0.41024 0.29052 0.0
H2821 H 0.22453 0.44036 0.2778 0.0
H2822 H 0.28692 0.4962 0.29414 0.0
H2823 H 0.30348 0.46667 0.30804 0.0
C2824 C 0.23762 0.52866 0.28323 0.0
C2825 C 0.21898 0.51885 0.26611 0.0
C2826 C 0.25029 0.51326 0.28811 0.0
C2827 C 0.24467 0.4881 0.27551 0.0
C2828 C 0.22805 0.47957 0.25589 0.0
C2829 C 0.2152 0.49496 0.25116 0.0
C2830 C 0.2514 0.42923 0.29195 0.0
C2831 C 0.27371 0.43645 0.30036 0.0
C2832 C 0.24182 0.44624 0.28422 0.0
C2833 C 0.25459 0.47038 0.28437 0.0
C2834 C 0.27669 0.47777 0.29385 0.0
C2835 C 0.28612 0.46099 0.30202 0.0
H2836 H 0.24498 0.41124 0.04576 0.0
H2837 H 0.26942 0.4401 0.98715 0.0
H2838 H 0.21184 0.42415 0.0382 0.0
H2839 H 0.23614 0.45157 0.97865 0.0
H2840 H 0.191 0.50158 0.99064 0.0
H2841 H 0.2205 0.4824 0.99333 0.0
H2842 H 0.17875 0.42125 0.01571 0.0
H2843 H 0.14917 0.44124 0.0137 0.0
C2844 C 0.2431 0.4199 0.031 0.0
C2845 C 0.26003 0.42502 0.01734 0.0
C2846 C 0.22401 0.4272 0.02651 0.0
C2847 C 0.22128 0.43947 0.00804 0.0
C2848 C 0.23776 0.44306 0.99356 0.0
C2849 C 0.25689 0.43624 0.99832 0.0
C2850 C 0.18789 0.48378 0.99567 0.0
C2851 C 0.16765 0.47305 1.00199 0.0
C2852 C 0.20493 0.47262 0.9972 0.0
C2853 C 0.20227 0.45011 1.00481 0.0
C2854 C 0.18169 0.4388 0.01024 0.0
C2855 C 0.16464 0.45019 0.00896 0.0
H2856 H 0.86438 1.00386 0.28943 0.0
H2857 H 0.91404 0.97912 0.25402 0.0
H2858 H 0.84584 0.96138 0.28907 0.0
H2859 H 0.8946 0.93521 0.25244 0.0
H2860 H 0.859 0.85533 0.26548 0.0
H2861 H 0.88107 0.89801 0.2657 0.0
H2862 H 0.82394 0.92469 0.27288 0.0
H2863 H 0.80316 0.88386 0.27401 0.0
C2864 C 0.8712 0.98921 0.28091 0.0
C2865 C 0.89076 0.99568 0.27135 0.0
C2866 C 0.86024 0.96414 0.28047 0.0
C2867 C 0.86789 0.94348 0.27021 0.0
C2868 C 0.88762 0.94987 0.2605 0.0
C2869 C 0.89877 0.97534 0.26103 0.0
C2870 C 0.85131 0.87046 0.26752 0.0
C2871 C 0.82893 0.86543 0.26997 0.0
C2872 C 0.86403 0.89526 0.26743 0.0
C2873 C 0.85495 0.91611 0.26976 0.0
C2874 C 0.83256 0.91047 0.2719 0.0
C2875 C 0.82018 0.88624 0.27222 0.0
H2876 H 0.7025 0.13793 0.80277 0.0
H2877 H 0.69552 0.10107 0.72819 0.0
H2878 H 0.73139 0.17208 0.79675 0.0
H2879 H 0.72511 0.1344 0.72261 0.0
H2880 H 0.76638 0.21485 0.72272 0.0
H2881 H 0.73784 0.17741 0.72224 0.0
H2882 H 0.7685 0.17429 0.79065 0.0
H2883 H 0.79633 0.21264 0.79165 0.0
C2884 C 0.707 0.13723 0.78511 0.0
C2885 C 0.69724 0.11657 0.76616 0.0
C2886 C 0.7237 0.15652 0.78173 0.0
C2887 C 0.73106 0.15512 0.75948 0.0
C2888 C 0.71996 0.13567 0.74002 0.0
C2889 C 0.703 0.11661 0.74329 0.0
C2890 C 0.76737 0.20559 0.73722 0.0
C2891 C 0.78288 0.21669 0.75759 0.0
C2892 C 0.751 0.18426 0.737 0.0
C2893 C 0.75053 0.17379 0.75694 0.0
C2894 C 0.76804 0.18283 0.77559 0.0
C2895 C 0.78408 0.20443 0.77604 0.0
loop_
_geom_bond_atom_site_label_1
_geom_bond_atom_site_label_2
_geom_bond_distance
_geom_bond_site_symmetry_2
_ccdc_geom_bond_type
Mg0 O1 2.028 . S
Mg0 O7 1.986 . S
Mg0 O9 2.114 . S
Mg0 O10 2.251 . S
Mg0 O13 2.010 . S
O1 Mg0 2.028 . S
O1 C4 1.250 . S
O2 Mg3 2.028 . S
O2 C4 1.248 . S
Mg3 O2 2.028 . S
Mg3 O8 2.032 . S
Mg3 O10 2.079 . S
C4 O1 1.250 . S
C4 O2 1.248 . S
C5 O6 1.264 . S
C5 O13 1.249 . S
O6 C5 1.264 . S
O7 Mg0 1.986 . S
O7 C11 1.246 . S
O8 Mg3 2.032 . S
O8 C11 1.259 . S
O9 Mg0 2.114 . S
O9 C12 1.252 . S
O10 Mg0 2.251 . S
O10 Mg3 2.079 . S
O10 C12 1.273 . S
C11 O7 1.246 . S
C11 O8 1.259 . S
C12 O9 1.252 . S
C12 O10 1.273 . S
O13 Mg0 2.010 . S
O13 C5 1.249 . S
Mg14 O15 2.028 . S
Mg14 O21 1.986 . S
Mg14 O23 2.114 1_455 S
Mg14 O24 2.251 1_455 S
Mg14 O27 2.010 . S
O15 Mg14 2.028 . S
O15 C18 1.250 1_455 S
O16 Mg17 2.028 . S
O16 C18 1.248 . S
Mg17 O16 2.028 . S
Mg17 O22 2.032 . S
Mg17 O24 2.079 . S
C18 O15 1.250 1_655 S
C18 O16 1.248 . S
C19 O20 1.264 . S
C19 O27 1.249 . S
O20 C19 1.264 . S
O21 Mg14 1.986 . S
O21 C25 1.246 1_455 S
O22 Mg17 2.032 . S
O22 C25 1.259 . S
O23 Mg14 2.114 1_655 S
O23 C26 1.252 . S
O24 Mg14 2.251 1_655 S
O24 Mg17 2.079 . S
O24 C26 1.273 . S
C25 O21 1.246 1_655 S
C25 O22 1.259 . S
C26 O23 1.252 . S
C26 O24 1.273 . S
O27 Mg14 2.010 . S
O27 C19 1.249 . S
Mg28 O29 2.028 . S
Mg28 O35 1.986 . S
Mg28 O37 2.114 . S
Mg28 O38 2.251 . S
Mg28 O41 2.010 . S
O29 Mg28 2.028 . S
O29 C32 1.250 . S
O30 Mg31 2.028 . S
O30 C32 1.248 . S
Mg31 O30 2.028 . S
Mg31 O36 2.032 . S
Mg31 O38 2.079 . S
C32 O29 1.250 . S
C32 O30 1.248 . S
C33 O34 1.264 . S
C33 O41 1.249 . S
O34 C33 1.264 . S
O35 Mg28 1.986 . S
O35 C39 1.246 . S
O36 Mg31 2.032 . S
O36 C39 1.259 . S
O37 Mg28 2.114 . S
O37 C40 1.252 . S
O38 Mg28 2.251 . S
O38 Mg31 2.079 . S
O38 C40 1.273 . S
C39 O35 1.246 . S
C39 O36 1.259 . S
C40 O37 1.252 . S
C40 O38 1.273 . S
O41 Mg28 2.010 . S
O41 C33 1.249 . S
Mg42 O43 2.028 . S
Mg42 O49 1.986 . S
Mg42 O51 2.114 . S
Mg42 O52 2.251 . S
Mg42 O55 2.010 . S
O43 Mg42 2.028 . S
O43 C46 1.250 . S
O44 Mg45 2.028 . S
O44 C46 1.248 . S
Mg45 O44 2.028 . S
Mg45 O50 2.032 . S
Mg45 O52 2.079 . S
C46 O43 1.250 . S
C46 O44 1.248 . S
C47 O48 1.264 . S
C47 O55 1.249 . S
O48 C47 1.264 . S
O49 Mg42 1.986 . S
O49 C53 1.246 . S
O50 Mg45 2.032 . S
O50 C53 1.259 . S
O51 Mg42 2.114 . S
O51 C54 1.252 . S
O52 Mg42 2.251 . S
O52 Mg45 2.079 . S
O52 C54 1.273 . S
C53 O49 1.246 . S
C53 O50 1.259 . S
C54 O51 1.252 . S
C54 O52 1.273 . S
O55 Mg42 2.010 . S
O55 C47 1.249 . S
Mg56 O57 2.028 . S
Mg56 O63 1.986 . S
Mg56 O65 2.114 . S
Mg56 O66 2.251 . S
Mg56 O69 2.010 . S
O57 Mg56 2.028 . S
O57 C60 1.250 . S
O58 Mg59 2.028 . S
O58 C60 1.248 . S
Mg59 O58 2.028 . S
Mg59 O64 2.032 . S
Mg59 O66 2.079 . S
C60 O57 1.250 . S
C60 O58 1.248 . S
C61 O62 1.264 . S
C61 O69 1.249 . S
O62 C61 1.264 . S
O63 Mg56 1.986 . S
O63 C67 1.246 . S
O64 Mg59 2.032 . S
O64 C67 1.259 . S
O65 Mg56 2.114 . S
O65 C68 1.252 . S
O66 Mg56 2.251 . S
O66 Mg59 2.079 . S
O66 C68 1.273 . S
C67 O63 1.246 . S
C67 O64 1.259 . S
C68 O65 1.252 . S
C68 O66 1.273 . S
O69 Mg56 2.010 . S
O69 C61 1.249 . S
Mg70 O71 2.028 . S
Mg70 O77 1.986 . S
Mg70 O79 2.114 . S
Mg70 O80 2.251 . S
Mg70 O83 2.010 . S
O71 Mg70 2.028 . S
O71 C74 1.250 . S
O72 Mg73 2.028 . S
O72 C74 1.248 . S
Mg73 O72 2.028 . S
Mg73 O78 2.032 . S
Mg73 O80 2.079 . S
C74 O71 1.250 . S
C74 O72 1.248 . S
C75 O76 1.264 . S
C75 O83 1.249 . S
O76 C75 1.264 . S
O77 Mg70 1.986 . S
O77 C81 1.246 . S
O78 Mg73 2.032 . S
O78 C81 1.259 . S
O79 Mg70 2.114 . S
O79 C82 1.252 . S
O80 Mg70 2.251 . S
O80 Mg73 2.079 . S
O80 C82 1.273 . S
C81 O77 1.246 . S
C81 O78 1.259 . S
C82 O79 1.252 . S
C82 O80 1.273 . S
O83 Mg70 2.010 . S
O83 C75 1.249 . S
Mg84 O85 2.028 . S
Mg84 O91 1.986 . S
Mg84 O93 2.114 . S
Mg84 O94 2.251 . S
Mg84 O97 2.010 . S
O85 Mg84 2.028 . S
O85 C88 1.250 . S
O86 Mg87 2.028 . S
O86 C88 1.248 . S
Mg87 O86 2.028 . S
Mg87 O92 2.032 . S
Mg87 O94 2.079 . S
C88 O85 1.250 . S
C88 O86 1.248 . S
C89 O90 1.264 . S
C89 O97 1.249 . S
O90 C89 1.264 . S
O91 Mg84 1.986 . S
O91 C95 1.246 . S
O92 Mg87 2.032 . S
O92 C95 1.259 . S
O93 Mg84 2.114 . S
O93 C96 1.252 . S
O94 Mg84 2.251 . S
O94 Mg87 2.079 . S
O94 C96 1.273 . S
C95 O91 1.246 . S
C95 O92 1.259 . S
C96 O93 1.252 . S
C96 O94 1.273 . S
O97 Mg84 2.010 . S
O97 C89 1.249 . S
Mg98 O99 2.028 . S
Mg98 O105 1.986 . S
Mg98 O107 2.114 1_455 S
Mg98 O108 2.251 1_455 S
Mg98 O111 2.010 . S
O99 Mg98 2.028 . S
O99 C102 1.250 . S
O100 Mg101 2.022 1_455 S
O100 C102 1.259 . S
Mg101 O100 2.022 1_655 S
Mg101 O106 2.032 . S
Mg101 O108 2.079 . S
C102 O99 1.250 . S
C102 O100 1.259 . S
C103 O104 1.264 . S
C103 O111 1.249 . S
O104 C103 1.264 . S
O105 Mg98 1.986 . S
O105 C109 1.246 . S
O106 Mg101 2.032 . S
O106 C109 1.259 1_655 S
O107 Mg98 2.114 1_655 S
O107 C110 1.252 . S
O108 Mg98 2.251 1_655 S
O108 Mg101 2.079 . S
O108 C110 1.273 . S
C109 O105 1.246 . S
C109 O106 1.259 1_455 S
C110 O107 1.252 . S
C110 O108 1.273 . S
O111 Mg98 2.010 . S
O111 C103 1.249 . S
Mg112 O113 2.028 1_545 S
Mg112 O119 1.986 . S
Mg112 O121 2.114 . S
Mg112 O122 2.251 . S
Mg112 O125 2.010 . S
O113 Mg112 2.028 1_565 S
O113 C116 1.250 . S
O114 Mg115 2.028 1_565 S
O114 C116 1.248 . S
Mg115 O114 2.028 1_545 S
Mg115 O120 2.032 . S
Mg115 O122 2.079 . S
C116 O113 1.250 . S
C116 O114 1.248 . S
C117 O118 1.264 . S
C117 O125 1.249 . S
O118 C117 1.264 . S
O119 Mg112 1.986 . S
O119 C123 1.246 . S
O120 Mg115 2.032 . S
O120 C123 1.259 . S
O121 Mg112 2.114 . S
O121 C124 1.252 . S
O122 Mg112 2.251 . S
O122 Mg115 2.079 . S
O122 C124 1.273 . S
C123 O119 1.246 . S
C123 O120 1.259 . S
C124 O121 1.252 . S
C124 O122 1.273 . S
O125 Mg112 2.010 . S
O125 C117 1.249 . S
Mg126 O127 2.028 . S
Mg126 O133 1.986 . S
Mg126 O135 2.114 . S
Mg126 O136 2.251 . S
Mg126 O139 2.010 . S
O127 Mg126 2.028 . S
O127 C130 1.250 . S
O128 Mg129 2.028 . S
O128 C130 1.248 . S
Mg129 O128 2.028 . S
Mg129 O134 2.032 . S
Mg129 O136 2.079 . S
C130 O127 1.250 . S
C130 O128 1.248 . S
C131 O132 1.264 . S
C131 O139 1.249 . S
O132 C131 1.264 . S
O133 Mg126 1.986 . S
O133 C137 1.246 . S
O134 Mg129 2.032 . S
O134 C137 1.259 . S
O135 Mg126 2.114 . S
O135 C138 1.252 . S
O136 Mg126 2.251 . S
O136 Mg129 2.079 . S
O136 C138 1.273 . S
C137 O133 1.246 . S
C137 O134 1.259 . S
C138 O135 1.252 . S
C138 O136 1.273 . S
O139 Mg126 2.010 . S
O139 C131 1.249 . S
Mg140 O141 2.028 1_565 S
Mg140 O147 1.986 . S
Mg140 O149 2.114 1_565 S
Mg140 O150 2.251 . S
Mg140 O153 2.010 . S
O141 Mg140 2.028 1_545 S
O141 C144 1.250 . S
O142 Mg143 2.028 . S
O142 C144 1.248 . S
Mg143 O142 2.028 . S
Mg143 O148 2.032 1_545 S
Mg143 O150 2.079 1_545 S
C144 O141 1.250 . S
C144 O142 1.248 . S
C145 O146 1.264 . S
C145 O153 1.249 . S
O146 C145 1.264 . S
O147 Mg140 1.986 . S
O147 C151 1.246 . S
O148 Mg143 2.032 1_565 S
O148 C151 1.259 . S
O149 Mg140 2.114 1_545 S
O149 C152 1.252 . S
O150 Mg140 2.251 . S
O150 Mg143 2.079 1_565 S
O150 C152 1.268 1_565 S
C151 O147 1.246 . S
C151 O148 1.259 . S
C152 O149 1.252 . S
C152 O150 1.268 1_545 S
O153 Mg140 2.010 . S
O153 C145 1.249 . S
Mg154 O155 2.028 1_554 S
Mg154 O161 1.986 . S
Mg154 O163 2.114 . S
Mg154 O164 2.251 . S
Mg154 O167 2.010 . S
O155 Mg154 2.028 1_556 S
O155 C158 1.250 . S
O156 Mg157 2.028 1_556 S
O156 C158 1.248 . S
Mg157 O156 2.028 1_554 S
Mg157 O162 2.032 . S
Mg157 O164 2.079 . S
C158 O155 1.250 . S
C158 O156 1.248 . S
C159 O160 1.264 . S
C159 O167 1.249 . S
O160 C159 1.264 . S
O161 Mg154 1.986 . S
O161 C165 1.246 . S
O162 Mg157 2.032 . S
O162 C165 1.259 . S
O163 Mg154 2.114 . S
O163 C166 1.252 . S
O164 Mg154 2.251 . S
O164 Mg157 2.079 . S
O164 C166 1.273 . S
C165 O161 1.246 . S
C165 O162 1.259 . S
C166 O163 1.252 . S
C166 O164 1.273 . S
O167 Mg154 2.010 . S
O167 C159 1.249 . S
Mg168 O169 2.028 1_554 S
Mg168 O175 1.986 . S
Mg168 O177 2.114 . S
Mg168 O178 2.251 . S
Mg168 O181 2.010 . S
O169 Mg168 2.028 1_556 S
O169 C172 1.250 . S
O170 Mg171 2.028 1_556 S
O170 C172 1.248 . S
Mg171 O170 2.028 1_554 S
Mg171 O176 2.032 . S
Mg171 O178 2.079 . S
C172 O169 1.250 . S
C172 O170 1.248 . S
C173 O174 1.264 . S
C173 O181 1.249 . S
O174 C173 1.264 . S
O175 Mg168 1.986 . S
O175 C179 1.246 . S
O176 Mg171 2.032 . S
O176 C179 1.259 . S
O177 Mg168 2.114 . S
O177 C180 1.252 . S
O178 Mg168 2.251 . S
O178 Mg171 2.079 . S
O178 C180 1.273 . S
C179 O175 1.246 . S
C179 O176 1.259 . S
C180 O177 1.252 . S
C180 O178 1.273 . S
O181 Mg168 2.010 . S
O181 C173 1.249 . S
Mg182 O183 2.028 . S
Mg182 O189 1.986 1_554 S
Mg182 O191 2.114 . S
Mg182 O192 2.251 . S
Mg182 O195 2.012 1_554 S
O183 Mg182 2.028 . S
O183 C186 1.250 . S
O184 Mg185 2.028 . S
O184 C186 1.248 . S
Mg185 O184 2.028 . S
Mg185 O190 2.032 1_554 S
Mg185 O192 2.079 . S
C186 O183 1.250 . S
C186 O184 1.248 . S
C187 O188 1.259 1_554 S
C187 O195 1.234 1_554 S
O188 C187 1.259 1_556 S
O189 Mg182 1.986 1_556 S
O189 C193 1.246 . S
O190 Mg185 2.032 1_556 S
O190 C193 1.259 . S
O191 Mg182 2.114 . S
O191 C194 1.252 . S
O192 Mg182 2.251 . S
O192 Mg185 2.079 . S
O192 C194 1.273 . S
C193 O189 1.246 . S
C193 O190 1.259 . S
C194 O191 1.252 . S
C194 O192 1.273 . S
O195 Mg182 2.012 1_556 S
O195 C187 1.234 1_556 S
Mg196 O197 2.028 . S
Mg196 O203 1.986 . S
Mg196 O205 2.114 . S
Mg196 O206 2.251 . S
Mg196 O209 2.010 . S
O197 Mg196 2.028 . S
O197 C200 1.250 . S
O198 Mg199 2.028 . S
O198 C200 1.248 . S
Mg199 O198 2.028 . S
Mg199 O204 2.032 . S
Mg199 O206 2.079 . S
C200 O197 1.250 . S
C200 O198 1.248 . S
C201 O202 1.264 . S
C201 O209 1.249 . S
O202 C201 1.264 . S
O203 Mg196 1.986 . S
O203 C207 1.246 . S
O204 Mg199 2.032 . S
O204 C207 1.259 . S
O205 Mg196 2.114 . S
O205 C208 1.252 . S
O206 Mg196 2.251 . S
O206 Mg199 2.079 . S
O206 C208 1.273 . S
C207 O203 1.246 . S
C207 O204 1.259 . S
C208 O205 1.252 . S
C208 O206 1.273 . S
O209 Mg196 2.010 . S
O209 C201 1.249 . S
Mg210 O211 2.028 . S
Mg210 O217 1.986 . S
Mg210 O219 2.114 . S
Mg210 O220 2.251 . S
Mg210 O223 2.010 . S
O211 Mg210 2.028 . S
O211 C214 1.250 . S
O212 Mg213 2.028 . S
O212 C214 1.248 . S
Mg213 O212 2.028 . S
Mg213 O218 2.032 . S
Mg213 O220 2.079 . S
C214 O211 1.250 . S
C214 O212 1.248 . S
C215 O216 1.264 . S
C215 O223 1.249 . S
O216 C215 1.264 . S
O217 Mg210 1.986 . S
O217 C221 1.246 . S
O218 Mg213 2.032 . S
O218 C221 1.259 . S
O219 Mg210 2.114 . S
O219 C222 1.252 . S
O220 Mg210 2.251 . S
O220 Mg213 2.079 . S
O220 C222 1.273 . S
C221 O217 1.246 . S
C221 O218 1.259 . S
C222 O219 1.252 . S
C222 O220 1.273 . S
O223 Mg210 2.010 . S
O223 C215 1.249 . S
Mg224 O225 2.028 . S
Mg224 O231 1.986 . S
Mg224 O233 2.114 . S
Mg224 O234 2.251 . S
Mg224 O237 2.010 . S
O225 Mg224 2.028 . S
O225 C228 1.250 . S
O226 Mg227 2.028 . S
O226 C228 1.248 . S
Mg227 O226 2.028 . S
Mg227 O232 2.032 . S
Mg227 O234 2.079 . S
C228 O225 1.250 . S
C228 O226 1.248 . S
C229 O230 1.264 . S
C229 O237 1.249 . S
O230 C229 1.264 . S
O231 Mg224 1.986 . S
O231 C235 1.246 . S
O232 Mg227 2.032 . S
O232 C235 1.259 . S
O233 Mg224 2.114 . S
O233 C236 1.252 . S
O234 Mg224 2.251 . S
O234 Mg227 2.079 . S
O234 C236 1.273 . S
C235 O231 1.246 . S
C235 O232 1.259 . S
C236 O233 1.252 . S
C236 O234 1.273 . S
O237 Mg224 2.010 . S
O237 C229 1.249 . S
Mg238 O239 2.028 . S
Mg238 O245 1.986 . S
Mg238 O247 2.114 . S
Mg238 O248 2.251 . S
Mg238 O251 2.010 . S
O239 Mg238 2.028 . S
O239 C242 1.250 . S
O240 Mg241 2.028 . S
O240 C242 1.248 . S
Mg241 O240 2.028 . S
Mg241 O246 2.032 . S
Mg241 O248 2.079 . S
C242 O239 1.250 . S
C242 O240 1.248 . S
C243 O244 1.264 . S
C243 O251 1.249 . S
O244 C243 1.264 . S
O245 Mg238 1.986 . S
O245 C249 1.246 . S
O246 Mg241 2.032 . S
O246 C249 1.259 . S
O247 Mg238 2.114 . S
O247 C250 1.252 . S
O248 Mg238 2.251 . S
O248 Mg241 2.079 . S
O248 C250 1.273 . S
C249 O245 1.246 . S
C249 O246 1.259 . S
C250 O247 1.252 . S
C250 O248 1.273 . S
O251 Mg238 2.010 . S
O251 C243 1.249 . S
Mg252 O253 2.028 . S
Mg252 O259 1.986 . S
Mg252 O261 2.114 . S
Mg252 O262 2.251 . S
Mg252 O265 2.010 . S
O253 Mg252 2.028 . S
O253 C256 1.250 . S
O254 Mg255 2.028 . S
O254 C256 1.248 . S
Mg255 O254 2.028 . S
Mg255 O260 2.032 . S
Mg255 O262 2.079 . S
C256 O253 1.250 . S
C256 O254 1.248 . S
C257 O258 1.264 . S
C257 O265 1.249 . S
O258 C257 1.264 . S
O259 Mg252 1.986 . S
O259 C263 1.246 . S
O260 Mg255 2.032 . S
O260 C263 1.259 . S
O261 Mg252 2.114 . S
O261 C264 1.252 . S
O262 Mg252 2.251 . S
O262 Mg255 2.079 . S
O262 C264 1.273 . S
C263 O259 1.246 . S
C263 O260 1.259 . S
C264 O261 1.252 . S
C264 O262 1.273 . S
O265 Mg252 2.010 . S
O265 C257 1.249 . S
Mg266 O267 2.028 . S
Mg266 O273 1.986 . S
Mg266 O275 2.114 . S
Mg266 O276 2.251 . S
Mg266 O279 2.010 . S
O267 Mg266 2.028 . S
O267 C270 1.250 . S
O268 Mg269 2.028 . S
O268 C270 1.248 . S
Mg269 O268 2.028 . S
Mg269 O274 2.032 . S
Mg269 O276 2.079 . S
C270 O267 1.250 . S
C270 O268 1.248 . S
C271 O272 1.264 . S
C271 O279 1.249 . S
O272 C271 1.264 . S
O273 Mg266 1.986 . S
O273 C277 1.246 . S
O274 Mg269 2.032 . S
O274 C277 1.259 . S
O275 Mg266 2.114 . S
O275 C278 1.252 . S
O276 Mg266 2.251 . S
O276 Mg269 2.079 . S
O276 C278 1.273 . S
C277 O273 1.246 . S
C277 O274 1.259 . S
C278 O275 1.252 . S
C278 O276 1.273 . S
O279 Mg266 2.010 . S
O279 C271 1.249 . S
Mg280 O281 2.028 1_556 S
Mg280 O287 1.986 . S
Mg280 O289 2.114 1_556 S
Mg280 O290 2.251 1_556 S
Mg280 O293 2.010 . S
O281 Mg280 2.028 1_554 S
O281 C284 1.250 . S
O282 Mg283 2.028 . S
O282 C284 1.248 . S
Mg283 O282 2.028 . S
Mg283 O288 2.032 1_554 S
Mg283 O290 2.079 . S
C284 O281 1.250 . S
C284 O282 1.248 . S
C285 O286 1.264 . S
C285 O293 1.249 . S
O286 C285 1.264 . S
O287 Mg280 1.986 . S
O287 C291 1.246 . S
O288 Mg283 2.032 1_556 S
O288 C291 1.259 . S
O289 Mg280 2.114 1_554 S
O289 C292 1.252 . S
O290 Mg280 2.251 1_554 S
O290 Mg283 2.079 . S
O290 C292 1.273 . S
C291 O287 1.246 . S
C291 O288 1.259 . S
C292 O289 1.252 . S
C292 O290 1.273 . S
O293 Mg280 2.010 . S
O293 C285 1.249 . S
Mg294 O295 2.028 . S
Mg294 O301 1.986 . S
Mg294 O303 2.114 . S
Mg294 O304 2.251 . S
Mg294 O307 2.010 . S
O295 Mg294 2.028 . S
O295 C298 1.250 . S
O296 Mg297 2.028 . S
O296 C298 1.248 . S
Mg297 O296 2.028 . S
Mg297 O302 2.032 . S
Mg297 O304 2.079 . S
C298 O295 1.250 . S
C298 O296 1.248 . S
C299 O300 1.264 . S
C299 O307 1.249 . S
O300 C299 1.264 . S
O301 Mg294 1.986 . S
O301 C305 1.246 . S
O302 Mg297 2.032 . S
O302 C305 1.259 . S
O303 Mg294 2.114 . S
O303 C306 1.252 . S
O304 Mg294 2.251 . S
O304 Mg297 2.079 . S
O304 C306 1.273 . S
C305 O301 1.246 . S
C305 O302 1.259 . S
C306 O303 1.252 . S
C306 O304 1.273 . S
O307 Mg294 2.010 . S
O307 C299 1.249 . S
Mg308 O309 2.028 . S
Mg308 O315 1.986 . S
Mg308 O317 2.114 . S
Mg308 O318 2.251 . S
Mg308 O321 2.010 . S
O309 Mg308 2.028 . S
O309 C312 1.250 . S
O310 Mg311 2.028 . S
O310 C312 1.248 . S
Mg311 O310 2.028 . S
Mg311 O316 2.032 . S
Mg311 O318 2.079 . S
C312 O309 1.250 . S
C312 O310 1.248 . S
C313 O314 1.264 . S
C313 O321 1.249 . S
O314 C313 1.264 . S
O315 Mg308 1.986 . S
O315 C319 1.246 . S
O316 Mg311 2.032 . S
O316 C319 1.259 . S
O317 Mg308 2.114 . S
O317 C320 1.252 . S
O318 Mg308 2.251 . S
O318 Mg311 2.079 . S
O318 C320 1.273 . S
C319 O315 1.246 . S
C319 O316 1.259 . S
C320 O317 1.252 . S
C320 O318 1.273 . S
O321 Mg308 2.010 . S
O321 C313 1.249 . S
Mg322 O323 2.028 . S
Mg322 O329 1.986 . S
Mg322 O331 2.114 . S
Mg322 O332 2.251 . S
Mg322 O335 2.010 . S
O323 Mg322 2.028 . S
O323 C326 1.250 . S
O324 Mg325 2.028 . S
O324 C326 1.248 . S
Mg325 O324 2.028 . S
Mg325 O330 2.032 . S
Mg325 O332 2.079 . S
C326 O323 1.250 . S
C326 O324 1.248 . S
C327 O328 1.264 . S
C327 O335 1.249 . S
O328 C327 1.264 . S
O329 Mg322 1.986 . S
O329 C333 1.246 . S
O330 Mg325 2.032 . S
O330 C333 1.259 . S
O331 Mg322 2.114 . S
O331 C334 1.252 . S
O332 Mg322 2.251 . S
O332 Mg325 2.079 . S
O332 C334 1.273 . S
C333 O329 1.246 . S
C333 O330 1.259 . S
C334 O331 1.252 . S
C334 O332 1.273 . S
O335 Mg322 2.010 . S
O335 C327 1.249 . S
Ho336 C339 2.811 1_455 S
Ho336 O356 2.322 . S
Ho336 O358 2.378 1_455 S
Ho336 O359 2.524 1_456 S
Ho336 O360 2.381 . S
Ho336 O361 2.669 . S
Ho336 O363 2.346 1_546 S
Ho336 O367 2.305 1_556 S
Ho337 C348 2.811 . S
Ho337 O357 2.346 . S
Ho337 O361 2.305 1_554 S
Ho337 O362 2.322 . S
Ho337 O364 2.378 . S
Ho337 O365 2.524 . S
Ho337 O366 2.381 . S
Ho337 O367 2.669 . S
C338 O356 1.259 1_554 S
C338 O357 1.268 . S
C339 Ho336 2.811 1_655 S
C339 C340 1.488 . S
C339 O358 1.215 . S
C339 O359 1.289 1_556 S
C340 C339 1.488 . S
C340 C341 1.348 . S
C340 C345 1.413 . S
C341 C340 1.348 . S
C341 C342 1.442 . S
C341 H368 0.930 1_556 S
C342 C341 1.442 . S
C342 C343 1.381 . S
C342 H369 0.931 1_556 S
C343 C342 1.381 . S
C343 C344 1.321 . S
C344 C343 1.321 . S
C344 C345 1.403 . S
C344 H370 0.934 . S
C345 C340 1.413 . S
C345 C344 1.403 . S
C345 H371 0.930 . S
C346 O360 1.275 . S
C346 O361 1.256 . S
C347 O362 1.259 1_565 S
C347 O363 1.268 . S
C348 Ho337 2.811 . S
C348 C349 1.488 . S
C348 O364 1.215 . S
C348 O365 1.289 . S
C349 C348 1.488 . S
C349 C350 1.348 . S
C349 C354 1.413 . S
C350 C349 1.348 . S
C350 C351 1.442 1_545 S
C350 H372 0.930 1_545 S
C351 C350 1.442 1_565 S
C351 C352 1.381 1_565 S
C351 H373 0.931 . S
C352 C351 1.381 1_545 S
C352 C353 1.321 . S
C353 C352 1.321 . S
C353 C354 1.403 . S
C353 H374 0.934 . S
C354 C349 1.413 . S
C354 C353 1.403 . S
C354 H375 0.930 . S
C355 O366 1.275 . S
C355 O367 1.256 . S
O356 Ho336 2.322 . S
O356 C338 1.259 1_556 S
O357 Ho337 2.346 . S
O357 C338 1.268 . S
O358 Ho336 2.378 1_655 S
O358 C339 1.215 . S
O359 Ho336 2.524 1_654 S
O359 C339 1.289 1_554 S
O360 Ho336 2.381 . S
O360 C346 1.275 . S
O361 Ho336 2.669 . S
O361 Ho337 2.305 1_556 S
O361 C346 1.256 . S
O362 Ho337 2.322 . S
O362 C347 1.259 1_545 S
O363 Ho336 2.346 1_564 S
O363 C347 1.268 . S
O364 Ho337 2.378 . S
O364 C348 1.215 . S
O365 Ho337 2.524 . S
O365 C348 1.289 . S
O366 Ho337 2.381 . S
O366 C355 1.275 . S
O367 Ho336 2.305 1_554 S
O367 Ho337 2.669 . S
O367 C355 1.256 . S
H368 C341 0.930 1_554 S
H369 C342 0.931 1_554 S
H370 C344 0.934 . S
H371 C345 0.930 . S
H372 C350 0.930 1_565 S
H373 C351 0.931 . S
H374 C353 0.934 . S
H375 C354 0.930 . S
Ho376 C379 2.811 . S
Ho376 O396 2.322 . S
Ho376 O398 2.378 . S
Ho376 O399 2.524 . S
Ho376 O400 2.381 . S
Ho376 O401 2.669 . S
Ho376 O403 2.346 . S
Ho376 O407 2.305 . S
Ho377 C388 2.811 . S
Ho377 O397 2.346 . S
Ho377 O401 2.305 . S
Ho377 O402 2.322 . S
Ho377 O404 2.378 . S
Ho377 O405 2.524 . S
Ho377 O406 2.381 . S
Ho377 O407 2.669 . S
C378 O396 1.259 . S
C378 O397 1.268 . S
C379 Ho376 2.811 . S
C379 C380 1.488 . S
C379 O398 1.215 . S
C379 O399 1.289 . S
C380 C379 1.488 . S
C380 C381 1.348 . S
C380 C385 1.413 . S
C381 C380 1.348 . S
C381 C382 1.442 . S
C381 H408 0.930 . S
C382 C381 1.442 . S
C382 C383 1.381 . S
C382 H409 0.931 . S
C383 C382 1.381 . S
C383 C384 1.321 . S
C384 C383 1.321 . S
C384 C385 1.403 . S
C384 H410 0.934 . S
C385 C380 1.413 . S
C385 C384 1.403 . S
C385 H411 0.930 . S
C386 O400 1.275 . S
C386 O401 1.256 . S
C387 O402 1.259 . S
C387 O403 1.268 . S
C388 Ho377 2.811 . S
C388 C389 1.488 . S
C388 O404 1.215 . S
C388 O405 1.289 . S
C389 C388 1.488 . S
C389 C390 1.348 . S
C389 C394 1.413 . S
C390 C389 1.348 . S
C390 C391 1.442 . S
C390 H412 0.930 . S
C391 C390 1.442 . S
C391 C392 1.381 . S
C391 H413 0.931 . S
C392 C391 1.381 . S
C392 C393 1.321 . S
C393 C392 1.321 . S
C393 C394 1.403 . S
C393 H414 0.934 . S
C394 C389 1.413 . S
C394 C393 1.403 . S
C394 H415 0.930 . S
C395 O406 1.275 . S
C395 O407 1.256 . S
O396 Ho376 2.322 . S
O396 C378 1.259 . S
O397 Ho377 2.346 . S
O397 C378 1.268 . S
O398 Ho376 2.378 . S
O398 C379 1.215 . S
O399 Ho376 2.524 . S
O399 C379 1.289 . S
O400 Ho376 2.381 . S
O400 C386 1.275 . S
O401 Ho376 2.669 . S
O401 Ho377 2.305 . S
O401 C386 1.256 . S
O402 Ho377 2.322 . S
O402 C387 1.259 . S
O403 Ho376 2.346 . S
O403 C387 1.268 . S
O404 Ho377 2.378 . S
O404 C388 1.215 . S
O405 Ho377 2.524 . S
O405 C388 1.289 . S
O406 Ho377 2.381 . S
O406 C395 1.275 . S
O407 Ho376 2.305 . S
O407 Ho377 2.669 . S
O407 C395 1.256 . S
H408 C381 0.930 . S
H409 C382 0.931 . S
H410 C384 0.934 . S
H411 C385 0.930 . S
H412 C390 0.930 . S
H413 C391 0.931 . S
H414 C393 0.934 . S
H415 C394 0.930 . S
Ho416 C419 2.811 . S
Ho416 O436 2.322 1_545 S
Ho416 O438 2.378 . S
Ho416 O439 2.524 . S
Ho416 O440 2.381 . S
Ho416 O441 2.669 . S
Ho416 O443 2.346 . S
Ho416 O447 2.305 . S
Ho417 C428 2.811 . S
Ho417 O437 2.346 1_545 S
Ho417 O441 2.305 . S
Ho417 O442 2.322 . S
Ho417 O444 2.378 . S
Ho417 O445 2.524 . S
Ho417 O446 2.381 . S
Ho417 O447 2.669 . S
C418 O436 1.259 . S
C418 O437 1.268 . S
C419 Ho416 2.811 . S
C419 C420 1.488 1_545 S
C419 O438 1.215 . S
C419 O439 1.289 . S
C420 C419 1.488 1_565 S
C420 C421 1.348 . S
C420 C425 1.413 . S
C421 C420 1.348 . S
C421 C422 1.442 . S
C421 H448 0.930 . S
C422 C421 1.442 . S
C422 C423 1.381 . S
C422 H449 0.931 . S
C423 C422 1.381 . S
C423 C424 1.321 . S
C424 C423 1.321 . S
C424 C425 1.403 . S
C424 H450 0.934 . S
C425 C420 1.413 . S
C425 C424 1.403 . S
C425 H451 0.930 . S
C426 O440 1.275 . S
C426 O441 1.256 . S
C427 O442 1.259 . S
C427 O443 1.268 . S
C428 Ho417 2.811 . S
C428 C429 1.488 . S
C428 O444 1.215 . S
C428 O445 1.289 . S
C429 C428 1.488 . S
C429 C430 1.348 . S
C429 C434 1.413 . S
C430 C429 1.348 . S
C430 C431 1.442 . S
C430 H452 0.930 . S
C431 C430 1.442 . S
C431 C432 1.381 . S
C431 H453 0.931 . S
C432 C431 1.381 . S
C432 C433 1.321 . S
C433 C432 1.321 . S
C433 C434 1.403 . S
C433 H454 0.934 . S
C434 C429 1.413 . S
C434 C433 1.403 . S
C434 H455 0.930 . S
C435 O446 1.275 . S
C435 O447 1.256 . S
O436 Ho416 2.322 1_565 S
O436 C418 1.259 . S
O437 Ho417 2.346 1_565 S
O437 C418 1.268 . S
O438 Ho416 2.378 . S
O438 C419 1.215 . S
O439 Ho416 2.524 . S
O439 C419 1.289 . S
O440 Ho416 2.381 . S
O440 C426 1.275 . S
O441 Ho416 2.669 . S
O441 Ho417 2.305 . S
O441 C426 1.256 . S
O442 Ho417 2.322 . S
O442 C427 1.259 . S
O443 Ho416 2.346 . S
O443 C427 1.268 . S
O444 Ho417 2.378 . S
O444 C428 1.215 . S
O445 Ho417 2.524 . S
O445 C428 1.289 . S
O446 Ho417 2.381 . S
O446 C435 1.275 . S
O447 Ho416 2.305 . S
O447 Ho417 2.669 . S
O447 C435 1.256 . S
H448 C421 0.930 . S
H449 C422 0.931 . S
H450 C424 0.934 . S
H451 C425 0.930 . S
H452 C430 0.930 . S
H453 C431 0.931 . S
H454 C433 0.934 . S
H455 C434 0.930 . S
Ho456 C459 2.811 . S
Ho456 O476 2.322 . S
Ho456 O478 2.378 . S
Ho456 O479 2.524 . S
Ho456 O480 2.381 . S
Ho456 O481 2.669 . S
Ho456 O483 2.346 . S
Ho456 O487 2.305 . S
Ho457 C468 2.811 . S
Ho457 O477 2.346 . S
Ho457 O481 2.305 . S
Ho457 O482 2.322 . S
Ho457 O484 2.378 . S
Ho457 O485 2.524 . S
Ho457 O486 2.381 . S
Ho457 O487 2.669 . S
C458 O476 1.259 . S
C458 O477 1.268 . S
C459 Ho456 2.811 . S
C459 C460 1.488 . S
C459 O478 1.215 . S
C459 O479 1.289 . S
C460 C459 1.488 . S
C460 C461 1.348 . S
C460 C465 1.413 . S
C461 C460 1.348 . S
C461 C462 1.442 . S
C461 H488 0.930 . S
C462 C461 1.442 . S
C462 C463 1.381 . S
C462 H489 0.931 . S
C463 C462 1.381 . S
C463 C464 1.321 . S
C464 C463 1.321 . S
C464 C465 1.403 . S
C464 H490 0.934 . S
C465 C460 1.413 . S
C465 C464 1.403 . S
C465 H491 0.930 . S
C466 O480 1.275 . S
C466 O481 1.256 . S
C467 O482 1.259 . S
C467 O483 1.268 . S
C468 Ho457 2.811 . S
C468 C469 1.488 . S
C468 O484 1.215 . S
C468 O485 1.289 . S
C469 C468 1.488 . S
C469 C470 1.348 . S
C469 C474 1.413 . S
C470 C469 1.348 . S
C470 C471 1.442 . S
C470 H492 0.930 . S
C471 C470 1.442 . S
C471 C472 1.381 . S
C471 H493 0.931 . S
C472 C471 1.381 . S
C472 C473 1.321 . S
C473 C472 1.321 . S
C473 C474 1.403 . S
C473 H494 0.934 . S
C474 C469 1.413 . S
C474 C473 1.403 . S
C474 H495 0.930 . S
C475 O486 1.275 . S
C475 O487 1.256 . S
O476 Ho456 2.322 . S
O476 C458 1.259 . S
O477 Ho457 2.346 . S
O477 C458 1.268 . S
O478 Ho456 2.378 . S
O478 C459 1.215 . S
O479 Ho456 2.524 . S
O479 C459 1.289 . S
O480 Ho456 2.381 . S
O480 C466 1.275 . S
O481 Ho456 2.669 . S
O481 Ho457 2.305 . S
O481 C466 1.256 . S
O482 Ho457 2.322 . S
O482 C467 1.259 . S
O483 Ho456 2.346 . S
O483 C467 1.268 . S
O484 Ho457 2.378 . S
O484 C468 1.215 . S
O485 Ho457 2.524 . S
O485 C468 1.289 . S
O486 Ho457 2.381 . S
O486 C475 1.275 . S
O487 Ho456 2.305 . S
O487 Ho457 2.669 . S
O487 C475 1.256 . S
H488 C461 0.930 . S
H489 C462 0.931 . S
H490 C464 0.934 . S
H491 C465 0.930 . S
H492 C470 0.930 . S
H493 C471 0.931 . S
H494 C473 0.934 . S
H495 C474 0.930 . S
Ho496 C499 2.811 . S
Ho496 O516 2.322 . S
Ho496 O518 2.378 . S
Ho496 O519 2.524 . S
Ho496 O520 2.405 . S
Ho496 O521 2.669 . S
Ho496 O523 2.346 . S
Ho496 O527 2.305 . S
Ho497 C508 2.807 . S
Ho497 O517 2.348 1_565 S
Ho497 O521 2.307 1_565 S
Ho497 O522 2.322 1_565 S
Ho497 O524 2.374 . S
Ho497 O525 2.521 . S
Ho497 O526 2.382 1_565 S
Ho497 O527 2.673 1_565 S
C498 O516 1.259 . S
C498 O517 1.268 . S
C499 Ho496 2.811 . S
C499 C500 1.488 . S
C499 O518 1.215 . S
C499 O519 1.289 . S
C500 C499 1.488 . S
C500 C501 1.348 . S
C500 C505 1.413 . S
C501 C500 1.348 . S
C501 C502 1.442 . S
C501 H528 0.930 . S
C502 C501 1.442 . S
C502 C503 1.381 . S
C502 H529 0.931 . S
C503 C502 1.381 . S
C503 C504 1.321 . S
C504 C503 1.321 . S
C504 C505 1.403 . S
C504 H530 0.934 . S
C505 C500 1.413 . S
C505 C504 1.403 . S
C505 H531 0.930 . S
C506 O520 1.284 . S
C506 O521 1.256 . S
C507 O522 1.259 . S
C507 O523 1.268 . S
C508 Ho497 2.807 . S
C508 C509 1.488 . S
C508 O524 1.215 . S
C508 O525 1.289 . S
C509 C508 1.488 . S
C509 C510 1.348 . S
C509 C514 1.413 . S
C510 C509 1.348 . S
C510 C511 1.442 . S
C510 H532 0.930 . S
C511 C510 1.442 . S
C511 C512 1.381 . S
C511 H533 0.931 . S
C512 C511 1.381 . S
C512 C513 1.321 . S
C513 C512 1.321 . S
C513 C514 1.403 . S
C513 H534 0.934 . S
C514 C509 1.413 . S
C514 C513 1.403 . S
C514 H535 0.930 . S
C515 O526 1.275 . S
C515 O527 1.256 . S
O516 Ho496 2.322 . S
O516 C498 1.259 . S
O517 Ho497 2.348 1_545 S
O517 C498 1.268 . S
O518 Ho496 2.378 . S
O518 C499 1.215 . S
O519 Ho496 2.524 . S
O519 C499 1.289 . S
O520 Ho496 2.405 . S
O520 C506 1.284 . S
O521 Ho496 2.669 . S
O521 Ho497 2.307 1_545 S
O521 C506 1.256 . S
O522 Ho497 2.322 1_545 S
O522 C507 1.259 . S
O523 Ho496 2.346 . S
O523 C507 1.268 . S
O524 Ho497 2.374 . S
O524 C508 1.215 . S
O525 Ho497 2.521 . S
O525 C508 1.289 . S
O526 Ho497 2.382 1_545 S
O526 C515 1.275 . S
O527 Ho496 2.305 . S
O527 Ho497 2.673 1_545 S
O527 C515 1.256 . S
H528 C501 0.930 . S
H529 C502 0.931 . S
H530 C504 0.934 . S
H531 C505 0.930 . S
H532 C510 0.930 . S
H533 C511 0.931 . S
H534 C513 0.934 . S
H535 C514 0.930 . S
Ho536 C539 2.811 . S
Ho536 O556 2.322 . S
Ho536 O558 2.378 . S
Ho536 O559 2.524 . S
Ho536 O560 2.381 . S
Ho536 O561 2.669 . S
Ho536 O563 2.346 . S
Ho536 O567 2.305 . S
Ho537 C548 2.811 . S
Ho537 O557 2.346 . S
Ho537 O561 2.305 . S
Ho537 O562 2.322 . S
Ho537 O564 2.378 . S
Ho537 O565 2.524 . S
Ho537 O566 2.381 . S
Ho537 O567 2.669 . S
C538 O556 1.259 . S
C538 O557 1.268 . S
C539 Ho536 2.811 . S
C539 C540 1.488 . S
C539 O558 1.215 . S
C539 O559 1.289 . S
C540 C539 1.488 . S
C540 C541 1.348 . S
C540 C545 1.413 . S
C541 C540 1.348 . S
C541 C542 1.442 . S
C541 H568 0.930 . S
C542 C541 1.442 . S
C542 C543 1.381 . S
C542 H569 0.931 . S
C543 C542 1.381 . S
C543 C544 1.321 . S
C544 C543 1.321 . S
C544 C545 1.403 . S
C544 H570 0.934 . S
C545 C540 1.413 . S
C545 C544 1.403 . S
C545 H571 0.930 . S
C546 O560 1.275 . S
C546 O561 1.256 . S
C547 O562 1.259 . S
C547 O563 1.268 . S
C548 Ho537 2.811 . S
C548 C549 1.488 . S
C548 O564 1.215 . S
C548 O565 1.289 . S
C549 C548 1.488 . S
C549 C550 1.348 . S
C549 C554 1.413 . S
C550 C549 1.348 . S
C550 C551 1.442 . S
C550 H572 0.930 . S
C551 C550 1.442 . S
C551 C552 1.381 . S
C551 H573 0.931 . S
C552 C551 1.381 . S
C552 C553 1.321 . S
C553 C552 1.321 . S
C553 C554 1.403 . S
C553 H574 0.934 . S
C554 C549 1.413 . S
C554 C553 1.403 . S
C554 H575 0.930 . S
C555 O566 1.275 . S
C555 O567 1.256 . S
O556 Ho536 2.322 . S
O556 C538 1.259 . S
O557 Ho537 2.346 . S
O557 C538 1.268 . S
O558 Ho536 2.378 . S
O558 C539 1.215 . S
O559 Ho536 2.524 . S
O559 C539 1.289 . S
O560 Ho536 2.381 . S
O560 C546 1.275 . S
O561 Ho536 2.669 . S
O561 Ho537 2.305 . S
O561 C546 1.256 . S
O562 Ho537 2.322 . S
O562 C547 1.259 . S
O563 Ho536 2.346 . S
O563 C547 1.268 . S
O564 Ho537 2.378 . S
O564 C548 1.215 . S
O565 Ho537 2.524 . S
O565 C548 1.289 . S
O566 Ho537 2.381 . S
O566 C555 1.275 . S
O567 Ho536 2.305 . S
O567 Ho537 2.669 . S
O567 C555 1.256 . S
H568 C541 0.930 . S
H569 C542 0.931 . S
H570 C544 0.934 . S
H571 C545 0.930 . S
H572 C550 0.930 . S
H573 C551 0.931 . S
H574 C553 0.934 . S
H575 C554 0.930 . S
Ho576 C579 2.811 . S
Ho576 O596 2.328 . S
Ho576 O598 2.378 1_545 S
Ho576 O599 2.524 . S
Ho576 O600 2.381 1_545 S
Ho576 O601 2.669 1_554 S
Ho576 O603 2.346 . S
Ho576 O607 2.305 . S
Ho577 C588 2.811 . S
Ho577 O597 2.346 . S
Ho577 O601 2.305 . S
Ho577 O602 2.331 . S
Ho577 O604 2.378 . S
Ho577 O605 2.524 . S
Ho577 O606 2.381 1_556 S
Ho577 O607 2.669 1_556 S
C578 O596 1.286 . S
C578 O597 1.268 1_554 S
C579 Ho576 2.811 . S
C579 C580 1.472 1_545 S
C579 O598 1.215 1_545 S
C579 O599 1.289 . S
C580 C579 1.472 1_565 S
C580 C581 1.317 1_565 S
C580 C585 1.463 . S
C581 C580 1.317 1_545 S
C581 C582 1.442 . S
C581 H608 0.930 . S
C582 C581 1.442 . S
C582 C583 1.381 1_545 S
C582 H609 0.931 . S
C583 C582 1.381 1_565 S
C583 C584 1.321 . S
C584 C583 1.321 . S
C584 C585 1.403 . S
C584 H610 0.934 . S
C585 C580 1.463 . S
C585 C584 1.403 . S
C585 H611 0.930 . S
C586 O600 1.275 1_556 S
C586 O601 1.256 1_565 S
C587 O602 1.239 1_554 S
C587 O603 1.268 . S
C588 Ho577 2.811 . S
C588 C589 1.488 . S
C588 O604 1.215 . S
C588 O605 1.289 . S
C589 C588 1.488 . S
C589 C590 1.348 . S
C589 C594 1.413 . S
C590 C589 1.348 . S
C590 C591 1.442 . S
C590 H612 0.930 . S
C591 C590 1.442 . S
C591 C592 1.381 . S
C591 H613 0.931 . S
C592 C591 1.381 . S
C592 C593 1.321 . S
C593 C592 1.321 . S
C593 C594 1.403 . S
C593 H614 0.934 . S
C594 C589 1.413 . S
C594 C593 1.403 . S
C594 H615 0.930 . S
C595 O606 1.275 . S
C595 O607 1.256 . S
O596 Ho576 2.328 . S
O596 C578 1.286 . S
O597 Ho577 2.346 . S
O597 C578 1.268 1_556 S
O598 Ho576 2.378 1_565 S
O598 C579 1.215 1_565 S
O599 Ho576 2.524 . S
O599 C579 1.289 . S
O600 Ho576 2.381 1_565 S
O600 C586 1.275 1_554 S
O601 Ho576 2.669 1_556 S
O601 Ho577 2.305 . S
O601 C586 1.256 1_545 S
O602 Ho577 2.331 . S
O602 C587 1.239 1_556 S
O603 Ho576 2.346 . S
O603 C587 1.268 . S
O604 Ho577 2.378 . S
O604 C588 1.215 . S
O605 Ho577 2.524 . S
O605 C588 1.289 . S
O606 Ho577 2.381 1_554 S
O606 C595 1.275 . S
O607 Ho576 2.305 . S
O607 Ho577 2.669 1_554 S
O607 C595 1.256 . S
H608 C581 0.930 . S
H609 C582 0.931 . S
H610 C584 0.934 . S
H611 C585 0.930 . S
H612 C590 0.930 . S
H613 C591 0.931 . S
H614 C593 0.934 . S
H615 C594 0.930 . S
Ho616 C619 2.811 . S
Ho616 O636 2.322 . S
Ho616 O638 2.378 . S
Ho616 O639 2.524 . S
Ho616 O640 2.381 . S
Ho616 O641 2.669 . S
Ho616 O643 2.346 . S
Ho616 O647 2.305 . S
Ho617 C628 2.811 . S
Ho617 O637 2.346 . S
Ho617 O641 2.305 . S
Ho617 O642 2.322 . S
Ho617 O644 2.378 . S
Ho617 O645 2.524 . S
Ho617 O646 2.381 . S
Ho617 O647 2.669 . S
C618 O636 1.259 . S
C618 O637 1.268 . S
C619 Ho616 2.811 . S
C619 C620 1.488 . S
C619 O638 1.215 . S
C619 O639 1.289 . S
C620 C619 1.488 . S
C620 C621 1.348 . S
C620 C625 1.413 . S
C621 C620 1.348 . S
C621 C622 1.442 . S
C621 H648 0.930 . S
C622 C621 1.442 . S
C622 C623 1.381 . S
C622 H649 0.931 . S
C623 C622 1.381 . S
C623 C624 1.321 . S
C624 C623 1.321 . S
C624 C625 1.403 . S
C624 H650 0.934 . S
C625 C620 1.413 . S
C625 C624 1.403 . S
C625 H651 0.930 . S
C626 O640 1.275 . S
C626 O641 1.256 . S
C627 O642 1.259 . S
C627 O643 1.268 . S
C628 Ho617 2.811 . S
C628 C629 1.488 . S
C628 O644 1.215 . S
C628 O645 1.289 . S
C629 C628 1.488 . S
C629 C630 1.348 . S
C629 C634 1.413 . S
C630 C629 1.348 . S
C630 C631 1.442 . S
C630 H652 0.930 . S
C631 C630 1.442 . S
C631 C632 1.381 . S
C631 H653 0.931 . S
C632 C631 1.381 . S
C632 C633 1.321 . S
C633 C632 1.321 . S
C633 C634 1.403 . S
C633 H654 0.934 . S
C634 C629 1.413 . S
C634 C633 1.403 . S
C634 H655 0.930 . S
C635 O646 1.275 . S
C635 O647 1.256 . S
O636 Ho616 2.322 . S
O636 C618 1.259 . S
O637 Ho617 2.346 . S
O637 C618 1.268 . S
O638 Ho616 2.378 . S
O638 C619 1.215 . S
O639 Ho616 2.524 . S
O639 C619 1.289 . S
O640 Ho616 2.381 . S
O640 C626 1.275 . S
O641 Ho616 2.669 . S
O641 Ho617 2.305 . S
O641 C626 1.256 . S
O642 Ho617 2.322 . S
O642 C627 1.259 . S
O643 Ho616 2.346 . S
O643 C627 1.268 . S
O644 Ho617 2.378 . S
O644 C628 1.215 . S
O645 Ho617 2.524 . S
O645 C628 1.289 . S
O646 Ho617 2.381 . S
O646 C635 1.275 . S
O647 Ho616 2.305 . S
O647 Ho617 2.669 . S
O647 C635 1.256 . S
H648 C621 0.930 . S
H649 C622 0.931 . S
H650 C624 0.934 . S
H651 C625 0.930 . S
H652 C630 0.930 . S
H653 C631 0.931 . S
H654 C633 0.934 . S
H655 C634 0.930 . S
Ho656 C659 2.811 . S
Ho656 O676 2.322 1_554 S
Ho656 O678 2.378 . S
Ho656 O679 2.541 . S
Ho656 O680 2.381 . S
Ho656 O681 2.669 . S
Ho656 O683 2.346 . S
Ho656 O687 2.305 . S
Ho657 C668 2.811 . S
Ho657 O677 2.346 1_554 S
Ho657 O681 2.305 . S
Ho657 O682 2.322 . S
Ho657 O684 2.378 . S
Ho657 O685 2.524 . S
Ho657 O686 2.381 . S
Ho657 O687 2.669 . S
C658 O676 1.259 . S
C658 O677 1.268 . S
C659 Ho656 2.811 . S
C659 C660 1.488 1_554 S
C659 O678 1.215 . S
C659 O679 1.293 . S
C660 C659 1.488 1_556 S
C660 C661 1.348 . S
C660 C665 1.413 . S
C661 C660 1.348 . S
C661 C662 1.442 . S
C661 H688 0.930 . S
C662 C661 1.442 . S
C662 C663 1.381 . S
C662 H689 0.931 . S
C663 C662 1.381 . S
C663 C664 1.321 . S
C664 C663 1.321 . S
C664 C665 1.403 . S
C664 H690 0.934 . S
C665 C660 1.413 . S
C665 C664 1.403 . S
C665 H691 0.930 1_556 S
C666 O680 1.275 . S
C666 O681 1.256 . S
C667 O682 1.259 . S
C667 O683 1.268 . S
C668 Ho657 2.811 . S
C668 C669 1.488 . S
C668 O684 1.215 . S
C668 O685 1.289 . S
C669 C668 1.488 . S
C669 C670 1.348 . S
C669 C674 1.413 . S
C670 C669 1.348 . S
C670 C671 1.442 . S
C670 H692 0.930 . S
C671 C670 1.442 . S
C671 C672 1.381 . S
C671 H693 0.931 . S
C672 C671 1.381 . S
C672 C673 1.321 . S
C673 C672 1.321 . S
C673 C674 1.403 . S
C673 H694 0.934 . S
C674 C669 1.413 . S
C674 C673 1.403 . S
C674 H695 0.930 . S
C675 O686 1.275 . S
C675 O687 1.256 . S
O676 Ho656 2.322 1_556 S
O676 C658 1.259 . S
O677 Ho657 2.346 1_556 S
O677 C658 1.268 . S
O678 Ho656 2.378 . S
O678 C659 1.215 . S
O679 Ho656 2.541 . S
O679 C659 1.293 . S
O680 Ho656 2.381 . S
O680 C666 1.275 . S
O681 Ho656 2.669 . S
O681 Ho657 2.305 . S
O681 C666 1.256 . S
O682 Ho657 2.322 . S
O682 C667 1.259 . S
O683 Ho656 2.346 . S
O683 C667 1.268 . S
O684 Ho657 2.378 . S
O684 C668 1.215 . S
O685 Ho657 2.524 . S
O685 C668 1.289 . S
O686 Ho657 2.381 . S
O686 C675 1.275 . S
O687 Ho656 2.305 . S
O687 Ho657 2.669 . S
O687 C675 1.256 . S
H688 C661 0.930 . S
H689 C662 0.931 . S
H690 C664 0.934 . S
H691 C665 0.930 1_554 S
H692 C670 0.930 . S
H693 C671 0.931 . S
H694 C673 0.934 . S
H695 C674 0.930 . S
Ho696 C699 2.811 . S
Ho696 O716 2.322 . S
Ho696 O718 2.378 . S
Ho696 O719 2.524 . S
Ho696 O720 2.381 . S
Ho696 O721 2.669 . S
Ho696 O723 2.346 . S
Ho696 O727 2.305 . S
Ho697 C708 2.811 . S
Ho697 O717 2.346 . S
Ho697 O721 2.305 . S
Ho697 O722 2.322 . S
Ho697 O724 2.378 . S
Ho697 O725 2.524 . S
Ho697 O726 2.381 . S
Ho697 O727 2.669 . S
C698 O716 1.259 . S
C698 O717 1.268 . S
C699 Ho696 2.811 . S
C699 C700 1.488 . S
C699 O718 1.215 . S
C699 O719 1.289 . S
C700 C699 1.488 . S
C700 C701 1.348 . S
C700 C705 1.413 . S
C701 C700 1.348 . S
C701 C702 1.442 . S
C701 H728 0.930 . S
C702 C701 1.442 . S
C702 C703 1.381 . S
C702 H729 0.931 . S
C703 C702 1.381 . S
C703 C704 1.321 . S
C704 C703 1.321 . S
C704 C705 1.403 . S
C704 H730 0.934 . S
C705 C700 1.413 . S
C705 C704 1.403 . S
C705 H731 0.930 . S
C706 O720 1.275 . S
C706 O721 1.256 . S
C707 O722 1.259 . S
C707 O723 1.268 . S
C708 Ho697 2.811 . S
C708 C709 1.488 . S
C708 O724 1.215 . S
C708 O725 1.289 . S
C709 C708 1.488 . S
C709 C710 1.348 . S
C709 C714 1.413 . S
C710 C709 1.348 . S
C710 C711 1.442 . S
C710 H732 0.930 . S
C711 C710 1.442 . S
C711 C712 1.381 . S
C711 H733 0.931 . S
C712 C711 1.381 . S
C712 C713 1.321 . S
C713 C712 1.321 . S
C713 C714 1.403 . S
C713 H734 0.934 . S
C714 C709 1.413 . S
C714 C713 1.403 . S
C714 H735 0.930 . S
C715 O726 1.275 . S
C715 O727 1.256 . S
O716 Ho696 2.322 . S
O716 C698 1.259 . S
O717 Ho697 2.346 . S
O717 C698 1.268 . S
O718 Ho696 2.378 . S
O718 C699 1.215 . S
O719 Ho696 2.524 . S
O719 C699 1.289 . S
O720 Ho696 2.381 . S
O720 C706 1.275 . S
O721 Ho696 2.669 . S
O721 Ho697 2.305 . S
O721 C706 1.256 . S
O722 Ho697 2.322 . S
O722 C707 1.259 . S
O723 Ho696 2.346 . S
O723 C707 1.268 . S
O724 Ho697 2.378 . S
O724 C708 1.215 . S
O725 Ho697 2.524 . S
O725 C708 1.289 . S
O726 Ho697 2.381 . S
O726 C715 1.275 . S
O727 Ho696 2.305 . S
O727 Ho697 2.669 . S
O727 C715 1.256 . S
H728 C701 0.930 . S
H729 C702 0.931 . S
H730 C704 0.934 . S
H731 C705 0.930 . S
H732 C710 0.930 . S
H733 C711 0.931 . S
H734 C713 0.934 . S
H735 C714 0.930 . S
Ho736 C739 2.811 . S
Ho736 O756 2.322 . S
Ho736 O758 2.378 . S
Ho736 O759 2.524 . S
Ho736 O760 2.381 . S
Ho736 O761 2.669 . S
Ho736 O763 2.346 . S
Ho736 O767 2.305 . S
Ho737 C748 2.811 . S
Ho737 O757 2.346 . S
Ho737 O761 2.305 . S
Ho737 O762 2.322 . S
Ho737 O764 2.378 . S
Ho737 O765 2.524 . S
Ho737 O766 2.381 . S
Ho737 O767 2.669 . S
C738 O756 1.259 . S
C738 O757 1.268 . S
C739 Ho736 2.811 . S
C739 C740 1.488 . S
C739 O758 1.215 . S
C739 O759 1.289 . S
C740 C739 1.488 . S
C740 C741 1.348 1_455 S
C740 C745 1.413 . S
C741 C740 1.348 1_655 S
C741 C742 1.442 . S
C741 H768 0.930 . S
C742 C741 1.442 . S
C742 C743 1.381 . S
C742 H769 0.931 . S
C743 C742 1.381 . S
C743 C744 1.321 1_655 S
C744 C743 1.321 1_455 S
C744 C745 1.403 . S
C744 H770 0.934 . S
C745 C740 1.413 . S
C745 C744 1.403 . S
C745 H771 0.930 . S
C746 O760 1.275 . S
C746 O761 1.256 . S
C747 O762 1.259 . S
C747 O763 1.268 . S
C748 Ho737 2.811 . S
C748 C749 1.488 . S
C748 O764 1.215 . S
C748 O765 1.289 . S
C749 C748 1.488 . S
C749 C750 1.348 . S
C749 C754 1.413 . S
C750 C749 1.348 . S
C750 C751 1.442 . S
C750 H772 0.930 . S
C751 C750 1.442 . S
C751 C752 1.381 . S
C751 H773 0.931 . S
C752 C751 1.381 . S
C752 C753 1.321 . S
C753 C752 1.321 . S
C753 C754 1.403 . S
C753 H774 0.934 . S
C754 C749 1.413 . S
C754 C753 1.403 . S
C754 H775 0.930 . S
C755 O766 1.275 . S
C755 O767 1.256 . S
O756 Ho736 2.322 . S
O756 C738 1.259 . S
O757 Ho737 2.346 . S
O757 C738 1.268 . S
O758 Ho736 2.378 . S
O758 C739 1.215 . S
O759 Ho736 2.524 . S
O759 C739 1.289 . S
O760 Ho736 2.381 . S
O760 C746 1.275 . S
O761 Ho736 2.669 . S
O761 Ho737 2.305 . S
O761 C746 1.256 . S
O762 Ho737 2.322 . S
O762 C747 1.259 . S
O763 Ho736 2.346 . S
O763 C747 1.268 . S
O764 Ho737 2.378 . S
O764 C748 1.215 . S
O765 Ho737 2.524 . S
O765 C748 1.289 . S
O766 Ho737 2.381 . S
O766 C755 1.275 . S
O767 Ho736 2.305 . S
O767 Ho737 2.669 . S
O767 C755 1.256 . S
H768 C741 0.930 . S
H769 C742 0.931 . S
H770 C744 0.934 . S
H771 C745 0.930 . S
H772 C750 0.930 . S
H773 C751 0.931 . S
H774 C753 0.934 . S
H775 C754 0.930 . S
Ho776 C779 2.811 . S
Ho776 O796 2.322 . S
Ho776 O798 2.378 . S
Ho776 O799 2.524 . S
Ho776 O800 2.381 . S
Ho776 O801 2.669 . S
Ho776 O803 2.346 . S
Ho776 O807 2.305 . S
Ho777 C788 2.811 . S
Ho777 O797 2.346 . S
Ho777 O801 2.305 . S
Ho777 O802 2.322 . S
Ho777 O804 2.378 . S
Ho777 O805 2.524 . S
Ho777 O806 2.381 . S
Ho777 O807 2.669 . S
C778 O796 1.259 . S
C778 O797 1.268 . S
C779 Ho776 2.811 . S
C779 C780 1.488 . S
C779 O798 1.215 . S
C779 O799 1.289 . S
C780 C779 1.488 . S
C780 C781 1.348 . S
C780 C785 1.413 . S
C781 C780 1.348 . S
C781 C782 1.442 . S
C781 H808 0.930 . S
C782 C781 1.442 . S
C782 C783 1.381 . S
C782 H809 0.931 . S
C783 C782 1.381 . S
C783 C784 1.321 . S
C784 C783 1.321 . S
C784 C785 1.403 . S
C784 H810 0.934 . S
C785 C780 1.413 . S
C785 C784 1.403 . S
C785 H811 0.930 . S
C786 O800 1.275 . S
C786 O801 1.256 . S
C787 O802 1.259 . S
C787 O803 1.268 . S
C788 Ho777 2.811 . S
C788 C789 1.488 . S
C788 O804 1.215 . S
C788 O805 1.289 . S
C789 C788 1.488 . S
C789 C790 1.348 . S
C789 C794 1.413 . S
C790 C789 1.348 . S
C790 C791 1.442 . S
C790 H812 0.930 . S
C791 C790 1.442 . S
C791 C792 1.381 . S
C791 H813 0.931 . S
C792 C791 1.381 . S
C792 C793 1.321 . S
C793 C792 1.321 . S
C793 C794 1.403 . S
C793 H814 0.934 . S
C794 C789 1.413 . S
C794 C793 1.403 . S
C794 H815 0.930 . S
C795 O806 1.275 . S
C795 O807 1.256 . S
O796 Ho776 2.322 . S
O796 C778 1.259 . S
O797 Ho777 2.346 . S
O797 C778 1.268 . S
O798 Ho776 2.378 . S
O798 C779 1.215 . S
O799 Ho776 2.524 . S
O799 C779 1.289 . S
O800 Ho776 2.381 . S
O800 C786 1.275 . S
O801 Ho776 2.669 . S
O801 Ho777 2.305 . S
O801 C786 1.256 . S
O802 Ho777 2.322 . S
O802 C787 1.259 . S
O803 Ho776 2.346 . S
O803 C787 1.268 . S
O804 Ho777 2.378 . S
O804 C788 1.215 . S
O805 Ho777 2.524 . S
O805 C788 1.289 . S
O806 Ho777 2.381 . S
O806 C795 1.275 . S
O807 Ho776 2.305 . S
O807 Ho777 2.669 . S
O807 C795 1.256 . S
H808 C781 0.930 . S
H809 C782 0.931 . S
H810 C784 0.934 . S
H811 C785 0.930 . S
H812 C790 0.930 . S
H813 C791 0.931 . S
H814 C793 0.934 . S
H815 C794 0.930 . S
Ho816 C819 2.811 . S
Ho816 O836 2.322 . S
Ho816 O838 2.378 . S
Ho816 O839 2.524 . S
Ho816 O840 2.381 . S
Ho816 O841 2.669 . S
Ho816 O843 2.346 . S
Ho816 O847 2.305 . S
Ho817 C828 2.811 . S
Ho817 O837 2.346 . S
Ho817 O841 2.305 . S
Ho817 O842 2.322 . S
Ho817 O844 2.378 . S
Ho817 O845 2.524 . S
Ho817 O846 2.381 . S
Ho817 O847 2.669 . S
C818 O836 1.259 . S
C818 O837 1.268 . S
C819 Ho816 2.811 . S
C819 C820 1.488 . S
C819 O838 1.215 . S
C819 O839 1.289 . S
C820 C819 1.488 . S
C820 C821 1.348 . S
C820 C825 1.413 . S
C821 C820 1.348 . S
C821 C822 1.442 . S
C821 H848 0.930 . S
C822 C821 1.442 . S
C822 C823 1.381 . S
C822 H849 0.931 . S
C823 C822 1.381 . S
C823 C824 1.321 . S
C824 C823 1.321 . S
C824 C825 1.403 . S
C824 H850 0.934 . S
C825 C820 1.413 . S
C825 C824 1.403 . S
C825 H851 0.930 . S
C826 O840 1.275 . S
C826 O841 1.256 . S
C827 O842 1.259 . S
C827 O843 1.268 . S
C828 Ho817 2.811 . S
C828 C829 1.488 . S
C828 O844 1.215 . S
C828 O845 1.289 . S
C829 C828 1.488 . S
C829 C830 1.348 . S
C829 C834 1.413 . S
C830 C829 1.348 . S
C830 C831 1.442 . S
C830 H852 0.930 . S
C831 C830 1.442 . S
C831 C832 1.381 . S
C831 H853 0.931 . S
C832 C831 1.381 . S
C832 C833 1.321 . S
C833 C832 1.321 . S
C833 C834 1.403 . S
C833 H854 0.934 . S
C834 C829 1.413 . S
C834 C833 1.403 . S
C834 H855 0.930 . S
C835 O846 1.275 . S
C835 O847 1.256 . S
O836 Ho816 2.322 . S
O836 C818 1.259 . S
O837 Ho817 2.346 . S
O837 C818 1.268 . S
O838 Ho816 2.378 . S
O838 C819 1.215 . S
O839 Ho816 2.524 . S
O839 C819 1.289 . S
O840 Ho816 2.381 . S
O840 C826 1.275 . S
O841 Ho816 2.669 . S
O841 Ho817 2.305 . S
O841 C826 1.256 . S
O842 Ho817 2.322 . S
O842 C827 1.259 . S
O843 Ho816 2.346 . S
O843 C827 1.268 . S
O844 Ho817 2.378 . S
O844 C828 1.215 . S
O845 Ho817 2.524 . S
O845 C828 1.289 . S
O846 Ho817 2.381 . S
O846 C835 1.275 . S
O847 Ho816 2.305 . S
O847 Ho817 2.669 . S
O847 C835 1.256 . S
H848 C821 0.930 . S
H849 C822 0.931 . S
H850 C824 0.934 . S
H851 C825 0.930 . S
H852 C830 0.930 . S
H853 C831 0.931 . S
H854 C833 0.934 . S
H855 C834 0.930 . S
Ho856 C859 2.811 . S
Ho856 O876 2.322 . S
Ho856 O878 2.378 . S
Ho856 O879 2.524 . S
Ho856 O880 2.381 . S
Ho856 O881 2.669 . S
Ho856 O883 2.346 . S
Ho856 O887 2.305 . S
Ho857 C868 2.811 . S
Ho857 O877 2.346 . S
Ho857 O881 2.305 . S
Ho857 O882 2.322 . S
Ho857 O884 2.378 . S
Ho857 O885 2.524 . S
Ho857 O886 2.381 . S
Ho857 O887 2.669 . S
C858 O876 1.259 . S
C858 O877 1.268 . S
C859 Ho856 2.811 . S
C859 C860 1.488 . S
C859 O878 1.215 . S
C859 O879 1.289 . S
C860 C859 1.488 . S
C860 C861 1.348 . S
C860 C865 1.413 . S
C861 C860 1.348 . S
C861 C862 1.442 . S
C861 H888 0.930 . S
C862 C861 1.442 . S
C862 C863 1.381 . S
C862 H889 0.931 . S
C863 C862 1.381 . S
C863 C864 1.321 . S
C864 C863 1.321 . S
C864 C865 1.403 . S
C864 H890 0.934 . S
C865 C860 1.413 . S
C865 C864 1.403 . S
C865 H891 0.930 . S
C866 O880 1.275 . S
C866 O881 1.256 . S
C867 O882 1.259 . S
C867 O883 1.268 . S
C868 Ho857 2.811 . S
C868 C869 1.488 . S
C868 O884 1.215 . S
C868 O885 1.289 . S
C869 C868 1.488 . S
C869 C870 1.348 . S
C869 C874 1.413 . S
C870 C869 1.348 . S
C870 C871 1.442 . S
C870 H892 0.930 . S
C871 C870 1.442 . S
C871 C872 1.381 . S
C871 H893 0.931 . S
C872 C871 1.381 . S
C872 C873 1.321 . S
C873 C872 1.321 . S
C873 C874 1.403 . S
C873 H894 0.934 . S
C874 C869 1.413 . S
C874 C873 1.403 . S
C874 H895 0.930 . S
C875 O886 1.275 . S
C875 O887 1.256 . S
O876 Ho856 2.322 . S
O876 C858 1.259 . S
O877 Ho857 2.346 . S
O877 C858 1.268 . S
O878 Ho856 2.378 . S
O878 C859 1.215 . S
O879 Ho856 2.524 . S
O879 C859 1.289 . S
O880 Ho856 2.381 . S
O880 C866 1.275 . S
O881 Ho856 2.669 . S
O881 Ho857 2.305 . S
O881 C866 1.256 . S
O882 Ho857 2.322 . S
O882 C867 1.259 . S
O883 Ho856 2.346 . S
O883 C867 1.268 . S
O884 Ho857 2.378 . S
O884 C868 1.215 . S
O885 Ho857 2.524 . S
O885 C868 1.289 . S
O886 Ho857 2.381 . S
O886 C875 1.275 . S
O887 Ho856 2.305 . S
O887 Ho857 2.669 . S
O887 C875 1.256 . S
H888 C861 0.930 . S
H889 C862 0.931 . S
H890 C864 0.934 . S
H891 C865 0.930 . S
H892 C870 0.930 . S
H893 C871 0.931 . S
H894 C873 0.934 . S
H895 C874 0.930 . S
Ho896 C899 2.811 . S
Ho896 O916 2.322 . S
Ho896 O918 2.378 . S
Ho896 O919 2.524 . S
Ho896 O920 2.381 . S
Ho896 O921 2.669 . S
Ho896 O923 2.346 . S
Ho896 O927 2.305 . S
Ho897 C908 2.811 . S
Ho897 O917 2.346 . S
Ho897 O921 2.305 . S
Ho897 O922 2.322 . S
Ho897 O924 2.378 . S
Ho897 O925 2.524 . S
Ho897 O926 2.381 . S
Ho897 O927 2.669 . S
C898 O916 1.259 . S
C898 O917 1.268 . S
C899 Ho896 2.811 . S
C899 C900 1.488 . S
C899 O918 1.215 . S
C899 O919 1.289 . S
C900 C899 1.488 . S
C900 C901 1.348 . S
C900 C905 1.413 . S
C901 C900 1.348 . S
C901 C902 1.442 . S
C901 H928 0.930 . S
C902 C901 1.442 . S
C902 C903 1.381 . S
C902 H929 0.931 . S
C903 C902 1.381 . S
C903 C904 1.321 . S
C904 C903 1.321 . S
C904 C905 1.403 . S
C904 H930 0.934 . S
C905 C900 1.413 . S
C905 C904 1.403 . S
C905 H931 0.930 . S
C906 O920 1.275 . S
C906 O921 1.256 . S
C907 O922 1.259 . S
C907 O923 1.268 . S
C908 Ho897 2.811 . S
C908 C909 1.488 . S
C908 O924 1.215 . S
C908 O925 1.289 . S
C909 C908 1.488 . S
C909 C910 1.348 . S
C909 C914 1.413 . S
C910 C909 1.348 . S
C910 C911 1.442 . S
C910 H932 0.930 . S
C911 C910 1.442 . S
C911 C912 1.381 . S
C911 H933 0.931 . S
C912 C911 1.381 . S
C912 C913 1.321 . S
C913 C912 1.321 . S
C913 C914 1.403 . S
C913 H934 0.934 . S
C914 C909 1.413 . S
C914 C913 1.403 . S
C914 H935 0.930 . S
C915 O926 1.275 . S
C915 O927 1.256 . S
O916 Ho896 2.322 . S
O916 C898 1.259 . S
O917 Ho897 2.346 . S
O917 C898 1.268 . S
O918 Ho896 2.378 . S
O918 C899 1.215 . S
O919 Ho896 2.524 . S
O919 C899 1.289 . S
O920 Ho896 2.381 . S
O920 C906 1.275 . S
O921 Ho896 2.669 . S
O921 Ho897 2.305 . S
O921 C906 1.256 . S
O922 Ho897 2.322 . S
O922 C907 1.259 . S
O923 Ho896 2.346 . S
O923 C907 1.268 . S
O924 Ho897 2.378 . S
O924 C908 1.215 . S
O925 Ho897 2.524 . S
O925 C908 1.289 . S
O926 Ho897 2.381 . S
O926 C915 1.275 . S
O927 Ho896 2.305 . S
O927 Ho897 2.669 . S
O927 C915 1.256 . S
H928 C901 0.930 . S
H929 C902 0.931 . S
H930 C904 0.934 . S
H931 C905 0.930 . S
H932 C910 0.930 . S
H933 C911 0.931 . S
H934 C913 0.934 . S
H935 C914 0.930 . S
Ho936 C939 2.811 1_554 S
Ho936 O956 2.322 1_554 S
Ho936 O958 2.378 1_554 S
Ho936 O959 2.524 . S
Ho936 O960 2.381 1_554 S
Ho936 O961 2.669 1_554 S
Ho936 O963 2.346 . S
Ho936 O967 2.305 . S
Ho937 C948 2.811 1_455 S
Ho937 O957 2.346 . S
Ho937 O961 2.305 1_554 S
Ho937 O962 2.322 . S
Ho937 O964 2.378 1_455 S
Ho937 O965 2.524 1_455 S
Ho937 O966 2.381 . S
Ho937 O967 2.669 . S
C938 O956 1.272 . S
C938 O957 1.259 1_556 S
C939 Ho936 2.811 1_556 S
C939 C940 1.488 . S
C939 O958 1.215 . S
C939 O959 1.289 1_556 S
C940 C939 1.488 . S
C940 C941 1.348 1_556 S
C940 C945 1.413 . S
C941 C940 1.348 1_554 S
C941 C942 1.442 1_554 S
C941 H968 0.930 . S
C942 C941 1.442 1_556 S
C942 C943 1.381 . S
C942 H969 0.931 1_556 S
C943 C942 1.381 . S
C943 C944 1.321 . S
C944 C943 1.321 . S
C944 C945 1.403 . S
C944 H970 0.934 . S
C945 C940 1.413 . S
C945 C944 1.403 . S
C945 H971 0.930 . S
C946 O960 1.275 . S
C946 O961 1.256 . S
C947 O962 1.259 . S
C947 O963 1.268 . S
C948 Ho937 2.811 1_655 S
C948 C949 1.488 . S
C948 O964 1.215 . S
C948 O965 1.289 . S
C949 C948 1.488 . S
C949 C950 1.348 . S
C949 C954 1.413 . S
C950 C949 1.348 . S
C950 C951 1.442 . S
C950 H972 0.930 . S
C951 C950 1.442 . S
C951 C952 1.381 . S
C951 H973 0.931 . S
C952 C951 1.381 . S
C952 C953 1.321 . S
C953 C952 1.321 . S
C953 C954 1.403 . S
C953 H974 0.934 . S
C954 C949 1.413 . S
C954 C953 1.403 . S
C954 H975 0.930 . S
C955 O966 1.275 . S
C955 O967 1.256 . S
O956 Ho936 2.322 1_556 S
O956 C938 1.272 . S
O957 Ho937 2.346 . S
O957 C938 1.259 1_554 S
O958 Ho936 2.378 1_556 S
O958 C939 1.215 . S
O959 Ho936 2.524 . S
O959 C939 1.289 1_554 S
O960 Ho936 2.381 1_556 S
O960 C946 1.275 . S
O961 Ho936 2.669 1_556 S
O961 Ho937 2.305 1_556 S
O961 C946 1.256 . S
O962 Ho937 2.322 . S
O962 C947 1.259 . S
O963 Ho936 2.346 . S
O963 C947 1.268 . S
O964 Ho937 2.378 1_655 S
O964 C948 1.215 . S
O965 Ho937 2.524 1_655 S
O965 C948 1.289 . S
O966 Ho937 2.381 . S
O966 C955 1.275 . S
O967 Ho936 2.305 . S
O967 Ho937 2.669 . S
O967 C955 1.256 . S
H968 C941 0.930 . S
H969 C942 0.931 1_554 S
H970 C944 0.934 . S
H971 C945 0.930 . S
H972 C950 0.930 . S
H973 C951 0.931 . S
H974 C953 0.934 . S
H975 C954 0.930 . S
H976 C984 0.950 . S
H977 C989 0.993 . S
H978 C986 0.950 . S
H979 C988 0.950 1_655 S
H980 C990 0.950 . S
H981 C992 0.950 1_655 S
H982 C994 0.950 1_554 S
H983 C995 0.950 . S
C984 H976 0.950 . S
C984 C985 1.386 . S
C984 C986 1.391 . S
C985 C984 1.386 . S
C985 C989 1.371 1_455 S
C986 H978 0.950 . S
C986 C984 1.391 . S
C986 C987 1.400 . S
C987 C986 1.400 . S
C987 C988 1.398 . S
C987 C993 1.491 . S
C988 H979 0.950 1_455 S
C988 C987 1.398 . S
C988 C989 1.372 1_455 S
C989 H977 0.993 . S
C989 C985 1.371 1_655 S
C989 C988 1.372 1_655 S
C990 H980 0.950 . S
C990 C991 1.386 . S
C990 C992 1.391 . S
C991 C990 1.386 . S
C991 C995 1.393 1_556 S
C992 H981 0.950 1_455 S
C992 C990 1.391 . S
C992 C993 1.400 . S
C993 C987 1.491 . S
C993 C992 1.400 . S
C993 C994 1.398 . S
C994 H982 0.950 1_556 S
C994 C993 1.398 . S
C994 C995 1.391 1_556 S
C995 H983 0.950 . S
C995 C991 1.393 1_554 S
C995 C994 1.391 1_554 S
H996 C1004 0.950 . S
H997 C1009 0.950 . S
H998 C1006 0.950 . S
H999 C1008 0.950 . S
H1000 C1010 0.950 . S
H1001 C1012 0.950 . S
H1002 C1014 0.950 . S
H1003 C1015 0.950 . S
C1004 H996 0.950 . S
C1004 C1005 1.386 . S
C1004 C1006 1.391 . S
C1005 C1004 1.386 . S
C1005 C1009 1.393 . S
C1006 H998 0.950 . S
C1006 C1004 1.391 . S
C1006 C1007 1.400 . S
C1007 C1006 1.400 . S
C1007 C1008 1.398 . S
C1007 C1013 1.491 . S
C1008 H999 0.950 . S
C1008 C1007 1.398 . S
C1008 C1009 1.391 . S
C1009 H997 0.950 . S
C1009 C1005 1.393 . S
C1009 C1008 1.391 . S
C1010 H1000 0.950 . S
C1010 C1011 1.386 . S
C1010 C1012 1.391 . S
C1011 C1010 1.386 . S
C1011 C1015 1.393 . S
C1012 H1001 0.950 . S
C1012 C1010 1.391 . S
C1012 C1013 1.400 . S
C1013 C1007 1.491 . S
C1013 C1012 1.400 . S
C1013 C1014 1.398 . S
C1014 H1002 0.950 . S
C1014 C1013 1.398 . S
C1014 C1015 1.391 . S
C1015 H1003 0.950 . S
C1015 C1011 1.393 . S
C1015 C1014 1.391 . S
H1016 C1024 0.950 . S
H1017 C1029 0.950 . S
H1018 C1026 0.950 . S
H1019 C1028 0.950 . S
H1020 C1030 0.950 . S
H1021 C1032 0.950 . S
H1022 C1034 0.950 . S
H1023 C1035 0.950 . S
C1024 H1016 0.950 . S
C1024 C1025 1.386 . S
C1024 C1026 1.391 . S
C1025 C1024 1.386 . S
C1025 C1029 1.393 . S
C1026 H1018 0.950 . S
C1026 C1024 1.391 . S
C1026 C1027 1.400 . S
C1027 C1026 1.400 . S
C1027 C1028 1.398 . S
C1027 C1033 1.491 . S
C1028 H1019 0.950 . S
C1028 C1027 1.398 . S
C1028 C1029 1.391 . S
C1029 H1017 0.950 . S
C1029 C1025 1.393 . S
C1029 C1028 1.391 . S
C1030 H1020 0.950 . S
C1030 C1031 1.386 . S
C1030 C1032 1.391 . S
C1031 C1030 1.386 . S
C1031 C1035 1.393 . S
C1032 H1021 0.950 . S
C1032 C1030 1.391 . S
C1032 C1033 1.400 . S
C1033 C1027 1.491 . S
C1033 C1032 1.400 . S
C1033 C1034 1.398 . S
C1034 H1022 0.950 . S
C1034 C1033 1.398 . S
C1034 C1035 1.391 . S
C1035 H1023 0.950 . S
C1035 C1031 1.393 . S
C1035 C1034 1.391 . S
H1036 C1044 0.950 . S
H1037 C1049 0.950 . S
H1038 C1046 0.950 . S
H1039 C1048 0.950 . S
H1040 C1050 0.950 . S
H1041 C1052 0.950 . S
H1042 C1054 0.950 . S
H1043 C1055 0.950 . S
C1044 H1036 0.950 . S
C1044 C1045 1.386 . S
C1044 C1046 1.391 . S
C1045 C1044 1.386 . S
C1045 C1049 1.393 . S
C1046 H1038 0.950 . S
C1046 C1044 1.391 . S
C1046 C1047 1.400 . S
C1047 C1046 1.400 . S
C1047 C1048 1.398 . S
C1047 C1053 1.491 . S
C1048 H1039 0.950 . S
C1048 C1047 1.398 . S
C1048 C1049 1.391 . S
C1049 H1037 0.950 . S
C1049 C1045 1.393 . S
C1049 C1048 1.391 . S
C1050 H1040 0.950 . S
C1050 C1051 1.386 . S
C1050 C1052 1.391 . S
C1051 C1050 1.386 . S
C1051 C1055 1.393 . S
C1052 H1041 0.950 . S
C1052 C1050 1.391 . S
C1052 C1053 1.400 . S
C1053 C1047 1.491 . S
C1053 C1052 1.400 . S
C1053 C1054 1.398 . S
C1054 H1042 0.950 . S
C1054 C1053 1.398 . S
C1054 C1055 1.391 . S
C1055 H1043 0.950 . S
C1055 C1051 1.393 . S
C1055 C1054 1.391 . S
H1056 C1064 0.950 . S
H1057 C1069 0.950 . S
H1058 C1066 0.950 . S
H1059 C1068 0.950 1_655 S
H1060 C1070 0.950 . S
H1061 C1072 0.950 . S
H1062 C1074 0.950 . S
H1063 C1075 0.950 . S
C1064 H1056 0.950 . S
C1064 C1065 1.386 . S
C1064 C1066 1.391 . S
C1065 C1064 1.386 . S
C1065 C1069 1.393 1_455 S
C1066 H1058 0.950 . S
C1066 C1064 1.391 . S
C1066 C1067 1.400 . S
C1067 C1066 1.400 . S
C1067 C1068 1.398 . S
C1067 C1073 1.491 . S
C1068 H1059 0.950 1_455 S
C1068 C1067 1.398 . S
C1068 C1069 1.391 1_455 S
C1069 H1057 0.950 . S
C1069 C1065 1.393 1_655 S
C1069 C1068 1.391 1_655 S
C1070 H1060 0.950 . S
C1070 C1071 1.386 . S
C1070 C1072 1.391 . S
C1071 C1070 1.386 . S
C1071 C1075 1.393 . S
C1072 H1061 0.950 . S
C1072 C1070 1.391 . S
C1072 C1073 1.400 . S
C1073 C1067 1.491 . S
C1073 C1072 1.400 . S
C1073 C1074 1.398 . S
C1074 H1062 0.950 . S
C1074 C1073 1.398 . S
C1074 C1075 1.391 . S
C1075 H1063 0.950 . S
C1075 C1071 1.393 . S
C1075 C1074 1.391 . S
H1076 C1084 0.950 . S
H1077 C1089 0.950 . S
H1078 C1086 0.950 . S
H1079 C1088 0.950 . S
H1080 C1090 0.950 . S
H1081 C1092 0.950 . S
H1082 C1094 0.950 . S
H1083 C1095 0.950 . S
C1084 H1076 0.950 . S
C1084 C1085 1.386 . S
C1084 C1086 1.391 . S
C1085 C1084 1.386 . S
C1085 C1089 1.393 . S
C1086 H1078 0.950 . S
C1086 C1084 1.391 . S
C1086 C1087 1.400 . S
C1087 C1086 1.400 . S
C1087 C1088 1.398 . S
C1087 C1093 1.491 . S
C1088 H1079 0.950 . S
C1088 C1087 1.398 . S
C1088 C1089 1.391 . S
C1089 H1077 0.950 . S
C1089 C1085 1.393 . S
C1089 C1088 1.391 . S
C1090 H1080 0.950 . S
C1090 C1091 1.386 . S
C1090 C1092 1.391 . S
C1091 C1090 1.386 . S
C1091 C1095 1.393 . S
C1092 H1081 0.950 . S
C1092 C1090 1.391 . S
C1092 C1093 1.400 . S
C1093 C1087 1.491 . S
C1093 C1092 1.400 . S
C1093 C1094 1.398 . S
C1094 H1082 0.950 . S
C1094 C1093 1.398 . S
C1094 C1095 1.391 . S
C1095 H1083 0.950 . S
C1095 C1091 1.393 . S
C1095 C1094 1.391 . S
H1096 C1104 0.950 . S
H1097 C1109 0.950 . S
H1098 C1106 0.950 . S
H1099 C1108 0.950 . S
H1100 C1110 0.950 . S
H1101 C1112 0.950 . S
H1102 C1114 0.950 . S
H1103 C1115 0.950 . S
C1104 H1096 0.950 . S
C1104 C1105 1.386 . S
C1104 C1106 1.391 . S
C1105 C1104 1.386 . S
C1105 C1109 1.393 . S
C1106 H1098 0.950 . S
C1106 C1104 1.391 . S
C1106 C1107 1.400 . S
C1107 C1106 1.400 . S
C1107 C1108 1.398 . S
C1107 C1113 1.491 . S
C1108 H1099 0.950 . S
C1108 C1107 1.398 . S
C1108 C1109 1.391 . S
C1109 H1097 0.950 . S
C1109 C1105 1.393 . S
C1109 C1108 1.391 . S
C1110 H1100 0.950 . S
C1110 C1111 1.386 . S
C1110 C1112 1.391 . S
C1111 C1110 1.386 . S
C1111 C1115 1.393 . S
C1112 H1101 0.950 . S
C1112 C1110 1.391 . S
C1112 C1113 1.400 . S
C1113 C1107 1.491 . S
C1113 C1112 1.400 . S
C1113 C1114 1.398 . S
C1114 H1102 0.950 . S
C1114 C1113 1.398 . S
C1114 C1115 1.391 . S
C1115 H1103 0.950 . S
C1115 C1111 1.393 . S
C1115 C1114 1.391 . S
H1116 C1124 0.950 . S
H1117 C1129 0.950 . S
H1118 C1126 0.950 . S
H1119 C1128 0.950 . S
H1120 C1130 0.950 . S
H1121 C1132 0.950 . S
H1122 C1134 0.950 . S
H1123 C1135 0.950 . S
C1124 H1116 0.950 . S
C1124 C1125 1.386 . S
C1124 C1126 1.391 . S
C1125 C1124 1.386 . S
C1125 C1129 1.393 . S
C1126 H1118 0.950 . S
C1126 C1124 1.391 . S
C1126 C1127 1.400 . S
C1127 C1126 1.400 . S
C1127 C1128 1.398 . S
C1127 C1133 1.491 . S
C1128 H1119 0.950 . S
C1128 C1127 1.398 . S
C1128 C1129 1.391 . S
C1129 H1117 0.950 . S
C1129 C1125 1.393 . S
C1129 C1128 1.391 . S
C1130 H1120 0.950 . S
C1130 C1131 1.386 . S
C1130 C1132 1.391 . S
C1131 C1130 1.386 . S
C1131 C1135 1.393 . S
C1132 H1121 0.950 . S
C1132 C1130 1.391 . S
C1132 C1133 1.400 . S
C1133 C1127 1.491 . S
C1133 C1132 1.400 . S
C1133 C1134 1.398 . S
C1134 H1122 0.950 . S
C1134 C1133 1.398 . S
C1134 C1135 1.391 . S
C1135 H1123 0.950 . S
C1135 C1131 1.393 . S
C1135 C1134 1.391 . S
H1136 C1144 0.950 . S
H1137 C1149 0.950 1_455 S
H1138 C1146 0.950 . S
H1139 C1148 0.950 . S
H1140 C1150 0.950 . S
H1141 C1152 0.950 . S
H1142 C1154 0.950 . S
H1143 C1155 0.950 1_655 S
C1144 H1136 0.950 . S
C1144 C1145 1.386 . S
C1144 C1146 1.391 . S
C1145 C1144 1.386 . S
C1145 C1149 1.393 . S
C1146 H1138 0.950 . S
C1146 C1144 1.391 . S
C1146 C1147 1.400 . S
C1147 C1146 1.400 . S
C1147 C1148 1.398 1_655 S
C1147 C1153 1.491 1_655 S
C1148 H1139 0.950 . S
C1148 C1147 1.398 1_455 S
C1148 C1149 1.391 1_455 S
C1149 H1137 0.950 1_655 S
C1149 C1145 1.393 . S
C1149 C1148 1.391 1_655 S
C1150 H1140 0.950 . S
C1150 C1151 1.386 . S
C1150 C1152 1.391 . S
C1151 C1150 1.386 . S
C1151 C1155 1.393 . S
C1152 H1141 0.950 . S
C1152 C1150 1.391 . S
C1152 C1153 1.400 . S
C1153 C1147 1.491 1_455 S
C1153 C1152 1.400 . S
C1153 C1154 1.398 1_455 S
C1154 H1142 0.950 . S
C1154 C1153 1.398 1_655 S
C1154 C1155 1.391 1_655 S
C1155 H1143 0.950 1_455 S
C1155 C1151 1.393 . S
C1155 C1154 1.391 1_455 S
H1156 C1164 0.950 . S
H1157 C1169 0.950 . S
H1158 C1166 0.950 . S
H1159 C1168 0.950 . S
H1160 C1170 0.950 . S
H1161 C1172 0.950 . S
H1162 C1174 0.950 . S
H1163 C1175 0.950 . S
C1164 H1156 0.950 . S
C1164 C1165 1.386 . S
C1164 C1166 1.391 . S
C1165 C1164 1.386 . S
C1165 C1169 1.393 . S
C1166 H1158 0.950 . S
C1166 C1164 1.391 . S
C1166 C1167 1.400 . S
C1167 C1166 1.400 . S
C1167 C1168 1.398 . S
C1167 C1173 1.491 . S
C1168 H1159 0.950 . S
C1168 C1167 1.398 . S
C1168 C1169 1.391 . S
C1169 H1157 0.950 . S
C1169 C1165 1.393 . S
C1169 C1168 1.391 . S
C1170 H1160 0.950 . S
C1170 C1171 1.386 . S
C1170 C1172 1.391 . S
C1171 C1170 1.386 . S
C1171 C1175 1.393 . S
C1172 H1161 0.950 . S
C1172 C1170 1.391 . S
C1172 C1173 1.400 . S
C1173 C1167 1.491 . S
C1173 C1172 1.400 . S
C1173 C1174 1.398 . S
C1174 H1162 0.950 . S
C1174 C1173 1.398 . S
C1174 C1175 1.391 . S
C1175 H1163 0.950 . S
C1175 C1171 1.393 . S
C1175 C1174 1.391 . S
H1176 C1184 0.950 . S
H1177 C1189 0.950 . S
H1178 C1186 0.950 . S
H1179 C1188 0.950 . S
H1180 C1190 0.950 . S
H1181 C1192 0.950 . S
H1182 C1194 0.950 . S
H1183 C1195 0.950 . S
C1184 H1176 0.950 . S
C1184 C1185 1.386 . S
C1184 C1186 1.391 . S
C1185 C1184 1.386 . S
C1185 C1189 1.393 . S
C1186 H1178 0.950 . S
C1186 C1184 1.391 . S
C1186 C1187 1.400 . S
C1187 C1186 1.400 . S
C1187 C1188 1.398 . S
C1187 C1193 1.491 . S
C1188 H1179 0.950 . S
C1188 C1187 1.398 . S
C1188 C1189 1.391 . S
C1189 H1177 0.950 . S
C1189 C1185 1.393 . S
C1189 C1188 1.391 . S
C1190 H1180 0.950 . S
C1190 C1191 1.386 . S
C1190 C1192 1.391 . S
C1191 C1190 1.386 . S
C1191 C1195 1.393 . S
C1192 H1181 0.950 . S
C1192 C1190 1.391 . S
C1192 C1193 1.400 . S
C1193 C1187 1.491 . S
C1193 C1192 1.400 . S
C1193 C1194 1.398 . S
C1194 H1182 0.950 . S
C1194 C1193 1.398 . S
C1194 C1195 1.391 . S
C1195 H1183 0.950 . S
C1195 C1191 1.393 . S
C1195 C1194 1.391 . S
H1196 C1204 0.950 . S
H1197 C1209 0.950 . S
H1198 C1206 0.950 . S
H1199 C1208 0.950 . S
H1200 C1210 0.950 . S
H1201 C1212 0.950 . S
H1202 C1214 0.950 . S
H1203 C1215 0.950 . S
C1204 H1196 0.950 . S
C1204 C1205 1.386 . S
C1204 C1206 1.391 . S
C1205 C1204 1.386 . S
C1205 C1209 1.393 . S
C1206 H1198 0.950 . S
C1206 C1204 1.391 . S
C1206 C1207 1.400 . S
C1207 C1206 1.400 . S
C1207 C1208 1.398 . S
C1207 C1213 1.491 . S
C1208 H1199 0.950 . S
C1208 C1207 1.398 . S
C1208 C1209 1.391 . S
C1209 H1197 0.950 . S
C1209 C1205 1.393 . S
C1209 C1208 1.391 . S
C1210 H1200 0.950 . S
C1210 C1211 1.386 . S
C1210 C1212 1.391 . S
C1211 C1210 1.386 . S
C1211 C1215 1.393 . S
C1212 H1201 0.950 . S
C1212 C1210 1.391 . S
C1212 C1213 1.400 . S
C1213 C1207 1.491 . S
C1213 C1212 1.400 . S
C1213 C1214 1.398 . S
C1214 H1202 0.950 . S
C1214 C1213 1.398 . S
C1214 C1215 1.391 . S
C1215 H1203 0.950 . S
C1215 C1211 1.393 . S
C1215 C1214 1.391 . S
H1216 C1224 0.950 . S
H1217 C1229 0.950 . S
H1218 C1226 0.950 . S
H1219 C1228 0.950 . S
H1220 C1230 0.950 . S
H1221 C1232 0.950 . S
H1222 C1234 0.950 . S
H1223 C1235 0.950 . S
C1224 H1216 0.950 . S
C1224 C1225 1.386 . S
C1224 C1226 1.391 . S
C1225 C1224 1.386 . S
C1225 C1229 1.393 . S
C1226 H1218 0.950 . S
C1226 C1224 1.391 . S
C1226 C1227 1.400 . S
C1227 C1226 1.400 . S
C1227 C1228 1.398 . S
C1227 C1233 1.491 1_655 S
C1228 H1219 0.950 . S
C1228 C1227 1.398 . S
C1228 C1229 1.391 . S
C1229 H1217 0.950 . S
C1229 C1225 1.393 . S
C1229 C1228 1.391 . S
C1230 H1220 0.950 . S
C1230 C1231 1.386 . S
C1230 C1232 1.391 . S
C1231 C1230 1.386 . S
C1231 C1235 1.393 . S
C1232 H1221 0.950 . S
C1232 C1230 1.391 . S
C1232 C1233 1.400 . S
C1233 C1227 1.491 1_455 S
C1233 C1232 1.400 . S
C1233 C1234 1.398 . S
C1234 H1222 0.950 . S
C1234 C1233 1.398 . S
C1234 C1235 1.391 . S
C1235 H1223 0.950 . S
C1235 C1231 1.393 . S
C1235 C1234 1.391 . S
H1236 C1244 0.950 . S
H1237 C1249 0.950 . S
H1238 C1246 0.950 . S
H1239 C1248 0.950 . S
H1240 C1250 0.950 . S
H1241 C1252 0.950 . S
H1242 C1254 0.950 . S
H1243 C1255 0.950 . S
C1244 H1236 0.950 . S
C1244 C1245 1.386 . S
C1244 C1246 1.391 . S
C1245 C1244 1.386 . S
C1245 C1249 1.393 . S
C1246 H1238 0.950 . S
C1246 C1244 1.391 . S
C1246 C1247 1.400 . S
C1247 C1246 1.400 . S
C1247 C1248 1.398 . S
C1247 C1253 1.491 . S
C1248 H1239 0.950 . S
C1248 C1247 1.398 . S
C1248 C1249 1.391 . S
C1249 H1237 0.950 . S
C1249 C1245 1.393 . S
C1249 C1248 1.391 . S
C1250 H1240 0.950 . S
C1250 C1251 1.386 . S
C1250 C1252 1.391 . S
C1251 C1250 1.386 . S
C1251 C1255 1.393 . S
C1252 H1241 0.950 . S
C1252 C1250 1.391 . S
C1252 C1253 1.400 . S
C1253 C1247 1.491 . S
C1253 C1252 1.400 . S
C1253 C1254 1.398 . S
C1254 H1242 0.950 . S
C1254 C1253 1.398 . S
C1254 C1255 1.391 . S
C1255 H1243 0.950 . S
C1255 C1251 1.393 . S
C1255 C1254 1.391 . S
H1256 C1264 0.950 . S
H1257 C1269 0.950 . S
H1258 C1266 0.950 . S
H1259 C1268 0.950 . S
H1260 C1270 0.950 . S
H1261 C1272 0.950 . S
H1262 C1274 0.950 . S
H1263 C1275 0.950 . S
C1264 H1256 0.950 . S
C1264 C1265 1.386 . S
C1264 C1266 1.391 . S
C1265 C1264 1.386 . S
C1265 C1269 1.393 . S
C1266 H1258 0.950 . S
C1266 C1264 1.391 . S
C1266 C1267 1.400 . S
C1267 C1266 1.400 . S
C1267 C1268 1.398 . S
C1267 C1273 1.491 . S
C1268 H1259 0.950 . S
C1268 C1267 1.398 . S
C1268 C1269 1.391 . S
C1269 H1257 0.950 . S
C1269 C1265 1.393 . S
C1269 C1268 1.391 . S
C1270 H1260 0.950 . S
C1270 C1271 1.386 . S
C1270 C1272 1.391 . S
C1271 C1270 1.386 . S
C1271 C1275 1.393 . S
C1272 H1261 0.950 . S
C1272 C1270 1.391 . S
C1272 C1273 1.400 . S
C1273 C1267 1.491 . S
C1273 C1272 1.400 . S
C1273 C1274 1.398 . S
C1274 H1262 0.950 . S
C1274 C1273 1.398 . S
C1274 C1275 1.391 . S
C1275 H1263 0.950 . S
C1275 C1271 1.393 . S
C1275 C1274 1.391 . S
H1276 C1284 0.950 . S
H1277 C1289 0.950 . S
H1278 C1286 0.950 . S
H1279 C1288 0.950 . S
H1280 C1290 0.950 . S
H1281 C1292 0.950 . S
H1282 C1294 0.950 . S
H1283 C1295 0.950 . S
C1284 H1276 0.950 . S
C1284 C1285 1.386 . S
C1284 C1286 1.391 . S
C1285 C1284 1.386 . S
C1285 C1289 1.393 . S
C1286 H1278 0.950 . S
C1286 C1284 1.391 . S
C1286 C1287 1.400 . S
C1287 C1286 1.400 . S
C1287 C1288 1.398 . S
C1287 C1293 1.491 . S
C1288 H1279 0.950 . S
C1288 C1287 1.398 . S
C1288 C1289 1.391 . S
C1289 H1277 0.950 . S
C1289 C1285 1.393 . S
C1289 C1288 1.391 . S
C1290 H1280 0.950 . S
C1290 C1291 1.386 . S
C1290 C1292 1.391 . S
C1291 C1290 1.386 . S
C1291 C1295 1.393 . S
C1292 H1281 0.950 . S
C1292 C1290 1.391 . S
C1292 C1293 1.400 . S
C1293 C1287 1.491 . S
C1293 C1292 1.400 . S
C1293 C1294 1.398 . S
C1294 H1282 0.950 . S
C1294 C1293 1.398 . S
C1294 C1295 1.391 . S
C1295 H1283 0.950 . S
C1295 C1291 1.393 . S
C1295 C1294 1.391 . S
H1296 C1304 0.950 . S
H1297 C1309 0.950 . S
H1298 C1306 0.950 1_556 S
H1299 C1308 0.950 . S
H1300 C1310 0.951 . S
H1301 C1312 0.950 . S
H1302 C1314 0.950 . S
H1303 C1315 0.950 . S
C1304 H1296 0.950 . S
C1304 C1305 1.386 1_556 S
C1304 C1306 1.391 1_556 S
C1305 C1304 1.386 1_554 S
C1305 C1309 1.393 . S
C1306 H1298 0.950 1_554 S
C1306 C1304 1.391 1_554 S
C1306 C1307 1.400 . S
C1307 C1306 1.400 . S
C1307 C1308 1.398 . S
C1307 C1313 1.491 . S
C1308 H1299 0.950 . S
C1308 C1307 1.398 . S
C1308 C1309 1.391 . S
C1309 H1297 0.950 . S
C1309 C1305 1.393 . S
C1309 C1308 1.391 . S
C1310 H1300 0.951 . S
C1310 C1311 1.401 1_545 S
C1310 C1312 1.384 1_545 S
C1311 C1310 1.401 1_565 S
C1311 C1315 1.396 . S
C1312 H1301 0.950 . S
C1312 C1310 1.384 1_565 S
C1312 C1313 1.400 . S
C1313 C1307 1.491 . S
C1313 C1312 1.400 . S
C1313 C1314 1.398 . S
C1314 H1302 0.950 . S
C1314 C1313 1.398 . S
C1314 C1315 1.391 . S
C1315 H1303 0.950 . S
C1315 C1311 1.396 . S
C1315 C1314 1.391 . S
H1316 C1324 0.950 . S
H1317 C1329 0.950 . S
H1318 C1326 0.950 . S
H1319 C1328 0.950 . S
H1320 C1330 0.950 . S
H1321 C1332 0.950 . S
H1322 C1334 0.950 . S
H1323 C1335 0.950 . S
C1324 H1316 0.950 . S
C1324 C1325 1.386 1_556 S
C1324 C1326 1.391 . S
C1325 C1324 1.386 1_554 S
C1325 C1329 1.393 . S
C1326 H1318 0.950 . S
C1326 C1324 1.391 . S
C1326 C1327 1.400 1_556 S
C1327 C1326 1.400 1_554 S
C1327 C1328 1.398 . S
C1327 C1333 1.491 . S
C1328 H1319 0.950 . S
C1328 C1327 1.398 . S
C1328 C1329 1.391 . S
C1329 H1317 0.950 . S
C1329 C1325 1.393 . S
C1329 C1328 1.391 . S
C1330 H1320 0.950 . S
C1330 C1331 1.386 . S
C1330 C1332 1.391 . S
C1331 C1330 1.386 . S
C1331 C1335 1.393 1_554 S
C1332 H1321 0.950 . S
C1332 C1330 1.391 . S
C1332 C1333 1.400 . S
C1333 C1327 1.491 . S
C1333 C1332 1.400 . S
C1333 C1334 1.398 1_554 S
C1334 H1322 0.950 . S
C1334 C1333 1.398 1_556 S
C1334 C1335 1.391 . S
C1335 H1323 0.950 . S
C1335 C1331 1.393 1_556 S
C1335 C1334 1.391 . S
H1336 C1344 0.950 . S
H1337 C1349 0.950 . S
H1338 C1346 0.950 . S
H1339 C1348 0.950 . S
H1340 C1350 0.950 . S
H1341 C1352 0.950 . S
H1342 C1354 0.950 . S
H1343 C1355 0.950 . S
C1344 H1336 0.950 . S
C1344 C1345 1.386 . S
C1344 C1346 1.391 . S
C1345 C1344 1.386 . S
C1345 C1349 1.393 . S
C1346 H1338 0.950 . S
C1346 C1344 1.391 . S
C1346 C1347 1.400 . S
C1347 C1346 1.400 . S
C1347 C1348 1.398 . S
C1347 C1353 1.491 . S
C1348 H1339 0.950 . S
C1348 C1347 1.398 . S
C1348 C1349 1.391 . S
C1349 H1337 0.950 . S
C1349 C1345 1.393 . S
C1349 C1348 1.391 . S
C1350 H1340 0.950 . S
C1350 C1351 1.386 . S
C1350 C1352 1.391 . S
C1351 C1350 1.386 . S
C1351 C1355 1.393 . S
C1352 H1341 0.950 . S
C1352 C1350 1.391 . S
C1352 C1353 1.400 . S
C1353 C1347 1.491 . S
C1353 C1352 1.400 . S
C1353 C1354 1.398 . S
C1354 H1342 0.950 . S
C1354 C1353 1.398 . S
C1354 C1355 1.391 . S
C1355 H1343 0.950 . S
C1355 C1351 1.393 . S
C1355 C1354 1.391 . S
H1356 C1364 0.950 . S
H1357 C1369 0.950 . S
H1358 C1366 0.950 . S
H1359 C1368 0.950 . S
H1360 C1370 0.950 . S
H1361 C1372 0.950 . S
H1362 C1374 0.950 . S
H1363 C1375 0.950 . S
C1364 H1356 0.950 . S
C1364 C1365 1.386 . S
C1364 C1366 1.391 . S
C1365 C1364 1.386 . S
C1365 C1369 1.393 . S
C1366 H1358 0.950 . S
C1366 C1364 1.391 . S
C1366 C1367 1.400 . S
C1367 C1366 1.400 . S
C1367 C1368 1.398 . S
C1367 C1373 1.491 . S
C1368 H1359 0.950 . S
C1368 C1367 1.398 . S
C1368 C1369 1.391 . S
C1369 H1357 0.950 . S
C1369 C1365 1.393 . S
C1369 C1368 1.391 . S
C1370 H1360 0.950 . S
C1370 C1371 1.386 . S
C1370 C1372 1.391 . S
C1371 C1370 1.386 . S
C1371 C1375 1.393 . S
C1372 H1361 0.950 . S
C1372 C1370 1.391 . S
C1372 C1373 1.400 . S
C1373 C1367 1.491 . S
C1373 C1372 1.400 . S
C1373 C1374 1.398 . S
C1374 H1362 0.950 . S
C1374 C1373 1.398 . S
C1374 C1375 1.391 . S
C1375 H1363 0.950 . S
C1375 C1371 1.393 . S
C1375 C1374 1.391 . S
H1376 C1384 0.950 . S
H1377 C1389 0.950 . S
H1378 C1386 0.950 . S
H1379 C1388 0.950 . S
H1380 C1390 0.950 . S
H1381 C1392 0.950 . S
H1382 C1394 0.950 . S
H1383 C1395 0.950 . S
C1384 H1376 0.950 . S
C1384 C1385 1.386 . S
C1384 C1386 1.391 . S
C1385 C1384 1.386 . S
C1385 C1389 1.393 . S
C1386 H1378 0.950 . S
C1386 C1384 1.391 . S
C1386 C1387 1.400 . S
C1387 C1386 1.400 . S
C1387 C1388 1.398 . S
C1387 C1393 1.491 . S
C1388 H1379 0.950 . S
C1388 C1387 1.398 . S
C1388 C1389 1.391 . S
C1389 H1377 0.950 . S
C1389 C1385 1.393 . S
C1389 C1388 1.391 . S
C1390 H1380 0.950 . S
C1390 C1391 1.386 . S
C1390 C1392 1.391 . S
C1391 C1390 1.386 . S
C1391 C1395 1.393 . S
C1392 H1381 0.950 . S
C1392 C1390 1.391 . S
C1392 C1393 1.400 . S
C1393 C1387 1.491 . S
C1393 C1392 1.400 . S
C1393 C1394 1.398 . S
C1394 H1382 0.950 . S
C1394 C1393 1.398 . S
C1394 C1395 1.391 . S
C1395 H1383 0.950 . S
C1395 C1391 1.393 . S
C1395 C1394 1.391 . S
H1396 C1404 0.950 . S
H1397 C1409 0.950 . S
H1398 C1406 0.950 . S
H1399 C1408 0.950 . S
H1400 C1410 0.950 . S
H1401 C1412 0.950 . S
H1402 C1414 0.950 . S
H1403 C1415 0.950 . S
C1404 H1396 0.950 . S
C1404 C1405 1.386 . S
C1404 C1406 1.391 . S
C1405 C1404 1.386 . S
C1405 C1409 1.393 . S
C1406 H1398 0.950 . S
C1406 C1404 1.391 . S
C1406 C1407 1.400 . S
C1407 C1406 1.400 . S
C1407 C1408 1.398 . S
C1407 C1413 1.491 . S
C1408 H1399 0.950 . S
C1408 C1407 1.398 . S
C1408 C1409 1.391 . S
C1409 H1397 0.950 . S
C1409 C1405 1.393 . S
C1409 C1408 1.391 . S
C1410 H1400 0.950 . S
C1410 C1411 1.386 . S
C1410 C1412 1.391 . S
C1411 C1410 1.386 . S
C1411 C1415 1.393 . S
C1412 H1401 0.950 . S
C1412 C1410 1.391 . S
C1412 C1413 1.400 . S
C1413 C1407 1.491 . S
C1413 C1412 1.400 . S
C1413 C1414 1.398 . S
C1414 H1402 0.950 . S
C1414 C1413 1.398 . S
C1414 C1415 1.391 . S
C1415 H1403 0.950 . S
C1415 C1411 1.393 . S
C1415 C1414 1.391 . S
H1416 C1424 0.950 . S
H1417 C1429 0.950 . S
H1418 C1426 0.950 . S
H1419 C1428 0.950 . S
H1420 C1430 0.950 . S
H1421 C1432 0.950 . S
H1422 C1434 0.950 . S
H1423 C1435 0.950 . S
C1424 H1416 0.950 . S
C1424 C1425 1.386 . S
C1424 C1426 1.391 . S
C1425 C1424 1.386 . S
C1425 C1429 1.393 . S
C1426 H1418 0.950 . S
C1426 C1424 1.391 . S
C1426 C1427 1.400 . S
C1427 C1426 1.400 . S
C1427 C1428 1.398 . S
C1427 C1433 1.491 . S
C1428 H1419 0.950 . S
C1428 C1427 1.398 . S
C1428 C1429 1.391 . S
C1429 H1417 0.950 . S
C1429 C1425 1.393 . S
C1429 C1428 1.391 . S
C1430 H1420 0.950 . S
C1430 C1431 1.386 . S
C1430 C1432 1.391 . S
C1431 C1430 1.386 . S
C1431 C1435 1.393 . S
C1432 H1421 0.950 . S
C1432 C1430 1.391 . S
C1432 C1433 1.400 . S
C1433 C1427 1.491 . S
C1433 C1432 1.400 . S
C1433 C1434 1.398 . S
C1434 H1422 0.950 . S
C1434 C1433 1.398 . S
C1434 C1435 1.391 . S
C1435 H1423 0.950 . S
C1435 C1431 1.393 . S
C1435 C1434 1.391 . S
H1436 C1444 0.950 . S
H1437 C1449 0.950 . S
H1438 C1446 0.950 . S
H1439 C1448 0.950 . S
H1440 C1450 0.950 . S
H1441 C1452 0.950 . S
H1442 C1454 0.950 . S
H1443 C1455 0.950 . S
C1444 H1436 0.950 . S
C1444 C1445 1.386 . S
C1444 C1446 1.391 . S
C1445 C1444 1.386 . S
C1445 C1449 1.393 . S
C1446 H1438 0.950 . S
C1446 C1444 1.391 . S
C1446 C1447 1.400 . S
C1447 C1446 1.400 . S
C1447 C1448 1.398 . S
C1447 C1453 1.491 . S
C1448 H1439 0.950 . S
C1448 C1447 1.398 . S
C1448 C1449 1.391 . S
C1449 H1437 0.950 . S
C1449 C1445 1.393 . S
C1449 C1448 1.391 . S
C1450 H1440 0.950 . S
C1450 C1451 1.386 . S
C1450 C1452 1.391 . S
C1451 C1450 1.386 . S
C1451 C1455 1.393 . S
C1452 H1441 0.950 . S
C1452 C1450 1.391 . S
C1452 C1453 1.400 . S
C1453 C1447 1.491 . S
C1453 C1452 1.400 . S
C1453 C1454 1.398 . S
C1454 H1442 0.950 . S
C1454 C1453 1.398 . S
C1454 C1455 1.391 . S
C1455 H1443 0.950 . S
C1455 C1451 1.393 . S
C1455 C1454 1.391 . S
H1456 C1464 0.950 . S
H1457 C1469 0.950 . S
H1458 C1466 0.950 . S
H1459 C1468 0.950 . S
H1460 C1470 0.950 . S
H1461 C1472 0.950 . S
H1462 C1474 0.950 . S
H1463 C1475 0.950 1_556 S
C1464 H1456 0.950 . S
C1464 C1465 1.386 . S
C1464 C1466 1.391 . S
C1465 C1464 1.386 . S
C1465 C1469 1.393 . S
C1466 H1458 0.950 . S
C1466 C1464 1.391 . S
C1466 C1467 1.400 . S
C1467 C1466 1.400 . S
C1467 C1468 1.398 . S
C1467 C1473 1.491 . S
C1468 H1459 0.950 . S
C1468 C1467 1.398 . S
C1468 C1469 1.391 . S
C1469 H1457 0.950 . S
C1469 C1465 1.393 . S
C1469 C1468 1.391 . S
C1470 H1460 0.950 . S
C1470 C1471 1.386 . S
C1470 C1472 1.391 . S
C1471 C1470 1.386 . S
C1471 C1475 1.393 . S
C1472 H1461 0.950 . S
C1472 C1470 1.391 . S
C1472 C1473 1.400 . S
C1473 C1467 1.491 . S
C1473 C1472 1.400 . S
C1473 C1474 1.398 . S
C1474 H1462 0.950 . S
C1474 C1473 1.398 . S
C1474 C1475 1.391 . S
C1475 H1463 0.950 1_554 S
C1475 C1471 1.393 . S
C1475 C1474 1.391 . S
H1476 C1484 0.950 . S
H1477 C1489 0.950 . S
H1478 C1486 0.950 . S
H1479 C1488 0.950 . S
H1480 C1490 0.950 . S
H1481 C1492 0.950 . S
H1482 C1494 0.950 . S
H1483 C1495 0.950 . S
C1484 H1476 0.950 . S
C1484 C1485 1.386 . S
C1484 C1486 1.391 . S
C1485 C1484 1.386 . S
C1485 C1489 1.393 . S
C1486 H1478 0.950 . S
C1486 C1484 1.391 . S
C1486 C1487 1.400 . S
C1487 C1486 1.400 . S
C1487 C1488 1.398 . S
C1487 C1493 1.491 . S
C1488 H1479 0.950 . S
C1488 C1487 1.398 . S
C1488 C1489 1.391 . S
C1489 H1477 0.950 . S
C1489 C1485 1.393 . S
C1489 C1488 1.391 . S
C1490 H1480 0.950 . S
C1490 C1491 1.386 . S
C1490 C1492 1.391 . S
C1491 C1490 1.386 . S
C1491 C1495 1.393 . S
C1492 H1481 0.950 . S
C1492 C1490 1.391 . S
C1492 C1493 1.400 . S
C1493 C1487 1.491 . S
C1493 C1492 1.400 . S
C1493 C1494 1.398 . S
C1494 H1482 0.950 . S
C1494 C1493 1.398 . S
C1494 C1495 1.391 . S
C1495 H1483 0.950 . S
C1495 C1491 1.393 . S
C1495 C1494 1.391 . S
H1496 C1504 0.950 . S
H1497 C1509 0.950 . S
H1498 C1506 0.950 . S
H1499 C1508 0.950 . S
H1500 C1510 0.950 . S
H1501 C1512 0.950 . S
H1502 C1514 0.950 . S
H1503 C1515 0.950 . S
C1504 H1496 0.950 . S
C1504 C1505 1.386 . S
C1504 C1506 1.391 . S
C1505 C1504 1.386 . S
C1505 C1509 1.393 . S
C1506 H1498 0.950 . S
C1506 C1504 1.391 . S
C1506 C1507 1.400 . S
C1507 C1506 1.400 . S
C1507 C1508 1.398 . S
C1507 C1513 1.491 . S
C1508 H1499 0.950 . S
C1508 C1507 1.398 . S
C1508 C1509 1.391 . S
C1509 H1497 0.950 . S
C1509 C1505 1.393 . S
C1509 C1508 1.391 . S
C1510 H1500 0.950 . S
C1510 C1511 1.386 . S
C1510 C1512 1.391 . S
C1511 C1510 1.386 . S
C1511 C1515 1.393 . S
C1512 H1501 0.950 . S
C1512 C1510 1.391 . S
C1512 C1513 1.400 . S
C1513 C1507 1.491 . S
C1513 C1512 1.400 . S
C1513 C1514 1.398 . S
C1514 H1502 0.950 . S
C1514 C1513 1.398 . S
C1514 C1515 1.391 . S
C1515 H1503 0.950 . S
C1515 C1511 1.393 . S
C1515 C1514 1.391 . S
H1516 C1524 0.950 . S
H1517 C1529 0.950 . S
H1518 C1526 0.950 . S
H1519 C1528 0.950 . S
H1520 C1530 0.950 . S
H1521 C1532 0.950 . S
H1522 C1534 0.950 . S
H1523 C1535 0.950 . S
C1524 H1516 0.950 . S
C1524 C1525 1.386 . S
C1524 C1526 1.391 . S
C1525 C1524 1.386 . S
C1525 C1529 1.393 . S
C1526 H1518 0.950 . S
C1526 C1524 1.391 . S
C1526 C1527 1.400 . S
C1527 C1526 1.400 . S
C1527 C1528 1.398 . S
C1527 C1533 1.491 . S
C1528 H1519 0.950 . S
C1528 C1527 1.398 . S
C1528 C1529 1.391 . S
C1529 H1517 0.950 . S
C1529 C1525 1.393 . S
C1529 C1528 1.391 . S
C1530 H1520 0.950 . S
C1530 C1531 1.386 . S
C1530 C1532 1.391 . S
C1531 C1530 1.386 . S
C1531 C1535 1.393 . S
C1532 H1521 0.950 . S
C1532 C1530 1.391 . S
C1532 C1533 1.400 . S
C1533 C1527 1.491 . S
C1533 C1532 1.400 . S
C1533 C1534 1.398 . S
C1534 H1522 0.950 . S
C1534 C1533 1.398 . S
C1534 C1535 1.391 . S
C1535 H1523 0.950 . S
C1535 C1531 1.393 . S
C1535 C1534 1.391 . S
H1536 C1544 0.950 . S
H1537 C1549 0.950 . S
H1538 C1546 0.950 . S
H1539 C1548 0.950 . S
H1540 C1550 0.950 . S
H1541 C1552 0.950 . S
H1542 C1554 0.950 . S
H1543 C1555 0.950 . S
C1544 H1536 0.950 . S
C1544 C1545 1.386 . S
C1544 C1546 1.391 . S
C1545 C1544 1.386 . S
C1545 C1549 1.393 . S
C1546 H1538 0.950 . S
C1546 C1544 1.391 . S
C1546 C1547 1.400 . S
C1547 C1546 1.400 . S
C1547 C1548 1.398 . S
C1547 C1553 1.491 . S
C1548 H1539 0.950 . S
C1548 C1547 1.398 . S
C1548 C1549 1.391 . S
C1549 H1537 0.950 . S
C1549 C1545 1.393 . S
C1549 C1548 1.391 . S
C1550 H1540 0.950 . S
C1550 C1551 1.386 . S
C1550 C1552 1.391 . S
C1551 C1550 1.386 . S
C1551 C1555 1.393 . S
C1552 H1541 0.950 . S
C1552 C1550 1.391 . S
C1552 C1553 1.400 . S
C1553 C1547 1.491 . S
C1553 C1552 1.400 . S
C1553 C1554 1.398 . S
C1554 H1542 0.950 . S
C1554 C1553 1.398 . S
C1554 C1555 1.391 . S
C1555 H1543 0.950 . S
C1555 C1551 1.393 . S
C1555 C1554 1.391 . S
H1556 C1564 0.950 . S
H1557 C1569 0.950 . S
H1558 C1566 0.950 . S
H1559 C1568 0.950 . S
H1560 C1570 0.950 . S
H1561 C1572 0.950 . S
H1562 C1574 0.950 . S
H1563 C1575 0.950 . S
C1564 H1556 0.950 . S
C1564 C1565 1.386 . S
C1564 C1566 1.391 . S
C1565 C1564 1.386 . S
C1565 C1569 1.393 . S
C1566 H1558 0.950 . S
C1566 C1564 1.391 . S
C1566 C1567 1.400 . S
C1567 C1566 1.400 . S
C1567 C1568 1.398 . S
C1567 C1573 1.491 . S
C1568 H1559 0.950 . S
C1568 C1567 1.398 . S
C1568 C1569 1.391 . S
C1569 H1557 0.950 . S
C1569 C1565 1.393 . S
C1569 C1568 1.391 . S
C1570 H1560 0.950 . S
C1570 C1571 1.386 . S
C1570 C1572 1.391 . S
C1571 C1570 1.386 . S
C1571 C1575 1.393 . S
C1572 H1561 0.950 . S
C1572 C1570 1.391 . S
C1572 C1573 1.400 . S
C1573 C1567 1.491 . S
C1573 C1572 1.400 . S
C1573 C1574 1.398 . S
C1574 H1562 0.950 . S
C1574 C1573 1.398 . S
C1574 C1575 1.391 . S
C1575 H1563 0.950 . S
C1575 C1571 1.393 . S
C1575 C1574 1.391 . S
H1576 C1584 0.950 . S
H1577 C1589 0.950 . S
H1578 C1586 0.950 . S
H1579 C1588 0.950 . S
H1580 C1590 0.950 . S
H1581 C1592 0.950 . S
H1582 C1594 0.950 . S
H1583 C1595 0.950 1_554 S
C1584 H1576 0.950 . S
C1584 C1585 1.386 . S
C1584 C1586 1.391 . S
C1585 C1584 1.386 . S
C1585 C1589 1.393 . S
C1586 H1578 0.950 . S
C1586 C1584 1.391 . S
C1586 C1587 1.400 . S
C1587 C1586 1.400 . S
C1587 C1588 1.398 . S
C1587 C1593 1.491 . S
C1588 H1579 0.950 . S
C1588 C1587 1.398 . S
C1588 C1589 1.391 . S
C1589 H1577 0.950 . S
C1589 C1585 1.393 . S
C1589 C1588 1.391 . S
C1590 H1580 0.950 . S
C1590 C1591 1.386 . S
C1590 C1592 1.391 . S
C1591 C1590 1.386 . S
C1591 C1595 1.393 . S
C1592 H1581 0.950 . S
C1592 C1590 1.391 . S
C1592 C1593 1.400 . S
C1593 C1587 1.491 . S
C1593 C1592 1.400 . S
C1593 C1594 1.398 . S
C1594 H1582 0.950 . S
C1594 C1593 1.398 . S
C1594 C1595 1.391 . S
C1595 H1583 0.950 1_556 S
C1595 C1591 1.393 . S
C1595 C1594 1.391 . S
H1596 C1604 0.950 . S
H1597 C1609 0.950 . S
H1598 C1606 0.950 . S
H1599 C1608 0.950 . S
H1600 C1610 0.950 . S
H1601 C1612 0.950 . S
H1602 C1614 0.950 . S
H1603 C1615 0.950 . S
C1604 H1596 0.950 . S
C1604 C1605 1.386 . S
C1604 C1606 1.391 . S
C1605 C1604 1.386 . S
C1605 C1609 1.393 . S
C1606 H1598 0.950 . S
C1606 C1604 1.391 . S
C1606 C1607 1.400 . S
C1607 C1606 1.400 . S
C1607 C1608 1.398 . S
C1607 C1613 1.491 . S
C1608 H1599 0.950 . S
C1608 C1607 1.398 . S
C1608 C1609 1.391 . S
C1609 H1597 0.950 . S
C1609 C1605 1.393 . S
C1609 C1608 1.391 . S
C1610 H1600 0.950 . S
C1610 C1611 1.386 . S
C1610 C1612 1.391 . S
C1611 C1610 1.386 . S
C1611 C1615 1.393 . S
C1612 H1601 0.950 . S
C1612 C1610 1.391 . S
C1612 C1613 1.400 . S
C1613 C1607 1.491 . S
C1613 C1612 1.400 . S
C1613 C1614 1.398 . S
C1614 H1602 0.950 . S
C1614 C1613 1.398 . S
C1614 C1615 1.391 . S
C1615 H1603 0.950 . S
C1615 C1611 1.393 . S
C1615 C1614 1.391 . S
H1616 C1624 0.950 . S
H1617 C1629 0.950 1_565 S
H1618 C1626 0.950 . S
H1619 C1628 0.950 . S
H1620 C1630 0.950 . S
H1621 C1632 0.950 . S
H1622 C1634 0.950 . S
H1623 C1635 0.950 . S
C1624 H1616 0.950 . S
C1624 C1625 1.386 . S
C1624 C1626 1.391 . S
C1625 C1624 1.386 . S
C1625 C1629 1.393 . S
C1626 H1618 0.950 . S
C1626 C1624 1.391 . S
C1626 C1627 1.400 . S
C1627 C1626 1.400 . S
C1627 C1628 1.398 . S
C1627 C1633 1.491 . S
C1628 H1619 0.950 . S
C1628 C1627 1.398 . S
C1628 C1629 1.391 . S
C1629 H1617 0.950 1_545 S
C1629 C1625 1.393 . S
C1629 C1628 1.391 . S
C1630 H1620 0.950 . S
C1630 C1631 1.386 . S
C1630 C1632 1.391 . S
C1631 C1630 1.386 . S
C1631 C1635 1.393 . S
C1632 H1621 0.950 . S
C1632 C1630 1.391 . S
C1632 C1633 1.400 . S
C1633 C1627 1.491 . S
C1633 C1632 1.400 . S
C1633 C1634 1.398 . S
C1634 H1622 0.950 . S
C1634 C1633 1.398 . S
C1634 C1635 1.391 . S
C1635 H1623 0.950 . S
C1635 C1631 1.393 . S
C1635 C1634 1.391 . S
H1636 C1644 0.950 . S
H1637 C1649 0.950 . S
H1638 C1646 0.950 . S
H1639 C1648 0.950 . S
H1640 C1650 0.950 . S
H1641 C1652 0.950 . S
H1642 C1654 0.950 . S
H1643 C1655 0.950 . S
C1644 H1636 0.950 . S
C1644 C1645 1.386 . S
C1644 C1646 1.391 . S
C1645 C1644 1.386 . S
C1645 C1649 1.393 . S
C1646 H1638 0.950 . S
C1646 C1644 1.391 . S
C1646 C1647 1.400 . S
C1647 C1646 1.400 . S
C1647 C1648 1.398 . S
C1647 C1653 1.491 . S
C1648 H1639 0.950 . S
C1648 C1647 1.398 . S
C1648 C1649 1.391 . S
C1649 H1637 0.950 . S
C1649 C1645 1.393 . S
C1649 C1648 1.391 . S
C1650 H1640 0.950 . S
C1650 C1651 1.386 . S
C1650 C1652 1.391 . S
C1651 C1650 1.386 . S
C1651 C1655 1.393 . S
C1652 H1641 0.950 . S
C1652 C1650 1.391 . S
C1652 C1653 1.400 . S
C1653 C1647 1.491 . S
C1653 C1652 1.400 . S
C1653 C1654 1.398 . S
C1654 H1642 0.950 . S
C1654 C1653 1.398 . S
C1654 C1655 1.391 . S
C1655 H1643 0.950 . S
C1655 C1651 1.393 . S
C1655 C1654 1.391 . S
H1656 C1664 0.950 . S
H1657 C1669 0.950 . S
H1658 C1666 0.950 . S
H1659 C1668 0.950 . S
H1660 C1670 0.950 . S
H1661 C1672 0.950 . S
H1662 C1674 0.950 . S
H1663 C1675 0.950 . S
C1664 H1656 0.950 . S
C1664 C1665 1.386 . S
C1664 C1666 1.391 . S
C1665 C1664 1.386 . S
C1665 C1669 1.393 . S
C1666 H1658 0.950 . S
C1666 C1664 1.391 . S
C1666 C1667 1.400 . S
C1667 C1666 1.400 . S
C1667 C1668 1.398 . S
C1667 C1673 1.491 . S
C1668 H1659 0.950 . S
C1668 C1667 1.398 . S
C1668 C1669 1.391 . S
C1669 H1657 0.950 . S
C1669 C1665 1.393 . S
C1669 C1668 1.391 . S
C1670 H1660 0.950 . S
C1670 C1671 1.386 . S
C1670 C1672 1.391 . S
C1671 C1670 1.386 . S
C1671 C1675 1.393 . S
C1672 H1661 0.950 . S
C1672 C1670 1.391 . S
C1672 C1673 1.400 . S
C1673 C1667 1.491 . S
C1673 C1672 1.400 . S
C1673 C1674 1.398 . S
C1674 H1662 0.950 . S
C1674 C1673 1.398 . S
C1674 C1675 1.391 . S
C1675 H1663 0.950 . S
C1675 C1671 1.393 . S
C1675 C1674 1.391 . S
H1676 C1684 0.950 . S
H1677 C1689 0.950 . S
H1678 C1686 0.950 . S
H1679 C1688 0.950 . S
H1680 C1690 0.950 . S
H1681 C1692 0.950 . S
H1682 C1694 0.950 . S
H1683 C1695 0.950 . S
C1684 H1676 0.950 . S
C1684 C1685 1.386 . S
C1684 C1686 1.391 . S
C1685 C1684 1.386 . S
C1685 C1689 1.393 . S
C1686 H1678 0.950 . S
C1686 C1684 1.391 . S
C1686 C1687 1.400 . S
C1687 C1686 1.400 . S
C1687 C1688 1.398 . S
C1687 C1693 1.491 . S
C1688 H1679 0.950 . S
C1688 C1687 1.398 . S
C1688 C1689 1.391 . S
C1689 H1677 0.950 . S
C1689 C1685 1.393 . S
C1689 C1688 1.391 . S
C1690 H1680 0.950 . S
C1690 C1691 1.386 . S
C1690 C1692 1.391 . S
C1691 C1690 1.386 . S
C1691 C1695 1.393 . S
C1692 H1681 0.950 . S
C1692 C1690 1.391 . S
C1692 C1693 1.400 . S
C1693 C1687 1.491 . S
C1693 C1692 1.400 . S
C1693 C1694 1.398 . S
C1694 H1682 0.950 . S
C1694 C1693 1.398 . S
C1694 C1695 1.391 . S
C1695 H1683 0.950 . S
C1695 C1691 1.393 . S
C1695 C1694 1.391 . S
H1696 C1704 0.950 . S
H1697 C1709 0.950 . S
H1698 C1706 0.950 . S
H1699 C1708 0.950 . S
H1700 C1710 0.950 . S
H1701 C1712 0.950 . S
H1702 C1714 0.950 . S
H1703 C1715 0.950 . S
C1704 H1696 0.950 . S
C1704 C1705 1.386 1_545 S
C1704 C1706 1.391 . S
C1705 C1704 1.386 1_565 S
C1705 C1709 1.393 . S
C1706 H1698 0.950 . S
C1706 C1704 1.391 . S
C1706 C1707 1.400 . S
C1707 C1706 1.400 . S
C1707 C1708 1.398 1_545 S
C1707 C1713 1.491 . S
C1708 H1699 0.950 . S
C1708 C1707 1.398 1_565 S
C1708 C1709 1.391 . S
C1709 H1697 0.950 . S
C1709 C1705 1.393 . S
C1709 C1708 1.391 . S
C1710 H1700 0.950 . S
C1710 C1711 1.386 . S
C1710 C1712 1.391 . S
C1711 C1710 1.386 . S
C1711 C1715 1.393 . S
C1712 H1701 0.950 . S
C1712 C1710 1.391 . S
C1712 C1713 1.400 . S
C1713 C1707 1.491 . S
C1713 C1712 1.400 . S
C1713 C1714 1.398 . S
C1714 H1702 0.950 . S
C1714 C1713 1.398 . S
C1714 C1715 1.391 . S
C1715 H1703 0.950 . S
C1715 C1711 1.393 . S
C1715 C1714 1.391 . S
H1716 C1724 0.950 . S
H1717 C1729 0.950 . S
H1718 C1726 0.950 . S
H1719 C1728 0.950 . S
H1720 C1730 0.950 . S
H1721 C1732 0.950 . S
H1722 C1734 0.950 . S
H1723 C1735 0.950 . S
C1724 H1716 0.950 . S
C1724 C1725 1.386 . S
C1724 C1726 1.391 . S
C1725 C1724 1.386 . S
C1725 C1729 1.393 . S
C1726 H1718 0.950 . S
C1726 C1724 1.391 . S
C1726 C1727 1.400 . S
C1727 C1726 1.400 . S
C1727 C1728 1.398 . S
C1727 C1733 1.491 . S
C1728 H1719 0.950 . S
C1728 C1727 1.398 . S
C1728 C1729 1.391 . S
C1729 H1717 0.950 . S
C1729 C1725 1.393 . S
C1729 C1728 1.391 . S
C1730 H1720 0.950 . S
C1730 C1731 1.386 . S
C1730 C1732 1.391 . S
C1731 C1730 1.386 . S
C1731 C1735 1.393 . S
C1732 H1721 0.950 . S
C1732 C1730 1.391 . S
C1732 C1733 1.400 . S
C1733 C1727 1.491 . S
C1733 C1732 1.400 . S
C1733 C1734 1.398 . S
C1734 H1722 0.950 . S
C1734 C1733 1.398 . S
C1734 C1735 1.391 . S
C1735 H1723 0.950 . S
C1735 C1731 1.393 . S
C1735 C1734 1.391 . S
H1736 C1744 0.950 . S
H1737 C1749 0.950 . S
H1738 C1746 0.950 . S
H1739 C1748 0.950 . S
H1740 C1750 0.950 . S
H1741 C1752 0.950 . S
H1742 C1754 0.950 . S
H1743 C1755 0.950 1_545 S
C1744 H1736 0.950 . S
C1744 C1745 1.386 1_545 S
C1744 C1746 1.391 . S
C1745 C1744 1.386 1_565 S
C1745 C1749 1.393 . S
C1746 H1738 0.950 . S
C1746 C1744 1.391 . S
C1746 C1747 1.400 1_545 S
C1747 C1746 1.400 1_565 S
C1747 C1748 1.398 . S
C1747 C1753 1.491 . S
C1748 H1739 0.950 . S
C1748 C1747 1.398 . S
C1748 C1749 1.391 . S
C1749 H1737 0.950 . S
C1749 C1745 1.393 . S
C1749 C1748 1.391 . S
C1750 H1740 0.950 . S
C1750 C1751 1.386 . S
C1750 C1752 1.391 . S
C1751 C1750 1.386 . S
C1751 C1755 1.393 . S
C1752 H1741 0.950 . S
C1752 C1750 1.391 . S
C1752 C1753 1.400 . S
C1753 C1747 1.491 . S
C1753 C1752 1.400 . S
C1753 C1754 1.398 1_565 S
C1754 H1742 0.950 . S
C1754 C1753 1.398 1_545 S
C1754 C1755 1.391 1_545 S
C1755 H1743 0.950 1_565 S
C1755 C1751 1.393 . S
C1755 C1754 1.391 1_565 S
H1756 C1764 0.950 . S
H1757 C1769 0.950 . S
H1758 C1766 0.950 . S
H1759 C1768 0.950 . S
H1760 C1770 0.950 . S
H1761 C1772 0.950 . S
H1762 C1774 0.950 . S
H1763 C1775 0.950 . S
C1764 H1756 0.950 . S
C1764 C1765 1.386 . S
C1764 C1766 1.391 . S
C1765 C1764 1.386 . S
C1765 C1769 1.393 . S
C1766 H1758 0.950 . S
C1766 C1764 1.391 . S
C1766 C1767 1.400 . S
C1767 C1766 1.400 . S
C1767 C1768 1.398 . S
C1767 C1773 1.491 . S
C1768 H1759 0.950 . S
C1768 C1767 1.398 . S
C1768 C1769 1.391 . S
C1769 H1757 0.950 . S
C1769 C1765 1.393 . S
C1769 C1768 1.391 . S
C1770 H1760 0.950 . S
C1770 C1771 1.386 . S
C1770 C1772 1.391 . S
C1771 C1770 1.386 . S
C1771 C1775 1.393 . S
C1772 H1761 0.950 . S
C1772 C1770 1.391 . S
C1772 C1773 1.400 . S
C1773 C1767 1.491 . S
C1773 C1772 1.400 . S
C1773 C1774 1.398 . S
C1774 H1762 0.950 . S
C1774 C1773 1.398 . S
C1774 C1775 1.391 . S
C1775 H1763 0.950 . S
C1775 C1771 1.393 . S
C1775 C1774 1.391 . S
H1776 C1784 0.950 . S
H1777 C1789 0.950 . S
H1778 C1786 0.950 . S
H1779 C1788 0.950 . S
H1780 C1790 0.950 . S
H1781 C1792 0.950 . S
H1782 C1794 0.942 1_554 S
H1783 C1795 0.947 . S
C1784 H1776 0.950 . S
C1784 C1785 1.386 . S
C1784 C1786 1.391 . S
C1785 C1784 1.386 . S
C1785 C1789 1.393 1_554 S
C1786 H1778 0.950 . S
C1786 C1784 1.391 . S
C1786 C1787 1.400 1_554 S
C1787 C1786 1.400 1_556 S
C1787 C1788 1.398 . S
C1787 C1793 1.491 . S
C1788 H1779 0.950 . S
C1788 C1787 1.398 . S
C1788 C1789 1.391 . S
C1789 H1777 0.950 . S
C1789 C1785 1.393 1_556 S
C1789 C1788 1.391 . S
C1790 H1780 0.950 . S
C1790 C1791 1.386 . S
C1790 C1792 1.391 . S
C1791 C1790 1.386 . S
C1791 C1795 1.393 . S
C1792 H1781 0.950 . S
C1792 C1790 1.391 . S
C1792 C1793 1.400 . S
C1793 C1787 1.491 . S
C1793 C1792 1.400 . S
C1793 C1794 1.403 . S
C1794 H1782 0.942 1_556 S
C1794 C1793 1.403 . S
C1794 C1795 1.393 . S
C1795 H1783 0.947 . S
C1795 C1791 1.393 . S
C1795 C1794 1.393 . S
H1796 C1804 0.950 1_556 S
H1797 C1809 0.950 . S
H1798 C1806 0.950 1_556 S
H1799 C1808 0.950 . S
H1800 C1810 0.950 . S
H1801 C1812 0.950 . S
H1802 C1814 0.950 1_556 S
H1803 C1815 0.950 1_556 S
C1804 H1796 0.950 1_554 S
C1804 C1805 1.386 . S
C1804 C1806 1.391 . S
C1805 C1804 1.386 . S
C1805 C1809 1.393 . S
C1806 H1798 0.950 1_554 S
C1806 C1804 1.391 . S
C1806 C1807 1.400 . S
C1807 C1806 1.400 . S
C1807 C1808 1.398 . S
C1807 C1813 1.491 . S
C1808 H1799 0.950 . S
C1808 C1807 1.398 . S
C1808 C1809 1.391 . S
C1809 H1797 0.950 . S
C1809 C1805 1.393 . S
C1809 C1808 1.391 . S
C1810 H1800 0.950 . S
C1810 C1811 1.386 . S
C1810 C1812 1.391 . S
C1811 C1810 1.386 . S
C1811 C1815 1.393 . S
C1812 H1801 0.950 . S
C1812 C1810 1.391 . S
C1812 C1813 1.400 . S
C1813 C1807 1.491 . S
C1813 C1812 1.400 . S
C1813 C1814 1.398 . S
C1814 H1802 0.950 1_554 S
C1814 C1813 1.398 . S
C1814 C1815 1.391 . S
C1815 H1803 0.950 1_554 S
C1815 C1811 1.393 . S
C1815 C1814 1.391 . S
H1816 C1824 0.950 . S
H1817 C1829 0.950 . S
H1818 C1826 0.950 . S
H1819 C1828 0.950 . S
H1820 C1830 0.950 . S
H1821 C1832 0.950 . S
H1822 C1834 0.950 . S
H1823 C1835 0.950 . S
C1824 H1816 0.950 . S
C1824 C1825 1.386 . S
C1824 C1826 1.391 . S
C1825 C1824 1.386 . S
C1825 C1829 1.393 . S
C1826 H1818 0.950 . S
C1826 C1824 1.391 . S
C1826 C1827 1.400 . S
C1827 C1826 1.400 . S
C1827 C1828 1.398 . S
C1827 C1833 1.491 . S
C1828 H1819 0.950 . S
C1828 C1827 1.398 . S
C1828 C1829 1.391 . S
C1829 H1817 0.950 . S
C1829 C1825 1.393 . S
C1829 C1828 1.391 . S
C1830 H1820 0.950 . S
C1830 C1831 1.386 . S
C1830 C1832 1.391 . S
C1831 C1830 1.386 . S
C1831 C1835 1.393 . S
C1832 H1821 0.950 . S
C1832 C1830 1.391 . S
C1832 C1833 1.400 . S
C1833 C1827 1.491 . S
C1833 C1832 1.400 . S
C1833 C1834 1.398 . S
C1834 H1822 0.950 . S
C1834 C1833 1.398 . S
C1834 C1835 1.391 . S
C1835 H1823 0.950 . S
C1835 C1831 1.393 . S
C1835 C1834 1.391 . S
H1836 C1844 0.950 . S
H1837 C1849 0.950 . S
H1838 C1846 0.950 . S
H1839 C1848 0.950 . S
H1840 C1850 0.950 . S
H1841 C1852 0.950 . S
H1842 C1854 0.950 . S
H1843 C1855 0.950 . S
C1844 H1836 0.950 . S
C1844 C1845 1.386 . S
C1844 C1846 1.391 . S
C1845 C1844 1.386 . S
C1845 C1849 1.393 . S
C1846 H1838 0.950 . S
C1846 C1844 1.391 . S
C1846 C1847 1.400 . S
C1847 C1846 1.400 . S
C1847 C1848 1.398 . S
C1847 C1853 1.491 . S
C1848 H1839 0.950 . S
C1848 C1847 1.398 . S
C1848 C1849 1.391 . S
C1849 H1837 0.950 . S
C1849 C1845 1.393 . S
C1849 C1848 1.391 . S
C1850 H1840 0.950 . S
C1850 C1851 1.386 . S
C1850 C1852 1.391 . S
C1851 C1850 1.386 . S
C1851 C1855 1.393 . S
C1852 H1841 0.950 . S
C1852 C1850 1.391 . S
C1852 C1853 1.400 . S
C1853 C1847 1.491 . S
C1853 C1852 1.400 . S
C1853 C1854 1.398 . S
C1854 H1842 0.950 . S
C1854 C1853 1.398 . S
C1854 C1855 1.391 . S
C1855 H1843 0.950 . S
C1855 C1851 1.393 . S
C1855 C1854 1.391 . S
H1856 C1864 0.950 . S
H1857 C1869 0.950 . S
H1858 C1866 0.950 . S
H1859 C1868 0.950 . S
H1860 C1870 0.950 . S
H1861 C1872 0.950 . S
H1862 C1874 0.950 1_545 S
H1863 C1875 0.950 . S
C1864 H1856 0.950 . S
C1864 C1865 1.386 . S
C1864 C1866 1.391 . S
C1865 C1864 1.386 . S
C1865 C1869 1.393 1_545 S
C1866 H1858 0.950 . S
C1866 C1864 1.391 . S
C1866 C1867 1.400 1_545 S
C1867 C1866 1.400 1_565 S
C1867 C1868 1.398 . S
C1867 C1873 1.491 . S
C1868 H1859 0.950 . S
C1868 C1867 1.398 . S
C1868 C1869 1.391 . S
C1869 H1857 0.950 . S
C1869 C1865 1.393 1_565 S
C1869 C1868 1.391 . S
C1870 H1860 0.950 . S
C1870 C1871 1.386 . S
C1870 C1872 1.391 . S
C1871 C1870 1.386 . S
C1871 C1875 1.393 . S
C1872 H1861 0.950 . S
C1872 C1870 1.391 . S
C1872 C1873 1.400 . S
C1873 C1867 1.491 . S
C1873 C1872 1.400 . S
C1873 C1874 1.398 . S
C1874 H1862 0.950 1_565 S
C1874 C1873 1.398 . S
C1874 C1875 1.391 . S
C1875 H1863 0.950 . S
C1875 C1871 1.393 . S
C1875 C1874 1.391 . S
H1876 C1884 0.950 . S
H1877 C1889 0.950 . S
H1878 C1886 0.950 . S
H1879 C1888 0.950 . S
H1880 C1890 0.950 . S
H1881 C1892 0.950 . S
H1882 C1894 0.950 . S
H1883 C1895 0.950 . S
C1884 H1876 0.950 . S
C1884 C1885 1.386 . S
C1884 C1886 1.391 . S
C1885 C1884 1.386 . S
C1885 C1889 1.393 . S
C1886 H1878 0.950 . S
C1886 C1884 1.391 . S
C1886 C1887 1.400 . S
C1887 C1886 1.400 . S
C1887 C1888 1.398 . S
C1887 C1893 1.491 . S
C1888 H1879 0.950 . S
C1888 C1887 1.398 . S
C1888 C1889 1.391 . S
C1889 H1877 0.950 . S
C1889 C1885 1.393 . S
C1889 C1888 1.391 . S
C1890 H1880 0.950 . S
C1890 C1891 1.386 . S
C1890 C1892 1.391 . S
C1891 C1890 1.386 . S
C1891 C1895 1.393 . S
C1892 H1881 0.950 . S
C1892 C1890 1.391 . S
C1892 C1893 1.400 . S
C1893 C1887 1.491 . S
C1893 C1892 1.400 . S
C1893 C1894 1.398 . S
C1894 H1882 0.950 . S
C1894 C1893 1.398 . S
C1894 C1895 1.391 . S
C1895 H1883 0.950 . S
C1895 C1891 1.393 . S
C1895 C1894 1.391 . S
H1896 C1904 0.950 . S
H1897 C1909 0.950 . S
H1898 C1906 0.950 . S
H1899 C1908 0.950 . S
H1900 C1910 0.950 . S
H1901 C1912 0.950 . S
H1902 C1914 0.950 . S
H1903 C1915 0.950 . S
C1904 H1896 0.950 . S
C1904 C1905 1.386 . S
C1904 C1906 1.391 . S
C1905 C1904 1.386 . S
C1905 C1909 1.393 . S
C1906 H1898 0.950 . S
C1906 C1904 1.391 . S
C1906 C1907 1.400 . S
C1907 C1906 1.400 . S
C1907 C1908 1.398 . S
C1907 C1913 1.491 . S
C1908 H1899 0.950 . S
C1908 C1907 1.398 . S
C1908 C1909 1.391 . S
C1909 H1897 0.950 . S
C1909 C1905 1.393 . S
C1909 C1908 1.391 . S
C1910 H1900 0.950 . S
C1910 C1911 1.386 . S
C1910 C1912 1.391 . S
C1911 C1910 1.386 . S
C1911 C1915 1.393 . S
C1912 H1901 0.950 . S
C1912 C1910 1.391 . S
C1912 C1913 1.400 . S
C1913 C1907 1.491 . S
C1913 C1912 1.400 . S
C1913 C1914 1.398 . S
C1914 H1902 0.950 . S
C1914 C1913 1.398 . S
C1914 C1915 1.391 . S
C1915 H1903 0.950 . S
C1915 C1911 1.393 . S
C1915 C1914 1.391 . S
H1916 C1924 0.950 . S
H1917 C1929 0.950 . S
H1918 C1926 0.950 . S
H1919 C1928 0.950 . S
H1920 C1930 0.950 . S
H1921 C1932 0.950 . S
H1922 C1934 0.950 . S
H1923 C1935 0.950 . S
C1924 H1916 0.950 . S
C1924 C1925 1.386 . S
C1924 C1926 1.391 . S
C1925 C1924 1.386 . S
C1925 C1929 1.393 . S
C1926 H1918 0.950 . S
C1926 C1924 1.391 . S
C1926 C1927 1.400 . S
C1927 C1926 1.400 . S
C1927 C1928 1.398 . S
C1927 C1933 1.491 . S
C1928 H1919 0.950 . S
C1928 C1927 1.398 . S
C1928 C1929 1.391 . S
C1929 H1917 0.950 . S
C1929 C1925 1.393 . S
C1929 C1928 1.391 . S
C1930 H1920 0.950 . S
C1930 C1931 1.386 . S
C1930 C1932 1.391 . S
C1931 C1930 1.386 . S
C1931 C1935 1.393 . S
C1932 H1921 0.950 . S
C1932 C1930 1.391 . S
C1932 C1933 1.400 . S
C1933 C1927 1.491 . S
C1933 C1932 1.400 . S
C1933 C1934 1.398 . S
C1934 H1922 0.950 . S
C1934 C1933 1.398 . S
C1934 C1935 1.391 . S
C1935 H1923 0.950 . S
C1935 C1931 1.393 . S
C1935 C1934 1.391 . S
H1936 C1944 0.950 . S
H1937 C1949 0.950 . S
H1938 C1946 0.950 . S
H1939 C1948 0.950 . S
H1940 C1950 0.950 . S
H1941 C1952 0.950 . S
H1942 C1954 0.950 . S
H1943 C1955 0.950 . S
C1944 H1936 0.950 . S
C1944 C1945 1.386 . S
C1944 C1946 1.391 . S
C1945 C1944 1.386 . S
C1945 C1949 1.393 . S
C1946 H1938 0.950 . S
C1946 C1944 1.391 . S
C1946 C1947 1.400 . S
C1947 C1946 1.400 . S
C1947 C1948 1.398 . S
C1947 C1953 1.491 . S
C1948 H1939 0.950 . S
C1948 C1947 1.398 . S
C1948 C1949 1.391 . S
C1949 H1937 0.950 . S
C1949 C1945 1.393 . S
C1949 C1948 1.391 . S
C1950 H1940 0.950 . S
C1950 C1951 1.386 . S
C1950 C1952 1.391 . S
C1951 C1950 1.386 . S
C1951 C1955 1.393 . S
C1952 H1941 0.950 . S
C1952 C1950 1.391 . S
C1952 C1953 1.400 . S
C1953 C1947 1.491 . S
C1953 C1952 1.400 . S
C1953 C1954 1.398 . S
C1954 H1942 0.950 . S
C1954 C1953 1.398 . S
C1954 C1955 1.391 . S
C1955 H1943 0.950 . S
C1955 C1951 1.393 . S
C1955 C1954 1.391 . S
H1956 C1964 0.950 . S
H1957 C1969 0.950 . S
H1958 C1966 0.950 . S
H1959 C1968 0.950 . S
H1960 C1970 0.950 . S
H1961 C1972 0.950 . S
H1962 C1974 0.950 . S
H1963 C1975 0.950 . S
C1964 H1956 0.950 . S
C1964 C1965 1.386 . S
C1964 C1966 1.391 . S
C1965 C1964 1.386 . S
C1965 C1969 1.393 . S
C1966 H1958 0.950 . S
C1966 C1964 1.391 . S
C1966 C1967 1.400 . S
C1967 C1966 1.400 . S
C1967 C1968 1.398 . S
C1967 C1973 1.491 . S
C1968 H1959 0.950 . S
C1968 C1967 1.398 . S
C1968 C1969 1.391 . S
C1969 H1957 0.950 . S
C1969 C1965 1.393 . S
C1969 C1968 1.391 . S
C1970 H1960 0.950 . S
C1970 C1971 1.386 . S
C1970 C1972 1.391 . S
C1971 C1970 1.386 . S
C1971 C1975 1.393 . S
C1972 H1961 0.950 . S
C1972 C1970 1.391 . S
C1972 C1973 1.400 . S
C1973 C1967 1.491 . S
C1973 C1972 1.400 . S
C1973 C1974 1.398 . S
C1974 H1962 0.950 . S
C1974 C1973 1.398 . S
C1974 C1975 1.391 . S
C1975 H1963 0.950 . S
C1975 C1971 1.393 . S
C1975 C1974 1.391 . S
H1976 C1984 0.950 . S
H1977 C1989 0.950 1_655 S
H1978 C1986 0.950 . S
H1979 C1988 0.950 1_655 S
H1980 C1990 0.963 . S
H1981 C1992 0.950 . S
H1982 C1994 0.950 . S
H1983 C1995 0.950 . S
C1984 H1976 0.950 . S
C1984 C1985 1.386 . S
C1984 C1986 1.391 . S
C1985 C1984 1.386 . S
C1985 C1989 1.393 . S
C1986 H1978 0.950 . S
C1986 C1984 1.391 . S
C1986 C1987 1.400 . S
C1987 C1986 1.400 . S
C1987 C1988 1.398 . S
C1987 C1993 1.491 . S
C1988 H1979 0.950 1_455 S
C1988 C1987 1.398 . S
C1988 C1989 1.391 . S
C1989 H1977 0.950 1_455 S
C1989 C1985 1.393 . S
C1989 C1988 1.391 . S
C1990 H1980 0.963 . S
C1990 C1991 1.386 . S
C1990 C1992 1.391 . S
C1991 C1990 1.386 . S
C1991 C1995 1.393 . S
C1992 H1981 0.950 . S
C1992 C1990 1.391 . S
C1992 C1993 1.400 . S
C1993 C1987 1.491 . S
C1993 C1992 1.400 . S
C1993 C1994 1.398 . S
C1994 H1982 0.950 . S
C1994 C1993 1.398 . S
C1994 C1995 1.391 . S
C1995 H1983 0.950 . S
C1995 C1991 1.393 . S
C1995 C1994 1.391 . S
H1996 C2004 0.950 . S
H1997 C2009 0.950 . S
H1998 C2006 0.950 . S
H1999 C2008 0.950 . S
H2000 C2010 0.950 . S
H2001 C2012 0.950 . S
H2002 C2014 0.950 . S
H2003 C2015 0.950 . S
C2004 H1996 0.950 . S
C2004 C2005 1.386 . S
C2004 C2006 1.391 1_455 S
C2005 C2004 1.386 . S
C2005 C2009 1.393 . S
C2006 H1998 0.950 . S
C2006 C2004 1.391 1_655 S
C2006 C2007 1.400 . S
C2007 C2006 1.400 . S
C2007 C2008 1.398 1_655 S
C2007 C2013 1.491 . S
C2008 H1999 0.950 . S
C2008 C2007 1.398 1_455 S
C2008 C2009 1.391 . S
C2009 H1997 0.950 . S
C2009 C2005 1.393 . S
C2009 C2008 1.391 . S
C2010 H2000 0.950 . S
C2010 C2011 1.386 . S
C2010 C2012 1.391 . S
C2011 C2010 1.386 . S
C2011 C2015 1.393 . S
C2012 H2001 0.950 . S
C2012 C2010 1.391 . S
C2012 C2013 1.400 . S
C2013 C2007 1.491 . S
C2013 C2012 1.400 . S
C2013 C2014 1.398 . S
C2014 H2002 0.950 . S
C2014 C2013 1.398 . S
C2014 C2015 1.391 . S
C2015 H2003 0.950 . S
C2015 C2011 1.393 . S
C2015 C2014 1.391 . S
H2016 C2024 0.950 . S
H2017 C2029 0.950 . S
H2018 C2026 0.950 . S
H2019 C2028 0.950 . S
H2020 C2030 0.950 . S
H2021 C2032 0.950 . S
H2022 C2034 0.950 . S
H2023 C2035 0.950 . S
C2024 H2016 0.950 . S
C2024 C2025 1.386 . S
C2024 C2026 1.391 . S
C2025 C2024 1.386 . S
C2025 C2029 1.393 . S
C2026 H2018 0.950 . S
C2026 C2024 1.391 . S
C2026 C2027 1.400 . S
C2027 C2026 1.400 . S
C2027 C2028 1.398 . S
C2027 C2033 1.491 . S
C2028 H2019 0.950 . S
C2028 C2027 1.398 . S
C2028 C2029 1.391 . S
C2029 H2017 0.950 . S
C2029 C2025 1.393 . S
C2029 C2028 1.391 . S
C2030 H2020 0.950 . S
C2030 C2031 1.386 . S
C2030 C2032 1.391 . S
C2031 C2030 1.386 . S
C2031 C2035 1.393 . S
C2032 H2021 0.950 . S
C2032 C2030 1.391 . S
C2032 C2033 1.400 . S
C2033 C2027 1.491 . S
C2033 C2032 1.400 . S
C2033 C2034 1.398 . S
C2034 H2022 0.950 . S
C2034 C2033 1.398 . S
C2034 C2035 1.391 . S
C2035 H2023 0.950 . S
C2035 C2031 1.393 . S
C2035 C2034 1.391 . S
H2036 C2044 0.950 . S
H2037 C2049 0.950 . S
H2038 C2046 0.950 . S
H2039 C2048 0.950 . S
H2040 C2050 0.950 . S
H2041 C2052 0.950 . S
H2042 C2054 0.950 . S
H2043 C2055 0.950 . S
C2044 H2036 0.950 . S
C2044 C2045 1.386 . S
C2044 C2046 1.391 . S
C2045 C2044 1.386 . S
C2045 C2049 1.393 . S
C2046 H2038 0.950 . S
C2046 C2044 1.391 . S
C2046 C2047 1.400 . S
C2047 C2046 1.400 . S
C2047 C2048 1.398 . S
C2047 C2053 1.491 1_455 S
C2048 H2039 0.950 . S
C2048 C2047 1.398 . S
C2048 C2049 1.391 . S
C2049 H2037 0.950 . S
C2049 C2045 1.393 . S
C2049 C2048 1.391 . S
C2050 H2040 0.950 . S
C2050 C2051 1.386 . S
C2050 C2052 1.391 . S
C2051 C2050 1.386 . S
C2051 C2055 1.393 . S
C2052 H2041 0.950 . S
C2052 C2050 1.391 . S
C2052 C2053 1.400 . S
C2053 C2047 1.491 1_655 S
C2053 C2052 1.400 . S
C2053 C2054 1.398 . S
C2054 H2042 0.950 . S
C2054 C2053 1.398 . S
C2054 C2055 1.391 . S
C2055 H2043 0.950 . S
C2055 C2051 1.393 . S
C2055 C2054 1.391 . S
H2056 C2064 0.950 . S
H2057 C2069 0.950 . S
H2058 C2066 0.950 . S
H2059 C2068 0.950 . S
H2060 C2070 0.950 . S
H2061 C2072 0.950 . S
H2062 C2074 0.950 . S
H2063 C2075 0.950 . S
C2064 H2056 0.950 . S
C2064 C2065 1.386 . S
C2064 C2066 1.401 . S
C2065 C2064 1.386 . S
C2065 C2069 1.393 1_655 S
C2066 H2058 0.950 . S
C2066 C2064 1.401 . S
C2066 C2067 1.391 1_655 S
C2067 C2066 1.391 1_455 S
C2067 C2068 1.398 . S
C2067 C2073 1.491 . S
C2068 H2059 0.950 . S
C2068 C2067 1.398 . S
C2068 C2069 1.391 . S
C2069 H2057 0.950 . S
C2069 C2065 1.393 1_455 S
C2069 C2068 1.391 . S
C2070 H2060 0.950 . S
C2070 C2071 1.386 . S
C2070 C2072 1.391 . S
C2071 C2070 1.386 . S
C2071 C2075 1.393 . S
C2072 H2061 0.950 . S
C2072 C2070 1.391 . S
C2072 C2073 1.400 . S
C2073 C2067 1.491 . S
C2073 C2072 1.400 . S
C2073 C2074 1.398 . S
C2074 H2062 0.950 . S
C2074 C2073 1.398 . S
C2074 C2075 1.391 . S
C2075 H2063 0.950 . S
C2075 C2071 1.393 . S
C2075 C2074 1.391 . S
H2076 C2084 0.950 . S
H2077 C2089 0.950 . S
H2078 C2086 0.950 . S
H2079 C2088 0.950 . S
H2080 C2090 0.950 . S
H2081 C2092 0.950 . S
H2082 C2094 0.950 . S
H2083 C2095 0.950 . S
C2084 H2076 0.950 . S
C2084 C2085 1.386 . S
C2084 C2086 1.391 . S
C2085 C2084 1.386 . S
C2085 C2089 1.393 . S
C2086 H2078 0.950 . S
C2086 C2084 1.391 . S
C2086 C2087 1.400 . S
C2087 C2086 1.400 . S
C2087 C2088 1.398 . S
C2087 C2093 1.491 . S
C2088 H2079 0.950 . S
C2088 C2087 1.398 . S
C2088 C2089 1.391 . S
C2089 H2077 0.950 . S
C2089 C2085 1.393 . S
C2089 C2088 1.391 . S
C2090 H2080 0.950 . S
C2090 C2091 1.386 . S
C2090 C2092 1.391 . S
C2091 C2090 1.386 . S
C2091 C2095 1.393 . S
C2092 H2081 0.950 . S
C2092 C2090 1.391 . S
C2092 C2093 1.400 . S
C2093 C2087 1.491 . S
C2093 C2092 1.400 . S
C2093 C2094 1.398 . S
C2094 H2082 0.950 . S
C2094 C2093 1.398 . S
C2094 C2095 1.391 . S
C2095 H2083 0.950 . S
C2095 C2091 1.393 . S
C2095 C2094 1.391 . S
H2096 C2104 0.950 . S
H2097 C2109 0.950 . S
H2098 C2106 0.950 . S
H2099 C2108 0.950 . S
H2100 C2110 0.950 . S
H2101 C2112 0.950 . S
H2102 C2114 0.950 . S
H2103 C2115 0.950 . S
C2104 H2096 0.950 . S
C2104 C2105 1.386 . S
C2104 C2106 1.391 . S
C2105 C2104 1.386 . S
C2105 C2109 1.393 . S
C2106 H2098 0.950 . S
C2106 C2104 1.391 . S
C2106 C2107 1.400 . S
C2107 C2106 1.400 . S
C2107 C2108 1.398 . S
C2107 C2113 1.491 . S
C2108 H2099 0.950 . S
C2108 C2107 1.398 . S
C2108 C2109 1.391 . S
C2109 H2097 0.950 . S
C2109 C2105 1.393 . S
C2109 C2108 1.391 . S
C2110 H2100 0.950 . S
C2110 C2111 1.386 . S
C2110 C2112 1.391 . S
C2111 C2110 1.386 . S
C2111 C2115 1.393 . S
C2112 H2101 0.950 . S
C2112 C2110 1.391 . S
C2112 C2113 1.400 . S
C2113 C2107 1.491 . S
C2113 C2112 1.400 . S
C2113 C2114 1.398 . S
C2114 H2102 0.950 . S
C2114 C2113 1.398 . S
C2114 C2115 1.391 . S
C2115 H2103 0.950 . S
C2115 C2111 1.393 . S
C2115 C2114 1.391 . S
H2116 C2124 0.950 . S
H2117 C2129 0.950 . S
H2118 C2126 0.950 . S
H2119 C2128 0.950 . S
H2120 C2130 0.950 . S
H2121 C2132 0.950 . S
H2122 C2134 0.950 . S
H2123 C2135 0.950 . S
C2124 H2116 0.950 . S
C2124 C2125 1.386 . S
C2124 C2126 1.391 . S
C2125 C2124 1.386 . S
C2125 C2129 1.393 . S
C2126 H2118 0.950 . S
C2126 C2124 1.391 . S
C2126 C2127 1.400 . S
C2127 C2126 1.400 . S
C2127 C2128 1.398 . S
C2127 C2133 1.491 . S
C2128 H2119 0.950 . S
C2128 C2127 1.398 . S
C2128 C2129 1.391 . S
C2129 H2117 0.950 . S
C2129 C2125 1.393 . S
C2129 C2128 1.391 . S
C2130 H2120 0.950 . S
C2130 C2131 1.386 . S
C2130 C2132 1.391 . S
C2131 C2130 1.386 . S
C2131 C2135 1.393 . S
C2132 H2121 0.950 . S
C2132 C2130 1.391 . S
C2132 C2133 1.400 . S
C2133 C2127 1.491 . S
C2133 C2132 1.400 . S
C2133 C2134 1.398 . S
C2134 H2122 0.950 . S
C2134 C2133 1.398 . S
C2134 C2135 1.391 . S
C2135 H2123 0.950 . S
C2135 C2131 1.393 . S
C2135 C2134 1.391 . S
H2136 C2144 0.950 . S
H2137 C2149 0.950 . S
H2138 C2146 0.950 . S
H2139 C2148 0.950 . S
H2140 C2150 0.950 . S
H2141 C2152 0.950 . S
H2142 C2154 0.950 . S
H2143 C2155 0.950 . S
C2144 H2136 0.950 . S
C2144 C2145 1.386 . S
C2144 C2146 1.391 . S
C2145 C2144 1.386 . S
C2145 C2149 1.393 . S
C2146 H2138 0.950 . S
C2146 C2144 1.391 . S
C2146 C2147 1.400 . S
C2147 C2146 1.400 . S
C2147 C2148 1.398 . S
C2147 C2153 1.491 . S
C2148 H2139 0.950 . S
C2148 C2147 1.398 . S
C2148 C2149 1.391 . S
C2149 H2137 0.950 . S
C2149 C2145 1.393 . S
C2149 C2148 1.391 . S
C2150 H2140 0.950 . S
C2150 C2151 1.386 . S
C2150 C2152 1.391 . S
C2151 C2150 1.386 . S
C2151 C2155 1.393 . S
C2152 H2141 0.950 . S
C2152 C2150 1.391 . S
C2152 C2153 1.400 . S
C2153 C2147 1.491 . S
C2153 C2152 1.400 . S
C2153 C2154 1.398 . S
C2154 H2142 0.950 . S
C2154 C2153 1.398 . S
C2154 C2155 1.391 . S
C2155 H2143 0.950 . S
C2155 C2151 1.393 . S
C2155 C2154 1.391 . S
H2156 C2164 0.950 . S
H2157 C2169 0.950 . S
H2158 C2166 0.950 . S
H2159 C2168 0.950 . S
H2160 C2170 0.950 . S
H2161 C2172 0.950 . S
H2162 C2174 0.950 . S
H2163 C2175 0.950 . S
C2164 H2156 0.950 . S
C2164 C2165 1.386 . S
C2164 C2166 1.391 . S
C2165 C2164 1.386 . S
C2165 C2169 1.393 . S
C2166 H2158 0.950 . S
C2166 C2164 1.391 . S
C2166 C2167 1.400 . S
C2167 C2166 1.400 . S
C2167 C2168 1.398 . S
C2167 C2173 1.491 . S
C2168 H2159 0.950 . S
C2168 C2167 1.398 . S
C2168 C2169 1.391 . S
C2169 H2157 0.950 . S
C2169 C2165 1.393 . S
C2169 C2168 1.391 . S
C2170 H2160 0.950 . S
C2170 C2171 1.386 . S
C2170 C2172 1.391 . S
C2171 C2170 1.386 . S
C2171 C2175 1.393 . S
C2172 H2161 0.950 . S
C2172 C2170 1.391 . S
C2172 C2173 1.400 . S
C2173 C2167 1.491 . S
C2173 C2172 1.400 . S
C2173 C2174 1.398 . S
C2174 H2162 0.950 . S
C2174 C2173 1.398 . S
C2174 C2175 1.391 . S
C2175 H2163 0.950 . S
C2175 C2171 1.393 . S
C2175 C2174 1.391 . S
H2176 C2184 0.950 . S
H2177 C2189 0.950 . S
H2178 C2186 0.950 . S
H2179 C2188 0.950 . S
H2180 C2190 0.950 . S
H2181 C2192 0.950 . S
H2182 C2194 0.950 . S
H2183 C2195 0.950 . S
C2184 H2176 0.950 . S
C2184 C2185 1.386 . S
C2184 C2186 1.391 . S
C2185 C2184 1.386 . S
C2185 C2189 1.393 . S
C2186 H2178 0.950 . S
C2186 C2184 1.391 . S
C2186 C2187 1.400 . S
C2187 C2186 1.400 . S
C2187 C2188 1.398 . S
C2187 C2193 1.491 . S
C2188 H2179 0.950 . S
C2188 C2187 1.398 . S
C2188 C2189 1.391 . S
C2189 H2177 0.950 . S
C2189 C2185 1.393 . S
C2189 C2188 1.391 . S
C2190 H2180 0.950 . S
C2190 C2191 1.386 . S
C2190 C2192 1.391 . S
C2191 C2190 1.386 . S
C2191 C2195 1.393 . S
C2192 H2181 0.950 . S
C2192 C2190 1.391 . S
C2192 C2193 1.400 . S
C2193 C2187 1.491 . S
C2193 C2192 1.400 . S
C2193 C2194 1.398 . S
C2194 H2182 0.950 . S
C2194 C2193 1.398 . S
C2194 C2195 1.391 . S
C2195 H2183 0.950 . S
C2195 C2191 1.393 . S
C2195 C2194 1.391 . S
H2196 C2204 0.950 . S
H2197 C2209 0.950 . S
H2198 C2206 0.950 . S
H2199 C2208 0.950 . S
H2200 C2210 0.950 . S
H2201 C2212 0.950 . S
H2202 C2214 0.950 . S
H2203 C2215 0.950 . S
C2204 H2196 0.950 . S
C2204 C2205 1.386 . S
C2204 C2206 1.391 . S
C2205 C2204 1.386 . S
C2205 C2209 1.393 . S
C2206 H2198 0.950 . S
C2206 C2204 1.391 . S
C2206 C2207 1.400 . S
C2207 C2206 1.400 . S
C2207 C2208 1.398 . S
C2207 C2213 1.491 . S
C2208 H2199 0.950 . S
C2208 C2207 1.398 . S
C2208 C2209 1.391 . S
C2209 H2197 0.950 . S
C2209 C2205 1.393 . S
C2209 C2208 1.391 . S
C2210 H2200 0.950 . S
C2210 C2211 1.386 . S
C2210 C2212 1.391 . S
C2211 C2210 1.386 . S
C2211 C2215 1.393 . S
C2212 H2201 0.950 . S
C2212 C2210 1.391 . S
C2212 C2213 1.400 . S
C2213 C2207 1.491 . S
C2213 C2212 1.400 . S
C2213 C2214 1.398 . S
C2214 H2202 0.950 . S
C2214 C2213 1.398 . S
C2214 C2215 1.391 . S
C2215 H2203 0.950 . S
C2215 C2211 1.393 . S
C2215 C2214 1.391 . S
H2216 C2224 0.950 . S
H2217 C2229 0.950 . S
H2218 C2226 0.950 . S
H2219 C2228 0.950 . S
H2220 C2230 0.950 . S
H2221 C2232 0.950 . S
H2222 C2234 0.950 . S
H2223 C2235 0.950 . S
C2224 H2216 0.950 . S
C2224 C2225 1.386 . S
C2224 C2226 1.391 . S
C2225 C2224 1.386 . S
C2225 C2229 1.393 . S
C2226 H2218 0.950 . S
C2226 C2224 1.391 . S
C2226 C2227 1.400 . S
C2227 C2226 1.400 . S
C2227 C2228 1.398 . S
C2227 C2233 1.491 . S
C2228 H2219 0.950 . S
C2228 C2227 1.398 . S
C2228 C2229 1.391 . S
C2229 H2217 0.950 . S
C2229 C2225 1.393 . S
C2229 C2228 1.391 . S
C2230 H2220 0.950 . S
C2230 C2231 1.386 . S
C2230 C2232 1.391 . S
C2231 C2230 1.386 . S
C2231 C2235 1.393 . S
C2232 H2221 0.950 . S
C2232 C2230 1.391 . S
C2232 C2233 1.400 . S
C2233 C2227 1.491 . S
C2233 C2232 1.400 . S
C2233 C2234 1.398 . S
C2234 H2222 0.950 . S
C2234 C2233 1.398 . S
C2234 C2235 1.391 . S
C2235 H2223 0.950 . S
C2235 C2231 1.393 . S
C2235 C2234 1.391 . S
H2236 C2244 0.950 . S
H2237 C2249 0.950 . S
H2238 C2246 0.950 . S
H2239 C2248 0.950 . S
H2240 C2250 0.950 . S
H2241 C2252 0.950 . S
H2242 C2254 0.950 . S
H2243 C2255 0.950 . S
C2244 H2236 0.950 . S
C2244 C2245 1.386 . S
C2244 C2246 1.391 . S
C2245 C2244 1.386 . S
C2245 C2249 1.393 . S
C2246 H2238 0.950 . S
C2246 C2244 1.391 . S
C2246 C2247 1.400 . S
C2247 C2246 1.400 . S
C2247 C2248 1.398 . S
C2247 C2253 1.491 . S
C2248 H2239 0.950 . S
C2248 C2247 1.398 . S
C2248 C2249 1.391 . S
C2249 H2237 0.950 . S
C2249 C2245 1.393 . S
C2249 C2248 1.391 . S
C2250 H2240 0.950 . S
C2250 C2251 1.386 . S
C2250 C2252 1.391 . S
C2251 C2250 1.386 . S
C2251 C2255 1.393 . S
C2252 H2241 0.950 . S
C2252 C2250 1.391 . S
C2252 C2253 1.400 . S
C2253 C2247 1.491 . S
C2253 C2252 1.400 . S
C2253 C2254 1.398 . S
C2254 H2242 0.950 . S
C2254 C2253 1.398 . S
C2254 C2255 1.391 . S
C2255 H2243 0.950 . S
C2255 C2251 1.393 . S
C2255 C2254 1.391 . S
H2256 C2264 0.950 . S
H2257 C2269 0.950 . S
H2258 C2266 0.950 . S
H2259 C2268 0.950 . S
H2260 C2270 0.950 . S
H2261 C2272 0.950 . S
H2262 C2274 0.950 . S
H2263 C2275 0.950 . S
C2264 H2256 0.950 . S
C2264 C2265 1.386 . S
C2264 C2266 1.391 . S
C2265 C2264 1.386 . S
C2265 C2269 1.393 . S
C2266 H2258 0.950 . S
C2266 C2264 1.391 . S
C2266 C2267 1.400 . S
C2267 C2266 1.400 . S
C2267 C2268 1.398 . S
C2267 C2273 1.491 . S
C2268 H2259 0.950 . S
C2268 C2267 1.398 . S
C2268 C2269 1.391 . S
C2269 H2257 0.950 . S
C2269 C2265 1.393 . S
C2269 C2268 1.391 . S
C2270 H2260 0.950 . S
C2270 C2271 1.386 . S
C2270 C2272 1.391 . S
C2271 C2270 1.386 . S
C2271 C2275 1.393 . S
C2272 H2261 0.950 . S
C2272 C2270 1.391 . S
C2272 C2273 1.400 . S
C2273 C2267 1.491 . S
C2273 C2272 1.400 . S
C2273 C2274 1.398 . S
C2274 H2262 0.950 . S
C2274 C2273 1.398 . S
C2274 C2275 1.391 . S
C2275 H2263 0.950 . S
C2275 C2271 1.393 . S
C2275 C2274 1.391 . S
H2276 C2284 0.950 . S
H2277 C2289 0.950 . S
H2278 C2286 0.950 . S
H2279 C2288 0.950 . S
H2280 C2290 0.950 . S
H2281 C2292 0.950 . S
H2282 C2294 0.950 . S
H2283 C2295 0.950 . S
C2284 H2276 0.950 . S
C2284 C2285 1.386 . S
C2284 C2286 1.391 . S
C2285 C2284 1.386 . S
C2285 C2289 1.393 . S
C2286 H2278 0.950 . S
C2286 C2284 1.391 . S
C2286 C2287 1.400 . S
C2287 C2286 1.400 . S
C2287 C2288 1.398 . S
C2287 C2293 1.491 . S
C2288 H2279 0.950 . S
C2288 C2287 1.398 . S
C2288 C2289 1.391 . S
C2289 H2277 0.950 . S
C2289 C2285 1.393 . S
C2289 C2288 1.391 . S
C2290 H2280 0.950 . S
C2290 C2291 1.386 . S
C2290 C2292 1.391 . S
C2291 C2290 1.386 . S
C2291 C2295 1.393 . S
C2292 H2281 0.950 . S
C2292 C2290 1.391 . S
C2292 C2293 1.400 . S
C2293 C2287 1.491 . S
C2293 C2292 1.400 . S
C2293 C2294 1.398 . S
C2294 H2282 0.950 . S
C2294 C2293 1.398 . S
C2294 C2295 1.391 . S
C2295 H2283 0.950 . S
C2295 C2291 1.393 . S
C2295 C2294 1.391 . S
H2296 C2304 0.950 . S
H2297 C2309 0.950 . S
H2298 C2306 0.950 . S
H2299 C2308 0.950 . S
H2300 C2310 0.950 . S
H2301 C2312 0.950 . S
H2302 C2314 0.950 . S
H2303 C2315 0.950 . S
C2304 H2296 0.950 . S
C2304 C2305 1.386 . S
C2304 C2306 1.391 . S
C2305 C2304 1.386 . S
C2305 C2309 1.393 . S
C2306 H2298 0.950 . S
C2306 C2304 1.391 . S
C2306 C2307 1.400 . S
C2307 C2306 1.400 . S
C2307 C2308 1.398 . S
C2307 C2313 1.491 . S
C2308 H2299 0.950 . S
C2308 C2307 1.398 . S
C2308 C2309 1.391 . S
C2309 H2297 0.950 . S
C2309 C2305 1.393 . S
C2309 C2308 1.391 . S
C2310 H2300 0.950 . S
C2310 C2311 1.386 . S
C2310 C2312 1.391 . S
C2311 C2310 1.386 . S
C2311 C2315 1.393 . S
C2312 H2301 0.950 . S
C2312 C2310 1.391 . S
C2312 C2313 1.400 . S
C2313 C2307 1.491 . S
C2313 C2312 1.400 . S
C2313 C2314 1.398 . S
C2314 H2302 0.950 . S
C2314 C2313 1.398 . S
C2314 C2315 1.391 . S
C2315 H2303 0.950 . S
C2315 C2311 1.393 . S
C2315 C2314 1.391 . S
H2316 C2324 0.950 1_545 S
H2317 C2329 0.950 . S
H2318 C2326 0.946 1_545 S
H2319 C2328 0.950 . S
H2320 C2330 0.950 . S
H2321 C2332 0.950 . S
H2322 C2334 0.950 . S
H2323 C2335 0.950 . S
C2324 H2316 0.950 1_565 S
C2324 C2325 1.386 . S
C2324 C2326 1.391 . S
C2325 C2324 1.386 . S
C2325 C2329 1.393 . S
C2326 H2318 0.946 1_565 S
C2326 C2324 1.391 . S
C2326 C2327 1.404 . S
C2327 C2326 1.404 . S
C2327 C2328 1.398 . S
C2327 C2333 1.491 . S
C2328 H2319 0.950 . S
C2328 C2327 1.398 . S
C2328 C2329 1.391 . S
C2329 H2317 0.950 . S
C2329 C2325 1.393 . S
C2329 C2328 1.391 . S
C2330 H2320 0.950 . S
C2330 C2331 1.386 1_565 S
C2330 C2332 1.391 . S
C2331 C2330 1.386 1_545 S
C2331 C2335 1.393 . S
C2332 H2321 0.950 . S
C2332 C2330 1.391 . S
C2332 C2333 1.400 . S
C2333 C2327 1.491 . S
C2333 C2332 1.400 . S
C2333 C2334 1.398 1_565 S
C2334 H2322 0.950 . S
C2334 C2333 1.398 1_545 S
C2334 C2335 1.391 . S
C2335 H2323 0.950 . S
C2335 C2331 1.393 . S
C2335 C2334 1.391 . S
H2336 C2344 0.950 . S
H2337 C2349 0.950 . S
H2338 C2346 0.950 . S
H2339 C2348 0.950 . S
H2340 C2350 0.950 . S
H2341 C2352 0.950 . S
H2342 C2354 0.950 . S
H2343 C2355 0.950 . S
C2344 H2336 0.950 . S
C2344 C2345 1.386 . S
C2344 C2346 1.391 . S
C2345 C2344 1.386 . S
C2345 C2349 1.393 . S
C2346 H2338 0.950 . S
C2346 C2344 1.391 . S
C2346 C2347 1.400 . S
C2347 C2346 1.400 . S
C2347 C2348 1.398 . S
C2347 C2353 1.491 . S
C2348 H2339 0.950 . S
C2348 C2347 1.398 . S
C2348 C2349 1.391 . S
C2349 H2337 0.950 . S
C2349 C2345 1.393 . S
C2349 C2348 1.391 . S
C2350 H2340 0.950 . S
C2350 C2351 1.386 . S
C2350 C2352 1.391 . S
C2351 C2350 1.386 . S
C2351 C2355 1.393 . S
C2352 H2341 0.950 . S
C2352 C2350 1.391 . S
C2352 C2353 1.400 . S
C2353 C2347 1.491 . S
C2353 C2352 1.400 . S
C2353 C2354 1.398 . S
C2354 H2342 0.950 . S
C2354 C2353 1.398 . S
C2354 C2355 1.391 . S
C2355 H2343 0.950 . S
C2355 C2351 1.393 . S
C2355 C2354 1.391 . S
H2356 C2364 0.950 . S
H2357 C2369 0.950 . S
H2358 C2366 0.950 1_556 S
H2359 C2368 0.950 . S
H2360 C2370 0.950 . S
H2361 C2372 0.950 . S
H2362 C2374 0.950 . S
H2363 C2375 0.950 . S
C2364 H2356 0.950 . S
C2364 C2365 1.386 1_556 S
C2364 C2366 1.391 1_556 S
C2365 C2364 1.386 1_554 S
C2365 C2369 1.393 . S
C2366 H2358 0.950 1_554 S
C2366 C2364 1.391 1_554 S
C2366 C2367 1.400 . S
C2367 C2366 1.400 . S
C2367 C2368 1.398 . S
C2367 C2373 1.491 . S
C2368 H2359 0.950 . S
C2368 C2367 1.398 . S
C2368 C2369 1.391 . S
C2369 H2357 0.950 . S
C2369 C2365 1.393 . S
C2369 C2368 1.391 . S
C2370 H2360 0.950 . S
C2370 C2371 1.386 . S
C2370 C2372 1.391 . S
C2371 C2370 1.386 . S
C2371 C2375 1.393 . S
C2372 H2361 0.950 . S
C2372 C2370 1.391 . S
C2372 C2373 1.400 . S
C2373 C2367 1.491 . S
C2373 C2372 1.400 . S
C2373 C2374 1.398 . S
C2374 H2362 0.950 . S
C2374 C2373 1.398 . S
C2374 C2375 1.391 . S
C2375 H2363 0.950 . S
C2375 C2371 1.393 . S
C2375 C2374 1.391 . S
H2376 C2384 0.950 . S
H2377 C2389 0.950 . S
H2378 C2386 0.950 . S
H2379 C2388 0.950 . S
H2380 C2390 0.950 . S
H2381 C2392 0.950 . S
H2382 C2394 0.950 . S
H2383 C2395 0.950 . S
C2384 H2376 0.950 . S
C2384 C2385 1.386 . S
C2384 C2386 1.391 . S
C2385 C2384 1.386 . S
C2385 C2389 1.393 . S
C2386 H2378 0.950 . S
C2386 C2384 1.391 . S
C2386 C2387 1.400 . S
C2387 C2386 1.400 . S
C2387 C2388 1.398 . S
C2387 C2393 1.491 . S
C2388 H2379 0.950 . S
C2388 C2387 1.398 . S
C2388 C2389 1.391 . S
C2389 H2377 0.950 . S
C2389 C2385 1.393 . S
C2389 C2388 1.391 . S
C2390 H2380 0.950 . S
C2390 C2391 1.386 . S
C2390 C2392 1.391 . S
C2391 C2390 1.386 . S
C2391 C2395 1.393 . S
C2392 H2381 0.950 . S
C2392 C2390 1.391 . S
C2392 C2393 1.400 . S
C2393 C2387 1.491 . S
C2393 C2392 1.400 . S
C2393 C2394 1.398 . S
C2394 H2382 0.950 . S
C2394 C2393 1.398 . S
C2394 C2395 1.391 . S
C2395 H2383 0.950 . S
C2395 C2391 1.393 . S
C2395 C2394 1.391 . S
H2396 C2404 0.950 . S
H2397 C2409 0.950 . S
H2398 C2406 0.950 . S
H2399 C2408 0.950 . S
H2400 C2410 0.950 . S
H2401 C2412 0.950 . S
H2402 C2414 0.950 . S
H2403 C2415 0.950 . S
C2404 H2396 0.950 . S
C2404 C2405 1.386 . S
C2404 C2406 1.391 . S
C2405 C2404 1.386 . S
C2405 C2409 1.393 . S
C2406 H2398 0.950 . S
C2406 C2404 1.391 . S
C2406 C2407 1.400 . S
C2407 C2406 1.400 . S
C2407 C2408 1.398 . S
C2407 C2413 1.491 . S
C2408 H2399 0.950 . S
C2408 C2407 1.398 . S
C2408 C2409 1.391 . S
C2409 H2397 0.950 . S
C2409 C2405 1.393 . S
C2409 C2408 1.391 . S
C2410 H2400 0.950 . S
C2410 C2411 1.386 . S
C2410 C2412 1.391 . S
C2411 C2410 1.386 . S
C2411 C2415 1.393 . S
C2412 H2401 0.950 . S
C2412 C2410 1.391 . S
C2412 C2413 1.400 . S
C2413 C2407 1.491 . S
C2413 C2412 1.400 . S
C2413 C2414 1.398 . S
C2414 H2402 0.950 . S
C2414 C2413 1.398 . S
C2414 C2415 1.391 . S
C2415 H2403 0.950 . S
C2415 C2411 1.393 . S
C2415 C2414 1.391 . S
H2416 C2424 0.950 . S
H2417 C2429 0.950 . S
H2418 C2426 0.950 . S
H2419 C2428 0.950 . S
H2420 C2430 0.950 . S
H2421 C2432 0.950 . S
H2422 C2434 0.950 . S
H2423 C2435 0.950 . S
C2424 H2416 0.950 . S
C2424 C2425 1.386 . S
C2424 C2426 1.391 . S
C2425 C2424 1.386 . S
C2425 C2429 1.393 . S
C2426 H2418 0.950 . S
C2426 C2424 1.391 . S
C2426 C2427 1.400 . S
C2427 C2426 1.400 . S
C2427 C2428 1.398 . S
C2427 C2433 1.491 . S
C2428 H2419 0.950 . S
C2428 C2427 1.398 . S
C2428 C2429 1.391 . S
C2429 H2417 0.950 . S
C2429 C2425 1.393 . S
C2429 C2428 1.391 . S
C2430 H2420 0.950 . S
C2430 C2431 1.386 . S
C2430 C2432 1.391 . S
C2431 C2430 1.386 . S
C2431 C2435 1.393 . S
C2432 H2421 0.950 . S
C2432 C2430 1.391 . S
C2432 C2433 1.400 . S
C2433 C2427 1.491 . S
C2433 C2432 1.400 . S
C2433 C2434 1.398 . S
C2434 H2422 0.950 . S
C2434 C2433 1.398 . S
C2434 C2435 1.391 . S
C2435 H2423 0.950 . S
C2435 C2431 1.393 . S
C2435 C2434 1.391 . S
H2436 C2444 0.950 . S
H2437 C2449 0.950 . S
H2438 C2446 0.950 . S
H2439 C2448 0.950 . S
H2440 C2450 0.950 . S
H2441 C2452 0.950 . S
H2442 C2454 0.950 . S
H2443 C2455 0.950 . S
C2444 H2436 0.950 . S
C2444 C2445 1.386 . S
C2444 C2446 1.391 . S
C2445 C2444 1.386 . S
C2445 C2449 1.393 . S
C2446 H2438 0.950 . S
C2446 C2444 1.391 . S
C2446 C2447 1.400 . S
C2447 C2446 1.400 . S
C2447 C2448 1.398 . S
C2447 C2453 1.491 . S
C2448 H2439 0.950 . S
C2448 C2447 1.398 . S
C2448 C2449 1.391 . S
C2449 H2437 0.950 . S
C2449 C2445 1.393 . S
C2449 C2448 1.391 . S
C2450 H2440 0.950 . S
C2450 C2451 1.386 . S
C2450 C2452 1.391 . S
C2451 C2450 1.386 . S
C2451 C2455 1.393 . S
C2452 H2441 0.950 . S
C2452 C2450 1.391 . S
C2452 C2453 1.400 . S
C2453 C2447 1.491 . S
C2453 C2452 1.400 . S
C2453 C2454 1.398 . S
C2454 H2442 0.950 . S
C2454 C2453 1.398 . S
C2454 C2455 1.391 . S
C2455 H2443 0.950 . S
C2455 C2451 1.393 . S
C2455 C2454 1.391 . S
H2456 C2464 0.950 . S
H2457 C2469 0.950 . S
H2458 C2466 0.950 . S
H2459 C2468 0.950 . S
H2460 C2470 0.975 . S
H2461 C2472 0.950 . S
H2462 C2474 0.950 . S
H2463 C2475 0.950 . S
C2464 H2456 0.950 . S
C2464 C2465 1.386 . S
C2464 C2466 1.391 . S
C2465 C2464 1.386 . S
C2465 C2469 1.393 . S
C2466 H2458 0.950 . S
C2466 C2464 1.391 . S
C2466 C2467 1.400 . S
C2467 C2466 1.400 . S
C2467 C2468 1.398 . S
C2467 C2473 1.491 . S
C2468 H2459 0.950 . S
C2468 C2467 1.398 . S
C2468 C2469 1.391 . S
C2469 H2457 0.950 . S
C2469 C2465 1.393 . S
C2469 C2468 1.391 . S
C2470 H2460 0.975 . S
C2470 C2471 1.386 . S
C2470 C2472 1.391 . S
C2471 C2470 1.386 . S
C2471 C2475 1.393 . S
C2472 H2461 0.950 . S
C2472 C2470 1.391 . S
C2472 C2473 1.400 . S
C2473 C2467 1.491 . S
C2473 C2472 1.400 . S
C2473 C2474 1.398 . S
C2474 H2462 0.950 . S
C2474 C2473 1.398 . S
C2474 C2475 1.391 . S
C2475 H2463 0.950 . S
C2475 C2471 1.393 . S
C2475 C2474 1.391 . S
H2476 C2484 0.950 . S
H2477 C2489 0.950 . S
H2478 C2486 0.950 . S
H2479 C2488 0.950 . S
H2480 C2490 0.950 . S
H2481 C2492 0.950 . S
H2482 C2494 0.950 . S
H2483 C2495 0.950 . S
C2484 H2476 0.950 . S
C2484 C2485 1.386 . S
C2484 C2486 1.391 . S
C2485 C2484 1.386 . S
C2485 C2489 1.393 . S
C2486 H2478 0.950 . S
C2486 C2484 1.391 . S
C2486 C2487 1.400 . S
C2487 C2486 1.400 . S
C2487 C2488 1.398 . S
C2487 C2493 1.491 . S
C2488 H2479 0.950 . S
C2488 C2487 1.398 . S
C2488 C2489 1.391 . S
C2489 H2477 0.950 . S
C2489 C2485 1.393 . S
C2489 C2488 1.391 . S
C2490 H2480 0.950 . S
C2490 C2491 1.386 . S
C2490 C2492 1.391 . S
C2491 C2490 1.386 . S
C2491 C2495 1.393 . S
C2492 H2481 0.950 . S
C2492 C2490 1.391 . S
C2492 C2493 1.400 . S
C2493 C2487 1.491 . S
C2493 C2492 1.400 . S
C2493 C2494 1.398 . S
C2494 H2482 0.950 . S
C2494 C2493 1.398 . S
C2494 C2495 1.391 . S
C2495 H2483 0.950 . S
C2495 C2491 1.393 . S
C2495 C2494 1.391 . S
H2496 C2504 0.950 . S
H2497 C2509 0.950 . S
H2498 C2506 0.950 . S
H2499 C2508 0.950 . S
H2500 C2510 0.950 . S
H2501 C2512 0.950 . S
H2502 C2514 0.950 . S
H2503 C2515 0.950 . S
C2504 H2496 0.950 . S
C2504 C2505 1.386 . S
C2504 C2506 1.391 . S
C2505 C2504 1.386 . S
C2505 C2509 1.393 . S
C2506 H2498 0.950 . S
C2506 C2504 1.391 . S
C2506 C2507 1.400 . S
C2507 C2506 1.400 . S
C2507 C2508 1.398 . S
C2507 C2513 1.491 . S
C2508 H2499 0.950 . S
C2508 C2507 1.398 . S
C2508 C2509 1.391 . S
C2509 H2497 0.950 . S
C2509 C2505 1.393 . S
C2509 C2508 1.391 . S
C2510 H2500 0.950 . S
C2510 C2511 1.386 . S
C2510 C2512 1.391 . S
C2511 C2510 1.386 . S
C2511 C2515 1.393 . S
C2512 H2501 0.950 . S
C2512 C2510 1.391 . S
C2512 C2513 1.400 . S
C2513 C2507 1.491 . S
C2513 C2512 1.400 . S
C2513 C2514 1.398 . S
C2514 H2502 0.950 . S
C2514 C2513 1.398 . S
C2514 C2515 1.391 . S
C2515 H2503 0.950 . S
C2515 C2511 1.393 . S
C2515 C2514 1.391 . S
H2516 C2524 0.950 . S
H2517 C2529 0.950 . S
H2518 C2526 0.950 . S
H2519 C2528 0.950 . S
H2520 C2530 0.950 . S
H2521 C2532 0.950 . S
H2522 C2534 0.950 . S
H2523 C2535 0.950 . S
C2524 H2516 0.950 . S
C2524 C2525 1.386 . S
C2524 C2526 1.391 . S
C2525 C2524 1.386 . S
C2525 C2529 1.393 . S
C2526 H2518 0.950 . S
C2526 C2524 1.391 . S
C2526 C2527 1.400 . S
C2527 C2526 1.400 . S
C2527 C2528 1.398 . S
C2527 C2533 1.491 . S
C2528 H2519 0.950 . S
C2528 C2527 1.398 . S
C2528 C2529 1.391 . S
C2529 H2517 0.950 . S
C2529 C2525 1.393 . S
C2529 C2528 1.391 . S
C2530 H2520 0.950 . S
C2530 C2531 1.386 . S
C2530 C2532 1.391 . S
C2531 C2530 1.386 . S
C2531 C2535 1.393 . S
C2532 H2521 0.950 . S
C2532 C2530 1.391 . S
C2532 C2533 1.400 . S
C2533 C2527 1.491 . S
C2533 C2532 1.400 . S
C2533 C2534 1.398 . S
C2534 H2522 0.950 . S
C2534 C2533 1.398 . S
C2534 C2535 1.391 . S
C2535 H2523 0.950 . S
C2535 C2531 1.393 . S
C2535 C2534 1.391 . S
H2536 C2544 0.950 . S
H2537 C2549 0.950 . S
H2538 C2546 0.950 . S
H2539 C2548 0.950 . S
H2540 C2550 0.950 . S
H2541 C2552 0.950 . S
H2542 C2554 0.950 . S
H2543 C2555 0.950 . S
C2544 H2536 0.950 . S
C2544 C2545 1.386 . S
C2544 C2546 1.391 . S
C2545 C2544 1.386 . S
C2545 C2549 1.393 . S
C2546 H2538 0.950 . S
C2546 C2544 1.391 . S
C2546 C2547 1.400 . S
C2547 C2546 1.400 . S
C2547 C2548 1.398 . S
C2547 C2553 1.491 . S
C2548 H2539 0.950 . S
C2548 C2547 1.398 . S
C2548 C2549 1.391 . S
C2549 H2537 0.950 . S
C2549 C2545 1.393 . S
C2549 C2548 1.391 . S
C2550 H2540 0.950 . S
C2550 C2551 1.386 . S
C2550 C2552 1.391 . S
C2551 C2550 1.386 . S
C2551 C2555 1.393 . S
C2552 H2541 0.950 . S
C2552 C2550 1.391 . S
C2552 C2553 1.400 . S
C2553 C2547 1.491 . S
C2553 C2552 1.400 . S
C2553 C2554 1.398 . S
C2554 H2542 0.950 . S
C2554 C2553 1.398 . S
C2554 C2555 1.391 . S
C2555 H2543 0.950 . S
C2555 C2551 1.393 . S
C2555 C2554 1.391 . S
H2556 C2564 0.950 . S
H2557 C2569 0.950 . S
H2558 C2566 0.950 . S
H2559 C2568 0.950 . S
H2560 C2570 0.950 . S
H2561 C2572 0.950 . S
H2562 C2574 0.950 . S
H2563 C2575 0.950 . S
C2564 H2556 0.950 . S
C2564 C2565 1.386 . S
C2564 C2566 1.391 . S
C2565 C2564 1.386 . S
C2565 C2569 1.393 . S
C2566 H2558 0.950 . S
C2566 C2564 1.391 . S
C2566 C2567 1.400 . S
C2567 C2566 1.400 . S
C2567 C2568 1.398 . S
C2567 C2573 1.491 . S
C2568 H2559 0.950 . S
C2568 C2567 1.398 . S
C2568 C2569 1.391 . S
C2569 H2557 0.950 . S
C2569 C2565 1.393 . S
C2569 C2568 1.391 . S
C2570 H2560 0.950 . S
C2570 C2571 1.386 . S
C2570 C2572 1.391 . S
C2571 C2570 1.386 . S
C2571 C2575 1.393 . S
C2572 H2561 0.950 . S
C2572 C2570 1.391 . S
C2572 C2573 1.400 . S
C2573 C2567 1.491 . S
C2573 C2572 1.400 . S
C2573 C2574 1.398 . S
C2574 H2562 0.950 . S
C2574 C2573 1.398 . S
C2574 C2575 1.391 . S
C2575 H2563 0.950 . S
C2575 C2571 1.393 . S
C2575 C2574 1.391 . S
H2576 C2584 0.950 . S
H2577 C2589 0.950 . S
H2578 C2586 0.950 . S
H2579 C2588 0.950 . S
H2580 C2590 0.950 . S
H2581 C2592 0.950 . S
H2582 C2594 0.950 . S
H2583 C2595 0.950 . S
C2584 H2576 0.950 . S
C2584 C2585 1.386 . S
C2584 C2586 1.391 . S
C2585 C2584 1.386 . S
C2585 C2589 1.393 . S
C2586 H2578 0.950 . S
C2586 C2584 1.391 . S
C2586 C2587 1.400 . S
C2587 C2586 1.400 . S
C2587 C2588 1.398 . S
C2587 C2593 1.491 . S
C2588 H2579 0.950 . S
C2588 C2587 1.398 . S
C2588 C2589 1.391 . S
C2589 H2577 0.950 . S
C2589 C2585 1.393 . S
C2589 C2588 1.391 . S
C2590 H2580 0.950 . S
C2590 C2591 1.386 . S
C2590 C2592 1.391 . S
C2591 C2590 1.386 . S
C2591 C2595 1.393 . S
C2592 H2581 0.950 . S
C2592 C2590 1.391 . S
C2592 C2593 1.400 . S
C2593 C2587 1.491 . S
C2593 C2592 1.400 . S
C2593 C2594 1.398 . S
C2594 H2582 0.950 . S
C2594 C2593 1.398 . S
C2594 C2595 1.391 . S
C2595 H2583 0.950 . S
C2595 C2591 1.393 . S
C2595 C2594 1.391 . S
H2596 C2604 0.950 . S
H2597 C2609 0.950 . S
H2598 C2606 0.950 . S
H2599 C2608 0.950 . S
H2600 C2610 0.950 . S
H2601 C2612 0.950 . S
H2602 C2614 0.950 . S
H2603 C2615 0.950 . S
C2604 H2596 0.950 . S
C2604 C2605 1.386 . S
C2604 C2606 1.391 . S
C2605 C2604 1.386 . S
C2605 C2609 1.393 . S
C2606 H2598 0.950 . S
C2606 C2604 1.391 . S
C2606 C2607 1.400 . S
C2607 C2606 1.400 . S
C2607 C2608 1.398 . S
C2607 C2613 1.491 . S
C2608 H2599 0.950 . S
C2608 C2607 1.398 . S
C2608 C2609 1.391 . S
C2609 H2597 0.950 . S
C2609 C2605 1.393 . S
C2609 C2608 1.391 . S
C2610 H2600 0.950 . S
C2610 C2611 1.386 . S
C2610 C2612 1.391 . S
C2611 C2610 1.386 . S
C2611 C2615 1.393 . S
C2612 H2601 0.950 . S
C2612 C2610 1.391 . S
C2612 C2613 1.400 . S
C2613 C2607 1.491 . S
C2613 C2612 1.400 . S
C2613 C2614 1.398 . S
C2614 H2602 0.950 . S
C2614 C2613 1.398 . S
C2614 C2615 1.391 . S
C2615 H2603 0.950 . S
C2615 C2611 1.393 . S
C2615 C2614 1.391 . S
H2616 C2624 0.950 . S
H2617 C2629 0.950 . S
H2618 C2626 0.950 . S
H2619 C2628 0.950 1_455 S
H2620 C2630 0.950 . S
H2621 C2632 0.950 . S
H2622 C2634 0.950 . S
H2623 C2635 0.950 1_655 S
C2624 H2616 0.950 . S
C2624 C2625 1.386 . S
C2624 C2626 1.391 . S
C2625 C2624 1.386 . S
C2625 C2629 1.393 . S
C2626 H2618 0.950 . S
C2626 C2624 1.391 . S
C2626 C2627 1.400 . S
C2627 C2626 1.400 . S
C2627 C2628 1.398 . S
C2627 C2633 1.491 . S
C2628 H2619 0.950 1_655 S
C2628 C2627 1.398 . S
C2628 C2629 1.391 . S
C2629 H2617 0.950 . S
C2629 C2625 1.393 . S
C2629 C2628 1.391 . S
C2630 H2620 0.950 . S
C2630 C2631 1.386 . S
C2630 C2632 1.391 . S
C2631 C2630 1.386 . S
C2631 C2635 1.393 . S
C2632 H2621 0.950 . S
C2632 C2630 1.391 . S
C2632 C2633 1.400 1_455 S
C2633 C2627 1.491 . S
C2633 C2632 1.400 1_655 S
C2633 C2634 1.398 . S
C2634 H2622 0.950 . S
C2634 C2633 1.398 . S
C2634 C2635 1.391 1_655 S
C2635 H2623 0.950 1_455 S
C2635 C2631 1.393 . S
C2635 C2634 1.391 1_455 S
H2636 C2644 0.950 . S
H2637 C2649 0.950 . S
H2638 C2646 0.950 . S
H2639 C2648 0.950 . S
H2640 C2650 0.950 . S
H2641 C2652 0.950 . S
H2642 C2654 0.950 . S
H2643 C2655 0.950 . S
C2644 H2636 0.950 . S
C2644 C2645 1.386 . S
C2644 C2646 1.391 . S
C2645 C2644 1.386 . S
C2645 C2649 1.393 . S
C2646 H2638 0.950 . S
C2646 C2644 1.391 . S
C2646 C2647 1.400 . S
C2647 C2646 1.400 . S
C2647 C2648 1.398 . S
C2647 C2653 1.491 . S
C2648 H2639 0.950 . S
C2648 C2647 1.398 . S
C2648 C2649 1.391 . S
C2649 H2637 0.950 . S
C2649 C2645 1.393 . S
C2649 C2648 1.391 . S
C2650 H2640 0.950 . S
C2650 C2651 1.386 . S
C2650 C2652 1.391 . S
C2651 C2650 1.386 . S
C2651 C2655 1.393 . S
C2652 H2641 0.950 . S
C2652 C2650 1.391 . S
C2652 C2653 1.400 . S
C2653 C2647 1.491 . S
C2653 C2652 1.400 . S
C2653 C2654 1.398 . S
C2654 H2642 0.950 . S
C2654 C2653 1.398 . S
C2654 C2655 1.391 . S
C2655 H2643 0.950 . S
C2655 C2651 1.393 . S
C2655 C2654 1.391 . S
H2656 C2664 0.950 . S
H2657 C2669 0.950 . S
H2658 C2666 0.950 . S
H2659 C2668 0.950 . S
H2660 C2670 0.950 . S
H2661 C2672 0.950 . S
H2662 C2674 0.950 . S
H2663 C2675 0.950 . S
C2664 H2656 0.950 . S
C2664 C2665 1.386 . S
C2664 C2666 1.391 . S
C2665 C2664 1.386 . S
C2665 C2669 1.393 . S
C2666 H2658 0.950 . S
C2666 C2664 1.391 . S
C2666 C2667 1.400 . S
C2667 C2666 1.400 . S
C2667 C2668 1.398 . S
C2667 C2673 1.491 . S
C2668 H2659 0.950 . S
C2668 C2667 1.398 . S
C2668 C2669 1.391 . S
C2669 H2657 0.950 . S
C2669 C2665 1.393 . S
C2669 C2668 1.391 . S
C2670 H2660 0.950 . S
C2670 C2671 1.386 . S
C2670 C2672 1.391 . S
C2671 C2670 1.386 . S
C2671 C2675 1.393 . S
C2672 H2661 0.950 . S
C2672 C2670 1.391 . S
C2672 C2673 1.400 . S
C2673 C2667 1.491 . S
C2673 C2672 1.400 . S
C2673 C2674 1.398 . S
C2674 H2662 0.950 . S
C2674 C2673 1.398 . S
C2674 C2675 1.391 . S
C2675 H2663 0.950 . S
C2675 C2671 1.393 . S
C2675 C2674 1.391 . S
H2676 C2684 0.950 . S
H2677 C2689 0.950 . S
H2678 C2686 0.950 . S
H2679 C2688 0.950 . S
H2680 C2690 0.950 . S
H2681 C2692 0.950 . S
H2682 C2694 0.950 . S
H2683 C2695 0.950 . S
C2684 H2676 0.950 . S
C2684 C2685 1.386 . S
C2684 C2686 1.391 . S
C2685 C2684 1.386 . S
C2685 C2689 1.393 . S
C2686 H2678 0.950 . S
C2686 C2684 1.391 . S
C2686 C2687 1.400 . S
C2687 C2686 1.400 . S
C2687 C2688 1.398 . S
C2687 C2693 1.491 . S
C2688 H2679 0.950 . S
C2688 C2687 1.398 . S
C2688 C2689 1.391 . S
C2689 H2677 0.950 . S
C2689 C2685 1.393 . S
C2689 C2688 1.391 . S
C2690 H2680 0.950 . S
C2690 C2691 1.386 . S
C2690 C2692 1.391 . S
C2691 C2690 1.386 . S
C2691 C2695 1.393 . S
C2692 H2681 0.950 . S
C2692 C2690 1.391 . S
C2692 C2693 1.400 . S
C2693 C2687 1.491 . S
C2693 C2692 1.400 . S
C2693 C2694 1.398 . S
C2694 H2682 0.950 . S
C2694 C2693 1.398 . S
C2694 C2695 1.391 . S
C2695 H2683 0.950 . S
C2695 C2691 1.393 . S
C2695 C2694 1.391 . S
H2696 C2704 0.950 . S
H2697 C2709 0.950 . S
H2698 C2706 0.950 . S
H2699 C2708 0.950 . S
H2700 C2710 0.950 . S
H2701 C2712 0.950 . S
H2702 C2714 0.950 1_455 S
H2703 C2715 0.909 1_455 S
C2704 H2696 0.950 . S
C2704 C2705 1.386 . S
C2704 C2706 1.391 . S
C2705 C2704 1.386 . S
C2705 C2709 1.393 . S
C2706 H2698 0.950 . S
C2706 C2704 1.391 . S
C2706 C2707 1.400 . S
C2707 C2706 1.400 . S
C2707 C2708 1.398 . S
C2707 C2713 1.491 . S
C2708 H2699 0.950 . S
C2708 C2707 1.398 . S
C2708 C2709 1.391 . S
C2709 H2697 0.950 . S
C2709 C2705 1.393 . S
C2709 C2708 1.391 . S
C2710 H2700 0.950 . S
C2710 C2711 1.386 . S
C2710 C2712 1.391 . S
C2711 C2710 1.386 . S
C2711 C2715 1.415 . S
C2712 H2701 0.950 . S
C2712 C2710 1.391 . S
C2712 C2713 1.400 . S
C2713 C2707 1.491 . S
C2713 C2712 1.400 . S
C2713 C2714 1.398 . S
C2714 H2702 0.950 1_655 S
C2714 C2713 1.398 . S
C2714 C2715 1.410 . S
C2715 H2703 0.909 1_655 S
C2715 C2711 1.415 . S
C2715 C2714 1.410 . S
H2716 C2724 0.950 . S
H2717 C2729 0.950 . S
H2718 C2726 0.950 . S
H2719 C2728 0.950 . S
H2720 C2730 0.950 . S
H2721 C2732 0.950 . S
H2722 C2734 0.950 . S
H2723 C2735 0.950 . S
C2724 H2716 0.950 . S
C2724 C2725 1.386 . S
C2724 C2726 1.391 . S
C2725 C2724 1.386 . S
C2725 C2729 1.393 . S
C2726 H2718 0.950 . S
C2726 C2724 1.391 . S
C2726 C2727 1.400 . S
C2727 C2726 1.400 . S
C2727 C2728 1.398 . S
C2727 C2733 1.491 . S
C2728 H2719 0.950 . S
C2728 C2727 1.398 . S
C2728 C2729 1.391 . S
C2729 H2717 0.950 . S
C2729 C2725 1.393 . S
C2729 C2728 1.391 . S
C2730 H2720 0.950 . S
C2730 C2731 1.386 . S
C2730 C2732 1.391 . S
C2731 C2730 1.386 . S
C2731 C2735 1.393 . S
C2732 H2721 0.950 . S
C2732 C2730 1.391 . S
C2732 C2733 1.400 . S
C2733 C2727 1.491 . S
C2733 C2732 1.400 . S
C2733 C2734 1.398 . S
C2734 H2722 0.950 . S
C2734 C2733 1.398 . S
C2734 C2735 1.391 . S
C2735 H2723 0.950 . S
C2735 C2731 1.393 . S
C2735 C2734 1.391 . S
H2736 C2744 0.950 . S
H2737 C2749 0.950 . S
H2738 C2746 0.950 . S
H2739 C2748 0.950 . S
H2740 C2750 0.950 . S
H2741 C2752 0.950 . S
H2742 C2754 0.950 . S
H2743 C2755 0.950 . S
C2744 H2736 0.950 . S
C2744 C2745 1.386 . S
C2744 C2746 1.391 . S
C2745 C2744 1.386 . S
C2745 C2749 1.393 . S
C2746 H2738 0.950 . S
C2746 C2744 1.391 . S
C2746 C2747 1.400 . S
C2747 C2746 1.400 . S
C2747 C2748 1.398 . S
C2747 C2753 1.491 . S
C2748 H2739 0.950 . S
C2748 C2747 1.398 . S
C2748 C2749 1.391 . S
C2749 H2737 0.950 . S
C2749 C2745 1.393 . S
C2749 C2748 1.391 . S
C2750 H2740 0.950 . S
C2750 C2751 1.386 . S
C2750 C2752 1.391 . S
C2751 C2750 1.386 . S
C2751 C2755 1.393 . S
C2752 H2741 0.950 . S
C2752 C2750 1.391 . S
C2752 C2753 1.400 . S
C2753 C2747 1.491 . S
C2753 C2752 1.400 . S
C2753 C2754 1.398 . S
C2754 H2742 0.950 . S
C2754 C2753 1.398 . S
C2754 C2755 1.391 . S
C2755 H2743 0.950 . S
C2755 C2751 1.393 . S
C2755 C2754 1.391 . S
H2756 C2764 0.950 . S
H2757 C2769 0.950 . S
H2758 C2766 0.950 . S
H2759 C2768 0.950 . S
H2760 C2770 0.950 . S
H2761 C2772 0.950 1_545 S
H2762 C2774 0.950 . S
H2763 C2775 0.950 . S
C2764 H2756 0.950 . S
C2764 C2765 1.386 . S
C2764 C2766 1.391 . S
C2765 C2764 1.386 . S
C2765 C2769 1.393 . S
C2766 H2758 0.950 . S
C2766 C2764 1.391 . S
C2766 C2767 1.400 . S
C2767 C2766 1.400 . S
C2767 C2768 1.398 . S
C2767 C2773 1.491 . S
C2768 H2759 0.950 . S
C2768 C2767 1.398 . S
C2768 C2769 1.391 . S
C2769 H2757 0.950 . S
C2769 C2765 1.393 . S
C2769 C2768 1.391 . S
C2770 H2760 0.950 . S
C2770 C2771 1.397 . S
C2770 C2772 1.391 1_545 S
C2771 C2770 1.397 . S
C2771 C2775 1.374 1_545 S
C2772 H2761 0.950 1_565 S
C2772 C2770 1.391 1_565 S
C2772 C2773 1.400 . S
C2773 C2767 1.491 . S
C2773 C2772 1.400 . S
C2773 C2774 1.398 . S
C2774 H2762 0.950 . S
C2774 C2773 1.398 . S
C2774 C2775 1.391 . S
C2775 H2763 0.950 . S
C2775 C2771 1.374 1_565 S
C2775 C2774 1.391 . S
H2776 C2784 0.950 . S
H2777 C2789 0.950 . S
H2778 C2786 0.950 . S
H2779 C2788 0.950 . S
H2780 C2790 0.950 . S
H2781 C2792 0.950 . S
H2782 C2794 0.950 . S
H2783 C2795 0.950 . S
C2784 H2776 0.950 . S
C2784 C2785 1.386 . S
C2784 C2786 1.391 . S
C2785 C2784 1.386 . S
C2785 C2789 1.393 . S
C2786 H2778 0.950 . S
C2786 C2784 1.391 . S
C2786 C2787 1.400 . S
C2787 C2786 1.400 . S
C2787 C2788 1.398 . S
C2787 C2793 1.491 . S
C2788 H2779 0.950 . S
C2788 C2787 1.398 . S
C2788 C2789 1.391 . S
C2789 H2777 0.950 . S
C2789 C2785 1.393 . S
C2789 C2788 1.391 . S
C2790 H2780 0.950 . S
C2790 C2791 1.386 . S
C2790 C2792 1.391 . S
C2791 C2790 1.386 . S
C2791 C2795 1.393 . S
C2792 H2781 0.950 . S
C2792 C2790 1.391 . S
C2792 C2793 1.400 . S
C2793 C2787 1.491 . S
C2793 C2792 1.400 . S
C2793 C2794 1.398 . S
C2794 H2782 0.950 . S
C2794 C2793 1.398 . S
C2794 C2795 1.391 . S
C2795 H2783 0.950 . S
C2795 C2791 1.393 . S
C2795 C2794 1.391 . S
H2796 C2804 0.967 . S
H2797 C2809 0.950 . S
H2798 C2806 0.950 . S
H2799 C2808 0.950 . S
H2800 C2810 0.950 . S
H2801 C2812 0.950 . S
H2802 C2814 0.950 . S
H2803 C2815 0.950 . S
C2804 H2796 0.967 . S
C2804 C2805 1.386 . S
C2804 C2806 1.391 . S
C2805 C2804 1.386 . S
C2805 C2809 1.393 . S
C2806 H2798 0.950 . S
C2806 C2804 1.391 . S
C2806 C2807 1.400 . S
C2807 C2806 1.400 . S
C2807 C2808 1.398 . S
C2807 C2813 1.491 . S
C2808 H2799 0.950 . S
C2808 C2807 1.398 . S
C2808 C2809 1.391 . S
C2809 H2797 0.950 . S
C2809 C2805 1.393 . S
C2809 C2808 1.391 . S
C2810 H2800 0.950 . S
C2810 C2811 1.386 . S
C2810 C2812 1.391 . S
C2811 C2810 1.386 . S
C2811 C2815 1.393 . S
C2812 H2801 0.950 . S
C2812 C2810 1.391 . S
C2812 C2813 1.400 . S
C2813 C2807 1.491 . S
C2813 C2812 1.400 . S
C2813 C2814 1.398 . S
C2814 H2802 0.950 . S
C2814 C2813 1.398 . S
C2814 C2815 1.391 . S
C2815 H2803 0.950 . S
C2815 C2811 1.393 . S
C2815 C2814 1.391 . S
H2816 C2824 0.950 . S
H2817 C2829 0.950 . S
H2818 C2826 0.950 . S
H2819 C2828 0.950 . S
H2820 C2830 0.950 . S
H2821 C2832 0.950 . S
H2822 C2834 0.950 . S
H2823 C2835 0.950 . S
C2824 H2816 0.950 . S
C2824 C2825 1.386 . S
C2824 C2826 1.391 . S
C2825 C2824 1.386 . S
C2825 C2829 1.393 . S
C2826 H2818 0.950 . S
C2826 C2824 1.391 . S
C2826 C2827 1.400 . S
C2827 C2826 1.400 . S
C2827 C2828 1.398 . S
C2827 C2833 1.491 . S
C2828 H2819 0.950 . S
C2828 C2827 1.398 . S
C2828 C2829 1.391 . S
C2829 H2817 0.950 . S
C2829 C2825 1.393 . S
C2829 C2828 1.391 . S
C2830 H2820 0.950 . S
C2830 C2831 1.386 . S
C2830 C2832 1.391 . S
C2831 C2830 1.386 . S
C2831 C2835 1.393 . S
C2832 H2821 0.950 . S
C2832 C2830 1.391 . S
C2832 C2833 1.400 . S
C2833 C2827 1.491 . S
C2833 C2832 1.400 . S
C2833 C2834 1.398 . S
C2834 H2822 0.950 . S
C2834 C2833 1.398 . S
C2834 C2835 1.391 . S
C2835 H2823 0.950 . S
C2835 C2831 1.393 . S
C2835 C2834 1.391 . S
H2836 C2844 0.950 . S
H2837 C2849 0.950 . S
H2838 C2846 0.950 . S
H2839 C2848 0.950 . S
H2840 C2850 0.950 . S
H2841 C2852 0.950 . S
H2842 C2854 0.981 . S
H2843 C2855 0.950 1_554 S
C2844 H2836 0.950 . S
C2844 C2845 1.386 . S
C2844 C2846 1.391 . S
C2845 C2844 1.386 . S
C2845 C2849 1.393 1_554 S
C2846 H2838 0.950 . S
C2846 C2844 1.391 . S
C2846 C2847 1.362 1_554 S
C2847 C2846 1.362 1_556 S
C2847 C2848 1.423 . S
C2847 C2853 1.505 . S
C2848 H2839 0.950 . S
C2848 C2847 1.423 . S
C2848 C2849 1.391 . S
C2849 H2837 0.950 . S
C2849 C2845 1.393 1_556 S
C2849 C2848 1.391 . S
C2850 H2840 0.950 . S
C2850 C2851 1.386 . S
C2850 C2852 1.391 . S
C2851 C2850 1.386 . S
C2851 C2855 1.393 . S
C2852 H2841 0.950 . S
C2852 C2850 1.391 . S
C2852 C2853 1.400 . S
C2853 C2847 1.505 . S
C2853 C2852 1.400 . S
C2853 C2854 1.379 1_556 S
C2854 H2842 0.981 . S
C2854 C2853 1.379 1_554 S
C2854 C2855 1.381 1_554 S
C2855 H2843 0.950 1_556 S
C2855 C2851 1.393 . S
C2855 C2854 1.381 1_556 S
H2856 C2864 0.950 . S
H2857 C2869 0.950 . S
H2858 C2866 0.950 . S
H2859 C2868 0.950 . S
H2860 C2870 0.950 . S
H2861 C2872 0.950 . S
H2862 C2874 0.950 . S
H2863 C2875 0.950 . S
C2864 H2856 0.950 . S
C2864 C2865 1.386 . S
C2864 C2866 1.391 . S
C2865 C2864 1.386 . S
C2865 C2869 1.393 . S
C2866 H2858 0.950 . S
C2866 C2864 1.391 . S
C2866 C2867 1.400 . S
C2867 C2866 1.400 . S
C2867 C2868 1.398 . S
C2867 C2873 1.491 . S
C2868 H2859 0.950 . S
C2868 C2867 1.398 . S
C2868 C2869 1.391 . S
C2869 H2857 0.950 . S
C2869 C2865 1.393 . S
C2869 C2868 1.391 . S
C2870 H2860 0.950 . S
C2870 C2871 1.386 . S
C2870 C2872 1.391 . S
C2871 C2870 1.386 . S
C2871 C2875 1.393 . S
C2872 H2861 0.950 . S
C2872 C2870 1.391 . S
C2872 C2873 1.400 . S
C2873 C2867 1.491 . S
C2873 C2872 1.400 . S
C2873 C2874 1.398 . S
C2874 H2862 0.950 . S
C2874 C2873 1.398 . S
C2874 C2875 1.391 . S
C2875 H2863 0.950 . S
C2875 C2871 1.393 . S
C2875 C2874 1.391 . S
H2876 C2884 0.950 . S
H2877 C2889 0.950 . S
H2878 C2886 0.950 . S
H2879 C2888 0.950 . S
H2880 C2890 0.950 . S
H2881 C2892 0.950 . S
H2882 C2894 0.950 . S
H2883 C2895 0.950 . S
C2884 H2876 0.950 . S
C2884 C2885 1.386 . S
C2884 C2886 1.391 . S
C2885 C2884 1.386 . S
C2885 C2889 1.393 . S
C2886 H2878 0.950 . S
C2886 C2884 1.391 . S
C2886 C2887 1.400 . S
C2887 C2886 1.400 . S
C2887 C2888 1.398 . S
C2887 C2893 1.491 . S
C2888 H2879 0.950 . S
C2888 C2887 1.398 . S
C2888 C2889 1.391 . S
C2889 H2877 0.950 . S
C2889 C2885 1.393 . S
C2889 C2888 1.391 . S
C2890 H2880 0.950 . S
C2890 C2891 1.386 . S
C2890 C2892 1.391 . S
C2891 C2890 1.386 . S
C2891 C2895 1.393 . S
C2892 H2881 0.950 . S
C2892 C2890 1.391 . S
C2892 C2893 1.400 . S
C2893 C2887 1.491 . S
C2893 C2892 1.400 . S
C2893 C2894 1.398 . S
C2894 H2882 0.950 . S
C2894 C2893 1.398 . S
C2894 C2895 1.391 . S
C2895 H2883 0.950 . S
C2895 C2891 1.393 . S
C2895 C2894 1.391 . S
C985 C109 2.186 . S
C991 C338 2.145 1_556 S
C1005 C61 1.824 . S
C1011 C395 2.065 . S
C1025 C74 1.180 . S
C1031 C418 1.171 . S
C1051 C472 1.406 . S
C1045 C96 1.423 . S
C1065 C25 1.223 1_455 S
C1071 C512 1.168 . S
C1091 C543 0.410 . S
C1085 C40 0.400 . S
C1111 C595 1.391 . S
C1105 C46 1.399 . S
C1125 C5 1.346 . S
C1131 C618 1.683 . S
C1151 C355 2.337 . S
C1145 C229 2.032 . S
C1165 C249 0.415 . S
C1171 C392 0.469 . S
C1191 C435 1.168 . S
C1185 C271 0.974 . S
C1211 C458 1.463 . S
C1205 C172 1.404 . S
C1225 C236 1.821 . S
C1231 C498 1.829 . S
C1251 C546 1.628 . S
C1245 C242 1.615 . S
C1271 C592 0.324 . S
C1265 C278 0.201 . S
C1291 C635 2.090 . S
C1285 C179 2.113 . S
C1311 C352 1.419 1_565 S
C1305 C159 1.165 . S
C1325 C285 1.624 1_554 S
C1331 C675 1.873 . S
C1351 C707 2.503 . S
C1345 C333 2.535 . S
C1371 C738 0.598 1_655 S
C1365 C320 0.587 . S
C1385 C123 1.409 . S
C1391 C632 1.340 . S
C1405 C138 1.575 . S
C1411 C432 1.547 . S
C1425 C326 2.335 . S
C1431 C795 2.329 . S
C1451 C818 0.531 . S
C1445 C298 0.565 . S
C1471 C347 2.144 . S
C1465 C67 2.103 . S
C1491 C826 1.999 . S
C1485 C110 1.999 . S
C1505 C88 1.165 . S
C1511 C427 1.175 . S
C1525 C75 1.148 . S
C1531 C783 1.324 . S
C1551 C503 1.216 . S
C1545 C11 1.201 . S
C1565 C47 0.688 . S
C1571 C712 0.402 . S
C1591 C586 1.213 . S
C1585 C32 1.115 . S
C1611 C867 1.746 . S
C1605 C26 1.803 . S
C1631 C346 2.446 . S
C1625 C152 2.457 . S
C1651 C823 0.505 . S
C1645 C319 0.494 . S
C1665 C124 1.144 . S
C1671 C426 1.137 . S
C1685 C284 1.457 . S
C1691 C787 1.460 . S
C1705 C145 1.698 . S
C1711 C507 1.819 . S
C1731 C715 1.528 . S
C1725 C312 1.519 . S
C1745 C117 0.699 1_565 S
C1751 C583 0.310 . S
C1765 C291 2.014 . S
C1771 C866 2.025 . S
C1785 C194 1.516 . S
C1791 C343 1.482 . S
C1805 C180 1.840 . S
C1811 C666 1.840 . S
C1825 C263 2.409 . S
C1831 C538 2.374 . S
C1845 C243 0.599 . S
C1851 C747 0.519 . S
C1871 C863 1.417 . S
C1865 C277 1.383 . S
C1885 C215 1.383 . S
C1891 C423 1.537 . S
C1911 C466 2.225 . S
C1905 C256 2.186 . S
C1931 C387 0.634 . S
C1925 C200 0.609 . S
C1945 C81 2.184 . S
C1951 C898 2.157 . S
C1971 C835 2.065 . S
C1965 C89 1.824 . S
C1985 C102 1.159 . S
C1991 C938 1.187 . S
C2005 C68 1.418 . S
C2011 C792 1.395 . S
C2025 C53 1.229 . S
C2031 C672 1.196 . S
C2051 C703 0.411 . S
C2045 C12 0.399 . S
C2071 C755 1.379 . S
C2065 C18 1.386 . S
C2091 C858 1.686 . S
C2085 C33 1.354 . S
C2111 C915 2.332 . S
C2105 C257 2.039 . S
C2125 C193 0.414 . S
C2131 C832 0.456 . S
C2151 C955 1.160 . S
C2145 C201 1.011 . S
C2171 C778 1.461 . S
C2165 C214 1.413 . S
C2191 C658 1.823 . S
C2185 C264 1.820 . S
C2205 C186 1.625 . S
C2211 C706 1.620 . S
C2231 C752 0.257 . S
C2225 C208 0.192 . S
C2245 C221 2.110 . S
C2251 C875 2.088 . S
C2271 C912 1.440 . S
C2265 C313 1.180 . S
C2285 C131 1.628 . S
C2291 C515 1.874 . S
C2311 C547 2.503 . S
C2305 C151 2.536 . S
C2331 C578 0.590 . S
C2325 C166 0.609 . S
C2351 C872 1.353 . S
C2345 C305 1.413 . S
C2365 C292 1.577 . S
C2371 C952 1.551 . S
C2391 C475 2.330 . S
C2385 C144 2.329 . S
C2411 C378 0.511 . S
C2405 C116 0.564 . S
C2425 C95 2.103 . S
C2431 C907 2.145 . S
C2451 C386 2.000 . S
C2445 C82 1.998 . S
C2465 C60 1.158 . S
C2471 C947 1.152 . S
C2485 C103 1.187 . S
C2491 C463 1.313 . S
C2505 C39 1.173 . S
C2511 C663 1.188 . S
C2531 C552 0.390 . S
C2525 C19 0.596 . S
C2545 C4 1.132 . S
C2551 C746 1.225 . S
C2565 C54 1.811 . S
C2571 C627 1.761 . S
C2591 C906 2.447 . S
C2585 C334 2.457 . S
C2605 C165 0.530 . S
C2611 C383 0.543 . S
C2631 C946 1.137 . S
C2625 C306 1.144 . S
C2645 C130 1.448 . S
C2651 C467 1.461 . S
C2665 C327 1.695 . S
C2671 C667 1.810 . S
C2691 C555 1.519 . S
C2685 C158 1.508 . S
C2705 C299 0.733 . S
C2711 C743 0.279 . S
C2731 C626 2.025 . S
C2725 C137 2.014 . S
C2751 C903 1.486 . S
C2745 C250 1.520 . S
C2771 C506 1.848 1_655 S
C2765 C222 1.840 . S
C2785 C235 2.412 . S
C2791 C698 2.375 . S
C2811 C587 0.518 . S
C2805 C187 0.607 . S
C2825 C207 1.382 . S
C2831 C623 1.416 . S
C2845 C173 1.382 . S
C2851 C943 1.533 . S
C2871 C786 2.227 . S
C2865 C228 2.186 1_565 S
C2891 C827 0.576 . S
C2885 C270 0.575 . S
