# Generated by pormake.
# Topology gar, (4,6)-cn, num edge types: 1
# Building blocks:
#     Node 0, Type 0, BuildingBlock: QUQFOY_clean_sbu_3, # of connection points: 4
#     Node 1, Type 0, BuildingBlock: QUQFOY_clean_sbu_3, # of connection points: 4
#     Node 2, Type 0, BuildingBlock: QUQFOY_clean_sbu_3, # of connection points: 4
#     Node 3, Type 0, BuildingBlock: QUQFOY_clean_sbu_3, # of connection points: 4
#     Node 4, Type 0, BuildingBlock: QUQFOY_clean_sbu_3, # of connection points: 4
#     Node 5, Type 0, BuildingBlock: QUQFOY_clean_sbu_3, # of connection points: 4
#     Node 6, Type 0, BuildingBlock: QUQFOY_clean_sbu_3, # of connection points: 4
#     Node 7, Type 0, BuildingBlock: QUQFOY_clean_sbu_3, # of connection points: 4
#     Node 8, Type 0, BuildingBlock: QUQFOY_clean_sbu_3, # of connection points: 4
#     Node 9, Type 0, BuildingBlock: QUQFOY_clean_sbu_3, # of connection points: 4
#     Node 10, Type 0, BuildingBlock: QUQFOY_clean_sbu_3, # of connection points: 4
#     Node 11, Type 0, BuildingBlock: QUQFOY_clean_sbu_3, # of connection points: 4
#     Node 12, Type 0, BuildingBlock: QUQFOY_clean_sbu_3, # of connection points: 4
#     Node 13, Type 0, BuildingBlock: QUQFOY_clean_sbu_3, # of connection points: 4
#     Node 14, Type 0, BuildingBlock: QUQFOY_clean_sbu_3, # of connection points: 4
#     Node 15, Type 0, BuildingBlock: QUQFOY_clean_sbu_3, # of connection points: 4
#     Node 16, Type 0, BuildingBlock: QUQFOY_clean_sbu_3, # of connection points: 4
#     Node 17, Type 0, BuildingBlock: QUQFOY_clean_sbu_3, # of connection points: 4
#     Node 18, Type 0, BuildingBlock: QUQFOY_clean_sbu_3, # of connection points: 4
#     Node 19, Type 0, BuildingBlock: QUQFOY_clean_sbu_3, # of connection points: 4
#     Node 20, Type 0, BuildingBlock: QUQFOY_clean_sbu_3, # of connection points: 4
#     Node 21, Type 0, BuildingBlock: QUQFOY_clean_sbu_3, # of connection points: 4
#     Node 22, Type 0, BuildingBlock: QUQFOY_clean_sbu_3, # of connection points: 4
#     Node 23, Type 0, BuildingBlock: QUQFOY_clean_sbu_3, # of connection points: 4
#     Node 24, Type 1, BuildingBlock: PAMTOO_clean_sbu_0, # of connection points: 6
#     Node 25, Type 1, BuildingBlock: PAMTOO_clean_sbu_0, # of connection points: 6
#     Node 26, Type 1, BuildingBlock: PAMTOO_clean_sbu_0, # of connection points: 6
#     Node 27, Type 1, BuildingBlock: PAMTOO_clean_sbu_0, # of connection points: 6
#     Node 28, Type 1, BuildingBlock: PAMTOO_clean_sbu_0, # of connection points: 6
#     Node 29, Type 1, BuildingBlock: PAMTOO_clean_sbu_0, # of connection points: 6
#     Node 30, Type 1, BuildingBlock: PAMTOO_clean_sbu_0, # of connection points: 6
#     Node 31, Type 1, BuildingBlock: PAMTOO_clean_sbu_0, # of connection points: 6
#     Node 32, Type 1, BuildingBlock: PAMTOO_clean_sbu_0, # of connection points: 6
#     Node 33, Type 1, BuildingBlock: PAMTOO_clean_sbu_0, # of connection points: 6
#     Node 34, Type 1, BuildingBlock: PAMTOO_clean_sbu_0, # of connection points: 6
#     Node 35, Type 1, BuildingBlock: PAMTOO_clean_sbu_0, # of connection points: 6
#     Node 36, Type 1, BuildingBlock: PAMTOO_clean_sbu_0, # of connection points: 6
#     Node 37, Type 1, BuildingBlock: PAMTOO_clean_sbu_0, # of connection points: 6
#     Node 38, Type 1, BuildingBlock: PAMTOO_clean_sbu_0, # of connection points: 6
#     Node 39, Type 1, BuildingBlock: PAMTOO_clean_sbu_0, # of connection points: 6
#     Edge 40, Type (0, 1), BuildingBlock: XIVTED_clean_linker_0, # of connection points: 2
#     Edge 41, Type (0, 1), BuildingBlock: XIVTED_clean_linker_0, # of connection points: 2
#     Edge 42, Type (0, 1), BuildingBlock: XIVTED_clean_linker_0, # of connection points: 2
#     Edge 43, Type (0, 1), BuildingBlock: XIVTED_clean_linker_0, # of connection points: 2
#     Edge 44, Type (0, 1), BuildingBlock: XIVTED_clean_linker_0, # of connection points: 2
#     Edge 45, Type (0, 1), BuildingBlock: XIVTED_clean_linker_0, # of connection points: 2
#     Edge 46, Type (0, 1), BuildingBlock: XIVTED_clean_linker_0, # of connection points: 2
#     Edge 47, Type (0, 1), BuildingBlock: XIVTED_clean_linker_0, # of connection points: 2
#     Edge 48, Type (0, 1), BuildingBlock: XIVTED_clean_linker_0, # of connection points: 2
#     Edge 49, Type (0, 1), BuildingBlock: XIVTED_clean_linker_0, # of connection points: 2
#     Edge 50, Type (0, 1), BuildingBlock: XIVTED_clean_linker_0, # of connection points: 2
#     Edge 51, Type (0, 1), BuildingBlock: XIVTED_clean_linker_0, # of connection points: 2
#     Edge 52, Type (0, 1), BuildingBlock: XIVTED_clean_linker_0, # of connection points: 2
#     Edge 53, Type (0, 1), BuildingBlock: XIVTED_clean_linker_0, # of connection points: 2
#     Edge 54, Type (0, 1), BuildingBlock: XIVTED_clean_linker_0, # of connection points: 2
#     Edge 55, Type (0, 1), BuildingBlock: XIVTED_clean_linker_0, # of connection points: 2
#     Edge 56, Type (0, 1), BuildingBlock: XIVTED_clean_linker_0, # of connection points: 2
#     Edge 57, Type (0, 1), BuildingBlock: XIVTED_clean_linker_0, # of connection points: 2
#     Edge 58, Type (0, 1), BuildingBlock: XIVTED_clean_linker_0, # of connection points: 2
#     Edge 59, Type (0, 1), BuildingBlock: XIVTED_clean_linker_0, # of connection points: 2
#     Edge 60, Type (0, 1), BuildingBlock: XIVTED_clean_linker_0, # of connection points: 2
#     Edge 61, Type (0, 1), BuildingBlock: XIVTED_clean_linker_0, # of connection points: 2
#     Edge 62, Type (0, 1), BuildingBlock: XIVTED_clean_linker_0, # of connection points: 2
#     Edge 63, Type (0, 1), BuildingBlock: XIVTED_clean_linker_0, # of connection points: 2
#     Edge 64, Type (0, 1), BuildingBlock: XIVTED_clean_linker_0, # of connection points: 2
#     Edge 65, Type (0, 1), BuildingBlock: XIVTED_clean_linker_0, # of connection points: 2
#     Edge 66, Type (0, 1), BuildingBlock: XIVTED_clean_linker_0, # of connection points: 2
#     Edge 67, Type (0, 1), BuildingBlock: XIVTED_clean_linker_0, # of connection points: 2
#     Edge 68, Type (0, 1), BuildingBlock: XIVTED_clean_linker_0, # of connection points: 2
#     Edge 69, Type (0, 1), BuildingBlock: XIVTED_clean_linker_0, # of connection points: 2
#     Edge 70, Type (0, 1), BuildingBlock: XIVTED_clean_linker_0, # of connection points: 2
#     Edge 71, Type (0, 1), BuildingBlock: XIVTED_clean_linker_0, # of connection points: 2
#     Edge 72, Type (0, 1), BuildingBlock: XIVTED_clean_linker_0, # of connection points: 2
#     Edge 73, Type (0, 1), BuildingBlock: XIVTED_clean_linker_0, # of connection points: 2
#     Edge 74, Type (0, 1), BuildingBlock: XIVTED_clean_linker_0, # of connection points: 2
#     Edge 75, Type (0, 1), BuildingBlock: XIVTED_clean_linker_0, # of connection points: 2
#     Edge 76, Type (0, 1), BuildingBlock: XIVTED_clean_linker_0, # of connection points: 2
#     Edge 77, Type (0, 1), BuildingBlock: XIVTED_clean_linker_0, # of connection points: 2
#     Edge 78, Type (0, 1), BuildingBlock: XIVTED_clean_linker_0, # of connection points: 2
#     Edge 79, Type (0, 1), BuildingBlock: XIVTED_clean_linker_0, # of connection points: 2
#     Edge 80, Type (0, 1), BuildingBlock: XIVTED_clean_linker_0, # of connection points: 2
#     Edge 81, Type (0, 1), BuildingBlock: XIVTED_clean_linker_0, # of connection points: 2
#     Edge 82, Type (0, 1), BuildingBlock: XIVTED_clean_linker_0, # of connection points: 2
#     Edge 83, Type (0, 1), BuildingBlock: XIVTED_clean_linker_0, # of connection points: 2
#     Edge 84, Type (0, 1), BuildingBlock: XIVTED_clean_linker_0, # of connection points: 2
#     Edge 85, Type (0, 1), BuildingBlock: XIVTED_clean_linker_0, # of connection points: 2
#     Edge 86, Type (0, 1), BuildingBlock: XIVTED_clean_linker_0, # of connection points: 2
#     Edge 87, Type (0, 1), BuildingBlock: XIVTED_clean_linker_0, # of connection points: 2
#     Edge 88, Type (0, 1), BuildingBlock: XIVTED_clean_linker_0, # of connection points: 2
#     Edge 89, Type (0, 1), BuildingBlock: XIVTED_clean_linker_0, # of connection points: 2
#     Edge 90, Type (0, 1), BuildingBlock: XIVTED_clean_linker_0, # of connection points: 2
#     Edge 91, Type (0, 1), BuildingBlock: XIVTED_clean_linker_0, # of connection points: 2
#     Edge 92, Type (0, 1), BuildingBlock: XIVTED_clean_linker_0, # of connection points: 2
#     Edge 93, Type (0, 1), BuildingBlock: XIVTED_clean_linker_0, # of connection points: 2
#     Edge 94, Type (0, 1), BuildingBlock: XIVTED_clean_linker_0, # of connection points: 2
#     Edge 95, Type (0, 1), BuildingBlock: XIVTED_clean_linker_0, # of connection points: 2
#     Edge 96, Type (0, 1), BuildingBlock: XIVTED_clean_linker_0, # of connection points: 2
#     Edge 97, Type (0, 1), BuildingBlock: XIVTED_clean_linker_0, # of connection points: 2
#     Edge 98, Type (0, 1), BuildingBlock: XIVTED_clean_linker_0, # of connection points: 2
#     Edge 99, Type (0, 1), BuildingBlock: XIVTED_clean_linker_0, # of connection points: 2
#     Edge 100, Type (0, 1), BuildingBlock: XIVTED_clean_linker_0, # of connection points: 2
#     Edge 101, Type (0, 1), BuildingBlock: XIVTED_clean_linker_0, # of connection points: 2
#     Edge 102, Type (0, 1), BuildingBlock: XIVTED_clean_linker_0, # of connection points: 2
#     Edge 103, Type (0, 1), BuildingBlock: XIVTED_clean_linker_0, # of connection points: 2
#     Edge 104, Type (0, 1), BuildingBlock: XIVTED_clean_linker_0, # of connection points: 2
#     Edge 105, Type (0, 1), BuildingBlock: XIVTED_clean_linker_0, # of connection points: 2
#     Edge 106, Type (0, 1), BuildingBlock: XIVTED_clean_linker_0, # of connection points: 2
#     Edge 107, Type (0, 1), BuildingBlock: XIVTED_clean_linker_0, # of connection points: 2
#     Edge 108, Type (0, 1), BuildingBlock: XIVTED_clean_linker_0, # of connection points: 2
#     Edge 109, Type (0, 1), BuildingBlock: XIVTED_clean_linker_0, # of connection points: 2
#     Edge 110, Type (0, 1), BuildingBlock: XIVTED_clean_linker_0, # of connection points: 2
#     Edge 111, Type (0, 1), BuildingBlock: XIVTED_clean_linker_0, # of connection points: 2
#     Edge 112, Type (0, 1), BuildingBlock: XIVTED_clean_linker_0, # of connection points: 2
#     Edge 113, Type (0, 1), BuildingBlock: XIVTED_clean_linker_0, # of connection points: 2
#     Edge 114, Type (0, 1), BuildingBlock: XIVTED_clean_linker_0, # of connection points: 2
#     Edge 115, Type (0, 1), BuildingBlock: XIVTED_clean_linker_0, # of connection points: 2
#     Edge 116, Type (0, 1), BuildingBlock: XIVTED_clean_linker_0, # of connection points: 2
#     Edge 117, Type (0, 1), BuildingBlock: XIVTED_clean_linker_0, # of connection points: 2
#     Edge 118, Type (0, 1), BuildingBlock: XIVTED_clean_linker_0, # of connection points: 2
#     Edge 119, Type (0, 1), BuildingBlock: XIVTED_clean_linker_0, # of connection points: 2
#     Edge 120, Type (0, 1), BuildingBlock: XIVTED_clean_linker_0, # of connection points: 2
#     Edge 121, Type (0, 1), BuildingBlock: XIVTED_clean_linker_0, # of connection points: 2
#     Edge 122, Type (0, 1), BuildingBlock: XIVTED_clean_linker_0, # of connection points: 2
#     Edge 123, Type (0, 1), BuildingBlock: XIVTED_clean_linker_0, # of connection points: 2
#     Edge 124, Type (0, 1), BuildingBlock: XIVTED_clean_linker_0, # of connection points: 2
#     Edge 125, Type (0, 1), BuildingBlock: XIVTED_clean_linker_0, # of connection points: 2
#     Edge 126, Type (0, 1), BuildingBlock: XIVTED_clean_linker_0, # of connection points: 2
#     Edge 127, Type (0, 1), BuildingBlock: XIVTED_clean_linker_0, # of connection points: 2
#     Edge 128, Type (0, 1), BuildingBlock: XIVTED_clean_linker_0, # of connection points: 2
#     Edge 129, Type (0, 1), BuildingBlock: XIVTED_clean_linker_0, # of connection points: 2
#     Edge 130, Type (0, 1), BuildingBlock: XIVTED_clean_linker_0, # of connection points: 2
#     Edge 131, Type (0, 1), BuildingBlock: XIVTED_clean_linker_0, # of connection points: 2
#     Edge 132, Type (0, 1), BuildingBlock: XIVTED_clean_linker_0, # of connection points: 2
#     Edge 133, Type (0, 1), BuildingBlock: XIVTED_clean_linker_0, # of connection points: 2
#     Edge 134, Type (0, 1), BuildingBlock: XIVTED_clean_linker_0, # of connection points: 2
#     Edge 135, Type (0, 1), BuildingBlock: XIVTED_clean_linker_0, # of connection points: 2
# Relax obj value: 0.142
# Max RMSD: 0.270
# Mean RMSD: 0.154
data_MOF--net-gar--node1-QUQFOY_clean_sbu_3--node2-PAMTOO_clean_sbu_0--edge1-XIVTED_clean_linker_0
_symmetry_space_group_name_H-M    P1
_symmetry_Int_Tables_number       1
_symmetry_cell_setting            triclinic
loop_
_symmetry_equiv_pos_as_xyz
'x, y, z'
_cell_length_a     60.507746
_cell_length_b     61.888284
_cell_length_c     59.065944
_cell_angle_alpha  97.282801
_cell_angle_beta   95.686624
_cell_angle_gamma 105.07386
loop_
_atom_site_label
_atom_site_type_symbol
_atom_site_fract_x
_atom_site_fract_y
_atom_site_fract_z
_atom_type_partial_charge
C0 C 0.00181 0.31794 0.33219 0.0
O1 O 0.01538 0.33047 0.32108 0.0
Cd2 Cd 0.05627 0.34383 0.33466 0.0
O3 O 0.01034 0.31072 0.34946 0.0
Cd4 Cd 0.05159 0.31483 0.36935 0.0
C5 C 0.05616 0.37088 0.38827 0.0
O6 O 0.07514 0.31333 0.3362 0.0
O7 O 0.09459 0.32453 0.36999 0.0
O8 O 0.03911 0.27426 0.37396 0.0
C9 C 0.09466 0.31808 0.34874 0.0
O10 O 0.06005 0.37363 0.3679 0.0
C11 C 0.04514 0.27763 0.39563 0.0
O12 O 0.05198 0.35106 0.39366 0.0
O13 O 0.05403 0.29811 0.40502 0.0
C14 C 0.97486 0.75387 0.72281 0.0
O15 O 0.98548 0.74335 0.73511 0.0
Cd16 Cd 0.01957 0.73382 0.72297 0.0
O17 O 0.98314 0.76029 0.7049 0.0
Cd18 Cd 0.02023 0.75882 0.68693 0.0
C19 C 0.00765 0.70189 0.67001 0.0
O20 O 0.05247 0.76556 0.72026 0.0
O21 O 0.05827 0.75062 0.68725 0.0
O22 O 0.02904 0.79882 0.68047 0.0
C23 C 0.06658 0.75961 0.70785 0.0
O24 O 0.01239 0.70152 0.69142 0.0
C25 C 0.02538 0.79444 0.65862 0.0
O26 O 0.00714 0.72052 0.66322 0.0
O27 O 0.01938 0.77361 0.64988 0.0
C28 C 0.50214 0.8162 0.83063 0.0
O29 O 0.51569 0.82905 0.81978 0.0
Cd30 Cd 0.55672 0.84148 0.83272 0.0
O31 O 0.51067 0.80851 0.84757 0.0
Cd32 Cd 0.55191 0.81292 0.86777 0.0
C33 C 0.55672 0.86919 0.88594 0.0
O34 O 0.57523 0.81067 0.8347 0.0
O35 O 0.59503 0.8234 0.86817 0.0
O36 O 0.53963 0.77247 0.87309 0.0
C37 C 0.59488 0.81606 0.84708 0.0
O38 O 0.56098 0.87169 0.86561 0.0
C39 C 0.54568 0.77617 0.89477 0.0
O40 O 0.55214 0.84943 0.89153 0.0
O41 O 0.55453 0.79676 0.90383 0.0
C42 C 0.47152 0.24709 0.22317 0.0
O43 O 0.48032 0.23349 0.23283 0.0
Cd44 Cd 0.51666 0.22685 0.22324 0.0
O45 O 0.48185 0.25712 0.20793 0.0
Cd46 Cd 0.51867 0.25621 0.18935 0.0
C47 C 0.50797 0.19881 0.16949 0.0
O48 O 0.54962 0.25981 0.22383 0.0
O49 O 0.55918 0.25648 0.18961 0.0
O50 O 0.52411 0.29639 0.18404 0.0
C51 C 0.56547 0.25963 0.21113 0.0
O52 O 0.51158 0.19693 0.19062 0.0
C53 C 0.52158 0.29258 0.16216 0.0
O54 O 0.5078 0.21806 0.16396 0.0
O55 O 0.51753 0.27201 0.15295 0.0
C56 C 0.03255 0.78957 0.14661 0.0
O57 O 0.04682 0.78117 0.15716 0.0
Cd58 Cd 0.08369 0.77968 0.14921 0.0
O59 O 0.03759 0.79947 0.1292 0.0
Cd60 Cd 0.07179 0.8093 0.10551 0.0
C61 C 0.06545 0.75005 0.09279 0.0
O62 O 0.09825 0.81634 0.14093 0.0
O63 O 0.116 0.81671 0.11157 0.0
O64 O 0.05591 0.84334 0.10386 0.0
C65 C 0.1173 0.81835 0.13331 0.0
O66 O 0.07284 0.75195 0.11411 0.0
C67 C 0.06382 0.84974 0.08596 0.0
O68 O 0.06267 0.76743 0.08409 0.0
O69 O 0.07516 0.83735 0.07631 0.0
C70 C 0.45064 0.76372 0.3989 0.0
O71 O 0.46469 0.77691 0.38876 0.0
Cd72 Cd 0.50505 0.79318 0.39864 0.0
O73 O 0.45761 0.7566 0.41711 0.0
Cd74 Cd 0.49744 0.76142 0.44171 0.0
C75 C 0.50635 0.82132 0.45391 0.0
O76 O 0.51738 0.76223 0.40833 0.0
O77 O 0.54046 0.77305 0.44006 0.0
O78 O 0.49429 0.71997 0.43998 0.0
C79 C 0.53798 0.76839 0.41824 0.0
O80 O 0.50968 0.82117 0.43294 0.0
C81 C 0.49624 0.71881 0.46134 0.0
O82 O 0.50051 0.80261 0.46215 0.0
O83 O 0.49738 0.7372 0.47451 0.0
C84 C 0.53072 0.28777 0.64826 0.0
O85 O 0.54558 0.27988 0.65856 0.0
Cd86 Cd 0.5822 0.2781 0.6499 0.0
O87 O 0.53495 0.29738 0.63051 0.0
Cd88 Cd 0.56882 0.307 0.60652 0.0
C89 C 0.56288 0.24766 0.59414 0.0
O90 O 0.59724 0.31415 0.64041 0.0
O91 O 0.6125 0.31174 0.60947 0.0
O92 O 0.56542 0.347 0.60886 0.0
C93 C 0.61538 0.31478 0.63137 0.0
O94 O 0.57083 0.24973 0.61533 0.0
C95 C 0.56203 0.34805 0.58751 0.0
O96 O 0.55968 0.26494 0.58551 0.0
O97 O 0.56164 0.33002 0.57415 0.0
C98 C 0.95644 0.26845 0.89669 0.0
O99 O 0.97308 0.28109 0.88891 0.0
Cd100 Cd 0.01254 0.29464 0.90373 0.0
O101 O 0.95995 0.26049 0.91543 0.0
Cd102 Cd 0.99738 0.26327 0.94369 0.0
C103 C 0.00866 0.323 0.95707 0.0
O104 O 0.02101 0.26173 0.9133 0.0
O105 O 0.04103 0.27565 0.94635 0.0
O106 O 0.99195 0.22144 0.94163 0.0
C107 C 0.04068 0.26824 0.92523 0.0
O108 O 0.01523 0.32288 0.93724 0.0
C109 C 0.99343 0.22008 0.96295 0.0
O110 O -7e-05 0.3042 0.96425 0.0
O111 O 0.99495 0.23854 0.9762 0.0
C112 C 0.42869 0.049 0.32764 0.0
O113 O 0.43891 0.04334 0.31102 0.0
Cd114 Cd 0.42281 0.03073 0.27184 0.0
O115 O 0.40755 0.04913 0.32431 0.0
Cd116 Cd 0.37685 0.04159 0.29057 0.0
C117 C 0.37801 0.98681 0.28077 0.0
O118 O 0.40228 0.05762 0.26496 0.0
O119 O 0.36881 0.03846 0.24794 0.0
O120 O 0.36146 0.0714 0.30801 0.0
C121 C 0.38885 0.05041 0.24624 0.0
O122 O 0.39667 0.99294 0.27206 0.0
C123 C 0.34052 0.05949 0.30354 0.0
O124 O 0.36854 0.00134 0.28959 0.0
O125 O 0.33672 0.0392 0.29361 0.0
C126 C 0.30966 0.16385 0.54193 0.0
O127 O 0.29287 0.15451 0.55191 0.0
Cd128 Cd 0.25435 0.15722 0.54707 0.0
O129 O 0.30758 0.17804 0.5284 0.0
Cd130 Cd 0.27573 0.19582 0.51627 0.0
C131 C 0.26606 0.2128 0.57154 0.0
O132 O 0.24813 0.15873 0.50731 0.0
O133 O 0.23277 0.18593 0.5052 0.0
O134 O 0.29422 0.20149 0.48085 0.0
C135 C 0.23007 0.16474 0.50256 0.0
O136 O 0.25483 0.19224 0.57107 0.0
C137 C 0.2885 0.21941 0.47799 0.0
O138 O 0.27746 0.21878 0.55517 0.0
O139 O 0.27807 0.22701 0.49344 0.0
C140 C 0.09437 0.04161 0.82695 0.0
O141 O 0.0825 0.05047 0.81393 0.0
Cd142 Cd 0.09207 0.06172 0.77802 0.0
O143 O 0.11223 0.03666 0.82044 0.0
Cd144 Cd 0.131 0.03901 0.78364 0.0
C145 C 0.14763 0.09604 0.79252 0.0
O146 O 0.09788 0.03126 0.75221 0.0
O147 O 0.13129 0.04863 0.74447 0.0
O148 O 0.1357 0.00035 0.77981 0.0
C149 C 0.11016 0.03893 0.73724 0.0
O150 O 0.12648 0.09409 0.78562 0.0
C151 C 0.15759 0.00649 0.7812 0.0
O152 O 0.15436 0.07856 0.7953 0.0
O153 O 0.16713 0.02769 0.78435 0.0
C154 C 0.30799 0.94771 0.98714 0.0
O155 O 0.29526 0.95842 0.97774 0.0
Cd156 Cd 0.25447 0.9485 0.9785 0.0
O157 O 0.29931 0.93108 -0.0028 0.0
Cd158 Cd 0.26181 0.90973 0.0064 0.0
C159 C 0.2402 0.89464 0.94957 0.0
O160 O 0.25365 0.94473 0.01862 0.0
O161 O 0.22667 0.91501 0.0216 0.0
O162 O 0.28568 0.90237 0.03853 0.0
C163 C 0.23469 0.9364 0.02569 0.0
O164 O 0.2396 0.91492 0.9487 0.0
C165 C 0.27502 0.88146 0.03615 0.0
O166 O 0.24778 0.88922 0.9682 0.0
O167 O 0.25795 0.87398 0.02027 0.0
C168 C 0.33107 0.42794 0.04584 0.0
O169 O 0.31974 0.43788 0.03352 0.0
Cd170 Cd 0.28154 0.42319 0.01539 0.0
O171 O 0.32157 0.40858 0.05124 0.0
Cd172 Cd 0.28112 0.38158 0.04758 0.0
C173 C 0.2853 0.37011 0.98983 0.0
O174 O 0.26516 0.41261 0.048 0.0
O175 O 0.23878 0.38113 0.04014 0.0
O176 O 0.29036 0.38285 0.08921 0.0
C177 C 0.24392 0.40262 0.04367 0.0
O178 O 0.28442 0.39039 0.98924 0.0
C179 C 0.28199 0.36189 0.08963 0.0
O180 O 0.28422 0.36177 0.00858 0.0
O181 O 0.27366 0.34945 0.07021 0.0
C182 C 0.81608 0.10978 0.03856 0.0
O183 O 0.80728 0.10101 0.05503 0.0
Cd184 Cd 0.77898 0.11291 0.07439 0.0
O185 O 0.8114 0.12732 0.03254 0.0
Cd186 Cd 0.78639 0.15128 0.04492 0.0
C187 C 0.80592 0.1666 0.10145 0.0
O188 O 0.75365 0.1187 0.04343 0.0
O189 O 0.74838 0.15075 0.05695 0.0
O190 O 0.77992 0.15658 0.00511 0.0
C191 C 0.73984 0.12979 0.04953 0.0
O192 O 0.79567 0.14631 0.10332 0.0
C193 C 0.78434 0.17798 0.00928 0.0
O194 O 0.8072 0.17258 0.08171 0.0
O195 O 0.79067 0.18724 0.03016 0.0
C196 C 0.11278 0.5265 0.26506 0.0
O197 O 0.10231 0.52925 0.24637 0.0
Cd198 Cd 0.11618 0.5274 0.21009 0.0
O199 O 0.13213 0.5218 0.26561 0.0
Cd200 Cd 0.16009 0.51555 0.23941 0.0
C201 C 0.16641 0.56971 0.22939 0.0
O202 O 0.13073 0.49514 0.20908 0.0
O203 O 0.16427 0.50373 0.19843 0.0
O204 O 0.16936 0.4882 0.26223 0.0
C205 C 0.14279 0.49433 0.19293 0.0
O206 O 0.14717 0.56314 0.21613 0.0
C207 C 0.1911 0.49677 0.2642 0.0
O208 O 0.17394 0.55602 0.24026 0.0
O209 O 0.19827 0.51387 0.25435 0.0
C210 C 0.83307 0.92964 0.54369 0.0
O211 O 0.82162 0.93996 0.532 0.0
Cd212 Cd 0.78312 0.92571 0.51461 0.0
O213 O 0.82355 0.91015 0.54882 0.0
Cd214 Cd 0.7828 0.88351 0.54551 0.0
C215 C 0.78574 0.87278 0.48749 0.0
O216 O 0.76712 0.91497 0.54743 0.0
O217 O 0.74064 0.8836 0.53881 0.0
O218 O 0.79332 0.88333 0.58671 0.0
C219 C 0.74584 0.90505 0.54316 0.0
O220 O 0.78505 0.89318 0.48741 0.0
C221 C 0.78368 0.86252 0.5868 0.0
O222 O 0.78498 0.86414 0.50606 0.0
O223 O 0.77409 0.85078 0.56736 0.0
C224 C 0.97825 0.02966 0.31054 0.0
O225 O 0.98771 0.01971 0.29579 0.0
Cd226 Cd 0.97426 0.01177 0.25505 0.0
O227 O 0.9614 0.03727 0.30391 0.0
Cd228 Cd 0.93868 0.03847 0.26607 0.0
C229 C 0.91903 0.98095 0.25703 0.0
O230 O 0.96942 0.04532 0.24076 0.0
O231 O 0.93439 0.03373 0.22363 0.0
O232 O 0.93519 0.0769 0.27936 0.0
C233 C 0.95569 0.04108 0.22204 0.0
O234 O 0.93858 0.98085 0.25082 0.0
C235 C 0.91322 0.07117 0.2759 0.0
O236 O 0.91501 -0.00046 0.26461 0.0
O237 O 0.90333 0.05048 0.26798 0.0
C238 C 0.31662 0.60649 0.53408 0.0
O239 O 0.31026 0.59788 0.55157 0.0
Cd240 Cd 0.28372 0.60859 0.57445 0.0
O241 O 0.31018 0.62338 0.52857 0.0
Cd242 Cd 0.28472 0.64559 0.54429 0.0
C243 C 0.30946 0.66316 0.59941 0.0
O244 O 0.25418 0.61182 0.54611 0.0
O245 O 0.24812 0.64328 0.56027 0.0
O246 O 0.27231 0.65044 0.50533 0.0
C247 C 0.24027 0.62212 0.55365 0.0
O248 O 0.30129 0.64272 0.60221 0.0
C249 C 0.277 0.67186 0.50956 0.0
O250 O 0.30772 0.66865 0.57944 0.0
O251 O 0.28609 0.68126 0.52989 0.0
C252 C 0.47707 0.52762 0.81174 0.0
O253 O 0.48708 0.51766 0.79755 0.0
Cd254 Cd 0.47428 0.50889 0.75668 0.0
O255 O 0.46019 0.53483 0.80436 0.0
Cd256 Cd 0.43844 0.53481 0.76555 0.0
C257 C 0.41945 0.47753 0.75857 0.0
O258 O 0.46957 0.54168 0.74053 0.0
O259 O 0.43472 0.52824 0.7232 0.0
O260 O 0.43343 0.57285 0.77777 0.0
C261 C 0.45591 0.53646 0.72169 0.0
O262 O 0.43905 0.47743 0.7525 0.0
C263 C 0.41156 0.56658 0.77255 0.0
O264 O 0.41521 0.49615 0.76552 0.0
O265 O 0.4025 0.54582 0.76433 0.0
C266 C 0.61726 0.03021 0.76143 0.0
O267 O 0.60748 0.03363 0.7427 0.0
Cd268 Cd 0.62132 0.03141 0.70649 0.0
O269 O 0.63637 0.02501 0.7623 0.0
Cd270 Cd 0.6643 0.01957 0.73564 0.0
C271 C 0.6708 0.07374 0.72579 0.0
O272 O 0.63454 -0.00169 0.70589 0.0
O273 O 0.66752 0.0077 0.69427 0.0
O274 O 0.67579 0.99326 0.75871 0.0
C275 C 0.64619 -0.00264 0.68945 0.0
O276 O 0.65231 0.06708 0.71145 0.0
C277 C 0.69732 0.00184 0.75877 0.0
O278 O 0.67761 0.06017 0.7374 0.0
O279 O 0.70324 0.01849 0.74804 0.0
C280 C 0.8066 0.65781 0.0373 0.0
O281 O 0.78945 0.64602 0.04517 0.0
Cd282 Cd 0.75053 0.64707 0.04108 0.0
O283 O 0.80449 0.67334 0.0255 0.0
Cd284 Cd 0.77191 0.69001 0.01272 0.0
C285 C 0.76132 0.70269 0.06864 0.0
O286 O 0.74433 0.6534 0.00304 0.0
O287 O 0.72911 0.68094 0.00243 0.0
O288 O 0.78493 0.69153 0.97467 0.0
C289 C 0.72628 0.6597 -0.0007 0.0
O290 O 0.75267 0.68136 0.06682 0.0
C291 C 0.78449 0.71172 0.97334 0.0
O292 O 0.77109 0.71127 0.05229 0.0
O293 O 0.77955 0.72262 0.991 0.0
C294 C 0.92767 0.55233 0.83034 0.0
O295 O 0.93838 0.54842 0.81352 0.0
Cd296 Cd 0.92302 0.53741 0.77412 0.0
O297 O 0.90633 0.55183 0.82708 0.0
Cd298 Cd 0.87553 0.54635 0.79353 0.0
C299 C 0.87747 0.492 0.77986 0.0
O300 O 0.90105 0.56322 0.76848 0.0
O301 O 0.86721 0.54539 0.75129 0.0
O302 O 0.86215 0.57725 0.81169 0.0
C303 C 0.88757 0.55666 0.74972 0.0
O304 O 0.89712 0.49944 0.77334 0.0
C305 C 0.84098 0.56607 0.80871 0.0
O306 O 0.86649 0.50536 0.78836 0.0
O307 O 0.83602 0.54548 0.79928 0.0
C308 C 0.80774 0.45274 0.48236 0.0
O309 O 0.79548 0.46465 0.47444 0.0
Cd310 Cd 0.75507 0.45654 0.47737 0.0
O311 O 0.79879 0.43592 0.49206 0.0
Cd312 Cd 0.76183 0.41548 0.50306 0.0
C313 C 0.73652 0.40301 0.44711 0.0
O314 O 0.75679 0.45137 0.51733 0.0
O315 O 0.73019 0.42294 0.5237 0.0
O316 O 0.78779 0.40553 0.53146 0.0
C317 C 0.73892 0.44425 0.52659 0.0
O318 O 0.73784 0.42384 0.44699 0.0
C319 C 0.77588 0.38504 0.52948 0.0
O320 O 0.74395 0.39645 0.46512 0.0
O321 O 0.75717 0.37896 0.51561 0.0
C322 C 0.59686 0.54631 0.32864 0.0
O323 O 0.58478 0.5551 0.31576 0.0
Cd324 Cd 0.59417 0.56662 0.27992 0.0
O325 O 0.61478 0.54163 0.32199 0.0
Cd326 Cd 0.63342 0.54436 0.28518 0.0
C327 C 0.64942 0.60144 0.29477 0.0
O328 O 0.59993 0.53603 0.25411 0.0
O329 O 0.63306 0.55312 0.24556 0.0
O330 O 0.63886 0.50605 0.28271 0.0
C331 C 0.61186 0.54336 0.23877 0.0
O332 O 0.62822 0.59939 0.288 0.0
C333 C 0.6607 0.51248 0.28363 0.0
O334 O 0.65636 0.58398 0.29703 0.0
O335 O 0.66985 0.53368 0.28567 0.0
Dy336 Dy 0.05275 0.04972 0.03773 0.0
Dy337 Dy 0.00202 0.02068 0.01264 0.0
C338 C 0.04463 0.03212 0.98431 0.0
O339 O 0.03947 0.07445 0.01893 0.0
O340 O 0.00061 0.05739 0.01575 0.0
O341 O 0.08808 0.06902 0.03746 0.0
O342 O 0.07424 0.06651 0.06966 0.0
O343 O 0.00039 0.02078 0.05017 0.0
O344 O 0.02742 0.05457 0.06193 0.0
O345 O 0.01879 0.99333 0.02089 0.0
O346 O 0.0514 0.01438 0.04534 0.0
O347 O 0.96523 0.00843 0.01154 0.0
O348 O 0.9814 -0.00135 0.98225 0.0
C349 C 0.0179 0.07522 0.0146 0.0
O350 O 0.05855 0.03368 0.00331 0.0
O351 O 0.02313 0.03223 0.98529 0.0
C352 C 0.11246 0.06423 0.06888 0.0
C353 C 0.14614 0.04149 0.07803 0.0
C354 C 0.14975 0.0582 0.06366 0.0
C355 C 0.13304 0.06952 0.05918 0.0
C356 C 0.1098 0.04902 0.08487 0.0
C357 C 0.12654 0.03781 0.08944 0.0
C358 C 0.09282 0.07204 0.05985 0.0
C359 C 0.01017 0.03838 0.06603 0.0
C360 C 0.03711 0.99459 0.0357 0.0
C361 C 0.94527 0.00593 0.97524 0.0
C362 C 0.90838 0.02263 0.96046 0.0
C363 C 0.93095 0.03725 0.96606 0.0
C364 C 0.94926 0.02891 0.97332 0.0
C365 C 0.92365 0.99082 0.96666 0.0
C366 C 0.90535 -0.00091 0.95888 0.0
C367 C 0.96202 -0.00115 0.99004 0.0
H368 H 0.16461 0.06133 0.05448 0.0
H369 H 0.13551 0.08127 0.04691 0.0
H370 H 0.09421 0.04472 0.09286 0.0
H371 H 0.12354 0.02533 0.10093 0.0
H372 H 0.93421 0.05545 0.96746 0.0
H373 H 0.96602 0.04075 0.97962 0.0
H374 H 0.92043 0.97294 0.96772 0.0
H375 H 0.88839 0.98725 0.95381 0.0
Dy376 Dy 0.29189 0.77277 0.24856 0.0
Dy377 Dy 0.26252 0.78283 0.29017 0.0
C378 C 0.29972 0.82213 0.2756 0.0
O379 O 0.30638 0.75885 0.27818 0.0
O380 O 0.29666 0.78101 0.30744 0.0
O381 O 0.32095 0.78441 0.23063 0.0
O382 O 0.29922 0.74999 0.22121 0.0
O383 O 0.25682 0.74541 0.28203 0.0
O384 O 0.2595 0.74466 0.24387 0.0
O385 O 0.24011 0.78416 0.25803 0.0
O386 O 0.26616 0.7886 0.23187 0.0
O387 O 0.23048 0.77583 0.30453 0.0
O388 O 0.26094 0.80061 0.32365 0.0
C389 C 0.30915 0.76777 0.30005 0.0
O390 O 0.30998 0.80672 0.26889 0.0
O391 O 0.27854 0.81632 0.28043 0.0
C392 C 0.31396 0.7695 0.19169 0.0
C393 C 0.31144 0.78596 0.14964 0.0
C394 C 0.33296 0.78647 0.16142 0.0
C395 C 0.33419 0.77824 0.18231 0.0
C396 C 0.29239 0.76783 0.17936 0.0
C397 C 0.29114 0.77588 0.15841 0.0
C398 C 0.31572 0.76586 0.21573 0.0
C399 C 0.25197 0.73452 0.26086 0.0
C400 C 0.24577 0.78888 0.23785 0.0
C401 C 0.23771 0.77623 0.34442 0.0
C402 C 0.23852 0.75463 0.3835 0.0
C403 C 0.23867 0.74287 0.36158 0.0
C404 C 0.23837 0.75358 0.34226 0.0
C405 C 0.23703 0.78795 0.36615 0.0
C406 C 0.23748 0.77723 0.38561 0.0
C407 C 0.24013 0.78808 0.32443 0.0
H408 H 0.34884 0.79404 0.15494 0.0
H409 H 0.35098 0.77985 0.19177 0.0
H410 H 0.27658 0.76152 0.18652 0.0
H411 H 0.27433 0.77558 0.1499 0.0
H412 H 0.23997 0.72561 0.35944 0.0
H413 H 0.23937 0.74431 0.32573 0.0
H414 H 0.23679 0.80553 0.36813 0.0
H415 H 0.23728 0.78667 0.4023 0.0
Dy416 Dy 0.50472 0.02954 0.53159 0.0
Dy417 Dy 0.55384 0.039 0.51021 0.0
C418 C 0.50816 0.04211 0.48065 0.0
O419 O 0.50358 0.99493 0.51277 0.0
O420 O 0.5423 0.00123 0.51019 0.0
O421 O 0.46761 0.01665 0.52797 0.0
O422 O 0.48677 0.03507 0.56076 0.0
O423 O 0.56069 0.04091 0.54809 0.0
O424 O 0.5279 0.01568 0.55393 0.0
O425 O 0.54781 0.07371 0.51609 0.0
O426 O 0.52448 0.06622 0.54405 0.0
O427 O 0.59064 0.05497 0.5149 0.0
O428 O 0.57433 0.0312 0.48402 0.0
C429 C 0.52144 0.98725 0.50857 0.0
O430 O 0.49845 0.04364 0.49944 0.0
O431 O 0.52778 0.03689 0.48026 0.0
C432 C 0.45142 0.04284 0.54881 0.0
C433 C 0.42504 0.07459 0.5499 0.0
C434 C 0.42564 0.06104 0.5291 0.0
C435 C 0.43867 0.04539 0.52854 0.0
C436 C 0.4506 0.05614 0.56966 0.0
C437 C 0.43764 0.07188 0.5702 0.0
C438 C 0.46651 0.02736 0.54819 0.0
C439 C 0.55013 0.02528 0.55928 0.0
C440 C 0.5374 0.08083 0.53294 0.0
C441 C 0.60945 0.02809 0.50165 0.0
C442 C 0.63803 -0.00037 0.50969 0.0
C443 C 0.61788 -0.00233 0.52014 0.0
C444 C 0.60377 0.01179 0.5162 0.0
C445 C 0.62952 0.0302 0.49119 0.0
C446 C 0.64377 0.01613 0.49524 0.0
C447 C 0.59376 0.04205 0.49696 0.0
H448 H 0.41583 0.06232 0.51321 0.0
H449 H 0.43886 0.03544 0.51213 0.0
H450 H 0.46029 0.05463 0.58553 0.0
H451 H 0.4378 0.08217 0.5865 0.0
H452 H 0.61316 0.98541 0.53163 0.0
H453 H 0.58835 0.00995 0.52449 0.0
H454 H 0.63407 0.04259 0.4798 0.0
H455 H 0.65911 0.01793 0.48682 0.0
Dy456 Dy 0.30578 0.2808 0.78361 0.0
Dy457 Dy 0.25889 0.29907 0.78122 0.0
C458 C 0.30788 0.33047 0.77392 0.0
O459 O 0.30565 0.2999 0.81869 0.0
O460 O 0.26654 0.29187 0.81681 0.0
O461 O 0.34235 0.28773 0.79482 0.0
O462 O 0.32328 0.25504 0.77513 0.0
O463 O 0.24676 0.26143 0.77649 0.0
O464 O 0.2785 0.25313 0.79405 0.0
O465 O 0.26484 0.2945 0.74422 0.0
O466 O 0.28948 0.27168 0.74677 0.0
O467 O 0.22337 0.29683 0.7689 0.0
O468 O 0.24271 0.32362 0.79639 0.0
C469 C 0.2871 0.29839 0.82892 0.0
O470 O 0.31425 0.31216 0.76789 0.0
O471 O 0.28914 0.32965 0.78366 0.0
C472 C 0.36121 0.27077 0.76694 0.0
C473 C 0.3948 0.27354 0.73633 0.0
C474 C 0.38901 0.29309 0.74571 0.0
C475 C 0.37237 0.29172 0.76078 0.0
C476 C 0.36666 0.25122 0.75732 0.0
C477 C 0.38314 0.25255 0.74214 0.0
C478 C 0.34364 0.2689 0.78297 0.0
C479 C 0.25627 0.24754 0.78632 0.0
C480 C 0.27613 0.28101 0.73462 0.0
C481 C 0.20379 0.30706 0.79959 0.0
C482 C 0.17022 0.29711 0.82963 0.0
C483 C 0.18045 0.28047 0.82073 0.0
C484 C 0.19718 0.28544 0.806 0.0
C485 C 0.19363 0.3237 0.8084 0.0
C486 C 0.17703 0.31881 0.82332 0.0
C487 C 0.22238 0.31281 0.78515 0.0
H488 H 0.39771 0.30957 0.74187 0.0
H489 H 0.36841 0.30712 0.76772 0.0
H490 H 0.35814 0.23484 0.76157 0.0
H491 H 0.3867 0.23703 0.73493 0.0
H492 H 0.17581 0.26369 0.82547 0.0
H493 H 0.20514 0.27245 0.79982 0.0
H494 H 0.19868 0.34056 0.80388 0.0
H495 H 0.16933 0.33193 0.82973 0.0
Dy496 Dy 0.04405 0.01171 0.52258 0.0
Dy497 Dy 0.02906 0.06 0.53045 0.0
C498 C 0.99457 0.01323 0.53691 0.0
O499 O 0.03744 0.01984 0.48694 0.0
O500 O 0.01341 0.04235 0.49482 0.0
O501 O 0.03742 0.97624 0.50821 0.0
O502 O 0.0689 0.9935 0.53126 0.0
O503 O 0.05898 0.06598 0.51093 0.0
O504 O 0.07615 0.04019 0.52384 0.0
O505 O 0.05014 0.05832 0.56353 0.0
O506 O 0.04202 0.01971 0.56005 0.0
O507 O 0.03927 0.09611 0.54253 0.0
O508 O 0.00432 0.07943 0.52616 0.0
C509 C 0.02221 0.03032 0.48005 0.0
O510 O 0.00612 0.00242 0.52409 0.0
O511 O 0.00228 0.03511 0.54463 0.0
C512 C 0.05183 0.95504 0.53459 0.0
C513 C 0.04552 0.91967 0.56171 0.0
C514 C 0.02751 0.92071 0.54522 0.0
C515 C 0.0306 0.93819 0.53185 0.0
C516 C 0.06993 0.95374 0.55079 0.0
C517 C 0.06679 0.93639 0.56424 0.0
C518 C 0.05541 0.97398 0.52086 0.0
C519 C 0.0773 0.05884 0.51498 0.0
C520 C 0.04929 0.03985 0.57268 0.0
C521 C 0.0213 0.11654 0.51906 0.0
C522 C 0.02588 0.1515 0.49165 0.0
C523 C 0.03055 0.13093 0.48359 0.0
C524 C 0.02832 0.11365 0.49718 0.0
C525 C 0.01641 0.13686 0.52709 0.0
C526 C 0.01866 0.15415 0.51356 0.0
C527 C 0.01966 0.09878 0.53385 0.0
H528 H 0.01085 0.90822 0.54291 0.0
H529 H 0.01628 0.93856 0.5195 0.0
H530 H 0.08658 0.96626 0.55316 0.0
H531 H 0.08116 0.93593 0.57648 0.0
H532 H 0.0364 0.12833 0.46698 0.0
H533 H 0.03229 0.09811 0.4907 0.0
H534 H 0.01096 0.13943 0.54391 0.0
H535 H 0.01458 0.16956 0.52023 0.0
Dy536 Dy 0.28814 0.8097 0.76256 0.0
Dy537 Dy 0.27782 0.76116 0.78428 0.0
C538 C 0.26888 0.80546 0.81105 0.0
O539 O 0.32174 0.81088 0.78376 0.0
O540 O 0.31629 0.773 0.7854 0.0
O541 O 0.30272 0.84599 0.76869 0.0
O542 O 0.28439 0.82909 0.7351 0.0
O543 O 0.28157 0.75263 0.74748 0.0
O544 O 0.30161 0.78687 0.7386 0.0
O545 O 0.24224 0.7647 0.77381 0.0
O546 O 0.25081 0.79151 0.74972 0.0
O547 O 0.26108 0.72534 0.78146 0.0
O548 O 0.2855 0.74294 0.8116 0.0
C549 C 0.32989 0.79375 0.78789 0.0
O550 O 0.26877 0.81409 0.79196 0.0
O551 O 0.27616 0.78751 0.81308 0.0
C552 C 0.27854 0.86415 0.74989 0.0
C553 C 0.25178 0.89529 0.7552 0.0
C554 C 0.24464 0.87388 0.76211 0.0
C555 C 0.25787 0.8585 0.75946 0.0
C556 C 0.28565 0.88528 0.74266 0.0
C557 C 0.27238 0.90071 0.74525 0.0
C558 C 0.29316 0.84846 0.74874 0.0
C559 C 0.29486 0.76462 0.73468 0.0
C560 C 0.23578 0.7765 0.75856 0.0
C561 C 0.28667 0.70588 0.79725 0.0
C562 C 0.3138 0.67496 0.79273 0.0
C563 C 0.30062 0.67857 0.77331 0.0
C564 C 0.28726 0.6939 0.77552 0.0
C565 C 0.29949 0.70195 0.81671 0.0
C566 C 0.31298 0.68675 0.81447 0.0
C567 C 0.27387 0.7233 0.79979 0.0
H568 H 0.22912 0.86919 0.77014 0.0
H569 H 0.25218 0.84231 0.76531 0.0
H570 H 0.30158 0.88995 0.73528 0.0
H571 H 0.27827 0.91688 0.73944 0.0
H572 H 0.30105 0.66994 0.75629 0.0
H573 H 0.27772 0.6966 0.76012 0.0
H574 H 0.29933 0.71092 0.83366 0.0
H575 H 0.32271 0.68414 0.8298 0.0
Dy576 Dy 0.52294 0.04772 0.00228 0.0
Dy577 Dy 0.52726 0.02005 0.04521 0.0
C578 C 0.53445 -0.00081 -0.00486 0.0
O579 O 0.48753 0.03613 0.01121 0.0
O580 O 0.49196 0.00484 0.02566 0.0
O581 O 0.50572 0.04968 0.96914 0.0
O582 O 0.53379 0.07802 0.98719 0.0
O583 O 0.5113 0.04748 0.05774 0.0
O584 O 0.52653 0.07262 0.03442 0.0
O585 O 0.56119 0.04577 0.04699 0.0
O586 O 0.55984 0.0484 0.00866 0.0
O587 O 0.53982 0.02036 0.08079 0.0
O588 O 0.51948 0.98897 0.05966 0.0
C589 C 0.47876 0.01603 0.01637 0.0
O590 O 0.52359 0.01282 0.98639 0.0
O591 O 0.54136 0.0018 0.0174 0.0
C592 C 0.53152 0.06929 0.94691 0.0
C593 C 0.55106 0.06384 0.90609 0.0
C594 C 0.5644 0.06634 0.92762 0.0
C595 C 0.55468 0.06886 0.94785 0.0
C596 C 0.51839 0.06767 0.92556 0.0
C597 C 0.52806 0.06493 0.90527 0.0
C598 C 0.52033 0.06898 0.96779 0.0
C599 C 0.51728 0.06828 0.05313 0.0
C600 C 0.57143 0.05152 0.02925 0.0
C601 C 0.51072 -0.00241 0.09715 0.0
C602 C 0.48083 0.00548 0.12878 0.0
C603 C 0.4725 -0.00096 0.1052 0.0
C604 C 0.48734 0.99525 0.0895 0.0
C605 C 0.51869 0.00243 0.12082 0.0
C606 C 0.50384 0.00635 0.13655 0.0
C607 C 0.52738 -0.00033 0.08056 0.0
H608 H 0.58228 0.06598 0.92884 0.0
H609 H 0.56511 0.06986 0.96415 0.0
H610 H 0.50042 0.06771 0.92455 0.0
H611 H 0.51725 0.06279 0.88894 0.0
H612 H 0.45494 -0.00155 0.09868 0.0
H613 H 0.48083 0.99194 0.07128 0.0
H614 H 0.53671 0.00457 0.127 0.0
H615 H 0.51061 0.01101 0.1547 0.0
Dy616 Dy 0.26873 0.2636 0.2714 0.0
Dy617 Dy 0.2997 0.31333 0.29604 0.0
C618 C 0.2907 0.27292 0.3242 0.0
O619 O 0.24294 0.2839 0.27507 0.0
O620 O 0.26382 0.30992 0.30567 0.0
O621 O 0.23779 0.23623 0.26986 0.0
O622 O 0.26308 0.23267 0.24735 0.0
O623 O 0.28343 0.31903 0.26216 0.0
O624 O 0.27457 0.28291 0.24208 0.0
O625 O 0.32386 0.29928 0.27609 0.0
O626 O 0.30589 0.26158 0.27407 0.0
O627 O 0.32425 0.34552 0.29555 0.0
O628 O 0.31106 0.33792 0.32714 0.0
C629 C 0.24383 0.29911 0.29312 0.0
O630 O 0.2719 0.26387 0.30948 0.0
O631 O 0.30725 0.28923 0.31919 0.0
C632 C 0.24674 0.20178 0.26513 0.0
C633 C 0.25082 0.1632 0.28388 0.0
C634 C 0.26714 0.18433 0.29152 0.0
C635 C 0.26504 0.2034 0.28232 0.0
C636 C 0.23014 0.18095 0.2576 0.0
C637 C 0.23217 0.16172 0.2669 0.0
C638 C 0.24501 0.22227 0.25603 0.0
C639 C 0.27819 0.30484 0.24254 0.0
C640 C 0.3241 0.278 0.27183 0.0
C641 C 0.31648 0.37548 0.31966 0.0
C642 C 0.29819 0.41303 0.32135 0.0
C643 C 0.31105 0.40834 0.30372 0.0
C644 C 0.32017 0.38979 0.30292 0.0
C645 C 0.30531 0.38129 0.33834 0.0
C646 C 0.29619 0.39986 0.33914 0.0
C647 C 0.32235 0.35364 0.31652 0.0
H648 H 0.28203 0.18608 0.3041 0.0
H649 H 0.27792 0.21944 0.28846 0.0
H650 H 0.21574 0.17956 0.24452 0.0
H651 H 0.21928 0.14572 0.26074 0.0
H652 H 0.31281 0.41808 0.28969 0.0
H653 H 0.32905 0.38601 0.28851 0.0
H654 H 0.30263 0.37088 0.35179 0.0
H655 H 0.28674 0.40334 0.35318 0.0
Dy656 Dy 0.54049 0.50939 0.02473 0.0
Dy657 Dy 0.52639 0.55835 0.03119 0.0
C658 C 0.49169 0.51256 0.03961 0.0
O659 O 0.53394 0.51676 0.98877 0.0
O660 O 0.51034 0.5399 -0.00412 0.0
O661 O 0.53311 0.47375 0.01079 0.0
O662 O 0.56438 0.49046 0.03431 0.0
O663 O 0.5559 0.56291 0.0112 0.0
O664 O 0.57285 0.53721 0.02475 0.0
O665 O 0.54799 0.5574 0.06427 0.0
O666 O 0.53933 0.51886 0.06218 0.0
O667 O 0.5373 0.59463 0.04221 0.0
O668 O 0.50214 0.57821 0.02631 0.0
C669 C 0.51896 0.52734 0.98145 0.0
O670 O 0.50271 0.5011 0.02683 0.0
O671 O 0.49976 0.53454 0.04659 0.0
C672 C 0.5463 0.4524 0.03709 0.0
C673 C 0.53912 0.41693 0.06396 0.0
C674 C 0.53084 0.43596 0.06955 0.0
C675 C 0.53438 0.45349 0.05624 0.0
C676 C 0.55447 0.43347 0.03135 0.0
C677 C 0.55091 0.41592 0.0446 0.0
C678 C 0.55089 0.47115 0.02345 0.0
C679 C 0.57407 0.55556 0.01533 0.0
C680 C 0.54712 0.5393 0.07411 0.0
C681 C 0.51958 0.6149 0.01826 0.0
C682 C 0.52448 0.64928 0.99007 0.0
C683 C 0.5291 0.62855 0.98251 0.0
C684 C 0.52671 0.61156 -0.00352 0.0
C685 C 0.51475 0.63537 0.02579 0.0
C686 C 0.51715 0.65237 0.01187 0.0
C687 C 0.51778 0.59748 0.0335 0.0
H688 H 0.52144 0.43725 0.08411 0.0
H689 H 0.52791 0.46796 0.06097 0.0
H690 H 0.56383 0.43236 0.01672 0.0
H691 H 0.55783 0.40176 0.03991 0.0
H692 H 0.53502 0.6256 0.96599 0.0
H693 H 0.53065 0.59591 0.99038 0.0
H694 H 0.50921 0.63829 0.04252 0.0
H695 H 0.51309 0.66789 0.01818 0.0
Dy696 Dy 0.78733 0.31181 0.2678 0.0
Dy697 Dy 0.77774 0.26397 0.29015 0.0
C698 C 0.7693 0.30835 0.31647 0.0
O699 O 0.8224 0.30616 0.27542 0.0
O700 O 0.81431 0.2845 0.30391 0.0
O701 O 0.80443 0.34769 0.27199 0.0
O702 O 0.78032 0.33121 0.24137 0.0
O703 O 0.79477 0.25838 0.25908 0.0
O704 O 0.78768 0.28553 0.23848 0.0
O705 O 0.74294 0.26218 0.27079 0.0
O706 O 0.74877 0.29936 0.26522 0.0
O707 O 0.76472 0.22754 0.28557 0.0
O708 O 0.78271 0.24622 0.31869 0.0
C709 C 0.82934 0.29684 0.29267 0.0
O710 O 0.78448 0.31986 0.30499 0.0
O711 O 0.76189 0.28618 0.31205 0.0
C712 C 0.77923 0.36749 0.25756 0.0
C713 C 0.75355 0.3994 0.26428 0.0
C714 C 0.74832 0.37947 0.27419 0.0
C715 C 0.76099 0.36367 0.27082 0.0
C716 C 0.7847 0.38736 0.24777 0.0
C717 C 0.77198 0.4032 0.2511 0.0
C718 C 0.79212 0.35049 0.25374 0.0
C719 C 0.79398 0.26695 0.23993 0.0
C720 C 0.73505 0.27891 0.26471 0.0
C721 C 0.78971 0.21118 0.30591 0.0
C722 C 0.81749 0.18084 0.30267 0.0
C723 C 0.82487 0.2024 0.29613 0.0
C724 C 0.8111 0.21739 0.2977 0.0
C725 C 0.78242 0.18994 0.31285 0.0
C726 C 0.79618 0.17491 0.31128 0.0
C727 C 0.7745 0.22631 0.3059 0.0
H728 H 0.73451 0.37611 0.28472 0.0
H729 H 0.75651 0.3484 0.27851 0.0
H730 H 0.79866 0.39053 0.2374 0.0
H731 H 0.77633 0.41821 0.24299 0.0
H732 H 0.84098 0.20746 0.28913 0.0
H733 H 0.81695 0.23368 0.29208 0.0
H734 H 0.76594 0.18485 0.31918 0.0
H735 H 0.79009 0.15861 0.31678 0.0
Dy736 Dy 0.02427 0.54864 0.50811 0.0
Dy737 Dy 0.02479 0.51875 0.54972 0.0
C738 C 0.03386 0.49925 0.49981 0.0
O739 O 0.98802 0.53744 0.51499 0.0
O740 O 0.99048 0.50493 0.52794 0.0
O741 O 0.00837 0.55294 0.47529 0.0
O742 O 0.03776 0.57929 0.49432 0.0
O743 O 0.00948 0.5467 0.56232 0.0
O744 O 0.02719 0.57252 0.5408 0.0
O745 O 0.05981 0.54321 0.55357 0.0
O746 O 0.06057 0.54759 0.51576 0.0
O747 O 0.03551 0.51716 0.5853 0.0
O748 O 0.01416 0.4871 0.56279 0.0
C749 C 0.97826 0.51696 0.51861 0.0
O750 O 0.02436 0.5139 0.49118 0.0
O751 O 0.03941 0.50067 0.52219 0.0
C752 C 0.03528 0.57216 0.45384 0.0
C753 C 0.05411 0.56651 0.4126 0.0
C754 C 0.06755 0.56833 0.43393 0.0
C755 C 0.05817 0.57095 0.45437 0.0
C756 C 0.02216 0.5714 0.43271 0.0
C757 C 0.03146 0.56854 0.41222 0.0
C758 C 0.02416 0.57173 0.47476 0.0
C759 C 0.01662 0.56775 0.55866 0.0
C760 C 0.07118 0.54924 0.53658 0.0
C761 C 0.00441 0.49532 0.59992 0.0
C762 C 0.97428 0.5042 0.63091 0.0
C763 C 0.96681 0.49959 0.6071 0.0
C764 C 0.98178 0.49531 0.59173 0.0
C765 C 0.01137 0.49834 0.62371 0.0
C766 C 0.9964 0.50274 0.63912 0.0
C767 C 0.02174 0.49687 0.58405 0.0
H768 H 0.08519 0.56724 0.43483 0.0
H769 H 0.0686 0.57132 0.4705 0.0
H770 H 0.00439 0.5721 0.432 0.0
H771 H 0.02054 0.56693 0.39607 0.0
H772 H 0.94997 0.50082 0.60025 0.0
H773 H 0.97611 0.49346 0.57343 0.0
H774 H 0.02883 0.49867 0.63033 0.0
H775 H 0.00247 0.50595 0.65744 0.0
Dy776 Dy 0.80555 0.78496 0.28014 0.0
Dy777 Dy 0.75787 0.80166 0.27617 0.0
C778 C 0.80592 0.83335 0.26823 0.0
O779 O 0.80521 0.80463 0.31485 0.0
O780 O 0.76606 0.79839 0.31307 0.0
O781 O 0.84248 0.7939 0.29022 0.0
O782 O 0.82437 0.76012 0.27258 0.0
O783 O 0.74724 0.76441 0.27642 0.0
O784 O 0.78026 0.75842 0.2942 0.0
O785 O 0.765 0.7951 0.23956 0.0
O786 O 0.78517 0.7692 0.24566 0.0
O787 O 0.72196 0.79653 0.26272 0.0
O788 O 0.74 0.82614 0.28768 0.0
C789 C 0.78674 0.80435 0.325 0.0
O790 O 0.81185 0.81485 0.26185 0.0
O791 O 0.78756 0.83261 0.27852 0.0
C792 C 0.86179 0.77637 0.26312 0.0
C793 C 0.89554 0.77845 0.23267 0.0
C794 C 0.89127 0.79839 0.24327 0.0
C795 C 0.87459 0.79737 0.25828 0.0
C796 C 0.86576 0.75648 0.25227 0.0
C797 C 0.8823 0.75748 0.23717 0.0
C798 C 0.84443 0.77488 0.27941 0.0
C799 C 0.75779 0.75201 0.28756 0.0
C800 C 0.77344 0.77847 0.23172 0.0
C801 C 0.7013 0.80884 0.29125 0.0
C802 C 0.66588 0.80024 0.31951 0.0
C803 C 0.68534 0.79203 0.32326 0.0
C804 C 0.70284 0.79624 0.30923 0.0
C805 C 0.68199 0.81706 0.28741 0.0
C806 C 0.66442 0.81278 0.30137 0.0
C807 C 0.72001 0.81373 0.27685 0.0
H808 H 0.90123 0.81486 0.24047 0.0
H809 H 0.87194 0.81308 0.26626 0.0
H810 H 0.8561 0.74007 0.25555 0.0
H811 H 0.8847 0.74172 0.22904 0.0
H812 H 0.68691 0.78207 0.33684 0.0
H813 H 0.7176 0.78966 0.31242 0.0
H814 H 0.68055 0.8269 0.27368 0.0
H815 H 0.64983 0.81958 0.29815 0.0
Dy816 Dy 0.79482 0.27624 0.7425 0.0
Dy817 Dy 0.76915 0.28787 0.7869 0.0
C818 C 0.80243 0.32637 0.76587 0.0
O819 O 0.82031 0.2802 0.77419 0.0
O820 O 0.79507 0.27066 0.8 0.0
O821 O 0.82418 0.28494 0.724 0.0
O822 O 0.79678 0.2539 0.71217 0.0
O823 O 0.75099 0.25188 0.77206 0.0
O824 O 0.77933 0.24297 0.75279 0.0
O825 O 0.75065 0.29921 0.75766 0.0
O826 O 0.75988 0.27793 0.72705 0.0
O827 O 0.73882 0.2854 0.80399 0.0
O828 O 0.77225 0.3059 0.82134 0.0
C829 C 0.81585 0.27361 0.79399 0.0
O830 O 0.79735 0.31305 0.74595 0.0
O831 O 0.79773 0.31847 0.78489 0.0
C832 C 0.81359 0.27389 0.68413 0.0
C833 C 0.81132 0.2894 0.64152 0.0
C834 C 0.79141 0.28333 0.65228 0.0
C835 C 0.79256 0.27576 0.67345 0.0
C836 C 0.83338 0.27927 0.67318 0.0
C837 C 0.83229 0.28706 0.65201 0.0
C838 C 0.81521 0.26795 0.70735 0.0
C839 C 0.75974 0.23703 0.76105 0.0
C840 C 0.74713 0.29045 0.73561 0.0
C841 C 0.74848 0.28351 0.843 0.0
C842 C 0.75031 0.26078 0.88115 0.0
C843 C 0.75149 0.25008 0.85903 0.0
C844 C 0.75063 0.26134 0.84016 0.0
C845 C 0.74676 0.29417 0.86488 0.0
C846 C 0.74764 0.28285 0.88388 0.0
C847 C 0.75094 0.2961 0.8236 0.0
H848 H 0.77513 0.28542 0.64488 0.0
H849 H 0.77713 0.272 0.68176 0.0
H850 H 0.84977 0.27802 0.6813 0.0
H851 H 0.84787 0.29164 0.64404 0.0
H852 H 0.75403 0.2333 0.85638 0.0
H853 H 0.75247 0.25302 0.82345 0.0
H854 H 0.74541 0.3114 0.86736 0.0
H855 H 0.74656 0.29146 0.90071 0.0
Dy856 Dy 0.77037 0.76243 0.76718 0.0
Dy857 Dy 0.79894 0.81262 0.79417 0.0
C858 C 0.78873 0.7702 0.82145 0.0
O859 O 0.74479 0.77523 0.78655 0.0
O860 O 0.76173 0.8135 0.79146 0.0
O861 O 0.73835 0.7364 0.75459 0.0
O862 O 0.77111 0.72988 0.74985 0.0
O863 O 0.79343 0.81717 0.75713 0.0
O864 O 0.76609 0.78409 0.74038 0.0
O865 O 0.82507 0.79291 0.78859 0.0
O866 O 0.80544 0.77097 0.75523 0.0
O867 O 0.82744 0.84268 0.79646 0.0
O868 O 0.80565 0.83926 0.82342 0.0
C869 C 0.74369 0.79622 0.79177 0.0
O870 O 0.78479 0.75644 0.80172 0.0
O871 O 0.79137 0.79198 0.82218 0.0
C872 C 0.74309 0.70067 0.76 0.0
C873 C 0.74495 0.66405 0.78316 0.0
C874 C 0.74336 0.6845 0.79536 0.0
C875 C 0.74255 0.70271 0.78388 0.0
C876 C 0.74254 0.67972 0.74749 0.0
C877 C 0.74339 0.6615 0.75896 0.0
C878 C 0.74899 0.72107 0.74915 0.0
C879 C 0.77891 0.80459 0.73934 0.0
C880 C 0.82503 0.7803 0.7689 0.0
C881 C 0.81799 0.87538 0.81328 0.0
C882 C 0.80272 0.9143 0.81048 0.0
C883 C 0.80665 0.90171 0.79051 0.0
C884 C 0.81409 0.88234 0.79186 0.0
C885 C 0.81554 0.88876 0.83339 0.0
C886 C 0.80785 0.90803 0.83201 0.0
C887 C 0.82154 0.85292 0.81463 0.0
H888 H 0.74425 0.68691 0.81395 0.0
H889 H 0.74315 0.71885 0.79388 0.0
H890 H 0.74322 0.67795 0.72911 0.0
H891 H 0.74485 0.64611 0.74903 0.0
H892 H 0.80255 0.90598 0.77365 0.0
H893 H 0.81563 0.87225 0.77602 0.0
H894 H 0.81843 0.88365 0.85007 0.0
H895 H 0.80509 0.91754 0.84766 0.0
Dy896 Dy 0.55335 0.54834 0.53898 0.0
Dy897 Dy 0.50335 0.51966 0.51214 0.0
C898 C 0.54647 0.53274 0.48524 0.0
O899 O 0.54094 0.57398 0.5209 0.0
O900 O 0.50203 0.55642 0.51555 0.0
O901 O 0.58919 0.56688 0.54011 0.0
O902 O 0.57418 0.56394 0.57162 0.0
O903 O 0.50097 0.51919 0.54958 0.0
O904 O 0.52705 0.55345 0.56177 0.0
O905 O 0.52101 0.49233 0.51828 0.0
O906 O 0.5495 0.51284 0.5473 0.0
O907 O 0.46644 0.50719 0.51023 0.0
O908 O 0.48324 0.49849 0.48105 0.0
C909 C 0.51943 0.57453 0.51552 0.0
O910 O 0.55987 0.53329 0.50433 0.0
O911 O 0.52502 0.53304 0.486 0.0
C912 C 0.61206 0.56146 0.57201 0.0
C913 C 0.64893 0.54348 0.58404 0.0
C914 C 0.62607 0.52952 0.57976 0.0
C915 C 0.60786 0.53844 0.57383 0.0
C916 C 0.63456 0.57581 0.57757 0.0
C917 C 0.65292 0.5669 0.58368 0.0
C918 C 0.59315 0.56978 0.56253 0.0
C919 C 0.51002 0.53689 0.56559 0.0
C920 C 0.53721 0.49316 0.53535 0.0
C921 C 0.44748 0.5064 0.47379 0.0
C922 C 0.41157 0.52369 0.45717 0.0
C923 C 0.43385 0.53827 0.46505 0.0
C924 C 0.45167 0.52964 0.47316 0.0
C925 C 0.42633 0.49151 0.46331 0.0
C926 C 0.40858 0.50008 0.45463 0.0
C927 C 0.46367 0.49849 0.48849 0.0
H928 H 0.62225 0.51138 0.57941 0.0
H929 H 0.5906 0.52711 0.56963 0.0
H930 H 0.63804 0.59367 0.57635 0.0
H931 H 0.6703 0.57815 0.58716 0.0
H932 H 0.43713 0.5565 0.4673 0.0
H933 H 0.4681 0.54135 0.48084 0.0
H934 H 0.423 0.47343 0.46329 0.0
H935 H 0.39194 0.48827 0.44781 0.0
Dy936 Dy 0.00735 0.53183 0.03264 0.0
Dy937 Dy 0.05634 0.54071 0.01124 0.0
C938 C 0.0107 0.54385 0.98164 0.0
O939 O 0.00592 0.49711 0.01389 0.0
O940 O 0.04465 0.50303 0.0116 0.0
O941 O 0.97014 0.51978 0.02871 0.0
O942 O 0.98944 0.53703 0.06184 0.0
O943 O 0.06371 0.54203 0.04906 0.0
O944 O 0.0302 0.51789 0.05515 0.0
O945 O 0.05062 0.57555 0.01707 0.0
O946 O 0.02727 0.56846 0.04506 0.0
O947 O 0.09316 0.55649 0.01539 0.0
O948 O 0.07635 0.53258 0.98473 0.0
C949 C 0.0237 0.48921 0.00994 0.0
O950 O 0.00131 0.54605 0.00054 0.0
O951 O 0.03006 0.53813 0.98127 0.0
C952 C 0.95515 0.54594 0.04988 0.0
C953 C 0.92792 0.57664 0.04948 0.0
C954 C 0.94932 0.58156 0.04108 0.0
C955 C 0.96281 0.56635 0.04129 0.0
C956 C 0.93394 0.54097 0.0584 0.0
C957 C 0.92042 0.5562 0.05823 0.0
C958 C 0.96917 0.52978 0.04927 0.0
C959 C 0.05252 0.52696 0.06053 0.0
C960 C 0.04023 0.58289 0.03383 0.0
C961 C 0.11157 0.52936 0.00185 0.0
C962 C 0.13979 0.50044 0.00921 0.0
C963 C 0.12033 0.49924 0.02064 0.0
C964 C 0.10639 0.51359 0.01702 0.0
C965 C 0.13095 0.5307 0.99041 0.0
C966 C 0.14503 0.51639 -0.00589 0.0
C967 C 0.09594 0.54342 -0.00261 0.0
H968 H 0.95573 0.59723 0.03448 0.0
H969 H 0.9792 0.57047 0.03463 0.0
H970 H 0.92773 0.52524 0.06497 0.0
H971 H 0.90389 0.55175 0.06455 0.0
H972 H 0.11602 0.48742 0.03263 0.0
H973 H 0.09145 0.5123 0.02601 0.0
H974 H 0.13507 0.54264 0.9785 0.0
H975 H 0.15981 0.51758 0.98491 0.0
H976 H 0.98238 0.20416 0.00389 0.0
H977 H 0.04403 0.10507 0.9905 0.0
H978 H 0.00936 0.18638 0.9415 0.0
H979 H 0.98154 0.0942 0.02184 0.0
H980 H 0.03706 0.1395 0.97834 0.0
H981 H 0.9869 0.1687 0.01659 0.0
C982 C 0.98922 0.1929 0.99284 0.0
C983 C 0.99533 0.19843 0.97143 0.0
C984 C 0.02488 0.12965 0.98794 0.0
C985 C 0.00121 0.15795 0.98627 0.0
C986 C 0.02888 0.10994 -0.00501 0.0
C987 C 0.01338 0.09645 0.00727 0.0
C988 C 0.00556 0.13668 -0.00629 0.0
C989 C 0.99397 0.10386 0.01235 0.0
C990 C 0.99174 0.17259 9e-05 0.0
C991 C 0.00419 0.18296 0.95801 0.0
N992 N 0.99077 0.12351 0.00584 0.0
N993 N 0.00712 0.16382 0.96572 0.0
H994 H 0.12267 0.82005 0.1799 0.0
H995 H 0.2468 0.79467 0.19201 0.0
H996 H 0.15898 0.81239 0.12146 0.0
H997 H 0.2045 0.79625 0.24655 0.0
H998 H 0.21688 0.80339 0.16614 0.0
H999 H 0.15446 0.81411 0.20465 0.0
C1000 C 0.13743 0.81727 0.17223 0.0
C1001 C 0.13797 0.81668 0.14843 0.0
C1002 C 0.21423 0.80186 0.18379 0.0
C1003 C 0.17486 0.80961 0.17702 0.0
C1004 C 0.23134 0.79691 0.19862 0.0
C1005 C 0.22828 0.79463 0.22162 0.0
C1006 C 0.19394 0.80471 0.19201 0.0
C1007 C 0.20777 0.7977 0.22904 0.0
C1008 C 0.15565 0.81379 0.18644 0.0
C1009 C 0.15775 0.81302 0.13967 0.0
N1010 N 0.19156 0.80255 0.21439 0.0
N1011 N 0.17533 0.80953 0.15392 0.0
H1012 H 0.54441 0.85716 0.45979 0.0
H1013 H 0.48224 0.95094 0.50631 0.0
H1014 H 0.47553 0.83848 0.47779 0.0
H1015 H 0.55425 0.96565 0.4974 0.0
H1016 H 0.47881 0.91017 0.49651 0.0
H1017 H 0.54802 0.89678 0.47465 0.0
C1018 C 0.5302 0.86134 0.46745 0.0
C1019 C 0.50983 0.84424 0.46794 0.0
C1020 C 0.49536 0.92234 0.49678 0.0
C1021 C 0.51344 0.89033 0.48432 0.0
C1022 C 0.49734 0.94572 0.50231 0.0
C1023 C 0.51856 0.96209 0.50265 0.0
C1024 C 0.51471 0.91506 0.49137 0.0
C1025 C 0.53746 0.95396 0.49737 0.0
C1026 C 0.53218 0.88411 0.47577 0.0
C1027 C 0.49178 0.85093 0.47755 0.0
N1028 N 0.53504 0.93128 0.49191 0.0
N1029 N 0.4939 0.8734 0.48511 0.0
H1030 H 0.49829 0.31232 0.64366 0.0
H1031 H 0.42683 0.2494 0.73536 0.0
H1032 H 0.51217 0.25672 0.67441 0.0
H1033 H 0.40605 0.30132 0.70337 0.0
H1034 H 0.45754 0.25189 0.71161 0.0
H1035 H 0.46369 0.30856 0.66351 0.0
C1036 C 0.49397 0.29923 0.65432 0.0
C1037 C 0.50836 0.28501 0.65757 0.0
C1038 C 0.44626 0.26274 0.7096 0.0
C1039 C 0.46909 0.28069 0.68028 0.0
C1040 C 0.42849 0.26119 0.72314 0.0
C1041 C 0.41355 0.27503 0.72138 0.0
C1042 C 0.4495 0.27841 0.69412 0.0
C1043 C 0.41723 0.29043 0.70554 0.0
C1044 C 0.47432 0.29715 0.66571 0.0
C1045 C 0.50192 0.26834 0.6716 0.0
N1046 N 0.43485 0.29175 0.69256 0.0
N1047 N 0.48297 0.26676 0.68242 0.0
H1048 H 0.01489 0.79004 0.61167 0.0
H1049 H 0.06015 0.92325 0.60793 0.0
H1050 H 0.04181 0.84046 0.67238 0.0
H1051 H 0.02334 0.87419 0.54886 0.0
H1052 H 0.05521 0.89296 0.63142 0.0
H1053 H 0.01935 0.82032 0.58809 0.0
C1054 C 0.02175 0.80747 0.62006 0.0
C1055 C 0.02798 0.81267 0.64408 0.0
C1056 C 0.04817 0.88879 0.61333 0.0
C1057 C 0.03322 0.84752 0.61711 0.0
C1058 C 0.05111 0.90609 0.59985 0.0
C1059 C 0.04221 0.90132 0.5763 0.0
C1060 C 0.03637 0.86641 0.60326 0.0
C1061 C 0.03032 0.87875 0.56695 0.0
C1062 C 0.02425 0.82478 0.60657 0.0
C1063 C 0.03675 0.83561 0.65395 0.0
N1064 N 0.02785 0.86216 0.58039 0.0
N1065 N 0.03916 0.85214 0.64045 0.0
H1066 H 0.46632 0.78478 0.84454 0.0
H1067 H 0.36597 0.83085 0.785 0.0
H1068 H 0.47916 0.83775 0.80258 0.0
H1069 H 0.35209 0.76525 0.80678 0.0
H1070 H 0.40748 0.83585 0.79535 0.0
H1071 H 0.42451 0.77928 0.83461 0.0
C1072 C 0.46043 0.79521 0.83322 0.0
C1073 C 0.47649 0.8117 0.82435 0.0
C1074 C 0.39535 0.82036 0.7979 0.0
C1075 C 0.42847 0.80573 0.81321 0.0
C1076 C 0.37157 0.81754 0.79207 0.0
C1077 C 0.35531 0.79757 0.79493 0.0
C1078 C 0.40314 0.80328 0.80702 0.0
C1079 C 0.36385 0.78091 0.80414 0.0
C1080 C 0.43652 0.79206 0.82755 0.0
C1081 C 0.46761 0.82472 0.80978 0.0
N1082 N 0.38704 0.78417 0.80991 0.0
N1083 N 0.44439 0.82157 0.80484 0.0
H1084 H 0.50161 0.15438 0.1751 0.0
H1085 H 0.52315 0.11269 0.04725 0.0
H1086 H 0.51014 0.19758 0.12288 0.0
H1087 H 0.50358 0.06741 0.09621 0.0
H1088 H 0.51861 0.1439 0.07457 0.0
H1089 H 0.50209 0.12243 0.14644 0.0
C1090 C 0.5034 0.15716 0.15756 0.0
C1091 C 0.50588 0.17884 0.1515 0.0
C1092 C 0.5152 0.12713 0.07932 0.0
C1093 C 0.50673 0.14211 0.11844 0.0
C1094 C 0.51784 0.10924 0.06372 0.0
C1095 C 0.51381 0.08728 0.06938 0.0
C1096 C 0.50865 0.12319 0.10093 0.0
C1097 C 0.5069 0.08398 0.09101 0.0
C1098 C 0.50369 0.13884 0.14116 0.0
C1099 C 0.50811 0.18123 0.1284 0.0
N1100 N 0.50467 0.10172 0.10599 0.0
N1101 N 0.50867 0.16318 0.11281 0.0
H1102 H 0.0999 0.29932 0.30509 0.0
H1103 H 0.23846 0.32562 0.33223 0.0
H1104 H 0.13936 0.33179 0.37101 0.0
H1105 H 0.19873 0.28187 0.271 0.0
H1106 H 0.20262 0.33066 0.34504 0.0
H1107 H 0.13575 0.29526 0.2909 0.0
C1108 C 0.11606 0.30569 0.31659 0.0
C1109 C 0.11641 0.31592 0.33937 0.0
C1110 C 0.20167 0.31999 0.32876 0.0
C1111 C 0.15784 0.31139 0.32307 0.0
C1112 C 0.22225 0.31714 0.32133 0.0
C1113 C 0.22188 0.30325 0.3004 0.0
C1114 C 0.18024 0.30903 0.3152 0.0
C1115 C 0.20008 0.29274 0.28724 0.0
C1116 C 0.13658 0.30331 0.30846 0.0
C1117 C 0.13805 0.32376 0.35336 0.0
N1118 N 0.18027 0.29585 0.29481 0.0
N1119 N 0.15771 0.32139 0.34502 0.0
H1120 H -0.00034 0.05995 0.21272 0.0
H1121 H 0.96945 0.01361 0.07747 0.0
H1122 H 0.93078 0.02441 0.17928 0.0
H1123 H 0.03155 0.06618 0.10669 0.0
H1124 H 0.95621 0.01516 0.11526 0.0
H1125 H 0.01291 0.06036 0.17474 0.0
C1126 C 0.98732 0.05227 0.19742 0.0
C1127 C 0.96406 0.04212 0.19924 0.0
C1128 C 0.97269 0.02644 0.11341 0.0
C1129 C 0.97916 0.04234 0.15573 0.0
C1130 C 0.98031 0.02552 0.09182 0.0
C1131 C 0.00166 0.03981 0.08882 0.0
C1132 C 0.98662 0.04151 0.13238 0.0
C1133 C 0.01493 0.05493 0.10814 0.0
C1134 C 0.99488 0.05256 0.17574 0.0
C1135 C 0.94885 0.03246 0.17877 0.0
N1136 N 0.00728 0.05527 0.1291 0.0
N1137 N 0.95668 0.03267 0.15796 0.0
H1138 H 0.28823 0.71805 0.51203 0.0
H1139 H 0.21689 0.71129 0.38868 0.0
H1140 H 0.25187 0.65558 0.46712 0.0
H1141 H 0.26606 0.77262 0.42483 0.0
H1142 H 0.22531 0.69163 0.42035 0.0
H1143 H 0.27676 0.73926 0.48275 0.0
C1144 C 0.2779 0.70881 0.496 0.0
C1145 C 0.27108 0.68503 0.49192 0.0
C1146 C 0.23417 0.70943 0.42143 0.0
C1147 C 0.25769 0.70911 0.45865 0.0
C1148 C 0.22936 0.72065 0.40338 0.0
C1149 C 0.24099 0.74355 0.40402 0.0
C1150 C 0.25072 0.72116 0.44031 0.0
C1151 C 0.25663 0.75499 0.42369 0.0
C1152 C 0.27133 0.72092 0.47936 0.0
C1153 C 0.25763 0.6739 0.47093 0.0
N1154 N 0.26119 0.74361 0.44102 0.0
N1155 N 0.25134 0.68604 0.45511 0.0
H1156 H 0.66309 0.01196 0.65095 0.0
H1157 H 0.53538 0.99402 0.58759 0.0
H1158 H 0.60152 0.97377 0.67427 0.0
H1159 H 0.59705 0.0376 0.56934 0.0
H1160 H 0.55966 0.98066 0.6152 0.0
H1161 H 0.63961 0.01428 0.61569 0.0
C1162 C 0.64474 0.00351 0.64836 0.0
C1163 C 0.63412 0.9931 0.66573 0.0
C1164 C 0.56783 0.99307 0.60504 0.0
C1165 C 0.60714 -0.00386 0.62583 0.0
C1166 C 0.55398 0.00082 0.58943 0.0
C1167 C 0.56416 0.01728 0.5765 0.0
C1168 C 0.592 0.00181 0.60762 0.0
C1169 C 0.58838 0.02522 0.57927 0.0
C1170 C 0.63129 0.00503 0.62834 0.0
C1171 C 0.6103 0.98234 0.66144 0.0
N1172 N 0.60144 0.0175 0.59459 0.0
N1173 N 0.59751 0.9845 0.6421 0.0
H1174 H 0.31316 0.38544 0.95874 0.0
H1175 H 0.25446 0.28549 0.85718 0.0
H1176 H 0.26451 0.32516 0.97141 0.0
H1177 H 0.32376 0.32762 0.85828 0.0
H1178 H 0.25611 0.30036 0.898 0.0
H1179 H 0.31587 0.36554 0.92107 0.0
C1180 C 0.30319 0.3679 0.95364 0.0
C1181 C 0.28858 0.35693 0.96822 0.0
C1182 C 0.27106 0.3061 0.88939 0.0
C1183 C 0.29122 0.33416 0.92478 0.0
C1184 C 0.27013 0.2977 0.86606 0.0
C1185 C 0.289 0.30536 0.85424 0.0
C1186 C 0.29079 0.32274 0.90089 0.0
C1187 C 0.30884 0.32117 0.86668 0.0
C1188 C 0.3048 0.35654 0.93215 0.0
C1189 C 0.27607 0.33418 0.96074 0.0
N1190 N 0.30908 0.3296 0.8892 0.0
N1191 N 0.27736 0.32364 0.93934 0.0
H1192 H 0.01232 0.01348 0.33056 0.0
H1193 H 0.99049 0.04912 0.45992 0.0
H1194 H 0.96155 0.04835 0.34776 0.0
H1195 H 0.03829 0.01053 0.44288 0.0
H1196 H 0.98042 0.04967 0.41907 0.0
H1197 H 0.02301 0.01339 0.37151 0.0
C1198 C 0.00348 0.02127 0.34292 0.0
C1199 C 0.98595 0.03095 0.33556 0.0
C1200 C 0.99307 0.04102 0.42421 0.0
C1201 C -0.00187 0.03074 0.38273 0.0
C1202 C -0.00116 0.04063 0.44762 0.0
C1203 C 0.01528 0.02968 0.455 0.0
C1204 C 0.00381 0.03044 0.40784 0.0
C1205 C 0.02548 0.01911 0.43808 0.0
C1206 C 0.00958 0.02112 0.36635 0.0
C1207 C 0.97516 0.04071 0.35252 0.0
N1208 N 0.01962 0.01979 0.41534 0.0
N1209 N 0.98139 0.04031 0.37524 0.0
H1210 H 0.31754 0.70918 0.6013 0.0
H1211 H 0.30049 0.72251 0.73283 0.0
H1212 H 0.31835 0.65785 0.6443 0.0
H1213 H 0.30861 0.77823 0.69437 0.0
H1214 H 0.31193 0.70043 0.70148 0.0
H1215 H 0.32021 0.73664 0.63578 0.0
C1216 C 0.31888 0.7038 0.61801 0.0
C1217 C 0.31718 0.68103 0.61989 0.0
C1218 C 0.31141 0.71752 0.69983 0.0
C1219 C 0.31991 0.71227 0.65928 0.0
C1220 C 0.30465 0.73009 0.71769 0.0
C1221 C 0.3031 0.75205 0.71595 0.0
C1222 C 0.31632 0.72676 0.67979 0.0
C1223 C 0.30934 0.76124 0.69622 0.0
C1224 C 0.32028 0.71949 0.63769 0.0
C1225 C 0.31914 0.67509 0.64198 0.0
N1226 N 0.31533 0.74838 0.67867 0.0
N1227 N 0.32 0.69052 0.66076 0.0
H1228 H 0.63004 0.02048 0.80398 0.0
H1229 H 0.54489 0.08007 0.8655 0.0
H1230 H 0.58101 0.04797 0.76731 0.0
H1231 H 0.57915 0.03635 0.89765 0.0
H1232 H 0.56031 0.07087 0.82998 0.0
H1233 H 0.61377 0.02843 0.83936 0.0
C1234 C 0.6158 0.02808 0.80334 0.0
C1235 C 0.60689 0.0336 0.78268 0.0
C1236 C 0.56442 0.0633 0.84483 0.0
C1237 C 0.58841 0.0429 0.82302 0.0
C1238 C 0.55558 0.06849 0.86508 0.0
C1239 C 0.56077 0.05902 0.8846 0.0
C1240 C 0.57866 0.04864 0.84415 0.0
C1241 C 0.57503 0.04438 0.88316 0.0
C1242 C 0.60653 0.0326 0.82352 0.0
C1243 C 0.58842 0.0434 0.78284 0.0
N1244 N 0.58352 0.03968 0.86328 0.0
N1245 N 0.57988 0.04786 0.80273 0.0
H1246 H 0.26585 0.31767 0.09682 0.0
H1247 H 0.28946 0.34926 0.23508 0.0
H1248 H 0.29636 0.38561 0.13332 0.0
H1249 H 0.26514 0.28059 0.19879 0.0
H1250 H 0.29016 0.36299 0.19798 0.0
H1251 H 0.26397 0.30381 0.1339 0.0
C1252 C 0.27222 0.32967 0.11259 0.0
C1253 C 0.28133 0.35285 0.11186 0.0
C1254 C 0.2846 0.34492 0.19813 0.0
C1255 C 0.27906 0.33711 0.1545 0.0
C1256 C 0.28409 0.33705 0.21937 0.0
C1257 C 0.27724 0.31369 0.2202 0.0
C1258 C 0.27814 0.32937 0.17746 0.0
C1259 C 0.27059 0.29874 0.19912 0.0
C1260 C 0.27111 0.32175 0.13379 0.0
C1261 C 0.28925 0.36759 0.13295 0.0
N1262 N 0.27123 0.30681 0.17871 0.0
N1263 N 0.28789 0.3595 0.15332 0.0
H1264 H 0.25156 0.98162 0.04087 0.0
H1265 H 0.13209 0.99552 0.07561 0.0
H1266 H 0.19155 0.92518 0.03919 0.0
H1267 H 0.19328 0.05135 0.07984 0.0
H1268 H 0.15506 0.96912 0.0681 0.0
H1269 H 0.23184 0.0068 0.05992 0.0
C1270 C 0.23418 0.97449 0.04457 0.0
C1271 C 0.223 0.9513 0.03815 0.0
C1272 C 0.16356 0.98712 0.07104 0.0
C1273 C 0.20032 0.98012 0.06001 0.0
C1274 C 0.15051 0.00226 0.07558 0.0
C1275 C 0.16078 0.02572 0.07814 0.0
C1276 C 0.18698 0.99549 0.06885 0.0
C1277 C 0.1846 0.03341 0.07753 0.0
C1278 C 0.22299 0.9889 0.05557 0.0
C1279 C 0.20066 0.94296 0.04366 0.0
N1280 N 0.19686 0.01831 0.07264 0.0
N1281 N 0.18993 0.95746 0.05409 0.0
H1282 H 0.68383 0.66792 -0.00651 0.0
H1283 H 0.61641 0.54659 0.01989 0.0
H1284 H 0.71636 0.61447 0.00148 0.0
H1285 H 0.58249 0.59543 -0.00175 0.0
H1286 H 0.65325 0.5709 0.01285 0.0
H1287 H 0.64632 0.64127 -0.00539 0.0
C1288 C 0.68305 0.65054 -0.00473 0.0
C1289 C 0.70324 0.64345 -0.00245 0.0
C1290 C 0.63768 0.57617 0.00949 0.0
C1291 C 0.66049 0.61293 -0.00091 0.0
C1292 C 0.61666 0.56231 0.01353 0.0
C1293 C 0.59634 0.56901 0.00981 0.0
C1294 C 0.63836 0.59693 0.00186 0.0
C1295 C 0.5977 0.58955 0.00149 0.0
C1296 C 0.66166 0.63532 -0.00409 0.0
C1297 C 0.70123 0.6207 -0.00025 0.0
N1298 N 0.61834 0.60283 -0.00202 0.0
N1299 N 0.68027 0.60631 0.00069 0.0
H1300 H 0.70763 0.52151 0.28473 0.0
H1301 H 0.70663 0.39066 0.26423 0.0
H1302 H 0.64579 0.46607 0.27818 0.0
H1303 H 0.76868 0.44602 0.27164 0.0
H1304 H 0.6842 0.41801 0.26982 0.0
H1305 H 0.73034 0.49419 0.28043 0.0
C1306 C 0.69882 0.50359 0.28246 0.0
C1307 C 0.67474 0.49609 0.2818 0.0
C1308 C 0.70272 0.4242 0.27024 0.0
C1309 C 0.70068 0.46464 0.27679 0.0
C1310 C 0.7156 0.40856 0.26718 0.0
C1311 C 0.73966 0.41598 0.2675 0.0
C1312 C 0.71391 0.44752 0.27367 0.0
C1313 C 0.75017 0.43946 0.27097 0.0
C1314 C 0.71181 0.48798 0.27998 0.0
C1315 C 0.6643 0.47264 0.2788 0.0
N1316 N 0.73726 0.45436 0.27393 0.0
N1317 N 0.67731 0.45778 0.27637 0.0
H1318 H 0.83886 0.43041 0.49627 0.0
H1319 H 0.94795 0.53579 0.49629 0.0
H1320 H 0.83433 0.49141 0.47004 0.0
H1321 H 0.95177 0.47524 0.52385 0.0
H1322 H 0.90675 0.51865 0.48372 0.0
H1323 H 0.88078 0.44504 0.50273 0.0
C1324 C 0.84668 0.44678 0.4916 0.0
C1325 C 0.83304 0.45985 0.48287 0.0
C1326 C 0.91662 0.50909 0.49246 0.0
C1327 C 0.88106 0.47679 0.49049 0.0
C1328 C 0.94013 0.5189 0.49974 0.0
C1329 C 0.95329 0.50697 0.51126 0.0
C1330 C 0.90619 0.48722 0.49677 0.0
C1331 C 0.94227 0.48509 0.5151 0.0
C1332 C 0.87064 0.45515 0.49537 0.0
C1333 C 0.84416 0.48083 0.47695 0.0
N1334 N 0.91933 0.47595 0.50792 0.0
N1335 N 0.86754 0.48877 0.48111 0.0
H1336 H 0.2957 0.0435 0.28318 0.0
H1337 H 0.26742 0.15889 0.3276 0.0
H1338 H 0.34186 0.09836 0.33199 0.0
H1339 H 0.24378 0.12081 0.25909 0.0
H1340 H 0.28384 0.12875 0.33797 0.0
H1341 H 0.26632 0.06425 0.28348 0.0
C1342 C 0.29944 0.05964 0.29441 0.0
C1343 C 0.32137 0.06951 0.30725 0.0
C1344 C 0.27454 0.12683 0.32086 0.0
C1345 C 0.28788 0.09299 0.30781 0.0
C1346 C 0.26528 0.14402 0.31486 0.0
C1347 C 0.2549 0.14274 0.29218 0.0
C1348 C 0.27311 0.10812 0.30417 0.0
C1349 C 0.25183 0.12268 0.27669 0.0
C1350 C 0.2827 0.07142 0.29452 0.0
C1351 C 0.32529 0.09038 0.32155 0.0
N1352 N 0.26129 0.10629 0.28286 0.0
N1353 N 0.30876 0.10159 0.32127 0.0
H1354 H 0.34306 0.1647 0.51313 0.0
H1355 H 0.39917 0.08489 0.58319 0.0
H1356 H 0.32441 0.1453 0.57781 0.0
H1357 H 0.41855 0.10201 0.51792 0.0
H1358 H 0.37489 0.11066 0.58317 0.0
H1359 H 0.37409 0.14583 0.51633 0.0
C1360 C 0.34577 0.15688 0.52819 0.0
C1361 C 0.33096 0.15636 0.5451 0.0
C1362 C 0.38453 0.10891 0.56888 0.0
C1363 C 0.36613 0.13461 0.54876 0.0
C1364 C 0.39856 0.09425 0.56894 0.0
C1365 C 0.41092 0.0911 0.55047 0.0
C1366 C 0.38262 0.12055 0.55014 0.0
C1367 C 0.40903 0.10353 0.53234 0.0
C1368 C 0.36335 0.14598 0.52994 0.0
C1369 C 0.33519 0.14588 0.56419 0.0
N1370 N 0.39506 0.11759 0.53256 0.0
N1371 N 0.3522 0.13531 0.56539 0.0
H1372 H 0.63995 0.64233 0.29658 0.0
H1373 H 0.77114 0.71482 0.29891 0.0
H1374 H 0.69705 0.6126 0.30103 0.0
H1375 H 0.71134 0.73987 0.28767 0.0
H1376 H 0.74552 0.67836 0.30437 0.0
H1377 H 0.66712 0.67934 0.29834 0.0
C1378 C 0.65825 0.64359 0.29809 0.0
C1379 C 0.66617 0.62423 0.29842 0.0
C1380 C 0.73811 0.69194 0.30083 0.0
C1381 C 0.69758 0.66681 0.30024 0.0
C1382 C 0.75271 0.71273 0.29776 0.0
C1383 C 0.74335 0.73031 0.29252 0.0
C1384 C 0.71409 0.6889 0.29883 0.0
C1385 C 0.71935 0.72671 0.29129 0.0
C1386 C 0.67381 0.66479 0.29907 0.0
C1387 C 0.69016 0.62704 0.30063 0.0
N1388 N 0.70563 0.70647 0.29434 0.0
N1389 N 0.70503 0.64792 0.30124 0.0
H1390 H 0.89918 0.45947 0.78684 0.0
H1391 H 0.79483 0.35381 0.73513 0.0
H1392 H 0.83221 0.46893 0.76696 0.0
H1393 H 0.83578 0.35366 0.79916 0.0
H1394 H 0.81348 0.39466 0.73809 0.0
H1395 H 0.88107 0.41844 0.78306 0.0
C1396 C 0.88072 0.45285 0.78155 0.0
C1397 C 0.86706 0.46743 0.7773 0.0
C1398 C 0.81834 0.38555 0.75138 0.0
C1399 C 0.84662 0.421 0.77243 0.0
C1400 C 0.80786 0.36238 0.74968 0.0
C1401 C 0.8138 0.35058 0.767 0.0
C1402 C 0.83532 0.39662 0.77011 0.0
C1403 C 0.83068 0.36233 0.78558 0.0
C1404 C 0.87047 0.42961 0.7795 0.0
C1405 C 0.84322 0.45816 0.77055 0.0
N1406 N 0.84109 0.38475 0.78656 0.0
N1407 N 0.83373 0.43541 0.76807 0.0
H1408 H 0.09181 0.87931 0.06207 0.0
H1409 H 0.00508 0.95396 0.03668 0.0
H1410 H 0.0276 0.86872 0.09032 0.0
H1411 H 0.0785 0.98538 0.05012 0.0
H1412 H 0.0116 0.91916 0.04854 0.0
H1413 H 0.08606 0.91449 0.04999 0.0
C1414 C 0.07639 0.88419 0.06557 0.0
C1415 C 0.06018 0.87079 0.07731 0.0
C1416 C 0.02631 0.93363 0.04881 0.0
C1417 C 0.05324 0.91112 0.06298 0.0
C1418 C 0.02262 0.95356 0.04191 0.0
C1419 C 0.04122 0.9729 0.0423 0.0
C1420 C 0.04888 0.93244 0.05558 0.0
C1421 C 0.06355 0.97109 0.04952 0.0
C1422 C 0.0732 0.90441 0.05876 0.0
C1423 C 0.04064 0.87834 0.08141 0.0
N1424 N 0.06674 0.95128 0.05557 0.0
N1425 N 0.03762 0.89767 0.07408 0.0
H1426 H 0.94763 0.26007 0.85039 0.0
H1427 H 0.81622 0.26628 0.83937 0.0
H1428 H 0.91291 0.26574 0.91024 0.0
H1429 H 0.85913 0.27257 0.78507 0.0
H1430 H 0.84865 0.26153 0.86512 0.0
H1431 H 0.91254 0.25894 0.82595 0.0
C1432 C 0.93242 0.26073 0.85841 0.0
C1433 C 0.93333 0.26307 0.88248 0.0
C1434 C 0.85087 0.26386 0.84754 0.0
C1435 C 0.89267 0.26226 0.85426 0.0
C1436 C 0.83236 0.26655 0.83278 0.0
C1437 C 0.83487 0.26991 0.80991 0.0
C1438 C 0.872 0.26431 0.83933 0.0
C1439 C 0.85625 0.27014 0.80248 0.0
C1440 C 0.91233 0.26023 0.84438 0.0
C1441 C 0.91296 0.26376 0.89177 0.0
N1442 N 0.87382 0.26738 0.81706 0.0
N1443 N 0.89348 0.26361 0.87766 0.0
H1444 H 0.57165 0.231 0.55045 0.0
H1445 H 0.51956 0.10105 0.56809 0.0
H1446 H 0.53913 0.20979 0.60864 0.0
H1447 H 0.56133 0.11803 0.5144 0.0
H1448 H 0.52376 0.14114 0.58021 0.0
H1449 H 0.56497 0.19057 0.5339 0.0
C1450 C 0.56266 0.21794 0.55948 0.0
C1451 C 0.55583 0.22394 0.58097 0.0
C1452 C 0.53207 0.13625 0.56575 0.0
C1453 C 0.5484 0.17761 0.56232 0.0
C1454 C 0.52969 0.11316 0.55877 0.0
C1455 C 0.54022 0.10581 0.54019 0.0
C1456 C 0.54507 0.15264 0.55418 0.0
C1457 C 0.55298 0.12272 0.52889 0.0
C1458 C 0.55908 0.19484 0.55017 0.0
C1459 C 0.5447 0.20613 0.59206 0.0
N1460 N 0.55506 0.14524 0.53604 0.0
N1461 N 0.5414 0.18407 0.58271 0.0
H1462 H 0.58483 0.78312 0.43371 0.0
H1463 H 0.61905 0.78859 0.30619 0.0
H1464 H 0.53573 0.76434 0.37155 0.0
H1465 H 0.66977 0.8011 0.36654 0.0
H1466 H 0.58845 0.78108 0.33048 0.0
H1467 H 0.61638 0.79095 0.41006 0.0
C1468 C 0.58068 0.78064 0.41514 0.0
C1469 C 0.55758 0.77308 0.40463 0.0
C1470 C 0.60626 0.78545 0.33847 0.0
C1471 C 0.59351 0.78204 0.37749 0.0
C1472 C 0.62378 0.7899 0.32459 0.0
C1473 C 0.64708 0.79556 0.33428 0.0
C1474 C 0.61194 0.78672 0.36236 0.0
C1475 C 0.65206 0.79659 0.35825 0.0
C1476 C 0.59868 0.78508 0.40164 0.0
C1477 C 0.55323 0.77013 0.38046 0.0
N1478 N 0.63467 0.79228 0.37145 0.0
N1479 N 0.57096 0.77465 0.36779 0.0
H1480 H 0.02716 0.23188 0.38031 0.0
H1481 H 0.04335 0.19742 0.50628 0.0
H1482 H 0.05609 0.28014 0.44225 0.0
H1483 H 0.01525 0.14852 0.4446 0.0
H1484 H 0.04774 0.22781 0.48304 0.0
H1485 H 0.02244 0.20112 0.40336 0.0
C1486 C 0.03252 0.23603 0.39875 0.0
C1487 C 0.04205 0.25869 0.40932 0.0
C1488 C 0.0406 0.21044 0.47455 0.0
C1489 C 0.03668 0.22347 0.43589 0.0
C1490 C 0.03794 0.19302 0.48787 0.0
C1491 C 0.02881 0.17024 0.47749 0.0
C1492 C 0.03409 0.20521 0.45055 0.0
C1493 C 0.02259 0.16574 0.45341 0.0
C1494 C 0.02982 0.21844 0.41192 0.0
C1495 C 0.04867 0.26298 0.43331 0.0
N1496 N 0.02529 0.18302 0.44081 0.0
N1497 N 0.04586 0.24559 0.44573 0.0
H1498 H 0.60319 0.27739 0.19082 0.0
H1499 H 0.69767 0.24708 0.27565 0.0
H1500 H 0.58472 0.2501 0.25211 0.0
H1501 H 0.71443 0.3025 0.23714 0.0
H1502 H 0.65623 0.24288 0.26408 0.0
H1503 H 0.6439 0.28182 0.20431 0.0
C1504 C 0.60769 0.27238 0.2072 0.0
C1505 C 0.59039 0.26348 0.22039 0.0
C1506 C 0.66904 0.25594 0.25821 0.0
C1507 C 0.63733 0.26804 0.23577 0.0
C1508 C 0.69271 0.25825 0.26465 0.0
C1509 C 0.70971 0.27515 0.25735 0.0
C1510 C 0.66226 0.27026 0.24387 0.0
C1511 C 0.70208 0.28925 0.24327 0.0
C1512 C 0.631 0.27494 0.2149 0.0
C1513 C 0.59744 0.25724 0.24147 0.0
N1514 N 0.67909 0.28635 0.23687 0.0
N1515 N 0.62031 0.2594 0.24839 0.0
H1516 H 0.55705 0.9118 0.87716 0.0
H1517 H 0.54752 0.96217 0.00667 0.0
H1518 H 0.55315 0.87213 0.93242 0.0
H1519 H 0.53157 0.99296 0.94782 0.0
H1520 H 0.55409 0.93101 0.98065 0.0
H1521 H 0.55244 0.94353 0.90369 0.0
C1522 C 0.55543 0.90977 0.89492 0.0
C1523 C 0.5555 0.88912 0.90247 0.0
C1524 C 0.54916 0.94459 0.97344 0.0
C1525 C 0.55018 0.92567 0.93311 0.0
C1526 C 0.54547 0.96247 0.9883 0.0
C1527 C 0.5389 0.98029 0.9795 0.0
C1528 C 0.54659 0.94456 0.94952 0.0
C1529 C 0.53647 0.97959 0.95546 0.0
C1530 C 0.55266 0.92792 0.91005 0.0
C1531 C 0.55318 0.88764 0.92574 0.0
N1532 N 0.54039 0.96212 0.94138 0.0
N1533 N 0.55067 0.90562 0.94019 0.0
H1534 H 0.96004 0.75451 0.76532 0.0
H1535 H 0.83416 0.76668 0.72538 0.0
H1536 H 0.93957 0.76391 0.69605 0.0
H1537 H 0.86673 0.78593 0.79598 0.0
H1538 H 0.87051 0.76114 0.71395 0.0
H1539 H 0.92424 0.7615 0.77643 0.0
C1540 C 0.94803 0.75802 0.75238 0.0
C1541 C 0.95304 0.75862 0.72964 0.0
C1542 C 0.86972 0.76661 0.73194 0.0
C1543 C 0.91146 0.76637 0.74235 0.0
C1544 C 0.8489 0.76969 0.73854 0.0
C1545 C 0.8472 0.77682 0.76176 0.0
C1546 C 0.88907 0.77017 0.74867 0.0
C1547 C 0.86709 0.78052 0.7779 0.0
C1548 C 0.92757 0.7621 0.7588 0.0
C1549 C 0.93664 0.76335 0.71378 0.0
N1550 N 0.88701 0.77696 0.77111 0.0
N1551 N 0.91658 0.76681 0.72035 0.0
H1552 H 0.05268 0.04081 0.84096 0.0
H1553 H 0.08861 0.03351 0.97351 0.0
H1554 H 0.11968 0.03385 0.86547 0.0
H1555 H 0.01969 0.02949 0.94252 0.0
H1556 H 0.10127 0.03402 0.93511 0.0
H1557 H 0.04125 0.03709 0.87882 0.0
C1558 C 0.06504 0.03842 0.85431 0.0
C1559 C 0.08725 0.03772 0.8499 0.0
C1560 C 0.08338 0.03292 0.93681 0.0
C1561 C 0.07416 0.03356 0.89391 0.0
C1562 C 0.07613 0.03264 0.95871 0.0
C1563 C 0.05303 0.03156 0.96139 0.0
C1564 C 0.06743 0.03222 0.91749 0.0
C1565 C 0.03767 0.03045 0.94152 0.0
C1566 C 0.05845 0.03625 0.87604 0.0
C1567 C 0.10236 0.03443 0.86803 0.0
N1568 N 0.04515 0.0309 0.92062 0.0
N1569 N 0.09561 0.03265 0.88931 0.0
H1570 H 0.75407 0.34028 0.52838 0.0
H1571 H 0.84169 0.32742 0.63252 0.0
H1572 H 0.81495 0.39317 0.56043 0.0
H1573 H 0.77845 0.27629 0.60347 0.0
H1574 H 0.83585 0.34899 0.60167 0.0
H1575 H 0.76594 0.31435 0.5517 0.0
C1576 C 0.76998 0.34641 0.54028 0.0
C1577 C 0.78339 0.36898 0.54273 0.0
C1578 C 0.82342 0.33289 0.60184 0.0
C1579 C 0.79711 0.33941 0.5694 0.0
C1580 C 0.82686 0.32048 0.61933 0.0
C1581 C 0.81035 0.30021 0.62067 0.0
C1582 C 0.8033 0.32499 0.5857 0.0
C1583 C 0.79135 0.29208 0.60326 0.0
C1584 C 0.77679 0.33158 0.55353 0.0
C1585 C 0.80397 0.37596 0.5582 0.0
N1586 N 0.78818 0.30464 0.58663 0.0
N1587 N 0.81012 0.36126 0.5711 0.0
H1588 H 0.47504 0.05752 0.34012 0.0
H1589 H 0.46507 0.04859 0.47257 0.0
H1590 H 0.41111 0.05102 0.36879 0.0
H1591 H 0.52553 0.04655 0.44003 0.0
H1592 H 0.44632 0.05494 0.43634 0.0
H1593 H 0.49515 0.05975 0.37842 0.0
C1594 C 0.46524 0.05676 0.35453 0.0
C1595 C 0.44129 0.05371 0.35121 0.0
C1596 C 0.46373 0.05322 0.43722 0.0
C1597 C 0.46424 0.05604 0.39517 0.0
C1598 C 0.47445 0.04958 0.45787 0.0
C1599 C 0.49682 0.04679 0.45926 0.0
C1600 C 0.47554 0.05417 0.41792 0.0
C1601 C 0.50818 0.04834 0.43971 0.0
C1602 C 0.47676 0.05801 0.37642 0.0
C1603 C 0.42958 0.05321 0.37058 0.0
N1604 N 0.49738 0.05184 0.41985 0.0
N1605 N 0.44115 0.05407 0.39176 0.0
H1606 H 0.78134 0.74897 0.0843 0.0
H1607 H 0.76627 0.73457 0.21342 0.0
H1608 H 0.73998 0.68823 0.10452 0.0
H1609 H 0.77157 0.80022 0.19357 0.0
H1610 H 0.76194 0.71813 0.17302 0.0
H1611 H 0.78252 0.76934 0.12348 0.0
C1612 C 0.77236 0.73997 0.09675 0.0
C1613 C 0.76081 0.71671 0.09103 0.0
C1614 C 0.76389 0.73613 0.17738 0.0
C1615 C 0.76235 0.73975 0.13567 0.0
C1616 C 0.76642 0.74554 0.20049 0.0
C1617 C 0.76915 0.76877 0.20687 0.0
C1618 C 0.76458 0.75002 0.16028 0.0
C1619 C 0.76924 0.78216 0.18931 0.0
C1620 C 0.77302 0.75161 0.11905 0.0
C1621 C 0.74942 0.706 0.10796 0.0
N1622 N 0.76725 0.77264 0.16672 0.0
N1623 N 0.75074 0.71747 0.1294 0.0
H1624 H 0.06831 0.01319 0.71346 0.0
H1625 H 0.07905 0.07564 0.60265 0.0
H1626 H 0.12886 0.06587 0.70676 0.0
H1627 H 0.03681 0.00715 0.59963 0.0
H1628 H 0.09319 0.07607 0.64324 0.0
H1629 H 0.0523 0.0143 0.67386 0.0
C1630 C 0.07819 0.02502 0.7037 0.0
C1631 C 0.10001 0.03935 0.7134 0.0
C1632 C 0.08074 0.06101 0.63366 0.0
C1633 C 0.08166 0.04097 0.66828 0.0
C1634 C 0.07257 0.0608 0.61056 0.0
C1635 C 0.05681 0.0413 0.59768 0.0
C1636 C 0.07275 0.04174 0.64407 0.0
C1637 C 0.04909 0.0225 0.60883 0.0
C1638 C 0.06908 0.02562 0.68112 0.0
C1639 C 0.11205 0.05438 0.69994 0.0
N1640 N 0.05706 0.02321 0.63135 0.0
N1641 N 0.10269 0.05488 0.67815 0.0
H1642 H 0.72537 0.35675 0.4415 0.0
H1643 H 0.77169 0.35324 0.32183 0.0
H1644 H 0.73561 0.41263 0.40312 0.0
H1645 H 0.74435 0.29244 0.35032 0.0
H1646 H 0.75575 0.37442 0.3503 0.0
H1647 H 0.72779 0.33176 0.40695 0.0
C1648 C 0.72752 0.36365 0.42564 0.0
C1649 C 0.73081 0.38692 0.4253 0.0
C1650 C 0.75304 0.35642 0.35028 0.0
C1651 C 0.7341 0.35853 0.38591 0.0
C1652 C 0.76236 0.34432 0.33414 0.0
C1653 C 0.75967 0.32108 0.33394 0.0
C1654 C 0.74124 0.34534 0.36667 0.0
C1655 C 0.74705 0.31039 0.35006 0.0
C1656 C 0.72898 0.34937 0.40593 0.0
C1657 C 0.73326 0.39486 0.40424 0.0
N1658 N 0.73855 0.32269 0.36602 0.0
N1659 N 0.73539 0.38079 0.38549 0.0
H1660 H 0.37049 0.02032 0.20637 0.0
H1661 H 0.49347 0.04309 0.16171 0.0
H1662 H 0.43028 0.07502 0.23724 0.0
H1663 H 0.43493 0.98679 0.13146 0.0
H1664 H 0.46913 0.05732 0.18687 0.0
H1665 H 0.39184 0.01102 0.17516 0.0
C1666 C 0.38789 0.03073 0.20627 0.0
C1667 C 0.3988 0.04824 0.22457 0.0
C1668 C 0.46155 0.04186 0.17474 0.0
C1669 C 0.42337 0.03746 0.18929 0.0
C1670 C 0.47552 0.03357 0.16057 0.0
C1671 C 0.46628 0.01354 0.14474 0.0
C1672 C 0.43812 0.02999 0.17317 0.0
C1673 C 0.44273 0.00228 0.14348 0.0
C1674 C 0.40014 0.02528 0.18857 0.0
C1675 C 0.42135 0.06118 0.2236 0.0
N1676 N 0.42947 0.0106 0.15763 0.0
N1677 N 0.433 0.05533 0.20644 0.0
H1678 H 0.78648 0.75498 0.96536 0.0
H1679 H 0.78516 0.72619 0.8287 0.0
H1680 H 0.78937 0.69 0.93145 0.0
H1681 H 0.79437 0.79363 0.86515 0.0
H1682 H 0.78577 0.71219 0.86577 0.0
H1683 H 0.78873 0.76918 0.92856 0.0
C1684 C 0.78778 0.74374 0.95024 0.0
C1685 C 0.78777 0.72126 0.95159 0.0
C1686 C 0.78777 0.73007 0.86562 0.0
C1687 C 0.79004 0.73734 0.90915 0.0
C1688 C 0.78741 0.73808 0.84443 0.0
C1689 C 0.78974 0.76117 0.84367 0.0
C1690 C 0.79032 0.7452 0.88625 0.0
C1691 C 0.79253 0.77571 0.86473 0.0
C1692 C 0.78902 0.75185 0.92917 0.0
C1693 C 0.78939 0.70747 0.9313 0.0
N1694 N 0.79265 0.76749 0.88503 0.0
N1695 N 0.79031 0.71566 0.91095 0.0
H1696 H 0.83829 0.1226 0.00183 0.0
H1697 H 0.86894 0.00491 0.97857 0.0
H1698 H 0.82261 0.06847 0.04232 0.0
H1699 H 0.90222 0.06268 0.94802 0.0
H1700 H 0.8435 0.02563 -0.00642 0.0
H1701 H 0.85603 0.09948 0.97634 0.0
C1702 C 0.83872 0.10599 0.00547 0.0
C1703 C 0.82909 0.09752 0.02435 0.0
C1704 C 0.85617 0.03372 0.98334 0.0
C1705 C 0.84858 0.07093 -0.00502 0.0
C1706 C 0.87056 0.02169 0.97429 0.0
C1707 C 0.88839 0.03221 0.96247 0.0
C1708 C 0.85968 0.05653 0.98082 0.0
C1709 C 0.88932 0.05415 0.95778 0.0
C1710 C 0.84864 0.09278 0.99082 0.0
C1711 C 0.82993 0.07582 0.02813 0.0
N1712 N 0.87554 0.06584 0.96745 0.0
N1713 N 0.83941 0.0633 0.01355 0.0
H1714 H 0.36733 0.4089 0.04908 0.0
H1715 H 0.45982 0.53001 0.05987 0.0
H1716 H 0.35092 0.47295 0.05815 0.0
H1717 H 0.47307 0.46663 0.03449 0.0
H1718 H 0.42212 0.50888 0.06804 0.0
H1719 H 0.40854 0.42949 0.0529 0.0
C1720 C 0.37247 0.42725 0.05247 0.0
C1721 C 0.35582 0.4393 0.05303 0.0
C1722 C 0.43337 0.49961 0.06084 0.0
C1723 C 0.40251 0.46282 0.05722 0.0
C1724 C 0.45489 0.51167 0.05615 0.0
C1725 C 0.46946 0.50011 0.04608 0.0
C1726 C 0.4264 0.47583 0.05552 0.0
C1727 C 0.46223 0.47629 0.04186 0.0
C1728 C 0.3959 0.43899 0.05446 0.0
C1729 C 0.36328 0.46306 0.05731 0.0
N1730 N 0.44114 0.46494 0.04644 0.0
N1731 N 0.38603 0.47404 0.05904 0.0
H1732 H 0.36536 0.55841 0.75841 0.0
H1733 H 0.35821 0.68113 0.81328 0.0
H1734 H 0.42486 0.61107 0.79377 0.0
H1735 H 0.30304 0.63279 0.76648 0.0
H1736 H 0.3822 0.65494 0.80871 0.0
H1737 H 0.34169 0.58468 0.76347 0.0
C1738 C 0.37347 0.57551 0.76728 0.0
C1739 C 0.39717 0.58254 0.77567 0.0
C1740 C 0.36486 0.65008 0.79943 0.0
C1741 C 0.37003 0.61277 0.78159 0.0
C1742 C 0.35109 0.66495 0.80214 0.0
C1743 C 0.32854 0.65915 0.79025 0.0
C1744 C 0.35598 0.62912 0.78487 0.0
C1745 C 0.32037 0.63808 0.77581 0.0
C1746 C 0.35992 0.59053 0.77011 0.0
C1747 C 0.40668 0.60493 0.78699 0.0
N1748 N 0.33403 0.62382 0.7736 0.0
N1749 N 0.39307 0.61923 0.78968 0.0
H1750 H 0.2169 0.58111 0.52893 0.0
H1751 H 0.09763 0.57262 0.57675 0.0
H1752 H 0.20819 0.63567 0.57738 0.0
H1753 H 0.10178 0.54718 0.50625 0.0
H1754 H 0.13967 0.58983 0.58276 0.0
H1755 H 0.17576 0.56206 0.52624 0.0
C1756 C 0.20636 0.58897 0.53919 0.0
C1757 C 0.21584 0.61005 0.5533 0.0
C1758 C 0.13127 0.58037 0.56606 0.0
C1759 C 0.16901 0.58825 0.55044 0.0
C1760 C 0.10744 0.57048 0.56265 0.0
C1761 C 0.09638 0.55858 0.54096 0.0
C1762 C 0.14397 0.57775 0.5478 0.0
C1763 C 0.10971 0.55637 0.52318 0.0
C1764 C 0.18293 0.57814 0.53755 0.0
C1765 C 0.20143 0.6195 0.56618 0.0
N1766 N 0.1329 0.56578 0.52703 0.0
N1767 N 0.17861 0.60847 0.5645 0.0
H1768 H 0.74365 0.01283 0.75634 0.0
H1769 H 0.76585 0.91982 0.83121 0.0
H1770 H 0.6907 0.96977 0.78722 0.0
H1771 H 0.81146 0.94834 0.78433 0.0
H1772 H 0.7418 0.94468 0.82244 0.0
H1773 H 0.77189 0.99541 0.77327 0.0
C1774 C 0.738 -0.00017 0.76684 0.0
C1775 C 0.71475 0.99252 0.77018 0.0
C1776 C 0.75724 0.94571 0.81432 0.0
C1777 C 0.74696 0.97269 0.78966 0.0
C1778 C 0.7711 0.93171 0.81948 0.0
C1779 C 0.79058 0.93196 0.80834 0.0
C1780 C 0.76297 0.96011 0.79799 0.0
C1781 C 0.79641 0.94746 0.79305 0.0
C1782 C 0.75412 0.98991 0.77647 0.0
C1783 C 0.70841 0.97572 0.78402 0.0
N1784 N 0.78255 0.96082 0.78818 0.0
N1785 N 0.72443 0.96629 0.79318 0.0
H1786 H 0.755 0.95082 0.54845 0.0
H1787 H 0.62534 0.95389 0.51125 0.0
H1788 H 0.69865 0.88979 0.52897 0.0
H1789 H 0.6852 0.01157 0.5187 0.0
H1790 H 0.65081 0.93013 0.52 0.0
H1791 H 0.72855 0.97322 0.54035 0.0
C1792 C 0.73698 0.94207 0.54252 0.0
C1793 C 0.72906 0.91832 0.53928 0.0
C1794 C 0.65833 0.94796 0.51964 0.0
C1795 C 0.69849 0.94412 0.52987 0.0
C1796 C 0.64383 0.96156 0.51476 0.0
C1797 C 0.65317 0.98478 0.51423 0.0
C1798 C 0.68233 0.9577 0.52423 0.0
C1799 C 0.67725 0.99374 0.51865 0.0
C1800 C 0.72186 0.95495 0.53782 0.0
C1801 C 0.70548 0.90805 0.53164 0.0
N1802 N 0.69094 0.98023 0.52355 0.0
N1803 N 0.69098 0.92103 0.52716 0.0
H1804 H 0.42171 0.43452 0.74353 0.0
H1805 H 0.30259 0.3732 0.78547 0.0
H1806 H 0.37703 0.47095 0.77357 0.0
H1807 H 0.34698 0.33784 0.75319 0.0
H1808 H 0.32861 0.40919 0.77999 0.0
H1809 H 0.39347 0.3989 0.74558 0.0
C1810 C 0.40592 0.43505 0.75046 0.0
C1811 C 0.40183 0.4558 0.75848 0.0
C1812 C 0.33256 0.39352 0.77403 0.0
C1813 C 0.36936 0.41495 0.761 0.0
C1814 C 0.31771 0.37297 0.77715 0.0
C1815 C 0.32264 0.35244 0.76991 0.0
C1816 C 0.35248 0.39352 0.76362 0.0
C1817 C 0.34248 0.3532 0.75919 0.0
C1818 C 0.38977 0.41467 0.75164 0.0
C1819 C 0.38096 0.45537 0.76723 0.0
N1820 N 0.35667 0.37336 0.75647 0.0
N1821 N 0.36557 0.43528 0.76836 0.0
H1822 H 0.20033 0.59187 0.26489 0.0
H1823 H 0.2296 0.71007 0.21944 0.0
H1824 H 0.16218 0.60268 0.20357 0.0
H1825 H 0.24387 0.70433 0.29118 0.0
H1826 H 0.20851 0.66982 0.21141 0.0
H1827 H 0.22062 0.63221 0.27272 0.0
C1828 C 0.19633 0.60269 0.25297 0.0
C1829 C 0.17954 0.59389 0.23351 0.0
C1830 C 0.21619 0.67743 0.2289 0.0
C1831 C 0.20274 0.64004 0.24243 0.0
C1832 C 0.22829 0.70034 0.2335 0.0
C1833 C 0.23853 0.7105 0.25601 0.0
C1834 C 0.21471 0.66453 0.24686 0.0
C1835 C 0.23619 0.69716 0.2736 0.0
C1836 C 0.20781 0.62573 0.25756 0.0
C1837 C 0.17496 0.60877 0.21878 0.0
N1838 N 0.22467 0.67477 0.26861 0.0
N1839 N 0.1866 0.63115 0.22349 0.0
H1840 H 0.51477 0.6867 0.44087 0.0
H1841 H 0.48155 0.59168 0.52008 0.0
H1842 H 0.4838 0.70175 0.50141 0.0
H1843 H 0.5471 0.60626 0.49425 0.0
H1844 H 0.47551 0.62688 0.50818 0.0
H1845 H 0.52011 0.65232 0.45454 0.0
C1846 C 0.50889 0.68274 0.45698 0.0
C1847 C 0.49882 0.69742 0.46993 0.0
C1848 C 0.49122 0.62236 0.50519 0.0
C1849 C 0.50448 0.65725 0.48555 0.0
C1850 C 0.49466 0.60218 0.51189 0.0
C1851 C 0.51499 0.59586 0.50838 0.0
C1852 C 0.50781 0.63607 0.49409 0.0
C1853 C 0.53126 0.61035 0.49758 0.0
C1854 C 0.51206 0.66307 0.46482 0.0
C1855 C 0.49173 0.69115 0.49081 0.0
N1856 N 0.5272 0.62941 0.49062 0.0
N1857 N 0.49443 0.6715 0.49779 0.0
H1858 H 0.65323 0.30197 0.61732 0.0
H1859 H 0.71453 0.31211 0.74714 0.0
H1860 H 0.62598 0.324 0.67815 0.0
H1861 H 0.73706 0.27972 0.68813 0.0
H1862 H 0.684 0.31943 0.72151 0.0
H1863 H 0.68604 0.29679 0.64218 0.0
C1864 C 0.65424 0.30596 0.63584 0.0
C1865 C 0.63672 0.31343 0.64559 0.0
C1866 C 0.69561 0.31073 0.7141 0.0
C1867 C 0.67422 0.30744 0.67421 0.0
C1868 C 0.71314 0.30654 0.72879 0.0
C1869 C 0.7285 0.29516 0.71993 0.0
C1870 C 0.69327 0.30366 0.69018 0.0
C1871 C 0.72564 0.28844 0.69587 0.0
C1872 C 0.67292 0.30287 0.65005 0.0
C1873 C 0.63896 0.31817 0.66978 0.0
N1874 N 0.70845 0.29278 0.68189 0.0
N1875 N 0.65722 0.31509 0.68314 0.0
H1876 H 0.04713 0.35854 0.96531 0.0
H1877 H 0.98396 0.45325 0.00659 0.0
H1878 H 0.97639 0.34051 0.97824 0.0
H1879 H 0.0566 0.46716 0.00059 0.0
H1880 H 0.98024 0.41237 -0.00274 0.0
H1881 H 0.05057 0.39816 0.97982 0.0
C1882 C 0.03241 0.36286 0.97174 0.0
C1883 C 0.01156 0.34593 0.97085 0.0
C1884 C 0.997 0.42439 -0.00193 0.0
C1885 C 0.01509 0.39207 0.98689 0.0
C1886 C -0.00086 0.44783 0.00334 0.0
C1887 C 0.02063 0.464 0.00433 0.0
C1888 C 0.01645 0.41686 -0.00637 0.0
C1889 C 0.03962 0.45563 -0.0 0.0
C1890 C 0.03432 0.38564 0.97988 0.0
C1891 C 0.99296 0.35281 0.97903 0.0
N1892 N 0.03704 0.4329 -0.00518 0.0
N1893 N 0.99507 0.37531 0.98644 0.0
H1894 H 0.00176 0.81588 0.14251 0.0
H1895 H 0.92502 0.75158 0.23001 0.0
H1896 H 0.01187 0.75778 0.17104 0.0
H1897 H 0.9095 0.80779 0.20169 0.0
H1898 H 0.95591 0.75333 0.20654 0.0
H1899 H 0.96687 0.8129 0.16175 0.0
C1900 C 0.99653 0.80239 0.15252 0.0
C1901 C 0.00994 0.78723 0.15535 0.0
C1902 C 0.94575 0.76528 0.20529 0.0
C1903 C 0.97033 0.78378 0.17741 0.0
C1904 C 0.92787 0.76417 0.21865 0.0
C1905 C 0.91436 0.77945 0.21785 0.0
C1906 C 0.95053 0.78192 0.19094 0.0
C1907 C 0.91954 0.79578 0.20311 0.0
C1908 C 0.97672 0.80075 0.16359 0.0
C1909 C 0.00236 0.77009 0.16859 0.0
N1910 N 0.93724 0.79662 0.19029 0.0
N1911 N 0.98328 0.76894 0.17911 0.0
H1912 H 0.5302 0.33832 0.17699 0.0
H1913 H 0.52892 0.37089 0.04954 0.0
H1914 H 0.51747 0.28923 0.11506 0.0
H1915 H 0.54149 0.42031 0.11123 0.0
H1916 H 0.52437 0.34085 0.07328 0.0
H1917 H 0.5339 0.36852 0.15333 0.0
C1918 C 0.52814 0.33386 0.15842 0.0
C1919 C 0.52352 0.31114 0.14805 0.0
C1920 C 0.5281 0.35826 0.08165 0.0
C1921 C 0.52778 0.34575 0.12076 0.0
C1922 C 0.53083 0.37549 0.06808 0.0
C1923 C 0.53569 0.39831 0.0783 0.0
C1924 C 0.53025 0.36373 0.10575 0.0
C1925 C 0.53752 0.40302 0.10247 0.0
C1926 C 0.53027 0.35114 0.1449 0.0
C1927 C 0.52104 0.30646 0.12387 0.0
N1928 N 0.53487 0.38595 0.11532 0.0
N1929 N 0.52322 0.32356 0.1111 0.0
H1930 H 0.97882 0.33101 0.29626 0.0
H1931 H 0.85087 0.2797 0.32688 0.0
H1932 H 0.96593 0.29448 0.35331 0.0
H1933 H 0.86599 0.32022 0.27312 0.0
H1934 H 0.89231 0.28376 0.33633 0.0
H1935 H 0.9374 0.3257 0.28695 0.0
C1936 C 0.96732 0.32172 0.30682 0.0
C1937 C 0.97616 0.3132 0.32568 0.0
C1938 C 0.88657 0.2918 0.3225 0.0
C1939 C 0.92807 0.30712 0.31501 0.0
C1940 C 0.86284 0.28955 0.3171 0.0
C1941 C 0.85469 0.29972 0.29919 0.0
C1942 C 0.9025 0.30427 0.3099 0.0
C1943 C 0.87125 0.31212 0.28711 0.0
C1944 C 0.94353 0.31875 0.30148 0.0
C1945 C 0.96008 0.30134 0.3386 0.0
N1946 N 0.89419 0.31399 0.29265 0.0
N1947 N 0.93692 0.29871 0.33307 0.0
H1948 H 0.00558 0.69818 0.62293 0.0
H1949 H 0.00294 0.56665 0.6018 0.0
H1950 H 0.00454 0.6583 0.67788 0.0
H1951 H 0.0217 0.61191 0.55265 0.0
H1952 H -0.00176 0.59842 0.62852 0.0
H1953 H 0.00582 0.66508 0.59561 0.0
C1954 C 0.0051 0.68241 0.62926 0.0
C1955 C 0.00511 0.68116 0.65286 0.0
C1956 C 0.00332 0.60135 0.61185 0.0
C1957 C 0.0055 0.64302 0.62148 0.0
C1958 C 0.00596 0.5832 0.59654 0.0
C1959 C 0.01285 0.58656 0.57491 0.0
C1960 C 0.00732 0.62302 0.60543 0.0
C1961 C 0.01652 0.60846 0.56914 0.0
C1962 C 0.00539 0.66351 0.61362 0.0
C1963 C 0.00461 0.66016 0.65991 0.0
N1964 N 0.01369 0.62576 0.58424 0.0
N1965 N 0.00487 0.64199 0.64434 0.0
H1966 H 0.59924 0.78959 0.80731 0.0
H1967 H 0.73752 0.83401 0.81794 0.0
H1968 H 0.64023 0.83722 0.86542 0.0
H1969 H 0.69941 0.76758 0.78219 0.0
H1970 H 0.70157 0.83931 0.83085 0.0
H1971 H 0.63505 0.78511 0.79329 0.0
C1972 C 0.61573 0.79924 0.81706 0.0
C1973 C 0.61656 0.81379 0.83767 0.0
C1974 C 0.70107 0.82361 0.82011 0.0
C1975 C 0.65787 0.80895 0.82143 0.0
C1976 C 0.72161 0.8206 0.81261 0.0
C1977 C 0.72169 0.80027 0.79891 0.0
C1978 C 0.68015 0.80642 0.81352 0.0
C1979 C 0.70037 0.7835 0.79277 0.0
C1980 C 0.6362 0.7966 0.80908 0.0
C1981 C 0.6386 0.82575 0.84953 0.0
N1982 N 0.68057 0.78699 0.79993 0.0
N1983 N 0.65824 0.8232 0.8412 0.0
H1984 H 0.49943 0.5571 0.7123 0.0
H1985 H 0.47004 0.51051 0.57695 0.0
H1986 H 0.43139 0.5185 0.67901 0.0
H1987 H 0.53054 0.56501 0.60627 0.0
H1988 H 0.4569 0.5111 0.61481 0.0
H1989 H 0.51252 0.55814 0.67428 0.0
C1990 C 0.48725 0.54886 0.69703 0.0
C1991 C 0.46426 0.53769 0.6989 0.0
C1992 C 0.47301 0.523 0.61296 0.0
C1993 C 0.47918 0.53866 0.65535 0.0
C1994 C 0.48055 0.52265 0.59132 0.0
C1995 C 0.50142 0.53776 0.58834 0.0
C1996 C 0.48655 0.53836 0.63196 0.0
C1997 C 0.51428 0.55312 0.60769 0.0
C1998 C 0.49472 0.54952 0.67533 0.0
C1999 C 0.44924 0.52734 0.67847 0.0
N2000 N 0.50673 0.55292 0.62868 0.0
N2001 N 0.45698 0.52796 0.65763 0.0
H2002 H 0.79389 0.22417 0.01218 0.0
H2003 H 0.73192 0.21616 0.88436 0.0
H2004 H 0.76584 0.16167 0.96452 0.0
H2005 H 0.77564 0.27898 0.92364 0.0
H2006 H 0.74059 0.19644 0.91584 0.0
H2007 H 0.78458 0.24514 0.98171 0.0
C2008 C 0.78593 0.21489 -0.00471 0.0
C2009 C 0.78062 0.19116 0.99085 0.0
C2010 C 0.74825 0.21456 0.91761 0.0
C2011 C 0.76966 0.21492 0.95619 0.0
C2012 C 0.7433 0.22583 0.89965 0.0
C2013 C 0.75325 0.24922 0.90127 0.0
C2014 C 0.76317 0.22675 0.93745 0.0
C2015 C 0.76747 0.26096 0.92172 0.0
C2016 C 0.78058 0.22685 0.97796 0.0
C2017 C 0.77027 0.17996 0.9687 0.0
N2018 N 0.77211 0.24957 0.93901 0.0
N2019 N 0.76502 0.19193 0.95225 0.0
H2020 H 0.16149 0.51031 0.15577 0.0
H2021 H 0.03612 0.49612 0.08862 0.0
H2022 H 0.09806 0.47239 0.17611 0.0
H2023 H 0.09936 0.53869 0.07221 0.0
H2024 H 0.05895 0.48222 0.11698 0.0
H2025 H 0.13954 0.51447 0.12032 0.0
C2026 C 0.14305 0.50231 0.15248 0.0
C2027 C 0.13148 0.49137 0.16905 0.0
C2028 C 0.06781 0.49455 0.1071 0.0
C2029 C 0.10626 0.49648 0.12894 0.0
C2030 C 0.05478 0.50261 0.09104 0.0
C2031 C 0.06581 0.51889 0.07833 0.0
C2032 C 0.09203 0.50281 0.11042 0.0
C2033 C 0.09006 0.52643 0.0819 0.0
C2034 C 0.13048 0.50489 0.13236 0.0
C2035 C 0.10757 0.48129 0.1639 0.0
N2036 N 0.10234 0.51841 0.09769 0.0
N2037 N 0.09568 0.48442 0.14447 0.0
H2038 H 0.76451 0.82796 0.46912 0.0
H2039 H 0.82412 0.8329 0.3539 0.0
H2040 H 0.81245 0.88828 0.45553 0.0
H2041 H 0.75426 0.79248 0.35371 0.0
H2042 H 0.82576 0.84745 0.3949 0.0
H2043 H 0.76623 0.80886 0.43025 0.0
C2044 C 0.77567 0.83702 0.45814 0.0
C2045 C 0.78826 0.85975 0.46547 0.0
C2046 C 0.81018 0.8352 0.38589 0.0
C2047 C 0.79057 0.83804 0.4214 0.0
C2048 C 0.80927 0.82682 0.36254 0.0
C2049 C 0.78898 0.81157 0.3503 0.0
C2050 C 0.79086 0.82791 0.39723 0.0
C2051 C 0.7702 0.80437 0.36242 0.0
C2052 C 0.77654 0.8262 0.43598 0.0
C2053 C 0.80233 0.87079 0.45048 0.0
N2054 N 0.77159 0.81256 0.38519 0.0
N2055 N 0.80317 0.85985 0.42925 0.0
H2056 H 0.45942 0.54689 0.84792 0.0
H2057 H 0.53528 0.5066 0.94513 0.0
H2058 H 0.51035 0.51141 0.83322 0.0
H2059 H 0.48806 0.54644 0.96018 0.0
H2060 H 0.52568 0.50735 0.90402 0.0
H2061 H 0.46941 0.54661 0.88907 0.0
C2062 C 0.47281 0.53918 0.8533 0.0
C2063 C 0.48403 0.52917 0.83696 0.0
C2064 C 0.51739 0.51589 0.91632 0.0
C2065 C 0.49542 0.52857 0.88419 0.0
C2066 C 0.5228 0.51538 0.93984 0.0
C2067 C 0.51246 0.52642 0.95627 0.0
C2068 C 0.50148 0.52748 0.90907 0.0
C2069 C 0.49649 0.53763 0.94825 0.0
C2070 C 0.47847 0.53896 0.87684 0.0
C2071 C 0.5012 0.51937 0.8451 0.0
N2072 N 0.49152 0.53787 0.92531 0.0
N2073 N 0.50628 0.51925 0.86805 0.0
H2074 H 0.8204 0.21284 0.1041 0.0
H2075 H 0.79467 0.27824 0.19643 0.0
H2076 H 0.80683 0.16012 0.14643 0.0
H2077 H 0.8093 0.22901 0.23709 0.0
H2078 H 0.80394 0.25708 0.16273 0.0
H2079 H 0.82319 0.2409 0.13798 0.0
C2080 C 0.81829 0.20717 0.12057 0.0
C2081 C 0.81281 0.18401 0.12232 0.0
C2082 C 0.80574 0.25118 0.1791 0.0
C2083 C 0.8151 0.21595 0.16098 0.0
C2084 C 0.80014 0.26316 0.19835 0.0
C2085 C 0.80095 0.25529 0.21958 0.0
C2086 C 0.81224 0.23121 0.18117 0.0
C2087 C 0.80819 0.23565 0.22104 0.0
C2088 C 0.81952 0.22321 0.13987 0.0
C2089 C 0.81062 0.17773 0.14416 0.0
N2090 N 0.81329 0.22418 0.20205 0.0
N2091 N 0.8115 0.19359 0.16257 0.0
H2092 H 0.12687 0.51751 0.30752 0.0
H2093 H 0.04796 0.58285 0.37205 0.0
H2094 H 0.07721 0.54504 0.27193 0.0
H2095 H 0.08056 0.53754 0.40344 0.0
H2096 H 0.06141 0.57197 0.33581 0.0
H2097 H 0.11264 0.52723 0.34368 0.0
C2098 C 0.11289 0.52546 0.30728 0.0
C2099 C 0.10323 0.53051 0.2867 0.0
C2100 C 0.0656 0.56444 0.35067 0.0
C2101 C 0.08713 0.54187 0.32793 0.0
C2102 C 0.0579 0.5706 0.37133 0.0
C2103 C 0.06314 0.56111 0.39083 0.0
C2104 C 0.07877 0.54881 0.34955 0.0
C2105 C 0.07644 0.5456 0.38899 0.0
C2106 C 0.10479 0.53099 0.3279 0.0
C2107 C 0.08514 0.54079 0.28738 0.0
N2108 N 0.08383 0.53995 0.3687 0.0
N2109 N 0.07778 0.54629 0.30772 0.0
H2110 H 0.76162 0.81933 0.59385 0.0
H2111 H 0.80059 0.84704 0.73092 0.0
H2112 H 0.80386 0.88413 0.6301 0.0
H2113 H 0.75609 0.78242 0.69649 0.0
H2114 H 0.80166 0.86062 0.69395 0.0
H2115 H 0.75951 0.80509 0.6308 0.0
C2116 C 0.77055 0.83053 0.60952 0.0
C2117 C 0.78297 0.85298 0.60877 0.0
C2118 C 0.79158 0.84348 0.69442 0.0
C2119 C 0.7805 0.83682 0.65122 0.0
C2120 C 0.79091 0.83568 0.71563 0.0
C2121 C 0.77823 0.81347 0.71699 0.0
C2122 C 0.77955 0.82902 0.67418 0.0
C2123 C 0.76606 0.79967 0.6964 0.0
C2124 C 0.76926 0.82241 0.63064 0.0
C2125 C 0.79409 0.86671 0.62972 0.0
N2126 N 0.76709 0.80762 0.67589 0.0
N2127 N 0.79258 0.85844 0.64997 0.0
H2128 H 0.75393 0.49025 0.53331 0.0
H2129 H 0.65278 0.50675 0.60452 0.0
H2130 H 0.7028 0.43479 0.55186 0.0
H2131 H 0.68897 0.55549 0.5651 0.0
H2132 H 0.67874 0.48339 0.59567 0.0
H2133 H 0.73735 0.51693 0.55484 0.0
C2134 C 0.73926 0.48367 0.54202 0.0
C2135 C 0.72943 0.46026 0.54048 0.0
C2136 C 0.68122 0.49945 0.5894 0.0
C2137 C 0.71056 0.49076 0.56529 0.0
C2138 C 0.66644 0.51279 0.59441 0.0
C2139 C 0.66824 0.53283 0.58499 0.0
C2140 C 0.69805 0.50638 0.57515 0.0
C2141 C 0.68676 0.54017 0.57268 0.0
C2142 C 0.72989 0.49893 0.55437 0.0
C2143 C 0.71065 0.45271 0.55235 0.0
N2144 N 0.70071 0.52676 0.56781 0.0
N2145 N 0.70166 0.46797 0.56414 0.0
H2146 H 0.1875 0.17264 0.49572 0.0
H2147 H 0.11973 0.05011 0.51945 0.0
H2148 H 0.22017 0.11946 0.50462 0.0
H2149 H 0.08591 0.09961 0.49952 0.0
H2150 H 0.15667 0.07493 0.51339 0.0
H2151 H 0.14991 0.14576 0.49608 0.0
C2152 C 0.18674 0.15527 0.49753 0.0
C2153 C 0.20701 0.14833 0.5003 0.0
C2154 C 0.14112 0.08026 0.51019 0.0
C2155 C 0.16412 0.11754 0.50097 0.0
C2156 C 0.12003 0.0661 0.51369 0.0
C2157 C 0.09968 0.0728 0.51013 0.0
C2158 C 0.14188 0.10133 0.50326 0.0
C2159 C 0.10113 0.09372 0.50258 0.0
C2160 C 0.16529 0.13992 0.49776 0.0
C2161 C 0.205 0.12559 0.50253 0.0
N2162 N 0.12185 0.10727 0.49957 0.0
N2163 N 0.18399 0.11107 0.50303 0.0
H2164 H 0.14167 0.96011 0.77168 0.0
H2165 H 0.26775 0.94149 0.76863 0.0
H2166 H 0.20463 0.01481 0.78403 0.0
H2167 H 0.20447 0.88735 0.75043 0.0
H2168 H 0.24501 0.96844 0.77531 0.0
H2169 H 0.16445 0.93305 0.76539 0.0
C2170 C 0.1603 0.96644 0.77318 0.0
C2171 C 0.17124 0.9898 0.77839 0.0
C2172 C 0.23609 0.95067 0.76983 0.0
C2173 C 0.19747 0.95886 0.77111 0.0
C2174 C 0.24908 0.93524 0.76584 0.0
C2175 C 0.23808 0.91202 0.75889 0.0
C2176 C 0.21185 0.94291 0.76694 0.0
C2177 C 0.21379 0.905 0.75605 0.0
C2178 C 0.1733 0.95097 0.76952 0.0
C2179 C 0.19544 -0.00302 0.78005 0.0
N2180 N 0.20153 0.92034 0.76008 0.0
N2181 N 0.20772 0.98159 0.77641 0.0
H2182 H 0.34031 0.92864 0.00529 0.0
H2183 H 0.44666 0.03267 -0.00604 0.0
H2184 H 0.33342 0.9852 0.97188 0.0
H2185 H 0.45374 0.97542 0.02608 0.0
H2186 H 0.40528 0.01476 0.98436 0.0
H2187 H 0.38213 0.94441 0.011 0.0
C2188 C 0.34758 0.94427 -0.00104 0.0
C2189 C 0.33332 0.95572 0.98827 0.0
C2190 C 0.41589 0.00609 -0.00653 0.0
C2191 C 0.38119 0.97395 -0.00506 0.0
C2192 C 0.43951 0.01635 -0.00095 0.0
C2193 C 0.45366 0.00555 0.01091 0.0
C2194 C 0.40632 0.98491 -0.00015 0.0
C2195 C 0.44347 0.98436 0.01694 0.0
C2196 C 0.37148 0.95329 0.00228 0.0
C2197 C 0.34374 0.97585 0.98032 0.0
N2198 N 0.42038 0.97475 0.01138 0.0
N2199 N 0.36707 0.98442 0.98398 0.0
H2200 H 0.79428 0.54919 0.79583 0.0
H2201 H 0.77693 0.67231 0.82156 0.0
H2202 H 0.84627 0.60847 0.83223 0.0
H2203 H 0.73081 0.61745 0.77265 0.0
H2204 H 0.79618 0.64569 0.83564 0.0
H2205 H 0.76565 0.57073 0.79709 0.0
C2206 C 0.79957 0.56659 0.80453 0.0
C2207 C 0.82279 0.57724 0.81351 0.0
C2208 C 0.78154 0.63938 0.82215 0.0
C2209 C 0.79018 0.60189 0.81495 0.0
C2210 C 0.77033 0.65454 0.81422 0.0
C2211 C 0.75245 0.64718 0.79554 0.0
C2212 C 0.77496 0.61672 0.81125 0.0
C2213 C 0.74489 0.62394 0.78668 0.0
C2214 C 0.78323 0.57887 0.80519 0.0
C2215 C 0.82864 0.59973 0.82473 0.0
N2216 N 0.75647 0.60959 0.79432 0.0
N2217 N 0.81251 0.61141 0.82485 0.0
H2218 H 0.82273 0.643 0.07502 0.0
H2219 H 0.91959 0.60066 0.01497 0.0
H2220 H 0.84043 0.65912 0.00903 0.0
H2221 H 0.90296 0.58907 0.08258 0.0
H2222 H 0.89375 0.62521 0.01364 0.0
H2223 H 0.85525 0.62693 0.07953 0.0
C2224 C 0.83373 0.64343 0.06159 0.0
C2225 C 0.82878 0.65221 0.04153 0.0
C2226 C 0.89592 0.61744 0.02883 0.0
C2227 C 0.86593 0.63333 0.04634 0.0
C2228 C 0.91072 0.60347 0.02965 0.0
C2229 C 0.91329 0.59258 0.04884 0.0
C2230 C 0.88359 0.62054 0.04734 0.0
C2231 C 0.90118 0.5967 0.06724 0.0
C2232 C 0.8523 0.63419 0.06414 0.0
C2233 C 0.8437 0.65252 0.02477 0.0
N2234 N 0.88681 0.61022 0.06596 0.0
N2235 N 0.86145 0.64284 0.02738 0.0
H2236 H 0.19521 0.10709 0.80166 0.0
H2237 H 0.20924 0.23425 0.77925 0.0
H2238 H 0.13873 0.13673 0.78983 0.0
H2239 H 0.26797 0.21038 0.80011 0.0
H2240 H 0.18364 0.19822 0.78355 0.0
H2241 H 0.22251 0.14433 0.80223 0.0
C2242 C 0.18853 0.12143 0.79944 0.0
C2243 C 0.16459 0.11869 0.79552 0.0
C2244 C 0.2021 0.20076 0.78728 0.0
C2245 C 0.1957 0.1612 0.79595 0.0
C2246 C 0.21683 0.22141 0.78473 0.0
C2247 C 0.2409 0.2254 0.7892 0.0
C2248 C 0.21133 0.18367 0.79419 0.0
C2249 C 0.24954 0.20803 0.79643 0.0
C2250 C 0.20413 0.14265 0.79971 0.0
C2251 C 0.15697 0.13789 0.79274 0.0
N2252 N 0.23475 0.18783 0.79857 0.0
N2253 N 0.17243 0.15819 0.79285 0.0
H2254 H 0.33778 0.96813 0.29695 0.0
H2255 H 0.34241 0.84032 0.26364 0.0
H2256 H 0.39277 0.95014 0.26437 0.0
H2257 H 0.28528 0.85899 0.29125 0.0
H2258 H 0.36207 0.8804 0.26535 0.0
H2259 H 0.31928 0.92817 0.29647 0.0
C2260 C 0.34602 0.95578 0.28969 0.0
C2261 C 0.36689 0.96253 0.28064 0.0
C2262 C 0.34526 0.87572 0.27108 0.0
C2263 C 0.34568 0.9166 0.28006 0.0
C2264 C 0.33403 0.85284 0.27017 0.0
C2265 C 0.31215 0.8463 0.27732 0.0
C2266 C 0.33455 0.89216 0.27924 0.0
C2267 C 0.30211 0.86325 0.28554 0.0
C2268 C 0.33539 0.93292 0.28942 0.0
C2269 C 0.37669 0.94571 0.2715 0.0
N2270 N 0.3134 0.88541 0.28625 0.0
N2271 N 0.36598 0.92348 0.27143 0.0
H2272 H 0.57044 0.39076 0.61246 0.0
H2273 H 0.52078 0.44901 0.51161 0.0
H2274 H 0.54613 0.35459 0.54348 0.0
H2275 H 0.56285 0.48709 0.57438 0.0
H2276 H 0.52708 0.41403 0.52334 0.0
H2277 H 0.56499 0.42532 0.59947 0.0
C2278 C 0.56392 0.38998 0.59453 0.0
C2279 C 0.55882 0.36941 0.57915 0.0
C2280 C 0.53499 0.43004 0.53453 0.0
C2281 C 0.55219 0.40958 0.56399 0.0
C2282 C 0.53137 0.45014 0.52784 0.0
C2283 C 0.54128 0.47139 0.5419 0.0
C2284 C 0.54838 0.43082 0.55572 0.0
C2285 C 0.55483 0.47137 0.56278 0.0
C2286 C 0.56085 0.40989 0.58709 0.0
C2287 C 0.55043 0.36987 0.55608 0.0
N2288 N 0.5578 0.4516 0.56902 0.0
N2289 N 0.54726 0.38944 0.54931 0.0
H2290 H 0.4325 0.73721 0.35785 0.0
H2291 H 0.32069 0.78362 0.34667 0.0
H2292 H 0.4141 0.77691 0.41442 0.0
H2293 H 0.33942 0.74231 0.29136 0.0
H2294 H 0.35221 0.77835 0.37287 0.0
H2295 H 0.39582 0.73504 0.33491 0.0
C2296 C 0.4203 0.7448 0.36571 0.0
C2297 C 0.42612 0.75681 0.38825 0.0
C2298 C 0.34932 0.7703 0.35504 0.0
C2299 C 0.38437 0.75539 0.36164 0.0
C2300 C 0.33129 0.77332 0.34001 0.0
C2301 C 0.32737 0.76355 0.3166 0.0
C2302 C 0.36368 0.75742 0.34672 0.0
C2303 C 0.34174 0.75031 0.30915 0.0
C2304 C 0.39945 0.74382 0.3525 0.0
C2305 C 0.41002 0.767 0.39732 0.0
N2306 N 0.35925 0.74777 0.32406 0.0
N2307 N 0.39001 0.7663 0.38391 0.0
H2308 H 0.07674 0.73304 0.05046 0.0
H2309 H 0.02081 0.6035 0.06738 0.0
H2310 H 0.03927 0.71259 0.10602 0.0
H2311 H 0.06559 0.61981 0.01589 0.0
H2312 H 0.02495 0.64369 0.07882 0.0
H2313 H 0.07011 0.6925 0.03442 0.0
C2314 C 0.06666 0.72012 0.05896 0.0
C2315 C 0.05839 0.72636 0.07957 0.0
C2316 C 0.03395 0.63863 0.065 0.0
C2317 C 0.05106 0.67989 0.06156 0.0
C2318 C 0.03161 0.61548 0.05843 0.0
C2319 C 0.043 0.60791 0.04068 0.0
C2320 C 0.04778 0.65485 0.05384 0.0
C2321 C 0.05656 0.62466 0.02975 0.0
C2322 C 0.0631 0.69695 0.04996 0.0
C2323 C 0.04592 0.70873 0.09008 0.0
N2324 N 0.0586 0.64723 0.0365 0.0
N2325 N 0.04272 0.68659 0.08107 0.0
H2326 H 0.08433 0.29716 0.94006 0.0
H2327 H 0.13376 0.25914 0.82496 0.0
H2328 H 0.0446 0.24595 0.88394 0.0
H2329 H 0.16582 0.32276 0.86966 0.0
H2330 H 0.10386 0.25081 0.85001 0.0
H2331 H 0.11731 0.30353 0.91802 0.0
C2332 C 0.08266 0.28709 0.92327 0.0
C2333 C 0.06169 0.2711 0.91374 0.0
C2334 C 0.11746 0.26658 0.8544 0.0
C2335 C 0.09916 0.27821 0.88859 0.0
C2336 C 0.13462 0.27129 0.84016 0.0
C2337 C 0.15228 0.29172 0.84515 0.0
C2338 C 0.11799 0.28231 0.87396 0.0
C2339 C 0.15235 0.30693 0.865 0.0
C2340 C 0.10139 0.29082 0.91066 0.0
C2341 C 0.06039 0.25857 0.89187 0.0
N2342 N 0.13547 0.30192 0.8787 0.0
N2343 N 0.07881 0.26239 0.88007 0.0
H2344 H 0.55658 0.77949 0.94149 0.0
H2345 H 0.51419 0.64542 0.94286 0.0
H2346 H 0.52782 0.73023 0.88024 0.0
H2347 H 0.54187 0.69537 0.00385 0.0
H2348 H 0.51945 0.67593 0.91955 0.0
H2349 H 0.55151 0.74877 0.96442 0.0
C2350 C 0.54919 0.76221 0.93283 0.0
C2351 C 0.54262 0.75751 0.90884 0.0
C2352 C 0.52435 0.68022 0.93804 0.0
C2353 C 0.53675 0.72204 0.93514 0.0
C2354 C 0.52148 0.66276 0.95139 0.0
C2355 C 0.52754 0.6677 0.97548 0.0
C2356 C 0.53344 0.7029 0.94874 0.0
C2357 C 0.5366 0.69063 0.98545 0.0
C2358 C 0.54629 0.74463 0.94597 0.0
C2359 C 0.53314 0.7347 0.89866 0.0
N2360 N 0.53927 0.70728 0.97209 0.0
N2361 N 0.5305 0.71786 0.91183 0.0
H2362 H 0.09177 0.7301 0.69636 0.0
H2363 H 0.21486 0.80944 0.75 0.0
H2364 H 0.09736 0.79332 0.73964 0.0
H2365 H 0.19925 0.73774 0.75207 0.0
H2366 H 0.17344 0.80528 0.73949 0.0
H2367 H 0.1325 0.73366 0.7099 0.0
C2368 C 0.10156 0.74473 0.70874 0.0
C2369 C 0.09106 0.7614 0.71694 0.0
C2370 C 0.17911 0.79049 0.74227 0.0
C2371 C 0.13797 0.76586 0.73199 0.0
C2372 C 0.20275 0.79278 0.74811 0.0
C2373 C 0.21062 0.77388 0.75188 0.0
C2374 C 0.16314 0.76901 0.73941 0.0
C2375 C 0.19401 0.75277 0.74938 0.0
C2376 C 0.12478 0.74669 0.7165 0.0
C2377 C 0.10467 0.78 0.73299 0.0
N2378 N 0.17114 0.75084 0.74297 0.0
N2379 N 0.12749 0.78192 0.73971 0.0
H2380 H 0.05677 0.41384 0.3804 0.0
H2381 H 0.04542 0.46118 0.51043 0.0
H2382 H 0.05236 0.37296 0.43465 0.0
H2383 H 0.03262 0.4946 0.45266 0.0
H2384 H 0.05205 0.43045 0.48386 0.0
H2385 H 0.05223 0.4452 0.40751 0.0
C2386 C 0.05504 0.41146 0.39805 0.0
C2387 C 0.05495 0.39058 0.40515 0.0
C2388 C 0.0478 0.44451 0.477 0.0
C2389 C 0.04969 0.42669 0.43646 0.0
C2390 C 0.04407 0.46214 0.49218 0.0
C2391 C 0.03836 0.48059 0.48385 0.0
C2392 C 0.0461 0.44533 0.45323 0.0
C2393 C 0.03684 0.48074 0.45995 0.0
C2394 C 0.05233 0.4294 0.41353 0.0
C2395 C 0.05252 0.38865 0.42831 0.0
N2396 N 0.04074 0.46348 0.44556 0.0
N2397 N 0.05002 0.40642 0.44309 0.0
H2398 H 0.44053 0.22209 0.24767 0.0
H2399 H 0.35988 0.30639 0.25571 0.0
H2400 H 0.45137 0.28107 0.21391 0.0
H2401 H 0.33755 0.23812 0.27025 0.0
H2402 H 0.39483 0.29864 0.24336 0.0
H2403 H 0.40461 0.2288 0.25883 0.0
C2404 C 0.43544 0.23649 0.24258 0.0
C2405 C 0.44926 0.25102 0.22975 0.0
C2406 C 0.38232 0.2853 0.24921 0.0
C2407 C 0.40781 0.25896 0.24285 0.0
C2408 C 0.36228 0.28973 0.2564 0.0
C2409 C 0.34551 0.27293 0.26418 0.0
C2410 C 0.38613 0.26394 0.25 0.0
C2411 C 0.34983 0.25165 0.26442 0.0
C2412 C 0.41479 0.24026 0.24894 0.0
C2413 C 0.44144 0.26933 0.22371 0.0
N2414 N 0.36969 0.24785 0.25763 0.0
N2415 N 0.42146 0.27284 0.23042 0.0
H2416 H 0.55531 0.54541 0.34298 0.0
H2417 H 0.59071 0.5346 0.47467 0.0
H2418 H 0.62226 0.53785 0.36672 0.0
H2419 H 0.52201 0.53129 0.44361 0.0
H2420 H 0.60373 0.53629 0.43645 0.0
H2421 H 0.54393 0.54085 0.38069 0.0
C2422 C 0.56768 0.54272 0.35613 0.0
C2423 C 0.58985 0.54208 0.35155 0.0
C2424 C 0.5858 0.53508 0.43811 0.0
C2425 C 0.57681 0.53692 0.3954 0.0
C2426 C 0.57837 0.53414 0.4599 0.0
C2427 C 0.55522 0.53291 0.4625 0.0
C2428 C 0.56999 0.5349 0.41886 0.0
C2429 C 0.54003 0.53234 0.44269 0.0
C2430 C 0.56112 0.54007 0.37778 0.0
C2431 C 0.60497 0.5384 0.36943 0.0
N2432 N 0.54768 0.53343 0.42193 0.0
N2433 N 0.59825 0.53611 0.39064 0.0
H2434 H 0.25643 0.83592 0.03371 0.0
H2435 H 0.33744 0.8282 0.14586 0.0
H2436 H 0.31011 0.89273 0.07217 0.0
H2437 H 0.28182 0.77219 0.10914 0.0
H2438 H 0.33094 0.85081 0.11621 0.0
H2439 H 0.2682 0.81132 0.0588 0.0
C2440 C 0.27072 0.84322 0.04744 0.0
C2441 C 0.2822 0.86643 0.05102 0.0
C2442 C 0.32034 0.83349 0.11447 0.0
C2443 C 0.2958 0.83837 0.07973 0.0
C2444 C 0.32419 0.8205 0.13127 0.0
C2445 C 0.31006 0.79833 0.12997 0.0
C2446 C 0.30219 0.82425 0.09628 0.0
C2447 C 0.2929 0.78933 0.1109 0.0
C2448 C 0.27747 0.82915 0.06171 0.0
C2449 C 0.3007 0.87495 0.06892 0.0
N2450 N 0.28932 0.80239 0.09488 0.0
N2451 N 0.30686 0.86092 0.0827 0.0
H2452 H 0.90996 0.55322 0.87154 0.0
H2453 H 0.02784 0.54768 0.94084 0.0
H2454 H 0.97384 0.55943 0.84281 0.0
H2455 H 0.96757 0.55016 0.97353 0.0
H2456 H 0.00832 0.55366 0.90512 0.0
H2457 H 0.93082 0.55431 0.90962 0.0
C2458 C 0.92838 0.55511 0.87327 0.0
C2459 C 0.9401 0.55591 0.85391 0.0
C2460 C -0.00063 0.55303 0.92012 0.0
C2461 C 0.96393 0.55699 0.89721 0.0
C2462 C 0.01049 0.54951 0.94052 0.0
C2463 C -0.00074 0.54822 0.96014 0.0
C2464 C 0.97672 0.55507 0.91921 0.0
C2465 C 0.97685 0.55094 0.95876 0.0
C2466 C 0.94026 0.55567 0.89497 0.0
C2467 C 0.96399 0.55841 0.85716 0.0
N2468 N 0.96622 0.55406 0.93855 0.0
N2469 N 0.97503 0.55865 0.87831 0.0
H2470 H 0.30327 0.24661 0.59481 0.0
H2471 H 0.23853 0.27578 0.702 0.0
H2472 H 0.23117 0.21504 0.59669 0.0
H2473 H 0.30987 0.27479 0.7094 0.0
H2474 H 0.23567 0.26359 0.66017 0.0
H2475 H 0.30581 0.26759 0.63374 0.0
C2476 C 0.28786 0.24459 0.60314 0.0
C2477 C 0.26701 0.22903 0.59259 0.0
C2478 C 0.25199 0.26635 0.67099 0.0
C2479 C 0.26975 0.25291 0.63689 0.0
C2480 C 0.25365 0.27335 0.69478 0.0
C2481 C 0.27438 0.27605 0.70917 0.0
C2482 C 0.27138 0.26261 0.66154 0.0
C2483 C 0.29346 0.27262 0.69894 0.0
C2484 C 0.28935 0.25638 0.62539 0.0
C2485 C 0.2476 0.2268 0.6043 0.0
N2486 N 0.29151 0.26611 0.67579 0.0
N2487 N 0.24944 0.23854 0.62581 0.0
H2488 H 0.56965 0.51723 0.21616 0.0
H2489 H 0.57772 0.57568 0.10265 0.0
H2490 H 0.62985 0.56908 0.20701 0.0
H2491 H 0.53535 0.50777 0.10246 0.0
H2492 H 0.5929 0.57734 0.14322 0.0
H2493 H 0.55281 0.51715 0.17655 0.0
C2494 C 0.57929 0.52863 0.20586 0.0
C2495 C 0.60125 0.54308 0.21489 0.0
C2496 C 0.58019 0.56214 0.13427 0.0
C2497 C 0.58193 0.54334 0.16971 0.0
C2498 C 0.57143 0.56124 0.11118 0.0
C2499 C 0.5553 0.54153 0.09909 0.0
C2500 C 0.57246 0.54337 0.14547 0.0
C2501 C 0.54787 0.52326 0.11102 0.0
C2502 C 0.56969 0.52855 0.18326 0.0
C2503 C 0.61295 0.55752 0.20072 0.0
N2504 N 0.55643 0.52464 0.13351 0.0
N2505 N 0.60312 0.55737 0.17892 0.0
H2506 H 0.23884 0.84981 0.94551 0.0
H2507 H 0.25039 0.84133 0.81178 0.0
H2508 H 0.23204 0.90166 0.90491 0.0
H2509 H 0.26614 0.79395 0.85435 0.0
H2510 H 0.23665 0.8599 0.84408 0.0
H2511 H 0.24083 0.82529 0.91053 0.0
C2512 C 0.23732 0.85591 0.92918 0.0
C2513 C 0.23576 0.87804 0.9282 0.0
C2514 C 0.24298 0.84537 0.84634 0.0
C2515 C 0.23829 0.85008 0.88816 0.0
C2516 C 0.25095 0.83476 0.82792 0.0
C2517 C 0.2598 0.81621 0.83045 0.0
C2518 C 0.24389 0.83746 0.86753 0.0
C2519 C 0.25973 0.80834 0.85169 0.0
C2520 C 0.23856 0.8419 0.90923 0.0
C2521 C 0.23353 0.88485 0.90653 0.0
N2522 N 0.25206 0.81913 0.8695 0.0
N2523 N 0.23523 0.87104 0.88738 0.0
H2524 H 0.92954 0.57997 0.74068 0.0
H2525 H 0.92749 0.48874 0.63144 0.0
H2526 H 0.8685 0.5267 0.70993 0.0
H2527 H 0.98854 0.53999 0.66591 0.0
H2528 H 0.90429 0.50495 0.65688 0.0
H2529 H 0.94972 0.56906 0.70933 0.0
C2530 C 0.92023 0.56627 0.72703 0.0
C2531 C 0.89745 0.55401 0.72806 0.0
C2532 C 0.92276 0.51265 0.65883 0.0
C2533 C 0.92058 0.54105 0.69242 0.0
C2534 C 0.93599 0.50337 0.64438 0.0
C2535 C 0.96 0.51285 0.64681 0.0
C2536 C 0.93364 0.53158 0.67571 0.0
C2537 C 0.97016 0.53181 0.6638 0.0
C2538 C 0.93181 0.55993 0.70922 0.0
C2539 C 0.88614 0.53652 0.70986 0.0
N2540 N 0.95693 0.54052 0.67761 0.0
N2541 N 0.89797 0.53029 0.69294 0.0
H2542 H 0.3196 0.21558 0.44764 0.0
H2543 H 0.2548 0.25821 0.34776 0.0
H2544 H 0.26443 0.24611 0.4594 0.0
H2545 H 0.32892 0.27193 0.3535 0.0
H2546 H 0.25604 0.24705 0.38604 0.0
H2547 H 0.32193 0.23012 0.41071 0.0
C2548 C 0.30813 0.22548 0.44257 0.0
C2549 C 0.29183 0.22969 0.45668 0.0
C2550 C 0.27204 0.25252 0.37894 0.0
C2551 C 0.29401 0.24574 0.41431 0.0
C2552 C 0.27136 0.25877 0.35704 0.0
C2553 C 0.2918 0.26604 0.34741 0.0
C2554 C 0.29325 0.2529 0.39119 0.0
C2555 C 0.31278 0.26654 0.36034 0.0
C2556 C 0.30952 0.23378 0.42155 0.0
C2557 C 0.27735 0.24256 0.44919 0.0
N2558 N 0.31296 0.25978 0.3815 0.0
N2559 N 0.27853 0.2498 0.4284 0.0
H2560 H 0.33902 0.6215 0.49809 0.0
H2561 H 0.36924 0.5042 0.46938 0.0
H2562 H 0.32132 0.56411 0.53407 0.0
H2563 H 0.40723 0.56495 0.44626 0.0
H2564 H 0.34226 0.52394 0.48247 0.0
H2565 H 0.35716 0.59969 0.47146 0.0
C2566 C 0.33899 0.60441 0.50042 0.0
C2567 C 0.32894 0.59472 0.51853 0.0
C2568 C 0.35633 0.5329 0.47424 0.0
C2569 C 0.34874 0.56967 0.48786 0.0
C2570 C 0.37168 0.52148 0.4663 0.0
C2571 C 0.39126 0.53308 0.45737 0.0
C2572 C 0.36064 0.55618 0.4736 0.0
C2573 C 0.39302 0.55557 0.454 0.0
C2574 C 0.34915 0.59198 0.48516 0.0
C2575 C 0.32914 0.57246 0.52063 0.0
N2576 N 0.37827 0.56664 0.46272 0.0
N2577 N 0.33882 0.56074 0.5055 0.0
H2578 H 0.85303 0.97419 0.5588 0.0
H2579 H 0.97623 0.96713 0.52967 0.0
H2580 H 0.8694 0.91068 0.54307 0.0
H2581 H 0.96201 0.02932 0.55745 0.0
H2582 H 0.93838 0.94585 0.5372 0.0
H2583 H 0.89386 0.99424 0.56204 0.0
C2584 C 0.86538 0.96445 0.55647 0.0
C2585 C 0.85791 0.94079 0.55052 0.0
C2586 C 0.94362 0.96413 0.54186 0.0
C2587 C 0.90468 0.96367 0.55357 0.0
C2588 C 0.96519 0.97634 0.53743 0.0
C2589 C 0.9722 0.00013 0.54262 0.0
C2590 C 0.92882 0.97576 0.55136 0.0
C2591 C 0.95728 0.01105 0.55296 0.0
C2592 C 0.88869 0.97591 0.55826 0.0
C2593 C 0.87454 0.92894 0.54775 0.0
N2594 N 0.93622 -0.0012 0.55676 0.0
N2595 N 0.89719 0.94056 0.54887 0.0
H2596 H 0.92923 0.11681 0.29255 0.0
H2597 H 0.80233 0.13489 0.28793 0.0
H2598 H 0.86621 0.06313 0.27019 0.0
H2599 H 0.86486 0.18917 0.31055 0.0
H2600 H 0.8256 0.10833 0.28232 0.0
H2601 H 0.90618 0.14355 0.29991 0.0
C2602 C 0.91056 0.11063 0.28921 0.0
C2603 C 0.89966 0.08767 0.2807 0.0
C2604 C 0.83427 0.12604 0.28856 0.0
C2605 C 0.87315 0.1182 0.28909 0.0
C2606 C 0.82095 0.14123 0.29194 0.0
C2607 C 0.83158 0.16438 0.29978 0.0
C2608 C 0.85849 0.13393 0.29301 0.0
C2609 C 0.85586 0.17156 0.30422 0.0
C2610 C 0.89741 0.12591 0.29342 0.0
C2611 C 0.87539 0.08066 0.27672 0.0
N2612 N 0.86846 0.15642 0.30077 0.0
N2613 N 0.863 0.09583 0.28092 0.0
H2614 H 0.70749 0.14355 0.07259 0.0
H2615 H 0.60089 0.052 -0.00271 0.0
H2616 H 0.71596 0.09069 0.02183 0.0
H2617 H 0.5984 0.07618 0.06859 0.0
H2618 H 0.64225 0.07138 0.00279 0.0
H2619 H 0.66596 0.12405 0.06828 0.0
C2620 C 0.70059 0.12789 0.06057 0.0
C2621 C 0.71503 0.11861 0.04759 0.0
C2622 C 0.63261 0.07234 0.01721 0.0
C2623 C 0.66804 0.0967 0.04237 0.0
C2624 C 0.60909 0.06138 0.01409 0.0
C2625 C 0.59638 0.06245 0.03257 0.0
C2626 C 0.64328 0.08483 0.03879 0.0
C2627 C 0.60774 0.07481 0.05399 0.0
C2628 C 0.67705 0.1168 0.0582 0.0
C2629 C 0.70537 0.0983 0.03226 0.0
N2630 N 0.63062 0.08575 0.0565 0.0
N2631 N 0.6824 0.08811 0.02991 0.0
H2632 H 0.18094 0.46169 0.28874 0.0
H2633 H 0.31115 0.45505 0.30817 0.0
H2634 H 0.23831 0.50994 0.2689 0.0
H2635 H 0.25364 0.4081 0.32933 0.0
H2636 H 0.28569 0.47832 0.29822 0.0
H2637 H 0.20812 0.44453 0.3079 0.0
C2638 C 0.19927 0.46874 0.28851 0.0
C2639 C 0.20737 0.48708 0.27698 0.0
C2640 C 0.27874 0.4631 0.30537 0.0
C2641 C 0.23858 0.46754 0.29884 0.0
C2642 C 0.29326 0.44982 0.31102 0.0
C2643 C 0.28446 0.4295 0.31937 0.0
C2644 C 0.25524 0.4559 0.30793 0.0
C2645 C 0.26123 0.42369 0.32307 0.0
C2646 C 0.21479 0.45899 0.29951 0.0
C2647 C 0.23131 0.49568 0.27742 0.0
N2648 N 0.24736 0.43667 0.31704 0.0
N2649 N 0.24607 0.4857 0.28799 0.0
H2650 H 0.19655 0.38723 0.0304 0.0
H2651 H 0.18698 0.5117 0.01582 0.0
H2652 H 0.25339 0.44816 0.04605 0.0
H2653 H 0.12684 0.45502 0.01244 0.0
H2654 H 0.21154 0.48725 0.02389 0.0
H2655 H 0.17041 0.41052 0.02143 0.0
C2656 C 0.2035 0.40543 0.03201 0.0
C2657 C 0.22718 0.41574 0.03893 0.0
C2658 C 0.19296 0.48009 0.02139 0.0
C2659 C 0.19761 0.44231 0.02858 0.0
C2660 C 0.17894 0.49404 0.01659 0.0
C2661 C 0.15482 0.48542 0.01345 0.0
C2662 C 0.18289 0.45724 0.02298 0.0
C2663 C 0.14537 0.46243 0.015 0.0
C2664 C 0.18862 0.41869 0.02689 0.0
C2665 C 0.23529 0.4394 0.04074 0.0
N2666 N 0.15942 0.4491 0.01962 0.0
N2667 N 0.22059 0.45179 0.03553 0.0
H2668 H 0.92101 0.93809 0.24081 0.0
H2669 H 0.80066 0.87601 0.27997 0.0
H2670 H 0.87636 0.97409 0.2716 0.0
H2671 H 0.8453 0.84088 0.24783 0.0
H2672 H 0.82704 0.91211 0.27541 0.0
H2673 H 0.89238 0.90234 0.2416 0.0
C2674 C 0.90515 0.93851 0.24766 0.0
C2675 C 0.90119 0.95918 0.25626 0.0
C2676 C 0.83097 0.89648 0.26925 0.0
C2677 C 0.86824 0.91816 0.2573 0.0
C2678 C 0.8159 0.87585 0.27183 0.0
C2679 C 0.82078 0.85534 0.26436 0.0
C2680 C 0.8511 0.89661 0.25918 0.0
C2681 C 0.84081 0.85622 0.25392 0.0
C2682 C 0.88877 0.91805 0.2481 0.0
C2683 C 0.88022 0.95859 0.26484 0.0
N2684 N 0.85524 0.87647 0.25175 0.0
N2685 N 0.8646 0.93842 0.26524 0.0
H2686 H 0.67683 0.10414 0.69549 0.0
H2687 H 0.73221 0.21318 0.78867 0.0
H2688 H 0.69392 0.09806 0.76666 0.0
H2689 H 0.75724 0.20655 0.72294 0.0
H2690 H 0.71008 0.17294 0.77993 0.0
H2691 H 0.69866 0.14447 0.70424 0.0
C2692 C 0.68512 0.11133 0.71291 0.0
C2693 C 0.68381 0.09785 0.73036 0.0
C2694 C 0.72047 0.18042 0.76751 0.0
C2695 C 0.708 0.14361 0.74047 0.0
C2696 C 0.73298 0.20324 0.77243 0.0
C2697 C 0.74663 0.21298 0.75655 0.0
C2698 C 0.72112 0.16764 0.74631 0.0
C2699 C 0.7471 0.19951 0.73572 0.0
C2700 C 0.69755 0.13418 0.71784 0.0
C2701 C 0.69479 0.10789 0.75269 0.0
N2702 N 0.73431 0.17752 0.73106 0.0
N2703 N 0.70627 0.13027 0.75719 0.0
loop_
_geom_bond_atom_site_label_1
_geom_bond_atom_site_label_2
_geom_bond_distance
_geom_bond_site_symmetry_2
_ccdc_geom_bond_type
C0 O1 1.306 1_655 S
C0 O3 1.160 1_655 S
O1 C0 1.306 1_455 S
O1 Cd2 2.228 . S
Cd2 O1 2.228 . S
Cd2 O6 2.273 . S
Cd2 O10 2.277 . S
O3 C0 1.160 1_455 S
O3 Cd4 2.203 . S
Cd4 O3 2.203 . S
Cd4 O6 2.411 . S
Cd4 O7 2.333 . S
Cd4 O8 2.352 . S
Cd4 O12 2.277 . S
Cd4 O13 2.356 . S
C5 O10 1.209 . S
C5 O12 1.226 . S
O6 Cd2 2.273 . S
O6 Cd4 2.411 . S
O6 C9 1.320 . S
O7 Cd4 2.333 . S
O7 C9 1.214 . S
O8 Cd4 2.352 . S
O8 C11 1.258 . S
C9 O6 1.320 . S
C9 O7 1.214 . S
O10 Cd2 2.277 . S
O10 C5 1.209 . S
C11 O8 1.258 . S
C11 O13 1.282 . S
O12 Cd4 2.277 . S
O12 C5 1.226 . S
O13 Cd4 2.356 . S
O13 C11 1.282 . S
C14 O15 1.319 . S
C14 O17 1.160 . S
O15 C14 1.319 . S
O15 Cd16 2.210 1_655 S
Cd16 O15 2.210 1_455 S
Cd16 O20 2.273 . S
Cd16 O24 2.277 . S
O17 C14 1.160 . S
O17 Cd18 2.203 1_655 S
Cd18 O17 2.203 1_455 S
Cd18 O20 2.411 . S
Cd18 O21 2.333 . S
Cd18 O22 2.352 . S
Cd18 O26 2.277 . S
Cd18 O27 2.356 . S
C19 O24 1.209 . S
C19 O26 1.226 . S
O20 Cd16 2.273 . S
O20 Cd18 2.411 . S
O20 C23 1.320 . S
O21 Cd18 2.333 . S
O21 C23 1.214 . S
O22 Cd18 2.352 . S
O22 C25 1.258 . S
C23 O20 1.320 . S
C23 O21 1.214 . S
O24 Cd16 2.277 . S
O24 C19 1.209 . S
C25 O22 1.258 . S
C25 O27 1.282 . S
O26 Cd18 2.277 . S
O26 C19 1.226 . S
O27 Cd18 2.356 . S
O27 C25 1.282 . S
C28 O29 1.306 . S
C28 O31 1.160 . S
O29 C28 1.306 . S
O29 Cd30 2.228 . S
Cd30 O29 2.228 . S
Cd30 O34 2.273 . S
Cd30 O38 2.277 . S
O31 C28 1.160 . S
O31 Cd32 2.203 . S
Cd32 O31 2.203 . S
Cd32 O34 2.411 . S
Cd32 O35 2.333 . S
Cd32 O36 2.352 . S
Cd32 O40 2.277 . S
Cd32 O41 2.356 . S
C33 O38 1.209 . S
C33 O40 1.226 . S
O34 Cd30 2.273 . S
O34 Cd32 2.411 . S
O34 C37 1.320 . S
O35 Cd32 2.333 . S
O35 C37 1.214 . S
O36 Cd32 2.352 . S
O36 C39 1.258 . S
C37 O34 1.320 . S
C37 O35 1.214 . S
O38 Cd30 2.277 . S
O38 C33 1.209 . S
C39 O36 1.258 . S
C39 O41 1.282 . S
O40 Cd32 2.277 . S
O40 C33 1.226 . S
O41 Cd32 2.356 . S
O41 C39 1.282 . S
C42 O43 1.306 . S
C42 O45 1.160 . S
O43 C42 1.306 . S
O43 Cd44 2.228 . S
Cd44 O43 2.228 . S
Cd44 O48 2.273 . S
Cd44 O52 2.277 . S
O45 C42 1.160 . S
O45 Cd46 2.203 . S
Cd46 O45 2.203 . S
Cd46 O48 2.411 . S
Cd46 O49 2.333 . S
Cd46 O50 2.352 . S
Cd46 O54 2.277 . S
Cd46 O55 2.356 . S
C47 O52 1.209 . S
C47 O54 1.226 . S
O48 Cd44 2.273 . S
O48 Cd46 2.411 . S
O48 C51 1.320 . S
O49 Cd46 2.333 . S
O49 C51 1.214 . S
O50 Cd46 2.352 . S
O50 C53 1.258 . S
C51 O48 1.320 . S
C51 O49 1.214 . S
O52 Cd44 2.277 . S
O52 C47 1.209 . S
C53 O50 1.258 . S
C53 O55 1.282 . S
O54 Cd46 2.277 . S
O54 C47 1.226 . S
O55 Cd46 2.356 . S
O55 C53 1.282 . S
C56 O57 1.306 . S
C56 O59 1.160 . S
O57 C56 1.306 . S
O57 Cd58 2.228 . S
Cd58 O57 2.228 . S
Cd58 O62 2.273 . S
Cd58 O66 2.277 . S
O59 C56 1.160 . S
O59 Cd60 2.203 . S
Cd60 O59 2.203 . S
Cd60 O62 2.411 . S
Cd60 O63 2.333 . S
Cd60 O64 2.352 . S
Cd60 O68 2.277 . S
Cd60 O69 2.356 . S
C61 O66 1.209 . S
C61 O68 1.226 . S
O62 Cd58 2.273 . S
O62 Cd60 2.411 . S
O62 C65 1.320 . S
O63 Cd60 2.333 . S
O63 C65 1.214 . S
O64 Cd60 2.352 . S
O64 C67 1.258 . S
C65 O62 1.320 . S
C65 O63 1.214 . S
O66 Cd58 2.277 . S
O66 C61 1.209 . S
C67 O64 1.258 . S
C67 O69 1.282 . S
O68 Cd60 2.277 . S
O68 C61 1.226 . S
O69 Cd60 2.356 . S
O69 C67 1.282 . S
C70 O71 1.306 . S
C70 O73 1.160 . S
O71 C70 1.306 . S
O71 Cd72 2.228 . S
Cd72 O71 2.228 . S
Cd72 O76 2.273 . S
Cd72 O80 2.277 . S
O73 C70 1.160 . S
O73 Cd74 2.203 . S
Cd74 O73 2.203 . S
Cd74 O76 2.411 . S
Cd74 O77 2.333 . S
Cd74 O78 2.352 . S
Cd74 O82 2.277 . S
Cd74 O83 2.356 . S
C75 O80 1.209 . S
C75 O82 1.226 . S
O76 Cd72 2.273 . S
O76 Cd74 2.411 . S
O76 C79 1.320 . S
O77 Cd74 2.333 . S
O77 C79 1.214 . S
O78 Cd74 2.352 . S
O78 C81 1.258 . S
C79 O76 1.320 . S
C79 O77 1.214 . S
O80 Cd72 2.277 . S
O80 C75 1.209 . S
C81 O78 1.258 . S
C81 O83 1.282 . S
O82 Cd74 2.277 . S
O82 C75 1.226 . S
O83 Cd74 2.356 . S
O83 C81 1.282 . S
C84 O85 1.306 . S
C84 O87 1.160 . S
O85 C84 1.306 . S
O85 Cd86 2.228 . S
Cd86 O85 2.228 . S
Cd86 O90 2.273 . S
Cd86 O94 2.277 . S
O87 C84 1.160 . S
O87 Cd88 2.203 . S
Cd88 O87 2.203 . S
Cd88 O90 2.411 . S
Cd88 O91 2.333 . S
Cd88 O92 2.352 . S
Cd88 O96 2.277 . S
Cd88 O97 2.356 . S
C89 O94 1.209 . S
C89 O96 1.226 . S
O90 Cd86 2.273 . S
O90 Cd88 2.411 . S
O90 C93 1.320 . S
O91 Cd88 2.333 . S
O91 C93 1.214 . S
O92 Cd88 2.352 . S
O92 C95 1.258 . S
C93 O90 1.320 . S
C93 O91 1.214 . S
O94 Cd86 2.277 . S
O94 C89 1.209 . S
C95 O92 1.258 . S
C95 O97 1.282 . S
O96 Cd88 2.277 . S
O96 C89 1.226 . S
O97 Cd88 2.356 . S
O97 C95 1.282 . S
C98 O99 1.306 . S
C98 O101 1.160 . S
O99 C98 1.306 . S
O99 Cd100 2.228 1_655 S
Cd100 O99 2.228 1_455 S
Cd100 O104 2.273 . S
Cd100 O108 2.277 . S
O101 C98 1.160 . S
O101 Cd102 2.203 1_655 S
Cd102 O101 2.203 1_455 S
Cd102 O104 2.411 . S
Cd102 O105 2.333 . S
Cd102 O106 2.352 1_455 S
Cd102 O110 2.277 . S
Cd102 O111 2.356 . S
C103 O108 1.209 . S
C103 O110 1.226 . S
O104 Cd100 2.273 . S
O104 Cd102 2.411 . S
O104 C107 1.320 . S
O105 Cd102 2.333 . S
O105 C107 1.214 . S
O106 Cd102 2.352 1_655 S
O106 C109 1.258 . S
C107 O104 1.320 . S
C107 O105 1.214 . S
O108 Cd100 2.277 . S
O108 C103 1.209 . S
C109 O106 1.258 . S
C109 O111 1.282 1_655 S
O110 Cd102 2.277 . S
O110 C103 1.226 . S
O111 Cd102 2.356 . S
O111 C109 1.282 1_455 S
C112 O113 1.306 1_545 S
C112 O115 1.160 . S
O113 C112 1.306 1_565 S
O113 Cd114 2.228 . S
Cd114 O113 2.228 . S
Cd114 O118 2.273 1_565 S
Cd114 O122 2.277 . S
O115 C112 1.160 . S
O115 Cd116 2.203 . S
Cd116 O115 2.203 . S
Cd116 O118 2.411 . S
Cd116 O119 2.331 . S
Cd116 O120 2.352 . S
Cd116 O124 2.277 1_545 S
Cd116 O125 2.356 . S
C117 O122 1.209 . S
C117 O124 1.226 . S
O118 Cd114 2.273 1_545 S
O118 Cd116 2.411 . S
O118 C121 1.320 . S
O119 Cd116 2.331 . S
O119 C121 1.204 . S
O120 Cd116 2.352 . S
O120 C123 1.258 . S
C121 O118 1.320 . S
C121 O119 1.204 . S
O122 Cd114 2.277 . S
O122 C117 1.209 . S
C123 O120 1.258 . S
C123 O125 1.282 . S
O124 Cd116 2.277 1_565 S
O124 C117 1.226 . S
O125 Cd116 2.356 . S
O125 C123 1.282 . S
C126 O127 1.306 . S
C126 O129 1.160 . S
O127 C126 1.306 . S
O127 Cd128 2.228 . S
Cd128 O127 2.228 . S
Cd128 O132 2.273 . S
Cd128 O136 2.277 . S
O129 C126 1.160 . S
O129 Cd130 2.203 . S
Cd130 O129 2.203 . S
Cd130 O132 2.411 . S
Cd130 O133 2.333 . S
Cd130 O134 2.352 . S
Cd130 O138 2.277 . S
Cd130 O139 2.356 . S
C131 O136 1.209 . S
C131 O138 1.226 . S
O132 Cd128 2.273 . S
O132 Cd130 2.411 . S
O132 C135 1.320 . S
O133 Cd130 2.333 . S
O133 C135 1.214 . S
O134 Cd130 2.352 . S
O134 C137 1.258 . S
C135 O132 1.320 . S
C135 O133 1.214 . S
O136 Cd128 2.277 . S
O136 C131 1.209 . S
C137 O134 1.258 . S
C137 O139 1.282 . S
O138 Cd130 2.277 . S
O138 C131 1.226 . S
O139 Cd130 2.356 . S
O139 C137 1.282 . S
C140 O141 1.306 . S
C140 O143 1.160 . S
O141 C140 1.306 . S
O141 Cd142 2.228 . S
Cd142 O141 2.228 . S
Cd142 O146 2.273 . S
Cd142 O150 2.277 . S
O143 C140 1.160 . S
O143 Cd144 2.203 . S
Cd144 O143 2.203 . S
Cd144 O146 2.411 . S
Cd144 O147 2.333 . S
Cd144 O148 2.352 . S
Cd144 O152 2.277 . S
Cd144 O153 2.356 . S
C145 O150 1.209 . S
C145 O152 1.226 . S
O146 Cd142 2.273 . S
O146 Cd144 2.411 . S
O146 C149 1.320 . S
O147 Cd144 2.333 . S
O147 C149 1.214 . S
O148 Cd144 2.352 . S
O148 C151 1.258 . S
C149 O146 1.320 . S
C149 O147 1.214 . S
O150 Cd142 2.277 . S
O150 C145 1.209 . S
C151 O148 1.258 . S
C151 O153 1.282 . S
O152 Cd144 2.277 . S
O152 C145 1.226 . S
O153 Cd144 2.356 . S
O153 C151 1.282 . S
C154 O155 1.306 1_554 S
C154 O157 1.160 . S
O155 C154 1.306 1_556 S
O155 Cd156 2.228 . S
Cd156 O155 2.228 . S
Cd156 O160 2.271 1_556 S
Cd156 O164 2.277 . S
O157 C154 1.160 . S
O157 Cd158 2.203 . S
Cd158 O157 2.203 . S
Cd158 O160 2.411 . S
Cd158 O161 2.332 . S
Cd158 O162 2.352 . S
Cd158 O166 2.277 1_554 S
Cd158 O167 2.356 . S
C159 O164 1.209 . S
C159 O166 1.226 . S
O160 Cd156 2.271 1_554 S
O160 Cd158 2.411 . S
O160 C163 1.323 1_554 S
O161 Cd158 2.332 . S
O161 C163 1.205 1_554 S
O162 Cd158 2.352 . S
O162 C165 1.258 . S
C163 O160 1.323 1_556 S
C163 O161 1.205 1_556 S
O164 Cd156 2.277 . S
O164 C159 1.209 . S
C165 O162 1.258 . S
C165 O167 1.282 . S
O166 Cd158 2.277 1_556 S
O166 C159 1.226 . S
O167 Cd158 2.356 . S
O167 C165 1.282 . S
C168 O169 1.306 . S
C168 O171 1.160 . S
O169 C168 1.306 . S
O169 Cd170 2.228 . S
Cd170 O169 2.228 . S
Cd170 O174 2.273 . S
Cd170 O178 2.277 1_554 S
O171 C168 1.160 . S
O171 Cd172 2.203 . S
Cd172 O171 2.203 . S
Cd172 O174 2.411 . S
Cd172 O175 2.333 . S
Cd172 O176 2.352 . S
Cd172 O180 2.277 . S
Cd172 O181 2.356 . S
C173 O178 1.209 . S
C173 O180 1.226 1_556 S
O174 Cd170 2.273 . S
O174 Cd172 2.411 . S
O174 C177 1.320 . S
O175 Cd172 2.333 . S
O175 C177 1.214 . S
O176 Cd172 2.352 . S
O176 C179 1.258 . S
C177 O174 1.320 . S
C177 O175 1.214 . S
O178 Cd170 2.277 1_556 S
O178 C173 1.209 . S
C179 O176 1.258 . S
C179 O181 1.282 . S
O180 Cd172 2.277 . S
O180 C173 1.226 1_554 S
O181 Cd172 2.356 . S
O181 C179 1.282 . S
C182 O183 1.306 . S
C182 O185 1.160 . S
O183 C182 1.306 . S
O183 Cd184 2.228 . S
Cd184 O183 2.228 . S
Cd184 O188 2.273 . S
Cd184 O192 2.277 . S
O185 C182 1.160 . S
O185 Cd186 2.203 . S
Cd186 O185 2.203 . S
Cd186 O188 2.411 . S
Cd186 O189 2.333 . S
Cd186 O190 2.352 . S
Cd186 O194 2.277 . S
Cd186 O195 2.356 . S
C187 O192 1.209 . S
C187 O194 1.226 . S
O188 Cd184 2.273 . S
O188 Cd186 2.411 . S
O188 C191 1.320 . S
O189 Cd186 2.333 . S
O189 C191 1.214 . S
O190 Cd186 2.352 . S
O190 C193 1.258 . S
C191 O188 1.320 . S
C191 O189 1.214 . S
O192 Cd184 2.277 . S
O192 C187 1.209 . S
C193 O190 1.258 . S
C193 O195 1.282 . S
O194 Cd186 2.277 . S
O194 C187 1.226 . S
O195 Cd186 2.356 . S
O195 C193 1.282 . S
C196 O197 1.306 . S
C196 O199 1.160 . S
O197 C196 1.306 . S
O197 Cd198 2.228 . S
Cd198 O197 2.228 . S
Cd198 O202 2.273 . S
Cd198 O206 2.277 . S
O199 C196 1.160 . S
O199 Cd200 2.203 . S
Cd200 O199 2.203 . S
Cd200 O202 2.411 . S
Cd200 O203 2.333 . S
Cd200 O204 2.352 . S
Cd200 O208 2.277 . S
Cd200 O209 2.356 . S
C201 O206 1.209 . S
C201 O208 1.226 . S
O202 Cd198 2.273 . S
O202 Cd200 2.411 . S
O202 C205 1.320 . S
O203 Cd200 2.333 . S
O203 C205 1.214 . S
O204 Cd200 2.352 . S
O204 C207 1.258 . S
C205 O202 1.320 . S
C205 O203 1.214 . S
O206 Cd198 2.277 . S
O206 C201 1.209 . S
C207 O204 1.258 . S
C207 O209 1.282 . S
O208 Cd200 2.277 . S
O208 C201 1.226 . S
O209 Cd200 2.356 . S
O209 C207 1.282 . S
C210 O211 1.306 . S
C210 O213 1.160 . S
O211 C210 1.306 . S
O211 Cd212 2.228 . S
Cd212 O211 2.228 . S
Cd212 O216 2.273 . S
Cd212 O220 2.277 . S
O213 C210 1.160 . S
O213 Cd214 2.203 . S
Cd214 O213 2.203 . S
Cd214 O216 2.411 . S
Cd214 O217 2.333 . S
Cd214 O218 2.352 . S
Cd214 O222 2.277 . S
Cd214 O223 2.356 . S
C215 O220 1.209 . S
C215 O222 1.226 . S
O216 Cd212 2.273 . S
O216 Cd214 2.411 . S
O216 C219 1.320 . S
O217 Cd214 2.333 . S
O217 C219 1.214 . S
O218 Cd214 2.352 . S
O218 C221 1.258 . S
C219 O216 1.320 . S
C219 O217 1.214 . S
O220 Cd212 2.277 . S
O220 C215 1.209 . S
C221 O218 1.258 . S
C221 O223 1.282 . S
O222 Cd214 2.277 . S
O222 C215 1.226 . S
O223 Cd214 2.356 . S
O223 C221 1.282 . S
C224 O225 1.306 . S
C224 O227 1.160 . S
O225 C224 1.306 . S
O225 Cd226 2.228 . S
Cd226 O225 2.228 . S
Cd226 O230 2.273 . S
Cd226 O234 2.277 1_545 S
O227 C224 1.160 . S
O227 Cd228 2.203 . S
Cd228 O227 2.203 . S
Cd228 O230 2.411 . S
Cd228 O231 2.333 . S
Cd228 O232 2.352 . S
Cd228 O236 2.277 1_545 S
Cd228 O237 2.356 . S
C229 O234 1.209 . S
C229 O236 1.226 . S
O230 Cd226 2.273 . S
O230 Cd228 2.411 . S
O230 C233 1.320 . S
O231 Cd228 2.333 . S
O231 C233 1.214 . S
O232 Cd228 2.352 . S
O232 C235 1.258 . S
C233 O230 1.320 . S
C233 O231 1.214 . S
O234 Cd226 2.277 1_565 S
O234 C229 1.209 . S
C235 O232 1.258 . S
C235 O237 1.282 . S
O236 Cd228 2.277 1_565 S
O236 C229 1.226 . S
O237 Cd228 2.356 . S
O237 C235 1.282 . S
C238 O239 1.306 . S
C238 O241 1.160 . S
O239 C238 1.306 . S
O239 Cd240 2.228 . S
Cd240 O239 2.228 . S
Cd240 O244 2.273 . S
Cd240 O248 2.277 . S
O241 C238 1.160 . S
O241 Cd242 2.203 . S
Cd242 O241 2.203 . S
Cd242 O244 2.411 . S
Cd242 O245 2.333 . S
Cd242 O246 2.352 . S
Cd242 O250 2.277 . S
Cd242 O251 2.356 . S
C243 O248 1.209 . S
C243 O250 1.226 . S
O244 Cd240 2.273 . S
O244 Cd242 2.411 . S
O244 C247 1.320 . S
O245 Cd242 2.333 . S
O245 C247 1.214 . S
O246 Cd242 2.352 . S
O246 C249 1.258 . S
C247 O244 1.320 . S
C247 O245 1.214 . S
O248 Cd240 2.277 . S
O248 C243 1.209 . S
C249 O246 1.258 . S
C249 O251 1.282 . S
O250 Cd242 2.277 . S
O250 C243 1.226 . S
O251 Cd242 2.356 . S
O251 C249 1.282 . S
C252 O253 1.306 . S
C252 O255 1.160 . S
O253 C252 1.306 . S
O253 Cd254 2.228 . S
Cd254 O253 2.228 . S
Cd254 O258 2.273 . S
Cd254 O262 2.277 . S
O255 C252 1.160 . S
O255 Cd256 2.203 . S
Cd256 O255 2.203 . S
Cd256 O258 2.411 . S
Cd256 O259 2.333 . S
Cd256 O260 2.352 . S
Cd256 O264 2.277 . S
Cd256 O265 2.356 . S
C257 O262 1.209 . S
C257 O264 1.226 . S
O258 Cd254 2.273 . S
O258 Cd256 2.411 . S
O258 C261 1.320 . S
O259 Cd256 2.333 . S
O259 C261 1.214 . S
O260 Cd256 2.352 . S
O260 C263 1.258 . S
C261 O258 1.320 . S
C261 O259 1.214 . S
O262 Cd254 2.277 . S
O262 C257 1.209 . S
C263 O260 1.258 . S
C263 O265 1.282 . S
O264 Cd256 2.277 . S
O264 C257 1.226 . S
O265 Cd256 2.356 . S
O265 C263 1.282 . S
C266 O267 1.306 . S
C266 O269 1.160 . S
O267 C266 1.306 . S
O267 Cd268 2.228 . S
Cd268 O267 2.228 . S
Cd268 O272 2.273 . S
Cd268 O276 2.277 . S
O269 C266 1.160 . S
O269 Cd270 2.203 . S
Cd270 O269 2.203 . S
Cd270 O272 2.411 . S
Cd270 O273 2.333 . S
Cd270 O274 2.352 . S
Cd270 O278 2.277 . S
Cd270 O279 2.356 . S
C271 O276 1.209 . S
C271 O278 1.226 . S
O272 Cd268 2.273 . S
O272 Cd270 2.411 . S
O272 C275 1.320 . S
O273 Cd270 2.333 . S
O273 C275 1.214 . S
O274 Cd270 2.352 . S
O274 C277 1.258 . S
C275 O272 1.320 . S
C275 O273 1.214 . S
O276 Cd268 2.277 . S
O276 C271 1.209 . S
C277 O274 1.258 . S
C277 O279 1.282 . S
O278 Cd270 2.277 . S
O278 C271 1.226 . S
O279 Cd270 2.356 . S
O279 C277 1.282 . S
C280 O281 1.306 . S
C280 O283 1.160 . S
O281 C280 1.306 . S
O281 Cd282 2.228 . S
Cd282 O281 2.228 . S
Cd282 O286 2.273 . S
Cd282 O290 2.277 . S
O283 C280 1.160 . S
O283 Cd284 2.203 . S
Cd284 O283 2.203 . S
Cd284 O286 2.411 . S
Cd284 O287 2.333 . S
Cd284 O288 2.352 1_554 S
Cd284 O292 2.277 . S
Cd284 O293 2.368 . S
C285 O290 1.209 . S
C285 O292 1.226 . S
O286 Cd282 2.273 . S
O286 Cd284 2.411 . S
O286 C289 1.320 . S
O287 Cd284 2.333 . S
O287 C289 1.214 . S
O288 Cd284 2.352 1_556 S
O288 C291 1.258 . S
C289 O286 1.320 . S
C289 O287 1.214 . S
O290 Cd282 2.277 . S
O290 C285 1.209 . S
C291 O288 1.258 . S
C291 O293 1.270 1_556 S
O292 Cd284 2.277 . S
O292 C285 1.226 . S
O293 Cd284 2.368 . S
O293 C291 1.270 1_554 S
C294 O295 1.306 . S
C294 O297 1.160 . S
O295 C294 1.306 . S
O295 Cd296 2.228 . S
Cd296 O295 2.228 . S
Cd296 O300 2.273 . S
Cd296 O304 2.277 . S
O297 C294 1.160 . S
O297 Cd298 2.203 . S
Cd298 O297 2.203 . S
Cd298 O300 2.411 . S
Cd298 O301 2.333 . S
Cd298 O302 2.352 . S
Cd298 O306 2.277 . S
Cd298 O307 2.356 . S
C299 O304 1.209 . S
C299 O306 1.226 . S
O300 Cd296 2.273 . S
O300 Cd298 2.411 . S
O300 C303 1.320 . S
O301 Cd298 2.333 . S
O301 C303 1.214 . S
O302 Cd298 2.352 . S
O302 C305 1.258 . S
C303 O300 1.320 . S
C303 O301 1.214 . S
O304 Cd296 2.277 . S
O304 C299 1.209 . S
C305 O302 1.258 . S
C305 O307 1.282 . S
O306 Cd298 2.277 . S
O306 C299 1.226 . S
O307 Cd298 2.356 . S
O307 C305 1.282 . S
C308 O309 1.306 . S
C308 O311 1.160 . S
O309 C308 1.306 . S
O309 Cd310 2.228 . S
Cd310 O309 2.228 . S
Cd310 O314 2.273 . S
Cd310 O318 2.277 . S
O311 C308 1.160 . S
O311 Cd312 2.203 . S
Cd312 O311 2.203 . S
Cd312 O314 2.411 . S
Cd312 O315 2.333 . S
Cd312 O316 2.352 . S
Cd312 O320 2.277 . S
Cd312 O321 2.356 . S
C313 O318 1.209 . S
C313 O320 1.226 . S
O314 Cd310 2.273 . S
O314 Cd312 2.411 . S
O314 C317 1.320 . S
O315 Cd312 2.333 . S
O315 C317 1.214 . S
O316 Cd312 2.352 . S
O316 C319 1.258 . S
C317 O314 1.320 . S
C317 O315 1.214 . S
O318 Cd310 2.277 . S
O318 C313 1.209 . S
C319 O316 1.258 . S
C319 O321 1.282 . S
O320 Cd312 2.277 . S
O320 C313 1.226 . S
O321 Cd312 2.356 . S
O321 C319 1.282 . S
C322 O323 1.306 . S
C322 O325 1.160 . S
O323 C322 1.306 . S
O323 Cd324 2.228 . S
Cd324 O323 2.228 . S
Cd324 O328 2.273 . S
Cd324 O332 2.277 . S
O325 C322 1.160 . S
O325 Cd326 2.203 . S
Cd326 O325 2.203 . S
Cd326 O328 2.411 . S
Cd326 O329 2.333 . S
Cd326 O330 2.352 . S
Cd326 O334 2.277 . S
Cd326 O335 2.356 . S
C327 O332 1.209 . S
C327 O334 1.226 . S
O328 Cd324 2.273 . S
O328 Cd326 2.411 . S
O328 C331 1.320 . S
O329 Cd326 2.333 . S
O329 C331 1.214 . S
O330 Cd326 2.352 . S
O330 C333 1.258 . S
C331 O328 1.320 . S
C331 O329 1.214 . S
O332 Cd324 2.277 . S
O332 C327 1.209 . S
C333 O330 1.258 . S
C333 O335 1.282 . S
O334 Cd326 2.277 . S
O334 C327 1.226 . S
O335 Cd326 2.356 . S
O335 C333 1.282 . S
Dy336 O339 2.307 . S
Dy336 O341 2.395 . S
Dy336 O342 2.379 . S
Dy336 O344 2.339 . S
Dy336 O346 2.298 . S
Dy336 O350 2.275 . S
Dy336 C358 2.738 . S
Dy337 O340 2.292 1_655 S
Dy337 O343 2.260 1_655 S
Dy337 O345 2.283 1_655 S
Dy337 O347 2.428 . S
Dy337 O348 2.402 1_554 S
Dy337 O351 2.321 1_654 S
Dy337 C367 2.774 . S
C338 O350 1.254 1_556 S
C338 O351 1.257 . S
O339 Dy336 2.307 . S
O339 C349 1.266 . S
O340 Dy337 2.292 1_455 S
O340 C349 1.236 . S
O341 Dy336 2.395 . S
O341 C358 1.255 . S
O342 Dy336 2.379 . S
O342 C358 1.249 . S
O343 Dy337 2.260 1_455 S
O343 C359 1.254 . S
O344 Dy336 2.339 . S
O344 C359 1.257 . S
O345 Dy337 2.283 1_455 S
O345 C360 1.266 1_545 S
O346 Dy336 2.298 . S
O346 C360 1.236 1_545 S
O347 Dy337 2.428 . S
O347 C367 1.255 . S
O348 Dy337 2.402 1_556 S
O348 C367 1.236 1_556 S
C349 O339 1.266 . S
C349 O340 1.236 . S
O350 Dy336 2.275 . S
O350 C338 1.254 1_554 S
O351 Dy337 2.321 1_456 S
O351 C338 1.257 . S
C352 C355 1.344 . S
C352 C356 1.328 . S
C352 C358 1.516 . S
C353 C354 1.304 . S
C353 C357 1.323 . S
C354 C353 1.304 . S
C354 C355 1.371 . S
C354 H368 0.930 1_545 S
C355 C352 1.344 . S
C355 C354 1.371 . S
C355 H369 0.931 . S
C356 C352 1.328 . S
C356 C357 1.433 . S
C356 H370 0.931 . S
C357 C353 1.323 . S
C357 C356 1.433 . S
C357 H371 0.933 . S
C358 Dy336 2.738 . S
C358 O341 1.255 . S
C358 O342 1.249 . S
C358 C352 1.516 . S
C359 O343 1.254 . S
C359 O344 1.257 . S
C360 O345 1.266 1_565 S
C360 O346 1.236 1_565 S
C361 C364 1.344 . S
C361 C365 1.328 1_554 S
C361 C367 1.516 . S
C362 C363 1.304 . S
C362 C366 1.323 1_554 S
C363 C362 1.304 . S
C363 C364 1.371 . S
C363 H372 0.930 . S
C364 C361 1.344 . S
C364 C363 1.371 . S
C364 H373 0.931 . S
C365 C361 1.328 1_556 S
C365 C366 1.433 . S
C365 H374 0.931 . S
C366 C362 1.323 1_556 S
C366 C365 1.433 . S
C366 H375 0.933 . S
C367 Dy337 2.774 . S
C367 O347 1.255 . S
C367 O348 1.236 1_554 S
C367 C361 1.516 . S
H368 C354 0.930 1_565 S
H369 C355 0.931 . S
H370 C356 0.931 . S
H371 C357 0.933 . S
H372 C363 0.930 . S
H373 C364 0.931 . S
H374 C365 0.931 . S
H375 C366 0.933 . S
Dy376 O379 2.307 . S
Dy376 O381 2.395 . S
Dy376 O382 2.379 . S
Dy376 O384 2.339 . S
Dy376 O386 2.298 . S
Dy376 O390 2.275 . S
Dy376 C398 2.738 . S
Dy377 O380 2.298 . S
Dy377 O383 2.275 . S
Dy377 O385 2.307 . S
Dy377 O387 2.395 . S
Dy377 O388 2.379 . S
Dy377 O391 2.339 . S
Dy377 C407 2.738 . S
C378 O390 1.254 . S
C378 O391 1.257 . S
O379 Dy376 2.307 . S
O379 C389 1.266 . S
O380 Dy377 2.298 . S
O380 C389 1.236 . S
O381 Dy376 2.395 . S
O381 C398 1.255 . S
O382 Dy376 2.379 . S
O382 C398 1.249 . S
O383 Dy377 2.275 . S
O383 C399 1.254 . S
O384 Dy376 2.339 . S
O384 C399 1.257 . S
O385 Dy377 2.307 . S
O385 C400 1.266 . S
O386 Dy376 2.298 . S
O386 C400 1.236 . S
O387 Dy377 2.395 . S
O387 C407 1.255 . S
O388 Dy377 2.379 . S
O388 C407 1.249 . S
C389 O379 1.266 . S
C389 O380 1.236 . S
O390 Dy376 2.275 . S
O390 C378 1.254 . S
O391 Dy377 2.339 . S
O391 C378 1.257 . S
C392 C395 1.344 . S
C392 C396 1.328 . S
C392 C398 1.516 . S
C393 C394 1.304 . S
C393 C397 1.323 . S
C394 C393 1.304 . S
C394 C395 1.371 . S
C394 H408 0.930 . S
C395 C392 1.344 . S
C395 C394 1.371 . S
C395 H409 0.931 . S
C396 C392 1.328 . S
C396 C397 1.433 . S
C396 H410 0.931 . S
C397 C393 1.323 . S
C397 C396 1.433 . S
C397 H411 0.933 . S
C398 Dy376 2.738 . S
C398 O381 1.255 . S
C398 O382 1.249 . S
C398 C392 1.516 . S
C399 O383 1.254 . S
C399 O384 1.257 . S
C400 O385 1.266 . S
C400 O386 1.236 . S
C401 C404 1.344 . S
C401 C405 1.328 . S
C401 C407 1.516 . S
C402 C403 1.304 . S
C402 C406 1.323 . S
C403 C402 1.304 . S
C403 C404 1.371 . S
C403 H412 0.930 . S
C404 C401 1.344 . S
C404 C403 1.371 . S
C404 H413 0.931 . S
C405 C401 1.328 . S
C405 C406 1.433 . S
C405 H414 0.931 . S
C406 C402 1.323 . S
C406 C405 1.433 . S
C406 H415 0.933 . S
C407 Dy377 2.738 . S
C407 O387 1.255 . S
C407 O388 1.249 . S
C407 C401 1.516 . S
H408 C394 0.930 . S
H409 C395 0.931 . S
H410 C396 0.931 . S
H411 C397 0.933 . S
H412 C403 0.930 . S
H413 C404 0.931 . S
H414 C405 0.931 . S
H415 C406 0.933 . S
Dy416 O419 2.307 . S
Dy416 O421 2.395 . S
Dy416 O422 2.379 . S
Dy416 O424 2.339 . S
Dy416 O426 2.298 . S
Dy416 O430 2.275 . S
Dy416 C438 2.738 . S
Dy417 O420 2.298 . S
Dy417 O423 2.275 . S
Dy417 O425 2.307 . S
Dy417 O427 2.395 . S
Dy417 O428 2.379 . S
Dy417 O431 2.339 . S
Dy417 C447 2.738 . S
C418 O430 1.254 . S
C418 O431 1.257 . S
O419 Dy416 2.307 . S
O419 C429 1.266 1_545 S
O420 Dy417 2.298 . S
O420 C429 1.236 1_545 S
O421 Dy416 2.395 . S
O421 C438 1.255 . S
O422 Dy416 2.379 . S
O422 C438 1.249 . S
O423 Dy417 2.275 . S
O423 C439 1.254 . S
O424 Dy416 2.339 . S
O424 C439 1.257 . S
O425 Dy417 2.307 . S
O425 C440 1.266 . S
O426 Dy416 2.298 . S
O426 C440 1.236 . S
O427 Dy417 2.395 . S
O427 C447 1.255 . S
O428 Dy417 2.379 . S
O428 C447 1.249 . S
C429 O419 1.266 1_565 S
C429 O420 1.236 1_565 S
O430 Dy416 2.275 . S
O430 C418 1.254 . S
O431 Dy417 2.339 . S
O431 C418 1.257 . S
C432 C435 1.344 . S
C432 C436 1.328 . S
C432 C438 1.516 . S
C433 C434 1.304 . S
C433 C437 1.323 . S
C434 C433 1.304 . S
C434 C435 1.371 . S
C434 H448 0.930 . S
C435 C432 1.344 . S
C435 C434 1.371 . S
C435 H449 0.931 . S
C436 C432 1.328 . S
C436 C437 1.433 . S
C436 H450 0.931 . S
C437 C433 1.323 . S
C437 C436 1.433 . S
C437 H451 0.933 . S
C438 Dy416 2.738 . S
C438 O421 1.255 . S
C438 O422 1.249 . S
C438 C432 1.516 . S
C439 O423 1.254 . S
C439 O424 1.257 . S
C440 O425 1.266 . S
C440 O426 1.236 . S
C441 C444 1.344 1_545 S
C441 C445 1.330 . S
C441 C447 1.516 . S
C442 C443 1.304 . S
C442 C446 1.323 . S
C443 C442 1.304 . S
C443 C444 1.371 . S
C443 H452 0.930 . S
C444 C441 1.344 1_565 S
C444 C443 1.371 . S
C444 H453 0.931 . S
C445 C441 1.330 . S
C445 C446 1.420 1_545 S
C445 H454 0.942 . S
C446 C442 1.323 . S
C446 C445 1.420 1_565 S
C446 H455 0.933 . S
C447 Dy417 2.738 . S
C447 O427 1.255 . S
C447 O428 1.249 . S
C447 C441 1.516 . S
H448 C434 0.930 . S
H449 C435 0.931 . S
H450 C436 0.931 . S
H451 C437 0.933 . S
H452 C443 0.930 . S
H453 C444 0.931 . S
H454 C445 0.942 . S
H455 C446 0.933 . S
Dy456 O459 2.307 . S
Dy456 O461 2.395 . S
Dy456 O462 2.379 . S
Dy456 O464 2.339 . S
Dy456 O466 2.298 . S
Dy456 O470 2.275 . S
Dy456 C478 2.738 . S
Dy457 O460 2.298 . S
Dy457 O463 2.275 . S
Dy457 O465 2.307 . S
Dy457 O467 2.395 . S
Dy457 O468 2.379 . S
Dy457 O471 2.339 . S
Dy457 C487 2.738 . S
C458 O470 1.254 . S
C458 O471 1.257 . S
O459 Dy456 2.307 . S
O459 C469 1.266 . S
O460 Dy457 2.298 . S
O460 C469 1.236 . S
O461 Dy456 2.395 . S
O461 C478 1.255 . S
O462 Dy456 2.379 . S
O462 C478 1.249 . S
O463 Dy457 2.275 . S
O463 C479 1.254 . S
O464 Dy456 2.339 . S
O464 C479 1.257 . S
O465 Dy457 2.307 . S
O465 C480 1.266 . S
O466 Dy456 2.298 . S
O466 C480 1.236 . S
O467 Dy457 2.395 . S
O467 C487 1.255 . S
O468 Dy457 2.379 . S
O468 C487 1.249 . S
C469 O459 1.266 . S
C469 O460 1.236 . S
O470 Dy456 2.275 . S
O470 C458 1.254 . S
O471 Dy457 2.339 . S
O471 C458 1.257 . S
C472 C475 1.344 . S
C472 C476 1.328 . S
C472 C478 1.516 . S
C473 C474 1.304 . S
C473 C477 1.323 . S
C474 C473 1.304 . S
C474 C475 1.371 . S
C474 H488 0.930 . S
C475 C472 1.344 . S
C475 C474 1.371 . S
C475 H489 0.931 . S
C476 C472 1.328 . S
C476 C477 1.433 . S
C476 H490 0.931 . S
C477 C473 1.323 . S
C477 C476 1.433 . S
C477 H491 0.933 . S
C478 Dy456 2.738 . S
C478 O461 1.255 . S
C478 O462 1.249 . S
C478 C472 1.516 . S
C479 O463 1.254 . S
C479 O464 1.257 . S
C480 O465 1.266 . S
C480 O466 1.236 . S
C481 C484 1.344 . S
C481 C485 1.328 . S
C481 C487 1.516 . S
C482 C483 1.304 . S
C482 C486 1.323 . S
C483 C482 1.304 . S
C483 C484 1.371 . S
C483 H492 0.930 . S
C484 C481 1.344 . S
C484 C483 1.371 . S
C484 H493 0.931 . S
C485 C481 1.328 . S
C485 C486 1.433 . S
C485 H494 0.931 . S
C486 C482 1.323 . S
C486 C485 1.433 . S
C486 H495 0.933 . S
C487 Dy457 2.738 . S
C487 O467 1.255 . S
C487 O468 1.249 . S
C487 C481 1.516 . S
H488 C474 0.930 . S
H489 C475 0.931 . S
H490 C476 0.931 . S
H491 C477 0.933 . S
H492 C483 0.930 . S
H493 C484 0.931 . S
H494 C485 0.931 . S
H495 C486 0.933 . S
Dy496 O499 2.307 . S
Dy496 O501 2.395 1_545 S
Dy496 O502 2.379 1_545 S
Dy496 O504 2.339 . S
Dy496 O506 2.298 . S
Dy496 O510 2.275 . S
Dy496 C518 2.738 1_545 S
Dy497 O500 2.298 . S
Dy497 O503 2.275 . S
Dy497 O505 2.307 . S
Dy497 O507 2.395 . S
Dy497 O508 2.379 . S
Dy497 O511 2.339 1_455 S
Dy497 C527 2.738 . S
C498 O510 1.254 1_655 S
C498 O511 1.257 . S
O499 Dy496 2.307 . S
O499 C509 1.266 . S
O500 Dy497 2.298 . S
O500 C509 1.236 . S
O501 Dy496 2.395 1_565 S
O501 C518 1.255 . S
O502 Dy496 2.379 1_565 S
O502 C518 1.249 . S
O503 Dy497 2.275 . S
O503 C519 1.254 . S
O504 Dy496 2.339 . S
O504 C519 1.257 . S
O505 Dy497 2.307 . S
O505 C520 1.266 . S
O506 Dy496 2.298 . S
O506 C520 1.236 . S
O507 Dy497 2.395 . S
O507 C527 1.255 . S
O508 Dy497 2.379 . S
O508 C527 1.249 . S
C509 O499 1.266 . S
C509 O500 1.236 . S
O510 Dy496 2.275 . S
O510 C498 1.254 1_455 S
O511 Dy497 2.339 1_655 S
O511 C498 1.257 . S
C512 C515 1.344 . S
C512 C516 1.328 . S
C512 C518 1.516 . S
C513 C514 1.304 . S
C513 C517 1.323 . S
C514 C513 1.304 . S
C514 C515 1.371 . S
C514 H528 0.930 . S
C515 C512 1.344 . S
C515 C514 1.371 . S
C515 H529 0.931 . S
C516 C512 1.328 . S
C516 C517 1.433 . S
C516 H530 0.931 . S
C517 C513 1.323 . S
C517 C516 1.433 . S
C517 H531 0.933 . S
C518 Dy496 2.738 1_565 S
C518 O501 1.255 . S
C518 O502 1.249 . S
C518 C512 1.516 . S
C519 O503 1.254 . S
C519 O504 1.257 . S
C520 O505 1.266 . S
C520 O506 1.236 . S
C521 C524 1.344 . S
C521 C525 1.328 1_455 S
C521 C527 1.516 . S
C522 C523 1.304 . S
C522 C526 1.323 1_455 S
C523 C522 1.304 . S
C523 C524 1.371 . S
C523 H532 0.930 . S
C524 C521 1.344 . S
C524 C523 1.371 . S
C524 H533 0.931 . S
C525 C521 1.328 1_655 S
C525 C526 1.433 . S
C525 H534 0.931 . S
C526 C522 1.323 1_655 S
C526 C525 1.433 . S
C526 H535 0.933 . S
C527 Dy497 2.738 . S
C527 O507 1.255 . S
C527 O508 1.249 . S
C527 C521 1.516 . S
H528 C514 0.930 . S
H529 C515 0.931 . S
H530 C516 0.931 . S
H531 C517 0.933 . S
H532 C523 0.930 . S
H533 C524 0.931 . S
H534 C525 0.931 . S
H535 C526 0.933 . S
Dy536 O539 2.307 . S
Dy536 O541 2.395 . S
Dy536 O542 2.379 . S
Dy536 O544 2.339 . S
Dy536 O546 2.298 . S
Dy536 O550 2.275 . S
Dy536 C558 2.738 . S
Dy537 O540 2.298 . S
Dy537 O543 2.275 . S
Dy537 O545 2.307 . S
Dy537 O547 2.395 . S
Dy537 O548 2.379 . S
Dy537 O551 2.339 . S
Dy537 C567 2.738 . S
C538 O550 1.254 . S
C538 O551 1.257 . S
O539 Dy536 2.307 . S
O539 C549 1.266 . S
O540 Dy537 2.298 . S
O540 C549 1.236 . S
O541 Dy536 2.395 . S
O541 C558 1.255 . S
O542 Dy536 2.379 . S
O542 C558 1.249 . S
O543 Dy537 2.275 . S
O543 C559 1.254 . S
O544 Dy536 2.339 . S
O544 C559 1.257 . S
O545 Dy537 2.307 . S
O545 C560 1.266 . S
O546 Dy536 2.298 . S
O546 C560 1.236 . S
O547 Dy537 2.395 . S
O547 C567 1.255 . S
O548 Dy537 2.379 . S
O548 C567 1.249 . S
C549 O539 1.266 . S
C549 O540 1.236 . S
O550 Dy536 2.275 . S
O550 C538 1.254 . S
O551 Dy537 2.339 . S
O551 C538 1.257 . S
C552 C555 1.344 . S
C552 C556 1.328 . S
C552 C558 1.516 . S
C553 C554 1.304 . S
C553 C557 1.323 . S
C554 C553 1.304 . S
C554 C555 1.371 . S
C554 H568 0.930 . S
C555 C552 1.344 . S
C555 C554 1.371 . S
C555 H569 0.931 . S
C556 C552 1.328 . S
C556 C557 1.433 . S
C556 H570 0.931 . S
C557 C553 1.323 . S
C557 C556 1.433 . S
C557 H571 0.933 . S
C558 Dy536 2.738 . S
C558 O541 1.255 . S
C558 O542 1.249 . S
C558 C552 1.516 . S
C559 O543 1.254 . S
C559 O544 1.257 . S
C560 O545 1.266 . S
C560 O546 1.236 . S
C561 C564 1.344 . S
C561 C565 1.328 . S
C561 C567 1.516 . S
C562 C563 1.304 . S
C562 C566 1.323 . S
C563 C562 1.304 . S
C563 C564 1.371 . S
C563 H572 0.930 . S
C564 C561 1.344 . S
C564 C563 1.371 . S
C564 H573 0.931 . S
C565 C561 1.328 . S
C565 C566 1.433 . S
C565 H574 0.931 . S
C566 C562 1.323 . S
C566 C565 1.433 . S
C566 H575 0.933 . S
C567 Dy537 2.738 . S
C567 O547 1.255 . S
C567 O548 1.249 . S
C567 C561 1.516 . S
H568 C554 0.930 . S
H569 C555 0.931 . S
H570 C556 0.931 . S
H571 C557 0.933 . S
H572 C563 0.930 . S
H573 C564 0.931 . S
H574 C565 0.931 . S
H575 C566 0.933 . S
Dy576 O579 2.307 . S
Dy576 O581 2.395 1_554 S
Dy576 O582 2.379 1_554 S
Dy576 O584 2.339 . S
Dy576 O586 2.298 . S
Dy576 O590 2.275 . S
Dy576 C598 2.738 1_554 S
Dy577 O580 2.298 . S
Dy577 O583 2.275 . S
Dy577 O585 2.307 . S
Dy577 O587 2.395 . S
Dy577 O588 2.379 . S
Dy577 O591 2.339 1_545 S
Dy577 C607 2.738 . S
C578 O590 1.254 . S
C578 O591 1.257 1_545 S
O579 Dy576 2.307 . S
O579 C589 1.266 . S
O580 Dy577 2.298 . S
O580 C589 1.236 . S
O581 Dy576 2.395 1_556 S
O581 C598 1.255 . S
O582 Dy576 2.379 1_556 S
O582 C598 1.249 . S
O583 Dy577 2.275 . S
O583 C599 1.254 . S
O584 Dy576 2.339 . S
O584 C599 1.257 . S
O585 Dy577 2.307 . S
O585 C600 1.266 . S
O586 Dy576 2.298 . S
O586 C600 1.236 . S
O587 Dy577 2.395 . S
O587 C607 1.255 . S
O588 Dy577 2.379 . S
O588 C607 1.249 . S
C589 O579 1.266 . S
C589 O580 1.236 . S
O590 Dy576 2.275 . S
O590 C578 1.254 . S
O591 Dy577 2.339 1_565 S
O591 C578 1.257 1_565 S
C592 C595 1.344 . S
C592 C596 1.328 . S
C592 C598 1.516 . S
C593 C594 1.304 . S
C593 C597 1.323 . S
C594 C593 1.304 . S
C594 C595 1.371 . S
C594 H608 0.930 . S
C595 C592 1.344 . S
C595 C594 1.371 . S
C595 H609 0.931 . S
C596 C592 1.328 . S
C596 C597 1.433 . S
C596 H610 0.931 . S
C597 C593 1.323 . S
C597 C596 1.433 . S
C597 H611 0.933 . S
C598 Dy576 2.738 1_556 S
C598 O581 1.255 . S
C598 O582 1.249 . S
C598 C592 1.516 . S
C599 O583 1.254 . S
C599 O584 1.257 . S
C600 O585 1.266 . S
C600 O586 1.236 . S
C601 C604 1.344 . S
C601 C605 1.328 1_545 S
C601 C607 1.516 . S
C602 C603 1.304 1_565 S
C602 C606 1.323 . S
C603 C602 1.304 1_545 S
C603 C604 1.371 . S
C603 H612 0.930 . S
C604 C601 1.344 . S
C604 C603 1.371 . S
C604 H613 0.931 . S
C605 C601 1.328 1_565 S
C605 C606 1.433 . S
C605 H614 0.931 . S
C606 C602 1.323 . S
C606 C605 1.433 . S
C606 H615 0.933 . S
C607 Dy577 2.738 . S
C607 O587 1.255 . S
C607 O588 1.249 . S
C607 C601 1.516 . S
H608 C594 0.930 . S
H609 C595 0.931 . S
H610 C596 0.931 . S
H611 C597 0.933 . S
H612 C603 0.930 . S
H613 C604 0.931 . S
H614 C605 0.931 . S
H615 C606 0.933 . S
Dy616 O619 2.307 . S
Dy616 O621 2.395 . S
Dy616 O622 2.379 . S
Dy616 O624 2.339 . S
Dy616 O626 2.298 . S
Dy616 O630 2.275 . S
Dy616 C638 2.738 . S
Dy617 O620 2.298 . S
Dy617 O623 2.275 . S
Dy617 O625 2.307 . S
Dy617 O627 2.395 . S
Dy617 O628 2.379 . S
Dy617 O631 2.339 . S
Dy617 C647 2.738 . S
C618 O630 1.254 . S
C618 O631 1.257 . S
O619 Dy616 2.307 . S
O619 C629 1.266 . S
O620 Dy617 2.298 . S
O620 C629 1.236 . S
O621 Dy616 2.395 . S
O621 C638 1.255 . S
O622 Dy616 2.379 . S
O622 C638 1.249 . S
O623 Dy617 2.275 . S
O623 C639 1.254 . S
O624 Dy616 2.339 . S
O624 C639 1.257 . S
O625 Dy617 2.307 . S
O625 C640 1.266 . S
O626 Dy616 2.298 . S
O626 C640 1.236 . S
O627 Dy617 2.395 . S
O627 C647 1.255 . S
O628 Dy617 2.379 . S
O628 C647 1.249 . S
C629 O619 1.266 . S
C629 O620 1.236 . S
O630 Dy616 2.275 . S
O630 C618 1.254 . S
O631 Dy617 2.339 . S
O631 C618 1.257 . S
C632 C635 1.344 . S
C632 C636 1.328 . S
C632 C638 1.516 . S
C633 C634 1.304 . S
C633 C637 1.323 . S
C634 C633 1.304 . S
C634 C635 1.371 . S
C634 H648 0.930 . S
C635 C632 1.344 . S
C635 C634 1.371 . S
C635 H649 0.931 . S
C636 C632 1.328 . S
C636 C637 1.433 . S
C636 H650 0.931 . S
C637 C633 1.323 . S
C637 C636 1.433 . S
C637 H651 0.933 . S
C638 Dy616 2.738 . S
C638 O621 1.255 . S
C638 O622 1.249 . S
C638 C632 1.516 . S
C639 O623 1.254 . S
C639 O624 1.257 . S
C640 O625 1.266 . S
C640 O626 1.236 . S
C641 C644 1.344 . S
C641 C645 1.328 . S
C641 C647 1.516 . S
C642 C643 1.304 . S
C642 C646 1.323 . S
C643 C642 1.304 . S
C643 C644 1.371 . S
C643 H652 0.930 . S
C644 C641 1.344 . S
C644 C643 1.371 . S
C644 H653 0.931 . S
C645 C641 1.328 . S
C645 C646 1.433 . S
C645 H654 0.931 . S
C646 C642 1.323 . S
C646 C645 1.433 . S
C646 H655 0.933 . S
C647 Dy617 2.738 . S
C647 O627 1.255 . S
C647 O628 1.249 . S
C647 C641 1.516 . S
H648 C634 0.930 . S
H649 C635 0.931 . S
H650 C636 0.931 . S
H651 C637 0.933 . S
H652 C643 0.930 . S
H653 C644 0.931 . S
H654 C645 0.931 . S
H655 C646 0.933 . S
Dy656 O659 2.307 1_554 S
Dy656 O661 2.395 . S
Dy656 O662 2.379 . S
Dy656 O664 2.339 . S
Dy656 O666 2.298 . S
Dy656 O670 2.275 . S
Dy656 C678 2.738 . S
Dy657 O660 2.298 1_554 S
Dy657 O663 2.275 . S
Dy657 O665 2.307 . S
Dy657 O667 2.395 . S
Dy657 O668 2.379 . S
Dy657 O671 2.339 . S
Dy657 C687 2.738 . S
C658 O670 1.254 . S
C658 O671 1.257 . S
O659 Dy656 2.307 1_556 S
O659 C669 1.266 . S
O660 Dy657 2.298 1_556 S
O660 C669 1.236 . S
O661 Dy656 2.395 . S
O661 C678 1.255 . S
O662 Dy656 2.379 . S
O662 C678 1.249 . S
O663 Dy657 2.275 . S
O663 C679 1.254 . S
O664 Dy656 2.339 . S
O664 C679 1.257 . S
O665 Dy657 2.307 . S
O665 C680 1.266 . S
O666 Dy656 2.298 . S
O666 C680 1.236 . S
O667 Dy657 2.395 . S
O667 C687 1.255 . S
O668 Dy657 2.379 . S
O668 C687 1.249 . S
C669 O659 1.266 . S
C669 O660 1.236 . S
O670 Dy656 2.275 . S
O670 C658 1.254 . S
O671 Dy657 2.339 . S
O671 C658 1.257 . S
C672 C675 1.344 . S
C672 C676 1.328 . S
C672 C678 1.516 . S
C673 C674 1.304 . S
C673 C677 1.323 . S
C674 C673 1.304 . S
C674 C675 1.371 . S
C674 H688 0.930 . S
C675 C672 1.344 . S
C675 C674 1.371 . S
C675 H689 0.931 . S
C676 C672 1.328 . S
C676 C677 1.433 . S
C676 H690 0.931 . S
C677 C673 1.323 . S
C677 C676 1.433 . S
C677 H691 0.933 . S
C678 Dy656 2.738 . S
C678 O661 1.255 . S
C678 O662 1.249 . S
C678 C672 1.516 . S
C679 O663 1.254 . S
C679 O664 1.257 . S
C680 O665 1.266 . S
C680 O666 1.236 . S
C681 C684 1.344 . S
C681 C685 1.328 . S
C681 C687 1.516 1_556 S
C682 C683 1.304 . S
C682 C686 1.323 . S
C683 C682 1.304 . S
C683 C684 1.371 . S
C683 H692 0.930 . S
C684 C681 1.344 . S
C684 C683 1.371 . S
C684 H693 0.931 . S
C685 C681 1.328 . S
C685 C686 1.433 . S
C685 H694 0.931 1_556 S
C686 C682 1.323 . S
C686 C685 1.433 . S
C686 H695 0.933 . S
C687 Dy657 2.738 . S
C687 O667 1.255 . S
C687 O668 1.249 . S
C687 C681 1.516 1_554 S
H688 C674 0.930 . S
H689 C675 0.931 . S
H690 C676 0.931 . S
H691 C677 0.933 . S
H692 C683 0.930 . S
H693 C684 0.931 . S
H694 C685 0.931 1_554 S
H695 C686 0.933 . S
Dy696 O699 2.307 . S
Dy696 O701 2.395 . S
Dy696 O702 2.379 . S
Dy696 O704 2.339 . S
Dy696 O706 2.298 . S
Dy696 O710 2.275 . S
Dy696 C718 2.738 . S
Dy697 O700 2.298 . S
Dy697 O703 2.275 . S
Dy697 O705 2.307 . S
Dy697 O707 2.395 . S
Dy697 O708 2.379 . S
Dy697 O711 2.339 . S
Dy697 C727 2.738 . S
C698 O710 1.254 . S
C698 O711 1.257 . S
O699 Dy696 2.307 . S
O699 C709 1.266 . S
O700 Dy697 2.298 . S
O700 C709 1.236 . S
O701 Dy696 2.395 . S
O701 C718 1.255 . S
O702 Dy696 2.379 . S
O702 C718 1.249 . S
O703 Dy697 2.275 . S
O703 C719 1.254 . S
O704 Dy696 2.339 . S
O704 C719 1.257 . S
O705 Dy697 2.307 . S
O705 C720 1.266 . S
O706 Dy696 2.298 . S
O706 C720 1.236 . S
O707 Dy697 2.395 . S
O707 C727 1.255 . S
O708 Dy697 2.379 . S
O708 C727 1.249 . S
C709 O699 1.266 . S
C709 O700 1.236 . S
O710 Dy696 2.275 . S
O710 C698 1.254 . S
O711 Dy697 2.339 . S
O711 C698 1.257 . S
C712 C715 1.344 . S
C712 C716 1.328 . S
C712 C718 1.516 . S
C713 C714 1.304 . S
C713 C717 1.323 . S
C714 C713 1.304 . S
C714 C715 1.371 . S
C714 H728 0.930 . S
C715 C712 1.344 . S
C715 C714 1.371 . S
C715 H729 0.931 . S
C716 C712 1.328 . S
C716 C717 1.433 . S
C716 H730 0.931 . S
C717 C713 1.323 . S
C717 C716 1.433 . S
C717 H731 0.933 . S
C718 Dy696 2.738 . S
C718 O701 1.255 . S
C718 O702 1.249 . S
C718 C712 1.516 . S
C719 O703 1.254 . S
C719 O704 1.257 . S
C720 O705 1.266 . S
C720 O706 1.236 . S
C721 C724 1.344 . S
C721 C725 1.328 . S
C721 C727 1.516 . S
C722 C723 1.304 . S
C722 C726 1.323 . S
C723 C722 1.304 . S
C723 C724 1.371 . S
C723 H732 0.930 . S
C724 C721 1.344 . S
C724 C723 1.371 . S
C724 H733 0.931 . S
C725 C721 1.328 . S
C725 C726 1.433 . S
C725 H734 0.931 . S
C726 C722 1.323 . S
C726 C725 1.433 . S
C726 H735 0.933 . S
C727 Dy697 2.738 . S
C727 O707 1.255 . S
C727 O708 1.249 . S
C727 C721 1.516 . S
H728 C714 0.930 . S
H729 C715 0.931 . S
H730 C716 0.931 . S
H731 C717 0.933 . S
H732 C723 0.930 . S
H733 C724 0.931 . S
H734 C725 0.931 . S
H735 C726 0.933 . S
Dy736 O739 2.307 1_455 S
Dy736 O741 2.395 . S
Dy736 O742 2.379 . S
Dy736 O744 2.339 . S
Dy736 O746 2.298 . S
Dy736 O750 2.275 . S
Dy736 C758 2.738 . S
Dy737 O740 2.298 1_455 S
Dy737 O743 2.275 . S
Dy737 O745 2.307 . S
Dy737 O747 2.395 . S
Dy737 O748 2.379 . S
Dy737 O751 2.339 . S
Dy737 C767 2.738 . S
C738 O750 1.254 . S
C738 O751 1.257 . S
O739 Dy736 2.307 1_655 S
O739 C749 1.266 . S
O740 Dy737 2.298 1_655 S
O740 C749 1.236 . S
O741 Dy736 2.395 . S
O741 C758 1.255 . S
O742 Dy736 2.379 . S
O742 C758 1.249 . S
O743 Dy737 2.275 . S
O743 C759 1.254 . S
O744 Dy736 2.339 . S
O744 C759 1.257 . S
O745 Dy737 2.307 . S
O745 C760 1.266 . S
O746 Dy736 2.298 . S
O746 C760 1.236 . S
O747 Dy737 2.395 . S
O747 C767 1.255 . S
O748 Dy737 2.379 . S
O748 C767 1.249 . S
C749 O739 1.266 . S
C749 O740 1.236 . S
O750 Dy736 2.275 . S
O750 C738 1.254 . S
O751 Dy737 2.339 . S
O751 C738 1.257 . S
C752 C755 1.344 . S
C752 C756 1.328 . S
C752 C758 1.516 . S
C753 C754 1.304 . S
C753 C757 1.323 . S
C754 C753 1.304 . S
C754 C755 1.371 . S
C754 H768 0.930 . S
C755 C752 1.344 . S
C755 C754 1.371 . S
C755 H769 0.931 . S
C756 C752 1.328 . S
C756 C757 1.433 . S
C756 H770 0.931 . S
C757 C753 1.323 . S
C757 C756 1.433 . S
C757 H771 0.933 . S
C758 Dy736 2.738 . S
C758 O741 1.255 . S
C758 O742 1.249 . S
C758 C752 1.516 . S
C759 O743 1.254 . S
C759 O744 1.257 . S
C760 O745 1.266 . S
C760 O746 1.236 . S
C761 C764 1.344 . S
C761 C765 1.328 . S
C761 C767 1.516 1_655 S
C762 C763 1.304 . S
C762 C766 1.323 . S
C763 C762 1.304 . S
C763 C764 1.371 . S
C763 H772 0.930 . S
C764 C761 1.344 . S
C764 C763 1.371 . S
C764 H773 0.931 . S
C765 C761 1.328 . S
C765 C766 1.433 . S
C765 H774 0.900 1_655 S
C766 C762 1.323 . S
C766 C765 1.433 . S
C766 H775 0.933 . S
C767 Dy737 2.738 . S
C767 O747 1.255 . S
C767 O748 1.249 . S
C767 C761 1.516 1_455 S
H768 C754 0.930 . S
H769 C755 0.931 . S
H770 C756 0.931 . S
H771 C757 0.933 . S
H772 C763 0.930 . S
H773 C764 0.931 . S
H774 C765 0.900 1_455 S
H775 C766 0.933 . S
Dy776 O779 2.307 . S
Dy776 O781 2.395 . S
Dy776 O782 2.379 . S
Dy776 O784 2.339 . S
Dy776 O786 2.298 . S
Dy776 O790 2.275 . S
Dy776 C798 2.738 . S
Dy777 O780 2.298 . S
Dy777 O783 2.275 . S
Dy777 O785 2.307 . S
Dy777 O787 2.395 . S
Dy777 O788 2.379 . S
Dy777 O791 2.339 . S
Dy777 C807 2.738 . S
C778 O790 1.254 . S
C778 O791 1.257 . S
O779 Dy776 2.307 . S
O779 C789 1.266 . S
O780 Dy777 2.298 . S
O780 C789 1.236 . S
O781 Dy776 2.395 . S
O781 C798 1.255 . S
O782 Dy776 2.379 . S
O782 C798 1.249 . S
O783 Dy777 2.275 . S
O783 C799 1.254 . S
O784 Dy776 2.339 . S
O784 C799 1.257 . S
O785 Dy777 2.307 . S
O785 C800 1.266 . S
O786 Dy776 2.298 . S
O786 C800 1.236 . S
O787 Dy777 2.395 . S
O787 C807 1.255 . S
O788 Dy777 2.379 . S
O788 C807 1.249 . S
C789 O779 1.266 . S
C789 O780 1.236 . S
O790 Dy776 2.275 . S
O790 C778 1.254 . S
O791 Dy777 2.339 . S
O791 C778 1.257 . S
C792 C795 1.344 . S
C792 C796 1.328 . S
C792 C798 1.516 . S
C793 C794 1.304 . S
C793 C797 1.323 . S
C794 C793 1.304 . S
C794 C795 1.371 . S
C794 H808 0.930 . S
C795 C792 1.344 . S
C795 C794 1.371 . S
C795 H809 0.931 . S
C796 C792 1.328 . S
C796 C797 1.433 . S
C796 H810 0.931 . S
C797 C793 1.323 . S
C797 C796 1.433 . S
C797 H811 0.933 . S
C798 Dy776 2.738 . S
C798 O781 1.255 . S
C798 O782 1.249 . S
C798 C792 1.516 . S
C799 O783 1.254 . S
C799 O784 1.257 . S
C800 O785 1.266 . S
C800 O786 1.236 . S
C801 C804 1.344 . S
C801 C805 1.328 . S
C801 C807 1.516 . S
C802 C803 1.304 . S
C802 C806 1.323 . S
C803 C802 1.304 . S
C803 C804 1.371 . S
C803 H812 0.930 . S
C804 C801 1.344 . S
C804 C803 1.371 . S
C804 H813 0.931 . S
C805 C801 1.328 . S
C805 C806 1.433 . S
C805 H814 0.931 . S
C806 C802 1.323 . S
C806 C805 1.433 . S
C806 H815 0.933 . S
C807 Dy777 2.738 . S
C807 O787 1.255 . S
C807 O788 1.249 . S
C807 C801 1.516 . S
H808 C794 0.930 . S
H809 C795 0.931 . S
H810 C796 0.931 . S
H811 C797 0.933 . S
H812 C803 0.930 . S
H813 C804 0.931 . S
H814 C805 0.931 . S
H815 C806 0.933 . S
Dy816 O819 2.307 . S
Dy816 O821 2.395 . S
Dy816 O822 2.379 . S
Dy816 O824 2.339 . S
Dy816 O826 2.298 . S
Dy816 O830 2.275 . S
Dy816 C838 2.738 . S
Dy817 O820 2.298 . S
Dy817 O823 2.275 . S
Dy817 O825 2.307 . S
Dy817 O827 2.395 . S
Dy817 O828 2.379 . S
Dy817 O831 2.339 . S
Dy817 C847 2.738 . S
C818 O830 1.254 . S
C818 O831 1.257 . S
O819 Dy816 2.307 . S
O819 C829 1.266 . S
O820 Dy817 2.298 . S
O820 C829 1.236 . S
O821 Dy816 2.395 . S
O821 C838 1.255 . S
O822 Dy816 2.379 . S
O822 C838 1.249 . S
O823 Dy817 2.275 . S
O823 C839 1.254 . S
O824 Dy816 2.339 . S
O824 C839 1.257 . S
O825 Dy817 2.307 . S
O825 C840 1.266 . S
O826 Dy816 2.298 . S
O826 C840 1.236 . S
O827 Dy817 2.395 . S
O827 C847 1.255 . S
O828 Dy817 2.379 . S
O828 C847 1.249 . S
C829 O819 1.266 . S
C829 O820 1.236 . S
O830 Dy816 2.275 . S
O830 C818 1.254 . S
O831 Dy817 2.339 . S
O831 C818 1.257 . S
C832 C835 1.344 . S
C832 C836 1.328 . S
C832 C838 1.516 . S
C833 C834 1.304 . S
C833 C837 1.323 . S
C834 C833 1.304 . S
C834 C835 1.371 . S
C834 H848 0.930 . S
C835 C832 1.344 . S
C835 C834 1.371 . S
C835 H849 0.931 . S
C836 C832 1.328 . S
C836 C837 1.433 . S
C836 H850 0.931 . S
C837 C833 1.323 . S
C837 C836 1.433 . S
C837 H851 0.933 . S
C838 Dy816 2.738 . S
C838 O821 1.255 . S
C838 O822 1.249 . S
C838 C832 1.516 . S
C839 O823 1.254 . S
C839 O824 1.257 . S
C840 O825 1.266 . S
C840 O826 1.236 . S
C841 C844 1.344 . S
C841 C845 1.328 . S
C841 C847 1.516 . S
C842 C843 1.304 . S
C842 C846 1.323 . S
C843 C842 1.304 . S
C843 C844 1.371 . S
C843 H852 0.930 . S
C844 C841 1.344 . S
C844 C843 1.371 . S
C844 H853 0.931 . S
C845 C841 1.328 . S
C845 C846 1.433 . S
C845 H854 0.931 . S
C846 C842 1.323 . S
C846 C845 1.433 . S
C846 H855 0.933 . S
C847 Dy817 2.738 . S
C847 O827 1.255 . S
C847 O828 1.249 . S
C847 C841 1.516 . S
H848 C834 0.930 . S
H849 C835 0.931 . S
H850 C836 0.931 . S
H851 C837 0.933 . S
H852 C843 0.930 . S
H853 C844 0.931 . S
H854 C845 0.931 . S
H855 C846 0.933 . S
Dy856 O859 2.307 . S
Dy856 O861 2.395 . S
Dy856 O862 2.379 . S
Dy856 O864 2.339 . S
Dy856 O866 2.298 . S
Dy856 O870 2.275 . S
Dy856 C878 2.738 . S
Dy857 O860 2.298 . S
Dy857 O863 2.275 . S
Dy857 O865 2.307 . S
Dy857 O867 2.395 . S
Dy857 O868 2.379 . S
Dy857 O871 2.339 . S
Dy857 C887 2.738 . S
C858 O870 1.254 . S
C858 O871 1.257 . S
O859 Dy856 2.307 . S
O859 C869 1.266 . S
O860 Dy857 2.298 . S
O860 C869 1.236 . S
O861 Dy856 2.395 . S
O861 C878 1.255 . S
O862 Dy856 2.379 . S
O862 C878 1.249 . S
O863 Dy857 2.275 . S
O863 C879 1.254 . S
O864 Dy856 2.339 . S
O864 C879 1.257 . S
O865 Dy857 2.307 . S
O865 C880 1.266 . S
O866 Dy856 2.298 . S
O866 C880 1.236 . S
O867 Dy857 2.395 . S
O867 C887 1.255 . S
O868 Dy857 2.379 . S
O868 C887 1.249 . S
C869 O859 1.266 . S
C869 O860 1.236 . S
O870 Dy856 2.275 . S
O870 C858 1.254 . S
O871 Dy857 2.339 . S
O871 C858 1.257 . S
C872 C875 1.344 . S
C872 C876 1.328 . S
C872 C878 1.516 . S
C873 C874 1.304 . S
C873 C877 1.323 . S
C874 C873 1.304 . S
C874 C875 1.371 . S
C874 H888 0.930 . S
C875 C872 1.344 . S
C875 C874 1.371 . S
C875 H889 0.931 . S
C876 C872 1.328 . S
C876 C877 1.433 . S
C876 H890 0.931 . S
C877 C873 1.323 . S
C877 C876 1.433 . S
C877 H891 0.933 . S
C878 Dy856 2.738 . S
C878 O861 1.255 . S
C878 O862 1.249 . S
C878 C872 1.516 . S
C879 O863 1.254 . S
C879 O864 1.257 . S
C880 O865 1.266 . S
C880 O866 1.236 . S
C881 C884 1.344 . S
C881 C885 1.328 . S
C881 C887 1.516 . S
C882 C883 1.304 . S
C882 C886 1.323 . S
C883 C882 1.304 . S
C883 C884 1.371 . S
C883 H892 0.930 . S
C884 C881 1.344 . S
C884 C883 1.371 . S
C884 H893 0.931 . S
C885 C881 1.328 . S
C885 C886 1.433 . S
C885 H894 0.931 . S
C886 C882 1.323 . S
C886 C885 1.433 . S
C886 H895 0.933 . S
C887 Dy857 2.738 . S
C887 O867 1.255 . S
C887 O868 1.249 . S
C887 C881 1.516 . S
H888 C874 0.930 . S
H889 C875 0.931 . S
H890 C876 0.931 . S
H891 C877 0.933 . S
H892 C883 0.930 . S
H893 C884 0.931 . S
H894 C885 0.931 . S
H895 C886 0.933 . S
Dy896 O899 2.307 . S
Dy896 O901 2.395 . S
Dy896 O902 2.379 . S
Dy896 O904 2.339 . S
Dy896 O906 2.298 . S
Dy896 O910 2.275 . S
Dy896 C918 2.738 . S
Dy897 O900 2.298 . S
Dy897 O903 2.275 . S
Dy897 O905 2.307 . S
Dy897 O907 2.395 . S
Dy897 O908 2.379 . S
Dy897 O911 2.339 . S
Dy897 C927 2.738 . S
C898 O910 1.254 . S
C898 O911 1.257 . S
O899 Dy896 2.307 . S
O899 C909 1.266 . S
O900 Dy897 2.298 . S
O900 C909 1.236 . S
O901 Dy896 2.395 . S
O901 C918 1.255 . S
O902 Dy896 2.379 . S
O902 C918 1.249 . S
O903 Dy897 2.275 . S
O903 C919 1.254 . S
O904 Dy896 2.339 . S
O904 C919 1.257 . S
O905 Dy897 2.307 . S
O905 C920 1.266 . S
O906 Dy896 2.298 . S
O906 C920 1.236 . S
O907 Dy897 2.395 . S
O907 C927 1.255 . S
O908 Dy897 2.379 . S
O908 C927 1.249 . S
C909 O899 1.266 . S
C909 O900 1.236 . S
O910 Dy896 2.275 . S
O910 C898 1.254 . S
O911 Dy897 2.339 . S
O911 C898 1.257 . S
C912 C915 1.344 . S
C912 C916 1.328 . S
C912 C918 1.516 . S
C913 C914 1.304 . S
C913 C917 1.323 . S
C914 C913 1.304 . S
C914 C915 1.371 . S
C914 H928 0.930 . S
C915 C912 1.344 . S
C915 C914 1.371 . S
C915 H929 0.931 . S
C916 C912 1.328 . S
C916 C917 1.433 . S
C916 H930 0.931 . S
C917 C913 1.323 . S
C917 C916 1.433 . S
C917 H931 0.933 . S
C918 Dy896 2.738 . S
C918 O901 1.255 . S
C918 O902 1.249 . S
C918 C912 1.516 . S
C919 O903 1.254 . S
C919 O904 1.257 . S
C920 O905 1.266 . S
C920 O906 1.236 . S
C921 C924 1.344 . S
C921 C925 1.328 . S
C921 C927 1.516 . S
C922 C923 1.304 . S
C922 C926 1.323 . S
C923 C922 1.304 . S
C923 C924 1.371 . S
C923 H932 0.930 . S
C924 C921 1.344 . S
C924 C923 1.371 . S
C924 H933 0.931 . S
C925 C921 1.328 . S
C925 C926 1.433 . S
C925 H934 0.931 . S
C926 C922 1.323 . S
C926 C925 1.433 . S
C926 H935 0.933 . S
C927 Dy897 2.738 . S
C927 O907 1.255 . S
C927 O908 1.249 . S
C927 C921 1.516 . S
H928 C914 0.930 . S
H929 C915 0.931 . S
H930 C916 0.931 . S
H931 C917 0.933 . S
H932 C923 0.930 . S
H933 C924 0.931 . S
H934 C925 0.931 . S
H935 C926 0.933 . S
Dy936 O939 2.307 . S
Dy936 O941 2.395 1_455 S
Dy936 O942 2.379 1_455 S
Dy936 O944 2.339 . S
Dy936 O946 2.298 . S
Dy936 O950 2.275 . S
Dy936 C958 2.738 1_455 S
Dy937 O940 2.298 . S
Dy937 O943 2.275 . S
Dy937 O945 2.307 . S
Dy937 O947 2.395 . S
Dy937 O948 2.379 1_554 S
Dy937 O951 2.339 1_554 S
Dy937 C967 2.738 . S
C938 O950 1.254 1_556 S
C938 O951 1.257 . S
O939 Dy936 2.307 . S
O939 C949 1.266 . S
O940 Dy937 2.298 . S
O940 C949 1.236 . S
O941 Dy936 2.395 1_655 S
O941 C958 1.255 . S
O942 Dy936 2.379 1_655 S
O942 C958 1.249 . S
O943 Dy937 2.275 . S
O943 C959 1.254 . S
O944 Dy936 2.339 . S
O944 C959 1.257 . S
O945 Dy937 2.307 . S
O945 C960 1.266 . S
O946 Dy936 2.298 . S
O946 C960 1.236 . S
O947 Dy937 2.395 . S
O947 C967 1.255 . S
O948 Dy937 2.379 1_556 S
O948 C967 1.249 1_556 S
C949 O939 1.266 . S
C949 O940 1.236 . S
O950 Dy936 2.275 . S
O950 C938 1.254 1_554 S
O951 Dy937 2.339 1_556 S
O951 C938 1.257 . S
C952 C955 1.344 . S
C952 C956 1.328 . S
C952 C958 1.516 . S
C953 C954 1.304 . S
C953 C957 1.323 . S
C954 C953 1.304 . S
C954 C955 1.371 . S
C954 H968 0.930 . S
C955 C952 1.344 . S
C955 C954 1.371 . S
C955 H969 0.931 . S
C956 C952 1.328 . S
C956 C957 1.433 . S
C956 H970 0.931 . S
C957 C953 1.323 . S
C957 C956 1.433 . S
C957 H971 0.933 . S
C958 Dy936 2.738 1_655 S
C958 O941 1.255 . S
C958 O942 1.249 . S
C958 C952 1.516 . S
C959 O943 1.254 . S
C959 O944 1.257 . S
C960 O945 1.266 . S
C960 O946 1.236 . S
C961 C964 1.344 . S
C961 C965 1.328 1_554 S
C961 C967 1.516 . S
C962 C963 1.304 . S
C962 C966 1.323 1_554 S
C963 C962 1.304 . S
C963 C964 1.371 . S
C963 H972 0.930 . S
C964 C961 1.344 . S
C964 C963 1.371 . S
C964 H973 0.931 . S
C965 C961 1.328 1_556 S
C965 C966 1.433 . S
C965 H974 0.931 . S
C966 C962 1.323 1_556 S
C966 C965 1.433 . S
C966 H975 0.933 . S
C967 Dy937 2.738 . S
C967 O947 1.255 . S
C967 O948 1.249 1_554 S
C967 C961 1.516 . S
H968 C954 0.930 . S
H969 C955 0.931 . S
H970 C956 0.931 . S
H971 C957 0.933 . S
H972 C963 0.930 . S
H973 C964 0.931 . S
H974 C965 0.931 . S
H975 C966 0.933 . S
H976 C982 0.930 . S
H977 C986 0.930 . S
H978 C991 0.929 . S
H979 C989 0.929 . S
H980 C984 0.929 1_556 S
H981 C990 0.929 . S
C982 H976 0.930 . S
C982 C983 1.355 1_654 S
C982 C990 1.378 . S
C983 C982 1.355 1_456 S
C983 C991 1.459 . S
C984 H980 0.929 1_554 S
C984 C986 1.378 . S
C984 C988 1.350 . S
C985 C988 1.463 . S
C985 C990 1.350 1_455 S
C985 N993 1.427 1_554 S
C986 H977 0.930 . S
C986 C984 1.378 . S
C986 C987 1.367 . S
C987 C986 1.367 . S
C987 C989 1.433 . S
C988 C984 1.350 . S
C988 C985 1.463 . S
C988 N992 1.427 . S
C989 H979 0.929 . S
C989 C987 1.433 . S
C989 N992 1.384 . S
C990 H981 0.929 . S
C990 C982 1.378 . S
C990 C985 1.350 1_655 S
C991 H978 0.929 . S
C991 C983 1.459 . S
C991 N993 1.384 . S
N992 C988 1.427 . S
N992 C989 1.384 . S
N993 C985 1.427 1_556 S
N993 C991 1.384 . S
H994 C1000 0.930 . S
H995 C1004 0.930 . S
H996 C1009 0.929 . S
H997 C1007 0.929 . S
H998 C1002 0.929 . S
H999 C1008 0.929 . S
C1000 H994 0.930 . S
C1000 C1001 1.367 . S
C1000 C1008 1.378 . S
C1001 C1000 1.367 . S
C1001 C1009 1.433 . S
C1002 H998 0.929 . S
C1002 C1004 1.378 . S
C1002 C1006 1.350 . S
C1003 C1006 1.463 . S
C1003 C1008 1.350 . S
C1003 N1011 1.427 . S
C1004 H995 0.930 . S
C1004 C1002 1.378 . S
C1004 C1005 1.367 . S
C1005 C1004 1.367 . S
C1005 C1007 1.433 . S
C1006 C1002 1.350 . S
C1006 C1003 1.463 . S
C1006 N1010 1.427 . S
C1007 H997 0.929 . S
C1007 C1005 1.433 . S
C1007 N1010 1.384 . S
C1008 H999 0.929 . S
C1008 C1000 1.378 . S
C1008 C1003 1.350 . S
C1009 H996 0.929 . S
C1009 C1001 1.433 . S
C1009 N1011 1.384 . S
N1010 C1006 1.427 . S
N1010 C1007 1.384 . S
N1011 C1003 1.427 . S
N1011 C1009 1.384 . S
H1012 C1018 0.930 . S
H1013 C1022 0.930 . S
H1014 C1027 0.929 . S
H1015 C1025 0.929 . S
H1016 C1020 0.929 . S
H1017 C1026 0.929 . S
C1018 H1012 0.930 . S
C1018 C1019 1.367 . S
C1018 C1026 1.378 . S
C1019 C1018 1.367 . S
C1019 C1027 1.433 . S
C1020 H1016 0.929 . S
C1020 C1022 1.378 . S
C1020 C1024 1.350 . S
C1021 C1024 1.463 . S
C1021 C1026 1.350 . S
C1021 N1029 1.427 . S
C1022 H1013 0.930 . S
C1022 C1020 1.378 . S
C1022 C1023 1.367 . S
C1023 C1022 1.367 . S
C1023 C1025 1.433 . S
C1024 C1020 1.350 . S
C1024 C1021 1.463 . S
C1024 N1028 1.427 . S
C1025 H1015 0.929 . S
C1025 C1023 1.433 . S
C1025 N1028 1.384 . S
C1026 H1017 0.929 . S
C1026 C1018 1.378 . S
C1026 C1021 1.350 . S
C1027 H1014 0.929 . S
C1027 C1019 1.433 . S
C1027 N1029 1.384 . S
N1028 C1024 1.427 . S
N1028 C1025 1.384 . S
N1029 C1021 1.427 . S
N1029 C1027 1.384 . S
H1030 C1036 0.930 . S
H1031 C1040 0.930 . S
H1032 C1045 0.929 . S
H1033 C1043 0.929 . S
H1034 C1038 0.929 . S
H1035 C1044 0.929 . S
C1036 H1030 0.930 . S
C1036 C1037 1.367 . S
C1036 C1044 1.378 . S
C1037 C1036 1.367 . S
C1037 C1045 1.433 . S
C1038 H1034 0.929 . S
C1038 C1040 1.378 . S
C1038 C1042 1.350 . S
C1039 C1042 1.463 . S
C1039 C1044 1.350 . S
C1039 N1047 1.427 . S
C1040 H1031 0.930 . S
C1040 C1038 1.378 . S
C1040 C1041 1.367 . S
C1041 C1040 1.367 . S
C1041 C1043 1.433 . S
C1042 C1038 1.350 . S
C1042 C1039 1.463 . S
C1042 N1046 1.427 . S
C1043 H1033 0.929 . S
C1043 C1041 1.433 . S
C1043 N1046 1.384 . S
C1044 H1035 0.929 . S
C1044 C1036 1.378 . S
C1044 C1039 1.350 . S
C1045 H1032 0.929 . S
C1045 C1037 1.433 . S
C1045 N1047 1.384 . S
N1046 C1042 1.427 . S
N1046 C1043 1.384 . S
N1047 C1039 1.427 . S
N1047 C1045 1.384 . S
H1048 C1054 0.930 . S
H1049 C1058 0.930 . S
H1050 C1063 0.929 . S
H1051 C1061 0.929 . S
H1052 C1056 0.929 . S
H1053 C1062 0.929 . S
C1054 H1048 0.930 . S
C1054 C1055 1.367 . S
C1054 C1062 1.378 . S
C1055 C1054 1.367 . S
C1055 C1063 1.433 . S
C1056 H1052 0.929 . S
C1056 C1058 1.378 . S
C1056 C1060 1.350 . S
C1057 C1060 1.463 . S
C1057 C1062 1.350 . S
C1057 N1065 1.427 . S
C1058 H1049 0.930 . S
C1058 C1056 1.378 . S
C1058 C1059 1.367 . S
C1059 C1058 1.367 . S
C1059 C1061 1.433 . S
C1060 C1056 1.350 . S
C1060 C1057 1.463 . S
C1060 N1064 1.427 . S
C1061 H1051 0.929 . S
C1061 C1059 1.433 . S
C1061 N1064 1.384 . S
C1062 H1053 0.929 . S
C1062 C1054 1.378 . S
C1062 C1057 1.350 . S
C1063 H1050 0.929 . S
C1063 C1055 1.433 . S
C1063 N1065 1.384 . S
N1064 C1060 1.427 . S
N1064 C1061 1.384 . S
N1065 C1057 1.427 . S
N1065 C1063 1.384 . S
H1066 C1072 0.930 . S
H1067 C1076 0.930 . S
H1068 C1081 0.929 . S
H1069 C1079 0.929 . S
H1070 C1074 0.929 . S
H1071 C1080 0.929 . S
C1072 H1066 0.930 . S
C1072 C1073 1.367 . S
C1072 C1080 1.378 . S
C1073 C1072 1.367 . S
C1073 C1081 1.433 . S
C1074 H1070 0.929 . S
C1074 C1076 1.378 . S
C1074 C1078 1.350 . S
C1075 C1078 1.463 . S
C1075 C1080 1.350 . S
C1075 N1083 1.427 . S
C1076 H1067 0.930 . S
C1076 C1074 1.378 . S
C1076 C1077 1.367 . S
C1077 C1076 1.367 . S
C1077 C1079 1.433 . S
C1078 C1074 1.350 . S
C1078 C1075 1.463 . S
C1078 N1082 1.427 . S
C1079 H1069 0.929 . S
C1079 C1077 1.433 . S
C1079 N1082 1.384 . S
C1080 H1071 0.929 . S
C1080 C1072 1.378 . S
C1080 C1075 1.350 . S
C1081 H1068 0.929 . S
C1081 C1073 1.433 . S
C1081 N1083 1.384 . S
N1082 C1078 1.427 . S
N1082 C1079 1.384 . S
N1083 C1075 1.427 . S
N1083 C1081 1.384 . S
H1084 C1090 0.930 . S
H1085 C1094 0.930 . S
H1086 C1099 0.929 . S
H1087 C1097 0.929 . S
H1088 C1092 0.929 . S
H1089 C1098 0.929 . S
C1090 H1084 0.930 . S
C1090 C1091 1.367 . S
C1090 C1098 1.378 . S
C1091 C1090 1.367 . S
C1091 C1099 1.433 . S
C1092 H1088 0.929 . S
C1092 C1094 1.378 . S
C1092 C1096 1.350 . S
C1093 C1096 1.463 . S
C1093 C1098 1.350 . S
C1093 N1101 1.427 . S
C1094 H1085 0.930 . S
C1094 C1092 1.378 . S
C1094 C1095 1.367 . S
C1095 C1094 1.367 . S
C1095 C1097 1.433 . S
C1096 C1092 1.350 . S
C1096 C1093 1.463 . S
C1096 N1100 1.427 . S
C1097 H1087 0.929 . S
C1097 C1095 1.433 . S
C1097 N1100 1.384 . S
C1098 H1089 0.929 . S
C1098 C1090 1.378 . S
C1098 C1093 1.350 . S
C1099 H1086 0.929 . S
C1099 C1091 1.433 . S
C1099 N1101 1.384 . S
N1100 C1096 1.427 . S
N1100 C1097 1.384 . S
N1101 C1093 1.427 . S
N1101 C1099 1.384 . S
H1102 C1108 0.930 . S
H1103 C1112 0.930 . S
H1104 C1117 0.929 . S
H1105 C1115 0.929 . S
H1106 C1110 0.929 . S
H1107 C1116 0.929 . S
C1108 H1102 0.930 . S
C1108 C1109 1.367 . S
C1108 C1116 1.378 . S
C1109 C1108 1.367 . S
C1109 C1117 1.433 . S
C1110 H1106 0.929 . S
C1110 C1112 1.378 . S
C1110 C1114 1.350 . S
C1111 C1114 1.463 . S
C1111 C1116 1.350 . S
C1111 N1119 1.427 . S
C1112 H1103 0.930 . S
C1112 C1110 1.378 . S
C1112 C1113 1.367 . S
C1113 C1112 1.367 . S
C1113 C1115 1.433 . S
C1114 C1110 1.350 . S
C1114 C1111 1.463 . S
C1114 N1118 1.427 . S
C1115 H1105 0.929 . S
C1115 C1113 1.433 . S
C1115 N1118 1.384 . S
C1116 H1107 0.929 . S
C1116 C1108 1.378 . S
C1116 C1111 1.350 . S
C1117 H1104 0.929 . S
C1117 C1109 1.433 . S
C1117 N1119 1.384 . S
N1118 C1114 1.427 . S
N1118 C1115 1.384 . S
N1119 C1111 1.427 . S
N1119 C1117 1.384 . S
H1120 C1126 0.930 1_455 S
H1121 C1130 0.930 . S
H1122 C1135 0.929 . S
H1123 C1133 0.929 . S
H1124 C1128 0.929 . S
H1125 C1134 0.929 . S
C1126 H1120 0.930 1_655 S
C1126 C1127 1.367 . S
C1126 C1134 1.378 1_655 S
C1127 C1126 1.367 . S
C1127 C1135 1.433 . S
C1128 H1124 0.929 . S
C1128 C1130 1.378 . S
C1128 C1132 1.350 . S
C1129 C1132 1.463 . S
C1129 C1134 1.350 1_655 S
C1129 N1137 1.427 . S
C1130 H1121 0.930 . S
C1130 C1128 1.378 . S
C1130 C1131 1.367 1_655 S
C1131 C1130 1.367 1_455 S
C1131 C1133 1.433 . S
C1132 C1128 1.350 . S
C1132 C1129 1.463 . S
C1132 N1136 1.427 1_655 S
C1133 H1123 0.929 . S
C1133 C1131 1.433 . S
C1133 N1136 1.384 . S
C1134 H1125 0.929 . S
C1134 C1126 1.378 1_455 S
C1134 C1129 1.350 1_455 S
C1135 H1122 0.929 . S
C1135 C1127 1.433 . S
C1135 N1137 1.384 . S
N1136 C1132 1.427 1_455 S
N1136 C1133 1.384 . S
N1137 C1129 1.427 . S
N1137 C1135 1.384 . S
H1138 C1144 0.930 . S
H1139 C1148 0.930 . S
H1140 C1153 0.929 . S
H1141 C1151 0.929 . S
H1142 C1146 0.929 . S
H1143 C1152 0.929 . S
C1144 H1138 0.930 . S
C1144 C1145 1.367 . S
C1144 C1152 1.378 . S
C1145 C1144 1.367 . S
C1145 C1153 1.433 . S
C1146 H1142 0.929 . S
C1146 C1148 1.378 . S
C1146 C1150 1.350 . S
C1147 C1150 1.463 . S
C1147 C1152 1.350 . S
C1147 N1155 1.427 . S
C1148 H1139 0.930 . S
C1148 C1146 1.378 . S
C1148 C1149 1.367 . S
C1149 C1148 1.367 . S
C1149 C1151 1.433 . S
C1150 C1146 1.350 . S
C1150 C1147 1.463 . S
C1150 N1154 1.427 . S
C1151 H1141 0.929 . S
C1151 C1149 1.433 . S
C1151 N1154 1.384 . S
C1152 H1143 0.929 . S
C1152 C1144 1.378 . S
C1152 C1147 1.350 . S
C1153 H1140 0.929 . S
C1153 C1145 1.433 . S
C1153 N1155 1.384 . S
N1154 C1150 1.427 . S
N1154 C1151 1.384 . S
N1155 C1147 1.427 . S
N1155 C1153 1.384 . S
H1156 C1162 0.930 . S
H1157 C1166 0.930 . S
H1158 C1171 0.929 . S
H1159 C1169 0.929 . S
H1160 C1164 0.929 . S
H1161 C1170 0.929 . S
C1162 H1156 0.930 . S
C1162 C1163 1.367 . S
C1162 C1170 1.378 . S
C1163 C1162 1.367 . S
C1163 C1171 1.433 . S
C1164 H1160 0.929 . S
C1164 C1166 1.378 . S
C1164 C1168 1.350 . S
C1165 C1168 1.463 . S
C1165 C1170 1.350 . S
C1165 N1173 1.427 . S
C1166 H1157 0.930 . S
C1166 C1164 1.378 . S
C1166 C1167 1.367 . S
C1167 C1166 1.367 . S
C1167 C1169 1.433 . S
C1168 C1164 1.350 . S
C1168 C1165 1.463 . S
C1168 N1172 1.427 . S
C1169 H1159 0.929 . S
C1169 C1167 1.433 . S
C1169 N1172 1.384 . S
C1170 H1161 0.929 . S
C1170 C1162 1.378 . S
C1170 C1165 1.350 . S
C1171 H1158 0.929 . S
C1171 C1163 1.433 . S
C1171 N1173 1.384 . S
N1172 C1168 1.427 . S
N1172 C1169 1.384 . S
N1173 C1165 1.427 . S
N1173 C1171 1.384 . S
H1174 C1180 0.930 . S
H1175 C1184 0.930 . S
H1176 C1189 0.929 . S
H1177 C1187 0.929 . S
H1178 C1182 0.929 . S
H1179 C1188 0.929 . S
C1180 H1174 0.930 . S
C1180 C1181 1.367 . S
C1180 C1188 1.378 . S
C1181 C1180 1.367 . S
C1181 C1189 1.433 . S
C1182 H1178 0.929 . S
C1182 C1184 1.378 . S
C1182 C1186 1.350 . S
C1183 C1186 1.463 . S
C1183 C1188 1.350 . S
C1183 N1191 1.427 . S
C1184 H1175 0.930 . S
C1184 C1182 1.378 . S
C1184 C1185 1.367 . S
C1185 C1184 1.367 . S
C1185 C1187 1.433 . S
C1186 C1182 1.350 . S
C1186 C1183 1.463 . S
C1186 N1190 1.427 . S
C1187 H1177 0.929 . S
C1187 C1185 1.433 . S
C1187 N1190 1.384 . S
C1188 H1179 0.929 . S
C1188 C1180 1.378 . S
C1188 C1183 1.350 . S
C1189 H1176 0.929 . S
C1189 C1181 1.433 . S
C1189 N1191 1.384 . S
N1190 C1186 1.427 . S
N1190 C1187 1.384 . S
N1191 C1183 1.427 . S
N1191 C1189 1.384 . S
H1192 C1198 0.930 . S
H1193 C1202 0.930 . S
H1194 C1207 0.929 . S
H1195 C1205 0.929 . S
H1196 C1200 0.929 1_655 S
H1197 C1206 0.929 . S
C1198 H1192 0.930 . S
C1198 C1199 1.367 . S
C1198 C1206 1.378 . S
C1199 C1198 1.367 . S
C1199 C1207 1.433 . S
C1200 H1196 0.929 1_455 S
C1200 C1202 1.378 . S
C1200 C1204 1.335 . S
C1201 C1204 1.449 1_655 S
C1201 C1206 1.350 . S
C1201 N1209 1.427 . S
C1202 H1193 0.930 . S
C1202 C1200 1.378 . S
C1202 C1203 1.367 . S
C1203 C1202 1.367 . S
C1203 C1205 1.433 . S
C1204 C1200 1.335 . S
C1204 C1201 1.449 1_455 S
C1204 N1208 1.459 . S
C1205 H1195 0.929 . S
C1205 C1203 1.433 . S
C1205 N1208 1.384 . S
C1206 H1197 0.929 . S
C1206 C1198 1.378 . S
C1206 C1201 1.350 . S
C1207 H1194 0.929 . S
C1207 C1199 1.433 . S
C1207 N1209 1.384 . S
N1208 C1204 1.459 . S
N1208 C1205 1.384 . S
N1209 C1201 1.427 . S
N1209 C1207 1.384 . S
H1210 C1216 0.930 . S
H1211 C1220 0.930 . S
H1212 C1225 0.929 . S
H1213 C1223 0.929 . S
H1214 C1218 0.929 . S
H1215 C1224 0.929 . S
C1216 H1210 0.930 . S
C1216 C1217 1.367 . S
C1216 C1224 1.378 . S
C1217 C1216 1.367 . S
C1217 C1225 1.433 . S
C1218 H1214 0.929 . S
C1218 C1220 1.378 . S
C1218 C1222 1.350 . S
C1219 C1222 1.463 . S
C1219 C1224 1.350 . S
C1219 N1227 1.427 . S
C1220 H1211 0.930 . S
C1220 C1218 1.378 . S
C1220 C1221 1.367 . S
C1221 C1220 1.367 . S
C1221 C1223 1.433 . S
C1222 C1218 1.350 . S
C1222 C1219 1.463 . S
C1222 N1226 1.427 . S
C1223 H1213 0.929 . S
C1223 C1221 1.433 . S
C1223 N1226 1.384 . S
C1224 H1215 0.929 . S
C1224 C1216 1.378 . S
C1224 C1219 1.350 . S
C1225 H1212 0.929 . S
C1225 C1217 1.433 . S
C1225 N1227 1.384 . S
N1226 C1222 1.427 . S
N1226 C1223 1.384 . S
N1227 C1219 1.427 . S
N1227 C1225 1.384 . S
H1228 C1234 0.930 . S
H1229 C1238 0.930 . S
H1230 C1243 0.929 . S
H1231 C1241 0.929 . S
H1232 C1236 0.929 . S
H1233 C1242 0.929 . S
C1234 H1228 0.930 . S
C1234 C1235 1.367 . S
C1234 C1242 1.378 . S
C1235 C1234 1.367 . S
C1235 C1243 1.433 . S
C1236 H1232 0.929 . S
C1236 C1238 1.378 . S
C1236 C1240 1.350 . S
C1237 C1240 1.463 . S
C1237 C1242 1.350 . S
C1237 N1245 1.427 . S
C1238 H1229 0.930 . S
C1238 C1236 1.378 . S
C1238 C1239 1.367 . S
C1239 C1238 1.367 . S
C1239 C1241 1.433 . S
C1240 C1236 1.350 . S
C1240 C1237 1.463 . S
C1240 N1244 1.427 . S
C1241 H1231 0.929 . S
C1241 C1239 1.433 . S
C1241 N1244 1.384 . S
C1242 H1233 0.929 . S
C1242 C1234 1.378 . S
C1242 C1237 1.350 . S
C1243 H1230 0.929 . S
C1243 C1235 1.433 . S
C1243 N1245 1.384 . S
N1244 C1240 1.427 . S
N1244 C1241 1.384 . S
N1245 C1237 1.427 . S
N1245 C1243 1.384 . S
H1246 C1252 0.930 . S
H1247 C1256 0.930 . S
H1248 C1261 0.929 . S
H1249 C1259 0.929 . S
H1250 C1254 0.929 . S
H1251 C1260 0.929 . S
C1252 H1246 0.930 . S
C1252 C1253 1.367 . S
C1252 C1260 1.378 . S
C1253 C1252 1.367 . S
C1253 C1261 1.433 . S
C1254 H1250 0.929 . S
C1254 C1256 1.378 . S
C1254 C1258 1.350 . S
C1255 C1258 1.463 . S
C1255 C1260 1.350 . S
C1255 N1263 1.427 . S
C1256 H1247 0.930 . S
C1256 C1254 1.378 . S
C1256 C1257 1.367 . S
C1257 C1256 1.367 . S
C1257 C1259 1.433 . S
C1258 C1254 1.350 . S
C1258 C1255 1.463 . S
C1258 N1262 1.427 . S
C1259 H1249 0.929 . S
C1259 C1257 1.433 . S
C1259 N1262 1.384 . S
C1260 H1251 0.929 . S
C1260 C1252 1.378 . S
C1260 C1255 1.350 . S
C1261 H1248 0.929 . S
C1261 C1253 1.433 . S
C1261 N1263 1.384 . S
N1262 C1258 1.427 . S
N1262 C1259 1.384 . S
N1263 C1255 1.427 . S
N1263 C1261 1.384 . S
H1264 C1270 0.930 . S
H1265 C1274 0.930 . S
H1266 C1279 0.929 . S
H1267 C1277 0.929 . S
H1268 C1272 0.929 . S
H1269 C1278 0.929 . S
C1270 H1264 0.930 . S
C1270 C1271 1.367 1_556 S
C1270 C1278 1.378 . S
C1271 C1270 1.367 1_554 S
C1271 C1279 1.433 . S
C1272 H1268 0.929 . S
C1272 C1274 1.378 . S
C1272 C1276 1.350 . S
C1273 C1276 1.463 . S
C1273 C1278 1.350 1_554 S
C1273 N1281 1.427 . S
C1274 H1265 0.930 . S
C1274 C1272 1.378 . S
C1274 C1275 1.367 1_565 S
C1275 C1274 1.367 1_545 S
C1275 C1277 1.433 . S
C1276 C1272 1.350 . S
C1276 C1273 1.463 . S
C1276 N1280 1.427 . S
C1277 H1267 0.929 . S
C1277 C1275 1.433 . S
C1277 N1280 1.384 1_545 S
C1278 H1269 0.929 . S
C1278 C1270 1.378 . S
C1278 C1273 1.350 1_556 S
C1279 H1266 0.929 . S
C1279 C1271 1.433 . S
C1279 N1281 1.384 . S
N1280 C1276 1.427 . S
N1280 C1277 1.384 1_565 S
N1281 C1273 1.427 . S
N1281 C1279 1.384 . S
H1282 C1288 0.930 . S
H1283 C1292 0.930 . S
H1284 C1297 0.929 . S
H1285 C1295 0.929 . S
H1286 C1290 0.929 . S
H1287 C1296 0.929 . S
C1288 H1282 0.930 . S
C1288 C1289 1.367 . S
C1288 C1296 1.378 . S
C1289 C1288 1.367 . S
C1289 C1297 1.433 . S
C1290 H1286 0.929 . S
C1290 C1292 1.378 . S
C1290 C1294 1.350 . S
C1291 C1294 1.463 . S
C1291 C1296 1.350 . S
C1291 N1299 1.427 . S
C1292 H1283 0.930 . S
C1292 C1290 1.378 . S
C1292 C1293 1.367 . S
C1293 C1292 1.367 . S
C1293 C1295 1.433 . S
C1294 C1290 1.350 . S
C1294 C1291 1.463 . S
C1294 N1298 1.427 . S
C1295 H1285 0.929 . S
C1295 C1293 1.433 . S
C1295 N1298 1.384 . S
C1296 H1287 0.929 . S
C1296 C1288 1.378 . S
C1296 C1291 1.350 . S
C1297 H1284 0.929 . S
C1297 C1289 1.433 . S
C1297 N1299 1.384 . S
N1298 C1294 1.427 . S
N1298 C1295 1.384 . S
N1299 C1291 1.427 . S
N1299 C1297 1.384 . S
H1300 C1306 0.930 . S
H1301 C1310 0.930 . S
H1302 C1315 0.929 . S
H1303 C1313 0.929 . S
H1304 C1308 0.929 . S
H1305 C1314 0.929 . S
C1306 H1300 0.930 . S
C1306 C1307 1.367 . S
C1306 C1314 1.378 . S
C1307 C1306 1.367 . S
C1307 C1315 1.433 . S
C1308 H1304 0.929 . S
C1308 C1310 1.378 . S
C1308 C1312 1.350 . S
C1309 C1312 1.463 . S
C1309 C1314 1.350 . S
C1309 N1317 1.427 . S
C1310 H1301 0.930 . S
C1310 C1308 1.378 . S
C1310 C1311 1.367 . S
C1311 C1310 1.367 . S
C1311 C1313 1.433 . S
C1312 C1308 1.350 . S
C1312 C1309 1.463 . S
C1312 N1316 1.427 . S
C1313 H1303 0.929 . S
C1313 C1311 1.433 . S
C1313 N1316 1.384 . S
C1314 H1305 0.929 . S
C1314 C1306 1.378 . S
C1314 C1309 1.350 . S
C1315 H1302 0.929 . S
C1315 C1307 1.433 . S
C1315 N1317 1.384 . S
N1316 C1312 1.427 . S
N1316 C1313 1.384 . S
N1317 C1309 1.427 . S
N1317 C1315 1.384 . S
H1318 C1324 0.930 . S
H1319 C1328 0.930 . S
H1320 C1333 0.929 . S
H1321 C1331 0.929 . S
H1322 C1326 0.929 . S
H1323 C1332 0.929 . S
C1324 H1318 0.930 . S
C1324 C1325 1.367 . S
C1324 C1332 1.378 . S
C1325 C1324 1.367 . S
C1325 C1333 1.433 . S
C1326 H1322 0.929 . S
C1326 C1328 1.378 . S
C1326 C1330 1.350 . S
C1327 C1330 1.463 . S
C1327 C1332 1.350 . S
C1327 N1335 1.427 . S
C1328 H1319 0.930 . S
C1328 C1326 1.378 . S
C1328 C1329 1.367 . S
C1329 C1328 1.367 . S
C1329 C1331 1.433 . S
C1330 C1326 1.350 . S
C1330 C1327 1.463 . S
C1330 N1334 1.427 . S
C1331 H1321 0.929 . S
C1331 C1329 1.433 . S
C1331 N1334 1.384 . S
C1332 H1323 0.929 . S
C1332 C1324 1.378 . S
C1332 C1327 1.350 . S
C1333 H1320 0.929 . S
C1333 C1325 1.433 . S
C1333 N1335 1.384 . S
N1334 C1330 1.427 . S
N1334 C1331 1.384 . S
N1335 C1327 1.427 . S
N1335 C1333 1.384 . S
H1336 C1342 0.930 . S
H1337 C1346 0.930 . S
H1338 C1351 0.929 . S
H1339 C1349 0.929 . S
H1340 C1344 0.929 . S
H1341 C1350 0.929 . S
C1342 H1336 0.930 . S
C1342 C1343 1.367 . S
C1342 C1350 1.378 . S
C1343 C1342 1.367 . S
C1343 C1351 1.433 . S
C1344 H1340 0.929 . S
C1344 C1346 1.378 . S
C1344 C1348 1.350 . S
C1345 C1348 1.463 . S
C1345 C1350 1.350 . S
C1345 N1353 1.427 . S
C1346 H1337 0.930 . S
C1346 C1344 1.378 . S
C1346 C1347 1.367 . S
C1347 C1346 1.367 . S
C1347 C1349 1.433 . S
C1348 C1344 1.350 . S
C1348 C1345 1.463 . S
C1348 N1352 1.427 . S
C1349 H1339 0.929 . S
C1349 C1347 1.433 . S
C1349 N1352 1.384 . S
C1350 H1341 0.929 . S
C1350 C1342 1.378 . S
C1350 C1345 1.350 . S
C1351 H1338 0.929 . S
C1351 C1343 1.433 . S
C1351 N1353 1.384 . S
N1352 C1348 1.427 . S
N1352 C1349 1.384 . S
N1353 C1345 1.427 . S
N1353 C1351 1.384 . S
H1354 C1360 0.930 . S
H1355 C1364 0.930 . S
H1356 C1369 0.929 . S
H1357 C1367 0.929 . S
H1358 C1362 0.929 . S
H1359 C1368 0.929 . S
C1360 H1354 0.930 . S
C1360 C1361 1.367 . S
C1360 C1368 1.378 . S
C1361 C1360 1.367 . S
C1361 C1369 1.433 . S
C1362 H1358 0.929 . S
C1362 C1364 1.378 . S
C1362 C1366 1.350 . S
C1363 C1366 1.463 . S
C1363 C1368 1.350 . S
C1363 N1371 1.427 . S
C1364 H1355 0.930 . S
C1364 C1362 1.378 . S
C1364 C1365 1.367 . S
C1365 C1364 1.367 . S
C1365 C1367 1.433 . S
C1366 C1362 1.350 . S
C1366 C1363 1.463 . S
C1366 N1370 1.427 . S
C1367 H1357 0.929 . S
C1367 C1365 1.433 . S
C1367 N1370 1.384 . S
C1368 H1359 0.929 . S
C1368 C1360 1.378 . S
C1368 C1363 1.350 . S
C1369 H1356 0.929 . S
C1369 C1361 1.433 . S
C1369 N1371 1.384 . S
N1370 C1366 1.427 . S
N1370 C1367 1.384 . S
N1371 C1363 1.427 . S
N1371 C1369 1.384 . S
H1372 C1378 0.930 . S
H1373 C1382 0.930 . S
H1374 C1387 0.929 . S
H1375 C1385 0.929 . S
H1376 C1380 0.929 . S
H1377 C1386 0.929 . S
C1378 H1372 0.930 . S
C1378 C1379 1.367 . S
C1378 C1386 1.378 . S
C1379 C1378 1.367 . S
C1379 C1387 1.433 . S
C1380 H1376 0.929 . S
C1380 C1382 1.378 . S
C1380 C1384 1.350 . S
C1381 C1384 1.463 . S
C1381 C1386 1.350 . S
C1381 N1389 1.427 . S
C1382 H1373 0.930 . S
C1382 C1380 1.378 . S
C1382 C1383 1.367 . S
C1383 C1382 1.367 . S
C1383 C1385 1.433 . S
C1384 C1380 1.350 . S
C1384 C1381 1.463 . S
C1384 N1388 1.427 . S
C1385 H1375 0.929 . S
C1385 C1383 1.433 . S
C1385 N1388 1.384 . S
C1386 H1377 0.929 . S
C1386 C1378 1.378 . S
C1386 C1381 1.350 . S
C1387 H1374 0.929 . S
C1387 C1379 1.433 . S
C1387 N1389 1.384 . S
N1388 C1384 1.427 . S
N1388 C1385 1.384 . S
N1389 C1381 1.427 . S
N1389 C1387 1.384 . S
H1390 C1396 0.930 . S
H1391 C1400 0.930 . S
H1392 C1405 0.929 . S
H1393 C1403 0.929 . S
H1394 C1398 0.929 . S
H1395 C1404 0.929 . S
C1396 H1390 0.930 . S
C1396 C1397 1.367 . S
C1396 C1404 1.378 . S
C1397 C1396 1.367 . S
C1397 C1405 1.433 . S
C1398 H1394 0.929 . S
C1398 C1400 1.378 . S
C1398 C1402 1.350 . S
C1399 C1402 1.463 . S
C1399 C1404 1.350 . S
C1399 N1407 1.427 . S
C1400 H1391 0.930 . S
C1400 C1398 1.378 . S
C1400 C1401 1.367 . S
C1401 C1400 1.367 . S
C1401 C1403 1.433 . S
C1402 C1398 1.350 . S
C1402 C1399 1.463 . S
C1402 N1406 1.427 . S
C1403 H1393 0.929 . S
C1403 C1401 1.433 . S
C1403 N1406 1.384 . S
C1404 H1395 0.929 . S
C1404 C1396 1.378 . S
C1404 C1399 1.350 . S
C1405 H1392 0.929 . S
C1405 C1397 1.433 . S
C1405 N1407 1.384 . S
N1406 C1402 1.427 . S
N1406 C1403 1.384 . S
N1407 C1399 1.427 . S
N1407 C1405 1.384 . S
H1408 C1414 0.930 . S
H1409 C1418 0.930 . S
H1410 C1423 0.929 . S
H1411 C1421 0.929 . S
H1412 C1416 0.929 . S
H1413 C1422 0.929 . S
C1414 H1408 0.930 . S
C1414 C1415 1.367 . S
C1414 C1422 1.378 . S
C1415 C1414 1.367 . S
C1415 C1423 1.433 . S
C1416 H1412 0.929 . S
C1416 C1418 1.378 . S
C1416 C1420 1.350 . S
C1417 C1420 1.463 . S
C1417 C1422 1.350 . S
C1417 N1425 1.427 . S
C1418 H1409 0.930 . S
C1418 C1416 1.378 . S
C1418 C1419 1.367 . S
C1419 C1418 1.367 . S
C1419 C1421 1.433 . S
C1420 C1416 1.350 . S
C1420 C1417 1.463 . S
C1420 N1424 1.427 . S
C1421 H1411 0.929 . S
C1421 C1419 1.433 . S
C1421 N1424 1.384 . S
C1422 H1413 0.929 . S
C1422 C1414 1.378 . S
C1422 C1417 1.350 . S
C1423 H1410 0.929 . S
C1423 C1415 1.433 . S
C1423 N1425 1.384 . S
N1424 C1420 1.427 . S
N1424 C1421 1.384 . S
N1425 C1417 1.427 . S
N1425 C1423 1.384 . S
H1426 C1432 0.930 . S
H1427 C1436 0.930 . S
H1428 C1441 0.929 . S
H1429 C1439 0.929 . S
H1430 C1434 0.929 . S
H1431 C1440 0.929 . S
C1432 H1426 0.930 . S
C1432 C1433 1.367 . S
C1432 C1440 1.378 . S
C1433 C1432 1.367 . S
C1433 C1441 1.433 . S
C1434 H1430 0.929 . S
C1434 C1436 1.378 . S
C1434 C1438 1.350 . S
C1435 C1438 1.463 . S
C1435 C1440 1.350 . S
C1435 N1443 1.427 . S
C1436 H1427 0.930 . S
C1436 C1434 1.378 . S
C1436 C1437 1.367 . S
C1437 C1436 1.367 . S
C1437 C1439 1.433 . S
C1438 C1434 1.350 . S
C1438 C1435 1.463 . S
C1438 N1442 1.427 . S
C1439 H1429 0.929 . S
C1439 C1437 1.433 . S
C1439 N1442 1.384 . S
C1440 H1431 0.929 . S
C1440 C1432 1.378 . S
C1440 C1435 1.350 . S
C1441 H1428 0.929 . S
C1441 C1433 1.433 . S
C1441 N1443 1.384 . S
N1442 C1438 1.427 . S
N1442 C1439 1.384 . S
N1443 C1435 1.427 . S
N1443 C1441 1.384 . S
H1444 C1450 0.930 . S
H1445 C1454 0.930 . S
H1446 C1459 0.929 . S
H1447 C1457 0.929 . S
H1448 C1452 0.929 . S
H1449 C1458 0.929 . S
C1450 H1444 0.930 . S
C1450 C1451 1.367 . S
C1450 C1458 1.378 . S
C1451 C1450 1.367 . S
C1451 C1459 1.433 . S
C1452 H1448 0.929 . S
C1452 C1454 1.378 . S
C1452 C1456 1.350 . S
C1453 C1456 1.463 . S
C1453 C1458 1.350 . S
C1453 N1461 1.427 . S
C1454 H1445 0.930 . S
C1454 C1452 1.378 . S
C1454 C1455 1.367 . S
C1455 C1454 1.367 . S
C1455 C1457 1.433 . S
C1456 C1452 1.350 . S
C1456 C1453 1.463 . S
C1456 N1460 1.427 . S
C1457 H1447 0.929 . S
C1457 C1455 1.433 . S
C1457 N1460 1.384 . S
C1458 H1449 0.929 . S
C1458 C1450 1.378 . S
C1458 C1453 1.350 . S
C1459 H1446 0.929 . S
C1459 C1451 1.433 . S
C1459 N1461 1.384 . S
N1460 C1456 1.427 . S
N1460 C1457 1.384 . S
N1461 C1453 1.427 . S
N1461 C1459 1.384 . S
H1462 C1468 0.930 . S
H1463 C1472 0.930 . S
H1464 C1477 0.929 . S
H1465 C1475 0.929 . S
H1466 C1470 0.929 . S
H1467 C1476 0.929 . S
C1468 H1462 0.930 . S
C1468 C1469 1.367 . S
C1468 C1476 1.378 . S
C1469 C1468 1.367 . S
C1469 C1477 1.433 . S
C1470 H1466 0.929 . S
C1470 C1472 1.378 . S
C1470 C1474 1.350 . S
C1471 C1474 1.463 . S
C1471 C1476 1.350 . S
C1471 N1479 1.427 . S
C1472 H1463 0.930 . S
C1472 C1470 1.378 . S
C1472 C1473 1.367 . S
C1473 C1472 1.367 . S
C1473 C1475 1.433 . S
C1474 C1470 1.350 . S
C1474 C1471 1.463 . S
C1474 N1478 1.427 . S
C1475 H1465 0.929 . S
C1475 C1473 1.433 . S
C1475 N1478 1.384 . S
C1476 H1467 0.929 . S
C1476 C1468 1.378 . S
C1476 C1471 1.350 . S
C1477 H1464 0.929 . S
C1477 C1469 1.433 . S
C1477 N1479 1.384 . S
N1478 C1474 1.427 . S
N1478 C1475 1.384 . S
N1479 C1471 1.427 . S
N1479 C1477 1.384 . S
H1480 C1486 0.930 . S
H1481 C1490 0.930 . S
H1482 C1495 0.929 . S
H1483 C1493 0.929 . S
H1484 C1488 0.929 1_655 S
H1485 C1494 0.929 . S
C1486 H1480 0.930 . S
C1486 C1487 1.367 . S
C1486 C1494 1.378 . S
C1487 C1486 1.367 . S
C1487 C1495 1.433 . S
C1488 H1484 0.929 1_455 S
C1488 C1490 1.378 1_455 S
C1488 C1492 1.350 . S
C1489 C1492 1.463 . S
C1489 C1494 1.350 . S
C1489 N1497 1.427 . S
C1490 H1481 0.930 . S
C1490 C1488 1.378 1_655 S
C1490 C1491 1.367 1_655 S
C1491 C1490 1.367 1_455 S
C1491 C1493 1.433 . S
C1492 C1488 1.350 . S
C1492 C1489 1.463 . S
C1492 N1496 1.427 . S
C1493 H1483 0.929 . S
C1493 C1491 1.433 . S
C1493 N1496 1.384 . S
C1494 H1485 0.929 . S
C1494 C1486 1.378 . S
C1494 C1489 1.350 . S
C1495 H1482 0.929 . S
C1495 C1487 1.433 . S
C1495 N1497 1.384 . S
N1496 C1492 1.427 . S
N1496 C1493 1.384 . S
N1497 C1489 1.427 . S
N1497 C1495 1.384 . S
H1498 C1504 0.930 . S
H1499 C1508 0.930 . S
H1500 C1513 0.929 . S
H1501 C1511 0.929 . S
H1502 C1506 0.929 . S
H1503 C1512 0.929 . S
C1504 H1498 0.930 . S
C1504 C1505 1.367 . S
C1504 C1512 1.378 . S
C1505 C1504 1.367 . S
C1505 C1513 1.433 . S
C1506 H1502 0.929 . S
C1506 C1508 1.378 . S
C1506 C1510 1.350 . S
C1507 C1510 1.463 . S
C1507 C1512 1.350 . S
C1507 N1515 1.427 . S
C1508 H1499 0.930 . S
C1508 C1506 1.378 . S
C1508 C1509 1.367 . S
C1509 C1508 1.367 . S
C1509 C1511 1.433 . S
C1510 C1506 1.350 . S
C1510 C1507 1.463 . S
C1510 N1514 1.427 . S
C1511 H1501 0.929 . S
C1511 C1509 1.433 . S
C1511 N1514 1.384 . S
C1512 H1503 0.929 . S
C1512 C1504 1.378 . S
C1512 C1507 1.350 . S
C1513 H1500 0.929 . S
C1513 C1505 1.433 . S
C1513 N1515 1.384 . S
N1514 C1510 1.427 . S
N1514 C1511 1.384 . S
N1515 C1507 1.427 . S
N1515 C1513 1.384 . S
H1516 C1522 0.930 . S
H1517 C1526 0.890 1_554 S
H1518 C1531 0.929 . S
H1519 C1529 0.929 . S
H1520 C1524 0.929 . S
H1521 C1530 0.929 . S
C1522 H1516 0.930 . S
C1522 C1523 1.367 . S
C1522 C1530 1.378 . S
C1523 C1522 1.367 . S
C1523 C1531 1.433 . S
C1524 H1520 0.929 . S
C1524 C1526 1.406 . S
C1524 C1528 1.350 . S
C1525 C1528 1.463 . S
C1525 C1530 1.350 . S
C1525 N1533 1.427 . S
C1526 H1517 0.890 1_556 S
C1526 C1524 1.406 . S
C1526 C1527 1.381 . S
C1527 C1526 1.381 . S
C1527 C1529 1.433 . S
C1528 C1524 1.350 . S
C1528 C1525 1.463 . S
C1528 N1532 1.427 . S
C1529 H1519 0.929 . S
C1529 C1527 1.433 . S
C1529 N1532 1.384 . S
C1530 H1521 0.929 . S
C1530 C1522 1.378 . S
C1530 C1525 1.350 . S
C1531 H1518 0.929 . S
C1531 C1523 1.433 . S
C1531 N1533 1.384 . S
N1532 C1528 1.427 . S
N1532 C1529 1.384 . S
N1533 C1525 1.427 . S
N1533 C1531 1.384 . S
H1534 C1540 0.930 . S
H1535 C1544 0.930 . S
H1536 C1549 0.929 . S
H1537 C1547 0.929 . S
H1538 C1542 0.929 . S
H1539 C1548 0.929 . S
C1540 H1534 0.930 . S
C1540 C1541 1.367 . S
C1540 C1548 1.378 . S
C1541 C1540 1.367 . S
C1541 C1549 1.433 . S
C1542 H1538 0.929 . S
C1542 C1544 1.378 . S
C1542 C1546 1.350 . S
C1543 C1546 1.463 . S
C1543 C1548 1.350 . S
C1543 N1551 1.427 . S
C1544 H1535 0.930 . S
C1544 C1542 1.378 . S
C1544 C1545 1.367 . S
C1545 C1544 1.367 . S
C1545 C1547 1.433 . S
C1546 C1542 1.350 . S
C1546 C1543 1.463 . S
C1546 N1550 1.427 . S
C1547 H1537 0.929 . S
C1547 C1545 1.433 . S
C1547 N1550 1.384 . S
C1548 H1539 0.929 . S
C1548 C1540 1.378 . S
C1548 C1543 1.350 . S
C1549 H1536 0.929 . S
C1549 C1541 1.433 . S
C1549 N1551 1.384 . S
N1550 C1546 1.427 . S
N1550 C1547 1.384 . S
N1551 C1543 1.427 . S
N1551 C1549 1.384 . S
H1552 C1558 0.930 . S
H1553 C1562 0.930 . S
H1554 C1567 0.929 . S
H1555 C1565 0.929 . S
H1556 C1560 0.929 . S
H1557 C1566 0.929 . S
C1558 H1552 0.930 . S
C1558 C1559 1.367 . S
C1558 C1566 1.378 . S
C1559 C1558 1.367 . S
C1559 C1567 1.433 . S
C1560 H1556 0.929 . S
C1560 C1562 1.378 . S
C1560 C1564 1.350 . S
C1561 C1564 1.463 . S
C1561 C1566 1.350 . S
C1561 N1569 1.427 . S
C1562 H1553 0.930 . S
C1562 C1560 1.378 . S
C1562 C1563 1.367 . S
C1563 C1562 1.367 . S
C1563 C1565 1.433 . S
C1564 C1560 1.350 . S
C1564 C1561 1.463 . S
C1564 N1568 1.427 . S
C1565 H1555 0.929 . S
C1565 C1563 1.433 . S
C1565 N1568 1.384 . S
C1566 H1557 0.929 . S
C1566 C1558 1.378 . S
C1566 C1561 1.350 . S
C1567 H1554 0.929 . S
C1567 C1559 1.433 . S
C1567 N1569 1.384 . S
N1568 C1564 1.427 . S
N1568 C1565 1.384 . S
N1569 C1561 1.427 . S
N1569 C1567 1.384 . S
H1570 C1576 0.930 . S
H1571 C1580 0.930 . S
H1572 C1585 0.929 . S
H1573 C1583 0.929 . S
H1574 C1578 0.929 . S
H1575 C1584 0.929 . S
C1576 H1570 0.930 . S
C1576 C1577 1.367 . S
C1576 C1584 1.378 . S
C1577 C1576 1.367 . S
C1577 C1585 1.433 . S
C1578 H1574 0.929 . S
C1578 C1580 1.378 . S
C1578 C1582 1.350 . S
C1579 C1582 1.463 . S
C1579 C1584 1.350 . S
C1579 N1587 1.427 . S
C1580 H1571 0.930 . S
C1580 C1578 1.378 . S
C1580 C1581 1.367 . S
C1581 C1580 1.367 . S
C1581 C1583 1.433 . S
C1582 C1578 1.350 . S
C1582 C1579 1.463 . S
C1582 N1586 1.427 . S
C1583 H1573 0.929 . S
C1583 C1581 1.433 . S
C1583 N1586 1.384 . S
C1584 H1575 0.929 . S
C1584 C1576 1.378 . S
C1584 C1579 1.350 . S
C1585 H1572 0.929 . S
C1585 C1577 1.433 . S
C1585 N1587 1.384 . S
N1586 C1582 1.427 . S
N1586 C1583 1.384 . S
N1587 C1579 1.427 . S
N1587 C1585 1.384 . S
H1588 C1594 0.930 . S
H1589 C1598 0.930 . S
H1590 C1603 0.929 . S
H1591 C1601 0.953 . S
H1592 C1596 0.929 . S
H1593 C1602 0.929 . S
C1594 H1588 0.930 . S
C1594 C1595 1.367 1_565 S
C1594 C1602 1.378 . S
C1595 C1594 1.367 1_545 S
C1595 C1603 1.433 . S
C1596 H1592 0.929 . S
C1596 C1598 1.378 . S
C1596 C1600 1.350 . S
C1597 C1600 1.463 . S
C1597 C1602 1.350 1_545 S
C1597 N1605 1.427 . S
C1598 H1589 0.930 . S
C1598 C1596 1.378 . S
C1598 C1599 1.367 . S
C1599 C1598 1.367 . S
C1599 C1601 1.433 . S
C1600 C1596 1.350 . S
C1600 C1597 1.463 . S
C1600 N1604 1.427 . S
C1601 H1591 0.953 . S
C1601 C1599 1.433 . S
C1601 N1604 1.384 . S
C1602 H1593 0.929 . S
C1602 C1594 1.378 . S
C1602 C1597 1.350 1_565 S
C1603 H1590 0.929 . S
C1603 C1595 1.433 . S
C1603 N1605 1.384 . S
N1604 C1600 1.427 . S
N1604 C1601 1.384 . S
N1605 C1597 1.427 . S
N1605 C1603 1.384 . S
H1606 C1612 0.930 . S
H1607 C1616 0.930 . S
H1608 C1621 0.929 . S
H1609 C1619 0.929 . S
H1610 C1614 0.929 . S
H1611 C1620 0.929 . S
C1612 H1606 0.930 . S
C1612 C1613 1.367 . S
C1612 C1620 1.378 . S
C1613 C1612 1.367 . S
C1613 C1621 1.433 . S
C1614 H1610 0.929 . S
C1614 C1616 1.378 . S
C1614 C1618 1.350 . S
C1615 C1618 1.463 . S
C1615 C1620 1.350 . S
C1615 N1623 1.427 . S
C1616 H1607 0.930 . S
C1616 C1614 1.378 . S
C1616 C1617 1.367 . S
C1617 C1616 1.367 . S
C1617 C1619 1.433 . S
C1618 C1614 1.350 . S
C1618 C1615 1.463 . S
C1618 N1622 1.427 . S
C1619 H1609 0.929 . S
C1619 C1617 1.433 . S
C1619 N1622 1.384 . S
C1620 H1611 0.929 . S
C1620 C1612 1.378 . S
C1620 C1615 1.350 . S
C1621 H1608 0.929 . S
C1621 C1613 1.433 . S
C1621 N1623 1.384 . S
N1622 C1618 1.427 . S
N1622 C1619 1.384 . S
N1623 C1615 1.427 . S
N1623 C1621 1.384 . S
H1624 C1630 0.930 . S
H1625 C1634 0.930 . S
H1626 C1639 0.929 . S
H1627 C1637 0.929 . S
H1628 C1632 0.929 . S
H1629 C1638 0.929 . S
C1630 H1624 0.930 . S
C1630 C1631 1.367 . S
C1630 C1638 1.378 . S
C1631 C1630 1.367 . S
C1631 C1639 1.433 . S
C1632 H1628 0.929 . S
C1632 C1634 1.378 . S
C1632 C1636 1.350 . S
C1633 C1636 1.463 . S
C1633 C1638 1.350 . S
C1633 N1641 1.427 . S
C1634 H1625 0.930 . S
C1634 C1632 1.378 . S
C1634 C1635 1.367 . S
C1635 C1634 1.367 . S
C1635 C1637 1.433 . S
C1636 C1632 1.350 . S
C1636 C1633 1.463 . S
C1636 N1640 1.427 . S
C1637 H1627 0.929 . S
C1637 C1635 1.433 . S
C1637 N1640 1.384 . S
C1638 H1629 0.929 . S
C1638 C1630 1.378 . S
C1638 C1633 1.350 . S
C1639 H1626 0.929 . S
C1639 C1631 1.433 . S
C1639 N1641 1.384 . S
N1640 C1636 1.427 . S
N1640 C1637 1.384 . S
N1641 C1633 1.427 . S
N1641 C1639 1.384 . S
H1642 C1648 0.930 . S
H1643 C1652 0.930 . S
H1644 C1657 0.929 . S
H1645 C1655 0.929 . S
H1646 C1650 0.929 . S
H1647 C1656 0.929 . S
C1648 H1642 0.930 . S
C1648 C1649 1.367 . S
C1648 C1656 1.378 . S
C1649 C1648 1.367 . S
C1649 C1657 1.433 . S
C1650 H1646 0.929 . S
C1650 C1652 1.378 . S
C1650 C1654 1.350 . S
C1651 C1654 1.463 . S
C1651 C1656 1.350 . S
C1651 N1659 1.427 . S
C1652 H1643 0.930 . S
C1652 C1650 1.378 . S
C1652 C1653 1.367 . S
C1653 C1652 1.367 . S
C1653 C1655 1.433 . S
C1654 C1650 1.350 . S
C1654 C1651 1.463 . S
C1654 N1658 1.427 . S
C1655 H1645 0.929 . S
C1655 C1653 1.433 . S
C1655 N1658 1.384 . S
C1656 H1647 0.929 . S
C1656 C1648 1.378 . S
C1656 C1651 1.350 . S
C1657 H1644 0.929 . S
C1657 C1649 1.433 . S
C1657 N1659 1.384 . S
N1658 C1654 1.427 . S
N1658 C1655 1.384 . S
N1659 C1651 1.427 . S
N1659 C1657 1.384 . S
H1660 C1666 0.923 . S
H1661 C1670 0.930 . S
H1662 C1675 0.929 . S
H1663 C1673 0.929 . S
H1664 C1668 0.929 . S
H1665 C1674 0.929 . S
C1666 H1660 0.923 . S
C1666 C1667 1.385 1_565 S
C1666 C1674 1.384 . S
C1667 C1666 1.385 1_545 S
C1667 C1675 1.423 . S
C1668 H1664 0.929 . S
C1668 C1670 1.378 . S
C1668 C1672 1.350 . S
C1669 C1672 1.463 . S
C1669 C1674 1.350 . S
C1669 N1677 1.427 . S
C1670 H1661 0.930 . S
C1670 C1668 1.378 . S
C1670 C1671 1.367 . S
C1671 C1670 1.367 . S
C1671 C1673 1.433 . S
C1672 C1668 1.350 . S
C1672 C1669 1.463 . S
C1672 N1676 1.427 . S
C1673 H1663 0.929 . S
C1673 C1671 1.433 . S
C1673 N1676 1.384 . S
C1674 H1665 0.929 . S
C1674 C1666 1.384 . S
C1674 C1669 1.350 . S
C1675 H1662 0.929 . S
C1675 C1667 1.423 . S
C1675 N1677 1.384 1_545 S
N1676 C1672 1.427 . S
N1676 C1673 1.384 . S
N1677 C1669 1.427 . S
N1677 C1675 1.384 1_565 S
H1678 C1684 0.930 . S
H1679 C1688 0.930 . S
H1680 C1693 0.929 . S
H1681 C1691 0.929 . S
H1682 C1686 0.929 . S
H1683 C1692 0.929 . S
C1684 H1678 0.930 . S
C1684 C1685 1.367 . S
C1684 C1692 1.378 . S
C1685 C1684 1.367 . S
C1685 C1693 1.433 . S
C1686 H1682 0.929 . S
C1686 C1688 1.378 . S
C1686 C1690 1.350 . S
C1687 C1690 1.463 . S
C1687 C1692 1.350 . S
C1687 N1695 1.427 . S
C1688 H1679 0.930 . S
C1688 C1686 1.378 . S
C1688 C1689 1.367 . S
C1689 C1688 1.367 . S
C1689 C1691 1.433 . S
C1690 C1686 1.350 . S
C1690 C1687 1.463 . S
C1690 N1694 1.427 . S
C1691 H1681 0.929 . S
C1691 C1689 1.433 . S
C1691 N1694 1.384 . S
C1692 H1683 0.929 . S
C1692 C1684 1.378 . S
C1692 C1687 1.350 . S
C1693 H1680 0.929 . S
C1693 C1685 1.433 . S
C1693 N1695 1.384 . S
N1694 C1690 1.427 . S
N1694 C1691 1.384 . S
N1695 C1687 1.427 . S
N1695 C1693 1.384 . S
H1696 C1702 0.930 . S
H1697 C1706 0.930 . S
H1698 C1711 0.929 . S
H1699 C1709 0.929 . S
H1700 C1704 0.929 . S
H1701 C1710 0.929 . S
C1702 H1696 0.930 . S
C1702 C1703 1.367 . S
C1702 C1710 1.378 . S
C1703 C1702 1.367 . S
C1703 C1711 1.433 . S
C1704 H1700 0.929 . S
C1704 C1706 1.378 . S
C1704 C1708 1.350 . S
C1705 C1708 1.463 . S
C1705 C1710 1.350 . S
C1705 N1713 1.427 . S
C1706 H1697 0.930 . S
C1706 C1704 1.378 . S
C1706 C1707 1.367 . S
C1707 C1706 1.367 . S
C1707 C1709 1.433 . S
C1708 C1704 1.350 . S
C1708 C1705 1.463 . S
C1708 N1712 1.427 . S
C1709 H1699 0.929 . S
C1709 C1707 1.433 . S
C1709 N1712 1.384 . S
C1710 H1701 0.929 . S
C1710 C1702 1.378 . S
C1710 C1705 1.350 . S
C1711 H1698 0.929 . S
C1711 C1703 1.433 . S
C1711 N1713 1.384 . S
N1712 C1708 1.427 . S
N1712 C1709 1.384 . S
N1713 C1705 1.427 . S
N1713 C1711 1.384 . S
H1714 C1720 0.930 . S
H1715 C1724 0.930 . S
H1716 C1729 0.929 . S
H1717 C1727 0.929 . S
H1718 C1722 0.929 . S
H1719 C1728 0.929 . S
C1720 H1714 0.930 . S
C1720 C1721 1.367 . S
C1720 C1728 1.378 . S
C1721 C1720 1.367 . S
C1721 C1729 1.433 . S
C1722 H1718 0.929 . S
C1722 C1724 1.378 . S
C1722 C1726 1.350 . S
C1723 C1726 1.463 . S
C1723 C1728 1.350 . S
C1723 N1731 1.427 . S
C1724 H1715 0.930 . S
C1724 C1722 1.378 . S
C1724 C1725 1.367 . S
C1725 C1724 1.367 . S
C1725 C1727 1.433 . S
C1726 C1722 1.350 . S
C1726 C1723 1.463 . S
C1726 N1730 1.427 . S
C1727 H1717 0.929 . S
C1727 C1725 1.433 . S
C1727 N1730 1.384 . S
C1728 H1719 0.929 . S
C1728 C1720 1.378 . S
C1728 C1723 1.350 . S
C1729 H1716 0.929 . S
C1729 C1721 1.433 . S
C1729 N1731 1.384 . S
N1730 C1726 1.427 . S
N1730 C1727 1.384 . S
N1731 C1723 1.427 . S
N1731 C1729 1.384 . S
H1732 C1738 0.930 . S
H1733 C1742 0.930 . S
H1734 C1747 0.929 . S
H1735 C1745 0.929 . S
H1736 C1740 0.929 . S
H1737 C1746 0.929 . S
C1738 H1732 0.930 . S
C1738 C1739 1.367 . S
C1738 C1746 1.378 . S
C1739 C1738 1.367 . S
C1739 C1747 1.433 . S
C1740 H1736 0.929 . S
C1740 C1742 1.378 . S
C1740 C1744 1.350 . S
C1741 C1744 1.463 . S
C1741 C1746 1.350 . S
C1741 N1749 1.427 . S
C1742 H1733 0.930 . S
C1742 C1740 1.378 . S
C1742 C1743 1.367 . S
C1743 C1742 1.367 . S
C1743 C1745 1.433 . S
C1744 C1740 1.350 . S
C1744 C1741 1.463 . S
C1744 N1748 1.427 . S
C1745 H1735 0.929 . S
C1745 C1743 1.433 . S
C1745 N1748 1.384 . S
C1746 H1737 0.929 . S
C1746 C1738 1.378 . S
C1746 C1741 1.350 . S
C1747 H1734 0.929 . S
C1747 C1739 1.433 . S
C1747 N1749 1.384 . S
N1748 C1744 1.427 . S
N1748 C1745 1.384 . S
N1749 C1741 1.427 . S
N1749 C1747 1.384 . S
H1750 C1756 0.930 . S
H1751 C1760 0.930 . S
H1752 C1765 0.929 . S
H1753 C1763 0.929 . S
H1754 C1758 0.929 . S
H1755 C1764 0.929 . S
C1756 H1750 0.930 . S
C1756 C1757 1.367 . S
C1756 C1764 1.378 . S
C1757 C1756 1.367 . S
C1757 C1765 1.433 . S
C1758 H1754 0.929 . S
C1758 C1760 1.378 . S
C1758 C1762 1.350 . S
C1759 C1762 1.463 . S
C1759 C1764 1.350 . S
C1759 N1767 1.427 . S
C1760 H1751 0.930 . S
C1760 C1758 1.378 . S
C1760 C1761 1.367 . S
C1761 C1760 1.367 . S
C1761 C1763 1.433 . S
C1762 C1758 1.350 . S
C1762 C1759 1.463 . S
C1762 N1766 1.427 . S
C1763 H1753 0.929 . S
C1763 C1761 1.433 . S
C1763 N1766 1.384 . S
C1764 H1755 0.929 . S
C1764 C1756 1.378 . S
C1764 C1759 1.350 . S
C1765 H1752 0.929 . S
C1765 C1757 1.433 . S
C1765 N1767 1.384 . S
N1766 C1762 1.427 . S
N1766 C1763 1.384 . S
N1767 C1759 1.427 . S
N1767 C1765 1.384 . S
H1768 C1774 0.930 . S
H1769 C1778 0.930 . S
H1770 C1783 0.929 . S
H1771 C1781 0.929 . S
H1772 C1776 0.929 . S
H1773 C1782 0.929 . S
C1774 H1768 0.930 . S
C1774 C1775 1.367 . S
C1774 C1782 1.378 1_545 S
C1775 C1774 1.367 . S
C1775 C1783 1.433 . S
C1776 H1772 0.929 . S
C1776 C1778 1.378 . S
C1776 C1780 1.350 . S
C1777 C1780 1.463 . S
C1777 C1782 1.350 . S
C1777 N1785 1.427 . S
C1778 H1769 0.930 . S
C1778 C1776 1.378 . S
C1778 C1779 1.367 . S
C1779 C1778 1.367 . S
C1779 C1781 1.433 . S
C1780 C1776 1.350 . S
C1780 C1777 1.463 . S
C1780 N1784 1.427 . S
C1781 H1771 0.929 . S
C1781 C1779 1.433 . S
C1781 N1784 1.384 . S
C1782 H1773 0.929 . S
C1782 C1774 1.378 1_565 S
C1782 C1777 1.350 . S
C1783 H1770 0.929 . S
C1783 C1775 1.433 . S
C1783 N1785 1.384 1_545 S
N1784 C1780 1.427 . S
N1784 C1781 1.384 . S
N1785 C1777 1.427 . S
N1785 C1783 1.384 1_565 S
H1786 C1792 0.930 . S
H1787 C1796 0.930 . S
H1788 C1801 0.929 . S
H1789 C1799 0.929 . S
H1790 C1794 0.929 . S
H1791 C1800 0.929 . S
C1792 H1786 0.930 . S
C1792 C1793 1.367 . S
C1792 C1800 1.378 . S
C1793 C1792 1.367 . S
C1793 C1801 1.433 . S
C1794 H1790 0.929 . S
C1794 C1796 1.378 . S
C1794 C1798 1.350 . S
C1795 C1798 1.463 . S
C1795 C1800 1.350 . S
C1795 N1803 1.427 . S
C1796 H1787 0.930 . S
C1796 C1794 1.378 . S
C1796 C1797 1.367 . S
C1797 C1796 1.367 . S
C1797 C1799 1.433 . S
C1798 C1794 1.350 . S
C1798 C1795 1.463 . S
C1798 N1802 1.427 . S
C1799 H1789 0.929 . S
C1799 C1797 1.433 . S
C1799 N1802 1.384 . S
C1800 H1791 0.929 . S
C1800 C1792 1.378 . S
C1800 C1795 1.350 . S
C1801 H1788 0.929 . S
C1801 C1793 1.433 . S
C1801 N1803 1.384 . S
N1802 C1798 1.427 . S
N1802 C1799 1.384 . S
N1803 C1795 1.427 . S
N1803 C1801 1.384 . S
H1804 C1810 0.930 . S
H1805 C1814 0.930 . S
H1806 C1819 0.929 . S
H1807 C1817 0.929 . S
H1808 C1812 0.929 . S
H1809 C1818 0.929 . S
C1810 H1804 0.930 . S
C1810 C1811 1.367 . S
C1810 C1818 1.378 . S
C1811 C1810 1.367 . S
C1811 C1819 1.433 . S
C1812 H1808 0.929 . S
C1812 C1814 1.378 . S
C1812 C1816 1.350 . S
C1813 C1816 1.463 . S
C1813 C1818 1.350 . S
C1813 N1821 1.427 . S
C1814 H1805 0.930 . S
C1814 C1812 1.378 . S
C1814 C1815 1.367 . S
C1815 C1814 1.367 . S
C1815 C1817 1.433 . S
C1816 C1812 1.350 . S
C1816 C1813 1.463 . S
C1816 N1820 1.427 . S
C1817 H1807 0.929 . S
C1817 C1815 1.433 . S
C1817 N1820 1.384 . S
C1818 H1809 0.929 . S
C1818 C1810 1.378 . S
C1818 C1813 1.350 . S
C1819 H1806 0.929 . S
C1819 C1811 1.433 . S
C1819 N1821 1.384 . S
N1820 C1816 1.427 . S
N1820 C1817 1.384 . S
N1821 C1813 1.427 . S
N1821 C1819 1.384 . S
H1822 C1828 0.930 . S
H1823 C1832 0.930 . S
H1824 C1837 0.929 . S
H1825 C1835 0.929 . S
H1826 C1830 0.929 . S
H1827 C1836 0.929 . S
C1828 H1822 0.930 . S
C1828 C1829 1.367 . S
C1828 C1836 1.378 . S
C1829 C1828 1.367 . S
C1829 C1837 1.433 . S
C1830 H1826 0.929 . S
C1830 C1832 1.378 . S
C1830 C1834 1.350 . S
C1831 C1834 1.463 . S
C1831 C1836 1.350 . S
C1831 N1839 1.427 . S
C1832 H1823 0.930 . S
C1832 C1830 1.378 . S
C1832 C1833 1.367 . S
C1833 C1832 1.367 . S
C1833 C1835 1.433 . S
C1834 C1830 1.350 . S
C1834 C1831 1.463 . S
C1834 N1838 1.427 . S
C1835 H1825 0.929 . S
C1835 C1833 1.433 . S
C1835 N1838 1.384 . S
C1836 H1827 0.929 . S
C1836 C1828 1.378 . S
C1836 C1831 1.350 . S
C1837 H1824 0.929 . S
C1837 C1829 1.433 . S
C1837 N1839 1.384 . S
N1838 C1834 1.427 . S
N1838 C1835 1.384 . S
N1839 C1831 1.427 . S
N1839 C1837 1.384 . S
H1840 C1846 0.930 . S
H1841 C1850 0.930 . S
H1842 C1855 0.929 . S
H1843 C1853 0.929 . S
H1844 C1848 0.929 . S
H1845 C1854 0.929 . S
C1846 H1840 0.930 . S
C1846 C1847 1.367 . S
C1846 C1854 1.378 . S
C1847 C1846 1.367 . S
C1847 C1855 1.433 . S
C1848 H1844 0.929 . S
C1848 C1850 1.378 . S
C1848 C1852 1.350 . S
C1849 C1852 1.463 . S
C1849 C1854 1.350 . S
C1849 N1857 1.427 . S
C1850 H1841 0.930 . S
C1850 C1848 1.378 . S
C1850 C1851 1.367 . S
C1851 C1850 1.367 . S
C1851 C1853 1.433 . S
C1852 C1848 1.350 . S
C1852 C1849 1.463 . S
C1852 N1856 1.427 . S
C1853 H1843 0.929 . S
C1853 C1851 1.433 . S
C1853 N1856 1.384 . S
C1854 H1845 0.929 . S
C1854 C1846 1.378 . S
C1854 C1849 1.350 . S
C1855 H1842 0.929 . S
C1855 C1847 1.433 . S
C1855 N1857 1.384 . S
N1856 C1852 1.427 . S
N1856 C1853 1.384 . S
N1857 C1849 1.427 . S
N1857 C1855 1.384 . S
H1858 C1864 0.930 . S
H1859 C1868 0.930 . S
H1860 C1873 0.929 . S
H1861 C1871 0.929 . S
H1862 C1866 0.929 . S
H1863 C1872 0.929 . S
C1864 H1858 0.930 . S
C1864 C1865 1.367 . S
C1864 C1872 1.378 . S
C1865 C1864 1.367 . S
C1865 C1873 1.433 . S
C1866 H1862 0.929 . S
C1866 C1868 1.378 . S
C1866 C1870 1.350 . S
C1867 C1870 1.463 . S
C1867 C1872 1.350 . S
C1867 N1875 1.427 . S
C1868 H1859 0.930 . S
C1868 C1866 1.378 . S
C1868 C1869 1.367 . S
C1869 C1868 1.367 . S
C1869 C1871 1.433 . S
C1870 C1866 1.350 . S
C1870 C1867 1.463 . S
C1870 N1874 1.427 . S
C1871 H1861 0.929 . S
C1871 C1869 1.433 . S
C1871 N1874 1.384 . S
C1872 H1863 0.929 . S
C1872 C1864 1.378 . S
C1872 C1867 1.350 . S
C1873 H1860 0.929 . S
C1873 C1865 1.433 . S
C1873 N1875 1.384 . S
N1874 C1870 1.427 . S
N1874 C1871 1.384 . S
N1875 C1867 1.427 . S
N1875 C1873 1.384 . S
H1876 C1882 0.930 . S
H1877 C1886 0.930 . S
H1878 C1891 0.929 . S
H1879 C1889 0.929 1_556 S
H1880 C1884 0.929 . S
H1881 C1890 0.929 . S
C1882 H1876 0.930 . S
C1882 C1883 1.367 . S
C1882 C1890 1.378 . S
C1883 C1882 1.367 . S
C1883 C1891 1.433 1_556 S
C1884 H1880 0.929 . S
C1884 C1886 1.378 . S
C1884 C1888 1.350 . S
C1885 C1888 1.463 . S
C1885 C1890 1.350 1_554 S
C1885 N1893 1.427 . S
C1886 H1877 0.930 . S
C1886 C1884 1.378 . S
C1886 C1887 1.367 . S
C1887 C1886 1.367 . S
C1887 C1889 1.433 . S
C1888 C1884 1.350 . S
C1888 C1885 1.463 . S
C1888 N1892 1.427 1_554 S
C1889 H1879 0.929 1_554 S
C1889 C1887 1.433 . S
C1889 N1892 1.384 1_554 S
C1890 H1881 0.929 . S
C1890 C1882 1.378 . S
C1890 C1885 1.350 1_556 S
C1891 H1878 0.929 . S
C1891 C1883 1.433 1_554 S
C1891 N1893 1.384 . S
N1892 C1888 1.427 1_556 S
N1892 C1889 1.384 1_556 S
N1893 C1885 1.427 . S
N1893 C1891 1.384 . S
H1894 C1900 0.930 . S
H1895 C1904 0.930 . S
H1896 C1909 0.929 . S
H1897 C1907 0.929 . S
H1898 C1902 0.929 . S
H1899 C1908 0.929 . S
C1900 H1894 0.930 . S
C1900 C1901 1.367 1_655 S
C1900 C1908 1.378 . S
C1901 C1900 1.367 1_455 S
C1901 C1909 1.433 . S
C1902 H1898 0.929 . S
C1902 C1904 1.378 . S
C1902 C1906 1.350 . S
C1903 C1906 1.463 . S
C1903 C1908 1.350 . S
C1903 N1911 1.427 . S
C1904 H1895 0.930 . S
C1904 C1902 1.378 . S
C1904 C1905 1.367 . S
C1905 C1904 1.367 . S
C1905 C1907 1.433 . S
C1906 C1902 1.350 . S
C1906 C1903 1.463 . S
C1906 N1910 1.427 . S
C1907 H1897 0.929 . S
C1907 C1905 1.433 . S
C1907 N1910 1.384 . S
C1908 H1899 0.929 . S
C1908 C1900 1.378 . S
C1908 C1903 1.350 . S
C1909 H1896 0.929 . S
C1909 C1901 1.433 . S
C1909 N1911 1.384 1_455 S
N1910 C1906 1.427 . S
N1910 C1907 1.384 . S
N1911 C1903 1.427 . S
N1911 C1909 1.384 1_655 S
H1912 C1918 0.930 . S
H1913 C1922 0.930 . S
H1914 C1927 0.929 . S
H1915 C1925 0.929 . S
H1916 C1920 0.929 . S
H1917 C1926 0.929 . S
C1918 H1912 0.930 . S
C1918 C1919 1.367 . S
C1918 C1926 1.378 . S
C1919 C1918 1.367 . S
C1919 C1927 1.433 . S
C1920 H1916 0.929 . S
C1920 C1922 1.378 . S
C1920 C1924 1.350 . S
C1921 C1924 1.463 . S
C1921 C1926 1.350 . S
C1921 N1929 1.427 . S
C1922 H1913 0.930 . S
C1922 C1920 1.378 . S
C1922 C1923 1.367 . S
C1923 C1922 1.367 . S
C1923 C1925 1.433 . S
C1924 C1920 1.350 . S
C1924 C1921 1.463 . S
C1924 N1928 1.427 . S
C1925 H1915 0.929 . S
C1925 C1923 1.433 . S
C1925 N1928 1.384 . S
C1926 H1917 0.929 . S
C1926 C1918 1.378 . S
C1926 C1921 1.350 . S
C1927 H1914 0.929 . S
C1927 C1919 1.433 . S
C1927 N1929 1.384 . S
N1928 C1924 1.427 . S
N1928 C1925 1.384 . S
N1929 C1921 1.427 . S
N1929 C1927 1.384 . S
H1930 C1936 0.930 . S
H1931 C1940 0.930 . S
H1932 C1945 0.929 . S
H1933 C1943 0.929 . S
H1934 C1938 0.929 . S
H1935 C1944 0.929 . S
C1936 H1930 0.930 . S
C1936 C1937 1.367 . S
C1936 C1944 1.378 . S
C1937 C1936 1.367 . S
C1937 C1945 1.433 . S
C1938 H1934 0.929 . S
C1938 C1940 1.378 . S
C1938 C1942 1.350 . S
C1939 C1942 1.463 . S
C1939 C1944 1.350 . S
C1939 N1947 1.427 . S
C1940 H1931 0.930 . S
C1940 C1938 1.378 . S
C1940 C1941 1.367 . S
C1941 C1940 1.367 . S
C1941 C1943 1.433 . S
C1942 C1938 1.350 . S
C1942 C1939 1.463 . S
C1942 N1946 1.427 . S
C1943 H1933 0.929 . S
C1943 C1941 1.433 . S
C1943 N1946 1.384 . S
C1944 H1935 0.929 . S
C1944 C1936 1.378 . S
C1944 C1939 1.350 . S
C1945 H1932 0.929 . S
C1945 C1937 1.433 . S
C1945 N1947 1.384 . S
N1946 C1942 1.427 . S
N1946 C1943 1.384 . S
N1947 C1939 1.427 . S
N1947 C1945 1.384 . S
H1948 C1954 0.930 . S
H1949 C1958 0.930 . S
H1950 C1963 0.929 . S
H1951 C1961 0.929 . S
H1952 C1956 0.929 . S
H1953 C1962 0.929 . S
C1954 H1948 0.930 . S
C1954 C1955 1.367 . S
C1954 C1962 1.378 . S
C1955 C1954 1.367 . S
C1955 C1963 1.433 . S
C1956 H1952 0.929 . S
C1956 C1958 1.378 . S
C1956 C1960 1.350 . S
C1957 C1960 1.463 . S
C1957 C1962 1.350 . S
C1957 N1965 1.427 . S
C1958 H1949 0.930 . S
C1958 C1956 1.378 . S
C1958 C1959 1.367 . S
C1959 C1958 1.367 . S
C1959 C1961 1.433 . S
C1960 C1956 1.350 . S
C1960 C1957 1.463 . S
C1960 N1964 1.427 . S
C1961 H1951 0.929 . S
C1961 C1959 1.433 . S
C1961 N1964 1.384 . S
C1962 H1953 0.929 . S
C1962 C1954 1.378 . S
C1962 C1957 1.350 . S
C1963 H1950 0.929 . S
C1963 C1955 1.433 . S
C1963 N1965 1.384 . S
N1964 C1960 1.427 . S
N1964 C1961 1.384 . S
N1965 C1957 1.427 . S
N1965 C1963 1.384 . S
H1966 C1972 0.930 . S
H1967 C1976 0.930 . S
H1968 C1981 0.929 . S
H1969 C1979 0.929 . S
H1970 C1974 0.929 . S
H1971 C1980 0.929 . S
C1972 H1966 0.930 . S
C1972 C1973 1.367 . S
C1972 C1980 1.378 . S
C1973 C1972 1.367 . S
C1973 C1981 1.433 . S
C1974 H1970 0.929 . S
C1974 C1976 1.378 . S
C1974 C1978 1.350 . S
C1975 C1978 1.463 . S
C1975 C1980 1.350 . S
C1975 N1983 1.427 . S
C1976 H1967 0.930 . S
C1976 C1974 1.378 . S
C1976 C1977 1.367 . S
C1977 C1976 1.367 . S
C1977 C1979 1.433 . S
C1978 C1974 1.350 . S
C1978 C1975 1.463 . S
C1978 N1982 1.427 . S
C1979 H1969 0.929 . S
C1979 C1977 1.433 . S
C1979 N1982 1.384 . S
C1980 H1971 0.929 . S
C1980 C1972 1.378 . S
C1980 C1975 1.350 . S
C1981 H1968 0.929 . S
C1981 C1973 1.433 . S
C1981 N1983 1.384 . S
N1982 C1978 1.427 . S
N1982 C1979 1.384 . S
N1983 C1975 1.427 . S
N1983 C1981 1.384 . S
H1984 C1990 0.930 . S
H1985 C1994 0.930 . S
H1986 C1999 0.929 . S
H1987 C1997 0.929 . S
H1988 C1992 0.929 . S
H1989 C1998 0.929 . S
C1990 H1984 0.930 . S
C1990 C1991 1.367 . S
C1990 C1998 1.378 . S
C1991 C1990 1.367 . S
C1991 C1999 1.433 . S
C1992 H1988 0.929 . S
C1992 C1994 1.378 . S
C1992 C1996 1.350 . S
C1993 C1996 1.463 . S
C1993 C1998 1.350 . S
C1993 N2001 1.427 . S
C1994 H1985 0.930 . S
C1994 C1992 1.378 . S
C1994 C1995 1.367 . S
C1995 C1994 1.367 . S
C1995 C1997 1.433 . S
C1996 C1992 1.350 . S
C1996 C1993 1.463 . S
C1996 N2000 1.427 . S
C1997 H1987 0.929 . S
C1997 C1995 1.433 . S
C1997 N2000 1.384 . S
C1998 H1989 0.929 . S
C1998 C1990 1.378 . S
C1998 C1993 1.350 . S
C1999 H1986 0.929 . S
C1999 C1991 1.433 . S
C1999 N2001 1.384 . S
N2000 C1996 1.427 . S
N2000 C1997 1.384 . S
N2001 C1993 1.427 . S
N2001 C1999 1.384 . S
H2002 C2008 0.930 . S
H2003 C2012 0.930 . S
H2004 C2017 0.929 . S
H2005 C2015 0.929 . S
H2006 C2010 0.929 . S
H2007 C2016 0.929 . S
C2008 H2002 0.930 . S
C2008 C2009 1.367 . S
C2008 C2016 1.378 . S
C2009 C2008 1.367 . S
C2009 C2017 1.433 1_554 S
C2010 H2006 0.929 . S
C2010 C2012 1.378 . S
C2010 C2014 1.350 . S
C2011 C2014 1.463 . S
C2011 C2016 1.350 1_556 S
C2011 N2019 1.427 . S
C2012 H2003 0.930 . S
C2012 C2010 1.378 . S
C2012 C2013 1.367 . S
C2013 C2012 1.367 . S
C2013 C2015 1.433 . S
C2014 C2010 1.350 . S
C2014 C2011 1.463 . S
C2014 N2018 1.427 . S
C2015 H2005 0.929 . S
C2015 C2013 1.433 . S
C2015 N2018 1.384 . S
C2016 H2007 0.929 . S
C2016 C2008 1.378 . S
C2016 C2011 1.350 1_554 S
C2017 H2004 0.929 . S
C2017 C2009 1.433 1_556 S
C2017 N2019 1.384 . S
N2018 C2014 1.427 . S
N2018 C2015 1.384 . S
N2019 C2011 1.427 . S
N2019 C2017 1.384 . S
H2020 C2026 0.930 . S
H2021 C2030 0.930 . S
H2022 C2035 0.929 . S
H2023 C2033 0.929 . S
H2024 C2028 0.929 . S
H2025 C2034 0.929 . S
C2026 H2020 0.930 . S
C2026 C2027 1.367 . S
C2026 C2034 1.378 . S
C2027 C2026 1.367 . S
C2027 C2035 1.433 . S
C2028 H2024 0.929 . S
C2028 C2030 1.378 . S
C2028 C2032 1.350 . S
C2029 C2032 1.463 . S
C2029 C2034 1.350 . S
C2029 N2037 1.427 . S
C2030 H2021 0.930 . S
C2030 C2028 1.378 . S
C2030 C2031 1.367 . S
C2031 C2030 1.367 . S
C2031 C2033 1.433 . S
C2032 C2028 1.350 . S
C2032 C2029 1.463 . S
C2032 N2036 1.427 . S
C2033 H2023 0.929 . S
C2033 C2031 1.433 . S
C2033 N2036 1.384 . S
C2034 H2025 0.929 . S
C2034 C2026 1.378 . S
C2034 C2029 1.350 . S
C2035 H2022 0.929 . S
C2035 C2027 1.433 . S
C2035 N2037 1.384 . S
N2036 C2032 1.427 . S
N2036 C2033 1.384 . S
N2037 C2029 1.427 . S
N2037 C2035 1.384 . S
H2038 C2044 0.930 . S
H2039 C2048 0.930 . S
H2040 C2053 0.929 . S
H2041 C2051 0.929 . S
H2042 C2046 0.929 . S
H2043 C2052 0.929 . S
C2044 H2038 0.930 . S
C2044 C2045 1.367 . S
C2044 C2052 1.378 . S
C2045 C2044 1.367 . S
C2045 C2053 1.433 . S
C2046 H2042 0.929 . S
C2046 C2048 1.378 . S
C2046 C2050 1.350 . S
C2047 C2050 1.463 . S
C2047 C2052 1.350 . S
C2047 N2055 1.427 . S
C2048 H2039 0.930 . S
C2048 C2046 1.378 . S
C2048 C2049 1.367 . S
C2049 C2048 1.367 . S
C2049 C2051 1.433 . S
C2050 C2046 1.350 . S
C2050 C2047 1.463 . S
C2050 N2054 1.427 . S
C2051 H2041 0.929 . S
C2051 C2049 1.433 . S
C2051 N2054 1.384 . S
C2052 H2043 0.929 . S
C2052 C2044 1.378 . S
C2052 C2047 1.350 . S
C2053 H2040 0.929 . S
C2053 C2045 1.433 . S
C2053 N2055 1.384 . S
N2054 C2050 1.427 . S
N2054 C2051 1.384 . S
N2055 C2047 1.427 . S
N2055 C2053 1.384 . S
H2056 C2062 0.930 . S
H2057 C2066 0.930 . S
H2058 C2071 0.929 . S
H2059 C2069 0.929 . S
H2060 C2064 0.929 . S
H2061 C2070 0.929 . S
C2062 H2056 0.930 . S
C2062 C2063 1.367 . S
C2062 C2070 1.378 . S
C2063 C2062 1.367 . S
C2063 C2071 1.433 . S
C2064 H2060 0.929 . S
C2064 C2066 1.378 . S
C2064 C2068 1.350 . S
C2065 C2068 1.463 . S
C2065 C2070 1.350 . S
C2065 N2073 1.427 . S
C2066 H2057 0.930 . S
C2066 C2064 1.378 . S
C2066 C2067 1.367 . S
C2067 C2066 1.367 . S
C2067 C2069 1.433 . S
C2068 C2064 1.350 . S
C2068 C2065 1.463 . S
C2068 N2072 1.427 . S
C2069 H2059 0.929 . S
C2069 C2067 1.433 . S
C2069 N2072 1.384 . S
C2070 H2061 0.929 . S
C2070 C2062 1.378 . S
C2070 C2065 1.350 . S
C2071 H2058 0.929 . S
C2071 C2063 1.433 . S
C2071 N2073 1.384 . S
N2072 C2068 1.427 . S
N2072 C2069 1.384 . S
N2073 C2065 1.427 . S
N2073 C2071 1.384 . S
H2074 C2080 0.930 . S
H2075 C2084 0.930 . S
H2076 C2089 0.929 . S
H2077 C2087 0.929 . S
H2078 C2082 0.929 . S
H2079 C2088 0.929 . S
C2080 H2074 0.930 . S
C2080 C2081 1.367 . S
C2080 C2088 1.378 . S
C2081 C2080 1.367 . S
C2081 C2089 1.433 . S
C2082 H2078 0.929 . S
C2082 C2084 1.378 . S
C2082 C2086 1.350 . S
C2083 C2086 1.463 . S
C2083 C2088 1.350 . S
C2083 N2091 1.427 . S
C2084 H2075 0.930 . S
C2084 C2082 1.378 . S
C2084 C2085 1.367 . S
C2085 C2084 1.367 . S
C2085 C2087 1.433 . S
C2086 C2082 1.350 . S
C2086 C2083 1.463 . S
C2086 N2090 1.427 . S
C2087 H2077 0.929 . S
C2087 C2085 1.433 . S
C2087 N2090 1.384 . S
C2088 H2079 0.929 . S
C2088 C2080 1.378 . S
C2088 C2083 1.350 . S
C2089 H2076 0.929 . S
C2089 C2081 1.433 . S
C2089 N2091 1.384 . S
N2090 C2086 1.427 . S
N2090 C2087 1.384 . S
N2091 C2083 1.427 . S
N2091 C2089 1.384 . S
H2092 C2098 0.930 . S
H2093 C2102 0.930 . S
H2094 C2107 0.929 . S
H2095 C2105 0.929 . S
H2096 C2100 0.929 . S
H2097 C2106 0.929 . S
C2098 H2092 0.930 . S
C2098 C2099 1.367 . S
C2098 C2106 1.378 . S
C2099 C2098 1.367 . S
C2099 C2107 1.433 . S
C2100 H2096 0.929 . S
C2100 C2102 1.378 . S
C2100 C2104 1.350 . S
C2101 C2104 1.463 . S
C2101 C2106 1.350 . S
C2101 N2109 1.427 . S
C2102 H2093 0.930 . S
C2102 C2100 1.378 . S
C2102 C2103 1.367 . S
C2103 C2102 1.367 . S
C2103 C2105 1.433 . S
C2104 C2100 1.350 . S
C2104 C2101 1.463 . S
C2104 N2108 1.427 . S
C2105 H2095 0.929 . S
C2105 C2103 1.433 . S
C2105 N2108 1.384 . S
C2106 H2097 0.929 . S
C2106 C2098 1.378 . S
C2106 C2101 1.350 . S
C2107 H2094 0.929 . S
C2107 C2099 1.433 . S
C2107 N2109 1.384 . S
N2108 C2104 1.427 . S
N2108 C2105 1.384 . S
N2109 C2101 1.427 . S
N2109 C2107 1.384 . S
H2110 C2116 0.930 . S
H2111 C2120 0.930 . S
H2112 C2125 0.929 . S
H2113 C2123 0.929 . S
H2114 C2118 0.929 . S
H2115 C2124 0.929 . S
C2116 H2110 0.930 . S
C2116 C2117 1.367 . S
C2116 C2124 1.378 . S
C2117 C2116 1.367 . S
C2117 C2125 1.433 . S
C2118 H2114 0.929 . S
C2118 C2120 1.378 . S
C2118 C2122 1.350 . S
C2119 C2122 1.463 . S
C2119 C2124 1.350 . S
C2119 N2127 1.427 . S
C2120 H2111 0.930 . S
C2120 C2118 1.378 . S
C2120 C2121 1.367 . S
C2121 C2120 1.367 . S
C2121 C2123 1.433 . S
C2122 C2118 1.350 . S
C2122 C2119 1.463 . S
C2122 N2126 1.427 . S
C2123 H2113 0.929 . S
C2123 C2121 1.433 . S
C2123 N2126 1.384 . S
C2124 H2115 0.929 . S
C2124 C2116 1.378 . S
C2124 C2119 1.350 . S
C2125 H2112 0.929 . S
C2125 C2117 1.433 . S
C2125 N2127 1.384 . S
N2126 C2122 1.427 . S
N2126 C2123 1.384 . S
N2127 C2119 1.427 . S
N2127 C2125 1.384 . S
H2128 C2134 0.930 . S
H2129 C2138 0.930 . S
H2130 C2143 0.929 . S
H2131 C2141 0.929 . S
H2132 C2136 0.929 . S
H2133 C2142 0.929 . S
C2134 H2128 0.930 . S
C2134 C2135 1.367 . S
C2134 C2142 1.378 . S
C2135 C2134 1.367 . S
C2135 C2143 1.433 . S
C2136 H2132 0.929 . S
C2136 C2138 1.378 . S
C2136 C2140 1.350 . S
C2137 C2140 1.463 . S
C2137 C2142 1.350 . S
C2137 N2145 1.427 . S
C2138 H2129 0.930 . S
C2138 C2136 1.378 . S
C2138 C2139 1.367 . S
C2139 C2138 1.367 . S
C2139 C2141 1.433 . S
C2140 C2136 1.350 . S
C2140 C2137 1.463 . S
C2140 N2144 1.427 . S
C2141 H2131 0.929 . S
C2141 C2139 1.433 . S
C2141 N2144 1.384 . S
C2142 H2133 0.929 . S
C2142 C2134 1.378 . S
C2142 C2137 1.350 . S
C2143 H2130 0.929 . S
C2143 C2135 1.433 . S
C2143 N2145 1.384 . S
N2144 C2140 1.427 . S
N2144 C2141 1.384 . S
N2145 C2137 1.427 . S
N2145 C2143 1.384 . S
H2146 C2152 0.930 . S
H2147 C2156 0.930 . S
H2148 C2161 0.929 . S
H2149 C2159 0.929 . S
H2150 C2154 0.929 . S
H2151 C2160 0.929 . S
C2152 H2146 0.930 . S
C2152 C2153 1.367 . S
C2152 C2160 1.378 . S
C2153 C2152 1.367 . S
C2153 C2161 1.433 . S
C2154 H2150 0.929 . S
C2154 C2156 1.378 . S
C2154 C2158 1.350 . S
C2155 C2158 1.463 . S
C2155 C2160 1.350 . S
C2155 N2163 1.427 . S
C2156 H2147 0.930 . S
C2156 C2154 1.378 . S
C2156 C2157 1.367 . S
C2157 C2156 1.367 . S
C2157 C2159 1.433 . S
C2158 C2154 1.350 . S
C2158 C2155 1.463 . S
C2158 N2162 1.427 . S
C2159 H2149 0.929 . S
C2159 C2157 1.433 . S
C2159 N2162 1.384 . S
C2160 H2151 0.929 . S
C2160 C2152 1.378 . S
C2160 C2155 1.350 . S
C2161 H2148 0.929 . S
C2161 C2153 1.433 . S
C2161 N2163 1.384 . S
N2162 C2158 1.427 . S
N2162 C2159 1.384 . S
N2163 C2155 1.427 . S
N2163 C2161 1.384 . S
H2164 C2170 0.930 . S
H2165 C2174 0.930 . S
H2166 C2179 0.929 . S
H2167 C2177 0.929 . S
H2168 C2172 0.929 . S
H2169 C2178 0.929 . S
C2170 H2164 0.930 . S
C2170 C2171 1.367 . S
C2170 C2178 1.378 . S
C2171 C2170 1.367 . S
C2171 C2179 1.433 1_565 S
C2172 H2168 0.929 . S
C2172 C2174 1.378 . S
C2172 C2176 1.350 . S
C2173 C2176 1.463 . S
C2173 C2178 1.350 . S
C2173 N2181 1.427 . S
C2174 H2165 0.930 . S
C2174 C2172 1.378 . S
C2174 C2175 1.367 . S
C2175 C2174 1.367 . S
C2175 C2177 1.433 . S
C2176 C2172 1.350 . S
C2176 C2173 1.463 . S
C2176 N2180 1.427 . S
C2177 H2167 0.929 . S
C2177 C2175 1.433 . S
C2177 N2180 1.384 . S
C2178 H2169 0.929 . S
C2178 C2170 1.378 . S
C2178 C2173 1.350 . S
C2179 H2166 0.929 . S
C2179 C2171 1.433 1_545 S
C2179 N2181 1.384 1_545 S
N2180 C2176 1.427 . S
N2180 C2177 1.384 . S
N2181 C2173 1.427 . S
N2181 C2179 1.384 1_565 S
H2182 C2188 0.930 . S
H2183 C2192 0.930 1_556 S
H2184 C2197 0.929 . S
H2185 C2195 0.929 . S
H2186 C2190 0.929 1_556 S
H2187 C2196 0.929 . S
C2188 H2182 0.930 . S
C2188 C2189 1.367 . S
C2188 C2196 1.378 . S
C2189 C2188 1.367 . S
C2189 C2197 1.433 1_554 S
C2190 H2186 0.929 1_554 S
C2190 C2192 1.378 . S
C2190 C2194 1.350 1_545 S
C2191 C2194 1.463 . S
C2191 C2196 1.350 . S
C2191 N2199 1.427 1_554 S
C2192 H2183 0.930 1_554 S
C2192 C2190 1.378 . S
C2192 C2193 1.367 . S
C2193 C2192 1.367 . S
C2193 C2195 1.433 . S
C2194 C2190 1.350 1_565 S
C2194 C2191 1.463 . S
C2194 N2198 1.427 . S
C2195 H2185 0.929 . S
C2195 C2193 1.433 . S
C2195 N2198 1.384 1_545 S
C2196 H2187 0.929 . S
C2196 C2188 1.378 . S
C2196 C2191 1.350 . S
C2197 H2184 0.929 . S
C2197 C2189 1.433 1_556 S
C2197 N2199 1.384 . S
N2198 C2194 1.427 . S
N2198 C2195 1.384 1_565 S
N2199 C2191 1.427 1_556 S
N2199 C2197 1.384 . S
H2200 C2206 0.930 . S
H2201 C2210 0.930 . S
H2202 C2215 0.929 . S
H2203 C2213 0.929 . S
H2204 C2208 0.929 . S
H2205 C2214 0.929 . S
C2206 H2200 0.930 . S
C2206 C2207 1.367 . S
C2206 C2214 1.378 . S
C2207 C2206 1.367 . S
C2207 C2215 1.433 . S
C2208 H2204 0.929 . S
C2208 C2210 1.378 . S
C2208 C2212 1.350 . S
C2209 C2212 1.463 . S
C2209 C2214 1.350 . S
C2209 N2217 1.427 . S
C2210 H2201 0.930 . S
C2210 C2208 1.378 . S
C2210 C2211 1.367 . S
C2211 C2210 1.367 . S
C2211 C2213 1.433 . S
C2212 C2208 1.350 . S
C2212 C2209 1.463 . S
C2212 N2216 1.427 . S
C2213 H2203 0.929 . S
C2213 C2211 1.433 . S
C2213 N2216 1.384 . S
C2214 H2205 0.929 . S
C2214 C2206 1.378 . S
C2214 C2209 1.350 . S
C2215 H2202 0.929 . S
C2215 C2207 1.433 . S
C2215 N2217 1.384 . S
N2216 C2212 1.427 . S
N2216 C2213 1.384 . S
N2217 C2209 1.427 . S
N2217 C2215 1.384 . S
H2218 C2224 0.930 . S
H2219 C2228 0.930 . S
H2220 C2233 0.934 1_556 S
H2221 C2231 0.929 . S
H2222 C2226 0.929 . S
H2223 C2232 0.929 . S
C2224 H2218 0.930 . S
C2224 C2225 1.367 . S
C2224 C2232 1.378 . S
C2225 C2224 1.367 . S
C2225 C2233 1.433 . S
C2226 H2222 0.929 . S
C2226 C2228 1.378 . S
C2226 C2230 1.350 . S
C2227 C2230 1.463 . S
C2227 C2232 1.350 . S
C2227 N2235 1.427 . S
C2228 H2219 0.930 . S
C2228 C2226 1.378 . S
C2228 C2229 1.367 . S
C2229 C2228 1.367 . S
C2229 C2231 1.433 . S
C2230 C2226 1.350 . S
C2230 C2227 1.463 . S
C2230 N2234 1.427 . S
C2231 H2221 0.929 . S
C2231 C2229 1.433 . S
C2231 N2234 1.384 . S
C2232 H2223 0.929 . S
C2232 C2224 1.378 . S
C2232 C2227 1.350 . S
C2233 H2220 0.934 1_554 S
C2233 C2225 1.433 . S
C2233 N2235 1.384 . S
N2234 C2230 1.427 . S
N2234 C2231 1.384 . S
N2235 C2227 1.427 . S
N2235 C2233 1.384 . S
H2236 C2242 0.930 . S
H2237 C2246 0.930 . S
H2238 C2251 0.929 . S
H2239 C2249 0.929 . S
H2240 C2244 0.929 . S
H2241 C2250 0.929 . S
C2242 H2236 0.930 . S
C2242 C2243 1.367 . S
C2242 C2250 1.378 . S
C2243 C2242 1.367 . S
C2243 C2251 1.433 . S
C2244 H2240 0.929 . S
C2244 C2246 1.378 . S
C2244 C2248 1.350 . S
C2245 C2248 1.463 . S
C2245 C2250 1.350 . S
C2245 N2253 1.427 . S
C2246 H2237 0.930 . S
C2246 C2244 1.378 . S
C2246 C2247 1.367 . S
C2247 C2246 1.367 . S
C2247 C2249 1.433 . S
C2248 C2244 1.350 . S
C2248 C2245 1.463 . S
C2248 N2252 1.427 . S
C2249 H2239 0.929 . S
C2249 C2247 1.433 . S
C2249 N2252 1.384 . S
C2250 H2241 0.929 . S
C2250 C2242 1.378 . S
C2250 C2245 1.350 . S
C2251 H2238 0.929 . S
C2251 C2243 1.433 . S
C2251 N2253 1.384 . S
N2252 C2248 1.427 . S
N2252 C2249 1.384 . S
N2253 C2245 1.427 . S
N2253 C2251 1.384 . S
H2254 C2260 0.930 . S
H2255 C2264 0.930 . S
H2256 C2269 0.929 . S
H2257 C2267 0.929 . S
H2258 C2262 0.929 . S
H2259 C2268 0.929 . S
C2260 H2254 0.930 . S
C2260 C2261 1.367 . S
C2260 C2268 1.378 . S
C2261 C2260 1.367 . S
C2261 C2269 1.433 . S
C2262 H2258 0.929 . S
C2262 C2264 1.378 . S
C2262 C2266 1.350 . S
C2263 C2266 1.463 . S
C2263 C2268 1.350 . S
C2263 N2271 1.427 . S
C2264 H2255 0.930 . S
C2264 C2262 1.378 . S
C2264 C2265 1.367 . S
C2265 C2264 1.367 . S
C2265 C2267 1.433 . S
C2266 C2262 1.350 . S
C2266 C2263 1.463 . S
C2266 N2270 1.427 . S
C2267 H2257 0.929 . S
C2267 C2265 1.433 . S
C2267 N2270 1.384 . S
C2268 H2259 0.929 . S
C2268 C2260 1.378 . S
C2268 C2263 1.350 . S
C2269 H2256 0.929 . S
C2269 C2261 1.433 . S
C2269 N2271 1.384 . S
N2270 C2266 1.427 . S
N2270 C2267 1.384 . S
N2271 C2263 1.427 . S
N2271 C2269 1.384 . S
H2272 C2278 0.930 . S
H2273 C2282 0.930 . S
H2274 C2287 0.929 . S
H2275 C2285 0.929 . S
H2276 C2280 0.929 . S
H2277 C2286 0.929 . S
C2278 H2272 0.930 . S
C2278 C2279 1.367 . S
C2278 C2286 1.378 . S
C2279 C2278 1.367 . S
C2279 C2287 1.433 . S
C2280 H2276 0.929 . S
C2280 C2282 1.378 . S
C2280 C2284 1.350 . S
C2281 C2284 1.463 . S
C2281 C2286 1.350 . S
C2281 N2289 1.427 . S
C2282 H2273 0.930 . S
C2282 C2280 1.378 . S
C2282 C2283 1.367 . S
C2283 C2282 1.367 . S
C2283 C2285 1.433 . S
C2284 C2280 1.350 . S
C2284 C2281 1.463 . S
C2284 N2288 1.427 . S
C2285 H2275 0.929 . S
C2285 C2283 1.433 . S
C2285 N2288 1.384 . S
C2286 H2277 0.929 . S
C2286 C2278 1.378 . S
C2286 C2281 1.350 . S
C2287 H2274 0.929 . S
C2287 C2279 1.433 . S
C2287 N2289 1.384 . S
N2288 C2284 1.427 . S
N2288 C2285 1.384 . S
N2289 C2281 1.427 . S
N2289 C2287 1.384 . S
H2290 C2296 0.930 . S
H2291 C2300 0.930 . S
H2292 C2305 0.929 . S
H2293 C2303 0.929 . S
H2294 C2298 0.929 . S
H2295 C2304 0.929 . S
C2296 H2290 0.930 . S
C2296 C2297 1.367 . S
C2296 C2304 1.378 . S
C2297 C2296 1.367 . S
C2297 C2305 1.433 . S
C2298 H2294 0.929 . S
C2298 C2300 1.378 . S
C2298 C2302 1.350 . S
C2299 C2302 1.463 . S
C2299 C2304 1.350 . S
C2299 N2307 1.427 . S
C2300 H2291 0.930 . S
C2300 C2298 1.378 . S
C2300 C2301 1.367 . S
C2301 C2300 1.367 . S
C2301 C2303 1.433 . S
C2302 C2298 1.350 . S
C2302 C2299 1.463 . S
C2302 N2306 1.427 . S
C2303 H2293 0.929 . S
C2303 C2301 1.433 . S
C2303 N2306 1.384 . S
C2304 H2295 0.929 . S
C2304 C2296 1.378 . S
C2304 C2299 1.350 . S
C2305 H2292 0.929 . S
C2305 C2297 1.433 . S
C2305 N2307 1.384 . S
N2306 C2302 1.427 . S
N2306 C2303 1.384 . S
N2307 C2299 1.427 . S
N2307 C2305 1.384 . S
H2308 C2314 0.930 . S
H2309 C2318 0.930 . S
H2310 C2323 0.929 . S
H2311 C2321 0.929 . S
H2312 C2316 0.929 . S
H2313 C2322 0.929 . S
C2314 H2308 0.930 . S
C2314 C2315 1.367 . S
C2314 C2322 1.378 . S
C2315 C2314 1.367 . S
C2315 C2323 1.433 . S
C2316 H2312 0.929 . S
C2316 C2318 1.378 . S
C2316 C2320 1.350 . S
C2317 C2320 1.463 . S
C2317 C2322 1.350 . S
C2317 N2325 1.427 . S
C2318 H2309 0.930 . S
C2318 C2316 1.378 . S
C2318 C2319 1.367 . S
C2319 C2318 1.367 . S
C2319 C2321 1.433 . S
C2320 C2316 1.350 . S
C2320 C2317 1.463 . S
C2320 N2324 1.427 . S
C2321 H2311 0.929 . S
C2321 C2319 1.433 . S
C2321 N2324 1.384 . S
C2322 H2313 0.929 . S
C2322 C2314 1.378 . S
C2322 C2317 1.350 . S
C2323 H2310 0.929 . S
C2323 C2315 1.433 . S
C2323 N2325 1.384 . S
N2324 C2320 1.427 . S
N2324 C2321 1.384 . S
N2325 C2317 1.427 . S
N2325 C2323 1.384 . S
H2326 C2332 0.930 . S
H2327 C2336 0.930 . S
H2328 C2341 0.929 . S
H2329 C2339 0.929 . S
H2330 C2334 0.929 . S
H2331 C2340 0.929 . S
C2332 H2326 0.930 . S
C2332 C2333 1.367 . S
C2332 C2340 1.378 . S
C2333 C2332 1.367 . S
C2333 C2341 1.433 . S
C2334 H2330 0.929 . S
C2334 C2336 1.378 . S
C2334 C2338 1.350 . S
C2335 C2338 1.463 . S
C2335 C2340 1.350 . S
C2335 N2343 1.427 . S
C2336 H2327 0.930 . S
C2336 C2334 1.378 . S
C2336 C2337 1.367 . S
C2337 C2336 1.367 . S
C2337 C2339 1.433 . S
C2338 C2334 1.350 . S
C2338 C2335 1.463 . S
C2338 N2342 1.427 . S
C2339 H2329 0.929 . S
C2339 C2337 1.433 . S
C2339 N2342 1.384 . S
C2340 H2331 0.929 . S
C2340 C2332 1.378 . S
C2340 C2335 1.350 . S
C2341 H2328 0.929 . S
C2341 C2333 1.433 . S
C2341 N2343 1.384 . S
N2342 C2338 1.427 . S
N2342 C2339 1.384 . S
N2343 C2335 1.427 . S
N2343 C2341 1.384 . S
H2344 C2350 0.930 . S
H2345 C2354 0.930 . S
H2346 C2359 0.929 . S
H2347 C2357 0.929 . S
H2348 C2352 0.929 . S
H2349 C2358 0.929 . S
C2350 H2344 0.930 . S
C2350 C2351 1.367 . S
C2350 C2358 1.378 . S
C2351 C2350 1.367 . S
C2351 C2359 1.433 . S
C2352 H2348 0.929 . S
C2352 C2354 1.378 . S
C2352 C2356 1.350 . S
C2353 C2356 1.463 . S
C2353 C2358 1.350 . S
C2353 N2361 1.427 . S
C2354 H2345 0.930 . S
C2354 C2352 1.378 . S
C2354 C2355 1.367 . S
C2355 C2354 1.367 . S
C2355 C2357 1.433 . S
C2356 C2352 1.350 . S
C2356 C2353 1.463 . S
C2356 N2360 1.427 . S
C2357 H2347 0.929 . S
C2357 C2355 1.433 . S
C2357 N2360 1.384 . S
C2358 H2349 0.929 . S
C2358 C2350 1.378 . S
C2358 C2353 1.350 . S
C2359 H2346 0.929 . S
C2359 C2351 1.433 . S
C2359 N2361 1.384 . S
N2360 C2356 1.427 . S
N2360 C2357 1.384 . S
N2361 C2353 1.427 . S
N2361 C2359 1.384 . S
H2362 C2368 0.930 . S
H2363 C2372 0.930 . S
H2364 C2377 0.929 . S
H2365 C2375 0.929 . S
H2366 C2370 0.929 . S
H2367 C2376 0.929 . S
C2368 H2362 0.930 . S
C2368 C2369 1.367 . S
C2368 C2376 1.378 . S
C2369 C2368 1.367 . S
C2369 C2377 1.433 . S
C2370 H2366 0.929 . S
C2370 C2372 1.378 . S
C2370 C2374 1.350 . S
C2371 C2374 1.463 . S
C2371 C2376 1.350 . S
C2371 N2379 1.427 . S
C2372 H2363 0.930 . S
C2372 C2370 1.378 . S
C2372 C2373 1.367 . S
C2373 C2372 1.367 . S
C2373 C2375 1.433 . S
C2374 C2370 1.350 . S
C2374 C2371 1.463 . S
C2374 N2378 1.427 . S
C2375 H2365 0.929 . S
C2375 C2373 1.433 . S
C2375 N2378 1.384 . S
C2376 H2367 0.929 . S
C2376 C2368 1.378 . S
C2376 C2371 1.350 . S
C2377 H2364 0.929 . S
C2377 C2369 1.433 . S
C2377 N2379 1.384 . S
N2378 C2374 1.427 . S
N2378 C2375 1.384 . S
N2379 C2371 1.427 . S
N2379 C2377 1.384 . S
H2380 C2386 0.930 . S
H2381 C2390 0.930 . S
H2382 C2395 0.929 . S
H2383 C2393 0.929 . S
H2384 C2388 0.929 . S
H2385 C2394 0.929 . S
C2386 H2380 0.930 . S
C2386 C2387 1.367 . S
C2386 C2394 1.378 . S
C2387 C2386 1.367 . S
C2387 C2395 1.433 . S
C2388 H2384 0.929 . S
C2388 C2390 1.378 . S
C2388 C2392 1.350 . S
C2389 C2392 1.463 . S
C2389 C2394 1.350 . S
C2389 N2397 1.427 . S
C2390 H2381 0.930 . S
C2390 C2388 1.378 . S
C2390 C2391 1.367 . S
C2391 C2390 1.367 . S
C2391 C2393 1.433 . S
C2392 C2388 1.350 . S
C2392 C2389 1.463 . S
C2392 N2396 1.427 . S
C2393 H2383 0.929 . S
C2393 C2391 1.433 . S
C2393 N2396 1.384 . S
C2394 H2385 0.929 . S
C2394 C2386 1.378 . S
C2394 C2389 1.350 . S
C2395 H2382 0.929 . S
C2395 C2387 1.433 . S
C2395 N2397 1.384 . S
N2396 C2392 1.427 . S
N2396 C2393 1.384 . S
N2397 C2389 1.427 . S
N2397 C2395 1.384 . S
H2398 C2404 0.930 . S
H2399 C2408 0.930 . S
H2400 C2413 0.929 . S
H2401 C2411 0.929 . S
H2402 C2406 0.929 . S
H2403 C2412 0.929 . S
C2404 H2398 0.930 . S
C2404 C2405 1.367 . S
C2404 C2412 1.378 . S
C2405 C2404 1.367 . S
C2405 C2413 1.433 . S
C2406 H2402 0.929 . S
C2406 C2408 1.378 . S
C2406 C2410 1.350 . S
C2407 C2410 1.463 . S
C2407 C2412 1.350 . S
C2407 N2415 1.427 . S
C2408 H2399 0.930 . S
C2408 C2406 1.378 . S
C2408 C2409 1.367 . S
C2409 C2408 1.367 . S
C2409 C2411 1.433 . S
C2410 C2406 1.350 . S
C2410 C2407 1.463 . S
C2410 N2414 1.427 . S
C2411 H2401 0.929 . S
C2411 C2409 1.433 . S
C2411 N2414 1.384 . S
C2412 H2403 0.929 . S
C2412 C2404 1.378 . S
C2412 C2407 1.350 . S
C2413 H2400 0.929 . S
C2413 C2405 1.433 . S
C2413 N2415 1.384 . S
N2414 C2410 1.427 . S
N2414 C2411 1.384 . S
N2415 C2407 1.427 . S
N2415 C2413 1.384 . S
H2416 C2422 0.930 . S
H2417 C2426 0.930 . S
H2418 C2431 0.929 . S
H2419 C2429 0.929 . S
H2420 C2424 0.929 . S
H2421 C2430 0.929 . S
C2422 H2416 0.930 . S
C2422 C2423 1.367 . S
C2422 C2430 1.378 . S
C2423 C2422 1.367 . S
C2423 C2431 1.433 . S
C2424 H2420 0.929 . S
C2424 C2426 1.378 . S
C2424 C2428 1.350 . S
C2425 C2428 1.463 . S
C2425 C2430 1.350 . S
C2425 N2433 1.427 . S
C2426 H2417 0.930 . S
C2426 C2424 1.378 . S
C2426 C2427 1.367 . S
C2427 C2426 1.367 . S
C2427 C2429 1.433 . S
C2428 C2424 1.350 . S
C2428 C2425 1.463 . S
C2428 N2432 1.427 . S
C2429 H2419 0.929 . S
C2429 C2427 1.433 . S
C2429 N2432 1.384 . S
C2430 H2421 0.929 . S
C2430 C2422 1.378 . S
C2430 C2425 1.350 . S
C2431 H2418 0.929 . S
C2431 C2423 1.433 . S
C2431 N2433 1.384 . S
N2432 C2428 1.427 . S
N2432 C2429 1.384 . S
N2433 C2425 1.427 . S
N2433 C2431 1.384 . S
H2434 C2440 0.930 . S
H2435 C2444 0.930 . S
H2436 C2449 0.929 . S
H2437 C2447 0.929 . S
H2438 C2442 0.929 . S
H2439 C2448 0.929 . S
C2440 H2434 0.930 . S
C2440 C2441 1.367 . S
C2440 C2448 1.378 . S
C2441 C2440 1.367 . S
C2441 C2449 1.433 . S
C2442 H2438 0.929 . S
C2442 C2444 1.378 . S
C2442 C2446 1.350 . S
C2443 C2446 1.463 . S
C2443 C2448 1.350 . S
C2443 N2451 1.427 . S
C2444 H2435 0.930 . S
C2444 C2442 1.378 . S
C2444 C2445 1.367 . S
C2445 C2444 1.367 . S
C2445 C2447 1.433 . S
C2446 C2442 1.350 . S
C2446 C2443 1.463 . S
C2446 N2450 1.427 . S
C2447 H2437 0.929 . S
C2447 C2445 1.433 . S
C2447 N2450 1.384 . S
C2448 H2439 0.929 . S
C2448 C2440 1.378 . S
C2448 C2443 1.350 . S
C2449 H2436 0.929 . S
C2449 C2441 1.433 . S
C2449 N2451 1.384 . S
N2450 C2446 1.427 . S
N2450 C2447 1.384 . S
N2451 C2443 1.427 . S
N2451 C2449 1.384 . S
H2452 C2458 0.930 . S
H2453 C2462 0.930 . S
H2454 C2467 0.929 . S
H2455 C2465 0.928 1_455 S
H2456 C2460 0.929 . S
H2457 C2466 0.929 . S
C2458 H2452 0.930 . S
C2458 C2459 1.367 . S
C2458 C2466 1.378 . S
C2459 C2458 1.367 . S
C2459 C2467 1.433 . S
C2460 H2456 0.929 . S
C2460 C2462 1.378 . S
C2460 C2464 1.350 . S
C2461 C2464 1.463 . S
C2461 C2466 1.350 . S
C2461 N2469 1.427 . S
C2462 H2453 0.930 . S
C2462 C2460 1.378 . S
C2462 C2463 1.367 1_655 S
C2463 C2462 1.367 1_455 S
C2463 C2465 1.432 1_455 S
C2464 C2460 1.350 . S
C2464 C2461 1.463 . S
C2464 N2468 1.427 . S
C2465 H2455 0.928 1_655 S
C2465 C2463 1.432 1_655 S
C2465 N2468 1.386 . S
C2466 H2457 0.929 . S
C2466 C2458 1.378 . S
C2466 C2461 1.350 . S
C2467 H2454 0.929 . S
C2467 C2459 1.433 . S
C2467 N2469 1.384 . S
N2468 C2464 1.427 . S
N2468 C2465 1.386 . S
N2469 C2461 1.427 . S
N2469 C2467 1.384 . S
H2470 C2476 0.930 . S
H2471 C2480 0.930 . S
H2472 C2485 0.929 . S
H2473 C2483 0.929 . S
H2474 C2478 0.929 . S
H2475 C2484 0.929 . S
C2476 H2470 0.930 . S
C2476 C2477 1.367 . S
C2476 C2484 1.378 . S
C2477 C2476 1.367 . S
C2477 C2485 1.433 . S
C2478 H2474 0.929 . S
C2478 C2480 1.378 . S
C2478 C2482 1.350 . S
C2479 C2482 1.463 . S
C2479 C2484 1.350 . S
C2479 N2487 1.427 . S
C2480 H2471 0.930 . S
C2480 C2478 1.378 . S
C2480 C2481 1.367 . S
C2481 C2480 1.367 . S
C2481 C2483 1.433 . S
C2482 C2478 1.350 . S
C2482 C2479 1.463 . S
C2482 N2486 1.427 . S
C2483 H2473 0.929 . S
C2483 C2481 1.433 . S
C2483 N2486 1.384 . S
C2484 H2475 0.929 . S
C2484 C2476 1.378 . S
C2484 C2479 1.350 . S
C2485 H2472 0.929 . S
C2485 C2477 1.433 . S
C2485 N2487 1.384 . S
N2486 C2482 1.427 . S
N2486 C2483 1.384 . S
N2487 C2479 1.427 . S
N2487 C2485 1.384 . S
H2488 C2494 0.930 . S
H2489 C2498 0.930 . S
H2490 C2503 0.929 . S
H2491 C2501 0.929 . S
H2492 C2496 0.929 . S
H2493 C2502 0.929 . S
C2494 H2488 0.930 . S
C2494 C2495 1.367 . S
C2494 C2502 1.378 . S
C2495 C2494 1.367 . S
C2495 C2503 1.433 . S
C2496 H2492 0.929 . S
C2496 C2498 1.378 . S
C2496 C2500 1.350 . S
C2497 C2500 1.463 . S
C2497 C2502 1.350 . S
C2497 N2505 1.427 . S
C2498 H2489 0.930 . S
C2498 C2496 1.378 . S
C2498 C2499 1.367 . S
C2499 C2498 1.367 . S
C2499 C2501 1.433 . S
C2500 C2496 1.350 . S
C2500 C2497 1.463 . S
C2500 N2504 1.427 . S
C2501 H2491 0.929 . S
C2501 C2499 1.433 . S
C2501 N2504 1.384 . S
C2502 H2493 0.929 . S
C2502 C2494 1.378 . S
C2502 C2497 1.350 . S
C2503 H2490 0.929 . S
C2503 C2495 1.433 . S
C2503 N2505 1.384 . S
N2504 C2500 1.427 . S
N2504 C2501 1.384 . S
N2505 C2497 1.427 . S
N2505 C2503 1.384 . S
H2506 C2512 0.930 . S
H2507 C2516 0.930 . S
H2508 C2521 0.929 . S
H2509 C2519 0.929 . S
H2510 C2514 0.929 . S
H2511 C2520 0.929 . S
C2512 H2506 0.930 . S
C2512 C2513 1.367 . S
C2512 C2520 1.378 . S
C2513 C2512 1.367 . S
C2513 C2521 1.433 . S
C2514 H2510 0.929 . S
C2514 C2516 1.378 . S
C2514 C2518 1.350 . S
C2515 C2518 1.463 . S
C2515 C2520 1.350 . S
C2515 N2523 1.427 . S
C2516 H2507 0.930 . S
C2516 C2514 1.378 . S
C2516 C2517 1.367 . S
C2517 C2516 1.367 . S
C2517 C2519 1.433 . S
C2518 C2514 1.350 . S
C2518 C2515 1.463 . S
C2518 N2522 1.427 . S
C2519 H2509 0.929 . S
C2519 C2517 1.433 . S
C2519 N2522 1.384 . S
C2520 H2511 0.929 . S
C2520 C2512 1.378 . S
C2520 C2515 1.350 . S
C2521 H2508 0.929 . S
C2521 C2513 1.433 . S
C2521 N2523 1.384 . S
N2522 C2518 1.427 . S
N2522 C2519 1.384 . S
N2523 C2515 1.427 . S
N2523 C2521 1.384 . S
H2524 C2530 0.930 . S
H2525 C2534 0.930 . S
H2526 C2539 0.929 . S
H2527 C2537 0.929 . S
H2528 C2532 0.929 . S
H2529 C2538 0.929 . S
C2530 H2524 0.930 . S
C2530 C2531 1.367 . S
C2530 C2538 1.378 . S
C2531 C2530 1.367 . S
C2531 C2539 1.433 . S
C2532 H2528 0.929 . S
C2532 C2534 1.378 . S
C2532 C2536 1.350 . S
C2533 C2536 1.463 . S
C2533 C2538 1.350 . S
C2533 N2541 1.427 . S
C2534 H2525 0.930 . S
C2534 C2532 1.378 . S
C2534 C2535 1.367 . S
C2535 C2534 1.367 . S
C2535 C2537 1.433 . S
C2536 C2532 1.350 . S
C2536 C2533 1.463 . S
C2536 N2540 1.427 . S
C2537 H2527 0.929 . S
C2537 C2535 1.433 . S
C2537 N2540 1.384 . S
C2538 H2529 0.929 . S
C2538 C2530 1.378 . S
C2538 C2533 1.350 . S
C2539 H2526 0.929 . S
C2539 C2531 1.433 . S
C2539 N2541 1.384 . S
N2540 C2536 1.427 . S
N2540 C2537 1.384 . S
N2541 C2533 1.427 . S
N2541 C2539 1.384 . S
H2542 C2548 0.930 . S
H2543 C2552 0.930 . S
H2544 C2557 0.929 . S
H2545 C2555 0.929 . S
H2546 C2550 0.929 . S
H2547 C2556 0.929 . S
C2548 H2542 0.930 . S
C2548 C2549 1.367 . S
C2548 C2556 1.378 . S
C2549 C2548 1.367 . S
C2549 C2557 1.433 . S
C2550 H2546 0.929 . S
C2550 C2552 1.378 . S
C2550 C2554 1.350 . S
C2551 C2554 1.463 . S
C2551 C2556 1.350 . S
C2551 N2559 1.427 . S
C2552 H2543 0.930 . S
C2552 C2550 1.378 . S
C2552 C2553 1.367 . S
C2553 C2552 1.367 . S
C2553 C2555 1.433 . S
C2554 C2550 1.350 . S
C2554 C2551 1.463 . S
C2554 N2558 1.427 . S
C2555 H2545 0.929 . S
C2555 C2553 1.433 . S
C2555 N2558 1.384 . S
C2556 H2547 0.929 . S
C2556 C2548 1.378 . S
C2556 C2551 1.350 . S
C2557 H2544 0.929 . S
C2557 C2549 1.433 . S
C2557 N2559 1.384 . S
N2558 C2554 1.427 . S
N2558 C2555 1.384 . S
N2559 C2551 1.427 . S
N2559 C2557 1.384 . S
H2560 C2566 0.930 . S
H2561 C2570 0.930 . S
H2562 C2575 0.929 . S
H2563 C2573 0.929 . S
H2564 C2568 0.929 . S
H2565 C2574 0.929 . S
C2566 H2560 0.930 . S
C2566 C2567 1.367 . S
C2566 C2574 1.378 . S
C2567 C2566 1.367 . S
C2567 C2575 1.433 . S
C2568 H2564 0.929 . S
C2568 C2570 1.378 . S
C2568 C2572 1.350 . S
C2569 C2572 1.463 . S
C2569 C2574 1.350 . S
C2569 N2577 1.427 . S
C2570 H2561 0.930 . S
C2570 C2568 1.378 . S
C2570 C2571 1.367 . S
C2571 C2570 1.367 . S
C2571 C2573 1.433 . S
C2572 C2568 1.350 . S
C2572 C2569 1.463 . S
C2572 N2576 1.427 . S
C2573 H2563 0.929 . S
C2573 C2571 1.433 . S
C2573 N2576 1.384 . S
C2574 H2565 0.929 . S
C2574 C2566 1.378 . S
C2574 C2569 1.350 . S
C2575 H2562 0.929 . S
C2575 C2567 1.433 . S
C2575 N2577 1.384 . S
N2576 C2572 1.427 . S
N2576 C2573 1.384 . S
N2577 C2569 1.427 . S
N2577 C2575 1.384 . S
H2578 C2584 0.930 . S
H2579 C2588 0.930 . S
H2580 C2593 0.929 . S
H2581 C2591 0.929 1_545 S
H2582 C2586 0.929 . S
H2583 C2592 0.929 . S
C2584 H2578 0.930 . S
C2584 C2585 1.367 . S
C2584 C2592 1.378 . S
C2585 C2584 1.367 . S
C2585 C2593 1.433 . S
C2586 H2582 0.929 . S
C2586 C2588 1.378 . S
C2586 C2590 1.350 . S
C2587 C2590 1.463 . S
C2587 C2592 1.350 . S
C2587 N2595 1.427 . S
C2588 H2579 0.930 . S
C2588 C2586 1.378 . S
C2588 C2589 1.367 1_565 S
C2589 C2588 1.367 1_545 S
C2589 C2591 1.433 1_545 S
C2590 C2586 1.350 . S
C2590 C2587 1.463 . S
C2590 N2594 1.427 . S
C2591 H2581 0.929 1_565 S
C2591 C2589 1.433 1_565 S
C2591 N2594 1.384 . S
C2592 H2583 0.929 . S
C2592 C2584 1.378 . S
C2592 C2587 1.350 . S
C2593 H2580 0.929 . S
C2593 C2585 1.433 . S
C2593 N2595 1.384 . S
N2594 C2590 1.427 . S
N2594 C2591 1.384 . S
N2595 C2587 1.427 . S
N2595 C2593 1.384 . S
H2596 C2602 0.930 . S
H2597 C2606 0.930 . S
H2598 C2611 0.929 . S
H2599 C2609 0.929 . S
H2600 C2604 0.929 . S
H2601 C2610 0.929 . S
C2602 H2596 0.930 . S
C2602 C2603 1.367 . S
C2602 C2610 1.378 . S
C2603 C2602 1.367 . S
C2603 C2611 1.433 . S
C2604 H2600 0.929 . S
C2604 C2606 1.378 . S
C2604 C2608 1.350 . S
C2605 C2608 1.463 . S
C2605 C2610 1.350 . S
C2605 N2613 1.427 . S
C2606 H2597 0.930 . S
C2606 C2604 1.378 . S
C2606 C2607 1.367 . S
C2607 C2606 1.367 . S
C2607 C2609 1.433 . S
C2608 C2604 1.350 . S
C2608 C2605 1.463 . S
C2608 N2612 1.427 . S
C2609 H2599 0.929 . S
C2609 C2607 1.433 . S
C2609 N2612 1.384 . S
C2610 H2601 0.929 . S
C2610 C2602 1.378 . S
C2610 C2605 1.350 . S
C2611 H2598 0.929 . S
C2611 C2603 1.433 . S
C2611 N2613 1.384 . S
N2612 C2608 1.427 . S
N2612 C2609 1.384 . S
N2613 C2605 1.427 . S
N2613 C2611 1.384 . S
H2614 C2620 0.930 . S
H2615 C2624 0.930 . S
H2616 C2629 0.929 . S
H2617 C2627 0.929 . S
H2618 C2622 0.929 . S
H2619 C2628 0.929 . S
C2620 H2614 0.930 . S
C2620 C2621 1.367 . S
C2620 C2628 1.378 . S
C2621 C2620 1.367 . S
C2621 C2629 1.433 . S
C2622 H2618 0.929 . S
C2622 C2624 1.378 . S
C2622 C2626 1.350 . S
C2623 C2626 1.463 . S
C2623 C2628 1.350 . S
C2623 N2631 1.427 . S
C2624 H2615 0.930 . S
C2624 C2622 1.378 . S
C2624 C2625 1.367 . S
C2625 C2624 1.367 . S
C2625 C2627 1.433 . S
C2626 C2622 1.350 . S
C2626 C2623 1.463 . S
C2626 N2630 1.427 . S
C2627 H2617 0.929 . S
C2627 C2625 1.433 . S
C2627 N2630 1.384 . S
C2628 H2619 0.929 . S
C2628 C2620 1.378 . S
C2628 C2623 1.350 . S
C2629 H2616 0.929 . S
C2629 C2621 1.433 . S
C2629 N2631 1.384 . S
N2630 C2626 1.427 . S
N2630 C2627 1.384 . S
N2631 C2623 1.427 . S
N2631 C2629 1.384 . S
H2632 C2638 0.930 . S
H2633 C2642 0.930 . S
H2634 C2647 0.929 . S
H2635 C2645 0.929 . S
H2636 C2640 0.929 . S
H2637 C2646 0.929 . S
C2638 H2632 0.930 . S
C2638 C2639 1.367 . S
C2638 C2646 1.378 . S
C2639 C2638 1.367 . S
C2639 C2647 1.433 . S
C2640 H2636 0.929 . S
C2640 C2642 1.378 . S
C2640 C2644 1.350 . S
C2641 C2644 1.463 . S
C2641 C2646 1.350 . S
C2641 N2649 1.427 . S
C2642 H2633 0.930 . S
C2642 C2640 1.378 . S
C2642 C2643 1.367 . S
C2643 C2642 1.367 . S
C2643 C2645 1.433 . S
C2644 C2640 1.350 . S
C2644 C2641 1.463 . S
C2644 N2648 1.427 . S
C2645 H2635 0.929 . S
C2645 C2643 1.433 . S
C2645 N2648 1.384 . S
C2646 H2637 0.929 . S
C2646 C2638 1.378 . S
C2646 C2641 1.350 . S
C2647 H2634 0.929 . S
C2647 C2639 1.433 . S
C2647 N2649 1.384 . S
N2648 C2644 1.427 . S
N2648 C2645 1.384 . S
N2649 C2641 1.427 . S
N2649 C2647 1.384 . S
H2650 C2656 0.930 . S
H2651 C2660 0.930 . S
H2652 C2665 0.929 . S
H2653 C2663 0.929 . S
H2654 C2658 0.929 . S
H2655 C2664 0.929 . S
C2656 H2650 0.930 . S
C2656 C2657 1.367 . S
C2656 C2664 1.378 . S
C2657 C2656 1.367 . S
C2657 C2665 1.433 . S
C2658 H2654 0.929 . S
C2658 C2660 1.378 . S
C2658 C2662 1.350 . S
C2659 C2662 1.463 . S
C2659 C2664 1.350 . S
C2659 N2667 1.427 . S
C2660 H2651 0.930 . S
C2660 C2658 1.378 . S
C2660 C2661 1.367 . S
C2661 C2660 1.367 . S
C2661 C2663 1.433 . S
C2662 C2658 1.350 . S
C2662 C2659 1.463 . S
C2662 N2666 1.427 . S
C2663 H2653 0.929 . S
C2663 C2661 1.433 . S
C2663 N2666 1.384 . S
C2664 H2655 0.929 . S
C2664 C2656 1.378 . S
C2664 C2659 1.350 . S
C2665 H2652 0.929 . S
C2665 C2657 1.433 . S
C2665 N2667 1.384 . S
N2666 C2662 1.427 . S
N2666 C2663 1.384 . S
N2667 C2659 1.427 . S
N2667 C2665 1.384 . S
H2668 C2674 0.930 . S
H2669 C2678 0.930 . S
H2670 C2683 0.929 . S
H2671 C2681 0.929 . S
H2672 C2676 0.929 . S
H2673 C2682 0.929 . S
C2674 H2668 0.930 . S
C2674 C2675 1.367 . S
C2674 C2682 1.378 . S
C2675 C2674 1.367 . S
C2675 C2683 1.433 . S
C2676 H2672 0.929 . S
C2676 C2678 1.378 . S
C2676 C2680 1.350 . S
C2677 C2680 1.463 . S
C2677 C2682 1.350 . S
C2677 N2685 1.427 . S
C2678 H2669 0.930 . S
C2678 C2676 1.378 . S
C2678 C2679 1.367 . S
C2679 C2678 1.367 . S
C2679 C2681 1.433 . S
C2680 C2676 1.350 . S
C2680 C2677 1.463 . S
C2680 N2684 1.427 . S
C2681 H2671 0.929 . S
C2681 C2679 1.433 . S
C2681 N2684 1.384 . S
C2682 H2673 0.929 . S
C2682 C2674 1.378 . S
C2682 C2677 1.350 . S
C2683 H2670 0.929 . S
C2683 C2675 1.433 . S
C2683 N2685 1.384 . S
N2684 C2680 1.427 . S
N2684 C2681 1.384 . S
N2685 C2677 1.427 . S
N2685 C2683 1.384 . S
H2686 C2692 0.930 . S
H2687 C2696 0.930 . S
H2688 C2701 0.929 . S
H2689 C2699 0.929 . S
H2690 C2694 0.929 . S
H2691 C2700 0.929 . S
C2692 H2686 0.930 . S
C2692 C2693 1.367 . S
C2692 C2700 1.378 . S
C2693 C2692 1.367 . S
C2693 C2701 1.433 . S
C2694 H2690 0.929 . S
C2694 C2696 1.378 . S
C2694 C2698 1.350 . S
C2695 C2698 1.463 . S
C2695 C2700 1.350 . S
C2695 N2703 1.427 . S
C2696 H2687 0.930 . S
C2696 C2694 1.378 . S
C2696 C2697 1.367 . S
C2697 C2696 1.367 . S
C2697 C2699 1.433 . S
C2698 C2694 1.350 . S
C2698 C2695 1.463 . S
C2698 N2702 1.427 . S
C2699 H2689 0.929 . S
C2699 C2697 1.433 . S
C2699 N2702 1.384 . S
C2700 H2691 0.929 . S
C2700 C2692 1.378 . S
C2700 C2695 1.350 . S
C2701 H2688 0.929 . S
C2701 C2693 1.433 . S
C2701 N2703 1.384 . S
N2702 C2698 1.427 . S
N2702 C2699 1.384 . S
N2703 C2695 1.427 . S
N2703 C2701 1.384 . S
C983 C109 2.153 1_455 S
C987 C349 2.138 . S
C1001 C65 2.082 . S
C1005 C400 2.064 . S
C1019 C75 1.629 . S
C1023 C429 1.610 . S
C1041 C473 1.467 . S
C1037 C84 1.487 . S
C1055 C25 1.371 . S
C1059 C513 1.344 . S
C1077 C549 1.576 . S
C1073 C28 1.596 . S
C1095 C599 1.875 . S
C1091 C47 1.855 . S
C1109 C9 2.305 . S
C1113 C629 2.293 . S
C1131 C359 1.996 . S
C1127 C233 2.013 . S
C1145 C249 0.600 . S
C1149 C402 0.615 . S
C1167 C439 1.272 . S
C1163 C275 1.275 . S
C1185 C469 1.417 . S
C1181 C173 1.426 . S
C1199 C224 1.520 . S
C1203 C509 1.513 . S
C1221 C559 0.905 . S
C1217 C243 0.914 . S
C1239 C593 0.836 . S
C1235 C266 0.837 . S
C1257 C639 1.843 . S
C1253 C179 1.865 . S
C1275 C353 1.208 . S
C1271 C163 1.246 1_554 S
C1289 C289 1.699 . S
C1293 C679 1.690 . S
C1311 C713 1.392 . S
C1307 C333 1.424 . S
C1329 C749 0.838 . S
C1325 C308 0.844 . S
C1343 C123 1.418 . S
C1347 C633 1.372 . S
C1361 C126 1.557 . S
C1365 C433 1.536 . S
C1379 C327 1.647 . S
C1383 C799 1.651 . S
C1401 C818 0.371 . S
C1397 C299 0.312 . S
C1419 C360 2.162 . S
C1415 C67 2.193 . S
C1437 C829 2.107 . S
C1433 C98 2.057 . S
C1451 C89 1.663 . S
C1455 C440 1.648 . S
C1469 C79 1.554 . S
C1473 C802 1.501 . S
C1491 C522 1.357 . S
C1487 C11 1.387 . S
C1505 C51 1.625 . S
C1509 C720 1.624 . S
C1527 C578 1.926 1_566 S
C1523 C33 1.904 . S
C1545 C880 2.291 . S
C1541 C14 2.336 . S
C1563 C338 1.989 . S
C1559 C140 2.024 . S
C1581 C833 0.627 . S
C1577 C319 0.603 . S
C1595 C112 1.274 . S
C1599 C418 1.289 . S
C1613 C285 1.454 . S
C1617 C800 1.437 . S
C1631 C149 1.567 . S
C1635 C520 1.561 . S
C1653 C698 0.959 . S
C1649 C313 0.957 . S
C1667 C121 0.881 . S
C1671 C602 0.868 . S
C1685 C291 1.907 . S
C1689 C858 1.881 . S
C1703 C182 1.228 . S
C1707 C362 1.175 . S
C1721 C168 1.690 . S
C1725 C658 1.711 . S
C1739 C263 1.448 . S
C1743 C562 1.419 . S
C1757 C247 0.881 . S
C1761 C760 0.877 . S
C1779 C882 1.382 . S
C1775 C277 1.435 . S
C1793 C219 1.600 . S
C1797 C442 1.531 . S
C1815 C458 1.694 . S
C1811 C257 1.691 . S
C1833 C399 0.343 . S
C1829 C201 0.318 . S
C1847 C81 2.157 . S
C1851 C909 2.141 . S
C1869 C840 2.070 . S
C1865 C93 2.081 . S
C1883 C103 1.624 . S
C1887 C949 1.617 . S
C1901 C56 1.487 . S
C1905 C793 1.466 . S
C1919 C53 1.374 . S
C1923 C673 1.342 . S
C1941 C709 1.579 . S
C1937 C0 1.591 . S
C1959 C759 1.878 . S
C1955 C19 1.847 . S
C1977 C869 2.294 . S
C1973 C37 2.298 . S
C1995 C919 1.993 . S
C1991 C261 2.011 . S
C2009 C193 0.600 . S
C2013 C842 0.617 . S
C2031 C959 1.270 . S
C2027 C205 1.277 . S
C2049 C789 1.409 . S
C2045 C215 1.430 . S
C2067 C669 1.519 . S
C2063 C252 1.522 . S
C2081 C187 0.914 . S
C2085 C719 0.905 . S
C2103 C753 0.837 . S
C2099 C196 0.838 . S
C2117 C221 1.865 . S
C2121 C879 1.845 . S
C2139 C913 1.204 . S
C2135 C317 1.247 . S
C2153 C135 1.699 . S
C2157 C519 1.690 . S
C2175 C553 1.405 . S
C2171 C151 1.435 1_565 S
C2193 C589 0.834 . S
C2189 C154 0.842 . S
C2211 C873 1.372 . S
C2207 C305 1.418 . S
C2225 C280 1.547 . S
C2229 C953 1.522 . S
C2247 C479 1.652 . S
C2243 C145 1.645 . S
C2265 C378 0.361 . S
C2261 C117 0.308 . S
C2279 C95 2.193 . S
C2283 C920 2.164 . S
C2301 C389 2.108 . S
C2297 C70 2.057 . S
C2315 C61 1.663 . S
C2319 C960 1.647 . S
C2333 C107 1.551 . S
C2337 C482 1.489 . S
C2351 C39 1.379 . S
C2355 C682 1.342 . S
C2373 C560 1.625 . S
C2369 C23 1.624 . S
C2387 C5 1.906 . S
C2391 C738 1.924 . S
C2405 C42 2.337 . S
C2409 C640 2.293 . S
C2427 C898 1.988 . S
C2423 C322 2.024 . S
C2441 C165 0.599 . S
C2445 C393 0.605 . S
C2463 C938 1.281 . S
C2459 C294 1.277 . S
C2477 C131 1.454 . S
C2481 C480 1.445 . S
C2495 C331 1.566 . S
C2499 C680 1.561 . S
C2517 C538 0.966 . S
C2513 C159 0.964 . S
C2531 C303 0.879 . S
C2535 C762 0.863 . S
C2553 C618 1.878 . S
C2549 C137 1.907 . S
C2571 C922 1.166 . S
C2567 C238 1.223 . S
C2589 C498 1.712 . S
C2585 C210 1.690 . S
C2603 C235 1.452 . S
C2607 C722 1.415 . S
C2625 C600 0.885 . S
C2621 C191 0.888 . S
C2639 C207 1.427 . S
C2643 C642 1.370 . S
C2657 C177 1.603 . S
C2661 C962 1.538 . S
C2679 C778 1.694 . S
C2675 C229 1.693 . S
C2697 C839 0.373 . S
C2693 C271 0.316 . S
