# Generated by pormake.
# Topology ocu, (6,8)-cn, num edge types: 1
# Building blocks:
#     Node 0, Type 0, BuildingBlock: KUMBUR_clean_sbu_0, # of connection points: 6
#     Node 1, Type 0, BuildingBlock: KUMBUR_clean_sbu_0, # of connection points: 6
#     Node 2, Type 0, BuildingBlock: KUMBUR_clean_sbu_0, # of connection points: 6
#     Node 3, Type 0, BuildingBlock: KUMBUR_clean_sbu_0, # of connection points: 6
#     Node 4, Type 0, BuildingBlock: KUMBUR_clean_sbu_0, # of connection points: 6
#     Node 5, Type 0, BuildingBlock: KUMBUR_clean_sbu_0, # of connection points: 6
#     Node 6, Type 0, BuildingBlock: KUMBUR_clean_sbu_0, # of connection points: 6
#     Node 7, Type 0, BuildingBlock: KUMBUR_clean_sbu_0, # of connection points: 6
#     Node 8, Type 1, BuildingBlock: GIZVER_clean_sbu_0, # of connection points: 8
#     Node 9, Type 1, BuildingBlock: GIZVER_clean_sbu_0, # of connection points: 8
#     Node 10, Type 1, BuildingBlock: GIZVER_clean_sbu_0, # of connection points: 8
#     Node 11, Type 1, BuildingBlock: GIZVER_clean_sbu_0, # of connection points: 8
#     Node 12, Type 1, BuildingBlock: GIZVER_clean_sbu_0, # of connection points: 8
#     Node 13, Type 1, BuildingBlock: GIZVER_clean_sbu_0, # of connection points: 8
#     Edge 14, Type (0, 1), BuildingBlock: KIFKEQ_clean_linker_1, # of connection points: 2
#     Edge 15, Type (0, 1), BuildingBlock: KIFKEQ_clean_linker_1, # of connection points: 2
#     Edge 16, Type (0, 1), BuildingBlock: KIFKEQ_clean_linker_1, # of connection points: 2
#     Edge 17, Type (0, 1), BuildingBlock: KIFKEQ_clean_linker_1, # of connection points: 2
#     Edge 18, Type (0, 1), BuildingBlock: KIFKEQ_clean_linker_1, # of connection points: 2
#     Edge 19, Type (0, 1), BuildingBlock: KIFKEQ_clean_linker_1, # of connection points: 2
#     Edge 20, Type (0, 1), BuildingBlock: KIFKEQ_clean_linker_1, # of connection points: 2
#     Edge 21, Type (0, 1), BuildingBlock: KIFKEQ_clean_linker_1, # of connection points: 2
#     Edge 22, Type (0, 1), BuildingBlock: KIFKEQ_clean_linker_1, # of connection points: 2
#     Edge 23, Type (0, 1), BuildingBlock: KIFKEQ_clean_linker_1, # of connection points: 2
#     Edge 24, Type (0, 1), BuildingBlock: KIFKEQ_clean_linker_1, # of connection points: 2
#     Edge 25, Type (0, 1), BuildingBlock: KIFKEQ_clean_linker_1, # of connection points: 2
#     Edge 26, Type (0, 1), BuildingBlock: KIFKEQ_clean_linker_1, # of connection points: 2
#     Edge 27, Type (0, 1), BuildingBlock: KIFKEQ_clean_linker_1, # of connection points: 2
#     Edge 28, Type (0, 1), BuildingBlock: KIFKEQ_clean_linker_1, # of connection points: 2
#     Edge 29, Type (0, 1), BuildingBlock: KIFKEQ_clean_linker_1, # of connection points: 2
#     Edge 30, Type (0, 1), BuildingBlock: KIFKEQ_clean_linker_1, # of connection points: 2
#     Edge 31, Type (0, 1), BuildingBlock: KIFKEQ_clean_linker_1, # of connection points: 2
#     Edge 32, Type (0, 1), BuildingBlock: KIFKEQ_clean_linker_1, # of connection points: 2
#     Edge 33, Type (0, 1), BuildingBlock: KIFKEQ_clean_linker_1, # of connection points: 2
#     Edge 34, Type (0, 1), BuildingBlock: KIFKEQ_clean_linker_1, # of connection points: 2
#     Edge 35, Type (0, 1), BuildingBlock: KIFKEQ_clean_linker_1, # of connection points: 2
#     Edge 36, Type (0, 1), BuildingBlock: KIFKEQ_clean_linker_1, # of connection points: 2
#     Edge 37, Type (0, 1), BuildingBlock: KIFKEQ_clean_linker_1, # of connection points: 2
#     Edge 38, Type (0, 1), BuildingBlock: KIFKEQ_clean_linker_1, # of connection points: 2
#     Edge 39, Type (0, 1), BuildingBlock: KIFKEQ_clean_linker_1, # of connection points: 2
#     Edge 40, Type (0, 1), BuildingBlock: KIFKEQ_clean_linker_1, # of connection points: 2
#     Edge 41, Type (0, 1), BuildingBlock: KIFKEQ_clean_linker_1, # of connection points: 2
#     Edge 42, Type (0, 1), BuildingBlock: KIFKEQ_clean_linker_1, # of connection points: 2
#     Edge 43, Type (0, 1), BuildingBlock: KIFKEQ_clean_linker_1, # of connection points: 2
#     Edge 44, Type (0, 1), BuildingBlock: KIFKEQ_clean_linker_1, # of connection points: 2
#     Edge 45, Type (0, 1), BuildingBlock: KIFKEQ_clean_linker_1, # of connection points: 2
#     Edge 46, Type (0, 1), BuildingBlock: KIFKEQ_clean_linker_1, # of connection points: 2
#     Edge 47, Type (0, 1), BuildingBlock: KIFKEQ_clean_linker_1, # of connection points: 2
#     Edge 48, Type (0, 1), BuildingBlock: KIFKEQ_clean_linker_1, # of connection points: 2
#     Edge 49, Type (0, 1), BuildingBlock: KIFKEQ_clean_linker_1, # of connection points: 2
#     Edge 50, Type (0, 1), BuildingBlock: KIFKEQ_clean_linker_1, # of connection points: 2
#     Edge 51, Type (0, 1), BuildingBlock: KIFKEQ_clean_linker_1, # of connection points: 2
#     Edge 52, Type (0, 1), BuildingBlock: KIFKEQ_clean_linker_1, # of connection points: 2
#     Edge 53, Type (0, 1), BuildingBlock: KIFKEQ_clean_linker_1, # of connection points: 2
#     Edge 54, Type (0, 1), BuildingBlock: KIFKEQ_clean_linker_1, # of connection points: 2
#     Edge 55, Type (0, 1), BuildingBlock: KIFKEQ_clean_linker_1, # of connection points: 2
#     Edge 56, Type (0, 1), BuildingBlock: KIFKEQ_clean_linker_1, # of connection points: 2
#     Edge 57, Type (0, 1), BuildingBlock: KIFKEQ_clean_linker_1, # of connection points: 2
#     Edge 58, Type (0, 1), BuildingBlock: KIFKEQ_clean_linker_1, # of connection points: 2
#     Edge 59, Type (0, 1), BuildingBlock: KIFKEQ_clean_linker_1, # of connection points: 2
#     Edge 60, Type (0, 1), BuildingBlock: KIFKEQ_clean_linker_1, # of connection points: 2
#     Edge 61, Type (0, 1), BuildingBlock: KIFKEQ_clean_linker_1, # of connection points: 2
# Relax obj value: 0.166
# Max RMSD: 0.299
# Mean RMSD: 0.214
data_MOF--net-ocu--node1-KUMBUR_clean_sbu_0--node2-GIZVER_clean_sbu_0--edge1-KIFKEQ_clean_linker_1
_symmetry_space_group_name_H-M    P1
_symmetry_Int_Tables_number       1
_symmetry_cell_setting            triclinic
loop_
_symmetry_equiv_pos_as_xyz
'x, y, z'
_cell_length_a     43.23662
_cell_length_b     44.831879
_cell_length_c     35.411049
_cell_angle_alpha  78.098124
_cell_angle_beta   101.25074
_cell_angle_gamma 111.62979
loop_
_atom_site_label
_atom_site_type_symbol
_atom_site_fract_x
_atom_site_fract_y
_atom_site_fract_z
_atom_type_partial_charge
Tb0 Tb 0.27594 0.24788 0.21406 0.0
C1 C 0.36151 0.28875 0.35263 0.0
C2 C 0.34637 0.23886 0.39779 0.0
C3 C 0.40432 0.27486 0.40124 0.0
C4 C 0.33759 0.26026 0.36577 0.0
C5 C 0.39502 0.29694 0.3711 0.0
C6 C 0.37998 0.24585 0.41465 0.0
C7 C 0.40648 0.3501 0.33329 0.0
N8 N 0.35136 0.30967 0.32405 0.0
C9 C 0.37293 0.34101 0.31643 0.0
C10 C 0.41781 0.3277 0.3601 0.0
Tb11 Tb 0.29601 0.2913 0.2951 0.0
N12 N 0.30539 0.2543 0.34854 0.0
C13 C 0.28038 0.22835 0.36462 0.0
C14 C 0.32104 0.21148 0.41253 0.0
C15 C 0.28785 0.20653 0.39625 0.0
H16 H 0.36449 0.35928 0.29689 0.0
H17 H 0.26788 0.18589 0.40814 0.0
H18 H 0.38722 0.22946 0.43879 0.0
H19 H 0.42345 0.37456 0.32596 0.0
H20 H 0.25432 0.22378 0.35396 0.0
H21 H 0.28422 0.35086 0.10019 0.0
H22 H 0.32673 0.19451 0.43704 0.0
H23 H 0.2239 0.17198 0.21432 0.0
H24 H 0.30552 0.319 0.15702 0.0
H25 H 0.16786 0.14289 0.18162 0.0
H26 H 0.42999 0.28054 0.41535 0.0
H27 H 0.2254 0.32941 0.06977 0.0
H28 H 0.17067 0.28292 0.06646 0.0
H29 H 0.44372 0.3349 0.37354 0.0
H30 H 0.13854 0.22598 0.0891 0.0
N31 N 0.25901 0.27976 0.16047 0.0
C32 C 0.27981 0.30907 0.14452 0.0
C33 C 0.23458 0.31522 0.09497 0.0
C34 C 0.21407 0.28433 0.10969 0.0
C35 C 0.26782 0.32735 0.11199 0.0
C36 C 0.2273 0.26692 0.14267 0.0
H37 H 0.13757 0.17326 0.13155 0.0
N38 N 0.22438 0.21859 0.18477 0.0
C39 C 0.17903 0.16892 0.17423 0.0
C40 C 0.20919 0.23517 0.15549 0.0
C41 C 0.21077 0.18545 0.1926 0.0
C42 C 0.16196 0.18617 0.14613 0.0
C43 C 0.17743 0.21957 0.13559 0.0
O44 O 0.28607 0.2075 0.20477 0.0
O45 O 0.30686 0.25524 0.27095 0.0
O46 O 0.33206 0.32072 0.25499 0.0
O47 O 0.32535 0.28514 0.21219 0.0
O48 O 0.28061 0.2085 0.26013 0.0
O49 O 0.30329 0.25327 0.16835 0.0
O50 O 0.30477 0.33157 0.32295 0.0
O51 O 0.26619 0.28461 0.238 0.0
O52 O 0.23084 0.22694 0.24252 0.0
O53 O 0.24567 0.25457 0.29617 0.0
O54 O 0.28678 0.33065 0.25141 0.0
O55 O 0.25888 0.29148 0.32578 0.0
C56 C 0.30247 0.22543 0.28487 0.0
C57 C 0.29311 0.20607 0.14058 0.0
C58 C 0.30654 0.17392 0.10187 0.0
C59 C 0.31457 0.1909 0.13397 0.0
C60 C 0.27675 0.17249 0.07658 0.0
C61 C 0.26392 0.20471 0.11444 0.0
C62 C 0.25576 0.1879 0.08277 0.0
C63 C 0.34154 0.31228 0.22691 0.0
C64 C 0.30154 0.22309 0.17482 0.0
C65 C 0.16311 0.2374 0.10444 0.0
C66 C 0.18141 0.26978 0.09151 0.0
C67 C 0.26725 0.31386 0.2251 0.0
C68 C 0.27754 0.32132 0.37864 0.0
C69 C 0.25916 0.33802 0.38897 0.0
C70 C 0.25898 0.33937 0.42846 0.0
C71 C 0.27767 0.32389 0.45733 0.0
C72 C 0.29622 0.30641 0.40804 0.0
C73 C 0.29623 0.30769 0.44711 0.0
C74 C 0.22473 0.23221 0.27516 0.0
C75 C 0.2765 0.31927 0.33723 0.0
H76 H 0.33729 0.19204 0.15397 0.0
H77 H 0.27001 0.15998 0.05147 0.0
H78 H 0.24748 0.2167 0.11831 0.0
H79 H 0.23313 0.18695 0.06278 0.0
H80 H 0.24456 0.34945 0.36634 0.0
H81 H 0.2783 0.32466 0.48786 0.0
H82 H 0.31077 0.29378 0.40087 0.0
H83 H 0.31069 0.29606 0.46961 0.0
Tb84 Tb 0.80149 0.25265 0.26521 0.0
C85 C 0.7076 0.29703 0.28645 0.0
C86 C 0.65369 0.25661 0.26997 0.0
C87 C 0.66415 0.28055 0.32874 0.0
C88 C 0.68672 0.27544 0.26211 0.0
C89 C 0.69609 0.30072 0.31933 0.0
C90 C 0.64295 0.2585 0.30406 0.0
C91 C 0.74605 0.34723 0.32753 0.0
N92 N 0.73834 0.31596 0.27641 0.0
C93 C 0.75602 0.34279 0.29444 0.0
C94 C 0.7164 0.32549 0.34077 0.0
Tb95 Tb 0.75436 0.30333 0.22445 0.0
N96 N 0.69827 0.27391 0.22984 0.0
C97 C 0.67609 0.25718 0.20164 0.0
C98 C 0.63225 0.23698 0.24295 0.0
C99 C 0.64328 0.2379 0.20818 0.0
H100 H 0.77783 0.3614 0.28356 0.0
H101 H 0.62636 0.22414 0.18607 0.0
H102 H 0.61795 0.24376 0.31094 0.0
H103 H 0.76096 0.36782 0.34234 0.0
H104 H 0.68287 0.25893 0.17337 0.0
H105 H 0.92676 0.31827 0.33153 0.0
H106 H 0.60677 0.22212 0.24791 0.0
H107 H 0.78339 0.20784 0.19148 0.0
H108 H 0.86761 0.28446 0.33164 0.0
H109 H 0.80704 0.21097 0.13328 0.0
H110 H 0.65515 0.28264 0.35423 0.0
H111 H 0.95389 0.32997 0.27224 0.0
H112 H 0.94989 0.31976 0.20408 0.0
H113 H 0.70851 0.32915 0.36617 0.0
H114 H 0.917 0.29051 0.14965 0.0
N115 N 0.85909 0.27961 0.27115 0.0
C116 C 0.87824 0.29029 0.30474 0.0
C117 C 0.9275 0.31552 0.2718 0.0
C118 C 0.90891 0.30169 0.23894 0.0
C119 C 0.91226 0.30907 0.30521 0.0
C120 C 0.87454 0.28319 0.23988 0.0
H121 H 0.86376 0.24965 0.12306 0.0
N122 N 0.82379 0.24805 0.21285 0.0
C123 C 0.82094 0.22746 0.15403 0.0
C124 C 0.85623 0.26677 0.20961 0.0
C125 C 0.80709 0.22657 0.18696 0.0
C126 C 0.85299 0.24913 0.14848 0.0
C127 C 0.87153 0.2684 0.17708 0.0
O128 O 0.78485 0.20173 0.27058 0.0
O129 O 0.75306 0.25816 0.26237 0.0
O130 O 0.79985 0.32943 0.26145 0.0
O131 O 0.81583 0.28929 0.30382 0.0
O132 O 0.77853 0.24953 0.3162 0.0
O133 O 0.82485 0.22695 0.31105 0.0
O134 O 0.76985 0.35411 0.20895 0.0
O135 O 0.80238 0.29755 0.22745 0.0
O136 O 0.75689 0.22696 0.22659 0.0
O137 O 0.73947 0.267 0.18573 0.0
O138 O 0.778 0.30696 0.17353 0.0
O139 O 0.72441 0.32337 0.18027 0.0
C140 C 0.75025 0.25173 0.2985 0.0
C141 C 0.78488 0.17899 0.33725 0.0
C142 C 0.78651 0.16018 0.40745 0.0
C143 C 0.80295 0.17642 0.37446 0.0
C144 C 0.75128 0.1463 0.40223 0.0
C145 C 0.74983 0.16393 0.33266 0.0
C146 C 0.73326 0.14768 0.36501 0.0
C147 C 0.81644 0.31948 0.29421 0.0
C148 C 0.80287 0.19905 0.3042 0.0
C149 C 0.90504 0.28848 0.17471 0.0
C150 C 0.92375 0.3051 0.20567 0.0
C151 C 0.80613 0.30479 0.19169 0.0
C152 C 0.75896 0.36664 0.14028 0.0
C153 C 0.73631 0.36023 0.10629 0.0
C154 C 0.74721 0.37067 0.06935 0.0
C155 C 0.78127 0.38832 0.06657 0.0
C156 C 0.79305 0.38434 0.13693 0.0
C157 C 0.80403 0.39504 0.10027 0.0
C158 C 0.73962 0.23702 0.19447 0.0
C159 C 0.74707 0.35218 0.17869 0.0
H160 H 0.83008 0.18663 0.3772 0.0
H161 H 0.73758 0.13377 0.42667 0.0
H162 H 0.73515 0.16495 0.30422 0.0
H163 H 0.70631 0.13596 0.3612 0.0
H164 H 0.70991 0.34721 0.10865 0.0
H165 H 0.79019 0.39696 0.03842 0.0
H166 H 0.81134 0.38944 0.16255 0.0
H167 H 0.83032 0.40848 0.098 0.0
Tb168 Tb 0.7591 0.75013 0.29431 0.0
C169 C 0.83996 0.8478 0.16928 0.0
C170 C 0.79817 0.85843 0.11751 0.0
C171 C 0.85331 0.89966 0.12674 0.0
C172 C 0.80799 0.83801 0.1498 0.0
C173 C 0.86334 0.87849 0.15759 0.0
C174 C 0.82074 0.88963 0.10668 0.0
C175 C 0.90541 0.86375 0.20529 0.0
N176 N 0.84868 0.8264 0.19839 0.0
C177 C 0.88132 0.83354 0.21562 0.0
C178 C 0.89629 0.8865 0.17646 0.0
Tb179 Tb 0.80739 0.77771 0.21441 0.0
N180 N 0.7873 0.80753 0.16087 0.0
C181 C 0.7572 0.79509 0.13855 0.0
C182 C 0.76651 0.84644 0.09622 0.0
C183 C 0.74615 0.81443 0.10645 0.0
H184 H 0.88879 0.81636 0.23812 0.0
H185 H 0.72189 0.80462 0.08969 0.0
H186 H 0.81357 0.90579 0.0822 0.0
H187 H 0.93098 0.86947 0.21964 0.0
H188 H 0.74088 0.7705 0.14577 0.0
H189 H 0.84234 0.72165 0.42068 0.0
H190 H 0.75798 0.86133 0.07124 0.0
H191 H 0.67846 0.71092 0.26583 0.0
H192 H 0.82503 0.756 0.36364 0.0
H193 H 0.63588 0.65781 0.28277 0.0
H194 H 0.8708 0.92345 0.1175 0.0
H195 H 0.80485 0.66557 0.43919 0.0
H196 H 0.74899 0.62177 0.42709 0.0
H197 H 0.91502 0.90983 0.16838 0.0
H198 H 0.69265 0.60439 0.38965 0.0
N199 N 0.77797 0.71988 0.34832 0.0
C200 C 0.80805 0.73175 0.37094 0.0
C201 C 0.797 0.68059 0.41385 0.0
C202 C 0.76557 0.66906 0.3919 0.0
C203 C 0.81816 0.71225 0.40356 0.0
C204 C 0.75663 0.68965 0.35917 0.0
H205 H 0.65012 0.61781 0.33603 0.0
N206 N 0.71726 0.7014 0.30856 0.0
C207 C 0.66092 0.66371 0.29868 0.0
C208 C 0.72507 0.68006 0.33854 0.0
C209 C 0.68525 0.69398 0.28925 0.0
C210 C 0.66906 0.64118 0.32868 0.0
C211 C 0.70136 0.64935 0.34939 0.0
O212 O 0.72182 0.7643 0.30873 0.0
O213 O 0.76867 0.78394 0.23999 0.0
O214 O 0.82386 0.81811 0.24825 0.0
O215 O 0.80771 0.78773 0.30721 0.0
O216 O 0.72036 0.76266 0.25047 0.0
O217 O 0.77142 0.77737 0.34031 0.0
O218 O 0.84459 0.76319 0.20051 0.0
O219 O 0.79827 0.74448 0.26902 0.0
O220 O 0.74547 0.70914 0.2622 0.0
O221 O 0.75887 0.73926 0.20235 0.0
O222 O 0.84638 0.76516 0.25768 0.0
O223 O 0.79521 0.75053 0.16841 0.0
C224 C 0.7389 0.78339 0.22608 0.0
C225 C 0.72774 0.77513 0.37327 0.0
C226 C 0.70792 0.79815 0.41732 0.0
C227 C 0.72105 0.80113 0.38253 0.0
C228 C 0.70204 0.7685 0.44271 0.0
C229 C 0.72167 0.74602 0.39916 0.0
C230 C 0.70897 0.74283 0.4337 0.0
C231 C 0.82522 0.81475 0.28655 0.0
C232 C 0.74167 0.77925 0.33684 0.0
C233 C 0.71044 0.62817 0.38097 0.0
C234 C 0.74251 0.63802 0.40225 0.0
C235 C 0.82807 0.74483 0.28258 0.0
C236 C 0.8393 0.7535 0.13582 0.0
C237 C 0.8493 0.72906 0.12795 0.0
C238 C 0.86212 0.73247 0.09292 0.0
C239 C 0.8647 0.76094 0.06601 0.0
C240 C 0.84223 0.7816 0.10858 0.0
C241 C 0.85486 0.78522 0.07387 0.0
C242 C 0.74343 0.71177 0.22392 0.0
C243 C 0.82496 0.74865 0.17206 0.0
H244 H 0.72641 0.82375 0.36264 0.0
H245 H 0.69136 0.76474 0.46926 0.0
H246 H 0.72676 0.72584 0.39269 0.0
H247 H 0.7042 0.72021 0.45353 0.0
H248 H 0.84663 0.7072 0.14892 0.0
H249 H 0.87493 0.76476 0.03912 0.0
H250 H 0.83462 0.8006 0.11406 0.0
H251 H 0.85712 0.80701 0.05295 0.0
Tb252 Tb 0.30655 0.73817 0.2713 0.0
C253 C 0.24779 0.82211 0.14207 0.0
C254 C 0.29415 0.8701 0.12363 0.0
C255 C 0.24616 0.84994 0.07549 0.0
C256 C 0.27924 0.84374 0.15149 0.0
C257 C 0.23024 0.82556 0.10438 0.0
C258 C 0.27814 0.87224 0.08512 0.0
C259 C 0.18111 0.78409 0.12835 0.0
N260 N 0.23306 0.79975 0.1712 0.0
C261 C 0.19965 0.78161 0.16525 0.0
C262 C 0.19667 0.80569 0.09755 0.0
Tb263 Tb 0.26509 0.79714 0.23094 0.0
N264 N 0.29302 0.84142 0.18932 0.0
C265 C 0.31967 0.86692 0.20197 0.0
C266 C 0.32332 0.89468 0.13594 0.0
C267 C 0.33559 0.8935 0.17549 0.0
H268 H 0.18743 0.76449 0.18865 0.0
H269 H 0.3574 0.91299 0.18563 0.0
H270 H 0.28944 0.89199 0.06314 0.0
H271 H 0.15494 0.76913 0.12364 0.0
H272 H 0.32963 0.86655 0.2324 0.0
H273 H 0.21293 0.6214 0.3125 0.0
H274 H 0.33557 0.91537 0.11553 0.0
H275 H 0.38629 0.76693 0.31427 0.0
H276 H 0.24 0.6687 0.26739 0.0
H277 H 0.41683 0.76173 0.37996 0.0
H278 H 0.23332 0.85274 0.04617 0.0
H279 H 0.23593 0.61645 0.38208 0.0
H280 H 0.28095 0.63886 0.43533 0.0
H281 H 0.18225 0.80765 0.06904 0.0
H282 H 0.33663 0.67782 0.45405 0.0
N283 N 0.27737 0.69297 0.31076 0.0
C284 C 0.25035 0.66798 0.29751 0.0
C285 C 0.24771 0.63797 0.36245 0.0
C286 C 0.2768 0.66225 0.37547 0.0
C287 C 0.2348 0.64059 0.32316 0.0
C288 C 0.29175 0.68938 0.34841 0.0
H289 H 0.38786 0.72325 0.43337 0.0
N290 N 0.33907 0.73374 0.33044 0.0
C291 C 0.39047 0.74751 0.37452 0.0
C292 C 0.32348 0.71079 0.35872 0.0
C293 C 0.37288 0.75044 0.33718 0.0
C294 C 0.374 0.72587 0.40462 0.0
C295 C 0.34046 0.70634 0.39664 0.0
O296 O 0.31663 0.72769 0.22053 0.0
O297 O 0.30685 0.78146 0.2306 0.0
O298 O 0.25606 0.76438 0.18834 0.0
O299 O 0.26069 0.71895 0.23127 0.0
O300 O 0.35238 0.77733 0.25555 0.0
O301 O 0.32717 0.70133 0.27599 0.0
O302 O 0.2231 0.80556 0.24205 0.0
O303 O 0.26619 0.75498 0.27406 0.0
O304 O 0.32265 0.77346 0.31265 0.0
O305 O 0.30629 0.8165 0.27628 0.0
O306 O 0.22053 0.75944 0.25326 0.0
O307 O 0.27326 0.83723 0.25834 0.0
C308 C 0.33834 0.79557 0.23125 0.0
C309 C 0.3595 0.70572 0.22706 0.0
C310 C 0.38698 0.68014 0.19608 0.0
C311 C 0.35849 0.6795 0.21024 0.0
C312 C 0.41657 0.70716 0.19925 0.0
C313 C 0.38949 0.73218 0.2307 0.0
C314 C 0.41783 0.73286 0.21675 0.0
C315 C 0.25052 0.73273 0.19659 0.0
C316 C 0.32861 0.70539 0.23898 0.0
C317 C 0.32417 0.68131 0.42466 0.0
C318 C 0.29245 0.65915 0.41402 0.0
C319 C 0.23521 0.74187 0.27754 0.0
C320 C 0.23101 0.86061 0.24136 0.0
C321 C 0.21946 0.87303 0.26682 0.0
C322 C 0.20919 0.9002 0.25375 0.0
C323 C 0.21131 0.91514 0.21483 0.0
C324 C 0.23267 0.87563 0.2026 0.0
C325 C 0.22303 0.90288 0.18949 0.0
C326 C 0.32236 0.80358 0.30722 0.0
C327 C 0.2414 0.83218 0.25609 0.0
H328 H 0.33542 0.65893 0.20745 0.0
H329 H 0.43887 0.70813 0.18871 0.0
H330 H 0.39111 0.75236 0.24405 0.0
H331 H 0.44084 0.75342 0.21943 0.0
H332 H 0.21854 0.8615 0.29687 0.0
H333 H 0.20318 0.93581 0.20371 0.0
H334 H 0.24127 0.86637 0.18247 0.0
H335 H 0.22431 0.91432 0.1595 0.0
Tb336 Tb 0.32825 0.73305 0.76653 0.0
C337 C 0.2033 0.7551 0.77894 0.0
C338 C 0.16154 0.75036 0.72149 0.0
C339 C 0.14361 0.73378 0.78565 0.0
C340 C 0.19536 0.75848 0.73877 0.0
C341 C 0.17727 0.74318 0.80271 0.0
C342 C 0.13577 0.73743 0.74514 0.0
C343 C 0.21926 0.75239 0.8587 0.0
N344 N 0.23626 0.76423 0.79464 0.0
C345 C 0.24425 0.76405 0.83424 0.0
C346 C 0.18568 0.74146 0.84299 0.0
Tb347 Tb 0.27382 0.7796 0.74947 0.0
N348 N 0.22075 0.77074 0.71655 0.0
C349 C 0.21402 0.77762 0.67684 0.0
C350 C 0.15457 0.75599 0.68091 0.0
C351 C 0.18095 0.77008 0.65854 0.0
H352 H 0.26959 0.77142 0.84854 0.0
H353 H 0.17585 0.77497 0.62715 0.0
H354 H 0.10967 0.73072 0.73237 0.0
H355 H 0.22603 0.75156 0.88989 0.0
H356 H 0.23407 0.78792 0.659 0.0
H357 H 0.45689 0.80897 0.81168 0.0
H358 H 0.12894 0.75009 0.66663 0.0
H359 H 0.31188 0.68151 0.70142 0.0
H360 H 0.4022 0.76782 0.82276 0.0
H361 H 0.32915 0.68361 0.63856 0.0
H362 H 0.12344 0.72424 0.80355 0.0
H363 H 0.47298 0.82616 0.74519 0.0
H364 H 0.46022 0.81612 0.67566 0.0
H365 H 0.16644 0.73228 0.86215 0.0
H366 H 0.42458 0.78123 0.62728 0.0
N367 N 0.38405 0.76564 0.76239 0.0
C368 C 0.4075 0.77665 0.79322 0.0
C369 C 0.44823 0.80894 0.74976 0.0
C370 C 0.42634 0.79378 0.71933 0.0
C371 C 0.4392 0.79939 0.78723 0.0
C372 C 0.3943 0.77162 0.7269 0.0
H373 H 0.37594 0.73075 0.61355 0.0
N374 N 0.34563 0.7291 0.71025 0.0
C375 C 0.34163 0.70367 0.65494 0.0
C376 C 0.37425 0.7525 0.69968 0.0
C377 C 0.33166 0.70287 0.69054 0.0
C378 C 0.36798 0.73029 0.64091 0.0
C379 C 0.38572 0.75441 0.66425 0.0
O380 O 0.30947 0.68202 0.77393 0.0
O381 O 0.28093 0.73458 0.77598 0.0
O382 O 0.30539 0.79003 0.80448 0.0
O383 O 0.3475 0.76829 0.80777 0.0
O384 O 0.30764 0.71682 0.82256 0.0
O385 O 0.35959 0.70794 0.79891 0.0
O386 O 0.3095 0.82622 0.75396 0.0
O387 O 0.32015 0.77718 0.73786 0.0
O388 O 0.28783 0.71653 0.71824 0.0
O389 O 0.24671 0.73873 0.71764 0.0
O390 O 0.28947 0.7903 0.69141 0.0
O391 O 0.25786 0.82006 0.73355 0.0
C392 C 0.27934 0.72109 0.81081 0.0
C393 C 0.32806 0.66009 0.83665 0.0
C394 C 0.33531 0.6545 0.9079 0.0
C395 C 0.34201 0.67335 0.87143 0.0
C396 C 0.31248 0.62237 0.90852 0.0
C397 C 0.30559 0.62816 0.83822 0.0
C398 C 0.29755 0.60959 0.87398 0.0
C399 C 0.33473 0.78696 0.81958 0.0
C400 C 0.33548 0.67993 0.79854 0.0
C401 C 0.41583 0.77879 0.6548 0.0
C402 C 0.43615 0.79858 0.68237 0.0
C403 C 0.31833 0.78684 0.70162 0.0
C404 C 0.29908 0.86475 0.70219 0.0
C405 C 0.27798 0.86342 0.66665 0.0
C406 C 0.28672 0.8875 0.6343 0.0
C407 C 0.31874 0.91172 0.63738 0.0
C408 C 0.33077 0.88908 0.70459 0.0
C409 C 0.34071 0.91209 0.6721 0.0
C410 C 0.25774 0.71895 0.70569 0.0
C411 C 0.2884 0.84056 0.73658 0.0
H412 H 0.35825 0.69845 0.86986 0.0
H413 H 0.30704 0.60632 0.93555 0.0
H414 H 0.29414 0.61766 0.81175 0.0
H415 H 0.28029 0.58485 0.87502 0.0
H416 H 0.2543 0.8438 0.66459 0.0
H417 H 0.3266 0.93115 0.6137 0.0
H418 H 0.3478 0.89025 0.73155 0.0
H419 H 0.36518 0.93087 0.67416 0.0
Tb420 Tb 0.26911 0.25018 0.79622 0.0
C421 C 0.34281 0.34406 0.66509 0.0
C422 C 0.2992 0.35179 0.61396 0.0
C423 C 0.35347 0.39474 0.62039 0.0
C424 C 0.31048 0.33273 0.64673 0.0
C425 C 0.36493 0.37501 0.65191 0.0
C426 C 0.32065 0.38311 0.60139 0.0
C427 C 0.40859 0.36366 0.70015 0.0
N428 N 0.35297 0.32409 0.69506 0.0
C429 C 0.38576 0.33306 0.71193 0.0
C430 C 0.39806 0.38487 0.67022 0.0
Tb431 Tb 0.31351 0.27484 0.71331 0.0
N432 N 0.29076 0.30224 0.65959 0.0
C433 C 0.26015 0.28848 0.63889 0.0
C434 C 0.26716 0.33841 0.59412 0.0
C435 C 0.24774 0.30645 0.60635 0.0
H436 H 0.39421 0.31702 0.73526 0.0
H437 H 0.22316 0.29561 0.59076 0.0
H438 H 0.31235 0.39823 0.5765 0.0
H439 H 0.43428 0.37086 0.71416 0.0
H440 H 0.24456 0.26387 0.64764 0.0
H441 H 0.36035 0.22491 0.91498 0.0
H442 H 0.25754 0.35222 0.56881 0.0
H443 H 0.18643 0.21408 0.7848 0.0
H444 H 0.33841 0.25859 0.86089 0.0
H445 H 0.14502 0.16137 0.80663 0.0
H446 H 0.36999 0.41869 0.60995 0.0
H447 H 0.32568 0.16795 0.93499 0.0
H448 H 0.26973 0.12318 0.92792 0.0
H449 H 0.41583 0.40849 0.66102 0.0
H450 H 0.21059 0.10571 0.89825 0.0
N451 N 0.29169 0.22101 0.84842 0.0
C452 C 0.32268 0.23387 0.86888 0.0
C453 C 0.31584 0.18263 0.91092 0.0
C454 C 0.28324 0.17034 0.89195 0.0
C455 C 0.3354 0.21479 0.89983 0.0
C456 C 0.27175 0.19052 0.86075 0.0
H457 H 0.16357 0.1201 0.85345 0.0
N458 N 0.22859 0.20244 0.8171 0.0
C459 C 0.1714 0.16639 0.81728 0.0
C460 C 0.23881 0.18082 0.84438 0.0
C461 C 0.19505 0.1963 0.8049 0.0
C462 C 0.18196 0.14313 0.84359 0.0
C463 C 0.21597 0.1505 0.85825 0.0
O464 O 0.23515 0.26961 0.80859 0.0
O465 O 0.27593 0.28173 0.74005 0.0
O466 O 0.32785 0.31721 0.74333 0.0
O467 O 0.31803 0.28872 0.8046 0.0
O468 O 0.22854 0.2608 0.75391 0.0
O469 O 0.28241 0.27565 0.84414 0.0
O470 O 0.35135 0.26328 0.69596 0.0
O471 O 0.30619 0.24234 0.76886 0.0
O472 O 0.24748 0.209 0.76378 0.0
O473 O 0.26606 0.23485 0.70373 0.0
O474 O 0.35384 0.26391 0.7558 0.0
O475 O 0.30022 0.24579 0.66905 0.0
C476 C 0.2457 0.2804 0.7275 0.0
C477 C 0.23784 0.27518 0.87401 0.0
C478 C 0.2143 0.29525 0.91722 0.0
C479 C 0.23083 0.30052 0.88443 0.0
C480 C 0.20501 0.26395 0.93915 0.0
C481 C 0.22866 0.2445 0.89669 0.0
C482 C 0.21234 0.23898 0.92906 0.0
C483 C 0.33168 0.31587 0.78158 0.0
C484 C 0.25427 0.28104 0.83911 0.0
C485 C 0.22763 0.12928 0.88747 0.0
C486 C 0.26128 0.13921 0.90435 0.0
C487 C 0.33638 0.24334 0.78131 0.0
C488 C 0.34209 0.25088 0.63156 0.0
C489 C 0.35077 0.22621 0.62198 0.0
C490 C 0.36118 0.22924 0.58543 0.0
C491 C 0.36228 0.25749 0.55861 0.0
C492 C 0.34346 0.27866 0.60426 0.0
C493 C 0.35341 0.28184 0.56798 0.0
C494 C 0.24695 0.21014 0.726 0.0
C495 C 0.33068 0.24653 0.66968 0.0
H496 H 0.23849 0.32431 0.86706 0.0
H497 H 0.19147 0.2584 0.96384 0.0
H498 H 0.23398 0.22481 0.8893 0.0
H499 H 0.20504 0.21512 0.94626 0.0
H500 H 0.34902 0.20452 0.64298 0.0
H501 H 0.37068 0.26121 0.53059 0.0
H502 H 0.33674 0.29779 0.61089 0.0
H503 H 0.35447 0.30342 0.54705 0.0
Tb504 Tb 0.81181 0.23267 0.76505 0.0
C505 C 0.79441 0.34089 0.67066 0.0
C506 C 0.82861 0.39172 0.69381 0.0
C507 C 0.82258 0.38773 0.62536 0.0
C508 C 0.8086 0.35861 0.70105 0.0
C509 C 0.80067 0.35561 0.63223 0.0
C510 C 0.83647 0.4058 0.65611 0.0
C511 C 0.76056 0.30722 0.60942 0.0
N512 N 0.77326 0.30982 0.67842 0.0
C513 C 0.75476 0.29389 0.64778 0.0
C514 C 0.78414 0.33795 0.60165 0.0
Tb515 Tb 0.76838 0.28978 0.74392 0.0
N516 N 0.80061 0.34426 0.73716 0.0
C517 C 0.80663 0.36347 0.76524 0.0
C518 C 0.83879 0.41012 0.72426 0.0
C519 C 0.82684 0.39614 0.75986 0.0
H520 H 0.73423 0.27152 0.65151 0.0
H521 H 0.83262 0.41064 0.78292 0.0
H522 H 0.85233 0.43095 0.6502 0.0
H523 H 0.74616 0.294 0.58574 0.0
H524 H 0.79591 0.35362 0.79215 0.0
H525 H 0.76249 0.11947 0.70517 0.0
H526 H 0.85415 0.43555 0.7199 0.0
H527 H 0.82568 0.24446 0.8593 0.0
H528 H 0.79434 0.17753 0.7057 0.0
H529 H 0.81008 0.21307 0.92154 0.0
H530 H 0.82809 0.39914 0.59618 0.0
H531 H 0.73654 0.0858 0.76305 0.0
H532 H 0.72968 0.08123 0.83289 0.0
H533 H 0.78832 0.34834 0.57182 0.0
H534 H 0.74386 0.10649 0.89226 0.0
N535 N 0.7835 0.17812 0.76189 0.0
C536 C 0.78226 0.16349 0.73085 0.0
C537 C 0.74996 0.11152 0.76318 0.0
C538 C 0.75468 0.12568 0.79646 0.0
C539 C 0.76452 0.13042 0.73049 0.0
C540 C 0.77231 0.15933 0.79507 0.0
H541 H 0.77469 0.15521 0.92576 0.0
N542 N 0.79895 0.20556 0.82614 0.0
C543 C 0.80142 0.20161 0.89553 0.0
C544 C 0.78069 0.17341 0.82843 0.0
C545 C 0.81008 0.21953 0.85952 0.0
C546 C 0.7815 0.16898 0.89783 0.0
C547 C 0.77109 0.15438 0.86414 0.0
O548 O 0.85539 0.22793 0.80055 0.0
O549 O 0.814 0.28174 0.73922 0.0
O550 O 0.73746 0.24651 0.7145 0.0
O551 O 0.77465 0.21968 0.71471 0.0
O552 O 0.82964 0.25666 0.70914 0.0
O553 O 0.84536 0.22055 0.74063 0.0
O554 O 0.72481 0.29935 0.71463 0.0
O555 O 0.76667 0.24116 0.77045 0.0
O556 O 0.84103 0.27283 0.79873 0.0
O557 O 0.80813 0.30526 0.79203 0.0
O558 O 0.74952 0.26556 0.79941 0.0
O559 O 0.74166 0.30546 0.77464 0.0
C560 C 0.8266 0.28418 0.70878 0.0
C561 C 0.86833 0.18504 0.78486 0.0
C562 C 0.88228 0.14233 0.7662 0.0
C563 C 0.87935 0.17335 0.75796 0.0
C564 C 0.87393 0.12304 0.80195 0.0
C565 C 0.86027 0.16537 0.82047 0.0
C566 C 0.86304 0.13456 0.82883 0.0
C567 C 0.74621 0.22503 0.70179 0.0
C568 C 0.86335 0.21677 0.77401 0.0
C569 C 0.75185 0.12133 0.86523 0.0
C570 C 0.74365 0.10698 0.83142 0.0
C571 C 0.75342 0.23836 0.80045 0.0
C572 C 0.72065 0.34475 0.73623 0.0
C573 C 0.71273 0.35701 0.76535 0.0
C574 C 0.71526 0.38985 0.76053 0.0
C575 C 0.72563 0.41016 0.72603 0.0
C576 C 0.73038 0.36553 0.70179 0.0
C577 C 0.73296 0.398 0.6969 0.0
C578 C 0.83456 0.29691 0.80821 0.0
C579 C 0.72181 0.31137 0.74378 0.0
H580 H 0.88495 0.18826 0.73019 0.0
H581 H 0.87633 0.09925 0.80947 0.0
H582 H 0.85151 0.17355 0.84172 0.0
H583 H 0.85671 0.11954 0.85629 0.0
H584 H 0.70541 0.3412 0.79211 0.0
H585 H 0.72741 0.43536 0.72117 0.0
H586 H 0.73663 0.35694 0.67888 0.0
H587 H 0.74075 0.41386 0.67039 0.0
Tb588 Tb 0.78145 0.74411 0.71086 0.0
C589 C 0.88473 0.82316 0.8299 0.0
C590 C 0.89672 0.7836 0.88269 0.0
C591 C 0.9393 0.83659 0.86958 0.0
C592 C 0.87488 0.79259 0.85104 0.0
C593 C 0.91683 0.84582 0.83928 0.0
C594 C 0.92925 0.80551 0.89129 0.0
C595 C 0.90109 0.88565 0.79023 0.0
N596 N 0.86212 0.83115 0.80117 0.0
C597 C 0.86949 0.86237 0.78218 0.0
C598 C 0.92502 0.87726 0.81861 0.0
Tb599 Tb 0.81118 0.79104 0.78929 0.0
N600 N 0.8431 0.77241 0.84212 0.0
C601 C 0.83088 0.74357 0.86577 0.0
C602 C 0.88484 0.75333 0.90553 0.0
C603 C 0.8516 0.73344 0.89734 0.0
H604 H 0.85146 0.86938 0.76006 0.0
H605 H 0.84192 0.71021 0.91524 0.0
H606 H 0.94649 0.79895 0.91525 0.0
H607 H 0.90696 0.91007 0.77451 0.0
H608 H 0.80541 0.72762 0.86002 0.0
H609 H 0.75575 0.82859 0.58621 0.0
H610 H 0.9008 0.74548 0.93006 0.0
H611 H 0.7394 0.66593 0.73571 0.0
H612 H 0.79057 0.80873 0.64141 0.0
H613 H 0.68326 0.62661 0.71899 0.0
H614 H 0.96418 0.85355 0.87707 0.0
H615 H 0.69616 0.79569 0.57013 0.0
H616 H 0.64867 0.74318 0.5831 0.0
H617 H 0.94943 0.89538 0.82489 0.0
H618 H 0.62891 0.68787 0.61915 0.0
N619 N 0.75112 0.765 0.65824 0.0
C620 C 0.76473 0.79382 0.63516 0.0
C621 C 0.71134 0.78678 0.5947 0.0
C622 C 0.69811 0.75637 0.61671 0.0
C623 C 0.74499 0.80534 0.60359 0.0
C624 C 0.719 0.74599 0.64841 0.0
H625 H 0.64188 0.64392 0.66939 0.0
N626 N 0.72995 0.70561 0.69663 0.0
C627 C 0.68984 0.65146 0.70458 0.0
C628 C 0.70803 0.71504 0.66828 0.0
C629 C 0.72173 0.67387 0.71389 0.0
C630 C 0.66652 0.66135 0.67669 0.0
C631 C 0.67566 0.69336 0.65765 0.0
O632 O 0.79264 0.70632 0.69566 0.0
O633 O 0.81646 0.75272 0.76451 0.0
O634 O 0.85328 0.80373 0.7568 0.0
O635 O 0.82257 0.79017 0.69749 0.0
O636 O 0.79431 0.70621 0.7543 0.0
O637 O 0.80884 0.75445 0.66391 0.0
O638 O 0.79504 0.8272 0.80001 0.0
O639 O 0.77513 0.78155 0.73615 0.0
O640 O 0.74029 0.72899 0.74603 0.0
O641 O 0.77189 0.7446 0.80425 0.0
O642 O 0.7989 0.82839 0.74437 0.0
O643 O 0.78826 0.78289 0.83971 0.0
C644 C 0.81577 0.72381 0.77846 0.0
C645 C 0.79919 0.71116 0.62939 0.0
C646 C 0.81293 0.68409 0.58465 0.0
C647 C 0.81898 0.69497 0.621 0.0
C648 C 0.78648 0.68921 0.55715 0.0
C649 C 0.77275 0.71564 0.60153 0.0
C650 C 0.76644 0.70465 0.5657 0.0
C651 C 0.85063 0.80574 0.71866 0.0
C652 C 0.80758 0.72466 0.66633 0.0
C653 C 0.654 0.70405 0.62756 0.0
C654 C 0.66522 0.73554 0.60707 0.0
C655 C 0.77638 0.81045 0.72132 0.0
C656 C 0.79401 0.82983 0.86561 0.0
C657 C 0.77086 0.84169 0.87512 0.0
C658 C 0.7797 0.8605 0.9057 0.0
C659 C 0.8123 0.86715 0.92631 0.0
C660 C 0.82604 0.8366 0.88702 0.0
C661 C 0.83508 0.85516 0.91712 0.0
C662 C 0.74402 0.72752 0.78429 0.0
C663 C 0.7846 0.81115 0.83276 0.0
H664 H 0.83963 0.69168 0.64227 0.0
H665 H 0.78112 0.68101 0.52909 0.0
H666 H 0.75727 0.72801 0.60717 0.0
H667 H 0.74608 0.70837 0.54431 0.0
H668 H 0.74594 0.83596 0.85883 0.0
H669 H 0.82057 0.88209 0.94925 0.0
H670 H 0.84413 0.8277 0.88039 0.0
H671 H 0.86001 0.8605 0.93328 0.0
Co672 Co 0.06703 0.97972 0.4571 0.0
Co673 Co 0.08841 0.98751 0.52867 0.0
Co674 Co 1.03578 0.0238 0.49556 0.0
O675 O 0.074 1.01307 0.48656 0.0
H676 H 0.09273 0.03231 0.47964 0.0
O677 O 0.99774 0.0348 0.50525 0.0
Co678 Co 1.00596 0.06584 0.53941 0.0
Co679 Co 0.98538 0.06431 0.4673 0.0
H680 H 0.97833 1.0157 0.51027 0.0
O681 O 0.13251 0.99119 0.53569 0.0
O682 O 0.08878 0.95662 0.50202 0.0
O683 O 0.06016 0.9671 0.5693 0.0
O684 O 1.01974 0.98583 0.53731 0.0
O685 O 0.06737 0.04958 0.53578 0.0
O686 O 1.01082 0.09211 0.57252 0.0
O687 O 0.96745 0.04641 0.56158 0.0
O688 O 0.04771 0.08979 0.52174 0.0
O689 O 0.05154 0.06168 0.45339 0.0
O690 O 1.01432 0.08662 0.42841 0.0
O691 O 0.98375 0.09141 0.4985 0.0
O692 O 0.94147 0.06029 0.45941 0.0
C693 C 0.09285 0.97133 0.42036 0.0
C694 C 1.00166 0.96802 0.45528 0.0
C695 C 1.03054 0.9676 0.56524 0.0
C696 C 0.12071 0.96766 0.51493 0.0
C697 C 0.98189 0.07123 0.5805 0.0
C698 C 0.0709 0.07865 0.5379 0.0
C699 C 0.04201 0.08281 0.42871 0.0
C700 C 0.95203 0.08056 0.48454 0.0
O701 O 0.06361 0.9508 0.428 0.0
O702 O 0.10604 0.99769 0.43653 0.0
O703 O 1.00451 0.99736 0.45538 0.0
O704 O 1.02465 0.95735 0.47382 0.0
Co705 Co 0.58097 0.95988 0.99827 0.0
Co706 Co 0.58329 0.97095 0.06534 0.0
Co707 Co 0.53884 1.01315 0.00229 0.0
O708 O 0.57933 0.99702 0.01765 0.0
H709 H 0.60011 1.01511 0.01532 0.0
O710 O 0.4985 0.02966 0.98645 0.0
Co711 Co 0.49726 0.06688 0.00632 0.0
Co712 Co 0.49568 0.05676 0.93878 0.0
H713 H 0.4776 1.01173 0.98833 0.0
O714 O 0.6246 0.96938 0.09389 0.0
O715 O 0.59088 0.93553 0.0525 0.0
O716 O 0.54321 0.95647 0.08902 0.0
O717 O 0.51197 0.98156 0.04541 0.0
O718 O 0.5621 0.04656 0.03802 0.0
O719 O 0.49323 0.0979 0.02715 0.0
O720 O 0.45252 0.05219 0.0108 0.0
O721 O 0.5444 0.0868 0.00586 0.0
O722 O 0.56573 0.04462 0.95947 0.0
O723 O 0.5364 0.0713 0.91521 0.0
O724 O 0.4877 0.09191 0.95219 0.0
O725 O 0.45455 0.05879 0.90981 0.0
C726 C 0.61684 0.94779 0.97979 0.0
C727 C 0.51161 0.94922 0.97611 0.0
C728 C 0.51573 0.96177 0.07669 0.0
C729 C 0.61737 0.94303 0.07907 0.0
C730 C 0.46195 0.07919 0.02547 0.0
C731 C 0.5656 0.07672 0.03031 0.0
C732 C 0.56323 0.06491 0.92834 0.0
C733 C 0.46141 0.08476 0.92527 0.0
O734 O 0.58564 0.92877 0.97798 0.0
O735 O 0.62566 0.97502 0.99378 0.0
O736 O 0.51562 0.97946 0.96683 0.0
O737 O 0.53377 0.93942 0.99906 0.0
Co738 Co 0.07598 0.45792 1.00117 0.0
Co739 Co 0.08074 0.47342 0.0669 0.0
Co740 Co 0.04039 0.51699 1.00129 0.0
O741 O 0.07895 0.49817 0.01748 0.0
H742 H 0.10049 0.5149 0.01418 0.0
O743 O 1.0022 0.53636 0.98507 0.0
Co744 Co 1.00569 0.57601 0.00372 0.0
Co745 Co 1.00131 0.56338 0.93736 0.0
H746 H 0.98048 0.51974 0.9875 0.0
O747 O 0.12142 0.47108 0.09572 0.0
O748 O 0.08601 0.43585 0.05686 0.0
O749 O 0.04018 0.46076 0.0899 0.0
O750 O 1.01137 0.48602 0.04305 0.0
O751 O 0.06443 0.5497 0.03755 0.0
O752 O 1.0063 0.60947 0.0234 0.0
O753 O 0.96172 0.5653 0.01039 0.0
O754 O 0.05295 0.59217 1.00129 0.0
O755 O 0.06943 0.54788 0.95941 0.0
O756 O 0.0422 0.5765 0.9152 0.0
O757 O 0.99541 0.60013 0.94912 0.0
O758 O 0.96103 0.56612 0.90816 0.0
C759 C 0.10752 0.439 0.98506 0.0
C760 C 1.01064 0.45317 0.97526 0.0
C761 C 1.01324 0.46639 0.07506 0.0
C762 C 0.1132 0.4439 0.08237 0.0
C763 C 0.97447 0.59322 0.02349 0.0
C764 C 0.07178 0.58037 0.02763 0.0
C765 C 0.06838 0.56911 0.92875 0.0
C766 C 0.96874 0.59271 0.92266 0.0
O767 O 0.07558 0.42314 0.98468 0.0
O768 O 0.12003 0.46814 0.99493 0.0
O769 O 1.01623 0.48372 0.96542 0.0
O770 O 1.0292 0.44259 0.00331 0.0
Co771 Co 0.57309 0.48777 0.93751 0.0
Co772 Co 0.54629 0.45222 0.99348 0.0
Co773 Co 0.53784 0.51567 0.99856 0.0
O774 O 0.56927 0.49557 0.9885 0.0
H775 H 0.59021 0.50054 0.00584 0.0
O776 O 0.50562 0.53451 0.00875 0.0
Co777 Co 0.50058 0.53976 0.0602 0.0
Co778 Co 0.52477 0.57794 0.00324 0.0
H779 H 0.48442 0.52819 0.99225 0.0
O780 O 0.57107 0.4279 0.01833 0.0
O781 O 0.55622 0.43896 0.95321 0.0
O782 O 0.50268 0.43656 0.01162 0.0
O783 O 0.51987 0.47982 0.04148 0.0
O784 O 0.57515 0.53902 0.03741 0.0
O785 O 0.49231 0.54365 0.10556 0.0
O786 O 0.4561 0.53486 0.05067 0.0
O787 O 0.5457 0.54641 0.07728 0.0
O788 O 0.55617 0.55225 0.95584 0.0
O789 O 0.56748 0.59586 0.98402 0.0
O790 O 0.51317 0.58805 0.0445 0.0
O791 O 0.4958 0.59846 0.9799 0.0
C792 C 0.60964 0.48374 0.91125 0.0
C793 C 0.5018 0.48465 0.92783 0.0
C794 C 0.50056 0.45077 0.0381 0.0
C795 C 0.56891 0.42246 0.98305 0.0
C796 C 0.46245 0.54008 0.0869 0.0
C797 C 0.57327 0.54745 0.06895 0.0
C798 C 0.5722 0.58235 0.95843 0.0
C799 C 0.49589 0.60104 0.01585 0.0
O800 O 0.58013 0.48205 0.8928 0.0
O801 O 0.61676 0.48887 0.94757 0.0
O802 O 0.50041 0.49261 0.9598 0.0
O803 O 0.52888 0.48461 0.91944 0.0
Co804 Co 0.10023 0.47524 0.54904 0.0
Co805 Co 0.08336 0.4825 0.47469 0.0
Co806 Co 1.03807 0.51509 0.50492 0.0
O807 O 0.05829 0.47832 0.51401 0.0
H808 H 0.0407 0.45734 0.51545 0.0
O809 O 1.018 0.55163 0.4958 0.0
Co810 Co 0.97401 0.55184 0.465 0.0
Co811 Co 0.99806 0.55013 0.53838 0.0
H812 H 1.03508 0.57269 0.49122 0.0
O813 O 0.08536 0.44623 0.46021 0.0
O814 O 0.12214 0.47756 0.50325 0.0
O815 O 0.09748 0.52338 0.44256 0.0
O816 O 0.0705 0.54717 0.46742 0.0
O817 O 1.005 0.49536 0.46093 0.0
O818 O 0.93514 0.5557 0.43588 0.0
O819 O 0.98104 0.59662 0.45325 0.0
O820 O 0.95994 0.50517 0.47063 0.0
O821 O 1.00536 0.4836 0.54243 0.0
O822 O 0.99075 0.51189 0.57637 0.0
O823 O 0.95612 0.55063 0.51359 0.0
O824 O 0.99466 0.58707 0.54974 0.0
C825 C 0.12188 0.43857 0.57926 0.0
C826 C 0.10272 0.54059 0.55437 0.0
C827 C 0.09121 0.54824 0.44517 0.0
C828 C 0.11393 0.45404 0.48255 0.0
C829 C 0.95019 0.58685 0.43525 0.0
C830 C 0.97314 0.48904 0.45686 0.0
C831 C 0.99091 0.48509 0.57019 0.0
C832 C 0.96452 0.57578 0.53161 0.0
O833 O 0.13692 0.46935 0.58123 0.0
O834 O 0.0919 0.42997 0.55879 0.0
O835 O 0.07098 0.53506 0.54877 0.0
O836 O 0.1158 0.52168 0.54606 0.0
Co837 Co 0.60121 0.97755 0.54257 0.0
Co838 Co 0.59052 0.9931 0.47107 0.0
Co839 Co 0.53722 1.01605 0.49975 0.0
O840 O 0.56005 0.9816 0.50593 0.0
H841 H 0.54354 0.96045 0.50269 0.0
O842 O 0.51523 0.05094 0.49365 0.0
Co843 Co 0.47387 0.05471 0.45874 0.0
Co844 Co 0.48793 0.0423 0.53108 0.0
H845 H 0.53214 0.07216 0.495 0.0
O846 O 0.58757 0.96173 0.44516 0.0
O847 O 0.62478 0.97941 0.49759 0.0
O848 O 0.60684 0.03693 0.44711 0.0
O849 O 0.56601 0.05081 0.46021 0.0
O850 O 0.50283 0.99511 0.45729 0.0
O851 O 0.43759 0.06053 0.42674 0.0
O852 O 0.48271 0.1002 0.4484 0.0
O853 O 0.45786 1.00788 0.4618 0.0
O854 O 0.50788 0.98152 0.53878 0.0
O855 O 0.47226 0.99951 0.55731 0.0
O856 O 0.45234 0.05416 0.50481 0.0
O857 O 0.49145 0.07561 0.55402 0.0
C858 C 0.62258 0.94063 0.57371 0.0
C859 C 0.60273 0.04305 0.54857 0.0
C860 C 0.59245 0.0574 0.44408 0.0
C861 C 0.61357 0.96049 0.47029 0.0
C862 C 0.45265 0.09137 0.42811 0.0
C863 C 0.47095 0.98896 0.45328 0.0
C864 C 0.48351 0.97718 0.55752 0.0
C865 C 0.46429 0.07488 0.53007 0.0
O866 O 0.63698 0.97141 0.57596 0.0
O867 O 0.59308 0.93192 0.55214 0.0
O868 O 0.57086 0.03667 0.54261 0.0
O869 O 0.61679 0.02456 0.54086 0.0
H870 H 0.19059 0.24735 0.32116 0.0
H871 H 0.18789 0.1698 0.26428 0.0
H872 H 0.14233 0.2107 0.35306 0.0
H873 H 0.13931 0.1334 0.29556 0.0
H874 H 0.04032 0.14014 0.38426 0.0
H875 H 0.08062 0.17668 0.34085 0.0
H876 H 0.13535 0.10992 0.36609 0.0
H877 H 0.09532 0.07345 0.4092 0.0
C878 C 0.1793 0.22266 0.31489 0.0
C879 C 0.19295 0.21145 0.29011 0.0
C880 C 0.15155 0.20178 0.33292 0.0
C881 C 0.1372 0.16923 0.32681 0.0
C882 C 0.15004 0.15836 0.30087 0.0
C883 C 0.17761 0.17932 0.28261 0.0
C884 C 0.06076 0.13312 0.3802 0.0
C885 C 0.06478 0.10403 0.40039 0.0
C886 C 0.08383 0.15408 0.35549 0.0
C887 C 0.11102 0.14607 0.35015 0.0
C888 C 0.1144 0.11652 0.36934 0.0
C889 C 0.09162 0.09578 0.3943 0.0
H890 H 0.77059 0.10761 0.46578 0.0
H891 H 0.84828 0.19982 0.43812 0.0
H892 H 0.81071 0.08949 0.51312 0.0
H893 H 0.88921 0.17988 0.48145 0.0
H894 H 0.96353 0.13361 0.5199 0.0
H895 H 0.92107 0.1547 0.52894 0.0
H896 H 0.84326 0.07087 0.48624 0.0
H897 H 0.88501 0.05005 0.47863 0.0
C898 C 0.79594 0.12451 0.47024 0.0
C899 C 0.80669 0.15436 0.44572 0.0
C900 C 0.81918 0.11387 0.49734 0.0
C901 C 0.85364 0.13206 0.49869 0.0
C902 C 0.86311 0.16444 0.48021 0.0
C903 C 0.83962 0.17567 0.4544 0.0
C904 C 0.93723 0.11956 0.51335 0.0
C905 C 0.92747 0.09098 0.49688 0.0
C906 C 0.9129 0.13154 0.51863 0.0
C907 C 0.87859 0.11507 0.50741 0.0
C908 C 0.86919 0.08455 0.49537 0.0
C909 C 0.89331 0.07275 0.49012 0.0
H910 H 0.86776 0.87588 0.25928 0.0
H911 H 0.83659 0.81252 0.36524 0.0
H912 H 0.91014 0.91531 0.29865 0.0
H913 H 0.87796 0.85138 0.40347 0.0
H914 H 0.98441 0.90322 0.45591 0.0
H915 H 0.94157 0.86917 0.41241 0.0
H916 H 0.91457 0.95182 0.35184 0.0
H917 H 0.95784 0.98638 0.39575 0.0
C918 C 0.86986 0.87028 0.29069 0.0
C919 C 0.84926 0.84052 0.30887 0.0
C920 C 0.89387 0.89295 0.31318 0.0
C921 C 0.89763 0.88608 0.3541 0.0
C922 C 0.8761 0.85704 0.37202 0.0
C923 C 0.85226 0.8347 0.34983 0.0
C924 C 0.96936 0.91425 0.43346 0.0
C925 C 0.97439 0.94748 0.42953 0.0
C926 C 0.94481 0.89472 0.40851 0.0
C927 C 0.92474 0.90787 0.37879 0.0
C928 C 0.92988 0.94116 0.37437 0.0
C929 C 0.95436 0.96079 0.39974 0.0
H930 H 0.21974 0.96316 0.26099 0.0
H931 H 0.16615 0.86376 0.3062 0.0
H932 H 0.19299 0.98192 0.30163 0.0
H933 H 0.14073 0.88247 0.34778 0.0
H934 H 0.06821 0.92372 0.3749 0.0
H935 H 0.0983 0.90795 0.33593 0.0
H936 H 0.18968 0.98421 0.3704 0.0
H937 H 0.15918 1.00051 0.40932 0.0
C938 C 0.20243 0.94535 0.27973 0.0
C939 C 0.19493 0.91196 0.28019 0.0
C940 C 0.18743 0.9561 0.30329 0.0
C941 C 0.16457 0.93366 0.32764 0.0
C942 C 0.15785 0.90036 0.32887 0.0
C943 C 0.17276 0.88964 0.30537 0.0
C944 C 0.09471 0.93726 0.37417 0.0
C945 C 0.11134 0.96336 0.39522 0.0
C946 C 0.11201 0.92806 0.352 0.0
C947 C 0.14645 0.94458 0.35045 0.0
C948 C 0.16309 0.97113 0.3709 0.0
C949 C 0.14566 0.98045 0.39315 0.0
H950 H 0.29612 0.91476 0.5575 0.0
H951 H 0.21786 0.86473 0.63168 0.0
H952 H 0.25458 0.92904 0.50685 0.0
H953 H 0.17731 0.87628 0.58061 0.0
H954 H 0.10578 0.90534 0.50255 0.0
H955 H 0.14631 0.87735 0.51114 0.0
H956 H 0.22765 0.9685 0.51947 0.0
H957 H 0.18744 0.99617 0.5113 0.0
C958 C 0.27026 0.90599 0.56294 0.0
C959 C 0.26103 0.88926 0.59964 0.0
C960 C 0.2464 0.91363 0.53349 0.0
C961 C 0.21277 0.90378 0.53981 0.0
C962 C 0.20292 0.88379 0.5745 0.0
C963 C 0.22668 0.87711 0.60419 0.0
C964 C 0.13232 0.91946 0.50476 0.0
C965 C 0.14369 0.95254 0.50812 0.0
C966 C 0.15547 0.90352 0.50929 0.0
C967 C 0.19005 0.92067 0.51684 0.0
C968 C 0.20119 0.9546 0.51385 0.0
C969 C 0.17814 0.97038 0.50988 0.0
H970 H 0.1796 0.1845 0.72955 0.0
H971 H 0.2575 0.17977 0.67375 0.0
H972 H 0.13703 0.1501 0.6856 0.0
H973 H 0.215 0.14564 0.62938 0.0
H974 H 0.12569 0.06335 0.57645 0.0
H975 H 0.16821 0.09105 0.62622 0.0
H976 H 0.11977 0.16199 0.61298 0.0
H977 H 0.07749 0.13466 0.56319 0.0
C978 C 0.18764 0.17511 0.70892 0.0
C979 C 0.22178 0.18427 0.7055 0.0
C980 C 0.16329 0.15591 0.68326 0.0
C981 C 0.17273 0.14541 0.65389 0.0
C982 C 0.20699 0.15319 0.65186 0.0
C983 C 0.23127 0.1727 0.67721 0.0
C984 C 0.12421 0.08496 0.58402 0.0
C985 C 0.0981 0.09671 0.56591 0.0
C986 C 0.14853 0.10076 0.61253 0.0
C987 C 0.147 0.12838 0.62382 0.0
C988 C 0.12119 0.14037 0.60538 0.0
C989 C 0.09715 0.12485 0.57658 0.0
H990 H 0.93261 0.17687 0.7217 0.0
H991 H 0.86005 0.08094 0.7464 0.0
H992 H 0.95393 0.15772 0.67636 0.0
H993 H 0.88262 0.06133 0.7021 0.0
H994 H 1.01237 0.10779 0.63792 0.0
H995 H 0.98663 0.12322 0.68221 0.0
H996 H 0.88846 0.06547 0.63257 0.0
H997 H 0.91464 0.04928 0.58828 0.0
C998 C 0.92104 0.15171 0.71732 0.0
C999 C 0.89466 0.13046 0.73785 0.0
C1000 C 0.93357 0.1406 0.69165 0.0
C1001 C 0.92025 0.10788 0.68596 0.0
C1002 C 0.89336 0.08669 0.70576 0.0
C1003 C 0.88072 0.09786 0.73148 0.0
C1004 C 0.98528 0.09814 0.63654 0.0
C1005 C 0.9655 0.07741 0.60952 0.0
C1006 C 0.9705 0.1072 0.66179 0.0
C1007 C 0.93546 0.09604 0.66051 0.0
C1008 C 0.91556 0.07438 0.63435 0.0
C1009 C 0.93049 0.06508 0.60907 0.0
H1010 H 0.91526 0.83696 0.75021 0.0
H1011 H 0.85077 0.82488 0.64045 0.0
H1012 H 0.96077 0.87688 0.71583 0.0
H1013 H 0.89608 0.86411 0.60653 0.0
H1014 H 0.96609 0.96346 0.56516 0.0
H1015 H 0.92476 0.92413 0.60445 0.0
H1016 H 0.99841 0.88109 0.66518 0.0
H1017 H 0.04042 0.92083 0.62564 0.0
C1018 C 0.91075 0.84277 0.71886 0.0
C1019 C 0.87912 0.82818 0.69819 0.0
C1020 C 0.93689 0.8654 0.69922 0.0
C1021 C 0.93176 0.87387 0.65861 0.0
C1022 C 0.90053 0.85849 0.63794 0.0
C1023 C 0.87457 0.83587 0.65744 0.0
C1024 C 0.97375 0.9458 0.58695 0.0
C1025 C 1.00658 0.94512 0.59187 0.0
C1026 C 0.94993 0.92317 0.60938 0.0
C1027 C 0.95826 0.8993 0.63744 0.0
C1028 C 0.99137 0.89929 0.6437 0.0
C1029 C 1.01534 0.92196 0.621 0.0
H1030 H 0.37454 0.19971 0.10116 0.0
H1031 H 0.28962 0.11288 0.08366 0.0
H1032 H 0.41086 0.17582 0.08317 0.0
H1033 H 0.32599 0.08814 0.06728 0.0
H1034 H 0.39423 0.06517 1.00112 0.0
H1035 H 0.35665 0.08733 0.02034 0.0
H1036 H 0.43795 0.13845 0.10152 0.0
H1037 H 0.47541 0.11773 0.0807 0.0
C1038 C 0.36376 0.17522 0.09417 0.0
C1039 C 0.3292 0.15824 0.09389 0.0
C1040 C 0.38462 0.16134 0.08391 0.0
C1041 C 0.37164 0.12978 0.07368 0.0
C1042 C 0.33704 0.11263 0.07414 0.0
C1043 C 0.31613 0.12674 0.08385 0.0
C1044 C 0.40385 0.08094 0.02327 0.0
C1045 C 0.4378 0.08974 0.03928 0.0
C1046 C 0.3823 0.09366 0.03447 0.0
C1047 C 0.39408 0.11509 0.06244 0.0
C1048 C 0.42789 0.12287 0.0792 0.0
C1049 C 0.44944 0.11068 0.06751 0.0
H1050 H 0.86159 0.34668 0.2302 0.0
H1051 H 0.82058 0.31675 0.11751 0.0
H1052 H 0.91041 0.38761 0.20279 0.0
H1053 H 0.86942 0.35769 0.0898 0.0
H1054 H 1.00951 0.43094 0.14805 0.0
H1055 H 0.96016 0.39257 0.1761 0.0
H1056 H 0.89675 0.4167 0.0732 0.0
H1057 H 0.94653 0.45506 0.04463 0.0
C1058 C 0.86323 0.34852 0.19966 0.0
C1059 C 0.83754 0.32783 0.17627 0.0
C1060 C 0.89124 0.37211 0.18381 0.0
C1061 C 0.89409 0.37617 0.14391 0.0
C1062 C 0.86812 0.35563 0.1205 0.0
C1063 C 0.84026 0.33188 0.13645 0.0
C1064 C 0.98508 0.42849 0.13141 0.0
C1065 C 0.98228 0.44639 0.09391 0.0
C1066 C 0.95663 0.40642 0.14769 0.0
C1067 C 0.92426 0.40123 0.12702 0.0
C1068 C 0.92125 0.41966 0.08988 0.0
C1069 C 0.94983 0.44202 0.07362 0.0
H1070 H 0.67721 0.7721 0.18451 0.0
H1071 H 0.76915 0.85121 0.20613 0.0
H1072 H 0.65016 0.80988 0.14719 0.0
H1073 H 0.74223 0.8897 0.16772 0.0
H1074 H 0.67236 0.95214 0.13601 0.0
H1075 H 0.70337 0.91588 0.1667 0.0
H1076 H 0.64073 0.84578 0.09182 0.0
H1077 H 0.6092 0.88215 0.06146 0.0
C1078 C 0.69202 0.7977 0.18063 0.0
C1079 C 0.72575 0.80815 0.1982 0.0
C1080 C 0.67635 0.81966 0.15882 0.0
C1081 C 0.69342 0.85352 0.15377 0.0
C1082 C 0.72758 0.86409 0.17087 0.0
C1083 C 0.74341 0.84188 0.19268 0.0
C1084 C 0.66506 0.92905 0.12574 0.0
C1085 C 0.63762 0.92044 0.09603 0.0
C1086 C 0.68329 0.90806 0.14344 0.0
C1087 C 0.67506 0.87718 0.13251 0.0
C1088 C 0.648 0.86883 0.10211 0.0
C1089 C 0.62977 0.88995 0.08427 0.0
H1090 H 0.22038 0.74913 0.12311 0.0
H1091 H 0.23558 0.66717 0.2019 0.0
H1092 H 0.17802 0.71283 0.08177 0.0
H1093 H 0.19641 0.63091 0.15876 0.0
H1094 H 0.09582 0.56965 0.10406 0.0
H1095 H 0.14096 0.60665 0.14192 0.0
H1096 H 0.16028 0.67761 0.03805 0.0
H1097 H 0.11297 0.64106 1.00107 0.0
C1098 C 0.21436 0.72334 0.13193 0.0
C1099 C 0.22943 0.71113 0.16754 0.0
C1100 C 0.19061 0.70231 0.10755 0.0
C1101 C 0.18249 0.66841 0.11725 0.0
C1102 C 0.20028 0.65655 0.15102 0.0
C1103 C 0.22312 0.67753 0.1759 0.0
C1104 C 0.10983 0.59315 0.08937 0.0
C1105 C 0.10082 0.60252 0.04969 0.0
C1106 C 0.13611 0.61445 0.11102 0.0
C1107 C 0.15491 0.64546 0.09337 0.0
C1108 C 0.14624 0.6544 0.0532 0.0
C1109 C 0.11923 0.63336 0.03177 0.0
H1110 H 0.38612 0.77757 0.87442 0.0
H1111 H 0.33003 0.84276 0.83353 0.0
H1112 H 0.42662 0.81651 0.91422 0.0
H1113 H 0.36896 0.8807 0.87574 0.0
H1114 H 0.46903 0.95926 0.91047 0.0
H1115 H 0.42346 0.91861 0.87726 0.0
H1116 H 0.44007 0.84324 0.96821 0.0
H1117 H 0.48664 0.88387 1.00034 0.0
C1118 C 0.38238 0.80019 0.87396 0.0
C1119 C 0.35555 0.80751 0.84957 0.0
C1120 C 0.4053 0.82238 0.89749 0.0
C1121 C 0.40159 0.85226 0.89786 0.0
C1122 C 0.37331 0.85847 0.87548 0.0
C1123 C 0.35065 0.83643 0.85159 0.0
C1124 C 0.46278 0.93404 0.92352 0.0
C1125 C 0.48175 0.92483 0.95783 0.0
C1126 C 0.43641 0.91062 0.90459 0.0
C1127 C 0.42797 0.87739 0.91978 0.0
C1128 C 0.44618 0.86841 0.95502 0.0
C1129 C 0.47284 0.89178 0.97363 0.0
H1130 H 0.19644 0.34498 0.86904 0.0
H1131 H 0.21262 0.30586 0.99064 0.0
H1132 H 0.17694 0.38416 0.8872 0.0
H1133 H 0.19131 0.3438 0.00802 0.0
H1134 H 0.09727 0.37497 0.00291 0.0
H1135 H 0.12881 0.3447 0.98813 0.0
H1136 H 0.19667 0.43328 0.93323 0.0
H1137 H 0.1654 0.46426 0.94953 0.0
C1138 C 0.19648 0.34496 0.89961 0.0
C1139 C 0.20572 0.32163 0.9282 0.0
C1140 C 0.18522 0.36747 0.90995 0.0
C1141 C 0.1825 0.36691 0.94899 0.0
C1142 C 0.19301 0.34464 0.97768 0.0
C1143 C 0.20483 0.3226 0.96752 0.0
C1144 C 0.11914 0.38819 0.98808 0.0
C1145 C 0.12886 0.42203 0.97739 0.0
C1146 C 0.13726 0.3708 0.97973 0.0
C1147 C 0.16516 0.3866 0.95954 0.0
C1148 C 0.17518 0.42053 0.94882 0.0
C1149 C 0.15745 0.43822 0.95826 0.0
H1150 H 0.73939 0.22617 0.87444 0.0
H1151 H 0.71237 0.18331 0.7691 0.0
H1152 H 0.69624 0.17976 0.90511 0.0
H1153 H 0.6686 0.13696 0.79949 0.0
H1154 H 0.5651 0.09396 0.85241 0.0
H1155 H 0.61365 0.13158 0.82167 0.0
H1156 H 0.67866 0.11848 0.92804 0.0
H1157 H 0.62994 0.08035 0.95888 0.0
C1158 C 0.72454 0.2065 0.85808 0.0
C1159 C 0.72976 0.2081 0.81967 0.0
C1160 C 0.69988 0.17984 0.87568 0.0
C1161 C 0.67895 0.15451 0.85488 0.0
C1162 C 0.68425 0.15604 0.81637 0.0
C1163 C 0.70942 0.1825 0.79899 0.0
C1164 C 0.58979 0.0986 0.86913 0.0
C1165 C 0.59348 0.08409 0.90824 0.0
C1166 C 0.61769 0.12011 0.85138 0.0
C1167 C 0.65009 0.12823 0.87238 0.0
C1168 C 0.65402 0.11291 0.9111 0.0
C1169 C 0.62611 0.09088 0.92869 0.0
H1170 H 0.88655 0.75068 0.79841 0.0
H1171 H 0.80149 0.66442 0.82123 0.0
H1172 H 0.92443 0.72173 0.83597 0.0
H1173 H 0.83848 0.63591 0.85814 0.0
H1174 H 0.90893 0.5788 0.87451 0.0
H1175 H 0.87547 0.61253 0.84422 0.0
H1176 H 0.94652 0.69219 0.90015 0.0
H1177 H 0.98072 0.65774 0.93106 0.0
C1178 C 0.87577 0.72588 0.81208 0.0
C1179 C 0.84053 0.71021 0.80677 0.0
C1180 C 0.8976 0.70905 0.83364 0.0
C1181 C 0.88505 0.67581 0.85001 0.0
C1182 C 0.84978 0.66098 0.84565 0.0
C1183 C 0.82826 0.67763 0.82455 0.0
C1184 C 0.91776 0.60343 0.88082 0.0
C1185 C 0.94804 0.61498 0.90574 0.0
C1186 C 0.89814 0.62304 0.86331 0.0
C1187 C 0.90759 0.65558 0.86938 0.0
C1188 C 0.93805 0.66749 0.8942 0.0
C1189 C 0.95773 0.64752 0.91228 0.0
H1190 H 0.28145 0.37418 0.18488 0.0
H1191 H 0.19702 0.28633 0.20274 0.0
H1192 H 0.24436 0.40253 0.14803 0.0
H1193 H 0.15894 0.31517 0.16567 0.0
H1194 H 0.10136 0.3789 0.07443 0.0
H1195 H 0.13626 0.345 0.10436 0.0
H1196 H 0.20694 0.42493 0.16028 0.0
H1197 H 0.17308 0.45824 0.13032 0.0
C1198 C 0.25479 0.36064 0.1805 0.0
C1199 C 0.24273 0.32761 0.19667 0.0
C1200 C 0.23318 0.37718 0.1595 0.0
C1201 C 0.19798 0.36184 0.15398 0.0
C1202 C 0.18569 0.32825 0.16889 0.0
C1203 C 0.20764 0.31149 0.19016 0.0
C1204 C 0.12452 0.38932 0.09283 0.0
C1205 C 0.13406 0.42185 0.09931 0.0
C1206 C 0.14457 0.36966 0.11042 0.0
C1207 C 0.17515 0.38181 0.13495 0.0
C1208 C 0.1843 0.41427 0.14123 0.0
C1209 C 0.16441 0.43363 0.12398 0.0
H1210 H 0.21591 0.69479 0.77259 0.0
H1211 H 0.273 0.69512 0.88677 0.0
H1212 H 0.16611 0.65645 0.79992 0.0
H1213 H 0.22296 0.65713 0.91477 0.0
H1214 H 0.13317 0.5676 0.95038 0.0
H1215 H 0.18393 0.60305 0.92172 0.0
H1216 H 0.12499 0.6518 0.83722 0.0
H1217 H 0.0747 0.61599 0.86459 0.0
C1218 C 0.2177 0.68706 0.80367 0.0
C1219 C 0.24827 0.69873 0.82753 0.0
C1220 C 0.18903 0.66493 0.81954 0.0
C1221 C 0.19005 0.65355 0.85987 0.0
C1222 C 0.22096 0.6649 0.88363 0.0
C1223 C 0.24966 0.68699 0.86764 0.0
C1224 C 0.13099 0.58555 0.92532 0.0
C1225 C 0.09949 0.58853 0.90988 0.0
C1226 C 0.16024 0.60623 0.90906 0.0
C1227 C 0.15891 0.63057 0.87692 0.0
C1228 C 0.12731 0.63315 0.86135 0.0
C1229 C 0.09823 0.61251 0.87738 0.0
H1230 H 0.30712 0.17536 0.80222 0.0
H1231 H 0.39939 0.25502 0.81983 0.0
H1232 H 0.33507 0.13732 0.83956 0.0
H1233 H 0.42737 0.21766 0.85626 0.0
H1234 H 0.47007 0.14616 0.9421 0.0
H1235 H 0.43816 0.18232 0.91207 0.0
H1236 H 0.37386 0.11105 0.83949 0.0
H1237 H 0.40535 0.07509 0.86972 0.0
C1238 C 0.33318 0.18493 0.81451 0.0
C1239 C 0.35058 0.21871 0.80821 0.0
C1240 C 0.34959 0.16296 0.83574 0.0
C1241 C 0.3841 0.17378 0.85158 0.0
C1242 C 0.40096 0.20767 0.84562 0.0
C1243 C 0.38474 0.22939 0.82431 0.0
C1244 C 0.44906 0.13805 0.91987 0.0
C1245 C 0.44093 0.1073 0.90862 0.0
C1246 C 0.4306 0.15906 0.90221 0.0
C1247 C 0.40291 0.15033 0.87255 0.0
C1248 C 0.39442 0.11921 0.86215 0.0
C1249 C 0.41293 0.09837 0.87959 0.0
H1250 H 0.8251 0.33745 0.84947 0.0
H1251 H 0.90073 0.3027 0.83017 0.0
H1252 H 0.86724 0.37537 0.88961 0.0
H1253 H 0.94276 0.33998 0.87165 0.0
H1254 H 0.96195 0.46454 0.91759 0.0
H1255 H 0.91903 0.42557 0.87881 0.0
H1256 H 0.95571 0.34949 0.94219 0.0
H1257 H 0.99846 0.38815 0.98099 0.0
C1258 C 0.85076 0.33809 0.85343 0.0
C1259 C 0.85965 0.31759 0.83571 0.0
C1260 C 0.87487 0.35972 0.87666 0.0
C1261 C 0.90837 0.36092 0.88343 0.0
C1262 C 0.91709 0.33956 0.867 0.0
C1263 C 0.89301 0.31818 0.84329 0.0
C1264 C 0.9608 0.43949 0.92337 0.0
C1265 C 0.98372 0.42956 0.95242 0.0
C1266 C 0.93614 0.41716 0.90125 0.0
C1267 C 0.9341 0.3845 0.90741 0.0
C1268 C 0.95689 0.37455 0.93651 0.0
C1269 C 0.98126 0.39674 0.95889 0.0
H1270 H 0.73156 0.88203 0.85694 0.0
H1271 H 0.77265 0.86895 0.97823 0.0
H1272 H 0.69324 0.90424 0.87399 0.0
H1273 H 0.73521 0.89232 0.99473 0.0
H1274 H 0.68525 0.96673 1.00156 0.0
H1275 H 0.72492 0.94624 0.98339 0.0
H1276 H 0.64396 0.8844 0.91192 0.0
H1277 H 0.60453 0.9045 0.93024 0.0
C1278 C 0.73241 0.88361 0.88724 0.0
C1279 C 0.75553 0.8736 0.91605 0.0
C1280 C 0.71051 0.8966 0.89697 0.0
C1281 C 0.71132 0.90032 0.9357 0.0
C1282 C 0.73433 0.89037 0.96452 0.0
C1283 C 0.7559 0.87698 0.95492 0.0
C1284 C 0.67605 0.949 0.9817 0.0
C1285 C 0.64174 0.93735 0.96728 0.0
C1286 C 0.69869 0.93707 0.97152 0.0
C1287 C 0.68762 0.91368 0.94613 0.0
C1288 C 0.65342 0.90259 0.9312 0.0
C1289 C 0.63078 0.91405 0.94188 0.0
H1290 H 0.85381 0.71026 0.02336 0.0
H1291 H 0.89681 0.69701 0.14374 0.0
H1292 H 0.87727 0.67259 0.00886 0.0
H1293 H 0.91932 0.65867 0.12945 0.0
H1294 H 0.99526 0.63529 0.07562 0.0
H1295 H 0.96465 0.66486 0.09368 0.0
H1296 H 0.87614 0.61521 0.01986 0.0
H1297 H 0.90728 0.58532 1.0015 0.0
C1298 C 0.86803 0.69915 0.04684 0.0
C1299 C 0.87365 0.70704 0.08471 0.0
C1300 C 0.88114 0.6772 0.03858 0.0
C1301 C 0.90036 0.66266 0.06791 0.0
C1302 C 0.90495 0.66967 0.10602 0.0
C1303 C 0.89175 0.69148 0.11432 0.0
C1304 C 0.96913 0.63029 0.06354 0.0
C1305 C 0.95369 0.60785 0.03719 0.0
C1306 C 0.95147 0.64717 0.07412 0.0
C1307 C 0.91785 0.64243 0.05838 0.0
C1308 C 0.90207 0.61953 0.03244 0.0
C1309 C 0.91975 0.60219 0.02219 0.0
H1310 H 0.33274 0.80977 0.15114 0.0
H1311 H 0.39074 0.84505 0.25644 0.0
H1312 H 0.37352 0.85314 0.11258 0.0
H1313 H 0.43039 0.88882 0.21861 0.0
H1314 H 0.5185 0.92878 0.15017 0.0
H1315 H 0.47313 0.89153 0.18475 0.0
H1316 H 0.40097 0.91171 0.08946 0.0
H1317 H 0.44731 0.94898 0.05363 0.0
C1318 C 0.35364 0.82741 0.16586 0.0
C1319 C 0.35824 0.82457 0.2067 0.0
C1320 C 0.37706 0.85224 0.14386 0.0
C1321 C 0.40561 0.8745 0.16237 0.0
C1322 C 0.40924 0.87195 0.2032 0.0
C1323 C 0.3863 0.84704 0.22498 0.0
C1324 C 0.49306 0.92569 0.13641 0.0
C1325 C 0.48682 0.94213 0.09891 0.0
C1326 C 0.4668 0.90431 0.15656 0.0
C1327 C 0.43311 0.89854 0.14023 0.0
C1328 C 0.42658 0.91533 0.10292 0.0
C1329 C 0.45314 0.937 0.08254 0.0
H1330 H 0.71471 0.24921 0.11821 0.0
H1331 H 0.71373 0.17094 0.21285 0.0
H1332 H 0.67536 0.21062 0.07693 0.0
H1333 H 0.67346 0.13229 0.17199 0.0
H1334 H 0.61974 0.06684 0.07932 0.0
H1335 H 0.66408 0.10532 0.11716 0.0
H1336 H 0.61804 0.17818 0.06974 0.0
H1337 H 0.57458 0.14024 0.03117 0.0
C1338 C 0.70603 0.22371 0.13021 0.0
C1339 C 0.71722 0.21316 0.16886 0.0
C1340 C 0.68328 0.20155 0.1066 0.0
C1341 C 0.67086 0.16824 0.1211 0.0
C1342 C 0.68271 0.15764 0.15957 0.0
C1343 C 0.70573 0.17982 0.18311 0.0
C1344 C 0.61924 0.09115 0.07679 0.0
C1345 C 0.59353 0.10037 0.05215 0.0
C1346 C 0.64457 0.11319 0.09871 0.0
C1347 C 0.64475 0.14496 0.09668 0.0
C1348 C 0.61919 0.15419 0.07166 0.0
C1349 C 0.59406 0.13228 0.0496 0.0
H1350 H 0.67996 0.68917 0.75764 0.0
H1351 H 0.7469 0.71467 0.86305 0.0
H1352 H 0.63648 0.65203 0.79731 0.0
H1353 H 0.70402 0.67833 0.90169 0.0
H1354 H 0.60963 0.64638 0.95619 0.0
H1355 H 0.64851 0.68016 0.91085 0.0
H1356 H 0.62663 0.59896 0.85031 0.0
H1357 H 0.587 0.56458 0.89594 0.0
C1358 C 0.6856 0.68665 0.78902 0.0
C1359 C 0.7171 0.70479 0.80701 0.0
C1360 C 0.66074 0.66544 0.81166 0.0
C1361 C 0.66692 0.66253 0.8525 0.0
C1362 C 0.69843 0.6804 0.87026 0.0
C1363 C 0.72311 0.70123 0.8479 0.0
C1364 C 0.61285 0.63554 0.93324 0.0
C1365 C 0.59535 0.60265 0.92995 0.0
C1366 C 0.63519 0.65497 0.90725 0.0
C1367 C 0.64068 0.64209 0.87728 0.0
C1368 C 0.62264 0.60946 0.8731 0.0
C1369 C 0.60021 0.58981 0.89936 0.0
H1370 H 0.39881 0.70145 0.91747 0.0
H1371 H 0.31955 0.63589 0.98387 0.0
H1372 H 0.43914 0.70014 0.97388 0.0
H1373 H 0.36159 0.63242 0.03956 0.0
H1374 H 0.43066 0.5803 0.99116 0.0
H1375 H 0.39038 0.60585 0.99159 0.0
H1376 H 0.46652 0.6792 0.05366 0.0
H1377 H 0.50699 0.6515 0.05569 0.0
C1378 C 0.38928 0.68773 0.94416 0.0
C1379 C 0.35588 0.66616 0.9447 0.0
C1380 C 0.41286 0.68749 0.97716 0.0
C1381 C 0.4037 0.66424 0.00984 0.0
C1382 C 0.36944 0.64956 0.01386 0.0
C1383 C 0.34548 0.65062 0.98127 0.0
C1384 C 0.43847 0.6011 0.00634 0.0
C1385 C 0.47161 0.61398 0.02347 0.0
C1386 C 0.41533 0.61552 0.00708 0.0
C1387 C 0.42522 0.6442 0.02331 0.0
C1388 C 0.45819 0.65661 0.04197 0.0
C1389 C 0.48124 0.64104 0.0428 0.0
H1390 H 0.36107 0.37866 0.74661 0.0
H1391 H 0.3495 0.31907 0.8592 0.0
H1392 H 0.39622 0.42565 0.77869 0.0
H1393 H 0.38473 0.36527 0.8908 0.0
H1394 H 0.43755 0.45272 0.94618 0.0
H1395 H 0.39127 0.41633 0.90746 0.0
H1396 H 0.45126 0.44418 0.81327 0.0
H1397 H 0.49657 0.48107 0.85115 0.0
C1398 C 0.36603 0.37552 0.77809 0.0
C1399 C 0.3527 0.34494 0.80019 0.0
C1400 C 0.38611 0.40247 0.79653 0.0
C1401 C 0.39327 0.3994 0.83747 0.0
C1402 C 0.37928 0.3689 0.85936 0.0
C1403 C 0.35929 0.34214 0.84104 0.0
C1404 C 0.44031 0.45188 0.9167 0.0
C1405 C 0.47088 0.46942 0.90197 0.0
C1406 C 0.41398 0.43071 0.89464 0.0
C1407 C 0.41775 0.4267 0.85748 0.0
C1408 C 0.44725 0.44655 0.84159 0.0
C1409 C 0.47341 0.46764 0.86352 0.0
H1410 H 0.65994 0.36223 0.7987 0.0
H1411 H 0.74898 0.44739 0.7893 0.0
H1412 H 0.63998 0.38733 0.83964 0.0
H1413 H 0.72883 0.47237 0.83051 0.0
H1414 H 0.67195 0.47745 0.94007 0.0
H1415 H 0.70315 0.45521 0.90848 0.0
H1416 H 0.62804 0.44729 0.8077 0.0
H1417 H 0.59814 0.47066 0.83739 0.0
C1418 C 0.67566 0.38591 0.80618 0.0
C1419 C 0.70586 0.40294 0.79038 0.0
C1420 C 0.66421 0.40028 0.82954 0.0
C1421 C 0.68292 0.43174 0.83811 0.0
C1422 C 0.71411 0.44802 0.8245 0.0
C1423 C 0.72541 0.43381 0.80067 0.0
C1424 C 0.66265 0.47176 0.91079 0.0
C1425 C 0.63238 0.47572 0.89148 0.0
C1426 C 0.6803 0.45878 0.89296 0.0
C1427 C 0.6674 0.44886 0.85617 0.0
C1428 C 0.63817 0.45424 0.83636 0.0
C1429 C 0.62115 0.46783 0.85349 0.0
H1430 H 0.74049 0.41555 0.00658 0.0
H1431 H 0.69627 0.31472 0.05364 0.0
H1432 H 0.6882 0.41334 0.96503 0.0
H1433 H 0.64369 0.31254 0.01172 0.0
H1434 H 0.57793 0.37271 0.03647 0.0
H1435 H 0.61719 0.34585 0.0369 0.0
H1436 H 0.63193 0.39083 0.91849 0.0
H1437 H 0.58991 0.41603 0.91727 0.0
C1438 C 0.72023 0.39242 0.00642 0.0
C1439 C 0.72191 0.36565 0.0343 0.0
C1440 C 0.69024 0.39104 0.98222 0.0
C1441 C 0.66165 0.36297 0.98583 0.0
C1442 C 0.66526 0.33459 0.00876 0.0
C1443 C 0.69523 0.33596 0.03301 0.0
C1444 C 0.5885 0.37597 0.00994 0.0
C1445 C 0.58291 0.39837 0.97771 0.0
C1446 C 0.61078 0.36019 0.00998 0.0
C1447 C 0.62847 0.3671 0.9781 0.0
C1448 C 0.61912 0.38568 0.94373 0.0
C1449 C 0.59568 0.40061 0.9433 0.0
H1450 H 0.72782 0.71127 0.14551 0.0
H1451 H 0.71133 0.6486 0.25555 0.0
H1452 H 0.692 0.66683 0.11114 0.0
H1453 H 0.67582 0.60341 0.22076 0.0
H1454 H 0.57722 0.55072 0.1454 0.0
H1455 H 0.62186 0.58687 0.18461 0.0
H1456 H 0.68359 0.6164 0.09184 0.0
H1457 H 0.63782 0.58073 0.05168 0.0
C1458 C 0.71683 0.68789 0.16251 0.0
C1459 C 0.72222 0.68374 0.20348 0.0
C1460 C 0.69649 0.66214 0.1426 0.0
C1461 C 0.68097 0.63131 0.16297 0.0
C1462 C 0.68701 0.62689 0.20401 0.0
C1463 C 0.70736 0.65281 0.22403 0.0
C1464 C 0.60056 0.56445 0.13354 0.0
C1465 C 0.60377 0.56318 0.09514 0.0
C1466 C 0.62637 0.58511 0.15626 0.0
C1467 C 0.6563 0.60507 0.14134 0.0
C1468 C 0.66059 0.6019 0.10401 0.0
C1469 C 0.63456 0.58114 0.08111 0.0
H1470 H 0.40182 0.68242 0.12414 0.0
H1471 H 0.37171 0.61646 0.22843 0.0
H1472 H 0.40874 0.63907 0.0983 0.0
H1473 H 0.37929 0.57306 0.20264 0.0
H1474 H 0.46815 0.54791 0.1625 0.0
H1475 H 0.43921 0.57501 0.18834 0.0
H1476 H 0.37452 0.57769 0.07927 0.0
H1477 H 0.40221 0.54836 0.05392 0.0
C1478 C 0.39604 0.65843 0.14111 0.0
C1479 C 0.38638 0.65273 0.1783 0.0
C1480 C 0.39966 0.63357 0.12615 0.0
C1481 C 0.39424 0.60268 0.14827 0.0
C1482 C 0.38333 0.59661 0.18488 0.0
C1483 C 0.37903 0.62136 0.19959 0.0
C1484 C 0.44703 0.55323 0.14428 0.0
C1485 C 0.43847 0.54729 0.10541 0.0
C1486 C 0.43041 0.56872 0.15923 0.0
C1487 C 0.40513 0.57901 0.13553 0.0
C1488 C 0.39429 0.57036 0.09795 0.0
C1489 C 0.41031 0.55383 0.08337 0.0
H1490 H 0.36039 0.37832 0.21117 0.0
H1491 H 0.38662 0.29713 0.19871 0.0
H1492 H 0.40038 0.41401 0.16675 0.0
H1493 H 0.42719 0.33262 0.15571 0.0
H1494 H 0.49392 0.47103 0.10309 0.0
H1495 H 0.45883 0.43928 0.15375 0.0
H1496 H 0.41987 0.35805 0.08947 0.0
H1497 H 0.45539 0.38925 0.0396 0.0
C1498 C 0.37552 0.3684 0.1999 0.0
C1499 C 0.37037 0.33506 0.20792 0.0
C1500 C 0.3983 0.38874 0.17442 0.0
C1501 C 0.41635 0.37594 0.15702 0.0
C1502 C 0.41292 0.34302 0.16768 0.0
C1503 C 0.38997 0.32276 0.19259 0.0
C1504 C 0.47786 0.44636 0.09982 0.0
C1505 C 0.4778 0.43247 0.06757 0.0
C1506 C 0.45768 0.42826 0.12878 0.0
C1507 C 0.43706 0.39597 0.12599 0.0
C1508 C 0.43622 0.38256 0.09307 0.0
C1509 C 0.45641 0.40054 0.06428 0.0
H1510 H 0.84362 0.69856 0.51931 0.0
H1511 H 0.83016 0.63285 0.62742 0.0
H1512 H 0.87829 0.67175 0.50256 0.0
H1513 H 0.86425 0.60554 0.61014 0.0
H1514 H 0.89755 0.54662 0.53884 0.0
H1515 H 0.85939 0.57229 0.55022 0.0
H1516 H 0.938 0.6657 0.53845 0.0
H1517 H 0.97633 0.64002 0.52856 0.0
C1518 C 0.84795 0.67829 0.5394 0.0
C1519 C 0.8343 0.66791 0.57481 0.0
C1520 C 0.86778 0.66299 0.52979 0.0
C1521 C 0.87377 0.63646 0.55494 0.0
C1522 C 0.85977 0.62576 0.59008 0.0
C1523 C 0.84055 0.64154 0.60012 0.0
C1524 C 0.90646 0.57266 0.53821 0.0
C1525 C 0.93991 0.59132 0.533 0.0
C1526 C 0.88475 0.58729 0.54498 0.0
C1527 C 0.89584 0.62095 0.54544 0.0
C1528 C 0.92879 0.63974 0.53826 0.0
C1529 C 0.9507 0.62503 0.53266 0.0
H1530 H 0.37435 0.83334 0.73149 0.0
H1531 H 0.32527 0.7941 0.62545 0.0
H1532 H 0.41721 0.876 0.69567 0.0
H1533 H 0.36828 0.83631 0.58953 0.0
H1534 H 0.41948 0.94273 0.53448 0.0
H1535 H 0.38229 0.89416 0.5693 0.0
H1536 H 0.46501 0.88949 0.65834 0.0
H1537 H 0.50239 0.93883 0.62301 0.0
C1538 C 0.37322 0.83341 0.70064 0.0
C1539 C 0.34688 0.80994 0.68136 0.0
C1540 C 0.39782 0.85784 0.68007 0.0
C1541 C 0.39642 0.85971 0.63959 0.0
C1542 C 0.37016 0.83588 0.62057 0.0
C1543 C 0.34561 0.81153 0.64113 0.0
C1544 C 0.42991 0.93086 0.56103 0.0
C1545 C 0.46391 0.94432 0.57576 0.0
C1546 C 0.40857 0.90293 0.58105 0.0
C1547 C 0.42048 0.88772 0.61679 0.0
C1548 C 0.45488 0.90067 0.63106 0.0
C1549 C 0.47643 0.92865 0.61065 0.0
H1550 H 0.18213 0.26768 0.6911 0.0
H1551 H 0.27495 0.34774 0.7026 0.0
H1552 H 0.15335 0.30429 0.65506 0.0
H1553 H 0.24646 0.38498 0.6647 0.0
H1554 H 0.17997 0.44955 0.63131 0.0
H1555 H 0.21078 0.41332 0.66257 0.0
H1556 H 0.1382 0.33713 0.60184 0.0
H1557 H 0.10674 0.37348 0.57154 0.0
C1558 C 0.19674 0.29322 0.68511 0.0
C1559 C 0.23125 0.30426 0.69959 0.0
C1560 C 0.18004 0.31455 0.66398 0.0
C1561 C 0.19687 0.34837 0.65624 0.0
C1562 C 0.23183 0.35945 0.67006 0.0
C1563 C 0.24862 0.3379 0.69148 0.0
C1564 C 0.17029 0.425 0.6246 0.0
C1565 C 0.14017 0.41478 0.59888 0.0
C1566 C 0.18844 0.40399 0.6425 0.0
C1567 C 0.17768 0.37153 0.63548 0.0
C1568 C 0.14763 0.36142 0.60926 0.0
C1569 C 0.1293 0.38248 0.59151 0.0
H1570 H 0.67761 0.19507 0.69782 0.0
H1571 H 0.76291 0.20597 0.64352 0.0
H1572 H 0.64247 0.15211 0.65902 0.0
H1573 H 0.72812 0.16411 0.60416 0.0
H1574 H 0.66974 0.06118 0.57821 0.0
H1575 H 0.70264 0.10703 0.61262 0.0
H1576 H 0.61626 0.13719 0.5962 0.0
H1577 H 0.58314 0.0909 0.56276 0.0
C1578 C 0.68858 0.18888 0.67685 0.0
C1579 C 0.72297 0.20372 0.67381 0.0
C1580 C 0.66855 0.16419 0.65465 0.0
C1581 C 0.6825 0.15409 0.62877 0.0
C1582 C 0.71657 0.17042 0.62444 0.0
C1583 C 0.73649 0.19472 0.64673 0.0
C1584 C 0.65777 0.07764 0.58173 0.0
C1585 C 0.62368 0.07209 0.56771 0.0
C1586 C 0.67671 0.10414 0.60137 0.0
C1587 C 0.66222 0.12605 0.60731 0.0
C1588 C 0.62824 0.1207 0.5928 0.0
C1589 C 0.60927 0.09414 0.57333 0.0
H1590 H 0.85002 0.38348 0.27125 0.0
H1591 H 0.83426 0.31017 0.37288 0.0
H1592 H 0.88896 0.42338 0.31189 0.0
H1593 H 0.87248 0.3505 0.41368 0.0
H1594 H 0.90819 0.45125 0.46571 0.0
H1595 H 0.87044 0.40901 0.42732 0.0
H1596 H 0.94921 0.42562 0.35905 0.0
H1597 H 0.98738 0.46718 0.39807 0.0
C1598 C 0.8547 0.37597 0.3023 0.0
C1599 C 0.83916 0.34374 0.31896 0.0
C1600 C 0.87707 0.39874 0.32544 0.0
C1601 C 0.88365 0.38991 0.36581 0.0
C1602 C 0.86772 0.35784 0.38261 0.0
C1603 C 0.84599 0.33484 0.35931 0.0
C1604 C 0.91751 0.44572 0.44268 0.0
C1605 C 0.95074 0.46253 0.43486 0.0
C1606 C 0.89597 0.42152 0.42088 0.0
C1607 C 0.90698 0.41425 0.39025 0.0
C1608 C 0.94016 0.43093 0.38247 0.0
C1609 C 0.96198 0.45455 0.40489 0.0
H1610 H 0.71196 0.81585 0.48923 0.0
H1611 H 0.68346 0.84208 0.36641 0.0
H1612 H 0.69182 0.85588 0.50394 0.0
H1613 H 0.66551 0.8832 0.38099 0.0
H1614 H 0.59327 0.91866 0.41759 0.0
H1615 H 0.61878 0.88215 0.407 0.0
H1616 H 0.69801 0.91329 0.50072 0.0
H1617 H 0.67159 0.95028 0.51212 0.0
C1618 C 0.70165 0.8302 0.46525 0.0
C1619 C 0.69902 0.82511 0.42649 0.0
C1620 C 0.69052 0.85357 0.47377 0.0
C1621 C 0.67652 0.87263 0.44378 0.0
C1622 C 0.67541 0.86858 0.40504 0.0
C1623 C 0.68626 0.84515 0.39656 0.0
C1624 C 0.61624 0.91813 0.4361 0.0
C1625 C 0.63047 0.93798 0.46553 0.0
C1626 C 0.6311 0.89712 0.4297 0.0
C1627 C 0.66097 0.89506 0.45231 0.0
C1628 C 0.67506 0.91427 0.48255 0.0
C1629 C 0.66 0.93559 0.48903 0.0
H1630 H 0.17632 0.69564 0.25897 0.0
H1631 H 0.24986 0.7267 0.35715 0.0
H1632 H 0.14089 0.65216 0.30214 0.0
H1633 H 0.2144 0.6827 0.40088 0.0
H1634 H 0.1589 0.57272 0.45073 0.0
H1635 H 0.19424 0.62152 0.41384 0.0
H1636 H 0.10602 0.64323 0.35522 0.0
H1637 H 0.07061 0.59472 0.39368 0.0
C1638 C 0.18508 0.69284 0.28989 0.0
C1639 C 0.21652 0.7137 0.30449 0.0
C1640 C 0.16456 0.66816 0.31472 0.0
C1641 C 0.17465 0.66378 0.35509 0.0
C1642 C 0.20592 0.68513 0.36991 0.0
C1643 C 0.22645 0.71009 0.34491 0.0
C1644 C 0.14709 0.58819 0.43033 0.0
C1645 C 0.11196 0.57982 0.42497 0.0
C1646 C 0.16739 0.6162 0.40915 0.0
C1647 C 0.1531 0.63617 0.38101 0.0
C1648 C 0.1179 0.62822 0.37633 0.0
C1649 C 0.09758 0.60057 0.39846 0.0
H1650 H 0.28794 0.16606 0.3286 0.0
H1651 H 0.37327 0.24984 0.29862 0.0
H1652 H 0.32497 0.13706 0.36422 0.0
H1653 H 0.41111 0.22043 0.33432 0.0
H1654 H 0.46972 0.15883 0.4275 0.0
H1655 H 0.43598 0.19355 0.39605 0.0
H1656 H 0.35895 0.11092 0.35134 0.0
H1657 H 0.39179 0.07694 0.38244 0.0
C1658 C 0.3148 0.17854 0.32994 0.0
C1659 C 0.32722 0.21069 0.31101 0.0
C1660 C 0.33632 0.16165 0.35024 0.0
C1661 C 0.3716 0.17573 0.35214 0.0
C1662 C 0.3843 0.20838 0.334 0.0
C1663 C 0.3625 0.22544 0.31348 0.0
C1664 C 0.44565 0.14813 0.41079 0.0
C1665 C 0.43392 0.11464 0.40793 0.0
C1666 C 0.42615 0.16817 0.39257 0.0
C1667 C 0.39403 0.15542 0.3711 0.0
C1668 C 0.38287 0.12208 0.36805 0.0
C1669 C 0.40217 0.10233 0.38592 0.0
H1670 H 0.70523 0.78306 0.70408 0.0
H1671 H 0.78904 0.86986 0.67869 0.0
H1672 H 0.66637 0.81127 0.66752 0.0
H1673 H 0.75118 0.89755 0.64252 0.0
H1674 H 0.68176 0.95487 0.62275 0.0
H1675 H 0.71496 0.92145 0.65483 0.0
H1676 H 0.64178 0.83929 0.6052 0.0
H1677 H 0.60763 0.87346 0.57268 0.0
C1678 C 0.71552 0.80787 0.69017 0.0
C1679 C 0.75073 0.82389 0.69448 0.0
C1680 C 0.69311 0.82427 0.66914 0.0
C1681 C 0.70503 0.85742 0.65217 0.0
C1682 C 0.74027 0.8726 0.6556 0.0
C1683 C 0.76233 0.8564 0.67629 0.0
C1684 C 0.67227 0.92969 0.61835 0.0
C1685 C 0.64146 0.91745 0.59456 0.0
C1686 C 0.69182 0.91025 0.63685 0.0
C1687 C 0.68195 0.87719 0.63276 0.0
C1688 C 0.65069 0.86443 0.60958 0.0
C1689 C 0.63092 0.88419 0.59071 0.0
H1690 H 0.73746 0.24762 0.37139 0.0
H1691 H 0.69502 0.2044 0.2667 0.0
H1692 H 0.69446 0.20498 0.40645 0.0
H1693 H 0.65182 0.16128 0.30179 0.0
H1694 H 0.56979 0.09057 0.37594 0.0
H1695 H 0.60281 0.14156 0.33872 0.0
H1696 H 0.68686 0.14897 0.42952 0.0
H1697 H 0.65423 0.09838 0.46573 0.0
C1698 C 0.71836 0.22936 0.35562 0.0
C1699 C 0.71954 0.22967 0.31617 0.0
C1700 C 0.69377 0.20469 0.3758 0.0
C1701 C 0.66967 0.17919 0.3573 0.0
C1702 C 0.66963 0.18054 0.31709 0.0
C1703 C 0.69443 0.20532 0.29686 0.0
C1704 C 0.59509 0.1036 0.38814 0.0
C1705 C 0.60932 0.09066 0.42397 0.0
C1706 C 0.61416 0.13266 0.36668 0.0
C1707 C 0.64769 0.14968 0.38092 0.0
C1708 C 0.66115 0.13708 0.41757 0.0
C1709 C 0.64243 0.10794 0.43846 0.0
H1710 H 0.79792 0.67741 0.30676 0.0
H1711 H 0.89069 0.7571 0.32108 0.0
H1712 H 0.8256 0.63989 0.34585 0.0
H1713 H 0.91875 0.72033 0.35783 0.0
H1714 H 0.96523 0.65202 0.44111 0.0
H1715 H 0.93377 0.68802 0.41012 0.0
H1716 H 0.8606 0.61065 0.35159 0.0
H1717 H 0.89135 0.57457 0.38414 0.0
C1718 C 0.82405 0.6871 0.31874 0.0
C1719 C 0.84165 0.72073 0.31113 0.0
C1720 C 0.8404 0.66539 0.34083 0.0
C1721 C 0.87516 0.67631 0.3557 0.0
C1722 C 0.89218 0.71012 0.34828 0.0
C1723 C 0.87589 0.73158 0.32669 0.0
C1724 C 0.94249 0.64266 0.42155 0.0
C1725 C 0.93143 0.61008 0.41523 0.0
C1726 C 0.92417 0.66356 0.40329 0.0
C1727 C 0.89405 0.65309 0.3773 0.0
C1728 C 0.88303 0.62031 0.37137 0.0
C1729 C 0.90112 0.59937 0.39001 0.0
H1730 H 0.38967 0.8196 0.33164 0.0
H1731 H 0.3021 0.83908 0.34405 0.0
H1732 H 0.42506 0.86282 0.36908 0.0
H1733 H 0.33675 0.88094 0.3837 0.0
H1734 H 0.40861 0.97924 0.41162 0.0
H1735 H 0.37298 0.93286 0.37982 0.0
H1736 H 0.44556 0.88465 0.42581 0.0
H1737 H 0.48209 0.93224 0.45545 0.0
C1738 C 0.37789 0.83238 0.34368 0.0
C1739 C 0.34314 0.82572 0.3354 0.0
C1740 C 0.39819 0.85736 0.3652 0.0
C1741 C 0.38414 0.87602 0.37953 0.0
C1742 C 0.34896 0.86806 0.3725 0.0
C1743 C 0.32887 0.84365 0.35021 0.0
C1744 C 0.41689 0.95867 0.41504 0.0
C1745 C 0.44831 0.95959 0.43592 0.0
C1746 C 0.39625 0.93174 0.39699 0.0
C1747 C 0.40599 0.90446 0.40001 0.0
C1748 C 0.4372 0.90519 0.42186 0.0
C1749 C 0.45818 0.93248 0.43919 0.0
H1750 H 0.25599 0.39985 0.3979 0.0
H1751 H 0.2176 0.31791 0.48523 0.0
H1752 H 0.22352 0.42787 0.41687 0.0
H1753 H 0.18497 0.3458 0.50385 0.0
H1754 H 0.09763 0.39087 0.47482 0.0
H1755 H 0.13461 0.36346 0.46593 0.0
H1756 H 0.21995 0.4509 0.47901 0.0
H1757 H 0.18281 0.47822 0.48905 0.0
C1758 C 0.24058 0.3878 0.42105 0.0
C1759 C 0.23925 0.35657 0.43986 0.0
C1760 C 0.22229 0.40398 0.43219 0.0
C1761 C 0.20177 0.38906 0.46192 0.0
C1762 C 0.20051 0.35789 0.48082 0.0
C1763 C 0.21925 0.34197 0.47017 0.0
C1764 C 0.12436 0.40412 0.47641 0.0
C1765 C 0.13732 0.43674 0.48243 0.0
C1766 C 0.14554 0.38838 0.47143 0.0
C1767 C 0.18013 0.4051 0.47142 0.0
C1768 C 0.19333 0.4375 0.47858 0.0
C1769 C 0.17215 0.45305 0.48458 0.0
H1770 H 0.3948 0.19193 0.6346 0.0
H1771 H 0.35287 0.20869 0.51422 0.0
H1772 H 0.41569 0.15328 0.61894 0.0
H1773 H 0.37566 0.17107 0.49818 0.0
H1774 H 0.40194 0.07822 0.49414 0.0
H1775 H 0.37397 0.11381 0.5059 0.0
H1776 H 0.46062 0.15818 0.58554 0.0
H1777 H 0.48781 0.12309 0.57458 0.0
C1778 C 0.38967 0.18724 0.60482 0.0
C1779 C 0.37218 0.20385 0.5758 0.0
C1780 C 0.40215 0.16528 0.59566 0.0
C1781 C 0.39793 0.15933 0.55711 0.0
C1782 C 0.37942 0.17496 0.52817 0.0
C1783 C 0.36672 0.19692 0.53739 0.0
C1784 C 0.41489 0.09561 0.51412 0.0
C1785 C 0.44692 0.09719 0.53393 0.0
C1786 C 0.39893 0.11608 0.52079 0.0
C1787 C 0.41468 0.13842 0.54747 0.0
C1788 C 0.44715 0.14066 0.56583 0.0
C1789 C 0.4629 0.12047 0.55926 0.0
H1790 H 0.87035 0.3377 0.74094 0.0
H1791 H 0.83894 0.29695 0.63395 0.0
H1792 H 0.91236 0.38476 0.7096 0.0
H1793 H 0.8801 0.34433 0.60191 0.0
H1794 H 0.97594 0.42099 0.56168 0.0
H1795 H 0.93778 0.37248 0.59617 0.0
H1796 H 0.919 0.43228 0.66409 0.0
H1797 H 0.95768 0.48019 0.63087 0.0
C1798 C 0.87211 0.33909 0.7105 0.0
C1799 C 0.85068 0.31408 0.68957 0.0
C1800 C 0.89625 0.3661 0.69239 0.0
C1801 C 0.89983 0.36874 0.6529 0.0
C1802 C 0.87865 0.34323 0.63236 0.0
C1803 C 0.85473 0.31617 0.65058 0.0
C1804 C 0.96407 0.42373 0.58438 0.0
C1805 C 0.9702 0.45474 0.59334 0.0
C1806 C 0.94179 0.39586 0.60396 0.0
C1807 C 0.92492 0.39817 0.63306 0.0
C1808 C 0.93168 0.42916 0.64245 0.0
C1809 C 0.95392 0.45687 0.62305 0.0
H1810 H 0.18998 0.69018 0.7042 0.0
H1811 H 0.27206 0.6986 0.64574 0.0
H1812 H 0.15218 0.64889 0.66519 0.0
H1813 H 0.23448 0.65775 0.60624 0.0
H1814 H 0.16964 0.55559 0.58125 0.0
H1815 H 0.20605 0.60077 0.61461 0.0
H1816 H 0.12384 0.63641 0.60245 0.0
H1817 H 0.08695 0.59045 0.56997 0.0
C1818 C 0.19992 0.68333 0.68281 0.0
C1819 C 0.2343 0.69667 0.67905 0.0
C1820 C 0.17821 0.65978 0.66023 0.0
C1821 C 0.19034 0.64943 0.63298 0.0
C1822 C 0.22443 0.66426 0.62782 0.0
C1823 C 0.24611 0.68756 0.65062 0.0
C1824 C 0.15926 0.57309 0.58547 0.0
C1825 C 0.12524 0.56919 0.57304 0.0
C1826 C 0.18028 0.59923 0.60444 0.0
C1827 C 0.16799 0.62239 0.61126 0.0
C1828 C 0.13409 0.61882 0.59823 0.0
C1829 C 0.11295 0.59251 0.57942 0.0
loop_
_geom_bond_atom_site_label_1
_geom_bond_atom_site_label_2
_geom_bond_distance
_geom_bond_site_symmetry_2
_ccdc_geom_bond_type
Tb0 N31 2.660 . S
Tb0 N38 2.600 . S
Tb0 O44 2.546 . S
Tb0 O45 2.610 . S
Tb0 O47 2.320 . S
Tb0 O48 2.552 . S
Tb0 O49 2.413 . S
Tb0 O51 2.362 . S
Tb0 O52 2.421 . S
Tb0 C64 2.833 . S
C1 C4 1.432 . S
C1 C5 1.414 . S
C1 N8 1.359 . S
C2 C4 1.417 . S
C2 C6 1.432 . S
C2 C14 1.410 . S
C3 C5 1.444 . S
C3 C6 1.317 . S
C3 H26 0.929 . S
C4 C1 1.432 . S
C4 C2 1.417 . S
C4 N12 1.360 . S
C5 C1 1.414 . S
C5 C3 1.444 . S
C5 C10 1.385 . S
C6 C2 1.432 . S
C6 C3 1.317 . S
C6 H18 0.930 . S
C7 C9 1.392 . S
C7 C10 1.370 . S
C7 H19 0.931 . S
N8 C1 1.359 . S
N8 C9 1.327 . S
N8 Tb11 2.600 . S
C9 C7 1.392 . S
C9 N8 1.327 . S
C9 H16 0.930 . S
C10 C5 1.385 . S
C10 C7 1.370 . S
C10 H29 0.930 . S
Tb11 N8 2.600 . S
Tb11 N12 2.660 . S
Tb11 O45 2.362 . S
Tb11 O46 2.421 . S
Tb11 O50 2.546 . S
Tb11 O51 2.610 . S
Tb11 O53 2.320 . S
Tb11 O54 2.552 . S
Tb11 O55 2.413 . S
Tb11 C75 2.833 . S
N12 C4 1.360 . S
N12 Tb11 2.660 . S
N12 C13 1.305 . S
C13 N12 1.305 . S
C13 C15 1.407 . S
C13 H20 0.930 . S
C14 C2 1.410 . S
C14 C15 1.345 . S
C14 H22 0.930 . S
C15 C13 1.407 . S
C15 C14 1.345 . S
C15 H17 0.930 . S
H16 C9 0.930 . S
H17 C15 0.930 . S
H18 C6 0.930 . S
H19 C7 0.931 . S
H20 C13 0.930 . S
H21 C35 0.930 . S
H22 C14 0.930 . S
H23 C41 0.930 . S
H24 C32 0.930 . S
H25 C39 0.931 . S
H26 C3 0.929 . S
H27 C33 0.930 . S
H28 C66 0.930 . S
H29 C10 0.930 . S
H30 C65 0.929 . S
N31 Tb0 2.660 . S
N31 C32 1.305 . S
N31 C36 1.360 . S
C32 H24 0.930 . S
C32 N31 1.305 . S
C32 C35 1.407 . S
C33 H27 0.930 . S
C33 C34 1.410 . S
C33 C35 1.345 . S
C34 C33 1.410 . S
C34 C36 1.417 . S
C34 C66 1.432 . S
C35 H21 0.930 . S
C35 C32 1.407 . S
C35 C33 1.345 . S
C36 N31 1.360 . S
C36 C34 1.417 . S
C36 C40 1.432 . S
H37 C42 0.930 . S
N38 Tb0 2.600 . S
N38 C40 1.359 . S
N38 C41 1.327 . S
C39 H25 0.931 . S
C39 C41 1.392 . S
C39 C42 1.370 . S
C40 C36 1.432 . S
C40 N38 1.359 . S
C40 C43 1.414 . S
C41 H23 0.930 . S
C41 N38 1.327 . S
C41 C39 1.392 . S
C42 H37 0.930 . S
C42 C39 1.370 . S
C42 C43 1.385 . S
C43 C40 1.414 . S
C43 C42 1.385 . S
C43 C65 1.444 . S
O44 Tb0 2.546 . S
O44 C64 1.251 . S
O45 Tb0 2.610 . S
O45 Tb11 2.362 . S
O45 C56 1.283 . S
O46 Tb11 2.421 . S
O46 C63 1.262 . S
O47 Tb0 2.320 . S
O47 C63 1.260 . S
O48 Tb0 2.552 . S
O48 C56 1.243 . S
O49 Tb0 2.413 . S
O49 C64 1.256 . S
O50 Tb11 2.546 . S
O50 C75 1.251 . S
O51 Tb0 2.362 . S
O51 Tb11 2.610 . S
O51 C67 1.283 . S
O52 Tb0 2.421 . S
O52 C74 1.262 . S
O53 Tb11 2.320 . S
O53 C74 1.260 . S
O54 Tb11 2.552 . S
O54 C67 1.243 . S
O55 Tb11 2.413 . S
O55 C75 1.256 . S
C56 O45 1.283 . S
C56 O48 1.243 . S
C57 C59 1.382 . S
C57 C61 1.393 . S
C57 C64 1.500 . S
C58 C59 1.400 . S
C58 C60 1.384 . S
C59 C57 1.382 . S
C59 C58 1.400 . S
C59 H76 0.930 . S
C60 C58 1.384 . S
C60 C62 1.392 . S
C60 H77 0.931 . S
C61 C57 1.393 . S
C61 C62 1.401 . S
C61 H78 0.930 . S
C62 C60 1.392 . S
C62 C61 1.401 . S
C62 H79 0.930 . S
C63 O46 1.262 . S
C63 O47 1.260 . S
C64 Tb0 2.833 . S
C64 O44 1.251 . S
C64 O49 1.256 . S
C64 C57 1.500 . S
C65 H30 0.929 . S
C65 C43 1.444 . S
C65 C66 1.317 . S
C66 H28 0.930 . S
C66 C34 1.432 . S
C66 C65 1.317 . S
C67 O51 1.283 . S
C67 O54 1.243 . S
C68 C69 1.382 . S
C68 C72 1.393 . S
C68 C75 1.500 . S
C69 C68 1.382 . S
C69 C70 1.400 . S
C69 H80 0.930 . S
C70 C69 1.400 . S
C70 C71 1.384 . S
C71 C70 1.384 . S
C71 C73 1.392 . S
C71 H81 0.931 . S
C72 C68 1.393 . S
C72 C73 1.401 . S
C72 H82 0.930 . S
C73 C71 1.392 . S
C73 C72 1.401 . S
C73 H83 0.930 . S
C74 O52 1.262 . S
C74 O53 1.260 . S
C75 Tb11 2.833 . S
C75 O50 1.251 . S
C75 O55 1.256 . S
C75 C68 1.500 . S
H76 C59 0.930 . S
H77 C60 0.931 . S
H78 C61 0.930 . S
H79 C62 0.930 . S
H80 C69 0.930 . S
H81 C71 0.931 . S
H82 C72 0.930 . S
H83 C73 0.930 . S
Tb84 N115 2.660 . S
Tb84 N122 2.600 . S
Tb84 O128 2.546 . S
Tb84 O129 2.610 . S
Tb84 O131 2.320 . S
Tb84 O132 2.552 . S
Tb84 O133 2.413 . S
Tb84 O135 2.362 . S
Tb84 O136 2.421 . S
Tb84 C148 2.833 . S
C85 C88 1.432 . S
C85 C89 1.414 . S
C85 N92 1.359 . S
C86 C88 1.417 . S
C86 C90 1.432 . S
C86 C98 1.410 . S
C87 C89 1.444 . S
C87 C90 1.317 . S
C87 H110 0.929 . S
C88 C85 1.432 . S
C88 C86 1.417 . S
C88 N96 1.360 . S
C89 C85 1.414 . S
C89 C87 1.444 . S
C89 C94 1.385 . S
C90 C86 1.432 . S
C90 C87 1.317 . S
C90 H102 0.930 . S
C91 C93 1.392 . S
C91 C94 1.370 . S
C91 H103 0.931 . S
N92 C85 1.359 . S
N92 C93 1.327 . S
N92 Tb95 2.600 . S
C93 C91 1.392 . S
C93 N92 1.327 . S
C93 H100 0.930 . S
C94 C89 1.385 . S
C94 C91 1.370 . S
C94 H113 0.930 . S
Tb95 N92 2.600 . S
Tb95 N96 2.660 . S
Tb95 O129 2.362 . S
Tb95 O130 2.421 . S
Tb95 O134 2.546 . S
Tb95 O135 2.610 . S
Tb95 O137 2.320 . S
Tb95 O138 2.552 . S
Tb95 O139 2.413 . S
Tb95 C159 2.833 . S
N96 C88 1.360 . S
N96 Tb95 2.660 . S
N96 C97 1.305 . S
C97 N96 1.305 . S
C97 C99 1.407 . S
C97 H104 0.930 . S
C98 C86 1.410 . S
C98 C99 1.345 . S
C98 H106 0.930 . S
C99 C97 1.407 . S
C99 C98 1.345 . S
C99 H101 0.930 . S
H100 C93 0.930 . S
H101 C99 0.930 . S
H102 C90 0.930 . S
H103 C91 0.931 . S
H104 C97 0.930 . S
H105 C119 0.930 . S
H106 C98 0.930 . S
H107 C125 0.930 . S
H108 C116 0.930 . S
H109 C123 0.931 . S
H110 C87 0.929 . S
H111 C117 0.930 . S
H112 C150 0.930 . S
H113 C94 0.930 . S
H114 C149 0.929 . S
N115 Tb84 2.660 . S
N115 C116 1.305 . S
N115 C120 1.360 . S
C116 H108 0.930 . S
C116 N115 1.305 . S
C116 C119 1.407 . S
C117 H111 0.930 . S
C117 C118 1.410 . S
C117 C119 1.345 . S
C118 C117 1.410 . S
C118 C120 1.417 . S
C118 C150 1.432 . S
C119 H105 0.930 . S
C119 C116 1.407 . S
C119 C117 1.345 . S
C120 N115 1.360 . S
C120 C118 1.417 . S
C120 C124 1.432 . S
H121 C126 0.930 . S
N122 Tb84 2.600 . S
N122 C124 1.359 . S
N122 C125 1.327 . S
C123 H109 0.931 . S
C123 C125 1.392 . S
C123 C126 1.370 . S
C124 C120 1.432 . S
C124 N122 1.359 . S
C124 C127 1.414 . S
C125 H107 0.930 . S
C125 N122 1.327 . S
C125 C123 1.392 . S
C126 H121 0.930 . S
C126 C123 1.370 . S
C126 C127 1.385 . S
C127 C124 1.414 . S
C127 C126 1.385 . S
C127 C149 1.444 . S
O128 Tb84 2.546 . S
O128 C148 1.251 . S
O129 Tb84 2.610 . S
O129 Tb95 2.362 . S
O129 C140 1.283 . S
O130 Tb95 2.421 . S
O130 C147 1.262 . S
O131 Tb84 2.320 . S
O131 C147 1.260 . S
O132 Tb84 2.552 . S
O132 C140 1.243 . S
O133 Tb84 2.413 . S
O133 C148 1.256 . S
O134 Tb95 2.546 . S
O134 C159 1.251 . S
O135 Tb84 2.362 . S
O135 Tb95 2.610 . S
O135 C151 1.283 . S
O136 Tb84 2.421 . S
O136 C158 1.262 . S
O137 Tb95 2.320 . S
O137 C158 1.260 . S
O138 Tb95 2.552 . S
O138 C151 1.243 . S
O139 Tb95 2.413 . S
O139 C159 1.256 . S
C140 O129 1.283 . S
C140 O132 1.243 . S
C141 C143 1.382 . S
C141 C145 1.393 . S
C141 C148 1.500 . S
C142 C143 1.400 . S
C142 C144 1.384 . S
C143 C141 1.382 . S
C143 C142 1.400 . S
C143 H160 0.930 . S
C144 C142 1.384 . S
C144 C146 1.392 . S
C144 H161 0.931 . S
C145 C141 1.393 . S
C145 C146 1.401 . S
C145 H162 0.930 . S
C146 C144 1.392 . S
C146 C145 1.401 . S
C146 H163 0.930 . S
C147 O130 1.262 . S
C147 O131 1.260 . S
C148 Tb84 2.833 . S
C148 O128 1.251 . S
C148 O133 1.256 . S
C148 C141 1.500 . S
C149 H114 0.929 . S
C149 C127 1.444 . S
C149 C150 1.317 . S
C150 H112 0.930 . S
C150 C118 1.432 . S
C150 C149 1.317 . S
C151 O135 1.283 . S
C151 O138 1.243 . S
C152 C153 1.382 . S
C152 C156 1.393 . S
C152 C159 1.500 . S
C153 C152 1.382 . S
C153 C154 1.400 . S
C153 H164 0.930 . S
C154 C153 1.400 . S
C154 C155 1.384 . S
C155 C154 1.384 . S
C155 C157 1.392 . S
C155 H165 0.931 . S
C156 C152 1.393 . S
C156 C157 1.401 . S
C156 H166 0.930 . S
C157 C155 1.392 . S
C157 C156 1.401 . S
C157 H167 0.930 . S
C158 O136 1.262 . S
C158 O137 1.260 . S
C159 Tb95 2.833 . S
C159 O134 1.251 . S
C159 O139 1.256 . S
C159 C152 1.500 . S
H160 C143 0.930 . S
H161 C144 0.931 . S
H162 C145 0.930 . S
H163 C146 0.930 . S
H164 C153 0.930 . S
H165 C155 0.931 . S
H166 C156 0.930 . S
H167 C157 0.930 . S
Tb168 N199 2.660 . S
Tb168 N206 2.600 . S
Tb168 O212 2.546 . S
Tb168 O213 2.610 . S
Tb168 O215 2.320 . S
Tb168 O216 2.552 . S
Tb168 O217 2.413 . S
Tb168 O219 2.362 . S
Tb168 O220 2.421 . S
Tb168 C232 2.833 . S
C169 C172 1.432 . S
C169 C173 1.414 . S
C169 N176 1.359 . S
C170 C172 1.417 . S
C170 C174 1.432 . S
C170 C182 1.410 . S
C171 C173 1.444 . S
C171 C174 1.317 . S
C171 H194 0.929 . S
C172 C169 1.432 . S
C172 C170 1.417 . S
C172 N180 1.360 . S
C173 C169 1.414 . S
C173 C171 1.444 . S
C173 C178 1.385 . S
C174 C170 1.432 . S
C174 C171 1.317 . S
C174 H186 0.930 . S
C175 C177 1.392 . S
C175 C178 1.370 . S
C175 H187 0.931 . S
N176 C169 1.359 . S
N176 C177 1.327 . S
N176 Tb179 2.600 . S
C177 C175 1.392 . S
C177 N176 1.327 . S
C177 H184 0.930 . S
C178 C173 1.385 . S
C178 C175 1.370 . S
C178 H197 0.930 . S
Tb179 N176 2.600 . S
Tb179 N180 2.660 . S
Tb179 O213 2.362 . S
Tb179 O214 2.421 . S
Tb179 O218 2.546 . S
Tb179 O219 2.610 . S
Tb179 O221 2.320 . S
Tb179 O222 2.552 . S
Tb179 O223 2.413 . S
Tb179 C243 2.833 . S
N180 C172 1.360 . S
N180 Tb179 2.660 . S
N180 C181 1.305 . S
C181 N180 1.305 . S
C181 C183 1.407 . S
C181 H188 0.930 . S
C182 C170 1.410 . S
C182 C183 1.345 . S
C182 H190 0.930 . S
C183 C181 1.407 . S
C183 C182 1.345 . S
C183 H185 0.930 . S
H184 C177 0.930 . S
H185 C183 0.930 . S
H186 C174 0.930 . S
H187 C175 0.931 . S
H188 C181 0.930 . S
H189 C203 0.930 . S
H190 C182 0.930 . S
H191 C209 0.930 . S
H192 C200 0.930 . S
H193 C207 0.931 . S
H194 C171 0.929 . S
H195 C201 0.930 . S
H196 C234 0.930 . S
H197 C178 0.930 . S
H198 C233 0.929 . S
N199 Tb168 2.660 . S
N199 C200 1.305 . S
N199 C204 1.360 . S
C200 H192 0.930 . S
C200 N199 1.305 . S
C200 C203 1.407 . S
C201 H195 0.930 . S
C201 C202 1.410 . S
C201 C203 1.345 . S
C202 C201 1.410 . S
C202 C204 1.417 . S
C202 C234 1.432 . S
C203 H189 0.930 . S
C203 C200 1.407 . S
C203 C201 1.345 . S
C204 N199 1.360 . S
C204 C202 1.417 . S
C204 C208 1.432 . S
H205 C210 0.930 . S
N206 Tb168 2.600 . S
N206 C208 1.359 . S
N206 C209 1.327 . S
C207 H193 0.931 . S
C207 C209 1.392 . S
C207 C210 1.370 . S
C208 C204 1.432 . S
C208 N206 1.359 . S
C208 C211 1.414 . S
C209 H191 0.930 . S
C209 N206 1.327 . S
C209 C207 1.392 . S
C210 H205 0.930 . S
C210 C207 1.370 . S
C210 C211 1.385 . S
C211 C208 1.414 . S
C211 C210 1.385 . S
C211 C233 1.444 . S
O212 Tb168 2.546 . S
O212 C232 1.251 . S
O213 Tb168 2.610 . S
O213 Tb179 2.362 . S
O213 C224 1.283 . S
O214 Tb179 2.421 . S
O214 C231 1.262 . S
O215 Tb168 2.320 . S
O215 C231 1.260 . S
O216 Tb168 2.552 . S
O216 C224 1.243 . S
O217 Tb168 2.413 . S
O217 C232 1.256 . S
O218 Tb179 2.546 . S
O218 C243 1.251 . S
O219 Tb168 2.362 . S
O219 Tb179 2.610 . S
O219 C235 1.283 . S
O220 Tb168 2.421 . S
O220 C242 1.262 . S
O221 Tb179 2.320 . S
O221 C242 1.260 . S
O222 Tb179 2.552 . S
O222 C235 1.243 . S
O223 Tb179 2.413 . S
O223 C243 1.256 . S
C224 O213 1.283 . S
C224 O216 1.243 . S
C225 C227 1.382 . S
C225 C229 1.393 . S
C225 C232 1.500 . S
C226 C227 1.400 . S
C226 C228 1.384 . S
C227 C225 1.382 . S
C227 C226 1.400 . S
C227 H244 0.930 . S
C228 C226 1.384 . S
C228 C230 1.392 . S
C228 H245 0.931 . S
C229 C225 1.393 . S
C229 C230 1.401 . S
C229 H246 0.930 . S
C230 C228 1.392 . S
C230 C229 1.401 . S
C230 H247 0.930 . S
C231 O214 1.262 . S
C231 O215 1.260 . S
C232 Tb168 2.833 . S
C232 O212 1.251 . S
C232 O217 1.256 . S
C232 C225 1.500 . S
C233 H198 0.929 . S
C233 C211 1.444 . S
C233 C234 1.317 . S
C234 H196 0.930 . S
C234 C202 1.432 . S
C234 C233 1.317 . S
C235 O219 1.283 . S
C235 O222 1.243 . S
C236 C237 1.382 . S
C236 C240 1.393 . S
C236 C243 1.500 . S
C237 C236 1.382 . S
C237 C238 1.400 . S
C237 H248 0.930 . S
C238 C237 1.400 . S
C238 C239 1.384 . S
C239 C238 1.384 . S
C239 C241 1.392 . S
C239 H249 0.931 . S
C240 C236 1.393 . S
C240 C241 1.401 . S
C240 H250 0.930 . S
C241 C239 1.392 . S
C241 C240 1.401 . S
C241 H251 0.930 . S
C242 O220 1.262 . S
C242 O221 1.260 . S
C243 Tb179 2.833 . S
C243 O218 1.251 . S
C243 O223 1.256 . S
C243 C236 1.500 . S
H244 C227 0.930 . S
H245 C228 0.931 . S
H246 C229 0.930 . S
H247 C230 0.930 . S
H248 C237 0.930 . S
H249 C239 0.931 . S
H250 C240 0.930 . S
H251 C241 0.930 . S
Tb252 N283 2.660 . S
Tb252 N290 2.600 . S
Tb252 O296 2.546 . S
Tb252 O297 2.610 . S
Tb252 O299 2.320 . S
Tb252 O300 2.552 . S
Tb252 O301 2.413 . S
Tb252 O303 2.362 . S
Tb252 O304 2.421 . S
Tb252 C316 2.833 . S
C253 C256 1.432 . S
C253 C257 1.414 . S
C253 N260 1.359 . S
C254 C256 1.417 . S
C254 C258 1.432 . S
C254 C266 1.410 . S
C255 C257 1.444 . S
C255 C258 1.317 . S
C255 H278 0.929 . S
C256 C253 1.432 . S
C256 C254 1.417 . S
C256 N264 1.360 . S
C257 C253 1.414 . S
C257 C255 1.444 . S
C257 C262 1.385 . S
C258 C254 1.432 . S
C258 C255 1.317 . S
C258 H270 0.930 . S
C259 C261 1.392 . S
C259 C262 1.370 . S
C259 H271 0.931 . S
N260 C253 1.359 . S
N260 C261 1.327 . S
N260 Tb263 2.600 . S
C261 C259 1.392 . S
C261 N260 1.327 . S
C261 H268 0.930 . S
C262 C257 1.385 . S
C262 C259 1.370 . S
C262 H281 0.930 . S
Tb263 N260 2.600 . S
Tb263 N264 2.660 . S
Tb263 O297 2.362 . S
Tb263 O298 2.421 . S
Tb263 O302 2.546 . S
Tb263 O303 2.610 . S
Tb263 O305 2.320 . S
Tb263 O306 2.552 . S
Tb263 O307 2.413 . S
Tb263 C327 2.833 . S
N264 C256 1.360 . S
N264 Tb263 2.660 . S
N264 C265 1.305 . S
C265 N264 1.305 . S
C265 C267 1.407 . S
C265 H272 0.930 . S
C266 C254 1.410 . S
C266 C267 1.345 . S
C266 H274 0.930 . S
C267 C265 1.407 . S
C267 C266 1.345 . S
C267 H269 0.930 . S
H268 C261 0.930 . S
H269 C267 0.930 . S
H270 C258 0.930 . S
H271 C259 0.931 . S
H272 C265 0.930 . S
H273 C287 0.930 . S
H274 C266 0.930 . S
H275 C293 0.930 . S
H276 C284 0.930 . S
H277 C291 0.931 . S
H278 C255 0.929 . S
H279 C285 0.930 . S
H280 C318 0.930 . S
H281 C262 0.930 . S
H282 C317 0.929 . S
N283 Tb252 2.660 . S
N283 C284 1.305 . S
N283 C288 1.360 . S
C284 H276 0.930 . S
C284 N283 1.305 . S
C284 C287 1.407 . S
C285 H279 0.930 . S
C285 C286 1.410 . S
C285 C287 1.345 . S
C286 C285 1.410 . S
C286 C288 1.417 . S
C286 C318 1.432 . S
C287 H273 0.930 . S
C287 C284 1.407 . S
C287 C285 1.345 . S
C288 N283 1.360 . S
C288 C286 1.417 . S
C288 C292 1.432 . S
H289 C294 0.930 . S
N290 Tb252 2.600 . S
N290 C292 1.359 . S
N290 C293 1.327 . S
C291 H277 0.931 . S
C291 C293 1.392 . S
C291 C294 1.370 . S
C292 C288 1.432 . S
C292 N290 1.359 . S
C292 C295 1.414 . S
C293 H275 0.930 . S
C293 N290 1.327 . S
C293 C291 1.392 . S
C294 H289 0.930 . S
C294 C291 1.370 . S
C294 C295 1.385 . S
C295 C292 1.414 . S
C295 C294 1.385 . S
C295 C317 1.444 . S
O296 Tb252 2.546 . S
O296 C316 1.251 . S
O297 Tb252 2.610 . S
O297 Tb263 2.362 . S
O297 C308 1.283 . S
O298 Tb263 2.421 . S
O298 C315 1.262 . S
O299 Tb252 2.320 . S
O299 C315 1.260 . S
O300 Tb252 2.552 . S
O300 C308 1.243 . S
O301 Tb252 2.413 . S
O301 C316 1.256 . S
O302 Tb263 2.546 . S
O302 C327 1.251 . S
O303 Tb252 2.362 . S
O303 Tb263 2.610 . S
O303 C319 1.283 . S
O304 Tb252 2.421 . S
O304 C326 1.262 . S
O305 Tb263 2.320 . S
O305 C326 1.260 . S
O306 Tb263 2.552 . S
O306 C319 1.243 . S
O307 Tb263 2.413 . S
O307 C327 1.256 . S
C308 O297 1.283 . S
C308 O300 1.243 . S
C309 C311 1.382 . S
C309 C313 1.393 . S
C309 C316 1.500 . S
C310 C311 1.400 . S
C310 C312 1.384 . S
C311 C309 1.382 . S
C311 C310 1.400 . S
C311 H328 0.930 . S
C312 C310 1.384 . S
C312 C314 1.392 . S
C312 H329 0.931 . S
C313 C309 1.393 . S
C313 C314 1.401 . S
C313 H330 0.930 . S
C314 C312 1.392 . S
C314 C313 1.401 . S
C314 H331 0.930 . S
C315 O298 1.262 . S
C315 O299 1.260 . S
C316 Tb252 2.833 . S
C316 O296 1.251 . S
C316 O301 1.256 . S
C316 C309 1.500 . S
C317 H282 0.929 . S
C317 C295 1.444 . S
C317 C318 1.317 . S
C318 H280 0.930 . S
C318 C286 1.432 . S
C318 C317 1.317 . S
C319 O303 1.283 . S
C319 O306 1.243 . S
C320 C321 1.382 . S
C320 C324 1.393 . S
C320 C327 1.500 . S
C321 C320 1.382 . S
C321 C322 1.400 . S
C321 H332 0.930 . S
C322 C321 1.400 . S
C322 C323 1.384 . S
C323 C322 1.384 . S
C323 C325 1.392 . S
C323 H333 0.931 . S
C324 C320 1.393 . S
C324 C325 1.401 . S
C324 H334 0.930 . S
C325 C323 1.392 . S
C325 C324 1.401 . S
C325 H335 0.930 . S
C326 O304 1.262 . S
C326 O305 1.260 . S
C327 Tb263 2.833 . S
C327 O302 1.251 . S
C327 O307 1.256 . S
C327 C320 1.500 . S
H328 C311 0.930 . S
H329 C312 0.931 . S
H330 C313 0.930 . S
H331 C314 0.930 . S
H332 C321 0.930 . S
H333 C323 0.931 . S
H334 C324 0.930 . S
H335 C325 0.930 . S
Tb336 N367 2.660 . S
Tb336 N374 2.600 . S
Tb336 O380 2.546 . S
Tb336 O381 2.610 . S
Tb336 O383 2.320 . S
Tb336 O384 2.552 . S
Tb336 O385 2.413 . S
Tb336 O387 2.362 . S
Tb336 O388 2.421 . S
Tb336 C400 2.833 . S
C337 C340 1.432 . S
C337 C341 1.414 . S
C337 N344 1.359 . S
C338 C340 1.417 . S
C338 C342 1.432 . S
C338 C350 1.410 . S
C339 C341 1.444 . S
C339 C342 1.317 . S
C339 H362 0.929 . S
C340 C337 1.432 . S
C340 C338 1.417 . S
C340 N348 1.360 . S
C341 C337 1.414 . S
C341 C339 1.444 . S
C341 C346 1.385 . S
C342 C338 1.432 . S
C342 C339 1.317 . S
C342 H354 0.930 . S
C343 C345 1.392 . S
C343 C346 1.370 . S
C343 H355 0.931 . S
N344 C337 1.359 . S
N344 C345 1.327 . S
N344 Tb347 2.600 . S
C345 C343 1.392 . S
C345 N344 1.327 . S
C345 H352 0.930 . S
C346 C341 1.385 . S
C346 C343 1.370 . S
C346 H365 0.930 . S
Tb347 N344 2.600 . S
Tb347 N348 2.660 . S
Tb347 O381 2.362 . S
Tb347 O382 2.421 . S
Tb347 O386 2.546 . S
Tb347 O387 2.610 . S
Tb347 O389 2.320 . S
Tb347 O390 2.552 . S
Tb347 O391 2.413 . S
Tb347 C411 2.833 . S
N348 C340 1.360 . S
N348 Tb347 2.660 . S
N348 C349 1.305 . S
C349 N348 1.305 . S
C349 C351 1.407 . S
C349 H356 0.930 . S
C350 C338 1.410 . S
C350 C351 1.345 . S
C350 H358 0.930 . S
C351 C349 1.407 . S
C351 C350 1.345 . S
C351 H353 0.930 . S
H352 C345 0.930 . S
H353 C351 0.930 . S
H354 C342 0.930 . S
H355 C343 0.931 . S
H356 C349 0.930 . S
H357 C371 0.930 . S
H358 C350 0.930 . S
H359 C377 0.930 . S
H360 C368 0.930 . S
H361 C375 0.931 . S
H362 C339 0.929 . S
H363 C369 0.930 . S
H364 C402 0.930 . S
H365 C346 0.930 . S
H366 C401 0.929 . S
N367 Tb336 2.660 . S
N367 C368 1.305 . S
N367 C372 1.360 . S
C368 H360 0.930 . S
C368 N367 1.305 . S
C368 C371 1.407 . S
C369 H363 0.930 . S
C369 C370 1.410 . S
C369 C371 1.345 . S
C370 C369 1.410 . S
C370 C372 1.417 . S
C370 C402 1.432 . S
C371 H357 0.930 . S
C371 C368 1.407 . S
C371 C369 1.345 . S
C372 N367 1.360 . S
C372 C370 1.417 . S
C372 C376 1.432 . S
H373 C378 0.930 . S
N374 Tb336 2.600 . S
N374 C376 1.359 . S
N374 C377 1.327 . S
C375 H361 0.931 . S
C375 C377 1.392 . S
C375 C378 1.370 . S
C376 C372 1.432 . S
C376 N374 1.359 . S
C376 C379 1.414 . S
C377 H359 0.930 . S
C377 N374 1.327 . S
C377 C375 1.392 . S
C378 H373 0.930 . S
C378 C375 1.370 . S
C378 C379 1.385 . S
C379 C376 1.414 . S
C379 C378 1.385 . S
C379 C401 1.444 . S
O380 Tb336 2.546 . S
O380 C400 1.251 . S
O381 Tb336 2.610 . S
O381 Tb347 2.362 . S
O381 C392 1.283 . S
O382 Tb347 2.421 . S
O382 C399 1.262 . S
O383 Tb336 2.320 . S
O383 C399 1.260 . S
O384 Tb336 2.552 . S
O384 C392 1.243 . S
O385 Tb336 2.413 . S
O385 C400 1.256 . S
O386 Tb347 2.546 . S
O386 C411 1.251 . S
O387 Tb336 2.362 . S
O387 Tb347 2.610 . S
O387 C403 1.283 . S
O388 Tb336 2.421 . S
O388 C410 1.262 . S
O389 Tb347 2.320 . S
O389 C410 1.260 . S
O390 Tb347 2.552 . S
O390 C403 1.243 . S
O391 Tb347 2.413 . S
O391 C411 1.256 . S
C392 O381 1.283 . S
C392 O384 1.243 . S
C393 C395 1.382 . S
C393 C397 1.393 . S
C393 C400 1.500 . S
C394 C395 1.400 . S
C394 C396 1.384 . S
C395 C393 1.382 . S
C395 C394 1.400 . S
C395 H412 0.930 . S
C396 C394 1.384 . S
C396 C398 1.392 . S
C396 H413 0.931 . S
C397 C393 1.393 . S
C397 C398 1.401 . S
C397 H414 0.930 . S
C398 C396 1.392 . S
C398 C397 1.401 . S
C398 H415 0.930 . S
C399 O382 1.262 . S
C399 O383 1.260 . S
C400 Tb336 2.833 . S
C400 O380 1.251 . S
C400 O385 1.256 . S
C400 C393 1.500 . S
C401 H366 0.929 . S
C401 C379 1.444 . S
C401 C402 1.317 . S
C402 H364 0.930 . S
C402 C370 1.432 . S
C402 C401 1.317 . S
C403 O387 1.283 . S
C403 O390 1.243 . S
C404 C405 1.382 . S
C404 C408 1.393 . S
C404 C411 1.500 . S
C405 C404 1.382 . S
C405 C406 1.400 . S
C405 H416 0.930 . S
C406 C405 1.400 . S
C406 C407 1.384 . S
C407 C406 1.384 . S
C407 C409 1.392 . S
C407 H417 0.931 . S
C408 C404 1.393 . S
C408 C409 1.401 . S
C408 H418 0.930 . S
C409 C407 1.392 . S
C409 C408 1.401 . S
C409 H419 0.930 . S
C410 O388 1.262 . S
C410 O389 1.260 . S
C411 Tb347 2.833 . S
C411 O386 1.251 . S
C411 O391 1.256 . S
C411 C404 1.500 . S
H412 C395 0.930 . S
H413 C396 0.931 . S
H414 C397 0.930 . S
H415 C398 0.930 . S
H416 C405 0.930 . S
H417 C407 0.931 . S
H418 C408 0.930 . S
H419 C409 0.930 . S
Tb420 N451 2.660 . S
Tb420 N458 2.600 . S
Tb420 O464 2.546 . S
Tb420 O465 2.610 . S
Tb420 O467 2.320 . S
Tb420 O468 2.552 . S
Tb420 O469 2.413 . S
Tb420 O471 2.362 . S
Tb420 O472 2.421 . S
Tb420 C484 2.833 . S
C421 C424 1.432 . S
C421 C425 1.414 . S
C421 N428 1.359 . S
C422 C424 1.417 . S
C422 C426 1.432 . S
C422 C434 1.410 . S
C423 C425 1.444 . S
C423 C426 1.317 . S
C423 H446 0.929 . S
C424 C421 1.432 . S
C424 C422 1.417 . S
C424 N432 1.360 . S
C425 C421 1.414 . S
C425 C423 1.444 . S
C425 C430 1.385 . S
C426 C422 1.432 . S
C426 C423 1.317 . S
C426 H438 0.930 . S
C427 C429 1.392 . S
C427 C430 1.370 . S
C427 H439 0.931 . S
N428 C421 1.359 . S
N428 C429 1.327 . S
N428 Tb431 2.600 . S
C429 C427 1.392 . S
C429 N428 1.327 . S
C429 H436 0.930 . S
C430 C425 1.385 . S
C430 C427 1.370 . S
C430 H449 0.930 . S
Tb431 N428 2.600 . S
Tb431 N432 2.660 . S
Tb431 O465 2.362 . S
Tb431 O466 2.421 . S
Tb431 O470 2.546 . S
Tb431 O471 2.610 . S
Tb431 O473 2.320 . S
Tb431 O474 2.552 . S
Tb431 O475 2.413 . S
Tb431 C495 2.833 . S
N432 C424 1.360 . S
N432 Tb431 2.660 . S
N432 C433 1.305 . S
C433 N432 1.305 . S
C433 C435 1.407 . S
C433 H440 0.930 . S
C434 C422 1.410 . S
C434 C435 1.345 . S
C434 H442 0.930 . S
C435 C433 1.407 . S
C435 C434 1.345 . S
C435 H437 0.930 . S
H436 C429 0.930 . S
H437 C435 0.930 . S
H438 C426 0.930 . S
H439 C427 0.931 . S
H440 C433 0.930 . S
H441 C455 0.930 . S
H442 C434 0.930 . S
H443 C461 0.930 . S
H444 C452 0.930 . S
H445 C459 0.931 . S
H446 C423 0.929 . S
H447 C453 0.930 . S
H448 C486 0.930 . S
H449 C430 0.930 . S
H450 C485 0.929 . S
N451 Tb420 2.660 . S
N451 C452 1.305 . S
N451 C456 1.360 . S
C452 H444 0.930 . S
C452 N451 1.305 . S
C452 C455 1.407 . S
C453 H447 0.930 . S
C453 C454 1.410 . S
C453 C455 1.345 . S
C454 C453 1.410 . S
C454 C456 1.417 . S
C454 C486 1.432 . S
C455 H441 0.930 . S
C455 C452 1.407 . S
C455 C453 1.345 . S
C456 N451 1.360 . S
C456 C454 1.417 . S
C456 C460 1.432 . S
H457 C462 0.930 . S
N458 Tb420 2.600 . S
N458 C460 1.359 . S
N458 C461 1.327 . S
C459 H445 0.931 . S
C459 C461 1.392 . S
C459 C462 1.370 . S
C460 C456 1.432 . S
C460 N458 1.359 . S
C460 C463 1.414 . S
C461 H443 0.930 . S
C461 N458 1.327 . S
C461 C459 1.392 . S
C462 H457 0.930 . S
C462 C459 1.370 . S
C462 C463 1.385 . S
C463 C460 1.414 . S
C463 C462 1.385 . S
C463 C485 1.444 . S
O464 Tb420 2.546 . S
O464 C484 1.251 . S
O465 Tb420 2.610 . S
O465 Tb431 2.362 . S
O465 C476 1.283 . S
O466 Tb431 2.421 . S
O466 C483 1.262 . S
O467 Tb420 2.320 . S
O467 C483 1.260 . S
O468 Tb420 2.552 . S
O468 C476 1.243 . S
O469 Tb420 2.413 . S
O469 C484 1.256 . S
O470 Tb431 2.546 . S
O470 C495 1.251 . S
O471 Tb420 2.362 . S
O471 Tb431 2.610 . S
O471 C487 1.283 . S
O472 Tb420 2.421 . S
O472 C494 1.262 . S
O473 Tb431 2.320 . S
O473 C494 1.260 . S
O474 Tb431 2.552 . S
O474 C487 1.243 . S
O475 Tb431 2.413 . S
O475 C495 1.256 . S
C476 O465 1.283 . S
C476 O468 1.243 . S
C477 C479 1.382 . S
C477 C481 1.393 . S
C477 C484 1.500 . S
C478 C479 1.400 . S
C478 C480 1.384 . S
C479 C477 1.382 . S
C479 C478 1.400 . S
C479 H496 0.930 . S
C480 C478 1.384 . S
C480 C482 1.392 . S
C480 H497 0.931 . S
C481 C477 1.393 . S
C481 C482 1.401 . S
C481 H498 0.930 . S
C482 C480 1.392 . S
C482 C481 1.401 . S
C482 H499 0.930 . S
C483 O466 1.262 . S
C483 O467 1.260 . S
C484 Tb420 2.833 . S
C484 O464 1.251 . S
C484 O469 1.256 . S
C484 C477 1.500 . S
C485 H450 0.929 . S
C485 C463 1.444 . S
C485 C486 1.317 . S
C486 H448 0.930 . S
C486 C454 1.432 . S
C486 C485 1.317 . S
C487 O471 1.283 . S
C487 O474 1.243 . S
C488 C489 1.382 . S
C488 C492 1.393 . S
C488 C495 1.500 . S
C489 C488 1.382 . S
C489 C490 1.400 . S
C489 H500 0.930 . S
C490 C489 1.400 . S
C490 C491 1.384 . S
C491 C490 1.384 . S
C491 C493 1.392 . S
C491 H501 0.931 . S
C492 C488 1.393 . S
C492 C493 1.401 . S
C492 H502 0.930 . S
C493 C491 1.392 . S
C493 C492 1.401 . S
C493 H503 0.930 . S
C494 O472 1.262 . S
C494 O473 1.260 . S
C495 Tb431 2.833 . S
C495 O470 1.251 . S
C495 O475 1.256 . S
C495 C488 1.500 . S
H496 C479 0.930 . S
H497 C480 0.931 . S
H498 C481 0.930 . S
H499 C482 0.930 . S
H500 C489 0.930 . S
H501 C491 0.931 . S
H502 C492 0.930 . S
H503 C493 0.930 . S
Tb504 N535 2.660 . S
Tb504 N542 2.600 . S
Tb504 O548 2.546 . S
Tb504 O549 2.610 . S
Tb504 O551 2.320 . S
Tb504 O552 2.552 . S
Tb504 O553 2.413 . S
Tb504 O555 2.362 . S
Tb504 O556 2.421 . S
Tb504 C568 2.833 . S
C505 C508 1.432 . S
C505 C509 1.414 . S
C505 N512 1.359 . S
C506 C508 1.417 . S
C506 C510 1.432 . S
C506 C518 1.410 . S
C507 C509 1.444 . S
C507 C510 1.317 . S
C507 H530 0.929 . S
C508 C505 1.432 . S
C508 C506 1.417 . S
C508 N516 1.360 . S
C509 C505 1.414 . S
C509 C507 1.444 . S
C509 C514 1.385 . S
C510 C506 1.432 . S
C510 C507 1.317 . S
C510 H522 0.930 . S
C511 C513 1.392 . S
C511 C514 1.370 . S
C511 H523 0.931 . S
N512 C505 1.359 . S
N512 C513 1.327 . S
N512 Tb515 2.600 . S
C513 C511 1.392 . S
C513 N512 1.327 . S
C513 H520 0.930 . S
C514 C509 1.385 . S
C514 C511 1.370 . S
C514 H533 0.930 . S
Tb515 N512 2.600 . S
Tb515 N516 2.660 . S
Tb515 O549 2.362 . S
Tb515 O550 2.421 . S
Tb515 O554 2.546 . S
Tb515 O555 2.610 . S
Tb515 O557 2.320 . S
Tb515 O558 2.552 . S
Tb515 O559 2.413 . S
Tb515 C579 2.833 . S
N516 C508 1.360 . S
N516 Tb515 2.660 . S
N516 C517 1.305 . S
C517 N516 1.305 . S
C517 C519 1.407 . S
C517 H524 0.930 . S
C518 C506 1.410 . S
C518 C519 1.345 . S
C518 H526 0.930 . S
C519 C517 1.407 . S
C519 C518 1.345 . S
C519 H521 0.930 . S
H520 C513 0.930 . S
H521 C519 0.930 . S
H522 C510 0.930 . S
H523 C511 0.931 . S
H524 C517 0.930 . S
H525 C539 0.930 . S
H526 C518 0.930 . S
H527 C545 0.930 . S
H528 C536 0.930 . S
H529 C543 0.931 . S
H530 C507 0.929 . S
H531 C537 0.930 . S
H532 C570 0.930 . S
H533 C514 0.930 . S
H534 C569 0.929 . S
N535 Tb504 2.660 . S
N535 C536 1.305 . S
N535 C540 1.360 . S
C536 H528 0.930 . S
C536 N535 1.305 . S
C536 C539 1.407 . S
C537 H531 0.930 . S
C537 C538 1.410 . S
C537 C539 1.345 . S
C538 C537 1.410 . S
C538 C540 1.417 . S
C538 C570 1.432 . S
C539 H525 0.930 . S
C539 C536 1.407 . S
C539 C537 1.345 . S
C540 N535 1.360 . S
C540 C538 1.417 . S
C540 C544 1.432 . S
H541 C546 0.930 . S
N542 Tb504 2.600 . S
N542 C544 1.359 . S
N542 C545 1.327 . S
C543 H529 0.931 . S
C543 C545 1.392 . S
C543 C546 1.370 . S
C544 C540 1.432 . S
C544 N542 1.359 . S
C544 C547 1.414 . S
C545 H527 0.930 . S
C545 N542 1.327 . S
C545 C543 1.392 . S
C546 H541 0.930 . S
C546 C543 1.370 . S
C546 C547 1.385 . S
C547 C544 1.414 . S
C547 C546 1.385 . S
C547 C569 1.444 . S
O548 Tb504 2.546 . S
O548 C568 1.251 . S
O549 Tb504 2.610 . S
O549 Tb515 2.362 . S
O549 C560 1.283 . S
O550 Tb515 2.421 . S
O550 C567 1.262 . S
O551 Tb504 2.320 . S
O551 C567 1.260 . S
O552 Tb504 2.552 . S
O552 C560 1.243 . S
O553 Tb504 2.413 . S
O553 C568 1.256 . S
O554 Tb515 2.546 . S
O554 C579 1.251 . S
O555 Tb504 2.362 . S
O555 Tb515 2.610 . S
O555 C571 1.283 . S
O556 Tb504 2.421 . S
O556 C578 1.262 . S
O557 Tb515 2.320 . S
O557 C578 1.260 . S
O558 Tb515 2.552 . S
O558 C571 1.243 . S
O559 Tb515 2.413 . S
O559 C579 1.256 . S
C560 O549 1.283 . S
C560 O552 1.243 . S
C561 C563 1.382 . S
C561 C565 1.393 . S
C561 C568 1.500 . S
C562 C563 1.400 . S
C562 C564 1.384 . S
C563 C561 1.382 . S
C563 C562 1.400 . S
C563 H580 0.930 . S
C564 C562 1.384 . S
C564 C566 1.392 . S
C564 H581 0.931 . S
C565 C561 1.393 . S
C565 C566 1.401 . S
C565 H582 0.930 . S
C566 C564 1.392 . S
C566 C565 1.401 . S
C566 H583 0.930 . S
C567 O550 1.262 . S
C567 O551 1.260 . S
C568 Tb504 2.833 . S
C568 O548 1.251 . S
C568 O553 1.256 . S
C568 C561 1.500 . S
C569 H534 0.929 . S
C569 C547 1.444 . S
C569 C570 1.317 . S
C570 H532 0.930 . S
C570 C538 1.432 . S
C570 C569 1.317 . S
C571 O555 1.283 . S
C571 O558 1.243 . S
C572 C573 1.382 . S
C572 C576 1.393 . S
C572 C579 1.500 . S
C573 C572 1.382 . S
C573 C574 1.400 . S
C573 H584 0.930 . S
C574 C573 1.400 . S
C574 C575 1.384 . S
C575 C574 1.384 . S
C575 C577 1.392 . S
C575 H585 0.931 . S
C576 C572 1.393 . S
C576 C577 1.401 . S
C576 H586 0.930 . S
C577 C575 1.392 . S
C577 C576 1.401 . S
C577 H587 0.930 . S
C578 O556 1.262 . S
C578 O557 1.260 . S
C579 Tb515 2.833 . S
C579 O554 1.251 . S
C579 O559 1.256 . S
C579 C572 1.500 . S
H580 C563 0.930 . S
H581 C564 0.931 . S
H582 C565 0.930 . S
H583 C566 0.930 . S
H584 C573 0.930 . S
H585 C575 0.931 . S
H586 C576 0.930 . S
H587 C577 0.930 . S
Tb588 N619 2.660 . S
Tb588 N626 2.600 . S
Tb588 O632 2.546 . S
Tb588 O633 2.610 . S
Tb588 O635 2.320 . S
Tb588 O636 2.552 . S
Tb588 O637 2.413 . S
Tb588 O639 2.362 . S
Tb588 O640 2.421 . S
Tb588 C652 2.833 . S
C589 C592 1.432 . S
C589 C593 1.414 . S
C589 N596 1.359 . S
C590 C592 1.417 . S
C590 C594 1.432 . S
C590 C602 1.410 . S
C591 C593 1.444 . S
C591 C594 1.317 . S
C591 H614 0.929 . S
C592 C589 1.432 . S
C592 C590 1.417 . S
C592 N600 1.360 . S
C593 C589 1.414 . S
C593 C591 1.444 . S
C593 C598 1.385 . S
C594 C590 1.432 . S
C594 C591 1.317 . S
C594 H606 0.930 . S
C595 C597 1.392 . S
C595 C598 1.370 . S
C595 H607 0.931 . S
N596 C589 1.359 . S
N596 C597 1.327 . S
N596 Tb599 2.600 . S
C597 C595 1.392 . S
C597 N596 1.327 . S
C597 H604 0.930 . S
C598 C593 1.385 . S
C598 C595 1.370 . S
C598 H617 0.930 . S
Tb599 N596 2.600 . S
Tb599 N600 2.660 . S
Tb599 O633 2.362 . S
Tb599 O634 2.421 . S
Tb599 O638 2.546 . S
Tb599 O639 2.610 . S
Tb599 O641 2.320 . S
Tb599 O642 2.552 . S
Tb599 O643 2.413 . S
Tb599 C663 2.833 . S
N600 C592 1.360 . S
N600 Tb599 2.660 . S
N600 C601 1.305 . S
C601 N600 1.305 . S
C601 C603 1.407 . S
C601 H608 0.930 . S
C602 C590 1.410 . S
C602 C603 1.345 . S
C602 H610 0.930 . S
C603 C601 1.407 . S
C603 C602 1.345 . S
C603 H605 0.930 . S
H604 C597 0.930 . S
H605 C603 0.930 . S
H606 C594 0.930 . S
H607 C595 0.931 . S
H608 C601 0.930 . S
H609 C623 0.930 . S
H610 C602 0.930 . S
H611 C629 0.930 . S
H612 C620 0.930 . S
H613 C627 0.931 . S
H614 C591 0.929 . S
H615 C621 0.930 . S
H616 C654 0.930 . S
H617 C598 0.930 . S
H618 C653 0.929 . S
N619 Tb588 2.660 . S
N619 C620 1.305 . S
N619 C624 1.360 . S
C620 H612 0.930 . S
C620 N619 1.305 . S
C620 C623 1.407 . S
C621 H615 0.930 . S
C621 C622 1.410 . S
C621 C623 1.345 . S
C622 C621 1.410 . S
C622 C624 1.417 . S
C622 C654 1.432 . S
C623 H609 0.930 . S
C623 C620 1.407 . S
C623 C621 1.345 . S
C624 N619 1.360 . S
C624 C622 1.417 . S
C624 C628 1.432 . S
H625 C630 0.930 . S
N626 Tb588 2.600 . S
N626 C628 1.359 . S
N626 C629 1.327 . S
C627 H613 0.931 . S
C627 C629 1.392 . S
C627 C630 1.370 . S
C628 C624 1.432 . S
C628 N626 1.359 . S
C628 C631 1.414 . S
C629 H611 0.930 . S
C629 N626 1.327 . S
C629 C627 1.392 . S
C630 H625 0.930 . S
C630 C627 1.370 . S
C630 C631 1.385 . S
C631 C628 1.414 . S
C631 C630 1.385 . S
C631 C653 1.444 . S
O632 Tb588 2.546 . S
O632 C652 1.251 . S
O633 Tb588 2.610 . S
O633 Tb599 2.362 . S
O633 C644 1.283 . S
O634 Tb599 2.421 . S
O634 C651 1.262 . S
O635 Tb588 2.320 . S
O635 C651 1.260 . S
O636 Tb588 2.552 . S
O636 C644 1.243 . S
O637 Tb588 2.413 . S
O637 C652 1.256 . S
O638 Tb599 2.546 . S
O638 C663 1.251 . S
O639 Tb588 2.362 . S
O639 Tb599 2.610 . S
O639 C655 1.283 . S
O640 Tb588 2.421 . S
O640 C662 1.262 . S
O641 Tb599 2.320 . S
O641 C662 1.260 . S
O642 Tb599 2.552 . S
O642 C655 1.243 . S
O643 Tb599 2.413 . S
O643 C663 1.256 . S
C644 O633 1.283 . S
C644 O636 1.243 . S
C645 C647 1.382 . S
C645 C649 1.393 . S
C645 C652 1.500 . S
C646 C647 1.400 . S
C646 C648 1.384 . S
C647 C645 1.382 . S
C647 C646 1.400 . S
C647 H664 0.930 . S
C648 C646 1.384 . S
C648 C650 1.392 . S
C648 H665 0.931 . S
C649 C645 1.393 . S
C649 C650 1.401 . S
C649 H666 0.930 . S
C650 C648 1.392 . S
C650 C649 1.401 . S
C650 H667 0.930 . S
C651 O634 1.262 . S
C651 O635 1.260 . S
C652 Tb588 2.833 . S
C652 O632 1.251 . S
C652 O637 1.256 . S
C652 C645 1.500 . S
C653 H618 0.929 . S
C653 C631 1.444 . S
C653 C654 1.317 . S
C654 H616 0.930 . S
C654 C622 1.432 . S
C654 C653 1.317 . S
C655 O639 1.283 . S
C655 O642 1.243 . S
C656 C657 1.382 . S
C656 C660 1.393 . S
C656 C663 1.500 . S
C657 C656 1.382 . S
C657 C658 1.400 . S
C657 H668 0.930 . S
C658 C657 1.400 . S
C658 C659 1.384 . S
C659 C658 1.384 . S
C659 C661 1.392 . S
C659 H669 0.931 . S
C660 C656 1.393 . S
C660 C661 1.401 . S
C660 H670 0.930 . S
C661 C659 1.392 . S
C661 C660 1.401 . S
C661 H671 0.930 . S
C662 O640 1.262 . S
C662 O641 1.260 . S
C663 Tb599 2.833 . S
C663 O638 1.251 . S
C663 O643 1.256 . S
C663 C656 1.500 . S
H664 C647 0.930 . S
H665 C648 0.931 . S
H666 C649 0.930 . S
H667 C650 0.930 . S
H668 C657 0.930 . S
H669 C659 0.931 . S
H670 C660 0.930 . S
H671 C661 0.930 . S
Co672 O675 2.042 . S
Co672 O682 2.264 . S
Co672 O701 2.286 . S
Co672 O702 2.069 . S
Co672 O704 2.015 1_455 S
Co673 O675 2.122 . S
Co673 O681 2.073 . S
Co673 O682 2.327 . S
Co673 O683 1.976 1_455 S
Co674 O675 2.091 1_545 S
Co674 O677 2.083 1_455 S
Co674 O684 2.107 1_445 S
Co674 O685 2.147 . S
Co674 O689 2.116 . S
Co674 O703 2.140 1_445 S
O675 Co672 2.042 . S
O675 Co673 2.122 . S
O675 Co674 2.091 1_565 S
O675 H676 0.980 . S
H676 O675 0.980 . S
O677 Co674 2.083 1_655 S
O677 Co678 2.042 . S
O677 Co679 2.122 . S
O677 H680 0.980 . S
Co678 O677 2.042 . S
Co678 O686 2.286 . S
Co678 O687 2.069 . S
Co678 O688 2.015 1_655 S
Co678 O691 2.264 . S
Co679 O677 2.122 . S
Co679 O690 1.976 1_655 S
Co679 O691 2.327 . S
Co679 O692 2.073 . S
H680 O677 0.980 . S
O681 Co673 2.073 . S
O681 C696 1.245 . S
O682 Co672 2.264 . S
O682 Co673 2.327 . S
O682 C696 1.257 . S
O683 Co673 1.976 1_655 S
O683 C695 1.251 . S
O684 Co674 2.107 1_665 S
O684 C695 1.274 . S
O685 Co674 2.147 . S
O685 C698 1.246 . S
O686 Co678 2.286 . S
O686 C697 1.259 . S
O687 Co678 2.069 . S
O687 C697 1.289 . S
O688 Co678 2.015 1_455 S
O688 C698 1.257 . S
O689 Co674 2.116 . S
O689 C699 1.274 . S
O690 Co679 1.976 1_455 S
O690 C699 1.251 . S
O691 Co678 2.264 . S
O691 Co679 2.327 . S
O691 C700 1.257 . S
O692 Co679 2.073 . S
O692 C700 1.245 . S
C693 O701 1.259 . S
C693 O702 1.289 . S
C694 O703 1.246 . S
C694 O704 1.257 . S
C695 O683 1.251 . S
C695 O684 1.274 . S
C696 O681 1.245 . S
C696 O682 1.257 . S
C697 O686 1.259 . S
C697 O687 1.289 . S
C698 O685 1.246 . S
C698 O688 1.257 . S
C699 O689 1.274 . S
C699 O690 1.251 . S
C700 O691 1.257 . S
C700 O692 1.245 . S
O701 Co672 2.286 . S
O701 C693 1.259 . S
O702 Co672 2.069 . S
O702 C693 1.289 . S
O703 Co674 2.140 1_665 S
O703 C694 1.246 . S
O704 Co672 2.015 1_655 S
O704 C694 1.257 . S
Co705 O708 2.042 1_556 S
Co705 O715 2.264 1_556 S
Co705 O734 2.286 . S
Co705 O735 2.069 . S
Co705 O737 2.015 . S
Co706 O708 2.122 . S
Co706 O714 2.073 . S
Co706 O715 2.327 . S
Co706 O716 1.976 . S
Co707 O708 2.084 1_545 S
Co707 O710 2.090 1_554 S
Co707 O717 2.111 1_545 S
Co707 O718 2.145 . S
Co707 O722 2.112 1_554 S
Co707 O736 2.142 1_544 S
O708 Co705 2.042 1_554 S
O708 Co706 2.122 . S
O708 Co707 2.084 1_565 S
O708 H709 0.980 . S
H709 O708 0.980 . S
O710 Co707 2.090 1_556 S
O710 Co711 2.042 1_556 S
O710 Co712 2.122 . S
O710 H713 0.980 . S
Co711 O710 2.042 1_554 S
Co711 O719 2.286 . S
Co711 O720 2.069 . S
Co711 O721 2.015 . S
Co711 O724 2.264 1_554 S
Co712 O710 2.122 . S
Co712 O723 1.976 . S
Co712 O724 2.327 . S
Co712 O725 2.073 . S
H713 O710 0.980 . S
O714 Co706 2.073 . S
O714 C729 1.245 . S
O715 Co705 2.264 1_554 S
O715 Co706 2.327 . S
O715 C729 1.257 . S
O716 Co706 1.976 . S
O716 C728 1.251 . S
O717 Co707 2.111 1_565 S
O717 C728 1.274 . S
O718 Co707 2.145 . S
O718 C731 1.246 . S
O719 Co711 2.286 . S
O719 C730 1.259 . S
O720 Co711 2.069 . S
O720 C730 1.289 . S
O721 Co711 2.015 . S
O721 C731 1.257 . S
O722 Co707 2.112 1_556 S
O722 C732 1.274 . S
O723 Co712 1.976 . S
O723 C732 1.251 . S
O724 Co711 2.264 1_556 S
O724 Co712 2.327 . S
O724 C733 1.257 . S
O725 Co712 2.073 . S
O725 C733 1.245 . S
C726 O734 1.259 . S
C726 O735 1.289 . S
C727 O736 1.246 . S
C727 O737 1.257 . S
C728 O716 1.251 . S
C728 O717 1.274 . S
C729 O714 1.245 . S
C729 O715 1.257 . S
C730 O719 1.259 . S
C730 O720 1.289 . S
C731 O718 1.246 . S
C731 O721 1.257 . S
C732 O722 1.274 . S
C732 O723 1.251 . S
C733 O724 1.257 . S
C733 O725 1.245 . S
O734 Co705 2.286 . S
O734 C726 1.259 . S
O735 Co705 2.069 . S
O735 C726 1.289 . S
O736 Co707 2.142 1_566 S
O736 C727 1.246 . S
O737 Co705 2.015 . S
O737 C727 1.257 . S
Co738 O741 2.042 1_556 S
Co738 O748 2.264 1_556 S
Co738 O767 2.286 . S
Co738 O768 2.069 . S
Co738 O770 2.015 1_455 S
Co739 O741 2.122 . S
Co739 O747 2.073 . S
Co739 O748 2.327 . S
Co739 O749 1.976 1_455 S
Co740 O741 2.093 . S
Co740 O743 2.081 1_454 S
Co740 O750 2.107 1_455 S
Co740 O751 2.146 . S
Co740 O755 2.115 1_554 S
Co740 O769 2.141 1_454 S
O741 Co738 2.042 1_554 S
O741 Co739 2.122 . S
O741 Co740 2.093 . S
O741 H742 0.980 . S
H742 O741 0.980 . S
O743 Co740 2.081 1_656 S
O743 Co744 2.042 1_556 S
O743 Co745 2.122 . S
O743 H746 0.980 . S
Co744 O743 2.042 1_554 S
Co744 O752 2.286 . S
Co744 O753 2.069 . S
Co744 O754 2.015 1_655 S
Co744 O757 2.264 1_554 S
Co745 O743 2.122 . S
Co745 O756 1.976 1_655 S
Co745 O757 2.327 . S
Co745 O758 2.073 . S
H746 O743 0.980 . S
O747 Co739 2.073 . S
O747 C762 1.245 . S
O748 Co738 2.264 1_554 S
O748 Co739 2.327 . S
O748 C762 1.257 . S
O749 Co739 1.976 1_655 S
O749 C761 1.251 . S
O750 Co740 2.107 1_655 S
O750 C761 1.274 . S
O751 Co740 2.146 . S
O751 C764 1.246 . S
O752 Co744 2.286 . S
O752 C763 1.259 . S
O753 Co744 2.069 . S
O753 C763 1.289 . S
O754 Co744 2.015 1_455 S
O754 C764 1.257 . S
O755 Co740 2.115 1_556 S
O755 C765 1.274 . S
O756 Co745 1.976 1_455 S
O756 C765 1.251 . S
O757 Co744 2.264 1_556 S
O757 Co745 2.327 . S
O757 C766 1.257 . S
O758 Co745 2.073 . S
O758 C766 1.245 . S
C759 O767 1.259 . S
C759 O768 1.289 . S
C760 O769 1.246 . S
C760 O770 1.257 . S
C761 O749 1.251 . S
C761 O750 1.274 . S
C762 O747 1.245 . S
C762 O748 1.257 . S
C763 O752 1.259 . S
C763 O753 1.289 . S
C764 O751 1.246 . S
C764 O754 1.257 . S
C765 O755 1.274 . S
C765 O756 1.251 . S
C766 O757 1.257 . S
C766 O758 1.245 . S
O767 Co738 2.286 . S
O767 C759 1.259 . S
O768 Co738 2.069 . S
O768 C759 1.289 . S
O769 Co740 2.141 1_656 S
O769 C760 1.246 . S
O770 Co738 2.015 1_655 S
O770 C760 1.257 . S
Co771 O774 2.042 1_556 S
Co771 O781 2.264 1_556 S
Co771 O800 2.286 . S
Co771 O801 2.069 . S
Co771 O803 2.015 . S
Co772 O774 2.122 . S
Co772 O780 2.073 . S
Co772 O781 2.327 . S
Co772 O782 1.976 . S
Co773 O774 2.087 . S
Co773 O776 2.087 1_554 S
Co773 O783 2.111 . S
Co773 O784 2.143 . S
Co773 O788 2.111 1_554 S
Co773 O802 2.143 1_554 S
O774 Co771 2.042 1_554 S
O774 Co772 2.122 . S
O774 Co773 2.087 . S
O774 H775 0.980 . S
H775 O774 0.980 . S
O776 Co773 2.087 1_556 S
O776 Co777 2.042 1_556 S
O776 Co778 2.122 . S
O776 H779 0.980 . S
Co777 O776 2.042 1_554 S
Co777 O785 2.286 . S
Co777 O786 2.069 . S
Co777 O787 2.015 . S
Co777 O790 2.264 1_554 S
Co778 O776 2.122 . S
Co778 O789 1.976 . S
Co778 O790 2.327 . S
Co778 O791 2.073 . S
H779 O776 0.980 . S
O780 Co772 2.073 . S
O780 C795 1.245 . S
O781 Co771 2.264 1_554 S
O781 Co772 2.327 . S
O781 C795 1.257 . S
O782 Co772 1.976 . S
O782 C794 1.251 . S
O783 Co773 2.111 . S
O783 C794 1.274 . S
O784 Co773 2.143 . S
O784 C797 1.246 . S
O785 Co777 2.286 . S
O785 C796 1.259 . S
O786 Co777 2.069 . S
O786 C796 1.289 . S
O787 Co777 2.015 . S
O787 C797 1.257 . S
O788 Co773 2.111 1_556 S
O788 C798 1.274 . S
O789 Co778 1.976 . S
O789 C798 1.251 . S
O790 Co777 2.264 1_556 S
O790 Co778 2.327 . S
O790 C799 1.257 . S
O791 Co778 2.073 . S
O791 C799 1.245 . S
C792 O800 1.259 . S
C792 O801 1.289 . S
C793 O802 1.246 . S
C793 O803 1.257 . S
C794 O782 1.251 . S
C794 O783 1.274 . S
C795 O780 1.245 . S
C795 O781 1.257 . S
C796 O785 1.259 . S
C796 O786 1.289 . S
C797 O784 1.246 . S
C797 O787 1.257 . S
C798 O788 1.274 . S
C798 O789 1.251 . S
C799 O790 1.257 . S
C799 O791 1.245 . S
O800 Co771 2.286 . S
O800 C792 1.259 . S
O801 Co771 2.069 . S
O801 C792 1.289 . S
O802 Co773 2.143 1_556 S
O802 C793 1.246 . S
O803 Co771 2.015 . S
O803 C793 1.257 . S
Co804 O807 2.042 . S
Co804 O814 2.264 . S
Co804 O833 2.286 . S
Co804 O834 2.069 . S
Co804 O836 2.015 . S
Co805 O807 2.122 . S
Co805 O813 2.073 . S
Co805 O814 2.327 . S
Co805 O815 1.976 . S
Co806 O807 2.094 . S
Co806 O809 2.080 1_455 S
Co806 O816 2.113 . S
Co806 O817 2.140 1_455 S
Co806 O821 2.109 1_455 S
Co806 O835 2.147 . S
O807 Co804 2.042 . S
O807 Co805 2.122 . S
O807 Co806 2.094 . S
O807 H808 0.980 . S
H808 O807 0.980 . S
O809 Co806 2.080 1_655 S
O809 Co810 2.042 . S
O809 Co811 2.122 . S
O809 H812 0.980 . S
Co810 O809 2.042 . S
Co810 O818 2.286 . S
Co810 O819 2.069 . S
Co810 O820 2.015 . S
Co810 O823 2.264 . S
Co811 O809 2.122 . S
Co811 O822 1.976 . S
Co811 O823 2.327 . S
Co811 O824 2.073 . S
H812 O809 0.980 . S
O813 Co805 2.073 . S
O813 C828 1.245 . S
O814 Co804 2.264 . S
O814 Co805 2.327 . S
O814 C828 1.257 . S
O815 Co805 1.976 . S
O815 C827 1.251 . S
O816 Co806 2.113 . S
O816 C827 1.274 . S
O817 Co806 2.140 1_655 S
O817 C830 1.246 . S
O818 Co810 2.286 . S
O818 C829 1.259 . S
O819 Co810 2.069 . S
O819 C829 1.289 . S
O820 Co810 2.015 . S
O820 C830 1.257 . S
O821 Co806 2.109 1_655 S
O821 C831 1.274 . S
O822 Co811 1.976 . S
O822 C831 1.251 . S
O823 Co810 2.264 . S
O823 Co811 2.327 . S
O823 C832 1.257 . S
O824 Co811 2.073 . S
O824 C832 1.245 . S
C825 O833 1.259 . S
C825 O834 1.289 . S
C826 O835 1.246 . S
C826 O836 1.257 . S
C827 O815 1.251 . S
C827 O816 1.274 . S
C828 O813 1.245 . S
C828 O814 1.257 . S
C829 O818 1.259 . S
C829 O819 1.289 . S
C830 O817 1.246 . S
C830 O820 1.257 . S
C831 O821 1.274 . S
C831 O822 1.251 . S
C832 O823 1.257 . S
C832 O824 1.245 . S
O833 Co804 2.286 . S
O833 C825 1.259 . S
O834 Co804 2.069 . S
O834 C825 1.289 . S
O835 Co806 2.147 . S
O835 C826 1.246 . S
O836 Co804 2.015 . S
O836 C826 1.257 . S
Co837 O840 2.042 . S
Co837 O847 2.264 . S
Co837 O866 2.286 . S
Co837 O867 2.069 . S
Co837 O869 2.015 1_565 S
Co838 O840 2.122 . S
Co838 O846 2.073 . S
Co838 O847 2.327 . S
Co838 O848 1.976 1_565 S
Co839 O840 2.084 1_545 S
Co839 O842 2.090 . S
Co839 O849 2.113 . S
Co839 O850 2.142 1_545 S
Co839 O854 2.110 1_545 S
Co839 O868 2.145 . S
O840 Co837 2.042 . S
O840 Co838 2.122 . S
O840 Co839 2.084 1_565 S
O840 H841 0.980 . S
H841 O840 0.980 . S
O842 Co839 2.090 . S
O842 Co843 2.042 . S
O842 Co844 2.122 . S
O842 H845 0.980 . S
Co843 O842 2.042 . S
Co843 O851 2.286 . S
Co843 O852 2.069 . S
Co843 O853 2.015 1_545 S
Co843 O856 2.264 . S
Co844 O842 2.122 . S
Co844 O855 1.976 1_545 S
Co844 O856 2.327 . S
Co844 O857 2.073 . S
H845 O842 0.980 . S
O846 Co838 2.073 . S
O846 C861 1.245 . S
O847 Co837 2.264 . S
O847 Co838 2.327 . S
O847 C861 1.257 . S
O848 Co838 1.976 1_545 S
O848 C860 1.251 . S
O849 Co839 2.113 . S
O849 C860 1.274 . S
O850 Co839 2.142 1_565 S
O850 C863 1.246 . S
O851 Co843 2.286 . S
O851 C862 1.259 . S
O852 Co843 2.069 . S
O852 C862 1.289 . S
O853 Co843 2.015 1_565 S
O853 C863 1.257 . S
O854 Co839 2.110 1_565 S
O854 C864 1.274 . S
O855 Co844 1.976 1_565 S
O855 C864 1.251 . S
O856 Co843 2.264 . S
O856 Co844 2.327 . S
O856 C865 1.257 . S
O857 Co844 2.073 . S
O857 C865 1.245 . S
C858 O866 1.259 . S
C858 O867 1.289 . S
C859 O868 1.246 . S
C859 O869 1.257 . S
C860 O848 1.251 . S
C860 O849 1.274 . S
C861 O846 1.245 . S
C861 O847 1.257 . S
C862 O851 1.259 . S
C862 O852 1.289 . S
C863 O850 1.246 . S
C863 O853 1.257 . S
C864 O854 1.274 . S
C864 O855 1.251 . S
C865 O856 1.257 . S
C865 O857 1.245 . S
O866 Co837 2.286 . S
O866 C858 1.259 . S
O867 Co837 2.069 . S
O867 C858 1.289 . S
O868 Co839 2.145 . S
O868 C859 1.246 . S
O869 Co837 2.015 1_545 S
O869 C859 1.257 . S
H870 C878 0.950 . S
H871 C883 0.950 . S
H872 C880 0.950 . S
H873 C882 0.950 . S
H874 C884 0.950 . S
H875 C886 0.950 . S
H876 C888 0.950 . S
H877 C889 0.950 . S
C878 H870 0.950 . S
C878 C879 1.386 . S
C878 C880 1.391 . S
C879 C878 1.386 . S
C879 C883 1.393 . S
C880 H872 0.950 . S
C880 C878 1.391 . S
C880 C881 1.400 . S
C881 C880 1.400 . S
C881 C882 1.398 . S
C881 C887 1.491 . S
C882 H873 0.950 . S
C882 C881 1.398 . S
C882 C883 1.391 . S
C883 H871 0.950 . S
C883 C879 1.393 . S
C883 C882 1.391 . S
C884 H874 0.950 . S
C884 C885 1.386 . S
C884 C886 1.391 . S
C885 C884 1.386 . S
C885 C889 1.393 . S
C886 H875 0.950 . S
C886 C884 1.391 . S
C886 C887 1.400 . S
C887 C881 1.491 . S
C887 C886 1.400 . S
C887 C888 1.398 . S
C888 H876 0.950 . S
C888 C887 1.398 . S
C888 C889 1.391 . S
C889 H877 0.950 . S
C889 C885 1.393 . S
C889 C888 1.391 . S
H890 C898 0.950 . S
H891 C903 0.950 . S
H892 C900 0.950 . S
H893 C902 0.950 . S
H894 C904 0.950 . S
H895 C906 0.950 . S
H896 C908 0.950 . S
H897 C909 0.950 . S
C898 H890 0.950 . S
C898 C899 1.386 . S
C898 C900 1.391 . S
C899 C898 1.386 . S
C899 C903 1.393 . S
C900 H892 0.950 . S
C900 C898 1.391 . S
C900 C901 1.400 . S
C901 C900 1.400 . S
C901 C902 1.398 . S
C901 C907 1.491 . S
C902 H893 0.950 . S
C902 C901 1.398 . S
C902 C903 1.391 . S
C903 H891 0.950 . S
C903 C899 1.393 . S
C903 C902 1.391 . S
C904 H894 0.950 . S
C904 C905 1.386 . S
C904 C906 1.391 . S
C905 C904 1.386 . S
C905 C909 1.393 . S
C906 H895 0.950 . S
C906 C904 1.391 . S
C906 C907 1.400 . S
C907 C901 1.491 . S
C907 C906 1.400 . S
C907 C908 1.398 . S
C908 H896 0.950 . S
C908 C907 1.398 . S
C908 C909 1.391 . S
C909 H897 0.950 . S
C909 C905 1.393 . S
C909 C908 1.391 . S
H910 C918 0.950 . S
H911 C923 0.950 . S
H912 C920 0.950 . S
H913 C922 0.950 . S
H914 C924 0.950 . S
H915 C926 0.950 . S
H916 C928 0.950 . S
H917 C929 0.950 . S
C918 H910 0.950 . S
C918 C919 1.386 . S
C918 C920 1.391 . S
C919 C918 1.386 . S
C919 C923 1.393 . S
C920 H912 0.950 . S
C920 C918 1.391 . S
C920 C921 1.400 . S
C921 C920 1.400 . S
C921 C922 1.398 . S
C921 C927 1.491 . S
C922 H913 0.950 . S
C922 C921 1.398 . S
C922 C923 1.391 . S
C923 H911 0.950 . S
C923 C919 1.393 . S
C923 C922 1.391 . S
C924 H914 0.950 . S
C924 C925 1.386 . S
C924 C926 1.391 . S
C925 C924 1.386 . S
C925 C929 1.393 . S
C926 H915 0.950 . S
C926 C924 1.391 . S
C926 C927 1.400 . S
C927 C921 1.491 . S
C927 C926 1.400 . S
C927 C928 1.398 . S
C928 H916 0.950 . S
C928 C927 1.398 . S
C928 C929 1.391 . S
C929 H917 0.950 . S
C929 C925 1.393 . S
C929 C928 1.391 . S
H930 C938 0.950 . S
H931 C943 0.950 . S
H932 C940 0.950 . S
H933 C942 0.950 . S
H934 C944 0.950 . S
H935 C946 0.950 . S
H936 C948 0.950 . S
H937 C949 0.950 . S
C938 H930 0.950 . S
C938 C939 1.386 . S
C938 C940 1.391 . S
C939 C938 1.386 . S
C939 C943 1.393 . S
C940 H932 0.950 . S
C940 C938 1.391 . S
C940 C941 1.400 . S
C941 C940 1.400 . S
C941 C942 1.398 . S
C941 C947 1.491 . S
C942 H933 0.950 . S
C942 C941 1.398 . S
C942 C943 1.391 . S
C943 H931 0.950 . S
C943 C939 1.393 . S
C943 C942 1.391 . S
C944 H934 0.950 . S
C944 C945 1.386 . S
C944 C946 1.391 . S
C945 C944 1.386 . S
C945 C949 1.393 . S
C946 H935 0.950 . S
C946 C944 1.391 . S
C946 C947 1.400 . S
C947 C941 1.491 . S
C947 C946 1.400 . S
C947 C948 1.398 . S
C948 H936 0.950 . S
C948 C947 1.398 . S
C948 C949 1.391 . S
C949 H937 0.950 . S
C949 C945 1.393 . S
C949 C948 1.391 . S
H950 C958 0.950 . S
H951 C963 0.950 . S
H952 C960 0.950 . S
H953 C962 0.950 . S
H954 C964 0.950 . S
H955 C966 0.950 . S
H956 C968 0.950 . S
H957 C969 0.950 . S
C958 H950 0.950 . S
C958 C959 1.386 . S
C958 C960 1.391 . S
C959 C958 1.386 . S
C959 C963 1.393 . S
C960 H952 0.950 . S
C960 C958 1.391 . S
C960 C961 1.400 . S
C961 C960 1.400 . S
C961 C962 1.398 . S
C961 C967 1.491 . S
C962 H953 0.950 . S
C962 C961 1.398 . S
C962 C963 1.391 . S
C963 H951 0.950 . S
C963 C959 1.393 . S
C963 C962 1.391 . S
C964 H954 0.950 . S
C964 C965 1.386 . S
C964 C966 1.391 . S
C965 C964 1.386 . S
C965 C969 1.393 . S
C966 H955 0.950 . S
C966 C964 1.391 . S
C966 C967 1.400 . S
C967 C961 1.491 . S
C967 C966 1.400 . S
C967 C968 1.398 . S
C968 H956 0.950 . S
C968 C967 1.398 . S
C968 C969 1.391 . S
C969 H957 0.950 . S
C969 C965 1.393 . S
C969 C968 1.391 . S
H970 C978 0.950 . S
H971 C983 0.950 . S
H972 C980 0.950 . S
H973 C982 0.950 . S
H974 C984 0.950 . S
H975 C986 0.950 . S
H976 C988 0.950 . S
H977 C989 0.950 . S
C978 H970 0.950 . S
C978 C979 1.386 . S
C978 C980 1.391 . S
C979 C978 1.386 . S
C979 C983 1.393 . S
C980 H972 0.950 . S
C980 C978 1.391 . S
C980 C981 1.400 . S
C981 C980 1.400 . S
C981 C982 1.398 . S
C981 C987 1.491 . S
C982 H973 0.950 . S
C982 C981 1.398 . S
C982 C983 1.391 . S
C983 H971 0.950 . S
C983 C979 1.393 . S
C983 C982 1.391 . S
C984 H974 0.950 . S
C984 C985 1.386 . S
C984 C986 1.391 . S
C985 C984 1.386 . S
C985 C989 1.393 . S
C986 H975 0.950 . S
C986 C984 1.391 . S
C986 C987 1.400 . S
C987 C981 1.491 . S
C987 C986 1.400 . S
C987 C988 1.398 . S
C988 H976 0.950 . S
C988 C987 1.398 . S
C988 C989 1.391 . S
C989 H977 0.950 . S
C989 C985 1.393 . S
C989 C988 1.391 . S
H990 C998 0.950 . S
H991 C1003 0.950 . S
H992 C1000 0.950 . S
H993 C1002 0.950 . S
H994 C1004 0.950 . S
H995 C1006 0.950 . S
H996 C1008 0.950 . S
H997 C1009 0.950 . S
C998 H990 0.950 . S
C998 C999 1.386 . S
C998 C1000 1.391 . S
C999 C998 1.386 . S
C999 C1003 1.393 . S
C1000 H992 0.950 . S
C1000 C998 1.391 . S
C1000 C1001 1.400 . S
C1001 C1000 1.400 . S
C1001 C1002 1.398 . S
C1001 C1007 1.491 . S
C1002 H993 0.950 . S
C1002 C1001 1.398 . S
C1002 C1003 1.391 . S
C1003 H991 0.950 . S
C1003 C999 1.393 . S
C1003 C1002 1.391 . S
C1004 H994 0.950 . S
C1004 C1005 1.386 . S
C1004 C1006 1.391 . S
C1005 C1004 1.386 . S
C1005 C1009 1.393 . S
C1006 H995 0.950 . S
C1006 C1004 1.391 . S
C1006 C1007 1.400 . S
C1007 C1001 1.491 . S
C1007 C1006 1.400 . S
C1007 C1008 1.398 . S
C1008 H996 0.950 . S
C1008 C1007 1.398 . S
C1008 C1009 1.391 . S
C1009 H997 0.950 . S
C1009 C1005 1.393 . S
C1009 C1008 1.391 . S
H1010 C1018 0.950 . S
H1011 C1023 0.950 . S
H1012 C1020 0.950 . S
H1013 C1022 0.950 . S
H1014 C1024 0.950 . S
H1015 C1026 0.950 . S
H1016 C1028 0.950 . S
H1017 C1029 0.950 . S
C1018 H1010 0.950 . S
C1018 C1019 1.386 . S
C1018 C1020 1.391 . S
C1019 C1018 1.386 . S
C1019 C1023 1.393 . S
C1020 H1012 0.950 . S
C1020 C1018 1.391 . S
C1020 C1021 1.400 . S
C1021 C1020 1.400 . S
C1021 C1022 1.398 . S
C1021 C1027 1.491 . S
C1022 H1013 0.950 . S
C1022 C1021 1.398 . S
C1022 C1023 1.391 . S
C1023 H1011 0.950 . S
C1023 C1019 1.393 . S
C1023 C1022 1.391 . S
C1024 H1014 0.950 . S
C1024 C1025 1.386 . S
C1024 C1026 1.391 . S
C1025 C1024 1.386 . S
C1025 C1029 1.393 . S
C1026 H1015 0.950 . S
C1026 C1024 1.391 . S
C1026 C1027 1.400 . S
C1027 C1021 1.491 . S
C1027 C1026 1.400 . S
C1027 C1028 1.398 . S
C1028 H1016 0.950 . S
C1028 C1027 1.398 . S
C1028 C1029 1.391 . S
C1029 H1017 0.950 . S
C1029 C1025 1.393 . S
C1029 C1028 1.391 . S
H1030 C1038 0.950 . S
H1031 C1043 0.950 . S
H1032 C1040 0.950 . S
H1033 C1042 0.950 . S
H1034 C1044 0.950 . S
H1035 C1046 0.950 . S
H1036 C1048 0.950 . S
H1037 C1049 0.950 . S
C1038 H1030 0.950 . S
C1038 C1039 1.386 . S
C1038 C1040 1.391 . S
C1039 C1038 1.386 . S
C1039 C1043 1.393 . S
C1040 H1032 0.950 . S
C1040 C1038 1.391 . S
C1040 C1041 1.400 . S
C1041 C1040 1.400 . S
C1041 C1042 1.398 . S
C1041 C1047 1.491 . S
C1042 H1033 0.950 . S
C1042 C1041 1.398 . S
C1042 C1043 1.391 . S
C1043 H1031 0.950 . S
C1043 C1039 1.393 . S
C1043 C1042 1.391 . S
C1044 H1034 0.950 . S
C1044 C1045 1.386 . S
C1044 C1046 1.391 . S
C1045 C1044 1.386 . S
C1045 C1049 1.393 . S
C1046 H1035 0.950 . S
C1046 C1044 1.391 . S
C1046 C1047 1.400 . S
C1047 C1041 1.491 . S
C1047 C1046 1.400 . S
C1047 C1048 1.398 . S
C1048 H1036 0.950 . S
C1048 C1047 1.398 . S
C1048 C1049 1.391 . S
C1049 H1037 0.950 . S
C1049 C1045 1.393 . S
C1049 C1048 1.391 . S
H1050 C1058 0.950 . S
H1051 C1063 0.950 . S
H1052 C1060 0.950 . S
H1053 C1062 0.950 . S
H1054 C1064 0.950 . S
H1055 C1066 0.950 . S
H1056 C1068 0.950 . S
H1057 C1069 0.950 . S
C1058 H1050 0.950 . S
C1058 C1059 1.386 . S
C1058 C1060 1.391 . S
C1059 C1058 1.386 . S
C1059 C1063 1.393 . S
C1060 H1052 0.950 . S
C1060 C1058 1.391 . S
C1060 C1061 1.400 . S
C1061 C1060 1.400 . S
C1061 C1062 1.398 . S
C1061 C1067 1.491 . S
C1062 H1053 0.950 . S
C1062 C1061 1.398 . S
C1062 C1063 1.391 . S
C1063 H1051 0.950 . S
C1063 C1059 1.393 . S
C1063 C1062 1.391 . S
C1064 H1054 0.950 . S
C1064 C1065 1.386 . S
C1064 C1066 1.391 . S
C1065 C1064 1.386 . S
C1065 C1069 1.393 . S
C1066 H1055 0.950 . S
C1066 C1064 1.391 . S
C1066 C1067 1.400 . S
C1067 C1061 1.491 . S
C1067 C1066 1.400 . S
C1067 C1068 1.398 . S
C1068 H1056 0.950 . S
C1068 C1067 1.398 . S
C1068 C1069 1.391 . S
C1069 H1057 0.950 . S
C1069 C1065 1.393 . S
C1069 C1068 1.391 . S
H1070 C1078 0.950 . S
H1071 C1083 0.950 . S
H1072 C1080 0.950 . S
H1073 C1082 0.950 . S
H1074 C1084 0.950 . S
H1075 C1086 0.950 . S
H1076 C1088 0.950 . S
H1077 C1089 0.950 . S
C1078 H1070 0.950 . S
C1078 C1079 1.386 . S
C1078 C1080 1.391 . S
C1079 C1078 1.386 . S
C1079 C1083 1.393 . S
C1080 H1072 0.950 . S
C1080 C1078 1.391 . S
C1080 C1081 1.400 . S
C1081 C1080 1.400 . S
C1081 C1082 1.398 . S
C1081 C1087 1.491 . S
C1082 H1073 0.950 . S
C1082 C1081 1.398 . S
C1082 C1083 1.391 . S
C1083 H1071 0.950 . S
C1083 C1079 1.393 . S
C1083 C1082 1.391 . S
C1084 H1074 0.950 . S
C1084 C1085 1.386 . S
C1084 C1086 1.391 . S
C1085 C1084 1.386 . S
C1085 C1089 1.393 . S
C1086 H1075 0.950 . S
C1086 C1084 1.391 . S
C1086 C1087 1.400 . S
C1087 C1081 1.491 . S
C1087 C1086 1.400 . S
C1087 C1088 1.398 . S
C1088 H1076 0.950 . S
C1088 C1087 1.398 . S
C1088 C1089 1.391 . S
C1089 H1077 0.950 . S
C1089 C1085 1.393 . S
C1089 C1088 1.391 . S
H1090 C1098 0.950 . S
H1091 C1103 0.950 . S
H1092 C1100 0.950 . S
H1093 C1102 0.950 . S
H1094 C1104 0.950 . S
H1095 C1106 0.950 . S
H1096 C1108 0.950 . S
H1097 C1109 0.950 . S
C1098 H1090 0.950 . S
C1098 C1099 1.386 . S
C1098 C1100 1.391 . S
C1099 C1098 1.386 . S
C1099 C1103 1.393 . S
C1100 H1092 0.950 . S
C1100 C1098 1.391 . S
C1100 C1101 1.400 . S
C1101 C1100 1.400 . S
C1101 C1102 1.398 . S
C1101 C1107 1.491 . S
C1102 H1093 0.950 . S
C1102 C1101 1.398 . S
C1102 C1103 1.391 . S
C1103 H1091 0.950 . S
C1103 C1099 1.393 . S
C1103 C1102 1.391 . S
C1104 H1094 0.950 . S
C1104 C1105 1.386 . S
C1104 C1106 1.391 . S
C1105 C1104 1.386 . S
C1105 C1109 1.393 . S
C1106 H1095 0.950 . S
C1106 C1104 1.391 . S
C1106 C1107 1.400 . S
C1107 C1101 1.491 . S
C1107 C1106 1.400 . S
C1107 C1108 1.398 . S
C1108 H1096 0.950 . S
C1108 C1107 1.398 . S
C1108 C1109 1.391 . S
C1109 H1097 0.950 . S
C1109 C1105 1.393 . S
C1109 C1108 1.391 . S
H1110 C1118 0.950 . S
H1111 C1123 0.950 . S
H1112 C1120 0.950 . S
H1113 C1122 0.950 . S
H1114 C1124 0.950 . S
H1115 C1126 0.950 . S
H1116 C1128 0.950 . S
H1117 C1129 0.950 . S
C1118 H1110 0.950 . S
C1118 C1119 1.386 . S
C1118 C1120 1.391 . S
C1119 C1118 1.386 . S
C1119 C1123 1.393 . S
C1120 H1112 0.950 . S
C1120 C1118 1.391 . S
C1120 C1121 1.400 . S
C1121 C1120 1.400 . S
C1121 C1122 1.398 . S
C1121 C1127 1.491 . S
C1122 H1113 0.950 . S
C1122 C1121 1.398 . S
C1122 C1123 1.391 . S
C1123 H1111 0.950 . S
C1123 C1119 1.393 . S
C1123 C1122 1.391 . S
C1124 H1114 0.950 . S
C1124 C1125 1.386 . S
C1124 C1126 1.391 . S
C1125 C1124 1.386 . S
C1125 C1129 1.393 . S
C1126 H1115 0.950 . S
C1126 C1124 1.391 . S
C1126 C1127 1.400 . S
C1127 C1121 1.491 . S
C1127 C1126 1.400 . S
C1127 C1128 1.398 . S
C1128 H1116 0.950 . S
C1128 C1127 1.398 . S
C1128 C1129 1.391 . S
C1129 H1117 0.950 . S
C1129 C1125 1.393 . S
C1129 C1128 1.391 . S
H1130 C1138 0.950 . S
H1131 C1143 0.950 . S
H1132 C1140 0.950 . S
H1133 C1142 0.950 . S
H1134 C1144 0.950 . S
H1135 C1146 0.950 . S
H1136 C1148 0.950 . S
H1137 C1149 0.950 . S
C1138 H1130 0.950 . S
C1138 C1139 1.386 . S
C1138 C1140 1.391 . S
C1139 C1138 1.386 . S
C1139 C1143 1.393 . S
C1140 H1132 0.950 . S
C1140 C1138 1.391 . S
C1140 C1141 1.400 . S
C1141 C1140 1.400 . S
C1141 C1142 1.398 . S
C1141 C1147 1.491 . S
C1142 H1133 0.950 . S
C1142 C1141 1.398 . S
C1142 C1143 1.391 . S
C1143 H1131 0.950 . S
C1143 C1139 1.393 . S
C1143 C1142 1.391 . S
C1144 H1134 0.950 . S
C1144 C1145 1.386 . S
C1144 C1146 1.391 . S
C1145 C1144 1.386 . S
C1145 C1149 1.393 . S
C1146 H1135 0.950 . S
C1146 C1144 1.391 . S
C1146 C1147 1.400 . S
C1147 C1141 1.491 . S
C1147 C1146 1.400 . S
C1147 C1148 1.398 . S
C1148 H1136 0.950 . S
C1148 C1147 1.398 . S
C1148 C1149 1.391 . S
C1149 H1137 0.950 . S
C1149 C1145 1.393 . S
C1149 C1148 1.391 . S
H1150 C1158 0.950 . S
H1151 C1163 0.950 . S
H1152 C1160 0.950 . S
H1153 C1162 0.950 . S
H1154 C1164 0.950 . S
H1155 C1166 0.950 . S
H1156 C1168 0.950 . S
H1157 C1169 0.950 . S
C1158 H1150 0.950 . S
C1158 C1159 1.386 . S
C1158 C1160 1.391 . S
C1159 C1158 1.386 . S
C1159 C1163 1.393 . S
C1160 H1152 0.950 . S
C1160 C1158 1.391 . S
C1160 C1161 1.400 . S
C1161 C1160 1.400 . S
C1161 C1162 1.398 . S
C1161 C1167 1.491 . S
C1162 H1153 0.950 . S
C1162 C1161 1.398 . S
C1162 C1163 1.391 . S
C1163 H1151 0.950 . S
C1163 C1159 1.393 . S
C1163 C1162 1.391 . S
C1164 H1154 0.950 . S
C1164 C1165 1.386 . S
C1164 C1166 1.391 . S
C1165 C1164 1.386 . S
C1165 C1169 1.393 . S
C1166 H1155 0.950 . S
C1166 C1164 1.391 . S
C1166 C1167 1.400 . S
C1167 C1161 1.491 . S
C1167 C1166 1.400 . S
C1167 C1168 1.398 . S
C1168 H1156 0.950 . S
C1168 C1167 1.398 . S
C1168 C1169 1.391 . S
C1169 H1157 0.950 . S
C1169 C1165 1.393 . S
C1169 C1168 1.391 . S
H1170 C1178 0.950 . S
H1171 C1183 0.950 . S
H1172 C1180 0.950 . S
H1173 C1182 0.950 . S
H1174 C1184 0.950 . S
H1175 C1186 0.950 . S
H1176 C1188 0.950 . S
H1177 C1189 0.950 . S
C1178 H1170 0.950 . S
C1178 C1179 1.386 . S
C1178 C1180 1.391 . S
C1179 C1178 1.386 . S
C1179 C1183 1.393 . S
C1180 H1172 0.950 . S
C1180 C1178 1.391 . S
C1180 C1181 1.400 . S
C1181 C1180 1.400 . S
C1181 C1182 1.398 . S
C1181 C1187 1.491 . S
C1182 H1173 0.950 . S
C1182 C1181 1.398 . S
C1182 C1183 1.391 . S
C1183 H1171 0.950 . S
C1183 C1179 1.393 . S
C1183 C1182 1.391 . S
C1184 H1174 0.950 . S
C1184 C1185 1.386 . S
C1184 C1186 1.391 . S
C1185 C1184 1.386 . S
C1185 C1189 1.393 . S
C1186 H1175 0.950 . S
C1186 C1184 1.391 . S
C1186 C1187 1.400 . S
C1187 C1181 1.491 . S
C1187 C1186 1.400 . S
C1187 C1188 1.398 . S
C1188 H1176 0.950 . S
C1188 C1187 1.398 . S
C1188 C1189 1.391 . S
C1189 H1177 0.950 . S
C1189 C1185 1.393 . S
C1189 C1188 1.391 . S
H1190 C1198 0.950 . S
H1191 C1203 0.950 . S
H1192 C1200 0.950 . S
H1193 C1202 0.950 . S
H1194 C1204 0.950 . S
H1195 C1206 0.950 . S
H1196 C1208 0.950 . S
H1197 C1209 0.950 . S
C1198 H1190 0.950 . S
C1198 C1199 1.386 . S
C1198 C1200 1.391 . S
C1199 C1198 1.386 . S
C1199 C1203 1.393 . S
C1200 H1192 0.950 . S
C1200 C1198 1.391 . S
C1200 C1201 1.400 . S
C1201 C1200 1.400 . S
C1201 C1202 1.398 . S
C1201 C1207 1.491 . S
C1202 H1193 0.950 . S
C1202 C1201 1.398 . S
C1202 C1203 1.391 . S
C1203 H1191 0.950 . S
C1203 C1199 1.393 . S
C1203 C1202 1.391 . S
C1204 H1194 0.950 . S
C1204 C1205 1.386 . S
C1204 C1206 1.391 . S
C1205 C1204 1.386 . S
C1205 C1209 1.393 . S
C1206 H1195 0.950 . S
C1206 C1204 1.391 . S
C1206 C1207 1.400 . S
C1207 C1201 1.491 . S
C1207 C1206 1.400 . S
C1207 C1208 1.398 . S
C1208 H1196 0.950 . S
C1208 C1207 1.398 . S
C1208 C1209 1.391 . S
C1209 H1197 0.950 . S
C1209 C1205 1.393 . S
C1209 C1208 1.391 . S
H1210 C1218 0.950 . S
H1211 C1223 0.950 . S
H1212 C1220 0.950 . S
H1213 C1222 0.950 . S
H1214 C1224 0.950 . S
H1215 C1226 0.950 . S
H1216 C1228 0.950 . S
H1217 C1229 0.950 . S
C1218 H1210 0.950 . S
C1218 C1219 1.386 . S
C1218 C1220 1.391 . S
C1219 C1218 1.386 . S
C1219 C1223 1.393 . S
C1220 H1212 0.950 . S
C1220 C1218 1.391 . S
C1220 C1221 1.400 . S
C1221 C1220 1.400 . S
C1221 C1222 1.398 . S
C1221 C1227 1.491 . S
C1222 H1213 0.950 . S
C1222 C1221 1.398 . S
C1222 C1223 1.391 . S
C1223 H1211 0.950 . S
C1223 C1219 1.393 . S
C1223 C1222 1.391 . S
C1224 H1214 0.950 . S
C1224 C1225 1.386 . S
C1224 C1226 1.391 . S
C1225 C1224 1.386 . S
C1225 C1229 1.393 . S
C1226 H1215 0.950 . S
C1226 C1224 1.391 . S
C1226 C1227 1.400 . S
C1227 C1221 1.491 . S
C1227 C1226 1.400 . S
C1227 C1228 1.398 . S
C1228 H1216 0.950 . S
C1228 C1227 1.398 . S
C1228 C1229 1.391 . S
C1229 H1217 0.950 . S
C1229 C1225 1.393 . S
C1229 C1228 1.391 . S
H1230 C1238 0.950 . S
H1231 C1243 0.950 . S
H1232 C1240 0.950 . S
H1233 C1242 0.950 . S
H1234 C1244 0.950 . S
H1235 C1246 0.950 . S
H1236 C1248 0.950 . S
H1237 C1249 0.950 . S
C1238 H1230 0.950 . S
C1238 C1239 1.386 . S
C1238 C1240 1.391 . S
C1239 C1238 1.386 . S
C1239 C1243 1.393 . S
C1240 H1232 0.950 . S
C1240 C1238 1.391 . S
C1240 C1241 1.400 . S
C1241 C1240 1.400 . S
C1241 C1242 1.398 . S
C1241 C1247 1.491 . S
C1242 H1233 0.950 . S
C1242 C1241 1.398 . S
C1242 C1243 1.391 . S
C1243 H1231 0.950 . S
C1243 C1239 1.393 . S
C1243 C1242 1.391 . S
C1244 H1234 0.950 . S
C1244 C1245 1.386 . S
C1244 C1246 1.391 . S
C1245 C1244 1.386 . S
C1245 C1249 1.393 . S
C1246 H1235 0.950 . S
C1246 C1244 1.391 . S
C1246 C1247 1.400 . S
C1247 C1241 1.491 . S
C1247 C1246 1.400 . S
C1247 C1248 1.398 . S
C1248 H1236 0.950 . S
C1248 C1247 1.398 . S
C1248 C1249 1.391 . S
C1249 H1237 0.950 . S
C1249 C1245 1.393 . S
C1249 C1248 1.391 . S
H1250 C1258 0.950 . S
H1251 C1263 0.950 . S
H1252 C1260 0.950 . S
H1253 C1262 0.950 . S
H1254 C1264 0.950 . S
H1255 C1266 0.950 . S
H1256 C1268 0.950 . S
H1257 C1269 0.950 . S
C1258 H1250 0.950 . S
C1258 C1259 1.386 . S
C1258 C1260 1.391 . S
C1259 C1258 1.386 . S
C1259 C1263 1.393 . S
C1260 H1252 0.950 . S
C1260 C1258 1.391 . S
C1260 C1261 1.400 . S
C1261 C1260 1.400 . S
C1261 C1262 1.398 . S
C1261 C1267 1.491 . S
C1262 H1253 0.950 . S
C1262 C1261 1.398 . S
C1262 C1263 1.391 . S
C1263 H1251 0.950 . S
C1263 C1259 1.393 . S
C1263 C1262 1.391 . S
C1264 H1254 0.950 . S
C1264 C1265 1.386 . S
C1264 C1266 1.391 . S
C1265 C1264 1.386 . S
C1265 C1269 1.393 . S
C1266 H1255 0.950 . S
C1266 C1264 1.391 . S
C1266 C1267 1.400 . S
C1267 C1261 1.491 . S
C1267 C1266 1.400 . S
C1267 C1268 1.398 . S
C1268 H1256 0.950 . S
C1268 C1267 1.398 . S
C1268 C1269 1.391 . S
C1269 H1257 0.950 . S
C1269 C1265 1.393 . S
C1269 C1268 1.391 . S
H1270 C1278 0.950 . S
H1271 C1283 0.950 . S
H1272 C1280 0.950 . S
H1273 C1282 0.950 . S
H1274 C1284 0.950 . S
H1275 C1286 0.950 . S
H1276 C1288 0.950 . S
H1277 C1289 0.950 . S
C1278 H1270 0.950 . S
C1278 C1279 1.386 . S
C1278 C1280 1.391 . S
C1279 C1278 1.386 . S
C1279 C1283 1.393 . S
C1280 H1272 0.950 . S
C1280 C1278 1.391 . S
C1280 C1281 1.400 . S
C1281 C1280 1.400 . S
C1281 C1282 1.398 . S
C1281 C1287 1.491 . S
C1282 H1273 0.950 . S
C1282 C1281 1.398 . S
C1282 C1283 1.391 . S
C1283 H1271 0.950 . S
C1283 C1279 1.393 . S
C1283 C1282 1.391 . S
C1284 H1274 0.950 . S
C1284 C1285 1.386 . S
C1284 C1286 1.391 . S
C1285 C1284 1.386 . S
C1285 C1289 1.393 . S
C1286 H1275 0.950 . S
C1286 C1284 1.391 . S
C1286 C1287 1.400 . S
C1287 C1281 1.491 . S
C1287 C1286 1.400 . S
C1287 C1288 1.398 . S
C1288 H1276 0.950 . S
C1288 C1287 1.398 . S
C1288 C1289 1.391 . S
C1289 H1277 0.950 . S
C1289 C1285 1.393 . S
C1289 C1288 1.391 . S
H1290 C1298 0.950 . S
H1291 C1303 0.950 . S
H1292 C1300 0.950 . S
H1293 C1302 0.950 . S
H1294 C1304 0.950 . S
H1295 C1306 0.950 . S
H1296 C1308 0.950 . S
H1297 C1309 0.950 1_556 S
C1298 H1290 0.950 . S
C1298 C1299 1.386 . S
C1298 C1300 1.391 . S
C1299 C1298 1.386 . S
C1299 C1303 1.393 . S
C1300 H1292 0.950 . S
C1300 C1298 1.391 . S
C1300 C1301 1.400 . S
C1301 C1300 1.400 . S
C1301 C1302 1.398 . S
C1301 C1307 1.491 . S
C1302 H1293 0.950 . S
C1302 C1301 1.398 . S
C1302 C1303 1.391 . S
C1303 H1291 0.950 . S
C1303 C1299 1.393 . S
C1303 C1302 1.391 . S
C1304 H1294 0.950 . S
C1304 C1305 1.386 . S
C1304 C1306 1.391 . S
C1305 C1304 1.386 . S
C1305 C1309 1.393 . S
C1306 H1295 0.950 . S
C1306 C1304 1.391 . S
C1306 C1307 1.400 . S
C1307 C1301 1.491 . S
C1307 C1306 1.400 . S
C1307 C1308 1.398 . S
C1308 H1296 0.950 . S
C1308 C1307 1.398 . S
C1308 C1309 1.391 . S
C1309 H1297 0.950 1_554 S
C1309 C1305 1.393 . S
C1309 C1308 1.391 . S
H1310 C1318 0.950 . S
H1311 C1323 0.950 . S
H1312 C1320 0.950 . S
H1313 C1322 0.950 . S
H1314 C1324 0.950 . S
H1315 C1326 0.950 . S
H1316 C1328 0.950 . S
H1317 C1329 0.950 . S
C1318 H1310 0.950 . S
C1318 C1319 1.386 . S
C1318 C1320 1.391 . S
C1319 C1318 1.386 . S
C1319 C1323 1.393 . S
C1320 H1312 0.950 . S
C1320 C1318 1.391 . S
C1320 C1321 1.400 . S
C1321 C1320 1.400 . S
C1321 C1322 1.398 . S
C1321 C1327 1.491 . S
C1322 H1313 0.950 . S
C1322 C1321 1.398 . S
C1322 C1323 1.391 . S
C1323 H1311 0.950 . S
C1323 C1319 1.393 . S
C1323 C1322 1.391 . S
C1324 H1314 0.950 . S
C1324 C1325 1.386 . S
C1324 C1326 1.391 . S
C1325 C1324 1.386 . S
C1325 C1329 1.393 . S
C1326 H1315 0.950 . S
C1326 C1324 1.391 . S
C1326 C1327 1.400 . S
C1327 C1321 1.491 . S
C1327 C1326 1.400 . S
C1327 C1328 1.398 . S
C1328 H1316 0.950 . S
C1328 C1327 1.398 . S
C1328 C1329 1.391 . S
C1329 H1317 0.950 . S
C1329 C1325 1.393 . S
C1329 C1328 1.391 . S
H1330 C1338 0.950 . S
H1331 C1343 0.950 . S
H1332 C1340 0.950 . S
H1333 C1342 0.950 . S
H1334 C1344 0.950 . S
H1335 C1346 0.950 . S
H1336 C1348 0.950 . S
H1337 C1349 0.950 . S
C1338 H1330 0.950 . S
C1338 C1339 1.386 . S
C1338 C1340 1.391 . S
C1339 C1338 1.386 . S
C1339 C1343 1.393 . S
C1340 H1332 0.950 . S
C1340 C1338 1.391 . S
C1340 C1341 1.400 . S
C1341 C1340 1.400 . S
C1341 C1342 1.398 . S
C1341 C1347 1.491 . S
C1342 H1333 0.950 . S
C1342 C1341 1.398 . S
C1342 C1343 1.391 . S
C1343 H1331 0.950 . S
C1343 C1339 1.393 . S
C1343 C1342 1.391 . S
C1344 H1334 0.950 . S
C1344 C1345 1.386 . S
C1344 C1346 1.391 . S
C1345 C1344 1.386 . S
C1345 C1349 1.393 . S
C1346 H1335 0.950 . S
C1346 C1344 1.391 . S
C1346 C1347 1.400 . S
C1347 C1341 1.491 . S
C1347 C1346 1.400 . S
C1347 C1348 1.398 . S
C1348 H1336 0.950 . S
C1348 C1347 1.398 . S
C1348 C1349 1.391 . S
C1349 H1337 0.950 . S
C1349 C1345 1.393 . S
C1349 C1348 1.391 . S
H1350 C1358 0.950 . S
H1351 C1363 0.950 . S
H1352 C1360 0.950 . S
H1353 C1362 0.950 . S
H1354 C1364 0.950 . S
H1355 C1366 0.950 . S
H1356 C1368 0.950 . S
H1357 C1369 0.950 . S
C1358 H1350 0.950 . S
C1358 C1359 1.386 . S
C1358 C1360 1.391 . S
C1359 C1358 1.386 . S
C1359 C1363 1.393 . S
C1360 H1352 0.950 . S
C1360 C1358 1.391 . S
C1360 C1361 1.400 . S
C1361 C1360 1.400 . S
C1361 C1362 1.398 . S
C1361 C1367 1.491 . S
C1362 H1353 0.950 . S
C1362 C1361 1.398 . S
C1362 C1363 1.391 . S
C1363 H1351 0.950 . S
C1363 C1359 1.393 . S
C1363 C1362 1.391 . S
C1364 H1354 0.950 . S
C1364 C1365 1.386 . S
C1364 C1366 1.391 . S
C1365 C1364 1.386 . S
C1365 C1369 1.393 . S
C1366 H1355 0.950 . S
C1366 C1364 1.391 . S
C1366 C1367 1.400 . S
C1367 C1361 1.491 . S
C1367 C1366 1.400 . S
C1367 C1368 1.398 . S
C1368 H1356 0.950 . S
C1368 C1367 1.398 . S
C1368 C1369 1.391 . S
C1369 H1357 0.950 . S
C1369 C1365 1.393 . S
C1369 C1368 1.391 . S
H1370 C1378 0.950 . S
H1371 C1383 0.950 . S
H1372 C1380 0.950 . S
H1373 C1382 0.950 . S
H1374 C1384 0.950 . S
H1375 C1386 0.950 . S
H1376 C1388 0.950 . S
H1377 C1389 0.950 . S
C1378 H1370 0.950 . S
C1378 C1379 1.386 . S
C1378 C1380 1.391 . S
C1379 C1378 1.386 . S
C1379 C1383 1.393 . S
C1380 H1372 0.950 . S
C1380 C1378 1.391 . S
C1380 C1381 1.400 . S
C1381 C1380 1.400 . S
C1381 C1382 1.398 . S
C1381 C1387 1.491 . S
C1382 H1373 0.950 . S
C1382 C1381 1.398 . S
C1382 C1383 1.391 . S
C1383 H1371 0.950 . S
C1383 C1379 1.393 . S
C1383 C1382 1.391 . S
C1384 H1374 0.950 . S
C1384 C1385 1.386 . S
C1384 C1386 1.391 . S
C1385 C1384 1.386 . S
C1385 C1389 1.393 . S
C1386 H1375 0.950 . S
C1386 C1384 1.391 . S
C1386 C1387 1.400 . S
C1387 C1381 1.491 . S
C1387 C1386 1.400 . S
C1387 C1388 1.398 . S
C1388 H1376 0.950 . S
C1388 C1387 1.398 . S
C1388 C1389 1.391 . S
C1389 H1377 0.950 . S
C1389 C1385 1.393 . S
C1389 C1388 1.391 . S
H1390 C1398 0.950 . S
H1391 C1403 0.950 . S
H1392 C1400 0.950 . S
H1393 C1402 0.950 . S
H1394 C1404 0.950 . S
H1395 C1406 0.950 . S
H1396 C1408 0.950 . S
H1397 C1409 0.950 . S
C1398 H1390 0.950 . S
C1398 C1399 1.386 . S
C1398 C1400 1.391 . S
C1399 C1398 1.386 . S
C1399 C1403 1.393 . S
C1400 H1392 0.950 . S
C1400 C1398 1.391 . S
C1400 C1401 1.400 . S
C1401 C1400 1.400 . S
C1401 C1402 1.398 . S
C1401 C1407 1.491 . S
C1402 H1393 0.950 . S
C1402 C1401 1.398 . S
C1402 C1403 1.391 . S
C1403 H1391 0.950 . S
C1403 C1399 1.393 . S
C1403 C1402 1.391 . S
C1404 H1394 0.950 . S
C1404 C1405 1.386 . S
C1404 C1406 1.391 . S
C1405 C1404 1.386 . S
C1405 C1409 1.393 . S
C1406 H1395 0.950 . S
C1406 C1404 1.391 . S
C1406 C1407 1.400 . S
C1407 C1401 1.491 . S
C1407 C1406 1.400 . S
C1407 C1408 1.398 . S
C1408 H1396 0.950 . S
C1408 C1407 1.398 . S
C1408 C1409 1.391 . S
C1409 H1397 0.950 . S
C1409 C1405 1.393 . S
C1409 C1408 1.391 . S
H1410 C1418 0.950 . S
H1411 C1423 0.950 . S
H1412 C1420 0.950 . S
H1413 C1422 0.950 . S
H1414 C1424 0.950 . S
H1415 C1426 0.950 . S
H1416 C1428 0.950 . S
H1417 C1429 0.950 . S
C1418 H1410 0.950 . S
C1418 C1419 1.386 . S
C1418 C1420 1.391 . S
C1419 C1418 1.386 . S
C1419 C1423 1.393 . S
C1420 H1412 0.950 . S
C1420 C1418 1.391 . S
C1420 C1421 1.400 . S
C1421 C1420 1.400 . S
C1421 C1422 1.398 . S
C1421 C1427 1.491 . S
C1422 H1413 0.950 . S
C1422 C1421 1.398 . S
C1422 C1423 1.391 . S
C1423 H1411 0.950 . S
C1423 C1419 1.393 . S
C1423 C1422 1.391 . S
C1424 H1414 0.950 . S
C1424 C1425 1.386 . S
C1424 C1426 1.391 . S
C1425 C1424 1.386 . S
C1425 C1429 1.393 . S
C1426 H1415 0.950 . S
C1426 C1424 1.391 . S
C1426 C1427 1.400 . S
C1427 C1421 1.491 . S
C1427 C1426 1.400 . S
C1427 C1428 1.398 . S
C1428 H1416 0.950 . S
C1428 C1427 1.398 . S
C1428 C1429 1.391 . S
C1429 H1417 0.950 . S
C1429 C1425 1.393 . S
C1429 C1428 1.391 . S
H1430 C1438 0.950 . S
H1431 C1443 0.950 . S
H1432 C1440 0.950 . S
H1433 C1442 0.950 . S
H1434 C1444 0.950 . S
H1435 C1446 0.950 . S
H1436 C1448 0.950 . S
H1437 C1449 0.950 1_556 S
C1438 H1430 0.950 . S
C1438 C1439 1.386 . S
C1438 C1440 1.391 . S
C1439 C1438 1.386 . S
C1439 C1443 1.393 . S
C1440 H1432 0.950 . S
C1440 C1438 1.391 . S
C1440 C1441 1.400 . S
C1441 C1440 1.400 . S
C1441 C1442 1.398 . S
C1441 C1447 1.491 . S
C1442 H1433 0.950 . S
C1442 C1441 1.398 . S
C1442 C1443 1.391 . S
C1443 H1431 0.950 . S
C1443 C1439 1.393 . S
C1443 C1442 1.391 . S
C1444 H1434 0.950 . S
C1444 C1445 1.386 . S
C1444 C1446 1.391 . S
C1445 C1444 1.386 . S
C1445 C1449 1.393 . S
C1446 H1435 0.950 . S
C1446 C1444 1.391 . S
C1446 C1447 1.400 . S
C1447 C1441 1.491 . S
C1447 C1446 1.400 . S
C1447 C1448 1.398 . S
C1448 H1436 0.950 . S
C1448 C1447 1.398 . S
C1448 C1449 1.391 . S
C1449 H1437 0.950 1_554 S
C1449 C1445 1.393 . S
C1449 C1448 1.391 . S
H1450 C1458 0.950 . S
H1451 C1463 0.950 . S
H1452 C1460 0.950 . S
H1453 C1462 0.950 . S
H1454 C1464 0.950 . S
H1455 C1466 0.950 . S
H1456 C1468 0.950 . S
H1457 C1469 0.950 . S
C1458 H1450 0.950 . S
C1458 C1459 1.386 . S
C1458 C1460 1.391 . S
C1459 C1458 1.386 . S
C1459 C1463 1.393 . S
C1460 H1452 0.950 . S
C1460 C1458 1.391 . S
C1460 C1461 1.400 . S
C1461 C1460 1.400 . S
C1461 C1462 1.398 . S
C1461 C1467 1.491 . S
C1462 H1453 0.950 . S
C1462 C1461 1.398 . S
C1462 C1463 1.391 . S
C1463 H1451 0.950 . S
C1463 C1459 1.393 . S
C1463 C1462 1.391 . S
C1464 H1454 0.950 . S
C1464 C1465 1.386 . S
C1464 C1466 1.391 . S
C1465 C1464 1.386 . S
C1465 C1469 1.393 . S
C1466 H1455 0.950 . S
C1466 C1464 1.391 . S
C1466 C1467 1.400 . S
C1467 C1461 1.491 . S
C1467 C1466 1.400 . S
C1467 C1468 1.398 . S
C1468 H1456 0.950 . S
C1468 C1467 1.398 . S
C1468 C1469 1.391 . S
C1469 H1457 0.950 . S
C1469 C1465 1.393 . S
C1469 C1468 1.391 . S
H1470 C1478 0.950 . S
H1471 C1483 0.950 . S
H1472 C1480 0.950 . S
H1473 C1482 0.950 . S
H1474 C1484 0.950 . S
H1475 C1486 0.950 . S
H1476 C1488 0.950 . S
H1477 C1489 0.953 1_556 S
C1478 H1470 0.950 . S
C1478 C1479 1.386 . S
C1478 C1480 1.391 . S
C1479 C1478 1.386 . S
C1479 C1483 1.393 . S
C1480 H1472 0.950 . S
C1480 C1478 1.391 . S
C1480 C1481 1.400 . S
C1481 C1480 1.400 . S
C1481 C1482 1.398 . S
C1481 C1487 1.491 . S
C1482 H1473 0.950 . S
C1482 C1481 1.398 . S
C1482 C1483 1.391 . S
C1483 H1471 0.950 . S
C1483 C1479 1.393 . S
C1483 C1482 1.391 . S
C1484 H1474 0.950 . S
C1484 C1485 1.386 . S
C1484 C1486 1.391 . S
C1485 C1484 1.386 . S
C1485 C1489 1.393 . S
C1486 H1475 0.950 . S
C1486 C1484 1.391 . S
C1486 C1487 1.400 . S
C1487 C1481 1.491 . S
C1487 C1486 1.400 . S
C1487 C1488 1.398 . S
C1488 H1476 0.950 . S
C1488 C1487 1.398 . S
C1488 C1489 1.391 . S
C1489 H1477 0.953 1_554 S
C1489 C1485 1.393 . S
C1489 C1488 1.391 . S
H1490 C1498 0.950 . S
H1491 C1503 0.950 . S
H1492 C1500 0.950 . S
H1493 C1502 0.950 . S
H1494 C1504 0.950 . S
H1495 C1506 0.950 . S
H1496 C1508 0.950 . S
H1497 C1509 0.950 . S
C1498 H1490 0.950 . S
C1498 C1499 1.386 . S
C1498 C1500 1.391 . S
C1499 C1498 1.386 . S
C1499 C1503 1.393 . S
C1500 H1492 0.950 . S
C1500 C1498 1.391 . S
C1500 C1501 1.400 . S
C1501 C1500 1.400 . S
C1501 C1502 1.398 . S
C1501 C1507 1.491 . S
C1502 H1493 0.950 . S
C1502 C1501 1.398 . S
C1502 C1503 1.391 . S
C1503 H1491 0.950 . S
C1503 C1499 1.393 . S
C1503 C1502 1.391 . S
C1504 H1494 0.950 . S
C1504 C1505 1.386 . S
C1504 C1506 1.391 . S
C1505 C1504 1.386 . S
C1505 C1509 1.393 . S
C1506 H1495 0.950 . S
C1506 C1504 1.391 . S
C1506 C1507 1.400 . S
C1507 C1501 1.491 . S
C1507 C1506 1.400 . S
C1507 C1508 1.398 . S
C1508 H1496 0.950 . S
C1508 C1507 1.398 . S
C1508 C1509 1.391 . S
C1509 H1497 0.950 . S
C1509 C1505 1.393 . S
C1509 C1508 1.391 . S
H1510 C1518 0.950 . S
H1511 C1523 0.950 . S
H1512 C1520 0.950 . S
H1513 C1522 0.950 . S
H1514 C1524 0.950 . S
H1515 C1526 0.950 . S
H1516 C1528 0.950 . S
H1517 C1529 0.950 . S
C1518 H1510 0.950 . S
C1518 C1519 1.386 . S
C1518 C1520 1.391 . S
C1519 C1518 1.386 . S
C1519 C1523 1.393 . S
C1520 H1512 0.950 . S
C1520 C1518 1.391 . S
C1520 C1521 1.400 . S
C1521 C1520 1.400 . S
C1521 C1522 1.398 . S
C1521 C1527 1.491 . S
C1522 H1513 0.950 . S
C1522 C1521 1.398 . S
C1522 C1523 1.391 . S
C1523 H1511 0.950 . S
C1523 C1519 1.393 . S
C1523 C1522 1.391 . S
C1524 H1514 0.950 . S
C1524 C1525 1.386 . S
C1524 C1526 1.391 . S
C1525 C1524 1.386 . S
C1525 C1529 1.393 . S
C1526 H1515 0.950 . S
C1526 C1524 1.391 . S
C1526 C1527 1.400 . S
C1527 C1521 1.491 . S
C1527 C1526 1.400 . S
C1527 C1528 1.398 . S
C1528 H1516 0.950 . S
C1528 C1527 1.398 . S
C1528 C1529 1.391 . S
C1529 H1517 0.950 . S
C1529 C1525 1.393 . S
C1529 C1528 1.391 . S
H1530 C1538 0.950 . S
H1531 C1543 0.950 . S
H1532 C1540 0.950 . S
H1533 C1542 0.950 . S
H1534 C1544 0.950 . S
H1535 C1546 0.950 . S
H1536 C1548 0.950 . S
H1537 C1549 0.950 . S
C1538 H1530 0.950 . S
C1538 C1539 1.386 . S
C1538 C1540 1.391 . S
C1539 C1538 1.386 . S
C1539 C1543 1.393 . S
C1540 H1532 0.950 . S
C1540 C1538 1.391 . S
C1540 C1541 1.400 . S
C1541 C1540 1.400 . S
C1541 C1542 1.398 . S
C1541 C1547 1.491 . S
C1542 H1533 0.950 . S
C1542 C1541 1.398 . S
C1542 C1543 1.391 . S
C1543 H1531 0.950 . S
C1543 C1539 1.393 . S
C1543 C1542 1.391 . S
C1544 H1534 0.950 . S
C1544 C1545 1.386 . S
C1544 C1546 1.391 . S
C1545 C1544 1.386 . S
C1545 C1549 1.393 . S
C1546 H1535 0.950 . S
C1546 C1544 1.391 . S
C1546 C1547 1.400 . S
C1547 C1541 1.491 . S
C1547 C1546 1.400 . S
C1547 C1548 1.398 . S
C1548 H1536 0.950 . S
C1548 C1547 1.398 . S
C1548 C1549 1.391 . S
C1549 H1537 0.950 . S
C1549 C1545 1.393 . S
C1549 C1548 1.391 . S
H1550 C1558 0.950 . S
H1551 C1563 0.950 . S
H1552 C1560 0.950 . S
H1553 C1562 0.950 . S
H1554 C1564 0.950 . S
H1555 C1566 0.950 . S
H1556 C1568 0.950 . S
H1557 C1569 0.950 . S
C1558 H1550 0.950 . S
C1558 C1559 1.386 . S
C1558 C1560 1.391 . S
C1559 C1558 1.386 . S
C1559 C1563 1.393 . S
C1560 H1552 0.950 . S
C1560 C1558 1.391 . S
C1560 C1561 1.400 . S
C1561 C1560 1.400 . S
C1561 C1562 1.398 . S
C1561 C1567 1.491 . S
C1562 H1553 0.950 . S
C1562 C1561 1.398 . S
C1562 C1563 1.391 . S
C1563 H1551 0.950 . S
C1563 C1559 1.393 . S
C1563 C1562 1.391 . S
C1564 H1554 0.950 . S
C1564 C1565 1.386 . S
C1564 C1566 1.391 . S
C1565 C1564 1.386 . S
C1565 C1569 1.393 . S
C1566 H1555 0.950 . S
C1566 C1564 1.391 . S
C1566 C1567 1.400 . S
C1567 C1561 1.491 . S
C1567 C1566 1.400 . S
C1567 C1568 1.398 . S
C1568 H1556 0.950 . S
C1568 C1567 1.398 . S
C1568 C1569 1.391 . S
C1569 H1557 0.950 . S
C1569 C1565 1.393 . S
C1569 C1568 1.391 . S
H1570 C1578 0.950 . S
H1571 C1583 0.950 . S
H1572 C1580 0.950 . S
H1573 C1582 0.950 . S
H1574 C1584 0.950 . S
H1575 C1586 0.950 . S
H1576 C1588 0.950 . S
H1577 C1589 0.950 . S
C1578 H1570 0.950 . S
C1578 C1579 1.386 . S
C1578 C1580 1.391 . S
C1579 C1578 1.386 . S
C1579 C1583 1.393 . S
C1580 H1572 0.950 . S
C1580 C1578 1.391 . S
C1580 C1581 1.400 . S
C1581 C1580 1.400 . S
C1581 C1582 1.398 . S
C1581 C1587 1.491 . S
C1582 H1573 0.950 . S
C1582 C1581 1.398 . S
C1582 C1583 1.391 . S
C1583 H1571 0.950 . S
C1583 C1579 1.393 . S
C1583 C1582 1.391 . S
C1584 H1574 0.950 . S
C1584 C1585 1.386 . S
C1584 C1586 1.391 . S
C1585 C1584 1.386 . S
C1585 C1589 1.393 . S
C1586 H1575 0.950 . S
C1586 C1584 1.391 . S
C1586 C1587 1.400 . S
C1587 C1581 1.491 . S
C1587 C1586 1.400 . S
C1587 C1588 1.398 . S
C1588 H1576 0.950 . S
C1588 C1587 1.398 . S
C1588 C1589 1.391 . S
C1589 H1577 0.950 . S
C1589 C1585 1.393 . S
C1589 C1588 1.391 . S
H1590 C1598 0.950 . S
H1591 C1603 0.950 . S
H1592 C1600 0.950 . S
H1593 C1602 0.950 . S
H1594 C1604 0.950 . S
H1595 C1606 0.950 . S
H1596 C1608 0.950 . S
H1597 C1609 0.950 . S
C1598 H1590 0.950 . S
C1598 C1599 1.386 . S
C1598 C1600 1.391 . S
C1599 C1598 1.386 . S
C1599 C1603 1.393 . S
C1600 H1592 0.950 . S
C1600 C1598 1.391 . S
C1600 C1601 1.400 . S
C1601 C1600 1.400 . S
C1601 C1602 1.398 . S
C1601 C1607 1.491 . S
C1602 H1593 0.950 . S
C1602 C1601 1.398 . S
C1602 C1603 1.391 . S
C1603 H1591 0.950 . S
C1603 C1599 1.393 . S
C1603 C1602 1.391 . S
C1604 H1594 0.950 . S
C1604 C1605 1.386 . S
C1604 C1606 1.391 . S
C1605 C1604 1.386 . S
C1605 C1609 1.393 . S
C1606 H1595 0.950 . S
C1606 C1604 1.391 . S
C1606 C1607 1.400 . S
C1607 C1601 1.491 . S
C1607 C1606 1.400 . S
C1607 C1608 1.398 . S
C1608 H1596 0.950 . S
C1608 C1607 1.398 . S
C1608 C1609 1.391 . S
C1609 H1597 0.950 . S
C1609 C1605 1.393 . S
C1609 C1608 1.391 . S
H1610 C1618 0.950 . S
H1611 C1623 0.950 . S
H1612 C1620 0.950 . S
H1613 C1622 0.950 . S
H1614 C1624 0.950 . S
H1615 C1626 0.950 . S
H1616 C1628 0.950 . S
H1617 C1629 0.950 . S
C1618 H1610 0.950 . S
C1618 C1619 1.386 . S
C1618 C1620 1.391 . S
C1619 C1618 1.386 . S
C1619 C1623 1.393 . S
C1620 H1612 0.950 . S
C1620 C1618 1.391 . S
C1620 C1621 1.400 . S
C1621 C1620 1.400 . S
C1621 C1622 1.398 . S
C1621 C1627 1.491 . S
C1622 H1613 0.950 . S
C1622 C1621 1.398 . S
C1622 C1623 1.391 . S
C1623 H1611 0.950 . S
C1623 C1619 1.393 . S
C1623 C1622 1.391 . S
C1624 H1614 0.950 . S
C1624 C1625 1.386 . S
C1624 C1626 1.391 . S
C1625 C1624 1.386 . S
C1625 C1629 1.393 . S
C1626 H1615 0.950 . S
C1626 C1624 1.391 . S
C1626 C1627 1.400 . S
C1627 C1621 1.491 . S
C1627 C1626 1.400 . S
C1627 C1628 1.398 . S
C1628 H1616 0.950 . S
C1628 C1627 1.398 . S
C1628 C1629 1.391 . S
C1629 H1617 0.950 . S
C1629 C1625 1.393 . S
C1629 C1628 1.391 . S
H1630 C1638 0.950 . S
H1631 C1643 0.950 . S
H1632 C1640 0.950 . S
H1633 C1642 0.950 . S
H1634 C1644 0.950 . S
H1635 C1646 0.950 . S
H1636 C1648 0.950 . S
H1637 C1649 0.950 . S
C1638 H1630 0.950 . S
C1638 C1639 1.386 . S
C1638 C1640 1.391 . S
C1639 C1638 1.386 . S
C1639 C1643 1.393 . S
C1640 H1632 0.950 . S
C1640 C1638 1.391 . S
C1640 C1641 1.400 . S
C1641 C1640 1.400 . S
C1641 C1642 1.398 . S
C1641 C1647 1.491 . S
C1642 H1633 0.950 . S
C1642 C1641 1.398 . S
C1642 C1643 1.391 . S
C1643 H1631 0.950 . S
C1643 C1639 1.393 . S
C1643 C1642 1.391 . S
C1644 H1634 0.950 . S
C1644 C1645 1.386 . S
C1644 C1646 1.391 . S
C1645 C1644 1.386 . S
C1645 C1649 1.393 . S
C1646 H1635 0.950 . S
C1646 C1644 1.391 . S
C1646 C1647 1.400 . S
C1647 C1641 1.491 . S
C1647 C1646 1.400 . S
C1647 C1648 1.398 . S
C1648 H1636 0.950 . S
C1648 C1647 1.398 . S
C1648 C1649 1.391 . S
C1649 H1637 0.950 . S
C1649 C1645 1.393 . S
C1649 C1648 1.391 . S
H1650 C1658 0.950 . S
H1651 C1663 0.950 . S
H1652 C1660 0.950 . S
H1653 C1662 0.950 . S
H1654 C1664 0.950 . S
H1655 C1666 0.950 . S
H1656 C1668 0.950 . S
H1657 C1669 0.950 . S
C1658 H1650 0.950 . S
C1658 C1659 1.386 . S
C1658 C1660 1.391 . S
C1659 C1658 1.386 . S
C1659 C1663 1.393 . S
C1660 H1652 0.950 . S
C1660 C1658 1.391 . S
C1660 C1661 1.400 . S
C1661 C1660 1.400 . S
C1661 C1662 1.398 . S
C1661 C1667 1.491 . S
C1662 H1653 0.950 . S
C1662 C1661 1.398 . S
C1662 C1663 1.391 . S
C1663 H1651 0.950 . S
C1663 C1659 1.393 . S
C1663 C1662 1.391 . S
C1664 H1654 0.950 . S
C1664 C1665 1.386 . S
C1664 C1666 1.391 . S
C1665 C1664 1.386 . S
C1665 C1669 1.393 . S
C1666 H1655 0.950 . S
C1666 C1664 1.391 . S
C1666 C1667 1.400 . S
C1667 C1661 1.491 . S
C1667 C1666 1.400 . S
C1667 C1668 1.398 . S
C1668 H1656 0.950 . S
C1668 C1667 1.398 . S
C1668 C1669 1.391 . S
C1669 H1657 0.950 . S
C1669 C1665 1.393 . S
C1669 C1668 1.391 . S
H1670 C1678 0.950 . S
H1671 C1683 0.950 . S
H1672 C1680 0.950 . S
H1673 C1682 0.950 . S
H1674 C1684 0.950 . S
H1675 C1686 0.950 . S
H1676 C1688 0.950 . S
H1677 C1689 0.950 . S
C1678 H1670 0.950 . S
C1678 C1679 1.386 . S
C1678 C1680 1.391 . S
C1679 C1678 1.386 . S
C1679 C1683 1.393 . S
C1680 H1672 0.950 . S
C1680 C1678 1.391 . S
C1680 C1681 1.400 . S
C1681 C1680 1.400 . S
C1681 C1682 1.398 . S
C1681 C1687 1.491 . S
C1682 H1673 0.950 . S
C1682 C1681 1.398 . S
C1682 C1683 1.391 . S
C1683 H1671 0.950 . S
C1683 C1679 1.393 . S
C1683 C1682 1.391 . S
C1684 H1674 0.950 . S
C1684 C1685 1.386 . S
C1684 C1686 1.391 . S
C1685 C1684 1.386 . S
C1685 C1689 1.393 . S
C1686 H1675 0.950 . S
C1686 C1684 1.391 . S
C1686 C1687 1.400 . S
C1687 C1681 1.491 . S
C1687 C1686 1.400 . S
C1687 C1688 1.398 . S
C1688 H1676 0.950 . S
C1688 C1687 1.398 . S
C1688 C1689 1.391 . S
C1689 H1677 0.950 . S
C1689 C1685 1.393 . S
C1689 C1688 1.391 . S
H1690 C1698 0.950 . S
H1691 C1703 0.950 . S
H1692 C1700 0.950 . S
H1693 C1702 0.950 . S
H1694 C1704 0.950 . S
H1695 C1706 0.950 . S
H1696 C1708 0.950 . S
H1697 C1709 0.950 . S
C1698 H1690 0.950 . S
C1698 C1699 1.386 . S
C1698 C1700 1.391 . S
C1699 C1698 1.386 . S
C1699 C1703 1.393 . S
C1700 H1692 0.950 . S
C1700 C1698 1.391 . S
C1700 C1701 1.400 . S
C1701 C1700 1.400 . S
C1701 C1702 1.398 . S
C1701 C1707 1.491 . S
C1702 H1693 0.950 . S
C1702 C1701 1.398 . S
C1702 C1703 1.391 . S
C1703 H1691 0.950 . S
C1703 C1699 1.393 . S
C1703 C1702 1.391 . S
C1704 H1694 0.950 . S
C1704 C1705 1.386 . S
C1704 C1706 1.391 . S
C1705 C1704 1.386 . S
C1705 C1709 1.393 . S
C1706 H1695 0.950 . S
C1706 C1704 1.391 . S
C1706 C1707 1.400 . S
C1707 C1701 1.491 . S
C1707 C1706 1.400 . S
C1707 C1708 1.398 . S
C1708 H1696 0.950 . S
C1708 C1707 1.398 . S
C1708 C1709 1.391 . S
C1709 H1697 0.950 . S
C1709 C1705 1.393 . S
C1709 C1708 1.391 . S
H1710 C1718 0.950 . S
H1711 C1723 0.950 . S
H1712 C1720 0.950 . S
H1713 C1722 0.950 . S
H1714 C1724 0.950 . S
H1715 C1726 0.950 . S
H1716 C1728 0.950 . S
H1717 C1729 0.950 . S
C1718 H1710 0.950 . S
C1718 C1719 1.386 . S
C1718 C1720 1.391 . S
C1719 C1718 1.386 . S
C1719 C1723 1.393 . S
C1720 H1712 0.950 . S
C1720 C1718 1.391 . S
C1720 C1721 1.400 . S
C1721 C1720 1.400 . S
C1721 C1722 1.398 . S
C1721 C1727 1.491 . S
C1722 H1713 0.950 . S
C1722 C1721 1.398 . S
C1722 C1723 1.391 . S
C1723 H1711 0.950 . S
C1723 C1719 1.393 . S
C1723 C1722 1.391 . S
C1724 H1714 0.950 . S
C1724 C1725 1.386 . S
C1724 C1726 1.391 . S
C1725 C1724 1.386 . S
C1725 C1729 1.393 . S
C1726 H1715 0.950 . S
C1726 C1724 1.391 . S
C1726 C1727 1.400 . S
C1727 C1721 1.491 . S
C1727 C1726 1.400 . S
C1727 C1728 1.398 . S
C1728 H1716 0.950 . S
C1728 C1727 1.398 . S
C1728 C1729 1.391 . S
C1729 H1717 0.950 . S
C1729 C1725 1.393 . S
C1729 C1728 1.391 . S
H1730 C1738 0.950 . S
H1731 C1743 0.950 . S
H1732 C1740 0.950 . S
H1733 C1742 0.950 . S
H1734 C1744 0.950 . S
H1735 C1746 0.950 . S
H1736 C1748 0.950 . S
H1737 C1749 0.950 . S
C1738 H1730 0.950 . S
C1738 C1739 1.386 . S
C1738 C1740 1.391 . S
C1739 C1738 1.386 . S
C1739 C1743 1.393 . S
C1740 H1732 0.950 . S
C1740 C1738 1.391 . S
C1740 C1741 1.400 . S
C1741 C1740 1.400 . S
C1741 C1742 1.398 . S
C1741 C1747 1.491 . S
C1742 H1733 0.950 . S
C1742 C1741 1.398 . S
C1742 C1743 1.391 . S
C1743 H1731 0.950 . S
C1743 C1739 1.393 . S
C1743 C1742 1.391 . S
C1744 H1734 0.950 . S
C1744 C1745 1.386 . S
C1744 C1746 1.391 . S
C1745 C1744 1.386 . S
C1745 C1749 1.393 . S
C1746 H1735 0.950 . S
C1746 C1744 1.391 . S
C1746 C1747 1.400 . S
C1747 C1741 1.491 . S
C1747 C1746 1.400 . S
C1747 C1748 1.398 . S
C1748 H1736 0.950 . S
C1748 C1747 1.398 . S
C1748 C1749 1.391 . S
C1749 H1737 0.950 . S
C1749 C1745 1.393 . S
C1749 C1748 1.391 . S
H1750 C1758 0.950 . S
H1751 C1763 0.950 . S
H1752 C1760 0.950 . S
H1753 C1762 0.950 . S
H1754 C1764 0.950 . S
H1755 C1766 0.950 . S
H1756 C1768 0.950 . S
H1757 C1769 0.950 . S
C1758 H1750 0.950 . S
C1758 C1759 1.386 . S
C1758 C1760 1.391 . S
C1759 C1758 1.386 . S
C1759 C1763 1.393 . S
C1760 H1752 0.950 . S
C1760 C1758 1.391 . S
C1760 C1761 1.400 . S
C1761 C1760 1.400 . S
C1761 C1762 1.398 . S
C1761 C1767 1.491 . S
C1762 H1753 0.950 . S
C1762 C1761 1.398 . S
C1762 C1763 1.391 . S
C1763 H1751 0.950 . S
C1763 C1759 1.393 . S
C1763 C1762 1.391 . S
C1764 H1754 0.950 . S
C1764 C1765 1.386 . S
C1764 C1766 1.391 . S
C1765 C1764 1.386 . S
C1765 C1769 1.393 . S
C1766 H1755 0.950 . S
C1766 C1764 1.391 . S
C1766 C1767 1.400 . S
C1767 C1761 1.491 . S
C1767 C1766 1.400 . S
C1767 C1768 1.398 . S
C1768 H1756 0.950 . S
C1768 C1767 1.398 . S
C1768 C1769 1.391 . S
C1769 H1757 0.950 . S
C1769 C1765 1.393 . S
C1769 C1768 1.391 . S
H1770 C1778 0.950 . S
H1771 C1783 0.950 . S
H1772 C1780 0.950 . S
H1773 C1782 0.950 . S
H1774 C1784 0.950 . S
H1775 C1786 0.950 . S
H1776 C1788 0.950 . S
H1777 C1789 0.950 . S
C1778 H1770 0.950 . S
C1778 C1779 1.386 . S
C1778 C1780 1.391 . S
C1779 C1778 1.386 . S
C1779 C1783 1.393 . S
C1780 H1772 0.950 . S
C1780 C1778 1.391 . S
C1780 C1781 1.400 . S
C1781 C1780 1.400 . S
C1781 C1782 1.398 . S
C1781 C1787 1.491 . S
C1782 H1773 0.950 . S
C1782 C1781 1.398 . S
C1782 C1783 1.391 . S
C1783 H1771 0.950 . S
C1783 C1779 1.393 . S
C1783 C1782 1.391 . S
C1784 H1774 0.950 . S
C1784 C1785 1.386 . S
C1784 C1786 1.391 . S
C1785 C1784 1.386 . S
C1785 C1789 1.393 . S
C1786 H1775 0.950 . S
C1786 C1784 1.391 . S
C1786 C1787 1.400 . S
C1787 C1781 1.491 . S
C1787 C1786 1.400 . S
C1787 C1788 1.398 . S
C1788 H1776 0.950 . S
C1788 C1787 1.398 . S
C1788 C1789 1.391 . S
C1789 H1777 0.950 . S
C1789 C1785 1.393 . S
C1789 C1788 1.391 . S
H1790 C1798 0.950 . S
H1791 C1803 0.950 . S
H1792 C1800 0.950 . S
H1793 C1802 0.950 . S
H1794 C1804 0.950 . S
H1795 C1806 0.950 . S
H1796 C1808 0.950 . S
H1797 C1809 0.950 . S
C1798 H1790 0.950 . S
C1798 C1799 1.386 . S
C1798 C1800 1.391 . S
C1799 C1798 1.386 . S
C1799 C1803 1.393 . S
C1800 H1792 0.950 . S
C1800 C1798 1.391 . S
C1800 C1801 1.400 . S
C1801 C1800 1.400 . S
C1801 C1802 1.398 . S
C1801 C1807 1.491 . S
C1802 H1793 0.950 . S
C1802 C1801 1.398 . S
C1802 C1803 1.391 . S
C1803 H1791 0.950 . S
C1803 C1799 1.393 . S
C1803 C1802 1.391 . S
C1804 H1794 0.950 . S
C1804 C1805 1.386 . S
C1804 C1806 1.391 . S
C1805 C1804 1.386 . S
C1805 C1809 1.393 . S
C1806 H1795 0.950 . S
C1806 C1804 1.391 . S
C1806 C1807 1.400 . S
C1807 C1801 1.491 . S
C1807 C1806 1.400 . S
C1807 C1808 1.398 . S
C1808 H1796 0.950 . S
C1808 C1807 1.398 . S
C1808 C1809 1.391 . S
C1809 H1797 0.950 . S
C1809 C1805 1.393 . S
C1809 C1808 1.391 . S
H1810 C1818 0.950 . S
H1811 C1823 0.950 . S
H1812 C1820 0.950 . S
H1813 C1822 0.950 . S
H1814 C1824 0.950 . S
H1815 C1826 0.950 . S
H1816 C1828 0.950 . S
H1817 C1829 0.950 . S
C1818 H1810 0.950 . S
C1818 C1819 1.386 . S
C1818 C1820 1.391 . S
C1819 C1818 1.386 . S
C1819 C1823 1.393 . S
C1820 H1812 0.950 . S
C1820 C1818 1.391 . S
C1820 C1821 1.400 . S
C1821 C1820 1.400 . S
C1821 C1822 1.398 . S
C1821 C1827 1.491 . S
C1822 H1813 0.950 . S
C1822 C1821 1.398 . S
C1822 C1823 1.391 . S
C1823 H1811 0.950 . S
C1823 C1819 1.393 . S
C1823 C1822 1.391 . S
C1824 H1814 0.950 . S
C1824 C1825 1.386 . S
C1824 C1826 1.391 . S
C1825 C1824 1.386 . S
C1825 C1829 1.393 . S
C1826 H1815 0.950 . S
C1826 C1824 1.391 . S
C1826 C1827 1.400 . S
C1827 C1821 1.491 . S
C1827 C1826 1.400 . S
C1827 C1828 1.398 . S
C1828 H1816 0.950 . S
C1828 C1827 1.398 . S
C1828 C1829 1.391 . S
C1829 H1817 0.950 . S
C1829 C1825 1.393 . S
C1829 C1828 1.391 . S
C885 C699 1.299 . S
C879 C74 1.322 . S
C905 C700 0.454 . S
C899 C142 0.741 . S
C925 C694 1.231 . S
C919 C231 1.222 . S
C939 C322 1.100 . S
C945 C693 1.212 . S
C959 C406 0.786 . S
C965 C696 0.428 . S
C985 C698 1.229 . S
C979 C494 1.213 . S
C999 C562 1.114 . S
C1005 C697 1.209 . S
C1019 C651 1.305 . S
C1025 C695 1.262 . S
C1045 C730 1.596 . S
C1039 C58 1.472 . S
C1059 C151 1.649 . S
C1065 C761 1.632 . S
C1085 C729 2.556 . S
C1079 C224 2.430 . S
C1105 C764 1.191 . S
C1099 C315 1.187 . S
C1119 C399 1.448 . S
C1125 C727 1.494 . S
C1145 C759 1.554 . S
C1139 C478 1.423 . S
C1159 C571 1.253 . S
C1165 C732 1.316 . S
C1179 C644 2.482 . S
C1185 C766 2.536 . S
C1199 C67 2.489 . S
C1205 C762 2.538 . S
C1219 C392 1.640 . S
C1225 C765 1.623 . S
C1245 C733 2.556 . S
C1239 C487 2.437 . S
C1265 C760 1.214 . S
C1259 C578 1.181 . S
C1279 C658 1.472 . S
C1285 C726 1.592 . S
C1299 C238 1.412 . S
C1305 C763 1.553 . S
C1325 C728 1.325 . S
C1319 C308 1.246 . S
C1339 C158 1.451 . S
C1345 C731 1.487 . S
C1359 C662 1.255 . S
C1365 C798 1.224 . S
C1379 C394 0.934 . S
C1385 C799 0.359 . S
C1405 C793 1.406 . S
C1399 C483 1.392 . S
C1425 C792 1.550 . S
C1419 C574 1.404 . S
C1439 C154 0.925 . S
C1445 C795 0.408 . S
C1465 C797 1.418 . S
C1459 C242 1.376 . S
C1479 C310 1.380 . S
C1485 C796 1.556 . S
C1499 C63 1.266 . S
C1505 C794 1.235 . S
C1519 C646 1.538 . S
C1525 C832 1.623 . S
C1545 C864 1.215 . S
C1539 C403 1.251 . S
C1559 C476 2.334 . S
C1565 C825 2.468 . S
C1579 C567 1.507 . S
C1585 C859 1.552 . S
C1605 C830 1.327 . S
C1599 C147 1.224 . S
C1619 C226 1.635 . S
C1625 C861 1.696 . S
C1645 C827 1.528 . S
C1639 C319 1.538 . S
C1665 C862 2.495 . S
C1659 C56 2.284 . S
C1685 C858 2.495 . S
C1679 C655 2.265 . S
C1699 C140 1.248 . S
C1705 C860 1.218 . S
C1719 C235 2.317 . S
C1725 C829 2.464 . S
C1745 C863 1.565 . S
C1739 C326 1.495 . S
C1759 C70 1.539 . S
C1765 C828 1.622 . S
C1779 C490 1.644 . S
C1785 C865 1.680 . S
C1805 C831 1.519 . S
C1799 C560 1.536 . S
C1825 C826 1.317 . S
C1819 C410 1.231 . S
