# Generated by pormake.
# Topology ctn, (3,4)-cn, num edge types: 1
# Building blocks:
#     Node 0, Type 0, BuildingBlock: WUSLED_clean_sbu_0, # of connection points: 3
#     Node 1, Type 0, BuildingBlock: WUSLED_clean_sbu_0, # of connection points: 3
#     Node 2, Type 0, BuildingBlock: WUSLED_clean_sbu_0, # of connection points: 3
#     Node 3, Type 0, BuildingBlock: WUSLED_clean_sbu_0, # of connection points: 3
#     Node 4, Type 0, BuildingBlock: WUSLED_clean_sbu_0, # of connection points: 3
#     Node 5, Type 0, BuildingBlock: WUSLED_clean_sbu_0, # of connection points: 3
#     Node 6, Type 0, BuildingBlock: WUSLED_clean_sbu_0, # of connection points: 3
#     Node 7, Type 0, BuildingBlock: WUSLED_clean_sbu_0, # of connection points: 3
#     Node 8, Type 0, BuildingBlock: WUSLED_clean_sbu_0, # of connection points: 3
#     Node 9, Type 0, BuildingBlock: WUSLED_clean_sbu_0, # of connection points: 3
#     Node 10, Type 0, BuildingBlock: WUSLED_clean_sbu_0, # of connection points: 3
#     Node 11, Type 0, BuildingBlock: WUSLED_clean_sbu_0, # of connection points: 3
#     Node 12, Type 0, BuildingBlock: WUSLED_clean_sbu_0, # of connection points: 3
#     Node 13, Type 0, BuildingBlock: WUSLED_clean_sbu_0, # of connection points: 3
#     Node 14, Type 0, BuildingBlock: WUSLED_clean_sbu_0, # of connection points: 3
#     Node 15, Type 0, BuildingBlock: WUSLED_clean_sbu_0, # of connection points: 3
#     Node 16, Type 1, BuildingBlock: TATPOV_clean_sbu_0, # of connection points: 4
#     Node 17, Type 1, BuildingBlock: TATPOV_clean_sbu_0, # of connection points: 4
#     Node 18, Type 1, BuildingBlock: TATPOV_clean_sbu_0, # of connection points: 4
#     Node 19, Type 1, BuildingBlock: TATPOV_clean_sbu_0, # of connection points: 4
#     Node 20, Type 1, BuildingBlock: TATPOV_clean_sbu_0, # of connection points: 4
#     Node 21, Type 1, BuildingBlock: TATPOV_clean_sbu_0, # of connection points: 4
#     Node 22, Type 1, BuildingBlock: TATPOV_clean_sbu_0, # of connection points: 4
#     Node 23, Type 1, BuildingBlock: TATPOV_clean_sbu_0, # of connection points: 4
#     Node 24, Type 1, BuildingBlock: TATPOV_clean_sbu_0, # of connection points: 4
#     Node 25, Type 1, BuildingBlock: TATPOV_clean_sbu_0, # of connection points: 4
#     Node 26, Type 1, BuildingBlock: TATPOV_clean_sbu_0, # of connection points: 4
#     Node 27, Type 1, BuildingBlock: TATPOV_clean_sbu_0, # of connection points: 4
#     Edge 28, Type (0, 1), BuildingBlock: XUDNAN_clean_linker_2, # of connection points: 2
#     Edge 29, Type (0, 1), BuildingBlock: XUDNAN_clean_linker_2, # of connection points: 2
#     Edge 30, Type (0, 1), BuildingBlock: XUDNAN_clean_linker_2, # of connection points: 2
#     Edge 31, Type (0, 1), BuildingBlock: XUDNAN_clean_linker_2, # of connection points: 2
#     Edge 32, Type (0, 1), BuildingBlock: XUDNAN_clean_linker_2, # of connection points: 2
#     Edge 33, Type (0, 1), BuildingBlock: XUDNAN_clean_linker_2, # of connection points: 2
#     Edge 34, Type (0, 1), BuildingBlock: XUDNAN_clean_linker_2, # of connection points: 2
#     Edge 35, Type (0, 1), BuildingBlock: XUDNAN_clean_linker_2, # of connection points: 2
#     Edge 36, Type (0, 1), BuildingBlock: XUDNAN_clean_linker_2, # of connection points: 2
#     Edge 37, Type (0, 1), BuildingBlock: XUDNAN_clean_linker_2, # of connection points: 2
#     Edge 38, Type (0, 1), BuildingBlock: XUDNAN_clean_linker_2, # of connection points: 2
#     Edge 39, Type (0, 1), BuildingBlock: XUDNAN_clean_linker_2, # of connection points: 2
#     Edge 40, Type (0, 1), BuildingBlock: XUDNAN_clean_linker_2, # of connection points: 2
#     Edge 41, Type (0, 1), BuildingBlock: XUDNAN_clean_linker_2, # of connection points: 2
#     Edge 42, Type (0, 1), BuildingBlock: XUDNAN_clean_linker_2, # of connection points: 2
#     Edge 43, Type (0, 1), BuildingBlock: XUDNAN_clean_linker_2, # of connection points: 2
#     Edge 44, Type (0, 1), BuildingBlock: XUDNAN_clean_linker_2, # of connection points: 2
#     Edge 45, Type (0, 1), BuildingBlock: XUDNAN_clean_linker_2, # of connection points: 2
#     Edge 46, Type (0, 1), BuildingBlock: XUDNAN_clean_linker_2, # of connection points: 2
#     Edge 47, Type (0, 1), BuildingBlock: XUDNAN_clean_linker_2, # of connection points: 2
#     Edge 48, Type (0, 1), BuildingBlock: XUDNAN_clean_linker_2, # of connection points: 2
#     Edge 49, Type (0, 1), BuildingBlock: XUDNAN_clean_linker_2, # of connection points: 2
#     Edge 50, Type (0, 1), BuildingBlock: XUDNAN_clean_linker_2, # of connection points: 2
#     Edge 51, Type (0, 1), BuildingBlock: XUDNAN_clean_linker_2, # of connection points: 2
#     Edge 52, Type (0, 1), BuildingBlock: XUDNAN_clean_linker_2, # of connection points: 2
#     Edge 53, Type (0, 1), BuildingBlock: XUDNAN_clean_linker_2, # of connection points: 2
#     Edge 54, Type (0, 1), BuildingBlock: XUDNAN_clean_linker_2, # of connection points: 2
#     Edge 55, Type (0, 1), BuildingBlock: XUDNAN_clean_linker_2, # of connection points: 2
#     Edge 56, Type (0, 1), BuildingBlock: XUDNAN_clean_linker_2, # of connection points: 2
#     Edge 57, Type (0, 1), BuildingBlock: XUDNAN_clean_linker_2, # of connection points: 2
#     Edge 58, Type (0, 1), BuildingBlock: XUDNAN_clean_linker_2, # of connection points: 2
#     Edge 59, Type (0, 1), BuildingBlock: XUDNAN_clean_linker_2, # of connection points: 2
#     Edge 60, Type (0, 1), BuildingBlock: XUDNAN_clean_linker_2, # of connection points: 2
#     Edge 61, Type (0, 1), BuildingBlock: XUDNAN_clean_linker_2, # of connection points: 2
#     Edge 62, Type (0, 1), BuildingBlock: XUDNAN_clean_linker_2, # of connection points: 2
#     Edge 63, Type (0, 1), BuildingBlock: XUDNAN_clean_linker_2, # of connection points: 2
#     Edge 64, Type (0, 1), BuildingBlock: XUDNAN_clean_linker_2, # of connection points: 2
#     Edge 65, Type (0, 1), BuildingBlock: XUDNAN_clean_linker_2, # of connection points: 2
#     Edge 66, Type (0, 1), BuildingBlock: XUDNAN_clean_linker_2, # of connection points: 2
#     Edge 67, Type (0, 1), BuildingBlock: XUDNAN_clean_linker_2, # of connection points: 2
#     Edge 68, Type (0, 1), BuildingBlock: XUDNAN_clean_linker_2, # of connection points: 2
#     Edge 69, Type (0, 1), BuildingBlock: XUDNAN_clean_linker_2, # of connection points: 2
#     Edge 70, Type (0, 1), BuildingBlock: XUDNAN_clean_linker_2, # of connection points: 2
#     Edge 71, Type (0, 1), BuildingBlock: XUDNAN_clean_linker_2, # of connection points: 2
#     Edge 72, Type (0, 1), BuildingBlock: XUDNAN_clean_linker_2, # of connection points: 2
#     Edge 73, Type (0, 1), BuildingBlock: XUDNAN_clean_linker_2, # of connection points: 2
#     Edge 74, Type (0, 1), BuildingBlock: XUDNAN_clean_linker_2, # of connection points: 2
#     Edge 75, Type (0, 1), BuildingBlock: XUDNAN_clean_linker_2, # of connection points: 2
# Relax obj value: 0.004
# Max RMSD: 0.049
# Mean RMSD: 0.024
data_MOF--net-ctn--node1-WUSLED_clean_sbu_0--node2-TATPOV_clean_sbu_0--edge1-XUDNAN_clean_linker_2
_symmetry_space_group_name_H-M    P1
_symmetry_Int_Tables_number       1
_symmetry_cell_setting            triclinic
loop_
_symmetry_equiv_pos_as_xyz
'x, y, z'
_cell_length_a     71.122996
_cell_length_b     71.586521
_cell_length_c     71.393013
_cell_angle_alpha  91.638028
_cell_angle_beta   90.95146
_cell_angle_gamma 90.939759
loop_
_atom_site_label
_atom_site_type_symbol
_atom_site_fract_x
_atom_site_fract_y
_atom_site_fract_z
_atom_type_partial_charge
C0 C 0.01194 0.054 0.08267 0.0
C1 C 0.0151 0.03654 0.0905 0.0
C2 C 0.99092 0.04242 0.11386 0.0
C3 C 1.0047 0.03081 0.10592 0.0
C4 C 0.98816 0.06008 0.10616 0.0
C5 C 0.99853 0.06577 0.09074 0.0
U6 U 0.05084 0.04937 0.04573 0.0
O7 O 0.04864 0.0512 0.01503 0.0
O8 O 0.06633 0.07147 0.03118 0.0
C9 C 0.05942 0.06626 0.01461 0.0
C10 C 0.02181 0.0599 0.06568 0.0
C11 C 0.05313 0.08104 1.00194 0.0
C12 C 0.03795 0.11058 0.9954 0.0
C13 C 0.04365 0.09708 0.00822 0.0
C14 C 0.05128 0.0922 0.9701 0.0
C15 C 0.04149 0.10814 0.97612 0.0
C16 C 0.05699 0.07886 0.98283 0.0
C17 C 0.08661 0.00866 0.05052 0.0
C18 C 0.12 1.00349 0.04512 0.0
C19 C 0.09829 0.97715 0.04523 0.0
C20 C 0.08342 0.98929 0.04857 0.0
C21 C 0.11686 0.98401 0.04385 0.0
C22 C 0.10505 0.0157 0.0485 0.0
C23 C 0.07073 0.02066 0.05633 0.0
O24 O 0.03884 0.06705 0.06823 0.0
O25 O 0.02048 0.04828 0.05112 0.0
O26 O 0.05516 0.01897 0.04621 0.0
O27 O 0.07456 0.03802 0.06188 0.0
H28 H 0.02544 0.02725 0.08454 0.0
H29 H 0.00744 0.01724 0.11161 0.0
H30 H 0.97756 0.06933 0.11169 0.0
H31 H 0.99582 0.07928 0.08488 0.0
H32 H 0.03038 0.12265 1.00049 0.0
H33 H 0.04054 0.09909 0.02293 0.0
H34 H 0.05457 0.08999 0.95546 0.0
H35 H 0.06442 0.06671 0.97767 0.0
H36 H 0.13412 0.00927 0.04422 0.0
H37 H 0.09524 0.96229 0.044 0.0
H38 H 0.0694 0.98343 0.05012 0.0
H39 H 0.10802 0.03055 0.05001 0.0
C40 C 0.27444 0.74517 0.1766 0.0
C41 C 0.28702 0.76022 0.18003 0.0
C42 C 0.27851 0.7734 0.14986 0.0
C43 C 0.289 0.77421 0.16682 0.0
C44 C 0.26573 0.75838 0.14667 0.0
C45 C 0.26374 0.74442 0.15991 0.0
U46 U 0.29113 0.71791 0.21937 0.0
O47 O 0.27465 0.7061 0.24219 0.0
O48 O 0.29073 0.68758 0.22369 0.0
C49 C 0.27872 0.68878 0.23746 0.0
C50 C 0.27243 0.73004 0.1901 0.0
C51 C 0.26276 0.67536 0.23655 0.0
C52 C 0.23549 0.66104 0.22051 0.0
C53 C 0.25058 0.67392 0.2209 0.0
C54 C 0.24463 0.65095 0.25139 0.0
C55 C 0.23229 0.6494 0.23578 0.0
C56 C 0.25969 0.66378 0.25174 0.0
C57 C 0.33685 0.73348 0.24599 0.0
C58 C 0.35934 0.71563 0.26407 0.0
C59 C 0.35777 0.74915 0.26897 0.0
C60 C 0.34335 0.74982 0.25546 0.0
C61 C 0.36619 0.7321 0.27329 0.0
C62 C 0.34482 0.71631 0.25057 0.0
C63 C 0.32241 0.73499 0.23094 0.0
O64 O 0.28499 0.71681 0.18898 0.0
O65 O 0.26891 0.7353 0.20747 0.0
O66 O 0.30564 0.74021 0.23627 0.0
O67 O 0.32183 0.72169 0.21784 0.0
H68 H 0.29539 0.76109 0.19285 0.0
H69 H 0.29878 0.78568 0.16992 0.0
H70 H 0.25761 0.7571 0.13372 0.0
H71 H 0.25397 0.73289 0.15699 0.0
H72 H 0.22643 0.66011 0.20817 0.0
H73 H 0.25274 0.68274 0.20901 0.0
H74 H 0.24248 0.64248 0.26352 0.0
H75 H 0.26891 0.66474 0.26398 0.0
H76 H 0.36554 0.70227 0.26691 0.0
H77 H 0.36235 0.76208 0.27602 0.0
H78 H 0.33739 0.76321 0.25224 0.0
H79 H 0.34005 0.70345 0.24351 0.0
C80 C 0.96235 0.42313 0.01154 0.0
C81 C 0.9547 0.41772 0.99398 0.0
C82 C 0.97429 0.39006 0.99296 0.0
C83 C 0.96058 0.40138 0.98477 0.0
C84 C 0.98187 0.39549 0.01068 0.0
C85 C 0.97599 0.41192 0.01987 0.0
U86 U 0.96631 0.46168 0.05001 0.0
O87 O 0.96312 0.49208 0.04809 0.0
O88 O 0.94392 0.47607 0.06545 0.0
C89 C 0.94795 0.49236 0.05834 0.0
C90 C 0.95597 0.44052 0.0208 0.0
C91 C 0.93195 0.50251 0.05039 0.0
C92 C 0.9086 0.50663 0.0257 0.0
C93 C 0.923 0.49622 0.03369 0.0
C94 C 0.91157 0.5295 0.05128 0.0
C95 C 0.90289 0.52357 0.03423 0.0
C96 C 0.926 0.51907 0.05925 0.0
C97 C 1.00608 0.45945 0.08717 0.0
C98 C 0.01633 0.48497 0.10836 0.0
C99 C 0.02835 0.45387 0.11249 0.0
C100 C 0.01752 0.44728 0.09709 0.0
C101 C 0.02796 0.47281 0.11829 0.0
C102 C 1.00543 0.47833 0.09296 0.0
C103 C 0.99541 0.45217 0.0706 0.0
O104 O 0.9488 0.43878 0.03753 0.0
O105 O 0.9674 0.45504 0.01974 0.0
O106 O 0.99683 0.46199 0.05539 0.0
O107 O 0.97817 0.44621 0.07358 0.0
H108 H 0.94412 0.42616 0.98735 0.0
H109 H 0.95422 0.39751 0.9713 0.0
H110 H 0.99257 0.38722 0.01731 0.0
H111 H 0.98212 0.41591 0.03342 0.0
H112 H 0.90203 0.50148 0.01273 0.0
H113 H 0.92735 0.48341 0.02669 0.0
H114 H 0.90767 0.54253 0.05814 0.0
H115 H 0.93277 0.52415 0.07216 0.0
H116 H 0.01554 0.49959 0.11258 0.0
H117 H 0.03732 0.44417 0.11963 0.0
H118 H 0.01826 0.43268 0.09279 0.0
H119 H 0.99661 0.48794 0.0855 0.0
C120 C 0.72035 0.7475 0.18139 0.0
C121 C 0.73925 0.74227 0.17997 0.0
C122 C 0.73283 0.72714 0.14935 0.0
C123 C 0.74539 0.73216 0.1642 0.0
C124 C 0.71394 0.73255 0.15078 0.0
C125 C 0.70779 0.74254 0.16663 0.0
U126 U 0.72288 0.78808 0.2179 0.0
O127 O 0.70015 0.80444 0.23072 0.0
O128 O 0.71887 0.78808 0.24839 0.0
C129 C 0.70382 0.79847 0.24762 0.0
C130 C 0.71334 0.75768 0.19821 0.0
C131 C 0.68749 0.79214 0.25846 0.0
C132 C 0.66274 0.79978 0.28038 0.0
C133 C 0.67783 0.80531 0.26937 0.0
C134 C 0.66662 0.7677 0.26968 0.0
C135 C 0.65695 0.78089 0.28076 0.0
C136 C 0.68173 0.77328 0.25859 0.0
C137 C 0.76333 0.82494 0.21205 0.0
C138 C 0.76627 0.85757 0.2226 0.0
C139 C 0.79335 0.84152 0.21038 0.0
C140 C 0.78245 0.82522 0.20764 0.0
C141 C 0.78536 0.85802 0.21759 0.0
C142 C 0.75532 0.84117 0.21981 0.0
C143 C 0.75206 0.80791 0.20715 0.0
O144 O 0.72409 0.75761 0.21338 0.0
O145 O 0.70588 0.77405 0.19531 0.0
O146 O 0.73482 0.81031 0.20084 0.0
O147 O 0.75346 0.79388 0.21854 0.0
H148 H 0.74931 0.74585 0.1911 0.0
H149 H 0.75996 0.72805 0.16381 0.0
H150 H 0.70389 0.72925 0.13957 0.0
H151 H 0.69315 0.7464 0.16737 0.0
H152 H 0.65586 0.8103 0.2889 0.0
H153 H 0.6821 0.81991 0.26954 0.0
H154 H 0.66243 0.75309 0.26946 0.0
H155 H 0.68896 0.76288 0.25023 0.0
H156 H 0.75965 0.87003 0.22811 0.0
H157 H 0.80806 0.84122 0.20672 0.0
H158 H 0.78893 0.81286 0.20168 0.0
H159 H 0.74057 0.8413 0.22332 0.0
C160 C 0.0102 0.96461 0.42693 0.0
C161 C 0.01718 0.95925 0.40927 0.0
C162 C 0.99155 0.97511 0.39343 0.0
C163 C 0.00801 0.96447 0.39276 0.0
C164 C 0.98465 0.98055 0.4111 0.0
C165 C 0.9938 0.9753 0.42761 0.0
U166 U 0.04799 0.96841 0.46633 0.0
O167 O 0.04564 0.96492 0.49672 0.0
O168 O 0.0636 0.94625 0.48032 0.0
C169 C 0.0562 0.95002 0.49672 0.0
C170 C 0.0192 0.95824 0.44456 0.0
C171 C 0.04847 0.93391 0.50664 0.0
C172 C 0.02439 0.90986 0.51023 0.0
C173 C 0.03211 0.92449 0.50008 0.0
C174 C 0.04955 0.91358 0.53338 0.0
C175 C 0.03286 0.90439 0.52718 0.0
C176 C 0.05725 0.92822 0.52321 0.0
C177 C 0.0852 0.00837 0.46407 0.0
C178 C 0.10453 0.02275 0.4892 0.0
C179 C 0.11261 0.02737 0.45682 0.0
C180 C 0.09714 0.0163 0.45094 0.0
C181 C 0.1165 0.03079 0.47601 0.0
C182 C 0.08905 0.01157 0.48328 0.0
C183 C 0.06857 0.99748 0.45718 0.0
O184 O 0.03595 0.95086 0.44317 0.0
O185 O 0.01771 0.96932 0.45947 0.0
O186 O 0.0533 0.99876 0.46724 0.0
O187 O 0.07168 0.9804 0.45087 0.0
H188 H 0.02961 0.95077 0.40815 0.0
H189 H 0.01358 0.95975 0.37945 0.0
H190 H 0.97216 0.98892 0.41221 0.0
H191 H 0.98791 0.97951 0.44094 0.0
H192 H 0.0117 0.90291 0.50487 0.0
H193 H 0.02518 0.92863 0.48726 0.0
H194 H 0.05634 0.90988 0.54642 0.0
H195 H 0.0699 0.93535 0.52849 0.0
H196 H 0.10724 0.02496 0.50407 0.0
H197 H 0.12134 0.03355 0.44627 0.0
H198 H 0.09436 0.01411 0.43606 0.0
H199 H 0.08004 1.00553 0.49368 0.0
C200 C 0.2083 0.75671 0.83227 0.0
C201 C 0.2257 0.76585 0.8359 0.0
C202 C 0.21439 0.77843 0.86579 0.0
C203 C 0.22871 0.77656 0.85249 0.0
C204 C 0.19721 0.76882 0.8623 0.0
C205 C 0.1942 0.75817 0.84575 0.0
U206 U 0.2154 0.7195 0.7921 0.0
O207 O 0.19349 0.70316 0.77639 0.0
O208 O 0.21175 0.72267 0.7617 0.0
C209 C 0.19696 0.71141 0.76058 0.0
C210 C 0.2038 0.74698 0.81407 0.0
C211 C 0.18041 0.71849 0.75041 0.0
C212 C 0.15785 0.74288 0.74432 0.0
C213 C 0.17324 0.73626 0.75455 0.0
C214 C 0.1564 0.71392 0.72595 0.0
C215 C 0.14927 0.73182 0.72981 0.0
C216 C 0.17181 0.70735 0.73613 0.0
C217 C 0.25606 0.6842 0.79472 0.0
C218 C 0.26766 0.66428 0.76932 0.0
C219 C 0.27778 0.6592 0.80129 0.0
C220 C 0.26673 0.67407 0.80748 0.0
C221 C 0.27845 0.65409 0.78212 0.0
C222 C 0.25653 0.67916 0.77557 0.0
C223 C 0.24495 0.70009 0.80183 0.0
O224 O 0.21552 0.74939 0.80025 0.0
O225 O 0.19724 0.72974 0.81481 0.0
O226 O 0.22779 0.69608 0.80717 0.0
O227 O 0.24604 0.7156 0.79245 0.0
H228 H 0.23684 0.7651 0.82577 0.0
H229 H 0.24206 0.78387 0.85459 0.0
H230 H 0.18597 0.76961 0.87233 0.0
H231 H 0.18064 0.75135 0.84329 0.0
H232 H 0.15259 0.75663 0.74784 0.0
H233 H 0.1796 0.74504 0.76561 0.0
H234 H 0.15032 0.7051 0.71477 0.0
H235 H 0.17715 0.6936 0.73272 0.0
H236 H 0.26766 0.66062 0.7545 0.0
H237 H 0.28608 0.65191 0.81153 0.0
H238 H 0.26664 0.67776 0.8223 0.0
H239 H 0.24834 0.68676 0.76547 0.0
C240 C 0.96631 0.58341 0.51487 0.0
C241 C 0.96759 0.60104 0.50671 0.0
C242 C 0.98012 0.61494 0.536 0.0
C243 C 0.97437 0.61662 0.51718 0.0
C244 C 0.97936 0.59722 0.54397 0.0
C245 C 0.97243 0.58165 0.53354 0.0
U246 U 0.96373 0.54778 0.47344 0.0
O247 O 0.95665 0.51768 0.47291 0.0
O248 O 0.93909 0.53694 0.45726 0.0
C249 C 0.94094 0.51986 0.46327 0.0
C250 C 0.95774 0.56703 0.50459 0.0
C251 C 0.92364 0.51061 0.47033 0.0
C252 C 0.90848 0.48663 0.48878 0.0
C253 C 0.92475 0.49607 0.48314 0.0
C254 C 0.88955 0.50603 0.46899 0.0
C255 C 0.89066 0.49141 0.4817 0.0
C256 C 0.90582 0.51544 0.46333 0.0
C257 C 1.00203 0.55271 0.43504 0.0
C258 C 0.0233 0.53319 0.41689 0.0
C259 C 0.0141 0.56318 0.40531 0.0
C260 C 1.00296 0.56607 0.42105 0.0
C261 C 0.02475 0.54689 0.4032 0.0
C262 C 0.01212 0.53608 0.43267 0.0
C263 C 0.99237 0.55751 0.45277 0.0
O264 O 0.94918 0.57028 0.48857 0.0
O265 O 0.96773 0.55174 0.50403 0.0
O266 O 0.99366 0.54571 0.4665 0.0
O267 O 0.97566 0.56498 0.45128 0.0
H268 H 0.96309 0.6029 0.49233 0.0
H269 H 0.97499 0.63005 0.51058 0.0
H270 H 0.98351 0.59549 0.55847 0.0
H271 H 0.97151 0.56826 0.54019 0.0
H272 H 0.90987 0.47556 0.49871 0.0
H273 H 0.93823 0.4918 0.48869 0.0
H274 H 0.87613 0.5099 0.463 0.0
H275 H 0.90443 0.52632 0.45318 0.0
H276 H 0.03141 0.52054 0.41582 0.0
H277 H 0.01459 0.57389 0.3949 0.0
H278 H 0.99548 0.57908 0.42255 0.0
H279 H 0.01187 0.52555 0.44326 0.0
C280 C 0.78725 0.78681 0.85511 0.0
C281 C 0.7967 0.76979 0.85353 0.0
C282 C 0.7851 0.76073 0.88405 0.0
C283 C 0.79559 0.75683 0.86786 0.0
C284 C 0.77574 0.77786 0.8855 0.0
C285 C 0.7768 0.79073 0.87118 0.0
U286 U 0.80865 0.80869 0.81131 0.0
O287 O 0.79414 0.82061 0.787 0.0
O288 O 0.81265 0.83839 0.80507 0.0
C289 C 0.80027 0.83769 0.79116 0.0
C290 C 0.78791 0.80069 0.84026 0.0
C291 C 0.78609 0.8527 0.79073 0.0
C292 C 0.77423 0.88263 0.80218 0.0
C293 C 0.78683 0.86789 0.8037 0.0
C294 C 0.75971 0.86724 0.77487 0.0
C295 C 0.76059 0.88255 0.78767 0.0
C296 C 0.77237 0.85256 0.77633 0.0
C297 C 0.85272 0.78796 0.78823 0.0
C298 C 0.88182 0.8004 0.77552 0.0
C299 C 0.86775 0.77202 0.76197 0.0
C300 C 0.85317 0.77318 0.77487 0.0
C301 C 0.88235 0.78552 0.76223 0.0
C302 C 0.86719 0.80162 0.78835 0.0
C303 C 0.83776 0.78826 0.80252 0.0
O304 O 0.80218 0.81259 0.84122 0.0
O305 O 0.78411 0.79439 0.82311 0.0
O306 O 0.82055 0.78428 0.79646 0.0
O307 O 0.8385 0.80202 0.81513 0.0
H308 H 0.80491 0.76654 0.84125 0.0
H309 H 0.80313 0.74386 0.86637 0.0
H310 H 0.76731 0.78122 0.89759 0.0
H311 H 0.76937 0.80377 0.87262 0.0
H312 H 0.77516 0.89409 0.81241 0.0
H313 H 0.79728 0.86857 0.81491 0.0
H314 H 0.74955 0.86683 0.76339 0.0
H315 H 0.77162 0.84122 0.76596 0.0
H316 H 0.89272 0.81115 0.77596 0.0
H317 H 0.86783 0.76027 0.75207 0.0
H318 H 0.84237 0.76232 0.77458 0.0
H319 H 0.86736 0.81319 0.79846 0.0
C320 C 0.28527 0.27968 0.34843 0.0
C321 C 0.30061 0.26766 0.34746 0.0
C322 C 0.28667 0.24794 0.37107 0.0
C323 C 0.30133 0.25198 0.35869 0.0
C324 C 0.27151 0.26029 0.37226 0.0
C325 C 0.27083 0.276 0.36101 0.0
U326 U 0.30364 0.30799 0.30788 0.0
O327 O 0.28848 0.32191 0.28523 0.0
O328 O 0.30654 0.33842 0.30489 0.0
C329 C 0.2942 0.33872 0.29097 0.0
C330 C 0.28405 0.29582 0.33612 0.0
C331 C 0.27985 0.35358 0.29179 0.0
C332 C 0.25019 0.36637 0.28078 0.0
C333 C 0.26269 0.35151 0.28179 0.0
C334 C 0.27154 0.38568 0.29999 0.0
C335 C 0.25458 0.38375 0.28964 0.0
C336 C 0.28404 0.37082 0.30099 0.0
C337 C 0.34791 0.29063 0.28208 0.0
C338 C 0.36171 0.27883 0.25309 0.0
C339 C 0.37868 0.30196 0.27242 0.0
C340 C 0.36391 0.30222 0.28512 0.0
C341 C 0.37789 0.29008 0.25637 0.0
C342 C 0.34695 0.27903 0.26584 0.0
C343 C 0.33307 0.28932 0.29645 0.0
O344 O 0.29781 0.30825 0.33807 0.0
O345 O 0.27971 0.29175 0.31849 0.0
O346 O 0.31584 0.28557 0.29034 0.0
O347 O 0.33376 0.30184 0.3103 0.0
H348 H 0.31194 0.27032 0.33787 0.0
H349 H 0.31336 0.24296 0.3576 0.0
H350 H 0.25991 0.25752 0.38146 0.0
H351 H 0.25886 0.28514 0.36193 0.0
H352 H 0.23739 0.36444 0.27248 0.0
H353 H 0.25911 0.33855 0.27425 0.0
H354 H 0.27529 0.39877 0.30719 0.0
H355 H 0.29722 0.37302 0.30862 0.0
H356 H 0.36073 0.26936 0.241 0.0
H357 H 0.39083 0.31098 0.27526 0.0
H358 H 0.36525 0.31124 0.29752 0.0
H359 H 0.33497 0.26972 0.26321 0.0
C360 C 0.46437 0.92955 0.51103 0.0
C361 C 0.47856 0.91843 0.51854 0.0
C362 C 0.47477 0.89601 0.49225 0.0
C363 C 0.48368 0.90179 0.50926 0.0
C364 C 0.46052 0.90724 0.48487 0.0
C365 C 0.45539 0.92382 0.49417 0.0
U366 U 0.47134 0.96767 0.54934 0.0
O367 O 0.4689 0.99828 0.548 0.0
O368 O 0.45068 0.98246 0.56659 0.0
C369 C 0.45486 0.99884 0.55972 0.0
C370 C 0.45883 0.94715 0.52049 0.0
C371 C 0.43891 0.01071 0.5546 0.0
C372 C 0.40707 0.01492 0.54256 0.0
C373 C 0.42235 1.0033 0.54611 0.0
C374 C 0.42488 0.04147 0.55559 0.0
C375 C 0.40809 0.03414 0.54745 0.0
C376 C 0.44008 0.02987 0.55913 0.0
C377 C 0.51211 0.96388 0.58478 0.0
C378 C 0.53483 0.95785 0.60956 0.0
C379 C 0.52142 0.98861 0.60732 0.0
C380 C 0.51074 0.98239 0.5916 0.0
C381 C 0.53353 0.97636 0.61654 0.0
C382 C 0.52423 0.9517 0.59384 0.0
C383 C 0.50101 0.95693 0.56837 0.0
O384 O 0.45235 0.9456 0.53753 0.0
O385 O 0.47062 0.96134 0.51896 0.0
O386 O 0.50206 0.96702 0.55331 0.0
O387 O 0.48381 0.95119 0.57183 0.0
H388 H 0.48571 0.92267 0.53153 0.0
H389 H 0.49484 0.89362 0.51525 0.0
H390 H 0.45315 0.90312 0.47197 0.0
H391 H 0.44438 0.93218 0.48818 0.0
H392 H 0.39433 0.00876 0.53639 0.0
H393 H 0.42113 0.98852 0.5425 0.0
H394 H 0.42634 0.05622 0.5592 0.0
H395 H 0.45275 0.03587 0.56564 0.0
H396 H 0.5442 0.94812 0.61614 0.0
H397 H 0.51995 1.00289 0.61244 0.0
H398 H 0.50136 0.99199 0.58482 0.0
H399 H 0.5255 0.93737 0.58876 0.0
C400 C 0.21791 0.24941 0.67785 0.0
C401 C 0.23259 0.25702 0.66745 0.0
C402 C 0.229 0.23166 0.64393 0.0
C403 C 0.23808 0.24824 0.65065 0.0
C404 C 0.21438 0.22406 0.65456 0.0
C405 C 0.2089 0.23286 0.67132 0.0
U406 U 0.22205 0.2883 0.71585 0.0
O407 O 0.19985 0.30406 0.73024 0.0
O408 O 0.21914 0.28687 0.74642 0.0
C409 C 0.20408 0.29729 0.74667 0.0
C410 C 0.21171 0.2586 0.6954 0.0
C411 C 0.18808 0.29049 0.75773 0.0
C412 C 0.16336 0.29745 0.77991 0.0
C413 C 0.17824 0.30337 0.76883 0.0
C414 C 0.16782 0.26555 0.76896 0.0
C415 C 0.15794 0.27846 0.78018 0.0
C416 C 0.18272 0.27151 0.7578 0.0
C417 C 0.26185 0.32582 0.71009 0.0
C418 C 0.26481 0.35815 0.72163 0.0
C419 C 0.29178 0.34261 0.70855 0.0
C420 C 0.28092 0.32633 0.70543 0.0
C421 C 0.28383 0.35885 0.71638 0.0
C422 C 0.2539 0.34178 0.71847 0.0
C423 C 0.25059 0.30887 0.70483 0.0
O424 O 0.22354 0.25803 0.7097 0.0
O425 O 0.20412 0.27508 0.69362 0.0
O426 O 0.2331 0.31134 0.69928 0.0
O427 O 0.25257 0.29437 0.71552 0.0
H428 H 0.23976 0.26977 0.6723 0.0
H429 H 0.24954 0.25437 0.643 0.0
H430 H 0.20689 0.21149 0.64974 0.0
H431 H 0.19751 0.2268 0.67914 0.0
H432 H 0.15631 0.30777 0.78854 0.0
H433 H 0.18219 0.31806 0.76906 0.0
H434 H 0.16392 0.25085 0.76866 0.0
H435 H 0.19007 0.26132 0.74928 0.0
H436 H 0.25821 0.37041 0.72762 0.0
H437 H 0.30644 0.34249 0.70468 0.0
H438 H 0.28736 0.31418 0.699 0.0
H439 H 0.2392 0.34174 0.72219 0.0
C440 C 0.76968 0.24322 0.68201 0.0
C441 C 0.78602 0.25041 0.67384 0.0
C442 C 0.76723 0.27209 0.65573 0.0
C443 C 0.7848 0.26468 0.66078 0.0
C444 C 0.751 0.26488 0.66415 0.0
C445 C 0.75223 0.25065 0.6771 0.0
U446 U 0.79137 0.21383 0.72174 0.0
O447 O 0.77707 0.20086 0.74527 0.0
O448 O 0.79082 0.18314 0.72418 0.0
C449 C 0.77991 0.18374 0.73887 0.0
C450 C 0.77012 0.22753 0.69507 0.0
C451 C 0.76343 0.17077 0.73832 0.0
C452 C 0.72963 0.16479 0.73895 0.0
C453 C 0.74492 0.17734 0.73851 0.0
C454 C 0.751 0.13884 0.73867 0.0
C455 C 0.73243 0.14534 0.73907 0.0
C456 C 0.7663 0.15142 0.73835 0.0
C457 C 0.83918 0.22804 0.74507 0.0
C458 C 0.85148 0.21816 0.77521 0.0
C459 C 0.87164 0.2351 0.75434 0.0
C460 C 0.85683 0.23589 0.74126 0.0
C461 C 0.86912 0.22646 0.77162 0.0
C462 C 0.83664 0.21896 0.76205 0.0
C463 C 0.82358 0.23027 0.73143 0.0
O464 O 0.78274 0.21462 0.69203 0.0
O465 O 0.76819 0.23189 0.71293 0.0
O466 O 0.80734 0.23517 0.73841 0.0
O467 O 0.82193 0.21744 0.71793 0.0
H468 H 0.79968 0.24493 0.67742 0.0
H469 H 0.79761 0.27 0.65473 0.0
H470 H 0.73721 0.26996 0.66042 0.0
H471 H 0.73943 0.24523 0.68313 0.0
H472 H 0.7156 0.1704 0.73954 0.0
H473 H 0.74224 0.19219 0.73854 0.0
H474 H 0.75377 0.12401 0.73843 0.0
H475 H 0.78043 0.146 0.73821 0.0
H476 H 0.84898 0.21151 0.78839 0.0
H477 H 0.88508 0.24131 0.7509 0.0
H478 H 0.85912 0.24289 0.72821 0.0
H479 H 0.82311 0.21277 0.76527 0.0
C480 C 0.50918 0.55839 0.58462 0.0
C481 C 0.5111 0.54017 0.59108 0.0
C482 C 0.4876 0.54606 0.61514 0.0
C483 C 0.50041 0.53406 0.60616 0.0
C484 C 0.48606 0.56442 0.60878 0.0
C485 C 0.49671 0.57048 0.59369 0.0
U486 U 0.54798 0.55389 0.54762 0.0
O487 O 0.54648 0.55909 0.5174 0.0
O488 O 0.56599 0.57576 0.53553 0.0
C489 C 0.55886 0.57293 0.51856 0.0
C490 C 0.51954 0.5649 0.56815 0.0
C491 C 0.55501 0.58963 0.50737 0.0
C492 C 0.53372 0.61011 0.49069 0.0
C493 C 0.5367 0.59582 0.50353 0.0
C494 C 0.56727 0.61252 0.48596 0.0
C495 C 0.54898 0.61821 0.48136 0.0
C496 C 0.57023 0.59845 0.49881 0.0
C497 C 0.58122 0.51091 0.55008 0.0
C498 C 0.61429 0.50552 0.54325 0.0
C499 C 0.59276 0.47925 0.5458 0.0
C500 C 0.57802 0.49152 0.54923 0.0
C501 C 0.61119 0.48603 0.5432 0.0
C502 C 0.59946 0.51786 0.54673 0.0
C503 C 0.56566 0.52314 0.55618 0.0
O504 O 0.53697 0.57069 0.57128 0.0
O505 O 0.51757 0.5545 0.55275 0.0
O506 O 0.55056 0.52322 0.54532 0.0
O507 O 0.57018 0.53974 0.56341 0.0
H508 H 0.52071 0.53061 0.58434 0.0
H509 H 0.50221 0.51992 0.6108 0.0
H510 H 0.47623 0.574 0.61513 0.0
H511 H 0.49498 0.58459 0.58891 0.0
H512 H 0.51947 0.61415 0.48737 0.0
H513 H 0.5247 0.58922 0.50993 0.0
H514 H 0.57933 0.61861 0.47917 0.0
H515 H 0.58447 0.59394 0.50153 0.0
H516 H 0.62829 0.51124 0.54137 0.0
H517 H 0.58974 0.46436 0.54551 0.0
H518 H 0.56413 0.48578 0.55177 0.0
H519 H 0.60239 0.53276 0.54732 0.0
C520 C 0.50821 0.46541 0.92632 0.0
C521 C 0.49124 0.4566 0.92065 0.0
C522 C 0.4891 0.47631 0.89338 0.0
C523 C 0.48178 0.46197 0.90438 0.0
C524 C 0.50617 0.48514 0.89915 0.0
C525 C 0.51562 0.47977 0.91549 0.0
U526 U 0.54699 0.47091 0.96422 0.0
O527 O 0.54603 0.46636 0.99455 0.0
O528 O 0.56475 0.44956 0.97694 0.0
C529 C 0.55777 0.45236 0.9937 0.0
C530 C 0.51801 0.45929 0.9434 0.0
C531 C 0.55302 0.43547 1.00434 0.0
C532 C 0.53252 0.41816 0.02501 0.0
C533 C 0.53566 0.43324 0.01326 0.0
C534 C 0.56378 0.40701 0.01871 0.0
C535 C 0.54669 0.40504 0.02816 0.0
C536 C 0.56691 0.42206 0.00703 0.0
C537 C 0.58225 0.51209 0.96228 0.0
C538 C 0.60563 0.52015 0.9866 0.0
C539 C 0.60658 0.53541 0.95677 0.0
C540 C 0.59073 0.52504 0.95059 0.0
C541 C 0.61429 0.53307 0.97482 0.0
C542 C 0.58977 0.50969 0.98035 0.0
C543 C 0.56573 0.50121 0.9552 0.0
O544 O 0.53518 0.45322 0.94106 0.0
O545 O 0.51646 0.47026 0.95836 0.0
O546 O 0.55084 0.50148 0.96586 0.0
O547 O 0.56923 0.48452 0.94811 0.0
H548 H 0.48534 0.44544 0.92878 0.0
H549 H 0.46884 0.45466 0.90027 0.0
H550 H 0.51212 0.49636 0.89116 0.0
H551 H 0.5287 0.48678 0.91967 0.0
H552 H 0.51924 0.41718 0.03214 0.0
H553 H 0.52467 0.44339 0.01157 0.0
H554 H 0.57489 0.39701 0.0205 0.0
H555 H 0.58045 0.42346 1.00041 0.0
H556 H 0.61131 0.51788 1.0005 0.0
H557 H 0.6127 0.54542 0.94744 0.0
H558 H 0.5851 0.52711 0.93662 0.0
H559 H 0.58344 0.49968 0.98955 0.0
C560 C 0.71385 0.25634 0.33366 0.0
C561 C 0.69987 0.2565 0.34731 0.0
C562 C 0.7185 0.27832 0.36718 0.0
C563 C 0.70217 0.26728 0.36387 0.0
C564 C 0.73279 0.27771 0.35376 0.0
C565 C 0.73048 0.26689 0.33715 0.0
U566 U 0.7218 0.21997 0.29264 0.0
O567 O 0.70013 0.2033 0.27698 0.0
O568 O 0.71736 0.22378 0.26241 0.0
C569 C 0.70297 0.21202 0.26131 0.0
C570 C 0.70976 0.24666 0.31533 0.0
C571 C 0.68595 0.21876 0.25174 0.0
C572 C 0.66127 0.24159 0.2482 0.0
C573 C 0.67751 0.23551 0.25744 0.0
C574 C 0.66172 0.2142 0.22752 0.0
C575 C 0.65311 0.23098 0.23314 0.0
C576 C 0.67796 0.20818 0.23673 0.0
C577 C 0.76293 0.18516 0.29275 0.0
C578 C 0.79262 0.17368 0.28065 0.0
C579 C 0.76683 0.15197 0.28531 0.0
C580 C 0.75567 0.16674 0.29166 0.0
C581 C 0.78551 0.15521 0.27988 0.0
C582 C 0.7815 0.18844 0.28709 0.0
C583 C 0.75194 0.20082 0.30094 0.0
O584 O 0.72135 0.24967 0.30152 0.0
O585 O 0.70372 0.22923 0.3158 0.0
O586 O 0.73506 0.19672 0.30707 0.0
O587 O 0.7526 0.21672 0.29216 0.0
H588 H 0.68687 0.24861 0.34497 0.0
H589 H 0.69101 0.26711 0.374 0.0
H590 H 0.7455 0.28613 0.35577 0.0
H591 H 0.74149 0.26719 0.32686 0.0
H592 H 0.65521 0.25468 0.25279 0.0
H593 H 0.68349 0.24389 0.26901 0.0
H594 H 0.65572 0.2055 0.21621 0.0
H595 H 0.68424 0.19516 0.23218 0.0
H596 H 0.807 0.17669 0.27681 0.0
H597 H 0.76081 0.13797 0.2847 0.0
H598 H 0.74146 0.16363 0.29594 0.0
H599 H 0.78758 0.20242 0.28798 0.0
C600 C 0.46516 0.09088 0.00998 0.0
C601 C 0.47294 0.08825 0.02791 0.0
C602 C 0.4783 0.12179 0.0325 0.0
C603 C 0.47952 0.10349 0.039 0.0
C604 C 0.47069 0.12443 0.01447 0.0
C605 C 0.46419 0.10916 1.00333 0.0
U606 U 0.46454 0.05418 0.96906 0.0
O607 O 0.45787 0.02405 0.96977 0.0
O608 O 0.44061 0.04224 0.95254 0.0
C609 C 0.44252 0.02551 0.95941 0.0
C610 C 0.45701 0.07461 0.99911 0.0
C611 C 0.42529 0.01605 0.96631 0.0
C612 C 0.39121 0.01411 0.96966 0.0
C613 C 0.40739 0.02393 0.96432 0.0
C614 C 0.41046 0.98846 0.97933 0.0
C615 C 0.3925 0.99614 0.97706 0.0
C616 C 0.4266 0.99823 0.97394 0.0
C617 C 0.50445 0.05463 0.93313 0.0
C618 C 0.51055 0.02917 0.91094 0.0
C619 C 0.53023 0.05711 0.91127 0.0
C620 C 0.51951 0.0648 0.92577 0.0
C621 C 0.52613 0.03902 0.90394 0.0
C622 C 0.49982 0.03689 0.92541 0.0
C623 C 0.49455 0.06226 0.94957 0.0
O624 O 0.44982 0.07774 0.98241 0.0
O625 O 0.46658 0.05907 0.99962 0.0
O626 O 0.49489 0.05184 0.96442 0.0
O627 O 0.47798 0.06949 0.94632 0.0
H628 H 0.47364 0.07437 0.03354 0.0
H629 H 0.48504 0.10096 0.05291 0.0
H630 H 0.46971 0.13833 0.00896 0.0
H631 H 0.45819 0.11176 0.98963 0.0
H632 H 0.37763 0.0204 0.96748 0.0
H633 H 0.40578 0.03755 0.95832 0.0
H634 H 0.4121 0.97481 0.98524 0.0
H635 H 0.44015 0.9917 0.97553 0.0
H636 H 0.5068 0.01534 0.90542 0.0
H637 H 0.54218 0.06502 0.90635 0.0
H638 H 0.52331 0.07852 0.93159 0.0
H639 H 0.48819 0.02886 0.93085 0.0
Zn640 Zn 0.28837 0.86149 1.0021 0.0
Zn641 Zn 0.25831 0.87979 0.01272 0.0
O642 O 0.26495 0.86372 0.03614 0.0
O643 O 0.29118 0.85028 0.02743 0.0
O644 O 0.23465 0.89373 0.02093 0.0
O645 O 0.30228 0.8853 0.99703 0.0
O646 O 0.27813 0.90111 0.00744 0.0
C647 C 0.27882 0.85315 0.03968 0.0
C648 C 0.25711 0.85194 0.97821 0.0
O649 O 0.24921 0.86403 0.98889 0.0
O650 O 0.27413 0.84788 0.9812 0.0
C651 C 0.22912 0.90924 0.01459 0.0
O652 O 0.23906 0.91741 1.00171 0.0
C653 C 0.29481 0.90081 1.00098 0.0
Zn654 Zn 0.11191 0.47799 0.27079 0.0
Zn655 Zn 0.1313 0.50987 0.26403 0.0
O656 O 0.1154 0.51705 0.28719 0.0
O657 O 0.09981 0.49107 0.29296 0.0
O658 O 0.14658 0.53349 0.25889 0.0
O659 O 0.13632 0.46419 0.27419 0.0
O660 O 0.1519 0.49025 0.26879 0.0
C661 C 0.10361 0.50808 0.29699 0.0
C662 C 0.10348 0.4925 0.23435 0.0
O663 O 0.11536 0.50519 0.23971 0.0
O664 O 0.09962 0.47919 0.24504 0.0
C665 C 0.13904 0.54744 0.25127 0.0
O666 O 0.12101 0.54655 0.24693 0.0
C667 C 0.15182 0.47292 0.27256 0.0
Zn668 Zn 0.76754 0.61352 0.96775 0.0
Zn669 Zn 0.76721 0.62916 1.00191 0.0
O670 O 0.79086 0.61209 1.00351 0.0
O671 O 0.79134 0.60042 0.97465 0.0
O672 O 0.767 0.64356 0.02711 0.0
O673 O 0.76919 0.63811 0.95504 0.0
O674 O 0.76982 0.65114 0.98331 0.0
C675 C 0.79855 0.6018 0.99098 0.0
C676 C 0.73408 0.60371 0.98725 0.0
O677 O 0.74173 0.6141 1.00019 0.0
O678 O 0.7424 0.60122 0.97186 0.0
C679 C 0.75246 0.64656 0.03688 0.0
O680 O 0.73619 0.63932 0.03121 0.0
C681 C 0.77031 0.65264 0.96552 0.0
Zn682 Zn 0.86215 1.00261 0.28146 0.0
Zn683 Zn 0.88399 0.00783 0.2518 0.0
O684 O 0.86915 0.03288 0.25377 0.0
O685 O 0.85134 0.0282 0.2782 0.0
O686 O 0.90048 0.00986 0.22856 0.0
O687 O 0.88515 0.99939 0.29788 0.0
O688 O 0.9033 1.00408 0.27373 0.0
C689 C 0.85665 0.03861 0.26518 0.0
C690 C 0.85449 0.97482 0.25309 0.0
O691 O 0.86738 0.98408 0.24498 0.0
O692 O 0.84931 0.97997 0.26928 0.0
C693 C 0.91 0.02408 0.22361 0.0
O694 O 0.90956 0.03956 0.23392 0.0
C695 C 0.90144 1.00073 0.2911 0.0
Zn696 Zn 0.27198 0.10656 0.47232 0.0
Zn697 Zn 0.26635 0.13239 0.49834 0.0
O698 O 0.28957 0.11776 0.50852 0.0
O699 O 0.29373 0.09615 0.4865 0.0
O700 O 0.26206 0.15261 0.5185 0.0
O701 O 0.27658 0.12582 0.45308 0.0
O702 O 0.2715 0.14793 0.47433 0.0
C703 C 0.2986 0.10372 0.5021 0.0
C704 C 0.23541 0.10275 0.48751 0.0
O705 O 0.24106 0.11693 0.49747 0.0
O706 O 0.24617 0.09563 0.47541 0.0
C707 C 0.25775 0.14901 0.53528 0.0
O708 O 0.25603 0.13148 0.54004 0.0
C709 C 0.27546 0.14301 0.45751 0.0
Zn710 Zn 0.35915 0.50358 0.78226 0.0
Zn711 Zn 0.38064 0.50945 0.75252 0.0
O712 O 0.36509 0.5341 0.7546 0.0
O713 O 0.34765 0.52889 0.77918 0.0
O714 O 0.39683 0.51196 0.72912 0.0
O715 O 0.38231 0.50095 0.79858 0.0
O716 O 0.40024 0.50603 0.77434 0.0
C717 C 0.35254 0.53946 0.76613 0.0
C718 C 0.35195 0.47576 0.75379 0.0
O719 O 0.36456 0.48539 0.74566 0.0
O720 O 0.34678 0.48065 0.77006 0.0
C721 C 0.4073 0.52582 0.72497 0.0
O722 O 0.40818 0.54057 0.73636 0.0
C723 C 0.39854 0.50265 0.79173 0.0
Zn724 Zn 0.78284 0.35936 0.50957 0.0
Zn725 Zn 0.75231 0.38025 0.51584 0.0
O726 O 0.75578 0.3644 0.53978 0.0
O727 O 0.78033 0.34683 0.53449 0.0
O728 O 0.72867 0.3951 0.52217 0.0
O729 O 0.79844 0.38306 0.50749 0.0
O730 O 0.77343 0.4003 0.51186 0.0
C731 C 0.76713 0.35185 0.54509 0.0
C732 C 0.75365 0.35242 0.48166 0.0
O733 O 0.74495 0.36455 0.49159 0.0
O734 O 0.77016 0.34783 0.48637 0.0
C735 C 0.72318 0.41032 0.51516 0.0
O736 O 0.73324 0.41805 0.5021 0.0
C737 C 0.79102 0.39902 0.50876 0.0
Zn738 Zn 0.61584 0.97175 0.76877 0.0
Zn739 Zn 0.6321 1.00521 0.76747 0.0
O740 O 0.61566 0.00836 0.79147 0.0
O741 O 0.60395 0.97975 0.79296 0.0
O742 O 0.64622 0.03011 0.76473 0.0
O743 O 0.64051 0.95866 0.76956 0.0
O744 O 0.65421 0.98645 0.7704 0.0
C745 C 0.60563 0.99624 0.79976 0.0
C746 C 0.60528 0.98973 0.73542 0.0
O747 O 0.61645 1.00232 0.74243 0.0
O748 O 0.60228 0.97492 0.74424 0.0
C749 C 0.63901 0.04359 0.756 0.0
O750 O 0.62168 0.04172 0.74948 0.0
C751 C 0.65534 0.96865 0.7707 0.0
Zn752 Zn 0.00805 0.28101 0.86294 0.0
Zn753 Zn 0.01281 0.2509 0.88273 0.0
O754 O 0.03773 0.25306 0.86722 0.0
O755 O 0.03323 0.2784 0.8511 0.0
O756 O 0.0166 0.22757 0.89852 0.0
O757 O 1.00517 0.29725 0.88597 0.0
O758 O 0.00884 0.27237 0.90297 0.0
C759 C 0.04349 0.26482 0.85531 0.0
C760 C 0.97957 0.25357 0.85393 0.0
O761 O 0.98863 0.24444 0.86621 0.0
O762 O 0.98514 0.26984 0.84996 0.0
C763 C 0.01403 0.21138 0.89096 0.0
O764 O 0.00925 0.21013 0.8731 0.0
C765 C 1.00596 0.28992 0.90188 0.0
Zn766 Zn 0.50651 0.78513 0.36274 0.0
Zn767 Zn 0.51117 0.75528 0.38292 0.0
O768 O 0.5361 0.75778 0.36745 0.0
O769 O 0.53186 0.78304 0.35118 0.0
O770 O 0.51573 0.73222 0.39893 0.0
O771 O 0.50295 0.80152 0.38557 0.0
O772 O 0.50681 0.77691 0.4029 0.0
C773 C 0.54205 0.76947 0.35558 0.0
C774 C 0.47841 0.75707 0.35373 0.0
O775 O 0.48716 0.74818 0.36641 0.0
O776 O 0.48409 0.77325 0.34954 0.0
C777 C 0.52335 0.71794 0.39144 0.0
O778 O 0.52755 0.71833 0.3736 0.0
C779 C 0.5037 0.79439 0.40157 0.0
Zn780 Zn 0.96999 0.76778 0.61608 0.0
Zn781 Zn 1.00389 0.7686 0.63165 0.0
O782 O 1.00489 0.79197 0.6145 0.0
O783 O 0.97588 0.79171 0.60325 0.0
O784 O 0.02952 0.76863 0.64498 0.0
O785 O 0.95725 0.76868 0.64095 0.0
O786 O 0.98541 0.77108 0.65407 0.0
C787 C 0.99208 0.79929 0.60445 0.0
C788 C 0.99025 0.73509 0.60605 0.0
O789 O 1.0027 0.74291 0.6169 0.0
O790 O 0.97483 0.74316 0.60308 0.0
C791 C 0.03478 0.75462 0.65423 0.0
O792 O 0.02356 0.73988 0.65476 0.0
C793 C 0.96752 0.7706 0.65553 0.0
Zn794 Zn 0.47589 0.27525 0.11489 0.0
Zn795 Zn 0.50757 0.26949 0.13552 0.0
O796 O 0.51497 0.29222 0.1197 0.0
O797 O 0.48916 0.2974 0.1033 0.0
O798 O 0.52983 0.26589 0.1533 0.0
O799 O 0.46038 0.2787 0.13837 0.0
O800 O 0.4864 0.27416 0.15455 0.0
C801 C 0.5061 0.30166 0.10758 0.0
C802 C 0.49261 0.23896 0.10765 0.0
O803 O 0.50481 0.24472 0.1199 0.0
O804 O 0.47901 0.24929 0.10325 0.0
C805 C 0.54561 0.25862 0.1496 0.0
O806 O 0.54888 0.25267 0.1324 0.0
C807 C 0.46883 0.27747 0.15403 0.0
H808 H 0.24621 0.78324 0.88826 0.0
H809 H 0.18869 0.80181 0.88214 0.0
H810 H 0.19295 0.8222 0.91039 0.0
H811 H 0.24752 0.78268 0.93858 0.0
H812 H 0.27148 0.79118 0.94057 0.0
H813 H 0.26377 0.77783 0.92002 0.0
H814 H 0.27474 0.80469 0.89898 0.0
H815 H 0.28251 0.81811 0.91947 0.0
H816 H 0.26602 0.82791 0.90319 0.0
H817 H 0.20376 0.84112 0.93947 0.0
H818 H 0.2203 0.85669 0.96661 0.0
H819 H 0.27068 0.82594 0.95318 0.0
C820 C 0.23452 0.79166 0.89275 0.0
C821 C 0.21707 0.79076 0.88293 0.0
C822 C 0.20211 0.80193 0.88953 0.0
C823 C 0.20442 0.81369 0.90553 0.0
C824 C 0.22179 0.81421 0.91486 0.0
C825 C 0.23658 0.80349 0.90869 0.0
C826 C 0.25385 0.80666 0.92115 0.0
C827 C 0.25948 0.78851 0.93064 0.0
C828 C 0.27025 0.81483 0.91003 0.0
C829 C 0.2465 0.82086 0.93526 0.0
C830 C 0.22798 0.82506 0.93144 0.0
C831 C 0.21827 0.8379 0.94258 0.0
C832 C 0.22778 0.84669 0.95799 0.0
C833 C 0.2468 0.84259 0.96212 0.0
C834 C 0.25614 0.82944 0.95051 0.0
H835 H 0.03184 0.51502 0.38192 0.0
H836 H 0.04773 0.57369 0.38849 0.0
H837 H 0.06968 0.57024 0.36227 0.0
H838 H 0.0782 0.4984 0.37116 0.0
H839 H 0.06971 0.4809 0.35429 0.0
H840 H 0.05513 0.48802 0.37352 0.0
H841 H 0.02854 0.49633 0.35008 0.0
H842 H 0.04304 0.48922 0.3308 0.0
H843 H 0.03344 0.51237 0.3317 0.0
H844 H 0.09015 0.56035 0.33523 0.0
H845 H 0.10705 0.5448 0.30927 0.0
H846 H 0.07804 0.4926 0.32069 0.0
C847 C 0.04001 0.52713 0.37794 0.0
C848 C 0.03792 0.54466 0.38726 0.0
C849 C 0.04879 0.56018 0.38141 0.0
C850 C 0.06142 0.55833 0.3666 0.0
C851 C 0.06311 0.54088 0.35773 0.0
C852 C 0.05269 0.52555 0.36316 0.0
C853 C 0.05708 0.50837 0.35124 0.0
C854 C 0.06554 0.49302 0.36327 0.0
C855 C 0.03948 0.50115 0.34031 0.0
C856 C 0.07156 0.51644 0.33824 0.0
C857 C 0.07489 0.5352 0.34222 0.0
C858 C 0.08766 0.54564 0.332 0.0
C859 C 0.09721 0.53668 0.31729 0.0
C860 C 0.09393 0.51746 0.31289 0.0
C861 C 0.08094 0.50729 0.32364 0.0
H862 H 0.78054 0.72247 0.88076 0.0
H863 H 0.78654 0.76796 0.92204 0.0
H864 H 0.78316 0.74549 0.94744 0.0
H865 H 0.74596 0.69614 0.90499 0.0
H866 H 0.75536 0.67374 0.89827 0.0
H867 H 0.75848 0.69339 0.88336 0.0
H868 H 0.79457 0.68898 0.88442 0.0
H869 H 0.79155 0.66926 0.89926 0.0
H870 H 0.8067 0.68856 0.90678 0.0
H871 H 0.77882 0.71781 0.96849 0.0
H872 H 0.77436 0.68722 0.98325 0.0
H873 H 0.7715 0.66007 0.92808 0.0
C874 C 0.78137 0.72771 0.89514 0.0
C875 C 0.78377 0.74703 0.89936 0.0
C876 C 0.78447 0.75327 0.91841 0.0
C877 C 0.78265 0.7406 0.93295 0.0
C878 C 0.78014 0.72168 0.92828 0.0
C879 C 0.77955 0.71526 0.90983 0.0
C880 C 0.77656 0.69426 0.90855 0.0
C881 C 0.75798 0.68909 0.89818 0.0
C882 C 0.79335 0.68471 0.8992 0.0
C883 C 0.77559 0.68987 0.92915 0.0
C884 C 0.77767 0.70585 0.94034 0.0
C885 C 0.7772 0.7052 0.95985 0.0
C886 C 0.77463 0.68776 0.96812 0.0
C887 C 0.77257 0.67118 0.95689 0.0
C888 C 0.77303 0.67241 0.93714 0.0
H889 H 0.95331 0.97575 0.3869 0.0
H890 H 1.00666 0.98575 0.35997 0.0
H891 H 0.9897 0.99339 0.33074 0.0
H892 H 0.92928 0.95465 0.3473 0.0
H893 H 0.9071 0.96529 0.35249 0.0
H894 H 0.92351 0.96068 0.37119 0.0
H895 H 0.92306 0.99555 0.38197 0.0
H896 H 0.9066 1.00026 0.36333 0.0
H897 H 0.92843 0.01336 0.36543 0.0
H898 H 0.96642 0.99976 0.30405 0.0
H899 H 0.9391 1.00445 0.2828 0.0
H900 H 0.90146 0.9909 0.32789 0.0
C901 C 0.96149 0.97977 0.37497 0.0
C902 C 0.98138 0.98013 0.37583 0.0
C903 C 0.99144 0.98512 0.35967 0.0
C904 C 0.98192 0.9896 0.343 0.0
C905 C 0.96231 0.98906 0.34267 0.0
C906 C 0.95224 0.9843 0.35828 0.0
C907 C 0.93127 0.98466 0.35435 0.0
C908 C 0.92227 0.96516 0.35646 0.0
C909 C 0.92179 0.99933 0.36702 0.0
C910 C 0.93107 0.99035 0.33409 0.0
C911 C 0.94907 0.99282 0.32753 0.0
C912 C 0.95227 0.99791 0.30909 0.0
C913 C 0.93666 1.00053 0.2971 0.0
C914 C 0.91808 0.99811 0.30361 0.0
C915 C 0.91542 0.99297 0.3224 0.0
H916 H 0.23186 0.19394 0.63543 0.0
H917 H 0.23843 0.24855 0.61121 0.0
H918 H 0.24703 0.23349 0.58108 0.0
H919 H 0.2702 0.17191 0.61136 0.0
H920 H 0.25799 0.14976 0.60813 0.0
H921 H 0.25277 0.16487 0.62791 0.0
H922 H 0.21754 0.1643 0.61802 0.0
H923 H 0.22265 0.1492 0.59822 0.0
H924 H 0.21089 0.17096 0.5947 0.0
H925 H 0.25432 0.21235 0.55322 0.0
H926 H 0.25993 0.18685 0.53004 0.0
H927 H 0.2482 0.14603 0.57231 0.0
C928 C 0.23501 0.20276 0.62378 0.0
C929 C 0.2345 0.22249 0.6258 0.0
C930 C 0.23898 0.23345 0.61019 0.0
C931 C 0.24377 0.22501 0.59295 0.0
C932 C 0.24407 0.20556 0.59146 0.0
C933 C 0.23983 0.19457 0.60647 0.0
C934 C 0.24106 0.17397 0.60116 0.0
C935 C 0.25642 0.16458 0.61283 0.0
C936 C 0.22189 0.16403 0.60314 0.0
C937 C 0.24653 0.17507 0.58077 0.0
C938 C 0.24823 0.19341 0.57545 0.0
C939 C 0.25306 0.19793 0.55726 0.0
C940 C 0.25622 0.18332 0.54417 0.0
C941 C 0.25453 0.16438 0.54929 0.0
C942 C 0.24964 0.16032 0.5679 0.0
H943 H 0.47726 0.56508 0.6476 0.0
H944 H 0.47006 0.51176 0.61762 0.0
H945 H 0.44929 0.50071 0.64249 0.0
H946 H 0.47759 0.54674 0.69434 0.0
H947 H 0.4647 0.56597 0.70432 0.0
H948 H 0.4794 0.56955 0.68438 0.0
H949 H 0.45097 0.58247 0.66599 0.0
H950 H 0.43619 0.57891 0.68586 0.0
H951 H 0.42973 0.56848 0.66334 0.0
H952 H 0.42846 0.49569 0.67029 0.0
H953 H 0.40982 0.49684 0.69916 0.0
H954 H 0.4303 0.55347 0.71112 0.0
C955 C 0.47129 0.55109 0.6462 0.0
C956 C 0.47544 0.53929 0.63057 0.0
C957 C 0.46742 0.521 0.62952 0.0
C958 C 0.45547 0.51463 0.64354 0.0
C959 C 0.45162 0.52665 0.65866 0.0
C960 C 0.45934 0.54447 0.66012 0.0
C961 C 0.45286 0.55462 0.67778 0.0
C962 C 0.46964 0.5595 0.69098 0.0
C963 C 0.44178 0.57215 0.67294 0.0
C964 C 0.44018 0.53976 0.68594 0.0
C965 C 0.43967 0.52373 0.67469 0.0
C966 C 0.42881 0.50816 0.67923 0.0
C967 C 0.41823 0.50897 0.69568 0.0
C968 C 0.41853 0.52523 0.70751 0.0
C969 C 0.42973 0.5408 0.70246 0.0
H970 H 0.7865 0.27551 0.62267 0.0
H971 H 0.74419 0.30252 0.65663 0.0
H972 H 0.73987 0.32608 0.63244 0.0
H973 H 0.80726 0.31842 0.60488 0.0
H974 H 0.81135 0.30812 0.58201 0.0
H975 H 0.8115 0.29373 0.6023 0.0
H976 H 0.78597 0.27202 0.58657 0.0
H977 H 0.78567 0.2864 0.56628 0.0
H978 H 0.7642 0.28185 0.57855 0.0
H979 H 0.73917 0.34608 0.60375 0.0
H980 H 0.74292 0.36135 0.57336 0.0
H981 H 0.78622 0.32179 0.55851 0.0
C982 C 0.77655 0.28654 0.62519 0.0
C983 C 0.76563 0.28703 0.6416 0.0
C984 C 0.75253 0.30161 0.64411 0.0
C985 C 0.75005 0.31515 0.63047 0.0
C986 C 0.76081 0.31407 0.61436 0.0
C987 C 0.77389 0.30021 0.61171 0.0
C988 C 0.78342 0.302 0.59298 0.0
C989 C 0.80464 0.3058 0.59571 0.0
C990 C 0.77958 0.28453 0.58035 0.0
C991 C 0.77355 0.31892 0.58545 0.0
C992 C 0.76056 0.32569 0.59798 0.0
C993 C 0.7494 0.34096 0.59389 0.0
C994 C 0.75161 0.34953 0.57656 0.0
C995 C 0.7649 0.34288 0.56351 0.0
C996 C 0.77601 0.32736 0.56817 0.0
H997 H 0.53942 0.95731 0.6488 0.0
H998 H 0.55295 0.00965 0.62257 0.0
H999 H 0.57236 0.01944 0.65038 0.0
H1000 H 0.53644 0.97604 0.69613 0.0
H1001 H 0.54676 0.95578 0.70632 0.0
H1002 H 0.53355 0.95341 0.68462 0.0
H1003 H 0.56215 0.93802 0.66869 0.0
H1004 H 0.57545 0.94036 0.69032 0.0
H1005 H 0.58457 0.95016 0.66927 0.0
H1006 H 0.59143 0.0228 0.68112 0.0
H1007 H 0.60755 0.01964 0.7119 0.0
H1008 H 0.58121 0.96495 0.71717 0.0
C1009 C 0.54651 0.97081 0.64883 0.0
C1010 C 0.5447 0.98268 0.63345 0.0
C1011 C 0.55398 1.00038 0.63425 0.0
C1012 C 0.56511 1.00602 0.64995 0.0
C1013 C 0.56673 0.99385 0.66479 0.0
C1014 C 0.55758 0.97665 0.66435 0.0
C1015 C 0.56163 0.96602 0.68192 0.0
C1016 C 0.54352 0.96262 0.6929 0.0
C1017 C 0.57154 0.94755 0.67727 0.0
C1018 C 0.5747 0.97978 0.69227 0.0
C1019 C 0.57749 0.9958 0.68227 0.0
C1020 C 0.58926 0.01034 0.68909 0.0
C1021 C 0.59839 0.00841 0.70657 0.0
C1022 C 0.59568 0.99206 0.71701 0.0
C1023 C 0.58362 0.97766 0.70964 0.0
H1024 H 0.89389 0.25522 0.78076 0.0
H1025 H 0.87975 0.19823 0.79498 0.0
H1026 H 0.906 0.19876 0.81824 0.0
H1027 H 0.9438 0.25056 0.78341 0.0
H1028 H 0.94782 0.27382 0.79313 0.0
H1029 H 0.92762 0.26889 0.77817 0.0
H1030 H 0.90577 0.2815 0.80418 0.0
H1031 H 0.92591 0.28644 0.81923 0.0
H1032 H 0.907 0.27176 0.82717 0.0
H1033 H 0.93494 0.20572 0.83976 0.0
H1034 H 0.96304 0.2185 0.85715 0.0
H1035 H 0.95759 0.27054 0.82794 0.0
C1036 C 0.89635 0.24275 0.78862 0.0
C1037 C 0.88473 0.22664 0.78591 0.0
C1038 C 0.8883 0.21081 0.79687 0.0
C1039 C 0.90326 0.21095 0.81006 0.0
C1040 C 0.91451 0.22706 0.81223 0.0
C1041 C 0.91114 0.24266 0.80178 0.0
C1042 C 0.92522 0.25821 0.80653 0.0
C1043 C 0.9368 0.26315 0.78929 0.0
C1044 C 0.91538 0.27549 0.81477 0.0
C1045 C 0.93718 0.24894 0.82119 0.0
C1046 C 0.93085 0.23099 0.8244 0.0
C1047 C 0.93995 0.21979 0.83734 0.0
C1048 C 0.9559 0.22716 0.84717 0.0
C1049 C 0.9626 0.24553 0.84398 0.0
C1050 C 0.95294 0.25644 0.83081 0.0
H1051 H 0.47888 0.89027 0.45434 0.0
H1052 H 0.48321 0.86196 0.50712 0.0
H1053 H 0.49175 0.83282 0.49006 0.0
H1054 H 0.4579 0.85209 0.42776 0.0
H1055 H 0.47043 0.85718 0.40671 0.0
H1056 H 0.46522 0.87575 0.42326 0.0
H1057 H 0.50062 0.88487 0.42565 0.0
H1058 H 0.50594 0.86632 0.40912 0.0
H1059 H 0.51749 0.86745 0.43179 0.0
H1060 H 0.49903 0.80618 0.4665 0.0
H1061 H 0.50479 0.7852 0.43899 0.0
H1062 H 0.4954 0.83154 0.40224 0.0
C1063 C 0.48151 0.87794 0.46235 0.0
C1064 C 0.48031 0.87846 0.48211 0.0
C1065 C 0.48421 0.86202 0.49201 0.0
C1066 C 0.48898 0.84535 0.48242 0.0
C1067 C 0.48989 0.84533 0.46291 0.0
C1068 C 0.48631 0.86126 0.45304 0.0
C1069 C 0.4881 0.85769 0.43216 0.0
C1070 C 0.46929 0.86086 0.42187 0.0
C1071 C 0.50399 0.8698 0.42422 0.0
C1072 C 0.49312 0.83722 0.43175 0.0
C1073 C 0.49412 0.83025 0.44958 0.0
C1074 C 0.49834 0.81155 0.45249 0.0
C1075 C 0.50158 0.79972 0.43679 0.0
C1076 C 0.5006 0.80665 0.4184 0.0
C1077 C 0.49635 0.8257 0.41604 0.0
H1078 H 0.12437 0.29599 0.78616 0.0
H1079 H 0.15562 0.24707 0.80162 0.0
H1080 H 0.12982 0.23771 0.82243 0.0
H1081 H 0.10619 0.3065 0.83149 0.0
H1082 H 0.08377 0.31401 0.82258 0.0
H1083 H 0.10445 0.31633 0.80857 0.0
H1084 H 0.08793 0.29718 0.78147 0.0
H1085 H 0.06719 0.29484 0.7954 0.0
H1086 H 0.07831 0.2743 0.7859 0.0
H1087 H 0.10026 0.23436 0.84258 0.0
H1088 H 0.0699 0.23704 0.85902 0.0
H1089 H 0.05897 0.28838 0.83012 0.0
C1090 C 0.12589 0.28334 0.79397 0.0
C1091 C 0.14212 0.27231 0.79223 0.0
C1092 C 0.14328 0.25568 0.80251 0.0
C1093 C 0.12872 0.25031 0.81448 0.0
C1094 C 0.11302 0.26165 0.81599 0.0
C1095 C 0.11154 0.27779 0.8059 0.0
C1096 C 0.09334 0.28766 0.80994 0.0
C1097 C 0.09717 0.30728 0.81867 0.0
C1098 C 0.08096 0.28854 0.79212 0.0
C1099 C 0.08482 0.27469 0.82399 0.0
C1100 C 0.09629 0.25973 0.82736 0.0
C1101 C 0.09119 0.24602 0.83998 0.0
C1102 C 0.07392 0.24766 0.84929 0.0
C1103 C 0.06196 0.2629 0.84593 0.0
C1104 C 0.06767 0.27651 0.83309 0.0
H1105 H 0.52766 0.65047 0.48029 0.0
H1106 H 0.56382 0.61517 0.44669 0.0
H1107 H 0.56048 0.63642 0.42034 0.0
H1108 H 0.49603 0.66363 0.44211 0.0
H1109 H 0.4937 0.68741 0.45066 0.0
H1110 H 0.49819 0.66909 0.46687 0.0
H1111 H 0.52763 0.68729 0.47971 0.0
H1112 H 0.52326 0.70563 0.46352 0.0
H1113 H 0.54567 0.69423 0.46375 0.0
H1114 H 0.5537 0.6611 0.39772 0.0
H1115 H 0.54462 0.68861 0.38008 0.0
H1116 H 0.51338 0.70942 0.42788 0.0
C1117 C 0.53472 0.64719 0.46731 0.0
C1118 C 0.54608 0.63115 0.46557 0.0
C1119 C 0.55523 0.62743 0.44842 0.0
C1120 C 0.55334 0.63938 0.43333 0.0
C1121 C 0.5423 0.65514 0.43552 0.0
C1122 C 0.53316 0.65918 0.45205 0.0
C1123 C 0.52266 0.67748 0.45067 0.0
C1124 C 0.50138 0.6742 0.45269 0.0
C1125 C 0.53026 0.69202 0.46528 0.0
C1126 C 0.52743 0.68305 0.43085 0.0
C1127 C 0.53866 0.6698 0.42241 0.0
C1128 C 0.54491 0.67158 0.40417 0.0
C1129 C 0.53963 0.68731 0.39424 0.0
C1130 C 0.52828 0.70129 0.40251 0.0
C1131 C 0.5221 0.69905 0.42114 0.0
H1132 H 0.88054 0.77613 0.72462 0.0
H1133 H 0.92003 0.79133 0.76969 0.0
H1134 H 0.94634 0.78858 0.74763 0.0
H1135 H 0.90964 0.74206 0.70135 0.0
H1136 H 0.90214 0.7484 0.67818 0.0
H1137 H 0.88653 0.75138 0.69761 0.0
H1138 H 0.88313 0.7864 0.69015 0.0
H1139 H 0.89869 0.78352 0.67069 0.0
H1140 H 0.90392 0.80101 0.68877 0.0
H1141 H 0.96852 0.78396 0.7203 0.0
H1142 H 0.98429 0.77908 0.68991 0.0
H1143 H 0.93003 0.7671 0.66308 0.0
C1144 C 0.89473 0.77873 0.7299 0.0
C1145 C 0.8982 0.78394 0.74891 0.0
C1146 C 0.91698 0.78751 0.75515 0.0
C1147 C 0.93204 0.78587 0.74275 0.0
C1148 C 0.92812 0.78068 0.72411 0.0
C1149 C 0.9099 0.77724 0.71771 0.0
C1150 C 0.90937 0.77226 0.69695 0.0
C1151 C 0.90146 0.75234 0.69332 0.0
C1152 C 0.89812 0.78666 0.686 0.0
C1153 C 0.93013 0.77347 0.69264 0.0
C1154 C 0.94077 0.77824 0.70847 0.0
C1155 C 0.96031 0.78022 0.70782 0.0
C1156 C 0.96915 0.77739 0.6905 0.0
C1157 C 0.95845 0.77274 0.67406 0.0
C1158 C 0.93868 0.77067 0.67532 0.0
H1159 H 0.04956 0.87603 0.54693 0.0
H1160 H 0.99538 0.90012 0.53397 0.0
H1161 H 0.97976 0.87654 0.55303 0.0
H1162 H 0.03374 0.82806 0.5457 0.0
H1163 H 0.04853 0.82131 0.56502 0.0
H1164 H 0.05575 0.84024 0.55054 0.0
H1165 H 0.05906 0.86213 0.57996 0.0
H1166 H 0.0518 0.84327 0.59453 0.0
H1167 H 0.0393 0.86497 0.59522 0.0
H1168 H 0.96976 0.85053 0.57271 0.0
H1169 H 0.96558 0.82282 0.59177 0.0
H1170 H 0.02603 0.81505 0.59322 0.0
C1171 C 0.03443 0.87642 0.54821 0.0
C1172 C 0.0237 0.88991 0.53876 0.0
C1173 C 1.0039 0.88978 0.54071 0.0
C1174 C 0.99489 0.87652 0.55166 0.0
C1175 C 1.00583 0.86345 0.5607 0.0
C1176 C 0.02514 0.86321 0.55914 0.0
C1177 C 0.0334 0.84731 0.57015 0.0
C1178 C 0.04345 0.83341 0.55707 0.0
C1179 C 0.04668 0.85488 0.5859 0.0
C1180 C 0.01566 0.83864 0.57804 0.0
C1181 C 0.99998 0.84829 0.57236 0.0
C1182 C 0.98192 0.84288 0.57729 0.0
C1183 C 0.97971 0.82705 0.58812 0.0
C1184 C 0.99546 0.81669 0.59404 0.0
C1185 C 0.01374 0.82275 0.58909 0.0
H1186 H 0.11716 0.71282 0.71741 0.0
H1187 H 0.14511 0.76712 0.71639 0.0
H1188 H 0.11899 0.77893 0.69705 0.0
H1189 H 0.09953 0.71231 0.66992 0.0
H1190 H 0.0776 0.70089 0.67536 0.0
H1191 H 0.09835 0.69683 0.68936 0.0
H1192 H 0.08075 0.70721 0.71929 0.0
H1193 H 0.05994 0.71128 0.70539 0.0
H1194 H 0.06986 0.72978 0.7203 0.0
H1195 H 0.08996 0.78462 0.67706 0.0
H1196 H 0.05995 0.78399 0.65905 0.0
H1197 H 0.05101 0.72597 0.67322 0.0
C1198 C 0.11786 0.72717 0.71306 0.0
C1199 C 0.13325 0.73903 0.71849 0.0
C1200 C 0.13341 0.75781 0.71266 0.0
C1201 C 0.11868 0.76462 0.70155 0.0
C1202 C 0.1038 0.75252 0.69639 0.0
C1203 C 0.10325 0.73421 0.70202 0.0
C1204 C 0.08562 0.72411 0.69466 0.0
C1205 C 0.09058 0.70756 0.68154 0.0
C1206 C 0.07332 0.71772 0.71088 0.0
C1207 C 0.07635 0.73956 0.68394 0.0
C1208 C 0.08708 0.75583 0.68506 0.0
C1209 C 0.08144 0.77195 0.67614 0.0
C1210 C 0.06437 0.77145 0.6659 0.0
C1211 C 0.05305 0.75496 0.6647 0.0
C1212 C 0.05926 0.73884 0.67386 0.0
H1213 H 0.963 0.64886 0.53756 0.0
H1214 H 0.01011 0.61897 0.56076 0.0
H1215 H 0.0189 0.64684 0.5806 0.0
H1216 H 0.98591 0.69448 0.5364 0.0
H1217 H 0.96491 0.70668 0.54287 0.0
H1218 H 0.9631 0.68467 0.53003 0.0
H1219 H 0.94189 0.67136 0.55583 0.0
H1220 H 0.94366 0.69328 0.56876 0.0
H1221 H 0.95025 0.67198 0.57982 0.0
H1222 H 0.02204 0.67843 0.59839 0.0
H1223 H 0.0184 0.70995 0.61312 0.0
H1224 H 0.96888 0.71815 0.57817 0.0
C1225 C 0.97536 0.64825 0.54658 0.0
C1226 C 0.98596 0.63179 0.5475 0.0
C1227 C 1.00175 0.63143 0.55987 0.0
C1228 C 0.00689 0.64721 0.57112 0.0
C1229 C 0.99605 0.66322 0.5699 0.0
C1230 C 0.98057 0.66377 0.55795 0.0
C1231 C 0.97072 0.68227 0.55972 0.0
C1232 C 0.9712 0.69263 0.54115 0.0
C1233 C 0.95044 0.67955 0.56644 0.0
C1234 C 0.98297 0.69207 0.5746 0.0
C1235 C 0.99762 0.68099 0.58025 0.0
C1236 C 0.01062 0.68721 0.59403 0.0
C1237 C 0.00847 0.70514 0.6023 0.0
C1238 C 0.99334 0.71654 0.59687 0.0
C1239 C 0.98058 0.70983 0.58274 0.0
H1240 H 0.78625 0.88464 0.24645 0.0
H1241 H 0.81055 0.87141 0.1924 0.0
H1242 H 0.83043 0.89994 0.19524 0.0
H1243 H 0.78514 0.93501 0.24101 0.0
H1244 H 0.79111 0.94019 0.26526 0.0
H1245 H 0.77848 0.9189 0.25879 0.0
H1246 H 0.80416 0.89967 0.27524 0.0
H1247 H 0.81688 0.92089 0.28172 0.0
H1248 H 0.82838 0.90258 0.26865 0.0
H1249 H 0.84822 0.92983 0.20421 0.0
H1250 H 0.8625 0.95856 0.21879 0.0
H1251 H 0.82647 0.9524 0.26682 0.0
C1252 C 0.7956 0.88784 0.23511 0.0
C1253 C 0.79687 0.87566 0.21924 0.0
C1254 C 0.80949 0.88031 0.20484 0.0
C1255 C 0.82078 0.89658 0.20626 0.0
C1256 C 0.81931 0.90817 0.22215 0.0
C1257 C 0.80702 0.90403 0.23632 0.0
C1258 C 0.80843 0.91866 0.25208 0.0
C1259 C 0.78967 0.92879 0.25441 0.0
C1260 C 0.81485 0.90993 0.27051 0.0
C1261 C 0.82349 0.93158 0.24462 0.0
C1262 C 0.82955 0.92534 0.2273 0.0
C1263 C 0.84353 0.93488 0.21775 0.0
C1264 C 0.85158 0.9512 0.22614 0.0
C1265 C 0.84566 0.95783 0.24395 0.0
C1266 C 0.83135 0.94781 0.25318 0.0
H1267 H 0.78811 0.1208 0.29572 0.0
H1268 H 0.81072 0.15372 0.25099 0.0
H1269 H 0.83139 0.1276 0.24195 0.0
H1270 H 0.83117 0.09945 0.30883 0.0
H1271 H 0.82025 0.07727 0.31379 0.0
H1272 H 0.80711 0.09845 0.31638 0.0
H1273 H 0.78126 0.08472 0.29369 0.0
H1274 H 0.7943 0.06348 0.29108 0.0
H1275 H 0.78766 0.07626 0.27068 0.0
H1276 H 0.84991 0.09728 0.23798 0.0
H1277 H 0.86446 0.0661 0.23982 0.0
H1278 H 0.8293 0.05369 0.28716 0.0
C1279 C 0.79722 0.12247 0.28386 0.0
C1280 C 0.7977 0.13934 0.27404 0.0
C1281 C 0.81017 0.14101 0.25885 0.0
C1282 C 0.82192 0.1262 0.25355 0.0
C1283 C 0.8211 0.10979 0.2636 0.0
C1284 C 0.80905 0.10789 0.27845 0.0
C1285 C 0.81101 0.08902 0.28723 0.0
C1286 C 0.81779 0.09119 0.30777 0.0
C1287 C 0.79246 0.0777 0.28556 0.0
C1288 C 0.82601 0.08052 0.275 0.0
C1289 C 0.8317 0.09263 0.26141 0.0
C1290 C 0.84552 0.0877 0.24858 0.0
C1291 C 0.85372 0.06995 0.24972 0.0
C1292 C 0.84808 0.05736 0.26361 0.0
C1293 C 0.83401 0.06288 0.27634 0.0
H1294 H 0.38572 0.95849 0.97136 0.0
H1295 H 0.36007 0.00887 0.99354 0.0
H1296 H 0.33163 0.99047 1.0013 0.0
H1297 H 0.34387 0.93722 0.95111 0.0
H1298 H 0.35037 0.91392 0.95724 0.0
H1299 H 0.36834 0.93125 0.95308 0.0
H1300 H 0.38308 0.92582 0.98589 0.0
H1301 H 0.36521 0.90842 0.99012 0.0
H1302 H 0.36864 0.92798 1.00634 0.0
H1303 H 0.30581 0.96572 0.00714 0.0
H1304 H 0.28588 0.9373 0.01076 0.0
H1305 H 0.32938 0.90379 0.98518 0.0
C1306 C 0.37424 0.96571 0.97801 0.0
C1307 C 0.37525 0.98519 0.98186 0.0
C1308 C 0.35963 0.99402 0.99024 0.0
C1309 C 0.34342 0.98365 0.99479 0.0
C1310 C 0.34298 0.96444 0.99085 0.0
C1311 C 0.35804 0.95561 0.98266 0.0
C1312 C 0.35431 0.93483 0.98002 0.0
C1313 C 0.35422 0.92897 0.95912 0.0
C1314 C 0.36866 0.92361 0.99127 0.0
C1315 C 0.33485 0.93326 0.98811 0.0
C1316 C 0.32841 0.95044 0.99424 0.0
C1317 C 0.31075 0.95222 1.00235 0.0
C1318 C 0.2995 0.93601 1.00433 0.0
C1319 C 0.306 0.91826 0.9983 0.0
C1320 C 0.32389 0.91707 0.98999 0.0
H1321 H 0.21579 0.384 0.28984 0.0
H1322 H 0.26471 0.42032 0.28406 0.0
H1323 H 0.24392 0.44716 0.27963 0.0
H1324 H 0.18734 0.40513 0.25459 0.0
H1325 H 0.16576 0.40244 0.26719 0.0
H1326 H 0.18452 0.3862 0.27049 0.0
H1327 H 0.18446 0.3934 0.30627 0.0
H1328 H 0.16569 0.40965 0.30309 0.0
H1329 H 0.18723 0.41724 0.31484 0.0
H1330 H 0.21762 0.47005 0.27502 0.0
H1331 H 0.18793 0.48711 0.27107 0.0
H1332 H 0.15633 0.4357 0.27953 0.0
C1333 C 0.22216 0.39757 0.28758 0.0
C1334 C 0.24194 0.4 0.28741 0.0
C1335 C 0.24964 0.4181 0.28459 0.0
C1336 C 0.23793 0.43344 0.28193 0.0
C1337 C 0.21852 0.43052 0.28212 0.0
C1338 C 0.21069 0.41304 0.28491 0.0
C1339 C 0.18941 0.41362 0.28434 0.0
C1340 C 0.18128 0.40111 0.26819 0.0
C1341 C 0.18122 0.40816 0.30326 0.0
C1342 C 0.18648 0.43413 0.2807 0.0
C1343 C 0.20344 0.44366 0.27947 0.0
C1344 C 0.20426 0.46273 0.27601 0.0
C1345 C 0.18731 0.47231 0.27377 0.0
C1346 C 0.16975 0.46281 0.275 0.0
C1347 C 0.16947 0.44345 0.27854 0.0
H1348 H 0.15189 0.03085 0.46147 0.0
H1349 H 0.11825 0.05809 0.50402 0.0
H1350 H 0.14518 0.07921 0.51255 0.0
H1351 H 0.1962 0.03335 0.4872 0.0
H1352 H 0.20966 0.03762 0.46654 0.0
H1353 H 0.18799 0.02427 0.46466 0.0
H1354 H 0.17531 0.04708 0.44006 0.0
H1355 H 0.1969 0.06053 0.44191 0.0
H1356 H 0.17474 0.07174 0.44584 0.0
H1357 H 0.17599 0.09851 0.5152 0.0
H1358 H 0.20762 0.11319 0.51222 0.0
H1359 H 0.22006 0.07294 0.46769 0.0
C1360 C 0.15014 0.04125 0.47259 0.0
C1361 C 0.13292 0.04283 0.48203 0.0
C1362 C 0.13136 0.05648 0.4967 0.0
C1363 C 0.14655 0.06861 0.50157 0.0
C1364 C 0.16325 0.06683 0.49173 0.0
C1365 C 0.1651 0.05338 0.47762 0.0
C1366 C 0.18429 0.05442 0.4689 0.0
C1367 C 0.19518 0.03634 0.47202 0.0
C1368 C 0.18271 0.0587 0.44794 0.0
C1369 C 0.19294 0.07071 0.48011 0.0
C1370 C 0.1807 0.07773 0.49326 0.0
C1371 C 0.1857 0.09304 0.50499 0.0
C1372 C 0.20368 0.10131 0.50319 0.0
C1373 C 0.21639 0.09426 0.48974 0.0
C1374 C 0.21079 0.07873 0.47816 0.0
H1375 H 0.72965 0.11199 0.75769 0.0
H1376 H 0.69799 0.14815 0.72138 0.0
H1377 H 0.67069 0.12662 0.72262 0.0
H1378 H 0.71163 0.0685 0.73684 0.0
H1379 H 0.71106 0.05667 0.75878 0.0
H1380 H 0.72804 0.07518 0.75546 0.0
H1381 H 0.71601 0.09267 0.78506 0.0
H1382 H 0.69893 0.07426 0.78843 0.0
H1383 H 0.6914 0.09807 0.78664 0.0
H1384 H 0.64671 0.10127 0.72776 0.0
H1385 H 0.62807 0.0733 0.73548 0.0
H1386 H 0.67544 0.05274 0.76757 0.0
C1387 C 0.71707 0.11534 0.74984 0.0
C1388 C 0.71605 0.13197 0.73955 0.0
C1389 C 0.69912 0.13579 0.72969 0.0
C1390 C 0.68353 0.12355 0.7302 0.0
C1391 C 0.68501 0.10742 0.74054 0.0
C1392 C 0.70137 0.10321 0.7501 0.0
C1393 C 0.69931 0.08476 0.75993 0.0
C1394 C 0.71334 0.07043 0.75229 0.0
C1395 C 0.70154 0.08762 0.78128 0.0
C1396 C 0.67922 0.07927 0.75439 0.0
C1397 C 0.67124 0.0926 0.74327 0.0
C1398 C 0.65283 0.09073 0.73644 0.0
C1399 C 0.64233 0.07476 0.74095 0.0
C1400 C 0.65023 0.06075 0.75215 0.0
C1401 C 0.66895 0.06316 0.75899 0.0
H1402 H 0.38365 0.03404 0.51707 0.0
H1403 H 0.39538 0.06236 0.57066 0.0
H1404 H 0.36881 0.08341 0.56513 0.0
H1405 H 0.37082 0.07445 0.49199 0.0
H1406 H 0.35237 0.0626 0.47845 0.0
H1407 H 0.37224 0.04973 0.48675 0.0
H1408 H 0.34979 0.02676 0.5032 0.0
H1409 H 0.32985 0.03953 0.4949 0.0
H1410 H 0.33296 0.03579 0.51961 0.0
H1411 H 0.34069 0.10171 0.55342 0.0
H1412 H 0.31359 0.11523 0.53657 0.0
H1413 H 0.32043 0.0744 0.49114 0.0
C1414 C 0.38054 0.04452 0.52776 0.0
C1415 C 0.39172 0.04653 0.54428 0.0
C1416 C 0.38725 0.06067 0.55775 0.0
C1417 C 0.37209 0.07265 0.55479 0.0
C1418 C 0.36145 0.07033 0.53831 0.0
C1419 C 0.36547 0.05658 0.52505 0.0
C1420 C 0.35198 0.05704 0.50846 0.0
C1421 C 0.36248 0.06121 0.49034 0.0
C1422 C 0.34046 0.03869 0.50643 0.0
C1423 C 0.33976 0.0732 0.51442 0.0
C1424 C 0.34538 0.08073 0.53167 0.0
C1425 C 0.33616 0.09589 0.5399 0.0
C1426 C 0.32079 0.10349 0.53024 0.0
C1427 C 0.31481 0.09593 0.51253 0.0
C1428 C 0.32454 0.08057 0.50465 0.0
H1429 H 0.64177 0.48711 0.51947 0.0
H1430 H 0.61686 0.45474 0.56348 0.0
H1431 H 0.6425 0.43214 0.56095 0.0
H1432 H 0.65749 0.4478 0.49151 0.0
H1433 H 0.67913 0.45901 0.4848 0.0
H1434 H 0.65887 0.47289 0.49004 0.0
H1435 H 0.67838 0.49214 0.51496 0.0
H1436 H 0.6987 0.47835 0.50978 0.0
H1437 H 0.69039 0.48023 0.53346 0.0
H1438 H 0.67067 0.41285 0.55378 0.0
H1439 H 0.69964 0.39819 0.54243 0.0
H1440 H 0.70689 0.44281 0.50309 0.0
C1441 C 0.64178 0.47534 0.52865 0.0
C1442 C 0.62711 0.47268 0.54157 0.0
C1443 C 0.62766 0.45696 0.55322 0.0
C1444 C 0.64226 0.44407 0.55198 0.0
C1445 C 0.65635 0.44699 0.53902 0.0
C1446 C 0.65628 0.46222 0.52755 0.0
C1447 C 0.67314 0.46189 0.51473 0.0
C1448 C 0.66677 0.4603 0.49404 0.0
C1449 C 0.68591 0.47918 0.51846 0.0
C1450 C 0.68266 0.44416 0.52085 0.0
C1451 C 0.6727 0.4358 0.53488 0.0
C1452 C 0.6786 0.41927 0.5428 0.0
C1453 C 0.69511 0.41103 0.53623 0.0
C1454 C 0.70564 0.41928 0.52185 0.0
C1455 C 0.69923 0.43611 0.5141 0.0
H1456 H 0.7498 0.28553 0.38987 0.0
H1457 H 0.69105 0.2998 0.38309 0.0
H1458 H 0.69352 0.32043 0.41133 0.0
H1459 H 0.75047 0.28456 0.43996 0.0
H1460 H 0.77374 0.29476 0.44254 0.0
H1461 H 0.76737 0.28125 0.42167 0.0
H1462 H 0.77669 0.30919 0.40127 0.0
H1463 H 0.7831 0.32278 0.42209 0.0
H1464 H 0.76618 0.33161 0.40563 0.0
H1465 H 0.70249 0.33979 0.44057 0.0
H1466 H 0.71717 0.35558 0.46859 0.0
H1467 H 0.76995 0.32867 0.45606 0.0
C1468 C 0.73748 0.2931 0.39421 0.0
C1469 C 0.72019 0.2909 0.38423 0.0
C1470 C 0.70438 0.30095 0.39061 0.0
C1471 C 0.70567 0.31284 0.40659 0.0
C1472 C 0.72289 0.31462 0.41612 0.0
C1473 C 0.73851 0.30501 0.41017 0.0
C1474 C 0.75531 0.30922 0.42302 0.0
C1475 C 0.76211 0.29138 0.43235 0.0
C1476 C 0.77126 0.31877 0.41237 0.0
C1477 C 0.74668 0.3226 0.43717 0.0
C1478 C 0.72799 0.32564 0.43292 0.0
C1479 C 0.71713 0.33751 0.44403 0.0
C1480 C 0.72559 0.34644 0.45992 0.0
C1481 C 0.74471 0.34339 0.46463 0.0
C1482 C 0.75529 0.33132 0.45296 0.0
H1483 H 0.54289 0.05443 0.87296 0.0
H1484 H 0.53827 1.00307 0.90363 0.0
H1485 H 0.55924 0.98759 0.8812 0.0
H1486 H 0.54316 0.03278 0.82702 0.0
H1487 H 0.56006 0.04895 0.81773 0.0
H1488 H 0.54499 0.05638 0.83646 0.0
H1489 H 0.57422 0.06647 0.8566 0.0
H1490 H 0.58939 0.05899 0.83796 0.0
H1491 H 0.59234 0.04976 0.86103 0.0
H1492 H 0.57969 0.97724 0.85552 0.0
H1493 H 0.59816 0.97207 0.82712 0.0
H1494 H 0.59089 0.03 0.81252 0.0
C1495 C 0.54641 0.03997 0.87502 0.0
C1496 C 0.53875 0.02993 0.89004 0.0
C1497 C 0.54361 0.01097 0.8921 0.0
C1498 C 0.55568 1.00209 0.87951 0.0
C1499 C 0.56291 0.01232 0.8649 0.0
C1500 C 0.55849 0.03081 0.8625 0.0
C1501 C 0.56791 0.0383 0.84519 0.0
C1502 C 0.55315 0.04446 0.83074 0.0
C1503 C 0.58179 0.05433 0.85052 0.0
C1504 C 0.57817 0.02105 0.83822 0.0
C1505 C 0.57506 1.0063 0.84993 0.0
C1506 C 0.58232 0.98869 0.84629 0.0
C1507 C 0.59278 0.9859 0.83007 0.0
C1508 C 0.59603 1.00063 0.81761 0.0
C1509 C 0.58887 0.01856 0.82192 0.0
H1510 H 0.27599 0.24269 0.4078 0.0
H1511 H 0.29727 0.2133 0.35869 0.0
H1512 H 0.29742 0.18403 0.37592 0.0
H1513 H 0.30234 0.21708 0.44237 0.0
H1514 H 0.28349 0.21653 0.45892 0.0
H1515 H 0.28539 0.23553 0.443 0.0
H1516 H 0.25135 0.22872 0.43098 0.0
H1517 H 0.24933 0.20972 0.44687 0.0
H1518 H 0.24499 0.20559 0.42213 0.0
H1519 H 0.29469 0.15796 0.39762 0.0
H1520 H 0.28934 0.13603 0.42281 0.0
H1521 H 0.26952 0.18144 0.45866 0.0
C1522 C 0.28064 0.23008 0.40067 0.0
C1523 C 0.28681 0.2304 0.38188 0.0
C1524 C 0.29286 0.21357 0.37314 0.0
C1525 C 0.29288 0.19682 0.38278 0.0
C1526 C 0.2868 0.19701 0.40121 0.0
C1527 C 0.28078 0.21314 0.41014 0.0
C1528 C 0.27478 0.20925 0.43003 0.0
C1529 C 0.28725 0.22025 0.44443 0.0
C1530 C 0.25387 0.21357 0.43265 0.0
C1531 C 0.27826 0.18838 0.43078 0.0
C1532 C 0.2852 0.18173 0.41394 0.0
C1533 C 0.28929 0.16299 0.41089 0.0
C1534 C 0.28615 0.15062 0.42536 0.0
C1535 C 0.27898 0.15692 0.44282 0.0
C1536 C 0.27509 0.17616 0.44555 0.0
H1537 H 0.45099 0.48002 0.8879 0.0
H1538 H 0.50413 0.48511 0.85935 0.0
H1539 H 0.48709 0.49336 0.83032 0.0
H1540 H 0.42508 0.45863 0.84965 0.0
H1541 H 0.40364 0.47068 0.85483 0.0
H1542 H 0.42017 0.46598 0.8734 0.0
H1543 H 0.42177 0.50125 0.88268 0.0
H1544 H 0.40524 0.50606 0.86412 0.0
H1545 H 0.42776 0.51801 0.86527 0.0
H1546 H 0.46363 0.50004 0.80379 0.0
H1547 H 0.43617 0.50481 0.78273 0.0
H1548 H 0.39887 0.49498 0.82908 0.0
C1549 C 0.45909 0.48279 0.87555 0.0
C1550 C 0.47895 0.48188 0.87598 0.0
C1551 C 0.48894 0.48592 0.8595 0.0
C1552 C 0.47937 0.49053 0.84289 0.0
C1553 C 0.45978 0.49113 0.84296 0.0
C1554 C 0.44979 0.48742 0.85892 0.0
C1555 C 0.42882 0.48875 0.85537 0.0
C1556 C 0.41885 0.46989 0.85849 0.0
C1557 C 0.42041 0.50445 0.86758 0.0
C1558 C 0.42851 0.49358 0.83486 0.0
C1559 C 0.44646 0.49496 0.82789 0.0
C1560 C 0.44952 0.49905 0.80915 0.0
C1561 C 0.43383 0.50174 0.79728 0.0
C1562 C 0.4153 0.50031 0.80418 0.0
C1563 C 0.41278 0.49624 0.82327 0.0
H1564 H 0.71372 0.69961 0.1283 0.0
H1565 H 0.76692 0.7303 0.13185 0.0
H1566 H 0.77809 0.71226 0.10442 0.0
H1567 H 0.73213 0.65517 0.11367 0.0
H1568 H 0.71281 0.64951 0.09774 0.0
H1569 H 0.70913 0.66441 0.11807 0.0
H1570 H 0.69608 0.69014 0.09688 0.0
H1571 H 0.69961 0.67529 0.0765 0.0
H1572 H 0.71009 0.6984 0.0779 0.0
H1573 H 0.78357 0.69081 0.0764 0.0
H1574 H 0.78229 0.66872 0.04917 0.0
H1575 H 0.72506 0.653 0.06298 0.0
C1576 C 0.72767 0.70271 0.12327 0.0
C1577 C 0.73945 0.71637 0.13248 0.0
C1578 C 0.7577 0.71969 0.12541 0.0
C1579 C 0.76416 0.70958 0.10972 0.0
C1580 C 0.75222 0.6962 0.10108 0.0
C1581 C 0.73431 0.69283 0.10753 0.0
C1582 C 0.72412 0.67798 0.09544 0.0
C1583 C 0.71927 0.66075 0.10692 0.0
C1584 C 0.70643 0.68593 0.08613 0.0
C1585 C 0.73906 0.67359 0.08113 0.0
C1586 C 0.75522 0.68415 0.08472 0.0
C1587 C 0.77097 0.68249 0.07345 0.0
C1588 C 0.77012 0.66985 0.05803 0.0
C1589 C 0.75358 0.6591 0.05386 0.0
C1590 C 0.73792 0.66101 0.06571 0.0
H1591 H 0.9786 0.06277 0.14477 0.0
H1592 H 0.97585 0.00731 0.11852 0.0
H1593 H 0.95542 0.99657 0.14378 0.0
H1594 H 0.9793 0.04783 0.1928 0.0
H1595 H 0.96483 0.06665 0.20113 0.0
H1596 H 0.97965 0.06989 0.18123 0.0
H1597 H 0.9507 0.07938 0.1614 0.0
H1598 H 0.93579 0.07614 0.18123 0.0
H1599 H 0.93056 0.06378 0.15937 0.0
H1600 H 0.93443 0.99199 0.17153 0.0
H1601 H 0.91515 0.99376 0.19995 0.0
H1602 H 0.93125 0.05222 0.2082 0.0
C1603 C 0.97367 0.04837 0.14427 0.0
C1604 C 0.97899 0.0359 0.12958 0.0
C1605 C 0.97232 0.01711 0.12969 0.0
C1606 C 0.96057 0.01089 0.14395 0.0
C1607 C 0.95555 0.02357 0.15811 0.0
C1608 C 0.96194 0.0419 0.15843 0.0
C1609 C 0.95438 0.05271 0.17522 0.0
C1610 C 0.9705 0.05968 0.18837 0.0
C1611 C 0.94213 0.06896 0.16892 0.0
C1612 C 0.94262 0.03762 0.18422 0.0
C1613 C 0.9435 0.02091 0.17412 0.0
C1614 C 0.93369 1.00499 0.17957 0.0
C1615 C 0.92274 1.00615 0.19575 0.0
C1616 C 0.92163 0.02311 0.20641 0.0
C1617 C 0.93177 0.03902 0.20046 0.0
H1618 H 0.25218 0.78939 0.1263 0.0
H1619 H 0.31198 0.78928 0.13972 0.0
H1620 H 0.31772 0.81165 0.11485 0.0
H1621 H 0.25702 0.79042 0.07687 0.0
H1622 H 0.23745 0.8056 0.07298 0.0
H1623 H 0.23765 0.79066 0.09284 0.0
H1624 H 0.23329 0.81943 0.11505 0.0
H1625 H 0.23314 0.83449 0.09524 0.0
H1626 H 0.24968 0.83886 0.11432 0.0
H1627 H 0.31766 0.83176 0.08716 0.0
H1628 H 0.31174 0.84891 0.05829 0.0
H1629 H 0.25195 0.83708 0.06229 0.0
C1630 C 0.26648 0.79413 0.12408 0.0
C1631 C 0.28161 0.78761 0.13521 0.0
C1632 C 0.30008 0.79427 0.13177 0.0
C1633 C 0.30352 0.80694 0.11756 0.0
C1634 C 0.28836 0.81297 0.10685 0.0
C1635 C 0.27019 0.80688 0.10992 0.0
C1636 C 0.25658 0.81507 0.09581 0.0
C1637 C 0.24659 0.79951 0.08392 0.0
C1638 C 0.24233 0.82772 0.1057 0.0
C1639 C 0.27003 0.82642 0.08412 0.0
C1640 C 0.28828 0.82499 0.09085 0.0
C1641 C 0.30342 0.83319 0.0819 0.0
C1642 C 0.29991 0.84288 0.06549 0.0
C1643 C 0.28139 0.8445 0.05816 0.0
C1644 C 0.2662 0.83641 0.0678 0.0
H1645 H 0.03428 0.45574 0.15173 0.0
H1646 H 0.04874 0.50553 0.12145 0.0
H1647 H 0.06948 0.51635 0.14788 0.0
H1648 H 0.03374 0.4777 0.19783 0.0
H1649 H 0.04375 0.45787 0.2091 0.0
H1650 H 0.02973 0.45446 0.188 0.0
H1651 H 0.05722 0.43699 0.17227 0.0
H1652 H 0.07133 0.44039 0.1933 0.0
H1653 H 0.07999 0.44832 0.17126 0.0
H1654 H 0.08959 0.52115 0.17757 0.0
H1655 H 0.10634 0.51993 0.20818 0.0
H1656 H 0.07858 0.46682 0.21847 0.0
C1657 C 0.04184 0.4689 0.15059 0.0
C1658 C 0.03988 0.47977 0.13447 0.0
C1659 C 0.04984 0.49705 0.13373 0.0
C1660 C 0.06174 0.50326 0.14862 0.0
C1661 C 0.0635 0.49207 0.16421 0.0
C1662 C 0.05373 0.4753 0.1653 0.0
C1663 C 0.05805 0.46582 0.18352 0.0
C1664 C 0.04026 0.46385 0.19531 0.0
C1665 C 0.06719 0.44675 0.17986 0.0
C1666 C 0.07191 0.47978 0.19248 0.0
C1667 C 0.07491 0.49485 0.18118 0.0
C1668 C 0.08729 0.50943 0.18654 0.0
C1669 C 0.09678 0.50859 0.20394 0.0
C1670 C 0.09381 0.49329 0.21578 0.0
C1671 C 0.0812 0.47874 0.20983 0.0
H1672 H 0.39535 0.75756 0.27765 0.0
H1673 H 0.37384 0.70577 0.29987 0.0
H1674 H 0.4006 0.70564 0.32249 0.0
H1675 H 0.44439 0.74729 0.28172 0.0
H1676 H 0.45111 0.77098 0.28837 0.0
H1677 H 0.43059 0.76649 0.27372 0.0
H1678 H 0.41023 0.78498 0.2974 0.0
H1679 H 0.4307 0.78956 0.31209 0.0
H1680 H 0.41018 0.77845 0.32161 0.0
H1681 H 0.43016 0.71192 0.34342 0.0
H1682 H 0.45884 0.72412 0.36026 0.0
H1683 H 0.45962 0.7719 0.32418 0.0
C1684 C 0.39608 0.74624 0.28735 0.0
C1685 C 0.38235 0.73171 0.28695 0.0
C1686 C 0.38423 0.71699 0.29971 0.0
C1687 C 0.39936 0.71684 0.3127 0.0
C1688 C 0.41255 0.73149 0.31276 0.0
C1689 C 0.41099 0.7459 0.30037 0.0
C1690 C 0.42675 0.76017 0.30329 0.0
C1691 C 0.43893 0.76128 0.28573 0.0
C1692 C 0.419 0.77942 0.30894 0.0
C1693 C 0.43742 0.75166 0.31935 0.0
C1694 C 0.42916 0.73509 0.32466 0.0
C1695 C 0.43671 0.72489 0.33933 0.0
C1696 C 0.45301 0.73191 0.34882 0.0
C1697 C 0.46153 0.749 0.34364 0.0
C1698 C 0.45353 0.75882 0.32862 0.0
H1699 H 0.98137 0.38531 0.95546 0.0
H1700 H 0.98149 0.3556 0.00758 0.0
H1701 H 0.99085 0.32675 0.99044 0.0
H1702 H 0.96152 0.34845 0.92681 0.0
H1703 H 0.97549 0.35374 0.90675 0.0
H1704 H 0.96975 0.37204 0.92339 0.0
H1705 H 1.00519 0.38017 0.92818 0.0
H1706 H 0.01105 0.36187 0.91155 0.0
H1707 H 0.02118 0.36215 0.93487 0.0
H1708 H 0.99897 0.30049 0.96672 0.0
H1709 H 1.00531 0.27992 0.93906 0.0
H1710 H 0.99953 0.32745 0.90311 0.0
C1711 C 0.9833 0.37275 0.96332 0.0
C1712 C 0.98062 0.37276 0.98289 0.0
C1713 C 0.98362 0.35603 0.99261 0.0
C1714 C 0.98886 0.33954 0.98298 0.0
C1715 C 0.99117 0.34 0.96362 0.0
C1716 C 0.98854 0.35624 0.95396 0.0
C1717 C 0.99155 0.35314 0.93319 0.0
C1718 C 0.9735 0.35707 0.92187 0.0
C1719 C 0.00824 0.36504 0.92656 0.0
C1720 C 0.99604 0.33255 0.93256 0.0
C1721 C 0.99584 0.32514 0.95021 0.0
C1722 C 0.99924 0.30621 0.95286 0.0
C1723 C 1.00284 0.29462 0.93707 0.0
C1724 C 1.00297 0.30199 0.91886 0.0
C1725 C 0.99961 0.32127 0.91677 0.0
H1726 H 0.62374 0.79915 0.28667 0.0
H1727 H 0.65397 0.74965 0.30232 0.0
H1728 H 0.62798 0.74089 0.32314 0.0
H1729 H 0.60571 0.81016 0.332 0.0
H1730 H 0.58346 0.81808 0.32305 0.0
H1731 H 0.60419 0.81997 0.30905 0.0
H1732 H 0.58736 0.80107 0.28198 0.0
H1733 H 0.56655 0.79917 0.29588 0.0
H1734 H 0.57729 0.77838 0.28644 0.0
H1735 H 0.59837 0.73815 0.34321 0.0
H1736 H 0.56799 0.74135 0.3595 0.0
H1737 H 0.55808 0.79288 0.33055 0.0
C1738 C 0.625 0.7865 0.29452 0.0
C1739 C 0.641 0.77513 0.29283 0.0
C1740 C 0.64181 0.75851 0.30317 0.0
C1741 C 0.62715 0.75348 0.31515 0.0
C1742 C 0.61169 0.76515 0.31662 0.0
C1743 C 0.61054 0.78128 0.30648 0.0
C1744 C 0.59253 0.79152 0.31048 0.0
C1745 C 0.59673 0.81108 0.31916 0.0
C1746 C 0.58021 0.79259 0.29263 0.0
C1747 C 0.58373 0.77874 0.32455 0.0
C1748 C 0.59491 0.76358 0.32797 0.0
C1749 C 0.58952 0.74998 0.34058 0.0
C1750 C 0.57225 0.75192 0.34981 0.0
C1751 C 0.56058 0.76735 0.34638 0.0
C1752 C 0.56658 0.78088 0.33358 0.0
H1753 H 0.04285 0.14706 0.97765 0.0
H1754 H 0.02445 0.09957 0.94243 0.0
H1755 H 0.01499 0.12086 0.91765 0.0
H1756 H 1.00519 0.17855 0.96291 0.0
H1757 H 0.02038 0.19896 0.96339 0.0
H1758 H 0.02504 0.18012 0.97893 0.0
H1759 H 0.05874 0.17761 0.96603 0.0
H1760 H 0.05415 0.19637 0.95038 0.0
H1761 H 0.06193 0.17415 0.94118 0.0
H1762 H 0.0089 0.14664 0.89604 0.0
H1763 H 1.00555 0.17574 0.87895 0.0
H1764 H 0.0272 0.20753 0.92761 0.0
C1765 C 0.03658 0.14119 0.96483 0.0
C1766 C 0.03456 0.12156 0.96198 0.0
C1767 C 0.02644 0.11448 0.94489 0.0
C1768 C 0.02091 0.12648 0.93073 0.0
C1769 C 0.02344 0.14565 0.93379 0.0
C1770 C 0.03095 0.15306 0.95041 0.0
C1771 C 0.03246 0.17428 0.94972 0.0
C1772 C 0.02003 0.18352 0.96462 0.0
C1773 C 0.05305 0.18099 0.95196 0.0
C1774 C 0.02488 0.17752 0.93003 0.0
C1775 C 0.01973 0.16075 0.92119 0.0
C1776 C 0.01276 0.15988 0.90285 0.0
C1777 C 0.01096 0.17656 0.89322 0.0
C1778 C 0.01606 0.19403 0.90186 0.0
C1779 C 0.02307 0.19445 0.9206 0.0
H1780 H 0.37763 0.28795 0.21769 0.0
H1781 H 0.41522 0.28907 0.26624 0.0
H1782 H 0.44246 0.2864 0.24543 0.0
H1783 H 0.40305 0.25416 0.19034 0.0
H1784 H 0.39865 0.26525 0.16838 0.0
H1785 H 0.38209 0.2676 0.18708 0.0
H1786 H 0.38483 0.30366 0.18563 0.0
H1787 H 0.4014 0.30143 0.16693 0.0
H1788 H 0.40766 0.31489 0.18789 0.0
H1789 H 0.46563 0.28277 0.2194 0.0
H1790 H 0.48312 0.27924 0.18996 0.0
H1791 H 0.43056 0.28067 0.15822 0.0
C1792 C 0.39158 0.28758 0.22394 0.0
C1793 C 0.39426 0.28882 0.24364 0.0
C1794 C 0.4128 0.28844 0.25122 0.0
C1795 C 0.42837 0.28681 0.23951 0.0
C1796 C 0.42524 0.28561 0.2202 0.0
C1797 C 0.40732 0.28604 0.21245 0.0
C1798 C 0.40785 0.28452 0.19123 0.0
C1799 C 0.39728 0.26683 0.18383 0.0
C1800 C 0.39997 0.30218 0.1824 0.0
C1801 C 0.42886 0.28308 0.18828 0.0
C1802 C 0.43862 0.2837 0.20518 0.0
C1803 C 0.45814 0.28234 0.20607 0.0
C1804 C 0.46795 0.28032 0.18926 0.0
C1805 C 0.45827 0.27973 0.17173 0.0
C1806 C 0.43843 0.28117 0.17135 0.0
H1807 H 0.51484 0.38342 0.03387 0.0
H1808 H 0.57249 0.39221 0.05352 0.0
H1809 H 0.56843 0.36698 0.07598 0.0
H1810 H 0.49531 0.37421 0.0792 0.0
H1811 H 0.4789 0.35661 0.07013 0.0
H1812 H 0.48637 0.37532 0.05549 0.0
H1813 H 0.49736 0.35115 0.03045 0.0
H1814 H 0.48993 0.33237 0.04501 0.0
H1815 H 0.51382 0.33352 0.03704 0.0
H1816 H 0.55813 0.34059 0.09643 0.0
H1817 H 0.54233 0.31501 0.11298 0.0
H1818 H 0.49132 0.32381 0.08037 0.0
C1819 C 0.52658 0.38016 0.04298 0.0
C1820 C 0.54404 0.38979 0.04177 0.0
C1821 C 0.55908 0.38486 0.05387 0.0
C1822 C 0.55688 0.37062 0.06681 0.0
C1823 C 0.53953 0.3614 0.06758 0.0
C1824 C 0.52463 0.36596 0.056 0.0
C1825 C 0.50749 0.3538 0.05958 0.0
C1826 C 0.49105 0.3657 0.06652 0.0
C1827 C 0.50182 0.34201 0.04197 0.0
C1828 C 0.51508 0.34169 0.07495 0.0
C1829 C 0.53358 0.34629 0.0794 0.0
C1830 C 0.54362 0.33689 0.09308 0.0
C1831 C 0.53452 0.32237 0.10243 0.0
C1832 C 0.51556 0.31736 0.09805 0.0
C1833 C 0.50579 0.32727 0.08414 0.0
H1834 H 0.64377 0.22838 0.1954 0.0
H1835 H 0.6224 0.24738 0.24917 0.0
H1836 H 0.59314 0.25722 0.23356 0.0
H1837 H 0.62379 0.26486 0.16782 0.0
H1838 H 0.61823 0.24954 0.14795 0.0
H1839 H 0.63779 0.24452 0.16325 0.0
H1840 H 0.62363 0.2116 0.16879 0.0
H1841 H 0.60404 0.21651 0.1535 0.0
H1842 H 0.59994 0.20943 0.17714 0.0
H1843 H 0.56586 0.26443 0.21223 0.0
H1844 H 0.54249 0.26836 0.1868 0.0
H1845 H 0.58119 0.24404 0.14688 0.0
C1846 C 0.63292 0.23452 0.20395 0.0
C1847 C 0.63552 0.23716 0.22357 0.0
C1848 C 0.62097 0.24548 0.23411 0.0
C1849 C 0.60422 0.25102 0.22538 0.0
C1850 C 0.60213 0.24815 0.20606 0.0
C1851 C 0.61607 0.2401 0.19546 0.0
C1852 C 0.61017 0.23835 0.17495 0.0
C1853 C 0.62327 0.25002 0.16278 0.0
C1854 C 0.6094 0.21775 0.1682 0.0
C1855 C 0.59066 0.24656 0.1757 0.0
C1856 C 0.58634 0.25219 0.19378 0.0
C1857 C 0.5691 0.2601 0.19802 0.0
C1858 C 0.55591 0.26228 0.18344 0.0
C1859 C 0.55994 0.25653 0.16478 0.0
C1860 C 0.57763 0.2486 0.16095 0.0
H1861 H 0.46032 0.15515 0.03763 0.0
H1862 H 0.50978 0.12519 0.05534 0.0
H1863 H 0.51905 0.15181 0.07656 0.0
H1864 H 0.48218 0.20114 0.0378 0.0
H1865 H 0.46155 0.21263 0.04642 0.0
H1866 H 0.45913 0.19131 0.03252 0.0
H1867 H 0.44004 0.17627 0.05896 0.0
H1868 H 0.44248 0.19751 0.07298 0.0
H1869 H 0.4501 0.17569 0.08228 0.0
H1870 H 0.52264 0.18195 0.09625 0.0
H1871 H 0.52025 0.21286 0.11241 0.0
H1872 H 0.46847 0.2227 0.08143 0.0
C1873 C 0.47325 0.15426 0.04577 0.0
C1874 C 0.48434 0.13807 0.04477 0.0
C1875 C 0.50095 0.13737 0.05597 0.0
C1876 C 0.50638 0.15246 0.06801 0.0
C1877 C 0.49503 0.16815 0.06873 0.0
C1878 C 0.47883 0.16914 0.05787 0.0
C1879 C 0.4689 0.18741 0.0614 0.0
C1880 C 0.46789 0.19879 0.04347 0.0
C1881 C 0.44922 0.18401 0.06938 0.0
C1882 C 0.48205 0.1966 0.07593 0.0
C1883 C 0.49706 0.18531 0.08001 0.0
C1884 C 0.51095 0.1909 0.09313 0.0
C1885 C 0.50947 0.20848 0.10226 0.0
C1886 C 0.49419 0.22027 0.09823 0.0
C1887 C 0.48036 0.2141 0.08487 0.0
H1888 H 0.2849 0.3847 0.74595 0.0
H1889 H 0.30868 0.37308 0.69133 0.0
H1890 H 0.32838 0.40169 0.69471 0.0
H1891 H 0.28323 0.43513 0.74181 0.0
H1892 H 0.28943 0.43981 0.7661 0.0
H1893 H 0.27698 0.41851 0.75926 0.0
H1894 H 0.30308 0.3992 0.77493 0.0
H1895 H 0.31562 0.42043 0.78178 0.0
H1896 H 0.32718 0.40256 0.76814 0.0
H1897 H 0.34593 0.43155 0.70418 0.0
H1898 H 0.35991 0.46022 0.71917 0.0
H1899 H 0.32456 0.45252 0.76746 0.0
C1900 C 0.2941 0.38826 0.73462 0.0
C1901 C 0.29528 0.3765 0.71841 0.0
C1902 C 0.30771 0.38164 0.70402 0.0
C1903 C 0.31889 0.39796 0.70574 0.0
C1904 C 0.31752 0.40912 0.72194 0.0
C1905 C 0.30542 0.40452 0.73612 0.0
C1906 C 0.30685 0.4188 0.75221 0.0
C1907 C 0.288 0.42865 0.755 0.0
C1908 C 0.31359 0.4097 0.77033 0.0
C1909 C 0.32167 0.43208 0.74489 0.0
C1910 C 0.32761 0.42629 0.72738 0.0
C1911 C 0.34134 0.43625 0.71788 0.0
C1912 C 0.34921 0.45253 0.72651 0.0
C1913 C 0.34339 0.45871 0.7445 0.0
C1914 C 0.32937 0.44826 0.75369 0.0
H1915 H 0.28351 0.62037 0.79886 0.0
H1916 H 0.30067 0.65192 0.75086 0.0
H1917 H 0.32137 0.62609 0.74102 0.0
H1918 H 0.32851 0.60142 0.80931 0.0
H1919 H 0.31905 0.57917 0.81616 0.0
H1920 H 0.30527 0.59991 0.81891 0.0
H1921 H 0.27823 0.5842 0.79906 0.0
H1922 H 0.29192 0.56339 0.79627 0.0
H1923 H 0.28301 0.57491 0.77592 0.0
H1924 H 0.34125 0.59653 0.73711 0.0
H1925 H 0.35726 0.5661 0.73913 0.0
H1926 H 0.32679 0.55473 0.78985 0.0
C1927 C 0.29167 0.62195 0.78631 0.0
C1928 C 0.29044 0.63827 0.77568 0.0
C1929 C 0.30117 0.63951 0.75916 0.0
C1930 C 0.31307 0.62493 0.75352 0.0
C1931 C 0.31407 0.60913 0.76447 0.0
C1932 C 0.30355 0.60757 0.78048 0.0
C1933 C 0.30709 0.58926 0.78991 0.0
C1934 C 0.31548 0.59265 0.80975 0.0
C1935 C 0.28899 0.57723 0.7903 0.0
C1936 C 0.32134 0.58076 0.77681 0.0
C1937 C 0.32526 0.59235 0.7622 0.0
C1938 C 0.3382 0.58734 0.74849 0.0
C1939 C 0.34726 0.57003 0.74975 0.0
C1940 C 0.34332 0.55792 0.76461 0.0
C1941 C 0.33017 0.56354 0.77825 0.0
H1942 H 0.88638 0.45351 0.48597 0.0
H1943 H 0.85567 0.50534 0.48944 0.0
H1944 H 0.82683 0.48766 0.4973 0.0
H1945 H 0.84959 0.42562 0.4649 0.0
H1946 H 0.85517 0.40502 0.47767 0.0
H1947 H 0.87339 0.42187 0.47283 0.0
H1948 H 0.88162 0.42519 0.50828 0.0
H1949 H 0.86345 0.40831 0.51324 0.0
H1950 H 0.86343 0.43112 0.5246 0.0
H1951 H 0.80094 0.4638 0.50432 0.0
H1952 H 0.78064 0.43605 0.50961 0.0
H1953 H 0.82878 0.40031 0.50181 0.0
C1954 C 0.87368 0.46122 0.48865 0.0
C1955 C 0.87337 0.48087 0.4871 0.0
C1956 C 0.85627 0.49029 0.49035 0.0
C1957 C 0.83983 0.48037 0.49493 0.0
C1958 C 0.84064 0.461 0.49624 0.0
C1959 C 0.85717 0.45156 0.49321 0.0
C1960 C 0.85431 0.43069 0.49508 0.0
C1961 C 0.85835 0.42019 0.47651 0.0
C1962 C 0.86642 0.42341 0.51126 0.0
C1963 C 0.83358 0.42983 0.49957 0.0
C1964 C 0.82589 0.44742 0.50023 0.0
C1965 C 0.80686 0.44997 0.50389 0.0
C1966 C 0.79542 0.43412 0.50689 0.0
C1967 C 0.80304 0.41594 0.50617 0.0
C1968 C 0.82243 0.41395 0.50252 0.0
H1969 H 0.72272 0.88114 0.77922 0.0
H1970 H 0.76897 0.92008 0.79156 0.0
H1971 H 0.74741 0.94654 0.78799 0.0
H1972 H 0.6998 0.90842 0.74406 0.0
H1973 H 0.67645 0.90196 0.7512 0.0
H1974 H 0.6956 0.88619 0.75462 0.0
H1975 H 0.68833 0.8852 0.79004 0.0
H1976 H 0.66914 0.90092 0.78672 0.0
H1977 H 0.68752 0.90675 0.80368 0.0
H1978 H 0.72043 0.96892 0.78281 0.0
H1979 H 0.69025 0.98499 0.77772 0.0
H1980 H 0.66209 0.93111 0.76885 0.0
C1981 C 0.72837 0.89523 0.78103 0.0
C1982 C 0.74757 0.8985 0.78568 0.0
C1983 C 0.75428 0.91719 0.78821 0.0
C1984 C 0.74217 0.93232 0.78608 0.0
C1985 C 0.72334 0.92858 0.78145 0.0
C1986 C 0.71648 0.91047 0.77903 0.0
C1987 C 0.69562 0.91015 0.77443 0.0
C1988 C 0.69164 0.90115 0.75492 0.0
C1989 C 0.6845 0.90017 0.78963 0.0
C1990 C 0.69178 0.9309 0.77469 0.0
C1991 C 0.70792 0.94135 0.77866 0.0
C1992 C 0.70771 0.96086 0.77969 0.0
C1993 C 0.69051 0.96987 0.77674 0.0
C1994 C 0.67376 0.95937 0.77291 0.0
C1995 C 0.67458 0.93962 0.77178 0.0
H1996 H 0.64577 0.54044 0.95451 0.0
H1997 H 0.62165 0.55032 0.00924 0.0
H1998 H 0.64981 0.56925 0.01896 0.0
H1999 H 0.69387 0.53661 0.97036 0.0
H2000 H 0.70319 0.54821 0.95036 0.0
H2001 H 0.68137 0.53515 0.94817 0.0
H2002 H 0.66475 0.56446 0.93588 0.0
H2003 H 0.6865 0.57761 0.93806 0.0
H2004 H 0.66583 0.58594 0.94971 0.0
H2005 H 0.68079 0.58821 0.02209 0.0
H2006 H 0.71161 0.60435 0.01853 0.0
H2007 H 0.7145 0.58165 0.96162 0.0
C2008 C 0.64632 0.54664 0.96853 0.0
C2009 C 0.63143 0.54395 0.98108 0.0
C2010 C 0.63294 0.55205 0.99941 0.0
C2011 C 0.64884 0.56291 1.00503 0.0
C2012 C 0.66317 0.56544 0.99218 0.0
C2013 C 0.66204 0.55742 0.97434 0.0
C2014 C 0.67918 0.5622 0.96308 0.0
C2015 C 0.69004 0.54449 0.95768 0.0
C2016 C 0.67373 0.57321 0.94566 0.0
C2017 C 0.69012 0.57434 0.97726 0.0
C2018 C 0.68076 0.57609 0.994 0.0
C2019 C 0.68824 0.58686 0.00904 0.0
C2020 C 0.70574 0.596 0.00689 0.0
C2021 C 0.71555 0.5943 0.98982 0.0
C2022 C 0.70748 0.58328 0.9749 0.0
H2023 H 0.231 0.6136 0.24925 0.0
H2024 H 0.19644 0.65483 0.22232 0.0
H2025 H 0.1692 0.63308 0.22285 0.0
H2026 H 0.21 0.57281 0.22579 0.0
H2027 H 0.21135 0.55862 0.24621 0.0
H2028 H 0.22831 0.57721 0.2432 0.0
H2029 H 0.21979 0.59163 0.27559 0.0
H2030 H 0.20279 0.5731 0.2787 0.0
H2031 H 0.19565 0.59713 0.28033 0.0
H2032 H 0.14542 0.6072 0.22706 0.0
H2033 H 0.12695 0.57891 0.23419 0.0
H2034 H 0.17675 0.55453 0.25885 0.0
C2035 C 0.2177 0.61812 0.24352 0.0
C2036 C 0.21596 0.63599 0.23568 0.0
C2037 C 0.19829 0.64117 0.22813 0.0
C2038 C 0.18267 0.62894 0.22848 0.0
C2039 C 0.18487 0.61153 0.23642 0.0
C2040 C 0.20195 0.60609 0.24377 0.0
C2041 C 0.20048 0.58667 0.25166 0.0
C2042 C 0.2133 0.57302 0.24108 0.0
C2043 C 0.20494 0.58717 0.27282 0.0
C2044 C 0.17988 0.58207 0.2477 0.0
C2045 C 0.17115 0.59661 0.23888 0.0
C2046 C 0.15212 0.59572 0.23393 0.0
C2047 C 0.14174 0.57956 0.23807 0.0
C2048 C 0.15034 0.56444 0.24709 0.0
C2049 C 0.16972 0.5658 0.25193 0.0
H2050 H 0.87376 0.54355 0.05012 0.0
H2051 H 0.90015 0.53077 0.99695 0.0
H2052 H 0.87707 0.55019 0.98085 0.0
H2053 H 0.82619 0.54292 0.0325 0.0
H2054 H 0.81875 0.56215 0.04729 0.0
H2055 H 0.83756 0.5475 0.05496 0.0
H2056 H 0.85937 0.57664 0.05963 0.0
H2057 H 0.84062 0.59139 0.05193 0.0
H2058 H 0.86295 0.59198 0.04036 0.0
H2059 H 0.8512 0.57007 0.97022 0.0
H2060 H 0.82334 0.58923 0.9653 0.0
H2061 H 0.8132 0.5904 0.02516 0.0
C2062 C 0.87476 0.54496 0.03512 0.0
C2063 C 0.88874 0.53545 0.0248 0.0
C2064 C 0.88942 0.53756 1.00514 0.0
C2065 C 0.87645 0.54872 0.99587 0.0
C2066 C 0.86286 0.55779 1.0064 0.0
C2067 C 0.86185 0.55609 0.02557 0.0
C2068 C 0.84549 0.56715 0.03335 0.0
C2069 C 0.83115 0.55415 0.04257 0.0
C2070 C 0.85254 0.58271 0.04713 0.0
C2071 C 0.83744 0.57521 0.01551 0.0
C2072 C 0.8478 0.56959 1.00019 0.0
C2073 C 0.84302 0.57463 0.9821 0.0
C2074 C 0.82709 0.58551 0.97947 0.0
C2075 C 0.81603 0.59137 0.99483 0.0
C2076 C 0.82146 0.58632 0.01316 0.0
H2077 H 0.14844 0.98647 0.02162 0.0
H2078 H 0.12153 0.95138 0.06229 0.0
H2079 H 0.14714 0.92878 0.0593 0.0
H2080 H 0.16492 0.9491 0.99182 0.0
H2081 H 0.18693 0.96057 0.98673 0.0
H2082 H 0.16661 0.97427 0.99218 0.0
H2083 H 0.18533 0.99157 0.01903 0.0
H2084 H 0.20572 0.97794 0.01364 0.0
H2085 H 0.1965 0.97824 0.03701 0.0
H2086 H 0.17555 0.90972 0.0519 0.0
H2087 H 0.20474 0.89553 0.04043 0.0
H2088 H 0.21364 0.94275 1.00457 0.0
C2089 C 0.14801 0.97411 0.03 0.0
C2090 C 0.13279 0.9707 0.04209 0.0
C2091 C 0.13278 0.95421 0.05268 0.0
C2092 C 0.14735 0.94131 0.05118 0.0
C2093 C 0.162 0.945 0.03904 0.0
C2094 C 0.16248 0.96098 0.02863 0.0
C2095 C 0.1798 0.96139 0.01646 0.0
C2096 C 0.17423 0.96133 0.99556 0.0
C2097 C 0.19259 0.97829 0.02187 0.0
C2098 C 0.18892 0.94315 0.02165 0.0
C2099 C 0.17841 0.93395 0.03474 0.0
C2100 C 0.1839 0.91682 0.04166 0.0
C2101 C 0.20054 0.90885 0.03504 0.0
C2102 C 0.21157 0.91795 0.02157 0.0
C2103 C 0.20558 0.93538 0.01486 0.0
loop_
_geom_bond_atom_site_label_1
_geom_bond_atom_site_label_2
_geom_bond_distance
_geom_bond_site_symmetry_2
_ccdc_geom_bond_type
C0 C1 1.264 1_655 S
C0 C5 1.478 . S
C0 C10 1.465 1_655 S
C1 C0 1.264 1_455 S
C1 C3 1.339 1_455 S
C1 H28 0.931 . S
C2 C3 1.395 . S
C2 C4 1.320 . S
C3 C1 1.339 1_655 S
C3 C2 1.395 . S
C3 H29 0.929 . S
C4 C2 1.320 . S
C4 C5 1.405 . S
C4 H30 0.930 . S
C5 C0 1.478 . S
C5 C4 1.405 . S
C5 H31 0.931 . S
U6 O7 2.454 . S
U6 O8 2.458 . S
U6 C9 2.984 . S
U6 C10 2.847 . S
U6 C23 2.882 . S
U6 O24 2.441 . S
U6 O25 2.420 . S
U6 O26 2.455 . S
U6 O27 2.449 . S
O7 U6 2.454 . S
O7 C9 1.353 . S
O8 U6 2.458 . S
O8 C9 1.286 . S
C9 U6 2.984 . S
C9 O7 1.353 . S
C9 O8 1.286 . S
C9 C11 1.363 . S
C10 C0 1.465 1_455 S
C10 U6 2.847 . S
C10 O24 1.249 . S
C10 O25 1.202 . S
C11 C9 1.363 . S
C11 C13 1.408 . S
C11 C16 1.342 1_554 S
C12 C13 1.310 1_556 S
C12 C15 1.461 . S
C12 H32 0.932 . S
C13 C11 1.408 . S
C13 C12 1.310 1_554 S
C13 H33 0.930 . S
C14 C15 1.474 . S
C14 C16 1.285 . S
C14 H34 0.929 . S
C15 C12 1.461 . S
C15 C14 1.474 . S
C16 C11 1.342 1_556 S
C16 C14 1.285 . S
C16 H35 0.930 . S
C17 C20 1.403 1_545 S
C17 C22 1.252 . S
C17 C23 1.445 . S
C18 C21 1.260 . S
C18 C22 1.477 1_565 S
C18 H36 0.932 . S
C19 C20 1.384 . S
C19 C21 1.479 . S
C19 H37 0.929 . S
C20 C17 1.403 1_565 S
C20 C19 1.384 . S
C20 H38 0.928 . S
C21 C18 1.260 . S
C21 C19 1.479 . S
C22 C17 1.252 . S
C22 C18 1.477 1_545 S
C22 H39 0.932 . S
C23 U6 2.882 . S
C23 C17 1.445 . S
C23 O26 1.301 . S
C23 O27 1.282 . S
O24 U6 2.441 . S
O24 C10 1.249 . S
O25 U6 2.420 . S
O25 C10 1.202 . S
O26 U6 2.455 . S
O26 C23 1.301 . S
O27 U6 2.449 . S
O27 C23 1.282 . S
H28 C1 0.931 . S
H29 C3 0.929 . S
H30 C4 0.930 . S
H31 C5 0.931 . S
H32 C12 0.932 . S
H33 C13 0.930 . S
H34 C14 0.929 . S
H35 C16 0.930 . S
H36 C18 0.932 . S
H37 C19 0.929 . S
H38 C20 0.928 . S
H39 C22 0.932 . S
C40 C41 1.264 . S
C40 C45 1.479 . S
C40 C50 1.465 . S
C41 C40 1.264 . S
C41 C43 1.339 . S
C41 H68 0.931 . S
C42 C43 1.395 . S
C42 C44 1.320 . S
C43 C41 1.339 . S
C43 C42 1.395 . S
C43 H69 0.929 . S
C44 C42 1.320 . S
C44 C45 1.405 . S
C44 H70 0.930 . S
C45 C40 1.479 . S
C45 C44 1.405 . S
C45 H71 0.931 . S
U46 O47 2.454 . S
U46 O48 2.458 . S
U46 C49 2.984 . S
U46 C50 2.847 . S
U46 C63 2.882 . S
U46 O64 2.441 . S
U46 O65 2.420 . S
U46 O66 2.455 . S
U46 O67 2.449 . S
O47 U46 2.454 . S
O47 C49 1.353 . S
O48 U46 2.458 . S
O48 C49 1.286 . S
C49 U46 2.984 . S
C49 O47 1.353 . S
C49 O48 1.286 . S
C49 C51 1.363 . S
C50 C40 1.465 . S
C50 U46 2.847 . S
C50 O64 1.249 . S
C50 O65 1.202 . S
C51 C49 1.363 . S
C51 C53 1.408 . S
C51 C56 1.342 . S
C52 C53 1.310 . S
C52 C55 1.461 . S
C52 H72 0.932 . S
C53 C51 1.408 . S
C53 C52 1.310 . S
C53 H73 0.930 . S
C54 C55 1.474 . S
C54 C56 1.285 . S
C54 H74 0.929 . S
C55 C52 1.461 . S
C55 C54 1.474 . S
C56 C51 1.342 . S
C56 C54 1.285 . S
C56 H75 0.930 . S
C57 C60 1.424 . S
C57 C62 1.245 . S
C57 C63 1.428 . S
C58 C61 1.260 . S
C58 C62 1.477 . S
C58 H76 0.932 . S
C59 C60 1.384 . S
C59 C61 1.479 . S
C59 H77 0.929 . S
C60 C57 1.424 . S
C60 C59 1.384 . S
C60 H78 0.928 . S
C61 C58 1.260 . S
C61 C59 1.479 . S
C62 C57 1.245 . S
C62 C58 1.477 . S
C62 H79 0.932 . S
C63 U46 2.882 . S
C63 C57 1.428 . S
C63 O66 1.301 . S
C63 O67 1.282 . S
O64 U46 2.441 . S
O64 C50 1.249 . S
O65 U46 2.420 . S
O65 C50 1.202 . S
O66 U46 2.455 . S
O66 C63 1.301 . S
O67 U46 2.449 . S
O67 C63 1.282 . S
H68 C41 0.931 . S
H69 C43 0.929 . S
H70 C44 0.930 . S
H71 C45 0.931 . S
H72 C52 0.932 . S
H73 C53 0.930 . S
H74 C54 0.929 . S
H75 C56 0.930 . S
H76 C58 0.932 . S
H77 C59 0.929 . S
H78 C60 0.928 . S
H79 C62 0.932 . S
C80 C81 1.264 . S
C80 C85 1.479 1_554 S
C80 C90 1.465 . S
C81 C80 1.264 . S
C81 C83 1.339 . S
C81 H108 0.931 . S
C82 C83 1.395 1_556 S
C82 C84 1.320 . S
C83 C81 1.339 . S
C83 C82 1.395 1_554 S
C83 H109 0.929 . S
C84 C82 1.320 . S
C84 C85 1.405 . S
C84 H110 0.930 . S
C85 C80 1.479 1_556 S
C85 C84 1.405 . S
C85 H111 0.931 . S
U86 O87 2.454 . S
U86 O88 2.458 . S
U86 C89 2.984 . S
U86 C90 2.847 . S
U86 C103 2.882 . S
U86 O104 2.441 . S
U86 O105 2.420 . S
U86 O106 2.455 . S
U86 O107 2.449 . S
O87 U86 2.454 . S
O87 C89 1.353 . S
O88 U86 2.458 . S
O88 C89 1.286 . S
C89 U86 2.984 . S
C89 O87 1.353 . S
C89 O88 1.286 . S
C89 C91 1.363 . S
C90 C80 1.465 . S
C90 U86 2.847 . S
C90 O104 1.249 . S
C90 O105 1.202 . S
C91 C89 1.363 . S
C91 C93 1.408 . S
C91 C96 1.342 . S
C92 C93 1.310 . S
C92 C95 1.461 . S
C92 H112 0.932 . S
C93 C91 1.408 . S
C93 C92 1.310 . S
C93 H113 0.930 . S
C94 C95 1.474 . S
C94 C96 1.285 . S
C94 H114 0.929 . S
C95 C92 1.461 . S
C95 C94 1.474 . S
C96 C91 1.342 . S
C96 C94 1.285 . S
C96 H115 0.930 . S
C97 C100 1.424 1_655 S
C97 C102 1.245 . S
C97 C103 1.428 . S
C98 C101 1.260 1_655 S
C98 C102 1.477 . S
C98 H116 0.932 . S
C99 C100 1.384 . S
C99 C101 1.479 . S
C99 H117 0.929 . S
C100 C97 1.424 1_455 S
C100 C99 1.384 . S
C100 H118 0.928 . S
C101 C98 1.260 1_455 S
C101 C99 1.479 . S
C102 C97 1.245 . S
C102 C98 1.477 . S
C102 H119 0.932 . S
C103 U86 2.882 . S
C103 C97 1.428 . S
C103 O106 1.301 . S
C103 O107 1.282 . S
O104 U86 2.441 . S
O104 C90 1.249 . S
O105 U86 2.420 . S
O105 C90 1.202 . S
O106 U86 2.455 . S
O106 C103 1.301 . S
O107 U86 2.449 . S
O107 C103 1.282 . S
H108 C81 0.931 . S
H109 C83 0.929 . S
H110 C84 0.930 . S
H111 C85 0.931 . S
H112 C92 0.932 . S
H113 C93 0.930 . S
H114 C94 0.929 . S
H115 C96 0.930 . S
H116 C98 0.932 . S
H117 C99 0.929 . S
H118 C100 0.928 . S
H119 C102 0.932 . S
C120 C121 1.264 . S
C120 C125 1.479 . S
C120 C130 1.465 . S
C121 C120 1.264 . S
C121 C123 1.339 . S
C121 H148 0.931 . S
C122 C123 1.395 . S
C122 C124 1.320 . S
C123 C121 1.339 . S
C123 C122 1.395 . S
C123 H149 0.929 . S
C124 C122 1.320 . S
C124 C125 1.405 . S
C124 H150 0.930 . S
C125 C120 1.479 . S
C125 C124 1.405 . S
C125 H151 0.931 . S
U126 O127 2.454 . S
U126 O128 2.458 . S
U126 C129 2.984 . S
U126 C130 2.847 . S
U126 C143 2.882 . S
U126 O144 2.441 . S
U126 O145 2.420 . S
U126 O146 2.455 . S
U126 O147 2.449 . S
O127 U126 2.454 . S
O127 C129 1.353 . S
O128 U126 2.458 . S
O128 C129 1.286 . S
C129 U126 2.984 . S
C129 O127 1.353 . S
C129 O128 1.286 . S
C129 C131 1.363 . S
C130 C120 1.465 . S
C130 U126 2.847 . S
C130 O144 1.249 . S
C130 O145 1.202 . S
C131 C129 1.363 . S
C131 C133 1.408 . S
C131 C136 1.342 . S
C132 C133 1.310 . S
C132 C135 1.461 . S
C132 H152 0.932 . S
C133 C131 1.408 . S
C133 C132 1.310 . S
C133 H153 0.930 . S
C134 C135 1.474 . S
C134 C136 1.285 . S
C134 H154 0.929 . S
C135 C132 1.461 . S
C135 C134 1.474 . S
C136 C131 1.342 . S
C136 C134 1.285 . S
C136 H155 0.930 . S
C137 C140 1.424 . S
C137 C142 1.245 . S
C137 C143 1.428 . S
C138 C141 1.260 . S
C138 C142 1.477 . S
C138 H156 0.932 . S
C139 C140 1.384 . S
C139 C141 1.479 . S
C139 H157 0.929 . S
C140 C137 1.424 . S
C140 C139 1.384 . S
C140 H158 0.928 . S
C141 C138 1.260 . S
C141 C139 1.479 . S
C142 C137 1.245 . S
C142 C138 1.477 . S
C142 H159 0.932 . S
C143 U126 2.882 . S
C143 C137 1.428 . S
C143 O146 1.301 . S
C143 O147 1.282 . S
O144 U126 2.441 . S
O144 C130 1.249 . S
O145 U126 2.420 . S
O145 C130 1.202 . S
O146 U126 2.455 . S
O146 C143 1.301 . S
O147 U126 2.449 . S
O147 C143 1.282 . S
H148 C121 0.931 . S
H149 C123 0.929 . S
H150 C124 0.930 . S
H151 C125 0.931 . S
H152 C132 0.932 . S
H153 C133 0.930 . S
H154 C134 0.929 . S
H155 C136 0.930 . S
H156 C138 0.932 . S
H157 C139 0.929 . S
H158 C140 0.928 . S
H159 C142 0.932 . S
C160 C161 1.264 . S
C160 C165 1.479 1_455 S
C160 C170 1.465 . S
C161 C160 1.264 . S
C161 C163 1.339 . S
C161 H188 0.931 . S
C162 C163 1.395 1_655 S
C162 C164 1.320 . S
C163 C161 1.339 . S
C163 C162 1.395 1_455 S
C163 H189 0.929 . S
C164 C162 1.320 . S
C164 C165 1.405 . S
C164 H190 0.930 . S
C165 C160 1.479 1_655 S
C165 C164 1.405 . S
C165 H191 0.931 . S
U166 O167 2.454 . S
U166 O168 2.458 . S
U166 C169 2.984 . S
U166 C170 2.847 . S
U166 C183 2.882 . S
U166 O184 2.441 . S
U166 O185 2.420 . S
U166 O186 2.455 . S
U166 O187 2.449 . S
O167 U166 2.454 . S
O167 C169 1.353 . S
O168 U166 2.458 . S
O168 C169 1.286 . S
C169 U166 2.984 . S
C169 O167 1.353 . S
C169 O168 1.286 . S
C169 C171 1.363 . S
C170 C160 1.465 . S
C170 U166 2.847 . S
C170 O184 1.249 . S
C170 O185 1.202 . S
C171 C169 1.363 . S
C171 C173 1.408 . S
C171 C176 1.342 . S
C172 C173 1.310 . S
C172 C175 1.461 . S
C172 H192 0.932 . S
C173 C171 1.408 . S
C173 C172 1.310 . S
C173 H193 0.930 . S
C174 C175 1.474 . S
C174 C176 1.285 . S
C174 H194 0.929 . S
C175 C172 1.461 . S
C175 C174 1.474 . S
C176 C171 1.342 . S
C176 C174 1.285 . S
C176 H195 0.930 . S
C177 C180 1.424 1_565 S
C177 C182 1.245 . S
C177 C183 1.428 . S
C178 C181 1.252 1_565 S
C178 C182 1.484 . S
C178 H196 0.929 . S
C179 C180 1.384 . S
C179 C181 1.479 . S
C179 H197 0.929 . S
C180 C177 1.424 1_545 S
C180 C179 1.384 . S
C180 H198 0.928 . S
C181 C178 1.252 1_545 S
C181 C179 1.479 . S
C182 C177 1.245 . S
C182 C178 1.484 . S
C182 H199 0.932 . S
C183 U166 2.882 . S
C183 C177 1.428 . S
C183 O186 1.301 . S
C183 O187 1.282 . S
O184 U166 2.441 . S
O184 C170 1.249 . S
O185 U166 2.420 . S
O185 C170 1.202 . S
O186 U166 2.455 . S
O186 C183 1.301 . S
O187 U166 2.449 . S
O187 C183 1.282 . S
H188 C161 0.931 . S
H189 C163 0.929 . S
H190 C164 0.930 . S
H191 C165 0.931 . S
H192 C172 0.932 . S
H193 C173 0.930 . S
H194 C174 0.929 . S
H195 C176 0.930 . S
H196 C178 0.929 . S
H197 C179 0.929 . S
H198 C180 0.928 . S
H199 C182 0.932 . S
C200 C201 1.264 . S
C200 C205 1.479 . S
C200 C210 1.465 . S
C201 C200 1.264 . S
C201 C203 1.339 . S
C201 H228 0.931 . S
C202 C203 1.395 . S
C202 C204 1.320 . S
C203 C201 1.339 . S
C203 C202 1.395 . S
C203 H229 0.929 . S
C204 C202 1.320 . S
C204 C205 1.405 . S
C204 H230 0.930 . S
C205 C200 1.479 . S
C205 C204 1.405 . S
C205 H231 0.931 . S
U206 O207 2.454 . S
U206 O208 2.458 . S
U206 C209 2.984 . S
U206 C210 2.847 . S
U206 C223 2.882 . S
U206 O224 2.441 . S
U206 O225 2.420 . S
U206 O226 2.455 . S
U206 O227 2.449 . S
O207 U206 2.454 . S
O207 C209 1.353 . S
O208 U206 2.458 . S
O208 C209 1.286 . S
C209 U206 2.984 . S
C209 O207 1.353 . S
C209 O208 1.286 . S
C209 C211 1.363 . S
C210 C200 1.465 . S
C210 U206 2.847 . S
C210 O224 1.249 . S
C210 O225 1.202 . S
C211 C209 1.363 . S
C211 C213 1.408 . S
C211 C216 1.342 . S
C212 C213 1.310 . S
C212 C215 1.461 . S
C212 H232 0.932 . S
C213 C211 1.408 . S
C213 C212 1.310 . S
C213 H233 0.930 . S
C214 C215 1.474 . S
C214 C216 1.285 . S
C214 H234 0.929 . S
C215 C212 1.461 . S
C215 C214 1.474 . S
C216 C211 1.342 . S
C216 C214 1.285 . S
C216 H235 0.930 . S
C217 C220 1.424 . S
C217 C222 1.245 . S
C217 C223 1.428 . S
C218 C221 1.260 . S
C218 C222 1.477 . S
C218 H236 0.932 . S
C219 C220 1.384 . S
C219 C221 1.479 . S
C219 H237 0.929 . S
C220 C217 1.424 . S
C220 C219 1.384 . S
C220 H238 0.928 . S
C221 C218 1.260 . S
C221 C219 1.479 . S
C222 C217 1.245 . S
C222 C218 1.477 . S
C222 H239 0.932 . S
C223 U206 2.882 . S
C223 C217 1.428 . S
C223 O226 1.301 . S
C223 O227 1.282 . S
O224 U206 2.441 . S
O224 C210 1.249 . S
O225 U206 2.420 . S
O225 C210 1.202 . S
O226 U206 2.455 . S
O226 C223 1.301 . S
O227 U206 2.449 . S
O227 C223 1.282 . S
H228 C201 0.931 . S
H229 C203 0.929 . S
H230 C204 0.930 . S
H231 C205 0.931 . S
H232 C212 0.932 . S
H233 C213 0.930 . S
H234 C214 0.929 . S
H235 C216 0.930 . S
H236 C218 0.932 . S
H237 C219 0.929 . S
H238 C220 0.928 . S
H239 C222 0.932 . S
C240 C241 1.264 . S
C240 C245 1.479 . S
C240 C250 1.465 . S
C241 C240 1.264 . S
C241 C243 1.339 . S
C241 H268 0.931 . S
C242 C243 1.395 . S
C242 C244 1.320 . S
C243 C241 1.339 . S
C243 C242 1.395 . S
C243 H269 0.929 . S
C244 C242 1.320 . S
C244 C245 1.405 . S
C244 H270 0.930 . S
C245 C240 1.479 . S
C245 C244 1.405 . S
C245 H271 0.931 . S
U246 O247 2.454 . S
U246 O248 2.458 . S
U246 C249 2.984 . S
U246 C250 2.847 . S
U246 C263 2.882 . S
U246 O264 2.441 . S
U246 O265 2.420 . S
U246 O266 2.455 . S
U246 O267 2.449 . S
O247 U246 2.454 . S
O247 C249 1.353 . S
O248 U246 2.458 . S
O248 C249 1.286 . S
C249 U246 2.984 . S
C249 O247 1.353 . S
C249 O248 1.286 . S
C249 C251 1.363 . S
C250 C240 1.465 . S
C250 U246 2.847 . S
C250 O264 1.249 . S
C250 O265 1.202 . S
C251 C249 1.363 . S
C251 C253 1.408 . S
C251 C256 1.342 . S
C252 C253 1.310 . S
C252 C255 1.461 . S
C252 H272 0.932 . S
C253 C251 1.408 . S
C253 C252 1.310 . S
C253 H273 0.930 . S
C254 C255 1.474 . S
C254 C256 1.285 . S
C254 H274 0.929 . S
C255 C252 1.461 . S
C255 C254 1.474 . S
C256 C251 1.342 . S
C256 C254 1.285 . S
C256 H275 0.930 . S
C257 C260 1.424 1_655 S
C257 C262 1.245 . S
C257 C263 1.428 . S
C258 C261 1.260 . S
C258 C262 1.477 1_455 S
C258 H276 0.932 . S
C259 C260 1.384 . S
C259 C261 1.479 . S
C259 H277 0.929 . S
C260 C257 1.424 1_455 S
C260 C259 1.384 . S
C260 H278 0.928 . S
C261 C258 1.260 . S
C261 C259 1.479 . S
C262 C257 1.245 . S
C262 C258 1.477 1_655 S
C262 H279 0.932 . S
C263 U246 2.882 . S
C263 C257 1.428 . S
C263 O266 1.301 . S
C263 O267 1.282 . S
O264 U246 2.441 . S
O264 C250 1.249 . S
O265 U246 2.420 . S
O265 C250 1.202 . S
O266 U246 2.455 . S
O266 C263 1.301 . S
O267 U246 2.449 . S
O267 C263 1.282 . S
H268 C241 0.931 . S
H269 C243 0.929 . S
H270 C244 0.930 . S
H271 C245 0.931 . S
H272 C252 0.932 . S
H273 C253 0.930 . S
H274 C254 0.929 . S
H275 C256 0.930 . S
H276 C258 0.932 . S
H277 C259 0.929 . S
H278 C260 0.928 . S
H279 C262 0.932 . S
C280 C281 1.264 . S
C280 C285 1.479 . S
C280 C290 1.465 . S
C281 C280 1.264 . S
C281 C283 1.339 . S
C281 H308 0.931 . S
C282 C283 1.395 . S
C282 C284 1.320 . S
C283 C281 1.339 . S
C283 C282 1.395 . S
C283 H309 0.929 . S
C284 C282 1.320 . S
C284 C285 1.405 . S
C284 H310 0.930 . S
C285 C280 1.479 . S
C285 C284 1.405 . S
C285 H311 0.931 . S
U286 O287 2.454 . S
U286 O288 2.458 . S
U286 C289 2.984 . S
U286 C290 2.847 . S
U286 C303 2.882 . S
U286 O304 2.441 . S
U286 O305 2.420 . S
U286 O306 2.455 . S
U286 O307 2.449 . S
O287 U286 2.454 . S
O287 C289 1.353 . S
O288 U286 2.458 . S
O288 C289 1.286 . S
C289 U286 2.984 . S
C289 O287 1.353 . S
C289 O288 1.286 . S
C289 C291 1.363 . S
C290 C280 1.465 . S
C290 U286 2.847 . S
C290 O304 1.249 . S
C290 O305 1.202 . S
C291 C289 1.363 . S
C291 C293 1.408 . S
C291 C296 1.342 . S
C292 C293 1.310 . S
C292 C295 1.461 . S
C292 H312 0.932 . S
C293 C291 1.408 . S
C293 C292 1.310 . S
C293 H313 0.930 . S
C294 C295 1.474 . S
C294 C296 1.285 . S
C294 H314 0.929 . S
C295 C292 1.461 . S
C295 C294 1.474 . S
C296 C291 1.342 . S
C296 C294 1.285 . S
C296 H315 0.930 . S
C297 C300 1.424 . S
C297 C302 1.245 . S
C297 C303 1.428 . S
C298 C301 1.260 . S
C298 C302 1.477 . S
C298 H316 0.932 . S
C299 C300 1.384 . S
C299 C301 1.479 . S
C299 H317 0.929 . S
C300 C297 1.424 . S
C300 C299 1.384 . S
C300 H318 0.928 . S
C301 C298 1.260 . S
C301 C299 1.479 . S
C302 C297 1.245 . S
C302 C298 1.477 . S
C302 H319 0.932 . S
C303 U286 2.882 . S
C303 C297 1.428 . S
C303 O306 1.301 . S
C303 O307 1.282 . S
O304 U286 2.441 . S
O304 C290 1.249 . S
O305 U286 2.420 . S
O305 C290 1.202 . S
O306 U286 2.455 . S
O306 C303 1.301 . S
O307 U286 2.449 . S
O307 C303 1.282 . S
H308 C281 0.931 . S
H309 C283 0.929 . S
H310 C284 0.930 . S
H311 C285 0.931 . S
H312 C292 0.932 . S
H313 C293 0.930 . S
H314 C294 0.929 . S
H315 C296 0.930 . S
H316 C298 0.932 . S
H317 C299 0.929 . S
H318 C300 0.928 . S
H319 C302 0.932 . S
C320 C321 1.264 . S
C320 C325 1.479 . S
C320 C330 1.465 . S
C321 C320 1.264 . S
C321 C323 1.339 . S
C321 H348 0.931 . S
C322 C323 1.395 . S
C322 C324 1.320 . S
C323 C321 1.339 . S
C323 C322 1.395 . S
C323 H349 0.929 . S
C324 C322 1.320 . S
C324 C325 1.405 . S
C324 H350 0.930 . S
C325 C320 1.479 . S
C325 C324 1.405 . S
C325 H351 0.931 . S
U326 O327 2.454 . S
U326 O328 2.458 . S
U326 C329 2.984 . S
U326 C330 2.847 . S
U326 C343 2.882 . S
U326 O344 2.441 . S
U326 O345 2.420 . S
U326 O346 2.455 . S
U326 O347 2.449 . S
O327 U326 2.454 . S
O327 C329 1.353 . S
O328 U326 2.458 . S
O328 C329 1.286 . S
C329 U326 2.984 . S
C329 O327 1.353 . S
C329 O328 1.286 . S
C329 C331 1.363 . S
C330 C320 1.465 . S
C330 U326 2.847 . S
C330 O344 1.249 . S
C330 O345 1.202 . S
C331 C329 1.363 . S
C331 C333 1.408 . S
C331 C336 1.342 . S
C332 C333 1.310 . S
C332 C335 1.461 . S
C332 H352 0.932 . S
C333 C331 1.408 . S
C333 C332 1.310 . S
C333 H353 0.930 . S
C334 C335 1.474 . S
C334 C336 1.285 . S
C334 H354 0.929 . S
C335 C332 1.461 . S
C335 C334 1.474 . S
C336 C331 1.342 . S
C336 C334 1.285 . S
C336 H355 0.930 . S
C337 C340 1.424 . S
C337 C342 1.245 . S
C337 C343 1.428 . S
C338 C341 1.260 . S
C338 C342 1.477 . S
C338 H356 0.932 . S
C339 C340 1.384 . S
C339 C341 1.479 . S
C339 H357 0.929 . S
C340 C337 1.424 . S
C340 C339 1.384 . S
C340 H358 0.928 . S
C341 C338 1.260 . S
C341 C339 1.479 . S
C342 C337 1.245 . S
C342 C338 1.477 . S
C342 H359 0.932 . S
C343 U326 2.882 . S
C343 C337 1.428 . S
C343 O346 1.301 . S
C343 O347 1.282 . S
O344 U326 2.441 . S
O344 C330 1.249 . S
O345 U326 2.420 . S
O345 C330 1.202 . S
O346 U326 2.455 . S
O346 C343 1.301 . S
O347 U326 2.449 . S
O347 C343 1.282 . S
H348 C321 0.931 . S
H349 C323 0.929 . S
H350 C324 0.930 . S
H351 C325 0.931 . S
H352 C332 0.932 . S
H353 C333 0.930 . S
H354 C334 0.929 . S
H355 C336 0.930 . S
H356 C338 0.932 . S
H357 C339 0.929 . S
H358 C340 0.928 . S
H359 C342 0.932 . S
C360 C361 1.264 . S
C360 C365 1.479 . S
C360 C370 1.465 . S
C361 C360 1.264 . S
C361 C363 1.339 . S
C361 H388 0.931 . S
C362 C363 1.395 . S
C362 C364 1.320 . S
C363 C361 1.339 . S
C363 C362 1.395 . S
C363 H389 0.929 . S
C364 C362 1.320 . S
C364 C365 1.405 . S
C364 H390 0.930 . S
C365 C360 1.479 . S
C365 C364 1.405 . S
C365 H391 0.931 . S
U366 O367 2.454 . S
U366 O368 2.458 . S
U366 C369 2.984 . S
U366 C370 2.847 . S
U366 C383 2.882 . S
U366 O384 2.441 . S
U366 O385 2.420 . S
U366 O386 2.455 . S
U366 O387 2.449 . S
O367 U366 2.454 . S
O367 C369 1.353 . S
O368 U366 2.458 . S
O368 C369 1.286 . S
C369 U366 2.984 . S
C369 O367 1.353 . S
C369 O368 1.286 . S
C369 C371 1.363 . S
C370 C360 1.465 . S
C370 U366 2.847 . S
C370 O384 1.249 . S
C370 O385 1.202 . S
C371 C369 1.363 . S
C371 C373 1.408 . S
C371 C376 1.342 1_565 S
C372 C373 1.310 1_545 S
C372 C375 1.461 . S
C372 H392 0.938 . S
C373 C371 1.408 . S
C373 C372 1.310 1_565 S
C373 H393 0.930 . S
C374 C375 1.474 . S
C374 C376 1.285 . S
C374 H394 0.929 . S
C375 C372 1.461 . S
C375 C374 1.474 . S
C376 C371 1.342 1_545 S
C376 C374 1.285 . S
C376 H395 0.930 . S
C377 C380 1.424 . S
C377 C382 1.245 . S
C377 C383 1.428 . S
C378 C381 1.260 . S
C378 C382 1.477 . S
C378 H396 0.932 . S
C379 C380 1.384 . S
C379 C381 1.479 . S
C379 H397 0.929 . S
C380 C377 1.424 . S
C380 C379 1.384 . S
C380 H398 0.928 . S
C381 C378 1.260 . S
C381 C379 1.479 . S
C382 C377 1.245 . S
C382 C378 1.477 . S
C382 H399 0.932 . S
C383 U366 2.882 . S
C383 C377 1.428 . S
C383 O386 1.301 . S
C383 O387 1.282 . S
O384 U366 2.441 . S
O384 C370 1.249 . S
O385 U366 2.420 . S
O385 C370 1.202 . S
O386 U366 2.455 . S
O386 C383 1.301 . S
O387 U366 2.449 . S
O387 C383 1.282 . S
H388 C361 0.931 . S
H389 C363 0.929 . S
H390 C364 0.930 . S
H391 C365 0.931 . S
H392 C372 0.938 . S
H393 C373 0.930 . S
H394 C374 0.929 . S
H395 C376 0.930 . S
H396 C378 0.932 . S
H397 C379 0.929 . S
H398 C380 0.928 . S
H399 C382 0.932 . S
C400 C401 1.264 . S
C400 C405 1.479 . S
C400 C410 1.465 . S
C401 C400 1.264 . S
C401 C403 1.339 . S
C401 H428 0.931 . S
C402 C403 1.395 . S
C402 C404 1.320 . S
C403 C401 1.339 . S
C403 C402 1.395 . S
C403 H429 0.929 . S
C404 C402 1.320 . S
C404 C405 1.405 . S
C404 H430 0.930 . S
C405 C400 1.479 . S
C405 C404 1.405 . S
C405 H431 0.931 . S
U406 O407 2.454 . S
U406 O408 2.458 . S
U406 C409 2.984 . S
U406 C410 2.847 . S
U406 C423 2.882 . S
U406 O424 2.441 . S
U406 O425 2.420 . S
U406 O426 2.455 . S
U406 O427 2.449 . S
O407 U406 2.454 . S
O407 C409 1.353 . S
O408 U406 2.458 . S
O408 C409 1.286 . S
C409 U406 2.984 . S
C409 O407 1.353 . S
C409 O408 1.286 . S
C409 C411 1.363 . S
C410 C400 1.465 . S
C410 U406 2.847 . S
C410 O424 1.249 . S
C410 O425 1.202 . S
C411 C409 1.363 . S
C411 C413 1.408 . S
C411 C416 1.342 . S
C412 C413 1.310 . S
C412 C415 1.461 . S
C412 H432 0.932 . S
C413 C411 1.408 . S
C413 C412 1.310 . S
C413 H433 0.930 . S
C414 C415 1.474 . S
C414 C416 1.285 . S
C414 H434 0.929 . S
C415 C412 1.461 . S
C415 C414 1.474 . S
C416 C411 1.342 . S
C416 C414 1.285 . S
C416 H435 0.930 . S
C417 C420 1.424 . S
C417 C422 1.245 . S
C417 C423 1.428 . S
C418 C421 1.260 . S
C418 C422 1.477 . S
C418 H436 0.932 . S
C419 C420 1.384 . S
C419 C421 1.479 . S
C419 H437 0.929 . S
C420 C417 1.424 . S
C420 C419 1.384 . S
C420 H438 0.928 . S
C421 C418 1.260 . S
C421 C419 1.479 . S
C422 C417 1.245 . S
C422 C418 1.477 . S
C422 H439 0.932 . S
C423 U406 2.882 . S
C423 C417 1.428 . S
C423 O426 1.301 . S
C423 O427 1.282 . S
O424 U406 2.441 . S
O424 C410 1.249 . S
O425 U406 2.420 . S
O425 C410 1.202 . S
O426 U406 2.455 . S
O426 C423 1.301 . S
O427 U406 2.449 . S
O427 C423 1.282 . S
H428 C401 0.931 . S
H429 C403 0.929 . S
H430 C404 0.930 . S
H431 C405 0.931 . S
H432 C412 0.932 . S
H433 C413 0.930 . S
H434 C414 0.929 . S
H435 C416 0.930 . S
H436 C418 0.932 . S
H437 C419 0.929 . S
H438 C420 0.928 . S
H439 C422 0.932 . S
C440 C441 1.264 . S
C440 C445 1.479 . S
C440 C450 1.465 . S
C441 C440 1.264 . S
C441 C443 1.339 . S
C441 H468 0.931 . S
C442 C443 1.395 . S
C442 C444 1.320 . S
C443 C441 1.339 . S
C443 C442 1.395 . S
C443 H469 0.929 . S
C444 C442 1.320 . S
C444 C445 1.405 . S
C444 H470 0.930 . S
C445 C440 1.479 . S
C445 C444 1.405 . S
C445 H471 0.931 . S
U446 O447 2.454 . S
U446 O448 2.458 . S
U446 C449 2.984 . S
U446 C450 2.847 . S
U446 C463 2.882 . S
U446 O464 2.441 . S
U446 O465 2.420 . S
U446 O466 2.455 . S
U446 O467 2.449 . S
O447 U446 2.454 . S
O447 C449 1.353 . S
O448 U446 2.458 . S
O448 C449 1.286 . S
C449 U446 2.984 . S
C449 O447 1.353 . S
C449 O448 1.286 . S
C449 C451 1.363 . S
C450 C440 1.465 . S
C450 U446 2.847 . S
C450 O464 1.249 . S
C450 O465 1.202 . S
C451 C449 1.363 . S
C451 C453 1.408 . S
C451 C456 1.342 . S
C452 C453 1.310 . S
C452 C455 1.461 . S
C452 H472 0.932 . S
C453 C451 1.408 . S
C453 C452 1.310 . S
C453 H473 0.930 . S
C454 C455 1.474 . S
C454 C456 1.285 . S
C454 H474 0.929 . S
C455 C452 1.461 . S
C455 C454 1.474 . S
C456 C451 1.342 . S
C456 C454 1.285 . S
C456 H475 0.930 . S
C457 C460 1.424 . S
C457 C462 1.245 . S
C457 C463 1.428 . S
C458 C461 1.260 . S
C458 C462 1.477 . S
C458 H476 0.932 . S
C459 C460 1.384 . S
C459 C461 1.479 . S
C459 H477 0.929 . S
C460 C457 1.424 . S
C460 C459 1.384 . S
C460 H478 0.928 . S
C461 C458 1.260 . S
C461 C459 1.479 . S
C462 C457 1.245 . S
C462 C458 1.477 . S
C462 H479 0.932 . S
C463 U446 2.882 . S
C463 C457 1.428 . S
C463 O466 1.301 . S
C463 O467 1.282 . S
O464 U446 2.441 . S
O464 C450 1.249 . S
O465 U446 2.420 . S
O465 C450 1.202 . S
O466 U446 2.455 . S
O466 C463 1.301 . S
O467 U446 2.449 . S
O467 C463 1.282 . S
H468 C441 0.931 . S
H469 C443 0.929 . S
H470 C444 0.930 . S
H471 C445 0.931 . S
H472 C452 0.932 . S
H473 C453 0.930 . S
H474 C454 0.929 . S
H475 C456 0.930 . S
H476 C458 0.932 . S
H477 C459 0.929 . S
H478 C460 0.928 . S
H479 C462 0.932 . S
C480 C481 1.264 . S
C480 C485 1.479 . S
C480 C490 1.465 . S
C481 C480 1.264 . S
C481 C483 1.339 . S
C481 H508 0.931 . S
C482 C483 1.395 . S
C482 C484 1.320 . S
C483 C481 1.339 . S
C483 C482 1.395 . S
C483 H509 0.929 . S
C484 C482 1.320 . S
C484 C485 1.405 . S
C484 H510 0.930 . S
C485 C480 1.479 . S
C485 C484 1.405 . S
C485 H511 0.931 . S
U486 O487 2.454 . S
U486 O488 2.458 . S
U486 C489 2.984 . S
U486 C490 2.847 . S
U486 C503 2.882 . S
U486 O504 2.441 . S
U486 O505 2.420 . S
U486 O506 2.455 . S
U486 O507 2.449 . S
O487 U486 2.454 . S
O487 C489 1.353 . S
O488 U486 2.458 . S
O488 C489 1.286 . S
C489 U486 2.984 . S
C489 O487 1.353 . S
C489 O488 1.286 . S
C489 C491 1.363 . S
C490 C480 1.465 . S
C490 U486 2.847 . S
C490 O504 1.249 . S
C490 O505 1.202 . S
C491 C489 1.363 . S
C491 C493 1.408 . S
C491 C496 1.342 . S
C492 C493 1.310 . S
C492 C495 1.461 . S
C492 H512 0.932 . S
C493 C491 1.408 . S
C493 C492 1.310 . S
C493 H513 0.930 . S
C494 C495 1.474 . S
C494 C496 1.285 . S
C494 H514 0.929 . S
C495 C492 1.461 . S
C495 C494 1.474 . S
C496 C491 1.342 . S
C496 C494 1.285 . S
C496 H515 0.930 . S
C497 C500 1.424 . S
C497 C502 1.245 . S
C497 C503 1.428 . S
C498 C501 1.260 . S
C498 C502 1.477 . S
C498 H516 0.932 . S
C499 C500 1.384 . S
C499 C501 1.479 . S
C499 H517 0.929 . S
C500 C497 1.424 . S
C500 C499 1.384 . S
C500 H518 0.928 . S
C501 C498 1.260 . S
C501 C499 1.479 . S
C502 C497 1.245 . S
C502 C498 1.477 . S
C502 H519 0.932 . S
C503 U486 2.882 . S
C503 C497 1.428 . S
C503 O506 1.301 . S
C503 O507 1.282 . S
O504 U486 2.441 . S
O504 C490 1.249 . S
O505 U486 2.420 . S
O505 C490 1.202 . S
O506 U486 2.455 . S
O506 C503 1.301 . S
O507 U486 2.449 . S
O507 C503 1.282 . S
H508 C481 0.931 . S
H509 C483 0.929 . S
H510 C484 0.930 . S
H511 C485 0.931 . S
H512 C492 0.932 . S
H513 C493 0.930 . S
H514 C494 0.929 . S
H515 C496 0.930 . S
H516 C498 0.932 . S
H517 C499 0.929 . S
H518 C500 0.928 . S
H519 C502 0.932 . S
C520 C521 1.264 . S
C520 C525 1.479 . S
C520 C530 1.465 . S
C521 C520 1.264 . S
C521 C523 1.339 . S
C521 H548 0.931 . S
C522 C523 1.395 . S
C522 C524 1.320 . S
C523 C521 1.339 . S
C523 C522 1.395 . S
C523 H549 0.929 . S
C524 C522 1.320 . S
C524 C525 1.405 . S
C524 H550 0.930 . S
C525 C520 1.479 . S
C525 C524 1.405 . S
C525 H551 0.931 . S
U526 O527 2.454 . S
U526 O528 2.458 . S
U526 C529 2.984 . S
U526 C530 2.847 . S
U526 C543 2.882 . S
U526 O544 2.441 . S
U526 O545 2.420 . S
U526 O546 2.455 . S
U526 O547 2.449 . S
O527 U526 2.454 . S
O527 C529 1.353 . S
O528 U526 2.458 . S
O528 C529 1.286 . S
C529 U526 2.984 . S
C529 O527 1.353 . S
C529 O528 1.286 . S
C529 C531 1.363 . S
C530 C520 1.465 . S
C530 U526 2.847 . S
C530 O544 1.249 . S
C530 O545 1.202 . S
C531 C529 1.363 . S
C531 C533 1.408 . S
C531 C536 1.342 1_556 S
C532 C533 1.310 1_554 S
C532 C535 1.461 . S
C532 H552 0.929 1_554 S
C533 C531 1.408 . S
C533 C532 1.310 1_556 S
C533 H553 0.930 . S
C534 C535 1.474 . S
C534 C536 1.285 . S
C534 H554 0.929 . S
C535 C532 1.461 . S
C535 C534 1.474 . S
C536 C531 1.342 1_554 S
C536 C534 1.285 . S
C536 H555 0.930 . S
C537 C540 1.424 . S
C537 C542 1.245 . S
C537 C543 1.428 . S
C538 C541 1.260 . S
C538 C542 1.477 . S
C538 H556 0.932 . S
C539 C540 1.384 . S
C539 C541 1.479 . S
C539 H557 0.929 . S
C540 C537 1.424 . S
C540 C539 1.384 . S
C540 H558 0.928 . S
C541 C538 1.260 . S
C541 C539 1.479 . S
C542 C537 1.245 . S
C542 C538 1.477 . S
C542 H559 0.932 . S
C543 U526 2.882 . S
C543 C537 1.428 . S
C543 O546 1.301 . S
C543 O547 1.282 . S
O544 U526 2.441 . S
O544 C530 1.249 . S
O545 U526 2.420 . S
O545 C530 1.202 . S
O546 U526 2.455 . S
O546 C543 1.301 . S
O547 U526 2.449 . S
O547 C543 1.282 . S
H548 C521 0.931 . S
H549 C523 0.929 . S
H550 C524 0.930 . S
H551 C525 0.931 . S
H552 C532 0.929 1_556 S
H553 C533 0.930 . S
H554 C534 0.929 . S
H555 C536 0.930 . S
H556 C538 0.932 . S
H557 C539 0.929 . S
H558 C540 0.928 . S
H559 C542 0.932 . S
C560 C561 1.264 . S
C560 C565 1.479 . S
C560 C570 1.465 . S
C561 C560 1.264 . S
C561 C563 1.339 . S
C561 H588 0.931 . S
C562 C563 1.395 . S
C562 C564 1.320 . S
C563 C561 1.339 . S
C563 C562 1.395 . S
C563 H589 0.929 . S
C564 C562 1.320 . S
C564 C565 1.405 . S
C564 H590 0.930 . S
C565 C560 1.479 . S
C565 C564 1.405 . S
C565 H591 0.931 . S
U566 O567 2.454 . S
U566 O568 2.458 . S
U566 C569 2.984 . S
U566 C570 2.847 . S
U566 C583 2.882 . S
U566 O584 2.441 . S
U566 O585 2.420 . S
U566 O586 2.455 . S
U566 O587 2.449 . S
O567 U566 2.454 . S
O567 C569 1.353 . S
O568 U566 2.458 . S
O568 C569 1.286 . S
C569 U566 2.984 . S
C569 O567 1.353 . S
C569 O568 1.286 . S
C569 C571 1.363 . S
C570 C560 1.465 . S
C570 U566 2.847 . S
C570 O584 1.249 . S
C570 O585 1.202 . S
C571 C569 1.363 . S
C571 C573 1.408 . S
C571 C576 1.342 . S
C572 C573 1.310 . S
C572 C575 1.461 . S
C572 H592 0.932 . S
C573 C571 1.408 . S
C573 C572 1.310 . S
C573 H593 0.930 . S
C574 C575 1.474 . S
C574 C576 1.285 . S
C574 H594 0.929 . S
C575 C572 1.461 . S
C575 C574 1.474 . S
C576 C571 1.342 . S
C576 C574 1.285 . S
C576 H595 0.930 . S
C577 C580 1.424 . S
C577 C582 1.245 . S
C577 C583 1.428 . S
C578 C581 1.260 . S
C578 C582 1.477 . S
C578 H596 0.932 . S
C579 C580 1.384 . S
C579 C581 1.479 . S
C579 H597 0.929 . S
C580 C577 1.424 . S
C580 C579 1.384 . S
C580 H598 0.928 . S
C581 C578 1.260 . S
C581 C579 1.479 . S
C582 C577 1.245 . S
C582 C578 1.477 . S
C582 H599 0.932 . S
C583 U566 2.882 . S
C583 C577 1.428 . S
C583 O586 1.301 . S
C583 O587 1.282 . S
O584 U566 2.441 . S
O584 C570 1.249 . S
O585 U566 2.420 . S
O585 C570 1.202 . S
O586 U566 2.455 . S
O586 C583 1.301 . S
O587 U566 2.449 . S
O587 C583 1.282 . S
H588 C561 0.931 . S
H589 C563 0.929 . S
H590 C564 0.930 . S
H591 C565 0.931 . S
H592 C572 0.932 . S
H593 C573 0.930 . S
H594 C574 0.929 . S
H595 C576 0.930 . S
H596 C578 0.932 . S
H597 C579 0.929 . S
H598 C580 0.928 . S
H599 C582 0.932 . S
C600 C601 1.264 . S
C600 C605 1.479 1_556 S
C600 C610 1.465 . S
C601 C600 1.264 . S
C601 C603 1.339 . S
C601 H628 0.931 . S
C602 C603 1.395 1_554 S
C602 C604 1.320 . S
C603 C601 1.339 . S
C603 C602 1.395 1_556 S
C603 H629 0.929 . S
C604 C602 1.320 . S
C604 C605 1.405 . S
C604 H630 0.930 . S
C605 C600 1.479 1_554 S
C605 C604 1.405 . S
C605 H631 0.931 . S
U606 O607 2.454 . S
U606 O608 2.458 . S
U606 C609 2.984 . S
U606 C610 2.847 . S
U606 C623 2.882 . S
U606 O624 2.441 . S
U606 O625 2.420 . S
U606 O626 2.455 . S
U606 O627 2.449 . S
O607 U606 2.454 . S
O607 C609 1.353 . S
O608 U606 2.458 . S
O608 C609 1.286 . S
C609 U606 2.984 . S
C609 O607 1.353 . S
C609 O608 1.286 . S
C609 C611 1.363 . S
C610 C600 1.465 . S
C610 U606 2.847 . S
C610 O624 1.249 . S
C610 O625 1.202 . S
C611 C609 1.363 . S
C611 C613 1.408 . S
C611 C616 1.335 1_545 S
C612 C613 1.310 . S
C612 C615 1.461 1_545 S
C612 H632 0.932 . S
C613 C611 1.408 . S
C613 C612 1.310 . S
C613 H633 0.930 . S
C614 C615 1.474 . S
C614 C616 1.293 . S
C614 H634 0.929 . S
C615 C612 1.461 1_565 S
C615 C614 1.474 . S
C616 C611 1.335 1_565 S
C616 C614 1.293 . S
C616 H635 0.931 . S
C617 C620 1.424 . S
C617 C622 1.245 . S
C617 C623 1.428 . S
C618 C621 1.260 . S
C618 C622 1.477 . S
C618 H636 0.932 . S
C619 C620 1.384 . S
C619 C621 1.479 . S
C619 H637 0.929 . S
C620 C617 1.424 . S
C620 C619 1.384 . S
C620 H638 0.928 . S
C621 C618 1.260 . S
C621 C619 1.479 . S
C622 C617 1.245 . S
C622 C618 1.477 . S
C622 H639 0.932 . S
C623 U606 2.882 . S
C623 C617 1.428 . S
C623 O626 1.301 . S
C623 O627 1.282 . S
O624 U606 2.441 . S
O624 C610 1.249 . S
O625 U606 2.420 . S
O625 C610 1.202 . S
O626 U606 2.455 . S
O626 C623 1.301 . S
O627 U606 2.449 . S
O627 C623 1.282 . S
H628 C601 0.931 . S
H629 C603 0.929 . S
H630 C604 0.930 . S
H631 C605 0.931 . S
H632 C612 0.932 . S
H633 C613 0.930 . S
H634 C614 0.929 . S
H635 C616 0.931 . S
H636 C618 0.932 . S
H637 C619 0.929 . S
H638 C620 0.928 . S
H639 C622 0.932 . S
Zn640 O643 2.031 . S
Zn640 O645 2.049 1_554 S
Zn640 O650 2.067 1_554 S
Zn641 O642 1.962 . S
Zn641 O644 1.986 . S
Zn641 O646 1.996 . S
Zn641 O649 1.943 1_554 S
O642 Zn641 1.962 . S
O642 C647 1.254 . S
O643 Zn640 2.031 . S
O643 C647 1.269 . S
O644 Zn641 1.986 . S
O644 C651 1.262 . S
O645 Zn640 2.049 1_556 S
O645 C653 1.260 . S
O646 Zn641 1.996 . S
O646 C653 1.257 1_554 S
C647 O642 1.254 . S
C647 O643 1.269 . S
C648 O649 1.249 . S
C648 O650 1.270 . S
O649 Zn641 1.943 1_556 S
O649 C648 1.249 . S
O650 Zn640 2.067 1_556 S
O650 C648 1.270 . S
C651 O644 1.262 . S
C651 O652 1.232 . S
O652 C651 1.232 . S
C653 O645 1.260 . S
C653 O646 1.257 1_556 S
Zn654 O657 2.031 . S
Zn654 O659 2.049 . S
Zn654 O664 2.067 . S
Zn655 O656 1.962 . S
Zn655 O658 1.986 . S
Zn655 O660 1.996 . S
Zn655 O663 1.943 . S
O656 Zn655 1.962 . S
O656 C661 1.254 . S
O657 Zn654 2.031 . S
O657 C661 1.269 . S
O658 Zn655 1.986 . S
O658 C665 1.262 . S
O659 Zn654 2.049 . S
O659 C667 1.260 . S
O660 Zn655 1.996 . S
O660 C667 1.257 . S
C661 O656 1.254 . S
C661 O657 1.269 . S
C662 O663 1.249 . S
C662 O664 1.270 . S
O663 Zn655 1.943 . S
O663 C662 1.249 . S
O664 Zn654 2.067 . S
O664 C662 1.270 . S
C665 O658 1.262 . S
C665 O666 1.232 . S
O666 C665 1.232 . S
C667 O659 1.260 . S
C667 O660 1.257 . S
Zn668 O671 2.031 . S
Zn668 O673 2.049 . S
Zn668 O678 2.067 . S
Zn669 O670 1.962 . S
Zn669 O672 1.986 . S
Zn669 O674 1.996 1_554 S
Zn669 O677 1.943 . S
O670 Zn669 1.962 . S
O670 C675 1.254 . S
O671 Zn668 2.031 . S
O671 C675 1.269 1_556 S
O672 Zn669 1.986 . S
O672 C679 1.262 . S
O673 Zn668 2.049 . S
O673 C681 1.260 . S
O674 Zn669 1.996 1_556 S
O674 C681 1.257 . S
C675 O670 1.254 . S
C675 O671 1.269 1_554 S
C676 O677 1.249 1_556 S
C676 O678 1.270 . S
O677 Zn669 1.943 . S
O677 C676 1.249 1_554 S
O678 Zn668 2.067 . S
O678 C676 1.270 . S
C679 O672 1.262 . S
C679 O680 1.232 . S
O680 C679 1.232 . S
C681 O673 1.260 . S
C681 O674 1.257 . S
Zn682 O685 2.027 1_565 S
Zn682 O687 2.052 . S
Zn682 O692 2.072 . S
Zn683 O684 1.962 . S
Zn683 O686 1.986 . S
Zn683 O688 1.996 . S
Zn683 O691 1.943 1_545 S
O684 Zn683 1.962 . S
O684 C689 1.254 . S
O685 Zn682 2.027 1_545 S
O685 C689 1.269 . S
O686 Zn683 1.986 . S
O686 C693 1.262 . S
O687 Zn682 2.052 . S
O687 C695 1.260 . S
O688 Zn683 1.996 . S
O688 C695 1.257 1_545 S
C689 O684 1.254 . S
C689 O685 1.269 . S
C690 O691 1.249 . S
C690 O692 1.270 . S
O691 Zn683 1.943 1_565 S
O691 C690 1.249 . S
O692 Zn682 2.072 . S
O692 C690 1.270 . S
C693 O686 1.262 . S
C693 O694 1.232 . S
O694 C693 1.232 . S
C695 O687 1.260 . S
C695 O688 1.257 1_565 S
Zn696 O699 2.031 . S
Zn696 O701 2.049 . S
Zn696 O706 2.067 . S
Zn697 O698 1.962 . S
Zn697 O700 1.986 . S
Zn697 O702 1.996 . S
Zn697 O705 1.943 . S
O698 Zn697 1.962 . S
O698 C703 1.254 . S
O699 Zn696 2.031 . S
O699 C703 1.269 . S
O700 Zn697 1.986 . S
O700 C707 1.262 . S
O701 Zn696 2.049 . S
O701 C709 1.260 . S
O702 Zn697 1.996 . S
O702 C709 1.257 . S
C703 O698 1.254 . S
C703 O699 1.269 . S
C704 O705 1.249 . S
C704 O706 1.270 . S
O705 Zn697 1.943 . S
O705 C704 1.249 . S
O706 Zn696 2.067 . S
O706 C704 1.270 . S
C707 O700 1.262 . S
C707 O708 1.232 . S
O708 C707 1.232 . S
C709 O701 1.260 . S
C709 O702 1.257 . S
Zn710 O713 2.031 . S
Zn710 O715 2.049 . S
Zn710 O720 2.067 . S
Zn711 O712 1.962 . S
Zn711 O714 1.986 . S
Zn711 O716 1.996 . S
Zn711 O719 1.943 . S
O712 Zn711 1.962 . S
O712 C717 1.254 . S
O713 Zn710 2.031 . S
O713 C717 1.269 . S
O714 Zn711 1.986 . S
O714 C721 1.262 . S
O715 Zn710 2.049 . S
O715 C723 1.260 . S
O716 Zn711 1.996 . S
O716 C723 1.257 . S
C717 O712 1.254 . S
C717 O713 1.269 . S
C718 O719 1.249 . S
C718 O720 1.270 . S
O719 Zn711 1.943 . S
O719 C718 1.249 . S
O720 Zn710 2.067 . S
O720 C718 1.270 . S
C721 O714 1.262 . S
C721 O722 1.232 . S
O722 C721 1.232 . S
C723 O715 1.260 . S
C723 O716 1.257 . S
Zn724 O727 2.031 . S
Zn724 O729 2.049 . S
Zn724 O734 2.067 . S
Zn725 O726 1.962 . S
Zn725 O728 1.986 . S
Zn725 O730 1.996 . S
Zn725 O733 1.943 . S
O726 Zn725 1.962 . S
O726 C731 1.254 . S
O727 Zn724 2.031 . S
O727 C731 1.269 . S
O728 Zn725 1.986 . S
O728 C735 1.262 . S
O729 Zn724 2.049 . S
O729 C737 1.260 . S
O730 Zn725 1.996 . S
O730 C737 1.257 . S
C731 O726 1.254 . S
C731 O727 1.269 . S
C732 O733 1.249 . S
C732 O734 1.270 . S
O733 Zn725 1.943 . S
O733 C732 1.249 . S
O734 Zn724 2.067 . S
O734 C732 1.270 . S
C735 O728 1.262 . S
C735 O736 1.232 . S
O736 C735 1.232 . S
C737 O729 1.260 . S
C737 O730 1.257 . S
Zn738 O741 2.031 . S
Zn738 O743 2.049 . S
Zn738 O748 2.067 . S
Zn739 O740 1.962 . S
Zn739 O742 1.986 . S
Zn739 O744 1.996 1_545 S
Zn739 O747 1.943 . S
O740 Zn739 1.962 . S
O740 C745 1.254 . S
O741 Zn738 2.031 . S
O741 C745 1.269 1_565 S
O742 Zn739 1.986 . S
O742 C749 1.262 . S
O743 Zn738 2.049 . S
O743 C751 1.260 . S
O744 Zn739 1.996 1_565 S
O744 C751 1.257 . S
C745 O740 1.254 . S
C745 O741 1.269 1_545 S
C746 O747 1.249 1_565 S
C746 O748 1.270 . S
O747 Zn739 1.943 . S
O747 C746 1.249 1_545 S
O748 Zn738 2.067 . S
O748 C746 1.270 . S
C749 O742 1.262 . S
C749 O750 1.232 . S
O750 C749 1.232 . S
C751 O743 1.260 . S
C751 O744 1.257 . S
Zn752 O755 2.051 . S
Zn752 O757 2.035 1_455 S
Zn752 O762 2.040 1_455 S
Zn753 O754 1.962 . S
Zn753 O756 1.986 . S
Zn753 O758 1.996 . S
Zn753 O761 1.943 1_455 S
O754 Zn753 1.962 . S
O754 C759 1.254 . S
O755 Zn752 2.051 . S
O755 C759 1.269 . S
O756 Zn753 1.986 . S
O756 C763 1.262 . S
O757 Zn752 2.035 1_655 S
O757 C765 1.260 . S
O758 Zn753 1.996 . S
O758 C765 1.257 1_455 S
C759 O754 1.254 . S
C759 O755 1.269 . S
C760 O761 1.249 . S
C760 O762 1.270 . S
O761 Zn753 1.943 1_655 S
O761 C760 1.249 . S
O762 Zn752 2.040 1_655 S
O762 C760 1.270 . S
C763 O756 1.262 . S
C763 O764 1.232 . S
O764 C763 1.232 . S
C765 O757 1.260 . S
C765 O758 1.257 1_655 S
Zn766 O769 2.031 . S
Zn766 O771 2.049 . S
Zn766 O776 2.067 . S
Zn767 O768 1.962 . S
Zn767 O770 1.986 . S
Zn767 O772 1.996 . S
Zn767 O775 1.943 . S
O768 Zn767 1.962 . S
O768 C773 1.254 . S
O769 Zn766 2.031 . S
O769 C773 1.269 . S
O770 Zn767 1.986 . S
O770 C777 1.262 . S
O771 Zn766 2.049 . S
O771 C779 1.260 . S
O772 Zn767 1.996 . S
O772 C779 1.257 . S
C773 O768 1.254 . S
C773 O769 1.269 . S
C774 O775 1.249 . S
C774 O776 1.270 . S
O775 Zn767 1.943 . S
O775 C774 1.249 . S
O776 Zn766 2.067 . S
O776 C774 1.270 . S
C777 O770 1.262 . S
C777 O778 1.232 . S
O778 C777 1.232 . S
C779 O771 1.260 . S
C779 O772 1.257 . S
Zn780 O783 2.031 . S
Zn780 O785 2.049 . S
Zn780 O790 2.067 . S
Zn781 O782 1.962 . S
Zn781 O784 1.986 . S
Zn781 O786 1.996 1_455 S
Zn781 O789 1.943 . S
O782 Zn781 1.962 . S
O782 C787 1.254 . S
O783 Zn780 2.031 . S
O783 C787 1.269 1_655 S
O784 Zn781 1.986 . S
O784 C791 1.262 . S
O785 Zn780 2.049 . S
O785 C793 1.260 . S
O786 Zn781 1.996 1_655 S
O786 C793 1.257 . S
C787 O782 1.254 . S
C787 O783 1.269 1_455 S
C788 O789 1.249 1_655 S
C788 O790 1.270 . S
O789 Zn781 1.943 . S
O789 C788 1.249 1_455 S
O790 Zn780 2.067 . S
O790 C788 1.270 . S
C791 O784 1.262 . S
C791 O792 1.232 . S
O792 C791 1.232 . S
C793 O785 1.260 . S
C793 O786 1.257 . S
Zn794 O797 2.031 . S
Zn794 O799 2.049 . S
Zn794 O804 2.067 . S
Zn795 O796 1.962 . S
Zn795 O798 1.986 . S
Zn795 O800 1.996 . S
Zn795 O803 1.943 . S
O796 Zn795 1.962 . S
O796 C801 1.254 . S
O797 Zn794 2.031 . S
O797 C801 1.269 . S
O798 Zn795 1.986 . S
O798 C805 1.262 . S
O799 Zn794 2.049 . S
O799 C807 1.260 . S
O800 Zn795 1.996 . S
O800 C807 1.257 . S
C801 O796 1.254 . S
C801 O797 1.269 . S
C802 O803 1.249 . S
C802 O804 1.270 . S
O803 Zn795 1.943 . S
O803 C802 1.249 . S
O804 Zn794 2.067 . S
O804 C802 1.270 . S
C805 O798 1.262 . S
C805 O806 1.232 . S
O806 C805 1.232 . S
C807 O799 1.260 . S
C807 O800 1.257 . S
H808 C820 0.930 . S
H809 C822 0.930 . S
H810 C823 0.930 . S
H811 C827 0.959 . S
H812 C827 0.959 . S
H813 C827 0.961 . S
H814 C828 0.960 . S
H815 C828 0.961 . S
H816 C828 0.959 . S
H817 C831 0.929 . S
H818 C832 0.931 . S
H819 C834 0.930 . S
C820 H808 0.930 . S
C820 C821 1.399 . S
C820 C825 1.399 . S
C821 C820 1.399 . S
C821 C822 1.376 . S
C822 H809 0.930 . S
C822 C821 1.376 . S
C822 C823 1.388 . S
C823 H810 0.930 . S
C823 C822 1.388 . S
C823 C824 1.390 . S
C824 C823 1.390 . S
C824 C825 1.394 . S
C824 C830 1.465 . S
C825 C820 1.399 . S
C825 C824 1.394 . S
C825 C826 1.516 . S
C826 C825 1.516 . S
C826 C827 1.502 . S
C826 C828 1.561 . S
C826 C829 1.526 . S
C827 H811 0.959 . S
C827 H812 0.959 . S
C827 H813 0.961 . S
C827 C826 1.502 . S
C828 H814 0.960 . S
C828 H815 0.961 . S
C828 H816 0.959 . S
C828 C826 1.561 . S
C829 C826 1.526 . S
C829 C830 1.396 . S
C829 C834 1.390 . S
C830 C824 1.465 . S
C830 C829 1.396 . S
C830 C831 1.399 . S
C831 H817 0.929 . S
C831 C830 1.399 . S
C831 C832 1.385 . S
C832 H818 0.931 . S
C832 C831 1.385 . S
C832 C833 1.389 . S
C833 C832 1.389 . S
C833 C834 1.387 . S
C834 H819 0.930 . S
C834 C829 1.390 . S
C834 C833 1.387 . S
H835 C847 0.930 . S
H836 C849 0.930 . S
H837 C850 0.930 . S
H838 C854 0.959 . S
H839 C854 0.959 . S
H840 C854 0.961 . S
H841 C855 0.960 . S
H842 C855 0.961 . S
H843 C855 0.959 . S
H844 C858 0.929 . S
H845 C859 0.931 . S
H846 C861 0.930 . S
C847 H835 0.930 . S
C847 C848 1.399 . S
C847 C852 1.399 . S
C848 C847 1.399 . S
C848 C849 1.376 . S
C849 H836 0.930 . S
C849 C848 1.376 . S
C849 C850 1.388 . S
C850 H837 0.930 . S
C850 C849 1.388 . S
C850 C851 1.390 . S
C851 C850 1.390 . S
C851 C852 1.394 . S
C851 C857 1.465 . S
C852 C847 1.399 . S
C852 C851 1.394 . S
C852 C853 1.516 . S
C853 C852 1.516 . S
C853 C854 1.502 . S
C853 C855 1.561 . S
C853 C856 1.526 . S
C854 H838 0.959 . S
C854 H839 0.959 . S
C854 H840 0.961 . S
C854 C853 1.502 . S
C855 H841 0.960 . S
C855 H842 0.961 . S
C855 H843 0.959 . S
C855 C853 1.561 . S
C856 C853 1.526 . S
C856 C857 1.396 . S
C856 C861 1.390 . S
C857 C851 1.465 . S
C857 C856 1.396 . S
C857 C858 1.399 . S
C858 H844 0.929 . S
C858 C857 1.399 . S
C858 C859 1.385 . S
C859 H845 0.931 . S
C859 C858 1.385 . S
C859 C860 1.389 . S
C860 C859 1.389 . S
C860 C861 1.387 . S
C861 H846 0.930 . S
C861 C856 1.390 . S
C861 C860 1.387 . S
H862 C874 0.930 . S
H863 C876 0.930 . S
H864 C877 0.930 . S
H865 C881 0.959 . S
H866 C881 0.959 . S
H867 C881 0.961 . S
H868 C882 0.960 . S
H869 C882 0.961 . S
H870 C882 0.959 . S
H871 C885 0.929 . S
H872 C886 0.931 . S
H873 C888 0.930 . S
C874 H862 0.930 . S
C874 C875 1.399 . S
C874 C879 1.399 . S
C875 C874 1.399 . S
C875 C876 1.376 . S
C876 H863 0.930 . S
C876 C875 1.376 . S
C876 C877 1.388 . S
C877 H864 0.930 . S
C877 C876 1.388 . S
C877 C878 1.390 . S
C878 C877 1.390 . S
C878 C879 1.394 . S
C878 C884 1.465 . S
C879 C874 1.399 . S
C879 C878 1.394 . S
C879 C880 1.516 . S
C880 C879 1.516 . S
C880 C881 1.502 . S
C880 C882 1.561 . S
C880 C883 1.526 . S
C881 H865 0.959 . S
C881 H866 0.959 . S
C881 H867 0.961 . S
C881 C880 1.502 . S
C882 H868 0.960 . S
C882 H869 0.961 . S
C882 H870 0.959 . S
C882 C880 1.561 . S
C883 C880 1.526 . S
C883 C884 1.396 . S
C883 C888 1.390 . S
C884 C878 1.465 . S
C884 C883 1.396 . S
C884 C885 1.399 . S
C885 H871 0.929 . S
C885 C884 1.399 . S
C885 C886 1.385 . S
C886 H872 0.931 . S
C886 C885 1.385 . S
C886 C887 1.389 . S
C887 C886 1.389 . S
C887 C888 1.387 . S
C888 H873 0.930 . S
C888 C883 1.390 . S
C888 C887 1.387 . S
H889 C901 0.930 . S
H890 C903 0.930 . S
H891 C904 0.930 1_545 S
H892 C908 0.959 . S
H893 C908 0.959 . S
H894 C908 0.961 . S
H895 C909 0.960 . S
H896 C909 0.961 . S
H897 C909 0.959 . S
H898 C912 0.929 . S
H899 C913 0.931 . S
H900 C915 0.930 . S
C901 H889 0.930 . S
C901 C902 1.399 . S
C901 C906 1.399 . S
C902 C901 1.399 . S
C902 C903 1.376 . S
C903 H890 0.930 . S
C903 C902 1.376 . S
C903 C904 1.388 . S
C904 H891 0.930 1_565 S
C904 C903 1.388 . S
C904 C905 1.390 . S
C905 C904 1.390 . S
C905 C906 1.394 . S
C905 C911 1.465 . S
C906 C901 1.399 . S
C906 C905 1.394 . S
C906 C907 1.516 . S
C907 C906 1.516 . S
C907 C908 1.502 . S
C907 C909 1.561 . S
C907 C910 1.526 . S
C908 H892 0.959 . S
C908 H893 0.959 . S
C908 H894 0.961 . S
C908 C907 1.502 . S
C909 H895 0.960 . S
C909 H896 0.961 . S
C909 H897 0.959 . S
C909 C907 1.561 . S
C910 C907 1.526 . S
C910 C911 1.396 . S
C910 C915 1.390 . S
C911 C905 1.465 . S
C911 C910 1.396 . S
C911 C912 1.399 1_565 S
C912 H898 0.929 . S
C912 C911 1.399 1_545 S
C912 C913 1.385 . S
C913 H899 0.931 . S
C913 C912 1.385 . S
C913 C914 1.389 1_545 S
C914 C913 1.389 1_565 S
C914 C915 1.387 . S
C915 H900 0.930 . S
C915 C910 1.390 . S
C915 C914 1.387 . S
H916 C928 0.930 . S
H917 C930 0.930 . S
H918 C931 0.930 . S
H919 C935 0.959 . S
H920 C935 0.959 . S
H921 C935 0.961 . S
H922 C936 0.960 . S
H923 C936 0.961 . S
H924 C936 0.959 . S
H925 C939 0.929 . S
H926 C940 0.931 . S
H927 C942 0.930 . S
C928 H916 0.930 . S
C928 C929 1.399 . S
C928 C933 1.399 . S
C929 C928 1.399 . S
C929 C930 1.376 . S
C930 H917 0.930 . S
C930 C929 1.376 . S
C930 C931 1.388 . S
C931 H918 0.930 . S
C931 C930 1.388 . S
C931 C932 1.390 . S
C932 C931 1.390 . S
C932 C933 1.394 . S
C932 C938 1.465 . S
C933 C928 1.399 . S
C933 C932 1.394 . S
C933 C934 1.516 . S
C934 C933 1.516 . S
C934 C935 1.502 . S
C934 C936 1.561 . S
C934 C937 1.526 . S
C935 H919 0.959 . S
C935 H920 0.959 . S
C935 H921 0.961 . S
C935 C934 1.502 . S
C936 H922 0.960 . S
C936 H923 0.961 . S
C936 H924 0.959 . S
C936 C934 1.561 . S
C937 C934 1.526 . S
C937 C938 1.396 . S
C937 C942 1.390 . S
C938 C932 1.465 . S
C938 C937 1.396 . S
C938 C939 1.399 . S
C939 H925 0.929 . S
C939 C938 1.399 . S
C939 C940 1.385 . S
C940 H926 0.931 . S
C940 C939 1.385 . S
C940 C941 1.389 . S
C941 C940 1.389 . S
C941 C942 1.387 . S
C942 H927 0.930 . S
C942 C937 1.390 . S
C942 C941 1.387 . S
H943 C955 0.930 . S
H944 C957 0.930 . S
H945 C958 0.930 . S
H946 C962 0.959 . S
H947 C962 0.959 . S
H948 C962 0.961 . S
H949 C963 0.960 . S
H950 C963 0.961 . S
H951 C963 0.959 . S
H952 C966 0.929 . S
H953 C967 0.931 . S
H954 C969 0.930 . S
C955 H943 0.930 . S
C955 C956 1.399 . S
C955 C960 1.399 . S
C956 C955 1.399 . S
C956 C957 1.376 . S
C957 H944 0.930 . S
C957 C956 1.376 . S
C957 C958 1.388 . S
C958 H945 0.930 . S
C958 C957 1.388 . S
C958 C959 1.390 . S
C959 C958 1.390 . S
C959 C960 1.394 . S
C959 C965 1.465 . S
C960 C955 1.399 . S
C960 C959 1.394 . S
C960 C961 1.516 . S
C961 C960 1.516 . S
C961 C962 1.502 . S
C961 C963 1.561 . S
C961 C964 1.526 . S
C962 H946 0.959 . S
C962 H947 0.959 . S
C962 H948 0.961 . S
C962 C961 1.502 . S
C963 H949 0.960 . S
C963 H950 0.961 . S
C963 H951 0.959 . S
C963 C961 1.561 . S
C964 C961 1.526 . S
C964 C965 1.396 . S
C964 C969 1.390 . S
C965 C959 1.465 . S
C965 C964 1.396 . S
C965 C966 1.399 . S
C966 H952 0.929 . S
C966 C965 1.399 . S
C966 C967 1.385 . S
C967 H953 0.931 . S
C967 C966 1.385 . S
C967 C968 1.389 . S
C968 C967 1.389 . S
C968 C969 1.387 . S
C969 H954 0.930 . S
C969 C964 1.390 . S
C969 C968 1.387 . S
H970 C982 0.930 . S
H971 C984 0.930 . S
H972 C985 0.930 . S
H973 C989 0.959 . S
H974 C989 0.959 . S
H975 C989 0.961 . S
H976 C990 0.960 . S
H977 C990 0.961 . S
H978 C990 0.959 . S
H979 C993 0.929 . S
H980 C994 0.931 . S
H981 C996 0.930 . S
C982 H970 0.930 . S
C982 C983 1.399 . S
C982 C987 1.399 . S
C983 C982 1.399 . S
C983 C984 1.376 . S
C984 H971 0.930 . S
C984 C983 1.376 . S
C984 C985 1.388 . S
C985 H972 0.930 . S
C985 C984 1.388 . S
C985 C986 1.390 . S
C986 C985 1.390 . S
C986 C987 1.394 . S
C986 C992 1.465 . S
C987 C982 1.399 . S
C987 C986 1.394 . S
C987 C988 1.516 . S
C988 C987 1.516 . S
C988 C989 1.502 . S
C988 C990 1.561 . S
C988 C991 1.526 . S
C989 H973 0.959 . S
C989 H974 0.959 . S
C989 H975 0.961 . S
C989 C988 1.502 . S
C990 H976 0.960 . S
C990 H977 0.961 . S
C990 H978 0.959 . S
C990 C988 1.561 . S
C991 C988 1.526 . S
C991 C992 1.396 . S
C991 C996 1.390 . S
C992 C986 1.465 . S
C992 C991 1.396 . S
C992 C993 1.399 . S
C993 H979 0.929 . S
C993 C992 1.399 . S
C993 C994 1.385 . S
C994 H980 0.931 . S
C994 C993 1.385 . S
C994 C995 1.389 . S
C995 C994 1.389 . S
C995 C996 1.387 . S
C996 H981 0.930 . S
C996 C991 1.390 . S
C996 C995 1.387 . S
H997 C1009 0.930 1_545 S
H998 C1011 0.930 . S
H999 C1012 0.930 . S
H1000 C1016 0.959 . S
H1001 C1016 0.959 . S
H1002 C1016 0.961 . S
H1003 C1017 0.960 . S
H1004 C1017 0.961 . S
H1005 C1017 0.959 . S
H1006 C1020 0.929 . S
H1007 C1021 0.931 . S
H1008 C1023 0.930 . S
C1009 H997 0.930 1_565 S
C1009 C1010 1.399 . S
C1009 C1014 1.399 . S
C1010 C1009 1.399 . S
C1010 C1011 1.376 . S
C1011 H998 0.930 . S
C1011 C1010 1.376 . S
C1011 C1012 1.388 . S
C1012 H999 0.930 . S
C1012 C1011 1.388 . S
C1012 C1013 1.390 . S
C1013 C1012 1.390 . S
C1013 C1014 1.394 . S
C1013 C1019 1.465 . S
C1014 C1009 1.399 . S
C1014 C1013 1.394 . S
C1014 C1015 1.516 1_565 S
C1015 C1014 1.516 1_545 S
C1015 C1016 1.502 . S
C1015 C1017 1.561 . S
C1015 C1018 1.526 1_545 S
C1016 H1000 0.959 . S
C1016 H1001 0.959 . S
C1016 H1002 0.961 . S
C1016 C1015 1.502 . S
C1017 H1003 0.960 . S
C1017 H1004 0.961 . S
C1017 H1005 0.959 . S
C1017 C1015 1.561 . S
C1018 C1015 1.526 1_565 S
C1018 C1019 1.396 . S
C1018 C1023 1.390 1_565 S
C1019 C1013 1.465 . S
C1019 C1018 1.396 . S
C1019 C1020 1.399 . S
C1020 H1006 0.929 . S
C1020 C1019 1.399 . S
C1020 C1021 1.385 . S
C1021 H1007 0.931 . S
C1021 C1020 1.385 . S
C1021 C1022 1.389 . S
C1022 C1021 1.389 . S
C1022 C1023 1.387 1_565 S
C1023 H1008 0.930 . S
C1023 C1018 1.390 1_545 S
C1023 C1022 1.387 1_545 S
H1024 C1036 0.930 . S
H1025 C1038 0.930 . S
H1026 C1039 0.930 . S
H1027 C1043 0.959 . S
H1028 C1043 0.959 . S
H1029 C1043 0.961 . S
H1030 C1044 0.960 . S
H1031 C1044 0.961 . S
H1032 C1044 0.959 . S
H1033 C1047 0.929 . S
H1034 C1048 0.931 . S
H1035 C1050 0.930 . S
C1036 H1024 0.930 . S
C1036 C1037 1.399 . S
C1036 C1041 1.399 . S
C1037 C1036 1.399 . S
C1037 C1038 1.376 . S
C1038 H1025 0.930 . S
C1038 C1037 1.376 . S
C1038 C1039 1.388 . S
C1039 H1026 0.930 . S
C1039 C1038 1.388 . S
C1039 C1040 1.390 . S
C1040 C1039 1.390 . S
C1040 C1041 1.394 . S
C1040 C1046 1.465 . S
C1041 C1036 1.399 . S
C1041 C1040 1.394 . S
C1041 C1042 1.516 . S
C1042 C1041 1.516 . S
C1042 C1043 1.502 . S
C1042 C1044 1.561 . S
C1042 C1045 1.526 . S
C1043 H1027 0.959 . S
C1043 H1028 0.959 . S
C1043 H1029 0.961 . S
C1043 C1042 1.502 . S
C1044 H1030 0.960 . S
C1044 H1031 0.961 . S
C1044 H1032 0.959 . S
C1044 C1042 1.561 . S
C1045 C1042 1.526 . S
C1045 C1046 1.396 . S
C1045 C1050 1.390 . S
C1046 C1040 1.465 . S
C1046 C1045 1.396 . S
C1046 C1047 1.399 . S
C1047 H1033 0.929 . S
C1047 C1046 1.399 . S
C1047 C1048 1.385 . S
C1048 H1034 0.931 . S
C1048 C1047 1.385 . S
C1048 C1049 1.389 . S
C1049 C1048 1.389 . S
C1049 C1050 1.387 . S
C1050 H1035 0.930 . S
C1050 C1045 1.390 . S
C1050 C1049 1.387 . S
H1051 C1063 0.930 . S
H1052 C1065 0.930 . S
H1053 C1066 0.930 . S
H1054 C1070 0.959 . S
H1055 C1070 0.959 . S
H1056 C1070 0.961 . S
H1057 C1071 0.960 . S
H1058 C1071 0.961 . S
H1059 C1071 0.959 . S
H1060 C1074 0.929 . S
H1061 C1075 0.931 . S
H1062 C1077 0.930 . S
C1063 H1051 0.930 . S
C1063 C1064 1.399 . S
C1063 C1068 1.399 . S
C1064 C1063 1.399 . S
C1064 C1065 1.376 . S
C1065 H1052 0.930 . S
C1065 C1064 1.376 . S
C1065 C1066 1.388 . S
C1066 H1053 0.930 . S
C1066 C1065 1.388 . S
C1066 C1067 1.390 . S
C1067 C1066 1.390 . S
C1067 C1068 1.394 . S
C1067 C1073 1.465 . S
C1068 C1063 1.399 . S
C1068 C1067 1.394 . S
C1068 C1069 1.516 . S
C1069 C1068 1.516 . S
C1069 C1070 1.502 . S
C1069 C1071 1.561 . S
C1069 C1072 1.526 . S
C1070 H1054 0.959 . S
C1070 H1055 0.959 . S
C1070 H1056 0.961 . S
C1070 C1069 1.502 . S
C1071 H1057 0.960 . S
C1071 H1058 0.961 . S
C1071 H1059 0.959 . S
C1071 C1069 1.561 . S
C1072 C1069 1.526 . S
C1072 C1073 1.396 . S
C1072 C1077 1.390 . S
C1073 C1067 1.465 . S
C1073 C1072 1.396 . S
C1073 C1074 1.399 . S
C1074 H1060 0.929 . S
C1074 C1073 1.399 . S
C1074 C1075 1.385 . S
C1075 H1061 0.931 . S
C1075 C1074 1.385 . S
C1075 C1076 1.389 . S
C1076 C1075 1.389 . S
C1076 C1077 1.387 . S
C1077 H1062 0.930 . S
C1077 C1072 1.390 . S
C1077 C1076 1.387 . S
H1078 C1090 0.930 . S
H1079 C1092 0.930 . S
H1080 C1093 0.930 . S
H1081 C1097 0.959 . S
H1082 C1097 0.959 . S
H1083 C1097 0.961 . S
H1084 C1098 0.960 . S
H1085 C1098 0.961 . S
H1086 C1098 0.959 . S
H1087 C1101 0.929 . S
H1088 C1102 0.931 . S
H1089 C1104 0.930 . S
C1090 H1078 0.930 . S
C1090 C1091 1.399 . S
C1090 C1095 1.399 . S
C1091 C1090 1.399 . S
C1091 C1092 1.376 . S
C1092 H1079 0.930 . S
C1092 C1091 1.376 . S
C1092 C1093 1.388 . S
C1093 H1080 0.930 . S
C1093 C1092 1.388 . S
C1093 C1094 1.390 . S
C1094 C1093 1.390 . S
C1094 C1095 1.394 . S
C1094 C1100 1.465 . S
C1095 C1090 1.399 . S
C1095 C1094 1.394 . S
C1095 C1096 1.516 . S
C1096 C1095 1.516 . S
C1096 C1097 1.502 . S
C1096 C1098 1.561 . S
C1096 C1099 1.526 . S
C1097 H1081 0.959 . S
C1097 H1082 0.959 . S
C1097 H1083 0.961 . S
C1097 C1096 1.502 . S
C1098 H1084 0.960 . S
C1098 H1085 0.961 . S
C1098 H1086 0.959 . S
C1098 C1096 1.561 . S
C1099 C1096 1.526 . S
C1099 C1100 1.396 . S
C1099 C1104 1.390 . S
C1100 C1094 1.465 . S
C1100 C1099 1.396 . S
C1100 C1101 1.399 . S
C1101 H1087 0.929 . S
C1101 C1100 1.399 . S
C1101 C1102 1.385 . S
C1102 H1088 0.931 . S
C1102 C1101 1.385 . S
C1102 C1103 1.389 . S
C1103 C1102 1.389 . S
C1103 C1104 1.387 . S
C1104 H1089 0.930 . S
C1104 C1099 1.390 . S
C1104 C1103 1.387 . S
H1105 C1117 0.930 . S
H1106 C1119 0.930 . S
H1107 C1120 0.930 . S
H1108 C1124 0.959 . S
H1109 C1124 0.959 . S
H1110 C1124 0.961 . S
H1111 C1125 0.960 . S
H1112 C1125 0.961 . S
H1113 C1125 0.959 . S
H1114 C1128 0.929 . S
H1115 C1129 0.931 . S
H1116 C1131 0.930 . S
C1117 H1105 0.930 . S
C1117 C1118 1.399 . S
C1117 C1122 1.399 . S
C1118 C1117 1.399 . S
C1118 C1119 1.376 . S
C1119 H1106 0.930 . S
C1119 C1118 1.376 . S
C1119 C1120 1.388 . S
C1120 H1107 0.930 . S
C1120 C1119 1.388 . S
C1120 C1121 1.390 . S
C1121 C1120 1.390 . S
C1121 C1122 1.394 . S
C1121 C1127 1.465 . S
C1122 C1117 1.399 . S
C1122 C1121 1.394 . S
C1122 C1123 1.516 . S
C1123 C1122 1.516 . S
C1123 C1124 1.502 . S
C1123 C1125 1.561 . S
C1123 C1126 1.526 . S
C1124 H1108 0.959 . S
C1124 H1109 0.959 . S
C1124 H1110 0.961 . S
C1124 C1123 1.502 . S
C1125 H1111 0.960 . S
C1125 H1112 0.961 . S
C1125 H1113 0.959 . S
C1125 C1123 1.561 . S
C1126 C1123 1.526 . S
C1126 C1127 1.396 . S
C1126 C1131 1.390 . S
C1127 C1121 1.465 . S
C1127 C1126 1.396 . S
C1127 C1128 1.399 . S
C1128 H1114 0.929 . S
C1128 C1127 1.399 . S
C1128 C1129 1.385 . S
C1129 H1115 0.931 . S
C1129 C1128 1.385 . S
C1129 C1130 1.389 . S
C1130 C1129 1.389 . S
C1130 C1131 1.387 . S
C1131 H1116 0.930 . S
C1131 C1126 1.390 . S
C1131 C1130 1.387 . S
H1132 C1144 0.930 . S
H1133 C1146 0.930 . S
H1134 C1147 0.930 . S
H1135 C1151 0.959 . S
H1136 C1151 0.959 . S
H1137 C1151 0.961 . S
H1138 C1152 0.960 . S
H1139 C1152 0.961 . S
H1140 C1152 0.959 . S
H1141 C1155 0.929 . S
H1142 C1156 0.931 . S
H1143 C1158 0.930 . S
C1144 H1132 0.930 . S
C1144 C1145 1.399 . S
C1144 C1149 1.399 . S
C1145 C1144 1.399 . S
C1145 C1146 1.376 . S
C1146 H1133 0.930 . S
C1146 C1145 1.376 . S
C1146 C1147 1.388 . S
C1147 H1134 0.930 . S
C1147 C1146 1.388 . S
C1147 C1148 1.390 . S
C1148 C1147 1.390 . S
C1148 C1149 1.394 . S
C1148 C1154 1.465 . S
C1149 C1144 1.399 . S
C1149 C1148 1.394 . S
C1149 C1150 1.516 . S
C1150 C1149 1.516 . S
C1150 C1151 1.502 . S
C1150 C1152 1.561 . S
C1150 C1153 1.526 . S
C1151 H1135 0.959 . S
C1151 H1136 0.959 . S
C1151 H1137 0.961 . S
C1151 C1150 1.502 . S
C1152 H1138 0.960 . S
C1152 H1139 0.961 . S
C1152 H1140 0.959 . S
C1152 C1150 1.561 . S
C1153 C1150 1.526 . S
C1153 C1154 1.396 . S
C1153 C1158 1.390 . S
C1154 C1148 1.465 . S
C1154 C1153 1.396 . S
C1154 C1155 1.399 . S
C1155 H1141 0.929 . S
C1155 C1154 1.399 . S
C1155 C1156 1.385 . S
C1156 H1142 0.931 . S
C1156 C1155 1.385 . S
C1156 C1157 1.389 . S
C1157 C1156 1.389 . S
C1157 C1158 1.387 . S
C1158 H1143 0.930 . S
C1158 C1153 1.390 . S
C1158 C1157 1.387 . S
H1159 C1171 0.930 . S
H1160 C1173 0.930 . S
H1161 C1174 0.930 1_655 S
H1162 C1178 0.959 . S
H1163 C1178 0.959 . S
H1164 C1178 0.961 . S
H1165 C1179 0.960 . S
H1166 C1179 0.961 . S
H1167 C1179 0.959 . S
H1168 C1182 0.929 . S
H1169 C1183 0.931 . S
H1170 C1185 0.930 . S
C1171 H1159 0.930 . S
C1171 C1172 1.399 . S
C1171 C1176 1.399 . S
C1172 C1171 1.399 . S
C1172 C1173 1.376 . S
C1173 H1160 0.930 . S
C1173 C1172 1.376 . S
C1173 C1174 1.388 . S
C1174 H1161 0.930 1_455 S
C1174 C1173 1.388 . S
C1174 C1175 1.390 . S
C1175 C1174 1.390 . S
C1175 C1176 1.394 . S
C1175 C1181 1.465 . S
C1176 C1171 1.399 . S
C1176 C1175 1.394 . S
C1176 C1177 1.516 . S
C1177 C1176 1.516 . S
C1177 C1178 1.502 . S
C1177 C1179 1.561 . S
C1177 C1180 1.526 . S
C1178 H1162 0.959 . S
C1178 H1163 0.959 . S
C1178 H1164 0.961 . S
C1178 C1177 1.502 . S
C1179 H1165 0.960 . S
C1179 H1166 0.961 . S
C1179 H1167 0.959 . S
C1179 C1177 1.561 . S
C1180 C1177 1.526 . S
C1180 C1181 1.396 . S
C1180 C1185 1.390 . S
C1181 C1175 1.465 . S
C1181 C1180 1.396 . S
C1181 C1182 1.399 1_455 S
C1182 H1168 0.929 . S
C1182 C1181 1.399 1_655 S
C1182 C1183 1.385 . S
C1183 H1169 0.931 . S
C1183 C1182 1.385 . S
C1183 C1184 1.389 1_655 S
C1184 C1183 1.389 1_455 S
C1184 C1185 1.387 . S
C1185 H1170 0.930 . S
C1185 C1180 1.390 . S
C1185 C1184 1.387 . S
H1186 C1198 0.930 . S
H1187 C1200 0.930 . S
H1188 C1201 0.930 . S
H1189 C1205 0.959 . S
H1190 C1205 0.959 . S
H1191 C1205 0.961 . S
H1192 C1206 0.960 . S
H1193 C1206 0.961 . S
H1194 C1206 0.959 . S
H1195 C1209 0.929 . S
H1196 C1210 0.931 . S
H1197 C1212 0.930 . S
C1198 H1186 0.930 . S
C1198 C1199 1.399 . S
C1198 C1203 1.399 . S
C1199 C1198 1.399 . S
C1199 C1200 1.376 . S
C1200 H1187 0.930 . S
C1200 C1199 1.376 . S
C1200 C1201 1.388 . S
C1201 H1188 0.930 . S
C1201 C1200 1.388 . S
C1201 C1202 1.390 . S
C1202 C1201 1.390 . S
C1202 C1203 1.394 . S
C1202 C1208 1.465 . S
C1203 C1198 1.399 . S
C1203 C1202 1.394 . S
C1203 C1204 1.516 . S
C1204 C1203 1.516 . S
C1204 C1205 1.502 . S
C1204 C1206 1.561 . S
C1204 C1207 1.526 . S
C1205 H1189 0.959 . S
C1205 H1190 0.959 . S
C1205 H1191 0.961 . S
C1205 C1204 1.502 . S
C1206 H1192 0.960 . S
C1206 H1193 0.961 . S
C1206 H1194 0.959 . S
C1206 C1204 1.561 . S
C1207 C1204 1.526 . S
C1207 C1208 1.396 . S
C1207 C1212 1.390 . S
C1208 C1202 1.465 . S
C1208 C1207 1.396 . S
C1208 C1209 1.399 . S
C1209 H1195 0.929 . S
C1209 C1208 1.399 . S
C1209 C1210 1.385 . S
C1210 H1196 0.931 . S
C1210 C1209 1.385 . S
C1210 C1211 1.389 . S
C1211 C1210 1.389 . S
C1211 C1212 1.387 . S
C1212 H1197 0.930 . S
C1212 C1207 1.390 . S
C1212 C1211 1.387 . S
H1213 C1225 0.930 . S
H1214 C1227 0.930 . S
H1215 C1228 0.930 . S
H1216 C1232 0.959 . S
H1217 C1232 0.959 . S
H1218 C1232 0.961 . S
H1219 C1233 0.960 . S
H1220 C1233 0.961 . S
H1221 C1233 0.959 . S
H1222 C1236 0.929 . S
H1223 C1237 0.931 . S
H1224 C1239 0.930 . S
C1225 H1213 0.930 . S
C1225 C1226 1.399 . S
C1225 C1230 1.399 . S
C1226 C1225 1.399 . S
C1226 C1227 1.376 . S
C1227 H1214 0.930 . S
C1227 C1226 1.376 . S
C1227 C1228 1.388 . S
C1228 H1215 0.930 . S
C1228 C1227 1.388 . S
C1228 C1229 1.390 . S
C1229 C1228 1.390 . S
C1229 C1230 1.394 . S
C1229 C1235 1.465 . S
C1230 C1225 1.399 . S
C1230 C1229 1.394 . S
C1230 C1231 1.516 . S
C1231 C1230 1.516 . S
C1231 C1232 1.502 1_655 S
C1231 C1233 1.561 . S
C1231 C1234 1.526 . S
C1232 H1216 0.959 . S
C1232 H1217 0.959 . S
C1232 H1218 0.961 . S
C1232 C1231 1.502 1_455 S
C1233 H1219 0.960 . S
C1233 H1220 0.961 . S
C1233 H1221 0.959 . S
C1233 C1231 1.561 . S
C1234 C1231 1.526 . S
C1234 C1235 1.396 . S
C1234 C1239 1.390 . S
C1235 C1229 1.465 . S
C1235 C1234 1.396 . S
C1235 C1236 1.399 . S
C1236 H1222 0.929 . S
C1236 C1235 1.399 . S
C1236 C1237 1.385 . S
C1237 H1223 0.931 . S
C1237 C1236 1.385 . S
C1237 C1238 1.389 . S
C1238 C1237 1.389 . S
C1238 C1239 1.387 . S
C1239 H1224 0.930 . S
C1239 C1234 1.390 . S
C1239 C1238 1.387 . S
H1240 C1252 0.930 . S
H1241 C1254 0.930 . S
H1242 C1255 0.930 . S
H1243 C1259 0.959 . S
H1244 C1259 0.959 . S
H1245 C1259 0.961 . S
H1246 C1260 0.960 . S
H1247 C1260 0.961 . S
H1248 C1260 0.959 . S
H1249 C1263 0.929 . S
H1250 C1264 0.931 . S
H1251 C1266 0.930 . S
C1252 H1240 0.930 . S
C1252 C1253 1.399 . S
C1252 C1257 1.399 . S
C1253 C1252 1.399 . S
C1253 C1254 1.376 . S
C1254 H1241 0.930 . S
C1254 C1253 1.376 . S
C1254 C1255 1.388 . S
C1255 H1242 0.930 . S
C1255 C1254 1.388 . S
C1255 C1256 1.390 . S
C1256 C1255 1.390 . S
C1256 C1257 1.394 . S
C1256 C1262 1.465 . S
C1257 C1252 1.399 . S
C1257 C1256 1.394 . S
C1257 C1258 1.516 . S
C1258 C1257 1.516 . S
C1258 C1259 1.502 . S
C1258 C1260 1.561 . S
C1258 C1261 1.526 . S
C1259 H1243 0.959 . S
C1259 H1244 0.959 . S
C1259 H1245 0.961 . S
C1259 C1258 1.502 . S
C1260 H1246 0.960 . S
C1260 H1247 0.961 . S
C1260 H1248 0.959 . S
C1260 C1258 1.561 . S
C1261 C1258 1.526 . S
C1261 C1262 1.396 . S
C1261 C1266 1.390 . S
C1262 C1256 1.465 . S
C1262 C1261 1.396 . S
C1262 C1263 1.399 . S
C1263 H1249 0.929 . S
C1263 C1262 1.399 . S
C1263 C1264 1.385 . S
C1264 H1250 0.931 . S
C1264 C1263 1.385 . S
C1264 C1265 1.389 . S
C1265 C1264 1.389 . S
C1265 C1266 1.387 . S
C1266 H1251 0.930 . S
C1266 C1261 1.390 . S
C1266 C1265 1.387 . S
H1267 C1279 0.930 . S
H1268 C1281 0.930 . S
H1269 C1282 0.930 . S
H1270 C1286 0.959 . S
H1271 C1286 0.959 . S
H1272 C1286 0.961 . S
H1273 C1287 0.960 . S
H1274 C1287 0.961 . S
H1275 C1287 0.959 . S
H1276 C1290 0.929 . S
H1277 C1291 0.931 . S
H1278 C1293 0.930 . S
C1279 H1267 0.930 . S
C1279 C1280 1.399 . S
C1279 C1284 1.399 . S
C1280 C1279 1.399 . S
C1280 C1281 1.376 . S
C1281 H1268 0.930 . S
C1281 C1280 1.376 . S
C1281 C1282 1.388 . S
C1282 H1269 0.930 . S
C1282 C1281 1.388 . S
C1282 C1283 1.390 . S
C1283 C1282 1.390 . S
C1283 C1284 1.394 . S
C1283 C1289 1.465 . S
C1284 C1279 1.399 . S
C1284 C1283 1.394 . S
C1284 C1285 1.516 . S
C1285 C1284 1.516 . S
C1285 C1286 1.502 . S
C1285 C1287 1.561 . S
C1285 C1288 1.526 . S
C1286 H1270 0.959 . S
C1286 H1271 0.959 . S
C1286 H1272 0.961 . S
C1286 C1285 1.502 . S
C1287 H1273 0.960 . S
C1287 H1274 0.961 . S
C1287 H1275 0.959 . S
C1287 C1285 1.561 . S
C1288 C1285 1.526 . S
C1288 C1289 1.396 . S
C1288 C1293 1.390 . S
C1289 C1283 1.465 . S
C1289 C1288 1.396 . S
C1289 C1290 1.399 . S
C1290 H1276 0.929 . S
C1290 C1289 1.399 . S
C1290 C1291 1.385 . S
C1291 H1277 0.931 . S
C1291 C1290 1.385 . S
C1291 C1292 1.389 . S
C1292 C1291 1.389 . S
C1292 C1293 1.387 . S
C1293 H1278 0.930 . S
C1293 C1288 1.390 . S
C1293 C1292 1.387 . S
H1294 C1306 0.930 . S
H1295 C1308 0.930 . S
H1296 C1309 0.930 1_554 S
H1297 C1313 0.959 . S
H1298 C1313 0.959 . S
H1299 C1313 0.961 . S
H1300 C1314 0.960 . S
H1301 C1314 0.961 . S
H1302 C1314 0.959 . S
H1303 C1317 0.929 . S
H1304 C1318 0.931 . S
H1305 C1320 0.930 . S
C1306 H1294 0.930 . S
C1306 C1307 1.399 . S
C1306 C1311 1.399 . S
C1307 C1306 1.399 . S
C1307 C1308 1.376 . S
C1308 H1295 0.930 . S
C1308 C1307 1.376 . S
C1308 C1309 1.388 . S
C1309 H1296 0.930 1_556 S
C1309 C1308 1.388 . S
C1309 C1310 1.390 . S
C1310 C1309 1.390 . S
C1310 C1311 1.394 . S
C1310 C1316 1.465 . S
C1311 C1306 1.399 . S
C1311 C1310 1.394 . S
C1311 C1312 1.516 . S
C1312 C1311 1.516 . S
C1312 C1313 1.502 . S
C1312 C1314 1.561 . S
C1312 C1315 1.526 . S
C1313 H1297 0.959 . S
C1313 H1298 0.959 . S
C1313 H1299 0.961 . S
C1313 C1312 1.502 . S
C1314 H1300 0.960 . S
C1314 H1301 0.961 . S
C1314 H1302 0.959 . S
C1314 C1312 1.561 . S
C1315 C1312 1.526 . S
C1315 C1316 1.396 . S
C1315 C1320 1.390 . S
C1316 C1310 1.465 . S
C1316 C1315 1.396 . S
C1316 C1317 1.399 1_556 S
C1317 H1303 0.929 . S
C1317 C1316 1.399 1_554 S
C1317 C1318 1.385 . S
C1318 H1304 0.931 . S
C1318 C1317 1.385 . S
C1318 C1319 1.389 1_554 S
C1319 C1318 1.389 1_556 S
C1319 C1320 1.387 . S
C1320 H1305 0.930 . S
C1320 C1315 1.390 . S
C1320 C1319 1.387 . S
H1321 C1333 0.930 . S
H1322 C1335 0.930 . S
H1323 C1336 0.930 . S
H1324 C1340 0.959 . S
H1325 C1340 0.959 . S
H1326 C1340 0.961 . S
H1327 C1341 0.960 . S
H1328 C1341 0.961 . S
H1329 C1341 0.959 . S
H1330 C1344 0.929 . S
H1331 C1345 0.931 . S
H1332 C1347 0.930 . S
C1333 H1321 0.930 . S
C1333 C1334 1.399 . S
C1333 C1338 1.399 . S
C1334 C1333 1.399 . S
C1334 C1335 1.376 . S
C1335 H1322 0.930 . S
C1335 C1334 1.376 . S
C1335 C1336 1.388 . S
C1336 H1323 0.930 . S
C1336 C1335 1.388 . S
C1336 C1337 1.390 . S
C1337 C1336 1.390 . S
C1337 C1338 1.394 . S
C1337 C1343 1.465 . S
C1338 C1333 1.399 . S
C1338 C1337 1.394 . S
C1338 C1339 1.516 . S
C1339 C1338 1.516 . S
C1339 C1340 1.502 . S
C1339 C1341 1.561 . S
C1339 C1342 1.526 . S
C1340 H1324 0.959 . S
C1340 H1325 0.959 . S
C1340 H1326 0.961 . S
C1340 C1339 1.502 . S
C1341 H1327 0.960 . S
C1341 H1328 0.961 . S
C1341 H1329 0.959 . S
C1341 C1339 1.561 . S
C1342 C1339 1.526 . S
C1342 C1343 1.396 . S
C1342 C1347 1.390 . S
C1343 C1337 1.465 . S
C1343 C1342 1.396 . S
C1343 C1344 1.399 . S
C1344 H1330 0.929 . S
C1344 C1343 1.399 . S
C1344 C1345 1.385 . S
C1345 H1331 0.931 . S
C1345 C1344 1.385 . S
C1345 C1346 1.389 . S
C1346 C1345 1.389 . S
C1346 C1347 1.387 . S
C1347 H1332 0.930 . S
C1347 C1342 1.390 . S
C1347 C1346 1.387 . S
H1348 C1360 0.930 . S
H1349 C1362 0.930 . S
H1350 C1363 0.930 . S
H1351 C1367 0.959 . S
H1352 C1367 0.959 . S
H1353 C1367 0.961 . S
H1354 C1368 0.960 . S
H1355 C1368 0.961 . S
H1356 C1368 0.959 . S
H1357 C1371 0.929 . S
H1358 C1372 0.931 . S
H1359 C1374 0.930 . S
C1360 H1348 0.930 . S
C1360 C1361 1.399 . S
C1360 C1365 1.399 . S
C1361 C1360 1.399 . S
C1361 C1362 1.376 . S
C1362 H1349 0.930 . S
C1362 C1361 1.376 . S
C1362 C1363 1.388 . S
C1363 H1350 0.930 . S
C1363 C1362 1.388 . S
C1363 C1364 1.390 . S
C1364 C1363 1.390 . S
C1364 C1365 1.394 . S
C1364 C1370 1.465 . S
C1365 C1360 1.399 . S
C1365 C1364 1.394 . S
C1365 C1366 1.516 . S
C1366 C1365 1.516 . S
C1366 C1367 1.502 . S
C1366 C1368 1.561 . S
C1366 C1369 1.526 . S
C1367 H1351 0.959 . S
C1367 H1352 0.959 . S
C1367 H1353 0.961 . S
C1367 C1366 1.502 . S
C1368 H1354 0.960 . S
C1368 H1355 0.961 . S
C1368 H1356 0.959 . S
C1368 C1366 1.561 . S
C1369 C1366 1.526 . S
C1369 C1370 1.396 . S
C1369 C1374 1.390 . S
C1370 C1364 1.465 . S
C1370 C1369 1.396 . S
C1370 C1371 1.399 . S
C1371 H1357 0.929 . S
C1371 C1370 1.399 . S
C1371 C1372 1.385 . S
C1372 H1358 0.931 . S
C1372 C1371 1.385 . S
C1372 C1373 1.389 . S
C1373 C1372 1.389 . S
C1373 C1374 1.387 . S
C1374 H1359 0.930 . S
C1374 C1369 1.390 . S
C1374 C1373 1.387 . S
H1375 C1387 0.930 . S
H1376 C1389 0.930 . S
H1377 C1390 0.930 . S
H1378 C1394 0.959 . S
H1379 C1394 0.959 . S
H1380 C1394 0.961 . S
H1381 C1395 0.960 . S
H1382 C1395 0.961 . S
H1383 C1395 0.959 . S
H1384 C1398 0.929 . S
H1385 C1399 0.931 . S
H1386 C1401 0.930 . S
C1387 H1375 0.930 . S
C1387 C1388 1.399 . S
C1387 C1392 1.399 . S
C1388 C1387 1.399 . S
C1388 C1389 1.376 . S
C1389 H1376 0.930 . S
C1389 C1388 1.376 . S
C1389 C1390 1.388 . S
C1390 H1377 0.930 . S
C1390 C1389 1.388 . S
C1390 C1391 1.390 . S
C1391 C1390 1.390 . S
C1391 C1392 1.394 . S
C1391 C1397 1.465 . S
C1392 C1387 1.399 . S
C1392 C1391 1.394 . S
C1392 C1393 1.516 . S
C1393 C1392 1.516 . S
C1393 C1394 1.502 . S
C1393 C1395 1.561 . S
C1393 C1396 1.526 . S
C1394 H1378 0.959 . S
C1394 H1379 0.959 . S
C1394 H1380 0.961 . S
C1394 C1393 1.502 . S
C1395 H1381 0.960 . S
C1395 H1382 0.961 . S
C1395 H1383 0.959 . S
C1395 C1393 1.561 . S
C1396 C1393 1.526 . S
C1396 C1397 1.396 . S
C1396 C1401 1.390 . S
C1397 C1391 1.465 . S
C1397 C1396 1.396 . S
C1397 C1398 1.399 . S
C1398 H1384 0.929 . S
C1398 C1397 1.399 . S
C1398 C1399 1.385 . S
C1399 H1385 0.931 . S
C1399 C1398 1.385 . S
C1399 C1400 1.389 . S
C1400 C1399 1.389 . S
C1400 C1401 1.387 . S
C1401 H1386 0.930 . S
C1401 C1396 1.390 . S
C1401 C1400 1.387 . S
H1402 C1414 0.930 . S
H1403 C1416 0.930 . S
H1404 C1417 0.930 . S
H1405 C1421 0.959 . S
H1406 C1421 0.959 . S
H1407 C1421 0.961 . S
H1408 C1422 0.960 . S
H1409 C1422 0.961 . S
H1410 C1422 0.959 . S
H1411 C1425 0.929 . S
H1412 C1426 0.931 . S
H1413 C1428 0.930 . S
C1414 H1402 0.930 . S
C1414 C1415 1.399 . S
C1414 C1419 1.399 . S
C1415 C1414 1.399 . S
C1415 C1416 1.376 . S
C1416 H1403 0.930 . S
C1416 C1415 1.376 . S
C1416 C1417 1.388 . S
C1417 H1404 0.930 . S
C1417 C1416 1.388 . S
C1417 C1418 1.390 . S
C1418 C1417 1.390 . S
C1418 C1419 1.394 . S
C1418 C1424 1.465 . S
C1419 C1414 1.399 . S
C1419 C1418 1.394 . S
C1419 C1420 1.516 . S
C1420 C1419 1.516 . S
C1420 C1421 1.502 . S
C1420 C1422 1.561 . S
C1420 C1423 1.526 . S
C1421 H1405 0.959 . S
C1421 H1406 0.959 . S
C1421 H1407 0.961 . S
C1421 C1420 1.502 . S
C1422 H1408 0.960 . S
C1422 H1409 0.961 . S
C1422 H1410 0.959 . S
C1422 C1420 1.561 . S
C1423 C1420 1.526 . S
C1423 C1424 1.396 . S
C1423 C1428 1.390 . S
C1424 C1418 1.465 . S
C1424 C1423 1.396 . S
C1424 C1425 1.399 . S
C1425 H1411 0.929 . S
C1425 C1424 1.399 . S
C1425 C1426 1.385 . S
C1426 H1412 0.931 . S
C1426 C1425 1.385 . S
C1426 C1427 1.389 . S
C1427 C1426 1.389 . S
C1427 C1428 1.387 . S
C1428 H1413 0.930 . S
C1428 C1423 1.390 . S
C1428 C1427 1.387 . S
H1429 C1441 0.930 . S
H1430 C1443 0.930 . S
H1431 C1444 0.930 . S
H1432 C1448 0.959 . S
H1433 C1448 0.959 . S
H1434 C1448 0.961 . S
H1435 C1449 0.960 . S
H1436 C1449 0.961 . S
H1437 C1449 0.959 . S
H1438 C1452 0.929 . S
H1439 C1453 0.931 . S
H1440 C1455 0.930 . S
C1441 H1429 0.930 . S
C1441 C1442 1.399 . S
C1441 C1446 1.399 . S
C1442 C1441 1.399 . S
C1442 C1443 1.376 . S
C1443 H1430 0.930 . S
C1443 C1442 1.376 . S
C1443 C1444 1.388 . S
C1444 H1431 0.930 . S
C1444 C1443 1.388 . S
C1444 C1445 1.390 . S
C1445 C1444 1.390 . S
C1445 C1446 1.394 . S
C1445 C1451 1.465 . S
C1446 C1441 1.399 . S
C1446 C1445 1.394 . S
C1446 C1447 1.516 . S
C1447 C1446 1.516 . S
C1447 C1448 1.502 . S
C1447 C1449 1.561 . S
C1447 C1450 1.526 . S
C1448 H1432 0.959 . S
C1448 H1433 0.959 . S
C1448 H1434 0.961 . S
C1448 C1447 1.502 . S
C1449 H1435 0.960 . S
C1449 H1436 0.961 . S
C1449 H1437 0.959 . S
C1449 C1447 1.561 . S
C1450 C1447 1.526 . S
C1450 C1451 1.396 . S
C1450 C1455 1.390 . S
C1451 C1445 1.465 . S
C1451 C1450 1.396 . S
C1451 C1452 1.399 . S
C1452 H1438 0.929 . S
C1452 C1451 1.399 . S
C1452 C1453 1.385 . S
C1453 H1439 0.931 . S
C1453 C1452 1.385 . S
C1453 C1454 1.389 . S
C1454 C1453 1.389 . S
C1454 C1455 1.387 . S
C1455 H1440 0.930 . S
C1455 C1450 1.390 . S
C1455 C1454 1.387 . S
H1456 C1468 0.930 . S
H1457 C1470 0.930 . S
H1458 C1471 0.930 . S
H1459 C1475 0.959 . S
H1460 C1475 0.959 . S
H1461 C1475 0.961 . S
H1462 C1476 0.960 . S
H1463 C1476 0.961 . S
H1464 C1476 0.959 . S
H1465 C1479 0.929 . S
H1466 C1480 0.931 . S
H1467 C1482 0.930 . S
C1468 H1456 0.930 . S
C1468 C1469 1.399 . S
C1468 C1473 1.399 . S
C1469 C1468 1.399 . S
C1469 C1470 1.376 . S
C1470 H1457 0.930 . S
C1470 C1469 1.376 . S
C1470 C1471 1.388 . S
C1471 H1458 0.930 . S
C1471 C1470 1.388 . S
C1471 C1472 1.390 . S
C1472 C1471 1.390 . S
C1472 C1473 1.394 . S
C1472 C1478 1.465 . S
C1473 C1468 1.399 . S
C1473 C1472 1.394 . S
C1473 C1474 1.516 . S
C1474 C1473 1.516 . S
C1474 C1475 1.502 . S
C1474 C1476 1.561 . S
C1474 C1477 1.526 . S
C1475 H1459 0.959 . S
C1475 H1460 0.959 . S
C1475 H1461 0.961 . S
C1475 C1474 1.502 . S
C1476 H1462 0.960 . S
C1476 H1463 0.961 . S
C1476 H1464 0.959 . S
C1476 C1474 1.561 . S
C1477 C1474 1.526 . S
C1477 C1478 1.396 . S
C1477 C1482 1.390 . S
C1478 C1472 1.465 . S
C1478 C1477 1.396 . S
C1478 C1479 1.399 . S
C1479 H1465 0.929 . S
C1479 C1478 1.399 . S
C1479 C1480 1.385 . S
C1480 H1466 0.931 . S
C1480 C1479 1.385 . S
C1480 C1481 1.389 . S
C1481 C1480 1.389 . S
C1481 C1482 1.387 . S
C1482 H1467 0.930 . S
C1482 C1477 1.390 . S
C1482 C1481 1.387 . S
H1483 C1495 0.930 . S
H1484 C1497 0.930 . S
H1485 C1498 0.930 1_565 S
H1486 C1502 0.959 . S
H1487 C1502 0.959 . S
H1488 C1502 0.961 . S
H1489 C1503 0.960 . S
H1490 C1503 0.961 . S
H1491 C1503 0.959 . S
H1492 C1506 0.929 . S
H1493 C1507 0.931 . S
H1494 C1509 0.930 . S
C1495 H1483 0.930 . S
C1495 C1496 1.399 . S
C1495 C1500 1.399 . S
C1496 C1495 1.399 . S
C1496 C1497 1.376 . S
C1497 H1484 0.930 . S
C1497 C1496 1.376 . S
C1497 C1498 1.388 . S
C1498 H1485 0.930 1_545 S
C1498 C1497 1.388 . S
C1498 C1499 1.390 . S
C1499 C1498 1.390 . S
C1499 C1500 1.394 . S
C1499 C1505 1.465 . S
C1500 C1495 1.399 . S
C1500 C1499 1.394 . S
C1500 C1501 1.516 . S
C1501 C1500 1.516 . S
C1501 C1502 1.502 . S
C1501 C1503 1.561 . S
C1501 C1504 1.526 . S
C1502 H1486 0.959 . S
C1502 H1487 0.959 . S
C1502 H1488 0.961 . S
C1502 C1501 1.502 . S
C1503 H1489 0.960 . S
C1503 H1490 0.961 . S
C1503 H1491 0.959 . S
C1503 C1501 1.561 . S
C1504 C1501 1.526 . S
C1504 C1505 1.396 . S
C1504 C1509 1.390 . S
C1505 C1499 1.465 . S
C1505 C1504 1.396 . S
C1505 C1506 1.399 1_545 S
C1506 H1492 0.929 . S
C1506 C1505 1.399 1_565 S
C1506 C1507 1.385 . S
C1507 H1493 0.931 . S
C1507 C1506 1.385 . S
C1507 C1508 1.389 1_565 S
C1508 C1507 1.389 1_545 S
C1508 C1509 1.387 . S
C1509 H1494 0.930 . S
C1509 C1504 1.390 . S
C1509 C1508 1.387 . S
H1510 C1522 0.930 . S
H1511 C1524 0.930 . S
H1512 C1525 0.930 . S
H1513 C1529 0.959 . S
H1514 C1529 0.959 . S
H1515 C1529 0.961 . S
H1516 C1530 0.960 . S
H1517 C1530 0.961 . S
H1518 C1530 0.959 . S
H1519 C1533 0.929 . S
H1520 C1534 0.931 . S
H1521 C1536 0.930 . S
C1522 H1510 0.930 . S
C1522 C1523 1.399 . S
C1522 C1527 1.399 . S
C1523 C1522 1.399 . S
C1523 C1524 1.376 . S
C1524 H1511 0.930 . S
C1524 C1523 1.376 . S
C1524 C1525 1.388 . S
C1525 H1512 0.930 . S
C1525 C1524 1.388 . S
C1525 C1526 1.390 . S
C1526 C1525 1.390 . S
C1526 C1527 1.394 . S
C1526 C1532 1.465 . S
C1527 C1522 1.399 . S
C1527 C1526 1.394 . S
C1527 C1528 1.516 . S
C1528 C1527 1.516 . S
C1528 C1529 1.502 . S
C1528 C1530 1.561 . S
C1528 C1531 1.526 . S
C1529 H1513 0.959 . S
C1529 H1514 0.959 . S
C1529 H1515 0.961 . S
C1529 C1528 1.502 . S
C1530 H1516 0.960 . S
C1530 H1517 0.961 . S
C1530 H1518 0.959 . S
C1530 C1528 1.561 . S
C1531 C1528 1.526 . S
C1531 C1532 1.396 . S
C1531 C1536 1.390 . S
C1532 C1526 1.465 . S
C1532 C1531 1.396 . S
C1532 C1533 1.399 . S
C1533 H1519 0.929 . S
C1533 C1532 1.399 . S
C1533 C1534 1.385 . S
C1534 H1520 0.931 . S
C1534 C1533 1.385 . S
C1534 C1535 1.389 . S
C1535 C1534 1.389 . S
C1535 C1536 1.387 . S
C1536 H1521 0.930 . S
C1536 C1531 1.390 . S
C1536 C1535 1.387 . S
H1537 C1549 0.930 . S
H1538 C1551 0.930 . S
H1539 C1552 0.930 . S
H1540 C1556 0.959 . S
H1541 C1556 0.959 . S
H1542 C1556 0.961 . S
H1543 C1557 0.960 . S
H1544 C1557 0.961 . S
H1545 C1557 0.959 . S
H1546 C1560 0.929 . S
H1547 C1561 0.931 . S
H1548 C1563 0.930 . S
C1549 H1537 0.930 . S
C1549 C1550 1.399 . S
C1549 C1554 1.399 . S
C1550 C1549 1.399 . S
C1550 C1551 1.376 . S
C1551 H1538 0.930 . S
C1551 C1550 1.376 . S
C1551 C1552 1.388 . S
C1552 H1539 0.930 . S
C1552 C1551 1.388 . S
C1552 C1553 1.390 . S
C1553 C1552 1.390 . S
C1553 C1554 1.394 . S
C1553 C1559 1.465 . S
C1554 C1549 1.399 . S
C1554 C1553 1.394 . S
C1554 C1555 1.516 . S
C1555 C1554 1.516 . S
C1555 C1556 1.502 . S
C1555 C1557 1.561 . S
C1555 C1558 1.526 . S
C1556 H1540 0.959 . S
C1556 H1541 0.959 . S
C1556 H1542 0.961 . S
C1556 C1555 1.502 . S
C1557 H1543 0.960 . S
C1557 H1544 0.961 . S
C1557 H1545 0.959 . S
C1557 C1555 1.561 . S
C1558 C1555 1.526 . S
C1558 C1559 1.396 . S
C1558 C1563 1.390 . S
C1559 C1553 1.465 . S
C1559 C1558 1.396 . S
C1559 C1560 1.399 . S
C1560 H1546 0.929 . S
C1560 C1559 1.399 . S
C1560 C1561 1.385 . S
C1561 H1547 0.931 . S
C1561 C1560 1.385 . S
C1561 C1562 1.389 . S
C1562 C1561 1.389 . S
C1562 C1563 1.387 . S
C1563 H1548 0.930 . S
C1563 C1558 1.390 . S
C1563 C1562 1.387 . S
H1564 C1576 0.930 . S
H1565 C1578 0.930 . S
H1566 C1579 0.930 . S
H1567 C1583 0.959 . S
H1568 C1583 0.959 . S
H1569 C1583 0.961 . S
H1570 C1584 0.960 . S
H1571 C1584 0.961 . S
H1572 C1584 0.959 . S
H1573 C1587 0.929 . S
H1574 C1588 0.931 . S
H1575 C1590 0.930 . S
C1576 H1564 0.930 . S
C1576 C1577 1.399 . S
C1576 C1581 1.399 . S
C1577 C1576 1.399 . S
C1577 C1578 1.376 . S
C1578 H1565 0.930 . S
C1578 C1577 1.376 . S
C1578 C1579 1.388 . S
C1579 H1566 0.930 . S
C1579 C1578 1.388 . S
C1579 C1580 1.390 . S
C1580 C1579 1.390 . S
C1580 C1581 1.394 . S
C1580 C1586 1.465 . S
C1581 C1576 1.399 . S
C1581 C1580 1.394 . S
C1581 C1582 1.516 . S
C1582 C1581 1.516 . S
C1582 C1583 1.502 . S
C1582 C1584 1.561 . S
C1582 C1585 1.526 . S
C1583 H1567 0.959 . S
C1583 H1568 0.959 . S
C1583 H1569 0.961 . S
C1583 C1582 1.502 . S
C1584 H1570 0.960 . S
C1584 H1571 0.961 . S
C1584 H1572 0.959 . S
C1584 C1582 1.561 . S
C1585 C1582 1.526 . S
C1585 C1586 1.396 . S
C1585 C1590 1.390 . S
C1586 C1580 1.465 . S
C1586 C1585 1.396 . S
C1586 C1587 1.399 . S
C1587 H1573 0.929 . S
C1587 C1586 1.399 . S
C1587 C1588 1.385 . S
C1588 H1574 0.931 . S
C1588 C1587 1.385 . S
C1588 C1589 1.389 . S
C1589 C1588 1.389 . S
C1589 C1590 1.387 . S
C1590 H1575 0.930 . S
C1590 C1585 1.390 . S
C1590 C1589 1.387 . S
H1591 C1603 0.930 . S
H1592 C1605 0.930 1_565 S
H1593 C1606 0.930 . S
H1594 C1610 0.959 . S
H1595 C1610 0.959 . S
H1596 C1610 0.961 . S
H1597 C1611 0.960 . S
H1598 C1611 0.961 . S
H1599 C1611 0.959 . S
H1600 C1614 0.929 . S
H1601 C1615 0.931 . S
H1602 C1617 0.930 . S
C1603 H1591 0.930 . S
C1603 C1604 1.399 . S
C1603 C1608 1.399 . S
C1604 C1603 1.399 . S
C1604 C1605 1.376 . S
C1605 H1592 0.930 1_545 S
C1605 C1604 1.376 . S
C1605 C1606 1.388 1_545 S
C1606 H1593 0.930 . S
C1606 C1605 1.388 1_565 S
C1606 C1607 1.390 1_565 S
C1607 C1606 1.390 1_545 S
C1607 C1608 1.394 . S
C1607 C1613 1.465 . S
C1608 C1603 1.399 . S
C1608 C1607 1.394 . S
C1608 C1609 1.516 . S
C1609 C1608 1.516 . S
C1609 C1610 1.502 . S
C1609 C1611 1.561 . S
C1609 C1612 1.526 . S
C1610 H1594 0.959 . S
C1610 H1595 0.959 . S
C1610 H1596 0.961 . S
C1610 C1609 1.502 . S
C1611 H1597 0.960 . S
C1611 H1598 0.961 . S
C1611 H1599 0.959 . S
C1611 C1609 1.561 . S
C1612 C1609 1.526 . S
C1612 C1613 1.396 . S
C1612 C1617 1.390 . S
C1613 C1607 1.465 . S
C1613 C1612 1.396 . S
C1613 C1614 1.399 1_545 S
C1614 H1600 0.929 . S
C1614 C1613 1.399 1_565 S
C1614 C1615 1.385 . S
C1615 H1601 0.931 . S
C1615 C1614 1.385 . S
C1615 C1616 1.389 1_565 S
C1616 C1615 1.389 1_545 S
C1616 C1617 1.387 . S
C1617 H1602 0.930 . S
C1617 C1612 1.390 . S
C1617 C1616 1.387 . S
H1618 C1630 0.930 . S
H1619 C1632 0.930 . S
H1620 C1633 0.930 . S
H1621 C1637 0.959 . S
H1622 C1637 0.959 . S
H1623 C1637 0.961 . S
H1624 C1638 0.960 . S
H1625 C1638 0.961 . S
H1626 C1638 0.959 . S
H1627 C1641 0.929 . S
H1628 C1642 0.931 . S
H1629 C1644 0.930 . S
C1630 H1618 0.930 . S
C1630 C1631 1.399 . S
C1630 C1635 1.399 . S
C1631 C1630 1.399 . S
C1631 C1632 1.376 . S
C1632 H1619 0.930 . S
C1632 C1631 1.376 . S
C1632 C1633 1.388 . S
C1633 H1620 0.930 . S
C1633 C1632 1.388 . S
C1633 C1634 1.390 . S
C1634 C1633 1.390 . S
C1634 C1635 1.394 . S
C1634 C1640 1.465 . S
C1635 C1630 1.399 . S
C1635 C1634 1.394 . S
C1635 C1636 1.516 . S
C1636 C1635 1.516 . S
C1636 C1637 1.502 . S
C1636 C1638 1.561 . S
C1636 C1639 1.526 . S
C1637 H1621 0.959 . S
C1637 H1622 0.959 . S
C1637 H1623 0.961 . S
C1637 C1636 1.502 . S
C1638 H1624 0.960 . S
C1638 H1625 0.961 . S
C1638 H1626 0.959 . S
C1638 C1636 1.561 . S
C1639 C1636 1.526 . S
C1639 C1640 1.396 . S
C1639 C1644 1.390 . S
C1640 C1634 1.465 . S
C1640 C1639 1.396 . S
C1640 C1641 1.399 . S
C1641 H1627 0.929 . S
C1641 C1640 1.399 . S
C1641 C1642 1.385 . S
C1642 H1628 0.931 . S
C1642 C1641 1.385 . S
C1642 C1643 1.389 . S
C1643 C1642 1.389 . S
C1643 C1644 1.387 . S
C1644 H1629 0.930 . S
C1644 C1639 1.390 . S
C1644 C1643 1.387 . S
H1645 C1657 0.930 . S
H1646 C1659 0.930 . S
H1647 C1660 0.930 . S
H1648 C1664 0.959 . S
H1649 C1664 0.959 . S
H1650 C1664 0.961 . S
H1651 C1665 0.960 . S
H1652 C1665 0.961 . S
H1653 C1665 0.959 . S
H1654 C1668 0.929 . S
H1655 C1669 0.931 . S
H1656 C1671 0.930 . S
C1657 H1645 0.930 . S
C1657 C1658 1.399 . S
C1657 C1662 1.399 . S
C1658 C1657 1.399 . S
C1658 C1659 1.376 . S
C1659 H1646 0.930 . S
C1659 C1658 1.376 . S
C1659 C1660 1.388 . S
C1660 H1647 0.930 . S
C1660 C1659 1.388 . S
C1660 C1661 1.390 . S
C1661 C1660 1.390 . S
C1661 C1662 1.394 . S
C1661 C1667 1.465 . S
C1662 C1657 1.399 . S
C1662 C1661 1.394 . S
C1662 C1663 1.516 . S
C1663 C1662 1.516 . S
C1663 C1664 1.502 . S
C1663 C1665 1.561 . S
C1663 C1666 1.526 . S
C1664 H1648 0.959 . S
C1664 H1649 0.959 . S
C1664 H1650 0.961 . S
C1664 C1663 1.502 . S
C1665 H1651 0.960 . S
C1665 H1652 0.961 . S
C1665 H1653 0.959 . S
C1665 C1663 1.561 . S
C1666 C1663 1.526 . S
C1666 C1667 1.396 . S
C1666 C1671 1.390 . S
C1667 C1661 1.465 . S
C1667 C1666 1.396 . S
C1667 C1668 1.399 . S
C1668 H1654 0.929 . S
C1668 C1667 1.399 . S
C1668 C1669 1.385 . S
C1669 H1655 0.931 . S
C1669 C1668 1.385 . S
C1669 C1670 1.389 . S
C1670 C1669 1.389 . S
C1670 C1671 1.387 . S
C1671 H1656 0.930 . S
C1671 C1666 1.390 . S
C1671 C1670 1.387 . S
H1672 C1684 0.930 . S
H1673 C1686 0.930 . S
H1674 C1687 0.930 . S
H1675 C1691 0.959 . S
H1676 C1691 0.959 . S
H1677 C1691 0.961 . S
H1678 C1692 0.960 . S
H1679 C1692 0.961 . S
H1680 C1692 0.959 . S
H1681 C1695 0.929 . S
H1682 C1696 0.931 . S
H1683 C1698 0.930 . S
C1684 H1672 0.930 . S
C1684 C1685 1.399 . S
C1684 C1689 1.399 . S
C1685 C1684 1.399 . S
C1685 C1686 1.376 . S
C1686 H1673 0.930 . S
C1686 C1685 1.376 . S
C1686 C1687 1.388 . S
C1687 H1674 0.930 . S
C1687 C1686 1.388 . S
C1687 C1688 1.390 . S
C1688 C1687 1.390 . S
C1688 C1689 1.394 . S
C1688 C1694 1.465 . S
C1689 C1684 1.399 . S
C1689 C1688 1.394 . S
C1689 C1690 1.516 . S
C1690 C1689 1.516 . S
C1690 C1691 1.502 . S
C1690 C1692 1.561 . S
C1690 C1693 1.526 . S
C1691 H1675 0.959 . S
C1691 H1676 0.959 . S
C1691 H1677 0.961 . S
C1691 C1690 1.502 . S
C1692 H1678 0.960 . S
C1692 H1679 0.961 . S
C1692 H1680 0.959 . S
C1692 C1690 1.561 . S
C1693 C1690 1.526 . S
C1693 C1694 1.396 . S
C1693 C1698 1.390 . S
C1694 C1688 1.465 . S
C1694 C1693 1.396 . S
C1694 C1695 1.399 . S
C1695 H1681 0.929 . S
C1695 C1694 1.399 . S
C1695 C1696 1.385 . S
C1696 H1682 0.931 . S
C1696 C1695 1.385 . S
C1696 C1697 1.389 . S
C1697 C1696 1.389 . S
C1697 C1698 1.387 . S
C1698 H1683 0.930 . S
C1698 C1693 1.390 . S
C1698 C1697 1.387 . S
H1699 C1711 0.930 . S
H1700 C1713 0.930 . S
H1701 C1714 0.930 . S
H1702 C1718 0.959 . S
H1703 C1718 0.959 . S
H1704 C1718 0.961 . S
H1705 C1719 0.960 . S
H1706 C1719 0.961 . S
H1707 C1719 0.959 . S
H1708 C1722 0.929 . S
H1709 C1723 0.931 . S
H1710 C1725 0.930 1_455 S
C1711 H1699 0.930 . S
C1711 C1712 1.399 . S
C1711 C1716 1.399 . S
C1712 C1711 1.399 . S
C1712 C1713 1.376 . S
C1713 H1700 0.930 . S
C1713 C1712 1.376 . S
C1713 C1714 1.388 . S
C1714 H1701 0.930 . S
C1714 C1713 1.388 . S
C1714 C1715 1.390 . S
C1715 C1714 1.390 . S
C1715 C1716 1.394 . S
C1715 C1721 1.465 . S
C1716 C1711 1.399 . S
C1716 C1715 1.394 . S
C1716 C1717 1.516 . S
C1717 C1716 1.516 . S
C1717 C1718 1.502 1_655 S
C1717 C1719 1.561 . S
C1717 C1720 1.526 . S
C1718 H1702 0.959 . S
C1718 H1703 0.959 . S
C1718 H1704 0.961 . S
C1718 C1717 1.502 1_455 S
C1719 H1705 0.960 . S
C1719 H1706 0.961 . S
C1719 H1707 0.959 . S
C1719 C1717 1.561 . S
C1720 C1717 1.526 . S
C1720 C1721 1.396 . S
C1720 C1725 1.390 . S
C1721 C1715 1.465 . S
C1721 C1720 1.396 . S
C1721 C1722 1.399 . S
C1722 H1708 0.929 . S
C1722 C1721 1.399 . S
C1722 C1723 1.385 . S
C1723 H1709 0.931 . S
C1723 C1722 1.385 . S
C1723 C1724 1.389 . S
C1724 C1723 1.389 . S
C1724 C1725 1.387 . S
C1725 H1710 0.930 1_655 S
C1725 C1720 1.390 . S
C1725 C1724 1.387 . S
H1726 C1738 0.930 . S
H1727 C1740 0.930 . S
H1728 C1741 0.930 . S
H1729 C1745 0.959 . S
H1730 C1745 0.959 . S
H1731 C1745 0.961 . S
H1732 C1746 0.960 . S
H1733 C1746 0.961 . S
H1734 C1746 0.959 . S
H1735 C1749 0.929 . S
H1736 C1750 0.931 . S
H1737 C1752 0.930 . S
C1738 H1726 0.930 . S
C1738 C1739 1.399 . S
C1738 C1743 1.399 . S
C1739 C1738 1.399 . S
C1739 C1740 1.376 . S
C1740 H1727 0.930 . S
C1740 C1739 1.376 . S
C1740 C1741 1.388 . S
C1741 H1728 0.930 . S
C1741 C1740 1.388 . S
C1741 C1742 1.390 . S
C1742 C1741 1.390 . S
C1742 C1743 1.394 . S
C1742 C1748 1.465 . S
C1743 C1738 1.399 . S
C1743 C1742 1.394 . S
C1743 C1744 1.516 . S
C1744 C1743 1.516 . S
C1744 C1745 1.502 . S
C1744 C1746 1.561 . S
C1744 C1747 1.526 . S
C1745 H1729 0.959 . S
C1745 H1730 0.959 . S
C1745 H1731 0.961 . S
C1745 C1744 1.502 . S
C1746 H1732 0.960 . S
C1746 H1733 0.961 . S
C1746 H1734 0.959 . S
C1746 C1744 1.561 . S
C1747 C1744 1.526 . S
C1747 C1748 1.396 . S
C1747 C1752 1.390 . S
C1748 C1742 1.465 . S
C1748 C1747 1.396 . S
C1748 C1749 1.399 . S
C1749 H1735 0.929 . S
C1749 C1748 1.399 . S
C1749 C1750 1.385 . S
C1750 H1736 0.931 . S
C1750 C1749 1.385 . S
C1750 C1751 1.389 . S
C1751 C1750 1.389 . S
C1751 C1752 1.387 . S
C1752 H1737 0.930 . S
C1752 C1747 1.390 . S
C1752 C1751 1.387 . S
H1753 C1765 0.930 . S
H1754 C1767 0.930 . S
H1755 C1768 0.930 . S
H1756 C1772 0.959 1_655 S
H1757 C1772 0.959 . S
H1758 C1772 0.961 . S
H1759 C1773 0.960 . S
H1760 C1773 0.961 . S
H1761 C1773 0.959 . S
H1762 C1776 0.929 . S
H1763 C1777 0.931 . S
H1764 C1779 0.930 . S
C1765 H1753 0.930 . S
C1765 C1766 1.399 . S
C1765 C1770 1.399 . S
C1766 C1765 1.399 . S
C1766 C1767 1.376 . S
C1767 H1754 0.930 . S
C1767 C1766 1.376 . S
C1767 C1768 1.388 . S
C1768 H1755 0.930 . S
C1768 C1767 1.388 . S
C1768 C1769 1.390 . S
C1769 C1768 1.390 . S
C1769 C1770 1.394 . S
C1769 C1775 1.465 . S
C1770 C1765 1.399 . S
C1770 C1769 1.394 . S
C1770 C1771 1.516 . S
C1771 C1770 1.516 . S
C1771 C1772 1.502 . S
C1771 C1773 1.561 . S
C1771 C1774 1.526 . S
C1772 H1756 0.959 1_455 S
C1772 H1757 0.959 . S
C1772 H1758 0.961 . S
C1772 C1771 1.502 . S
C1773 H1759 0.960 . S
C1773 H1760 0.961 . S
C1773 H1761 0.959 . S
C1773 C1771 1.561 . S
C1774 C1771 1.526 . S
C1774 C1775 1.396 . S
C1774 C1779 1.390 . S
C1775 C1769 1.465 . S
C1775 C1774 1.396 . S
C1775 C1776 1.399 . S
C1776 H1762 0.929 . S
C1776 C1775 1.399 . S
C1776 C1777 1.385 . S
C1777 H1763 0.931 . S
C1777 C1776 1.385 . S
C1777 C1778 1.389 . S
C1778 C1777 1.389 . S
C1778 C1779 1.387 . S
C1779 H1764 0.930 . S
C1779 C1774 1.390 . S
C1779 C1778 1.387 . S
H1780 C1792 0.930 . S
H1781 C1794 0.930 . S
H1782 C1795 0.930 . S
H1783 C1799 0.959 . S
H1784 C1799 0.959 . S
H1785 C1799 0.961 . S
H1786 C1800 0.960 . S
H1787 C1800 0.961 . S
H1788 C1800 0.959 . S
H1789 C1803 0.929 . S
H1790 C1804 0.931 . S
H1791 C1806 0.930 . S
C1792 H1780 0.930 . S
C1792 C1793 1.399 . S
C1792 C1797 1.399 . S
C1793 C1792 1.399 . S
C1793 C1794 1.376 . S
C1794 H1781 0.930 . S
C1794 C1793 1.376 . S
C1794 C1795 1.388 . S
C1795 H1782 0.930 . S
C1795 C1794 1.388 . S
C1795 C1796 1.390 . S
C1796 C1795 1.390 . S
C1796 C1797 1.394 . S
C1796 C1802 1.465 . S
C1797 C1792 1.399 . S
C1797 C1796 1.394 . S
C1797 C1798 1.516 . S
C1798 C1797 1.516 . S
C1798 C1799 1.502 . S
C1798 C1800 1.561 . S
C1798 C1801 1.526 . S
C1799 H1783 0.959 . S
C1799 H1784 0.959 . S
C1799 H1785 0.961 . S
C1799 C1798 1.502 . S
C1800 H1786 0.960 . S
C1800 H1787 0.961 . S
C1800 H1788 0.959 . S
C1800 C1798 1.561 . S
C1801 C1798 1.526 . S
C1801 C1802 1.396 . S
C1801 C1806 1.390 . S
C1802 C1796 1.465 . S
C1802 C1801 1.396 . S
C1802 C1803 1.399 . S
C1803 H1789 0.929 . S
C1803 C1802 1.399 . S
C1803 C1804 1.385 . S
C1804 H1790 0.931 . S
C1804 C1803 1.385 . S
C1804 C1805 1.389 . S
C1805 C1804 1.389 . S
C1805 C1806 1.387 . S
C1806 H1791 0.930 . S
C1806 C1801 1.390 . S
C1806 C1805 1.387 . S
H1807 C1819 0.930 . S
H1808 C1821 0.930 . S
H1809 C1822 0.930 . S
H1810 C1826 0.959 . S
H1811 C1826 0.959 . S
H1812 C1826 0.961 . S
H1813 C1827 0.960 . S
H1814 C1827 0.961 . S
H1815 C1827 0.959 . S
H1816 C1830 0.929 . S
H1817 C1831 0.931 . S
H1818 C1833 0.930 . S
C1819 H1807 0.930 . S
C1819 C1820 1.399 . S
C1819 C1824 1.399 . S
C1820 C1819 1.399 . S
C1820 C1821 1.376 . S
C1821 H1808 0.930 . S
C1821 C1820 1.376 . S
C1821 C1822 1.388 . S
C1822 H1809 0.930 . S
C1822 C1821 1.388 . S
C1822 C1823 1.390 . S
C1823 C1822 1.390 . S
C1823 C1824 1.394 . S
C1823 C1829 1.465 . S
C1824 C1819 1.399 . S
C1824 C1823 1.394 . S
C1824 C1825 1.516 . S
C1825 C1824 1.516 . S
C1825 C1826 1.502 . S
C1825 C1827 1.561 . S
C1825 C1828 1.526 . S
C1826 H1810 0.959 . S
C1826 H1811 0.959 . S
C1826 H1812 0.961 . S
C1826 C1825 1.502 . S
C1827 H1813 0.960 . S
C1827 H1814 0.961 . S
C1827 H1815 0.959 . S
C1827 C1825 1.561 . S
C1828 C1825 1.526 . S
C1828 C1829 1.396 . S
C1828 C1833 1.390 . S
C1829 C1823 1.465 . S
C1829 C1828 1.396 . S
C1829 C1830 1.399 . S
C1830 H1816 0.929 . S
C1830 C1829 1.399 . S
C1830 C1831 1.385 . S
C1831 H1817 0.931 . S
C1831 C1830 1.385 . S
C1831 C1832 1.389 . S
C1832 C1831 1.389 . S
C1832 C1833 1.387 . S
C1833 H1818 0.930 . S
C1833 C1828 1.390 . S
C1833 C1832 1.387 . S
H1834 C1846 0.930 . S
H1835 C1848 0.930 . S
H1836 C1849 0.930 . S
H1837 C1853 0.959 . S
H1838 C1853 0.959 . S
H1839 C1853 0.961 . S
H1840 C1854 0.960 . S
H1841 C1854 0.961 . S
H1842 C1854 0.959 . S
H1843 C1857 0.929 . S
H1844 C1858 0.931 . S
H1845 C1860 0.930 . S
C1846 H1834 0.930 . S
C1846 C1847 1.399 . S
C1846 C1851 1.399 . S
C1847 C1846 1.399 . S
C1847 C1848 1.376 . S
C1848 H1835 0.930 . S
C1848 C1847 1.376 . S
C1848 C1849 1.388 . S
C1849 H1836 0.930 . S
C1849 C1848 1.388 . S
C1849 C1850 1.390 . S
C1850 C1849 1.390 . S
C1850 C1851 1.394 . S
C1850 C1856 1.465 . S
C1851 C1846 1.399 . S
C1851 C1850 1.394 . S
C1851 C1852 1.516 . S
C1852 C1851 1.516 . S
C1852 C1853 1.502 . S
C1852 C1854 1.561 . S
C1852 C1855 1.526 . S
C1853 H1837 0.959 . S
C1853 H1838 0.959 . S
C1853 H1839 0.961 . S
C1853 C1852 1.502 . S
C1854 H1840 0.960 . S
C1854 H1841 0.961 . S
C1854 H1842 0.959 . S
C1854 C1852 1.561 . S
C1855 C1852 1.526 . S
C1855 C1856 1.396 . S
C1855 C1860 1.390 . S
C1856 C1850 1.465 . S
C1856 C1855 1.396 . S
C1856 C1857 1.399 . S
C1857 H1843 0.929 . S
C1857 C1856 1.399 . S
C1857 C1858 1.385 . S
C1858 H1844 0.931 . S
C1858 C1857 1.385 . S
C1858 C1859 1.389 . S
C1859 C1858 1.389 . S
C1859 C1860 1.387 . S
C1860 H1845 0.930 . S
C1860 C1855 1.390 . S
C1860 C1859 1.387 . S
H1861 C1873 0.930 . S
H1862 C1875 0.937 . S
H1863 C1876 0.930 . S
H1864 C1880 0.959 . S
H1865 C1880 0.959 . S
H1866 C1880 0.961 . S
H1867 C1881 0.960 . S
H1868 C1881 0.961 . S
H1869 C1881 0.959 . S
H1870 C1884 0.929 . S
H1871 C1885 0.931 . S
H1872 C1887 0.930 . S
C1873 H1861 0.930 . S
C1873 C1874 1.399 . S
C1873 C1878 1.399 . S
C1874 C1873 1.399 . S
C1874 C1875 1.376 . S
C1875 H1862 0.937 . S
C1875 C1874 1.376 . S
C1875 C1876 1.388 . S
C1876 H1863 0.930 . S
C1876 C1875 1.388 . S
C1876 C1877 1.390 . S
C1877 C1876 1.390 . S
C1877 C1878 1.394 . S
C1877 C1883 1.465 . S
C1878 C1873 1.399 . S
C1878 C1877 1.394 . S
C1878 C1879 1.516 . S
C1879 C1878 1.516 . S
C1879 C1880 1.502 . S
C1879 C1881 1.561 . S
C1879 C1882 1.526 . S
C1880 H1864 0.959 . S
C1880 H1865 0.959 . S
C1880 H1866 0.961 . S
C1880 C1879 1.502 . S
C1881 H1867 0.960 . S
C1881 H1868 0.961 . S
C1881 H1869 0.959 . S
C1881 C1879 1.561 . S
C1882 C1879 1.526 . S
C1882 C1883 1.396 . S
C1882 C1887 1.390 . S
C1883 C1877 1.465 . S
C1883 C1882 1.396 . S
C1883 C1884 1.399 . S
C1884 H1870 0.929 . S
C1884 C1883 1.399 . S
C1884 C1885 1.385 . S
C1885 H1871 0.931 . S
C1885 C1884 1.385 . S
C1885 C1886 1.389 . S
C1886 C1885 1.389 . S
C1886 C1887 1.387 . S
C1887 H1872 0.930 . S
C1887 C1882 1.390 . S
C1887 C1886 1.387 . S
H1888 C1900 0.930 . S
H1889 C1902 0.930 . S
H1890 C1903 0.930 . S
H1891 C1907 0.959 . S
H1892 C1907 0.959 . S
H1893 C1907 0.961 . S
H1894 C1908 0.960 . S
H1895 C1908 0.961 . S
H1896 C1908 0.959 . S
H1897 C1911 0.929 . S
H1898 C1912 0.931 . S
H1899 C1914 0.930 . S
C1900 H1888 0.930 . S
C1900 C1901 1.399 . S
C1900 C1905 1.399 . S
C1901 C1900 1.399 . S
C1901 C1902 1.376 . S
C1902 H1889 0.930 . S
C1902 C1901 1.376 . S
C1902 C1903 1.388 . S
C1903 H1890 0.930 . S
C1903 C1902 1.388 . S
C1903 C1904 1.390 . S
C1904 C1903 1.390 . S
C1904 C1905 1.394 . S
C1904 C1910 1.465 . S
C1905 C1900 1.399 . S
C1905 C1904 1.394 . S
C1905 C1906 1.516 . S
C1906 C1905 1.516 . S
C1906 C1907 1.502 . S
C1906 C1908 1.561 . S
C1906 C1909 1.526 . S
C1907 H1891 0.959 . S
C1907 H1892 0.959 . S
C1907 H1893 0.961 . S
C1907 C1906 1.502 . S
C1908 H1894 0.960 . S
C1908 H1895 0.961 . S
C1908 H1896 0.959 . S
C1908 C1906 1.561 . S
C1909 C1906 1.526 . S
C1909 C1910 1.396 . S
C1909 C1914 1.390 . S
C1910 C1904 1.465 . S
C1910 C1909 1.396 . S
C1910 C1911 1.399 . S
C1911 H1897 0.929 . S
C1911 C1910 1.399 . S
C1911 C1912 1.385 . S
C1912 H1898 0.931 . S
C1912 C1911 1.385 . S
C1912 C1913 1.389 . S
C1913 C1912 1.389 . S
C1913 C1914 1.387 . S
C1914 H1899 0.930 . S
C1914 C1909 1.390 . S
C1914 C1913 1.387 . S
H1915 C1927 0.930 . S
H1916 C1929 0.930 . S
H1917 C1930 0.930 . S
H1918 C1934 0.959 . S
H1919 C1934 0.959 . S
H1920 C1934 0.961 . S
H1921 C1935 0.960 . S
H1922 C1935 0.961 . S
H1923 C1935 0.959 . S
H1924 C1938 0.929 . S
H1925 C1939 0.931 . S
H1926 C1941 0.930 . S
C1927 H1915 0.930 . S
C1927 C1928 1.399 . S
C1927 C1932 1.399 . S
C1928 C1927 1.399 . S
C1928 C1929 1.376 . S
C1929 H1916 0.930 . S
C1929 C1928 1.376 . S
C1929 C1930 1.388 . S
C1930 H1917 0.930 . S
C1930 C1929 1.388 . S
C1930 C1931 1.390 . S
C1931 C1930 1.390 . S
C1931 C1932 1.394 . S
C1931 C1937 1.465 . S
C1932 C1927 1.399 . S
C1932 C1931 1.394 . S
C1932 C1933 1.516 . S
C1933 C1932 1.516 . S
C1933 C1934 1.502 . S
C1933 C1935 1.561 . S
C1933 C1936 1.526 . S
C1934 H1918 0.959 . S
C1934 H1919 0.959 . S
C1934 H1920 0.961 . S
C1934 C1933 1.502 . S
C1935 H1921 0.960 . S
C1935 H1922 0.961 . S
C1935 H1923 0.959 . S
C1935 C1933 1.561 . S
C1936 C1933 1.526 . S
C1936 C1937 1.396 . S
C1936 C1941 1.390 . S
C1937 C1931 1.465 . S
C1937 C1936 1.396 . S
C1937 C1938 1.399 . S
C1938 H1924 0.929 . S
C1938 C1937 1.399 . S
C1938 C1939 1.385 . S
C1939 H1925 0.931 . S
C1939 C1938 1.385 . S
C1939 C1940 1.389 . S
C1940 C1939 1.389 . S
C1940 C1941 1.387 . S
C1941 H1926 0.930 . S
C1941 C1936 1.390 . S
C1941 C1940 1.387 . S
H1942 C1954 0.930 . S
H1943 C1956 0.930 . S
H1944 C1957 0.930 . S
H1945 C1961 0.959 . S
H1946 C1961 0.959 . S
H1947 C1961 0.961 . S
H1948 C1962 0.960 . S
H1949 C1962 0.961 . S
H1950 C1962 0.959 . S
H1951 C1965 0.929 . S
H1952 C1966 0.931 . S
H1953 C1968 0.930 . S
C1954 H1942 0.930 . S
C1954 C1955 1.399 . S
C1954 C1959 1.399 . S
C1955 C1954 1.399 . S
C1955 C1956 1.376 . S
C1956 H1943 0.930 . S
C1956 C1955 1.376 . S
C1956 C1957 1.388 . S
C1957 H1944 0.930 . S
C1957 C1956 1.388 . S
C1957 C1958 1.390 . S
C1958 C1957 1.390 . S
C1958 C1959 1.394 . S
C1958 C1964 1.465 . S
C1959 C1954 1.399 . S
C1959 C1958 1.394 . S
C1959 C1960 1.516 . S
C1960 C1959 1.516 . S
C1960 C1961 1.502 . S
C1960 C1962 1.561 . S
C1960 C1963 1.526 . S
C1961 H1945 0.959 . S
C1961 H1946 0.959 . S
C1961 H1947 0.961 . S
C1961 C1960 1.502 . S
C1962 H1948 0.960 . S
C1962 H1949 0.961 . S
C1962 H1950 0.959 . S
C1962 C1960 1.561 . S
C1963 C1960 1.526 . S
C1963 C1964 1.396 . S
C1963 C1968 1.390 . S
C1964 C1958 1.465 . S
C1964 C1963 1.396 . S
C1964 C1965 1.399 . S
C1965 H1951 0.929 . S
C1965 C1964 1.399 . S
C1965 C1966 1.385 . S
C1966 H1952 0.931 . S
C1966 C1965 1.385 . S
C1966 C1967 1.389 . S
C1967 C1966 1.389 . S
C1967 C1968 1.387 . S
C1968 H1953 0.930 . S
C1968 C1963 1.390 . S
C1968 C1967 1.387 . S
H1969 C1981 0.930 . S
H1970 C1983 0.930 . S
H1971 C1984 0.930 . S
H1972 C1988 0.959 . S
H1973 C1988 0.959 . S
H1974 C1988 0.961 . S
H1975 C1989 0.960 . S
H1976 C1989 0.961 . S
H1977 C1989 0.959 . S
H1978 C1992 0.929 . S
H1979 C1993 0.931 . S
H1980 C1995 0.930 . S
C1981 H1969 0.930 . S
C1981 C1982 1.399 . S
C1981 C1986 1.399 . S
C1982 C1981 1.399 . S
C1982 C1983 1.376 . S
C1983 H1970 0.930 . S
C1983 C1982 1.376 . S
C1983 C1984 1.388 . S
C1984 H1971 0.930 . S
C1984 C1983 1.388 . S
C1984 C1985 1.390 . S
C1985 C1984 1.390 . S
C1985 C1986 1.394 . S
C1985 C1991 1.465 . S
C1986 C1981 1.399 . S
C1986 C1985 1.394 . S
C1986 C1987 1.516 . S
C1987 C1986 1.516 . S
C1987 C1988 1.502 . S
C1987 C1989 1.561 . S
C1987 C1990 1.526 . S
C1988 H1972 0.959 . S
C1988 H1973 0.959 . S
C1988 H1974 0.961 . S
C1988 C1987 1.502 . S
C1989 H1975 0.960 . S
C1989 H1976 0.961 . S
C1989 H1977 0.959 . S
C1989 C1987 1.561 . S
C1990 C1987 1.526 . S
C1990 C1991 1.396 . S
C1990 C1995 1.390 . S
C1991 C1985 1.465 . S
C1991 C1990 1.396 . S
C1991 C1992 1.399 . S
C1992 H1978 0.929 . S
C1992 C1991 1.399 . S
C1992 C1993 1.385 . S
C1993 H1979 0.931 . S
C1993 C1992 1.385 . S
C1993 C1994 1.389 . S
C1994 C1993 1.389 . S
C1994 C1995 1.387 . S
C1995 H1980 0.930 . S
C1995 C1990 1.390 . S
C1995 C1994 1.387 . S
H1996 C2008 0.930 . S
H1997 C2010 0.930 1_554 S
H1998 C2011 0.930 . S
H1999 C2015 0.959 . S
H2000 C2015 0.959 . S
H2001 C2015 0.961 . S
H2002 C2016 0.960 . S
H2003 C2016 0.961 . S
H2004 C2016 0.959 . S
H2005 C2019 0.929 . S
H2006 C2020 0.931 . S
H2007 C2022 0.930 . S
C2008 H1996 0.930 . S
C2008 C2009 1.399 . S
C2008 C2013 1.399 . S
C2009 C2008 1.399 . S
C2009 C2010 1.376 . S
C2010 H1997 0.930 1_556 S
C2010 C2009 1.376 . S
C2010 C2011 1.388 1_556 S
C2011 H1998 0.930 . S
C2011 C2010 1.388 1_554 S
C2011 C2012 1.390 1_554 S
C2012 C2011 1.390 1_556 S
C2012 C2013 1.394 . S
C2012 C2018 1.465 . S
C2013 C2008 1.399 . S
C2013 C2012 1.394 . S
C2013 C2014 1.516 . S
C2014 C2013 1.516 . S
C2014 C2015 1.502 . S
C2014 C2016 1.561 . S
C2014 C2017 1.526 . S
C2015 H1999 0.959 . S
C2015 H2000 0.959 . S
C2015 H2001 0.961 . S
C2015 C2014 1.502 . S
C2016 H2002 0.960 . S
C2016 H2003 0.961 . S
C2016 H2004 0.959 . S
C2016 C2014 1.561 . S
C2017 C2014 1.526 . S
C2017 C2018 1.396 . S
C2017 C2022 1.390 . S
C2018 C2012 1.465 . S
C2018 C2017 1.396 . S
C2018 C2019 1.399 1_556 S
C2019 H2005 0.929 . S
C2019 C2018 1.399 1_554 S
C2019 C2020 1.385 . S
C2020 H2006 0.931 . S
C2020 C2019 1.385 . S
C2020 C2021 1.389 1_554 S
C2021 C2020 1.389 1_556 S
C2021 C2022 1.387 . S
C2022 H2007 0.930 . S
C2022 C2017 1.390 . S
C2022 C2021 1.387 . S
H2023 C2035 0.930 . S
H2024 C2037 0.930 . S
H2025 C2038 0.930 . S
H2026 C2042 0.959 . S
H2027 C2042 0.959 . S
H2028 C2042 0.961 . S
H2029 C2043 0.960 . S
H2030 C2043 0.961 . S
H2031 C2043 0.959 . S
H2032 C2046 0.929 . S
H2033 C2047 0.931 . S
H2034 C2049 0.930 . S
C2035 H2023 0.930 . S
C2035 C2036 1.399 . S
C2035 C2040 1.399 . S
C2036 C2035 1.399 . S
C2036 C2037 1.376 . S
C2037 H2024 0.930 . S
C2037 C2036 1.376 . S
C2037 C2038 1.388 . S
C2038 H2025 0.930 . S
C2038 C2037 1.388 . S
C2038 C2039 1.390 . S
C2039 C2038 1.390 . S
C2039 C2040 1.394 . S
C2039 C2045 1.465 . S
C2040 C2035 1.399 . S
C2040 C2039 1.394 . S
C2040 C2041 1.516 . S
C2041 C2040 1.516 . S
C2041 C2042 1.502 . S
C2041 C2043 1.561 . S
C2041 C2044 1.526 . S
C2042 H2026 0.959 . S
C2042 H2027 0.959 . S
C2042 H2028 0.961 . S
C2042 C2041 1.502 . S
C2043 H2029 0.960 . S
C2043 H2030 0.961 . S
C2043 H2031 0.959 . S
C2043 C2041 1.561 . S
C2044 C2041 1.526 . S
C2044 C2045 1.396 . S
C2044 C2049 1.390 . S
C2045 C2039 1.465 . S
C2045 C2044 1.396 . S
C2045 C2046 1.399 . S
C2046 H2032 0.929 . S
C2046 C2045 1.399 . S
C2046 C2047 1.385 . S
C2047 H2033 0.931 . S
C2047 C2046 1.385 . S
C2047 C2048 1.389 . S
C2048 C2047 1.389 . S
C2048 C2049 1.387 . S
C2049 H2034 0.930 . S
C2049 C2044 1.390 . S
C2049 C2048 1.387 . S
H2050 C2062 0.930 . S
H2051 C2064 0.930 . S
H2052 C2065 0.930 1_556 S
H2053 C2069 0.959 . S
H2054 C2069 0.959 . S
H2055 C2069 0.961 . S
H2056 C2070 0.960 . S
H2057 C2070 0.961 . S
H2058 C2070 0.959 . S
H2059 C2073 0.929 . S
H2060 C2074 0.931 . S
H2061 C2076 0.930 . S
C2062 H2050 0.930 . S
C2062 C2063 1.399 . S
C2062 C2067 1.399 . S
C2063 C2062 1.399 . S
C2063 C2064 1.376 . S
C2064 H2051 0.930 . S
C2064 C2063 1.376 . S
C2064 C2065 1.388 . S
C2065 H2052 0.930 1_554 S
C2065 C2064 1.388 . S
C2065 C2066 1.390 . S
C2066 C2065 1.390 . S
C2066 C2067 1.394 . S
C2066 C2072 1.465 . S
C2067 C2062 1.399 . S
C2067 C2066 1.394 . S
C2067 C2068 1.516 . S
C2068 C2067 1.516 . S
C2068 C2069 1.502 . S
C2068 C2070 1.561 . S
C2068 C2071 1.526 . S
C2069 H2053 0.959 . S
C2069 H2054 0.959 . S
C2069 H2055 0.961 . S
C2069 C2068 1.502 . S
C2070 H2056 0.960 . S
C2070 H2057 0.961 . S
C2070 H2058 0.959 . S
C2070 C2068 1.561 . S
C2071 C2068 1.526 . S
C2071 C2072 1.396 . S
C2071 C2076 1.390 . S
C2072 C2066 1.465 . S
C2072 C2071 1.396 . S
C2072 C2073 1.399 1_554 S
C2073 H2059 0.929 . S
C2073 C2072 1.399 1_556 S
C2073 C2074 1.385 . S
C2074 H2060 0.931 . S
C2074 C2073 1.385 . S
C2074 C2075 1.389 1_556 S
C2075 C2074 1.389 1_554 S
C2075 C2076 1.387 . S
C2076 H2061 0.930 . S
C2076 C2071 1.390 . S
C2076 C2075 1.387 . S
H2077 C2089 0.930 1_556 S
H2078 C2091 0.930 . S
H2079 C2092 0.930 . S
H2080 C2096 0.959 . S
H2081 C2096 0.959 . S
H2082 C2096 0.961 . S
H2083 C2097 0.960 . S
H2084 C2097 0.961 . S
H2085 C2097 0.959 1_554 S
H2086 C2100 0.929 . S
H2087 C2101 0.931 . S
H2088 C2103 0.930 1_556 S
C2089 H2077 0.930 1_554 S
C2089 C2090 1.399 . S
C2089 C2094 1.399 . S
C2090 C2089 1.399 . S
C2090 C2091 1.376 . S
C2091 H2078 0.930 . S
C2091 C2090 1.376 . S
C2091 C2092 1.388 . S
C2092 H2079 0.930 . S
C2092 C2091 1.388 . S
C2092 C2093 1.390 . S
C2093 C2092 1.390 . S
C2093 C2094 1.394 . S
C2093 C2099 1.465 . S
C2094 C2089 1.399 . S
C2094 C2093 1.394 . S
C2094 C2095 1.516 1_554 S
C2095 C2094 1.516 1_556 S
C2095 C2096 1.502 . S
C2095 C2097 1.561 . S
C2095 C2098 1.526 1_556 S
C2096 H2080 0.959 . S
C2096 H2081 0.959 . S
C2096 H2082 0.961 . S
C2096 C2095 1.502 . S
C2097 H2083 0.960 . S
C2097 H2084 0.961 . S
C2097 H2085 0.959 1_556 S
C2097 C2095 1.561 . S
C2098 C2095 1.526 1_554 S
C2098 C2099 1.396 . S
C2098 C2103 1.390 . S
C2099 C2093 1.465 . S
C2099 C2098 1.396 . S
C2099 C2100 1.399 . S
C2100 H2086 0.929 . S
C2100 C2099 1.399 . S
C2100 C2101 1.385 . S
C2101 H2087 0.931 . S
C2101 C2100 1.385 . S
C2101 C2102 1.389 . S
C2102 C2101 1.389 . S
C2102 C2103 1.387 . S
C2103 H2088 0.930 1_554 S
C2103 C2098 1.390 . S
C2103 C2102 1.387 . S
C833 C648 1.469 . S
C821 C202 1.496 . S
C860 C661 1.501 . S
C848 C261 1.478 . S
C875 C282 1.678 . S
C887 C681 1.584 . S
C914 C695 1.349 . S
C902 C162 1.393 . S
C941 C707 1.506 . S
C929 C402 1.470 . S
C968 C721 1.419 . S
C956 C482 1.398 . S
C983 C442 1.458 . S
C995 C731 1.498 . S
C1022 C746 1.491 . S
C1010 C381 1.553 . S
C1037 C461 1.539 . S
C1049 C760 1.546 . S
C1076 C779 1.377 . S
C1064 C362 1.398 . S
C1091 C415 1.450 . S
C1103 C759 1.416 . S
C1130 C777 1.422 . S
C1118 C495 1.434 . S
C1145 C301 1.716 . S
C1157 C793 1.551 . S
C1172 C175 1.492 . S
C1184 C787 1.482 . S
C1199 C215 1.474 . S
C1211 C791 1.477 . S
C1226 C242 1.467 . S
C1238 C788 1.481 . S
C1253 C141 1.543 . S
C1265 C690 1.536 . S
C1280 C581 1.504 . S
C1292 C689 1.522 . S
C1319 C653 1.305 . S
C1307 C615 1.378 . S
C1346 C667 1.520 . S
C1334 C335 1.664 . S
C1361 C181 1.551 . S
C1373 C704 1.590 . S
C1400 C749 1.493 . S
C1388 C455 1.497 . S
C1427 C703 1.438 . S
C1415 C375 1.440 . S
C1454 C735 1.462 . S
C1442 C501 1.474 . S
C1481 C732 1.481 . S
C1469 C562 1.483 . S
C1496 C621 1.452 . S
C1508 C745 1.474 . S
C1523 C322 1.671 . S
C1535 C709 1.516 . S
C1562 C723 1.339 . S
C1550 C522 1.408 . S
C1577 C122 1.487 . S
C1589 C679 1.498 . S
C1616 C693 1.421 . S
C1604 C2 1.401 . S
C1643 C647 1.469 . S
C1631 C42 1.496 . S
C1670 C662 1.547 . S
C1658 C101 1.508 . S
C1685 C61 1.540 . S
C1697 C774 1.501 . S
C1712 C82 1.381 . S
C1724 C765 1.315 . S
C1739 C135 1.449 . S
C1751 C773 1.418 . S
C1766 C15 1.437 . S
C1778 C763 1.423 . S
C1805 C807 1.623 . S
C1793 C341 1.715 . S
C1832 C801 1.506 . S
C1820 C535 1.502 . S
C1859 C805 1.485 . S
C1847 C575 1.479 . S
C1874 C602 1.514 . S
C1886 C802 1.489 . S
C1901 C421 1.541 . S
C1913 C718 1.539 . S
C1940 C717 1.526 . S
C1928 C221 1.507 . S
C1967 C737 1.370 . S
C1955 C255 1.398 . S
C1994 C751 1.509 . S
C1982 C295 1.652 . S
C2009 C541 1.553 . S
C2021 C676 1.591 . S
C2048 C665 1.492 . S
C2036 C55 1.497 . S
C2063 C95 1.419 . S
C2075 C675 1.418 . S
C2102 C651 1.460 . S
C2090 C21 1.470 . S
