# Generated by pormake.
# Topology gar, (4,6)-cn, num edge types: 1
# Building blocks:
#     Node 0, Type 0, BuildingBlock: TATPOV_clean_sbu_0, # of connection points: 4
#     Node 1, Type 0, BuildingBlock: TATPOV_clean_sbu_0, # of connection points: 4
#     Node 2, Type 0, BuildingBlock: TATPOV_clean_sbu_0, # of connection points: 4
#     Node 3, Type 0, BuildingBlock: TATPOV_clean_sbu_0, # of connection points: 4
#     Node 4, Type 0, BuildingBlock: TATPOV_clean_sbu_0, # of connection points: 4
#     Node 5, Type 0, BuildingBlock: TATPOV_clean_sbu_0, # of connection points: 4
#     Node 6, Type 0, BuildingBlock: TATPOV_clean_sbu_0, # of connection points: 4
#     Node 7, Type 0, BuildingBlock: TATPOV_clean_sbu_0, # of connection points: 4
#     Node 8, Type 0, BuildingBlock: TATPOV_clean_sbu_0, # of connection points: 4
#     Node 9, Type 0, BuildingBlock: TATPOV_clean_sbu_0, # of connection points: 4
#     Node 10, Type 0, BuildingBlock: TATPOV_clean_sbu_0, # of connection points: 4
#     Node 11, Type 0, BuildingBlock: TATPOV_clean_sbu_0, # of connection points: 4
#     Node 12, Type 0, BuildingBlock: TATPOV_clean_sbu_0, # of connection points: 4
#     Node 13, Type 0, BuildingBlock: TATPOV_clean_sbu_0, # of connection points: 4
#     Node 14, Type 0, BuildingBlock: TATPOV_clean_sbu_0, # of connection points: 4
#     Node 15, Type 0, BuildingBlock: TATPOV_clean_sbu_0, # of connection points: 4
#     Node 16, Type 0, BuildingBlock: TATPOV_clean_sbu_0, # of connection points: 4
#     Node 17, Type 0, BuildingBlock: TATPOV_clean_sbu_0, # of connection points: 4
#     Node 18, Type 0, BuildingBlock: TATPOV_clean_sbu_0, # of connection points: 4
#     Node 19, Type 0, BuildingBlock: TATPOV_clean_sbu_0, # of connection points: 4
#     Node 20, Type 0, BuildingBlock: TATPOV_clean_sbu_0, # of connection points: 4
#     Node 21, Type 0, BuildingBlock: TATPOV_clean_sbu_0, # of connection points: 4
#     Node 22, Type 0, BuildingBlock: TATPOV_clean_sbu_0, # of connection points: 4
#     Node 23, Type 0, BuildingBlock: TATPOV_clean_sbu_0, # of connection points: 4
#     Node 24, Type 1, BuildingBlock: BETDIP_clean_sbu_0, # of connection points: 6
#     Node 25, Type 1, BuildingBlock: BETDIP_clean_sbu_0, # of connection points: 6
#     Node 26, Type 1, BuildingBlock: BETDIP_clean_sbu_0, # of connection points: 6
#     Node 27, Type 1, BuildingBlock: BETDIP_clean_sbu_0, # of connection points: 6
#     Node 28, Type 1, BuildingBlock: BETDIP_clean_sbu_0, # of connection points: 6
#     Node 29, Type 1, BuildingBlock: BETDIP_clean_sbu_0, # of connection points: 6
#     Node 30, Type 1, BuildingBlock: BETDIP_clean_sbu_0, # of connection points: 6
#     Node 31, Type 1, BuildingBlock: BETDIP_clean_sbu_0, # of connection points: 6
#     Node 32, Type 1, BuildingBlock: BETDIP_clean_sbu_0, # of connection points: 6
#     Node 33, Type 1, BuildingBlock: BETDIP_clean_sbu_0, # of connection points: 6
#     Node 34, Type 1, BuildingBlock: BETDIP_clean_sbu_0, # of connection points: 6
#     Node 35, Type 1, BuildingBlock: BETDIP_clean_sbu_0, # of connection points: 6
#     Node 36, Type 1, BuildingBlock: BETDIP_clean_sbu_0, # of connection points: 6
#     Node 37, Type 1, BuildingBlock: BETDIP_clean_sbu_0, # of connection points: 6
#     Node 38, Type 1, BuildingBlock: BETDIP_clean_sbu_0, # of connection points: 6
#     Node 39, Type 1, BuildingBlock: BETDIP_clean_sbu_0, # of connection points: 6
#     Edge 40, Type (0, 1), BuildingBlock: EZIPEK_clean_linker_0, # of connection points: 2
#     Edge 41, Type (0, 1), BuildingBlock: EZIPEK_clean_linker_0, # of connection points: 2
#     Edge 42, Type (0, 1), BuildingBlock: EZIPEK_clean_linker_0, # of connection points: 2
#     Edge 43, Type (0, 1), BuildingBlock: EZIPEK_clean_linker_0, # of connection points: 2
#     Edge 44, Type (0, 1), BuildingBlock: EZIPEK_clean_linker_0, # of connection points: 2
#     Edge 45, Type (0, 1), BuildingBlock: EZIPEK_clean_linker_0, # of connection points: 2
#     Edge 46, Type (0, 1), BuildingBlock: EZIPEK_clean_linker_0, # of connection points: 2
#     Edge 47, Type (0, 1), BuildingBlock: EZIPEK_clean_linker_0, # of connection points: 2
#     Edge 48, Type (0, 1), BuildingBlock: EZIPEK_clean_linker_0, # of connection points: 2
#     Edge 49, Type (0, 1), BuildingBlock: EZIPEK_clean_linker_0, # of connection points: 2
#     Edge 50, Type (0, 1), BuildingBlock: EZIPEK_clean_linker_0, # of connection points: 2
#     Edge 51, Type (0, 1), BuildingBlock: EZIPEK_clean_linker_0, # of connection points: 2
#     Edge 52, Type (0, 1), BuildingBlock: EZIPEK_clean_linker_0, # of connection points: 2
#     Edge 53, Type (0, 1), BuildingBlock: EZIPEK_clean_linker_0, # of connection points: 2
#     Edge 54, Type (0, 1), BuildingBlock: EZIPEK_clean_linker_0, # of connection points: 2
#     Edge 55, Type (0, 1), BuildingBlock: EZIPEK_clean_linker_0, # of connection points: 2
#     Edge 56, Type (0, 1), BuildingBlock: EZIPEK_clean_linker_0, # of connection points: 2
#     Edge 57, Type (0, 1), BuildingBlock: EZIPEK_clean_linker_0, # of connection points: 2
#     Edge 58, Type (0, 1), BuildingBlock: EZIPEK_clean_linker_0, # of connection points: 2
#     Edge 59, Type (0, 1), BuildingBlock: EZIPEK_clean_linker_0, # of connection points: 2
#     Edge 60, Type (0, 1), BuildingBlock: EZIPEK_clean_linker_0, # of connection points: 2
#     Edge 61, Type (0, 1), BuildingBlock: EZIPEK_clean_linker_0, # of connection points: 2
#     Edge 62, Type (0, 1), BuildingBlock: EZIPEK_clean_linker_0, # of connection points: 2
#     Edge 63, Type (0, 1), BuildingBlock: EZIPEK_clean_linker_0, # of connection points: 2
#     Edge 64, Type (0, 1), BuildingBlock: EZIPEK_clean_linker_0, # of connection points: 2
#     Edge 65, Type (0, 1), BuildingBlock: EZIPEK_clean_linker_0, # of connection points: 2
#     Edge 66, Type (0, 1), BuildingBlock: EZIPEK_clean_linker_0, # of connection points: 2
#     Edge 67, Type (0, 1), BuildingBlock: EZIPEK_clean_linker_0, # of connection points: 2
#     Edge 68, Type (0, 1), BuildingBlock: EZIPEK_clean_linker_0, # of connection points: 2
#     Edge 69, Type (0, 1), BuildingBlock: EZIPEK_clean_linker_0, # of connection points: 2
#     Edge 70, Type (0, 1), BuildingBlock: EZIPEK_clean_linker_0, # of connection points: 2
#     Edge 71, Type (0, 1), BuildingBlock: EZIPEK_clean_linker_0, # of connection points: 2
#     Edge 72, Type (0, 1), BuildingBlock: EZIPEK_clean_linker_0, # of connection points: 2
#     Edge 73, Type (0, 1), BuildingBlock: EZIPEK_clean_linker_0, # of connection points: 2
#     Edge 74, Type (0, 1), BuildingBlock: EZIPEK_clean_linker_0, # of connection points: 2
#     Edge 75, Type (0, 1), BuildingBlock: EZIPEK_clean_linker_0, # of connection points: 2
#     Edge 76, Type (0, 1), BuildingBlock: EZIPEK_clean_linker_0, # of connection points: 2
#     Edge 77, Type (0, 1), BuildingBlock: EZIPEK_clean_linker_0, # of connection points: 2
#     Edge 78, Type (0, 1), BuildingBlock: EZIPEK_clean_linker_0, # of connection points: 2
#     Edge 79, Type (0, 1), BuildingBlock: EZIPEK_clean_linker_0, # of connection points: 2
#     Edge 80, Type (0, 1), BuildingBlock: EZIPEK_clean_linker_0, # of connection points: 2
#     Edge 81, Type (0, 1), BuildingBlock: EZIPEK_clean_linker_0, # of connection points: 2
#     Edge 82, Type (0, 1), BuildingBlock: EZIPEK_clean_linker_0, # of connection points: 2
#     Edge 83, Type (0, 1), BuildingBlock: EZIPEK_clean_linker_0, # of connection points: 2
#     Edge 84, Type (0, 1), BuildingBlock: EZIPEK_clean_linker_0, # of connection points: 2
#     Edge 85, Type (0, 1), BuildingBlock: EZIPEK_clean_linker_0, # of connection points: 2
#     Edge 86, Type (0, 1), BuildingBlock: EZIPEK_clean_linker_0, # of connection points: 2
#     Edge 87, Type (0, 1), BuildingBlock: EZIPEK_clean_linker_0, # of connection points: 2
#     Edge 88, Type (0, 1), BuildingBlock: EZIPEK_clean_linker_0, # of connection points: 2
#     Edge 89, Type (0, 1), BuildingBlock: EZIPEK_clean_linker_0, # of connection points: 2
#     Edge 90, Type (0, 1), BuildingBlock: EZIPEK_clean_linker_0, # of connection points: 2
#     Edge 91, Type (0, 1), BuildingBlock: EZIPEK_clean_linker_0, # of connection points: 2
#     Edge 92, Type (0, 1), BuildingBlock: EZIPEK_clean_linker_0, # of connection points: 2
#     Edge 93, Type (0, 1), BuildingBlock: EZIPEK_clean_linker_0, # of connection points: 2
#     Edge 94, Type (0, 1), BuildingBlock: EZIPEK_clean_linker_0, # of connection points: 2
#     Edge 95, Type (0, 1), BuildingBlock: EZIPEK_clean_linker_0, # of connection points: 2
#     Edge 96, Type (0, 1), BuildingBlock: EZIPEK_clean_linker_0, # of connection points: 2
#     Edge 97, Type (0, 1), BuildingBlock: EZIPEK_clean_linker_0, # of connection points: 2
#     Edge 98, Type (0, 1), BuildingBlock: EZIPEK_clean_linker_0, # of connection points: 2
#     Edge 99, Type (0, 1), BuildingBlock: EZIPEK_clean_linker_0, # of connection points: 2
#     Edge 100, Type (0, 1), BuildingBlock: EZIPEK_clean_linker_0, # of connection points: 2
#     Edge 101, Type (0, 1), BuildingBlock: EZIPEK_clean_linker_0, # of connection points: 2
#     Edge 102, Type (0, 1), BuildingBlock: EZIPEK_clean_linker_0, # of connection points: 2
#     Edge 103, Type (0, 1), BuildingBlock: EZIPEK_clean_linker_0, # of connection points: 2
#     Edge 104, Type (0, 1), BuildingBlock: EZIPEK_clean_linker_0, # of connection points: 2
#     Edge 105, Type (0, 1), BuildingBlock: EZIPEK_clean_linker_0, # of connection points: 2
#     Edge 106, Type (0, 1), BuildingBlock: EZIPEK_clean_linker_0, # of connection points: 2
#     Edge 107, Type (0, 1), BuildingBlock: EZIPEK_clean_linker_0, # of connection points: 2
#     Edge 108, Type (0, 1), BuildingBlock: EZIPEK_clean_linker_0, # of connection points: 2
#     Edge 109, Type (0, 1), BuildingBlock: EZIPEK_clean_linker_0, # of connection points: 2
#     Edge 110, Type (0, 1), BuildingBlock: EZIPEK_clean_linker_0, # of connection points: 2
#     Edge 111, Type (0, 1), BuildingBlock: EZIPEK_clean_linker_0, # of connection points: 2
#     Edge 112, Type (0, 1), BuildingBlock: EZIPEK_clean_linker_0, # of connection points: 2
#     Edge 113, Type (0, 1), BuildingBlock: EZIPEK_clean_linker_0, # of connection points: 2
#     Edge 114, Type (0, 1), BuildingBlock: EZIPEK_clean_linker_0, # of connection points: 2
#     Edge 115, Type (0, 1), BuildingBlock: EZIPEK_clean_linker_0, # of connection points: 2
#     Edge 116, Type (0, 1), BuildingBlock: EZIPEK_clean_linker_0, # of connection points: 2
#     Edge 117, Type (0, 1), BuildingBlock: EZIPEK_clean_linker_0, # of connection points: 2
#     Edge 118, Type (0, 1), BuildingBlock: EZIPEK_clean_linker_0, # of connection points: 2
#     Edge 119, Type (0, 1), BuildingBlock: EZIPEK_clean_linker_0, # of connection points: 2
#     Edge 120, Type (0, 1), BuildingBlock: EZIPEK_clean_linker_0, # of connection points: 2
#     Edge 121, Type (0, 1), BuildingBlock: EZIPEK_clean_linker_0, # of connection points: 2
#     Edge 122, Type (0, 1), BuildingBlock: EZIPEK_clean_linker_0, # of connection points: 2
#     Edge 123, Type (0, 1), BuildingBlock: EZIPEK_clean_linker_0, # of connection points: 2
#     Edge 124, Type (0, 1), BuildingBlock: EZIPEK_clean_linker_0, # of connection points: 2
#     Edge 125, Type (0, 1), BuildingBlock: EZIPEK_clean_linker_0, # of connection points: 2
#     Edge 126, Type (0, 1), BuildingBlock: EZIPEK_clean_linker_0, # of connection points: 2
#     Edge 127, Type (0, 1), BuildingBlock: EZIPEK_clean_linker_0, # of connection points: 2
#     Edge 128, Type (0, 1), BuildingBlock: EZIPEK_clean_linker_0, # of connection points: 2
#     Edge 129, Type (0, 1), BuildingBlock: EZIPEK_clean_linker_0, # of connection points: 2
#     Edge 130, Type (0, 1), BuildingBlock: EZIPEK_clean_linker_0, # of connection points: 2
#     Edge 131, Type (0, 1), BuildingBlock: EZIPEK_clean_linker_0, # of connection points: 2
#     Edge 132, Type (0, 1), BuildingBlock: EZIPEK_clean_linker_0, # of connection points: 2
#     Edge 133, Type (0, 1), BuildingBlock: EZIPEK_clean_linker_0, # of connection points: 2
#     Edge 134, Type (0, 1), BuildingBlock: EZIPEK_clean_linker_0, # of connection points: 2
#     Edge 135, Type (0, 1), BuildingBlock: EZIPEK_clean_linker_0, # of connection points: 2
# Relax obj value: 0.262
# Max RMSD: 0.376
# Mean RMSD: 0.185
data_MOF--net-gar--node1-TATPOV_clean_sbu_0--node2-BETDIP_clean_sbu_0--edge1-EZIPEK_clean_linker_0
_symmetry_space_group_name_H-M    P1
_symmetry_Int_Tables_number       1
_symmetry_cell_setting            triclinic
loop_
_symmetry_equiv_pos_as_xyz
'x, y, z'
_cell_length_a     49.193736
_cell_length_b     43.008431
_cell_length_c     40.923459
_cell_angle_alpha  99.389505
_cell_angle_beta   101.30619
_cell_angle_gamma 104.94075
loop_
_atom_site_label
_atom_site_type_symbol
_atom_site_fract_x
_atom_site_fract_y
_atom_site_fract_z
_atom_type_partial_charge
Zn0 Zn 1.0002 0.32304 0.46494 0.0
Zn1 Zn 0.03706 0.33789 0.433 0.0
O2 O 0.05177 0.37212 0.4802 0.0
O3 O 1.0096 0.36958 0.49075 0.0
O4 O 0.07006 0.34299 0.40889 0.0
O5 O 0.01884 0.29148 0.48403 0.0
O6 O 0.03645 0.29197 0.4388 0.0
C7 C 0.0366 0.38364 0.49822 0.0
C8 C 0.97307 0.32321 0.40045 0.0
O9 O 0.99893 0.33966 0.40111 0.0
O10 O 0.96835 0.30773 0.42341 0.0
C11 C 0.07149 0.34769 0.3793 0.0
O12 O 0.05072 0.3561 0.36077 0.0
C13 C 0.03193 0.27957 0.46395 0.0
Zn14 Zn 0.06498 0.71808 0.77382 0.0
Zn15 Zn 0.08866 0.78015 0.7682 0.0
O16 O 0.05801 0.78647 0.79145 0.0
O17 O 0.04126 0.73847 0.80375 0.0
O18 O 0.10341 0.82302 0.75682 0.0
O19 O 0.10964 0.72312 0.78263 0.0
O20 O 0.12412 0.77698 0.79889 0.0
C21 C 0.04112 0.76812 0.80496 0.0
C22 C 0.06003 0.71957 0.70556 0.0
O23 O 0.0768 0.7484 0.7206 0.0
O24 O 0.04702 0.70142 0.72267 0.0
C25 C 0.08539 0.82905 0.73409 0.0
O26 O 0.05893 0.80862 0.72244 0.0
C27 C 0.13014 0.75011 0.79301 0.0
Zn28 Zn 0.51062 0.82008 0.98798 0.0
Zn29 Zn 0.53914 0.83752 0.94061 0.0
O30 O 0.559 0.87339 0.98497 0.0
O31 O 0.53957 0.85679 0.02535 0.0
O32 O 0.56524 0.84212 0.90771 0.0
O33 O 0.51253 0.7737 0.97802 0.0
O34 O 0.53661 0.78967 0.94098 0.0
C35 C 0.55772 0.87816 0.01618 0.0
C36 C 0.4774 0.83842 0.93079 0.0
O37 O 0.49986 0.84254 0.91889 0.0
O38 O 0.47748 0.82997 0.95902 0.0
C39 C 0.59244 0.8566 0.91738 0.0
O40 O 0.60339 0.87677 0.94762 0.0
C41 C 0.52529 0.76714 0.95499 0.0
Zn42 Zn 0.56436 0.2043 0.28212 0.0
Zn43 Zn 0.57945 0.26571 0.2708 0.0
O44 O 0.54601 0.26807 0.29126 0.0
O45 O 0.54046 0.22373 0.31275 0.0
O46 O 0.59282 0.30922 0.25946 0.0
O47 O 0.60921 0.21505 0.2904 0.0
O48 O 0.61504 0.26748 0.30462 0.0
C49 C 0.5342 0.25012 0.30938 0.0
C50 C 0.55804 0.20259 0.21266 0.0
O51 O 0.57185 0.23292 0.22528 0.0
O52 O 0.547 0.18453 0.23118 0.0
C53 C 0.5821 0.31211 0.22982 0.0
O54 O 0.56165 0.28729 0.20824 0.0
C55 C 0.62618 0.24432 0.30049 0.0
Zn56 Zn 0.13291 0.82745 0.14843 0.0
Zn57 Zn 0.09867 0.82453 0.19219 0.0
O58 O 0.09243 0.8635 0.16705 0.0
O59 O 0.12052 0.8657 0.13122 0.0
O60 O 0.06779 0.81889 0.22075 0.0
O61 O 0.11331 0.77793 0.12608 0.0
O62 O 0.08639 0.77637 0.16322 0.0
C63 C 0.10241 0.87663 0.14409 0.0
C64 C 0.16507 0.83335 0.21817 0.0
O65 O 0.14011 0.83061 0.22457 0.0
O66 O 0.16816 0.83535 0.18844 0.0
C67 C 0.05811 0.84099 0.23499 0.0
O68 O 0.06949 0.87198 0.23426 0.0
C69 C 0.09464 0.76151 0.13915 0.0
Zn70 Zn 0.48527 0.77447 0.53736 0.0
Zn71 Zn 0.51806 0.77424 0.49244 0.0
O72 O 0.53297 0.82319 0.52071 0.0
O73 O 0.50648 0.82374 0.55831 0.0
O74 O 0.54817 0.77242 0.46302 0.0
O75 O 0.49564 0.73565 0.55606 0.0
O76 O 0.5206 0.73391 0.51716 0.0
C77 C 0.52508 0.83916 0.54448 0.0
C78 C 0.45293 0.77104 0.46803 0.0
O79 O 0.47739 0.7718 0.46091 0.0
O80 O 0.44997 0.76872 0.49778 0.0
C81 C 0.56365 0.79695 0.45429 0.0
O82 O 0.55938 0.82591 0.46178 0.0
C83 C 0.51144 0.72215 0.54127 0.0
Zn84 Zn 0.63387 0.32747 0.64547 0.0
Zn85 Zn 0.59965 0.32527 0.68944 0.0
O86 O 0.5955 0.36548 0.66555 0.0
O87 O 0.62406 0.36759 0.63024 0.0
O88 O 0.57004 0.32202 0.71979 0.0
O89 O 0.61254 0.27932 0.62074 0.0
O90 O 0.58774 0.27694 0.66014 0.0
C91 C 0.60639 0.37909 0.64341 0.0
C92 C 0.66477 0.33136 0.71568 0.0
O93 O 0.64025 0.33096 0.72221 0.0
O94 O 0.6679 0.33164 0.68569 0.0
C95 C 0.54307 0.31778 0.70722 0.0
O96 O 0.53403 0.31622 0.67441 0.0
C97 C 0.59488 0.26255 0.63471 0.0
Zn98 Zn 0.983 0.27241 0.03196 0.0
Zn99 Zn 0.01696 0.27442 0.98868 0.0
O100 O 0.03135 0.32287 0.01776 0.0
O101 O 1.00339 0.32202 0.05377 0.0
O102 O 0.04784 0.27391 0.96043 0.0
O103 O 0.99379 0.23352 0.05048 0.0
O104 O 0.01985 0.2337 0.01269 0.0
C105 C 0.02259 0.33814 0.04111 0.0
C106 C 0.95173 0.27037 0.96253 0.0
O107 O 0.97669 0.27249 0.95632 0.0
O108 O 0.94801 0.26623 0.99159 0.0
C109 C 0.06381 0.29919 0.95338 0.0
O110 O 0.05938 0.32796 0.96172 0.0
C111 C 1.01039 0.22101 0.03616 0.0
Zn112 Zn 0.45872 0.03311 0.32298 0.0
Zn113 Zn 0.43202 0.08023 0.3266 0.0
O114 O 0.4611 0.08543 0.38044 0.0
O115 O 0.48262 0.04659 0.37255 0.0
O116 O 0.40992 0.12529 0.32699 0.0
O117 O 0.47711 0.03918 0.28302 0.0
O118 O 0.45681 0.07905 0.281 0.0
C119 C 0.47842 0.06933 0.39301 0.0
C120 C 0.39928 1.00063 0.31924 0.0
O121 O 0.39825 0.03103 0.3226 0.0
O122 O 0.4227 0.99485 0.31619 0.0
C123 C 0.38549 0.13132 0.33116 0.0
O124 O 0.36599 0.10717 0.3372 0.0
C125 C 0.47264 0.06184 0.26841 0.0
Zn126 Zn 0.2347 0.22227 0.55953 0.0
Zn127 Zn 0.27446 0.1897 0.56255 0.0
O128 O 0.2789 0.21708 0.52389 0.0
O129 O 0.24409 0.24063 0.51872 0.0
O130 O 0.30694 0.16706 0.56119 0.0
O131 O 0.25425 0.2473 0.60872 0.0
O132 O 0.28513 0.21797 0.61207 0.0
C133 C 0.26583 0.2353 0.5093 0.0
C134 C 0.20918 0.15307 0.55618 0.0
O135 O 0.23521 0.15213 0.55727 0.0
O136 O 0.20299 0.17976 0.55504 0.0
C137 C 0.31667 0.15224 0.5833 0.0
O138 O 0.30532 0.14985 0.60963 0.0
C139 C 0.27473 0.23946 0.6261 0.0
Zn140 Zn 0.13145 0.12028 0.8683 0.0
Zn141 Zn 0.16279 0.07815 0.87126 0.0
O142 O 0.14317 0.0718 0.91189 0.0
O143 O 0.11633 0.10548 0.90942 0.0
O144 O 0.18678 0.04708 0.87133 0.0
O145 O 0.11179 0.09586 0.81773 0.0
O146 O 0.13685 0.06051 0.82236 0.0
C147 C 0.12496 0.08418 0.9233 0.0
C148 C 0.19246 0.15194 0.87444 0.0
O149 O 0.19339 0.12252 0.87397 0.0
O150 O 0.16882 0.1587 0.87439 0.0
C151 C 0.20916 0.04997 0.89452 0.0
O152 O 0.21752 0.07411 0.92193 0.0
C153 C 0.11884 0.07133 0.80423 0.0
Zn154 Zn 0.2485 0.82155 0.97186 0.0
Zn155 Zn 0.22676 0.87626 0.00762 0.0
O156 O 0.19611 0.85864 0.96162 0.0
O157 O 0.20643 0.81661 0.9736 0.0
O158 O 0.21812 0.91081 0.03848 0.0
O159 O 0.26135 0.81083 0.01566 0.0
O160 O 0.24078 0.84674 0.03863 0.0
C161 C 0.19538 0.82924 0.95091 0.0
C162 C 0.28103 0.89575 0.98481 0.0
O163 O 0.26162 0.90322 0.9978 0.0
O164 O 0.27887 0.86582 0.97222 0.0
C165 C 0.21246 0.93474 0.02714 0.0
O166 O 0.20795 0.93339 0.99413 0.0
C167 C 0.25389 0.82471 0.04075 0.0
Zn168 Zn 0.38481 0.38284 0.13194 0.0
Zn169 Zn 0.34592 0.41503 0.12653 0.0
O170 O 0.33405 0.38597 0.07756 0.0
O171 O 0.3681 0.36108 0.08116 0.0
O172 O 0.3134 0.43756 0.12687 0.0
O173 O 0.37332 0.36204 0.17052 0.0
O174 O 0.3406 0.38846 0.16574 0.0
C175 C 0.34686 0.36737 0.0633 0.0
C176 C 0.41224 0.44988 0.13386 0.0
O177 O 0.38587 0.45078 0.12905 0.0
O178 O 0.4182 0.4241 0.13985 0.0
C179 C 0.30522 0.45553 0.1074 0.0
O180 O 0.31951 0.46356 0.08455 0.0
C181 C 0.35218 0.36897 0.18004 0.0
Zn182 Zn 0.85357 0.29163 0.13804 0.0
Zn183 Zn 0.89257 0.23544 0.12799 0.0
O184 O 0.9093 0.26927 0.10146 0.0
O185 O 0.8945 0.29479 0.13974 0.0
O186 O 0.90815 0.19773 0.11673 0.0
O187 O 0.87241 0.28545 0.1841 0.0
O188 O 0.89891 0.25034 0.17996 0.0
C189 C 0.90037 0.29314 0.11124 0.0
C190 C 0.82431 0.21818 0.11102 0.0
O191 O 0.84879 0.21309 0.11169 0.0
O192 O 0.82204 0.24717 0.11878 0.0
C193 C 0.90597 0.18798 0.08502 0.0
O194 O 0.89654 0.20445 0.06329 0.0
C195 C 0.88844 0.26952 0.19762 0.0
Zn196 Zn 0.15595 0.56844 0.35509 0.0
Zn197 Zn 0.18518 0.5281 0.35499 0.0
O198 O 0.16506 0.53464 0.40388 0.0
O199 O 0.13414 0.56207 0.39135 0.0
O200 O 0.20647 0.48274 0.35457 0.0
O201 O 0.13369 0.55897 0.30718 0.0
O202 O 0.15451 0.51975 0.30037 0.0
C203 C 0.14569 0.54829 0.41282 0.0
C204 C 0.21449 0.6064 0.36193 0.0
O205 O 0.21803 0.57713 0.35859 0.0
O206 O 0.18984 0.60902 0.36404 0.0
C207 C 0.2325 0.47823 0.36143 0.0
O208 O 0.25491 0.50502 0.37183 0.0
C209 C 0.13729 0.53567 0.28712 0.0
Zn210 Zn 0.88141 0.87907 0.62676 0.0
Zn211 Zn 0.84506 0.91446 0.62398 0.0
O212 O 0.82997 0.88353 0.57537 0.0
O213 O 0.85969 0.85345 0.57821 0.0
O214 O 0.8156 0.94133 0.62633 0.0
O215 O 0.87263 0.86223 0.6683 0.0
O216 O 0.84025 0.88922 0.66449 0.0
C217 C 0.83837 0.86024 0.56116 0.0
C218 C 0.91114 0.94518 0.62673 0.0
O219 O 0.88563 0.94818 0.62506 0.0
O220 O 0.91573 0.91806 0.62993 0.0
C221 C 0.80113 0.94858 0.60072 0.0
O222 O 0.80545 0.94 0.57033 0.0
C223 C 0.85223 0.87003 0.67887 0.0
Zn224 Zn 0.98901 0.97319 0.3089 0.0
Zn225 Zn 0.95979 0.01755 0.31024 0.0
O226 O 0.9876 0.03365 0.35765 0.0
O227 O 1.0101 0.9957 0.35967 0.0
O228 O 0.93765 0.05015 0.31131 0.0
O229 O 1.00335 0.98934 0.26779 0.0
O230 O 0.9768 0.0233 0.2683 0.0
C231 C 1.00517 0.02136 0.37423 0.0
C232 C 0.92786 0.94461 0.30616 0.0
O233 O 0.92837 0.97467 0.30858 0.0
O234 O 0.95036 0.93627 0.30303 0.0
C235 C 0.93008 0.05888 0.33844 0.0
O236 O 0.93675 0.04626 0.36496 0.0
C237 C 0.99425 1.01103 0.25519 0.0
Zn238 Zn 0.38328 0.80019 0.65632 0.0
Zn239 Zn 0.40138 0.73101 0.64927 0.0
O240 O 0.42587 0.75338 0.62043 0.0
O241 O 0.42168 0.79551 0.65058 0.0
O242 O 0.40769 0.68631 0.6438 0.0
O243 O 0.39132 0.79559 0.70459 0.0
O244 O 0.40701 0.75102 0.70046 0.0
C245 C 0.42304 0.78166 0.62173 0.0
C246 C 0.3382 0.73339 0.62678 0.0
O247 O 0.35882 0.7206 0.62788 0.0
O248 O 0.34317 0.76446 0.63594 0.0
C249 C 0.3872 0.65988 0.62885 0.0
O250 O 0.36026 0.66052 0.62052 0.0
C251 C 0.40093 0.77461 0.71811 0.0
Zn252 Zn 0.49077 0.47219 0.806 0.0
Zn253 Zn 0.46357 0.51842 0.8118 0.0
O254 O 0.48999 0.53026 0.85955 0.0
O255 O 0.5122 0.49191 0.85731 0.0
O256 O 0.44258 0.55254 0.81628 0.0
O257 O 0.50564 0.48959 0.76617 0.0
O258 O 0.48429 0.52831 0.77285 0.0
C259 C 0.50737 0.51658 0.87415 0.0
C260 C 0.43012 0.44396 0.8025 0.0
O261 O 0.43124 0.4744 0.80681 0.0
O262 O 0.45225 0.4354 0.79827 0.0
C263 C 0.43248 0.55664 0.84243 0.0
O264 O 0.43513 0.53803 0.8646 0.0
C265 C 0.50001 0.51477 0.75754 0.0
Zn266 Zn 0.65923 0.0734 0.85937 0.0
Zn267 Zn 0.68823 0.03179 0.85856 0.0
O268 O 0.66776 0.03698 0.90776 0.0
O269 O 0.63904 0.06756 0.89728 0.0
O270 O 0.71326 0.98933 0.85548 0.0
O271 O 0.63622 0.06247 0.8112 0.0
O272 O 0.65732 0.02353 0.80405 0.0
C273 C 0.64933 0.05185 0.91759 0.0
C274 C 0.71735 0.11102 0.86517 0.0
O275 O 0.72055 0.08159 0.86223 0.0
O276 O 0.6928 0.11405 0.86712 0.0
C277 C 0.72134 0.96893 0.87378 0.0
O278 O 0.71477 0.97018 0.90346 0.0
C279 C 0.63985 0.03927 0.79094 0.0
Zn280 Zn 0.73502 0.7223 0.06008 0.0
Zn281 Zn 0.77276 0.68729 0.06179 0.0
O282 O 0.77941 0.71546 0.02383 0.0
O283 O 0.7457 0.74058 0.01983 0.0
O284 O 0.8013 0.6591 0.06112 0.0
O285 O 0.75581 0.74531 0.1102 0.0
O286 O 0.7862 0.71542 0.11104 0.0
C287 C 0.76714 0.73477 0.01003 0.0
C288 C 0.70599 0.65532 0.05685 0.0
O289 O 0.73189 0.65348 0.05907 0.0
O290 O 0.7006 0.68209 0.05376 0.0
C291 C 0.82787 0.67113 0.06094 0.0
O292 O 0.83748 0.70236 0.06001 0.0
C293 C 0.77656 0.73694 0.12632 0.0
Zn294 Zn 0.96329 0.53712 0.82439 0.0
Zn295 Zn 0.9351 0.58241 0.82561 0.0
O296 O 0.96292 0.58908 0.88028 0.0
O297 O 0.98562 0.55113 0.8742 0.0
O298 O 0.90826 0.62336 0.82308 0.0
O299 O 0.98335 0.54326 0.78644 0.0
O300 O 0.96177 0.58187 0.78175 0.0
C301 C 0.98041 0.57363 0.8938 0.0
C302 C 0.90453 0.50181 0.81628 0.0
O303 O 0.90259 0.53184 0.81974 0.0
O304 O 0.92876 0.49731 0.81532 0.0
C305 C 0.90485 0.64884 0.84338 0.0
O306 O 0.91976 0.65661 0.87543 0.0
C307 C 0.97868 0.5652 0.77088 0.0
Zn308 Zn 0.76201 0.33396 0.55653 0.0
Zn309 Zn 0.73778 0.37898 0.54898 0.0
O310 O 0.73827 0.35769 0.50002 0.0
O311 O 0.74621 0.311 0.50763 0.0
O312 O 0.71939 0.41508 0.5468 0.0
O313 O 0.74087 0.31824 0.5892 0.0
O314 O 0.71504 0.3518 0.57788 0.0
C315 C 0.74163 0.32999 0.4881 0.0
C316 C 0.80226 0.39911 0.57672 0.0
O317 O 0.779 0.40718 0.57291 0.0
O318 O 0.80119 0.36896 0.57066 0.0
C319 C 0.73217 0.44158 0.5392 0.0
O320 O 0.75422 0.44269 0.5253 0.0
C321 C 0.71977 0.32903 0.59243 0.0
Zn322 Zn 0.63031 0.62562 0.37617 0.0
Zn323 Zn 0.6592 0.58057 0.37484 0.0
O324 O 0.63868 0.57324 0.41424 0.0
O325 O 0.61393 0.60916 0.41536 0.0
O326 O 0.67928 0.54556 0.37202 0.0
O327 O 0.60978 0.6048 0.32523 0.0
O328 O 0.63346 0.5678 0.32616 0.0
C329 C 0.62127 0.58605 0.42691 0.0
C330 C 0.69214 0.65391 0.38236 0.0
O331 O 0.69179 0.62384 0.37963 0.0
O332 O 0.66927 0.66189 0.38416 0.0
C333 C 0.70466 0.54885 0.38936 0.0
O334 O 0.71918 0.57626 0.41234 0.0
C335 C 0.61593 0.58041 0.30985 0.0
Tb336 Tb 0.02598 0.02485 0.06298 0.0
Tb337 Tb 0.08335 0.06893 0.11208 0.0
C338 C 0.97228 0.99831 0.0441 0.0
C339 C 0.95038 1.01335 0.03018 0.0
C340 C 0.92696 1.01191 0.04528 0.0
C341 C 0.91481 0.03788 0.04733 0.0
C342 C 0.92589 0.06512 0.03397 0.0
C343 C 0.94618 0.06417 0.01443 0.0
C344 C 0.95835 0.03824 0.01241 0.0
C345 C 0.06467 0.04447 0.02678 0.0
C346 C 0.03972 0.1045 0.07737 0.0
C347 C 0.13724 0.09442 0.13367 0.0
C348 C 0.15951 0.08141 0.12249 0.0
C349 C 0.15231 0.06109 0.08962 0.0
C350 C 0.17084 0.04393 0.08001 0.0
C351 C 0.19695 0.04667 0.10301 0.0
C352 C 0.20536 0.06886 0.13504 0.0
C353 C 0.18646 0.08593 0.14493 0.0
C354 C 0.03971 0.05373 0.1419 0.0
C355 C 0.06858 0.98767 0.09478 0.0
O356 O 0.98616 1.0134 0.07573 0.0
O357 O 0.98989 0.99239 0.02522 0.0
O358 O 0.06759 0.05115 0.05884 0.0
O359 O 0.03848 0.02465 0.01383 0.0
O360 O 0.02075 0.07468 0.06391 0.0
O361 O 0.06562 0.10834 0.09759 0.0
O362 O 0.1212 0.10377 0.11003 0.0
O363 O 0.12154 0.07625 0.14998 0.0
O364 O 0.04498 0.03597 0.11735 0.0
O365 O 0.06114 0.08121 0.15152 0.0
O366 O 0.08707 0.01774 0.11029 0.0
O367 O 0.04362 0.98463 0.0733 0.0
H368 H 0.92076 0.99312 0.05941 0.0
H369 H 0.89906 0.03838 0.06241 0.0
H370 H 0.95483 0.0851 1.00396 0.0
H371 H 0.97654 0.04004 1.00083 0.0
H372 H 0.13156 0.057 0.07189 0.0
H373 H 0.16403 0.02703 0.05514 0.0
H374 H 0.22572 0.07167 0.15287 0.0
H375 H 0.19234 0.10156 0.17038 0.0
Tb376 Tb 0.31713 0.79007 0.31801 0.0
Tb377 Tb 0.30098 0.81881 0.37457 0.0
C378 C 0.32814 0.77228 0.26194 0.0
C379 C 0.32107 0.78312 0.2305 0.0
C380 C 0.30289 0.80343 0.22845 0.0
C381 C 0.2932 0.81138 0.19768 0.0
C382 C 0.30154 0.79894 0.16876 0.0
C383 C 0.32037 0.77938 0.17087 0.0
C384 C 0.33014 0.77141 0.20185 0.0
C385 C 0.35221 0.7876 0.37593 0.0
C386 C 0.33354 0.87042 0.33814 0.0
C387 C 0.29689 0.83481 0.4347 0.0
C388 C 0.30789 0.82235 0.46393 0.0
C389 C 0.32343 0.79971 0.45893 0.0
C390 C 0.33847 0.7913 0.48662 0.0
C391 C 0.33729 0.80443 0.51973 0.0
C392 C 0.3189 0.82405 0.52459 0.0
C393 C 0.30455 0.83354 0.49659 0.0
C394 C 0.25932 0.81815 0.32113 0.0
C395 C 0.27941 0.74006 0.3497 0.0
O396 O 0.30528 0.75666 0.27087 0.0
O397 O 0.3469 0.79472 0.28739 0.0
O398 O 0.34285 0.81172 0.37027 0.0
O399 O 0.33953 0.76374 0.34963 0.0
O400 O 0.33153 0.84344 0.31526 0.0
O401 O 0.32358 0.86677 0.36554 0.0
O402 O 0.31701 0.85201 0.42243 0.0
O403 O 0.27653 0.81241 0.41074 0.0
O404 O 0.28091 0.8076 0.31977 0.0
O405 O 0.26097 0.82941 0.35271 0.0
O406 O 0.2899 0.76544 0.37639 0.0
O407 O 0.28305 0.74597 0.32 0.0
H408 H 0.29538 0.81209 0.25039 0.0
H409 H 0.27862 0.82646 0.19614 0.0
H410 H 0.32684 0.76974 0.14844 0.0
H411 H 0.34401 0.75552 0.20325 0.0
H412 H 0.32565 0.79025 0.43379 0.0
H413 H 0.35233 0.77591 0.48231 0.0
H414 H 0.31744 0.83385 0.55009 0.0
H415 H 0.29193 0.85043 0.50056 0.0
Tb416 Tb 0.58879 0.05535 0.57992 0.0
Tb417 Tb 0.52855 0.04581 0.59916 0.0
C418 C 0.6409 0.05816 0.58073 0.0
C419 C 0.6628 0.03995 0.58748 0.0
C420 C 0.67892 0.04217 0.62076 0.0
C421 C 0.70103 0.02687 0.62592 0.0
C422 C 0.70789 1.0096 0.59791 0.0
C423 C 0.69176 1.0073 0.56479 0.0
C424 C 0.66958 0.02226 0.55965 0.0
C425 C 0.54737 0.06137 0.52716 0.0
C426 C 0.54672 0.98248 0.57305 0.0
C427 C 0.47621 0.04233 0.59781 0.0
C428 C 0.45388 0.05977 0.59168 0.0
C429 C 0.4546 0.08246 0.57043 0.0
C430 C 0.43319 0.09892 0.56645 0.0
C431 C 0.41092 0.09304 0.58379 0.0
C432 C 0.41034 0.07032 0.60485 0.0
C433 C 0.43152 0.0539 0.6087 0.0
C434 C 0.56949 0.0418 0.65347 0.0
C435 C 0.57095 0.1188 0.60645 0.0
O436 O 0.63314 0.07299 0.60652 0.0
O437 O 0.61892 0.04426 0.55391 0.0
O438 O 0.54544 0.0547 0.5561 0.0
O439 O 0.57446 0.06467 0.52787 0.0
O440 O 0.573 1.00169 0.57458 0.0
O441 O 0.52509 0.99421 0.57838 0.0
O442 O 0.48451 0.02915 0.57168 0.0
O443 O 0.49789 0.05617 0.62487 0.0
O444 O 0.57231 0.04673 0.62397 0.0
O445 O 0.54203 0.03749 0.65101 0.0
O446 O 0.54481 0.09962 0.60577 0.0
O447 O 0.59227 0.10684 0.60031 0.0
H448 H 0.67477 0.0561 0.64279 0.0
H449 H 0.71313 0.02898 0.65174 0.0
H450 H 0.6966 0.99419 0.54277 0.0
H451 H 0.65807 0.0205 0.53366 0.0
H452 H 0.47171 0.08759 0.55718 0.0
H453 H 0.43412 0.11641 0.55012 0.0
H454 H 0.39346 0.06538 0.61846 0.0
H455 H 0.43054 0.03663 0.6253 0.0
Tb456 Tb 0.28374 0.31248 0.84111 0.0
Tb457 Tb 0.34031 0.29189 0.84901 0.0
C458 C 0.23313 0.31428 0.84319 0.0
C459 C 0.2114 0.31107 0.86428 0.0
C460 C 0.20009 0.28154 0.87438 0.0
C461 C 0.17686 0.27792 0.89023 0.0
C462 C 0.1644 0.30366 0.89621 0.0
C463 C 0.17618 0.33336 0.88698 0.0
C464 C 0.19931 0.33698 0.87115 0.0
C465 C 0.32845 0.35482 0.82901 0.0
C466 C 0.3269 0.32458 0.9155 0.0
C467 C 0.39036 0.2889 0.84519 0.0
C468 C 0.41029 0.29172 0.82189 0.0
C469 C 0.41422 0.31691 0.80354 0.0
C470 C 0.43552 0.32107 0.78477 0.0
C471 C 0.45333 0.30018 0.78393 0.0
C472 C 0.44899 0.2747 0.80169 0.0
C473 C 0.42777 0.27056 0.82045 0.0
C474 C 0.29472 0.25023 0.86089 0.0
C475 C 0.29961 0.28305 0.7742 0.0
O476 O 0.23921 0.28757 0.83052 0.0
O477 O 0.25605 0.34049 0.85283 0.0
O478 O 0.32901 0.33637 0.85006 0.0
O479 O 0.30141 0.35315 0.81741 0.0
O480 O 0.30037 0.32094 0.89695 0.0
O481 O 0.34749 0.31781 0.90169 0.0
O482 O 0.38478 0.31588 0.85788 0.0
O483 O 0.36738 0.26286 0.83725 0.0
O484 O 0.29459 0.26754 0.83877 0.0
O485 O 0.32169 0.25324 0.87496 0.0
O486 O 0.32443 0.28252 0.79345 0.0
O487 O 0.27944 0.29215 0.78728 0.0
H488 H 0.2087 0.26095 0.86933 0.0
H489 H 0.16825 0.25482 0.89726 0.0
H490 H 0.16703 0.35358 0.8914 0.0
H491 H 0.20725 0.35984 0.86336 0.0
H492 H 0.40122 0.33374 0.80419 0.0
H493 H 0.43833 0.34084 0.77121 0.0
H494 H 0.46234 0.25823 0.80142 0.0
H495 H 0.42545 0.25117 0.83452 0.0
Tb496 Tb 0.06229 0.07858 0.6013 0.0
Tb497 Tb 0.06037 1.01115 0.57663 0.0
C498 C 0.07221 0.1398 0.61261 0.0
C499 C 0.07558 0.16242 0.58976 0.0
C500 C 0.0902 0.1577 0.56392 0.0
C501 C 0.08811 0.17484 0.5379 0.0
C502 C 0.07151 0.19679 0.53782 0.0
C503 C 0.05826 0.20281 0.56456 0.0
C504 C 0.06029 0.18567 0.59046 0.0
C505 C 1.01358 0.03483 0.60385 0.0
C506 C 0.04124 0.04732 0.52133 0.0
C507 C 0.05257 0.95023 0.56632 0.0
C508 C 0.06843 0.93229 0.58584 0.0
C509 C 0.05365 0.90086 0.5887 0.0
C510 C 0.06569 0.88735 0.61446 0.0
C511 C 0.09246 0.90532 0.63741 0.0
C512 C 0.10846 0.93551 0.63276 0.0
C513 C 0.09635 0.94912 0.60707 0.0
C514 C 0.10839 0.05431 0.5722 0.0
C515 C 0.0811 0.04258 0.65735 0.0
O516 O 0.09262 0.12555 0.61846 0.0
O517 O 0.04611 0.11908 0.60586 0.0
O518 O 0.02646 0.03367 0.57988 0.0
O519 O 0.02854 0.06111 0.62719 0.0
O520 O 0.05357 0.0747 0.54551 0.0
O521 O 0.03694 0.01827 0.52927 0.0
O522 O 0.03806 0.96523 0.58352 0.0
O523 O 0.06737 0.96919 0.55003 0.0
O524 O 0.09563 0.0564 0.59619 0.0
O525 O 0.09628 0.02522 0.55273 0.0
O526 O 0.0734 0.01569 0.63254 0.0
O527 O 0.08086 0.07146 0.6509 0.0
H528 H 0.10212 0.13975 0.56298 0.0
H529 H 0.09852 0.17025 0.51737 0.0
H530 H 0.04551 0.21995 0.56466 0.0
H531 H 0.04875 0.18934 0.61007 0.0
H532 H 0.03199 0.8879 0.57275 0.0
H533 H 0.05328 0.86388 0.61793 0.0
H534 H 0.12915 0.94948 0.65043 0.0
H535 H 0.10782 0.97374 0.60542 0.0
Tb536 Tb 0.29864 0.75888 0.8443 0.0
Tb537 Tb 0.30322 0.82404 0.82804 0.0
C538 C 0.3052 0.70362 0.84803 0.0
C539 C 0.32863 0.68779 0.84974 0.0
C540 C 0.33118 0.66903 0.81958 0.0
C541 C 0.35099 0.65096 0.82089 0.0
C542 C 0.36843 0.65107 0.85238 0.0
C543 C 0.36681 0.6706 0.88251 0.0
C544 C 0.34699 0.68887 0.88122 0.0
C545 C 0.26313 0.78648 0.87014 0.0
C546 C 0.35679 0.81561 0.8793 0.0
C547 C 0.31066 0.88446 0.82796 0.0
C548 C 0.2971 0.91083 0.83475 0.0
C549 C 0.2674 0.90596 0.82118 0.0
C550 C 0.25459 0.93006 0.83172 0.0
C551 C 0.27149 0.95956 0.85519 0.0
C552 C 0.30148 0.96538 0.86693 0.0
C553 C 0.31422 0.94121 0.8566 0.0
C554 C 0.32258 0.78418 0.78735 0.0
C555 C 0.24765 0.76711 0.79257 0.0
O556 O 0.2969 0.71201 0.81918 0.0
O557 O 0.30633 0.72575 0.8749 0.0
O558 O 0.28838 0.80211 0.86827 0.0
O559 O 0.2587 0.75529 0.85933 0.0
O560 O 0.34045 0.78621 0.87994 0.0
O561 O 0.3469 0.83418 0.86021 0.0
O562 O 0.32064 0.87366 0.85443 0.0
O563 O 0.29757 0.86041 0.80101 0.0
O564 O 0.32452 0.78788 0.81855 0.0
O565 O 0.30894 0.80428 0.77736 0.0
O566 O 0.25761 0.79894 0.8067 0.0
O567 O 0.26449 0.74801 0.79736 0.0
H568 H 0.31715 0.66734 0.79498 0.0
H569 H 0.3519 0.63581 0.79746 0.0
H570 H 0.38006 0.67068 0.90704 0.0
H571 H 0.34543 0.70292 0.9049 0.0
H572 H 0.25383 0.88298 0.80378 0.0
H573 H 0.23146 0.92552 0.82204 0.0
H574 H 0.31484 0.98828 0.88464 0.0
H575 H 0.33729 0.94572 0.86674 0.0
Tb576 Tb 0.53553 0.05259 0.06665 0.0
Tb577 Tb 0.59001 0.06991 0.12019 0.0
C578 C 0.48708 0.01955 0.02735 0.0
C579 C 0.45548 1.01014 0.02364 0.0
C580 C 0.44229 0.98417 0.03759 0.0
C581 C 0.41224 0.97108 0.02923 0.0
C582 C 0.39481 0.98365 0.00685 0.0
C583 C 0.40763 1.01055 0.994 0.0
C584 C 0.4379 0.02355 1.00212 0.0
C585 C 0.55684 0.11627 0.09438 0.0
C586 C 0.532 0.05965 0.14856 0.0
C587 C 0.63959 0.10313 0.15614 0.0
C588 C 0.66794 0.11339 0.14825 0.0
C589 C 0.68647 0.14533 0.1637 0.0
C590 C 0.71151 0.15767 0.15293 0.0
C591 C 0.71829 0.13821 0.12655 0.0
C592 C 0.70017 0.10594 0.11156 0.0
C593 C 0.67498 0.09363 0.12221 0.0
C594 C 0.56702 1.00579 0.09245 0.0
C595 C 0.59434 0.06313 0.03947 0.0
O596 O 0.5022 1.00816 0.04999 0.0
O597 O 0.50048 0.04985 0.02638 0.0
O598 O 0.55693 0.09257 0.10864 0.0
O599 O 0.54265 0.10417 0.0626 0.0
O600 O 0.51811 0.04981 0.1149 0.0
O601 O 0.56112 0.07012 0.15653 0.0
O602 O 0.62066 0.11603 0.14102 0.0
O603 O 0.62835 0.07162 0.15485 0.0
O604 O 0.56825 0.02965 0.07808 0.0
O605 O 0.58121 0.01822 0.12438 0.0
O606 O 0.60803 0.07214 0.07289 0.0
O607 O 0.56531 0.05413 0.03094 0.0
H608 H 0.45512 0.97297 0.05391 0.0
H609 H 0.40255 0.95044 0.03952 0.0
H610 H 0.3943 0.0206 0.97687 0.0
H611 H 0.44755 0.04324 0.99064 0.0
H612 H 0.68114 0.16106 0.18344 0.0
H613 H 0.72556 0.18248 0.16503 0.0
H614 H 0.70537 0.09056 0.09144 0.0
H615 H 0.66071 0.06906 0.10961 0.0
Tb616 Tb 0.27914 0.27998 0.32736 0.0
Tb617 Tb 0.33558 0.32731 0.36182 0.0
C618 C 0.22623 0.25105 0.31964 0.0
C619 C 0.20171 0.26459 0.32305 0.0
C620 C 0.18767 0.2584 0.34916 0.0
C621 C 0.16682 0.27382 0.35558 0.0
C622 C 0.15947 0.29569 0.33595 0.0
C623 C 0.17291 0.30145 0.30932 0.0
C624 C 0.19388 0.28607 0.30293 0.0
C625 C 0.30695 0.30696 0.28493 0.0
C626 C 0.28234 0.35914 0.35355 0.0
C627 C 0.38847 0.35725 0.37157 0.0
C628 C 0.41335 0.34413 0.36978 0.0
C629 C 0.42731 0.34877 0.34332 0.0
C630 C 0.44764 0.33238 0.3376 0.0
C631 C 0.45457 0.31123 0.35839 0.0
C632 C 0.44169 0.30757 0.38579 0.0
C633 C 0.42118 0.32385 0.39143 0.0
C634 C 0.30764 0.29962 0.40397 0.0
C635 C 0.33276 0.24837 0.33478 0.0
O636 O 0.24596 0.25643 0.34819 0.0
O637 O 0.23787 0.25565 0.29391 0.0
O638 O 0.30608 0.32111 0.31422 0.0
O639 O 0.29018 0.27657 0.27776 0.0
O640 O 0.26655 0.32718 0.34212 0.0
O641 O 0.3114 0.36572 0.36192 0.0
O642 O 0.36946 0.35127 0.34229 0.0
O643 O 0.37597 0.35257 0.3966 0.0
O644 O 0.30884 0.28594 0.37472 0.0
O645 O 0.32396 0.33018 0.4112 0.0
O646 O 0.34844 0.28039 0.3464 0.0
O647 O 0.30362 0.24165 0.32654 0.0
H648 H 0.19333 0.24214 0.36518 0.0
H649 H 0.15652 0.26886 0.37605 0.0
H650 H 0.16739 0.3181 0.29376 0.0
H651 H 0.2043 0.29148 0.28268 0.0
H652 H 0.42167 0.36415 0.32621 0.0
H653 H 0.45754 0.33563 0.31647 0.0
H654 H 0.44693 0.29143 0.40216 0.0
H655 H 0.41082 0.31966 0.41201 0.0
Tb656 Tb 0.56093 0.58064 0.10013 0.0
Tb657 Tb 0.56048 0.51178 0.08368 0.0
C658 C 0.5696 0.64087 0.10215 0.0
C659 C 0.57012 0.65811 0.07426 0.0
C660 C 0.57945 0.64605 0.04573 0.0
C661 C 0.57327 0.65687 0.01561 0.0
C662 C 0.55877 0.68084 0.01436 0.0
C663 C 0.55121 0.69447 0.04362 0.0
C664 C 0.55665 0.68296 0.07336 0.0
C665 C 0.51256 0.53809 0.10506 0.0
C666 C 0.54203 0.5411 0.02214 0.0
C667 C 0.55251 0.45142 0.08085 0.0
C668 C 0.56732 0.43401 0.10241 0.0
C669 C 0.55209 0.40253 0.10471 0.0
C670 C 0.56418 0.38774 0.12918 0.0
C671 C 0.59157 0.40432 0.15149 0.0
C672 C 0.60757 0.43513 0.14808 0.0
C673 C 0.59532 0.45012 0.12373 0.0
C674 C 0.6088 0.55412 0.07823 0.0
C675 C 0.57984 0.55131 0.1621 0.0
O676 O 0.59062 0.62773 0.10937 0.0
O677 O 0.54413 0.62064 0.10024 0.0
O678 O 0.52619 0.53449 0.08203 0.0
O679 O 0.5265 0.56634 0.12595 0.0
O680 O 0.55271 0.57018 0.04391 0.0
O681 O 0.5384 0.51353 0.03309 0.0
O682 O 0.5384 0.46864 0.09617 0.0
O683 O 0.56785 0.46777 0.06304 0.0
O684 O 0.59439 0.55801 0.10023 0.0
O685 O 0.59827 0.52358 0.06205 0.0
O686 O 0.5726 0.52257 0.14008 0.0
O687 O 0.57958 0.57885 0.15207 0.0
H688 H 0.59031 0.62721 0.04628 0.0
H689 H 0.57915 0.64612 0.99319 0.0
H690 H 0.53999 0.71307 0.04292 0.0
H691 H 0.5491 0.69228 0.09502 0.0
H692 H 0.5304 0.39005 0.0886 0.0
H693 H 0.55172 0.36384 0.13163 0.0
H694 H 0.62874 0.44806 0.16521 0.0
H695 H 0.60716 0.47472 0.12243 0.0
Tb696 Tb 0.79211 0.25356 0.32268 0.0
Tb697 Tb 0.79884 0.32214 0.31128 0.0
C698 C 0.79529 0.19672 0.32332 0.0
C699 C 0.81817 0.18053 0.32563 0.0
C700 C 0.81335 0.15085 0.30218 0.0
C701 C 0.83388 0.13377 0.30503 0.0
C702 C 0.85937 0.14614 0.3315 0.0
C703 C 0.86478 0.17641 0.35429 0.0
C704 C 0.84434 0.19369 0.35126 0.0
C705 C 0.7665 0.28801 0.35953 0.0
C706 C 0.85462 0.30641 0.35065 0.0
C707 C 0.80625 0.38335 0.32126 0.0
C708 C 0.7901 0.40589 0.33157 0.0
C709 C 0.76338 0.39412 0.33963 0.0
C710 C 0.74868 0.41622 0.35024 0.0
C711 C 0.76067 0.45019 0.35295 0.0
C712 C 0.78741 0.46182 0.34503 0.0
C713 C 0.80205 0.43977 0.33442 0.0
C714 C 0.81271 0.28223 0.26446 0.0
C715 C 0.73995 0.26712 0.27974 0.0
O716 O 0.78881 0.20678 0.29501 0.0
O717 O 0.79636 0.21802 0.35082 0.0
O718 O 0.79017 0.29864 0.35176 0.0
O719 O 0.75743 0.25633 0.34812 0.0
O720 O 0.8377 0.27699 0.35095 0.0
O721 O 0.84415 0.32758 0.33586 0.0
O722 O 0.81558 0.36867 0.34472 0.0
O723 O 0.79496 0.36314 0.29119 0.0
O724 O 0.81547 0.28348 0.29551 0.0
O725 O 0.80129 0.30537 0.25816 0.0
O726 O 0.75214 0.29878 0.29471 0.0
O727 O 0.75588 0.24683 0.27967 0.0
H728 H 0.79341 0.14054 0.2821 0.0
H729 H 0.82953 0.1104 0.28727 0.0
H730 H 0.88444 0.18618 0.37481 0.0
H731 H 0.84871 0.21685 0.36935 0.0
H732 H 0.754 0.36796 0.33771 0.0
H733 H 0.72796 0.4069 0.3561 0.0
H734 H 0.79682 0.48795 0.34685 0.0
H735 H 0.82272 0.44918 0.32845 0.0
Tb736 Tb 0.04083 0.55183 0.57242 0.0
Tb737 Tb 0.09692 0.56824 0.62199 0.0
C738 C 0.98951 0.52183 0.54025 0.0
C739 C 0.96277 0.51151 0.5518 0.0
C740 C 0.9621 0.49471 0.57854 0.0
C741 C 0.93599 0.48153 0.5867 0.0
C742 C 0.9103 0.48549 0.56869 0.0
C743 C 0.91129 0.50469 0.544 0.0
C744 C 0.93739 0.51737 0.53536 0.0
C745 C 0.06368 0.61594 0.60198 0.0
C746 C 0.04049 0.55862 0.65425 0.0
C747 C 0.14769 0.60421 0.65123 0.0
C748 C 0.17733 0.61292 0.64684 0.0
C749 C 0.19857 0.63799 0.67218 0.0
C750 C 0.2243 0.6546 0.66511 0.0
C751 C 0.22908 0.64643 0.63254 0.0
C752 C 0.20871 0.61992 0.60776 0.0
C753 C 0.18287 0.60322 0.61488 0.0
C754 C 0.073 0.50479 0.59871 0.0
C755 C 0.09525 0.55876 0.53877 0.0
O756 O 1.00898 0.50694 0.54918 0.0
O757 O 1.00096 0.55364 0.54391 0.0
O758 O 0.06386 0.59143 0.6148 0.0
O759 O 0.05006 0.60419 0.5699 0.0
O760 O 0.02574 0.54719 0.62125 0.0
O761 O 0.06962 0.56978 0.66078 0.0
O762 O 0.12952 0.61197 0.6284 0.0
O763 O 0.13644 0.57558 0.65821 0.0
O764 O 0.07277 0.52708 0.5822 0.0
O765 O 0.09025 0.51782 0.62912 0.0
O766 O 0.11046 0.56629 0.57154 0.0
O767 O 0.06638 0.55191 0.53254 0.0
H768 H 0.98146 0.49051 0.59226 0.0
H769 H 0.93558 0.46678 0.60579 0.0
H770 H 0.89152 0.50786 0.52983 0.0
H771 H 0.93754 0.53062 0.515 0.0
H772 H 0.19446 0.64621 0.69672 0.0
H773 H 0.24009 0.67467 0.68468 0.0
H774 H 0.2124 0.61296 0.58272 0.0
H775 H 0.16661 0.58414 0.59486 0.0
Tb776 Tb 0.78092 0.8078 0.33806 0.0
Tb777 Tb 0.83969 0.79126 0.34999 0.0
C778 C 0.72972 0.80901 0.33813 0.0
C779 C 0.70767 0.80555 0.35886 0.0
C780 C 0.69658 0.77617 0.36931 0.0
C781 C 0.6737 0.77276 0.38577 0.0
C782 C 0.66134 0.79858 0.39203 0.0
C783 C 0.67275 0.82803 0.38214 0.0
C784 C 0.69553 0.83143 0.36573 0.0
C785 C 0.82549 0.85304 0.32887 0.0
C786 C 0.82105 0.81947 0.41414 0.0
C787 C 0.8907 0.78958 0.34976 0.0
C788 C 0.91276 0.79667 0.32924 0.0
C789 C 0.92911 0.8293 0.33092 0.0
C790 C 0.95186 0.83574 0.31453 0.0
C791 C 0.95899 0.80969 0.29615 0.0
C792 C 0.94244 0.77708 0.29387 0.0
C793 C 0.91966 0.77065 0.3103 0.0
C794 C 0.79358 0.74629 0.35811 0.0
C795 C 0.80231 0.7816 0.27385 0.0
O796 O 0.73621 0.78257 0.32554 0.0
O797 O 0.75255 0.83527 0.34843 0.0
O798 O 0.82611 0.83446 0.34983 0.0
O799 O 0.79831 0.84949 0.31572 0.0
O800 O 0.79458 0.81279 0.39389 0.0
O801 O 0.84357 0.81734 0.40172 0.0
O802 O 0.8846 0.81479 0.366 0.0
O803 O 0.86752 0.76396 0.33677 0.0
O804 O 0.7944 0.76499 0.33743 0.0
O805 O 0.82053 0.75005 0.37303 0.0
O806 O 0.828 0.78644 0.29465 0.0
O807 O 0.77936 0.78484 0.28526 0.0
H808 H 0.70524 0.75564 0.36433 0.0
H809 H 0.66539 0.74984 0.39328 0.0
H810 H 0.66371 0.84831 0.38673 0.0
H811 H 0.70331 0.8542 0.35772 0.0
H812 H 0.92478 0.84993 0.34556 0.0
H813 H 0.96424 0.8611 0.31668 0.0
H814 H 0.94748 0.75657 0.27983 0.0
H815 H 0.90785 0.74523 0.30878 0.0
Tb816 Tb 0.81856 0.29148 0.81124 0.0
Tb817 Tb 0.80206 0.31919 0.8649 0.0
C818 C 0.81468 0.25777 0.75344 0.0
C819 C 0.79142 0.2536 0.72277 0.0
C820 C 0.7621 0.24132 0.72351 0.0
C821 C 0.74036 0.24873 0.70161 0.0
C822 C 0.74758 0.26789 0.67835 0.0
C823 C 0.77618 0.27664 0.67463 0.0
C824 C 0.79802 0.26952 0.69674 0.0
C825 C 0.86099 0.30214 0.86811 0.0
C826 C 0.83852 0.36902 0.8279 0.0
C827 C 0.79744 0.3542 0.91806 0.0
C828 C 0.80711 0.35684 0.95489 0.0
C829 C 0.83474 0.37815 0.97295 0.0
C830 C 0.84823 0.37344 1.00405 0.0
C831 C 0.83383 0.34806 0.01757 0.0
C832 C 0.80445 0.3307 1.00261 0.0
C833 C 0.7911 0.33494 0.97109 0.0
C834 C 0.76016 0.30634 0.80773 0.0
C835 C 0.78411 0.24328 0.85094 0.0
O836 O 0.80643 0.2449 0.77784 0.0
O837 O 0.83216 0.28774 0.76545 0.0
O838 O 0.83392 0.29262 0.86538 0.0
O839 O 0.86445 0.30425 0.83803 0.0
O840 O 0.83257 0.34247 0.80315 0.0
O841 O 0.831 0.36453 0.85643 0.0
O842 O 0.81837 0.36251 0.90296 0.0
O843 O 0.77745 0.32714 0.90024 0.0
O844 O 0.78714 0.31819 0.81112 0.0
O845 O 0.75646 0.30082 0.83669 0.0
O846 O 0.79515 0.26967 0.87656 0.0
O847 O 0.78618 0.24827 0.82023 0.0
H848 H 0.75615 0.2286 0.743 0.0
H849 H 0.7183 0.24151 0.70434 0.0
H850 H 0.782 0.29143 0.65658 0.0
H851 H 0.82037 0.27924 0.69564 0.0
H852 H 0.8471 0.39611 0.9615 0.0
H853 H 0.87083 0.38723 0.01568 0.0
H854 H 0.79308 0.31126 0.01325 0.0
H855 H 0.76939 0.31898 0.95813 0.0
Tb856 Tb 0.78219 0.7825 0.82815 0.0
Tb857 Tb 0.83744 0.82954 0.8653 0.0
C858 C 0.72927 0.75297 0.81845 0.0
C859 C 0.70775 0.76714 0.83082 0.0
C860 C 0.71659 0.79063 0.86208 0.0
C861 C 0.69744 0.80619 0.87326 0.0
C862 C 0.66863 0.79782 0.85407 0.0
C863 C 0.6595 0.77419 0.82288 0.0
C864 C 0.67908 0.75919 0.81113 0.0
C865 C 0.8119 0.8088 0.78688 0.0
C866 C 0.78427 0.86106 0.8563 0.0
C867 C 0.89016 0.8621 0.87977 0.0
C868 C 0.91455 0.85164 0.87086 0.0
C869 C 0.91074 0.83252 0.83809 0.0
C870 C 0.93255 0.8199 0.83016 0.0
C871 C 0.95872 0.82609 0.85466 0.0
C872 C 0.963 0.84589 0.88727 0.0
C873 C 0.9409 0.85841 0.8954 0.0
C874 C 0.80703 0.80245 0.90573 0.0
C875 C 0.83559 0.75104 0.83616 0.0
O876 O 0.7495 0.74962 0.84244 0.0
O877 O 0.74007 0.76584 0.79522 0.0
O878 O 0.81039 0.82325 0.81578 0.0
O879 O 0.7948 0.77855 0.77967 0.0
O880 O 0.76892 0.82919 0.84325 0.0
O881 O 0.8132 0.86775 0.86634 0.0
O882 O 0.87076 0.86413 0.85396 0.0
O883 O 0.87815 0.84719 0.90105 0.0
O884 O 0.80957 0.7885 0.8773 0.0
O885 O 0.82292 0.83314 0.91286 0.0
O886 O 0.85111 0.78305 0.84925 0.0
O887 O 0.80659 0.74438 0.82592 0.0
H888 H 0.73845 0.79711 0.87802 0.0
H889 H 0.70487 0.8241 0.8975 0.0
H890 H 0.63725 0.7672 0.80787 0.0
H891 H 0.67183 0.74136 0.78686 0.0
H892 H 0.89068 0.82684 0.81859 0.0
H893 H 0.92912 0.80541 0.80463 0.0
H894 H 0.98326 0.85136 0.90637 0.0
H895 H 0.94421 0.87299 0.92087 0.0
Tb896 Tb 0.53284 0.52854 0.57304 0.0
Tb897 Tb 0.58904 0.57463 0.61237 0.0
C898 C 0.47956 0.49768 0.55174 0.0
C899 C 0.45424 0.50767 0.55809 0.0
C900 C 0.45062 0.51396 0.59155 0.0
C901 C 0.43288 0.53293 0.59968 0.0
C902 C 0.41853 0.54572 0.57465 0.0
C903 C 0.41862 0.53544 0.54031 0.0
C904 C 0.4366 0.51657 0.53208 0.0
C905 C 0.57192 0.53975 0.53602 0.0
C906 C 0.54241 0.60716 0.58313 0.0
C907 C 0.64285 0.60315 0.63286 0.0
C908 C 0.66744 0.59012 0.62916 0.0
C909 C 0.682 0.59774 0.6038 0.0
C910 C 0.69807 0.57788 0.59198 0.0
C911 C 0.6998 0.55035 0.60549 0.0
C912 C 0.68891 0.54559 0.63409 0.0
C913 C 0.6729 0.56549 0.64598 0.0
C914 C 0.54949 0.56374 0.64919 0.0
C915 C 0.57906 0.49619 0.60339 0.0
O916 O 0.49659 0.49341 0.5783 0.0
O917 O 0.49439 0.51463 0.53387 0.0
O918 O 0.56792 0.5602 0.55901 0.0
O919 O 0.55249 0.51168 0.53228 0.0
O920 O 0.52364 0.57725 0.57842 0.0
O921 O 0.57058 0.61201 0.59487 0.0
O922 O 0.62675 0.60487 0.60412 0.0
O923 O 0.62696 0.59105 0.65262 0.0
O924 O 0.55376 0.54325 0.6264 0.0
O925 O 0.56946 0.59155 0.65329 0.0
O926 O 0.59783 0.52576 0.60699 0.0
O927 O 0.55099 0.49178 0.59224 0.0
H928 H 0.46331 0.50675 0.61212 0.0
H929 H 0.4322 0.53997 0.62601 0.0
H930 H 0.40718 0.54477 0.52059 0.0
H931 H 0.43864 0.51149 0.506 0.0
H932 H 0.67869 0.61703 0.59087 0.0
H933 H 0.7069 0.58222 0.57031 0.0
H934 H 0.69064 0.52479 0.64526 0.0
H935 H 0.66303 0.55989 0.66655 0.0
Tb936 Tb 0.08836 0.5545 0.07913 0.0
Tb937 Tb 0.0271 0.54524 0.09619 0.0
C938 C 0.14049 0.55638 0.08123 0.0
C939 C 0.16152 0.53719 0.08859 0.0
C940 C 0.17959 0.5424 0.12135 0.0
C941 C 0.20055 0.52561 0.12718 0.0
C942 C 0.20348 0.50168 0.10077 0.0
C943 C 0.18713 0.49961 0.06741 0.0
C944 C 0.16624 0.51626 0.06159 0.0
C945 C 0.04847 0.5621 0.02581 0.0
C946 C 0.04496 0.48171 0.07048 0.0
C947 C 0.97498 0.54334 0.09415 0.0
C948 C 0.95349 0.56161 0.08633 0.0
C949 C 0.95159 0.57754 0.05888 0.0
C950 C 0.93095 0.59478 0.05303 0.0
C951 C 0.91196 0.59639 0.07453 0.0
C952 C 0.91389 0.58033 0.10173 0.0
C953 C 0.93436 0.56315 0.10751 0.0
C954 C 0.06717 0.54015 0.15092 0.0
C955 C 0.07036 0.61789 0.10529 0.0
O956 O 0.13249 0.57141 0.10668 0.0
O957 O 0.11883 0.54309 0.05397 0.0
O958 O 0.04551 0.55478 0.05423 0.0
O959 O 0.07556 0.56461 0.0273 0.0
O960 O 0.07167 0.50074 0.07335 0.0
O961 O 0.02322 0.4937 0.07465 0.0
O962 O 0.98305 0.52825 0.06886 0.0
O963 O 0.99666 0.5576 0.12115 0.0
O964 O 0.07032 0.54553 0.12178 0.0
O965 O 0.03968 0.53611 0.14802 0.0
O966 O 0.04361 0.59885 0.1021 0.0
O967 O 0.09215 0.6059 0.10125 0.0
H968 H 0.1781 0.56014 0.14247 0.0
H969 H 0.2149 0.53304 0.15241 0.0
H970 H 0.19075 0.48586 0.04498 0.0
H971 H 0.15428 0.51335 0.03551 0.0
H972 H 0.9661 0.57685 0.04218 0.0
H973 H 0.92997 0.60713 0.03197 0.0
H974 H 0.89962 0.58129 0.11871 0.0
H975 H 0.93535 0.55112 0.12882 0.0
C976 C 0.032 0.19299 0.08139 0.0
C977 C 0.01846 0.19137 0.04669 0.0
C978 C 0.02174 0.13435 0.03185 0.0
C979 C 0.0323 0.13459 0.06705 0.0
N980 N 0.04251 0.16339 0.12583 0.0
N981 N 0.99513 0.15712 0.99024 0.0
C982 C 0.03617 0.16381 0.09192 0.0
C983 C 1.01188 0.16107 0.02236 0.0
N984 N 0.04187 0.22278 0.10433 0.0
N985 N 0.02256 0.10944 0.007 0.0
H986 H 0.98725 0.17567 0.98228 0.0
H987 H 0.98671 0.13445 0.97267 0.0
H988 H 0.03076 0.09028 0.01229 0.0
H989 H 0.01812 0.10971 0.9811 0.0
H990 H 0.05464 0.22645 0.12896 0.0
H991 H 0.03965 0.24458 0.09773 0.0
H992 H 0.04238 0.18243 0.14507 0.0
H993 H 0.04498 0.1426 0.13456 0.0
C994 C 0.20572 0.85579 0.27279 0.0
C995 C 0.19002 0.82983 0.24385 0.0
C996 C 0.2212 0.79618 0.26385 0.0
C997 C 0.23766 0.82274 0.29202 0.0
N998 N 0.25072 0.88105 0.31684 0.0
N999 N 0.18704 0.77778 0.20805 0.0
C1000 C 0.23131 0.85346 0.29467 0.0
C1001 C 0.1992 0.80089 0.23815 0.0
N1002 N 0.19631 0.88284 0.27942 0.0
N1003 N 0.22537 0.76585 0.26241 0.0
H1004 H 0.17013 0.77918 0.18912 0.0
H1005 H 0.1952 0.7584 0.20064 0.0
H1006 H 0.2412 0.76137 0.28037 0.0
H1007 H 0.21168 0.7445 0.24497 0.0
H1008 H 0.20483 0.90086 0.30214 0.0
H1009 H 0.17852 0.88607 0.26326 0.0
H1010 H 0.24885 0.90473 0.31776 0.0
H1011 H 0.27057 0.88089 0.33148 0.0
C1012 C 0.52359 0.89181 0.52486 0.0
C1013 C 0.53297 0.87622 0.55136 0.0
C1014 C 0.54938 0.93012 0.59258 0.0
C1015 C 0.54174 0.94585 0.56565 0.0
N1016 N 0.52647 0.94269 0.50532 0.0
N1017 N 0.55864 0.88126 0.6093 0.0
C1018 C 0.53036 0.92696 0.53155 0.0
C1019 C 0.54694 0.89565 0.58494 0.0
N1020 N 0.50668 0.873 0.49372 0.0
N1021 N 0.55834 0.94802 0.62563 0.0
H1022 H 0.55738 0.85627 0.60439 0.0
H1023 H 0.57168 0.8944 0.63334 0.0
H1024 H 0.56074 0.9732 0.63204 0.0
H1025 H 0.56135 0.93763 0.64681 0.0
H1026 H 0.4962 0.88265 0.475 0.0
H1027 H 0.50082 0.8473 0.48742 0.0
H1028 H 0.52154 0.93083 0.47964 0.0
H1029 H 0.53051 0.96822 0.50924 0.0
C1030 C 0.52379 0.33721 0.75779 0.0
C1031 C 0.52126 0.31272 0.72849 0.0
C1032 C 0.47314 0.28182 0.73383 0.0
C1033 C 0.47666 0.30487 0.76462 0.0
N1034 N 0.50772 0.35143 0.80921 0.0
N1035 N 0.49629 0.25808 0.69327 0.0
C1036 C 0.50271 0.33169 0.77755 0.0
C1037 C 0.49667 0.28401 0.71782 0.0
N1038 N 0.54552 0.36647 0.76592 0.0
N1039 N 0.44693 0.25834 0.71921 0.0
H1040 H 0.51344 0.25817 0.68178 0.0
H1041 H 0.48042 0.23522 0.68685 0.0
H1042 H 0.42919 0.25598 0.73003 0.0
H1043 H 0.44194 0.24319 0.6949 0.0
H1044 H 0.54662 0.3867 0.78455 0.0
H1045 H 0.56119 0.37162 0.7521 0.0
H1046 H 0.52756 0.36903 0.82173 0.0
H1047 H 0.49284 0.34835 0.82429 0.0
C1048 C 0.1073 0.84448 0.68712 0.0
C1049 C 0.09583 0.85368 0.71516 0.0
C1050 C 0.09224 0.90425 0.69789 0.0
C1051 C 0.10136 0.89359 0.66832 0.0
N1052 N 0.12618 0.86073 0.63989 0.0
N1053 N 0.08563 0.89549 0.75332 0.0
C1054 C 0.1121 0.86616 0.66491 0.0
C1055 C 0.09126 0.88487 0.72272 0.0
N1056 N 0.11182 0.81424 0.6806 0.0
N1057 N 0.08269 0.93152 0.70093 0.0
H1058 H 0.08461 0.88132 0.77173 0.0
H1059 H 0.08443 0.91917 0.7617 0.0
H1060 H 0.08401 0.94691 0.68372 0.0
H1061 H 0.07246 0.9383 0.71971 0.0
H1062 H 0.117 0.80457 0.65844 0.0
H1063 H 0.10889 0.79786 0.69667 0.0
H1064 H 0.13657 0.84254 0.63748 0.0
H1065 H 0.12972 0.87666 0.6234 0.0
C1066 C 0.43416 0.8155 0.88183 0.0
C1067 C 0.44958 0.84053 0.91136 0.0
C1068 C 0.40449 0.85299 0.91684 0.0
C1069 C 0.38863 0.82386 0.89142 0.0
N1070 N 0.38845 0.77561 0.85086 0.0
N1071 N 0.45103 0.88561 0.95557 0.0
C1072 C 0.40344 0.8047 0.87407 0.0
C1073 C 0.43518 0.86038 0.92814 0.0
N1074 N 0.44881 0.8021 0.86106 0.0
N1075 N 0.39015 0.87315 0.93044 0.0
H1076 H 0.47372 0.89277 0.96259 0.0
H1077 H 0.442 0.89887 0.97172 0.0
H1078 H 0.36755 0.86729 0.92428 0.0
H1079 H 0.40053 0.8963 0.94666 0.0
H1080 H 0.43861 0.78619 0.83721 0.0
H1081 H 0.47133 0.80984 0.86556 0.0
H1082 H 0.39838 0.7588 0.84113 0.0
H1083 H 0.36595 0.76658 0.84292 0.0
C1084 C 0.58394 0.18706 0.16817 0.0
C1085 C 0.55749 0.18756 0.17718 0.0
C1086 C 0.52954 0.1504 0.12206 0.0
C1087 C 0.55604 0.14769 0.11474 0.0
N1088 N 0.60695 0.17275 0.12286 0.0
N1089 N 0.5059 0.17813 0.15945 0.0
C1090 C 0.58275 0.16945 0.13516 0.0
C1091 C 0.53046 0.172 0.1529 0.0
N1092 N 0.61003 0.20104 0.19182 0.0
N1093 N 0.50365 0.13144 0.10025 0.0
H1094 H 0.50622 0.19412 0.18174 0.0
H1095 H 0.48571 0.16976 0.14193 0.0
H1096 H 0.50213 0.11703 0.07654 0.0
H1097 H 0.48354 0.12947 0.10561 0.0
H1098 H 0.62952 0.19803 0.18767 0.0
H1099 H 0.61217 0.21353 0.21668 0.0
H1100 H 0.6269 0.19024 0.13518 0.0
H1101 H 0.60602 0.15981 0.09852 0.0
C1102 C 0.08561 0.30872 0.33727 0.0
C1103 C 0.09403 0.33761 0.3641 0.0
C1104 C 0.14558 0.34255 0.36706 0.0
C1105 C 0.13706 0.31179 0.34312 0.0
N1106 N 0.09955 0.26489 0.30563 0.0
N1107 N 0.13171 0.3819 0.40519 0.0
C1108 C 0.10721 0.29494 0.32792 0.0
C1109 C 0.12398 0.3546 0.37902 0.0
N1110 N 0.05688 0.29407 0.32101 0.0
N1111 N 0.17435 0.36037 0.37798 0.0
H1112 H 0.11662 0.39264 0.41303 0.0
H1113 H 0.15281 0.39321 0.42015 0.0
H1114 H 0.19065 0.35198 0.37012 0.0
H1115 H 0.18206 0.38441 0.39274 0.0
H1116 H 0.04953 0.2758 0.29852 0.0
H1117 H 0.04004 0.3012 0.32875 0.0
H1118 H 0.07844 0.24903 0.29684 0.0
H1119 H 0.11469 0.25477 0.29702 0.0
C1120 C 0.99956 0.99748 0.19441 0.0
C1121 C 1.00325 0.0215 0.22447 0.0
C1122 C 0.01988 0.06492 0.19393 0.0
C1123 C 0.02224 0.04128 0.16673 0.0
N1124 N 1.01161 0.98318 0.14085 0.0
N1125 N 0.02068 0.07898 0.25395 0.0
C1126 C 1.01122 1.00705 0.16684 0.0
C1127 C 1.01426 0.05549 0.22445 0.0
N1128 N 0.98326 0.96559 0.19113 0.0
N1129 N 0.0217 0.09628 0.19007 0.0
H1130 H 0.01795 0.07331 0.27714 0.0
H1131 H 0.03151 0.10378 0.25613 0.0
H1132 H 0.02314 0.10321 0.16705 0.0
H1133 H 0.01778 0.11382 0.20783 0.0
H1134 H 0.97678 0.94765 0.1684 0.0
H1135 H 0.97347 0.95773 0.20997 0.0
H1136 H 1.00962 0.95898 0.1431 0.0
H1137 H 1.0133 0.98726 0.11702 0.0
C1138 C 0.38323 0.76155 0.56703 0.0
C1139 C 0.40471 0.78806 0.59158 0.0
C1140 C 0.38243 0.82697 0.56769 0.0
C1141 C 0.35811 0.79987 0.54843 0.0
N1142 N 0.33313 0.74144 0.53489 0.0
N1143 N 0.42594 0.84683 0.61412 0.0
C1144 C 0.35769 0.76719 0.55019 0.0
C1145 C 0.40456 0.82108 0.59161 0.0
N1146 N 0.38804 0.73193 0.55741 0.0
N1147 N 0.38543 0.85791 0.56168 0.0
H1148 H 0.44462 0.84383 0.62872 0.0
H1149 H 0.42472 0.87091 0.61897 0.0
H1150 H 0.37025 0.86356 0.54393 0.0
H1151 H 0.40423 0.87769 0.57226 0.0
H1152 H 0.37322 0.71256 0.53833 0.0
H1153 H 0.4086 0.72885 0.56367 0.0
H1154 H 0.33119 0.71742 0.53796 0.0
H1155 H 0.31382 0.74486 0.52241 0.0
C1156 C 0.63316 0.02949 0.72325 0.0
C1157 C 0.62189 0.03254 0.75309 0.0
C1158 C 0.58204 0.0481 0.71847 0.0
C1159 C 0.59056 0.04113 0.68728 0.0
N1160 N 0.62335 0.01936 0.66067 0.0
N1161 N 0.57851 0.03262 0.77203 0.0
C1162 C 0.61593 0.0301 0.68987 0.0
C1163 C 0.59403 0.03772 0.74814 0.0
N1164 N 0.66061 0.02712 0.72667 0.0
N1165 N 0.56366 0.06686 0.72104 0.0
H1166 H 0.58561 0.02331 0.79307 0.0
H1167 H 0.55722 0.03373 0.7685 0.0
H1168 H 0.5573 0.07896 0.70214 0.0
H1169 H 0.55844 0.07445 0.74394 0.0
H1170 H 0.67131 0.02832 0.7071 0.0
H1171 H 0.67319 0.02598 0.74987 0.0
H1172 H 0.63939 1.00763 0.66025 0.0
H1173 H 0.61183 0.01996 0.63666 0.0
C1174 C 0.33779 0.37901 1.00386 0.0
C1175 C 0.33973 0.35616 0.0252 0.0
C1176 C 0.33964 0.31534 0.9756 0.0
C1177 C 0.3332 0.33623 0.95347 0.0
N1178 N 0.32335 0.38732 0.94664 0.0
N1179 N 0.33591 0.29995 0.02921 0.0
C1180 C 0.33104 0.36768 0.96763 0.0
C1181 C 0.3388 0.32358 0.01041 0.0
N1182 N 0.34471 0.41203 0.01795 0.0
N1183 N 0.3469 0.28777 0.96382 0.0
H1184 H 0.33381 0.30459 0.05428 0.0
H1185 H 0.33225 0.27503 0.01868 0.0
H1186 H 0.34751 0.28023 0.93859 0.0
H1187 H 0.35479 0.27393 0.97993 0.0
H1188 H 0.34656 0.42997 1.00354 0.0
H1189 H 0.35191 0.42218 0.04414 0.0
H1190 H 0.31775 0.40841 0.9553 0.0
H1191 H 0.32098 0.38166 0.92027 0.0
C1192 C 0.04035 0.05608 0.42958 0.0
C1193 C 1.01356 0.03194 0.41219 0.0
C1194 C 1.0018 0.02685 0.46716 0.0
C1195 C 0.03003 0.04793 0.48468 0.0
N1196 N 0.07145 0.09195 0.48303 0.0
N1197 N 0.96819 0.99427 0.41359 0.0
C1198 C 0.04793 0.06552 0.4661 0.0
C1199 C 0.99395 0.01764 0.43078 0.0
N1200 N 0.05915 0.06883 0.41118 0.0
N1201 N 0.98196 0.0173 0.48559 0.0
H1202 H 0.96087 0.98808 0.387 0.0
H1203 H 0.95463 0.97962 0.42535 0.0
H1204 H 0.98659 0.02563 0.51207 0.0
H1205 H 0.96018 1.00425 0.47478 0.0
H1206 H 0.08056 0.0833 0.42213 0.0
H1207 H 0.05386 0.06309 0.38449 0.0
H1208 H 0.08331 0.10807 0.47093 0.0
H1209 H 0.07801 0.09957 0.50947 0.0
C1210 C 0.3752 0.74459 0.75384 0.0
C1211 C 0.39645 0.77296 0.75244 0.0
C1212 C 0.37365 0.80816 0.78271 0.0
C1213 C 0.3482 0.78036 0.77534 0.0
N1214 N 0.32545 0.72143 0.75647 0.0
N1215 N 0.42443 0.82789 0.78073 0.0
C1216 C 0.34936 0.74815 0.76234 0.0
C1217 C 0.39872 0.80338 0.77306 0.0
N1218 N 0.37989 0.71466 0.74651 0.0
N1219 N 0.37341 0.83906 0.79713 0.0
H1220 H 0.44207 0.82368 0.77204 0.0
H1221 H 0.42897 0.85069 0.79731 0.0
H1222 H 0.3554 0.84408 0.80378 0.0
H1223 H 0.3906 0.86036 0.80094 0.0
H1224 H 0.36626 0.69288 0.74941 0.0
H1225 H 0.39923 0.71271 0.74072 0.0
H1226 H 0.32444 0.6976 0.74493 0.0
H1227 H 0.30578 0.72353 0.76097 0.0
C1228 C 0.63451 0.02957 0.97158 0.0
C1229 C 0.64003 0.05503 0.95287 0.0
C1230 C 0.61624 0.0857 0.99138 0.0
C1231 C 0.61159 0.06102 0.01079 0.0
N1232 N 0.62506 0.01381 0.02422 0.0
N1233 N 0.64617 0.11336 0.95775 0.0
C1234 C 0.62348 0.03435 1.00232 0.0
C1235 C 0.63363 0.08472 0.96652 0.0
N1236 N 0.63883 1.0002 0.95966 0.0
N1237 N 0.60426 0.1108 0.99673 0.0
H1238 H 0.66154 0.11509 0.94329 0.0
H1239 H 0.64463 0.13624 0.96882 0.0
H1240 H 0.59276 0.1134 0.01538 0.0
H1241 H 0.60393 0.12747 0.98091 0.0
H1242 H 0.63275 0.97952 0.96979 0.0
H1243 H 0.64677 0.99593 0.93808 0.0
H1244 H 0.63614 0.99624 0.0221 0.0
H1245 H 0.61751 0.01648 0.04631 0.0
C1246 C 0.3337 0.37267 0.23435 0.0
C1247 C 0.34063 0.35354 0.2072 0.0
C1248 C 0.3306 0.30638 0.23498 0.0
C1249 C 0.31936 0.32386 0.25901 0.0
N1250 N 0.30392 0.37219 0.27473 0.0
N1251 N 0.33816 0.29885 0.17794 0.0
C1252 C 0.31925 0.35668 0.25693 0.0
C1253 C 0.337 0.31944 0.20648 0.0
N1254 N 0.34175 0.4063 0.2396 0.0
N1255 N 0.3363 0.27778 0.23984 0.0
H1256 H 0.34075 0.30657 0.15559 0.0
H1257 H 0.33301 0.27332 0.17509 0.0
H1258 H 0.33364 0.26828 0.26125 0.0
H1259 H 0.34696 0.26576 0.22473 0.0
H1260 H 0.33971 0.42147 0.26104 0.0
H1261 H 0.35344 0.41921 0.22481 0.0
H1262 H 0.30105 0.39479 0.27154 0.0
H1263 H 0.29096 0.36078 0.28912 0.0
C1264 C 0.22876 0.99674 0.04606 0.0
C1265 C 0.21449 0.96538 0.0514 0.0
C1266 C 0.20705 0.99343 0.10427 0.0
C1267 C 0.21301 0.02335 0.09329 0.0
N1268 N 0.23166 0.05476 0.05479 0.0
N1269 N 0.18694 0.93444 0.08502 0.0
C1270 C 0.22494 0.02549 0.06469 0.0
C1271 C 0.20327 0.96373 0.08075 0.0
N1272 N 0.24672 0.99923 0.0244 0.0
N1273 N 0.20429 0.99319 0.13672 0.0
H1274 H 0.18109 0.91221 0.06702 0.0
H1275 H 0.17637 0.93296 0.1047 0.0
H1276 H 0.20661 0.01461 0.15447 0.0
H1277 H 0.20291 0.97222 0.14678 0.0
H1278 H 0.25911 0.02179 0.02157 0.0
H1279 H 0.25197 0.97903 0.01245 0.0
H1280 H 0.23709 0.05695 0.03173 0.0
H1281 H 0.2305 0.07651 0.06932 0.0
C1282 C 0.67226 0.6336 0.09291 0.0
C1283 C 0.68281 0.62813 0.06314 0.0
C1284 C 0.64487 0.57435 0.04243 0.0
C1285 C 0.63533 0.57881 0.0735 0.0
N1286 N 0.64884 0.60854 0.13273 0.0
N1287 N 0.68332 0.59005 0.01344 0.0
C1288 C 0.65146 0.60731 0.09996 0.0
C1289 C 0.67064 0.59732 0.0394 0.0
N1290 N 0.68231 0.66387 0.11508 0.0
N1291 N 0.62874 0.54957 0.01466 0.0
H1292 H 0.70099 0.60686 0.00914 0.0
H1293 H 0.67793 0.56645 0.99801 0.0
H1294 H 0.60869 0.53333 0.01325 0.0
H1295 H 0.63329 0.54765 0.99074 0.0
H1296 H 0.67256 0.67034 0.13452 0.0
H1297 H 0.69906 0.6833 0.11287 0.0
H1298 H 0.66206 0.62739 0.15344 0.0
H1299 H 0.63665 0.58875 0.14033 0.0
C1300 C 0.7295 0.5073 0.40572 0.0
C1301 C 0.71886 0.52331 0.38054 0.0
C1302 C 0.73119 0.48718 0.33675 0.0
C1303 C 0.74477 0.47382 0.36249 0.0
N1304 N 0.76023 0.47359 0.42212 0.0
N1305 N 0.71493 0.53316 0.32353 0.0
C1306 C 0.74484 0.4845 0.39722 0.0
C1307 C 0.72105 0.51446 0.34638 0.0
N1308 N 0.72402 0.51294 0.4373 0.0
N1309 N 0.72748 0.47338 0.30301 0.0
H1310 H 0.70858 0.55425 0.32979 0.0
H1311 H 0.71904 0.52982 0.29938 0.0
H1312 H 0.73461 0.45327 0.29493 0.0
H1313 H 0.71493 0.4798 0.2831 0.0
H1314 H 0.72852 0.49942 0.45549 0.0
H1315 H 0.71266 0.52926 0.44434 0.0
H1316 H 0.76378 0.48324 0.44817 0.0
H1317 H 0.77132 0.45647 0.41678 0.0
C1318 C 0.83623 0.42238 0.54373 0.0
C1319 C 0.82894 0.4236 0.57562 0.0
C1320 C 0.87299 0.46981 0.60236 0.0
C1321 C 0.88206 0.46494 0.57148 0.0
N1322 N 0.87522 0.43052 0.51561 0.0
N1323 N 0.84035 0.44699 0.63598 0.0
C1324 C 0.86451 0.43954 0.54291 0.0
C1325 C 0.84728 0.447 0.60525 0.0
N1326 N 0.81585 0.40569 0.51398 0.0
N1327 N 0.88855 0.4965 0.62838 0.0
H1328 H 0.82123 0.43107 0.63838 0.0
H1329 H 0.85424 0.46124 0.65919 0.0
H1330 H 0.90729 0.51368 0.62678 0.0
H1331 H 0.88172 0.50304 0.65034 0.0
H1332 H 0.81955 0.40666 0.48989 0.0
H1333 H 0.7943 0.39397 0.51328 0.0
H1334 H 0.86398 0.40982 0.49586 0.0
H1335 H 0.89646 0.44126 0.5144 0.0
C1336 C 0.38818 0.19408 0.35463 0.0
C1337 C 0.37617 0.16416 0.3285 0.0
C1338 C 0.33872 0.19138 0.3039 0.0
C1339 C 0.34844 0.2196 0.3323 0.0
N1340 N 0.3823 0.24372 0.38763 0.0
N1341 N 0.33695 0.13478 0.27917 0.0
C1342 C 0.37338 0.21982 0.35812 0.0
C1343 C 0.35057 0.16323 0.30363 0.0
N1344 N 0.41427 0.19826 0.37652 0.0
N1345 N 0.31897 0.19198 0.27565 0.0
H1346 H 0.34577 0.11522 0.27592 0.0
H1347 H 0.31627 0.12989 0.26336 0.0
H1348 H 0.31065 0.21178 0.27397 0.0
H1349 H 0.31318 0.17466 0.25256 0.0
H1350 H 0.42654 0.22051 0.39352 0.0
H1351 H 0.42499 0.18026 0.37516 0.0
H1352 H 0.39756 0.24353 0.40911 0.0
H1353 H 0.37261 0.26227 0.39208 0.0
C1354 C 0.33871 0.11156 0.55444 0.0
C1355 C 0.34194 0.13929 0.58078 0.0
C1356 C 0.39245 0.14035 0.60475 0.0
C1357 C 0.38813 0.11064 0.58062 0.0
N1358 N 0.35714 0.06683 0.53336 0.0
N1359 N 0.37159 0.18023 0.63135 0.0
C1360 C 0.36133 0.09614 0.55547 0.0
C1361 C 0.36881 0.15377 0.60596 0.0
N1362 N 0.31393 0.09987 0.52847 0.0
N1363 N 0.41942 0.15602 0.62613 0.0
H1364 H 0.3558 0.19238 0.63163 0.0
H1365 H 0.38894 0.18951 0.65295 0.0
H1366 H 0.43698 0.14662 0.62623 0.0
H1367 H 0.4252 0.17939 0.64204 0.0
H1368 H 0.31133 0.08227 0.50647 0.0
H1369 H 0.29634 0.10924 0.52777 0.0
H1370 H 0.33719 0.05262 0.51707 0.0
H1371 H 0.3735 0.0556 0.53249 0.0
C1372 C 0.71526 0.68879 0.34553 0.0
C1373 C 0.71762 0.67845 0.37692 0.0
C1374 C 0.76732 0.7164 0.39761 0.0
C1375 C 0.76661 0.72391 0.3647 0.0
N1376 N 0.73947 0.71188 0.3054 0.0
N1377 N 0.74741 0.67877 0.43116 0.0
C1378 C 0.74037 0.70888 0.33825 0.0
C1379 C 0.74419 0.69096 0.40229 0.0
N1380 N 0.6889 0.67929 0.3222 0.0
N1381 N 0.78902 0.7352 0.42525 0.0
H1382 H 0.73055 0.6614 0.43627 0.0
H1383 H 0.76736 0.68402 0.44869 0.0
H1384 H 0.80463 0.75586 0.42367 0.0
H1385 H 0.78931 0.73312 0.45031 0.0
H1386 H 0.68481 0.69003 0.30143 0.0
H1387 H 0.67044 0.66228 0.32462 0.0
H1388 H 0.72268 0.69745 0.28449 0.0
H1389 H 0.75624 0.72683 0.29822 0.0
C1390 C 0.86296 0.44718 0.78979 0.0
C1391 C 0.88123 0.47153 0.8192 0.0
C1392 C 0.87352 0.42826 0.85295 0.0
C1393 C 0.85326 0.40432 0.82428 0.0
N1394 N 0.82365 0.39563 0.76697 0.0
N1395 N 0.89694 0.48632 0.88036 0.0
C1396 C 0.84655 0.41513 0.7931 0.0
C1397 C 0.88395 0.46229 0.85122 0.0
N1398 N 0.86165 0.45439 0.75838 0.0
N1399 N 0.88482 0.41834 0.88129 0.0
H1400 H 0.90393 0.51117 0.87962 0.0
H1401 H 0.8975 0.48202 0.90479 0.0
H1402 H 0.88045 0.39365 0.88272 0.0
H1403 H 0.90148 0.43411 0.90162 0.0
H1404 H 0.85166 0.43675 0.73556 0.0
H1405 H 0.87209 0.47779 0.75538 0.0
H1406 H 0.81608 0.40338 0.74504 0.0
H1407 H 0.81018 0.37322 0.76868 0.0
C1408 C 0.11364 0.93488 0.13328 0.0
C1409 C 0.0928 0.90449 0.13156 0.0
C1410 C 0.05451 0.92671 0.10397 0.0
C1411 C 0.07598 0.95673 0.10369 0.0
N1412 N 0.12656 0.98063 0.10631 0.0
N1413 N 0.04389 0.86898 0.10767 0.0
C1414 C 0.10569 0.95828 0.11513 0.0
C1415 C 0.0634 0.89978 0.11482 0.0
N1416 N 0.14118 0.94212 0.15312 0.0
N1417 N 0.0255 0.92334 0.09487 0.0
H1418 H 0.04927 0.84886 0.11522 0.0
H1419 H 0.02315 0.86256 0.0915 0.0
H1420 H 1.01637 0.9394 0.08376 0.0
H1421 H 1.0099 0.90477 0.10034 0.0
H1422 H 0.15597 0.96566 0.15878 0.0
H1423 H 0.14801 0.92595 0.1669 0.0
H1424 H 0.14823 0.98109 0.11161 0.0
H1425 H 0.1215 0.99502 0.08924 0.0
C1426 C 0.91872 0.30608 0.94894 0.0
C1427 C 0.92808 0.27803 0.93822 0.0
C1428 C 0.89048 0.26343 0.88363 0.0
C1429 C 0.88276 0.29278 0.89322 0.0
N1430 N 0.88993 0.34269 0.93437 0.0
N1431 N 0.92429 0.23146 0.89422 0.0
C1432 C 0.89683 0.31407 0.92589 0.0
C1433 C 0.91439 0.25722 0.90517 0.0
N1434 N 0.93095 0.32541 0.98124 0.0
N1435 N 0.874 0.24061 0.85452 0.0
H1436 H 0.94037 0.22494 0.90984 0.0
H1437 H 0.91792 0.21771 0.86913 0.0
H1438 H 0.85625 0.24395 0.83845 0.0
H1439 H 0.87612 0.21712 0.84771 0.0
H1440 H 0.92264 0.3431 0.99261 0.0
H1441 H 0.94909 0.32318 0.99761 0.0
H1442 H 0.90131 0.36152 0.95582 0.0
H1443 H 0.87334 0.34852 0.91883 0.0
C1444 C 0.56091 0.20491 0.60631 0.0
C1445 C 0.58824 0.22574 0.62688 0.0
C1446 C 0.60233 0.17668 0.63777 0.0
C1447 C 0.57645 0.15566 0.61393 0.0
N1448 N 0.53352 0.15089 0.5703 0.0
N1449 N 0.63723 0.23119 0.65728 0.0
C1450 C 0.55626 0.17005 0.59688 0.0
C1451 C 0.60967 0.21152 0.64094 0.0
N1452 N 0.53935 0.21836 0.59575 0.0
N1453 N 0.61915 0.16364 0.65899 0.0
H1454 H 0.64358 0.25685 0.6611 0.0
H1455 H 0.65446 0.22185 0.66465 0.0
H1456 H 0.61373 0.13858 0.65911 0.0
H1457 H 0.63662 0.17808 0.67918 0.0
H1458 H 0.51795 0.20424 0.58395 0.0
H1459 H 0.54241 0.24377 0.60121 0.0
H1460 H 0.51993 0.16054 0.5548 0.0
H1461 H 0.52991 0.12572 0.56126 0.0
C1462 C 0.58388 0.77537 0.40562 0.0
C1463 C 0.58879 0.79421 0.43935 0.0
C1464 C 0.64164 0.81107 0.44375 0.0
C1465 C 0.63643 0.79516 0.40888 0.0
N1466 N 0.60256 0.76422 0.35551 0.0
N1467 N 0.62229 0.83073 0.49065 0.0
C1468 C 0.60753 0.77756 0.38962 0.0
C1469 C 0.6177 0.81224 0.45842 0.0
N1470 N 0.55653 0.75545 0.38879 0.0
N1471 N 0.66965 0.82422 0.46317 0.0
H1472 H 0.60592 0.82992 0.50356 0.0
H1473 H 0.64201 0.84797 0.50421 0.0
H1474 H 0.6876 0.82382 0.45329 0.0
H1475 H 0.67528 0.83319 0.48954 0.0
H1476 H 0.55187 0.73822 0.36587 0.0
H1477 H 0.53852 0.75445 0.39889 0.0
H1478 H 0.58197 0.75441 0.3389 0.0
H1479 H 0.61922 0.76488 0.34307 0.0
C1480 C 0.075 0.26528 0.49159 0.0
C1481 C 0.04554 0.25459 0.47275 0.0
C1482 C 0.03955 0.19989 0.48455 0.0
C1483 C 0.0665 0.213 0.5093 0.0
N1484 N 0.11152 0.25611 0.53504 0.0
N1485 N 1.00039 0.21164 0.4472 0.0
C1486 C 0.08512 0.24483 0.51174 0.0
C1487 C 0.02812 0.22156 0.46739 0.0
N1488 N 0.09286 0.29522 0.49086 0.0
N1489 N 0.02491 0.16703 0.47837 0.0
H1490 H 0.99215 0.22688 0.4332 0.0
H1491 H 0.98534 0.18891 0.44491 0.0
H1492 H 0.03321 0.1509 0.49088 0.0
H1493 H 1.00595 0.15523 0.4592 0.0
H1494 H 0.11514 0.30326 0.50177 0.0
H1495 H 0.08584 0.31114 0.4769 0.0
H1496 H 0.12472 0.28049 0.54137 0.0
H1497 H 0.11985 0.24101 0.54913 0.0
C1498 C 0.66885 0.27761 0.28178 0.0
C1499 C 0.65682 0.25117 0.29695 0.0
C1500 C 0.69518 0.22677 0.28664 0.0
C1501 C 0.70771 0.25393 0.2732 0.0
N1502 N 0.69961 0.29616 0.2447 0.0
N1503 N 0.66193 0.20314 0.31812 0.0
C1504 C 0.69188 0.27605 0.26605 0.0
C1505 C 0.67098 0.22657 0.30048 0.0
N1506 N 0.66078 0.30587 0.28529 0.0
N1507 N 0.70496 0.19987 0.28555 0.0
H1508 H 0.64628 0.20389 0.33189 0.0
H1509 H 0.6717 0.18457 0.32106 0.0
H1510 H 0.72017 0.19558 0.27228 0.0
H1511 H 0.72017 0.19558 0.27228 0.0
H1512 H 0.67007 0.3261 0.27595 0.0
H1513 H 0.64913 0.31211 0.30259 0.0
H1514 H 0.68732 0.31079 0.23557 0.0
H1515 H 0.7166 0.295 0.23316 0.0
C1516 C 0.57056 0.91649 0.07424 0.0
C1517 C 0.57056 0.91197 0.0391 0.0
C1518 C 0.56356 0.96548 0.03813 0.0
C1519 C 0.56422 0.97152 0.07358 0.0
N1520 N 0.5617 0.94884 0.12348 0.0
N1521 N 0.58273 0.93974 0.99504 0.0
C1522 C 0.56639 0.94607 0.09145 0.0
C1523 C 0.57252 0.9391 0.02366 0.0
N1524 N 0.57548 0.89274 0.091 0.0
N1525 N 0.55168 0.98258 0.01714 0.0
H1526 H 0.59342 0.92311 0.98688 0.0
H1527 H 0.58452 0.95937 0.98285 0.0
H1528 H 0.53932 0.99714 0.02485 0.0
H1529 H 0.54941 0.9775 0.99077 0.0
H1530 H 0.57771 0.89466 0.11711 0.0
H1531 H 0.58016 0.87215 0.07882 0.0
H1532 H 0.5614 0.93066 0.13744 0.0
H1533 H 0.55484 0.96797 0.13482 0.0
C1534 C 1.01303 0.77668 0.85008 0.0
C1535 C 0.01933 0.78126 0.81844 0.0
C1536 C 0.99145 0.82069 0.81605 0.0
C1537 C 0.98165 0.81262 0.84475 0.0
N1538 N 0.97856 0.77719 0.88495 0.0
N1539 N 1.0056 0.79928 0.76618 0.0
C1540 C 0.99114 0.78897 0.86073 0.0
C1541 C 1.00598 0.8009 0.79991 0.0
N1542 N 0.02852 0.7619 0.87064 0.0
N1543 N 0.98711 0.84742 0.80428 0.0
H1544 H 1.01329 0.78247 0.75211 0.0
H1545 H 0.99415 0.81141 0.75117 0.0
H1546 H 0.97741 0.86335 0.81628 0.0
H1547 H 0.99606 0.85567 0.78502 0.0
H1548 H 0.02646 0.76088 0.89534 0.0
H1549 H 0.0454 0.75364 0.86445 0.0
H1550 H 0.98269 0.75749 0.89472 0.0
H1551 H 0.96201 0.78493 0.89287 0.0
C1552 C 0.09906 0.03991 0.9509 0.0
C1553 C 0.11345 0.07366 0.95275 0.0
C1554 C 0.10004 0.08888 0.00705 0.0
C1555 C 0.08604 0.05505 0.00553 0.0
N1556 N 0.08055 0.99827 0.98123 0.0
N1557 N 0.13423 0.12893 0.98757 0.0
C1558 C 0.08824 0.0306 0.97905 0.0
C1559 C 0.11594 0.0977 0.98239 0.0
N1560 N 0.09412 0.01678 0.92149 0.0
N1561 N 0.09701 0.11292 0.0309 0.0
H1562 H 0.14657 0.13611 0.97055 0.0
H1563 H 0.13941 0.14667 0.01026 0.0
H1564 H 0.08676 0.10749 0.04992 0.0
H1565 H 0.10304 0.13789 0.03049 0.0
H1566 H 0.08089 0.99257 0.91721 0.0
H1567 H 0.101 0.02238 0.90005 0.0
H1568 H 0.08419 0.97956 0.96461 0.0
H1569 H 0.0736 0.9908 1.00201 0.0
C1570 C 0.7195 0.33547 0.65118 0.0
C1571 C 0.70444 0.31818 0.61773 0.0
C1572 C 0.70443 0.26575 0.63248 0.0
C1573 C 0.7269 0.28372 0.66206 0.0
N1574 N 0.75233 0.33499 0.70362 0.0
N1575 N 0.66949 0.26906 0.58278 0.0
C1576 C 0.73266 0.31842 0.67333 0.0
C1577 C 0.69173 0.28384 0.61116 0.0
N1578 N 0.72334 0.36855 0.65982 0.0
N1579 N 0.69727 0.23213 0.62344 0.0
H1580 H 0.66159 0.28317 0.56689 0.0
H1581 H 0.65789 0.24406 0.57661 0.0
H1582 H 0.70644 0.21841 0.63867 0.0
H1583 H 0.68279 0.21787 0.60062 0.0
H1584 H 0.73381 0.38337 0.68409 0.0
H1585 H 0.71402 0.38042 0.64236 0.0
H1586 H 0.7599 0.3606 0.71156 0.0
H1587 H 0.76147 0.32281 0.72081 0.0
C1588 C 0.51856 0.09735 0.44984 0.0
C1589 C 0.49191 0.07281 0.43172 0.0
C1590 C 0.4988 0.04277 0.47931 0.0
C1591 C 0.52553 0.0673 0.49738 0.0
N1592 N 0.55687 0.122 0.50269 0.0
N1593 N 0.45425 0.02523 0.43333 0.0
C1594 C 0.53407 0.09576 0.48336 0.0
C1595 C 0.48138 0.04664 0.44801 0.0
N1596 N 0.52989 0.12163 0.43428 0.0
N1597 N 0.4908 0.01454 0.49083 0.0
H1598 H 0.44144 0.02722 0.41072 0.0
H1599 H 0.44349 1.00757 0.44478 0.0
H1600 H 0.50245 1.01115 0.51345 0.0
H1601 H 0.4738 0.99371 0.47713 0.0
H1602 H 0.55082 0.13797 0.44342 0.0
H1603 H 0.5187 0.12422 0.41092 0.0
H1604 H 0.56271 0.14478 0.49619 0.0
H1605 H 0.5682 0.12211 0.52711 0.0
C1606 C 0.8058 0.77906 0.18053 0.0
C1607 C 0.78576 0.74758 0.16425 0.0
C1608 C 0.78156 0.73635 0.22035 0.0
C1609 C 0.79879 0.76919 0.23637 0.0
N1610 N 0.8373 0.81564 0.23333 0.0
N1611 N 0.7533 0.69633 0.1681 0.0
C1612 C 0.81387 0.78892 0.21698 0.0
C1613 C 0.77342 0.72617 0.18404 0.0
N1614 N 0.81649 0.79993 0.16109 0.0
N1615 N 0.77581 0.71389 0.24002 0.0
H1616 H 0.7479 0.68702 0.14173 0.0
H1617 H 0.7406 0.68167 0.18073 0.0
H1618 H 0.78554 0.71961 0.26615 0.0
H1619 H 0.76526 0.6888 0.2302 0.0
H1620 H 0.82827 0.8247 0.17107 0.0
H1621 H 0.81192 0.79299 0.13448 0.0
H1622 H 0.8511 0.82899 0.22082 0.0
H1623 H 0.84482 0.82263 0.25982 0.0
C1624 C 0.07837 0.04596 0.75034 0.0
C1625 C 0.10859 0.05767 0.76638 0.0
C1626 C 0.11907 0.04666 0.70983 0.0
C1627 C 0.08949 0.04087 0.69392 0.0
N1628 N 0.04012 0.03227 0.69798 0.0
N1629 N 0.15821 0.07196 0.76078 0.0
C1630 C 0.06884 0.03944 0.71393 0.0
C1631 C 0.12913 0.05823 0.74602 0.0
N1632 N 0.05889 0.04022 0.76996 0.0
N1633 N 0.13752 0.04088 0.69024 0.0
H1634 H 0.16688 0.08147 0.78694 0.0
H1635 H 0.17375 0.0766 0.74676 0.0
H1636 H 0.13037 0.03168 0.66381 0.0
H1637 H 0.15889 0.04167 0.70041 0.0
H1638 H 0.03667 0.02901 0.75996 0.0
H1639 H 0.06528 0.04414 0.79653 0.0
H1640 H 0.02421 0.03504 0.71066 0.0
H1641 H 0.03233 0.02405 0.67153 0.0
C1642 C 0.72887 0.32136 0.42392 0.0
C1643 C 0.74895 0.32387 0.45484 0.0
C1644 C 0.78129 0.30518 0.42301 0.0
C1645 C 0.76123 0.30252 0.39195 0.0
N1646 N 0.71675 0.3115 0.36314 0.0
N1647 N 0.798 0.32501 0.48295 0.0
C1648 C 0.73555 0.31178 0.39242 0.0
C1649 C 0.77615 0.31821 0.45415 0.0
N1650 N 0.70304 0.32752 0.42422 0.0
N1651 N 0.80524 0.29447 0.42337 0.0
H1652 H 0.79742 0.33614 0.50731 0.0
H1653 H 0.79742 0.33614 0.50731 0.0
H1654 H 0.80941 0.28215 0.4017 0.0
H1655 H 0.82033 0.29626 0.44596 0.0
H1656 H 0.68769 0.3256 0.40179 0.0
H1657 H 0.69691 0.33416 0.44672 0.0
H1658 H 0.72021 0.30555 0.33889 0.0
H1659 H 0.72021 0.30555 0.33889 0.0
C1660 C 0.47347 0.06805 0.20428 0.0
C1661 C 0.48787 0.06673 0.23788 0.0
C1662 C 0.52791 0.05598 0.21135 0.0
C1663 C 0.51538 0.06082 0.17851 0.0
N1664 N 0.47663 0.07806 0.1478 0.0
N1665 N 0.53413 0.06918 0.27302 0.0
C1666 C 0.48823 0.06865 0.17624 0.0
C1667 C 0.51663 0.06369 0.24102 0.0
N1668 N 0.44508 0.0675 0.19836 0.0
N1669 N 0.54979 0.0417 0.21429 0.0
H1670 H 0.52775 0.07655 0.29516 0.0
H1671 H 0.55605 0.07054 0.27738 0.0
H1672 H 0.5569 0.0326 0.1934 0.0
H1673 H 0.55799 0.03471 0.2365 0.0
H1674 H 0.43201 0.06433 0.174 0.0
H1675 H 0.43407 0.06773 0.21768 0.0
H1676 H 0.45917 0.08772 0.14596 0.0
H1677 H 0.48605 0.07918 0.12727 0.0
C1678 C 0.78901 0.73596 0.9579 0.0
C1679 C 0.77838 0.75205 0.98365 0.0
C1680 C 0.78324 0.79921 0.95541 0.0
C1681 C 0.79716 0.78483 0.93241 0.0
N1682 N 0.82206 0.74398 0.92136 0.0
N1683 N 0.77487 0.80444 0.012 0.0
C1684 C 0.80251 0.75441 0.93625 0.0
C1685 C 0.77812 0.78523 0.98383 0.0
N1686 N 0.78544 0.70284 0.95291 0.0
N1687 N 0.77433 0.82593 0.95004 0.0
H1688 H 0.77411 0.79676 0.03477 0.0
H1689 H 0.77695 0.82949 0.01432 0.0
H1690 H 0.77712 0.83666 0.92937 0.0
H1691 H 0.76152 0.83521 0.96415 0.0
H1692 H 0.79068 0.68978 0.93246 0.0
H1693 H 0.77423 0.68781 0.9665 0.0
H1694 H 0.8285 0.72352 0.92609 0.0
H1695 H 0.8347 0.75802 0.90823 0.0
C1696 C 0.93862 0.15218 0.08383 0.0
C1697 C 0.91114 0.1566 0.07206 0.0
C1698 C 0.89433 0.10236 0.03246 0.0
C1699 C 0.92086 0.09682 0.04638 0.0
N1700 N 0.96611 0.11338 0.08996 0.0
N1701 N 0.86072 0.13347 0.04074 0.0
C1702 C 0.94245 0.12086 0.07342 0.0
C1703 C 0.88837 0.13107 0.04778 0.0
N1704 N 0.96133 0.17818 0.10393 0.0
N1705 N 0.87505 0.08043 1.00437 0.0
H1706 H 0.85511 0.15349 0.05245 0.0
H1707 H 0.84277 0.11417 0.0259 0.0
H1708 H 0.87865 0.05885 0.99287 0.0
H1709 H 0.85674 0.08493 0.99086 0.0
H1710 H 0.98254 0.17713 0.11076 0.0
H1711 H 0.95956 0.20179 0.11146 0.0
H1712 H 0.98059 0.12845 0.11244 0.0
H1713 H 0.96997 0.09076 0.08313 0.0
C1714 C 0.44414 0.46339 0.09393 0.0
C1715 C 0.43465 0.4743 0.12319 0.0
C1716 C 0.46828 0.52943 0.13014 0.0
C1717 C 0.48297 0.51664 0.10664 0.0
N1718 N 0.48161 0.4698 0.06333 0.0
N1719 N 0.4389 0.51794 0.1705 0.0
C1720 C 0.46988 0.48323 0.08754 0.0
C1721 C 0.44705 0.50741 0.14168 0.0
N1722 N 0.42769 0.43451 0.07117 0.0
N1723 N 0.47264 0.56265 0.13933 0.0
H1724 H 0.4229 0.50269 0.17907 0.0
H1725 H 0.44959 0.54092 0.18708 0.0
H1726 H 0.4839 0.57932 0.12721 0.0
H1727 H 0.46114 0.57297 0.15461 0.0
H1728 H 0.43139 0.42694 0.04737 0.0
H1729 H 0.40834 0.4198 0.07433 0.0
H1730 H 0.47611 0.44446 0.05346 0.0
H1731 H 0.49725 0.48341 0.05342 0.0
C1732 C 0.38636 0.57021 0.84418 0.0
C1733 C 0.41667 0.5812 0.84719 0.0
C1734 C 0.416 0.63874 0.85547 0.0
C1735 C 0.38587 0.62774 0.85366 0.0
N1736 N 0.34362 0.5844 0.854 0.0
N1737 N 0.46162 0.62562 0.86256 0.0
C1738 C 0.37145 0.59386 0.85045 0.0
C1739 C 0.43192 0.61544 0.85485 0.0
N1740 N 0.37156 0.53723 0.83379 0.0
N1741 N 0.42913 0.67122 0.85672 0.0
H1742 H 0.47393 0.60917 0.8623 0.0
H1743 H 0.47414 0.65021 0.87197 0.0
H1744 H 0.41823 0.68906 0.85807 0.0
H1745 H 0.45024 0.68016 0.85429 0.0
H1746 H 0.34899 0.52798 0.82732 0.0
H1747 H 0.38166 0.51904 0.82883 0.0
H1748 H 0.33302 0.56059 0.85559 0.0
H1749 H 0.33193 0.60105 0.85851 0.0
C1750 C 0.28303 0.71239 0.60547 0.0
C1751 C 0.30933 0.71075 0.6258 0.0
C1752 C 0.28248 0.66155 0.64183 0.0
C1753 C 0.25608 0.66564 0.62546 0.0
N1754 N 0.23036 0.69672 0.59423 0.0
N1755 N 0.33182 0.69006 0.6725 0.0
C1756 C 0.25603 0.69144 0.60771 0.0
C1757 C 0.3085 0.68692 0.64638 0.0
N1758 N 0.28381 0.73354 0.58393 0.0
N1759 N 0.28265 0.63365 0.65368 0.0
H1760 H 0.35017 0.71064 0.68017 0.0
H1761 H 0.33142 0.67436 0.68938 0.0
H1762 H 0.26372 0.6145 0.65082 0.0
H1763 H 0.30173 0.62812 0.66295 0.0
H1764 H 0.26561 0.7334 0.56585 0.0
H1765 H 0.3031 0.74985 0.58259 0.0
H1766 H 0.22907 0.7173 0.5844 0.0
H1767 H 0.21026 0.68147 0.5948 0.0
C1768 C 0.72864 0.91511 0.83721 0.0
C1769 C 0.73942 0.94383 0.86497 0.0
C1770 C 0.77762 0.91712 0.88826 0.0
C1771 C 0.76854 0.8897 0.85911 0.0
N1772 N 0.73661 0.86779 0.80239 0.0
N1773 N 0.77921 0.97346 0.91356 0.0
C1774 C 0.74431 0.89029 0.8328 0.0
C1775 C 0.76537 0.94492 0.88928 0.0
N1776 N 0.70247 0.91057 0.8153 0.0
N1777 N 0.79688 0.91593 0.91666 0.0
H1778 H 0.77167 0.99408 0.91494 0.0
H1779 H 0.79968 0.97797 0.92971 0.0
H1780 H 0.80517 0.89608 0.91813 0.0
H1781 H 0.80204 0.93265 0.94006 0.0
H1782 H 0.69111 0.88874 0.79717 0.0
H1783 H 0.69117 0.92799 0.81703 0.0
H1784 H 0.72177 0.86872 0.78089 0.0
H1785 H 0.74705 0.85001 0.79745 0.0
C1786 C 0.74792 0.9441 0.59247 0.0
C1787 C 0.77745 0.96392 0.60412 0.0
C1788 C 0.76161 0.01386 0.61312 0.0
C1789 C 0.73203 0.99395 0.60266 0.0
N1790 N 0.69721 0.93991 0.58936 0.0
N1791 N 0.81251 0.01681 0.63146 0.0
C1792 C 0.72527 0.95896 0.59439 0.0
C1793 C 0.78428 0.99854 0.6165 0.0
N1794 N 0.74147 0.91104 0.57894 0.0
N1795 N 0.76808 0.04743 0.61801 0.0
H1796 H 0.82965 1.00656 0.63343 0.0
H1797 H 0.81871 0.04148 0.64432 0.0
H1798 H 0.75226 0.0596 0.61562 0.0
H1799 H 0.789 0.06313 0.6218 0.0
H1800 H 0.72062 0.89597 0.56601 0.0
H1801 H 0.75729 0.89891 0.57884 0.0
H1802 H 0.69111 0.9144 0.58663 0.0
H1803 H 0.68021 0.94994 0.59101 0.0
C1804 C 0.37667 0.41089 0.78425 0.0
C1805 C 0.40432 0.41938 0.8075 0.0
C1806 C 0.38136 0.39024 0.84669 0.0
C1807 C 0.35437 0.37765 0.82158 0.0
N1808 N 0.32836 0.3722 0.76298 0.0
N1809 N 0.4336 0.41052 0.85801 0.0
C1810 C 0.35249 0.38707 0.78942 0.0
C1811 C 0.40688 0.40666 0.83757 0.0
N1812 N 0.37344 0.42536 0.75697 0.0
N1813 N 0.38251 0.38926 0.88014 0.0
H1814 H 0.45304 0.42314 0.85334 0.0
H1815 H 0.43644 0.39849 0.878 0.0
H1816 H 0.3641 0.38144 0.88912 0.0
H1817 H 0.40127 0.4007 0.8998 0.0
H1818 H 0.35326 0.42346 0.74159 0.0
H1819 H 0.39088 0.44113 0.75109 0.0
H1820 H 0.32715 0.37576 0.73822 0.0
H1821 H 0.31086 0.35318 0.76419 0.0
C1822 C 0.25204 0.64315 0.33612 0.0
C1823 C 0.23729 0.63886 0.36258 0.0
C1824 C 0.24821 0.70002 0.3784 0.0
C1825 C 0.26511 0.70485 0.35395 0.0
N1826 N 0.28937 0.67893 0.31646 0.0
N1827 N 0.23037 0.66532 0.41554 0.0
C1828 C 0.26883 0.67579 0.3348 0.0
C1829 C 0.23853 0.66806 0.38585 0.0
N1830 N 0.24924 0.61642 0.31121 0.0
N1831 N 0.23931 0.72527 0.39302 0.0
H1832 H 0.22408 0.64264 0.42232 0.0
H1833 H 0.23316 0.68573 0.43492 0.0
H1834 H 0.24291 0.74786 0.38592 0.0
H1835 H 0.22495 0.72224 0.40872 0.0
H1836 H 0.25647 0.61848 0.28913 0.0
H1837 H 0.23785 0.59244 0.31142 0.0
H1838 H 0.29482 0.65883 0.30468 0.0
H1839 H 0.3034 0.70162 0.3164 0.0
C1840 C 0.508 0.66066 0.52939 0.0
C1841 C 0.5189 0.69241 0.55206 0.0
C1842 C 0.54028 0.66673 0.59685 0.0
C1843 C 0.53221 0.63577 0.57304 0.0
N1844 N 0.51143 0.60503 0.51462 0.0
N1845 N 0.54868 0.72621 0.60655 0.0
C1846 C 0.51671 0.63322 0.53883 0.0
C1847 C 0.53583 0.69549 0.58562 0.0
N1848 N 0.48837 0.6563 0.49908 0.0
N1849 N 0.55125 0.66843 0.63068 0.0
H1850 H 0.54606 0.74766 0.59939 0.0
H1851 H 0.5639 0.73081 0.62974 0.0
H1852 H 0.55408 0.64794 0.63986 0.0
H1853 H 0.55479 0.68912 0.65 0.0
H1854 H 0.47685 0.63319 0.48323 0.0
H1855 H 0.48163 0.67555 0.49114 0.0
H1856 H 0.50362 0.60296 0.48855 0.0
H1857 H 0.51709 0.58445 0.52018 0.0
C1858 C 0.68587 0.29418 0.74805 0.0
C1859 C 0.68865 0.32617 0.74132 0.0
C1860 C 0.73812 0.34612 0.7795 0.0
C1861 C 0.73649 0.31335 0.78333 0.0
N1862 N 0.70958 0.25554 0.76883 0.0
N1863 N 0.71863 0.3817 0.74735 0.0
C1864 C 0.71049 0.28727 0.76698 0.0
C1865 C 0.7152 0.3518 0.75599 0.0
N1866 N 0.65952 0.27035 0.73662 0.0
N1867 N 0.7606 0.37221 0.79981 0.0
H1868 H 0.70188 0.38738 0.73188 0.0
H1869 H 0.73856 0.39999 0.75348 0.0
H1870 H 0.777 0.36968 0.81857 0.0
H1871 H 0.76153 0.39679 0.80058 0.0
H1872 H 0.65502 0.24776 0.74369 0.0
H1873 H 0.6412 0.2739 0.72193 0.0
H1874 H 0.69274 0.23484 0.75447 0.0
H1875 H 0.72695 0.24948 0.78256 0.0
C1876 C 0.02078 0.39095 0.0221 0.0
C1877 C 0.03015 0.37521 0.04846 0.0
C1878 C 0.04714 0.42908 0.0898 0.0
C1879 C 0.03958 0.44499 0.06297 0.0
N1880 N 0.02364 0.44196 1.00277 0.0
N1881 N 0.05572 0.37985 0.10633 0.0
C1882 C 0.02774 0.42614 0.02889 0.0
C1883 C 0.04428 0.39449 0.08205 0.0
N1884 N 1.00379 0.37223 0.99096 0.0
N1885 N 0.05633 0.44692 0.12287 0.0
H1886 H 0.05401 0.35474 0.1014 0.0
H1887 H 0.06889 0.39283 0.13036 0.0
H1888 H 0.05895 0.47215 0.12935 0.0
H1889 H 0.0593 0.43648 0.14402 0.0
H1890 H 0.99331 0.38193 0.97229 0.0
H1891 H 0.9979 0.34652 0.98461 0.0
H1892 H 0.01844 0.43016 0.97704 0.0
H1893 H 0.02768 0.4675 0.00678 0.0
C1894 C 0.03457 0.81787 0.27937 0.0
C1895 C 0.03239 0.83161 0.24995 0.0
C1896 C 0.98121 0.82791 0.24896 0.0
C1897 C 0.98415 0.81666 0.27986 0.0
N1898 N 1.01444 0.80456 0.32691 0.0
N1899 N 1.00415 0.85147 0.20748 0.0
C1900 C 1.01102 0.81241 0.29559 0.0
C1901 C 1.00585 0.83723 0.23506 0.0
N1902 N 0.05923 0.81007 0.29192 0.0
N1903 N 0.95445 0.82846 0.23217 0.0
H1904 H 0.02047 0.85576 0.19445 0.0
H1905 H 0.98714 0.86046 0.19827 0.0
H1906 H 0.93605 0.82201 0.24161 0.0
H1907 H 0.94979 0.83285 0.20774 0.0
H1908 H 0.06098 0.79629 0.31048 0.0
H1909 H 0.0776 0.81563 0.28233 0.0
H1910 H 0.03425 0.80471 0.34176 0.0
H1911 H 0.99778 0.8002 0.33946 0.0
C1912 C 0.58736 0.37105 0.2286 0.0
C1913 C 0.59452 0.34179 0.21816 0.0
C1914 C 0.61256 0.3624 0.17206 0.0
C1915 C 0.60176 0.38946 0.17958 0.0
N1916 N 0.5884 0.42597 0.22031 0.0
N1917 N 0.62258 0.31407 0.18895 0.0
C1918 C 0.59272 0.39614 0.21007 0.0
C1919 C 0.61026 0.33909 0.19291 0.0
N1920 N 0.57369 0.3737 0.25452 0.0
N1921 N 0.62325 0.35821 0.1438 0.0
H1922 H 0.62127 0.29697 0.20444 0.0
H1923 H 0.63603 0.31185 0.17256 0.0
H1924 H 0.6262 0.37599 0.12917 0.0
H1925 H 0.62848 0.33711 0.13439 0.0
H1926 H 0.56491 0.39274 0.26092 0.0
H1927 H 0.57016 0.35596 0.26907 0.0
H1928 H 0.58375 0.43348 0.24353 0.0
H1929 H 0.59198 0.4445 0.2067 0.0
C1930 C 0.92983 0.29604 0.35293 0.0
C1931 C 0.94721 0.3252 0.37688 0.0
C1932 C 0.90468 0.34343 0.38129 0.0
C1933 C 0.88661 0.3129 0.35937 0.0
N1934 N 0.88184 0.26191 0.31981 0.0
N1935 N 0.95366 0.38073 0.40558 0.0
C1936 C 0.89915 0.28974 0.34357 0.0
C1937 C 0.93534 0.35041 0.38793 0.0
N1938 N 0.94318 0.27444 0.33984 0.0
N1939 N 0.89258 0.36456 0.39779 0.0
H1940 H 0.9762 0.38597 0.41059 0.0
H1941 H 0.94682 0.40132 0.41225 0.0
H1942 H 0.87025 0.35969 0.3949 0.0
H1943 H 0.90458 0.38566 0.41661 0.0
H1944 H 0.93264 0.25167 0.32306 0.0
H1945 H 0.96581 0.28011 0.34563 0.0
H1946 H 0.88922 0.24372 0.30778 0.0
H1947 H 0.85958 0.25692 0.31063 0.0
C1948 C 0.089 0.69491 0.67253 0.0
C1949 C 0.06319 0.70326 0.67217 0.0
C1950 C 0.04142 0.66323 0.61704 0.0
C1951 C 0.06436 0.64833 0.62368 0.0
N1952 N 0.10449 0.6473 0.66914 0.0
N1953 N 1.01357 0.6948 0.6434 0.0
C1954 C 0.08696 0.66355 0.65429 0.0
C1955 C 0.03894 0.68731 0.64407 0.0
N1956 N 0.11506 0.71523 0.69246 0.0
N1957 N 0.02207 0.65498 0.58587 0.0
H1958 H 1.01197 0.71352 0.66202 0.0
H1959 H 0.99414 0.6814 0.62548 0.0
H1960 H 0.02329 0.63917 0.56456 0.0
H1961 H 1.00666 0.66724 0.58001 0.0
H1962 H 0.13453 0.70975 0.69245 0.0
H1963 H 0.11746 0.73921 0.70459 0.0
H1964 H 0.12004 0.65779 0.69237 0.0
H1965 H 0.0998 0.62208 0.66262 0.0
C1966 C 0.61601 0.84769 0.86855 0.0
C1967 C 0.6118 0.84184 0.90061 0.0
C1968 C 0.64137 0.80373 0.89919 0.0
C1969 C 0.64776 0.81188 0.86874 0.0
N1970 N 0.645 0.84532 0.82702 0.0
N1971 N 0.62292 0.81706 0.94862 0.0
C1972 C 0.636 0.83476 0.85396 0.0
C1973 C 0.62539 0.82085 0.91667 0.0
N1974 N 0.60082 0.8655 0.85204 0.0
N1975 N 0.64962 0.77853 0.91063 0.0
H1976 H 0.60891 0.82585 0.96103 0.0
H1977 H 0.63575 0.80631 0.96368 0.0
H1978 H 0.65995 0.76416 0.89754 0.0
H1979 H 0.64426 0.76981 0.93149 0.0
H1980 H 0.60044 0.86763 0.82698 0.0
H1981 H 0.58697 0.87642 0.86266 0.0
H1982 H 0.63976 0.86459 0.81745 0.0
H1983 H 0.65971 0.83657 0.81586 0.0
C1984 C 0.54295 0.53359 0.73187 0.0
C1985 C 0.51304 0.5293 0.73074 0.0
C1986 C 0.50941 0.55485 0.68062 0.0
C1987 C 0.53756 0.55372 0.67842 0.0
N1988 N 0.58138 0.54148 0.70213 0.0
N1989 N 0.46678 0.5326 0.70067 0.0
C1990 C 0.55431 0.54277 0.70405 0.0
C1991 C 0.49605 0.53939 0.70439 0.0
N1992 N 0.56114 0.53121 0.76064 0.0
N1993 N 0.4956 0.57137 0.66051 0.0
H1994 H 0.45567 0.51952 0.71577 0.0
H1995 H 0.453 0.53709 0.68046 0.0
H1996 H 0.50444 0.58225 0.64244 0.0
H1997 H 0.47694 0.57706 0.66423 0.0
H1998 H 0.5836 0.5372 0.76444 0.0
H1999 H 0.5544 0.52701 0.78256 0.0
H2000 H 0.59305 0.52943 0.71695 0.0
H2001 H 0.59162 0.55121 0.68448 0.0
C2002 C 0.88517 0.34102 0.09599 0.0
C2003 C 0.88459 0.3075 0.08617 0.0
C2004 C 0.85451 0.30321 0.02994 0.0
C2005 C 0.85124 0.33456 0.0416 0.0
N2006 N 0.85974 0.38153 0.0875 0.0
N2007 N 0.85916 0.25405 0.04731 0.0
C2008 C 0.86548 0.35305 0.07522 0.0
C2009 C 0.86674 0.28771 0.05407 0.0
N2010 N 0.90491 0.36152 0.12461 0.0
N2011 N 0.84637 0.2883 0.99589 0.0
H2012 H 0.86401 0.24098 0.06568 0.0
H2013 H 0.84425 0.23914 0.02497 0.0
H2014 H 0.8383 0.29933 0.97683 0.0
H2015 H 0.85082 0.26659 0.9865 0.0
H2016 H 0.90781 0.38682 0.13111 0.0
H2017 H 0.92036 0.35394 0.14 0.0
H2018 H 0.86738 0.39421 0.11305 0.0
H2019 H 0.84521 0.39082 0.0728 0.0
C2020 C 0.09119 0.53327 0.2447 0.0
C2021 C 0.11929 0.52882 0.24943 0.0
C2022 C 0.11362 0.52814 0.18668 0.0
C2023 C 0.08792 0.53852 0.18443 0.0
N2024 N 0.06036 0.56248 0.21871 0.0
N2025 N 0.1585 0.52538 0.22323 0.0
C2026 C 0.07906 0.54422 0.21556 0.0
C2027 C 0.13084 0.52703 0.2198 0.0
N2028 N 0.07573 0.52722 0.26848 0.0
N2029 N 0.1214 0.51849 0.15742 0.0
H2030 H 0.17103 0.52381 0.24627 0.0
H2031 H 0.16938 0.52752 0.20388 0.0
H2032 H 0.10978 0.51922 0.13354 0.0
H2033 H 0.13782 0.50737 0.15674 0.0
H2034 H 0.0543 0.5278 0.26507 0.0
H2035 H 0.08316 0.5178 0.2893 0.0
H2036 H 0.05489 0.56914 0.24167 0.0
H2037 H 0.05403 0.57523 0.20044 0.0
C2038 C 0.83663 0.81791 0.50951 0.0
C2039 C 0.82705 0.84438 0.52334 0.0
C2040 C 0.81226 0.85328 0.46542 0.0
C2041 C 0.82485 0.82919 0.45214 0.0
N2042 N 0.85371 0.79225 0.4641 0.0
N2043 N 0.79229 0.87408 0.51097 0.0
C2044 C 0.83843 0.81261 0.47486 0.0
C2045 C 0.81095 0.85843 0.50036 0.0
N2046 N 0.84125 0.79566 0.52865 0.0
N2047 N 0.80333 0.873 0.44529 0.0
H2048 H 0.78724 0.87358 0.53446 0.0
H2049 H 0.77828 0.88261 0.49466 0.0
H2050 H 0.80555 0.87164 0.42032 0.0
H2051 H 0.79691 0.89327 0.45458 0.0
H2052 H 0.84545 0.77389 0.51903 0.0
H2053 H 0.83652 0.79648 0.55249 0.0
H2054 H 0.86724 0.78366 0.48096 0.0
H2055 H 0.85462 0.78536 0.43891 0.0
C2056 C 0.49705 0.50887 0.93023 0.0
C2057 C 0.51628 0.52476 0.91212 0.0
C2058 C 0.55169 0.55484 0.96641 0.0
C2059 C 0.53241 0.53882 0.9846 0.0
N2060 N 0.48362 0.50883 0.98413 0.0
N2061 N 0.55862 0.5679 0.91235 0.0
C2062 C 0.50418 0.51813 0.96654 0.0
C2063 C 0.54258 0.54941 0.93006 0.0
N2064 N 0.47194 0.48466 0.91268 0.0
N2065 N 0.57916 0.574 0.98354 0.0
H2066 H 0.55289 0.56376 0.88572 0.0
H2067 H 0.57623 0.58882 0.92395 0.0
H2068 H 0.58675 0.57865 0.00992 0.0
H2069 H 0.59525 0.58345 0.97156 0.0
H2070 H 0.45894 0.46917 0.92434 0.0
H2071 H 0.4649 0.47863 0.88607 0.0
H2072 H 0.46185 0.49632 0.97241 0.0
H2073 H 0.48757 0.5169 0.01056 0.0
C2074 C 0.8633 0.23912 0.23157 0.0
C2075 C 0.88643 0.26647 0.23218 0.0
C2076 C 0.86438 0.30371 0.26046 0.0
C2077 C 0.83756 0.27735 0.25124 0.0
N2078 N 0.81221 0.21904 0.23043 0.0
N2079 N 0.91662 0.31896 0.26494 0.0
C2080 C 0.83733 0.24452 0.23804 0.0
C2081 C 0.88964 0.29665 0.25368 0.0
N2082 N 0.86613 0.20838 0.22307 0.0
N2083 N 0.86561 0.33538 0.27414 0.0
H2084 H 0.93442 0.31328 0.25796 0.0
H2085 H 0.9216 0.34104 0.28291 0.0
H2086 H 0.84782 0.34236 0.27895 0.0
H2087 H 0.88406 0.35549 0.27872 0.0
H2088 H 0.85095 0.18691 0.22422 0.0
H2089 H 0.88528 0.20528 0.21763 0.0
H2090 H 0.81032 0.19497 0.21867 0.0
H2091 H 0.79263 0.22252 0.23377 0.0
C2092 C 0.12549 0.57873 0.45905 0.0
C2093 C 0.13653 0.55178 0.44807 0.0
C2094 C 0.12793 0.5353 0.50235 0.0
C2095 C 0.11074 0.55718 0.50832 0.0
N2096 N 0.09229 0.5989 0.48762 0.0
N2097 N 0.14456 0.50167 0.46102 0.0
C2098 C 0.10893 0.57814 0.48481 0.0
C2099 C 0.13671 0.52933 0.47032 0.0
N2100 N 0.13319 0.60695 0.44739 0.0
N2101 N 0.13746 0.52123 0.52796 0.0
H2102 H 0.15071 0.49616 0.43836 0.0
H2103 H 0.14245 0.48292 0.47445 0.0
H2104 H 0.13353 0.52677 0.55191 0.0
H2105 H 0.15232 0.5079 0.52673 0.0
H2106 H 0.12788 0.62817 0.45632 0.0
H2107 H 0.14869 0.61109 0.43322 0.0
H2108 H 0.08756 0.61202 0.46906 0.0
H2109 H 0.08177 0.6014 0.50723 0.0
C2110 C 0.83705 0.82065 0.70519 0.0
C2111 C 0.84151 0.85496 0.70663 0.0
C2112 C 0.82308 0.85872 0.75861 0.0
C2113 C 0.82284 0.8256 0.76001 0.0
N2114 N 0.83678 0.77813 0.7372 0.0
N2115 N 0.84482 0.90804 0.74018 0.0
C2116 C 0.83199 0.80754 0.73408 0.0
C2117 C 0.83636 0.87441 0.73498 0.0
N2118 N 0.83608 0.79993 0.67558 0.0
N2119 N 0.80899 0.87478 0.77785 0.0
H2120 H 0.85531 0.9206 0.72425 0.0
H2121 H 0.84422 0.92344 0.76235 0.0
H2122 H 0.79633 0.86364 0.79268 0.0
H2123 H 0.8065 0.89768 0.77533 0.0
H2124 H 0.83015 0.77432 0.67226 0.0
H2125 H 0.83764 0.80778 0.65303 0.0
H2126 H 0.84632 0.76585 0.72078 0.0
H2127 H 0.83426 0.76779 0.75812 0.0
C2128 C 0.74672 0.49884 0.5767 0.0
C2129 C 0.72526 0.47208 0.55211 0.0
C2130 C 0.68729 0.49613 0.56376 0.0
C2131 C 0.70887 0.52393 0.58659 0.0
N2132 N 0.75935 0.55501 0.60978 0.0
N2133 N 0.67657 0.44949 0.51622 0.0
C2134 C 0.7387 0.52645 0.5912 0.0
C2135 C 0.69598 0.47212 0.54374 0.0
N2136 N 0.77417 0.49697 0.58824 0.0
N2137 N 0.6585 0.49194 0.56203 0.0
H2138 H 0.68247 0.43192 0.50065 0.0
H2139 H 0.65555 0.45032 0.50681 0.0
H2140 H 0.65104 0.50874 0.57635 0.0
H2141 H 0.64211 0.47036 0.54869 0.0
H2142 H 0.78951 0.51406 0.60888 0.0
H2143 H 0.78105 0.47691 0.57954 0.0
H2144 H 0.78138 0.55959 0.61077 0.0
H2145 H 0.75422 0.57518 0.62203 0.0
C2146 C 0.16174 0.1078 0.53085 0.0
C2147 C 0.18587 0.12402 0.55903 0.0
C2148 C 0.15936 0.09593 0.59672 0.0
C2149 C 0.13532 0.07856 0.56814 0.0
N2150 N 0.11752 0.06312 0.50609 0.0
N2151 N 0.21039 0.1281 0.61722 0.0
C2152 C 0.13777 0.0829 0.5347 0.0
C2153 C 0.18547 0.11639 0.59147 0.0
N2154 N 0.16123 0.11687 0.50028 0.0
N2155 N 0.15765 0.09292 0.62903 0.0
H2156 H 0.22983 0.14273 0.61424 0.0
H2157 H 0.21273 0.12085 0.64041 0.0
H2158 H 0.14089 0.07581 0.63431 0.0
H2159 H 0.17239 0.10856 0.65104 0.0
H2160 H 0.14262 0.10972 0.48019 0.0
H2161 H 0.17903 0.13326 0.49567 0.0
H2162 H 0.12091 0.06155 0.48161 0.0
H2163 H 0.09763 0.04739 0.5062 0.0
C2164 C 0.24065 0.03209 0.85928 0.0
C2165 C 0.22808 0.02937 0.88747 0.0
C2166 C 0.24853 0.9846 0.89805 0.0
C2167 C 0.25773 0.98457 0.86723 0.0
N2168 N 0.26117 1.00638 0.81701 0.0
N2169 N 0.21826 1.00235 0.93292 0.0
C2170 C 0.25348 1.00787 0.84746 0.0
C2171 C 0.23179 1.00567 0.90695 0.0
N2172 N 0.24118 0.05857 0.8446 0.0
N2173 N 0.25599 0.96466 0.91882 0.0
H2174 H 0.20627 0.01774 0.94047 0.0
H2175 H 0.21732 0.98316 0.94562 0.0
H2176 H 0.26759 0.94834 0.91263 0.0
H2177 H 0.25259 0.96586 0.94325 0.0
H2178 H 0.25256 0.06381 0.82624 0.0
H2179 H 0.23256 0.07725 0.8531 0.0
H2180 H 0.25535 0.01995 0.79941 0.0
H2181 H 0.27182 0.98992 0.80818 0.0
C2182 C 0.32074 0.92407 0.96005 0.0
C2183 C 0.30818 0.92222 0.98825 0.0
C2184 C 0.34801 0.97017 0.02296 0.0
C2185 C 0.36312 0.96757 0.99718 0.0
N2186 N 0.36485 0.94135 0.94112 0.0
N2187 N 0.31326 0.94021 0.04925 0.0
C2188 C 0.34966 0.94457 0.96544 0.0
C2189 C 0.3224 0.94472 0.02039 0.0
N2190 N 0.30482 0.90662 0.92817 0.0
N2191 N 0.35867 0.99656 0.05033 0.0
H2192 H 0.29622 0.92029 0.04988 0.0
H2193 H 0.32485 0.95419 0.07362 0.0
H2194 H 0.37762 0.01554 0.05274 0.0
H2195 H 0.34715 1.00124 0.06845 0.0
H2196 H 0.31221 0.90813 0.90631 0.0
H2197 H 0.28303 0.89316 0.92328 0.0
H2198 H 0.35732 0.92251 0.91907 0.0
H2199 H 0.38588 0.95637 0.94391 0.0
C2200 C 0.85752 0.66719 0.84551 0.0
C2201 C 0.88381 0.67085 0.83397 0.0
C2202 C 0.87675 0.72468 0.82071 0.0
C2203 C 0.85146 0.72231 0.83419 0.0
N2204 N 0.81592 0.68601 0.85485 0.0
N2205 N 0.92007 0.70795 0.81554 0.0
C2206 C 0.84143 0.6919 0.8451 0.0
C2207 C 0.89352 0.70089 0.82278 0.0
N2208 N 0.84852 0.64033 0.85886 0.0
N2209 N 0.88387 0.74868 0.80321 0.0
H2210 H 0.93215 0.69124 0.81517 0.0
H2211 H 0.93089 0.73101 0.81221 0.0
H2212 H 0.87258 0.7659 0.80061 0.0
H2213 H 0.8987 0.74918 0.78816 0.0
H2214 H 0.83255 0.63717 0.87237 0.0
H2215 H 0.85818 0.62137 0.85768 0.0
H2216 H 0.80476 0.66341 0.8587 0.0
H2217 H 0.8048 0.7034 0.85768 0.0
C2218 C 0.87418 0.66262 0.09194 0.0
C2219 C 0.84875 0.65112 0.06442 0.0
C2220 C 0.86402 0.6026 0.04412 0.0
C2221 C 0.89064 0.61581 0.06977 0.0
N2222 N 0.92325 0.66134 0.11435 0.0
N2223 N 0.82167 0.61269 0.01111 0.0
C2224 C 0.89633 0.64672 0.09255 0.0
C2225 C 0.84421 0.6217 0.03966 0.0
N2226 N 0.87658 0.68783 0.11851 0.0
N2227 N 0.85728 0.57138 0.02459 0.0
H2228 H 0.80689 0.62603 0.00681 0.0
H2229 H 0.81902 0.59364 0.99035 0.0
H2230 H 0.87139 0.55698 0.02667 0.0
H2231 H 0.83692 0.55882 0.00819 0.0
H2232 H 0.89308 0.69501 0.14097 0.0
H2233 H 0.86049 0.6994 0.11973 0.0
H2234 H 0.92981 0.68546 0.12889 0.0
H2235 H 0.94 0.6505 0.1156 0.0
C2236 C 0.23717 0.20101 0.9005 0.0
C2237 C 0.21835 0.17749 0.87122 0.0
C2238 C 0.25085 0.1994 0.83599 0.0
C2239 C 0.26859 0.2248 0.86469 0.0
N2240 N 0.27675 0.25159 0.92378 0.0
N2241 N 0.20438 0.15754 0.81001 0.0
C2242 C 0.26125 0.22595 0.89684 0.0
C2243 C 0.22438 0.17766 0.83865 0.0
N2244 N 0.2324 0.19901 0.93202 0.0
N2245 N 0.26007 0.19481 0.80664 0.0
H2246 H 0.18485 0.14134 0.81092 0.0
H2247 H 0.20588 0.15897 0.78523 0.0
H2248 H 0.27967 0.20939 0.80397 0.0
H2249 H 0.24975 0.17466 0.78609 0.0
H2250 H 0.24703 0.21281 0.95494 0.0
H2251 H 0.21454 0.18177 0.93546 0.0
H2252 H 0.27064 0.25665 0.94654 0.0
H2253 H 0.29498 0.26919 0.92235 0.0
C2254 C 0.35964 0.9442 0.29475 0.0
C2255 C 0.37552 0.97109 0.32312 0.0
C2256 C 0.36494 0.93217 0.36118 0.0
C2257 C 0.34729 0.90559 0.33299 0.0
N2258 N 0.3214 0.89163 0.27344 0.0
N2259 N 0.38513 0.99165 0.3836 0.0
C2260 C 0.34282 0.91319 0.29988 0.0
C2261 C 0.37525 0.9653 0.35632 0.0
N2262 N 0.36081 0.94805 0.26257 0.0
N2263 N 0.37404 0.92574 0.39241 0.0
H2264 H 0.39204 0.01586 0.38065 0.0
H2265 H 0.38331 0.98969 0.40819 0.0
H2266 H 0.36971 0.90199 0.39682 0.0
H2267 H 0.38902 0.9435 0.41285 0.0
H2268 H 0.35274 0.9285 0.24111 0.0
H2269 H 0.37134 0.97063 0.25783 0.0
H2270 H 0.31553 0.89679 0.24951 0.0
H2271 H 0.30709 0.87049 0.27667 0.0
C2272 C 0.6094 0.44015 0.65685 0.0
C2273 C 0.5992 0.40903 0.63316 0.0
C2274 C 0.57841 0.43568 0.58893 0.0
C2275 C 0.58894 0.46705 0.61256 0.0
N2276 N 0.61993 0.49966 0.66731 0.0
N2277 N 0.57628 0.37753 0.57557 0.0
C2278 C 0.60606 0.46938 0.64595 0.0
C2279 C 0.58441 0.40702 0.59887 0.0
N2280 N 0.62208 0.44183 0.69023 0.0
N2281 N 0.56268 0.43332 0.55665 0.0
H2282 H 0.57824 0.35569 0.58227 0.0
H2283 H 0.56865 0.37462 0.54936 0.0
H2284 H 0.56107 0.45393 0.54701 0.0
H2285 H 0.55076 0.41113 0.53943 0.0
H2286 H 0.62631 0.46239 0.70996 0.0
H2287 H 0.62664 0.42181 0.6989 0.0
H2288 H 0.63573 0.50363 0.68984 0.0
H2289 H 0.61765 0.52152 0.6614 0.0
C2290 C 0.41836 0.80494 0.45385 0.0
C2291 C 0.42898 0.77785 0.44351 0.0
C2292 C 0.39708 0.7677 0.38611 0.0
C2293 C 0.38162 0.78924 0.39829 0.0
N2294 N 0.38114 0.8325 0.44359 0.0
N2295 N 0.42572 0.73128 0.39971 0.0
C2296 C 0.39341 0.8092 0.43212 0.0
C2297 C 0.41759 0.7587 0.4096 0.0
N2298 N 0.43305 0.82768 0.48372 0.0
N2299 N 0.39421 0.75805 0.3518 0.0
H2300 H 0.44044 0.72362 0.4161 0.0
H2301 H 0.41571 0.71456 0.37627 0.0
H2302 H 0.38321 0.76815 0.33391 0.0
H2303 H 0.40654 0.74439 0.3417 0.0
H2304 H 0.42855 0.84973 0.49125 0.0
H2305 H 0.45176 0.82627 0.49974 0.0
H2306 H 0.38577 0.84461 0.46913 0.0
H2307 H 0.36536 0.83898 0.42766 0.0
C2308 C 0.09918 0.70838 0.15503 0.0
C2309 C 0.08667 0.72449 0.13092 0.0
C2310 C 0.06261 0.67055 0.09039 0.0
C2311 C 0.07595 0.65463 0.11404 0.0
N2312 N 0.10225 0.65706 0.17101 0.0
N2313 N 0.05867 0.72186 0.07483 0.0
C2314 C 0.09311 0.67326 0.14688 0.0
C2315 C 0.06891 0.70576 0.0984 0.0
N2316 N 0.11803 0.72692 0.18526 0.0
N2317 N 0.04313 0.65184 0.06068 0.0
H2318 H 0.06159 0.74723 0.08047 0.0
H2319 H 0.04859 0.71068 0.04926 0.0
H2320 H 0.03846 0.6263 0.05351 0.0
H2321 H 0.03016 0.66103 0.04392 0.0
H2322 H 0.13107 0.71771 0.20194 0.0
H2323 H 0.12216 0.75235 0.19309 0.0
H2324 H 0.11181 0.66828 0.19668 0.0
H2325 H 0.0983 0.63151 0.16607 0.0
C2326 C 0.11819 0.31506 0.96008 0.0
C2327 C 0.08965 0.29737 0.9396 0.0
C2328 C 0.11021 0.28249 0.89101 0.0
C2329 C 0.13872 0.2997 0.91167 0.0
N2330 N 0.17045 0.32749 0.96716 0.0
N2331 N 0.05871 0.25997 0.88744 0.0
C2332 C 0.14283 0.31461 0.9466 0.0
C2333 C 0.08579 0.27958 0.90569 0.0
N2334 N 0.12173 0.33249 0.99252 0.0
N2335 N 0.10637 0.27022 0.85687 0.0
H2336 H 0.04016 0.25856 0.89653 0.0
H2337 H 0.05475 0.24337 0.86424 0.0
H2338 H 0.12362 0.2714 0.84534 0.0
H2339 H 0.08617 0.26083 0.83939 0.0
H2340 H 0.1412 0.3495 0.00717 0.0
H2341 H 0.10477 0.33102 1.00456 0.0
H2342 H 0.17526 0.33575 0.99358 0.0
H2343 H 0.18889 0.32764 0.95813 0.0
C2344 C 0.55865 0.73326 0.94993 0.0
C2345 C 0.53008 0.73442 0.9481 0.0
C2346 C 0.51914 0.68371 0.96839 0.0
C2347 C 0.5494 0.69088 0.98232 0.0
N2348 N 0.59867 0.71945 0.98239 0.0
N2349 N 0.48048 0.70469 0.94282 0.0
C2350 C 0.56949 0.71398 0.97097 0.0
C2351 C 0.50923 0.70696 0.95235 0.0
N2352 N 0.57507 0.75033 0.93178 0.0
N2353 N 0.50045 0.65581 0.9723 0.0
H2354 H 0.47356 0.72143 0.92993 0.0
H2355 H 0.46388 0.68671 0.94741 0.0
H2356 H 0.508 0.63881 0.98413 0.0
H2357 H 0.47812 0.64838 0.96187 0.0
H2358 H 0.59524 0.74773 0.9301 0.0
H2359 H 0.56663 0.76311 0.91477 0.0
H2360 H 0.61409 0.73885 0.97781 0.0
H2361 H 0.60737 0.7055 0.99769 0.0
C2362 C 0.17424 0.73008 0.80272 0.0
C2363 C 0.15959 0.75099 0.78845 0.0
C2364 C 0.20068 0.7728 0.76417 0.0
C2365 C 0.2156 0.75309 0.78001 0.0
N2366 N 0.2112 0.70266 0.79993 0.0
N2367 N 0.15617 0.7866 0.74824 0.0
C2368 C 0.20066 0.7283 0.79461 0.0
C2369 C 0.17197 0.77068 0.76691 0.0
N2370 N 0.1638 0.71322 0.82541 0.0
N2371 N 0.21465 0.79431 0.7473 0.0
H2372 H 0.13474 0.78499 0.748 0.0
H2373 H 0.16298 0.79868 0.72991 0.0
H2374 H 0.2345 0.79365 0.74212 0.0
H2375 H 0.20743 0.81329 0.73958 0.0
H2376 H 0.17542 0.7006 0.83948 0.0
H2377 H 0.14491 0.71457 0.83272 0.0
H2378 H 0.20011 0.68283 0.80858 0.0
H2379 H 0.22873 0.69877 0.79098 0.0
C2380 C 0.03391 0.41525 0.55463 0.0
C2381 C 0.04966 0.41185 0.52898 0.0
C2382 C 0.08734 0.46178 0.56348 0.0
C2383 C 0.06734 0.47011 0.581 0.0
N2384 N 0.02125 0.45364 0.59488 0.0
N2385 N 0.09229 0.4363 0.50915 0.0
C2386 C 0.04042 0.4465 0.57708 0.0
C2387 C 0.07696 0.43598 0.53359 0.0
N2388 N 1.01429 0.38843 0.55925 0.0
N2389 N 0.11623 0.47792 0.57575 0.0
H2390 H 0.08471 0.42098 0.48484 0.0
H2391 H 0.11149 0.45485 0.51175 0.0
H2392 H 0.12434 0.49673 0.59792 0.0
H2393 H 0.13195 0.47015 0.56577 0.0
H2394 H 1.0037 0.38971 0.5789 0.0
H2395 H 1.01198 0.36431 0.54699 0.0
H2396 H 0.99999 0.43835 0.59012 0.0
H2397 H 0.02635 0.47565 0.61312 0.0
C2398 C 0.52483 0.29098 0.35316 0.0
C2399 C 0.51382 0.26143 0.32727 0.0
C2400 C 0.46392 0.26065 0.32839 0.0
C2401 C 0.47498 0.29253 0.35065 0.0
N2402 N 0.51553 0.33874 0.38412 0.0
N2403 N 0.47329 0.21787 0.28942 0.0
C2404 C 0.50536 0.30775 0.36332 0.0
C2405 C 0.48344 0.24582 0.31508 0.0
N2406 N 0.55398 0.30263 0.36833 0.0
N2407 N 0.43473 0.24478 0.31982 0.0
H2408 H 0.48694 0.20595 0.27971 0.0
H2409 H 0.45152 0.2073 0.27643 0.0
H2410 H 0.41978 0.25546 0.3281 0.0
H2411 H 0.42542 0.22027 0.30657 0.0
H2412 H 0.56332 0.32233 0.38948 0.0
H2413 H 0.56866 0.29061 0.36159 0.0
H2414 H 0.53723 0.35299 0.39092 0.0
H2415 H 0.50193 0.35112 0.39328 0.0
C2416 C 0.62695 0.57257 0.48562 0.0
C2417 C 0.60857 0.57303 0.45435 0.0
C2418 C 0.56581 0.55194 0.47654 0.0
C2419 C 0.58423 0.54991 0.50714 0.0
N2420 N 0.63176 0.55104 0.53683 0.0
N2421 N 0.56027 0.55594 0.41721 0.0
C2422 C 0.61461 0.55816 0.51047 0.0
C2423 C 0.5779 0.56078 0.44907 0.0
N2424 N 0.65622 0.58745 0.49257 0.0
N2425 N 0.53672 0.54603 0.47381 0.0
H2426 H 0.56819 0.56119 0.39625 0.0
H2427 H 0.53807 0.54372 0.41065 0.0
H2428 H 0.52673 0.53807 0.4924 0.0
H2429 H 0.52279 0.55127 0.45426 0.0
H2430 H 0.67026 0.59107 0.51644 0.0
H2431 H 0.66616 0.59887 0.47554 0.0
H2432 H 0.65285 0.55074 0.5369 0.0
H2433 H 0.62391 0.54205 0.55641 0.0
C2434 C 0.24815 0.79447 0.08685 0.0
C2435 C 0.26524 0.81934 0.07435 0.0
C2436 C 0.30554 0.83228 0.12482 0.0
C2437 C 0.28939 0.80552 0.1359 0.0
N2438 N 0.24711 0.75857 0.12679 0.0
N2439 N 0.31088 0.85977 0.07834 0.0
C2440 C 0.26111 0.78588 0.11677 0.0
C2441 C 0.29415 0.83774 0.09248 0.0
N2442 N 0.21954 0.77949 0.07032 0.0
N2443 N 0.33135 0.8529 0.14563 0.0
H2444 H 0.303 0.86537 0.05514 0.0
H2445 H 0.33309 0.87102 0.08838 0.0
H2446 H 0.34073 0.84917 0.16927 0.0
H2447 H 0.34253 0.87502 0.14073 0.0
H2448 H 0.20506 0.76353 0.08001 0.0
H2449 H 0.20961 0.78496 0.0479 0.0
H2450 H 0.22778 0.74131 0.11211 0.0
H2451 H 0.25587 0.75172 0.14886 0.0
C2452 C 0.98131 0.55747 0.95191 0.0
C2453 C 0.99452 0.57893 0.93244 0.0
C2454 C 0.03958 0.59591 0.98002 0.0
C2455 C 0.02799 0.57009 0.99629 0.0
N2456 N 0.98743 0.52344 0.99341 0.0
N2457 N 0.03796 0.6174 0.92822 0.0
C2458 C 0.99854 0.55045 0.98131 0.0
C2459 C 0.02411 0.59792 0.94682 0.0
N2460 N 0.95192 0.54377 0.94227 0.0
N2461 N 0.0652 0.61955 0.99683 0.0
H2462 H 0.02705 0.62084 0.90514 0.0
H2463 H 0.06035 0.62856 0.93471 0.0
H2464 H 0.07643 0.62023 0.02147 0.0
H2465 H 0.07349 0.64063 0.98817 0.0
H2466 H 0.94022 0.53005 0.95647 0.0
H2467 H 0.93918 0.54977 0.92215 0.0
H2468 H 0.96727 0.50614 0.98162 0.0
H2469 H 0.99958 0.51668 0.01336 0.0
C2470 C 0.26242 0.23461 0.68193 0.0
C2471 C 0.282 0.25019 0.664 0.0
C2472 C 0.31452 0.28525 0.71828 0.0
C2473 C 0.29384 0.2715 0.73622 0.0
N2474 N 0.24818 0.23254 0.73517 0.0
N2475 N 0.3248 0.29226 0.66369 0.0
C2476 C 0.26777 0.24611 0.71798 0.0
C2477 C 0.30764 0.27585 0.68182 0.0
N2478 N 0.23918 0.20784 0.66448 0.0
N2479 N 0.34089 0.30712 0.73592 0.0
H2480 H 0.32072 0.28547 0.63711 0.0
H2481 H 0.34182 0.31394 0.67446 0.0
H2482 H 0.34631 0.31728 0.76203 0.0
H2483 H 0.35823 0.31424 0.72495 0.0
H2484 H 0.22597 0.19253 0.67604 0.0
H2485 H 0.23391 0.19936 0.638 0.0
H2486 H 0.22698 0.21793 0.72333 0.0
H2487 H 0.25267 0.23642 0.7617 0.0
C2488 C 0.62721 0.57265 0.25222 0.0
C2489 C 0.60614 0.5696 0.27186 0.0
C2490 C 0.56711 0.55059 0.21879 0.0
C2491 C 0.58831 0.55302 0.19945 0.0
N2492 N 0.63746 0.55659 0.19739 0.0
N2493 N 0.55626 0.54988 0.27422 0.0
C2494 C 0.61804 0.56092 0.2161 0.0
C2495 C 0.57608 0.55689 0.25522 0.0
N2496 N 0.6559 0.58858 0.26775 0.0
N2497 N 0.53843 0.5426 0.20228 0.0
H2498 H 0.5622 0.554 0.30084 0.0
H2499 H 0.53426 0.53764 0.26368 0.0
H2500 H 0.53103 0.535 0.17577 0.0
H2501 H 0.52212 0.54447 0.21462 0.0
H2502 H 0.67163 0.59469 0.25422 0.0
H2503 H 0.6637 0.59866 0.29395 0.0
H2504 H 0.6591 0.55904 0.20836 0.0
H2505 H 0.63107 0.54687 0.17104 0.0
C2506 C 0.19888 0.78499 0.90835 0.0
C2507 C 0.2004 0.81849 0.91667 0.0
C2508 C 0.23814 0.83056 0.88535 0.0
C2509 C 0.24249 0.79923 0.88701 0.0
N2510 N 0.22961 0.74998 0.90965 0.0
N2511 N 0.21596 0.8723 0.905 0.0
C2512 C 0.2232 0.77694 0.90049 0.0
C2513 C 0.21811 0.84103 0.90225 0.0
N2514 N 0.1759 0.76168 0.91248 0.0
N2515 N 0.25212 0.84987 0.86692 0.0
H2516 H 0.19843 0.87859 0.91193 0.0
H2517 H 0.23109 0.89165 0.90003 0.0
H2518 H 0.268 0.84449 0.85578 0.0
H2519 H 0.24673 0.87057 0.86148 0.0
H2520 H 0.1731 0.73642 0.90531 0.0
H2521 H 0.15854 0.7681 0.91985 0.0
H2522 H 0.21668 0.73438 0.92134 0.0
H2523 H 0.24983 0.74619 0.91082 0.0
C2524 C 0.02397 0.56728 0.74623 0.0
C2525 C 0.99489 0.5697 0.74127 0.0
C2526 C 0.99707 0.57007 0.68004 0.0
C2527 C 0.02418 0.56205 0.68403 0.0
N2528 N 0.05887 0.54574 0.72258 0.0
N2529 N 0.9527 0.5686 0.69941 0.0
C2530 C 0.03629 0.55883 0.71767 0.0
C2531 C 0.98124 0.56979 0.70697 0.0
N2532 N 0.04071 0.57413 0.77887 0.0
N2533 N 0.98682 0.57995 0.65127 0.0
H2534 H 0.94088 0.56898 0.71794 0.0
H2535 H 0.94037 0.56474 0.67449 0.0
H2536 H 0.99813 0.58315 0.63247 0.0
H2537 H 0.96893 0.58889 0.64808 0.0
H2538 H 0.06275 0.57594 0.78443 0.0
H2539 H 0.03354 0.58211 0.80018 0.0
H2540 H 0.06678 0.53977 0.74553 0.0
H2541 H 0.06719 0.53689 0.70269 0.0
C2542 C 0.27857 0.28512 0.48263 0.0
C2543 C 0.2764 0.25131 0.48196 0.0
C2544 C 0.29758 0.24972 0.43207 0.0
C2545 C 0.29608 0.28211 0.42999 0.0
N2546 N 0.27746 0.32667 0.44935 0.0
N2547 N 0.27727 0.19945 0.4497 0.0
C2548 C 0.28428 0.29861 0.45411 0.0
C2549 C 0.28394 0.23301 0.45479 0.0
N2550 N 0.27669 0.30511 0.51115 0.0
N2551 N 0.31352 0.23536 0.41418 0.0
H2552 H 0.26628 0.18602 0.46468 0.0
H2553 H 0.27973 0.18471 0.42824 0.0
H2554 H 0.32599 0.24744 0.39973 0.0
H2555 H 0.31742 0.2132 0.41734 0.0
H2556 H 0.28081 0.33055 0.51401 0.0
H2557 H 0.27452 0.29716 0.5335 0.0
H2558 H 0.2663 0.33786 0.46446 0.0
H2559 H 0.27981 0.33652 0.42806 0.0
C2560 C 0.38126 0.59928 0.62094 0.0
C2561 C 0.39416 0.63023 0.61409 0.0
C2562 C 0.42317 0.60586 0.58185 0.0
C2563 C 0.40835 0.5742 0.58581 0.0
N2564 N 0.36971 0.53973 0.60387 0.0
N2565 N 0.42033 0.66048 0.57916 0.0
C2566 C 0.3862 0.57057 0.60374 0.0
C2567 C 0.41299 0.63282 0.59186 0.0
N2568 N 0.36527 0.59751 0.64476 0.0
N2569 N 0.44796 0.61082 0.57044 0.0
H2570 H 0.41232 0.6804 0.5846 0.0
H2571 H 0.43171 0.66198 0.5602 0.0
H2572 H 0.45748 0.59233 0.56445 0.0
H2573 H 0.4609 0.63425 0.57053 0.0
H2574 H 0.35788 0.57615 0.65338 0.0
H2575 H 0.36149 0.61815 0.65813 0.0
H2576 H 0.35155 0.53547 0.61393 0.0
H2577 H 0.37262 0.51823 0.59109 0.0
C2578 C 0.94742 1.00241 0.63855 0.0
C2579 C 0.93421 0.97026 0.61773 0.0
C2580 C 0.9696 0.98133 0.58253 0.0
C2581 C 0.98351 0.01363 0.60404 0.0
N2582 N 0.97479 0.05836 0.64075 0.0
N2583 N 0.9266 0.93345 0.56346 0.0
C2584 C 0.96928 0.02524 0.62869 0.0
C2585 C 0.94352 0.96104 0.58781 0.0
N2586 N 0.9396 1.01117 0.66811 0.0
N2587 N 0.98091 0.96941 0.55708 0.0
H2588 H 0.90701 0.9185 0.56585 0.0
H2589 H 0.93021 0.92727 0.53934 0.0
H2590 H 0.9967 0.98392 0.54805 0.0
H2591 H 0.97484 0.94446 0.54515 0.0
H2592 H 0.95086 0.03313 0.68617 0.0
H2593 H 0.92333 0.99533 0.67574 0.0
H2594 H 0.96363 0.06804 0.65696 0.0
H2595 H 0.98685 0.07603 0.63029 0.0
C2596 C 0.92459 0.11408 0.33304 0.0
C2597 C 0.9132 0.08255 0.33968 0.0
C2598 C 0.86974 0.09656 0.34844 0.0
C2599 C 0.87913 0.12579 0.33672 0.0
N2600 N 0.91405 0.16138 0.31456 0.0
N2601 N 0.87304 0.04152 0.34862 0.0
C2602 C 0.90626 0.13445 0.32826 0.0
C2603 C 0.88535 0.0732 0.34631 0.0
N2604 N 0.95312 0.12492 0.33238 0.0
N2605 N 0.84615 0.09139 0.3621 0.0
H2606 H 0.88332 0.02319 0.34623 0.0
H2607 H 0.85151 0.03254 0.34966 0.0
H2608 H 0.83427 0.10819 0.36435 0.0
H2609 H 0.84013 0.07213 0.37422 0.0
H2610 H 0.96334 0.14894 0.33103 0.0
H2611 H 0.96737 0.1109 0.33653 0.0
H2612 H 0.9321 0.16675 0.30441 0.0
H2613 H 0.90126 0.17707 0.31094 0.0
C2614 C 0.79866 0.16888 0.13121 0.0
C2615 C 0.79823 0.18989 0.10752 0.0
C2616 C 0.74496 0.16796 0.08893 0.0
C2617 C 0.74547 0.15154 0.11631 0.0
N2618 N 0.77163 0.13455 0.16276 0.0
N2619 N 0.77204 0.2064 0.06071 0.0
C2620 C 0.77201 0.15091 0.13671 0.0
C2621 C 0.7716 0.18811 0.08509 0.0
N2622 N 0.8243 0.16618 0.1489 0.0
N2623 N 0.71893 0.16444 0.06704 0.0
H2624 H 0.79135 0.21919 0.05573 0.0
H2625 H 0.75367 0.20932 0.04556 0.0
H2626 H 0.69916 0.1502 0.06967 0.0
H2627 H 0.7167 0.17392 0.0452 0.0
H2628 H 0.82554 0.14791 0.16246 0.0
H2629 H 0.84481 0.18017 0.14861 0.0
H2630 H 0.78982 0.13693 0.182 0.0
H2631 H 0.75258 0.11948 0.16625 0.0
C2632 C 0.23355 0.41908 0.32925 0.0
C2633 C 0.24012 0.44401 0.36001 0.0
C2634 C 0.27402 0.41363 0.38641 0.0
C2635 C 0.26698 0.38806 0.35592 0.0
N2636 N 0.23476 0.36538 0.29942 0.0
N2637 N 0.26265 0.45904 0.4202 0.0
C2638 C 0.245 0.3905 0.32795 0.0
C2639 C 0.25937 0.4394 0.38901 0.0
N2640 N 0.21741 0.42351 0.3002 0.0
N2641 N 0.29497 0.41348 0.4137 0.0
H2642 H 0.2519 0.47688 0.42342 0.0
H2643 H 0.27332 0.4555 0.44326 0.0
H2644 H 0.30391 0.39408 0.4147 0.0
H2645 H 0.3046 0.4333 0.43471 0.0
H2646 H 0.21469 0.40955 0.27584 0.0
H2647 H 0.20826 0.44286 0.30031 0.0
H2648 H 0.21639 0.36274 0.28029 0.0
H2649 H 0.24341 0.34581 0.29574 0.0
C2650 C 0.27383 0.48242 0.13755 0.0
C2651 C 0.27737 0.46366 0.10756 0.0
C2652 C 0.22643 0.4569 0.07957 0.0
C2653 C 0.22554 0.48203 0.10631 0.0
N2654 N 0.23838 0.49217 0.16778 0.0
N2655 N 0.2555 0.43057 0.04999 0.0
C2656 C 0.24647 0.48788 0.13777 0.0
C2657 C 0.25321 0.45016 0.07854 0.0
N2658 N 0.29661 0.49566 0.16577 0.0
N2659 N 0.20098 0.43588 0.0586 0.0
H2660 H 0.27365 0.42258 0.04888 0.0
H2661 H 0.23975 0.42361 0.02685 0.0
H2662 H 0.18088 0.43685 0.0627 0.0
H2663 H 0.19979 0.41504 0.0407 0.0
H2664 H 0.29566 0.51207 0.187 0.0
H2665 H 0.31701 0.49236 0.16682 0.0
H2666 H 0.25207 0.49386 0.19135 0.0
H2667 H 0.21657 0.48801 0.16808 0.0
C2668 C 0.90349 0.90869 0.34159 0.0
C2669 C 0.90177 0.92031 0.31089 0.0
C2670 C 0.84983 0.88832 0.29137 0.0
C2671 C 0.85125 0.87768 0.32296 0.0
N2672 N 0.87743 0.88943 0.38228 0.0
N2673 N 0.87219 0.92636 0.25947 0.0
C2674 C 0.87758 0.89094 0.34919 0.0
C2675 C 0.87452 0.9119 0.28686 0.0
N2676 N 0.92983 0.91527 0.36419 0.0
N2677 N 0.82559 0.87494 0.26475 0.0
H2678 H 0.89005 0.94142 0.25363 0.0
H2679 H 0.85241 0.92534 0.2438 0.0
H2680 H 0.8076 0.85608 0.26496 0.0
H2681 H 0.82448 0.87938 0.24036 0.0
H2682 H 0.93271 0.90447 0.38512 0.0
H2683 H 0.94928 0.92931 0.36071 0.0
H2684 H 0.89535 0.90117 0.4029 0.0
H2685 H 0.85846 0.88085 0.39001 0.0
C2686 C 0.74219 0.17279 0.88855 0.0
C2687 C 0.74052 0.14317 0.86556 0.0
C2688 C 0.77293 0.17905 0.83775 0.0
C2689 C 0.76972 0.2086 0.85651 0.0
N2690 N 0.74475 0.23059 0.8957 0.0
N2691 N 0.7525 0.11968 0.81465 0.0
C2692 C 0.75277 0.20462 0.88102 0.0
C2693 C 0.75556 0.14675 0.83926 0.0
N2694 N 0.73371 0.17061 0.91815 0.0
N2695 N 0.79359 0.18147 0.81962 0.0
H2696 H 0.74065 0.09591 0.81496 0.0
H2697 H 0.75999 0.12126 0.79267 0.0
H2698 H 0.80802 0.20396 0.81977 0.0
H2699 H 0.79873 0.16105 0.80803 0.0
H2700 H 0.73681 0.19123 0.93742 0.0
H2701 H 0.72683 0.14809 0.92504 0.0
H2702 H 0.73023 0.2282 0.91123 0.0
H2703 H 0.74943 0.25339 0.88905 0.0
loop_
_geom_bond_atom_site_label_1
_geom_bond_atom_site_label_2
_geom_bond_distance
_geom_bond_site_symmetry_2
_ccdc_geom_bond_type
Zn0 O3 2.031 . S
Zn0 O5 2.049 . S
Zn0 O10 2.067 . S
Zn1 O2 1.962 . S
Zn1 O4 1.986 . S
Zn1 O6 1.996 . S
Zn1 O9 1.943 1_455 S
O2 Zn1 1.962 . S
O2 C7 1.254 . S
O3 Zn0 2.031 . S
O3 C7 1.269 1_655 S
O4 Zn1 1.986 . S
O4 C11 1.262 . S
O5 Zn0 2.049 . S
O5 C13 1.260 . S
O6 Zn1 1.996 . S
O6 C13 1.257 1_455 S
C7 O2 1.254 . S
C7 O3 1.269 1_455 S
C8 O9 1.249 . S
C8 O10 1.270 . S
O9 Zn1 1.943 1_655 S
O9 C8 1.249 . S
O10 Zn0 2.067 . S
O10 C8 1.270 . S
C11 O4 1.262 . S
C11 O12 1.232 . S
O12 C11 1.232 . S
C13 O5 1.260 . S
C13 O6 1.257 1_655 S
Zn14 O17 2.031 . S
Zn14 O19 2.049 . S
Zn14 O24 2.067 . S
Zn15 O16 1.962 . S
Zn15 O18 1.986 . S
Zn15 O20 1.996 . S
Zn15 O23 1.943 . S
O16 Zn15 1.962 . S
O16 C21 1.254 . S
O17 Zn14 2.031 . S
O17 C21 1.269 . S
O18 Zn15 1.986 . S
O18 C25 1.262 . S
O19 Zn14 2.049 . S
O19 C27 1.260 . S
O20 Zn15 1.996 . S
O20 C27 1.257 . S
C21 O16 1.254 . S
C21 O17 1.269 . S
C22 O23 1.249 . S
C22 O24 1.270 . S
O23 Zn15 1.943 . S
O23 C22 1.249 . S
O24 Zn14 2.067 . S
O24 C22 1.270 . S
C25 O18 1.262 . S
C25 O26 1.232 . S
O26 C25 1.232 . S
C27 O19 1.260 . S
C27 O20 1.257 . S
Zn28 O31 2.031 . S
Zn28 O33 2.049 . S
Zn28 O38 2.067 . S
Zn29 O30 1.962 . S
Zn29 O32 1.986 . S
Zn29 O34 1.996 . S
Zn29 O37 1.943 . S
O30 Zn29 1.962 . S
O30 C35 1.254 . S
O31 Zn28 2.031 . S
O31 C35 1.269 . S
O32 Zn29 1.986 . S
O32 C39 1.262 . S
O33 Zn28 2.049 . S
O33 C41 1.260 . S
O34 Zn29 1.996 . S
O34 C41 1.257 . S
C35 O30 1.254 . S
C35 O31 1.269 . S
C36 O37 1.249 . S
C36 O38 1.270 . S
O37 Zn29 1.943 . S
O37 C36 1.249 . S
O38 Zn28 2.067 . S
O38 C36 1.270 . S
C39 O32 1.262 . S
C39 O40 1.232 . S
O40 C39 1.232 . S
C41 O33 1.260 . S
C41 O34 1.257 . S
Zn42 O45 2.031 . S
Zn42 O47 2.049 . S
Zn42 O52 2.067 . S
Zn43 O44 1.962 . S
Zn43 O46 1.986 . S
Zn43 O48 1.996 . S
Zn43 O51 1.943 . S
O44 Zn43 1.962 . S
O44 C49 1.254 . S
O45 Zn42 2.031 . S
O45 C49 1.269 . S
O46 Zn43 1.986 . S
O46 C53 1.262 . S
O47 Zn42 2.049 . S
O47 C55 1.260 . S
O48 Zn43 1.996 . S
O48 C55 1.257 . S
C49 O44 1.254 . S
C49 O45 1.269 . S
C50 O51 1.249 . S
C50 O52 1.270 . S
O51 Zn43 1.943 . S
O51 C50 1.249 . S
O52 Zn42 2.067 . S
O52 C50 1.270 . S
C53 O46 1.262 . S
C53 O54 1.232 . S
O54 C53 1.232 . S
C55 O47 1.260 . S
C55 O48 1.257 . S
Zn56 O59 2.031 . S
Zn56 O61 2.049 . S
Zn56 O66 2.067 . S
Zn57 O58 1.962 . S
Zn57 O60 1.986 . S
Zn57 O62 1.996 . S
Zn57 O65 1.943 . S
O58 Zn57 1.962 . S
O58 C63 1.254 . S
O59 Zn56 2.031 . S
O59 C63 1.269 . S
O60 Zn57 1.986 . S
O60 C67 1.262 . S
O61 Zn56 2.049 . S
O61 C69 1.260 . S
O62 Zn57 1.996 . S
O62 C69 1.257 . S
C63 O58 1.254 . S
C63 O59 1.269 . S
C64 O65 1.249 . S
C64 O66 1.270 . S
O65 Zn57 1.943 . S
O65 C64 1.249 . S
O66 Zn56 2.067 . S
O66 C64 1.270 . S
C67 O60 1.262 . S
C67 O68 1.232 . S
O68 C67 1.232 . S
C69 O61 1.260 . S
C69 O62 1.257 . S
Zn70 O73 2.031 . S
Zn70 O75 2.049 . S
Zn70 O80 2.067 . S
Zn71 O72 1.962 . S
Zn71 O74 1.986 . S
Zn71 O76 1.996 . S
Zn71 O79 1.943 . S
O72 Zn71 1.962 . S
O72 C77 1.254 . S
O73 Zn70 2.031 . S
O73 C77 1.269 . S
O74 Zn71 1.986 . S
O74 C81 1.262 . S
O75 Zn70 2.049 . S
O75 C83 1.260 . S
O76 Zn71 1.996 . S
O76 C83 1.257 . S
C77 O72 1.254 . S
C77 O73 1.269 . S
C78 O79 1.249 . S
C78 O80 1.270 . S
O79 Zn71 1.943 . S
O79 C78 1.249 . S
O80 Zn70 2.067 . S
O80 C78 1.270 . S
C81 O74 1.262 . S
C81 O82 1.232 . S
O82 C81 1.232 . S
C83 O75 1.260 . S
C83 O76 1.257 . S
Zn84 O87 2.031 . S
Zn84 O89 2.049 . S
Zn84 O94 2.067 . S
Zn85 O86 1.962 . S
Zn85 O88 1.986 . S
Zn85 O90 1.996 . S
Zn85 O93 1.943 . S
O86 Zn85 1.962 . S
O86 C91 1.254 . S
O87 Zn84 2.031 . S
O87 C91 1.269 . S
O88 Zn85 1.986 . S
O88 C95 1.262 . S
O89 Zn84 2.049 . S
O89 C97 1.260 . S
O90 Zn85 1.996 . S
O90 C97 1.257 . S
C91 O86 1.254 . S
C91 O87 1.269 . S
C92 O93 1.249 . S
C92 O94 1.270 . S
O93 Zn85 1.943 . S
O93 C92 1.249 . S
O94 Zn84 2.067 . S
O94 C92 1.270 . S
C95 O88 1.262 . S
C95 O96 1.232 . S
O96 C95 1.232 . S
C97 O89 1.260 . S
C97 O90 1.257 . S
Zn98 O101 2.031 . S
Zn98 O103 2.049 . S
Zn98 O108 2.067 1_554 S
Zn99 O100 1.962 1_556 S
Zn99 O102 1.986 . S
Zn99 O104 1.996 1_556 S
Zn99 O107 1.943 1_455 S
O100 Zn99 1.962 1_554 S
O100 C105 1.254 . S
O101 Zn98 2.031 . S
O101 C105 1.269 1_655 S
O102 Zn99 1.986 . S
O102 C109 1.262 . S
O103 Zn98 2.049 . S
O103 C111 1.292 . S
O104 Zn99 1.996 1_554 S
O104 C111 1.245 1_455 S
C105 O100 1.254 . S
C105 O101 1.269 1_455 S
C106 O107 1.249 . S
C106 O108 1.270 . S
O107 Zn99 1.943 1_655 S
O107 C106 1.249 . S
O108 Zn98 2.067 1_556 S
O108 C106 1.270 . S
C109 O102 1.262 . S
C109 O110 1.232 . S
O110 C109 1.232 . S
C111 O103 1.292 . S
C111 O104 1.245 1_655 S
Zn112 O115 2.031 1_565 S
Zn112 O117 2.049 1_565 S
Zn112 O122 2.067 . S
Zn113 O114 1.962 . S
Zn113 O116 1.986 . S
Zn113 O118 1.996 . S
Zn113 O121 1.943 . S
O114 Zn113 1.962 . S
O114 C119 1.254 . S
O115 Zn112 2.031 1_545 S
O115 C119 1.269 . S
O116 Zn113 1.986 . S
O116 C123 1.262 . S
O117 Zn112 2.049 1_545 S
O117 C125 1.260 . S
O118 Zn113 1.996 . S
O118 C125 1.257 . S
C119 O114 1.254 . S
C119 O115 1.269 . S
C120 O121 1.249 1_565 S
C120 O122 1.270 . S
O121 Zn113 1.943 . S
O121 C120 1.249 1_545 S
O122 Zn112 2.067 . S
O122 C120 1.270 . S
C123 O116 1.262 . S
C123 O124 1.232 . S
O124 C123 1.232 . S
C125 O117 1.260 . S
C125 O118 1.257 . S
Zn126 O129 2.031 . S
Zn126 O131 2.049 . S
Zn126 O136 2.067 . S
Zn127 O128 1.962 . S
Zn127 O130 1.986 . S
Zn127 O132 1.996 . S
Zn127 O135 1.943 . S
O128 Zn127 1.962 . S
O128 C133 1.254 . S
O129 Zn126 2.031 . S
O129 C133 1.269 . S
O130 Zn127 1.986 . S
O130 C137 1.262 . S
O131 Zn126 2.049 . S
O131 C139 1.260 . S
O132 Zn127 1.996 . S
O132 C139 1.257 . S
C133 O128 1.254 . S
C133 O129 1.269 . S
C134 O135 1.249 . S
C134 O136 1.270 . S
O135 Zn127 1.943 . S
O135 C134 1.249 . S
O136 Zn126 2.067 . S
O136 C134 1.270 . S
C137 O130 1.262 . S
C137 O138 1.232 . S
O138 C137 1.232 . S
C139 O131 1.260 . S
C139 O132 1.257 . S
Zn140 O143 2.031 . S
Zn140 O145 2.049 . S
Zn140 O150 2.067 . S
Zn141 O142 1.962 . S
Zn141 O144 1.986 . S
Zn141 O146 1.996 . S
Zn141 O149 1.943 . S
O142 Zn141 1.962 . S
O142 C147 1.254 . S
O143 Zn140 2.031 . S
O143 C147 1.269 . S
O144 Zn141 1.986 . S
O144 C151 1.262 . S
O145 Zn140 2.049 . S
O145 C153 1.260 . S
O146 Zn141 1.996 . S
O146 C153 1.257 . S
C147 O142 1.254 . S
C147 O143 1.269 . S
C148 O149 1.249 . S
C148 O150 1.270 . S
O149 Zn141 1.943 . S
O149 C148 1.249 . S
O150 Zn140 2.067 . S
O150 C148 1.270 . S
C151 O144 1.262 . S
C151 O152 1.232 . S
O152 C151 1.232 . S
C153 O145 1.260 . S
C153 O146 1.257 . S
Zn154 O157 2.031 1_554 S
Zn154 O159 2.049 . S
Zn154 O164 2.067 . S
Zn155 O156 1.962 . S
Zn155 O158 1.986 1_556 S
Zn155 O160 1.996 1_556 S
Zn155 O163 1.943 1_556 S
O156 Zn155 1.962 . S
O156 C161 1.254 . S
O157 Zn154 2.031 1_556 S
O157 C161 1.269 . S
O158 Zn155 1.986 1_554 S
O158 C165 1.262 1_554 S
O159 Zn154 2.049 . S
O159 C167 1.260 . S
O160 Zn155 1.996 1_554 S
O160 C167 1.257 . S
C161 O156 1.254 . S
C161 O157 1.269 . S
C162 O163 1.249 . S
C162 O164 1.270 . S
O163 Zn155 1.943 1_554 S
O163 C162 1.249 . S
O164 Zn154 2.067 . S
O164 C162 1.270 . S
C165 O158 1.262 1_556 S
C165 O166 1.232 . S
O166 C165 1.232 . S
C167 O159 1.260 . S
C167 O160 1.257 . S
Zn168 O171 2.031 . S
Zn168 O173 2.049 . S
Zn168 O178 2.067 . S
Zn169 O170 1.962 . S
Zn169 O172 1.986 . S
Zn169 O174 1.996 . S
Zn169 O177 1.943 . S
O170 Zn169 1.962 . S
O170 C175 1.254 . S
O171 Zn168 2.031 . S
O171 C175 1.269 . S
O172 Zn169 1.986 . S
O172 C179 1.262 . S
O173 Zn168 2.049 . S
O173 C181 1.260 . S
O174 Zn169 1.996 . S
O174 C181 1.257 . S
C175 O170 1.254 . S
C175 O171 1.269 . S
C176 O177 1.249 . S
C176 O178 1.270 . S
O177 Zn169 1.943 . S
O177 C176 1.249 . S
O178 Zn168 2.067 . S
O178 C176 1.270 . S
C179 O172 1.262 . S
C179 O180 1.232 . S
O180 C179 1.232 . S
C181 O173 1.260 . S
C181 O174 1.257 . S
Zn182 O185 2.031 . S
Zn182 O187 2.049 . S
Zn182 O192 2.067 . S
Zn183 O184 1.962 . S
Zn183 O186 1.986 . S
Zn183 O188 1.996 . S
Zn183 O191 1.943 . S
O184 Zn183 1.962 . S
O184 C189 1.254 . S
O185 Zn182 2.031 . S
O185 C189 1.269 . S
O186 Zn183 1.986 . S
O186 C193 1.262 . S
O187 Zn182 2.049 . S
O187 C195 1.260 . S
O188 Zn183 1.996 . S
O188 C195 1.257 . S
C189 O184 1.254 . S
C189 O185 1.269 . S
C190 O191 1.249 . S
C190 O192 1.270 . S
O191 Zn183 1.943 . S
O191 C190 1.249 . S
O192 Zn182 2.067 . S
O192 C190 1.270 . S
C193 O186 1.262 . S
C193 O194 1.232 . S
O194 C193 1.232 . S
C195 O187 1.260 . S
C195 O188 1.257 . S
Zn196 O199 2.031 . S
Zn196 O201 2.049 . S
Zn196 O206 2.067 . S
Zn197 O198 1.962 . S
Zn197 O200 1.986 . S
Zn197 O202 1.996 . S
Zn197 O205 1.943 . S
O198 Zn197 1.962 . S
O198 C203 1.254 . S
O199 Zn196 2.031 . S
O199 C203 1.269 . S
O200 Zn197 1.986 . S
O200 C207 1.262 . S
O201 Zn196 2.049 . S
O201 C209 1.260 . S
O202 Zn197 1.996 . S
O202 C209 1.257 . S
C203 O198 1.254 . S
C203 O199 1.269 . S
C204 O205 1.249 . S
C204 O206 1.270 . S
O205 Zn197 1.943 . S
O205 C204 1.249 . S
O206 Zn196 2.067 . S
O206 C204 1.270 . S
C207 O200 1.262 . S
C207 O208 1.232 . S
O208 C207 1.232 . S
C209 O201 1.260 . S
C209 O202 1.257 . S
Zn210 O213 2.031 . S
Zn210 O215 2.049 . S
Zn210 O220 2.067 . S
Zn211 O212 1.962 . S
Zn211 O214 1.986 . S
Zn211 O216 1.996 . S
Zn211 O219 1.943 . S
O212 Zn211 1.962 . S
O212 C217 1.254 . S
O213 Zn210 2.031 . S
O213 C217 1.269 . S
O214 Zn211 1.986 . S
O214 C221 1.262 . S
O215 Zn210 2.049 . S
O215 C223 1.260 . S
O216 Zn211 1.996 . S
O216 C223 1.257 . S
C217 O212 1.254 . S
C217 O213 1.269 . S
C218 O219 1.249 . S
C218 O220 1.270 . S
O219 Zn211 1.943 . S
O219 C218 1.249 . S
O220 Zn210 2.067 . S
O220 C218 1.270 . S
C221 O214 1.262 . S
C221 O222 1.232 . S
O222 C221 1.232 . S
C223 O215 1.260 . S
C223 O216 1.257 . S
Zn224 O227 2.031 . S
Zn224 O229 2.049 . S
Zn224 O234 2.067 . S
Zn225 O226 1.962 . S
Zn225 O228 1.986 . S
Zn225 O230 1.996 . S
Zn225 O233 1.943 1_545 S
O226 Zn225 1.962 . S
O226 C231 1.254 . S
O227 Zn224 2.031 . S
O227 C231 1.269 1_565 S
O228 Zn225 1.986 . S
O228 C235 1.262 . S
O229 Zn224 2.049 . S
O229 C237 1.260 . S
O230 Zn225 1.996 . S
O230 C237 1.257 1_545 S
C231 O226 1.254 . S
C231 O227 1.269 1_545 S
C232 O233 1.249 . S
C232 O234 1.270 . S
O233 Zn225 1.943 1_565 S
O233 C232 1.249 . S
O234 Zn224 2.067 . S
O234 C232 1.270 . S
C235 O228 1.262 . S
C235 O236 1.232 . S
O236 C235 1.232 . S
C237 O229 1.260 . S
C237 O230 1.257 1_565 S
Zn238 O241 2.031 . S
Zn238 O243 2.049 . S
Zn238 O248 2.067 . S
Zn239 O240 1.962 . S
Zn239 O242 1.986 . S
Zn239 O244 1.996 . S
Zn239 O247 1.943 . S
O240 Zn239 1.962 . S
O240 C245 1.254 . S
O241 Zn238 2.031 . S
O241 C245 1.269 . S
O242 Zn239 1.986 . S
O242 C249 1.262 . S
O243 Zn238 2.049 . S
O243 C251 1.260 . S
O244 Zn239 1.996 . S
O244 C251 1.257 . S
C245 O240 1.254 . S
C245 O241 1.269 . S
C246 O247 1.249 . S
C246 O248 1.270 . S
O247 Zn239 1.943 . S
O247 C246 1.249 . S
O248 Zn238 2.067 . S
O248 C246 1.270 . S
C249 O242 1.262 . S
C249 O250 1.232 . S
O250 C249 1.232 . S
C251 O243 1.260 . S
C251 O244 1.257 . S
Zn252 O255 2.031 . S
Zn252 O257 2.049 . S
Zn252 O262 2.067 . S
Zn253 O254 1.962 . S
Zn253 O256 1.986 . S
Zn253 O258 1.996 . S
Zn253 O261 1.943 . S
O254 Zn253 1.962 . S
O254 C259 1.254 . S
O255 Zn252 2.031 . S
O255 C259 1.269 . S
O256 Zn253 1.986 . S
O256 C263 1.262 . S
O257 Zn252 2.049 . S
O257 C265 1.260 . S
O258 Zn253 1.996 . S
O258 C265 1.257 . S
C259 O254 1.254 . S
C259 O255 1.269 . S
C260 O261 1.249 . S
C260 O262 1.270 . S
O261 Zn253 1.943 . S
O261 C260 1.249 . S
O262 Zn252 2.067 . S
O262 C260 1.270 . S
C263 O256 1.262 . S
C263 O264 1.232 . S
O264 C263 1.232 . S
C265 O257 1.260 . S
C265 O258 1.257 . S
Zn266 O269 2.031 . S
Zn266 O271 2.049 . S
Zn266 O276 2.067 . S
Zn267 O268 1.962 . S
Zn267 O270 1.986 1_545 S
Zn267 O272 1.996 . S
Zn267 O275 1.943 . S
O268 Zn267 1.962 . S
O268 C273 1.254 . S
O269 Zn266 2.031 . S
O269 C273 1.269 . S
O270 Zn267 1.986 1_565 S
O270 C277 1.262 . S
O271 Zn266 2.049 . S
O271 C279 1.260 . S
O272 Zn267 1.996 . S
O272 C279 1.257 . S
C273 O268 1.254 . S
C273 O269 1.269 . S
C274 O275 1.249 . S
C274 O276 1.270 . S
O275 Zn267 1.943 . S
O275 C274 1.249 . S
O276 Zn266 2.067 . S
O276 C274 1.270 . S
C277 O270 1.262 . S
C277 O278 1.232 1_565 S
O278 C277 1.232 1_545 S
C279 O271 1.260 . S
C279 O272 1.257 . S
Zn280 O283 2.031 . S
Zn280 O285 2.049 . S
Zn280 O290 2.067 . S
Zn281 O282 1.962 . S
Zn281 O284 1.986 . S
Zn281 O286 1.996 . S
Zn281 O289 1.943 . S
O282 Zn281 1.962 . S
O282 C287 1.254 . S
O283 Zn280 2.031 . S
O283 C287 1.269 . S
O284 Zn281 1.986 . S
O284 C291 1.262 . S
O285 Zn280 2.049 . S
O285 C293 1.260 . S
O286 Zn281 1.996 . S
O286 C293 1.257 . S
C287 O282 1.254 . S
C287 O283 1.269 . S
C288 O289 1.249 . S
C288 O290 1.270 . S
O289 Zn281 1.943 . S
O289 C288 1.249 . S
O290 Zn280 2.067 . S
O290 C288 1.270 . S
C291 O284 1.262 . S
C291 O292 1.232 . S
O292 C291 1.232 . S
C293 O285 1.260 . S
C293 O286 1.257 . S
Zn294 O297 2.031 . S
Zn294 O299 2.049 . S
Zn294 O304 2.067 . S
Zn295 O296 1.962 . S
Zn295 O298 1.986 . S
Zn295 O300 1.996 . S
Zn295 O303 1.943 . S
O296 Zn295 1.962 . S
O296 C301 1.254 . S
O297 Zn294 2.031 . S
O297 C301 1.269 . S
O298 Zn295 1.986 . S
O298 C305 1.262 . S
O299 Zn294 2.049 . S
O299 C307 1.260 . S
O300 Zn295 1.996 . S
O300 C307 1.257 . S
C301 O296 1.254 . S
C301 O297 1.269 . S
C302 O303 1.249 . S
C302 O304 1.270 . S
O303 Zn295 1.943 . S
O303 C302 1.249 . S
O304 Zn294 2.067 . S
O304 C302 1.270 . S
C305 O298 1.262 . S
C305 O306 1.232 . S
O306 C305 1.232 . S
C307 O299 1.260 . S
C307 O300 1.257 . S
Zn308 O311 2.031 . S
Zn308 O313 2.049 . S
Zn308 O318 2.067 . S
Zn309 O310 1.962 . S
Zn309 O312 1.986 . S
Zn309 O314 1.996 . S
Zn309 O317 1.943 . S
O310 Zn309 1.962 . S
O310 C315 1.254 . S
O311 Zn308 2.031 . S
O311 C315 1.269 . S
O312 Zn309 1.986 . S
O312 C319 1.262 . S
O313 Zn308 2.049 . S
O313 C321 1.260 . S
O314 Zn309 1.996 . S
O314 C321 1.257 . S
C315 O310 1.254 . S
C315 O311 1.269 . S
C316 O317 1.249 . S
C316 O318 1.270 . S
O317 Zn309 1.943 . S
O317 C316 1.249 . S
O318 Zn308 2.067 . S
O318 C316 1.270 . S
C319 O312 1.262 . S
C319 O320 1.232 . S
O320 C319 1.232 . S
C321 O313 1.260 . S
C321 O314 1.257 . S
Zn322 O325 2.031 . S
Zn322 O327 2.049 . S
Zn322 O332 2.067 . S
Zn323 O324 1.962 . S
Zn323 O326 1.986 . S
Zn323 O328 1.996 . S
Zn323 O331 1.943 . S
O324 Zn323 1.962 . S
O324 C329 1.254 . S
O325 Zn322 2.031 . S
O325 C329 1.269 . S
O326 Zn323 1.986 . S
O326 C333 1.262 . S
O327 Zn322 2.049 . S
O327 C335 1.260 . S
O328 Zn323 1.996 . S
O328 C335 1.257 . S
C329 O324 1.254 . S
C329 O325 1.269 . S
C330 O331 1.249 . S
C330 O332 1.270 . S
O331 Zn323 1.943 . S
O331 C330 1.249 . S
O332 Zn322 2.067 . S
O332 C330 1.270 . S
C333 O326 1.262 . S
C333 O334 1.232 . S
O334 C333 1.232 . S
C335 O327 1.260 . S
C335 O328 1.257 . S
Tb336 C338 2.809 1_455 S
Tb336 O356 2.484 1_455 S
Tb336 O357 2.440 1_455 S
Tb336 O358 2.658 . S
Tb336 O359 2.409 . S
Tb336 O360 2.378 . S
Tb336 O364 2.325 . S
Tb336 O367 2.341 1_545 S
Tb337 C347 2.809 . S
Tb337 O358 2.325 . S
Tb337 O361 2.341 . S
Tb337 O362 2.484 . S
Tb337 O363 2.440 . S
Tb337 O364 2.658 . S
Tb337 O365 2.409 . S
Tb337 O366 2.378 1_545 S
C338 Tb336 2.809 1_655 S
C338 C339 1.514 . S
C338 O356 1.248 . S
C338 O357 1.266 . S
C339 C338 1.514 . S
C339 C340 1.359 . S
C339 C344 1.348 . S
C340 C339 1.359 . S
C340 C341 1.380 . S
C340 H368 0.929 . S
C341 C340 1.380 . S
C341 C342 1.347 . S
C341 H369 0.931 . S
C342 C341 1.347 . S
C342 C343 1.369 . S
C343 C342 1.369 . S
C343 C344 1.408 . S
C343 H370 0.930 . S
C344 C339 1.348 . S
C344 C343 1.408 . S
C344 H371 0.930 . S
C345 O358 1.281 . S
C345 O359 1.254 . S
C346 O360 1.236 . S
C346 O361 1.266 . S
C347 Tb337 2.809 . S
C347 C348 1.514 1_545 S
C347 O362 1.248 . S
C347 O363 1.266 . S
C348 C347 1.514 1_565 S
C348 C349 1.359 . S
C348 C353 1.348 . S
C349 C348 1.359 . S
C349 C350 1.380 . S
C349 H372 0.929 . S
C350 C349 1.380 . S
C350 C351 1.347 . S
C350 H373 0.931 . S
C351 C350 1.347 . S
C351 C352 1.369 . S
C352 C351 1.369 . S
C352 C353 1.408 . S
C352 H374 0.930 . S
C353 C348 1.348 . S
C353 C352 1.408 . S
C353 H375 0.930 1_565 S
C354 O364 1.281 . S
C354 O365 1.254 . S
C355 O366 1.236 . S
C355 O367 1.266 . S
O356 Tb336 2.484 1_655 S
O356 C338 1.248 . S
O357 Tb336 2.440 1_655 S
O357 C338 1.266 . S
O358 Tb336 2.658 . S
O358 Tb337 2.325 . S
O358 C345 1.281 . S
O359 Tb336 2.409 . S
O359 C345 1.254 . S
O360 Tb336 2.378 . S
O360 C346 1.236 . S
O361 Tb337 2.341 . S
O361 C346 1.266 . S
O362 Tb337 2.484 . S
O362 C347 1.248 . S
O363 Tb337 2.440 . S
O363 C347 1.266 . S
O364 Tb336 2.325 . S
O364 Tb337 2.658 . S
O364 C354 1.281 . S
O365 Tb337 2.409 . S
O365 C354 1.254 . S
O366 Tb337 2.378 1_565 S
O366 C355 1.236 . S
O367 Tb336 2.341 1_565 S
O367 C355 1.266 . S
H368 C340 0.929 . S
H369 C341 0.931 . S
H370 C343 0.930 . S
H371 C344 0.930 . S
H372 C349 0.929 . S
H373 C350 0.931 . S
H374 C352 0.930 . S
H375 C353 0.930 1_545 S
Tb376 C378 2.809 . S
Tb376 O396 2.484 . S
Tb376 O397 2.440 . S
Tb376 O398 2.658 . S
Tb376 O399 2.409 . S
Tb376 O400 2.378 . S
Tb376 O404 2.325 . S
Tb376 O407 2.341 . S
Tb377 C387 2.809 . S
Tb377 O398 2.325 . S
Tb377 O401 2.341 . S
Tb377 O402 2.484 . S
Tb377 O403 2.440 . S
Tb377 O404 2.658 . S
Tb377 O405 2.409 . S
Tb377 O406 2.378 . S
C378 Tb376 2.809 . S
C378 C379 1.514 . S
C378 O396 1.248 . S
C378 O397 1.266 . S
C379 C378 1.514 . S
C379 C380 1.359 . S
C379 C384 1.348 . S
C380 C379 1.359 . S
C380 C381 1.380 . S
C380 H408 0.929 . S
C381 C380 1.380 . S
C381 C382 1.347 . S
C381 H409 0.931 . S
C382 C381 1.347 . S
C382 C383 1.369 . S
C383 C382 1.369 . S
C383 C384 1.408 . S
C383 H410 0.930 . S
C384 C379 1.348 . S
C384 C383 1.408 . S
C384 H411 0.930 . S
C385 O398 1.281 . S
C385 O399 1.254 . S
C386 O400 1.236 . S
C386 O401 1.266 . S
C387 Tb377 2.809 . S
C387 C388 1.514 . S
C387 O402 1.248 . S
C387 O403 1.266 . S
C388 C387 1.514 . S
C388 C389 1.359 . S
C388 C393 1.348 . S
C389 C388 1.359 . S
C389 C390 1.380 . S
C389 H412 0.929 . S
C390 C389 1.380 . S
C390 C391 1.347 . S
C390 H413 0.931 . S
C391 C390 1.347 . S
C391 C392 1.369 . S
C392 C391 1.369 . S
C392 C393 1.408 . S
C392 H414 0.930 . S
C393 C388 1.348 . S
C393 C392 1.408 . S
C393 H415 0.930 . S
C394 O404 1.281 . S
C394 O405 1.254 . S
C395 O406 1.236 . S
C395 O407 1.266 . S
O396 Tb376 2.484 . S
O396 C378 1.248 . S
O397 Tb376 2.440 . S
O397 C378 1.266 . S
O398 Tb376 2.658 . S
O398 Tb377 2.325 . S
O398 C385 1.281 . S
O399 Tb376 2.409 . S
O399 C385 1.254 . S
O400 Tb376 2.378 . S
O400 C386 1.236 . S
O401 Tb377 2.341 . S
O401 C386 1.266 . S
O402 Tb377 2.484 . S
O402 C387 1.248 . S
O403 Tb377 2.440 . S
O403 C387 1.266 . S
O404 Tb376 2.325 . S
O404 Tb377 2.658 . S
O404 C394 1.281 . S
O405 Tb377 2.409 . S
O405 C394 1.254 . S
O406 Tb377 2.378 . S
O406 C395 1.236 . S
O407 Tb376 2.341 . S
O407 C395 1.266 . S
H408 C380 0.929 . S
H409 C381 0.931 . S
H410 C383 0.930 . S
H411 C384 0.930 . S
H412 C389 0.929 . S
H413 C390 0.931 . S
H414 C392 0.930 . S
H415 C393 0.930 . S
Tb416 C418 2.809 . S
Tb416 O436 2.484 . S
Tb416 O437 2.440 . S
Tb416 O438 2.658 . S
Tb416 O439 2.409 . S
Tb416 O440 2.378 1_545 S
Tb416 O444 2.325 . S
Tb416 O447 2.341 . S
Tb417 C427 2.809 . S
Tb417 O438 2.325 . S
Tb417 O441 2.341 1_545 S
Tb417 O442 2.484 . S
Tb417 O443 2.440 . S
Tb417 O444 2.658 . S
Tb417 O445 2.409 . S
Tb417 O446 2.378 . S
C418 Tb416 2.809 . S
C418 C419 1.514 1_545 S
C418 O436 1.248 . S
C418 O437 1.266 . S
C419 C418 1.514 1_565 S
C419 C420 1.359 . S
C419 C424 1.348 . S
C420 C419 1.359 . S
C420 C421 1.380 . S
C420 H448 0.929 . S
C421 C420 1.380 . S
C421 C422 1.347 . S
C421 H449 0.931 . S
C422 C421 1.347 . S
C422 C423 1.369 . S
C423 C422 1.369 . S
C423 C424 1.408 . S
C423 H450 0.930 . S
C424 C419 1.348 . S
C424 C423 1.408 . S
C424 H451 0.930 . S
C425 O438 1.281 . S
C425 O439 1.254 . S
C426 O440 1.236 . S
C426 O441 1.266 . S
C427 Tb417 2.809 . S
C427 C428 1.514 . S
C427 O442 1.248 . S
C427 O443 1.266 . S
C428 C427 1.514 . S
C428 C429 1.359 . S
C428 C433 1.348 . S
C429 C428 1.359 . S
C429 C430 1.380 . S
C429 H452 0.929 . S
C430 C429 1.380 . S
C430 C431 1.347 . S
C430 H453 0.931 . S
C431 C430 1.347 . S
C431 C432 1.369 . S
C432 C431 1.369 . S
C432 C433 1.408 . S
C432 H454 0.930 . S
C433 C428 1.348 . S
C433 C432 1.408 . S
C433 H455 0.930 . S
C434 O444 1.281 . S
C434 O445 1.254 . S
C435 O446 1.236 . S
C435 O447 1.266 . S
O436 Tb416 2.484 . S
O436 C418 1.248 . S
O437 Tb416 2.440 . S
O437 C418 1.266 . S
O438 Tb416 2.658 . S
O438 Tb417 2.325 . S
O438 C425 1.281 . S
O439 Tb416 2.409 . S
O439 C425 1.254 . S
O440 Tb416 2.378 1_565 S
O440 C426 1.236 . S
O441 Tb417 2.341 1_565 S
O441 C426 1.266 . S
O442 Tb417 2.484 . S
O442 C427 1.248 . S
O443 Tb417 2.440 . S
O443 C427 1.266 . S
O444 Tb416 2.325 . S
O444 Tb417 2.658 . S
O444 C434 1.281 . S
O445 Tb417 2.409 . S
O445 C434 1.254 . S
O446 Tb417 2.378 . S
O446 C435 1.236 . S
O447 Tb416 2.341 . S
O447 C435 1.266 . S
H448 C420 0.929 . S
H449 C421 0.931 . S
H450 C423 0.930 . S
H451 C424 0.930 . S
H452 C429 0.929 . S
H453 C430 0.931 . S
H454 C432 0.930 . S
H455 C433 0.930 . S
Tb456 C458 2.809 . S
Tb456 O476 2.484 . S
Tb456 O477 2.440 . S
Tb456 O478 2.658 . S
Tb456 O479 2.409 . S
Tb456 O480 2.378 . S
Tb456 O484 2.325 . S
Tb456 O487 2.341 . S
Tb457 C467 2.809 . S
Tb457 O478 2.325 . S
Tb457 O481 2.341 . S
Tb457 O482 2.484 . S
Tb457 O483 2.440 . S
Tb457 O484 2.658 . S
Tb457 O485 2.409 . S
Tb457 O486 2.378 . S
C458 Tb456 2.809 . S
C458 C459 1.514 . S
C458 O476 1.248 . S
C458 O477 1.266 . S
C459 C458 1.514 . S
C459 C460 1.359 . S
C459 C464 1.348 . S
C460 C459 1.359 . S
C460 C461 1.380 . S
C460 H488 0.929 . S
C461 C460 1.380 . S
C461 C462 1.347 . S
C461 H489 0.931 . S
C462 C461 1.347 . S
C462 C463 1.369 . S
C463 C462 1.369 . S
C463 C464 1.408 . S
C463 H490 0.930 . S
C464 C459 1.348 . S
C464 C463 1.408 . S
C464 H491 0.930 . S
C465 O478 1.281 . S
C465 O479 1.254 . S
C466 O480 1.236 . S
C466 O481 1.266 . S
C467 Tb457 2.809 . S
C467 C468 1.514 . S
C467 O482 1.248 . S
C467 O483 1.266 . S
C468 C467 1.514 . S
C468 C469 1.359 . S
C468 C473 1.348 . S
C469 C468 1.359 . S
C469 C470 1.380 . S
C469 H492 0.929 . S
C470 C469 1.380 . S
C470 C471 1.347 . S
C470 H493 0.931 . S
C471 C470 1.347 . S
C471 C472 1.369 . S
C472 C471 1.369 . S
C472 C473 1.408 . S
C472 H494 0.930 . S
C473 C468 1.348 . S
C473 C472 1.408 . S
C473 H495 0.930 . S
C474 O484 1.281 . S
C474 O485 1.254 . S
C475 O486 1.236 . S
C475 O487 1.266 . S
O476 Tb456 2.484 . S
O476 C458 1.248 . S
O477 Tb456 2.440 . S
O477 C458 1.266 . S
O478 Tb456 2.658 . S
O478 Tb457 2.325 . S
O478 C465 1.281 . S
O479 Tb456 2.409 . S
O479 C465 1.254 . S
O480 Tb456 2.378 . S
O480 C466 1.236 . S
O481 Tb457 2.341 . S
O481 C466 1.266 . S
O482 Tb457 2.484 . S
O482 C467 1.248 . S
O483 Tb457 2.440 . S
O483 C467 1.266 . S
O484 Tb456 2.325 . S
O484 Tb457 2.658 . S
O484 C474 1.281 . S
O485 Tb457 2.409 . S
O485 C474 1.254 . S
O486 Tb457 2.378 . S
O486 C475 1.236 . S
O487 Tb456 2.341 . S
O487 C475 1.266 . S
H488 C460 0.929 . S
H489 C461 0.931 . S
H490 C463 0.930 . S
H491 C464 0.930 . S
H492 C469 0.929 . S
H493 C470 0.931 . S
H494 C472 0.930 . S
H495 C473 0.930 . S
Tb496 C498 2.809 . S
Tb496 O516 2.484 . S
Tb496 O517 2.440 . S
Tb496 O518 2.658 . S
Tb496 O519 2.409 1_455 S
Tb496 O520 2.378 . S
Tb496 O524 2.325 . S
Tb496 O527 2.341 . S
Tb497 C507 2.809 . S
Tb497 O518 2.325 1_565 S
Tb497 O521 2.341 1_565 S
Tb497 O522 2.484 . S
Tb497 O523 2.440 . S
Tb497 O524 2.658 1_565 S
Tb497 O525 2.409 1_565 S
Tb497 O526 2.378 1_565 S
C498 Tb496 2.809 . S
C498 C499 1.514 . S
C498 O516 1.248 . S
C498 O517 1.266 . S
C499 C498 1.514 . S
C499 C500 1.359 . S
C499 C504 1.348 1_455 S
C500 C499 1.359 . S
C500 C501 1.380 . S
C500 H528 0.929 . S
C501 C500 1.380 . S
C501 C502 1.347 . S
C501 H529 0.931 . S
C502 C501 1.347 . S
C502 C503 1.369 1_455 S
C503 C502 1.369 1_655 S
C503 C504 1.408 . S
C503 H530 0.930 . S
C504 C499 1.348 1_655 S
C504 C503 1.408 . S
C504 H531 0.930 . S
C505 O518 1.281 1_655 S
C505 O519 1.254 . S
C506 O520 1.236 . S
C506 O521 1.266 . S
C507 Tb497 2.809 . S
C507 C508 1.514 . S
C507 O522 1.248 . S
C507 O523 1.266 . S
C508 C507 1.514 . S
C508 C509 1.359 . S
C508 C513 1.348 . S
C509 C508 1.359 . S
C509 C510 1.380 . S
C509 H532 0.929 . S
C510 C509 1.380 . S
C510 C511 1.347 . S
C510 H533 0.931 . S
C511 C510 1.347 . S
C511 C512 1.369 . S
C512 C511 1.369 . S
C512 C513 1.408 . S
C512 H534 0.930 . S
C513 C508 1.348 . S
C513 C512 1.408 . S
C513 H535 0.930 . S
C514 O524 1.281 . S
C514 O525 1.254 . S
C515 O526 1.236 . S
C515 O527 1.266 . S
O516 Tb496 2.484 . S
O516 C498 1.248 . S
O517 Tb496 2.440 . S
O517 C498 1.266 . S
O518 Tb496 2.658 . S
O518 Tb497 2.325 1_545 S
O518 C505 1.281 1_455 S
O519 Tb496 2.409 1_655 S
O519 C505 1.254 . S
O520 Tb496 2.378 . S
O520 C506 1.236 . S
O521 Tb497 2.341 1_545 S
O521 C506 1.266 . S
O522 Tb497 2.484 . S
O522 C507 1.248 . S
O523 Tb497 2.440 . S
O523 C507 1.266 . S
O524 Tb496 2.325 . S
O524 Tb497 2.658 1_545 S
O524 C514 1.281 . S
O525 Tb497 2.409 1_545 S
O525 C514 1.254 . S
O526 Tb497 2.378 1_545 S
O526 C515 1.236 . S
O527 Tb496 2.341 . S
O527 C515 1.266 . S
H528 C500 0.929 . S
H529 C501 0.931 . S
H530 C503 0.930 . S
H531 C504 0.930 . S
H532 C509 0.929 . S
H533 C510 0.931 . S
H534 C512 0.930 . S
H535 C513 0.930 . S
Tb536 C538 2.809 . S
Tb536 O556 2.484 . S
Tb536 O557 2.440 . S
Tb536 O558 2.658 . S
Tb536 O559 2.409 . S
Tb536 O560 2.378 . S
Tb536 O564 2.325 . S
Tb536 O567 2.341 . S
Tb537 C547 2.809 . S
Tb537 O558 2.325 . S
Tb537 O561 2.341 . S
Tb537 O562 2.484 . S
Tb537 O563 2.440 . S
Tb537 O564 2.658 . S
Tb537 O565 2.409 . S
Tb537 O566 2.378 . S
C538 Tb536 2.809 . S
C538 C539 1.514 . S
C538 O556 1.248 . S
C538 O557 1.266 . S
C539 C538 1.514 . S
C539 C540 1.359 . S
C539 C544 1.348 . S
C540 C539 1.359 . S
C540 C541 1.380 . S
C540 H568 0.929 . S
C541 C540 1.380 . S
C541 C542 1.347 . S
C541 H569 0.931 . S
C542 C541 1.347 . S
C542 C543 1.369 . S
C543 C542 1.369 . S
C543 C544 1.408 . S
C543 H570 0.930 . S
C544 C539 1.348 . S
C544 C543 1.408 . S
C544 H571 0.930 . S
C545 O558 1.281 . S
C545 O559 1.254 . S
C546 O560 1.236 . S
C546 O561 1.266 . S
C547 Tb537 2.809 . S
C547 C548 1.514 . S
C547 O562 1.248 . S
C547 O563 1.266 . S
C548 C547 1.514 . S
C548 C549 1.359 . S
C548 C553 1.348 . S
C549 C548 1.359 . S
C549 C550 1.380 . S
C549 H572 0.929 . S
C550 C549 1.380 . S
C550 C551 1.347 . S
C550 H573 0.931 . S
C551 C550 1.347 . S
C551 C552 1.369 . S
C552 C551 1.369 . S
C552 C553 1.408 . S
C552 H574 0.930 . S
C553 C548 1.348 . S
C553 C552 1.408 . S
C553 H575 0.930 . S
C554 O564 1.281 . S
C554 O565 1.254 . S
C555 O566 1.236 . S
C555 O567 1.266 . S
O556 Tb536 2.484 . S
O556 C538 1.248 . S
O557 Tb536 2.440 . S
O557 C538 1.266 . S
O558 Tb536 2.658 . S
O558 Tb537 2.325 . S
O558 C545 1.281 . S
O559 Tb536 2.409 . S
O559 C545 1.254 . S
O560 Tb536 2.378 . S
O560 C546 1.236 . S
O561 Tb537 2.341 . S
O561 C546 1.266 . S
O562 Tb537 2.484 . S
O562 C547 1.248 . S
O563 Tb537 2.440 . S
O563 C547 1.266 . S
O564 Tb536 2.325 . S
O564 Tb537 2.658 . S
O564 C554 1.281 . S
O565 Tb537 2.409 . S
O565 C554 1.254 . S
O566 Tb537 2.378 . S
O566 C555 1.236 . S
O567 Tb536 2.341 . S
O567 C555 1.266 . S
H568 C540 0.929 . S
H569 C541 0.931 . S
H570 C543 0.930 . S
H571 C544 0.930 . S
H572 C549 0.929 . S
H573 C550 0.931 . S
H574 C552 0.930 . S
H575 C553 0.930 . S
Tb576 C578 2.809 . S
Tb576 O596 2.484 1_545 S
Tb576 O597 2.440 . S
Tb576 O598 2.658 . S
Tb576 O599 2.409 . S
Tb576 O600 2.378 . S
Tb576 O604 2.325 . S
Tb576 O607 2.341 . S
Tb577 C587 2.809 . S
Tb577 O598 2.325 . S
Tb577 O601 2.341 . S
Tb577 O602 2.484 . S
Tb577 O603 2.440 . S
Tb577 O604 2.658 . S
Tb577 O605 2.409 1_545 S
Tb577 O606 2.378 . S
C578 Tb576 2.809 . S
C578 C579 1.514 1_545 S
C578 O596 1.248 1_545 S
C578 O597 1.266 . S
C579 C578 1.514 1_565 S
C579 C580 1.359 . S
C579 C584 1.348 1_565 S
C580 C579 1.359 . S
C580 C581 1.380 . S
C580 H608 0.929 . S
C581 C580 1.380 . S
C581 C582 1.347 . S
C581 H609 0.931 . S
C582 C581 1.347 . S
C582 C583 1.369 1_565 S
C583 C582 1.369 1_545 S
C583 C584 1.408 . S
C583 H610 0.930 . S
C584 C579 1.348 1_545 S
C584 C583 1.408 . S
C584 H611 0.930 . S
C585 O598 1.281 . S
C585 O599 1.254 . S
C586 O600 1.236 . S
C586 O601 1.266 . S
C587 Tb577 2.809 . S
C587 C588 1.514 . S
C587 O602 1.248 . S
C587 O603 1.266 . S
C588 C587 1.514 . S
C588 C589 1.359 . S
C588 C593 1.348 . S
C589 C588 1.359 . S
C589 C590 1.380 . S
C589 H612 0.929 . S
C590 C589 1.380 . S
C590 C591 1.347 . S
C590 H613 0.931 . S
C591 C590 1.347 . S
C591 C592 1.369 . S
C592 C591 1.369 . S
C592 C593 1.408 . S
C592 H614 0.930 . S
C593 C588 1.348 . S
C593 C592 1.408 . S
C593 H615 0.930 . S
C594 O604 1.281 1_565 S
C594 O605 1.254 . S
C595 O606 1.236 . S
C595 O607 1.266 . S
O596 Tb576 2.484 1_565 S
O596 C578 1.248 1_565 S
O597 Tb576 2.440 . S
O597 C578 1.266 . S
O598 Tb576 2.658 . S
O598 Tb577 2.325 . S
O598 C585 1.281 . S
O599 Tb576 2.409 . S
O599 C585 1.254 . S
O600 Tb576 2.378 . S
O600 C586 1.236 . S
O601 Tb577 2.341 . S
O601 C586 1.266 . S
O602 Tb577 2.484 . S
O602 C587 1.248 . S
O603 Tb577 2.440 . S
O603 C587 1.266 . S
O604 Tb576 2.325 . S
O604 Tb577 2.658 . S
O604 C594 1.281 1_545 S
O605 Tb577 2.409 1_565 S
O605 C594 1.254 . S
O606 Tb577 2.378 . S
O606 C595 1.236 . S
O607 Tb576 2.341 . S
O607 C595 1.266 . S
H608 C580 0.929 . S
H609 C581 0.931 . S
H610 C583 0.930 . S
H611 C584 0.930 . S
H612 C589 0.929 . S
H613 C590 0.931 . S
H614 C592 0.930 . S
H615 C593 0.930 . S
Tb616 C618 2.809 . S
Tb616 O636 2.484 . S
Tb616 O637 2.440 . S
Tb616 O638 2.658 . S
Tb616 O639 2.409 . S
Tb616 O640 2.378 . S
Tb616 O644 2.325 . S
Tb616 O647 2.341 . S
Tb617 C627 2.809 . S
Tb617 O638 2.325 . S
Tb617 O641 2.341 . S
Tb617 O642 2.484 . S
Tb617 O643 2.440 . S
Tb617 O644 2.658 . S
Tb617 O645 2.409 . S
Tb617 O646 2.378 . S
C618 Tb616 2.809 . S
C618 C619 1.514 . S
C618 O636 1.248 . S
C618 O637 1.266 . S
C619 C618 1.514 . S
C619 C620 1.359 . S
C619 C624 1.348 . S
C620 C619 1.359 . S
C620 C621 1.380 . S
C620 H648 0.929 . S
C621 C620 1.380 . S
C621 C622 1.347 . S
C621 H649 0.931 . S
C622 C621 1.347 . S
C622 C623 1.369 . S
C623 C622 1.369 . S
C623 C624 1.408 . S
C623 H650 0.930 . S
C624 C619 1.348 . S
C624 C623 1.408 . S
C624 H651 0.930 . S
C625 O638 1.281 . S
C625 O639 1.254 . S
C626 O640 1.236 . S
C626 O641 1.266 . S
C627 Tb617 2.809 . S
C627 C628 1.514 . S
C627 O642 1.248 . S
C627 O643 1.266 . S
C628 C627 1.514 . S
C628 C629 1.359 . S
C628 C633 1.348 . S
C629 C628 1.359 . S
C629 C630 1.380 . S
C629 H652 0.929 . S
C630 C629 1.380 . S
C630 C631 1.347 . S
C630 H653 0.931 . S
C631 C630 1.347 . S
C631 C632 1.369 . S
C632 C631 1.369 . S
C632 C633 1.408 . S
C632 H654 0.930 . S
C633 C628 1.348 . S
C633 C632 1.408 . S
C633 H655 0.930 . S
C634 O644 1.281 . S
C634 O645 1.254 . S
C635 O646 1.236 . S
C635 O647 1.266 . S
O636 Tb616 2.484 . S
O636 C618 1.248 . S
O637 Tb616 2.440 . S
O637 C618 1.266 . S
O638 Tb616 2.658 . S
O638 Tb617 2.325 . S
O638 C625 1.281 . S
O639 Tb616 2.409 . S
O639 C625 1.254 . S
O640 Tb616 2.378 . S
O640 C626 1.236 . S
O641 Tb617 2.341 . S
O641 C626 1.266 . S
O642 Tb617 2.484 . S
O642 C627 1.248 . S
O643 Tb617 2.440 . S
O643 C627 1.266 . S
O644 Tb616 2.325 . S
O644 Tb617 2.658 . S
O644 C634 1.281 . S
O645 Tb617 2.409 . S
O645 C634 1.254 . S
O646 Tb617 2.378 . S
O646 C635 1.236 . S
O647 Tb616 2.341 . S
O647 C635 1.266 . S
H648 C620 0.929 . S
H649 C621 0.931 . S
H650 C623 0.930 . S
H651 C624 0.930 . S
H652 C629 0.929 . S
H653 C630 0.931 . S
H654 C632 0.930 . S
H655 C633 0.930 . S
Tb656 C658 2.809 . S
Tb656 O676 2.484 . S
Tb656 O677 2.440 . S
Tb656 O678 2.658 . S
Tb656 O679 2.409 . S
Tb656 O680 2.378 . S
Tb656 O684 2.325 . S
Tb656 O687 2.341 . S
Tb657 C667 2.809 . S
Tb657 O678 2.325 . S
Tb657 O681 2.341 . S
Tb657 O682 2.484 . S
Tb657 O683 2.440 . S
Tb657 O684 2.658 . S
Tb657 O685 2.409 . S
Tb657 O686 2.378 . S
C658 Tb656 2.809 . S
C658 C659 1.514 . S
C658 O676 1.248 . S
C658 O677 1.266 . S
C659 C658 1.514 . S
C659 C660 1.359 . S
C659 C664 1.348 . S
C660 C659 1.359 . S
C660 C661 1.380 1_554 S
C660 H688 0.929 . S
C661 C660 1.380 1_556 S
C661 C662 1.347 . S
C661 H689 0.931 . S
C662 C661 1.347 . S
C662 C663 1.369 1_556 S
C663 C662 1.369 1_554 S
C663 C664 1.408 . S
C663 H690 0.930 . S
C664 C659 1.348 . S
C664 C663 1.408 . S
C664 H691 0.930 . S
C665 O678 1.281 . S
C665 O679 1.254 . S
C666 O680 1.236 . S
C666 O681 1.266 . S
C667 Tb657 2.809 . S
C667 C668 1.514 . S
C667 O682 1.248 . S
C667 O683 1.266 . S
C668 C667 1.514 . S
C668 C669 1.359 . S
C668 C673 1.348 . S
C669 C668 1.359 . S
C669 C670 1.380 . S
C669 H692 0.929 . S
C670 C669 1.380 . S
C670 C671 1.347 . S
C670 H693 0.931 . S
C671 C670 1.347 . S
C671 C672 1.369 . S
C672 C671 1.369 . S
C672 C673 1.408 . S
C672 H694 0.930 . S
C673 C668 1.348 . S
C673 C672 1.408 . S
C673 H695 0.930 . S
C674 O684 1.281 . S
C674 O685 1.254 . S
C675 O686 1.236 . S
C675 O687 1.266 . S
O676 Tb656 2.484 . S
O676 C658 1.248 . S
O677 Tb656 2.440 . S
O677 C658 1.266 . S
O678 Tb656 2.658 . S
O678 Tb657 2.325 . S
O678 C665 1.281 . S
O679 Tb656 2.409 . S
O679 C665 1.254 . S
O680 Tb656 2.378 . S
O680 C666 1.236 . S
O681 Tb657 2.341 . S
O681 C666 1.266 . S
O682 Tb657 2.484 . S
O682 C667 1.248 . S
O683 Tb657 2.440 . S
O683 C667 1.266 . S
O684 Tb656 2.325 . S
O684 Tb657 2.658 . S
O684 C674 1.281 . S
O685 Tb657 2.409 . S
O685 C674 1.254 . S
O686 Tb657 2.378 . S
O686 C675 1.236 . S
O687 Tb656 2.341 . S
O687 C675 1.266 . S
H688 C660 0.929 . S
H689 C661 0.931 . S
H690 C663 0.930 . S
H691 C664 0.930 . S
H692 C669 0.929 . S
H693 C670 0.931 . S
H694 C672 0.930 . S
H695 C673 0.930 . S
Tb696 C698 2.809 . S
Tb696 O716 2.484 . S
Tb696 O717 2.440 . S
Tb696 O718 2.658 . S
Tb696 O719 2.409 . S
Tb696 O720 2.378 . S
Tb696 O724 2.325 . S
Tb696 O727 2.341 . S
Tb697 C707 2.809 . S
Tb697 O718 2.325 . S
Tb697 O721 2.341 . S
Tb697 O722 2.484 . S
Tb697 O723 2.440 . S
Tb697 O724 2.658 . S
Tb697 O725 2.409 . S
Tb697 O726 2.378 . S
C698 Tb696 2.809 . S
C698 C699 1.514 . S
C698 O716 1.248 . S
C698 O717 1.266 . S
C699 C698 1.514 . S
C699 C700 1.359 . S
C699 C704 1.348 . S
C700 C699 1.359 . S
C700 C701 1.380 . S
C700 H728 0.929 . S
C701 C700 1.380 . S
C701 C702 1.347 . S
C701 H729 0.931 . S
C702 C701 1.347 . S
C702 C703 1.369 . S
C703 C702 1.369 . S
C703 C704 1.408 . S
C703 H730 0.930 . S
C704 C699 1.348 . S
C704 C703 1.408 . S
C704 H731 0.930 . S
C705 O718 1.281 . S
C705 O719 1.254 . S
C706 O720 1.236 . S
C706 O721 1.266 . S
C707 Tb697 2.809 . S
C707 C708 1.514 . S
C707 O722 1.248 . S
C707 O723 1.266 . S
C708 C707 1.514 . S
C708 C709 1.359 . S
C708 C713 1.348 . S
C709 C708 1.359 . S
C709 C710 1.380 . S
C709 H732 0.929 . S
C710 C709 1.380 . S
C710 C711 1.347 . S
C710 H733 0.931 . S
C711 C710 1.347 . S
C711 C712 1.369 . S
C712 C711 1.369 . S
C712 C713 1.408 . S
C712 H734 0.930 . S
C713 C708 1.348 . S
C713 C712 1.408 . S
C713 H735 0.930 . S
C714 O724 1.281 . S
C714 O725 1.254 . S
C715 O726 1.236 . S
C715 O727 1.266 . S
O716 Tb696 2.484 . S
O716 C698 1.248 . S
O717 Tb696 2.440 . S
O717 C698 1.266 . S
O718 Tb696 2.658 . S
O718 Tb697 2.325 . S
O718 C705 1.281 . S
O719 Tb696 2.409 . S
O719 C705 1.254 . S
O720 Tb696 2.378 . S
O720 C706 1.236 . S
O721 Tb697 2.341 . S
O721 C706 1.266 . S
O722 Tb697 2.484 . S
O722 C707 1.248 . S
O723 Tb697 2.440 . S
O723 C707 1.266 . S
O724 Tb696 2.325 . S
O724 Tb697 2.658 . S
O724 C714 1.281 . S
O725 Tb697 2.409 . S
O725 C714 1.254 . S
O726 Tb697 2.378 . S
O726 C715 1.236 . S
O727 Tb696 2.341 . S
O727 C715 1.266 . S
H728 C700 0.929 . S
H729 C701 0.931 . S
H730 C703 0.930 . S
H731 C704 0.930 . S
H732 C709 0.929 . S
H733 C710 0.931 . S
H734 C712 0.930 . S
H735 C713 0.930 . S
Tb736 C738 2.809 1_455 S
Tb736 O756 2.484 1_455 S
Tb736 O757 2.440 1_455 S
Tb736 O758 2.658 . S
Tb736 O759 2.409 . S
Tb736 O760 2.378 1_455 S
Tb736 O764 2.325 . S
Tb736 O767 2.341 . S
Tb737 C747 2.809 . S
Tb737 O758 2.325 . S
Tb737 O761 2.341 . S
Tb737 O762 2.484 . S
Tb737 O763 2.440 . S
Tb737 O764 2.658 . S
Tb737 O765 2.409 . S
Tb737 O766 2.378 . S
C738 Tb736 2.809 1_655 S
C738 C739 1.514 . S
C738 O756 1.248 . S
C738 O757 1.266 . S
C739 C738 1.514 . S
C739 C740 1.359 . S
C739 C744 1.348 . S
C740 C739 1.359 . S
C740 C741 1.380 . S
C740 H768 0.929 . S
C741 C740 1.380 . S
C741 C742 1.347 . S
C741 H769 0.931 . S
C742 C741 1.347 . S
C742 C743 1.369 . S
C743 C742 1.369 . S
C743 C744 1.408 . S
C743 H770 0.930 . S
C744 C739 1.348 . S
C744 C743 1.408 . S
C744 H771 0.930 . S
C745 O758 1.281 . S
C745 O759 1.254 . S
C746 O760 1.236 1_455 S
C746 O761 1.266 . S
C747 Tb737 2.809 . S
C747 C748 1.514 . S
C747 O762 1.248 . S
C747 O763 1.266 . S
C748 C747 1.514 . S
C748 C749 1.359 . S
C748 C753 1.348 . S
C749 C748 1.359 . S
C749 C750 1.380 . S
C749 H772 0.929 . S
C750 C749 1.380 . S
C750 C751 1.347 . S
C750 H773 0.931 . S
C751 C750 1.347 . S
C751 C752 1.369 . S
C752 C751 1.369 . S
C752 C753 1.408 . S
C752 H774 0.930 . S
C753 C748 1.348 . S
C753 C752 1.408 . S
C753 H775 0.930 . S
C754 O764 1.281 . S
C754 O765 1.254 . S
C755 O766 1.236 . S
C755 O767 1.266 . S
O756 Tb736 2.484 1_655 S
O756 C738 1.248 . S
O757 Tb736 2.440 1_655 S
O757 C738 1.266 . S
O758 Tb736 2.658 . S
O758 Tb737 2.325 . S
O758 C745 1.281 . S
O759 Tb736 2.409 . S
O759 C745 1.254 . S
O760 Tb736 2.378 1_655 S
O760 C746 1.236 1_655 S
O761 Tb737 2.341 . S
O761 C746 1.266 . S
O762 Tb737 2.484 . S
O762 C747 1.248 . S
O763 Tb737 2.440 . S
O763 C747 1.266 . S
O764 Tb736 2.325 . S
O764 Tb737 2.658 . S
O764 C754 1.281 . S
O765 Tb737 2.409 . S
O765 C754 1.254 . S
O766 Tb737 2.378 . S
O766 C755 1.236 . S
O767 Tb736 2.341 . S
O767 C755 1.266 . S
H768 C740 0.929 . S
H769 C741 0.931 . S
H770 C743 0.930 . S
H771 C744 0.930 . S
H772 C749 0.929 . S
H773 C750 0.931 . S
H774 C752 0.930 . S
H775 C753 0.930 . S
Tb776 C778 2.809 . S
Tb776 O796 2.484 . S
Tb776 O797 2.440 . S
Tb776 O798 2.658 . S
Tb776 O799 2.409 . S
Tb776 O800 2.378 . S
Tb776 O804 2.325 . S
Tb776 O807 2.341 . S
Tb777 C787 2.809 . S
Tb777 O798 2.325 . S
Tb777 O801 2.341 . S
Tb777 O802 2.484 . S
Tb777 O803 2.440 . S
Tb777 O804 2.658 . S
Tb777 O805 2.409 . S
Tb777 O806 2.378 . S
C778 Tb776 2.809 . S
C778 C779 1.514 . S
C778 O796 1.248 . S
C778 O797 1.266 . S
C779 C778 1.514 . S
C779 C780 1.359 . S
C779 C784 1.348 . S
C780 C779 1.359 . S
C780 C781 1.380 . S
C780 H808 0.929 . S
C781 C780 1.380 . S
C781 C782 1.347 . S
C781 H809 0.931 . S
C782 C781 1.347 . S
C782 C783 1.369 . S
C783 C782 1.369 . S
C783 C784 1.408 . S
C783 H810 0.930 . S
C784 C779 1.348 . S
C784 C783 1.408 . S
C784 H811 0.930 . S
C785 O798 1.281 . S
C785 O799 1.254 . S
C786 O800 1.236 . S
C786 O801 1.266 . S
C787 Tb777 2.809 . S
C787 C788 1.514 . S
C787 O802 1.248 . S
C787 O803 1.266 . S
C788 C787 1.514 . S
C788 C789 1.359 . S
C788 C793 1.348 . S
C789 C788 1.359 . S
C789 C790 1.380 . S
C789 H812 0.929 . S
C790 C789 1.380 . S
C790 C791 1.347 . S
C790 H813 0.931 . S
C791 C790 1.347 . S
C791 C792 1.369 . S
C792 C791 1.369 . S
C792 C793 1.408 . S
C792 H814 0.930 . S
C793 C788 1.348 . S
C793 C792 1.408 . S
C793 H815 0.930 . S
C794 O804 1.281 . S
C794 O805 1.254 . S
C795 O806 1.236 . S
C795 O807 1.266 . S
O796 Tb776 2.484 . S
O796 C778 1.248 . S
O797 Tb776 2.440 . S
O797 C778 1.266 . S
O798 Tb776 2.658 . S
O798 Tb777 2.325 . S
O798 C785 1.281 . S
O799 Tb776 2.409 . S
O799 C785 1.254 . S
O800 Tb776 2.378 . S
O800 C786 1.236 . S
O801 Tb777 2.341 . S
O801 C786 1.266 . S
O802 Tb777 2.484 . S
O802 C787 1.248 . S
O803 Tb777 2.440 . S
O803 C787 1.266 . S
O804 Tb776 2.325 . S
O804 Tb777 2.658 . S
O804 C794 1.281 . S
O805 Tb777 2.409 . S
O805 C794 1.254 . S
O806 Tb777 2.378 . S
O806 C795 1.236 . S
O807 Tb776 2.341 . S
O807 C795 1.266 . S
H808 C780 0.929 . S
H809 C781 0.931 . S
H810 C783 0.930 . S
H811 C784 0.930 . S
H812 C789 0.929 . S
H813 C790 0.931 . S
H814 C792 0.930 . S
H815 C793 0.930 . S
Tb816 C818 2.809 . S
Tb816 O836 2.484 . S
Tb816 O837 2.440 . S
Tb816 O838 2.658 . S
Tb816 O839 2.409 . S
Tb816 O840 2.378 . S
Tb816 O844 2.325 . S
Tb816 O847 2.341 . S
Tb817 C827 2.809 . S
Tb817 O838 2.325 . S
Tb817 O841 2.341 . S
Tb817 O842 2.484 . S
Tb817 O843 2.440 . S
Tb817 O844 2.658 . S
Tb817 O845 2.409 . S
Tb817 O846 2.378 . S
C818 Tb816 2.809 . S
C818 C819 1.514 . S
C818 O836 1.248 . S
C818 O837 1.266 . S
C819 C818 1.514 . S
C819 C820 1.359 . S
C819 C824 1.348 . S
C820 C819 1.359 . S
C820 C821 1.380 . S
C820 H848 0.929 . S
C821 C820 1.380 . S
C821 C822 1.347 . S
C821 H849 0.931 . S
C822 C821 1.347 . S
C822 C823 1.369 . S
C823 C822 1.369 . S
C823 C824 1.408 . S
C823 H850 0.930 . S
C824 C819 1.348 . S
C824 C823 1.408 . S
C824 H851 0.930 . S
C825 O838 1.281 . S
C825 O839 1.254 . S
C826 O840 1.236 . S
C826 O841 1.266 . S
C827 Tb817 2.809 . S
C827 C828 1.514 . S
C827 O842 1.248 . S
C827 O843 1.266 . S
C828 C827 1.514 . S
C828 C829 1.359 . S
C828 C833 1.348 . S
C829 C828 1.359 . S
C829 C830 1.380 1_556 S
C829 H852 0.929 . S
C830 C829 1.380 1_554 S
C830 C831 1.347 . S
C830 H853 0.931 . S
C831 C830 1.347 . S
C831 C832 1.369 . S
C832 C831 1.369 . S
C832 C833 1.408 1_554 S
C832 H854 0.930 . S
C833 C828 1.348 . S
C833 C832 1.408 1_556 S
C833 H855 0.930 . S
C834 O844 1.281 . S
C834 O845 1.254 . S
C835 O846 1.236 . S
C835 O847 1.266 . S
O836 Tb816 2.484 . S
O836 C818 1.248 . S
O837 Tb816 2.440 . S
O837 C818 1.266 . S
O838 Tb816 2.658 . S
O838 Tb817 2.325 . S
O838 C825 1.281 . S
O839 Tb816 2.409 . S
O839 C825 1.254 . S
O840 Tb816 2.378 . S
O840 C826 1.236 . S
O841 Tb817 2.341 . S
O841 C826 1.266 . S
O842 Tb817 2.484 . S
O842 C827 1.248 . S
O843 Tb817 2.440 . S
O843 C827 1.266 . S
O844 Tb816 2.325 . S
O844 Tb817 2.658 . S
O844 C834 1.281 . S
O845 Tb817 2.409 . S
O845 C834 1.254 . S
O846 Tb817 2.378 . S
O846 C835 1.236 . S
O847 Tb816 2.341 . S
O847 C835 1.266 . S
H848 C820 0.929 . S
H849 C821 0.931 . S
H850 C823 0.930 . S
H851 C824 0.930 . S
H852 C829 0.929 . S
H853 C830 0.931 . S
H854 C832 0.930 . S
H855 C833 0.930 . S
Tb856 C858 2.809 . S
Tb856 O876 2.484 . S
Tb856 O877 2.440 . S
Tb856 O878 2.658 . S
Tb856 O879 2.409 . S
Tb856 O880 2.378 . S
Tb856 O884 2.325 . S
Tb856 O887 2.341 . S
Tb857 C867 2.809 . S
Tb857 O878 2.325 . S
Tb857 O881 2.341 . S
Tb857 O882 2.484 . S
Tb857 O883 2.440 . S
Tb857 O884 2.658 . S
Tb857 O885 2.409 . S
Tb857 O886 2.378 . S
C858 Tb856 2.809 . S
C858 C859 1.514 . S
C858 O876 1.248 . S
C858 O877 1.266 . S
C859 C858 1.514 . S
C859 C860 1.359 . S
C859 C864 1.348 . S
C860 C859 1.359 . S
C860 C861 1.380 . S
C860 H888 0.929 . S
C861 C860 1.380 . S
C861 C862 1.347 . S
C861 H889 0.931 . S
C862 C861 1.347 . S
C862 C863 1.369 . S
C863 C862 1.369 . S
C863 C864 1.408 . S
C863 H890 0.930 . S
C864 C859 1.348 . S
C864 C863 1.408 . S
C864 H891 0.930 . S
C865 O878 1.281 . S
C865 O879 1.254 . S
C866 O880 1.236 . S
C866 O881 1.266 . S
C867 Tb857 2.809 . S
C867 C868 1.514 . S
C867 O882 1.248 . S
C867 O883 1.266 . S
C868 C867 1.514 . S
C868 C869 1.359 . S
C868 C873 1.348 . S
C869 C868 1.359 . S
C869 C870 1.380 . S
C869 H892 0.929 . S
C870 C869 1.380 . S
C870 C871 1.347 . S
C870 H893 0.931 . S
C871 C870 1.347 . S
C871 C872 1.369 . S
C872 C871 1.369 . S
C872 C873 1.408 . S
C872 H894 0.930 . S
C873 C868 1.348 . S
C873 C872 1.408 . S
C873 H895 0.930 . S
C874 O884 1.281 . S
C874 O885 1.254 . S
C875 O886 1.236 . S
C875 O887 1.266 . S
O876 Tb856 2.484 . S
O876 C858 1.248 . S
O877 Tb856 2.440 . S
O877 C858 1.266 . S
O878 Tb856 2.658 . S
O878 Tb857 2.325 . S
O878 C865 1.281 . S
O879 Tb856 2.409 . S
O879 C865 1.254 . S
O880 Tb856 2.378 . S
O880 C866 1.236 . S
O881 Tb857 2.341 . S
O881 C866 1.266 . S
O882 Tb857 2.484 . S
O882 C867 1.248 . S
O883 Tb857 2.440 . S
O883 C867 1.266 . S
O884 Tb856 2.325 . S
O884 Tb857 2.658 . S
O884 C874 1.281 . S
O885 Tb857 2.409 . S
O885 C874 1.254 . S
O886 Tb857 2.378 . S
O886 C875 1.236 . S
O887 Tb856 2.341 . S
O887 C875 1.266 . S
H888 C860 0.929 . S
H889 C861 0.931 . S
H890 C863 0.930 . S
H891 C864 0.930 . S
H892 C869 0.929 . S
H893 C870 0.931 . S
H894 C872 0.930 . S
H895 C873 0.930 . S
Tb896 C898 2.809 . S
Tb896 O916 2.484 . S
Tb896 O917 2.440 . S
Tb896 O918 2.658 . S
Tb896 O919 2.409 . S
Tb896 O920 2.378 . S
Tb896 O924 2.325 . S
Tb896 O927 2.341 . S
Tb897 C907 2.809 . S
Tb897 O918 2.325 . S
Tb897 O921 2.341 . S
Tb897 O922 2.484 . S
Tb897 O923 2.440 . S
Tb897 O924 2.658 . S
Tb897 O925 2.409 . S
Tb897 O926 2.378 . S
C898 Tb896 2.809 . S
C898 C899 1.514 . S
C898 O916 1.248 . S
C898 O917 1.266 . S
C899 C898 1.514 . S
C899 C900 1.359 . S
C899 C904 1.348 . S
C900 C899 1.359 . S
C900 C901 1.380 . S
C900 H928 0.929 . S
C901 C900 1.380 . S
C901 C902 1.347 . S
C901 H929 0.931 . S
C902 C901 1.347 . S
C902 C903 1.369 . S
C903 C902 1.369 . S
C903 C904 1.408 . S
C903 H930 0.930 . S
C904 C899 1.348 . S
C904 C903 1.408 . S
C904 H931 0.930 . S
C905 O918 1.281 . S
C905 O919 1.254 . S
C906 O920 1.236 . S
C906 O921 1.266 . S
C907 Tb897 2.809 . S
C907 C908 1.514 . S
C907 O922 1.248 . S
C907 O923 1.266 . S
C908 C907 1.514 . S
C908 C909 1.359 . S
C908 C913 1.348 . S
C909 C908 1.359 . S
C909 C910 1.380 . S
C909 H932 0.929 . S
C910 C909 1.380 . S
C910 C911 1.347 . S
C910 H933 0.931 . S
C911 C910 1.347 . S
C911 C912 1.369 . S
C912 C911 1.369 . S
C912 C913 1.408 . S
C912 H934 0.930 . S
C913 C908 1.348 . S
C913 C912 1.408 . S
C913 H935 0.930 . S
C914 O924 1.281 . S
C914 O925 1.254 . S
C915 O926 1.236 . S
C915 O927 1.266 . S
O916 Tb896 2.484 . S
O916 C898 1.248 . S
O917 Tb896 2.440 . S
O917 C898 1.266 . S
O918 Tb896 2.658 . S
O918 Tb897 2.325 . S
O918 C905 1.281 . S
O919 Tb896 2.409 . S
O919 C905 1.254 . S
O920 Tb896 2.378 . S
O920 C906 1.236 . S
O921 Tb897 2.341 . S
O921 C906 1.266 . S
O922 Tb897 2.484 . S
O922 C907 1.248 . S
O923 Tb897 2.440 . S
O923 C907 1.266 . S
O924 Tb896 2.325 . S
O924 Tb897 2.658 . S
O924 C914 1.281 . S
O925 Tb897 2.409 . S
O925 C914 1.254 . S
O926 Tb897 2.378 . S
O926 C915 1.236 . S
O927 Tb896 2.341 . S
O927 C915 1.266 . S
H928 C900 0.929 . S
H929 C901 0.931 . S
H930 C903 0.930 . S
H931 C904 0.930 . S
H932 C909 0.929 . S
H933 C910 0.931 . S
H934 C912 0.930 . S
H935 C913 0.930 . S
Tb936 C938 2.809 . S
Tb936 O956 2.484 . S
Tb936 O957 2.440 . S
Tb936 O958 2.658 . S
Tb936 O959 2.409 . S
Tb936 O960 2.378 . S
Tb936 O964 2.325 . S
Tb936 O967 2.341 . S
Tb937 C947 2.809 1_455 S
Tb937 O958 2.325 . S
Tb937 O961 2.341 . S
Tb937 O962 2.484 1_455 S
Tb937 O963 2.440 1_455 S
Tb937 O964 2.658 . S
Tb937 O965 2.409 . S
Tb937 O966 2.378 . S
C938 Tb936 2.809 . S
C938 C939 1.514 . S
C938 O956 1.248 . S
C938 O957 1.266 . S
C939 C938 1.514 . S
C939 C940 1.359 . S
C939 C944 1.348 . S
C940 C939 1.359 . S
C940 C941 1.380 . S
C940 H968 0.929 . S
C941 C940 1.380 . S
C941 C942 1.347 . S
C941 H969 0.931 . S
C942 C941 1.347 . S
C942 C943 1.369 . S
C943 C942 1.369 . S
C943 C944 1.408 . S
C943 H970 0.930 . S
C944 C939 1.348 . S
C944 C943 1.408 . S
C944 H971 0.930 . S
C945 O958 1.281 . S
C945 O959 1.254 . S
C946 O960 1.236 . S
C946 O961 1.266 . S
C947 Tb937 2.809 1_655 S
C947 C948 1.514 . S
C947 O962 1.248 . S
C947 O963 1.266 . S
C948 C947 1.514 . S
C948 C949 1.359 . S
C948 C953 1.348 . S
C949 C948 1.359 . S
C949 C950 1.380 . S
C949 H972 0.929 . S
C950 C949 1.380 . S
C950 C951 1.347 . S
C950 H973 0.931 . S
C951 C950 1.347 . S
C951 C952 1.369 . S
C952 C951 1.369 . S
C952 C953 1.408 . S
C952 H974 0.930 . S
C953 C948 1.348 . S
C953 C952 1.408 . S
C953 H975 0.930 . S
C954 O964 1.281 . S
C954 O965 1.254 . S
C955 O966 1.236 . S
C955 O967 1.266 . S
O956 Tb936 2.484 . S
O956 C938 1.248 . S
O957 Tb936 2.440 . S
O957 C938 1.266 . S
O958 Tb936 2.658 . S
O958 Tb937 2.325 . S
O958 C945 1.281 . S
O959 Tb936 2.409 . S
O959 C945 1.254 . S
O960 Tb936 2.378 . S
O960 C946 1.236 . S
O961 Tb937 2.341 . S
O961 C946 1.266 . S
O962 Tb937 2.484 1_655 S
O962 C947 1.248 . S
O963 Tb937 2.440 1_655 S
O963 C947 1.266 . S
O964 Tb936 2.325 . S
O964 Tb937 2.658 . S
O964 C954 1.281 . S
O965 Tb937 2.409 . S
O965 C954 1.254 . S
O966 Tb937 2.378 . S
O966 C955 1.236 . S
O967 Tb936 2.341 . S
O967 C955 1.266 . S
H968 C940 0.929 . S
H969 C941 0.931 . S
H970 C943 0.930 . S
H971 C944 0.930 . S
H972 C949 0.929 . S
H973 C950 0.931 . S
H974 C952 0.930 . S
H975 C953 0.930 . S
C976 C977 1.363 . S
C976 C982 1.379 . S
C976 N984 1.356 . S
C977 C976 1.363 . S
C977 C983 1.363 . S
C978 C979 1.363 . S
C978 C983 1.379 . S
C978 N985 1.356 . S
C979 C978 1.363 . S
C979 C982 1.363 . S
N980 C982 1.356 . S
N980 H992 0.984 . S
N980 H993 0.985 . S
N981 C983 1.356 1_655 S
N981 H986 0.984 . S
N981 H987 0.985 1_554 S
C982 C976 1.379 . S
C982 C979 1.363 . S
C982 N980 1.356 . S
C983 C977 1.363 . S
C983 C978 1.379 . S
C983 N981 1.356 1_455 S
N984 C976 1.356 . S
N984 H990 0.984 . S
N984 H991 0.984 . S
N985 C978 1.356 . S
N985 H988 0.984 . S
N985 H989 0.985 1_455 S
H986 N981 0.984 . S
H987 N981 0.985 1_556 S
H988 N985 0.984 . S
H989 N985 0.985 1_655 S
H990 N984 0.984 . S
H991 N984 0.984 . S
H992 N980 0.984 . S
H993 N980 0.985 . S
C994 C995 1.363 . S
C994 C1000 1.379 . S
C994 N1002 1.356 . S
C995 C994 1.363 . S
C995 C1001 1.363 . S
C996 C997 1.363 . S
C996 C1001 1.379 . S
C996 N1003 1.356 . S
C997 C996 1.363 . S
C997 C1000 1.363 . S
N998 C1000 1.356 . S
N998 H1010 0.984 . S
N998 H1011 0.985 . S
N999 C1001 1.356 . S
N999 H1004 0.984 . S
N999 H1005 0.985 . S
C1000 C994 1.379 . S
C1000 C997 1.363 . S
C1000 N998 1.356 . S
C1001 C995 1.363 . S
C1001 C996 1.379 . S
C1001 N999 1.356 . S
N1002 C994 1.356 . S
N1002 H1008 0.984 . S
N1002 H1009 0.984 . S
N1003 C996 1.356 . S
N1003 H1006 0.984 . S
N1003 H1007 0.985 . S
H1004 N999 0.984 . S
H1005 N999 0.985 . S
H1006 N1003 0.984 . S
H1007 N1003 0.985 . S
H1008 N1002 0.984 . S
H1009 N1002 0.984 . S
H1010 N998 0.984 . S
H1011 N998 0.985 . S
C1012 C1013 1.363 . S
C1012 C1018 1.379 . S
C1012 N1020 1.356 . S
C1013 C1012 1.363 . S
C1013 C1019 1.363 . S
C1014 C1015 1.363 . S
C1014 C1019 1.379 . S
C1014 N1021 1.356 . S
C1015 C1014 1.363 . S
C1015 C1018 1.363 . S
N1016 C1018 1.356 . S
N1016 H1028 0.984 . S
N1016 H1029 0.985 . S
N1017 C1019 1.356 . S
N1017 H1022 0.984 . S
N1017 H1023 0.985 . S
C1018 C1012 1.379 . S
C1018 C1015 1.363 . S
C1018 N1016 1.356 . S
C1019 C1013 1.363 . S
C1019 C1014 1.379 . S
C1019 N1017 1.356 . S
N1020 C1012 1.356 . S
N1020 H1026 0.984 . S
N1020 H1027 0.984 . S
N1021 C1014 1.356 . S
N1021 H1024 0.984 . S
N1021 H1025 0.985 . S
H1022 N1017 0.984 . S
H1023 N1017 0.985 . S
H1024 N1021 0.984 . S
H1025 N1021 0.985 . S
H1026 N1020 0.984 . S
H1027 N1020 0.984 . S
H1028 N1016 0.984 . S
H1029 N1016 0.985 . S
C1030 C1031 1.363 . S
C1030 C1036 1.379 . S
C1030 N1038 1.356 . S
C1031 C1030 1.363 . S
C1031 C1037 1.363 . S
C1032 C1033 1.363 . S
C1032 C1037 1.379 . S
C1032 N1039 1.356 . S
C1033 C1032 1.363 . S
C1033 C1036 1.363 . S
N1034 C1036 1.356 . S
N1034 H1046 0.984 . S
N1034 H1047 0.985 . S
N1035 C1037 1.356 . S
N1035 H1040 0.984 . S
N1035 H1041 0.985 . S
C1036 C1030 1.379 . S
C1036 C1033 1.363 . S
C1036 N1034 1.356 . S
C1037 C1031 1.363 . S
C1037 C1032 1.379 . S
C1037 N1035 1.356 . S
N1038 C1030 1.356 . S
N1038 H1044 0.984 . S
N1038 H1045 0.984 . S
N1039 C1032 1.356 . S
N1039 H1042 0.984 . S
N1039 H1043 0.985 . S
H1040 N1035 0.984 . S
H1041 N1035 0.985 . S
H1042 N1039 0.984 . S
H1043 N1039 0.985 . S
H1044 N1038 0.984 . S
H1045 N1038 0.984 . S
H1046 N1034 0.984 . S
H1047 N1034 0.985 . S
C1048 C1049 1.363 . S
C1048 C1054 1.379 . S
C1048 N1056 1.356 . S
C1049 C1048 1.363 . S
C1049 C1055 1.363 . S
C1050 C1051 1.363 . S
C1050 C1055 1.379 . S
C1050 N1057 1.356 . S
C1051 C1050 1.363 . S
C1051 C1054 1.363 . S
N1052 C1054 1.356 . S
N1052 H1064 0.984 . S
N1052 H1065 0.985 . S
N1053 C1055 1.356 . S
N1053 H1058 0.984 . S
N1053 H1059 0.985 . S
C1054 C1048 1.379 . S
C1054 C1051 1.363 . S
C1054 N1052 1.356 . S
C1055 C1049 1.363 . S
C1055 C1050 1.379 . S
C1055 N1053 1.356 . S
N1056 C1048 1.356 . S
N1056 H1062 0.984 . S
N1056 H1063 0.984 . S
N1057 C1050 1.356 . S
N1057 H1060 0.984 . S
N1057 H1061 0.985 . S
H1058 N1053 0.984 . S
H1059 N1053 0.985 . S
H1060 N1057 0.984 . S
H1061 N1057 0.985 . S
H1062 N1056 0.984 . S
H1063 N1056 0.984 . S
H1064 N1052 0.984 . S
H1065 N1052 0.985 . S
C1066 C1067 1.363 . S
C1066 C1072 1.379 . S
C1066 N1074 1.356 . S
C1067 C1066 1.363 . S
C1067 C1073 1.363 . S
C1068 C1069 1.363 . S
C1068 C1073 1.379 . S
C1068 N1075 1.356 . S
C1069 C1068 1.363 . S
C1069 C1072 1.363 . S
N1070 C1072 1.356 . S
N1070 H1082 0.984 . S
N1070 H1083 0.985 . S
N1071 C1073 1.356 . S
N1071 H1076 0.984 . S
N1071 H1077 0.985 . S
C1072 C1066 1.379 . S
C1072 C1069 1.363 . S
C1072 N1070 1.356 . S
C1073 C1067 1.363 . S
C1073 C1068 1.379 . S
C1073 N1071 1.356 . S
N1074 C1066 1.356 . S
N1074 H1080 0.984 . S
N1074 H1081 0.984 . S
N1075 C1068 1.356 . S
N1075 H1078 0.984 . S
N1075 H1079 0.985 . S
H1076 N1071 0.984 . S
H1077 N1071 0.985 . S
H1078 N1075 0.984 . S
H1079 N1075 0.985 . S
H1080 N1074 0.984 . S
H1081 N1074 0.984 . S
H1082 N1070 0.984 . S
H1083 N1070 0.985 . S
C1084 C1085 1.363 . S
C1084 C1090 1.379 . S
C1084 N1092 1.356 . S
C1085 C1084 1.363 . S
C1085 C1091 1.363 . S
C1086 C1087 1.363 . S
C1086 C1091 1.379 . S
C1086 N1093 1.356 . S
C1087 C1086 1.363 . S
C1087 C1090 1.363 . S
N1088 C1090 1.356 . S
N1088 H1100 0.984 . S
N1088 H1101 0.985 . S
N1089 C1091 1.356 . S
N1089 H1094 0.984 . S
N1089 H1095 0.985 . S
C1090 C1084 1.379 . S
C1090 C1087 1.363 . S
C1090 N1088 1.356 . S
C1091 C1085 1.363 . S
C1091 C1086 1.379 . S
C1091 N1089 1.356 . S
N1092 C1084 1.356 . S
N1092 H1098 0.984 . S
N1092 H1099 0.984 . S
N1093 C1086 1.356 . S
N1093 H1096 0.984 . S
N1093 H1097 0.985 . S
H1094 N1089 0.984 . S
H1095 N1089 0.985 . S
H1096 N1093 0.984 . S
H1097 N1093 0.985 . S
H1098 N1092 0.984 . S
H1099 N1092 0.984 . S
H1100 N1088 0.984 . S
H1101 N1088 0.985 . S
C1102 C1103 1.363 . S
C1102 C1108 1.379 . S
C1102 N1110 1.356 . S
C1103 C1102 1.363 . S
C1103 C1109 1.363 . S
C1104 C1105 1.363 . S
C1104 C1109 1.379 . S
C1104 N1111 1.356 . S
C1105 C1104 1.363 . S
C1105 C1108 1.363 . S
N1106 C1108 1.356 . S
N1106 H1118 0.984 . S
N1106 H1119 0.985 . S
N1107 C1109 1.356 . S
N1107 H1112 0.984 . S
N1107 H1113 0.985 . S
C1108 C1102 1.379 . S
C1108 C1105 1.363 . S
C1108 N1106 1.356 . S
C1109 C1103 1.363 . S
C1109 C1104 1.379 . S
C1109 N1107 1.356 . S
N1110 C1102 1.356 . S
N1110 H1116 0.984 . S
N1110 H1117 0.984 . S
N1111 C1104 1.356 . S
N1111 H1114 0.984 . S
N1111 H1115 0.985 . S
H1112 N1107 0.984 . S
H1113 N1107 0.985 . S
H1114 N1111 0.984 . S
H1115 N1111 0.985 . S
H1116 N1110 0.984 . S
H1117 N1110 0.984 . S
H1118 N1106 0.984 . S
H1119 N1106 0.985 . S
C1120 C1121 1.363 1_565 S
C1120 C1126 1.379 1_565 S
C1120 N1128 1.356 . S
C1121 C1120 1.363 1_545 S
C1121 C1127 1.363 1_655 S
C1122 C1123 1.363 . S
C1122 C1127 1.379 . S
C1122 N1129 1.356 . S
C1123 C1122 1.363 . S
C1123 C1126 1.363 1_455 S
N1124 C1126 1.356 . S
N1124 H1136 0.984 1_545 S
N1124 H1137 0.985 1_655 S
N1125 C1127 1.356 . S
N1125 H1130 0.984 . S
N1125 H1131 0.985 . S
C1126 C1120 1.379 1_545 S
C1126 C1123 1.363 1_655 S
C1126 N1124 1.356 . S
C1127 C1121 1.363 1_455 S
C1127 C1122 1.379 . S
C1127 N1125 1.356 . S
N1128 C1120 1.356 . S
N1128 H1134 0.984 . S
N1128 H1135 0.984 . S
N1129 C1122 1.356 . S
N1129 H1132 0.984 . S
N1129 H1133 0.985 . S
H1130 N1125 0.984 . S
H1131 N1125 0.985 . S
H1132 N1129 0.984 . S
H1133 N1129 0.985 . S
H1134 N1128 0.984 . S
H1135 N1128 0.984 . S
H1136 N1124 0.984 1_565 S
H1137 N1124 0.985 1_455 S
C1138 C1139 1.363 . S
C1138 C1144 1.379 . S
C1138 N1146 1.356 . S
C1139 C1138 1.363 . S
C1139 C1145 1.363 . S
C1140 C1141 1.363 . S
C1140 C1145 1.379 . S
C1140 N1147 1.356 . S
C1141 C1140 1.363 . S
C1141 C1144 1.363 . S
N1142 C1144 1.356 . S
N1142 H1154 0.984 . S
N1142 H1155 0.985 . S
N1143 C1145 1.356 . S
N1143 H1148 0.984 . S
N1143 H1149 0.985 . S
C1144 C1138 1.379 . S
C1144 C1141 1.363 . S
C1144 N1142 1.356 . S
C1145 C1139 1.363 . S
C1145 C1140 1.379 . S
C1145 N1143 1.356 . S
N1146 C1138 1.356 . S
N1146 H1152 0.984 . S
N1146 H1153 0.984 . S
N1147 C1140 1.356 . S
N1147 H1150 0.984 . S
N1147 H1151 0.985 . S
H1148 N1143 0.984 . S
H1149 N1143 0.985 . S
H1150 N1147 0.984 . S
H1151 N1147 0.985 . S
H1152 N1146 0.984 . S
H1153 N1146 0.984 . S
H1154 N1142 0.984 . S
H1155 N1142 0.985 . S
C1156 C1157 1.363 . S
C1156 C1162 1.379 . S
C1156 N1164 1.356 1_545 S
C1157 C1156 1.363 . S
C1157 C1163 1.363 . S
C1158 C1159 1.363 . S
C1158 C1163 1.379 . S
C1158 N1165 1.356 . S
C1159 C1158 1.363 . S
C1159 C1162 1.363 . S
N1160 C1162 1.356 1_565 S
N1160 H1172 0.984 . S
N1160 H1173 0.985 1_565 S
N1161 C1163 1.356 . S
N1161 H1166 0.984 . S
N1161 H1167 0.985 . S
C1162 C1156 1.379 . S
C1162 C1159 1.363 . S
C1162 N1160 1.356 1_545 S
C1163 C1157 1.363 . S
C1163 C1158 1.379 . S
C1163 N1161 1.356 . S
N1164 C1156 1.356 1_565 S
N1164 H1170 0.984 . S
N1164 H1171 0.984 . S
N1165 C1158 1.356 . S
N1165 H1168 0.984 . S
N1165 H1169 0.985 . S
H1166 N1161 0.984 . S
H1167 N1161 0.985 . S
H1168 N1165 0.984 . S
H1169 N1165 0.985 . S
H1170 N1164 0.984 . S
H1171 N1164 0.984 . S
H1172 N1160 0.984 . S
H1173 N1160 0.985 1_545 S
C1174 C1175 1.363 1_556 S
C1174 C1180 1.379 . S
C1174 N1182 1.355 1_556 S
C1175 C1174 1.363 1_554 S
C1175 C1181 1.363 1_554 S
C1176 C1177 1.363 . S
C1176 C1181 1.379 . S
C1176 N1183 1.356 . S
C1177 C1176 1.363 . S
C1177 C1180 1.363 . S
N1178 C1180 1.356 . S
N1178 H1190 0.984 . S
N1178 H1191 0.985 . S
N1179 C1181 1.356 1_554 S
N1179 H1184 0.984 . S
N1179 H1185 0.985 . S
C1180 C1174 1.379 . S
C1180 C1177 1.363 . S
C1180 N1178 1.356 . S
C1181 C1175 1.363 1_556 S
C1181 C1176 1.379 . S
C1181 N1179 1.356 1_556 S
N1182 C1174 1.355 1_554 S
N1182 H1188 0.984 1_554 S
N1182 H1189 0.987 . S
N1183 C1176 1.356 . S
N1183 H1186 0.984 . S
N1183 H1187 0.985 . S
H1184 N1179 0.984 . S
H1185 N1179 0.985 . S
H1186 N1183 0.984 . S
H1187 N1183 0.985 . S
H1188 N1182 0.984 1_556 S
H1189 N1182 0.987 . S
H1190 N1178 0.984 . S
H1191 N1178 0.985 . S
C1192 C1193 1.363 1_455 S
C1192 C1198 1.379 . S
C1192 N1200 1.356 . S
C1193 C1192 1.363 1_655 S
C1193 C1199 1.363 1_545 S
C1194 C1195 1.363 1_665 S
C1194 C1199 1.379 . S
C1194 N1201 1.356 . S
C1195 C1194 1.363 1_445 S
C1195 C1198 1.363 . S
N1196 C1198 1.356 . S
N1196 H1208 0.984 . S
N1196 H1209 0.985 . S
N1197 C1199 1.356 . S
N1197 H1202 0.984 . S
N1197 H1203 0.985 . S
C1198 C1192 1.379 . S
C1198 C1195 1.363 . S
C1198 N1196 1.356 . S
C1199 C1193 1.363 1_565 S
C1199 C1194 1.379 . S
C1199 N1197 1.356 . S
N1200 C1192 1.356 . S
N1200 H1206 0.984 . S
N1200 H1207 0.984 . S
N1201 C1194 1.356 . S
N1201 H1204 0.984 . S
N1201 H1205 0.985 . S
H1202 N1197 0.984 . S
H1203 N1197 0.985 . S
H1204 N1201 0.984 . S
H1205 N1201 0.985 . S
H1206 N1200 0.984 . S
H1207 N1200 0.984 . S
H1208 N1196 0.984 . S
H1209 N1196 0.985 . S
C1210 C1211 1.363 . S
C1210 C1216 1.379 . S
C1210 N1218 1.356 . S
C1211 C1210 1.363 . S
C1211 C1217 1.363 . S
C1212 C1213 1.363 . S
C1212 C1217 1.379 . S
C1212 N1219 1.356 . S
C1213 C1212 1.363 . S
C1213 C1216 1.363 . S
N1214 C1216 1.356 . S
N1214 H1226 0.984 . S
N1214 H1227 0.985 . S
N1215 C1217 1.356 . S
N1215 H1220 0.984 . S
N1215 H1221 0.985 . S
C1216 C1210 1.379 . S
C1216 C1213 1.363 . S
C1216 N1214 1.356 . S
C1217 C1211 1.363 . S
C1217 C1212 1.379 . S
C1217 N1215 1.356 . S
N1218 C1210 1.356 . S
N1218 H1224 0.984 . S
N1218 H1225 0.984 . S
N1219 C1212 1.356 . S
N1219 H1222 0.984 . S
N1219 H1223 0.985 . S
H1220 N1215 0.984 . S
H1221 N1215 0.985 . S
H1222 N1219 0.984 . S
H1223 N1219 0.985 . S
H1224 N1218 0.984 . S
H1225 N1218 0.984 . S
H1226 N1214 0.984 . S
H1227 N1214 0.985 . S
C1228 C1229 1.363 . S
C1228 C1234 1.379 . S
C1228 N1236 1.376 . S
C1229 C1228 1.363 . S
C1229 C1235 1.363 . S
C1230 C1231 1.348 1_556 S
C1230 C1235 1.379 . S
C1230 N1237 1.356 1_556 S
C1231 C1230 1.348 1_554 S
C1231 C1234 1.353 1_554 S
N1232 C1234 1.356 . S
N1232 H1244 0.984 1_545 S
N1232 H1245 0.985 1_556 S
N1233 C1235 1.356 . S
N1233 H1238 0.984 . S
N1233 H1239 0.985 . S
C1234 C1228 1.379 . S
C1234 C1231 1.353 1_556 S
C1234 N1232 1.356 . S
C1235 C1229 1.363 . S
C1235 C1230 1.379 . S
C1235 N1233 1.356 . S
N1236 C1228 1.376 . S
N1236 H1242 0.964 1_545 S
N1236 H1243 0.985 . S
N1237 C1230 1.356 1_554 S
N1237 H1240 0.984 . S
N1237 H1241 0.985 . S
H1238 N1233 0.984 . S
H1239 N1233 0.985 . S
H1240 N1237 0.984 . S
H1241 N1237 0.985 . S
H1242 N1236 0.964 1_565 S
H1243 N1236 0.985 . S
H1244 N1232 0.984 1_565 S
H1245 N1232 0.985 1_554 S
C1246 C1247 1.363 . S
C1246 C1252 1.379 . S
C1246 N1254 1.356 . S
C1247 C1246 1.363 . S
C1247 C1253 1.363 . S
C1248 C1249 1.363 . S
C1248 C1253 1.379 . S
C1248 N1255 1.356 . S
C1249 C1248 1.363 . S
C1249 C1252 1.363 . S
N1250 C1252 1.356 . S
N1250 H1262 0.984 . S
N1250 H1263 0.985 . S
N1251 C1253 1.356 . S
N1251 H1256 0.984 . S
N1251 H1257 0.985 . S
C1252 C1246 1.379 . S
C1252 C1249 1.363 . S
C1252 N1250 1.356 . S
C1253 C1247 1.363 . S
C1253 C1248 1.379 . S
C1253 N1251 1.356 . S
N1254 C1246 1.356 . S
N1254 H1260 0.984 . S
N1254 H1261 0.984 . S
N1255 C1248 1.356 . S
N1255 H1258 0.984 . S
N1255 H1259 0.985 . S
H1256 N1251 0.984 . S
H1257 N1251 0.985 . S
H1258 N1255 0.984 . S
H1259 N1255 0.985 . S
H1260 N1254 0.984 . S
H1261 N1254 0.984 . S
H1262 N1250 0.984 . S
H1263 N1250 0.985 . S
C1264 C1265 1.363 . S
C1264 C1270 1.379 . S
C1264 N1272 1.356 . S
C1265 C1264 1.363 . S
C1265 C1271 1.363 . S
C1266 C1267 1.363 . S
C1266 C1271 1.379 . S
C1266 N1273 1.356 . S
C1267 C1266 1.363 . S
C1267 C1270 1.363 . S
N1268 C1270 1.356 . S
N1268 H1280 0.984 . S
N1268 H1281 0.985 . S
N1269 C1271 1.356 . S
N1269 H1274 0.984 . S
N1269 H1275 0.985 . S
C1270 C1264 1.379 . S
C1270 C1267 1.363 . S
C1270 N1268 1.356 . S
C1271 C1265 1.363 . S
C1271 C1266 1.379 . S
C1271 N1269 1.356 . S
N1272 C1264 1.356 . S
N1272 H1278 0.984 . S
N1272 H1279 0.984 1_554 S
N1273 C1266 1.356 . S
N1273 H1276 0.984 . S
N1273 H1277 0.985 . S
H1274 N1269 0.984 . S
H1275 N1269 0.985 . S
H1276 N1273 0.984 . S
H1277 N1273 0.985 . S
H1278 N1272 0.984 . S
H1279 N1272 0.984 1_556 S
H1280 N1268 0.984 . S
H1281 N1268 0.985 . S
C1282 C1283 1.363 . S
C1282 C1288 1.379 . S
C1282 N1290 1.356 . S
C1283 C1282 1.363 . S
C1283 C1289 1.363 . S
C1284 C1285 1.363 . S
C1284 C1289 1.379 . S
C1284 N1291 1.356 . S
C1285 C1284 1.363 . S
C1285 C1288 1.363 . S
N1286 C1288 1.356 . S
N1286 H1298 0.984 . S
N1286 H1299 0.985 . S
N1287 C1289 1.356 . S
N1287 H1292 0.984 . S
N1287 H1293 0.985 . S
C1288 C1282 1.379 . S
C1288 C1285 1.363 . S
C1288 N1286 1.356 . S
C1289 C1283 1.363 . S
C1289 C1284 1.379 . S
C1289 N1287 1.356 . S
N1290 C1282 1.356 . S
N1290 H1296 0.984 . S
N1290 H1297 0.984 . S
N1291 C1284 1.356 . S
N1291 H1294 0.984 . S
N1291 H1295 0.985 . S
H1292 N1287 0.984 . S
H1293 N1287 0.985 . S
H1294 N1291 0.984 . S
H1295 N1291 0.985 . S
H1296 N1290 0.984 . S
H1297 N1290 0.984 . S
H1298 N1286 0.984 . S
H1299 N1286 0.985 . S
C1300 C1301 1.363 . S
C1300 C1306 1.379 . S
C1300 N1308 1.356 . S
C1301 C1300 1.363 . S
C1301 C1307 1.363 . S
C1302 C1303 1.363 . S
C1302 C1307 1.379 . S
C1302 N1309 1.356 . S
C1303 C1302 1.363 . S
C1303 C1306 1.363 . S
N1304 C1306 1.356 . S
N1304 H1316 0.984 . S
N1304 H1317 0.985 . S
N1305 C1307 1.356 . S
N1305 H1310 0.984 . S
N1305 H1311 0.985 . S
C1306 C1300 1.379 . S
C1306 C1303 1.363 . S
C1306 N1304 1.356 . S
C1307 C1301 1.363 . S
C1307 C1302 1.379 . S
C1307 N1305 1.356 . S
N1308 C1300 1.356 . S
N1308 H1314 0.984 . S
N1308 H1315 0.984 . S
N1309 C1302 1.356 . S
N1309 H1312 0.984 . S
N1309 H1313 0.985 . S
H1310 N1305 0.984 . S
H1311 N1305 0.985 . S
H1312 N1309 0.984 . S
H1313 N1309 0.985 . S
H1314 N1308 0.984 . S
H1315 N1308 0.984 . S
H1316 N1304 0.984 . S
H1317 N1304 0.985 . S
C1318 C1319 1.363 . S
C1318 C1324 1.379 . S
C1318 N1326 1.356 . S
C1319 C1318 1.363 . S
C1319 C1325 1.363 . S
C1320 C1321 1.363 . S
C1320 C1325 1.379 . S
C1320 N1327 1.356 . S
C1321 C1320 1.363 . S
C1321 C1324 1.363 . S
N1322 C1324 1.356 . S
N1322 H1334 0.984 . S
N1322 H1335 0.985 . S
N1323 C1325 1.356 . S
N1323 H1328 0.984 . S
N1323 H1329 0.985 . S
C1324 C1318 1.379 . S
C1324 C1321 1.363 . S
C1324 N1322 1.356 . S
C1325 C1319 1.363 . S
C1325 C1320 1.379 . S
C1325 N1323 1.356 . S
N1326 C1318 1.356 . S
N1326 H1332 0.984 . S
N1326 H1333 0.984 . S
N1327 C1320 1.356 . S
N1327 H1330 0.984 . S
N1327 H1331 0.985 . S
H1328 N1323 0.984 . S
H1329 N1323 0.985 . S
H1330 N1327 0.984 . S
H1331 N1327 0.985 . S
H1332 N1326 0.984 . S
H1333 N1326 0.984 . S
H1334 N1322 0.984 . S
H1335 N1322 0.985 . S
C1336 C1337 1.363 . S
C1336 C1342 1.379 . S
C1336 N1344 1.356 . S
C1337 C1336 1.363 . S
C1337 C1343 1.363 . S
C1338 C1339 1.363 . S
C1338 C1343 1.379 . S
C1338 N1345 1.356 . S
C1339 C1338 1.363 . S
C1339 C1342 1.363 . S
N1340 C1342 1.356 . S
N1340 H1352 0.984 . S
N1340 H1353 0.985 . S
N1341 C1343 1.356 . S
N1341 H1346 0.984 . S
N1341 H1347 0.985 . S
C1342 C1336 1.379 . S
C1342 C1339 1.363 . S
C1342 N1340 1.356 . S
C1343 C1337 1.363 . S
C1343 C1338 1.379 . S
C1343 N1341 1.356 . S
N1344 C1336 1.356 . S
N1344 H1350 0.984 . S
N1344 H1351 0.984 . S
N1345 C1338 1.356 . S
N1345 H1348 0.984 . S
N1345 H1349 0.985 . S
H1346 N1341 0.984 . S
H1347 N1341 0.985 . S
H1348 N1345 0.984 . S
H1349 N1345 0.985 . S
H1350 N1344 0.984 . S
H1351 N1344 0.984 . S
H1352 N1340 0.984 . S
H1353 N1340 0.985 . S
C1354 C1355 1.363 . S
C1354 C1360 1.379 . S
C1354 N1362 1.356 . S
C1355 C1354 1.363 . S
C1355 C1361 1.363 . S
C1356 C1357 1.363 . S
C1356 C1361 1.379 . S
C1356 N1363 1.356 . S
C1357 C1356 1.363 . S
C1357 C1360 1.363 . S
N1358 C1360 1.356 . S
N1358 H1370 0.984 . S
N1358 H1371 0.985 . S
N1359 C1361 1.356 . S
N1359 H1364 0.984 . S
N1359 H1365 0.985 . S
C1360 C1354 1.379 . S
C1360 C1357 1.363 . S
C1360 N1358 1.356 . S
C1361 C1355 1.363 . S
C1361 C1356 1.379 . S
C1361 N1359 1.356 . S
N1362 C1354 1.356 . S
N1362 H1368 0.984 . S
N1362 H1369 0.984 . S
N1363 C1356 1.356 . S
N1363 H1366 0.984 . S
N1363 H1367 0.985 . S
H1364 N1359 0.984 . S
H1365 N1359 0.985 . S
H1366 N1363 0.984 . S
H1367 N1363 0.985 . S
H1368 N1362 0.984 . S
H1369 N1362 0.984 . S
H1370 N1358 0.984 . S
H1371 N1358 0.985 . S
C1372 C1373 1.363 . S
C1372 C1378 1.379 . S
C1372 N1380 1.356 . S
C1373 C1372 1.363 . S
C1373 C1379 1.363 . S
C1374 C1375 1.363 . S
C1374 C1379 1.379 . S
C1374 N1381 1.356 . S
C1375 C1374 1.363 . S
C1375 C1378 1.363 . S
N1376 C1378 1.356 . S
N1376 H1388 0.984 . S
N1376 H1389 0.985 . S
N1377 C1379 1.356 . S
N1377 H1382 0.984 . S
N1377 H1383 0.985 . S
C1378 C1372 1.379 . S
C1378 C1375 1.363 . S
C1378 N1376 1.356 . S
C1379 C1373 1.363 . S
C1379 C1374 1.379 . S
C1379 N1377 1.356 . S
N1380 C1372 1.356 . S
N1380 H1386 0.984 . S
N1380 H1387 0.984 . S
N1381 C1374 1.356 . S
N1381 H1384 0.984 . S
N1381 H1385 0.985 . S
H1382 N1377 0.984 . S
H1383 N1377 0.985 . S
H1384 N1381 0.984 . S
H1385 N1381 0.985 . S
H1386 N1380 0.984 . S
H1387 N1380 0.984 . S
H1388 N1376 0.984 . S
H1389 N1376 0.985 . S
C1390 C1391 1.363 . S
C1390 C1396 1.379 . S
C1390 N1398 1.356 . S
C1391 C1390 1.363 . S
C1391 C1397 1.363 . S
C1392 C1393 1.363 . S
C1392 C1397 1.379 . S
C1392 N1399 1.356 . S
C1393 C1392 1.363 . S
C1393 C1396 1.363 . S
N1394 C1396 1.356 . S
N1394 H1406 0.984 . S
N1394 H1407 0.985 . S
N1395 C1397 1.356 . S
N1395 H1400 0.984 . S
N1395 H1401 0.985 . S
C1396 C1390 1.379 . S
C1396 C1393 1.363 . S
C1396 N1394 1.356 . S
C1397 C1391 1.363 . S
C1397 C1392 1.379 . S
C1397 N1395 1.356 . S
N1398 C1390 1.356 . S
N1398 H1404 0.984 . S
N1398 H1405 0.984 . S
N1399 C1392 1.356 . S
N1399 H1402 0.984 . S
N1399 H1403 0.985 . S
H1400 N1395 0.984 . S
H1401 N1395 0.985 . S
H1402 N1399 0.984 . S
H1403 N1399 0.985 . S
H1404 N1398 0.984 . S
H1405 N1398 0.984 . S
H1406 N1394 0.984 . S
H1407 N1394 0.985 . S
C1408 C1409 1.363 . S
C1408 C1414 1.379 . S
C1408 N1416 1.356 . S
C1409 C1408 1.363 . S
C1409 C1415 1.363 . S
C1410 C1411 1.363 . S
C1410 C1415 1.379 . S
C1410 N1417 1.356 . S
C1411 C1410 1.363 . S
C1411 C1414 1.363 . S
N1412 C1414 1.356 . S
N1412 H1424 0.984 . S
N1412 H1425 0.985 . S
N1413 C1415 1.356 . S
N1413 H1418 0.984 . S
N1413 H1419 0.985 . S
C1414 C1408 1.379 . S
C1414 C1411 1.363 . S
C1414 N1412 1.356 . S
C1415 C1409 1.363 . S
C1415 C1410 1.379 . S
C1415 N1413 1.356 . S
N1416 C1408 1.356 . S
N1416 H1422 0.984 . S
N1416 H1423 0.984 . S
N1417 C1410 1.356 . S
N1417 H1420 0.984 . S
N1417 H1421 0.985 1_455 S
H1418 N1413 0.984 . S
H1419 N1413 0.985 . S
H1420 N1417 0.984 . S
H1421 N1417 0.985 1_655 S
H1422 N1416 0.984 . S
H1423 N1416 0.984 . S
H1424 N1412 0.984 . S
H1425 N1412 0.985 . S
C1426 C1427 1.363 . S
C1426 C1432 1.379 . S
C1426 N1434 1.356 . S
C1427 C1426 1.363 . S
C1427 C1433 1.363 . S
C1428 C1429 1.363 . S
C1428 C1433 1.379 . S
C1428 N1435 1.356 . S
C1429 C1428 1.363 . S
C1429 C1432 1.363 . S
N1430 C1432 1.356 . S
N1430 H1442 0.984 . S
N1430 H1443 0.985 . S
N1431 C1433 1.356 . S
N1431 H1436 0.984 . S
N1431 H1437 0.985 . S
C1432 C1426 1.379 . S
C1432 C1429 1.363 . S
C1432 N1430 1.356 . S
C1433 C1427 1.363 . S
C1433 C1428 1.379 . S
C1433 N1431 1.356 . S
N1434 C1426 1.356 . S
N1434 H1440 0.984 . S
N1434 H1441 0.984 . S
N1435 C1428 1.356 . S
N1435 H1438 0.984 . S
N1435 H1439 0.985 . S
H1436 N1431 0.984 . S
H1437 N1431 0.985 . S
H1438 N1435 0.984 . S
H1439 N1435 0.985 . S
H1440 N1434 0.984 . S
H1441 N1434 0.984 . S
H1442 N1430 0.984 . S
H1443 N1430 0.985 . S
C1444 C1445 1.363 . S
C1444 C1450 1.379 . S
C1444 N1452 1.356 . S
C1445 C1444 1.363 . S
C1445 C1451 1.363 . S
C1446 C1447 1.363 . S
C1446 C1451 1.379 . S
C1446 N1453 1.356 . S
C1447 C1446 1.363 . S
C1447 C1450 1.363 . S
N1448 C1450 1.356 . S
N1448 H1460 0.984 . S
N1448 H1461 0.985 . S
N1449 C1451 1.356 . S
N1449 H1454 0.984 . S
N1449 H1455 0.985 . S
C1450 C1444 1.379 . S
C1450 C1447 1.363 . S
C1450 N1448 1.356 . S
C1451 C1445 1.363 . S
C1451 C1446 1.379 . S
C1451 N1449 1.356 . S
N1452 C1444 1.356 . S
N1452 H1458 0.984 . S
N1452 H1459 0.984 . S
N1453 C1446 1.356 . S
N1453 H1456 0.984 . S
N1453 H1457 0.985 . S
H1454 N1449 0.984 . S
H1455 N1449 0.985 . S
H1456 N1453 0.984 . S
H1457 N1453 0.985 . S
H1458 N1452 0.984 . S
H1459 N1452 0.984 . S
H1460 N1448 0.984 . S
H1461 N1448 0.985 . S
C1462 C1463 1.363 . S
C1462 C1468 1.379 . S
C1462 N1470 1.356 . S
C1463 C1462 1.363 . S
C1463 C1469 1.363 . S
C1464 C1465 1.363 . S
C1464 C1469 1.379 . S
C1464 N1471 1.356 . S
C1465 C1464 1.363 . S
C1465 C1468 1.363 . S
N1466 C1468 1.356 . S
N1466 H1478 0.984 . S
N1466 H1479 0.985 . S
N1467 C1469 1.356 . S
N1467 H1472 0.984 . S
N1467 H1473 0.985 . S
C1468 C1462 1.379 . S
C1468 C1465 1.363 . S
C1468 N1466 1.356 . S
C1469 C1463 1.363 . S
C1469 C1464 1.379 . S
C1469 N1467 1.356 . S
N1470 C1462 1.356 . S
N1470 H1476 0.984 . S
N1470 H1477 0.984 . S
N1471 C1464 1.356 . S
N1471 H1474 0.984 . S
N1471 H1475 0.985 . S
H1472 N1467 0.984 . S
H1473 N1467 0.985 . S
H1474 N1471 0.984 . S
H1475 N1471 0.985 . S
H1476 N1470 0.984 . S
H1477 N1470 0.984 . S
H1478 N1466 0.984 . S
H1479 N1466 0.985 . S
C1480 C1481 1.390 . S
C1480 C1486 1.379 . S
C1480 N1488 1.356 . S
C1481 C1480 1.390 . S
C1481 C1487 1.345 1_455 S
C1482 C1483 1.383 . S
C1482 C1487 1.379 . S
C1482 N1489 1.356 . S
C1483 C1482 1.383 . S
C1483 C1486 1.349 1_655 S
N1484 C1486 1.356 . S
N1484 H1496 0.984 . S
N1484 H1497 0.985 . S
N1485 C1487 1.356 . S
N1485 H1490 0.984 . S
N1485 H1491 0.985 . S
C1486 C1480 1.379 . S
C1486 C1483 1.349 1_455 S
C1486 N1484 1.356 . S
C1487 C1481 1.345 1_655 S
C1487 C1482 1.379 . S
C1487 N1485 1.356 . S
N1488 C1480 1.356 . S
N1488 H1494 0.984 . S
N1488 H1495 0.984 . S
N1489 C1482 1.356 . S
N1489 H1492 0.984 . S
N1489 H1493 0.985 . S
H1490 N1485 0.984 . S
H1491 N1485 0.985 . S
H1492 N1489 0.984 . S
H1493 N1489 0.985 . S
H1494 N1488 0.984 . S
H1495 N1488 0.984 . S
H1496 N1484 0.984 . S
H1497 N1484 0.985 . S
C1498 C1499 1.363 . S
C1498 C1504 1.379 . S
C1498 N1506 1.356 . S
C1499 C1498 1.363 . S
C1499 C1505 1.363 . S
C1500 C1501 1.363 . S
C1500 C1505 1.379 . S
C1500 N1507 1.356 . S
C1501 C1500 1.363 . S
C1501 C1504 1.363 . S
N1502 C1504 1.356 . S
N1502 H1514 0.984 . S
N1502 H1515 0.985 . S
N1503 C1505 1.356 . S
N1503 H1508 0.984 . S
N1503 H1509 0.985 . S
C1504 C1498 1.379 . S
C1504 C1501 1.363 . S
C1504 N1502 1.356 . S
C1505 C1499 1.363 . S
C1505 C1500 1.379 . S
C1505 N1503 1.356 . S
N1506 C1498 1.356 . S
N1506 H1512 0.984 . S
N1506 H1513 0.984 . S
N1507 C1500 1.356 . S
N1507 H1510 0.984 . S
N1507 H1511 0.985 . S
H1508 N1503 0.984 . S
H1509 N1503 0.985 . S
H1510 N1507 0.984 . S
H1511 N1507 0.985 . S
H1512 N1506 0.984 . S
H1513 N1506 0.984 . S
H1514 N1502 0.984 . S
H1515 N1502 0.985 . S
C1516 C1517 1.363 1_554 S
C1516 C1522 1.379 . S
C1516 N1524 1.356 . S
C1517 C1516 1.363 1_556 S
C1517 C1523 1.363 . S
C1518 C1519 1.363 . S
C1518 C1523 1.379 1_554 S
C1518 N1525 1.356 . S
C1519 C1518 1.363 . S
C1519 C1522 1.363 . S
N1520 C1522 1.356 . S
N1520 H1532 0.984 . S
N1520 H1533 0.985 . S
N1521 C1523 1.356 . S
N1521 H1526 0.984 . S
N1521 H1527 0.985 . S
C1522 C1516 1.379 . S
C1522 C1519 1.363 . S
C1522 N1520 1.356 . S
C1523 C1517 1.363 . S
C1523 C1518 1.379 1_556 S
C1523 N1521 1.356 . S
N1524 C1516 1.356 . S
N1524 H1530 0.984 . S
N1524 H1531 0.984 1_554 S
N1525 C1518 1.356 . S
N1525 H1528 0.984 1_565 S
N1525 H1529 0.985 1_564 S
H1526 N1521 0.984 . S
H1527 N1521 0.985 . S
H1528 N1525 0.984 1_545 S
H1529 N1525 0.985 1_546 S
H1530 N1524 0.984 . S
H1531 N1524 0.984 1_556 S
H1532 N1520 0.984 . S
H1533 N1520 0.985 . S
C1534 C1535 1.363 . S
C1534 C1540 1.379 1_455 S
C1534 N1542 1.356 . S
C1535 C1534 1.363 . S
C1535 C1541 1.363 . S
C1536 C1537 1.376 . S
C1536 C1541 1.359 1_655 S
C1536 N1543 1.369 . S
C1537 C1536 1.376 . S
C1537 C1540 1.363 . S
N1538 C1540 1.356 . S
N1538 H1550 0.984 . S
N1538 H1551 0.985 . S
N1539 C1541 1.356 . S
N1539 H1544 0.984 . S
N1539 H1545 0.985 . S
C1540 C1534 1.379 1_655 S
C1540 C1537 1.363 . S
C1540 N1538 1.356 . S
C1541 C1535 1.363 . S
C1541 C1536 1.359 1_455 S
C1541 N1539 1.356 . S
N1542 C1534 1.356 . S
N1542 H1548 0.984 . S
N1542 H1549 0.984 . S
N1543 C1536 1.369 . S
N1543 H1546 0.984 . S
N1543 H1547 0.977 1_655 S
H1544 N1539 0.984 . S
H1545 N1539 0.985 . S
H1546 N1543 0.984 . S
H1547 N1543 0.977 1_455 S
H1548 N1542 0.984 . S
H1549 N1542 0.984 . S
H1550 N1538 0.984 . S
H1551 N1538 0.985 . S
C1552 C1553 1.363 . S
C1552 C1558 1.379 . S
C1552 N1560 1.356 . S
C1553 C1552 1.363 . S
C1553 C1559 1.363 . S
C1554 C1555 1.364 1_554 S
C1554 C1559 1.361 1_554 S
C1554 N1561 1.376 . S
C1555 C1554 1.364 1_556 S
C1555 C1558 1.363 . S
N1556 C1558 1.356 . S
N1556 H1568 0.984 . S
N1556 H1569 0.985 . S
N1557 C1559 1.356 . S
N1557 H1562 0.984 . S
N1557 H1563 0.998 . S
C1558 C1552 1.379 . S
C1558 C1555 1.363 . S
C1558 N1556 1.356 . S
C1559 C1553 1.363 . S
C1559 C1554 1.361 1_556 S
C1559 N1557 1.356 . S
N1560 C1552 1.356 . S
N1560 H1566 0.984 . S
N1560 H1567 0.984 . S
N1561 C1554 1.376 . S
N1561 H1564 0.984 . S
N1561 H1565 0.985 . S
H1562 N1557 0.984 . S
H1563 N1557 0.998 . S
H1564 N1561 0.984 . S
H1565 N1561 0.985 . S
H1566 N1560 0.984 . S
H1567 N1560 0.984 . S
H1568 N1556 0.984 . S
H1569 N1556 0.985 . S
C1570 C1571 1.363 . S
C1570 C1576 1.379 . S
C1570 N1578 1.356 . S
C1571 C1570 1.363 . S
C1571 C1577 1.363 . S
C1572 C1573 1.363 . S
C1572 C1577 1.379 . S
C1572 N1579 1.356 . S
C1573 C1572 1.363 . S
C1573 C1576 1.363 . S
N1574 C1576 1.356 . S
N1574 H1586 0.984 . S
N1574 H1587 0.985 . S
N1575 C1577 1.356 . S
N1575 H1580 0.984 . S
N1575 H1581 0.985 . S
C1576 C1570 1.379 . S
C1576 C1573 1.363 . S
C1576 N1574 1.356 . S
C1577 C1571 1.363 . S
C1577 C1572 1.379 . S
C1577 N1575 1.356 . S
N1578 C1570 1.356 . S
N1578 H1584 0.984 . S
N1578 H1585 0.984 . S
N1579 C1572 1.356 . S
N1579 H1582 0.984 . S
N1579 H1583 0.985 . S
H1580 N1575 0.984 . S
H1581 N1575 0.985 . S
H1582 N1579 0.984 . S
H1583 N1579 0.985 . S
H1584 N1578 0.984 . S
H1585 N1578 0.984 . S
H1586 N1574 0.984 . S
H1587 N1574 0.985 . S
C1588 C1589 1.363 . S
C1588 C1594 1.379 . S
C1588 N1596 1.356 . S
C1589 C1588 1.363 . S
C1589 C1595 1.363 . S
C1590 C1591 1.363 . S
C1590 C1595 1.379 . S
C1590 N1597 1.356 1_545 S
C1591 C1590 1.363 . S
C1591 C1594 1.363 . S
N1592 C1594 1.356 . S
N1592 H1604 0.984 . S
N1592 H1605 0.985 . S
N1593 C1595 1.356 1_565 S
N1593 H1598 0.984 1_565 S
N1593 H1599 0.985 . S
C1594 C1588 1.379 . S
C1594 C1591 1.363 . S
C1594 N1592 1.356 . S
C1595 C1589 1.363 . S
C1595 C1590 1.379 . S
C1595 N1593 1.356 1_545 S
N1596 C1588 1.356 . S
N1596 H1602 0.984 . S
N1596 H1603 0.984 . S
N1597 C1590 1.356 1_565 S
N1597 H1600 0.984 . S
N1597 H1601 0.985 . S
H1598 N1593 0.984 1_545 S
H1599 N1593 0.985 . S
H1600 N1597 0.984 . S
H1601 N1597 0.985 . S
H1602 N1596 0.984 . S
H1603 N1596 0.984 . S
H1604 N1592 0.984 . S
H1605 N1592 0.985 . S
C1606 C1607 1.363 . S
C1606 C1612 1.379 . S
C1606 N1614 1.356 . S
C1607 C1606 1.363 . S
C1607 C1613 1.363 . S
C1608 C1609 1.363 . S
C1608 C1613 1.379 . S
C1608 N1615 1.356 . S
C1609 C1608 1.363 . S
C1609 C1612 1.363 . S
N1610 C1612 1.356 . S
N1610 H1622 0.984 . S
N1610 H1623 0.985 . S
N1611 C1613 1.356 . S
N1611 H1616 0.984 . S
N1611 H1617 0.985 . S
C1612 C1606 1.379 . S
C1612 C1609 1.363 . S
C1612 N1610 1.356 . S
C1613 C1607 1.363 . S
C1613 C1608 1.379 . S
C1613 N1611 1.356 . S
N1614 C1606 1.356 . S
N1614 H1620 0.984 . S
N1614 H1621 0.984 . S
N1615 C1608 1.356 . S
N1615 H1618 0.984 . S
N1615 H1619 0.985 . S
H1616 N1611 0.984 . S
H1617 N1611 0.985 . S
H1618 N1615 0.984 . S
H1619 N1615 0.985 . S
H1620 N1614 0.984 . S
H1621 N1614 0.984 . S
H1622 N1610 0.984 . S
H1623 N1610 0.985 . S
C1624 C1625 1.363 . S
C1624 C1630 1.379 . S
C1624 N1632 1.356 . S
C1625 C1624 1.363 . S
C1625 C1631 1.363 . S
C1626 C1627 1.363 . S
C1626 C1631 1.379 . S
C1626 N1633 1.356 . S
C1627 C1626 1.363 . S
C1627 C1630 1.363 . S
N1628 C1630 1.356 . S
N1628 H1640 0.984 . S
N1628 H1641 0.985 . S
N1629 C1631 1.356 . S
N1629 H1634 0.984 . S
N1629 H1635 0.985 . S
C1630 C1624 1.379 . S
C1630 C1627 1.363 . S
C1630 N1628 1.356 . S
C1631 C1625 1.363 . S
C1631 C1626 1.379 . S
C1631 N1629 1.356 . S
N1632 C1624 1.356 . S
N1632 H1638 0.984 . S
N1632 H1639 0.984 . S
N1633 C1626 1.356 . S
N1633 H1636 0.984 . S
N1633 H1637 0.985 1_545 S
H1634 N1629 0.984 . S
H1635 N1629 0.985 . S
H1636 N1633 0.984 . S
H1637 N1633 0.985 1_565 S
H1638 N1632 0.984 . S
H1639 N1632 0.984 . S
H1640 N1628 0.984 . S
H1641 N1628 0.985 . S
C1642 C1643 1.363 . S
C1642 C1648 1.379 . S
C1642 N1650 1.356 . S
C1643 C1642 1.363 . S
C1643 C1649 1.363 . S
C1644 C1645 1.363 . S
C1644 C1649 1.379 . S
C1644 N1651 1.356 . S
C1645 C1644 1.363 . S
C1645 C1648 1.363 . S
N1646 C1648 1.356 . S
N1646 H1658 0.984 . S
N1646 H1659 0.985 . S
N1647 C1649 1.356 . S
N1647 H1652 0.984 . S
N1647 H1653 0.985 . S
C1648 C1642 1.379 . S
C1648 C1645 1.363 . S
C1648 N1646 1.356 . S
C1649 C1643 1.363 . S
C1649 C1644 1.379 . S
C1649 N1647 1.356 . S
N1650 C1642 1.356 . S
N1650 H1656 0.984 . S
N1650 H1657 0.984 . S
N1651 C1644 1.356 . S
N1651 H1654 0.984 . S
N1651 H1655 0.985 . S
H1652 N1647 0.984 . S
H1653 N1647 0.985 . S
H1654 N1651 0.984 . S
H1655 N1651 0.985 . S
H1656 N1650 0.984 . S
H1657 N1650 0.984 . S
H1658 N1646 0.984 . S
H1659 N1646 0.985 . S
C1660 C1661 1.363 . S
C1660 C1666 1.379 . S
C1660 N1668 1.356 . S
C1661 C1660 1.363 . S
C1661 C1667 1.363 . S
C1662 C1663 1.363 . S
C1662 C1667 1.379 . S
C1662 N1669 1.356 1_545 S
C1663 C1662 1.363 . S
C1663 C1666 1.363 . S
N1664 C1666 1.356 . S
N1664 H1676 0.984 . S
N1664 H1677 0.985 . S
N1665 C1667 1.356 1_565 S
N1665 H1670 0.984 1_565 S
N1665 H1671 0.985 . S
C1666 C1660 1.379 . S
C1666 C1663 1.363 . S
C1666 N1664 1.356 . S
C1667 C1661 1.363 . S
C1667 C1662 1.379 . S
C1667 N1665 1.356 1_545 S
N1668 C1660 1.356 . S
N1668 H1674 0.984 . S
N1668 H1675 0.984 . S
N1669 C1662 1.356 1_565 S
N1669 H1672 0.984 . S
N1669 H1673 0.985 . S
H1670 N1665 0.984 1_545 S
H1671 N1665 0.985 . S
H1672 N1669 0.984 . S
H1673 N1669 0.985 . S
H1674 N1668 0.984 . S
H1675 N1668 0.984 . S
H1676 N1664 0.984 . S
H1677 N1664 0.985 . S
C1678 C1679 1.363 . S
C1678 C1684 1.379 . S
C1678 N1686 1.356 . S
C1679 C1678 1.363 . S
C1679 C1685 1.363 . S
C1680 C1681 1.363 . S
C1680 C1685 1.379 . S
C1680 N1687 1.356 . S
C1681 C1680 1.363 . S
C1681 C1684 1.363 . S
N1682 C1684 1.356 . S
N1682 H1694 0.984 . S
N1682 H1695 0.985 . S
N1683 C1685 1.356 1_554 S
N1683 H1688 0.984 . S
N1683 H1689 0.985 . S
C1684 C1678 1.379 . S
C1684 C1681 1.363 . S
C1684 N1682 1.356 . S
C1685 C1679 1.363 . S
C1685 C1680 1.379 . S
C1685 N1683 1.356 1_556 S
N1686 C1678 1.356 . S
N1686 H1692 0.984 . S
N1686 H1693 0.984 1_556 S
N1687 C1680 1.356 . S
N1687 H1690 0.984 . S
N1687 H1691 0.985 . S
H1688 N1683 0.984 . S
H1689 N1683 0.985 . S
H1690 N1687 0.984 . S
H1691 N1687 0.985 . S
H1692 N1686 0.984 . S
H1693 N1686 0.984 1_554 S
H1694 N1682 0.984 . S
H1695 N1682 0.985 . S
C1696 C1697 1.363 . S
C1696 C1702 1.379 . S
C1696 N1704 1.356 . S
C1697 C1696 1.363 . S
C1697 C1703 1.363 . S
C1698 C1699 1.363 . S
C1698 C1703 1.379 . S
C1698 N1705 1.356 . S
C1699 C1698 1.363 . S
C1699 C1702 1.363 . S
N1700 C1702 1.356 . S
N1700 H1712 0.984 . S
N1700 H1713 0.985 . S
N1701 C1703 1.356 . S
N1701 H1706 0.984 . S
N1701 H1707 0.985 . S
C1702 C1696 1.379 . S
C1702 C1699 1.363 . S
C1702 N1700 1.356 . S
C1703 C1697 1.363 . S
C1703 C1698 1.379 . S
C1703 N1701 1.356 . S
N1704 C1696 1.356 . S
N1704 H1710 0.984 . S
N1704 H1711 0.984 . S
N1705 C1698 1.356 . S
N1705 H1708 0.984 . S
N1705 H1709 0.985 . S
H1706 N1701 0.984 . S
H1707 N1701 0.985 . S
H1708 N1705 0.984 . S
H1709 N1705 0.985 . S
H1710 N1704 0.984 . S
H1711 N1704 0.984 . S
H1712 N1700 0.984 . S
H1713 N1700 0.985 . S
C1714 C1715 1.363 . S
C1714 C1720 1.379 . S
C1714 N1722 1.356 . S
C1715 C1714 1.363 . S
C1715 C1721 1.363 . S
C1716 C1717 1.363 . S
C1716 C1721 1.379 . S
C1716 N1723 1.356 . S
C1717 C1716 1.363 . S
C1717 C1720 1.363 . S
N1718 C1720 1.356 . S
N1718 H1730 0.984 . S
N1718 H1731 0.985 . S
N1719 C1721 1.356 . S
N1719 H1724 0.984 . S
N1719 H1725 0.985 . S
C1720 C1714 1.379 . S
C1720 C1717 1.363 . S
C1720 N1718 1.356 . S
C1721 C1715 1.363 . S
C1721 C1716 1.379 . S
C1721 N1719 1.356 . S
N1722 C1714 1.356 . S
N1722 H1728 0.984 . S
N1722 H1729 0.984 . S
N1723 C1716 1.356 . S
N1723 H1726 0.984 . S
N1723 H1727 0.985 . S
H1724 N1719 0.984 . S
H1725 N1719 0.985 . S
H1726 N1723 0.984 . S
H1727 N1723 0.985 . S
H1728 N1722 0.984 . S
H1729 N1722 0.984 . S
H1730 N1718 0.984 . S
H1731 N1718 0.985 . S
C1732 C1733 1.363 . S
C1732 C1738 1.379 . S
C1732 N1740 1.356 . S
C1733 C1732 1.363 . S
C1733 C1739 1.363 . S
C1734 C1735 1.363 . S
C1734 C1739 1.379 . S
C1734 N1741 1.356 . S
C1735 C1734 1.363 . S
C1735 C1738 1.363 . S
N1736 C1738 1.356 . S
N1736 H1748 0.984 . S
N1736 H1749 0.985 . S
N1737 C1739 1.356 . S
N1737 H1742 0.984 . S
N1737 H1743 0.985 . S
C1738 C1732 1.379 . S
C1738 C1735 1.363 . S
C1738 N1736 1.356 . S
C1739 C1733 1.363 . S
C1739 C1734 1.379 . S
C1739 N1737 1.356 . S
N1740 C1732 1.356 . S
N1740 H1746 0.984 . S
N1740 H1747 0.984 . S
N1741 C1734 1.356 . S
N1741 H1744 0.984 . S
N1741 H1745 0.985 . S
H1742 N1737 0.984 . S
H1743 N1737 0.985 . S
H1744 N1741 0.984 . S
H1745 N1741 0.985 . S
H1746 N1740 0.984 . S
H1747 N1740 0.984 . S
H1748 N1736 0.984 . S
H1749 N1736 0.985 . S
C1750 C1751 1.363 . S
C1750 C1756 1.379 . S
C1750 N1758 1.356 . S
C1751 C1750 1.363 . S
C1751 C1757 1.363 . S
C1752 C1753 1.363 . S
C1752 C1757 1.379 . S
C1752 N1759 1.356 . S
C1753 C1752 1.363 . S
C1753 C1756 1.363 . S
N1754 C1756 1.356 . S
N1754 H1766 0.984 . S
N1754 H1767 0.985 . S
N1755 C1757 1.356 . S
N1755 H1760 0.984 . S
N1755 H1761 0.985 . S
C1756 C1750 1.379 . S
C1756 C1753 1.363 . S
C1756 N1754 1.356 . S
C1757 C1751 1.363 . S
C1757 C1752 1.379 . S
C1757 N1755 1.356 . S
N1758 C1750 1.356 . S
N1758 H1764 0.984 . S
N1758 H1765 0.984 . S
N1759 C1752 1.356 . S
N1759 H1762 0.984 . S
N1759 H1763 0.985 . S
H1760 N1755 0.984 . S
H1761 N1755 0.985 . S
H1762 N1759 0.984 . S
H1763 N1759 0.985 . S
H1764 N1758 0.984 . S
H1765 N1758 0.984 . S
H1766 N1754 0.984 . S
H1767 N1754 0.985 . S
C1768 C1769 1.363 . S
C1768 C1774 1.379 . S
C1768 N1776 1.356 . S
C1769 C1768 1.363 . S
C1769 C1775 1.363 . S
C1770 C1771 1.363 . S
C1770 C1775 1.379 . S
C1770 N1777 1.356 . S
C1771 C1770 1.363 . S
C1771 C1774 1.363 . S
N1772 C1774 1.356 . S
N1772 H1784 0.984 . S
N1772 H1785 0.985 . S
N1773 C1775 1.356 . S
N1773 H1778 0.984 . S
N1773 H1779 0.985 . S
C1774 C1768 1.379 . S
C1774 C1771 1.363 . S
C1774 N1772 1.356 . S
C1775 C1769 1.363 . S
C1775 C1770 1.379 . S
C1775 N1773 1.356 . S
N1776 C1768 1.356 . S
N1776 H1782 0.984 . S
N1776 H1783 0.984 . S
N1777 C1770 1.356 . S
N1777 H1780 0.984 . S
N1777 H1781 0.985 . S
H1778 N1773 0.984 . S
H1779 N1773 0.985 . S
H1780 N1777 0.984 . S
H1781 N1777 0.985 . S
H1782 N1776 0.984 . S
H1783 N1776 0.984 . S
H1784 N1772 0.984 . S
H1785 N1772 0.985 . S
C1786 C1787 1.363 . S
C1786 C1792 1.379 . S
C1786 N1794 1.356 . S
C1787 C1786 1.363 . S
C1787 C1793 1.363 . S
C1788 C1789 1.363 . S
C1788 C1793 1.379 . S
C1788 N1795 1.356 . S
C1789 C1788 1.363 . S
C1789 C1792 1.363 . S
N1790 C1792 1.356 . S
N1790 H1802 0.984 . S
N1790 H1803 0.985 . S
N1791 C1793 1.356 . S
N1791 H1796 0.984 . S
N1791 H1797 0.985 1_565 S
C1792 C1786 1.379 . S
C1792 C1789 1.363 . S
C1792 N1790 1.356 . S
C1793 C1787 1.363 . S
C1793 C1788 1.379 . S
C1793 N1791 1.356 . S
N1794 C1786 1.356 . S
N1794 H1800 0.984 . S
N1794 H1801 0.984 . S
N1795 C1788 1.356 . S
N1795 H1798 0.984 . S
N1795 H1799 0.985 1_565 S
H1796 N1791 0.984 . S
H1797 N1791 0.985 1_545 S
H1798 N1795 0.984 . S
H1799 N1795 0.985 1_545 S
H1800 N1794 0.984 . S
H1801 N1794 0.984 . S
H1802 N1790 0.984 . S
H1803 N1790 0.985 . S
C1804 C1805 1.363 . S
C1804 C1810 1.379 . S
C1804 N1812 1.356 . S
C1805 C1804 1.363 . S
C1805 C1811 1.363 . S
C1806 C1807 1.363 . S
C1806 C1811 1.379 . S
C1806 N1813 1.356 . S
C1807 C1806 1.363 . S
C1807 C1810 1.363 . S
N1808 C1810 1.356 . S
N1808 H1820 0.984 . S
N1808 H1821 0.985 . S
N1809 C1811 1.356 . S
N1809 H1814 0.984 . S
N1809 H1815 0.985 . S
C1810 C1804 1.379 . S
C1810 C1807 1.363 . S
C1810 N1808 1.356 . S
C1811 C1805 1.363 . S
C1811 C1806 1.379 . S
C1811 N1809 1.356 . S
N1812 C1804 1.356 . S
N1812 H1818 0.984 . S
N1812 H1819 0.984 . S
N1813 C1806 1.356 . S
N1813 H1816 0.984 . S
N1813 H1817 0.985 . S
H1814 N1809 0.984 . S
H1815 N1809 0.985 . S
H1816 N1813 0.984 . S
H1817 N1813 0.985 . S
H1818 N1812 0.984 . S
H1819 N1812 0.984 . S
H1820 N1808 0.984 . S
H1821 N1808 0.985 . S
C1822 C1823 1.363 . S
C1822 C1828 1.379 . S
C1822 N1830 1.356 . S
C1823 C1822 1.363 . S
C1823 C1829 1.363 . S
C1824 C1825 1.363 . S
C1824 C1829 1.379 . S
C1824 N1831 1.356 . S
C1825 C1824 1.363 . S
C1825 C1828 1.363 . S
N1826 C1828 1.356 . S
N1826 H1838 0.984 . S
N1826 H1839 0.985 . S
N1827 C1829 1.356 . S
N1827 H1832 0.984 . S
N1827 H1833 0.985 . S
C1828 C1822 1.379 . S
C1828 C1825 1.363 . S
C1828 N1826 1.356 . S
C1829 C1823 1.363 . S
C1829 C1824 1.379 . S
C1829 N1827 1.356 . S
N1830 C1822 1.356 . S
N1830 H1836 0.984 . S
N1830 H1837 0.984 . S
N1831 C1824 1.356 . S
N1831 H1834 0.984 . S
N1831 H1835 0.985 . S
H1832 N1827 0.984 . S
H1833 N1827 0.985 . S
H1834 N1831 0.984 . S
H1835 N1831 0.985 . S
H1836 N1830 0.984 . S
H1837 N1830 0.984 . S
H1838 N1826 0.984 . S
H1839 N1826 0.985 . S
C1840 C1841 1.363 . S
C1840 C1846 1.379 . S
C1840 N1848 1.356 . S
C1841 C1840 1.363 . S
C1841 C1847 1.363 . S
C1842 C1843 1.363 . S
C1842 C1847 1.379 . S
C1842 N1849 1.356 . S
C1843 C1842 1.363 . S
C1843 C1846 1.363 . S
N1844 C1846 1.356 . S
N1844 H1856 0.984 . S
N1844 H1857 0.985 . S
N1845 C1847 1.356 . S
N1845 H1850 0.984 . S
N1845 H1851 0.985 . S
C1846 C1840 1.379 . S
C1846 C1843 1.363 . S
C1846 N1844 1.356 . S
C1847 C1841 1.363 . S
C1847 C1842 1.379 . S
C1847 N1845 1.356 . S
N1848 C1840 1.356 . S
N1848 H1854 0.984 . S
N1848 H1855 0.984 . S
N1849 C1842 1.356 . S
N1849 H1852 0.984 . S
N1849 H1853 0.985 . S
H1850 N1845 0.984 . S
H1851 N1845 0.985 . S
H1852 N1849 0.984 . S
H1853 N1849 0.985 . S
H1854 N1848 0.984 . S
H1855 N1848 0.984 . S
H1856 N1844 0.984 . S
H1857 N1844 0.985 . S
C1858 C1859 1.363 . S
C1858 C1864 1.379 . S
C1858 N1866 1.356 . S
C1859 C1858 1.363 . S
C1859 C1865 1.363 . S
C1860 C1861 1.363 . S
C1860 C1865 1.379 . S
C1860 N1867 1.356 . S
C1861 C1860 1.363 . S
C1861 C1864 1.363 . S
N1862 C1864 1.356 . S
N1862 H1874 0.984 . S
N1862 H1875 0.985 . S
N1863 C1865 1.356 . S
N1863 H1868 0.984 . S
N1863 H1869 0.985 . S
C1864 C1858 1.379 . S
C1864 C1861 1.363 . S
C1864 N1862 1.356 . S
C1865 C1859 1.363 . S
C1865 C1860 1.379 . S
C1865 N1863 1.356 . S
N1866 C1858 1.356 . S
N1866 H1872 0.984 . S
N1866 H1873 0.984 . S
N1867 C1860 1.356 . S
N1867 H1870 0.984 . S
N1867 H1871 0.985 . S
H1868 N1863 0.984 . S
H1869 N1863 0.985 . S
H1870 N1867 0.984 . S
H1871 N1867 0.985 . S
H1872 N1866 0.984 . S
H1873 N1866 0.984 . S
H1874 N1862 0.984 . S
H1875 N1862 0.985 . S
C1876 C1877 1.363 . S
C1876 C1882 1.379 . S
C1876 N1884 1.356 1_554 S
C1877 C1876 1.363 . S
C1877 C1883 1.363 . S
C1878 C1879 1.363 . S
C1878 C1883 1.379 . S
C1878 N1885 1.356 . S
C1879 C1878 1.363 . S
C1879 C1882 1.363 . S
N1880 C1882 1.356 . S
N1880 H1892 0.972 1_554 S
N1880 H1893 0.985 . S
N1881 C1883 1.361 . S
N1881 H1886 0.989 . S
N1881 H1887 0.975 1_455 S
C1882 C1876 1.379 . S
C1882 C1879 1.363 . S
C1882 N1880 1.356 . S
C1883 C1877 1.363 . S
C1883 C1878 1.379 . S
C1883 N1881 1.361 . S
N1884 C1876 1.356 1_556 S
N1884 H1890 0.984 . S
N1884 H1891 0.984 . S
N1885 C1878 1.356 . S
N1885 H1888 0.984 . S
N1885 H1889 0.985 . S
H1886 N1881 0.989 . S
H1887 N1881 0.975 1_655 S
H1888 N1885 0.984 . S
H1889 N1885 0.985 . S
H1890 N1884 0.984 . S
H1891 N1884 0.984 . S
H1892 N1880 0.972 1_556 S
H1893 N1880 0.985 . S
C1894 C1895 1.363 . S
C1894 C1900 1.379 1_455 S
C1894 N1902 1.356 . S
C1895 C1894 1.363 . S
C1895 C1901 1.363 1_455 S
C1896 C1897 1.363 . S
C1896 C1901 1.379 . S
C1896 N1903 1.356 . S
C1897 C1896 1.363 . S
C1897 C1900 1.363 . S
N1898 C1900 1.356 . S
N1898 H1910 0.984 . S
N1898 H1911 0.985 . S
N1899 C1901 1.356 . S
N1899 H1904 0.984 1_655 S
N1899 H1905 0.985 . S
C1900 C1894 1.379 1_655 S
C1900 C1897 1.363 . S
C1900 N1898 1.356 . S
C1901 C1895 1.363 1_655 S
C1901 C1896 1.379 . S
C1901 N1899 1.356 . S
N1902 C1894 1.356 . S
N1902 H1908 0.984 . S
N1902 H1909 0.984 . S
N1903 C1896 1.356 . S
N1903 H1906 0.984 . S
N1903 H1907 0.985 . S
H1904 N1899 0.984 1_455 S
H1905 N1899 0.985 . S
H1906 N1903 0.984 . S
H1907 N1903 0.985 . S
H1908 N1902 0.984 . S
H1909 N1902 0.984 . S
H1910 N1898 0.984 . S
H1911 N1898 0.985 . S
C1912 C1913 1.363 . S
C1912 C1918 1.379 . S
C1912 N1920 1.356 . S
C1913 C1912 1.363 . S
C1913 C1919 1.363 . S
C1914 C1915 1.363 . S
C1914 C1919 1.379 . S
C1914 N1921 1.356 . S
C1915 C1914 1.363 . S
C1915 C1918 1.363 . S
N1916 C1918 1.356 . S
N1916 H1928 0.984 . S
N1916 H1929 0.985 . S
N1917 C1919 1.356 . S
N1917 H1922 0.984 . S
N1917 H1923 0.985 . S
C1918 C1912 1.379 . S
C1918 C1915 1.363 . S
C1918 N1916 1.356 . S
C1919 C1913 1.363 . S
C1919 C1914 1.379 . S
C1919 N1917 1.356 . S
N1920 C1912 1.356 . S
N1920 H1926 0.984 . S
N1920 H1927 0.984 . S
N1921 C1914 1.356 . S
N1921 H1924 0.984 . S
N1921 H1925 0.985 . S
H1922 N1917 0.984 . S
H1923 N1917 0.985 . S
H1924 N1921 0.984 . S
H1925 N1921 0.985 . S
H1926 N1920 0.984 . S
H1927 N1920 0.984 . S
H1928 N1916 0.984 . S
H1929 N1916 0.985 . S
C1930 C1931 1.363 . S
C1930 C1936 1.379 . S
C1930 N1938 1.356 . S
C1931 C1930 1.363 . S
C1931 C1937 1.363 . S
C1932 C1933 1.363 . S
C1932 C1937 1.379 . S
C1932 N1939 1.356 . S
C1933 C1932 1.363 . S
C1933 C1936 1.363 . S
N1934 C1936 1.356 . S
N1934 H1946 0.984 . S
N1934 H1947 0.985 . S
N1935 C1937 1.356 . S
N1935 H1940 0.984 . S
N1935 H1941 0.985 . S
C1936 C1930 1.379 . S
C1936 C1933 1.363 . S
C1936 N1934 1.356 . S
C1937 C1931 1.363 . S
C1937 C1932 1.379 . S
C1937 N1935 1.356 . S
N1938 C1930 1.356 . S
N1938 H1944 0.984 . S
N1938 H1945 0.984 . S
N1939 C1932 1.356 . S
N1939 H1942 0.984 . S
N1939 H1943 0.985 . S
H1940 N1935 0.984 . S
H1941 N1935 0.985 . S
H1942 N1939 0.984 . S
H1943 N1939 0.985 . S
H1944 N1938 0.984 . S
H1945 N1938 0.984 . S
H1946 N1934 0.984 . S
H1947 N1934 0.985 . S
C1948 C1949 1.363 . S
C1948 C1954 1.379 . S
C1948 N1956 1.356 . S
C1949 C1948 1.363 . S
C1949 C1955 1.363 . S
C1950 C1951 1.363 . S
C1950 C1955 1.379 . S
C1950 N1957 1.356 . S
C1951 C1950 1.363 . S
C1951 C1954 1.363 . S
N1952 C1954 1.356 . S
N1952 H1964 0.984 . S
N1952 H1965 0.985 . S
N1953 C1955 1.356 . S
N1953 H1958 0.984 . S
N1953 H1959 0.985 . S
C1954 C1948 1.379 . S
C1954 C1951 1.363 . S
C1954 N1952 1.356 . S
C1955 C1949 1.363 . S
C1955 C1950 1.379 . S
C1955 N1953 1.356 . S
N1956 C1948 1.356 . S
N1956 H1962 0.984 . S
N1956 H1963 0.984 . S
N1957 C1950 1.356 . S
N1957 H1960 0.984 . S
N1957 H1961 0.985 . S
H1958 N1953 0.984 . S
H1959 N1953 0.985 . S
H1960 N1957 0.984 . S
H1961 N1957 0.985 . S
H1962 N1956 0.984 . S
H1963 N1956 0.984 . S
H1964 N1952 0.984 . S
H1965 N1952 0.985 . S
C1966 C1967 1.363 . S
C1966 C1972 1.379 . S
C1966 N1974 1.356 . S
C1967 C1966 1.363 . S
C1967 C1973 1.363 . S
C1968 C1969 1.363 . S
C1968 C1973 1.379 . S
C1968 N1975 1.356 . S
C1969 C1968 1.363 . S
C1969 C1972 1.363 . S
N1970 C1972 1.356 . S
N1970 H1982 0.984 . S
N1970 H1983 0.985 . S
N1971 C1973 1.356 . S
N1971 H1976 0.984 . S
N1971 H1977 0.985 . S
C1972 C1966 1.379 . S
C1972 C1969 1.363 . S
C1972 N1970 1.356 . S
C1973 C1967 1.363 . S
C1973 C1968 1.379 . S
C1973 N1971 1.356 . S
N1974 C1966 1.356 . S
N1974 H1980 0.984 . S
N1974 H1981 0.984 . S
N1975 C1968 1.356 . S
N1975 H1978 0.984 . S
N1975 H1979 0.985 . S
H1976 N1971 0.984 . S
H1977 N1971 0.985 . S
H1978 N1975 0.984 . S
H1979 N1975 0.985 . S
H1980 N1974 0.984 . S
H1981 N1974 0.984 . S
H1982 N1970 0.984 . S
H1983 N1970 0.985 . S
C1984 C1985 1.363 . S
C1984 C1990 1.379 . S
C1984 N1992 1.356 . S
C1985 C1984 1.363 . S
C1985 C1991 1.363 . S
C1986 C1987 1.363 . S
C1986 C1991 1.379 . S
C1986 N1993 1.356 . S
C1987 C1986 1.363 . S
C1987 C1990 1.363 . S
N1988 C1990 1.356 . S
N1988 H2000 0.984 . S
N1988 H2001 0.985 . S
N1989 C1991 1.356 . S
N1989 H1994 0.984 . S
N1989 H1995 0.985 . S
C1990 C1984 1.379 . S
C1990 C1987 1.363 . S
C1990 N1988 1.356 . S
C1991 C1985 1.363 . S
C1991 C1986 1.379 . S
C1991 N1989 1.356 . S
N1992 C1984 1.356 . S
N1992 H1998 0.984 . S
N1992 H1999 0.984 . S
N1993 C1986 1.356 . S
N1993 H1996 0.984 . S
N1993 H1997 0.985 . S
H1994 N1989 0.984 . S
H1995 N1989 0.985 . S
H1996 N1993 0.984 . S
H1997 N1993 0.985 . S
H1998 N1992 0.984 . S
H1999 N1992 0.984 . S
H2000 N1988 0.984 . S
H2001 N1988 0.985 . S
C2002 C2003 1.363 . S
C2002 C2008 1.379 . S
C2002 N2010 1.356 . S
C2003 C2002 1.363 . S
C2003 C2009 1.363 . S
C2004 C2005 1.363 . S
C2004 C2009 1.379 . S
C2004 N2011 1.356 . S
C2005 C2004 1.363 . S
C2005 C2008 1.363 . S
N2006 C2008 1.356 . S
N2006 H2018 0.984 . S
N2006 H2019 0.985 . S
N2007 C2009 1.356 . S
N2007 H2012 0.984 . S
N2007 H2013 0.985 . S
C2008 C2002 1.379 . S
C2008 C2005 1.363 . S
C2008 N2006 1.356 . S
C2009 C2003 1.363 . S
C2009 C2004 1.379 . S
C2009 N2007 1.356 . S
N2010 C2002 1.356 . S
N2010 H2016 0.984 . S
N2010 H2017 0.984 . S
N2011 C2004 1.356 . S
N2011 H2014 0.984 . S
N2011 H2015 0.985 . S
H2012 N2007 0.984 . S
H2013 N2007 0.985 . S
H2014 N2011 0.984 . S
H2015 N2011 0.985 . S
H2016 N2010 0.984 . S
H2017 N2010 0.984 . S
H2018 N2006 0.984 . S
H2019 N2006 0.985 . S
C2020 C2021 1.363 . S
C2020 C2026 1.379 . S
C2020 N2028 1.356 . S
C2021 C2020 1.363 . S
C2021 C2027 1.363 . S
C2022 C2023 1.363 . S
C2022 C2027 1.379 . S
C2022 N2029 1.356 . S
C2023 C2022 1.363 . S
C2023 C2026 1.363 . S
N2024 C2026 1.356 . S
N2024 H2036 0.984 . S
N2024 H2037 0.985 . S
N2025 C2027 1.356 . S
N2025 H2030 0.984 . S
N2025 H2031 0.985 . S
C2026 C2020 1.379 . S
C2026 C2023 1.363 . S
C2026 N2024 1.356 . S
C2027 C2021 1.363 . S
C2027 C2022 1.379 . S
C2027 N2025 1.356 . S
N2028 C2020 1.356 . S
N2028 H2034 0.984 . S
N2028 H2035 0.984 . S
N2029 C2022 1.356 . S
N2029 H2032 0.984 . S
N2029 H2033 0.985 . S
H2030 N2025 0.984 . S
H2031 N2025 0.985 . S
H2032 N2029 0.984 . S
H2033 N2029 0.985 . S
H2034 N2028 0.984 . S
H2035 N2028 0.984 . S
H2036 N2024 0.984 . S
H2037 N2024 0.985 . S
C2038 C2039 1.363 . S
C2038 C2044 1.379 . S
C2038 N2046 1.356 . S
C2039 C2038 1.363 . S
C2039 C2045 1.363 . S
C2040 C2041 1.363 . S
C2040 C2045 1.379 . S
C2040 N2047 1.356 . S
C2041 C2040 1.363 . S
C2041 C2044 1.363 . S
N2042 C2044 1.356 . S
N2042 H2054 0.984 . S
N2042 H2055 0.985 . S
N2043 C2045 1.356 . S
N2043 H2048 0.984 . S
N2043 H2049 0.985 . S
C2044 C2038 1.379 . S
C2044 C2041 1.363 . S
C2044 N2042 1.356 . S
C2045 C2039 1.363 . S
C2045 C2040 1.379 . S
C2045 N2043 1.356 . S
N2046 C2038 1.356 . S
N2046 H2052 0.984 . S
N2046 H2053 0.984 . S
N2047 C2040 1.356 . S
N2047 H2050 0.984 . S
N2047 H2051 0.985 . S
H2048 N2043 0.984 . S
H2049 N2043 0.985 . S
H2050 N2047 0.984 . S
H2051 N2047 0.985 . S
H2052 N2046 0.984 . S
H2053 N2046 0.984 . S
H2054 N2042 0.984 . S
H2055 N2042 0.985 . S
C2056 C2057 1.363 . S
C2056 C2062 1.379 . S
C2056 N2064 1.356 . S
C2057 C2056 1.363 . S
C2057 C2063 1.363 . S
C2058 C2059 1.363 . S
C2058 C2063 1.379 . S
C2058 N2065 1.356 . S
C2059 C2058 1.363 . S
C2059 C2062 1.363 . S
N2060 C2062 1.356 . S
N2060 H2072 0.984 . S
N2060 H2073 0.985 1_556 S
N2061 C2063 1.356 . S
N2061 H2066 0.984 . S
N2061 H2067 0.985 . S
C2062 C2056 1.379 . S
C2062 C2059 1.363 . S
C2062 N2060 1.356 . S
C2063 C2057 1.363 . S
C2063 C2058 1.379 . S
C2063 N2061 1.356 . S
N2064 C2056 1.356 . S
N2064 H2070 0.984 . S
N2064 H2071 0.984 . S
N2065 C2058 1.356 . S
N2065 H2068 0.984 1_556 S
N2065 H2069 0.985 . S
H2066 N2061 0.984 . S
H2067 N2061 0.985 . S
H2068 N2065 0.984 1_554 S
H2069 N2065 0.985 . S
H2070 N2064 0.984 . S
H2071 N2064 0.984 . S
H2072 N2060 0.984 . S
H2073 N2060 0.985 1_554 S
C2074 C2075 1.363 . S
C2074 C2080 1.379 . S
C2074 N2082 1.356 . S
C2075 C2074 1.363 . S
C2075 C2081 1.363 . S
C2076 C2077 1.363 . S
C2076 C2081 1.379 . S
C2076 N2083 1.356 . S
C2077 C2076 1.363 . S
C2077 C2080 1.363 . S
N2078 C2080 1.356 . S
N2078 H2090 0.984 . S
N2078 H2091 0.985 . S
N2079 C2081 1.356 . S
N2079 H2084 0.984 . S
N2079 H2085 0.985 . S
C2080 C2074 1.379 . S
C2080 C2077 1.363 . S
C2080 N2078 1.356 . S
C2081 C2075 1.363 . S
C2081 C2076 1.379 . S
C2081 N2079 1.356 . S
N2082 C2074 1.356 . S
N2082 H2088 0.984 . S
N2082 H2089 0.984 . S
N2083 C2076 1.356 . S
N2083 H2086 0.984 . S
N2083 H2087 0.985 . S
H2084 N2079 0.984 . S
H2085 N2079 0.985 . S
H2086 N2083 0.984 . S
H2087 N2083 0.985 . S
H2088 N2082 0.984 . S
H2089 N2082 0.984 . S
H2090 N2078 0.984 . S
H2091 N2078 0.985 . S
C2092 C2093 1.363 . S
C2092 C2098 1.379 . S
C2092 N2100 1.356 . S
C2093 C2092 1.363 . S
C2093 C2099 1.363 . S
C2094 C2095 1.363 . S
C2094 C2099 1.379 . S
C2094 N2101 1.356 . S
C2095 C2094 1.363 . S
C2095 C2098 1.363 . S
N2096 C2098 1.356 . S
N2096 H2108 0.984 . S
N2096 H2109 0.985 . S
N2097 C2099 1.356 . S
N2097 H2102 0.984 . S
N2097 H2103 0.985 . S
C2098 C2092 1.379 . S
C2098 C2095 1.363 . S
C2098 N2096 1.356 . S
C2099 C2093 1.363 . S
C2099 C2094 1.379 . S
C2099 N2097 1.356 . S
N2100 C2092 1.356 . S
N2100 H2106 0.984 . S
N2100 H2107 0.984 . S
N2101 C2094 1.356 . S
N2101 H2104 0.984 . S
N2101 H2105 0.985 . S
H2102 N2097 0.984 . S
H2103 N2097 0.985 . S
H2104 N2101 0.984 . S
H2105 N2101 0.985 . S
H2106 N2100 0.984 . S
H2107 N2100 0.984 . S
H2108 N2096 0.984 . S
H2109 N2096 0.985 . S
C2110 C2111 1.363 . S
C2110 C2116 1.379 . S
C2110 N2118 1.356 . S
C2111 C2110 1.363 . S
C2111 C2117 1.363 . S
C2112 C2113 1.363 . S
C2112 C2117 1.379 . S
C2112 N2119 1.356 . S
C2113 C2112 1.363 . S
C2113 C2116 1.363 . S
N2114 C2116 1.356 . S
N2114 H2126 0.984 . S
N2114 H2127 0.985 . S
N2115 C2117 1.356 . S
N2115 H2120 0.984 . S
N2115 H2121 0.985 . S
C2116 C2110 1.379 . S
C2116 C2113 1.363 . S
C2116 N2114 1.356 . S
C2117 C2111 1.363 . S
C2117 C2112 1.379 . S
C2117 N2115 1.356 . S
N2118 C2110 1.356 . S
N2118 H2124 0.984 . S
N2118 H2125 0.984 . S
N2119 C2112 1.356 . S
N2119 H2122 0.984 . S
N2119 H2123 0.985 . S
H2120 N2115 0.984 . S
H2121 N2115 0.985 . S
H2122 N2119 0.984 . S
H2123 N2119 0.985 . S
H2124 N2118 0.984 . S
H2125 N2118 0.984 . S
H2126 N2114 0.984 . S
H2127 N2114 0.985 . S
C2128 C2129 1.363 . S
C2128 C2134 1.379 . S
C2128 N2136 1.356 . S
C2129 C2128 1.363 . S
C2129 C2135 1.363 . S
C2130 C2131 1.363 . S
C2130 C2135 1.379 . S
C2130 N2137 1.356 . S
C2131 C2130 1.363 . S
C2131 C2134 1.363 . S
N2132 C2134 1.356 . S
N2132 H2144 0.984 . S
N2132 H2145 0.985 . S
N2133 C2135 1.356 . S
N2133 H2138 0.984 . S
N2133 H2139 0.985 . S
C2134 C2128 1.379 . S
C2134 C2131 1.363 . S
C2134 N2132 1.356 . S
C2135 C2129 1.363 . S
C2135 C2130 1.379 . S
C2135 N2133 1.356 . S
N2136 C2128 1.356 . S
N2136 H2142 0.984 . S
N2136 H2143 0.984 . S
N2137 C2130 1.356 . S
N2137 H2140 0.984 . S
N2137 H2141 0.985 . S
H2138 N2133 0.984 . S
H2139 N2133 0.985 . S
H2140 N2137 0.984 . S
H2141 N2137 0.985 . S
H2142 N2136 0.984 . S
H2143 N2136 0.984 . S
H2144 N2132 0.984 . S
H2145 N2132 0.985 . S
C2146 C2147 1.363 . S
C2146 C2152 1.379 . S
C2146 N2154 1.356 . S
C2147 C2146 1.363 . S
C2147 C2153 1.363 . S
C2148 C2149 1.363 . S
C2148 C2153 1.379 . S
C2148 N2155 1.356 . S
C2149 C2148 1.363 . S
C2149 C2152 1.363 . S
N2150 C2152 1.356 . S
N2150 H2162 0.984 . S
N2150 H2163 0.985 . S
N2151 C2153 1.356 . S
N2151 H2156 0.984 . S
N2151 H2157 0.985 . S
C2152 C2146 1.379 . S
C2152 C2149 1.363 . S
C2152 N2150 1.356 . S
C2153 C2147 1.363 . S
C2153 C2148 1.379 . S
C2153 N2151 1.356 . S
N2154 C2146 1.356 . S
N2154 H2160 0.984 . S
N2154 H2161 0.984 . S
N2155 C2148 1.356 . S
N2155 H2158 0.984 . S
N2155 H2159 0.985 . S
H2156 N2151 0.984 . S
H2157 N2151 0.985 . S
H2158 N2155 0.984 . S
H2159 N2155 0.985 . S
H2160 N2154 0.984 . S
H2161 N2154 0.984 . S
H2162 N2150 0.984 . S
H2163 N2150 0.985 . S
C2164 C2165 1.363 1_565 S
C2164 C2170 1.379 . S
C2164 N2172 1.356 1_565 S
C2165 C2164 1.363 1_545 S
C2165 C2171 1.363 1_545 S
C2166 C2167 1.363 . S
C2166 C2171 1.379 . S
C2166 N2173 1.356 . S
C2167 C2166 1.363 . S
C2167 C2170 1.363 . S
N2168 C2170 1.356 . S
N2168 H2180 0.984 . S
N2168 H2181 0.985 . S
N2169 C2171 1.356 1_545 S
N2169 H2174 0.984 . S
N2169 H2175 0.985 1_545 S
C2170 C2164 1.379 . S
C2170 C2167 1.363 . S
C2170 N2168 1.356 . S
C2171 C2165 1.363 1_565 S
C2171 C2166 1.379 . S
C2171 N2169 1.356 1_565 S
N2172 C2164 1.356 1_545 S
N2172 H2178 0.984 . S
N2172 H2179 0.984 . S
N2173 C2166 1.356 . S
N2173 H2176 0.984 . S
N2173 H2177 0.985 . S
H2174 N2169 0.984 . S
H2175 N2169 0.985 1_565 S
H2176 N2173 0.984 . S
H2177 N2173 0.985 . S
H2178 N2172 0.984 . S
H2179 N2172 0.984 . S
H2180 N2168 0.984 . S
H2181 N2168 0.985 . S
C2182 C2183 1.363 1_556 S
C2182 C2188 1.379 1_556 S
C2182 N2190 1.356 . S
C2183 C2182 1.363 1_554 S
C2183 C2189 1.363 . S
C2184 C2185 1.363 . S
C2184 C2189 1.379 . S
C2184 N2191 1.356 . S
C2185 C2184 1.363 . S
C2185 C2188 1.363 . S
N2186 C2188 1.356 1_556 S
N2186 H2198 0.984 . S
N2186 H2199 0.985 1_556 S
N2187 C2189 1.356 . S
N2187 H2192 0.984 . S
N2187 H2193 0.985 . S
C2188 C2182 1.379 1_554 S
C2188 C2185 1.363 . S
C2188 N2186 1.356 1_554 S
C2189 C2183 1.363 . S
C2189 C2184 1.379 . S
C2189 N2187 1.356 . S
N2190 C2182 1.356 . S
N2190 H2196 0.984 . S
N2190 H2197 0.984 . S
N2191 C2184 1.356 . S
N2191 H2194 0.984 . S
N2191 H2195 0.985 . S
H2192 N2187 0.984 . S
H2193 N2187 0.985 . S
H2194 N2191 0.984 . S
H2195 N2191 0.985 . S
H2196 N2190 0.984 . S
H2197 N2190 0.984 . S
H2198 N2186 0.984 . S
H2199 N2186 0.985 1_554 S
C2200 C2201 1.363 . S
C2200 C2206 1.379 . S
C2200 N2208 1.356 . S
C2201 C2200 1.363 . S
C2201 C2207 1.363 . S
C2202 C2203 1.363 . S
C2202 C2207 1.379 . S
C2202 N2209 1.356 . S
C2203 C2202 1.363 . S
C2203 C2206 1.363 . S
N2204 C2206 1.356 . S
N2204 H2216 0.984 . S
N2204 H2217 0.985 . S
N2205 C2207 1.356 . S
N2205 H2210 0.984 . S
N2205 H2211 0.985 . S
C2206 C2200 1.379 . S
C2206 C2203 1.363 . S
C2206 N2204 1.356 . S
C2207 C2201 1.363 . S
C2207 C2202 1.379 . S
C2207 N2205 1.356 . S
N2208 C2200 1.356 . S
N2208 H2214 0.984 . S
N2208 H2215 0.984 . S
N2209 C2202 1.356 . S
N2209 H2212 0.984 . S
N2209 H2213 0.985 . S
H2210 N2205 0.984 . S
H2211 N2205 0.985 . S
H2212 N2209 0.984 . S
H2213 N2209 0.985 . S
H2214 N2208 0.984 . S
H2215 N2208 0.984 . S
H2216 N2204 0.984 . S
H2217 N2204 0.985 . S
C2218 C2219 1.363 . S
C2218 C2224 1.379 . S
C2218 N2226 1.356 . S
C2219 C2218 1.363 . S
C2219 C2225 1.363 . S
C2220 C2221 1.363 . S
C2220 C2225 1.379 . S
C2220 N2227 1.356 . S
C2221 C2220 1.363 . S
C2221 C2224 1.363 . S
N2222 C2224 1.356 . S
N2222 H2234 0.984 . S
N2222 H2235 0.985 . S
N2223 C2225 1.356 . S
N2223 H2228 0.984 . S
N2223 H2229 0.985 . S
C2224 C2218 1.379 . S
C2224 C2221 1.363 . S
C2224 N2222 1.356 . S
C2225 C2219 1.363 . S
C2225 C2220 1.379 . S
C2225 N2223 1.356 . S
N2226 C2218 1.356 . S
N2226 H2232 0.984 . S
N2226 H2233 0.984 . S
N2227 C2220 1.356 . S
N2227 H2230 0.984 . S
N2227 H2231 0.985 . S
H2228 N2223 0.984 . S
H2229 N2223 0.985 . S
H2230 N2227 0.984 . S
H2231 N2227 0.985 . S
H2232 N2226 0.984 . S
H2233 N2226 0.984 . S
H2234 N2222 0.984 . S
H2235 N2222 0.985 . S
C2236 C2237 1.363 . S
C2236 C2242 1.379 . S
C2236 N2244 1.356 . S
C2237 C2236 1.363 . S
C2237 C2243 1.363 . S
C2238 C2239 1.363 . S
C2238 C2243 1.379 . S
C2238 N2245 1.356 . S
C2239 C2238 1.363 . S
C2239 C2242 1.363 . S
N2240 C2242 1.356 . S
N2240 H2252 0.984 . S
N2240 H2253 0.985 . S
N2241 C2243 1.356 . S
N2241 H2246 0.984 . S
N2241 H2247 0.985 . S
C2242 C2236 1.379 . S
C2242 C2239 1.363 . S
C2242 N2240 1.356 . S
C2243 C2237 1.363 . S
C2243 C2238 1.379 . S
C2243 N2241 1.356 . S
N2244 C2236 1.356 . S
N2244 H2250 0.984 . S
N2244 H2251 0.984 . S
N2245 C2238 1.356 . S
N2245 H2248 0.984 . S
N2245 H2249 0.985 . S
H2246 N2241 0.984 . S
H2247 N2241 0.985 . S
H2248 N2245 0.984 . S
H2249 N2245 0.985 . S
H2250 N2244 0.984 . S
H2251 N2244 0.984 . S
H2252 N2240 0.984 . S
H2253 N2240 0.985 . S
C2254 C2255 1.363 . S
C2254 C2260 1.379 . S
C2254 N2262 1.356 . S
C2255 C2254 1.363 . S
C2255 C2261 1.363 . S
C2256 C2257 1.363 . S
C2256 C2261 1.379 . S
C2256 N2263 1.356 . S
C2257 C2256 1.363 . S
C2257 C2260 1.363 . S
N2258 C2260 1.356 . S
N2258 H2270 0.984 . S
N2258 H2271 0.985 . S
N2259 C2261 1.356 . S
N2259 H2264 0.984 . S
N2259 H2265 0.985 . S
C2260 C2254 1.379 . S
C2260 C2257 1.363 . S
C2260 N2258 1.356 . S
C2261 C2255 1.363 . S
C2261 C2256 1.379 . S
C2261 N2259 1.356 . S
N2262 C2254 1.356 . S
N2262 H2268 0.984 . S
N2262 H2269 0.984 . S
N2263 C2256 1.356 . S
N2263 H2266 0.984 . S
N2263 H2267 0.985 . S
H2264 N2259 0.984 . S
H2265 N2259 0.985 . S
H2266 N2263 0.984 . S
H2267 N2263 0.985 . S
H2268 N2262 0.984 . S
H2269 N2262 0.984 . S
H2270 N2258 0.984 . S
H2271 N2258 0.985 . S
C2272 C2273 1.363 . S
C2272 C2278 1.379 . S
C2272 N2280 1.356 . S
C2273 C2272 1.363 . S
C2273 C2279 1.363 . S
C2274 C2275 1.363 . S
C2274 C2279 1.379 . S
C2274 N2281 1.356 . S
C2275 C2274 1.363 . S
C2275 C2278 1.363 . S
N2276 C2278 1.356 . S
N2276 H2288 0.984 . S
N2276 H2289 0.985 . S
N2277 C2279 1.356 . S
N2277 H2282 0.984 . S
N2277 H2283 0.985 . S
C2278 C2272 1.379 . S
C2278 C2275 1.363 . S
C2278 N2276 1.356 . S
C2279 C2273 1.363 . S
C2279 C2274 1.379 . S
C2279 N2277 1.356 . S
N2280 C2272 1.356 . S
N2280 H2286 0.984 . S
N2280 H2287 0.984 . S
N2281 C2274 1.356 . S
N2281 H2284 0.984 . S
N2281 H2285 0.985 . S
H2282 N2277 0.984 . S
H2283 N2277 0.985 . S
H2284 N2281 0.984 . S
H2285 N2281 0.985 . S
H2286 N2280 0.984 . S
H2287 N2280 0.984 . S
H2288 N2276 0.984 . S
H2289 N2276 0.985 . S
C2290 C2291 1.363 . S
C2290 C2296 1.379 . S
C2290 N2298 1.356 . S
C2291 C2290 1.363 . S
C2291 C2297 1.363 . S
C2292 C2293 1.363 . S
C2292 C2297 1.379 . S
C2292 N2299 1.356 . S
C2293 C2292 1.363 . S
C2293 C2296 1.363 . S
N2294 C2296 1.356 . S
N2294 H2306 0.984 . S
N2294 H2307 0.985 . S
N2295 C2297 1.356 . S
N2295 H2300 0.984 . S
N2295 H2301 0.985 . S
C2296 C2290 1.379 . S
C2296 C2293 1.363 . S
C2296 N2294 1.356 . S
C2297 C2291 1.363 . S
C2297 C2292 1.379 . S
C2297 N2295 1.356 . S
N2298 C2290 1.356 . S
N2298 H2304 0.984 . S
N2298 H2305 0.984 . S
N2299 C2292 1.356 . S
N2299 H2302 0.984 . S
N2299 H2303 0.985 . S
H2300 N2295 0.984 . S
H2301 N2295 0.985 . S
H2302 N2299 0.984 . S
H2303 N2299 0.985 . S
H2304 N2298 0.984 . S
H2305 N2298 0.984 . S
H2306 N2294 0.984 . S
H2307 N2294 0.985 . S
C2308 C2309 1.363 . S
C2308 C2314 1.379 . S
C2308 N2316 1.356 . S
C2309 C2308 1.363 . S
C2309 C2315 1.363 . S
C2310 C2311 1.363 . S
C2310 C2315 1.379 . S
C2310 N2317 1.356 . S
C2311 C2310 1.363 . S
C2311 C2314 1.363 . S
N2312 C2314 1.356 . S
N2312 H2324 0.984 . S
N2312 H2325 0.985 . S
N2313 C2315 1.356 . S
N2313 H2318 0.984 . S
N2313 H2319 0.985 . S
C2314 C2308 1.379 . S
C2314 C2311 1.363 . S
C2314 N2312 1.356 . S
C2315 C2309 1.363 . S
C2315 C2310 1.379 . S
C2315 N2313 1.356 . S
N2316 C2308 1.356 . S
N2316 H2322 0.984 . S
N2316 H2323 0.984 . S
N2317 C2310 1.356 . S
N2317 H2320 0.984 . S
N2317 H2321 0.985 . S
H2318 N2313 0.984 . S
H2319 N2313 0.985 . S
H2320 N2317 0.984 . S
H2321 N2317 0.985 . S
H2322 N2316 0.984 . S
H2323 N2316 0.984 . S
H2324 N2312 0.984 . S
H2325 N2312 0.985 . S
C2326 C2327 1.363 . S
C2326 C2332 1.379 . S
C2326 N2334 1.356 . S
C2327 C2326 1.363 . S
C2327 C2333 1.363 . S
C2328 C2329 1.363 . S
C2328 C2333 1.379 . S
C2328 N2335 1.356 . S
C2329 C2328 1.363 . S
C2329 C2332 1.363 . S
N2330 C2332 1.356 . S
N2330 H2342 0.984 . S
N2330 H2343 0.985 . S
N2331 C2333 1.356 . S
N2331 H2336 0.984 . S
N2331 H2337 0.985 . S
C2332 C2326 1.379 . S
C2332 C2329 1.363 . S
C2332 N2330 1.356 . S
C2333 C2327 1.363 . S
C2333 C2328 1.379 . S
C2333 N2331 1.356 . S
N2334 C2326 1.356 . S
N2334 H2340 0.978 1_556 S
N2334 H2341 0.984 . S
N2335 C2328 1.356 . S
N2335 H2338 0.984 . S
N2335 H2339 0.985 . S
H2336 N2331 0.984 . S
H2337 N2331 0.985 . S
H2338 N2335 0.984 . S
H2339 N2335 0.985 . S
H2340 N2334 0.978 1_554 S
H2341 N2334 0.984 . S
H2342 N2330 0.984 . S
H2343 N2330 0.985 . S
C2344 C2345 1.363 . S
C2344 C2350 1.379 1_556 S
C2344 N2352 1.356 1_556 S
C2345 C2344 1.363 . S
C2345 C2351 1.363 . S
C2346 C2347 1.363 . S
C2346 C2351 1.379 . S
C2346 N2353 1.356 . S
C2347 C2346 1.363 . S
C2347 C2350 1.363 1_556 S
N2348 C2350 1.356 . S
N2348 H2360 0.984 . S
N2348 H2361 0.985 . S
N2349 C2351 1.356 . S
N2349 H2354 0.984 . S
N2349 H2355 0.985 . S
C2350 C2344 1.379 1_554 S
C2350 C2347 1.363 1_554 S
C2350 N2348 1.356 . S
C2351 C2345 1.363 . S
C2351 C2346 1.379 . S
C2351 N2349 1.356 . S
N2352 C2344 1.356 1_554 S
N2352 H2358 0.984 . S
N2352 H2359 0.984 1_554 S
N2353 C2346 1.356 . S
N2353 H2356 0.984 . S
N2353 H2357 0.985 . S
H2354 N2349 0.984 . S
H2355 N2349 0.985 . S
H2356 N2353 0.984 . S
H2357 N2353 0.985 . S
H2358 N2352 0.984 . S
H2359 N2352 0.984 1_556 S
H2360 N2348 0.984 . S
H2361 N2348 0.985 . S
C2362 C2363 1.363 . S
C2362 C2368 1.379 . S
C2362 N2370 1.356 . S
C2363 C2362 1.363 . S
C2363 C2369 1.363 . S
C2364 C2365 1.363 . S
C2364 C2369 1.379 . S
C2364 N2371 1.356 . S
C2365 C2364 1.363 . S
C2365 C2368 1.363 . S
N2366 C2368 1.356 . S
N2366 H2378 0.984 . S
N2366 H2379 0.985 . S
N2367 C2369 1.356 . S
N2367 H2372 0.984 . S
N2367 H2373 0.985 . S
C2368 C2362 1.379 . S
C2368 C2365 1.363 . S
C2368 N2366 1.356 . S
C2369 C2363 1.363 . S
C2369 C2364 1.379 . S
C2369 N2367 1.356 . S
N2370 C2362 1.356 . S
N2370 H2376 0.984 . S
N2370 H2377 0.984 . S
N2371 C2364 1.356 . S
N2371 H2374 0.984 . S
N2371 H2375 0.985 . S
H2372 N2367 0.984 . S
H2373 N2367 0.985 . S
H2374 N2371 0.984 . S
H2375 N2371 0.985 . S
H2376 N2370 0.984 . S
H2377 N2370 0.984 . S
H2378 N2366 0.984 . S
H2379 N2366 0.985 . S
C2380 C2381 1.363 . S
C2380 C2386 1.379 . S
C2380 N2388 1.356 1_455 S
C2381 C2380 1.363 . S
C2381 C2387 1.363 . S
C2382 C2383 1.363 . S
C2382 C2387 1.379 . S
C2382 N2389 1.356 . S
C2383 C2382 1.363 . S
C2383 C2386 1.363 . S
N2384 C2386 1.356 1_655 S
N2384 H2396 0.984 . S
N2384 H2397 0.985 1_655 S
N2385 C2387 1.356 . S
N2385 H2390 0.984 . S
N2385 H2391 0.985 . S
C2386 C2380 1.379 . S
C2386 C2383 1.363 . S
C2386 N2384 1.356 1_455 S
C2387 C2381 1.363 . S
C2387 C2382 1.379 . S
C2387 N2385 1.356 . S
N2388 C2380 1.356 1_655 S
N2388 H2394 0.984 . S
N2388 H2395 0.984 . S
N2389 C2382 1.356 . S
N2389 H2392 0.984 . S
N2389 H2393 0.985 . S
H2390 N2385 0.984 . S
H2391 N2385 0.985 . S
H2392 N2389 0.984 . S
H2393 N2389 0.985 . S
H2394 N2388 0.984 . S
H2395 N2388 0.984 . S
H2396 N2384 0.984 . S
H2397 N2384 0.985 1_455 S
C2398 C2399 1.363 . S
C2398 C2404 1.379 . S
C2398 N2406 1.356 . S
C2399 C2398 1.363 . S
C2399 C2405 1.363 . S
C2400 C2401 1.363 . S
C2400 C2405 1.379 . S
C2400 N2407 1.356 . S
C2401 C2400 1.363 . S
C2401 C2404 1.363 . S
N2402 C2404 1.356 . S
N2402 H2414 0.984 . S
N2402 H2415 0.985 . S
N2403 C2405 1.356 . S
N2403 H2408 0.984 . S
N2403 H2409 0.985 . S
C2404 C2398 1.379 . S
C2404 C2401 1.363 . S
C2404 N2402 1.356 . S
C2405 C2399 1.363 . S
C2405 C2400 1.379 . S
C2405 N2403 1.356 . S
N2406 C2398 1.356 . S
N2406 H2412 0.984 . S
N2406 H2413 0.984 . S
N2407 C2400 1.356 . S
N2407 H2410 0.984 . S
N2407 H2411 0.985 . S
H2408 N2403 0.984 . S
H2409 N2403 0.985 . S
H2410 N2407 0.984 . S
H2411 N2407 0.985 . S
H2412 N2406 0.984 . S
H2413 N2406 0.984 . S
H2414 N2402 0.984 . S
H2415 N2402 0.985 . S
C2416 C2417 1.363 . S
C2416 C2422 1.379 . S
C2416 N2424 1.356 . S
C2417 C2416 1.363 . S
C2417 C2423 1.363 . S
C2418 C2419 1.363 . S
C2418 C2423 1.379 . S
C2418 N2425 1.356 . S
C2419 C2418 1.363 . S
C2419 C2422 1.363 . S
N2420 C2422 1.356 . S
N2420 H2432 0.984 . S
N2420 H2433 0.985 . S
N2421 C2423 1.356 . S
N2421 H2426 0.984 . S
N2421 H2427 0.985 . S
C2422 C2416 1.379 . S
C2422 C2419 1.363 . S
C2422 N2420 1.356 . S
C2423 C2417 1.363 . S
C2423 C2418 1.379 . S
C2423 N2421 1.356 . S
N2424 C2416 1.356 . S
N2424 H2430 0.984 . S
N2424 H2431 0.984 . S
N2425 C2418 1.356 . S
N2425 H2428 0.984 . S
N2425 H2429 0.985 . S
H2426 N2421 0.984 . S
H2427 N2421 0.985 . S
H2428 N2425 0.984 . S
H2429 N2425 0.985 . S
H2430 N2424 0.984 . S
H2431 N2424 0.984 . S
H2432 N2420 0.984 . S
H2433 N2420 0.985 . S
C2434 C2435 1.363 . S
C2434 C2440 1.379 . S
C2434 N2442 1.356 . S
C2435 C2434 1.363 . S
C2435 C2441 1.363 . S
C2436 C2437 1.363 . S
C2436 C2441 1.379 . S
C2436 N2443 1.356 . S
C2437 C2436 1.363 . S
C2437 C2440 1.363 . S
N2438 C2440 1.356 . S
N2438 H2450 0.984 . S
N2438 H2451 0.985 . S
N2439 C2441 1.356 . S
N2439 H2444 0.984 . S
N2439 H2445 0.985 . S
C2440 C2434 1.379 . S
C2440 C2437 1.363 . S
C2440 N2438 1.356 . S
C2441 C2435 1.363 . S
C2441 C2436 1.379 . S
C2441 N2439 1.356 . S
N2442 C2434 1.356 . S
N2442 H2448 0.984 . S
N2442 H2449 0.984 . S
N2443 C2436 1.356 . S
N2443 H2446 0.984 . S
N2443 H2447 0.985 . S
H2444 N2439 0.984 . S
H2445 N2439 0.985 . S
H2446 N2443 0.984 . S
H2447 N2443 0.985 . S
H2448 N2442 0.984 . S
H2449 N2442 0.984 . S
H2450 N2438 0.984 . S
H2451 N2438 0.985 . S
C2452 C2453 1.363 . S
C2452 C2458 1.379 . S
C2452 N2460 1.356 . S
C2453 C2452 1.363 . S
C2453 C2459 1.363 . S
C2454 C2455 1.363 1_455 S
C2454 C2459 1.379 1_455 S
C2454 N2461 1.356 . S
C2455 C2454 1.363 1_655 S
C2455 C2458 1.363 . S
N2456 C2458 1.356 . S
N2456 H2468 0.984 . S
N2456 H2469 0.985 1_556 S
N2457 C2459 1.356 1_455 S
N2457 H2462 0.984 1_455 S
N2457 H2463 0.985 . S
C2458 C2452 1.379 . S
C2458 C2455 1.363 . S
C2458 N2456 1.356 . S
C2459 C2453 1.363 . S
C2459 C2454 1.379 1_655 S
C2459 N2457 1.356 1_655 S
N2460 C2452 1.356 . S
N2460 H2466 0.984 . S
N2460 H2467 0.984 . S
N2461 C2454 1.356 . S
N2461 H2464 0.984 . S
N2461 H2465 0.985 . S
H2462 N2457 0.984 1_655 S
H2463 N2457 0.985 . S
H2464 N2461 0.984 . S
H2465 N2461 0.985 . S
H2466 N2460 0.984 . S
H2467 N2460 0.984 . S
H2468 N2456 0.984 . S
H2469 N2456 0.985 1_554 S
C2470 C2471 1.363 . S
C2470 C2476 1.379 . S
C2470 N2478 1.356 . S
C2471 C2470 1.363 . S
C2471 C2477 1.363 . S
C2472 C2473 1.363 . S
C2472 C2477 1.379 . S
C2472 N2479 1.356 . S
C2473 C2472 1.363 . S
C2473 C2476 1.363 . S
N2474 C2476 1.356 . S
N2474 H2486 0.984 . S
N2474 H2487 0.985 . S
N2475 C2477 1.356 . S
N2475 H2480 0.984 . S
N2475 H2481 0.985 . S
C2476 C2470 1.379 . S
C2476 C2473 1.363 . S
C2476 N2474 1.356 . S
C2477 C2471 1.363 . S
C2477 C2472 1.379 . S
C2477 N2475 1.356 . S
N2478 C2470 1.356 . S
N2478 H2484 0.984 . S
N2478 H2485 0.984 . S
N2479 C2472 1.356 . S
N2479 H2482 0.984 . S
N2479 H2483 0.985 . S
H2480 N2475 0.984 . S
H2481 N2475 0.985 . S
H2482 N2479 0.984 . S
H2483 N2479 0.985 . S
H2484 N2478 0.984 . S
H2485 N2478 0.984 . S
H2486 N2474 0.984 . S
H2487 N2474 0.985 . S
C2488 C2489 1.363 . S
C2488 C2494 1.379 . S
C2488 N2496 1.356 . S
C2489 C2488 1.363 . S
C2489 C2495 1.363 . S
C2490 C2491 1.363 . S
C2490 C2495 1.379 . S
C2490 N2497 1.356 . S
C2491 C2490 1.363 . S
C2491 C2494 1.363 . S
N2492 C2494 1.356 . S
N2492 H2504 0.984 . S
N2492 H2505 0.985 . S
N2493 C2495 1.356 . S
N2493 H2498 0.984 . S
N2493 H2499 0.985 . S
C2494 C2488 1.379 . S
C2494 C2491 1.363 . S
C2494 N2492 1.356 . S
C2495 C2489 1.363 . S
C2495 C2490 1.379 . S
C2495 N2493 1.356 . S
N2496 C2488 1.356 . S
N2496 H2502 0.984 . S
N2496 H2503 0.984 . S
N2497 C2490 1.356 . S
N2497 H2500 0.984 . S
N2497 H2501 0.985 . S
H2498 N2493 0.984 . S
H2499 N2493 0.985 . S
H2500 N2497 0.984 . S
H2501 N2497 0.985 . S
H2502 N2496 0.984 . S
H2503 N2496 0.984 . S
H2504 N2492 0.984 . S
H2505 N2492 0.985 . S
C2506 C2507 1.363 . S
C2506 C2512 1.379 . S
C2506 N2514 1.356 . S
C2507 C2506 1.363 . S
C2507 C2513 1.363 . S
C2508 C2509 1.363 . S
C2508 C2513 1.379 . S
C2508 N2515 1.356 . S
C2509 C2508 1.363 . S
C2509 C2512 1.363 . S
N2510 C2512 1.356 . S
N2510 H2522 0.984 . S
N2510 H2523 0.985 . S
N2511 C2513 1.356 . S
N2511 H2516 0.984 . S
N2511 H2517 0.985 . S
C2512 C2506 1.379 . S
C2512 C2509 1.363 . S
C2512 N2510 1.356 . S
C2513 C2507 1.363 . S
C2513 C2508 1.379 . S
C2513 N2511 1.356 . S
N2514 C2506 1.356 . S
N2514 H2520 0.984 . S
N2514 H2521 0.984 . S
N2515 C2508 1.356 . S
N2515 H2518 0.984 . S
N2515 H2519 0.985 . S
H2516 N2511 0.984 . S
H2517 N2511 0.985 . S
H2518 N2515 0.984 . S
H2519 N2515 0.985 . S
H2520 N2514 0.984 . S
H2521 N2514 0.984 . S
H2522 N2510 0.984 . S
H2523 N2510 0.985 . S
C2524 C2525 1.363 . S
C2524 C2530 1.379 . S
C2524 N2532 1.356 . S
C2525 C2524 1.363 . S
C2525 C2531 1.363 . S
C2526 C2527 1.363 . S
C2526 C2531 1.379 . S
C2526 N2533 1.356 . S
C2527 C2526 1.363 . S
C2527 C2530 1.363 . S
N2528 C2530 1.356 1_455 S
N2528 H2540 0.984 . S
N2528 H2541 0.985 . S
N2529 C2531 1.356 . S
N2529 H2534 0.984 . S
N2529 H2535 0.985 . S
C2530 C2524 1.379 . S
C2530 C2527 1.363 . S
C2530 N2528 1.356 1_655 S
C2531 C2525 1.363 . S
C2531 C2526 1.379 . S
C2531 N2529 1.356 . S
N2532 C2524 1.356 . S
N2532 H2538 0.984 . S
N2532 H2539 0.984 . S
N2533 C2526 1.356 . S
N2533 H2536 0.984 . S
N2533 H2537 0.985 . S
H2534 N2529 0.984 . S
H2535 N2529 0.985 . S
H2536 N2533 0.984 . S
H2537 N2533 0.985 . S
H2538 N2532 0.984 . S
H2539 N2532 0.984 . S
H2540 N2528 0.984 . S
H2541 N2528 0.985 . S
C2542 C2543 1.363 . S
C2542 C2548 1.379 . S
C2542 N2550 1.356 . S
C2543 C2542 1.363 . S
C2543 C2549 1.363 . S
C2544 C2545 1.363 . S
C2544 C2549 1.379 . S
C2544 N2551 1.356 . S
C2545 C2544 1.363 . S
C2545 C2548 1.363 . S
N2546 C2548 1.356 . S
N2546 H2558 0.984 . S
N2546 H2559 0.985 . S
N2547 C2549 1.356 . S
N2547 H2552 0.984 . S
N2547 H2553 0.985 . S
C2548 C2542 1.379 . S
C2548 C2545 1.363 . S
C2548 N2546 1.356 . S
C2549 C2543 1.363 . S
C2549 C2544 1.379 . S
C2549 N2547 1.356 . S
N2550 C2542 1.356 . S
N2550 H2556 0.984 . S
N2550 H2557 0.984 . S
N2551 C2544 1.356 . S
N2551 H2554 0.984 . S
N2551 H2555 0.985 . S
H2552 N2547 0.984 . S
H2553 N2547 0.985 . S
H2554 N2551 0.984 . S
H2555 N2551 0.985 . S
H2556 N2550 0.984 . S
H2557 N2550 0.984 . S
H2558 N2546 0.984 . S
H2559 N2546 0.985 . S
C2560 C2561 1.363 . S
C2560 C2566 1.379 . S
C2560 N2568 1.356 . S
C2561 C2560 1.363 . S
C2561 C2567 1.363 . S
C2562 C2563 1.363 . S
C2562 C2567 1.379 . S
C2562 N2569 1.356 . S
C2563 C2562 1.363 . S
C2563 C2566 1.363 . S
N2564 C2566 1.356 . S
N2564 H2576 0.984 . S
N2564 H2577 0.985 . S
N2565 C2567 1.356 . S
N2565 H2570 0.984 . S
N2565 H2571 0.985 . S
C2566 C2560 1.379 . S
C2566 C2563 1.363 . S
C2566 N2564 1.356 . S
C2567 C2561 1.363 . S
C2567 C2562 1.379 . S
C2567 N2565 1.356 . S
N2568 C2560 1.356 . S
N2568 H2574 0.984 . S
N2568 H2575 0.984 . S
N2569 C2562 1.356 . S
N2569 H2572 0.984 . S
N2569 H2573 0.985 . S
H2570 N2565 0.984 . S
H2571 N2565 0.985 . S
H2572 N2569 0.984 . S
H2573 N2569 0.985 . S
H2574 N2568 0.984 . S
H2575 N2568 0.984 . S
H2576 N2564 0.984 . S
H2577 N2564 0.985 . S
C2578 C2579 1.363 . S
C2578 C2584 1.376 1_565 S
C2578 N2586 1.356 . S
C2579 C2578 1.363 . S
C2579 C2585 1.363 . S
C2580 C2581 1.363 . S
C2580 C2585 1.379 . S
C2580 N2587 1.356 . S
C2581 C2580 1.363 . S
C2581 C2584 1.358 1_565 S
N2582 C2584 1.363 . S
N2582 H2594 0.984 . S
N2582 H2595 0.985 . S
N2583 C2585 1.356 . S
N2583 H2588 0.984 . S
N2583 H2589 0.985 . S
C2584 C2578 1.376 1_545 S
C2584 C2581 1.358 1_545 S
C2584 N2582 1.363 . S
C2585 C2579 1.363 . S
C2585 C2580 1.379 . S
C2585 N2583 1.356 . S
N2586 C2578 1.356 . S
N2586 H2592 0.984 1_565 S
N2586 H2593 0.984 . S
N2587 C2580 1.356 . S
N2587 H2590 0.984 . S
N2587 H2591 0.985 . S
H2588 N2583 0.984 . S
H2589 N2583 0.985 . S
H2590 N2587 0.984 . S
H2591 N2587 0.985 . S
H2592 N2586 0.984 1_545 S
H2593 N2586 0.984 . S
H2594 N2582 0.984 . S
H2595 N2582 0.985 . S
C2596 C2597 1.363 . S
C2596 C2602 1.379 . S
C2596 N2604 1.356 . S
C2597 C2596 1.363 . S
C2597 C2603 1.363 . S
C2598 C2599 1.363 . S
C2598 C2603 1.379 . S
C2598 N2605 1.356 . S
C2599 C2598 1.363 . S
C2599 C2602 1.363 . S
N2600 C2602 1.356 . S
N2600 H2612 0.984 . S
N2600 H2613 0.985 . S
N2601 C2603 1.356 . S
N2601 H2606 0.984 . S
N2601 H2607 0.985 . S
C2602 C2596 1.379 . S
C2602 C2599 1.363 . S
C2602 N2600 1.356 . S
C2603 C2597 1.363 . S
C2603 C2598 1.379 . S
C2603 N2601 1.356 . S
N2604 C2596 1.356 . S
N2604 H2610 0.984 . S
N2604 H2611 0.984 . S
N2605 C2598 1.356 . S
N2605 H2608 0.984 . S
N2605 H2609 0.985 . S
H2606 N2601 0.984 . S
H2607 N2601 0.985 . S
H2608 N2605 0.984 . S
H2609 N2605 0.985 . S
H2610 N2604 0.984 . S
H2611 N2604 0.984 . S
H2612 N2600 0.984 . S
H2613 N2600 0.985 . S
C2614 C2615 1.363 . S
C2614 C2620 1.379 . S
C2614 N2622 1.356 . S
C2615 C2614 1.363 . S
C2615 C2621 1.363 . S
C2616 C2617 1.363 . S
C2616 C2621 1.379 . S
C2616 N2623 1.356 . S
C2617 C2616 1.363 . S
C2617 C2620 1.363 . S
N2618 C2620 1.356 . S
N2618 H2630 0.984 . S
N2618 H2631 0.985 . S
N2619 C2621 1.356 . S
N2619 H2624 0.984 . S
N2619 H2625 0.985 . S
C2620 C2614 1.379 . S
C2620 C2617 1.363 . S
C2620 N2618 1.356 . S
C2621 C2615 1.363 . S
C2621 C2616 1.379 . S
C2621 N2619 1.356 . S
N2622 C2614 1.356 . S
N2622 H2628 0.984 . S
N2622 H2629 0.984 . S
N2623 C2616 1.356 . S
N2623 H2626 0.984 . S
N2623 H2627 0.985 . S
H2624 N2619 0.984 . S
H2625 N2619 0.985 . S
H2626 N2623 0.984 . S
H2627 N2623 0.985 . S
H2628 N2622 0.984 . S
H2629 N2622 0.984 . S
H2630 N2618 0.984 . S
H2631 N2618 0.985 . S
C2632 C2633 1.363 . S
C2632 C2638 1.379 . S
C2632 N2640 1.356 . S
C2633 C2632 1.363 . S
C2633 C2639 1.363 . S
C2634 C2635 1.363 . S
C2634 C2639 1.379 . S
C2634 N2641 1.356 . S
C2635 C2634 1.363 . S
C2635 C2638 1.363 . S
N2636 C2638 1.356 . S
N2636 H2648 0.984 . S
N2636 H2649 0.985 . S
N2637 C2639 1.356 . S
N2637 H2642 0.984 . S
N2637 H2643 0.985 . S
C2638 C2632 1.379 . S
C2638 C2635 1.363 . S
C2638 N2636 1.356 . S
C2639 C2633 1.363 . S
C2639 C2634 1.379 . S
C2639 N2637 1.356 . S
N2640 C2632 1.356 . S
N2640 H2646 0.984 . S
N2640 H2647 0.984 . S
N2641 C2634 1.356 . S
N2641 H2644 0.984 . S
N2641 H2645 0.985 . S
H2642 N2637 0.984 . S
H2643 N2637 0.985 . S
H2644 N2641 0.984 . S
H2645 N2641 0.985 . S
H2646 N2640 0.984 . S
H2647 N2640 0.984 . S
H2648 N2636 0.984 . S
H2649 N2636 0.985 . S
C2650 C2651 1.363 . S
C2650 C2656 1.379 . S
C2650 N2658 1.356 . S
C2651 C2650 1.363 . S
C2651 C2657 1.363 . S
C2652 C2653 1.363 . S
C2652 C2657 1.379 . S
C2652 N2659 1.356 . S
C2653 C2652 1.363 . S
C2653 C2656 1.363 . S
N2654 C2656 1.356 . S
N2654 H2666 0.984 . S
N2654 H2667 0.985 . S
N2655 C2657 1.356 . S
N2655 H2660 0.984 . S
N2655 H2661 0.985 . S
C2656 C2650 1.379 . S
C2656 C2653 1.363 . S
C2656 N2654 1.356 . S
C2657 C2651 1.363 . S
C2657 C2652 1.379 . S
C2657 N2655 1.356 . S
N2658 C2650 1.356 . S
N2658 H2664 0.984 . S
N2658 H2665 0.984 . S
N2659 C2652 1.356 . S
N2659 H2662 0.984 . S
N2659 H2663 0.985 1_554 S
H2660 N2655 0.984 . S
H2661 N2655 0.985 . S
H2662 N2659 0.984 . S
H2663 N2659 0.985 1_556 S
H2664 N2658 0.984 . S
H2665 N2658 0.984 . S
H2666 N2654 0.984 . S
H2667 N2654 0.985 . S
C2668 C2669 1.363 . S
C2668 C2674 1.379 . S
C2668 N2676 1.356 . S
C2669 C2668 1.363 . S
C2669 C2675 1.363 . S
C2670 C2671 1.363 . S
C2670 C2675 1.379 . S
C2670 N2677 1.356 . S
C2671 C2670 1.363 . S
C2671 C2674 1.363 . S
N2672 C2674 1.356 . S
N2672 H2684 0.984 . S
N2672 H2685 0.985 . S
N2673 C2675 1.356 . S
N2673 H2678 0.984 . S
N2673 H2679 0.985 . S
C2674 C2668 1.379 . S
C2674 C2671 1.363 . S
C2674 N2672 1.356 . S
C2675 C2669 1.363 . S
C2675 C2670 1.379 . S
C2675 N2673 1.356 . S
N2676 C2668 1.356 . S
N2676 H2682 0.984 . S
N2676 H2683 0.984 . S
N2677 C2670 1.356 . S
N2677 H2680 0.984 . S
N2677 H2681 0.985 . S
H2678 N2673 0.984 . S
H2679 N2673 0.985 . S
H2680 N2677 0.984 . S
H2681 N2677 0.985 . S
H2682 N2676 0.984 . S
H2683 N2676 0.984 . S
H2684 N2672 0.984 . S
H2685 N2672 0.985 . S
C2686 C2687 1.363 . S
C2686 C2692 1.379 . S
C2686 N2694 1.356 . S
C2687 C2686 1.363 . S
C2687 C2693 1.363 . S
C2688 C2689 1.363 . S
C2688 C2693 1.379 . S
C2688 N2695 1.356 . S
C2689 C2688 1.363 . S
C2689 C2692 1.363 . S
N2690 C2692 1.356 . S
N2690 H2702 0.984 . S
N2690 H2703 0.985 . S
N2691 C2693 1.356 . S
N2691 H2696 0.984 . S
N2691 H2697 0.985 . S
C2692 C2686 1.379 . S
C2692 C2689 1.363 . S
C2692 N2690 1.356 . S
C2693 C2687 1.363 . S
C2693 C2688 1.379 . S
C2693 N2691 1.356 . S
N2694 C2686 1.356 . S
N2694 H2700 0.984 . S
N2694 H2701 0.984 . S
N2695 C2688 1.356 . S
N2695 H2698 0.984 . S
N2695 H2699 0.985 . S
H2696 N2691 0.984 . S
H2697 N2691 0.985 . S
H2698 N2695 0.984 . S
H2699 N2695 0.985 . S
H2700 N2694 0.984 . S
H2701 N2694 0.984 . S
H2702 N2690 0.984 . S
H2703 N2690 0.985 . S
C977 C111 2.373 1_455 S
C979 C346 2.311 . S
C995 C64 1.961 . S
C997 C394 2.052 . S
C1013 C77 1.476 . S
C1015 C426 1.477 . S
C1033 C471 1.528 . S
C1031 C95 1.624 . S
C1049 C25 0.813 . S
C1051 C511 0.813 . S
C1069 C546 1.161 . S
C1067 C36 1.044 . S
C1087 C585 1.327 . S
C1085 C50 1.334 . S
C1103 C11 1.284 . S
C1105 C622 1.259 . S
C1123 C354 2.141 . S
C1121 C237 2.082 1_545 S
C1139 C245 0.934 . S
C1141 C391 0.919 . S
C1159 C434 2.238 . S
C1157 C279 2.069 . S
C1177 C466 1.150 . S
C1175 C175 1.148 . S
C1193 C231 1.401 . S
C1195 C506 1.387 . S
C1213 C554 0.720 . S
C1211 C251 0.773 . S
C1231 C595 2.161 . S
C1229 C273 2.220 . S
C1249 C625 2.070 . S
C1247 C181 2.031 . S
C1267 C351 1.993 . S
C1265 C165 2.142 1_554 S
C1283 C288 2.043 . S
C1285 C674 2.122 . S
C1303 C711 1.158 . S
C1301 C333 1.183 . S
C1321 C742 1.181 . S
C1319 C316 1.308 . S
C1337 C123 2.646 . S
C1339 C635 2.600 . S
C1355 C137 1.399 . S
C1357 C431 1.354 . S
C1373 C330 1.635 . S
C1375 C794 1.726 . S
C1393 C826 1.933 . S
C1391 C302 1.906 . S
C1411 C355 2.374 . S
C1409 C63 2.464 . S
C1429 C825 2.086 . S
C1427 C106 2.102 . S
C1445 C97 1.496 . S
C1447 C435 1.543 . S
C1463 C81 1.602 . S
C1465 C782 1.583 . S
C1483 C502 0.921 1_655 S
C1481 C13 0.900 1_455 S
C1499 C55 1.250 . S
C1501 C715 1.279 . S
C1519 C594 1.174 . S
C1517 C35 1.159 . S
C1537 C871 1.391 . S
C1535 C21 1.393 . S
C1555 C345 2.244 1_556 S
C1553 C147 2.229 . S
C1573 C822 0.911 . S
C1571 C321 0.863 . S
C1589 C119 2.291 . S
C1591 C425 2.280 . S
C1607 C293 1.233 . S
C1609 C795 1.289 . S
C1625 C153 1.479 . S
C1627 C515 1.520 . S
C1645 C705 0.759 . S
C1643 C315 0.755 . S
C1661 C125 2.040 . S
C1663 C586 2.125 . S
C1679 C287 2.132 1_556 S
C1681 C874 2.131 . S
C1697 C193 1.968 . S
C1699 C342 1.969 . S
C1715 C176 2.158 . S
C1717 C665 2.146 . S
C1733 C263 1.173 . S
C1735 C542 1.187 . S
C1751 C246 1.159 . S
C1753 C751 1.074 . S
C1771 C866 2.698 . S
C1769 C277 2.745 . S
C1787 C221 1.393 . S
C1789 C422 1.396 . S
C1807 C465 1.730 . S
C1805 C260 1.762 . S
C1825 C395 2.003 . S
C1823 C204 1.838 . S
C1841 C83 2.390 . S
C1843 C906 2.311 . S
C1861 C834 2.052 . S
C1859 C92 1.961 . S
C1877 C105 1.477 . S
C1879 C946 1.477 . S
C1895 C67 1.624 . S
C1897 C791 1.528 . S
C1913 C53 0.813 . S
C1915 C671 0.813 . S
C1933 C706 1.161 . S
C1931 C8 1.044 . S
C1951 C745 1.328 . S
C1949 C22 1.334 . S
C1969 C862 1.259 . S
C1967 C39 1.285 . S
C1987 C914 2.141 . S
C1985 C265 2.082 . S
C2003 C189 0.934 . S
C2005 C831 0.919 . S
C2023 C954 2.238 . S
C2021 C209 2.069 . S
C2041 C786 1.150 . S
C2039 C217 1.148 . S
C2059 C666 1.387 1_556 S
C2057 C259 1.401 . S
C2075 C195 0.774 . S
C2077 C714 0.720 . S
C2095 C755 2.135 . S
C2093 C203 2.220 . S
C2111 C223 2.031 . S
C2113 C865 2.070 . S
C2131 C911 1.993 . S
C2129 C319 2.144 . S
C2147 C134 2.043 . S
C2149 C514 2.122 . S
C2167 C551 1.158 . S
C2165 C151 1.182 . S
C2185 C582 1.181 . S
C2183 C162 1.309 . S
C2203 C875 2.600 . S
C2201 C305 2.646 . S
C2219 C291 1.399 . S
C2221 C951 1.354 . S
C2239 C474 1.726 . S
C2237 C148 1.635 . S
C2257 C386 1.933 . S
C2255 C120 1.906 . S
C2273 C91 2.464 . S
C2275 C915 2.374 . S
C2293 C385 2.086 . S
C2291 C78 2.102 . S
C2309 C69 1.495 . S
C2311 C955 1.543 . S
C2327 C109 1.602 . S
C2329 C462 1.583 . S
C2345 C41 0.922 . S
C2347 C662 0.930 . S
C2365 C555 1.279 . S
C2363 C27 1.250 . S
C2381 C7 1.159 . S
C2383 C754 1.174 . S
C2399 C49 1.394 . S
C2401 C631 1.391 . S
C2419 C905 2.244 . S
C2417 C329 2.229 . S
C2435 C167 0.863 . S
C2437 C382 0.907 . S
C2455 C945 2.280 1_656 S
C2453 C301 2.291 . S
C2471 C139 1.233 . S
C2473 C475 1.289 . S
C2489 C335 1.479 . S
C2491 C675 1.520 . S
C2509 C545 0.759 . S
C2507 C161 0.758 . S
C2525 C307 2.040 . S
C2527 C746 2.125 1_655 S
C2545 C634 2.131 . S
C2543 C133 2.132 . S
C2563 C902 1.969 . S
C2561 C249 1.968 . S
C2581 C505 2.146 1_565 S
C2579 C218 2.158 . S
C2597 C235 1.172 . S
C2599 C702 1.186 . S
C2617 C591 1.074 . S
C2615 C190 1.160 . S
C2633 C207 2.745 . S
C2635 C626 2.697 . S
C2651 C179 1.393 . S
C2653 C942 1.396 . S
C2671 C785 1.730 . S
C2669 C232 1.763 . S
C2689 C835 2.003 . S
C2687 C274 1.838 . S
